# Generated by pormake.
# Topology vcc, (6)-cn, num edge types: 1
# Building blocks:
#     Node 0, Type 0, BuildingBlock: VOLQOD_clean_sbu_1, # of connection points: 6
#     Node 1, Type 0, BuildingBlock: VOLQOD_clean_sbu_1, # of connection points: 6
#     Node 2, Type 0, BuildingBlock: VOLQOD_clean_sbu_1, # of connection points: 6
#     Node 3, Type 0, BuildingBlock: VOLQOD_clean_sbu_1, # of connection points: 6
#     Node 4, Type 0, BuildingBlock: VOLQOD_clean_sbu_1, # of connection points: 6
#     Node 5, Type 0, BuildingBlock: VOLQOD_clean_sbu_1, # of connection points: 6
#     Node 6, Type 0, BuildingBlock: VOLQOD_clean_sbu_1, # of connection points: 6
#     Node 7, Type 0, BuildingBlock: VOLQOD_clean_sbu_1, # of connection points: 6
#     Node 8, Type 0, BuildingBlock: VOLQOD_clean_sbu_1, # of connection points: 6
#     Node 9, Type 0, BuildingBlock: VOLQOD_clean_sbu_1, # of connection points: 6
#     Node 10, Type 0, BuildingBlock: VOLQOD_clean_sbu_1, # of connection points: 6
#     Node 11, Type 0, BuildingBlock: VOLQOD_clean_sbu_1, # of connection points: 6
#     Node 12, Type 0, BuildingBlock: VOLQOD_clean_sbu_1, # of connection points: 6
#     Node 13, Type 0, BuildingBlock: VOLQOD_clean_sbu_1, # of connection points: 6
#     Node 14, Type 0, BuildingBlock: VOLQOD_clean_sbu_1, # of connection points: 6
#     Node 15, Type 0, BuildingBlock: VOLQOD_clean_sbu_1, # of connection points: 6
#     Node 16, Type 0, BuildingBlock: VOLQOD_clean_sbu_1, # of connection points: 6
#     Node 17, Type 0, BuildingBlock: VOLQOD_clean_sbu_1, # of connection points: 6
#     Node 18, Type 0, BuildingBlock: VOLQOD_clean_sbu_1, # of connection points: 6
#     Node 19, Type 0, BuildingBlock: VOLQOD_clean_sbu_1, # of connection points: 6
#     Node 20, Type 0, BuildingBlock: VOLQOD_clean_sbu_1, # of connection points: 6
#     Node 21, Type 0, BuildingBlock: VOLQOD_clean_sbu_1, # of connection points: 6
#     Node 22, Type 0, BuildingBlock: VOLQOD_clean_sbu_1, # of connection points: 6
#     Node 23, Type 0, BuildingBlock: VOLQOD_clean_sbu_1, # of connection points: 6
#     Node 24, Type 0, BuildingBlock: VOLQOD_clean_sbu_1, # of connection points: 6
#     Node 25, Type 0, BuildingBlock: VOLQOD_clean_sbu_1, # of connection points: 6
#     Node 26, Type 0, BuildingBlock: VOLQOD_clean_sbu_1, # of connection points: 6
#     Node 27, Type 0, BuildingBlock: VOLQOD_clean_sbu_1, # of connection points: 6
#     Node 28, Type 0, BuildingBlock: VOLQOD_clean_sbu_1, # of connection points: 6
#     Node 29, Type 0, BuildingBlock: VOLQOD_clean_sbu_1, # of connection points: 6
#     Node 30, Type 0, BuildingBlock: VOLQOD_clean_sbu_1, # of connection points: 6
#     Node 31, Type 0, BuildingBlock: VOLQOD_clean_sbu_1, # of connection points: 6
#     Edge 32, Type (0, 0), BuildingBlock: KIFKEQ_clean_linker_1, # of connection points: 2
#     Edge 33, Type (0, 0), BuildingBlock: KIFKEQ_clean_linker_1, # of connection points: 2
#     Edge 34, Type (0, 0), BuildingBlock: KIFKEQ_clean_linker_1, # of connection points: 2
#     Edge 35, Type (0, 0), BuildingBlock: KIFKEQ_clean_linker_1, # of connection points: 2
#     Edge 36, Type (0, 0), BuildingBlock: KIFKEQ_clean_linker_1, # of connection points: 2
#     Edge 37, Type (0, 0), BuildingBlock: KIFKEQ_clean_linker_1, # of connection points: 2
#     Edge 38, Type (0, 0), BuildingBlock: KIFKEQ_clean_linker_1, # of connection points: 2
#     Edge 39, Type (0, 0), BuildingBlock: KIFKEQ_clean_linker_1, # of connection points: 2
#     Edge 40, Type (0, 0), BuildingBlock: KIFKEQ_clean_linker_1, # of connection points: 2
#     Edge 41, Type (0, 0), BuildingBlock: KIFKEQ_clean_linker_1, # of connection points: 2
#     Edge 42, Type (0, 0), BuildingBlock: KIFKEQ_clean_linker_1, # of connection points: 2
#     Edge 43, Type (0, 0), BuildingBlock: KIFKEQ_clean_linker_1, # of connection points: 2
#     Edge 44, Type (0, 0), BuildingBlock: KIFKEQ_clean_linker_1, # of connection points: 2
#     Edge 45, Type (0, 0), BuildingBlock: KIFKEQ_clean_linker_1, # of connection points: 2
#     Edge 46, Type (0, 0), BuildingBlock: KIFKEQ_clean_linker_1, # of connection points: 2
#     Edge 47, Type (0, 0), BuildingBlock: KIFKEQ_clean_linker_1, # of connection points: 2
#     Edge 48, Type (0, 0), BuildingBlock: KIFKEQ_clean_linker_1, # of connection points: 2
#     Edge 49, Type (0, 0), BuildingBlock: KIFKEQ_clean_linker_1, # of connection points: 2
#     Edge 50, Type (0, 0), BuildingBlock: KIFKEQ_clean_linker_1, # of connection points: 2
#     Edge 51, Type (0, 0), BuildingBlock: KIFKEQ_clean_linker_1, # of connection points: 2
#     Edge 52, Type (0, 0), BuildingBlock: KIFKEQ_clean_linker_1, # of connection points: 2
#     Edge 53, Type (0, 0), BuildingBlock: KIFKEQ_clean_linker_1, # of connection points: 2
#     Edge 54, Type (0, 0), BuildingBlock: KIFKEQ_clean_linker_1, # of connection points: 2
#     Edge 55, Type (0, 0), BuildingBlock: KIFKEQ_clean_linker_1, # of connection points: 2
#     Edge 56, Type (0, 0), BuildingBlock: KIFKEQ_clean_linker_1, # of connection points: 2
#     Edge 57, Type (0, 0), BuildingBlock: KIFKEQ_clean_linker_1, # of connection points: 2
#     Edge 58, Type (0, 0), BuildingBlock: KIFKEQ_clean_linker_1, # of connection points: 2
#     Edge 59, Type (0, 0), BuildingBlock: KIFKEQ_clean_linker_1, # of connection points: 2
#     Edge 60, Type (0, 0), BuildingBlock: KIFKEQ_clean_linker_1, # of connection points: 2
#     Edge 61, Type (0, 0), BuildingBlock: KIFKEQ_clean_linker_1, # of connection points: 2
#     Edge 62, Type (0, 0), BuildingBlock: KIFKEQ_clean_linker_1, # of connection points: 2
#     Edge 63, Type (0, 0), BuildingBlock: KIFKEQ_clean_linker_1, # of connection points: 2
#     Edge 64, Type (0, 0), BuildingBlock: KIFKEQ_clean_linker_1, # of connection points: 2
#     Edge 65, Type (0, 0), BuildingBlock: KIFKEQ_clean_linker_1, # of connection points: 2
#     Edge 66, Type (0, 0), BuildingBlock: KIFKEQ_clean_linker_1, # of connection points: 2
#     Edge 67, Type (0, 0), BuildingBlock: KIFKEQ_clean_linker_1, # of connection points: 2
#     Edge 68, Type (0, 0), BuildingBlock: KIFKEQ_clean_linker_1, # of connection points: 2
#     Edge 69, Type (0, 0), BuildingBlock: KIFKEQ_clean_linker_1, # of connection points: 2
#     Edge 70, Type (0, 0), BuildingBlock: KIFKEQ_clean_linker_1, # of connection points: 2
#     Edge 71, Type (0, 0), BuildingBlock: KIFKEQ_clean_linker_1, # of connection points: 2
#     Edge 72, Type (0, 0), BuildingBlock: KIFKEQ_clean_linker_1, # of connection points: 2
#     Edge 73, Type (0, 0), BuildingBlock: KIFKEQ_clean_linker_1, # of connection points: 2
#     Edge 74, Type (0, 0), BuildingBlock: KIFKEQ_clean_linker_1, # of connection points: 2
#     Edge 75, Type (0, 0), BuildingBlock: KIFKEQ_clean_linker_1, # of connection points: 2
#     Edge 76, Type (0, 0), BuildingBlock: KIFKEQ_clean_linker_1, # of connection points: 2
#     Edge 77, Type (0, 0), BuildingBlock: KIFKEQ_clean_linker_1, # of connection points: 2
#     Edge 78, Type (0, 0), BuildingBlock: KIFKEQ_clean_linker_1, # of connection points: 2
#     Edge 79, Type (0, 0), BuildingBlock: KIFKEQ_clean_linker_1, # of connection points: 2
#     Edge 80, Type (0, 0), BuildingBlock: KIFKEQ_clean_linker_1, # of connection points: 2
#     Edge 81, Type (0, 0), BuildingBlock: KIFKEQ_clean_linker_1, # of connection points: 2
#     Edge 82, Type (0, 0), BuildingBlock: KIFKEQ_clean_linker_1, # of connection points: 2
#     Edge 83, Type (0, 0), BuildingBlock: KIFKEQ_clean_linker_1, # of connection points: 2
#     Edge 84, Type (0, 0), BuildingBlock: KIFKEQ_clean_linker_1, # of connection points: 2
#     Edge 85, Type (0, 0), BuildingBlock: KIFKEQ_clean_linker_1, # of connection points: 2
#     Edge 86, Type (0, 0), BuildingBlock: KIFKEQ_clean_linker_1, # of connection points: 2
#     Edge 87, Type (0, 0), BuildingBlock: KIFKEQ_clean_linker_1, # of connection points: 2
#     Edge 88, Type (0, 0), BuildingBlock: KIFKEQ_clean_linker_1, # of connection points: 2
#     Edge 89, Type (0, 0), BuildingBlock: KIFKEQ_clean_linker_1, # of connection points: 2
#     Edge 90, Type (0, 0), BuildingBlock: KIFKEQ_clean_linker_1, # of connection points: 2
#     Edge 91, Type (0, 0), BuildingBlock: KIFKEQ_clean_linker_1, # of connection points: 2
#     Edge 92, Type (0, 0), BuildingBlock: KIFKEQ_clean_linker_1, # of connection points: 2
#     Edge 93, Type (0, 0), BuildingBlock: KIFKEQ_clean_linker_1, # of connection points: 2
#     Edge 94, Type (0, 0), BuildingBlock: KIFKEQ_clean_linker_1, # of connection points: 2
#     Edge 95, Type (0, 0), BuildingBlock: KIFKEQ_clean_linker_1, # of connection points: 2
#     Edge 96, Type (0, 0), BuildingBlock: KIFKEQ_clean_linker_1, # of connection points: 2
#     Edge 97, Type (0, 0), BuildingBlock: KIFKEQ_clean_linker_1, # of connection points: 2
#     Edge 98, Type (0, 0), BuildingBlock: KIFKEQ_clean_linker_1, # of connection points: 2
#     Edge 99, Type (0, 0), BuildingBlock: KIFKEQ_clean_linker_1, # of connection points: 2
#     Edge 100, Type (0, 0), BuildingBlock: KIFKEQ_clean_linker_1, # of connection points: 2
#     Edge 101, Type (0, 0), BuildingBlock: KIFKEQ_clean_linker_1, # of connection points: 2
#     Edge 102, Type (0, 0), BuildingBlock: KIFKEQ_clean_linker_1, # of connection points: 2
#     Edge 103, Type (0, 0), BuildingBlock: KIFKEQ_clean_linker_1, # of connection points: 2
#     Edge 104, Type (0, 0), BuildingBlock: KIFKEQ_clean_linker_1, # of connection points: 2
#     Edge 105, Type (0, 0), BuildingBlock: KIFKEQ_clean_linker_1, # of connection points: 2
#     Edge 106, Type (0, 0), BuildingBlock: KIFKEQ_clean_linker_1, # of connection points: 2
#     Edge 107, Type (0, 0), BuildingBlock: KIFKEQ_clean_linker_1, # of connection points: 2
#     Edge 108, Type (0, 0), BuildingBlock: KIFKEQ_clean_linker_1, # of connection points: 2
#     Edge 109, Type (0, 0), BuildingBlock: KIFKEQ_clean_linker_1, # of connection points: 2
#     Edge 110, Type (0, 0), BuildingBlock: KIFKEQ_clean_linker_1, # of connection points: 2
#     Edge 111, Type (0, 0), BuildingBlock: KIFKEQ_clean_linker_1, # of connection points: 2
#     Edge 112, Type (0, 0), BuildingBlock: KIFKEQ_clean_linker_1, # of connection points: 2
#     Edge 113, Type (0, 0), BuildingBlock: KIFKEQ_clean_linker_1, # of connection points: 2
#     Edge 114, Type (0, 0), BuildingBlock: KIFKEQ_clean_linker_1, # of connection points: 2
#     Edge 115, Type (0, 0), BuildingBlock: KIFKEQ_clean_linker_1, # of connection points: 2
#     Edge 116, Type (0, 0), BuildingBlock: KIFKEQ_clean_linker_1, # of connection points: 2
#     Edge 117, Type (0, 0), BuildingBlock: KIFKEQ_clean_linker_1, # of connection points: 2
#     Edge 118, Type (0, 0), BuildingBlock: KIFKEQ_clean_linker_1, # of connection points: 2
#     Edge 119, Type (0, 0), BuildingBlock: KIFKEQ_clean_linker_1, # of connection points: 2
#     Edge 120, Type (0, 0), BuildingBlock: KIFKEQ_clean_linker_1, # of connection points: 2
#     Edge 121, Type (0, 0), BuildingBlock: KIFKEQ_clean_linker_1, # of connection points: 2
#     Edge 122, Type (0, 0), BuildingBlock: KIFKEQ_clean_linker_1, # of connection points: 2
#     Edge 123, Type (0, 0), BuildingBlock: KIFKEQ_clean_linker_1, # of connection points: 2
#     Edge 124, Type (0, 0), BuildingBlock: KIFKEQ_clean_linker_1, # of connection points: 2
#     Edge 125, Type (0, 0), BuildingBlock: KIFKEQ_clean_linker_1, # of connection points: 2
#     Edge 126, Type (0, 0), BuildingBlock: KIFKEQ_clean_linker_1, # of connection points: 2
#     Edge 127, Type (0, 0), BuildingBlock: KIFKEQ_clean_linker_1, # of connection points: 2
# Relax obj value: 0.035
# Max RMSD: 0.059
# Mean RMSD: 0.059
data_MOF--net-vcc--node1-VOLQOD_clean_sbu_1--edge1-KIFKEQ_clean_linker_1
_symmetry_space_group_name_H-M    P1
_symmetry_Int_Tables_number       1
_symmetry_cell_setting            triclinic
loop_
_symmetry_equiv_pos_as_xyz
'x, y, z'
_cell_length_a     59.227276
_cell_length_b     67.806733
_cell_length_c     38.042984
_cell_angle_alpha  90.045443
_cell_angle_beta   90.029715
_cell_angle_gamma 90.025545
loop_
_atom_site_label
_atom_site_type_symbol
_atom_site_fract_x
_atom_site_fract_y
_atom_site_fract_z
_atom_type_partial_charge
O0 O 0.30123 0.97133 0.04707 0.0
Zn1 Zn 0.32449 0.9677 0.08612 0.0
O2 O 0.3471 0.98799 0.08677 0.0
Zn3 Zn 0.37549 0.97874 0.06754 0.0
Zn4 Zn 0.33303 0.00766 0.05879 0.0
Zn5 Zn 0.35241 -0.00085 0.13235 0.0
O6 O 0.40191 0.98595 0.10027 0.0
O7 O 0.38334 -0.00772 0.14987 0.0
O8 O 0.3391 0.94142 0.08095 0.0
O9 O 0.37434 0.94902 0.06583 0.0
O10 O 0.37842 0.98829 0.01684 0.0
O11 O 0.34672 0.00579 0.01271 0.0
O12 O 0.33857 0.03436 0.07656 0.0
O13 O 0.30786 0.96948 0.1315 0.0
O14 O 0.35197 0.02888 0.13003 0.0
O15 O 0.32776 0.99034 0.16465 0.0
C16 C 0.29153 0.98757 0.03963 0.0
C17 C 0.40178 0.98929 0.13341 0.0
C18 C 0.36416 -0.00177 -0.00109 0.0
C19 C 0.35899 0.93631 0.07213 0.0
C20 C 0.34624 0.04066 0.10558 0.0
C21 C 0.3109 0.97892 0.16009 0.0
O22 O 0.29997 0.00382 0.04987 0.0
O23 O 0.9548 0.256 0.05334 0.0
Zn24 Zn 0.92979 0.26019 0.08918 0.0
O25 O 0.90558 0.24087 0.08456 0.0
Zn26 Zn 0.87754 0.25296 0.06897 0.0
Zn27 Zn 0.91604 0.22139 0.05137 0.0
Zn28 Zn 0.89929 0.22792 0.12864 0.0
O29 O 0.8513 0.24773 0.10251 0.0
O30 O 0.86931 0.23575 0.14904 0.0
O31 O 0.91784 0.28762 0.08265 0.0
O32 O 0.88229 0.28215 0.06629 0.0
O33 O 0.87009 0.24446 0.01967 0.0
O34 O 0.89787 0.22343 0.00851 0.0
O35 O 0.91263 0.19413 0.0691 0.0
O36 O 0.94435 0.2572 0.13641 0.0
O37 O 0.89864 0.19853 0.12258 0.0
O38 O 0.92396 0.23379 0.1623 0.0
C39 C 0.96029 0.24088 0.03536 0.0
C40 C 0.85136 0.24209 0.13451 0.0
C41 C 0.88043 0.23283 -0.0011 0.0
C42 C 0.89867 0.29386 0.07238 0.0
C43 C 0.9049 0.18725 0.09769 0.0
C44 C 0.94058 0.24567 0.16216 0.0
O45 O 0.94777 0.22566 0.03484 0.0
O46 O 0.30213 0.25666 0.19039 0.0
Zn47 Zn 0.3261 0.25995 0.15258 0.0
O48 O 0.34964 0.24019 0.15413 0.0
Zn49 Zn 0.3782 0.25107 0.1703 0.0
Zn50 Zn 0.33805 0.22028 0.18508 0.0
Zn51 Zn 0.35518 0.22845 0.1086 0.0
O52 O 0.40404 0.24555 0.13596 0.0
O53 O 0.38499 0.23676 0.08811 0.0
O54 O 0.33949 0.28687 0.15716 0.0
O55 O 0.37489 0.28046 0.17323 0.0
O56 O 0.38518 0.24129 0.21925 0.0
O57 O 0.3572 0.21985 0.2267 0.0
O58 O 0.34003 0.19376 0.16449 0.0
O59 O 0.30962 0.25676 0.1074 0.0
O60 O 0.35585 0.19883 0.11246 0.0
O61 O 0.32981 0.23517 0.0764 0.0
C62 C 0.29556 0.24116 0.20627 0.0
C63 C 0.40341 0.24159 0.10314 0.0
C64 C 0.3748 0.22851 0.23774 0.0
C65 C 0.35902 0.29262 0.16677 0.0
C66 C 0.34845 0.18724 0.13613 0.0
C67 C 0.31271 0.24634 0.07998 0.0
O68 O 0.30672 0.2252 0.20369 0.0
O69 O 0.94873 0.97227 0.19339 0.0
Zn70 Zn 0.92611 0.96846 0.15377 0.0
O71 O 0.9021 0.98789 0.15378 0.0
Zn72 Zn 0.87338 0.97641 0.16815 0.0
Zn73 Zn 0.91195 0.00834 0.18527 0.0
Zn74 Zn 0.89775 -0.0008 0.10757 0.0
O75 O 0.84827 0.98229 0.13279 0.0
O76 O 0.86819 0.99153 0.08614 0.0
O77 O 0.91291 0.94129 0.15672 0.0
O78 O 0.87683 0.94688 0.16976 0.0
O79 O 0.86491 0.98612 0.21668 0.0
O80 O 0.89053 0.00973 0.22425 0.0
O81 O 0.91193 0.0346 0.16298 0.0
O82 O 0.94389 0.97166 0.10955 0.0
O83 O 0.89819 0.02882 0.10976 0.0
O84 O 0.92308 0.99161 0.07627 0.0
C85 C 0.9539 0.98772 0.21072 0.0
C86 C 0.84951 0.98666 0.10021 0.0
C87 C 0.87333 0.00021 0.2346 0.0
C88 C 0.89315 0.93505 0.16402 0.0
C89 C 0.9051 0.04072 0.13331 0.0
C90 C 0.94061 0.98115 0.08114 0.0
O91 O 0.94214 0.00334 0.20794 0.0
O92 O 0.70237 0.01046 0.93784 0.0
Zn93 Zn 0.67879 0.01444 0.89955 0.0
O94 O 0.6554 -0.00518 0.90025 0.0
Zn95 Zn 0.62765 0.00559 0.91897 0.0
Zn96 Zn 0.66863 0.97548 0.92988 0.0
Zn97 Zn 0.64965 0.98249 0.85578 0.0
O98 O 0.60086 -0.00088 0.88672 0.0
O99 O 0.61884 0.98972 0.8381 0.0
O100 O 0.66591 0.04146 0.90432 0.0
O101 O 0.63048 0.03517 0.92003 0.0
O102 O 0.62435 -0.00267 0.97009 0.0
O103 O 0.65609 0.97999 0.97621 0.0
O104 O 0.66134 0.94843 0.91525 0.0
O105 O 0.69476 0.01138 0.85411 0.0
O106 O 0.64953 0.95279 0.86055 0.0
O107 O 0.67444 0.99 0.82259 0.0
C108 C 0.7115 -0.00599 0.94543 0.0
C109 C 0.60071 -0.00552 0.85409 0.0
C110 C 0.63879 0.98828 0.98909 0.0
C111 C 0.64638 0.0473 0.91356 0.0
C112 C 0.65418 0.94153 0.88634 0.0
C113 C 0.69151 0.00129 0.82631 0.0
O114 O 0.70209 0.97793 0.93648 0.0
O115 O 0.0521 0.72298 0.93118 0.0
Zn116 Zn 0.07827 0.721 0.89619 0.0
O117 O 0.10186 0.74055 0.90412 0.0
Zn118 Zn 0.12975 0.72924 0.92226 0.0
Zn119 Zn 0.08891 0.75931 0.9361 0.0
Zn120 Zn 0.10988 0.75428 0.86155 0.0
O121 O 0.157 0.73438 0.89022 0.0
O122 O 0.14018 0.74641 0.84271 0.0
O123 O 0.09155 0.69401 0.90099 0.0
O124 O 0.12548 0.69993 0.92415 0.0
O125 O 0.13568 0.73894 0.97175 0.0
O126 O 0.10699 0.7596 0.97908 0.0
O127 O 0.08931 0.78631 0.91734 0.0
O128 O 0.06481 0.72548 0.84828 0.0
O129 O 0.11024 0.78359 0.8692 0.0
O130 O 0.08632 0.74922 0.82577 0.0
C131 C 0.0458 0.73743 0.95024 0.0
C132 C 0.15772 0.73993 0.85817 0.0
C133 C 0.1246 0.75113 0.99055 0.0
C134 C 0.11013 0.68799 0.91409 0.0
C135 C 0.09975 0.79402 0.89171 0.0
C136 C 0.06951 0.73761 0.82374 0.0
O137 O 0.05773 0.75294 0.95229 0.0
O138 O 0.7052 0.72676 0.79098 0.0
Zn139 Zn 0.68139 0.72239 0.82918 0.0
O140 O 0.65823 0.74262 0.83083 0.0
Zn141 Zn 0.62949 0.7323 0.81419 0.0
Zn142 Zn 0.66973 0.76327 0.80118 0.0
Zn143 Zn 0.65332 0.7531 0.87775 0.0
O144 O 0.6037 0.73836 0.84788 0.0
O145 O 0.62215 0.74683 0.89641 0.0
O146 O 0.66719 0.69577 0.82327 0.0
O147 O 0.6313 0.7028 0.81157 0.0
O148 O 0.6231 0.7426 0.76554 0.0
O149 O 0.65077 0.76449 0.75897 0.0
O150 O 0.66779 0.78931 0.82384 0.0
O151 O 0.6977 0.72305 0.87506 0.0
O152 O 0.65513 0.78281 0.87741 0.0
O153 O 0.67765 0.74301 0.90959 0.0
C154 C 0.71221 0.74302 0.77813 0.0
C155 C 0.60378 0.74263 0.88057 0.0
C156 C 0.6333 0.75572 0.74756 0.0
C157 C 0.64711 0.69033 0.81617 0.0
C158 C 0.66133 0.79504 0.85395 0.0
C159 C 0.69442 0.73157 0.90447 0.0
O160 O 0.70141 0.75895 0.7835 0.0
O161 O 0.05259 0.00772 0.79488 0.0
Zn162 Zn 0.07668 0.01184 0.83246 0.0
O163 O 0.09959 0.9913 0.8326 0.0
Zn164 Zn 0.12875 0.00033 0.81541 0.0
Zn165 Zn 0.08698 0.97026 0.80492 0.0
Zn166 Zn 0.10546 0.98151 0.87893 0.0
O167 O 0.15496 -0.00563 0.84918 0.0
O168 O 0.13539 0.98952 0.89805 0.0
O169 O 0.09159 0.03771 0.82332 0.0
O170 O 0.12729 0.02982 0.81093 0.0
O171 O 0.13406 0.98884 0.76722 0.0
O172 O 0.10602 0.9671 0.76303 0.0
O173 O 0.08685 0.9449 0.83025 0.0
O174 O 0.06078 0.0119 0.8795 0.0
O175 O 0.10465 0.95202 0.88004 0.0
O176 O 0.08151 0.99079 0.91043 0.0
C177 C 0.04544 -0.00824 0.78112 0.0
C178 C 0.1541 -0.0077 0.88251 0.0
C179 C 0.12348 0.97539 0.7505 0.0
C180 C 0.11164 0.04254 0.81479 0.0
C181 C 0.09552 0.93967 0.85927 0.0
C182 C 0.06483 0.00246 0.9078 0.0
O183 O 0.05584 0.97559 0.78599 0.0
O184 O 0.29792 0.4735 0.55902 0.0
Zn185 Zn 0.32371 0.47315 0.59537 0.0
O186 O 0.34556 0.49417 0.58911 0.0
Zn187 Zn 0.37421 0.48452 0.57084 0.0
Zn188 Zn 0.33024 0.51188 0.55802 0.0
Zn189 Zn 0.35222 0.50865 0.63143 0.0
O190 O 0.40098 0.49231 0.60245 0.0
O191 O 0.38321 0.50288 0.65024 0.0
O192 O 0.33944 0.44706 0.59258 0.0
O193 O 0.37334 0.4548 0.57138 0.0
O194 O 0.3778 0.49358 0.52017 0.0
O195 O 0.3459 0.51045 0.51319 0.0
O196 O 0.33212 0.53958 0.57295 0.0
O197 O 0.30938 0.47716 0.64263 0.0
O198 O 0.35137 0.53795 0.6228 0.0
O199 O 0.32843 0.50224 0.66641 0.0
C200 C 0.2886 0.48864 0.54543 0.0
C201 C 0.40134 0.49796 0.63453 0.0
C202 C 0.36414 0.50345 0.50103 0.0
C203 C 0.35893 0.44204 0.58152 0.0
C204 C 0.34193 0.5479 0.59858 0.0
C205 C 0.31261 0.48952 0.66744 0.0
O206 O 0.29796 0.50544 0.54752 0.0
O207 O 0.95464 0.76144 0.53727 0.0
Zn208 Zn 0.93178 0.7672 0.57609 0.0
O209 O 0.90911 0.74694 0.58167 0.0
Zn210 Zn 0.88016 0.75519 0.563 0.0
Zn211 Zn 0.92167 0.72462 0.5574 0.0
Zn212 Zn 0.90389 0.74033 0.63029 0.0
O213 O 0.85401 0.74907 0.5968 0.0
O214 O 0.87291 0.74803 0.64721 0.0
O215 O 0.9167 0.7929 0.56674 0.0
O216 O 0.88088 0.78476 0.55646 0.0
O217 O 0.87608 0.74256 0.51542 0.0
O218 O 0.90326 0.71988 0.51501 0.0
O219 O 0.92157 0.70073 0.58711 0.0
O220 O 0.94926 0.76879 0.621 0.0
O221 O 0.90611 0.71096 0.63714 0.0
O222 O 0.92821 0.7523 0.65956 0.0
C223 C 0.96259 0.74471 0.52834 0.0
C224 C 0.85431 0.74872 0.63039 0.0
C225 C 0.88658 0.72842 0.50049 0.0
C226 C 0.89648 0.79766 0.55909 0.0
C227 C 0.91433 0.69737 0.61794 0.0
C228 C 0.94563 0.76248 0.65202 0.0
O229 O 0.95311 0.72887 0.53847 0.0
O230 O 0.30841 0.75851 0.70283 0.0
Zn231 Zn 0.33157 0.76375 0.66454 0.0
O232 O 0.35382 0.74312 0.65897 0.0
Zn233 Zn 0.38319 0.75106 0.67668 0.0
Zn234 Zn 0.34092 0.72123 0.68402 0.0
Zn235 Zn 0.35852 0.73591 0.61044 0.0
O236 O 0.40888 0.74474 0.64222 0.0
O237 O 0.38927 0.74325 0.59253 0.0
O238 O 0.347 0.78903 0.67527 0.0
O239 O 0.38304 0.78066 0.68323 0.0
O240 O 0.38771 0.73833 0.72409 0.0
O241 O 0.35979 0.71632 0.72578 0.0
O242 O 0.34008 0.69731 0.65478 0.0
O243 O 0.31429 0.76583 0.61947 0.0
O244 O 0.35564 0.70649 0.6042 0.0
O245 O 0.33441 0.7481 0.5814 0.0
C246 C 0.30026 0.74201 0.71247 0.0
C247 C 0.40808 0.74415 0.60867 0.0
C248 C 0.37704 0.72444 0.73948 0.0
C249 C 0.36738 0.79356 0.68215 0.0
C250 C 0.34702 0.6934 0.62401 0.0
C251 C 0.31757 0.75902 0.58866 0.0
O252 O 0.30962 0.72593 0.70332 0.0
O253 O 0.94997 0.47894 0.69225 0.0
Zn254 Zn 0.92452 0.47835 0.65561 0.0
O255 O 0.90156 0.49856 0.66283 0.0
Zn256 Zn 0.8727 0.48725 0.67773 0.0
Zn257 Zn 0.91406 0.51634 0.69711 0.0
Zn258 Zn 0.89586 0.51392 0.62088 0.0
O259 O 0.84726 0.49352 0.64304 0.0
O260 O 0.86553 0.50842 0.59968 0.0
O261 O 0.9099 0.45163 0.65672 0.0
O262 O 0.8754 0.4576 0.6774 0.0
O263 O 0.86475 0.49684 0.72694 0.0
O264 O 0.89332 0.51737 0.73684 0.0
O265 O 0.91688 0.54382 0.68023 0.0
O266 O 0.93915 0.48311 0.60885 0.0
O267 O 0.89722 0.54301 0.63066 0.0
O268 O 0.91993 0.50823 0.58597 0.0
C269 C 0.9556 0.49244 0.71392 0.0
C270 C 0.8475 0.50107 0.6123 0.0
C271 C 0.87498 0.50935 0.74636 0.0
C272 C 0.89062 0.44561 0.66707 0.0
C273 C 0.90765 0.55253 0.65447 0.0
C274 C 0.93589 0.4957 0.5845 0.0
O275 O 0.94368 0.5079 0.71704 0.0
O276 O 0.70282 0.51027 0.43713 0.0
Zn277 Zn 0.67821 0.51219 0.39963 0.0
O278 O 0.65438 0.49278 0.40598 0.0
Zn279 Zn 0.62605 0.50413 0.4221 0.0
Zn280 Zn 0.66625 0.47376 0.43832 0.0
Zn281 Zn 0.64743 0.47939 0.36291 0.0
O282 O 0.59947 0.49782 0.38936 0.0
O283 O 0.61792 0.48745 0.34208 0.0
O284 O 0.66463 0.53926 0.40184 0.0
O285 O 0.62982 0.53341 0.4216 0.0
O286 O 0.61952 0.49567 0.47203 0.0
O287 O 0.64706 0.47384 0.47975 0.0
O288 O 0.66509 0.44659 0.42016 0.0
O289 O 0.69364 0.50706 0.35332 0.0
O290 O 0.64633 0.45024 0.37016 0.0
O291 O 0.67197 0.48396 0.32915 0.0
C292 C 0.70885 0.49567 0.45604 0.0
C293 C 0.59975 0.4929 0.35696 0.0
C294 C 0.6297 0.48286 0.49071 0.0
C295 C 0.64539 0.54531 0.41233 0.0
C296 C 0.65522 0.43933 0.39355 0.0
C297 C 0.68931 0.49497 0.32852 0.0
O298 O 0.69722 0.47992 0.45654 0.0
O299 O 0.05384 0.22468 0.44849 0.0
Zn300 Zn 0.07836 0.2209 0.41147 0.0
O301 O 0.1019 0.24098 0.41191 0.0
Zn302 Zn 0.13106 0.22987 0.42591 0.0
Zn303 Zn 0.09169 0.26042 0.44512 0.0
Zn304 Zn 0.10565 0.25357 0.36618 0.0
O305 O 0.15564 0.23538 0.38975 0.0
O306 O 0.13669 0.24908 0.34576 0.0
O307 O 0.09203 0.19424 0.41779 0.0
O308 O 0.12816 0.20047 0.42934 0.0
O309 O 0.14031 0.23997 0.47388 0.0
O310 O 0.11357 0.26233 0.48307 0.0
O311 O 0.08949 0.28673 0.42447 0.0
O312 O 0.06262 0.22197 0.36534 0.0
O313 O 0.10113 0.28301 0.36955 0.0
O314 O 0.08197 0.24358 0.33325 0.0
C315 C 0.0493 0.2394 0.46807 0.0
C316 C 0.15502 0.2424 0.35865 0.0
C317 C 0.13149 0.25358 0.49244 0.0
C318 C 0.1119 0.18839 0.42519 0.0
C319 C 0.09414 0.29387 0.39459 0.0
C320 C 0.06574 0.23143 0.33688 0.0
O321 O 0.06206 0.25446 0.46827 0.0
O322 O 0.69878 0.22477 0.28776 0.0
Zn323 Zn 0.67455 0.22137 0.32526 0.0
O324 O 0.653 0.24262 0.32737 0.0
Zn325 Zn 0.62379 0.23514 0.30774 0.0
Zn326 Zn 0.66781 0.26286 0.30108 0.0
Zn327 Zn 0.64808 0.25185 0.37472 0.0
O328 O 0.59772 0.24185 0.34147 0.0
O329 O 0.61652 0.24667 0.39131 0.0
O330 O 0.6582 0.19637 0.31668 0.0
O331 O 0.62331 0.2055 0.30223 0.0
O332 O 0.62039 0.2476 0.25921 0.0
O333 O 0.65176 0.26559 0.25647 0.0
O334 O 0.66636 0.28835 0.32513 0.0
O335 O 0.69074 0.22023 0.37133 0.0
O336 O 0.65193 0.28123 0.37733 0.0
O337 O 0.67102 0.23998 0.40659 0.0
C338 C 0.70859 0.24082 0.27946 0.0
C339 C 0.59797 0.24459 0.37475 0.0
C340 C 0.63367 0.25919 0.24265 0.0
C341 C 0.63814 0.19217 0.30729 0.0
C342 C 0.65954 0.29365 0.35527 0.0
C343 C 0.6874 0.22819 0.40122 0.0
O344 O 0.70006 0.25733 0.28801 0.0
O345 O 0.05146 0.50889 0.29343 0.0
Zn346 Zn 0.07474 0.51269 0.33268 0.0
O347 O 0.09692 0.49159 0.33653 0.0
Zn348 Zn 0.12705 0.50017 0.3223 0.0
Zn349 Zn 0.0855 0.47121 0.30641 0.0
Zn350 Zn 0.09946 0.48144 0.38401 0.0
O351 O 0.15137 0.49287 0.35854 0.0
O352 O 0.13017 0.48619 0.40516 0.0
O353 O 0.09081 0.53822 0.32572 0.0
O354 O 0.12685 0.52979 0.31861 0.0
O355 O 0.13431 0.4893 0.27403 0.0
O356 O 0.10609 0.46807 0.26665 0.0
O357 O 0.08359 0.44578 0.33036 0.0
O358 O 0.05731 0.51397 0.37773 0.0
O359 O 0.09443 0.45199 0.38502 0.0
O360 O 0.07567 0.49367 0.41376 0.0
C361 C 0.04479 0.49286 0.27932 0.0
C362 C 0.14946 0.48911 0.39131 0.0
C363 C 0.12417 0.47613 0.25601 0.0
C364 C 0.11139 0.54283 0.32049 0.0
C365 C 0.08777 0.44004 0.36136 0.0
C366 C 0.05982 0.50587 0.40768 0.0
O367 O 0.0553 0.47683 0.28486 0.0
O368 O 0.80309 0.97958 0.54436 0.0
Zn369 Zn 0.82845 0.97471 0.57951 0.0
O370 O 0.85213 -0.00537 0.57756 0.0
Zn371 Zn 0.88051 0.9839 0.55983 0.0
Zn372 Zn 0.84052 0.01536 0.54809 0.0
Zn373 Zn 0.85848 0.00562 0.62328 0.0
O374 O 0.90713 0.98894 0.59337 0.0
O375 O 0.8886 -0.00277 0.64194 0.0
O376 O 0.8416 0.94798 0.5707 0.0
O377 O 0.87713 0.95448 0.55557 0.0
O378 O 0.88638 -0.00579 0.51084 0.0
O379 O 0.85871 0.01611 0.50524 0.0
O380 O 0.84302 0.04162 0.57034 0.0
O381 O 0.81389 0.97547 0.62699 0.0
O382 O 0.85834 0.03528 0.62227 0.0
O383 O 0.83443 -0.00246 0.65618 0.0
C384 C 0.79681 -0.00463 0.52906 0.0
C385 C 0.90682 -0.0075 0.62636 0.0
C386 C 0.87583 0.0072 0.49305 0.0
C387 C 0.86109 0.94229 0.56082 0.0
C388 C 0.85106 0.04745 0.5995 0.0
C389 C 0.81788 0.98563 0.65447 0.0
O390 O 0.80874 0.01094 0.53095 0.0
O391 O 0.45162 0.26033 0.54489 0.0
Zn392 Zn 0.42724 0.26316 0.58269 0.0
O393 O 0.40303 0.24372 0.57796 0.0
Zn394 Zn 0.37463 0.25594 0.56348 0.0
Zn395 Zn 0.41343 0.22445 0.54435 0.0
Zn396 Zn 0.39718 0.23009 0.62158 0.0
O397 O 0.34874 0.25005 0.59738 0.0
O398 O 0.36662 0.23557 0.64155 0.0
O399 O 0.41423 0.29057 0.5802 0.0
O400 O 0.37868 0.28527 0.56367 0.0
O401 O 0.36628 0.24719 0.5144 0.0
O402 O 0.39181 0.22364 0.50575 0.0
O403 O 0.41491 0.19726 0.56335 0.0
O404 O 0.44261 0.25903 0.62925 0.0
O405 O 0.39937 0.20086 0.61586 0.0
O406 O 0.42075 0.237 0.656 0.0
C407 C 0.45596 0.24625 0.52368 0.0
C408 C 0.34869 0.24267 0.62822 0.0
C409 C 0.37461 0.23331 0.49591 0.0
C410 C 0.39477 0.29697 0.57148 0.0
C411 C 0.40761 0.18998 0.59188 0.0
C412 C 0.43801 0.24812 0.65557 0.0
O413 O 0.44315 0.23122 0.52207 0.0
O414 O 0.79864 0.2638 0.68253 0.0
Zn415 Zn 0.82312 0.26679 0.64465 0.0
O416 O 0.8468 0.24727 0.64951 0.0
Zn417 Zn 0.87451 0.25854 0.66782 0.0
Zn418 Zn 0.83373 0.22804 0.6802 0.0
Zn419 Zn 0.85429 0.23429 0.60639 0.0
O420 O 0.90208 0.25101 0.63796 0.0
O421 O 0.88505 0.24155 0.58872 0.0
O422 O 0.83656 0.29409 0.64729 0.0
O423 O 0.8717 0.288 0.66503 0.0
O424 O 0.87757 0.25154 0.71946 0.0
O425 O 0.84734 0.23235 0.72613 0.0
O426 O 0.84018 0.20049 0.66566 0.0
O427 O 0.80804 0.26199 0.59791 0.0
O428 O 0.85518 0.205 0.61297 0.0
O429 O 0.83019 0.23985 0.57171 0.0
C430 C 0.79038 0.24767 0.69408 0.0
C431 C 0.90293 0.24607 0.60553 0.0
C432 C 0.86416 0.24153 0.73871 0.0
C433 C 0.85614 0.30005 0.65641 0.0
C434 C 0.84903 0.19367 0.63781 0.0
C435 C 0.81267 0.25071 0.57202 0.0
O436 O 0.80054 0.23142 0.68886 0.0
O437 O 0.45178 0.97671 0.69216 0.0
Zn438 Zn 0.42711 0.97163 0.65638 0.0
O439 O 0.40347 0.99151 0.65565 0.0
Zn440 Zn 0.37474 0.98037 0.67112 0.0
Zn441 Zn 0.41401 0.0121 0.68681 0.0
Zn442 Zn 0.3988 0.00241 0.60888 0.0
O443 O 0.34909 0.98584 0.63668 0.0
O444 O 0.36742 -0.00261 0.5902 0.0
O445 O 0.41423 0.94509 0.66623 0.0
O446 O 0.37772 0.95088 0.67521 0.0
O447 O 0.36733 0.99068 0.71951 0.0
O448 O 0.39391 0.01335 0.72758 0.0
O449 O 0.41406 0.03814 0.66374 0.0
O450 O 0.44226 0.97143 0.60981 0.0
O451 O 0.40291 0.03186 0.60921 0.0
O452 O 0.42206 0.99165 0.57616 0.0
C453 C 0.4571 -0.00783 0.70926 0.0
C454 C 0.34918 -0.00824 0.60483 0.0
C455 C 0.37669 0.00397 0.73823 0.0
C456 C 0.39439 0.93907 0.67316 0.0
C457 C 0.40922 0.04392 0.63291 0.0
C458 C 0.43859 0.97991 0.58053 0.0
O459 O 0.44478 0.00748 0.7078 0.0
O460 O 0.19973 0.00646 0.44086 0.0
Zn461 Zn 0.17421 0.0098 0.40523 0.0
O462 O 0.15039 0.99007 0.40971 0.0
Zn463 Zn 0.12198 0.00155 0.42594 0.0
Zn464 Zn 0.1619 0.97048 0.44178 0.0
Zn465 Zn 0.14404 0.97721 0.36542 0.0
O466 O 0.09578 -0.00322 0.39176 0.0
O467 O 0.11345 0.9835 0.34619 0.0
O468 O 0.16107 0.03672 0.41156 0.0
O469 O 0.12594 0.03085 0.42957 0.0
O470 O 0.11432 0.99109 0.47419 0.0
O471 O 0.14114 0.96853 0.48169 0.0
O472 O 0.16346 0.94392 0.42056 0.0
O473 O 0.18851 0.00729 0.35771 0.0
O474 O 0.14536 0.94787 0.37 0.0
O475 O 0.16774 0.9844 0.331 0.0
C476 C 0.20485 -0.00795 0.46082 0.0
C477 C 0.09558 0.99027 0.36026 0.0
C478 C 0.12353 0.97742 0.49215 0.0
C479 C 0.14192 0.04276 0.42234 0.0
C480 C 0.15485 0.93691 0.39268 0.0
C481 C 0.18434 -0.0037 0.33132 0.0
O482 O 0.19219 0.97694 0.46253 0.0
O483 O 0.55421 0.7262 0.4402 0.0
Zn484 Zn 0.57862 0.72286 0.40264 0.0
O485 O 0.60211 0.74294 0.40468 0.0
Zn486 Zn 0.63065 0.7322 0.42142 0.0
Zn487 Zn 0.59049 0.76305 0.43549 0.0
Zn488 Zn 0.60801 0.75447 0.35913 0.0
O489 O 0.65698 0.73833 0.38861 0.0
O490 O 0.63918 0.74893 0.34097 0.0
O491 O 0.59263 0.69627 0.40788 0.0
O492 O 0.62816 0.70276 0.42304 0.0
O493 O 0.637 0.74208 0.47037 0.0
O494 O 0.61007 0.76462 0.477 0.0
O495 O 0.59049 0.7893 0.41346 0.0
O496 O 0.56327 0.7245 0.35564 0.0
O497 O 0.60499 0.78382 0.36068 0.0
O498 O 0.58492 0.74528 0.32541 0.0
C499 C 0.54798 0.74175 0.45637 0.0
C500 C 0.65727 0.74378 0.35651 0.0
C501 C 0.62731 0.75551 0.4883 0.0
C502 C 0.61235 0.69055 0.4165 0.0
C503 C 0.59723 0.79551 0.38383 0.0
C504 C 0.56786 0.73395 0.32759 0.0
O505 O 0.55942 0.75756 0.45423 0.0
O506 O 0.20928 0.72095 0.3063 0.0
Zn507 Zn 0.18437 0.71856 0.3434 0.0
O508 O 0.16145 0.73864 0.3384 0.0
Zn509 Zn 0.13359 0.72894 0.318 0.0
Zn510 Zn 0.17611 0.75845 0.31067 0.0
Zn511 Zn 0.15294 0.75008 0.38235 0.0
O512 O 0.10559 0.73519 0.3484 0.0
O513 O 0.12267 0.74118 0.39924 0.0
O514 O 0.16988 0.69206 0.33833 0.0
O515 O 0.13608 0.69939 0.31603 0.0
O516 O 0.13098 0.7391 0.26814 0.0
O517 O 0.16131 0.75842 0.26458 0.0
O518 O 0.17276 0.78502 0.33121 0.0
O519 O 0.19907 0.72217 0.39088 0.0
O520 O 0.15181 0.77952 0.37859 0.0
O521 O 0.17655 0.74394 0.41712 0.0
C522 C 0.21821 0.73677 0.2947 0.0
C523 C 0.1048 0.73775 0.38169 0.0
C524 C 0.14407 0.75043 0.25074 0.0
C525 C 0.15086 0.68682 0.32569 0.0
C526 C 0.16167 0.79124 0.35751 0.0
C527 C 0.19402 0.73306 0.41711 0.0
O528 O 0.20878 0.75336 0.29983 0.0
O529 O 0.54925 0.00914 0.29924 0.0
Zn530 Zn 0.57416 0.01378 0.33544 0.0
O531 O 0.59914 -0.00498 0.33141 0.0
Zn532 Zn 0.62722 0.00775 0.31719 0.0
Zn533 Zn 0.58958 0.9755 0.29748 0.0
Zn534 Zn 0.60532 0.98194 0.37554 0.0
O535 O 0.65291 0.00403 0.35254 0.0
O536 O 0.63558 0.98865 0.39622 0.0
O537 O 0.58553 0.0414 0.32865 0.0
O538 O 0.6213 0.03658 0.31275 0.0
O539 O 0.63667 -0.00159 0.26919 0.0
O540 O 0.6102 0.97616 0.25749 0.0
O541 O 0.59064 0.94845 0.31636 0.0
O542 O 0.55951 0.01062 0.38261 0.0
O543 O 0.60457 0.95268 0.3699 0.0
O544 O 0.581 0.98823 0.40921 0.0
C545 C 0.54525 -0.00533 0.27877 0.0
C546 C 0.65315 -0.0033 0.38342 0.0
C547 C 0.62782 0.98562 0.24889 0.0
C548 C 0.60456 0.04795 0.31829 0.0
C549 C 0.5977 0.9415 0.3453 0.0
C550 C 0.56389 -0.00046 0.40877 0.0
O551 O 0.5589 0.98026 0.27686 0.0
O552 O 0.80196 0.4703 0.04493 0.0
Zn553 Zn 0.82579 0.46571 0.08264 0.0
O554 O 0.84673 0.48708 0.08766 0.0
Zn555 Zn 0.87553 0.48121 0.06581 0.0
Zn556 Zn 0.83041 0.50836 0.06657 0.0
Zn557 Zn 0.85306 0.4934 0.13574 0.0
O558 O 0.90224 0.48848 0.09812 0.0
O559 O 0.88466 0.48633 0.14958 0.0
O560 O 0.84269 0.44138 0.07171 0.0
O561 O 0.87735 0.45157 0.05824 0.0
O562 O 0.87608 0.49496 0.01845 0.0
O563 O 0.84512 0.5136 0.02131 0.0
O564 O 0.83134 0.53235 0.09594 0.0
O565 O 0.80965 0.46272 0.12836 0.0
O566 O 0.85016 0.52267 0.14346 0.0
O567 O 0.83028 0.48025 0.16611 0.0
C568 C 0.79101 0.48625 0.0403 0.0
C569 C 0.90279 0.48742 0.13169 0.0
C570 C 0.86231 0.50729 0.0048 0.0
C571 C 0.86286 0.4378 0.06216 0.0
C572 C 0.84031 0.53598 0.12557 0.0
C573 C 0.81353 0.46909 0.1593 0.0
O574 O 0.79814 0.50235 0.05339 0.0
O575 O 0.45296 0.75671 0.04069 0.0
Zn576 Zn 0.42896 0.75949 0.0786 0.0
O577 O 0.40591 0.7391 0.07761 0.0
Zn578 Zn 0.37634 0.7494 0.06405 0.0
Zn579 Zn 0.41706 0.71957 0.04508 0.0
Zn580 Zn 0.40211 0.72695 0.12326 0.0
O581 O 0.35175 0.74336 0.10064 0.0
O582 O 0.37255 0.7336 0.14594 0.0
O583 O 0.41444 0.7859 0.07411 0.0
O584 O 0.37865 0.77901 0.06089 0.0
O585 O 0.36765 0.73877 0.01618 0.0
O586 O 0.39525 0.71719 0.00647 0.0
O587 O 0.4193 0.69324 0.06678 0.0
O588 O 0.44585 0.75758 0.12378 0.0
O589 O 0.40345 0.69746 0.11914 0.0
O590 O 0.42726 0.73499 0.15478 0.0
C591 C 0.45858 0.74194 0.02195 0.0
C592 C 0.35358 0.73859 0.13299 0.0
C593 C 0.37694 0.72547 -0.00261 0.0
C594 C 0.39451 0.7914 0.06622 0.0
C595 C 0.41196 0.68639 0.09561 0.0
C596 C 0.44348 0.74713 0.1513 0.0
O597 O 0.44689 0.72621 0.02248 0.0
O598 O 0.8061 0.7537 0.19082 0.0
Zn599 Zn 0.83106 0.75524 0.15393 0.0
O600 O 0.85453 0.73531 0.15999 0.0
Zn601 Zn 0.88345 0.74739 0.17252 0.0
Zn602 Zn 0.84387 0.7178 0.19628 0.0
Zn603 Zn 0.85905 0.71969 0.11771 0.0
O604 O 0.90792 0.74106 0.13655 0.0
O605 O 0.88923 0.72473 0.09518 0.0
O606 O 0.84459 0.78233 0.15597 0.0
O607 O 0.88006 0.77688 0.17259 0.0
O608 O 0.89314 0.73888 0.22131 0.0
O609 O 0.86595 0.71751 0.23455 0.0
O610 O 0.84111 0.69021 0.18039 0.0
O611 O 0.81601 0.75102 0.10748 0.0
O612 O 0.85733 0.69061 0.12789 0.0
O613 O 0.83438 0.7257 0.08362 0.0
C614 C 0.80158 0.74057 0.21371 0.0
C615 C 0.9073 0.7327 0.10648 0.0
C616 C 0.88425 0.7263 0.24199 0.0
C617 C 0.86407 0.78865 0.16472 0.0
C618 C 0.84849 0.6813 0.15344 0.0
C619 C 0.81868 0.73851 0.08284 0.0
O620 O 0.81442 0.72575 0.21772 0.0
O621 O 0.45159 0.47236 0.1947 0.0
Zn622 Zn 0.42737 0.46868 0.15717 0.0
O623 O 0.40478 0.48924 0.15635 0.0
Zn624 Zn 0.37629 0.4798 0.17532 0.0
Zn625 Zn 0.41815 0.50985 0.18407 0.0
Zn626 Zn 0.39894 0.49914 0.10955 0.0
O627 O 0.3497 0.48584 0.1429 0.0
O628 O 0.36733 0.49348 0.09325 0.0
O629 O 0.4127 0.44268 0.1643 0.0
O630 O 0.3775 0.45019 0.17948 0.0
O631 O 0.37197 0.49122 0.22379 0.0
O632 O 0.40089 0.51206 0.22788 0.0
O633 O 0.41765 0.53544 0.15987 0.0
O634 O 0.44298 0.46887 0.11082 0.0
O635 O 0.40222 0.52865 0.10805 0.0
O636 O 0.42193 0.48816 0.07662 0.0
C637 C 0.45976 0.48855 0.20596 0.0
C638 C 0.34923 0.48979 0.11008 0.0
C639 C 0.38352 0.50389 0.24091 0.0
C640 C 0.39294 0.43753 0.17364 0.0
C641 C 0.41054 0.54083 0.12994 0.0
C642 C 0.4389 0.47692 0.08126 0.0
O643 O 0.44993 0.5048 0.19964 0.0
O644 O 0.19783 0.50663 0.95326 0.0
Zn645 Zn 0.17371 0.51041 0.91607 0.0
O646 O 0.15065 0.49008 0.91564 0.0
Zn647 Zn 0.12144 0.50065 0.9305 0.0
Zn648 Zn 0.16124 0.47014 0.94774 0.0
Zn649 Zn 0.14716 0.47873 0.8689 0.0
O650 O 0.09653 0.4939 0.89544 0.0
O651 O 0.11571 0.48256 0.84955 0.0
O652 O 0.15953 0.53673 0.92227 0.0
O653 O 0.12331 0.53025 0.93241 0.0
O654 O 0.11363 0.4909 0.97938 0.0
O655 O 0.14039 0.46838 0.98729 0.0
O656 O 0.16204 0.44393 0.92579 0.0
O657 O 0.18992 0.51014 0.87037 0.0
O658 O 0.15272 0.44952 0.87013 0.0
O659 O 0.17027 0.48982 0.83619 0.0
C660 C 0.20344 0.49144 0.97083 0.0
C661 C 0.09714 0.48775 0.86372 0.0
C662 C 0.12285 0.47737 -0.00233 0.0
C663 C 0.13948 0.54246 0.92855 0.0
C664 C 0.15837 0.43786 0.89479 0.0
C665 C 0.18669 0.50163 0.841 0.0
O666 O 0.19161 0.4758 0.96943 0.0
O667 O 0.55304 0.22574 0.94297 0.0
Zn668 Zn 0.57622 0.22191 0.90415 0.0
O669 O 0.59804 0.24287 0.90049 0.0
Zn670 Zn 0.62748 0.23518 0.91878 0.0
Zn671 Zn 0.58387 0.26391 0.92601 0.0
Zn672 Zn 0.60274 0.25105 0.85265 0.0
O673 O 0.65322 0.2417 0.88404 0.0
O674 O 0.63336 0.24389 0.83465 0.0
O675 O 0.59226 0.19676 0.91203 0.0
O676 O 0.62761 0.20537 0.92475 0.0
O677 O 0.63155 0.24811 0.96661 0.0
O678 O 0.60154 0.26785 0.96913 0.0
O679 O 0.58373 0.2887 0.89895 0.0
O680 O 0.55899 0.22061 0.85911 0.0
O681 O 0.60025 0.28054 0.84858 0.0
O682 O 0.57876 0.2395 0.8225 0.0
C683 C 0.54379 0.24189 0.95215 0.0
C684 C 0.65224 0.24268 0.85049 0.0
C685 C 0.61939 0.2608 0.98273 0.0
C686 C 0.61239 0.19224 0.92046 0.0
C687 C 0.59142 0.29328 0.86891 0.0
C688 C 0.56215 0.22816 0.82887 0.0
O689 O 0.55225 0.25832 0.94291 0.0
O690 O 0.20205 0.22424 0.79542 0.0
Zn691 Zn 0.17711 0.21957 0.83119 0.0
O692 O 0.15357 0.23981 0.83032 0.0
Zn693 Zn 0.12441 0.22907 0.81531 0.0
Zn694 Zn 0.16396 0.2599 0.79853 0.0
Zn695 Zn 0.14932 0.25176 0.87603 0.0
O696 O 0.09923 0.23473 0.85045 0.0
O697 O 0.11824 0.24757 0.89518 0.0
O698 O 0.16343 0.19313 0.8216 0.0
O699 O 0.12709 0.19971 0.81207 0.0
O700 O 0.11616 0.23916 0.76686 0.0
O701 O 0.14309 0.26155 0.75929 0.0
O702 O 0.16473 0.28628 0.81976 0.0
O703 O 0.19194 0.21929 0.87874 0.0
O704 O 0.15458 0.28096 0.87503 0.0
O705 O 0.17163 0.24095 0.90911 0.0
C706 C 0.20688 0.2393 0.77687 0.0
C707 C 0.09985 0.24141 0.8818 0.0
C708 C 0.12543 0.25277 0.74885 0.0
C709 C 0.14339 0.18755 0.81469 0.0
C710 C 0.1606 0.29252 0.85048 0.0
C711 C 0.18774 0.22864 0.90704 0.0
O712 O 0.19417 0.25439 0.777 0.0
O713 O 0.55086 0.51135 0.79998 0.0
Zn714 Zn 0.57597 0.51303 0.83721 0.0
O715 O 0.59935 0.49291 0.83153 0.0
Zn716 Zn 0.62847 0.50394 0.81786 0.0
Zn717 Zn 0.58775 0.47468 0.79731 0.0
Zn718 Zn 0.60486 0.47819 0.87401 0.0
O719 O 0.65379 0.49756 0.8528 0.0
O720 O 0.63436 0.4848 0.8971 0.0
O721 O 0.59024 0.53999 0.83438 0.0
O722 O 0.62535 0.53329 0.81704 0.0
O723 O 0.63683 0.49496 0.76899 0.0
O724 O 0.60892 0.47387 0.75811 0.0
O725 O 0.58561 0.44742 0.81494 0.0
O726 O 0.56058 0.50859 0.88372 0.0
O727 O 0.60468 0.44895 0.86503 0.0
O728 O 0.57981 0.48353 0.90681 0.0
C729 C 0.54567 0.49749 0.77876 0.0
C730 C 0.6528 0.49121 0.88434 0.0
C731 C 0.62714 0.48235 0.74926 0.0
C732 C 0.60986 0.5456 0.82478 0.0
C733 C 0.59474 0.43908 0.84115 0.0
C734 C 0.5636 0.4958 0.90783 0.0
O735 O 0.55796 0.4822 0.77644 0.0
H736 H 0.42266 0.82194 0.08263 0.0
H737 H 0.35531 0.80907 0.04495 0.0
H738 H 0.41407 0.85697 0.08204 0.0
H739 H 0.34696 0.84424 0.0435 0.0
H740 H 0.33204 0.90523 0.0898 0.0
H741 H 0.34087 0.87032 0.08598 0.0
H742 H 0.40645 0.88438 0.04296 0.0
H743 H 0.39788 0.91943 0.04761 0.0
C744 C 0.40609 0.82658 0.07386 0.0
C745 C 0.38961 0.8127 0.06405 0.0
C746 C 0.40123 0.84668 0.07332 0.0
C747 C 0.37983 0.85334 0.0628 0.0
C748 C 0.3635 0.83951 0.05225 0.0
C749 C 0.36832 0.81938 0.05293 0.0
C750 C 0.34834 0.90091 0.07945 0.0
C751 C 0.3643 0.91511 0.06914 0.0
C752 C 0.35332 0.88088 0.07703 0.0
C753 C 0.37433 0.87461 0.0641 0.0
C754 C 0.39022 0.88879 0.05344 0.0
C755 C 0.38527 0.90885 0.056 0.0
H756 H 0.90537 0.42256 0.05148 0.0
H757 H 0.83521 0.40588 0.06251 0.0
H758 H 0.91583 0.38765 0.04894 0.0
H759 H 0.84565 0.3715 0.06106 0.0
H760 H 0.8662 0.31112 0.03246 0.0
H761 H 0.85966 0.34611 0.02354 0.0
H762 H 0.91689 0.35974 0.08985 0.0
H763 H 0.92398 0.32453 0.09774 0.0
C764 C 0.8922 0.4115 0.05305 0.0
C765 C 0.86949 0.41699 0.05737 0.0
C766 C 0.8982 0.39156 0.05184 0.0
C767 C 0.88157 0.37684 0.0548 0.0
C768 C 0.85886 0.38243 0.05811 0.0
C769 C 0.85289 0.40222 0.05926 0.0
C770 C 0.87745 0.32157 0.04507 0.0
C771 C 0.89537 0.31512 0.06629 0.0
C772 C 0.87371 0.34162 0.03993 0.0
C773 C 0.88759 0.35568 0.05634 0.0
C774 C 0.90602 0.34925 0.0766 0.0
C775 C 0.90995 0.32911 0.08139 0.0
H776 H 0.42121 0.40676 0.16029 0.0
H777 H 0.35302 0.42029 0.19317 0.0
H778 H 0.41237 0.37186 0.16127 0.0
H779 H 0.34437 0.38511 0.19496 0.0
H780 H 0.33166 0.32321 0.14747 0.0
H781 H 0.33956 0.35835 0.15246 0.0
H782 H 0.40372 0.34524 0.2013 0.0
H783 H 0.39616 0.31014 0.19552 0.0
C784 C 0.40439 0.4023 0.16812 0.0
C785 C 0.38778 0.41632 0.1765 0.0
C786 C 0.39938 0.38226 0.1689 0.0
C787 C 0.37769 0.37577 0.17822 0.0
C788 C 0.36116 0.38973 0.18728 0.0
C789 C 0.36616 0.40985 0.18642 0.0
C790 C 0.34743 0.32783 0.15936 0.0
C791 C 0.36339 0.3139 0.17078 0.0
C792 C 0.35186 0.34795 0.16247 0.0
C793 C 0.37228 0.35451 0.17718 0.0
C794 C 0.38799 0.34059 0.18934 0.0
C795 C 0.38363 0.32049 0.18608 0.0
H796 H 0.90203 0.80776 0.18743 0.0
H797 H 0.83557 0.81816 0.14408 0.0
H798 H 0.90894 0.84314 0.18873 0.0
H799 H 0.84275 0.8535 0.1446 0.0
H800 H 0.9225 0.90537 0.14741 0.0
H801 H 0.91532 0.87005 0.14812 0.0
H802 H 0.84746 0.88074 0.18522 0.0
H803 H 0.8544 0.91611 0.18369 0.0
C804 C 0.88892 0.81757 0.17804 0.0
C805 C 0.86825 0.81013 0.16562 0.0
C806 C 0.89294 0.83784 0.17864 0.0
C807 C 0.8764 0.8511 0.16672 0.0
C808 C 0.85571 0.84367 0.15442 0.0
C809 C 0.85165 0.8234 0.15394 0.0
C810 C 0.90605 0.90021 0.15579 0.0
C811 C 0.889 0.91358 0.1654 0.0
C812 C 0.90199 0.87995 0.15638 0.0
C813 C 0.88082 0.87261 0.16671 0.0
C814 C 0.86384 0.88596 0.17664 0.0
C815 C 0.86787 0.90623 0.17594 0.0
H816 H 0.67304 0.07777 0.89145 0.0
H817 H 0.61052 0.065 0.94553 0.0
H818 H 0.66561 0.11297 0.89708 0.0
H819 H 0.60349 0.10013 0.95212 0.0
H820 H 0.58399 0.16108 0.91217 0.0
H821 H 0.59312 0.12637 0.91334 0.0
H822 H 0.6625 0.14037 0.93833 0.0
H823 H 0.65348 0.17554 0.93614 0.0
C824 C 0.65782 0.08248 0.90481 0.0
C825 C 0.64222 0.06862 0.91765 0.0
C826 C 0.65367 0.10264 0.90831 0.0
C827 C 0.63393 0.10931 0.92493 0.0
C828 C 0.61867 0.09543 0.93863 0.0
C829 C 0.6227 0.0753 0.93486 0.0
C830 C 0.60121 0.15686 0.91814 0.0
C831 C 0.61805 0.17113 0.92389 0.0
C832 C 0.60639 0.13689 0.91908 0.0
C833 C 0.62851 0.13061 0.92602 0.0
C834 C 0.64534 0.1448 0.93254 0.0
C835 C 0.64015 0.16491 0.93149 0.0
H836 H 0.14494 0.66991 0.94817 0.0
H837 H 0.08368 0.6578 0.89001 0.0
H838 H 0.15126 0.63471 0.95518 0.0
H839 H 0.09038 0.62255 0.89635 0.0
H840 H 0.09908 0.56081 0.94114 0.0
H841 H 0.09148 0.59617 0.94034 0.0
H842 H 0.16172 0.60752 0.9172 0.0
H843 H 0.16947 0.57242 0.91879 0.0
C844 C 0.13287 0.65975 0.93673 0.0
C845 C 0.11388 0.66664 0.91832 0.0
C846 C 0.13653 0.63959 0.94071 0.0
C847 C 0.12135 0.62591 0.92622 0.0
C848 C 0.10221 0.63277 0.90819 0.0
C849 C 0.09848 0.65296 0.90433 0.0
C850 C 0.11292 0.57087 0.93616 0.0
C851 C 0.13486 0.56381 0.92995 0.0
C852 C 0.10853 0.59109 0.93551 0.0
C853 C 0.126 0.60456 0.92864 0.0
C854 C 0.14798 0.5975 0.92304 0.0
C855 C 0.15238 0.57735 0.92376 0.0
H856 H 0.60695 0.67306 0.7984 0.0
H857 H 0.67512 0.6595 0.83132 0.0
H858 H 0.59773 0.63805 0.79897 0.0
H859 H 0.66569 0.62462 0.8327 0.0
H860 H 0.64788 0.56266 0.79818 0.0
H861 H 0.65655 0.59758 0.79386 0.0
H862 H 0.59238 0.61169 0.84167 0.0
H863 H 0.58336 0.57666 0.84524 0.0
C864 C 0.61997 0.66263 0.80573 0.0
C865 C 0.64177 0.66907 0.81483 0.0
C866 C 0.61463 0.64259 0.80628 0.0
C867 C 0.63095 0.6286 0.816 0.0
C868 C 0.65282 0.63502 0.82465 0.0
C869 C 0.65819 0.65504 0.82399 0.0
C870 C 0.63557 0.57318 0.80779 0.0
C871 C 0.61494 0.56687 0.82219 0.0
C872 C 0.64061 0.5932 0.80542 0.0
C873 C 0.6252 0.60737 0.81754 0.0
C874 C 0.60448 0.60111 0.83171 0.0
C875 C 0.59938 0.58104 0.83395 0.0
H876 H 0.10381 0.16859 0.82687 0.0
H877 H 0.17259 0.15895 0.79331 0.0
H878 H 0.09659 0.1334 0.82373 0.0
H879 H 0.16509 0.12373 0.78805 0.0
H880 H 0.15178 0.06085 0.82653 0.0
H881 H 0.15957 0.09604 0.82347 0.0
H882 H 0.09136 0.10639 0.78695 0.0
H883 H 0.08331 0.07132 0.79223 0.0
C884 C 0.11726 0.15892 0.81819 0.0
C885 C 0.13877 0.1664 0.81054 0.0
C886 C 0.1131 0.13875 0.81611 0.0
C887 C 0.13026 0.12567 0.80558 0.0
C888 C 0.15162 0.13331 0.79692 0.0
C889 C 0.15591 0.15347 0.79974 0.0
C890 C 0.13855 0.0707 0.81767 0.0
C891 C 0.1169 0.06351 0.80999 0.0
C892 C 0.14302 0.09085 0.81565 0.0
C893 C 0.12604 0.10412 0.80517 0.0
C894 C 0.10466 0.09669 0.796 0.0
C895 C 0.10006 0.07661 0.7988 0.0
H896 H 0.35601 0.31575 0.55201 0.0
H897 H 0.42356 0.32677 0.59068 0.0
H898 H 0.34807 0.35087 0.5539 0.0
H899 H 0.41535 0.36201 0.59314 0.0
H900 H 0.39827 0.42538 0.55808 0.0
H901 H 0.4075 0.39039 0.55466 0.0
H902 H 0.34246 0.37593 0.59912 0.0
H903 H 0.333 0.41077 0.60197 0.0
C904 C 0.36918 0.32565 0.56094 0.0
C905 C 0.3904 0.31842 0.57135 0.0
C906 C 0.36456 0.34578 0.56221 0.0
C907 C 0.38102 0.35916 0.57395 0.0
C908 C 0.40239 0.35203 0.58373 0.0
C909 C 0.40704 0.33185 0.58245 0.0
C910 C 0.38593 0.41474 0.56714 0.0
C911 C 0.36485 0.42088 0.58015 0.0
C912 C 0.39129 0.39471 0.56534 0.0
C913 C 0.37566 0.38044 0.57646 0.0
C914 C 0.3547 0.38658 0.58981 0.0
C915 C 0.34934 0.40657 0.59162 0.0
H916 H 0.83395 0.91156 0.5801 0.0
H917 H 0.89776 0.92494 0.53029 0.0
H918 H 0.84211 0.87649 0.57547 0.0
H919 H 0.90558 0.88984 0.52473 0.0
H920 H 0.85599 0.81401 0.53986 0.0
H921 H 0.84683 0.849 0.53545 0.0
H922 H 0.91531 0.8638 0.56466 0.0
H923 H 0.92463 0.82906 0.56809 0.0
C924 C 0.84958 0.90701 0.56775 0.0
C925 C 0.86533 0.92103 0.55593 0.0
C926 C 0.85418 0.8869 0.56486 0.0
C927 C 0.87454 0.8804 0.54989 0.0
C928 C 0.88992 0.89441 0.53697 0.0
C929 C 0.88541 0.91451 0.54008 0.0
C930 C 0.86912 0.82475 0.54503 0.0
C931 C 0.89101 0.81874 0.55447 0.0
C932 C 0.86384 0.84478 0.54266 0.0
C933 C 0.88033 0.85916 0.54977 0.0
C934 C 0.90231 0.85311 0.55847 0.0
C935 C 0.9076 0.83315 0.56069 0.0
H936 H 0.35509 0.91859 0.66611 0.0
H937 H 0.42551 0.91174 0.69312 0.0
H938 H 0.34953 0.88327 0.67248 0.0
H939 H 0.41978 0.87649 0.70132 0.0
H940 H 0.40682 0.81236 0.66675 0.0
H941 H 0.41374 0.84778 0.66797 0.0
H942 H 0.34734 0.85709 0.7124 0.0
H943 H 0.3401 0.82182 0.70923 0.0
C944 C 0.36929 0.90954 0.67396 0.0
C945 C 0.39074 0.91785 0.67886 0.0
C946 C 0.3661 0.88929 0.6779 0.0
C947 C 0.38422 0.87699 0.68748 0.0
C948 C 0.40556 0.88545 0.69329 0.0
C949 C 0.40883 0.90565 0.68874 0.0
C950 C 0.39387 0.82202 0.67714 0.0
C951 C 0.37285 0.81448 0.68748 0.0
C952 C 0.39783 0.8423 0.67802 0.0
C953 C 0.38097 0.85534 0.68988 0.0
C954 C 0.36044 0.84755 0.70216 0.0
C955 C 0.35634 0.82735 0.70061 0.0
H956 H 0.8954 0.31793 0.67646 0.0
H957 H 0.82795 0.33064 0.63921 0.0
H958 H 0.90342 0.35301 0.67957 0.0
H959 H 0.83625 0.36586 0.64167 0.0
H960 H 0.91793 0.41584 0.64387 0.0
H961 H 0.90924 0.38083 0.64054 0.0
H962 H 0.84332 0.39187 0.685 0.0
H963 H 0.85178 0.42701 0.6877 0.0
C964 C 0.8823 0.32819 0.66873 0.0
C965 C 0.86101 0.32145 0.65757 0.0
C966 C 0.88697 0.34832 0.67036 0.0
C967 C 0.87049 0.36221 0.66081 0.0
C968 C 0.8492 0.35551 0.6496 0.0
C969 C 0.8445 0.33533 0.64799 0.0
C970 C 0.90159 0.41084 0.65303 0.0
C971 C 0.88556 0.42425 0.66609 0.0
C972 C 0.89665 0.39074 0.65123 0.0
C973 C 0.8756 0.38359 0.66253 0.0
C974 C 0.85958 0.39697 0.67568 0.0
C975 C 0.86451 0.41709 0.67745 0.0
H976 H 0.60786 0.56347 0.43825 0.0
H977 H 0.67276 0.57544 0.39059 0.0
H978 H 0.60023 0.59862 0.44113 0.0
H979 H 0.6648 0.61068 0.39285 0.0
H980 H 0.65185 0.67264 0.4355 0.0
H981 H 0.66006 0.63744 0.43582 0.0
H982 H 0.59224 0.62522 0.39992 0.0
H983 H 0.58381 0.66029 0.40028 0.0
C984 C 0.62047 0.57358 0.42824 0.0
C985 C 0.6409 0.56666 0.41407 0.0
C986 C 0.61603 0.59372 0.42979 0.0
C987 C 0.63188 0.60734 0.41711 0.0
C988 C 0.65239 0.60048 0.40319 0.0
C989 C 0.65687 0.58031 0.4017 0.0
C990 C 0.63866 0.66244 0.42784 0.0
C991 C 0.61718 0.66925 0.41786 0.0
C992 C 0.64342 0.64231 0.42782 0.0
C993 C 0.6268 0.62864 0.41783 0.0
C994 C 0.60529 0.63543 0.40818 0.0
C995 C 0.6005 0.65553 0.40824 0.0
H996 H 0.10508 0.0611 0.45054 0.0
H997 H 0.16997 0.07276 0.40264 0.0
H998 H 0.09815 0.09639 0.45488 0.0
H999 H 0.16272 0.10801 0.40622 0.0
H1000 H 0.15111 0.17028 0.44506 0.0
H1001 H 0.15857 0.13499 0.44792 0.0
H1002 H 0.09021 0.12306 0.41419 0.0
H1003 H 0.08253 0.15824 0.41213 0.0
C1004 C 0.11785 0.07117 0.4409 0.0
C1005 C 0.13802 0.06413 0.42606 0.0
C1006 C 0.11383 0.09138 0.44329 0.0
C1007 C 0.12985 0.10493 0.43076 0.0
C1008 C 0.15019 0.09791 0.41651 0.0
C1009 C 0.15426 0.07771 0.41425 0.0
C1010 C 0.13763 0.16013 0.43844 0.0
C1011 C 0.11625 0.16705 0.42823 0.0
C1012 C 0.14195 0.13993 0.43995 0.0
C1013 C 0.12499 0.1263 0.43118 0.0
C1014 C 0.10352 0.13322 0.42156 0.0
C1015 C 0.09918 0.15339 0.42017 0.0
H1016 H 0.66617 0.16061 0.31238 0.0
H1017 H 0.59631 0.17627 0.29419 0.0
H1018 H 0.65623 0.12605 0.31104 0.0
H1019 H 0.58643 0.14125 0.29199 0.0
H1020 H 0.57798 0.07824 0.34175 0.0
H1021 H 0.58469 0.11353 0.33414 0.0
H1022 H 0.64361 0.10063 0.27122 0.0
H1023 H 0.63737 0.06557 0.27966 0.0
C1024 C 0.64869 0.15668 0.30767 0.0
C1025 C 0.632 0.17121 0.30357 0.0
C1026 C 0.64303 0.13682 0.30661 0.0
C1027 C 0.62057 0.13096 0.30126 0.0
C1028 C 0.60386 0.14541 0.29642 0.0
C1029 C 0.60954 0.16541 0.29749 0.0
C1030 C 0.59226 0.08299 0.32613 0.0
C1031 C 0.60741 0.0692 0.31189 0.0
C1032 C 0.59599 0.10316 0.32153 0.0
C1033 C 0.6148 0.10979 0.3024 0.0
C1034 C 0.62924 0.09593 0.28672 0.0
C1035 C 0.62567 0.07586 0.29159 0.0
H1036 H 0.11477 0.66998 0.29258 0.0
H1037 H 0.17546 0.65572 0.35056 0.0
H1038 H 0.10594 0.63505 0.28768 0.0
H1039 H 0.16625 0.62081 0.34639 0.0
H1040 H 0.15295 0.55874 0.30676 0.0
H1041 H 0.16301 0.5936 0.30482 0.0
H1042 H 0.09372 0.6092 0.32708 0.0
H1043 H 0.08354 0.57454 0.32816 0.0
C1044 C 0.1262 0.65941 0.30437 0.0
C1045 C 0.14575 0.66563 0.32215 0.0
C1046 C 0.12109 0.63941 0.30163 0.0
C1047 C 0.13535 0.62522 0.31678 0.0
C1048 C 0.15509 0.6314 0.33406 0.0
C1049 C 0.16027 0.65141 0.33666 0.0
C1050 C 0.13985 0.56962 0.311 0.0
C1051 C 0.11746 0.56387 0.31772 0.0
C1052 C 0.14563 0.58956 0.31006 0.0
C1053 C 0.12916 0.6041 0.31587 0.0
C1054 C 0.10673 0.59834 0.322 0.0
C1055 C 0.10093 0.57845 0.32283 0.0
H1056 H 0.3131 0.99113 0.22845 0.0
H1057 H 0.2674 0.9675 0.15033 0.0
H1058 H 0.28151 -0.00436 0.2687 0.0
H1059 H 0.23586 0.97287 0.18966 0.0
H1060 H 0.1878 0.96749 0.28197 0.0
H1061 H 0.21878 0.96199 0.24174 0.0
H1062 H 0.24952 0.01678 0.27514 0.0
H1063 H 0.21887 0.02183 0.31692 0.0
C1064 C 0.29635 0.98677 0.22002 0.0
C1065 C 0.29271 0.97895 0.18632 0.0
C1066 C 0.27823 0.9896 0.24284 0.0
C1067 C 0.25615 0.9849 0.23215 0.0
C1068 C 0.25268 0.97647 0.19886 0.0
C1069 C 0.27079 0.97337 0.1763 0.0
C1070 C 0.20097 0.97855 0.28041 0.0
C1071 C 0.20098 -0.00494 0.30274 0.0
C1072 C 0.21876 0.97538 0.25728 0.0
C1073 C 0.23675 0.98883 0.25553 0.0
C1074 C 0.23618 0.00588 0.27656 0.0
C1075 C 0.2185 0.00891 0.30014 0.0
H1076 H 0.02309 0.21712 0.34348 0.0
H1077 H 0.06869 0.24416 0.26895 0.0
H1078 H 0.9922 0.22095 0.30233 0.0
H1079 H 0.03784 0.24718 0.22691 0.0
H1080 H 0.94575 0.21546 0.20828 0.0
H1081 H 0.97682 0.21018 0.24863 0.0
H1082 H 0.00472 0.26697 0.22038 0.0
H1083 H 0.97405 0.27184 0.17857 0.0
C1084 C 0.02665 0.22341 0.31791 0.0
C1085 C 0.04828 0.23047 0.30949 0.0
C1086 C 0.00891 0.22561 0.29428 0.0
C1087 C 0.01251 0.23461 0.26154 0.0
C1088 C 0.03443 0.24066 0.25234 0.0
C1089 C 0.05214 0.23872 0.27621 0.0
C1090 C 0.95835 0.22695 0.21098 0.0
C1091 C 0.95751 0.24407 0.19024 0.0
C1092 C 0.97618 0.22391 0.23413 0.0
C1093 C 0.99335 0.23806 0.23746 0.0
C1094 C 0.99203 0.25556 0.21774 0.0
C1095 C 0.97434 0.25848 0.19415 0.0
H1096 H 0.22443 0.20432 0.91465 0.0
H1097 H 0.18764 0.25147 0.96563 0.0
H1098 H 0.25437 0.20753 0.95837 0.0
H1099 H 0.21779 0.25544 0.00742 0.0
H1100 H 0.26828 0.25058 0.09361 0.0
H1101 H 0.23697 0.24279 0.05512 0.0
H1102 H 0.28383 0.23018 0.97076 0.0
H1103 H 0.31536 0.23676 0.01044 0.0
C1104 C 0.22262 0.21518 0.93535 0.0
C1105 C 0.2038 0.22775 0.93648 0.0
C1106 C 0.23987 0.2172 0.9601 0.0
C1107 C 0.23865 0.23197 0.98602 0.0
C1108 C 0.21924 0.24376 0.98813 0.0
C1109 C 0.20191 0.24153 0.96392 0.0
C1110 C 0.27188 0.24641 0.06669 0.0
C1111 C 0.29417 0.24449 0.05475 0.0
C1112 C 0.25393 0.24188 0.04462 0.0
C1113 C 0.25787 0.23584 0.00983 0.0
C1114 C 0.28023 0.23436 -0.00235 0.0
C1115 C 0.29826 0.23844 0.02009 0.0
H1116 H 0.93748 0.98826 0.01087 0.0
H1117 H 0.98529 0.97906 0.09506 0.0
H1118 H 0.96849 -0.00457 0.97069 0.0
H1119 H 0.01609 0.98743 0.05588 0.0
H1120 H 0.06635 0.98054 0.96737 0.0
H1121 H 0.03641 0.97522 0.00895 0.0
H1122 H 0.99595 0.0196 0.9569 0.0
H1123 H 0.02578 0.0241 0.91336 0.0
C1124 C 0.95465 0.98768 0.02063 0.0
C1125 C 0.9591 0.98285 0.0558 0.0
C1126 C 0.97237 -0.00789 -0.00213 0.0
C1127 C 0.99477 -0.0078 0.01014 0.0
C1128 C 0.9991 0.98718 0.04535 0.0
C1129 C 0.98147 0.9823 0.06782 0.0
C1130 C 0.05122 0.98941 0.96487 0.0
C1131 C 0.04832 0.00257 0.93671 0.0
C1132 C 0.03402 0.98641 0.98899 0.0
C1133 C 0.01365 -0.00318 0.98609 0.0
C1134 C 0.01126 0.01097 0.95929 0.0
C1135 C 0.02842 0.01375 0.93464 0.0
H1136 H 0.73544 0.01032 0.83718 0.0
H1137 H 0.68901 0.98926 0.75779 0.0
H1138 H 0.76682 0.00447 0.79799 0.0
H1139 H 0.72058 0.9844 0.71744 0.0
H1140 H 0.78312 0.95978 0.66578 0.0
H1141 H 0.75249 0.9635 0.70813 0.0
H1142 H 0.78362 0.0169 0.74736 0.0
H1143 H 0.81453 0.01264 0.70677 0.0
C1144 C 0.73188 0.00491 0.81094 0.0
C1145 C 0.70978 0.00035 0.80038 0.0
C1146 C 0.74992 0.00153 0.78846 0.0
C1147 C 0.74621 -0.00607 0.75462 0.0
C1148 C 0.72401 0.98989 0.74364 0.0
C1149 C 0.70593 -0.00708 0.76649 0.0
C1150 C 0.78356 0.97207 0.68399 0.0
C1151 C 0.80118 0.98591 0.68297 0.0
C1152 C 0.76592 0.97434 0.7079 0.0
C1153 C 0.7655 0.99062 0.7308 0.0
C1154 C 0.78355 0.00404 0.73045 0.0
C1155 C 0.8013 0.0016 0.70707 0.0
H1156 H 0.03136 0.71628 0.80963 0.0
H1157 H 0.07068 0.76599 0.77305 0.0
H1158 H 1.00161 0.72476 0.76813 0.0
H1159 H 0.04066 0.7748 0.73263 0.0
H1160 H 0.99 0.77084 0.64039 0.0
H1161 H 0.02113 0.76465 0.68047 0.0
H1162 H 0.97365 0.75067 0.76307 0.0
H1163 H 0.94245 0.75623 0.72261 0.0
C1164 C 0.03376 0.72888 0.79254 0.0
C1165 C 0.0533 0.74053 0.79483 0.0
C1166 C 0.01661 0.73389 0.76912 0.0
C1167 C 0.01862 0.75071 0.74774 0.0
C1168 C 0.03863 0.76176 0.74877 0.0
C1169 C 0.05584 0.75667 0.77197 0.0
C1170 C 0.98617 0.7669 0.66733 0.0
C1171 C 0.9638 0.76375 0.67827 0.0
C1172 C 0.00403 0.76329 0.69027 0.0
C1173 C 0.99981 0.75669 0.72462 0.0
C1174 C 0.9774 0.75513 0.73636 0.0
C1175 C 0.95955 0.75855 0.71335 0.0
H1176 H 0.69177 0.74359 0.9729 0.0
H1177 H 0.73664 0.7161 0.89775 0.0
H1178 H 0.72231 0.74458 0.01576 0.0
H1179 H 0.76725 0.71774 0.94006 0.0
H1180 H 0.78706 0.76617 0.06595 0.0
H1181 H 0.7567 0.76306 0.02318 0.0
H1182 H 0.78096 0.70508 -0.00537 0.0
H1183 H 0.81175 0.70846 0.03646 0.0
C1184 C 0.70809 0.73765 0.96562 0.0
C1185 C 0.71184 0.72987 0.93191 0.0
C1186 C 0.72562 0.73839 0.99003 0.0
C1187 C 0.74726 0.73152 0.98106 0.0
C1188 C 0.75074 0.72303 0.94784 0.0
C1189 C 0.73317 0.72212 0.92357 0.0
C1190 C 0.78604 0.75285 0.05027 0.0
C1191 C 0.80176 0.73756 0.05456 0.0
C1192 C 0.76852 0.75098 0.02605 0.0
C1193 C 0.76627 0.73371 0.00591 0.0
C1194 C 0.78234 0.71863 0.00958 0.0
C1195 C 0.79999 0.72058 0.03355 0.0
H1196 H 0.18436 0.48926 0.77274 0.0
H1197 H 0.22887 0.51704 0.84819 0.0
H1198 H 0.21552 0.48688 0.73119 0.0
H1199 H 0.26007 0.51393 0.80737 0.0
H1200 H 0.30669 0.51998 0.71309 0.0
H1201 H 0.27544 0.5249 0.7533 0.0
H1202 H 0.2492 0.46731 0.72629 0.0
H1203 H 0.28006 0.4627 0.68482 0.0
C1204 C 0.20072 0.49502 0.7803 0.0
C1205 C 0.20421 0.50321 0.81377 0.0
C1206 C 0.21861 0.49345 0.7567 0.0
C1207 C 0.24032 0.49987 0.7663 0.0
C1208 C 0.24352 0.50894 0.79911 0.0
C1209 C 0.2256 0.51072 0.82252 0.0
C1210 C 0.29443 0.50824 0.71604 0.0
C1211 C 0.29577 0.49097 0.6957 0.0
C1212 C 0.2765 0.51108 0.73909 0.0
C1213 C 0.25971 0.49661 0.74262 0.0
C1214 C 0.26158 0.47896 0.72343 0.0
C1215 C 0.27939 0.4762 0.70003 0.0
H1216 H 0.19167 0.75954 0.47076 0.0
H1217 H 0.23379 0.71332 0.4277 0.0
H1218 H 0.22158 0.76877 0.51083 0.0
H1219 H 0.26348 0.72204 0.46925 0.0
H1220 H 0.32098 0.75447 0.51776 0.0
H1221 H 0.28996 0.74847 0.47709 0.0
H1222 H 0.24214 0.75891 0.56096 0.0
H1223 H 0.27305 0.76571 0.60106 0.0
C1224 C 0.20713 0.75102 0.47037 0.0
C1225 C 0.21044 0.73578 0.44577 0.0
C1226 C 0.2243 0.75635 0.49342 0.0
C1227 C 0.24503 0.74638 0.49277 0.0
C1228 C 0.24789 0.73039 0.46962 0.0
C1229 C 0.23078 0.72519 0.44619 0.0
C1230 C 0.3038 0.75599 0.52718 0.0
C1231 C 0.29939 0.7604 0.56256 0.0
C1232 C 0.28607 0.75227 0.50408 0.0
C1233 C 0.26364 0.75267 0.51609 0.0
C1234 C 0.25922 0.75848 0.55087 0.0
C1235 C 0.27695 0.76247 0.57384 0.0
H1236 H 0.01698 0.51966 0.39853 0.0
H1237 H 0.06305 0.49763 0.47749 0.0
H1238 H 0.98606 0.51767 0.44051 0.0
H1239 H 0.03228 0.49622 0.51972 0.0
H1240 H 0.96973 0.46995 0.56837 0.0
H1241 H 0.99984 0.47469 0.52576 0.0
H1242 H 0.97039 0.53034 0.49469 0.0
H1243 H 0.93988 0.52536 0.53649 0.0
C1244 C 0.02061 0.51489 0.42511 0.0
C1245 C 0.04234 0.50854 0.43465 0.0
C1246 C 0.0029 0.51373 0.44912 0.0
C1247 C 0.0067 0.50638 0.48312 0.0
C1248 C 0.02875 0.50139 0.49335 0.0
C1249 C 0.0464 0.50238 0.46929 0.0
C1250 C 0.96954 0.48308 0.55217 0.0
C1251 C 0.9525 0.49731 0.5559 0.0
C1252 C 0.9869 0.48591 0.52805 0.0
C1253 C 0.98766 0.50307 0.5074 0.0
C1254 C 0.9702 0.51695 0.5102 0.0
C1255 C 0.95272 0.51406 0.53415 0.0
H1256 H 0.81769 0.47502 0.2299 0.0
H1257 H 0.76957 0.45901 0.14921 0.0
H1258 H 0.78682 0.48013 0.27118 0.0
H1259 H 0.73882 0.46487 0.18987 0.0
H1260 H 0.68892 0.46558 0.27985 0.0
H1261 H 0.7195 0.45562 0.24167 0.0
H1262 H 0.75883 0.50573 0.27643 0.0
H1263 H 0.72847 0.51528 0.31614 0.0
C1264 C 0.80056 0.47223 0.22121 0.0
C1265 C 0.79599 0.4669 0.18626 0.0
C1266 C 0.7829 0.47541 0.24466 0.0
C1267 C 0.76041 0.47346 0.23343 0.0
C1268 C 0.75597 0.46651 0.19933 0.0
C1269 C 0.77363 0.4631 0.17602 0.0
C1270 C 0.70397 0.47466 0.27916 0.0
C1271 C 0.70632 0.49121 0.30118 0.0
C1272 C 0.72152 0.46889 0.25724 0.0
C1273 C 0.74168 0.4797 0.25644 0.0
C1274 C 0.74369 0.49678 0.27725 0.0
C1275 C 0.72619 0.50244 0.29957 0.0
H1276 H 0.73104 0.21686 0.39205 0.0
H1277 H 0.68381 0.23692 0.47099 0.0
H1278 H 0.76205 0.2223 0.43252 0.0
H1279 H 0.71486 0.24157 0.51217 0.0
H1280 H 0.81134 0.22109 0.5238 0.0
H1281 H 0.78048 0.21276 0.48473 0.0
H1282 H 0.74469 0.26517 0.51781 0.0
H1283 H 0.77526 0.27307 0.55831 0.0
C1284 C 0.7272 0.22182 0.41845 0.0
C1285 C 0.70504 0.2267 0.42826 0.0
C1286 C 0.74502 0.22498 0.44167 0.0
C1287 C 0.74095 0.23278 0.4753 0.0
C1288 C 0.71858 0.23614 0.48603 0.0
C1289 C 0.70078 0.23323 0.46264 0.0
C1290 C 0.79704 0.23102 0.52246 0.0
C1291 C 0.7957 0.24774 0.54425 0.0
C1292 C 0.77931 0.22619 0.50004 0.0
C1293 C 0.76001 0.23814 0.49853 0.0
C1294 C 0.7591 0.25536 0.51912 0.0
C1295 C 0.77673 0.26006 0.54195 0.0
H1296 H 0.51805 0.21896 0.8398 0.0
H1297 H 0.56579 0.23457 0.75848 0.0
H1298 H 0.48709 0.22412 0.79901 0.0
H1299 H 0.5348 0.23895 0.71713 0.0
H1300 H 0.47577 0.27038 0.66759 0.0
H1301 H 0.50584 0.26338 0.70947 0.0
H1302 H 0.46848 0.21295 0.74764 0.0
H1303 H 0.43813 0.22039 0.70716 0.0
C1304 C 0.52196 0.22288 0.81288 0.0
C1305 C 0.54427 0.22658 0.80233 0.0
C1306 C 0.50421 0.2259 0.78952 0.0
C1307 C 0.50852 0.23235 0.75509 0.0
C1308 C 0.53096 0.23457 0.74384 0.0
C1309 C 0.54869 0.23182 0.76733 0.0
C1310 C 0.47385 0.25802 0.68536 0.0
C1311 C 0.45464 0.24593 0.68399 0.0
C1312 C 0.49117 0.25384 0.70899 0.0
C1313 C 0.48968 0.23739 0.73136 0.0
C1314 C 0.47008 0.22578 0.73089 0.0
C1315 C 0.45268 0.23009 0.70763 0.0
H1316 H 0.43504 0.9909 0.5117 0.0
H1317 H 0.48177 0.96717 0.58814 0.0
H1318 H 0.46601 -0.00486 0.47024 0.0
H1319 H 0.51268 0.9723 0.54764 0.0
H1320 H 0.5609 0.96965 0.45593 0.0
H1321 H 0.52979 0.9625 0.49503 0.0
H1322 H 0.49739 0.01703 0.46441 0.0
H1323 H 0.52819 0.02371 0.42362 0.0
C1324 C 0.45186 0.98638 0.51945 0.0
C1325 C 0.45602 0.97882 0.55318 0.0
C1326 C 0.46962 0.98905 0.49594 0.0
C1327 C 0.49185 0.98445 0.50595 0.0
C1328 C 0.49576 0.97588 0.53899 0.0
C1329 C 0.47799 0.97293 0.56224 0.0
C1330 C 0.54731 0.98029 0.45784 0.0
C1331 C 0.54695 -0.00275 0.43666 0.0
C1332 C 0.52944 0.97615 0.48028 0.0
C1333 C 0.511 0.98908 0.48254 0.0
C1334 C 0.5111 0.00651 0.46253 0.0
C1335 C 0.52886 0.0105 0.43958 0.0
H1336 H 0.4405 0.7364 0.22012 0.0
H1337 H 0.48738 0.75676 0.14104 0.0
H1338 H 0.4716 0.73241 0.26148 0.0
H1339 H 0.51853 0.75177 0.18145 0.0
H1340 H 0.5654 0.76043 0.27434 0.0
H1341 H 0.53517 0.76434 0.23229 0.0
H1342 H 0.50306 0.71161 0.2723 0.0
H1343 H 0.53295 0.7083 0.31602 0.0
C1344 C 0.45745 0.74009 0.21171 0.0
C1345 C 0.46158 0.74701 0.17758 0.0
C1346 C 0.47529 0.73755 0.23516 0.0
C1347 C 0.49757 0.74155 0.22462 0.0
C1348 C 0.50155 0.74881 0.1906 0.0
C1349 C 0.4837 0.75171 0.16743 0.0
C1350 C 0.55208 0.74948 0.27392 0.0
C1351 C 0.55146 0.7341 0.29861 0.0
C1352 C 0.53473 0.75171 0.24968 0.0
C1353 C 0.51659 0.7384 0.24913 0.0
C1354 C 0.51654 0.7224 0.27266 0.0
C1355 C 0.53376 0.72036 0.2974 0.0
H1356 H 0.48202 0.46364 0.08765 0.0
H1357 H 0.43491 0.48828 0.01266 0.0
H1358 H 0.51255 0.46829 0.04618 0.0
H1359 H 0.46549 0.4922 0.97042 0.0
H1360 H 0.52837 0.52035 0.9238 0.0
H1361 H 0.49758 0.51377 0.96468 0.0
H1362 H 0.52833 0.45804 0.99221 0.0
H1363 H 0.5594 0.46494 0.95285 0.0
C1364 C 0.47806 0.46954 0.06193 0.0
C1365 C 0.45611 0.47579 0.05353 0.0
C1366 C 0.4956 0.47222 0.03812 0.0
C1367 C 0.49147 0.48091 0.00526 0.0
C1368 C 0.46925 0.48595 -0.00404 0.0
C1369 C 0.45172 0.48349 0.01995 0.0
C1370 C 0.52867 0.50685 0.93899 0.0
C1371 C 0.54632 0.49322 0.93518 0.0
C1372 C 0.51092 0.50295 0.96203 0.0
C1373 C 0.51042 0.48527 0.98132 0.0
C1374 C 0.52833 0.47187 0.978 0.0
C1375 C 0.54616 0.47587 0.9554 0.0
H1376 H 0.40212 -0.00363 0.95734 0.0
H1377 H 0.32944 0.00272 0.95395 0.0
H1378 H 0.40321 -0.00075 0.89288 0.0
H1379 H 0.33067 0.00541 0.8905 0.0
H1380 H 0.34564 0.98269 0.77576 0.0
H1381 H 0.34253 0.98148 0.83978 0.0
H1382 H 0.39165 0.02825 0.84888 0.0
H1383 H 0.39457 0.02989 0.78526 0.0
C1384 C 0.38651 -0.00166 0.9429 0.0
C1385 C 0.3658 -0.00045 0.96053 0.0
C1386 C 0.38711 6e-05 0.9063 0.0
C1387 C 0.36697 0.00258 0.88718 0.0
C1388 C 0.34633 0.00341 0.9048 0.0
C1389 C 0.34575 0.00202 0.94111 0.0
C1390 C 0.35534 -0.00695 0.79135 0.0
C1391 C 0.37054 0.00619 0.77547 0.0
C1392 C 0.35369 -0.00776 0.82787 0.0
C1393 C 0.36734 0.00444 0.84883 0.0
C1394 C 0.38142 0.0184 0.83304 0.0
C1395 C 0.38285 0.01942 0.79665 0.0
H1396 H 0.89953 0.21 0.94827 0.0
H1397 H 0.84894 0.2552 0.9644 0.0
H1398 H 0.8958 0.21383 0.88512 0.0
H1399 H 0.84512 0.25874 0.90072 0.0
H1400 H 0.83024 0.23837 0.78536 0.0
H1401 H 0.83285 0.23642 0.84893 0.0
H1402 H 0.90526 0.24314 0.84258 0.0
H1403 H 0.90271 0.24521 0.77819 0.0
C1404 C 0.88738 0.22056 0.9384 0.0
C1405 C 0.87466 0.23246 0.96134 0.0
C1406 C 0.88548 0.22287 0.90227 0.0
C1407 C 0.87062 0.23688 0.88844 0.0
C1408 C 0.85687 0.24796 0.91108 0.0
C1409 C 0.85892 0.24582 0.94739 0.0
C1410 C 0.84676 0.23947 0.79747 0.0
C1411 C 0.86638 0.24164 0.77702 0.0
C1412 C 0.84816 0.23853 0.8338 0.0
C1413 C 0.8692 0.23953 0.85029 0.0
C1414 C 0.88885 0.24218 0.83008 0.0
C1415 C 0.88743 0.24343 0.79351 0.0
H1416 H 0.39477 0.2551 0.28177 0.0
H1417 H 0.36503 0.19691 0.2781 0.0
H1418 H 0.39147 0.25501 0.34575 0.0
H1419 H 0.36067 0.19721 0.34138 0.0
H1420 H 0.35812 0.26071 0.45026 0.0
H1421 H 0.35971 0.25794 0.38626 0.0
H1422 H 0.37925 0.19672 0.39603 0.0
H1423 H 0.37661 0.19929 0.45939 0.0
C1424 C 0.38816 0.2421 0.2947 0.0
C1425 C 0.37993 0.22611 0.27513 0.0
C1426 C 0.38574 0.24223 0.33116 0.0
C1427 C 0.37509 0.22639 0.34833 0.0
C1428 C 0.36879 0.20969 0.32891 0.0
C1429 C 0.37138 0.20949 0.29267 0.0
C1430 C 0.36175 0.24649 0.43855 0.0
C1431 C 0.36751 0.23027 0.45951 0.0
C1432 C 0.3632 0.24501 0.40205 0.0
C1433 C 0.37038 0.2273 0.38632 0.0
C1434 C 0.37382 0.2106 0.40734 0.0
C1435 C 0.37222 0.21204 0.44363 0.0
H1436 H 0.85708 0.97327 0.28128 0.0
H1437 H 0.87551 0.03461 0.27018 0.0
H1438 H 0.85886 0.97665 0.34518 0.0
H1439 H 0.87809 0.03782 0.33357 0.0
H1440 H 0.89563 0.98073 0.44863 0.0
H1441 H 0.89145 0.98032 0.38481 0.0
H1442 H 0.85912 0.03743 0.38882 0.0
H1443 H 0.86409 0.0382 0.45209 0.0
C1444 C 0.86071 0.98761 0.29253 0.0
C1445 C 0.86641 0.00363 0.27102 0.0
C1446 C 0.86224 0.98944 0.32898 0.0
C1447 C 0.86936 0.00732 0.34417 0.0
C1448 C 0.87273 0.02383 0.32264 0.0
C1449 C 0.87115 0.02201 0.28635 0.0
C1450 C 0.88839 -0.00652 0.43569 0.0
C1451 C 0.87998 0.0094 0.45525 0.0
C1452 C 0.88552 -0.00695 0.39931 0.0
C1453 C 0.87428 0.00855 0.3821 0.0
C1454 C 0.86767 0.0252 0.40139 0.0
C1455 C 0.87062 0.02567 0.43761 0.0
H1456 H 0.6741 -0.00773 0.03257 0.0
H1457 H 0.60138 0.98659 0.03143 0.0
H1458 H 0.67411 0.99123 0.09643 0.0
H1459 H 0.60148 0.98539 0.09608 0.0
H1460 H 0.61662 0.95681 0.2026 0.0
H1461 H 0.61944 0.95872 0.13896 0.0
H1462 H 0.65796 0.01255 0.14804 0.0
H1463 H 0.65486 0.01098 0.21209 0.0
C1464 C 0.65808 0.99083 0.04613 0.0
C1465 C 0.63769 0.98921 0.02738 0.0
C1466 C 0.65815 0.99038 0.08254 0.0
C1467 C 0.63787 0.98806 0.10074 0.0
C1468 C 0.61734 0.98699 0.08219 0.0
C1469 C 0.61722 0.98778 0.04552 0.0
C1470 C 0.62605 0.9689 0.19113 0.0
C1471 C 0.63519 0.98396 0.21222 0.0
C1472 C 0.62741 0.97005 0.15479 0.0
C1473 C 0.63827 0.98608 0.13903 0.0
C1474 C 0.64923 0.0002 0.15995 0.0
C1475 C 0.64766 -0.00082 0.19647 0.0
H1476 H 0.15955 0.73485 0.02809 0.0
H1477 H 0.10189 0.77376 0.0377 0.0
H1478 H 0.16463 0.73617 0.09198 0.0
H1479 H 0.10687 0.77461 0.10095 0.0
H1480 H 0.10628 0.74285 0.21137 0.0
H1481 H 0.10308 0.74478 0.14721 0.0
H1482 H 0.17225 0.76448 0.14042 0.0
H1483 H 0.17552 0.76292 0.20404 0.0
C1484 C 0.14821 0.74385 0.04363 0.0
C1485 C 0.13022 0.75401 0.02788 0.0
C1486 C 0.15109 0.74456 0.08003 0.0
C1487 C 0.13585 0.75523 0.10095 0.0
C1488 C 0.11854 0.76605 0.08517 0.0
C1489 C 0.11585 0.7656 0.04894 0.0
C1490 C 0.12068 0.74777 0.19617 0.0
C1491 C 0.14106 0.75281 0.21266 0.0
C1492 C 0.11887 0.74887 0.15966 0.0
C1493 C 0.13752 0.75467 0.13934 0.0
C1494 C 0.15777 0.75984 0.15575 0.0
C1495 C 0.15949 0.75909 0.19213 0.0
H1496 H 0.61288 0.72974 0.70311 0.0
H1497 H 0.64202 0.78815 0.70832 0.0
H1498 H 0.61356 0.73138 0.63899 0.0
H1499 H 0.64303 0.78961 0.64444 0.0
H1500 H 0.61966 0.78822 0.52744 0.0
H1501 H 0.61881 0.78983 0.59132 0.0
H1502 H 0.64665 0.73101 0.59684 0.0
H1503 H 0.64716 0.72923 0.53273 0.0
C1504 C 0.6188 0.74312 0.69058 0.0
C1505 C 0.62761 0.75873 0.7105 0.0
C1506 C 0.61958 0.74391 0.654 0.0
C1507 C 0.62896 0.76039 0.63706 0.0
C1508 C 0.63591 0.77668 0.65697 0.0
C1509 C 0.63525 0.77586 0.69345 0.0
C1510 C 0.62612 0.77582 0.54232 0.0
C1511 C 0.63323 0.75851 0.5253 0.0
C1512 C 0.62555 0.77673 0.5788 0.0
C1513 C 0.63206 0.76033 0.59874 0.0
C1514 C 0.64096 0.74364 0.58181 0.0
C1515 C 0.64165 0.74276 0.54524 0.0
H1516 H 0.14419 0.00033 0.70459 0.0
H1517 H 0.11208 0.94319 0.71197 0.0
H1518 H 0.14088 -0.00102 0.64073 0.0
H1519 H 0.1084 0.94207 0.64827 0.0
H1520 H 0.12823 0.94356 0.52902 0.0
H1521 H 0.13 0.94109 0.59278 0.0
H1522 H 0.1065 0.0012 0.60175 0.0
H1523 H 0.10511 0.00381 0.53776 0.0
C1524 C 0.13706 0.98724 0.69255 0.0
C1525 C 0.12814 0.97197 0.71314 0.0
C1526 C 0.13475 0.98665 0.65612 0.0
C1527 C 0.12368 0.97073 0.6399 0.0
C1528 C 0.11673 0.95462 0.66025 0.0
C1529 C 0.11896 0.95523 0.69663 0.0
C1530 C 0.12277 0.95604 0.54468 0.0
C1531 C 0.11684 0.97397 0.52866 0.0
C1532 C 0.12389 0.95464 0.5811 0.0
C1533 C 0.11908 0.97116 0.60192 0.0
C1534 C 0.11092 0.98845 0.58602 0.0
C1535 C 0.1097 0.98983 0.54952 0.0
H1536 H 0.40164 0.49307 0.46259 0.0
H1537 H 0.33521 0.51932 0.45361 0.0
H1538 H 0.40585 0.49527 0.39854 0.0
H1539 H 0.3395 0.52118 0.39046 0.0
H1540 H 0.34713 0.49138 0.27927 0.0
H1541 H 0.34313 0.4928 0.3432 0.0
H1542 H 0.40619 0.52444 0.3511 0.0
H1543 H 0.41021 0.5234 0.28758 0.0
C1544 C 0.3881 0.4994 0.44713 0.0
C1545 C 0.36811 0.50592 0.46314 0.0
C1546 C 0.39051 0.50068 0.41069 0.0
C1547 C 0.37285 0.50823 0.39002 0.0
C1548 C 0.35317 0.51512 0.40602 0.0
C1549 C 0.35086 0.5141 0.44222 0.0
C1550 C 0.35992 0.49892 0.29459 0.0
C1551 C 0.37899 0.50719 0.27842 0.0
C1552 C 0.35767 0.49968 0.33102 0.0
C1553 C 0.37457 0.50849 0.35164 0.0
C1554 C 0.39318 0.51734 0.33553 0.0
C1555 C 0.39528 0.51687 0.29919 0.0
H1556 H 0.90085 0.69653 0.46312 0.0
H1557 H 0.86557 0.75207 0.45262 0.0
H1558 H 0.9052 0.69481 0.39958 0.0
H1559 H 0.86958 0.75007 0.38897 0.0
H1560 H 0.88303 0.69303 0.28088 0.0
H1561 H 0.8832 0.69172 0.3448 0.0
H1562 H 0.90311 0.75301 0.34863 0.0
H1563 H 0.90259 0.75438 0.2844 0.0
C1564 C 0.89351 0.70811 0.44718 0.0
C1565 C 0.88309 0.72456 0.46284 0.0
C1566 C 0.89614 0.70716 0.41086 0.0
C1567 C 0.88836 0.72262 0.38963 0.0
C1568 C 0.87637 0.73828 0.405 0.0
C1569 C 0.87367 0.73921 0.44134 0.0
C1570 C 0.88822 0.70602 0.29543 0.0
C1571 C 0.89255 0.72387 0.27797 0.0
C1572 C 0.88822 0.70529 0.33195 0.0
C1573 C 0.89251 0.72242 0.35146 0.0
C1574 C 0.89917 0.73974 0.33398 0.0
C1575 C 0.8993 0.74044 0.29733 0.0
H1576 H 0.36395 0.69218 0.7768 0.0
H1577 H 0.39799 0.74835 0.78693 0.0
H1578 H 0.35956 0.69062 0.84044 0.0
H1579 H 0.39379 0.74659 0.85057 0.0
H1580 H 0.38064 0.69145 0.96061 0.0
H1581 H 0.38162 0.68893 0.89673 0.0
H1582 H 0.35843 0.74914 0.88853 0.0
H1583 H 0.35767 0.75175 0.95257 0.0
C1584 C 0.37107 0.70391 0.7927 0.0
C1585 C 0.38105 0.72052 0.77693 0.0
C1586 C 0.36839 0.70305 0.82903 0.0
C1587 C 0.37564 0.71881 0.85005 0.0
C1588 C 0.38742 0.73456 0.83463 0.0
C1589 C 0.39022 0.73537 0.79831 0.0
C1590 C 0.37498 0.7039 0.94509 0.0
C1591 C 0.36938 0.72188 0.9613 0.0
C1592 C 0.37566 0.70248 0.90862 0.0
C1593 C 0.37081 0.71905 0.88798 0.0
C1594 C 0.36284 0.73635 0.90413 0.0
C1595 C 0.36199 0.73773 0.94066 0.0
H1596 H 0.84478 0.48832 0.78634 0.0
H1597 H 0.88895 0.5392 0.78849 0.0
H1598 H 0.84023 0.49095 0.85032 0.0
H1599 H 0.88487 0.54119 0.85197 0.0
H1600 H 0.8984 0.50243 0.96052 0.0
H1601 H 0.89806 0.50596 0.89634 0.0
H1602 H 0.82862 0.52495 0.89995 0.0
H1603 H 0.82886 0.52207 0.9637 0.0
C1604 C 0.853 0.50029 0.8002 0.0
C1605 C 0.86753 0.5133 0.78256 0.0
C1606 C 0.8505 0.50171 0.83664 0.0
C1607 C 0.8626 0.51605 0.85547 0.0
C1608 C 0.87568 0.52992 0.83767 0.0
C1609 C 0.87793 0.52871 0.80142 0.0
C1610 C 0.88324 0.50772 0.94768 0.0
C1611 C 0.86373 0.51199 0.96713 0.0
C1612 C 0.88303 0.50966 0.91117 0.0
C1613 C 0.86321 0.51552 0.89383 0.0
C1614 C 0.84396 0.52032 0.91311 0.0
C1615 C 0.84427 0.51879 0.94954 0.0
H1616 H 0.64685 0.50942 0.70618 0.0
H1617 H 0.62188 0.44957 0.71003 0.0
H1618 H 0.64593 0.50825 0.64196 0.0
H1619 H 0.62003 0.44865 0.64644 0.0
H1620 H 0.63665 0.45018 0.52943 0.0
H1621 H 0.64013 0.44896 0.59283 0.0
H1622 H 0.61448 0.50854 0.59995 0.0
H1623 H 0.61201 0.51006 0.53584 0.0
C1624 C 0.64191 0.49583 0.69327 0.0
C1625 C 0.63421 0.47966 0.71279 0.0
C1626 C 0.64088 0.49531 0.65665 0.0
C1627 C 0.6322 0.47859 0.63938 0.0
C1628 C 0.62666 0.46178 0.65899 0.0
C1629 C 0.62781 0.46227 0.69539 0.0
C1630 C 0.63125 0.46286 0.54461 0.0
C1631 C 0.62429 0.48029 0.52791 0.0
C1632 C 0.63333 0.46218 0.5809 0.0
C1633 C 0.62816 0.47884 0.60118 0.0
C1634 C 0.61925 0.49571 0.58471 0.0
C1635 C 0.61731 0.49643 0.54819 0.0
H1636 H 0.13054 0.28648 0.71221 0.0
H1637 H 0.10819 0.22607 0.7024 0.0
H1638 H 0.13657 0.28817 0.64939 0.0
H1639 H 0.11288 0.22809 0.63877 0.0
H1640 H 0.14961 0.2267 0.53755 0.0
H1641 H 0.14562 0.22827 0.60133 0.0
H1642 H 0.12201 0.28846 0.59282 0.0
H1643 H 0.12732 0.28719 0.52981 0.0
C1644 C 0.12596 0.27383 0.69628 0.0
C1645 C 0.11932 0.25603 0.71205 0.0
C1646 C 0.12955 0.27476 0.66027 0.0
C1647 C 0.12601 0.25802 0.6393 0.0
C1648 C 0.11664 0.24097 0.65457 0.0
C1649 C 0.11334 0.23996 0.69083 0.0
C1650 C 0.14468 0.24053 0.54959 0.0
C1651 C 0.1384 0.25672 0.52893 0.0
C1652 C 0.14178 0.24128 0.58595 0.0
C1653 C 0.13256 0.25821 0.60186 0.0
C1654 C 0.12891 0.27512 0.58143 0.0
C1655 C 0.13209 0.27444 0.54531 0.0
H1656 H 0.59239 0.28186 0.02676 0.0
H1657 H 0.65548 0.24962 0.02348 0.0
H1658 H 0.59515 0.28407 0.09033 0.0
H1659 H 0.6583 0.25243 0.08752 0.0
H1660 H 0.66216 0.27898 0.19918 0.0
H1661 H 0.65954 0.28225 0.13583 0.0
H1662 H 0.59469 0.25326 0.13711 0.0
H1663 H 0.59732 0.24942 0.20108 0.0
C1664 C 0.60711 0.27559 0.03943 0.0
C1665 C 0.62366 0.26534 0.02004 0.0
C1666 C 0.60852 0.2768 0.07583 0.0
C1667 C 0.62672 0.26821 0.09344 0.0
C1668 C 0.64407 0.25911 0.07418 0.0
C1669 C 0.64248 0.25756 0.03766 0.0
C1670 C 0.64713 0.27346 0.18625 0.0
C1671 C 0.62998 0.26373 0.2052 0.0
C1672 C 0.64578 0.27531 0.14996 0.0
C1673 C 0.62709 0.26784 0.13197 0.0
C1674 C 0.60929 0.25912 0.15078 0.0
C1675 C 0.61078 0.25693 0.18723 0.0
H1676 H 0.10567 0.50439 0.04345 0.0
H1677 H 0.12744 0.44376 0.03506 0.0
H1678 H 0.10836 0.50224 0.10742 0.0
H1679 H 0.13089 0.4418 0.09855 0.0
H1680 H 0.11564 0.44341 0.21752 0.0
H1681 H 0.11187 0.44238 0.154 0.0
H1682 H 0.14134 0.50059 0.14694 0.0
H1683 H 0.14436 0.50189 0.21091 0.0
C1684 C 0.11026 0.49044 0.05533 0.0
C1685 C 0.11656 0.4743 0.03449 0.0
C1686 C 0.11232 0.48933 0.09181 0.0
C1687 C 0.1206 0.47207 0.10775 0.0
C1688 C 0.12467 0.45535 0.087 0.0
C1689 C 0.12257 0.45644 0.05067 0.0
C1690 C 0.12193 0.45575 0.2023 0.0
C1691 C 0.12999 0.47284 0.21903 0.0
C1692 C 0.11964 0.4552 0.16595 0.0
C1693 C 0.12561 0.47167 0.14572 0.0
C1694 C 0.13589 0.48795 0.16215 0.0
C1695 C 0.13813 0.48853 0.19864 0.0
H1696 H 0.3656 0.16696 0.07985 0.0
H1697 H 0.33513 0.15891 0.18225 0.0
H1698 H 0.36795 0.1312 0.07295 0.0
H1699 H 0.33717 0.12345 0.17497 0.0
H1700 H 0.33683 0.06925 0.05769 0.0
H1701 H 0.33983 0.10465 0.06517 0.0
H1702 H 0.36477 0.09622 0.17086 0.0
H1703 H 0.36143 0.06053 0.16371 0.0
C1704 C 0.35942 0.1576 0.10081 0.0
C1705 C 0.35006 0.16575 0.13146 0.0
C1706 C 0.36075 0.13719 0.09686 0.0
C1707 C 0.35279 0.12464 0.12351 0.0
C1708 C 0.34375 0.13279 0.15429 0.0
C1709 C 0.34239 0.15313 0.15823 0.0
C1710 C 0.34303 0.07487 0.08256 0.0
C1711 C 0.34872 0.06209 0.11027 0.0
C1712 C 0.34494 0.09517 0.08665 0.0
C1713 C 0.35257 0.10311 0.11852 0.0
C1714 C 0.35866 0.0904 0.14609 0.0
C1715 C 0.35677 0.07002 0.142 0.0
H1716 H 0.89029 0.06006 0.07446 0.0
H1717 H 0.9188 0.0698 0.17781 0.0
H1718 H 0.88864 0.09567 0.06526 0.0
H1719 H 0.91743 0.10514 0.16828 0.0
H1720 H 0.88987 0.16683 0.15498 0.0
H1721 H 0.88862 0.13117 0.16245 0.0
H1722 H 0.91559 0.12338 0.05785 0.0
H1723 H 0.91651 0.15896 0.04999 0.0
C1724 C 0.89628 0.06975 0.0951 0.0
C1725 C 0.90464 0.06212 0.12685 0.0
C1726 C 0.89537 0.0901 0.08979 0.0
C1727 C 0.90277 0.10308 0.11618 0.0
C1728 C 0.91125 0.09544 0.14777 0.0
C1729 C 0.91218 0.07518 0.15306 0.0
C1730 C 0.89543 0.15752 0.13351 0.0
C1731 C 0.90342 0.16571 0.102 0.0
C1732 C 0.89478 0.13713 0.13785 0.0
C1733 C 0.90211 0.12459 0.11076 0.0
C1734 C 0.90964 0.13274 0.079 0.0
C1735 C 0.91031 0.15311 0.07465 0.0
H1736 H 0.64251 0.81382 0.91062 0.0
H1737 H 0.67648 0.82457 0.81178 0.0
H1738 H 0.63795 0.84934 0.91878 0.0
H1739 H 0.67222 0.85981 0.8203 0.0
H1740 H 0.64224 0.92049 0.82774 0.0
H1741 H 0.6421 0.88469 0.82108 0.0
H1742 H 0.66202 0.87823 0.92975 0.0
H1743 H 0.66171 0.9138 0.93674 0.0
C1744 C 0.64916 0.82373 0.89084 0.0
C1745 C 0.65981 0.8164 0.86056 0.0
C1746 C 0.64651 0.84402 0.89548 0.0
C1747 C 0.6545 0.85726 0.86994 0.0
C1748 C 0.66544 0.84992 0.84 0.0
C1749 C 0.66807 0.82972 0.83534 0.0
C1750 C 0.64634 0.91142 0.85028 0.0
C1751 C 0.65221 0.91997 0.88262 0.0
C1752 C 0.64637 0.89096 0.84643 0.0
C1753 C 0.65224 0.87875 0.87485 0.0
C1754 C 0.65725 0.88728 0.9075 0.0
C1755 C 0.65722 0.90769 0.91136 0.0
H1756 H 0.06795 0.81894 0.91692 0.0
H1757 H 0.13092 0.81744 0.8594 0.0
H1758 H 0.06719 0.85481 0.91199 0.0
H1759 H 0.13022 0.85354 0.85517 0.0
H1760 H 0.1271 0.91972 0.89719 0.0
H1761 H 0.12878 0.88395 0.90664 0.0
H1762 H 0.0659 0.87696 0.85058 0.0
H1763 H 0.06438 0.91249 0.84037 0.0
C1764 C 0.08168 0.8263 0.90344 0.0
C1765 C 0.09947 0.81552 0.88839 0.0
C1766 C 0.08121 0.84672 0.90069 0.0
C1767 C 0.09871 0.85664 0.88346 0.0
C1768 C 0.11669 0.846 0.86883 0.0
C1769 C 0.11697 0.82547 0.87098 0.0
C1770 C 0.11356 0.91051 0.88726 0.0
C1771 C 0.09564 0.91869 0.86803 0.0
C1772 C 0.11463 0.89018 0.89243 0.0
C1773 C 0.0975 0.87801 0.87914 0.0
C1774 C 0.07922 0.88624 0.861 0.0
C1775 C 0.0784 0.90645 0.85517 0.0
H1776 H 0.37872 0.67214 0.58868 0.0
H1777 H 0.31195 0.6688 0.63392 0.0
H1778 H 0.37805 0.63632 0.57847 0.0
H1779 H 0.31106 0.63334 0.62287 0.0
H1780 H 0.313 0.57309 0.56644 0.0
H1781 H 0.31454 0.60906 0.56611 0.0
H1782 H 0.37456 0.60746 0.63041 0.0
H1783 H 0.37294 0.57134 0.63136 0.0
C1784 C 0.36374 0.6638 0.5955 0.0
C1785 C 0.34541 0.67298 0.61211 0.0
C1786 C 0.36343 0.64345 0.58992 0.0
C1787 C 0.34454 0.63233 0.60009 0.0
C1788 C 0.32573 0.64174 0.61477 0.0
C1789 C 0.32626 0.66192 0.62109 0.0
C1790 C 0.32656 0.5804 0.58045 0.0
C1791 C 0.34278 0.56951 0.59916 0.0
C1792 C 0.32745 0.60089 0.5801 0.0
C1793 C 0.34479 0.61077 0.59789 0.0
C1794 C 0.36124 0.59998 0.61613 0.0
C1795 C 0.36014 0.57943 0.61703 0.0
H1796 H 0.88298 0.67898 0.65867 0.0
H1797 H 0.94639 0.66999 0.60488 0.0
H1798 H 0.88121 0.64357 0.67198 0.0
H1799 H 0.94489 0.63487 0.61907 0.0
H1800 H 0.9397 0.57626 0.68321 0.0
H1801 H 0.94173 0.61226 0.68031 0.0
H1802 H 0.87984 0.61344 0.62045 0.0
H1803 H 0.87797 0.57738 0.62251 0.0
C1804 C 0.89674 0.66951 0.65051 0.0
C1805 C 0.91475 0.67701 0.63064 0.0
C1806 C 0.89567 0.64937 0.65795 0.0
C1807 C 0.91291 0.63676 0.64639 0.0
C1808 C 0.93151 0.64447 0.62829 0.0
C1809 C 0.9323 0.66444 0.62013 0.0
C1810 C 0.9265 0.58422 0.66954 0.0
C1811 C 0.90875 0.57412 0.65285 0.0
C1812 C 0.92766 0.60471 0.66801 0.0
C1813 C 0.91082 0.61536 0.65051 0.0
C1814 C 0.89283 0.60537 0.63445 0.0
C1815 C 0.89191 0.58484 0.63531 0.0
H1816 H 0.67499 0.32341 0.31411 0.0
H1817 H 0.64384 0.31171 0.41493 0.0
H1818 H 0.67257 0.35853 0.32518 0.0
H1819 H 0.64138 0.34721 0.42579 0.0
H1820 H 0.66817 0.41178 0.44162 0.0
H1821 H 0.66856 0.37611 0.43422 0.0
H1822 H 0.64022 0.38256 0.33022 0.0
H1823 H 0.63998 0.41827 0.33724 0.0
C1824 C 0.66766 0.32831 0.3387 0.0
C1825 C 0.65945 0.3148 0.36359 0.0
C1826 C 0.66616 0.34842 0.34485 0.0
C1827 C 0.65649 0.35543 0.37603 0.0
C1828 C 0.64888 0.34203 0.4015 0.0
C1829 C 0.65029 0.32179 0.39528 0.0
C1830 C 0.66194 0.4056 0.41721 0.0
C1831 C 0.65428 0.4178 0.38981 0.0
C1832 C 0.66202 0.38521 0.41317 0.0
C1833 C 0.65456 0.37676 0.38164 0.0
C1834 C 0.64631 0.38887 0.35463 0.0
C1835 C 0.64612 0.40925 0.3587 0.0
H1836 H 0.0801 0.32064 0.44317 0.0
H1837 H 0.10275 0.31551 0.33536 0.0
H1838 H 0.07685 0.35611 0.43633 0.0
H1839 H 0.09971 0.35121 0.32885 0.0
H1840 H 0.06893 0.41201 0.31959 0.0
H1841 H 0.06931 0.37657 0.3282 0.0
H1842 H 0.10315 0.38442 0.42788 0.0
H1843 H 0.10263 0.42014 0.41955 0.0
C1844 C 0.0844 0.32706 0.41798 0.0
C1845 C 0.09173 0.31527 0.38974 0.0
C1846 C 0.08263 0.34738 0.41423 0.0
C1847 C 0.08809 0.3563 0.38217 0.0
C1848 C 0.0952 0.34458 0.35378 0.0
C1849 C 0.09702 0.3242 0.35753 0.0
C1850 C 0.07634 0.40624 0.34351 0.0
C1851 C 0.08598 0.41884 0.36879 0.0
C1852 C 0.07664 0.38595 0.34826 0.0
C1853 C 0.08653 0.37784 0.3784 0.0
C1854 C 0.09537 0.39039 0.40442 0.0
C1855 C 0.09508 0.41078 0.39966 0.0
H1856 H 0.83937 0.0771 0.55497 0.0
H1857 H 0.86529 0.06612 0.65952 0.0
H1858 H 0.84094 0.11232 0.56575 0.0
H1859 H 0.86711 0.10166 0.67004 0.0
H1860 H 0.83731 0.16499 0.68481 0.0
H1861 H 0.83964 0.12941 0.67667 0.0
H1862 H 0.86973 0.13821 0.57444 0.0
H1863 H 0.86712 0.17377 0.58217 0.0
C1864 C 0.84549 0.08219 0.58024 0.0
C1865 C 0.85219 0.06881 0.60644 0.0
C1866 C 0.84655 0.10238 0.58627 0.0
C1867 C 0.8543 0.10967 0.61861 0.0
C1868 C 0.86098 0.09637 0.64492 0.0
C1869 C 0.85999 0.07607 0.63885 0.0
C1870 C 0.84455 0.15935 0.66067 0.0
C1871 C 0.85179 0.17219 0.63394 0.0
C1872 C 0.84603 0.13898 0.65617 0.0
C1873 C 0.85473 0.13112 0.62486 0.0
C1874 C 0.86264 0.14393 0.59864 0.0
C1875 C 0.86119 0.16428 0.60312 0.0
H1876 H 0.39459 0.16929 0.64987 0.0
H1877 H 0.42255 0.16206 0.54556 0.0
H1878 H 0.3957 0.13376 0.65826 0.0
H1879 H 0.42394 0.12648 0.55437 0.0
H1880 H 0.39686 0.06287 0.57231 0.0
H1881 H 0.39707 0.09837 0.56151 0.0
H1882 H 0.42504 0.10823 0.66495 0.0
H1883 H 0.42457 0.073 0.67606 0.0
C1884 C 0.40105 0.16015 0.62879 0.0
C1885 C 0.40852 0.16849 0.59709 0.0
C1886 C 0.40178 0.13983 0.63368 0.0
C1887 C 0.40999 0.12745 0.60699 0.0
C1888 C 0.41737 0.13572 0.57522 0.0
C1889 C 0.41668 0.15608 0.57032 0.0
C1890 C 0.40315 0.07262 0.59264 0.0
C1891 C 0.4105 0.06516 0.62513 0.0
C1892 C 0.40336 0.09289 0.5864 0.0
C1893 C 0.41088 0.10597 0.61255 0.0
C1894 C 0.41877 0.09846 0.64461 0.0
C1895 C 0.41858 0.07827 0.65085 0.0
H1896 H 0.1281 0.81165 0.3903 0.0
H1897 H 0.19237 0.81868 0.33784 0.0
H1898 H 0.12586 0.84751 0.39837 0.0
H1899 H 0.19025 0.8543 0.34671 0.0
H1900 H 0.18591 0.91139 0.41848 0.0
H1901 H 0.18707 0.87567 0.41018 0.0
H1902 H 0.12661 0.87856 0.34704 0.0
H1903 H 0.1256 0.91447 0.35456 0.0
C1904 C 0.14175 0.82084 0.38076 0.0
C1905 C 0.16038 0.81254 0.36345 0.0
C1906 C 0.14039 0.84122 0.38518 0.0
C1907 C 0.15789 0.85334 0.37303 0.0
C1908 C 0.17663 0.84505 0.35621 0.0
C1909 C 0.17778 0.82478 0.35112 0.0
C1910 C 0.17289 0.9044 0.40279 0.0
C1911 C 0.15569 0.91557 0.38705 0.0
C1912 C 0.17359 0.88408 0.39808 0.0
C1913 C 0.15686 0.87467 0.37819 0.0
C1914 C 0.13955 0.88571 0.36265 0.0
C1915 C 0.13909 0.90613 0.36674 0.0
H1916 H 0.58084 0.82423 0.42676 0.0
H1917 H 0.61203 0.81488 0.3252 0.0
H1918 H 0.58093 0.85957 0.41654 0.0
H1919 H 0.61236 0.85042 0.31536 0.0
H1920 H 0.58522 0.91333 0.29794 0.0
H1921 H 0.58476 0.87779 0.30655 0.0
H1922 H 0.61032 0.88557 0.41206 0.0
H1923 H 0.61048 0.92117 0.40385 0.0
C1924 C 0.58772 0.8297 0.40226 0.0
C1925 C 0.59653 0.81679 0.37682 0.0
C1926 C 0.58787 0.84993 0.39655 0.0
C1927 C 0.59682 0.85762 0.36534 0.0
C1928 C 0.60525 0.84477 0.33957 0.0
C1929 C 0.60512 0.82448 0.34527 0.0
C1930 C 0.59075 0.90748 0.32299 0.0
C1931 C 0.59782 0.92003 0.3503 0.0
C1932 C 0.5906 0.88715 0.32778 0.0
C1933 C 0.59746 0.87906 0.35994 0.0
C1934 C 0.60468 0.89154 0.38715 0.0
C1935 C 0.60487 0.91188 0.38238 0.0
H1936 H 0.80684 0.56268 0.11776 0.0
H1937 H 0.87408 0.55524 0.1598 0.0
H1938 H 0.80895 0.59808 0.12943 0.0
H1939 H 0.87638 0.5909 0.17057 0.0
H1940 H 0.87571 0.65591 0.11759 0.0
H1941 H 0.87378 0.61981 0.11776 0.0
H1942 H 0.8163 0.62212 0.1873 0.0
H1943 H 0.81841 0.65813 0.18788 0.0
C1944 C 0.8219 0.56863 0.13002 0.0
C1945 C 0.84033 0.55642 0.13786 0.0
C1946 C 0.82307 0.58877 0.13671 0.0
C1947 C 0.84286 0.59697 0.15061 0.0
C1948 C 0.86101 0.58471 0.15974 0.0
C1949 C 0.85963 0.56443 0.15381 0.0
C1950 C 0.86271 0.64868 0.13292 0.0
C1951 C 0.84715 0.65971 0.15259 0.0
C1952 C 0.86178 0.62814 0.13331 0.0
C1953 C 0.84503 0.61845 0.15283 0.0
C1954 C 0.82941 0.62942 0.17232 0.0
C1955 C 0.83062 0.64993 0.17252 0.0
H1956 H 0.38119 0.56204 0.08983 0.0
H1957 H 0.44249 0.56671 0.15104 0.0
H1958 H 0.3816 0.59793 0.08076 0.0
H1959 H 0.4431 0.60232 0.14109 0.0
H1960 H 0.44191 0.66058 0.06759 0.0
H1961 H 0.44179 0.62464 0.07349 0.0
H1962 H 0.38282 0.62808 0.13972 0.0
H1963 H 0.38312 0.66415 0.13469 0.0
C1964 C 0.39488 0.5707 0.10077 0.0
C1965 C 0.41175 0.5618 0.12121 0.0
C1966 C 0.39502 0.59108 0.09577 0.0
C1967 C 0.41233 0.60253 0.11045 0.0
C1968 C 0.42964 0.59357 0.12969 0.0
C1969 C 0.42924 0.57333 0.13534 0.0
C1970 C 0.42898 0.65366 0.08353 0.0
C1971 C 0.41255 0.66501 0.10081 0.0
C1972 C 0.42893 0.63322 0.08676 0.0
C1973 C 0.41216 0.62394 0.10666 0.0
C1974 C 0.39573 0.63517 0.12399 0.0
C1975 C 0.39605 0.65567 0.12138 0.0
H1976 H 0.17181 0.41987 0.83437 0.0
H1977 H 0.1488 0.40845 0.94012 0.0
H1978 H 0.17513 0.38448 0.82398 0.0
H1979 H 0.15056 0.37323 0.92928 0.0
H1980 H 0.17228 0.31093 0.9114 0.0
H1981 H 0.17441 0.34638 0.92171 0.0
H1982 H 0.15257 0.35691 0.81469 0.0
H1983 H 0.15201 0.32165 0.80404 0.0
C1984 C 0.16725 0.40972 0.85518 0.0
C1985 C 0.16007 0.41671 0.88796 0.0
C1986 C 0.16903 0.38949 0.84928 0.0
C1987 C 0.16308 0.37599 0.8758 0.0
C1988 C 0.15581 0.38315 0.90854 0.0
C1989 C 0.15458 0.40332 0.91468 0.0
C1990 C 0.1681 0.32093 0.89018 0.0
C1991 C 0.16198 0.31372 0.85702 0.0
C1992 C 0.16919 0.3412 0.89604 0.0
C1993 C 0.16357 0.35452 0.86905 0.0
C1994 C 0.15749 0.34715 0.83585 0.0
C1995 C 0.15697 0.32694 0.8298 0.0
H1996 H 0.55871 0.31966 0.88409 0.0
H1997 H 0.62298 0.31352 0.8315 0.0
H1998 H 0.55958 0.3552 0.87364 0.0
H1999 H 0.62408 0.34934 0.82192 0.0
H2000 H 0.62467 0.41477 0.87407 0.0
H2001 H 0.62386 0.37863 0.87528 0.0
H2002 H 0.56256 0.37884 0.81394 0.0
H2003 H 0.56349 0.41485 0.81196 0.0
C2004 C 0.57287 0.32595 0.86996 0.0
C2005 C 0.59081 0.31403 0.8586 0.0
C2006 C 0.57333 0.34616 0.86398 0.0
C2007 C 0.59194 0.35474 0.84724 0.0
C2008 C 0.60963 0.34284 0.83499 0.0
C2009 C 0.60892 0.32249 0.84024 0.0
C2010 C 0.61105 0.40707 0.86087 0.0
C2011 C 0.5941 0.4175 0.84305 0.0
C2012 C 0.61075 0.38651 0.86126 0.0
C2013 C 0.59325 0.37624 0.84443 0.0
C2014 C 0.57623 0.38661 0.82685 0.0
C2015 C 0.57678 0.40712 0.82584 0.0
H2016 H 0.26074 0.01722 0.03329 0.0
H2017 H 0.27646 0.95897 0.99427 0.0
H2018 H 0.22824 0.01881 0.99394 0.0
H2019 H 0.24393 0.96073 0.95447 0.0
H2020 H 0.19768 0.98389 0.86234 0.0
H2021 H 0.23126 0.98236 0.90025 0.0
H2022 H 0.19082 -0.00014 0.98929 0.0
H2023 H 0.15746 0.00115 0.95193 0.0
C2024 C 0.25723 0.00472 0.01638 0.0
C2025 C 0.27111 0.98791 0.01706 0.0
C2026 C 0.23862 0.00565 0.99386 0.0
C2027 C 0.23364 0.98994 0.97107 0.0
C2028 C 0.24752 0.97313 0.97157 0.0
C2029 C 0.26597 0.97205 0.99458 0.0
C2030 C 0.19605 0.98754 0.88995 0.0
C2031 C 0.17493 -0.00737 0.90413 0.0
C2032 C 0.21519 0.98651 0.91165 0.0
C2033 C 0.21359 0.99096 0.9477 0.0
C2034 C 0.19257 -0.00355 0.96159 0.0
C2035 C 0.17347 -0.00287 0.94016 0.0
H2036 H 0.05745 0.22788 0.86485 0.0
H2037 H 0.0951 0.25609 0.9483 0.0
H2038 H 0.02367 0.22828 0.90166 0.0
H2039 H 0.06156 0.25615 0.98507 0.0
H2040 H 0.99134 0.27071 0.0283 0.0
H2041 H 0.0245 0.2714 0.99025 0.0
H2042 H 0.00937 0.21233 0.95474 0.0
H2043 H 0.97611 0.21172 0.9922 0.0
C2044 C 0.05855 0.23417 0.89098 0.0
C2045 C 0.07904 0.24192 0.90355 0.0
C2046 C 0.03921 0.23429 0.91217 0.0
C2047 C 0.03991 0.24222 0.94637 0.0
C2048 C 0.06033 0.25015 0.95874 0.0
C2049 C 0.07963 0.24999 0.93765 0.0
C2050 C 0.99511 0.25785 0.01246 0.0
C2051 C 0.98102 0.24116 0.01341 0.0
C2052 C 0.01417 0.25822 0.9907 0.0
C2053 C 0.01956 0.24194 0.96933 0.0
C2054 C 0.00553 0.22524 0.97042 0.0
C2055 C 0.98653 0.22484 0.99219 0.0
H2056 H 0.27848 0.21161 0.24746 0.0
H2057 H 0.26586 0.27182 0.21589 0.0
H2058 H 0.2449 0.2123 0.28432 0.0
H2059 H 0.23235 0.27255 0.25324 0.0
H2060 H 0.16063 0.25832 0.29303 0.0
H2061 H 0.19446 0.25826 0.25664 0.0
H2062 H 0.2307 0.2274 0.3383 0.0
H2063 H 0.19676 0.2272 0.37463 0.0
C2064 C 0.26858 0.22503 0.24838 0.0
C2065 C 0.27493 0.24166 0.22858 0.0
C2066 C 0.24938 0.22546 0.26977 0.0
C2067 C 0.23592 0.24249 0.27187 0.0
C2068 C 0.24219 0.25911 0.25199 0.0
C2069 C 0.26148 0.25872 0.23068 0.0
C2070 C 0.17579 0.25152 0.30332 0.0
C2071 C 0.17588 0.24271 0.33683 0.0
C2072 C 0.19526 0.25161 0.28248 0.0
C2073 C 0.21533 0.24281 0.29448 0.0
C2074 C 0.21547 0.23409 0.32804 0.0
C2075 C 0.19601 0.23408 0.34898 0.0
H2076 H 0.96859 0.01738 0.25408 0.0
H2077 H 0.98473 0.95806 0.22088 0.0
H2078 H 0.00215 0.01785 0.29119 0.0
H2079 H 0.01811 0.95848 0.25844 0.0
H2080 H 0.08922 0.97555 0.29415 0.0
H2081 H 0.05473 0.97474 0.25969 0.0
H2082 H 0.01882 0.0033 0.34436 0.0
H2083 H 0.05363 0.00438 0.379 0.0
C2084 C 0.97921 0.00438 0.2548 0.0
C2085 C 0.97397 0.98771 0.23426 0.0
C2086 C 0.99839 0.00462 0.27632 0.0
C2087 C 0.01289 0.98824 0.27775 0.0
C2088 C 0.00748 0.97147 0.2576 0.0
C2089 C 0.98826 0.97119 0.23617 0.0
C2090 C 0.07403 0.9817 0.30557 0.0
C2091 C 0.07429 0.99005 0.33946 0.0
C2092 C 0.05415 0.98108 0.28582 0.0
C2093 C 0.03394 0.98884 0.29928 0.0
C2094 C 0.03414 -0.00269 0.33309 0.0
C2095 C 0.05408 -0.00213 0.353 0.0
H2096 H 0.84713 0.98143 0.0294 0.0
H2097 H 0.8056 -0.00772 0.12072 0.0
H2098 H 0.81374 0.98321 0.99182 0.0
H2099 H 0.77217 -0.00552 0.08274 0.0
H2100 H 0.72697 0.02165 0.99197 0.0
H2101 H 0.76003 0.01921 0.03054 0.0
H2102 H 0.77598 0.96238 0.98596 0.0
H2103 H 0.74274 0.96454 0.94797 0.0
C2104 C 0.83085 0.98417 0.04145 0.0
C2105 C 0.82897 0.9867 0.07803 0.0
C2106 C 0.81178 0.98514 0.01993 0.0
C2107 C 0.79047 0.98907 0.03441 0.0
C2108 C 0.78849 0.99156 0.07097 0.0
C2109 C 0.80755 0.99016 0.09266 0.0
C2110 C 0.73763 0.00871 0.99025 0.0
C2111 C 0.73233 -0.00669 0.96689 0.0
C2112 C 0.75639 0.00725 0.01252 0.0
C2113 C 0.77043 0.99057 0.01125 0.0
C2114 C 0.76541 0.97539 0.98738 0.0
C2115 C 0.74642 0.97665 0.96569 0.0
H2116 H 0.02757 0.76615 0.99172 0.0
H2117 H 0.01663 0.70602 0.95796 0.0
H2118 H 0.99447 0.76426 0.02906 0.0
H2119 H 0.98345 0.70405 -0.00386 0.0
H2120 H 0.91209 0.71633 0.04098 0.0
H2121 H 0.94518 0.71692 0.00297 0.0
H2122 H 0.98224 0.74865 0.08282 0.0
H2123 H 0.94904 0.74843 0.12062 0.0
C2124 C 0.01813 0.75247 0.99223 0.0
C2125 C 0.02488 0.7362 0.97177 0.0
C2126 C 0.99918 0.75136 0.01396 0.0
C2127 C 0.98638 0.73395 0.01595 0.0
C2128 C 0.99285 0.71774 -0.00491 0.0
C2129 C 0.0119 0.71884 0.97326 0.0
C2130 C 0.9273 0.72341 0.05053 0.0
C2131 C 0.9278 0.73244 0.08388 0.0
C2132 C 0.94634 0.72363 0.02875 0.0
C2133 C 0.96637 0.7329 0.0397 0.0
C2134 C 0.96698 0.74165 0.07327 0.0
C2135 C 0.94795 0.74143 0.09507 0.0
H2136 H 0.81248 0.73561 0.60939 0.0
H2137 H 0.84777 0.76117 0.69775 0.0
H2138 H 0.7779 0.73372 0.64488 0.0
H2139 H 0.81323 0.75966 0.73266 0.0
H2140 H 0.73933 0.77473 0.76526 0.0
H2141 H 0.77316 0.77621 0.72867 0.0
H2142 H 0.7658 0.71447 0.70378 0.0
H2143 H 0.73205 0.7128 0.74114 0.0
C2144 C 0.81281 0.741 0.6362 0.0
C2145 C 0.83288 0.74856 0.65072 0.0
C2146 C 0.79308 0.73977 0.65655 0.0
C2147 C 0.79291 0.74652 0.69153 0.0
C2148 C 0.81284 0.75442 0.70576 0.0
C2149 C 0.83263 0.75524 0.68574 0.0
C2150 C 0.7449 0.76143 0.75208 0.0
C2151 C 0.733 0.74362 0.75625 0.0
C2152 C 0.76431 0.7623 0.73118 0.0
C2153 C 0.77207 0.74548 0.7133 0.0
C2154 C 0.76009 0.72769 0.71708 0.0
C2155 C 0.74089 0.72671 0.73865 0.0
H2156 H 0.91049 0.98266 0.6953 0.0
H2157 H 0.95042 1e-05 0.60554 0.0
H2158 H 0.94444 0.98224 0.7318 0.0
H2159 H 0.98446 0.00014 0.64266 0.0
H2160 H 0.02854 0.02242 0.74224 0.0
H2161 H 0.99577 0.02193 0.70268 0.0
H2162 H 0.98366 0.961 0.72915 0.0
H2163 H 0.01667 0.96124 0.76784 0.0
C2164 C 0.92654 0.98637 0.68336 0.0
C2165 C 0.9278 0.99134 0.64753 0.0
C2166 C 0.94594 0.98609 0.70426 0.0
C2167 C 0.96698 0.99123 0.69004 0.0
C2168 C 0.96836 -0.00379 0.65423 0.0
C2169 C 0.94897 -0.00399 0.633 0.0
C2170 C 0.01886 0.00894 0.73963 0.0
C2171 C 0.02515 -0.00812 0.75824 0.0
C2172 C 1.00026 0.00863 0.71681 0.0
C2173 C 0.98731 0.9914 0.71284 0.0
C2174 C 0.99341 0.97445 0.73175 0.0
C2175 C 0.01228 0.97461 0.75388 0.0
H2176 H 0.25575 0.51636 0.5393 0.0
H2177 H 0.27337 0.45757 0.50545 0.0
H2178 H 0.22199 0.51538 0.50241 0.0
H2179 H 0.23968 0.45685 0.46755 0.0
H2180 H 0.19341 0.48138 0.37232 0.0
H2181 H 0.22658 0.47949 0.411 0.0
H2182 H 0.18466 0.4931 0.50042 0.0
H2183 H 0.15153 0.49453 0.46225 0.0
C2184 C 0.25232 0.50317 0.52411 0.0
C2185 C 0.26717 0.487 0.5254 0.0
C2186 C 0.233 0.50262 0.50301 0.0
C2187 C 0.2283 0.48609 0.48201 0.0
C2188 C 0.24301 0.46982 0.48337 0.0
C2189 C 0.26213 0.47016 0.50525 0.0
C2190 C 0.19129 0.48393 0.40024 0.0
C2191 C 0.16982 0.48815 0.41417 0.0
C2192 C 0.21022 0.48269 0.42236 0.0
C2193 C 0.20814 0.4861 0.45869 0.0
C2194 C 0.18674 0.49041 0.47253 0.0
C2195 C 0.16778 0.49121 0.45063 0.0
H2196 H 0.06235 0.74714 0.35728 0.0
H2197 H 0.09806 0.72767 0.44994 0.0
H2198 H 0.0272 0.74885 0.39159 0.0
H2199 H 0.06311 0.72899 0.48369 0.0
H2200 H 0.99093 0.71331 0.52012 0.0
H2201 H 0.02432 0.71087 0.48275 0.0
H2202 H 0.01355 0.77042 0.44666 0.0
H2203 H 0.98021 0.77308 0.48463 0.0
C2204 C 0.06264 0.74298 0.38476 0.0
C2205 C 0.08298 0.73728 0.40089 0.0
C2206 C 0.0426 0.74411 0.40442 0.0
C2207 C 0.04245 0.73908 0.44031 0.0
C2208 C 0.06267 0.73286 0.45607 0.0
C2209 C 0.0827 0.73216 0.43672 0.0
C2210 C 0.99562 0.72591 0.50424 0.0
C2211 C 0.98294 0.74344 0.50555 0.0
C2212 C 0.01477 0.7245 0.48286 0.0
C2213 C 0.02149 0.74043 0.46172 0.0
C2214 C 0.00864 0.75786 0.46247 0.0
C2215 C 0.98968 0.75942 0.48443 0.0
H2216 H 0.28478 0.77024 0.75804 0.0
H2217 H 0.26939 0.71225 0.71749 0.0
H2218 H 0.25097 0.7688 0.79526 0.0
H2219 H 0.23534 0.71115 0.7539 0.0
H2220 H 0.1628 0.73499 0.78766 0.0
H2221 H 0.19781 0.73489 0.75365 0.0
H2222 H 0.23618 0.74369 0.84876 0.0
H2223 H 0.20106 0.74319 0.88324 0.0
C2224 C 0.27415 0.75725 0.75697 0.0
C2225 C 0.27972 0.74137 0.73478 0.0
C2226 C 0.25493 0.75638 0.77842 0.0
C2227 C 0.24065 0.73985 0.77744 0.0
C2228 C 0.24611 0.72406 0.75512 0.0
C2229 C 0.26559 0.7247 0.73434 0.0
C2230 C 0.1787 0.73677 0.80141 0.0
C2231 C 0.17918 0.73908 0.83815 0.0
C2232 C 0.19871 0.73666 0.78192 0.0
C2233 C 0.21962 0.73934 0.79861 0.0
C2234 C 0.22021 0.74167 0.83532 0.0
C2235 C 0.20018 0.74128 0.855 0.0
H2236 H 0.05419 0.49773 0.88413 0.0
H2237 H 0.09203 0.47566 0.79533 0.0
H2238 H 0.01984 0.49725 0.84885 0.0
H2239 H 0.05773 0.47556 0.75991 0.0
H2240 H 0.98719 0.4625 0.71452 0.0
H2241 H 0.02088 0.45995 0.75162 0.0
H2242 H 0.0042 0.51561 0.8004 0.0
H2243 H 0.97064 0.51799 0.76416 0.0
C2244 C 0.05522 0.49277 0.85711 0.0
C2245 C 0.07598 0.48685 0.84261 0.0
C2246 C 0.03551 0.49258 0.83679 0.0
C2247 C 0.03599 0.48648 0.8014 0.0
C2248 C 0.05665 0.48016 0.78712 0.0
C2249 C 0.07638 0.48036 0.80744 0.0
C2250 C 0.9907 0.47414 0.73325 0.0
C2251 C 0.97613 0.49044 0.73625 0.0
C2252 C 0.01007 0.47273 0.75442 0.0
C2253 C 0.01524 0.48754 0.77916 0.0
C2254 C 1.0006 0.50375 0.78214 0.0
C2255 C 0.98137 0.50518 0.76104 0.0
H2256 H 0.738 0.52697 0.46428 0.0
H2257 H 0.72592 0.46735 0.49969 0.0
H2258 H 0.77081 0.52906 0.50307 0.0
H2259 H 0.7588 0.46933 0.53776 0.0
H2260 H 0.80576 0.48565 0.62807 0.0
H2261 H 0.77212 0.48517 0.59096 0.0
H2262 H 0.80865 0.51582 0.50935 0.0
H2263 H 0.84205 0.51665 0.54651 0.0
C2264 C 0.74237 0.51428 0.48015 0.0
C2265 C 0.72926 0.497 0.47876 0.0
C2266 C 0.76124 0.51545 0.50233 0.0
C2267 C 0.76744 0.49938 0.5237 0.0
C2268 C 0.75434 0.48211 0.52218 0.0
C2269 C 0.73555 0.48093 0.50004 0.0
C2270 C 0.8066 0.49237 0.60229 0.0
C2271 C 0.8267 0.50114 0.59035 0.0
C2272 C 0.78733 0.492 0.5809 0.0
C2273 C 0.78766 0.50041 0.54706 0.0
C2274 C 0.80766 0.50941 0.53537 0.0
C2275 C 0.82691 0.50976 0.55668 0.0
H2276 H 0.03615 0.26735 0.51582 0.0
H2277 H 0.01562 0.21154 0.47107 0.0
H2278 H 1.00153 0.26844 0.55023 0.0
H2279 H 0.98107 0.21253 0.50602 0.0
H2280 H 0.91053 0.23383 0.53814 0.0
H2281 H 0.9462 0.23151 0.50702 0.0
H2282 H 0.98131 0.25285 0.59902 0.0
H2283 H 0.94535 0.25546 0.63032 0.0
C2284 C 0.02435 0.25521 0.51347 0.0
C2285 C 0.02868 0.2394 0.49042 0.0
C2286 C 0.00453 0.2558 0.53345 0.0
C2287 C 0.98844 0.24062 0.53086 0.0
C2288 C 0.99295 0.22461 0.50832 0.0
C2289 C 0.01284 0.22399 0.4884 0.0
C2290 C 0.9258 0.23807 0.55189 0.0
C2291 C 0.92497 0.2449 0.58684 0.0
C2292 C 0.94634 0.23656 0.53403 0.0
C2293 C 0.96669 0.24187 0.55051 0.0
C2294 C 0.96593 0.24876 0.58543 0.0
C2295 C 0.94532 0.25021 0.60343 0.0
H2296 H 0.74163 0.26877 0.27839 0.0
H2297 H 0.72331 0.21244 0.23357 0.0
H2298 H 0.7761 0.26909 0.243 0.0
H2299 H 0.75763 0.2131 0.19739 0.0
H2300 H 0.80777 0.23947 0.11064 0.0
H2301 H 0.7731 0.2385 0.14598 0.0
H2302 H 0.81261 0.24488 0.24058 0.0
H2303 H 0.84724 0.24531 0.2056 0.0
C2304 C 0.74496 0.25647 0.26096 0.0
C2305 C 0.7298 0.24054 0.25884 0.0
C2306 C 0.76468 0.25666 0.24078 0.0
C2307 C 0.76941 0.24117 0.21743 0.0
C2308 C 0.75425 0.22527 0.21508 0.0
C2309 C 0.73475 0.22484 0.23593 0.0
C2310 C 0.80902 0.24072 0.13897 0.0
C2311 C 0.83022 0.24247 0.15535 0.0
C2312 C 0.78923 0.24003 0.15913 0.0
C2313 C 0.79027 0.24157 0.19594 0.0
C2314 C 0.81139 0.24369 0.21224 0.0
C2315 C 0.83117 0.24391 0.19221 0.0
H2316 H 0.94335 0.50372 0.11122 0.0
H2317 H 0.91137 0.47221 0.19634 0.0
H2318 H 0.97836 0.50577 0.1459 0.0
H2319 H 0.94617 0.47397 0.23033 0.0
H2320 H 0.01981 0.46083 0.26044 0.0
H2321 H 0.98651 0.45962 0.2229 0.0
H2322 H 0.99055 0.52253 0.2073 0.0
H2323 H 0.02396 0.52389 0.24557 0.0
C2324 C 0.94385 0.49708 0.13709 0.0
C2325 C 0.92459 0.48778 0.151 0.0
C2326 C 0.9638 0.4984 0.157 0.0
C2327 C 0.96495 0.49004 0.1908 0.0
C2328 C 0.94582 0.48046 0.20431 0.0
C2329 C 0.92586 0.4795 0.18483 0.0
C2330 C 0.0137 0.47445 0.24904 0.0
C2331 C 0.02453 0.49249 0.2562 0.0
C2332 C 0.99458 0.47373 0.22756 0.0
C2333 C 0.98596 0.49097 0.21216 0.0
C2334 C 0.99696 0.509 0.21866 0.0
C2335 C 0.01594 0.50979 0.24076 0.0
H2336 H 0.77955 0.02587 0.49023 0.0
H2337 H 0.76599 0.9655 0.51984 0.0
H2338 H 0.74512 0.02638 0.45522 0.0
H2339 H 0.73168 0.96595 0.48432 0.0
H2340 H 0.65987 0.98093 0.44877 0.0
H2341 H 0.69428 0.98075 0.48367 0.0
H2342 H 0.72897 0.01255 0.40151 0.0
H2343 H 0.69433 0.013 0.36661 0.0
C2344 C 0.76926 0.01268 0.48929 0.0
C2345 C 0.7756 -0.00435 0.50802 0.0
C2346 C 0.74956 0.01294 0.46895 0.0
C2347 C 0.73559 -0.00379 0.46685 0.0
C2348 C 0.74188 0.97919 0.48564 0.0
C2349 C 0.76164 0.9789 0.50592 0.0
C2350 C 0.67479 0.98794 0.43806 0.0
C2351 C 0.67424 -0.00301 0.40476 0.0
C2352 C 0.69461 0.98771 0.45805 0.0
C2353 C 0.71447 -0.00344 0.44541 0.0
C2354 C 0.71393 0.00575 0.41223 0.0
C2355 C 0.69408 0.00593 0.39213 0.0
H2356 H 0.48998 0.27391 0.52289 0.0
H2357 H 0.46769 0.22053 0.47133 0.0
H2358 H 0.52343 0.27454 0.4853 0.0
H2359 H 0.50115 0.22106 0.43423 0.0
H2360 H 0.55449 0.23756 0.35185 0.0
H2361 H 0.51965 0.23915 0.38633 0.0
H2362 H 0.55816 0.25555 0.47822 0.0
H2363 H 0.59273 0.25421 0.44402 0.0
C2364 C 0.49216 0.26233 0.50355 0.0
C2365 C 0.47614 0.24713 0.50036 0.0
C2366 C 0.5114 0.26264 0.48208 0.0
C2367 C 0.51504 0.24782 0.45673 0.0
C2368 C 0.4988 0.23283 0.45314 0.0
C2369 C 0.47966 0.23246 0.47469 0.0
C2370 C 0.5555 0.24156 0.37937 0.0
C2371 C 0.57649 0.24569 0.39507 0.0
C2372 C 0.53554 0.2424 0.39919 0.0
C2373 C 0.53607 0.24752 0.43509 0.0
C2374 C 0.55703 0.25183 0.45058 0.0
C2375 C 0.57693 0.25089 0.43092 0.0
H2376 H 0.77255 0.2779 0.73345 0.0
H2377 H 0.76144 0.21702 0.70477 0.0
H2378 H 0.73978 0.27649 0.77292 0.0
H2379 H 0.72867 0.21578 0.74358 0.0
H2380 H 0.65647 0.23116 0.78239 0.0
H2381 H 0.68971 0.23286 0.74482 0.0
H2382 H 0.72849 0.25677 0.83092 0.0
H2383 H 0.69506 0.25478 0.8691 0.0
C2384 C 0.76299 0.26432 0.73524 0.0
C2385 C 0.76954 0.2476 0.71584 0.0
C2386 C 0.7444 0.26346 0.75809 0.0
C2387 C 0.73174 0.246 0.76141 0.0
C2388 C 0.73806 0.22945 0.7415 0.0
C2389 C 0.75683 0.23018 0.71926 0.0
C2390 C 0.67209 0.2367 0.79348 0.0
C2391 C 0.67311 0.2428 0.82881 0.0
C2392 C 0.69114 0.23763 0.77192 0.0
C2393 C 0.71167 0.24501 0.78487 0.0
C2394 C 0.71282 0.25115 0.82019 0.0
C2395 C 0.69377 0.24985 0.84209 0.0
H2396 H 0.47168 0.02131 0.75386 0.0
H2397 H 0.48928 0.96332 0.71538 0.0
H2398 H 0.50576 0.02169 0.78991 0.0
H2399 H 0.52319 0.96367 0.75174 0.0
H2400 H 0.59413 0.9818 0.78673 0.0
H2401 H 0.5593 0.98118 0.7531 0.0
H2402 H 0.52328 0.00557 0.84169 0.0
H2403 H 0.55842 0.00642 0.87559 0.0
C2404 C 0.48277 0.00861 0.75311 0.0
C2405 C 0.47775 -0.00768 0.7315 0.0
C2406 C 0.50223 0.00879 0.77402 0.0
C2407 C 0.51724 -0.00726 0.77368 0.0
C2408 C 0.51213 0.97639 0.75229 0.0
C2409 C 0.49262 0.97616 0.73153 0.0
C2410 C 0.57884 0.98706 0.79922 0.0
C2411 C 0.57916 -0.00582 0.83399 0.0
C2412 C 0.55879 0.98656 0.77991 0.0
C2413 C 0.53846 -0.00677 0.79471 0.0
C2414 C 0.5387 0.00045 0.82942 0.0
C2415 C 0.55882 0.00085 0.84891 0.0
H2416 H 0.21983 0.96438 0.50764 0.0
H2417 H 0.23743 0.02099 0.46327 0.0
H2418 H 0.25424 0.96477 0.54251 0.0
H2419 H 0.27181 0.0215 0.4988 0.0
H2420 H 0.34295 0.00439 0.53711 0.0
H2421 H 0.30812 0.00495 0.50312 0.0
H2422 H 0.2718 0.98125 0.59199 0.0
H2423 H 0.30676 0.98035 0.62591 0.0
C2424 C 0.23098 0.97698 0.50539 0.0
C2425 C 0.2258 -0.00735 0.48248 0.0
C2426 C 0.25069 0.97726 0.52565 0.0
C2427 C 0.26584 -0.00682 0.52359 0.0
C2428 C 0.26066 0.00889 0.50078 0.0
C2429 C 0.24087 0.00865 0.48052 0.0
C2430 C 0.32756 -0.00071 0.5495 0.0
C2431 C 0.32776 -0.00774 0.58432 0.0
C2432 C 0.30751 -0.00025 0.53002 0.0
C2433 C 0.28709 -0.00683 0.54475 0.0
C2434 C 0.28725 0.98622 0.57962 0.0
C2435 C 0.30731 0.98579 0.59916 0.0
H2436 H 0.45014 0.73063 0.62745 0.0
H2437 H 0.4135 0.75749 0.54179 0.0
H2438 H 0.48417 0.72927 0.59051 0.0
H2439 H 0.4475 0.75657 0.50552 0.0
H2440 H 0.52161 0.77314 0.47388 0.0
H2441 H 0.48821 0.77358 0.5115 0.0
H2442 H 0.49455 0.7109 0.52794 0.0
H2443 H 0.52784 0.71028 0.4894 0.0
C2444 C 0.44941 0.7364 0.60093 0.0
C2445 C 0.42915 0.74418 0.58755 0.0
C2446 C 0.4688 0.73548 0.57976 0.0
C2447 C 0.4684 0.74278 0.54518 0.0
C2448 C 0.44827 0.75088 0.53209 0.0
C2449 C 0.42882 0.75137 0.55288 0.0
C2450 C 0.51588 0.75942 0.48539 0.0
C2451 C 0.52734 0.74166 0.47854 0.0
C2452 C 0.49675 0.75969 0.50689 0.0
C2453 C 0.48889 0.7423 0.52271 0.0
C2454 C 0.50039 0.72453 0.51622 0.0
C2455 C 0.5193 0.72417 0.49398 0.0
H2456 H 0.3529 0.74408 0.20384 0.0
H2457 H 0.30904 0.73289 0.1153 0.0
H2458 H 0.3204 0.74315 0.24335 0.0
H2459 H 0.27648 0.73143 0.15531 0.0
H2460 H 0.23272 0.70694 0.2516 0.0
H2461 H 0.26518 0.70746 0.2114 0.0
H2462 H 0.28284 0.76561 0.24834 0.0
H2463 H 0.25018 0.76539 0.28768 0.0
C2464 C 0.33631 0.74138 0.19281 0.0
C2465 C 0.33353 0.7386 0.1564 0.0
C2466 C 0.31774 0.74087 0.21546 0.0
C2467 C 0.296 0.73712 0.20238 0.0
C2468 C 0.29313 0.73421 0.16604 0.0
C2469 C 0.31169 0.73519 0.14318 0.0
C2470 C 0.24366 0.71974 0.25133 0.0
C2471 C 0.23895 0.73609 0.27289 0.0
C2472 C 0.26207 0.7201 0.22813 0.0
C2473 C 0.2764 0.73661 0.22671 0.0
C2474 C 0.27205 0.75271 0.24894 0.0
C2475 C 0.25338 0.75255 0.27145 0.0
H2476 H 0.53346 0.96766 0.22847 0.0
H2477 H 0.51024 0.02127 0.27819 0.0
H2478 H 0.49947 0.96684 0.19247 0.0
H2479 H 0.47631 0.02054 0.24172 0.0
H2480 H 0.4073 -0.00104 0.2026 0.0
H2481 H 0.44205 0.00076 0.23629 0.0
H2482 H 0.48014 0.98406 0.14422 0.0
H2483 H 0.4451 0.98199 0.11025 0.0
C2484 C 0.52116 0.97934 0.23169 0.0
C2485 C 0.5246 -0.00551 0.25647 0.0
C2486 C 0.50172 0.97893 0.21078 0.0
C2487 C 0.48512 -0.0064 0.21417 0.0
C2488 C 0.48863 0.00887 0.23871 0.0
C2489 C 0.50814 0.00933 0.25954 0.0
C2490 C 0.42303 -0.00436 0.18936 0.0
C2491 C 0.42331 0.99027 0.15358 0.0
C2492 C 0.44303 -0.00316 0.20873 0.0
C2493 C 0.46393 -0.00735 0.193 0.0
C2494 C 0.4643 0.98723 0.15724 0.0
C2495 C 0.44422 0.98612 0.13772 0.0
H2496 H 0.65468 0.49166 0.9559 0.0
H2497 H 0.69723 0.49006 0.86376 0.0
H2498 H 0.6881 0.49036 0.99348 0.0
H2499 H 0.73075 0.48831 0.90166 0.0
H2500 H 0.77925 0.46047 0.98789 0.0
H2501 H 0.74616 0.4621 0.9492 0.0
H2502 H 0.7231 0.51402 0.00405 0.0
H2503 H 0.75634 0.51273 0.04216 0.0
C2504 C 0.67117 0.49101 0.94365 0.0
C2505 C 0.6733 0.49099 0.90681 0.0
C2506 C 0.69028 0.49032 0.9652 0.0
C2507 C 0.71196 0.48918 0.95047 0.0
C2508 C 0.71418 0.48906 0.91366 0.0
C2509 C 0.69504 0.4902 0.89202 0.0
C2510 C 0.76706 0.47217 0.99179 0.0
C2511 C 0.77038 0.48644 0.01815 0.0
C2512 C 0.74825 0.47318 0.96948 0.0
C2513 C 0.73214 0.48822 0.97361 0.0
C2514 C 0.73524 0.50226 0.00035 0.0
C2515 C 0.75427 0.50151 0.02212 0.0
H2516 H 0.56156 0.73173 0.85778 0.0
H2517 H 0.59691 0.75427 0.94874 0.0
H2518 H 0.52621 0.73232 0.89073 0.0
H2519 H 0.56164 0.75463 0.98167 0.0
H2520 H 0.49066 0.77118 0.01923 0.0
H2521 H 0.52522 0.77184 0.98426 0.0
H2522 H 0.50818 0.71511 0.93995 0.0
H2523 H 0.47357 0.7145 0.9745 0.0
C2524 C 0.56183 0.73679 0.88478 0.0
C2525 C 0.58216 0.74292 0.90055 0.0
C2526 C 0.54155 0.73704 0.90374 0.0
C2527 C 0.54104 0.74354 0.93888 0.0
C2528 C 0.56134 0.74978 0.95455 0.0
C2529 C 0.58162 0.74942 0.93569 0.0
C2530 C 0.4942 0.75889 0.0019 0.0
C2531 C 0.47928 0.74278 -0.0002 0.0
C2532 C 0.51411 0.75921 0.982 0.0
C2533 C 0.51954 0.7435 0.95933 0.0
C2534 C 0.50444 0.72755 0.95683 0.0
C2535 C 0.48462 0.72716 0.97686 0.0
H2536 H 0.6998 0.73431 0.38001 0.0
H2537 H 0.66381 0.75436 0.28786 0.0
H2538 H 0.73505 0.73487 0.34684 0.0
H2539 H 0.69888 0.75451 0.25467 0.0
H2540 H 0.76894 0.76946 0.21275 0.0
H2541 H 0.73476 0.77128 0.24853 0.0
H2542 H 0.75321 0.71686 0.30002 0.0
H2543 H 0.78743 0.71524 0.26501 0.0
C2544 C 0.69936 0.7388 0.3527 0.0
C2545 C 0.67889 0.74422 0.33666 0.0
C2546 C 0.71958 0.73905 0.33361 0.0
C2547 C 0.71985 0.74472 0.29801 0.0
C2548 C 0.69941 0.75033 0.28212 0.0
C2549 C 0.67922 0.75008 0.30117 0.0
C2550 C 0.76576 0.75794 0.23182 0.0
C2551 C 0.78098 0.74219 0.23587 0.0
C2552 C 0.74609 0.75893 0.25223 0.0
C2553 C 0.74118 0.7442 0.27719 0.0
C2554 C 0.75655 0.72861 0.28146 0.0
C2555 C 0.77616 0.72762 0.26112 0.0
H2556 H 0.47614 0.45931 0.24872 0.0
H2557 H 0.49008 0.51846 0.21262 0.0
H2558 H 0.50952 0.46082 0.28702 0.0
H2559 H 0.5236 0.51968 0.25007 0.0
H2560 H 0.59601 0.49885 0.28661 0.0
H2561 H 0.56193 0.49763 0.2505 0.0
H2562 H 0.522 0.48533 0.34272 0.0
H2563 H 0.55618 0.48707 0.37934 0.0
C2564 C 0.48642 0.47252 0.24872 0.0
C2565 C 0.48054 0.48875 0.22763 0.0
C2566 C 0.50536 0.47344 0.2708 0.0
C2567 C 0.51899 0.4904 0.2715 0.0
C2568 C 0.51333 0.50645 0.24998 0.0
C2569 C 0.49417 0.50573 0.22858 0.0
C2570 C 0.57996 0.496 0.29928 0.0
C2571 C 0.57875 0.4931 0.33583 0.0
C2572 C 0.56049 0.49533 0.2786 0.0
C2573 C 0.53944 0.49129 0.29386 0.0
C2574 C 0.53812 0.48835 0.33038 0.0
C2575 C 0.55759 0.48949 0.35128 0.0
H2576 H 0.30713 0.47907 0.13395 0.0
H2577 H 0.34171 0.50187 0.04257 0.0
H2578 H 0.2714 0.48009 0.10172 0.0
H2579 H 0.30619 0.5027 0.01053 0.0
H2580 H 0.23556 0.52049 0.97502 0.0
H2581 H 0.27008 0.52057 0.01006 0.0
H2582 H 0.25296 0.46322 0.05149 0.0
H2583 H 0.21834 0.46317 0.01676 0.0
C2584 C 0.30714 0.48429 0.10706 0.0
C2585 C 0.32735 0.49036 0.09091 0.0
C2586 C 0.28668 0.48479 0.08854 0.0
C2587 C 0.28593 0.49152 0.05357 0.0
C2588 C 0.3061 0.49768 0.03756 0.0
C2589 C 0.32653 0.49706 0.05592 0.0
C2590 C 0.23908 0.50792 0.9917 0.0
C2591 C 0.22417 0.49179 0.9929 0.0
C2592 C 0.25894 0.50793 0.01166 0.0
C2593 C 0.26432 0.49187 0.0335 0.0
C2594 C 0.24922 0.4759 0.03521 0.0
C2595 C 0.22943 0.47583 0.01508 0.0
H2596 H 0.40694 0.24791 0.03264 0.0
H2597 H 0.44716 0.23668 0.12523 0.0
H2598 H 0.44113 0.24813 -0.00331 0.0
H2599 H 0.4814 0.23643 0.08885 0.0
H2600 H 0.52935 0.21291 -0.00298 0.0
H2601 H 0.49583 0.21334 0.03488 0.0
H2602 H 0.4781 0.2708 -0.0051 0.0
H2603 H 0.51179 0.27066 0.95775 0.0
C2604 C 0.42308 0.24547 0.04532 0.0
C2605 C 0.42435 0.2423 0.08181 0.0
C2606 C 0.44263 0.24565 0.02473 0.0
C2607 C 0.46385 0.24224 0.04001 0.0
C2608 C 0.4652 0.23899 0.07644 0.0
C2609 C 0.44565 0.23926 0.09723 0.0
C2610 C 0.51828 0.22561 -0.0037 0.0
C2611 C 0.5232 0.24173 0.97435 0.0
C2612 C 0.49922 0.2259 0.01812 0.0
C2613 C 0.48445 0.24211 0.0178 0.0
C2614 C 0.4892 0.25811 -0.00443 0.0
C2615 C 0.5085 0.25802 0.97438 0.0
H2616 H 0.30647 0.25611 0.60985 0.0
H2617 H 0.34289 0.22764 0.69422 0.0
H2618 H 0.27189 0.25463 0.64474 0.0
H2619 H 0.30857 0.22653 0.7291 0.0
H2620 H 0.23851 0.21001 0.76896 0.0
H2621 H 0.2721 0.21039 0.73184 0.0
H2622 H 0.25548 0.26928 0.69719 0.0
H2623 H 0.22176 0.26879 0.73364 0.0
C2624 C 0.30715 0.24959 0.63581 0.0
C2625 C 0.32751 0.24201 0.64915 0.0
C2626 C 0.28733 0.24882 0.65589 0.0
C2627 C 0.28742 0.24042 0.68974 0.0
C2628 C 0.30778 0.23282 0.70297 0.0
C2629 C 0.32754 0.2336 0.68298 0.0
C2630 C 0.24199 0.22303 0.7534 0.0
C2631 C 0.22741 0.23937 0.75443 0.0
C2632 C 0.26132 0.22328 0.73221 0.0
C2633 C 0.26652 0.23988 0.71152 0.0
C2634 C 0.25185 0.25615 0.71239 0.0
C2635 C 0.23257 0.25591 0.73356 0.0
H2636 H 0.53132 0.47117 0.72909 0.0
H2637 H 0.51319 0.52663 0.77741 0.0
H2638 H 0.49728 0.47225 0.69357 0.0
H2639 H 0.4791 0.52787 0.74113 0.0
H2640 H 0.40803 0.51038 0.70223 0.0
H2641 H 0.44304 0.51129 0.73555 0.0
H2642 H 0.47924 0.48911 0.64527 0.0
H2643 H 0.44399 0.48784 0.61194 0.0
C2644 C 0.52015 0.4837 0.73204 0.0
C2645 C 0.52506 0.49879 0.75636 0.0
C2646 C 0.50064 0.48438 0.71135 0.0
C2647 C 0.48537 0.50015 0.71433 0.0
C2648 C 0.49034 0.51537 0.73838 0.0
C2649 C 0.50996 0.51472 0.7591 0.0
C2650 C 0.42343 0.50571 0.68932 0.0
C2651 C 0.42307 0.49893 0.65431 0.0
C2652 C 0.4436 0.50639 0.70846 0.0
C2653 C 0.46405 0.50029 0.69321 0.0
C2654 C 0.46378 0.49371 0.65806 0.0
C2655 C 0.44356 0.49305 0.63885 0.0
loop_
_geom_bond_atom_site_label_1
_geom_bond_atom_site_label_2
_geom_bond_distance
_geom_bond_site_symmetry_2
_ccdc_geom_bond_type
O0 Zn1 1.953 . S
O0 C16 1.225 . S
Zn1 O0 1.953 . S
Zn1 O2 1.949 1_565 S
Zn1 O8 1.919 . S
Zn1 O13 1.924 . S
O2 Zn1 1.949 1_545 S
O2 Zn3 1.923 1_545 S
O2 Zn4 1.950 . S
O2 Zn5 1.945 . S
Zn3 O2 1.923 1_565 S
Zn3 O6 1.933 . S
Zn3 O9 1.941 . S
Zn3 O10 1.972 . S
Zn4 O2 1.950 . S
Zn4 O11 1.938 . S
Zn4 O12 1.906 . S
Zn4 O22 1.953 . S
Zn5 O2 1.945 . S
Zn5 O7 1.932 . S
Zn5 O14 1.977 . S
Zn5 O15 1.910 . S
O6 Zn3 1.933 . S
O6 C17 1.226 1_565 S
O7 Zn5 1.932 . S
O7 C17 1.307 . S
O8 Zn1 1.919 . S
O8 C19 1.253 . S
O9 Zn3 1.941 . S
O9 C19 1.283 . S
O10 Zn3 1.972 . S
O10 C18 1.291 1_564 S
O11 Zn4 1.938 . S
O11 C18 1.245 1_554 S
O12 Zn4 1.906 . S
O12 C20 1.304 . S
O13 Zn1 1.924 . S
O13 C21 1.311 . S
O14 Zn5 1.977 . S
O14 C20 1.272 . S
O15 Zn5 1.910 . S
O15 C21 1.231 1_545 S
C16 O0 1.225 . S
C16 O22 1.298 1_565 S
C17 O6 1.226 1_545 S
C17 O7 1.307 . S
C18 O10 1.291 1_546 S
C18 O11 1.245 1_556 S
C19 O8 1.253 . S
C19 O9 1.283 . S
C20 O12 1.304 . S
C20 O14 1.272 . S
C21 O13 1.311 . S
C21 O15 1.231 1_565 S
O22 Zn4 1.953 . S
O22 C16 1.298 1_545 S
O23 Zn24 1.953 . S
O23 C39 1.225 . S
Zn24 O23 1.953 . S
Zn24 O25 1.949 . S
Zn24 O31 1.919 . S
Zn24 O36 1.924 . S
O25 Zn24 1.949 . S
O25 Zn26 1.923 . S
O25 Zn27 1.950 . S
O25 Zn28 1.945 . S
Zn26 O25 1.923 . S
Zn26 O29 1.933 . S
Zn26 O32 1.941 . S
Zn26 O33 1.965 . S
Zn27 O25 1.950 . S
Zn27 O34 1.938 . S
Zn27 O35 1.906 . S
Zn27 O45 1.953 . S
Zn28 O25 1.945 . S
Zn28 O30 1.932 . S
Zn28 O37 1.977 . S
Zn28 O38 1.910 . S
O29 Zn26 1.933 . S
O29 C40 1.226 . S
O30 Zn28 1.932 . S
O30 C40 1.307 . S
O31 Zn24 1.919 . S
O31 C42 1.253 . S
O32 Zn26 1.941 . S
O32 C42 1.283 . S
O33 Zn26 1.965 . S
O33 C41 1.300 1_554 S
O34 Zn27 1.938 . S
O34 C41 1.246 1_554 S
O35 Zn27 1.906 . S
O35 C43 1.304 . S
O36 Zn24 1.924 . S
O36 C44 1.311 . S
O37 Zn28 1.977 . S
O37 C43 1.272 . S
O38 Zn28 1.910 . S
O38 C44 1.231 . S
C39 O23 1.225 . S
C39 O45 1.298 . S
C40 O29 1.226 . S
C40 O30 1.307 . S
C41 O33 1.300 1_556 S
C41 O34 1.246 1_556 S
C42 O31 1.253 . S
C42 O32 1.283 . S
C43 O35 1.304 . S
C43 O37 1.272 . S
C44 O36 1.311 . S
C44 O38 1.231 . S
O45 Zn27 1.953 . S
O45 C39 1.298 . S
O46 Zn47 1.953 . S
O46 C62 1.225 . S
Zn47 O46 1.953 . S
Zn47 O48 1.949 . S
Zn47 O54 1.919 . S
Zn47 O59 1.924 . S
O48 Zn47 1.949 . S
O48 Zn49 1.923 . S
O48 Zn50 1.950 . S
O48 Zn51 1.945 . S
Zn49 O48 1.923 . S
Zn49 O52 1.933 . S
Zn49 O55 1.941 . S
Zn49 O56 1.965 . S
Zn50 O48 1.950 . S
Zn50 O57 1.938 . S
Zn50 O58 1.906 . S
Zn50 O68 1.953 . S
Zn51 O48 1.945 . S
Zn51 O53 1.932 . S
Zn51 O60 1.977 . S
Zn51 O61 1.910 . S
O52 Zn49 1.933 . S
O52 C63 1.226 . S
O53 Zn51 1.932 . S
O53 C63 1.307 . S
O54 Zn47 1.919 . S
O54 C65 1.253 . S
O55 Zn49 1.941 . S
O55 C65 1.283 . S
O56 Zn49 1.965 . S
O56 C64 1.303 . S
O57 Zn50 1.938 . S
O57 C64 1.247 . S
O58 Zn50 1.906 . S
O58 C66 1.304 . S
O59 Zn47 1.924 . S
O59 C67 1.311 . S
O60 Zn51 1.977 . S
O60 C66 1.272 . S
O61 Zn51 1.910 . S
O61 C67 1.231 . S
C62 O46 1.225 . S
C62 O68 1.298 . S
C63 O52 1.226 . S
C63 O53 1.307 . S
C64 O56 1.303 . S
C64 O57 1.247 . S
C65 O54 1.253 . S
C65 O55 1.283 . S
C66 O58 1.304 . S
C66 O60 1.272 . S
C67 O59 1.311 . S
C67 O61 1.231 . S
O68 Zn50 1.953 . S
O68 C62 1.298 . S
O69 Zn70 1.953 . S
O69 C85 1.225 . S
Zn70 O69 1.953 . S
Zn70 O71 1.949 1_565 S
Zn70 O77 1.919 . S
Zn70 O82 1.924 . S
O71 Zn70 1.949 1_545 S
O71 Zn72 1.923 1_545 S
O71 Zn73 1.950 . S
O71 Zn74 1.945 . S
Zn72 O71 1.923 1_565 S
Zn72 O75 1.933 . S
Zn72 O78 1.941 . S
Zn72 O79 1.972 . S
Zn73 O71 1.950 . S
Zn73 O80 1.938 . S
Zn73 O81 1.906 . S
Zn73 O91 1.953 . S
Zn74 O71 1.945 . S
Zn74 O76 1.932 . S
Zn74 O83 1.977 . S
Zn74 O84 1.910 . S
O75 Zn72 1.933 . S
O75 C86 1.226 1_565 S
O76 Zn74 1.932 . S
O76 C86 1.307 . S
O77 Zn70 1.919 . S
O77 C88 1.253 . S
O78 Zn72 1.941 . S
O78 C88 1.283 . S
O79 Zn72 1.972 . S
O79 C87 1.294 1_565 S
O80 Zn73 1.938 . S
O80 C87 1.247 . S
O81 Zn73 1.906 . S
O81 C89 1.304 . S
O82 Zn70 1.924 . S
O82 C90 1.311 . S
O83 Zn74 1.977 . S
O83 C89 1.272 . S
O84 Zn74 1.910 . S
O84 C90 1.231 1_545 S
C85 O69 1.225 . S
C85 O91 1.298 1_565 S
C86 O75 1.226 1_545 S
C86 O76 1.307 . S
C87 O79 1.294 1_545 S
C87 O80 1.247 . S
C88 O77 1.253 . S
C88 O78 1.283 . S
C89 O81 1.304 . S
C89 O83 1.272 . S
C90 O82 1.311 . S
C90 O84 1.231 1_565 S
O91 Zn73 1.953 . S
O91 C85 1.298 1_545 S
O92 Zn93 1.953 . S
O92 C108 1.225 . S
Zn93 O92 1.953 . S
Zn93 O94 1.949 1_545 S
Zn93 O100 1.919 . S
Zn93 O105 1.924 . S
O94 Zn93 1.949 1_565 S
O94 Zn95 1.923 1_565 S
O94 Zn96 1.950 . S
O94 Zn97 1.945 . S
Zn95 O94 1.923 1_545 S
Zn95 O98 1.933 . S
Zn95 O101 1.941 . S
Zn95 O102 1.972 . S
Zn96 O94 1.950 . S
Zn96 O103 1.938 . S
Zn96 O104 1.906 . S
Zn96 O114 1.953 . S
Zn97 O94 1.945 . S
Zn97 O99 1.932 . S
Zn97 O106 1.977 . S
Zn97 O107 1.910 . S
O98 Zn95 1.933 . S
O98 C109 1.226 1_545 S
O99 Zn97 1.932 . S
O99 C109 1.307 . S
O100 Zn93 1.919 . S
O100 C111 1.253 . S
O101 Zn95 1.941 . S
O101 C111 1.283 . S
O102 Zn95 1.972 . S
O102 C110 1.291 1_546 S
O103 Zn96 1.938 . S
O103 C110 1.245 1_556 S
O104 Zn96 1.906 . S
O104 C112 1.304 . S
O105 Zn93 1.924 . S
O105 C113 1.311 . S
O106 Zn97 1.977 . S
O106 C112 1.272 . S
O107 Zn97 1.910 . S
O107 C113 1.231 1_565 S
C108 O92 1.225 . S
C108 O114 1.298 1_545 S
C109 O98 1.226 1_565 S
C109 O99 1.307 . S
C110 O102 1.291 1_564 S
C110 O103 1.245 1_554 S
C111 O100 1.253 . S
C111 O101 1.283 . S
C112 O104 1.304 . S
C112 O106 1.272 . S
C113 O105 1.311 . S
C113 O107 1.231 1_545 S
O114 Zn96 1.953 . S
O114 C108 1.298 1_565 S
O115 Zn116 1.953 . S
O115 C131 1.225 . S
Zn116 O115 1.953 . S
Zn116 O117 1.949 . S
Zn116 O123 1.919 . S
Zn116 O128 1.924 . S
O117 Zn116 1.949 . S
O117 Zn118 1.923 . S
O117 Zn119 1.950 . S
O117 Zn120 1.945 . S
Zn118 O117 1.923 . S
Zn118 O121 1.933 . S
Zn118 O124 1.941 . S
Zn118 O125 1.965 . S
Zn119 O117 1.950 . S
Zn119 O126 1.938 . S
Zn119 O127 1.906 . S
Zn119 O137 1.953 . S
Zn120 O117 1.945 . S
Zn120 O122 1.932 . S
Zn120 O129 1.977 . S
Zn120 O130 1.910 . S
O121 Zn118 1.933 . S
O121 C132 1.226 . S
O122 Zn120 1.932 . S
O122 C132 1.307 . S
O123 Zn116 1.919 . S
O123 C134 1.253 . S
O124 Zn118 1.941 . S
O124 C134 1.283 . S
O125 Zn118 1.965 . S
O125 C133 1.300 1_556 S
O126 Zn119 1.938 . S
O126 C133 1.246 1_556 S
O127 Zn119 1.906 . S
O127 C135 1.304 . S
O128 Zn116 1.924 . S
O128 C136 1.311 . S
O129 Zn120 1.977 . S
O129 C135 1.272 . S
O130 Zn120 1.910 . S
O130 C136 1.231 . S
C131 O115 1.225 . S
C131 O137 1.298 . S
C132 O121 1.226 . S
C132 O122 1.307 . S
C133 O125 1.300 1_554 S
C133 O126 1.246 1_554 S
C134 O123 1.253 . S
C134 O124 1.283 . S
C135 O127 1.304 . S
C135 O129 1.272 . S
C136 O128 1.311 . S
C136 O130 1.231 . S
O137 Zn119 1.953 . S
O137 C131 1.298 . S
O138 Zn139 1.953 . S
O138 C154 1.225 . S
Zn139 O138 1.953 . S
Zn139 O140 1.949 . S
Zn139 O146 1.919 . S
Zn139 O151 1.924 . S
O140 Zn139 1.949 . S
O140 Zn141 1.923 . S
O140 Zn142 1.950 . S
O140 Zn143 1.945 . S
Zn141 O140 1.923 . S
Zn141 O144 1.933 . S
Zn141 O147 1.941 . S
Zn141 O148 1.965 . S
Zn142 O140 1.950 . S
Zn142 O149 1.938 . S
Zn142 O150 1.906 . S
Zn142 O160 1.953 . S
Zn143 O140 1.945 . S
Zn143 O145 1.932 . S
Zn143 O152 1.977 . S
Zn143 O153 1.910 . S
O144 Zn141 1.933 . S
O144 C155 1.226 . S
O145 Zn143 1.932 . S
O145 C155 1.307 . S
O146 Zn139 1.919 . S
O146 C157 1.253 . S
O147 Zn141 1.941 . S
O147 C157 1.283 . S
O148 Zn141 1.965 . S
O148 C156 1.303 . S
O149 Zn142 1.938 . S
O149 C156 1.247 . S
O150 Zn142 1.906 . S
O150 C158 1.304 . S
O151 Zn139 1.924 . S
O151 C159 1.311 . S
O152 Zn143 1.977 . S
O152 C158 1.272 . S
O153 Zn143 1.910 . S
O153 C159 1.231 . S
C154 O138 1.225 . S
C154 O160 1.298 . S
C155 O144 1.226 . S
C155 O145 1.307 . S
C156 O148 1.303 . S
C156 O149 1.247 . S
C157 O146 1.253 . S
C157 O147 1.283 . S
C158 O150 1.304 . S
C158 O152 1.272 . S
C159 O151 1.311 . S
C159 O153 1.231 . S
O160 Zn142 1.953 . S
O160 C154 1.298 . S
O161 Zn162 1.953 . S
O161 C177 1.225 . S
Zn162 O161 1.953 . S
Zn162 O163 1.949 1_545 S
Zn162 O169 1.919 . S
Zn162 O174 1.924 . S
O163 Zn162 1.949 1_565 S
O163 Zn164 1.923 1_565 S
O163 Zn165 1.950 . S
O163 Zn166 1.945 . S
Zn164 O163 1.923 1_545 S
Zn164 O167 1.933 . S
Zn164 O170 1.941 . S
Zn164 O171 1.972 . S
Zn165 O163 1.950 . S
Zn165 O172 1.938 . S
Zn165 O173 1.906 . S
Zn165 O183 1.953 . S
Zn166 O163 1.945 . S
Zn166 O168 1.932 . S
Zn166 O175 1.977 . S
Zn166 O176 1.910 . S
O167 Zn164 1.933 . S
O167 C178 1.226 1_545 S
O168 Zn166 1.932 . S
O168 C178 1.307 . S
O169 Zn162 1.919 . S
O169 C180 1.253 . S
O170 Zn164 1.941 . S
O170 C180 1.283 . S
O171 Zn164 1.972 . S
O171 C179 1.294 1_545 S
O172 Zn165 1.938 . S
O172 C179 1.247 . S
O173 Zn165 1.906 . S
O173 C181 1.304 . S
O174 Zn162 1.924 . S
O174 C182 1.311 . S
O175 Zn166 1.977 . S
O175 C181 1.272 . S
O176 Zn166 1.910 . S
O176 C182 1.231 1_565 S
C177 O161 1.225 . S
C177 O183 1.298 1_545 S
C178 O167 1.226 1_565 S
C178 O168 1.307 . S
C179 O171 1.294 1_565 S
C179 O172 1.247 . S
C180 O169 1.253 . S
C180 O170 1.283 . S
C181 O173 1.304 . S
C181 O175 1.272 . S
C182 O174 1.311 . S
C182 O176 1.231 1_545 S
O183 Zn165 1.953 . S
O183 C177 1.298 1_565 S
O184 Zn185 1.953 . S
O184 C200 1.225 . S
Zn185 O184 1.953 . S
Zn185 O186 1.949 . S
Zn185 O192 1.919 . S
Zn185 O197 1.924 . S
O186 Zn185 1.949 . S
O186 Zn187 1.923 . S
O186 Zn188 1.950 . S
O186 Zn189 1.945 . S
Zn187 O186 1.923 . S
Zn187 O190 1.933 . S
Zn187 O193 1.941 . S
Zn187 O194 1.965 . S
Zn188 O186 1.950 . S
Zn188 O195 1.938 . S
Zn188 O196 1.906 . S
Zn188 O206 1.953 . S
Zn189 O186 1.945 . S
Zn189 O191 1.932 . S
Zn189 O198 1.977 . S
Zn189 O199 1.910 . S
O190 Zn187 1.933 . S
O190 C201 1.226 . S
O191 Zn189 1.932 . S
O191 C201 1.307 . S
O192 Zn185 1.919 . S
O192 C203 1.253 . S
O193 Zn187 1.941 . S
O193 C203 1.283 . S
O194 Zn187 1.965 . S
O194 C202 1.303 . S
O195 Zn188 1.938 . S
O195 C202 1.247 . S
O196 Zn188 1.906 . S
O196 C204 1.304 . S
O197 Zn185 1.924 . S
O197 C205 1.311 . S
O198 Zn189 1.977 . S
O198 C204 1.272 . S
O199 Zn189 1.910 . S
O199 C205 1.231 . S
C200 O184 1.225 . S
C200 O206 1.298 . S
C201 O190 1.226 . S
C201 O191 1.307 . S
C202 O194 1.303 . S
C202 O195 1.247 . S
C203 O192 1.253 . S
C203 O193 1.283 . S
C204 O196 1.304 . S
C204 O198 1.272 . S
C205 O197 1.311 . S
C205 O199 1.231 . S
O206 Zn188 1.953 . S
O206 C200 1.298 . S
O207 Zn208 1.953 . S
O207 C223 1.225 . S
Zn208 O207 1.953 . S
Zn208 O209 1.949 . S
Zn208 O215 1.919 . S
Zn208 O220 1.924 . S
O209 Zn208 1.949 . S
O209 Zn210 1.923 . S
O209 Zn211 1.950 . S
O209 Zn212 1.945 . S
Zn210 O209 1.923 . S
Zn210 O213 1.933 . S
Zn210 O216 1.941 . S
Zn210 O217 1.965 . S
Zn211 O209 1.950 . S
Zn211 O218 1.938 . S
Zn211 O219 1.906 . S
Zn211 O229 1.953 . S
Zn212 O209 1.945 . S
Zn212 O214 1.932 . S
Zn212 O221 1.977 . S
Zn212 O222 1.910 . S
O213 Zn210 1.933 . S
O213 C224 1.226 . S
O214 Zn212 1.932 . S
O214 C224 1.307 . S
O215 Zn208 1.919 . S
O215 C226 1.253 . S
O216 Zn210 1.941 . S
O216 C226 1.283 . S
O217 Zn210 1.965 . S
O217 C225 1.303 . S
O218 Zn211 1.938 . S
O218 C225 1.247 . S
O219 Zn211 1.906 . S
O219 C227 1.304 . S
O220 Zn208 1.924 . S
O220 C228 1.311 . S
O221 Zn212 1.977 . S
O221 C227 1.272 . S
O222 Zn212 1.910 . S
O222 C228 1.231 . S
C223 O207 1.225 . S
C223 O229 1.298 . S
C224 O213 1.226 . S
C224 O214 1.307 . S
C225 O217 1.303 . S
C225 O218 1.247 . S
C226 O215 1.253 . S
C226 O216 1.283 . S
C227 O219 1.304 . S
C227 O221 1.272 . S
C228 O220 1.311 . S
C228 O222 1.231 . S
O229 Zn211 1.953 . S
O229 C223 1.298 . S
O230 Zn231 1.953 . S
O230 C246 1.225 . S
Zn231 O230 1.953 . S
Zn231 O232 1.949 . S
Zn231 O238 1.919 . S
Zn231 O243 1.924 . S
O232 Zn231 1.949 . S
O232 Zn233 1.923 . S
O232 Zn234 1.950 . S
O232 Zn235 1.945 . S
Zn233 O232 1.923 . S
Zn233 O236 1.933 . S
Zn233 O239 1.941 . S
Zn233 O240 1.965 . S
Zn234 O232 1.950 . S
Zn234 O241 1.938 . S
Zn234 O242 1.906 . S
Zn234 O252 1.953 . S
Zn235 O232 1.945 . S
Zn235 O237 1.932 . S
Zn235 O244 1.977 . S
Zn235 O245 1.910 . S
O236 Zn233 1.933 . S
O236 C247 1.226 . S
O237 Zn235 1.932 . S
O237 C247 1.307 . S
O238 Zn231 1.919 . S
O238 C249 1.253 . S
O239 Zn233 1.941 . S
O239 C249 1.283 . S
O240 Zn233 1.965 . S
O240 C248 1.303 . S
O241 Zn234 1.938 . S
O241 C248 1.247 . S
O242 Zn234 1.906 . S
O242 C250 1.304 . S
O243 Zn231 1.924 . S
O243 C251 1.311 . S
O244 Zn235 1.977 . S
O244 C250 1.272 . S
O245 Zn235 1.910 . S
O245 C251 1.231 . S
C246 O230 1.225 . S
C246 O252 1.298 . S
C247 O236 1.226 . S
C247 O237 1.307 . S
C248 O240 1.303 . S
C248 O241 1.247 . S
C249 O238 1.253 . S
C249 O239 1.283 . S
C250 O242 1.304 . S
C250 O244 1.272 . S
C251 O243 1.311 . S
C251 O245 1.231 . S
O252 Zn234 1.953 . S
O252 C246 1.298 . S
O253 Zn254 1.953 . S
O253 C269 1.225 . S
Zn254 O253 1.953 . S
Zn254 O255 1.949 . S
Zn254 O261 1.919 . S
Zn254 O266 1.924 . S
O255 Zn254 1.949 . S
O255 Zn256 1.923 . S
O255 Zn257 1.950 . S
O255 Zn258 1.945 . S
Zn256 O255 1.923 . S
Zn256 O259 1.933 . S
Zn256 O262 1.941 . S
Zn256 O263 1.965 . S
Zn257 O255 1.950 . S
Zn257 O264 1.938 . S
Zn257 O265 1.906 . S
Zn257 O275 1.953 . S
Zn258 O255 1.945 . S
Zn258 O260 1.932 . S
Zn258 O267 1.977 . S
Zn258 O268 1.910 . S
O259 Zn256 1.933 . S
O259 C270 1.226 . S
O260 Zn258 1.932 . S
O260 C270 1.307 . S
O261 Zn254 1.919 . S
O261 C272 1.253 . S
O262 Zn256 1.941 . S
O262 C272 1.283 . S
O263 Zn256 1.965 . S
O263 C271 1.303 . S
O264 Zn257 1.938 . S
O264 C271 1.247 . S
O265 Zn257 1.906 . S
O265 C273 1.304 . S
O266 Zn254 1.924 . S
O266 C274 1.311 . S
O267 Zn258 1.977 . S
O267 C273 1.272 . S
O268 Zn258 1.910 . S
O268 C274 1.231 . S
C269 O253 1.225 . S
C269 O275 1.298 . S
C270 O259 1.226 . S
C270 O260 1.307 . S
C271 O263 1.303 . S
C271 O264 1.247 . S
C272 O261 1.253 . S
C272 O262 1.283 . S
C273 O265 1.304 . S
C273 O267 1.272 . S
C274 O266 1.311 . S
C274 O268 1.231 . S
O275 Zn257 1.953 . S
O275 C269 1.298 . S
O276 Zn277 1.953 . S
O276 C292 1.225 . S
Zn277 O276 1.953 . S
Zn277 O278 1.949 . S
Zn277 O284 1.919 . S
Zn277 O289 1.924 . S
O278 Zn277 1.949 . S
O278 Zn279 1.923 . S
O278 Zn280 1.950 . S
O278 Zn281 1.945 . S
Zn279 O278 1.923 . S
Zn279 O282 1.933 . S
Zn279 O285 1.941 . S
Zn279 O286 1.965 . S
Zn280 O278 1.950 . S
Zn280 O287 1.938 . S
Zn280 O288 1.906 . S
Zn280 O298 1.953 . S
Zn281 O278 1.945 . S
Zn281 O283 1.932 . S
Zn281 O290 1.977 . S
Zn281 O291 1.910 . S
O282 Zn279 1.933 . S
O282 C293 1.226 . S
O283 Zn281 1.932 . S
O283 C293 1.307 . S
O284 Zn277 1.919 . S
O284 C295 1.253 . S
O285 Zn279 1.941 . S
O285 C295 1.283 . S
O286 Zn279 1.965 . S
O286 C294 1.303 . S
O287 Zn280 1.938 . S
O287 C294 1.247 . S
O288 Zn280 1.906 . S
O288 C296 1.304 . S
O289 Zn277 1.924 . S
O289 C297 1.311 . S
O290 Zn281 1.977 . S
O290 C296 1.272 . S
O291 Zn281 1.910 . S
O291 C297 1.231 . S
C292 O276 1.225 . S
C292 O298 1.298 . S
C293 O282 1.226 . S
C293 O283 1.307 . S
C294 O286 1.303 . S
C294 O287 1.247 . S
C295 O284 1.253 . S
C295 O285 1.283 . S
C296 O288 1.304 . S
C296 O290 1.272 . S
C297 O289 1.311 . S
C297 O291 1.231 . S
O298 Zn280 1.953 . S
O298 C292 1.298 . S
O299 Zn300 1.953 . S
O299 C315 1.225 . S
Zn300 O299 1.953 . S
Zn300 O301 1.949 . S
Zn300 O307 1.919 . S
Zn300 O312 1.924 . S
O301 Zn300 1.949 . S
O301 Zn302 1.923 . S
O301 Zn303 1.950 . S
O301 Zn304 1.945 . S
Zn302 O301 1.923 . S
Zn302 O305 1.933 . S
Zn302 O308 1.941 . S
Zn302 O309 1.965 . S
Zn303 O301 1.950 . S
Zn303 O310 1.938 . S
Zn303 O311 1.906 . S
Zn303 O321 1.953 . S
Zn304 O301 1.945 . S
Zn304 O306 1.932 . S
Zn304 O313 1.977 . S
Zn304 O314 1.910 . S
O305 Zn302 1.933 . S
O305 C316 1.226 . S
O306 Zn304 1.932 . S
O306 C316 1.307 . S
O307 Zn300 1.919 . S
O307 C318 1.253 . S
O308 Zn302 1.941 . S
O308 C318 1.283 . S
O309 Zn302 1.965 . S
O309 C317 1.303 . S
O310 Zn303 1.938 . S
O310 C317 1.247 . S
O311 Zn303 1.906 . S
O311 C319 1.304 . S
O312 Zn300 1.924 . S
O312 C320 1.311 . S
O313 Zn304 1.977 . S
O313 C319 1.272 . S
O314 Zn304 1.910 . S
O314 C320 1.231 . S
C315 O299 1.225 . S
C315 O321 1.298 . S
C316 O305 1.226 . S
C316 O306 1.307 . S
C317 O309 1.303 . S
C317 O310 1.247 . S
C318 O307 1.253 . S
C318 O308 1.283 . S
C319 O311 1.304 . S
C319 O313 1.272 . S
C320 O312 1.311 . S
C320 O314 1.231 . S
O321 Zn303 1.953 . S
O321 C315 1.298 . S
O322 Zn323 1.953 . S
O322 C338 1.225 . S
Zn323 O322 1.953 . S
Zn323 O324 1.949 . S
Zn323 O330 1.919 . S
Zn323 O335 1.924 . S
O324 Zn323 1.949 . S
O324 Zn325 1.923 . S
O324 Zn326 1.950 . S
O324 Zn327 1.945 . S
Zn325 O324 1.923 . S
Zn325 O328 1.933 . S
Zn325 O331 1.941 . S
Zn325 O332 1.965 . S
Zn326 O324 1.950 . S
Zn326 O333 1.938 . S
Zn326 O334 1.906 . S
Zn326 O344 1.953 . S
Zn327 O324 1.945 . S
Zn327 O329 1.932 . S
Zn327 O336 1.977 . S
Zn327 O337 1.910 . S
O328 Zn325 1.933 . S
O328 C339 1.226 . S
O329 Zn327 1.932 . S
O329 C339 1.307 . S
O330 Zn323 1.919 . S
O330 C341 1.253 . S
O331 Zn325 1.941 . S
O331 C341 1.283 . S
O332 Zn325 1.965 . S
O332 C340 1.303 . S
O333 Zn326 1.938 . S
O333 C340 1.247 . S
O334 Zn326 1.906 . S
O334 C342 1.304 . S
O335 Zn323 1.924 . S
O335 C343 1.311 . S
O336 Zn327 1.977 . S
O336 C342 1.272 . S
O337 Zn327 1.910 . S
O337 C343 1.231 . S
C338 O322 1.225 . S
C338 O344 1.298 . S
C339 O328 1.226 . S
C339 O329 1.307 . S
C340 O332 1.303 . S
C340 O333 1.247 . S
C341 O330 1.253 . S
C341 O331 1.283 . S
C342 O334 1.304 . S
C342 O336 1.272 . S
C343 O335 1.311 . S
C343 O337 1.231 . S
O344 Zn326 1.953 . S
O344 C338 1.298 . S
O345 Zn346 1.953 . S
O345 C361 1.225 . S
Zn346 O345 1.953 . S
Zn346 O347 1.949 . S
Zn346 O353 1.919 . S
Zn346 O358 1.924 . S
O347 Zn346 1.949 . S
O347 Zn348 1.923 . S
O347 Zn349 1.950 . S
O347 Zn350 1.945 . S
Zn348 O347 1.923 . S
Zn348 O351 1.933 . S
Zn348 O354 1.941 . S
Zn348 O355 1.965 . S
Zn349 O347 1.950 . S
Zn349 O356 1.938 . S
Zn349 O357 1.906 . S
Zn349 O367 1.953 . S
Zn350 O347 1.945 . S
Zn350 O352 1.932 . S
Zn350 O359 1.977 . S
Zn350 O360 1.910 . S
O351 Zn348 1.933 . S
O351 C362 1.226 . S
O352 Zn350 1.932 . S
O352 C362 1.307 . S
O353 Zn346 1.919 . S
O353 C364 1.253 . S
O354 Zn348 1.941 . S
O354 C364 1.283 . S
O355 Zn348 1.965 . S
O355 C363 1.303 . S
O356 Zn349 1.938 . S
O356 C363 1.247 . S
O357 Zn349 1.906 . S
O357 C365 1.304 . S
O358 Zn346 1.924 . S
O358 C366 1.311 . S
O359 Zn350 1.977 . S
O359 C365 1.272 . S
O360 Zn350 1.910 . S
O360 C366 1.231 . S
C361 O345 1.225 . S
C361 O367 1.298 . S
C362 O351 1.226 . S
C362 O352 1.307 . S
C363 O355 1.303 . S
C363 O356 1.247 . S
C364 O353 1.253 . S
C364 O354 1.283 . S
C365 O357 1.304 . S
C365 O359 1.272 . S
C366 O358 1.311 . S
C366 O360 1.231 . S
O367 Zn349 1.953 . S
O367 C361 1.298 . S
O368 Zn369 1.953 . S
O368 C384 1.225 . S
Zn369 O368 1.953 . S
Zn369 O370 1.949 1_565 S
Zn369 O376 1.919 . S
Zn369 O381 1.924 . S
O370 Zn369 1.949 1_545 S
O370 Zn371 1.923 1_545 S
O370 Zn372 1.950 . S
O370 Zn373 1.945 . S
Zn371 O370 1.923 1_565 S
Zn371 O374 1.933 . S
Zn371 O377 1.941 . S
Zn371 O378 1.972 . S
Zn372 O370 1.950 . S
Zn372 O379 1.938 . S
Zn372 O380 1.906 . S
Zn372 O390 1.953 . S
Zn373 O370 1.945 . S
Zn373 O375 1.932 . S
Zn373 O382 1.977 . S
Zn373 O383 1.910 . S
O374 Zn371 1.933 . S
O374 C385 1.226 1_565 S
O375 Zn373 1.932 . S
O375 C385 1.307 . S
O376 Zn369 1.919 . S
O376 C387 1.253 . S
O377 Zn371 1.941 . S
O377 C387 1.283 . S
O378 Zn371 1.972 . S
O378 C386 1.294 1_565 S
O379 Zn372 1.938 . S
O379 C386 1.247 . S
O380 Zn372 1.906 . S
O380 C388 1.304 . S
O381 Zn369 1.924 . S
O381 C389 1.311 . S
O382 Zn373 1.977 . S
O382 C388 1.272 . S
O383 Zn373 1.910 . S
O383 C389 1.231 1_545 S
C384 O368 1.225 . S
C384 O390 1.298 1_565 S
C385 O374 1.226 1_545 S
C385 O375 1.307 . S
C386 O378 1.294 1_545 S
C386 O379 1.247 . S
C387 O376 1.253 . S
C387 O377 1.283 . S
C388 O380 1.304 . S
C388 O382 1.272 . S
C389 O381 1.311 . S
C389 O383 1.231 1_565 S
O390 Zn372 1.953 . S
O390 C384 1.298 1_545 S
O391 Zn392 1.953 . S
O391 C407 1.225 . S
Zn392 O391 1.953 . S
Zn392 O393 1.949 . S
Zn392 O399 1.919 . S
Zn392 O404 1.924 . S
O393 Zn392 1.949 . S
O393 Zn394 1.923 . S
O393 Zn395 1.950 . S
O393 Zn396 1.945 . S
Zn394 O393 1.923 . S
Zn394 O397 1.933 . S
Zn394 O400 1.941 . S
Zn394 O401 1.965 . S
Zn395 O393 1.950 . S
Zn395 O402 1.938 . S
Zn395 O403 1.906 . S
Zn395 O413 1.953 . S
Zn396 O393 1.945 . S
Zn396 O398 1.932 . S
Zn396 O405 1.977 . S
Zn396 O406 1.910 . S
O397 Zn394 1.933 . S
O397 C408 1.226 . S
O398 Zn396 1.932 . S
O398 C408 1.307 . S
O399 Zn392 1.919 . S
O399 C410 1.253 . S
O400 Zn394 1.941 . S
O400 C410 1.283 . S
O401 Zn394 1.965 . S
O401 C409 1.303 . S
O402 Zn395 1.938 . S
O402 C409 1.247 . S
O403 Zn395 1.906 . S
O403 C411 1.304 . S
O404 Zn392 1.924 . S
O404 C412 1.311 . S
O405 Zn396 1.977 . S
O405 C411 1.272 . S
O406 Zn396 1.910 . S
O406 C412 1.231 . S
C407 O391 1.225 . S
C407 O413 1.298 . S
C408 O397 1.226 . S
C408 O398 1.307 . S
C409 O401 1.303 . S
C409 O402 1.247 . S
C410 O399 1.253 . S
C410 O400 1.283 . S
C411 O403 1.304 . S
C411 O405 1.272 . S
C412 O404 1.311 . S
C412 O406 1.231 . S
O413 Zn395 1.953 . S
O413 C407 1.298 . S
O414 Zn415 1.953 . S
O414 C430 1.225 . S
Zn415 O414 1.953 . S
Zn415 O416 1.949 . S
Zn415 O422 1.919 . S
Zn415 O427 1.924 . S
O416 Zn415 1.949 . S
O416 Zn417 1.923 . S
O416 Zn418 1.950 . S
O416 Zn419 1.945 . S
Zn417 O416 1.923 . S
Zn417 O420 1.933 . S
Zn417 O423 1.941 . S
Zn417 O424 1.965 . S
Zn418 O416 1.950 . S
Zn418 O425 1.938 . S
Zn418 O426 1.906 . S
Zn418 O436 1.953 . S
Zn419 O416 1.945 . S
Zn419 O421 1.932 . S
Zn419 O428 1.977 . S
Zn419 O429 1.910 . S
O420 Zn417 1.933 . S
O420 C431 1.226 . S
O421 Zn419 1.932 . S
O421 C431 1.307 . S
O422 Zn415 1.919 . S
O422 C433 1.253 . S
O423 Zn417 1.941 . S
O423 C433 1.283 . S
O424 Zn417 1.965 . S
O424 C432 1.303 . S
O425 Zn418 1.938 . S
O425 C432 1.247 . S
O426 Zn418 1.906 . S
O426 C434 1.304 . S
O427 Zn415 1.924 . S
O427 C435 1.311 . S
O428 Zn419 1.977 . S
O428 C434 1.272 . S
O429 Zn419 1.910 . S
O429 C435 1.231 . S
C430 O414 1.225 . S
C430 O436 1.298 . S
C431 O420 1.226 . S
C431 O421 1.307 . S
C432 O424 1.303 . S
C432 O425 1.247 . S
C433 O422 1.253 . S
C433 O423 1.283 . S
C434 O426 1.304 . S
C434 O428 1.272 . S
C435 O427 1.311 . S
C435 O429 1.231 . S
O436 Zn418 1.953 . S
O436 C430 1.298 . S
O437 Zn438 1.953 . S
O437 C453 1.225 . S
Zn438 O437 1.953 . S
Zn438 O439 1.949 1_565 S
Zn438 O445 1.919 . S
Zn438 O450 1.924 . S
O439 Zn438 1.949 1_545 S
O439 Zn440 1.923 1_545 S
O439 Zn441 1.950 . S
O439 Zn442 1.945 . S
Zn440 O439 1.923 1_565 S
Zn440 O443 1.933 . S
Zn440 O446 1.941 . S
Zn440 O447 1.972 . S
Zn441 O439 1.950 . S
Zn441 O448 1.938 . S
Zn441 O449 1.906 . S
Zn441 O459 1.953 . S
Zn442 O439 1.945 . S
Zn442 O444 1.932 . S
Zn442 O451 1.977 . S
Zn442 O452 1.910 . S
O443 Zn440 1.933 . S
O443 C454 1.226 1_565 S
O444 Zn442 1.932 . S
O444 C454 1.307 . S
O445 Zn438 1.919 . S
O445 C456 1.253 . S
O446 Zn440 1.941 . S
O446 C456 1.283 . S
O447 Zn440 1.972 . S
O447 C455 1.294 1_565 S
O448 Zn441 1.938 . S
O448 C455 1.247 . S
O449 Zn441 1.906 . S
O449 C457 1.304 . S
O450 Zn438 1.924 . S
O450 C458 1.311 . S
O451 Zn442 1.977 . S
O451 C457 1.272 . S
O452 Zn442 1.910 . S
O452 C458 1.231 1_545 S
C453 O437 1.225 . S
C453 O459 1.298 1_565 S
C454 O443 1.226 1_545 S
C454 O444 1.307 . S
C455 O447 1.294 1_545 S
C455 O448 1.247 . S
C456 O445 1.253 . S
C456 O446 1.283 . S
C457 O449 1.304 . S
C457 O451 1.272 . S
C458 O450 1.311 . S
C458 O452 1.231 1_565 S
O459 Zn441 1.953 . S
O459 C453 1.298 1_545 S
O460 Zn461 1.953 . S
O460 C476 1.225 . S
Zn461 O460 1.953 . S
Zn461 O462 1.949 1_545 S
Zn461 O468 1.919 . S
Zn461 O473 1.924 . S
O462 Zn461 1.949 1_565 S
O462 Zn463 1.923 1_565 S
O462 Zn464 1.950 . S
O462 Zn465 1.945 . S
Zn463 O462 1.923 1_545 S
Zn463 O466 1.933 . S
Zn463 O469 1.941 . S
Zn463 O470 1.972 . S
Zn464 O462 1.950 . S
Zn464 O471 1.938 . S
Zn464 O472 1.906 . S
Zn464 O482 1.953 . S
Zn465 O462 1.945 . S
Zn465 O467 1.932 . S
Zn465 O474 1.977 . S
Zn465 O475 1.910 . S
O466 Zn463 1.933 . S
O466 C477 1.226 1_545 S
O467 Zn465 1.932 . S
O467 C477 1.307 . S
O468 Zn461 1.919 . S
O468 C479 1.253 . S
O469 Zn463 1.941 . S
O469 C479 1.283 . S
O470 Zn463 1.972 . S
O470 C478 1.294 1_545 S
O471 Zn464 1.938 . S
O471 C478 1.247 . S
O472 Zn464 1.906 . S
O472 C480 1.304 . S
O473 Zn461 1.924 . S
O473 C481 1.311 . S
O474 Zn465 1.977 . S
O474 C480 1.272 . S
O475 Zn465 1.910 . S
O475 C481 1.231 1_565 S
C476 O460 1.225 . S
C476 O482 1.298 1_545 S
C477 O466 1.226 1_565 S
C477 O467 1.307 . S
C478 O470 1.294 1_565 S
C478 O471 1.247 . S
C479 O468 1.253 . S
C479 O469 1.283 . S
C480 O472 1.304 . S
C480 O474 1.272 . S
C481 O473 1.311 . S
C481 O475 1.231 1_545 S
O482 Zn464 1.953 . S
O482 C476 1.298 1_565 S
O483 Zn484 1.953 . S
O483 C499 1.225 . S
Zn484 O483 1.953 . S
Zn484 O485 1.949 . S
Zn484 O491 1.919 . S
Zn484 O496 1.924 . S
O485 Zn484 1.949 . S
O485 Zn486 1.923 . S
O485 Zn487 1.950 . S
O485 Zn488 1.945 . S
Zn486 O485 1.923 . S
Zn486 O489 1.933 . S
Zn486 O492 1.941 . S
Zn486 O493 1.965 . S
Zn487 O485 1.950 . S
Zn487 O494 1.938 . S
Zn487 O495 1.906 . S
Zn487 O505 1.953 . S
Zn488 O485 1.945 . S
Zn488 O490 1.932 . S
Zn488 O497 1.977 . S
Zn488 O498 1.910 . S
O489 Zn486 1.933 . S
O489 C500 1.226 . S
O490 Zn488 1.932 . S
O490 C500 1.307 . S
O491 Zn484 1.919 . S
O491 C502 1.253 . S
O492 Zn486 1.941 . S
O492 C502 1.283 . S
O493 Zn486 1.965 . S
O493 C501 1.303 . S
O494 Zn487 1.938 . S
O494 C501 1.247 . S
O495 Zn487 1.906 . S
O495 C503 1.304 . S
O496 Zn484 1.924 . S
O496 C504 1.311 . S
O497 Zn488 1.977 . S
O497 C503 1.272 . S
O498 Zn488 1.910 . S
O498 C504 1.231 . S
C499 O483 1.225 . S
C499 O505 1.298 . S
C500 O489 1.226 . S
C500 O490 1.307 . S
C501 O493 1.303 . S
C501 O494 1.247 . S
C502 O491 1.253 . S
C502 O492 1.283 . S
C503 O495 1.304 . S
C503 O497 1.272 . S
C504 O496 1.311 . S
C504 O498 1.231 . S
O505 Zn487 1.953 . S
O505 C499 1.298 . S
O506 Zn507 1.953 . S
O506 C522 1.225 . S
Zn507 O506 1.953 . S
Zn507 O508 1.949 . S
Zn507 O514 1.919 . S
Zn507 O519 1.924 . S
O508 Zn507 1.949 . S
O508 Zn509 1.923 . S
O508 Zn510 1.950 . S
O508 Zn511 1.945 . S
Zn509 O508 1.923 . S
Zn509 O512 1.933 . S
Zn509 O515 1.941 . S
Zn509 O516 1.965 . S
Zn510 O508 1.950 . S
Zn510 O517 1.938 . S
Zn510 O518 1.906 . S
Zn510 O528 1.953 . S
Zn511 O508 1.945 . S
Zn511 O513 1.932 . S
Zn511 O520 1.977 . S
Zn511 O521 1.910 . S
O512 Zn509 1.933 . S
O512 C523 1.226 . S
O513 Zn511 1.932 . S
O513 C523 1.307 . S
O514 Zn507 1.919 . S
O514 C525 1.253 . S
O515 Zn509 1.941 . S
O515 C525 1.283 . S
O516 Zn509 1.965 . S
O516 C524 1.303 . S
O517 Zn510 1.938 . S
O517 C524 1.247 . S
O518 Zn510 1.906 . S
O518 C526 1.304 . S
O519 Zn507 1.924 . S
O519 C527 1.311 . S
O520 Zn511 1.977 . S
O520 C526 1.272 . S
O521 Zn511 1.910 . S
O521 C527 1.231 . S
C522 O506 1.225 . S
C522 O528 1.298 . S
C523 O512 1.226 . S
C523 O513 1.307 . S
C524 O516 1.303 . S
C524 O517 1.247 . S
C525 O514 1.253 . S
C525 O515 1.283 . S
C526 O518 1.304 . S
C526 O520 1.272 . S
C527 O519 1.311 . S
C527 O521 1.231 . S
O528 Zn510 1.953 . S
O528 C522 1.298 . S
O529 Zn530 1.953 . S
O529 C545 1.225 . S
Zn530 O529 1.953 . S
Zn530 O531 1.949 1_545 S
Zn530 O537 1.919 . S
Zn530 O542 1.924 . S
O531 Zn530 1.949 1_565 S
O531 Zn532 1.923 1_565 S
O531 Zn533 1.950 . S
O531 Zn534 1.945 . S
Zn532 O531 1.923 1_545 S
Zn532 O535 1.933 . S
Zn532 O538 1.941 . S
Zn532 O539 1.972 . S
Zn533 O531 1.950 . S
Zn533 O540 1.938 . S
Zn533 O541 1.906 . S
Zn533 O551 1.953 . S
Zn534 O531 1.945 . S
Zn534 O536 1.932 . S
Zn534 O543 1.977 . S
Zn534 O544 1.910 . S
O535 Zn532 1.933 . S
O535 C546 1.226 1_545 S
O536 Zn534 1.932 . S
O536 C546 1.307 . S
O537 Zn530 1.919 . S
O537 C548 1.253 . S
O538 Zn532 1.941 . S
O538 C548 1.283 . S
O539 Zn532 1.972 . S
O539 C547 1.294 1_545 S
O540 Zn533 1.938 . S
O540 C547 1.247 . S
O541 Zn533 1.906 . S
O541 C549 1.304 . S
O542 Zn530 1.924 . S
O542 C550 1.311 . S
O543 Zn534 1.977 . S
O543 C549 1.272 . S
O544 Zn534 1.910 . S
O544 C550 1.231 1_565 S
C545 O529 1.225 . S
C545 O551 1.298 1_545 S
C546 O535 1.226 1_565 S
C546 O536 1.307 . S
C547 O539 1.294 1_565 S
C547 O540 1.247 . S
C548 O537 1.253 . S
C548 O538 1.283 . S
C549 O541 1.304 . S
C549 O543 1.272 . S
C550 O542 1.311 . S
C550 O544 1.231 1_545 S
O551 Zn533 1.953 . S
O551 C545 1.298 1_565 S
O552 Zn553 1.953 . S
O552 C568 1.225 . S
Zn553 O552 1.953 . S
Zn553 O554 1.949 . S
Zn553 O560 1.919 . S
Zn553 O565 1.924 . S
O554 Zn553 1.949 . S
O554 Zn555 1.923 . S
O554 Zn556 1.950 . S
O554 Zn557 1.945 . S
Zn555 O554 1.923 . S
Zn555 O558 1.933 . S
Zn555 O561 1.941 . S
Zn555 O562 1.965 . S
Zn556 O554 1.950 . S
Zn556 O563 1.938 . S
Zn556 O564 1.906 . S
Zn556 O574 1.953 . S
Zn557 O554 1.945 . S
Zn557 O559 1.932 . S
Zn557 O566 1.977 . S
Zn557 O567 1.910 . S
O558 Zn555 1.933 . S
O558 C569 1.226 . S
O559 Zn557 1.932 . S
O559 C569 1.307 . S
O560 Zn553 1.919 . S
O560 C571 1.253 . S
O561 Zn555 1.941 . S
O561 C571 1.283 . S
O562 Zn555 1.965 . S
O562 C570 1.300 1_554 S
O563 Zn556 1.938 . S
O563 C570 1.245 1_554 S
O564 Zn556 1.906 . S
O564 C572 1.304 . S
O565 Zn553 1.924 . S
O565 C573 1.311 . S
O566 Zn557 1.977 . S
O566 C572 1.272 . S
O567 Zn557 1.910 . S
O567 C573 1.231 . S
C568 O552 1.225 . S
C568 O574 1.298 . S
C569 O558 1.226 . S
C569 O559 1.307 . S
C570 O562 1.300 1_556 S
C570 O563 1.245 1_556 S
C571 O560 1.253 . S
C571 O561 1.283 . S
C572 O564 1.304 . S
C572 O566 1.272 . S
C573 O565 1.311 . S
C573 O567 1.231 . S
O574 Zn556 1.953 . S
O574 C568 1.298 . S
O575 Zn576 1.953 . S
O575 C591 1.225 . S
Zn576 O575 1.953 . S
Zn576 O577 1.949 . S
Zn576 O583 1.919 . S
Zn576 O588 1.924 . S
O577 Zn576 1.949 . S
O577 Zn578 1.923 . S
O577 Zn579 1.950 . S
O577 Zn580 1.945 . S
Zn578 O577 1.923 . S
Zn578 O581 1.933 . S
Zn578 O584 1.941 . S
Zn578 O585 1.965 . S
Zn579 O577 1.950 . S
Zn579 O586 1.938 . S
Zn579 O587 1.906 . S
Zn579 O597 1.953 . S
Zn580 O577 1.945 . S
Zn580 O582 1.932 . S
Zn580 O589 1.977 . S
Zn580 O590 1.910 . S
O581 Zn578 1.933 . S
O581 C592 1.226 . S
O582 Zn580 1.932 . S
O582 C592 1.307 . S
O583 Zn576 1.919 . S
O583 C594 1.253 . S
O584 Zn578 1.941 . S
O584 C594 1.283 . S
O585 Zn578 1.965 . S
O585 C593 1.300 1_554 S
O586 Zn579 1.938 . S
O586 C593 1.246 1_554 S
O587 Zn579 1.906 . S
O587 C595 1.304 . S
O588 Zn576 1.924 . S
O588 C596 1.311 . S
O589 Zn580 1.977 . S
O589 C595 1.272 . S
O590 Zn580 1.910 . S
O590 C596 1.231 . S
C591 O575 1.225 . S
C591 O597 1.298 . S
C592 O581 1.226 . S
C592 O582 1.307 . S
C593 O585 1.300 1_556 S
C593 O586 1.246 1_556 S
C594 O583 1.253 . S
C594 O584 1.283 . S
C595 O587 1.304 . S
C595 O589 1.272 . S
C596 O588 1.311 . S
C596 O590 1.231 . S
O597 Zn579 1.953 . S
O597 C591 1.298 . S
O598 Zn599 1.953 . S
O598 C614 1.225 . S
Zn599 O598 1.953 . S
Zn599 O600 1.949 . S
Zn599 O606 1.919 . S
Zn599 O611 1.924 . S
O600 Zn599 1.949 . S
O600 Zn601 1.923 . S
O600 Zn602 1.950 . S
O600 Zn603 1.945 . S
Zn601 O600 1.923 . S
Zn601 O604 1.933 . S
Zn601 O607 1.941 . S
Zn601 O608 1.965 . S
Zn602 O600 1.950 . S
Zn602 O609 1.938 . S
Zn602 O610 1.906 . S
Zn602 O620 1.953 . S
Zn603 O600 1.945 . S
Zn603 O605 1.932 . S
Zn603 O612 1.977 . S
Zn603 O613 1.910 . S
O604 Zn601 1.933 . S
O604 C615 1.226 . S
O605 Zn603 1.932 . S
O605 C615 1.307 . S
O606 Zn599 1.919 . S
O606 C617 1.253 . S
O607 Zn601 1.941 . S
O607 C617 1.283 . S
O608 Zn601 1.965 . S
O608 C616 1.303 . S
O609 Zn602 1.938 . S
O609 C616 1.247 . S
O610 Zn602 1.906 . S
O610 C618 1.304 . S
O611 Zn599 1.924 . S
O611 C619 1.311 . S
O612 Zn603 1.977 . S
O612 C618 1.272 . S
O613 Zn603 1.910 . S
O613 C619 1.231 . S
C614 O598 1.225 . S
C614 O620 1.298 . S
C615 O604 1.226 . S
C615 O605 1.307 . S
C616 O608 1.303 . S
C616 O609 1.247 . S
C617 O606 1.253 . S
C617 O607 1.283 . S
C618 O610 1.304 . S
C618 O612 1.272 . S
C619 O611 1.311 . S
C619 O613 1.231 . S
O620 Zn602 1.953 . S
O620 C614 1.298 . S
O621 Zn622 1.953 . S
O621 C637 1.225 . S
Zn622 O621 1.953 . S
Zn622 O623 1.949 . S
Zn622 O629 1.919 . S
Zn622 O634 1.924 . S
O623 Zn622 1.949 . S
O623 Zn624 1.923 . S
O623 Zn625 1.950 . S
O623 Zn626 1.945 . S
Zn624 O623 1.923 . S
Zn624 O627 1.933 . S
Zn624 O630 1.941 . S
Zn624 O631 1.965 . S
Zn625 O623 1.950 . S
Zn625 O632 1.938 . S
Zn625 O633 1.906 . S
Zn625 O643 1.953 . S
Zn626 O623 1.945 . S
Zn626 O628 1.932 . S
Zn626 O635 1.977 . S
Zn626 O636 1.910 . S
O627 Zn624 1.933 . S
O627 C638 1.226 . S
O628 Zn626 1.932 . S
O628 C638 1.307 . S
O629 Zn622 1.919 . S
O629 C640 1.253 . S
O630 Zn624 1.941 . S
O630 C640 1.283 . S
O631 Zn624 1.965 . S
O631 C639 1.303 . S
O632 Zn625 1.938 . S
O632 C639 1.247 . S
O633 Zn625 1.906 . S
O633 C641 1.304 . S
O634 Zn622 1.924 . S
O634 C642 1.311 . S
O635 Zn626 1.977 . S
O635 C641 1.272 . S
O636 Zn626 1.910 . S
O636 C642 1.231 . S
C637 O621 1.225 . S
C637 O643 1.298 . S
C638 O627 1.226 . S
C638 O628 1.307 . S
C639 O631 1.303 . S
C639 O632 1.247 . S
C640 O629 1.253 . S
C640 O630 1.283 . S
C641 O633 1.304 . S
C641 O635 1.272 . S
C642 O634 1.311 . S
C642 O636 1.231 . S
O643 Zn625 1.953 . S
O643 C637 1.298 . S
O644 Zn645 1.953 . S
O644 C660 1.225 . S
Zn645 O644 1.953 . S
Zn645 O646 1.949 . S
Zn645 O652 1.919 . S
Zn645 O657 1.924 . S
O646 Zn645 1.949 . S
O646 Zn647 1.923 . S
O646 Zn648 1.950 . S
O646 Zn649 1.945 . S
Zn647 O646 1.923 . S
Zn647 O650 1.933 . S
Zn647 O653 1.941 . S
Zn647 O654 1.965 . S
Zn648 O646 1.950 . S
Zn648 O655 1.938 . S
Zn648 O656 1.906 . S
Zn648 O666 1.953 . S
Zn649 O646 1.945 . S
Zn649 O651 1.932 . S
Zn649 O658 1.977 . S
Zn649 O659 1.910 . S
O650 Zn647 1.933 . S
O650 C661 1.226 . S
O651 Zn649 1.932 . S
O651 C661 1.307 . S
O652 Zn645 1.919 . S
O652 C663 1.253 . S
O653 Zn647 1.941 . S
O653 C663 1.283 . S
O654 Zn647 1.965 . S
O654 C662 1.300 1_556 S
O655 Zn648 1.938 . S
O655 C662 1.245 1_556 S
O656 Zn648 1.906 . S
O656 C664 1.304 . S
O657 Zn645 1.924 . S
O657 C665 1.311 . S
O658 Zn649 1.977 . S
O658 C664 1.272 . S
O659 Zn649 1.910 . S
O659 C665 1.231 . S
C660 O644 1.225 . S
C660 O666 1.298 . S
C661 O650 1.226 . S
C661 O651 1.307 . S
C662 O654 1.300 1_554 S
C662 O655 1.245 1_554 S
C663 O652 1.253 . S
C663 O653 1.283 . S
C664 O656 1.304 . S
C664 O658 1.272 . S
C665 O657 1.311 . S
C665 O659 1.231 . S
O666 Zn648 1.953 . S
O666 C660 1.298 . S
O667 Zn668 1.953 . S
O667 C683 1.225 . S
Zn668 O667 1.953 . S
Zn668 O669 1.949 . S
Zn668 O675 1.919 . S
Zn668 O680 1.924 . S
O669 Zn668 1.949 . S
O669 Zn670 1.923 . S
O669 Zn671 1.950 . S
O669 Zn672 1.945 . S
Zn670 O669 1.923 . S
Zn670 O673 1.933 . S
Zn670 O676 1.941 . S
Zn670 O677 1.965 . S
Zn671 O669 1.950 . S
Zn671 O678 1.938 . S
Zn671 O679 1.906 . S
Zn671 O689 1.953 . S
Zn672 O669 1.945 . S
Zn672 O674 1.932 . S
Zn672 O681 1.977 . S
Zn672 O682 1.910 . S
O673 Zn670 1.933 . S
O673 C684 1.226 . S
O674 Zn672 1.932 . S
O674 C684 1.307 . S
O675 Zn668 1.919 . S
O675 C686 1.253 . S
O676 Zn670 1.941 . S
O676 C686 1.283 . S
O677 Zn670 1.965 . S
O677 C685 1.300 1_556 S
O678 Zn671 1.938 . S
O678 C685 1.246 1_556 S
O679 Zn671 1.906 . S
O679 C687 1.304 . S
O680 Zn668 1.924 . S
O680 C688 1.311 . S
O681 Zn672 1.977 . S
O681 C687 1.272 . S
O682 Zn672 1.910 . S
O682 C688 1.231 . S
C683 O667 1.225 . S
C683 O689 1.298 . S
C684 O673 1.226 . S
C684 O674 1.307 . S
C685 O677 1.300 1_554 S
C685 O678 1.246 1_554 S
C686 O675 1.253 . S
C686 O676 1.283 . S
C687 O679 1.304 . S
C687 O681 1.272 . S
C688 O680 1.311 . S
C688 O682 1.231 . S
O689 Zn671 1.953 . S
O689 C683 1.298 . S
O690 Zn691 1.953 . S
O690 C706 1.225 . S
Zn691 O690 1.953 . S
Zn691 O692 1.949 . S
Zn691 O698 1.919 . S
Zn691 O703 1.924 . S
O692 Zn691 1.949 . S
O692 Zn693 1.923 . S
O692 Zn694 1.950 . S
O692 Zn695 1.945 . S
Zn693 O692 1.923 . S
Zn693 O696 1.933 . S
Zn693 O699 1.941 . S
Zn693 O700 1.965 . S
Zn694 O692 1.950 . S
Zn694 O701 1.938 . S
Zn694 O702 1.906 . S
Zn694 O712 1.953 . S
Zn695 O692 1.945 . S
Zn695 O697 1.932 . S
Zn695 O704 1.977 . S
Zn695 O705 1.910 . S
O696 Zn693 1.933 . S
O696 C707 1.226 . S
O697 Zn695 1.932 . S
O697 C707 1.307 . S
O698 Zn691 1.919 . S
O698 C709 1.253 . S
O699 Zn693 1.941 . S
O699 C709 1.283 . S
O700 Zn693 1.965 . S
O700 C708 1.303 . S
O701 Zn694 1.938 . S
O701 C708 1.247 . S
O702 Zn694 1.906 . S
O702 C710 1.304 . S
O703 Zn691 1.924 . S
O703 C711 1.311 . S
O704 Zn695 1.977 . S
O704 C710 1.272 . S
O705 Zn695 1.910 . S
O705 C711 1.231 . S
C706 O690 1.225 . S
C706 O712 1.298 . S
C707 O696 1.226 . S
C707 O697 1.307 . S
C708 O700 1.303 . S
C708 O701 1.247 . S
C709 O698 1.253 . S
C709 O699 1.283 . S
C710 O702 1.304 . S
C710 O704 1.272 . S
C711 O703 1.311 . S
C711 O705 1.231 . S
O712 Zn694 1.953 . S
O712 C706 1.298 . S
O713 Zn714 1.953 . S
O713 C729 1.225 . S
Zn714 O713 1.953 . S
Zn714 O715 1.949 . S
Zn714 O721 1.919 . S
Zn714 O726 1.924 . S
O715 Zn714 1.949 . S
O715 Zn716 1.923 . S
O715 Zn717 1.950 . S
O715 Zn718 1.945 . S
Zn716 O715 1.923 . S
Zn716 O719 1.933 . S
Zn716 O722 1.941 . S
Zn716 O723 1.965 . S
Zn717 O715 1.950 . S
Zn717 O724 1.938 . S
Zn717 O725 1.906 . S
Zn717 O735 1.953 . S
Zn718 O715 1.945 . S
Zn718 O720 1.932 . S
Zn718 O727 1.977 . S
Zn718 O728 1.910 . S
O719 Zn716 1.933 . S
O719 C730 1.226 . S
O720 Zn718 1.932 . S
O720 C730 1.307 . S
O721 Zn714 1.919 . S
O721 C732 1.253 . S
O722 Zn716 1.941 . S
O722 C732 1.283 . S
O723 Zn716 1.965 . S
O723 C731 1.303 . S
O724 Zn717 1.938 . S
O724 C731 1.247 . S
O725 Zn717 1.906 . S
O725 C733 1.304 . S
O726 Zn714 1.924 . S
O726 C734 1.311 . S
O727 Zn718 1.977 . S
O727 C733 1.272 . S
O728 Zn718 1.910 . S
O728 C734 1.231 . S
C729 O713 1.225 . S
C729 O735 1.298 . S
C730 O719 1.226 . S
C730 O720 1.307 . S
C731 O723 1.303 . S
C731 O724 1.247 . S
C732 O721 1.253 . S
C732 O722 1.283 . S
C733 O725 1.304 . S
C733 O727 1.272 . S
C734 O726 1.311 . S
C734 O728 1.231 . S
O735 Zn717 1.953 . S
O735 C729 1.298 . S
H736 C744 0.950 . S
H737 C749 0.950 . S
H738 C746 0.950 . S
H739 C748 0.950 . S
H740 C750 0.950 . S
H741 C752 0.950 . S
H742 C754 0.950 . S
H743 C755 0.950 . S
C744 H736 0.950 . S
C744 C745 1.386 . S
C744 C746 1.391 . S
C745 C744 1.386 . S
C745 C749 1.393 . S
C746 H738 0.950 . S
C746 C744 1.391 . S
C746 C747 1.400 . S
C747 C746 1.400 . S
C747 C748 1.398 . S
C747 C753 1.491 . S
C748 H739 0.950 . S
C748 C747 1.398 . S
C748 C749 1.391 . S
C749 H737 0.950 . S
C749 C745 1.393 . S
C749 C748 1.391 . S
C750 H740 0.950 . S
C750 C751 1.386 . S
C750 C752 1.391 . S
C751 C750 1.386 . S
C751 C755 1.393 . S
C752 H741 0.950 . S
C752 C750 1.391 . S
C752 C753 1.400 . S
C753 C747 1.491 . S
C753 C752 1.400 . S
C753 C754 1.398 . S
C754 H742 0.950 . S
C754 C753 1.398 . S
C754 C755 1.391 . S
C755 H743 0.950 . S
C755 C751 1.393 . S
C755 C754 1.391 . S
H756 C764 0.950 . S
H757 C769 0.950 . S
H758 C766 0.950 . S
H759 C768 0.950 . S
H760 C770 0.950 . S
H761 C772 0.950 . S
H762 C774 0.950 . S
H763 C775 0.950 . S
C764 H756 0.950 . S
C764 C765 1.386 . S
C764 C766 1.391 . S
C765 C764 1.386 . S
C765 C769 1.393 . S
C766 H758 0.950 . S
C766 C764 1.391 . S
C766 C767 1.400 . S
C767 C766 1.400 . S
C767 C768 1.398 . S
C767 C773 1.491 . S
C768 H759 0.950 . S
C768 C767 1.398 . S
C768 C769 1.391 . S
C769 H757 0.950 . S
C769 C765 1.393 . S
C769 C768 1.391 . S
C770 H760 0.950 . S
C770 C771 1.386 . S
C770 C772 1.391 . S
C771 C770 1.386 . S
C771 C775 1.393 . S
C772 H761 0.950 . S
C772 C770 1.391 . S
C772 C773 1.400 . S
C773 C767 1.491 . S
C773 C772 1.400 . S
C773 C774 1.398 . S
C774 H762 0.950 . S
C774 C773 1.398 . S
C774 C775 1.391 . S
C775 H763 0.950 . S
C775 C771 1.393 . S
C775 C774 1.391 . S
H776 C784 0.950 . S
H777 C789 0.950 . S
H778 C786 0.950 . S
H779 C788 0.950 . S
H780 C790 0.950 . S
H781 C792 0.950 . S
H782 C794 0.950 . S
H783 C795 0.950 . S
C784 H776 0.950 . S
C784 C785 1.386 . S
C784 C786 1.391 . S
C785 C784 1.386 . S
C785 C789 1.393 . S
C786 H778 0.950 . S
C786 C784 1.391 . S
C786 C787 1.400 . S
C787 C786 1.400 . S
C787 C788 1.398 . S
C787 C793 1.491 . S
C788 H779 0.950 . S
C788 C787 1.398 . S
C788 C789 1.391 . S
C789 H777 0.950 . S
C789 C785 1.393 . S
C789 C788 1.391 . S
C790 H780 0.950 . S
C790 C791 1.386 . S
C790 C792 1.391 . S
C791 C790 1.386 . S
C791 C795 1.393 . S
C792 H781 0.950 . S
C792 C790 1.391 . S
C792 C793 1.400 . S
C793 C787 1.491 . S
C793 C792 1.400 . S
C793 C794 1.398 . S
C794 H782 0.950 . S
C794 C793 1.398 . S
C794 C795 1.391 . S
C795 H783 0.950 . S
C795 C791 1.393 . S
C795 C794 1.391 . S
H796 C804 0.950 . S
H797 C809 0.950 . S
H798 C806 0.950 . S
H799 C808 0.950 . S
H800 C810 0.950 . S
H801 C812 0.950 . S
H802 C814 0.950 . S
H803 C815 0.950 . S
C804 H796 0.950 . S
C804 C805 1.386 . S
C804 C806 1.391 . S
C805 C804 1.386 . S
C805 C809 1.393 . S
C806 H798 0.950 . S
C806 C804 1.391 . S
C806 C807 1.400 . S
C807 C806 1.400 . S
C807 C808 1.398 . S
C807 C813 1.491 . S
C808 H799 0.950 . S
C808 C807 1.398 . S
C808 C809 1.391 . S
C809 H797 0.950 . S
C809 C805 1.393 . S
C809 C808 1.391 . S
C810 H800 0.950 . S
C810 C811 1.386 . S
C810 C812 1.391 . S
C811 C810 1.386 . S
C811 C815 1.393 . S
C812 H801 0.950 . S
C812 C810 1.391 . S
C812 C813 1.400 . S
C813 C807 1.491 . S
C813 C812 1.400 . S
C813 C814 1.398 . S
C814 H802 0.950 . S
C814 C813 1.398 . S
C814 C815 1.391 . S
C815 H803 0.950 . S
C815 C811 1.393 . S
C815 C814 1.391 . S
H816 C824 0.950 . S
H817 C829 0.950 . S
H818 C826 0.950 . S
H819 C828 0.950 . S
H820 C830 0.950 . S
H821 C832 0.950 . S
H822 C834 0.950 . S
H823 C835 0.950 . S
C824 H816 0.950 . S
C824 C825 1.386 . S
C824 C826 1.391 . S
C825 C824 1.386 . S
C825 C829 1.393 . S
C826 H818 0.950 . S
C826 C824 1.391 . S
C826 C827 1.400 . S
C827 C826 1.400 . S
C827 C828 1.398 . S
C827 C833 1.491 . S
C828 H819 0.950 . S
C828 C827 1.398 . S
C828 C829 1.391 . S
C829 H817 0.950 . S
C829 C825 1.393 . S
C829 C828 1.391 . S
C830 H820 0.950 . S
C830 C831 1.386 . S
C830 C832 1.391 . S
C831 C830 1.386 . S
C831 C835 1.393 . S
C832 H821 0.950 . S
C832 C830 1.391 . S
C832 C833 1.400 . S
C833 C827 1.491 . S
C833 C832 1.400 . S
C833 C834 1.398 . S
C834 H822 0.950 . S
C834 C833 1.398 . S
C834 C835 1.391 . S
C835 H823 0.950 . S
C835 C831 1.393 . S
C835 C834 1.391 . S
H836 C844 0.950 . S
H837 C849 0.950 . S
H838 C846 0.950 . S
H839 C848 0.950 . S
H840 C850 0.950 . S
H841 C852 0.950 . S
H842 C854 0.950 . S
H843 C855 0.950 . S
C844 H836 0.950 . S
C844 C845 1.386 . S
C844 C846 1.391 . S
C845 C844 1.386 . S
C845 C849 1.393 . S
C846 H838 0.950 . S
C846 C844 1.391 . S
C846 C847 1.400 . S
C847 C846 1.400 . S
C847 C848 1.398 . S
C847 C853 1.491 . S
C848 H839 0.950 . S
C848 C847 1.398 . S
C848 C849 1.391 . S
C849 H837 0.950 . S
C849 C845 1.393 . S
C849 C848 1.391 . S
C850 H840 0.950 . S
C850 C851 1.386 . S
C850 C852 1.391 . S
C851 C850 1.386 . S
C851 C855 1.393 . S
C852 H841 0.950 . S
C852 C850 1.391 . S
C852 C853 1.400 . S
C853 C847 1.491 . S
C853 C852 1.400 . S
C853 C854 1.398 . S
C854 H842 0.950 . S
C854 C853 1.398 . S
C854 C855 1.391 . S
C855 H843 0.950 . S
C855 C851 1.393 . S
C855 C854 1.391 . S
H856 C864 0.950 . S
H857 C869 0.950 . S
H858 C866 0.950 . S
H859 C868 0.950 . S
H860 C870 0.950 . S
H861 C872 0.950 . S
H862 C874 0.950 . S
H863 C875 0.950 . S
C864 H856 0.950 . S
C864 C865 1.386 . S
C864 C866 1.391 . S
C865 C864 1.386 . S
C865 C869 1.393 . S
C866 H858 0.950 . S
C866 C864 1.391 . S
C866 C867 1.400 . S
C867 C866 1.400 . S
C867 C868 1.398 . S
C867 C873 1.491 . S
C868 H859 0.950 . S
C868 C867 1.398 . S
C868 C869 1.391 . S
C869 H857 0.950 . S
C869 C865 1.393 . S
C869 C868 1.391 . S
C870 H860 0.950 . S
C870 C871 1.386 . S
C870 C872 1.391 . S
C871 C870 1.386 . S
C871 C875 1.393 . S
C872 H861 0.950 . S
C872 C870 1.391 . S
C872 C873 1.400 . S
C873 C867 1.491 . S
C873 C872 1.400 . S
C873 C874 1.398 . S
C874 H862 0.950 . S
C874 C873 1.398 . S
C874 C875 1.391 . S
C875 H863 0.950 . S
C875 C871 1.393 . S
C875 C874 1.391 . S
H876 C884 0.950 . S
H877 C889 0.950 . S
H878 C886 0.950 . S
H879 C888 0.950 . S
H880 C890 0.950 . S
H881 C892 0.950 . S
H882 C894 0.950 . S
H883 C895 0.950 . S
C884 H876 0.950 . S
C884 C885 1.386 . S
C884 C886 1.391 . S
C885 C884 1.386 . S
C885 C889 1.393 . S
C886 H878 0.950 . S
C886 C884 1.391 . S
C886 C887 1.400 . S
C887 C886 1.400 . S
C887 C888 1.398 . S
C887 C893 1.491 . S
C888 H879 0.950 . S
C888 C887 1.398 . S
C888 C889 1.391 . S
C889 H877 0.950 . S
C889 C885 1.393 . S
C889 C888 1.391 . S
C890 H880 0.950 . S
C890 C891 1.386 . S
C890 C892 1.391 . S
C891 C890 1.386 . S
C891 C895 1.393 . S
C892 H881 0.950 . S
C892 C890 1.391 . S
C892 C893 1.400 . S
C893 C887 1.491 . S
C893 C892 1.400 . S
C893 C894 1.398 . S
C894 H882 0.950 . S
C894 C893 1.398 . S
C894 C895 1.391 . S
C895 H883 0.950 . S
C895 C891 1.393 . S
C895 C894 1.391 . S
H896 C904 0.950 . S
H897 C909 0.950 . S
H898 C906 0.950 . S
H899 C908 0.950 . S
H900 C910 0.950 . S
H901 C912 0.950 . S
H902 C914 0.950 . S
H903 C915 0.950 . S
C904 H896 0.950 . S
C904 C905 1.386 . S
C904 C906 1.391 . S
C905 C904 1.386 . S
C905 C909 1.393 . S
C906 H898 0.950 . S
C906 C904 1.391 . S
C906 C907 1.400 . S
C907 C906 1.400 . S
C907 C908 1.398 . S
C907 C913 1.491 . S
C908 H899 0.950 . S
C908 C907 1.398 . S
C908 C909 1.391 . S
C909 H897 0.950 . S
C909 C905 1.393 . S
C909 C908 1.391 . S
C910 H900 0.950 . S
C910 C911 1.386 . S
C910 C912 1.391 . S
C911 C910 1.386 . S
C911 C915 1.393 . S
C912 H901 0.950 . S
C912 C910 1.391 . S
C912 C913 1.400 . S
C913 C907 1.491 . S
C913 C912 1.400 . S
C913 C914 1.398 . S
C914 H902 0.950 . S
C914 C913 1.398 . S
C914 C915 1.391 . S
C915 H903 0.950 . S
C915 C911 1.393 . S
C915 C914 1.391 . S
H916 C924 0.950 . S
H917 C929 0.950 . S
H918 C926 0.950 . S
H919 C928 0.950 . S
H920 C930 0.950 . S
H921 C932 0.950 . S
H922 C934 0.950 . S
H923 C935 0.950 . S
C924 H916 0.950 . S
C924 C925 1.386 . S
C924 C926 1.391 . S
C925 C924 1.386 . S
C925 C929 1.393 . S
C926 H918 0.950 . S
C926 C924 1.391 . S
C926 C927 1.400 . S
C927 C926 1.400 . S
C927 C928 1.398 . S
C927 C933 1.491 . S
C928 H919 0.950 . S
C928 C927 1.398 . S
C928 C929 1.391 . S
C929 H917 0.950 . S
C929 C925 1.393 . S
C929 C928 1.391 . S
C930 H920 0.950 . S
C930 C931 1.386 . S
C930 C932 1.391 . S
C931 C930 1.386 . S
C931 C935 1.393 . S
C932 H921 0.950 . S
C932 C930 1.391 . S
C932 C933 1.400 . S
C933 C927 1.491 . S
C933 C932 1.400 . S
C933 C934 1.398 . S
C934 H922 0.950 . S
C934 C933 1.398 . S
C934 C935 1.391 . S
C935 H923 0.950 . S
C935 C931 1.393 . S
C935 C934 1.391 . S
H936 C944 0.950 . S
H937 C949 0.950 . S
H938 C946 0.950 . S
H939 C948 0.950 . S
H940 C950 0.950 . S
H941 C952 0.950 . S
H942 C954 0.950 . S
H943 C955 0.950 . S
C944 H936 0.950 . S
C944 C945 1.386 . S
C944 C946 1.391 . S
C945 C944 1.386 . S
C945 C949 1.393 . S
C946 H938 0.950 . S
C946 C944 1.391 . S
C946 C947 1.400 . S
C947 C946 1.400 . S
C947 C948 1.398 . S
C947 C953 1.491 . S
C948 H939 0.950 . S
C948 C947 1.398 . S
C948 C949 1.391 . S
C949 H937 0.950 . S
C949 C945 1.393 . S
C949 C948 1.391 . S
C950 H940 0.950 . S
C950 C951 1.386 . S
C950 C952 1.391 . S
C951 C950 1.386 . S
C951 C955 1.393 . S
C952 H941 0.950 . S
C952 C950 1.391 . S
C952 C953 1.400 . S
C953 C947 1.491 . S
C953 C952 1.400 . S
C953 C954 1.398 . S
C954 H942 0.950 . S
C954 C953 1.398 . S
C954 C955 1.391 . S
C955 H943 0.950 . S
C955 C951 1.393 . S
C955 C954 1.391 . S
H956 C964 0.950 . S
H957 C969 0.950 . S
H958 C966 0.950 . S
H959 C968 0.950 . S
H960 C970 0.950 . S
H961 C972 0.950 . S
H962 C974 0.950 . S
H963 C975 0.950 . S
C964 H956 0.950 . S
C964 C965 1.386 . S
C964 C966 1.391 . S
C965 C964 1.386 . S
C965 C969 1.393 . S
C966 H958 0.950 . S
C966 C964 1.391 . S
C966 C967 1.400 . S
C967 C966 1.400 . S
C967 C968 1.398 . S
C967 C973 1.491 . S
C968 H959 0.950 . S
C968 C967 1.398 . S
C968 C969 1.391 . S
C969 H957 0.950 . S
C969 C965 1.393 . S
C969 C968 1.391 . S
C970 H960 0.950 . S
C970 C971 1.386 . S
C970 C972 1.391 . S
C971 C970 1.386 . S
C971 C975 1.393 . S
C972 H961 0.950 . S
C972 C970 1.391 . S
C972 C973 1.400 . S
C973 C967 1.491 . S
C973 C972 1.400 . S
C973 C974 1.398 . S
C974 H962 0.950 . S
C974 C973 1.398 . S
C974 C975 1.391 . S
C975 H963 0.950 . S
C975 C971 1.393 . S
C975 C974 1.391 . S
H976 C984 0.950 . S
H977 C989 0.950 . S
H978 C986 0.950 . S
H979 C988 0.950 . S
H980 C990 0.950 . S
H981 C992 0.950 . S
H982 C994 0.950 . S
H983 C995 0.950 . S
C984 H976 0.950 . S
C984 C985 1.386 . S
C984 C986 1.391 . S
C985 C984 1.386 . S
C985 C989 1.393 . S
C986 H978 0.950 . S
C986 C984 1.391 . S
C986 C987 1.400 . S
C987 C986 1.400 . S
C987 C988 1.398 . S
C987 C993 1.491 . S
C988 H979 0.950 . S
C988 C987 1.398 . S
C988 C989 1.391 . S
C989 H977 0.950 . S
C989 C985 1.393 . S
C989 C988 1.391 . S
C990 H980 0.950 . S
C990 C991 1.386 . S
C990 C992 1.391 . S
C991 C990 1.386 . S
C991 C995 1.393 . S
C992 H981 0.950 . S
C992 C990 1.391 . S
C992 C993 1.400 . S
C993 C987 1.491 . S
C993 C992 1.400 . S
C993 C994 1.398 . S
C994 H982 0.950 . S
C994 C993 1.398 . S
C994 C995 1.391 . S
C995 H983 0.950 . S
C995 C991 1.393 . S
C995 C994 1.391 . S
H996 C1004 0.950 . S
H997 C1009 0.950 . S
H998 C1006 0.950 . S
H999 C1008 0.950 . S
H1000 C1010 0.950 . S
H1001 C1012 0.950 . S
H1002 C1014 0.950 . S
H1003 C1015 0.950 . S
C1004 H996 0.950 . S
C1004 C1005 1.386 . S
C1004 C1006 1.391 . S
C1005 C1004 1.386 . S
C1005 C1009 1.393 . S
C1006 H998 0.950 . S
C1006 C1004 1.391 . S
C1006 C1007 1.400 . S
C1007 C1006 1.400 . S
C1007 C1008 1.398 . S
C1007 C1013 1.491 . S
C1008 H999 0.950 . S
C1008 C1007 1.398 . S
C1008 C1009 1.391 . S
C1009 H997 0.950 . S
C1009 C1005 1.393 . S
C1009 C1008 1.391 . S
C1010 H1000 0.950 . S
C1010 C1011 1.386 . S
C1010 C1012 1.391 . S
C1011 C1010 1.386 . S
C1011 C1015 1.393 . S
C1012 H1001 0.950 . S
C1012 C1010 1.391 . S
C1012 C1013 1.400 . S
C1013 C1007 1.491 . S
C1013 C1012 1.400 . S
C1013 C1014 1.398 . S
C1014 H1002 0.950 . S
C1014 C1013 1.398 . S
C1014 C1015 1.391 . S
C1015 H1003 0.950 . S
C1015 C1011 1.393 . S
C1015 C1014 1.391 . S
H1016 C1024 0.950 . S
H1017 C1029 0.950 . S
H1018 C1026 0.950 . S
H1019 C1028 0.950 . S
H1020 C1030 0.950 . S
H1021 C1032 0.950 . S
H1022 C1034 0.950 . S
H1023 C1035 0.950 . S
C1024 H1016 0.950 . S
C1024 C1025 1.386 . S
C1024 C1026 1.391 . S
C1025 C1024 1.386 . S
C1025 C1029 1.393 . S
C1026 H1018 0.950 . S
C1026 C1024 1.391 . S
C1026 C1027 1.400 . S
C1027 C1026 1.400 . S
C1027 C1028 1.398 . S
C1027 C1033 1.491 . S
C1028 H1019 0.950 . S
C1028 C1027 1.398 . S
C1028 C1029 1.391 . S
C1029 H1017 0.950 . S
C1029 C1025 1.393 . S
C1029 C1028 1.391 . S
C1030 H1020 0.950 . S
C1030 C1031 1.386 . S
C1030 C1032 1.391 . S
C1031 C1030 1.386 . S
C1031 C1035 1.393 . S
C1032 H1021 0.950 . S
C1032 C1030 1.391 . S
C1032 C1033 1.400 . S
C1033 C1027 1.491 . S
C1033 C1032 1.400 . S
C1033 C1034 1.398 . S
C1034 H1022 0.950 . S
C1034 C1033 1.398 . S
C1034 C1035 1.391 . S
C1035 H1023 0.950 . S
C1035 C1031 1.393 . S
C1035 C1034 1.391 . S
H1036 C1044 0.950 . S
H1037 C1049 0.950 . S
H1038 C1046 0.950 . S
H1039 C1048 0.950 . S
H1040 C1050 0.950 . S
H1041 C1052 0.950 . S
H1042 C1054 0.950 . S
H1043 C1055 0.950 . S
C1044 H1036 0.950 . S
C1044 C1045 1.386 . S
C1044 C1046 1.391 . S
C1045 C1044 1.386 . S
C1045 C1049 1.393 . S
C1046 H1038 0.950 . S
C1046 C1044 1.391 . S
C1046 C1047 1.400 . S
C1047 C1046 1.400 . S
C1047 C1048 1.398 . S
C1047 C1053 1.491 . S
C1048 H1039 0.950 . S
C1048 C1047 1.398 . S
C1048 C1049 1.391 . S
C1049 H1037 0.950 . S
C1049 C1045 1.393 . S
C1049 C1048 1.391 . S
C1050 H1040 0.950 . S
C1050 C1051 1.386 . S
C1050 C1052 1.391 . S
C1051 C1050 1.386 . S
C1051 C1055 1.393 . S
C1052 H1041 0.950 . S
C1052 C1050 1.391 . S
C1052 C1053 1.400 . S
C1053 C1047 1.491 . S
C1053 C1052 1.400 . S
C1053 C1054 1.398 . S
C1054 H1042 0.950 . S
C1054 C1053 1.398 . S
C1054 C1055 1.391 . S
C1055 H1043 0.950 . S
C1055 C1051 1.393 . S
C1055 C1054 1.391 . S
H1056 C1064 0.950 . S
H1057 C1069 0.950 . S
H1058 C1066 0.950 . S
H1059 C1068 0.950 . S
H1060 C1070 0.950 . S
H1061 C1072 0.950 . S
H1062 C1074 0.950 . S
H1063 C1075 0.950 . S
C1064 H1056 0.950 . S
C1064 C1065 1.386 1_545 S
C1064 C1066 1.391 . S
C1065 C1064 1.386 1_565 S
C1065 C1069 1.393 . S
C1066 H1058 0.950 . S
C1066 C1064 1.391 . S
C1066 C1067 1.375 1_545 S
C1067 C1066 1.375 1_565 S
C1067 C1068 1.425 . S
C1067 C1073 1.489 1_565 S
C1068 H1059 0.950 . S
C1068 C1067 1.425 . S
C1068 C1069 1.391 . S
C1069 H1057 0.950 . S
C1069 C1065 1.393 . S
C1069 C1068 1.391 . S
C1070 H1060 0.950 . S
C1070 C1071 1.386 1_565 S
C1070 C1072 1.391 . S
C1071 C1070 1.386 1_545 S
C1071 C1075 1.393 . S
C1072 H1061 0.950 . S
C1072 C1070 1.391 . S
C1072 C1073 1.375 1_565 S
C1073 C1067 1.489 1_545 S
C1073 C1072 1.375 1_545 S
C1073 C1074 1.426 . S
C1074 H1062 0.950 . S
C1074 C1073 1.426 . S
C1074 C1075 1.391 . S
C1075 H1063 0.950 . S
C1075 C1071 1.393 . S
C1075 C1074 1.391 . S
H1076 C1084 0.950 . S
H1077 C1089 0.950 . S
H1078 C1086 0.950 1_655 S
H1079 C1088 0.950 . S
H1080 C1090 0.950 . S
H1081 C1092 0.950 1_455 S
H1082 C1094 0.950 . S
H1083 C1095 0.950 . S
C1084 H1076 0.950 . S
C1084 C1085 1.386 . S
C1084 C1086 1.391 . S
C1085 C1084 1.386 . S
C1085 C1089 1.393 . S
C1086 H1078 0.950 1_455 S
C1086 C1084 1.391 . S
C1086 C1087 1.400 . S
C1087 C1086 1.400 . S
C1087 C1088 1.398 . S
C1087 C1093 1.491 1_455 S
C1088 H1079 0.950 . S
C1088 C1087 1.398 . S
C1088 C1089 1.391 . S
C1089 H1077 0.950 . S
C1089 C1085 1.393 . S
C1089 C1088 1.391 . S
C1090 H1080 0.950 . S
C1090 C1091 1.386 . S
C1090 C1092 1.391 . S
C1091 C1090 1.386 . S
C1091 C1095 1.393 . S
C1092 H1081 0.950 1_655 S
C1092 C1090 1.391 . S
C1092 C1093 1.400 . S
C1093 C1087 1.491 1_655 S
C1093 C1092 1.400 . S
C1093 C1094 1.398 . S
C1094 H1082 0.950 . S
C1094 C1093 1.398 . S
C1094 C1095 1.391 . S
C1095 H1083 0.950 . S
C1095 C1091 1.393 . S
C1095 C1094 1.391 . S
H1096 C1104 0.950 . S
H1097 C1109 0.950 . S
H1098 C1106 0.950 . S
H1099 C1108 0.950 1_554 S
H1100 C1110 0.950 . S
H1101 C1112 0.950 . S
H1102 C1114 0.950 1_556 S
H1103 C1115 0.950 . S
C1104 H1096 0.950 . S
C1104 C1105 1.386 . S
C1104 C1106 1.391 . S
C1105 C1104 1.386 . S
C1105 C1109 1.393 . S
C1106 H1098 0.950 . S
C1106 C1104 1.391 . S
C1106 C1107 1.400 . S
C1107 C1106 1.400 . S
C1107 C1108 1.398 . S
C1107 C1113 1.491 1_556 S
C1108 H1099 0.950 1_556 S
C1108 C1107 1.398 . S
C1108 C1109 1.391 . S
C1109 H1097 0.950 . S
C1109 C1105 1.393 . S
C1109 C1108 1.391 . S
C1110 H1100 0.950 . S
C1110 C1111 1.386 . S
C1110 C1112 1.391 . S
C1111 C1110 1.386 . S
C1111 C1115 1.393 . S
C1112 H1101 0.950 . S
C1112 C1110 1.391 . S
C1112 C1113 1.400 . S
C1113 C1107 1.491 1_554 S
C1113 C1112 1.400 . S
C1113 C1114 1.398 . S
C1114 H1102 0.950 1_554 S
C1114 C1113 1.398 . S
C1114 C1115 1.391 . S
C1115 H1103 0.950 . S
C1115 C1111 1.393 . S
C1115 C1114 1.391 . S
H1116 C1124 0.950 . S
H1117 C1129 0.950 . S
H1118 C1126 0.950 . S
H1119 C1128 0.950 . S
H1120 C1130 0.950 . S
H1121 C1132 0.950 . S
H1122 C1134 0.950 . S
H1123 C1135 0.950 . S
C1124 H1116 0.950 . S
C1124 C1125 1.386 1_545 S
C1124 C1126 1.391 . S
C1125 C1124 1.386 1_565 S
C1125 C1129 1.393 . S
C1126 H1118 0.950 . S
C1126 C1124 1.391 . S
C1126 C1127 1.372 1_545 S
C1127 C1126 1.372 1_565 S
C1127 C1128 1.429 . S
C1127 C1133 1.488 1_664 S
C1128 H1119 0.950 . S
C1128 C1127 1.429 . S
C1128 C1129 1.391 . S
C1129 H1117 0.950 . S
C1129 C1125 1.393 . S
C1129 C1128 1.391 . S
C1130 H1120 0.950 . S
C1130 C1131 1.386 1_565 S
C1130 C1132 1.391 . S
C1131 C1130 1.386 1_545 S
C1131 C1135 1.393 . S
C1132 H1121 0.950 . S
C1132 C1130 1.391 . S
C1132 C1133 1.372 1_565 S
C1133 C1127 1.488 1_446 S
C1133 C1132 1.372 1_545 S
C1133 C1134 1.429 . S
C1134 H1122 0.950 . S
C1134 C1133 1.429 . S
C1134 C1135 1.391 . S
C1135 H1123 0.950 . S
C1135 C1131 1.393 . S
C1135 C1134 1.391 . S
H1136 C1144 0.950 . S
H1137 C1149 0.950 . S
H1138 C1146 0.950 . S
H1139 C1148 0.950 . S
H1140 C1150 0.950 . S
H1141 C1152 0.950 . S
H1142 C1154 0.950 . S
H1143 C1155 0.950 . S
C1144 H1136 0.950 . S
C1144 C1145 1.386 1_565 S
C1144 C1146 1.391 . S
C1145 C1144 1.386 1_545 S
C1145 C1149 1.393 . S
C1146 H1138 0.950 . S
C1146 C1144 1.391 . S
C1146 C1147 1.398 1_565 S
C1147 C1146 1.398 1_545 S
C1147 C1148 1.400 . S
C1147 C1153 1.490 1_545 S
C1148 H1139 0.950 . S
C1148 C1147 1.400 . S
C1148 C1149 1.391 . S
C1149 H1137 0.950 . S
C1149 C1145 1.393 . S
C1149 C1148 1.391 . S
C1150 H1140 0.950 . S
C1150 C1151 1.386 1_545 S
C1150 C1152 1.391 . S
C1151 C1150 1.386 1_565 S
C1151 C1155 1.393 . S
C1152 H1141 0.950 . S
C1152 C1150 1.391 . S
C1152 C1153 1.398 1_545 S
C1153 C1147 1.490 1_565 S
C1153 C1152 1.398 1_565 S
C1153 C1154 1.400 . S
C1154 H1142 0.950 . S
C1154 C1153 1.400 . S
C1154 C1155 1.391 . S
C1155 H1143 0.950 . S
C1155 C1151 1.393 . S
C1155 C1154 1.391 . S
H1156 C1164 0.950 . S
H1157 C1169 0.950 . S
H1158 C1166 0.950 1_655 S
H1159 C1168 0.950 . S
H1160 C1170 0.950 . S
H1161 C1172 0.950 1_455 S
H1162 C1174 0.950 . S
H1163 C1175 0.950 . S
C1164 H1156 0.950 . S
C1164 C1165 1.386 . S
C1164 C1166 1.391 . S
C1165 C1164 1.386 . S
C1165 C1169 1.393 . S
C1166 H1158 0.950 1_455 S
C1166 C1164 1.391 . S
C1166 C1167 1.400 . S
C1167 C1166 1.400 . S
C1167 C1168 1.398 . S
C1167 C1173 1.491 1_455 S
C1168 H1159 0.950 . S
C1168 C1167 1.398 . S
C1168 C1169 1.391 . S
C1169 H1157 0.950 . S
C1169 C1165 1.393 . S
C1169 C1168 1.391 . S
C1170 H1160 0.950 . S
C1170 C1171 1.386 . S
C1170 C1172 1.391 . S
C1171 C1170 1.386 . S
C1171 C1175 1.393 . S
C1172 H1161 0.950 1_655 S
C1172 C1170 1.391 . S
C1172 C1173 1.400 . S
C1173 C1167 1.491 1_655 S
C1173 C1172 1.400 . S
C1173 C1174 1.398 . S
C1174 H1162 0.950 . S
C1174 C1173 1.398 . S
C1174 C1175 1.391 . S
C1175 H1163 0.950 . S
C1175 C1171 1.393 . S
C1175 C1174 1.391 . S
H1176 C1184 0.950 . S
H1177 C1189 0.950 . S
H1178 C1186 0.950 . S
H1179 C1188 0.950 . S
H1180 C1190 0.950 . S
H1181 C1192 0.950 . S
H1182 C1194 0.950 . S
H1183 C1195 0.950 . S
C1184 H1176 0.950 . S
C1184 C1185 1.386 . S
C1184 C1186 1.391 . S
C1185 C1184 1.386 . S
C1185 C1189 1.393 . S
C1186 H1178 0.950 . S
C1186 C1184 1.391 . S
C1186 C1187 1.400 . S
C1187 C1186 1.400 . S
C1187 C1188 1.398 . S
C1187 C1193 1.491 1_556 S
C1188 H1179 0.950 . S
C1188 C1187 1.398 . S
C1188 C1189 1.391 . S
C1189 H1177 0.950 . S
C1189 C1185 1.393 . S
C1189 C1188 1.391 . S
C1190 H1180 0.950 . S
C1190 C1191 1.386 . S
C1190 C1192 1.391 . S
C1191 C1190 1.386 . S
C1191 C1195 1.393 . S
C1192 H1181 0.950 . S
C1192 C1190 1.391 . S
C1192 C1193 1.400 . S
C1193 C1187 1.491 1_554 S
C1193 C1192 1.400 . S
C1193 C1194 1.398 . S
C1194 H1182 0.950 . S
C1194 C1193 1.398 . S
C1194 C1195 1.391 . S
C1195 H1183 0.950 . S
C1195 C1191 1.393 . S
C1195 C1194 1.391 . S
H1196 C1204 0.950 . S
H1197 C1209 0.950 . S
H1198 C1206 0.950 . S
H1199 C1208 0.950 . S
H1200 C1210 0.950 . S
H1201 C1212 0.950 . S
H1202 C1214 0.950 . S
H1203 C1215 0.950 . S
C1204 H1196 0.950 . S
C1204 C1205 1.386 . S
C1204 C1206 1.391 . S
C1205 C1204 1.386 . S
C1205 C1209 1.393 . S
C1206 H1198 0.950 . S
C1206 C1204 1.391 . S
C1206 C1207 1.400 . S
C1207 C1206 1.400 . S
C1207 C1208 1.398 . S
C1207 C1213 1.491 . S
C1208 H1199 0.950 . S
C1208 C1207 1.398 . S
C1208 C1209 1.391 . S
C1209 H1197 0.950 . S
C1209 C1205 1.393 . S
C1209 C1208 1.391 . S
C1210 H1200 0.950 . S
C1210 C1211 1.386 . S
C1210 C1212 1.391 . S
C1211 C1210 1.386 . S
C1211 C1215 1.393 . S
C1212 H1201 0.950 . S
C1212 C1210 1.391 . S
C1212 C1213 1.400 . S
C1213 C1207 1.491 . S
C1213 C1212 1.400 . S
C1213 C1214 1.398 . S
C1214 H1202 0.950 . S
C1214 C1213 1.398 . S
C1214 C1215 1.391 . S
C1215 H1203 0.950 . S
C1215 C1211 1.393 . S
C1215 C1214 1.391 . S
H1216 C1224 0.950 . S
H1217 C1229 0.950 . S
H1218 C1226 0.950 . S
H1219 C1228 0.950 . S
H1220 C1230 0.950 . S
H1221 C1232 0.950 . S
H1222 C1234 0.950 . S
H1223 C1235 0.950 . S
C1224 H1216 0.950 . S
C1224 C1225 1.386 . S
C1224 C1226 1.391 . S
C1225 C1224 1.386 . S
C1225 C1229 1.393 . S
C1226 H1218 0.950 . S
C1226 C1224 1.391 . S
C1226 C1227 1.400 . S
C1227 C1226 1.400 . S
C1227 C1228 1.398 . S
C1227 C1233 1.491 . S
C1228 H1219 0.950 . S
C1228 C1227 1.398 . S
C1228 C1229 1.391 . S
C1229 H1217 0.950 . S
C1229 C1225 1.393 . S
C1229 C1228 1.391 . S
C1230 H1220 0.950 . S
C1230 C1231 1.386 . S
C1230 C1232 1.391 . S
C1231 C1230 1.386 . S
C1231 C1235 1.393 . S
C1232 H1221 0.950 . S
C1232 C1230 1.391 . S
C1232 C1233 1.400 . S
C1233 C1227 1.491 . S
C1233 C1232 1.400 . S
C1233 C1234 1.398 . S
C1234 H1222 0.950 . S
C1234 C1233 1.398 . S
C1234 C1235 1.391 . S
C1235 H1223 0.950 . S
C1235 C1231 1.393 . S
C1235 C1234 1.391 . S
H1236 C1244 0.950 . S
H1237 C1249 0.950 . S
H1238 C1246 0.950 1_655 S
H1239 C1248 0.950 . S
H1240 C1250 0.950 . S
H1241 C1252 0.950 1_455 S
H1242 C1254 0.950 . S
H1243 C1255 0.950 . S
C1244 H1236 0.950 . S
C1244 C1245 1.386 . S
C1244 C1246 1.391 . S
C1245 C1244 1.386 . S
C1245 C1249 1.393 . S
C1246 H1238 0.950 1_455 S
C1246 C1244 1.391 . S
C1246 C1247 1.400 . S
C1247 C1246 1.400 . S
C1247 C1248 1.398 . S
C1247 C1253 1.491 1_455 S
C1248 H1239 0.950 . S
C1248 C1247 1.398 . S
C1248 C1249 1.391 . S
C1249 H1237 0.950 . S
C1249 C1245 1.393 . S
C1249 C1248 1.391 . S
C1250 H1240 0.950 . S
C1250 C1251 1.386 . S
C1250 C1252 1.391 . S
C1251 C1250 1.386 . S
C1251 C1255 1.393 . S
C1252 H1241 0.950 1_655 S
C1252 C1250 1.391 . S
C1252 C1253 1.400 . S
C1253 C1247 1.491 1_655 S
C1253 C1252 1.400 . S
C1253 C1254 1.398 . S
C1254 H1242 0.950 . S
C1254 C1253 1.398 . S
C1254 C1255 1.391 . S
C1255 H1243 0.950 . S
C1255 C1251 1.393 . S
C1255 C1254 1.391 . S
H1256 C1264 0.950 . S
H1257 C1269 0.950 . S
H1258 C1266 0.950 . S
H1259 C1268 0.950 . S
H1260 C1270 0.950 . S
H1261 C1272 0.950 . S
H1262 C1274 0.950 . S
H1263 C1275 0.950 . S
C1264 H1256 0.950 . S
C1264 C1265 1.386 . S
C1264 C1266 1.391 . S
C1265 C1264 1.386 . S
C1265 C1269 1.393 . S
C1266 H1258 0.950 . S
C1266 C1264 1.391 . S
C1266 C1267 1.400 . S
C1267 C1266 1.400 . S
C1267 C1268 1.398 . S
C1267 C1273 1.491 . S
C1268 H1259 0.950 . S
C1268 C1267 1.398 . S
C1268 C1269 1.391 . S
C1269 H1257 0.950 . S
C1269 C1265 1.393 . S
C1269 C1268 1.391 . S
C1270 H1260 0.950 . S
C1270 C1271 1.386 . S
C1270 C1272 1.391 . S
C1271 C1270 1.386 . S
C1271 C1275 1.393 . S
C1272 H1261 0.950 . S
C1272 C1270 1.391 . S
C1272 C1273 1.400 . S
C1273 C1267 1.491 . S
C1273 C1272 1.400 . S
C1273 C1274 1.398 . S
C1274 H1262 0.950 . S
C1274 C1273 1.398 . S
C1274 C1275 1.391 . S
C1275 H1263 0.950 . S
C1275 C1271 1.393 . S
C1275 C1274 1.391 . S
H1276 C1284 0.950 . S
H1277 C1289 0.950 . S
H1278 C1286 0.950 . S
H1279 C1288 0.950 . S
H1280 C1290 0.950 . S
H1281 C1292 0.950 . S
H1282 C1294 0.950 . S
H1283 C1295 0.950 . S
C1284 H1276 0.950 . S
C1284 C1285 1.386 . S
C1284 C1286 1.391 . S
C1285 C1284 1.386 . S
C1285 C1289 1.393 . S
C1286 H1278 0.950 . S
C1286 C1284 1.391 . S
C1286 C1287 1.400 . S
C1287 C1286 1.400 . S
C1287 C1288 1.398 . S
C1287 C1293 1.491 . S
C1288 H1279 0.950 . S
C1288 C1287 1.398 . S
C1288 C1289 1.391 . S
C1289 H1277 0.950 . S
C1289 C1285 1.393 . S
C1289 C1288 1.391 . S
C1290 H1280 0.950 . S
C1290 C1291 1.386 . S
C1290 C1292 1.391 . S
C1291 C1290 1.386 . S
C1291 C1295 1.393 . S
C1292 H1281 0.950 . S
C1292 C1290 1.391 . S
C1292 C1293 1.400 . S
C1293 C1287 1.491 . S
C1293 C1292 1.400 . S
C1293 C1294 1.398 . S
C1294 H1282 0.950 . S
C1294 C1293 1.398 . S
C1294 C1295 1.391 . S
C1295 H1283 0.950 . S
C1295 C1291 1.393 . S
C1295 C1294 1.391 . S
H1296 C1304 0.950 . S
H1297 C1309 0.950 . S
H1298 C1306 0.950 . S
H1299 C1308 0.950 . S
H1300 C1310 0.950 . S
H1301 C1312 0.950 . S
H1302 C1314 0.950 . S
H1303 C1315 0.950 . S
C1304 H1296 0.950 . S
C1304 C1305 1.386 . S
C1304 C1306 1.391 . S
C1305 C1304 1.386 . S
C1305 C1309 1.393 . S
C1306 H1298 0.950 . S
C1306 C1304 1.391 . S
C1306 C1307 1.400 . S
C1307 C1306 1.400 . S
C1307 C1308 1.398 . S
C1307 C1313 1.491 . S
C1308 H1299 0.950 . S
C1308 C1307 1.398 . S
C1308 C1309 1.391 . S
C1309 H1297 0.950 . S
C1309 C1305 1.393 . S
C1309 C1308 1.391 . S
C1310 H1300 0.950 . S
C1310 C1311 1.386 . S
C1310 C1312 1.391 . S
C1311 C1310 1.386 . S
C1311 C1315 1.393 . S
C1312 H1301 0.950 . S
C1312 C1310 1.391 . S
C1312 C1313 1.400 . S
C1313 C1307 1.491 . S
C1313 C1312 1.400 . S
C1313 C1314 1.398 . S
C1314 H1302 0.950 . S
C1314 C1313 1.398 . S
C1314 C1315 1.391 . S
C1315 H1303 0.950 . S
C1315 C1311 1.393 . S
C1315 C1314 1.391 . S
H1316 C1324 0.950 . S
H1317 C1329 0.950 . S
H1318 C1326 0.950 . S
H1319 C1328 0.950 . S
H1320 C1330 0.950 . S
H1321 C1332 0.950 . S
H1322 C1334 0.950 . S
H1323 C1335 0.950 . S
C1324 H1316 0.950 . S
C1324 C1325 1.386 1_545 S
C1324 C1326 1.391 . S
C1325 C1324 1.386 1_565 S
C1325 C1329 1.393 . S
C1326 H1318 0.950 . S
C1326 C1324 1.391 . S
C1326 C1327 1.397 1_545 S
C1327 C1326 1.397 1_565 S
C1327 C1328 1.402 . S
C1327 C1333 1.490 1_565 S
C1328 H1319 0.950 . S
C1328 C1327 1.402 . S
C1328 C1329 1.391 . S
C1329 H1317 0.950 . S
C1329 C1325 1.393 . S
C1329 C1328 1.391 . S
C1330 H1320 0.950 . S
C1330 C1331 1.386 1_565 S
C1330 C1332 1.391 . S
C1331 C1330 1.386 1_545 S
C1331 C1335 1.393 . S
C1332 H1321 0.950 . S
C1332 C1330 1.391 . S
C1332 C1333 1.397 1_565 S
C1333 C1327 1.490 1_545 S
C1333 C1332 1.397 1_545 S
C1333 C1334 1.402 . S
C1334 H1322 0.950 . S
C1334 C1333 1.402 . S
C1334 C1335 1.391 . S
C1335 H1323 0.950 . S
C1335 C1331 1.393 . S
C1335 C1334 1.391 . S
H1336 C1344 0.950 . S
H1337 C1349 0.950 . S
H1338 C1346 0.950 . S
H1339 C1348 0.950 . S
H1340 C1350 0.950 . S
H1341 C1352 0.950 . S
H1342 C1354 0.950 . S
H1343 C1355 0.950 . S
C1344 H1336 0.950 . S
C1344 C1345 1.386 . S
C1344 C1346 1.391 . S
C1345 C1344 1.386 . S
C1345 C1349 1.393 . S
C1346 H1338 0.950 . S
C1346 C1344 1.391 . S
C1346 C1347 1.400 . S
C1347 C1346 1.400 . S
C1347 C1348 1.398 . S
C1347 C1353 1.491 . S
C1348 H1339 0.950 . S
C1348 C1347 1.398 . S
C1348 C1349 1.391 . S
C1349 H1337 0.950 . S
C1349 C1345 1.393 . S
C1349 C1348 1.391 . S
C1350 H1340 0.950 . S
C1350 C1351 1.386 . S
C1350 C1352 1.391 . S
C1351 C1350 1.386 . S
C1351 C1355 1.393 . S
C1352 H1341 0.950 . S
C1352 C1350 1.391 . S
C1352 C1353 1.400 . S
C1353 C1347 1.491 . S
C1353 C1352 1.400 . S
C1353 C1354 1.398 . S
C1354 H1342 0.950 . S
C1354 C1353 1.398 . S
C1354 C1355 1.391 . S
C1355 H1343 0.950 . S
C1355 C1351 1.393 . S
C1355 C1354 1.391 . S
H1356 C1364 0.950 . S
H1357 C1369 0.950 . S
H1358 C1366 0.950 . S
H1359 C1368 0.950 1_556 S
H1360 C1370 0.950 . S
H1361 C1372 0.950 . S
H1362 C1374 0.950 1_554 S
H1363 C1375 0.950 . S
C1364 H1356 0.950 . S
C1364 C1365 1.386 . S
C1364 C1366 1.391 . S
C1365 C1364 1.386 . S
C1365 C1369 1.393 . S
C1366 H1358 0.950 . S
C1366 C1364 1.391 . S
C1366 C1367 1.400 . S
C1367 C1366 1.400 . S
C1367 C1368 1.398 . S
C1367 C1373 1.491 1_554 S
C1368 H1359 0.950 1_554 S
C1368 C1367 1.398 . S
C1368 C1369 1.391 . S
C1369 H1357 0.950 . S
C1369 C1365 1.393 . S
C1369 C1368 1.391 . S
C1370 H1360 0.950 . S
C1370 C1371 1.386 . S
C1370 C1372 1.391 . S
C1371 C1370 1.386 . S
C1371 C1375 1.393 . S
C1372 H1361 0.950 . S
C1372 C1370 1.391 . S
C1372 C1373 1.400 . S
C1373 C1367 1.491 1_556 S
C1373 C1372 1.400 . S
C1373 C1374 1.398 . S
C1374 H1362 0.950 1_556 S
C1374 C1373 1.398 . S
C1374 C1375 1.391 . S
C1375 H1363 0.950 . S
C1375 C1371 1.393 . S
C1375 C1374 1.391 . S
H1376 C1384 0.950 . S
H1377 C1389 0.950 . S
H1378 C1386 0.950 . S
H1379 C1388 0.950 . S
H1380 C1390 0.950 . S
H1381 C1392 0.950 . S
H1382 C1394 0.950 . S
H1383 C1395 0.950 . S
C1384 H1376 0.950 . S
C1384 C1385 1.386 . S
C1384 C1386 1.391 . S
C1385 C1384 1.386 . S
C1385 C1389 1.393 1_545 S
C1386 H1378 0.950 . S
C1386 C1384 1.391 . S
C1386 C1387 1.400 . S
C1387 C1386 1.400 . S
C1387 C1388 1.398 1_545 S
C1387 C1393 1.491 . S
C1388 H1379 0.950 . S
C1388 C1387 1.398 1_565 S
C1388 C1389 1.391 . S
C1389 H1377 0.950 . S
C1389 C1385 1.393 1_565 S
C1389 C1388 1.391 . S
C1390 H1380 0.950 . S
C1390 C1391 1.386 1_565 S
C1390 C1392 1.391 . S
C1391 C1390 1.386 1_545 S
C1391 C1395 1.393 . S
C1392 H1381 0.950 . S
C1392 C1390 1.391 . S
C1392 C1393 1.400 1_565 S
C1393 C1387 1.491 . S
C1393 C1392 1.400 1_545 S
C1393 C1394 1.398 . S
C1394 H1382 0.950 . S
C1394 C1393 1.398 . S
C1394 C1395 1.391 . S
C1395 H1383 0.950 . S
C1395 C1391 1.393 . S
C1395 C1394 1.391 . S
H1396 C1404 0.950 . S
H1397 C1409 0.950 . S
H1398 C1406 0.950 . S
H1399 C1408 0.950 . S
H1400 C1410 0.950 . S
H1401 C1412 0.950 . S
H1402 C1414 0.950 . S
H1403 C1415 0.950 . S
C1404 H1396 0.950 . S
C1404 C1405 1.386 . S
C1404 C1406 1.391 . S
C1405 C1404 1.386 . S
C1405 C1409 1.393 . S
C1406 H1398 0.950 . S
C1406 C1404 1.391 . S
C1406 C1407 1.400 . S
C1407 C1406 1.400 . S
C1407 C1408 1.398 . S
C1407 C1413 1.491 . S
C1408 H1399 0.950 . S
C1408 C1407 1.398 . S
C1408 C1409 1.391 . S
C1409 H1397 0.950 . S
C1409 C1405 1.393 . S
C1409 C1408 1.391 . S
C1410 H1400 0.950 . S
C1410 C1411 1.386 . S
C1410 C1412 1.391 . S
C1411 C1410 1.386 . S
C1411 C1415 1.393 . S
C1412 H1401 0.950 . S
C1412 C1410 1.391 . S
C1412 C1413 1.400 . S
C1413 C1407 1.491 . S
C1413 C1412 1.400 . S
C1413 C1414 1.398 . S
C1414 H1402 0.950 . S
C1414 C1413 1.398 . S
C1414 C1415 1.391 . S
C1415 H1403 0.950 . S
C1415 C1411 1.393 . S
C1415 C1414 1.391 . S
H1416 C1424 0.950 . S
H1417 C1429 0.950 . S
H1418 C1426 0.950 . S
H1419 C1428 0.950 . S
H1420 C1430 0.950 . S
H1421 C1432 0.950 . S
H1422 C1434 0.950 . S
H1423 C1435 0.950 . S
C1424 H1416 0.950 . S
C1424 C1425 1.386 . S
C1424 C1426 1.391 . S
C1425 C1424 1.386 . S
C1425 C1429 1.393 . S
C1426 H1418 0.950 . S
C1426 C1424 1.391 . S
C1426 C1427 1.400 . S
C1427 C1426 1.400 . S
C1427 C1428 1.398 . S
C1427 C1433 1.491 . S
C1428 H1419 0.950 . S
C1428 C1427 1.398 . S
C1428 C1429 1.391 . S
C1429 H1417 0.950 . S
C1429 C1425 1.393 . S
C1429 C1428 1.391 . S
C1430 H1420 0.950 . S
C1430 C1431 1.386 . S
C1430 C1432 1.391 . S
C1431 C1430 1.386 . S
C1431 C1435 1.393 . S
C1432 H1421 0.950 . S
C1432 C1430 1.391 . S
C1432 C1433 1.400 . S
C1433 C1427 1.491 . S
C1433 C1432 1.400 . S
C1433 C1434 1.398 . S
C1434 H1422 0.950 . S
C1434 C1433 1.398 . S
C1434 C1435 1.391 . S
C1435 H1423 0.950 . S
C1435 C1431 1.393 . S
C1435 C1434 1.391 . S
H1436 C1444 0.947 1_565 S
H1437 C1449 0.950 . S
H1438 C1446 0.950 . S
H1439 C1448 0.950 . S
H1440 C1450 0.950 . S
H1441 C1452 0.950 . S
H1442 C1454 0.950 . S
H1443 C1455 0.950 . S
C1444 H1436 0.947 1_545 S
C1444 C1445 1.386 . S
C1444 C1446 1.391 . S
C1445 C1444 1.386 . S
C1445 C1449 1.393 . S
C1446 H1438 0.950 . S
C1446 C1444 1.391 . S
C1446 C1447 1.400 . S
C1447 C1446 1.400 . S
C1447 C1448 1.398 . S
C1447 C1453 1.491 . S
C1448 H1439 0.950 . S
C1448 C1447 1.398 . S
C1448 C1449 1.391 . S
C1449 H1437 0.950 . S
C1449 C1445 1.393 . S
C1449 C1448 1.391 . S
C1450 H1440 0.950 . S
C1450 C1451 1.386 . S
C1450 C1452 1.391 . S
C1451 C1450 1.386 . S
C1451 C1455 1.393 . S
C1452 H1441 0.950 . S
C1452 C1450 1.391 . S
C1452 C1453 1.400 . S
C1453 C1447 1.491 . S
C1453 C1452 1.400 . S
C1453 C1454 1.398 . S
C1454 H1442 0.950 . S
C1454 C1453 1.398 . S
C1454 C1455 1.391 . S
C1455 H1443 0.950 . S
C1455 C1451 1.393 . S
C1455 C1454 1.391 . S
H1456 C1464 0.957 . S
H1457 C1469 0.950 . S
H1458 C1466 0.953 . S
H1459 C1468 0.950 . S
H1460 C1470 0.950 . S
H1461 C1472 0.950 . S
H1462 C1474 0.943 1_545 S
H1463 C1475 0.950 1_545 S
C1464 H1456 0.957 . S
C1464 C1465 1.380 1_545 S
C1464 C1466 1.391 . S
C1465 C1464 1.380 1_565 S
C1465 C1469 1.393 . S
C1466 H1458 0.953 . S
C1466 C1464 1.391 . S
C1466 C1467 1.397 1_545 S
C1467 C1466 1.397 1_565 S
C1467 C1468 1.398 . S
C1467 C1473 1.491 . S
C1468 H1459 0.950 . S
C1468 C1467 1.398 . S
C1468 C1469 1.391 . S
C1469 H1457 0.950 . S
C1469 C1465 1.393 . S
C1469 C1468 1.391 . S
C1470 H1460 0.950 . S
C1470 C1471 1.386 . S
C1470 C1472 1.391 . S
C1471 C1470 1.386 . S
C1471 C1475 1.393 . S
C1472 H1461 0.950 . S
C1472 C1470 1.391 . S
C1472 C1473 1.400 . S
C1473 C1467 1.491 . S
C1473 C1472 1.400 . S
C1473 C1474 1.398 . S
C1474 H1462 0.943 1_565 S
C1474 C1473 1.398 . S
C1474 C1475 1.391 . S
C1475 H1463 0.950 1_565 S
C1475 C1471 1.393 . S
C1475 C1474 1.391 . S
H1476 C1484 0.950 . S
H1477 C1489 0.950 . S
H1478 C1486 0.950 . S
H1479 C1488 0.950 . S
H1480 C1490 0.950 . S
H1481 C1492 0.950 . S
H1482 C1494 0.950 . S
H1483 C1495 0.950 . S
C1484 H1476 0.950 . S
C1484 C1485 1.386 . S
C1484 C1486 1.391 . S
C1485 C1484 1.386 . S
C1485 C1489 1.393 . S
C1486 H1478 0.950 . S
C1486 C1484 1.391 . S
C1486 C1487 1.400 . S
C1487 C1486 1.400 . S
C1487 C1488 1.398 . S
C1487 C1493 1.491 . S
C1488 H1479 0.950 . S
C1488 C1487 1.398 . S
C1488 C1489 1.391 . S
C1489 H1477 0.950 . S
C1489 C1485 1.393 . S
C1489 C1488 1.391 . S
C1490 H1480 0.950 . S
C1490 C1491 1.386 . S
C1490 C1492 1.391 . S
C1491 C1490 1.386 . S
C1491 C1495 1.393 . S
C1492 H1481 0.950 . S
C1492 C1490 1.391 . S
C1492 C1493 1.400 . S
C1493 C1487 1.491 . S
C1493 C1492 1.400 . S
C1493 C1494 1.398 . S
C1494 H1482 0.950 . S
C1494 C1493 1.398 . S
C1494 C1495 1.391 . S
C1495 H1483 0.950 . S
C1495 C1491 1.393 . S
C1495 C1494 1.391 . S
H1496 C1504 0.950 . S
H1497 C1509 0.950 . S
H1498 C1506 0.950 . S
H1499 C1508 0.950 . S
H1500 C1510 0.950 . S
H1501 C1512 0.950 . S
H1502 C1514 0.950 . S
H1503 C1515 0.950 . S
C1504 H1496 0.950 . S
C1504 C1505 1.386 . S
C1504 C1506 1.391 . S
C1505 C1504 1.386 . S
C1505 C1509 1.393 . S
C1506 H1498 0.950 . S
C1506 C1504 1.391 . S
C1506 C1507 1.400 . S
C1507 C1506 1.400 . S
C1507 C1508 1.398 . S
C1507 C1513 1.491 . S
C1508 H1499 0.950 . S
C1508 C1507 1.398 . S
C1508 C1509 1.391 . S
C1509 H1497 0.950 . S
C1509 C1505 1.393 . S
C1509 C1508 1.391 . S
C1510 H1500 0.950 . S
C1510 C1511 1.386 . S
C1510 C1512 1.391 . S
C1511 C1510 1.386 . S
C1511 C1515 1.393 . S
C1512 H1501 0.950 . S
C1512 C1510 1.391 . S
C1512 C1513 1.400 . S
C1513 C1507 1.491 . S
C1513 C1512 1.400 . S
C1513 C1514 1.398 . S
C1514 H1502 0.950 . S
C1514 C1513 1.398 . S
C1514 C1515 1.391 . S
C1515 H1503 0.950 . S
C1515 C1511 1.393 . S
C1515 C1514 1.391 . S
H1516 C1524 0.950 . S
H1517 C1529 0.950 . S
H1518 C1526 0.950 . S
H1519 C1528 0.950 . S
H1520 C1530 0.950 . S
H1521 C1532 0.950 . S
H1522 C1534 0.950 . S
H1523 C1535 0.950 . S
C1524 H1516 0.950 . S
C1524 C1525 1.386 1_545 S
C1524 C1526 1.391 . S
C1525 C1524 1.386 1_565 S
C1525 C1529 1.393 . S
C1526 H1518 0.950 . S
C1526 C1524 1.391 . S
C1526 C1527 1.400 1_545 S
C1527 C1526 1.400 1_565 S
C1527 C1528 1.398 . S
C1527 C1533 1.491 . S
C1528 H1519 0.950 . S
C1528 C1527 1.398 . S
C1528 C1529 1.391 . S
C1529 H1517 0.950 . S
C1529 C1525 1.393 . S
C1529 C1528 1.391 . S
C1530 H1520 0.950 . S
C1530 C1531 1.386 . S
C1530 C1532 1.391 . S
C1531 C1530 1.386 . S
C1531 C1535 1.393 1_565 S
C1532 H1521 0.950 . S
C1532 C1530 1.391 . S
C1532 C1533 1.400 . S
C1533 C1527 1.491 . S
C1533 C1532 1.400 . S
C1533 C1534 1.398 1_565 S
C1534 H1522 0.950 . S
C1534 C1533 1.398 1_545 S
C1534 C1535 1.391 . S
C1535 H1523 0.950 . S
C1535 C1531 1.393 1_545 S
C1535 C1534 1.391 . S
H1536 C1544 0.950 . S
H1537 C1549 0.950 . S
H1538 C1546 0.950 . S
H1539 C1548 0.950 . S
H1540 C1550 0.950 . S
H1541 C1552 0.950 . S
H1542 C1554 0.950 . S
H1543 C1555 0.950 . S
C1544 H1536 0.950 . S
C1544 C1545 1.386 . S
C1544 C1546 1.391 . S
C1545 C1544 1.386 . S
C1545 C1549 1.393 . S
C1546 H1538 0.950 . S
C1546 C1544 1.391 . S
C1546 C1547 1.400 . S
C1547 C1546 1.400 . S
C1547 C1548 1.398 . S
C1547 C1553 1.491 . S
C1548 H1539 0.950 . S
C1548 C1547 1.398 . S
C1548 C1549 1.391 . S
C1549 H1537 0.950 . S
C1549 C1545 1.393 . S
C1549 C1548 1.391 . S
C1550 H1540 0.950 . S
C1550 C1551 1.386 . S
C1550 C1552 1.391 . S
C1551 C1550 1.386 . S
C1551 C1555 1.393 . S
C1552 H1541 0.950 . S
C1552 C1550 1.391 . S
C1552 C1553 1.400 . S
C1553 C1547 1.491 . S
C1553 C1552 1.400 . S
C1553 C1554 1.398 . S
C1554 H1542 0.950 . S
C1554 C1553 1.398 . S
C1554 C1555 1.391 . S
C1555 H1543 0.950 . S
C1555 C1551 1.393 . S
C1555 C1554 1.391 . S
H1556 C1564 0.950 . S
H1557 C1569 0.950 . S
H1558 C1566 0.950 . S
H1559 C1568 0.950 . S
H1560 C1570 0.950 . S
H1561 C1572 0.950 . S
H1562 C1574 0.950 . S
H1563 C1575 0.950 . S
C1564 H1556 0.950 . S
C1564 C1565 1.386 . S
C1564 C1566 1.391 . S
C1565 C1564 1.386 . S
C1565 C1569 1.393 . S
C1566 H1558 0.950 . S
C1566 C1564 1.391 . S
C1566 C1567 1.400 . S
C1567 C1566 1.400 . S
C1567 C1568 1.398 . S
C1567 C1573 1.491 . S
C1568 H1559 0.950 . S
C1568 C1567 1.398 . S
C1568 C1569 1.391 . S
C1569 H1557 0.950 . S
C1569 C1565 1.393 . S
C1569 C1568 1.391 . S
C1570 H1560 0.950 . S
C1570 C1571 1.386 . S
C1570 C1572 1.391 . S
C1571 C1570 1.386 . S
C1571 C1575 1.393 . S
C1572 H1561 0.950 . S
C1572 C1570 1.391 . S
C1572 C1573 1.400 . S
C1573 C1567 1.491 . S
C1573 C1572 1.400 . S
C1573 C1574 1.398 . S
C1574 H1562 0.950 . S
C1574 C1573 1.398 . S
C1574 C1575 1.391 . S
C1575 H1563 0.950 . S
C1575 C1571 1.393 . S
C1575 C1574 1.391 . S
H1576 C1584 0.950 . S
H1577 C1589 0.950 . S
H1578 C1586 0.950 . S
H1579 C1588 0.950 . S
H1580 C1590 0.950 . S
H1581 C1592 0.950 . S
H1582 C1594 0.950 . S
H1583 C1595 0.950 . S
C1584 H1576 0.950 . S
C1584 C1585 1.386 . S
C1584 C1586 1.391 . S
C1585 C1584 1.386 . S
C1585 C1589 1.393 . S
C1586 H1578 0.950 . S
C1586 C1584 1.391 . S
C1586 C1587 1.400 . S
C1587 C1586 1.400 . S
C1587 C1588 1.398 . S
C1587 C1593 1.491 . S
C1588 H1579 0.950 . S
C1588 C1587 1.398 . S
C1588 C1589 1.391 . S
C1589 H1577 0.950 . S
C1589 C1585 1.393 . S
C1589 C1588 1.391 . S
C1590 H1580 0.950 . S
C1590 C1591 1.386 . S
C1590 C1592 1.391 . S
C1591 C1590 1.386 . S
C1591 C1595 1.393 . S
C1592 H1581 0.950 . S
C1592 C1590 1.391 . S
C1592 C1593 1.400 . S
C1593 C1587 1.491 . S
C1593 C1592 1.400 . S
C1593 C1594 1.398 . S
C1594 H1582 0.950 . S
C1594 C1593 1.398 . S
C1594 C1595 1.391 . S
C1595 H1583 0.950 . S
C1595 C1591 1.393 . S
C1595 C1594 1.391 . S
H1596 C1604 0.950 . S
H1597 C1609 0.950 . S
H1598 C1606 0.950 . S
H1599 C1608 0.950 . S
H1600 C1610 0.950 . S
H1601 C1612 0.950 . S
H1602 C1614 0.950 . S
H1603 C1615 0.950 . S
C1604 H1596 0.950 . S
C1604 C1605 1.386 . S
C1604 C1606 1.391 . S
C1605 C1604 1.386 . S
C1605 C1609 1.393 . S
C1606 H1598 0.950 . S
C1606 C1604 1.391 . S
C1606 C1607 1.400 . S
C1607 C1606 1.400 . S
C1607 C1608 1.398 . S
C1607 C1613 1.491 . S
C1608 H1599 0.950 . S
C1608 C1607 1.398 . S
C1608 C1609 1.391 . S
C1609 H1597 0.950 . S
C1609 C1605 1.393 . S
C1609 C1608 1.391 . S
C1610 H1600 0.950 . S
C1610 C1611 1.386 . S
C1610 C1612 1.391 . S
C1611 C1610 1.386 . S
C1611 C1615 1.393 . S
C1612 H1601 0.950 . S
C1612 C1610 1.391 . S
C1612 C1613 1.400 . S
C1613 C1607 1.491 . S
C1613 C1612 1.400 . S
C1613 C1614 1.398 . S
C1614 H1602 0.950 . S
C1614 C1613 1.398 . S
C1614 C1615 1.391 . S
C1615 H1603 0.950 . S
C1615 C1611 1.393 . S
C1615 C1614 1.391 . S
H1616 C1624 0.950 . S
H1617 C1629 0.950 . S
H1618 C1626 0.950 . S
H1619 C1628 0.950 . S
H1620 C1630 0.950 . S
H1621 C1632 0.950 . S
H1622 C1634 0.950 . S
H1623 C1635 0.950 . S
C1624 H1616 0.950 . S
C1624 C1625 1.386 . S
C1624 C1626 1.391 . S
C1625 C1624 1.386 . S
C1625 C1629 1.393 . S
C1626 H1618 0.950 . S
C1626 C1624 1.391 . S
C1626 C1627 1.400 . S
C1627 C1626 1.400 . S
C1627 C1628 1.398 . S
C1627 C1633 1.491 . S
C1628 H1619 0.950 . S
C1628 C1627 1.398 . S
C1628 C1629 1.391 . S
C1629 H1617 0.950 . S
C1629 C1625 1.393 . S
C1629 C1628 1.391 . S
C1630 H1620 0.950 . S
C1630 C1631 1.386 . S
C1630 C1632 1.391 . S
C1631 C1630 1.386 . S
C1631 C1635 1.393 . S
C1632 H1621 0.950 . S
C1632 C1630 1.391 . S
C1632 C1633 1.400 . S
C1633 C1627 1.491 . S
C1633 C1632 1.400 . S
C1633 C1634 1.398 . S
C1634 H1622 0.950 . S
C1634 C1633 1.398 . S
C1634 C1635 1.391 . S
C1635 H1623 0.950 . S
C1635 C1631 1.393 . S
C1635 C1634 1.391 . S
H1636 C1644 0.950 . S
H1637 C1649 0.950 . S
H1638 C1646 0.950 . S
H1639 C1648 0.950 . S
H1640 C1650 0.950 . S
H1641 C1652 0.950 . S
H1642 C1654 0.950 . S
H1643 C1655 0.950 . S
C1644 H1636 0.950 . S
C1644 C1645 1.386 . S
C1644 C1646 1.391 . S
C1645 C1644 1.386 . S
C1645 C1649 1.393 . S
C1646 H1638 0.950 . S
C1646 C1644 1.391 . S
C1646 C1647 1.400 . S
C1647 C1646 1.400 . S
C1647 C1648 1.398 . S
C1647 C1653 1.491 . S
C1648 H1639 0.950 . S
C1648 C1647 1.398 . S
C1648 C1649 1.391 . S
C1649 H1637 0.950 . S
C1649 C1645 1.393 . S
C1649 C1648 1.391 . S
C1650 H1640 0.950 . S
C1650 C1651 1.386 . S
C1650 C1652 1.391 . S
C1651 C1650 1.386 . S
C1651 C1655 1.393 . S
C1652 H1641 0.950 . S
C1652 C1650 1.391 . S
C1652 C1653 1.400 . S
C1653 C1647 1.491 . S
C1653 C1652 1.400 . S
C1653 C1654 1.398 . S
C1654 H1642 0.950 . S
C1654 C1653 1.398 . S
C1654 C1655 1.391 . S
C1655 H1643 0.950 . S
C1655 C1651 1.393 . S
C1655 C1654 1.391 . S
H1656 C1664 0.950 . S
H1657 C1669 0.950 . S
H1658 C1666 0.950 . S
H1659 C1668 0.950 . S
H1660 C1670 0.950 . S
H1661 C1672 0.950 . S
H1662 C1674 0.950 . S
H1663 C1675 0.950 . S
C1664 H1656 0.950 . S
C1664 C1665 1.386 . S
C1664 C1666 1.391 . S
C1665 C1664 1.386 . S
C1665 C1669 1.393 . S
C1666 H1658 0.950 . S
C1666 C1664 1.391 . S
C1666 C1667 1.400 . S
C1667 C1666 1.400 . S
C1667 C1668 1.398 . S
C1667 C1673 1.491 . S
C1668 H1659 0.950 . S
C1668 C1667 1.398 . S
C1668 C1669 1.391 . S
C1669 H1657 0.950 . S
C1669 C1665 1.393 . S
C1669 C1668 1.391 . S
C1670 H1660 0.950 . S
C1670 C1671 1.386 . S
C1670 C1672 1.391 . S
C1671 C1670 1.386 . S
C1671 C1675 1.393 . S
C1672 H1661 0.950 . S
C1672 C1670 1.391 . S
C1672 C1673 1.400 . S
C1673 C1667 1.491 . S
C1673 C1672 1.400 . S
C1673 C1674 1.398 . S
C1674 H1662 0.950 . S
C1674 C1673 1.398 . S
C1674 C1675 1.391 . S
C1675 H1663 0.950 . S
C1675 C1671 1.393 . S
C1675 C1674 1.391 . S
H1676 C1684 0.950 . S
H1677 C1689 0.950 . S
H1678 C1686 0.950 . S
H1679 C1688 0.950 . S
H1680 C1690 0.950 . S
H1681 C1692 0.950 . S
H1682 C1694 0.950 . S
H1683 C1695 0.950 . S
C1684 H1676 0.950 . S
C1684 C1685 1.386 . S
C1684 C1686 1.391 . S
C1685 C1684 1.386 . S
C1685 C1689 1.393 . S
C1686 H1678 0.950 . S
C1686 C1684 1.391 . S
C1686 C1687 1.400 . S
C1687 C1686 1.400 . S
C1687 C1688 1.398 . S
C1687 C1693 1.491 . S
C1688 H1679 0.950 . S
C1688 C1687 1.398 . S
C1688 C1689 1.391 . S
C1689 H1677 0.950 . S
C1689 C1685 1.393 . S
C1689 C1688 1.391 . S
C1690 H1680 0.950 . S
C1690 C1691 1.386 . S
C1690 C1692 1.391 . S
C1691 C1690 1.386 . S
C1691 C1695 1.393 . S
C1692 H1681 0.950 . S
C1692 C1690 1.391 . S
C1692 C1693 1.400 . S
C1693 C1687 1.491 . S
C1693 C1692 1.400 . S
C1693 C1694 1.398 . S
C1694 H1682 0.950 . S
C1694 C1693 1.398 . S
C1694 C1695 1.391 . S
C1695 H1683 0.950 . S
C1695 C1691 1.393 . S
C1695 C1694 1.391 . S
H1696 C1704 0.950 . S
H1697 C1709 0.950 . S
H1698 C1706 0.950 . S
H1699 C1708 0.950 . S
H1700 C1710 0.950 . S
H1701 C1712 0.950 . S
H1702 C1714 0.950 . S
H1703 C1715 0.950 . S
C1704 H1696 0.950 . S
C1704 C1705 1.386 . S
C1704 C1706 1.391 . S
C1705 C1704 1.386 . S
C1705 C1709 1.393 . S
C1706 H1698 0.950 . S
C1706 C1704 1.391 . S
C1706 C1707 1.400 . S
C1707 C1706 1.400 . S
C1707 C1708 1.398 . S
C1707 C1713 1.491 . S
C1708 H1699 0.950 . S
C1708 C1707 1.398 . S
C1708 C1709 1.391 . S
C1709 H1697 0.950 . S
C1709 C1705 1.393 . S
C1709 C1708 1.391 . S
C1710 H1700 0.950 . S
C1710 C1711 1.386 . S
C1710 C1712 1.391 . S
C1711 C1710 1.386 . S
C1711 C1715 1.393 . S
C1712 H1701 0.950 . S
C1712 C1710 1.391 . S
C1712 C1713 1.400 . S
C1713 C1707 1.491 . S
C1713 C1712 1.400 . S
C1713 C1714 1.398 . S
C1714 H1702 0.950 . S
C1714 C1713 1.398 . S
C1714 C1715 1.391 . S
C1715 H1703 0.950 . S
C1715 C1711 1.393 . S
C1715 C1714 1.391 . S
H1716 C1724 0.950 . S
H1717 C1729 0.950 . S
H1718 C1726 0.950 . S
H1719 C1728 0.950 . S
H1720 C1730 0.950 . S
H1721 C1732 0.950 . S
H1722 C1734 0.950 . S
H1723 C1735 0.950 . S
C1724 H1716 0.950 . S
C1724 C1725 1.386 . S
C1724 C1726 1.391 . S
C1725 C1724 1.386 . S
C1725 C1729 1.393 . S
C1726 H1718 0.950 . S
C1726 C1724 1.391 . S
C1726 C1727 1.400 . S
C1727 C1726 1.400 . S
C1727 C1728 1.398 . S
C1727 C1733 1.491 . S
C1728 H1719 0.950 . S
C1728 C1727 1.398 . S
C1728 C1729 1.391 . S
C1729 H1717 0.950 . S
C1729 C1725 1.393 . S
C1729 C1728 1.391 . S
C1730 H1720 0.950 . S
C1730 C1731 1.386 . S
C1730 C1732 1.391 . S
C1731 C1730 1.386 . S
C1731 C1735 1.393 . S
C1732 H1721 0.950 . S
C1732 C1730 1.391 . S
C1732 C1733 1.400 . S
C1733 C1727 1.491 . S
C1733 C1732 1.400 . S
C1733 C1734 1.398 . S
C1734 H1722 0.950 . S
C1734 C1733 1.398 . S
C1734 C1735 1.391 . S
C1735 H1723 0.950 . S
C1735 C1731 1.393 . S
C1735 C1734 1.391 . S
H1736 C1744 0.950 . S
H1737 C1749 0.950 . S
H1738 C1746 0.950 . S
H1739 C1748 0.950 . S
H1740 C1750 0.950 . S
H1741 C1752 0.950 . S
H1742 C1754 0.950 . S
H1743 C1755 0.950 . S
C1744 H1736 0.950 . S
C1744 C1745 1.386 . S
C1744 C1746 1.391 . S
C1745 C1744 1.386 . S
C1745 C1749 1.393 . S
C1746 H1738 0.950 . S
C1746 C1744 1.391 . S
C1746 C1747 1.400 . S
C1747 C1746 1.400 . S
C1747 C1748 1.398 . S
C1747 C1753 1.491 . S
C1748 H1739 0.950 . S
C1748 C1747 1.398 . S
C1748 C1749 1.391 . S
C1749 H1737 0.950 . S
C1749 C1745 1.393 . S
C1749 C1748 1.391 . S
C1750 H1740 0.950 . S
C1750 C1751 1.386 . S
C1750 C1752 1.391 . S
C1751 C1750 1.386 . S
C1751 C1755 1.393 . S
C1752 H1741 0.950 . S
C1752 C1750 1.391 . S
C1752 C1753 1.400 . S
C1753 C1747 1.491 . S
C1753 C1752 1.400 . S
C1753 C1754 1.398 . S
C1754 H1742 0.950 . S
C1754 C1753 1.398 . S
C1754 C1755 1.391 . S
C1755 H1743 0.950 . S
C1755 C1751 1.393 . S
C1755 C1754 1.391 . S
H1756 C1764 0.950 . S
H1757 C1769 0.950 . S
H1758 C1766 0.950 . S
H1759 C1768 0.950 . S
H1760 C1770 0.950 . S
H1761 C1772 0.950 . S
H1762 C1774 0.950 . S
H1763 C1775 0.950 . S
C1764 H1756 0.950 . S
C1764 C1765 1.386 . S
C1764 C1766 1.391 . S
C1765 C1764 1.386 . S
C1765 C1769 1.393 . S
C1766 H1758 0.950 . S
C1766 C1764 1.391 . S
C1766 C1767 1.400 . S
C1767 C1766 1.400 . S
C1767 C1768 1.398 . S
C1767 C1773 1.491 . S
C1768 H1759 0.950 . S
C1768 C1767 1.398 . S
C1768 C1769 1.391 . S
C1769 H1757 0.950 . S
C1769 C1765 1.393 . S
C1769 C1768 1.391 . S
C1770 H1760 0.950 . S
C1770 C1771 1.386 . S
C1770 C1772 1.391 . S
C1771 C1770 1.386 . S
C1771 C1775 1.393 . S
C1772 H1761 0.950 . S
C1772 C1770 1.391 . S
C1772 C1773 1.400 . S
C1773 C1767 1.491 . S
C1773 C1772 1.400 . S
C1773 C1774 1.398 . S
C1774 H1762 0.950 . S
C1774 C1773 1.398 . S
C1774 C1775 1.391 . S
C1775 H1763 0.950 . S
C1775 C1771 1.393 . S
C1775 C1774 1.391 . S
H1776 C1784 0.950 . S
H1777 C1789 0.950 . S
H1778 C1786 0.950 . S
H1779 C1788 0.950 . S
H1780 C1790 0.950 . S
H1781 C1792 0.950 . S
H1782 C1794 0.950 . S
H1783 C1795 0.950 . S
C1784 H1776 0.950 . S
C1784 C1785 1.386 . S
C1784 C1786 1.391 . S
C1785 C1784 1.386 . S
C1785 C1789 1.393 . S
C1786 H1778 0.950 . S
C1786 C1784 1.391 . S
C1786 C1787 1.400 . S
C1787 C1786 1.400 . S
C1787 C1788 1.398 . S
C1787 C1793 1.491 . S
C1788 H1779 0.950 . S
C1788 C1787 1.398 . S
C1788 C1789 1.391 . S
C1789 H1777 0.950 . S
C1789 C1785 1.393 . S
C1789 C1788 1.391 . S
C1790 H1780 0.950 . S
C1790 C1791 1.386 . S
C1790 C1792 1.391 . S
C1791 C1790 1.386 . S
C1791 C1795 1.393 . S
C1792 H1781 0.950 . S
C1792 C1790 1.391 . S
C1792 C1793 1.400 . S
C1793 C1787 1.491 . S
C1793 C1792 1.400 . S
C1793 C1794 1.398 . S
C1794 H1782 0.950 . S
C1794 C1793 1.398 . S
C1794 C1795 1.391 . S
C1795 H1783 0.950 . S
C1795 C1791 1.393 . S
C1795 C1794 1.391 . S
H1796 C1804 0.950 . S
H1797 C1809 0.950 . S
H1798 C1806 0.950 . S
H1799 C1808 0.950 . S
H1800 C1810 0.950 . S
H1801 C1812 0.950 . S
H1802 C1814 0.950 . S
H1803 C1815 0.950 . S
C1804 H1796 0.950 . S
C1804 C1805 1.386 . S
C1804 C1806 1.391 . S
C1805 C1804 1.386 . S
C1805 C1809 1.393 . S
C1806 H1798 0.950 . S
C1806 C1804 1.391 . S
C1806 C1807 1.400 . S
C1807 C1806 1.400 . S
C1807 C1808 1.398 . S
C1807 C1813 1.491 . S
C1808 H1799 0.950 . S
C1808 C1807 1.398 . S
C1808 C1809 1.391 . S
C1809 H1797 0.950 . S
C1809 C1805 1.393 . S
C1809 C1808 1.391 . S
C1810 H1800 0.950 . S
C1810 C1811 1.386 . S
C1810 C1812 1.391 . S
C1811 C1810 1.386 . S
C1811 C1815 1.393 . S
C1812 H1801 0.950 . S
C1812 C1810 1.391 . S
C1812 C1813 1.400 . S
C1813 C1807 1.491 . S
C1813 C1812 1.400 . S
C1813 C1814 1.398 . S
C1814 H1802 0.950 . S
C1814 C1813 1.398 . S
C1814 C1815 1.391 . S
C1815 H1803 0.950 . S
C1815 C1811 1.393 . S
C1815 C1814 1.391 . S
H1816 C1824 0.950 . S
H1817 C1829 0.950 . S
H1818 C1826 0.950 . S
H1819 C1828 0.950 . S
H1820 C1830 0.950 . S
H1821 C1832 0.950 . S
H1822 C1834 0.950 . S
H1823 C1835 0.950 . S
C1824 H1816 0.950 . S
C1824 C1825 1.386 . S
C1824 C1826 1.391 . S
C1825 C1824 1.386 . S
C1825 C1829 1.393 . S
C1826 H1818 0.950 . S
C1826 C1824 1.391 . S
C1826 C1827 1.400 . S
C1827 C1826 1.400 . S
C1827 C1828 1.398 . S
C1827 C1833 1.491 . S
C1828 H1819 0.950 . S
C1828 C1827 1.398 . S
C1828 C1829 1.391 . S
C1829 H1817 0.950 . S
C1829 C1825 1.393 . S
C1829 C1828 1.391 . S
C1830 H1820 0.950 . S
C1830 C1831 1.386 . S
C1830 C1832 1.391 . S
C1831 C1830 1.386 . S
C1831 C1835 1.393 . S
C1832 H1821 0.950 . S
C1832 C1830 1.391 . S
C1832 C1833 1.400 . S
C1833 C1827 1.491 . S
C1833 C1832 1.400 . S
C1833 C1834 1.398 . S
C1834 H1822 0.950 . S
C1834 C1833 1.398 . S
C1834 C1835 1.391 . S
C1835 H1823 0.950 . S
C1835 C1831 1.393 . S
C1835 C1834 1.391 . S
H1836 C1844 0.950 . S
H1837 C1849 0.950 . S
H1838 C1846 0.950 . S
H1839 C1848 0.950 . S
H1840 C1850 0.950 . S
H1841 C1852 0.950 . S
H1842 C1854 0.950 . S
H1843 C1855 0.950 . S
C1844 H1836 0.950 . S
C1844 C1845 1.386 . S
C1844 C1846 1.391 . S
C1845 C1844 1.386 . S
C1845 C1849 1.393 . S
C1846 H1838 0.950 . S
C1846 C1844 1.391 . S
C1846 C1847 1.400 . S
C1847 C1846 1.400 . S
C1847 C1848 1.398 . S
C1847 C1853 1.491 . S
C1848 H1839 0.950 . S
C1848 C1847 1.398 . S
C1848 C1849 1.391 . S
C1849 H1837 0.950 . S
C1849 C1845 1.393 . S
C1849 C1848 1.391 . S
C1850 H1840 0.950 . S
C1850 C1851 1.386 . S
C1850 C1852 1.391 . S
C1851 C1850 1.386 . S
C1851 C1855 1.393 . S
C1852 H1841 0.950 . S
C1852 C1850 1.391 . S
C1852 C1853 1.400 . S
C1853 C1847 1.491 . S
C1853 C1852 1.400 . S
C1853 C1854 1.398 . S
C1854 H1842 0.950 . S
C1854 C1853 1.398 . S
C1854 C1855 1.391 . S
C1855 H1843 0.950 . S
C1855 C1851 1.393 . S
C1855 C1854 1.391 . S
H1856 C1864 0.950 . S
H1857 C1869 0.950 . S
H1858 C1866 0.950 . S
H1859 C1868 0.950 . S
H1860 C1870 0.950 . S
H1861 C1872 0.950 . S
H1862 C1874 0.950 . S
H1863 C1875 0.950 . S
C1864 H1856 0.950 . S
C1864 C1865 1.386 . S
C1864 C1866 1.391 . S
C1865 C1864 1.386 . S
C1865 C1869 1.393 . S
C1866 H1858 0.950 . S
C1866 C1864 1.391 . S
C1866 C1867 1.400 . S
C1867 C1866 1.400 . S
C1867 C1868 1.398 . S
C1867 C1873 1.491 . S
C1868 H1859 0.950 . S
C1868 C1867 1.398 . S
C1868 C1869 1.391 . S
C1869 H1857 0.950 . S
C1869 C1865 1.393 . S
C1869 C1868 1.391 . S
C1870 H1860 0.950 . S
C1870 C1871 1.386 . S
C1870 C1872 1.391 . S
C1871 C1870 1.386 . S
C1871 C1875 1.393 . S
C1872 H1861 0.950 . S
C1872 C1870 1.391 . S
C1872 C1873 1.400 . S
C1873 C1867 1.491 . S
C1873 C1872 1.400 . S
C1873 C1874 1.398 . S
C1874 H1862 0.950 . S
C1874 C1873 1.398 . S
C1874 C1875 1.391 . S
C1875 H1863 0.950 . S
C1875 C1871 1.393 . S
C1875 C1874 1.391 . S
H1876 C1884 0.950 . S
H1877 C1889 0.950 . S
H1878 C1886 0.950 . S
H1879 C1888 0.950 . S
H1880 C1890 0.950 . S
H1881 C1892 0.950 . S
H1882 C1894 0.950 . S
H1883 C1895 0.950 . S
C1884 H1876 0.950 . S
C1884 C1885 1.386 . S
C1884 C1886 1.391 . S
C1885 C1884 1.386 . S
C1885 C1889 1.393 . S
C1886 H1878 0.950 . S
C1886 C1884 1.391 . S
C1886 C1887 1.400 . S
C1887 C1886 1.400 . S
C1887 C1888 1.398 . S
C1887 C1893 1.491 . S
C1888 H1879 0.950 . S
C1888 C1887 1.398 . S
C1888 C1889 1.391 . S
C1889 H1877 0.950 . S
C1889 C1885 1.393 . S
C1889 C1888 1.391 . S
C1890 H1880 0.950 . S
C1890 C1891 1.386 . S
C1890 C1892 1.391 . S
C1891 C1890 1.386 . S
C1891 C1895 1.393 . S
C1892 H1881 0.950 . S
C1892 C1890 1.391 . S
C1892 C1893 1.400 . S
C1893 C1887 1.491 . S
C1893 C1892 1.400 . S
C1893 C1894 1.398 . S
C1894 H1882 0.950 . S
C1894 C1893 1.398 . S
C1894 C1895 1.391 . S
C1895 H1883 0.950 . S
C1895 C1891 1.393 . S
C1895 C1894 1.391 . S
H1896 C1904 0.950 . S
H1897 C1909 0.950 . S
H1898 C1906 0.950 . S
H1899 C1908 0.950 . S
H1900 C1910 0.950 . S
H1901 C1912 0.950 . S
H1902 C1914 0.950 . S
H1903 C1915 0.950 . S
C1904 H1896 0.950 . S
C1904 C1905 1.386 . S
C1904 C1906 1.391 . S
C1905 C1904 1.386 . S
C1905 C1909 1.393 . S
C1906 H1898 0.950 . S
C1906 C1904 1.391 . S
C1906 C1907 1.400 . S
C1907 C1906 1.400 . S
C1907 C1908 1.398 . S
C1907 C1913 1.491 . S
C1908 H1899 0.950 . S
C1908 C1907 1.398 . S
C1908 C1909 1.391 . S
C1909 H1897 0.950 . S
C1909 C1905 1.393 . S
C1909 C1908 1.391 . S
C1910 H1900 0.950 . S
C1910 C1911 1.386 . S
C1910 C1912 1.391 . S
C1911 C1910 1.386 . S
C1911 C1915 1.393 . S
C1912 H1901 0.950 . S
C1912 C1910 1.391 . S
C1912 C1913 1.400 . S
C1913 C1907 1.491 . S
C1913 C1912 1.400 . S
C1913 C1914 1.398 . S
C1914 H1902 0.950 . S
C1914 C1913 1.398 . S
C1914 C1915 1.391 . S
C1915 H1903 0.950 . S
C1915 C1911 1.393 . S
C1915 C1914 1.391 . S
H1916 C1924 0.950 . S
H1917 C1929 0.950 . S
H1918 C1926 0.950 . S
H1919 C1928 0.950 . S
H1920 C1930 0.950 . S
H1921 C1932 0.950 . S
H1922 C1934 0.950 . S
H1923 C1935 0.950 . S
C1924 H1916 0.950 . S
C1924 C1925 1.386 . S
C1924 C1926 1.391 . S
C1925 C1924 1.386 . S
C1925 C1929 1.393 . S
C1926 H1918 0.950 . S
C1926 C1924 1.391 . S
C1926 C1927 1.400 . S
C1927 C1926 1.400 . S
C1927 C1928 1.398 . S
C1927 C1933 1.491 . S
C1928 H1919 0.950 . S
C1928 C1927 1.398 . S
C1928 C1929 1.391 . S
C1929 H1917 0.950 . S
C1929 C1925 1.393 . S
C1929 C1928 1.391 . S
C1930 H1920 0.950 . S
C1930 C1931 1.386 . S
C1930 C1932 1.391 . S
C1931 C1930 1.386 . S
C1931 C1935 1.393 . S
C1932 H1921 0.950 . S
C1932 C1930 1.391 . S
C1932 C1933 1.400 . S
C1933 C1927 1.491 . S
C1933 C1932 1.400 . S
C1933 C1934 1.398 . S
C1934 H1922 0.950 . S
C1934 C1933 1.398 . S
C1934 C1935 1.391 . S
C1935 H1923 0.950 . S
C1935 C1931 1.393 . S
C1935 C1934 1.391 . S
H1936 C1944 0.950 . S
H1937 C1949 0.950 . S
H1938 C1946 0.950 . S
H1939 C1948 0.950 . S
H1940 C1950 0.950 . S
H1941 C1952 0.950 . S
H1942 C1954 0.950 . S
H1943 C1955 0.950 . S
C1944 H1936 0.950 . S
C1944 C1945 1.386 . S
C1944 C1946 1.391 . S
C1945 C1944 1.386 . S
C1945 C1949 1.393 . S
C1946 H1938 0.950 . S
C1946 C1944 1.391 . S
C1946 C1947 1.400 . S
C1947 C1946 1.400 . S
C1947 C1948 1.398 . S
C1947 C1953 1.491 . S
C1948 H1939 0.950 . S
C1948 C1947 1.398 . S
C1948 C1949 1.391 . S
C1949 H1937 0.950 . S
C1949 C1945 1.393 . S
C1949 C1948 1.391 . S
C1950 H1940 0.950 . S
C1950 C1951 1.386 . S
C1950 C1952 1.391 . S
C1951 C1950 1.386 . S
C1951 C1955 1.393 . S
C1952 H1941 0.950 . S
C1952 C1950 1.391 . S
C1952 C1953 1.400 . S
C1953 C1947 1.491 . S
C1953 C1952 1.400 . S
C1953 C1954 1.398 . S
C1954 H1942 0.950 . S
C1954 C1953 1.398 . S
C1954 C1955 1.391 . S
C1955 H1943 0.950 . S
C1955 C1951 1.393 . S
C1955 C1954 1.391 . S
H1956 C1964 0.950 . S
H1957 C1969 0.950 . S
H1958 C1966 0.950 . S
H1959 C1968 0.950 . S
H1960 C1970 0.950 . S
H1961 C1972 0.950 . S
H1962 C1974 0.950 . S
H1963 C1975 0.950 . S
C1964 H1956 0.950 . S
C1964 C1965 1.386 . S
C1964 C1966 1.391 . S
C1965 C1964 1.386 . S
C1965 C1969 1.393 . S
C1966 H1958 0.950 . S
C1966 C1964 1.391 . S
C1966 C1967 1.400 . S
C1967 C1966 1.400 . S
C1967 C1968 1.398 . S
C1967 C1973 1.491 . S
C1968 H1959 0.950 . S
C1968 C1967 1.398 . S
C1968 C1969 1.391 . S
C1969 H1957 0.950 . S
C1969 C1965 1.393 . S
C1969 C1968 1.391 . S
C1970 H1960 0.950 . S
C1970 C1971 1.386 . S
C1970 C1972 1.391 . S
C1971 C1970 1.386 . S
C1971 C1975 1.393 . S
C1972 H1961 0.950 . S
C1972 C1970 1.391 . S
C1972 C1973 1.400 . S
C1973 C1967 1.491 . S
C1973 C1972 1.400 . S
C1973 C1974 1.398 . S
C1974 H1962 0.950 . S
C1974 C1973 1.398 . S
C1974 C1975 1.391 . S
C1975 H1963 0.950 . S
C1975 C1971 1.393 . S
C1975 C1974 1.391 . S
H1976 C1984 0.950 . S
H1977 C1989 0.950 . S
H1978 C1986 0.950 . S
H1979 C1988 0.950 . S
H1980 C1990 0.950 . S
H1981 C1992 0.950 . S
H1982 C1994 0.950 . S
H1983 C1995 0.950 . S
C1984 H1976 0.950 . S
C1984 C1985 1.386 . S
C1984 C1986 1.391 . S
C1985 C1984 1.386 . S
C1985 C1989 1.393 . S
C1986 H1978 0.950 . S
C1986 C1984 1.391 . S
C1986 C1987 1.400 . S
C1987 C1986 1.400 . S
C1987 C1988 1.398 . S
C1987 C1993 1.491 . S
C1988 H1979 0.950 . S
C1988 C1987 1.398 . S
C1988 C1989 1.391 . S
C1989 H1977 0.950 . S
C1989 C1985 1.393 . S
C1989 C1988 1.391 . S
C1990 H1980 0.950 . S
C1990 C1991 1.386 . S
C1990 C1992 1.391 . S
C1991 C1990 1.386 . S
C1991 C1995 1.393 . S
C1992 H1981 0.950 . S
C1992 C1990 1.391 . S
C1992 C1993 1.400 . S
C1993 C1987 1.491 . S
C1993 C1992 1.400 . S
C1993 C1994 1.398 . S
C1994 H1982 0.950 . S
C1994 C1993 1.398 . S
C1994 C1995 1.391 . S
C1995 H1983 0.950 . S
C1995 C1991 1.393 . S
C1995 C1994 1.391 . S
H1996 C2004 0.950 . S
H1997 C2009 0.950 . S
H1998 C2006 0.950 . S
H1999 C2008 0.950 . S
H2000 C2010 0.950 . S
H2001 C2012 0.950 . S
H2002 C2014 0.950 . S
H2003 C2015 0.950 . S
C2004 H1996 0.950 . S
C2004 C2005 1.386 . S
C2004 C2006 1.391 . S
C2005 C2004 1.386 . S
C2005 C2009 1.393 . S
C2006 H1998 0.950 . S
C2006 C2004 1.391 . S
C2006 C2007 1.400 . S
C2007 C2006 1.400 . S
C2007 C2008 1.398 . S
C2007 C2013 1.491 . S
C2008 H1999 0.950 . S
C2008 C2007 1.398 . S
C2008 C2009 1.391 . S
C2009 H1997 0.950 . S
C2009 C2005 1.393 . S
C2009 C2008 1.391 . S
C2010 H2000 0.950 . S
C2010 C2011 1.386 . S
C2010 C2012 1.391 . S
C2011 C2010 1.386 . S
C2011 C2015 1.393 . S
C2012 H2001 0.950 . S
C2012 C2010 1.391 . S
C2012 C2013 1.400 . S
C2013 C2007 1.491 . S
C2013 C2012 1.400 . S
C2013 C2014 1.398 . S
C2014 H2002 0.950 . S
C2014 C2013 1.398 . S
C2014 C2015 1.391 . S
C2015 H2003 0.950 . S
C2015 C2011 1.393 . S
C2015 C2014 1.391 . S
H2016 C2024 0.950 . S
H2017 C2029 0.950 . S
H2018 C2026 0.950 . S
H2019 C2028 0.950 . S
H2020 C2030 0.950 . S
H2021 C2032 0.950 . S
H2022 C2034 0.950 . S
H2023 C2035 0.950 . S
C2024 H2016 0.950 . S
C2024 C2025 1.386 1_545 S
C2024 C2026 1.391 1_554 S
C2025 C2024 1.386 1_565 S
C2025 C2029 1.393 1_554 S
C2026 H2018 0.950 . S
C2026 C2024 1.391 1_556 S
C2026 C2027 1.400 1_545 S
C2027 C2026 1.400 1_565 S
C2027 C2028 1.398 . S
C2027 C2033 1.491 . S
C2028 H2019 0.950 . S
C2028 C2027 1.398 . S
C2028 C2029 1.391 . S
C2029 H2017 0.950 . S
C2029 C2025 1.393 1_556 S
C2029 C2028 1.391 . S
C2030 H2020 0.950 . S
C2030 C2031 1.386 . S
C2030 C2032 1.391 . S
C2031 C2030 1.386 . S
C2031 C2035 1.393 1_565 S
C2032 H2021 0.950 . S
C2032 C2030 1.391 . S
C2032 C2033 1.400 . S
C2033 C2027 1.491 . S
C2033 C2032 1.400 . S
C2033 C2034 1.398 1_565 S
C2034 H2022 0.950 . S
C2034 C2033 1.398 1_545 S
C2034 C2035 1.391 . S
C2035 H2023 0.950 . S
C2035 C2031 1.393 1_545 S
C2035 C2034 1.391 . S
H2036 C2044 0.950 . S
H2037 C2049 0.950 . S
H2038 C2046 0.950 . S
H2039 C2048 0.950 . S
H2040 C2050 0.947 1_655 S
H2041 C2052 0.950 1_554 S
H2042 C2054 0.950 . S
H2043 C2055 0.950 . S
C2044 H2036 0.950 . S
C2044 C2045 1.386 . S
C2044 C2046 1.391 . S
C2045 C2044 1.386 . S
C2045 C2049 1.393 . S
C2046 H2038 0.950 . S
C2046 C2044 1.391 . S
C2046 C2047 1.400 . S
C2047 C2046 1.400 . S
C2047 C2048 1.398 . S
C2047 C2053 1.491 . S
C2048 H2039 0.950 . S
C2048 C2047 1.398 . S
C2048 C2049 1.391 . S
C2049 H2037 0.950 . S
C2049 C2045 1.393 . S
C2049 C2048 1.391 . S
C2050 H2040 0.947 1_455 S
C2050 C2051 1.386 1_455 S
C2050 C2052 1.392 1_554 S
C2051 C2050 1.386 1_655 S
C2051 C2055 1.393 1_554 S
C2052 H2041 0.950 1_556 S
C2052 C2050 1.392 1_556 S
C2052 C2053 1.399 . S
C2053 C2047 1.491 . S
C2053 C2052 1.399 . S
C2053 C2054 1.398 . S
C2054 H2042 0.950 . S
C2054 C2053 1.398 . S
C2054 C2055 1.391 1_455 S
C2055 H2043 0.950 . S
C2055 C2051 1.393 1_556 S
C2055 C2054 1.391 1_655 S
H2056 C2064 0.950 . S
H2057 C2069 0.950 . S
H2058 C2066 0.950 . S
H2059 C2068 0.950 . S
H2060 C2070 0.950 . S
H2061 C2072 0.950 . S
H2062 C2074 0.950 . S
H2063 C2075 0.950 . S
C2064 H2056 0.950 . S
C2064 C2065 1.386 . S
C2064 C2066 1.391 . S
C2065 C2064 1.386 . S
C2065 C2069 1.393 . S
C2066 H2058 0.950 . S
C2066 C2064 1.391 . S
C2066 C2067 1.400 . S
C2067 C2066 1.400 . S
C2067 C2068 1.398 . S
C2067 C2073 1.491 . S
C2068 H2059 0.950 . S
C2068 C2067 1.398 . S
C2068 C2069 1.391 . S
C2069 H2057 0.950 . S
C2069 C2065 1.393 . S
C2069 C2068 1.391 . S
C2070 H2060 0.950 . S
C2070 C2071 1.386 . S
C2070 C2072 1.391 . S
C2071 C2070 1.386 . S
C2071 C2075 1.393 . S
C2072 H2061 0.950 . S
C2072 C2070 1.391 . S
C2072 C2073 1.400 . S
C2073 C2067 1.491 . S
C2073 C2072 1.400 . S
C2073 C2074 1.398 . S
C2074 H2062 0.950 . S
C2074 C2073 1.398 . S
C2074 C2075 1.391 . S
C2075 H2063 0.950 . S
C2075 C2071 1.393 . S
C2075 C2074 1.391 . S
H2076 C2084 0.950 . S
H2077 C2089 0.956 . S
H2078 C2086 0.950 . S
H2079 C2088 0.950 . S
H2080 C2090 0.950 . S
H2081 C2092 0.950 . S
H2082 C2094 0.950 . S
H2083 C2095 0.950 . S
C2084 H2076 0.950 . S
C2084 C2085 1.386 1_545 S
C2084 C2086 1.391 1_655 S
C2085 C2084 1.386 1_565 S
C2085 C2089 1.412 . S
C2086 H2078 0.950 . S
C2086 C2084 1.391 1_455 S
C2086 C2087 1.400 1_545 S
C2087 C2086 1.400 1_565 S
C2087 C2088 1.398 . S
C2087 C2093 1.491 . S
C2088 H2079 0.950 . S
C2088 C2087 1.398 . S
C2088 C2089 1.366 1_455 S
C2089 H2077 0.956 . S
C2089 C2085 1.412 . S
C2089 C2088 1.366 1_655 S
C2090 H2080 0.950 . S
C2090 C2091 1.386 . S
C2090 C2092 1.391 . S
C2091 C2090 1.386 . S
C2091 C2095 1.393 1_565 S
C2092 H2081 0.950 . S
C2092 C2090 1.391 . S
C2092 C2093 1.400 . S
C2093 C2087 1.491 . S
C2093 C2092 1.400 . S
C2093 C2094 1.398 1_565 S
C2094 H2082 0.950 . S
C2094 C2093 1.398 1_545 S
C2094 C2095 1.391 . S
C2095 H2083 0.950 . S
C2095 C2091 1.393 1_545 S
C2095 C2094 1.391 . S
H2096 C2104 0.950 . S
H2097 C2109 0.950 . S
H2098 C2106 0.950 . S
H2099 C2108 0.950 . S
H2100 C2110 0.950 . S
H2101 C2112 0.950 . S
H2102 C2114 0.950 . S
H2103 C2115 0.950 . S
C2104 H2096 0.950 . S
C2104 C2105 1.386 1_565 S
C2104 C2106 1.391 . S
C2105 C2104 1.386 1_545 S
C2105 C2109 1.393 . S
C2106 H2098 0.950 . S
C2106 C2104 1.391 . S
C2106 C2107 1.400 1_565 S
C2107 C2106 1.400 1_545 S
C2107 C2108 1.398 . S
C2107 C2113 1.491 . S
C2108 H2099 0.950 . S
C2108 C2107 1.398 . S
C2108 C2109 1.391 . S
C2109 H2097 0.950 . S
C2109 C2105 1.393 . S
C2109 C2108 1.391 . S
C2110 H2100 0.950 . S
C2110 C2111 1.386 1_554 S
C2110 C2112 1.391 . S
C2111 C2110 1.386 1_556 S
C2111 C2115 1.393 1_545 S
C2112 H2101 0.950 . S
C2112 C2110 1.391 . S
C2112 C2113 1.400 . S
C2113 C2107 1.491 . S
C2113 C2112 1.400 . S
C2113 C2114 1.398 1_544 S
C2114 H2102 0.950 . S
C2114 C2113 1.398 1_566 S
C2114 C2115 1.391 . S
C2115 H2103 0.950 . S
C2115 C2111 1.393 1_565 S
C2115 C2114 1.391 . S
H2116 C2124 0.955 . S
H2117 C2129 0.950 . S
H2118 C2126 0.950 . S
H2119 C2128 0.950 . S
H2120 C2130 0.950 . S
H2121 C2132 0.950 . S
H2122 C2134 0.950 . S
H2123 C2135 0.950 . S
C2124 H2116 0.955 . S
C2124 C2125 1.397 . S
C2124 C2126 1.376 1_456 S
C2125 C2124 1.397 . S
C2125 C2129 1.393 . S
C2126 H2118 0.950 . S
C2126 C2124 1.376 1_654 S
C2126 C2127 1.400 . S
C2127 C2126 1.400 . S
C2127 C2128 1.398 . S
C2127 C2133 1.491 . S
C2128 H2119 0.950 . S
C2128 C2127 1.398 . S
C2128 C2129 1.391 1_654 S
C2129 H2117 0.950 . S
C2129 C2125 1.393 . S
C2129 C2128 1.391 1_456 S
C2130 H2120 0.950 . S
C2130 C2131 1.386 . S
C2130 C2132 1.391 . S
C2131 C2130 1.386 . S
C2131 C2135 1.393 . S
C2132 H2121 0.950 . S
C2132 C2130 1.391 . S
C2132 C2133 1.400 . S
C2133 C2127 1.491 . S
C2133 C2132 1.400 . S
C2133 C2134 1.398 . S
C2134 H2122 0.950 . S
C2134 C2133 1.398 . S
C2134 C2135 1.391 . S
C2135 H2123 0.950 . S
C2135 C2131 1.393 . S
C2135 C2134 1.391 . S
H2136 C2144 0.950 . S
H2137 C2149 0.950 . S
H2138 C2146 0.950 . S
H2139 C2148 0.950 . S
H2140 C2150 0.950 . S
H2141 C2152 0.950 . S
H2142 C2154 0.950 . S
H2143 C2155 0.950 . S
C2144 H2136 0.950 . S
C2144 C2145 1.386 . S
C2144 C2146 1.391 . S
C2145 C2144 1.386 . S
C2145 C2149 1.393 . S
C2146 H2138 0.950 . S
C2146 C2144 1.391 . S
C2146 C2147 1.400 . S
C2147 C2146 1.400 . S
C2147 C2148 1.398 . S
C2147 C2153 1.491 . S
C2148 H2139 0.950 . S
C2148 C2147 1.398 . S
C2148 C2149 1.391 . S
C2149 H2137 0.950 . S
C2149 C2145 1.393 . S
C2149 C2148 1.391 . S
C2150 H2140 0.950 . S
C2150 C2151 1.386 . S
C2150 C2152 1.391 . S
C2151 C2150 1.386 . S
C2151 C2155 1.393 . S
C2152 H2141 0.950 . S
C2152 C2150 1.391 . S
C2152 C2153 1.400 . S
C2153 C2147 1.491 . S
C2153 C2152 1.400 . S
C2153 C2154 1.398 . S
C2154 H2142 0.950 . S
C2154 C2153 1.398 . S
C2154 C2155 1.391 . S
C2155 H2143 0.950 . S
C2155 C2151 1.393 . S
C2155 C2154 1.391 . S
H2156 C2164 0.950 . S
H2157 C2169 0.950 . S
H2158 C2166 0.950 . S
H2159 C2168 0.950 . S
H2160 C2170 0.950 . S
H2161 C2172 0.950 . S
H2162 C2174 0.950 . S
H2163 C2175 0.950 . S
C2164 H2156 0.950 . S
C2164 C2165 1.386 1_565 S
C2164 C2166 1.391 . S
C2165 C2164 1.386 1_545 S
C2165 C2169 1.393 . S
C2166 H2158 0.950 . S
C2166 C2164 1.391 . S
C2166 C2167 1.400 1_565 S
C2167 C2166 1.400 1_545 S
C2167 C2168 1.398 . S
C2167 C2173 1.491 . S
C2168 H2159 0.950 . S
C2168 C2167 1.398 . S
C2168 C2169 1.391 . S
C2169 H2157 0.950 . S
C2169 C2165 1.393 . S
C2169 C2168 1.391 . S
C2170 H2160 0.950 . S
C2170 C2171 1.386 . S
C2170 C2172 1.391 1_455 S
C2171 C2170 1.386 . S
C2171 C2175 1.393 1_445 S
C2172 H2161 0.950 . S
C2172 C2170 1.391 1_655 S
C2172 C2173 1.400 . S
C2173 C2167 1.491 . S
C2173 C2172 1.400 . S
C2173 C2174 1.398 1_545 S
C2174 H2162 0.950 . S
C2174 C2173 1.398 1_565 S
C2174 C2175 1.391 . S
C2175 H2163 0.950 . S
C2175 C2171 1.393 1_665 S
C2175 C2174 1.391 . S
H2176 C2184 0.950 . S
H2177 C2189 0.950 . S
H2178 C2186 0.950 . S
H2179 C2188 0.950 . S
H2180 C2190 0.950 . S
H2181 C2192 0.950 . S
H2182 C2194 0.950 . S
H2183 C2195 0.950 . S
C2184 H2176 0.950 . S
C2184 C2185 1.386 . S
C2184 C2186 1.391 . S
C2185 C2184 1.386 . S
C2185 C2189 1.393 . S
C2186 H2178 0.950 . S
C2186 C2184 1.391 . S
C2186 C2187 1.400 . S
C2187 C2186 1.400 . S
C2187 C2188 1.398 . S
C2187 C2193 1.491 . S
C2188 H2179 0.950 . S
C2188 C2187 1.398 . S
C2188 C2189 1.391 . S
C2189 H2177 0.950 . S
C2189 C2185 1.393 . S
C2189 C2188 1.391 . S
C2190 H2180 0.950 . S
C2190 C2191 1.386 . S
C2190 C2192 1.391 . S
C2191 C2190 1.386 . S
C2191 C2195 1.393 . S
C2192 H2181 0.950 . S
C2192 C2190 1.391 . S
C2192 C2193 1.400 . S
C2193 C2187 1.491 . S
C2193 C2192 1.400 . S
C2193 C2194 1.398 . S
C2194 H2182 0.950 . S
C2194 C2193 1.398 . S
C2194 C2195 1.391 . S
C2195 H2183 0.950 . S
C2195 C2191 1.393 . S
C2195 C2194 1.391 . S
H2196 C2204 0.950 . S
H2197 C2209 0.950 . S
H2198 C2206 0.950 . S
H2199 C2208 0.950 . S
H2200 C2210 0.950 . S
H2201 C2212 0.950 . S
H2202 C2214 0.950 . S
H2203 C2215 0.950 . S
C2204 H2196 0.950 . S
C2204 C2205 1.386 . S
C2204 C2206 1.391 . S
C2205 C2204 1.386 . S
C2205 C2209 1.393 . S
C2206 H2198 0.950 . S
C2206 C2204 1.391 . S
C2206 C2207 1.400 . S
C2207 C2206 1.400 . S
C2207 C2208 1.398 . S
C2207 C2213 1.491 . S
C2208 H2199 0.950 . S
C2208 C2207 1.398 . S
C2208 C2209 1.391 . S
C2209 H2197 0.950 . S
C2209 C2205 1.393 . S
C2209 C2208 1.391 . S
C2210 H2200 0.950 . S
C2210 C2211 1.386 1_455 S
C2210 C2212 1.391 . S
C2211 C2210 1.386 1_655 S
C2211 C2215 1.393 . S
C2212 H2201 0.950 . S
C2212 C2210 1.391 . S
C2212 C2213 1.400 . S
C2213 C2207 1.491 . S
C2213 C2212 1.400 . S
C2213 C2214 1.398 . S
C2214 H2202 0.950 . S
C2214 C2213 1.398 . S
C2214 C2215 1.391 1_455 S
C2215 H2203 0.950 . S
C2215 C2211 1.393 . S
C2215 C2214 1.391 1_655 S
H2216 C2224 0.950 . S
H2217 C2229 0.950 . S
H2218 C2226 0.950 . S
H2219 C2228 0.950 . S
H2220 C2230 0.950 . S
H2221 C2232 0.950 . S
H2222 C2234 0.950 . S
H2223 C2235 0.950 . S
C2224 H2216 0.950 . S
C2224 C2225 1.386 . S
C2224 C2226 1.391 . S
C2225 C2224 1.386 . S
C2225 C2229 1.393 . S
C2226 H2218 0.950 . S
C2226 C2224 1.391 . S
C2226 C2227 1.400 . S
C2227 C2226 1.400 . S
C2227 C2228 1.398 . S
C2227 C2233 1.491 . S
C2228 H2219 0.950 . S
C2228 C2227 1.398 . S
C2228 C2229 1.391 . S
C2229 H2217 0.950 . S
C2229 C2225 1.393 . S
C2229 C2228 1.391 . S
C2230 H2220 0.950 . S
C2230 C2231 1.386 . S
C2230 C2232 1.391 . S
C2231 C2230 1.386 . S
C2231 C2235 1.393 . S
C2232 H2221 0.950 . S
C2232 C2230 1.391 . S
C2232 C2233 1.400 . S
C2233 C2227 1.491 . S
C2233 C2232 1.400 . S
C2233 C2234 1.398 . S
C2234 H2222 0.950 . S
C2234 C2233 1.398 . S
C2234 C2235 1.391 . S
C2235 H2223 0.950 . S
C2235 C2231 1.393 . S
C2235 C2234 1.391 . S
H2236 C2244 0.950 . S
H2237 C2249 0.950 . S
H2238 C2246 0.950 . S
H2239 C2248 0.950 . S
H2240 C2250 0.950 . S
H2241 C2252 0.950 . S
H2242 C2254 0.950 . S
H2243 C2255 0.950 . S
C2244 H2236 0.950 . S
C2244 C2245 1.386 . S
C2244 C2246 1.391 . S
C2245 C2244 1.386 . S
C2245 C2249 1.393 . S
C2246 H2238 0.950 . S
C2246 C2244 1.391 . S
C2246 C2247 1.400 . S
C2247 C2246 1.400 . S
C2247 C2248 1.398 . S
C2247 C2253 1.491 . S
C2248 H2239 0.950 . S
C2248 C2247 1.398 . S
C2248 C2249 1.391 . S
C2249 H2237 0.950 . S
C2249 C2245 1.393 . S
C2249 C2248 1.391 . S
C2250 H2240 0.950 . S
C2250 C2251 1.386 1_455 S
C2250 C2252 1.391 . S
C2251 C2250 1.386 1_655 S
C2251 C2255 1.393 . S
C2252 H2241 0.950 . S
C2252 C2250 1.391 . S
C2252 C2253 1.400 . S
C2253 C2247 1.491 . S
C2253 C2252 1.400 . S
C2253 C2254 1.398 . S
C2254 H2242 0.950 . S
C2254 C2253 1.398 . S
C2254 C2255 1.391 1_455 S
C2255 H2243 0.950 . S
C2255 C2251 1.393 . S
C2255 C2254 1.391 1_655 S
H2256 C2264 0.950 . S
H2257 C2269 0.950 . S
H2258 C2266 0.950 . S
H2259 C2268 0.950 . S
H2260 C2270 0.950 . S
H2261 C2272 0.950 . S
H2262 C2274 0.950 . S
H2263 C2275 0.950 . S
C2264 H2256 0.950 . S
C2264 C2265 1.386 . S
C2264 C2266 1.391 . S
C2265 C2264 1.386 . S
C2265 C2269 1.393 . S
C2266 H2258 0.950 . S
C2266 C2264 1.391 . S
C2266 C2267 1.400 . S
C2267 C2266 1.400 . S
C2267 C2268 1.398 . S
C2267 C2273 1.491 . S
C2268 H2259 0.950 . S
C2268 C2267 1.398 . S
C2268 C2269 1.391 . S
C2269 H2257 0.950 . S
C2269 C2265 1.393 . S
C2269 C2268 1.391 . S
C2270 H2260 0.950 . S
C2270 C2271 1.386 . S
C2270 C2272 1.391 . S
C2271 C2270 1.386 . S
C2271 C2275 1.393 . S
C2272 H2261 0.950 . S
C2272 C2270 1.391 . S
C2272 C2273 1.400 . S
C2273 C2267 1.491 . S
C2273 C2272 1.400 . S
C2273 C2274 1.398 . S
C2274 H2262 0.950 . S
C2274 C2273 1.398 . S
C2274 C2275 1.391 . S
C2275 H2263 0.950 . S
C2275 C2271 1.393 . S
C2275 C2274 1.391 . S
H2276 C2284 0.950 . S
H2277 C2289 0.950 . S
H2278 C2286 0.950 . S
H2279 C2288 0.950 . S
H2280 C2290 0.950 . S
H2281 C2292 0.950 . S
H2282 C2294 0.950 . S
H2283 C2295 0.950 . S
C2284 H2276 0.950 . S
C2284 C2285 1.386 . S
C2284 C2286 1.391 1_455 S
C2285 C2284 1.386 . S
C2285 C2289 1.393 1_455 S
C2286 H2278 0.950 . S
C2286 C2284 1.391 1_655 S
C2286 C2287 1.400 . S
C2287 C2286 1.400 . S
C2287 C2288 1.398 . S
C2287 C2293 1.491 . S
C2288 H2279 0.950 . S
C2288 C2287 1.398 . S
C2288 C2289 1.391 . S
C2289 H2277 0.950 . S
C2289 C2285 1.393 1_655 S
C2289 C2288 1.391 . S
C2290 H2280 0.950 . S
C2290 C2291 1.386 . S
C2290 C2292 1.391 . S
C2291 C2290 1.386 . S
C2291 C2295 1.393 . S
C2292 H2281 0.950 . S
C2292 C2290 1.391 . S
C2292 C2293 1.400 . S
C2293 C2287 1.491 . S
C2293 C2292 1.400 . S
C2293 C2294 1.398 . S
C2294 H2282 0.950 . S
C2294 C2293 1.398 . S
C2294 C2295 1.391 . S
C2295 H2283 0.950 . S
C2295 C2291 1.393 . S
C2295 C2294 1.391 . S
H2296 C2304 0.950 . S
H2297 C2309 0.950 . S
H2298 C2306 0.950 . S
H2299 C2308 0.950 . S
H2300 C2310 0.950 . S
H2301 C2312 0.950 . S
H2302 C2314 0.950 . S
H2303 C2315 0.950 . S
C2304 H2296 0.950 . S
C2304 C2305 1.386 . S
C2304 C2306 1.391 . S
C2305 C2304 1.386 . S
C2305 C2309 1.393 . S
C2306 H2298 0.950 . S
C2306 C2304 1.391 . S
C2306 C2307 1.400 . S
C2307 C2306 1.400 . S
C2307 C2308 1.398 . S
C2307 C2313 1.491 . S
C2308 H2299 0.950 . S
C2308 C2307 1.398 . S
C2308 C2309 1.391 . S
C2309 H2297 0.950 . S
C2309 C2305 1.393 . S
C2309 C2308 1.391 . S
C2310 H2300 0.950 . S
C2310 C2311 1.386 . S
C2310 C2312 1.391 . S
C2311 C2310 1.386 . S
C2311 C2315 1.393 . S
C2312 H2301 0.950 . S
C2312 C2310 1.391 . S
C2312 C2313 1.400 . S
C2313 C2307 1.491 . S
C2313 C2312 1.400 . S
C2313 C2314 1.398 . S
C2314 H2302 0.950 . S
C2314 C2313 1.398 . S
C2314 C2315 1.391 . S
C2315 H2303 0.950 . S
C2315 C2311 1.393 . S
C2315 C2314 1.391 . S
H2316 C2324 0.950 . S
H2317 C2329 0.950 . S
H2318 C2326 0.950 . S
H2319 C2328 0.950 . S
H2320 C2330 0.950 . S
H2321 C2332 0.950 . S
H2322 C2334 0.950 . S
H2323 C2335 0.950 . S
C2324 H2316 0.950 . S
C2324 C2325 1.386 . S
C2324 C2326 1.391 . S
C2325 C2324 1.386 . S
C2325 C2329 1.393 . S
C2326 H2318 0.950 . S
C2326 C2324 1.391 . S
C2326 C2327 1.400 . S
C2327 C2326 1.400 . S
C2327 C2328 1.398 . S
C2327 C2333 1.491 . S
C2328 H2319 0.950 . S
C2328 C2327 1.398 . S
C2328 C2329 1.391 . S
C2329 H2317 0.950 . S
C2329 C2325 1.393 . S
C2329 C2328 1.391 . S
C2330 H2320 0.950 . S
C2330 C2331 1.386 1_655 S
C2330 C2332 1.391 . S
C2331 C2330 1.386 1_455 S
C2331 C2335 1.393 . S
C2332 H2321 0.950 . S
C2332 C2330 1.391 . S
C2332 C2333 1.400 . S
C2333 C2327 1.491 . S
C2333 C2332 1.400 . S
C2333 C2334 1.398 . S
C2334 H2322 0.950 . S
C2334 C2333 1.398 . S
C2334 C2335 1.391 1_655 S
C2335 H2323 0.950 . S
C2335 C2331 1.393 . S
C2335 C2334 1.391 1_455 S
H2336 C2344 0.950 . S
H2337 C2349 0.950 . S
H2338 C2346 0.950 . S
H2339 C2348 0.950 . S
H2340 C2350 0.950 . S
H2341 C2352 0.950 . S
H2342 C2354 0.950 . S
H2343 C2355 0.950 . S
C2344 H2336 0.950 . S
C2344 C2345 1.386 1_545 S
C2344 C2346 1.391 . S
C2345 C2344 1.386 1_565 S
C2345 C2349 1.393 . S
C2346 H2338 0.950 . S
C2346 C2344 1.391 . S
C2346 C2347 1.400 1_545 S
C2347 C2346 1.400 1_565 S
C2347 C2348 1.398 . S
C2347 C2353 1.491 . S
C2348 H2339 0.950 . S
C2348 C2347 1.398 . S
C2348 C2349 1.391 . S
C2349 H2337 0.950 . S
C2349 C2345 1.393 . S
C2349 C2348 1.391 . S
C2350 H2340 0.950 . S
C2350 C2351 1.386 . S
C2350 C2352 1.391 . S
C2351 C2350 1.386 . S
C2351 C2355 1.393 1_565 S
C2352 H2341 0.950 . S
C2352 C2350 1.391 . S
C2352 C2353 1.400 . S
C2353 C2347 1.491 . S
C2353 C2352 1.400 . S
C2353 C2354 1.398 1_565 S
C2354 H2342 0.950 . S
C2354 C2353 1.398 1_545 S
C2354 C2355 1.391 . S
C2355 H2343 0.950 . S
C2355 C2351 1.393 1_545 S
C2355 C2354 1.391 . S
H2356 C2364 0.950 . S
H2357 C2369 0.950 . S
H2358 C2366 0.950 . S
H2359 C2368 0.950 . S
H2360 C2370 0.950 . S
H2361 C2372 0.950 . S
H2362 C2374 0.950 . S
H2363 C2375 0.950 . S
C2364 H2356 0.950 . S
C2364 C2365 1.386 . S
C2364 C2366 1.391 . S
C2365 C2364 1.386 . S
C2365 C2369 1.393 . S
C2366 H2358 0.950 . S
C2366 C2364 1.391 . S
C2366 C2367 1.400 . S
C2367 C2366 1.400 . S
C2367 C2368 1.398 . S
C2367 C2373 1.491 . S
C2368 H2359 0.950 . S
C2368 C2367 1.398 . S
C2368 C2369 1.391 . S
C2369 H2357 0.950 . S
C2369 C2365 1.393 . S
C2369 C2368 1.391 . S
C2370 H2360 0.950 . S
C2370 C2371 1.386 . S
C2370 C2372 1.391 . S
C2371 C2370 1.386 . S
C2371 C2375 1.393 . S
C2372 H2361 0.950 . S
C2372 C2370 1.391 . S
C2372 C2373 1.400 . S
C2373 C2367 1.491 . S
C2373 C2372 1.400 . S
C2373 C2374 1.398 . S
C2374 H2362 0.950 . S
C2374 C2373 1.398 . S
C2374 C2375 1.391 . S
C2375 H2363 0.950 . S
C2375 C2371 1.393 . S
C2375 C2374 1.391 . S
H2376 C2384 0.950 . S
H2377 C2389 0.950 . S
H2378 C2386 0.950 . S
H2379 C2388 0.950 . S
H2380 C2390 0.950 . S
H2381 C2392 0.950 . S
H2382 C2394 0.950 . S
H2383 C2395 0.950 . S
C2384 H2376 0.950 . S
C2384 C2385 1.386 . S
C2384 C2386 1.391 . S
C2385 C2384 1.386 . S
C2385 C2389 1.393 . S
C2386 H2378 0.950 . S
C2386 C2384 1.391 . S
C2386 C2387 1.400 . S
C2387 C2386 1.400 . S
C2387 C2388 1.398 . S
C2387 C2393 1.491 . S
C2388 H2379 0.950 . S
C2388 C2387 1.398 . S
C2388 C2389 1.391 . S
C2389 H2377 0.950 . S
C2389 C2385 1.393 . S
C2389 C2388 1.391 . S
C2390 H2380 0.950 . S
C2390 C2391 1.386 . S
C2390 C2392 1.391 . S
C2391 C2390 1.386 . S
C2391 C2395 1.393 . S
C2392 H2381 0.950 . S
C2392 C2390 1.391 . S
C2392 C2393 1.400 . S
C2393 C2387 1.491 . S
C2393 C2392 1.400 . S
C2393 C2394 1.398 . S
C2394 H2382 0.950 . S
C2394 C2393 1.398 . S
C2394 C2395 1.391 . S
C2395 H2383 0.950 . S
C2395 C2391 1.393 . S
C2395 C2394 1.391 . S
H2396 C2404 0.950 . S
H2397 C2409 0.950 . S
H2398 C2406 0.950 . S
H2399 C2408 0.950 . S
H2400 C2410 0.950 . S
H2401 C2412 0.950 . S
H2402 C2414 0.950 . S
H2403 C2415 0.950 . S
C2404 H2396 0.950 . S
C2404 C2405 1.386 1_545 S
C2404 C2406 1.391 . S
C2405 C2404 1.386 1_565 S
C2405 C2409 1.393 . S
C2406 H2398 0.950 . S
C2406 C2404 1.391 . S
C2406 C2407 1.400 1_545 S
C2407 C2406 1.400 1_565 S
C2407 C2408 1.398 . S
C2407 C2413 1.491 . S
C2408 H2399 0.950 . S
C2408 C2407 1.398 . S
C2408 C2409 1.391 . S
C2409 H2397 0.950 . S
C2409 C2405 1.393 . S
C2409 C2408 1.391 . S
C2410 H2400 0.950 . S
C2410 C2411 1.386 . S
C2410 C2412 1.391 . S
C2411 C2410 1.386 . S
C2411 C2415 1.393 1_565 S
C2412 H2401 0.950 . S
C2412 C2410 1.391 . S
C2412 C2413 1.400 . S
C2413 C2407 1.491 . S
C2413 C2412 1.400 . S
C2413 C2414 1.398 1_565 S
C2414 H2402 0.950 . S
C2414 C2413 1.398 1_545 S
C2414 C2415 1.391 . S
C2415 H2403 0.950 . S
C2415 C2411 1.393 1_545 S
C2415 C2414 1.391 . S
H2416 C2424 0.950 . S
H2417 C2429 0.950 . S
H2418 C2426 0.950 . S
H2419 C2428 0.950 . S
H2420 C2430 0.950 . S
H2421 C2432 0.950 . S
H2422 C2434 0.950 . S
H2423 C2435 0.949 1_565 S
C2424 H2416 0.950 . S
C2424 C2425 1.383 1_565 S
C2424 C2426 1.391 . S
C2425 C2424 1.383 1_545 S
C2425 C2429 1.396 . S
C2426 H2418 0.950 . S
C2426 C2424 1.391 . S
C2426 C2427 1.400 1_565 S
C2427 C2426 1.400 1_545 S
C2427 C2428 1.398 . S
C2427 C2433 1.491 . S
C2428 H2419 0.950 . S
C2428 C2427 1.398 . S
C2428 C2429 1.391 . S
C2429 H2417 0.950 . S
C2429 C2425 1.396 . S
C2429 C2428 1.391 . S
C2430 H2420 0.950 . S
C2430 C2431 1.386 . S
C2430 C2432 1.391 . S
C2431 C2430 1.386 . S
C2431 C2435 1.393 . S
C2432 H2421 0.950 . S
C2432 C2430 1.391 . S
C2432 C2433 1.400 . S
C2433 C2427 1.491 . S
C2433 C2432 1.400 . S
C2433 C2434 1.398 . S
C2434 H2422 0.950 . S
C2434 C2433 1.398 . S
C2434 C2435 1.391 . S
C2435 H2423 0.949 1_545 S
C2435 C2431 1.393 . S
C2435 C2434 1.391 . S
H2436 C2444 0.950 . S
H2437 C2449 0.950 . S
H2438 C2446 0.950 . S
H2439 C2448 0.950 . S
H2440 C2450 0.950 . S
H2441 C2452 0.950 . S
H2442 C2454 0.950 . S
H2443 C2455 0.950 . S
C2444 H2436 0.950 . S
C2444 C2445 1.386 . S
C2444 C2446 1.391 . S
C2445 C2444 1.386 . S
C2445 C2449 1.393 . S
C2446 H2438 0.950 . S
C2446 C2444 1.391 . S
C2446 C2447 1.400 . S
C2447 C2446 1.400 . S
C2447 C2448 1.398 . S
C2447 C2453 1.491 . S
C2448 H2439 0.950 . S
C2448 C2447 1.398 . S
C2448 C2449 1.391 . S
C2449 H2437 0.950 . S
C2449 C2445 1.393 . S
C2449 C2448 1.391 . S
C2450 H2440 0.950 . S
C2450 C2451 1.386 . S
C2450 C2452 1.391 . S
C2451 C2450 1.386 . S
C2451 C2455 1.393 . S
C2452 H2441 0.950 . S
C2452 C2450 1.391 . S
C2452 C2453 1.400 . S
C2453 C2447 1.491 . S
C2453 C2452 1.400 . S
C2453 C2454 1.398 . S
C2454 H2442 0.950 . S
C2454 C2453 1.398 . S
C2454 C2455 1.391 . S
C2455 H2443 0.950 . S
C2455 C2451 1.393 . S
C2455 C2454 1.391 . S
H2456 C2464 0.950 . S
H2457 C2469 0.950 . S
H2458 C2466 0.950 . S
H2459 C2468 0.950 . S
H2460 C2470 0.950 . S
H2461 C2472 0.950 . S
H2462 C2474 0.950 . S
H2463 C2475 0.950 . S
C2464 H2456 0.950 . S
C2464 C2465 1.386 . S
C2464 C2466 1.391 . S
C2465 C2464 1.386 . S
C2465 C2469 1.393 . S
C2466 H2458 0.950 . S
C2466 C2464 1.391 . S
C2466 C2467 1.400 . S
C2467 C2466 1.400 . S
C2467 C2468 1.398 . S
C2467 C2473 1.491 . S
C2468 H2459 0.950 . S
C2468 C2467 1.398 . S
C2468 C2469 1.391 . S
C2469 H2457 0.950 . S
C2469 C2465 1.393 . S
C2469 C2468 1.391 . S
C2470 H2460 0.950 . S
C2470 C2471 1.386 . S
C2470 C2472 1.391 . S
C2471 C2470 1.386 . S
C2471 C2475 1.393 . S
C2472 H2461 0.950 . S
C2472 C2470 1.391 . S
C2472 C2473 1.400 . S
C2473 C2467 1.491 . S
C2473 C2472 1.400 . S
C2473 C2474 1.398 . S
C2474 H2462 0.950 . S
C2474 C2473 1.398 . S
C2474 C2475 1.391 . S
C2475 H2463 0.950 . S
C2475 C2471 1.393 . S
C2475 C2474 1.391 . S
H2476 C2484 0.950 . S
H2477 C2489 0.950 . S
H2478 C2486 0.950 . S
H2479 C2488 0.950 . S
H2480 C2490 0.950 . S
H2481 C2492 0.950 . S
H2482 C2494 0.950 . S
H2483 C2495 0.950 . S
C2484 H2476 0.950 . S
C2484 C2485 1.386 1_565 S
C2484 C2486 1.391 . S
C2485 C2484 1.386 1_545 S
C2485 C2489 1.393 . S
C2486 H2478 0.950 . S
C2486 C2484 1.391 . S
C2486 C2487 1.400 1_565 S
C2487 C2486 1.400 1_545 S
C2487 C2488 1.398 . S
C2487 C2493 1.491 . S
C2488 H2479 0.950 . S
C2488 C2487 1.398 . S
C2488 C2489 1.391 . S
C2489 H2477 0.950 . S
C2489 C2485 1.393 . S
C2489 C2488 1.391 . S
C2490 H2480 0.950 . S
C2490 C2491 1.386 . S
C2490 C2492 1.391 . S
C2491 C2490 1.386 . S
C2491 C2495 1.393 1_545 S
C2492 H2481 0.950 . S
C2492 C2490 1.391 . S
C2492 C2493 1.400 . S
C2493 C2487 1.491 . S
C2493 C2492 1.400 . S
C2493 C2494 1.398 1_545 S
C2494 H2482 0.950 . S
C2494 C2493 1.398 1_565 S
C2494 C2495 1.391 . S
C2495 H2483 0.950 . S
C2495 C2491 1.393 1_565 S
C2495 C2494 1.391 . S
H2496 C2504 0.950 . S
H2497 C2509 0.950 . S
H2498 C2506 0.950 . S
H2499 C2508 0.950 . S
H2500 C2510 0.950 . S
H2501 C2512 0.950 . S
H2502 C2514 0.950 . S
H2503 C2515 0.950 . S
C2504 H2496 0.950 . S
C2504 C2505 1.386 . S
C2504 C2506 1.391 . S
C2505 C2504 1.386 . S
C2505 C2509 1.393 . S
C2506 H2498 0.950 . S
C2506 C2504 1.391 . S
C2506 C2507 1.400 . S
C2507 C2506 1.400 . S
C2507 C2508 1.398 . S
C2507 C2513 1.491 . S
C2508 H2499 0.950 . S
C2508 C2507 1.398 . S
C2508 C2509 1.391 . S
C2509 H2497 0.950 . S
C2509 C2505 1.393 . S
C2509 C2508 1.391 . S
C2510 H2500 0.950 . S
C2510 C2511 1.386 1_556 S
C2510 C2512 1.391 . S
C2511 C2510 1.386 1_554 S
C2511 C2515 1.393 . S
C2512 H2501 0.950 . S
C2512 C2510 1.391 . S
C2512 C2513 1.400 . S
C2513 C2507 1.491 . S
C2513 C2512 1.400 . S
C2513 C2514 1.398 1_556 S
C2514 H2502 0.950 . S
C2514 C2513 1.398 1_554 S
C2514 C2515 1.391 . S
C2515 H2503 0.950 . S
C2515 C2511 1.393 . S
C2515 C2514 1.391 . S
H2516 C2524 0.950 . S
H2517 C2529 0.950 . S
H2518 C2526 0.950 . S
H2519 C2528 0.950 . S
H2520 C2530 0.950 . S
H2521 C2532 0.950 . S
H2522 C2534 0.950 . S
H2523 C2535 0.950 . S
C2524 H2516 0.950 . S
C2524 C2525 1.386 . S
C2524 C2526 1.391 . S
C2525 C2524 1.386 . S
C2525 C2529 1.393 . S
C2526 H2518 0.950 . S
C2526 C2524 1.391 . S
C2526 C2527 1.400 . S
C2527 C2526 1.400 . S
C2527 C2528 1.398 . S
C2527 C2533 1.491 . S
C2528 H2519 0.950 . S
C2528 C2527 1.398 . S
C2528 C2529 1.391 . S
C2529 H2517 0.950 . S
C2529 C2525 1.393 . S
C2529 C2528 1.391 . S
C2530 H2520 0.950 . S
C2530 C2531 1.386 . S
C2530 C2532 1.391 . S
C2531 C2530 1.386 . S
C2531 C2535 1.393 1_554 S
C2532 H2521 0.950 . S
C2532 C2530 1.391 . S
C2532 C2533 1.400 1_554 S
C2533 C2527 1.491 . S
C2533 C2532 1.400 1_556 S
C2533 C2534 1.398 . S
C2534 H2522 0.950 . S
C2534 C2533 1.398 . S
C2534 C2535 1.391 . S
C2535 H2523 0.950 . S
C2535 C2531 1.393 1_556 S
C2535 C2534 1.391 . S
H2536 C2544 0.950 . S
H2537 C2549 0.950 . S
H2538 C2546 0.950 . S
H2539 C2548 0.950 . S
H2540 C2550 0.950 . S
H2541 C2552 0.950 . S
H2542 C2554 0.950 . S
H2543 C2555 0.950 . S
C2544 H2536 0.950 . S
C2544 C2545 1.386 . S
C2544 C2546 1.391 . S
C2545 C2544 1.386 . S
C2545 C2549 1.393 . S
C2546 H2538 0.950 . S
C2546 C2544 1.391 . S
C2546 C2547 1.400 . S
C2547 C2546 1.400 . S
C2547 C2548 1.398 . S
C2547 C2553 1.491 . S
C2548 H2539 0.950 . S
C2548 C2547 1.398 . S
C2548 C2549 1.391 . S
C2549 H2537 0.950 . S
C2549 C2545 1.393 . S
C2549 C2548 1.391 . S
C2550 H2540 0.950 . S
C2550 C2551 1.386 . S
C2550 C2552 1.391 . S
C2551 C2550 1.386 . S
C2551 C2555 1.393 . S
C2552 H2541 0.950 . S
C2552 C2550 1.391 . S
C2552 C2553 1.400 . S
C2553 C2547 1.491 . S
C2553 C2552 1.400 . S
C2553 C2554 1.398 . S
C2554 H2542 0.950 . S
C2554 C2553 1.398 . S
C2554 C2555 1.391 . S
C2555 H2543 0.950 . S
C2555 C2551 1.393 . S
C2555 C2554 1.391 . S
H2556 C2564 0.950 . S
H2557 C2569 0.950 . S
H2558 C2566 0.950 . S
H2559 C2568 0.950 . S
H2560 C2570 0.950 . S
H2561 C2572 0.950 . S
H2562 C2574 0.950 . S
H2563 C2575 0.950 . S
C2564 H2556 0.950 . S
C2564 C2565 1.386 . S
C2564 C2566 1.391 . S
C2565 C2564 1.386 . S
C2565 C2569 1.393 . S
C2566 H2558 0.950 . S
C2566 C2564 1.391 . S
C2566 C2567 1.400 . S
C2567 C2566 1.400 . S
C2567 C2568 1.398 . S
C2567 C2573 1.491 . S
C2568 H2559 0.950 . S
C2568 C2567 1.398 . S
C2568 C2569 1.391 . S
C2569 H2557 0.950 . S
C2569 C2565 1.393 . S
C2569 C2568 1.391 . S
C2570 H2560 0.950 . S
C2570 C2571 1.386 . S
C2570 C2572 1.391 . S
C2571 C2570 1.386 . S
C2571 C2575 1.393 . S
C2572 H2561 0.950 . S
C2572 C2570 1.391 . S
C2572 C2573 1.400 . S
C2573 C2567 1.491 . S
C2573 C2572 1.400 . S
C2573 C2574 1.398 . S
C2574 H2562 0.950 . S
C2574 C2573 1.398 . S
C2574 C2575 1.391 . S
C2575 H2563 0.950 . S
C2575 C2571 1.393 . S
C2575 C2574 1.391 . S
H2576 C2584 0.950 . S
H2577 C2589 0.950 . S
H2578 C2586 0.950 . S
H2579 C2588 0.950 . S
H2580 C2590 0.950 . S
H2581 C2592 0.950 . S
H2582 C2594 0.950 . S
H2583 C2595 0.950 . S
C2584 H2576 0.950 . S
C2584 C2585 1.386 . S
C2584 C2586 1.391 . S
C2585 C2584 1.386 . S
C2585 C2589 1.393 . S
C2586 H2578 0.950 . S
C2586 C2584 1.391 . S
C2586 C2587 1.400 . S
C2587 C2586 1.400 . S
C2587 C2588 1.398 . S
C2587 C2593 1.491 . S
C2588 H2579 0.950 . S
C2588 C2587 1.398 . S
C2588 C2589 1.391 . S
C2589 H2577 0.950 . S
C2589 C2585 1.393 . S
C2589 C2588 1.391 . S
C2590 H2580 0.950 . S
C2590 C2591 1.386 . S
C2590 C2592 1.391 . S
C2591 C2590 1.386 . S
C2591 C2595 1.393 1_556 S
C2592 H2581 0.950 . S
C2592 C2590 1.391 . S
C2592 C2593 1.400 1_556 S
C2593 C2587 1.491 . S
C2593 C2592 1.400 1_554 S
C2593 C2594 1.398 . S
C2594 H2582 0.950 . S
C2594 C2593 1.398 . S
C2594 C2595 1.391 . S
C2595 H2583 0.950 . S
C2595 C2591 1.393 1_554 S
C2595 C2594 1.391 . S
H2596 C2604 0.950 . S
H2597 C2609 0.950 . S
H2598 C2606 0.950 . S
H2599 C2608 0.950 . S
H2600 C2610 0.950 . S
H2601 C2612 0.950 . S
H2602 C2614 0.950 . S
H2603 C2615 0.950 . S
C2604 H2596 0.950 . S
C2604 C2605 1.386 . S
C2604 C2606 1.391 . S
C2605 C2604 1.386 . S
C2605 C2609 1.393 . S
C2606 H2598 0.950 . S
C2606 C2604 1.391 . S
C2606 C2607 1.400 . S
C2607 C2606 1.400 . S
C2607 C2608 1.398 . S
C2607 C2613 1.491 . S
C2608 H2599 0.950 . S
C2608 C2607 1.398 . S
C2608 C2609 1.391 . S
C2609 H2597 0.950 . S
C2609 C2605 1.393 . S
C2609 C2608 1.391 . S
C2610 H2600 0.950 . S
C2610 C2611 1.386 1_554 S
C2610 C2612 1.391 . S
C2611 C2610 1.386 1_556 S
C2611 C2615 1.393 . S
C2612 H2601 0.950 . S
C2612 C2610 1.391 . S
C2612 C2613 1.400 . S
C2613 C2607 1.491 . S
C2613 C2612 1.400 . S
C2613 C2614 1.398 . S
C2614 H2602 0.950 . S
C2614 C2613 1.398 . S
C2614 C2615 1.391 1_554 S
C2615 H2603 0.950 . S
C2615 C2611 1.393 . S
C2615 C2614 1.391 1_556 S
H2616 C2624 0.950 . S
H2617 C2629 0.950 . S
H2618 C2626 0.950 . S
H2619 C2628 0.950 . S
H2620 C2630 0.950 . S
H2621 C2632 0.950 . S
H2622 C2634 0.950 . S
H2623 C2635 0.950 . S
C2624 H2616 0.950 . S
C2624 C2625 1.386 . S
C2624 C2626 1.391 . S
C2625 C2624 1.386 . S
C2625 C2629 1.393 . S
C2626 H2618 0.950 . S
C2626 C2624 1.391 . S
C2626 C2627 1.400 . S
C2627 C2626 1.400 . S
C2627 C2628 1.398 . S
C2627 C2633 1.491 . S
C2628 H2619 0.950 . S
C2628 C2627 1.398 . S
C2628 C2629 1.391 . S
C2629 H2617 0.950 . S
C2629 C2625 1.393 . S
C2629 C2628 1.391 . S
C2630 H2620 0.950 . S
C2630 C2631 1.386 . S
C2630 C2632 1.391 . S
C2631 C2630 1.386 . S
C2631 C2635 1.393 . S
C2632 H2621 0.950 . S
C2632 C2630 1.391 . S
C2632 C2633 1.400 . S
C2633 C2627 1.491 . S
C2633 C2632 1.400 . S
C2633 C2634 1.398 . S
C2634 H2622 0.950 . S
C2634 C2633 1.398 . S
C2634 C2635 1.391 . S
C2635 H2623 0.950 . S
C2635 C2631 1.393 . S
C2635 C2634 1.391 . S
H2636 C2644 0.950 . S
H2637 C2649 0.950 . S
H2638 C2646 0.950 . S
H2639 C2648 0.950 . S
H2640 C2650 0.950 . S
H2641 C2652 0.950 . S
H2642 C2654 0.950 . S
H2643 C2655 0.950 . S
C2644 H2636 0.950 . S
C2644 C2645 1.386 . S
C2644 C2646 1.391 . S
C2645 C2644 1.386 . S
C2645 C2649 1.393 . S
C2646 H2638 0.950 . S
C2646 C2644 1.391 . S
C2646 C2647 1.400 . S
C2647 C2646 1.400 . S
C2647 C2648 1.398 . S
C2647 C2653 1.491 . S
C2648 H2639 0.950 . S
C2648 C2647 1.398 . S
C2648 C2649 1.391 . S
C2649 H2637 0.950 . S
C2649 C2645 1.393 . S
C2649 C2648 1.391 . S
C2650 H2640 0.950 . S
C2650 C2651 1.386 . S
C2650 C2652 1.391 . S
C2651 C2650 1.386 . S
C2651 C2655 1.393 . S
C2652 H2641 0.950 . S
C2652 C2650 1.391 . S
C2652 C2653 1.400 . S
C2653 C2647 1.491 . S
C2653 C2652 1.400 . S
C2653 C2654 1.398 . S
C2654 H2642 0.950 . S
C2654 C2653 1.398 . S
C2654 C2655 1.391 . S
C2655 H2643 0.950 . S
C2655 C2651 1.393 . S
C2655 C2654 1.391 . S
C745 C594 1.664 . S
C751 C19 1.677 . S
C765 C571 1.676 . S
C771 C42 1.663 . S
C785 C640 1.666 . S
C791 C65 1.677 . S
C805 C617 1.674 . S
C811 C88 1.672 . S
C825 C111 1.677 . S
C831 C686 1.666 . S
C845 C134 1.663 . S
C851 C663 1.674 . S
C865 C157 1.663 . S
C871 C732 1.675 . S
C885 C709 1.668 . S
C891 C180 1.677 . S
C905 C410 1.673 . S
C911 C203 1.663 . S
C925 C387 1.666 . S
C931 C226 1.668 . S
C945 C456 1.669 . S
C951 C249 1.666 . S
C965 C433 1.674 . S
C971 C272 1.672 . S
C985 C295 1.666 . S
C991 C502 1.677 . S
C1005 C479 1.665 . S
C1011 C318 1.670 . S
C1025 C341 1.674 . S
C1031 C548 1.663 . S
C1045 C525 1.663 . S
C1051 C364 1.675 . S
C1065 C21 1.165 . S
C1071 C481 1.165 . S
C1085 C320 1.152 . S
C1091 C44 1.152 . S
C1105 C711 1.158 . S
C1111 C67 1.158 . S
C1125 C90 1.165 . S
C1131 C182 1.165 . S
C1145 C113 1.155 . S
C1151 C389 1.155 . S
C1165 C136 1.155 . S
C1171 C228 1.155 . S
C1185 C159 1.164 . S
C1191 C619 1.164 . S
C1205 C665 1.151 . S
C1211 C205 1.151 . S
C1225 C527 1.151 . S
C1231 C251 1.151 . S
C1245 C366 1.156 . S
C1251 C274 1.156 . S
C1265 C573 1.157 . S
C1271 C297 1.157 . S
C1285 C343 1.152 . S
C1291 C435 1.152 . S
C1305 C688 1.155 . S
C1311 C412 1.155 . S
C1325 C458 1.163 . S
C1331 C550 1.163 . S
C1345 C596 1.154 . S
C1351 C504 1.154 . S
C1365 C642 1.159 . S
C1371 C734 1.159 . S
C1385 C18 1.221 . S
C1391 C455 1.201 . S
C1405 C41 1.209 . S
C1411 C432 1.212 . S
C1425 C64 1.216 . S
C1431 C409 1.201 . S
C1445 C87 1.216 . S
C1451 C386 1.201 . S
C1465 C110 1.221 . S
C1471 C547 1.201 . S
C1485 C133 1.208 . S
C1491 C524 1.214 . S
C1505 C156 1.205 . S
C1511 C501 1.211 . S
C1525 C179 1.208 . S
C1531 C478 1.208 . S
C1545 C202 1.216 . S
C1551 C639 1.200 . S
C1565 C225 1.201 . S
C1571 C616 1.215 . S
C1585 C248 1.201 . S
C1591 C593 1.220 . S
C1605 C271 1.216 . S
C1611 C570 1.206 . S
C1625 C731 1.209 . S
C1631 C294 1.207 . S
C1645 C708 1.207 . S
C1651 C317 1.211 . S
C1665 C685 1.219 . S
C1671 C340 1.202 . S
C1685 C662 1.210 . S
C1691 C363 1.211 . S
C1705 C66 1.273 . S
C1711 C20 1.272 . S
C1725 C89 1.278 . S
C1731 C43 1.264 . S
C1745 C158 1.262 . S
C1751 C112 1.278 . S
C1765 C135 1.276 . S
C1771 C181 1.267 . S
C1785 C250 1.264 . S
C1791 C204 1.278 . S
C1805 C227 1.266 . S
C1811 C273 1.277 . S
C1825 C342 1.278 . S
C1831 C296 1.258 . S
C1845 C319 1.270 . S
C1851 C365 1.259 . S
C1865 C388 1.258 . S
C1871 C434 1.272 . S
C1885 C411 1.277 . S
C1891 C457 1.257 . S
C1905 C526 1.261 . S
C1911 C480 1.266 . S
C1925 C503 1.277 . S
C1931 C549 1.258 . S
C1945 C572 1.268 . S
C1951 C618 1.259 . S
C1965 C641 1.276 . S
C1971 C595 1.267 . S
C1985 C664 1.265 . S
C1991 C710 1.277 . S
C2005 C687 1.273 . S
C2011 C733 1.271 . S
C2025 C16 1.661 . S
C2031 C178 1.662 . S
C2045 C707 1.662 . S
C2051 C39 1.661 . S
C2065 C62 1.661 . S
C2071 C316 1.662 . S
C2085 C85 1.661 . S
C2091 C477 1.663 . S
C2105 C86 1.663 . S
C2111 C108 1.662 . S
C2125 C131 1.663 . S
C2131 C615 1.662 . S
C2145 C224 1.662 . S
C2151 C154 1.662 . S
C2165 C385 1.663 . S
C2171 C177 1.662 . S
C2185 C200 1.662 . S
C2191 C362 1.662 . S
C2205 C523 1.663 . S
C2211 C223 1.662 . S
C2225 C246 1.662 . S
C2231 C132 1.663 . S
C2245 C661 1.663 . S
C2251 C269 1.661 . S
C2265 C292 1.661 . S
C2271 C270 1.662 . S
C2285 C315 1.663 . S
C2291 C431 1.662 . S
C2305 C338 1.662 . S
C2311 C40 1.663 . S
C2325 C569 1.662 . S
C2331 C361 1.662 . S
C2345 C384 1.661 . S
C2351 C546 1.663 . S
C2365 C407 1.663 . S
C2371 C339 1.662 . S
C2385 C430 1.663 . S
C2391 C684 1.663 . S
C2405 C453 1.661 . S
C2411 C109 1.663 . S
C2425 C476 1.664 . S
C2431 C454 1.662 . S
C2445 C247 1.662 . S
C2451 C499 1.662 . S
C2465 C592 1.662 . S
C2471 C522 1.663 . S
C2485 C545 1.663 . S
C2491 C17 1.663 . S
C2505 C730 1.662 . S
C2511 C568 1.662 . S
C2525 C155 1.662 . S
C2531 C591 1.661 . S
C2545 C500 1.662 . S
C2551 C614 1.661 . S
C2565 C637 1.662 . S
C2571 C293 1.663 . S
C2585 C638 1.662 . S
C2591 C660 1.663 . S
C2605 C63 1.662 . S
C2611 C683 1.663 . S
C2625 C408 1.662 . S
C2631 C706 1.663 . S
C2645 C729 1.663 . S
C2651 C201 1.662 . S
