# Generated by pormake.
# Topology uos, (4)-cn, num edge types: 1
# Building blocks:
#     Node 0, Type 0, BuildingBlock: AZAVOO_clean_sbu_0, # of connection points: 4
#     Node 1, Type 0, BuildingBlock: AZAVOO_clean_sbu_0, # of connection points: 4
#     Node 2, Type 0, BuildingBlock: AZAVOO_clean_sbu_0, # of connection points: 4
#     Node 3, Type 0, BuildingBlock: AZAVOO_clean_sbu_0, # of connection points: 4
#     Node 4, Type 0, BuildingBlock: AZAVOO_clean_sbu_0, # of connection points: 4
#     Node 5, Type 0, BuildingBlock: AZAVOO_clean_sbu_0, # of connection points: 4
#     Node 6, Type 0, BuildingBlock: AZAVOO_clean_sbu_0, # of connection points: 4
#     Node 7, Type 0, BuildingBlock: AZAVOO_clean_sbu_0, # of connection points: 4
#     Node 8, Type 0, BuildingBlock: AZAVOO_clean_sbu_0, # of connection points: 4
#     Node 9, Type 0, BuildingBlock: AZAVOO_clean_sbu_0, # of connection points: 4
#     Node 10, Type 0, BuildingBlock: AZAVOO_clean_sbu_0, # of connection points: 4
#     Node 11, Type 0, BuildingBlock: AZAVOO_clean_sbu_0, # of connection points: 4
#     Node 12, Type 0, BuildingBlock: AZAVOO_clean_sbu_0, # of connection points: 4
#     Node 13, Type 0, BuildingBlock: AZAVOO_clean_sbu_0, # of connection points: 4
#     Node 14, Type 0, BuildingBlock: AZAVOO_clean_sbu_0, # of connection points: 4
#     Node 15, Type 0, BuildingBlock: AZAVOO_clean_sbu_0, # of connection points: 4
#     Node 16, Type 0, BuildingBlock: AZAVOO_clean_sbu_0, # of connection points: 4
#     Node 17, Type 0, BuildingBlock: AZAVOO_clean_sbu_0, # of connection points: 4
#     Node 18, Type 0, BuildingBlock: AZAVOO_clean_sbu_0, # of connection points: 4
#     Node 19, Type 0, BuildingBlock: AZAVOO_clean_sbu_0, # of connection points: 4
#     Node 20, Type 0, BuildingBlock: AZAVOO_clean_sbu_0, # of connection points: 4
#     Node 21, Type 0, BuildingBlock: AZAVOO_clean_sbu_0, # of connection points: 4
#     Node 22, Type 0, BuildingBlock: AZAVOO_clean_sbu_0, # of connection points: 4
#     Node 23, Type 0, BuildingBlock: AZAVOO_clean_sbu_0, # of connection points: 4
#     Node 24, Type 0, BuildingBlock: AZAVOO_clean_sbu_0, # of connection points: 4
#     Node 25, Type 0, BuildingBlock: AZAVOO_clean_sbu_0, # of connection points: 4
#     Node 26, Type 0, BuildingBlock: AZAVOO_clean_sbu_0, # of connection points: 4
#     Node 27, Type 0, BuildingBlock: AZAVOO_clean_sbu_0, # of connection points: 4
#     Node 28, Type 0, BuildingBlock: AZAVOO_clean_sbu_0, # of connection points: 4
#     Node 29, Type 0, BuildingBlock: AZAVOO_clean_sbu_0, # of connection points: 4
#     Node 30, Type 0, BuildingBlock: AZAVOO_clean_sbu_0, # of connection points: 4
#     Node 31, Type 0, BuildingBlock: AZAVOO_clean_sbu_0, # of connection points: 4
#     Edge 32, Type (0, 0), BuildingBlock: XIVTED_clean_linker_0, # of connection points: 2
#     Edge 33, Type (0, 0), BuildingBlock: XIVTED_clean_linker_0, # of connection points: 2
#     Edge 34, Type (0, 0), BuildingBlock: XIVTED_clean_linker_0, # of connection points: 2
#     Edge 35, Type (0, 0), BuildingBlock: XIVTED_clean_linker_0, # of connection points: 2
#     Edge 36, Type (0, 0), BuildingBlock: XIVTED_clean_linker_0, # of connection points: 2
#     Edge 37, Type (0, 0), BuildingBlock: XIVTED_clean_linker_0, # of connection points: 2
#     Edge 38, Type (0, 0), BuildingBlock: XIVTED_clean_linker_0, # of connection points: 2
#     Edge 39, Type (0, 0), BuildingBlock: XIVTED_clean_linker_0, # of connection points: 2
#     Edge 40, Type (0, 0), BuildingBlock: XIVTED_clean_linker_0, # of connection points: 2
#     Edge 41, Type (0, 0), BuildingBlock: XIVTED_clean_linker_0, # of connection points: 2
#     Edge 42, Type (0, 0), BuildingBlock: XIVTED_clean_linker_0, # of connection points: 2
#     Edge 43, Type (0, 0), BuildingBlock: XIVTED_clean_linker_0, # of connection points: 2
#     Edge 44, Type (0, 0), BuildingBlock: XIVTED_clean_linker_0, # of connection points: 2
#     Edge 45, Type (0, 0), BuildingBlock: XIVTED_clean_linker_0, # of connection points: 2
#     Edge 46, Type (0, 0), BuildingBlock: XIVTED_clean_linker_0, # of connection points: 2
#     Edge 47, Type (0, 0), BuildingBlock: XIVTED_clean_linker_0, # of connection points: 2
#     Edge 48, Type (0, 0), BuildingBlock: XIVTED_clean_linker_0, # of connection points: 2
#     Edge 49, Type (0, 0), BuildingBlock: XIVTED_clean_linker_0, # of connection points: 2
#     Edge 50, Type (0, 0), BuildingBlock: XIVTED_clean_linker_0, # of connection points: 2
#     Edge 51, Type (0, 0), BuildingBlock: XIVTED_clean_linker_0, # of connection points: 2
#     Edge 52, Type (0, 0), BuildingBlock: XIVTED_clean_linker_0, # of connection points: 2
#     Edge 53, Type (0, 0), BuildingBlock: XIVTED_clean_linker_0, # of connection points: 2
#     Edge 54, Type (0, 0), BuildingBlock: XIVTED_clean_linker_0, # of connection points: 2
#     Edge 55, Type (0, 0), BuildingBlock: XIVTED_clean_linker_0, # of connection points: 2
#     Edge 56, Type (0, 0), BuildingBlock: XIVTED_clean_linker_0, # of connection points: 2
#     Edge 57, Type (0, 0), BuildingBlock: XIVTED_clean_linker_0, # of connection points: 2
#     Edge 58, Type (0, 0), BuildingBlock: XIVTED_clean_linker_0, # of connection points: 2
#     Edge 59, Type (0, 0), BuildingBlock: XIVTED_clean_linker_0, # of connection points: 2
#     Edge 60, Type (0, 0), BuildingBlock: XIVTED_clean_linker_0, # of connection points: 2
#     Edge 61, Type (0, 0), BuildingBlock: XIVTED_clean_linker_0, # of connection points: 2
#     Edge 62, Type (0, 0), BuildingBlock: XIVTED_clean_linker_0, # of connection points: 2
#     Edge 63, Type (0, 0), BuildingBlock: XIVTED_clean_linker_0, # of connection points: 2
#     Edge 64, Type (0, 0), BuildingBlock: XIVTED_clean_linker_0, # of connection points: 2
#     Edge 65, Type (0, 0), BuildingBlock: XIVTED_clean_linker_0, # of connection points: 2
#     Edge 66, Type (0, 0), BuildingBlock: XIVTED_clean_linker_0, # of connection points: 2
#     Edge 67, Type (0, 0), BuildingBlock: XIVTED_clean_linker_0, # of connection points: 2
#     Edge 68, Type (0, 0), BuildingBlock: XIVTED_clean_linker_0, # of connection points: 2
#     Edge 69, Type (0, 0), BuildingBlock: XIVTED_clean_linker_0, # of connection points: 2
#     Edge 70, Type (0, 0), BuildingBlock: XIVTED_clean_linker_0, # of connection points: 2
#     Edge 71, Type (0, 0), BuildingBlock: XIVTED_clean_linker_0, # of connection points: 2
#     Edge 72, Type (0, 0), BuildingBlock: XIVTED_clean_linker_0, # of connection points: 2
#     Edge 73, Type (0, 0), BuildingBlock: XIVTED_clean_linker_0, # of connection points: 2
#     Edge 74, Type (0, 0), BuildingBlock: XIVTED_clean_linker_0, # of connection points: 2
#     Edge 75, Type (0, 0), BuildingBlock: XIVTED_clean_linker_0, # of connection points: 2
#     Edge 76, Type (0, 0), BuildingBlock: XIVTED_clean_linker_0, # of connection points: 2
#     Edge 77, Type (0, 0), BuildingBlock: XIVTED_clean_linker_0, # of connection points: 2
#     Edge 78, Type (0, 0), BuildingBlock: XIVTED_clean_linker_0, # of connection points: 2
#     Edge 79, Type (0, 0), BuildingBlock: XIVTED_clean_linker_0, # of connection points: 2
#     Edge 80, Type (0, 0), BuildingBlock: XIVTED_clean_linker_0, # of connection points: 2
#     Edge 81, Type (0, 0), BuildingBlock: XIVTED_clean_linker_0, # of connection points: 2
#     Edge 82, Type (0, 0), BuildingBlock: XIVTED_clean_linker_0, # of connection points: 2
#     Edge 83, Type (0, 0), BuildingBlock: XIVTED_clean_linker_0, # of connection points: 2
#     Edge 84, Type (0, 0), BuildingBlock: XIVTED_clean_linker_0, # of connection points: 2
#     Edge 85, Type (0, 0), BuildingBlock: XIVTED_clean_linker_0, # of connection points: 2
#     Edge 86, Type (0, 0), BuildingBlock: XIVTED_clean_linker_0, # of connection points: 2
#     Edge 87, Type (0, 0), BuildingBlock: XIVTED_clean_linker_0, # of connection points: 2
#     Edge 88, Type (0, 0), BuildingBlock: XIVTED_clean_linker_0, # of connection points: 2
#     Edge 89, Type (0, 0), BuildingBlock: XIVTED_clean_linker_0, # of connection points: 2
#     Edge 90, Type (0, 0), BuildingBlock: XIVTED_clean_linker_0, # of connection points: 2
#     Edge 91, Type (0, 0), BuildingBlock: XIVTED_clean_linker_0, # of connection points: 2
#     Edge 92, Type (0, 0), BuildingBlock: XIVTED_clean_linker_0, # of connection points: 2
#     Edge 93, Type (0, 0), BuildingBlock: XIVTED_clean_linker_0, # of connection points: 2
#     Edge 94, Type (0, 0), BuildingBlock: XIVTED_clean_linker_0, # of connection points: 2
#     Edge 95, Type (0, 0), BuildingBlock: XIVTED_clean_linker_0, # of connection points: 2
# Relax obj value: 0.086
# Max RMSD: 0.112
# Mean RMSD: 0.112
data_MOF--net-uos--node1-AZAVOO_clean_sbu_0--edge1-XIVTED_clean_linker_0
_symmetry_space_group_name_H-M    P1
_symmetry_Int_Tables_number       1
_symmetry_cell_setting            triclinic
loop_
_symmetry_equiv_pos_as_xyz
'x, y, z'
_cell_length_a     85.025037
_cell_length_b     85.125645
_cell_length_c     23.545191
_cell_angle_alpha  90.002169
_cell_angle_beta   89.993135
_cell_angle_gamma 89.996832
loop_
_atom_site_label
_atom_site_type_symbol
_atom_site_fract_x
_atom_site_fract_y
_atom_site_fract_z
_atom_type_partial_charge
Mg0 Mg 0.17021 0.15886 0.132 0.0
O1 O 0.15921 0.14642 0.20934 0.0
O2 O 0.16727 0.15911 0.28726 0.0
Mg3 Mg 0.18211 0.18001 0.26064 0.0
C4 C 0.1596 0.14807 0.26332 0.0
C5 C 0.15571 0.13054 0.06476 0.0
O6 O 0.16556 0.12259 0.09673 0.0
O7 O 0.15202 0.17854 0.13873 0.0
O8 O 0.16036 0.19049 0.21785 0.0
O9 O 0.19236 0.14456 0.14215 0.0
O10 O 0.18801 0.16758 0.18227 0.0
C11 C 0.15073 0.18923 0.17646 0.0
C12 C 0.19705 0.15563 0.17587 0.0
O13 O 0.15465 0.14531 0.07101 0.0
Mg14 Mg 0.07437 0.91523 0.34391 0.0
O15 O 0.08838 0.90604 0.42021 0.0
O16 O 0.07692 0.91458 0.49982 0.0
Mg17 Mg 0.05486 0.92801 0.47448 0.0
C18 C 0.08782 0.90709 0.47428 0.0
C19 C 0.09144 0.90503 0.23648 0.0
O20 O 0.08641 0.91917 0.2234 0.0
O21 O 0.05566 0.8964 0.35754 0.0
O22 O 0.04461 0.90524 0.43765 0.0
O23 O 0.08806 0.93765 0.34724 0.0
O24 O 0.06559 0.93351 0.39219 0.0
C25 C 0.04562 0.89515 0.3976 0.0
C26 C 0.07735 0.94258 0.38208 0.0
O27 O 0.0883 0.89949 0.28523 0.0
Mg28 Mg 0.33253 0.81748 0.58657 0.0
O29 O 0.34108 0.82996 0.66713 0.0
O30 O 0.32949 0.81901 0.74255 0.0
Mg31 Mg 0.3145 0.79874 0.71025 0.0
C32 C 0.33869 0.82918 0.72061 0.0
C33 C 0.354 0.82485 0.48543 0.0
O34 O 0.34643 0.81237 0.46718 0.0
O35 O 0.34892 0.79688 0.60413 0.0
O36 O 0.33705 0.78649 0.68017 0.0
O37 O 0.31171 0.83351 0.58391 0.0
O38 O 0.31218 0.81053 0.62774 0.0
C39 C 0.34816 0.78666 0.64364 0.0
C40 C 0.30475 0.82327 0.61591 0.0
O41 O 0.3512 0.82992 0.53511 0.0
Mg42 Mg 0.40345 0.06657 0.87919 0.0
O43 O 0.39366 0.07948 0.95745 0.0
O44 O 0.39969 0.0651 0.03402 0.0
Mg45 Mg 0.41313 0.04337 0.00562 0.0
C46 C 0.3934 0.07715 0.01111 0.0
C47 C 0.40415 0.08715 0.7727 0.0
O48 O 0.4115 0.07442 0.75559 0.0
O49 O 0.42824 0.07458 0.90198 0.0
O50 O 0.4333 0.0595 0.97758 0.0
O51 O 0.3811 0.05277 0.8712 0.0
O52 O 0.40167 0.04571 0.92292 0.0
C53 C 0.43738 0.06999 0.94168 0.0
C54 C 0.38736 0.04327 0.90762 0.0
O55 O 0.39952 0.08797 0.82389 0.0
Mg56 Mg 0.17306 0.83458 0.8472 0.0
O57 O 0.16204 0.84669 0.76978 0.0
O58 O 0.16766 0.83247 0.69262 0.0
Mg59 Mg 0.18138 0.81091 0.72101 0.0
C60 C 0.1613 0.84437 0.71625 0.0
C61 C 0.15568 0.8445 0.95458 0.0
O62 O 0.1606 0.8303 0.96738 0.0
O63 O 0.15339 0.81644 0.8469 0.0
O64 O 0.15938 0.80257 0.76912 0.0
O65 O 0.19591 0.84699 0.83156 0.0
O66 O 0.18957 0.8238 0.79612 0.0
C67 C 0.15057 0.80533 0.81198 0.0
C68 C 0.19949 0.83516 0.79942 0.0
O69 O 0.15904 0.85018 0.90622 0.0
Mg70 Mg 0.40061 0.9199 0.10306 0.0
O71 O 0.39163 0.90651 0.0247 0.0
O72 O 0.39825 0.92038 0.94758 0.0
Mg73 Mg 0.41142 0.94229 0.97597 0.0
C74 C 0.39181 0.90846 0.97084 0.0
C75 C 0.40148 0.899 0.20932 0.0
O76 O 0.40923 0.91144 0.22692 0.0
O77 O 0.4256 0.9119 0.08412 0.0
O78 O 0.43135 0.92634 0.0075 0.0
O79 O 0.37818 0.93373 0.1072 0.0
O80 O 0.39926 0.9405 0.05766 0.0
C81 C 0.43508 0.91615 0.04501 0.0
C82 C 0.38483 0.94305 0.07102 0.0
O83 O 0.39639 0.89867 0.15866 0.0
Mg84 Mg 0.32978 0.1648 0.39673 0.0
O85 O 0.33889 0.15266 0.31629 0.0
O86 O 0.32764 0.16381 0.24057 0.0
Mg87 Mg 0.31221 0.1838 0.27233 0.0
C88 C 0.33681 0.15364 0.26268 0.0
C89 C 0.35161 0.15822 0.4977 0.0
O90 O 0.34455 0.17121 0.51391 0.0
O91 O 0.34608 0.18568 0.38093 0.0
O92 O 0.33436 0.19611 0.30459 0.0
O93 O 0.30869 0.1488 0.39682 0.0
O94 O 0.30982 0.17192 0.35438 0.0
C95 C 0.34533 0.196 0.34166 0.0
C96 C 0.30207 0.15933 0.36511 0.0
O97 O 0.34827 0.15242 0.4495 0.0
Mg98 Mg 0.07956 0.07066 0.64051 0.0
O99 O 0.09182 0.08196 0.56328 0.0
O100 O 0.07832 0.07493 0.4858 0.0
Mg101 Mg 0.05705 0.06066 0.51286 0.0
C102 C 0.08981 0.08202 0.50943 0.0
C103 C 0.10016 0.07689 0.74304 0.0
O104 O 0.09774 0.06165 0.74443 0.0
O105 O 0.06041 0.08947 0.63851 0.0
O106 O 0.0476 0.08233 0.55957 0.0
O107 O 0.09325 0.0485 0.62617 0.0
O108 O 0.06993 0.05353 0.58896 0.0
C109 C 0.04948 0.09148 0.60205 0.0
C110 C 0.08185 0.04432 0.59302 0.0
O111 O 0.09432 0.08481 0.70246 0.0
Mg112 Mg 0.81089 0.83983 0.87251 0.0
O113 O 0.82375 0.85044 0.7951 0.0
O114 O 0.81291 0.84019 0.71673 0.0
Mg115 Mg 0.79387 0.82293 0.74287 0.0
C116 C 0.82282 0.84923 0.741 0.0
C117 C 0.834 0.86318 0.93278 0.0
O118 O 0.82834 0.87273 0.89401 0.0
O119 O 0.82448 0.81701 0.86051 0.0
O120 O 0.81322 0.80755 0.78176 0.0
O121 O 0.79246 0.8587 0.86864 0.0
O122 O 0.79148 0.83618 0.82186 0.0
C123 C 0.82323 0.80652 0.82206 0.0
C124 C 0.78557 0.8498 0.83167 0.0
O125 O 0.8294 0.84899 0.93375 0.0
Mg126 Mg 0.91569 0.06947 0.65999 0.0
O127 O 0.90211 0.08052 0.58455 0.0
O128 O 0.91447 0.07261 0.50554 0.0
Mg129 Mg 0.93562 0.0577 0.52848 0.0
C130 C 0.90345 0.08013 0.53035 0.0
C131 C 0.90039 0.07704 0.77153 0.0
O132 O 0.90531 0.06246 0.77609 0.0
O133 O 0.93514 0.08772 0.65052 0.0
O134 O 0.94665 0.07936 0.57063 0.0
O135 O 0.90113 0.04771 0.65446 0.0
O136 O 0.92317 0.05161 0.60657 0.0
C137 C 0.94565 0.08899 0.61211 0.0
C138 C 0.91104 0.04299 0.61642 0.0
O139 O 0.90284 0.08434 0.72526 0.0
Mg140 Mg 0.66212 0.16289 0.39869 0.0
O141 O 0.65228 0.15012 0.32034 0.0
O142 O 0.66342 0.16048 0.24283 0.0
Mg143 Mg 0.67998 0.17993 0.27104 0.0
C144 C 0.65408 0.15072 0.26647 0.0
C145 C 0.64091 0.15709 0.50371 0.0
O146 O 0.64946 0.16888 0.52234 0.0
O147 O 0.64663 0.18404 0.37983 0.0
O148 O 0.65848 0.19373 0.30258 0.0
O149 O 0.68216 0.14597 0.40333 0.0
O150 O 0.68237 0.16796 0.35312 0.0
C151 C 0.64763 0.19418 0.34012 0.0
C152 C 0.68916 0.15501 0.36707 0.0
O153 O 0.64314 0.15203 0.45362 0.0
Mg154 Mg 0.5837 0.91994 0.11658 0.0
O155 O 0.59282 0.90562 0.0401 0.0
O156 O 0.58638 0.91915 0.96184 0.0
Mg157 Mg 0.57354 0.94151 0.98664 0.0
C158 C 0.59262 0.90726 0.98603 0.0
C159 C 0.58268 0.9023 0.2281 0.0
O160 O 0.57502 0.91541 0.23831 0.0
O161 O 0.55867 0.91184 0.09707 0.0
O162 O 0.55353 0.92596 0.0191 0.0
O163 O 0.60621 0.93372 0.12035 0.0
O164 O 0.5855 0.94004 0.06832 0.0
C165 C 0.54947 0.91599 0.05692 0.0
C166 C 0.59985 0.9427 0.08245 0.0
O167 O 0.58768 0.89977 0.17806 0.0
Mg168 Mg 0.82091 0.15396 0.15098 0.0
O169 O 0.83217 0.14193 0.22895 0.0
O170 O 0.8231 0.15426 0.30634 0.0
Mg171 Mg 0.80675 0.17397 0.27905 0.0
C172 C 0.83151 0.14365 0.28293 0.0
C173 C 0.84042 0.12748 0.0897 0.0
O174 O 0.83344 0.11857 0.12764 0.0
O175 O 0.83763 0.17456 0.16115 0.0
O176 O 0.828 0.1864 0.23843 0.0
O177 O 0.80001 0.13805 0.15517 0.0
O178 O 0.80214 0.16058 0.20139 0.0
C179 C 0.83799 0.18554 0.19795 0.0
C180 C 0.79429 0.14795 0.19143 0.0
O181 O 0.83789 0.14218 0.08992 0.0
Mg182 Mg 0.5854 0.06565 0.88105 0.0
O183 O 0.59561 0.07817 0.95925 0.0
O184 O 0.58948 0.06402 0.03621 0.0
Mg185 Mg 0.57539 0.04269 0.00781 0.0
C186 C 0.59599 0.07589 0.01291 0.0
C187 C 0.58577 0.08688 0.77512 0.0
O188 O 0.57827 0.07448 0.75579 0.0
O189 O 0.56084 0.07427 0.90436 0.0
O190 O 0.55562 0.05937 0.98035 0.0
O191 O 0.60733 0.05118 0.8726 0.0
O192 O 0.5866 0.04466 0.92443 0.0
C193 C 0.55171 0.06994 0.94448 0.0
C194 C 0.6008 0.0418 0.90884 0.0
O195 O 0.59001 0.08715 0.8268 0.0
Mg196 Mg 0.66255 0.82559 0.5959 0.0
O197 O 0.64981 0.83534 0.6751 0.0
O198 O 0.66273 0.82692 0.75214 0.0
Mg199 Mg 0.68307 0.81156 0.7236 0.0
C200 C 0.65161 0.8347 0.72902 0.0
C201 C 0.63617 0.84626 0.54262 0.0
O202 O 0.64082 0.85554 0.58393 0.0
O203 O 0.65164 0.80146 0.61165 0.0
O204 O 0.66493 0.79413 0.68929 0.0
O205 O 0.67867 0.84641 0.59523 0.0
O206 O 0.683 0.82451 0.6434 0.0
C207 C 0.65458 0.79159 0.6511 0.0
C208 C 0.68701 0.83872 0.6318 0.0
O209 O 0.64247 0.8328 0.53741 0.0
Mg210 Mg 0.91328 0.91547 0.36192 0.0
O211 O 0.89894 0.90502 0.43652 0.0
O212 O 0.91138 0.91226 0.5162 0.0
Mg213 Mg 0.93319 0.92631 0.49448 0.0
C214 C 0.90012 0.90527 0.49077 0.0
C215 C 0.8989 0.90818 0.24864 0.0
O216 O 0.90532 0.92215 0.24328 0.0
O217 O 0.9319 0.89642 0.37231 0.0
O218 O 0.94354 0.90427 0.4526 0.0
O219 O 0.89965 0.93781 0.36673 0.0
O220 O 0.9213 0.93298 0.4158 0.0
C221 C 0.94225 0.89471 0.41105 0.0
C222 C 0.90959 0.9421 0.40533 0.0
O223 O 0.90003 0.90115 0.29609 0.0
Mg224 Mg 0.67535 0.64805 0.6306 0.0
O225 O 0.66152 0.6373 0.70592 0.0
O226 O 0.67154 0.64814 0.78473 0.0
Mg227 Mg 0.69069 0.66556 0.7617 0.0
C228 C 0.66194 0.63884 0.76004 0.0
C229 C 0.66436 0.63675 0.51641 0.0
O230 O 0.67937 0.63996 0.50989 0.0
O231 O 0.66137 0.67073 0.6395 0.0
O232 O 0.67166 0.68066 0.71925 0.0
O233 O 0.69395 0.62946 0.63718 0.0
O234 O 0.69411 0.65194 0.68421 0.0
C235 C 0.6621 0.68139 0.67747 0.0
C236 C 0.70037 0.63844 0.67493 0.0
O237 O 0.65818 0.63868 0.56507 0.0
Mg238 Mg 0.58 0.41823 0.85261 0.0
O239 O 0.59273 0.40745 0.92989 0.0
O240 O 0.5794 0.41455 0.0077 0.0
Mg241 Mg 0.55775 0.42826 0.9809 0.0
C242 C 0.59092 0.40757 0.98383 0.0
C243 C 0.60042 0.41169 0.74921 0.0
O244 O 0.59778 0.42687 0.74612 0.0
O245 O 0.56124 0.39904 0.85654 0.0
O246 O 0.54867 0.40617 0.93606 0.0
O247 O 0.5932 0.44081 0.86528 0.0
O248 O 0.57014 0.43532 0.90367 0.0
C249 C 0.55058 0.3969 0.89394 0.0
C250 C 0.58178 0.44484 0.89863 0.0
O251 O 0.59484 0.40405 0.79098 0.0
Mg252 Mg 0.82954 0.32056 0.09969 0.0
O253 O 0.83817 0.33341 0.17996 0.0
O254 O 0.82686 0.32233 0.25577 0.0
Mg255 Mg 0.81226 0.30166 0.22502 0.0
C256 C 0.83583 0.33265 0.23354 0.0
C257 C 0.84878 0.34807 0.04663 0.0
O258 O 0.84059 0.35594 0.08446 0.0
O259 O 0.84651 0.30029 0.11729 0.0
O260 O 0.83493 0.29 0.1942 0.0
O261 O 0.8081 0.33598 0.09796 0.0
O262 O 0.80967 0.31319 0.14253 0.0
C263 C 0.84599 0.29023 0.15748 0.0
C264 C 0.80169 0.32558 0.13073 0.0
O265 O 0.84737 0.33324 0.04421 0.0
Mg266 Mg 0.91001 0.57304 0.37287 0.0
O267 O 0.89998 0.58651 0.4501 0.0
O268 O 0.9069 0.57279 0.5274 0.0
Mg269 Mg 0.92086 0.55123 0.50147 0.0
C270 C 0.90013 0.58452 0.50403 0.0
C271 C 0.9101 0.59088 0.26213 0.0
O272 O 0.91805 0.57796 0.2515 0.0
O273 O 0.93459 0.58217 0.39367 0.0
O274 O 0.94018 0.56793 0.47094 0.0
O275 O 0.88814 0.55841 0.36718 0.0
O276 O 0.90892 0.55259 0.41965 0.0
C277 C 0.94386 0.57827 0.43393 0.0
C278 C 0.8947 0.54949 0.4048 0.0
O279 O 0.90527 0.59329 0.31246 0.0
Mg280 Mg 0.6694 0.32898 0.36099 0.0
O281 O 0.65892 0.34178 0.28351 0.0
O282 O 0.66655 0.32879 0.20569 0.0
Mg283 Mg 0.68062 0.30737 0.23259 0.0
C284 C 0.65928 0.34012 0.22954 0.0
C285 C 0.65532 0.35796 0.42605 0.0
O286 O 0.66487 0.36565 0.39209 0.0
O287 O 0.65058 0.30995 0.35428 0.0
O288 O 0.65849 0.29759 0.27537 0.0
O289 O 0.69199 0.34251 0.35111 0.0
O290 O 0.68696 0.31962 0.31098 0.0
C291 C 0.64891 0.29924 0.31677 0.0
C292 C 0.69636 0.33127 0.31756 0.0
O293 O 0.6543 0.34313 0.42178 0.0
Mg294 Mg 0.8994 0.42459 0.61261 0.0
O295 O 0.88884 0.4106 0.53734 0.0
O296 O 0.89693 0.42293 0.45845 0.0
Mg297 Mg 0.91216 0.44389 0.481 0.0
C298 C 0.88934 0.41193 0.48315 0.0
C299 C 0.89383 0.41099 0.72777 0.0
O300 O 0.89785 0.42574 0.73566 0.0
O301 O 0.92346 0.41371 0.59494 0.0
O302 O 0.93035 0.42656 0.51583 0.0
O303 O 0.8786 0.44089 0.61441 0.0
O304 O 0.89994 0.44432 0.56221 0.0
C305 C 0.93318 0.41653 0.55488 0.0
C306 C 0.88602 0.4488 0.5759 0.0
O307 O 0.89333 0.40572 0.67728 0.0
Mg308 Mg 0.82587 0.66212 0.89401 0.0
O309 O 0.83809 0.65249 0.8135 0.0
O310 O 0.82439 0.66059 0.73778 0.0
Mg311 Mg 0.80403 0.67562 0.76843 0.0
C312 C 0.83585 0.65307 0.75978 0.0
C313 C 0.8535 0.64232 0.94447 0.0
O314 O 0.84915 0.6329 0.90316 0.0
O315 O 0.83622 0.68636 0.87646 0.0
O316 O 0.8222 0.69343 0.80016 0.0
O317 O 0.80999 0.64112 0.89721 0.0
O318 O 0.80502 0.66288 0.84901 0.0
C319 C 0.83284 0.69613 0.83721 0.0
C320 C 0.8012 0.6487 0.86171 0.0
O321 O 0.84655 0.65543 0.9505 0.0
Mg322 Mg 0.57278 0.57477 0.14133 0.0
O323 O 0.58514 0.58438 0.0616 0.0
O324 O 0.57301 0.57467 0.98504 0.0
Mg325 Mg 0.55227 0.56003 0.0153 0.0
C326 C 0.58382 0.58295 0.00775 0.0
C327 C 0.60122 0.59203 0.19623 0.0
O328 O 0.60864 0.58354 0.15809 0.0
O329 O 0.55271 0.5923 0.13009 0.0
O330 O 0.54113 0.58224 0.05287 0.0
O331 O 0.58781 0.55319 0.13694 0.0
O332 O 0.56463 0.55574 0.09545 0.0
C333 C 0.54203 0.59262 0.09197 0.0
C334 C 0.57703 0.54745 0.10409 0.0
O335 O 0.5863 0.59151 0.19832 0.0
Mg336 Mg 0.31792 0.33326 0.36927 0.0
O337 O 0.32959 0.34495 0.29149 0.0
O338 O 0.31979 0.3335 0.21351 0.0
Mg339 Mg 0.30256 0.31452 0.24053 0.0
C340 C 0.32879 0.34352 0.23743 0.0
C341 C 0.34013 0.35813 0.42786 0.0
O342 O 0.3347 0.3673 0.38749 0.0
O343 O 0.33368 0.31204 0.35717 0.0
O344 O 0.32351 0.3011 0.27907 0.0
O345 O 0.29784 0.3502 0.36662 0.0
O346 O 0.29877 0.32779 0.31907 0.0
C347 C 0.3336 0.30134 0.31931 0.0
C348 C 0.29159 0.34076 0.32991 0.0
O349 O 0.33562 0.34393 0.43021 0.0
Mg350 Mg 0.40844 0.56758 0.15182 0.0
O351 O 0.39419 0.57763 0.07661 0.0
O352 O 0.40561 0.56918 0.99658 0.0
Mg353 Mg 0.42714 0.55474 0.01926 0.0
C354 C 0.39485 0.57682 0.02238 0.0
C355 C 0.38087 0.58322 0.21701 0.0
O356 O 0.37296 0.57448 0.18099 0.0
O357 O 0.4275 0.58594 0.13706 0.0
O358 O 0.43826 0.57707 0.05649 0.0
O359 O 0.39417 0.54555 0.15097 0.0
O360 O 0.41576 0.54932 0.10024 0.0
C361 C 0.43751 0.58706 0.09691 0.0
C362 C 0.40386 0.54063 0.1125 0.0
O363 O 0.39579 0.58337 0.2145 0.0
Mg364 Mg 0.16027 0.67328 0.9187 0.0
O365 O 0.15128 0.6606 0.83872 0.0
O366 O 0.16206 0.67174 0.76208 0.0
Mg367 Mg 0.17658 0.69253 0.79259 0.0
C368 C 0.15329 0.66136 0.78499 0.0
C369 C 0.14139 0.64545 0.96986 0.0
O370 O 0.1495 0.63797 0.9308 0.0
O371 O 0.14305 0.69339 0.90327 0.0
O372 O 0.15392 0.70392 0.82551 0.0
O373 O 0.18161 0.65792 0.91848 0.0
O374 O 0.17993 0.68083 0.87462 0.0
C375 C 0.14314 0.70351 0.86329 0.0
C376 C 0.18787 0.66833 0.88538 0.0
O377 O 0.14277 0.66025 0.97416 0.0
Mg378 Mg 0.07991 0.41916 0.63294 0.0
O379 O 0.09047 0.40711 0.55425 0.0
O380 O 0.0842 0.42154 0.47812 0.0
Mg381 Mg 0.06973 0.44251 0.50745 0.0
C382 C 0.09088 0.40966 0.50074 0.0
C383 C 0.0797 0.3976 0.73735 0.0
O384 O 0.07134 0.40959 0.75536 0.0
O385 O 0.05556 0.41027 0.60882 0.0
O386 O 0.05015 0.42543 0.53371 0.0
O387 O 0.1016 0.43376 0.64312 0.0
O388 O 0.08099 0.44037 0.59074 0.0
C389 C 0.04638 0.41464 0.56895 0.0
C390 C 0.09513 0.44327 0.60716 0.0
O391 O 0.08468 0.39761 0.68652 0.0
Mg392 Mg 0.31785 0.65585 0.64243 0.0
O393 O 0.32798 0.64279 0.71988 0.0
O394 O 0.3219 0.65675 0.79732 0.0
Mg395 Mg 0.30916 0.67893 0.76981 0.0
C396 C 0.32816 0.64479 0.77372 0.0
C397 C 0.32395 0.636 0.53727 0.0
O398 O 0.30907 0.63991 0.53203 0.0
O399 O 0.33801 0.67345 0.64589 0.0
O400 O 0.33169 0.68687 0.72437 0.0
O401 O 0.29464 0.64387 0.65509 0.0
O402 O 0.30128 0.66663 0.69326 0.0
C403 C 0.34079 0.68422 0.68221 0.0
C404 C 0.29117 0.6555 0.68826 0.0
O405 O 0.33141 0.6404 0.58121 0.0
Mg406 Mg 0.09096 0.56873 0.40407 0.0
O407 O 0.10117 0.58313 0.47873 0.0
O408 O 0.09273 0.5714 0.55826 0.0
Mg409 Mg 0.07762 0.55027 0.53625 0.0
C410 C 0.10044 0.58221 0.53297 0.0
C411 C 0.0969 0.58226 0.28866 0.0
O412 O 0.09309 0.56749 0.28 0.0
O413 O 0.06685 0.57959 0.41927 0.0
O414 O 0.05943 0.56726 0.49879 0.0
O415 O 0.11177 0.55253 0.40426 0.0
O416 O 0.09025 0.54925 0.4557 0.0
C417 C 0.05685 0.57701 0.45859 0.0
C418 C 0.10422 0.54472 0.44273 0.0
O419 O 0.09717 0.58741 0.3393 0.0
Mg420 Mg 0.1616 0.32756 0.11097 0.0
O421 O 0.15086 0.33949 0.18963 0.0
O422 O 0.16208 0.3291 0.26693 0.0
Mg423 Mg 0.17956 0.31051 0.23833 0.0
C424 C 0.15245 0.33861 0.24355 0.0
C425 C 0.13945 0.33142 0.00775 0.0
O426 O 0.14755 0.31902 0.99188 0.0
O427 O 0.14697 0.3057 0.12743 0.0
O428 O 0.15874 0.296 0.20481 0.0
O429 O 0.18095 0.3453 0.10858 0.0
O430 O 0.18179 0.32307 0.15732 0.0
C431 C 0.14813 0.29539 0.16645 0.0
C432 C 0.18815 0.33633 0.14455 0.0
O433 O 0.14238 0.3377 0.0555 0.0
Mg434 Mg 0.41555 0.41439 0.85773 0.0
O435 O 0.40198 0.40284 0.93215 0.0
O436 O 0.4136 0.4113 0.01187 0.0
Mg437 Mg 0.43415 0.42719 0.99029 0.0
C438 C 0.40303 0.40332 0.98642 0.0
C439 C 0.40332 0.40546 0.74325 0.0
O440 O 0.40961 0.41947 0.73736 0.0
O441 O 0.43575 0.3971 0.86894 0.0
O442 O 0.44655 0.4061 0.94916 0.0
O443 O 0.39986 0.4353 0.86146 0.0
O444 O 0.42175 0.43267 0.91141 0.0
C445 C 0.44619 0.39639 0.90777 0.0
C446 C 0.4092 0.44058 0.90038 0.0
O447 O 0.40383 0.39892 0.79174 0.0
H448 H 0.28514 0.1319 0.34898 0.0
H449 H 0.21107 0.17935 0.23296 0.0
H450 H 0.28324 0.1821 0.32403 0.0
H451 H 0.21727 0.13042 0.18988 0.0
H452 H 0.23594 0.17899 0.2826 0.0
H453 H 0.2589 0.12969 0.30447 0.0
C454 C 0.27921 0.1424 0.33435 0.0
C455 C 0.28635 0.1572 0.33992 0.0
C456 C 0.23191 0.16828 0.26245 0.0
C457 C 0.25664 0.15478 0.29016 0.0
C458 C 0.2176 0.16843 0.23434 0.0
C459 C 0.21204 0.15487 0.20725 0.0
C460 C 0.24089 0.15448 0.2637 0.0
C461 C 0.2212 0.14115 0.21007 0.0
C462 C 0.26435 0.14113 0.30886 0.0
C463 C 0.27825 0.17045 0.32022 0.0
N464 N 0.23527 0.14128 0.23789 0.0
N465 N 0.26386 0.16892 0.29652 0.0
H466 H 0.05395 0.95854 0.43442 0.0
H467 H 0.10725 0.02517 0.57094 0.0
H468 H 0.10362 0.96103 0.39748 0.0
H469 H 0.05746 0.03011 0.53968 0.0
H470 H 0.10694 0.00035 0.51716 0.0
H471 H 0.05576 0.98345 0.48442 0.0
C472 C 0.06528 0.96433 0.43696 0.0
C473 C 0.07867 0.95774 0.41181 0.0
C474 C 0.09616 0.00699 0.52193 0.0
C475 C 0.08082 0.9863 0.46918 0.0
C476 C 0.09631 0.02107 0.55267 0.0
C477 C 0.08236 0.02968 0.55968 0.0
C478 C 0.08192 0.00149 0.49922 0.0
C479 C 0.0685 0.02391 0.53511 0.0
C480 C 0.06628 0.9786 0.46528 0.0
C481 C 0.09302 0.96581 0.41615 0.0
N482 N 0.06862 0.01014 0.50639 0.0
N483 N 0.09376 0.9797 0.44473 0.0
H484 H 0.21161 0.80983 0.74489 0.0
H485 H 0.28897 0.85136 0.62732 0.0
H486 H 0.22141 0.85854 0.78191 0.0
H487 H 0.28485 0.80163 0.66004 0.0
H488 H 0.26273 0.85523 0.66949 0.0
H489 H 0.23682 0.80776 0.69709 0.0
C490 C 0.219 0.82017 0.74251 0.0
C491 C 0.2144 0.83439 0.76754 0.0
C492 C 0.26766 0.84352 0.66733 0.0
C493 C 0.24345 0.83201 0.71302 0.0
C494 C 0.28254 0.84129 0.6432 0.0
C495 C 0.28906 0.82616 0.64041 0.0
C496 C 0.25925 0.83047 0.68757 0.0
C497 C 0.28032 0.81351 0.66167 0.0
C498 C 0.23346 0.81893 0.71549 0.0
C499 C 0.22457 0.84734 0.76335 0.0
N500 N 0.26585 0.81594 0.68405 0.0
N501 N 0.23869 0.84586 0.73651 0.0
H502 H 0.38332 0.03684 0.01933 0.0
H503 H 0.38179 0.94931 0.95879 0.0
H504 H 0.37194 0.01989 0.85193 0.0
H505 H 0.36948 0.96683 0.12454 0.0
H506 H 0.37448 0.97459 0.91747 0.0
H507 H 0.37464 0.01184 0.05943 0.0
C508 C 0.37863 0.02792 0.99125 0.0
C509 C 0.37854 0.03018 0.9324 0.0
C510 C 0.3729 0.97281 0.96265 0.0
C511 C 0.36897 0.00153 0.97744 0.0
C512 C 0.37714 0.95841 0.98618 0.0
C513 C 0.37642 0.95622 0.04501 0.0
C514 C 0.36848 0.9852 0.99865 0.0
C515 C 0.37022 0.96821 0.0789 0.0
C516 C 0.37358 0.0137 0.01408 0.0
C517 C 0.37223 0.01845 0.89761 0.0
N518 N 0.3669 0.98242 0.05542 0.0
N519 N 0.36809 0.00438 0.92052 0.0
H520 H 0.78134 0.84981 0.71756 0.0
H521 H 0.69192 0.83949 0.74561 0.0
H522 H 0.75807 0.86083 0.87516 0.0
H523 H 0.71184 0.85458 0.58646 0.0
H524 H 0.71576 0.84809 0.79447 0.0
H525 H 0.75628 0.85264 0.66754 0.0
C526 C 0.77096 0.85313 0.74133 0.0
C527 C 0.7716 0.85494 0.80038 0.0
C528 C 0.71482 0.84983 0.74902 0.0
C529 C 0.74298 0.85784 0.74406 0.0
C530 C 0.70129 0.84478 0.72114 0.0
C531 C 0.70013 0.84613 0.66204 0.0
C532 C 0.72742 0.85581 0.71722 0.0
C533 C 0.71242 0.85331 0.63217 0.0
C534 C 0.75671 0.85483 0.71283 0.0
C535 C 0.75795 0.85936 0.82948 0.0
N536 N 0.72579 0.85756 0.65995 0.0
N537 N 0.74404 0.86028 0.80118 0.0
H538 H 0.91365 0.94661 0.519 0.0
H539 H 0.91521 0.03837 0.50288 0.0
H540 H 0.90015 0.97051 0.36511 0.0
H541 H 0.9005 0.01494 0.65628 0.0
H542 H 0.91248 0.01358 0.45102 0.0
H543 H 0.91162 0.97148 0.57077 0.0
C544 C 0.9103 0.95711 0.49618 0.0
C545 C 0.90727 0.95665 0.43773 0.0
C546 C 0.90973 0.01392 0.49592 0.0
C547 C 0.90501 0.98498 0.49627 0.0
C548 C 0.91143 0.02798 0.52557 0.0
C549 C 0.90827 0.02855 0.58391 0.0
C550 C 0.90522 0.00031 0.52528 0.0
C551 C 0.90306 0.01489 0.61123 0.0
C552 C 0.90898 0.97123 0.52577 0.0
C553 C 0.9026 0.97048 0.41024 0.0
N554 N 0.90195 0.00119 0.58184 0.0
N555 N 0.90187 0.9842 0.43961 0.0
H556 H 0.6969 0.15628 0.25505 0.0
H557 H 0.78721 0.15299 0.30281 0.0
H558 H 0.71521 0.14329 0.41916 0.0
H559 H 0.76732 0.13646 0.14538 0.0
H560 H 0.76115 0.15136 0.34695 0.0
H561 H 0.72272 0.15102 0.21299 0.0
C562 C 0.70638 0.15229 0.2821 0.0
C563 C 0.70409 0.15039 0.3406 0.0
C564 C 0.76256 0.14788 0.30299 0.0
C565 C 0.73352 0.14451 0.29317 0.0
C566 C 0.77735 0.14893 0.27774 0.0
C567 C 0.77928 0.14502 0.22037 0.0
C568 C 0.74959 0.14333 0.27004 0.0
C569 C 0.76624 0.13957 0.18981 0.0
C570 C 0.72102 0.14914 0.25807 0.0
C571 C 0.71661 0.1449 0.37382 0.0
N572 N 0.75182 0.13919 0.21472 0.0
N573 N 0.73094 0.14243 0.34981 0.0
H574 H 0.61482 0.0177 0.8524 0.0
H575 H 0.61631 0.96599 0.13462 0.0
H576 H 0.60527 0.03537 0.02035 0.0
H577 H 0.60252 0.94886 0.9698 0.0
H578 H 0.62426 0.99096 0.09065 0.0
H579 H 0.62228 0.99228 0.8942 0.0
C580 C 0.61484 0.01636 0.89816 0.0
C581 C 0.60921 0.02839 0.9332 0.0
C582 C 0.61994 0.98153 0.06401 0.0
C583 C 0.6177 -0.00028 0.98085 0.0
C584 C 0.61547 0.96733 0.08896 0.0
C585 C 0.60849 0.95563 0.05567 0.0
C586 C 0.61754 0.9838 0.00554 0.0
C587 C 0.60755 0.95782 0.99684 0.0
C588 C 0.61902 0.0019 0.92189 0.0
C589 C 0.6093 0.02618 0.99211 0.0
N590 N 0.61184 0.97176 0.97359 0.0
N591 N 0.6133 0.01202 0.01419 0.0
H592 H 0.70586 0.64108 0.78828 0.0
H593 H 0.79522 0.64676 0.74886 0.0
H594 H 0.72702 0.62542 0.63188 0.0
H595 H 0.77636 0.63426 0.9126 0.0
H596 H 0.77053 0.63858 0.70444 0.0
H597 H 0.73127 0.63814 0.836 0.0
C598 C 0.71585 0.63679 0.76431 0.0
C599 C 0.71453 0.63369 0.70611 0.0
C600 C 0.7719 0.63729 0.74994 0.0
C601 C 0.74352 0.63056 0.7598 0.0
C602 C 0.78591 0.64206 0.77524 0.0
C603 C 0.78763 0.64129 0.83428 0.0
C604 C 0.7594 0.63223 0.78427 0.0
C605 C 0.77537 0.63501 0.86682 0.0
C606 C 0.73028 0.635 0.79156 0.0
C607 C 0.72767 0.62794 0.6769 0.0
N608 N 0.76155 0.63105 0.8415 0.0
N609 N 0.74178 0.62694 0.70376 0.0
H610 H 0.55718 0.45831 0.95313 0.0
H611 H 0.60411 0.5303 0.08676 0.0
H612 H 0.60658 0.46504 0.91813 0.0
H613 H 0.55406 0.52995 0.05588 0.0
H614 H 0.60619 0.50484 0.03744 0.0
H615 H 0.55684 0.48291 0.00512 0.0
C616 C 0.56802 0.46492 0.95671 0.0
C617 C 0.58194 0.45962 0.93125 0.0
C618 C 0.59481 0.51044 0.04151 0.0
C619 C 0.58158 0.48796 0.99066 0.0
C620 C 0.5936 0.52487 0.06973 0.0
C621 C 0.5789 0.53222 0.07519 0.0
C622 C 0.58117 0.50332 0.01982 0.0
C623 C 0.56564 0.52476 0.05232 0.0
C624 C 0.56778 0.47904 0.98615 0.0
C625 C 0.59559 0.46878 0.93697 0.0
N626 N 0.5671 0.51071 0.02594 0.0
N627 N 0.59509 0.48257 0.9663 0.0
H628 H 0.71011 0.30697 0.2626 0.0
H629 H 0.78467 0.35297 0.14392 0.0
H630 H 0.71707 0.35598 0.30276 0.0
H631 H 0.78304 0.30303 0.17516 0.0
H632 H 0.75847 0.35549 0.18814 0.0
H633 H 0.73526 0.30661 0.21432 0.0
C634 C 0.71688 0.31773 0.26088 0.0
C635 C 0.71147 0.33154 0.28678 0.0
C636 C 0.76395 0.34404 0.18523 0.0
C637 C 0.74052 0.33113 0.23171 0.0
C638 C 0.7788 0.34258 0.15989 0.0
C639 C 0.78601 0.32778 0.15609 0.0
C640 C 0.7563 0.33054 0.20558 0.0
C641 C 0.77799 0.31468 0.17753 0.0
C642 C 0.73132 0.31748 0.23356 0.0
C643 C 0.72088 0.34508 0.28351 0.0
N644 N 0.76357 0.31637 0.20103 0.0
N645 N 0.73502 0.34456 0.25631 0.0
H646 H 0.88428 0.45499 0.4631 0.0
H647 H 0.8923 0.54293 0.51721 0.0
H648 H 0.87296 0.47423 0.62732 0.0
H649 H 0.87827 0.52626 0.35204 0.0
H650 H 0.88302 0.51837 0.55915 0.0
H651 H 0.87959 0.48073 0.42025 0.0
C652 C 0.88043 0.4646 0.48982 0.0
C653 C 0.87919 0.46269 0.54869 0.0
C654 C 0.88159 0.5202 0.51392 0.0
C655 C 0.87421 0.49211 0.50057 0.0
C656 C 0.88701 0.53414 0.49 0.0
C657 C 0.88626 0.53637 0.43118 0.0
C658 C 0.87587 0.50826 0.47839 0.0
C659 C 0.87909 0.52483 0.39764 0.0
C660 C 0.87768 0.47925 0.46542 0.0
C661 C 0.87405 0.47536 0.58168 0.0
N662 N 0.87454 0.51102 0.42155 0.0
N663 N 0.87216 0.48972 0.55736 0.0
H664 H 0.26512 0.35302 0.37711 0.0
H665 H 0.21398 0.34884 0.09351 0.0
H666 H 0.28444 0.33707 0.21796 0.0
H667 H 0.1957 0.33491 0.25668 0.0
H668 H 0.23974 0.3537 0.13797 0.0
H669 H 0.23924 0.35562 0.3313 0.0
C670 C 0.26394 0.35038 0.3323 0.0
C671 C 0.27675 0.34459 0.30125 0.0
C672 C 0.22998 0.34979 0.16395 0.0
C673 C 0.24756 0.34778 0.24893 0.0
C674 C 0.21535 0.34708 0.13881 0.0
C675 C 0.20291 0.34124 0.17156 0.0
C676 C 0.23191 0.34703 0.2223 0.0
C677 C 0.20516 0.3391 0.22998 0.0
C678 C 0.24924 0.35179 0.30641 0.0
C679 C 0.27472 0.34126 0.24344 0.0
N680 N 0.21943 0.342 0.25363 0.0
N681 N 0.26035 0.34289 0.219 0.0
H682 H 0.39576 0.51227 0.15698 0.0
H683 H 0.396 0.46738 0.85971 0.0
H684 H 0.40565 0.53568 0.99861 0.0
H685 H 0.41335 0.44608 0.01359 0.0
H686 H 0.39162 0.49196 0.91212 0.0
H687 H 0.39429 0.48712 0.10567 0.0
C688 C 0.39739 0.5121 0.11134 0.0
C689 C 0.4011 0.5259 0.08184 0.0
C690 C 0.39627 0.48183 0.9343 0.0
C691 C 0.39917 0.49755 0.02341 0.0
C692 C 0.39872 0.46786 0.90463 0.0
C693 C 0.40533 0.45488 0.93232 0.0
C694 C 0.40009 0.48259 0.9922 0.0
C695 C 0.40863 0.45599 0.9905 0.0
C696 C 0.39662 0.49783 0.0823 0.0
C697 C 0.40312 0.5252 0.02286 0.0
N698 N 0.40596 0.46964 0.01868 0.0
N699 N 0.40212 0.51122 0.99542 0.0
H700 H 0.2696 0.63189 0.70663 0.0
H701 H 0.20657 0.69044 0.83767 0.0
H702 H 0.27876 0.68082 0.74178 0.0
H703 H 0.20409 0.64063 0.87073 0.0
H704 H 0.23185 0.68661 0.79138 0.0
H705 H 0.24436 0.63427 0.7572 0.0
C706 C 0.26634 0.64308 0.72513 0.0
C707 C 0.27626 0.65618 0.7201 0.0
C708 C 0.22583 0.6765 0.80889 0.0
C709 C 0.24758 0.65898 0.7769 0.0
C710 C 0.21135 0.67867 0.83507 0.0
C711 C 0.20325 0.66582 0.85803 0.0
C712 C 0.23222 0.66135 0.8049 0.0
C713 C 0.21004 0.65084 0.85373 0.0
C714 C 0.25201 0.6444 0.75403 0.0
C715 C 0.27153 0.67039 0.74485 0.0
N716 N 0.22415 0.64897 0.82723 0.0
N717 N 0.25749 0.67143 0.77175 0.0
H718 H 0.11058 0.466 0.66606 0.0
H719 H 0.11876 0.52018 0.39097 0.0
H720 H 0.09867 0.45125 0.49636 0.0
H721 H 0.10424 0.53733 0.55501 0.0
H722 H 0.12315 0.49411 0.43301 0.0
H723 H 0.11977 0.49129 0.62758 0.0
C724 C 0.11034 0.46796 0.6206 0.0
C725 C 0.10364 0.45681 0.58419 0.0
C726 C 0.11944 0.50373 0.45997 0.0
C727 C 0.11424 0.48524 0.54029 0.0
C728 C 0.11702 0.51856 0.43618 0.0
C729 C 0.11086 0.53069 0.46961 0.0
C730 C 0.11592 0.50126 0.51755 0.0
C731 C 0.10868 0.52809 0.52782 0.0
C732 C 0.11552 0.48231 0.5988 0.0
C733 C 0.10348 0.45977 0.52572 0.0
N734 N 0.11105 0.51357 0.54998 0.0
N735 N 0.10859 0.47379 0.50549 0.0
H736 H 0.13683 0.14408 0.98442 0.0
H737 H 0.11571 0.06297 0.83119 0.0
H738 H 0.15455 0.09909 0.03994 0.0
H739 H 0.10413 0.10845 0.76165 0.0
H740 H 0.12895 0.07589 0.91039 0.0
H741 H 0.12345 0.13109 0.90573 0.0
C742 C 0.13785 0.13145 0.98027 0.0
C743 C 0.14686 0.12266 0.01884 0.0
C744 C 0.12355 0.08305 0.87774 0.0
C745 C 0.13158 0.10772 0.92857 0.0
C746 C 0.11599 0.07569 0.83246 0.0
C747 C 0.10879 0.08465 0.78972 0.0
C748 C 0.12385 0.09952 0.88057 0.0
C749 C 0.10954 0.10108 0.79361 0.0
C750 C 0.13025 0.12405 0.93514 0.0
C751 C 0.14776 0.10634 0.0112 0.0
N752 N 0.11689 0.10799 0.83837 0.0
N753 N 0.14022 0.09939 0.96692 0.0
H754 H 0.14329 0.87396 0.94127 0.0
H755 H 0.10383 0.87556 0.24997 0.0
H756 H 0.14649 0.83574 0.06128 0.0
H757 H 0.10032 0.9136 0.12927 0.0
H758 H 0.11946 0.86075 0.18135 0.0
H759 H 0.12753 0.88868 0.00972 0.0
C760 C 0.14069 0.86867 0.98203 0.0
C761 C 0.14622 0.8536 0.9956 0.0
C762 C 0.11526 0.87233 0.16986 0.0
C763 C 0.12818 0.87037 0.07412 0.0
C764 C 0.10633 0.88079 0.20902 0.0
C765 C 0.10077 0.89584 0.19533 0.0
C766 C 0.11866 0.87897 0.11664 0.0
C767 C 0.10437 0.90204 0.14165 0.0
C768 C 0.13168 0.87707 0.02109 0.0
C769 C 0.14248 0.84732 0.04902 0.0
N770 N 0.1131 0.89358 0.10428 0.0
N771 N 0.13369 0.85574 0.08634 0.0
H772 H 0.38749 0.87084 0.18532 0.0
H773 H 0.37222 0.85044 0.51043 0.0
H774 H 0.40635 0.8981 0.32417 0.0
H775 H 0.35895 0.81992 0.37202 0.0
H776 H 0.38655 0.86698 0.4434 0.0
H777 H 0.37867 0.85104 0.25314 0.0
C778 C 0.38989 0.8726 0.23005 0.0
C779 C 0.3975 0.88623 0.2492 0.0
C780 C 0.38064 0.85658 0.42776 0.0
C781 C 0.38735 0.86365 0.3271 0.0
C782 C 0.37245 0.84713 0.46602 0.0
C783 C 0.36421 0.83388 0.44666 0.0
C784 C 0.38049 0.85283 0.36967 0.0
C785 C 0.36502 0.83009 0.38875 0.0
C786 C 0.38487 0.86127 0.26876 0.0
C787 C 0.40042 0.88782 0.30757 0.0
N788 N 0.37286 0.83962 0.35219 0.0
N789 N 0.39518 0.87675 0.34454 0.0
H790 H 0.40862 0.08712 0.65764 0.0
H791 H 0.35805 0.16516 0.6088 0.0
H792 H 0.38941 0.11517 0.79382 0.0
H793 H 0.36924 0.13198 0.47607 0.0
H794 H 0.37358 0.14954 0.67538 0.0
H795 H 0.39841 0.10611 0.5892 0.0
C796 C 0.40241 0.09736 0.67322 0.0
C797 C 0.39969 0.09946 0.73151 0.0
C798 C 0.37273 0.14575 0.63157 0.0
C799 C 0.38795 0.1212 0.65338 0.0
C800 C 0.36389 0.15468 0.59349 0.0
C801 C 0.36219 0.14976 0.53694 0.0
C802 C 0.37997 0.13186 0.61291 0.0
C803 C 0.3701 0.13612 0.51944 0.0
C804 C 0.39655 0.10817 0.63409 0.0
C805 C 0.39164 0.113 0.74923 0.0
N806 N 0.37856 0.12759 0.55739 0.0
N807 N 0.38595 0.1233 0.71027 0.0
H808 H 0.84527 0.8474 0.02568 0.0
H809 H 0.89297 0.92134 0.14517 0.0
H810 H 0.84722 0.89242 0.94147 0.0
H811 H 0.88514 0.87901 0.24216 0.0
H812 H 0.87819 0.91 0.06658 0.0
H813 H 0.86187 0.85786 0.10147 0.0
C814 C 0.84926 0.85946 0.02292 0.0
C815 C 0.84478 0.86908 0.97723 0.0
C816 C 0.87971 0.90317 0.10499 0.0
C817 C 0.86377 0.8811 0.06395 0.0
C818 C 0.88818 0.90963 0.14994 0.0
C819 C 0.89025 0.90113 0.20048 0.0
C820 C 0.87329 0.88806 0.11036 0.0
C821 C 0.88378 0.886 0.20407 0.0
C822 C 0.8587 0.86543 0.06633 0.0
C823 C 0.85031 0.8846 0.97596 0.0
N824 N 0.87557 0.87994 0.15959 0.0
N825 N 0.85949 0.89013 0.01874 0.0
H826 H 0.85405 0.14227 0.99892 0.0
H827 H 0.89171 0.06366 0.87208 0.0
H828 H 0.84924 0.09669 0.07752 0.0
H829 H 0.89027 0.10759 0.78061 0.0
H830 H 0.87792 0.07606 0.95099 0.0
H831 H 0.8692 0.13026 0.92228 0.0
C832 C 0.85624 0.12974 0.00026 0.0
C833 C 0.85031 0.12046 0.04468 0.0
C834 C 0.88061 0.083 0.9137 0.0
C835 C 0.86764 0.10665 0.95688 0.0
C836 C 0.88851 0.07593 0.86857 0.0
C837 C 0.89212 0.0846 0.81954 0.0
C838 C 0.87632 0.09889 0.91003 0.0
C839 C 0.88768 0.10046 0.81751 0.0
C840 C 0.86485 0.12289 0.95634 0.0
C841 C 0.85353 0.10429 0.04408 0.0
N842 N 0.88001 0.10711 0.86215 0.0
N843 N 0.86197 0.0979 0.00083 0.0
H844 H 0.60114 0.11422 0.80108 0.0
H845 H 0.62046 0.13338 0.47726 0.0
H846 H 0.58204 0.08814 0.65975 0.0
H847 H 0.63633 0.16195 0.61752 0.0
H848 H 0.60437 0.11813 0.54296 0.0
H849 H 0.61209 0.13327 0.73441 0.0
C850 C 0.59911 0.11258 0.75605 0.0
C851 C 0.59083 0.09945 0.73591 0.0
C852 C 0.61125 0.12783 0.55934 0.0
C853 C 0.60343 0.12117 0.65935 0.0
C854 C 0.62047 0.13653 0.52183 0.0
C855 C 0.62991 0.14884 0.54204 0.0
C856 C 0.61156 0.13136 0.6176 0.0
C857 C 0.62933 0.15249 0.60014 0.0
C858 C 0.60537 0.12347 0.71799 0.0
C859 C 0.58846 0.098 0.67717 0.0
N860 N 0.62045 0.14367 0.63598 0.0
N861 N 0.59488 0.10863 0.64092 0.0
H862 H 0.62951 0.83344 0.43853 0.0
H863 H 0.57692 0.90651 0.34121 0.0
H864 H 0.61794 0.87267 0.54694 0.0
H865 H 0.59883 0.87437 0.22343 0.0
H866 H 0.58724 0.89102 0.41999 0.0
H867 H 0.61373 0.84522 0.36273 0.0
C868 C 0.62348 0.84442 0.44668 0.0
C869 C 0.62518 0.85218 0.49894 0.0
C870 C 0.58967 0.88728 0.3769 0.0
C871 C 0.60714 0.86568 0.41249 0.0
C872 C 0.58374 0.89609 0.33183 0.0
C873 C 0.58719 0.89185 0.27558 0.0
C874 C 0.59906 0.87408 0.36575 0.0
C875 C 0.59602 0.87816 0.26613 0.0
C876 C 0.61454 0.85116 0.40332 0.0
C877 C 0.61709 0.86637 0.50712 0.0
N878 N 0.60176 0.86981 0.31081 0.0
N879 N 0.60849 0.8727 0.46425 0.0
H880 H 0.67486 0.62922 0.4103 0.0
H881 H 0.5897 0.60697 0.29054 0.0
H882 H 0.63251 0.63157 0.51117 0.0
H883 H 0.63305 0.59647 0.2028 0.0
H884 H 0.60487 0.61891 0.36737 0.0
H885 H 0.65937 0.61983 0.33003 0.0
C886 C 0.66229 0.62778 0.4156 0.0
C887 C 0.65497 0.63112 0.46766 0.0
C888 C 0.61105 0.61405 0.33118 0.0
C889 C 0.63715 0.62042 0.37566 0.0
C890 C 0.6024 0.60729 0.28714 0.0
C891 C 0.61013 0.60061 0.24029 0.0
C892 C 0.62754 0.6142 0.32824 0.0
C893 C 0.6266 0.60139 0.23823 0.0
C894 C 0.65345 0.62241 0.36969 0.0
C895 C 0.63864 0.62906 0.47191 0.0
N896 N 0.63476 0.60801 0.28168 0.0
N897 N 0.63027 0.62384 0.42647 0.0
H898 H 0.60497 0.38004 0.73497 0.0
H899 H 0.65398 0.38964 0.44661 0.0
H900 H 0.61521 0.42491 0.65789 0.0
H901 H 0.63736 0.34507 0.51043 0.0
H902 H 0.64085 0.40281 0.52583 0.0
H903 H 0.61814 0.36699 0.65565 0.0
C904 C 0.61005 0.38715 0.70151 0.0
C905 C 0.60896 0.40359 0.70301 0.0
C906 C 0.64004 0.39015 0.52236 0.0
C907 C 0.62401 0.38874 0.61205 0.0
C908 C 0.64752 0.38263 0.4771 0.0
C909 C 0.64678 0.36623 0.47187 0.0
C910 C 0.63185 0.3812 0.56285 0.0
C911 C 0.63825 0.35774 0.5127 0.0
C912 C 0.61751 0.37969 0.65612 0.0
C913 C 0.61573 0.41221 0.65843 0.0
N914 N 0.63117 0.36532 0.55655 0.0
N915 N 0.62297 0.40468 0.61479 0.0
H916 H 0.89107 0.42003 0.83845 0.0
H917 H 0.862 0.33616 0.94956 0.0
H918 H 0.88612 0.37961 0.72913 0.0
H919 H 0.85636 0.37929 0.04387 0.0
H920 H 0.87475 0.35093 0.87328 0.0
H921 H 0.88217 0.40424 0.91857 0.0
C922 C 0.88819 0.4078 0.83128 0.0
C923 C 0.88923 0.40116 0.77683 0.0
C924 C 0.87081 0.35713 0.91084 0.0
C925 C 0.87904 0.38299 0.86869 0.0
C926 C 0.86359 0.3487 0.95455 0.0
C927 C 0.85799 0.35653 0.00302 0.0
C928 C 0.87255 0.37346 0.91585 0.0
C929 C 0.86039 0.3728 0.00711 0.0
C930 C 0.88308 0.3988 0.87712 0.0
C931 C 0.88539 0.38523 0.77029 0.0
N932 N 0.86744 0.38073 0.964 0.0
N933 N 0.88042 0.37668 0.8157 0.0
H934 H 0.89325 0.61837 0.26758 0.0
H935 H 0.87308 0.61691 0.93847 0.0
H936 H 0.9151 0.58652 0.14864 0.0
H937 H 0.85987 0.65526 0.04854 0.0
H938 H 0.88961 0.60636 0.01417 0.0
H939 H 0.88203 0.63295 0.18772 0.0
C940 C 0.89585 0.61455 0.2247 0.0
C941 C 0.90497 0.60109 0.21481 0.0
C942 C 0.88325 0.61719 0.02159 0.0
C943 C 0.89205 0.61761 0.12336 0.0
C944 C 0.87378 0.6232 0.97839 0.0
C945 C 0.86496 0.63689 0.98739 0.0
C946 C 0.88374 0.62481 0.0745 0.0
C947 C 0.86642 0.64462 0.03983 0.0
C948 C 0.88945 0.62289 0.17912 0.0
C949 C 0.90803 0.59674 0.15835 0.0
N950 N 0.87546 0.63836 0.0817 0.0
N951 N 0.90142 0.60485 0.11482 0.0
H952 H 0.35095 0.3431 0.52289 0.0
H953 H 0.39867 0.41758 0.63728 0.0
H954 H 0.35338 0.38743 0.43418 0.0
H955 H 0.38956 0.37629 0.73861 0.0
H956 H 0.38439 0.40564 0.55858 0.0
H957 H 0.36735 0.35404 0.59819 0.0
C958 C 0.35499 0.35512 0.51906 0.0
C959 C 0.35071 0.3644 0.47223 0.0
C960 C 0.38554 0.39917 0.59796 0.0
C961 C 0.3695 0.37698 0.55842 0.0
C962 C 0.39372 0.40596 0.64296 0.0
C963 C 0.39525 0.39795 0.69476 0.0
C964 C 0.37886 0.38421 0.60461 0.0
C965 C 0.38861 0.38291 0.69951 0.0
C966 C 0.36433 0.36136 0.56219 0.0
C967 C 0.35632 0.37988 0.4696 0.0
N968 N 0.38068 0.37654 0.655 0.0
N969 N 0.36541 0.38569 0.51217 0.0
H970 H 0.311 0.62344 0.44122 0.0
H971 H 0.39384 0.59948 0.30571 0.0
H972 H 0.35545 0.62979 0.52688 0.0
H973 H 0.34912 0.58626 0.23311 0.0
H974 H 0.37999 0.61217 0.38409 0.0
H975 H 0.32478 0.61094 0.36226 0.0
C976 C 0.32365 0.62215 0.44355 0.0
C977 C 0.33209 0.62767 0.49074 0.0
C978 C 0.37321 0.60651 0.35099 0.0
C979 C 0.34795 0.61349 0.40025 0.0
C980 C 0.3811 0.59931 0.30606 0.0
C981 C 0.37262 0.59175 0.26283 0.0
C982 C 0.3567 0.60622 0.35261 0.0
C983 C 0.35614 0.59191 0.26558 0.0
C984 C 0.33152 0.61502 0.39841 0.0
C985 C 0.34847 0.62567 0.49141 0.0
N986 N 0.34871 0.59902 0.30975 0.0
N987 N 0.35587 0.6188 0.44672 0.0
H988 H 0.13394 0.6142 0.96887 0.0
H989 H 0.1037 0.61378 0.28936 0.0
H990 H 0.12829 0.65642 0.06845 0.0
H991 H 0.10051 0.57366 0.17778 0.0
H992 H 0.11249 0.62975 0.20895 0.0
H993 H 0.12129 0.59922 0.0446 0.0
C994 C 0.12992 0.62034 0.00646 0.0
C995 C 0.13228 0.63656 0.01253 0.0
C996 C 0.10975 0.61747 0.20204 0.0
C997 C 0.11794 0.61947 0.09963 0.0
C998 C 0.10478 0.60835 0.24795 0.0
C999 C 0.10147 0.59234 0.24034 0.0
C1000 C 0.11155 0.6105 0.14834 0.0
C1001 C 0.103 0.58593 0.18569 0.0
C1002 C 0.12269 0.61179 0.04969 0.0
C1003 C 0.12675 0.64392 0.06204 0.0
N1004 N 0.10804 0.595 0.1419 0.0
N1005 N 0.11998 0.63529 0.10396 0.0
H1006 H 0.07486 0.39635 0.85215 0.0
H1007 H 0.13364 0.32406 0.89646 0.0
H1008 H 0.0969 0.37115 0.71429 0.0
H1009 H 0.11902 0.35541 0.03061 0.0
H1010 H 0.11627 0.33799 0.8308 0.0
H1011 H 0.08687 0.37808 0.91934 0.0
C1012 C 0.08206 0.38686 0.83591 0.0
C1013 C 0.08507 0.38541 0.77756 0.0
C1014 C 0.11678 0.34172 0.87473 0.0
C1015 C 0.09889 0.36452 0.85426 0.0
C1016 C 0.12667 0.33377 0.91226 0.0
C1017 C 0.12793 0.33872 0.96892 0.0
C1018 C 0.10804 0.35466 0.8941 0.0
C1019 C 0.11855 0.35132 0.98712 0.0
C1020 C 0.08895 0.37647 0.87434 0.0
C1021 C 0.09442 0.37282 0.75898 0.0
N1022 N 0.10908 0.35892 0.94972 0.0
N1023 N 0.10111 0.36293 0.79727 0.0
H1024 H 0.13551 0.27946 0.25538 0.0
H1025 H 0.14138 0.2032 0.07731 0.0
H1026 H 0.13867 0.27901 0.07269 0.0
H1027 H 0.13484 0.20495 0.25873 0.0
H1028 H 0.13117 0.23001 0.07021 0.0
H1029 H 0.12593 0.2525 0.25336 0.0
C1030 C 0.1338 0.27375 0.21471 0.0
C1031 C 0.13823 0.28124 0.16426 0.0
C1032 C 0.13145 0.22435 0.1114 0.0
C1033 C 0.1279 0.25019 0.16151 0.0
C1034 C 0.13718 0.20899 0.11537 0.0
C1035 C 0.13938 0.20213 0.16889 0.0
C1036 C 0.12806 0.23276 0.16139 0.0
C1037 C 0.13372 0.21006 0.21681 0.0
C1038 C 0.12834 0.25834 0.21344 0.0
C1039 C 0.13557 0.27349 0.11259 0.0
N1040 N 0.12866 0.2251 0.21211 0.0
N1041 N 0.13103 0.25817 0.11258 0.0
H1042 H 0.95731 0.8782 0.4937 0.0
H1043 H 0.03116 0.88379 0.30222 0.0
H1044 H 0.95621 0.88511 0.31242 0.0
H1045 H 0.03102 0.88013 0.48481 0.0
H1046 H 0.00457 0.87281 0.30013 0.0
H1047 H 0.98362 0.86706 0.48527 0.0
C1048 C 0.96245 0.87689 0.45185 0.0
C1049 C 0.95486 0.88301 0.4039 0.0
C1050 C 0.01055 0.87388 0.34055 0.0
C1051 C 0.98518 0.87095 0.39411 0.0
C1052 C 0.02579 0.88006 0.3417 0.0
C1053 C 0.033 0.88334 0.39393 0.0
C1054 C 0.00262 0.8711 0.392 0.0
C1055 C 0.02561 0.8782 0.44375 0.0
C1056 C 0.9775 0.87058 0.44698 0.0
C1057 C 0.96185 0.88078 0.35057 0.0
N1058 N 0.01066 0.87268 0.44168 0.0
N1059 N 0.97688 0.87541 0.34725 0.0
H1060 H 0.35889 0.76997 0.55238 0.0
H1061 H 0.35904 0.69916 0.7602 0.0
H1062 H 0.36133 0.77235 0.73498 0.0
H1063 H 0.35072 0.69581 0.58004 0.0
H1064 H 0.37219 0.72428 0.74537 0.0
H1065 H 0.36784 0.74263 0.55652 0.0
C1066 C 0.36197 0.76494 0.59315 0.0
C1067 C 0.35895 0.77316 0.64358 0.0
C1068 C 0.36791 0.71788 0.70873 0.0
C1069 C 0.36889 0.74202 0.64874 0.0
C1070 C 0.36044 0.70352 0.71725 0.0
C1071 C 0.35337 0.69573 0.67147 0.0
C1072 C 0.36775 0.72472 0.6544 0.0
C1073 C 0.35576 0.70166 0.6166 0.0
C1074 C 0.36699 0.74931 0.59555 0.0
C1075 C 0.36315 0.76619 0.69526 0.0
N1076 N 0.3623 0.71611 0.6097 0.0
N1077 N 0.36758 0.7509 0.69662 0.0
H1078 H 0.45513 0.08326 0.85659 0.0
H1079 H 0.53319 0.07215 0.03821 0.0
H1080 H 0.45668 0.07036 0.03378 0.0
H1081 H 0.53346 0.08186 0.85836 0.0
H1082 H 0.50513 0.07768 0.0408 0.0
H1083 H 0.48346 0.08871 0.85987 0.0
C1084 C 0.46136 0.08188 0.89641 0.0
C1085 C 0.45363 0.07604 0.94471 0.0
C1086 C 0.51131 0.07882 0.00079 0.0
C1087 C 0.48589 0.08221 0.94871 0.0
C1088 C 0.52735 0.07566 0.99933 0.0
C1089 C 0.53558 0.07625 0.94779 0.0
C1090 C 0.50332 0.08232 0.95014 0.0
C1091 C 0.5275 0.08115 0.8989 0.0
C1092 C 0.47751 0.08494 0.89821 0.0
C1093 C 0.46223 0.07452 0.99522 0.0
N1094 N 0.5117 0.08369 0.90102 0.0
N1095 N 0.4779 0.07741 0.9957 0.0
H1096 H 0.13222 0.78925 0.7373 0.0
H1097 H 0.13379 0.72102 0.95442 0.0
H1098 H 0.14123 0.79478 0.91634 0.0
H1099 H 0.128 0.71646 0.7734 0.0
H1100 H 0.12496 0.74835 0.94809 0.0
H1101 H 0.11897 0.76444 0.75683 0.0
C1102 C 0.13099 0.78542 0.78097 0.0
C1103 C 0.13825 0.79374 0.8251 0.0
C1104 C 0.12503 0.74121 0.91002 0.0
C1105 C 0.12372 0.7651 0.84761 0.0
C1106 C 0.12996 0.72557 0.91374 0.0
C1107 C 0.13204 0.71674 0.86405 0.0
C1108 C 0.12233 0.74789 0.85624 0.0
C1109 C 0.12691 0.7231 0.81245 0.0
C1110 C 0.12344 0.77124 0.79219 0.0
C1111 C 0.13604 0.7885 0.88099 0.0
N1112 N 0.12264 0.73842 0.80964 0.0
N1113 N 0.12943 0.7742 0.89057 0.0
H1114 H 0.45443 0.91307 0.9539 0.0
H1115 H 0.53109 0.90508 0.14471 0.0
H1116 H 0.45267 0.90555 0.135 0.0
H1117 H 0.53088 0.91323 0.96382 0.0
H1118 H 0.50271 0.89978 0.14068 0.0
H1119 H 0.48248 0.9075 0.95517 0.0
C1120 C 0.45995 0.91006 0.99391 0.0
C1121 C 0.45131 0.91006 0.04456 0.0
C1122 C 0.50896 0.90245 0.10178 0.0
C1123 C 0.48355 0.90395 0.04666 0.0
C1124 C 0.52514 0.90542 0.10405 0.0
C1125 C 0.53323 0.90992 0.0547 0.0
C1126 C 0.50096 0.90393 0.04978 0.0
C1127 C 0.52501 0.91014 0.0031 0.0
C1128 C 0.47599 0.90686 0.99467 0.0
C1129 C 0.45898 0.9058 0.09506 0.0
N1130 N 0.50933 0.90739 0.00213 0.0
N1131 N 0.47478 0.90322 0.09507 0.0
H1132 H 0.35965 0.21017 0.2525 0.0
H1133 H 0.34734 0.28954 0.41566 0.0
H1134 H 0.35332 0.21376 0.43357 0.0
H1135 H 0.34479 0.28276 0.23432 0.0
H1136 H 0.3603 0.26394 0.42464 0.0
H1137 H 0.36625 0.23804 0.24901 0.0
C1138 C 0.36028 0.21674 0.29187 0.0
C1139 C 0.35558 0.20987 0.34317 0.0
C1140 C 0.35729 0.26826 0.38277 0.0
C1141 C 0.36233 0.2418 0.33924 0.0
C1142 C 0.3499 0.28286 0.3776 0.0
C1143 C 0.34457 0.288 0.32432 0.0
C1144 C 0.35939 0.25888 0.33426 0.0
C1145 C 0.34831 0.279 0.27638 0.0
C1146 C 0.36392 0.23267 0.28987 0.0
C1147 C 0.3567 0.21876 0.39307 0.0
N1148 N 0.35526 0.26477 0.28259 0.0
N1149 N 0.35945 0.23447 0.38968 0.0
H1150 H 0.9598 0.09869 0.71045 0.0
H1151 H 0.03468 0.11009 0.52511 0.0
H1152 H 0.96105 0.10485 0.5288 0.0
H1153 H 0.03515 0.09818 0.70295 0.0
H1154 H 0.00801 0.12022 0.53567 0.0
H1155 H 0.9863 0.10987 0.71668 0.0
C1156 C 0.9654 0.10298 0.67215 0.0
C1157 C 0.95851 0.10043 0.61883 0.0
C1158 C 0.01407 0.11585 0.57293 0.0
C1159 C 0.98873 0.11299 0.62548 0.0
C1160 C 0.02933 0.11015 0.5669 0.0
C1161 C 0.03687 0.10293 0.6129 0.0
C1162 C 0.00615 0.11375 0.62478 0.0
C1163 C 0.02958 0.10346 0.66626 0.0
C1164 C 0.98056 0.10928 0.67567 0.0
C1165 C 0.96619 0.10623 0.57057 0.0
N1166 N 0.01436 0.10825 0.67041 0.0
N1167 N 0.98103 0.11194 0.5749 0.0
H1168 H 0.84164 0.7129 0.74477 0.0
H1169 H 0.83484 0.79207 0.91753 0.0
H1170 H 0.84031 0.71493 0.92764 0.0
H1171 H 0.83279 0.78787 0.7351 0.0
H1172 H 0.84485 0.76508 0.92297 0.0
H1173 H 0.84699 0.741 0.74188 0.0
C1174 C 0.84284 0.71926 0.7844 0.0
C1175 C 0.84022 0.71174 0.83644 0.0
C1176 C 0.84256 0.77021 0.88171 0.0
C1177 C 0.84578 0.74398 0.83359 0.0
C1178 C 0.8369 0.78562 0.87859 0.0
C1179 C 0.83262 0.79201 0.82587 0.0
C1180 C 0.84397 0.76129 0.83172 0.0
C1181 C 0.83558 0.78322 0.77671 0.0
C1182 C 0.84586 0.73531 0.78282 0.0
C1183 C 0.84212 0.7204 0.88664 0.0
N1184 N 0.84085 0.76824 0.7809 0.0
N1185 N 0.84437 0.73621 0.88398 0.0
H1186 H 0.63584 0.20994 0.43211 0.0
H1187 H 0.63207 0.28396 0.23579 0.0
H1188 H 0.63621 0.21009 0.24901 0.0
H1189 H 0.63996 0.28547 0.41652 0.0
H1190 H 0.62143 0.25749 0.24554 0.0
H1191 H 0.62595 0.237 0.43104 0.0
C1192 C 0.63329 0.21547 0.39172 0.0
C1193 C 0.63725 0.20803 0.34053 0.0
C1194 C 0.62504 0.26375 0.28343 0.0
C1195 C 0.62608 0.23881 0.33899 0.0
C1196 C 0.63104 0.27888 0.27785 0.0
C1197 C 0.63729 0.28665 0.32521 0.0
C1198 C 0.6258 0.2562 0.33641 0.0
C1199 C 0.63548 0.27972 0.37883 0.0
C1200 C 0.6277 0.23092 0.39112 0.0
C1201 C 0.63368 0.21563 0.2894 0.0
N1202 N 0.63037 0.26462 0.38283 0.0
N1203 N 0.62857 0.23071 0.28992 0.0
H1204 H 0.86102 0.27781 0.2485 0.0
H1205 H 0.85126 0.19626 0.09912 0.0
H1206 H 0.85457 0.27163 0.06842 0.0
H1207 H 0.84971 0.20499 0.27951 0.0
H1208 H 0.86346 0.22204 0.08531 0.0
H1209 H 0.86893 0.25036 0.25641 0.0
C1210 C 0.86189 0.27078 0.21024 0.0
C1211 C 0.85681 0.27678 0.15799 0.0
C1212 C 0.86087 0.21811 0.12804 0.0
C1213 C 0.86505 0.24526 0.16701 0.0
C1214 C 0.85393 0.20339 0.13599 0.0
C1215 C 0.84903 0.19875 0.19039 0.0
C1216 C 0.86293 0.22813 0.1749 0.0
C1217 C 0.85289 0.20835 0.23667 0.0
C1218 C 0.86629 0.25508 0.21477 0.0
C1219 C 0.85825 0.26731 0.1096 0.0
N1220 N 0.85936 0.2227 0.22776 0.0
N1221 N 0.86174 0.2518 0.11551 0.0
H1222 H 0.64975 0.69934 0.76166 0.0
H1223 H 0.64664 0.77322 0.55978 0.0
H1224 H 0.65341 0.69637 0.57932 0.0
H1225 H 0.64566 0.77459 0.74279 0.0
H1226 H 0.64103 0.74494 0.56336 0.0
H1227 H 0.63991 0.72609 0.75265 0.0
C1228 C 0.64819 0.70427 0.7196 0.0
C1229 C 0.65272 0.69583 0.67124 0.0
C1230 C 0.64162 0.75152 0.60266 0.0
C1231 C 0.64192 0.72661 0.6605 0.0
C1232 C 0.64473 0.76766 0.60058 0.0
C1233 C 0.64695 0.77608 0.65114 0.0
C1234 C 0.64072 0.74393 0.65564 0.0
C1235 C 0.64437 0.76839 0.70289 0.0
C1236 C 0.64258 0.71955 0.71439 0.0
C1237 C 0.6502 0.70261 0.61769 0.0
N1238 N 0.64163 0.75272 0.70383 0.0
N1239 N 0.64534 0.7178 0.61374 0.0
H1240 H 0.53977 0.37521 0.96912 0.0
H1241 H 0.46312 0.38261 0.99194 0.0
H1242 H 0.53285 0.39257 0.7992 0.0
H1243 H 0.46009 0.38607 0.80968 0.0
H1244 H 0.48947 0.37231 0.98328 0.0
H1245 H 0.5134 0.364 0.96747 0.0
C1246 C 0.53277 0.37627 0.93085 0.0
C1247 C 0.53823 0.38512 0.88478 0.0
C1248 C 0.48306 0.37468 0.94462 0.0
C1249 C 0.50754 0.37375 0.88444 0.0
C1250 C 0.4679 0.38069 0.94984 0.0
C1251 C 0.45962 0.38558 0.90159 0.0
C1252 C 0.49016 0.37392 0.89063 0.0
C1253 C 0.46621 0.38264 0.84805 0.0
C1254 C 0.51755 0.37017 0.93025 0.0
C1255 C 0.52891 0.38598 0.83588 0.0
N1256 N 0.48131 0.37746 0.84405 0.0
N1257 N 0.51378 0.38084 0.83766 0.0
H1258 H 0.96253 0.58886 0.34661 0.0
H1259 H 0.03748 0.58403 0.54678 0.0
H1260 H 0.96146 0.58286 0.5285 0.0
H1261 H 0.04047 0.58641 0.36408 0.0
H1262 H 0.00971 0.59077 0.54124 0.0
H1263 H 0.99076 0.5948 0.35264 0.0
C1264 C 0.96815 0.58917 0.38788 0.0
C1265 C 0.95979 0.58504 0.43703 0.0
C1266 C 0.01643 0.59007 0.50226 0.0
C1267 C 0.99187 0.59175 0.44423 0.0
C1268 C 0.03231 0.58622 0.50547 0.0
C1269 C 0.04116 0.58434 0.45576 0.0
C1270 C 0.00925 0.59171 0.44887 0.0
C1271 C 0.03397 0.5876 0.4034 0.0
C1272 C 0.98425 0.5925 0.39129 0.0
C1273 C 0.96757 0.58565 0.48943 0.0
N1274 N 0.0183 0.59079 0.40118 0.0
N1275 N 0.98319 0.58873 0.49155 0.0
H1276 H 0.9517 0.41016 0.46377 0.0
H1277 H 0.02837 0.4021 0.65453 0.0
H1278 H 0.95037 0.4062 0.64636 0.0
H1279 H 0.02787 0.41248 0.47516 0.0
H1280 H 0.0001 0.39636 0.64995 0.0
H1281 H 0.97951 0.40339 0.46522 0.0
C1282 C 0.95724 0.40761 0.50417 0.0
C1283 C 0.94884 0.40908 0.55513 0.0
C1284 C 0.00627 0.3996 0.61144 0.0
C1285 C 0.98079 0.40164 0.55728 0.0
C1286 C 0.02239 0.40281 0.61398 0.0
C1287 C 0.03036 0.40808 0.56535 0.0
C1288 C -0.0018 0.40158 0.55985 0.0
C1289 C 0.0221 0.40877 0.5139 0.0
C1290 C 0.97313 0.40375 0.50501 0.0
C1291 C 0.9565 0.40535 0.60617 0.0
N1292 N 0.00646 0.40574 0.51266 0.0
N1293 N 0.97218 0.40213 0.60612 0.0
H1294 H 0.4514 0.60269 0.0096 0.0
H1295 H 0.52784 0.60304 0.18922 0.0
H1296 H 0.45263 0.5978 0.19174 0.0
H1297 H 0.52546 0.60638 0.00677 0.0
H1298 H 0.5005 0.6119 0.19495 0.0
H1299 H 0.47729 0.61495 0.01238 0.0
C1300 C 0.45698 0.60462 0.05039 0.0
C1301 C 0.45015 0.59885 0.10033 0.0
C1302 C 0.50612 0.61124 0.15373 0.0
C1303 C 0.48003 0.61224 0.10376 0.0
C1304 C 0.52177 0.60629 0.1505 0.0
C1305 C 0.52866 0.60352 0.09733 0.0
C1306 C 0.49744 0.6133 0.10339 0.0
C1307 C 0.52036 0.60796 0.04853 0.0
C1308 C 0.47179 0.6116 0.05205 0.0
C1309 C 0.45768 0.60188 0.15216 0.0
N1310 N 0.50506 0.61228 0.05264 0.0
N1311 N 0.47248 0.60792 0.15243 0.0
H1312 H 0.15972 0.14623 0.37933 0.0
H1313 H 0.09081 0.08266 0.39326 0.0
H1314 H 0.13875 0.12509 0.23071 0.0
H1315 H 0.11431 0.10112 0.54162 0.0
H1316 H 0.10867 0.09763 0.33318 0.0
H1317 H 0.14368 0.12929 0.43922 0.0
C1318 C 0.15178 0.13799 0.35918 0.0
C1319 C 0.15053 0.13717 0.29975 0.0
C1320 C 0.10997 0.09837 0.37885 0.0
C1321 C 0.13205 0.11773 0.36845 0.0
C1322 C 0.09974 0.08984 0.41332 0.0
C1323 C 0.10098 0.09068 0.47276 0.0
C1324 C 0.12151 0.1079 0.40383 0.0
C1325 C 0.11287 0.10013 0.49608 0.0
C1326 C 0.14263 0.1283 0.39353 0.0
C1327 C 0.14009 0.12617 0.27627 0.0
N1328 N 0.12262 0.10843 0.46155 0.0
N1329 N 0.13119 0.11694 0.31071 0.0
H1330 H 0.11166 0.88789 0.43739 0.0
H1331 H 0.14287 0.86907 0.75081 0.0
H1332 H 0.09186 0.90816 0.5897 0.0
H1333 H 0.15862 0.84465 0.60032 0.0
H1334 H 0.12618 0.88564 0.69138 0.0
H1335 H 0.13093 0.87402 0.49562 0.0
C1336 C 0.11139 0.88949 0.48302 0.0
C1337 C 0.10002 0.89913 0.50866 0.0
C1338 C 0.13335 0.8767 0.67138 0.0
C1339 C 0.12208 0.88327 0.57557 0.0
C1340 C 0.14293 0.86726 0.70528 0.0
C1341 C 0.15209 0.85534 0.68063 0.0
C1342 C 0.13295 0.87426 0.6124 0.0
C1343 C 0.15168 0.85359 0.62132 0.0
C1344 C 0.1224 0.88155 0.51625 0.0
C1345 C 0.10031 0.90077 0.56803 0.0
N1346 N 0.14222 0.86289 0.5893 0.0
N1347 N 0.11113 0.89288 0.59945 0.0
H1348 H 0.39137 0.90759 0.85467 0.0
H1349 H 0.33796 0.83046 0.837 0.0
H1350 H 0.3751 0.88223 0.00238 0.0
H1351 H 0.35778 0.85377 0.69054 0.0
H1352 H 0.35109 0.84948 0.89834 0.0
H1353 H 0.37873 0.88815 0.79412 0.0
C1354 C 0.38514 0.89794 0.87448 0.0
C1355 C 0.38429 0.89658 0.93385 0.0
C1356 C 0.35258 0.85041 0.85279 0.0
C1357 C 0.36975 0.87423 0.86442 0.0
C1358 C 0.34507 0.83956 0.81766 0.0
C1359 C 0.34673 0.84051 0.7584 0.0
C1360 C 0.36179 0.86235 0.82857 0.0
C1361 C 0.35614 0.85256 0.73592 0.0
C1362 C 0.37794 0.88681 0.83977 0.0
C1363 C 0.37607 0.88377 0.95688 0.0
N1364 N 0.36328 0.86301 0.77103 0.0
N1365 N 0.36909 0.87311 0.9221 0.0
H1366 H 0.39209 0.07723 0.12722 0.0
H1367 H 0.33685 0.15301 0.14624 0.0
H1368 H 0.37648 0.10331 0.98022 0.0
H1369 H 0.3561 0.12919 0.29261 0.0
H1370 H 0.35084 0.13469 0.08464 0.0
H1371 H 0.37856 0.09595 0.18817 0.0
C1372 C 0.38583 0.0869 0.10764 0.0
C1373 C 0.38542 0.08866 0.04835 0.0
C1374 C 0.35202 0.13349 0.13022 0.0
C1375 C 0.36984 0.11019 0.11825 0.0
C1376 C 0.34401 0.14394 0.16551 0.0
C1377 C 0.34528 0.14265 0.22482 0.0
C1378 C 0.36132 0.12162 0.15433 0.0
C1379 C 0.35477 0.13066 0.2472 0.0
C1380 C 0.37811 0.09761 0.1426 0.0
C1381 C 0.37713 0.10147 0.02565 0.0
N1382 N 0.36239 0.1206 0.21192 0.0
N1383 N 0.36963 0.11173 0.06066 0.0
H1384 H 0.87463 0.88773 0.45616 0.0
H1385 H 0.84667 0.86897 0.77425 0.0
H1386 H 0.89821 0.90478 0.60659 0.0
H1387 H 0.82392 0.85021 0.62483 0.0
H1388 H 0.86503 0.88309 0.71295 0.0
H1389 H 0.85528 0.87466 0.51693 0.0
C1390 C 0.87575 0.88875 0.50184 0.0
C1391 C 0.88812 0.89733 0.52618 0.0
C1392 C 0.856 0.8759 0.6936 0.0
C1393 C 0.86602 0.88244 0.59591 0.0
C1394 C 0.84549 0.86785 0.72862 0.0
C1395 C 0.83376 0.85832 0.70477 0.0
C1396 C 0.85477 0.87444 0.63428 0.0
C1397 C 0.83281 0.85735 0.64524 0.0
C1398 C 0.8647 0.88129 0.53652 0.0
C1399 C 0.88894 0.89826 0.58573 0.0
N1400 N 0.84319 0.86528 0.61211 0.0
N1401 N 0.87807 0.8909 0.61843 0.0
H1402 H 0.83204 0.14287 0.3992 0.0
H1403 H 0.90121 0.07957 0.41461 0.0
H1404 H 0.85281 0.12093 0.25169 0.0
H1405 H 0.87958 0.10008 0.56319 0.0
H1406 H 0.883 0.09408 0.35484 0.0
H1407 H 0.84869 0.12675 0.45995 0.0
C1408 C 0.84006 0.13463 0.37946 0.0
C1409 C 0.84107 0.13334 0.32005 0.0
C1410 C 0.88219 0.0954 0.40049 0.0
C1411 C 0.86022 0.11483 0.38977 0.0
C1412 C 0.89262 0.08712 0.43483 0.0
C1413 C 0.89202 0.08865 0.49423 0.0
C1414 C 0.87103 0.10537 0.42546 0.0
C1415 C 0.88052 0.09855 0.51768 0.0
C1416 C 0.84957 0.12542 0.41433 0.0
C1417 C 0.85164 0.12238 0.29717 0.0
N1418 N 0.87052 0.10659 0.48319 0.0
N1419 N 0.86085 0.11361 0.33208 0.0
H1420 H 0.63435 0.12684 0.29917 0.0
H1421 H 0.61304 0.10178 0.98056 0.0
H1422 H 0.65334 0.14966 0.15027 0.0
H1423 H 0.59788 0.07607 0.12902 0.0
H1424 H 0.62689 0.12022 0.04229 0.0
H1425 H 0.61988 0.10886 0.23753 0.0
C1426 C 0.63547 0.1281 0.25357 0.0
C1427 C 0.64511 0.13978 0.22995 0.0
C1428 C 0.62052 0.11054 0.06132 0.0
C1429 C 0.62856 0.11923 0.15914 0.0
C1430 C 0.61259 0.10001 0.02609 0.0
C1431 C 0.6043 0.08731 0.04955 0.0
C1432 C 0.62012 0.1084 0.12047 0.0
C1433 C 0.60415 0.08564 0.10892 0.0
C1434 C 0.62722 0.11781 0.21839 0.0
C1435 C 0.64609 0.14082 0.17049 0.0
N1436 N 0.61194 0.09606 0.14228 0.0
N1437 N 0.63792 0.13068 0.13719 0.0
H1438 H 0.62834 0.85542 0.69821 0.0
H1439 H 0.61015 0.88161 0.01835 0.0
H1440 H 0.65074 0.83487 0.84521 0.0
H1441 H 0.59176 0.90526 0.87021 0.0
H1442 H 0.623 0.86254 0.956 0.0
H1443 H 0.61258 0.87189 0.76128 0.0
C1444 C 0.62988 0.85428 0.74368 0.0
C1445 C 0.64101 0.84384 0.76633 0.0
C1446 C 0.6161 0.87188 0.93724 0.0
C1447 C 0.62303 0.86269 0.83878 0.0
C1448 C 0.60875 0.88276 0.97283 0.0
C1449 C 0.59996 0.89515 0.94956 0.0
C1450 C 0.6146 0.87337 0.87803 0.0
C1451 C 0.59852 0.89601 0.89017 0.0
C1452 C 0.62089 0.86371 0.77969 0.0
C1453 C 0.64242 0.84284 0.82571 0.0
N1454 N 0.6058 0.88531 0.85653 0.0
N1455 N 0.6336 0.8522 0.85981 0.0
H1456 H 0.58496 0.58272 0.89131 0.0
H1457 H 0.66095 0.6378 0.87591 0.0
H1458 H 0.60894 0.60132 0.03844 0.0
H1459 H 0.63753 0.61956 0.727 0.0
H1460 H 0.64218 0.62402 0.93552 0.0
H1461 H 0.60415 0.59574 0.8303 0.0
C1462 C 0.59424 0.58954 0.91089 0.0
C1463 C 0.5953 0.59093 0.97026 0.0
C1464 C 0.64113 0.62298 0.88983 0.0
C1465 C 0.61734 0.60585 0.90038 0.0
C1466 C 0.65187 0.63087 0.85558 0.0
C1467 C 0.65082 0.62991 0.79612 0.0
C1468 C 0.62915 0.61404 0.86474 0.0
C1469 C 0.6388 0.62066 0.77257 0.0
C1470 C 0.6052 0.59697 0.87592 0.0
C1471 C 0.60761 0.59992 0.993 0.0
N1472 N 0.6284 0.61311 0.80698 0.0
N1473 N 0.61813 0.60704 0.95802 0.0
H1474 H 0.65944 0.3419 0.11348 0.0
H1475 H 0.5926 0.40761 0.0999 0.0
H1476 H 0.63941 0.36395 0.26209 0.0
H1477 H 0.61506 0.38805 0.95128 0.0
H1478 H 0.61033 0.39245 0.1598 0.0
H1479 H 0.64403 0.35941 0.05358 0.0
C1480 C 0.65184 0.35046 0.13363 0.0
C1481 C 0.65065 0.35135 0.19306 0.0
C1482 C 0.61145 0.39153 0.1141 0.0
C1483 C 0.6329 0.37147 0.12436 0.0
C1484 C 0.60129 0.40017 0.07974 0.0
C1485 C 0.60224 0.39904 0.0203 0.0
C1486 C 0.62262 0.38158 0.08902 0.0
C1487 C 0.61385 0.38927 0.99684 0.0
C1488 C 0.64306 0.36049 0.09927 0.0
C1489 C 0.64068 0.36279 0.21654 0.0
N1490 N 0.62352 0.38084 0.03128 0.0
N1491 N 0.63212 0.37233 0.1821 0.0
H1492 H 0.88837 0.41104 0.36726 0.0
H1493 H 0.83479 0.33409 0.34986 0.0
H1494 H 0.87162 0.38632 0.5157 0.0
H1495 H 0.85466 0.3575 0.20368 0.0
H1496 H 0.84756 0.35331 0.4114 0.0
H1497 H 0.87538 0.39183 0.30727 0.0
C1498 C 0.88194 0.40158 0.38742 0.0
C1499 C 0.88113 0.40032 0.44686 0.0
C1500 C 0.84913 0.35423 0.36588 0.0
C1501 C 0.86615 0.37815 0.37776 0.0
C1502 C 0.84184 0.34326 0.3306 0.0
C1503 C 0.84363 0.34416 0.27134 0.0
C1504 C 0.85826 0.36623 0.34182 0.0
C1505 C 0.85292 0.35631 0.24902 0.0
C1506 C 0.87452 0.39057 0.35293 0.0
C1507 C 0.87258 0.38776 0.47015 0.0
N1508 N 0.85986 0.36686 0.28428 0.0
N1509 N 0.86542 0.37715 0.43551 0.0
H1510 H 0.83595 0.65305 0.64349 0.0
H1511 H 0.90144 0.5863 0.61976 0.0
H1512 H 0.86016 0.63329 0.78811 0.0
H1513 H 0.88031 0.60869 0.47387 0.0
H1514 H 0.88702 0.60406 0.68161 0.0
H1515 H 0.85265 0.63761 0.58064 0.0
C1516 C 0.84481 0.64551 0.66215 0.0
C1517 C 0.84655 0.64439 0.72137 0.0
C1518 C 0.88558 0.60517 0.63609 0.0
C1519 C 0.86573 0.62663 0.64929 0.0
C1520 C 0.8938 0.59498 0.6006 0.0
C1521 C 0.89201 0.5959 0.54137 0.0
C1522 C 0.87539 0.61634 0.61241 0.0
C1523 C 0.88203 0.60751 0.51922 0.0
C1524 C 0.85437 0.63671 0.6261 0.0
C1525 C 0.85833 0.63449 0.74284 0.0
N1526 N 0.874 0.61722 0.55481 0.0
N1527 N 0.8674 0.62592 0.70681 0.0
H1528 H 0.35119 0.36495 0.27013 0.0
H1529 H 0.37872 0.38414 0.95189 0.0
H1530 H 0.32982 0.34437 0.12119 0.0
H1531 H 0.40111 0.40278 0.10222 0.0
H1532 H 0.35999 0.3702 0.01272 0.0
H1533 H 0.3688 0.37989 0.20856 0.0
C1534 C 0.35013 0.36362 0.22454 0.0
C1535 C 0.33903 0.35332 0.20092 0.0
C1536 C 0.36902 0.37736 0.03227 0.0
C1537 C 0.35922 0.37035 0.1301 0.0
C1538 C 0.37972 0.38531 0.99755 0.0
C1539 C 0.39156 0.39463 0.02184 0.0
C1540 C 0.37015 0.37877 0.09164 0.0
C1541 C 0.39224 0.39572 0.08139 0.0
C1542 C 0.36022 0.37213 0.18936 0.0
C1543 C 0.33823 0.3521 0.14142 0.0
N1544 N 0.38171 0.38789 0.11411 0.0
N1545 N 0.34821 0.36047 0.10812 0.0
H1546 H 0.37221 0.59773 0.05789 0.0
H1547 H 0.34527 0.61895 0.74102 0.0
H1548 H 0.39083 0.57546 0.9073 0.0
H1549 H 0.32967 0.64421 0.88989 0.0
H1550 H 0.35992 0.60104 0.80237 0.0
H1551 H 0.35438 0.61301 0.9979 0.0
C1552 C 0.37249 0.59596 0.01234 0.0
C1553 C 0.38316 0.5854 0.98763 0.0
C1554 C 0.35323 0.61046 0.8216 0.0
C1555 C 0.36282 0.60286 0.9188 0.0
C1556 C 0.34484 0.62069 0.78656 0.0
C1557 C 0.33632 0.63321 0.81021 0.0
C1558 C 0.35311 0.61275 0.88072 0.0
C1559 C 0.33617 0.63482 0.86963 0.0
C1560 C 0.36233 0.60472 0.9781 0.0
C1561 C 0.38294 0.58358 0.92831 0.0
N1562 N 0.3445 0.62476 0.90277 0.0
N1563 N 0.373 0.59227 0.89598 0.0
H1564 H 0.13434 0.63682 0.81671 0.0
H1565 H 0.11848 0.60738 0.49853 0.0
H1566 H 0.15414 0.65938 0.6687 0.0
H1567 H 0.10091 0.5841 0.64877 0.0
H1568 H 0.13139 0.62682 0.55941 0.0
H1569 H 0.12164 0.61767 0.75493 0.0
C1570 C 0.13602 0.63777 0.77124 0.0
C1571 C 0.14535 0.64975 0.74798 0.0
C1572 C 0.12471 0.61743 0.57891 0.0
C1573 C 0.13081 0.6278 0.6768 0.0
C1574 C 0.11734 0.60633 0.54418 0.0
C1575 C 0.10857 0.59406 0.56844 0.0
C1576 C 0.12328 0.61627 0.63825 0.0
C1577 C 0.10752 0.59332 0.62795 0.0
C1578 C 0.12876 0.62681 0.73592 0.0
C1579 C 0.14707 0.65035 0.68863 0.0
N1580 N 0.11475 0.60425 0.66067 0.0
N1581 N 0.13987 0.63954 0.6551 0.0
H1582 H 0.13184 0.36187 0.21186 0.0
H1583 H 0.10857 0.38405 0.5316 0.0
H1584 H 0.15116 0.33883 0.35973 0.0
H1585 H 0.09291 0.41012 0.38467 0.0
H1586 H 0.12315 0.36643 0.46888 0.0
H1587 H 0.11638 0.37881 0.27432 0.0
C1588 C 0.13283 0.36034 0.25739 0.0
C1589 C 0.14286 0.34891 0.2805 0.0
C1590 C 0.11651 0.37601 0.4504 0.0
C1591 C 0.12518 0.36826 0.35222 0.0
C1592 C 0.10815 0.38606 0.4862 0.0
C1593 C 0.09952 0.39863 0.46347 0.0
C1594 C 0.1162 0.3785 0.39142 0.0
C1595 C 0.09943 0.40064 0.40422 0.0
C1596 C 0.12401 0.37004 0.29304 0.0
C1597 C 0.14364 0.34749 0.3399 0.0
N1598 N 0.10765 0.39069 0.37031 0.0
N1599 N 0.13492 0.35705 0.37364 0.0
loop_
_geom_bond_atom_site_label_1
_geom_bond_atom_site_label_2
_geom_bond_distance
_geom_bond_site_symmetry_2
_ccdc_geom_bond_type
Mg0 O1 2.028 . S
Mg0 O7 1.986 . S
Mg0 O9 2.114 . S
Mg0 O10 2.251 . S
Mg0 O13 2.010 . S
O1 Mg0 2.028 . S
O1 C4 1.250 . S
O2 Mg3 2.028 . S
O2 C4 1.248 . S
Mg3 O2 2.028 . S
Mg3 O8 2.032 . S
Mg3 O10 2.079 . S
C4 O1 1.250 . S
C4 O2 1.248 . S
C5 O6 1.264 1_554 S
C5 O13 1.249 . S
O6 C5 1.264 1_556 S
O7 Mg0 1.986 . S
O7 C11 1.246 . S
O8 Mg3 2.032 . S
O8 C11 1.259 . S
O9 Mg0 2.114 . S
O9 C12 1.252 . S
O10 Mg0 2.251 . S
O10 Mg3 2.079 . S
O10 C12 1.273 . S
C11 O7 1.246 . S
C11 O8 1.259 . S
C12 O9 1.252 . S
C12 O10 1.273 . S
O13 Mg0 2.010 . S
O13 C5 1.249 . S
Mg14 O15 2.028 . S
Mg14 O21 1.986 . S
Mg14 O23 2.114 . S
Mg14 O24 2.251 . S
Mg14 O27 2.010 . S
O15 Mg14 2.028 . S
O15 C18 1.250 . S
O16 Mg17 2.028 . S
O16 C18 1.248 . S
Mg17 O16 2.028 . S
Mg17 O22 2.032 . S
Mg17 O24 2.079 . S
C18 O15 1.250 . S
C18 O16 1.248 . S
C19 O20 1.264 . S
C19 O27 1.249 . S
O20 C19 1.264 . S
O21 Mg14 1.986 . S
O21 C25 1.246 . S
O22 Mg17 2.032 . S
O22 C25 1.259 . S
O23 Mg14 2.114 . S
O23 C26 1.252 . S
O24 Mg14 2.251 . S
O24 Mg17 2.079 . S
O24 C26 1.273 . S
C25 O21 1.246 . S
C25 O22 1.259 . S
C26 O23 1.252 . S
C26 O24 1.273 . S
O27 Mg14 2.010 . S
O27 C19 1.249 . S
Mg28 O29 2.028 . S
Mg28 O35 1.986 . S
Mg28 O37 2.114 . S
Mg28 O38 2.251 . S
Mg28 O41 2.010 . S
O29 Mg28 2.028 . S
O29 C32 1.250 . S
O30 Mg31 2.028 . S
O30 C32 1.248 . S
Mg31 O30 2.028 . S
Mg31 O36 2.032 . S
Mg31 O38 2.079 . S
C32 O29 1.250 . S
C32 O30 1.248 . S
C33 O34 1.264 . S
C33 O41 1.249 . S
O34 C33 1.264 . S
O35 Mg28 1.986 . S
O35 C39 1.246 . S
O36 Mg31 2.032 . S
O36 C39 1.259 . S
O37 Mg28 2.114 . S
O37 C40 1.252 . S
O38 Mg28 2.251 . S
O38 Mg31 2.079 . S
O38 C40 1.273 . S
C39 O35 1.246 . S
C39 O36 1.259 . S
C40 O37 1.252 . S
C40 O38 1.273 . S
O41 Mg28 2.010 . S
O41 C33 1.249 . S
Mg42 O43 2.028 . S
Mg42 O49 1.986 . S
Mg42 O51 2.114 . S
Mg42 O52 2.251 . S
Mg42 O55 2.010 . S
O43 Mg42 2.028 . S
O43 C46 1.250 . S
O44 Mg45 2.028 . S
O44 C46 1.248 1_554 S
Mg45 O44 2.028 . S
Mg45 O50 2.032 1_554 S
Mg45 O52 2.079 1_554 S
C46 O43 1.250 . S
C46 O44 1.248 1_556 S
C47 O48 1.264 . S
C47 O55 1.249 . S
O48 C47 1.264 . S
O49 Mg42 1.986 . S
O49 C53 1.246 . S
O50 Mg45 2.032 1_556 S
O50 C53 1.259 . S
O51 Mg42 2.114 . S
O51 C54 1.252 . S
O52 Mg42 2.251 . S
O52 Mg45 2.079 1_556 S
O52 C54 1.273 . S
C53 O49 1.246 . S
C53 O50 1.259 . S
C54 O51 1.252 . S
C54 O52 1.273 . S
O55 Mg42 2.010 . S
O55 C47 1.249 . S
Mg56 O57 2.028 . S
Mg56 O63 1.986 . S
Mg56 O65 2.114 . S
Mg56 O66 2.251 . S
Mg56 O69 2.010 . S
O57 Mg56 2.028 . S
O57 C60 1.250 . S
O58 Mg59 2.028 . S
O58 C60 1.248 . S
Mg59 O58 2.028 . S
Mg59 O64 2.032 . S
Mg59 O66 2.079 . S
C60 O57 1.250 . S
C60 O58 1.248 . S
C61 O62 1.264 1_556 S
C61 O69 1.249 . S
O62 C61 1.264 1_554 S
O63 Mg56 1.986 . S
O63 C67 1.246 . S
O64 Mg59 2.032 . S
O64 C67 1.259 . S
O65 Mg56 2.114 . S
O65 C68 1.252 . S
O66 Mg56 2.251 . S
O66 Mg59 2.079 . S
O66 C68 1.273 . S
C67 O63 1.246 . S
C67 O64 1.259 . S
C68 O65 1.252 . S
C68 O66 1.273 . S
O69 Mg56 2.010 . S
O69 C61 1.249 . S
Mg70 O71 2.028 . S
Mg70 O77 1.986 . S
Mg70 O79 2.114 . S
Mg70 O80 2.251 . S
Mg70 O83 2.010 . S
O71 Mg70 2.028 . S
O71 C74 1.250 . S
O72 Mg73 2.028 . S
O72 C74 1.248 1_556 S
Mg73 O72 2.028 . S
Mg73 O78 2.032 1_556 S
Mg73 O80 2.079 1_556 S
C74 O71 1.250 . S
C74 O72 1.248 1_554 S
C75 O76 1.264 . S
C75 O83 1.249 . S
O76 C75 1.264 . S
O77 Mg70 1.986 . S
O77 C81 1.246 . S
O78 Mg73 2.032 1_554 S
O78 C81 1.259 . S
O79 Mg70 2.114 . S
O79 C82 1.252 . S
O80 Mg70 2.251 . S
O80 Mg73 2.079 1_554 S
O80 C82 1.273 . S
C81 O77 1.246 . S
C81 O78 1.259 . S
C82 O79 1.252 . S
C82 O80 1.273 . S
O83 Mg70 2.010 . S
O83 C75 1.249 . S
Mg84 O85 2.028 . S
Mg84 O91 1.986 . S
Mg84 O93 2.114 . S
Mg84 O94 2.251 . S
Mg84 O97 2.010 . S
O85 Mg84 2.028 . S
O85 C88 1.250 . S
O86 Mg87 2.028 . S
O86 C88 1.248 . S
Mg87 O86 2.028 . S
Mg87 O92 2.032 . S
Mg87 O94 2.079 . S
C88 O85 1.250 . S
C88 O86 1.248 . S
C89 O90 1.264 . S
C89 O97 1.249 . S
O90 C89 1.264 . S
O91 Mg84 1.986 . S
O91 C95 1.246 . S
O92 Mg87 2.032 . S
O92 C95 1.259 . S
O93 Mg84 2.114 . S
O93 C96 1.252 . S
O94 Mg84 2.251 . S
O94 Mg87 2.079 . S
O94 C96 1.273 . S
C95 O91 1.246 . S
C95 O92 1.259 . S
C96 O93 1.252 . S
C96 O94 1.273 . S
O97 Mg84 2.010 . S
O97 C89 1.249 . S
Mg98 O99 2.028 . S
Mg98 O105 1.986 . S
Mg98 O107 2.114 . S
Mg98 O108 2.251 . S
Mg98 O111 2.010 . S
O99 Mg98 2.028 . S
O99 C102 1.250 . S
O100 Mg101 2.028 . S
O100 C102 1.248 . S
Mg101 O100 2.028 . S
Mg101 O106 2.032 . S
Mg101 O108 2.079 . S
C102 O99 1.250 . S
C102 O100 1.248 . S
C103 O104 1.264 . S
C103 O111 1.249 . S
O104 C103 1.264 . S
O105 Mg98 1.986 . S
O105 C109 1.246 . S
O106 Mg101 2.032 . S
O106 C109 1.259 . S
O107 Mg98 2.114 . S
O107 C110 1.252 . S
O108 Mg98 2.251 . S
O108 Mg101 2.079 . S
O108 C110 1.273 . S
C109 O105 1.246 . S
C109 O106 1.259 . S
C110 O107 1.252 . S
C110 O108 1.273 . S
O111 Mg98 2.010 . S
O111 C103 1.249 . S
Mg112 O113 2.028 . S
Mg112 O119 1.986 . S
Mg112 O121 2.114 . S
Mg112 O122 2.251 . S
Mg112 O125 2.010 . S
O113 Mg112 2.028 . S
O113 C116 1.250 . S
O114 Mg115 2.028 . S
O114 C116 1.248 . S
Mg115 O114 2.028 . S
Mg115 O120 2.032 . S
Mg115 O122 2.079 . S
C116 O113 1.250 . S
C116 O114 1.248 . S
C117 O118 1.264 1_556 S
C117 O125 1.249 . S
O118 C117 1.264 1_554 S
O119 Mg112 1.986 . S
O119 C123 1.246 . S
O120 Mg115 2.032 . S
O120 C123 1.259 . S
O121 Mg112 2.114 . S
O121 C124 1.252 . S
O122 Mg112 2.251 . S
O122 Mg115 2.079 . S
O122 C124 1.273 . S
C123 O119 1.246 . S
C123 O120 1.259 . S
C124 O121 1.252 . S
C124 O122 1.273 . S
O125 Mg112 2.010 . S
O125 C117 1.249 . S
Mg126 O127 2.028 . S
Mg126 O133 1.986 . S
Mg126 O135 2.114 . S
Mg126 O136 2.251 . S
Mg126 O139 2.010 . S
O127 Mg126 2.028 . S
O127 C130 1.250 . S
O128 Mg129 2.028 . S
O128 C130 1.248 . S
Mg129 O128 2.028 . S
Mg129 O134 2.032 . S
Mg129 O136 2.079 . S
C130 O127 1.250 . S
C130 O128 1.248 . S
C131 O132 1.264 . S
C131 O139 1.249 . S
O132 C131 1.264 . S
O133 Mg126 1.986 . S
O133 C137 1.246 . S
O134 Mg129 2.032 . S
O134 C137 1.259 . S
O135 Mg126 2.114 . S
O135 C138 1.252 . S
O136 Mg126 2.251 . S
O136 Mg129 2.079 . S
O136 C138 1.273 . S
C137 O133 1.246 . S
C137 O134 1.259 . S
C138 O135 1.252 . S
C138 O136 1.273 . S
O139 Mg126 2.010 . S
O139 C131 1.249 . S
Mg140 O141 2.028 . S
Mg140 O147 1.986 . S
Mg140 O149 2.114 . S
Mg140 O150 2.251 . S
Mg140 O153 2.010 . S
O141 Mg140 2.028 . S
O141 C144 1.250 . S
O142 Mg143 2.028 . S
O142 C144 1.248 . S
Mg143 O142 2.028 . S
Mg143 O148 2.032 . S
Mg143 O150 2.079 . S
C144 O141 1.250 . S
C144 O142 1.248 . S
C145 O146 1.264 . S
C145 O153 1.249 . S
O146 C145 1.264 . S
O147 Mg140 1.986 . S
O147 C151 1.246 . S
O148 Mg143 2.032 . S
O148 C151 1.259 . S
O149 Mg140 2.114 . S
O149 C152 1.252 . S
O150 Mg140 2.251 . S
O150 Mg143 2.079 . S
O150 C152 1.273 . S
C151 O147 1.246 . S
C151 O148 1.259 . S
C152 O149 1.252 . S
C152 O150 1.273 . S
O153 Mg140 2.010 . S
O153 C145 1.249 . S
Mg154 O155 2.028 . S
Mg154 O161 1.986 . S
Mg154 O163 2.114 . S
Mg154 O164 2.251 . S
Mg154 O167 2.010 . S
O155 Mg154 2.028 . S
O155 C158 1.250 . S
O156 Mg157 2.028 . S
O156 C158 1.248 1_556 S
Mg157 O156 2.028 . S
Mg157 O162 2.032 1_556 S
Mg157 O164 2.079 1_556 S
C158 O155 1.250 . S
C158 O156 1.248 1_554 S
C159 O160 1.264 . S
C159 O167 1.249 . S
O160 C159 1.264 . S
O161 Mg154 1.986 . S
O161 C165 1.246 . S
O162 Mg157 2.032 1_554 S
O162 C165 1.259 . S
O163 Mg154 2.114 . S
O163 C166 1.252 . S
O164 Mg154 2.251 . S
O164 Mg157 2.079 1_554 S
O164 C166 1.273 . S
C165 O161 1.246 . S
C165 O162 1.259 . S
C166 O163 1.252 . S
C166 O164 1.273 . S
O167 Mg154 2.010 . S
O167 C159 1.249 . S
Mg168 O169 2.028 . S
Mg168 O175 1.986 . S
Mg168 O177 2.114 . S
Mg168 O178 2.251 . S
Mg168 O181 2.010 . S
O169 Mg168 2.028 . S
O169 C172 1.250 . S
O170 Mg171 2.028 . S
O170 C172 1.248 . S
Mg171 O170 2.028 . S
Mg171 O176 2.032 . S
Mg171 O178 2.079 . S
C172 O169 1.250 . S
C172 O170 1.248 . S
C173 O174 1.264 1_554 S
C173 O181 1.249 . S
O174 C173 1.264 1_556 S
O175 Mg168 1.986 . S
O175 C179 1.246 . S
O176 Mg171 2.032 . S
O176 C179 1.259 . S
O177 Mg168 2.114 . S
O177 C180 1.252 . S
O178 Mg168 2.251 . S
O178 Mg171 2.079 . S
O178 C180 1.273 . S
C179 O175 1.246 . S
C179 O176 1.259 . S
C180 O177 1.252 . S
C180 O178 1.273 . S
O181 Mg168 2.010 . S
O181 C173 1.249 . S
Mg182 O183 2.028 . S
Mg182 O189 1.986 . S
Mg182 O191 2.114 . S
Mg182 O192 2.251 . S
Mg182 O195 2.010 . S
O183 Mg182 2.028 . S
O183 C186 1.250 . S
O184 Mg185 2.028 . S
O184 C186 1.248 1_554 S
Mg185 O184 2.028 . S
Mg185 O190 2.032 1_554 S
Mg185 O192 2.079 1_554 S
C186 O183 1.250 . S
C186 O184 1.248 1_556 S
C187 O188 1.264 . S
C187 O195 1.249 . S
O188 C187 1.264 . S
O189 Mg182 1.986 . S
O189 C193 1.246 . S
O190 Mg185 2.032 1_556 S
O190 C193 1.259 . S
O191 Mg182 2.114 . S
O191 C194 1.252 . S
O192 Mg182 2.251 . S
O192 Mg185 2.079 1_556 S
O192 C194 1.273 . S
C193 O189 1.246 . S
C193 O190 1.259 . S
C194 O191 1.252 . S
C194 O192 1.273 . S
O195 Mg182 2.010 . S
O195 C187 1.249 . S
Mg196 O197 2.028 . S
Mg196 O203 1.986 . S
Mg196 O205 2.114 . S
Mg196 O206 2.251 . S
Mg196 O209 2.010 . S
O197 Mg196 2.028 . S
O197 C200 1.250 . S
O198 Mg199 2.028 . S
O198 C200 1.248 . S
Mg199 O198 2.028 . S
Mg199 O204 2.032 . S
Mg199 O206 2.079 . S
C200 O197 1.250 . S
C200 O198 1.248 . S
C201 O202 1.264 . S
C201 O209 1.249 . S
O202 C201 1.264 . S
O203 Mg196 1.986 . S
O203 C207 1.246 . S
O204 Mg199 2.032 . S
O204 C207 1.259 . S
O205 Mg196 2.114 . S
O205 C208 1.252 . S
O206 Mg196 2.251 . S
O206 Mg199 2.079 . S
O206 C208 1.273 . S
C207 O203 1.246 . S
C207 O204 1.259 . S
C208 O205 1.252 . S
C208 O206 1.273 . S
O209 Mg196 2.010 . S
O209 C201 1.249 . S
Mg210 O211 2.028 . S
Mg210 O217 1.986 . S
Mg210 O219 2.114 . S
Mg210 O220 2.251 . S
Mg210 O223 2.010 . S
O211 Mg210 2.028 . S
O211 C214 1.250 . S
O212 Mg213 2.028 . S
O212 C214 1.248 . S
Mg213 O212 2.028 . S
Mg213 O218 2.032 . S
Mg213 O220 2.079 . S
C214 O211 1.250 . S
C214 O212 1.248 . S
C215 O216 1.264 . S
C215 O223 1.249 . S
O216 C215 1.264 . S
O217 Mg210 1.986 . S
O217 C221 1.246 . S
O218 Mg213 2.032 . S
O218 C221 1.259 . S
O219 Mg210 2.114 . S
O219 C222 1.252 . S
O220 Mg210 2.251 . S
O220 Mg213 2.079 . S
O220 C222 1.273 . S
C221 O217 1.246 . S
C221 O218 1.259 . S
C222 O219 1.252 . S
C222 O220 1.273 . S
O223 Mg210 2.010 . S
O223 C215 1.249 . S
Mg224 O225 2.028 . S
Mg224 O231 1.986 . S
Mg224 O233 2.114 . S
Mg224 O234 2.251 . S
Mg224 O237 2.010 . S
O225 Mg224 2.028 . S
O225 C228 1.250 . S
O226 Mg227 2.028 . S
O226 C228 1.248 . S
Mg227 O226 2.028 . S
Mg227 O232 2.032 . S
Mg227 O234 2.079 . S
C228 O225 1.250 . S
C228 O226 1.248 . S
C229 O230 1.264 . S
C229 O237 1.249 . S
O230 C229 1.264 . S
O231 Mg224 1.986 . S
O231 C235 1.246 . S
O232 Mg227 2.032 . S
O232 C235 1.259 . S
O233 Mg224 2.114 . S
O233 C236 1.252 . S
O234 Mg224 2.251 . S
O234 Mg227 2.079 . S
O234 C236 1.273 . S
C235 O231 1.246 . S
C235 O232 1.259 . S
C236 O233 1.252 . S
C236 O234 1.273 . S
O237 Mg224 2.010 . S
O237 C229 1.249 . S
Mg238 O239 2.028 . S
Mg238 O245 1.986 . S
Mg238 O247 2.114 . S
Mg238 O248 2.251 . S
Mg238 O251 2.010 . S
O239 Mg238 2.028 . S
O239 C242 1.250 . S
O240 Mg241 2.028 . S
O240 C242 1.248 1_554 S
Mg241 O240 2.028 . S
Mg241 O246 2.032 1_554 S
Mg241 O248 2.079 1_554 S
C242 O239 1.250 . S
C242 O240 1.248 1_556 S
C243 O244 1.264 . S
C243 O251 1.249 . S
O244 C243 1.264 . S
O245 Mg238 1.986 . S
O245 C249 1.246 . S
O246 Mg241 2.032 1_556 S
O246 C249 1.259 . S
O247 Mg238 2.114 . S
O247 C250 1.252 . S
O248 Mg238 2.251 . S
O248 Mg241 2.079 1_556 S
O248 C250 1.273 . S
C249 O245 1.246 . S
C249 O246 1.259 . S
C250 O247 1.252 . S
C250 O248 1.273 . S
O251 Mg238 2.010 . S
O251 C243 1.249 . S
Mg252 O253 2.028 . S
Mg252 O259 1.986 . S
Mg252 O261 2.114 . S
Mg252 O262 2.251 . S
Mg252 O265 2.010 . S
O253 Mg252 2.028 . S
O253 C256 1.250 . S
O254 Mg255 2.028 . S
O254 C256 1.248 . S
Mg255 O254 2.028 . S
Mg255 O260 2.032 . S
Mg255 O262 2.079 . S
C256 O253 1.250 . S
C256 O254 1.248 . S
C257 O258 1.264 1_554 S
C257 O265 1.249 . S
O258 C257 1.264 1_556 S
O259 Mg252 1.986 . S
O259 C263 1.246 . S
O260 Mg255 2.032 . S
O260 C263 1.259 . S
O261 Mg252 2.114 . S
O261 C264 1.252 . S
O262 Mg252 2.251 . S
O262 Mg255 2.079 . S
O262 C264 1.273 . S
C263 O259 1.246 . S
C263 O260 1.259 . S
C264 O261 1.252 . S
C264 O262 1.273 . S
O265 Mg252 2.010 . S
O265 C257 1.249 . S
Mg266 O267 2.028 . S
Mg266 O273 1.986 . S
Mg266 O275 2.114 . S
Mg266 O276 2.251 . S
Mg266 O279 2.010 . S
O267 Mg266 2.028 . S
O267 C270 1.250 . S
O268 Mg269 2.028 . S
O268 C270 1.248 . S
Mg269 O268 2.028 . S
Mg269 O274 2.032 . S
Mg269 O276 2.079 . S
C270 O267 1.250 . S
C270 O268 1.248 . S
C271 O272 1.264 . S
C271 O279 1.249 . S
O272 C271 1.264 . S
O273 Mg266 1.986 . S
O273 C277 1.246 . S
O274 Mg269 2.032 . S
O274 C277 1.259 . S
O275 Mg266 2.114 . S
O275 C278 1.252 . S
O276 Mg266 2.251 . S
O276 Mg269 2.079 . S
O276 C278 1.273 . S
C277 O273 1.246 . S
C277 O274 1.259 . S
C278 O275 1.252 . S
C278 O276 1.273 . S
O279 Mg266 2.010 . S
O279 C271 1.249 . S
Mg280 O281 2.028 . S
Mg280 O287 1.986 . S
Mg280 O289 2.114 . S
Mg280 O290 2.251 . S
Mg280 O293 2.010 . S
O281 Mg280 2.028 . S
O281 C284 1.250 . S
O282 Mg283 2.028 . S
O282 C284 1.248 . S
Mg283 O282 2.028 . S
Mg283 O288 2.032 . S
Mg283 O290 2.079 . S
C284 O281 1.250 . S
C284 O282 1.248 . S
C285 O286 1.264 . S
C285 O293 1.249 . S
O286 C285 1.264 . S
O287 Mg280 1.986 . S
O287 C291 1.246 . S
O288 Mg283 2.032 . S
O288 C291 1.259 . S
O289 Mg280 2.114 . S
O289 C292 1.252 . S
O290 Mg280 2.251 . S
O290 Mg283 2.079 . S
O290 C292 1.273 . S
C291 O287 1.246 . S
C291 O288 1.259 . S
C292 O289 1.252 . S
C292 O290 1.273 . S
O293 Mg280 2.010 . S
O293 C285 1.249 . S
Mg294 O295 2.028 . S
Mg294 O301 1.986 . S
Mg294 O303 2.114 . S
Mg294 O304 2.251 . S
Mg294 O307 2.010 . S
O295 Mg294 2.028 . S
O295 C298 1.250 . S
O296 Mg297 2.028 . S
O296 C298 1.248 . S
Mg297 O296 2.028 . S
Mg297 O302 2.032 . S
Mg297 O304 2.079 . S
C298 O295 1.250 . S
C298 O296 1.248 . S
C299 O300 1.264 . S
C299 O307 1.249 . S
O300 C299 1.264 . S
O301 Mg294 1.986 . S
O301 C305 1.246 . S
O302 Mg297 2.032 . S
O302 C305 1.259 . S
O303 Mg294 2.114 . S
O303 C306 1.252 . S
O304 Mg294 2.251 . S
O304 Mg297 2.079 . S
O304 C306 1.273 . S
C305 O301 1.246 . S
C305 O302 1.259 . S
C306 O303 1.252 . S
C306 O304 1.273 . S
O307 Mg294 2.010 . S
O307 C299 1.249 . S
Mg308 O309 2.028 . S
Mg308 O315 1.986 . S
Mg308 O317 2.114 . S
Mg308 O318 2.251 . S
Mg308 O321 2.010 . S
O309 Mg308 2.028 . S
O309 C312 1.250 . S
O310 Mg311 2.028 . S
O310 C312 1.248 . S
Mg311 O310 2.028 . S
Mg311 O316 2.032 . S
Mg311 O318 2.079 . S
C312 O309 1.250 . S
C312 O310 1.248 . S
C313 O314 1.264 1_556 S
C313 O321 1.249 . S
O314 C313 1.264 1_554 S
O315 Mg308 1.986 . S
O315 C319 1.246 . S
O316 Mg311 2.032 . S
O316 C319 1.259 . S
O317 Mg308 2.114 . S
O317 C320 1.252 . S
O318 Mg308 2.251 . S
O318 Mg311 2.079 . S
O318 C320 1.273 . S
C319 O315 1.246 . S
C319 O316 1.259 . S
C320 O317 1.252 . S
C320 O318 1.273 . S
O321 Mg308 2.010 . S
O321 C313 1.249 . S
Mg322 O323 2.028 . S
Mg322 O329 1.986 . S
Mg322 O331 2.114 . S
Mg322 O332 2.251 . S
Mg322 O335 2.010 . S
O323 Mg322 2.028 . S
O323 C326 1.250 . S
O324 Mg325 2.028 . S
O324 C326 1.248 1_556 S
Mg325 O324 2.028 . S
Mg325 O330 2.032 1_556 S
Mg325 O332 2.079 1_556 S
C326 O323 1.250 . S
C326 O324 1.248 1_554 S
C327 O328 1.264 . S
C327 O335 1.249 . S
O328 C327 1.264 . S
O329 Mg322 1.986 . S
O329 C333 1.246 . S
O330 Mg325 2.032 1_554 S
O330 C333 1.259 . S
O331 Mg322 2.114 . S
O331 C334 1.252 . S
O332 Mg322 2.251 . S
O332 Mg325 2.079 1_554 S
O332 C334 1.273 . S
C333 O329 1.246 . S
C333 O330 1.259 . S
C334 O331 1.252 . S
C334 O332 1.273 . S
O335 Mg322 2.010 . S
O335 C327 1.249 . S
Mg336 O337 2.028 . S
Mg336 O343 1.986 . S
Mg336 O345 2.114 . S
Mg336 O346 2.251 . S
Mg336 O349 2.010 . S
O337 Mg336 2.028 . S
O337 C340 1.250 . S
O338 Mg339 2.028 . S
O338 C340 1.248 . S
Mg339 O338 2.028 . S
Mg339 O344 2.032 . S
Mg339 O346 2.079 . S
C340 O337 1.250 . S
C340 O338 1.248 . S
C341 O342 1.264 . S
C341 O349 1.249 . S
O342 C341 1.264 . S
O343 Mg336 1.986 . S
O343 C347 1.246 . S
O344 Mg339 2.032 . S
O344 C347 1.259 . S
O345 Mg336 2.114 . S
O345 C348 1.252 . S
O346 Mg336 2.251 . S
O346 Mg339 2.079 . S
O346 C348 1.273 . S
C347 O343 1.246 . S
C347 O344 1.259 . S
C348 O345 1.252 . S
C348 O346 1.273 . S
O349 Mg336 2.010 . S
O349 C341 1.249 . S
Mg350 O351 2.028 . S
Mg350 O357 1.986 . S
Mg350 O359 2.114 . S
Mg350 O360 2.251 . S
Mg350 O363 2.010 . S
O351 Mg350 2.028 . S
O351 C354 1.250 . S
O352 Mg353 2.028 . S
O352 C354 1.248 1_556 S
Mg353 O352 2.028 . S
Mg353 O358 2.032 1_556 S
Mg353 O360 2.079 1_556 S
C354 O351 1.250 . S
C354 O352 1.248 1_554 S
C355 O356 1.264 . S
C355 O363 1.249 . S
O356 C355 1.264 . S
O357 Mg350 1.986 . S
O357 C361 1.246 . S
O358 Mg353 2.032 1_554 S
O358 C361 1.259 . S
O359 Mg350 2.114 . S
O359 C362 1.252 . S
O360 Mg350 2.251 . S
O360 Mg353 2.079 1_554 S
O360 C362 1.273 . S
C361 O357 1.246 . S
C361 O358 1.259 . S
C362 O359 1.252 . S
C362 O360 1.273 . S
O363 Mg350 2.010 . S
O363 C355 1.249 . S
Mg364 O365 2.028 . S
Mg364 O371 1.986 . S
Mg364 O373 2.114 . S
Mg364 O374 2.251 . S
Mg364 O377 2.010 . S
O365 Mg364 2.028 . S
O365 C368 1.250 . S
O366 Mg367 2.028 . S
O366 C368 1.248 . S
Mg367 O366 2.028 . S
Mg367 O372 2.032 . S
Mg367 O374 2.079 . S
C368 O365 1.250 . S
C368 O366 1.248 . S
C369 O370 1.264 1_556 S
C369 O377 1.249 . S
O370 C369 1.264 1_554 S
O371 Mg364 1.986 . S
O371 C375 1.246 . S
O372 Mg367 2.032 . S
O372 C375 1.259 . S
O373 Mg364 2.114 . S
O373 C376 1.252 . S
O374 Mg364 2.251 . S
O374 Mg367 2.079 . S
O374 C376 1.273 . S
C375 O371 1.246 . S
C375 O372 1.259 . S
C376 O373 1.252 . S
C376 O374 1.273 . S
O377 Mg364 2.010 . S
O377 C369 1.249 . S
Mg378 O379 2.028 . S
Mg378 O385 1.986 . S
Mg378 O387 2.114 . S
Mg378 O388 2.251 . S
Mg378 O391 2.010 . S
O379 Mg378 2.028 . S
O379 C382 1.250 . S
O380 Mg381 2.028 . S
O380 C382 1.248 . S
Mg381 O380 2.028 . S
Mg381 O386 2.032 . S
Mg381 O388 2.079 . S
C382 O379 1.250 . S
C382 O380 1.248 . S
C383 O384 1.264 . S
C383 O391 1.249 . S
O384 C383 1.264 . S
O385 Mg378 1.986 . S
O385 C389 1.246 . S
O386 Mg381 2.032 . S
O386 C389 1.259 . S
O387 Mg378 2.114 . S
O387 C390 1.252 . S
O388 Mg378 2.251 . S
O388 Mg381 2.079 . S
O388 C390 1.273 . S
C389 O385 1.246 . S
C389 O386 1.259 . S
C390 O387 1.252 . S
C390 O388 1.273 . S
O391 Mg378 2.010 . S
O391 C383 1.249 . S
Mg392 O393 2.028 . S
Mg392 O399 1.986 . S
Mg392 O401 2.114 . S
Mg392 O402 2.251 . S
Mg392 O405 2.010 . S
O393 Mg392 2.028 . S
O393 C396 1.250 . S
O394 Mg395 2.028 . S
O394 C396 1.248 . S
Mg395 O394 2.028 . S
Mg395 O400 2.032 . S
Mg395 O402 2.079 . S
C396 O393 1.250 . S
C396 O394 1.248 . S
C397 O398 1.264 . S
C397 O405 1.249 . S
O398 C397 1.264 . S
O399 Mg392 1.986 . S
O399 C403 1.246 . S
O400 Mg395 2.032 . S
O400 C403 1.259 . S
O401 Mg392 2.114 . S
O401 C404 1.252 . S
O402 Mg392 2.251 . S
O402 Mg395 2.079 . S
O402 C404 1.273 . S
C403 O399 1.246 . S
C403 O400 1.259 . S
C404 O401 1.252 . S
C404 O402 1.273 . S
O405 Mg392 2.010 . S
O405 C397 1.249 . S
Mg406 O407 2.028 . S
Mg406 O413 1.986 . S
Mg406 O415 2.114 . S
Mg406 O416 2.251 . S
Mg406 O419 2.010 . S
O407 Mg406 2.028 . S
O407 C410 1.250 . S
O408 Mg409 2.028 . S
O408 C410 1.248 . S
Mg409 O408 2.028 . S
Mg409 O414 2.032 . S
Mg409 O416 2.079 . S
C410 O407 1.250 . S
C410 O408 1.248 . S
C411 O412 1.264 . S
C411 O419 1.249 . S
O412 C411 1.264 . S
O413 Mg406 1.986 . S
O413 C417 1.246 . S
O414 Mg409 2.032 . S
O414 C417 1.259 . S
O415 Mg406 2.114 . S
O415 C418 1.252 . S
O416 Mg406 2.251 . S
O416 Mg409 2.079 . S
O416 C418 1.273 . S
C417 O413 1.246 . S
C417 O414 1.259 . S
C418 O415 1.252 . S
C418 O416 1.273 . S
O419 Mg406 2.010 . S
O419 C411 1.249 . S
Mg420 O421 2.028 . S
Mg420 O427 1.986 . S
Mg420 O429 2.114 . S
Mg420 O430 2.251 . S
Mg420 O433 2.010 . S
O421 Mg420 2.028 . S
O421 C424 1.250 . S
O422 Mg423 2.028 . S
O422 C424 1.248 . S
Mg423 O422 2.028 . S
Mg423 O428 2.032 . S
Mg423 O430 2.079 . S
C424 O421 1.250 . S
C424 O422 1.248 . S
C425 O426 1.264 1_554 S
C425 O433 1.249 . S
O426 C425 1.264 1_556 S
O427 Mg420 1.986 . S
O427 C431 1.246 . S
O428 Mg423 2.032 . S
O428 C431 1.259 . S
O429 Mg420 2.114 . S
O429 C432 1.252 . S
O430 Mg420 2.251 . S
O430 Mg423 2.079 . S
O430 C432 1.273 . S
C431 O427 1.246 . S
C431 O428 1.259 . S
C432 O429 1.252 . S
C432 O430 1.273 . S
O433 Mg420 2.010 . S
O433 C425 1.249 . S
Mg434 O435 2.028 . S
Mg434 O441 1.986 . S
Mg434 O443 2.114 . S
Mg434 O444 2.251 . S
Mg434 O447 2.010 . S
O435 Mg434 2.028 . S
O435 C438 1.250 . S
O436 Mg437 2.028 . S
O436 C438 1.248 1_554 S
Mg437 O436 2.028 . S
Mg437 O442 2.032 1_554 S
Mg437 O444 2.079 1_554 S
C438 O435 1.250 . S
C438 O436 1.248 1_556 S
C439 O440 1.264 . S
C439 O447 1.249 . S
O440 C439 1.264 . S
O441 Mg434 1.986 . S
O441 C445 1.246 . S
O442 Mg437 2.032 1_556 S
O442 C445 1.259 . S
O443 Mg434 2.114 . S
O443 C446 1.252 . S
O444 Mg434 2.251 . S
O444 Mg437 2.079 1_556 S
O444 C446 1.273 . S
C445 O441 1.246 . S
C445 O442 1.259 . S
C446 O443 1.252 . S
C446 O444 1.273 . S
O447 Mg434 2.010 . S
O447 C439 1.249 . S
H448 C454 0.930 . S
H449 C458 0.930 . S
H450 C463 0.929 . S
H451 C461 0.929 . S
H452 C456 0.929 . S
H453 C462 0.929 . S
C454 H448 0.930 . S
C454 C455 1.367 . S
C454 C462 1.378 . S
C455 C454 1.367 . S
C455 C463 1.433 . S
C456 H452 0.929 . S
C456 C458 1.378 . S
C456 C460 1.350 . S
C457 C460 1.463 . S
C457 C462 1.350 . S
C457 N465 1.427 . S
C458 H449 0.930 . S
C458 C456 1.378 . S
C458 C459 1.367 . S
C459 C458 1.367 . S
C459 C461 1.433 . S
C460 C456 1.350 . S
C460 C457 1.463 . S
C460 N464 1.427 . S
C461 H451 0.929 . S
C461 C459 1.433 . S
C461 N464 1.384 . S
C462 H453 0.929 . S
C462 C454 1.378 . S
C462 C457 1.350 . S
C463 H450 0.929 . S
C463 C455 1.433 . S
C463 N465 1.384 . S
N464 C460 1.427 . S
N464 C461 1.384 . S
N465 C457 1.427 . S
N465 C463 1.384 . S
H466 C472 0.930 . S
H467 C476 0.930 . S
H468 C481 0.929 . S
H469 C479 0.929 . S
H470 C474 0.929 . S
H471 C480 0.929 . S
C472 H466 0.930 . S
C472 C473 1.367 . S
C472 C480 1.378 . S
C473 C472 1.367 . S
C473 C481 1.433 . S
C474 H470 0.929 . S
C474 C476 1.378 . S
C474 C478 1.350 . S
C475 C478 1.463 1_565 S
C475 C480 1.350 . S
C475 N483 1.427 . S
C476 H467 0.930 . S
C476 C474 1.378 . S
C476 C477 1.367 . S
C477 C476 1.367 . S
C477 C479 1.433 . S
C478 C474 1.350 . S
C478 C475 1.463 1_545 S
C478 N482 1.427 . S
C479 H469 0.929 . S
C479 C477 1.433 . S
C479 N482 1.384 . S
C480 H471 0.929 . S
C480 C472 1.378 . S
C480 C475 1.350 . S
C481 H468 0.929 . S
C481 C473 1.433 . S
C481 N483 1.384 . S
N482 C478 1.427 . S
N482 C479 1.384 . S
N483 C475 1.427 . S
N483 C481 1.384 . S
H484 C490 0.930 . S
H485 C494 0.930 . S
H486 C499 0.929 . S
H487 C497 0.929 . S
H488 C492 0.929 . S
H489 C498 0.929 . S
C490 H484 0.930 . S
C490 C491 1.367 . S
C490 C498 1.378 . S
C491 C490 1.367 . S
C491 C499 1.433 . S
C492 H488 0.929 . S
C492 C494 1.378 . S
C492 C496 1.350 . S
C493 C496 1.463 . S
C493 C498 1.350 . S
C493 N501 1.427 . S
C494 H485 0.930 . S
C494 C492 1.378 . S
C494 C495 1.367 . S
C495 C494 1.367 . S
C495 C497 1.433 . S
C496 C492 1.350 . S
C496 C493 1.463 . S
C496 N500 1.427 . S
C497 H487 0.929 . S
C497 C495 1.433 . S
C497 N500 1.384 . S
C498 H489 0.929 . S
C498 C490 1.378 . S
C498 C493 1.350 . S
C499 H486 0.929 . S
C499 C491 1.433 . S
C499 N501 1.384 . S
N500 C496 1.427 . S
N500 C497 1.384 . S
N501 C493 1.427 . S
N501 C499 1.384 . S
H502 C508 0.930 . S
H503 C512 0.930 . S
H504 C517 0.929 . S
H505 C515 0.929 . S
H506 C510 0.929 . S
H507 C516 0.929 . S
C508 H502 0.930 . S
C508 C509 1.367 1_554 S
C508 C516 1.378 . S
C509 C508 1.367 1_556 S
C509 C517 1.433 . S
C510 H506 0.929 . S
C510 C512 1.378 . S
C510 C514 1.350 1_556 S
C511 C514 1.463 1_546 S
C511 C516 1.350 1_556 S
C511 N519 1.427 . S
C512 H503 0.930 . S
C512 C510 1.378 . S
C512 C513 1.367 1_556 S
C513 C512 1.367 1_554 S
C513 C515 1.433 . S
C514 C510 1.350 1_554 S
C514 C511 1.463 1_564 S
C514 N518 1.427 . S
C515 H505 0.929 . S
C515 C513 1.433 . S
C515 N518 1.384 . S
C516 H507 0.929 . S
C516 C508 1.378 . S
C516 C511 1.350 1_554 S
C517 H504 0.929 . S
C517 C509 1.433 . S
C517 N519 1.384 . S
N518 C514 1.427 . S
N518 C515 1.384 . S
N519 C511 1.427 . S
N519 C517 1.384 . S
H520 C526 0.930 . S
H521 C530 0.930 . S
H522 C535 0.929 . S
H523 C533 0.929 . S
H524 C528 0.929 . S
H525 C534 0.929 . S
C526 H520 0.930 . S
C526 C527 1.367 . S
C526 C534 1.378 . S
C527 C526 1.367 . S
C527 C535 1.433 . S
C528 H524 0.929 . S
C528 C530 1.378 . S
C528 C532 1.350 . S
C529 C532 1.463 . S
C529 C534 1.350 . S
C529 N537 1.427 . S
C530 H521 0.930 . S
C530 C528 1.378 . S
C530 C531 1.367 . S
C531 C530 1.367 . S
C531 C533 1.433 . S
C532 C528 1.350 . S
C532 C529 1.463 . S
C532 N536 1.427 . S
C533 H523 0.929 . S
C533 C531 1.433 . S
C533 N536 1.384 . S
C534 H525 0.929 . S
C534 C526 1.378 . S
C534 C529 1.350 . S
C535 H522 0.929 . S
C535 C527 1.433 . S
C535 N537 1.384 . S
N536 C532 1.427 . S
N536 C533 1.384 . S
N537 C529 1.427 . S
N537 C535 1.384 . S
H538 C544 0.930 . S
H539 C548 0.930 . S
H540 C553 0.929 . S
H541 C551 0.929 . S
H542 C546 0.929 . S
H543 C552 0.929 . S
C544 H538 0.930 . S
C544 C545 1.367 . S
C544 C552 1.378 . S
C545 C544 1.367 . S
C545 C553 1.433 . S
C546 H542 0.929 . S
C546 C548 1.378 . S
C546 C550 1.350 . S
C547 C550 1.463 1_565 S
C547 C552 1.350 . S
C547 N555 1.427 . S
C548 H539 0.930 . S
C548 C546 1.378 . S
C548 C549 1.367 . S
C549 C548 1.367 . S
C549 C551 1.433 . S
C550 C546 1.350 . S
C550 C547 1.463 1_545 S
C550 N554 1.427 . S
C551 H541 0.929 . S
C551 C549 1.433 . S
C551 N554 1.384 . S
C552 H543 0.929 . S
C552 C544 1.378 . S
C552 C547 1.350 . S
C553 H540 0.929 . S
C553 C545 1.433 . S
C553 N555 1.384 . S
N554 C550 1.427 . S
N554 C551 1.384 . S
N555 C547 1.427 . S
N555 C553 1.384 . S
H556 C562 0.930 . S
H557 C566 0.930 . S
H558 C571 0.929 . S
H559 C569 0.929 . S
H560 C564 0.929 . S
H561 C570 0.929 . S
C562 H556 0.930 . S
C562 C563 1.367 . S
C562 C570 1.378 . S
C563 C562 1.367 . S
C563 C571 1.433 . S
C564 H560 0.929 . S
C564 C566 1.378 . S
C564 C568 1.350 . S
C565 C568 1.463 . S
C565 C570 1.350 . S
C565 N573 1.427 . S
C566 H557 0.930 . S
C566 C564 1.378 . S
C566 C567 1.367 . S
C567 C566 1.367 . S
C567 C569 1.433 . S
C568 C564 1.350 . S
C568 C565 1.463 . S
C568 N572 1.427 . S
C569 H559 0.929 . S
C569 C567 1.433 . S
C569 N572 1.384 . S
C570 H561 0.929 . S
C570 C562 1.378 . S
C570 C565 1.350 . S
C571 H558 0.929 . S
C571 C563 1.433 . S
C571 N573 1.384 . S
N572 C568 1.427 . S
N572 C569 1.384 . S
N573 C565 1.427 . S
N573 C571 1.384 . S
H574 C580 0.930 . S
H575 C584 0.930 . S
H576 C589 0.929 1_554 S
H577 C587 0.929 1_556 S
H578 C582 0.929 . S
H579 C588 0.929 . S
C580 H574 0.930 . S
C580 C581 1.367 . S
C580 C588 1.378 . S
C581 C580 1.367 . S
C581 C589 1.433 . S
C582 H578 0.929 . S
C582 C584 1.378 . S
C582 C586 1.350 . S
C583 C586 1.463 1_546 S
C583 C588 1.350 . S
C583 N591 1.427 1_556 S
C584 H575 0.930 . S
C584 C582 1.378 . S
C584 C585 1.367 . S
C585 C584 1.367 . S
C585 C587 1.433 . S
C586 C582 1.350 . S
C586 C583 1.463 1_564 S
C586 N590 1.427 1_554 S
C587 H577 0.929 1_554 S
C587 C585 1.433 . S
C587 N590 1.384 1_554 S
C588 H579 0.929 . S
C588 C580 1.378 . S
C588 C583 1.350 . S
C589 H576 0.929 1_556 S
C589 C581 1.433 . S
C589 N591 1.384 1_556 S
N590 C586 1.427 1_556 S
N590 C587 1.384 1_556 S
N591 C583 1.427 1_554 S
N591 C589 1.384 1_554 S
H592 C598 0.930 . S
H593 C602 0.930 . S
H594 C607 0.929 . S
H595 C605 0.929 . S
H596 C600 0.929 . S
H597 C606 0.929 . S
C598 H592 0.930 . S
C598 C599 1.367 . S
C598 C606 1.378 . S
C599 C598 1.367 . S
C599 C607 1.433 . S
C600 H596 0.929 . S
C600 C602 1.378 . S
C600 C604 1.350 . S
C601 C604 1.463 . S
C601 C606 1.350 . S
C601 N609 1.427 . S
C602 H593 0.930 . S
C602 C600 1.378 . S
C602 C603 1.367 . S
C603 C602 1.367 . S
C603 C605 1.433 . S
C604 C600 1.350 . S
C604 C601 1.463 . S
C604 N608 1.427 . S
C605 H595 0.929 . S
C605 C603 1.433 . S
C605 N608 1.384 . S
C606 H597 0.929 . S
C606 C598 1.378 . S
C606 C601 1.350 . S
C607 H594 0.929 . S
C607 C599 1.433 . S
C607 N609 1.384 . S
N608 C604 1.427 . S
N608 C605 1.384 . S
N609 C601 1.427 . S
N609 C607 1.384 . S
H610 C616 0.930 . S
H611 C620 0.930 . S
H612 C625 0.929 . S
H613 C623 0.929 . S
H614 C618 0.929 . S
H615 C624 0.929 . S
C616 H610 0.930 . S
C616 C617 1.367 . S
C616 C624 1.378 . S
C617 C616 1.367 . S
C617 C625 1.433 . S
C618 H614 0.929 . S
C618 C620 1.378 . S
C618 C622 1.350 . S
C619 C622 1.463 1_556 S
C619 C624 1.350 . S
C619 N627 1.427 . S
C620 H611 0.930 . S
C620 C618 1.378 . S
C620 C621 1.367 . S
C621 C620 1.367 . S
C621 C623 1.433 . S
C622 C618 1.350 . S
C622 C619 1.463 1_554 S
C622 N626 1.427 . S
C623 H613 0.929 . S
C623 C621 1.433 . S
C623 N626 1.384 . S
C624 H615 0.929 . S
C624 C616 1.378 . S
C624 C619 1.350 . S
C625 H612 0.929 . S
C625 C617 1.433 . S
C625 N627 1.384 . S
N626 C622 1.427 . S
N626 C623 1.384 . S
N627 C619 1.427 . S
N627 C625 1.384 . S
H628 C634 0.930 . S
H629 C638 0.930 . S
H630 C643 0.929 . S
H631 C641 0.929 . S
H632 C636 0.929 . S
H633 C642 0.929 . S
C634 H628 0.930 . S
C634 C635 1.367 . S
C634 C642 1.378 . S
C635 C634 1.367 . S
C635 C643 1.433 . S
C636 H632 0.929 . S
C636 C638 1.378 . S
C636 C640 1.350 . S
C637 C640 1.463 . S
C637 C642 1.350 . S
C637 N645 1.427 . S
C638 H629 0.930 . S
C638 C636 1.378 . S
C638 C639 1.367 . S
C639 C638 1.367 . S
C639 C641 1.433 . S
C640 C636 1.350 . S
C640 C637 1.463 . S
C640 N644 1.427 . S
C641 H631 0.929 . S
C641 C639 1.433 . S
C641 N644 1.384 . S
C642 H633 0.929 . S
C642 C634 1.378 . S
C642 C637 1.350 . S
C643 H630 0.929 . S
C643 C635 1.433 . S
C643 N645 1.384 . S
N644 C640 1.427 . S
N644 C641 1.384 . S
N645 C637 1.427 . S
N645 C643 1.384 . S
H646 C652 0.930 . S
H647 C656 0.930 . S
H648 C661 0.929 . S
H649 C659 0.929 . S
H650 C654 0.929 . S
H651 C660 0.929 . S
C652 H646 0.930 . S
C652 C653 1.367 . S
C652 C660 1.378 . S
C653 C652 1.367 . S
C653 C661 1.433 . S
C654 H650 0.929 . S
C654 C656 1.378 . S
C654 C658 1.350 . S
C655 C658 1.463 . S
C655 C660 1.350 . S
C655 N663 1.427 . S
C656 H647 0.930 . S
C656 C654 1.378 . S
C656 C657 1.367 . S
C657 C656 1.367 . S
C657 C659 1.433 . S
C658 C654 1.350 . S
C658 C655 1.463 . S
C658 N662 1.427 . S
C659 H649 0.929 . S
C659 C657 1.433 . S
C659 N662 1.384 . S
C660 H651 0.929 . S
C660 C652 1.378 . S
C660 C655 1.350 . S
C661 H648 0.929 . S
C661 C653 1.433 . S
C661 N663 1.384 . S
N662 C658 1.427 . S
N662 C659 1.384 . S
N663 C655 1.427 . S
N663 C661 1.384 . S
H664 C670 0.930 . S
H665 C674 0.930 . S
H666 C679 0.929 . S
H667 C677 0.929 . S
H668 C672 0.929 . S
H669 C678 0.929 . S
C670 H664 0.930 . S
C670 C671 1.367 . S
C670 C678 1.378 . S
C671 C670 1.367 . S
C671 C679 1.433 . S
C672 H668 0.929 . S
C672 C674 1.378 . S
C672 C676 1.350 . S
C673 C676 1.463 . S
C673 C678 1.350 . S
C673 N681 1.427 . S
C674 H665 0.930 . S
C674 C672 1.378 . S
C674 C675 1.367 . S
C675 C674 1.367 . S
C675 C677 1.433 . S
C676 C672 1.350 . S
C676 C673 1.463 . S
C676 N680 1.427 . S
C677 H667 0.929 . S
C677 C675 1.433 . S
C677 N680 1.384 . S
C678 H669 0.929 . S
C678 C670 1.378 . S
C678 C673 1.350 . S
C679 H666 0.929 . S
C679 C671 1.433 . S
C679 N681 1.384 . S
N680 C676 1.427 . S
N680 C677 1.384 . S
N681 C673 1.427 . S
N681 C679 1.384 . S
H682 C688 0.930 . S
H683 C692 0.930 . S
H684 C697 0.923 1_556 S
H685 C695 0.923 1_554 S
H686 C690 0.929 . S
H687 C696 0.929 . S
C688 H682 0.930 . S
C688 C689 1.367 . S
C688 C696 1.378 . S
C689 C688 1.367 . S
C689 C697 1.444 . S
C690 H686 0.929 . S
C690 C692 1.378 . S
C690 C694 1.350 . S
C691 C694 1.463 1_554 S
C691 C696 1.350 . S
C691 N699 1.427 1_554 S
C692 H683 0.930 . S
C692 C690 1.378 . S
C692 C693 1.367 . S
C693 C692 1.367 . S
C693 C695 1.444 . S
C694 C690 1.350 . S
C694 C691 1.463 1_556 S
C694 N698 1.427 1_556 S
C695 H685 0.923 1_556 S
C695 C693 1.444 . S
C695 N698 1.379 1_556 S
C696 H687 0.929 . S
C696 C688 1.378 . S
C696 C691 1.350 . S
C697 H684 0.923 1_554 S
C697 C689 1.444 . S
C697 N699 1.379 1_554 S
N698 C694 1.427 1_554 S
N698 C695 1.379 1_554 S
N699 C691 1.427 1_556 S
N699 C697 1.379 1_556 S
H700 C706 0.930 . S
H701 C710 0.930 . S
H702 C715 0.929 . S
H703 C713 0.929 . S
H704 C708 0.929 . S
H705 C714 0.929 . S
C706 H700 0.930 . S
C706 C707 1.367 . S
C706 C714 1.378 . S
C707 C706 1.367 . S
C707 C715 1.433 . S
C708 H704 0.929 . S
C708 C710 1.378 . S
C708 C712 1.350 . S
C709 C712 1.463 . S
C709 C714 1.350 . S
C709 N717 1.427 . S
C710 H701 0.930 . S
C710 C708 1.378 . S
C710 C711 1.367 . S
C711 C710 1.367 . S
C711 C713 1.433 . S
C712 C708 1.350 . S
C712 C709 1.463 . S
C712 N716 1.427 . S
C713 H703 0.929 . S
C713 C711 1.433 . S
C713 N716 1.384 . S
C714 H705 0.929 . S
C714 C706 1.378 . S
C714 C709 1.350 . S
C715 H702 0.929 . S
C715 C707 1.433 . S
C715 N717 1.384 . S
N716 C712 1.427 . S
N716 C713 1.384 . S
N717 C709 1.427 . S
N717 C715 1.384 . S
H718 C724 0.930 . S
H719 C728 0.930 . S
H720 C733 0.929 . S
H721 C731 0.929 . S
H722 C726 0.929 . S
H723 C732 0.929 . S
C724 H718 0.930 . S
C724 C725 1.367 . S
C724 C732 1.378 . S
C725 C724 1.367 . S
C725 C733 1.433 . S
C726 H722 0.929 . S
C726 C728 1.378 . S
C726 C730 1.350 . S
C727 C730 1.463 . S
C727 C732 1.350 . S
C727 N735 1.427 . S
C728 H719 0.930 . S
C728 C726 1.378 . S
C728 C729 1.367 . S
C729 C728 1.367 . S
C729 C731 1.433 . S
C730 C726 1.350 . S
C730 C727 1.463 . S
C730 N734 1.427 . S
C731 H721 0.929 . S
C731 C729 1.433 . S
C731 N734 1.384 . S
C732 H723 0.929 . S
C732 C724 1.378 . S
C732 C727 1.350 . S
C733 H720 0.929 . S
C733 C725 1.433 . S
C733 N735 1.384 . S
N734 C730 1.427 . S
N734 C731 1.384 . S
N735 C727 1.427 . S
N735 C733 1.384 . S
H736 C742 0.930 . S
H737 C746 0.930 . S
H738 C751 0.929 1_554 S
H739 C749 0.929 . S
H740 C744 0.929 . S
H741 C750 0.929 . S
C742 H736 0.930 . S
C742 C743 1.367 . S
C742 C750 1.378 . S
C743 C742 1.367 . S
C743 C751 1.433 . S
C744 H740 0.929 . S
C744 C746 1.378 . S
C744 C748 1.350 . S
C745 C748 1.463 . S
C745 C750 1.350 . S
C745 N753 1.427 . S
C746 H737 0.930 . S
C746 C744 1.378 . S
C746 C747 1.367 . S
C747 C746 1.367 . S
C747 C749 1.433 . S
C748 C744 1.350 . S
C748 C745 1.463 . S
C748 N752 1.427 . S
C749 H739 0.929 . S
C749 C747 1.433 . S
C749 N752 1.384 . S
C750 H741 0.929 . S
C750 C742 1.378 . S
C750 C745 1.350 . S
C751 H738 0.929 1_556 S
C751 C743 1.433 . S
C751 N753 1.384 . S
N752 C748 1.427 . S
N752 C749 1.384 . S
N753 C745 1.427 . S
N753 C751 1.384 . S
H754 C760 0.930 . S
H755 C764 0.930 . S
H756 C769 0.929 . S
H757 C767 0.929 . S
H758 C762 0.929 . S
H759 C768 0.929 . S
C760 H754 0.930 . S
C760 C761 1.366 1_556 S
C760 C768 1.378 1_556 S
C761 C760 1.366 1_554 S
C761 C769 1.439 . S
C762 H758 0.929 . S
C762 C764 1.378 . S
C762 C766 1.350 . S
C763 C766 1.463 . S
C763 C768 1.350 . S
C763 N771 1.427 . S
C764 H755 0.930 . S
C764 C762 1.378 . S
C764 C765 1.367 . S
C765 C764 1.367 . S
C765 C767 1.433 . S
C766 C762 1.350 . S
C766 C763 1.463 . S
C766 N770 1.427 . S
C767 H757 0.929 . S
C767 C765 1.433 . S
C767 N770 1.384 . S
C768 H759 0.929 . S
C768 C760 1.378 1_554 S
C768 C763 1.350 . S
C769 H756 0.929 . S
C769 C761 1.439 . S
C769 N771 1.384 . S
N770 C766 1.427 . S
N770 C767 1.384 . S
N771 C763 1.427 . S
N771 C769 1.384 . S
H772 C778 0.930 . S
H773 C782 0.930 . S
H774 C787 0.929 . S
H775 C785 0.929 . S
H776 C780 0.929 . S
H777 C786 0.929 . S
C778 H772 0.930 . S
C778 C779 1.367 . S
C778 C786 1.378 . S
C779 C778 1.367 . S
C779 C787 1.433 . S
C780 H776 0.929 . S
C780 C782 1.378 . S
C780 C784 1.350 . S
C781 C784 1.463 . S
C781 C786 1.350 . S
C781 N789 1.427 . S
C782 H773 0.930 . S
C782 C780 1.378 . S
C782 C783 1.367 . S
C783 C782 1.367 . S
C783 C785 1.433 . S
C784 C780 1.350 . S
C784 C781 1.463 . S
C784 N788 1.427 . S
C785 H775 0.929 . S
C785 C783 1.433 . S
C785 N788 1.384 . S
C786 H777 0.929 . S
C786 C778 1.378 . S
C786 C781 1.350 . S
C787 H774 0.929 . S
C787 C779 1.433 . S
C787 N789 1.384 . S
N788 C784 1.427 . S
N788 C785 1.384 . S
N789 C781 1.427 . S
N789 C787 1.384 . S
H790 C796 0.930 . S
H791 C800 0.930 . S
H792 C805 0.929 . S
H793 C803 0.929 . S
H794 C798 0.929 . S
H795 C804 0.929 . S
C796 H790 0.930 . S
C796 C797 1.367 . S
C796 C804 1.378 . S
C797 C796 1.367 . S
C797 C805 1.433 . S
C798 H794 0.929 . S
C798 C800 1.378 . S
C798 C802 1.350 . S
C799 C802 1.463 . S
C799 C804 1.350 . S
C799 N807 1.427 . S
C800 H791 0.930 . S
C800 C798 1.378 . S
C800 C801 1.367 . S
C801 C800 1.367 . S
C801 C803 1.433 . S
C802 C798 1.350 . S
C802 C799 1.463 . S
C802 N806 1.427 . S
C803 H793 0.929 . S
C803 C801 1.433 . S
C803 N806 1.384 . S
C804 H795 0.929 . S
C804 C796 1.378 . S
C804 C799 1.350 . S
C805 H792 0.929 . S
C805 C797 1.433 . S
C805 N807 1.384 . S
N806 C802 1.427 . S
N806 C803 1.384 . S
N807 C799 1.427 . S
N807 C805 1.384 . S
H808 C814 0.930 . S
H809 C818 0.930 . S
H810 C823 0.929 1_556 S
H811 C821 0.929 . S
H812 C816 0.929 . S
H813 C822 0.929 . S
C814 H808 0.930 . S
C814 C815 1.367 . S
C814 C822 1.378 . S
C815 C814 1.367 . S
C815 C823 1.433 . S
C816 H812 0.929 . S
C816 C818 1.378 . S
C816 C820 1.350 . S
C817 C820 1.463 . S
C817 C822 1.350 . S
C817 N825 1.427 . S
C818 H809 0.930 . S
C818 C816 1.378 . S
C818 C819 1.367 . S
C819 C818 1.367 . S
C819 C821 1.433 . S
C820 C816 1.350 . S
C820 C817 1.463 . S
C820 N824 1.427 . S
C821 H811 0.929 . S
C821 C819 1.433 . S
C821 N824 1.384 . S
C822 H813 0.929 . S
C822 C814 1.378 . S
C822 C817 1.350 . S
C823 H810 0.929 1_554 S
C823 C815 1.433 . S
C823 N825 1.384 . S
N824 C820 1.427 . S
N824 C821 1.384 . S
N825 C817 1.427 . S
N825 C823 1.384 . S
H826 C832 0.930 . S
H827 C836 0.930 . S
H828 C841 0.929 1_554 S
H829 C839 0.929 . S
H830 C834 0.929 . S
H831 C840 0.929 . S
C832 H826 0.930 . S
C832 C833 1.367 . S
C832 C840 1.378 . S
C833 C832 1.367 . S
C833 C841 1.433 . S
C834 H830 0.929 . S
C834 C836 1.378 . S
C834 C838 1.350 . S
C835 C838 1.463 . S
C835 C840 1.350 . S
C835 N843 1.427 . S
C836 H827 0.930 . S
C836 C834 1.378 . S
C836 C837 1.367 . S
C837 C836 1.367 . S
C837 C839 1.433 . S
C838 C834 1.350 . S
C838 C835 1.463 . S
C838 N842 1.427 . S
C839 H829 0.929 . S
C839 C837 1.433 . S
C839 N842 1.384 . S
C840 H831 0.929 . S
C840 C832 1.378 . S
C840 C835 1.350 . S
C841 H828 0.929 1_556 S
C841 C833 1.433 . S
C841 N843 1.384 . S
N842 C838 1.427 . S
N842 C839 1.384 . S
N843 C835 1.427 . S
N843 C841 1.384 . S
H844 C850 0.930 . S
H845 C854 0.930 . S
H846 C859 0.929 . S
H847 C857 0.929 . S
H848 C852 0.929 . S
H849 C858 0.929 . S
C850 H844 0.930 . S
C850 C851 1.367 . S
C850 C858 1.378 . S
C851 C850 1.367 . S
C851 C859 1.433 . S
C852 H848 0.929 . S
C852 C854 1.378 . S
C852 C856 1.350 . S
C853 C856 1.463 . S
C853 C858 1.350 . S
C853 N861 1.427 . S
C854 H845 0.930 . S
C854 C852 1.378 . S
C854 C855 1.367 . S
C855 C854 1.367 . S
C855 C857 1.433 . S
C856 C852 1.350 . S
C856 C853 1.463 . S
C856 N860 1.427 . S
C857 H847 0.929 . S
C857 C855 1.433 . S
C857 N860 1.384 . S
C858 H849 0.929 . S
C858 C850 1.378 . S
C858 C853 1.350 . S
C859 H846 0.929 . S
C859 C851 1.433 . S
C859 N861 1.384 . S
N860 C856 1.427 . S
N860 C857 1.384 . S
N861 C853 1.427 . S
N861 C859 1.384 . S
H862 C868 0.930 . S
H863 C872 0.930 . S
H864 C877 0.929 . S
H865 C875 0.929 . S
H866 C870 0.929 . S
H867 C876 0.929 . S
C868 H862 0.930 . S
C868 C869 1.367 . S
C868 C876 1.378 . S
C869 C868 1.367 . S
C869 C877 1.433 . S
C870 H866 0.929 . S
C870 C872 1.378 . S
C870 C874 1.350 . S
C871 C874 1.463 . S
C871 C876 1.350 . S
C871 N879 1.427 . S
C872 H863 0.930 . S
C872 C870 1.378 . S
C872 C873 1.367 . S
C873 C872 1.367 . S
C873 C875 1.433 . S
C874 C870 1.350 . S
C874 C871 1.463 . S
C874 N878 1.427 . S
C875 H865 0.929 . S
C875 C873 1.433 . S
C875 N878 1.384 . S
C876 H867 0.929 . S
C876 C868 1.378 . S
C876 C871 1.350 . S
C877 H864 0.929 . S
C877 C869 1.433 . S
C877 N879 1.384 . S
N878 C874 1.427 . S
N878 C875 1.384 . S
N879 C871 1.427 . S
N879 C877 1.384 . S
H880 C886 0.930 . S
H881 C890 0.930 . S
H882 C895 0.929 . S
H883 C893 0.929 . S
H884 C888 0.929 . S
H885 C894 0.929 . S
C886 H880 0.930 . S
C886 C887 1.367 . S
C886 C894 1.378 . S
C887 C886 1.367 . S
C887 C895 1.433 . S
C888 H884 0.929 . S
C888 C890 1.378 . S
C888 C892 1.350 . S
C889 C892 1.463 . S
C889 C894 1.350 . S
C889 N897 1.427 . S
C890 H881 0.930 . S
C890 C888 1.378 . S
C890 C891 1.367 . S
C891 C890 1.367 . S
C891 C893 1.433 . S
C892 C888 1.350 . S
C892 C889 1.463 . S
C892 N896 1.427 . S
C893 H883 0.929 . S
C893 C891 1.433 . S
C893 N896 1.384 . S
C894 H885 0.929 . S
C894 C886 1.378 . S
C894 C889 1.350 . S
C895 H882 0.929 . S
C895 C887 1.433 . S
C895 N897 1.384 . S
N896 C892 1.427 . S
N896 C893 1.384 . S
N897 C889 1.427 . S
N897 C895 1.384 . S
H898 C904 0.930 . S
H899 C908 0.930 . S
H900 C913 0.929 . S
H901 C911 0.929 . S
H902 C906 0.929 . S
H903 C912 0.929 . S
C904 H898 0.930 . S
C904 C905 1.367 . S
C904 C912 1.378 . S
C905 C904 1.367 . S
C905 C913 1.433 . S
C906 H902 0.929 . S
C906 C908 1.378 . S
C906 C910 1.350 . S
C907 C910 1.463 . S
C907 C912 1.350 . S
C907 N915 1.427 . S
C908 H899 0.930 . S
C908 C906 1.378 . S
C908 C909 1.367 . S
C909 C908 1.367 . S
C909 C911 1.433 . S
C910 C906 1.350 . S
C910 C907 1.463 . S
C910 N914 1.427 . S
C911 H901 0.929 . S
C911 C909 1.433 . S
C911 N914 1.384 . S
C912 H903 0.929 . S
C912 C904 1.378 . S
C912 C907 1.350 . S
C913 H900 0.929 . S
C913 C905 1.433 . S
C913 N915 1.384 . S
N914 C910 1.427 . S
N914 C911 1.384 . S
N915 C907 1.427 . S
N915 C913 1.384 . S
H916 C922 0.930 . S
H917 C926 0.930 . S
H918 C931 0.929 . S
H919 C929 0.929 1_554 S
H920 C924 0.929 . S
H921 C930 0.929 . S
C922 H916 0.930 . S
C922 C923 1.367 . S
C922 C930 1.378 . S
C923 C922 1.367 . S
C923 C931 1.433 . S
C924 H920 0.929 . S
C924 C926 1.378 . S
C924 C928 1.350 . S
C925 C928 1.463 . S
C925 C930 1.350 . S
C925 N933 1.427 . S
C926 H917 0.930 . S
C926 C924 1.378 . S
C926 C927 1.367 . S
C927 C926 1.367 . S
C927 C929 1.433 . S
C928 C924 1.350 . S
C928 C925 1.463 . S
C928 N932 1.427 . S
C929 H919 0.929 1_556 S
C929 C927 1.433 . S
C929 N932 1.384 . S
C930 H921 0.929 . S
C930 C922 1.378 . S
C930 C925 1.350 . S
C931 H918 0.929 . S
C931 C923 1.433 . S
C931 N933 1.384 . S
N932 C928 1.427 . S
N932 C929 1.384 . S
N933 C925 1.427 . S
N933 C931 1.384 . S
H934 C940 0.930 . S
H935 C944 0.930 1_556 S
H936 C949 0.929 . S
H937 C947 0.929 . S
H938 C942 0.929 . S
H939 C948 0.929 . S
C940 H934 0.930 . S
C940 C941 1.367 . S
C940 C948 1.378 . S
C941 C940 1.367 . S
C941 C949 1.433 . S
C942 H938 0.929 . S
C942 C944 1.378 . S
C942 C946 1.350 . S
C943 C946 1.463 . S
C943 C948 1.350 . S
C943 N951 1.427 . S
C944 H935 0.930 1_554 S
C944 C942 1.378 . S
C944 C945 1.371 . S
C945 C944 1.371 . S
C945 C947 1.442 . S
C946 C942 1.350 . S
C946 C943 1.463 . S
C946 N950 1.427 . S
C947 H937 0.929 . S
C947 C945 1.442 . S
C947 N950 1.384 . S
C948 H939 0.929 . S
C948 C940 1.378 . S
C948 C943 1.350 . S
C949 H936 0.929 . S
C949 C941 1.433 . S
C949 N951 1.384 . S
N950 C946 1.427 . S
N950 C947 1.384 . S
N951 C943 1.427 . S
N951 C949 1.384 . S
H952 C958 0.930 . S
H953 C962 0.930 . S
H954 C967 0.929 . S
H955 C965 0.929 . S
H956 C960 0.929 . S
H957 C966 0.929 . S
C958 H952 0.930 . S
C958 C959 1.367 . S
C958 C966 1.378 . S
C959 C958 1.367 . S
C959 C967 1.433 . S
C960 H956 0.929 . S
C960 C962 1.378 . S
C960 C964 1.350 . S
C961 C964 1.463 . S
C961 C966 1.350 . S
C961 N969 1.427 . S
C962 H953 0.930 . S
C962 C960 1.378 . S
C962 C963 1.367 . S
C963 C962 1.367 . S
C963 C965 1.433 . S
C964 C960 1.350 . S
C964 C961 1.463 . S
C964 N968 1.427 . S
C965 H955 0.929 . S
C965 C963 1.433 . S
C965 N968 1.384 . S
C966 H957 0.929 . S
C966 C958 1.378 . S
C966 C961 1.350 . S
C967 H954 0.929 . S
C967 C959 1.433 . S
C967 N969 1.384 . S
N968 C964 1.427 . S
N968 C965 1.384 . S
N969 C961 1.427 . S
N969 C967 1.384 . S
H970 C976 0.930 . S
H971 C980 0.930 . S
H972 C985 0.929 . S
H973 C983 0.929 . S
H974 C978 0.929 . S
H975 C984 0.929 . S
C976 H970 0.930 . S
C976 C977 1.367 . S
C976 C984 1.378 . S
C977 C976 1.367 . S
C977 C985 1.433 . S
C978 H974 0.929 . S
C978 C980 1.378 . S
C978 C982 1.350 . S
C979 C982 1.463 . S
C979 C984 1.350 . S
C979 N987 1.427 . S
C980 H971 0.930 . S
C980 C978 1.378 . S
C980 C981 1.367 . S
C981 C980 1.367 . S
C981 C983 1.433 . S
C982 C978 1.350 . S
C982 C979 1.463 . S
C982 N986 1.427 . S
C983 H973 0.929 . S
C983 C981 1.433 . S
C983 N986 1.384 . S
C984 H975 0.929 . S
C984 C976 1.378 . S
C984 C979 1.350 . S
C985 H972 0.929 . S
C985 C977 1.433 . S
C985 N987 1.384 . S
N986 C982 1.427 . S
N986 C983 1.384 . S
N987 C979 1.427 . S
N987 C985 1.384 . S
H988 C994 0.930 1_556 S
H989 C998 0.930 . S
H990 C1003 0.929 . S
H991 C1001 0.929 . S
H992 C996 0.929 . S
H993 C1002 0.929 . S
C994 H988 0.930 1_554 S
C994 C995 1.373 . S
C994 C1002 1.378 . S
C995 C994 1.373 . S
C995 C1003 1.442 . S
C996 H992 0.929 . S
C996 C998 1.378 . S
C996 C1000 1.350 . S
C997 C1000 1.463 . S
C997 C1002 1.350 . S
C997 N1005 1.427 . S
C998 H989 0.930 . S
C998 C996 1.378 . S
C998 C999 1.367 . S
C999 C998 1.367 . S
C999 C1001 1.433 . S
C1000 C996 1.350 . S
C1000 C997 1.463 . S
C1000 N1004 1.427 . S
C1001 H991 0.929 . S
C1001 C999 1.433 . S
C1001 N1004 1.384 . S
C1002 H993 0.929 . S
C1002 C994 1.378 . S
C1002 C997 1.350 . S
C1003 H990 0.929 . S
C1003 C995 1.442 . S
C1003 N1005 1.384 . S
N1004 C1000 1.427 . S
N1004 C1001 1.384 . S
N1005 C997 1.427 . S
N1005 C1003 1.384 . S
H1006 C1012 0.930 . S
H1007 C1016 0.930 . S
H1008 C1021 0.929 . S
H1009 C1019 0.929 . S
H1010 C1014 0.929 . S
H1011 C1020 0.929 . S
C1012 H1006 0.930 . S
C1012 C1013 1.367 . S
C1012 C1020 1.378 . S
C1013 C1012 1.367 . S
C1013 C1021 1.433 . S
C1014 H1010 0.929 . S
C1014 C1016 1.378 . S
C1014 C1018 1.350 . S
C1015 C1018 1.463 . S
C1015 C1020 1.350 . S
C1015 N1023 1.427 . S
C1016 H1007 0.930 . S
C1016 C1014 1.378 . S
C1016 C1017 1.367 . S
C1017 C1016 1.367 . S
C1017 C1019 1.433 1_556 S
C1018 C1014 1.350 . S
C1018 C1015 1.463 . S
C1018 N1022 1.427 . S
C1019 H1009 0.929 . S
C1019 C1017 1.433 1_554 S
C1019 N1022 1.384 1_554 S
C1020 H1011 0.929 . S
C1020 C1012 1.378 . S
C1020 C1015 1.350 . S
C1021 H1008 0.929 . S
C1021 C1013 1.433 . S
C1021 N1023 1.384 . S
N1022 C1018 1.427 . S
N1022 C1019 1.384 1_556 S
N1023 C1015 1.427 . S
N1023 C1021 1.384 . S
H1024 C1030 0.930 . S
H1025 C1034 0.930 . S
H1026 C1039 0.929 . S
H1027 C1037 0.929 . S
H1028 C1032 0.929 . S
H1029 C1038 0.929 . S
C1030 H1024 0.930 . S
C1030 C1031 1.367 . S
C1030 C1038 1.378 . S
C1031 C1030 1.367 . S
C1031 C1039 1.433 . S
C1032 H1028 0.929 . S
C1032 C1034 1.378 . S
C1032 C1036 1.350 . S
C1033 C1036 1.463 . S
C1033 C1038 1.350 . S
C1033 N1041 1.427 . S
C1034 H1025 0.930 . S
C1034 C1032 1.378 . S
C1034 C1035 1.367 . S
C1035 C1034 1.367 . S
C1035 C1037 1.433 . S
C1036 C1032 1.350 . S
C1036 C1033 1.463 . S
C1036 N1040 1.427 . S
C1037 H1027 0.929 . S
C1037 C1035 1.433 . S
C1037 N1040 1.384 . S
C1038 H1029 0.929 . S
C1038 C1030 1.378 . S
C1038 C1033 1.350 . S
C1039 H1026 0.929 . S
C1039 C1031 1.433 . S
C1039 N1041 1.384 . S
N1040 C1036 1.427 . S
N1040 C1037 1.384 . S
N1041 C1033 1.427 . S
N1041 C1039 1.384 . S
H1042 C1048 0.930 . S
H1043 C1052 0.930 . S
H1044 C1057 0.929 . S
H1045 C1055 0.929 . S
H1046 C1050 0.929 . S
H1047 C1056 0.929 . S
C1048 H1042 0.930 . S
C1048 C1049 1.367 . S
C1048 C1056 1.378 . S
C1049 C1048 1.367 . S
C1049 C1057 1.433 . S
C1050 H1046 0.929 . S
C1050 C1052 1.378 . S
C1050 C1054 1.350 . S
C1051 C1054 1.463 1_655 S
C1051 C1056 1.350 . S
C1051 N1059 1.427 . S
C1052 H1043 0.930 . S
C1052 C1050 1.378 . S
C1052 C1053 1.367 . S
C1053 C1052 1.367 . S
C1053 C1055 1.433 . S
C1054 C1050 1.350 . S
C1054 C1051 1.463 1_455 S
C1054 N1058 1.427 . S
C1055 H1045 0.929 . S
C1055 C1053 1.433 . S
C1055 N1058 1.384 . S
C1056 H1047 0.929 . S
C1056 C1048 1.378 . S
C1056 C1051 1.350 . S
C1057 H1044 0.929 . S
C1057 C1049 1.433 . S
C1057 N1059 1.384 . S
N1058 C1054 1.427 . S
N1058 C1055 1.384 . S
N1059 C1051 1.427 . S
N1059 C1057 1.384 . S
H1060 C1066 0.930 . S
H1061 C1070 0.930 . S
H1062 C1075 0.929 . S
H1063 C1073 0.929 . S
H1064 C1068 0.929 . S
H1065 C1074 0.929 . S
C1066 H1060 0.930 . S
C1066 C1067 1.367 . S
C1066 C1074 1.378 . S
C1067 C1066 1.367 . S
C1067 C1075 1.433 . S
C1068 H1064 0.929 . S
C1068 C1070 1.378 . S
C1068 C1072 1.350 . S
C1069 C1072 1.463 . S
C1069 C1074 1.350 . S
C1069 N1077 1.427 . S
C1070 H1061 0.930 . S
C1070 C1068 1.378 . S
C1070 C1071 1.367 . S
C1071 C1070 1.367 . S
C1071 C1073 1.433 . S
C1072 C1068 1.350 . S
C1072 C1069 1.463 . S
C1072 N1076 1.427 . S
C1073 H1063 0.929 . S
C1073 C1071 1.433 . S
C1073 N1076 1.384 . S
C1074 H1065 0.929 . S
C1074 C1066 1.378 . S
C1074 C1069 1.350 . S
C1075 H1062 0.929 . S
C1075 C1067 1.433 . S
C1075 N1077 1.384 . S
N1076 C1072 1.427 . S
N1076 C1073 1.384 . S
N1077 C1069 1.427 . S
N1077 C1075 1.384 . S
H1078 C1084 0.930 . S
H1079 C1088 0.930 . S
H1080 C1093 0.929 . S
H1081 C1091 0.929 . S
H1082 C1086 0.929 . S
H1083 C1092 0.929 . S
C1084 H1078 0.930 . S
C1084 C1085 1.367 . S
C1084 C1092 1.378 . S
C1085 C1084 1.367 . S
C1085 C1093 1.433 . S
C1086 H1082 0.929 . S
C1086 C1088 1.378 . S
C1086 C1090 1.350 . S
C1087 C1090 1.463 . S
C1087 C1092 1.350 . S
C1087 N1095 1.427 . S
C1088 H1079 0.930 . S
C1088 C1086 1.378 . S
C1088 C1089 1.367 . S
C1089 C1088 1.367 . S
C1089 C1091 1.433 . S
C1090 C1086 1.350 . S
C1090 C1087 1.463 . S
C1090 N1094 1.427 . S
C1091 H1081 0.929 . S
C1091 C1089 1.433 . S
C1091 N1094 1.384 . S
C1092 H1083 0.929 . S
C1092 C1084 1.378 . S
C1092 C1087 1.350 . S
C1093 H1080 0.929 . S
C1093 C1085 1.433 . S
C1093 N1095 1.384 . S
N1094 C1090 1.427 . S
N1094 C1091 1.384 . S
N1095 C1087 1.427 . S
N1095 C1093 1.384 . S
H1096 C1102 0.930 . S
H1097 C1106 0.930 . S
H1098 C1111 0.929 . S
H1099 C1109 0.929 . S
H1100 C1104 0.929 . S
H1101 C1110 0.929 . S
C1102 H1096 0.930 . S
C1102 C1103 1.367 . S
C1102 C1110 1.378 . S
C1103 C1102 1.367 . S
C1103 C1111 1.433 . S
C1104 H1100 0.929 . S
C1104 C1106 1.378 . S
C1104 C1108 1.350 . S
C1105 C1108 1.463 . S
C1105 C1110 1.350 . S
C1105 N1113 1.427 . S
C1106 H1097 0.930 . S
C1106 C1104 1.378 . S
C1106 C1107 1.367 . S
C1107 C1106 1.367 . S
C1107 C1109 1.433 . S
C1108 C1104 1.350 . S
C1108 C1105 1.463 . S
C1108 N1112 1.427 . S
C1109 H1099 0.929 . S
C1109 C1107 1.433 . S
C1109 N1112 1.384 . S
C1110 H1101 0.929 . S
C1110 C1102 1.378 . S
C1110 C1105 1.350 . S
C1111 H1098 0.929 . S
C1111 C1103 1.433 . S
C1111 N1113 1.384 . S
N1112 C1108 1.427 . S
N1112 C1109 1.384 . S
N1113 C1105 1.427 . S
N1113 C1111 1.384 . S
H1114 C1120 0.946 . S
H1115 C1124 0.930 . S
H1116 C1129 0.929 . S
H1117 C1127 0.929 . S
H1118 C1122 0.929 . S
H1119 C1128 0.945 . S
C1120 H1114 0.946 . S
C1120 C1121 1.367 . S
C1120 C1128 1.378 . S
C1121 C1120 1.367 . S
C1121 C1129 1.433 . S
C1122 H1118 0.929 . S
C1122 C1124 1.378 . S
C1122 C1126 1.350 . S
C1123 C1126 1.463 . S
C1123 C1128 1.350 . S
C1123 N1131 1.427 . S
C1124 H1115 0.930 . S
C1124 C1122 1.378 . S
C1124 C1125 1.367 . S
C1125 C1124 1.367 . S
C1125 C1127 1.433 . S
C1126 C1122 1.350 . S
C1126 C1123 1.463 . S
C1126 N1130 1.427 . S
C1127 H1117 0.929 . S
C1127 C1125 1.433 . S
C1127 N1130 1.384 . S
C1128 H1119 0.945 . S
C1128 C1120 1.378 . S
C1128 C1123 1.350 . S
C1129 H1116 0.929 . S
C1129 C1121 1.433 . S
C1129 N1131 1.384 . S
N1130 C1126 1.427 . S
N1130 C1127 1.384 . S
N1131 C1123 1.427 . S
N1131 C1129 1.384 . S
H1132 C1138 0.930 . S
H1133 C1142 0.930 . S
H1134 C1147 0.929 . S
H1135 C1145 0.929 . S
H1136 C1140 0.929 . S
H1137 C1146 0.929 . S
C1138 H1132 0.930 . S
C1138 C1139 1.367 . S
C1138 C1146 1.378 . S
C1139 C1138 1.367 . S
C1139 C1147 1.433 . S
C1140 H1136 0.929 . S
C1140 C1142 1.378 . S
C1140 C1144 1.350 . S
C1141 C1144 1.463 . S
C1141 C1146 1.350 . S
C1141 N1149 1.427 . S
C1142 H1133 0.930 . S
C1142 C1140 1.378 . S
C1142 C1143 1.367 . S
C1143 C1142 1.367 . S
C1143 C1145 1.433 . S
C1144 C1140 1.350 . S
C1144 C1141 1.463 . S
C1144 N1148 1.427 . S
C1145 H1135 0.929 . S
C1145 C1143 1.433 . S
C1145 N1148 1.384 . S
C1146 H1137 0.929 . S
C1146 C1138 1.378 . S
C1146 C1141 1.350 . S
C1147 H1134 0.929 . S
C1147 C1139 1.433 . S
C1147 N1149 1.384 . S
N1148 C1144 1.427 . S
N1148 C1145 1.384 . S
N1149 C1141 1.427 . S
N1149 C1147 1.384 . S
H1150 C1156 0.930 . S
H1151 C1160 0.930 . S
H1152 C1165 0.929 . S
H1153 C1163 0.929 . S
H1154 C1158 0.929 . S
H1155 C1164 0.929 . S
C1156 H1150 0.930 . S
C1156 C1157 1.367 . S
C1156 C1164 1.378 . S
C1157 C1156 1.367 . S
C1157 C1165 1.433 . S
C1158 H1154 0.929 . S
C1158 C1160 1.378 . S
C1158 C1162 1.350 . S
C1159 C1162 1.463 1_655 S
C1159 C1164 1.350 . S
C1159 N1167 1.427 . S
C1160 H1151 0.930 . S
C1160 C1158 1.378 . S
C1160 C1161 1.367 . S
C1161 C1160 1.367 . S
C1161 C1163 1.433 . S
C1162 C1158 1.350 . S
C1162 C1159 1.463 1_455 S
C1162 N1166 1.427 . S
C1163 H1153 0.929 . S
C1163 C1161 1.433 . S
C1163 N1166 1.384 . S
C1164 H1155 0.929 . S
C1164 C1156 1.378 . S
C1164 C1159 1.350 . S
C1165 H1152 0.929 . S
C1165 C1157 1.433 . S
C1165 N1167 1.384 . S
N1166 C1162 1.427 . S
N1166 C1163 1.384 . S
N1167 C1159 1.427 . S
N1167 C1165 1.384 . S
H1168 C1174 0.930 . S
H1169 C1178 0.930 . S
H1170 C1183 0.929 . S
H1171 C1181 0.929 . S
H1172 C1176 0.929 . S
H1173 C1182 0.929 . S
C1174 H1168 0.930 . S
C1174 C1175 1.367 . S
C1174 C1182 1.378 . S
C1175 C1174 1.367 . S
C1175 C1183 1.433 . S
C1176 H1172 0.929 . S
C1176 C1178 1.378 . S
C1176 C1180 1.350 . S
C1177 C1180 1.463 . S
C1177 C1182 1.350 . S
C1177 N1185 1.427 . S
C1178 H1169 0.930 . S
C1178 C1176 1.378 . S
C1178 C1179 1.367 . S
C1179 C1178 1.367 . S
C1179 C1181 1.433 . S
C1180 C1176 1.350 . S
C1180 C1177 1.463 . S
C1180 N1184 1.427 . S
C1181 H1171 0.929 . S
C1181 C1179 1.433 . S
C1181 N1184 1.384 . S
C1182 H1173 0.929 . S
C1182 C1174 1.378 . S
C1182 C1177 1.350 . S
C1183 H1170 0.929 . S
C1183 C1175 1.433 . S
C1183 N1185 1.384 . S
N1184 C1180 1.427 . S
N1184 C1181 1.384 . S
N1185 C1177 1.427 . S
N1185 C1183 1.384 . S
H1186 C1192 0.930 . S
H1187 C1196 0.930 . S
H1188 C1201 0.929 . S
H1189 C1199 0.929 . S
H1190 C1194 0.929 . S
H1191 C1200 0.929 . S
C1192 H1186 0.930 . S
C1192 C1193 1.367 . S
C1192 C1200 1.378 . S
C1193 C1192 1.367 . S
C1193 C1201 1.433 . S
C1194 H1190 0.929 . S
C1194 C1196 1.378 . S
C1194 C1198 1.350 . S
C1195 C1198 1.463 . S
C1195 C1200 1.350 . S
C1195 N1203 1.427 . S
C1196 H1187 0.930 . S
C1196 C1194 1.378 . S
C1196 C1197 1.367 . S
C1197 C1196 1.367 . S
C1197 C1199 1.433 . S
C1198 C1194 1.350 . S
C1198 C1195 1.463 . S
C1198 N1202 1.427 . S
C1199 H1189 0.929 . S
C1199 C1197 1.433 . S
C1199 N1202 1.384 . S
C1200 H1191 0.929 . S
C1200 C1192 1.378 . S
C1200 C1195 1.350 . S
C1201 H1188 0.929 . S
C1201 C1193 1.433 . S
C1201 N1203 1.384 . S
N1202 C1198 1.427 . S
N1202 C1199 1.384 . S
N1203 C1195 1.427 . S
N1203 C1201 1.384 . S
H1204 C1210 0.930 . S
H1205 C1214 0.930 . S
H1206 C1219 0.929 . S
H1207 C1217 0.929 . S
H1208 C1212 0.929 . S
H1209 C1218 0.929 . S
C1210 H1204 0.930 . S
C1210 C1211 1.367 . S
C1210 C1218 1.378 . S
C1211 C1210 1.367 . S
C1211 C1219 1.433 . S
C1212 H1208 0.929 . S
C1212 C1214 1.378 . S
C1212 C1216 1.350 . S
C1213 C1216 1.463 . S
C1213 C1218 1.350 . S
C1213 N1221 1.427 . S
C1214 H1205 0.930 . S
C1214 C1212 1.378 . S
C1214 C1215 1.367 . S
C1215 C1214 1.367 . S
C1215 C1217 1.433 . S
C1216 C1212 1.350 . S
C1216 C1213 1.463 . S
C1216 N1220 1.427 . S
C1217 H1207 0.929 . S
C1217 C1215 1.433 . S
C1217 N1220 1.384 . S
C1218 H1209 0.929 . S
C1218 C1210 1.378 . S
C1218 C1213 1.350 . S
C1219 H1206 0.929 . S
C1219 C1211 1.433 . S
C1219 N1221 1.384 . S
N1220 C1216 1.427 . S
N1220 C1217 1.384 . S
N1221 C1213 1.427 . S
N1221 C1219 1.384 . S
H1222 C1228 0.930 . S
H1223 C1232 0.930 . S
H1224 C1237 0.929 . S
H1225 C1235 0.929 . S
H1226 C1230 0.929 . S
H1227 C1236 0.929 . S
C1228 H1222 0.930 . S
C1228 C1229 1.367 . S
C1228 C1236 1.378 . S
C1229 C1228 1.367 . S
C1229 C1237 1.433 . S
C1230 H1226 0.929 . S
C1230 C1232 1.378 . S
C1230 C1234 1.350 . S
C1231 C1234 1.463 . S
C1231 C1236 1.350 . S
C1231 N1239 1.427 . S
C1232 H1223 0.930 . S
C1232 C1230 1.378 . S
C1232 C1233 1.367 . S
C1233 C1232 1.367 . S
C1233 C1235 1.433 . S
C1234 C1230 1.350 . S
C1234 C1231 1.463 . S
C1234 N1238 1.427 . S
C1235 H1225 0.929 . S
C1235 C1233 1.433 . S
C1235 N1238 1.384 . S
C1236 H1227 0.929 . S
C1236 C1228 1.378 . S
C1236 C1231 1.350 . S
C1237 H1224 0.929 . S
C1237 C1229 1.433 . S
C1237 N1239 1.384 . S
N1238 C1234 1.427 . S
N1238 C1235 1.384 . S
N1239 C1231 1.427 . S
N1239 C1237 1.384 . S
H1240 C1246 0.930 . S
H1241 C1250 0.930 . S
H1242 C1255 0.929 . S
H1243 C1253 0.929 . S
H1244 C1248 0.929 . S
H1245 C1254 0.929 . S
C1246 H1240 0.930 . S
C1246 C1247 1.367 . S
C1246 C1254 1.378 . S
C1247 C1246 1.367 . S
C1247 C1255 1.433 . S
C1248 H1244 0.929 . S
C1248 C1250 1.378 . S
C1248 C1252 1.350 . S
C1249 C1252 1.463 . S
C1249 C1254 1.350 . S
C1249 N1257 1.427 . S
C1250 H1241 0.930 . S
C1250 C1248 1.378 . S
C1250 C1251 1.367 . S
C1251 C1250 1.367 . S
C1251 C1253 1.433 . S
C1252 C1248 1.350 . S
C1252 C1249 1.463 . S
C1252 N1256 1.427 . S
C1253 H1243 0.929 . S
C1253 C1251 1.433 . S
C1253 N1256 1.384 . S
C1254 H1245 0.929 . S
C1254 C1246 1.378 . S
C1254 C1249 1.350 . S
C1255 H1242 0.929 . S
C1255 C1247 1.433 . S
C1255 N1257 1.384 . S
N1256 C1252 1.427 . S
N1256 C1253 1.384 . S
N1257 C1249 1.427 . S
N1257 C1255 1.384 . S
H1258 C1264 0.930 . S
H1259 C1268 0.930 . S
H1260 C1273 0.929 . S
H1261 C1271 0.929 . S
H1262 C1266 0.929 . S
H1263 C1272 0.929 . S
C1264 H1258 0.930 . S
C1264 C1265 1.367 . S
C1264 C1272 1.378 . S
C1265 C1264 1.367 . S
C1265 C1273 1.433 . S
C1266 H1262 0.929 . S
C1266 C1268 1.378 . S
C1266 C1270 1.350 . S
C1267 C1270 1.463 1_655 S
C1267 C1272 1.350 . S
C1267 N1275 1.427 . S
C1268 H1259 0.930 . S
C1268 C1266 1.378 . S
C1268 C1269 1.367 . S
C1269 C1268 1.367 . S
C1269 C1271 1.433 . S
C1270 C1266 1.350 . S
C1270 C1267 1.463 1_455 S
C1270 N1274 1.427 . S
C1271 H1261 0.929 . S
C1271 C1269 1.433 . S
C1271 N1274 1.384 . S
C1272 H1263 0.929 . S
C1272 C1264 1.378 . S
C1272 C1267 1.350 . S
C1273 H1260 0.929 . S
C1273 C1265 1.433 . S
C1273 N1275 1.384 . S
N1274 C1270 1.427 . S
N1274 C1271 1.384 . S
N1275 C1267 1.427 . S
N1275 C1273 1.384 . S
H1276 C1282 0.930 . S
H1277 C1286 0.930 . S
H1278 C1291 0.929 . S
H1279 C1289 0.929 . S
H1280 C1284 0.929 . S
H1281 C1290 0.929 . S
C1282 H1276 0.930 . S
C1282 C1283 1.367 . S
C1282 C1290 1.378 . S
C1283 C1282 1.367 . S
C1283 C1291 1.433 . S
C1284 H1280 0.929 . S
C1284 C1286 1.378 . S
C1284 C1288 1.350 . S
C1285 C1288 1.463 1_655 S
C1285 C1290 1.350 . S
C1285 N1293 1.427 . S
C1286 H1277 0.930 . S
C1286 C1284 1.378 . S
C1286 C1287 1.367 . S
C1287 C1286 1.367 . S
C1287 C1289 1.433 . S
C1288 C1284 1.350 . S
C1288 C1285 1.463 1_455 S
C1288 N1292 1.427 . S
C1289 H1279 0.929 . S
C1289 C1287 1.433 . S
C1289 N1292 1.384 . S
C1290 H1281 0.929 . S
C1290 C1282 1.378 . S
C1290 C1285 1.350 . S
C1291 H1278 0.929 . S
C1291 C1283 1.433 . S
C1291 N1293 1.384 . S
N1292 C1288 1.427 . S
N1292 C1289 1.384 . S
N1293 C1285 1.427 . S
N1293 C1291 1.384 . S
H1294 C1300 0.930 . S
H1295 C1304 0.930 . S
H1296 C1309 0.929 . S
H1297 C1307 0.929 . S
H1298 C1302 0.929 . S
H1299 C1308 0.929 . S
C1300 H1294 0.930 . S
C1300 C1301 1.367 . S
C1300 C1308 1.378 . S
C1301 C1300 1.367 . S
C1301 C1309 1.433 . S
C1302 H1298 0.929 . S
C1302 C1304 1.378 . S
C1302 C1306 1.350 . S
C1303 C1306 1.463 . S
C1303 C1308 1.350 . S
C1303 N1311 1.427 . S
C1304 H1295 0.930 . S
C1304 C1302 1.378 . S
C1304 C1305 1.367 . S
C1305 C1304 1.367 . S
C1305 C1307 1.433 . S
C1306 C1302 1.350 . S
C1306 C1303 1.463 . S
C1306 N1310 1.427 . S
C1307 H1297 0.929 . S
C1307 C1305 1.433 . S
C1307 N1310 1.384 . S
C1308 H1299 0.929 . S
C1308 C1300 1.378 . S
C1308 C1303 1.350 . S
C1309 H1296 0.929 . S
C1309 C1301 1.433 . S
C1309 N1311 1.384 . S
N1310 C1306 1.427 . S
N1310 C1307 1.384 . S
N1311 C1303 1.427 . S
N1311 C1309 1.384 . S
H1312 C1318 0.930 . S
H1313 C1322 0.930 . S
H1314 C1327 0.929 . S
H1315 C1325 0.929 . S
H1316 C1320 0.929 . S
H1317 C1326 0.929 . S
C1318 H1312 0.930 . S
C1318 C1319 1.367 . S
C1318 C1326 1.378 . S
C1319 C1318 1.367 . S
C1319 C1327 1.433 . S
C1320 H1316 0.929 . S
C1320 C1322 1.378 . S
C1320 C1324 1.350 . S
C1321 C1324 1.463 . S
C1321 C1326 1.350 . S
C1321 N1329 1.427 . S
C1322 H1313 0.930 . S
C1322 C1320 1.378 . S
C1322 C1323 1.367 . S
C1323 C1322 1.367 . S
C1323 C1325 1.433 . S
C1324 C1320 1.350 . S
C1324 C1321 1.463 . S
C1324 N1328 1.427 . S
C1325 H1315 0.929 . S
C1325 C1323 1.433 . S
C1325 N1328 1.384 . S
C1326 H1317 0.929 . S
C1326 C1318 1.378 . S
C1326 C1321 1.350 . S
C1327 H1314 0.929 . S
C1327 C1319 1.433 . S
C1327 N1329 1.384 . S
N1328 C1324 1.427 . S
N1328 C1325 1.384 . S
N1329 C1321 1.427 . S
N1329 C1327 1.384 . S
H1330 C1336 0.930 . S
H1331 C1340 0.930 . S
H1332 C1345 0.929 . S
H1333 C1343 0.929 . S
H1334 C1338 0.929 . S
H1335 C1344 0.929 . S
C1336 H1330 0.930 . S
C1336 C1337 1.367 . S
C1336 C1344 1.378 . S
C1337 C1336 1.367 . S
C1337 C1345 1.433 . S
C1338 H1334 0.929 . S
C1338 C1340 1.378 . S
C1338 C1342 1.350 . S
C1339 C1342 1.463 . S
C1339 C1344 1.350 . S
C1339 N1347 1.427 . S
C1340 H1331 0.930 . S
C1340 C1338 1.378 . S
C1340 C1341 1.367 . S
C1341 C1340 1.367 . S
C1341 C1343 1.433 . S
C1342 C1338 1.350 . S
C1342 C1339 1.463 . S
C1342 N1346 1.427 . S
C1343 H1333 0.929 . S
C1343 C1341 1.433 . S
C1343 N1346 1.384 . S
C1344 H1335 0.929 . S
C1344 C1336 1.378 . S
C1344 C1339 1.350 . S
C1345 H1332 0.929 . S
C1345 C1337 1.433 . S
C1345 N1347 1.384 . S
N1346 C1342 1.427 . S
N1346 C1343 1.384 . S
N1347 C1339 1.427 . S
N1347 C1345 1.384 . S
H1348 C1354 0.930 . S
H1349 C1358 0.930 . S
H1350 C1363 0.926 1_554 S
H1351 C1361 0.929 . S
H1352 C1356 0.929 . S
H1353 C1362 0.929 . S
C1354 H1348 0.930 . S
C1354 C1355 1.367 . S
C1354 C1362 1.378 . S
C1355 C1354 1.367 . S
C1355 C1363 1.434 . S
C1356 H1352 0.929 . S
C1356 C1358 1.378 . S
C1356 C1360 1.350 . S
C1357 C1360 1.463 . S
C1357 C1362 1.350 . S
C1357 N1365 1.427 . S
C1358 H1349 0.930 . S
C1358 C1356 1.378 . S
C1358 C1359 1.367 . S
C1359 C1358 1.367 . S
C1359 C1361 1.433 . S
C1360 C1356 1.350 . S
C1360 C1357 1.463 . S
C1360 N1364 1.427 . S
C1361 H1351 0.929 . S
C1361 C1359 1.433 . S
C1361 N1364 1.384 . S
C1362 H1353 0.929 . S
C1362 C1354 1.378 . S
C1362 C1357 1.350 . S
C1363 H1350 0.926 1_556 S
C1363 C1355 1.434 . S
C1363 N1365 1.386 . S
N1364 C1360 1.427 . S
N1364 C1361 1.384 . S
N1365 C1357 1.427 . S
N1365 C1363 1.386 . S
H1366 C1372 0.930 . S
H1367 C1376 0.930 . S
H1368 C1381 0.929 1_556 S
H1369 C1379 0.929 . S
H1370 C1374 0.929 . S
H1371 C1380 0.929 . S
C1372 H1366 0.930 . S
C1372 C1373 1.367 . S
C1372 C1380 1.378 . S
C1373 C1372 1.367 . S
C1373 C1381 1.433 . S
C1374 H1370 0.929 . S
C1374 C1376 1.378 . S
C1374 C1378 1.350 . S
C1375 C1378 1.463 . S
C1375 C1380 1.350 . S
C1375 N1383 1.427 . S
C1376 H1367 0.930 . S
C1376 C1374 1.378 . S
C1376 C1377 1.367 . S
C1377 C1376 1.367 . S
C1377 C1379 1.433 . S
C1378 C1374 1.350 . S
C1378 C1375 1.463 . S
C1378 N1382 1.427 . S
C1379 H1369 0.929 . S
C1379 C1377 1.433 . S
C1379 N1382 1.384 . S
C1380 H1371 0.929 . S
C1380 C1372 1.378 . S
C1380 C1375 1.350 . S
C1381 H1368 0.929 1_554 S
C1381 C1373 1.433 . S
C1381 N1383 1.384 . S
N1382 C1378 1.427 . S
N1382 C1379 1.384 . S
N1383 C1375 1.427 . S
N1383 C1381 1.384 . S
H1384 C1390 0.930 . S
H1385 C1394 0.930 . S
H1386 C1399 0.929 . S
H1387 C1397 0.929 . S
H1388 C1392 0.929 . S
H1389 C1398 0.929 . S
C1390 H1384 0.930 . S
C1390 C1391 1.367 . S
C1390 C1398 1.378 . S
C1391 C1390 1.367 . S
C1391 C1399 1.433 . S
C1392 H1388 0.929 . S
C1392 C1394 1.378 . S
C1392 C1396 1.350 . S
C1393 C1396 1.463 . S
C1393 C1398 1.350 . S
C1393 N1401 1.427 . S
C1394 H1385 0.930 . S
C1394 C1392 1.378 . S
C1394 C1395 1.367 . S
C1395 C1394 1.367 . S
C1395 C1397 1.433 . S
C1396 C1392 1.350 . S
C1396 C1393 1.463 . S
C1396 N1400 1.427 . S
C1397 H1387 0.929 . S
C1397 C1395 1.433 . S
C1397 N1400 1.384 . S
C1398 H1389 0.929 . S
C1398 C1390 1.378 . S
C1398 C1393 1.350 . S
C1399 H1386 0.929 . S
C1399 C1391 1.433 . S
C1399 N1401 1.384 . S
N1400 C1396 1.427 . S
N1400 C1397 1.384 . S
N1401 C1393 1.427 . S
N1401 C1399 1.384 . S
H1402 C1408 0.930 . S
H1403 C1412 0.930 . S
H1404 C1417 0.929 . S
H1405 C1415 0.929 . S
H1406 C1410 0.929 . S
H1407 C1416 0.929 . S
C1408 H1402 0.930 . S
C1408 C1409 1.367 . S
C1408 C1416 1.378 . S
C1409 C1408 1.367 . S
C1409 C1417 1.433 . S
C1410 H1406 0.929 . S
C1410 C1412 1.378 . S
C1410 C1414 1.350 . S
C1411 C1414 1.463 . S
C1411 C1416 1.350 . S
C1411 N1419 1.427 . S
C1412 H1403 0.930 . S
C1412 C1410 1.378 . S
C1412 C1413 1.367 . S
C1413 C1412 1.367 . S
C1413 C1415 1.433 . S
C1414 C1410 1.350 . S
C1414 C1411 1.463 . S
C1414 N1418 1.427 . S
C1415 H1405 0.929 . S
C1415 C1413 1.433 . S
C1415 N1418 1.384 . S
C1416 H1407 0.929 . S
C1416 C1408 1.378 . S
C1416 C1411 1.350 . S
C1417 H1404 0.929 . S
C1417 C1409 1.433 . S
C1417 N1419 1.384 . S
N1418 C1414 1.427 . S
N1418 C1415 1.384 . S
N1419 C1411 1.427 . S
N1419 C1417 1.384 . S
H1420 C1426 0.930 . S
H1421 C1430 0.930 1_556 S
H1422 C1435 0.929 . S
H1423 C1433 0.929 . S
H1424 C1428 0.929 . S
H1425 C1434 0.929 . S
C1426 H1420 0.930 . S
C1426 C1427 1.367 . S
C1426 C1434 1.378 . S
C1427 C1426 1.367 . S
C1427 C1435 1.433 . S
C1428 H1424 0.929 . S
C1428 C1430 1.378 . S
C1428 C1432 1.350 . S
C1429 C1432 1.463 . S
C1429 C1434 1.350 . S
C1429 N1437 1.427 . S
C1430 H1421 0.930 1_554 S
C1430 C1428 1.378 . S
C1430 C1431 1.367 . S
C1431 C1430 1.367 . S
C1431 C1433 1.433 . S
C1432 C1428 1.350 . S
C1432 C1429 1.463 . S
C1432 N1436 1.427 . S
C1433 H1423 0.929 . S
C1433 C1431 1.433 . S
C1433 N1436 1.384 . S
C1434 H1425 0.929 . S
C1434 C1426 1.378 . S
C1434 C1429 1.350 . S
C1435 H1422 0.929 . S
C1435 C1427 1.433 . S
C1435 N1437 1.384 . S
N1436 C1432 1.427 . S
N1436 C1433 1.384 . S
N1437 C1429 1.427 . S
N1437 C1435 1.384 . S
H1438 C1444 0.930 . S
H1439 C1448 0.930 1_554 S
H1440 C1453 0.929 . S
H1441 C1451 0.929 . S
H1442 C1446 0.929 . S
H1443 C1452 0.929 . S
C1444 H1438 0.930 . S
C1444 C1445 1.367 . S
C1444 C1452 1.378 . S
C1445 C1444 1.367 . S
C1445 C1453 1.433 . S
C1446 H1442 0.929 . S
C1446 C1448 1.378 . S
C1446 C1450 1.350 . S
C1447 C1450 1.463 . S
C1447 C1452 1.350 . S
C1447 N1455 1.427 . S
C1448 H1439 0.930 1_556 S
C1448 C1446 1.378 . S
C1448 C1449 1.367 . S
C1449 C1448 1.367 . S
C1449 C1451 1.433 . S
C1450 C1446 1.350 . S
C1450 C1447 1.463 . S
C1450 N1454 1.427 . S
C1451 H1441 0.929 . S
C1451 C1449 1.433 . S
C1451 N1454 1.384 . S
C1452 H1443 0.929 . S
C1452 C1444 1.378 . S
C1452 C1447 1.350 . S
C1453 H1440 0.929 . S
C1453 C1445 1.433 . S
C1453 N1455 1.384 . S
N1454 C1450 1.427 . S
N1454 C1451 1.384 . S
N1455 C1447 1.427 . S
N1455 C1453 1.384 . S
H1456 C1462 0.930 . S
H1457 C1466 0.930 . S
H1458 C1471 0.929 . S
H1459 C1469 0.929 . S
H1460 C1464 0.929 . S
H1461 C1470 0.929 . S
C1462 H1456 0.930 . S
C1462 C1463 1.367 . S
C1462 C1470 1.378 . S
C1463 C1462 1.367 . S
C1463 C1471 1.433 . S
C1464 H1460 0.929 . S
C1464 C1466 1.378 . S
C1464 C1468 1.350 . S
C1465 C1468 1.463 . S
C1465 C1470 1.350 . S
C1465 N1473 1.427 . S
C1466 H1457 0.930 . S
C1466 C1464 1.378 . S
C1466 C1467 1.367 . S
C1467 C1466 1.367 . S
C1467 C1469 1.433 . S
C1468 C1464 1.350 . S
C1468 C1465 1.463 . S
C1468 N1472 1.427 . S
C1469 H1459 0.929 . S
C1469 C1467 1.433 . S
C1469 N1472 1.384 . S
C1470 H1461 0.929 . S
C1470 C1462 1.378 . S
C1470 C1465 1.350 . S
C1471 H1458 0.929 . S
C1471 C1463 1.433 . S
C1471 N1473 1.384 . S
N1472 C1468 1.427 . S
N1472 C1469 1.384 . S
N1473 C1465 1.427 . S
N1473 C1471 1.384 . S
H1474 C1480 0.930 . S
H1475 C1484 0.930 . S
H1476 C1489 0.929 . S
H1477 C1487 0.929 1_556 S
H1478 C1482 0.929 . S
H1479 C1488 0.929 . S
C1480 H1474 0.930 . S
C1480 C1481 1.367 . S
C1480 C1488 1.378 . S
C1481 C1480 1.367 . S
C1481 C1489 1.433 . S
C1482 H1478 0.929 . S
C1482 C1484 1.378 . S
C1482 C1486 1.350 . S
C1483 C1486 1.463 . S
C1483 C1488 1.350 . S
C1483 N1491 1.427 . S
C1484 H1475 0.930 . S
C1484 C1482 1.378 . S
C1484 C1485 1.367 . S
C1485 C1484 1.367 . S
C1485 C1487 1.433 . S
C1486 C1482 1.350 . S
C1486 C1483 1.463 . S
C1486 N1490 1.427 . S
C1487 H1477 0.929 1_554 S
C1487 C1485 1.433 . S
C1487 N1490 1.384 . S
C1488 H1479 0.929 . S
C1488 C1480 1.378 . S
C1488 C1483 1.350 . S
C1489 H1476 0.929 . S
C1489 C1481 1.433 . S
C1489 N1491 1.384 . S
N1490 C1486 1.427 . S
N1490 C1487 1.384 . S
N1491 C1483 1.427 . S
N1491 C1489 1.384 . S
H1492 C1498 0.930 . S
H1493 C1502 0.930 . S
H1494 C1507 0.929 . S
H1495 C1505 0.929 . S
H1496 C1500 0.929 . S
H1497 C1506 0.929 . S
C1498 H1492 0.930 . S
C1498 C1499 1.367 . S
C1498 C1506 1.378 . S
C1499 C1498 1.367 . S
C1499 C1507 1.433 . S
C1500 H1496 0.929 . S
C1500 C1502 1.378 . S
C1500 C1504 1.350 . S
C1501 C1504 1.463 . S
C1501 C1506 1.350 . S
C1501 N1509 1.427 . S
C1502 H1493 0.930 . S
C1502 C1500 1.378 . S
C1502 C1503 1.367 . S
C1503 C1502 1.367 . S
C1503 C1505 1.433 . S
C1504 C1500 1.350 . S
C1504 C1501 1.463 . S
C1504 N1508 1.427 . S
C1505 H1495 0.929 . S
C1505 C1503 1.433 . S
C1505 N1508 1.384 . S
C1506 H1497 0.929 . S
C1506 C1498 1.378 . S
C1506 C1501 1.350 . S
C1507 H1494 0.929 . S
C1507 C1499 1.433 . S
C1507 N1509 1.384 . S
N1508 C1504 1.427 . S
N1508 C1505 1.384 . S
N1509 C1501 1.427 . S
N1509 C1507 1.384 . S
H1510 C1516 0.930 . S
H1511 C1520 0.930 . S
H1512 C1525 0.929 . S
H1513 C1523 0.929 . S
H1514 C1518 0.929 . S
H1515 C1524 0.929 . S
C1516 H1510 0.930 . S
C1516 C1517 1.367 . S
C1516 C1524 1.378 . S
C1517 C1516 1.367 . S
C1517 C1525 1.433 . S
C1518 H1514 0.929 . S
C1518 C1520 1.378 . S
C1518 C1522 1.350 . S
C1519 C1522 1.463 . S
C1519 C1524 1.350 . S
C1519 N1527 1.427 . S
C1520 H1511 0.930 . S
C1520 C1518 1.378 . S
C1520 C1521 1.367 . S
C1521 C1520 1.367 . S
C1521 C1523 1.433 . S
C1522 C1518 1.350 . S
C1522 C1519 1.463 . S
C1522 N1526 1.427 . S
C1523 H1513 0.929 . S
C1523 C1521 1.433 . S
C1523 N1526 1.384 . S
C1524 H1515 0.929 . S
C1524 C1516 1.378 . S
C1524 C1519 1.350 . S
C1525 H1512 0.929 . S
C1525 C1517 1.433 . S
C1525 N1527 1.384 . S
N1526 C1522 1.427 . S
N1526 C1523 1.384 . S
N1527 C1519 1.427 . S
N1527 C1525 1.384 . S
H1528 C1534 0.930 . S
H1529 C1538 0.930 1_556 S
H1530 C1543 0.929 . S
H1531 C1541 0.929 . S
H1532 C1536 0.929 . S
H1533 C1542 0.929 . S
C1534 H1528 0.930 . S
C1534 C1535 1.367 . S
C1534 C1542 1.378 . S
C1535 C1534 1.367 . S
C1535 C1543 1.433 . S
C1536 H1532 0.929 . S
C1536 C1538 1.378 . S
C1536 C1540 1.350 . S
C1537 C1540 1.463 . S
C1537 C1542 1.350 . S
C1537 N1545 1.427 . S
C1538 H1529 0.930 1_554 S
C1538 C1536 1.378 . S
C1538 C1539 1.367 . S
C1539 C1538 1.367 . S
C1539 C1541 1.433 . S
C1540 C1536 1.350 . S
C1540 C1537 1.463 . S
C1540 N1544 1.427 . S
C1541 H1531 0.929 . S
C1541 C1539 1.433 . S
C1541 N1544 1.384 . S
C1542 H1533 0.929 . S
C1542 C1534 1.378 . S
C1542 C1537 1.350 . S
C1543 H1530 0.929 . S
C1543 C1535 1.433 . S
C1543 N1545 1.384 . S
N1544 C1540 1.427 . S
N1544 C1541 1.384 . S
N1545 C1537 1.427 . S
N1545 C1543 1.384 . S
H1546 C1552 0.930 1_554 S
H1547 C1556 0.930 . S
H1548 C1561 0.929 . S
H1549 C1559 0.929 . S
H1550 C1554 0.929 . S
H1551 C1560 0.929 . S
C1552 H1546 0.930 1_556 S
C1552 C1553 1.367 . S
C1552 C1560 1.378 . S
C1553 C1552 1.367 . S
C1553 C1561 1.433 . S
C1554 H1550 0.929 . S
C1554 C1556 1.378 . S
C1554 C1558 1.350 . S
C1555 C1558 1.463 . S
C1555 C1560 1.350 . S
C1555 N1563 1.427 . S
C1556 H1547 0.930 . S
C1556 C1554 1.378 . S
C1556 C1557 1.367 . S
C1557 C1556 1.367 . S
C1557 C1559 1.433 . S
C1558 C1554 1.350 . S
C1558 C1555 1.463 . S
C1558 N1562 1.427 . S
C1559 H1549 0.929 . S
C1559 C1557 1.433 . S
C1559 N1562 1.384 . S
C1560 H1551 0.929 . S
C1560 C1552 1.378 . S
C1560 C1555 1.350 . S
C1561 H1548 0.929 . S
C1561 C1553 1.433 . S
C1561 N1563 1.384 . S
N1562 C1558 1.427 . S
N1562 C1559 1.384 . S
N1563 C1555 1.427 . S
N1563 C1561 1.384 . S
H1564 C1570 0.930 . S
H1565 C1574 0.930 . S
H1566 C1579 0.929 . S
H1567 C1577 0.929 . S
H1568 C1572 0.929 . S
H1569 C1578 0.929 . S
C1570 H1564 0.930 . S
C1570 C1571 1.367 . S
C1570 C1578 1.378 . S
C1571 C1570 1.367 . S
C1571 C1579 1.433 . S
C1572 H1568 0.929 . S
C1572 C1574 1.378 . S
C1572 C1576 1.350 . S
C1573 C1576 1.463 . S
C1573 C1578 1.350 . S
C1573 N1581 1.427 . S
C1574 H1565 0.930 . S
C1574 C1572 1.378 . S
C1574 C1575 1.367 . S
C1575 C1574 1.367 . S
C1575 C1577 1.433 . S
C1576 C1572 1.350 . S
C1576 C1573 1.463 . S
C1576 N1580 1.427 . S
C1577 H1567 0.929 . S
C1577 C1575 1.433 . S
C1577 N1580 1.384 . S
C1578 H1569 0.929 . S
C1578 C1570 1.378 . S
C1578 C1573 1.350 . S
C1579 H1566 0.929 . S
C1579 C1571 1.433 . S
C1579 N1581 1.384 . S
N1580 C1576 1.427 . S
N1580 C1577 1.384 . S
N1581 C1573 1.427 . S
N1581 C1579 1.384 . S
H1582 C1588 0.930 . S
H1583 C1592 0.930 . S
H1584 C1597 0.929 . S
H1585 C1595 0.929 . S
H1586 C1590 0.929 . S
H1587 C1596 0.929 . S
C1588 H1582 0.930 . S
C1588 C1589 1.367 . S
C1588 C1596 1.378 . S
C1589 C1588 1.367 . S
C1589 C1597 1.433 . S
C1590 H1586 0.929 . S
C1590 C1592 1.378 . S
C1590 C1594 1.350 . S
C1591 C1594 1.463 . S
C1591 C1596 1.350 . S
C1591 N1599 1.427 . S
C1592 H1583 0.930 . S
C1592 C1590 1.378 . S
C1592 C1593 1.367 . S
C1593 C1592 1.367 . S
C1593 C1595 1.433 . S
C1594 C1590 1.350 . S
C1594 C1591 1.463 . S
C1594 N1598 1.427 . S
C1595 H1585 0.929 . S
C1595 C1593 1.433 . S
C1595 N1598 1.384 . S
C1596 H1587 0.929 . S
C1596 C1588 1.378 . S
C1596 C1591 1.350 . S
C1597 H1584 0.929 . S
C1597 C1589 1.433 . S
C1597 N1599 1.384 . S
N1598 C1594 1.427 . S
N1598 C1595 1.384 . S
N1599 C1591 1.427 . S
N1599 C1597 1.384 . S
C455 C96 1.447 . S
C459 C12 1.443 . S
C473 C26 1.443 . S
C477 C110 1.448 . S
C491 C68 1.444 . S
C495 C40 1.449 . S
C509 C54 1.445 . S
C513 C82 1.443 . S
C527 C124 1.447 . S
C531 C208 1.443 . S
C545 C222 1.443 . S
C549 C138 1.445 . S
C563 C152 1.446 . S
C567 C180 1.443 . S
C581 C194 1.449 . S
C585 C166 1.445 . S
C599 C236 1.445 . S
C603 C320 1.444 . S
C617 C250 1.443 . S
C621 C334 1.448 . S
C635 C292 1.444 . S
C639 C264 1.449 . S
C653 C306 1.444 . S
C657 C278 1.445 . S
C671 C348 1.444 . S
C675 C432 1.449 . S
C689 C362 1.445 . S
C693 C446 1.448 . S
C707 C404 1.449 . S
C711 C376 1.444 . S
C725 C390 1.448 . S
C729 C418 1.445 . S
C743 C5 1.232 1_556 S
C747 C103 1.231 . S
C761 C61 1.257 1_554 S
C765 C19 1.260 . S
C779 C75 1.259 . S
C783 C33 1.259 . S
C797 C47 1.231 . S
C801 C89 1.232 . S
C815 C117 1.237 1_554 S
C819 C215 1.235 . S
C833 C173 1.233 1_556 S
C837 C131 1.231 . S
C851 C187 1.259 . S
C855 C145 1.260 . S
C869 C201 1.241 . S
C873 C159 1.239 . S
C887 C229 1.236 . S
C891 C327 1.238 . S
C905 C243 1.246 . S
C909 C285 1.244 . S
C923 C299 1.239 . S
C927 C257 1.241 1_556 S
C941 C271 1.251 . S
C945 C313 1.242 1_554 S
C959 C341 1.237 . S
C963 C439 1.235 . S
C977 C397 1.236 . S
C981 C355 1.238 . S
C995 C369 1.239 1_554 S
C999 C411 1.248 . S
C1013 C383 1.228 . S
C1017 C425 1.229 1_556 S
C1031 C431 1.466 . S
C1035 C11 1.470 . S
C1049 C221 1.470 . S
C1053 C25 1.466 . S
C1067 C39 1.474 . S
C1071 C403 1.462 . S
C1085 C53 1.474 . S
C1089 C193 1.462 . S
C1103 C67 1.462 . S
C1107 C375 1.473 . S
C1121 C81 1.463 . S
C1125 C165 1.473 . S
C1139 C95 1.462 . S
C1143 C347 1.474 . S
C1157 C137 1.474 . S
C1161 C109 1.462 . S
C1175 C319 1.462 . S
C1179 C123 1.474 . S
C1193 C151 1.472 . S
C1197 C291 1.464 . S
C1211 C263 1.463 . S
C1215 C179 1.473 . S
C1229 C235 1.467 . S
C1233 C207 1.469 . S
C1247 C249 1.474 . S
C1251 C445 1.462 . S
C1265 C277 1.473 . S
C1269 C417 1.463 . S
C1283 C305 1.471 . S
C1287 C389 1.464 . S
C1301 C361 1.471 . S
C1305 C333 1.465 . S
C1319 C4 1.001 . S
C1323 C102 1.002 . S
C1337 C18 1.020 . S
C1341 C60 1.020 . S
C1355 C74 1.000 1_556 S
C1359 C32 1.000 . S
C1373 C46 1.001 1_554 S
C1377 C88 1.001 . S
C1391 C214 1.016 . S
C1395 C116 1.014 . S
C1409 C172 1.007 . S
C1413 C130 1.009 . S
C1427 C144 1.020 . S
C1431 C186 1.020 1_554 S
C1445 C200 1.020 . S
C1449 C158 1.020 1_556 S
C1463 C326 1.009 1_556 S
C1467 C228 1.007 . S
C1481 C284 1.002 . S
C1485 C242 1.001 1_554 S
C1499 C298 1.001 . S
C1503 C256 1.001 . S
C1517 C312 1.010 . S
C1521 C270 1.009 . S
C1535 C340 1.019 . S
C1539 C438 1.019 1_554 S
C1553 C354 1.016 1_556 S
C1557 C396 1.017 . S
C1571 C368 1.020 . S
C1575 C410 1.020 . S
C1589 C424 1.012 . S
C1593 C382 1.014 . S
