# Generated by pormake.
# Topology unu, (4)-cn, num edge types: 1
# Building blocks:
#     Node 0, Type 0, BuildingBlock: QUQFOY_clean_sbu_1, # of connection points: 4
#     Node 1, Type 0, BuildingBlock: QUQFOY_clean_sbu_1, # of connection points: 4
#     Node 2, Type 0, BuildingBlock: QUQFOY_clean_sbu_1, # of connection points: 4
#     Node 3, Type 0, BuildingBlock: QUQFOY_clean_sbu_1, # of connection points: 4
#     Node 4, Type 0, BuildingBlock: QUQFOY_clean_sbu_1, # of connection points: 4
#     Node 5, Type 0, BuildingBlock: QUQFOY_clean_sbu_1, # of connection points: 4
#     Node 6, Type 0, BuildingBlock: QUQFOY_clean_sbu_1, # of connection points: 4
#     Node 7, Type 0, BuildingBlock: QUQFOY_clean_sbu_1, # of connection points: 4
#     Node 8, Type 0, BuildingBlock: QUQFOY_clean_sbu_1, # of connection points: 4
#     Node 9, Type 0, BuildingBlock: QUQFOY_clean_sbu_1, # of connection points: 4
#     Node 10, Type 0, BuildingBlock: QUQFOY_clean_sbu_1, # of connection points: 4
#     Node 11, Type 0, BuildingBlock: QUQFOY_clean_sbu_1, # of connection points: 4
#     Node 12, Type 0, BuildingBlock: QUQFOY_clean_sbu_1, # of connection points: 4
#     Node 13, Type 0, BuildingBlock: QUQFOY_clean_sbu_1, # of connection points: 4
#     Node 14, Type 0, BuildingBlock: QUQFOY_clean_sbu_1, # of connection points: 4
#     Node 15, Type 0, BuildingBlock: QUQFOY_clean_sbu_1, # of connection points: 4
#     Node 16, Type 0, BuildingBlock: QUQFOY_clean_sbu_1, # of connection points: 4
#     Node 17, Type 0, BuildingBlock: QUQFOY_clean_sbu_1, # of connection points: 4
#     Node 18, Type 0, BuildingBlock: QUQFOY_clean_sbu_1, # of connection points: 4
#     Node 19, Type 0, BuildingBlock: QUQFOY_clean_sbu_1, # of connection points: 4
#     Node 20, Type 0, BuildingBlock: QUQFOY_clean_sbu_1, # of connection points: 4
#     Node 21, Type 0, BuildingBlock: QUQFOY_clean_sbu_1, # of connection points: 4
#     Node 22, Type 0, BuildingBlock: QUQFOY_clean_sbu_1, # of connection points: 4
#     Node 23, Type 0, BuildingBlock: QUQFOY_clean_sbu_1, # of connection points: 4
#     Node 24, Type 0, BuildingBlock: QUQFOY_clean_sbu_1, # of connection points: 4
#     Node 25, Type 0, BuildingBlock: QUQFOY_clean_sbu_1, # of connection points: 4
#     Node 26, Type 0, BuildingBlock: QUQFOY_clean_sbu_1, # of connection points: 4
#     Node 27, Type 0, BuildingBlock: QUQFOY_clean_sbu_1, # of connection points: 4
#     Node 28, Type 0, BuildingBlock: QUQFOY_clean_sbu_1, # of connection points: 4
#     Node 29, Type 0, BuildingBlock: QUQFOY_clean_sbu_1, # of connection points: 4
#     Node 30, Type 0, BuildingBlock: QUQFOY_clean_sbu_1, # of connection points: 4
#     Node 31, Type 0, BuildingBlock: QUQFOY_clean_sbu_1, # of connection points: 4
#     Node 32, Type 0, BuildingBlock: QUQFOY_clean_sbu_1, # of connection points: 4
#     Node 33, Type 0, BuildingBlock: QUQFOY_clean_sbu_1, # of connection points: 4
#     Node 34, Type 0, BuildingBlock: QUQFOY_clean_sbu_1, # of connection points: 4
#     Node 35, Type 0, BuildingBlock: QUQFOY_clean_sbu_1, # of connection points: 4
#     Edge 36, Type (0, 0), BuildingBlock: ZUJKAS_clean_linker_0, # of connection points: 2
#     Edge 37, Type (0, 0), BuildingBlock: ZUJKAS_clean_linker_0, # of connection points: 2
#     Edge 38, Type (0, 0), BuildingBlock: ZUJKAS_clean_linker_0, # of connection points: 2
#     Edge 39, Type (0, 0), BuildingBlock: ZUJKAS_clean_linker_0, # of connection points: 2
#     Edge 40, Type (0, 0), BuildingBlock: ZUJKAS_clean_linker_0, # of connection points: 2
#     Edge 41, Type (0, 0), BuildingBlock: ZUJKAS_clean_linker_0, # of connection points: 2
#     Edge 42, Type (0, 0), BuildingBlock: ZUJKAS_clean_linker_0, # of connection points: 2
#     Edge 43, Type (0, 0), BuildingBlock: ZUJKAS_clean_linker_0, # of connection points: 2
#     Edge 44, Type (0, 0), BuildingBlock: ZUJKAS_clean_linker_0, # of connection points: 2
#     Edge 45, Type (0, 0), BuildingBlock: ZUJKAS_clean_linker_0, # of connection points: 2
#     Edge 46, Type (0, 0), BuildingBlock: ZUJKAS_clean_linker_0, # of connection points: 2
#     Edge 47, Type (0, 0), BuildingBlock: ZUJKAS_clean_linker_0, # of connection points: 2
#     Edge 48, Type (0, 0), BuildingBlock: ZUJKAS_clean_linker_0, # of connection points: 2
#     Edge 49, Type (0, 0), BuildingBlock: ZUJKAS_clean_linker_0, # of connection points: 2
#     Edge 50, Type (0, 0), BuildingBlock: ZUJKAS_clean_linker_0, # of connection points: 2
#     Edge 51, Type (0, 0), BuildingBlock: ZUJKAS_clean_linker_0, # of connection points: 2
#     Edge 52, Type (0, 0), BuildingBlock: ZUJKAS_clean_linker_0, # of connection points: 2
#     Edge 53, Type (0, 0), BuildingBlock: ZUJKAS_clean_linker_0, # of connection points: 2
#     Edge 54, Type (0, 0), BuildingBlock: ZUJKAS_clean_linker_0, # of connection points: 2
#     Edge 55, Type (0, 0), BuildingBlock: ZUJKAS_clean_linker_0, # of connection points: 2
#     Edge 56, Type (0, 0), BuildingBlock: ZUJKAS_clean_linker_0, # of connection points: 2
#     Edge 57, Type (0, 0), BuildingBlock: ZUJKAS_clean_linker_0, # of connection points: 2
#     Edge 58, Type (0, 0), BuildingBlock: ZUJKAS_clean_linker_0, # of connection points: 2
#     Edge 59, Type (0, 0), BuildingBlock: ZUJKAS_clean_linker_0, # of connection points: 2
#     Edge 60, Type (0, 0), BuildingBlock: ZUJKAS_clean_linker_0, # of connection points: 2
#     Edge 61, Type (0, 0), BuildingBlock: ZUJKAS_clean_linker_0, # of connection points: 2
#     Edge 62, Type (0, 0), BuildingBlock: ZUJKAS_clean_linker_0, # of connection points: 2
#     Edge 63, Type (0, 0), BuildingBlock: ZUJKAS_clean_linker_0, # of connection points: 2
#     Edge 64, Type (0, 0), BuildingBlock: ZUJKAS_clean_linker_0, # of connection points: 2
#     Edge 65, Type (0, 0), BuildingBlock: ZUJKAS_clean_linker_0, # of connection points: 2
#     Edge 66, Type (0, 0), BuildingBlock: ZUJKAS_clean_linker_0, # of connection points: 2
#     Edge 67, Type (0, 0), BuildingBlock: ZUJKAS_clean_linker_0, # of connection points: 2
#     Edge 68, Type (0, 0), BuildingBlock: ZUJKAS_clean_linker_0, # of connection points: 2
#     Edge 69, Type (0, 0), BuildingBlock: ZUJKAS_clean_linker_0, # of connection points: 2
#     Edge 70, Type (0, 0), BuildingBlock: ZUJKAS_clean_linker_0, # of connection points: 2
#     Edge 71, Type (0, 0), BuildingBlock: ZUJKAS_clean_linker_0, # of connection points: 2
#     Edge 72, Type (0, 0), BuildingBlock: ZUJKAS_clean_linker_0, # of connection points: 2
#     Edge 73, Type (0, 0), BuildingBlock: ZUJKAS_clean_linker_0, # of connection points: 2
#     Edge 74, Type (0, 0), BuildingBlock: ZUJKAS_clean_linker_0, # of connection points: 2
#     Edge 75, Type (0, 0), BuildingBlock: ZUJKAS_clean_linker_0, # of connection points: 2
#     Edge 76, Type (0, 0), BuildingBlock: ZUJKAS_clean_linker_0, # of connection points: 2
#     Edge 77, Type (0, 0), BuildingBlock: ZUJKAS_clean_linker_0, # of connection points: 2
#     Edge 78, Type (0, 0), BuildingBlock: ZUJKAS_clean_linker_0, # of connection points: 2
#     Edge 79, Type (0, 0), BuildingBlock: ZUJKAS_clean_linker_0, # of connection points: 2
#     Edge 80, Type (0, 0), BuildingBlock: ZUJKAS_clean_linker_0, # of connection points: 2
#     Edge 81, Type (0, 0), BuildingBlock: ZUJKAS_clean_linker_0, # of connection points: 2
#     Edge 82, Type (0, 0), BuildingBlock: ZUJKAS_clean_linker_0, # of connection points: 2
#     Edge 83, Type (0, 0), BuildingBlock: ZUJKAS_clean_linker_0, # of connection points: 2
#     Edge 84, Type (0, 0), BuildingBlock: ZUJKAS_clean_linker_0, # of connection points: 2
#     Edge 85, Type (0, 0), BuildingBlock: ZUJKAS_clean_linker_0, # of connection points: 2
#     Edge 86, Type (0, 0), BuildingBlock: ZUJKAS_clean_linker_0, # of connection points: 2
#     Edge 87, Type (0, 0), BuildingBlock: ZUJKAS_clean_linker_0, # of connection points: 2
#     Edge 88, Type (0, 0), BuildingBlock: ZUJKAS_clean_linker_0, # of connection points: 2
#     Edge 89, Type (0, 0), BuildingBlock: ZUJKAS_clean_linker_0, # of connection points: 2
#     Edge 90, Type (0, 0), BuildingBlock: ZUJKAS_clean_linker_0, # of connection points: 2
#     Edge 91, Type (0, 0), BuildingBlock: ZUJKAS_clean_linker_0, # of connection points: 2
#     Edge 92, Type (0, 0), BuildingBlock: ZUJKAS_clean_linker_0, # of connection points: 2
#     Edge 93, Type (0, 0), BuildingBlock: ZUJKAS_clean_linker_0, # of connection points: 2
#     Edge 94, Type (0, 0), BuildingBlock: ZUJKAS_clean_linker_0, # of connection points: 2
#     Edge 95, Type (0, 0), BuildingBlock: ZUJKAS_clean_linker_0, # of connection points: 2
#     Edge 96, Type (0, 0), BuildingBlock: ZUJKAS_clean_linker_0, # of connection points: 2
#     Edge 97, Type (0, 0), BuildingBlock: ZUJKAS_clean_linker_0, # of connection points: 2
#     Edge 98, Type (0, 0), BuildingBlock: ZUJKAS_clean_linker_0, # of connection points: 2
#     Edge 99, Type (0, 0), BuildingBlock: ZUJKAS_clean_linker_0, # of connection points: 2
#     Edge 100, Type (0, 0), BuildingBlock: ZUJKAS_clean_linker_0, # of connection points: 2
#     Edge 101, Type (0, 0), BuildingBlock: ZUJKAS_clean_linker_0, # of connection points: 2
#     Edge 102, Type (0, 0), BuildingBlock: ZUJKAS_clean_linker_0, # of connection points: 2
#     Edge 103, Type (0, 0), BuildingBlock: ZUJKAS_clean_linker_0, # of connection points: 2
#     Edge 104, Type (0, 0), BuildingBlock: ZUJKAS_clean_linker_0, # of connection points: 2
#     Edge 105, Type (0, 0), BuildingBlock: ZUJKAS_clean_linker_0, # of connection points: 2
#     Edge 106, Type (0, 0), BuildingBlock: ZUJKAS_clean_linker_0, # of connection points: 2
#     Edge 107, Type (0, 0), BuildingBlock: ZUJKAS_clean_linker_0, # of connection points: 2
# Relax obj value: 0.088
# Max RMSD: 0.131
# Mean RMSD: 0.131
data_MOF--net-unu--node1-QUQFOY_clean_sbu_1--edge1-ZUJKAS_clean_linker_0
_symmetry_space_group_name_H-M    P1
_symmetry_Int_Tables_number       1
_symmetry_cell_setting            triclinic
loop_
_symmetry_equiv_pos_as_xyz
'x, y, z'
_cell_length_a     56.699813
_cell_length_b     56.694146
_cell_length_c     161.99501
_cell_angle_alpha  90.036779
_cell_angle_beta   89.975235
_cell_angle_gamma 119.99013
loop_
_atom_site_label
_atom_site_type_symbol
_atom_site_fract_x
_atom_site_fract_y
_atom_site_fract_z
_atom_type_partial_charge
O0 O 0.19002 0.01549 0.11842 0.0
Cd1 Cd 0.22403 0.05309 0.11657 0.0
Cd2 Cd 0.21969 0.05547 0.13328 0.0
O3 O 0.19062 0.01449 0.13204 0.0
O4 O 0.23993 0.05038 0.10581 0.0
O5 O 0.26045 0.05522 0.11781 0.0
C6 C 0.25992 0.05141 0.10992 0.0
C7 C 0.25167 0.07406 0.14398 0.0
C8 C 0.18021 1.003 0.12518 0.0
C9 C 0.20854 0.09293 0.12268 0.0
O10 O 0.20735 0.08227 0.12967 0.0
O11 O 0.21678 0.08574 0.11636 0.0
O12 O 0.22594 0.0634 0.14536 0.0
O13 O 0.25918 0.07206 0.13661 0.0
O14 O 1.00388 0.17806 0.12059 0.0
Cd15 Cd 0.96649 0.17373 0.11781 0.0
Cd16 Cd 0.96049 0.16384 0.13467 0.0
O17 O 1.00154 0.17533 0.13419 0.0
O18 O 0.97307 0.19203 0.10681 0.0
O19 O 0.96237 0.20721 0.11795 0.0
C20 C 0.96951 0.21052 0.11026 0.0
C21 C 0.94032 0.17576 0.14532 0.0
C22 C 0.01472 0.17868 0.12751 0.0
C23 C 0.92577 0.11724 0.12291 0.0
O24 O 0.93422 0.12565 0.13017 0.0
O25 O 0.93482 0.13355 0.1168 0.0
O26 O 0.95011 0.15989 0.1466 0.0
O27 O 0.94386 0.18667 0.13809 0.0
O28 O 0.84162 0.82704 0.11894 0.0
Cd29 Cd 0.84485 0.7931 0.11654 0.0
Cd30 Cd 0.85418 0.79743 0.13331 0.0
O31 O 0.84307 0.82724 0.13256 0.0
O32 O 0.82616 0.77965 0.10565 0.0
O33 O 0.81054 0.75634 0.11723 0.0
C34 C 0.80722 0.75871 0.10944 0.0
C35 C 0.84187 0.76576 0.14408 0.0
C36 C 0.84061 0.83733 0.12581 0.0
C37 C 0.90087 0.80801 0.12181 0.0
O38 O 0.89244 0.80884 0.129 0.0
O39 O 0.88464 0.8004 0.11567 0.0
O40 O 0.85774 0.79146 0.14531 0.0
O41 O 0.83108 0.75815 0.13685 0.0
O42 O 0.01875 0.18789 0.3946 0.0
Cd43 Cd 0.0566 0.22218 0.39582 0.0
Cd44 Cd 0.05534 0.21629 0.37933 0.0
O45 O 0.0142 0.18875 0.3811 0.0
O46 O 0.05581 0.23856 0.4067 0.0
O47 O 0.05801 0.25832 0.39474 0.0
C48 C 0.0557 0.25817 0.40268 0.0
C49 C 0.07418 0.24918 0.36891 0.0
C50 C 1.0044 0.17833 0.38812 0.0
C51 C 0.09402 0.20479 0.38904 0.0
O52 O 0.0811 0.20206 0.38238 0.0
O53 O 0.08945 0.21526 0.39537 0.0
O54 O 0.06222 0.22352 0.36725 0.0
O55 O 0.0733 0.2562 0.37645 0.0
O56 O 0.83059 0.83994 0.39489 0.0
Cd57 Cd 0.79606 0.84292 0.3964 0.0
Cd58 Cd 0.80223 0.84948 0.37988 0.0
O59 O 0.83041 0.83653 0.38132 0.0
O60 O 0.78114 0.82533 0.40733 0.0
O61 O 0.7598 0.80814 0.39554 0.0
C62 C 0.76105 0.80572 0.40344 0.0
C63 C 0.76978 0.8359 0.36932 0.0
C64 C 0.84062 0.83634 0.38831 0.0
C65 C 0.81277 0.89827 0.39026 0.0
O66 O 0.81557 0.88892 0.38343 0.0
O67 O 0.80256 0.88252 0.39645 0.0
O68 O 0.79548 0.85045 0.36781 0.0
O69 O 0.76253 0.82706 0.37677 0.0
O70 O 0.18007 1.00002 0.39273 0.0
Cd71 Cd 0.17645 0.96258 0.395 0.0
Cd72 Cd 0.16791 0.95922 0.37829 0.0
O73 O 0.18024 1.00038 0.37912 0.0
O74 O 0.19462 0.9682 0.40598 0.0
O75 O 0.21037 0.95926 0.39463 0.0
C76 C 0.21346 0.96555 0.40238 0.0
C77 C 0.18043 0.93935 0.36772 0.0
C78 C 0.1821 0.01224 0.38597 0.0
C79 C 0.12041 0.92285 0.38951 0.0
O80 O 0.12917 0.93316 0.38243 0.0
O81 O 0.13659 0.93014 0.39566 0.0
O82 O 0.16514 0.94973 0.36631 0.0
O83 O 0.1905 0.94218 0.37506 0.0
O84 O 0.8288 0.99382 0.89551 0.0
Cd85 Cd 0.79407 0.95664 0.89732 0.0
Cd86 Cd 0.79856 0.9546 0.8808 0.0
O87 O 0.82648 0.99589 0.88196 0.0
O88 O 0.7787 0.9596 0.90814 0.0
O89 O 0.75823 0.95583 0.8962 0.0
C90 C 0.75898 0.95939 0.9041 0.0
C91 C 0.76597 0.93481 0.87031 0.0
C92 C 0.83781 0.00688 0.88879 0.0
C93 C 0.80998 0.91728 0.8913 0.0
O94 O 0.81245 0.929 0.88441 0.0
O95 O 0.80008 0.92323 0.89749 0.0
O96 O 0.79166 0.9462 0.86877 0.0
O97 O 0.75876 0.93668 0.87774 0.0
O98 O 0.01603 0.83478 0.89588 0.0
Cd99 Cd 0.05418 0.83902 0.8969 0.0
Cd100 Cd 0.05192 0.84225 0.88065 0.0
O101 O 0.01045 0.82669 0.88251 0.0
O102 O 0.05452 0.8225 0.90782 0.0
O103 O 0.05582 0.80446 0.89584 0.0
C104 C 0.05414 0.80265 0.9038 0.0
C105 C 0.07324 0.82689 0.87157 0.0
C106 C 1.00104 0.82834 0.88949 0.0
C107 C 0.08965 0.89369 0.88966 0.0
O108 O 0.07582 0.88298 0.88316 0.0
O109 O 0.0866 0.87893 0.89596 0.0
O110 O 0.05942 0.83771 0.86885 0.0
O111 O 0.07293 0.8226 0.87942 0.0
O112 O 0.17693 0.18483 0.8939 0.0
Cd113 Cd 0.17346 0.21895 0.89568 0.0
Cd114 Cd 0.16711 0.21445 0.87907 0.0
O115 O 0.17955 0.18576 0.8803 0.0
O116 O 0.19222 0.23513 0.90639 0.0
O117 O 0.20776 0.25524 0.89433 0.0
C118 C 0.21116 0.25494 0.90222 0.0
C119 C 0.18064 0.24697 0.86853 0.0
C120 C 0.18016 0.1752 0.88718 0.0
C121 C 0.1182 0.203 0.88959 0.0
O122 O 0.12778 0.2015 0.88264 0.0
O123 O 0.13365 0.21181 0.8959 0.0
O124 O 0.16586 0.22129 0.86702 0.0
O125 O 0.18976 0.25415 0.87596 0.0
O126 O 1.00155 0.82809 0.61709 0.0
Cd127 Cd 0.96437 0.79319 0.61553 0.0
Cd128 Cd 0.9635 0.79768 0.63206 0.0
O129 O 1.00455 0.82608 0.63062 0.0
O130 O 0.96655 0.77715 0.60474 0.0
O131 O 0.96351 0.75736 0.61676 0.0
C132 C 0.96647 0.75759 0.60884 0.0
C133 C 0.94541 0.76554 0.64273 0.0
C134 C 0.01501 0.83734 0.62374 0.0
C135 C 0.92502 0.80854 0.62191 0.0
O136 O 0.93701 0.81083 0.62873 0.0
O137 O 0.93093 0.79909 0.6156 0.0
O138 O 0.95633 0.79127 0.64416 0.0
O139 O 0.94672 0.75809 0.63528 0.0
O140 O 0.18835 0.17523 0.61821 0.0
Cd141 Cd 0.2231 0.17296 0.61633 0.0
Cd142 Cd 0.21957 0.16732 0.63292 0.0
O143 O 0.19044 0.17919 0.63178 0.0
O144 O 0.23843 0.19195 0.6056 0.0
O145 O 0.25923 0.20756 0.61758 0.0
C146 C 0.25838 0.21099 0.60971 0.0
C147 C 0.25175 0.18119 0.64359 0.0
C148 C 0.17907 0.1788 0.62495 0.0
C149 C 0.20873 0.11836 0.62245 0.0
O150 O 0.20722 0.12803 0.62938 0.0
O151 O 0.21708 0.13361 0.6161 0.0
O152 O 0.22607 0.16596 0.64499 0.0
O153 O 0.25911 0.1905 0.63619 0.0
O154 O 0.8398 0.01391 0.61795 0.0
Cd155 Cd 0.84284 0.05147 0.61657 0.0
Cd156 Cd 0.84785 0.05129 0.63312 0.0
O157 O 0.83563 0.01035 0.6315 0.0
O158 O 0.82492 0.04999 0.60578 0.0
O159 O 0.80805 0.05265 0.61783 0.0
C160 C 0.80542 0.04998 0.6099 0.0
C161 C 0.83337 0.06949 0.64364 0.0
C162 C 0.83591 1.00015 0.62451 0.0
C163 C 0.89748 0.09027 0.62318 0.0
O164 O 0.88746 0.07805 0.62994 0.0
O165 O 0.88246 0.08456 0.61679 0.0
O166 O 0.8479 0.05837 0.64521 0.0
O167 O 0.8249 0.06807 0.63615 0.0
O168 O 0.8569 0.35047 0.45167 0.0
Cd169 Cd 0.89142 0.38823 0.4507 0.0
Cd170 Cd 0.88467 0.38594 0.46707 0.0
O171 O 0.85725 0.34485 0.46513 0.0
O172 O 0.90871 0.38763 0.43997 0.0
O173 O 0.92729 0.38936 0.45212 0.0
C174 C 0.92782 0.38719 0.44418 0.0
C175 C 0.91774 0.40496 0.47744 0.0
C176 C 0.84702 0.33564 0.45804 0.0
C177 C 0.87335 0.42494 0.45749 0.0
O178 O 0.87012 0.41144 0.46406 0.0
O179 O 0.88461 0.42115 0.45122 0.0
O180 O 0.8921 0.39276 0.47915 0.0
O181 O 0.92462 0.40415 0.46988 0.0
O182 O 0.66784 0.511 0.45295 0.0
Cd183 Cd 0.63088 0.50798 0.45032 0.0
Cd184 Cd 0.62501 0.49647 0.4674 0.0
O185 O 0.66579 0.50712 0.46654 0.0
O186 O 0.6371 0.52721 0.4395 0.0
O187 O 0.6281 0.54214 0.451 0.0
C188 C 0.63443 0.54581 0.44325 0.0
C189 C 0.60604 0.50478 0.47916 0.0
C190 C 0.67873 0.51079 0.45979 0.0
C191 C 0.58895 0.45181 0.45503 0.0
O192 O 0.59758 0.4596 0.46231 0.0
O193 O 0.59849 0.46841 0.44901 0.0
O194 O 0.61444 0.48748 0.47924 0.0
O195 O 0.61043 0.51926 0.47258 0.0
O196 O 0.50742 0.16296 0.45199 0.0
Cd197 Cd 0.51107 0.12915 0.44969 0.0
Cd198 Cd 0.51979 0.13428 0.46648 0.0
O199 O 0.50809 0.16356 0.46561 0.0
O200 O 0.4929 0.1167 0.4387 0.0
O201 O 0.4771 0.09196 0.45003 0.0
C202 C 0.47402 0.09523 0.44229 0.0
C203 C 0.50711 0.10248 0.47721 0.0
C204 C 0.50584 0.17335 0.45877 0.0
C205 C 0.56703 0.14482 0.45519 0.0
O206 O 0.55831 0.14619 0.46229 0.0
O207 O 0.55092 0.13645 0.44902 0.0
O208 O 0.52281 0.12817 0.47849 0.0
O209 O 0.49678 0.09491 0.46992 0.0
O210 O 0.68385 0.52082 0.72614 0.0
Cd211 Cd 0.72083 0.5526 0.72988 0.0
Cd212 Cd 0.73286 0.55048 0.71306 0.0
O213 O 0.69244 0.51924 0.71289 0.0
O214 O 0.71253 0.56323 0.74083 0.0
O215 O 0.72585 0.59058 0.73002 0.0
C216 C 0.71741 0.58599 0.73758 0.0
C217 C 0.75317 0.58106 0.70204 0.0
C218 C 0.67635 0.51008 0.71904 0.0
C219 C 0.76393 0.53814 0.72601 0.0
O220 O 0.75951 0.54067 0.71847 0.0
O221 O 0.75104 0.54236 0.73173 0.0
O222 O 0.745 0.55551 0.70128 0.0
O223 O 0.74819 0.58915 0.70895 0.0
O224 O 0.49714 0.16964 0.72749 0.0
Cd225 Cd 0.46418 0.17417 0.73013 0.0
Cd226 Cd 0.46818 0.18452 0.71327 0.0
O227 O 0.49809 0.17346 0.71391 0.0
O228 O 0.45124 0.15591 0.74109 0.0
O229 O 0.42678 0.14057 0.7297 0.0
C230 C 0.42967 0.13732 0.73746 0.0
C231 C 0.43693 0.17247 0.70239 0.0
C232 C 0.50763 0.16957 0.72057 0.0
C233 C 0.47961 0.2307 0.72509 0.0
O234 O 0.47922 0.22253 0.71777 0.0
O235 O 0.47315 0.21443 0.73118 0.0
O236 O 0.46262 0.18868 0.70129 0.0
O237 O 0.42908 0.16133 0.70957 0.0
O238 O 0.84709 0.33136 0.72616 0.0
Cd239 Cd 0.84283 0.29393 0.72891 0.0
Cd240 Cd 0.83206 0.28702 0.71207 0.0
O241 O 0.842 0.3276 0.7126 0.0
O242 O 0.86116 0.29972 0.73988 0.0
O243 O 0.87661 0.2904 0.72854 0.0
C244 C 0.87981 0.29671 0.73629 0.0
C245 C 0.8443 0.26759 0.70129 0.0
C246 C 0.84634 0.34135 0.71921 0.0
C247 C 0.78628 0.25207 0.72394 0.0
O248 O 0.79436 0.25998 0.71662 0.0
O249 O 0.80272 0.26201 0.73 0.0
O250 O 0.82787 0.27677 0.70013 0.0
O251 O 0.85562 0.27141 0.70846 0.0
O252 O 0.4979 0.33037 0.22788 0.0
Cd253 Cd 0.46365 0.2931 0.23001 0.0
Cd254 Cd 0.46763 0.29 0.21335 0.0
O255 O 0.49596 0.33127 0.21429 0.0
O256 O 0.4497 0.29728 0.24095 0.0
O257 O 0.4271 0.29108 0.22929 0.0
C258 C 0.42905 0.29587 0.23714 0.0
C259 C 0.43541 0.27022 0.20275 0.0
C260 C 0.50707 0.34284 0.22108 0.0
C261 C 0.4794 0.25337 0.22417 0.0
O262 O 0.48103 0.26419 0.21718 0.0
O263 O 0.47036 0.26017 0.2304 0.0
O264 O 0.46114 0.28117 0.20133 0.0
O265 O 0.42797 0.27246 0.21011 0.0
O266 O 0.6864 0.17021 0.22866 0.0
Cd267 Cd 0.72393 0.17307 0.22993 0.0
Cd268 Cd 0.72373 0.17935 0.21349 0.0
O269 O 0.68264 0.16634 0.21511 0.0
O270 O 0.72225 0.15441 0.24059 0.0
O271 O 0.72497 0.1383 0.22841 0.0
C272 C 0.72215 0.13512 0.23632 0.0
C273 C 0.74252 0.1655 0.20297 0.0
C274 C 0.67251 0.1664 0.22213 0.0
C275 C 0.76225 0.22836 0.22369 0.0
O276 O 0.74979 0.21891 0.21692 0.0
O277 O 0.75707 0.21267 0.22989 0.0
O278 O 0.73121 0.17989 0.20141 0.0
O279 O 0.74107 0.15693 0.21045 0.0
O280 O 0.84579 0.51843 0.22834 0.0
Cd281 Cd 0.84255 0.55283 0.2297 0.0
Cd282 Cd 0.83784 0.54772 0.21314 0.0
O283 O 0.85047 0.51931 0.2148 0.0
O284 O 0.86028 0.56932 0.24051 0.0
O285 O 0.87732 0.58881 0.22846 0.0
C286 C 0.87984 0.58878 0.2364 0.0
C287 C 0.85219 0.58035 0.20262 0.0
C288 C 0.85003 0.50876 0.22179 0.0
C289 C 0.78796 0.53671 0.22303 0.0
O290 O 0.79811 0.53459 0.21627 0.0
O291 O 0.80287 0.5461 0.22943 0.0
O292 O 0.83784 0.55466 0.20104 0.0
O293 O 0.86055 0.58747 0.21011 0.0
O294 O 0.66517 0.16031 0.95215 0.0
Cd295 Cd 0.62767 0.12581 0.95064 0.0
Cd296 Cd 0.62649 0.1321 0.96713 0.0
O297 O 0.66771 0.16021 0.96574 0.0
O298 O 0.63006 0.10919 0.93998 0.0
O299 O 0.62622 0.08979 0.95213 0.0
C300 C 0.62962 0.08972 0.94423 0.0
C301 C 0.60702 0.09969 0.97768 0.0
C302 C 0.67848 0.17036 0.95878 0.0
C303 C 0.5888 0.14268 0.95652 0.0
O304 O 0.60057 0.14546 0.96341 0.0
O305 O 0.59467 0.13247 0.95039 0.0
O306 O 0.61829 0.12542 0.97918 0.0
O307 O 0.60888 0.09239 0.97025 0.0
O308 O 0.85281 0.50944 0.95126 0.0
Cd309 Cd 0.88735 0.50624 0.95018 0.0
Cd310 Cd 0.88057 0.50053 0.96655 0.0
O311 O 0.8527 0.51371 0.96479 0.0
O312 O 0.90512 0.52511 0.93962 0.0
O313 O 0.9232 0.54073 0.95191 0.0
C314 C 0.92411 0.54417 0.944 0.0
C315 C 0.91323 0.51481 0.97705 0.0
C316 C 0.8427 0.51355 0.95773 0.0
C317 C 0.87001 0.45108 0.95657 0.0
O318 O 0.86693 0.46079 0.96329 0.0
O319 O 0.8807 0.46657 0.95035 0.0
O320 O 0.88756 0.50051 0.97864 0.0
O321 O 0.92032 0.52302 0.96954 0.0
O322 O 0.50549 0.34965 0.95075 0.0
Cd323 Cd 0.50793 0.38693 0.94926 0.0
Cd324 Cd 0.51502 0.38796 0.9658 0.0
O325 O 0.5026 0.34694 0.96434 0.0
O326 O 0.4897 0.3846 0.93847 0.0
O327 O 0.47286 0.38764 0.95048 0.0
C328 C 0.47014 0.38456 0.94256 0.0
C329 C 0.50168 0.40663 0.97649 0.0
C330 C 0.50229 0.33633 0.95737 0.0
C331 C 0.56325 0.42643 0.9553 0.0
O332 O 0.55424 0.41452 0.96217 0.0
O333 O 0.54732 0.42036 0.94912 0.0
O334 O 0.51649 0.39568 0.97788 0.0
O335 O 0.49239 0.40486 0.96909 0.0
O336 O 0.52066 0.67982 0.78682 0.0
Cd337 Cd 0.55464 0.71788 0.78561 0.0
Cd338 Cd 0.54826 0.71615 0.80204 0.0
O339 O 0.52127 0.6749 0.80031 0.0
O340 O 0.57033 0.7167 0.77466 0.0
O341 O 0.59116 0.71998 0.78649 0.0
C342 C 0.59034 0.71705 0.77856 0.0
C343 C 0.58138 0.73567 0.81237 0.0
C344 C 0.51108 0.66524 0.79325 0.0
C345 C 0.53597 0.75425 0.79232 0.0
O346 O 0.5332 0.74116 0.79895 0.0
O347 O 0.54712 0.75033 0.78604 0.0
O348 O 0.55575 0.72337 0.8141 0.0
O349 O 0.58827 0.73478 0.80482 0.0
O350 O 0.33116 0.84136 0.78694 0.0
Cd351 Cd 0.29447 0.83869 0.78414 0.0
Cd352 Cd 0.28759 0.82662 0.80115 0.0
O353 O 0.32836 0.83712 0.80053 0.0
O354 O 0.30141 0.85817 0.77333 0.0
O355 O 0.29202 0.87305 0.78477 0.0
C356 C 0.29876 0.87682 0.77705 0.0
C357 C 0.26808 0.83491 0.81279 0.0
C358 C 0.34165 0.8409 0.79384 0.0
C359 C 0.25219 0.78238 0.78859 0.0
O360 O 0.26045 0.78989 0.79592 0.0
O361 O 0.26202 0.79924 0.78264 0.0
O362 O 0.27627 0.81744 0.81294 0.0
O363 O 0.27293 0.8495 0.80621 0.0
O364 O 0.17401 0.49392 0.78493 0.0
Cd365 Cd 0.17665 0.4592 0.78344 0.0
Cd366 Cd 0.18336 0.46551 0.80002 0.0
O367 O 0.17112 0.49424 0.7985 0.0
O368 O 0.15874 0.44411 0.77256 0.0
O369 O 0.14175 0.42311 0.78441 0.0
C370 C 0.13914 0.42419 0.77651 0.0
C371 C 0.16953 0.43324 0.81062 0.0
C372 C 0.17079 0.50427 0.7915 0.0
C373 C 0.23177 0.47496 0.78962 0.0
O374 O 0.22258 0.4779 0.79645 0.0
O375 O 0.21606 0.46522 0.78339 0.0
O376 O 0.18438 0.45894 0.81209 0.0
O377 O 0.16046 0.42593 0.80319 0.0
O378 O 0.35472 0.85335 0.06126 0.0
Cd379 Cd 0.39219 0.88832 0.06211 0.0
Cd380 Cd 0.38951 0.88128 0.04574 0.0
O381 O 0.34862 0.85342 0.04781 0.0
O382 O 0.39186 0.9053 0.07292 0.0
O383 O 0.39226 0.92376 0.06087 0.0
C384 C 0.39062 0.92417 0.06882 0.0
C385 C 0.40784 0.91422 0.03532 0.0
C386 C 0.33975 0.8432 0.05492 0.0
C387 C 0.42936 0.87097 0.05518 0.0
O388 O 0.41554 0.86732 0.04866 0.0
O389 O 0.42556 0.88224 0.06146 0.0
O390 O 0.39584 0.88856 0.03364 0.0
O391 O 0.40719 0.92117 0.04289 0.0
O392 O 0.16493 0.502 0.05862 0.0
Cd393 Cd 0.13277 0.50666 0.06243 0.0
Cd394 Cd 0.13481 0.52001 0.04559 0.0
O395 O 0.1656 0.51029 0.04526 0.0
O396 O 0.12276 0.48729 0.0733 0.0
O397 O 0.09482 0.47365 0.06262 0.0
C398 C 0.09987 0.46952 0.07009 0.0
C399 C 0.10326 0.50956 0.03485 0.0
C400 C 0.17521 0.50426 0.0515 0.0
C401 C 0.14701 0.56393 0.05844 0.0
O402 O 0.14538 0.55672 0.05094 0.0
O403 O 0.14185 0.54684 0.06424 0.0
O404 O 0.12879 0.52664 0.03385 0.0
O405 O 0.09573 0.49683 0.04182 0.0
O406 O 0.51482 0.66619 0.05988 0.0
Cd407 Cd 0.51025 0.6286 0.06238 0.0
Cd408 Cd 0.5005 0.6232 0.04553 0.0
O409 O 0.51263 0.66446 0.04626 0.0
O410 O 0.52841 0.63354 0.07334 0.0
O411 O 0.54388 0.62485 0.0619 0.0
C412 C 0.54705 0.6307 0.06968 0.0
C413 C 0.51241 0.60341 0.03478 0.0
C414 C 0.51587 0.67741 0.05299 0.0
C415 C 0.45381 0.58817 0.05715 0.0
O416 O 0.46213 0.59664 0.04989 0.0
O417 O 0.47002 0.59721 0.06328 0.0
O418 O 0.4968 0.61354 0.03355 0.0
O419 O 0.52315 0.60647 0.04202 0.0
O420 O 0.16401 0.66016 0.56098 0.0
Cd421 Cd 0.12914 0.62279 0.56224 0.0
Cd422 Cd 0.13607 0.62276 0.54583 0.0
O423 O 0.16413 0.6639 0.54742 0.0
O424 O 0.11235 0.62493 0.57289 0.0
O425 O 0.09347 0.62201 0.56072 0.0
C426 C 0.09321 0.62508 0.56862 0.0
C427 C 0.10351 0.60359 0.53532 0.0
C428 C 0.17422 0.67402 0.55445 0.0
C429 C 0.14586 0.58409 0.55618 0.0
O430 O 0.14937 0.59666 0.5494 0.0
O431 O 0.13511 0.58935 0.5623 0.0
O432 O 0.1292 0.61496 0.53376 0.0
O433 O 0.09633 0.60526 0.54278 0.0
O434 O 0.35119 0.50182 0.56177 0.0
Cd435 Cd 0.38953 0.50694 0.56322 0.0
Cd436 Cd 0.38841 0.50921 0.54684 0.0
O437 O 0.34682 0.49393 0.54837 0.0
O438 O 0.38881 0.49085 0.57428 0.0
O439 O 0.39246 0.473 0.56254 0.0
C440 C 0.38957 0.47122 0.57048 0.0
C441 C 0.40984 0.49366 0.53787 0.0
C442 C 0.33675 0.49534 0.55527 0.0
C443 C 0.42537 0.56125 0.55585 0.0
O444 O 0.41253 0.54999 0.54925 0.0
O445 O 0.4214 0.54709 0.56235 0.0
O446 O 0.39625 0.50462 0.53509 0.0
O447 O 0.40923 0.48929 0.54572 0.0
O448 O 0.51152 0.85233 0.56067 0.0
Cd449 Cd 0.50867 0.88668 0.56278 0.0
Cd450 Cd 0.50199 0.88331 0.54619 0.0
O451 O 0.5146 0.85473 0.54708 0.0
O452 O 0.52771 0.90196 0.57353 0.0
O453 O 0.54318 0.9229 0.56157 0.0
C454 C 0.54668 0.92199 0.56943 0.0
C455 C 0.51505 0.91579 0.53563 0.0
C456 C 0.51487 0.84335 0.55384 0.0
C457 C 0.45333 0.87122 0.55692 0.0
O458 O 0.46269 0.86993 0.54992 0.0
O459 O 0.46904 0.88 0.56318 0.0
O460 O 0.50009 0.89011 0.53416 0.0
O461 O 0.52448 0.92302 0.54303 0.0
O462 O 0.33279 0.49424 0.2858 0.0
Cd463 Cd 0.29537 0.45996 0.28397 0.0
Cd464 Cd 0.29344 0.46592 0.30058 0.0
O465 O 0.33466 0.49427 0.2994 0.0
O466 O 0.29912 0.44546 0.27308 0.0
O467 O 0.29342 0.42345 0.28483 0.0
C468 C 0.29799 0.42506 0.27697 0.0
C469 C 0.27381 0.43377 0.31119 0.0
C470 C 0.34575 0.50436 0.29247 0.0
C471 C 0.25619 0.47661 0.28972 0.0
O472 O 0.26744 0.47897 0.29669 0.0
O473 O 0.26256 0.46688 0.28357 0.0
O474 O 0.28482 0.45951 0.31262 0.0
O475 O 0.276 0.42631 0.30382 0.0
O476 O 0.5218 0.84271 0.28573 0.0
Cd477 Cd 0.55605 0.83942 0.28393 0.0
Cd478 Cd 0.55147 0.8328 0.30057 0.0
O479 O 0.52277 0.84517 0.29934 0.0
O480 O 0.57133 0.85728 0.27304 0.0
O481 O 0.59229 0.87412 0.28491 0.0
C482 C 0.59136 0.87671 0.27701 0.0
C483 C 0.58385 0.84628 0.31115 0.0
C484 C 0.51217 0.84583 0.29248 0.0
C485 C 0.54026 0.78409 0.29005 0.0
O486 O 0.53848 0.79349 0.29699 0.0
O487 O 0.54928 0.7997 0.28378 0.0
O488 O 0.55816 0.83148 0.31263 0.0
O489 O 0.59113 0.85543 0.30373 0.0
O490 O 0.17436 0.68466 0.28432 0.0
Cd491 Cd 0.17733 0.72209 0.28279 0.0
Cd492 Cd 0.18393 0.72325 0.29935 0.0
O493 O 0.17168 0.6822 0.29791 0.0
O494 O 0.15831 0.71972 0.27214 0.0
O495 O 0.1428 0.72357 0.2843 0.0
C496 C 0.13929 0.72015 0.27641 0.0
C497 C 0.17016 0.74178 0.30997 0.0
C498 C 0.17121 0.67145 0.29096 0.0
C499 C 0.23256 0.7614 0.28887 0.0
O500 O 0.22318 0.74999 0.29578 0.0
O501 O 0.217 0.75498 0.28259 0.0
O502 O 0.18508 0.73099 0.31143 0.0
O503 O 0.16103 0.73994 0.30255 0.0
H504 H 0.24141 0.08123 0.15999 0.0
H505 H 0.27304 0.11457 0.16989 0.0
H506 H 0.33884 0.13879 0.15253 0.0
H507 H 0.3072 0.10564 0.14252 0.0
H508 H 0.32123 0.1229 0.17723 0.0
H509 H 0.33987 0.21036 0.15735 0.0
H510 H 0.31254 0.17614 0.15542 0.0
H511 H 0.34685 0.18597 0.15252 0.0
C512 C 0.26268 0.09336 0.1583 0.0
C513 C 0.27172 0.09087 0.15043 0.0
C514 C 0.28074 0.11247 0.16397 0.0
C515 C 0.30818 0.12962 0.16189 0.0
C516 C 0.31761 0.1262 0.1542 0.0
H517 H 0.44554 0.26263 0.18677 0.0
H518 H 0.41389 0.22903 0.17694 0.0
C519 C 0.29954 0.10704 0.14852 0.0
C520 C 0.32658 0.15152 0.16768 0.0
H521 H 0.36573 0.22066 0.16964 0.0
C522 C 0.33091 0.14428 0.17558 0.0
C523 C 0.33911 0.17944 0.16553 0.0
C524 C 0.33424 0.18857 0.15728 0.0
C525 C 0.34785 0.16413 0.18134 0.0
C526 C 0.36039 0.19205 0.1792 0.0
C527 C 0.35605 0.19929 0.17129 0.0
C528 C 0.37884 0.21396 0.18497 0.0
C529 C 0.35272 0.15501 0.1896 0.0
C530 C 0.36947 0.21743 0.19266 0.0
C531 C 0.38755 0.23674 0.19832 0.0
C532 C 0.41533 0.25301 0.19636 0.0
C533 C 0.42431 0.25042 0.18849 0.0
C534 C 0.40624 0.23116 0.18286 0.0
H535 H 0.34708 0.13321 0.18952 0.0
H536 H 0.37441 0.16743 0.19145 0.0
H537 H 0.34011 0.15761 0.19435 0.0
H538 H 0.34827 0.20481 0.19436 0.0
H539 H 0.37994 0.23822 0.20431 0.0
H540 H 0.74979 0.1822 0.18689 0.0
H541 H 0.78292 0.18317 0.17708 0.0
H542 H 0.80724 0.14259 0.19476 0.0
H543 H 0.77432 0.1419 0.20471 0.0
H544 H 0.85083 0.18894 0.1883 0.0
H545 H 0.7839 0.12458 0.16296 0.0
H546 H 0.77764 0.15146 0.16593 0.0
H547 H 0.77113 0.12478 0.17315 0.0
C548 C 0.76176 0.17295 0.18865 0.0
C549 C 0.75931 0.16191 0.1966 0.0
C550 C 0.78068 0.17346 0.18301 0.0
C551 C 0.79745 0.16274 0.18514 0.0
C552 C 0.79447 0.15091 0.19297 0.0
H553 H 0.93145 0.15691 0.16117 0.0
H554 H 0.89805 0.15557 0.17096 0.0
C555 C 0.77552 0.15039 0.19863 0.0
C556 C 0.81935 0.16568 0.17942 0.0
H557 H 0.83123 0.15115 0.1599 0.0
C558 C 0.84652 0.1805 0.18211 0.0
C559 C 0.81378 0.15486 0.17132 0.0
C560 C 0.78502 0.13781 0.16818 0.0
C561 C 0.86825 0.18515 0.17688 0.0
C562 C 0.86267 0.17438 0.16878 0.0
C563 C 0.83551 0.15957 0.16609 0.0
C564 C 0.8846 0.17736 0.16309 0.0
C565 C 0.89702 0.20204 0.18003 0.0
C566 C 0.88826 0.1901 0.15538 0.0
C567 C 0.90743 0.19093 0.14974 0.0
C568 C 0.9231 0.17874 0.15168 0.0
C569 C 0.91987 0.16665 0.15949 0.0
C570 C 0.9008 0.16593 0.16512 0.0
H571 H 0.89817 0.21488 0.18537 0.0
H572 H 0.9045 0.18828 0.1821 0.0
H573 H 0.91082 0.21543 0.1751 0.0
H574 H 0.8759 0.19898 0.15366 0.0
H575 H 0.90923 0.20021 0.14376 0.0
H576 H 0.87603 0.63582 0.20432 0.0
H577 H 0.87504 0.66793 0.19439 0.0
H578 H 0.83432 0.60293 0.17673 0.0
H579 H 0.83563 0.57087 0.18652 0.0
H580 H 0.87367 0.65073 0.16954 0.0
H581 H 0.80553 0.6701 0.18951 0.0
H582 H 0.83687 0.67707 0.19433 0.0
H583 H 0.81235 0.64274 0.19146 0.0
C584 C 0.86728 0.62844 0.19827 0.0
C585 C 0.85576 0.60071 0.19624 0.0
C586 C 0.86646 0.64678 0.19263 0.0
C587 C 0.85397 0.63771 0.18489 0.0
C588 C 0.84382 0.61037 0.18269 0.0
H589 H 0.81704 0.71013 0.14272 0.0
H590 H 0.81858 0.67839 0.15269 0.0
C591 C 0.84466 0.59206 0.1883 0.0
C592 C 0.85074 0.65639 0.17914 0.0
H593 H 0.82154 0.69631 0.17728 0.0
C594 C 0.86222 0.66064 0.17122 0.0
C595 C 0.83565 0.66922 0.18133 0.0
C596 C 0.82166 0.66442 0.18959 0.0
C597 C 0.85948 0.67774 0.16549 0.0
C598 C 0.84444 0.6906 0.16768 0.0
C599 C 0.83298 0.68638 0.1756 0.0
C600 C 0.84114 0.70917 0.16192 0.0
C601 C 0.87325 0.68241 0.1572 0.0
C602 C 0.85214 0.73676 0.16395 0.0
C603 C 0.85112 0.75488 0.1583 0.0
C604 C 0.8389 0.74577 0.15051 0.0
C605 C 0.82662 0.71784 0.14866 0.0
C606 C 0.82772 0.69971 0.15432 0.0
H607 H 0.88904 0.67627 0.15719 0.0
H608 H 0.85781 0.67011 0.15246 0.0
H609 H 0.88291 0.70416 0.15538 0.0
H610 H 0.86239 0.74448 0.1698 0.0
H611 H 0.86074 0.77623 0.15994 0.0
H612 H 0.10768 0.30429 0.37085 0.0
H613 H 0.14133 0.33605 0.36099 0.0
H614 H 0.11372 0.27188 0.34288 0.0
H615 H 0.08025 0.23999 0.3527 0.0
H616 H 0.16985 0.29892 0.34538 0.0
H617 H 0.13424 0.37281 0.34015 0.0
H618 H 0.13818 0.36691 0.35082 0.0
H619 H 0.11278 0.33967 0.34466 0.0
C620 C 0.10833 0.29708 0.36471 0.0
C621 C 0.09121 0.26957 0.36257 0.0
C622 C 0.12759 0.31529 0.35907 0.0
C623 C 0.12999 0.3064 0.35117 0.0
C624 C 0.11225 0.27921 0.34893 0.0
H625 H 0.24081 0.37851 0.30949 0.0
H626 H 0.20699 0.34706 0.31935 0.0
C627 C 0.09302 0.26102 0.35455 0.0
C628 C 0.15214 0.32482 0.34546 0.0
H629 H 0.17778 0.38468 0.33483 0.0
C630 C 0.17152 0.31762 0.34303 0.0
C631 C 0.1544 0.34926 0.34244 0.0
C632 C 0.13368 0.35759 0.34458 0.0
C633 C 0.1933 0.33438 0.33778 0.0
C634 C 0.19552 0.3588 0.33474 0.0
C635 C 0.17614 0.366 0.33717 0.0
C636 C 0.21764 0.37717 0.329 0.0
C637 C 0.21407 0.32608 0.3357 0.0
C638 C 0.23497 0.40457 0.33112 0.0
C639 C 0.25425 0.42261 0.32548 0.0
C640 C 0.25655 0.41368 0.31757 0.0
C641 C 0.2398 0.38601 0.31555 0.0
C642 C 0.22045 0.36798 0.3212 0.0
H643 H 0.21382 0.31129 0.34025 0.0
H644 H 0.20932 0.31618 0.32954 0.0
H645 H 0.23492 0.34405 0.33548 0.0
H646 H 0.2332 0.41216 0.33709 0.0
H647 H 0.26673 0.44378 0.32724 0.0
H648 H 0.71446 0.81305 0.37104 0.0
H649 H 0.68251 0.81393 0.36103 0.0
H650 H 0.74754 0.8531 0.3433 0.0
H651 H 0.77942 0.85199 0.35319 0.0
H652 H 0.68654 0.86092 0.35429 0.0
H653 H 0.68708 0.794 0.32941 0.0
H654 H 0.69975 0.79433 0.33966 0.0
H655 H 0.72047 0.82045 0.33236 0.0
C656 C 0.72183 0.82127 0.36495 0.0
C657 C 0.74951 0.83237 0.36292 0.0
C658 C 0.70357 0.8219 0.35924 0.0
C659 C 0.71255 0.8334 0.35138 0.0
C660 C 0.73998 0.84367 0.34926 0.0
H661 H 0.6392 0.86925 0.30945 0.0
H662 H 0.67112 0.86825 0.31946 0.0
C663 C 0.75823 0.84309 0.35495 0.0
C664 C 0.69383 0.83648 0.34562 0.0
H665 H 0.66703 0.82104 0.32616 0.0
C666 C 0.68211 0.85203 0.34816 0.0
C667 C 0.68823 0.82509 0.33759 0.0
C668 C 0.69933 0.80732 0.3346 0.0
C669 C 0.66533 0.85686 0.34287 0.0
C670 C 0.65974 0.84548 0.33484 0.0
C671 C 0.67146 0.82992 0.33229 0.0
C672 C 0.64102 0.84857 0.32908 0.0
C673 C 0.65421 0.8746 0.34585 0.0
C674 C 0.61358 0.83821 0.33119 0.0
C675 C 0.59535 0.83886 0.3255 0.0
C676 C 0.60411 0.84973 0.31755 0.0
C677 C 0.63181 0.86091 0.31554 0.0
C678 C 0.65005 0.86021 0.32123 0.0
H679 H 0.66639 0.88787 0.35106 0.0
H680 H 0.65384 0.88764 0.3408 0.0
H681 H 0.63304 0.86145 0.34808 0.0
H682 H 0.60599 0.82868 0.33714 0.0
H683 H 0.57414 0.82989 0.32725 0.0
H684 H 0.2044 0.90785 0.3694 0.0
H685 H 0.20337 0.87461 0.3595 0.0
H686 H 0.16128 0.8977 0.34199 0.0
H687 H 0.16249 0.93106 0.35177 0.0
H688 H 0.15615 0.8304 0.35314 0.0
H689 H 0.22038 0.89733 0.32777 0.0
H690 H 0.22056 0.91002 0.338 0.0
H691 H 0.19369 0.9037 0.33089 0.0
C692 C 0.19547 0.90629 0.36337 0.0
C693 C 0.18361 0.92221 0.36138 0.0
C694 C 0.19476 0.88716 0.35774 0.0
C695 C 0.18243 0.88378 0.34997 0.0
C696 C 0.17134 0.90025 0.34788 0.0
H697 H 0.14626 0.77335 0.30836 0.0
H698 H 0.14712 0.80627 0.31834 0.0
C699 C 0.17198 0.91929 0.3535 0.0
C700 C 0.17948 0.86186 0.34427 0.0
H701 H 0.19403 0.85001 0.32476 0.0
C702 C 0.1646 0.83469 0.34695 0.0
C703 C 0.19031 0.86744 0.33618 0.0
C704 C 0.20734 0.89621 0.33304 0.0
C705 C 0.15987 0.81295 0.34171 0.0
C706 C 0.17068 0.81853 0.33361 0.0
C707 C 0.18558 0.84571 0.33094 0.0
C708 C 0.16762 0.79662 0.32789 0.0
C709 C 0.14281 0.78419 0.34485 0.0
C710 C 0.17848 0.77993 0.32997 0.0
C711 C 0.1779 0.76103 0.3243 0.0
C712 C 0.16661 0.7585 0.31639 0.0
C713 C 0.15493 0.7746 0.31441 0.0
C714 C 0.15555 0.79356 0.3201 0.0
H715 H 0.12972 0.78308 0.35011 0.0
H716 H 0.12963 0.77036 0.33988 0.0
H717 H 0.15644 0.7767 0.34703 0.0
H718 H 0.18836 0.78223 0.33587 0.0
H719 H 0.18727 0.74913 0.32602 0.0
H720 H 0.57248 0.74183 0.82861 0.0
H721 H 0.60432 0.77587 0.83831 0.0
H722 H 0.6683 0.80326 0.82015 0.0
H723 H 0.63641 0.76946 0.81033 0.0
H724 H 0.65381 0.78653 0.845 0.0
H725 H 0.66659 0.87287 0.8256 0.0
H726 H 0.64021 0.83818 0.82372 0.0
H727 H 0.67458 0.84964 0.82047 0.0
C728 C 0.59341 0.75483 0.82669 0.0
C729 C 0.60182 0.75303 0.81865 0.0
C730 C 0.61159 0.77434 0.83225 0.0
C731 C 0.63853 0.79256 0.8299 0.0
C732 C 0.64742 0.78985 0.82204 0.0
H733 H 0.77545 0.92809 0.85418 0.0
H734 H 0.74375 0.89413 0.84443 0.0
C735 C 0.62923 0.77032 0.81646 0.0
C736 C 0.65695 0.81477 0.8356 0.0
H737 H 0.694 0.88406 0.83759 0.0
C738 C 0.66254 0.80785 0.84339 0.0
C739 C 0.66824 0.84262 0.83351 0.0
C740 C 0.66196 0.85138 0.8254 0.0
C741 C 0.67952 0.82797 0.84907 0.0
C742 C 0.69083 0.85581 0.84698 0.0
C743 C 0.68526 0.86274 0.8392 0.0
C744 C 0.7092 0.87799 0.8527 0.0
C745 C 0.68574 0.81924 0.8572 0.0
C746 C 0.70007 0.88096 0.86049 0.0
C747 C 0.71817 0.90048 0.86609 0.0
C748 C 0.74572 0.91745 0.86399 0.0
C749 C 0.7544 0.91534 0.85602 0.0
C750 C 0.73631 0.89588 0.85043 0.0
H751 H 0.68086 0.79767 0.85706 0.0
H752 H 0.70754 0.8323 0.85885 0.0
H753 H 0.67331 0.8213 0.86214 0.0
H754 H 0.67908 0.86776 0.86231 0.0
H755 H 0.71079 0.90156 0.87217 0.0
H756 H 0.12335 0.83481 0.87527 0.0
H757 H 0.15776 0.83747 0.86566 0.0
H758 H 0.09943 0.81232 0.84576 0.0
H759 H 0.06573 0.81205 0.85529 0.0
H760 H 0.1663 0.80712 0.85684 0.0
H761 H 0.15727 0.87688 0.83501 0.0
H762 H 0.13938 0.86761 0.84471 0.0
H763 H 0.12546 0.84575 0.8358 0.0
C764 C 0.11782 0.82962 0.86885 0.0
C765 C 0.09193 0.82334 0.86601 0.0
C766 C 0.13757 0.83124 0.86333 0.0
C767 C 0.13168 0.82598 0.85487 0.0
C768 C 0.10507 0.81775 0.85215 0.0
H769 H 0.23343 0.79272 0.82239 0.0
H770 H 0.2015 0.79157 0.83263 0.0
C771 C 0.08561 0.8171 0.85763 0.0
C772 C 0.15341 0.82921 0.84896 0.0
H773 H 0.1819 0.85557 0.83018 0.0
C774 C 0.16983 0.818 0.85105 0.0
C775 C 0.15884 0.84406 0.84148 0.0
C776 C 0.14451 0.85952 0.83917 0.0
C777 C 0.19095 0.82074 0.84587 0.0
C778 C 0.19486 0.83361 0.83808 0.0
C779 C 0.17883 0.84531 0.83606 0.0
C780 C 0.21487 0.83462 0.83186 0.0
C781 C 0.20928 0.81046 0.84898 0.0
C782 C 0.23237 0.8589 0.82761 0.0
C783 C 0.24998 0.85931 0.82145 0.0
C784 C 0.25091 0.83561 0.81956 0.0
C785 C 0.23368 0.81149 0.82386 0.0
C786 C 0.2155 0.81087 0.82979 0.0
H787 H 0.21074 0.81156 0.85583 0.0
H788 H 0.20054 0.78875 0.84723 0.0
H789 H 0.23016 0.82233 0.84641 0.0
H790 H 0.23227 0.87753 0.82901 0.0
H791 H 0.26288 0.87812 0.81818 0.0
H792 H 0.16417 0.2375 0.85243 0.0
H793 H 0.16309 0.26958 0.84259 0.0
H794 H 0.20214 0.33424 0.86045 0.0
H795 H 0.20361 0.3023 0.87032 0.0
H796 H 0.13563 0.29787 0.84498 0.0
H797 H 0.24545 0.3697 0.83953 0.0
H798 H 0.23319 0.3367 0.8442 0.0
H799 H 0.23592 0.3646 0.85023 0.0
C800 C 0.17306 0.25866 0.85422 0.0
C801 C 0.18404 0.26732 0.86217 0.0
C802 C 0.1723 0.27697 0.84859 0.0
C803 C 0.18263 0.30437 0.85075 0.0
C804 C 0.19446 0.31331 0.85858 0.0
H805 H 0.186 0.44295 0.82673 0.0
H806 H 0.18705 0.41097 0.83662 0.0
C807 C 0.19526 0.29499 0.86423 0.0
C808 C 0.17932 0.32302 0.84502 0.0
H809 H 0.21443 0.38263 0.8343 0.0
C810 C 0.15287 0.31634 0.84261 0.0
C811 C 0.20179 0.34718 0.84195 0.0
C812 C 0.23071 0.35492 0.84404 0.0
C813 C 0.14826 0.33333 0.83734 0.0
C814 C 0.17074 0.35747 0.83427 0.0
C815 C 0.19719 0.36416 0.83668 0.0
C816 C 0.16743 0.37607 0.82851 0.0
C817 C 0.11934 0.32558 0.83526 0.0
C818 C 0.15557 0.36702 0.82069 0.0
C819 C 0.15478 0.38527 0.81501 0.0
C820 C 0.16605 0.41298 0.81703 0.0
C821 C 0.17705 0.42175 0.82497 0.0
C822 C 0.1778 0.40351 0.83063 0.0
H823 H 0.10463 0.31088 0.83979 0.0
H824 H 0.11688 0.34381 0.83506 0.0
H825 H 0.1141 0.31579 0.82908 0.0
H826 H 0.14785 0.34606 0.81885 0.0
H827 H 0.14641 0.37787 0.80893 0.0
H828 H 0.78213 0.6369 0.70277 0.0
H829 H 0.81462 0.66818 0.69254 0.0
H830 H 0.79562 0.60042 0.67643 0.0
H831 H 0.76314 0.56913 0.68656 0.0
H832 H 0.86081 0.6657 0.68666 0.0
H833 H 0.79165 0.65599 0.661 0.0
H834 H 0.77977 0.64578 0.67144 0.0
H835 H 0.7866 0.62418 0.66495 0.0
C836 C 0.78446 0.62872 0.69698 0.0
C837 C 0.76996 0.60051 0.69548 0.0
C838 C 0.80314 0.64661 0.69116 0.0
C839 C 0.80741 0.63666 0.6837 0.0
C840 C 0.79237 0.60862 0.68209 0.0
H841 H 0.9149 0.70988 0.64137 0.0
H842 H 0.88306 0.67788 0.65157 0.0
C843 C 0.77384 0.59074 0.6879 0.0
C844 C 0.82876 0.65527 0.67782 0.0
H845 H 0.83894 0.67908 0.65801 0.0
C846 C 0.85604 0.66877 0.68041 0.0
C847 C 0.82253 0.65902 0.66964 0.0
C848 C 0.79354 0.64568 0.66658 0.0
C849 C 0.8773 0.68562 0.67502 0.0
C850 C 0.87107 0.68955 0.66685 0.0
C851 C 0.84376 0.67598 0.66426 0.0
C852 C 0.89237 0.70843 0.66098 0.0
C853 C 0.90627 0.69857 0.67808 0.0
C854 C 0.90849 0.73618 0.6629 0.0
C855 C 0.92681 0.75445 0.65711 0.0
C856 C 0.92925 0.74544 0.64923 0.0
C857 C 0.91368 0.71749 0.6474 0.0
C858 C 0.89535 0.69919 0.65321 0.0
H859 H 0.90811 0.68717 0.68338 0.0
H860 H 0.92026 0.69965 0.67311 0.0
H861 H 0.91295 0.7196 0.6802 0.0
H862 H 0.90619 0.74395 0.66877 0.0
H863 H 0.93829 0.77584 0.65872 0.0
H864 H 0.38125 0.14723 0.70352 0.0
H865 H 0.34973 0.14831 0.69337 0.0
H866 H 0.41654 0.19298 0.67656 0.0
H867 H 0.44803 0.1918 0.68659 0.0
H868 H 0.35286 0.19615 0.68717 0.0
H869 H 0.35897 0.13389 0.66172 0.0
H870 H 0.37031 0.13307 0.67207 0.0
H871 H 0.39146 0.16061 0.66523 0.0
C872 C 0.38914 0.15675 0.69759 0.0
C873 C 0.41717 0.16936 0.69587 0.0
C874 C 0.37112 0.15748 0.69181 0.0
C875 C 0.38073 0.17055 0.68417 0.0
C876 C 0.40855 0.18238 0.68234 0.0
H877 H 0.30733 0.20586 0.64211 0.0
H878 H 0.33939 0.2056 0.65221 0.0
C879 C 0.42656 0.18174 0.68811 0.0
C880 C 0.3621 0.1735 0.67834 0.0
H881 H 0.33716 0.15936 0.65866 0.0
C882 C 0.34927 0.18795 0.68095 0.0
C883 C 0.35765 0.16304 0.67021 0.0
C884 C 0.37011 0.14657 0.66714 0.0
C885 C 0.33244 0.19256 0.67561 0.0
C886 C 0.32789 0.182 0.66748 0.0
C887 C 0.34077 0.1676 0.66487 0.0
C888 C 0.30902 0.18468 0.66168 0.0
C889 C 0.32016 0.20919 0.67868 0.0
C890 C 0.28137 0.17338 0.66367 0.0
C891 C 0.26306 0.17363 0.65794 0.0
C892 C 0.27195 0.18501 0.65004 0.0
C893 C 0.29982 0.19711 0.64814 0.0
C894 C 0.31815 0.19683 0.6539 0.0
H895 H 0.33183 0.22238 0.68396 0.0
H896 H 0.31937 0.22222 0.67369 0.0
H897 H 0.29905 0.19526 0.68082 0.0
H898 H 0.2737 0.16341 0.66956 0.0
H899 H 0.24172 0.16395 0.6596 0.0
H900 H 0.86933 0.23701 0.70271 0.0
H901 H 0.86765 0.20344 0.69285 0.0
H902 H 0.82391 0.22541 0.67562 0.0
H903 H 0.82508 0.25862 0.68547 0.0
H904 H 0.79878 0.17045 0.67807 0.0
H905 H 0.90842 0.21099 0.67155 0.0
H906 H 0.90024 0.20655 0.68234 0.0
H907 H 0.89589 0.23109 0.67651 0.0
C908 C 0.85987 0.23513 0.69675 0.0
C909 C 0.84738 0.25056 0.69488 0.0
C910 C 0.85896 0.21592 0.69111 0.0
C911 C 0.84581 0.21199 0.68345 0.0
C912 C 0.83416 0.22806 0.68148 0.0
H913 H 0.80962 0.10117 0.64187 0.0
H914 H 0.81081 0.13454 0.65172 0.0
C915 C 0.83497 0.24715 0.68711 0.0
C916 C 0.84256 0.18998 0.67774 0.0
H917 H 0.87784 0.16622 0.66674 0.0
C918 C 0.81609 0.16962 0.67555 0.0
C919 C 0.8651 0.18882 0.67447 0.0
C920 C 0.89402 0.21065 0.67626 0.0
C921 C 0.81155 0.14796 0.67032 0.0
C922 C 0.83409 0.14676 0.66708 0.0
C923 C 0.86056 0.1671 0.66925 0.0
C924 C 0.83083 0.12471 0.66139 0.0
C925 C 0.78267 0.12621 0.66844 0.0
C926 C 0.84145 0.1079 0.66355 0.0
C927 C 0.84079 0.08882 0.65794 0.0
C928 C 0.82966 0.08625 0.65 0.0
C929 C 0.81812 0.10242 0.64795 0.0
C930 C 0.81877 0.12152 0.65358 0.0
H931 H 0.76803 0.12629 0.67298 0.0
H932 H 0.77695 0.12996 0.66223 0.0
H933 H 0.78067 0.1057 0.6684 0.0
H934 H 0.85085 0.10999 0.66953 0.0
H935 H 0.84995 0.07679 0.65973 0.0
H936 H 0.04827 0.57078 0.53717 0.0
H937 H 0.01636 0.53709 0.52733 0.0
H938 H 0.08093 0.56283 0.50945 0.0
H939 H 0.11284 0.59671 0.51918 0.0
H940 H 0.03137 0.55311 0.50259 0.0
H941 H 0.01726 0.46657 0.52215 0.0
H942 H 0.00997 0.49043 0.5272 0.0
H943 H 0.04416 0.5011 0.52394 0.0
C944 C 0.05559 0.5696 0.5311 0.0
C945 C 0.08317 0.58637 0.52899 0.0
C946 C 0.03738 0.55012 0.52551 0.0
C947 C 0.0464 0.54699 0.51772 0.0
C948 C 0.07355 0.5647 0.51544 0.0
H949 H 0.97284 0.43831 0.47543 0.0
H950 H 1.00487 0.47201 0.48524 0.0
C951 C 0.09177 0.58412 0.52102 0.0
C952 C 0.02787 0.52483 0.51202 0.0
H953 H 0.99018 0.45555 0.5101 0.0
C954 C 0.02241 0.53178 0.50422 0.0
C955 C 0.01627 0.49698 0.51414 0.0
C956 C 0.02234 0.4882 0.52228 0.0
C957 C 1.00524 0.51169 0.49855 0.0
C958 C 0.99366 0.48382 0.50067 0.0
C959 C 0.99913 0.47688 0.50847 0.0
C960 C 0.97511 0.46164 0.49497 0.0
C961 C 0.99911 0.5205 0.49043 0.0
C962 C 0.9481 0.44361 0.49732 0.0
C963 C 0.92984 0.42415 0.49176 0.0
C964 C 0.93822 0.42219 0.48373 0.0
C965 C 0.96568 0.43928 0.48155 0.0
C966 C 0.98395 0.45876 0.48712 0.0
H967 H 1.00395 0.54206 0.4906 0.0
H968 H 0.01165 0.51858 0.4855 0.0
H969 H 0.97733 0.50746 0.48874 0.0
H970 H 0.94086 0.44526 0.50337 0.0
H971 H 0.90887 0.41132 0.49367 0.0
H972 H 0.46009 0.50221 0.5417 0.0
H973 H 0.49491 0.50541 0.53215 0.0
H974 H 0.43678 0.47922 0.51218 0.0
H975 H 0.40265 0.47841 0.52163 0.0
H976 H 0.50443 0.47568 0.52335 0.0
H977 H 0.49388 0.54443 0.50149 0.0
H978 H 0.4759 0.53484 0.51117 0.0
H979 H 0.46241 0.51295 0.50225 0.0
C980 C 0.4547 0.49688 0.53528 0.0
C981 C 0.42873 0.49018 0.53239 0.0
C982 C 0.47467 0.49881 0.5298 0.0
C983 C 0.46895 0.49347 0.52133 0.0
C984 C 0.44227 0.48474 0.51857 0.0
H985 H 0.57231 0.46255 0.4889 0.0
H986 H 0.54035 0.46094 0.4992 0.0
C987 C 0.42258 0.48378 0.52401 0.0
C988 C 0.49093 0.49719 0.51545 0.0
H989 H 0.51922 0.52385 0.49667 0.0
C990 C 0.50778 0.4865 0.51756 0.0
C991 C 0.49613 0.51199 0.50797 0.0
C992 C 0.48132 0.52697 0.50564 0.0
C993 C 0.5291 0.48968 0.51239 0.0
C994 C 0.53278 0.50246 0.5046 0.0
C995 C 0.51633 0.51366 0.50256 0.0
C996 C 0.55294 0.5038 0.49838 0.0
C997 C 0.54785 0.47995 0.51553 0.0
C998 C 0.57004 0.52812 0.49409 0.0
C999 C 0.58766 0.52878 0.48789 0.0
C1000 C 0.58902 0.50531 0.48601 0.0
C1001 C 0.57223 0.48117 0.49036 0.0
C1002 C 0.55403 0.48028 0.49633 0.0
H1003 H 0.54934 0.48116 0.52237 0.0
H1004 H 0.53948 0.45826 0.51381 0.0
H1005 H 0.56869 0.49209 0.51294 0.0
H1006 H 0.56958 0.54658 0.49548 0.0
H1007 H 0.60021 0.54759 0.48458 0.0
H1008 H 0.48243 0.04688 0.47582 0.0
H1009 H 0.4831 0.015 0.48591 0.0
H1010 H 0.52608 0.08101 0.50311 0.0
H1011 H 0.52526 0.11286 0.49314 0.0
H1012 H 0.53039 0.018 0.49233 0.0
H1013 H 0.4666 0.02256 0.51755 0.0
H1014 H 0.4664 0.03452 0.50724 0.0
H1015 H 0.49345 0.05532 0.51427 0.0
C1016 C 0.49148 0.05451 0.48182 0.0
C1017 C 0.50371 0.08243 0.48367 0.0
C1018 C 0.49198 0.03628 0.48756 0.0
C1019 C 0.50446 0.04556 0.4953 0.0
C1020 C 0.51591 0.07326 0.49725 0.0
H1021 H 0.53913 0.97129 0.53726 0.0
H1022 H 0.53871 1.00348 0.52724 0.0
C1023 C 0.51549 0.09148 0.49152 0.0
C1024 C 0.50723 0.02674 0.5011 0.0
H1025 H 0.49231 1.00103 0.52068 0.0
C1026 C 0.5219 0.01413 0.49851 0.0
C1027 C 0.49638 0.02191 0.50919 0.0
C1028 C 0.47961 0.03408 0.51222 0.0
C1029 C 0.52637 0.99716 0.50383 0.0
C1030 C 0.51546 0.99226 0.51192 0.0
C1031 C 0.50081 1.0049 0.5145 0.0
C1032 C 0.51808 0.9733 0.5177 0.0
C1033 C 0.54324 0.9851 0.5008 0.0
C1034 C 0.50695 0.9457 0.51564 0.0
C1035 C 0.50728 0.92732 0.52133 0.0
C1036 C 0.51858 0.93608 0.52924 0.0
C1037 C 0.53045 0.96389 0.53121 0.0
C1038 C 0.53008 0.98229 0.5255 0.0
H1039 H 0.55653 0.99691 0.49555 0.0
H1040 H 0.55619 0.98432 0.50581 0.0
H1041 H 0.52947 0.964 0.49861 0.0
H1042 H 0.49711 0.93814 0.50973 0.0
H1043 H 0.49777 0.90604 0.51962 0.0
H1044 H 0.44143 0.96929 0.0373 0.0
H1045 H 0.47466 1.00127 0.02738 0.0
H1046 H 0.44696 0.93713 0.00926 0.0
H1047 H 0.41353 0.90524 0.01906 0.0
H1048 H 0.51669 0.99643 0.0205 0.0
H1049 H 0.45059 0.99917 0.99576 0.0
H1050 H 0.43787 0.98594 1.00594 0.0
H1051 H 0.44278 0.96532 0.99846 0.0
C1052 C 0.44194 0.96215 0.03114 0.0
C1053 C 0.42471 0.93469 0.02898 0.0
C1054 C 0.46108 0.98042 0.02549 0.0
C1055 C 0.46322 0.9717 0.01755 0.0
C1056 C 0.4454 0.94453 0.01529 0.0
H1057 H 0.57369 0.04452 0.97585 0.0
H1058 H 0.54019 0.01281 0.98577 0.0
C1059 C 0.4263 0.92626 0.02092 0.0
C1060 C 0.48533 0.99034 0.01184 0.0
H1061 H 0.49759 0.01812 0.9925 0.0
C1062 C 0.51251 1.00134 0.0144 0.0
C1063 C 0.47991 0.99659 1.00385 0.0
C1064 C 0.45121 0.98636 1.00085 0.0
C1065 C 0.53435 0.01801 0.00916 0.0
C1066 C 0.52892 0.0242 1.00117 0.0
C1067 C 0.50176 0.01322 0.99861 0.0
C1068 C 0.55105 0.04277 0.99546 0.0
C1069 C 0.56307 0.02835 0.01216 0.0
C1070 C 0.56858 0.07007 0.99764 0.0
C1071 C 0.58779 0.0882 0.992 0.0
C1072 C 0.58982 0.07947 0.98403 0.0
C1073 C 0.57284 0.05189 0.98195 0.0
C1074 C 0.55356 0.03376 0.9876 0.0
H1075 H 0.56373 0.01585 0.01734 0.0
H1076 H 0.57631 0.02841 0.0071 0.0
H1077 H 0.57159 0.04956 0.01442 0.0
H1078 H 0.56675 0.07764 1.00361 0.0
H1079 H 0.60038 0.10931 0.9938 0.0
H1080 H 0.96876 0.53941 0.97538 0.0
H1081 H 1.00112 0.53889 0.98531 0.0
H1082 H 0.9363 0.49779 1.00299 0.0
H1083 H 0.90386 0.4981 0.99313 0.0
H1084 H 0.01471 0.55853 1.00211 0.0
H1085 H 0.96767 0.44609 0.99997 0.0
H1086 H 0.96105 0.46575 0.99252 0.0
H1087 H 0.94455 0.45809 1.00241 0.0
C1088 C 0.96146 0.53065 0.98143 0.0
C1089 C 0.93366 0.51863 0.98343 0.0
C1090 C 0.97997 0.53028 0.98709 0.0
C1091 C 0.97099 0.51776 0.99482 0.0
C1092 C 0.94356 0.50705 0.99699 0.0
H1093 H 0.0475 0.48297 0.03606 0.0
H1094 H 0.01545 0.48464 0.02625 0.0
C1095 C 0.92508 0.50744 0.99136 0.0
C1096 C 0.99009 0.51517 1.00053 0.0
H1097 H 1.00238 0.46842 0.00995 0.0
C1098 C 0.01211 0.53886 1.00381 0.0
C1099 C 0.98659 0.48946 1.00275 0.0
C1100 C 0.96384 0.46336 0.99919 0.0
C1101 C 0.03045 0.53751 0.00936 0.0
C1102 C 0.02705 0.51179 0.01155 0.0
C1103 C 1.00499 0.4881 0.00827 0.0
C1104 C 0.04622 0.5091 0.01723 0.0
C1105 C 0.05291 0.56366 0.013 0.0
C1106 C 0.07401 0.52137 0.01528 0.0
C1107 C 0.09234 0.52046 0.02087 0.0
C1108 C 0.08324 0.50699 0.02849 0.0
C1109 C 0.05519 0.49348 0.03024 0.0
C1110 C 0.03685 0.49451 0.02465 0.0
H1111 H 0.04823 0.58045 0.01254 0.0
H1112 H 0.05642 0.56096 0.01959 0.0
H1113 H 0.07206 0.56993 0.00955 0.0
H1114 H 0.08163 0.53208 0.0095 0.0
H1115 H 0.11377 0.53092 0.01929 0.0
H1116 H 0.47802 0.43849 0.97501 0.0
H1117 H 0.47985 0.47187 0.98501 0.0
H1118 H 0.52041 0.44677 1.00245 0.0
H1119 H 0.51891 0.41361 0.99251 0.0
H1120 H 0.46097 0.46718 1.00153 0.0
H1121 H 0.57372 0.52888 0.99977 0.0
H1122 H 0.55367 0.50262 0.99236 0.0
H1123 H 0.56071 0.49369 1.00234 0.0
C1124 C 0.48695 0.43976 0.98102 0.0
C1125 C 0.4985 0.42349 0.98293 0.0
C1126 C 0.48807 0.45893 0.98672 0.0
C1127 C 0.50086 0.46226 0.9944 0.0
C1128 C 0.51104 0.44501 0.99649 0.0
H1129 H 0.53659 0.572 0.03615 0.0
H1130 H 0.53436 0.53828 0.02622 0.0
C1131 C 0.50994 0.42588 0.99081 0.0
C1132 C 0.50421 0.4842 1.00015 0.0
H1133 H 0.55219 0.54205 0.00984 0.0
C1134 C 0.48089 0.48361 1.00332 0.0
C1135 C 0.53025 0.50564 1.00249 0.0
C1136 C 0.55605 0.508 0.99902 0.0
C1137 C 0.4829 0.50356 0.0089 0.0
C1138 C 0.50895 0.52503 0.01123 0.0
C1139 C 0.53226 0.52561 0.00806 0.0
C1140 C 0.51233 0.54705 0.01696 0.0
C1141 C 0.45708 0.50109 0.01239 0.0
C1142 C 0.50169 0.56395 0.01492 0.0
C1143 C 0.50297 0.58323 0.02057 0.0
C1144 C 0.51513 0.5862 0.02836 0.0
C1145 C 0.52711 0.57028 0.03021 0.0
C1146 C 0.52576 0.55092 0.02455 0.0
H1147 H 0.43955 0.48008 0.01174 0.0
H1148 H 0.45958 0.50681 0.01902 0.0
H1149 H 0.45211 0.51505 0.009 0.0
H1150 H 0.49186 0.56184 0.00902 0.0
H1151 H 0.49367 0.59524 0.01891 0.0
H1152 H 0.29734 0.04075 0.11714 0.0
H1153 H 0.32553 0.02487 0.11034 0.0
H1154 H 0.29551 0.03236 0.08662 0.0
H1155 H 0.2672 0.04808 0.09335 0.0
H1156 H 0.30195 0.97655 0.09992 0.0
H1157 H 0.37965 0.0684 0.0833 0.0
H1158 H 0.36089 0.07032 0.09205 0.0
H1159 H 0.34494 0.06059 0.08209 0.0
C1160 C 0.29716 0.03957 0.11047 0.0
C1161 C 0.27999 0.04571 0.10579 0.0
C1162 C 0.31323 0.03041 0.10659 0.0
C1163 C 0.31281 0.02762 0.09797 0.0
C1164 C 0.29649 0.03472 0.09327 0.0
H1165 H 0.37361 0.95741 0.06201 0.0
H1166 H 0.35661 0.9838 0.0693 0.0
C1167 C 0.28023 0.04363 0.09714 0.0
C1168 C 0.32738 0.01495 0.09394 0.0
H1169 H 0.37721 0.02645 0.07995 0.0
C1170 C 0.3186 0.98751 0.09562 0.0
C1171 C 0.34883 0.02919 0.08824 0.0
C1172 C 0.35937 0.05883 0.08633 0.0
C1173 C 0.33018 0.9737 0.09162 0.0
C1174 C 0.35185 0.98796 0.08595 0.0
C1175 C 0.36075 0.01551 0.08431 0.0
C1176 C 0.36489 0.97431 0.08153 0.0
C1177 C 0.31828 0.94366 0.09328 0.0
C1178 C 0.37627 0.96105 0.08592 0.0
C1179 C 0.38575 0.94573 0.08177 0.0
C1180 C 0.38457 0.94375 0.07311 0.0
C1181 C 0.37484 0.9585 0.06868 0.0
C1182 C 0.36505 0.97358 0.07285 0.0
H1183 H 0.2973 0.93436 0.09581 0.0
H1184 H 0.31769 0.93253 0.08757 0.0
H1185 H 0.33106 0.9408 0.0979 0.0
H1186 H 0.37718 0.96196 0.0926 0.0
H1187 H 0.39335 0.93485 0.08537 0.0
H1188 H 0.04587 0.43298 0.06698 0.0
H1189 H 0.01657 0.38983 0.07413 0.0
H1190 H 0.08348 0.40468 0.09012 0.0
H1191 H 0.11207 0.44819 0.08336 0.0
H1192 H 0.01816 0.34604 0.07509 0.0
H1193 H 0.02701 0.38158 0.10713 0.0
H1194 H 0.03933 0.40499 0.09857 0.0
H1195 H 0.06042 0.39295 0.10313 0.0
C1196 C 0.0541 0.42724 0.07214 0.0
C1197 C 0.08121 0.44421 0.07466 0.0
C1198 C 0.03736 0.40251 0.07621 0.0
C1199 C 0.04747 0.39405 0.08283 0.0
C1200 C 0.07466 0.41099 0.08528 0.0
H1201 H 0.99967 0.23002 0.09627 0.0
H1202 H 0.01491 0.27368 0.08957 0.0
C1203 C 0.09115 0.4359 0.08134 0.0
C1204 C 0.03048 0.3668 0.0868 0.0
H1205 H 0.01523 0.33439 0.10546 0.0
C1206 C 0.01717 0.3436 0.08174 0.0
C1207 C 0.02832 0.36329 0.09549 0.0
C1208 C 0.03928 0.38711 0.10137 0.0
C1209 C 1.00315 0.31718 0.08509 0.0
C1210 C 1.00339 0.3136 0.09375 0.0
C1211 C 0.01541 0.33684 0.09882 0.0
C1212 C 0.99266 0.28617 0.09764 0.0
C1213 C 0.98807 0.2935 0.07926 0.0
C1214 C 0.97571 0.27864 0.10465 0.0
C1215 C 0.96756 0.2538 0.10868 0.0
C1216 C 0.97591 0.2358 0.10572 0.0
C1217 C 0.99242 0.24314 0.09863 0.0
C1218 C 1.00101 0.26814 0.09473 0.0
H1219 H 0.98068 0.29962 0.07376 0.0
H1220 H 1.00214 0.28661 0.07702 0.0
H1221 H 0.97034 0.27613 0.0823 0.0
H1222 H 0.96906 0.29215 0.10709 0.0
H1223 H 0.95498 0.24882 0.11415 0.0
H1224 H 0.59241 0.63093 0.06355 0.0
H1225 H 0.63624 0.64709 0.07052 0.0
H1226 H 0.60315 0.66086 0.09277 0.0
H1227 H 0.55946 0.6449 0.08588 0.0
H1228 H 0.65157 0.70634 0.08742 0.0
H1229 H 0.66234 0.61427 0.08877 0.0
H1230 H 0.65388 0.62183 0.07879 0.0
H1231 H 0.62996 0.61248 0.08713 0.0
C1232 C 0.59429 0.63686 0.06998 0.0
C1233 C 0.57237 0.63663 0.07414 0.0
C1234 C 0.61936 0.64602 0.07397 0.0
C1235 C 0.62297 0.65504 0.0822 0.0
C1236 C 0.60085 0.65394 0.08643 0.0
H1237 H 0.76176 0.71414 0.11576 0.0
H1238 H 0.71729 0.68719 0.10903 0.0
C1239 C 0.57582 0.64474 0.08247 0.0
C1240 C 0.65029 0.66792 0.08618 0.0
H1241 H 0.70122 0.65636 0.09253 0.0
C1242 C 0.66236 0.69536 0.08855 0.0
C1243 C 0.66433 0.65356 0.0877 0.0
C1244 C 0.65195 0.62383 0.08554 0.0
C1245 C 0.68815 0.70892 0.09229 0.0
C1246 C 0.70245 0.69478 0.09366 0.0
C1247 C 0.69029 0.6672 0.09142 0.0
C1248 C 0.7301 0.70864 0.0974 0.0
C1249 C 0.69992 0.73833 0.0948 0.0
C1250 C 0.75223 0.72906 0.09301 0.0
C1251 C 0.77763 0.74439 0.09682 0.0
C1252 C 0.78145 0.73968 0.10511 0.0
C1253 C 0.75955 0.71832 0.10937 0.0
C1254 C 0.73412 0.70289 0.10554 0.0
H1255 H 0.68434 0.74475 0.09476 0.0
H1256 H 0.70899 0.7418 0.10107 0.0
H1257 H 0.71634 0.75149 0.09043 0.0
H1258 H 0.74961 0.73369 0.08671 0.0
H1259 H 0.79399 0.7606 0.09333 0.0
H1260 H 0.93557 0.38435 0.42761 0.0
H1261 H 0.96345 0.36801 0.42091 0.0
H1262 H 0.99275 0.35978 0.44466 0.0
H1263 H 0.96495 0.37614 0.45144 0.0
H1264 H 0.02269 0.38605 0.42199 0.0
H1265 H 0.95391 0.28161 0.43399 0.0
H1266 H 0.9441 0.30739 0.43368 0.0
H1267 H 0.96727 0.30872 0.44146 0.0
C1268 C 0.94828 0.37951 0.43141 0.0
C1269 C 0.94787 0.38142 0.44007 0.0
C1270 C 0.96422 0.37017 0.42756 0.0
C1271 C 0.9799 0.36234 0.43229 0.0
C1272 C 0.98058 0.36545 0.4409 0.0
H1273 H 0.05594 0.26654 0.41931 0.0
H1274 H 0.041 0.29464 0.42654 0.0
C1275 C 0.96476 0.37495 0.44476 0.0
C1276 C 0.99403 0.34926 0.42824 0.0
H1277 H 0.99152 0.2881 0.42613 0.0
C1278 C 0.01599 0.36466 0.42291 0.0
C1279 C 0.98523 0.32135 0.42944 0.0
C1280 C 0.96122 0.30363 0.4349 0.0
C1281 C 0.02958 0.35294 0.41881 0.0
C1282 C 0.02051 0.32487 0.41991 0.0
C1283 C 0.99861 0.3096 0.42529 0.0
C1284 C 0.03281 0.31056 0.41544 0.0
C1285 C 0.05384 0.37091 0.41348 0.0
C1286 C 0.03371 0.31039 0.40677 0.0
C1287 C 0.0426 0.29454 0.40261 0.0
C1288 C 0.05035 0.27814 0.40703 0.0
C1289 C 0.05015 0.27893 0.41571 0.0
C1290 C 0.04152 0.29496 0.41986 0.0
H1291 H 0.06337 0.39262 0.41536 0.0
H1292 H 0.06949 0.36462 0.41376 0.0
H1293 H 0.04707 0.36939 0.40698 0.0
H1294 H 0.02648 0.32163 0.40319 0.0
H1295 H 0.04219 0.29418 0.39592 0.0
H1296 H 0.65115 0.55987 0.42729 0.0
H1297 H 0.66758 0.60413 0.42069 0.0
H1298 H 0.64941 0.6346 0.44273 0.0
H1299 H 0.63298 0.59026 0.44946 0.0
H1300 H 0.63465 0.64881 0.42549 0.0
H1301 H 0.74164 0.67229 0.42979 0.0
H1302 H 0.71808 0.63946 0.42552 0.0
H1303 H 0.71388 0.64722 0.43597 0.0
C1304 C 0.65023 0.5758 0.43072 0.0
C1305 C 0.64086 0.5715 0.43894 0.0
C1306 C 0.65968 0.60112 0.42693 0.0
C1307 C 0.65989 0.62268 0.43124 0.0
C1308 C 0.6494 0.61819 0.4393 0.0
H1309 H 0.76039 0.7945 0.41987 0.0
H1310 H 0.73342 0.75068 0.42677 0.0
C1311 C 0.64003 0.59284 0.44313 0.0
C1312 C 0.67288 0.65031 0.42751 0.0
H1313 H 0.73492 0.70368 0.42207 0.0
C1314 C 0.65656 0.66089 0.42476 0.0
C1315 C 0.70147 0.66607 0.42662 0.0
C1316 C 0.71994 0.6559 0.42966 0.0
C1317 C 0.66815 0.68673 0.42099 0.0
C1318 C 0.69674 0.70225 0.41995 0.0
C1319 C 0.713 0.69176 0.42284 0.0
C1320 C 0.71047 0.72948 0.4159 0.0
C1321 C 0.64981 0.69737 0.41824 0.0
C1322 C 0.70627 0.73232 0.4075 0.0
C1323 C 0.72175 0.75745 0.4035 0.0
C1324 C 0.74179 0.7802 0.40784 0.0
C1325 C 0.74514 0.77748 0.41633 0.0
C1326 C 0.72976 0.75239 0.4203 0.0
H1327 H 0.62934 0.68598 0.42113 0.0
H1328 H 0.65893 0.71932 0.41977 0.0
H1329 H 0.6472 0.69517 0.41144 0.0
H1330 H 0.69182 0.71484 0.40394 0.0
H1331 H 0.71874 0.75876 0.39695 0.0
H1332 H 0.45348 0.10693 0.42877 0.0
H1333 H 0.40927 0.079 0.42228 0.0
H1334 H 0.39285 0.01293 0.43886 0.0
H1335 H 0.43657 0.04177 0.44578 0.0
H1336 H 0.38603 0.03566 0.41402 0.0
H1337 H 0.32561 0.015 0.44273 0.0
H1338 H 0.36175 0.03829 0.44247 0.0
H1339 H 0.34869 1.00209 0.44311 0.0
C1340 C 0.44052 0.0864 0.43103 0.0
C1341 C 0.44847 0.07664 0.43783 0.0
C1342 C 0.41514 0.07037 0.4273 0.0
C1343 C 0.39716 0.04392 0.43017 0.0
C1344 C 0.40573 0.03356 0.4367 0.0
H1345 H 0.25081 0.94947 0.39882 0.0
H1346 H 0.29449 0.96412 0.40574 0.0
C1347 C 0.4309 0.04994 0.44059 0.0
C1348 C 0.36953 0.02779 0.42633 0.0
H1349 H 0.30135 0.99327 0.43064 0.0
C1350 C 0.36752 0.02643 0.41767 0.0
C1351 C 0.34519 0.01582 0.43105 0.0
C1352 C 0.34534 0.01807 0.44034 0.0
C1353 C 0.3422 0.01448 0.41361 0.0
C1354 C 0.31785 1.00207 0.41833 0.0
C1355 C 0.31986 1.00257 0.42699 0.0
C1356 C 0.29023 0.99069 0.4145 0.0
C1357 C 0.34205 0.01677 0.40433 0.0
C1358 C 0.27229 0.99919 0.4174 0.0
C1359 C 0.24693 0.98997 0.41368 0.0
C1360 C 0.23897 0.97238 0.40683 0.0
C1361 C 0.25649 0.96322 0.40404 0.0
C1362 C 0.28165 0.97189 0.40793 0.0
H1363 H 0.36179 0.03343 0.40196 0.0
H1364 H 0.33866 0.99747 0.40151 0.0
H1365 H 0.32567 0.02065 0.40223 0.0
H1366 H 0.27818 0.0136 0.42245 0.0
H1367 H 0.23401 0.99755 0.41596 0.0
H1368 H 0.72418 0.97419 0.89715 0.0
H1369 H 0.69762 0.99134 0.90427 0.0
H1370 H 0.72283 0.97565 0.92776 0.0
H1371 H 0.75011 0.95939 0.92069 0.0
H1372 H 0.65608 0.97148 0.91527 0.0
H1373 H 0.7484 0.05543 0.92987 0.0
H1374 H 0.75019 0.03417 0.9219 0.0
H1375 H 0.74328 0.02243 0.93243 0.0
C1376 C 0.72381 0.97409 0.90383 0.0
C1377 C 0.73953 0.9657 0.90835 0.0
C1378 C 0.70864 0.98396 0.9079 0.0
C1379 C 0.70877 0.98552 0.91657 0.0
C1380 C 0.72306 0.97549 0.92108 0.0
H1381 H 0.64178 0.05371 0.95169 0.0
H1382 H 0.65821 0.02572 0.94507 0.0
C1383 C 0.73848 0.96596 0.91702 0.0
C1384 C 0.69489 0.99855 0.92086 0.0
H1385 H 0.70605 0.04986 0.93423 0.0
C1386 C 0.66703 0.98864 0.91941 0.0
C1387 C 0.70916 0.02113 0.92623 0.0
C1388 C 0.73945 0.03412 0.92764 0.0
C1389 C 0.65308 1.00041 0.92325 0.0
C1390 C 0.66733 0.02272 0.92867 0.0
C1391 C 0.69509 0.03256 0.93015 0.0
C1392 C 0.65428 0.03704 0.93261 0.0
C1393 C 0.62315 0.98881 0.92156 0.0
C1394 C 0.64633 0.05248 0.92781 0.0
C1395 C 0.63712 0.06864 0.93158 0.0
C1396 C 0.63557 0.06964 0.94024 0.0
C1397 C 0.64253 0.05329 0.94502 0.0
C1398 C 0.65201 0.03734 0.94124 0.0
H1399 H 0.61388 0.9683 0.91868 0.0
H1400 H 0.61202 0.98741 0.92735 0.0
H1401 H 0.62044 1.00253 0.91727 0.0
H1402 H 0.64827 0.05288 0.92115 0.0
H1403 H 0.63203 0.08103 0.92771 0.0
H1404 H 0.96112 0.59155 0.95167 0.0
H1405 H 0.98968 0.6362 0.94527 0.0
H1406 H 0.96147 0.60085 0.9212 0.0
H1407 H 0.93284 0.55616 0.92752 0.0
H1408 H 0.02085 0.64142 0.92272 0.0
H1409 H 0.95213 0.67713 0.9348 0.0
H1410 H 0.96481 0.66247 0.94218 0.0
H1411 H 0.94195 0.64148 0.93421 0.0
C1412 C 0.96133 0.59314 0.94501 0.0
C1413 C 0.94453 0.57026 0.94012 0.0
C1414 C 0.97758 0.61873 0.94136 0.0
C1415 C 0.97743 0.62191 0.93277 0.0
C1416 C 0.96183 0.59887 0.92784 0.0
H1417 H 0.04112 0.75332 0.89701 0.0
H1418 H 0.02548 0.71017 0.90422 0.0
C1419 C 0.94546 0.57333 0.93148 0.0
C1420 C 0.99204 0.64942 0.92894 0.0
H1421 H 0.99005 0.70841 0.9271 0.0
C1422 C 0.01424 0.65616 0.9237 0.0
C1423 C 0.98338 0.66861 0.93022 0.0
C1424 C 0.95916 0.66215 0.93561 0.0
C1425 C 0.02816 0.6817 0.91975 0.0
C1426 C 0.01916 0.70073 0.9209 0.0
C1427 C 0.99708 0.69397 0.92622 0.0
C1428 C 0.03156 0.72742 0.91649 0.0
C1429 C 0.05263 0.68813 0.9145 0.0
C1430 C 0.04012 0.75167 0.92094 0.0
C1431 C 0.04872 0.77636 0.91682 0.0
C1432 C 0.04901 0.77741 0.90814 0.0
C1433 C 0.04145 0.75333 0.90369 0.0
C1434 C 0.03261 0.72858 0.90782 0.0
H1435 H 0.0621 0.67592 0.9164 0.0
H1436 H 0.04611 0.683 0.90797 0.0
H1437 H 0.06825 0.71006 0.91484 0.0
H1438 H 0.03947 0.75137 0.92763 0.0
H1439 H 0.05434 0.79447 0.92044 0.0
H1440 H 0.42042 0.36915 0.94953 0.0
H1441 H 0.3768 0.35224 0.9424 0.0
H1442 H 0.41804 0.3696 0.91892 0.0
H1443 H 0.4615 0.38563 0.926 0.0
H1444 H 0.35502 0.37253 0.93156 0.0
H1445 H 0.36433 0.28979 0.91644 0.0
H1446 H 0.38717 0.3107 0.9245 0.0
H1447 H 0.39208 0.32302 0.91404 0.0
C1448 C 0.42025 0.36968 0.94285 0.0
C1449 C 0.44443 0.37846 0.93834 0.0
C1450 C 0.39526 0.35995 0.93877 0.0
C1451 C 0.39395 0.35891 0.9301 0.0
C1452 C 0.41833 0.36935 0.9256 0.0
H1453 H 0.25924 0.2917 0.89486 0.0
H1454 H 0.3035 0.31968 0.90156 0.0
C1455 C 0.44324 0.37874 0.92967 0.0
C1456 C 0.3671 0.34596 0.92579 0.0
H1457 H 0.32739 0.29525 0.9122 0.0
C1458 C 0.34899 0.35562 0.92733 0.0
C1459 C 0.35903 0.3237 0.92031 0.0
C1460 C 0.37653 0.31099 0.91878 0.0
C1461 C 0.32331 0.34389 0.92347 0.0
C1462 C 0.31548 0.3219 0.91794 0.0
C1463 C 0.33357 0.31232 0.91637 0.0
C1464 C 0.28816 0.3076 0.91398 0.0
C1465 C 0.30478 0.3552 0.92527 0.0
C1466 C 0.26477 0.29175 0.91874 0.0
C1467 C 0.23949 0.27559 0.91493 0.0
C1468 C 0.23704 0.27502 0.90627 0.0
C1469 C 0.26033 0.29178 0.90154 0.0
C1470 C 0.28568 0.30773 0.90535 0.0
H1471 H 0.31586 0.37556 0.92825 0.0
H1472 H 0.29508 0.35683 0.91951 0.0
H1473 H 0.28834 0.34117 0.92951 0.0
H1474 H 0.26626 0.29102 0.92539 0.0
H1475 H 0.22201 0.26288 0.91876 0.0
H1476 H 0.96707 0.74905 0.59225 0.0
H1477 H 0.98194 0.72054 0.58524 0.0
H1478 H 0.9953 0.69381 0.60881 0.0
H1479 H 0.97963 0.72166 0.61585 0.0
H1480 H 0.0311 0.72645 0.58586 0.0
H1481 H 0.95803 0.62252 0.59681 0.0
H1482 H 0.95231 0.65085 0.59824 0.0
H1483 H 0.97432 0.64592 0.60516 0.0
C1484 C 0.97261 0.73666 0.59595 0.0
C1485 C 0.97207 0.7376 0.60462 0.0
C1486 C 0.9812 0.72039 0.59192 0.0
C1487 C 0.98953 0.70471 0.59646 0.0
C1488 C 0.98836 0.7051 0.60513 0.0
H1489 H 0.08564 0.62913 0.58514 0.0
H1490 H 0.05807 0.64621 0.59162 0.0
C1491 C 0.9795 0.72118 0.60917 0.0
C1492 C 1.00166 0.69001 0.59214 0.0
H1493 H 0.99867 0.62838 0.59035 0.0
C1494 C 0.02373 0.70492 0.58678 0.0
C1495 C 0.99222 0.6619 0.59333 0.0
C1496 C 0.96775 0.6443 0.59863 0.0
C1497 C 0.03693 0.69277 0.58275 0.0
C1498 C 0.02778 0.66484 0.58405 0.0
C1499 C 1.00564 0.6498 0.58936 0.0
C1500 C 0.04173 0.65136 0.58014 0.0
C1501 C 0.06112 0.71009 0.5773 0.0
C1502 C 0.04102 0.64775 0.57155 0.0
C1503 C 0.05665 0.63781 0.56782 0.0
C1504 C 0.07339 0.63142 0.57261 0.0
C1505 C 0.07304 0.63389 0.58125 0.0
C1506 C 0.05727 0.64365 0.58498 0.0
H1507 H 0.06858 0.73219 0.57809 0.0
H1508 H 0.07809 0.70622 0.57865 0.0
H1509 H 0.05522 0.7047 0.57074 0.0
H1510 H 0.02896 0.65335 0.56771 0.0
H1511 H 0.05644 0.6362 0.56115 0.0
H1512 H 0.30174 0.25615 0.61662 0.0
H1513 H 0.32988 0.30091 0.61018 0.0
H1514 H 0.28716 0.26975 0.58721 0.0
H1515 H 0.25912 0.22502 0.59353 0.0
H1516 H 0.36203 0.31551 0.59265 0.0
H1517 H 0.27688 0.33691 0.59655 0.0
H1518 H 0.28055 0.31312 0.60308 0.0
H1519 H 0.26886 0.30394 0.59267 0.0
C1520 C 0.29867 0.25866 0.61016 0.0
C1521 C 0.27806 0.23697 0.60561 0.0
C1522 C 0.31478 0.28426 0.60649 0.0
C1523 C 0.31049 0.28862 0.59823 0.0
C1524 C 0.29076 0.26677 0.59359 0.0
H1525 H 0.38654 0.4248 0.56418 0.0
H1526 H 0.37044 0.38122 0.57127 0.0
C1527 C 0.27476 0.2412 0.59723 0.0
C1528 C 0.32497 0.31641 0.59463 0.0
H1529 H 0.31555 0.3694 0.58931 0.0
C1530 C 0.35198 0.32739 0.59193 0.0
C1531 C 0.31182 0.33186 0.59376 0.0
C1532 C 0.28296 0.32108 0.59669 0.0
C1533 C 0.36605 0.35338 0.58825 0.0
C1534 C 0.35267 0.36862 0.58723 0.0
C1535 C 0.32581 0.35772 0.59007 0.0
C1536 C 0.36583 0.39581 0.58317 0.0
C1537 C 0.39517 0.36445 0.58557 0.0
C1538 C 0.36886 0.41861 0.5875 0.0
C1539 C 0.37806 0.44354 0.58347 0.0
C1540 C 0.38421 0.44617 0.57499 0.0
C1541 C 0.38216 0.42356 0.57073 0.0
C1542 C 0.37302 0.39862 0.57478 0.0
H1543 H 0.40449 0.35341 0.58853 0.0
H1544 H 0.39576 0.36212 0.57878 0.0
H1545 H 0.40765 0.38646 0.58706 0.0
H1546 H 0.36335 0.41692 0.59397 0.0
H1547 H 0.37931 0.46045 0.58695 0.0
H1548 H 0.79648 0.05017 0.59332 0.0
H1549 H 0.75308 0.03506 0.58631 0.0
H1550 H 0.71261 0.0201 0.60987 0.0
H1551 H 0.75613 0.03604 0.61692 0.0
H1552 H 0.71042 0.98569 0.5867 0.0
H1553 H 0.67757 0.05672 0.59817 0.0
H1554 H 0.7118 0.06298 0.59959 0.0
H1555 H 0.68489 0.04028 0.60641 0.0
C1556 C 0.77845 0.04424 0.59702 0.0
C1557 C 0.77984 0.04441 0.60569 0.0
C1558 C 0.75358 0.03552 0.59299 0.0
C1559 C 0.72946 0.02665 0.59753 0.0
C1560 C 0.73092 0.02747 0.6062 0.0
H1561 H 0.55827 0.92765 0.58596 0.0
H1562 H 0.60272 0.9554 0.59253 0.0
C1563 C 0.75587 0.03648 0.61024 0.0
C1564 C 0.70264 0.0143 0.59319 0.0
H1565 H 0.64329 0.01601 0.59158 0.0
C1566 C 0.69594 0.99261 0.5877 0.0
C1567 C 0.68355 0.02316 0.59449 0.0
C1568 C 0.6899 0.04724 0.59992 0.0
C1569 C 0.67064 0.97922 0.58366 0.0
C1570 C 0.65143 0.98774 0.58508 0.0
C1571 C 0.65806 0.0095 0.5905 0.0
C1572 C 0.62405 0.97353 0.58115 0.0
C1573 C 0.66429 0.9555 0.57805 0.0
C1574 C 0.62112 0.97514 0.5726 0.0
C1575 C 0.59567 0.95943 0.56882 0.0
C1576 C 0.57268 0.94168 0.57352 0.0
C1577 C 0.57552 0.94104 0.58214 0.0
C1578 C 0.60092 0.95691 0.58592 0.0
H1579 H 0.67944 0.94863 0.57866 0.0
H1580 H 0.64373 0.93805 0.57942 0.0
H1581 H 0.66432 0.96162 0.57154 0.0
H1582 H 0.63869 0.98801 0.56882 0.0
H1583 H 0.59425 0.9604 0.56217 0.0
H1584 H 0.72141 0.63391 0.73222 0.0
H1585 H 0.70537 0.66148 0.73934 0.0
H1586 H 0.68259 0.60808 0.76041 0.0
H1587 H 0.69841 0.58046 0.75336 0.0
H1588 H 0.64057 0.61583 0.7543 0.0
H1589 H 0.73556 0.7147 0.7592 0.0
H1590 H 0.73011 0.70142 0.74886 0.0
H1591 H 0.7357 0.68349 0.75706 0.0
C1592 C 0.71347 0.62834 0.73843 0.0
C1593 C 0.71119 0.60492 0.7422 0.0
C1594 C 0.70439 0.64418 0.74251 0.0
C1595 C 0.69293 0.63696 0.75044 0.0
C1596 C 0.69142 0.6141 0.75431 0.0
H1597 H 0.63258 0.7123 0.78505 0.0
H1598 H 0.65944 0.6952 0.77803 0.0
C1599 C 0.70053 0.59834 0.75026 0.0
C1600 C 0.68034 0.65165 0.75446 0.0
H1601 H 0.69389 0.71315 0.76239 0.0
C1602 C 0.65226 0.6371 0.75607 0.0
C1603 C 0.69562 0.67937 0.75682 0.0
C1604 C 0.72597 0.69571 0.75547 0.0
C1605 C 0.63899 0.64952 0.75989 0.0
C1606 C 0.65413 0.67734 0.76213 0.0
C1607 C 0.68229 0.69189 0.76062 0.0
C1608 C 0.64076 0.69128 0.7661 0.0
C1609 C 0.60885 0.63268 0.76161 0.0
C1610 C 0.62203 0.69561 0.76165 0.0
C1611 C 0.60675 0.70545 0.76562 0.0
C1612 C 0.60982 0.71114 0.77414 0.0
C1613 C 0.62968 0.70815 0.77849 0.0
C1614 C 0.64505 0.69837 0.77449 0.0
H1615 H 0.60124 0.61051 0.76097 0.0
H1616 H 0.60414 0.63672 0.76793 0.0
H1617 H 0.59762 0.63834 0.75717 0.0
H1618 H 0.61857 0.69049 0.75515 0.0
H1619 H 0.59172 0.70755 0.76207 0.0
H1620 H 0.38474 0.09178 0.73133 0.0
H1621 H 0.35737 0.04791 0.7383 0.0
H1622 H 0.40406 0.08132 0.76056 0.0
H1623 H 0.43152 0.12505 0.75366 0.0
H1624 H 0.40174 0.03331 0.75528 0.0
H1625 H 0.29831 0.02109 0.75646 0.0
H1626 H 0.31432 0.02953 0.74648 0.0
H1627 H 0.32864 0.05365 0.75478 0.0
C1628 C 0.38881 0.08996 0.73776 0.0
C1629 C 0.41039 0.11197 0.74192 0.0
C1630 C 0.37307 0.06486 0.74175 0.0
C1631 C 0.37853 0.06133 0.74998 0.0
C1632 C 0.39942 0.08356 0.75422 0.0
H1633 H 0.29846 0.92181 0.7833 0.0
H1634 H 0.31588 0.96635 0.77662 0.0
C1635 C 0.41509 0.1086 0.75026 0.0
C1636 C 0.36431 0.03399 0.75396 0.0
H1637 H 0.30201 0.98245 0.76019 0.0
C1638 C 0.37995 0.02226 0.75637 0.0
C1639 C 0.33589 0.01962 0.75543 0.0
C1640 C 0.31825 0.03163 0.75323 0.0
C1641 C 0.36795 0.99647 0.7601 0.0
C1642 C 0.33948 0.98181 0.76141 0.0
C1643 C 0.32381 0.99365 0.75913 0.0
C1644 C 0.32591 0.95411 0.76511 0.0
C1645 C 0.38588 0.9851 0.76268 0.0
C1646 C 0.32503 0.93227 0.76076 0.0
C1647 C 0.31503 0.90684 0.76454 0.0
C1648 C 0.30571 0.90268 0.77276 0.0
C1649 C 0.30547 0.92429 0.77697 0.0
C1650 C 0.31541 0.94976 0.77317 0.0
H1651 H 0.40776 1.00101 0.76277 0.0
H1652 H 0.38004 0.97571 0.7689 0.0
H1653 H 0.38325 0.96902 0.75825 0.0
H1654 H 0.33281 0.93513 0.75452 0.0
H1655 H 0.31547 0.8907 0.76109 0.0
H1656 H 0.92488 0.29591 0.73037 0.0
H1657 H 0.96861 0.31201 0.7374 0.0
H1658 H 0.93603 0.32823 0.75934 0.0
H1659 H 0.89244 0.3123 0.75239 0.0
H1660 H 0.98514 0.37292 0.75367 0.0
H1661 H 0.99331 0.27952 0.75625 0.0
H1662 H 0.98493 0.28641 0.74616 0.0
H1663 H 0.96127 0.27838 0.75451 0.0
C1664 C 0.92685 0.30239 0.73674 0.0
C1665 C 0.9051 0.30282 0.7408 0.0
C1666 C 0.95186 0.31152 0.74077 0.0
C1667 C 0.95557 0.32118 0.74893 0.0
C1668 C 0.93363 0.3208 0.75306 0.0
H1669 H 0.09268 0.38144 0.78307 0.0
H1670 H 0.04838 0.35453 0.77625 0.0
C1671 C 0.90867 0.31162 0.74907 0.0
C1672 C 0.98284 0.33391 0.75293 0.0
H1673 H 0.03253 0.3214 0.7599 0.0
C1674 C 0.99545 0.36161 0.75504 0.0
C1675 C 0.99623 0.31913 0.75477 0.0
C1676 C 0.98324 0.28915 0.75288 0.0
C1677 C 0.02118 0.37501 0.75882 0.0
C1678 C 0.0348 0.36039 0.76052 0.0
C1679 C 0.0221 0.33259 0.75854 0.0
C1680 C 0.06228 0.374 0.76437 0.0
C1681 C 0.03361 0.40474 0.76103 0.0
C1682 C 0.08493 0.39327 0.75988 0.0
C1683 C 0.11024 0.40855 0.76374 0.0
C1684 C 0.11344 0.40498 0.77219 0.0
C1685 C 0.09097 0.38472 0.77657 0.0
C1686 C 0.06563 0.36932 0.77268 0.0
H1687 H 0.01859 0.41183 0.76064 0.0
H1688 H 0.04213 0.40852 0.76738 0.0
H1689 H 0.05058 0.4171 0.75672 0.0
H1690 H 0.0828 0.39708 0.75345 0.0
H1691 H 0.12705 0.42392 0.76017 0.0
H1692 H 0.42987 0.30883 0.25342 0.0
H1693 H 0.40232 0.3251 0.2603 0.0
H1694 H 0.35767 0.31446 0.23777 0.0
H1695 H 0.38517 0.29803 0.23081 0.0
H1696 H 0.40079 0.37178 0.25518 0.0
H1697 H 0.29718 0.28064 0.25559 0.0
H1698 H 0.32759 0.2784 0.2541 0.0
H1699 H 0.31407 0.28881 0.24574 0.0
C1700 C 0.41387 0.30944 0.24995 0.0
C1701 C 0.40978 0.30211 0.24155 0.0
C1702 C 0.39816 0.31882 0.2539 0.0
C1703 C 0.3778 0.32086 0.24958 0.0
C1704 C 0.37296 0.31266 0.24127 0.0
H1705 H 0.31195 0.42605 0.26077 0.0
H1706 H 0.32925 0.39898 0.25413 0.0
C1707 C 0.38878 0.30335 0.23729 0.0
C1708 C 0.36342 0.33377 0.25359 0.0
H1709 H 0.30083 0.32268 0.25965 0.0
C1710 C 0.37895 0.36099 0.25617 0.0
C1711 C 0.33492 0.31967 0.25493 0.0
C1712 C 0.31739 0.29019 0.25251 0.0
C1713 C 0.36676 0.37457 0.25994 0.0
C1714 C 0.33825 0.36066 0.26114 0.0
C1715 C 0.32268 0.33333 0.25868 0.0
C1716 C 0.32456 0.37458 0.26491 0.0
C1717 C 0.38447 0.40375 0.26265 0.0
C1718 C 0.31544 0.36931 0.27312 0.0
C1719 C 0.30558 0.38485 0.27697 0.0
C1720 C 0.30453 0.40586 0.27265 0.0
C1721 C 0.31245 0.4101 0.2643 0.0
C1722 C 0.32241 0.39467 0.26048 0.0
H1723 H 0.40647 0.4102 0.2625 0.0
H1724 H 0.38106 0.41728 0.25847 0.0
H1725 H 0.37899 0.40665 0.269 0.0
H1726 H 0.31696 0.35389 0.27665 0.0
H1727 H 0.29969 0.38105 0.28341 0.0
H1728 H 0.62708 0.9263 0.2838 0.0
H1729 H 0.65393 0.96968 0.27655 0.0
H1730 H 0.62725 0.92817 0.25318 0.0
H1731 H 0.59969 0.88497 0.26038 0.0
H1732 H 0.69505 0.99045 0.26537 0.0
H1733 H 0.60276 0.98327 0.25115 0.0
H1734 H 0.60094 0.9603 0.25914 0.0
H1735 H 0.60722 0.95497 0.2486 0.0
C1736 C 0.62718 0.92636 0.27712 0.0
C1737 C 0.61098 0.90219 0.27268 0.0
C1738 C 0.64253 0.95121 0.27297 0.0
C1739 C 0.64208 0.95239 0.26431 0.0
C1740 C 0.62729 0.92799 0.25987 0.0
H1741 H 0.70898 0.0866 0.2289 0.0
H1742 H 0.69237 0.04228 0.23558 0.0
C1743 C 0.61171 0.90323 0.264 0.0
C1744 C 0.65613 0.97917 0.25995 0.0
H1745 H 0.64518 0.01951 0.24662 0.0
C1746 C 0.68412 0.99679 0.26128 0.0
C1747 C 0.64189 0.98765 0.25464 0.0
C1748 C 0.61151 0.9707 0.25335 0.0
C1749 C 0.69823 0.02238 0.25738 0.0
C1750 C 0.684 0.03063 0.25202 0.0
C1751 C 0.65612 0.01302 0.25066 0.0
C1752 C 0.69723 0.05791 0.24803 0.0
C1753 C 0.7283 0.04037 0.25894 0.0
C1754 C 0.70579 0.08148 0.2528 0.0
C1755 C 0.71511 0.10681 0.24899 0.0
C1756 C 0.71617 0.10912 0.24033 0.0
C1757 C 0.70862 0.08562 0.23558 0.0
C1758 C 0.69904 0.06024 0.23939 0.0
H1759 H 0.73742 0.02891 0.26176 0.0
H1760 H 0.73922 0.04986 0.2531 0.0
H1761 H 0.73149 0.05698 0.26323 0.0
H1762 H 0.70421 0.08014 0.25946 0.0
H1763 H 0.72065 0.12444 0.25285 0.0
H1764 H 0.9295 0.62328 0.22944 0.0
H1765 H 0.97303 0.65038 0.23659 0.0
H1766 H 0.93169 0.62672 0.26005 0.0
H1767 H 0.88831 0.5989 0.25296 0.0
H1768 H 0.99452 0.69264 0.24736 0.0
H1769 H 0.98578 0.60114 0.26266 0.0
H1770 H 0.96289 0.5989 0.25459 0.0
H1771 H 0.95793 0.60654 0.26502 0.0
C1772 C 0.92962 0.62412 0.23612 0.0
C1773 C 0.90544 0.60866 0.24063 0.0
C1774 C 0.95456 0.6396 0.2402 0.0
C1775 C 0.95583 0.64004 0.24887 0.0
C1776 C 0.93144 0.62605 0.25337 0.0
H1777 H 0.09125 0.70827 0.28392 0.0
H1778 H 0.04676 0.6917 0.27734 0.0
C1779 C 0.90657 0.61033 0.2493 0.0
C1780 C 0.98267 0.65416 0.25319 0.0
H1781 H 0.02271 0.64369 0.26679 0.0
C1782 C 1.00066 0.68191 0.2516 0.0
C1783 C 0.99089 0.64018 0.2587 0.0
C1784 C 0.9735 0.61 0.26029 0.0
C1785 C 0.02638 0.69604 0.25543 0.0
C1786 C 0.0344 0.68207 0.26097 0.0
C1787 C 0.0164 0.65444 0.2626 0.0
C1788 C 0.06182 0.69525 0.26488 0.0
C1789 C 0.04476 0.72586 0.25358 0.0
C1790 C 0.08514 0.70305 0.26005 0.0
C1791 C 0.11056 0.71236 0.26379 0.0
C1792 C 0.11322 0.71414 0.27244 0.0
C1793 C 0.08999 0.70734 0.27724 0.0
C1794 C 0.06452 0.69777 0.2735 0.0
H1795 H 0.03347 0.73505 0.25069 0.0
H1796 H 0.05477 0.73731 0.2593 0.0
H1797 H 0.06096 0.72823 0.24924 0.0
H1798 H 0.08351 0.7009 0.2534 0.0
H1799 H 0.12798 0.71732 0.2599 0.0
H1800 H 0.05226 0.19604 0.1151 0.0
H1801 H 0.09156 0.18939 0.11398 0.0
H1802 H 0.07666 0.15633 0.1386 0.0
H1803 H 0.03726 0.16305 0.13983 0.0
H1804 H 0.14116 0.20411 0.12725 0.0
H1805 H 0.06744 0.09609 0.11917 0.0
H1806 H 0.05998 0.12311 0.11732 0.0
H1807 H 0.05955 0.11162 0.12765 0.0
C1808 C 0.05767 0.18794 0.12037 0.0
C1809 C 0.04148 0.17989 0.12754 0.0
C1810 C 0.08018 0.18422 0.1197 0.0
C1811 C 0.08684 0.17225 0.12618 0.0
C1812 C 0.07179 0.16566 0.13354 0.0
H1813 H 0.20556 0.12437 0.13483 0.0
H1814 H 0.17919 0.14764 0.13477 0.0
C1815 C 0.04935 0.16959 0.13424 0.0
C1816 C 0.10751 0.16395 0.12488 0.0
H1817 H 0.11368 0.10872 0.11996 0.0
C1818 C 0.13525 0.1833 0.12565 0.0
C1819 C 0.09966 0.1369 0.12265 0.0
C1820 C 0.07007 0.1156 0.1216 0.0
C1821 C 0.15539 0.17603 0.12445 0.0
C1822 C 0.14747 0.14876 0.12244 0.0
C1823 C 0.11973 0.12964 0.12146 0.0
C1824 C 0.16726 0.1389 0.12195 0.0
C1825 C 0.18495 0.19753 0.12532 0.0
C1826 C 0.16975 0.1266 0.11471 0.0
C1827 C 0.18503 0.11333 0.11472 0.0
C1828 C 0.19757 0.11172 0.12201 0.0
C1829 C 0.19612 0.12524 0.12911 0.0
C1830 C 0.18116 0.1387 0.12908 0.0
H1831 H 0.18798 0.21836 0.12461 0.0
H1832 H 0.1922 0.19604 0.13155 0.0
H1833 H 0.19767 0.19456 0.12068 0.0
H1834 H 0.159 0.12636 0.10916 0.0
H1835 H 0.18556 0.10291 0.10917 0.0
H1836 H 0.92041 0.08638 0.10922 0.0
H1837 H 0.89757 0.03644 0.10858 0.0
H1838 H 0.86803 0.03143 0.13342 0.0
H1839 H 0.89069 0.08099 0.1341 0.0
H1840 H 0.91228 0.00772 0.12 0.0
H1841 H 0.80134 0.97047 0.1212 0.0
H1842 H 0.82597 1.00454 0.11793 0.0
H1843 H 0.82106 0.99619 0.12872 0.0
C1844 C 0.90832 0.07458 0.11443 0.0
C1845 C 0.90742 0.0876 0.12171 0.0
C1846 C 0.8954 0.04608 0.11408 0.0
C1847 C 0.88096 0.03021 0.12094 0.0
C1848 C 0.87866 0.04318 0.12801 0.0
H1849 H 0.85472 0.87484 0.13827 0.0
H1850 H 0.86181 0.9211 0.1371 0.0
C1851 C 0.89177 0.07156 0.1284 0.0
C1852 C 0.8714 1.00061 0.12118 0.0
H1853 H 0.81529 0.93799 0.12437 0.0
C1854 C 0.89104 0.99246 0.12086 0.0
C1855 C 0.8437 0.98074 0.12235 0.0
C1856 C 0.82172 0.98832 0.1225 0.0
C1857 C 0.88381 0.96508 0.12189 0.0
C1858 C 0.85626 0.94535 0.1233 0.0
C1859 C 0.83645 0.95328 0.1234 0.0
C1860 C 0.84794 0.91631 0.12446 0.0
C1861 C 0.90567 0.95734 0.12154 0.0
C1862 C 0.83699 0.89816 0.11782 0.0
C1863 C 0.83307 0.87184 0.11844 0.0
C1864 C 0.83986 0.86313 0.12575 0.0
C1865 C 0.84918 0.88084 0.13257 0.0
C1866 C 0.85333 0.90729 0.13191 0.0
H1867 H 0.92556 0.97451 0.11946 0.0
H1868 H 0.90838 0.95087 0.12776 0.0
H1869 H 0.89952 0.93986 0.11728 0.0
H1870 H 0.83273 0.90479 0.11202 0.0
H1871 H 0.82574 0.85869 0.11308 0.0
H1872 H 0.93666 0.80881 0.1331 0.0
H1873 H 0.98631 0.83602 0.13259 0.0
H1874 H 0.98204 0.86071 0.10774 0.0
H1875 H 0.93208 0.83317 0.10816 0.0
H1876 H 0.02993 0.8415 0.11902 0.0
H1877 H 0.01488 0.93004 0.12492 0.0
H1878 H 0.98917 0.89568 0.12754 0.0
H1879 H 0.99503 0.90614 0.11694 0.0
C1880 C 0.94628 0.8194 0.12743 0.0
C1881 C 0.93047 0.81901 0.12068 0.0
C1882 C 0.97466 0.83488 0.12715 0.0
C1883 C 0.98775 0.85045 0.12015 0.0
C1884 C 0.97221 0.84872 0.11319 0.0
H1885 H 0.15798 0.96892 0.11196 0.0
H1886 H 0.11224 0.92928 0.11091 0.0
C1887 C 0.94372 0.83292 0.11342 0.0
C1888 C 0.01706 0.87107 0.12063 0.0
H1889 H 0.05987 0.93867 0.12441 0.0
C1890 C 0.03658 0.86279 0.12013 0.0
C1891 C 0.02551 0.89869 0.12221 0.0
C1892 C 1.00518 0.90838 0.12298 0.0
C1893 C 0.0645 0.88165 0.12113 0.0
C1894 C 0.07289 0.90927 0.12271 0.0
C1895 C 0.05332 0.91744 0.12323 0.0
C1896 C 0.10192 0.93037 0.1237 0.0
C1897 C 0.08483 0.87195 0.12065 0.0
C1898 C 0.11145 0.94382 0.13129 0.0
C1899 C 0.13769 0.96643 0.13193 0.0
C1900 C 0.15467 0.97625 0.12496 0.0
C1901 C 0.14543 0.96193 0.11746 0.0
C1902 C 0.11932 0.93918 0.11684 0.0
H1903 H 0.07481 0.84937 0.12077 0.0
H1904 H 0.09657 0.87933 0.11482 0.0
H1905 H 0.09952 0.88041 0.12585 0.0
H1906 H 0.09822 0.93738 0.13664 0.0
H1907 H 0.14408 0.97705 0.13778 0.0
H1908 H 0.11571 0.1937 0.40273 0.0
H1909 H 0.14067 0.16864 0.40302 0.0
H1910 H 0.13814 0.16432 0.37643 0.0
H1911 H 0.11392 0.18956 0.37607 0.0
H1912 H 0.11978 0.11693 0.39736 0.0
H1913 H 0.21552 0.18287 0.38061 0.0
H1914 H 0.19409 0.19543 0.38458 0.0
H1915 H 0.18635 0.17776 0.37484 0.0
C1916 C 0.12114 0.18804 0.39695 0.0
C1917 C 0.11271 0.19356 0.38938 0.0
C1918 C 0.13533 0.17365 0.39712 0.0
C1919 C 0.14162 0.16486 0.38974 0.0
C1920 C 0.13418 0.17139 0.3822 0.0
H1921 H 0.17376 0.03961 0.37332 0.0
H1922 H 0.16759 0.07933 0.37458 0.0
C1923 C 0.12003 0.18565 0.38202 0.0
C1924 C 0.15288 0.14614 0.38986 0.0
H1925 H 0.20153 0.13503 0.3812 0.0
C1926 C 0.13796 0.12112 0.39396 0.0
C1927 C 0.17647 0.15148 0.38536 0.0
C1928 C 0.19417 0.17848 0.38117 0.0
C1929 C 0.14526 0.10089 0.39339 0.0
C1930 C 0.16838 0.10592 0.3887 0.0
C1931 C 0.18375 0.13117 0.38476 0.0
C1932 C 0.17623 0.08474 0.38767 0.0
C1933 C 0.12752 0.07381 0.39756 0.0
C1934 C 0.18426 0.0754 0.39453 0.0
C1935 C 0.18777 0.05278 0.39383 0.0
C1936 C 0.18343 0.03907 0.38624 0.0
C1937 C 0.17724 0.04965 0.37925 0.0
C1938 C 0.17367 0.07232 0.37996 0.0
H1939 H 0.10753 0.07123 0.39947 0.0
H1940 H 0.12386 0.05674 0.3934 0.0
H1941 H 0.13799 0.07243 0.40317 0.0
H1942 H 0.1868 0.08499 0.4005 0.0
H1943 H 0.19283 0.04539 0.39934 0.0
H1944 H 0.97224 0.14482 0.37565 0.0
H1945 H 0.93217 0.09946 0.3771 0.0
H1946 H 0.93573 0.10915 0.40356 0.0
H1947 H 0.97587 0.15426 0.40218 0.0
H1948 H 0.93587 0.06314 0.39865 0.0
H1949 H 0.85214 0.06906 0.38301 0.0
H1950 H 0.88235 0.08169 0.37682 0.0
H1951 H 0.8832 0.09898 0.38623 0.0
C1952 C 0.9641 0.1376 0.38176 0.0
C1953 C 0.97743 0.15314 0.38879 0.0
C1954 C 0.94108 0.11167 0.38259 0.0
C1955 C 0.9308 0.10094 0.39044 0.0
C1956 C 0.94325 0.11701 0.39743 0.0
H1957 H 0.82175 0.92906 0.40433 0.0
H1958 H 0.84672 0.97899 0.4053 0.0
C1959 C 0.96624 0.14283 0.39662 0.0
C1960 C 0.90932 0.07195 0.39144 0.0
H1961 H 0.84518 0.02424 0.38538 0.0
C1962 C 0.91586 0.0547 0.39587 0.0
C1963 C 0.88327 0.06097 0.38779 0.0
C1964 C 0.87467 0.07868 0.38326 0.0
C1965 C 0.89761 0.02659 0.39642 0.0
C1966 C 0.87179 0.01543 0.39258 0.0
C1967 C 0.86491 0.03282 0.38836 0.0
C1968 C 0.85303 0.98552 0.39212 0.0
C1969 C 0.90675 0.0089 0.40072 0.0
C1970 C 0.84702 0.9727 0.38439 0.0
C1971 C 0.83263 0.94436 0.38382 0.0
C1972 C 0.82387 0.92809 0.39098 0.0
C1973 C 0.82834 0.94096 0.39871 0.0
C1974 C 0.84278 0.96948 0.39927 0.0
H1975 H 0.92905 0.01992 0.40187 0.0
H1976 H 0.89627 1.00227 0.40677 0.0
H1977 H 0.90142 0.99042 0.39701 0.0
H1978 H 0.85456 0.98462 0.37879 0.0
H1979 H 0.82932 0.9352 0.37775 0.0
H1980 H 0.09021 0.90683 0.40385 0.0
H1981 H 0.04033 0.88211 0.40497 0.0
H1982 H 0.03384 0.87326 0.37849 0.0
H1983 H 0.08315 0.89719 0.37734 0.0
H1984 H 1.00885 0.90072 0.39843 0.0
H1985 H 0.97544 0.79863 0.3855 0.0
H1986 H 0.01015 0.82129 0.38868 0.0
H1987 H 0.99853 0.82497 0.37867 0.0
C1988 C 0.07812 0.89891 0.3983 0.0
C1989 C 0.0907 0.90411 0.39051 0.0
C1990 C 0.04963 0.88487 0.39894 0.0
C1991 C 0.03327 0.87551 0.39182 0.0
C1992 C 0.04588 0.87963 0.38409 0.0
H1993 H 0.87482 0.83972 0.37574 0.0
H1994 H 0.92053 0.84563 0.37715 0.0
C1995 C 0.0742 0.89362 0.38345 0.0
C1996 C 1.00339 0.86466 0.39227 0.0
H1997 H 0.94213 0.81346 0.38525 0.0
C1998 C 0.99421 0.88138 0.3957 0.0
C1999 C 0.98427 0.83952 0.38864 0.0
C2000 C 0.99259 0.81997 0.38524 0.0
C2001 C 0.96671 0.87428 0.39526 0.0
C2002 C 0.94777 0.84958 0.3914 0.0
C2003 C 0.95673 0.83244 0.38817 0.0
C2004 C 0.91876 0.8419 0.39045 0.0
C2005 C 0.95834 0.89384 0.39864 0.0
C2006 C 0.90227 0.83674 0.39743 0.0
C2007 C 0.87623 0.83339 0.39665 0.0
C2008 C 0.86608 0.83503 0.38887 0.0
C2009 C 0.88198 0.83839 0.38182 0.0
C2010 C 0.90813 0.84179 0.38261 0.0
H2011 H 0.97616 0.91426 0.39992 0.0
H2012 H 0.94463 0.89622 0.39425 0.0
H2013 H 0.94707 0.88566 0.40451 0.0
H2014 H 0.90994 0.83632 0.40352 0.0
H2015 H 0.86447 0.83056 0.40221 0.0
H2016 H 0.81935 0.89612 0.90544 0.0
H2017 H 0.84416 0.87102 0.90647 0.0
H2018 H 0.85112 0.87184 0.87995 0.0
H2019 H 0.82604 0.89617 0.87885 0.0
H2020 H 0.84166 0.823 0.88678 0.0
H2021 H 0.92641 0.91193 0.90275 0.0
H2022 H 0.89382 0.8973 0.90775 0.0
H2023 H 0.8987 0.91369 0.8979 0.0
C2024 C 0.82572 0.89049 0.89983 0.0
C2025 C 0.82104 0.89853 0.89207 0.0
C2026 C 0.84006 0.87631 0.90043 0.0
C2027 C 0.85001 0.87007 0.89329 0.0
C2028 C 0.8438 0.87655 0.88554 0.0
H2029 H 0.96811 0.82805 0.87701 0.0
H2030 H 0.928 0.83331 0.87843 0.0
C2031 C 0.82952 0.89061 0.88494 0.0
C2032 C 0.86866 0.85879 0.89378 0.0
H2033 H 0.93283 0.87514 0.89973 0.0
C2034 C 0.86149 0.83423 0.88969 0.0
C2035 C 0.89462 0.87357 0.89752 0.0
C2036 C 0.90406 0.90069 0.90168 0.0
C2037 C 0.87969 0.82423 0.88917 0.0
C2038 C 0.90588 0.83937 0.89273 0.0
C2039 C 0.91271 0.86349 0.89702 0.0
C2040 C 0.9272 0.83161 0.89178 0.0
C2041 C 0.87077 0.79759 0.88479 0.0
C2042 C 0.93994 0.82858 0.8988 0.0
C2043 C 0.96296 0.82578 0.898 0.0
C2044 C 0.97386 0.82607 0.89017 0.0
C2045 C 0.96018 0.82757 0.88312 0.0
C2046 C 0.93714 0.83048 0.88393 0.0
H2047 H 0.84822 0.78477 0.88463 0.0
H2048 H 0.87816 0.80178 0.87832 0.0
H2049 H 0.87933 0.78593 0.8878 0.0
H2050 H 0.93267 0.82943 0.90492 0.0
H2051 H 0.97288 0.82454 0.90357 0.0
H2052 H 0.11617 0.92638 0.90304 0.0
H2053 H 0.14098 0.97637 0.90345 0.0
H2054 H 0.128 0.97873 0.87731 0.0
H2055 H 0.10383 0.92919 0.8768 0.0
H2056 H 0.17991 0.01873 0.88229 0.0
H2057 H 0.09911 0.01775 0.90205 0.0
H2058 H 0.11539 1.00003 0.90614 0.0
H2059 H 0.09491 0.98755 0.89698 0.0
C2060 C 0.11898 0.93756 0.89736 0.0
C2061 C 0.10768 0.92373 0.88991 0.0
C2062 C 0.13301 0.96612 0.89762 0.0
C2063 C 0.13588 0.98126 0.89043 0.0
C2064 C 0.12594 0.9675 0.88293 0.0
H2065 H 0.17422 0.14081 0.87438 0.0
H2066 H 0.16814 0.09504 0.87544 0.0
C2067 C 0.11199 0.93909 0.88267 0.0
C2068 C 0.14751 0.01126 0.89071 0.0
H2069 H 0.13477 0.06039 0.89794 0.0
C2070 C 0.17023 0.02791 0.88577 0.0
C2071 C 0.13474 0.02319 0.89522 0.0
C2072 C 0.10956 0.00628 0.90035 0.0
C2073 C 0.18037 0.05612 0.88517 0.0
C2074 C 0.16718 0.0679 0.88951 0.0
C2075 C 0.14492 0.05136 0.89462 0.0
C2076 C 0.17506 0.09704 0.88863 0.0
C2077 C 0.20509 0.07303 0.87988 0.0
C2078 C 0.18123 0.11354 0.89566 0.0
C2079 C 0.18449 0.1396 0.89509 0.0
C2080 C 0.18155 0.14973 0.88746 0.0
C2081 C 0.1768 0.13374 0.88034 0.0
C2082 C 0.17342 0.10756 0.88093 0.0
H2083 H 0.21744 0.06296 0.87904 0.0
H2084 H 0.19839 0.07567 0.87368 0.0
H2085 H 0.21817 0.09352 0.8826 0.0
H2086 H 0.18256 0.10586 0.90166 0.0
H2087 H 0.18826 0.15137 0.90069 0.0
H2088 H 0.08564 0.18307 0.90336 0.0
H2089 H 0.03564 0.15569 0.90354 0.0
H2090 H 0.03361 0.16963 0.87746 0.0
H2091 H 0.08321 0.19663 0.87721 0.0
H2092 H 0.99023 0.16446 0.89744 0.0
H2093 H 1.00134 0.0855 0.88033 0.0
H2094 H 0.02935 0.11324 0.88571 0.0
H2095 H 0.01859 0.11897 0.87586 0.0
C2096 C 0.07448 0.18088 0.89772 0.0
C2097 C 0.08839 0.19169 0.89025 0.0
C2098 C 0.04594 0.1652 0.89782 0.0
C2099 C 0.03103 0.16027 0.89048 0.0
C2100 C 0.04478 0.17287 0.88317 0.0
H2101 H 0.86736 0.03836 0.87562 0.0
H2102 H 0.91292 0.07865 0.87598 0.0
C2103 C 0.07314 0.18832 0.88305 0.0
C2104 C 1.00156 0.13987 0.89019 0.0
H2105 H 0.95671 0.07734 0.8823 0.0
C2106 C 0.98282 0.14537 0.89415 0.0
C2107 C 0.99201 0.11503 0.88588 0.0
C2108 C 0.01132 0.10761 0.88175 0.0
C2109 C 0.95464 0.12677 0.8938 0.0
C2110 C 0.94512 0.10188 0.88949 0.0
C2111 C 0.96396 0.0965 0.88553 0.0
C2112 C 0.91594 0.08032 0.88931 0.0
C2113 C 0.93533 0.13413 0.89792 0.0
C2114 C 0.90226 0.06815 0.89668 0.0
C2115 C 0.87622 0.04519 0.8965 0.0
C2116 C 0.86335 0.0337 0.88893 0.0
C2117 C 0.8766 0.04665 0.88156 0.0
C2118 C 0.90269 0.06967 0.88175 0.0
H2119 H 0.94468 0.15652 0.89867 0.0
H2120 H 0.91617 0.12639 0.89433 0.0
H2121 H 0.93014 0.12482 0.90415 0.0
H2122 H 0.91223 0.07557 0.90258 0.0
H2123 H 0.86669 0.03578 0.9023 0.0
H2124 H 0.84036 0.96997 0.63706 0.0
H2125 H 0.8468 0.93049 0.63564 0.0
H2126 H 0.83573 0.93063 0.60932 0.0
H2127 H 0.82959 0.97013 0.61065 0.0
H2128 H 0.81554 0.87686 0.62817 0.0
H2129 H 0.91355 0.94289 0.61201 0.0
H2130 H 0.89567 0.95659 0.61767 0.0
H2131 H 0.88417 0.9422 0.60758 0.0
C2132 C 0.83877 0.96129 0.63099 0.0
C2133 C 0.83484 0.97348 0.62396 0.0
C2134 C 0.84249 0.93874 0.63019 0.0
C2135 C 0.8423 0.92801 0.62235 0.0
C2136 C 0.83649 0.93894 0.6154 0.0
H2137 H 0.9054 0.82073 0.60797 0.0
H2138 H 0.88032 0.84563 0.60738 0.0
C2139 C 0.83289 0.96149 0.61619 0.0
C2140 C 0.85025 0.90687 0.62138 0.0
H2141 H 0.90053 0.89679 0.6136 0.0
C2142 C 0.83403 0.88112 0.62495 0.0
C2143 C 0.87435 0.91245 0.61714 0.0
C2144 C 0.89312 0.94007 0.61343 0.0
C2145 C 0.84138 0.86085 0.62444 0.0
C2146 C 0.86586 0.8667 0.62039 0.0
C2147 C 0.88167 0.89222 0.61664 0.0
C2148 C 0.87699 0.84788 0.62063 0.0
C2149 C 0.82284 0.83338 0.62824 0.0
C2150 C 0.88307 0.84049 0.62826 0.0
C2151 C 0.89731 0.82633 0.62861 0.0
C2152 C 0.90604 0.81937 0.62134 0.0
C2153 C 0.89887 0.82566 0.61368 0.0
C2154 C 0.88461 0.83995 0.61334 0.0
H2155 H 0.80145 0.82902 0.62847 0.0
H2156 H 0.82349 0.81683 0.62476 0.0
H2157 H 0.82947 0.83324 0.63468 0.0
H2158 H 0.87802 0.84687 0.63398 0.0
H2159 H 0.90243 0.82182 0.63462 0.0
H2160 H 0.20224 0.0838 0.63498 0.0
H2161 H 0.17637 0.0342 0.63477 0.0
H2162 H 0.16385 0.03549 0.60856 0.0
H2163 H 0.19012 0.08548 0.6087 0.0
H2164 H 0.12183 0.00794 0.63004 0.0
H2165 H 0.18 0.97233 0.61124 0.0
H2166 H 0.19565 1.00589 0.61582 0.0
H2167 H 0.17545 0.99864 0.60663 0.0
C2168 C 0.19456 0.07359 0.62912 0.0
C2169 C 0.19804 0.08861 0.62186 0.0
C2170 C 0.17979 0.04519 0.62902 0.0
C2171 C 0.16819 0.03111 0.62166 0.0
C2172 C 0.17297 0.04592 0.61429 0.0
H2173 H 0.04118 0.86809 0.61019 0.0
H2174 H 0.08046 0.91404 0.60994 0.0
C2175 C 0.18795 0.07449 0.61438 0.0
C2176 C 0.14828 1.00147 0.62199 0.0
H2177 H 0.13465 0.93914 0.61488 0.0
C2178 C 0.12475 0.99287 0.62678 0.0
C2179 C 0.15203 0.9819 0.61767 0.0
C2180 C 0.17723 0.99002 0.61259 0.0
C2181 C 0.10461 0.96533 0.62727 0.0
C2182 C 0.10837 0.94564 0.62301 0.0
C2183 C 0.13193 0.95421 0.61821 0.0
C2184 C 0.08718 0.91633 0.62313 0.0
C2185 C 0.07904 0.95773 0.63213 0.0
C2186 C 0.07856 0.90185 0.63059 0.0
C2187 C 0.05588 0.87554 0.63078 0.0
C2188 C 0.04158 0.86314 0.62348 0.0
C2189 C 0.05153 0.87703 0.61594 0.0
C2190 C 0.07407 0.90334 0.61578 0.0
H2191 H 0.07646 0.97563 0.63328 0.0
H2192 H 0.06071 0.94199 0.62884 0.0
H2193 H 0.08019 0.94932 0.6382 0.0
H2194 H 0.08879 0.91127 0.63632 0.0
H2195 H 0.04897 0.86538 0.63668 0.0
H2196 H 0.15009 0.18206 0.6381 0.0
H2197 H 0.10401 0.17556 0.63782 0.0
H2198 H 0.1028 0.16917 0.61129 0.0
H2199 H 0.14891 0.1763 0.61147 0.0
H2200 H 0.07702 0.1969 0.61681 0.0
H2201 H 0.04022 0.09932 0.63364 0.0
H2202 H 0.06606 0.1286 0.639 0.0
H2203 H 0.07411 0.11818 0.62941 0.0
C2204 C 0.14023 0.17977 0.6322 0.0
C2205 C 0.15312 0.17932 0.62482 0.0
C2206 C 0.11381 0.17588 0.63205 0.0
C2207 C 0.09971 0.17121 0.62454 0.0
C2208 C 0.11319 0.17253 0.61715 0.0
H2209 H 0.93107 0.10653 0.60956 0.0
H2210 H 0.98108 0.13022 0.60964 0.0
C2211 C 0.13959 0.17656 0.61728 0.0
C2212 C 0.07034 0.16287 0.62438 0.0
H2213 H 1.0078 0.11252 0.63071 0.0
C2214 C 0.06186 0.1785 0.61987 0.0
C2215 C 0.05054 0.13865 0.62828 0.0
C2216 C 0.05807 0.12004 0.63279 0.0
C2217 C 0.03414 0.17076 0.61928 0.0
C2218 C 0.01445 0.14667 0.62323 0.0
C2219 C 0.02296 0.1311 0.62773 0.0
C2220 C 0.98479 0.13684 0.62285 0.0
C2221 C 0.02612 0.18853 0.61453 0.0
C2222 C 0.97034 0.13317 0.63021 0.0
C2223 C 0.94195 0.11958 0.63018 0.0
C2224 C 0.92729 0.10924 0.62279 0.0
C2225 C 0.94178 0.11441 0.61534 0.0
C2226 C 0.97035 0.12798 0.61537 0.0
H2227 H 0.04377 0.20922 0.61346 0.0
H2228 H 0.01779 0.17907 0.60844 0.0
H2229 H 0.01004 0.19046 0.61787 0.0
H2230 H 0.98104 0.13984 0.63604 0.0
H2231 H 0.93145 0.11615 0.63603 0.0
H2232 H 0.70528 0.50189 0.47258 0.0
H2233 H 0.74557 0.49668 0.47159 0.0
H2234 H 0.75277 0.51666 0.4457 0.0
H2235 H 0.71264 0.5218 0.44659 0.0
H2236 H 0.74999 0.46709 0.4491 0.0
H2237 H 0.82791 0.54952 0.46867 0.0
H2238 H 0.79529 0.52972 0.47354 0.0
H2239 H 0.7985 0.55027 0.4647 0.0
C2240 C 0.71581 0.50582 0.46672 0.0
C2241 C 0.70556 0.51208 0.45966 0.0
C2242 C 0.73891 0.50292 0.46617 0.0
C2243 C 0.75227 0.50643 0.45858 0.0
C2244 C 0.74283 0.51392 0.45162 0.0
H2245 H 0.86632 0.45038 0.44396 0.0
H2246 H 0.84059 0.47466 0.44348 0.0
C2247 C 0.71983 0.51683 0.45216 0.0
C2248 C 0.77405 0.49933 0.45766 0.0
H2249 H 0.83651 0.51381 0.46483 0.0
C2250 C 0.7691 0.47754 0.45244 0.0
C2251 C 0.79888 0.51296 0.46204 0.0
C2252 C 0.80567 0.53709 0.4675 0.0
C2253 C 0.78774 0.46817 0.45178 0.0
C2254 C 0.81241 0.48144 0.45629 0.0
C2255 C 0.8177 0.50377 0.46133 0.0
C2256 C 0.83144 0.47056 0.45656 0.0
C2257 C 0.78013 0.44325 0.44658 0.0
C2258 C 0.83615 0.46159 0.46411 0.0
C2259 C 0.85103 0.4481 0.46441 0.0
C2260 C 0.86158 0.44317 0.45715 0.0
C2261 C 0.85833 0.45366 0.44964 0.0
C2262 C 0.84343 0.46734 0.44936 0.0
H2263 H 0.75813 0.43215 0.44498 0.0
H2264 H 0.79191 0.44952 0.44074 0.0
H2265 H 0.78499 0.429 0.44985 0.0
H2266 H 0.82727 0.46397 0.46975 0.0
H2267 H 0.85335 0.44061 0.47033 0.0
H2268 H 0.49105 0.19375 0.44577 0.0
H2269 H 0.4972 0.23945 0.44443 0.0
H2270 H 0.52494 0.25704 0.46963 0.0
H2271 H 0.5187 0.21118 0.47108 0.0
H2272 H 0.47844 0.27261 0.45661 0.0
H2273 H 0.58899 0.31024 0.45183 0.0
H2274 H 0.56328 0.27544 0.44967 0.0
H2275 H 0.57185 0.28666 0.46015 0.0
C2276 C 0.4979 0.20709 0.4511 0.0
C2277 C 0.50458 0.19886 0.45852 0.0
C2278 C 0.50133 0.23318 0.45031 0.0
C2279 C 0.51165 0.25158 0.45691 0.0
C2280 C 0.51691 0.24303 0.46447 0.0
H2281 H 0.55256 0.41576 0.46598 0.0
H2282 H 0.5297 0.3662 0.46528 0.0
C2283 C 0.51326 0.2168 0.46529 0.0
C2284 C 0.51959 0.28046 0.4556 0.0
H2285 H 0.57511 0.343 0.45211 0.0
C2286 C 0.49953 0.28805 0.45561 0.0
C2287 C 0.54704 0.30036 0.45415 0.0
C2288 C 0.56916 0.29296 0.4539 0.0
C2289 C 0.50644 0.31537 0.45443 0.0
C2290 C 0.53406 0.33543 0.45323 0.0
C2291 C 0.55393 0.32759 0.45299 0.0
C2292 C 0.54333 0.36498 0.4529 0.0
C2293 C 0.48419 0.32257 0.45448 0.0
C2294 C 0.55815 0.38085 0.44609 0.0
C2295 C 0.5712 0.40936 0.44645 0.0
C2296 C 0.57002 0.42236 0.4537 0.0
C2297 C 0.55383 0.40633 0.46031 0.0
C2298 C 0.54062 0.37795 0.45991 0.0
H2299 H 0.46399 0.30455 0.45312 0.0
H2300 H 0.48315 0.33027 0.46069 0.0
H2301 H 0.48838 0.33878 0.44991 0.0
H2302 H 0.56065 0.37122 0.44064 0.0
H2303 H 0.58373 0.42116 0.4413 0.0
H2304 H 0.82354 0.30817 0.44379 0.0
H2305 H 0.77802 0.26882 0.44208 0.0
H2306 H 0.7668 0.26345 0.46846 0.0
H2307 H 0.81257 0.30286 0.47027 0.0
H2308 H 0.7449 0.21101 0.45958 0.0
H2309 H 0.71219 0.28063 0.4463 0.0
H2310 H 0.74121 0.28151 0.44152 0.0
H2311 H 0.74357 0.29298 0.45198 0.0
C2312 C 0.81163 0.2984 0.44926 0.0
C2313 C 0.82162 0.30893 0.45718 0.0
C2314 C 0.78557 0.27592 0.44825 0.0
C2315 C 0.76887 0.26357 0.45513 0.0
C2316 C 0.77936 0.27282 0.46307 0.0
H2317 H 0.60376 0.1541 0.46733 0.0
H2318 H 0.65312 0.17906 0.46632 0.0
C2319 C 0.80554 0.29532 0.4641 0.0
C2320 C 0.73982 0.24261 0.45399 0.0
H2321 H 0.67917 0.23432 0.44716 0.0
C2322 C 0.73052 0.21601 0.45682 0.0
C2323 C 0.72114 0.24916 0.45034 0.0
C2324 C 0.72986 0.27764 0.44741 0.0
C2325 C 0.70292 0.19582 0.45617 0.0
C2326 C 0.68408 0.20261 0.45275 0.0
C2327 C 0.6936 0.22903 0.44972 0.0
C2328 C 0.65414 0.18376 0.45305 0.0
C2329 C 0.69424 0.16742 0.45914 0.0
C2330 C 0.63803 0.17792 0.44591 0.0
C2331 C 0.60951 0.16369 0.44647 0.0
C2332 C 0.59668 0.1554 0.4542 0.0
C2333 C 0.61292 0.16022 0.46127 0.0
C2334 C 0.64127 0.17431 0.4607 0.0
H2335 H 0.71126 0.16308 0.45874 0.0
H2336 H 0.68807 0.16556 0.46572 0.0
H2337 H 0.67674 0.15182 0.45553 0.0
H2338 H 0.64754 0.18521 0.43994 0.0
H2339 H 0.59762 0.16045 0.44092 0.0
H2340 H 0.81514 0.55466 0.72047 0.0
H2341 H 0.83789 0.52756 0.72034 0.0
H2342 H 0.77138 0.46469 0.73435 0.0
H2343 H 0.74988 0.49282 0.73504 0.0
H2344 H 0.81441 0.46428 0.73836 0.0
H2345 H 0.81412 0.46828 0.7042 0.0
H2346 H 0.83501 0.50123 0.70868 0.0
H2347 H 0.79876 0.48318 0.71047 0.0
C2348 C 0.80599 0.53548 0.72378 0.0
C2349 C 0.78089 0.52582 0.7278 0.0
C2350 C 0.8187 0.51975 0.72357 0.0
C2351 C 0.80583 0.49348 0.72702 0.0
C2352 C 0.78169 0.48473 0.73156 0.0
H2353 H 0.81584 0.35528 0.70961 0.0
H2354 H 0.80883 0.39408 0.71157 0.0
C2355 C 0.76945 0.50088 0.73201 0.0
C2356 C 0.81631 0.47438 0.72548 0.0
H2357 H 0.83477 0.44521 0.71018 0.0
C2358 C 0.81885 0.46012 0.7322 0.0
C2359 C 0.82166 0.46845 0.71741 0.0
C2360 C 0.81698 0.48086 0.70978 0.0
C2361 C 0.82597 0.43986 0.73108 0.0
C2362 C 0.83226 0.43464 0.72304 0.0
C2363 C 0.8303 0.44933 0.71635 0.0
C2364 C 0.83881 0.41265 0.72132 0.0
C2365 C 0.82518 0.42338 0.7385 0.0
C2366 C 0.85882 0.41058 0.72586 0.0
C2367 C 0.86228 0.38796 0.7249 0.0
C2368 C 0.84666 0.36758 0.71911 0.0
C2369 C 0.82833 0.3708 0.71407 0.0
C2370 C 0.82425 0.39297 0.71522 0.0
H2371 H 0.81221 0.42425 0.7435 0.0
H2372 H 0.81723 0.40169 0.73685 0.0
H2373 H 0.84606 0.43183 0.74101 0.0
H2374 H 0.8712 0.426 0.73035 0.0
H2375 H 0.8767 0.38603 0.72882 0.0
H2376 H 0.46495 0.26443 0.71766 0.0
H2377 H 0.49164 0.31426 0.71719 0.0
H2378 H 0.55015 0.31295 0.73395 0.0
H2379 H 0.52223 0.26336 0.73494 0.0
H2380 H 0.54854 0.35611 0.73672 0.0
H2381 H 0.55575 0.34967 0.70278 0.0
H2382 H 0.52144 0.33736 0.70612 0.0
H2383 H 0.5392 0.31981 0.70918 0.0
C2384 C 0.48304 0.27498 0.72146 0.0
C2385 C 0.49154 0.26021 0.72637 0.0
C2386 C 0.49857 0.3034 0.72107 0.0
C2387 C 0.5236 0.31743 0.72525 0.0
C2388 C 0.5311 0.30272 0.73059 0.0
H2389 H 0.66579 0.46545 0.71001 0.0
H2390 H 0.62663 0.41962 0.71143 0.0
C2391 C 0.51506 0.27436 0.73121 0.0
C2392 C 0.54277 0.34699 0.72373 0.0
H2393 H 0.57622 0.39377 0.7085 0.0
C2394 C 0.55459 0.36432 0.73055 0.0
C2395 C 0.55114 0.35777 0.71567 0.0
C2396 C 0.54145 0.34013 0.70803 0.0
C2397 C 0.57483 0.39175 0.72956 0.0
C2398 C 0.5825 0.40275 0.72149 0.0
C2399 C 0.5702 0.38557 0.71468 0.0
C2400 C 0.60475 0.43128 0.71996 0.0
C2401 C 0.5887 0.40807 0.73721 0.0
C2402 C 0.60515 0.45351 0.72396 0.0
C2403 C 0.62794 0.47962 0.72332 0.0
C2404 C 0.65022 0.48423 0.71838 0.0
C2405 C 0.64879 0.46252 0.7138 0.0
C2406 C 0.62641 0.43627 0.71465 0.0
H2407 H 0.58634 0.39467 0.74252 0.0
H2408 H 0.61079 0.42193 0.73614 0.0
H2409 H 0.5793 0.42043 0.73897 0.0
H2410 H 0.58827 0.45055 0.7278 0.0
H2411 H 0.62848 0.49608 0.72688 0.0
H2412 H 0.75553 0.24796 0.73752 0.0
H2413 H 0.70562 0.22527 0.73811 0.0
H2414 H 0.70063 0.19284 0.71368 0.0
H2415 H 0.75018 0.21532 0.71306 0.0
H2416 H 0.6777 0.2393 0.72638 0.0
H2417 H 0.63872 0.12801 0.72611 0.0
H2418 H 0.67296 0.1525 0.7293 0.0
H2419 H 0.66455 0.14665 0.71851 0.0
C2420 C 0.74374 0.23521 0.73241 0.0
C2421 C 0.75676 0.2335 0.72524 0.0
C2422 C 0.71525 0.22238 0.73273 0.0
C2423 C 0.6994 0.20725 0.72595 0.0
C2424 C 0.71237 0.20402 0.71903 0.0
H2425 H 0.54597 0.18566 0.70828 0.0
H2426 H 0.59195 0.19209 0.70948 0.0
C2427 C 0.74074 0.21702 0.71867 0.0
C2428 C 0.66991 0.19811 0.72556 0.0
H2429 H 0.60694 0.14244 0.72244 0.0
C2430 C 0.66221 0.2181 0.72561 0.0
C2431 C 0.64974 0.17044 0.72452 0.0
C2432 C 0.65681 0.1481 0.72467 0.0
C2433 C 0.63501 0.21126 0.72443 0.0
C2434 C 0.61498 0.18373 0.72313 0.0
C2435 C 0.62246 0.16358 0.72332 0.0
C2436 C 0.58606 0.17575 0.72185 0.0
C2437 C 0.6278 0.23353 0.72458 0.0
C2438 C 0.56731 0.16347 0.72828 0.0
C2439 C 0.54113 0.15987 0.72764 0.0
C2440 C 0.53315 0.16832 0.72051 0.0
C2441 C 0.55141 0.17887 0.71384 0.0
C2442 C 0.57772 0.18268 0.71453 0.0
H2443 H 0.64479 0.25306 0.72694 0.0
H2444 H 0.62287 0.23695 0.71822 0.0
H2445 H 0.60954 0.22747 0.72848 0.0
H2446 H 0.57338 0.15795 0.73397 0.0
H2447 H 0.52752 0.15154 0.73287 0.0
H2448 H 0.64148 0.16979 0.20965 0.0
H2449 H 0.60179 0.17584 0.21115 0.0
H2450 H 0.60352 0.16657 0.23751 0.0
H2451 H 0.64318 0.16075 0.23611 0.0
H2452 H 0.54843 0.14421 0.21911 0.0
H2453 H 0.61498 0.24419 0.23422 0.0
H2454 H 0.62853 0.22616 0.22857 0.0
H2455 H 0.61514 0.21539 0.23879 0.0
C2456 C 0.63311 0.16851 0.21575 0.0
C2457 C 0.64578 0.16515 0.22276 0.0
C2458 C 0.61044 0.17199 0.2166 0.0
C2459 C 0.60007 0.17217 0.22446 0.0
C2460 C 0.61151 0.16699 0.23141 0.0
H2461 H 0.49311 0.2362 0.23836 0.0
H2462 H 0.51831 0.21147 0.23926 0.0
C2463 C 0.63416 0.16359 0.23058 0.0
C2464 C 0.57878 0.1799 0.22546 0.0
H2465 H 0.56875 0.23072 0.23277 0.0
C2466 C 0.55277 0.16303 0.22213 0.0
C2467 C 0.58447 0.2044 0.22945 0.0
C2468 C 0.61232 0.22375 0.23292 0.0
C2469 C 0.53235 0.17016 0.22264 0.0
C2470 C 0.53831 0.19509 0.22642 0.0
C2471 C 0.5641 0.21154 0.22993 0.0
C2472 C 0.51931 0.206 0.22606 0.0
C2473 C 0.5046 0.15092 0.21912 0.0
C2474 C 0.51113 0.21077 0.21837 0.0
C2475 C 0.49678 0.22478 0.21785 0.0
C2476 C 0.49045 0.23463 0.225 0.0
C2477 C 0.49754 0.22879 0.23274 0.0
C2478 C 0.51201 0.21473 0.23326 0.0
H2479 H 0.50038 0.12956 0.2192 0.0
H2480 H 0.48827 0.15199 0.2226 0.0
H2481 H 0.50387 0.15647 0.2126 0.0
H2482 H 0.51702 0.20487 0.21272 0.0
H2483 H 0.49163 0.22886 0.21178 0.0
H2484 H 0.78431 0.2594 0.23771 0.0
H2485 H 0.80891 0.30934 0.23861 0.0
H2486 H 0.80588 0.31456 0.21212 0.0
H2487 H 0.78207 0.26514 0.21114 0.0
H2488 H 0.85486 0.35453 0.21854 0.0
H2489 H 0.76693 0.34973 0.23535 0.0
H2490 H 0.78241 0.33236 0.2402 0.0
H2491 H 0.76516 0.32027 0.23049 0.0
C2492 C 0.78937 0.27122 0.23208 0.0
C2493 C 0.78085 0.25823 0.22437 0.0
C2494 C 0.80324 0.29975 0.2326 0.0
C2495 C 0.80869 0.31567 0.22544 0.0
C2496 C 0.80177 0.30274 0.21773 0.0
H2497 H 0.84784 0.4752 0.20919 0.0
H2498 H 0.84237 0.42971 0.2105 0.0
C2499 C 0.78802 0.27439 0.2172 0.0
C2500 C 0.81964 0.34557 0.22588 0.0
H2501 H 0.80312 0.39307 0.23209 0.0
C2502 C 0.84372 0.36303 0.22158 0.0
C2503 C 0.80497 0.35661 0.22978 0.0
C2504 C 0.77832 0.33884 0.23416 0.0
C2505 C 0.85333 0.39115 0.22101 0.0
C2506 C 0.83829 0.40203 0.22475 0.0
C2507 C 0.81467 0.3847 0.22924 0.0
C2508 C 0.84572 0.43103 0.22382 0.0
C2509 C 0.87945 0.40895 0.21641 0.0
C2510 C 0.84966 0.44703 0.23086 0.0
C2511 C 0.85261 0.47292 0.23013 0.0
C2512 C 0.85153 0.48339 0.22234 0.0
C2513 C 0.84893 0.46787 0.21527 0.0
C2514 C 0.84591 0.44187 0.21601 0.0
H2515 H 0.89238 0.39937 0.21604 0.0
H2516 H 0.87454 0.41206 0.21001 0.0
H2517 H 0.8913 0.4292 0.2194 0.0
H2518 H 0.84953 0.43908 0.23695 0.0
H2519 H 0.8547 0.48431 0.23572 0.0
H2520 H 0.75412 0.51821 0.23657 0.0
H2521 H 0.70408 0.49136 0.23637 0.0
H2522 H 0.70458 0.50304 0.21007 0.0
H2523 H 0.75421 0.5295 0.21019 0.0
H2524 H 0.65982 0.50037 0.22943 0.0
H2525 H 0.67076 0.41909 0.21374 0.0
H2526 H 0.69858 0.44706 0.21911 0.0
H2527 H 0.68881 0.45214 0.20901 0.0
C2528 C 0.7435 0.51563 0.23079 0.0
C2529 C 0.75812 0.52565 0.22338 0.0
C2530 C 0.71495 0.50025 0.23068 0.0
C2531 C 0.70072 0.49484 0.22317 0.0
C2532 C 0.7152 0.50664 0.2159 0.0
H2533 H 0.53755 0.37289 0.20782 0.0
H2534 H 0.58326 0.41298 0.20818 0.0
C2535 C 0.74359 0.52178 0.21599 0.0
C2536 C 0.67118 0.47475 0.22274 0.0
H2537 H 0.62626 0.4118 0.21514 0.0
C2538 C 0.6524 0.48097 0.22632 0.0
C2539 C 0.66162 0.44951 0.21866 0.0
C2540 C 0.68093 0.44133 0.21496 0.0
C2541 C 0.62418 0.46267 0.22582 0.0
C2542 C 0.61464 0.43736 0.22175 0.0
C2543 C 0.63353 0.43129 0.21817 0.0
C2544 C 0.58537 0.41604 0.2215 0.0
C2545 C 0.60486 0.47078 0.22952 0.0
C2546 C 0.57113 0.40474 0.22886 0.0
C2547 C 0.54501 0.38191 0.22868 0.0
C2548 C 0.53262 0.36966 0.22113 0.0
C2549 C 0.54642 0.38178 0.21374 0.0
C2550 C 0.57258 0.40468 0.21394 0.0
H2551 H 0.61443 0.49327 0.23002 0.0
H2552 H 0.58596 0.46288 0.22579 0.0
H2553 H 0.59916 0.46216 0.23583 0.0
H2554 H 0.58072 0.41271 0.23478 0.0
H2555 H 0.53505 0.37315 0.2345 0.0
H2556 H 0.56561 0.1566 0.96888 0.0
H2557 H 0.54168 0.18204 0.96779 0.0
H2558 H 0.54577 0.17999 0.94123 0.0
H2559 H 0.57039 0.1547 0.94228 0.0
H2560 H 0.56591 0.23136 0.94725 0.0
H2561 H 0.46577 0.16475 0.96167 0.0
H2562 H 0.49321 0.1688 0.96814 0.0
H2563 H 0.48779 0.15215 0.95828 0.0
C2564 C 0.56098 0.16102 0.96278 0.0
C2565 C 0.57008 0.15372 0.95566 0.0
C2566 C 0.54701 0.1754 0.96217 0.0
C2567 C 0.54157 0.18266 0.95443 0.0
C2568 C 0.54956 0.1744 0.94728 0.0
H2569 H 0.49627 0.30611 0.94357 0.0
H2570 H 0.50207 0.26636 0.9424 0.0
C2571 C 0.56355 0.15988 0.94788 0.0
C2572 C 0.53072 0.20169 0.95394 0.0
H2573 H 0.48054 0.2128 0.9613 0.0
C2574 C 0.54697 0.22709 0.95017 0.0
C2575 C 0.50612 0.19622 0.95783 0.0
C2576 C 0.4871 0.16888 0.96164 0.0
C2577 C 0.53997 0.24758 0.95051 0.0
C2578 C 0.51579 0.2424 0.95461 0.0
C2579 C 0.49911 0.21676 0.95819 0.0
C2580 C 0.50824 0.26386 0.95547 0.0
C2581 C 0.55916 0.27505 0.94678 0.0
C2582 C 0.50841 0.2748 0.96326 0.0
C2583 C 0.50493 0.29752 0.96398 0.0
C2584 C 0.50123 0.30966 0.95689 0.0
C2585 C 0.49938 0.2975 0.94915 0.0
C2586 C 0.50277 0.2748 0.94846 0.0
H2587 H 0.57948 0.2775 0.94543 0.0
H2588 H 0.55046 0.27729 0.9409 0.0
H2589 H 0.56189 0.29172 0.95098 0.0
H2590 H 0.51247 0.26654 0.96876 0.0
H2591 H 0.50643 0.3063 0.97003 0.0
H2592 H 0.86201 0.41962 0.94271 0.0
H2593 H 0.83696 0.36966 0.94194 0.0
H2594 H 0.82678 0.36519 0.96838 0.0
H2595 H 0.85212 0.41464 0.96923 0.0
H2596 H 0.83663 0.32535 0.96243 0.0
H2597 H 0.75444 0.32864 0.9446 0.0
H2598 H 0.78765 0.34605 0.93996 0.0
H2599 H 0.7816 0.35843 0.94949 0.0
C2600 C 0.85487 0.40797 0.94836 0.0
C2601 C 0.85875 0.42118 0.95601 0.0
C2602 C 0.84038 0.37942 0.94791 0.0
C2603 C 0.82946 0.36369 0.95509 0.0
C2604 C 0.83484 0.37685 0.96275 0.0
H2605 H 0.70869 0.20454 0.97142 0.0
H2606 H 0.74863 0.25008 0.97014 0.0
C2607 C 0.84928 0.40522 0.96321 0.0
C2608 C 0.81077 0.33374 0.9547 0.0
H2609 H 0.74746 0.28558 0.94817 0.0
C2610 C 0.81724 0.31659 0.95924 0.0
C2611 C 0.78538 0.32233 0.95059 0.0
C2612 C 0.77663 0.33975 0.94594 0.0
C2613 C 0.79888 0.28844 0.95985 0.0
C2614 C 0.77326 0.27721 0.95591 0.0
C2615 C 0.76714 0.29422 0.95118 0.0
C2616 C 0.7518 0.24819 0.95686 0.0
C2617 C 0.80703 0.271 0.96473 0.0
C2618 C 0.74042 0.23184 0.94985 0.0
C2619 C 0.71753 0.2059 0.95056 0.0
C2620 C 0.70536 0.19575 0.9583 0.0
C2621 C 0.7176 0.21162 0.96537 0.0
C2622 C 0.74054 0.23766 0.96465 0.0
H2623 H 0.82952 0.28078 0.96528 0.0
H2624 H 0.79847 0.26807 0.97105 0.0
H2625 H 0.79904 0.25065 0.96183 0.0
H2626 H 0.74871 0.23955 0.94378 0.0
H2627 H 0.70874 0.19424 0.94498 0.0
H2628 H 0.80804 0.51044 0.9701 0.0
H2629 H 0.7625 0.50475 0.96845 0.0
H2630 H 0.77437 0.51411 0.94211 0.0
H2631 H 0.81964 0.51951 0.94367 0.0
H2632 H 0.74114 0.5363 0.96058 0.0
H2633 H 0.70796 0.43693 0.94509 0.0
H2634 H 0.73946 0.45475 0.95077 0.0
H2635 H 0.73695 0.46584 0.94059 0.0
C2636 C 0.80118 0.51181 0.96397 0.0
C2637 C 0.81737 0.51504 0.95701 0.0
C2638 C 0.77514 0.50853 0.96304 0.0
C2639 C 0.76488 0.50846 0.95514 0.0
C2640 C 0.7817 0.51358 0.94825 0.0
H2641 H 0.5941 0.44496 0.94114 0.0
H2642 H 0.64402 0.47014 0.94025 0.0
C2643 C 0.80763 0.51674 0.94916 0.0
C2644 C 0.73593 0.5009 0.95407 0.0
H2645 H 0.67524 0.45044 0.94657 0.0
C2646 C 0.72673 0.51763 0.95747 0.0
C2647 C 0.7172 0.47658 0.94998 0.0
C2648 C 0.72572 0.45732 0.94644 0.0
C2649 C 0.69919 0.51052 0.95696 0.0
C2650 C 0.68031 0.48577 0.95308 0.0
C2651 C 0.68972 0.46949 0.94948 0.0
C2652 C 0.6504 0.47476 0.95346 0.0
C2653 C 0.69058 0.52956 0.96059 0.0
C2654 C 0.63741 0.4694 0.96116 0.0
C2655 C 0.60905 0.4551 0.96168 0.0
C2656 C 0.59294 0.44559 0.95451 0.0
C2657 C 0.6059 0.4521 0.94677 0.0
C2658 C 0.63442 0.46642 0.94625 0.0
H2659 H 0.70771 0.55093 0.96061 0.0
H2660 H 0.67325 0.52866 0.95712 0.0
H2661 H 0.68415 0.52364 0.96709 0.0
H2662 H 0.64918 0.47502 0.96681 0.0
H2663 H 0.59978 0.4505 0.96774 0.0
H2664 H 0.36731 0.83133 0.80674 0.0
H2665 H 0.40742 0.82578 0.80595 0.0
H2666 H 0.41619 0.84664 0.78011 0.0
H2667 H 0.37624 0.85212 0.78081 0.0
H2668 H 0.41275 0.79668 0.78348 0.0
H2669 H 0.49004 0.87832 0.80341 0.0
H2670 H 0.45712 0.85859 0.80811 0.0
H2671 H 0.461 0.87944 0.7993 0.0
C2672 C 0.37814 0.83538 0.80094 0.0
C2673 C 0.36838 0.842 0.79383 0.0
C2674 C 0.40115 0.83229 0.8005 0.0
C2675 C 0.41488 0.83594 0.79297 0.0
C2676 C 0.40594 0.84377 0.78598 0.0
H2677 H 0.52908 0.77967 0.77875 0.0
H2678 H 0.50327 0.80385 0.7782 0.0
C2679 C 0.38304 0.84689 0.78641 0.0
C2680 C 0.43655 0.82865 0.79215 0.0
H2681 H 0.49857 0.84259 0.79957 0.0
C2682 C 0.43171 0.80694 0.78691 0.0
C2683 C 0.46119 0.84204 0.79664 0.0
C2684 C 0.46786 0.86606 0.80213 0.0
C2685 C 0.45025 0.79744 0.78631 0.0
C2686 C 0.47472 0.81048 0.79093 0.0
C2687 C 0.47991 0.83271 0.796 0.0
C2688 C 0.49365 0.79949 0.79125 0.0
C2689 C 0.44273 0.77261 0.78108 0.0
C2690 C 0.4981 0.79038 0.79881 0.0
C2691 C 0.51303 0.77695 0.79916 0.0
C2692 C 0.5239 0.77222 0.79194 0.0
C2693 C 0.52084 0.78278 0.78442 0.0
C2694 C 0.5059 0.79641 0.78408 0.0
H2695 H 0.42079 0.76162 0.77941 0.0
H2696 H 0.45472 0.77898 0.77528 0.0
H2697 H 0.44742 0.75824 0.78436 0.0
H2698 H 0.48902 0.79263 0.80443 0.0
H2699 H 0.51518 0.76939 0.80509 0.0
H2700 H 0.24645 0.75268 0.77457 0.0
H2701 H 0.22346 0.70282 0.77356 0.0
H2702 H 0.19396 0.69597 0.79848 0.0
H2703 H 0.21656 0.7454 0.79951 0.0
H2704 H 0.23833 0.67364 0.78396 0.0
H2705 H 0.12767 0.63507 0.78688 0.0
H2706 H 0.15162 0.66979 0.784 0.0
H2707 H 0.14736 0.65966 0.79466 0.0
C2708 C 0.23425 0.7405 0.77972 0.0
C2709 C 0.2334 0.75297 0.78713 0.0
C2710 C 0.22125 0.71202 0.77915 0.0
C2711 C 0.20683 0.69562 0.78593 0.0
C2712 C 0.2045 0.70808 0.79312 0.0
H2713 H 0.17611 0.53971 0.80392 0.0
H2714 H 0.18178 0.58533 0.80232 0.0
C2715 C 0.21761 0.73642 0.79371 0.0
C2716 C 0.19758 0.66604 0.786 0.0
H2717 H 0.14274 0.60314 0.78994 0.0
C2718 C 0.21735 0.65821 0.78513 0.0
C2719 C 0.17023 0.64591 0.78761 0.0
C2720 C 0.14794 0.65297 0.78826 0.0
C2721 C 0.21069 0.63097 0.78609 0.0
C2722 C 0.18356 0.61103 0.78794 0.0
C2723 C 0.16358 0.61861 0.78861 0.0
C2724 C 0.17596 0.58219 0.78909 0.0
C2725 C 0.23274 0.62359 0.78531 0.0
C2726 C 0.17014 0.56522 0.78221 0.0
C2727 C 0.16695 0.53926 0.78308 0.0
C2728 C 0.16956 0.52977 0.79088 0.0
C2729 C 0.1739 0.54632 0.79784 0.0
C2730 C 0.17717 0.57238 0.79694 0.0
H2731 H 0.253 0.64161 0.78401 0.0
H2732 H 0.23405 0.61386 0.7911 0.0
H2733 H 0.22756 0.60858 0.78025 0.0
H2734 H 0.16919 0.5725 0.7761 0.0
H2735 H 0.16348 0.52705 0.77759 0.0
H2736 H 0.48894 0.63607 0.77916 0.0
H2737 H 0.44371 0.59626 0.77744 0.0
H2738 H 0.43057 0.59375 0.80372 0.0
H2739 H 0.47608 0.63354 0.80552 0.0
H2740 H 0.40903 0.54065 0.7957 0.0
H2741 H 0.37784 0.60831 0.78017 0.0
H2742 H 0.40692 0.60817 0.77581 0.0
H2743 H 0.40896 0.62145 0.78602 0.0
C2744 C 0.47667 0.6268 0.78461 0.0
C2745 C 0.48601 0.63825 0.79248 0.0
C2746 C 0.45077 0.60408 0.7836 0.0
C2747 C 0.4336 0.59243 0.79043 0.0
C2748 C 0.4435 0.60256 0.79836 0.0
H2749 H 0.26759 0.48656 0.80221 0.0
H2750 H 0.31703 0.51088 0.8015 0.0
C2751 C 0.46953 0.62528 0.79938 0.0
C2752 C 0.40462 0.57136 0.78922 0.0
H2753 H 0.34463 0.56219 0.78145 0.0
C2754 C 0.39495 0.54525 0.79254 0.0
C2755 C 0.38632 0.5774 0.78506 0.0
C2756 C 0.39537 0.60538 0.78161 0.0
C2757 C 0.36735 0.52509 0.79188 0.0
C2758 C 0.3489 0.53141 0.78794 0.0
C2759 C 0.35879 0.55727 0.78441 0.0
C2760 C 0.31893 0.51281 0.78816 0.0
C2761 C 0.35822 0.49724 0.79542 0.0
C2762 C 0.30331 0.50564 0.78089 0.0
C2763 C 0.27477 0.49176 0.78127 0.0
C2764 C 0.26143 0.4852 0.78895 0.0
C2765 C 0.27717 0.49135 0.79619 0.0
C2766 C 0.30554 0.50507 0.7958 0.0
H2767 H 0.37517 0.49272 0.79549 0.0
H2768 H 0.35151 0.49658 0.8019 0.0
H2769 H 0.34097 0.48108 0.79186 0.0
H2770 H 0.31323 0.51162 0.77492 0.0
H2771 H 0.26326 0.48744 0.77559 0.0
H2772 H 0.44522 0.85125 0.04232 0.0
H2773 H 0.46911 0.82568 0.04286 0.0
H2774 H 0.48027 0.83944 0.06911 0.0
H2775 H 0.45546 0.86464 0.06867 0.0
H2776 H 0.51923 0.83539 0.04771 0.0
H2777 H 0.43822 0.75694 0.0677 0.0
H2778 H 0.43475 0.78359 0.06281 0.0
H2779 H 0.45545 0.79078 0.0719 0.0
C2780 C 0.45293 0.84914 0.04822 0.0
C2781 C 0.44797 0.85964 0.05549 0.0
C2782 C 0.46674 0.83456 0.0485 0.0
C2783 C 0.47598 0.8301 0.05604 0.0
C2784 C 0.47275 0.84209 0.06324 0.0
H2785 H 0.52777 0.71188 0.06608 0.0
H2786 H 0.52298 0.75222 0.0669 0.0
C2787 C 0.45876 0.85668 0.06298 0.0
C2788 C 0.48708 0.81125 0.0563 0.0
H2789 H 0.4733 0.74907 0.06355 0.0
C2790 C 0.50936 0.81664 0.05123 0.0
C2791 C 0.47404 0.78664 0.06085 0.0
C2792 C 0.44916 0.77891 0.06607 0.0
C2793 C 0.51873 0.79796 0.05052 0.0
C2794 C 0.50533 0.77318 0.05494 0.0
C2795 C 0.48359 0.76814 0.06018 0.0
C2796 C 0.51259 0.7515 0.05403 0.0
C2797 C 0.5428 0.80482 0.04503 0.0
C2798 C 0.50899 0.73801 0.04645 0.0
C2799 C 0.51171 0.71479 0.04595 0.0
C2800 C 0.51786 0.70456 0.05303 0.0
C2801 C 0.52286 0.71904 0.0605 0.0
C2802 C 0.52014 0.74216 0.06099 0.0
H2803 H 0.55509 0.82706 0.04384 0.0
H2804 H 0.55613 0.79782 0.04782 0.0
H2805 H 0.53538 0.79435 0.03901 0.0
H2806 H 0.50271 0.74458 0.04102 0.0
H2807 H 0.50758 0.70408 0.04012 0.0
H2808 H 0.17488 0.59312 0.07215 0.0
H2809 H 0.20147 0.64296 0.07333 0.0
H2810 H 0.17161 0.65065 0.04959 0.0
H2811 H 0.14504 0.60125 0.0484 0.0
H2812 H 0.24232 0.67343 0.06204 0.0
H2813 H 0.16826 0.71 0.06287 0.0
H2814 H 0.15891 0.67529 0.06528 0.0
H2815 H 0.1616 0.68604 0.05471 0.0
C2816 C 0.17327 0.60547 0.06732 0.0
C2817 C 0.15795 0.59326 0.06017 0.0
C2818 C 0.18858 0.63393 0.06798 0.0
C2819 C 0.1884 0.65057 0.06157 0.0
C2820 C 0.17172 0.63834 0.05468 0.0
H2821 H 0.30753 0.8078 0.0428 0.0
H2822 H 0.26853 0.76181 0.04475 0.0
C2823 C 0.15666 0.61002 0.05399 0.0
C2824 C 0.20826 0.68027 0.06147 0.0
H2825 H 0.21404 0.74283 0.05882 0.0
C2826 C 0.23611 0.68861 0.06147 0.0
C2827 C 0.20015 0.70008 0.06066 0.0
C2828 C 0.1706 0.69246 0.06096 0.0
C2829 C 0.256 0.71606 0.0604 0.0
C2830 C 0.24787 0.73568 0.05933 0.0
C2831 C 0.22012 0.7276 0.05955 0.0
C2832 C 0.26834 0.76472 0.05806 0.0
C2833 C 0.28568 0.724 0.06025 0.0
C2834 C 0.28053 0.78169 0.06488 0.0
C2835 C 0.30279 0.80786 0.0638 0.0
C2836 C 0.31328 0.81757 0.05586 0.0
C2837 C 0.29995 0.80103 0.04899 0.0
C2838 C 0.27769 0.77475 0.05009 0.0
H2839 H 0.28869 0.70628 0.06121 0.0
H2840 H 0.29478 0.73359 0.05423 0.0
H2841 H 0.29685 0.7393 0.06515 0.0
H2842 H 0.27359 0.77423 0.07107 0.0
H2843 H 0.31245 0.82007 0.06923 0.0
H2844 H 0.4205 0.59647 0.06725 0.0
H2845 H 0.37087 0.57347 0.0665 0.0
H2846 H 0.37095 0.51618 0.04893 0.0
H2847 H 0.42079 0.54077 0.04919 0.0
H2848 H 0.3411 0.53205 0.04317 0.0
H2849 H 0.30872 0.50858 0.07555 0.0
H2850 H 0.33227 0.54429 0.07471 0.0
H2851 H 0.34335 0.52011 0.07247 0.0
C2852 C 0.40979 0.57843 0.06344 0.0
C2853 C 0.42433 0.57011 0.05836 0.0
C2854 C 0.38133 0.56514 0.06303 0.0
C2855 C 0.3668 0.54265 0.05775 0.0
C2856 C 0.38147 0.53343 0.05305 0.0
H2857 H 0.18944 0.47153 0.05987 0.0
H2858 H 0.23454 0.47578 0.06052 0.0
C2859 C 0.40994 0.54728 0.05325 0.0
C2860 C 0.3369 0.53085 0.05643 0.0
H2861 H 0.27732 0.51323 0.06641 0.0
C2862 C 0.3271 0.52741 0.04828 0.0
C2863 C 0.31819 0.52412 0.06302 0.0
C2864 C 0.32619 0.52417 0.07191 0.0
C2865 C 0.29965 0.51862 0.04656 0.0
C2866 C 0.28158 0.51455 0.05315 0.0
C2867 C 0.29107 0.51679 0.0613 0.0
C2868 C 0.25324 0.50918 0.0518 0.0
C2869 C 0.29045 0.51356 0.03767 0.0
C2870 C 0.24826 0.5259 0.04651 0.0
C2871 C 0.22221 0.52274 0.0459 0.0
C2872 C 0.20082 0.50349 0.05081 0.0
C2873 C 0.20556 0.48641 0.05597 0.0
C2874 C 0.2314 0.48899 0.05639 0.0
H2875 H 0.30255 0.5067 0.03403 0.0
H2876 H 0.26859 0.49793 0.03711 0.0
H2877 H 0.2938 0.53285 0.03487 0.0
H2878 H 0.26474 0.54231 0.04313 0.0
H2879 H 0.21929 0.53662 0.04202 0.0
H2880 H 0.15335 0.56129 0.57026 0.0
H2881 H 0.1778 0.53583 0.57134 0.0
H2882 H 0.18787 0.53942 0.5449 0.0
H2883 H 0.16316 0.56411 0.54375 0.0
H2884 H 0.17748 0.48984 0.55136 0.0
H2885 H 0.26043 0.57691 0.5685 0.0
H2886 H 0.22728 0.56181 0.57316 0.0
H2887 H 0.23335 0.57927 0.56346 0.0
C2888 C 0.16032 0.55618 0.56467 0.0
C2889 C 0.15664 0.56511 0.55693 0.0
C2890 C 0.17446 0.5418 0.5653 0.0
C2891 C 0.18518 0.53625 0.55821 0.0
C2892 C 0.17995 0.5436 0.55046 0.0
H2893 H 0.30513 0.49607 0.54253 0.0
H2894 H 0.26472 0.50096 0.54368 0.0
C2895 C 0.16587 0.55786 0.54982 0.0
C2896 C 0.2037 0.52484 0.55878 0.0
H2897 H 0.26715 0.54045 0.56528 0.0
C2898 C 0.19698 0.50072 0.55448 0.0
C2899 C 0.22923 0.53917 0.5628 0.0
C2900 C 0.23822 0.56584 0.56719 0.0
C2901 C 0.21522 0.49075 0.55402 0.0
C2902 C 0.24099 0.50548 0.55786 0.0
C2903 C 0.24735 0.52912 0.56235 0.0
C2904 C 0.2624 0.49781 0.55702 0.0
C2905 C 0.20678 0.46461 0.54941 0.0
C2906 C 0.27437 0.49405 0.5641 0.0
C2907 C 0.29755 0.49148 0.56346 0.0
C2908 C 0.30938 0.49271 0.55571 0.0
C2909 C 0.29645 0.49486 0.54858 0.0
C2910 C 0.27325 0.49756 0.54923 0.0
H2911 H 0.18426 0.45183 0.54901 0.0
H2912 H 0.2149 0.4695 0.54302 0.0
H2913 H 0.215 0.45261 0.5524 0.0
H2914 H 0.26639 0.49421 0.57016 0.0
H2915 H 0.30687 0.4897 0.56908 0.0
H2916 H 0.44346 0.596 0.56919 0.0
H2917 H 0.4664 0.64601 0.5688 0.0
H2918 H 0.47049 0.64409 0.54226 0.0
H2919 H 0.44747 0.59448 0.54257 0.0
H2920 H 0.51724 0.68896 0.56128 0.0
H2921 H 0.42381 0.6801 0.54718 0.0
H2922 H 0.4242 0.65179 0.55213 0.0
H2923 H 0.43748 0.66178 0.54186 0.0
C2924 C 0.44973 0.60629 0.56329 0.0
C2925 C 0.44328 0.59126 0.55591 0.0
C2926 C 0.4628 0.63483 0.56308 0.0
C2927 C 0.46964 0.64866 0.55549 0.0
C2928 C 0.46493 0.63377 0.54817 0.0
H2929 H 0.51318 0.81268 0.54047 0.0
H2930 H 0.50667 0.76662 0.54069 0.0
C2931 C 0.45178 0.6054 0.54837 0.0
C2932 C 0.47962 0.67832 0.5551 0.0
H2933 H 0.46206 0.72424 0.54808 0.0
C2934 C 0.50522 0.69674 0.55841 0.0
C2935 C 0.46386 0.68838 0.55134 0.0
C2936 C 0.43571 0.66953 0.54799 0.0
C2937 C 0.51565 0.72505 0.55795 0.0
C2938 C 0.49986 0.73507 0.55419 0.0
C2939 C 0.47429 0.71657 0.55088 0.0
C2940 C 0.50846 0.76449 0.55399 0.0
C2941 C 0.54363 0.74398 0.56138 0.0
C2942 C 0.51221 0.77884 0.56139 0.0
C2943 C 0.51597 0.80515 0.56129 0.0
C2944 C 0.51583 0.81764 0.55378 0.0
C2945 C 0.51345 0.80375 0.54636 0.0
C2946 C 0.50966 0.77737 0.54647 0.0
H2947 H 0.5561 0.73389 0.56173 0.0
H2948 H 0.55459 0.76265 0.55755 0.0
H2949 H 0.54161 0.75015 0.56772 0.0
H2950 H 0.51082 0.76918 0.56727 0.0
H2951 H 0.51773 0.8152 0.56713 0.0
H2952 H 0.41676 0.8596 0.54453 0.0
H2953 H 0.36739 0.83317 0.54536 0.0
H2954 H 0.37224 0.82977 0.57187 0.0
H2955 H 0.42215 0.856 0.57106 0.0
H2956 H 0.3423 0.77976 0.56502 0.0
H2957 H 0.30713 0.84708 0.55214 0.0
H2958 H 0.33112 0.84486 0.54544 0.0
H2959 H 0.34176 0.8598 0.55553 0.0
C2960 C 0.40741 0.85378 0.55057 0.0
C2961 C 0.42348 0.85981 0.55773 0.0
C2962 C 0.37905 0.83883 0.55104 0.0
C2963 C 0.36599 0.82972 0.55868 0.0
C2964 C 0.38188 0.83677 0.5659 0.0
H2965 H 0.19793 0.70302 0.56847 0.0
H2966 H 0.24316 0.743 0.5699 0.0
C2967 C 0.4104 0.85184 0.56544 0.0
C2968 C 0.33621 0.81006 0.55894 0.0
H2969 H 0.27469 0.79881 0.55176 0.0
C2970 C 0.32746 0.78411 0.56226 0.0
C2971 C 0.31683 0.81563 0.55528 0.0
C2972 C 0.32466 0.84346 0.55197 0.0
C2973 C 0.30016 0.76329 0.56171 0.0
C2974 C 0.28095 0.76863 0.55784 0.0
C2975 C 0.28949 0.79473 0.55469 0.0
C2976 C 0.2521 0.74694 0.55683 0.0
C2977 C 0.2923 0.73538 0.56499 0.0
C2978 C 0.24158 0.73667 0.54896 0.0
C2979 C 0.21557 0.71378 0.5481 0.0
C2980 C 0.19966 0.70081 0.55511 0.0
C2981 C 0.2097 0.71227 0.56294 0.0
C2982 C 0.2356 0.73511 0.56378 0.0
H2983 H 0.31038 0.73317 0.56622 0.0
H2984 H 0.28098 0.7319 0.57087 0.0
H2985 H 0.27881 0.7193 0.56056 0.0
H2986 H 0.25398 0.74561 0.54352 0.0
H2987 H 0.20849 0.70554 0.54199 0.0
H2988 H 0.23078 0.4881 0.302 0.0
H2989 H 0.20725 0.51395 0.301 0.0
H2990 H 0.21598 0.5169 0.27451 0.0
H2991 H 0.24016 0.49117 0.27548 0.0
H2992 H 0.23567 0.56717 0.28141 0.0
H2993 H 0.13273 0.49881 0.29388 0.0
H2994 H 0.15887 0.50121 0.30064 0.0
H2995 H 0.15503 0.48648 0.29053 0.0
C2996 C 0.22723 0.4937 0.29593 0.0
C2997 C 0.23752 0.48768 0.28881 0.0
C2998 C 0.21349 0.50831 0.29537 0.0
C2999 C 0.20952 0.51714 0.28768 0.0
C3000 C 0.21864 0.51011 0.28051 0.0
H3001 H 0.16577 0.64151 0.27715 0.0
H3002 H 0.17159 0.60179 0.276 0.0
C3003 C 0.23237 0.49532 0.28106 0.0
C3004 C 0.19909 0.53652 0.28732 0.0
H3005 H 0.1479 0.54692 0.29415 0.0
C3006 C 0.21624 0.56256 0.28405 0.0
C3007 C 0.17385 0.53061 0.29085 0.0
C3008 C 0.15396 0.50266 0.2941 0.0
C3009 C 0.20939 0.58313 0.28451 0.0
C3010 C 0.18452 0.57744 0.28824 0.0
C3011 C 0.16701 0.55125 0.29134 0.0
C3012 C 0.17691 0.59884 0.2891 0.0
C3013 C 0.22933 0.61116 0.28129 0.0
C3014 C 0.17672 0.60958 0.29689 0.0
C3015 C 0.17332 0.63235 0.29759 0.0
C3016 C 0.17004 0.64471 0.29049 0.0
C3017 C 0.16853 0.63273 0.28274 0.0
C3018 C 0.1719 0.61003 0.28206 0.0
H3019 H 0.24973 0.6136 0.2801 0.0
H3020 H 0.22155 0.61467 0.27541 0.0
H3021 H 0.23162 0.62708 0.28575 0.0
H3022 H 0.18047 0.60113 0.3024 0.0
H3023 H 0.17456 0.641 0.30365 0.0
H3024 H 0.52973 0.74813 0.30254 0.0
H3025 H 0.50392 0.69868 0.30187 0.0
H3026 H 0.49926 0.70248 0.27537 0.0
H3027 H 0.52491 0.75244 0.27601 0.0
H3028 H 0.44954 0.6724 0.28252 0.0
H3029 H 0.51861 0.6388 0.29505 0.0
H3030 H 0.51645 0.66293 0.30171 0.0
H3031 H 0.53072 0.67319 0.29152 0.0
C3032 C 0.52377 0.73853 0.29654 0.0
C3033 C 0.52927 0.75429 0.28933 0.0
C3034 C 0.50918 0.71014 0.29616 0.0
C3035 C 0.49988 0.69677 0.28857 0.0
C3036 C 0.50642 0.71237 0.2813 0.0
H3037 H 0.37651 0.52802 0.27874 0.0
H3038 H 0.41621 0.57353 0.27755 0.0
C3039 C 0.52116 0.74092 0.28167 0.0
C3040 C 0.4805 0.66693 0.28841 0.0
H3041 H 0.47055 0.60581 0.29554 0.0
C3042 C 0.45432 0.65779 0.28523 0.0
C3043 C 0.48663 0.64786 0.29203 0.0
C3044 C 0.51473 0.65616 0.29519 0.0
C3045 C 0.43384 0.63038 0.28584 0.0
C3046 C 0.43975 0.61148 0.28964 0.0
C3047 C 0.46606 0.6204 0.29267 0.0
C3048 C 0.41849 0.58248 0.29059 0.0
C3049 C 0.40568 0.62197 0.28267 0.0
C3050 C 0.40735 0.57198 0.29838 0.0
C3051 C 0.38456 0.54583 0.29911 0.0
C3052 C 0.37258 0.52981 0.29204 0.0
C3053 C 0.38498 0.53985 0.28431 0.0
C3054 C 0.40769 0.56589 0.2836 0.0
H3055 H 0.40317 0.6398 0.28131 0.0
H3056 H 0.40193 0.61011 0.27689 0.0
H3057 H 0.38996 0.60877 0.28723 0.0
H3058 H 0.41549 0.58449 0.30385 0.0
H3059 H 0.37557 0.53875 0.30515 0.0
H3060 H 0.4892 0.85624 0.27916 0.0
H3061 H 0.4435 0.85026 0.27819 0.0
H3062 H 0.43098 0.83112 0.30414 0.0
H3063 H 0.47679 0.83717 0.30519 0.0
H3064 H 0.3917 0.79039 0.29266 0.0
H3065 H 0.40701 0.89406 0.28727 0.0
H3066 H 0.42786 0.88463 0.28132 0.0
H3067 H 0.43223 0.88842 0.2923 0.0
C3068 C 0.47699 0.85136 0.28471 0.0
C3069 C 0.48664 0.84706 0.29225 0.0
C3070 C 0.4509 0.84807 0.28415 0.0
C3071 C 0.43392 0.84037 0.2911 0.0
C3072 C 0.44387 0.83724 0.29871 0.0
H3073 H 0.2675 0.79091 0.30116 0.0
H3074 H 0.31717 0.81349 0.30091 0.0
C3075 C 0.47009 0.84078 0.2993 0.0
C3076 C 0.40486 0.83249 0.29021 0.0
H3077 H 0.36191 0.85692 0.28593 0.0
C3078 C 0.3852 0.80494 0.2912 0.0
C3079 C 0.3965 0.85151 0.28824 0.0
C3080 C 0.4169 0.88138 0.28727 0.0
C3081 C 0.35737 0.79588 0.29026 0.0
C3082 C 0.34896 0.81486 0.28833 0.0
C3083 C 0.36854 0.84244 0.28733 0.0
C3084 C 0.31966 0.80618 0.28794 0.0
C3085 C 0.33693 0.76606 0.29142 0.0
C3086 C 0.30474 0.79545 0.28063 0.0
C3087 C 0.27621 0.7826 0.28073 0.0
C3088 C 0.26233 0.78005 0.28817 0.0
C3089 C 0.27758 0.7924 0.29534 0.0
C3090 C 0.30597 0.80539 0.29522 0.0
H3091 H 0.34682 0.75377 0.29271 0.0
H3092 H 0.32311 0.76353 0.29662 0.0
H3093 H 0.32422 0.75793 0.28578 0.0
H3094 H 0.31505 0.79575 0.27497 0.0
H3095 H 0.26503 0.77312 0.27513 0.0
loop_
_geom_bond_atom_site_label_1
_geom_bond_atom_site_label_2
_geom_bond_distance
_geom_bond_site_symmetry_2
_ccdc_geom_bond_type
O0 Cd1 2.223 . S
O0 C8 1.315 1_545 S
Cd1 O0 2.223 . S
Cd1 O4 2.297 . S
Cd1 O5 2.439 . S
Cd1 O11 2.240 . S
Cd2 O3 2.240 . S
Cd2 O10 2.223 . S
Cd2 O12 2.297 . S
Cd2 O13 2.439 . S
O3 Cd2 2.240 . S
O3 C8 1.279 1_545 S
O4 Cd1 2.297 . S
O4 C6 1.247 . S
O5 Cd1 2.439 . S
O5 C6 1.208 . S
C6 O4 1.247 . S
C6 O5 1.208 . S
C7 O12 1.247 . S
C7 O13 1.208 . S
C8 O0 1.315 1_565 S
C8 O3 1.279 1_565 S
C9 O10 1.315 . S
C9 O11 1.279 . S
O10 Cd2 2.223 . S
O10 C9 1.315 . S
O11 Cd1 2.240 . S
O11 C9 1.279 . S
O12 Cd2 2.297 . S
O12 C7 1.247 . S
O13 Cd2 2.439 . S
O13 C7 1.208 . S
O14 Cd15 2.223 . S
O14 C22 1.315 1_655 S
Cd15 O14 2.223 . S
Cd15 O18 2.297 . S
Cd15 O19 2.439 . S
Cd15 O25 2.240 . S
Cd16 O17 2.240 . S
Cd16 O24 2.223 . S
Cd16 O26 2.297 . S
Cd16 O27 2.439 . S
O17 Cd16 2.240 . S
O17 C22 1.279 1_655 S
O18 Cd15 2.297 . S
O18 C20 1.247 . S
O19 Cd15 2.439 . S
O19 C20 1.208 . S
C20 O18 1.247 . S
C20 O19 1.208 . S
C21 O26 1.247 . S
C21 O27 1.208 . S
C22 O14 1.315 1_455 S
C22 O17 1.279 1_455 S
C23 O24 1.315 . S
C23 O25 1.279 . S
O24 Cd16 2.223 . S
O24 C23 1.315 . S
O25 Cd15 2.240 . S
O25 C23 1.279 . S
O26 Cd16 2.297 . S
O26 C21 1.247 . S
O27 Cd16 2.439 . S
O27 C21 1.208 . S
O28 Cd29 2.223 . S
O28 C36 1.315 . S
Cd29 O28 2.223 . S
Cd29 O32 2.297 . S
Cd29 O33 2.439 . S
Cd29 O39 2.240 . S
Cd30 O31 2.240 . S
Cd30 O38 2.223 . S
Cd30 O40 2.297 . S
Cd30 O41 2.439 . S
O31 Cd30 2.240 . S
O31 C36 1.279 . S
O32 Cd29 2.297 . S
O32 C34 1.247 . S
O33 Cd29 2.439 . S
O33 C34 1.208 . S
C34 O32 1.247 . S
C34 O33 1.208 . S
C35 O40 1.247 . S
C35 O41 1.208 . S
C36 O28 1.315 . S
C36 O31 1.279 . S
C37 O38 1.315 . S
C37 O39 1.279 . S
O38 Cd30 2.223 . S
O38 C37 1.315 . S
O39 Cd29 2.240 . S
O39 C37 1.279 . S
O40 Cd30 2.297 . S
O40 C35 1.247 . S
O41 Cd30 2.439 . S
O41 C35 1.208 . S
O42 Cd43 2.223 . S
O42 C50 1.315 1_455 S
Cd43 O42 2.223 . S
Cd43 O46 2.297 . S
Cd43 O47 2.439 . S
Cd43 O53 2.240 . S
Cd44 O45 2.240 . S
Cd44 O52 2.223 . S
Cd44 O54 2.297 . S
Cd44 O55 2.439 . S
O45 Cd44 2.240 . S
O45 C50 1.279 1_455 S
O46 Cd43 2.297 . S
O46 C48 1.247 . S
O47 Cd43 2.439 . S
O47 C48 1.208 . S
C48 O46 1.247 . S
C48 O47 1.208 . S
C49 O54 1.247 . S
C49 O55 1.208 . S
C50 O42 1.315 1_655 S
C50 O45 1.279 1_655 S
C51 O52 1.315 . S
C51 O53 1.279 . S
O52 Cd44 2.223 . S
O52 C51 1.315 . S
O53 Cd43 2.240 . S
O53 C51 1.279 . S
O54 Cd44 2.297 . S
O54 C49 1.247 . S
O55 Cd44 2.439 . S
O55 C49 1.208 . S
O56 Cd57 2.223 . S
O56 C64 1.315 . S
Cd57 O56 2.223 . S
Cd57 O60 2.297 . S
Cd57 O61 2.439 . S
Cd57 O67 2.240 . S
Cd58 O59 2.240 . S
Cd58 O66 2.223 . S
Cd58 O68 2.297 . S
Cd58 O69 2.439 . S
O59 Cd58 2.240 . S
O59 C64 1.279 . S
O60 Cd57 2.297 . S
O60 C62 1.247 . S
O61 Cd57 2.439 . S
O61 C62 1.208 . S
C62 O60 1.247 . S
C62 O61 1.208 . S
C63 O68 1.247 . S
C63 O69 1.208 . S
C64 O56 1.315 . S
C64 O59 1.279 . S
C65 O66 1.315 . S
C65 O67 1.279 . S
O66 Cd58 2.223 . S
O66 C65 1.315 . S
O67 Cd57 2.240 . S
O67 C65 1.279 . S
O68 Cd58 2.297 . S
O68 C63 1.247 . S
O69 Cd58 2.439 . S
O69 C63 1.208 . S
O70 Cd71 2.223 . S
O70 C78 1.315 1_565 S
Cd71 O70 2.223 . S
Cd71 O74 2.297 . S
Cd71 O75 2.439 . S
Cd71 O81 2.240 . S
Cd72 O73 2.240 . S
Cd72 O80 2.223 . S
Cd72 O82 2.297 . S
Cd72 O83 2.439 . S
O73 Cd72 2.240 . S
O73 C78 1.279 1_565 S
O74 Cd71 2.297 . S
O74 C76 1.247 . S
O75 Cd71 2.439 . S
O75 C76 1.208 . S
C76 O74 1.247 . S
C76 O75 1.208 . S
C77 O82 1.247 . S
C77 O83 1.208 . S
C78 O70 1.315 1_545 S
C78 O73 1.279 1_545 S
C79 O80 1.315 . S
C79 O81 1.279 . S
O80 Cd72 2.223 . S
O80 C79 1.315 . S
O81 Cd71 2.240 . S
O81 C79 1.279 . S
O82 Cd72 2.297 . S
O82 C77 1.247 . S
O83 Cd72 2.439 . S
O83 C77 1.208 . S
O84 Cd85 2.223 . S
O84 C92 1.315 1_565 S
Cd85 O84 2.223 . S
Cd85 O88 2.297 . S
Cd85 O89 2.439 . S
Cd85 O95 2.240 . S
Cd86 O87 2.240 . S
Cd86 O94 2.223 . S
Cd86 O96 2.297 . S
Cd86 O97 2.439 . S
O87 Cd86 2.240 . S
O87 C92 1.279 1_565 S
O88 Cd85 2.297 . S
O88 C90 1.247 . S
O89 Cd85 2.439 . S
O89 C90 1.208 . S
C90 O88 1.247 . S
C90 O89 1.208 . S
C91 O96 1.247 . S
C91 O97 1.208 . S
C92 O84 1.315 1_545 S
C92 O87 1.279 1_545 S
C93 O94 1.315 . S
C93 O95 1.279 . S
O94 Cd86 2.223 . S
O94 C93 1.315 . S
O95 Cd85 2.240 . S
O95 C93 1.279 . S
O96 Cd86 2.297 . S
O96 C91 1.247 . S
O97 Cd86 2.439 . S
O97 C91 1.208 . S
O98 Cd99 2.223 . S
O98 C106 1.315 1_455 S
Cd99 O98 2.223 . S
Cd99 O102 2.297 . S
Cd99 O103 2.439 . S
Cd99 O109 2.240 . S
Cd100 O101 2.240 . S
Cd100 O108 2.223 . S
Cd100 O110 2.297 . S
Cd100 O111 2.439 . S
O101 Cd100 2.240 . S
O101 C106 1.279 1_455 S
O102 Cd99 2.297 . S
O102 C104 1.247 . S
O103 Cd99 2.439 . S
O103 C104 1.208 . S
C104 O102 1.247 . S
C104 O103 1.208 . S
C105 O110 1.247 . S
C105 O111 1.208 . S
C106 O98 1.315 1_655 S
C106 O101 1.279 1_655 S
C107 O108 1.315 . S
C107 O109 1.279 . S
O108 Cd100 2.223 . S
O108 C107 1.315 . S
O109 Cd99 2.240 . S
O109 C107 1.279 . S
O110 Cd100 2.297 . S
O110 C105 1.247 . S
O111 Cd100 2.439 . S
O111 C105 1.208 . S
O112 Cd113 2.223 . S
O112 C120 1.315 . S
Cd113 O112 2.223 . S
Cd113 O116 2.297 . S
Cd113 O117 2.439 . S
Cd113 O123 2.240 . S
Cd114 O115 2.240 . S
Cd114 O122 2.223 . S
Cd114 O124 2.297 . S
Cd114 O125 2.439 . S
O115 Cd114 2.240 . S
O115 C120 1.279 . S
O116 Cd113 2.297 . S
O116 C118 1.247 . S
O117 Cd113 2.439 . S
O117 C118 1.208 . S
C118 O116 1.247 . S
C118 O117 1.208 . S
C119 O124 1.247 . S
C119 O125 1.208 . S
C120 O112 1.315 . S
C120 O115 1.279 . S
C121 O122 1.315 . S
C121 O123 1.279 . S
O122 Cd114 2.223 . S
O122 C121 1.315 . S
O123 Cd113 2.240 . S
O123 C121 1.279 . S
O124 Cd114 2.297 . S
O124 C119 1.247 . S
O125 Cd114 2.439 . S
O125 C119 1.208 . S
O126 Cd127 2.223 . S
O126 C134 1.315 1_655 S
Cd127 O126 2.223 . S
Cd127 O130 2.297 . S
Cd127 O131 2.439 . S
Cd127 O137 2.240 . S
Cd128 O129 2.240 . S
Cd128 O136 2.223 . S
Cd128 O138 2.297 . S
Cd128 O139 2.439 . S
O129 Cd128 2.240 . S
O129 C134 1.279 1_655 S
O130 Cd127 2.297 . S
O130 C132 1.247 . S
O131 Cd127 2.439 . S
O131 C132 1.208 . S
C132 O130 1.247 . S
C132 O131 1.208 . S
C133 O138 1.247 . S
C133 O139 1.208 . S
C134 O126 1.315 1_455 S
C134 O129 1.279 1_455 S
C135 O136 1.315 . S
C135 O137 1.279 . S
O136 Cd128 2.223 . S
O136 C135 1.315 . S
O137 Cd127 2.240 . S
O137 C135 1.279 . S
O138 Cd128 2.297 . S
O138 C133 1.247 . S
O139 Cd128 2.439 . S
O139 C133 1.208 . S
O140 Cd141 2.223 . S
O140 C148 1.315 . S
Cd141 O140 2.223 . S
Cd141 O144 2.297 . S
Cd141 O145 2.439 . S
Cd141 O151 2.240 . S
Cd142 O143 2.240 . S
Cd142 O150 2.223 . S
Cd142 O152 2.297 . S
Cd142 O153 2.439 . S
O143 Cd142 2.240 . S
O143 C148 1.279 . S
O144 Cd141 2.297 . S
O144 C146 1.247 . S
O145 Cd141 2.439 . S
O145 C146 1.208 . S
C146 O144 1.247 . S
C146 O145 1.208 . S
C147 O152 1.247 . S
C147 O153 1.208 . S
C148 O140 1.315 . S
C148 O143 1.279 . S
C149 O150 1.315 . S
C149 O151 1.279 . S
O150 Cd142 2.223 . S
O150 C149 1.315 . S
O151 Cd141 2.240 . S
O151 C149 1.279 . S
O152 Cd142 2.297 . S
O152 C147 1.247 . S
O153 Cd142 2.439 . S
O153 C147 1.208 . S
O154 Cd155 2.223 . S
O154 C162 1.315 1_545 S
Cd155 O154 2.223 . S
Cd155 O158 2.297 . S
Cd155 O159 2.439 . S
Cd155 O165 2.240 . S
Cd156 O157 2.240 . S
Cd156 O164 2.223 . S
Cd156 O166 2.297 . S
Cd156 O167 2.439 . S
O157 Cd156 2.240 . S
O157 C162 1.279 1_545 S
O158 Cd155 2.297 . S
O158 C160 1.247 . S
O159 Cd155 2.439 . S
O159 C160 1.208 . S
C160 O158 1.247 . S
C160 O159 1.208 . S
C161 O166 1.247 . S
C161 O167 1.208 . S
C162 O154 1.315 1_565 S
C162 O157 1.279 1_565 S
C163 O164 1.315 . S
C163 O165 1.279 . S
O164 Cd156 2.223 . S
O164 C163 1.315 . S
O165 Cd155 2.240 . S
O165 C163 1.279 . S
O166 Cd156 2.297 . S
O166 C161 1.247 . S
O167 Cd156 2.439 . S
O167 C161 1.208 . S
O168 Cd169 2.223 . S
O168 C176 1.315 . S
Cd169 O168 2.223 . S
Cd169 O172 2.297 . S
Cd169 O173 2.439 . S
Cd169 O179 2.240 . S
Cd170 O171 2.240 . S
Cd170 O178 2.223 . S
Cd170 O180 2.297 . S
Cd170 O181 2.439 . S
O171 Cd170 2.240 . S
O171 C176 1.279 . S
O172 Cd169 2.297 . S
O172 C174 1.247 . S
O173 Cd169 2.439 . S
O173 C174 1.208 . S
C174 O172 1.247 . S
C174 O173 1.208 . S
C175 O180 1.247 . S
C175 O181 1.208 . S
C176 O168 1.315 . S
C176 O171 1.279 . S
C177 O178 1.315 . S
C177 O179 1.279 . S
O178 Cd170 2.223 . S
O178 C177 1.315 . S
O179 Cd169 2.240 . S
O179 C177 1.279 . S
O180 Cd170 2.297 . S
O180 C175 1.247 . S
O181 Cd170 2.439 . S
O181 C175 1.208 . S
O182 Cd183 2.223 . S
O182 C190 1.315 . S
Cd183 O182 2.223 . S
Cd183 O186 2.297 . S
Cd183 O187 2.439 . S
Cd183 O193 2.240 . S
Cd184 O185 2.240 . S
Cd184 O192 2.223 . S
Cd184 O194 2.297 . S
Cd184 O195 2.439 . S
O185 Cd184 2.240 . S
O185 C190 1.279 . S
O186 Cd183 2.297 . S
O186 C188 1.247 . S
O187 Cd183 2.439 . S
O187 C188 1.208 . S
C188 O186 1.247 . S
C188 O187 1.208 . S
C189 O194 1.247 . S
C189 O195 1.208 . S
C190 O182 1.315 . S
C190 O185 1.279 . S
C191 O192 1.315 . S
C191 O193 1.279 . S
O192 Cd184 2.223 . S
O192 C191 1.315 . S
O193 Cd183 2.240 . S
O193 C191 1.279 . S
O194 Cd184 2.297 . S
O194 C189 1.247 . S
O195 Cd184 2.439 . S
O195 C189 1.208 . S
O196 Cd197 2.223 . S
O196 C204 1.315 . S
Cd197 O196 2.223 . S
Cd197 O200 2.297 . S
Cd197 O201 2.439 . S
Cd197 O207 2.240 . S
Cd198 O199 2.240 . S
Cd198 O206 2.223 . S
Cd198 O208 2.297 . S
Cd198 O209 2.439 . S
O199 Cd198 2.240 . S
O199 C204 1.279 . S
O200 Cd197 2.297 . S
O200 C202 1.247 . S
O201 Cd197 2.439 . S
O201 C202 1.208 . S
C202 O200 1.247 . S
C202 O201 1.208 . S
C203 O208 1.247 . S
C203 O209 1.208 . S
C204 O196 1.315 . S
C204 O199 1.279 . S
C205 O206 1.315 . S
C205 O207 1.279 . S
O206 Cd198 2.223 . S
O206 C205 1.315 . S
O207 Cd197 2.240 . S
O207 C205 1.279 . S
O208 Cd198 2.297 . S
O208 C203 1.247 . S
O209 Cd198 2.439 . S
O209 C203 1.208 . S
O210 Cd211 2.223 . S
O210 C218 1.315 . S
Cd211 O210 2.223 . S
Cd211 O214 2.297 . S
Cd211 O215 2.439 . S
Cd211 O221 2.240 . S
Cd212 O213 2.240 . S
Cd212 O220 2.223 . S
Cd212 O222 2.297 . S
Cd212 O223 2.439 . S
O213 Cd212 2.240 . S
O213 C218 1.279 . S
O214 Cd211 2.297 . S
O214 C216 1.247 . S
O215 Cd211 2.439 . S
O215 C216 1.208 . S
C216 O214 1.247 . S
C216 O215 1.208 . S
C217 O222 1.247 . S
C217 O223 1.208 . S
C218 O210 1.315 . S
C218 O213 1.279 . S
C219 O220 1.315 . S
C219 O221 1.279 . S
O220 Cd212 2.223 . S
O220 C219 1.315 . S
O221 Cd211 2.240 . S
O221 C219 1.279 . S
O222 Cd212 2.297 . S
O222 C217 1.247 . S
O223 Cd212 2.439 . S
O223 C217 1.208 . S
O224 Cd225 2.223 . S
O224 C232 1.315 . S
Cd225 O224 2.223 . S
Cd225 O228 2.297 . S
Cd225 O229 2.439 . S
Cd225 O235 2.240 . S
Cd226 O227 2.240 . S
Cd226 O234 2.223 . S
Cd226 O236 2.297 . S
Cd226 O237 2.439 . S
O227 Cd226 2.240 . S
O227 C232 1.279 . S
O228 Cd225 2.297 . S
O228 C230 1.247 . S
O229 Cd225 2.439 . S
O229 C230 1.208 . S
C230 O228 1.247 . S
C230 O229 1.208 . S
C231 O236 1.247 . S
C231 O237 1.208 . S
C232 O224 1.315 . S
C232 O227 1.279 . S
C233 O234 1.315 . S
C233 O235 1.279 . S
O234 Cd226 2.223 . S
O234 C233 1.315 . S
O235 Cd225 2.240 . S
O235 C233 1.279 . S
O236 Cd226 2.297 . S
O236 C231 1.247 . S
O237 Cd226 2.439 . S
O237 C231 1.208 . S
O238 Cd239 2.223 . S
O238 C246 1.315 . S
Cd239 O238 2.223 . S
Cd239 O242 2.297 . S
Cd239 O243 2.439 . S
Cd239 O249 2.240 . S
Cd240 O241 2.240 . S
Cd240 O248 2.223 . S
Cd240 O250 2.297 . S
Cd240 O251 2.439 . S
O241 Cd240 2.240 . S
O241 C246 1.279 . S
O242 Cd239 2.297 . S
O242 C244 1.247 . S
O243 Cd239 2.439 . S
O243 C244 1.208 . S
C244 O242 1.247 . S
C244 O243 1.208 . S
C245 O250 1.247 . S
C245 O251 1.208 . S
C246 O238 1.315 . S
C246 O241 1.279 . S
C247 O248 1.315 . S
C247 O249 1.279 . S
O248 Cd240 2.223 . S
O248 C247 1.315 . S
O249 Cd239 2.240 . S
O249 C247 1.279 . S
O250 Cd240 2.297 . S
O250 C245 1.247 . S
O251 Cd240 2.439 . S
O251 C245 1.208 . S
O252 Cd253 2.223 . S
O252 C260 1.315 . S
Cd253 O252 2.223 . S
Cd253 O256 2.297 . S
Cd253 O257 2.439 . S
Cd253 O263 2.240 . S
Cd254 O255 2.240 . S
Cd254 O262 2.223 . S
Cd254 O264 2.297 . S
Cd254 O265 2.439 . S
O255 Cd254 2.240 . S
O255 C260 1.279 . S
O256 Cd253 2.297 . S
O256 C258 1.247 . S
O257 Cd253 2.439 . S
O257 C258 1.208 . S
C258 O256 1.247 . S
C258 O257 1.208 . S
C259 O264 1.247 . S
C259 O265 1.208 . S
C260 O252 1.315 . S
C260 O255 1.279 . S
C261 O262 1.315 . S
C261 O263 1.279 . S
O262 Cd254 2.223 . S
O262 C261 1.315 . S
O263 Cd253 2.240 . S
O263 C261 1.279 . S
O264 Cd254 2.297 . S
O264 C259 1.247 . S
O265 Cd254 2.439 . S
O265 C259 1.208 . S
O266 Cd267 2.223 . S
O266 C274 1.315 . S
Cd267 O266 2.223 . S
Cd267 O270 2.297 . S
Cd267 O271 2.439 . S
Cd267 O277 2.240 . S
Cd268 O269 2.240 . S
Cd268 O276 2.223 . S
Cd268 O278 2.297 . S
Cd268 O279 2.439 . S
O269 Cd268 2.240 . S
O269 C274 1.279 . S
O270 Cd267 2.297 . S
O270 C272 1.247 . S
O271 Cd267 2.439 . S
O271 C272 1.208 . S
C272 O270 1.247 . S
C272 O271 1.208 . S
C273 O278 1.247 . S
C273 O279 1.208 . S
C274 O266 1.315 . S
C274 O269 1.279 . S
C275 O276 1.315 . S
C275 O277 1.279 . S
O276 Cd268 2.223 . S
O276 C275 1.315 . S
O277 Cd267 2.240 . S
O277 C275 1.279 . S
O278 Cd268 2.297 . S
O278 C273 1.247 . S
O279 Cd268 2.439 . S
O279 C273 1.208 . S
O280 Cd281 2.223 . S
O280 C288 1.315 . S
Cd281 O280 2.223 . S
Cd281 O284 2.297 . S
Cd281 O285 2.439 . S
Cd281 O291 2.240 . S
Cd282 O283 2.240 . S
Cd282 O290 2.223 . S
Cd282 O292 2.297 . S
Cd282 O293 2.439 . S
O283 Cd282 2.240 . S
O283 C288 1.279 . S
O284 Cd281 2.297 . S
O284 C286 1.247 . S
O285 Cd281 2.439 . S
O285 C286 1.208 . S
C286 O284 1.247 . S
C286 O285 1.208 . S
C287 O292 1.247 . S
C287 O293 1.208 . S
C288 O280 1.315 . S
C288 O283 1.279 . S
C289 O290 1.315 . S
C289 O291 1.279 . S
O290 Cd282 2.223 . S
O290 C289 1.315 . S
O291 Cd281 2.240 . S
O291 C289 1.279 . S
O292 Cd282 2.297 . S
O292 C287 1.247 . S
O293 Cd282 2.439 . S
O293 C287 1.208 . S
O294 Cd295 2.223 . S
O294 C302 1.315 . S
Cd295 O294 2.223 . S
Cd295 O298 2.297 . S
Cd295 O299 2.439 . S
Cd295 O305 2.240 . S
Cd296 O297 2.240 . S
Cd296 O304 2.223 . S
Cd296 O306 2.297 . S
Cd296 O307 2.439 . S
O297 Cd296 2.240 . S
O297 C302 1.279 . S
O298 Cd295 2.297 . S
O298 C300 1.247 . S
O299 Cd295 2.439 . S
O299 C300 1.208 . S
C300 O298 1.247 . S
C300 O299 1.208 . S
C301 O306 1.247 . S
C301 O307 1.208 . S
C302 O294 1.315 . S
C302 O297 1.279 . S
C303 O304 1.315 . S
C303 O305 1.279 . S
O304 Cd296 2.223 . S
O304 C303 1.315 . S
O305 Cd295 2.240 . S
O305 C303 1.279 . S
O306 Cd296 2.297 . S
O306 C301 1.247 . S
O307 Cd296 2.439 . S
O307 C301 1.208 . S
O308 Cd309 2.223 . S
O308 C316 1.315 . S
Cd309 O308 2.223 . S
Cd309 O312 2.297 . S
Cd309 O313 2.439 . S
Cd309 O319 2.240 . S
Cd310 O311 2.240 . S
Cd310 O318 2.223 . S
Cd310 O320 2.297 . S
Cd310 O321 2.439 . S
O311 Cd310 2.240 . S
O311 C316 1.279 . S
O312 Cd309 2.297 . S
O312 C314 1.247 . S
O313 Cd309 2.439 . S
O313 C314 1.208 . S
C314 O312 1.247 . S
C314 O313 1.208 . S
C315 O320 1.247 . S
C315 O321 1.208 . S
C316 O308 1.315 . S
C316 O311 1.279 . S
C317 O318 1.315 . S
C317 O319 1.279 . S
O318 Cd310 2.223 . S
O318 C317 1.315 . S
O319 Cd309 2.240 . S
O319 C317 1.279 . S
O320 Cd310 2.297 . S
O320 C315 1.247 . S
O321 Cd310 2.439 . S
O321 C315 1.208 . S
O322 Cd323 2.223 . S
O322 C330 1.315 . S
Cd323 O322 2.223 . S
Cd323 O326 2.297 . S
Cd323 O327 2.439 . S
Cd323 O333 2.240 . S
Cd324 O325 2.240 . S
Cd324 O332 2.223 . S
Cd324 O334 2.297 . S
Cd324 O335 2.439 . S
O325 Cd324 2.240 . S
O325 C330 1.279 . S
O326 Cd323 2.297 . S
O326 C328 1.247 . S
O327 Cd323 2.439 . S
O327 C328 1.208 . S
C328 O326 1.247 . S
C328 O327 1.208 . S
C329 O334 1.247 . S
C329 O335 1.208 . S
C330 O322 1.315 . S
C330 O325 1.279 . S
C331 O332 1.315 . S
C331 O333 1.279 . S
O332 Cd324 2.223 . S
O332 C331 1.315 . S
O333 Cd323 2.240 . S
O333 C331 1.279 . S
O334 Cd324 2.297 . S
O334 C329 1.247 . S
O335 Cd324 2.439 . S
O335 C329 1.208 . S
O336 Cd337 2.223 . S
O336 C344 1.315 . S
Cd337 O336 2.223 . S
Cd337 O340 2.297 . S
Cd337 O341 2.439 . S
Cd337 O347 2.240 . S
Cd338 O339 2.240 . S
Cd338 O346 2.223 . S
Cd338 O348 2.297 . S
Cd338 O349 2.439 . S
O339 Cd338 2.240 . S
O339 C344 1.279 . S
O340 Cd337 2.297 . S
O340 C342 1.247 . S
O341 Cd337 2.439 . S
O341 C342 1.208 . S
C342 O340 1.247 . S
C342 O341 1.208 . S
C343 O348 1.247 . S
C343 O349 1.208 . S
C344 O336 1.315 . S
C344 O339 1.279 . S
C345 O346 1.315 . S
C345 O347 1.279 . S
O346 Cd338 2.223 . S
O346 C345 1.315 . S
O347 Cd337 2.240 . S
O347 C345 1.279 . S
O348 Cd338 2.297 . S
O348 C343 1.247 . S
O349 Cd338 2.439 . S
O349 C343 1.208 . S
O350 Cd351 2.223 . S
O350 C358 1.315 . S
Cd351 O350 2.223 . S
Cd351 O354 2.297 . S
Cd351 O355 2.439 . S
Cd351 O361 2.240 . S
Cd352 O353 2.240 . S
Cd352 O360 2.223 . S
Cd352 O362 2.297 . S
Cd352 O363 2.439 . S
O353 Cd352 2.240 . S
O353 C358 1.279 . S
O354 Cd351 2.297 . S
O354 C356 1.247 . S
O355 Cd351 2.439 . S
O355 C356 1.208 . S
C356 O354 1.247 . S
C356 O355 1.208 . S
C357 O362 1.247 . S
C357 O363 1.208 . S
C358 O350 1.315 . S
C358 O353 1.279 . S
C359 O360 1.315 . S
C359 O361 1.279 . S
O360 Cd352 2.223 . S
O360 C359 1.315 . S
O361 Cd351 2.240 . S
O361 C359 1.279 . S
O362 Cd352 2.297 . S
O362 C357 1.247 . S
O363 Cd352 2.439 . S
O363 C357 1.208 . S
O364 Cd365 2.223 . S
O364 C372 1.315 . S
Cd365 O364 2.223 . S
Cd365 O368 2.297 . S
Cd365 O369 2.439 . S
Cd365 O375 2.240 . S
Cd366 O367 2.240 . S
Cd366 O374 2.223 . S
Cd366 O376 2.297 . S
Cd366 O377 2.439 . S
O367 Cd366 2.240 . S
O367 C372 1.279 . S
O368 Cd365 2.297 . S
O368 C370 1.247 . S
O369 Cd365 2.439 . S
O369 C370 1.208 . S
C370 O368 1.247 . S
C370 O369 1.208 . S
C371 O376 1.247 . S
C371 O377 1.208 . S
C372 O364 1.315 . S
C372 O367 1.279 . S
C373 O374 1.315 . S
C373 O375 1.279 . S
O374 Cd366 2.223 . S
O374 C373 1.315 . S
O375 Cd365 2.240 . S
O375 C373 1.279 . S
O376 Cd366 2.297 . S
O376 C371 1.247 . S
O377 Cd366 2.439 . S
O377 C371 1.208 . S
O378 Cd379 2.223 . S
O378 C386 1.315 . S
Cd379 O378 2.223 . S
Cd379 O382 2.297 . S
Cd379 O383 2.439 . S
Cd379 O389 2.240 . S
Cd380 O381 2.240 . S
Cd380 O388 2.223 . S
Cd380 O390 2.297 . S
Cd380 O391 2.439 . S
O381 Cd380 2.240 . S
O381 C386 1.279 . S
O382 Cd379 2.297 . S
O382 C384 1.247 . S
O383 Cd379 2.439 . S
O383 C384 1.208 . S
C384 O382 1.247 . S
C384 O383 1.208 . S
C385 O390 1.247 . S
C385 O391 1.208 . S
C386 O378 1.315 . S
C386 O381 1.279 . S
C387 O388 1.315 . S
C387 O389 1.279 . S
O388 Cd380 2.223 . S
O388 C387 1.315 . S
O389 Cd379 2.240 . S
O389 C387 1.279 . S
O390 Cd380 2.297 . S
O390 C385 1.247 . S
O391 Cd380 2.439 . S
O391 C385 1.208 . S
O392 Cd393 2.223 . S
O392 C400 1.315 . S
Cd393 O392 2.223 . S
Cd393 O396 2.297 . S
Cd393 O397 2.439 . S
Cd393 O403 2.240 . S
Cd394 O395 2.240 . S
Cd394 O402 2.223 . S
Cd394 O404 2.297 . S
Cd394 O405 2.439 . S
O395 Cd394 2.240 . S
O395 C400 1.279 . S
O396 Cd393 2.297 . S
O396 C398 1.247 . S
O397 Cd393 2.439 . S
O397 C398 1.208 . S
C398 O396 1.247 . S
C398 O397 1.208 . S
C399 O404 1.247 . S
C399 O405 1.208 . S
C400 O392 1.315 . S
C400 O395 1.279 . S
C401 O402 1.315 . S
C401 O403 1.279 . S
O402 Cd394 2.223 . S
O402 C401 1.315 . S
O403 Cd393 2.240 . S
O403 C401 1.279 . S
O404 Cd394 2.297 . S
O404 C399 1.247 . S
O405 Cd394 2.439 . S
O405 C399 1.208 . S
O406 Cd407 2.223 . S
O406 C414 1.315 . S
Cd407 O406 2.223 . S
Cd407 O410 2.297 . S
Cd407 O411 2.439 . S
Cd407 O417 2.240 . S
Cd408 O409 2.240 . S
Cd408 O416 2.223 . S
Cd408 O418 2.297 . S
Cd408 O419 2.439 . S
O409 Cd408 2.240 . S
O409 C414 1.279 . S
O410 Cd407 2.297 . S
O410 C412 1.247 . S
O411 Cd407 2.439 . S
O411 C412 1.208 . S
C412 O410 1.247 . S
C412 O411 1.208 . S
C413 O418 1.247 . S
C413 O419 1.208 . S
C414 O406 1.315 . S
C414 O409 1.279 . S
C415 O416 1.315 . S
C415 O417 1.279 . S
O416 Cd408 2.223 . S
O416 C415 1.315 . S
O417 Cd407 2.240 . S
O417 C415 1.279 . S
O418 Cd408 2.297 . S
O418 C413 1.247 . S
O419 Cd408 2.439 . S
O419 C413 1.208 . S
O420 Cd421 2.223 . S
O420 C428 1.315 . S
Cd421 O420 2.223 . S
Cd421 O424 2.297 . S
Cd421 O425 2.439 . S
Cd421 O431 2.240 . S
Cd422 O423 2.240 . S
Cd422 O430 2.223 . S
Cd422 O432 2.297 . S
Cd422 O433 2.439 . S
O423 Cd422 2.240 . S
O423 C428 1.279 . S
O424 Cd421 2.297 . S
O424 C426 1.247 . S
O425 Cd421 2.439 . S
O425 C426 1.208 . S
C426 O424 1.247 . S
C426 O425 1.208 . S
C427 O432 1.247 . S
C427 O433 1.208 . S
C428 O420 1.315 . S
C428 O423 1.279 . S
C429 O430 1.315 . S
C429 O431 1.279 . S
O430 Cd422 2.223 . S
O430 C429 1.315 . S
O431 Cd421 2.240 . S
O431 C429 1.279 . S
O432 Cd422 2.297 . S
O432 C427 1.247 . S
O433 Cd422 2.439 . S
O433 C427 1.208 . S
O434 Cd435 2.223 . S
O434 C442 1.315 . S
Cd435 O434 2.223 . S
Cd435 O438 2.297 . S
Cd435 O439 2.439 . S
Cd435 O445 2.240 . S
Cd436 O437 2.240 . S
Cd436 O444 2.223 . S
Cd436 O446 2.297 . S
Cd436 O447 2.439 . S
O437 Cd436 2.240 . S
O437 C442 1.279 . S
O438 Cd435 2.297 . S
O438 C440 1.247 . S
O439 Cd435 2.439 . S
O439 C440 1.208 . S
C440 O438 1.247 . S
C440 O439 1.208 . S
C441 O446 1.247 . S
C441 O447 1.208 . S
C442 O434 1.315 . S
C442 O437 1.279 . S
C443 O444 1.315 . S
C443 O445 1.279 . S
O444 Cd436 2.223 . S
O444 C443 1.315 . S
O445 Cd435 2.240 . S
O445 C443 1.279 . S
O446 Cd436 2.297 . S
O446 C441 1.247 . S
O447 Cd436 2.439 . S
O447 C441 1.208 . S
O448 Cd449 2.223 . S
O448 C456 1.315 . S
Cd449 O448 2.223 . S
Cd449 O452 2.297 . S
Cd449 O453 2.439 . S
Cd449 O459 2.240 . S
Cd450 O451 2.240 . S
Cd450 O458 2.223 . S
Cd450 O460 2.297 . S
Cd450 O461 2.439 . S
O451 Cd450 2.240 . S
O451 C456 1.279 . S
O452 Cd449 2.297 . S
O452 C454 1.247 . S
O453 Cd449 2.439 . S
O453 C454 1.208 . S
C454 O452 1.247 . S
C454 O453 1.208 . S
C455 O460 1.247 . S
C455 O461 1.208 . S
C456 O448 1.315 . S
C456 O451 1.279 . S
C457 O458 1.315 . S
C457 O459 1.279 . S
O458 Cd450 2.223 . S
O458 C457 1.315 . S
O459 Cd449 2.240 . S
O459 C457 1.279 . S
O460 Cd450 2.297 . S
O460 C455 1.247 . S
O461 Cd450 2.439 . S
O461 C455 1.208 . S
O462 Cd463 2.223 . S
O462 C470 1.315 . S
Cd463 O462 2.223 . S
Cd463 O466 2.297 . S
Cd463 O467 2.439 . S
Cd463 O473 2.240 . S
Cd464 O465 2.240 . S
Cd464 O472 2.223 . S
Cd464 O474 2.297 . S
Cd464 O475 2.439 . S
O465 Cd464 2.240 . S
O465 C470 1.279 . S
O466 Cd463 2.297 . S
O466 C468 1.247 . S
O467 Cd463 2.439 . S
O467 C468 1.208 . S
C468 O466 1.247 . S
C468 O467 1.208 . S
C469 O474 1.247 . S
C469 O475 1.208 . S
C470 O462 1.315 . S
C470 O465 1.279 . S
C471 O472 1.315 . S
C471 O473 1.279 . S
O472 Cd464 2.223 . S
O472 C471 1.315 . S
O473 Cd463 2.240 . S
O473 C471 1.279 . S
O474 Cd464 2.297 . S
O474 C469 1.247 . S
O475 Cd464 2.439 . S
O475 C469 1.208 . S
O476 Cd477 2.223 . S
O476 C484 1.315 . S
Cd477 O476 2.223 . S
Cd477 O480 2.297 . S
Cd477 O481 2.439 . S
Cd477 O487 2.240 . S
Cd478 O479 2.240 . S
Cd478 O486 2.223 . S
Cd478 O488 2.297 . S
Cd478 O489 2.439 . S
O479 Cd478 2.240 . S
O479 C484 1.279 . S
O480 Cd477 2.297 . S
O480 C482 1.247 . S
O481 Cd477 2.439 . S
O481 C482 1.208 . S
C482 O480 1.247 . S
C482 O481 1.208 . S
C483 O488 1.247 . S
C483 O489 1.208 . S
C484 O476 1.315 . S
C484 O479 1.279 . S
C485 O486 1.315 . S
C485 O487 1.279 . S
O486 Cd478 2.223 . S
O486 C485 1.315 . S
O487 Cd477 2.240 . S
O487 C485 1.279 . S
O488 Cd478 2.297 . S
O488 C483 1.247 . S
O489 Cd478 2.439 . S
O489 C483 1.208 . S
O490 Cd491 2.223 . S
O490 C498 1.315 . S
Cd491 O490 2.223 . S
Cd491 O494 2.297 . S
Cd491 O495 2.439 . S
Cd491 O501 2.240 . S
Cd492 O493 2.240 . S
Cd492 O500 2.223 . S
Cd492 O502 2.297 . S
Cd492 O503 2.439 . S
O493 Cd492 2.240 . S
O493 C498 1.279 . S
O494 Cd491 2.297 . S
O494 C496 1.247 . S
O495 Cd491 2.439 . S
O495 C496 1.208 . S
C496 O494 1.247 . S
C496 O495 1.208 . S
C497 O502 1.247 . S
C497 O503 1.208 . S
C498 O490 1.315 . S
C498 O493 1.279 . S
C499 O500 1.315 . S
C499 O501 1.279 . S
O500 Cd492 2.223 . S
O500 C499 1.315 . S
O501 Cd491 2.240 . S
O501 C499 1.279 . S
O502 Cd492 2.297 . S
O502 C497 1.247 . S
O503 Cd492 2.439 . S
O503 C497 1.208 . S
H504 C512 0.929 . S
H505 C514 0.930 . S
H506 C516 0.930 . S
H507 C519 0.929 . S
H508 C522 0.930 . S
H509 C524 0.960 . S
H510 C524 0.960 . S
H511 C524 0.960 . S
C512 H504 0.929 . S
C512 C513 1.377 . S
C512 C514 1.384 . S
C513 C512 1.377 . S
C513 C519 1.390 . S
C514 H505 0.930 . S
C514 C512 1.384 . S
C514 C515 1.372 . S
C515 C514 1.372 . S
C515 C516 1.400 . S
C515 C520 1.490 . S
C516 H506 0.930 . S
C516 C515 1.400 . S
C516 C519 1.386 . S
H517 C533 0.930 . S
H518 C534 0.931 . S
C519 H507 0.929 . S
C519 C513 1.390 . S
C519 C516 1.386 . S
C520 C515 1.490 . S
C520 C522 1.395 . S
C520 C523 1.403 . S
H521 C527 0.930 . S
C522 H508 0.930 . S
C522 C520 1.395 . S
C522 C525 1.403 . S
C523 C520 1.403 . S
C523 C524 1.524 . S
C523 C527 1.400 . S
C524 H509 0.960 . S
C524 H510 0.960 . S
C524 H511 0.960 . S
C524 C523 1.524 . S
C525 C522 1.403 . S
C525 C526 1.392 . S
C525 C529 1.495 . S
C526 C525 1.392 . S
C526 C527 1.385 . S
C526 C528 1.478 . S
C527 H521 0.930 . S
C527 C523 1.400 . S
C527 C526 1.385 . S
C528 C526 1.478 . S
C528 C530 1.381 . S
C528 C534 1.383 . S
C529 C525 1.495 . S
C529 H535 0.959 . S
C529 H536 0.961 . S
C529 H537 0.960 . S
C530 C528 1.381 . S
C530 C531 1.394 . S
C530 H538 0.930 . S
C531 C530 1.394 . S
C531 C532 1.383 . S
C531 H539 0.929 . S
C532 C531 1.383 . S
C532 C533 1.377 . S
C533 H517 0.930 . S
C533 C532 1.377 . S
C533 C534 1.379 . S
C534 H518 0.931 . S
C534 C528 1.383 . S
C534 C533 1.379 . S
H535 C529 0.959 . S
H536 C529 0.961 . S
H537 C529 0.960 . S
H538 C530 0.930 . S
H539 C531 0.929 . S
H540 C548 0.929 . S
H541 C550 0.930 . S
H542 C552 0.930 . S
H543 C555 0.929 . S
H544 C558 0.930 . S
H545 C560 0.960 . S
H546 C560 0.960 . S
H547 C560 0.960 . S
C548 H540 0.929 . S
C548 C549 1.377 . S
C548 C550 1.384 . S
C549 C548 1.377 . S
C549 C555 1.390 . S
C550 H541 0.930 . S
C550 C548 1.384 . S
C550 C551 1.372 . S
C551 C550 1.372 . S
C551 C552 1.400 . S
C551 C556 1.490 . S
C552 H542 0.930 . S
C552 C551 1.400 . S
C552 C555 1.386 . S
H553 C569 0.930 . S
H554 C570 0.931 . S
C555 H543 0.929 . S
C555 C549 1.390 . S
C555 C552 1.386 . S
C556 C551 1.490 . S
C556 C558 1.395 . S
C556 C559 1.403 . S
H557 C563 0.930 . S
C558 H544 0.930 . S
C558 C556 1.395 . S
C558 C561 1.403 . S
C559 C556 1.403 . S
C559 C560 1.524 . S
C559 C563 1.400 . S
C560 H545 0.960 . S
C560 H546 0.960 . S
C560 H547 0.960 . S
C560 C559 1.524 . S
C561 C558 1.403 . S
C561 C562 1.392 . S
C561 C565 1.495 . S
C562 C561 1.392 . S
C562 C563 1.385 . S
C562 C564 1.478 . S
C563 H557 0.930 . S
C563 C559 1.400 . S
C563 C562 1.385 . S
C564 C562 1.478 . S
C564 C566 1.381 . S
C564 C570 1.383 . S
C565 C561 1.495 . S
C565 H571 0.959 . S
C565 H572 0.961 . S
C565 H573 0.960 . S
C566 C564 1.381 . S
C566 C567 1.394 . S
C566 H574 0.930 . S
C567 C566 1.394 . S
C567 C568 1.383 . S
C567 H575 0.929 . S
C568 C567 1.383 . S
C568 C569 1.377 . S
C569 H553 0.930 . S
C569 C568 1.377 . S
C569 C570 1.379 . S
C570 H554 0.931 . S
C570 C564 1.383 . S
C570 C569 1.379 . S
H571 C565 0.959 . S
H572 C565 0.961 . S
H573 C565 0.960 . S
H574 C566 0.930 . S
H575 C567 0.929 . S
H576 C584 0.929 . S
H577 C586 0.930 . S
H578 C588 0.930 . S
H579 C591 0.929 . S
H580 C594 0.930 . S
H581 C596 0.960 . S
H582 C596 0.960 . S
H583 C596 0.960 . S
C584 H576 0.929 . S
C584 C585 1.377 . S
C584 C586 1.384 . S
C585 C584 1.377 . S
C585 C591 1.390 . S
C586 H577 0.930 . S
C586 C584 1.384 . S
C586 C587 1.372 . S
C587 C586 1.372 . S
C587 C588 1.400 . S
C587 C592 1.490 . S
C588 H578 0.930 . S
C588 C587 1.400 . S
C588 C591 1.386 . S
H589 C605 0.930 . S
H590 C606 0.931 . S
C591 H579 0.929 . S
C591 C585 1.390 . S
C591 C588 1.386 . S
C592 C587 1.490 . S
C592 C594 1.395 . S
C592 C595 1.403 . S
H593 C599 0.930 . S
C594 H580 0.930 . S
C594 C592 1.395 . S
C594 C597 1.403 . S
C595 C592 1.403 . S
C595 C596 1.524 . S
C595 C599 1.400 . S
C596 H581 0.960 . S
C596 H582 0.960 . S
C596 H583 0.960 . S
C596 C595 1.524 . S
C597 C594 1.403 . S
C597 C598 1.392 . S
C597 C601 1.495 . S
C598 C597 1.392 . S
C598 C599 1.385 . S
C598 C600 1.478 . S
C599 H593 0.930 . S
C599 C595 1.400 . S
C599 C598 1.385 . S
C600 C598 1.478 . S
C600 C602 1.381 . S
C600 C606 1.383 . S
C601 C597 1.495 . S
C601 H607 0.959 . S
C601 H608 0.961 . S
C601 H609 0.960 . S
C602 C600 1.381 . S
C602 C603 1.394 . S
C602 H610 0.930 . S
C603 C602 1.394 . S
C603 C604 1.383 . S
C603 H611 0.929 . S
C604 C603 1.383 . S
C604 C605 1.377 . S
C605 H589 0.930 . S
C605 C604 1.377 . S
C605 C606 1.379 . S
C606 H590 0.931 . S
C606 C600 1.383 . S
C606 C605 1.379 . S
H607 C601 0.959 . S
H608 C601 0.961 . S
H609 C601 0.960 . S
H610 C602 0.930 . S
H611 C603 0.929 . S
H612 C620 0.929 . S
H613 C622 0.930 . S
H614 C624 0.930 . S
H615 C627 0.929 . S
H616 C630 0.930 . S
H617 C632 0.960 . S
H618 C632 0.960 . S
H619 C632 0.960 . S
C620 H612 0.929 . S
C620 C621 1.377 . S
C620 C622 1.384 . S
C621 C620 1.377 . S
C621 C627 1.390 . S
C622 H613 0.930 . S
C622 C620 1.384 . S
C622 C623 1.372 . S
C623 C622 1.372 . S
C623 C624 1.400 . S
C623 C628 1.490 . S
C624 H614 0.930 . S
C624 C623 1.400 . S
C624 C627 1.386 . S
H625 C641 0.930 . S
H626 C642 0.931 . S
C627 H615 0.929 . S
C627 C621 1.390 . S
C627 C624 1.386 . S
C628 C623 1.490 . S
C628 C630 1.395 . S
C628 C631 1.403 . S
H629 C635 0.930 . S
C630 H616 0.930 . S
C630 C628 1.395 . S
C630 C633 1.403 . S
C631 C628 1.403 . S
C631 C632 1.524 . S
C631 C635 1.400 . S
C632 H617 0.960 . S
C632 H618 0.960 . S
C632 H619 0.960 . S
C632 C631 1.524 . S
C633 C630 1.403 . S
C633 C634 1.392 . S
C633 C637 1.495 . S
C634 C633 1.392 . S
C634 C635 1.385 . S
C634 C636 1.478 . S
C635 H629 0.930 . S
C635 C631 1.400 . S
C635 C634 1.385 . S
C636 C634 1.478 . S
C636 C638 1.381 . S
C636 C642 1.383 . S
C637 C633 1.495 . S
C637 H643 0.959 . S
C637 H644 0.961 . S
C637 H645 0.960 . S
C638 C636 1.381 . S
C638 C639 1.394 . S
C638 H646 0.930 . S
C639 C638 1.394 . S
C639 C640 1.383 . S
C639 H647 0.929 . S
C640 C639 1.383 . S
C640 C641 1.377 . S
C641 H625 0.930 . S
C641 C640 1.377 . S
C641 C642 1.379 . S
C642 H626 0.931 . S
C642 C636 1.383 . S
C642 C641 1.379 . S
H643 C637 0.959 . S
H644 C637 0.961 . S
H645 C637 0.960 . S
H646 C638 0.930 . S
H647 C639 0.929 . S
H648 C656 0.929 . S
H649 C658 0.930 . S
H650 C660 0.930 . S
H651 C663 0.929 . S
H652 C666 0.930 . S
H653 C668 0.960 . S
H654 C668 0.960 . S
H655 C668 0.960 . S
C656 H648 0.929 . S
C656 C657 1.377 . S
C656 C658 1.384 . S
C657 C656 1.377 . S
C657 C663 1.390 . S
C658 H649 0.930 . S
C658 C656 1.384 . S
C658 C659 1.372 . S
C659 C658 1.372 . S
C659 C660 1.400 . S
C659 C664 1.490 . S
C660 H650 0.930 . S
C660 C659 1.400 . S
C660 C663 1.386 . S
H661 C677 0.930 . S
H662 C678 0.931 . S
C663 H651 0.929 . S
C663 C657 1.390 . S
C663 C660 1.386 . S
C664 C659 1.490 . S
C664 C666 1.395 . S
C664 C667 1.403 . S
H665 C671 0.930 . S
C666 H652 0.930 . S
C666 C664 1.395 . S
C666 C669 1.403 . S
C667 C664 1.403 . S
C667 C668 1.524 . S
C667 C671 1.400 . S
C668 H653 0.960 . S
C668 H654 0.960 . S
C668 H655 0.960 . S
C668 C667 1.524 . S
C669 C666 1.403 . S
C669 C670 1.392 . S
C669 C673 1.495 . S
C670 C669 1.392 . S
C670 C671 1.385 . S
C670 C672 1.478 . S
C671 H665 0.930 . S
C671 C667 1.400 . S
C671 C670 1.385 . S
C672 C670 1.478 . S
C672 C674 1.381 . S
C672 C678 1.383 . S
C673 C669 1.495 . S
C673 H679 0.959 . S
C673 H680 0.961 . S
C673 H681 0.960 . S
C674 C672 1.381 . S
C674 C675 1.394 . S
C674 H682 0.930 . S
C675 C674 1.394 . S
C675 C676 1.383 . S
C675 H683 0.929 . S
C676 C675 1.383 . S
C676 C677 1.377 . S
C677 H661 0.930 . S
C677 C676 1.377 . S
C677 C678 1.379 . S
C678 H662 0.931 . S
C678 C672 1.383 . S
C678 C677 1.379 . S
H679 C673 0.959 . S
H680 C673 0.961 . S
H681 C673 0.960 . S
H682 C674 0.930 . S
H683 C675 0.929 . S
H684 C692 0.929 . S
H685 C694 0.930 . S
H686 C696 0.930 . S
H687 C699 0.929 . S
H688 C702 0.930 . S
H689 C704 0.960 . S
H690 C704 0.960 . S
H691 C704 0.960 . S
C692 H684 0.929 . S
C692 C693 1.377 . S
C692 C694 1.384 . S
C693 C692 1.377 . S
C693 C699 1.390 . S
C694 H685 0.930 . S
C694 C692 1.384 . S
C694 C695 1.372 . S
C695 C694 1.372 . S
C695 C696 1.400 . S
C695 C700 1.490 . S
C696 H686 0.930 . S
C696 C695 1.400 . S
C696 C699 1.386 . S
H697 C713 0.930 . S
H698 C714 0.931 . S
C699 H687 0.929 . S
C699 C693 1.390 . S
C699 C696 1.386 . S
C700 C695 1.490 . S
C700 C702 1.395 . S
C700 C703 1.403 . S
H701 C707 0.930 . S
C702 H688 0.930 . S
C702 C700 1.395 . S
C702 C705 1.403 . S
C703 C700 1.403 . S
C703 C704 1.524 . S
C703 C707 1.400 . S
C704 H689 0.960 . S
C704 H690 0.960 . S
C704 H691 0.960 . S
C704 C703 1.524 . S
C705 C702 1.403 . S
C705 C706 1.392 . S
C705 C709 1.495 . S
C706 C705 1.392 . S
C706 C707 1.385 . S
C706 C708 1.478 . S
C707 H701 0.930 . S
C707 C703 1.400 . S
C707 C706 1.385 . S
C708 C706 1.478 . S
C708 C710 1.381 . S
C708 C714 1.383 . S
C709 C705 1.495 . S
C709 H715 0.959 . S
C709 H716 0.961 . S
C709 H717 0.960 . S
C710 C708 1.381 . S
C710 C711 1.394 . S
C710 H718 0.930 . S
C711 C710 1.394 . S
C711 C712 1.383 . S
C711 H719 0.929 . S
C712 C711 1.383 . S
C712 C713 1.377 . S
C713 H697 0.930 . S
C713 C712 1.377 . S
C713 C714 1.379 . S
C714 H698 0.931 . S
C714 C708 1.383 . S
C714 C713 1.379 . S
H715 C709 0.959 . S
H716 C709 0.961 . S
H717 C709 0.960 . S
H718 C710 0.930 . S
H719 C711 0.929 . S
H720 C728 0.929 . S
H721 C730 0.930 . S
H722 C732 0.930 . S
H723 C735 0.929 . S
H724 C738 0.930 . S
H725 C740 0.960 . S
H726 C740 0.960 . S
H727 C740 0.960 . S
C728 H720 0.929 . S
C728 C729 1.377 . S
C728 C730 1.384 . S
C729 C728 1.377 . S
C729 C735 1.390 . S
C730 H721 0.930 . S
C730 C728 1.384 . S
C730 C731 1.372 . S
C731 C730 1.372 . S
C731 C732 1.400 . S
C731 C736 1.490 . S
C732 H722 0.930 . S
C732 C731 1.400 . S
C732 C735 1.386 . S
H733 C749 0.930 . S
H734 C750 0.931 . S
C735 H723 0.929 . S
C735 C729 1.390 . S
C735 C732 1.386 . S
C736 C731 1.490 . S
C736 C738 1.395 . S
C736 C739 1.403 . S
H737 C743 0.930 . S
C738 H724 0.930 . S
C738 C736 1.395 . S
C738 C741 1.403 . S
C739 C736 1.403 . S
C739 C740 1.524 . S
C739 C743 1.400 . S
C740 H725 0.960 . S
C740 H726 0.960 . S
C740 H727 0.960 . S
C740 C739 1.524 . S
C741 C738 1.403 . S
C741 C742 1.392 . S
C741 C745 1.495 . S
C742 C741 1.392 . S
C742 C743 1.385 . S
C742 C744 1.478 . S
C743 H737 0.930 . S
C743 C739 1.400 . S
C743 C742 1.385 . S
C744 C742 1.478 . S
C744 C746 1.381 . S
C744 C750 1.383 . S
C745 C741 1.495 . S
C745 H751 0.959 . S
C745 H752 0.961 . S
C745 H753 0.960 . S
C746 C744 1.381 . S
C746 C747 1.394 . S
C746 H754 0.930 . S
C747 C746 1.394 . S
C747 C748 1.383 . S
C747 H755 0.929 . S
C748 C747 1.383 . S
C748 C749 1.377 . S
C749 H733 0.930 . S
C749 C748 1.377 . S
C749 C750 1.379 . S
C750 H734 0.931 . S
C750 C744 1.383 . S
C750 C749 1.379 . S
H751 C745 0.959 . S
H752 C745 0.961 . S
H753 C745 0.960 . S
H754 C746 0.930 . S
H755 C747 0.929 . S
H756 C764 0.929 . S
H757 C766 0.930 . S
H758 C768 0.930 . S
H759 C771 0.929 . S
H760 C774 0.930 . S
H761 C776 0.960 . S
H762 C776 0.960 . S
H763 C776 0.960 . S
C764 H756 0.929 . S
C764 C765 1.377 . S
C764 C766 1.384 . S
C765 C764 1.377 . S
C765 C771 1.390 . S
C766 H757 0.930 . S
C766 C764 1.384 . S
C766 C767 1.372 . S
C767 C766 1.372 . S
C767 C768 1.400 . S
C767 C772 1.490 . S
C768 H758 0.930 . S
C768 C767 1.400 . S
C768 C771 1.386 . S
H769 C785 0.930 . S
H770 C786 0.931 . S
C771 H759 0.929 . S
C771 C765 1.390 . S
C771 C768 1.386 . S
C772 C767 1.490 . S
C772 C774 1.395 . S
C772 C775 1.403 . S
H773 C779 0.930 . S
C774 H760 0.930 . S
C774 C772 1.395 . S
C774 C777 1.403 . S
C775 C772 1.403 . S
C775 C776 1.524 . S
C775 C779 1.400 . S
C776 H761 0.960 . S
C776 H762 0.960 . S
C776 H763 0.960 . S
C776 C775 1.524 . S
C777 C774 1.403 . S
C777 C778 1.392 . S
C777 C781 1.495 . S
C778 C777 1.392 . S
C778 C779 1.385 . S
C778 C780 1.478 . S
C779 H773 0.930 . S
C779 C775 1.400 . S
C779 C778 1.385 . S
C780 C778 1.478 . S
C780 C782 1.381 . S
C780 C786 1.383 . S
C781 C777 1.495 . S
C781 H787 0.959 . S
C781 H788 0.961 . S
C781 H789 0.960 . S
C782 C780 1.381 . S
C782 C783 1.394 . S
C782 H790 0.930 . S
C783 C782 1.394 . S
C783 C784 1.383 . S
C783 H791 0.929 . S
C784 C783 1.383 . S
C784 C785 1.377 . S
C785 H769 0.930 . S
C785 C784 1.377 . S
C785 C786 1.379 . S
C786 H770 0.931 . S
C786 C780 1.383 . S
C786 C785 1.379 . S
H787 C781 0.959 . S
H788 C781 0.961 . S
H789 C781 0.960 . S
H790 C782 0.930 . S
H791 C783 0.929 . S
H792 C800 0.929 . S
H793 C802 0.930 . S
H794 C804 0.930 . S
H795 C807 0.929 . S
H796 C810 0.930 . S
H797 C812 0.960 . S
H798 C812 0.960 . S
H799 C812 0.960 . S
C800 H792 0.929 . S
C800 C801 1.377 . S
C800 C802 1.384 . S
C801 C800 1.377 . S
C801 C807 1.390 . S
C802 H793 0.930 . S
C802 C800 1.384 . S
C802 C803 1.372 . S
C803 C802 1.372 . S
C803 C804 1.400 . S
C803 C808 1.490 . S
C804 H794 0.930 . S
C804 C803 1.400 . S
C804 C807 1.386 . S
H805 C821 0.930 . S
H806 C822 0.931 . S
C807 H795 0.929 . S
C807 C801 1.390 . S
C807 C804 1.386 . S
C808 C803 1.490 . S
C808 C810 1.395 . S
C808 C811 1.403 . S
H809 C815 0.930 . S
C810 H796 0.930 . S
C810 C808 1.395 . S
C810 C813 1.403 . S
C811 C808 1.403 . S
C811 C812 1.524 . S
C811 C815 1.400 . S
C812 H797 0.960 . S
C812 H798 0.960 . S
C812 H799 0.960 . S
C812 C811 1.524 . S
C813 C810 1.403 . S
C813 C814 1.392 . S
C813 C817 1.495 . S
C814 C813 1.392 . S
C814 C815 1.385 . S
C814 C816 1.478 . S
C815 H809 0.930 . S
C815 C811 1.400 . S
C815 C814 1.385 . S
C816 C814 1.478 . S
C816 C818 1.381 . S
C816 C822 1.383 . S
C817 C813 1.495 . S
C817 H823 0.959 . S
C817 H824 0.961 . S
C817 H825 0.960 . S
C818 C816 1.381 . S
C818 C819 1.394 . S
C818 H826 0.930 . S
C819 C818 1.394 . S
C819 C820 1.383 . S
C819 H827 0.929 . S
C820 C819 1.383 . S
C820 C821 1.377 . S
C821 H805 0.930 . S
C821 C820 1.377 . S
C821 C822 1.379 . S
C822 H806 0.931 . S
C822 C816 1.383 . S
C822 C821 1.379 . S
H823 C817 0.959 . S
H824 C817 0.961 . S
H825 C817 0.960 . S
H826 C818 0.930 . S
H827 C819 0.929 . S
H828 C836 0.929 . S
H829 C838 0.930 . S
H830 C840 0.930 . S
H831 C843 0.929 . S
H832 C846 0.930 . S
H833 C848 0.960 . S
H834 C848 0.960 . S
H835 C848 0.960 . S
C836 H828 0.929 . S
C836 C837 1.377 . S
C836 C838 1.384 . S
C837 C836 1.377 . S
C837 C843 1.390 . S
C838 H829 0.930 . S
C838 C836 1.384 . S
C838 C839 1.372 . S
C839 C838 1.372 . S
C839 C840 1.400 . S
C839 C844 1.490 . S
C840 H830 0.930 . S
C840 C839 1.400 . S
C840 C843 1.386 . S
H841 C857 0.930 . S
H842 C858 0.931 . S
C843 H831 0.929 . S
C843 C837 1.390 . S
C843 C840 1.386 . S
C844 C839 1.490 . S
C844 C846 1.395 . S
C844 C847 1.403 . S
H845 C851 0.930 . S
C846 H832 0.930 . S
C846 C844 1.395 . S
C846 C849 1.403 . S
C847 C844 1.403 . S
C847 C848 1.524 . S
C847 C851 1.400 . S
C848 H833 0.960 . S
C848 H834 0.960 . S
C848 H835 0.960 . S
C848 C847 1.524 . S
C849 C846 1.403 . S
C849 C850 1.392 . S
C849 C853 1.495 . S
C850 C849 1.392 . S
C850 C851 1.385 . S
C850 C852 1.478 . S
C851 H845 0.930 . S
C851 C847 1.400 . S
C851 C850 1.385 . S
C852 C850 1.478 . S
C852 C854 1.381 . S
C852 C858 1.383 . S
C853 C849 1.495 . S
C853 H859 0.959 . S
C853 H860 0.961 . S
C853 H861 0.960 . S
C854 C852 1.381 . S
C854 C855 1.394 . S
C854 H862 0.930 . S
C855 C854 1.394 . S
C855 C856 1.383 . S
C855 H863 0.929 . S
C856 C855 1.383 . S
C856 C857 1.377 . S
C857 H841 0.930 . S
C857 C856 1.377 . S
C857 C858 1.379 . S
C858 H842 0.931 . S
C858 C852 1.383 . S
C858 C857 1.379 . S
H859 C853 0.959 . S
H860 C853 0.961 . S
H861 C853 0.960 . S
H862 C854 0.930 . S
H863 C855 0.929 . S
H864 C872 0.929 . S
H865 C874 0.930 . S
H866 C876 0.930 . S
H867 C879 0.929 . S
H868 C882 0.930 . S
H869 C884 0.960 . S
H870 C884 0.960 . S
H871 C884 0.960 . S
C872 H864 0.929 . S
C872 C873 1.377 . S
C872 C874 1.384 . S
C873 C872 1.377 . S
C873 C879 1.390 . S
C874 H865 0.930 . S
C874 C872 1.384 . S
C874 C875 1.372 . S
C875 C874 1.372 . S
C875 C876 1.400 . S
C875 C880 1.490 . S
C876 H866 0.930 . S
C876 C875 1.400 . S
C876 C879 1.386 . S
H877 C893 0.930 . S
H878 C894 0.931 . S
C879 H867 0.929 . S
C879 C873 1.390 . S
C879 C876 1.386 . S
C880 C875 1.490 . S
C880 C882 1.395 . S
C880 C883 1.403 . S
H881 C887 0.930 . S
C882 H868 0.930 . S
C882 C880 1.395 . S
C882 C885 1.403 . S
C883 C880 1.403 . S
C883 C884 1.524 . S
C883 C887 1.400 . S
C884 H869 0.960 . S
C884 H870 0.960 . S
C884 H871 0.960 . S
C884 C883 1.524 . S
C885 C882 1.403 . S
C885 C886 1.392 . S
C885 C889 1.495 . S
C886 C885 1.392 . S
C886 C887 1.385 . S
C886 C888 1.478 . S
C887 H881 0.930 . S
C887 C883 1.400 . S
C887 C886 1.385 . S
C888 C886 1.478 . S
C888 C890 1.381 . S
C888 C894 1.383 . S
C889 C885 1.495 . S
C889 H895 0.959 . S
C889 H896 0.961 . S
C889 H897 0.960 . S
C890 C888 1.381 . S
C890 C891 1.394 . S
C890 H898 0.930 . S
C891 C890 1.394 . S
C891 C892 1.383 . S
C891 H899 0.929 . S
C892 C891 1.383 . S
C892 C893 1.377 . S
C893 H877 0.930 . S
C893 C892 1.377 . S
C893 C894 1.379 . S
C894 H878 0.931 . S
C894 C888 1.383 . S
C894 C893 1.379 . S
H895 C889 0.959 . S
H896 C889 0.961 . S
H897 C889 0.960 . S
H898 C890 0.930 . S
H899 C891 0.929 . S
H900 C908 0.929 . S
H901 C910 0.930 . S
H902 C912 0.930 . S
H903 C915 0.929 . S
H904 C918 0.930 . S
H905 C920 0.960 . S
H906 C920 0.960 . S
H907 C920 0.960 . S
C908 H900 0.929 . S
C908 C909 1.377 . S
C908 C910 1.384 . S
C909 C908 1.377 . S
C909 C915 1.390 . S
C910 H901 0.930 . S
C910 C908 1.384 . S
C910 C911 1.372 . S
C911 C910 1.372 . S
C911 C912 1.400 . S
C911 C916 1.490 . S
C912 H902 0.930 . S
C912 C911 1.400 . S
C912 C915 1.386 . S
H913 C929 0.930 . S
H914 C930 0.931 . S
C915 H903 0.929 . S
C915 C909 1.390 . S
C915 C912 1.386 . S
C916 C911 1.490 . S
C916 C918 1.395 . S
C916 C919 1.403 . S
H917 C923 0.930 . S
C918 H904 0.930 . S
C918 C916 1.395 . S
C918 C921 1.403 . S
C919 C916 1.403 . S
C919 C920 1.524 . S
C919 C923 1.400 . S
C920 H905 0.960 . S
C920 H906 0.960 . S
C920 H907 0.960 . S
C920 C919 1.524 . S
C921 C918 1.403 . S
C921 C922 1.392 . S
C921 C925 1.495 . S
C922 C921 1.392 . S
C922 C923 1.385 . S
C922 C924 1.478 . S
C923 H917 0.930 . S
C923 C919 1.400 . S
C923 C922 1.385 . S
C924 C922 1.478 . S
C924 C926 1.381 . S
C924 C930 1.383 . S
C925 C921 1.495 . S
C925 H931 0.959 . S
C925 H932 0.961 . S
C925 H933 0.960 . S
C926 C924 1.381 . S
C926 C927 1.394 . S
C926 H934 0.930 . S
C927 C926 1.394 . S
C927 C928 1.383 . S
C927 H935 0.929 . S
C928 C927 1.383 . S
C928 C929 1.377 . S
C929 H913 0.930 . S
C929 C928 1.377 . S
C929 C930 1.379 . S
C930 H914 0.931 . S
C930 C924 1.383 . S
C930 C929 1.379 . S
H931 C925 0.959 . S
H932 C925 0.961 . S
H933 C925 0.960 . S
H934 C926 0.930 . S
H935 C927 0.929 . S
H936 C944 0.929 . S
H937 C946 0.930 . S
H938 C948 0.930 . S
H939 C951 0.929 . S
H940 C954 0.930 . S
H941 C956 0.960 . S
H942 C956 0.960 . S
H943 C956 0.960 1_455 S
C944 H936 0.929 . S
C944 C945 1.377 . S
C944 C946 1.384 . S
C945 C944 1.377 . S
C945 C951 1.390 . S
C946 H937 0.930 . S
C946 C944 1.384 . S
C946 C947 1.372 . S
C947 C946 1.372 . S
C947 C948 1.400 . S
C947 C952 1.490 . S
C948 H938 0.930 . S
C948 C947 1.400 . S
C948 C951 1.386 . S
H949 C965 0.930 . S
H950 C966 0.931 . S
C951 H939 0.929 . S
C951 C945 1.390 . S
C951 C948 1.386 . S
C952 C947 1.490 . S
C952 C954 1.395 . S
C952 C955 1.403 1_455 S
H953 C959 0.930 . S
C954 H940 0.930 . S
C954 C952 1.395 . S
C954 C957 1.403 . S
C955 C952 1.403 1_655 S
C955 C956 1.524 . S
C955 C959 1.400 . S
C956 H941 0.960 . S
C956 H942 0.960 . S
C956 H943 0.960 1_655 S
C956 C955 1.524 . S
C957 C954 1.403 . S
C957 C958 1.392 1_455 S
C957 C961 1.495 . S
C958 C957 1.392 1_655 S
C958 C959 1.385 . S
C958 C960 1.478 . S
C959 H953 0.930 . S
C959 C955 1.400 . S
C959 C958 1.385 . S
C960 C958 1.478 . S
C960 C962 1.381 . S
C960 C966 1.383 . S
C961 C957 1.495 . S
C961 H967 0.959 . S
C961 H968 0.961 . S
C961 H969 0.960 1_455 S
C962 C960 1.381 . S
C962 C963 1.394 . S
C962 H970 0.930 . S
C963 C962 1.394 . S
C963 C964 1.383 . S
C963 H971 0.929 . S
C964 C963 1.383 . S
C964 C965 1.377 . S
C965 H949 0.930 . S
C965 C964 1.377 . S
C965 C966 1.379 . S
C966 H950 0.931 . S
C966 C960 1.383 . S
C966 C965 1.379 . S
H967 C961 0.959 . S
H968 C961 0.961 . S
H969 C961 0.960 1_655 S
H970 C962 0.930 . S
H971 C963 0.929 . S
H972 C980 0.929 . S
H973 C982 0.930 . S
H974 C984 0.930 . S
H975 C987 0.929 . S
H976 C990 0.930 . S
H977 C992 0.960 . S
H978 C992 0.960 . S
H979 C992 0.960 . S
C980 H972 0.929 . S
C980 C981 1.377 . S
C980 C982 1.384 . S
C981 C980 1.377 . S
C981 C987 1.390 . S
C982 H973 0.930 . S
C982 C980 1.384 . S
C982 C983 1.372 . S
C983 C982 1.372 . S
C983 C984 1.400 . S
C983 C988 1.490 . S
C984 H974 0.930 . S
C984 C983 1.400 . S
C984 C987 1.386 . S
H985 C1001 0.930 . S
H986 C1002 0.931 . S
C987 H975 0.929 . S
C987 C981 1.390 . S
C987 C984 1.386 . S
C988 C983 1.490 . S
C988 C990 1.395 . S
C988 C991 1.403 . S
H989 C995 0.930 . S
C990 H976 0.930 . S
C990 C988 1.395 . S
C990 C993 1.403 . S
C991 C988 1.403 . S
C991 C992 1.524 . S
C991 C995 1.400 . S
C992 H977 0.960 . S
C992 H978 0.960 . S
C992 H979 0.960 . S
C992 C991 1.524 . S
C993 C990 1.403 . S
C993 C994 1.392 . S
C993 C997 1.495 . S
C994 C993 1.392 . S
C994 C995 1.385 . S
C994 C996 1.478 . S
C995 H989 0.930 . S
C995 C991 1.400 . S
C995 C994 1.385 . S
C996 C994 1.478 . S
C996 C998 1.381 . S
C996 C1002 1.383 . S
C997 C993 1.495 . S
C997 H1003 0.959 . S
C997 H1004 0.961 . S
C997 H1005 0.960 . S
C998 C996 1.381 . S
C998 C999 1.394 . S
C998 H1006 0.930 . S
C999 C998 1.394 . S
C999 C1000 1.383 . S
C999 H1007 0.929 . S
C1000 C999 1.383 . S
C1000 C1001 1.377 . S
C1001 H985 0.930 . S
C1001 C1000 1.377 . S
C1001 C1002 1.379 . S
C1002 H986 0.931 . S
C1002 C996 1.383 . S
C1002 C1001 1.379 . S
H1003 C997 0.959 . S
H1004 C997 0.961 . S
H1005 C997 0.960 . S
H1006 C998 0.930 . S
H1007 C999 0.929 . S
H1008 C1016 0.929 . S
H1009 C1018 0.930 . S
H1010 C1020 0.930 . S
H1011 C1023 0.929 . S
H1012 C1026 0.930 . S
H1013 C1028 0.960 . S
H1014 C1028 0.960 . S
H1015 C1028 0.960 . S
C1016 H1008 0.929 . S
C1016 C1017 1.377 . S
C1016 C1018 1.384 . S
C1017 C1016 1.377 . S
C1017 C1023 1.390 . S
C1018 H1009 0.930 . S
C1018 C1016 1.384 . S
C1018 C1019 1.372 . S
C1019 C1018 1.372 . S
C1019 C1020 1.400 . S
C1019 C1024 1.490 . S
C1020 H1010 0.930 . S
C1020 C1019 1.400 . S
C1020 C1023 1.386 . S
H1021 C1037 0.930 . S
H1022 C1038 0.931 . S
C1023 H1011 0.929 . S
C1023 C1017 1.390 . S
C1023 C1020 1.386 . S
C1024 C1019 1.490 . S
C1024 C1026 1.395 1_545 S
C1024 C1027 1.403 . S
H1025 C1031 0.930 . S
C1026 H1012 0.930 . S
C1026 C1024 1.395 1_565 S
C1026 C1029 1.403 . S
C1027 C1024 1.403 . S
C1027 C1028 1.524 . S
C1027 C1031 1.400 . S
C1028 H1013 0.960 . S
C1028 H1014 0.960 . S
C1028 H1015 0.960 . S
C1028 C1027 1.524 . S
C1029 C1026 1.403 . S
C1029 C1030 1.392 . S
C1029 C1033 1.495 . S
C1030 C1029 1.392 . S
C1030 C1031 1.385 1_565 S
C1030 C1032 1.478 . S
C1031 H1025 0.930 . S
C1031 C1027 1.400 . S
C1031 C1030 1.385 1_545 S
C1032 C1030 1.478 . S
C1032 C1034 1.381 . S
C1032 C1038 1.383 . S
C1033 C1029 1.495 . S
C1033 H1039 0.959 . S
C1033 H1040 0.961 . S
C1033 H1041 0.960 . S
C1034 C1032 1.381 . S
C1034 C1035 1.394 . S
C1034 H1042 0.930 . S
C1035 C1034 1.394 . S
C1035 C1036 1.383 . S
C1035 H1043 0.929 . S
C1036 C1035 1.383 . S
C1036 C1037 1.377 . S
C1037 H1021 0.930 . S
C1037 C1036 1.377 . S
C1037 C1038 1.379 . S
C1038 H1022 0.931 . S
C1038 C1032 1.383 . S
C1038 C1037 1.379 . S
H1039 C1033 0.959 . S
H1040 C1033 0.961 . S
H1041 C1033 0.960 . S
H1042 C1034 0.930 . S
H1043 C1035 0.929 . S
H1044 C1052 0.929 . S
H1045 C1054 0.930 . S
H1046 C1056 0.930 . S
H1047 C1059 0.929 . S
H1048 C1062 0.930 . S
H1049 C1064 0.960 . S
H1050 C1064 0.960 . S
H1051 C1064 0.960 . S
C1052 H1044 0.929 . S
C1052 C1053 1.377 . S
C1052 C1054 1.384 . S
C1053 C1052 1.377 . S
C1053 C1059 1.390 . S
C1054 H1045 0.930 . S
C1054 C1052 1.384 . S
C1054 C1055 1.372 . S
C1055 C1054 1.372 . S
C1055 C1056 1.400 . S
C1055 C1060 1.490 . S
C1056 H1046 0.930 . S
C1056 C1055 1.400 . S
C1056 C1059 1.386 . S
H1057 C1073 0.930 . S
H1058 C1074 0.931 . S
C1059 H1047 0.929 . S
C1059 C1053 1.390 . S
C1059 C1056 1.386 . S
C1060 C1055 1.490 . S
C1060 C1062 1.395 1_565 S
C1060 C1063 1.403 1_554 S
H1061 C1067 0.930 . S
C1062 H1048 0.930 . S
C1062 C1060 1.395 1_545 S
C1062 C1065 1.403 . S
C1063 C1060 1.403 1_556 S
C1063 C1064 1.524 . S
C1063 C1067 1.400 . S
C1064 H1049 0.960 . S
C1064 H1050 0.960 . S
C1064 H1051 0.960 . S
C1064 C1063 1.524 . S
C1065 C1062 1.403 . S
C1065 C1066 1.392 1_554 S
C1065 C1069 1.495 . S
C1066 C1065 1.392 1_556 S
C1066 C1067 1.385 1_545 S
C1066 C1068 1.478 . S
C1067 H1061 0.930 . S
C1067 C1063 1.400 . S
C1067 C1066 1.385 1_565 S
C1068 C1066 1.478 . S
C1068 C1070 1.381 . S
C1068 C1074 1.383 . S
C1069 C1065 1.495 . S
C1069 H1075 0.959 . S
C1069 H1076 0.961 . S
C1069 H1077 0.960 . S
C1070 C1068 1.381 . S
C1070 C1071 1.394 . S
C1070 H1078 0.930 . S
C1071 C1070 1.394 . S
C1071 C1072 1.383 . S
C1071 H1079 0.929 . S
C1072 C1071 1.383 . S
C1072 C1073 1.377 . S
C1073 H1057 0.930 . S
C1073 C1072 1.377 . S
C1073 C1074 1.379 . S
C1074 H1058 0.931 . S
C1074 C1068 1.383 . S
C1074 C1073 1.379 . S
H1075 C1069 0.959 . S
H1076 C1069 0.961 . S
H1077 C1069 0.960 . S
H1078 C1070 0.930 . S
H1079 C1071 0.929 . S
H1080 C1088 0.929 . S
H1081 C1090 0.930 . S
H1082 C1092 0.930 . S
H1083 C1095 0.929 . S
H1084 C1098 0.930 . S
H1085 C1100 0.960 . S
H1086 C1100 0.960 . S
H1087 C1100 0.960 . S
C1088 H1080 0.929 . S
C1088 C1089 1.377 . S
C1088 C1090 1.384 . S
C1089 C1088 1.377 . S
C1089 C1095 1.390 . S
C1090 H1081 0.930 . S
C1090 C1088 1.384 . S
C1090 C1091 1.372 . S
C1091 C1090 1.372 . S
C1091 C1092 1.400 . S
C1091 C1096 1.490 . S
C1092 H1082 0.930 . S
C1092 C1091 1.400 . S
C1092 C1095 1.386 . S
H1093 C1109 0.930 . S
H1094 C1110 0.931 . S
C1095 H1083 0.929 . S
C1095 C1089 1.390 . S
C1095 C1092 1.386 . S
C1096 C1091 1.490 . S
C1096 C1098 1.395 1_655 S
C1096 C1099 1.403 1_556 S
H1097 C1103 0.930 . S
C1098 H1084 0.930 . S
C1098 C1096 1.395 1_455 S
C1098 C1101 1.403 . S
C1099 C1096 1.403 1_554 S
C1099 C1100 1.524 . S
C1099 C1103 1.400 . S
C1100 H1085 0.960 . S
C1100 H1086 0.960 . S
C1100 H1087 0.960 . S
C1100 C1099 1.524 . S
C1101 C1098 1.403 . S
C1101 C1102 1.392 1_556 S
C1101 C1105 1.495 . S
C1102 C1101 1.392 1_554 S
C1102 C1103 1.385 1_455 S
C1102 C1104 1.478 . S
C1103 H1097 0.930 . S
C1103 C1099 1.400 . S
C1103 C1102 1.385 1_655 S
C1104 C1102 1.478 . S
C1104 C1106 1.381 . S
C1104 C1110 1.383 . S
C1105 C1101 1.495 . S
C1105 H1111 0.959 . S
C1105 H1112 0.961 . S
C1105 H1113 0.960 . S
C1106 C1104 1.381 . S
C1106 C1107 1.394 . S
C1106 H1114 0.930 . S
C1107 C1106 1.394 . S
C1107 C1108 1.383 . S
C1107 H1115 0.929 . S
C1108 C1107 1.383 . S
C1108 C1109 1.377 . S
C1109 H1093 0.930 . S
C1109 C1108 1.377 . S
C1109 C1110 1.379 . S
C1110 H1094 0.931 . S
C1110 C1104 1.383 . S
C1110 C1109 1.379 . S
H1111 C1105 0.959 . S
H1112 C1105 0.961 . S
H1113 C1105 0.960 . S
H1114 C1106 0.930 . S
H1115 C1107 0.929 . S
H1116 C1124 0.929 . S
H1117 C1126 0.930 . S
H1118 C1128 0.930 . S
H1119 C1131 0.929 . S
H1120 C1134 0.930 . S
H1121 C1136 0.879 1_554 S
H1122 C1136 0.960 . S
H1123 C1136 0.960 . S
C1124 H1116 0.929 . S
C1124 C1125 1.377 . S
C1124 C1126 1.384 . S
C1125 C1124 1.377 . S
C1125 C1131 1.390 . S
C1126 H1117 0.930 . S
C1126 C1124 1.384 . S
C1126 C1127 1.372 . S
C1127 C1126 1.372 . S
C1127 C1128 1.400 . S
C1127 C1132 1.490 . S
C1128 H1118 0.930 . S
C1128 C1127 1.400 . S
C1128 C1131 1.386 . S
H1129 C1145 0.930 . S
H1130 C1146 0.931 . S
C1131 H1119 0.929 . S
C1131 C1125 1.390 . S
C1131 C1128 1.386 . S
C1132 C1127 1.490 . S
C1132 C1134 1.395 . S
C1132 C1135 1.403 . S
H1133 C1139 0.930 . S
C1134 H1120 0.930 . S
C1134 C1132 1.395 . S
C1134 C1137 1.316 1_556 S
C1135 C1132 1.403 . S
C1135 C1136 1.524 . S
C1135 C1139 1.400 1_556 S
C1136 H1121 0.879 1_556 S
C1136 H1122 0.960 . S
C1136 H1123 0.960 . S
C1136 C1135 1.524 . S
C1137 C1134 1.316 1_554 S
C1137 C1138 1.469 . S
C1137 C1141 1.518 . S
C1138 C1137 1.469 . S
C1138 C1139 1.385 . S
C1138 C1140 1.478 . S
C1139 H1133 0.930 . S
C1139 C1135 1.400 1_554 S
C1139 C1138 1.385 . S
C1140 C1138 1.478 . S
C1140 C1142 1.381 . S
C1140 C1146 1.383 . S
C1141 C1137 1.518 . S
C1141 H1147 0.959 1_554 S
C1141 H1148 0.961 . S
C1141 H1149 0.960 . S
C1142 C1140 1.381 . S
C1142 C1143 1.394 . S
C1142 H1150 0.930 . S
C1143 C1142 1.394 . S
C1143 C1144 1.383 . S
C1143 H1151 0.929 . S
C1144 C1143 1.383 . S
C1144 C1145 1.377 . S
C1145 H1129 0.930 . S
C1145 C1144 1.377 . S
C1145 C1146 1.379 . S
C1146 H1130 0.931 . S
C1146 C1140 1.383 . S
C1146 C1145 1.379 . S
H1147 C1141 0.959 1_556 S
H1148 C1141 0.961 . S
H1149 C1141 0.960 . S
H1150 C1142 0.930 . S
H1151 C1143 0.929 . S
H1152 C1160 0.929 . S
H1153 C1162 0.930 . S
H1154 C1164 0.930 . S
H1155 C1167 0.929 1_545 S
H1156 C1170 0.930 . S
H1157 C1172 0.960 . S
H1158 C1172 0.960 . S
H1159 C1172 0.960 . S
C1160 H1152 0.929 . S
C1160 C1161 1.389 . S
C1160 C1162 1.384 . S
C1161 C1160 1.389 . S
C1161 C1167 1.390 . S
C1162 H1153 0.930 . S
C1162 C1160 1.384 . S
C1162 C1163 1.372 . S
C1163 C1162 1.372 . S
C1163 C1164 1.400 . S
C1163 C1168 1.490 . S
C1164 H1154 0.930 . S
C1164 C1163 1.400 . S
C1164 C1167 1.386 . S
H1165 C1181 0.930 . S
H1166 C1182 0.931 . S
C1167 H1155 0.929 1_565 S
C1167 C1161 1.390 . S
C1167 C1164 1.386 . S
C1168 C1163 1.490 . S
C1168 C1170 1.395 . S
C1168 C1171 1.403 . S
H1169 C1175 0.930 . S
C1170 H1156 0.930 . S
C1170 C1168 1.395 . S
C1170 C1173 1.403 . S
C1171 C1168 1.403 . S
C1171 C1172 1.524 1_565 S
C1171 C1175 1.400 . S
C1172 H1157 0.960 . S
C1172 H1158 0.960 . S
C1172 H1159 0.960 . S
C1172 C1171 1.524 1_545 S
C1173 C1170 1.403 . S
C1173 C1174 1.392 . S
C1173 C1177 1.495 . S
C1174 C1173 1.392 . S
C1174 C1175 1.385 . S
C1174 C1176 1.478 . S
C1175 H1169 0.930 . S
C1175 C1171 1.400 . S
C1175 C1174 1.385 . S
C1176 C1174 1.478 . S
C1176 C1178 1.381 . S
C1176 C1182 1.383 . S
C1177 C1173 1.495 . S
C1177 H1183 0.959 . S
C1177 H1184 0.961 . S
C1177 H1185 0.960 . S
C1178 C1176 1.381 . S
C1178 C1179 1.394 . S
C1178 H1186 0.930 . S
C1179 C1178 1.394 . S
C1179 C1180 1.383 . S
C1179 H1187 0.929 . S
C1180 C1179 1.383 . S
C1180 C1181 1.377 . S
C1181 H1165 0.930 . S
C1181 C1180 1.377 . S
C1181 C1182 1.379 . S
C1182 H1166 0.931 . S
C1182 C1176 1.383 . S
C1182 C1181 1.379 . S
H1183 C1177 0.959 . S
H1184 C1177 0.961 . S
H1185 C1177 0.960 . S
H1186 C1178 0.930 . S
H1187 C1179 0.929 . S
H1188 C1196 0.929 . S
H1189 C1198 0.930 . S
H1190 C1200 0.930 . S
H1191 C1203 0.929 . S
H1192 C1206 0.930 . S
H1193 C1208 0.960 . S
H1194 C1208 0.960 . S
H1195 C1208 0.960 . S
C1196 H1188 0.929 . S
C1196 C1197 1.377 . S
C1196 C1198 1.384 . S
C1197 C1196 1.377 . S
C1197 C1203 1.390 . S
C1198 H1189 0.930 . S
C1198 C1196 1.384 . S
C1198 C1199 1.372 . S
C1199 C1198 1.372 . S
C1199 C1200 1.400 . S
C1199 C1204 1.490 . S
C1200 H1190 0.930 . S
C1200 C1199 1.400 . S
C1200 C1203 1.386 . S
H1201 C1217 0.930 . S
H1202 C1218 0.931 . S
C1203 H1191 0.929 . S
C1203 C1197 1.390 . S
C1203 C1200 1.386 . S
C1204 C1199 1.490 . S
C1204 C1206 1.395 . S
C1204 C1207 1.403 . S
H1205 C1211 0.930 . S
C1206 H1192 0.930 . S
C1206 C1204 1.395 . S
C1206 C1209 1.403 . S
C1207 C1204 1.403 . S
C1207 C1208 1.524 . S
C1207 C1211 1.400 . S
C1208 H1193 0.960 . S
C1208 H1194 0.960 . S
C1208 H1195 0.960 . S
C1208 C1207 1.524 . S
C1209 C1206 1.403 . S
C1209 C1210 1.392 . S
C1209 C1213 1.495 . S
C1210 C1209 1.392 . S
C1210 C1211 1.385 . S
C1210 C1212 1.478 . S
C1211 H1205 0.930 . S
C1211 C1207 1.400 . S
C1211 C1210 1.385 . S
C1212 C1210 1.478 . S
C1212 C1214 1.381 1_455 S
C1212 C1218 1.383 . S
C1213 C1209 1.495 . S
C1213 H1219 0.959 . S
C1213 H1220 0.961 . S
C1213 H1221 0.960 1_455 S
C1214 C1212 1.381 1_655 S
C1214 C1215 1.394 . S
C1214 H1222 0.930 . S
C1215 C1214 1.394 . S
C1215 C1216 1.388 1_655 S
C1215 H1223 0.929 . S
C1216 C1215 1.388 1_455 S
C1216 C1217 1.372 . S
C1217 H1201 0.930 . S
C1217 C1216 1.372 . S
C1217 C1218 1.379 . S
C1218 H1202 0.931 . S
C1218 C1212 1.383 . S
C1218 C1217 1.379 . S
H1219 C1213 0.959 . S
H1220 C1213 0.961 . S
H1221 C1213 0.960 1_655 S
H1222 C1214 0.930 . S
H1223 C1215 0.929 . S
H1224 C1232 0.929 . S
H1225 C1234 0.930 . S
H1226 C1236 0.930 . S
H1227 C1239 0.929 . S
H1228 C1242 0.930 . S
H1229 C1244 0.960 . S
H1230 C1244 0.960 . S
H1231 C1244 0.960 . S
C1232 H1224 0.929 . S
C1232 C1233 1.377 . S
C1232 C1234 1.384 . S
C1233 C1232 1.377 . S
C1233 C1239 1.390 . S
C1234 H1225 0.930 . S
C1234 C1232 1.384 . S
C1234 C1235 1.372 . S
C1235 C1234 1.372 . S
C1235 C1236 1.400 . S
C1235 C1240 1.490 . S
C1236 H1226 0.930 . S
C1236 C1235 1.400 . S
C1236 C1239 1.386 . S
H1237 C1253 0.930 . S
H1238 C1254 0.931 . S
C1239 H1227 0.929 . S
C1239 C1233 1.390 . S
C1239 C1236 1.386 . S
C1240 C1235 1.490 . S
C1240 C1242 1.395 . S
C1240 C1243 1.403 . S
H1241 C1247 0.930 . S
C1242 H1228 0.930 . S
C1242 C1240 1.395 . S
C1242 C1245 1.403 . S
C1243 C1240 1.403 . S
C1243 C1244 1.524 . S
C1243 C1247 1.400 . S
C1244 H1229 0.960 . S
C1244 H1230 0.960 . S
C1244 H1231 0.960 . S
C1244 C1243 1.524 . S
C1245 C1242 1.403 . S
C1245 C1246 1.392 . S
C1245 C1249 1.495 . S
C1246 C1245 1.392 . S
C1246 C1247 1.385 . S
C1246 C1248 1.478 . S
C1247 H1241 0.930 . S
C1247 C1243 1.400 . S
C1247 C1246 1.385 . S
C1248 C1246 1.478 . S
C1248 C1250 1.381 . S
C1248 C1254 1.383 . S
C1249 C1245 1.495 . S
C1249 H1255 0.959 . S
C1249 H1256 0.961 . S
C1249 H1257 0.960 . S
C1250 C1248 1.381 . S
C1250 C1251 1.394 . S
C1250 H1258 0.930 . S
C1251 C1250 1.394 . S
C1251 C1252 1.383 . S
C1251 H1259 0.929 . S
C1252 C1251 1.383 . S
C1252 C1253 1.377 . S
C1253 H1237 0.930 . S
C1253 C1252 1.377 . S
C1253 C1254 1.379 . S
C1254 H1238 0.931 . S
C1254 C1248 1.383 . S
C1254 C1253 1.379 . S
H1255 C1249 0.959 . S
H1256 C1249 0.961 . S
H1257 C1249 0.960 . S
H1258 C1250 0.930 . S
H1259 C1251 0.929 . S
H1260 C1268 0.929 . S
H1261 C1270 0.930 . S
H1262 C1272 0.930 . S
H1263 C1275 0.929 . S
H1264 C1278 0.930 . S
H1265 C1280 0.960 . S
H1266 C1280 0.960 . S
H1267 C1280 0.960 . S
C1268 H1260 0.929 . S
C1268 C1269 1.377 . S
C1268 C1270 1.384 . S
C1269 C1268 1.377 . S
C1269 C1275 1.390 . S
C1270 H1261 0.930 . S
C1270 C1268 1.384 . S
C1270 C1271 1.372 . S
C1271 C1270 1.372 . S
C1271 C1272 1.400 . S
C1271 C1276 1.490 . S
C1272 H1262 0.930 . S
C1272 C1271 1.400 . S
C1272 C1275 1.386 . S
H1273 C1289 0.930 . S
H1274 C1290 0.931 . S
C1275 H1263 0.929 . S
C1275 C1269 1.390 . S
C1275 C1272 1.386 . S
C1276 C1271 1.490 . S
C1276 C1278 1.395 . S
C1276 C1279 1.403 . S
H1277 C1283 0.930 . S
C1278 H1264 0.930 . S
C1278 C1276 1.395 . S
C1278 C1281 1.403 . S
C1279 C1276 1.403 . S
C1279 C1280 1.524 . S
C1279 C1283 1.400 . S
C1280 H1265 0.960 . S
C1280 H1266 0.960 . S
C1280 H1267 0.960 . S
C1280 C1279 1.524 . S
C1281 C1278 1.403 . S
C1281 C1282 1.392 . S
C1281 C1285 1.495 . S
C1282 C1281 1.392 . S
C1282 C1283 1.385 . S
C1282 C1284 1.478 . S
C1283 H1277 0.930 . S
C1283 C1279 1.400 . S
C1283 C1282 1.385 . S
C1284 C1282 1.478 . S
C1284 C1286 1.381 . S
C1284 C1290 1.383 1_655 S
C1285 C1281 1.495 . S
C1285 H1291 0.959 . S
C1285 H1292 0.961 . S
C1285 H1293 0.960 . S
C1286 C1284 1.381 . S
C1286 C1287 1.394 . S
C1286 H1294 0.930 . S
C1287 C1286 1.394 . S
C1287 C1288 1.421 . S
C1287 H1295 0.929 . S
C1288 C1287 1.421 . S
C1288 C1289 1.370 1_655 S
C1289 H1273 0.930 . S
C1289 C1288 1.370 1_455 S
C1289 C1290 1.379 . S
C1290 H1274 0.931 . S
C1290 C1284 1.383 1_455 S
C1290 C1289 1.379 . S
H1291 C1285 0.959 . S
H1292 C1285 0.961 . S
H1293 C1285 0.960 . S
H1294 C1286 0.930 . S
H1295 C1287 0.929 . S
H1296 C1304 0.929 . S
H1297 C1306 0.930 . S
H1298 C1308 0.930 . S
H1299 C1311 0.929 . S
H1300 C1314 0.930 . S
H1301 C1316 0.960 . S
H1302 C1316 0.960 . S
H1303 C1316 0.960 . S
C1304 H1296 0.929 . S
C1304 C1305 1.377 . S
C1304 C1306 1.384 . S
C1305 C1304 1.377 . S
C1305 C1311 1.390 . S
C1306 H1297 0.930 . S
C1306 C1304 1.384 . S
C1306 C1307 1.372 . S
C1307 C1306 1.372 . S
C1307 C1308 1.400 . S
C1307 C1312 1.490 . S
C1308 H1298 0.930 . S
C1308 C1307 1.400 . S
C1308 C1311 1.386 . S
H1309 C1325 0.930 . S
H1310 C1326 0.931 . S
C1311 H1299 0.929 . S
C1311 C1305 1.390 . S
C1311 C1308 1.386 . S
C1312 C1307 1.490 . S
C1312 C1314 1.395 . S
C1312 C1315 1.403 . S
H1313 C1319 0.930 . S
C1314 H1300 0.930 . S
C1314 C1312 1.395 . S
C1314 C1317 1.403 . S
C1315 C1312 1.403 . S
C1315 C1316 1.524 . S
C1315 C1319 1.400 . S
C1316 H1301 0.960 . S
C1316 H1302 0.960 . S
C1316 H1303 0.960 . S
C1316 C1315 1.524 . S
C1317 C1314 1.403 . S
C1317 C1318 1.392 . S
C1317 C1321 1.495 . S
C1318 C1317 1.392 . S
C1318 C1319 1.385 . S
C1318 C1320 1.478 . S
C1319 H1313 0.930 . S
C1319 C1315 1.400 . S
C1319 C1318 1.385 . S
C1320 C1318 1.478 . S
C1320 C1322 1.381 . S
C1320 C1326 1.383 . S
C1321 C1317 1.495 . S
C1321 H1327 0.959 . S
C1321 H1328 0.961 . S
C1321 H1329 0.960 . S
C1322 C1320 1.381 . S
C1322 C1323 1.394 . S
C1322 H1330 0.930 . S
C1323 C1322 1.394 . S
C1323 C1324 1.383 . S
C1323 H1331 0.929 . S
C1324 C1323 1.383 . S
C1324 C1325 1.377 . S
C1325 H1309 0.930 . S
C1325 C1324 1.377 . S
C1325 C1326 1.379 . S
C1326 H1310 0.931 . S
C1326 C1320 1.383 . S
C1326 C1325 1.379 . S
H1327 C1321 0.959 . S
H1328 C1321 0.961 . S
H1329 C1321 0.960 . S
H1330 C1322 0.930 . S
H1331 C1323 0.929 . S
H1332 C1340 0.929 . S
H1333 C1342 0.930 . S
H1334 C1344 0.930 . S
H1335 C1347 0.929 . S
H1336 C1350 0.930 . S
H1337 C1352 0.960 . S
H1338 C1352 0.960 . S
H1339 C1352 0.960 . S
C1340 H1332 0.929 . S
C1340 C1341 1.377 . S
C1340 C1342 1.384 . S
C1341 C1340 1.377 . S
C1341 C1347 1.390 . S
C1342 H1333 0.930 . S
C1342 C1340 1.384 . S
C1342 C1343 1.372 . S
C1343 C1342 1.372 . S
C1343 C1344 1.400 . S
C1343 C1348 1.490 . S
C1344 H1334 0.930 . S
C1344 C1343 1.400 . S
C1344 C1347 1.386 . S
H1345 C1361 0.930 . S
H1346 C1362 0.967 . S
C1347 H1335 0.929 . S
C1347 C1341 1.390 . S
C1347 C1344 1.386 . S
C1348 C1343 1.490 . S
C1348 C1350 1.395 . S
C1348 C1351 1.403 . S
H1349 C1355 0.930 . S
C1350 H1336 0.930 . S
C1350 C1348 1.395 . S
C1350 C1353 1.403 . S
C1351 C1348 1.403 . S
C1351 C1352 1.524 . S
C1351 C1355 1.400 . S
C1352 H1337 0.960 . S
C1352 H1338 0.960 . S
C1352 H1339 0.960 . S
C1352 C1351 1.524 . S
C1353 C1350 1.403 . S
C1353 C1354 1.392 . S
C1353 C1357 1.495 . S
C1354 C1353 1.392 . S
C1354 C1355 1.385 . S
C1354 C1356 1.478 . S
C1355 H1349 0.930 . S
C1355 C1351 1.400 . S
C1355 C1354 1.385 . S
C1356 C1354 1.478 . S
C1356 C1358 1.381 . S
C1356 C1362 1.347 1_545 S
C1357 C1353 1.495 . S
C1357 H1363 0.959 . S
C1357 H1364 0.961 . S
C1357 H1365 0.960 . S
C1358 C1356 1.381 . S
C1358 C1359 1.394 . S
C1358 H1366 0.930 . S
C1359 C1358 1.394 . S
C1359 C1360 1.383 . S
C1359 H1367 0.929 . S
C1360 C1359 1.383 . S
C1360 C1361 1.377 1_545 S
C1361 H1345 0.930 . S
C1361 C1360 1.377 1_565 S
C1361 C1362 1.381 . S
C1362 H1346 0.967 . S
C1362 C1356 1.347 1_565 S
C1362 C1361 1.381 . S
H1363 C1357 0.959 . S
H1364 C1357 0.961 . S
H1365 C1357 0.960 . S
H1366 C1358 0.930 . S
H1367 C1359 0.929 . S
H1368 C1376 0.929 . S
H1369 C1378 0.930 . S
H1370 C1380 0.930 . S
H1371 C1383 0.929 . S
H1372 C1386 0.930 . S
H1373 C1388 0.960 . S
H1374 C1388 0.960 . S
H1375 C1388 0.960 . S
C1376 H1368 0.929 . S
C1376 C1377 1.419 . S
C1376 C1378 1.384 . S
C1377 C1376 1.419 . S
C1377 C1383 1.382 1_545 S
C1378 H1369 0.930 . S
C1378 C1376 1.384 . S
C1378 C1379 1.372 . S
C1379 C1378 1.372 . S
C1379 C1380 1.400 1_545 S
C1379 C1384 1.490 . S
C1380 H1370 0.930 . S
C1380 C1379 1.400 1_565 S
C1380 C1383 1.386 . S
H1381 C1397 0.930 . S
H1382 C1398 0.931 . S
C1383 H1371 0.929 . S
C1383 C1377 1.382 1_565 S
C1383 C1380 1.386 . S
C1384 C1379 1.490 . S
C1384 C1386 1.395 . S
C1384 C1387 1.403 . S
H1385 C1391 0.930 . S
C1386 H1372 0.930 . S
C1386 C1384 1.395 . S
C1386 C1389 1.403 . S
C1387 C1384 1.403 . S
C1387 C1388 1.524 . S
C1387 C1391 1.400 . S
C1388 H1373 0.960 . S
C1388 H1374 0.960 . S
C1388 H1375 0.960 . S
C1388 C1387 1.524 . S
C1389 C1386 1.403 . S
C1389 C1390 1.392 . S
C1389 C1393 1.495 . S
C1390 C1389 1.392 . S
C1390 C1391 1.385 . S
C1390 C1392 1.478 . S
C1391 H1385 0.930 . S
C1391 C1387 1.400 . S
C1391 C1390 1.385 . S
C1392 C1390 1.478 . S
C1392 C1394 1.381 . S
C1392 C1398 1.383 . S
C1393 C1389 1.495 . S
C1393 H1399 0.959 . S
C1393 H1400 0.961 . S
C1393 H1401 0.960 . S
C1394 C1392 1.381 . S
C1394 C1395 1.394 . S
C1394 H1402 0.930 . S
C1395 C1394 1.394 . S
C1395 C1396 1.383 . S
C1395 H1403 0.929 . S
C1396 C1395 1.383 . S
C1396 C1397 1.377 . S
C1397 H1381 0.930 . S
C1397 C1396 1.377 . S
C1397 C1398 1.379 . S
C1398 H1382 0.931 . S
C1398 C1392 1.383 . S
C1398 C1397 1.379 . S
H1399 C1393 0.959 . S
H1400 C1393 0.961 . S
H1401 C1393 0.960 . S
H1402 C1394 0.930 . S
H1403 C1395 0.929 . S
H1404 C1412 0.929 . S
H1405 C1414 0.930 . S
H1406 C1416 0.930 . S
H1407 C1419 0.929 . S
H1408 C1422 0.930 . S
H1409 C1424 0.960 . S
H1410 C1424 0.960 . S
H1411 C1424 0.960 . S
C1412 H1404 0.929 . S
C1412 C1413 1.377 . S
C1412 C1414 1.384 . S
C1413 C1412 1.377 . S
C1413 C1419 1.390 . S
C1414 H1405 0.930 . S
C1414 C1412 1.384 . S
C1414 C1415 1.372 . S
C1415 C1414 1.372 . S
C1415 C1416 1.400 . S
C1415 C1420 1.490 . S
C1416 H1406 0.930 . S
C1416 C1415 1.400 . S
C1416 C1419 1.386 . S
H1417 C1433 0.930 . S
H1418 C1434 0.931 . S
C1419 H1407 0.929 . S
C1419 C1413 1.390 . S
C1419 C1416 1.386 . S
C1420 C1415 1.490 . S
C1420 C1422 1.395 . S
C1420 C1423 1.403 . S
H1421 C1427 0.930 . S
C1422 H1408 0.930 . S
C1422 C1420 1.395 . S
C1422 C1425 1.403 . S
C1423 C1420 1.403 . S
C1423 C1424 1.524 . S
C1423 C1427 1.400 . S
C1424 H1409 0.960 . S
C1424 H1410 0.960 . S
C1424 H1411 0.960 . S
C1424 C1423 1.524 . S
C1425 C1422 1.403 . S
C1425 C1426 1.392 . S
C1425 C1429 1.495 . S
C1426 C1425 1.392 . S
C1426 C1427 1.385 . S
C1426 C1428 1.478 . S
C1427 H1421 0.930 . S
C1427 C1423 1.400 . S
C1427 C1426 1.385 . S
C1428 C1426 1.478 . S
C1428 C1430 1.381 1_655 S
C1428 C1434 1.383 . S
C1429 C1425 1.495 . S
C1429 H1435 0.959 . S
C1429 H1436 0.961 . S
C1429 H1437 0.960 1_655 S
C1430 C1428 1.381 1_455 S
C1430 C1431 1.394 . S
C1430 H1438 0.930 . S
C1431 C1430 1.394 . S
C1431 C1432 1.395 . S
C1431 H1439 0.929 . S
C1432 C1431 1.395 . S
C1432 C1433 1.366 1_455 S
C1433 H1417 0.930 . S
C1433 C1432 1.366 1_655 S
C1433 C1434 1.379 . S
C1434 H1418 0.931 . S
C1434 C1428 1.383 . S
C1434 C1433 1.379 . S
H1435 C1429 0.959 . S
H1436 C1429 0.961 . S
H1437 C1429 0.960 1_455 S
H1438 C1430 0.930 . S
H1439 C1431 0.929 . S
H1440 C1448 0.929 . S
H1441 C1450 0.930 . S
H1442 C1452 0.930 . S
H1443 C1455 0.929 . S
H1444 C1458 0.930 . S
H1445 C1460 0.960 . S
H1446 C1460 0.960 . S
H1447 C1460 0.960 . S
C1448 H1440 0.929 . S
C1448 C1449 1.377 . S
C1448 C1450 1.384 . S
C1449 C1448 1.377 . S
C1449 C1455 1.390 . S
C1450 H1441 0.930 . S
C1450 C1448 1.384 . S
C1450 C1451 1.372 . S
C1451 C1450 1.372 . S
C1451 C1452 1.400 . S
C1451 C1456 1.490 . S
C1452 H1442 0.930 . S
C1452 C1451 1.400 . S
C1452 C1455 1.386 . S
H1453 C1469 0.930 . S
H1454 C1470 0.931 . S
C1455 H1443 0.929 . S
C1455 C1449 1.390 . S
C1455 C1452 1.386 . S
C1456 C1451 1.490 . S
C1456 C1458 1.395 . S
C1456 C1459 1.403 . S
H1457 C1463 0.930 . S
C1458 H1444 0.930 . S
C1458 C1456 1.395 . S
C1458 C1461 1.403 . S
C1459 C1456 1.403 . S
C1459 C1460 1.524 . S
C1459 C1463 1.400 . S
C1460 H1445 0.960 . S
C1460 H1446 0.960 . S
C1460 H1447 0.960 . S
C1460 C1459 1.524 . S
C1461 C1458 1.403 . S
C1461 C1462 1.392 . S
C1461 C1465 1.495 . S
C1462 C1461 1.392 . S
C1462 C1463 1.385 . S
C1462 C1464 1.478 . S
C1463 H1457 0.930 . S
C1463 C1459 1.400 . S
C1463 C1462 1.385 . S
C1464 C1462 1.478 . S
C1464 C1466 1.381 . S
C1464 C1470 1.383 . S
C1465 C1461 1.495 . S
C1465 H1471 0.959 . S
C1465 H1472 0.961 . S
C1465 H1473 0.960 . S
C1466 C1464 1.381 . S
C1466 C1467 1.394 . S
C1466 H1474 0.930 . S
C1467 C1466 1.394 . S
C1467 C1468 1.383 . S
C1467 H1475 0.929 . S
C1468 C1467 1.383 . S
C1468 C1469 1.377 . S
C1469 H1453 0.930 . S
C1469 C1468 1.377 . S
C1469 C1470 1.379 . S
C1470 H1454 0.931 . S
C1470 C1464 1.383 . S
C1470 C1469 1.379 . S
H1471 C1465 0.959 . S
H1472 C1465 0.961 . S
H1473 C1465 0.960 . S
H1474 C1466 0.930 . S
H1475 C1467 0.929 . S
H1476 C1484 0.929 . S
H1477 C1486 0.920 1_655 S
H1478 C1488 0.930 . S
H1479 C1491 0.929 . S
H1480 C1494 0.930 . S
H1481 C1496 0.960 . S
H1482 C1496 0.960 . S
H1483 C1496 0.960 . S
C1484 H1476 0.929 . S
C1484 C1485 1.375 1_655 S
C1484 C1486 1.355 1_655 S
C1485 C1484 1.375 1_455 S
C1485 C1491 1.398 . S
C1486 H1477 0.920 1_455 S
C1486 C1484 1.355 1_455 S
C1486 C1487 1.411 . S
C1487 C1486 1.411 . S
C1487 C1488 1.400 . S
C1487 C1492 1.490 . S
C1488 H1478 0.930 . S
C1488 C1487 1.400 . S
C1488 C1491 1.386 . S
H1489 C1505 0.930 . S
H1490 C1506 0.931 . S
C1491 H1479 0.929 . S
C1491 C1485 1.398 . S
C1491 C1488 1.386 . S
C1492 C1487 1.490 . S
C1492 C1494 1.395 . S
C1492 C1495 1.403 . S
H1493 C1499 0.930 . S
C1494 H1480 0.930 . S
C1494 C1492 1.395 . S
C1494 C1497 1.403 . S
C1495 C1492 1.403 . S
C1495 C1496 1.524 . S
C1495 C1499 1.400 . S
C1496 H1481 0.960 . S
C1496 H1482 0.960 . S
C1496 H1483 0.960 . S
C1496 C1495 1.524 . S
C1497 C1494 1.403 . S
C1497 C1498 1.392 . S
C1497 C1501 1.495 . S
C1498 C1497 1.392 . S
C1498 C1499 1.385 . S
C1498 C1500 1.478 . S
C1499 H1493 0.930 . S
C1499 C1495 1.400 . S
C1499 C1498 1.385 . S
C1500 C1498 1.478 . S
C1500 C1502 1.381 . S
C1500 C1506 1.383 . S
C1501 C1497 1.495 . S
C1501 H1507 0.959 . S
C1501 H1508 0.961 . S
C1501 H1509 0.960 . S
C1502 C1500 1.381 . S
C1502 C1503 1.394 . S
C1502 H1510 0.930 . S
C1503 C1502 1.394 . S
C1503 C1504 1.383 . S
C1503 H1511 0.929 . S
C1504 C1503 1.383 . S
C1504 C1505 1.377 . S
C1505 H1489 0.930 . S
C1505 C1504 1.377 . S
C1505 C1506 1.379 . S
C1506 H1490 0.931 . S
C1506 C1500 1.383 . S
C1506 C1505 1.379 . S
H1507 C1501 0.959 . S
H1508 C1501 0.961 . S
H1509 C1501 0.960 . S
H1510 C1502 0.930 . S
H1511 C1503 0.929 . S
H1512 C1520 0.929 . S
H1513 C1522 0.930 . S
H1514 C1524 0.930 . S
H1515 C1527 0.929 . S
H1516 C1530 0.930 . S
H1517 C1532 0.960 . S
H1518 C1532 0.960 . S
H1519 C1532 0.960 . S
C1520 H1512 0.929 . S
C1520 C1521 1.377 . S
C1520 C1522 1.384 . S
C1521 C1520 1.377 . S
C1521 C1527 1.390 . S
C1522 H1513 0.930 . S
C1522 C1520 1.384 . S
C1522 C1523 1.372 . S
C1523 C1522 1.372 . S
C1523 C1524 1.400 . S
C1523 C1528 1.490 . S
C1524 H1514 0.930 . S
C1524 C1523 1.400 . S
C1524 C1527 1.386 . S
H1525 C1541 0.930 . S
H1526 C1542 0.931 . S
C1527 H1515 0.929 . S
C1527 C1521 1.390 . S
C1527 C1524 1.386 . S
C1528 C1523 1.490 . S
C1528 C1530 1.395 . S
C1528 C1531 1.403 . S
H1529 C1535 0.930 . S
C1530 H1516 0.930 . S
C1530 C1528 1.395 . S
C1530 C1533 1.403 . S
C1531 C1528 1.403 . S
C1531 C1532 1.524 . S
C1531 C1535 1.400 . S
C1532 H1517 0.960 . S
C1532 H1518 0.960 . S
C1532 H1519 0.960 . S
C1532 C1531 1.524 . S
C1533 C1530 1.403 . S
C1533 C1534 1.392 . S
C1533 C1537 1.495 . S
C1534 C1533 1.392 . S
C1534 C1535 1.385 . S
C1534 C1536 1.478 . S
C1535 H1529 0.930 . S
C1535 C1531 1.400 . S
C1535 C1534 1.385 . S
C1536 C1534 1.478 . S
C1536 C1538 1.381 . S
C1536 C1542 1.383 . S
C1537 C1533 1.495 . S
C1537 H1543 0.959 . S
C1537 H1544 0.961 . S
C1537 H1545 0.960 . S
C1538 C1536 1.381 . S
C1538 C1539 1.394 . S
C1538 H1546 0.930 . S
C1539 C1538 1.394 . S
C1539 C1540 1.383 . S
C1539 H1547 0.929 . S
C1540 C1539 1.383 . S
C1540 C1541 1.377 . S
C1541 H1525 0.930 . S
C1541 C1540 1.377 . S
C1541 C1542 1.379 . S
C1542 H1526 0.931 . S
C1542 C1536 1.383 . S
C1542 C1541 1.379 . S
H1543 C1537 0.959 . S
H1544 C1537 0.961 . S
H1545 C1537 0.960 . S
H1546 C1538 0.930 . S
H1547 C1539 0.929 . S
H1548 C1556 0.929 . S
H1549 C1558 0.930 . S
H1550 C1560 0.930 . S
H1551 C1563 0.929 . S
H1552 C1566 0.930 . S
H1553 C1568 0.960 . S
H1554 C1568 0.960 . S
H1555 C1568 0.960 . S
C1556 H1548 0.929 . S
C1556 C1557 1.371 1_545 S
C1556 C1558 1.384 . S
C1557 C1556 1.371 1_565 S
C1557 C1563 1.396 . S
C1558 H1549 0.930 . S
C1558 C1556 1.384 . S
C1558 C1559 1.372 1_545 S
C1559 C1558 1.372 1_565 S
C1559 C1560 1.400 . S
C1559 C1564 1.490 . S
C1560 H1550 0.930 . S
C1560 C1559 1.400 . S
C1560 C1563 1.386 . S
H1561 C1577 0.930 . S
H1562 C1578 0.931 . S
C1563 H1551 0.929 . S
C1563 C1557 1.396 . S
C1563 C1560 1.386 . S
C1564 C1559 1.490 . S
C1564 C1566 1.395 . S
C1564 C1567 1.403 . S
H1565 C1571 0.930 . S
C1566 H1552 0.930 . S
C1566 C1564 1.395 . S
C1566 C1569 1.403 . S
C1567 C1564 1.403 . S
C1567 C1568 1.524 . S
C1567 C1571 1.400 . S
C1568 H1553 0.960 . S
C1568 H1554 0.960 . S
C1568 H1555 0.960 . S
C1568 C1567 1.524 . S
C1569 C1566 1.403 . S
C1569 C1570 1.392 . S
C1569 C1573 1.495 . S
C1570 C1569 1.392 . S
C1570 C1571 1.385 . S
C1570 C1572 1.478 . S
C1571 H1565 0.930 . S
C1571 C1567 1.400 . S
C1571 C1570 1.385 . S
C1572 C1570 1.478 . S
C1572 C1574 1.381 . S
C1572 C1578 1.383 . S
C1573 C1569 1.495 . S
C1573 H1579 0.959 . S
C1573 H1580 0.961 . S
C1573 H1581 0.960 . S
C1574 C1572 1.381 . S
C1574 C1575 1.394 . S
C1574 H1582 0.930 . S
C1575 C1574 1.394 . S
C1575 C1576 1.383 . S
C1575 H1583 0.929 . S
C1576 C1575 1.383 . S
C1576 C1577 1.377 . S
C1577 H1561 0.930 . S
C1577 C1576 1.377 . S
C1577 C1578 1.379 . S
C1578 H1562 0.931 . S
C1578 C1572 1.383 . S
C1578 C1577 1.379 . S
H1579 C1573 0.959 . S
H1580 C1573 0.961 . S
H1581 C1573 0.960 . S
H1582 C1574 0.930 . S
H1583 C1575 0.929 . S
H1584 C1592 0.929 . S
H1585 C1594 0.930 . S
H1586 C1596 0.930 . S
H1587 C1599 0.929 . S
H1588 C1602 0.930 . S
H1589 C1604 0.960 . S
H1590 C1604 0.960 . S
H1591 C1604 0.960 . S
C1592 H1584 0.929 . S
C1592 C1593 1.377 . S
C1592 C1594 1.384 . S
C1593 C1592 1.377 . S
C1593 C1599 1.390 . S
C1594 H1585 0.930 . S
C1594 C1592 1.384 . S
C1594 C1595 1.372 . S
C1595 C1594 1.372 . S
C1595 C1596 1.400 . S
C1595 C1600 1.490 . S
C1596 H1586 0.930 . S
C1596 C1595 1.400 . S
C1596 C1599 1.386 . S
H1597 C1613 0.930 . S
H1598 C1614 0.931 . S
C1599 H1587 0.929 . S
C1599 C1593 1.390 . S
C1599 C1596 1.386 . S
C1600 C1595 1.490 . S
C1600 C1602 1.395 . S
C1600 C1603 1.403 . S
H1601 C1607 0.930 . S
C1602 H1588 0.930 . S
C1602 C1600 1.395 . S
C1602 C1605 1.403 . S
C1603 C1600 1.403 . S
C1603 C1604 1.524 . S
C1603 C1607 1.400 . S
C1604 H1589 0.960 . S
C1604 H1590 0.960 . S
C1604 H1591 0.960 . S
C1604 C1603 1.524 . S
C1605 C1602 1.403 . S
C1605 C1606 1.392 . S
C1605 C1609 1.495 . S
C1606 C1605 1.392 . S
C1606 C1607 1.385 . S
C1606 C1608 1.478 . S
C1607 H1601 0.930 . S
C1607 C1603 1.400 . S
C1607 C1606 1.385 . S
C1608 C1606 1.478 . S
C1608 C1610 1.381 . S
C1608 C1614 1.383 . S
C1609 C1605 1.495 . S
C1609 H1615 0.959 . S
C1609 H1616 0.961 . S
C1609 H1617 0.960 . S
C1610 C1608 1.381 . S
C1610 C1611 1.394 . S
C1610 H1618 0.930 . S
C1611 C1610 1.394 . S
C1611 C1612 1.383 . S
C1611 H1619 0.929 . S
C1612 C1611 1.383 . S
C1612 C1613 1.377 . S
C1613 H1597 0.930 . S
C1613 C1612 1.377 . S
C1613 C1614 1.379 . S
C1614 H1598 0.931 . S
C1614 C1608 1.383 . S
C1614 C1613 1.379 . S
H1615 C1609 0.959 . S
H1616 C1609 0.961 . S
H1617 C1609 0.960 . S
H1618 C1610 0.930 . S
H1619 C1611 0.929 . S
H1620 C1628 0.929 . S
H1621 C1630 0.930 . S
H1622 C1632 0.930 . S
H1623 C1635 0.929 . S
H1624 C1638 0.930 . S
H1625 C1640 0.960 1_565 S
H1626 C1640 0.960 . S
H1627 C1640 0.960 . S
C1628 H1620 0.929 . S
C1628 C1629 1.377 . S
C1628 C1630 1.384 . S
C1629 C1628 1.377 . S
C1629 C1635 1.390 . S
C1630 H1621 0.930 . S
C1630 C1628 1.384 . S
C1630 C1631 1.372 . S
C1631 C1630 1.372 . S
C1631 C1632 1.400 . S
C1631 C1636 1.490 . S
C1632 H1622 0.930 . S
C1632 C1631 1.400 . S
C1632 C1635 1.386 . S
H1633 C1649 0.930 . S
H1634 C1650 0.931 . S
C1635 H1623 0.929 . S
C1635 C1629 1.390 . S
C1635 C1632 1.386 . S
C1636 C1631 1.490 . S
C1636 C1638 1.395 . S
C1636 C1639 1.403 . S
H1637 C1643 0.930 . S
C1638 H1624 0.930 . S
C1638 C1636 1.395 . S
C1638 C1641 1.403 1_545 S
C1639 C1636 1.403 . S
C1639 C1640 1.524 . S
C1639 C1643 1.400 1_545 S
C1640 H1625 0.960 1_545 S
C1640 H1626 0.960 . S
C1640 H1627 0.960 . S
C1640 C1639 1.524 . S
C1641 C1638 1.403 1_565 S
C1641 C1642 1.392 . S
C1641 C1645 1.495 . S
C1642 C1641 1.392 . S
C1642 C1643 1.385 . S
C1642 C1644 1.478 . S
C1643 H1637 0.930 . S
C1643 C1639 1.400 1_565 S
C1643 C1642 1.385 . S
C1644 C1642 1.478 . S
C1644 C1646 1.381 . S
C1644 C1650 1.383 . S
C1645 C1641 1.495 . S
C1645 H1651 0.959 1_565 S
C1645 H1652 0.961 . S
C1645 H1653 0.960 . S
C1646 C1644 1.381 . S
C1646 C1647 1.394 . S
C1646 H1654 0.930 . S
C1647 C1646 1.394 . S
C1647 C1648 1.383 . S
C1647 H1655 0.929 . S
C1648 C1647 1.383 . S
C1648 C1649 1.377 . S
C1649 H1633 0.930 . S
C1649 C1648 1.377 . S
C1649 C1650 1.379 . S
C1650 H1634 0.931 . S
C1650 C1644 1.383 . S
C1650 C1649 1.379 . S
H1651 C1645 0.959 1_545 S
H1652 C1645 0.961 . S
H1653 C1645 0.960 . S
H1654 C1646 0.930 . S
H1655 C1647 0.929 . S
H1656 C1664 0.929 . S
H1657 C1666 0.930 . S
H1658 C1668 0.930 . S
H1659 C1671 0.929 . S
H1660 C1674 0.930 . S
H1661 C1676 0.960 . S
H1662 C1676 0.960 . S
H1663 C1676 0.960 . S
C1664 H1656 0.929 . S
C1664 C1665 1.377 . S
C1664 C1666 1.384 . S
C1665 C1664 1.377 . S
C1665 C1671 1.390 . S
C1666 H1657 0.930 . S
C1666 C1664 1.384 . S
C1666 C1667 1.372 . S
C1667 C1666 1.372 . S
C1667 C1668 1.400 . S
C1667 C1672 1.490 . S
C1668 H1658 0.930 . S
C1668 C1667 1.400 . S
C1668 C1671 1.386 . S
H1669 C1685 0.930 . S
H1670 C1686 0.931 . S
C1671 H1659 0.929 . S
C1671 C1665 1.390 . S
C1671 C1668 1.386 . S
C1672 C1667 1.490 . S
C1672 C1674 1.395 . S
C1672 C1675 1.403 . S
H1673 C1679 0.930 . S
C1674 H1660 0.930 . S
C1674 C1672 1.395 . S
C1674 C1677 1.403 1_655 S
C1675 C1672 1.403 . S
C1675 C1676 1.524 . S
C1675 C1679 1.400 1_655 S
C1676 H1661 0.960 . S
C1676 H1662 0.960 . S
C1676 H1663 0.960 . S
C1676 C1675 1.524 . S
C1677 C1674 1.403 1_455 S
C1677 C1678 1.392 . S
C1677 C1681 1.495 . S
C1678 C1677 1.392 . S
C1678 C1679 1.385 . S
C1678 C1680 1.478 . S
C1679 H1673 0.930 . S
C1679 C1675 1.400 1_455 S
C1679 C1678 1.385 . S
C1680 C1678 1.478 . S
C1680 C1682 1.381 . S
C1680 C1686 1.383 . S
C1681 C1677 1.495 . S
C1681 H1687 0.959 . S
C1681 H1688 0.961 . S
C1681 H1689 0.960 . S
C1682 C1680 1.381 . S
C1682 C1683 1.394 . S
C1682 H1690 0.930 . S
C1683 C1682 1.394 . S
C1683 C1684 1.383 . S
C1683 H1691 0.929 . S
C1684 C1683 1.383 . S
C1684 C1685 1.377 . S
C1685 H1669 0.930 . S
C1685 C1684 1.377 . S
C1685 C1686 1.379 . S
C1686 H1670 0.931 . S
C1686 C1680 1.383 . S
C1686 C1685 1.379 . S
H1687 C1681 0.959 . S
H1688 C1681 0.961 . S
H1689 C1681 0.960 . S
H1690 C1682 0.930 . S
H1691 C1683 0.929 . S
H1692 C1700 0.929 . S
H1693 C1702 0.930 . S
H1694 C1704 0.930 . S
H1695 C1707 0.929 . S
H1696 C1710 0.930 . S
H1697 C1712 0.960 . S
H1698 C1712 0.960 . S
H1699 C1712 0.960 . S
C1700 H1692 0.929 . S
C1700 C1701 1.377 . S
C1700 C1702 1.384 . S
C1701 C1700 1.377 . S
C1701 C1707 1.390 . S
C1702 H1693 0.930 . S
C1702 C1700 1.384 . S
C1702 C1703 1.372 . S
C1703 C1702 1.372 . S
C1703 C1704 1.400 . S
C1703 C1708 1.490 . S
C1704 H1694 0.930 . S
C1704 C1703 1.400 . S
C1704 C1707 1.386 . S
H1705 C1721 0.930 . S
H1706 C1722 0.931 . S
C1707 H1695 0.929 . S
C1707 C1701 1.390 . S
C1707 C1704 1.386 . S
C1708 C1703 1.490 . S
C1708 C1710 1.395 . S
C1708 C1711 1.403 . S
H1709 C1715 0.930 . S
C1710 H1696 0.930 . S
C1710 C1708 1.395 . S
C1710 C1713 1.403 . S
C1711 C1708 1.403 . S
C1711 C1712 1.524 . S
C1711 C1715 1.400 . S
C1712 H1697 0.960 . S
C1712 H1698 0.960 . S
C1712 H1699 0.960 . S
C1712 C1711 1.524 . S
C1713 C1710 1.403 . S
C1713 C1714 1.392 . S
C1713 C1717 1.495 . S
C1714 C1713 1.392 . S
C1714 C1715 1.385 . S
C1714 C1716 1.478 . S
C1715 H1709 0.930 . S
C1715 C1711 1.400 . S
C1715 C1714 1.385 . S
C1716 C1714 1.478 . S
C1716 C1718 1.381 . S
C1716 C1722 1.383 . S
C1717 C1713 1.495 . S
C1717 H1723 0.959 . S
C1717 H1724 0.961 . S
C1717 H1725 0.960 . S
C1718 C1716 1.381 . S
C1718 C1719 1.394 . S
C1718 H1726 0.930 . S
C1719 C1718 1.394 . S
C1719 C1720 1.383 . S
C1719 H1727 0.929 . S
C1720 C1719 1.383 . S
C1720 C1721 1.377 . S
C1721 H1705 0.930 . S
C1721 C1720 1.377 . S
C1721 C1722 1.379 . S
C1722 H1706 0.931 . S
C1722 C1716 1.383 . S
C1722 C1721 1.379 . S
H1723 C1717 0.959 . S
H1724 C1717 0.961 . S
H1725 C1717 0.960 . S
H1726 C1718 0.930 . S
H1727 C1719 0.929 . S
H1728 C1736 0.929 . S
H1729 C1738 0.930 . S
H1730 C1740 0.930 . S
H1731 C1743 0.929 . S
H1732 C1746 0.930 . S
H1733 C1748 0.960 . S
H1734 C1748 0.960 . S
H1735 C1748 0.960 . S
C1736 H1728 0.929 . S
C1736 C1737 1.377 . S
C1736 C1738 1.384 . S
C1737 C1736 1.377 . S
C1737 C1743 1.390 . S
C1738 H1729 0.930 . S
C1738 C1736 1.384 . S
C1738 C1739 1.372 . S
C1739 C1738 1.372 . S
C1739 C1740 1.400 . S
C1739 C1744 1.490 . S
C1740 H1730 0.930 . S
C1740 C1739 1.400 . S
C1740 C1743 1.386 . S
H1741 C1757 0.930 . S
H1742 C1758 0.931 . S
C1743 H1731 0.929 . S
C1743 C1737 1.390 . S
C1743 C1740 1.386 . S
C1744 C1739 1.490 . S
C1744 C1746 1.395 1_565 S
C1744 C1747 1.403 . S
H1745 C1751 0.930 . S
C1746 H1732 0.930 . S
C1746 C1744 1.395 1_545 S
C1746 C1749 1.403 . S
C1747 C1744 1.403 . S
C1747 C1748 1.524 . S
C1747 C1751 1.400 1_565 S
C1748 H1733 0.960 . S
C1748 H1734 0.960 . S
C1748 H1735 0.960 . S
C1748 C1747 1.524 . S
C1749 C1746 1.403 . S
C1749 C1750 1.392 . S
C1749 C1753 1.495 . S
C1750 C1749 1.392 . S
C1750 C1751 1.385 . S
C1750 C1752 1.478 . S
C1751 H1745 0.930 . S
C1751 C1747 1.400 1_545 S
C1751 C1750 1.385 . S
C1752 C1750 1.478 . S
C1752 C1754 1.381 . S
C1752 C1758 1.383 . S
C1753 C1749 1.495 . S
C1753 H1759 0.959 . S
C1753 H1760 0.961 . S
C1753 H1761 0.960 . S
C1754 C1752 1.381 . S
C1754 C1755 1.394 . S
C1754 H1762 0.930 . S
C1755 C1754 1.394 . S
C1755 C1756 1.383 . S
C1755 H1763 0.929 . S
C1756 C1755 1.383 . S
C1756 C1757 1.377 . S
C1757 H1741 0.930 . S
C1757 C1756 1.377 . S
C1757 C1758 1.379 . S
C1758 H1742 0.931 . S
C1758 C1752 1.383 . S
C1758 C1757 1.379 . S
H1759 C1753 0.959 . S
H1760 C1753 0.961 . S
H1761 C1753 0.960 . S
H1762 C1754 0.930 . S
H1763 C1755 0.929 . S
H1764 C1772 0.929 . S
H1765 C1774 0.930 . S
H1766 C1776 0.930 . S
H1767 C1779 0.929 . S
H1768 C1782 0.930 . S
H1769 C1784 0.960 . S
H1770 C1784 0.960 . S
H1771 C1784 0.960 . S
C1772 H1764 0.929 . S
C1772 C1773 1.377 . S
C1772 C1774 1.384 . S
C1773 C1772 1.377 . S
C1773 C1779 1.390 . S
C1774 H1765 0.930 . S
C1774 C1772 1.384 . S
C1774 C1775 1.372 . S
C1775 C1774 1.372 . S
C1775 C1776 1.400 . S
C1775 C1780 1.490 . S
C1776 H1766 0.930 . S
C1776 C1775 1.400 . S
C1776 C1779 1.386 . S
H1777 C1793 0.930 . S
H1778 C1794 0.931 . S
C1779 H1767 0.929 . S
C1779 C1773 1.390 . S
C1779 C1776 1.386 . S
C1780 C1775 1.490 . S
C1780 C1782 1.395 1_655 S
C1780 C1783 1.403 . S
H1781 C1787 0.930 . S
C1782 H1768 0.930 . S
C1782 C1780 1.395 1_455 S
C1782 C1785 1.403 . S
C1783 C1780 1.403 . S
C1783 C1784 1.524 . S
C1783 C1787 1.400 1_655 S
C1784 H1769 0.960 . S
C1784 H1770 0.960 . S
C1784 H1771 0.960 . S
C1784 C1783 1.524 . S
C1785 C1782 1.403 . S
C1785 C1786 1.392 . S
C1785 C1789 1.495 . S
C1786 C1785 1.392 . S
C1786 C1787 1.385 . S
C1786 C1788 1.478 . S
C1787 H1781 0.930 . S
C1787 C1783 1.400 1_455 S
C1787 C1786 1.385 . S
C1788 C1786 1.478 . S
C1788 C1790 1.381 . S
C1788 C1794 1.383 . S
C1789 C1785 1.495 . S
C1789 H1795 0.959 . S
C1789 H1796 0.961 . S
C1789 H1797 0.960 . S
C1790 C1788 1.381 . S
C1790 C1791 1.394 . S
C1790 H1798 0.930 . S
C1791 C1790 1.394 . S
C1791 C1792 1.383 . S
C1791 H1799 0.929 . S
C1792 C1791 1.383 . S
C1792 C1793 1.377 . S
C1793 H1777 0.930 . S
C1793 C1792 1.377 . S
C1793 C1794 1.379 . S
C1794 H1778 0.931 . S
C1794 C1788 1.383 . S
C1794 C1793 1.379 . S
H1795 C1789 0.959 . S
H1796 C1789 0.961 . S
H1797 C1789 0.960 . S
H1798 C1790 0.930 . S
H1799 C1791 0.929 . S
H1800 C1808 0.929 . S
H1801 C1810 0.930 . S
H1802 C1812 0.930 . S
H1803 C1815 0.929 . S
H1804 C1818 0.930 . S
H1805 C1820 0.960 . S
H1806 C1820 0.960 . S
H1807 C1820 0.960 . S
C1808 H1800 0.929 . S
C1808 C1809 1.377 . S
C1808 C1810 1.384 . S
C1809 C1808 1.377 . S
C1809 C1815 1.390 . S
C1810 H1801 0.930 . S
C1810 C1808 1.384 . S
C1810 C1811 1.372 . S
C1811 C1810 1.372 . S
C1811 C1812 1.400 . S
C1811 C1816 1.490 . S
C1812 H1802 0.930 . S
C1812 C1811 1.400 . S
C1812 C1815 1.386 . S
H1813 C1829 0.930 . S
H1814 C1830 0.931 . S
C1815 H1803 0.929 . S
C1815 C1809 1.390 . S
C1815 C1812 1.386 . S
C1816 C1811 1.490 . S
C1816 C1818 1.395 . S
C1816 C1819 1.403 . S
H1817 C1823 0.930 . S
C1818 H1804 0.930 . S
C1818 C1816 1.395 . S
C1818 C1821 1.403 . S
C1819 C1816 1.403 . S
C1819 C1820 1.524 . S
C1819 C1823 1.400 . S
C1820 H1805 0.960 . S
C1820 H1806 0.960 . S
C1820 H1807 0.960 . S
C1820 C1819 1.524 . S
C1821 C1818 1.403 . S
C1821 C1822 1.392 . S
C1821 C1825 1.495 . S
C1822 C1821 1.392 . S
C1822 C1823 1.385 . S
C1822 C1824 1.478 . S
C1823 H1817 0.930 . S
C1823 C1819 1.400 . S
C1823 C1822 1.385 . S
C1824 C1822 1.478 . S
C1824 C1826 1.381 . S
C1824 C1830 1.383 . S
C1825 C1821 1.495 . S
C1825 H1831 0.959 . S
C1825 H1832 0.961 . S
C1825 H1833 0.960 . S
C1826 C1824 1.381 . S
C1826 C1827 1.394 . S
C1826 H1834 0.930 . S
C1827 C1826 1.394 . S
C1827 C1828 1.383 . S
C1827 H1835 0.929 . S
C1828 C1827 1.383 . S
C1828 C1829 1.377 . S
C1829 H1813 0.930 . S
C1829 C1828 1.377 . S
C1829 C1830 1.379 . S
C1830 H1814 0.931 . S
C1830 C1824 1.383 . S
C1830 C1829 1.379 . S
H1831 C1825 0.959 . S
H1832 C1825 0.961 . S
H1833 C1825 0.960 . S
H1834 C1826 0.930 . S
H1835 C1827 0.929 . S
H1836 C1844 0.929 . S
H1837 C1846 0.930 . S
H1838 C1848 0.930 . S
H1839 C1851 0.929 . S
H1840 C1854 0.930 1_545 S
H1841 C1856 0.960 . S
H1842 C1856 0.960 1_545 S
H1843 C1856 0.960 1_545 S
C1844 H1836 0.929 . S
C1844 C1845 1.377 . S
C1844 C1846 1.384 . S
C1845 C1844 1.377 . S
C1845 C1851 1.390 . S
C1846 H1837 0.930 . S
C1846 C1844 1.384 . S
C1846 C1847 1.372 . S
C1847 C1846 1.372 . S
C1847 C1848 1.400 . S
C1847 C1852 1.490 . S
C1848 H1838 0.930 . S
C1848 C1847 1.400 . S
C1848 C1851 1.386 . S
H1849 C1865 0.930 . S
H1850 C1866 0.931 . S
C1851 H1839 0.929 . S
C1851 C1845 1.390 . S
C1851 C1848 1.386 . S
C1852 C1847 1.490 . S
C1852 C1854 1.395 1_545 S
C1852 C1855 1.403 1_545 S
H1853 C1859 0.930 . S
C1854 H1840 0.930 1_565 S
C1854 C1852 1.395 1_565 S
C1854 C1857 1.403 . S
C1855 C1852 1.403 1_565 S
C1855 C1856 1.524 . S
C1855 C1859 1.400 . S
C1856 H1841 0.960 . S
C1856 H1842 0.960 1_565 S
C1856 H1843 0.960 1_565 S
C1856 C1855 1.524 . S
C1857 C1854 1.403 . S
C1857 C1858 1.392 . S
C1857 C1861 1.495 . S
C1858 C1857 1.392 . S
C1858 C1859 1.385 . S
C1858 C1860 1.478 . S
C1859 H1853 0.930 . S
C1859 C1855 1.400 . S
C1859 C1858 1.385 . S
C1860 C1858 1.478 . S
C1860 C1862 1.381 . S
C1860 C1866 1.383 . S
C1861 C1857 1.495 . S
C1861 H1867 0.959 . S
C1861 H1868 0.961 . S
C1861 H1869 0.960 . S
C1862 C1860 1.381 . S
C1862 C1863 1.394 . S
C1862 H1870 0.930 . S
C1863 C1862 1.394 . S
C1863 C1864 1.383 . S
C1863 H1871 0.929 . S
C1864 C1863 1.383 . S
C1864 C1865 1.377 . S
C1865 H1849 0.930 . S
C1865 C1864 1.377 . S
C1865 C1866 1.379 . S
C1866 H1850 0.931 . S
C1866 C1860 1.383 . S
C1866 C1865 1.379 . S
H1867 C1861 0.959 . S
H1868 C1861 0.961 . S
H1869 C1861 0.960 . S
H1870 C1862 0.930 . S
H1871 C1863 0.929 . S
H1872 C1880 0.929 . S
H1873 C1882 0.930 . S
H1874 C1884 0.930 . S
H1875 C1887 0.929 . S
H1876 C1890 0.930 . S
H1877 C1892 0.959 1_455 S
H1878 C1892 0.960 . S
H1879 C1892 0.960 . S
C1880 H1872 0.929 . S
C1880 C1881 1.377 . S
C1880 C1882 1.384 . S
C1881 C1880 1.377 . S
C1881 C1887 1.390 . S
C1882 H1873 0.930 . S
C1882 C1880 1.384 . S
C1882 C1883 1.372 . S
C1883 C1882 1.372 . S
C1883 C1884 1.400 . S
C1883 C1888 1.490 . S
C1884 H1874 0.930 . S
C1884 C1883 1.400 . S
C1884 C1887 1.386 . S
H1885 C1901 0.930 . S
H1886 C1902 0.931 . S
C1887 H1875 0.929 . S
C1887 C1881 1.390 . S
C1887 C1884 1.386 . S
C1888 C1883 1.490 . S
C1888 C1890 1.395 1_655 S
C1888 C1891 1.403 1_655 S
H1889 C1895 0.930 . S
C1890 H1876 0.930 . S
C1890 C1888 1.395 1_455 S
C1890 C1893 1.403 . S
C1891 C1888 1.403 1_455 S
C1891 C1892 1.524 1_455 S
C1891 C1895 1.400 . S
C1892 H1877 0.959 1_655 S
C1892 H1878 0.960 . S
C1892 H1879 0.960 . S
C1892 C1891 1.524 1_655 S
C1893 C1890 1.403 . S
C1893 C1894 1.392 . S
C1893 C1897 1.495 . S
C1894 C1893 1.392 . S
C1894 C1895 1.385 . S
C1894 C1896 1.478 . S
C1895 H1889 0.930 . S
C1895 C1891 1.400 . S
C1895 C1894 1.385 . S
C1896 C1894 1.478 . S
C1896 C1898 1.381 . S
C1896 C1902 1.383 . S
C1897 C1893 1.495 . S
C1897 H1903 0.959 . S
C1897 H1904 0.961 . S
C1897 H1905 0.960 . S
C1898 C1896 1.381 . S
C1898 C1899 1.394 . S
C1898 H1906 0.930 . S
C1899 C1898 1.394 . S
C1899 C1900 1.383 . S
C1899 H1907 0.929 . S
C1900 C1899 1.383 . S
C1900 C1901 1.377 . S
C1901 H1885 0.930 . S
C1901 C1900 1.377 . S
C1901 C1902 1.379 . S
C1902 H1886 0.931 . S
C1902 C1896 1.383 . S
C1902 C1901 1.379 . S
H1903 C1897 0.959 . S
H1904 C1897 0.961 . S
H1905 C1897 0.960 . S
H1906 C1898 0.930 . S
H1907 C1899 0.929 . S
H1908 C1916 0.929 . S
H1909 C1918 0.930 . S
H1910 C1920 0.930 . S
H1911 C1923 0.929 . S
H1912 C1926 0.930 . S
H1913 C1928 0.960 . S
H1914 C1928 0.960 . S
H1915 C1928 0.960 . S
C1916 H1908 0.929 . S
C1916 C1917 1.377 . S
C1916 C1918 1.384 . S
C1917 C1916 1.377 . S
C1917 C1923 1.390 . S
C1918 H1909 0.930 . S
C1918 C1916 1.384 . S
C1918 C1919 1.372 . S
C1919 C1918 1.372 . S
C1919 C1920 1.400 . S
C1919 C1924 1.490 . S
C1920 H1910 0.930 . S
C1920 C1919 1.400 . S
C1920 C1923 1.386 . S
H1921 C1937 0.930 . S
H1922 C1938 0.931 . S
C1923 H1911 0.929 . S
C1923 C1917 1.390 . S
C1923 C1920 1.386 . S
C1924 C1919 1.490 . S
C1924 C1926 1.395 . S
C1924 C1927 1.403 . S
H1925 C1931 0.930 . S
C1926 H1912 0.930 . S
C1926 C1924 1.395 . S
C1926 C1929 1.403 . S
C1927 C1924 1.403 . S
C1927 C1928 1.524 . S
C1927 C1931 1.400 . S
C1928 H1913 0.960 . S
C1928 H1914 0.960 . S
C1928 H1915 0.960 . S
C1928 C1927 1.524 . S
C1929 C1926 1.403 . S
C1929 C1930 1.392 . S
C1929 C1933 1.495 . S
C1930 C1929 1.392 . S
C1930 C1931 1.385 . S
C1930 C1932 1.478 . S
C1931 H1925 0.930 . S
C1931 C1927 1.400 . S
C1931 C1930 1.385 . S
C1932 C1930 1.478 . S
C1932 C1934 1.381 . S
C1932 C1938 1.383 . S
C1933 C1929 1.495 . S
C1933 H1939 0.959 . S
C1933 H1940 0.961 . S
C1933 H1941 0.960 . S
C1934 C1932 1.381 . S
C1934 C1935 1.394 . S
C1934 H1942 0.930 . S
C1935 C1934 1.394 . S
C1935 C1936 1.383 . S
C1935 H1943 0.929 . S
C1936 C1935 1.383 . S
C1936 C1937 1.377 . S
C1937 H1921 0.930 . S
C1937 C1936 1.377 . S
C1937 C1938 1.379 . S
C1938 H1922 0.931 . S
C1938 C1932 1.383 . S
C1938 C1937 1.379 . S
H1939 C1933 0.959 . S
H1940 C1933 0.961 . S
H1941 C1933 0.960 . S
H1942 C1934 0.930 . S
H1943 C1935 0.929 . S
H1944 C1952 0.929 1_455 S
H1945 C1954 0.930 . S
H1946 C1956 0.930 . S
H1947 C1959 0.929 . S
H1948 C1962 0.930 . S
H1949 C1964 0.960 . S
H1950 C1964 0.960 . S
H1951 C1964 0.960 . S
C1952 H1944 0.929 1_655 S
C1952 C1953 1.377 . S
C1952 C1954 1.384 . S
C1953 C1952 1.377 . S
C1953 C1959 1.390 . S
C1954 H1945 0.930 . S
C1954 C1952 1.384 . S
C1954 C1955 1.372 . S
C1955 C1954 1.372 . S
C1955 C1956 1.400 . S
C1955 C1960 1.490 . S
C1956 H1946 0.930 . S
C1956 C1955 1.400 . S
C1956 C1959 1.386 . S
H1957 C1973 0.930 . S
H1958 C1974 0.931 . S
C1959 H1947 0.929 . S
C1959 C1953 1.390 . S
C1959 C1956 1.386 . S
C1960 C1955 1.490 . S
C1960 C1962 1.395 . S
C1960 C1963 1.403 . S
H1961 C1967 0.929 . S
C1962 H1948 0.930 . S
C1962 C1960 1.395 . S
C1962 C1965 1.403 . S
C1963 C1960 1.403 . S
C1963 C1964 1.524 . S
C1963 C1967 1.400 . S
C1964 H1949 0.960 . S
C1964 H1950 0.960 . S
C1964 H1951 0.960 . S
C1964 C1963 1.524 . S
C1965 C1962 1.403 . S
C1965 C1966 1.392 1_545 S
C1965 C1969 1.495 1_545 S
C1966 C1965 1.392 1_565 S
C1966 C1967 1.385 1_565 S
C1966 C1968 1.478 . S
C1967 H1961 0.929 . S
C1967 C1963 1.400 . S
C1967 C1966 1.385 1_545 S
C1968 C1966 1.478 . S
C1968 C1970 1.381 . S
C1968 C1974 1.383 . S
C1969 C1965 1.495 1_565 S
C1969 H1975 0.961 . S
C1969 H1976 0.961 . S
C1969 H1977 0.960 . S
C1970 C1968 1.381 . S
C1970 C1971 1.394 . S
C1970 H1978 0.930 . S
C1971 C1970 1.394 . S
C1971 C1972 1.383 . S
C1971 H1979 0.929 . S
C1972 C1971 1.383 . S
C1972 C1973 1.377 . S
C1973 H1957 0.930 . S
C1973 C1972 1.377 . S
C1973 C1974 1.379 . S
C1974 H1958 0.931 . S
C1974 C1968 1.383 . S
C1974 C1973 1.379 . S
H1975 C1969 0.961 . S
H1976 C1969 0.961 . S
H1977 C1969 0.960 . S
H1978 C1970 0.930 . S
H1979 C1971 0.929 . S
H1980 C1988 0.929 . S
H1981 C1990 0.930 . S
H1982 C1992 0.930 . S
H1983 C1995 0.929 . S
H1984 C1998 0.930 1_455 S
H1985 C2000 0.960 . S
H1986 C2000 0.960 1_455 S
H1987 C2000 0.960 1_455 S
C1988 H1980 0.929 . S
C1988 C1989 1.377 . S
C1988 C1990 1.384 . S
C1989 C1988 1.377 . S
C1989 C1995 1.390 . S
C1990 H1981 0.930 . S
C1990 C1988 1.384 . S
C1990 C1991 1.372 . S
C1991 C1990 1.372 . S
C1991 C1992 1.400 . S
C1991 C1996 1.490 . S
C1992 H1982 0.930 . S
C1992 C1991 1.400 . S
C1992 C1995 1.386 . S
H1993 C2009 0.930 . S
H1994 C2010 0.931 . S
C1995 H1983 0.929 . S
C1995 C1989 1.390 . S
C1995 C1992 1.386 . S
C1996 C1991 1.490 . S
C1996 C1998 1.395 1_455 S
C1996 C1999 1.403 1_455 S
H1997 C2003 0.930 . S
C1998 H1984 0.930 1_655 S
C1998 C1996 1.395 1_655 S
C1998 C2001 1.403 . S
C1999 C1996 1.403 1_655 S
C1999 C2000 1.524 . S
C1999 C2003 1.400 . S
C2000 H1985 0.960 . S
C2000 H1986 0.960 1_655 S
C2000 H1987 0.960 1_655 S
C2000 C1999 1.524 . S
C2001 C1998 1.403 . S
C2001 C2002 1.392 . S
C2001 C2005 1.495 . S
C2002 C2001 1.392 . S
C2002 C2003 1.385 . S
C2002 C2004 1.478 . S
C2003 H1997 0.930 . S
C2003 C1999 1.400 . S
C2003 C2002 1.385 . S
C2004 C2002 1.478 . S
C2004 C2006 1.381 . S
C2004 C2010 1.383 . S
C2005 C2001 1.495 . S
C2005 H2011 0.959 . S
C2005 H2012 0.961 . S
C2005 H2013 0.960 . S
C2006 C2004 1.381 . S
C2006 C2007 1.394 . S
C2006 H2014 0.930 . S
C2007 C2006 1.394 . S
C2007 C2008 1.383 . S
C2007 H2015 0.929 . S
C2008 C2007 1.383 . S
C2008 C2009 1.377 . S
C2009 H1993 0.930 . S
C2009 C2008 1.377 . S
C2009 C2010 1.379 . S
C2010 H1994 0.931 . S
C2010 C2004 1.383 . S
C2010 C2009 1.379 . S
H2011 C2005 0.959 . S
H2012 C2005 0.961 . S
H2013 C2005 0.960 . S
H2014 C2006 0.930 . S
H2015 C2007 0.929 . S
H2016 C2024 0.929 . S
H2017 C2026 0.930 . S
H2018 C2028 0.930 . S
H2019 C2031 0.929 . S
H2020 C2034 0.930 . S
H2021 C2036 0.960 . S
H2022 C2036 0.960 . S
H2023 C2036 0.960 . S
C2024 H2016 0.929 . S
C2024 C2025 1.377 . S
C2024 C2026 1.384 . S
C2025 C2024 1.377 . S
C2025 C2031 1.390 . S
C2026 H2017 0.930 . S
C2026 C2024 1.384 . S
C2026 C2027 1.372 . S
C2027 C2026 1.372 . S
C2027 C2028 1.400 . S
C2027 C2032 1.490 . S
C2028 H2018 0.930 . S
C2028 C2027 1.400 . S
C2028 C2031 1.386 . S
H2029 C2045 0.930 . S
H2030 C2046 0.931 . S
C2031 H2019 0.929 . S
C2031 C2025 1.390 . S
C2031 C2028 1.386 . S
C2032 C2027 1.490 . S
C2032 C2034 1.395 . S
C2032 C2035 1.403 . S
H2033 C2039 0.930 . S
C2034 H2020 0.930 . S
C2034 C2032 1.395 . S
C2034 C2037 1.403 . S
C2035 C2032 1.403 . S
C2035 C2036 1.524 . S
C2035 C2039 1.400 . S
C2036 H2021 0.960 . S
C2036 H2022 0.960 . S
C2036 H2023 0.960 . S
C2036 C2035 1.524 . S
C2037 C2034 1.403 . S
C2037 C2038 1.392 . S
C2037 C2041 1.495 . S
C2038 C2037 1.392 . S
C2038 C2039 1.385 . S
C2038 C2040 1.478 . S
C2039 H2033 0.930 . S
C2039 C2035 1.400 . S
C2039 C2038 1.385 . S
C2040 C2038 1.478 . S
C2040 C2042 1.381 . S
C2040 C2046 1.383 . S
C2041 C2037 1.495 . S
C2041 H2047 0.959 . S
C2041 H2048 0.961 . S
C2041 H2049 0.960 . S
C2042 C2040 1.381 . S
C2042 C2043 1.394 . S
C2042 H2050 0.930 . S
C2043 C2042 1.394 . S
C2043 C2044 1.383 . S
C2043 H2051 0.929 . S
C2044 C2043 1.383 . S
C2044 C2045 1.377 . S
C2045 H2029 0.930 . S
C2045 C2044 1.377 . S
C2045 C2046 1.379 . S
C2046 H2030 0.931 . S
C2046 C2040 1.383 . S
C2046 C2045 1.379 . S
H2047 C2041 0.959 . S
H2048 C2041 0.961 . S
H2049 C2041 0.960 . S
H2050 C2042 0.930 . S
H2051 C2043 0.929 . S
H2052 C2060 0.929 . S
H2053 C2062 0.930 . S
H2054 C2064 0.930 . S
H2055 C2067 0.929 . S
H2056 C2070 0.930 . S
H2057 C2072 0.960 1_545 S
H2058 C2072 0.960 . S
H2059 C2072 0.960 . S
C2060 H2052 0.929 . S
C2060 C2061 1.377 . S
C2060 C2062 1.384 . S
C2061 C2060 1.377 . S
C2061 C2067 1.390 . S
C2062 H2053 0.930 . S
C2062 C2060 1.384 . S
C2062 C2063 1.372 . S
C2063 C2062 1.372 . S
C2063 C2064 1.400 . S
C2063 C2068 1.490 . S
C2064 H2054 0.930 . S
C2064 C2063 1.400 . S
C2064 C2067 1.386 . S
H2065 C2081 0.930 . S
H2066 C2082 0.931 . S
C2067 H2055 0.929 . S
C2067 C2061 1.390 . S
C2067 C2064 1.386 . S
C2068 C2063 1.490 . S
C2068 C2070 1.395 1_565 S
C2068 C2071 1.403 1_565 S
H2069 C2075 0.930 . S
C2070 H2056 0.930 . S
C2070 C2068 1.395 1_545 S
C2070 C2073 1.403 . S
C2071 C2068 1.403 1_545 S
C2071 C2072 1.524 1_545 S
C2071 C2075 1.400 . S
C2072 H2057 0.960 1_565 S
C2072 H2058 0.960 . S
C2072 H2059 0.960 . S
C2072 C2071 1.524 1_565 S
C2073 C2070 1.403 . S
C2073 C2074 1.392 . S
C2073 C2077 1.495 . S
C2074 C2073 1.392 . S
C2074 C2075 1.385 . S
C2074 C2076 1.478 . S
C2075 H2069 0.930 . S
C2075 C2071 1.400 . S
C2075 C2074 1.385 . S
C2076 C2074 1.478 . S
C2076 C2078 1.381 . S
C2076 C2082 1.383 . S
C2077 C2073 1.495 . S
C2077 H2083 0.959 . S
C2077 H2084 0.961 . S
C2077 H2085 0.960 . S
C2078 C2076 1.381 . S
C2078 C2079 1.394 . S
C2078 H2086 0.930 . S
C2079 C2078 1.394 . S
C2079 C2080 1.383 . S
C2079 H2087 0.929 . S
C2080 C2079 1.383 . S
C2080 C2081 1.377 . S
C2081 H2065 0.930 . S
C2081 C2080 1.377 . S
C2081 C2082 1.379 . S
C2082 H2066 0.931 . S
C2082 C2076 1.383 . S
C2082 C2081 1.379 . S
H2083 C2077 0.959 . S
H2084 C2077 0.961 . S
H2085 C2077 0.960 . S
H2086 C2078 0.930 . S
H2087 C2079 0.929 . S
H2088 C2096 0.929 . S
H2089 C2098 0.930 . S
H2090 C2100 0.930 . S
H2091 C2103 0.929 . S
H2092 C2106 0.930 . S
H2093 C2108 0.955 1_655 S
H2094 C2108 0.960 . S
H2095 C2108 0.960 . S
C2096 H2088 0.929 . S
C2096 C2097 1.377 . S
C2096 C2098 1.384 . S
C2097 C2096 1.377 . S
C2097 C2103 1.390 . S
C2098 H2089 0.930 . S
C2098 C2096 1.384 . S
C2098 C2099 1.372 . S
C2099 C2098 1.372 . S
C2099 C2100 1.400 . S
C2099 C2104 1.490 . S
C2100 H2090 0.930 . S
C2100 C2099 1.400 . S
C2100 C2103 1.386 . S
H2101 C2117 0.930 . S
H2102 C2118 0.931 . S
C2103 H2091 0.929 . S
C2103 C2097 1.390 . S
C2103 C2100 1.386 . S
C2104 C2099 1.490 . S
C2104 C2106 1.395 1_455 S
C2104 C2107 1.403 1_455 S
H2105 C2111 0.930 . S
C2106 H2092 0.930 . S
C2106 C2104 1.395 1_655 S
C2106 C2109 1.403 . S
C2107 C2104 1.403 1_655 S
C2107 C2108 1.524 1_655 S
C2107 C2111 1.400 . S
C2108 H2093 0.955 1_455 S
C2108 H2094 0.960 . S
C2108 H2095 0.960 . S
C2108 C2107 1.524 1_455 S
C2109 C2106 1.403 . S
C2109 C2110 1.392 . S
C2109 C2113 1.495 . S
C2110 C2109 1.392 . S
C2110 C2111 1.385 . S
C2110 C2112 1.478 . S
C2111 H2105 0.930 . S
C2111 C2107 1.400 . S
C2111 C2110 1.385 . S
C2112 C2110 1.478 . S
C2112 C2114 1.381 . S
C2112 C2118 1.383 . S
C2113 C2109 1.495 . S
C2113 H2119 0.959 . S
C2113 H2120 0.961 . S
C2113 H2121 0.960 . S
C2114 C2112 1.381 . S
C2114 C2115 1.394 . S
C2114 H2122 0.930 . S
C2115 C2114 1.394 . S
C2115 C2116 1.383 . S
C2115 H2123 0.929 . S
C2116 C2115 1.383 . S
C2116 C2117 1.377 . S
C2117 H2101 0.930 . S
C2117 C2116 1.377 . S
C2117 C2118 1.379 . S
C2118 H2102 0.931 . S
C2118 C2112 1.383 . S
C2118 C2117 1.379 . S
H2119 C2113 0.959 . S
H2120 C2113 0.961 . S
H2121 C2113 0.960 . S
H2122 C2114 0.930 . S
H2123 C2115 0.929 . S
H2124 C2132 0.929 . S
H2125 C2134 0.930 . S
H2126 C2136 0.930 . S
H2127 C2139 0.929 . S
H2128 C2142 0.930 . S
H2129 C2144 0.960 . S
H2130 C2144 0.960 . S
H2131 C2144 0.960 . S
C2132 H2124 0.929 . S
C2132 C2133 1.377 . S
C2132 C2134 1.384 . S
C2133 C2132 1.377 . S
C2133 C2139 1.390 . S
C2134 H2125 0.930 . S
C2134 C2132 1.384 . S
C2134 C2135 1.372 . S
C2135 C2134 1.372 . S
C2135 C2136 1.400 . S
C2135 C2140 1.490 . S
C2136 H2126 0.930 . S
C2136 C2135 1.400 . S
C2136 C2139 1.386 . S
H2137 C2153 0.930 . S
H2138 C2154 0.931 . S
C2139 H2127 0.929 . S
C2139 C2133 1.390 . S
C2139 C2136 1.386 . S
C2140 C2135 1.490 . S
C2140 C2142 1.395 . S
C2140 C2143 1.403 . S
H2141 C2147 0.930 . S
C2142 H2128 0.930 . S
C2142 C2140 1.395 . S
C2142 C2145 1.403 . S
C2143 C2140 1.403 . S
C2143 C2144 1.524 . S
C2143 C2147 1.400 . S
C2144 H2129 0.960 . S
C2144 H2130 0.960 . S
C2144 H2131 0.960 . S
C2144 C2143 1.524 . S
C2145 C2142 1.403 . S
C2145 C2146 1.392 . S
C2145 C2149 1.495 . S
C2146 C2145 1.392 . S
C2146 C2147 1.385 . S
C2146 C2148 1.478 . S
C2147 H2141 0.930 . S
C2147 C2143 1.400 . S
C2147 C2146 1.385 . S
C2148 C2146 1.478 . S
C2148 C2150 1.381 . S
C2148 C2154 1.383 . S
C2149 C2145 1.495 . S
C2149 H2155 0.959 . S
C2149 H2156 0.961 . S
C2149 H2157 0.960 . S
C2150 C2148 1.381 . S
C2150 C2151 1.394 . S
C2150 H2158 0.930 . S
C2151 C2150 1.394 . S
C2151 C2152 1.383 . S
C2151 H2159 0.929 . S
C2152 C2151 1.383 . S
C2152 C2153 1.377 . S
C2153 H2137 0.930 . S
C2153 C2152 1.377 . S
C2153 C2154 1.379 . S
C2154 H2138 0.931 . S
C2154 C2148 1.383 . S
C2154 C2153 1.379 . S
H2155 C2149 0.959 . S
H2156 C2149 0.961 . S
H2157 C2149 0.960 . S
H2158 C2150 0.930 . S
H2159 C2151 0.929 . S
H2160 C2168 0.929 . S
H2161 C2170 0.930 . S
H2162 C2172 0.930 . S
H2163 C2175 0.929 . S
H2164 C2178 0.930 1_545 S
H2165 C2180 0.960 . S
H2166 C2180 0.960 1_545 S
H2167 C2180 0.960 1_545 S
C2168 H2160 0.929 . S
C2168 C2169 1.377 . S
C2168 C2170 1.384 . S
C2169 C2168 1.377 . S
C2169 C2175 1.390 . S
C2170 H2161 0.930 . S
C2170 C2168 1.384 . S
C2170 C2171 1.372 . S
C2171 C2170 1.372 . S
C2171 C2172 1.400 . S
C2171 C2176 1.490 . S
C2172 H2162 0.930 . S
C2172 C2171 1.400 . S
C2172 C2175 1.386 . S
H2173 C2189 0.930 . S
H2174 C2190 0.931 . S
C2175 H2163 0.929 . S
C2175 C2169 1.390 . S
C2175 C2172 1.386 . S
C2176 C2171 1.490 . S
C2176 C2178 1.395 1_545 S
C2176 C2179 1.403 1_545 S
H2177 C2183 0.930 . S
C2178 H2164 0.930 1_565 S
C2178 C2176 1.395 1_565 S
C2178 C2181 1.403 . S
C2179 C2176 1.403 1_565 S
C2179 C2180 1.524 . S
C2179 C2183 1.400 . S
C2180 H2165 0.960 . S
C2180 H2166 0.960 1_565 S
C2180 H2167 0.960 1_565 S
C2180 C2179 1.524 . S
C2181 C2178 1.403 . S
C2181 C2182 1.392 . S
C2181 C2185 1.495 . S
C2182 C2181 1.392 . S
C2182 C2183 1.385 . S
C2182 C2184 1.478 . S
C2183 H2177 0.930 . S
C2183 C2179 1.400 . S
C2183 C2182 1.385 . S
C2184 C2182 1.478 . S
C2184 C2186 1.381 . S
C2184 C2190 1.383 . S
C2185 C2181 1.495 . S
C2185 H2191 0.959 . S
C2185 H2192 0.961 . S
C2185 H2193 0.960 . S
C2186 C2184 1.381 . S
C2186 C2187 1.394 . S
C2186 H2194 0.930 . S
C2187 C2186 1.394 . S
C2187 C2188 1.383 . S
C2187 H2195 0.929 . S
C2188 C2187 1.383 . S
C2188 C2189 1.377 . S
C2189 H2173 0.930 . S
C2189 C2188 1.377 . S
C2189 C2190 1.379 . S
C2190 H2174 0.931 . S
C2190 C2184 1.383 . S
C2190 C2189 1.379 . S
H2191 C2185 0.959 . S
H2192 C2185 0.961 . S
H2193 C2185 0.960 . S
H2194 C2186 0.930 . S
H2195 C2187 0.929 . S
H2196 C2204 0.929 . S
H2197 C2206 0.930 . S
H2198 C2208 0.930 . S
H2199 C2211 0.929 . S
H2200 C2214 0.930 . S
H2201 C2216 0.960 . S
H2202 C2216 0.960 . S
H2203 C2216 0.960 . S
C2204 H2196 0.929 . S
C2204 C2205 1.377 . S
C2204 C2206 1.384 . S
C2205 C2204 1.377 . S
C2205 C2211 1.390 . S
C2206 H2197 0.930 . S
C2206 C2204 1.384 . S
C2206 C2207 1.372 . S
C2207 C2206 1.372 . S
C2207 C2208 1.400 . S
C2207 C2212 1.490 . S
C2208 H2198 0.930 . S
C2208 C2207 1.400 . S
C2208 C2211 1.386 . S
H2209 C2225 0.930 . S
H2210 C2226 0.931 . S
C2211 H2199 0.929 . S
C2211 C2205 1.390 . S
C2211 C2208 1.386 . S
C2212 C2207 1.490 . S
C2212 C2214 1.395 . S
C2212 C2215 1.403 . S
H2213 C2219 0.930 1_655 S
C2214 H2200 0.930 . S
C2214 C2212 1.395 . S
C2214 C2217 1.403 . S
C2215 C2212 1.403 . S
C2215 C2216 1.524 . S
C2215 C2219 1.400 . S
C2216 H2201 0.960 . S
C2216 H2202 0.960 . S
C2216 H2203 0.960 . S
C2216 C2215 1.524 . S
C2217 C2214 1.403 . S
C2217 C2218 1.392 1_455 S
C2217 C2221 1.495 . S
C2218 C2217 1.392 1_655 S
C2218 C2219 1.385 1_655 S
C2218 C2220 1.478 . S
C2219 H2213 0.930 1_455 S
C2219 C2215 1.400 . S
C2219 C2218 1.385 1_455 S
C2220 C2218 1.478 . S
C2220 C2222 1.381 . S
C2220 C2226 1.383 . S
C2221 C2217 1.495 . S
C2221 H2227 0.959 . S
C2221 H2228 0.961 1_455 S
C2221 H2229 0.960 1_455 S
C2222 C2220 1.381 . S
C2222 C2223 1.394 . S
C2222 H2230 0.930 . S
C2223 C2222 1.394 . S
C2223 C2224 1.383 . S
C2223 H2231 0.929 . S
C2224 C2223 1.383 . S
C2224 C2225 1.377 . S
C2225 H2209 0.930 . S
C2225 C2224 1.377 . S
C2225 C2226 1.379 . S
C2226 H2210 0.931 . S
C2226 C2220 1.383 . S
C2226 C2225 1.379 . S
H2227 C2221 0.959 . S
H2228 C2221 0.961 1_655 S
H2229 C2221 0.960 1_655 S
H2230 C2222 0.930 . S
H2231 C2223 0.929 . S
H2232 C2240 0.929 . S
H2233 C2242 0.930 . S
H2234 C2244 0.930 . S
H2235 C2247 0.929 . S
H2236 C2250 0.930 . S
H2237 C2252 0.960 . S
H2238 C2252 0.960 . S
H2239 C2252 0.960 . S
C2240 H2232 0.929 . S
C2240 C2241 1.377 . S
C2240 C2242 1.384 . S
C2241 C2240 1.377 . S
C2241 C2247 1.390 . S
C2242 H2233 0.930 . S
C2242 C2240 1.384 . S
C2242 C2243 1.372 . S
C2243 C2242 1.372 . S
C2243 C2244 1.400 . S
C2243 C2248 1.490 . S
C2244 H2234 0.930 . S
C2244 C2243 1.400 . S
C2244 C2247 1.386 . S
H2245 C2261 0.930 . S
H2246 C2262 0.931 . S
C2247 H2235 0.929 . S
C2247 C2241 1.390 . S
C2247 C2244 1.386 . S
C2248 C2243 1.490 . S
C2248 C2250 1.395 . S
C2248 C2251 1.403 . S
H2249 C2255 0.930 . S
C2250 H2236 0.930 . S
C2250 C2248 1.395 . S
C2250 C2253 1.403 . S
C2251 C2248 1.403 . S
C2251 C2252 1.524 . S
C2251 C2255 1.400 . S
C2252 H2237 0.960 . S
C2252 H2238 0.960 . S
C2252 H2239 0.960 . S
C2252 C2251 1.524 . S
C2253 C2250 1.403 . S
C2253 C2254 1.392 . S
C2253 C2257 1.495 . S
C2254 C2253 1.392 . S
C2254 C2255 1.385 . S
C2254 C2256 1.478 . S
C2255 H2249 0.930 . S
C2255 C2251 1.400 . S
C2255 C2254 1.385 . S
C2256 C2254 1.478 . S
C2256 C2258 1.381 . S
C2256 C2262 1.383 . S
C2257 C2253 1.495 . S
C2257 H2263 0.959 . S
C2257 H2264 0.961 . S
C2257 H2265 0.960 . S
C2258 C2256 1.381 . S
C2258 C2259 1.394 . S
C2258 H2266 0.930 . S
C2259 C2258 1.394 . S
C2259 C2260 1.383 . S
C2259 H2267 0.929 . S
C2260 C2259 1.383 . S
C2260 C2261 1.377 . S
C2261 H2245 0.930 . S
C2261 C2260 1.377 . S
C2261 C2262 1.379 . S
C2262 H2246 0.931 . S
C2262 C2256 1.383 . S
C2262 C2261 1.379 . S
H2263 C2257 0.959 . S
H2264 C2257 0.961 . S
H2265 C2257 0.960 . S
H2266 C2258 0.930 . S
H2267 C2259 0.929 . S
H2268 C2276 0.929 . S
H2269 C2278 0.930 . S
H2270 C2280 0.930 . S
H2271 C2283 0.929 . S
H2272 C2286 0.930 . S
H2273 C2288 0.960 . S
H2274 C2288 0.960 . S
H2275 C2288 0.960 . S
C2276 H2268 0.929 . S
C2276 C2277 1.377 . S
C2276 C2278 1.384 . S
C2277 C2276 1.377 . S
C2277 C2283 1.390 . S
C2278 H2269 0.930 . S
C2278 C2276 1.384 . S
C2278 C2279 1.372 . S
C2279 C2278 1.372 . S
C2279 C2280 1.400 . S
C2279 C2284 1.490 . S
C2280 H2270 0.930 . S
C2280 C2279 1.400 . S
C2280 C2283 1.386 . S
H2281 C2297 0.930 . S
H2282 C2298 0.931 . S
C2283 H2271 0.929 . S
C2283 C2277 1.390 . S
C2283 C2280 1.386 . S
C2284 C2279 1.490 . S
C2284 C2286 1.395 . S
C2284 C2287 1.403 . S
H2285 C2291 0.930 . S
C2286 H2272 0.930 . S
C2286 C2284 1.395 . S
C2286 C2289 1.403 . S
C2287 C2284 1.403 . S
C2287 C2288 1.524 . S
C2287 C2291 1.400 . S
C2288 H2273 0.960 . S
C2288 H2274 0.960 . S
C2288 H2275 0.960 . S
C2288 C2287 1.524 . S
C2289 C2286 1.403 . S
C2289 C2290 1.392 . S
C2289 C2293 1.495 . S
C2290 C2289 1.392 . S
C2290 C2291 1.385 . S
C2290 C2292 1.478 . S
C2291 H2285 0.930 . S
C2291 C2287 1.400 . S
C2291 C2290 1.385 . S
C2292 C2290 1.478 . S
C2292 C2294 1.381 . S
C2292 C2298 1.383 . S
C2293 C2289 1.495 . S
C2293 H2299 0.959 . S
C2293 H2300 0.961 . S
C2293 H2301 0.960 . S
C2294 C2292 1.381 . S
C2294 C2295 1.394 . S
C2294 H2302 0.930 . S
C2295 C2294 1.394 . S
C2295 C2296 1.383 . S
C2295 H2303 0.929 . S
C2296 C2295 1.383 . S
C2296 C2297 1.377 . S
C2297 H2281 0.930 . S
C2297 C2296 1.377 . S
C2297 C2298 1.379 . S
C2298 H2282 0.931 . S
C2298 C2292 1.383 . S
C2298 C2297 1.379 . S
H2299 C2293 0.959 . S
H2300 C2293 0.961 . S
H2301 C2293 0.960 . S
H2302 C2294 0.930 . S
H2303 C2295 0.929 . S
H2304 C2312 0.929 . S
H2305 C2314 0.930 . S
H2306 C2316 0.930 . S
H2307 C2319 0.929 . S
H2308 C2322 0.930 . S
H2309 C2324 0.960 . S
H2310 C2324 0.960 . S
H2311 C2324 0.960 . S
C2312 H2304 0.929 . S
C2312 C2313 1.377 . S
C2312 C2314 1.384 . S
C2313 C2312 1.377 . S
C2313 C2319 1.390 . S
C2314 H2305 0.930 . S
C2314 C2312 1.384 . S
C2314 C2315 1.372 . S
C2315 C2314 1.372 . S
C2315 C2316 1.400 . S
C2315 C2320 1.490 . S
C2316 H2306 0.930 . S
C2316 C2315 1.400 . S
C2316 C2319 1.386 . S
H2317 C2333 0.930 . S
H2318 C2334 0.931 . S
C2319 H2307 0.929 . S
C2319 C2313 1.390 . S
C2319 C2316 1.386 . S
C2320 C2315 1.490 . S
C2320 C2322 1.395 . S
C2320 C2323 1.403 . S
H2321 C2327 0.930 . S
C2322 H2308 0.930 . S
C2322 C2320 1.395 . S
C2322 C2325 1.403 . S
C2323 C2320 1.403 . S
C2323 C2324 1.524 . S
C2323 C2327 1.400 . S
C2324 H2309 0.960 . S
C2324 H2310 0.960 . S
C2324 H2311 0.960 . S
C2324 C2323 1.524 . S
C2325 C2322 1.403 . S
C2325 C2326 1.392 . S
C2325 C2329 1.495 . S
C2326 C2325 1.392 . S
C2326 C2327 1.385 . S
C2326 C2328 1.478 . S
C2327 H2321 0.930 . S
C2327 C2323 1.400 . S
C2327 C2326 1.385 . S
C2328 C2326 1.478 . S
C2328 C2330 1.381 . S
C2328 C2334 1.383 . S
C2329 C2325 1.495 . S
C2329 H2335 0.959 . S
C2329 H2336 0.961 . S
C2329 H2337 0.960 . S
C2330 C2328 1.381 . S
C2330 C2331 1.394 . S
C2330 H2338 0.930 . S
C2331 C2330 1.394 . S
C2331 C2332 1.383 . S
C2331 H2339 0.929 . S
C2332 C2331 1.383 . S
C2332 C2333 1.377 . S
C2333 H2317 0.930 . S
C2333 C2332 1.377 . S
C2333 C2334 1.379 . S
C2334 H2318 0.931 . S
C2334 C2328 1.383 . S
C2334 C2333 1.379 . S
H2335 C2329 0.959 . S
H2336 C2329 0.961 . S
H2337 C2329 0.960 . S
H2338 C2330 0.930 . S
H2339 C2331 0.929 . S
H2340 C2348 0.929 . S
H2341 C2350 0.930 . S
H2342 C2352 0.930 . S
H2343 C2355 0.929 . S
H2344 C2358 0.930 . S
H2345 C2360 0.960 . S
H2346 C2360 0.960 . S
H2347 C2360 0.960 . S
C2348 H2340 0.929 . S
C2348 C2349 1.377 . S
C2348 C2350 1.384 . S
C2349 C2348 1.377 . S
C2349 C2355 1.390 . S
C2350 H2341 0.930 . S
C2350 C2348 1.384 . S
C2350 C2351 1.372 . S
C2351 C2350 1.372 . S
C2351 C2352 1.400 . S
C2351 C2356 1.490 . S
C2352 H2342 0.930 . S
C2352 C2351 1.400 . S
C2352 C2355 1.386 . S
H2353 C2369 0.930 . S
H2354 C2370 0.931 . S
C2355 H2343 0.929 . S
C2355 C2349 1.390 . S
C2355 C2352 1.386 . S
C2356 C2351 1.490 . S
C2356 C2358 1.395 . S
C2356 C2359 1.403 . S
H2357 C2363 0.930 . S
C2358 H2344 0.930 . S
C2358 C2356 1.395 . S
C2358 C2361 1.403 . S
C2359 C2356 1.403 . S
C2359 C2360 1.524 . S
C2359 C2363 1.400 . S
C2360 H2345 0.960 . S
C2360 H2346 0.960 . S
C2360 H2347 0.960 . S
C2360 C2359 1.524 . S
C2361 C2358 1.403 . S
C2361 C2362 1.392 . S
C2361 C2365 1.495 . S
C2362 C2361 1.392 . S
C2362 C2363 1.385 . S
C2362 C2364 1.478 . S
C2363 H2357 0.930 . S
C2363 C2359 1.400 . S
C2363 C2362 1.385 . S
C2364 C2362 1.478 . S
C2364 C2366 1.381 . S
C2364 C2370 1.383 . S
C2365 C2361 1.495 . S
C2365 H2371 0.959 . S
C2365 H2372 0.961 . S
C2365 H2373 0.960 . S
C2366 C2364 1.381 . S
C2366 C2367 1.394 . S
C2366 H2374 0.930 . S
C2367 C2366 1.394 . S
C2367 C2368 1.383 . S
C2367 H2375 0.929 . S
C2368 C2367 1.383 . S
C2368 C2369 1.377 . S
C2369 H2353 0.930 . S
C2369 C2368 1.377 . S
C2369 C2370 1.379 . S
C2370 H2354 0.931 . S
C2370 C2364 1.383 . S
C2370 C2369 1.379 . S
H2371 C2365 0.959 . S
H2372 C2365 0.961 . S
H2373 C2365 0.960 . S
H2374 C2366 0.930 . S
H2375 C2367 0.929 . S
H2376 C2384 0.929 . S
H2377 C2386 0.930 . S
H2378 C2388 0.930 . S
H2379 C2391 0.929 . S
H2380 C2394 0.930 . S
H2381 C2396 0.960 . S
H2382 C2396 0.960 . S
H2383 C2396 0.960 . S
C2384 H2376 0.929 . S
C2384 C2385 1.377 . S
C2384 C2386 1.384 . S
C2385 C2384 1.377 . S
C2385 C2391 1.390 . S
C2386 H2377 0.930 . S
C2386 C2384 1.384 . S
C2386 C2387 1.372 . S
C2387 C2386 1.372 . S
C2387 C2388 1.400 . S
C2387 C2392 1.490 . S
C2388 H2378 0.930 . S
C2388 C2387 1.400 . S
C2388 C2391 1.386 . S
H2389 C2405 0.930 . S
H2390 C2406 0.931 . S
C2391 H2379 0.929 . S
C2391 C2385 1.390 . S
C2391 C2388 1.386 . S
C2392 C2387 1.490 . S
C2392 C2394 1.395 . S
C2392 C2395 1.403 . S
H2393 C2399 0.930 . S
C2394 H2380 0.930 . S
C2394 C2392 1.395 . S
C2394 C2397 1.403 . S
C2395 C2392 1.403 . S
C2395 C2396 1.524 . S
C2395 C2399 1.400 . S
C2396 H2381 0.960 . S
C2396 H2382 0.960 . S
C2396 H2383 0.960 . S
C2396 C2395 1.524 . S
C2397 C2394 1.403 . S
C2397 C2398 1.392 . S
C2397 C2401 1.495 . S
C2398 C2397 1.392 . S
C2398 C2399 1.385 . S
C2398 C2400 1.478 . S
C2399 H2393 0.930 . S
C2399 C2395 1.400 . S
C2399 C2398 1.385 . S
C2400 C2398 1.478 . S
C2400 C2402 1.381 . S
C2400 C2406 1.383 . S
C2401 C2397 1.495 . S
C2401 H2407 0.959 . S
C2401 H2408 0.961 . S
C2401 H2409 0.960 . S
C2402 C2400 1.381 . S
C2402 C2403 1.394 . S
C2402 H2410 0.930 . S
C2403 C2402 1.394 . S
C2403 C2404 1.383 . S
C2403 H2411 0.929 . S
C2404 C2403 1.383 . S
C2404 C2405 1.377 . S
C2405 H2389 0.930 . S
C2405 C2404 1.377 . S
C2405 C2406 1.379 . S
C2406 H2390 0.931 . S
C2406 C2400 1.383 . S
C2406 C2405 1.379 . S
H2407 C2401 0.959 . S
H2408 C2401 0.961 . S
H2409 C2401 0.960 . S
H2410 C2402 0.930 . S
H2411 C2403 0.929 . S
H2412 C2420 0.929 . S
H2413 C2422 0.930 . S
H2414 C2424 0.930 . S
H2415 C2427 0.929 . S
H2416 C2430 0.930 . S
H2417 C2432 0.960 . S
H2418 C2432 0.960 . S
H2419 C2432 0.960 . S
C2420 H2412 0.929 . S
C2420 C2421 1.377 . S
C2420 C2422 1.384 . S
C2421 C2420 1.377 . S
C2421 C2427 1.390 . S
C2422 H2413 0.930 . S
C2422 C2420 1.384 . S
C2422 C2423 1.372 . S
C2423 C2422 1.372 . S
C2423 C2424 1.400 . S
C2423 C2428 1.490 . S
C2424 H2414 0.930 . S
C2424 C2423 1.400 . S
C2424 C2427 1.386 . S
H2425 C2441 0.930 . S
H2426 C2442 0.931 . S
C2427 H2415 0.929 . S
C2427 C2421 1.390 . S
C2427 C2424 1.386 . S
C2428 C2423 1.490 . S
C2428 C2430 1.395 . S
C2428 C2431 1.403 . S
H2429 C2435 0.930 . S
C2430 H2416 0.930 . S
C2430 C2428 1.395 . S
C2430 C2433 1.403 . S
C2431 C2428 1.403 . S
C2431 C2432 1.524 . S
C2431 C2435 1.400 . S
C2432 H2417 0.960 . S
C2432 H2418 0.960 . S
C2432 H2419 0.960 . S
C2432 C2431 1.524 . S
C2433 C2430 1.403 . S
C2433 C2434 1.392 . S
C2433 C2437 1.495 . S
C2434 C2433 1.392 . S
C2434 C2435 1.385 . S
C2434 C2436 1.478 . S
C2435 H2429 0.930 . S
C2435 C2431 1.400 . S
C2435 C2434 1.385 . S
C2436 C2434 1.478 . S
C2436 C2438 1.381 . S
C2436 C2442 1.383 . S
C2437 C2433 1.495 . S
C2437 H2443 0.959 . S
C2437 H2444 0.961 . S
C2437 H2445 0.960 . S
C2438 C2436 1.381 . S
C2438 C2439 1.394 . S
C2438 H2446 0.930 . S
C2439 C2438 1.394 . S
C2439 C2440 1.383 . S
C2439 H2447 0.929 . S
C2440 C2439 1.383 . S
C2440 C2441 1.377 . S
C2441 H2425 0.930 . S
C2441 C2440 1.377 . S
C2441 C2442 1.379 . S
C2442 H2426 0.931 . S
C2442 C2436 1.383 . S
C2442 C2441 1.379 . S
H2443 C2437 0.959 . S
H2444 C2437 0.961 . S
H2445 C2437 0.960 . S
H2446 C2438 0.930 . S
H2447 C2439 0.929 . S
H2448 C2456 0.929 . S
H2449 C2458 0.930 . S
H2450 C2460 0.930 . S
H2451 C2463 0.929 . S
H2452 C2466 0.930 . S
H2453 C2468 0.960 . S
H2454 C2468 0.960 . S
H2455 C2468 0.960 . S
C2456 H2448 0.929 . S
C2456 C2457 1.377 . S
C2456 C2458 1.384 . S
C2457 C2456 1.377 . S
C2457 C2463 1.390 . S
C2458 H2449 0.930 . S
C2458 C2456 1.384 . S
C2458 C2459 1.372 . S
C2459 C2458 1.372 . S
C2459 C2460 1.400 . S
C2459 C2464 1.490 . S
C2460 H2450 0.930 . S
C2460 C2459 1.400 . S
C2460 C2463 1.386 . S
H2461 C2477 0.930 . S
H2462 C2478 0.931 . S
C2463 H2451 0.929 . S
C2463 C2457 1.390 . S
C2463 C2460 1.386 . S
C2464 C2459 1.490 . S
C2464 C2466 1.395 . S
C2464 C2467 1.403 . S
H2465 C2471 0.930 . S
C2466 H2452 0.930 . S
C2466 C2464 1.395 . S
C2466 C2469 1.403 . S
C2467 C2464 1.403 . S
C2467 C2468 1.524 . S
C2467 C2471 1.400 . S
C2468 H2453 0.960 . S
C2468 H2454 0.960 . S
C2468 H2455 0.960 . S
C2468 C2467 1.524 . S
C2469 C2466 1.403 . S
C2469 C2470 1.392 . S
C2469 C2473 1.495 . S
C2470 C2469 1.392 . S
C2470 C2471 1.385 . S
C2470 C2472 1.478 . S
C2471 H2465 0.930 . S
C2471 C2467 1.400 . S
C2471 C2470 1.385 . S
C2472 C2470 1.478 . S
C2472 C2474 1.381 . S
C2472 C2478 1.383 . S
C2473 C2469 1.495 . S
C2473 H2479 0.959 . S
C2473 H2480 0.961 . S
C2473 H2481 0.960 . S
C2474 C2472 1.381 . S
C2474 C2475 1.394 . S
C2474 H2482 0.930 . S
C2475 C2474 1.394 . S
C2475 C2476 1.383 . S
C2475 H2483 0.929 . S
C2476 C2475 1.383 . S
C2476 C2477 1.377 . S
C2477 H2461 0.930 . S
C2477 C2476 1.377 . S
C2477 C2478 1.379 . S
C2478 H2462 0.931 . S
C2478 C2472 1.383 . S
C2478 C2477 1.379 . S
H2479 C2473 0.959 . S
H2480 C2473 0.961 . S
H2481 C2473 0.960 . S
H2482 C2474 0.930 . S
H2483 C2475 0.929 . S
H2484 C2492 0.929 . S
H2485 C2494 0.930 . S
H2486 C2496 0.930 . S
H2487 C2499 0.929 . S
H2488 C2502 0.930 . S
H2489 C2504 0.960 . S
H2490 C2504 0.960 . S
H2491 C2504 0.960 . S
C2492 H2484 0.929 . S
C2492 C2493 1.377 . S
C2492 C2494 1.384 . S
C2493 C2492 1.377 . S
C2493 C2499 1.390 . S
C2494 H2485 0.930 . S
C2494 C2492 1.384 . S
C2494 C2495 1.372 . S
C2495 C2494 1.372 . S
C2495 C2496 1.400 . S
C2495 C2500 1.490 . S
C2496 H2486 0.930 . S
C2496 C2495 1.400 . S
C2496 C2499 1.386 . S
H2497 C2513 0.930 . S
H2498 C2514 0.931 . S
C2499 H2487 0.929 . S
C2499 C2493 1.390 . S
C2499 C2496 1.386 . S
C2500 C2495 1.490 . S
C2500 C2502 1.395 . S
C2500 C2503 1.403 . S
H2501 C2507 0.930 . S
C2502 H2488 0.930 . S
C2502 C2500 1.395 . S
C2502 C2505 1.403 . S
C2503 C2500 1.403 . S
C2503 C2504 1.524 . S
C2503 C2507 1.400 . S
C2504 H2489 0.960 . S
C2504 H2490 0.960 . S
C2504 H2491 0.960 . S
C2504 C2503 1.524 . S
C2505 C2502 1.403 . S
C2505 C2506 1.392 . S
C2505 C2509 1.495 . S
C2506 C2505 1.392 . S
C2506 C2507 1.385 . S
C2506 C2508 1.478 . S
C2507 H2501 0.930 . S
C2507 C2503 1.400 . S
C2507 C2506 1.385 . S
C2508 C2506 1.478 . S
C2508 C2510 1.381 . S
C2508 C2514 1.383 . S
C2509 C2505 1.495 . S
C2509 H2515 0.959 . S
C2509 H2516 0.961 . S
C2509 H2517 0.960 . S
C2510 C2508 1.381 . S
C2510 C2511 1.394 . S
C2510 H2518 0.930 . S
C2511 C2510 1.394 . S
C2511 C2512 1.383 . S
C2511 H2519 0.929 . S
C2512 C2511 1.383 . S
C2512 C2513 1.377 . S
C2513 H2497 0.930 . S
C2513 C2512 1.377 . S
C2513 C2514 1.379 . S
C2514 H2498 0.931 . S
C2514 C2508 1.383 . S
C2514 C2513 1.379 . S
H2515 C2509 0.959 . S
H2516 C2509 0.961 . S
H2517 C2509 0.960 . S
H2518 C2510 0.930 . S
H2519 C2511 0.929 . S
H2520 C2528 0.929 . S
H2521 C2530 0.930 . S
H2522 C2532 0.930 . S
H2523 C2535 0.929 . S
H2524 C2538 0.930 . S
H2525 C2540 0.960 . S
H2526 C2540 0.960 . S
H2527 C2540 0.960 . S
C2528 H2520 0.929 . S
C2528 C2529 1.377 . S
C2528 C2530 1.384 . S
C2529 C2528 1.377 . S
C2529 C2535 1.390 . S
C2530 H2521 0.930 . S
C2530 C2528 1.384 . S
C2530 C2531 1.372 . S
C2531 C2530 1.372 . S
C2531 C2532 1.400 . S
C2531 C2536 1.490 . S
C2532 H2522 0.930 . S
C2532 C2531 1.400 . S
C2532 C2535 1.386 . S
H2533 C2549 0.930 . S
H2534 C2550 0.931 . S
C2535 H2523 0.929 . S
C2535 C2529 1.390 . S
C2535 C2532 1.386 . S
C2536 C2531 1.490 . S
C2536 C2538 1.395 . S
C2536 C2539 1.403 . S
H2537 C2543 0.930 . S
C2538 H2524 0.930 . S
C2538 C2536 1.395 . S
C2538 C2541 1.403 . S
C2539 C2536 1.403 . S
C2539 C2540 1.524 . S
C2539 C2543 1.400 . S
C2540 H2525 0.960 . S
C2540 H2526 0.960 . S
C2540 H2527 0.960 . S
C2540 C2539 1.524 . S
C2541 C2538 1.403 . S
C2541 C2542 1.392 . S
C2541 C2545 1.495 . S
C2542 C2541 1.392 . S
C2542 C2543 1.385 . S
C2542 C2544 1.478 . S
C2543 H2537 0.930 . S
C2543 C2539 1.400 . S
C2543 C2542 1.385 . S
C2544 C2542 1.478 . S
C2544 C2546 1.381 . S
C2544 C2550 1.383 . S
C2545 C2541 1.495 . S
C2545 H2551 0.959 . S
C2545 H2552 0.961 . S
C2545 H2553 0.960 . S
C2546 C2544 1.381 . S
C2546 C2547 1.394 . S
C2546 H2554 0.930 . S
C2547 C2546 1.394 . S
C2547 C2548 1.383 . S
C2547 H2555 0.929 . S
C2548 C2547 1.383 . S
C2548 C2549 1.377 . S
C2549 H2533 0.930 . S
C2549 C2548 1.377 . S
C2549 C2550 1.379 . S
C2550 H2534 0.931 . S
C2550 C2544 1.383 . S
C2550 C2549 1.379 . S
H2551 C2545 0.959 . S
H2552 C2545 0.961 . S
H2553 C2545 0.960 . S
H2554 C2546 0.930 . S
H2555 C2547 0.929 . S
H2556 C2564 0.929 . S
H2557 C2566 0.930 . S
H2558 C2568 0.930 . S
H2559 C2571 0.929 . S
H2560 C2574 0.930 . S
H2561 C2576 0.960 . S
H2562 C2576 0.960 . S
H2563 C2576 0.960 . S
C2564 H2556 0.929 . S
C2564 C2565 1.377 . S
C2564 C2566 1.384 . S
C2565 C2564 1.377 . S
C2565 C2571 1.390 . S
C2566 H2557 0.930 . S
C2566 C2564 1.384 . S
C2566 C2567 1.372 . S
C2567 C2566 1.372 . S
C2567 C2568 1.400 . S
C2567 C2572 1.490 . S
C2568 H2558 0.930 . S
C2568 C2567 1.400 . S
C2568 C2571 1.386 . S
H2569 C2585 0.930 . S
H2570 C2586 0.931 . S
C2571 H2559 0.929 . S
C2571 C2565 1.390 . S
C2571 C2568 1.386 . S
C2572 C2567 1.490 . S
C2572 C2574 1.395 . S
C2572 C2575 1.403 . S
H2573 C2579 0.930 . S
C2574 H2560 0.930 . S
C2574 C2572 1.395 . S
C2574 C2577 1.403 . S
C2575 C2572 1.403 . S
C2575 C2576 1.524 . S
C2575 C2579 1.400 . S
C2576 H2561 0.960 . S
C2576 H2562 0.960 . S
C2576 H2563 0.960 . S
C2576 C2575 1.524 . S
C2577 C2574 1.403 . S
C2577 C2578 1.392 . S
C2577 C2581 1.495 . S
C2578 C2577 1.392 . S
C2578 C2579 1.385 . S
C2578 C2580 1.478 . S
C2579 H2573 0.930 . S
C2579 C2575 1.400 . S
C2579 C2578 1.385 . S
C2580 C2578 1.478 . S
C2580 C2582 1.381 . S
C2580 C2586 1.383 . S
C2581 C2577 1.495 . S
C2581 H2587 0.959 . S
C2581 H2588 0.961 . S
C2581 H2589 0.960 . S
C2582 C2580 1.381 . S
C2582 C2583 1.394 . S
C2582 H2590 0.930 . S
C2583 C2582 1.394 . S
C2583 C2584 1.383 . S
C2583 H2591 0.929 . S
C2584 C2583 1.383 . S
C2584 C2585 1.377 . S
C2585 H2569 0.930 . S
C2585 C2584 1.377 . S
C2585 C2586 1.379 . S
C2586 H2570 0.931 . S
C2586 C2580 1.383 . S
C2586 C2585 1.379 . S
H2587 C2581 0.959 . S
H2588 C2581 0.961 . S
H2589 C2581 0.960 . S
H2590 C2582 0.930 . S
H2591 C2583 0.929 . S
H2592 C2600 0.929 . S
H2593 C2602 0.930 . S
H2594 C2604 0.930 . S
H2595 C2607 0.929 . S
H2596 C2610 0.930 . S
H2597 C2612 0.960 . S
H2598 C2612 0.960 . S
H2599 C2612 0.960 . S
C2600 H2592 0.929 . S
C2600 C2601 1.377 . S
C2600 C2602 1.384 . S
C2601 C2600 1.377 . S
C2601 C2607 1.390 . S
C2602 H2593 0.930 . S
C2602 C2600 1.384 . S
C2602 C2603 1.372 . S
C2603 C2602 1.372 . S
C2603 C2604 1.400 . S
C2603 C2608 1.490 . S
C2604 H2594 0.930 . S
C2604 C2603 1.400 . S
C2604 C2607 1.386 . S
H2605 C2621 0.930 . S
H2606 C2622 0.931 . S
C2607 H2595 0.929 . S
C2607 C2601 1.390 . S
C2607 C2604 1.386 . S
C2608 C2603 1.490 . S
C2608 C2610 1.395 . S
C2608 C2611 1.403 . S
H2609 C2615 0.930 . S
C2610 H2596 0.930 . S
C2610 C2608 1.395 . S
C2610 C2613 1.403 . S
C2611 C2608 1.403 . S
C2611 C2612 1.524 . S
C2611 C2615 1.400 . S
C2612 H2597 0.960 . S
C2612 H2598 0.960 . S
C2612 H2599 0.960 . S
C2612 C2611 1.524 . S
C2613 C2610 1.403 . S
C2613 C2614 1.392 . S
C2613 C2617 1.495 . S
C2614 C2613 1.392 . S
C2614 C2615 1.385 . S
C2614 C2616 1.478 . S
C2615 H2609 0.930 . S
C2615 C2611 1.400 . S
C2615 C2614 1.385 . S
C2616 C2614 1.478 . S
C2616 C2618 1.381 . S
C2616 C2622 1.383 . S
C2617 C2613 1.495 . S
C2617 H2623 0.959 . S
C2617 H2624 0.961 . S
C2617 H2625 0.960 . S
C2618 C2616 1.381 . S
C2618 C2619 1.394 . S
C2618 H2626 0.930 . S
C2619 C2618 1.394 . S
C2619 C2620 1.383 . S
C2619 H2627 0.929 . S
C2620 C2619 1.383 . S
C2620 C2621 1.377 . S
C2621 H2605 0.930 . S
C2621 C2620 1.377 . S
C2621 C2622 1.379 . S
C2622 H2606 0.931 . S
C2622 C2616 1.383 . S
C2622 C2621 1.379 . S
H2623 C2617 0.959 . S
H2624 C2617 0.961 . S
H2625 C2617 0.960 . S
H2626 C2618 0.930 . S
H2627 C2619 0.929 . S
H2628 C2636 0.929 . S
H2629 C2638 0.930 . S
H2630 C2640 0.930 . S
H2631 C2643 0.929 . S
H2632 C2646 0.930 . S
H2633 C2648 0.960 . S
H2634 C2648 0.960 . S
H2635 C2648 0.960 . S
C2636 H2628 0.929 . S
C2636 C2637 1.377 . S
C2636 C2638 1.384 . S
C2637 C2636 1.377 . S
C2637 C2643 1.390 . S
C2638 H2629 0.930 . S
C2638 C2636 1.384 . S
C2638 C2639 1.372 . S
C2639 C2638 1.372 . S
C2639 C2640 1.400 . S
C2639 C2644 1.490 . S
C2640 H2630 0.930 . S
C2640 C2639 1.400 . S
C2640 C2643 1.386 . S
H2641 C2657 0.930 . S
H2642 C2658 0.931 . S
C2643 H2631 0.929 . S
C2643 C2637 1.390 . S
C2643 C2640 1.386 . S
C2644 C2639 1.490 . S
C2644 C2646 1.395 . S
C2644 C2647 1.403 . S
H2645 C2651 0.930 . S
C2646 H2632 0.930 . S
C2646 C2644 1.395 . S
C2646 C2649 1.403 . S
C2647 C2644 1.403 . S
C2647 C2648 1.524 . S
C2647 C2651 1.400 . S
C2648 H2633 0.960 . S
C2648 H2634 0.960 . S
C2648 H2635 0.960 . S
C2648 C2647 1.524 . S
C2649 C2646 1.403 . S
C2649 C2650 1.392 . S
C2649 C2653 1.495 . S
C2650 C2649 1.392 . S
C2650 C2651 1.385 . S
C2650 C2652 1.478 . S
C2651 H2645 0.930 . S
C2651 C2647 1.400 . S
C2651 C2650 1.385 . S
C2652 C2650 1.478 . S
C2652 C2654 1.381 . S
C2652 C2658 1.383 . S
C2653 C2649 1.495 . S
C2653 H2659 0.959 . S
C2653 H2660 0.961 . S
C2653 H2661 0.960 . S
C2654 C2652 1.381 . S
C2654 C2655 1.394 . S
C2654 H2662 0.930 . S
C2655 C2654 1.394 . S
C2655 C2656 1.383 . S
C2655 H2663 0.929 . S
C2656 C2655 1.383 . S
C2656 C2657 1.377 . S
C2657 H2641 0.930 . S
C2657 C2656 1.377 . S
C2657 C2658 1.379 . S
C2658 H2642 0.931 . S
C2658 C2652 1.383 . S
C2658 C2657 1.379 . S
H2659 C2653 0.959 . S
H2660 C2653 0.961 . S
H2661 C2653 0.960 . S
H2662 C2654 0.930 . S
H2663 C2655 0.929 . S
H2664 C2672 0.929 . S
H2665 C2674 0.930 . S
H2666 C2676 0.930 . S
H2667 C2679 0.929 . S
H2668 C2682 0.930 . S
H2669 C2684 0.960 . S
H2670 C2684 0.960 . S
H2671 C2684 0.960 . S
C2672 H2664 0.929 . S
C2672 C2673 1.377 . S
C2672 C2674 1.384 . S
C2673 C2672 1.377 . S
C2673 C2679 1.390 . S
C2674 H2665 0.930 . S
C2674 C2672 1.384 . S
C2674 C2675 1.372 . S
C2675 C2674 1.372 . S
C2675 C2676 1.400 . S
C2675 C2680 1.490 . S
C2676 H2666 0.930 . S
C2676 C2675 1.400 . S
C2676 C2679 1.386 . S
H2677 C2693 0.930 . S
H2678 C2694 0.931 . S
C2679 H2667 0.929 . S
C2679 C2673 1.390 . S
C2679 C2676 1.386 . S
C2680 C2675 1.490 . S
C2680 C2682 1.395 . S
C2680 C2683 1.403 . S
H2681 C2687 0.930 . S
C2682 H2668 0.930 . S
C2682 C2680 1.395 . S
C2682 C2685 1.403 . S
C2683 C2680 1.403 . S
C2683 C2684 1.524 . S
C2683 C2687 1.400 . S
C2684 H2669 0.960 . S
C2684 H2670 0.960 . S
C2684 H2671 0.960 . S
C2684 C2683 1.524 . S
C2685 C2682 1.403 . S
C2685 C2686 1.392 . S
C2685 C2689 1.495 . S
C2686 C2685 1.392 . S
C2686 C2687 1.385 . S
C2686 C2688 1.478 . S
C2687 H2681 0.930 . S
C2687 C2683 1.400 . S
C2687 C2686 1.385 . S
C2688 C2686 1.478 . S
C2688 C2690 1.381 . S
C2688 C2694 1.383 . S
C2689 C2685 1.495 . S
C2689 H2695 0.959 . S
C2689 H2696 0.961 . S
C2689 H2697 0.960 . S
C2690 C2688 1.381 . S
C2690 C2691 1.394 . S
C2690 H2698 0.930 . S
C2691 C2690 1.394 . S
C2691 C2692 1.383 . S
C2691 H2699 0.929 . S
C2692 C2691 1.383 . S
C2692 C2693 1.377 . S
C2693 H2677 0.930 . S
C2693 C2692 1.377 . S
C2693 C2694 1.379 . S
C2694 H2678 0.931 . S
C2694 C2688 1.383 . S
C2694 C2693 1.379 . S
H2695 C2689 0.959 . S
H2696 C2689 0.961 . S
H2697 C2689 0.960 . S
H2698 C2690 0.930 . S
H2699 C2691 0.929 . S
H2700 C2708 0.929 . S
H2701 C2710 0.930 . S
H2702 C2712 0.930 . S
H2703 C2715 0.929 . S
H2704 C2718 0.930 . S
H2705 C2720 0.960 . S
H2706 C2720 0.960 . S
H2707 C2720 0.960 . S
C2708 H2700 0.929 . S
C2708 C2709 1.377 . S
C2708 C2710 1.384 . S
C2709 C2708 1.377 . S
C2709 C2715 1.390 . S
C2710 H2701 0.930 . S
C2710 C2708 1.384 . S
C2710 C2711 1.372 . S
C2711 C2710 1.372 . S
C2711 C2712 1.400 . S
C2711 C2716 1.490 . S
C2712 H2702 0.930 . S
C2712 C2711 1.400 . S
C2712 C2715 1.386 . S
H2713 C2729 0.930 . S
H2714 C2730 0.931 . S
C2715 H2703 0.929 . S
C2715 C2709 1.390 . S
C2715 C2712 1.386 . S
C2716 C2711 1.490 . S
C2716 C2718 1.395 . S
C2716 C2719 1.403 . S
H2717 C2723 0.930 . S
C2718 H2704 0.930 . S
C2718 C2716 1.395 . S
C2718 C2721 1.403 . S
C2719 C2716 1.403 . S
C2719 C2720 1.524 . S
C2719 C2723 1.400 . S
C2720 H2705 0.960 . S
C2720 H2706 0.960 . S
C2720 H2707 0.960 . S
C2720 C2719 1.524 . S
C2721 C2718 1.403 . S
C2721 C2722 1.392 . S
C2721 C2725 1.495 . S
C2722 C2721 1.392 . S
C2722 C2723 1.385 . S
C2722 C2724 1.478 . S
C2723 H2717 0.930 . S
C2723 C2719 1.400 . S
C2723 C2722 1.385 . S
C2724 C2722 1.478 . S
C2724 C2726 1.381 . S
C2724 C2730 1.383 . S
C2725 C2721 1.495 . S
C2725 H2731 0.959 . S
C2725 H2732 0.961 . S
C2725 H2733 0.960 . S
C2726 C2724 1.381 . S
C2726 C2727 1.394 . S
C2726 H2734 0.930 . S
C2727 C2726 1.394 . S
C2727 C2728 1.383 . S
C2727 H2735 0.929 . S
C2728 C2727 1.383 . S
C2728 C2729 1.377 . S
C2729 H2713 0.930 . S
C2729 C2728 1.377 . S
C2729 C2730 1.379 . S
C2730 H2714 0.931 . S
C2730 C2724 1.383 . S
C2730 C2729 1.379 . S
H2731 C2725 0.959 . S
H2732 C2725 0.961 . S
H2733 C2725 0.960 . S
H2734 C2726 0.930 . S
H2735 C2727 0.929 . S
H2736 C2744 0.929 . S
H2737 C2746 0.930 . S
H2738 C2748 0.930 . S
H2739 C2751 0.929 . S
H2740 C2754 0.930 . S
H2741 C2756 0.960 . S
H2742 C2756 0.960 . S
H2743 C2756 0.960 . S
C2744 H2736 0.929 . S
C2744 C2745 1.377 . S
C2744 C2746 1.384 . S
C2745 C2744 1.377 . S
C2745 C2751 1.390 . S
C2746 H2737 0.930 . S
C2746 C2744 1.384 . S
C2746 C2747 1.372 . S
C2747 C2746 1.372 . S
C2747 C2748 1.400 . S
C2747 C2752 1.490 . S
C2748 H2738 0.930 . S
C2748 C2747 1.400 . S
C2748 C2751 1.386 . S
H2749 C2765 0.930 . S
H2750 C2766 0.931 . S
C2751 H2739 0.929 . S
C2751 C2745 1.390 . S
C2751 C2748 1.386 . S
C2752 C2747 1.490 . S
C2752 C2754 1.395 . S
C2752 C2755 1.403 . S
H2753 C2759 0.930 . S
C2754 H2740 0.930 . S
C2754 C2752 1.395 . S
C2754 C2757 1.403 . S
C2755 C2752 1.403 . S
C2755 C2756 1.524 . S
C2755 C2759 1.400 . S
C2756 H2741 0.960 . S
C2756 H2742 0.960 . S
C2756 H2743 0.960 . S
C2756 C2755 1.524 . S
C2757 C2754 1.403 . S
C2757 C2758 1.392 . S
C2757 C2761 1.495 . S
C2758 C2757 1.392 . S
C2758 C2759 1.385 . S
C2758 C2760 1.478 . S
C2759 H2753 0.930 . S
C2759 C2755 1.400 . S
C2759 C2758 1.385 . S
C2760 C2758 1.478 . S
C2760 C2762 1.381 . S
C2760 C2766 1.383 . S
C2761 C2757 1.495 . S
C2761 H2767 0.959 . S
C2761 H2768 0.961 . S
C2761 H2769 0.960 . S
C2762 C2760 1.381 . S
C2762 C2763 1.394 . S
C2762 H2770 0.930 . S
C2763 C2762 1.394 . S
C2763 C2764 1.383 . S
C2763 H2771 0.929 . S
C2764 C2763 1.383 . S
C2764 C2765 1.377 . S
C2765 H2749 0.930 . S
C2765 C2764 1.377 . S
C2765 C2766 1.379 . S
C2766 H2750 0.931 . S
C2766 C2760 1.383 . S
C2766 C2765 1.379 . S
H2767 C2761 0.959 . S
H2768 C2761 0.961 . S
H2769 C2761 0.960 . S
H2770 C2762 0.930 . S
H2771 C2763 0.929 . S
H2772 C2780 0.929 . S
H2773 C2782 0.930 . S
H2774 C2784 0.930 . S
H2775 C2787 0.929 . S
H2776 C2790 0.930 . S
H2777 C2792 0.960 . S
H2778 C2792 0.960 . S
H2779 C2792 0.960 . S
C2780 H2772 0.929 . S
C2780 C2781 1.377 . S
C2780 C2782 1.384 . S
C2781 C2780 1.377 . S
C2781 C2787 1.390 . S
C2782 H2773 0.930 . S
C2782 C2780 1.384 . S
C2782 C2783 1.372 . S
C2783 C2782 1.372 . S
C2783 C2784 1.400 . S
C2783 C2788 1.490 . S
C2784 H2774 0.930 . S
C2784 C2783 1.400 . S
C2784 C2787 1.386 . S
H2785 C2801 0.930 . S
H2786 C2802 0.931 . S
C2787 H2775 0.929 . S
C2787 C2781 1.390 . S
C2787 C2784 1.386 . S
C2788 C2783 1.490 . S
C2788 C2790 1.395 . S
C2788 C2791 1.403 . S
H2789 C2795 0.930 . S
C2790 H2776 0.930 . S
C2790 C2788 1.395 . S
C2790 C2793 1.403 . S
C2791 C2788 1.403 . S
C2791 C2792 1.524 . S
C2791 C2795 1.400 . S
C2792 H2777 0.960 . S
C2792 H2778 0.960 . S
C2792 H2779 0.960 . S
C2792 C2791 1.524 . S
C2793 C2790 1.403 . S
C2793 C2794 1.392 . S
C2793 C2797 1.495 . S
C2794 C2793 1.392 . S
C2794 C2795 1.385 . S
C2794 C2796 1.478 . S
C2795 H2789 0.930 . S
C2795 C2791 1.400 . S
C2795 C2794 1.385 . S
C2796 C2794 1.478 . S
C2796 C2798 1.381 . S
C2796 C2802 1.383 . S
C2797 C2793 1.495 . S
C2797 H2803 0.959 . S
C2797 H2804 0.961 . S
C2797 H2805 0.960 . S
C2798 C2796 1.381 . S
C2798 C2799 1.394 . S
C2798 H2806 0.930 . S
C2799 C2798 1.394 . S
C2799 C2800 1.383 . S
C2799 H2807 0.929 . S
C2800 C2799 1.383 . S
C2800 C2801 1.377 . S
C2801 H2785 0.930 . S
C2801 C2800 1.377 . S
C2801 C2802 1.379 . S
C2802 H2786 0.931 . S
C2802 C2796 1.383 . S
C2802 C2801 1.379 . S
H2803 C2797 0.959 . S
H2804 C2797 0.961 . S
H2805 C2797 0.960 . S
H2806 C2798 0.930 . S
H2807 C2799 0.929 . S
H2808 C2816 0.929 . S
H2809 C2818 0.930 . S
H2810 C2820 0.930 . S
H2811 C2823 0.929 . S
H2812 C2826 0.930 . S
H2813 C2828 0.960 . S
H2814 C2828 0.960 . S
H2815 C2828 0.960 . S
C2816 H2808 0.929 . S
C2816 C2817 1.377 . S
C2816 C2818 1.384 . S
C2817 C2816 1.377 . S
C2817 C2823 1.390 . S
C2818 H2809 0.930 . S
C2818 C2816 1.384 . S
C2818 C2819 1.372 . S
C2819 C2818 1.372 . S
C2819 C2820 1.400 . S
C2819 C2824 1.490 . S
C2820 H2810 0.930 . S
C2820 C2819 1.400 . S
C2820 C2823 1.386 . S
H2821 C2837 0.930 . S
H2822 C2838 0.931 . S
C2823 H2811 0.929 . S
C2823 C2817 1.390 . S
C2823 C2820 1.386 . S
C2824 C2819 1.490 . S
C2824 C2826 1.395 . S
C2824 C2827 1.403 . S
H2825 C2831 0.930 . S
C2826 H2812 0.930 . S
C2826 C2824 1.395 . S
C2826 C2829 1.403 . S
C2827 C2824 1.403 . S
C2827 C2828 1.524 . S
C2827 C2831 1.400 . S
C2828 H2813 0.960 . S
C2828 H2814 0.960 . S
C2828 H2815 0.960 . S
C2828 C2827 1.524 . S
C2829 C2826 1.403 . S
C2829 C2830 1.392 . S
C2829 C2833 1.495 . S
C2830 C2829 1.392 . S
C2830 C2831 1.385 . S
C2830 C2832 1.478 . S
C2831 H2825 0.930 . S
C2831 C2827 1.400 . S
C2831 C2830 1.385 . S
C2832 C2830 1.478 . S
C2832 C2834 1.381 . S
C2832 C2838 1.383 . S
C2833 C2829 1.495 . S
C2833 H2839 0.959 . S
C2833 H2840 0.961 . S
C2833 H2841 0.960 . S
C2834 C2832 1.381 . S
C2834 C2835 1.394 . S
C2834 H2842 0.930 . S
C2835 C2834 1.394 . S
C2835 C2836 1.383 . S
C2835 H2843 0.929 . S
C2836 C2835 1.383 . S
C2836 C2837 1.377 . S
C2837 H2821 0.930 . S
C2837 C2836 1.377 . S
C2837 C2838 1.379 . S
C2838 H2822 0.931 . S
C2838 C2832 1.383 . S
C2838 C2837 1.379 . S
H2839 C2833 0.959 . S
H2840 C2833 0.961 . S
H2841 C2833 0.960 . S
H2842 C2834 0.930 . S
H2843 C2835 0.929 . S
H2844 C2852 0.929 . S
H2845 C2854 0.930 . S
H2846 C2856 0.930 . S
H2847 C2859 0.929 . S
H2848 C2862 0.930 . S
H2849 C2864 0.960 . S
H2850 C2864 0.960 . S
H2851 C2864 0.960 . S
C2852 H2844 0.929 . S
C2852 C2853 1.377 . S
C2852 C2854 1.384 . S
C2853 C2852 1.377 . S
C2853 C2859 1.390 . S
C2854 H2845 0.930 . S
C2854 C2852 1.384 . S
C2854 C2855 1.372 . S
C2855 C2854 1.372 . S
C2855 C2856 1.400 . S
C2855 C2860 1.490 . S
C2856 H2846 0.930 . S
C2856 C2855 1.400 . S
C2856 C2859 1.386 . S
H2857 C2873 0.930 . S
H2858 C2874 0.931 . S
C2859 H2847 0.929 . S
C2859 C2853 1.390 . S
C2859 C2856 1.386 . S
C2860 C2855 1.490 . S
C2860 C2862 1.395 . S
C2860 C2863 1.403 . S
H2861 C2867 0.930 . S
C2862 H2848 0.930 . S
C2862 C2860 1.395 . S
C2862 C2865 1.403 . S
C2863 C2860 1.403 . S
C2863 C2864 1.524 . S
C2863 C2867 1.400 . S
C2864 H2849 0.960 . S
C2864 H2850 0.960 . S
C2864 H2851 0.960 . S
C2864 C2863 1.524 . S
C2865 C2862 1.403 . S
C2865 C2866 1.392 . S
C2865 C2869 1.495 . S
C2866 C2865 1.392 . S
C2866 C2867 1.385 . S
C2866 C2868 1.478 . S
C2867 H2861 0.930 . S
C2867 C2863 1.400 . S
C2867 C2866 1.385 . S
C2868 C2866 1.478 . S
C2868 C2870 1.381 . S
C2868 C2874 1.383 . S
C2869 C2865 1.495 . S
C2869 H2875 0.959 . S
C2869 H2876 0.961 . S
C2869 H2877 0.960 . S
C2870 C2868 1.381 . S
C2870 C2871 1.394 . S
C2870 H2878 0.930 . S
C2871 C2870 1.394 . S
C2871 C2872 1.383 . S
C2871 H2879 0.929 . S
C2872 C2871 1.383 . S
C2872 C2873 1.377 . S
C2873 H2857 0.930 . S
C2873 C2872 1.377 . S
C2873 C2874 1.379 . S
C2874 H2858 0.931 . S
C2874 C2868 1.383 . S
C2874 C2873 1.379 . S
H2875 C2869 0.959 . S
H2876 C2869 0.961 . S
H2877 C2869 0.960 . S
H2878 C2870 0.930 . S
H2879 C2871 0.929 . S
H2880 C2888 0.929 . S
H2881 C2890 0.930 . S
H2882 C2892 0.930 . S
H2883 C2895 0.929 . S
H2884 C2898 0.930 . S
H2885 C2900 0.960 . S
H2886 C2900 0.960 . S
H2887 C2900 0.960 . S
C2888 H2880 0.929 . S
C2888 C2889 1.377 . S
C2888 C2890 1.384 . S
C2889 C2888 1.377 . S
C2889 C2895 1.390 . S
C2890 H2881 0.930 . S
C2890 C2888 1.384 . S
C2890 C2891 1.372 . S
C2891 C2890 1.372 . S
C2891 C2892 1.400 . S
C2891 C2896 1.490 . S
C2892 H2882 0.930 . S
C2892 C2891 1.400 . S
C2892 C2895 1.386 . S
H2893 C2909 0.930 . S
H2894 C2910 0.931 . S
C2895 H2883 0.929 . S
C2895 C2889 1.390 . S
C2895 C2892 1.386 . S
C2896 C2891 1.490 . S
C2896 C2898 1.395 . S
C2896 C2899 1.403 . S
H2897 C2903 0.930 . S
C2898 H2884 0.930 . S
C2898 C2896 1.395 . S
C2898 C2901 1.403 . S
C2899 C2896 1.403 . S
C2899 C2900 1.524 . S
C2899 C2903 1.400 . S
C2900 H2885 0.960 . S
C2900 H2886 0.960 . S
C2900 H2887 0.960 . S
C2900 C2899 1.524 . S
C2901 C2898 1.403 . S
C2901 C2902 1.392 . S
C2901 C2905 1.495 . S
C2902 C2901 1.392 . S
C2902 C2903 1.385 . S
C2902 C2904 1.478 . S
C2903 H2897 0.930 . S
C2903 C2899 1.400 . S
C2903 C2902 1.385 . S
C2904 C2902 1.478 . S
C2904 C2906 1.381 . S
C2904 C2910 1.383 . S
C2905 C2901 1.495 . S
C2905 H2911 0.959 . S
C2905 H2912 0.961 . S
C2905 H2913 0.960 . S
C2906 C2904 1.381 . S
C2906 C2907 1.394 . S
C2906 H2914 0.930 . S
C2907 C2906 1.394 . S
C2907 C2908 1.383 . S
C2907 H2915 0.929 . S
C2908 C2907 1.383 . S
C2908 C2909 1.377 . S
C2909 H2893 0.930 . S
C2909 C2908 1.377 . S
C2909 C2910 1.379 . S
C2910 H2894 0.931 . S
C2910 C2904 1.383 . S
C2910 C2909 1.379 . S
H2911 C2905 0.959 . S
H2912 C2905 0.961 . S
H2913 C2905 0.960 . S
H2914 C2906 0.930 . S
H2915 C2907 0.929 . S
H2916 C2924 0.929 . S
H2917 C2926 0.930 . S
H2918 C2928 0.930 . S
H2919 C2931 0.929 . S
H2920 C2934 0.930 . S
H2921 C2936 0.960 . S
H2922 C2936 0.960 . S
H2923 C2936 0.960 . S
C2924 H2916 0.929 . S
C2924 C2925 1.377 . S
C2924 C2926 1.384 . S
C2925 C2924 1.377 . S
C2925 C2931 1.390 . S
C2926 H2917 0.930 . S
C2926 C2924 1.384 . S
C2926 C2927 1.372 . S
C2927 C2926 1.372 . S
C2927 C2928 1.400 . S
C2927 C2932 1.490 . S
C2928 H2918 0.930 . S
C2928 C2927 1.400 . S
C2928 C2931 1.386 . S
H2929 C2945 0.930 . S
H2930 C2946 0.931 . S
C2931 H2919 0.929 . S
C2931 C2925 1.390 . S
C2931 C2928 1.386 . S
C2932 C2927 1.490 . S
C2932 C2934 1.395 . S
C2932 C2935 1.403 . S
H2933 C2939 0.930 . S
C2934 H2920 0.930 . S
C2934 C2932 1.395 . S
C2934 C2937 1.403 . S
C2935 C2932 1.403 . S
C2935 C2936 1.524 . S
C2935 C2939 1.400 . S
C2936 H2921 0.960 . S
C2936 H2922 0.960 . S
C2936 H2923 0.960 . S
C2936 C2935 1.524 . S
C2937 C2934 1.403 . S
C2937 C2938 1.392 . S
C2937 C2941 1.495 . S
C2938 C2937 1.392 . S
C2938 C2939 1.385 . S
C2938 C2940 1.478 . S
C2939 H2933 0.930 . S
C2939 C2935 1.400 . S
C2939 C2938 1.385 . S
C2940 C2938 1.478 . S
C2940 C2942 1.381 . S
C2940 C2946 1.383 . S
C2941 C2937 1.495 . S
C2941 H2947 0.959 . S
C2941 H2948 0.961 . S
C2941 H2949 0.960 . S
C2942 C2940 1.381 . S
C2942 C2943 1.394 . S
C2942 H2950 0.930 . S
C2943 C2942 1.394 . S
C2943 C2944 1.383 . S
C2943 H2951 0.929 . S
C2944 C2943 1.383 . S
C2944 C2945 1.377 . S
C2945 H2929 0.930 . S
C2945 C2944 1.377 . S
C2945 C2946 1.379 . S
C2946 H2930 0.931 . S
C2946 C2940 1.383 . S
C2946 C2945 1.379 . S
H2947 C2941 0.959 . S
H2948 C2941 0.961 . S
H2949 C2941 0.960 . S
H2950 C2942 0.930 . S
H2951 C2943 0.929 . S
H2952 C2960 0.929 . S
H2953 C2962 0.930 . S
H2954 C2964 0.930 . S
H2955 C2967 0.929 . S
H2956 C2970 0.930 . S
H2957 C2972 0.960 . S
H2958 C2972 0.960 . S
H2959 C2972 0.960 . S
C2960 H2952 0.929 . S
C2960 C2961 1.377 . S
C2960 C2962 1.384 . S
C2961 C2960 1.377 . S
C2961 C2967 1.390 . S
C2962 H2953 0.930 . S
C2962 C2960 1.384 . S
C2962 C2963 1.372 . S
C2963 C2962 1.372 . S
C2963 C2964 1.400 . S
C2963 C2968 1.490 . S
C2964 H2954 0.930 . S
C2964 C2963 1.400 . S
C2964 C2967 1.386 . S
H2965 C2981 0.930 . S
H2966 C2982 0.931 . S
C2967 H2955 0.929 . S
C2967 C2961 1.390 . S
C2967 C2964 1.386 . S
C2968 C2963 1.490 . S
C2968 C2970 1.395 . S
C2968 C2971 1.403 . S
H2969 C2975 0.930 . S
C2970 H2956 0.930 . S
C2970 C2968 1.395 . S
C2970 C2973 1.403 . S
C2971 C2968 1.403 . S
C2971 C2972 1.524 . S
C2971 C2975 1.400 . S
C2972 H2957 0.960 . S
C2972 H2958 0.960 . S
C2972 H2959 0.960 . S
C2972 C2971 1.524 . S
C2973 C2970 1.403 . S
C2973 C2974 1.392 . S
C2973 C2977 1.495 . S
C2974 C2973 1.392 . S
C2974 C2975 1.385 . S
C2974 C2976 1.478 . S
C2975 H2969 0.930 . S
C2975 C2971 1.400 . S
C2975 C2974 1.385 . S
C2976 C2974 1.478 . S
C2976 C2978 1.381 . S
C2976 C2982 1.383 . S
C2977 C2973 1.495 . S
C2977 H2983 0.959 . S
C2977 H2984 0.961 . S
C2977 H2985 0.960 . S
C2978 C2976 1.381 . S
C2978 C2979 1.394 . S
C2978 H2986 0.930 . S
C2979 C2978 1.394 . S
C2979 C2980 1.383 . S
C2979 H2987 0.929 . S
C2980 C2979 1.383 . S
C2980 C2981 1.377 . S
C2981 H2965 0.930 . S
C2981 C2980 1.377 . S
C2981 C2982 1.379 . S
C2982 H2966 0.931 . S
C2982 C2976 1.383 . S
C2982 C2981 1.379 . S
H2983 C2977 0.959 . S
H2984 C2977 0.961 . S
H2985 C2977 0.960 . S
H2986 C2978 0.930 . S
H2987 C2979 0.929 . S
H2988 C2996 0.929 . S
H2989 C2998 0.930 . S
H2990 C3000 0.930 . S
H2991 C3003 0.929 . S
H2992 C3006 0.930 . S
H2993 C3008 0.960 . S
H2994 C3008 0.960 . S
H2995 C3008 0.960 . S
C2996 H2988 0.929 . S
C2996 C2997 1.377 . S
C2996 C2998 1.384 . S
C2997 C2996 1.377 . S
C2997 C3003 1.390 . S
C2998 H2989 0.930 . S
C2998 C2996 1.384 . S
C2998 C2999 1.372 . S
C2999 C2998 1.372 . S
C2999 C3000 1.400 . S
C2999 C3004 1.490 . S
C3000 H2990 0.930 . S
C3000 C2999 1.400 . S
C3000 C3003 1.386 . S
H3001 C3017 0.930 . S
H3002 C3018 0.931 . S
C3003 H2991 0.929 . S
C3003 C2997 1.390 . S
C3003 C3000 1.386 . S
C3004 C2999 1.490 . S
C3004 C3006 1.395 . S
C3004 C3007 1.403 . S
H3005 C3011 0.930 . S
C3006 H2992 0.930 . S
C3006 C3004 1.395 . S
C3006 C3009 1.403 . S
C3007 C3004 1.403 . S
C3007 C3008 1.524 . S
C3007 C3011 1.400 . S
C3008 H2993 0.960 . S
C3008 H2994 0.960 . S
C3008 H2995 0.960 . S
C3008 C3007 1.524 . S
C3009 C3006 1.403 . S
C3009 C3010 1.392 . S
C3009 C3013 1.495 . S
C3010 C3009 1.392 . S
C3010 C3011 1.385 . S
C3010 C3012 1.478 . S
C3011 H3005 0.930 . S
C3011 C3007 1.400 . S
C3011 C3010 1.385 . S
C3012 C3010 1.478 . S
C3012 C3014 1.381 . S
C3012 C3018 1.383 . S
C3013 C3009 1.495 . S
C3013 H3019 0.959 . S
C3013 H3020 0.961 . S
C3013 H3021 0.960 . S
C3014 C3012 1.381 . S
C3014 C3015 1.394 . S
C3014 H3022 0.930 . S
C3015 C3014 1.394 . S
C3015 C3016 1.383 . S
C3015 H3023 0.929 . S
C3016 C3015 1.383 . S
C3016 C3017 1.377 . S
C3017 H3001 0.930 . S
C3017 C3016 1.377 . S
C3017 C3018 1.379 . S
C3018 H3002 0.931 . S
C3018 C3012 1.383 . S
C3018 C3017 1.379 . S
H3019 C3013 0.959 . S
H3020 C3013 0.961 . S
H3021 C3013 0.960 . S
H3022 C3014 0.930 . S
H3023 C3015 0.929 . S
H3024 C3032 0.929 . S
H3025 C3034 0.930 . S
H3026 C3036 0.930 . S
H3027 C3039 0.929 . S
H3028 C3042 0.930 . S
H3029 C3044 0.960 . S
H3030 C3044 0.960 . S
H3031 C3044 0.960 . S
C3032 H3024 0.929 . S
C3032 C3033 1.377 . S
C3032 C3034 1.384 . S
C3033 C3032 1.377 . S
C3033 C3039 1.390 . S
C3034 H3025 0.930 . S
C3034 C3032 1.384 . S
C3034 C3035 1.372 . S
C3035 C3034 1.372 . S
C3035 C3036 1.400 . S
C3035 C3040 1.490 . S
C3036 H3026 0.930 . S
C3036 C3035 1.400 . S
C3036 C3039 1.386 . S
H3037 C3053 0.930 . S
H3038 C3054 0.931 . S
C3039 H3027 0.929 . S
C3039 C3033 1.390 . S
C3039 C3036 1.386 . S
C3040 C3035 1.490 . S
C3040 C3042 1.395 . S
C3040 C3043 1.403 . S
H3041 C3047 0.930 . S
C3042 H3028 0.930 . S
C3042 C3040 1.395 . S
C3042 C3045 1.403 . S
C3043 C3040 1.403 . S
C3043 C3044 1.524 . S
C3043 C3047 1.400 . S
C3044 H3029 0.960 . S
C3044 H3030 0.960 . S
C3044 H3031 0.960 . S
C3044 C3043 1.524 . S
C3045 C3042 1.403 . S
C3045 C3046 1.392 . S
C3045 C3049 1.495 . S
C3046 C3045 1.392 . S
C3046 C3047 1.385 . S
C3046 C3048 1.478 . S
C3047 H3041 0.930 . S
C3047 C3043 1.400 . S
C3047 C3046 1.385 . S
C3048 C3046 1.478 . S
C3048 C3050 1.381 . S
C3048 C3054 1.383 . S
C3049 C3045 1.495 . S
C3049 H3055 0.959 . S
C3049 H3056 0.961 . S
C3049 H3057 0.960 . S
C3050 C3048 1.381 . S
C3050 C3051 1.394 . S
C3050 H3058 0.930 . S
C3051 C3050 1.394 . S
C3051 C3052 1.383 . S
C3051 H3059 0.929 . S
C3052 C3051 1.383 . S
C3052 C3053 1.377 . S
C3053 H3037 0.930 . S
C3053 C3052 1.377 . S
C3053 C3054 1.379 . S
C3054 H3038 0.931 . S
C3054 C3048 1.383 . S
C3054 C3053 1.379 . S
H3055 C3049 0.959 . S
H3056 C3049 0.961 . S
H3057 C3049 0.960 . S
H3058 C3050 0.930 . S
H3059 C3051 0.929 . S
H3060 C3068 0.929 . S
H3061 C3070 0.930 . S
H3062 C3072 0.930 . S
H3063 C3075 0.929 . S
H3064 C3078 0.930 . S
H3065 C3080 0.960 . S
H3066 C3080 0.960 . S
H3067 C3080 0.960 . S
C3068 H3060 0.929 . S
C3068 C3069 1.377 . S
C3068 C3070 1.384 . S
C3069 C3068 1.377 . S
C3069 C3075 1.390 . S
C3070 H3061 0.930 . S
C3070 C3068 1.384 . S
C3070 C3071 1.372 . S
C3071 C3070 1.372 . S
C3071 C3072 1.400 . S
C3071 C3076 1.490 . S
C3072 H3062 0.930 . S
C3072 C3071 1.400 . S
C3072 C3075 1.386 . S
H3073 C3089 0.930 . S
H3074 C3090 0.931 . S
C3075 H3063 0.929 . S
C3075 C3069 1.390 . S
C3075 C3072 1.386 . S
C3076 C3071 1.490 . S
C3076 C3078 1.395 . S
C3076 C3079 1.403 . S
H3077 C3083 0.930 . S
C3078 H3064 0.930 . S
C3078 C3076 1.395 . S
C3078 C3081 1.403 . S
C3079 C3076 1.403 . S
C3079 C3080 1.524 . S
C3079 C3083 1.400 . S
C3080 H3065 0.960 . S
C3080 H3066 0.960 . S
C3080 H3067 0.960 . S
C3080 C3079 1.524 . S
C3081 C3078 1.403 . S
C3081 C3082 1.392 . S
C3081 C3085 1.495 . S
C3082 C3081 1.392 . S
C3082 C3083 1.385 . S
C3082 C3084 1.478 . S
C3083 H3077 0.930 . S
C3083 C3079 1.400 . S
C3083 C3082 1.385 . S
C3084 C3082 1.478 . S
C3084 C3086 1.381 . S
C3084 C3090 1.383 . S
C3085 C3081 1.495 . S
C3085 H3091 0.959 . S
C3085 H3092 0.961 . S
C3085 H3093 0.960 . S
C3086 C3084 1.381 . S
C3086 C3087 1.394 . S
C3086 H3094 0.930 . S
C3087 C3086 1.394 . S
C3087 C3088 1.383 . S
C3087 H3095 0.929 . S
C3088 C3087 1.383 . S
C3088 C3089 1.377 . S
C3089 H3073 0.930 . S
C3089 C3088 1.377 . S
C3089 C3090 1.379 . S
C3090 H3074 0.931 . S
C3090 C3084 1.383 . S
C3090 C3089 1.379 . S
H3091 C3085 0.959 . S
H3092 C3085 0.961 . S
H3093 C3085 0.960 . S
H3094 C3086 0.930 . S
H3095 C3087 0.929 . S
C513 C7 1.443 . S
C532 C259 1.460 . S
C549 C273 1.438 . S
C568 C21 1.421 . S
C585 C287 1.446 . S
C604 C35 1.456 . S
C621 C49 1.447 . S
C640 C469 1.453 . S
C657 C63 1.444 . S
C676 C483 1.425 . S
C693 C77 1.446 . S
C712 C497 1.444 . S
C729 C343 1.444 . S
C748 C91 1.461 . S
C765 C105 1.439 . S
C784 C357 1.418 . S
C801 C119 1.444 . S
C820 C371 1.461 . S
C837 C217 1.447 . S
C856 C133 1.443 . S
C873 C231 1.440 . S
C892 C147 1.417 . S
C909 C245 1.446 . S
C928 C161 1.453 . S
C945 C427 1.446 . S
C964 C175 1.455 . S
C981 C441 1.439 . S
C1000 C189 1.418 . S
C1017 C203 1.439 . S
C1036 C455 1.418 . S
C1053 C385 1.442 . S
C1072 C301 1.419 . S
C1089 C315 1.440 . S
C1108 C399 1.417 . S
C1125 C329 1.444 . S
C1144 C413 1.425 . S
C1161 C6 1.438 1_565 S
C1180 C384 1.432 . S
C1197 C398 1.447 . S
C1216 C20 1.428 1_455 S
C1233 C412 1.451 . S
C1252 C34 1.437 . S
C1269 C174 1.447 . S
C1288 C48 1.430 1_655 S
C1305 C188 1.444 . S
C1324 C62 1.453 . S
C1341 C202 1.448 . S
C1360 C76 1.458 1_545 S
C1377 C90 1.411 1_545 S
C1396 C300 1.429 . S
C1413 C314 1.451 . S
C1432 C104 1.457 . S
C1449 C328 1.448 . S
C1468 C118 1.442 . S
C1485 C132 1.441 1_455 S
C1504 C426 1.454 . S
C1521 C146 1.450 . S
C1540 C440 1.452 . S
C1557 C160 1.449 1_565 S
C1576 C454 1.456 . S
C1593 C216 1.451 . S
C1612 C342 1.443 . S
C1629 C230 1.450 . S
C1648 C356 1.451 . S
C1665 C244 1.451 . S
C1684 C370 1.441 . S
C1701 C258 1.445 . S
C1720 C468 1.439 . S
C1737 C482 1.446 . S
C1756 C272 1.432 . S
C1773 C286 1.446 . S
C1792 C496 1.432 . S
C1809 C22 1.075 . S
C1828 C9 1.095 . S
C1845 C23 1.080 . S
C1864 C36 1.071 . S
C1881 C37 1.066 . S
C1900 C8 1.089 . S
C1917 C51 1.078 . S
C1936 C78 1.055 . S
C1953 C50 1.086 . S
C1972 C65 1.077 . S
C1989 C79 1.080 . S
C2008 C64 1.068 . S
C2025 C93 1.078 . S
C2044 C106 1.099 . S
C2061 C107 1.080 . S
C2080 C120 1.107 . S
C2097 C121 1.075 . S
C2116 C92 1.084 . S
C2133 C162 1.080 . S
C2152 C135 1.062 . S
C2169 C149 1.073 . S
C2188 C134 1.084 . S
C2205 C148 1.087 . S
C2224 C163 1.103 . S
C2241 C190 1.085 . S
C2260 C177 1.084 . S
C2277 C204 1.075 . S
C2296 C191 1.091 . S
C2313 C176 1.075 . S
C2332 C205 1.087 . S
C2349 C219 1.069 . S
C2368 C246 1.062 . S
C2385 C233 1.070 . S
C2404 C218 1.059 . S
C2421 C247 1.079 . S
C2440 C232 1.059 . S
C2457 C274 1.081 . S
C2476 C261 1.063 . S
C2493 C275 1.079 . S
C2512 C288 1.102 . S
C2529 C289 1.071 . S
C2548 C260 1.069 . S
C2565 C303 1.067 . S
C2584 C330 1.057 . S
C2601 C317 1.079 . S
C2620 C302 1.103 . S
C2637 C316 1.086 . S
C2656 C331 1.096 . S
C2673 C358 1.085 . S
C2692 C345 1.084 . S
C2709 C359 1.079 . S
C2728 C372 1.085 . S
C2745 C344 1.076 . S
C2764 C373 1.070 . S
C2781 C387 1.074 . S
C2800 C414 1.104 . S
C2817 C401 1.080 . S
C2836 C386 1.074 . S
C2853 C415 1.075 . S
C2872 C400 1.100 . S
C2889 C429 1.079 . S
C2908 C442 1.102 . S
C2925 C443 1.077 . S
C2944 C456 1.091 . S
C2961 C457 1.068 . S
C2980 C428 1.064 . S
C2997 C471 1.067 . S
C3016 C498 1.060 . S
C3033 C485 1.067 . S
C3052 C470 1.061 . S
C3069 C484 1.077 . S
C3088 C499 1.051 . S
