# Generated by pormake.
# Topology ukm, (4)-cn, num edge types: 1
# Building blocks:
#     Node 0, Type 0, BuildingBlock: QUQFOY_clean_sbu_1, # of connection points: 4
#     Node 1, Type 0, BuildingBlock: QUQFOY_clean_sbu_1, # of connection points: 4
#     Node 2, Type 0, BuildingBlock: QUQFOY_clean_sbu_1, # of connection points: 4
#     Node 3, Type 0, BuildingBlock: QUQFOY_clean_sbu_1, # of connection points: 4
#     Node 4, Type 0, BuildingBlock: QUQFOY_clean_sbu_1, # of connection points: 4
#     Node 5, Type 0, BuildingBlock: QUQFOY_clean_sbu_1, # of connection points: 4
#     Node 6, Type 0, BuildingBlock: QUQFOY_clean_sbu_1, # of connection points: 4
#     Node 7, Type 0, BuildingBlock: QUQFOY_clean_sbu_1, # of connection points: 4
#     Node 8, Type 0, BuildingBlock: QUQFOY_clean_sbu_1, # of connection points: 4
#     Node 9, Type 0, BuildingBlock: QUQFOY_clean_sbu_1, # of connection points: 4
#     Node 10, Type 0, BuildingBlock: QUQFOY_clean_sbu_1, # of connection points: 4
#     Node 11, Type 0, BuildingBlock: QUQFOY_clean_sbu_1, # of connection points: 4
#     Node 12, Type 0, BuildingBlock: QUQFOY_clean_sbu_1, # of connection points: 4
#     Node 13, Type 0, BuildingBlock: QUQFOY_clean_sbu_1, # of connection points: 4
#     Node 14, Type 0, BuildingBlock: QUQFOY_clean_sbu_1, # of connection points: 4
#     Node 15, Type 0, BuildingBlock: QUQFOY_clean_sbu_1, # of connection points: 4
#     Node 16, Type 0, BuildingBlock: QUQFOY_clean_sbu_1, # of connection points: 4
#     Node 17, Type 0, BuildingBlock: QUQFOY_clean_sbu_1, # of connection points: 4
#     Node 18, Type 0, BuildingBlock: QUQFOY_clean_sbu_1, # of connection points: 4
#     Node 19, Type 0, BuildingBlock: QUQFOY_clean_sbu_1, # of connection points: 4
#     Node 20, Type 0, BuildingBlock: QUQFOY_clean_sbu_1, # of connection points: 4
#     Node 21, Type 0, BuildingBlock: QUQFOY_clean_sbu_1, # of connection points: 4
#     Node 22, Type 0, BuildingBlock: QUQFOY_clean_sbu_1, # of connection points: 4
#     Node 23, Type 0, BuildingBlock: QUQFOY_clean_sbu_1, # of connection points: 4
#     Node 24, Type 0, BuildingBlock: QUQFOY_clean_sbu_1, # of connection points: 4
#     Node 25, Type 0, BuildingBlock: QUQFOY_clean_sbu_1, # of connection points: 4
#     Node 26, Type 0, BuildingBlock: QUQFOY_clean_sbu_1, # of connection points: 4
#     Node 27, Type 0, BuildingBlock: QUQFOY_clean_sbu_1, # of connection points: 4
#     Node 28, Type 0, BuildingBlock: QUQFOY_clean_sbu_1, # of connection points: 4
#     Node 29, Type 0, BuildingBlock: QUQFOY_clean_sbu_1, # of connection points: 4
#     Node 30, Type 0, BuildingBlock: QUQFOY_clean_sbu_1, # of connection points: 4
#     Node 31, Type 0, BuildingBlock: QUQFOY_clean_sbu_1, # of connection points: 4
#     Edge 32, Type (0, 0), BuildingBlock: UVAHIK_clean_linker_0, # of connection points: 2
#     Edge 33, Type (0, 0), BuildingBlock: UVAHIK_clean_linker_0, # of connection points: 2
#     Edge 34, Type (0, 0), BuildingBlock: UVAHIK_clean_linker_0, # of connection points: 2
#     Edge 35, Type (0, 0), BuildingBlock: UVAHIK_clean_linker_0, # of connection points: 2
#     Edge 36, Type (0, 0), BuildingBlock: UVAHIK_clean_linker_0, # of connection points: 2
#     Edge 37, Type (0, 0), BuildingBlock: UVAHIK_clean_linker_0, # of connection points: 2
#     Edge 38, Type (0, 0), BuildingBlock: UVAHIK_clean_linker_0, # of connection points: 2
#     Edge 39, Type (0, 0), BuildingBlock: UVAHIK_clean_linker_0, # of connection points: 2
#     Edge 40, Type (0, 0), BuildingBlock: UVAHIK_clean_linker_0, # of connection points: 2
#     Edge 41, Type (0, 0), BuildingBlock: UVAHIK_clean_linker_0, # of connection points: 2
#     Edge 42, Type (0, 0), BuildingBlock: UVAHIK_clean_linker_0, # of connection points: 2
#     Edge 43, Type (0, 0), BuildingBlock: UVAHIK_clean_linker_0, # of connection points: 2
#     Edge 44, Type (0, 0), BuildingBlock: UVAHIK_clean_linker_0, # of connection points: 2
#     Edge 45, Type (0, 0), BuildingBlock: UVAHIK_clean_linker_0, # of connection points: 2
#     Edge 46, Type (0, 0), BuildingBlock: UVAHIK_clean_linker_0, # of connection points: 2
#     Edge 47, Type (0, 0), BuildingBlock: UVAHIK_clean_linker_0, # of connection points: 2
#     Edge 48, Type (0, 0), BuildingBlock: UVAHIK_clean_linker_0, # of connection points: 2
#     Edge 49, Type (0, 0), BuildingBlock: UVAHIK_clean_linker_0, # of connection points: 2
#     Edge 50, Type (0, 0), BuildingBlock: UVAHIK_clean_linker_0, # of connection points: 2
#     Edge 51, Type (0, 0), BuildingBlock: UVAHIK_clean_linker_0, # of connection points: 2
#     Edge 52, Type (0, 0), BuildingBlock: UVAHIK_clean_linker_0, # of connection points: 2
#     Edge 53, Type (0, 0), BuildingBlock: UVAHIK_clean_linker_0, # of connection points: 2
#     Edge 54, Type (0, 0), BuildingBlock: UVAHIK_clean_linker_0, # of connection points: 2
#     Edge 55, Type (0, 0), BuildingBlock: UVAHIK_clean_linker_0, # of connection points: 2
#     Edge 56, Type (0, 0), BuildingBlock: UVAHIK_clean_linker_0, # of connection points: 2
#     Edge 57, Type (0, 0), BuildingBlock: UVAHIK_clean_linker_0, # of connection points: 2
#     Edge 58, Type (0, 0), BuildingBlock: UVAHIK_clean_linker_0, # of connection points: 2
#     Edge 59, Type (0, 0), BuildingBlock: UVAHIK_clean_linker_0, # of connection points: 2
#     Edge 60, Type (0, 0), BuildingBlock: UVAHIK_clean_linker_0, # of connection points: 2
#     Edge 61, Type (0, 0), BuildingBlock: UVAHIK_clean_linker_0, # of connection points: 2
#     Edge 62, Type (0, 0), BuildingBlock: UVAHIK_clean_linker_0, # of connection points: 2
#     Edge 63, Type (0, 0), BuildingBlock: UVAHIK_clean_linker_0, # of connection points: 2
#     Edge 64, Type (0, 0), BuildingBlock: UVAHIK_clean_linker_0, # of connection points: 2
#     Edge 65, Type (0, 0), BuildingBlock: UVAHIK_clean_linker_0, # of connection points: 2
#     Edge 66, Type (0, 0), BuildingBlock: UVAHIK_clean_linker_0, # of connection points: 2
#     Edge 67, Type (0, 0), BuildingBlock: UVAHIK_clean_linker_0, # of connection points: 2
#     Edge 68, Type (0, 0), BuildingBlock: UVAHIK_clean_linker_0, # of connection points: 2
#     Edge 69, Type (0, 0), BuildingBlock: UVAHIK_clean_linker_0, # of connection points: 2
#     Edge 70, Type (0, 0), BuildingBlock: UVAHIK_clean_linker_0, # of connection points: 2
#     Edge 71, Type (0, 0), BuildingBlock: UVAHIK_clean_linker_0, # of connection points: 2
#     Edge 72, Type (0, 0), BuildingBlock: UVAHIK_clean_linker_0, # of connection points: 2
#     Edge 73, Type (0, 0), BuildingBlock: UVAHIK_clean_linker_0, # of connection points: 2
#     Edge 74, Type (0, 0), BuildingBlock: UVAHIK_clean_linker_0, # of connection points: 2
#     Edge 75, Type (0, 0), BuildingBlock: UVAHIK_clean_linker_0, # of connection points: 2
#     Edge 76, Type (0, 0), BuildingBlock: UVAHIK_clean_linker_0, # of connection points: 2
#     Edge 77, Type (0, 0), BuildingBlock: UVAHIK_clean_linker_0, # of connection points: 2
#     Edge 78, Type (0, 0), BuildingBlock: UVAHIK_clean_linker_0, # of connection points: 2
#     Edge 79, Type (0, 0), BuildingBlock: UVAHIK_clean_linker_0, # of connection points: 2
#     Edge 80, Type (0, 0), BuildingBlock: UVAHIK_clean_linker_0, # of connection points: 2
#     Edge 81, Type (0, 0), BuildingBlock: UVAHIK_clean_linker_0, # of connection points: 2
#     Edge 82, Type (0, 0), BuildingBlock: UVAHIK_clean_linker_0, # of connection points: 2
#     Edge 83, Type (0, 0), BuildingBlock: UVAHIK_clean_linker_0, # of connection points: 2
#     Edge 84, Type (0, 0), BuildingBlock: UVAHIK_clean_linker_0, # of connection points: 2
#     Edge 85, Type (0, 0), BuildingBlock: UVAHIK_clean_linker_0, # of connection points: 2
#     Edge 86, Type (0, 0), BuildingBlock: UVAHIK_clean_linker_0, # of connection points: 2
#     Edge 87, Type (0, 0), BuildingBlock: UVAHIK_clean_linker_0, # of connection points: 2
#     Edge 88, Type (0, 0), BuildingBlock: UVAHIK_clean_linker_0, # of connection points: 2
#     Edge 89, Type (0, 0), BuildingBlock: UVAHIK_clean_linker_0, # of connection points: 2
#     Edge 90, Type (0, 0), BuildingBlock: UVAHIK_clean_linker_0, # of connection points: 2
#     Edge 91, Type (0, 0), BuildingBlock: UVAHIK_clean_linker_0, # of connection points: 2
#     Edge 92, Type (0, 0), BuildingBlock: UVAHIK_clean_linker_0, # of connection points: 2
#     Edge 93, Type (0, 0), BuildingBlock: UVAHIK_clean_linker_0, # of connection points: 2
#     Edge 94, Type (0, 0), BuildingBlock: UVAHIK_clean_linker_0, # of connection points: 2
#     Edge 95, Type (0, 0), BuildingBlock: UVAHIK_clean_linker_0, # of connection points: 2
# Relax obj value: 0.235
# Max RMSD: 0.210
# Mean RMSD: 0.210
data_MOF--net-ukm--node1-QUQFOY_clean_sbu_1--edge1-UVAHIK_clean_linker_0
_symmetry_space_group_name_H-M    P1
_symmetry_Int_Tables_number       1
_symmetry_cell_setting            triclinic
loop_
_symmetry_equiv_pos_as_xyz
'x, y, z'
_cell_length_a     39.163785
_cell_length_b     136.72676
_cell_length_c     50.957036
_cell_angle_alpha  89.997312
_cell_angle_beta   90.008406
_cell_angle_gamma 90.007517
loop_
_atom_site_label
_atom_site_type_symbol
_atom_site_fract_x
_atom_site_fract_y
_atom_site_fract_z
_atom_type_partial_charge
O0 O 0.14217 0.32166 0.33342 0.0
Cd1 Cd 0.15717 0.3098 0.31111 0.0
Cd2 Cd 0.08855 0.30778 0.3118 0.0
O3 O 0.0878 0.31836 0.3404 0.0
O4 O 0.20766 0.31141 0.31084 0.0
O5 O 0.18258 0.29839 0.32757 0.0
C6 C 0.21038 0.30306 0.32221 0.0
C7 C 0.06587 0.29218 0.3129 0.0
C8 C 0.11371 0.3238 0.34399 0.0
C9 C 0.11914 0.31271 0.26073 0.0
O10 O 0.092 0.31293 0.27427 0.0
O11 O 0.14747 0.31059 0.27142 0.0
O12 O 0.04633 0.29979 0.31204 0.0
O13 O 0.09835 0.29352 0.31597 0.0
O14 O 0.11223 0.92648 0.33201 0.0
Cd15 Cd 0.09323 0.93849 0.31216 0.0
Cd16 Cd 0.16252 0.94067 0.30624 0.0
O17 O 0.16737 0.92973 0.33363 0.0
O18 O 0.04318 0.93642 0.31592 0.0
O19 O 0.06896 0.94953 0.33139 0.0
C20 C 0.04109 0.94467 0.32785 0.0
C21 C 0.18891 0.95584 0.30611 0.0
C22 C 0.14227 0.92424 0.33941 0.0
C23 C 0.12294 0.93626 0.25826 0.0
O24 O 0.15216 0.93604 0.26894 0.0
O25 O 0.09655 0.93812 0.27183 0.0
O26 O 0.20622 0.9479 0.30268 0.0
O27 O 0.15697 0.95505 0.31228 0.0
O28 O 0.13567 0.92772 0.90541 0.0
Cd29 Cd 0.15141 0.93924 0.9287 0.0
Cd30 Cd 0.08186 0.94112 0.92867 0.0
O31 O 0.08087 0.93074 0.89953 0.0
O32 O 0.20134 0.93664 0.9296 0.0
O33 O 0.18023 0.95033 0.91368 0.0
C34 C 0.20659 0.94504 0.91907 0.0
C35 C 0.06003 0.95681 0.92877 0.0
C36 C 0.1071 0.92552 0.8951 0.0
C37 C 0.11321 0.93598 0.97921 0.0
O38 O 0.08589 0.93572 0.96589 0.0
O39 O 0.14133 0.93823 0.96836 0.0
O40 O 0.04006 0.94929 0.92919 0.0
O41 O 0.0924 0.95536 0.92535 0.0
O42 O 0.11098 0.32106 0.90719 0.0
Cd43 Cd 0.09395 0.30923 0.92876 0.0
Cd44 Cd 0.16329 0.30765 0.93376 0.0
O45 O 0.16648 0.31837 0.90562 0.0
O46 O 0.04365 0.31087 0.92593 0.0
O47 O 0.07006 0.29771 0.91139 0.0
C48 C 0.04188 0.30241 0.91506 0.0
C49 C 0.18913 0.29243 0.93371 0.0
C50 C 0.14065 0.32349 0.89939 0.0
C51 C 0.12504 0.31235 0.98203 0.0
O52 O 0.15405 0.31253 0.97101 0.0
O53 O 0.09846 0.31028 0.96891 0.0
O54 O 0.20687 0.30033 0.93649 0.0
O55 O 0.15695 0.29328 0.92836 0.0
O56 O 0.90799 0.68568 0.72059 0.0
Cd57 Cd 0.91758 0.69063 0.68347 0.0
Cd58 Cd 0.84771 0.68866 0.67806 0.0
O59 O 0.85227 0.68764 0.71821 0.0
O60 O 0.96122 0.6979 0.68678 0.0
O61 O 0.91159 0.70503 0.67823 0.0
C62 C 0.94368 0.70583 0.68394 0.0
C63 C 0.79458 0.69487 0.66453 0.0
C64 C 0.87887 0.6857 0.73145 0.0
C65 C 0.89595 0.67474 0.64875 0.0
O66 O 0.86607 0.67703 0.65641 0.0
O67 O 0.92147 0.67996 0.65522 0.0
O68 O 0.79763 0.68643 0.67537 0.0
O69 O 0.82205 0.69989 0.66078 0.0
O70 O 0.8464 0.06265 0.72064 0.0
Cd71 Cd 0.83919 0.0582 0.68274 0.0
Cd72 Cd 0.90837 0.06041 0.6794 0.0
O73 O 0.90236 0.06117 0.71948 0.0
O74 O 0.79607 0.05062 0.68379 0.0
O75 O 0.84669 0.04394 0.67613 0.0
C76 C 0.81439 0.04286 0.68065 0.0
C77 C 0.96058 0.05359 0.66618 0.0
C78 C 0.87504 0.06272 0.73223 0.0
C79 C 0.86172 0.07446 0.64949 0.0
O80 O 0.89139 0.07222 0.6577 0.0
O81 O 0.83615 0.06916 0.65527 0.0
O82 O 0.95875 0.06201 0.67732 0.0
O83 O 0.9324 0.04895 0.66201 0.0
O84 O 0.91088 0.0626 0.02487 0.0
Cd85 Cd 0.91699 0.05761 0.06236 0.0
Cd86 Cd 0.84825 0.05955 0.0641 0.0
O87 O 0.85553 0.05985 0.02404 0.0
O88 O 0.95954 0.04975 0.06107 0.0
O89 O 0.9081 0.04331 0.06701 0.0
C90 C 0.94039 0.04208 0.06267 0.0
C91 C 0.79561 0.05299 0.07744 0.0
C92 C 0.88303 0.06206 0.01226 0.0
C93 C 0.89374 0.07382 0.0946 0.0
O94 O 0.86474 0.07162 0.08498 0.0
O95 O 0.91935 0.06831 0.09061 0.0
O96 O 0.79782 0.06123 0.06542 0.0
O97 O 0.82361 0.04835 0.08225 0.0
O98 O 0.84155 0.68573 0.02329 0.0
Cd99 Cd 0.83714 0.69108 0.06055 0.0
Cd100 Cd 0.90586 0.68954 0.06068 0.0
O101 O 0.89678 0.68858 0.02091 0.0
O102 O 0.79485 0.69904 0.06014 0.0
O103 O 0.84683 0.70536 0.0641 0.0
C104 C 0.81437 0.70666 0.06073 0.0
C105 C 0.95868 0.69647 0.07206 0.0
C106 C 0.86888 0.68615 0.01001 0.0
C107 C 0.86286 0.67542 0.09359 0.0
O108 O 0.89131 0.67768 0.0832 0.0
O109 O 0.83661 0.68067 0.08958 0.0
O110 O 0.9564 0.68809 0.06075 0.0
O111 O 0.93067 0.70106 0.07714 0.0
O112 O 0.14868 0.82221 0.82839 0.0
Cd113 Cd 0.1655 0.8105 0.80618 0.0
Cd114 Cd 0.09709 0.80775 0.8057 0.0
O115 O 0.0945 0.81835 0.83419 0.0
O116 O 0.21595 0.81215 0.8075 0.0
O117 O 0.19007 0.7991 0.82336 0.0
C118 C 0.2181 0.80379 0.81896 0.0
C119 C 0.07422 0.79214 0.80686 0.0
C120 C 0.11962 0.82403 0.83844 0.0
C121 C 0.12886 0.81296 0.75505 0.0
O122 O 0.10133 0.81283 0.76813 0.0
O123 O 0.15719 0.81123 0.76625 0.0
O124 O 0.05483 0.79976 0.8053 0.0
O125 O 0.10661 0.79347 0.81041 0.0
O126 O 0.10953 0.42692 0.83492 0.0
Cd127 Cd 0.09406 0.43842 0.81144 0.0
Cd128 Cd 0.16242 0.44071 0.81148 0.0
O129 O 0.16383 0.43052 0.84105 0.0
O130 O 0.04353 0.43699 0.81196 0.0
O131 O 0.06955 0.45013 0.82713 0.0
C132 C 0.04144 0.44549 0.82258 0.0
C133 C 0.18464 0.45637 0.81138 0.0
C134 C 0.13823 0.42506 0.84551 0.0
C135 C 0.13158 0.43509 0.761 0.0
O136 O 0.15888 0.43514 0.77437 0.0
O137 O 0.10325 0.43718 0.77174 0.0
O138 O 0.20439 0.4488 0.811 0.0
O139 O 0.1522 0.45498 0.81456 0.0
O140 O 0.1442 0.42743 0.40647 0.0
Cd141 Cd 0.16174 0.43885 0.42937 0.0
Cd142 Cd 0.09256 0.44101 0.43377 0.0
O143 O 0.08896 0.43055 0.40499 0.0
O144 O 0.21205 0.43723 0.42651 0.0
O145 O 0.18566 0.45056 0.41307 0.0
C146 C 0.21382 0.44581 0.41634 0.0
C147 C 0.06731 0.45632 0.43396 0.0
C148 C 0.11438 0.42534 0.39831 0.0
C149 C 0.12947 0.43559 0.4822 0.0
O150 O 0.10063 0.43587 0.47092 0.0
O151 O 0.15655 0.4374 0.4694 0.0
O152 O 0.04926 0.44847 0.43634 0.0
O153 O 0.09955 0.4554 0.42896 0.0
O154 O 0.1157 0.8211 0.39911 0.0
Cd155 Cd 0.09618 0.81029 0.42316 0.0
Cd156 Cd 0.16589 0.80735 0.42747 0.0
O157 O 0.17072 0.81763 0.39834 0.0
O158 O 0.04664 0.8133 0.42089 0.0
O159 O 0.06753 0.79905 0.40879 0.0
C160 C 0.04133 0.80465 0.41199 0.0
C161 C 0.18925 0.7918 0.42806 0.0
C162 C 0.14578 0.82292 0.39104 0.0
C163 C 0.12995 0.81345 0.47577 0.0
O164 O 0.15868 0.81271 0.46449 0.0
O165 O 0.10254 0.812 0.46306 0.0
O166 O 0.20825 0.79948 0.43019 0.0
O167 O 0.15712 0.79302 0.42309 0.0
O168 O 0.90248 0.18596 0.22179 0.0
Cd169 Cd 0.91237 0.1911 0.1849 0.0
Cd170 Cd 0.84301 0.18857 0.17861 0.0
O171 O 0.84659 0.18733 0.21883 0.0
O172 O 0.95558 0.19854 0.18888 0.0
O173 O 0.90578 0.20551 0.17998 0.0
C174 C 0.93773 0.20641 0.18601 0.0
C175 C 0.79081 0.19501 0.16391 0.0
C176 C 0.87318 0.18564 0.23234 0.0
C177 C 0.89291 0.17527 0.14906 0.0
O178 O 0.86263 0.17723 0.15643 0.0
O179 O 0.91775 0.1806 0.15632 0.0
O180 O 0.79303 0.18649 0.1744 0.0
O181 O 0.81858 0.2 0.16133 0.0
O182 O 0.84682 0.56301 0.21729 0.0
Cd183 Cd 0.8435 0.55778 0.1798 0.0
Cd184 Cd 0.91167 0.55998 0.1802 0.0
O185 O 0.90248 0.56104 0.21993 0.0
O186 O 0.8014 0.54974 0.17953 0.0
O187 O 0.85351 0.54353 0.17565 0.0
C188 C 0.82102 0.54216 0.17857 0.0
C189 C 0.96371 0.55266 0.16871 0.0
C190 C 0.87408 0.56302 0.23071 0.0
C191 C 0.86813 0.57367 0.14673 0.0
O192 O 0.89679 0.57169 0.15722 0.0
O193 O 0.84241 0.56823 0.1509 0.0
O194 O 0.96228 0.56112 0.1797 0.0
O195 O 0.93526 0.54823 0.16398 0.0
O196 O 0.90336 0.56287 0.52104 0.0
Cd197 Cd 0.91121 0.55769 0.55818 0.0
Cd198 Cd 0.84197 0.56038 0.56259 0.0
O199 O 0.84731 0.56177 0.52255 0.0
O200 O 0.95434 0.55016 0.55543 0.0
O201 O 0.90398 0.5433 0.56293 0.0
C202 C 0.93618 0.54234 0.55783 0.0
C203 C 0.78927 0.55379 0.57561 0.0
C204 C 0.87456 0.56336 0.50975 0.0
C205 C 0.89069 0.5735 0.5937 0.0
O206 O 0.86068 0.57163 0.58554 0.0
O207 O 0.91564 0.56811 0.58699 0.0
O208 O 0.79182 0.56238 0.56557 0.0
O209 O 0.81699 0.54883 0.57877 0.0
O210 O 0.83741 0.18623 0.52441 0.0
Cd211 Cd 0.83361 0.19173 0.56156 0.0
Cd212 Cd 0.90307 0.18954 0.56156 0.0
O213 O 0.89301 0.18842 0.52192 0.0
O214 O 0.79177 0.19987 0.56096 0.0
O215 O 0.84405 0.20598 0.56476 0.0
C216 C 0.81167 0.20741 0.56138 0.0
C217 C 0.95856 0.19514 0.57095 0.0
C218 C 0.86475 0.18629 0.5111 0.0
C219 C 0.85802 0.17612 0.59545 0.0
O220 O 0.88673 0.17816 0.58511 0.0
O221 O 0.83212 0.18145 0.5909 0.0
O222 O 0.95284 0.18671 0.56076 0.0
O223 O 0.93248 0.20057 0.57618 0.0
O224 O 0.64 0.32117 0.8335 0.0
Cd225 Cd 0.65725 0.30975 0.81053 0.0
Cd226 Cd 0.58819 0.30755 0.8066 0.0
O227 O 0.58471 0.31812 0.83507 0.0
O228 O 0.70757 0.3114 0.81298 0.0
O229 O 0.68147 0.29805 0.82663 0.0
C230 C 0.70955 0.30282 0.82312 0.0
C231 C 0.56426 0.29209 0.80731 0.0
C232 C 0.61023 0.3233 0.84169 0.0
C233 C 0.62427 0.31279 0.75777 0.0
O234 O 0.59551 0.31249 0.76916 0.0
O235 O 0.65149 0.31112 0.77053 0.0
O236 O 0.5455 0.2998 0.80477 0.0
O237 O 0.59649 0.29326 0.812 0.0
O238 O 0.6174 0.92646 0.83703 0.0
Cd239 Cd 0.59341 0.93698 0.81448 0.0
Cd240 Cd 0.66168 0.94018 0.80374 0.0
O241 O 0.67198 0.93002 0.8323 0.0
O242 O 0.54538 0.93449 0.82516 0.0
O243 O 0.57005 0.94887 0.83032 0.0
C244 C 0.5435 0.94338 0.83315 0.0
C245 C 0.68746 0.95541 0.80018 0.0
C246 C 0.64859 0.92476 0.84223 0.0
C247 C 0.61736 0.93335 0.75955 0.0
O248 O 0.64745 0.93463 0.76812 0.0
O249 O 0.59178 0.9346 0.7745 0.0
O250 O 0.70436 0.94746 0.796 0.0
O251 O 0.65635 0.95467 0.80847 0.0
O252 O 0.63978 0.9256 0.40958 0.0
Cd253 Cd 0.65524 0.93688 0.43385 0.0
Cd254 Cd 0.58774 0.94015 0.43112 0.0
O255 O 0.58656 0.92994 0.40162 0.0
O256 O 0.70576 0.93533 0.43437 0.0
O257 O 0.68055 0.94857 0.41899 0.0
C258 C 0.70839 0.94386 0.4239 0.0
C259 C 0.56717 0.95598 0.42972 0.0
C260 C 0.61147 0.92415 0.39796 0.0
C261 C 0.61419 0.93399 0.4828 0.0
O262 O 0.58784 0.93466 0.46846 0.0
O263 O 0.64362 0.93552 0.47316 0.0
O264 O 0.54668 0.94858 0.42971 0.0
O265 O 0.59962 0.95432 0.42794 0.0
O266 O 0.61428 0.3219 0.40542 0.0
Cd267 Cd 0.59793 0.30986 0.42652 0.0
Cd268 Cd 0.66655 0.30789 0.42805 0.0
O269 O 0.66881 0.31852 0.39965 0.0
O270 O 0.54751 0.31153 0.4253 0.0
O271 O 0.57327 0.29862 0.40859 0.0
C272 C 0.54527 0.30327 0.4134 0.0
C273 C 0.69003 0.29239 0.42766 0.0
C274 C 0.64324 0.32405 0.39567 0.0
C275 C 0.63298 0.31248 0.47821 0.0
O276 O 0.66076 0.31295 0.46551 0.0
O277 O 0.60538 0.31027 0.46655 0.0
O278 O 0.70914 0.30007 0.42917 0.0
O279 O 0.65769 0.2936 0.42351 0.0
O280 O 0.40848 0.68571 0.21466 0.0
Cd281 Cd 0.41162 0.69057 0.17679 0.0
Cd282 Cd 0.34376 0.68836 0.17757 0.0
O283 O 0.35291 0.68785 0.21737 0.0
O284 O 0.45349 0.69868 0.17597 0.0
O285 O 0.40122 0.70475 0.17168 0.0
C286 C 0.43366 0.70621 0.1746 0.0
C287 C 0.29151 0.69539 0.16528 0.0
C288 C 0.38132 0.68591 0.22819 0.0
C289 C 0.38738 0.67416 0.14568 0.0
O290 O 0.35883 0.67628 0.15615 0.0
O291 O 0.41294 0.67977 0.14882 0.0
O292 O 0.29317 0.6871 0.17714 0.0
O293 O 0.31984 0.69981 0.16012 0.0
O294 O 0.34192 0.0625 0.21606 0.0
Cd295 Cd 0.33861 0.05714 0.17873 0.0
Cd296 Cd 0.40728 0.0591 0.17949 0.0
O297 O 0.39737 0.06014 0.21912 0.0
O298 O 0.29648 0.0491 0.17866 0.0
O299 O 0.3486 0.04286 0.17516 0.0
C300 C 0.31611 0.04151 0.17816 0.0
C301 C 0.46061 0.05234 0.16876 0.0
C302 C 0.36902 0.06235 0.22966 0.0
C303 C 0.36405 0.07294 0.14588 0.0
O304 O 0.39247 0.07082 0.15656 0.0
O305 O 0.33803 0.06757 0.14972 0.0
O306 O 0.45776 0.06074 0.17988 0.0
O307 O 0.43288 0.04763 0.16351 0.0
O308 O 0.40572 0.06327 0.518 0.0
Cd309 Cd 0.4152 0.05781 0.55464 0.0
Cd310 Cd 0.34618 0.06067 0.56126 0.0
O311 O 0.34972 0.06249 0.52124 0.0
O312 O 0.45821 0.05032 0.55046 0.0
O313 O 0.4082 0.04339 0.55893 0.0
C314 C 0.4402 0.04247 0.5531 0.0
C315 C 0.29372 0.05409 0.57481 0.0
C316 C 0.37637 0.06402 0.50768 0.0
C317 C 0.39688 0.07332 0.59187 0.0
O318 O 0.36637 0.0716 0.5846 0.0
O319 O 0.42126 0.06797 0.58388 0.0
O320 O 0.29629 0.0628 0.56558 0.0
O321 O 0.32134 0.04901 0.57699 0.0
O322 O 0.34625 0.68448 0.51763 0.0
Cd323 Cd 0.33699 0.68971 0.55451 0.0
Cd324 Cd 0.40634 0.68706 0.56054 0.0
O325 O 0.40221 0.6856 0.52042 0.0
O326 O 0.29409 0.69729 0.55079 0.0
O327 O 0.34429 0.70409 0.55932 0.0
C328 C 0.3123 0.70509 0.55355 0.0
C329 C 0.45905 0.69347 0.57415 0.0
C330 C 0.37547 0.684 0.50702 0.0
C331 C 0.35636 0.67405 0.59089 0.0
O332 O 0.38667 0.67593 0.58344 0.0
O333 O 0.33158 0.67934 0.58335 0.0
O334 O 0.45629 0.68486 0.56427 0.0
O335 O 0.4315 0.69855 0.57688 0.0
O336 O 0.62958 0.82103 0.33509 0.0
Cd337 Cd 0.65149 0.80989 0.31355 0.0
Cd338 Cd 0.58249 0.80773 0.30374 0.0
O339 O 0.5743 0.81828 0.3317 0.0
O340 O 0.69996 0.81248 0.32277 0.0
O341 O 0.67532 0.79827 0.33053 0.0
C342 C 0.70203 0.80376 0.33199 0.0
C343 C 0.55608 0.79261 0.30127 0.0
C344 C 0.59895 0.82331 0.34062 0.0
C345 C 0.62691 0.81334 0.25863 0.0
O346 O 0.59676 0.81282 0.26764 0.0
O347 O 0.65241 0.81167 0.27337 0.0
O348 O 0.5393 0.80058 0.29702 0.0
O349 O 0.58735 0.79331 0.30926 0.0
O350 O 0.61578 0.42738 0.33297 0.0
Cd351 Cd 0.59736 0.43859 0.30975 0.0
Cd352 Cd 0.66658 0.44083 0.30408 0.0
O353 O 0.67107 0.43051 0.33315 0.0
O354 O 0.54719 0.43683 0.31333 0.0
O355 O 0.57332 0.45034 0.32573 0.0
C356 C 0.54527 0.44549 0.32303 0.0
C357 C 0.69162 0.45615 0.3031 0.0
C358 C 0.64589 0.42535 0.34063 0.0
C359 C 0.62836 0.43514 0.25648 0.0
O360 O 0.65753 0.43554 0.26721 0.0
O361 O 0.60162 0.43692 0.26971 0.0
O362 O 0.70971 0.44831 0.30065 0.0
O363 O 0.65952 0.45522 0.30859 0.0
O364 O 0.64118 0.42706 0.90506 0.0
Cd365 Cd 0.65618 0.43905 0.92691 0.0
Cd366 Cd 0.58791 0.44092 0.92692 0.0
O367 O 0.58674 0.43033 0.89842 0.0
O368 O 0.70674 0.43772 0.92644 0.0
O369 O 0.68035 0.45053 0.90975 0.0
C370 C 0.70858 0.44604 0.9148 0.0
C371 C 0.5654 0.45652 0.92573 0.0
C372 C 0.61259 0.42488 0.89473 0.0
C373 C 0.61938 0.43615 0.97777 0.0
O374 O 0.59202 0.43582 0.9645 0.0
O375 O 0.64744 0.43834 0.96675 0.0
O376 O 0.54579 0.44894 0.92689 0.0
O377 O 0.59783 0.45515 0.92245 0.0
O378 O 0.61829 0.82205 0.90894 0.0
Cd379 Cd 0.60242 0.81009 0.93052 0.0
Cd380 Cd 0.67032 0.80761 0.92961 0.0
O381 O 0.67197 0.8182 0.90105 0.0
O382 O 0.55187 0.81162 0.93006 0.0
O383 O 0.57771 0.79878 0.91301 0.0
C384 C 0.54967 0.80337 0.91808 0.0
C385 C 0.69193 0.79189 0.92863 0.0
C386 C 0.64678 0.82396 0.89809 0.0
C387 C 0.6404 0.81261 0.98089 0.0
O388 O 0.66742 0.81276 0.96719 0.0
O389 O 0.61187 0.81062 0.9703 0.0
O390 O 0.71199 0.79939 0.9293 0.0
O391 O 0.65953 0.79339 0.92561 0.0
O392 O 0.40203 0.18493 0.71744 0.0
Cd393 Cd 0.41531 0.18999 0.68107 0.0
Cd394 Cd 0.34705 0.18713 0.67201 0.0
O395 O 0.34621 0.18548 0.71221 0.0
O396 O 0.45825 0.19731 0.68744 0.0
O397 O 0.40988 0.2044 0.67527 0.0
C398 C 0.44119 0.20522 0.68306 0.0
C399 C 0.2971 0.19347 0.65323 0.0
C400 C 0.37212 0.18412 0.72675 0.0
C401 C 0.40033 0.174 0.6451 0.0
O402 O 0.3695 0.17597 0.65089 0.0
O403 O 0.42437 0.17941 0.65338 0.0
O404 O 0.29858 0.18473 0.66241 0.0
O405 O 0.32411 0.19884 0.65487 0.0
O406 O 0.33834 0.56229 0.71734 0.0
Cd407 Cd 0.33302 0.557 0.68006 0.0
Cd408 Cd 0.4017 0.55902 0.67885 0.0
O409 O 0.3938 0.55977 0.71879 0.0
O410 O 0.29046 0.54916 0.68116 0.0
O411 O 0.34199 0.54268 0.67609 0.0
C412 C 0.3096 0.54148 0.67999 0.0
C413 C 0.45464 0.5524 0.66653 0.0
C414 C 0.36605 0.56201 0.73018 0.0
C415 C 0.35657 0.57294 0.647 0.0
O416 O 0.38548 0.57087 0.65696 0.0
O417 O 0.33098 0.56745 0.65118 0.0
O418 O 0.45213 0.56074 0.67798 0.0
O419 O 0.42679 0.54769 0.66171 0.0
O420 O 0.40747 0.56272 0.01972 0.0
Cd421 Cd 0.41623 0.55735 0.05655 0.0
Cd422 Cd 0.34707 0.55938 0.06199 0.0
O423 O 0.35162 0.56108 0.02198 0.0
O424 O 0.45903 0.54971 0.05322 0.0
O425 O 0.40842 0.54298 0.06078 0.0
C426 C 0.44051 0.54194 0.05538 0.0
C427 C 0.2949 0.55249 0.0751 0.0
C428 C 0.37835 0.563 0.00887 0.0
C429 C 0.39505 0.5727 0.09315 0.0
O430 O 0.36507 0.57061 0.08532 0.0
O431 O 0.42043 0.56761 0.08578 0.0
O432 O 0.29688 0.56113 0.06533 0.0
O433 O 0.32292 0.54763 0.07792 0.0
O434 O 0.34101 0.1851 0.01861 0.0
Cd435 Cd 0.3395 0.1904 0.05608 0.0
Cd436 Cd 0.40754 0.18799 0.05394 0.0
O437 O 0.3966 0.1869 0.01443 0.0
O438 O 0.29786 0.19862 0.05721 0.0
O439 O 0.35041 0.20462 0.05966 0.0
C440 C 0.3179 0.20613 0.05744 0.0
C441 C 0.46007 0.19517 0.06482 0.0
C442 C 0.36763 0.18498 0.00446 0.0
C443 C 0.36495 0.17445 0.08859 0.0
O444 O 0.39316 0.17634 0.07729 0.0
O445 O 0.33924 0.17997 0.08509 0.0
O446 O 0.45817 0.18677 0.05356 0.0
O447 O 0.43185 0.19966 0.06993 0.0
C448 C 0.07632 0.41161 0.38375 0.0
C449 C 0.10899 0.41587 0.38486 0.0
C450 C 0.07248 0.40177 0.37677 0.0
C451 C 0.11895 0.38041 0.34877 0.0
H452 H 0.06251 0.3653 0.39649 0.0
C453 C 0.1388 0.33947 0.3599 0.0
C454 C 0.10977 0.3336 0.35599 0.0
C455 C 0.13546 0.34948 0.36436 0.0
C456 C 0.07812 0.36944 0.38291 0.0
H457 H 0.16282 0.41338 0.37738 0.0
H458 H 0.15622 0.39634 0.3654 0.0
H459 H 0.06147 0.38318 0.39851 0.0
H460 H 0.05435 0.3335 0.35624 0.0
H461 H 0.0486 0.35106 0.36448 0.0
H462 H 0.13645 0.36669 0.3338 0.0
C463 C 0.13348 0.40053 0.36985 0.0
C464 C 0.07737 0.37967 0.38389 0.0
C465 C 0.13731 0.41032 0.37684 0.0
C466 C 0.07723 0.33781 0.35914 0.0
C467 C 0.0739 0.34787 0.36374 0.0
C468 C 0.11992 0.37022 0.34797 0.0
C469 C 0.10119 0.39604 0.3706 0.0
C470 C 0.09834 0.38527 0.36717 0.0
C471 C 0.10304 0.35384 0.36518 0.0
C472 C 0.10009 0.36464 0.36539 0.0
H473 H 0.05395 0.41569 0.38978 0.0
H474 H 0.04719 0.39857 0.37706 0.0
H475 H 0.13487 0.38448 0.33525 0.0
H476 H 0.16425 0.33645 0.35794 0.0
H477 H 0.15834 0.35389 0.36606 0.0
C478 C 0.18141 0.91038 0.3515 0.0
C479 C 0.14824 0.91433 0.35021 0.0
C480 C 0.18618 0.90032 0.35526 0.0
C481 C 0.14249 0.87777 0.3393 0.0
H482 H 0.20065 0.86478 0.38999 0.0
C483 C 0.12416 0.83779 0.36812 0.0
C484 C 0.15201 0.83222 0.37697 0.0
C485 C 0.12855 0.84752 0.36075 0.0
C486 C 0.1849 0.86829 0.37528 0.0
H487 H 0.09433 0.91094 0.35443 0.0
H488 H 0.10277 0.89349 0.36082 0.0
H489 H 0.19919 0.88267 0.38832 0.0
H490 H 0.20688 0.83228 0.38289 0.0
H491 H 0.21465 0.84929 0.36947 0.0
H492 H 0.12807 0.86353 0.32613 0.0
C493 C 0.12497 0.89814 0.35847 0.0
C494 C 0.18392 0.87852 0.37451 0.0
C495 C 0.12021 0.90815 0.35498 0.0
C496 C 0.18486 0.83638 0.37622 0.0
C497 C 0.18927 0.84616 0.36882 0.0
C498 C 0.14377 0.86758 0.33983 0.0
C499 C 0.15785 0.89408 0.35759 0.0
C500 C 0.16189 0.88333 0.35705 0.0
C501 C 0.16095 0.85194 0.36192 0.0
C502 C 0.16416 0.8627 0.35836 0.0
H503 H 0.20357 0.91493 0.34794 0.0
H504 H 0.21181 0.89735 0.3547 0.0
H505 H 0.12587 0.88132 0.32523 0.0
H506 H 0.09853 0.83481 0.36835 0.0
H507 H 0.10607 0.85174 0.35574 0.0
C508 C 0.13334 0.91049 0.87627 0.0
C509 C 0.10374 0.91584 0.88236 0.0
C510 C 0.13145 0.90048 0.87124 0.0
C511 C 0.07606 0.87969 0.85536 0.0
H512 H 0.14075 0.86538 0.89844 0.0
C513 C 0.08121 0.83745 0.85451 0.0
C514 C 0.11426 0.83359 0.8514 0.0
C515 C 0.07663 0.84728 0.86135 0.0
C516 C 0.12264 0.86925 0.88618 0.0
H517 H 0.04855 0.91505 0.88542 0.0
H518 H 0.04529 0.8975 0.87624 0.0
H519 H 0.13929 0.88316 0.90041 0.0
H520 H 0.1683 0.83683 0.85494 0.0
H521 H 0.16039 0.85385 0.86669 0.0
H522 H 0.0601 0.86576 0.84053 0.0
C523 C 0.06994 0.90108 0.87566 0.0
C524 C 0.12186 0.87943 0.88727 0.0
C525 C 0.07183 0.91114 0.88079 0.0
C526 C 0.14249 0.83957 0.85709 0.0
C527 C 0.13792 0.84935 0.86395 0.0
C528 C 0.07703 0.86946 0.85408 0.0
C529 C 0.09993 0.8956 0.87207 0.0
C530 C 0.09907 0.88477 0.8715 0.0
C531 C 0.105 0.85341 0.86538 0.0
C532 C 0.10082 0.86414 0.86912 0.0
H533 H 0.1583 0.9139 0.87698 0.0
H534 H 0.15489 0.89647 0.86786 0.0
H535 H 0.05817 0.88363 0.84307 0.0
H536 H 0.05891 0.83304 0.85026 0.0
H537 H 0.05092 0.85015 0.86274 0.0
C538 C 0.17539 0.41156 0.86272 0.0
C539 C 0.14269 0.4156 0.85919 0.0
C540 C 0.17914 0.40173 0.86984 0.0
C541 C 0.13102 0.37999 0.8939 0.0
H542 H 0.19477 0.36537 0.85077 0.0
C543 C 0.11641 0.33894 0.88124 0.0
C544 C 0.14528 0.3333 0.88758 0.0
C545 C 0.11942 0.34897 0.87696 0.0
C546 C 0.17709 0.36938 0.86307 0.0
H547 H 0.08838 0.41273 0.86248 0.0
H548 H 0.09482 0.3957 0.87468 0.0
H549 H 0.19454 0.38326 0.84894 0.0
H550 H 0.20042 0.33363 0.89183 0.0
H551 H 0.20563 0.35122 0.88389 0.0
H552 H 0.1128 0.36613 0.90733 0.0
C553 C 0.11767 0.40006 0.87204 0.0
C554 C 0.17709 0.37962 0.86221 0.0
C555 C 0.11394 0.40984 0.86492 0.0
C556 C 0.17766 0.33776 0.88703 0.0
C557 C 0.18068 0.34784 0.88259 0.0
C558 C 0.13081 0.3698 0.89455 0.0
C559 C 0.15026 0.39579 0.87371 0.0
C560 C 0.15355 0.38503 0.87725 0.0
C561 C 0.15136 0.35358 0.87873 0.0
C562 C 0.15333 0.36439 0.87875 0.0
H563 H 0.19808 0.41581 0.85847 0.0
H564 H 0.2046 0.3987 0.87143 0.0
H565 H 0.11306 0.38393 0.90614 0.0
H566 H 0.09113 0.33572 0.88117 0.0
H567 H 0.09651 0.3532 0.87337 0.0
C568 C 0.86908 0.58871 0.61501 0.0
C569 C 0.89691 0.5829 0.6073 0.0
C570 C 0.87391 0.59844 0.62225 0.0
C571 C 0.93306 0.61878 0.60984 0.0
H572 H 0.87284 0.63219 0.65832 0.0
C573 C 0.93381 0.66068 0.63604 0.0
C574 C 0.90115 0.66498 0.63679 0.0
C575 C 0.93738 0.65063 0.63146 0.0
C576 C 0.88978 0.62853 0.64466 0.0
H577 H 0.95205 0.58255 0.60318 0.0
H578 H 0.96056 0.59956 0.61641 0.0
H579 H 0.873 0.61439 0.65692 0.0
H580 H 0.8471 0.66229 0.63056 0.0
H581 H 0.85347 0.64485 0.62271 0.0
H582 H 0.9498 0.63307 0.59779 0.0
C583 C 0.93489 0.59661 0.61624 0.0
C584 C 0.88989 0.61834 0.64385 0.0
C585 C 0.93004 0.58684 0.60896 0.0
C586 C 0.87258 0.65921 0.63049 0.0
C587 C 0.87615 0.6492 0.62614 0.0
C588 C 0.93324 0.62902 0.6109 0.0
C589 C 0.90674 0.60261 0.62212 0.0
C590 C 0.91077 0.61334 0.6259 0.0
C591 C 0.90836 0.64476 0.62772 0.0
C592 C 0.91084 0.63396 0.6278 0.0
H593 H 0.84323 0.58591 0.61405 0.0
H594 H 0.85156 0.60283 0.62643 0.0
H595 H 0.94924 0.61518 0.59559 0.0
H596 H 0.95635 0.66492 0.64077 0.0
H597 H 0.96252 0.64735 0.63258 0.0
C598 C 0.82391 0.0883 0.63516 0.0
C599 C 0.85665 0.08412 0.63691 0.0
C600 C 0.82003 0.09818 0.62868 0.0
C601 C 0.86704 0.11981 0.60278 0.0
H602 H 0.80673 0.13458 0.64841 0.0
C603 C 0.88315 0.16085 0.61381 0.0
C604 C 0.85399 0.16647 0.60827 0.0
C605 C 0.88028 0.15086 0.61874 0.0
C606 C 0.82346 0.13053 0.63544 0.0
H607 H 0.91074 0.08685 0.6313 0.0
H608 H 0.90407 0.10398 0.62025 0.0
H609 H 0.80678 0.11669 0.65039 0.0
H610 H 0.79864 0.16621 0.60625 0.0
H611 H 0.79369 0.14868 0.61532 0.0
H612 H 0.88449 0.13363 0.58846 0.0
C613 C 0.88129 0.09968 0.62375 0.0
C614 C 0.82334 0.12029 0.63638 0.0
C615 C 0.88515 0.08984 0.63022 0.0
C616 C 0.82161 0.16208 0.61041 0.0
C617 C 0.81874 0.15204 0.61549 0.0
C618 C 0.86739 0.13 0.60204 0.0
C619 C 0.8488 0.10406 0.62369 0.0
C620 C 0.84564 0.11483 0.6204 0.0
C621 C 0.8482 0.14628 0.61843 0.0
C622 C 0.84612 0.13547 0.61871 0.0
H623 H 0.8014 0.08409 0.64018 0.0
H624 H 0.79461 0.1013 0.62833 0.0
H625 H 0.88398 0.11584 0.5898 0.0
H626 H 0.90845 0.16402 0.61265 0.0
H627 H 0.90334 0.14661 0.6216 0.0
C628 C 0.93214 0.16165 0.13551 0.0
C629 C 0.89933 0.16584 0.13567 0.0
C630 C 0.93664 0.15185 0.12832 0.0
C631 C 0.89209 0.13054 0.0981 0.0
H632 H 0.94621 0.11524 0.14697 0.0
C633 C 0.86976 0.08973 0.10974 0.0
C634 C 0.8984 0.08369 0.10602 0.0
C635 C 0.87376 0.09974 0.11393 0.0
C636 C 0.9313 0.11944 0.13306 0.0
H637 H 0.84602 0.16325 0.12639 0.0
H638 H 0.85375 0.14629 0.1141 0.0
H639 H 0.94725 0.13312 0.14945 0.0
H640 H 0.95381 0.0833 0.10624 0.0
H641 H 0.96069 0.10087 0.1141 0.0
H642 H 0.87508 0.11687 0.08244 0.0
C643 C 0.87612 0.1505 0.11941 0.0
C644 C 0.93204 0.12968 0.13431 0.0
C645 C 0.87162 0.16025 0.1266 0.0
C646 C 0.93122 0.08775 0.10899 0.0
C647 C 0.9352 0.09781 0.11338 0.0
C648 C 0.89108 0.12035 0.09706 0.0
C649 C 0.90847 0.14608 0.12101 0.0
C650 C 0.91179 0.13533 0.11722 0.0
C651 C 0.90645 0.10393 0.11472 0.0
C652 C 0.91002 0.11471 0.11491 0.0
H653 H 0.95404 0.16575 0.14238 0.0
H654 H 0.96199 0.1487 0.12933 0.0
H655 H 0.87679 0.13466 0.08427 0.0
H656 H 0.84411 0.08685 0.1079 0.0
H657 H 0.85118 0.10428 0.11551 0.0
C658 C 0.8312 0.58733 0.1302 0.0
C659 C 0.86385 0.58323 0.13351 0.0
C660 C 0.8276 0.59721 0.1235 0.0
C661 C 0.8756 0.61897 0.09981 0.0
H662 H 0.81257 0.63348 0.14383 0.0
C663 C 0.88899 0.66013 0.11105 0.0
C664 C 0.85949 0.66565 0.10583 0.0
C665 C 0.88672 0.6501 0.11561 0.0
C666 C 0.83006 0.62951 0.13128 0.0
H667 H 0.9182 0.58605 0.1303 0.0
H668 H 0.91198 0.60316 0.11874 0.0
H669 H 0.81297 0.61559 0.14544 0.0
H670 H 0.80416 0.66512 0.10384 0.0
H671 H 0.80025 0.64754 0.11214 0.0
H672 H 0.89331 0.63285 0.08618 0.0
C673 C 0.88909 0.59882 0.12127 0.0
C674 C 0.83015 0.61927 0.13202 0.0
C675 C 0.89268 0.58899 0.12801 0.0
C676 C 0.82738 0.66108 0.10779 0.0
C677 C 0.82512 0.65101 0.11242 0.0
C678 C 0.87566 0.62916 0.09922 0.0
C679 C 0.85656 0.60313 0.11982 0.0
C680 C 0.85338 0.61389 0.11663 0.0
C681 C 0.85491 0.64537 0.11516 0.0
C682 C 0.85338 0.63454 0.11531 0.0
H683 H 0.80845 0.58309 0.13428 0.0
H684 H 0.80218 0.60028 0.12206 0.0
H685 H 0.89334 0.61506 0.08733 0.0
H686 H 0.91409 0.66344 0.11002 0.0
H687 H 0.91004 0.64596 0.11836 0.0
C688 C 0.57578 0.41093 0.8797 0.0
C689 C 0.60844 0.41506 0.88296 0.0
C690 C 0.57213 0.40087 0.87527 0.0
C691 C 0.61714 0.37843 0.89171 0.0
H692 H 0.55871 0.36554 0.84099 0.0
C693 C 0.63347 0.33826 0.86323 0.0
C694 C 0.60503 0.33278 0.85512 0.0
C695 C 0.62988 0.34807 0.87019 0.0
C696 C 0.57459 0.36903 0.85567 0.0
H697 H 0.66284 0.41204 0.88141 0.0
H698 H 0.65636 0.3946 0.87359 0.0
H699 H 0.56041 0.38342 0.84276 0.0
H700 H 0.55003 0.33309 0.84999 0.0
H701 H 0.54369 0.35023 0.86263 0.0
H702 H 0.63143 0.36415 0.90472 0.0
C703 C 0.63363 0.39908 0.87507 0.0
C704 C 0.57572 0.37926 0.8565 0.0
C705 C 0.6373 0.40909 0.87935 0.0
C706 C 0.57248 0.33711 0.8561 0.0
C707 C 0.56889 0.34697 0.86305 0.0
C708 C 0.6158 0.36824 0.89105 0.0
C709 C 0.60106 0.39482 0.87412 0.0
C710 C 0.5977 0.38403 0.87408 0.0
C711 C 0.59773 0.35263 0.86929 0.0
C712 C 0.59519 0.36341 0.87259 0.0
H713 H 0.55302 0.41532 0.88235 0.0
H714 H 0.54672 0.39776 0.87443 0.0
H715 H 0.63366 0.38194 0.90593 0.0
H716 H 0.65889 0.33515 0.8628 0.0
H717 H 0.65271 0.35221 0.87471 0.0
C718 C 0.62395 0.84023 0.88479 0.0
C719 C 0.65183 0.83379 0.8865 0.0
C720 C 0.62917 0.85019 0.88055 0.0
C721 C 0.68623 0.86918 0.85726 0.0
H722 H 0.64244 0.8848 0.91122 0.0
C723 C 0.68963 0.91128 0.85323 0.0
C724 C 0.65723 0.91558 0.85611 0.0
C725 C 0.69501 0.90154 0.86066 0.0
C726 C 0.65477 0.88056 0.89596 0.0
H727 H 0.70688 0.83263 0.88255 0.0
H728 H 0.71582 0.85012 0.87446 0.0
H729 H 0.63888 0.86702 0.91309 0.0
H730 H 0.60604 0.91334 0.87121 0.0
H731 H 0.61523 0.89649 0.88393 0.0
H732 H 0.7007 0.88272 0.83936 0.0
C733 C 0.69003 0.8474 0.87689 0.0
C734 C 0.65272 0.87039 0.89705 0.0
C735 C 0.68485 0.8374 0.8814 0.0
C736 C 0.63126 0.91024 0.86859 0.0
C737 C 0.63663 0.90055 0.87603 0.0
C738 C 0.68794 0.8794 0.85597 0.0
C739 C 0.66232 0.85391 0.87761 0.0
C740 C 0.66765 0.86462 0.87737 0.0
C741 C 0.66815 0.89596 0.87126 0.0
C742 C 0.67142 0.88521 0.87495 0.0
H743 H 0.59814 0.83771 0.88832 0.0
H744 H 0.60733 0.85505 0.88061 0.0
H745 H 0.69803 0.86486 0.84192 0.0
H746 H 0.7102 0.9152 0.84369 0.0
H747 H 0.71978 0.89826 0.85717 0.0
C748 C 0.62037 0.83823 0.36326 0.0
C749 C 0.59265 0.83295 0.35293 0.0
C750 C 0.61763 0.84825 0.36771 0.0
C751 C 0.56219 0.86933 0.37597 0.0
H752 H 0.63371 0.88286 0.33772 0.0
C753 C 0.57315 0.9114 0.37826 0.0
C754 C 0.60625 0.91481 0.38385 0.0
C755 C 0.56793 0.90169 0.37051 0.0
C756 C 0.61366 0.87921 0.34861 0.0
H757 H 0.5392 0.83385 0.34192 0.0
H758 H 0.53435 0.85145 0.35029 0.0
H759 H 0.6307 0.86508 0.3363 0.0
H760 H 0.65997 0.91094 0.38365 0.0
H761 H 0.65096 0.89413 0.37047 0.0
H762 H 0.54601 0.88344 0.38924 0.0
C763 C 0.55826 0.84778 0.3545 0.0
C764 C 0.61196 0.86904 0.34779 0.0
C765 C 0.56104 0.83771 0.34984 0.0
C766 C 0.63413 0.90855 0.37961 0.0
C767 C 0.62893 0.89888 0.3719 0.0
C768 C 0.56414 0.87955 0.37708 0.0
C769 C 0.58706 0.85319 0.3622 0.0
C770 C 0.58673 0.864 0.36193 0.0
C771 C 0.59572 0.89524 0.3681 0.0
C772 C 0.59042 0.88459 0.36388 0.0
H773 H 0.64496 0.83477 0.36619 0.0
H774 H 0.63999 0.85225 0.37421 0.0
H775 H 0.54243 0.86558 0.38692 0.0
H776 H 0.55111 0.91605 0.38129 0.0
H777 H 0.54208 0.89916 0.36726 0.0
C778 C 0.61946 0.33999 0.38055 0.0
C779 C 0.648 0.3339 0.38418 0.0
C780 C 0.62364 0.34999 0.37639 0.0
C781 C 0.68187 0.36958 0.35744 0.0
H782 H 0.62743 0.3849 0.40604 0.0
C783 C 0.68442 0.41172 0.3551 0.0
C784 C 0.65175 0.41599 0.35449 0.0
C785 C 0.68846 0.40193 0.36251 0.0
C786 C 0.64272 0.38075 0.39227 0.0
H787 H 0.70341 0.33342 0.38379 0.0
H788 H 0.7106 0.35097 0.37601 0.0
H789 H 0.62508 0.36711 0.40772 0.0
H790 H 0.59821 0.41359 0.36334 0.0
H791 H 0.60516 0.39664 0.37603 0.0
H792 H 0.6985 0.38323 0.34128 0.0
C793 C 0.68505 0.34795 0.37677 0.0
C794 C 0.64133 0.37057 0.39322 0.0
C795 C 0.68088 0.3379 0.38112 0.0
C796 C 0.62371 0.41052 0.36346 0.0
C797 C 0.62775 0.40078 0.37087 0.0
C798 C 0.68301 0.37981 0.35631 0.0
C799 C 0.65642 0.35412 0.37555 0.0
C800 C 0.66025 0.36489 0.37543 0.0
C801 C 0.65996 0.39626 0.3696 0.0
C802 C 0.66281 0.3855 0.37333 0.0
H803 H 0.59377 0.33714 0.38246 0.0
H804 H 0.60115 0.35457 0.37488 0.0
H805 H 0.69677 0.36536 0.34358 0.0
H806 H 0.70657 0.41574 0.34834 0.0
H807 H 0.7137 0.39871 0.36178 0.0
C808 C 0.37221 0.58739 0.1162 0.0
C809 C 0.40048 0.58209 0.10699 0.0
C810 C 0.37562 0.59718 0.12337 0.0
C811 C 0.42876 0.61842 0.10735 0.0
H812 H 0.37123 0.63101 0.15921 0.0
C813 C 0.42488 0.66039 0.13046 0.0
C814 C 0.39199 0.66428 0.13438 0.0
C815 C 0.42932 0.65034 0.12636 0.0
C816 C 0.38733 0.62759 0.14456 0.0
H817 H 0.45515 0.58267 0.10023 0.0
H818 H 0.4612 0.59978 0.11324 0.0
H819 H 0.37484 0.61323 0.15808 0.0
H820 H 0.33787 0.66081 0.13445 0.0
H821 H 0.34572 0.64338 0.12722 0.0
H822 H 0.44109 0.63288 0.0939 0.0
C823 C 0.43624 0.59639 0.11434 0.0
C824 C 0.38946 0.61741 0.14395 0.0
C825 C 0.43283 0.58656 0.10719 0.0
C826 C 0.36359 0.65806 0.13184 0.0
C827 C 0.36805 0.64805 0.12791 0.0
C828 C 0.42686 0.62864 0.10814 0.0
C829 C 0.40742 0.6019 0.1216 0.0
C830 C 0.40947 0.61269 0.12489 0.0
C831 C 0.40097 0.64405 0.12622 0.0
C832 C 0.40538 0.63329 0.1263 0.0
H833 H 0.34695 0.58416 0.1164 0.0
H834 H 0.3528 0.60119 0.12869 0.0
H835 H 0.44413 0.61503 0.09222 0.0
H836 H 0.4473 0.66498 0.13228 0.0
H837 H 0.45497 0.64743 0.12493 0.0
C838 C 0.39017 0.15929 0.10766 0.0
C839 C 0.36108 0.16494 0.10208 0.0
C840 C 0.387 0.14949 0.11478 0.0
C841 C 0.32896 0.12876 0.10511 0.0
H842 H 0.39271 0.11573 0.15162 0.0
C843 C 0.32806 0.08708 0.13106 0.0
C844 C 0.36036 0.08265 0.13337 0.0
C845 C 0.32537 0.09712 0.12602 0.0
C846 C 0.3749 0.11927 0.1384 0.0
H847 H 0.30569 0.16489 0.10147 0.0
H848 H 0.30015 0.14774 0.11433 0.0
H849 H 0.39195 0.13352 0.14958 0.0
H850 H 0.41489 0.08506 0.12946 0.0
H851 H 0.41011 0.10247 0.1204 0.0
H852 H 0.31203 0.11441 0.09398 0.0
C853 C 0.32544 0.15089 0.1127 0.0
C854 C 0.37439 0.12945 0.1373 0.0
C855 C 0.32861 0.16074 0.10564 0.0
C856 C 0.38965 0.08826 0.12815 0.0
C857 C 0.38695 0.09826 0.12318 0.0
C858 C 0.32933 0.11853 0.10634 0.0
C859 C 0.35465 0.14508 0.11653 0.0
C860 C 0.35194 0.13433 0.12024 0.0
C861 C 0.35492 0.10287 0.12324 0.0
C862 C 0.35288 0.11369 0.12256 0.0
H863 H 0.41555 0.1623 0.10517 0.0
H864 H 0.41007 0.14524 0.1174 0.0
H865 H 0.3116 0.13228 0.09153 0.0
H866 H 0.30499 0.08297 0.13499 0.0
H867 H 0.30034 0.10049 0.12601 0.0
C868 C 0.37714 0.08846 0.61452 0.0
C869 C 0.40425 0.08256 0.60588 0.0
C870 C 0.38291 0.09813 0.62201 0.0
C871 C 0.44269 0.11817 0.60829 0.0
H872 H 0.38412 0.13188 0.65735 0.0
C873 C 0.44093 0.1603 0.63481 0.0
C874 C 0.4079 0.16434 0.63335 0.0
C875 C 0.44594 0.15027 0.63067 0.0
C876 C 0.40071 0.12812 0.64364 0.0
H877 H 0.45919 0.08194 0.60051 0.0
H878 H 0.46934 0.09882 0.61416 0.0
H879 H 0.38416 0.11406 0.6567 0.0
H880 H 0.35502 0.16122 0.62356 0.0
H881 H 0.36387 0.1438 0.61665 0.0
H882 H 0.4591 0.1324 0.5954 0.0
C883 C 0.44349 0.09601 0.61451 0.0
C884 C 0.40071 0.11793 0.64321 0.0
C885 C 0.43769 0.0863 0.60697 0.0
C886 C 0.38071 0.15834 0.62519 0.0
C887 C 0.38568 0.14836 0.62134 0.0
C888 C 0.44304 0.12841 0.60901 0.0
C889 C 0.41598 0.10213 0.62121 0.0
C890 C 0.42079 0.11283 0.62492 0.0
C891 C 0.41798 0.14418 0.62517 0.0
C892 C 0.42119 0.13344 0.62611 0.0
H893 H 0.35108 0.08581 0.61404 0.0
H894 H 0.36101 0.10261 0.62682 0.0
H895 H 0.45826 0.11449 0.59378 0.0
H896 H 0.46243 0.16471 0.64102 0.0
H897 H 0.47112 0.14717 0.63355 0.0
C898 C 0.37738 0.65918 0.61415 0.0
C899 C 0.3498 0.66471 0.60466 0.0
C900 C 0.37282 0.64945 0.62155 0.0
C901 C 0.3175 0.62859 0.60615 0.0
H902 H 0.37364 0.61586 0.65868 0.0
C903 C 0.31895 0.58669 0.63172 0.0
C904 C 0.35184 0.58272 0.63506 0.0
C905 C 0.31475 0.59672 0.62711 0.0
C906 C 0.35787 0.61933 0.64388 0.0
H907 H 0.29517 0.66458 0.5975 0.0
H908 H 0.28711 0.64758 0.6109 0.0
H909 H 0.37154 0.63365 0.65692 0.0
H910 H 0.40606 0.58598 0.63347 0.0
H911 H 0.39862 0.60339 0.62548 0.0
H912 H 0.30398 0.61414 0.59323 0.0
C913 C 0.31242 0.65074 0.61208 0.0
C914 C 0.35663 0.62951 0.64289 0.0
C915 C 0.31699 0.66052 0.60469 0.0
C916 C 0.38037 0.58881 0.63136 0.0
C917 C 0.37615 0.59879 0.62696 0.0
C918 C 0.31847 0.61836 0.60735 0.0
C919 C 0.34052 0.64501 0.61974 0.0
C920 C 0.33725 0.63427 0.62353 0.0
C921 C 0.34335 0.6029 0.62591 0.0
C922 C 0.33949 0.61366 0.62574 0.0
H923 H 0.40297 0.66219 0.61447 0.0
H924 H 0.39513 0.64526 0.62715 0.0
H925 H 0.30255 0.63202 0.59082 0.0
H926 H 0.29643 0.5822 0.63443 0.0
H927 H 0.28919 0.59973 0.62617 0.0
C928 C 0.50814 0.29199 0.38672 0.0
C929 C 0.51145 0.29948 0.40543 0.0
C930 C 0.47571 0.2891 0.37794 0.0
C931 C 0.40666 0.29117 0.34984 0.0
H932 H 0.32865 0.29096 0.39675 0.0
C933 C 0.27376 0.30366 0.31861 0.0
C934 C 0.2445 0.29922 0.32922 0.0
C935 C 0.30627 0.30075 0.32654 0.0
C936 C 0.35012 0.29078 0.38336 0.0
H937 H 0.48346 0.3095 0.43047 0.0
H938 H 0.4274 0.30451 0.41532 0.0
H939 H 0.38629 0.2909 0.41488 0.0
H940 H 0.22638 0.28798 0.35578 0.0
H941 H 0.28359 0.28293 0.36998 0.0
H942 H 0.37047 0.29141 0.31833 0.0
C943 C 0.44959 0.3008 0.40743 0.0
C944 C 0.38315 0.29085 0.39375 0.0
C945 C 0.48181 0.30374 0.41593 0.0
C946 C 0.24848 0.29155 0.34731 0.0
C947 C 0.28118 0.28868 0.35548 0.0
C948 C 0.37362 0.29113 0.33944 0.0
C949 C 0.44611 0.29357 0.38805 0.0
C950 C 0.41174 0.29142 0.37712 0.0
C951 C 0.31041 0.29336 0.34542 0.0
C952 C 0.34499 0.29132 0.35611 0.0
H953 H 0.53055 0.28857 0.3783 0.0
H954 H 0.47378 0.28349 0.36303 0.0
H955 H 0.42813 0.29164 0.33649 0.0
H956 H 0.2716 0.30957 0.30453 0.0
H957 H 0.32814 0.30462 0.31869 0.0
C958 C 0.00472 0.95567 0.35601 0.0
C959 C 0.00751 0.94826 0.337 0.0
C960 C 0.97256 0.95841 0.36566 0.0
C961 C 0.90431 0.956 0.39505 0.0
H962 H 0.82512 0.95663 0.34933 0.0
C963 C 0.77186 0.94328 0.42719 0.0
C964 C 0.74244 0.94781 0.41713 0.0
C965 C 0.80426 0.94627 0.41917 0.0
C966 C 0.84692 0.95669 0.36241 0.0
H967 H 0.97884 0.93824 0.3124 0.0
H968 H 0.92326 0.94302 0.329 0.0
H969 H 0.88228 0.95681 0.33036 0.0
H970 H 0.72395 0.95932 0.39156 0.0
H971 H 0.78093 0.96451 0.37722 0.0
H972 H 0.86891 0.95551 0.42707 0.0
C973 C 0.94565 0.94675 0.33649 0.0
C974 C 0.87967 0.95669 0.35153 0.0
C975 C 0.97761 0.94393 0.32715 0.0
C976 C 0.74617 0.95568 0.3996 0.0
C977 C 0.77874 0.95862 0.39134 0.0
C978 C 0.87153 0.95596 0.40594 0.0
C979 C 0.94272 0.95392 0.3561 0.0
C980 C 0.90867 0.95598 0.36769 0.0
C981 C 0.80812 0.95383 0.40075 0.0
C982 C 0.84247 0.95593 0.3897 0.0
H983 H 0.02735 0.95913 0.36393 0.0
H984 H 0.97103 0.96397 0.38076 0.0
H985 H 0.92613 0.95543 0.40802 0.0
H986 H 0.76989 0.93723 0.44083 0.0
H987 H 0.82626 0.94233 0.42653 0.0
C988 C 0.50081 0.95665 0.84294 0.0
C989 C 0.51183 0.94691 0.84561 0.0
C990 C 0.46913 0.95955 0.85325 0.0
C991 C 0.40649 0.95366 0.90338 0.0
H992 H 0.33446 0.95954 0.85359 0.0
C993 C 0.26938 0.94253 0.92222 0.0
C994 C 0.24193 0.94826 0.9134 0.0
C995 C 0.30288 0.94511 0.91633 0.0
C996 C 0.35433 0.95818 0.8679 0.0
H997 H 0.49935 0.93271 0.8619 0.0
H998 H 0.445 0.93785 0.8806 0.0
H999 H 0.39407 0.9594 0.83902 0.0
H1000 H 0.22821 0.96135 0.89181 0.0
H1001 H 0.28737 0.96589 0.88135 0.0
H1002 H 0.36712 0.9521 0.9321 0.0
C1003 C 0.46042 0.94319 0.87028 0.0
C1004 C 0.38842 0.95809 0.85953 0.0
C1005 C 0.49141 0.94025 0.85948 0.0
C1006 C 0.24885 0.95678 0.89886 0.0
C1007 C 0.28266 0.95936 0.89283 0.0
C1008 C 0.37261 0.95386 0.9118 0.0
C1009 C 0.44878 0.95281 0.867 0.0
C1010 C 0.41454 0.95541 0.87698 0.0
C1011 C 0.31005 0.95352 0.90147 0.0
C1012 C 0.34599 0.95563 0.89388 0.0
H1013 H 0.51607 0.9619 0.83219 0.0
H1014 H 0.46049 0.967 0.85043 0.0
H1015 H 0.4263 0.95164 0.9172 0.0
H1016 H 0.26505 0.93592 0.93345 0.0
H1017 H 0.32319 0.9403 0.92282 0.0
C1018 C 0.77297 0.30316 0.82054 0.0
C1019 C 0.74323 0.29877 0.83044 0.0
C1020 C 0.80511 0.29997 0.82853 0.0
C1021 C 0.87139 0.28973 0.84106 0.0
H1022 H 0.88341 0.28935 0.91655 0.0
C1023 C 0.00545 0.29078 0.88886 0.0
C1024 C 0.00832 0.29842 0.90718 0.0
C1025 C 0.97319 0.28772 0.88015 0.0
C1026 C 0.88043 0.28932 0.89541 0.0
H1027 H 0.72381 0.28734 0.85585 0.0
H1028 H 0.78045 0.28182 0.87031 0.0
H1029 H 0.8259 0.28957 0.89812 0.0
H1030 H 0.97978 0.3085 0.93169 0.0
H1031 H 0.92403 0.30318 0.91668 0.0
H1032 H 0.92592 0.29012 0.83839 0.0
C1033 C 0.77867 0.28773 0.85623 0.0
C1034 C 0.84749 0.28935 0.88485 0.0
C1035 C 0.74632 0.29087 0.84794 0.0
C1036 C 0.97846 0.30263 0.91742 0.0
C1037 C 0.94642 0.29951 0.90903 0.0
C1038 C 0.90434 0.28966 0.85161 0.0
C1039 C 0.80839 0.29234 0.8468 0.0
C1040 C 0.84265 0.28999 0.85759 0.0
C1041 C 0.94335 0.29214 0.88998 0.0
C1042 C 0.90917 0.28989 0.87892 0.0
H1043 H 0.77148 0.30922 0.8069 0.0
H1044 H 0.8274 0.30378 0.8212 0.0
H1045 H 0.86841 0.29008 0.81994 0.0
H1046 H 0.02806 0.2874 0.88067 0.0
H1047 H 0.97156 0.28201 0.86547 0.0
C1048 C 0.73124 0.69395 0.6673 0.0
C1049 C 0.76043 0.69847 0.65682 0.0
C1050 C 0.69871 0.69673 0.65915 0.0
C1051 C 0.65453 0.70612 0.60213 0.0
H1052 H 0.57693 0.70604 0.64948 0.0
C1053 C 0.4966 0.70516 0.5992 0.0
C1054 C 0.493 0.69723 0.58187 0.0
C1055 C 0.52914 0.70811 0.60757 0.0
C1056 C 0.59829 0.70628 0.63599 0.0
H1057 H 0.77841 0.70967 0.63009 0.0
H1058 H 0.72108 0.71444 0.6153 0.0
H1059 H 0.63481 0.70646 0.66729 0.0
H1060 H 0.52058 0.68647 0.55885 0.0
H1061 H 0.57685 0.69163 0.57321 0.0
H1062 H 0.61803 0.7055 0.57087 0.0
C1063 C 0.72361 0.70877 0.62999 0.0
C1064 C 0.63143 0.70644 0.64619 0.0
C1065 C 0.75635 0.70605 0.63847 0.0
C1066 C 0.52246 0.69257 0.57234 0.0
C1067 C 0.55478 0.69559 0.58036 0.0
C1068 C 0.6214 0.7059 0.59194 0.0
C1069 C 0.69449 0.70405 0.6401 0.0
C1070 C 0.65988 0.70599 0.62939 0.0
C1071 C 0.55854 0.7033 0.59833 0.0
C1072 C 0.59298 0.70561 0.6088 0.0
H1073 H 0.73349 0.68812 0.6816 0.0
H1074 H 0.67688 0.69285 0.66701 0.0
H1075 H 0.67591 0.70573 0.58868 0.0
H1076 H 0.47432 0.70889 0.60685 0.0
H1077 H 0.53132 0.71408 0.62144 0.0
C1078 C 0.9972 0.04212 0.63969 0.0
C1079 C 0.9942 0.0496 0.65846 0.0
C1080 C 0.02953 0.0391 0.63104 0.0
C1081 C 0.12219 0.04049 0.6468 0.0
H1082 H 0.13461 0.04209 0.57146 0.0
C1083 C 0.2303 0.05495 0.5733 0.0
C1084 C 0.25987 0.05022 0.58237 0.0
C1085 C 0.19807 0.05182 0.58122 0.0
C1086 C 0.13151 0.04149 0.59253 0.0
H1087 H 0.02254 0.05941 0.68388 0.0
H1088 H 0.07844 0.05416 0.66897 0.0
H1089 H 0.07701 0.04197 0.58971 0.0
H1090 H 0.27883 0.03831 0.60635 0.0
H1091 H 0.22199 0.03292 0.62078 0.0
H1092 H 0.17675 0.04063 0.64967 0.0
C1093 C 0.05609 0.05059 0.6609 0.0
C1094 C 0.09852 0.04134 0.60297 0.0
C1095 C 0.02398 0.05367 0.66925 0.0
C1096 C 0.25646 0.0421 0.59908 0.0
C1097 C 0.22401 0.03903 0.60735 0.0
C1098 C 0.1552 0.0406 0.63635 0.0
C1099 C 0.0593 0.04341 0.64136 0.0
C1100 C 0.09355 0.04126 0.63027 0.0
C1101 C 0.19451 0.04392 0.59862 0.0
C1102 C 0.16017 0.04153 0.60916 0.0
H1103 H 0.97465 0.03884 0.63108 0.0
H1104 H 0.03125 0.03354 0.61597 0.0
H1105 H 0.11911 0.0403 0.66792 0.0
H1106 H 0.23202 0.06119 0.56027 0.0
H1107 H 0.17593 0.05585 0.57447 0.0
C1108 C 0.52397 0.05298 0.17255 0.0
C1109 C 0.49479 0.04853 0.16185 0.0
C1110 C 0.55653 0.05013 0.16461 0.0
C1111 C 0.60054 0.04038 0.10761 0.0
H1112 H 0.67858 0.04122 0.15447 0.0
C1113 C 0.75854 0.0417 0.10415 0.0
C1114 C 0.7618 0.04921 0.0855 0.0
C1115 C 0.72614 0.0388 0.11295 0.0
C1116 C 0.65711 0.04076 0.14112 0.0
H1117 H 0.47687 0.03731 0.13513 0.0
H1118 H 0.53418 0.03237 0.12089 0.0
H1119 H 0.62094 0.04086 0.17264 0.0
H1120 H 0.73371 0.05928 0.06064 0.0
H1121 H 0.67771 0.05426 0.07584 0.0
H1122 H 0.63668 0.04062 0.07609 0.0
C1123 C 0.53166 0.03808 0.13548 0.0
C1124 C 0.62407 0.04065 0.15153 0.0
C1125 C 0.49891 0.04089 0.14367 0.0
C1126 C 0.73212 0.0535 0.07512 0.0
C1127 C 0.69993 0.05055 0.08365 0.0
C1128 C 0.63356 0.04052 0.09721 0.0
C1129 C 0.56081 0.04279 0.14561 0.0
C1130 C 0.59543 0.04083 0.13487 0.0
C1131 C 0.69651 0.04327 0.10294 0.0
C1132 C 0.66216 0.04108 0.11384 0.0
H1133 H 0.52169 0.05886 0.1867 0.0
H1134 H 0.57833 0.05401 0.17252 0.0
H1135 H 0.57905 0.04055 0.09423 0.0
H1136 H 0.78098 0.03826 0.11248 0.0
H1137 H 0.72427 0.03315 0.12779 0.0
C1138 C 0.0221 0.69607 0.06882 0.0
C1139 C 0.99258 0.70039 0.07937 0.0
C1140 C 0.05441 0.69901 0.07714 0.0
C1141 C 0.09714 0.70869 0.13479 0.0
H1142 H 0.17589 0.70805 0.08865 0.0
C1143 C 0.25513 0.70702 0.13911 0.0
C1144 C 0.25794 0.69943 0.15757 0.0
C1145 C 0.22291 0.71011 0.13039 0.0
C1146 C 0.15423 0.70846 0.10181 0.0
H1147 H 0.97379 0.71145 0.10618 0.0
H1148 H 0.03068 0.71654 0.12107 0.0
H1149 H 0.11858 0.70845 0.06995 0.0
H1150 H 0.22927 0.68945 0.1823 0.0
H1151 H 0.17358 0.69478 0.16719 0.0
H1152 H 0.13277 0.70835 0.16665 0.0
C1153 C 0.02861 0.71087 0.10631 0.0
C1154 C 0.12137 0.7086 0.0911 0.0
C1155 C 0.9961 0.70798 0.09775 0.0
C1156 C 0.22802 0.69529 0.16795 0.0
C1157 C 0.196 0.69841 0.15947 0.0
C1158 C 0.13 0.70854 0.14551 0.0
C1159 C 0.0581 0.7063 0.09635 0.0
C1160 C 0.09247 0.70832 0.10747 0.0
C1161 C 0.19301 0.70574 0.14026 0.0
C1162 C 0.15886 0.70802 0.12913 0.0
H1163 H 0.02028 0.69024 0.05452 0.0
H1164 H 0.07648 0.69522 0.06934 0.0
H1165 H 0.07545 0.70844 0.14796 0.0
H1166 H 0.27776 0.71036 0.1308 0.0
H1167 H 0.22139 0.71579 0.11564 0.0
C1168 C 0.48613 0.80389 0.9201 0.0
C1169 C 0.51588 0.79958 0.90995 0.0
C1170 C 0.45401 0.80106 0.91108 0.0
C1171 C 0.38737 0.7915 0.89573 0.0
H1172 H 0.37788 0.79194 0.82002 0.0
C1173 C 0.25479 0.79236 0.84551 0.0
C1174 C 0.25181 0.79998 0.82715 0.0
C1175 C 0.28702 0.7895 0.85476 0.0
C1176 C 0.38013 0.79171 0.8412 0.0
H1177 H 0.53526 0.78864 0.88301 0.0
H1178 H 0.47876 0.78373 0.86691 0.0
H1179 H 0.43473 0.79198 0.83959 0.0
H1180 H 0.28026 0.81025 0.80316 0.0
H1181 H 0.33599 0.8053 0.81914 0.0
H1182 H 0.33276 0.79183 0.89735 0.0
C1183 C 0.48047 0.78932 0.8819 0.0
C1184 C 0.41271 0.79164 0.85241 0.0
C1185 C 0.51276 0.79211 0.89117 0.0
C1186 C 0.28164 0.80439 0.81741 0.0
C1187 C 0.31369 0.80148 0.8264 0.0
C1188 C 0.35478 0.79155 0.88452 0.0
C1189 C 0.45077 0.79388 0.89153 0.0
C1190 C 0.41668 0.79191 0.87981 0.0
C1191 C 0.31679 0.79413 0.84551 0.0
C1192 C 0.35083 0.79204 0.85714 0.0
H1193 H 0.48761 0.80964 0.93468 0.0
H1194 H 0.43176 0.80483 0.91865 0.0
H1195 H 0.38962 0.79157 0.91692 0.0
H1196 H 0.23224 0.78882 0.85334 0.0
H1197 H 0.28863 0.78378 0.86942 0.0
C1198 C 0.7453 0.45751 0.88839 0.0
C1199 C 0.74224 0.45004 0.90718 0.0
C1200 C 0.77763 0.46049 0.87964 0.0
C1201 C 0.84633 0.45838 0.85128 0.0
H1202 H 0.925 0.45859 0.89756 0.0
C1203 C 0.978 0.44517 0.81957 0.0
C1204 C 0.00766 0.44954 0.82968 0.0
C1205 C 0.94579 0.44828 0.82764 0.0
C1206 C 0.90335 0.45877 0.88434 0.0
H1207 H 0.77056 0.4402 0.93252 0.0
H1208 H 0.82645 0.44534 0.91739 0.0
H1209 H 0.86762 0.45887 0.91615 0.0
H1210 H 0.02684 0.46088 0.85549 0.0
H1211 H 0.97014 0.46629 0.86997 0.0
H1212 H 0.88207 0.45791 0.81951 0.0
C1213 C 0.80414 0.44896 0.90941 0.0
C1214 C 0.87046 0.45883 0.895 0.0
C1215 C 0.77202 0.44593 0.9179 0.0
C1216 C 0.00441 0.45736 0.8474 0.0
C1217 C 0.97201 0.46043 0.85573 0.0
C1218 C 0.87922 0.45829 0.84063 0.0
C1219 C 0.80738 0.45613 0.88983 0.0
C1220 C 0.84163 0.45824 0.87861 0.0
C1221 C 0.94236 0.45582 0.84617 0.0
C1222 C 0.90807 0.45808 0.85707 0.0
H1223 H 0.72278 0.46081 0.87981 0.0
H1224 H 0.77936 0.46606 0.86458 0.0
H1225 H 0.82469 0.4579 0.83812 0.0
H1226 H 0.9796 0.43915 0.80578 0.0
H1227 H 0.92358 0.44447 0.82018 0.0
C1228 C 0.48182 0.44508 0.32117 0.0
C1229 C 0.5117 0.44952 0.33069 0.0
C1230 C 0.44981 0.44828 0.32942 0.0
C1231 C 0.38379 0.45863 0.34223 0.0
H1232 H 0.37251 0.4589 0.41779 0.0
C1233 C 0.25018 0.45759 0.39059 0.0
C1234 C 0.24736 0.44987 0.40867 0.0
C1235 C 0.28241 0.46068 0.38189 0.0
C1236 C 0.37528 0.45897 0.39664 0.0
H1237 H 0.53149 0.46101 0.35572 0.0
H1238 H 0.47504 0.46653 0.37069 0.0
H1239 H 0.42985 0.45868 0.39903 0.0
H1240 H 0.27596 0.4397 0.43285 0.0
H1241 H 0.33169 0.44507 0.41788 0.0
H1242 H 0.32923 0.45829 0.33986 0.0
C1243 C 0.47663 0.46059 0.35668 0.0
C1244 C 0.40812 0.45893 0.3859 0.0
C1245 C 0.50886 0.45745 0.3481 0.0
C1246 C 0.27726 0.44562 0.41876 0.0
C1247 C 0.30927 0.44877 0.41039 0.0
C1248 C 0.35095 0.45872 0.35297 0.0
C1249 C 0.44679 0.45595 0.34759 0.0
C1250 C 0.41269 0.45832 0.35861 0.0
C1251 C 0.31227 0.45621 0.39151 0.0
C1252 C 0.34638 0.45845 0.3803 0.0
H1253 H 0.48312 0.43899 0.30761 0.0
H1254 H 0.42741 0.44445 0.32236 0.0
H1255 H 0.38656 0.45829 0.3211 0.0
H1256 H 0.22754 0.461 0.38252 0.0
H1257 H 0.28398 0.46644 0.36734 0.0
C1258 C 0.74529 0.79073 0.34261 0.0
C1259 C 0.73408 0.80047 0.34433 0.0
C1260 C 0.77739 0.78807 0.35262 0.0
C1261 C 0.84179 0.79519 0.40051 0.0
H1262 H 0.91194 0.78825 0.35011 0.0
C1263 C 0.97863 0.80748 0.41328 0.0
C1264 C 0.00604 0.80139 0.4063 0.0
C1265 C 0.94512 0.80468 0.40822 0.0
C1266 C 0.89259 0.78993 0.36461 0.0
H1267 H 0.74666 0.81496 0.35867 0.0
H1268 H 0.80174 0.81026 0.37685 0.0
H1269 H 0.85168 0.78783 0.33707 0.0
H1270 H 0.01972 0.78753 0.38851 0.0
H1271 H 0.96048 0.78263 0.37931 0.0
H1272 H 0.88235 0.79769 0.42775 0.0
C1273 C 0.78615 0.80471 0.36752 0.0
C1274 C 0.85815 0.78968 0.35714 0.0
C1275 C 0.75474 0.8074 0.357 0.0
C1276 C 0.99909 0.79237 0.39412 0.0
C1277 C 0.96527 0.78958 0.38883 0.0
C1278 C 0.87602 0.79535 0.40803 0.0
C1279 C 0.79799 0.79507 0.36515 0.0
C1280 C 0.83268 0.79274 0.37472 0.0
C1281 C 0.93793 0.79571 0.39598 0.0
C1282 C 0.9019 0.79321 0.38978 0.0
H1283 H 0.72983 0.78528 0.33277 0.0
H1284 H 0.78617 0.7806 0.35052 0.0
H1285 H 0.82252 0.79751 0.41444 0.0
H1286 H 0.98296 0.81448 0.42266 0.0
H1287 H 0.92477 0.80968 0.41343 0.0
C1288 C 0.75445 0.20657 0.1374 0.0
C1289 C 0.75722 0.19874 0.15516 0.0
C1290 C 0.72234 0.20945 0.12793 0.0
C1291 C 0.62927 0.20711 0.14072 0.0
H1292 H 0.61997 0.20766 0.065 0.0
C1293 C 0.52358 0.19504 0.06186 0.0
C1294 C 0.49375 0.1992 0.07233 0.0
C1295 C 0.55567 0.198 0.07064 0.0
C1296 C 0.62218 0.20763 0.08619 0.0
H1297 H 0.72856 0.18809 0.17778 0.0
H1298 H 0.67305 0.19311 0.16149 0.0
H1299 H 0.67683 0.20732 0.08467 0.0
H1300 H 0.47418 0.21004 0.09945 0.0
H1301 H 0.53063 0.21517 0.11515 0.0
H1302 H 0.57469 0.20683 0.14225 0.0
C1303 C 0.69542 0.19706 0.15485 0.0
C1304 C 0.65475 0.20753 0.09746 0.0
C1305 C 0.72733 0.19412 0.164 0.0
C1306 C 0.49674 0.20669 0.09106 0.0
C1307 C 0.529 0.2096 0.10009 0.0
C1308 C 0.59673 0.20726 0.12947 0.0
C1309 C 0.69252 0.20465 0.13643 0.0
C1310 C 0.6586 0.20687 0.12481 0.0
C1311 C 0.55879 0.20516 0.09027 0.0
C1312 C 0.59283 0.20713 0.10206 0.0
H1313 H 0.77707 0.21026 0.13026 0.0
H1314 H 0.72085 0.21534 0.11376 0.0
H1315 H 0.63148 0.20674 0.16189 0.0
H1316 H 0.52216 0.18928 0.0473 0.0
H1317 H 0.578 0.19432 0.06292 0.0
C1318 C 0.23145 0.55295 0.07335 0.0
C1319 C 0.2613 0.54848 0.08281 0.0
C1320 C 0.19943 0.54981 0.08171 0.0
C1321 C 0.15781 0.53919 0.13836 0.0
H1322 H 0.07873 0.54005 0.09255 0.0
C1323 C 0.99983 0.54086 0.14294 0.0
C1324 C 0.99716 0.54846 0.16138 0.0
C1325 C 0.032 0.5377 0.1343 0.0
C1326 C 0.10049 0.53956 0.10561 0.0
H1327 H 0.281 0.53698 0.10786 0.0
H1328 H 0.22454 0.53156 0.12301 0.0
H1329 H 0.13593 0.53997 0.07364 0.0
H1330 H 0.02596 0.55833 0.18632 0.0
H1331 H 0.08159 0.55287 0.1714 0.0
H1332 H 0.12236 0.53919 0.17036 0.0
C1333 C 0.22616 0.53749 0.10897 0.0
C1334 C 0.13327 0.53961 0.09477 0.0
C1335 C 0.2584 0.54057 0.10028 0.0
C1336 C 0.02713 0.5525 0.17195 0.0
C1337 C 0.0591 0.54929 0.16359 0.0
C1338 C 0.12502 0.53917 0.1492 0.0
C1339 C 0.19636 0.54216 0.09995 0.0
C1340 C 0.16225 0.53984 0.11106 0.0
C1341 C 0.06197 0.54201 0.14428 0.0
C1342 C 0.09604 0.53977 0.13296 0.0
H1343 H 0.2328 0.55903 0.05975 0.0
H1344 H 0.17707 0.55367 0.0747 0.0
H1345 H 0.17961 0.53938 0.15143 0.0
H1346 H 0.97714 0.5376 0.13449 0.0
H1347 H 0.03344 0.53205 0.11946 0.0
C1348 C 0.75187 0.54196 0.60031 0.0
C1349 C 0.75536 0.54994 0.58314 0.0
C1350 C 0.71939 0.53894 0.60861 0.0
C1351 C 0.62692 0.54125 0.59331 0.0
H1352 H 0.6142 0.54017 0.66869 0.0
C1353 C 0.51803 0.55285 0.66993 0.0
C1354 C 0.48862 0.54862 0.65897 0.0
C1355 C 0.55042 0.55 0.66161 0.0
C1356 C 0.61737 0.54034 0.64757 0.0
H1357 H 0.7276 0.56072 0.56029 0.0
H1358 H 0.67143 0.55547 0.57458 0.0
H1359 H 0.6719 0.54066 0.6506 0.0
H1360 H 0.47008 0.53782 0.63129 0.0
H1361 H 0.52714 0.5329 0.61631 0.0
H1362 H 0.57241 0.54154 0.59034 0.0
C1363 C 0.69354 0.5515 0.58164 0.0
C1364 C 0.65042 0.54053 0.63721 0.0
C1365 C 0.72582 0.55458 0.57366 0.0
C1366 C 0.49232 0.54121 0.64006 0.0
C1367 C 0.52491 0.53842 0.63146 0.0
C1368 C 0.59388 0.54102 0.60367 0.0
C1369 C 0.6899 0.54375 0.5995 0.0
C1370 C 0.65551 0.5414 0.61002 0.0
C1371 C 0.55429 0.54289 0.64194 0.0
C1372 C 0.58877 0.54096 0.63095 0.0
H1373 H 0.77421 0.53824 0.6079 0.0
H1374 H 0.71732 0.53293 0.62236 0.0
H1375 H 0.63009 0.54179 0.57224 0.0
H1376 H 0.51606 0.55854 0.68465 0.0
H1377 H 0.57244 0.55369 0.66981 0.0
C1378 C 0.00154 0.20692 0.59007 0.0
C1379 C 0.99408 0.19827 0.5763 0.0
C1380 C 0.03553 0.20946 0.59562 0.0
C1381 C 0.12486 0.20353 0.57604 0.0
H1382 H 0.14817 0.20983 0.64804 0.0
C1383 C 0.24419 0.19017 0.62808 0.0
C1384 C 0.26533 0.19695 0.64084 0.0
C1385 C 0.21305 0.19308 0.61746 0.0
C1386 C 0.14199 0.20831 0.62772 0.0
H1387 H 0.01644 0.18561 0.55718 0.0
H1388 H 0.07489 0.18993 0.56697 0.0
H1389 H 0.08822 0.20995 0.63427 0.0
H1390 H 0.27071 0.21211 0.65252 0.0
H1391 H 0.21487 0.21717 0.63463 0.0
H1392 H 0.17835 0.20112 0.5701 0.0
C1393 C 0.05486 0.19487 0.57321 0.0
C1394 C 0.10772 0.20838 0.61981 0.0
C1395 C 0.02118 0.19233 0.56782 0.0
C1396 C 0.25488 0.20677 0.64261 0.0
C1397 C 0.22306 0.20965 0.63251 0.0
C1398 C 0.15892 0.20335 0.58401 0.0
C1399 C 0.06256 0.20344 0.58723 0.0
C1400 C 0.09871 0.20556 0.59417 0.0
C1401 C 0.20199 0.20279 0.61986 0.0
C1402 C 0.16762 0.20538 0.61013 0.0
H1403 H 0.98118 0.21165 0.59686 0.0
H1404 H 0.04066 0.21612 0.60646 0.0
H1405 H 0.11884 0.20155 0.55597 0.0
H1406 H 0.25168 0.18257 0.62638 0.0
H1407 H 0.19707 0.18765 0.608 0.0
C1408 C 0.93101 0.2241 0.19773 0.0
C1409 C 0.95239 0.216 0.19339 0.0
C1410 C 0.94364 0.23249 0.21007 0.0
C1411 C 0.02286 0.2454 0.22982 0.0
H1412 H 0.96651 0.25528 0.28651 0.0
C1413 C 0.074 0.27452 0.30125 0.0
C1414 C 0.05196 0.28242 0.3062 0.0
C1415 C 0.06173 0.26601 0.28928 0.0
C1416 C 0.98246 0.25267 0.27063 0.0
H1417 H 0.00432 0.21064 0.19696 0.0
H1418 H 0.0263 0.22527 0.21827 0.0
H1419 H 0.94552 0.24196 0.2591 0.0
H1420 H 0.99929 0.28729 0.30416 0.0
H1421 H 0.97802 0.27251 0.28332 0.0
H1422 H 0.05973 0.25614 0.24121 0.0
C1423 C 0.99979 0.22514 0.21223 0.0
C1424 C 0.97036 0.24506 0.25483 0.0
C1425 C 0.98715 0.21674 0.20003 0.0
C1426 C 0.017 0.28135 0.30063 0.0
C1427 C 0.00475 0.27285 0.28867 0.0
C1428 C 0.03493 0.25303 0.24557 0.0
C1429 C 0.97793 0.23299 0.21817 0.0
C1430 C 0.99039 0.24134 0.23422 0.0
C1431 C 0.02716 0.2652 0.28206 0.0
C1432 C 0.01489 0.25676 0.26618 0.0
H1433 H 0.90411 0.22377 0.19287 0.0
H1434 H 0.92631 0.2385 0.21394 0.0
H1435 H 0.0388 0.24276 0.21396 0.0
H1436 H 0.10107 0.2751 0.30533 0.0
H1437 H 0.07954 0.26016 0.28498 0.0
C1438 C 0.23882 0.96603 0.29242 0.0
C1439 C 0.20403 0.9654 0.299 0.0
C1440 C 0.2518 0.9744 0.28024 0.0
C1441 C 0.23232 0.00028 0.26342 0.0
H1442 H 0.29291 0.99524 0.2047 0.0
C1443 C 0.26728 0.0307 0.19066 0.0
C1444 C 0.30228 0.03177 0.1852 0.0
C1445 C 0.25508 0.02227 0.20299 0.0
C1446 C 0.27621 0.99677 0.22113 0.0
H1447 H 0.15604 0.9733 0.29939 0.0
H1448 H 0.17857 0.98787 0.27799 0.0
H1449 H 0.27329 0.98168 0.23186 0.0
H1450 H 0.35149 0.02452 0.18671 0.0
H1451 H 0.33011 0.00977 0.20808 0.0
H1452 H 0.23505 0.01537 0.25252 0.0
C1453 C 0.19595 0.98193 0.28238 0.0
C1454 C 0.26508 0.98901 0.23682 0.0
C1455 C 0.183 0.97357 0.2947 0.0
C1456 C 0.32438 0.02392 0.19059 0.0
C1457 C 0.31212 0.01547 0.20289 0.0
C1458 C 0.24334 0.00803 0.24767 0.0
C1459 C 0.23027 0.98232 0.27424 0.0
C1460 C 0.243 0.99066 0.25818 0.0
C1461 C 0.27754 0.0147 0.21006 0.0
C1462 C 0.26534 0.00637 0.22631 0.0
H1463 H 0.25578 0.95989 0.29561 0.0
H1464 H 0.27854 0.97455 0.27485 0.0
H1465 H 0.21571 0.00184 0.27988 0.0
H1466 H 0.2495 0.03658 0.18665 0.0
H1467 H 0.22816 0.0218 0.20771 0.0
C1468 C 0.98912 0.03133 0.0495 0.0
C1469 C 0.9542 0.03238 0.05525 0.0
C1470 C 1.00117 0.02297 0.03677 0.0
C1471 C 0.97844 0.99765 0.01683 0.0
H1472 H 0.04092 0.00285 0.95939 0.0
C1473 C 0.01188 0.96776 0.942 0.0
C1474 C 0.0468 0.96655 0.93648 0.0
C1475 C 1.00022 0.97612 0.95496 0.0
C1476 C 0.02369 0.00126 0.97546 0.0
H1477 H 0.90493 0.02516 0.05369 0.0
H1478 H 0.92591 0.01058 0.03144 0.0
H1479 H 0.02252 0.01622 0.9877 0.0
H1480 H 0.09651 0.9735 0.93866 0.0
H1481 H 0.07614 0.98811 0.9612 0.0
H1482 H 0.97953 0.9827 0.00452 0.0
C1483 C 0.94406 0.01621 0.03683 0.0
C1484 C 0.01325 0.00891 0.9918 0.0
C1485 C 0.93201 0.02458 0.04965 0.0
C1486 C 0.06943 0.97421 0.94253 0.0
C1487 C 0.05774 0.98259 0.95551 0.0
C1488 C 0.98885 0.99 0.00047 0.0
C1489 C 0.97858 0.01546 0.02943 0.0
C1490 C 0.99051 0.00721 0.0127 0.0
C1491 C 0.02319 0.98348 0.96268 0.0
C1492 C 0.01154 0.99171 0.97956 0.0
H1493 H 0.00696 0.03718 0.05368 0.0
H1494 H 0.02805 0.02252 0.03195 0.0
H1495 H 0.96123 0.99605 0.0329 0.0
H1496 H 0.9937 0.96203 0.93749 0.0
H1497 H 0.97332 0.97669 0.95963 0.0
C1498 C 0.32658 0.22371 0.0452 0.0
C1499 C 0.3043 0.21594 0.05098 0.0
C1500 C 0.31425 0.23225 0.03338 0.0
C1501 C 0.24417 0.24003 0.99033 0.0
H1502 H 0.27558 0.26626 0.00596 0.0
C1503 C 0.18314 0.27472 0.94525 0.0
C1504 C 0.20424 0.28284 0.94056 0.0
C1505 C 0.19632 0.26631 0.95719 0.0
C1506 C 0.26695 0.25896 0.00105 0.0
H1507 H 0.25124 0.21136 0.05078 0.0
H1508 H 0.2298 0.22628 0.03053 0.0
H1509 H 0.29576 0.25257 0.03243 0.0
H1510 H 0.25623 0.28825 0.9429 0.0
H1511 H 0.27935 0.27351 0.96301 0.0
H1512 H 0.21558 0.24637 0.95884 0.0
C1513 C 0.25688 0.22569 0.03458 0.0
C1514 C 0.2784 0.25113 0.01635 0.0
C1515 C 0.26915 0.21718 0.04643 0.0
C1516 C 0.23923 0.28213 0.9464 0.0
C1517 C 0.25243 0.27372 0.95821 0.0
C1518 C 0.23284 0.24785 0.97497 0.0
C1519 C 0.27943 0.23317 0.02709 0.0
C1520 C 0.26699 0.24158 0.01124 0.0
C1521 C 0.23091 0.26584 0.96456 0.0
C1522 C 0.24401 0.25742 0.98017 0.0
H1523 H 0.35381 0.22299 0.04839 0.0
H1524 H 0.33229 0.23789 0.02785 0.0
H1525 H 0.23545 0.23273 0.98554 0.0
H1526 H 0.15603 0.27504 0.94112 0.0
H1527 H 0.17895 0.2604 0.96188 0.0
C1528 C 0.99362 0.716 0.69775 0.0
C1529 C 0.95884 0.71539 0.69108 0.0
C1530 C 0.00667 0.7244 0.70974 0.0
C1531 C 0.97814 0.74466 0.7516 0.0
H1532 H 0.06787 0.7554 0.73745 0.0
C1533 C 0.02534 0.78125 0.79499 0.0
C1534 C 0.06028 0.78234 0.80059 0.0
C1535 C 0.01303 0.77265 0.78361 0.0
C1536 C 0.04298 0.75239 0.74196 0.0
H1537 H 0.91097 0.72336 0.69028 0.0
H1538 H 0.93389 0.73807 0.71094 0.0
H1539 H 0.04656 0.74187 0.71092 0.0
H1540 H 0.10932 0.77498 0.80032 0.0
H1541 H 0.08768 0.75987 0.78094 0.0
H1542 H 0.97456 0.75513 0.78269 0.0
C1543 C 0.95091 0.73198 0.70729 0.0
C1544 C 0.03069 0.74467 0.72662 0.0
C1545 C 0.93788 0.72359 0.69517 0.0
C1546 C 0.08226 0.77438 0.7962 0.0
C1547 C 0.06993 0.76576 0.7848 0.0
C1548 C 0.99046 0.75235 0.76699 0.0
C1549 C 0.98521 0.73236 0.71542 0.0
C1550 C 0.99806 0.74074 0.73118 0.0
C1551 C 0.03536 0.76492 0.77759 0.0
C1552 C 0.02299 0.75634 0.76231 0.0
H1553 H 0.01048 0.70981 0.69489 0.0
H1554 H 0.03318 0.72444 0.71581 0.0
H1555 H 0.95319 0.74166 0.75599 0.0
H1556 H 0.00768 0.78724 0.7981 0.0
H1557 H 0.98631 0.77229 0.77823 0.0
C1558 C 0.73627 0.96555 0.78414 0.0
C1559 C 0.70208 0.96496 0.79237 0.0
C1560 C 0.74867 0.97404 0.77224 0.0
C1561 C 0.72996 0.00027 0.7603 0.0
H1562 H 0.78637 0.99626 0.69862 0.0
C1563 C 0.76484 0.03226 0.69266 0.0
C1564 C 0.79963 0.03311 0.68623 0.0
C1565 C 0.75213 0.02363 0.70359 0.0
C1566 C 0.77083 0.9975 0.71588 0.0
H1567 H 0.65456 0.97299 0.79578 0.0
H1568 H 0.67611 0.98779 0.77484 0.0
H1569 H 0.76693 0.98219 0.72397 0.0
H1570 H 0.84782 0.02533 0.68452 0.0
H1571 H 0.82557 0.01024 0.70353 0.0
H1572 H 0.73379 0.01557 0.75214 0.0
C1573 C 0.69345 0.98172 0.77774 0.0
C1574 C 0.7598 0.98945 0.73051 0.0
C1575 C 0.68107 0.97323 0.78976 0.0
C1576 C 0.82088 0.02491 0.68921 0.0
C1577 C 0.80813 0.01626 0.70013 0.0
C1578 C 0.7409 0.00831 0.74563 0.0
C1579 C 0.72714 0.98212 0.76818 0.0
C1580 C 0.7393 0.99073 0.75295 0.0
C1581 C 0.77388 0.01565 0.7083 0.0
C1582 C 0.76145 0.00703 0.72325 0.0
H1583 H 0.7532 0.95932 0.78601 0.0
H1584 H 0.77498 0.97418 0.7657 0.0
H1585 H 0.71459 0.00153 0.77764 0.0
H1586 H 0.7477 0.03842 0.69047 0.0
H1587 H 0.72545 0.02332 0.70912 0.0
C1588 C 0.74029 0.78079 0.94029 0.0
C1589 C 0.70519 0.78209 0.93571 0.0
C1590 C 0.75224 0.77239 0.95292 0.0
C1591 C 0.72887 0.74736 0.97437 0.0
H1592 H 0.79359 0.7526 0.03031 0.0
C1593 C 0.76544 0.71747 0.04841 0.0
C1594 C 0.80055 0.71635 0.05332 0.0
C1595 C 0.75313 0.72581 0.03572 0.0
C1596 C 0.77575 0.75099 0.01465 0.0
H1597 H 0.65539 0.77527 0.93907 0.0
H1598 H 0.67626 0.7606 0.96106 0.0
H1599 H 0.77459 0.76591 0.00205 0.0
H1600 H 0.84995 0.72344 0.05035 0.0
H1601 H 0.8285 0.73799 0.02821 0.0
H1602 H 0.73009 0.73243 0.98693 0.0
C1603 C 0.69457 0.76607 0.9549 0.0
C1604 C 0.76495 0.75861 -0.00164 0.0
C1605 C 0.6826 0.77448 0.94224 0.0
C1606 C 0.82274 0.72408 0.04695 0.0
C1607 C 0.81042 0.73242 0.0342 0.0
C1608 C 0.73971 0.73973 0.99065 0.0
C1609 C 0.72937 0.7651 0.96124 0.0
C1610 C 0.74144 0.75689 0.97799 0.0
C1611 C 0.77563 0.73323 0.02763 0.0
C1612 C 0.76328 0.74145 0.011 0.0
H1613 H 0.75843 0.78648 0.93537 0.0
H1614 H 0.77931 0.77176 0.95693 0.0
H1615 H 0.711 0.74576 0.95873 0.0
H1616 H 0.74761 0.71168 0.05319 0.0
H1617 H 0.72607 0.72632 0.03154 0.0
C1618 C 0.26042 0.53079 0.69237 0.0
C1619 C 0.29552 0.53181 0.68728 0.0
C1620 C 0.24791 0.52244 0.70492 0.0
C1621 C 0.26969 0.49713 0.72528 0.0
H1622 H 0.2057 0.50241 0.78167 0.0
C1623 C 0.2334 0.46725 0.79923 0.0
C1624 C 0.19829 0.46609 0.80403 0.0
C1625 C 0.24564 0.47562 0.78663 0.0
C1626 C 0.22335 0.5008 0.76589 0.0
H1627 H 0.34468 0.52457 0.6898 0.0
H1628 H 0.32288 0.51001 0.71173 0.0
H1629 H 0.22518 0.51576 0.75371 0.0
H1630 H 0.14879 0.47311 0.801 0.0
H1631 H 0.17018 0.48773 0.77904 0.0
H1632 H 0.26792 0.48217 0.73751 0.0
C1633 C 0.30496 0.51565 0.70597 0.0
C1634 C 0.23441 0.50844 0.74976 0.0
C1635 C 0.31748 0.524 0.69334 0.0
C1636 C 0.17601 0.47379 0.79766 0.0
C1637 C 0.18827 0.48217 0.78503 0.0
C1638 C 0.25866 0.48949 0.74142 0.0
C1639 C 0.27022 0.51493 0.71271 0.0
C1640 C 0.25769 0.5067 0.72924 0.0
C1641 C 0.22307 0.48302 0.77855 0.0
C1642 C 0.23541 0.49124 0.76195 0.0
H1643 H 0.24276 0.53664 0.68782 0.0
H1644 H 0.22088 0.522 0.70924 0.0
H1645 H 0.28732 0.49551 0.70949 0.0
H1646 H 0.25131 0.46148 0.80403 0.0
H1647 H 0.27271 0.47616 0.78249 0.0
C1648 C 0.01743 0.46664 0.44687 0.0
C1649 C 0.05235 0.46593 0.44078 0.0
C1650 C 0.00439 0.47507 0.45867 0.0
C1651 C 0.0232 0.50099 0.47445 0.0
H1652 H 0.96317 0.49616 0.53363 0.0
C1653 C 0.98587 0.53196 0.54483 0.0
C1654 C 0.95097 0.53271 0.55093 0.0
C1655 C 0.99877 0.52352 0.53296 0.0
C1656 C 0.97967 0.49764 0.51705 0.0
H1657 H 0.10053 0.47375 0.44077 0.0
H1658 H 0.07777 0.48846 0.4614 0.0
H1659 H 0.98337 0.48247 0.50721 0.0
H1660 H 0.90266 0.52496 0.55089 0.0
H1661 H 0.92518 0.51023 0.53015 0.0
H1662 H 0.01953 0.51616 0.48431 0.0
C1663 C 0.06042 0.48251 0.457 0.0
C1664 C 0.99116 0.4898 0.50182 0.0
C1665 C 0.07348 0.47407 0.44513 0.0
C1666 C 0.9297 0.5246 0.54652 0.0
C1667 C 0.94262 0.51615 0.53459 0.0
C1668 C 0.01173 0.50883 0.48969 0.0
C1669 C 0.02596 0.48297 0.46468 0.0
C1670 C 0.01304 0.49138 0.48032 0.0
C1671 C 0.97707 0.51566 0.52689 0.0
C1672 C 0.98987 0.50725 0.5112 0.0
H1673 H 1.00038 0.46052 0.44362 0.0
H1674 H 0.97755 0.47529 0.46377 0.0
H1675 H 0.03971 0.50247 0.45787 0.0
H1676 H 0.00302 0.53805 0.54812 0.0
H1677 H 0.0256 0.52328 0.52786 0.0
C1678 C 0.31949 0.72282 0.54242 0.0
C1679 C 0.29792 0.71474 0.54638 0.0
C1680 C 0.30712 0.7313 0.53036 0.0
C1681 C 0.23922 0.73892 0.48458 0.0
H1682 H 0.26879 0.76511 0.5026 0.0
C1683 C 0.18103 0.77412 0.43941 0.0
C1684 C 0.20307 0.78207 0.43514 0.0
C1685 C 0.19304 0.76559 0.45147 0.0
C1686 C 0.26066 0.75783 0.49709 0.0
H1687 H 0.24586 0.7095 0.54256 0.0
H1688 H 0.22418 0.72435 0.52211 0.0
H1689 H 0.28754 0.75131 0.52923 0.0
H1690 H 0.25554 0.78703 0.43834 0.0
H1691 H 0.27653 0.77212 0.45888 0.0
H1692 H 0.21226 0.74545 0.45246 0.0
C1693 C 0.25086 0.72404 0.52766 0.0
C1694 C 0.27132 0.74992 0.51243 0.0
C1695 C 0.26323 0.71557 0.53964 0.0
C1696 C 0.23781 0.78107 0.44152 0.0
C1697 C 0.2498 0.77256 0.45354 0.0
C1698 C 0.22851 0.74683 0.46926 0.0
C1699 C 0.2729 0.73189 0.52209 0.0
C1700 C 0.26074 0.74037 0.50636 0.0
C1701 C 0.22734 0.76485 0.45945 0.0
C1702 C 0.23919 0.75637 0.47529 0.0
H1703 H 0.34638 0.72241 0.54728 0.0
H1704 H 0.32483 0.73719 0.5263 0.0
H1705 H 0.23112 0.73163 0.47903 0.0
H1706 H 0.15409 0.77467 0.43482 0.0
H1707 H 0.17505 0.75979 0.45578 0.0
C1708 C 0.68493 0.47383 0.29126 0.0
C1709 C 0.70632 0.46575 0.29588 0.0
C1710 C 0.69771 0.48223 0.27906 0.0
C1711 C 0.77717 0.4952 0.26033 0.0
H1712 H 0.72187 0.50503 0.20294 0.0
C1713 C 0.82922 0.52448 0.18985 0.0
C1714 C 0.80715 0.53237 0.18489 0.0
C1715 C 0.81686 0.51591 0.20146 0.0
C1716 C 0.73753 0.50243 0.21901 0.0
H1717 H 0.75838 0.46044 0.29299 0.0
H1718 H 0.78063 0.47509 0.27192 0.0
H1719 H 0.70051 0.49167 0.23004 0.0
H1720 H 0.75438 0.53717 0.18647 0.0
H1721 H 0.73295 0.5223 0.20671 0.0
H1722 H 0.81409 0.50599 0.24944 0.0
C1723 C 0.75399 0.47493 0.27763 0.0
C1724 C 0.72521 0.4948 0.23463 0.0
C1725 C 0.7412 0.46652 0.2897 0.0
C1726 C 0.77211 0.53124 0.19005 0.0
C1727 C 0.75977 0.52268 0.20164 0.0
C1728 C 0.78945 0.50285 0.24476 0.0
C1729 C 0.73217 0.48275 0.2714 0.0
C1730 C 0.74486 0.49111 0.2555 0.0
C1731 C 0.78218 0.51504 0.2083 0.0
C1732 C 0.76977 0.50656 0.22391 0.0
H1733 H 0.65793 0.47347 0.29577 0.0
H1734 H 0.6804 0.48822 0.27497 0.0
H1735 H 0.7928 0.49258 0.27639 0.0
H1736 H 0.85635 0.5251 0.18607 0.0
H1737 H 0.83467 0.51007 0.20582 0.0
C1738 C 0.7633 0.21833 0.54852 0.0
C1739 C 0.7983 0.21714 0.55376 0.0
C1740 C 0.75145 0.22667 0.53559 0.0
C1741 C 0.7745 0.25177 0.51463 0.0
H1742 H 0.71163 0.2464 0.45755 0.0
C1743 C 0.73899 0.28167 0.44042 0.0
C1744 C 0.70399 0.2827 0.43497 0.0
C1745 C 0.75125 0.27333 0.45313 0.0
C1746 C 0.72896 0.24805 0.47352 0.0
H1747 H 0.84795 0.2241 0.5512 0.0
H1748 H 0.82723 0.23868 0.52871 0.0
H1749 H 0.73031 0.23312 0.48603 0.0
H1750 H 0.65478 0.27546 0.43694 0.0
H1751 H 0.67614 0.26091 0.45914 0.0
H1752 H 0.77308 0.26671 0.50219 0.0
C1753 C 0.80893 0.23316 0.53458 0.0
C1754 C 0.73957 0.24044 0.48994 0.0
C1755 C 0.82082 0.2248 0.54753 0.0
C1756 C 0.68191 0.27489 0.44077 0.0
C1757 C 0.69418 0.26654 0.45355 0.0
C1758 C 0.76386 0.25939 0.49824 0.0
C1759 C 0.77429 0.23402 0.52764 0.0
C1760 C 0.76242 0.24221 0.51072 0.0
C1761 C 0.72879 0.26582 0.4607 0.0
C1762 C 0.74096 0.25762 0.47747 0.0
H1763 H 0.74521 0.21259 0.55319 0.0
H1764 H 0.72448 0.22723 0.5311 0.0
H1765 H 0.79184 0.25341 0.5306 0.0
H1766 H 0.75674 0.28753 0.43607 0.0
H1767 H 0.7782 0.27289 0.45775 0.0
C1768 C 0.57181 0.27428 0.79737 0.0
C1769 C 0.55007 0.28235 0.80088 0.0
C1770 C 0.55962 0.2657 0.7857 0.0
C1771 C 0.49316 0.25795 0.7393 0.0
H1772 H 0.52032 0.23173 0.75919 0.0
C1773 C 0.43457 0.22302 0.69339 0.0
C1774 C 0.45578 0.21481 0.69049 0.0
C1775 C 0.44681 0.23149 0.70558 0.0
C1776 C 0.51291 0.23902 0.75313 0.0
H1777 H 0.49789 0.28747 0.79681 0.0
H1778 H 0.47662 0.27248 0.77687 0.0
H1779 H 0.53895 0.24561 0.7856 0.0
H1780 H 0.50716 0.20929 0.6963 0.0
H1781 H 0.5287 0.22413 0.7169 0.0
H1782 H 0.46731 0.25138 0.70674 0.0
C1783 C 0.50324 0.27286 0.78255 0.0
C1784 C 0.52346 0.24696 0.76837 0.0
C1785 C 0.51539 0.28142 0.79422 0.0
C1786 C 0.49007 0.21547 0.69842 0.0
C1787 C 0.50234 0.22394 0.71048 0.0
C1788 C 0.48269 0.25001 0.72402 0.0
C1789 C 0.52548 0.26503 0.77732 0.0
C1790 C 0.51363 0.25652 0.76166 0.0
C1791 C 0.48056 0.23193 0.71499 0.0
C1792 C 0.49244 0.24044 0.73073 0.0
H1793 H 0.59868 0.27477 0.80222 0.0
H1794 H 0.57741 0.2598 0.78192 0.0
H1795 H 0.48572 0.26524 0.73329 0.0
H1796 H 0.40797 0.22273 0.68761 0.0
H1797 H 0.42929 0.2375 0.70881 0.0
C1798 C 0.43342 0.02487 0.54074 0.0
C1799 C 0.45486 0.03288 0.54586 0.0
C1800 C 0.44635 0.01646 0.52866 0.0
C1801 C 0.51739 0.00897 0.4854 0.0
H1802 H 0.48451 0.98281 0.50021 0.0
C1803 C 0.57652 0.97352 0.44209 0.0
C1804 C 0.55398 0.96586 0.43587 0.0
C1805 C 0.56431 0.98211 0.45367 0.0
C1806 C 0.49361 0.99009 0.49562 0.0
H1807 H 0.50713 0.03809 0.54413 0.0
H1808 H 0.52983 0.02334 0.5238 0.0
H1809 H 0.4647 0.99647 0.52686 0.0
H1810 H 0.50065 0.96154 0.43495 0.0
H1811 H 0.47944 0.97655 0.45482 0.0
H1812 H 0.54657 0.00253 0.4543 0.0
C1813 C 0.50284 0.02365 0.52835 0.0
C1814 C 0.48232 0.99792 0.51095 0.0
C1815 C 0.48988 0.03206 0.54028 0.0
C1816 C 0.51876 0.96727 0.43968 0.0
C1817 C 0.5066 0.97583 0.45129 0.0
C1818 C 0.52881 0.00112 0.47015 0.0
C1819 C 0.48103 0.01588 0.52161 0.0
C1820 C 0.49399 0.00746 0.506 0.0
C1821 C 0.52936 0.98319 0.45928 0.0
C1822 C 0.51691 0.99161 0.47501 0.0
H1823 H 0.40627 0.02529 0.54466 0.0
H1824 H 0.42877 0.01064 0.52366 0.0
H1825 H 0.52641 0.01624 0.48069 0.0
H1826 H 0.6038 0.97266 0.43946 0.0
H1827 H 0.58248 0.98766 0.4596 0.0
C1828 C 0.50693 0.7825 0.28569 0.0
C1829 C 0.5413 0.78308 0.29347 0.0
C1830 C 0.49447 0.77411 0.27331 0.0
C1831 C 0.5144 0.74812 0.25819 0.0
H1832 H 0.45627 0.75282 0.1978 0.0
C1833 C 0.4821 0.71726 0.18633 0.0
C1834 C 0.44719 0.71606 0.18073 0.0
C1835 C 0.49394 0.72582 0.19816 0.0
C1836 C 0.47232 0.75139 0.21468 0.0
H1837 H 0.58908 0.77512 0.29565 0.0
H1838 H 0.56751 0.76053 0.27382 0.0
H1839 H 0.475 0.76655 0.22475 0.0
H1840 H 0.3978 0.72323 0.18127 0.0
H1841 H 0.41858 0.73824 0.20175 0.0
H1842 H 0.51197 0.73297 0.24792 0.0
C1843 C 0.55001 0.7665 0.27748 0.0
C1844 C 0.48291 0.75925 0.23026 0.0
C1845 C 0.56242 0.77488 0.29003 0.0
C1846 C 0.42484 0.72393 0.18531 0.0
C1847 C 0.43674 0.73252 0.19709 0.0
C1848 C 0.50397 0.74028 0.24254 0.0
C1849 C 0.51615 0.76613 0.26826 0.0
C1850 C 0.50407 0.75771 0.25222 0.0
C1851 C 0.47118 0.7334 0.20454 0.0
C1852 C 0.48287 0.74183 0.22059 0.0
H1853 H 0.48992 0.78867 0.28821 0.0
H1854 H 0.46803 0.77398 0.26708 0.0
H1855 H 0.53027 0.74665 0.27514 0.0
H1856 H 0.50007 0.71137 0.18291 0.0
H1857 H 0.52076 0.72638 0.20313 0.0
C1858 C 0.57396 0.47414 0.93748 0.0
C1859 C 0.55171 0.4663 0.93242 0.0
C1860 C 0.56193 0.48264 0.94965 0.0
C1861 C 0.48326 0.49609 0.96889 0.0
H1862 H 0.53978 0.50533 0.02629 0.0
C1863 C 0.43286 0.52435 0.04295 0.0
C1864 C 0.45468 0.53231 0.04781 0.0
C1865 C 0.44511 0.51598 0.0303 0.0
C1866 C 0.5238 0.50288 0.01023 0.0
H1867 H 0.49892 0.46153 0.93436 0.0
H1868 H 0.47805 0.47629 0.95553 0.0
H1869 H 0.56022 0.4921 -0.00168 0.0
H1870 H 0.50698 0.53743 0.04491 0.0
H1871 H 0.5283 0.52284 0.02303 0.0
H1872 H 0.44678 0.50684 0.9809 0.0
C1873 C 0.50476 0.47592 0.95014 0.0
C1874 C 0.53559 0.49533 0.99408 0.0
C1875 C 0.51677 0.46743 0.938 0.0
C1876 C 0.48948 0.53144 0.04144 0.0
C1877 C 0.50173 0.52306 0.0289 0.0
C1878 C 0.47144 0.50361 0.98507 0.0
C1879 C 0.52741 0.48348 0.95694 0.0
C1880 C 0.51546 0.49184 0.97321 0.0
C1881 C 0.47946 0.51537 0.0224 0.0
C1882 C 0.49156 0.50709 0.00596 0.0
H1883 H 0.60101 0.47352 0.93339 0.0
H1884 H 0.5799 0.48843 0.9541 0.0
H1885 H 0.46726 0.49365 0.95283 0.0
H1886 H 0.40592 0.52479 0.04761 0.0
H1887 H 0.42746 0.51009 0.02602 0.0
C1888 C 0.14778 0.31517 0.21742 0.0
C1889 C 0.11766 0.31476 0.23234 0.0
C1890 C 0.14629 0.3167 0.19039 0.0
C1891 C 0.08979 0.31277 0.13478 0.0
H1892 H 0.15479 0.32911 0.09767 0.0
C1893 C 0.08998 0.31519 0.02229 0.0
C1894 C 0.1222 0.31443 0.01034 0.0
C1895 C 0.08731 0.31678 0.04925 0.0
C1896 C 0.13657 0.32449 0.10778 0.0
H1897 H 0.06239 0.31592 0.23077 0.0
H1898 H 0.05989 0.31856 0.18349 0.0
H1899 H 0.15401 0.32915 0.1456 0.0
H1900 H 0.17689 0.31496 0.01714 0.0
H1901 H 0.17221 0.31752 0.06423 0.0
H1902 H 0.07308 0.30784 0.09716 0.0
C1903 C 0.08458 0.31763 0.19274 0.0
C1904 C 0.1361 0.32453 0.13515 0.0
C1905 C 0.08606 0.31615 0.21979 0.0
C1906 C 0.15168 0.31551 0.02576 0.0
C1907 C 0.14901 0.31706 0.05273 0.0
C1908 C 0.09035 0.3127 0.10745 0.0
C1909 C 0.11466 0.31782 0.17777 0.0
C1910 C 0.11307 0.31855 0.14888 0.0
C1911 C 0.1168 0.3176 0.06479 0.0
C1912 C 0.11413 0.31843 0.09367 0.0
H1913 H 0.17253 0.31416 0.22652 0.0
H1914 H 0.16986 0.3167 0.17926 0.0
H1915 H 0.07207 0.30799 0.14489 0.0
H1916 H 0.06677 0.31448 0.01089 0.0
H1917 H 0.06215 0.3173 0.05795 0.0
C1918 C 0.14251 0.93357 0.0223 0.0
C1919 C 0.11217 0.93394 0.00762 0.0
C1920 C 0.14143 0.93213 0.04937 0.0
C1921 C 0.08579 0.93625 0.10541 0.0
H1922 H 0.15119 0.91997 0.14228 0.0
C1923 C 0.08731 0.93378 0.21806 0.0
C1924 C 0.11968 0.93444 0.22984 0.0
C1925 C 0.08432 0.93232 0.19106 0.0
C1926 C 0.13288 0.92458 0.13224 0.0
H1927 H 0.05692 0.93279 0.00971 0.0
H1928 H 0.05513 0.93031 0.05708 0.0
H1929 H 0.14978 0.91983 0.09437 0.0
H1930 H 0.17428 0.93392 0.22262 0.0
H1931 H 0.16904 0.93157 0.17551 0.0
H1932 H 0.06959 0.94126 0.14311 0.0
C1933 C 0.07968 0.9312 0.04758 0.0
C1934 C 0.13204 0.92448 0.10488 0.0
C1935 C 0.08076 0.93259 0.02048 0.0
C1936 C 0.14896 0.93344 0.21416 0.0
C1937 C 0.14597 0.93201 0.18717 0.0
C1938 C 0.08672 0.93638 0.13275 0.0
C1939 C 0.10998 0.93106 0.0623 0.0
C1940 C 0.10883 0.93043 0.09122 0.0
C1941 C 0.11362 0.93152 0.17531 0.0
C1942 C 0.11064 0.93067 0.14644 0.0
H1943 H 0.16712 0.93455 0.01296 0.0
H1944 H 0.16516 0.93216 0.06029 0.0
H1945 H 0.06794 0.941 0.09537 0.0
H1946 H 0.06425 0.93445 0.22965 0.0
H1947 H 0.05905 0.93184 0.18251 0.0
C1948 C 0.9053 0.68282 0.7754 0.0
C1949 C 0.87591 0.68361 0.75974 0.0
C1950 C 0.90245 0.68131 0.80237 0.0
C1951 C 0.84257 0.68532 0.8565 0.0
H1952 H 0.90752 0.66963 0.89565 0.0
C1953 C 0.8369 0.68224 0.96887 0.0
C1954 C 0.86811 0.68397 0.98167 0.0
C1955 C 0.83604 0.68063 0.94185 0.0
C1956 C 0.88924 0.67404 0.88492 0.0
H1957 H 0.82051 0.68306 0.75988 0.0
H1958 H 0.81559 0.68029 0.80694 0.0
H1959 H 0.909 0.6695 0.84772 0.0
H1960 H 0.92298 0.68508 0.97635 0.0
H1961 H 0.92137 0.68235 0.92914 0.0
H1962 H 0.8232 0.68998 0.89365 0.0
C1963 C 0.8408 0.68102 0.79842 0.0
C1964 C 0.89011 0.67398 0.85755 0.0
C1965 C 0.84364 0.68258 0.77146 0.0
C1966 C 0.89851 0.6838 0.96704 0.0
C1967 C 0.89764 0.68216 0.94005 0.0
C1968 C 0.84161 0.68534 0.88383 0.0
C1969 C 0.87016 0.68051 0.8142 0.0
C1970 C 0.86718 0.67976 0.84308 0.0
C1971 C 0.86637 0.68069 0.92717 0.0
C1972 C 0.86532 0.67984 0.89829 0.0
H1973 H 0.93054 0.68358 0.76695 0.0
H1974 H 0.92554 0.68109 0.81405 0.0
H1975 H 0.8249 0.68997 0.84594 0.0
H1976 H 0.81304 0.68227 0.97961 0.0
H1977 H 0.81162 0.67943 0.93239 0.0
C1978 C 0.84655 0.06469 0.77581 0.0
C1979 C 0.87662 0.06439 0.7608 0.0
C1980 C 0.84818 0.06576 0.803 0.0
C1981 C 0.90654 0.06157 0.85817 0.0
H1982 H 0.83997 0.07673 0.89718 0.0
C1983 C 0.91352 0.06551 0.9702 0.0
C1984 C 0.8828 0.06379 0.9837 0.0
C1985 C 0.91354 0.06672 0.94304 0.0
C1986 C 0.85863 0.07245 0.88649 0.0
H1987 H 0.93191 0.06535 0.76238 0.0
H1988 H 0.93468 0.06738 0.80979 0.0
H1989 H 0.83884 0.07693 0.84924 0.0
H1990 H 0.82791 0.06226 0.97938 0.0
H1991 H 0.82804 0.06432 0.93187 0.0
H1992 H 0.92612 0.05701 0.89535 0.0
C1993 C 0.9099 0.06658 0.80059 0.0
C1994 C 0.85797 0.07255 0.85911 0.0
C1995 C 0.90829 0.06546 0.77343 0.0
C1996 C 0.85201 0.06355 0.96955 0.0
C1997 C 0.85204 0.0648 0.94238 0.0
C1998 C 0.90728 0.06151 0.88549 0.0
C1999 C 0.87989 0.06661 0.81569 0.0
C2000 C 0.88172 0.06703 0.84468 0.0
C2001 C 0.88285 0.06627 0.92886 0.0
C2002 C 0.88314 0.06686 0.89991 0.0
H2003 H 0.82175 0.06387 0.76666 0.0
H2004 H 0.82463 0.06563 0.81413 0.0
H2005 H 0.9248 0.05711 0.84762 0.0
H2006 H 0.93767 0.06579 0.98055 0.0
H2007 H 0.9376 0.06796 0.9331 0.0
C2008 C 0.15797 0.81514 0.71174 0.0
C2009 C 0.12776 0.81495 0.7266 0.0
C2010 C 0.1567 0.81664 0.68467 0.0
C2011 C 0.09936 0.81336 0.62888 0.0
H2012 H 0.16607 0.82915 0.59187 0.0
C2013 C 0.09677 0.81688 0.51668 0.0
C2014 C 0.12841 0.81565 0.5041 0.0
C2015 C 0.09524 0.81831 0.54376 0.0
C2016 C 0.14737 0.82469 0.60195 0.0
H2017 H 0.0726 0.81646 0.72484 0.0
H2018 H 0.07049 0.81908 0.6776 0.0
H2019 H 0.16618 0.82885 0.6398 0.0
H2020 H 0.18332 0.81529 0.50992 0.0
H2021 H 0.18057 0.81762 0.55719 0.0
H2022 H 0.0811 0.80898 0.59119 0.0
C2023 C 0.09508 0.81798 0.68687 0.0
C2024 C 0.14743 0.82452 0.62934 0.0
C2025 C 0.09634 0.81651 0.71393 0.0
C2026 C 0.15853 0.8162 0.51902 0.0
C2027 C 0.15698 0.81761 0.5461 0.0
C2028 C 0.09935 0.81351 0.60153 0.0
C2029 C 0.12521 0.81795 0.67195 0.0
C2030 C 0.12369 0.81876 0.64304 0.0
C2031 C 0.1253 0.81853 0.5588 0.0
C2032 C 0.12362 0.81908 0.58778 0.0
H2033 H 0.18259 0.81399 0.72092 0.0
H2034 H 0.1803 0.81647 0.6736 0.0
H2035 H 0.08108 0.80874 0.6389 0.0
H2036 H 0.07311 0.81658 0.5057 0.0
H2037 H 0.07049 0.81915 0.55296 0.0
C2038 C 0.16449 0.43134 0.72019 0.0
C2039 C 0.13295 0.43289 0.73267 0.0
C2040 C 0.16597 0.42985 0.69314 0.0
C2041 C 0.11424 0.42339 0.63521 0.0
H2042 H 0.17937 0.43959 0.59783 0.0
C2043 C 0.1016 0.43253 0.52554 0.0
C2044 C 0.1315 0.43338 0.51049 0.0
C2045 C 0.10354 0.43096 0.55254 0.0
C2046 C 0.16149 0.43487 0.60794 0.0
H2047 H 0.07814 0.43375 0.72673 0.0
H2048 H 0.08082 0.43122 0.67947 0.0
H2049 H 0.17966 0.43942 0.64554 0.0
H2050 H 0.18688 0.43284 0.51174 0.0
H2051 H 0.19021 0.42996 0.55884 0.0
H2052 H 0.09566 0.41898 0.59752 0.0
C2053 C 0.10434 0.43108 0.69065 0.0
C2054 C 0.16164 0.43478 0.63528 0.0
C2055 C 0.10285 0.43261 0.71769 0.0
C2056 C 0.16337 0.43232 0.52284 0.0
C2057 C 0.1653 0.4307 0.54982 0.0
C2058 C 0.11416 0.42345 0.60782 0.0
C2059 C 0.13595 0.42984 0.67808 0.0
C2060 C 0.13767 0.42917 0.64917 0.0
C2061 C 0.13542 0.43014 0.565 0.0
C2062 C 0.13742 0.42932 0.59392 0.0
H2063 H 0.18815 0.43146 0.7312 0.0
H2064 H 0.19065 0.4288 0.68396 0.0
H2065 H 0.09577 0.4189 0.64547 0.0
H2066 H 0.07665 0.43332 0.51661 0.0
H2067 H 0.08007 0.4307 0.56375 0.0
C2068 C 0.83782 0.18262 0.27241 0.0
C2069 C 0.87011 0.18354 0.26064 0.0
C2070 C 0.83498 0.18113 0.29941 0.0
C2071 C 0.88414 0.17399 0.35852 0.0
H2072 H 0.81841 0.19035 0.39473 0.0
C2073 C 0.89389 0.18371 0.46802 0.0
C2074 C 0.86361 0.1841 0.48276 0.0
C2075 C 0.89272 0.18209 0.44101 0.0
C2076 C 0.83648 0.18561 0.38489 0.0
H2077 H 0.92475 0.18337 0.26785 0.0
H2078 H 0.91974 0.18097 0.31495 0.0
H2079 H 0.81977 0.19026 0.347 0.0
H2080 H 0.80839 0.18284 0.48087 0.0
H2081 H 0.80644 0.18003 0.43364 0.0
H2082 H 0.90154 0.1696 0.39658 0.0
C2083 C 0.89663 0.18124 0.30329 0.0
C2084 C 0.83725 0.18554 0.35754 0.0
C2085 C 0.89948 0.18269 0.27631 0.0
C2086 C 0.83218 0.18262 0.47004 0.0
C2087 C 0.83101 0.18104 0.44301 0.0
C2088 C 0.88345 0.17408 0.3859 0.0
C2089 C 0.86435 0.18056 0.31518 0.0
C2090 C 0.86145 0.17986 0.34408 0.0
C2091 C 0.86124 0.18087 0.42821 0.0
C2092 C 0.85997 0.18001 0.39932 0.0
H2093 H 0.81469 0.18316 0.26084 0.0
H2094 H 0.80976 0.18051 0.30798 0.0
H2095 H 0.90272 0.16941 0.34866 0.0
H2096 H 0.91852 0.1848 0.47724 0.0
H2097 H 0.9164 0.18211 0.43003 0.0
C2098 C 0.90282 0.56617 0.46644 0.0
C2099 C 0.87279 0.5655 0.48141 0.0
C2100 C 0.90111 0.56762 0.43938 0.0
C2101 C 0.84344 0.56357 0.38391 0.0
H2102 H 0.90988 0.57918 0.34604 0.0
C2103 C 0.84106 0.5667 0.27151 0.0
C2104 C 0.87262 0.56512 0.25909 0.0
C2105 C 0.83951 0.56821 0.29855 0.0
C2106 C 0.89123 0.57478 0.3564 0.0
H2107 H 0.81745 0.56623 0.47993 0.0
H2108 H 0.81454 0.56888 0.43271 0.0
H2109 H 0.9097 0.57934 0.39398 0.0
H2110 H 0.9274 0.56419 0.26515 0.0
H2111 H 0.9246 0.56674 0.3124 0.0
H2112 H 0.82536 0.55887 0.34642 0.0
C2113 C 0.83936 0.56811 0.44185 0.0
C2114 C 0.89113 0.57487 0.38378 0.0
C2115 C 0.84105 0.56662 0.4689 0.0
C2116 C 0.90267 0.56535 0.27414 0.0
C2117 C 0.90111 0.56689 0.30117 0.0
C2118 C 0.84348 0.56351 0.35657 0.0
C2119 C 0.86936 0.56847 0.42677 0.0
C2120 C 0.86758 0.56914 0.39781 0.0
C2121 C 0.86949 0.56821 0.31367 0.0
C2122 C 0.8677 0.56899 0.34256 0.0
H2123 H 0.92768 0.56533 0.47548 0.0
H2124 H 0.92467 0.56774 0.42825 0.0
H2125 H 0.82533 0.55896 0.39415 0.0
H2126 H 0.81744 0.56662 0.26045 0.0
H2127 H 0.81483 0.56931 0.30767 0.0
C2128 C 0.60218 0.31413 0.52096 0.0
C2129 C 0.6329 0.31433 0.50673 0.0
C2130 C 0.60232 0.3155 0.54809 0.0
C2131 C 0.65783 0.31243 0.6049 0.0
H2132 H 0.58899 0.32776 0.64098 0.0
C2133 C 0.65786 0.31603 0.71701 0.0
C2134 C 0.62608 0.31478 0.72936 0.0
C2135 C 0.65973 0.31736 0.68992 0.0
C2136 C 0.60825 0.32341 0.63116 0.0
H2137 H 0.68777 0.31636 0.50967 0.0
H2138 H 0.68791 0.31874 0.55705 0.0
H2139 H 0.59026 0.32754 0.59305 0.0
H2140 H 0.57129 0.31422 0.72312 0.0
H2141 H 0.57463 0.31633 0.67577 0.0
H2142 H 0.67531 0.30807 0.64282 0.0
C2143 C 0.6638 0.31745 0.54721 0.0
C2144 C 0.60899 0.3233 0.60378 0.0
C2145 C 0.66367 0.31612 0.52009 0.0
C2146 C 0.59617 0.31516 0.71418 0.0
C2147 C 0.59806 0.31644 0.68707 0.0
C2148 C 0.65703 0.31251 0.63223 0.0
C2149 C 0.63318 0.31705 0.56149 0.0
C2150 C 0.63359 0.31773 0.59042 0.0
C2151 C 0.62989 0.31742 0.67462 0.0
C2152 C 0.63203 0.31792 0.64565 0.0
H2153 H 0.57803 0.31279 0.51123 0.0
H2154 H 0.57838 0.31505 0.55866 0.0
H2155 H 0.67675 0.30795 0.59511 0.0
H2156 H 0.68137 0.31588 0.72821 0.0
H2157 H 0.68459 0.31825 0.68092 0.0
C2158 C 0.63952 0.93022 0.52668 0.0
C2159 C 0.61051 0.93158 0.51089 0.0
C2160 C 0.63606 0.9283 0.55343 0.0
C2161 C 0.57787 0.93258 0.60793 0.0
H2162 H 0.63795 0.91464 0.64459 0.0
C2163 C 0.57948 0.93019 0.72076 0.0
C2164 C 0.61237 0.93071 0.73172 0.0
C2165 C 0.57527 0.92837 0.69397 0.0
C2166 C 0.62098 0.91967 0.63461 0.0
H2167 H 0.55505 0.93176 0.51066 0.0
H2168 H 0.54911 0.92844 0.55747 0.0
H2169 H 0.63811 0.91505 0.5967 0.0
H2170 H 0.66655 0.92933 0.72337 0.0
H2171 H 0.6592 0.92629 0.67683 0.0
H2172 H 0.56172 0.93749 0.64576 0.0
C2173 C 0.57449 0.92891 0.5491 0.0
C2174 C 0.62109 0.9199 0.60724 0.0
C2175 C 0.57793 0.93078 0.52231 0.0
C2176 C 0.64084 0.92902 0.71557 0.0
C2177 C 0.63663 0.92718 0.68889 0.0
C2178 C 0.57783 0.93237 0.6353 0.0
C2179 C 0.60353 0.92773 0.56495 0.0
C2180 C 0.60018 0.92654 0.59367 0.0
C2181 C 0.60386 0.92698 0.67772 0.0
C2182 C 0.60006 0.9261 0.64891 0.0
H2183 H 0.66497 0.93076 0.51848 0.0
H2184 H 0.65891 0.92756 0.56524 0.0
H2185 H 0.56172 0.93784 0.59798 0.0
H2186 H 0.55703 0.93141 0.73272 0.0
H2187 H 0.54969 0.92817 0.6859 0.0
C2188 C 0.34885 0.68111 0.46314 0.0
C2189 C 0.37833 0.6819 0.4787 0.0
C2190 C 0.35153 0.67978 0.43609 0.0
C2191 C 0.41041 0.6846 0.38191 0.0
H2192 H 0.346 0.66894 0.34217 0.0
C2193 C 0.41441 0.68249 0.26915 0.0
C2194 C 0.38282 0.68392 0.25661 0.0
C2195 C 0.41587 0.68085 0.29614 0.0
C2196 C 0.3641 0.67335 0.35305 0.0
H2197 H 0.43375 0.68152 0.47827 0.0
H2198 H 0.43837 0.67911 0.43102 0.0
H2199 H 0.34531 0.66829 0.39006 0.0
H2200 H 0.32796 0.68453 0.26246 0.0
H2201 H 0.3306 0.68175 0.30962 0.0
H2202 H 0.42877 0.6898 0.34496 0.0
C2203 C 0.41321 0.67967 0.43972 0.0
C2204 C 0.3637 0.67299 0.38041 0.0
C2205 C 0.41054 0.68102 0.46678 0.0
C2206 C 0.3527 0.68349 0.27154 0.0
C2207 C 0.35417 0.68181 0.29851 0.0
C2208 C 0.41088 0.68494 0.35457 0.0
C2209 C 0.38374 0.6792 0.42405 0.0
C2210 C 0.38644 0.67875 0.39511 0.0
C2211 C 0.38578 0.68056 0.31109 0.0
C2212 C 0.38732 0.67946 0.33991 0.0
H2213 H 0.32365 0.68175 0.47171 0.0
H2214 H 0.32835 0.67958 0.42451 0.0
H2215 H 0.42792 0.68924 0.39268 0.0
H2216 H 0.43808 0.68274 0.25818 0.0
H2217 H 0.44055 0.67983 0.30534 0.0
C2218 C 0.40252 0.06712 0.46374 0.0
C2219 C 0.37323 0.06637 0.47952 0.0
C2220 C 0.39951 0.06867 0.4368 0.0
C2221 C 0.33958 0.06449 0.38298 0.0
H2222 H 0.40481 0.07988 0.34328 0.0
C2223 C 0.33593 0.06636 0.27024 0.0
C2224 C 0.3675 0.06466 0.25791 0.0
C2225 C 0.33443 0.06819 0.29714 0.0
C2226 C 0.38645 0.07555 0.35415 0.0
H2227 H 0.31785 0.06708 0.47962 0.0
H2228 H 0.31267 0.06988 0.43256 0.0
H2229 H 0.40582 0.08041 0.39118 0.0
H2230 H 0.42229 0.06382 0.26399 0.0
H2231 H 0.41956 0.06694 0.31098 0.0
H2232 H 0.32071 0.05945 0.34602 0.0
C2233 C 0.33791 0.06911 0.441 0.0
C2234 C 0.38703 0.07585 0.38151 0.0
C2235 C 0.34091 0.06754 0.46795 0.0
C2236 C 0.39756 0.06507 0.27291 0.0
C2237 C 0.39605 0.06694 0.29978 0.0
C2238 C 0.33893 0.06421 0.35564 0.0
C2239 C 0.36717 0.06953 0.42509 0.0
C2240 C 0.36407 0.07016 0.3962 0.0
C2241 C 0.36445 0.06841 0.31219 0.0
C2242 C 0.36282 0.06958 0.34099 0.0
H2243 H 0.4278 0.06626 0.47204 0.0
H2244 H 0.42252 0.06883 0.42502 0.0
H2245 H 0.32187 0.05991 0.39373 0.0
H2246 H 0.31231 0.06614 0.2592 0.0
H2247 H 0.30976 0.06938 0.30621 0.0
C2248 C 0.61225 0.81549 0.02421 0.0
C2249 C 0.64224 0.81469 0.00926 0.0
C2250 C 0.61403 0.81723 0.05114 0.0
C2251 C 0.66987 0.81339 0.10723 0.0
H2252 H 0.60652 0.83079 0.14246 0.0
C2253 C 0.66508 0.81616 0.21989 0.0
C2254 C 0.63207 0.81563 0.23061 0.0
C2255 C 0.6696 0.81778 0.19305 0.0
C2256 C 0.62434 0.82589 0.13289 0.0
H2257 H 0.69763 0.81525 0.01073 0.0
H2258 H 0.70063 0.81822 0.05787 0.0
H2259 H 0.60818 0.83036 0.09459 0.0
H2260 H 0.57795 0.81669 0.22172 0.0
H2261 H 0.58583 0.81933 0.17504 0.0
H2262 H 0.68513 0.80863 0.14541 0.0
C2263 C 0.67581 0.81748 0.0487 0.0
C2264 C 0.62528 0.82566 0.10554 0.0
C2265 C 0.67404 0.8158 0.02172 0.0
C2266 C 0.60375 0.81704 0.21411 0.0
C2267 C 0.60826 0.81865 0.18735 0.0
C2268 C 0.66882 0.81359 0.13458 0.0
C2269 C 0.64582 0.81814 0.06367 0.0
C2270 C 0.64752 0.81924 0.09248 0.0
C2271 C 0.64119 0.81891 0.17646 0.0
C2272 C 0.64548 0.81968 0.14768 0.0
H2273 H 0.58736 0.8147 0.01519 0.0
H2274 H 0.59051 0.81758 0.06229 0.0
H2275 H 0.68703 0.8083 0.09765 0.0
H2276 H 0.68743 0.81517 0.23212 0.0
H2277 H 0.6953 0.81806 0.18523 0.0
C2278 C 0.64888 0.43387 0.02084 0.0
C2279 C 0.61851 0.43407 0.00617 0.0
C2280 C 0.64795 0.43222 0.04783 0.0
C2281 C 0.59174 0.43518 0.10418 0.0
H2282 H 0.65912 0.41918 0.1398 0.0
C2283 C 0.59333 0.43182 0.21643 0.0
C2284 C 0.62553 0.43292 0.22823 0.0
C2285 C 0.59061 0.43033 0.18944 0.0
C2286 C 0.64023 0.4237 0.13012 0.0
H2287 H 0.5634 0.43247 0.00819 0.0
H2288 H 0.56188 0.4296 0.0554 0.0
H2289 H 0.65784 0.41959 0.09189 0.0
H2290 H 0.68018 0.43303 0.22111 0.0
H2291 H 0.67538 0.43063 0.17397 0.0
H2292 H 0.57479 0.43956 0.14223 0.0
C2293 C 0.58633 0.43079 0.04598 0.0
C2294 C 0.63948 0.42393 0.10274 0.0
C2295 C 0.58725 0.4324 0.01896 0.0
C2296 C 0.65498 0.43221 0.21261 0.0
C2297 C 0.65225 0.43076 0.18561 0.0
C2298 C 0.59256 0.43499 0.13152 0.0
C2299 C 0.61664 0.43077 0.06069 0.0
C2300 C 0.61557 0.42979 0.08955 0.0
C2301 C 0.62002 0.42995 0.17369 0.0
C2302 C 0.61715 0.42937 0.14477 0.0
H2303 H 0.67338 0.43511 0.01155 0.0
H2304 H 0.67167 0.43236 0.05876 0.0
H2305 H 0.57333 0.43987 0.09452 0.0
H2306 H 0.57015 0.43224 0.22798 0.0
H2307 H 0.56544 0.42958 0.18084 0.0
C2308 C 0.39654 0.18048 0.7709 0.0
C2309 C 0.36775 0.18182 0.75486 0.0
C2310 C 0.39281 0.17884 0.79772 0.0
C2311 C 0.33377 0.18371 0.85153 0.0
H2312 H 0.39583 0.16695 0.89025 0.0
C2313 C 0.33254 0.18163 0.96444 0.0
C2314 C 0.36478 0.18274 0.97622 0.0
C2315 C 0.3298 0.17988 0.93755 0.0
C2316 C 0.37834 0.17165 0.87967 0.0
H2317 H 0.31234 0.18215 0.75423 0.0
H2318 H 0.30584 0.17922 0.80124 0.0
H2319 H 0.39595 0.16657 0.84236 0.0
H2320 H 0.41943 0.18264 0.96916 0.0
H2321 H 0.41459 0.17965 0.92219 0.0
H2322 H 0.31675 0.18896 0.88883 0.0
C2323 C 0.33131 0.17956 0.79301 0.0
C2324 C 0.3784 0.17144 0.8523 0.0
C2325 C 0.33504 0.18121 0.7661 0.0
C2326 C 0.39423 0.18184 0.96067 0.0
C2327 C 0.39147 0.18005 0.93382 0.0
C2328 C 0.33362 0.18389 0.8789 0.0
C2329 C 0.36019 0.17847 0.80912 0.0
C2330 C 0.35674 0.17765 0.83796 0.0
C2331 C 0.35924 0.17916 0.92196 0.0
C2332 C 0.3565 0.17805 0.89319 0.0
H2333 H 0.42212 0.18089 0.76289 0.0
H2334 H 0.41558 0.17819 0.80965 0.0
H2335 H 0.31707 0.18867 0.84104 0.0
H2336 H 0.30935 0.18225 0.9759 0.0
H2337 H 0.30465 0.17915 0.92891 0.0
C2338 C 0.40505 0.56587 0.96499 0.0
C2339 C 0.3756 0.56524 0.98064 0.0
C2340 C 0.40231 0.56731 0.93798 0.0
C2341 C 0.34214 0.56323 0.88408 0.0
H2342 H 0.40767 0.57839 0.84404 0.0
C2343 C 0.33501 0.56594 0.77173 0.0
C2344 C 0.36591 0.56414 0.75856 0.0
C2345 C 0.33473 0.56755 0.79874 0.0
C2346 C 0.38925 0.57412 0.85501 0.0
H2347 H 0.32025 0.5661 0.98046 0.0
H2348 H 0.31553 0.56876 0.93334 0.0
H2349 H 0.40953 0.57878 0.89195 0.0
H2350 H 0.42084 0.56291 0.76326 0.0
H2351 H 0.42025 0.56566 0.81048 0.0
H2352 H 0.32223 0.55844 0.84722 0.0
C2353 C 0.34069 0.56793 0.9419 0.0
C2354 C 0.39032 0.57433 0.88238 0.0
C2355 C 0.34341 0.56644 0.96889 0.0
C2356 C 0.3966 0.56424 0.77284 0.0
C2357 C 0.39631 0.56589 0.79985 0.0
C2358 C 0.34099 0.56305 0.85676 0.0
C2359 C 0.37008 0.56821 0.9261 0.0
C2360 C 0.36711 0.56876 0.89718 0.0
C2361 C 0.36534 0.56744 0.81309 0.0
C2362 C 0.36485 0.56837 0.84197 0.0
H2363 H 0.43022 0.56497 0.97346 0.0
H2364 H 0.42541 0.56736 0.92631 0.0
H2365 H 0.32427 0.55872 0.8949 0.0
H2366 H 0.31094 0.56596 0.76126 0.0
H2367 H 0.31053 0.56883 0.80846 0.0
loop_
_geom_bond_atom_site_label_1
_geom_bond_atom_site_label_2
_geom_bond_distance
_geom_bond_site_symmetry_2
_ccdc_geom_bond_type
O0 Cd1 2.223 . S
O0 C8 1.315 . S
Cd1 O0 2.223 . S
Cd1 O4 2.297 . S
Cd1 O5 2.439 . S
Cd1 O11 2.240 . S
Cd2 O3 2.240 . S
Cd2 O10 2.223 . S
Cd2 O12 2.297 . S
Cd2 O13 2.439 . S
O3 Cd2 2.240 . S
O3 C8 1.279 . S
O4 Cd1 2.297 . S
O4 C6 1.247 . S
O5 Cd1 2.439 . S
O5 C6 1.208 . S
C6 O4 1.247 . S
C6 O5 1.208 . S
C7 O12 1.247 . S
C7 O13 1.208 . S
C8 O0 1.315 . S
C8 O3 1.279 . S
C9 O10 1.315 . S
C9 O11 1.279 . S
O10 Cd2 2.223 . S
O10 C9 1.315 . S
O11 Cd1 2.240 . S
O11 C9 1.279 . S
O12 Cd2 2.297 . S
O12 C7 1.247 . S
O13 Cd2 2.439 . S
O13 C7 1.208 . S
O14 Cd15 2.223 . S
O14 C22 1.315 . S
Cd15 O14 2.223 . S
Cd15 O18 2.297 . S
Cd15 O19 2.439 . S
Cd15 O25 2.240 . S
Cd16 O17 2.240 . S
Cd16 O24 2.223 . S
Cd16 O26 2.297 . S
Cd16 O27 2.439 . S
O17 Cd16 2.240 . S
O17 C22 1.279 . S
O18 Cd15 2.297 . S
O18 C20 1.247 . S
O19 Cd15 2.439 . S
O19 C20 1.208 . S
C20 O18 1.247 . S
C20 O19 1.208 . S
C21 O26 1.247 . S
C21 O27 1.208 . S
C22 O14 1.315 . S
C22 O17 1.279 . S
C23 O24 1.315 . S
C23 O25 1.279 . S
O24 Cd16 2.223 . S
O24 C23 1.315 . S
O25 Cd15 2.240 . S
O25 C23 1.279 . S
O26 Cd16 2.297 . S
O26 C21 1.247 . S
O27 Cd16 2.439 . S
O27 C21 1.208 . S
O28 Cd29 2.223 . S
O28 C36 1.315 . S
Cd29 O28 2.223 . S
Cd29 O32 2.297 . S
Cd29 O33 2.439 . S
Cd29 O39 2.240 . S
Cd30 O31 2.240 . S
Cd30 O38 2.223 . S
Cd30 O40 2.297 . S
Cd30 O41 2.439 . S
O31 Cd30 2.240 . S
O31 C36 1.279 . S
O32 Cd29 2.297 . S
O32 C34 1.247 . S
O33 Cd29 2.439 . S
O33 C34 1.208 . S
C34 O32 1.247 . S
C34 O33 1.208 . S
C35 O40 1.247 . S
C35 O41 1.208 . S
C36 O28 1.315 . S
C36 O31 1.279 . S
C37 O38 1.315 . S
C37 O39 1.279 . S
O38 Cd30 2.223 . S
O38 C37 1.315 . S
O39 Cd29 2.240 . S
O39 C37 1.279 . S
O40 Cd30 2.297 . S
O40 C35 1.247 . S
O41 Cd30 2.439 . S
O41 C35 1.208 . S
O42 Cd43 2.223 . S
O42 C50 1.315 . S
Cd43 O42 2.223 . S
Cd43 O46 2.297 . S
Cd43 O47 2.439 . S
Cd43 O53 2.240 . S
Cd44 O45 2.240 . S
Cd44 O52 2.223 . S
Cd44 O54 2.297 . S
Cd44 O55 2.439 . S
O45 Cd44 2.240 . S
O45 C50 1.279 . S
O46 Cd43 2.297 . S
O46 C48 1.247 . S
O47 Cd43 2.439 . S
O47 C48 1.208 . S
C48 O46 1.247 . S
C48 O47 1.208 . S
C49 O54 1.247 . S
C49 O55 1.208 . S
C50 O42 1.315 . S
C50 O45 1.279 . S
C51 O52 1.315 . S
C51 O53 1.279 . S
O52 Cd44 2.223 . S
O52 C51 1.315 . S
O53 Cd43 2.240 . S
O53 C51 1.279 . S
O54 Cd44 2.297 . S
O54 C49 1.247 . S
O55 Cd44 2.439 . S
O55 C49 1.208 . S
O56 Cd57 2.223 . S
O56 C64 1.315 . S
Cd57 O56 2.223 . S
Cd57 O60 2.297 . S
Cd57 O61 2.439 . S
Cd57 O67 2.240 . S
Cd58 O59 2.240 . S
Cd58 O66 2.223 . S
Cd58 O68 2.297 . S
Cd58 O69 2.439 . S
O59 Cd58 2.240 . S
O59 C64 1.279 . S
O60 Cd57 2.297 . S
O60 C62 1.247 . S
O61 Cd57 2.439 . S
O61 C62 1.208 . S
C62 O60 1.247 . S
C62 O61 1.208 . S
C63 O68 1.247 . S
C63 O69 1.208 . S
C64 O56 1.315 . S
C64 O59 1.279 . S
C65 O66 1.315 . S
C65 O67 1.279 . S
O66 Cd58 2.223 . S
O66 C65 1.315 . S
O67 Cd57 2.240 . S
O67 C65 1.279 . S
O68 Cd58 2.297 . S
O68 C63 1.247 . S
O69 Cd58 2.439 . S
O69 C63 1.208 . S
O70 Cd71 2.223 . S
O70 C78 1.315 . S
Cd71 O70 2.223 . S
Cd71 O74 2.297 . S
Cd71 O75 2.439 . S
Cd71 O81 2.240 . S
Cd72 O73 2.240 . S
Cd72 O80 2.223 . S
Cd72 O82 2.297 . S
Cd72 O83 2.439 . S
O73 Cd72 2.240 . S
O73 C78 1.279 . S
O74 Cd71 2.297 . S
O74 C76 1.247 . S
O75 Cd71 2.439 . S
O75 C76 1.208 . S
C76 O74 1.247 . S
C76 O75 1.208 . S
C77 O82 1.247 . S
C77 O83 1.208 . S
C78 O70 1.315 . S
C78 O73 1.279 . S
C79 O80 1.315 . S
C79 O81 1.279 . S
O80 Cd72 2.223 . S
O80 C79 1.315 . S
O81 Cd71 2.240 . S
O81 C79 1.279 . S
O82 Cd72 2.297 . S
O82 C77 1.247 . S
O83 Cd72 2.439 . S
O83 C77 1.208 . S
O84 Cd85 2.223 . S
O84 C92 1.315 . S
Cd85 O84 2.223 . S
Cd85 O88 2.297 . S
Cd85 O89 2.439 . S
Cd85 O95 2.240 . S
Cd86 O87 2.240 . S
Cd86 O94 2.223 . S
Cd86 O96 2.297 . S
Cd86 O97 2.439 . S
O87 Cd86 2.240 . S
O87 C92 1.279 . S
O88 Cd85 2.297 . S
O88 C90 1.247 . S
O89 Cd85 2.439 . S
O89 C90 1.208 . S
C90 O88 1.247 . S
C90 O89 1.208 . S
C91 O96 1.247 . S
C91 O97 1.208 . S
C92 O84 1.315 . S
C92 O87 1.279 . S
C93 O94 1.315 . S
C93 O95 1.279 . S
O94 Cd86 2.223 . S
O94 C93 1.315 . S
O95 Cd85 2.240 . S
O95 C93 1.279 . S
O96 Cd86 2.297 . S
O96 C91 1.247 . S
O97 Cd86 2.439 . S
O97 C91 1.208 . S
O98 Cd99 2.223 . S
O98 C106 1.315 . S
Cd99 O98 2.223 . S
Cd99 O102 2.297 . S
Cd99 O103 2.439 . S
Cd99 O109 2.240 . S
Cd100 O101 2.240 . S
Cd100 O108 2.223 . S
Cd100 O110 2.297 . S
Cd100 O111 2.439 . S
O101 Cd100 2.240 . S
O101 C106 1.279 . S
O102 Cd99 2.297 . S
O102 C104 1.247 . S
O103 Cd99 2.439 . S
O103 C104 1.208 . S
C104 O102 1.247 . S
C104 O103 1.208 . S
C105 O110 1.247 . S
C105 O111 1.208 . S
C106 O98 1.315 . S
C106 O101 1.279 . S
C107 O108 1.315 . S
C107 O109 1.279 . S
O108 Cd100 2.223 . S
O108 C107 1.315 . S
O109 Cd99 2.240 . S
O109 C107 1.279 . S
O110 Cd100 2.297 . S
O110 C105 1.247 . S
O111 Cd100 2.439 . S
O111 C105 1.208 . S
O112 Cd113 2.223 . S
O112 C120 1.315 . S
Cd113 O112 2.223 . S
Cd113 O116 2.297 . S
Cd113 O117 2.439 . S
Cd113 O123 2.240 . S
Cd114 O115 2.240 . S
Cd114 O122 2.223 . S
Cd114 O124 2.297 . S
Cd114 O125 2.439 . S
O115 Cd114 2.240 . S
O115 C120 1.279 . S
O116 Cd113 2.297 . S
O116 C118 1.247 . S
O117 Cd113 2.439 . S
O117 C118 1.208 . S
C118 O116 1.247 . S
C118 O117 1.208 . S
C119 O124 1.247 . S
C119 O125 1.208 . S
C120 O112 1.315 . S
C120 O115 1.279 . S
C121 O122 1.315 . S
C121 O123 1.279 . S
O122 Cd114 2.223 . S
O122 C121 1.315 . S
O123 Cd113 2.240 . S
O123 C121 1.279 . S
O124 Cd114 2.297 . S
O124 C119 1.247 . S
O125 Cd114 2.439 . S
O125 C119 1.208 . S
O126 Cd127 2.223 . S
O126 C134 1.315 . S
Cd127 O126 2.223 . S
Cd127 O130 2.297 . S
Cd127 O131 2.439 . S
Cd127 O137 2.240 . S
Cd128 O129 2.240 . S
Cd128 O136 2.223 . S
Cd128 O138 2.297 . S
Cd128 O139 2.439 . S
O129 Cd128 2.240 . S
O129 C134 1.279 . S
O130 Cd127 2.297 . S
O130 C132 1.247 . S
O131 Cd127 2.439 . S
O131 C132 1.208 . S
C132 O130 1.247 . S
C132 O131 1.208 . S
C133 O138 1.247 . S
C133 O139 1.208 . S
C134 O126 1.315 . S
C134 O129 1.279 . S
C135 O136 1.315 . S
C135 O137 1.279 . S
O136 Cd128 2.223 . S
O136 C135 1.315 . S
O137 Cd127 2.240 . S
O137 C135 1.279 . S
O138 Cd128 2.297 . S
O138 C133 1.247 . S
O139 Cd128 2.439 . S
O139 C133 1.208 . S
O140 Cd141 2.223 . S
O140 C148 1.315 . S
Cd141 O140 2.223 . S
Cd141 O144 2.297 . S
Cd141 O145 2.439 . S
Cd141 O151 2.240 . S
Cd142 O143 2.240 . S
Cd142 O150 2.223 . S
Cd142 O152 2.297 . S
Cd142 O153 2.439 . S
O143 Cd142 2.240 . S
O143 C148 1.279 . S
O144 Cd141 2.297 . S
O144 C146 1.247 . S
O145 Cd141 2.439 . S
O145 C146 1.208 . S
C146 O144 1.247 . S
C146 O145 1.208 . S
C147 O152 1.247 . S
C147 O153 1.208 . S
C148 O140 1.315 . S
C148 O143 1.279 . S
C149 O150 1.315 . S
C149 O151 1.279 . S
O150 Cd142 2.223 . S
O150 C149 1.315 . S
O151 Cd141 2.240 . S
O151 C149 1.279 . S
O152 Cd142 2.297 . S
O152 C147 1.247 . S
O153 Cd142 2.439 . S
O153 C147 1.208 . S
O154 Cd155 2.223 . S
O154 C162 1.315 . S
Cd155 O154 2.223 . S
Cd155 O158 2.297 . S
Cd155 O159 2.439 . S
Cd155 O165 2.240 . S
Cd156 O157 2.240 . S
Cd156 O164 2.223 . S
Cd156 O166 2.297 . S
Cd156 O167 2.439 . S
O157 Cd156 2.240 . S
O157 C162 1.279 . S
O158 Cd155 2.297 . S
O158 C160 1.247 . S
O159 Cd155 2.439 . S
O159 C160 1.208 . S
C160 O158 1.247 . S
C160 O159 1.208 . S
C161 O166 1.247 . S
C161 O167 1.208 . S
C162 O154 1.315 . S
C162 O157 1.279 . S
C163 O164 1.315 . S
C163 O165 1.279 . S
O164 Cd156 2.223 . S
O164 C163 1.315 . S
O165 Cd155 2.240 . S
O165 C163 1.279 . S
O166 Cd156 2.297 . S
O166 C161 1.247 . S
O167 Cd156 2.439 . S
O167 C161 1.208 . S
O168 Cd169 2.223 . S
O168 C176 1.315 . S
Cd169 O168 2.223 . S
Cd169 O172 2.297 . S
Cd169 O173 2.439 . S
Cd169 O179 2.240 . S
Cd170 O171 2.240 . S
Cd170 O178 2.223 . S
Cd170 O180 2.297 . S
Cd170 O181 2.439 . S
O171 Cd170 2.240 . S
O171 C176 1.279 . S
O172 Cd169 2.297 . S
O172 C174 1.247 . S
O173 Cd169 2.439 . S
O173 C174 1.208 . S
C174 O172 1.247 . S
C174 O173 1.208 . S
C175 O180 1.247 . S
C175 O181 1.208 . S
C176 O168 1.315 . S
C176 O171 1.279 . S
C177 O178 1.315 . S
C177 O179 1.279 . S
O178 Cd170 2.223 . S
O178 C177 1.315 . S
O179 Cd169 2.240 . S
O179 C177 1.279 . S
O180 Cd170 2.297 . S
O180 C175 1.247 . S
O181 Cd170 2.439 . S
O181 C175 1.208 . S
O182 Cd183 2.223 . S
O182 C190 1.315 . S
Cd183 O182 2.223 . S
Cd183 O186 2.297 . S
Cd183 O187 2.439 . S
Cd183 O193 2.240 . S
Cd184 O185 2.240 . S
Cd184 O192 2.223 . S
Cd184 O194 2.297 . S
Cd184 O195 2.439 . S
O185 Cd184 2.240 . S
O185 C190 1.279 . S
O186 Cd183 2.297 . S
O186 C188 1.247 . S
O187 Cd183 2.439 . S
O187 C188 1.208 . S
C188 O186 1.247 . S
C188 O187 1.208 . S
C189 O194 1.247 . S
C189 O195 1.208 . S
C190 O182 1.315 . S
C190 O185 1.279 . S
C191 O192 1.315 . S
C191 O193 1.279 . S
O192 Cd184 2.223 . S
O192 C191 1.315 . S
O193 Cd183 2.240 . S
O193 C191 1.279 . S
O194 Cd184 2.297 . S
O194 C189 1.247 . S
O195 Cd184 2.439 . S
O195 C189 1.208 . S
O196 Cd197 2.223 . S
O196 C204 1.315 . S
Cd197 O196 2.223 . S
Cd197 O200 2.297 . S
Cd197 O201 2.439 . S
Cd197 O207 2.240 . S
Cd198 O199 2.240 . S
Cd198 O206 2.223 . S
Cd198 O208 2.297 . S
Cd198 O209 2.439 . S
O199 Cd198 2.240 . S
O199 C204 1.279 . S
O200 Cd197 2.297 . S
O200 C202 1.247 . S
O201 Cd197 2.439 . S
O201 C202 1.208 . S
C202 O200 1.247 . S
C202 O201 1.208 . S
C203 O208 1.247 . S
C203 O209 1.208 . S
C204 O196 1.315 . S
C204 O199 1.279 . S
C205 O206 1.315 . S
C205 O207 1.279 . S
O206 Cd198 2.223 . S
O206 C205 1.315 . S
O207 Cd197 2.240 . S
O207 C205 1.279 . S
O208 Cd198 2.297 . S
O208 C203 1.247 . S
O209 Cd198 2.439 . S
O209 C203 1.208 . S
O210 Cd211 2.223 . S
O210 C218 1.315 . S
Cd211 O210 2.223 . S
Cd211 O214 2.297 . S
Cd211 O215 2.439 . S
Cd211 O221 2.240 . S
Cd212 O213 2.240 . S
Cd212 O220 2.223 . S
Cd212 O222 2.297 . S
Cd212 O223 2.439 . S
O213 Cd212 2.240 . S
O213 C218 1.279 . S
O214 Cd211 2.297 . S
O214 C216 1.247 . S
O215 Cd211 2.439 . S
O215 C216 1.208 . S
C216 O214 1.247 . S
C216 O215 1.208 . S
C217 O222 1.247 . S
C217 O223 1.208 . S
C218 O210 1.315 . S
C218 O213 1.279 . S
C219 O220 1.315 . S
C219 O221 1.279 . S
O220 Cd212 2.223 . S
O220 C219 1.315 . S
O221 Cd211 2.240 . S
O221 C219 1.279 . S
O222 Cd212 2.297 . S
O222 C217 1.247 . S
O223 Cd212 2.439 . S
O223 C217 1.208 . S
O224 Cd225 2.223 . S
O224 C232 1.315 . S
Cd225 O224 2.223 . S
Cd225 O228 2.297 . S
Cd225 O229 2.439 . S
Cd225 O235 2.240 . S
Cd226 O227 2.240 . S
Cd226 O234 2.223 . S
Cd226 O236 2.297 . S
Cd226 O237 2.439 . S
O227 Cd226 2.240 . S
O227 C232 1.279 . S
O228 Cd225 2.297 . S
O228 C230 1.247 . S
O229 Cd225 2.439 . S
O229 C230 1.208 . S
C230 O228 1.247 . S
C230 O229 1.208 . S
C231 O236 1.247 . S
C231 O237 1.208 . S
C232 O224 1.315 . S
C232 O227 1.279 . S
C233 O234 1.315 . S
C233 O235 1.279 . S
O234 Cd226 2.223 . S
O234 C233 1.315 . S
O235 Cd225 2.240 . S
O235 C233 1.279 . S
O236 Cd226 2.297 . S
O236 C231 1.247 . S
O237 Cd226 2.439 . S
O237 C231 1.208 . S
O238 Cd239 2.223 . S
O238 C246 1.315 . S
Cd239 O238 2.223 . S
Cd239 O242 2.297 . S
Cd239 O243 2.439 . S
Cd239 O249 2.240 . S
Cd240 O241 2.240 . S
Cd240 O248 2.223 . S
Cd240 O250 2.297 . S
Cd240 O251 2.439 . S
O241 Cd240 2.240 . S
O241 C246 1.279 . S
O242 Cd239 2.297 . S
O242 C244 1.247 . S
O243 Cd239 2.439 . S
O243 C244 1.208 . S
C244 O242 1.247 . S
C244 O243 1.208 . S
C245 O250 1.247 . S
C245 O251 1.208 . S
C246 O238 1.315 . S
C246 O241 1.279 . S
C247 O248 1.315 . S
C247 O249 1.279 . S
O248 Cd240 2.223 . S
O248 C247 1.315 . S
O249 Cd239 2.240 . S
O249 C247 1.279 . S
O250 Cd240 2.297 . S
O250 C245 1.247 . S
O251 Cd240 2.439 . S
O251 C245 1.208 . S
O252 Cd253 2.223 . S
O252 C260 1.315 . S
Cd253 O252 2.223 . S
Cd253 O256 2.297 . S
Cd253 O257 2.439 . S
Cd253 O263 2.240 . S
Cd254 O255 2.240 . S
Cd254 O262 2.223 . S
Cd254 O264 2.297 . S
Cd254 O265 2.439 . S
O255 Cd254 2.240 . S
O255 C260 1.279 . S
O256 Cd253 2.297 . S
O256 C258 1.247 . S
O257 Cd253 2.439 . S
O257 C258 1.208 . S
C258 O256 1.247 . S
C258 O257 1.208 . S
C259 O264 1.247 . S
C259 O265 1.208 . S
C260 O252 1.315 . S
C260 O255 1.279 . S
C261 O262 1.315 . S
C261 O263 1.279 . S
O262 Cd254 2.223 . S
O262 C261 1.315 . S
O263 Cd253 2.240 . S
O263 C261 1.279 . S
O264 Cd254 2.297 . S
O264 C259 1.247 . S
O265 Cd254 2.439 . S
O265 C259 1.208 . S
O266 Cd267 2.223 . S
O266 C274 1.315 . S
Cd267 O266 2.223 . S
Cd267 O270 2.297 . S
Cd267 O271 2.439 . S
Cd267 O277 2.240 . S
Cd268 O269 2.240 . S
Cd268 O276 2.223 . S
Cd268 O278 2.297 . S
Cd268 O279 2.439 . S
O269 Cd268 2.240 . S
O269 C274 1.279 . S
O270 Cd267 2.297 . S
O270 C272 1.247 . S
O271 Cd267 2.439 . S
O271 C272 1.208 . S
C272 O270 1.247 . S
C272 O271 1.208 . S
C273 O278 1.247 . S
C273 O279 1.208 . S
C274 O266 1.315 . S
C274 O269 1.279 . S
C275 O276 1.315 . S
C275 O277 1.279 . S
O276 Cd268 2.223 . S
O276 C275 1.315 . S
O277 Cd267 2.240 . S
O277 C275 1.279 . S
O278 Cd268 2.297 . S
O278 C273 1.247 . S
O279 Cd268 2.439 . S
O279 C273 1.208 . S
O280 Cd281 2.223 . S
O280 C288 1.315 . S
Cd281 O280 2.223 . S
Cd281 O284 2.297 . S
Cd281 O285 2.439 . S
Cd281 O291 2.240 . S
Cd282 O283 2.240 . S
Cd282 O290 2.223 . S
Cd282 O292 2.297 . S
Cd282 O293 2.439 . S
O283 Cd282 2.240 . S
O283 C288 1.279 . S
O284 Cd281 2.297 . S
O284 C286 1.247 . S
O285 Cd281 2.439 . S
O285 C286 1.208 . S
C286 O284 1.247 . S
C286 O285 1.208 . S
C287 O292 1.247 . S
C287 O293 1.208 . S
C288 O280 1.315 . S
C288 O283 1.279 . S
C289 O290 1.315 . S
C289 O291 1.279 . S
O290 Cd282 2.223 . S
O290 C289 1.315 . S
O291 Cd281 2.240 . S
O291 C289 1.279 . S
O292 Cd282 2.297 . S
O292 C287 1.247 . S
O293 Cd282 2.439 . S
O293 C287 1.208 . S
O294 Cd295 2.223 . S
O294 C302 1.315 . S
Cd295 O294 2.223 . S
Cd295 O298 2.297 . S
Cd295 O299 2.439 . S
Cd295 O305 2.240 . S
Cd296 O297 2.240 . S
Cd296 O304 2.223 . S
Cd296 O306 2.297 . S
Cd296 O307 2.439 . S
O297 Cd296 2.240 . S
O297 C302 1.279 . S
O298 Cd295 2.297 . S
O298 C300 1.247 . S
O299 Cd295 2.439 . S
O299 C300 1.208 . S
C300 O298 1.247 . S
C300 O299 1.208 . S
C301 O306 1.247 . S
C301 O307 1.208 . S
C302 O294 1.315 . S
C302 O297 1.279 . S
C303 O304 1.315 . S
C303 O305 1.279 . S
O304 Cd296 2.223 . S
O304 C303 1.315 . S
O305 Cd295 2.240 . S
O305 C303 1.279 . S
O306 Cd296 2.297 . S
O306 C301 1.247 . S
O307 Cd296 2.439 . S
O307 C301 1.208 . S
O308 Cd309 2.223 . S
O308 C316 1.315 . S
Cd309 O308 2.223 . S
Cd309 O312 2.297 . S
Cd309 O313 2.439 . S
Cd309 O319 2.240 . S
Cd310 O311 2.240 . S
Cd310 O318 2.223 . S
Cd310 O320 2.297 . S
Cd310 O321 2.439 . S
O311 Cd310 2.240 . S
O311 C316 1.279 . S
O312 Cd309 2.297 . S
O312 C314 1.247 . S
O313 Cd309 2.439 . S
O313 C314 1.208 . S
C314 O312 1.247 . S
C314 O313 1.208 . S
C315 O320 1.247 . S
C315 O321 1.208 . S
C316 O308 1.315 . S
C316 O311 1.279 . S
C317 O318 1.315 . S
C317 O319 1.279 . S
O318 Cd310 2.223 . S
O318 C317 1.315 . S
O319 Cd309 2.240 . S
O319 C317 1.279 . S
O320 Cd310 2.297 . S
O320 C315 1.247 . S
O321 Cd310 2.439 . S
O321 C315 1.208 . S
O322 Cd323 2.223 . S
O322 C330 1.315 . S
Cd323 O322 2.223 . S
Cd323 O326 2.297 . S
Cd323 O327 2.439 . S
Cd323 O333 2.240 . S
Cd324 O325 2.240 . S
Cd324 O332 2.223 . S
Cd324 O334 2.297 . S
Cd324 O335 2.439 . S
O325 Cd324 2.240 . S
O325 C330 1.279 . S
O326 Cd323 2.297 . S
O326 C328 1.247 . S
O327 Cd323 2.439 . S
O327 C328 1.208 . S
C328 O326 1.247 . S
C328 O327 1.208 . S
C329 O334 1.247 . S
C329 O335 1.208 . S
C330 O322 1.315 . S
C330 O325 1.279 . S
C331 O332 1.315 . S
C331 O333 1.279 . S
O332 Cd324 2.223 . S
O332 C331 1.315 . S
O333 Cd323 2.240 . S
O333 C331 1.279 . S
O334 Cd324 2.297 . S
O334 C329 1.247 . S
O335 Cd324 2.439 . S
O335 C329 1.208 . S
O336 Cd337 2.223 . S
O336 C344 1.315 . S
Cd337 O336 2.223 . S
Cd337 O340 2.297 . S
Cd337 O341 2.439 . S
Cd337 O347 2.240 . S
Cd338 O339 2.240 . S
Cd338 O346 2.223 . S
Cd338 O348 2.297 . S
Cd338 O349 2.439 . S
O339 Cd338 2.240 . S
O339 C344 1.279 . S
O340 Cd337 2.297 . S
O340 C342 1.247 . S
O341 Cd337 2.439 . S
O341 C342 1.208 . S
C342 O340 1.247 . S
C342 O341 1.208 . S
C343 O348 1.247 . S
C343 O349 1.208 . S
C344 O336 1.315 . S
C344 O339 1.279 . S
C345 O346 1.315 . S
C345 O347 1.279 . S
O346 Cd338 2.223 . S
O346 C345 1.315 . S
O347 Cd337 2.240 . S
O347 C345 1.279 . S
O348 Cd338 2.297 . S
O348 C343 1.247 . S
O349 Cd338 2.439 . S
O349 C343 1.208 . S
O350 Cd351 2.223 . S
O350 C358 1.315 . S
Cd351 O350 2.223 . S
Cd351 O354 2.297 . S
Cd351 O355 2.439 . S
Cd351 O361 2.240 . S
Cd352 O353 2.240 . S
Cd352 O360 2.223 . S
Cd352 O362 2.297 . S
Cd352 O363 2.439 . S
O353 Cd352 2.240 . S
O353 C358 1.279 . S
O354 Cd351 2.297 . S
O354 C356 1.247 . S
O355 Cd351 2.439 . S
O355 C356 1.208 . S
C356 O354 1.247 . S
C356 O355 1.208 . S
C357 O362 1.247 . S
C357 O363 1.208 . S
C358 O350 1.315 . S
C358 O353 1.279 . S
C359 O360 1.315 . S
C359 O361 1.279 . S
O360 Cd352 2.223 . S
O360 C359 1.315 . S
O361 Cd351 2.240 . S
O361 C359 1.279 . S
O362 Cd352 2.297 . S
O362 C357 1.247 . S
O363 Cd352 2.439 . S
O363 C357 1.208 . S
O364 Cd365 2.223 . S
O364 C372 1.315 . S
Cd365 O364 2.223 . S
Cd365 O368 2.297 . S
Cd365 O369 2.439 . S
Cd365 O375 2.240 . S
Cd366 O367 2.240 . S
Cd366 O374 2.223 . S
Cd366 O376 2.297 . S
Cd366 O377 2.439 . S
O367 Cd366 2.240 . S
O367 C372 1.279 . S
O368 Cd365 2.297 . S
O368 C370 1.247 . S
O369 Cd365 2.439 . S
O369 C370 1.208 . S
C370 O368 1.247 . S
C370 O369 1.208 . S
C371 O376 1.247 . S
C371 O377 1.208 . S
C372 O364 1.315 . S
C372 O367 1.279 . S
C373 O374 1.315 . S
C373 O375 1.279 . S
O374 Cd366 2.223 . S
O374 C373 1.315 . S
O375 Cd365 2.240 . S
O375 C373 1.279 . S
O376 Cd366 2.297 . S
O376 C371 1.247 . S
O377 Cd366 2.439 . S
O377 C371 1.208 . S
O378 Cd379 2.223 . S
O378 C386 1.315 . S
Cd379 O378 2.223 . S
Cd379 O382 2.297 . S
Cd379 O383 2.439 . S
Cd379 O389 2.240 . S
Cd380 O381 2.240 . S
Cd380 O388 2.223 . S
Cd380 O390 2.297 . S
Cd380 O391 2.439 . S
O381 Cd380 2.240 . S
O381 C386 1.279 . S
O382 Cd379 2.297 . S
O382 C384 1.247 . S
O383 Cd379 2.439 . S
O383 C384 1.208 . S
C384 O382 1.247 . S
C384 O383 1.208 . S
C385 O390 1.247 . S
C385 O391 1.208 . S
C386 O378 1.315 . S
C386 O381 1.279 . S
C387 O388 1.315 . S
C387 O389 1.279 . S
O388 Cd380 2.223 . S
O388 C387 1.315 . S
O389 Cd379 2.240 . S
O389 C387 1.279 . S
O390 Cd380 2.297 . S
O390 C385 1.247 . S
O391 Cd380 2.439 . S
O391 C385 1.208 . S
O392 Cd393 2.223 . S
O392 C400 1.315 . S
Cd393 O392 2.223 . S
Cd393 O396 2.297 . S
Cd393 O397 2.439 . S
Cd393 O403 2.240 . S
Cd394 O395 2.240 . S
Cd394 O402 2.223 . S
Cd394 O404 2.297 . S
Cd394 O405 2.439 . S
O395 Cd394 2.240 . S
O395 C400 1.279 . S
O396 Cd393 2.297 . S
O396 C398 1.247 . S
O397 Cd393 2.439 . S
O397 C398 1.208 . S
C398 O396 1.247 . S
C398 O397 1.208 . S
C399 O404 1.247 . S
C399 O405 1.208 . S
C400 O392 1.315 . S
C400 O395 1.279 . S
C401 O402 1.315 . S
C401 O403 1.279 . S
O402 Cd394 2.223 . S
O402 C401 1.315 . S
O403 Cd393 2.240 . S
O403 C401 1.279 . S
O404 Cd394 2.297 . S
O404 C399 1.247 . S
O405 Cd394 2.439 . S
O405 C399 1.208 . S
O406 Cd407 2.223 . S
O406 C414 1.315 . S
Cd407 O406 2.223 . S
Cd407 O410 2.297 . S
Cd407 O411 2.439 . S
Cd407 O417 2.240 . S
Cd408 O409 2.240 . S
Cd408 O416 2.223 . S
Cd408 O418 2.297 . S
Cd408 O419 2.439 . S
O409 Cd408 2.240 . S
O409 C414 1.279 . S
O410 Cd407 2.297 . S
O410 C412 1.247 . S
O411 Cd407 2.439 . S
O411 C412 1.208 . S
C412 O410 1.247 . S
C412 O411 1.208 . S
C413 O418 1.247 . S
C413 O419 1.208 . S
C414 O406 1.315 . S
C414 O409 1.279 . S
C415 O416 1.315 . S
C415 O417 1.279 . S
O416 Cd408 2.223 . S
O416 C415 1.315 . S
O417 Cd407 2.240 . S
O417 C415 1.279 . S
O418 Cd408 2.297 . S
O418 C413 1.247 . S
O419 Cd408 2.439 . S
O419 C413 1.208 . S
O420 Cd421 2.223 . S
O420 C428 1.315 . S
Cd421 O420 2.223 . S
Cd421 O424 2.297 . S
Cd421 O425 2.439 . S
Cd421 O431 2.240 . S
Cd422 O423 2.240 . S
Cd422 O430 2.223 . S
Cd422 O432 2.297 . S
Cd422 O433 2.439 . S
O423 Cd422 2.240 . S
O423 C428 1.279 . S
O424 Cd421 2.297 . S
O424 C426 1.247 . S
O425 Cd421 2.439 . S
O425 C426 1.208 . S
C426 O424 1.247 . S
C426 O425 1.208 . S
C427 O432 1.247 . S
C427 O433 1.208 . S
C428 O420 1.315 . S
C428 O423 1.279 . S
C429 O430 1.315 . S
C429 O431 1.279 . S
O430 Cd422 2.223 . S
O430 C429 1.315 . S
O431 Cd421 2.240 . S
O431 C429 1.279 . S
O432 Cd422 2.297 . S
O432 C427 1.247 . S
O433 Cd422 2.439 . S
O433 C427 1.208 . S
O434 Cd435 2.223 . S
O434 C442 1.315 . S
Cd435 O434 2.223 . S
Cd435 O438 2.297 . S
Cd435 O439 2.439 . S
Cd435 O445 2.240 . S
Cd436 O437 2.240 . S
Cd436 O444 2.223 . S
Cd436 O446 2.297 . S
Cd436 O447 2.439 . S
O437 Cd436 2.240 . S
O437 C442 1.279 . S
O438 Cd435 2.297 . S
O438 C440 1.247 . S
O439 Cd435 2.439 . S
O439 C440 1.208 . S
C440 O438 1.247 . S
C440 O439 1.208 . S
C441 O446 1.247 . S
C441 O447 1.208 . S
C442 O434 1.315 . S
C442 O437 1.279 . S
C443 O444 1.315 . S
C443 O445 1.279 . S
O444 Cd436 2.223 . S
O444 C443 1.315 . S
O445 Cd435 2.240 . S
O445 C443 1.279 . S
O446 Cd436 2.297 . S
O446 C441 1.247 . S
O447 Cd436 2.439 . S
O447 C441 1.208 . S
C448 C449 1.349 . S
C448 C450 1.327 . S
C448 H473 0.950 . S
C449 C448 1.349 . S
C449 C465 1.349 . S
C450 C448 1.327 . S
C450 C469 1.429 . S
C450 H474 0.950 . S
C451 C468 1.574 . S
C451 C470 1.368 . S
C451 H475 0.949 . S
H452 C456 0.949 . S
C453 C454 1.349 . S
C453 C455 1.327 . S
C453 H476 0.950 . S
C454 C453 1.349 . S
C454 C466 1.349 . S
C455 C453 1.327 . S
C455 C471 1.429 . S
C455 H477 0.950 . S
C456 H452 0.949 . S
C456 C464 1.574 . S
C456 C472 1.368 . S
H457 C465 0.950 . S
H458 C463 0.950 . S
H459 C464 0.949 . S
H460 C466 0.950 . S
H461 C467 0.950 . S
H462 C468 0.949 . S
C463 H458 0.950 . S
C463 C465 1.327 . S
C463 C469 1.429 . S
C464 C456 1.574 . S
C464 H459 0.949 . S
C464 C470 1.368 . S
C465 C449 1.349 . S
C465 H457 0.950 . S
C465 C463 1.327 . S
C466 C454 1.349 . S
C466 H460 0.950 . S
C466 C467 1.327 . S
C467 H461 0.950 . S
C467 C466 1.327 . S
C467 C471 1.429 . S
C468 C451 1.574 . S
C468 H462 0.949 . S
C468 C472 1.368 . S
C469 C450 1.429 . S
C469 C463 1.429 . S
C469 C470 1.523 . S
C470 C451 1.368 . S
C470 C464 1.368 . S
C470 C469 1.523 . S
C471 C455 1.429 . S
C471 C467 1.429 . S
C471 C472 1.523 . S
C472 C456 1.368 . S
C472 C468 1.368 . S
C472 C471 1.523 . S
H473 C448 0.950 . S
H474 C450 0.950 . S
H475 C451 0.949 . S
H476 C453 0.950 . S
H477 C455 0.950 . S
C478 C479 1.349 . S
C478 C480 1.327 . S
C478 H503 0.950 . S
C479 C478 1.349 . S
C479 C495 1.349 . S
C480 C478 1.327 . S
C480 C499 1.429 . S
C480 H504 0.950 . S
C481 C498 1.574 . S
C481 C500 1.368 . S
C481 H505 0.949 . S
H482 C486 0.949 . S
C483 C484 1.349 . S
C483 C485 1.327 . S
C483 H506 0.950 . S
C484 C483 1.349 . S
C484 C496 1.349 . S
C485 C483 1.327 . S
C485 C501 1.429 . S
C485 H507 0.950 . S
C486 H482 0.949 . S
C486 C494 1.574 . S
C486 C502 1.368 . S
H487 C495 0.950 . S
H488 C493 0.950 . S
H489 C494 0.949 . S
H490 C496 0.950 . S
H491 C497 0.950 . S
H492 C498 0.949 . S
C493 H488 0.950 . S
C493 C495 1.327 . S
C493 C499 1.429 . S
C494 C486 1.574 . S
C494 H489 0.949 . S
C494 C500 1.368 . S
C495 C479 1.349 . S
C495 H487 0.950 . S
C495 C493 1.327 . S
C496 C484 1.349 . S
C496 H490 0.950 . S
C496 C497 1.327 . S
C497 H491 0.950 . S
C497 C496 1.327 . S
C497 C501 1.429 . S
C498 C481 1.574 . S
C498 H492 0.949 . S
C498 C502 1.368 . S
C499 C480 1.429 . S
C499 C493 1.429 . S
C499 C500 1.523 . S
C500 C481 1.368 . S
C500 C494 1.368 . S
C500 C499 1.523 . S
C501 C485 1.429 . S
C501 C497 1.429 . S
C501 C502 1.523 . S
C502 C486 1.368 . S
C502 C498 1.368 . S
C502 C501 1.523 . S
H503 C478 0.950 . S
H504 C480 0.950 . S
H505 C481 0.949 . S
H506 C483 0.950 . S
H507 C485 0.950 . S
C508 C509 1.349 . S
C508 C510 1.327 . S
C508 H533 0.950 . S
C509 C508 1.349 . S
C509 C525 1.349 . S
C510 C508 1.327 . S
C510 C529 1.429 . S
C510 H534 0.950 . S
C511 C528 1.574 . S
C511 C530 1.368 . S
C511 H535 0.949 . S
H512 C516 0.949 . S
C513 C514 1.349 . S
C513 C515 1.327 . S
C513 H536 0.950 . S
C514 C513 1.349 . S
C514 C526 1.349 . S
C515 C513 1.327 . S
C515 C531 1.429 . S
C515 H537 0.950 . S
C516 H512 0.949 . S
C516 C524 1.574 . S
C516 C532 1.368 . S
H517 C525 0.950 . S
H518 C523 0.950 . S
H519 C524 0.949 . S
H520 C526 0.950 . S
H521 C527 0.950 . S
H522 C528 0.949 . S
C523 H518 0.950 . S
C523 C525 1.327 . S
C523 C529 1.429 . S
C524 C516 1.574 . S
C524 H519 0.949 . S
C524 C530 1.368 . S
C525 C509 1.349 . S
C525 H517 0.950 . S
C525 C523 1.327 . S
C526 C514 1.349 . S
C526 H520 0.950 . S
C526 C527 1.327 . S
C527 H521 0.950 . S
C527 C526 1.327 . S
C527 C531 1.429 . S
C528 C511 1.574 . S
C528 H522 0.949 . S
C528 C532 1.368 . S
C529 C510 1.429 . S
C529 C523 1.429 . S
C529 C530 1.523 . S
C530 C511 1.368 . S
C530 C524 1.368 . S
C530 C529 1.523 . S
C531 C515 1.429 . S
C531 C527 1.429 . S
C531 C532 1.523 . S
C532 C516 1.368 . S
C532 C528 1.368 . S
C532 C531 1.523 . S
H533 C508 0.950 . S
H534 C510 0.950 . S
H535 C511 0.949 . S
H536 C513 0.950 . S
H537 C515 0.950 . S
C538 C539 1.349 . S
C538 C540 1.327 . S
C538 H563 0.950 . S
C539 C538 1.349 . S
C539 C555 1.349 . S
C540 C538 1.327 . S
C540 C559 1.429 . S
C540 H564 0.950 . S
C541 C558 1.574 . S
C541 C560 1.368 . S
C541 H565 0.949 . S
H542 C546 0.949 . S
C543 C544 1.349 . S
C543 C545 1.327 . S
C543 H566 0.950 . S
C544 C543 1.349 . S
C544 C556 1.349 . S
C545 C543 1.327 . S
C545 C561 1.429 . S
C545 H567 0.950 . S
C546 H542 0.949 . S
C546 C554 1.574 . S
C546 C562 1.368 . S
H547 C555 0.950 . S
H548 C553 0.950 . S
H549 C554 0.949 . S
H550 C556 0.950 . S
H551 C557 0.950 . S
H552 C558 0.949 . S
C553 H548 0.950 . S
C553 C555 1.327 . S
C553 C559 1.429 . S
C554 C546 1.574 . S
C554 H549 0.949 . S
C554 C560 1.368 . S
C555 C539 1.349 . S
C555 H547 0.950 . S
C555 C553 1.327 . S
C556 C544 1.349 . S
C556 H550 0.950 . S
C556 C557 1.327 . S
C557 H551 0.950 . S
C557 C556 1.327 . S
C557 C561 1.429 . S
C558 C541 1.574 . S
C558 H552 0.949 . S
C558 C562 1.368 . S
C559 C540 1.429 . S
C559 C553 1.429 . S
C559 C560 1.523 . S
C560 C541 1.368 . S
C560 C554 1.368 . S
C560 C559 1.523 . S
C561 C545 1.429 . S
C561 C557 1.429 . S
C561 C562 1.523 . S
C562 C546 1.368 . S
C562 C558 1.368 . S
C562 C561 1.523 . S
H563 C538 0.950 . S
H564 C540 0.950 . S
H565 C541 0.949 . S
H566 C543 0.950 . S
H567 C545 0.950 . S
C568 C569 1.349 . S
C568 C570 1.327 . S
C568 H593 0.950 . S
C569 C568 1.349 . S
C569 C585 1.349 . S
C570 C568 1.327 . S
C570 C589 1.429 . S
C570 H594 0.950 . S
C571 C588 1.574 . S
C571 C590 1.368 . S
C571 H595 0.949 . S
H572 C576 0.949 . S
C573 C574 1.349 . S
C573 C575 1.327 . S
C573 H596 0.950 . S
C574 C573 1.349 . S
C574 C586 1.349 . S
C575 C573 1.327 . S
C575 C591 1.429 . S
C575 H597 0.950 . S
C576 H572 0.949 . S
C576 C584 1.574 . S
C576 C592 1.368 . S
H577 C585 0.950 . S
H578 C583 0.950 . S
H579 C584 0.949 . S
H580 C586 0.950 . S
H581 C587 0.950 . S
H582 C588 0.949 . S
C583 H578 0.950 . S
C583 C585 1.327 . S
C583 C589 1.429 . S
C584 C576 1.574 . S
C584 H579 0.949 . S
C584 C590 1.368 . S
C585 C569 1.349 . S
C585 H577 0.950 . S
C585 C583 1.327 . S
C586 C574 1.349 . S
C586 H580 0.950 . S
C586 C587 1.327 . S
C587 H581 0.950 . S
C587 C586 1.327 . S
C587 C591 1.429 . S
C588 C571 1.574 . S
C588 H582 0.949 . S
C588 C592 1.368 . S
C589 C570 1.429 . S
C589 C583 1.429 . S
C589 C590 1.523 . S
C590 C571 1.368 . S
C590 C584 1.368 . S
C590 C589 1.523 . S
C591 C575 1.429 . S
C591 C587 1.429 . S
C591 C592 1.523 . S
C592 C576 1.368 . S
C592 C588 1.368 . S
C592 C591 1.523 . S
H593 C568 0.950 . S
H594 C570 0.950 . S
H595 C571 0.949 . S
H596 C573 0.950 . S
H597 C575 0.950 . S
C598 C599 1.349 . S
C598 C600 1.327 . S
C598 H623 0.950 . S
C599 C598 1.349 . S
C599 C615 1.349 . S
C600 C598 1.327 . S
C600 C619 1.429 . S
C600 H624 0.950 . S
C601 C618 1.574 . S
C601 C620 1.368 . S
C601 H625 0.949 . S
H602 C606 0.949 . S
C603 C604 1.349 . S
C603 C605 1.327 . S
C603 H626 0.950 . S
C604 C603 1.349 . S
C604 C616 1.349 . S
C605 C603 1.327 . S
C605 C621 1.429 . S
C605 H627 0.950 . S
C606 H602 0.949 . S
C606 C614 1.574 . S
C606 C622 1.368 . S
H607 C615 0.950 . S
H608 C613 0.950 . S
H609 C614 0.949 . S
H610 C616 0.950 . S
H611 C617 0.950 . S
H612 C618 0.949 . S
C613 H608 0.950 . S
C613 C615 1.327 . S
C613 C619 1.429 . S
C614 C606 1.574 . S
C614 H609 0.949 . S
C614 C620 1.368 . S
C615 C599 1.349 . S
C615 H607 0.950 . S
C615 C613 1.327 . S
C616 C604 1.349 . S
C616 H610 0.950 . S
C616 C617 1.327 . S
C617 H611 0.950 . S
C617 C616 1.327 . S
C617 C621 1.429 . S
C618 C601 1.574 . S
C618 H612 0.949 . S
C618 C622 1.368 . S
C619 C600 1.429 . S
C619 C613 1.429 . S
C619 C620 1.523 . S
C620 C601 1.368 . S
C620 C614 1.368 . S
C620 C619 1.523 . S
C621 C605 1.429 . S
C621 C617 1.429 . S
C621 C622 1.523 . S
C622 C606 1.368 . S
C622 C618 1.368 . S
C622 C621 1.523 . S
H623 C598 0.950 . S
H624 C600 0.950 . S
H625 C601 0.949 . S
H626 C603 0.950 . S
H627 C605 0.950 . S
C628 C629 1.349 . S
C628 C630 1.327 . S
C628 H653 0.950 . S
C629 C628 1.349 . S
C629 C645 1.349 . S
C630 C628 1.327 . S
C630 C649 1.429 . S
C630 H654 0.950 . S
C631 C648 1.574 . S
C631 C650 1.368 . S
C631 H655 0.949 . S
H632 C636 0.949 . S
C633 C634 1.349 . S
C633 C635 1.327 . S
C633 H656 0.950 . S
C634 C633 1.349 . S
C634 C646 1.349 . S
C635 C633 1.327 . S
C635 C651 1.429 . S
C635 H657 0.950 . S
C636 H632 0.949 . S
C636 C644 1.574 . S
C636 C652 1.368 . S
H637 C645 0.950 . S
H638 C643 0.950 . S
H639 C644 0.949 . S
H640 C646 0.950 . S
H641 C647 0.950 . S
H642 C648 0.949 . S
C643 H638 0.950 . S
C643 C645 1.327 . S
C643 C649 1.429 . S
C644 C636 1.574 . S
C644 H639 0.949 . S
C644 C650 1.368 . S
C645 C629 1.349 . S
C645 H637 0.950 . S
C645 C643 1.327 . S
C646 C634 1.349 . S
C646 H640 0.950 . S
C646 C647 1.327 . S
C647 H641 0.950 . S
C647 C646 1.327 . S
C647 C651 1.429 . S
C648 C631 1.574 . S
C648 H642 0.949 . S
C648 C652 1.368 . S
C649 C630 1.429 . S
C649 C643 1.429 . S
C649 C650 1.523 . S
C650 C631 1.368 . S
C650 C644 1.368 . S
C650 C649 1.523 . S
C651 C635 1.429 . S
C651 C647 1.429 . S
C651 C652 1.523 . S
C652 C636 1.368 . S
C652 C648 1.368 . S
C652 C651 1.523 . S
H653 C628 0.950 . S
H654 C630 0.950 . S
H655 C631 0.949 . S
H656 C633 0.950 . S
H657 C635 0.950 . S
C658 C659 1.349 . S
C658 C660 1.327 . S
C658 H683 0.950 . S
C659 C658 1.349 . S
C659 C675 1.349 . S
C660 C658 1.327 . S
C660 C679 1.429 . S
C660 H684 0.950 . S
C661 C678 1.574 . S
C661 C680 1.368 . S
C661 H685 0.949 . S
H662 C666 0.949 . S
C663 C664 1.349 . S
C663 C665 1.327 . S
C663 H686 0.950 . S
C664 C663 1.349 . S
C664 C676 1.349 . S
C665 C663 1.327 . S
C665 C681 1.429 . S
C665 H687 0.950 . S
C666 H662 0.949 . S
C666 C674 1.574 . S
C666 C682 1.368 . S
H667 C675 0.950 . S
H668 C673 0.950 . S
H669 C674 0.949 . S
H670 C676 0.950 . S
H671 C677 0.950 . S
H672 C678 0.949 . S
C673 H668 0.950 . S
C673 C675 1.327 . S
C673 C679 1.429 . S
C674 C666 1.574 . S
C674 H669 0.949 . S
C674 C680 1.368 . S
C675 C659 1.349 . S
C675 H667 0.950 . S
C675 C673 1.327 . S
C676 C664 1.349 . S
C676 H670 0.950 . S
C676 C677 1.327 . S
C677 H671 0.950 . S
C677 C676 1.327 . S
C677 C681 1.429 . S
C678 C661 1.574 . S
C678 H672 0.949 . S
C678 C682 1.368 . S
C679 C660 1.429 . S
C679 C673 1.429 . S
C679 C680 1.523 . S
C680 C661 1.368 . S
C680 C674 1.368 . S
C680 C679 1.523 . S
C681 C665 1.429 . S
C681 C677 1.429 . S
C681 C682 1.523 . S
C682 C666 1.368 . S
C682 C678 1.368 . S
C682 C681 1.523 . S
H683 C658 0.950 . S
H684 C660 0.950 . S
H685 C661 0.949 . S
H686 C663 0.950 . S
H687 C665 0.950 . S
C688 C689 1.349 . S
C688 C690 1.327 . S
C688 H713 0.950 . S
C689 C688 1.349 . S
C689 C705 1.349 . S
C690 C688 1.327 . S
C690 C709 1.429 . S
C690 H714 0.950 . S
C691 C708 1.574 . S
C691 C710 1.368 . S
C691 H715 0.949 . S
H692 C696 0.949 . S
C693 C694 1.349 . S
C693 C695 1.327 . S
C693 H716 0.950 . S
C694 C693 1.349 . S
C694 C706 1.349 . S
C695 C693 1.327 . S
C695 C711 1.429 . S
C695 H717 0.950 . S
C696 H692 0.949 . S
C696 C704 1.574 . S
C696 C712 1.368 . S
H697 C705 0.950 . S
H698 C703 0.950 . S
H699 C704 0.949 . S
H700 C706 0.950 . S
H701 C707 0.950 . S
H702 C708 0.949 . S
C703 H698 0.950 . S
C703 C705 1.327 . S
C703 C709 1.429 . S
C704 C696 1.574 . S
C704 H699 0.949 . S
C704 C710 1.368 . S
C705 C689 1.349 . S
C705 H697 0.950 . S
C705 C703 1.327 . S
C706 C694 1.349 . S
C706 H700 0.950 . S
C706 C707 1.327 . S
C707 H701 0.950 . S
C707 C706 1.327 . S
C707 C711 1.429 . S
C708 C691 1.574 . S
C708 H702 0.949 . S
C708 C712 1.368 . S
C709 C690 1.429 . S
C709 C703 1.429 . S
C709 C710 1.523 . S
C710 C691 1.368 . S
C710 C704 1.368 . S
C710 C709 1.523 . S
C711 C695 1.429 . S
C711 C707 1.429 . S
C711 C712 1.523 . S
C712 C696 1.368 . S
C712 C708 1.368 . S
C712 C711 1.523 . S
H713 C688 0.950 . S
H714 C690 0.950 . S
H715 C691 0.949 . S
H716 C693 0.950 . S
H717 C695 0.950 . S
C718 C719 1.349 . S
C718 C720 1.327 . S
C718 H743 0.950 . S
C719 C718 1.349 . S
C719 C735 1.349 . S
C720 C718 1.327 . S
C720 C739 1.429 . S
C720 H744 0.950 . S
C721 C738 1.574 . S
C721 C740 1.368 . S
C721 H745 0.949 . S
H722 C726 0.949 . S
C723 C724 1.349 . S
C723 C725 1.327 . S
C723 H746 0.950 . S
C724 C723 1.349 . S
C724 C736 1.349 . S
C725 C723 1.327 . S
C725 C741 1.429 . S
C725 H747 0.950 . S
C726 H722 0.949 . S
C726 C734 1.574 . S
C726 C742 1.368 . S
H727 C735 0.950 . S
H728 C733 0.950 . S
H729 C734 0.949 . S
H730 C736 0.950 . S
H731 C737 0.950 . S
H732 C738 0.949 . S
C733 H728 0.950 . S
C733 C735 1.327 . S
C733 C739 1.429 . S
C734 C726 1.574 . S
C734 H729 0.949 . S
C734 C740 1.368 . S
C735 C719 1.349 . S
C735 H727 0.950 . S
C735 C733 1.327 . S
C736 C724 1.349 . S
C736 H730 0.950 . S
C736 C737 1.327 . S
C737 H731 0.950 . S
C737 C736 1.327 . S
C737 C741 1.429 . S
C738 C721 1.574 . S
C738 H732 0.949 . S
C738 C742 1.368 . S
C739 C720 1.429 . S
C739 C733 1.429 . S
C739 C740 1.523 . S
C740 C721 1.368 . S
C740 C734 1.368 . S
C740 C739 1.523 . S
C741 C725 1.429 . S
C741 C737 1.429 . S
C741 C742 1.523 . S
C742 C726 1.368 . S
C742 C738 1.368 . S
C742 C741 1.523 . S
H743 C718 0.950 . S
H744 C720 0.950 . S
H745 C721 0.949 . S
H746 C723 0.950 . S
H747 C725 0.950 . S
C748 C749 1.349 . S
C748 C750 1.327 . S
C748 H773 0.950 . S
C749 C748 1.349 . S
C749 C765 1.349 . S
C750 C748 1.327 . S
C750 C769 1.429 . S
C750 H774 0.950 . S
C751 C768 1.574 . S
C751 C770 1.368 . S
C751 H775 0.949 . S
H752 C756 0.949 . S
C753 C754 1.349 . S
C753 C755 1.327 . S
C753 H776 0.950 . S
C754 C753 1.349 . S
C754 C766 1.349 . S
C755 C753 1.327 . S
C755 C771 1.429 . S
C755 H777 0.950 . S
C756 H752 0.949 . S
C756 C764 1.574 . S
C756 C772 1.368 . S
H757 C765 0.950 . S
H758 C763 0.950 . S
H759 C764 0.949 . S
H760 C766 0.950 . S
H761 C767 0.950 . S
H762 C768 0.949 . S
C763 H758 0.950 . S
C763 C765 1.327 . S
C763 C769 1.429 . S
C764 C756 1.574 . S
C764 H759 0.949 . S
C764 C770 1.368 . S
C765 C749 1.349 . S
C765 H757 0.950 . S
C765 C763 1.327 . S
C766 C754 1.349 . S
C766 H760 0.950 . S
C766 C767 1.327 . S
C767 H761 0.950 . S
C767 C766 1.327 . S
C767 C771 1.429 . S
C768 C751 1.574 . S
C768 H762 0.949 . S
C768 C772 1.368 . S
C769 C750 1.429 . S
C769 C763 1.429 . S
C769 C770 1.523 . S
C770 C751 1.368 . S
C770 C764 1.368 . S
C770 C769 1.523 . S
C771 C755 1.429 . S
C771 C767 1.429 . S
C771 C772 1.523 . S
C772 C756 1.368 . S
C772 C768 1.368 . S
C772 C771 1.523 . S
H773 C748 0.950 . S
H774 C750 0.950 . S
H775 C751 0.949 . S
H776 C753 0.950 . S
H777 C755 0.950 . S
C778 C779 1.349 . S
C778 C780 1.327 . S
C778 H803 0.950 . S
C779 C778 1.349 . S
C779 C795 1.349 . S
C780 C778 1.327 . S
C780 C799 1.429 . S
C780 H804 0.950 . S
C781 C798 1.574 . S
C781 C800 1.368 . S
C781 H805 0.949 . S
H782 C786 0.949 . S
C783 C784 1.349 . S
C783 C785 1.327 . S
C783 H806 0.950 . S
C784 C783 1.349 . S
C784 C796 1.349 . S
C785 C783 1.327 . S
C785 C801 1.429 . S
C785 H807 0.950 . S
C786 H782 0.949 . S
C786 C794 1.574 . S
C786 C802 1.368 . S
H787 C795 0.950 . S
H788 C793 0.950 . S
H789 C794 0.949 . S
H790 C796 0.950 . S
H791 C797 0.950 . S
H792 C798 0.949 . S
C793 H788 0.950 . S
C793 C795 1.327 . S
C793 C799 1.429 . S
C794 C786 1.574 . S
C794 H789 0.949 . S
C794 C800 1.368 . S
C795 C779 1.349 . S
C795 H787 0.950 . S
C795 C793 1.327 . S
C796 C784 1.349 . S
C796 H790 0.950 . S
C796 C797 1.327 . S
C797 H791 0.950 . S
C797 C796 1.327 . S
C797 C801 1.429 . S
C798 C781 1.574 . S
C798 H792 0.949 . S
C798 C802 1.368 . S
C799 C780 1.429 . S
C799 C793 1.429 . S
C799 C800 1.523 . S
C800 C781 1.368 . S
C800 C794 1.368 . S
C800 C799 1.523 . S
C801 C785 1.429 . S
C801 C797 1.429 . S
C801 C802 1.523 . S
C802 C786 1.368 . S
C802 C798 1.368 . S
C802 C801 1.523 . S
H803 C778 0.950 . S
H804 C780 0.950 . S
H805 C781 0.949 . S
H806 C783 0.950 . S
H807 C785 0.950 . S
C808 C809 1.349 . S
C808 C810 1.327 . S
C808 H833 0.950 . S
C809 C808 1.349 . S
C809 C825 1.349 . S
C810 C808 1.327 . S
C810 C829 1.429 . S
C810 H834 0.950 . S
C811 C828 1.574 . S
C811 C830 1.368 . S
C811 H835 0.949 . S
H812 C816 0.949 . S
C813 C814 1.349 . S
C813 C815 1.327 . S
C813 H836 0.950 . S
C814 C813 1.349 . S
C814 C826 1.349 . S
C815 C813 1.327 . S
C815 C831 1.429 . S
C815 H837 0.950 . S
C816 H812 0.949 . S
C816 C824 1.574 . S
C816 C832 1.368 . S
H817 C825 0.950 . S
H818 C823 0.950 . S
H819 C824 0.949 . S
H820 C826 0.950 . S
H821 C827 0.950 . S
H822 C828 0.949 . S
C823 H818 0.950 . S
C823 C825 1.327 . S
C823 C829 1.429 . S
C824 C816 1.574 . S
C824 H819 0.949 . S
C824 C830 1.368 . S
C825 C809 1.349 . S
C825 H817 0.950 . S
C825 C823 1.327 . S
C826 C814 1.349 . S
C826 H820 0.950 . S
C826 C827 1.327 . S
C827 H821 0.950 . S
C827 C826 1.327 . S
C827 C831 1.429 . S
C828 C811 1.574 . S
C828 H822 0.949 . S
C828 C832 1.368 . S
C829 C810 1.429 . S
C829 C823 1.429 . S
C829 C830 1.523 . S
C830 C811 1.368 . S
C830 C824 1.368 . S
C830 C829 1.523 . S
C831 C815 1.429 . S
C831 C827 1.429 . S
C831 C832 1.523 . S
C832 C816 1.368 . S
C832 C828 1.368 . S
C832 C831 1.523 . S
H833 C808 0.950 . S
H834 C810 0.950 . S
H835 C811 0.949 . S
H836 C813 0.950 . S
H837 C815 0.950 . S
C838 C839 1.349 . S
C838 C840 1.327 . S
C838 H863 0.950 . S
C839 C838 1.349 . S
C839 C855 1.349 . S
C840 C838 1.327 . S
C840 C859 1.429 . S
C840 H864 0.950 . S
C841 C858 1.574 . S
C841 C860 1.368 . S
C841 H865 0.949 . S
H842 C846 0.949 . S
C843 C844 1.349 . S
C843 C845 1.327 . S
C843 H866 0.950 . S
C844 C843 1.349 . S
C844 C856 1.349 . S
C845 C843 1.327 . S
C845 C861 1.429 . S
C845 H867 0.950 . S
C846 H842 0.949 . S
C846 C854 1.574 . S
C846 C862 1.368 . S
H847 C855 0.950 . S
H848 C853 0.950 . S
H849 C854 0.949 . S
H850 C856 0.950 . S
H851 C857 0.950 . S
H852 C858 0.949 . S
C853 H848 0.950 . S
C853 C855 1.327 . S
C853 C859 1.429 . S
C854 C846 1.574 . S
C854 H849 0.949 . S
C854 C860 1.368 . S
C855 C839 1.349 . S
C855 H847 0.950 . S
C855 C853 1.327 . S
C856 C844 1.349 . S
C856 H850 0.950 . S
C856 C857 1.327 . S
C857 H851 0.950 . S
C857 C856 1.327 . S
C857 C861 1.429 . S
C858 C841 1.574 . S
C858 H852 0.949 . S
C858 C862 1.368 . S
C859 C840 1.429 . S
C859 C853 1.429 . S
C859 C860 1.523 . S
C860 C841 1.368 . S
C860 C854 1.368 . S
C860 C859 1.523 . S
C861 C845 1.429 . S
C861 C857 1.429 . S
C861 C862 1.523 . S
C862 C846 1.368 . S
C862 C858 1.368 . S
C862 C861 1.523 . S
H863 C838 0.950 . S
H864 C840 0.950 . S
H865 C841 0.949 . S
H866 C843 0.950 . S
H867 C845 0.950 . S
C868 C869 1.349 . S
C868 C870 1.327 . S
C868 H893 0.950 . S
C869 C868 1.349 . S
C869 C885 1.349 . S
C870 C868 1.327 . S
C870 C889 1.429 . S
C870 H894 0.950 . S
C871 C888 1.574 . S
C871 C890 1.368 . S
C871 H895 0.949 . S
H872 C876 0.949 . S
C873 C874 1.349 . S
C873 C875 1.327 . S
C873 H896 0.950 . S
C874 C873 1.349 . S
C874 C886 1.349 . S
C875 C873 1.327 . S
C875 C891 1.429 . S
C875 H897 0.950 . S
C876 H872 0.949 . S
C876 C884 1.574 . S
C876 C892 1.368 . S
H877 C885 0.950 . S
H878 C883 0.950 . S
H879 C884 0.949 . S
H880 C886 0.950 . S
H881 C887 0.950 . S
H882 C888 0.949 . S
C883 H878 0.950 . S
C883 C885 1.327 . S
C883 C889 1.429 . S
C884 C876 1.574 . S
C884 H879 0.949 . S
C884 C890 1.368 . S
C885 C869 1.349 . S
C885 H877 0.950 . S
C885 C883 1.327 . S
C886 C874 1.349 . S
C886 H880 0.950 . S
C886 C887 1.327 . S
C887 H881 0.950 . S
C887 C886 1.327 . S
C887 C891 1.429 . S
C888 C871 1.574 . S
C888 H882 0.949 . S
C888 C892 1.368 . S
C889 C870 1.429 . S
C889 C883 1.429 . S
C889 C890 1.523 . S
C890 C871 1.368 . S
C890 C884 1.368 . S
C890 C889 1.523 . S
C891 C875 1.429 . S
C891 C887 1.429 . S
C891 C892 1.523 . S
C892 C876 1.368 . S
C892 C888 1.368 . S
C892 C891 1.523 . S
H893 C868 0.950 . S
H894 C870 0.950 . S
H895 C871 0.949 . S
H896 C873 0.950 . S
H897 C875 0.950 . S
C898 C899 1.349 . S
C898 C900 1.327 . S
C898 H923 0.950 . S
C899 C898 1.349 . S
C899 C915 1.349 . S
C900 C898 1.327 . S
C900 C919 1.429 . S
C900 H924 0.950 . S
C901 C918 1.574 . S
C901 C920 1.368 . S
C901 H925 0.949 . S
H902 C906 0.949 . S
C903 C904 1.349 . S
C903 C905 1.327 . S
C903 H926 0.950 . S
C904 C903 1.349 . S
C904 C916 1.349 . S
C905 C903 1.327 . S
C905 C921 1.429 . S
C905 H927 0.950 . S
C906 H902 0.949 . S
C906 C914 1.574 . S
C906 C922 1.368 . S
H907 C915 0.950 . S
H908 C913 0.950 . S
H909 C914 0.949 . S
H910 C916 0.950 . S
H911 C917 0.950 . S
H912 C918 0.949 . S
C913 H908 0.950 . S
C913 C915 1.327 . S
C913 C919 1.429 . S
C914 C906 1.574 . S
C914 H909 0.949 . S
C914 C920 1.368 . S
C915 C899 1.349 . S
C915 H907 0.950 . S
C915 C913 1.327 . S
C916 C904 1.349 . S
C916 H910 0.950 . S
C916 C917 1.327 . S
C917 H911 0.950 . S
C917 C916 1.327 . S
C917 C921 1.429 . S
C918 C901 1.574 . S
C918 H912 0.949 . S
C918 C922 1.368 . S
C919 C900 1.429 . S
C919 C913 1.429 . S
C919 C920 1.523 . S
C920 C901 1.368 . S
C920 C914 1.368 . S
C920 C919 1.523 . S
C921 C905 1.429 . S
C921 C917 1.429 . S
C921 C922 1.523 . S
C922 C906 1.368 . S
C922 C918 1.368 . S
C922 C921 1.523 . S
H923 C898 0.950 . S
H924 C900 0.950 . S
H925 C901 0.949 . S
H926 C903 0.950 . S
H927 C905 0.950 . S
C928 C929 1.349 . S
C928 C930 1.327 . S
C928 H953 0.950 . S
C929 C928 1.349 . S
C929 C945 1.349 . S
C930 C928 1.327 . S
C930 C949 1.429 . S
C930 H954 0.950 . S
C931 C948 1.574 . S
C931 C950 1.368 . S
C931 H955 0.949 . S
H932 C936 0.949 . S
C933 C934 1.349 . S
C933 C935 1.327 . S
C933 H956 0.950 . S
C934 C933 1.349 . S
C934 C946 1.349 . S
C935 C933 1.327 . S
C935 C951 1.429 . S
C935 H957 0.950 . S
C936 H932 0.949 . S
C936 C944 1.574 . S
C936 C952 1.368 . S
H937 C945 0.950 . S
H938 C943 0.950 . S
H939 C944 0.949 . S
H940 C946 0.950 . S
H941 C947 0.950 . S
H942 C948 0.949 . S
C943 H938 0.950 . S
C943 C945 1.327 . S
C943 C949 1.429 . S
C944 C936 1.574 . S
C944 H939 0.949 . S
C944 C950 1.368 . S
C945 C929 1.349 . S
C945 H937 0.950 . S
C945 C943 1.327 . S
C946 C934 1.349 . S
C946 H940 0.950 . S
C946 C947 1.327 . S
C947 H941 0.950 . S
C947 C946 1.327 . S
C947 C951 1.429 . S
C948 C931 1.574 . S
C948 H942 0.949 . S
C948 C952 1.368 . S
C949 C930 1.429 . S
C949 C943 1.429 . S
C949 C950 1.523 . S
C950 C931 1.368 . S
C950 C944 1.368 . S
C950 C949 1.523 . S
C951 C935 1.429 . S
C951 C947 1.429 . S
C951 C952 1.523 . S
C952 C936 1.368 . S
C952 C948 1.368 . S
C952 C951 1.523 . S
H953 C928 0.950 . S
H954 C930 0.950 . S
H955 C931 0.949 . S
H956 C933 0.950 . S
H957 C935 0.950 . S
C958 C959 1.349 1_655 S
C958 C960 1.327 . S
C958 H983 0.950 1_655 S
C959 C958 1.349 1_455 S
C959 C975 1.349 . S
C960 C958 1.327 . S
C960 C979 1.429 . S
C960 H984 0.950 . S
C961 C978 1.574 . S
C961 C980 1.368 . S
C961 H985 0.949 . S
H962 C966 0.949 . S
C963 C964 1.349 . S
C963 C965 1.327 . S
C963 H986 0.950 . S
C964 C963 1.349 . S
C964 C976 1.349 . S
C965 C963 1.327 . S
C965 C981 1.429 . S
C965 H987 0.950 . S
C966 H962 0.949 . S
C966 C974 1.574 . S
C966 C982 1.368 . S
H967 C975 0.950 . S
H968 C973 0.950 . S
H969 C974 0.949 . S
H970 C976 0.950 . S
H971 C977 0.950 . S
H972 C978 0.949 . S
C973 H968 0.950 . S
C973 C975 1.327 1_655 S
C973 C979 1.429 . S
C974 C966 1.574 . S
C974 H969 0.949 . S
C974 C980 1.368 . S
C975 C959 1.349 . S
C975 H967 0.950 . S
C975 C973 1.327 1_455 S
C976 C964 1.349 . S
C976 H970 0.950 . S
C976 C977 1.327 . S
C977 H971 0.950 . S
C977 C976 1.327 . S
C977 C981 1.429 . S
C978 C961 1.574 . S
C978 H972 0.949 . S
C978 C982 1.368 . S
C979 C960 1.429 . S
C979 C973 1.429 . S
C979 C980 1.523 . S
C980 C961 1.368 . S
C980 C974 1.368 . S
C980 C979 1.523 . S
C981 C965 1.429 . S
C981 C977 1.429 . S
C981 C982 1.523 . S
C982 C966 1.368 . S
C982 C978 1.368 . S
C982 C981 1.523 . S
H983 C958 0.950 1_455 S
H984 C960 0.950 . S
H985 C961 0.949 . S
H986 C963 0.950 . S
H987 C965 0.950 . S
C988 C989 1.349 . S
C988 C990 1.327 . S
C988 H1013 0.950 . S
C989 C988 1.349 . S
C989 C1005 1.349 . S
C990 C988 1.327 . S
C990 C1009 1.429 . S
C990 H1014 0.950 . S
C991 C1008 1.574 . S
C991 C1010 1.368 . S
C991 H1015 0.949 . S
H992 C996 0.949 . S
C993 C994 1.349 . S
C993 C995 1.327 . S
C993 H1016 0.950 . S
C994 C993 1.349 . S
C994 C1006 1.349 . S
C995 C993 1.327 . S
C995 C1011 1.429 . S
C995 H1017 0.950 . S
C996 H992 0.949 . S
C996 C1004 1.574 . S
C996 C1012 1.368 . S
H997 C1005 0.950 . S
H998 C1003 0.950 . S
H999 C1004 0.949 . S
H1000 C1006 0.950 . S
H1001 C1007 0.950 . S
H1002 C1008 0.949 . S
C1003 H998 0.950 . S
C1003 C1005 1.327 . S
C1003 C1009 1.429 . S
C1004 C996 1.574 . S
C1004 H999 0.949 . S
C1004 C1010 1.368 . S
C1005 C989 1.349 . S
C1005 H997 0.950 . S
C1005 C1003 1.327 . S
C1006 C994 1.349 . S
C1006 H1000 0.950 . S
C1006 C1007 1.327 . S
C1007 H1001 0.950 . S
C1007 C1006 1.327 . S
C1007 C1011 1.429 . S
C1008 C991 1.574 . S
C1008 H1002 0.949 . S
C1008 C1012 1.368 . S
C1009 C990 1.429 . S
C1009 C1003 1.429 . S
C1009 C1010 1.523 . S
C1010 C991 1.368 . S
C1010 C1004 1.368 . S
C1010 C1009 1.523 . S
C1011 C995 1.429 . S
C1011 C1007 1.429 . S
C1011 C1012 1.523 . S
C1012 C996 1.368 . S
C1012 C1008 1.368 . S
C1012 C1011 1.523 . S
H1013 C988 0.950 . S
H1014 C990 0.950 . S
H1015 C991 0.949 . S
H1016 C993 0.950 . S
H1017 C995 0.950 . S
C1018 C1019 1.349 . S
C1018 C1020 1.327 . S
C1018 H1043 0.950 . S
C1019 C1018 1.349 . S
C1019 C1035 1.349 . S
C1020 C1018 1.327 . S
C1020 C1039 1.429 . S
C1020 H1044 0.950 . S
C1021 C1038 1.574 . S
C1021 C1040 1.368 . S
C1021 H1045 0.949 . S
H1022 C1026 0.949 . S
C1023 C1024 1.349 . S
C1023 C1025 1.327 1_455 S
C1023 H1046 0.950 . S
C1024 C1023 1.349 . S
C1024 C1036 1.349 1_455 S
C1025 C1023 1.327 1_655 S
C1025 C1041 1.429 . S
C1025 H1047 0.950 . S
C1026 H1022 0.949 . S
C1026 C1034 1.574 . S
C1026 C1042 1.368 . S
H1027 C1035 0.950 . S
H1028 C1033 0.950 . S
H1029 C1034 0.949 . S
H1030 C1036 0.950 1_455 S
H1031 C1037 0.950 . S
H1032 C1038 0.949 . S
C1033 H1028 0.950 . S
C1033 C1035 1.327 . S
C1033 C1039 1.429 . S
C1034 C1026 1.574 . S
C1034 H1029 0.949 . S
C1034 C1040 1.368 . S
C1035 C1019 1.349 . S
C1035 H1027 0.950 . S
C1035 C1033 1.327 . S
C1036 C1024 1.349 1_655 S
C1036 H1030 0.950 1_655 S
C1036 C1037 1.327 . S
C1037 H1031 0.950 . S
C1037 C1036 1.327 . S
C1037 C1041 1.429 . S
C1038 C1021 1.574 . S
C1038 H1032 0.949 . S
C1038 C1042 1.368 . S
C1039 C1020 1.429 . S
C1039 C1033 1.429 . S
C1039 C1040 1.523 . S
C1040 C1021 1.368 . S
C1040 C1034 1.368 . S
C1040 C1039 1.523 . S
C1041 C1025 1.429 . S
C1041 C1037 1.429 . S
C1041 C1042 1.523 . S
C1042 C1026 1.368 . S
C1042 C1038 1.368 . S
C1042 C1041 1.523 . S
H1043 C1018 0.950 . S
H1044 C1020 0.950 . S
H1045 C1021 0.949 . S
H1046 C1023 0.950 . S
H1047 C1025 0.950 . S
C1048 C1049 1.349 . S
C1048 C1050 1.327 . S
C1048 H1073 0.950 . S
C1049 C1048 1.349 . S
C1049 C1065 1.349 . S
C1050 C1048 1.327 . S
C1050 C1069 1.429 . S
C1050 H1074 0.950 . S
C1051 C1068 1.574 . S
C1051 C1070 1.368 . S
C1051 H1075 0.949 . S
H1052 C1056 0.949 . S
C1053 C1054 1.349 . S
C1053 C1055 1.327 . S
C1053 H1076 0.950 . S
C1054 C1053 1.349 . S
C1054 C1066 1.349 . S
C1055 C1053 1.327 . S
C1055 C1071 1.429 . S
C1055 H1077 0.950 . S
C1056 H1052 0.949 . S
C1056 C1064 1.574 . S
C1056 C1072 1.368 . S
H1057 C1065 0.950 . S
H1058 C1063 0.950 . S
H1059 C1064 0.949 . S
H1060 C1066 0.950 . S
H1061 C1067 0.950 . S
H1062 C1068 0.949 . S
C1063 H1058 0.950 . S
C1063 C1065 1.327 . S
C1063 C1069 1.429 . S
C1064 C1056 1.574 . S
C1064 H1059 0.949 . S
C1064 C1070 1.368 . S
C1065 C1049 1.349 . S
C1065 H1057 0.950 . S
C1065 C1063 1.327 . S
C1066 C1054 1.349 . S
C1066 H1060 0.950 . S
C1066 C1067 1.327 . S
C1067 H1061 0.950 . S
C1067 C1066 1.327 . S
C1067 C1071 1.429 . S
C1068 C1051 1.574 . S
C1068 H1062 0.949 . S
C1068 C1072 1.368 . S
C1069 C1050 1.429 . S
C1069 C1063 1.429 . S
C1069 C1070 1.523 . S
C1070 C1051 1.368 . S
C1070 C1064 1.368 . S
C1070 C1069 1.523 . S
C1071 C1055 1.429 . S
C1071 C1067 1.429 . S
C1071 C1072 1.523 . S
C1072 C1056 1.368 . S
C1072 C1068 1.368 . S
C1072 C1071 1.523 . S
H1073 C1048 0.950 . S
H1074 C1050 0.950 . S
H1075 C1051 0.949 . S
H1076 C1053 0.950 . S
H1077 C1055 0.950 . S
C1078 C1079 1.349 . S
C1078 C1080 1.327 1_655 S
C1078 H1103 0.950 . S
C1079 C1078 1.349 . S
C1079 C1095 1.349 1_655 S
C1080 C1078 1.327 1_455 S
C1080 C1099 1.429 . S
C1080 H1104 0.950 . S
C1081 C1098 1.574 . S
C1081 C1100 1.368 . S
C1081 H1105 0.949 . S
H1082 C1086 0.949 . S
C1083 C1084 1.349 . S
C1083 C1085 1.327 . S
C1083 H1106 0.950 . S
C1084 C1083 1.349 . S
C1084 C1096 1.349 . S
C1085 C1083 1.327 . S
C1085 C1101 1.429 . S
C1085 H1107 0.950 . S
C1086 H1082 0.949 . S
C1086 C1094 1.574 . S
C1086 C1102 1.368 . S
H1087 C1095 0.950 1_655 S
H1088 C1093 0.950 . S
H1089 C1094 0.949 . S
H1090 C1096 0.950 . S
H1091 C1097 0.950 . S
H1092 C1098 0.949 . S
C1093 H1088 0.950 . S
C1093 C1095 1.327 . S
C1093 C1099 1.429 . S
C1094 C1086 1.574 . S
C1094 H1089 0.949 . S
C1094 C1100 1.368 . S
C1095 C1079 1.349 1_455 S
C1095 H1087 0.950 1_455 S
C1095 C1093 1.327 . S
C1096 C1084 1.349 . S
C1096 H1090 0.950 . S
C1096 C1097 1.327 . S
C1097 H1091 0.950 . S
C1097 C1096 1.327 . S
C1097 C1101 1.429 . S
C1098 C1081 1.574 . S
C1098 H1092 0.949 . S
C1098 C1102 1.368 . S
C1099 C1080 1.429 . S
C1099 C1093 1.429 . S
C1099 C1100 1.523 . S
C1100 C1081 1.368 . S
C1100 C1094 1.368 . S
C1100 C1099 1.523 . S
C1101 C1085 1.429 . S
C1101 C1097 1.429 . S
C1101 C1102 1.523 . S
C1102 C1086 1.368 . S
C1102 C1098 1.368 . S
C1102 C1101 1.523 . S
H1103 C1078 0.950 . S
H1104 C1080 0.950 . S
H1105 C1081 0.949 . S
H1106 C1083 0.950 . S
H1107 C1085 0.950 . S
C1108 C1109 1.349 . S
C1108 C1110 1.327 . S
C1108 H1133 0.950 . S
C1109 C1108 1.349 . S
C1109 C1125 1.349 . S
C1110 C1108 1.327 . S
C1110 C1129 1.429 . S
C1110 H1134 0.950 . S
C1111 C1128 1.574 . S
C1111 C1130 1.368 . S
C1111 H1135 0.949 . S
H1112 C1116 0.949 . S
C1113 C1114 1.349 . S
C1113 C1115 1.327 . S
C1113 H1136 0.950 . S
C1114 C1113 1.349 . S
C1114 C1126 1.349 . S
C1115 C1113 1.327 . S
C1115 C1131 1.429 . S
C1115 H1137 0.950 . S
C1116 H1112 0.949 . S
C1116 C1124 1.574 . S
C1116 C1132 1.368 . S
H1117 C1125 0.950 . S
H1118 C1123 0.950 . S
H1119 C1124 0.949 . S
H1120 C1126 0.950 . S
H1121 C1127 0.950 . S
H1122 C1128 0.949 . S
C1123 H1118 0.950 . S
C1123 C1125 1.327 . S
C1123 C1129 1.429 . S
C1124 C1116 1.574 . S
C1124 H1119 0.949 . S
C1124 C1130 1.368 . S
C1125 C1109 1.349 . S
C1125 H1117 0.950 . S
C1125 C1123 1.327 . S
C1126 C1114 1.349 . S
C1126 H1120 0.950 . S
C1126 C1127 1.327 . S
C1127 H1121 0.950 . S
C1127 C1126 1.327 . S
C1127 C1131 1.429 . S
C1128 C1111 1.574 . S
C1128 H1122 0.949 . S
C1128 C1132 1.368 . S
C1129 C1110 1.429 . S
C1129 C1123 1.429 . S
C1129 C1130 1.523 . S
C1130 C1111 1.368 . S
C1130 C1124 1.368 . S
C1130 C1129 1.523 . S
C1131 C1115 1.429 . S
C1131 C1127 1.429 . S
C1131 C1132 1.523 . S
C1132 C1116 1.368 . S
C1132 C1128 1.368 . S
C1132 C1131 1.523 . S
H1133 C1108 0.950 . S
H1134 C1110 0.950 . S
H1135 C1111 0.949 . S
H1136 C1113 0.950 . S
H1137 C1115 0.950 . S
C1138 C1139 1.349 1_455 S
C1138 C1140 1.327 . S
C1138 H1163 0.950 1_455 S
C1139 C1138 1.349 1_655 S
C1139 C1155 1.349 . S
C1140 C1138 1.327 . S
C1140 C1159 1.429 . S
C1140 H1164 0.950 . S
C1141 C1158 1.574 . S
C1141 C1160 1.368 . S
C1141 H1165 0.949 . S
H1142 C1146 0.949 . S
C1143 C1144 1.349 . S
C1143 C1145 1.327 . S
C1143 H1166 0.950 . S
C1144 C1143 1.349 . S
C1144 C1156 1.349 . S
C1145 C1143 1.327 . S
C1145 C1161 1.429 . S
C1145 H1167 0.950 . S
C1146 H1142 0.949 . S
C1146 C1154 1.574 . S
C1146 C1162 1.368 . S
H1147 C1155 0.950 . S
H1148 C1153 0.950 . S
H1149 C1154 0.949 . S
H1150 C1156 0.950 . S
H1151 C1157 0.950 . S
H1152 C1158 0.949 . S
C1153 H1148 0.950 . S
C1153 C1155 1.327 1_455 S
C1153 C1159 1.429 . S
C1154 C1146 1.574 . S
C1154 H1149 0.949 . S
C1154 C1160 1.368 . S
C1155 C1139 1.349 . S
C1155 H1147 0.950 . S
C1155 C1153 1.327 1_655 S
C1156 C1144 1.349 . S
C1156 H1150 0.950 . S
C1156 C1157 1.327 . S
C1157 H1151 0.950 . S
C1157 C1156 1.327 . S
C1157 C1161 1.429 . S
C1158 C1141 1.574 . S
C1158 H1152 0.949 . S
C1158 C1162 1.368 . S
C1159 C1140 1.429 . S
C1159 C1153 1.429 . S
C1159 C1160 1.523 . S
C1160 C1141 1.368 . S
C1160 C1154 1.368 . S
C1160 C1159 1.523 . S
C1161 C1145 1.429 . S
C1161 C1157 1.429 . S
C1161 C1162 1.523 . S
C1162 C1146 1.368 . S
C1162 C1158 1.368 . S
C1162 C1161 1.523 . S
H1163 C1138 0.950 1_655 S
H1164 C1140 0.950 . S
H1165 C1141 0.949 . S
H1166 C1143 0.950 . S
H1167 C1145 0.950 . S
C1168 C1169 1.349 . S
C1168 C1170 1.327 . S
C1168 H1193 0.950 . S
C1169 C1168 1.349 . S
C1169 C1185 1.349 . S
C1170 C1168 1.327 . S
C1170 C1189 1.429 . S
C1170 H1194 0.950 . S
C1171 C1188 1.574 . S
C1171 C1190 1.368 . S
C1171 H1195 0.949 . S
H1172 C1176 0.949 . S
C1173 C1174 1.349 . S
C1173 C1175 1.327 . S
C1173 H1196 0.950 . S
C1174 C1173 1.349 . S
C1174 C1186 1.349 . S
C1175 C1173 1.327 . S
C1175 C1191 1.429 . S
C1175 H1197 0.950 . S
C1176 H1172 0.949 . S
C1176 C1184 1.574 . S
C1176 C1192 1.368 . S
H1177 C1185 0.950 . S
H1178 C1183 0.950 . S
H1179 C1184 0.949 . S
H1180 C1186 0.950 . S
H1181 C1187 0.950 . S
H1182 C1188 0.949 . S
C1183 H1178 0.950 . S
C1183 C1185 1.327 . S
C1183 C1189 1.429 . S
C1184 C1176 1.574 . S
C1184 H1179 0.949 . S
C1184 C1190 1.368 . S
C1185 C1169 1.349 . S
C1185 H1177 0.950 . S
C1185 C1183 1.327 . S
C1186 C1174 1.349 . S
C1186 H1180 0.950 . S
C1186 C1187 1.327 . S
C1187 H1181 0.950 . S
C1187 C1186 1.327 . S
C1187 C1191 1.429 . S
C1188 C1171 1.574 . S
C1188 H1182 0.949 . S
C1188 C1192 1.368 . S
C1189 C1170 1.429 . S
C1189 C1183 1.429 . S
C1189 C1190 1.523 . S
C1190 C1171 1.368 . S
C1190 C1184 1.368 . S
C1190 C1189 1.523 . S
C1191 C1175 1.429 . S
C1191 C1187 1.429 . S
C1191 C1192 1.523 . S
C1192 C1176 1.368 . S
C1192 C1188 1.368 . S
C1192 C1191 1.523 . S
H1193 C1168 0.950 . S
H1194 C1170 0.950 . S
H1195 C1171 0.949 . S
H1196 C1173 0.950 . S
H1197 C1175 0.950 . S
C1198 C1199 1.349 . S
C1198 C1200 1.327 . S
C1198 H1223 0.950 . S
C1199 C1198 1.349 . S
C1199 C1215 1.349 . S
C1200 C1198 1.327 . S
C1200 C1219 1.429 . S
C1200 H1224 0.950 . S
C1201 C1218 1.574 . S
C1201 C1220 1.368 . S
C1201 H1225 0.949 . S
H1202 C1206 0.949 . S
C1203 C1204 1.349 1_655 S
C1203 C1205 1.327 . S
C1203 H1226 0.950 1_655 S
C1204 C1203 1.349 1_455 S
C1204 C1216 1.349 . S
C1205 C1203 1.327 . S
C1205 C1221 1.429 . S
C1205 H1227 0.950 . S
C1206 H1202 0.949 . S
C1206 C1214 1.574 . S
C1206 C1222 1.368 . S
H1207 C1215 0.950 . S
H1208 C1213 0.950 . S
H1209 C1214 0.949 . S
H1210 C1216 0.950 . S
H1211 C1217 0.950 . S
H1212 C1218 0.949 . S
C1213 H1208 0.950 . S
C1213 C1215 1.327 . S
C1213 C1219 1.429 . S
C1214 C1206 1.574 . S
C1214 H1209 0.949 . S
C1214 C1220 1.368 . S
C1215 C1199 1.349 . S
C1215 H1207 0.950 . S
C1215 C1213 1.327 . S
C1216 C1204 1.349 . S
C1216 H1210 0.950 . S
C1216 C1217 1.327 1_455 S
C1217 H1211 0.950 . S
C1217 C1216 1.327 1_655 S
C1217 C1221 1.429 . S
C1218 C1201 1.574 . S
C1218 H1212 0.949 . S
C1218 C1222 1.368 . S
C1219 C1200 1.429 . S
C1219 C1213 1.429 . S
C1219 C1220 1.523 . S
C1220 C1201 1.368 . S
C1220 C1214 1.368 . S
C1220 C1219 1.523 . S
C1221 C1205 1.429 . S
C1221 C1217 1.429 . S
C1221 C1222 1.523 . S
C1222 C1206 1.368 . S
C1222 C1218 1.368 . S
C1222 C1221 1.523 . S
H1223 C1198 0.950 . S
H1224 C1200 0.950 . S
H1225 C1201 0.949 . S
H1226 C1203 0.950 1_455 S
H1227 C1205 0.950 . S
C1228 C1229 1.349 . S
C1228 C1230 1.327 . S
C1228 H1253 0.950 . S
C1229 C1228 1.349 . S
C1229 C1245 1.349 . S
C1230 C1228 1.327 . S
C1230 C1249 1.429 . S
C1230 H1254 0.950 . S
C1231 C1248 1.574 . S
C1231 C1250 1.368 . S
C1231 H1255 0.949 . S
H1232 C1236 0.949 . S
C1233 C1234 1.349 . S
C1233 C1235 1.327 . S
C1233 H1256 0.950 . S
C1234 C1233 1.349 . S
C1234 C1246 1.349 . S
C1235 C1233 1.327 . S
C1235 C1251 1.429 . S
C1235 H1257 0.950 . S
C1236 H1232 0.949 . S
C1236 C1244 1.574 . S
C1236 C1252 1.368 . S
H1237 C1245 0.950 . S
H1238 C1243 0.950 . S
H1239 C1244 0.949 . S
H1240 C1246 0.950 . S
H1241 C1247 0.950 . S
H1242 C1248 0.949 . S
C1243 H1238 0.950 . S
C1243 C1245 1.327 . S
C1243 C1249 1.429 . S
C1244 C1236 1.574 . S
C1244 H1239 0.949 . S
C1244 C1250 1.368 . S
C1245 C1229 1.349 . S
C1245 H1237 0.950 . S
C1245 C1243 1.327 . S
C1246 C1234 1.349 . S
C1246 H1240 0.950 . S
C1246 C1247 1.327 . S
C1247 H1241 0.950 . S
C1247 C1246 1.327 . S
C1247 C1251 1.429 . S
C1248 C1231 1.574 . S
C1248 H1242 0.949 . S
C1248 C1252 1.368 . S
C1249 C1230 1.429 . S
C1249 C1243 1.429 . S
C1249 C1250 1.523 . S
C1250 C1231 1.368 . S
C1250 C1244 1.368 . S
C1250 C1249 1.523 . S
C1251 C1235 1.429 . S
C1251 C1247 1.429 . S
C1251 C1252 1.523 . S
C1252 C1236 1.368 . S
C1252 C1248 1.368 . S
C1252 C1251 1.523 . S
H1253 C1228 0.950 . S
H1254 C1230 0.950 . S
H1255 C1231 0.949 . S
H1256 C1233 0.950 . S
H1257 C1235 0.950 . S
C1258 C1259 1.349 . S
C1258 C1260 1.327 . S
C1258 H1283 0.950 . S
C1259 C1258 1.349 . S
C1259 C1275 1.349 . S
C1260 C1258 1.327 . S
C1260 C1279 1.429 . S
C1260 H1284 0.950 . S
C1261 C1278 1.574 . S
C1261 C1280 1.368 . S
C1261 H1285 0.949 . S
H1262 C1266 0.949 . S
C1263 C1264 1.349 1_655 S
C1263 C1265 1.327 . S
C1263 H1286 0.950 1_655 S
C1264 C1263 1.349 1_455 S
C1264 C1276 1.349 . S
C1265 C1263 1.327 . S
C1265 C1281 1.429 . S
C1265 H1287 0.950 . S
C1266 H1262 0.949 . S
C1266 C1274 1.574 . S
C1266 C1282 1.368 . S
H1267 C1275 0.950 . S
H1268 C1273 0.950 . S
H1269 C1274 0.949 . S
H1270 C1276 0.950 . S
H1271 C1277 0.950 . S
H1272 C1278 0.949 . S
C1273 H1268 0.950 . S
C1273 C1275 1.327 . S
C1273 C1279 1.429 . S
C1274 C1266 1.574 . S
C1274 H1269 0.949 . S
C1274 C1280 1.368 . S
C1275 C1259 1.349 . S
C1275 H1267 0.950 . S
C1275 C1273 1.327 . S
C1276 C1264 1.349 . S
C1276 H1270 0.950 . S
C1276 C1277 1.327 1_455 S
C1277 H1271 0.950 . S
C1277 C1276 1.327 1_655 S
C1277 C1281 1.429 . S
C1278 C1261 1.574 . S
C1278 H1272 0.949 . S
C1278 C1282 1.368 . S
C1279 C1260 1.429 . S
C1279 C1273 1.429 . S
C1279 C1280 1.523 . S
C1280 C1261 1.368 . S
C1280 C1274 1.368 . S
C1280 C1279 1.523 . S
C1281 C1265 1.429 . S
C1281 C1277 1.429 . S
C1281 C1282 1.523 . S
C1282 C1266 1.368 . S
C1282 C1278 1.368 . S
C1282 C1281 1.523 . S
H1283 C1258 0.950 . S
H1284 C1260 0.950 . S
H1285 C1261 0.949 . S
H1286 C1263 0.950 1_455 S
H1287 C1265 0.950 . S
C1288 C1289 1.349 . S
C1288 C1290 1.327 . S
C1288 H1313 0.950 . S
C1289 C1288 1.349 . S
C1289 C1305 1.349 . S
C1290 C1288 1.327 . S
C1290 C1309 1.429 . S
C1290 H1314 0.950 . S
C1291 C1308 1.574 . S
C1291 C1310 1.368 . S
C1291 H1315 0.949 . S
H1292 C1296 0.949 . S
C1293 C1294 1.349 . S
C1293 C1295 1.327 . S
C1293 H1316 0.950 . S
C1294 C1293 1.349 . S
C1294 C1306 1.349 . S
C1295 C1293 1.327 . S
C1295 C1311 1.429 . S
C1295 H1317 0.950 . S
C1296 H1292 0.949 . S
C1296 C1304 1.574 . S
C1296 C1312 1.368 . S
H1297 C1305 0.950 . S
H1298 C1303 0.950 . S
H1299 C1304 0.949 . S
H1300 C1306 0.950 . S
H1301 C1307 0.950 . S
H1302 C1308 0.949 . S
C1303 H1298 0.950 . S
C1303 C1305 1.327 . S
C1303 C1309 1.429 . S
C1304 C1296 1.574 . S
C1304 H1299 0.949 . S
C1304 C1310 1.368 . S
C1305 C1289 1.349 . S
C1305 H1297 0.950 . S
C1305 C1303 1.327 . S
C1306 C1294 1.349 . S
C1306 H1300 0.950 . S
C1306 C1307 1.327 . S
C1307 H1301 0.950 . S
C1307 C1306 1.327 . S
C1307 C1311 1.429 . S
C1308 C1291 1.574 . S
C1308 H1302 0.949 . S
C1308 C1312 1.368 . S
C1309 C1290 1.429 . S
C1309 C1303 1.429 . S
C1309 C1310 1.523 . S
C1310 C1291 1.368 . S
C1310 C1304 1.368 . S
C1310 C1309 1.523 . S
C1311 C1295 1.429 . S
C1311 C1307 1.429 . S
C1311 C1312 1.523 . S
C1312 C1296 1.368 . S
C1312 C1308 1.368 . S
C1312 C1311 1.523 . S
H1313 C1288 0.950 . S
H1314 C1290 0.950 . S
H1315 C1291 0.949 . S
H1316 C1293 0.950 . S
H1317 C1295 0.950 . S
C1318 C1319 1.349 . S
C1318 C1320 1.327 . S
C1318 H1343 0.950 . S
C1319 C1318 1.349 . S
C1319 C1335 1.349 . S
C1320 C1318 1.327 . S
C1320 C1339 1.429 . S
C1320 H1344 0.950 . S
C1321 C1338 1.574 . S
C1321 C1340 1.368 . S
C1321 H1345 0.949 . S
H1322 C1326 0.949 . S
C1323 C1324 1.349 1_455 S
C1323 C1325 1.327 . S
C1323 H1346 0.950 1_455 S
C1324 C1323 1.349 1_655 S
C1324 C1336 1.349 . S
C1325 C1323 1.327 . S
C1325 C1341 1.429 . S
C1325 H1347 0.950 . S
C1326 H1322 0.949 . S
C1326 C1334 1.574 . S
C1326 C1342 1.368 . S
H1327 C1335 0.950 . S
H1328 C1333 0.950 . S
H1329 C1334 0.949 . S
H1330 C1336 0.950 . S
H1331 C1337 0.950 . S
H1332 C1338 0.949 . S
C1333 H1328 0.950 . S
C1333 C1335 1.327 . S
C1333 C1339 1.429 . S
C1334 C1326 1.574 . S
C1334 H1329 0.949 . S
C1334 C1340 1.368 . S
C1335 C1319 1.349 . S
C1335 H1327 0.950 . S
C1335 C1333 1.327 . S
C1336 C1324 1.349 . S
C1336 H1330 0.950 . S
C1336 C1337 1.327 1_655 S
C1337 H1331 0.950 . S
C1337 C1336 1.327 1_455 S
C1337 C1341 1.429 . S
C1338 C1321 1.574 . S
C1338 H1332 0.949 . S
C1338 C1342 1.368 . S
C1339 C1320 1.429 . S
C1339 C1333 1.429 . S
C1339 C1340 1.523 . S
C1340 C1321 1.368 . S
C1340 C1334 1.368 . S
C1340 C1339 1.523 . S
C1341 C1325 1.429 . S
C1341 C1337 1.429 . S
C1341 C1342 1.523 . S
C1342 C1326 1.368 . S
C1342 C1338 1.368 . S
C1342 C1341 1.523 . S
H1343 C1318 0.950 . S
H1344 C1320 0.950 . S
H1345 C1321 0.949 . S
H1346 C1323 0.950 1_655 S
H1347 C1325 0.950 . S
C1348 C1349 1.349 . S
C1348 C1350 1.327 . S
C1348 H1373 0.950 . S
C1349 C1348 1.349 . S
C1349 C1365 1.349 . S
C1350 C1348 1.327 . S
C1350 C1369 1.429 . S
C1350 H1374 0.950 . S
C1351 C1368 1.574 . S
C1351 C1370 1.368 . S
C1351 H1375 0.949 . S
H1352 C1356 0.949 . S
C1353 C1354 1.349 . S
C1353 C1355 1.327 . S
C1353 H1376 0.950 . S
C1354 C1353 1.349 . S
C1354 C1366 1.349 . S
C1355 C1353 1.327 . S
C1355 C1371 1.429 . S
C1355 H1377 0.950 . S
C1356 H1352 0.949 . S
C1356 C1364 1.574 . S
C1356 C1372 1.368 . S
H1357 C1365 0.950 . S
H1358 C1363 0.950 . S
H1359 C1364 0.949 . S
H1360 C1366 0.950 . S
H1361 C1367 0.950 . S
H1362 C1368 0.949 . S
C1363 H1358 0.950 . S
C1363 C1365 1.327 . S
C1363 C1369 1.429 . S
C1364 C1356 1.574 . S
C1364 H1359 0.949 . S
C1364 C1370 1.368 . S
C1365 C1349 1.349 . S
C1365 H1357 0.950 . S
C1365 C1363 1.327 . S
C1366 C1354 1.349 . S
C1366 H1360 0.950 . S
C1366 C1367 1.327 . S
C1367 H1361 0.950 . S
C1367 C1366 1.327 . S
C1367 C1371 1.429 . S
C1368 C1351 1.574 . S
C1368 H1362 0.949 . S
C1368 C1372 1.368 . S
C1369 C1350 1.429 . S
C1369 C1363 1.429 . S
C1369 C1370 1.523 . S
C1370 C1351 1.368 . S
C1370 C1364 1.368 . S
C1370 C1369 1.523 . S
C1371 C1355 1.429 . S
C1371 C1367 1.429 . S
C1371 C1372 1.523 . S
C1372 C1356 1.368 . S
C1372 C1368 1.368 . S
C1372 C1371 1.523 . S
H1373 C1348 0.950 . S
H1374 C1350 0.950 . S
H1375 C1351 0.949 . S
H1376 C1353 0.950 . S
H1377 C1355 0.950 . S
C1378 C1379 1.349 . S
C1378 C1380 1.327 1_655 S
C1378 H1403 0.950 . S
C1379 C1378 1.349 . S
C1379 C1395 1.349 1_655 S
C1380 C1378 1.327 1_455 S
C1380 C1399 1.429 . S
C1380 H1404 0.950 . S
C1381 C1398 1.574 . S
C1381 C1400 1.368 . S
C1381 H1405 0.949 . S
H1382 C1386 0.949 . S
C1383 C1384 1.349 . S
C1383 C1385 1.327 . S
C1383 H1406 0.950 . S
C1384 C1383 1.349 . S
C1384 C1396 1.349 . S
C1385 C1383 1.327 . S
C1385 C1401 1.429 . S
C1385 H1407 0.950 . S
C1386 H1382 0.949 . S
C1386 C1394 1.574 . S
C1386 C1402 1.368 . S
H1387 C1395 0.950 1_655 S
H1388 C1393 0.950 . S
H1389 C1394 0.949 . S
H1390 C1396 0.950 . S
H1391 C1397 0.950 . S
H1392 C1398 0.949 . S
C1393 H1388 0.950 . S
C1393 C1395 1.327 . S
C1393 C1399 1.429 . S
C1394 C1386 1.574 . S
C1394 H1389 0.949 . S
C1394 C1400 1.368 . S
C1395 C1379 1.349 1_455 S
C1395 H1387 0.950 1_455 S
C1395 C1393 1.327 . S
C1396 C1384 1.349 . S
C1396 H1390 0.950 . S
C1396 C1397 1.327 . S
C1397 H1391 0.950 . S
C1397 C1396 1.327 . S
C1397 C1401 1.429 . S
C1398 C1381 1.574 . S
C1398 H1392 0.949 . S
C1398 C1402 1.368 . S
C1399 C1380 1.429 . S
C1399 C1393 1.429 . S
C1399 C1400 1.523 . S
C1400 C1381 1.368 . S
C1400 C1394 1.368 . S
C1400 C1399 1.523 . S
C1401 C1385 1.429 . S
C1401 C1397 1.429 . S
C1401 C1402 1.523 . S
C1402 C1386 1.368 . S
C1402 C1398 1.368 . S
C1402 C1401 1.523 . S
H1403 C1378 0.950 . S
H1404 C1380 0.950 . S
H1405 C1381 0.949 . S
H1406 C1383 0.950 . S
H1407 C1385 0.950 . S
C1408 C1409 1.349 . S
C1408 C1410 1.327 . S
C1408 H1433 0.950 . S
C1409 C1408 1.349 . S
C1409 C1425 1.349 . S
C1410 C1408 1.327 . S
C1410 C1429 1.429 . S
C1410 H1434 0.950 . S
C1411 C1428 1.574 1_655 S
C1411 C1430 1.368 . S
C1411 H1435 0.949 . S
H1412 C1416 0.949 . S
C1413 C1414 1.349 . S
C1413 C1415 1.327 . S
C1413 H1436 0.950 . S
C1414 C1413 1.349 . S
C1414 C1426 1.349 . S
C1415 C1413 1.327 . S
C1415 C1431 1.429 . S
C1415 H1437 0.950 . S
C1416 H1412 0.949 . S
C1416 C1424 1.574 1_455 S
C1416 C1432 1.368 . S
H1417 C1425 0.950 . S
H1418 C1423 0.950 . S
H1419 C1424 0.949 . S
H1420 C1426 0.950 . S
H1421 C1427 0.950 . S
H1422 C1428 0.949 . S
C1423 H1418 0.950 . S
C1423 C1425 1.327 . S
C1423 C1429 1.429 . S
C1424 C1416 1.574 1_655 S
C1424 H1419 0.949 . S
C1424 C1430 1.368 . S
C1425 C1409 1.349 . S
C1425 H1417 0.950 . S
C1425 C1423 1.327 . S
C1426 C1414 1.349 . S
C1426 H1420 0.950 . S
C1426 C1427 1.327 . S
C1427 H1421 0.950 . S
C1427 C1426 1.327 . S
C1427 C1431 1.429 . S
C1428 C1411 1.574 1_455 S
C1428 H1422 0.949 . S
C1428 C1432 1.368 . S
C1429 C1410 1.429 . S
C1429 C1423 1.429 . S
C1429 C1430 1.523 . S
C1430 C1411 1.368 . S
C1430 C1424 1.368 . S
C1430 C1429 1.523 . S
C1431 C1415 1.429 . S
C1431 C1427 1.429 . S
C1431 C1432 1.523 . S
C1432 C1416 1.368 . S
C1432 C1428 1.368 . S
C1432 C1431 1.523 . S
H1433 C1408 0.950 . S
H1434 C1410 0.950 . S
H1435 C1411 0.949 . S
H1436 C1413 0.950 . S
H1437 C1415 0.950 . S
C1438 C1439 1.349 . S
C1438 C1440 1.327 . S
C1438 H1463 0.950 . S
C1439 C1438 1.349 . S
C1439 C1455 1.349 . S
C1440 C1438 1.327 . S
C1440 C1459 1.429 . S
C1440 H1464 0.950 . S
C1441 C1458 1.574 1_565 S
C1441 C1460 1.368 . S
C1441 H1465 0.949 . S
H1442 C1446 0.949 . S
C1443 C1444 1.349 . S
C1443 C1445 1.327 . S
C1443 H1466 0.950 . S
C1444 C1443 1.349 . S
C1444 C1456 1.349 . S
C1445 C1443 1.327 . S
C1445 C1461 1.429 . S
C1445 H1467 0.950 . S
C1446 H1442 0.949 . S
C1446 C1454 1.574 1_545 S
C1446 C1462 1.368 . S
H1447 C1455 0.950 . S
H1448 C1453 0.950 . S
H1449 C1454 0.949 . S
H1450 C1456 0.950 . S
H1451 C1457 0.950 . S
H1452 C1458 0.949 . S
C1453 H1448 0.950 . S
C1453 C1455 1.327 . S
C1453 C1459 1.429 . S
C1454 C1446 1.574 1_565 S
C1454 H1449 0.949 . S
C1454 C1460 1.368 . S
C1455 C1439 1.349 . S
C1455 H1447 0.950 . S
C1455 C1453 1.327 . S
C1456 C1444 1.349 . S
C1456 H1450 0.950 . S
C1456 C1457 1.327 . S
C1457 H1451 0.950 . S
C1457 C1456 1.327 . S
C1457 C1461 1.429 . S
C1458 C1441 1.574 1_545 S
C1458 H1452 0.949 . S
C1458 C1462 1.368 . S
C1459 C1440 1.429 . S
C1459 C1453 1.429 . S
C1459 C1460 1.523 . S
C1460 C1441 1.368 . S
C1460 C1454 1.368 . S
C1460 C1459 1.523 . S
C1461 C1445 1.429 . S
C1461 C1457 1.429 . S
C1461 C1462 1.523 . S
C1462 C1446 1.368 . S
C1462 C1458 1.368 . S
C1462 C1461 1.523 . S
H1463 C1438 0.950 . S
H1464 C1440 0.950 . S
H1465 C1441 0.949 . S
H1466 C1443 0.950 . S
H1467 C1445 0.950 . S
C1468 C1469 1.349 . S
C1468 C1470 1.327 . S
C1468 H1493 0.950 . S
C1469 C1468 1.349 . S
C1469 C1485 1.349 . S
C1470 C1468 1.327 . S
C1470 C1489 1.429 . S
C1470 H1494 0.950 1_554 S
C1471 C1488 1.645 . S
C1471 C1490 1.295 1_565 S
C1471 H1495 0.957 . S
H1472 C1476 0.957 . S
C1473 C1474 1.349 . S
C1473 C1475 1.327 . S
C1473 H1496 0.950 . S
C1474 C1473 1.349 . S
C1474 C1486 1.349 . S
C1475 C1473 1.327 . S
C1475 C1491 1.429 . S
C1475 H1497 0.950 1_556 S
C1476 H1472 0.957 . S
C1476 C1484 1.645 . S
C1476 C1492 1.295 1_545 S
H1477 C1485 0.950 . S
H1478 C1483 0.950 . S
H1479 C1484 0.949 . S
H1480 C1486 0.950 . S
H1481 C1487 0.950 . S
H1482 C1488 0.949 . S
C1483 H1478 0.950 . S
C1483 C1485 1.327 . S
C1483 C1489 1.429 . S
C1484 C1476 1.645 . S
C1484 H1479 0.949 . S
C1484 C1490 1.368 1_456 S
C1485 C1469 1.349 . S
C1485 H1477 0.950 . S
C1485 C1483 1.327 . S
C1486 C1474 1.349 . S
C1486 H1480 0.950 . S
C1486 C1487 1.327 . S
C1487 H1481 0.950 . S
C1487 C1486 1.327 . S
C1487 C1491 1.429 . S
C1488 C1471 1.645 . S
C1488 H1482 0.949 . S
C1488 C1492 1.368 1_654 S
C1489 C1470 1.429 . S
C1489 C1483 1.429 . S
C1489 C1490 1.523 . S
C1490 C1471 1.295 1_545 S
C1490 C1484 1.368 1_654 S
C1490 C1489 1.523 . S
C1491 C1475 1.429 . S
C1491 C1487 1.429 . S
C1491 C1492 1.523 . S
C1492 C1476 1.295 1_565 S
C1492 C1488 1.368 1_456 S
C1492 C1491 1.523 . S
H1493 C1468 0.950 . S
H1494 C1470 0.950 1_556 S
H1495 C1471 0.957 . S
H1496 C1473 0.950 . S
H1497 C1475 0.950 1_554 S
C1498 C1499 1.349 . S
C1498 C1500 1.327 . S
C1498 H1523 0.950 . S
C1499 C1498 1.349 . S
C1499 C1515 1.349 . S
C1500 C1498 1.327 . S
C1500 C1519 1.429 . S
C1500 H1524 0.950 . S
C1501 C1518 1.574 . S
C1501 C1520 1.368 1_556 S
C1501 H1525 0.949 . S
H1502 C1506 0.949 . S
C1503 C1504 1.349 . S
C1503 C1505 1.327 . S
C1503 H1526 0.950 . S
C1504 C1503 1.349 . S
C1504 C1516 1.349 . S
C1505 C1503 1.327 . S
C1505 C1521 1.429 . S
C1505 H1527 0.950 . S
C1506 H1502 0.949 . S
C1506 C1514 1.574 . S
C1506 C1522 1.368 1_554 S
H1507 C1515 0.950 . S
H1508 C1513 0.950 1_556 S
H1509 C1514 0.949 . S
H1510 C1516 0.950 . S
H1511 C1517 0.950 1_554 S
H1512 C1518 0.949 . S
C1513 H1508 0.950 1_554 S
C1513 C1515 1.327 . S
C1513 C1519 1.429 . S
C1514 C1506 1.574 . S
C1514 H1509 0.949 . S
C1514 C1520 1.368 . S
C1515 C1499 1.349 . S
C1515 H1507 0.950 . S
C1515 C1513 1.327 . S
C1516 C1504 1.349 . S
C1516 H1510 0.950 . S
C1516 C1517 1.327 . S
C1517 H1511 0.950 1_556 S
C1517 C1516 1.327 . S
C1517 C1521 1.429 . S
C1518 C1501 1.574 . S
C1518 H1512 0.949 . S
C1518 C1522 1.368 . S
C1519 C1500 1.429 . S
C1519 C1513 1.429 . S
C1519 C1520 1.523 . S
C1520 C1501 1.368 1_554 S
C1520 C1514 1.368 . S
C1520 C1519 1.523 . S
C1521 C1505 1.429 . S
C1521 C1517 1.429 . S
C1521 C1522 1.523 . S
C1522 C1506 1.368 1_556 S
C1522 C1518 1.368 . S
C1522 C1521 1.523 . S
H1523 C1498 0.950 . S
H1524 C1500 0.950 . S
H1525 C1501 0.949 . S
H1526 C1503 0.950 . S
H1527 C1505 0.950 . S
C1528 C1529 1.349 . S
C1528 C1530 1.327 . S
C1528 H1553 0.950 . S
C1529 C1528 1.349 . S
C1529 C1545 1.349 . S
C1530 C1528 1.327 . S
C1530 C1549 1.429 . S
C1530 H1554 0.950 . S
C1531 C1548 1.574 . S
C1531 C1550 1.368 . S
C1531 H1555 0.949 . S
H1532 C1536 0.949 . S
C1533 C1534 1.349 . S
C1533 C1535 1.327 . S
C1533 H1556 0.950 . S
C1534 C1533 1.349 . S
C1534 C1546 1.349 . S
C1535 C1533 1.327 . S
C1535 C1551 1.429 . S
C1535 H1557 0.950 . S
C1536 H1532 0.949 . S
C1536 C1544 1.574 . S
C1536 C1552 1.368 . S
H1537 C1545 0.950 . S
H1538 C1543 0.950 . S
H1539 C1544 0.949 . S
H1540 C1546 0.950 . S
H1541 C1547 0.950 . S
H1542 C1548 0.949 . S
C1543 H1538 0.950 . S
C1543 C1545 1.327 . S
C1543 C1549 1.429 . S
C1544 C1536 1.574 . S
C1544 H1539 0.949 . S
C1544 C1550 1.368 1_455 S
C1545 C1529 1.349 . S
C1545 H1537 0.950 . S
C1545 C1543 1.327 . S
C1546 C1534 1.349 . S
C1546 H1540 0.950 . S
C1546 C1547 1.327 . S
C1547 H1541 0.950 . S
C1547 C1546 1.327 . S
C1547 C1551 1.429 . S
C1548 C1531 1.574 . S
C1548 H1542 0.949 . S
C1548 C1552 1.368 1_655 S
C1549 C1530 1.429 . S
C1549 C1543 1.429 . S
C1549 C1550 1.523 . S
C1550 C1531 1.368 . S
C1550 C1544 1.368 1_655 S
C1550 C1549 1.523 . S
C1551 C1535 1.429 . S
C1551 C1547 1.429 . S
C1551 C1552 1.523 . S
C1552 C1536 1.368 . S
C1552 C1548 1.368 1_455 S
C1552 C1551 1.523 . S
H1553 C1528 0.950 . S
H1554 C1530 0.950 . S
H1555 C1531 0.949 . S
H1556 C1533 0.950 . S
H1557 C1535 0.950 . S
C1558 C1559 1.349 . S
C1558 C1560 1.327 . S
C1558 H1583 0.950 . S
C1559 C1558 1.349 . S
C1559 C1575 1.349 . S
C1560 C1558 1.327 . S
C1560 C1579 1.429 . S
C1560 H1584 0.950 . S
C1561 C1578 1.492 1_565 S
C1561 C1580 1.441 . S
C1561 H1585 0.966 . S
H1562 C1566 0.966 . S
C1563 C1564 1.349 . S
C1563 C1565 1.327 . S
C1563 H1586 0.950 . S
C1564 C1563 1.349 . S
C1564 C1576 1.349 . S
C1565 C1563 1.327 . S
C1565 C1581 1.429 . S
C1565 H1587 0.950 . S
C1566 H1562 0.966 . S
C1566 C1574 1.492 1_545 S
C1566 C1582 1.441 . S
H1567 C1575 0.950 . S
H1568 C1573 0.950 . S
H1569 C1574 0.949 . S
H1570 C1576 0.950 . S
H1571 C1577 0.950 . S
H1572 C1578 0.949 . S
C1573 H1568 0.950 . S
C1573 C1575 1.327 . S
C1573 C1579 1.429 . S
C1574 C1566 1.492 1_565 S
C1574 H1569 0.949 . S
C1574 C1580 1.368 . S
C1575 C1559 1.349 . S
C1575 H1567 0.950 . S
C1575 C1573 1.327 . S
C1576 C1564 1.349 . S
C1576 H1570 0.950 . S
C1576 C1577 1.327 . S
C1577 H1571 0.950 . S
C1577 C1576 1.327 . S
C1577 C1581 1.429 . S
C1578 C1561 1.492 1_545 S
C1578 H1572 0.949 . S
C1578 C1582 1.368 . S
C1579 C1560 1.429 . S
C1579 C1573 1.429 . S
C1579 C1580 1.523 . S
C1580 C1561 1.441 . S
C1580 C1574 1.368 . S
C1580 C1579 1.523 . S
C1581 C1565 1.429 . S
C1581 C1577 1.429 . S
C1581 C1582 1.523 . S
C1582 C1566 1.441 . S
C1582 C1578 1.368 . S
C1582 C1581 1.523 . S
H1583 C1558 0.950 . S
H1584 C1560 0.950 . S
H1585 C1561 0.966 . S
H1586 C1563 0.950 . S
H1587 C1565 0.950 . S
C1588 C1589 1.349 . S
C1588 C1590 1.327 . S
C1588 H1613 0.950 . S
C1589 C1588 1.349 . S
C1589 C1605 1.349 . S
C1590 C1588 1.327 . S
C1590 C1609 1.429 . S
C1590 H1614 0.950 . S
C1591 C1608 1.574 . S
C1591 C1610 1.368 1_554 S
C1591 H1615 0.949 . S
H1592 C1596 0.949 . S
C1593 C1594 1.349 . S
C1593 C1595 1.327 . S
C1593 H1616 0.950 . S
C1594 C1593 1.349 . S
C1594 C1606 1.349 . S
C1595 C1593 1.327 . S
C1595 C1611 1.429 . S
C1595 H1617 0.950 . S
C1596 H1592 0.949 . S
C1596 C1604 1.574 . S
C1596 C1612 1.368 1_556 S
H1597 C1605 0.950 . S
H1598 C1603 0.950 . S
H1599 C1604 0.949 . S
H1600 C1606 0.950 . S
H1601 C1607 0.950 . S
H1602 C1608 0.949 . S
C1603 H1598 0.950 . S
C1603 C1605 1.327 . S
C1603 C1609 1.429 . S
C1604 C1596 1.574 . S
C1604 H1599 0.949 . S
C1604 C1610 1.368 . S
C1605 C1589 1.349 . S
C1605 H1597 0.950 . S
C1605 C1603 1.327 . S
C1606 C1594 1.349 . S
C1606 H1600 0.950 . S
C1606 C1607 1.327 . S
C1607 H1601 0.950 . S
C1607 C1606 1.327 . S
C1607 C1611 1.429 . S
C1608 C1591 1.574 . S
C1608 H1602 0.949 . S
C1608 C1612 1.368 . S
C1609 C1590 1.429 . S
C1609 C1603 1.429 . S
C1609 C1610 1.523 . S
C1610 C1591 1.368 1_556 S
C1610 C1604 1.368 . S
C1610 C1609 1.523 . S
C1611 C1595 1.429 . S
C1611 C1607 1.429 . S
C1611 C1612 1.523 . S
C1612 C1596 1.368 1_554 S
C1612 C1608 1.368 . S
C1612 C1611 1.523 . S
H1613 C1588 0.950 . S
H1614 C1590 0.950 . S
H1615 C1591 0.949 . S
H1616 C1593 0.950 . S
H1617 C1595 0.950 . S
C1618 C1619 1.349 . S
C1618 C1620 1.327 . S
C1618 H1643 0.950 . S
C1619 C1618 1.349 . S
C1619 C1635 1.349 . S
C1620 C1618 1.327 . S
C1620 C1639 1.429 . S
C1620 H1644 0.950 . S
C1621 C1638 1.574 . S
C1621 C1640 1.368 . S
C1621 H1645 0.949 . S
H1622 C1626 0.949 . S
C1623 C1624 1.349 . S
C1623 C1625 1.327 . S
C1623 H1646 0.950 . S
C1624 C1623 1.349 . S
C1624 C1636 1.349 . S
C1625 C1623 1.327 . S
C1625 C1641 1.429 . S
C1625 H1647 0.950 . S
C1626 H1622 0.949 . S
C1626 C1634 1.574 . S
C1626 C1642 1.368 . S
H1627 C1635 0.950 . S
H1628 C1633 0.950 . S
H1629 C1634 0.949 . S
H1630 C1636 0.950 . S
H1631 C1637 0.950 . S
H1632 C1638 0.949 . S
C1633 H1628 0.950 . S
C1633 C1635 1.327 . S
C1633 C1639 1.429 . S
C1634 C1626 1.574 . S
C1634 H1629 0.949 . S
C1634 C1640 1.368 . S
C1635 C1619 1.349 . S
C1635 H1627 0.950 . S
C1635 C1633 1.327 . S
C1636 C1624 1.349 . S
C1636 H1630 0.950 . S
C1636 C1637 1.327 . S
C1637 H1631 0.950 . S
C1637 C1636 1.327 . S
C1637 C1641 1.429 . S
C1638 C1621 1.574 . S
C1638 H1632 0.949 . S
C1638 C1642 1.368 . S
C1639 C1620 1.429 . S
C1639 C1633 1.429 . S
C1639 C1640 1.523 . S
C1640 C1621 1.368 . S
C1640 C1634 1.368 . S
C1640 C1639 1.523 . S
C1641 C1625 1.429 . S
C1641 C1637 1.429 . S
C1641 C1642 1.523 . S
C1642 C1626 1.368 . S
C1642 C1638 1.368 . S
C1642 C1641 1.523 . S
H1643 C1618 0.950 . S
H1644 C1620 0.950 . S
H1645 C1621 0.949 . S
H1646 C1623 0.950 . S
H1647 C1625 0.950 . S
C1648 C1649 1.349 . S
C1648 C1650 1.327 . S
C1648 H1673 0.950 . S
C1649 C1648 1.349 . S
C1649 C1665 1.349 . S
C1650 C1648 1.327 . S
C1650 C1669 1.429 . S
C1650 H1674 0.950 . S
C1651 C1668 1.574 . S
C1651 C1670 1.368 . S
C1651 H1675 0.949 . S
H1652 C1656 0.949 . S
C1653 C1654 1.349 . S
C1653 C1655 1.327 . S
C1653 H1676 0.950 . S
C1654 C1653 1.349 . S
C1654 C1666 1.349 . S
C1655 C1653 1.327 . S
C1655 C1671 1.429 . S
C1655 H1677 0.950 . S
C1656 H1652 0.949 . S
C1656 C1664 1.574 . S
C1656 C1672 1.368 . S
H1657 C1665 0.950 . S
H1658 C1663 0.950 . S
H1659 C1664 0.949 . S
H1660 C1666 0.950 . S
H1661 C1667 0.950 . S
H1662 C1668 0.949 . S
C1663 H1658 0.950 . S
C1663 C1665 1.327 . S
C1663 C1669 1.429 . S
C1664 C1656 1.574 . S
C1664 H1659 0.949 . S
C1664 C1670 1.368 1_655 S
C1665 C1649 1.349 . S
C1665 H1657 0.950 . S
C1665 C1663 1.327 . S
C1666 C1654 1.349 . S
C1666 H1660 0.950 . S
C1666 C1667 1.327 . S
C1667 H1661 0.950 . S
C1667 C1666 1.327 . S
C1667 C1671 1.429 . S
C1668 C1651 1.574 . S
C1668 H1662 0.949 . S
C1668 C1672 1.368 1_455 S
C1669 C1650 1.429 . S
C1669 C1663 1.429 . S
C1669 C1670 1.523 . S
C1670 C1651 1.368 . S
C1670 C1664 1.368 1_455 S
C1670 C1669 1.523 . S
C1671 C1655 1.429 . S
C1671 C1667 1.429 . S
C1671 C1672 1.523 . S
C1672 C1656 1.368 . S
C1672 C1668 1.368 1_655 S
C1672 C1671 1.523 . S
H1673 C1648 0.950 . S
H1674 C1650 0.950 . S
H1675 C1651 0.949 . S
H1676 C1653 0.950 . S
H1677 C1655 0.950 . S
C1678 C1679 1.349 . S
C1678 C1680 1.327 . S
C1678 H1703 0.950 . S
C1679 C1678 1.349 . S
C1679 C1695 1.349 . S
C1680 C1678 1.327 . S
C1680 C1699 1.429 . S
C1680 H1704 0.950 . S
C1681 C1698 1.574 . S
C1681 C1700 1.368 . S
C1681 H1705 0.949 . S
H1682 C1686 0.949 . S
C1683 C1684 1.349 . S
C1683 C1685 1.327 . S
C1683 H1706 0.950 . S
C1684 C1683 1.349 . S
C1684 C1696 1.349 . S
C1685 C1683 1.327 . S
C1685 C1701 1.429 . S
C1685 H1707 0.950 . S
C1686 H1682 0.949 . S
C1686 C1694 1.574 . S
C1686 C1702 1.368 . S
H1687 C1695 0.950 . S
H1688 C1693 0.950 . S
H1689 C1694 0.949 . S
H1690 C1696 0.950 . S
H1691 C1697 0.950 . S
H1692 C1698 0.949 . S
C1693 H1688 0.950 . S
C1693 C1695 1.327 . S
C1693 C1699 1.429 . S
C1694 C1686 1.574 . S
C1694 H1689 0.949 . S
C1694 C1700 1.368 . S
C1695 C1679 1.349 . S
C1695 H1687 0.950 . S
C1695 C1693 1.327 . S
C1696 C1684 1.349 . S
C1696 H1690 0.950 . S
C1696 C1697 1.327 . S
C1697 H1691 0.950 . S
C1697 C1696 1.327 . S
C1697 C1701 1.429 . S
C1698 C1681 1.574 . S
C1698 H1692 0.949 . S
C1698 C1702 1.368 . S
C1699 C1680 1.429 . S
C1699 C1693 1.429 . S
C1699 C1700 1.523 . S
C1700 C1681 1.368 . S
C1700 C1694 1.368 . S
C1700 C1699 1.523 . S
C1701 C1685 1.429 . S
C1701 C1697 1.429 . S
C1701 C1702 1.523 . S
C1702 C1686 1.368 . S
C1702 C1698 1.368 . S
C1702 C1701 1.523 . S
H1703 C1678 0.950 . S
H1704 C1680 0.950 . S
H1705 C1681 0.949 . S
H1706 C1683 0.950 . S
H1707 C1685 0.950 . S
C1708 C1709 1.349 . S
C1708 C1710 1.327 . S
C1708 H1733 0.950 . S
C1709 C1708 1.349 . S
C1709 C1725 1.349 . S
C1710 C1708 1.327 . S
C1710 C1729 1.429 . S
C1710 H1734 0.950 . S
C1711 C1728 1.574 . S
C1711 C1730 1.368 . S
C1711 H1735 0.949 . S
H1712 C1716 0.949 . S
C1713 C1714 1.349 . S
C1713 C1715 1.327 . S
C1713 H1736 0.950 . S
C1714 C1713 1.349 . S
C1714 C1726 1.349 . S
C1715 C1713 1.327 . S
C1715 C1731 1.429 . S
C1715 H1737 0.950 . S
C1716 H1712 0.949 . S
C1716 C1724 1.574 . S
C1716 C1732 1.368 . S
H1717 C1725 0.950 . S
H1718 C1723 0.950 . S
H1719 C1724 0.949 . S
H1720 C1726 0.950 . S
H1721 C1727 0.950 . S
H1722 C1728 0.949 . S
C1723 H1718 0.950 . S
C1723 C1725 1.327 . S
C1723 C1729 1.429 . S
C1724 C1716 1.574 . S
C1724 H1719 0.949 . S
C1724 C1730 1.368 . S
C1725 C1709 1.349 . S
C1725 H1717 0.950 . S
C1725 C1723 1.327 . S
C1726 C1714 1.349 . S
C1726 H1720 0.950 . S
C1726 C1727 1.327 . S
C1727 H1721 0.950 . S
C1727 C1726 1.327 . S
C1727 C1731 1.429 . S
C1728 C1711 1.574 . S
C1728 H1722 0.949 . S
C1728 C1732 1.368 . S
C1729 C1710 1.429 . S
C1729 C1723 1.429 . S
C1729 C1730 1.523 . S
C1730 C1711 1.368 . S
C1730 C1724 1.368 . S
C1730 C1729 1.523 . S
C1731 C1715 1.429 . S
C1731 C1727 1.429 . S
C1731 C1732 1.523 . S
C1732 C1716 1.368 . S
C1732 C1728 1.368 . S
C1732 C1731 1.523 . S
H1733 C1708 0.950 . S
H1734 C1710 0.950 . S
H1735 C1711 0.949 . S
H1736 C1713 0.950 . S
H1737 C1715 0.950 . S
C1738 C1739 1.349 . S
C1738 C1740 1.327 . S
C1738 H1763 0.950 . S
C1739 C1738 1.349 . S
C1739 C1755 1.349 . S
C1740 C1738 1.327 . S
C1740 C1759 1.429 . S
C1740 H1764 0.950 . S
C1741 C1758 1.574 . S
C1741 C1760 1.368 . S
C1741 H1765 0.949 . S
H1742 C1746 0.949 . S
C1743 C1744 1.349 . S
C1743 C1745 1.327 . S
C1743 H1766 0.950 . S
C1744 C1743 1.349 . S
C1744 C1756 1.349 . S
C1745 C1743 1.327 . S
C1745 C1761 1.429 . S
C1745 H1767 0.950 . S
C1746 H1742 0.949 . S
C1746 C1754 1.574 . S
C1746 C1762 1.368 . S
H1747 C1755 0.950 . S
H1748 C1753 0.950 . S
H1749 C1754 0.949 . S
H1750 C1756 0.950 . S
H1751 C1757 0.950 . S
H1752 C1758 0.949 . S
C1753 H1748 0.950 . S
C1753 C1755 1.327 . S
C1753 C1759 1.429 . S
C1754 C1746 1.574 . S
C1754 H1749 0.949 . S
C1754 C1760 1.368 . S
C1755 C1739 1.349 . S
C1755 H1747 0.950 . S
C1755 C1753 1.327 . S
C1756 C1744 1.349 . S
C1756 H1750 0.950 . S
C1756 C1757 1.327 . S
C1757 H1751 0.950 . S
C1757 C1756 1.327 . S
C1757 C1761 1.429 . S
C1758 C1741 1.574 . S
C1758 H1752 0.949 . S
C1758 C1762 1.368 . S
C1759 C1740 1.429 . S
C1759 C1753 1.429 . S
C1759 C1760 1.523 . S
C1760 C1741 1.368 . S
C1760 C1754 1.368 . S
C1760 C1759 1.523 . S
C1761 C1745 1.429 . S
C1761 C1757 1.429 . S
C1761 C1762 1.523 . S
C1762 C1746 1.368 . S
C1762 C1758 1.368 . S
C1762 C1761 1.523 . S
H1763 C1738 0.950 . S
H1764 C1740 0.950 . S
H1765 C1741 0.949 . S
H1766 C1743 0.950 . S
H1767 C1745 0.950 . S
C1768 C1769 1.349 . S
C1768 C1770 1.327 . S
C1768 H1793 0.950 . S
C1769 C1768 1.349 . S
C1769 C1785 1.349 . S
C1770 C1768 1.327 . S
C1770 C1789 1.429 . S
C1770 H1794 0.950 . S
C1771 C1788 1.574 . S
C1771 C1790 1.368 . S
C1771 H1795 0.949 . S
H1772 C1776 0.949 . S
C1773 C1774 1.349 . S
C1773 C1775 1.327 . S
C1773 H1796 0.950 . S
C1774 C1773 1.349 . S
C1774 C1786 1.349 . S
C1775 C1773 1.327 . S
C1775 C1791 1.429 . S
C1775 H1797 0.950 . S
C1776 H1772 0.949 . S
C1776 C1784 1.574 . S
C1776 C1792 1.368 . S
H1777 C1785 0.950 . S
H1778 C1783 0.950 . S
H1779 C1784 0.949 . S
H1780 C1786 0.950 . S
H1781 C1787 0.950 . S
H1782 C1788 0.949 . S
C1783 H1778 0.950 . S
C1783 C1785 1.327 . S
C1783 C1789 1.429 . S
C1784 C1776 1.574 . S
C1784 H1779 0.949 . S
C1784 C1790 1.368 . S
C1785 C1769 1.349 . S
C1785 H1777 0.950 . S
C1785 C1783 1.327 . S
C1786 C1774 1.349 . S
C1786 H1780 0.950 . S
C1786 C1787 1.327 . S
C1787 H1781 0.950 . S
C1787 C1786 1.327 . S
C1787 C1791 1.429 . S
C1788 C1771 1.574 . S
C1788 H1782 0.949 . S
C1788 C1792 1.368 . S
C1789 C1770 1.429 . S
C1789 C1783 1.429 . S
C1789 C1790 1.523 . S
C1790 C1771 1.368 . S
C1790 C1784 1.368 . S
C1790 C1789 1.523 . S
C1791 C1775 1.429 . S
C1791 C1787 1.429 . S
C1791 C1792 1.523 . S
C1792 C1776 1.368 . S
C1792 C1788 1.368 . S
C1792 C1791 1.523 . S
H1793 C1768 0.950 . S
H1794 C1770 0.950 . S
H1795 C1771 0.949 . S
H1796 C1773 0.950 . S
H1797 C1775 0.950 . S
C1798 C1799 1.349 . S
C1798 C1800 1.327 . S
C1798 H1823 0.950 . S
C1799 C1798 1.349 . S
C1799 C1815 1.349 . S
C1800 C1798 1.327 . S
C1800 C1819 1.429 . S
C1800 H1824 0.950 . S
C1801 C1818 1.574 1_545 S
C1801 C1820 1.368 . S
C1801 H1825 0.949 . S
H1802 C1806 0.949 . S
C1803 C1804 1.349 . S
C1803 C1805 1.327 . S
C1803 H1826 0.950 . S
C1804 C1803 1.349 . S
C1804 C1816 1.349 . S
C1805 C1803 1.327 . S
C1805 C1821 1.429 . S
C1805 H1827 0.950 . S
C1806 H1802 0.949 . S
C1806 C1814 1.574 1_565 S
C1806 C1822 1.368 . S
H1807 C1815 0.950 . S
H1808 C1813 0.950 . S
H1809 C1814 0.949 . S
H1810 C1816 0.950 . S
H1811 C1817 0.950 . S
H1812 C1818 0.949 . S
C1813 H1808 0.950 . S
C1813 C1815 1.327 . S
C1813 C1819 1.429 . S
C1814 C1806 1.574 1_545 S
C1814 H1809 0.949 . S
C1814 C1820 1.368 . S
C1815 C1799 1.349 . S
C1815 H1807 0.950 . S
C1815 C1813 1.327 . S
C1816 C1804 1.349 . S
C1816 H1810 0.950 . S
C1816 C1817 1.327 . S
C1817 H1811 0.950 . S
C1817 C1816 1.327 . S
C1817 C1821 1.429 . S
C1818 C1801 1.574 1_565 S
C1818 H1812 0.949 . S
C1818 C1822 1.368 . S
C1819 C1800 1.429 . S
C1819 C1813 1.429 . S
C1819 C1820 1.523 . S
C1820 C1801 1.368 . S
C1820 C1814 1.368 . S
C1820 C1819 1.523 . S
C1821 C1805 1.429 . S
C1821 C1817 1.429 . S
C1821 C1822 1.523 . S
C1822 C1806 1.368 . S
C1822 C1818 1.368 . S
C1822 C1821 1.523 . S
H1823 C1798 0.950 . S
H1824 C1800 0.950 . S
H1825 C1801 0.949 . S
H1826 C1803 0.950 . S
H1827 C1805 0.950 . S
C1828 C1829 1.349 . S
C1828 C1830 1.327 . S
C1828 H1853 0.950 . S
C1829 C1828 1.349 . S
C1829 C1845 1.349 . S
C1830 C1828 1.327 . S
C1830 C1849 1.429 . S
C1830 H1854 0.950 . S
C1831 C1848 1.574 . S
C1831 C1850 1.368 . S
C1831 H1855 0.949 . S
H1832 C1836 0.949 . S
C1833 C1834 1.349 . S
C1833 C1835 1.327 . S
C1833 H1856 0.950 . S
C1834 C1833 1.349 . S
C1834 C1846 1.349 . S
C1835 C1833 1.327 . S
C1835 C1851 1.429 . S
C1835 H1857 0.950 . S
C1836 H1832 0.949 . S
C1836 C1844 1.574 . S
C1836 C1852 1.368 . S
H1837 C1845 0.950 . S
H1838 C1843 0.950 . S
H1839 C1844 0.949 . S
H1840 C1846 0.950 . S
H1841 C1847 0.950 . S
H1842 C1848 0.949 . S
C1843 H1838 0.950 . S
C1843 C1845 1.327 . S
C1843 C1849 1.429 . S
C1844 C1836 1.574 . S
C1844 H1839 0.949 . S
C1844 C1850 1.368 . S
C1845 C1829 1.349 . S
C1845 H1837 0.950 . S
C1845 C1843 1.327 . S
C1846 C1834 1.349 . S
C1846 H1840 0.950 . S
C1846 C1847 1.327 . S
C1847 H1841 0.950 . S
C1847 C1846 1.327 . S
C1847 C1851 1.429 . S
C1848 C1831 1.574 . S
C1848 H1842 0.949 . S
C1848 C1852 1.368 . S
C1849 C1830 1.429 . S
C1849 C1843 1.429 . S
C1849 C1850 1.523 . S
C1850 C1831 1.368 . S
C1850 C1844 1.368 . S
C1850 C1849 1.523 . S
C1851 C1835 1.429 . S
C1851 C1847 1.429 . S
C1851 C1852 1.523 . S
C1852 C1836 1.368 . S
C1852 C1848 1.368 . S
C1852 C1851 1.523 . S
H1853 C1828 0.950 . S
H1854 C1830 0.950 . S
H1855 C1831 0.949 . S
H1856 C1833 0.950 . S
H1857 C1835 0.950 . S
C1858 C1859 1.349 . S
C1858 C1860 1.327 . S
C1858 H1883 0.950 . S
C1859 C1858 1.349 . S
C1859 C1875 1.349 . S
C1860 C1858 1.327 . S
C1860 C1879 1.429 . S
C1860 H1884 0.950 1_556 S
C1861 C1878 1.574 . S
C1861 C1880 1.368 . S
C1861 H1885 0.949 . S
H1862 C1866 0.949 . S
C1863 C1864 1.349 . S
C1863 C1865 1.327 . S
C1863 H1886 0.950 . S
C1864 C1863 1.349 . S
C1864 C1876 1.349 . S
C1865 C1863 1.327 . S
C1865 C1881 1.429 . S
C1865 H1887 0.950 1_554 S
C1866 H1862 0.949 . S
C1866 C1874 1.574 . S
C1866 C1882 1.368 . S
H1867 C1875 0.950 . S
H1868 C1873 0.950 . S
H1869 C1874 0.949 . S
H1870 C1876 0.950 . S
H1871 C1877 0.950 . S
H1872 C1878 0.949 . S
C1873 H1868 0.950 . S
C1873 C1875 1.327 . S
C1873 C1879 1.429 . S
C1874 C1866 1.574 . S
C1874 H1869 0.949 . S
C1874 C1880 1.368 1_554 S
C1875 C1859 1.349 . S
C1875 H1867 0.950 . S
C1875 C1873 1.327 . S
C1876 C1864 1.349 . S
C1876 H1870 0.950 . S
C1876 C1877 1.327 . S
C1877 H1871 0.950 . S
C1877 C1876 1.327 . S
C1877 C1881 1.429 . S
C1878 C1861 1.574 . S
C1878 H1872 0.949 . S
C1878 C1882 1.368 1_556 S
C1879 C1860 1.429 . S
C1879 C1873 1.429 . S
C1879 C1880 1.523 . S
C1880 C1861 1.368 . S
C1880 C1874 1.368 1_556 S
C1880 C1879 1.523 . S
C1881 C1865 1.429 . S
C1881 C1877 1.429 . S
C1881 C1882 1.523 . S
C1882 C1866 1.368 . S
C1882 C1878 1.368 1_554 S
C1882 C1881 1.523 . S
H1883 C1858 0.950 . S
H1884 C1860 0.950 1_554 S
H1885 C1861 0.949 . S
H1886 C1863 0.950 . S
H1887 C1865 0.950 1_556 S
C1888 C1889 1.349 . S
C1888 C1890 1.327 . S
C1888 H1913 0.950 . S
C1889 C1888 1.349 . S
C1889 C1905 1.349 . S
C1890 C1888 1.327 . S
C1890 C1909 1.429 . S
C1890 H1914 0.950 . S
C1891 C1908 1.574 . S
C1891 C1910 1.368 . S
C1891 H1915 0.949 . S
H1892 C1896 0.949 . S
C1893 C1894 1.349 . S
C1893 C1895 1.327 . S
C1893 H1916 0.950 . S
C1894 C1893 1.349 . S
C1894 C1906 1.349 . S
C1895 C1893 1.327 . S
C1895 C1911 1.429 . S
C1895 H1917 0.950 . S
C1896 H1892 0.949 . S
C1896 C1904 1.574 . S
C1896 C1912 1.368 . S
H1897 C1905 0.950 . S
H1898 C1903 0.950 . S
H1899 C1904 0.949 . S
H1900 C1906 0.950 . S
H1901 C1907 0.950 . S
H1902 C1908 0.949 . S
C1903 H1898 0.950 . S
C1903 C1905 1.327 . S
C1903 C1909 1.429 . S
C1904 C1896 1.574 . S
C1904 H1899 0.949 . S
C1904 C1910 1.368 . S
C1905 C1889 1.349 . S
C1905 H1897 0.950 . S
C1905 C1903 1.327 . S
C1906 C1894 1.349 . S
C1906 H1900 0.950 . S
C1906 C1907 1.327 . S
C1907 H1901 0.950 . S
C1907 C1906 1.327 . S
C1907 C1911 1.429 . S
C1908 C1891 1.574 . S
C1908 H1902 0.949 . S
C1908 C1912 1.368 . S
C1909 C1890 1.429 . S
C1909 C1903 1.429 . S
C1909 C1910 1.523 . S
C1910 C1891 1.368 . S
C1910 C1904 1.368 . S
C1910 C1909 1.523 . S
C1911 C1895 1.429 . S
C1911 C1907 1.429 . S
C1911 C1912 1.523 . S
C1912 C1896 1.368 . S
C1912 C1908 1.368 . S
C1912 C1911 1.523 . S
H1913 C1888 0.950 . S
H1914 C1890 0.950 . S
H1915 C1891 0.949 . S
H1916 C1893 0.950 . S
H1917 C1895 0.950 . S
C1918 C1919 1.349 . S
C1918 C1920 1.327 . S
C1918 H1943 0.950 . S
C1919 C1918 1.349 . S
C1919 C1935 1.349 . S
C1920 C1918 1.327 . S
C1920 C1939 1.429 . S
C1920 H1944 0.950 . S
C1921 C1938 1.574 . S
C1921 C1940 1.368 . S
C1921 H1945 0.949 . S
H1922 C1926 0.949 . S
C1923 C1924 1.349 . S
C1923 C1925 1.327 . S
C1923 H1946 0.950 . S
C1924 C1923 1.349 . S
C1924 C1936 1.349 . S
C1925 C1923 1.327 . S
C1925 C1941 1.429 . S
C1925 H1947 0.950 . S
C1926 H1922 0.949 . S
C1926 C1934 1.574 . S
C1926 C1942 1.368 . S
H1927 C1935 0.950 . S
H1928 C1933 0.950 . S
H1929 C1934 0.949 . S
H1930 C1936 0.950 . S
H1931 C1937 0.950 . S
H1932 C1938 0.949 . S
C1933 H1928 0.950 . S
C1933 C1935 1.327 . S
C1933 C1939 1.429 . S
C1934 C1926 1.574 . S
C1934 H1929 0.949 . S
C1934 C1940 1.368 . S
C1935 C1919 1.349 . S
C1935 H1927 0.950 . S
C1935 C1933 1.327 . S
C1936 C1924 1.349 . S
C1936 H1930 0.950 . S
C1936 C1937 1.327 . S
C1937 H1931 0.950 . S
C1937 C1936 1.327 . S
C1937 C1941 1.429 . S
C1938 C1921 1.574 . S
C1938 H1932 0.949 . S
C1938 C1942 1.368 . S
C1939 C1920 1.429 . S
C1939 C1933 1.429 . S
C1939 C1940 1.523 . S
C1940 C1921 1.368 . S
C1940 C1934 1.368 . S
C1940 C1939 1.523 . S
C1941 C1925 1.429 . S
C1941 C1937 1.429 . S
C1941 C1942 1.523 . S
C1942 C1926 1.368 . S
C1942 C1938 1.368 . S
C1942 C1941 1.523 . S
H1943 C1918 0.950 . S
H1944 C1920 0.950 . S
H1945 C1921 0.949 . S
H1946 C1923 0.950 . S
H1947 C1925 0.950 . S
C1948 C1949 1.349 . S
C1948 C1950 1.327 . S
C1948 H1973 0.950 . S
C1949 C1948 1.349 . S
C1949 C1965 1.349 . S
C1950 C1948 1.327 . S
C1950 C1969 1.429 . S
C1950 H1974 0.950 . S
C1951 C1968 1.574 . S
C1951 C1970 1.368 . S
C1951 H1975 0.949 . S
H1952 C1956 0.949 . S
C1953 C1954 1.349 . S
C1953 C1955 1.327 . S
C1953 H1976 0.950 . S
C1954 C1953 1.349 . S
C1954 C1966 1.349 . S
C1955 C1953 1.327 . S
C1955 C1971 1.429 . S
C1955 H1977 0.950 . S
C1956 H1952 0.949 . S
C1956 C1964 1.574 . S
C1956 C1972 1.368 . S
H1957 C1965 0.950 . S
H1958 C1963 0.950 . S
H1959 C1964 0.949 . S
H1960 C1966 0.950 . S
H1961 C1967 0.950 . S
H1962 C1968 0.949 . S
C1963 H1958 0.950 . S
C1963 C1965 1.327 . S
C1963 C1969 1.429 . S
C1964 C1956 1.574 . S
C1964 H1959 0.949 . S
C1964 C1970 1.368 . S
C1965 C1949 1.349 . S
C1965 H1957 0.950 . S
C1965 C1963 1.327 . S
C1966 C1954 1.349 . S
C1966 H1960 0.950 . S
C1966 C1967 1.327 . S
C1967 H1961 0.950 . S
C1967 C1966 1.327 . S
C1967 C1971 1.429 . S
C1968 C1951 1.574 . S
C1968 H1962 0.949 . S
C1968 C1972 1.368 . S
C1969 C1950 1.429 . S
C1969 C1963 1.429 . S
C1969 C1970 1.523 . S
C1970 C1951 1.368 . S
C1970 C1964 1.368 . S
C1970 C1969 1.523 . S
C1971 C1955 1.429 . S
C1971 C1967 1.429 . S
C1971 C1972 1.523 . S
C1972 C1956 1.368 . S
C1972 C1968 1.368 . S
C1972 C1971 1.523 . S
H1973 C1948 0.950 . S
H1974 C1950 0.950 . S
H1975 C1951 0.949 . S
H1976 C1953 0.950 . S
H1977 C1955 0.950 . S
C1978 C1979 1.349 . S
C1978 C1980 1.327 . S
C1978 H2003 0.950 . S
C1979 C1978 1.349 . S
C1979 C1995 1.349 . S
C1980 C1978 1.327 . S
C1980 C1999 1.429 . S
C1980 H2004 0.950 . S
C1981 C1998 1.574 . S
C1981 C2000 1.368 . S
C1981 H2005 0.949 . S
H1982 C1986 0.949 . S
C1983 C1984 1.349 . S
C1983 C1985 1.327 . S
C1983 H2006 0.950 . S
C1984 C1983 1.349 . S
C1984 C1996 1.349 . S
C1985 C1983 1.327 . S
C1985 C2001 1.429 . S
C1985 H2007 0.950 . S
C1986 H1982 0.949 . S
C1986 C1994 1.574 . S
C1986 C2002 1.368 . S
H1987 C1995 0.950 . S
H1988 C1993 0.950 . S
H1989 C1994 0.949 . S
H1990 C1996 0.950 . S
H1991 C1997 0.950 . S
H1992 C1998 0.949 . S
C1993 H1988 0.950 . S
C1993 C1995 1.327 . S
C1993 C1999 1.429 . S
C1994 C1986 1.574 . S
C1994 H1989 0.949 . S
C1994 C2000 1.368 . S
C1995 C1979 1.349 . S
C1995 H1987 0.950 . S
C1995 C1993 1.327 . S
C1996 C1984 1.349 . S
C1996 H1990 0.950 . S
C1996 C1997 1.327 . S
C1997 H1991 0.950 . S
C1997 C1996 1.327 . S
C1997 C2001 1.429 . S
C1998 C1981 1.574 . S
C1998 H1992 0.949 . S
C1998 C2002 1.368 . S
C1999 C1980 1.429 . S
C1999 C1993 1.429 . S
C1999 C2000 1.523 . S
C2000 C1981 1.368 . S
C2000 C1994 1.368 . S
C2000 C1999 1.523 . S
C2001 C1985 1.429 . S
C2001 C1997 1.429 . S
C2001 C2002 1.523 . S
C2002 C1986 1.368 . S
C2002 C1998 1.368 . S
C2002 C2001 1.523 . S
H2003 C1978 0.950 . S
H2004 C1980 0.950 . S
H2005 C1981 0.949 . S
H2006 C1983 0.950 . S
H2007 C1985 0.950 . S
C2008 C2009 1.349 . S
C2008 C2010 1.327 . S
C2008 H2033 0.950 . S
C2009 C2008 1.349 . S
C2009 C2025 1.349 . S
C2010 C2008 1.327 . S
C2010 C2029 1.429 . S
C2010 H2034 0.950 . S
C2011 C2028 1.574 . S
C2011 C2030 1.368 . S
C2011 H2035 0.949 . S
H2012 C2016 0.949 . S
C2013 C2014 1.349 . S
C2013 C2015 1.327 . S
C2013 H2036 0.950 . S
C2014 C2013 1.349 . S
C2014 C2026 1.349 . S
C2015 C2013 1.327 . S
C2015 C2031 1.429 . S
C2015 H2037 0.950 . S
C2016 H2012 0.949 . S
C2016 C2024 1.574 . S
C2016 C2032 1.368 . S
H2017 C2025 0.950 . S
H2018 C2023 0.950 . S
H2019 C2024 0.949 . S
H2020 C2026 0.950 . S
H2021 C2027 0.950 . S
H2022 C2028 0.949 . S
C2023 H2018 0.950 . S
C2023 C2025 1.327 . S
C2023 C2029 1.429 . S
C2024 C2016 1.574 . S
C2024 H2019 0.949 . S
C2024 C2030 1.368 . S
C2025 C2009 1.349 . S
C2025 H2017 0.950 . S
C2025 C2023 1.327 . S
C2026 C2014 1.349 . S
C2026 H2020 0.950 . S
C2026 C2027 1.327 . S
C2027 H2021 0.950 . S
C2027 C2026 1.327 . S
C2027 C2031 1.429 . S
C2028 C2011 1.574 . S
C2028 H2022 0.949 . S
C2028 C2032 1.368 . S
C2029 C2010 1.429 . S
C2029 C2023 1.429 . S
C2029 C2030 1.523 . S
C2030 C2011 1.368 . S
C2030 C2024 1.368 . S
C2030 C2029 1.523 . S
C2031 C2015 1.429 . S
C2031 C2027 1.429 . S
C2031 C2032 1.523 . S
C2032 C2016 1.368 . S
C2032 C2028 1.368 . S
C2032 C2031 1.523 . S
H2033 C2008 0.950 . S
H2034 C2010 0.950 . S
H2035 C2011 0.949 . S
H2036 C2013 0.950 . S
H2037 C2015 0.950 . S
C2038 C2039 1.349 . S
C2038 C2040 1.327 . S
C2038 H2063 0.950 . S
C2039 C2038 1.349 . S
C2039 C2055 1.349 . S
C2040 C2038 1.327 . S
C2040 C2059 1.429 . S
C2040 H2064 0.950 . S
C2041 C2058 1.574 . S
C2041 C2060 1.368 . S
C2041 H2065 0.949 . S
H2042 C2046 0.949 . S
C2043 C2044 1.349 . S
C2043 C2045 1.327 . S
C2043 H2066 0.950 . S
C2044 C2043 1.349 . S
C2044 C2056 1.349 . S
C2045 C2043 1.327 . S
C2045 C2061 1.429 . S
C2045 H2067 0.950 . S
C2046 H2042 0.949 . S
C2046 C2054 1.574 . S
C2046 C2062 1.368 . S
H2047 C2055 0.950 . S
H2048 C2053 0.950 . S
H2049 C2054 0.949 . S
H2050 C2056 0.950 . S
H2051 C2057 0.950 . S
H2052 C2058 0.949 . S
C2053 H2048 0.950 . S
C2053 C2055 1.327 . S
C2053 C2059 1.429 . S
C2054 C2046 1.574 . S
C2054 H2049 0.949 . S
C2054 C2060 1.368 . S
C2055 C2039 1.349 . S
C2055 H2047 0.950 . S
C2055 C2053 1.327 . S
C2056 C2044 1.349 . S
C2056 H2050 0.950 . S
C2056 C2057 1.327 . S
C2057 H2051 0.950 . S
C2057 C2056 1.327 . S
C2057 C2061 1.429 . S
C2058 C2041 1.574 . S
C2058 H2052 0.949 . S
C2058 C2062 1.368 . S
C2059 C2040 1.429 . S
C2059 C2053 1.429 . S
C2059 C2060 1.523 . S
C2060 C2041 1.368 . S
C2060 C2054 1.368 . S
C2060 C2059 1.523 . S
C2061 C2045 1.429 . S
C2061 C2057 1.429 . S
C2061 C2062 1.523 . S
C2062 C2046 1.368 . S
C2062 C2058 1.368 . S
C2062 C2061 1.523 . S
H2063 C2038 0.950 . S
H2064 C2040 0.950 . S
H2065 C2041 0.949 . S
H2066 C2043 0.950 . S
H2067 C2045 0.950 . S
C2068 C2069 1.349 . S
C2068 C2070 1.327 . S
C2068 H2093 0.950 . S
C2069 C2068 1.349 . S
C2069 C2085 1.349 . S
C2070 C2068 1.327 . S
C2070 C2089 1.429 . S
C2070 H2094 0.950 . S
C2071 C2088 1.574 . S
C2071 C2090 1.368 . S
C2071 H2095 0.949 . S
H2072 C2076 0.949 . S
C2073 C2074 1.349 . S
C2073 C2075 1.327 . S
C2073 H2096 0.950 . S
C2074 C2073 1.349 . S
C2074 C2086 1.349 . S
C2075 C2073 1.327 . S
C2075 C2091 1.429 . S
C2075 H2097 0.950 . S
C2076 H2072 0.949 . S
C2076 C2084 1.574 . S
C2076 C2092 1.368 . S
H2077 C2085 0.950 . S
H2078 C2083 0.950 . S
H2079 C2084 0.949 . S
H2080 C2086 0.950 . S
H2081 C2087 0.950 . S
H2082 C2088 0.949 . S
C2083 H2078 0.950 . S
C2083 C2085 1.327 . S
C2083 C2089 1.429 . S
C2084 C2076 1.574 . S
C2084 H2079 0.949 . S
C2084 C2090 1.368 . S
C2085 C2069 1.349 . S
C2085 H2077 0.950 . S
C2085 C2083 1.327 . S
C2086 C2074 1.349 . S
C2086 H2080 0.950 . S
C2086 C2087 1.327 . S
C2087 H2081 0.950 . S
C2087 C2086 1.327 . S
C2087 C2091 1.429 . S
C2088 C2071 1.574 . S
C2088 H2082 0.949 . S
C2088 C2092 1.368 . S
C2089 C2070 1.429 . S
C2089 C2083 1.429 . S
C2089 C2090 1.523 . S
C2090 C2071 1.368 . S
C2090 C2084 1.368 . S
C2090 C2089 1.523 . S
C2091 C2075 1.429 . S
C2091 C2087 1.429 . S
C2091 C2092 1.523 . S
C2092 C2076 1.368 . S
C2092 C2088 1.368 . S
C2092 C2091 1.523 . S
H2093 C2068 0.950 . S
H2094 C2070 0.950 . S
H2095 C2071 0.949 . S
H2096 C2073 0.950 . S
H2097 C2075 0.950 . S
C2098 C2099 1.349 . S
C2098 C2100 1.327 . S
C2098 H2123 0.950 . S
C2099 C2098 1.349 . S
C2099 C2115 1.349 . S
C2100 C2098 1.327 . S
C2100 C2119 1.429 . S
C2100 H2124 0.950 . S
C2101 C2118 1.574 . S
C2101 C2120 1.368 . S
C2101 H2125 0.949 . S
H2102 C2106 0.949 . S
C2103 C2104 1.349 . S
C2103 C2105 1.327 . S
C2103 H2126 0.950 . S
C2104 C2103 1.349 . S
C2104 C2116 1.349 . S
C2105 C2103 1.327 . S
C2105 C2121 1.429 . S
C2105 H2127 0.950 . S
C2106 H2102 0.949 . S
C2106 C2114 1.574 . S
C2106 C2122 1.368 . S
H2107 C2115 0.950 . S
H2108 C2113 0.950 . S
H2109 C2114 0.949 . S
H2110 C2116 0.950 . S
H2111 C2117 0.950 . S
H2112 C2118 0.949 . S
C2113 H2108 0.950 . S
C2113 C2115 1.327 . S
C2113 C2119 1.429 . S
C2114 C2106 1.574 . S
C2114 H2109 0.949 . S
C2114 C2120 1.368 . S
C2115 C2099 1.349 . S
C2115 H2107 0.950 . S
C2115 C2113 1.327 . S
C2116 C2104 1.349 . S
C2116 H2110 0.950 . S
C2116 C2117 1.327 . S
C2117 H2111 0.950 . S
C2117 C2116 1.327 . S
C2117 C2121 1.429 . S
C2118 C2101 1.574 . S
C2118 H2112 0.949 . S
C2118 C2122 1.368 . S
C2119 C2100 1.429 . S
C2119 C2113 1.429 . S
C2119 C2120 1.523 . S
C2120 C2101 1.368 . S
C2120 C2114 1.368 . S
C2120 C2119 1.523 . S
C2121 C2105 1.429 . S
C2121 C2117 1.429 . S
C2121 C2122 1.523 . S
C2122 C2106 1.368 . S
C2122 C2118 1.368 . S
C2122 C2121 1.523 . S
H2123 C2098 0.950 . S
H2124 C2100 0.950 . S
H2125 C2101 0.949 . S
H2126 C2103 0.950 . S
H2127 C2105 0.950 . S
C2128 C2129 1.349 . S
C2128 C2130 1.327 . S
C2128 H2153 0.950 . S
C2129 C2128 1.349 . S
C2129 C2145 1.349 . S
C2130 C2128 1.327 . S
C2130 C2149 1.429 . S
C2130 H2154 0.950 . S
C2131 C2148 1.574 . S
C2131 C2150 1.368 . S
C2131 H2155 0.949 . S
H2132 C2136 0.949 . S
C2133 C2134 1.349 . S
C2133 C2135 1.327 . S
C2133 H2156 0.950 . S
C2134 C2133 1.349 . S
C2134 C2146 1.349 . S
C2135 C2133 1.327 . S
C2135 C2151 1.429 . S
C2135 H2157 0.950 . S
C2136 H2132 0.949 . S
C2136 C2144 1.574 . S
C2136 C2152 1.368 . S
H2137 C2145 0.950 . S
H2138 C2143 0.950 . S
H2139 C2144 0.949 . S
H2140 C2146 0.950 . S
H2141 C2147 0.950 . S
H2142 C2148 0.949 . S
C2143 H2138 0.950 . S
C2143 C2145 1.327 . S
C2143 C2149 1.429 . S
C2144 C2136 1.574 . S
C2144 H2139 0.949 . S
C2144 C2150 1.368 . S
C2145 C2129 1.349 . S
C2145 H2137 0.950 . S
C2145 C2143 1.327 . S
C2146 C2134 1.349 . S
C2146 H2140 0.950 . S
C2146 C2147 1.327 . S
C2147 H2141 0.950 . S
C2147 C2146 1.327 . S
C2147 C2151 1.429 . S
C2148 C2131 1.574 . S
C2148 H2142 0.949 . S
C2148 C2152 1.368 . S
C2149 C2130 1.429 . S
C2149 C2143 1.429 . S
C2149 C2150 1.523 . S
C2150 C2131 1.368 . S
C2150 C2144 1.368 . S
C2150 C2149 1.523 . S
C2151 C2135 1.429 . S
C2151 C2147 1.429 . S
C2151 C2152 1.523 . S
C2152 C2136 1.368 . S
C2152 C2148 1.368 . S
C2152 C2151 1.523 . S
H2153 C2128 0.950 . S
H2154 C2130 0.950 . S
H2155 C2131 0.949 . S
H2156 C2133 0.950 . S
H2157 C2135 0.950 . S
C2158 C2159 1.349 . S
C2158 C2160 1.327 . S
C2158 H2183 0.950 . S
C2159 C2158 1.349 . S
C2159 C2175 1.349 . S
C2160 C2158 1.327 . S
C2160 C2179 1.429 . S
C2160 H2184 0.950 . S
C2161 C2178 1.574 . S
C2161 C2180 1.368 . S
C2161 H2185 0.949 . S
H2162 C2166 0.949 . S
C2163 C2164 1.349 . S
C2163 C2165 1.327 . S
C2163 H2186 0.950 . S
C2164 C2163 1.349 . S
C2164 C2176 1.349 . S
C2165 C2163 1.327 . S
C2165 C2181 1.429 . S
C2165 H2187 0.950 . S
C2166 H2162 0.949 . S
C2166 C2174 1.574 . S
C2166 C2182 1.368 . S
H2167 C2175 0.950 . S
H2168 C2173 0.950 . S
H2169 C2174 0.949 . S
H2170 C2176 0.950 . S
H2171 C2177 0.950 . S
H2172 C2178 0.949 . S
C2173 H2168 0.950 . S
C2173 C2175 1.327 . S
C2173 C2179 1.429 . S
C2174 C2166 1.574 . S
C2174 H2169 0.949 . S
C2174 C2180 1.368 . S
C2175 C2159 1.349 . S
C2175 H2167 0.950 . S
C2175 C2173 1.327 . S
C2176 C2164 1.349 . S
C2176 H2170 0.950 . S
C2176 C2177 1.327 . S
C2177 H2171 0.950 . S
C2177 C2176 1.327 . S
C2177 C2181 1.429 . S
C2178 C2161 1.574 . S
C2178 H2172 0.949 . S
C2178 C2182 1.368 . S
C2179 C2160 1.429 . S
C2179 C2173 1.429 . S
C2179 C2180 1.523 . S
C2180 C2161 1.368 . S
C2180 C2174 1.368 . S
C2180 C2179 1.523 . S
C2181 C2165 1.429 . S
C2181 C2177 1.429 . S
C2181 C2182 1.523 . S
C2182 C2166 1.368 . S
C2182 C2178 1.368 . S
C2182 C2181 1.523 . S
H2183 C2158 0.950 . S
H2184 C2160 0.950 . S
H2185 C2161 0.949 . S
H2186 C2163 0.950 . S
H2187 C2165 0.950 . S
C2188 C2189 1.349 . S
C2188 C2190 1.327 . S
C2188 H2213 0.950 . S
C2189 C2188 1.349 . S
C2189 C2205 1.349 . S
C2190 C2188 1.327 . S
C2190 C2209 1.429 . S
C2190 H2214 0.950 . S
C2191 C2208 1.574 . S
C2191 C2210 1.368 . S
C2191 H2215 0.949 . S
H2192 C2196 0.949 . S
C2193 C2194 1.349 . S
C2193 C2195 1.327 . S
C2193 H2216 0.950 . S
C2194 C2193 1.349 . S
C2194 C2206 1.349 . S
C2195 C2193 1.327 . S
C2195 C2211 1.429 . S
C2195 H2217 0.950 . S
C2196 H2192 0.949 . S
C2196 C2204 1.574 . S
C2196 C2212 1.368 . S
H2197 C2205 0.950 . S
H2198 C2203 0.950 . S
H2199 C2204 0.949 . S
H2200 C2206 0.950 . S
H2201 C2207 0.950 . S
H2202 C2208 0.949 . S
C2203 H2198 0.950 . S
C2203 C2205 1.327 . S
C2203 C2209 1.429 . S
C2204 C2196 1.574 . S
C2204 H2199 0.949 . S
C2204 C2210 1.368 . S
C2205 C2189 1.349 . S
C2205 H2197 0.950 . S
C2205 C2203 1.327 . S
C2206 C2194 1.349 . S
C2206 H2200 0.950 . S
C2206 C2207 1.327 . S
C2207 H2201 0.950 . S
C2207 C2206 1.327 . S
C2207 C2211 1.429 . S
C2208 C2191 1.574 . S
C2208 H2202 0.949 . S
C2208 C2212 1.368 . S
C2209 C2190 1.429 . S
C2209 C2203 1.429 . S
C2209 C2210 1.523 . S
C2210 C2191 1.368 . S
C2210 C2204 1.368 . S
C2210 C2209 1.523 . S
C2211 C2195 1.429 . S
C2211 C2207 1.429 . S
C2211 C2212 1.523 . S
C2212 C2196 1.368 . S
C2212 C2208 1.368 . S
C2212 C2211 1.523 . S
H2213 C2188 0.950 . S
H2214 C2190 0.950 . S
H2215 C2191 0.949 . S
H2216 C2193 0.950 . S
H2217 C2195 0.950 . S
C2218 C2219 1.349 . S
C2218 C2220 1.327 . S
C2218 H2243 0.950 . S
C2219 C2218 1.349 . S
C2219 C2235 1.349 . S
C2220 C2218 1.327 . S
C2220 C2239 1.429 . S
C2220 H2244 0.950 . S
C2221 C2238 1.574 . S
C2221 C2240 1.368 . S
C2221 H2245 0.949 . S
H2222 C2226 0.949 . S
C2223 C2224 1.349 . S
C2223 C2225 1.327 . S
C2223 H2246 0.950 . S
C2224 C2223 1.349 . S
C2224 C2236 1.349 . S
C2225 C2223 1.327 . S
C2225 C2241 1.429 . S
C2225 H2247 0.950 . S
C2226 H2222 0.949 . S
C2226 C2234 1.574 . S
C2226 C2242 1.368 . S
H2227 C2235 0.950 . S
H2228 C2233 0.950 . S
H2229 C2234 0.949 . S
H2230 C2236 0.950 . S
H2231 C2237 0.950 . S
H2232 C2238 0.949 . S
C2233 H2228 0.950 . S
C2233 C2235 1.327 . S
C2233 C2239 1.429 . S
C2234 C2226 1.574 . S
C2234 H2229 0.949 . S
C2234 C2240 1.368 . S
C2235 C2219 1.349 . S
C2235 H2227 0.950 . S
C2235 C2233 1.327 . S
C2236 C2224 1.349 . S
C2236 H2230 0.950 . S
C2236 C2237 1.327 . S
C2237 H2231 0.950 . S
C2237 C2236 1.327 . S
C2237 C2241 1.429 . S
C2238 C2221 1.574 . S
C2238 H2232 0.949 . S
C2238 C2242 1.368 . S
C2239 C2220 1.429 . S
C2239 C2233 1.429 . S
C2239 C2240 1.523 . S
C2240 C2221 1.368 . S
C2240 C2234 1.368 . S
C2240 C2239 1.523 . S
C2241 C2225 1.429 . S
C2241 C2237 1.429 . S
C2241 C2242 1.523 . S
C2242 C2226 1.368 . S
C2242 C2238 1.368 . S
C2242 C2241 1.523 . S
H2243 C2218 0.950 . S
H2244 C2220 0.950 . S
H2245 C2221 0.949 . S
H2246 C2223 0.950 . S
H2247 C2225 0.950 . S
C2248 C2249 1.349 . S
C2248 C2250 1.327 . S
C2248 H2273 0.950 . S
C2249 C2248 1.349 . S
C2249 C2265 1.349 . S
C2250 C2248 1.327 . S
C2250 C2269 1.429 . S
C2250 H2274 0.950 . S
C2251 C2268 1.574 . S
C2251 C2270 1.368 . S
C2251 H2275 0.949 . S
H2252 C2256 0.949 . S
C2253 C2254 1.349 . S
C2253 C2255 1.327 . S
C2253 H2276 0.950 . S
C2254 C2253 1.349 . S
C2254 C2266 1.349 . S
C2255 C2253 1.327 . S
C2255 C2271 1.429 . S
C2255 H2277 0.950 . S
C2256 H2252 0.949 . S
C2256 C2264 1.574 . S
C2256 C2272 1.368 . S
H2257 C2265 0.950 . S
H2258 C2263 0.950 . S
H2259 C2264 0.949 . S
H2260 C2266 0.950 . S
H2261 C2267 0.950 . S
H2262 C2268 0.949 . S
C2263 H2258 0.950 . S
C2263 C2265 1.327 . S
C2263 C2269 1.429 . S
C2264 C2256 1.574 . S
C2264 H2259 0.949 . S
C2264 C2270 1.368 . S
C2265 C2249 1.349 . S
C2265 H2257 0.950 . S
C2265 C2263 1.327 . S
C2266 C2254 1.349 . S
C2266 H2260 0.950 . S
C2266 C2267 1.327 . S
C2267 H2261 0.950 . S
C2267 C2266 1.327 . S
C2267 C2271 1.429 . S
C2268 C2251 1.574 . S
C2268 H2262 0.949 . S
C2268 C2272 1.368 . S
C2269 C2250 1.429 . S
C2269 C2263 1.429 . S
C2269 C2270 1.523 . S
C2270 C2251 1.368 . S
C2270 C2264 1.368 . S
C2270 C2269 1.523 . S
C2271 C2255 1.429 . S
C2271 C2267 1.429 . S
C2271 C2272 1.523 . S
C2272 C2256 1.368 . S
C2272 C2268 1.368 . S
C2272 C2271 1.523 . S
H2273 C2248 0.950 . S
H2274 C2250 0.950 . S
H2275 C2251 0.949 . S
H2276 C2253 0.950 . S
H2277 C2255 0.950 . S
C2278 C2279 1.349 . S
C2278 C2280 1.327 . S
C2278 H2303 0.950 . S
C2279 C2278 1.349 . S
C2279 C2295 1.349 . S
C2280 C2278 1.327 . S
C2280 C2299 1.429 . S
C2280 H2304 0.950 . S
C2281 C2298 1.574 . S
C2281 C2300 1.368 . S
C2281 H2305 0.949 . S
H2282 C2286 0.949 . S
C2283 C2284 1.349 . S
C2283 C2285 1.327 . S
C2283 H2306 0.950 . S
C2284 C2283 1.349 . S
C2284 C2296 1.349 . S
C2285 C2283 1.327 . S
C2285 C2301 1.429 . S
C2285 H2307 0.950 . S
C2286 H2282 0.949 . S
C2286 C2294 1.574 . S
C2286 C2302 1.368 . S
H2287 C2295 0.950 . S
H2288 C2293 0.950 . S
H2289 C2294 0.949 . S
H2290 C2296 0.950 . S
H2291 C2297 0.950 . S
H2292 C2298 0.949 . S
C2293 H2288 0.950 . S
C2293 C2295 1.327 . S
C2293 C2299 1.429 . S
C2294 C2286 1.574 . S
C2294 H2289 0.949 . S
C2294 C2300 1.368 . S
C2295 C2279 1.349 . S
C2295 H2287 0.950 . S
C2295 C2293 1.327 . S
C2296 C2284 1.349 . S
C2296 H2290 0.950 . S
C2296 C2297 1.327 . S
C2297 H2291 0.950 . S
C2297 C2296 1.327 . S
C2297 C2301 1.429 . S
C2298 C2281 1.574 . S
C2298 H2292 0.949 . S
C2298 C2302 1.368 . S
C2299 C2280 1.429 . S
C2299 C2293 1.429 . S
C2299 C2300 1.523 . S
C2300 C2281 1.368 . S
C2300 C2294 1.368 . S
C2300 C2299 1.523 . S
C2301 C2285 1.429 . S
C2301 C2297 1.429 . S
C2301 C2302 1.523 . S
C2302 C2286 1.368 . S
C2302 C2298 1.368 . S
C2302 C2301 1.523 . S
H2303 C2278 0.950 . S
H2304 C2280 0.950 . S
H2305 C2281 0.949 . S
H2306 C2283 0.950 . S
H2307 C2285 0.950 . S
C2308 C2309 1.349 . S
C2308 C2310 1.327 . S
C2308 H2333 0.950 . S
C2309 C2308 1.349 . S
C2309 C2325 1.349 . S
C2310 C2308 1.327 . S
C2310 C2329 1.429 . S
C2310 H2334 0.950 . S
C2311 C2328 1.574 . S
C2311 C2330 1.368 . S
C2311 H2335 0.949 . S
H2312 C2316 0.949 . S
C2313 C2314 1.349 . S
C2313 C2315 1.327 . S
C2313 H2336 0.950 . S
C2314 C2313 1.349 . S
C2314 C2326 1.349 . S
C2315 C2313 1.327 . S
C2315 C2331 1.429 . S
C2315 H2337 0.950 . S
C2316 H2312 0.949 . S
C2316 C2324 1.574 . S
C2316 C2332 1.368 . S
H2317 C2325 0.950 . S
H2318 C2323 0.950 . S
H2319 C2324 0.949 . S
H2320 C2326 0.950 . S
H2321 C2327 0.950 . S
H2322 C2328 0.949 . S
C2323 H2318 0.950 . S
C2323 C2325 1.327 . S
C2323 C2329 1.429 . S
C2324 C2316 1.574 . S
C2324 H2319 0.949 . S
C2324 C2330 1.368 . S
C2325 C2309 1.349 . S
C2325 H2317 0.950 . S
C2325 C2323 1.327 . S
C2326 C2314 1.349 . S
C2326 H2320 0.950 . S
C2326 C2327 1.327 . S
C2327 H2321 0.950 . S
C2327 C2326 1.327 . S
C2327 C2331 1.429 . S
C2328 C2311 1.574 . S
C2328 H2322 0.949 . S
C2328 C2332 1.368 . S
C2329 C2310 1.429 . S
C2329 C2323 1.429 . S
C2329 C2330 1.523 . S
C2330 C2311 1.368 . S
C2330 C2324 1.368 . S
C2330 C2329 1.523 . S
C2331 C2315 1.429 . S
C2331 C2327 1.429 . S
C2331 C2332 1.523 . S
C2332 C2316 1.368 . S
C2332 C2328 1.368 . S
C2332 C2331 1.523 . S
H2333 C2308 0.950 . S
H2334 C2310 0.950 . S
H2335 C2311 0.949 . S
H2336 C2313 0.950 . S
H2337 C2315 0.950 . S
C2338 C2339 1.349 . S
C2338 C2340 1.327 . S
C2338 H2363 0.950 . S
C2339 C2338 1.349 . S
C2339 C2355 1.349 . S
C2340 C2338 1.327 . S
C2340 C2359 1.429 . S
C2340 H2364 0.950 . S
C2341 C2358 1.574 . S
C2341 C2360 1.368 . S
C2341 H2365 0.949 . S
H2342 C2346 0.949 . S
C2343 C2344 1.349 . S
C2343 C2345 1.327 . S
C2343 H2366 0.950 . S
C2344 C2343 1.349 . S
C2344 C2356 1.349 . S
C2345 C2343 1.327 . S
C2345 C2361 1.429 . S
C2345 H2367 0.950 . S
C2346 H2342 0.949 . S
C2346 C2354 1.574 . S
C2346 C2362 1.368 . S
H2347 C2355 0.950 . S
H2348 C2353 0.950 . S
H2349 C2354 0.949 . S
H2350 C2356 0.950 . S
H2351 C2357 0.950 . S
H2352 C2358 0.949 . S
C2353 H2348 0.950 . S
C2353 C2355 1.327 . S
C2353 C2359 1.429 . S
C2354 C2346 1.574 . S
C2354 H2349 0.949 . S
C2354 C2360 1.368 . S
C2355 C2339 1.349 . S
C2355 H2347 0.950 . S
C2355 C2353 1.327 . S
C2356 C2344 1.349 . S
C2356 H2350 0.950 . S
C2356 C2357 1.327 . S
C2357 H2351 0.950 . S
C2357 C2356 1.327 . S
C2357 C2361 1.429 . S
C2358 C2341 1.574 . S
C2358 H2352 0.949 . S
C2358 C2362 1.368 . S
C2359 C2340 1.429 . S
C2359 C2353 1.429 . S
C2359 C2360 1.523 . S
C2360 C2341 1.368 . S
C2360 C2354 1.368 . S
C2360 C2359 1.523 . S
C2361 C2345 1.429 . S
C2361 C2357 1.429 . S
C2361 C2362 1.523 . S
C2362 C2346 1.368 . S
C2362 C2358 1.368 . S
C2362 C2361 1.523 . S
H2363 C2338 0.950 . S
H2364 C2340 0.950 . S
H2365 C2341 0.949 . S
H2366 C2343 0.950 . S
H2367 C2345 0.950 . S
C449 C148 1.327 . S
C454 C8 1.327 . S
C479 C22 1.327 . S
C484 C162 1.327 . S
C509 C36 1.327 . S
C514 C120 1.327 . S
C539 C134 1.327 . S
C544 C50 1.327 . S
C569 C205 1.327 . S
C574 C65 1.327 . S
C599 C79 1.327 . S
C604 C219 1.327 . S
C629 C177 1.327 . S
C634 C93 1.327 . S
C659 C191 1.327 . S
C664 C107 1.327 . S
C689 C372 1.327 . S
C694 C232 1.327 . S
C719 C386 1.327 . S
C724 C246 1.327 . S
C749 C344 1.327 . S
C754 C260 1.327 . S
C779 C274 1.327 . S
C784 C358 1.327 . S
C809 C429 1.327 . S
C814 C289 1.327 . S
C839 C443 1.327 . S
C844 C303 1.327 . S
C869 C317 1.327 . S
C874 C401 1.327 . S
C899 C331 1.327 . S
C904 C415 1.327 . S
C929 C272 1.218 . S
C934 C6 1.218 . S
C959 C20 1.218 . S
C964 C258 1.218 . S
C989 C244 1.218 . S
C994 C34 1.218 . S
C1019 C230 1.218 . S
C1024 C48 1.218 . S
C1049 C63 1.218 . S
C1054 C329 1.218 . S
C1079 C77 1.218 . S
C1084 C315 1.218 . S
C1109 C301 1.218 . S
C1114 C91 1.218 . S
C1139 C105 1.218 . S
C1144 C287 1.218 . S
C1169 C384 1.218 . S
C1174 C118 1.218 . S
C1199 C370 1.218 . S
C1204 C132 1.218 . S
C1229 C356 1.218 . S
C1234 C146 1.218 . S
C1259 C342 1.218 . S
C1264 C160 1.218 . S
C1289 C175 1.218 . S
C1294 C441 1.218 . S
C1319 C427 1.218 . S
C1324 C189 1.218 . S
C1349 C203 1.218 . S
C1354 C413 1.218 . S
C1379 C217 1.218 . S
C1384 C399 1.218 . S
C1409 C174 1.392 . S
C1414 C7 1.392 . S
C1439 C21 1.392 . S
C1444 C300 1.392 . S
C1469 C90 1.392 . S
C1474 C35 1.392 . S
C1499 C440 1.392 . S
C1504 C49 1.392 . S
C1529 C62 1.392 . S
C1534 C119 1.392 . S
C1559 C245 1.392 . S
C1564 C76 1.392 . S
C1589 C385 1.392 . S
C1594 C104 1.392 . S
C1619 C412 1.392 . S
C1624 C133 1.392 . S
C1649 C147 1.392 . S
C1654 C202 1.392 . S
C1679 C328 1.392 . S
C1684 C161 1.392 . S
C1709 C357 1.392 . S
C1714 C188 1.392 . S
C1739 C216 1.392 . S
C1744 C273 1.392 . S
C1769 C231 1.392 . S
C1774 C398 1.392 . S
C1799 C314 1.392 . S
C1804 C259 1.392 . S
C1829 C343 1.392 . S
C1834 C286 1.392 . S
C1859 C371 1.392 . S
C1864 C426 1.392 . S
C1889 C9 0.897 . S
C1894 C51 0.897 1_554 S
C1919 C37 0.897 1_554 S
C1924 C23 0.897 . S
C1949 C64 0.897 . S
C1954 C106 0.897 1_556 S
C1979 C78 0.897 . S
C1984 C92 0.897 1_556 S
C2009 C121 0.897 . S
C2014 C163 0.897 . S
C2039 C135 0.897 . S
C2044 C149 0.897 . S
C2069 C176 0.897 . S
C2074 C218 0.897 . S
C2099 C204 0.897 . S
C2104 C190 0.897 . S
C2129 C275 0.897 . S
C2134 C233 0.897 . S
C2159 C261 0.897 . S
C2164 C247 0.897 . S
C2189 C330 0.897 . S
C2194 C288 0.897 . S
C2219 C316 0.897 . S
C2224 C302 0.897 . S
C2249 C387 0.897 1_554 S
C2254 C345 0.897 . S
C2279 C373 0.897 1_554 S
C2284 C359 0.897 . S
C2309 C400 0.897 . S
C2314 C442 0.897 1_556 S
C2339 C428 0.897 1_556 S
C2344 C414 0.897 . S
