# Generated by pormake.
# Topology umg, (4)-cn, num edge types: 1
# Building blocks:
#     Node 0, Type 0, BuildingBlock: QUQFOY_clean_sbu_3, # of connection points: 4
#     Node 1, Type 0, BuildingBlock: QUQFOY_clean_sbu_3, # of connection points: 4
#     Node 2, Type 0, BuildingBlock: QUQFOY_clean_sbu_3, # of connection points: 4
#     Node 3, Type 0, BuildingBlock: QUQFOY_clean_sbu_3, # of connection points: 4
#     Node 4, Type 0, BuildingBlock: QUQFOY_clean_sbu_3, # of connection points: 4
#     Node 5, Type 0, BuildingBlock: QUQFOY_clean_sbu_3, # of connection points: 4
#     Node 6, Type 0, BuildingBlock: QUQFOY_clean_sbu_3, # of connection points: 4
#     Node 7, Type 0, BuildingBlock: QUQFOY_clean_sbu_3, # of connection points: 4
#     Node 8, Type 0, BuildingBlock: QUQFOY_clean_sbu_3, # of connection points: 4
#     Node 9, Type 0, BuildingBlock: QUQFOY_clean_sbu_3, # of connection points: 4
#     Node 10, Type 0, BuildingBlock: QUQFOY_clean_sbu_3, # of connection points: 4
#     Node 11, Type 0, BuildingBlock: QUQFOY_clean_sbu_3, # of connection points: 4
#     Edge 12, Type (0, 0), BuildingBlock: AJUNOK_clean_linker_0, # of connection points: 2
#     Edge 13, Type (0, 0), BuildingBlock: AJUNOK_clean_linker_0, # of connection points: 2
#     Edge 14, Type (0, 0), BuildingBlock: AJUNOK_clean_linker_0, # of connection points: 2
#     Edge 15, Type (0, 0), BuildingBlock: AJUNOK_clean_linker_0, # of connection points: 2
#     Edge 16, Type (0, 0), BuildingBlock: AJUNOK_clean_linker_0, # of connection points: 2
#     Edge 17, Type (0, 0), BuildingBlock: AJUNOK_clean_linker_0, # of connection points: 2
#     Edge 18, Type (0, 0), BuildingBlock: AJUNOK_clean_linker_0, # of connection points: 2
#     Edge 19, Type (0, 0), BuildingBlock: AJUNOK_clean_linker_0, # of connection points: 2
#     Edge 20, Type (0, 0), BuildingBlock: AJUNOK_clean_linker_0, # of connection points: 2
#     Edge 21, Type (0, 0), BuildingBlock: AJUNOK_clean_linker_0, # of connection points: 2
#     Edge 22, Type (0, 0), BuildingBlock: AJUNOK_clean_linker_0, # of connection points: 2
#     Edge 23, Type (0, 0), BuildingBlock: AJUNOK_clean_linker_0, # of connection points: 2
#     Edge 24, Type (0, 0), BuildingBlock: AJUNOK_clean_linker_0, # of connection points: 2
#     Edge 25, Type (0, 0), BuildingBlock: AJUNOK_clean_linker_0, # of connection points: 2
#     Edge 26, Type (0, 0), BuildingBlock: AJUNOK_clean_linker_0, # of connection points: 2
#     Edge 27, Type (0, 0), BuildingBlock: AJUNOK_clean_linker_0, # of connection points: 2
#     Edge 28, Type (0, 0), BuildingBlock: AJUNOK_clean_linker_0, # of connection points: 2
#     Edge 29, Type (0, 0), BuildingBlock: AJUNOK_clean_linker_0, # of connection points: 2
#     Edge 30, Type (0, 0), BuildingBlock: AJUNOK_clean_linker_0, # of connection points: 2
#     Edge 31, Type (0, 0), BuildingBlock: AJUNOK_clean_linker_0, # of connection points: 2
#     Edge 32, Type (0, 0), BuildingBlock: AJUNOK_clean_linker_0, # of connection points: 2
#     Edge 33, Type (0, 0), BuildingBlock: AJUNOK_clean_linker_0, # of connection points: 2
#     Edge 34, Type (0, 0), BuildingBlock: AJUNOK_clean_linker_0, # of connection points: 2
#     Edge 35, Type (0, 0), BuildingBlock: AJUNOK_clean_linker_0, # of connection points: 2
# Relax obj value: 0.087
# Max RMSD: 0.350
# Mean RMSD: 0.213
data_MOF--net-umg--node1-QUQFOY_clean_sbu_3--edge1-AJUNOK_clean_linker_0
_symmetry_space_group_name_H-M    P1
_symmetry_Int_Tables_number       1
_symmetry_cell_setting            triclinic
loop_
_symmetry_equiv_pos_as_xyz
'x, y, z'
_cell_length_a     21.988453
_cell_length_b     21.924442
_cell_length_c     60.56172
_cell_angle_alpha  90.391367
_cell_angle_beta   89.737601
_cell_angle_gamma 119.8805
loop_
_atom_site_label
_atom_site_type_symbol
_atom_site_fract_x
_atom_site_fract_y
_atom_site_fract_z
_atom_type_partial_charge
C0 C 0.30533 0.49321 0.13254 0.0
O1 O 0.29074 0.54165 0.12943 0.0
Cd2 Cd 0.27157 0.57098 0.09283 0.0
O3 O 0.30937 0.45806 0.11653 0.0
Cd4 Cd 0.29912 0.45241 0.07672 0.0
C5 C 0.1309 0.41375 0.07794 0.0
O6 O 0.36352 0.5804 0.06891 0.0
O7 O 0.31802 0.50722 0.04149 0.0
O8 O 0.39051 0.42899 0.08658 0.0
C9 C 0.35495 0.57006 0.04823 0.0
O10 O 0.1555 0.47866 0.08222 0.0
C11 C 0.37575 0.38109 0.07236 0.0
O12 O 0.17058 0.38712 0.07614 0.0
O13 O 0.32455 0.36554 0.05945 0.0
C14 C 0.44783 0.33185 0.42455 0.0
O15 O 0.40081 0.34124 0.41602 0.0
Cd16 Cd 0.40831 0.29253 0.37801 0.0
O17 O 0.48157 0.31545 0.41159 0.0
Cd18 Cd 0.53683 0.28676 0.38563 0.0
C19 C 0.40134 0.13971 0.39716 0.0
O20 O 0.51012 0.32619 0.35153 0.0
O21 O 0.50001 0.22235 0.35273 0.0
O22 O 0.63572 0.39782 0.3959 0.0
C23 C 0.5109 0.27511 0.34135 0.0
O24 O 0.372 0.16951 0.38728 0.0
C25 C 0.68117 0.37894 0.39332 0.0
O26 O 0.4664 0.17315 0.40197 0.0
O27 O 0.65969 0.31534 0.38762 0.0
C28 C 0.48637 0.81426 0.79653 0.0
O29 O 0.43195 0.75514 0.79308 0.0
Cd30 Cd 0.4039 0.70401 0.75669 0.0
O31 O 0.52482 0.85091 0.78077 0.0
Cd32 Cd 0.52716 0.85089 0.74093 0.0
C33 C 0.56382 0.72003 0.74397 0.0
O34 O 0.402 0.78464 0.73038 0.0
O35 O 0.48119 0.80698 0.70547 0.0
O36 O 0.53703 0.96214 0.74901 0.0
C37 C 0.4168 0.78042 0.71029 0.0
O38 O 0.49946 0.68145 0.74905 0.0
C39 C 0.59075 -0.00141 0.7372 0.0
O40 O 0.59036 0.78573 0.74051 0.0
O41 O 0.61559 0.96597 0.72631 0.0
C42 C 0.64435 0.10363 0.0911 0.0
O43 O 0.64623 0.05296 0.08175 0.0
Cd44 Cd 0.68825 0.11478 0.04376 0.0
O45 O 0.6539 0.15287 0.07879 0.0
Cd46 Cd 0.67106 0.24076 0.05648 0.0
C47 C 0.83287 0.26193 0.06255 0.0
O48 O 0.657 0.18901 0.01872 0.0
O49 O 0.71921 0.3019 0.02651 0.0
O50 O 0.55261 0.21722 0.06103 0.0
C51 C 0.69749 0.25289 0.01231 0.0
O52 O 0.80766 0.20291 0.05264 0.0
C53 C 0.5703 0.27879 0.06777 0.0
O54 O 0.79439 0.28809 0.06819 0.0
O55 O 0.63544 0.32265 0.07011 0.0
C56 C 0.15709 0.66327 0.46075 0.0
O57 O 0.21365 0.66302 0.45679 0.0
Cd58 Cd 0.26638 0.69387 0.4208 0.0
O59 O 0.12255 0.67102 0.44541 0.0
Cd60 Cd 0.12029 0.67314 0.40512 0.0
C61 C 0.25046 0.83973 0.40934 0.0
O62 O 0.18417 0.61162 0.39485 0.0
O63 O 0.16265 0.66574 0.369 0.0
O64 O 0.00813 0.57479 0.41445 0.0
C65 C 0.18783 0.62714 0.37452 0.0
O66 O 0.28834 0.8132 0.4146 0.0
C67 C 0.97281 0.58958 0.40131 0.0
O68 O 0.18535 0.80131 0.40514 0.0
O69 O 0.00581 0.64462 0.38959 0.0
C70 C 0.87359 0.53301 0.75847 0.0
O71 O 0.91427 0.57726 0.74444 0.0
Cd72 Cd 0.85694 0.56545 0.7085 0.0
O73 O 0.81368 0.48527 0.75269 0.0
Cd74 Cd 0.74174 0.43993 0.72166 0.0
C75 C 0.71887 0.57483 0.72932 0.0
O76 O 0.79061 0.4623 0.68429 0.0
O77 O 0.69151 0.45967 0.69078 0.0
O78 O 0.74914 0.33495 0.72047 0.0
C79 C 0.73237 0.45427 0.67706 0.0
O80 O 0.77463 0.6048 0.71776 0.0
C81 C 0.688 0.29487 0.72792 0.0
O82 O 0.69397 0.51151 0.73571 0.0
O83 O 0.64991 0.32203 0.73252 0.0
C84 C 0.10768 0.64831 0.55277 0.0
O85 O 0.06267 0.60615 0.56637 0.0
Cd86 Cd 0.11798 0.67584 0.60006 0.0
O87 O 0.16868 0.6906 0.55957 0.0
Cd88 Cd 0.22371 0.68262 0.59285 0.0
C89 C 0.25571 0.8347 0.58357 0.0
O90 O 0.17336 0.64697 0.63015 0.0
O91 O 0.25756 0.75358 0.62521 0.0
O92 O 0.21092 0.56828 0.58406 0.0
C93 C 0.22419 0.70288 0.63834 0.0
O94 O 0.19212 0.8022 0.59013 0.0
C95 C 0.27576 0.58805 0.58549 0.0
O96 O 0.29038 0.80266 0.58179 0.0
O97 O 0.31759 0.65308 0.58933 0.0
C98 C 0.80337 0.49273 0.84841 0.0
O99 O 0.74948 0.43313 0.85156 0.0
Cd100 Cd 0.69394 0.40722 0.88719 0.0
O101 O 0.83415 0.53419 0.86438 0.0
Cd102 Cd 0.83058 0.52736 0.90449 0.0
C103 C 0.69926 0.56145 0.9033 0.0
O104 O 0.77048 0.39922 0.9133 0.0
O105 O 0.78233 0.47319 0.9392 0.0
O106 O 0.94369 0.53742 0.89932 0.0
C107 C 0.7644 0.41062 0.93354 0.0
O108 O 0.66444 0.49758 0.89699 0.0
C109 C 0.97919 0.59429 0.90999 0.0
O110 O 0.76492 0.59005 0.90686 0.0
O111 O 0.94507 0.62089 0.91893 0.0
C112 C 0.33781 0.4536 0.22344 0.0
O113 O 0.33983 0.40786 0.23553 0.0
Cd114 Cd 0.28453 0.40183 0.27151 0.0
O115 O 0.32377 0.49769 0.23192 0.0
Cd116 Cd 0.30418 0.54426 0.26454 0.0
C117 C 0.14166 0.40856 0.25475 0.0
O118 O 0.27847 0.48012 0.29929 0.0
O119 O 0.37161 0.58094 0.2989 0.0
O120 O 0.405 0.64433 0.25014 0.0
C121 C 0.32108 0.5345 0.30996 0.0
O122 O 0.16964 0.3707 0.2582 0.0
C123 C 0.38224 0.68696 0.25291 0.0
O124 O 0.17704 0.47555 0.25697 0.0
O125 O 0.31954 0.66178 0.26016 0.0
C126 C 0.49069 0.30861 0.51831 0.0
O127 O 0.54081 0.29988 0.5246 0.0
Cd128 Cd 0.56369 0.27817 0.56144 0.0
O129 O 0.44814 0.30953 0.53234 0.0
Cd130 Cd 0.43644 0.30286 0.57261 0.0
C131 C 0.40284 0.13525 0.57245 0.0
O132 O 0.55906 0.36245 0.58489 0.0
O133 O 0.48042 0.30124 0.6093 0.0
O134 O 0.43296 0.41023 0.57014 0.0
C135 C 0.54458 0.34242 0.60476 0.0
O136 O 0.46895 0.16178 0.57084 0.0
C137 C 0.37167 0.38627 0.57786 0.0
O138 O 0.374 0.17329 0.5717 0.0
O139 O 0.33865 0.32198 0.58363 0.0
C140 C 0.52321 0.86933 0.8879 0.0
O141 O 0.55659 0.91749 0.902 0.0
Cd142 Cd 0.54944 0.86198 0.93819 0.0
O143 O 0.47911 0.80843 0.89422 0.0
Cd144 Cd 0.42288 0.75026 0.92687 0.0
C145 C 0.55572 0.72057 0.9195 0.0
O146 O 0.45485 0.79594 0.96509 0.0
O147 O 0.42625 0.68769 0.95607 0.0
O148 O 0.32326 0.76831 0.92419 0.0
C149 C 0.44112 0.73406 0.97094 0.0
O150 O 0.58981 0.78003 0.92914 0.0
C151 C 0.2799 0.70527 0.91862 0.0
O152 O 0.49105 0.69572 0.91479 0.0
O153 O 0.30375 0.66313 0.91652 0.0
C154 C 0.66928 0.17213 0.18487 0.0
O155 O 0.67778 0.23171 0.19059 0.0
Cd156 Cd 0.69855 0.28243 0.2267 0.0
O157 O 0.66866 0.1303 0.19935 0.0
Cd158 Cd 0.67306 0.13148 0.23993 0.0
C159 C 0.8408 0.26585 0.24023 0.0
O160 O 0.6142 0.19695 0.25039 0.0
O161 O 0.67233 0.18079 0.27617 0.0
O162 O 0.56196 0.02577 0.23851 0.0
C163 C 0.632 0.20398 0.27053 0.0
O164 O 0.81396 0.3047 0.2369 0.0
C165 C 0.58249 0.98473 0.24545 0.0
O166 O 0.80266 0.19888 0.24069 0.0
O167 O 0.64725 0.0116 0.25026 0.0
C168 C 0.45651 0.65904 -0.00252 0.0
C169 C 0.43869 0.7116 -0.00608 0.0
C170 C 0.43312 0.61653 0.01612 0.0
C171 C 0.39284 0.62635 0.03219 0.0
H172 H 0.48375 0.6466 0.98483 0.0
H173 H 0.44315 0.573 0.01732 0.0
S174 S 0.34195 0.76386 0.03273 0.0
N175 N 0.3852 0.77649 0.00924 0.0
N176 N 0.34321 0.69743 0.04505 0.0
C177 C 0.38092 0.68332 0.03014 0.0
C178 C 0.40379 0.72619 0.0108 0.0
C179 C 0.61569 0.28476 0.32394 0.0
C180 C 0.5522 0.2849 0.32124 0.0
C181 C 0.64283 0.26139 0.30709 0.0
C182 C 0.60835 0.23886 0.28668 0.0
H183 H 0.64076 0.29597 0.33999 0.0
H184 H 0.68921 0.25767 0.31051 0.0
S185 S 0.44807 0.2427 0.26995 0.0
N186 N 0.46045 0.26931 0.29597 0.0
N187 N 0.51318 0.22852 0.2636 0.0
C188 C 0.54906 0.24621 0.28296 0.0
C189 C 0.52061 0.26868 0.30041 0.0
C190 C 0.29271 0.73137 0.69671 0.0
C191 C 0.36264 0.7478 0.69289 0.0
C192 C 0.24388 0.70955 0.67928 0.0
C193 C 0.26363 0.70242 0.65777 0.0
H194 H 0.27671 0.73918 0.71293 0.0
H195 H 0.19231 0.70277 0.68235 0.0
S196 S 0.43817 0.73467 0.63931 0.0
N197 N 0.44706 0.75128 0.66602 0.0
N198 N 0.35561 0.70955 0.6338 0.0
C199 C 0.3317 0.71401 0.65416 0.0
C200 C 0.38123 0.73698 0.67158 0.0
C201 C 0.67252 0.25329 0.97163 0.0
C202 C 0.72005 0.27564 -0.01061 0.0
C203 C 0.689 0.29436 0.95229 0.0
C204 C 0.75245 0.3588 0.95069 0.0
H205 H 0.62066 0.20783 0.97339 0.0
H206 H 0.64994 0.27869 0.9394 0.0
S207 S 0.89595 0.43613 -0.00841 0.0
N208 N 0.83594 0.36183 0.00274 0.0
N209 N 0.86426 0.43949 0.96732 0.0
C210 C 0.80178 0.37826 0.96755 0.0
C211 C 0.78631 0.3362 -0.01337 0.0
C212 C 0.29923 0.55579 0.3493 0.0
C213 C 0.28943 0.55958 0.3266 0.0
C214 C 0.26558 0.57715 0.36481 0.0
C215 C 0.22154 0.60322 0.35803 0.0
H216 H 0.33255 0.53587 0.35507 0.0
H217 H 0.27458 0.57371 0.38221 0.0
S218 S 0.17716 0.6202 0.30011 0.0
N219 N 0.23123 0.58869 0.29799 0.0
N220 N 0.1689 0.62948 0.32684 0.0
C221 C 0.21133 0.60672 0.33526 0.0
C222 C 0.24507 0.58469 0.31962 0.0
C223 C 0.71366 0.45318 0.63652 0.0
C224 C 0.69969 0.41677 0.65653 0.0
C225 C 0.66481 0.42644 0.61915 0.0
C226 C 0.60004 0.36373 0.62164 0.0
H227 H 0.75963 0.50482 0.6349 0.0
H228 H 0.67573 0.45752 0.60431 0.0
S229 S 0.54413 0.24517 0.67014 0.0
N230 N 0.62167 0.31148 0.67701 0.0
N231 N 0.52882 0.26243 0.64493 0.0
C232 C 0.5883 0.32463 0.64106 0.0
C233 C 0.63861 0.35087 0.65835 0.0
C234 C 0.26372 0.42988 0.191 0.0
C235 C 0.32955 0.44552 0.19944 0.0
C236 C 0.25623 0.44472 0.16914 0.0
C237 C 0.31409 0.47447 0.15494 0.0
H238 H 0.21858 0.41062 0.20187 0.0
H239 H 0.20532 0.43461 0.16348 0.0
S240 S 0.49602 0.51937 0.16815 0.0
N241 N 0.45275 0.48916 0.19162 0.0
N242 N 0.43785 0.51382 0.14986 0.0
C243 C 0.37915 0.48586 0.16259 0.0
C244 C 0.38715 0.4721 0.18508 0.0
C245 C 0.41847 0.33813 0.46463 0.0
C246 C 0.46195 0.33288 0.44857 0.0
C247 C 0.42831 0.33086 0.48722 0.0
C248 C 0.48172 0.31775 0.49449 0.0
H249 H 0.37575 0.3463 0.45974 0.0
H250 H 0.39319 0.33471 0.49902 0.0
S251 S 0.61035 0.30002 0.45901 0.0
N252 N 0.562 0.31546 0.44176 0.0
N253 N 0.57848 0.30005 0.48366 0.0
C254 C 0.52584 0.31315 0.47857 0.0
C255 C 0.51654 0.32127 0.45578 0.0
C256 C 0.53781 0.80939 0.83206 0.0
C257 C 0.50771 0.83979 0.81905 0.0
C258 C 0.55301 0.82833 0.85425 0.0
C259 C 0.53739 0.87727 0.86415 0.0
H260 H 0.54695 0.76874 0.8253 0.0
H261 H 0.57125 0.7998 0.86425 0.0
S262 S 0.46638 0.97758 0.83593 0.0
N263 N 0.47053 0.92676 0.81639 0.0
N264 N 0.49629 0.96033 0.85868 0.0
C265 C 0.51229 0.91188 0.85081 0.0
C266 C 0.49783 0.89333 0.82804 0.0
C267 C 0.65363 0.07361 0.13085 0.0
C268 C 0.64056 0.11318 0.11534 0.0
C269 C 0.66173 0.09189 0.15347 0.0
C270 C 0.65785 0.15079 0.16124 0.0
H271 H 0.6602 0.03006 0.12543 0.0
H272 H 0.67308 0.06088 0.1648 0.0
S273 S 0.6216 0.26971 0.12757 0.0
N274 N 0.62009 0.21171 0.10983 0.0
N275 N 0.63748 0.2465 0.15167 0.0
C276 C 0.64287 0.18924 0.14596 0.0
C277 C 0.63353 0.17023 0.12323 0.0
C278 C 0.12539 0.71043 0.51769 0.0
C279 C 0.09672 0.64576 0.52886 0.0
C280 C 0.14209 0.71522 0.49524 0.0
C281 C 0.13117 0.65552 0.4834 0.0
H282 H 0.13989 0.75853 0.52677 0.0
H283 H 0.16729 0.7664 0.48743 0.0
S284 S 0.04872 0.47289 0.50398 0.0
N285 N 0.05104 0.51984 0.52578 0.0
N286 N 0.08313 0.52906 0.48337 0.0
C287 C 0.0977 0.58985 0.49381 0.0
C288 C 0.07986 0.5848 0.51665 0.0
C289 C 0.86012 0.47309 0.81585 0.0
C290 C 0.83416 0.51267 0.82635 0.0
C291 C 0.88513 0.48794 0.79412 0.0
C292 C 0.88464 0.54262 0.78229 0.0
H293 H 0.85845 0.42868 0.82417 0.0
H294 H 0.89884 0.45243 0.78586 0.0
S295 S 0.82208 0.6615 0.80282 0.0
N296 N 0.8115 0.60996 0.82399 0.0
N297 N 0.85704 0.63702 0.78287 0.0
C298 C 0.86247 0.58503 0.79317 0.0
C299 C 0.83723 0.57004 0.8153 0.0
C300 C 0.9359 0.29959 0.08726 0.0
C301 C 0.90875 0.30121 0.06647 0.0
C302 C 0.00867 0.33402 0.0908 0.0
C303 C 0.05569 0.3708 0.07361 0.0
H304 H 0.90076 0.27136 0.10077 0.0
H305 H 0.02825 0.33293 0.10709 0.0
S306 S 0.01099 0.38697 0.01601 0.0
N307 N 0.93436 0.33876 0.02828 0.0
N308 N 0.07092 0.40555 0.03519 0.0
C309 C 0.02918 0.3717 0.05275 0.0
C310 C 0.95553 0.33612 0.04908 0.0
C311 C 0.32783 0.01834 0.38311 0.0
C312 C 0.36045 0.0639 0.40107 0.0
C313 C 0.2903 0.94538 0.38604 0.0
C314 C 0.28418 0.9162 0.40704 0.0
H315 H 0.33284 0.03924 0.36661 0.0
H316 H 0.26757 0.91157 0.37175 0.0
S317 S 0.3535 0.01343 0.45961 0.0
N318 N 0.38032 0.07552 0.44066 0.0
N319 N 0.30944 0.93779 0.44623 0.0
C320 C 0.31499 0.96123 0.4252 0.0
C321 C 0.35333 0.03548 0.4222 0.0
C322 C 0.68304 0.66142 0.71847 0.0
C323 C 0.68139 0.61333 0.73409 0.0
C324 C 0.6465 0.69765 0.7221 0.0
C325 C 0.60705 0.68671 0.74141 0.0
H326 H 0.71146 0.66993 0.70309 0.0
H327 H 0.64734 0.73272 0.70942 0.0
S328 S 0.59259 0.5733 0.78854 0.0
N329 N 0.64198 0.5613 0.77036 0.0
N330 N 0.57242 0.62907 0.77706 0.0
C331 C 0.60643 0.64037 0.75742 0.0
C332 C 0.64385 0.60366 0.75378 0.0
C333 C 0.37107 0.02853 0.59433 0.0
C334 C 0.36024 0.05901 0.57552 0.0
C335 C 0.3366 0.9554 0.59677 0.0
C336 C 0.29095 0.91083 0.58037 0.0
H337 H 0.40687 0.0615 0.60713 0.0
H338 H 0.34585 0.93351 0.61153 0.0
S339 S 0.24923 0.96444 0.52733 0.0
N340 N 0.30334 0.03945 0.53982 0.0
N341 N 0.23842 0.90135 0.54444 0.0
C342 C 0.27984 0.94044 0.56146 0.0
C343 C 0.31468 0.01496 0.55901 0.0
C344 C 0.65991 0.70357 0.92257 0.0
C345 C 0.59159 0.67988 0.91454 0.0
C346 C 0.69461 0.66551 0.9187 0.0
C347 C 0.66239 0.60203 0.90667 0.0
H348 H 0.68684 0.75167 0.93218 0.0
H349 H 0.74672 0.68563 0.92546 0.0
S350 S 0.48522 0.51838 0.88119 0.0
N351 N 0.49392 0.58977 0.89341 0.0
N352 N 0.55885 0.51824 0.88614 0.0
C353 C 0.59439 0.57808 0.89833 0.0
C354 C 0.55912 0.61694 0.90225 0.0
C355 C 0.02659 0.40547 0.25475 0.0
C356 C 0.06597 0.37289 0.24952 0.0
C357 C 0.9538 0.37003 0.25177 0.0
C358 C 0.91755 0.30063 0.24349 0.0
H359 H 0.05181 0.45808 0.26171 0.0
H360 H 0.92557 0.39702 0.25633 0.0
S361 S -0.00254 0.19471 0.22501 0.0
N362 N 0.0642 0.26918 0.23403 0.0
N363 N 0.92716 0.20249 0.22868 0.0
C364 C 0.95646 0.26802 0.23769 0.0
C365 C 0.03071 0.30424 0.24059 0.0
C366 C 0.50442 0.32973 0.05052 0.0
C367 C 0.51802 0.30121 0.06929 0.0
C368 C 0.45491 0.35212 0.05121 0.0
C369 C 0.41873 0.34751 0.07082 0.0
H370 H 0.53279 0.33534 0.03529 0.0
H371 H 0.44697 0.37569 0.03664 0.0
S372 S 0.43182 0.27197 0.1239 0.0
N373 N 0.4878 0.26445 0.10739 0.0
N374 N 0.39707 0.30989 0.10908 0.0
C375 C 0.43086 0.31778 0.08955 0.0
C376 C 0.48004 0.29361 0.08869 0.0
C377 C 0.78071 0.47338 0.41446 0.0
C378 C 0.75593 0.43103 0.39541 0.0
C379 C 0.85122 0.52629 0.41617 0.0
C380 C 0.89781 0.54016 0.39848 0.0
H381 H 0.74562 0.46481 0.4282 0.0
H382 H 0.86944 0.55643 0.43135 0.0
S383 S 0.85768 0.4465 0.3448 0.0
N384 N 0.78278 0.407 0.35854 0.0
N385 N 0.91465 0.50875 0.36139 0.0
C386 C 0.87321 0.49943 0.37922 0.0
C387 C 0.80224 0.44416 0.37776 0.0
C388 C 0.67051 0.18137 0.71332 0.0
C389 C 0.66314 0.21978 0.73078 0.0
C390 C 0.64909 0.10996 0.71569 0.0
C391 C 0.62009 0.07514 0.73566 0.0
H392 H 0.69191 0.20649 0.69761 0.0
H393 H 0.65346 0.08148 0.70166 0.0
S394 S 0.60112 0.15588 0.7874 0.0
N395 N 0.63219 0.22049 0.76926 0.0
N396 N 0.59254 0.08624 0.77394 0.0
C397 C 0.61545 0.11396 0.75354 0.0
C398 C 0.63675 0.18643 0.75104 0.0
C399 C 0.26849 0.47984 0.56874 0.0
C400 C 0.30037 0.53651 0.58376 0.0
C401 C 0.28995 0.4293 0.5673 0.0
C402 C 0.34318 0.43361 0.58106 0.0
H403 H 0.22757 0.47525 0.55779 0.0
H404 H 0.26601 0.38772 0.55506 0.0
S405 S 0.43797 0.56648 0.62458 0.0
N406 N 0.38449 0.59043 0.61358 0.0
N407 N 0.42444 0.49555 0.61083 0.0
C408 C 0.37415 0.48867 0.59642 0.0
C409 C 0.35281 0.54017 0.5978 0.0
C410 C 0.16116 0.61646 0.90497 0.0
C411 C 0.20441 0.68108 0.91554 0.0
C412 C 0.08887 0.58985 0.90304 0.0
C413 C 0.05649 0.62635 0.91179 0.0
H414 H 0.18316 0.58571 0.89824 0.0
H415 H 0.05807 0.53949 0.89487 0.0
S416 S 0.14699 0.79995 0.94007 0.0
N417 N 0.21029 0.78281 0.93405 0.0
N418 N 0.07405 0.73226 0.93063 0.0
C419 C 0.09933 0.69197 0.92195 0.0
C420 C 0.17333 0.71948 0.92374 0.0
C421 C 0.49656 0.78687 0.23996 0.0
C422 C 0.43017 0.76328 0.24976 0.0
C423 C 0.54671 0.85865 0.23908 0.0
C424 C 0.53179 0.90926 0.24772 0.0
H425 H 0.51042 0.74958 0.23315 0.0
H426 H 0.5969 0.87465 0.23132 0.0
S427 S 0.36733 0.87625 0.27524 0.0
N428 N 0.35322 0.79719 0.26843 0.0
N429 N 0.4471 0.93202 0.26634 0.0
C430 C 0.46563 0.88682 0.2572 0.0
C431 C 0.41481 0.81385 0.25829 0.0
loop_
_geom_bond_atom_site_label_1
_geom_bond_atom_site_label_2
_geom_bond_distance
_geom_bond_site_symmetry_2
_ccdc_geom_bond_type
C0 O1 1.306 . S
C0 O3 1.160 . S
O1 C0 1.306 . S
O1 Cd2 2.228 . S
Cd2 O1 2.228 . S
Cd2 O6 2.273 . S
Cd2 O10 2.277 . S
O3 C0 1.160 . S
O3 Cd4 2.203 . S
Cd4 O3 2.203 . S
Cd4 O6 2.411 . S
Cd4 O7 2.333 . S
Cd4 O8 2.352 . S
Cd4 O12 2.277 . S
Cd4 O13 2.356 . S
C5 O10 1.209 . S
C5 O12 1.226 . S
O6 Cd2 2.273 . S
O6 Cd4 2.411 . S
O6 C9 1.320 . S
O7 Cd4 2.333 . S
O7 C9 1.214 . S
O8 Cd4 2.352 . S
O8 C11 1.258 . S
C9 O6 1.320 . S
C9 O7 1.214 . S
O10 Cd2 2.277 . S
O10 C5 1.209 . S
C11 O8 1.258 . S
C11 O13 1.282 . S
O12 Cd4 2.277 . S
O12 C5 1.226 . S
O13 Cd4 2.356 . S
O13 C11 1.282 . S
C14 O15 1.306 . S
C14 O17 1.160 . S
O15 C14 1.306 . S
O15 Cd16 2.228 . S
Cd16 O15 2.228 . S
Cd16 O20 2.273 . S
Cd16 O24 2.277 . S
O17 C14 1.160 . S
O17 Cd18 2.203 . S
Cd18 O17 2.203 . S
Cd18 O20 2.411 . S
Cd18 O21 2.333 . S
Cd18 O22 2.352 . S
Cd18 O26 2.277 . S
Cd18 O27 2.356 . S
C19 O24 1.209 . S
C19 O26 1.226 . S
O20 Cd16 2.273 . S
O20 Cd18 2.411 . S
O20 C23 1.320 . S
O21 Cd18 2.333 . S
O21 C23 1.214 . S
O22 Cd18 2.352 . S
O22 C25 1.258 . S
C23 O20 1.320 . S
C23 O21 1.214 . S
O24 Cd16 2.277 . S
O24 C19 1.209 . S
C25 O22 1.258 . S
C25 O27 1.282 . S
O26 Cd18 2.277 . S
O26 C19 1.226 . S
O27 Cd18 2.356 . S
O27 C25 1.282 . S
C28 O29 1.306 . S
C28 O31 1.160 . S
O29 C28 1.306 . S
O29 Cd30 2.228 . S
Cd30 O29 2.228 . S
Cd30 O34 2.273 . S
Cd30 O38 2.277 . S
O31 C28 1.160 . S
O31 Cd32 2.203 . S
Cd32 O31 2.203 . S
Cd32 O34 2.411 . S
Cd32 O35 2.333 . S
Cd32 O36 2.352 . S
Cd32 O40 2.277 . S
Cd32 O41 2.356 . S
C33 O38 1.209 . S
C33 O40 1.226 . S
O34 Cd30 2.273 . S
O34 Cd32 2.411 . S
O34 C37 1.320 . S
O35 Cd32 2.333 . S
O35 C37 1.214 . S
O36 Cd32 2.352 . S
O36 C39 1.258 1_565 S
C37 O34 1.320 . S
C37 O35 1.214 . S
O38 Cd30 2.277 . S
O38 C33 1.209 . S
C39 O36 1.258 1_545 S
C39 O41 1.282 1_545 S
O40 Cd32 2.277 . S
O40 C33 1.226 . S
O41 Cd32 2.356 . S
O41 C39 1.282 1_565 S
C42 O43 1.306 . S
C42 O45 1.160 . S
O43 C42 1.306 . S
O43 Cd44 2.228 . S
Cd44 O43 2.228 . S
Cd44 O48 2.273 . S
Cd44 O52 2.277 . S
O45 C42 1.160 . S
O45 Cd46 2.203 . S
Cd46 O45 2.203 . S
Cd46 O48 2.411 . S
Cd46 O49 2.333 . S
Cd46 O50 2.352 . S
Cd46 O54 2.277 . S
Cd46 O55 2.356 . S
C47 O52 1.209 . S
C47 O54 1.226 . S
O48 Cd44 2.273 . S
O48 Cd46 2.411 . S
O48 C51 1.320 . S
O49 Cd46 2.333 . S
O49 C51 1.214 . S
O50 Cd46 2.352 . S
O50 C53 1.258 . S
C51 O48 1.320 . S
C51 O49 1.214 . S
O52 Cd44 2.277 . S
O52 C47 1.209 . S
C53 O50 1.258 . S
C53 O55 1.282 . S
O54 Cd46 2.277 . S
O54 C47 1.226 . S
O55 Cd46 2.356 . S
O55 C53 1.282 . S
C56 O57 1.306 . S
C56 O59 1.160 . S
O57 C56 1.306 . S
O57 Cd58 2.228 . S
Cd58 O57 2.228 . S
Cd58 O62 2.273 . S
Cd58 O66 2.277 . S
O59 C56 1.160 . S
O59 Cd60 2.203 . S
Cd60 O59 2.203 . S
Cd60 O62 2.411 . S
Cd60 O63 2.333 . S
Cd60 O64 2.352 . S
Cd60 O68 2.277 . S
Cd60 O69 2.356 . S
C61 O66 1.209 . S
C61 O68 1.226 . S
O62 Cd58 2.273 . S
O62 Cd60 2.411 . S
O62 C65 1.320 . S
O63 Cd60 2.333 . S
O63 C65 1.214 . S
O64 Cd60 2.352 . S
O64 C67 1.258 1_455 S
C65 O62 1.320 . S
C65 O63 1.214 . S
O66 Cd58 2.277 . S
O66 C61 1.209 . S
C67 O64 1.258 1_655 S
C67 O69 1.282 1_655 S
O68 Cd60 2.277 . S
O68 C61 1.226 . S
O69 Cd60 2.356 . S
O69 C67 1.282 1_455 S
C70 O71 1.306 . S
C70 O73 1.160 . S
O71 C70 1.306 . S
O71 Cd72 2.228 . S
Cd72 O71 2.228 . S
Cd72 O76 2.273 . S
Cd72 O80 2.277 . S
O73 C70 1.160 . S
O73 Cd74 2.203 . S
Cd74 O73 2.203 . S
Cd74 O76 2.411 . S
Cd74 O77 2.333 . S
Cd74 O78 2.352 . S
Cd74 O82 2.277 . S
Cd74 O83 2.356 . S
C75 O80 1.209 . S
C75 O82 1.226 . S
O76 Cd72 2.273 . S
O76 Cd74 2.411 . S
O76 C79 1.320 . S
O77 Cd74 2.333 . S
O77 C79 1.214 . S
O78 Cd74 2.352 . S
O78 C81 1.258 . S
C79 O76 1.320 . S
C79 O77 1.214 . S
O80 Cd72 2.277 . S
O80 C75 1.209 . S
C81 O78 1.258 . S
C81 O83 1.282 . S
O82 Cd74 2.277 . S
O82 C75 1.226 . S
O83 Cd74 2.356 . S
O83 C81 1.282 . S
C84 O85 1.306 . S
C84 O87 1.160 . S
O85 C84 1.306 . S
O85 Cd86 2.228 . S
Cd86 O85 2.228 . S
Cd86 O90 2.273 . S
Cd86 O94 2.277 . S
O87 C84 1.160 . S
O87 Cd88 2.203 . S
Cd88 O87 2.203 . S
Cd88 O90 2.411 . S
Cd88 O91 2.333 . S
Cd88 O92 2.352 . S
Cd88 O96 2.277 . S
Cd88 O97 2.356 . S
C89 O94 1.209 . S
C89 O96 1.226 . S
O90 Cd86 2.273 . S
O90 Cd88 2.411 . S
O90 C93 1.320 . S
O91 Cd88 2.333 . S
O91 C93 1.214 . S
O92 Cd88 2.352 . S
O92 C95 1.258 . S
C93 O90 1.320 . S
C93 O91 1.214 . S
O94 Cd86 2.277 . S
O94 C89 1.209 . S
C95 O92 1.258 . S
C95 O97 1.282 . S
O96 Cd88 2.277 . S
O96 C89 1.226 . S
O97 Cd88 2.356 . S
O97 C95 1.282 . S
C98 O99 1.306 . S
C98 O101 1.160 . S
O99 C98 1.306 . S
O99 Cd100 2.228 . S
Cd100 O99 2.228 . S
Cd100 O104 2.273 . S
Cd100 O108 2.277 . S
O101 C98 1.160 . S
O101 Cd102 2.203 . S
Cd102 O101 2.203 . S
Cd102 O104 2.411 . S
Cd102 O105 2.333 . S
Cd102 O106 2.352 . S
Cd102 O110 2.277 . S
Cd102 O111 2.356 . S
C103 O108 1.209 . S
C103 O110 1.226 . S
O104 Cd100 2.273 . S
O104 Cd102 2.411 . S
O104 C107 1.320 . S
O105 Cd102 2.333 . S
O105 C107 1.214 . S
O106 Cd102 2.352 . S
O106 C109 1.258 1_655 S
C107 O104 1.320 . S
C107 O105 1.214 . S
O108 Cd100 2.277 . S
O108 C103 1.209 . S
C109 O106 1.258 1_455 S
C109 O111 1.282 1_455 S
O110 Cd102 2.277 . S
O110 C103 1.226 . S
O111 Cd102 2.356 . S
O111 C109 1.282 1_655 S
C112 O113 1.306 . S
C112 O115 1.160 . S
O113 C112 1.306 . S
O113 Cd114 2.228 . S
Cd114 O113 2.228 . S
Cd114 O118 2.273 . S
Cd114 O122 2.277 . S
O115 C112 1.160 . S
O115 Cd116 2.203 . S
Cd116 O115 2.203 . S
Cd116 O118 2.411 . S
Cd116 O119 2.333 . S
Cd116 O120 2.352 . S
Cd116 O124 2.277 . S
Cd116 O125 2.356 . S
C117 O122 1.209 . S
C117 O124 1.226 . S
O118 Cd114 2.273 . S
O118 Cd116 2.411 . S
O118 C121 1.320 . S
O119 Cd116 2.333 . S
O119 C121 1.214 . S
O120 Cd116 2.352 . S
O120 C123 1.258 . S
C121 O118 1.320 . S
C121 O119 1.214 . S
O122 Cd114 2.277 . S
O122 C117 1.209 . S
C123 O120 1.258 . S
C123 O125 1.282 . S
O124 Cd116 2.277 . S
O124 C117 1.226 . S
O125 Cd116 2.356 . S
O125 C123 1.282 . S
C126 O127 1.306 . S
C126 O129 1.160 . S
O127 C126 1.306 . S
O127 Cd128 2.228 . S
Cd128 O127 2.228 . S
Cd128 O132 2.273 . S
Cd128 O136 2.277 . S
O129 C126 1.160 . S
O129 Cd130 2.203 . S
Cd130 O129 2.203 . S
Cd130 O132 2.411 . S
Cd130 O133 2.333 . S
Cd130 O134 2.352 . S
Cd130 O138 2.277 . S
Cd130 O139 2.356 . S
C131 O136 1.209 . S
C131 O138 1.226 . S
O132 Cd128 2.273 . S
O132 Cd130 2.411 . S
O132 C135 1.320 . S
O133 Cd130 2.333 . S
O133 C135 1.214 . S
O134 Cd130 2.352 . S
O134 C137 1.258 . S
C135 O132 1.320 . S
C135 O133 1.214 . S
O136 Cd128 2.277 . S
O136 C131 1.209 . S
C137 O134 1.258 . S
C137 O139 1.282 . S
O138 Cd130 2.277 . S
O138 C131 1.226 . S
O139 Cd130 2.356 . S
O139 C137 1.282 . S
C140 O141 1.306 . S
C140 O143 1.160 . S
O141 C140 1.306 . S
O141 Cd142 2.228 . S
Cd142 O141 2.228 . S
Cd142 O146 2.273 . S
Cd142 O150 2.277 . S
O143 C140 1.160 . S
O143 Cd144 2.203 . S
Cd144 O143 2.203 . S
Cd144 O146 2.411 . S
Cd144 O147 2.333 . S
Cd144 O148 2.352 . S
Cd144 O152 2.277 . S
Cd144 O153 2.356 . S
C145 O150 1.209 . S
C145 O152 1.226 . S
O146 Cd142 2.273 . S
O146 Cd144 2.411 . S
O146 C149 1.320 . S
O147 Cd144 2.333 . S
O147 C149 1.214 . S
O148 Cd144 2.352 . S
O148 C151 1.258 . S
C149 O146 1.320 . S
C149 O147 1.214 . S
O150 Cd142 2.277 . S
O150 C145 1.209 . S
C151 O148 1.258 . S
C151 O153 1.282 . S
O152 Cd144 2.277 . S
O152 C145 1.226 . S
O153 Cd144 2.356 . S
O153 C151 1.282 . S
C154 O155 1.306 . S
C154 O157 1.160 . S
O155 C154 1.306 . S
O155 Cd156 2.228 . S
Cd156 O155 2.228 . S
Cd156 O160 2.273 . S
Cd156 O164 2.277 . S
O157 C154 1.160 . S
O157 Cd158 2.203 . S
Cd158 O157 2.203 . S
Cd158 O160 2.411 . S
Cd158 O161 2.333 . S
Cd158 O162 2.352 . S
Cd158 O166 2.277 . S
Cd158 O167 2.356 . S
C159 O164 1.209 . S
C159 O166 1.226 . S
O160 Cd156 2.273 . S
O160 Cd158 2.411 . S
O160 C163 1.320 . S
O161 Cd158 2.333 . S
O161 C163 1.214 . S
O162 Cd158 2.352 . S
O162 C165 1.258 1_545 S
C163 O160 1.320 . S
C163 O161 1.214 . S
O164 Cd156 2.277 . S
O164 C159 1.209 . S
C165 O162 1.258 1_565 S
C165 O167 1.282 1_565 S
O166 Cd158 2.277 . S
O166 C159 1.226 . S
O167 Cd158 2.356 . S
O167 C165 1.282 1_545 S
C168 C169 1.368 1_556 S
C168 C170 1.415 1_556 S
C168 H172 0.935 . S
C169 C168 1.368 1_554 S
C169 C178 1.429 . S
C170 C168 1.415 1_554 S
C170 C171 1.363 . S
C170 H173 0.929 . S
C171 C170 1.363 . S
C171 C177 1.428 . S
H172 C168 0.935 . S
H173 C170 0.929 . S
S174 N175 1.613 . S
S174 N176 1.610 . S
N175 S174 1.613 . S
N175 C178 1.350 . S
N176 S174 1.610 . S
N176 C177 1.351 . S
C177 C171 1.428 . S
C177 N176 1.351 . S
C177 C178 1.434 . S
C178 C169 1.429 . S
C178 N175 1.350 . S
C178 C177 1.434 . S
C179 C180 1.369 . S
C179 C181 1.419 . S
C179 H183 0.930 . S
C180 C179 1.369 . S
C180 C189 1.429 . S
C181 C179 1.419 . S
C181 C182 1.363 . S
C181 H184 0.929 . S
C182 C181 1.363 . S
C182 C188 1.428 . S
H183 C179 0.930 . S
H184 C181 0.929 . S
S185 N186 1.613 . S
S185 N187 1.610 . S
N186 S185 1.613 . S
N186 C189 1.350 . S
N187 S185 1.610 . S
N187 C188 1.351 . S
C188 C182 1.428 . S
C188 N187 1.351 . S
C188 C189 1.434 . S
C189 C180 1.429 . S
C189 N186 1.350 . S
C189 C188 1.434 . S
C190 C191 1.369 . S
C190 C192 1.419 . S
C190 H194 0.930 . S
C191 C190 1.369 . S
C191 C200 1.429 . S
C192 C190 1.419 . S
C192 C193 1.363 . S
C192 H195 0.929 . S
C193 C192 1.363 . S
C193 C199 1.428 . S
H194 C190 0.930 . S
H195 C192 0.929 . S
S196 N197 1.613 . S
S196 N198 1.610 . S
N197 S196 1.613 . S
N197 C200 1.350 . S
N198 S196 1.610 . S
N198 C199 1.351 . S
C199 C193 1.428 . S
C199 N198 1.351 . S
C199 C200 1.434 . S
C200 C191 1.429 . S
C200 N197 1.350 . S
C200 C199 1.434 . S
C201 C202 1.369 1_556 S
C201 C203 1.419 . S
C201 H205 0.930 . S
C202 C201 1.369 1_554 S
C202 C211 1.429 . S
C203 C201 1.419 . S
C203 C204 1.363 . S
C203 H206 0.929 . S
C204 C203 1.363 . S
C204 C210 1.428 . S
H205 C201 0.930 . S
H206 C203 0.929 . S
S207 N208 1.613 . S
S207 N209 1.610 1_554 S
N208 S207 1.613 . S
N208 C211 1.350 . S
N209 S207 1.610 1_556 S
N209 C210 1.351 . S
C210 C204 1.428 . S
C210 N209 1.351 . S
C210 C211 1.434 1_556 S
C211 C202 1.429 . S
C211 N208 1.350 . S
C211 C210 1.434 1_554 S
C212 C213 1.369 . S
C212 C214 1.419 . S
C212 H216 0.930 . S
C213 C212 1.369 . S
C213 C222 1.429 . S
C214 C212 1.419 . S
C214 C215 1.363 . S
C214 H217 0.929 . S
C215 C214 1.363 . S
C215 C221 1.428 . S
H216 C212 0.930 . S
H217 C214 0.929 . S
S218 N219 1.613 . S
S218 N220 1.610 . S
N219 S218 1.613 . S
N219 C222 1.350 . S
N220 S218 1.610 . S
N220 C221 1.351 . S
C221 C215 1.428 . S
C221 N220 1.351 . S
C221 C222 1.434 . S
C222 C213 1.429 . S
C222 N219 1.350 . S
C222 C221 1.434 . S
C223 C224 1.369 . S
C223 C225 1.419 . S
C223 H227 0.930 . S
C224 C223 1.369 . S
C224 C233 1.429 . S
C225 C223 1.419 . S
C225 C226 1.363 . S
C225 H228 0.929 . S
C226 C225 1.363 . S
C226 C232 1.428 . S
H227 C223 0.930 . S
H228 C225 0.929 . S
S229 N230 1.613 . S
S229 N231 1.610 . S
N230 S229 1.613 . S
N230 C233 1.350 . S
N231 S229 1.610 . S
N231 C232 1.351 . S
C232 C226 1.428 . S
C232 N231 1.351 . S
C232 C233 1.434 . S
C233 C224 1.429 . S
C233 N230 1.350 . S
C233 C232 1.434 . S
C234 C235 1.369 . S
C234 C236 1.419 . S
C234 H238 0.930 . S
C235 C234 1.369 . S
C235 C244 1.429 . S
C236 C234 1.419 . S
C236 C237 1.363 . S
C236 H239 0.929 . S
C237 C236 1.363 . S
C237 C243 1.428 . S
H238 C234 0.930 . S
H239 C236 0.929 . S
S240 N241 1.613 . S
S240 N242 1.610 . S
N241 S240 1.613 . S
N241 C244 1.350 . S
N242 S240 1.610 . S
N242 C243 1.351 . S
C243 C237 1.428 . S
C243 N242 1.351 . S
C243 C244 1.434 . S
C244 C235 1.429 . S
C244 N241 1.350 . S
C244 C243 1.434 . S
C245 C246 1.369 . S
C245 C247 1.419 . S
C245 H249 0.930 . S
C246 C245 1.369 . S
C246 C255 1.429 . S
C247 C245 1.419 . S
C247 C248 1.363 . S
C247 H250 0.929 . S
C248 C247 1.363 . S
C248 C254 1.428 . S
H249 C245 0.930 . S
H250 C247 0.929 . S
S251 N252 1.613 . S
S251 N253 1.610 . S
N252 S251 1.613 . S
N252 C255 1.350 . S
N253 S251 1.610 . S
N253 C254 1.351 . S
C254 C248 1.428 . S
C254 N253 1.351 . S
C254 C255 1.434 . S
C255 C246 1.429 . S
C255 N252 1.350 . S
C255 C254 1.434 . S
C256 C257 1.369 . S
C256 C258 1.419 . S
C256 H260 0.930 . S
C257 C256 1.369 . S
C257 C266 1.429 . S
C258 C256 1.419 . S
C258 C259 1.363 . S
C258 H261 0.929 . S
C259 C258 1.363 . S
C259 C265 1.428 . S
H260 C256 0.930 . S
H261 C258 0.929 . S
S262 N263 1.613 . S
S262 N264 1.610 . S
N263 S262 1.613 . S
N263 C266 1.350 . S
N264 S262 1.610 . S
N264 C265 1.351 . S
C265 C259 1.428 . S
C265 N264 1.351 . S
C265 C266 1.434 . S
C266 C257 1.429 . S
C266 N263 1.350 . S
C266 C265 1.434 . S
C267 C268 1.369 . S
C267 C269 1.419 . S
C267 H271 0.930 . S
C268 C267 1.369 . S
C268 C277 1.429 . S
C269 C267 1.419 . S
C269 C270 1.363 . S
C269 H272 0.929 . S
C270 C269 1.363 . S
C270 C276 1.428 . S
H271 C267 0.930 . S
H272 C269 0.929 . S
S273 N274 1.613 . S
S273 N275 1.610 . S
N274 S273 1.613 . S
N274 C277 1.350 . S
N275 S273 1.610 . S
N275 C276 1.351 . S
C276 C270 1.428 . S
C276 N275 1.351 . S
C276 C277 1.434 . S
C277 C268 1.429 . S
C277 N274 1.350 . S
C277 C276 1.434 . S
C278 C279 1.369 . S
C278 C280 1.419 . S
C278 H282 0.930 . S
C279 C278 1.369 . S
C279 C288 1.429 . S
C280 C278 1.419 . S
C280 C281 1.363 . S
C280 H283 0.929 . S
C281 C280 1.363 . S
C281 C287 1.428 . S
H282 C278 0.930 . S
H283 C280 0.929 . S
S284 N285 1.613 . S
S284 N286 1.610 . S
N285 S284 1.613 . S
N285 C288 1.350 . S
N286 S284 1.610 . S
N286 C287 1.351 . S
C287 C281 1.428 . S
C287 N286 1.351 . S
C287 C288 1.434 . S
C288 C279 1.429 . S
C288 N285 1.350 . S
C288 C287 1.434 . S
C289 C290 1.369 . S
C289 C291 1.419 . S
C289 H293 0.930 . S
C290 C289 1.369 . S
C290 C299 1.429 . S
C291 C289 1.419 . S
C291 C292 1.363 . S
C291 H294 0.929 . S
C292 C291 1.363 . S
C292 C298 1.428 . S
H293 C289 0.930 . S
H294 C291 0.929 . S
S295 N296 1.613 . S
S295 N297 1.610 . S
N296 S295 1.613 . S
N296 C299 1.350 . S
N297 S295 1.610 . S
N297 C298 1.351 . S
C298 C292 1.428 . S
C298 N297 1.351 . S
C298 C299 1.434 . S
C299 C290 1.429 . S
C299 N296 1.350 . S
C299 C298 1.434 . S
C300 C301 1.369 . S
C300 C302 1.419 1_655 S
C300 H304 0.930 . S
C301 C300 1.369 . S
C301 C310 1.429 . S
C302 C300 1.419 1_455 S
C302 C303 1.363 . S
C302 H305 0.929 . S
C303 C302 1.363 . S
C303 C309 1.428 . S
H304 C300 0.930 . S
H305 C302 0.929 . S
S306 N307 1.613 1_455 S
S306 N308 1.610 . S
N307 S306 1.613 1_655 S
N307 C310 1.350 . S
N308 S306 1.610 . S
N308 C309 1.351 . S
C309 C303 1.428 . S
C309 N308 1.351 . S
C309 C310 1.434 1_455 S
C310 C301 1.429 . S
C310 N307 1.350 . S
C310 C309 1.434 1_655 S
C311 C312 1.369 . S
C311 C313 1.419 1_545 S
C311 H315 0.930 . S
C312 C311 1.369 . S
C312 C321 1.429 . S
C313 C311 1.419 1_565 S
C313 C314 1.363 . S
C313 H316 0.929 . S
C314 C313 1.363 . S
C314 C320 1.428 . S
H315 C311 0.930 . S
H316 C313 0.929 . S
S317 N318 1.613 . S
S317 N319 1.610 1_545 S
N318 S317 1.613 . S
N318 C321 1.350 . S
N319 S317 1.610 1_565 S
N319 C320 1.351 . S
C320 C314 1.428 . S
C320 N319 1.351 . S
C320 C321 1.434 1_565 S
C321 C312 1.429 . S
C321 N318 1.350 . S
C321 C320 1.434 1_545 S
C322 C323 1.369 . S
C322 C324 1.419 . S
C322 H326 0.930 . S
C323 C322 1.369 . S
C323 C332 1.429 . S
C324 C322 1.419 . S
C324 C325 1.363 . S
C324 H327 0.929 . S
C325 C324 1.363 . S
C325 C331 1.428 . S
H326 C322 0.930 . S
H327 C324 0.929 . S
S328 N329 1.613 . S
S328 N330 1.610 . S
N329 S328 1.613 . S
N329 C332 1.350 . S
N330 S328 1.610 . S
N330 C331 1.351 . S
C331 C325 1.428 . S
C331 N330 1.351 . S
C331 C332 1.434 . S
C332 C323 1.429 . S
C332 N329 1.350 . S
C332 C331 1.434 . S
C333 C334 1.369 . S
C333 C335 1.419 1_545 S
C333 H337 0.930 . S
C334 C333 1.369 . S
C334 C343 1.429 . S
C335 C333 1.419 1_565 S
C335 C336 1.363 . S
C335 H338 0.929 . S
C336 C335 1.363 . S
C336 C342 1.428 . S
H337 C333 0.930 . S
H338 C335 0.929 . S
S339 N340 1.613 1_565 S
S339 N341 1.610 . S
N340 S339 1.613 1_545 S
N340 C343 1.350 . S
N341 S339 1.610 . S
N341 C342 1.351 . S
C342 C336 1.428 . S
C342 N341 1.351 . S
C342 C343 1.434 1_565 S
C343 C334 1.429 . S
C343 N340 1.350 . S
C343 C342 1.434 1_545 S
C344 C345 1.369 . S
C344 C346 1.419 . S
C344 H348 0.930 . S
C345 C344 1.369 . S
C345 C354 1.429 . S
C346 C344 1.419 . S
C346 C347 1.363 . S
C346 H349 0.929 . S
C347 C346 1.363 . S
C347 C353 1.428 . S
H348 C344 0.930 . S
H349 C346 0.929 . S
S350 N351 1.613 . S
S350 N352 1.610 . S
N351 S350 1.613 . S
N351 C354 1.350 . S
N352 S350 1.610 . S
N352 C353 1.351 . S
C353 C347 1.428 . S
C353 N352 1.351 . S
C353 C354 1.434 . S
C354 C345 1.429 . S
C354 N351 1.350 . S
C354 C353 1.434 . S
C355 C356 1.369 . S
C355 C357 1.419 1_455 S
C355 H359 0.930 . S
C356 C355 1.369 . S
C356 C365 1.429 . S
C357 C355 1.419 1_655 S
C357 C358 1.363 . S
C357 H360 0.929 . S
C358 C357 1.363 . S
C358 C364 1.428 . S
H359 C355 0.930 . S
H360 C357 0.929 . S
S361 N362 1.613 . S
S361 N363 1.610 1_455 S
N362 S361 1.613 . S
N362 C365 1.350 . S
N363 S361 1.610 1_655 S
N363 C364 1.351 . S
C364 C358 1.428 . S
C364 N363 1.351 . S
C364 C365 1.434 1_655 S
C365 C356 1.429 . S
C365 N362 1.350 . S
C365 C364 1.434 1_455 S
C366 C367 1.369 . S
C366 C368 1.419 . S
C366 H370 0.930 . S
C367 C366 1.369 . S
C367 C376 1.429 . S
C368 C366 1.419 . S
C368 C369 1.363 . S
C368 H371 0.929 . S
C369 C368 1.363 . S
C369 C375 1.428 . S
H370 C366 0.930 . S
H371 C368 0.929 . S
S372 N373 1.613 . S
S372 N374 1.610 . S
N373 S372 1.613 . S
N373 C376 1.350 . S
N374 S372 1.610 . S
N374 C375 1.351 . S
C375 C369 1.428 . S
C375 N374 1.351 . S
C375 C376 1.434 . S
C376 C367 1.429 . S
C376 N373 1.350 . S
C376 C375 1.434 . S
C377 C378 1.369 . S
C377 C379 1.419 . S
C377 H381 0.930 . S
C378 C377 1.369 . S
C378 C387 1.429 . S
C379 C377 1.419 . S
C379 C380 1.363 . S
C379 H382 0.929 . S
C380 C379 1.363 . S
C380 C386 1.428 . S
H381 C377 0.930 . S
H382 C379 0.929 . S
S383 N384 1.613 . S
S383 N385 1.610 . S
N384 S383 1.613 . S
N384 C387 1.350 . S
N385 S383 1.610 . S
N385 C386 1.351 . S
C386 C380 1.428 . S
C386 N385 1.351 . S
C386 C387 1.434 . S
C387 C378 1.429 . S
C387 N384 1.350 . S
C387 C386 1.434 . S
C388 C389 1.369 . S
C388 C390 1.419 . S
C388 H392 0.930 . S
C389 C388 1.369 . S
C389 C398 1.429 . S
C390 C388 1.419 . S
C390 C391 1.363 . S
C390 H393 0.929 . S
C391 C390 1.363 . S
C391 C397 1.428 . S
H392 C388 0.930 . S
H393 C390 0.929 . S
S394 N395 1.613 . S
S394 N396 1.610 . S
N395 S394 1.613 . S
N395 C398 1.350 . S
N396 S394 1.610 . S
N396 C397 1.351 . S
C397 C391 1.428 . S
C397 N396 1.351 . S
C397 C398 1.434 . S
C398 C389 1.429 . S
C398 N395 1.350 . S
C398 C397 1.434 . S
C399 C400 1.369 . S
C399 C401 1.419 . S
C399 H403 0.930 . S
C400 C399 1.369 . S
C400 C409 1.429 . S
C401 C399 1.419 . S
C401 C402 1.363 . S
C401 H404 0.929 . S
C402 C401 1.363 . S
C402 C408 1.428 . S
H403 C399 0.930 . S
H404 C401 0.929 . S
S405 N406 1.613 . S
S405 N407 1.610 . S
N406 S405 1.613 . S
N406 C409 1.350 . S
N407 S405 1.610 . S
N407 C408 1.351 . S
C408 C402 1.428 . S
C408 N407 1.351 . S
C408 C409 1.434 . S
C409 C400 1.429 . S
C409 N406 1.350 . S
C409 C408 1.434 . S
C410 C411 1.369 . S
C410 C412 1.419 . S
C410 H414 0.930 . S
C411 C410 1.369 . S
C411 C420 1.429 . S
C412 C410 1.419 . S
C412 C413 1.363 . S
C412 H415 0.929 . S
C413 C412 1.363 . S
C413 C419 1.428 . S
H414 C410 0.930 . S
H415 C412 0.929 . S
S416 N417 1.613 . S
S416 N418 1.610 . S
N417 S416 1.613 . S
N417 C420 1.350 . S
N418 S416 1.610 . S
N418 C419 1.351 . S
C419 C413 1.428 . S
C419 N418 1.351 . S
C419 C420 1.434 . S
C420 C411 1.429 . S
C420 N417 1.350 . S
C420 C419 1.434 . S
C421 C422 1.369 . S
C421 C423 1.419 . S
C421 H425 0.930 . S
C422 C421 1.369 . S
C422 C431 1.429 . S
C423 C421 1.419 . S
C423 C424 1.363 . S
C423 H426 0.929 . S
C424 C423 1.363 . S
C424 C430 1.428 . S
H425 C421 0.930 . S
H426 C423 0.929 . S
S427 N428 1.613 . S
S427 N429 1.610 . S
N428 S427 1.613 . S
N428 C431 1.350 . S
N429 S427 1.610 . S
N429 C430 1.351 . S
C430 C424 1.428 . S
C430 N429 1.351 . S
C430 C431 1.434 . S
C431 C422 1.429 . S
C431 N428 1.350 . S
C431 C430 1.434 . S
C169 C149 1.530 1_554 S
C171 C9 1.796 . S
C180 C23 1.529 . S
C182 C163 1.795 . S
C191 C37 1.796 . S
C193 C93 1.515 . S
C202 C51 1.516 . S
C204 C107 1.798 . S
C213 C121 1.515 . S
C215 C65 1.798 . S
C224 C79 1.516 . S
C226 C135 1.796 . S
C235 C112 1.668 . S
C237 C0 1.861 . S
C246 C14 1.659 . S
C248 C126 1.863 . S
C257 C28 1.861 . S
C259 C140 1.671 . S
C268 C42 1.660 . S
C270 C154 1.863 . S
C279 C84 1.667 . S
C281 C56 1.861 . S
C290 C98 1.860 . S
C292 C70 1.661 . S
C301 C47 1.476 . S
C303 C5 1.477 . S
C312 C19 1.478 . S
C314 C61 1.477 . S
C323 C75 1.479 . S
C325 C33 1.477 . S
C334 C131 1.478 . S
C336 C89 1.476 . S
C345 C145 1.479 . S
C347 C103 1.476 . S
C356 C117 1.476 . S
C358 C159 1.479 . S
C367 C53 1.381 . S
C369 C11 1.381 . S
C378 C25 1.380 . S
C380 C67 1.380 . S
C389 C81 1.381 . S
C391 C39 1.381 . S
C400 C95 1.381 . S
C402 C137 1.380 . S
C411 C151 1.379 . S
C413 C109 1.380 . S
C422 C123 1.381 . S
C424 C165 1.380 . S
