# Generated by pormake.
# Topology wjf, (4)-cn, num edge types: 1
# Building blocks:
#     Node 0, Type 0, BuildingBlock: GALJAG_clean_sbu_0, # of connection points: 4
#     Node 1, Type 0, BuildingBlock: GALJAG_clean_sbu_0, # of connection points: 4
#     Node 2, Type 0, BuildingBlock: GALJAG_clean_sbu_0, # of connection points: 4
#     Node 3, Type 0, BuildingBlock: GALJAG_clean_sbu_0, # of connection points: 4
#     Node 4, Type 0, BuildingBlock: GALJAG_clean_sbu_0, # of connection points: 4
#     Node 5, Type 0, BuildingBlock: GALJAG_clean_sbu_0, # of connection points: 4
#     Node 6, Type 0, BuildingBlock: GALJAG_clean_sbu_0, # of connection points: 4
#     Node 7, Type 0, BuildingBlock: GALJAG_clean_sbu_0, # of connection points: 4
#     Node 8, Type 0, BuildingBlock: GALJAG_clean_sbu_0, # of connection points: 4
#     Node 9, Type 0, BuildingBlock: GALJAG_clean_sbu_0, # of connection points: 4
#     Node 10, Type 0, BuildingBlock: GALJAG_clean_sbu_0, # of connection points: 4
#     Node 11, Type 0, BuildingBlock: GALJAG_clean_sbu_0, # of connection points: 4
#     Edge 12, Type (0, 0), BuildingBlock: KIFKEQ_clean_linker_1, # of connection points: 2
#     Edge 13, Type (0, 0), BuildingBlock: KIFKEQ_clean_linker_1, # of connection points: 2
#     Edge 14, Type (0, 0), BuildingBlock: KIFKEQ_clean_linker_1, # of connection points: 2
#     Edge 15, Type (0, 0), BuildingBlock: KIFKEQ_clean_linker_1, # of connection points: 2
#     Edge 16, Type (0, 0), BuildingBlock: KIFKEQ_clean_linker_1, # of connection points: 2
#     Edge 17, Type (0, 0), BuildingBlock: KIFKEQ_clean_linker_1, # of connection points: 2
#     Edge 18, Type (0, 0), BuildingBlock: KIFKEQ_clean_linker_1, # of connection points: 2
#     Edge 19, Type (0, 0), BuildingBlock: KIFKEQ_clean_linker_1, # of connection points: 2
#     Edge 20, Type (0, 0), BuildingBlock: KIFKEQ_clean_linker_1, # of connection points: 2
#     Edge 21, Type (0, 0), BuildingBlock: KIFKEQ_clean_linker_1, # of connection points: 2
#     Edge 22, Type (0, 0), BuildingBlock: KIFKEQ_clean_linker_1, # of connection points: 2
#     Edge 23, Type (0, 0), BuildingBlock: KIFKEQ_clean_linker_1, # of connection points: 2
#     Edge 24, Type (0, 0), BuildingBlock: KIFKEQ_clean_linker_1, # of connection points: 2
#     Edge 25, Type (0, 0), BuildingBlock: KIFKEQ_clean_linker_1, # of connection points: 2
#     Edge 26, Type (0, 0), BuildingBlock: KIFKEQ_clean_linker_1, # of connection points: 2
#     Edge 27, Type (0, 0), BuildingBlock: KIFKEQ_clean_linker_1, # of connection points: 2
#     Edge 28, Type (0, 0), BuildingBlock: KIFKEQ_clean_linker_1, # of connection points: 2
#     Edge 29, Type (0, 0), BuildingBlock: KIFKEQ_clean_linker_1, # of connection points: 2
#     Edge 30, Type (0, 0), BuildingBlock: KIFKEQ_clean_linker_1, # of connection points: 2
#     Edge 31, Type (0, 0), BuildingBlock: KIFKEQ_clean_linker_1, # of connection points: 2
#     Edge 32, Type (0, 0), BuildingBlock: KIFKEQ_clean_linker_1, # of connection points: 2
#     Edge 33, Type (0, 0), BuildingBlock: KIFKEQ_clean_linker_1, # of connection points: 2
#     Edge 34, Type (0, 0), BuildingBlock: KIFKEQ_clean_linker_1, # of connection points: 2
#     Edge 35, Type (0, 0), BuildingBlock: KIFKEQ_clean_linker_1, # of connection points: 2
# Relax obj value: 0.086
# Max RMSD: 0.104
# Mean RMSD: 0.104
data_MOF--net-wjf--node1-GALJAG_clean_sbu_0--edge1-KIFKEQ_clean_linker_1
_symmetry_space_group_name_H-M    P1
_symmetry_Int_Tables_number       1
_symmetry_cell_setting            triclinic
loop_
_symmetry_equiv_pos_as_xyz
'x, y, z'
_cell_length_a     50.708765
_cell_length_b     50.818853
_cell_length_c     28.876698
_cell_angle_alpha  90.024823
_cell_angle_beta   90.052486
_cell_angle_gamma 119.97144
loop_
_atom_site_label
_atom_site_type_symbol
_atom_site_fract_x
_atom_site_fract_y
_atom_site_fract_z
_atom_type_partial_charge
In0 In 0.32629 0.37406 0.08329 0.0
O1 O 0.30764 0.40553 0.0678 0.0
O2 O 0.27616 0.35922 0.08426 0.0
C3 C 0.38637 0.41518 0.08497 0.0
C4 C 0.31888 0.3467 0.0004 0.0
C5 C 0.31601 0.35091 0.16972 0.0
O6 O 0.36622 0.42275 0.08802 0.0
O7 O 0.37618 0.38706 0.08073 0.0
O8 O 0.3138 0.33508 0.13456 0.0
O9 O 0.32302 0.37794 0.16098 0.0
C10 C 0.28013 0.3849 0.07233 0.0
O11 O 0.32479 0.33653 0.0365 0.0
O12 O 0.3171 0.37028 0.00629 0.0
In13 In 0.94216 0.3282 0.42131 0.0
O14 O 0.97503 0.32557 0.36934 0.0
O15 O 0.93891 0.33162 0.34395 0.0
C16 C 0.95902 0.31892 0.5055 0.0
C17 C 0.88895 0.2771 0.40797 0.0
C18 C 0.95654 0.38661 0.42989 0.0
O19 O 0.97471 0.32217 0.46966 0.0
O20 O 0.93503 0.31999 0.49841 0.0
O21 O 0.92954 0.36494 0.43443 0.0
O22 O 0.97595 0.37869 0.42118 0.0
C23 C 0.96139 0.32836 0.33453 0.0
O24 O 0.89051 0.30262 0.41236 0.0
O25 O 0.91394 0.27751 0.41224 0.0
In26 In 0.62791 0.95693 0.75142 0.0
O27 O 0.59855 0.90534 0.74056 0.0
O28 O 0.64417 0.9283 0.71584 0.0
C29 C 0.58237 0.9678 0.77021 0.0
C30 C 0.64934 0.98702 0.67114 0.0
C31 C 0.6566 0.96786 0.83377 0.0
O32 O 0.57762 0.94258 0.75436 0.0
O33 O 0.61002 0.98725 0.77707 0.0
O34 O 0.66602 0.98732 0.80167 0.0
O35 O 0.63336 0.94288 0.82372 0.0
C36 C 0.61936 0.90368 0.71899 0.0
O37 O 0.66619 0.98293 0.69897 0.0
O38 O 0.62262 0.97769 0.68527 0.0
In39 In 0.66724 0.61631 0.0952 0.0
O40 O 0.64251 0.62805 0.0399 0.0
O41 O 0.69045 0.65107 0.03644 0.0
C42 C 0.67907 0.64073 0.18106 0.0
C43 C 0.71061 0.60233 0.07546 0.0
C44 C 0.6101 0.56926 0.10223 0.0
O45 O 0.6755 0.65406 0.14672 0.0
O46 O 0.67723 0.61564 0.17172 0.0
O47 O 0.61888 0.59446 0.12199 0.0
O48 O 0.63047 0.56741 0.07961 0.0
C49 C 0.66599 0.64633 0.01796 0.0
O50 O 0.68263 0.58268 0.0736 0.0
O51 O 0.71634 0.62834 0.08861 0.0
In52 In 0.03009 0.6649 0.40508 0.0
O53 O 0.08157 0.68705 0.39443 0.0
O54 O 0.06001 0.71324 0.38205 0.0
C55 C 0.01463 0.60707 0.42294 0.0
C56 C 0.00754 0.65976 0.31924 0.0
C57 C 0.01636 0.68018 0.48726 0.0
O58 O 0.04207 0.6283 0.42221 0.0
O59 O -0.00477 0.61519 0.41513 0.0
O60 O -0.0018 0.67189 0.45327 0.0
O61 O 0.04134 0.68134 0.47917 0.0
C62 C 0.08422 0.71197 0.38112 0.0
O63 O 0.00166 0.67313 0.35118 0.0
O64 O 0.02347 0.64825 0.33146 0.0
In65 In 0.37925 0.04462 0.75363 0.0
O66 O 0.34393 0.01187 0.70092 0.0
O67 O 0.38732 0.04622 0.67689 0.0
C68 C 0.35212 0.03014 0.83703 0.0
C69 C 0.38416 0.09874 0.73749 0.0
C70 C 0.42196 0.02881 0.76762 0.0
O71 O 0.33959 0.01417 0.80141 0.0
O72 O 0.37775 0.05341 0.83003 0.0
O73 O 0.42842 0.05623 0.76543 0.0
O74 O 0.39409 0.00958 0.76288 0.0
C75 C 0.36133 0.02455 0.6667 0.0
O76 O 0.40726 0.09563 0.74214 0.0
O77 O 0.35883 0.07481 0.74325 0.0
In78 In 0.61624 0.66476 0.59325 0.0
O79 O 0.5892 0.68948 0.59692 0.0
O80 O 0.63779 0.71562 0.59721 0.0
C81 C 0.57312 0.60581 0.58823 0.0
C82 C 0.63469 0.66864 0.68158 0.0
C83 C 0.64205 0.67234 0.50922 0.0
O84 O 0.56708 0.62691 0.58276 0.0
O85 O 0.60076 0.61454 0.59615 0.0
O86 O 0.65504 0.67047 0.54554 0.0
O87 O 0.61666 0.67062 0.51581 0.0
C88 C 0.61282 0.71546 0.59955 0.0
O89 O 0.65137 0.66955 0.64823 0.0
O90 O 0.60914 0.66508 0.66999 0.0
In91 In 0.94323 0.62009 0.90097 0.0
O92 O 0.89885 0.58657 0.93709 0.0
O93 O 0.89985 0.622 0.89625 0.0
C94 C 0.95946 0.57715 0.89546 0.0
C95 C 0.96879 0.65252 0.97923 0.0
C96 C 0.95542 0.64543 0.81576 0.0
O97 O 0.9319 0.57054 0.89493 0.0
O98 O 0.97843 0.60513 0.89847 0.0
O99 O 0.96937 0.66045 0.85129 0.0
O100 O 0.93568 0.61822 0.82355 0.0
C101 C 0.88469 0.59958 0.9226 0.0
O102 O 0.9451 0.65029 0.96145 0.0
O103 O 0.98068 0.64023 0.95591 0.0
In104 In 0.32784 0.94314 0.2456 0.0
O105 O 0.30041 0.89138 0.25131 0.0
O106 O 0.27759 0.91683 0.25947 0.0
C107 C 0.38605 0.95771 0.23245 0.0
C108 C 0.33113 0.96291 0.33286 0.0
C109 C 0.31634 0.95872 0.16222 0.0
O110 O 0.36497 0.93044 0.23706 0.0
O111 O 0.37763 0.97721 0.23453 0.0
O112 O 0.32042 0.97481 0.19791 0.0
O113 O 0.3176 0.93483 0.16911 0.0
C114 C 0.27582 0.89115 0.26006 0.0
O115 O 0.32705 0.97627 0.29891 0.0
O116 O 0.33438 0.94062 0.32226 0.0
In117 In 0.37183 0.32398 0.5838 0.0
O118 O 0.40249 0.30426 0.59798 0.0
O119 O 0.35557 0.27357 0.58339 0.0
C120 C 0.41465 0.38342 0.58233 0.0
C121 C 0.3462 0.31673 0.66795 0.0
C122 C 0.347 0.31502 0.49848 0.0
O123 O 0.42063 0.36273 0.57283 0.0
O124 O 0.38725 0.3741 0.59258 0.0
O125 O 0.33293 0.31564 0.53421 0.0
O126 O 0.37302 0.3185 0.50614 0.0
C127 C 0.38125 0.27699 0.59438 0.0
O128 O 0.33448 0.32125 0.6323 0.0
O129 O 0.37044 0.31626 0.66093 0.0
In130 In 0.04549 0.38046 0.91635 0.0
O131 O 0.01366 0.34378 0.96789 0.0
O132 O 0.04783 0.3868 0.99361 0.0
C133 C 0.03052 0.35433 0.83202 0.0
C134 C 0.10069 0.38733 0.93157 0.0
C135 C 0.02757 0.42185 0.90636 0.0
O136 O 0.01496 0.34117 0.86764 0.0
O137 O 0.05355 0.38003 0.83947 0.0
O138 O 0.05492 0.42848 0.90072 0.0
O139 O 0.00952 0.39453 0.91692 0.0
C140 C 0.02639 0.3605 0.00283 0.0
O141 O 0.09638 0.40977 0.92978 0.0
O142 O 0.07745 0.36182 0.92354 0.0
In143 In 0.66581 0.0353 0.24624 0.0
O144 O 0.6875 0.08679 0.25791 0.0
O145 O 0.71155 0.0645 0.27931 0.0
C146 C 0.60857 0.02209 0.22782 0.0
C147 C 0.65801 0.00657 0.32756 0.0
C148 C 0.6834 0.02466 0.16367 0.0
O149 O 0.62888 0.0482 0.24118 0.0
O150 O 0.6174 0.00297 0.22305 0.0
O151 O 0.67441 0.00548 0.19618 0.0
O152 O 0.6841 0.04919 0.17338 0.0
C153 C 0.71075 0.08885 0.27759 0.0
O154 O 0.67802 0.00928 0.29888 0.0
O155 O 0.64117 0.01667 0.31391 0.0
H156 H 0.31282 0.29831 0.19982 0.0
H157 H 0.31215 0.37843 0.24806 0.0
H158 H 0.31374 0.28336 0.28017 0.0
H159 H 0.31314 0.36361 0.32794 0.0
H160 H 0.29934 0.32192 0.46963 0.0
H161 H 0.28506 0.32494 0.38953 0.0
H162 H 0.3546 0.30645 0.34029 0.0
H163 H 0.36876 0.30343 0.41987 0.0
C164 C 0.31236 0.31243 0.22756 0.0
C165 C 0.3127 0.33967 0.21773 0.0
C166 C 0.31299 0.30394 0.27348 0.0
C167 C 0.31361 0.32237 0.31033 0.0
C168 C 0.31234 0.34876 0.30037 0.0
C169 C 0.31201 0.35738 0.25458 0.0
C170 C 0.31114 0.31795 0.44163 0.0
C171 C 0.33533 0.31272 0.4509 0.0
C172 C 0.30307 0.3198 0.39586 0.0
C173 C 0.3188 0.31605 0.35865 0.0
C174 C 0.34184 0.30914 0.36814 0.0
C175 C 0.35011 0.30764 0.41375 0.0
H176 H 0.013 0.32356 0.53262 0.0
H177 H 0.92693 0.30873 0.58522 0.0
H178 H 0.03081 0.32544 0.61202 0.0
H179 H 0.94476 0.31114 0.66408 0.0
H180 H 0.9779 0.30384 0.80396 0.0
H181 H 0.96057 0.28842 0.72426 0.0
H182 H 0.04523 0.36287 0.6736 0.0
H183 H 0.06262 0.3778 0.75275 0.0
C184 C -0.00223 0.32029 0.56109 0.0
C185 C 0.96871 0.31632 0.55275 0.0
C186 C 0.00799 0.32149 0.60653 0.0
C187 C 0.98928 0.31863 0.64443 0.0
C188 C 0.95965 0.31308 0.63581 0.0
C189 C 0.94951 0.31196 0.59053 0.0
C190 C 0.99298 0.3165 0.77573 0.0
C191 C 0.02146 0.3422 0.78456 0.0
C192 C 0.98302 0.30779 0.73011 0.0
C193 C 0.00142 0.32456 0.69253 0.0
C194 C 0.03059 0.34923 0.7016 0.0
C195 C 0.04048 0.35795 0.74706 0.0
H196 H 0.63544 0.9314 0.90949 0.0
H197 H 0.70586 0.02015 0.86519 0.0
H198 H 0.64972 0.94573 0.98966 0.0
H199 H 0.72108 0.03429 0.94576 0.0
H200 H 0.69732 0.06063 0.08761 0.0
H201 H 0.69825 0.04651 0.00765 0.0
H202 H 0.68448 0.95934 0.05244 0.0
H203 H 0.68242 0.97324 0.13281 0.0
C204 C 0.65455 0.95374 0.91686 0.0
C205 C 0.66923 0.97483 0.88115 0.0
C206 C 0.66293 0.96192 0.96294 0.0
C207 C 0.68637 0.99132 0.97435 0.0
C208 C 0.70252 0.01167 0.93826 0.0
C209 C 0.69395 0.00353 0.89209 0.0
C210 C 0.69502 0.03865 0.08049 0.0
C211 C 0.68933 0.01786 0.11638 0.0
C212 C 0.69581 0.0306 0.03454 0.0
C213 C 0.69115 0.00163 0.02342 0.0
C214 C 0.68757 0.98162 0.05971 0.0
C215 C 0.68656 0.98962 0.10576 0.0
H216 H 0.68701 0.61538 0.25901 0.0
H217 H 0.67756 0.6909 0.21185 0.0
H218 H 0.68426 0.62884 0.33904 0.0
H219 H 0.67538 0.7048 0.29223 0.0
H220 H 0.6204 0.68273 0.42955 0.0
H221 H 0.63599 0.68074 0.35078 0.0
H222 H 0.70706 0.66528 0.40271 0.0
H223 H 0.691 0.66686 0.48221 0.0
C224 C 0.68497 0.63525 0.26579 0.0
C225 C 0.68211 0.65186 0.22916 0.0
C226 C 0.68362 0.64311 0.31172 0.0
C227 C 0.67935 0.66775 0.32206 0.0
C228 C 0.67824 0.68541 0.28538 0.0
C229 C 0.67963 0.67755 0.23937 0.0
C230 C 0.63962 0.67929 0.42427 0.0
C231 C 0.6543 0.67466 0.46204 0.0
C232 C 0.64874 0.67842 0.37903 0.0
C233 C 0.67275 0.6728 0.37038 0.0
C234 C 0.68829 0.66937 0.40826 0.0
C235 C 0.6792 0.6704 0.45373 0.0
H236 H 0.00352 0.69945 0.78624 0.0
H237 H 0.92326 0.6187 0.73787 0.0
H238 H 0.01789 0.71586 0.7059 0.0
H239 H 0.93766 0.63467 0.65829 0.0
H240 H 0.96152 0.67191 0.51712 0.0
H241 H 0.94574 0.6709 0.59738 0.0
H242 H 0.03655 0.69674 0.64381 0.0
H243 H 0.05237 0.69837 0.56393 0.0
C244 C 0.98874 0.68549 0.75851 0.0
C245 C 0.96247 0.65766 0.76821 0.0
C246 C -0.00301 0.6948 0.71258 0.0
C247 C 0.97897 0.67652 0.67567 0.0
C248 C 0.95186 0.64952 0.68576 0.0
C249 C 0.94375 0.64019 0.73146 0.0
C250 C 0.97824 0.67806 0.54446 0.0
C251 C 0.00804 0.68478 0.53435 0.0
C252 C 0.96919 0.67735 0.5904 0.0
C253 C 0.98979 0.68336 0.62702 0.0
C254 C 0.02016 0.69222 0.61651 0.0
C255 C 0.02917 0.69292 0.57067 0.0
H256 H 0.31988 0.01212 0.13562 0.0
H257 H 0.30571 0.92656 0.08242 0.0
H258 H 0.32136 0.02986 0.05642 0.0
H259 H 0.3078 0.94436 0.00371 0.0
H260 H 0.30137 0.97756 0.86399 0.0
H261 H 0.28527 0.9601 0.94333 0.0
H262 H 0.3591 0.04473 0.99547 0.0
H263 H 0.37467 0.06227 0.91664 0.0
C264 C 0.31663 -0.00304 0.10706 0.0
C265 C 0.31303 0.9681 0.11516 0.0
C266 C 0.31761 0.00715 0.06173 0.0
C267 C 0.31494 0.98862 0.0237 0.0
C268 C 0.3096 0.95911 0.03208 0.0
C269 C 0.30866 0.94899 0.07728 0.0
C270 C 0.31372 0.99261 0.89246 0.0
C271 C 0.33947 0.02112 0.88416 0.0
C272 C 0.30462 0.98258 0.93787 0.0
C273 C 0.32106 0.00091 0.97577 0.0
C274 C 0.3457 0.03013 0.96721 0.0
C275 C 0.3548 0.04011 0.92194 0.0
H276 H 0.15029 0.43733 0.96768 0.0
H277 H 0.11563 0.34293 0.93317 0.0
H278 H 0.19439 0.43907 0.00521 0.0
H279 H 0.15981 0.34482 0.96956 0.0
H280 H 0.21971 0.34518 0.08338 0.0
H281 H 0.17748 0.34805 0.04859 0.0
H282 H 0.24055 0.43605 0.99146 0.0
H283 H 0.28285 0.43347 0.02736 0.0
C284 C 0.1524 0.41715 0.96735 0.0
C285 C 0.12948 0.38994 0.94779 0.0
C286 C 0.17761 0.41813 0.98887 0.0
C287 C 0.18027 0.39192 0.9911 0.0
C288 C 0.158 0.36517 0.96951 0.0
C289 C 0.13285 0.36417 0.94821 0.0
C290 C 0.22451 0.36536 0.06405 0.0
C291 C 0.25455 0.389 0.05781 0.0
C292 C 0.20037 0.36688 0.04372 0.0
C293 C 0.20576 0.39199 0.01644 0.0
C294 C 0.23568 0.41641 0.01228 0.0
C295 C 0.25988 0.41494 0.03286 0.0
H296 H 0.88315 0.22253 0.38703 0.0
H297 H 0.83167 0.26909 0.39652 0.0
H298 H 0.8388 0.17786 0.357 0.0
H299 H 0.7864 0.22351 0.36787 0.0
H300 H 0.7244 0.14773 0.26277 0.0
H301 H 0.76615 0.19365 0.29791 0.0
H302 H 0.79088 0.13786 0.37943 0.0
H303 H 0.7505 0.09266 0.34299 0.0
C304 C 0.86212 0.22301 0.38349 0.0
C305 C 0.86084 0.24926 0.39427 0.0
C306 C 0.83657 0.19729 0.36643 0.0
C307 C 0.80891 0.19698 0.36023 0.0
C308 C 0.80744 0.22312 0.37178 0.0
C309 C 0.83323 0.24909 0.38858 0.0
C310 C 0.73888 0.14549 0.2882 0.0
C311 C 0.73466 0.11679 0.29957 0.0
C312 C 0.76259 0.17168 0.3086 0.0
C313 C 0.78213 0.16946 0.34108 0.0
C314 C 0.77687 0.14052 0.35364 0.0
C315 C 0.75363 0.11457 0.33284 0.0
H316 H 0.65337 0.90003 0.65025 0.0
H317 H 0.57591 0.84467 0.73732 0.0
H318 H 0.64898 0.85473 0.61481 0.0
H319 H 0.57224 0.79879 0.70314 0.0
H320 H 0.56247 0.72166 0.61017 0.0
H321 H 0.56149 0.7673 0.63467 0.0
H322 H 0.65989 0.81682 0.63887 0.0
H323 H 0.6608 0.77196 0.61306 0.0
C324 C 0.63547 0.87805 0.66201 0.0
C325 C 0.61526 0.87576 0.69702 0.0
C326 C 0.633 0.85207 0.64177 0.0
C327 C 0.61058 0.8231 0.65663 0.0
C328 C 0.58964 0.82078 0.69067 0.0
C329 C 0.59185 0.84696 0.71052 0.0
C330 C 0.58383 0.74251 0.61564 0.0
C331 C 0.61171 0.74332 0.60962 0.0
C332 C 0.58327 0.76853 0.63005 0.0
C333 C 0.6106 0.79572 0.63876 0.0
C334 C 0.6384 0.79649 0.63168 0.0
C335 C 0.63895 0.77067 0.61708 0.0
H336 H 0.70501 0.54918 0.04183 0.0
H337 H 0.77083 0.64325 0.06974 0.0
H338 H 0.74485 0.54302 0.00326 0.0
H339 H 0.80996 0.63707 0.03093 0.0
H340 H 0.85246 0.62691 0.8987 0.0
H341 H 0.80825 0.62295 0.93822 0.0
H342 H 0.8045 0.55281 0.02674 0.0
H343 H 0.84939 0.55694 0.98744 0.0
C344 C 0.72799 0.56832 0.04039 0.0
C345 C 0.7348 0.59677 0.0584 0.0
C346 C 0.75065 0.56476 0.01841 0.0
C347 C 0.78015 0.58971 0.01379 0.0
C348 C 0.78721 0.61764 0.03372 0.0
C349 C 0.76482 0.6211 0.05603 0.0
C350 C 0.84194 0.61019 0.92594 0.0
C351 C 0.85459 0.59248 0.94038 0.0
C352 C 0.81671 0.60801 0.94856 0.0
C353 C 0.80341 0.58787 0.9857 0.0
C354 C 0.81451 0.5685 0.99811 0.0
C355 C 0.8401 0.57088 0.97566 0.0
H356 H 0.1422 0.72128 0.38914 0.0
H357 H 0.09009 0.759 0.32977 0.0
H358 H 0.18895 0.76381 0.35762 0.0
H359 H 0.13603 0.8003 0.29664 0.0
H360 H 0.22463 0.8884 0.29309 0.0
H361 H 0.17932 0.84453 0.32232 0.0
H362 H 0.21721 0.78735 0.28787 0.0
H363 H 0.26363 0.83207 0.2602 0.0
C364 C 0.14078 0.73858 0.36919 0.0
C365 C 0.11268 0.73717 0.3625 0.0
C366 C 0.16744 0.76275 0.35078 0.0
C367 C 0.16629 0.78565 0.32493 0.0
C368 C 0.13793 0.78356 0.31736 0.0
C369 C 0.11153 0.7598 0.33626 0.0
C370 C 0.22328 0.86646 0.29137 0.0
C371 C 0.2476 0.86362 0.27412 0.0
C372 C 0.19717 0.8412 0.30798 0.0
C373 C 0.19445 0.8123 0.30715 0.0
C374 C 0.2187 0.80934 0.28944 0.0
C375 C 0.24513 0.83484 0.2732 0.0
H376 H 0.4339 0.14853 0.70195 0.0
H377 H 0.33872 0.1123 0.73376 0.0
H378 H 0.43505 0.19187 0.66349 0.0
H379 H 0.34005 0.15596 0.69681 0.0
H380 H 0.34054 0.21672 0.58452 0.0
H381 H 0.34312 0.17448 0.61955 0.0
H382 H 0.43199 0.23715 0.67536 0.0
H383 H 0.42978 0.27928 0.63891 0.0
C384 C 0.41341 0.15018 0.70153 0.0
C385 C 0.38618 0.12704 0.72063 0.0
C386 C 0.41405 0.17497 0.67947 0.0
C387 C 0.38751 0.17712 0.67639 0.0
C388 C 0.36068 0.15458 0.69743 0.0
C389 C 0.35999 0.12974 0.7191 0.0
C390 C 0.36084 0.22138 0.60358 0.0
C391 C 0.3849 0.25125 0.60917 0.0
C392 C 0.36219 0.19724 0.62411 0.0
C393 C 0.3875 0.20251 0.65105 0.0
C394 C 0.41221 0.23229 0.65473 0.0
C395 C 0.41095 0.25642 0.63384 0.0
H396 H 0.34737 0.28125 0.73668 0.0
H397 H 0.31843 0.34588 0.70522 0.0
H398 H 0.33391 0.28092 0.8176 0.0
H399 H 0.30715 0.34772 0.78667 0.0
H400 H 0.27994 0.34239 0.93296 0.0
H401 H 0.27937 0.32789 0.85248 0.0
H402 H 0.353 0.31043 0.8821 0.0
H403 H 0.35149 0.32261 0.96324 0.0
C404 C 0.33794 0.2953 0.7473 0.0
C405 C 0.33398 0.31367 0.71502 0.0
C406 C 0.33053 0.29543 0.7938 0.0
C407 C 0.31991 0.31472 0.80941 0.0
C408 C 0.3148 0.33216 0.77635 0.0
C409 C 0.32139 0.33132 0.72952 0.0
C410 C 0.29545 0.33471 0.92218 0.0
C411 C 0.31581 0.33362 0.95396 0.0
C412 C 0.29543 0.32675 0.87591 0.0
C413 C 0.31654 0.31849 0.86002 0.0
C414 C 0.33604 0.31619 0.89268 0.0
C415 C 0.33537 0.3233 0.93932 0.0
H416 H 0.9288 0.32279 0.25695 0.0
H417 H 0.01447 0.33287 0.30287 0.0
H418 H 0.94452 0.3255 0.17665 0.0
H419 H 0.0303 0.33562 0.22195 0.0
H420 H 0.05874 0.38785 0.08023 0.0
H421 H 0.04302 0.37518 0.16051 0.0
H422 H 0.95787 0.29869 0.11556 0.0
H423 H 0.97375 0.31144 0.03454 0.0
C424 C 0.95093 0.32533 0.24984 0.0
C425 C 0.97057 0.32794 0.28615 0.0
C426 C 0.95978 0.32658 0.2038 0.0
C427 C 0.98861 0.33076 0.19303 0.0
C428 C 0.00799 0.33254 0.22933 0.0
C429 C -0.00104 0.33094 0.27554 0.0
C430 C 0.03676 0.36813 0.08741 0.0
C431 C 0.01731 0.35078 0.05116 0.0
C432 C 0.0279 0.36073 0.13345 0.0
C433 C -0.00076 0.33597 0.14431 0.0
C434 C 0.98006 0.31802 0.10809 0.0
C435 C 0.98913 0.32524 0.06184 0.0
H436 H 0.68982 0.97981 0.61835 0.0
H437 H 0.62584 0.01231 0.614 0.0
H438 H 0.69302 0.98189 0.53385 0.0
H439 H 0.62998 0.0158 0.53004 0.0
H440 H 0.60984 0.98257 0.38572 0.0
H441 H 0.6112 0.97941 0.46964 0.0
H442 H 0.70779 0.01144 0.46393 0.0
H443 H 0.70593 0.01319 0.37941 0.0
C444 C 0.67731 0.98843 0.59935 0.0
C445 C 0.65747 -0.00422 0.62247 0.0
C446 C 0.67899 0.98947 0.55094 0.0
C447 C 0.66109 -0.00181 0.52506 0.0
C448 C 0.64322 0.0079 0.54876 0.0
C449 C 0.64119 0.0064 0.59689 0.0
C450 C 0.63117 0.98816 0.40241 0.0
C451 C 0.65775 -0.00189 0.37629 0.0
C452 C 0.63211 0.98685 0.45052 0.0
C453 C 0.65982 -0.00389 0.47367 0.0
C454 C 0.6861 0.00423 0.44726 0.0
C455 C 0.68502 0.00506 0.39886 0.0
H456 H 0.61029 0.68375 0.75279 0.0
H457 H 0.67942 0.66055 0.72134 0.0
H458 H 0.62132 0.68502 0.83485 0.0
H459 H 0.68981 0.66062 0.80427 0.0
H460 H 0.71285 0.67864 0.9574 0.0
H461 H 0.70866 0.68931 0.8759 0.0
H462 H 0.61107 0.64723 0.89117 0.0
H463 H 0.6154 0.63744 0.97221 0.0
C464 C 0.6279 0.6789 0.76353 0.0
C465 C 0.64371 0.67161 0.73078 0.0
C466 C 0.63416 0.67953 0.81063 0.0
C467 C 0.6561 0.67244 0.82634 0.0
C468 C 0.6729 0.6664 0.79338 0.0
C469 C 0.66685 0.66616 0.74593 0.0
C470 C 0.69062 0.67233 0.94345 0.0
C471 C 0.66444 0.65722 0.97116 0.0
C472 C 0.68819 0.67814 0.89667 0.0
C473 C 0.65953 0.66901 0.87683 0.0
C474 C 0.63358 0.65501 0.90528 0.0
C475 C 0.63602 0.64927 0.95184 0.0
H476 H 0.98586 0.69391 0.27797 0.0
H477 H 0.01174 0.62641 0.24961 0.0
H478 H 0.97901 0.69818 0.19472 0.0
H479 H 0.00441 0.63018 0.16736 0.0
H480 H 0.02024 0.66168 0.02301 0.0
H481 H 0.02989 0.6668 0.10608 0.0
H482 H 0.94703 0.66956 0.12795 0.0
H483 H 0.93782 0.66528 0.04451 0.0
C484 C 0.98962 0.6797 0.25404 0.0
C485 C -0.00054 0.65994 0.27018 0.0
C486 C 0.98581 0.6822 0.20645 0.0
C487 C 0.99182 0.665 0.17437 0.0
C488 C 0.0005 0.64444 0.19097 0.0
C489 C 0.00436 0.64202 0.23821 0.0
C490 C 0.0045 0.66418 0.04543 0.0
C491 C 0.97813 0.66276 0.02736 0.0
C492 C 0.00984 0.6668 0.09306 0.0
C493 C 0.98878 0.66777 0.12369 0.0
C494 C 0.96364 0.6688 0.1053 0.0
C495 C 0.95839 0.66637 0.05749 0.0
H496 H 0.32755 0.93023 0.40919 0.0
H497 H 0.33501 0.01518 0.3666 0.0
H498 H 0.33013 0.94489 0.49007 0.0
H499 H 0.33772 0.02996 0.4481 0.0
H500 H 0.38958 0.0575 0.59043 0.0
H501 H 0.37788 0.04255 0.50965 0.0
H502 H 0.30162 0.95655 0.55161 0.0
H503 H 0.31331 0.97168 0.63318 0.0
C504 C 0.32958 0.95201 0.41716 0.0
C505 C 0.33141 0.97174 0.38161 0.0
C506 C 0.33074 0.96023 0.46351 0.0
C507 C 0.33407 0.98851 0.47534 0.0
C508 C 0.33527 0.00805 0.43984 0.0
C509 C 0.33372 -0.00037 0.39332 0.0
C510 C 0.37015 0.03547 0.58249 0.0
C511 C 0.3525 0.01559 0.61805 0.0
C512 C 0.3633 0.02706 0.53619 0.0
C513 C 0.33885 -0.00157 0.52437 0.0
C514 C 0.3207 0.97873 0.55987 0.0
C515 C 0.32732 0.98736 0.60641 0.0
H516 H 0.41391 0.47693 0.09081 0.0
H517 H 0.4331 0.40321 0.0844 0.0
H518 H 0.46831 0.51327 0.09573 0.0
H519 H 0.48744 0.43943 0.09055 0.0
H520 H 0.58348 0.5166 0.052 0.0
H521 H 0.52933 0.47899 0.04747 0.0
H522 H 0.51008 0.52949 0.14929 0.0
H523 H 0.56398 0.56737 0.15281 0.0
C524 C 0.42977 0.46851 0.0906 0.0
C525 C 0.41929 0.43727 0.08725 0.0
C526 C 0.46092 0.48929 0.09375 0.0
C527 C 0.48224 0.47924 0.0938 0.0
C528 C 0.47168 0.44795 0.09011 0.0
C529 C 0.44053 0.4272 0.08682 0.0
C530 C 0.56767 0.51947 0.07367 0.0
C531 C 0.5779 0.54494 0.10263 0.0
C532 C 0.53666 0.49791 0.07118 0.0
C533 C 0.51533 0.50137 0.09775 0.0
C534 C 0.52581 0.52645 0.12767 0.0
C535 C 0.55673 0.54803 0.12999 0.0
H536 H 0.95861 0.55745 0.41042 0.0
H537 H 0.05067 0.58419 0.45078 0.0
H538 H 0.94458 0.50427 0.41569 0.0
H539 H 0.0364 0.53086 0.45808 0.0
H540 H 0.01066 0.43588 0.40697 0.0
H541 H 0.02441 0.48902 0.40938 0.0
H542 H 0.93566 0.46351 0.46505 0.0
H543 H 0.92152 0.41005 0.46067 0.0
C544 C 0.97574 0.55191 0.42114 0.0
C545 C 0.00579 0.57494 0.42987 0.0
C546 C 0.96765 0.52138 0.42449 0.0
C547 C 0.98936 0.51317 0.43714 0.0
C548 C 0.01922 0.53632 0.44735 0.0
C549 C 0.02739 0.56688 0.44348 0.0
C550 C 0.99412 0.44164 0.41985 0.0
C551 C 0.96497 0.41885 0.43341 0.0
C552 C 0.00209 0.47217 0.42162 0.0
C553 C 0.9812 0.48068 0.4375 0.0
C554 C 0.95217 0.4578 0.45194 0.0
C555 C 0.94409 0.42718 0.44967 0.0
H556 H 0.5861 0.01732 0.81307 0.0
H557 H 0.52343 0.93482 0.74124 0.0
H558 H 0.54679 0.03145 0.81811 0.0
H559 H 0.48445 0.9494 0.74455 0.0
H560 H 0.41259 0.97221 0.7858 0.0
H561 H 0.45069 0.95658 0.79267 0.0
H562 H 0.5218 0.04918 0.76813 0.0
H563 H 0.48367 0.06489 0.76314 0.0
C564 C 0.56386 0.00217 0.79849 0.0
C565 C 0.55782 0.97502 0.77665 0.0
C566 C 0.54139 0.01036 0.80105 0.0
C567 C 0.51249 0.99172 0.78139 0.0
C568 C 0.50628 0.96414 0.76063 0.0
C569 C 0.52867 0.95581 0.7585 0.0
C570 C 0.4364 0.98923 0.78224 0.0
C571 C 0.4452 0.01974 0.77379 0.0
C572 C 0.45824 0.98026 0.7859 0.0
C573 C 0.48935 0.00156 0.78071 0.0
C574 C 0.49811 0.03221 0.77303 0.0
C575 C 0.47626 0.04122 0.76985 0.0
H576 H 0.58043 0.55742 0.60724 0.0
H577 H 0.51325 0.58095 0.564 0.0
H578 H 0.54204 0.50379 0.60496 0.0
H579 H 0.4749 0.52713 0.56024 0.0
H580 H 0.40775 0.43086 0.6099 0.0
H581 H 0.44599 0.48462 0.61039 0.0
H582 H 0.51172 0.46336 0.55233 0.0
H583 H 0.47362 0.40944 0.55329 0.0
C584 C 0.55747 0.55108 0.59689 0.0
C585 C 0.54979 0.57334 0.58589 0.0
C586 C 0.5355 0.52032 0.59527 0.0
C587 C 0.50538 0.51111 0.58232 0.0
C588 C 0.49778 0.53344 0.57099 0.0
C589 C 0.51976 0.56426 0.57289 0.0
C590 C 0.43038 0.4377 0.59723 0.0
C591 C 0.43777 0.41599 0.5817 0.0
C592 C 0.45224 0.46854 0.5972 0.0
C593 C 0.48194 0.47835 0.58138 0.0
C594 C 0.4892 0.45656 0.56542 0.0
C595 C 0.46735 0.42568 0.56573 0.0
H596 H 0.92447 0.51639 0.8773 0.0
H597 H 0.01627 0.58613 0.91039 0.0
H598 H 0.9408 0.4786 0.87594 0.0
H599 H 0.03237 0.54843 0.91101 0.0
H600 H 0.97284 0.41497 0.93165 0.0
H601 H 0.95621 0.45227 0.92687 0.0
H602 H 0.04209 0.51621 0.86392 0.0
H603 H 0.05912 0.47916 0.87066 0.0
C604 C 0.94809 0.52358 0.88444 0.0
C605 C 0.96909 0.55415 0.89394 0.0
C606 C 0.95745 0.50194 0.88395 0.0
C607 C 0.98793 0.51041 0.89344 0.0
C608 C 0.00887 0.54111 0.90271 0.0
C609 C -0.00041 0.56273 0.9027 0.0
C610 C 0.98813 0.437 0.91673 0.0
C611 C 0.01733 0.44426 0.90175 0.0
C612 C 0.97851 0.45833 0.91364 0.0
C613 C -0.00222 0.48731 0.89501 0.0
C614 C 0.02684 0.49431 0.87922 0.0
C615 C 0.03657 0.47306 0.88282 0.0
H616 H 0.58195 0.05527 0.25196 0.0
H617 H 0.5625 0.9697 0.19138 0.0
H618 H 0.52802 0.03933 0.24966 0.0
H619 H 0.5086 0.95408 0.18737 0.0
H620 H 0.41226 0.92236 0.24317 0.0
H621 H 0.46627 0.93838 0.23804 0.0
H622 H 0.48635 0.02896 0.20091 0.0
H623 H 0.43264 0.01317 0.20786 0.0
C624 C 0.56617 0.03326 0.23738 0.0
C625 C 0.57639 0.01369 0.22201 0.0
C626 C 0.53524 0.02413 0.23584 0.0
C627 C 0.51386 0.99533 0.21846 0.0
C628 C 0.52431 0.97616 0.20176 0.0
C629 C 0.55523 0.9852 0.2037 0.0
C630 C 0.42826 0.94562 0.23369 0.0
C631 C 0.41832 0.96657 0.22626 0.0
C632 C 0.4592 0.9548 0.23045 0.0
C633 C 0.48076 0.98505 0.21927 0.0
C634 C 0.47053 0.00568 0.21051 0.0
C635 C 0.4397 -0.00342 0.21422 0.0
loop_
_geom_bond_atom_site_label_1
_geom_bond_atom_site_label_2
_geom_bond_distance
_geom_bond_site_symmetry_2
_ccdc_geom_bond_type
In0 O1 2.294 . S
In0 O2 2.326 . S
In0 O6 2.266 . S
In0 O7 2.326 . S
In0 O8 2.266 . S
In0 O9 2.326 . S
In0 O11 2.294 . S
In0 O12 2.326 1_554 S
O1 In0 2.294 . S
O1 C10 1.240 . S
O2 In0 2.326 . S
O2 C10 1.252 . S
C3 O6 1.252 . S
C3 O7 1.260 . S
C4 O11 1.240 1_556 S
C4 O12 1.252 . S
C5 O8 1.252 . S
C5 O9 1.260 . S
O6 In0 2.266 . S
O6 C3 1.252 . S
O7 In0 2.326 . S
O7 C3 1.260 . S
O8 In0 2.266 . S
O8 C5 1.252 . S
O9 In0 2.326 . S
O9 C5 1.260 . S
C10 O1 1.240 . S
C10 O2 1.252 . S
O11 In0 2.294 . S
O11 C4 1.240 1_554 S
O12 In0 2.326 1_556 S
O12 C4 1.252 . S
In13 O14 2.294 . S
In13 O15 2.326 . S
In13 O19 2.264 . S
In13 O20 2.326 . S
In13 O21 2.266 . S
In13 O22 2.321 1_655 S
In13 O24 2.294 . S
In13 O25 2.326 . S
O14 In13 2.294 . S
O14 C23 1.240 . S
O15 In13 2.326 . S
O15 C23 1.252 . S
C16 O19 1.250 . S
C16 O20 1.260 . S
C17 O24 1.240 . S
C17 O25 1.252 . S
C18 O21 1.252 . S
C18 O22 1.237 1_655 S
O19 In13 2.264 . S
O19 C16 1.250 . S
O20 In13 2.326 . S
O20 C16 1.260 . S
O21 In13 2.266 . S
O21 C18 1.252 . S
O22 In13 2.321 1_455 S
O22 C18 1.237 1_455 S
C23 O14 1.240 . S
C23 O15 1.252 . S
O24 In13 2.294 . S
O24 C17 1.240 . S
O25 In13 2.326 . S
O25 C17 1.252 . S
In26 O27 2.294 . S
In26 O28 2.326 . S
In26 O32 2.266 . S
In26 O33 2.303 1_565 S
In26 O34 2.265 . S
In26 O35 2.326 . S
In26 O37 2.294 . S
In26 O38 2.326 . S
O27 In26 2.294 . S
O27 C36 1.240 . S
O28 In26 2.326 . S
O28 C36 1.252 . S
C29 O32 1.252 . S
C29 O33 1.252 1_565 S
C30 O37 1.240 . S
C30 O38 1.252 . S
C31 O34 1.251 . S
C31 O35 1.260 . S
O32 In26 2.266 . S
O32 C29 1.252 . S
O33 In26 2.303 1_545 S
O33 C29 1.252 1_545 S
O34 In26 2.265 . S
O34 C31 1.251 . S
O35 In26 2.326 . S
O35 C31 1.260 . S
C36 O27 1.240 . S
C36 O28 1.252 . S
O37 In26 2.294 . S
O37 C30 1.240 . S
O38 In26 2.326 . S
O38 C30 1.252 . S
In39 O40 2.294 . S
In39 O41 2.326 1_554 S
In39 O45 2.266 . S
In39 O46 2.326 . S
In39 O47 2.266 . S
In39 O48 2.326 . S
In39 O50 2.294 . S
In39 O51 2.326 . S
O40 In39 2.294 . S
O40 C49 1.240 1_554 S
O41 In39 2.326 1_556 S
O41 C49 1.252 . S
C42 O45 1.252 . S
C42 O46 1.260 . S
C43 O50 1.240 . S
C43 O51 1.252 . S
C44 O47 1.252 . S
C44 O48 1.260 . S
O45 In39 2.266 . S
O45 C42 1.252 . S
O46 In39 2.326 . S
O46 C42 1.260 . S
O47 In39 2.266 . S
O47 C44 1.252 . S
O48 In39 2.326 . S
O48 C44 1.260 . S
C49 O40 1.240 1_556 S
C49 O41 1.252 . S
O50 In39 2.294 . S
O50 C43 1.240 . S
O51 In39 2.326 . S
O51 C43 1.252 . S
In52 O53 2.294 . S
In52 O54 2.326 . S
In52 O58 2.266 . S
In52 O59 2.321 1_455 S
In52 O60 2.264 . S
In52 O61 2.326 . S
In52 O63 2.294 . S
In52 O64 2.326 . S
O53 In52 2.294 . S
O53 C62 1.240 . S
O54 In52 2.326 . S
O54 C62 1.252 . S
C55 O58 1.252 . S
C55 O59 1.237 1_455 S
C56 O63 1.240 . S
C56 O64 1.252 . S
C57 O60 1.250 . S
C57 O61 1.260 . S
O58 In52 2.266 . S
O58 C55 1.252 . S
O59 In52 2.321 1_655 S
O59 C55 1.237 1_655 S
O60 In52 2.264 . S
O60 C57 1.250 . S
O61 In52 2.326 . S
O61 C57 1.260 . S
C62 O53 1.240 . S
C62 O54 1.252 . S
O63 In52 2.294 . S
O63 C56 1.240 . S
O64 In52 2.326 . S
O64 C56 1.252 . S
In65 O66 2.294 . S
In65 O67 2.326 . S
In65 O71 2.265 . S
In65 O72 2.326 . S
In65 O73 2.266 . S
In65 O74 2.303 1_545 S
In65 O76 2.294 . S
In65 O77 2.326 . S
O66 In65 2.294 . S
O66 C75 1.240 . S
O67 In65 2.326 . S
O67 C75 1.252 . S
C68 O71 1.251 . S
C68 O72 1.260 . S
C69 O76 1.240 . S
C69 O77 1.252 . S
C70 O73 1.252 . S
C70 O74 1.252 1_545 S
O71 In65 2.265 . S
O71 C68 1.251 . S
O72 In65 2.326 . S
O72 C68 1.260 . S
O73 In65 2.266 . S
O73 C70 1.252 . S
O74 In65 2.303 1_565 S
O74 C70 1.252 1_565 S
C75 O66 1.240 . S
C75 O67 1.252 . S
O76 In65 2.294 . S
O76 C69 1.240 . S
O77 In65 2.326 . S
O77 C69 1.252 . S
In78 O79 2.294 . S
In78 O80 2.326 . S
In78 O84 2.266 . S
In78 O85 2.326 . S
In78 O86 2.266 . S
In78 O87 2.326 . S
In78 O89 2.294 . S
In78 O90 2.326 . S
O79 In78 2.294 . S
O79 C88 1.240 . S
O80 In78 2.326 . S
O80 C88 1.252 . S
C81 O84 1.252 . S
C81 O85 1.260 . S
C82 O89 1.240 . S
C82 O90 1.252 . S
C83 O86 1.252 . S
C83 O87 1.260 . S
O84 In78 2.266 . S
O84 C81 1.252 . S
O85 In78 2.326 . S
O85 C81 1.260 . S
O86 In78 2.266 . S
O86 C83 1.252 . S
O87 In78 2.326 . S
O87 C83 1.260 . S
C88 O79 1.240 . S
C88 O80 1.252 . S
O89 In78 2.294 . S
O89 C82 1.240 . S
O90 In78 2.326 . S
O90 C82 1.252 . S
In91 O92 2.294 . S
In91 O93 2.326 . S
In91 O97 2.266 . S
In91 O98 2.303 1_655 S
In91 O99 2.265 . S
In91 O100 2.326 . S
In91 O102 2.294 . S
In91 O103 2.326 1_556 S
O92 In91 2.294 . S
O92 C101 1.240 . S
O93 In91 2.326 . S
O93 C101 1.252 . S
C94 O97 1.252 . S
C94 O98 1.252 1_655 S
C95 O102 1.240 1_554 S
C95 O103 1.252 . S
C96 O99 1.251 . S
C96 O100 1.260 . S
O97 In91 2.266 . S
O97 C94 1.252 . S
O98 In91 2.303 1_455 S
O98 C94 1.252 1_455 S
O99 In91 2.265 . S
O99 C96 1.251 . S
O100 In91 2.326 . S
O100 C96 1.260 . S
C101 O92 1.240 . S
C101 O93 1.252 . S
O102 In91 2.294 . S
O102 C95 1.240 1_556 S
O103 In91 2.326 1_554 S
O103 C95 1.252 . S
In104 O105 2.294 . S
In104 O106 2.326 . S
In104 O110 2.266 . S
In104 O111 2.321 1_565 S
In104 O112 2.264 . S
In104 O113 2.326 . S
In104 O115 2.294 . S
In104 O116 2.326 . S
O105 In104 2.294 . S
O105 C114 1.240 . S
O106 In104 2.326 . S
O106 C114 1.252 . S
C107 O110 1.252 . S
C107 O111 1.237 1_565 S
C108 O115 1.240 . S
C108 O116 1.252 . S
C109 O112 1.250 . S
C109 O113 1.260 . S
O110 In104 2.266 . S
O110 C107 1.252 . S
O111 In104 2.321 1_545 S
O111 C107 1.237 1_545 S
O112 In104 2.264 . S
O112 C109 1.250 . S
O113 In104 2.326 . S
O113 C109 1.260 . S
C114 O105 1.240 . S
C114 O106 1.252 . S
O115 In104 2.294 . S
O115 C108 1.240 . S
O116 In104 2.326 . S
O116 C108 1.252 . S
In117 O118 2.294 . S
In117 O119 2.326 . S
In117 O123 2.266 . S
In117 O124 2.326 . S
In117 O125 2.266 . S
In117 O126 2.326 . S
In117 O128 2.294 . S
In117 O129 2.326 . S
O118 In117 2.294 . S
O118 C127 1.240 . S
O119 In117 2.326 . S
O119 C127 1.252 . S
C120 O123 1.252 . S
C120 O124 1.260 . S
C121 O128 1.240 . S
C121 O129 1.252 . S
C122 O125 1.252 . S
C122 O126 1.260 . S
O123 In117 2.266 . S
O123 C120 1.252 . S
O124 In117 2.326 . S
O124 C120 1.260 . S
O125 In117 2.266 . S
O125 C122 1.252 . S
O126 In117 2.326 . S
O126 C122 1.260 . S
C127 O118 1.240 . S
C127 O119 1.252 . S
O128 In117 2.294 . S
O128 C121 1.240 . S
O129 In117 2.326 . S
O129 C121 1.252 . S
In130 O131 2.294 . S
In130 O132 2.326 1_556 S
In130 O136 2.265 . S
In130 O137 2.326 . S
In130 O138 2.266 . S
In130 O139 2.303 1_455 S
In130 O141 2.294 . S
In130 O142 2.326 . S
O131 In130 2.294 . S
O131 C140 1.240 1_556 S
O132 In130 2.326 1_554 S
O132 C140 1.252 . S
C133 O136 1.251 . S
C133 O137 1.260 . S
C134 O141 1.240 . S
C134 O142 1.252 . S
C135 O138 1.252 . S
C135 O139 1.252 1_455 S
O136 In130 2.265 . S
O136 C133 1.251 . S
O137 In130 2.326 . S
O137 C133 1.260 . S
O138 In130 2.266 . S
O138 C135 1.252 . S
O139 In130 2.303 1_655 S
O139 C135 1.252 1_655 S
C140 O131 1.240 1_554 S
C140 O132 1.252 . S
O141 In130 2.294 . S
O141 C134 1.240 . S
O142 In130 2.326 . S
O142 C134 1.252 . S
In143 O144 2.294 . S
In143 O145 2.326 . S
In143 O149 2.266 . S
In143 O150 2.321 1_545 S
In143 O151 2.264 . S
In143 O152 2.326 . S
In143 O154 2.294 . S
In143 O155 2.326 . S
O144 In143 2.294 . S
O144 C153 1.240 . S
O145 In143 2.326 . S
O145 C153 1.252 . S
C146 O149 1.252 . S
C146 O150 1.237 1_545 S
C147 O154 1.240 . S
C147 O155 1.252 . S
C148 O151 1.250 . S
C148 O152 1.260 . S
O149 In143 2.266 . S
O149 C146 1.252 . S
O150 In143 2.321 1_565 S
O150 C146 1.237 1_565 S
O151 In143 2.264 . S
O151 C148 1.250 . S
O152 In143 2.326 . S
O152 C148 1.260 . S
C153 O144 1.240 . S
C153 O145 1.252 . S
O154 In143 2.294 . S
O154 C147 1.240 . S
O155 In143 2.326 . S
O155 C147 1.252 . S
H156 C164 0.950 . S
H157 C169 0.950 . S
H158 C166 0.950 . S
H159 C168 0.950 . S
H160 C170 0.950 . S
H161 C172 0.950 . S
H162 C174 0.950 . S
H163 C175 0.950 . S
C164 H156 0.950 . S
C164 C165 1.386 . S
C164 C166 1.391 . S
C165 C164 1.386 . S
C165 C169 1.393 . S
C166 H158 0.950 . S
C166 C164 1.391 . S
C166 C167 1.400 . S
C167 C166 1.400 . S
C167 C168 1.398 . S
C167 C173 1.491 . S
C168 H159 0.950 . S
C168 C167 1.398 . S
C168 C169 1.391 . S
C169 H157 0.950 . S
C169 C165 1.393 . S
C169 C168 1.391 . S
C170 H160 0.950 . S
C170 C171 1.386 . S
C170 C172 1.391 . S
C171 C170 1.386 . S
C171 C175 1.393 . S
C172 H161 0.950 . S
C172 C170 1.391 . S
C172 C173 1.400 . S
C173 C167 1.491 . S
C173 C172 1.400 . S
C173 C174 1.398 . S
C174 H162 0.950 . S
C174 C173 1.398 . S
C174 C175 1.391 . S
C175 H163 0.950 . S
C175 C171 1.393 . S
C175 C174 1.391 . S
H176 C184 0.950 . S
H177 C189 0.950 . S
H178 C186 0.950 . S
H179 C188 0.950 . S
H180 C190 0.950 . S
H181 C192 0.950 . S
H182 C194 0.950 . S
H183 C195 0.950 . S
C184 H176 0.950 . S
C184 C185 1.386 1_455 S
C184 C186 1.391 . S
C185 C184 1.386 1_655 S
C185 C189 1.393 . S
C186 H178 0.950 . S
C186 C184 1.391 . S
C186 C187 1.400 1_455 S
C187 C186 1.400 1_655 S
C187 C188 1.398 . S
C187 C193 1.491 1_655 S
C188 H179 0.950 . S
C188 C187 1.398 . S
C188 C189 1.391 . S
C189 H177 0.950 . S
C189 C185 1.393 . S
C189 C188 1.391 . S
C190 H180 0.950 . S
C190 C191 1.386 1_655 S
C190 C192 1.391 . S
C191 C190 1.386 1_455 S
C191 C195 1.393 . S
C192 H181 0.950 . S
C192 C190 1.391 . S
C192 C193 1.400 1_655 S
C193 C187 1.491 1_455 S
C193 C192 1.400 1_455 S
C193 C194 1.398 . S
C194 H182 0.950 . S
C194 C193 1.398 . S
C194 C195 1.391 . S
C195 H183 0.950 . S
C195 C191 1.393 . S
C195 C194 1.391 . S
H196 C204 0.950 . S
H197 C209 0.950 . S
H198 C206 0.950 . S
H199 C208 0.950 . S
H200 C210 0.950 . S
H201 C212 0.950 . S
H202 C214 0.950 . S
H203 C215 0.950 . S
C204 H196 0.950 . S
C204 C205 1.386 . S
C204 C206 1.391 . S
C205 C204 1.386 . S
C205 C209 1.393 1_565 S
C206 H198 0.950 . S
C206 C204 1.391 . S
C206 C207 1.400 . S
C207 C206 1.400 . S
C207 C208 1.398 1_565 S
C207 C213 1.491 1_566 S
C208 H199 0.950 . S
C208 C207 1.398 1_545 S
C208 C209 1.391 . S
C209 H197 0.950 . S
C209 C205 1.393 1_545 S
C209 C208 1.391 . S
C210 H200 0.950 . S
C210 C211 1.386 . S
C210 C212 1.391 . S
C211 C210 1.386 . S
C211 C215 1.393 1_545 S
C212 H201 0.950 . S
C212 C210 1.391 . S
C212 C213 1.400 . S
C213 C207 1.491 1_544 S
C213 C212 1.400 . S
C213 C214 1.398 1_545 S
C214 H202 0.950 . S
C214 C213 1.398 1_565 S
C214 C215 1.391 . S
C215 H203 0.950 . S
C215 C211 1.393 1_565 S
C215 C214 1.391 . S
H216 C224 0.950 . S
H217 C229 0.950 . S
H218 C226 0.950 . S
H219 C228 0.950 . S
H220 C230 0.950 . S
H221 C232 0.950 . S
H222 C234 0.950 . S
H223 C235 0.950 . S
C224 H216 0.950 . S
C224 C225 1.386 . S
C224 C226 1.391 . S
C225 C224 1.386 . S
C225 C229 1.393 . S
C226 H218 0.950 . S
C226 C224 1.391 . S
C226 C227 1.400 . S
C227 C226 1.400 . S
C227 C228 1.398 . S
C227 C233 1.491 . S
C228 H219 0.950 . S
C228 C227 1.398 . S
C228 C229 1.391 . S
C229 H217 0.950 . S
C229 C225 1.393 . S
C229 C228 1.391 . S
C230 H220 0.950 . S
C230 C231 1.386 . S
C230 C232 1.391 . S
C231 C230 1.386 . S
C231 C235 1.393 . S
C232 H221 0.950 . S
C232 C230 1.391 . S
C232 C233 1.400 . S
C233 C227 1.491 . S
C233 C232 1.400 . S
C233 C234 1.398 . S
C234 H222 0.950 . S
C234 C233 1.398 . S
C234 C235 1.391 . S
C235 H223 0.950 . S
C235 C231 1.393 . S
C235 C234 1.391 . S
H236 C244 0.950 . S
H237 C249 0.950 . S
H238 C246 0.950 . S
H239 C248 0.950 . S
H240 C250 0.950 . S
H241 C252 0.950 . S
H242 C254 0.950 . S
H243 C255 0.950 . S
C244 H236 0.950 . S
C244 C245 1.386 1_455 S
C244 C246 1.391 . S
C245 C244 1.386 1_655 S
C245 C249 1.393 . S
C246 H238 0.950 . S
C246 C244 1.391 . S
C246 C247 1.400 1_455 S
C247 C246 1.400 1_655 S
C247 C248 1.398 . S
C247 C253 1.491 1_655 S
C248 H239 0.950 . S
C248 C247 1.398 . S
C248 C249 1.391 . S
C249 H237 0.950 . S
C249 C245 1.393 . S
C249 C248 1.391 . S
C250 H240 0.950 . S
C250 C251 1.386 1_655 S
C250 C252 1.391 . S
C251 C250 1.386 1_455 S
C251 C255 1.393 . S
C252 H241 0.950 . S
C252 C250 1.391 . S
C252 C253 1.400 1_655 S
C253 C247 1.491 1_455 S
C253 C252 1.400 1_455 S
C253 C254 1.398 . S
C254 H242 0.950 . S
C254 C253 1.398 . S
C254 C255 1.391 . S
C255 H243 0.950 . S
C255 C251 1.393 . S
C255 C254 1.391 . S
H256 C264 0.950 . S
H257 C269 0.950 . S
H258 C266 0.950 . S
H259 C268 0.950 . S
H260 C270 0.950 . S
H261 C272 0.950 . S
H262 C274 0.950 . S
H263 C275 0.950 . S
C264 H256 0.950 . S
C264 C265 1.386 1_545 S
C264 C266 1.391 . S
C265 C264 1.386 1_565 S
C265 C269 1.393 . S
C266 H258 0.950 . S
C266 C264 1.391 . S
C266 C267 1.400 1_545 S
C267 C266 1.400 1_565 S
C267 C268 1.398 . S
C267 C273 1.491 1_564 S
C268 H259 0.950 . S
C268 C267 1.398 . S
C268 C269 1.391 . S
C269 H257 0.950 . S
C269 C265 1.393 . S
C269 C268 1.391 . S
C270 H260 0.950 . S
C270 C271 1.386 1_565 S
C270 C272 1.391 . S
C271 C270 1.386 1_545 S
C271 C275 1.393 . S
C272 H261 0.950 . S
C272 C270 1.391 . S
C272 C273 1.400 1_565 S
C273 C267 1.491 1_546 S
C273 C272 1.400 1_545 S
C273 C274 1.398 . S
C274 H262 0.950 . S
C274 C273 1.398 . S
C274 C275 1.391 . S
C275 H263 0.950 . S
C275 C271 1.393 . S
C275 C274 1.391 . S
H276 C284 0.950 . S
H277 C289 0.950 1_554 S
H278 C286 0.950 . S
H279 C288 0.950 . S
H280 C290 0.950 . S
H281 C292 0.950 . S
H282 C294 0.950 . S
H283 C295 0.950 1_556 S
C284 H276 0.950 . S
C284 C285 1.386 . S
C284 C286 1.391 . S
C285 C284 1.386 . S
C285 C289 1.393 . S
C286 H278 0.950 . S
C286 C284 1.391 . S
C286 C287 1.400 . S
C287 C286 1.400 . S
C287 C288 1.398 1_556 S
C287 C293 1.491 1_556 S
C288 H279 0.950 . S
C288 C287 1.398 1_554 S
C288 C289 1.391 1_554 S
C289 H277 0.950 1_556 S
C289 C285 1.393 . S
C289 C288 1.391 1_556 S
C290 H280 0.950 . S
C290 C291 1.386 . S
C290 C292 1.391 . S
C291 C290 1.386 . S
C291 C295 1.393 . S
C292 H281 0.950 . S
C292 C290 1.391 . S
C292 C293 1.400 . S
C293 C287 1.491 1_554 S
C293 C292 1.400 . S
C293 C294 1.398 1_554 S
C294 H282 0.950 . S
C294 C293 1.398 1_556 S
C294 C295 1.391 1_556 S
C295 H283 0.950 1_554 S
C295 C291 1.393 . S
C295 C294 1.391 1_554 S
H296 C304 0.950 . S
H297 C309 0.950 . S
H298 C306 0.950 . S
H299 C308 0.950 . S
H300 C310 0.950 . S
H301 C312 0.950 . S
H302 C314 0.950 . S
H303 C315 0.950 . S
C304 H296 0.950 . S
C304 C305 1.386 . S
C304 C306 1.391 . S
C305 C304 1.386 . S
C305 C309 1.393 . S
C306 H298 0.950 . S
C306 C304 1.391 . S
C306 C307 1.400 . S
C307 C306 1.400 . S
C307 C308 1.398 . S
C307 C313 1.491 . S
C308 H299 0.950 . S
C308 C307 1.398 . S
C308 C309 1.391 . S
C309 H297 0.950 . S
C309 C305 1.393 . S
C309 C308 1.391 . S
C310 H300 0.950 . S
C310 C311 1.386 . S
C310 C312 1.391 . S
C311 C310 1.386 . S
C311 C315 1.393 . S
C312 H301 0.950 . S
C312 C310 1.391 . S
C312 C313 1.400 . S
C313 C307 1.491 . S
C313 C312 1.400 . S
C313 C314 1.398 . S
C314 H302 0.950 . S
C314 C313 1.398 . S
C314 C315 1.391 . S
C315 H303 0.950 . S
C315 C311 1.393 . S
C315 C314 1.391 . S
H316 C324 0.950 . S
H317 C329 0.950 . S
H318 C326 0.950 . S
H319 C328 0.950 . S
H320 C330 0.950 . S
H321 C332 0.950 . S
H322 C334 0.950 . S
H323 C335 0.950 . S
C324 H316 0.950 . S
C324 C325 1.386 . S
C324 C326 1.391 . S
C325 C324 1.386 . S
C325 C329 1.393 . S
C326 H318 0.950 . S
C326 C324 1.391 . S
C326 C327 1.400 . S
C327 C326 1.400 . S
C327 C328 1.398 . S
C327 C333 1.491 . S
C328 H319 0.950 . S
C328 C327 1.398 . S
C328 C329 1.391 . S
C329 H317 0.950 . S
C329 C325 1.393 . S
C329 C328 1.391 . S
C330 H320 0.950 . S
C330 C331 1.386 . S
C330 C332 1.391 . S
C331 C330 1.386 . S
C331 C335 1.393 . S
C332 H321 0.950 . S
C332 C330 1.391 . S
C332 C333 1.400 . S
C333 C327 1.491 . S
C333 C332 1.400 . S
C333 C334 1.398 . S
C334 H322 0.950 . S
C334 C333 1.398 . S
C334 C335 1.391 . S
C335 H323 0.950 . S
C335 C331 1.393 . S
C335 C334 1.391 . S
H336 C344 0.950 . S
H337 C349 0.950 . S
H338 C346 0.950 . S
H339 C348 0.950 . S
H340 C350 0.950 . S
H341 C352 0.950 . S
H342 C354 0.950 . S
H343 C355 0.950 . S
C344 H336 0.950 . S
C344 C345 1.386 . S
C344 C346 1.391 . S
C345 C344 1.386 . S
C345 C349 1.393 1_554 S
C346 H338 0.950 . S
C346 C344 1.391 . S
C346 C347 1.400 . S
C347 C346 1.400 . S
C347 C348 1.398 1_554 S
C347 C353 1.491 1_554 S
C348 H339 0.950 . S
C348 C347 1.398 1_556 S
C348 C349 1.391 . S
C349 H337 0.950 . S
C349 C345 1.393 1_556 S
C349 C348 1.391 . S
C350 H340 0.950 . S
C350 C351 1.386 . S
C350 C352 1.391 . S
C351 C350 1.386 . S
C351 C355 1.393 1_556 S
C352 H341 0.950 . S
C352 C350 1.391 . S
C352 C353 1.400 . S
C353 C347 1.491 1_556 S
C353 C352 1.400 . S
C353 C354 1.398 1_556 S
C354 H342 0.950 . S
C354 C353 1.398 1_554 S
C354 C355 1.391 . S
C355 H343 0.950 . S
C355 C351 1.393 1_554 S
C355 C354 1.391 . S
H356 C364 0.950 . S
H357 C369 0.950 . S
H358 C366 0.950 . S
H359 C368 0.950 . S
H360 C370 0.950 . S
H361 C372 0.950 . S
H362 C374 0.950 . S
H363 C375 0.950 . S
C364 H356 0.950 . S
C364 C365 1.386 . S
C364 C366 1.391 . S
C365 C364 1.386 . S
C365 C369 1.393 . S
C366 H358 0.950 . S
C366 C364 1.391 . S
C366 C367 1.400 . S
C367 C366 1.400 . S
C367 C368 1.398 . S
C367 C373 1.491 . S
C368 H359 0.950 . S
C368 C367 1.398 . S
C368 C369 1.391 . S
C369 H357 0.950 . S
C369 C365 1.393 . S
C369 C368 1.391 . S
C370 H360 0.950 . S
C370 C371 1.386 . S
C370 C372 1.391 . S
C371 C370 1.386 . S
C371 C375 1.393 . S
C372 H361 0.950 . S
C372 C370 1.391 . S
C372 C373 1.400 . S
C373 C367 1.491 . S
C373 C372 1.400 . S
C373 C374 1.398 . S
C374 H362 0.950 . S
C374 C373 1.398 . S
C374 C375 1.391 . S
C375 H363 0.950 . S
C375 C371 1.393 . S
C375 C374 1.391 . S
H376 C384 0.950 . S
H377 C389 0.950 . S
H378 C386 0.950 . S
H379 C388 0.950 . S
H380 C390 0.950 . S
H381 C392 0.950 . S
H382 C394 0.950 . S
H383 C395 0.950 . S
C384 H376 0.950 . S
C384 C385 1.386 . S
C384 C386 1.391 . S
C385 C384 1.386 . S
C385 C389 1.393 . S
C386 H378 0.950 . S
C386 C384 1.391 . S
C386 C387 1.400 . S
C387 C386 1.400 . S
C387 C388 1.398 . S
C387 C393 1.491 . S
C388 H379 0.950 . S
C388 C387 1.398 . S
C388 C389 1.391 . S
C389 H377 0.950 . S
C389 C385 1.393 . S
C389 C388 1.391 . S
C390 H380 0.950 . S
C390 C391 1.386 . S
C390 C392 1.391 . S
C391 C390 1.386 . S
C391 C395 1.393 . S
C392 H381 0.950 . S
C392 C390 1.391 . S
C392 C393 1.400 . S
C393 C387 1.491 . S
C393 C392 1.400 . S
C393 C394 1.398 . S
C394 H382 0.950 . S
C394 C393 1.398 . S
C394 C395 1.391 . S
C395 H383 0.950 . S
C395 C391 1.393 . S
C395 C394 1.391 . S
H396 C404 0.950 . S
H397 C409 0.950 . S
H398 C406 0.950 . S
H399 C408 0.950 . S
H400 C410 0.950 . S
H401 C412 0.950 . S
H402 C414 0.950 . S
H403 C415 0.950 . S
C404 H396 0.950 . S
C404 C405 1.386 . S
C404 C406 1.391 . S
C405 C404 1.386 . S
C405 C409 1.393 . S
C406 H398 0.950 . S
C406 C404 1.391 . S
C406 C407 1.400 . S
C407 C406 1.400 . S
C407 C408 1.398 . S
C407 C413 1.491 . S
C408 H399 0.950 . S
C408 C407 1.398 . S
C408 C409 1.391 . S
C409 H397 0.950 . S
C409 C405 1.393 . S
C409 C408 1.391 . S
C410 H400 0.950 . S
C410 C411 1.386 . S
C410 C412 1.391 . S
C411 C410 1.386 . S
C411 C415 1.393 . S
C412 H401 0.950 . S
C412 C410 1.391 . S
C412 C413 1.400 . S
C413 C407 1.491 . S
C413 C412 1.400 . S
C413 C414 1.398 . S
C414 H402 0.950 . S
C414 C413 1.398 . S
C414 C415 1.391 . S
C415 H403 0.950 . S
C415 C411 1.393 . S
C415 C414 1.391 . S
H416 C424 0.950 . S
H417 C429 0.950 . S
H418 C426 0.950 . S
H419 C428 0.950 . S
H420 C430 0.950 . S
H421 C432 0.950 . S
H422 C434 0.950 . S
H423 C435 0.950 . S
C424 H416 0.950 . S
C424 C425 1.386 . S
C424 C426 1.391 . S
C425 C424 1.386 . S
C425 C429 1.393 1_655 S
C426 H418 0.950 . S
C426 C424 1.391 . S
C426 C427 1.400 . S
C427 C426 1.400 . S
C427 C428 1.398 1_655 S
C427 C433 1.488 1_655 S
C428 H419 0.950 . S
C428 C427 1.398 1_455 S
C428 C429 1.391 . S
C429 H417 0.950 . S
C429 C425 1.393 1_455 S
C429 C428 1.391 . S
C430 H420 0.950 . S
C430 C431 1.386 . S
C430 C432 1.391 . S
C431 C430 1.386 . S
C431 C435 1.393 1_455 S
C432 H421 0.950 . S
C432 C430 1.391 . S
C432 C433 1.440 . S
C433 C427 1.488 1_455 S
C433 C432 1.440 . S
C433 C434 1.362 1_455 S
C434 H422 0.950 . S
C434 C433 1.362 1_655 S
C434 C435 1.391 . S
C435 H423 0.950 . S
C435 C431 1.393 1_655 S
C435 C434 1.391 . S
H436 C444 0.950 . S
H437 C449 0.950 . S
H438 C446 0.950 . S
H439 C448 0.950 . S
H440 C450 0.950 . S
H441 C452 0.950 . S
H442 C454 0.950 . S
H443 C455 0.950 . S
C444 H436 0.950 . S
C444 C445 1.386 1_545 S
C444 C446 1.391 . S
C445 C444 1.386 1_565 S
C445 C449 1.393 . S
C446 H438 0.950 . S
C446 C444 1.391 . S
C446 C447 1.400 1_545 S
C447 C446 1.400 1_565 S
C447 C448 1.398 . S
C447 C453 1.491 1_565 S
C448 H439 0.950 . S
C448 C447 1.398 . S
C448 C449 1.391 . S
C449 H437 0.950 . S
C449 C445 1.393 . S
C449 C448 1.391 . S
C450 H440 0.950 . S
C450 C451 1.386 1_565 S
C450 C452 1.391 . S
C451 C450 1.386 1_545 S
C451 C455 1.393 . S
C452 H441 0.950 . S
C452 C450 1.391 . S
C452 C453 1.400 1_565 S
C453 C447 1.491 1_545 S
C453 C452 1.400 1_545 S
C453 C454 1.398 . S
C454 H442 0.950 . S
C454 C453 1.398 . S
C454 C455 1.391 . S
C455 H443 0.950 . S
C455 C451 1.393 . S
C455 C454 1.391 . S
H456 C464 0.950 . S
H457 C469 0.950 . S
H458 C466 0.950 . S
H459 C468 0.950 . S
H460 C470 0.950 . S
H461 C472 0.950 . S
H462 C474 0.950 . S
H463 C475 0.950 . S
C464 H456 0.950 . S
C464 C465 1.386 . S
C464 C466 1.391 . S
C465 C464 1.386 . S
C465 C469 1.393 . S
C466 H458 0.950 . S
C466 C464 1.391 . S
C466 C467 1.400 . S
C467 C466 1.400 . S
C467 C468 1.398 . S
C467 C473 1.491 . S
C468 H459 0.950 . S
C468 C467 1.398 . S
C468 C469 1.391 . S
C469 H457 0.950 . S
C469 C465 1.393 . S
C469 C468 1.391 . S
C470 H460 0.950 . S
C470 C471 1.386 . S
C470 C472 1.391 . S
C471 C470 1.386 . S
C471 C475 1.393 . S
C472 H461 0.950 . S
C472 C470 1.391 . S
C472 C473 1.400 . S
C473 C467 1.491 . S
C473 C472 1.400 . S
C473 C474 1.398 . S
C474 H462 0.950 . S
C474 C473 1.398 . S
C474 C475 1.391 . S
C475 H463 0.950 . S
C475 C471 1.393 . S
C475 C474 1.391 . S
H476 C484 0.950 . S
H477 C489 0.953 1_655 S
H478 C486 0.950 . S
H479 C488 0.950 . S
H480 C490 0.950 . S
H481 C492 0.950 . S
H482 C494 0.950 . S
H483 C495 0.953 1_455 S
C484 H476 0.950 . S
C484 C485 1.386 . S
C484 C486 1.391 . S
C485 C484 1.386 . S
C485 C489 1.390 . S
C486 H478 0.950 . S
C486 C484 1.391 . S
C486 C487 1.400 . S
C487 C486 1.400 . S
C487 C488 1.398 1_455 S
C487 C493 1.491 1_455 S
C488 H479 0.950 . S
C488 C487 1.398 1_655 S
C488 C489 1.390 1_655 S
C489 H477 0.953 1_455 S
C489 C485 1.390 . S
C489 C488 1.390 1_455 S
C490 H480 0.950 . S
C490 C491 1.386 . S
C490 C492 1.391 . S
C491 C490 1.386 . S
C491 C495 1.390 . S
C492 H481 0.950 . S
C492 C490 1.391 . S
C492 C493 1.400 . S
C493 C487 1.491 1_655 S
C493 C492 1.400 . S
C493 C494 1.398 1_655 S
C494 H482 0.950 . S
C494 C493 1.398 1_455 S
C494 C495 1.390 1_455 S
C495 H483 0.953 1_655 S
C495 C491 1.390 . S
C495 C494 1.390 1_655 S
H496 C504 0.950 . S
H497 C509 0.950 . S
H498 C506 0.950 . S
H499 C508 0.950 . S
H500 C510 0.950 . S
H501 C512 0.950 . S
H502 C514 0.950 . S
H503 C515 0.950 . S
C504 H496 0.950 . S
C504 C505 1.386 . S
C504 C506 1.391 . S
C505 C504 1.386 . S
C505 C509 1.393 1_565 S
C506 H498 0.950 . S
C506 C504 1.391 . S
C506 C507 1.431 . S
C507 C506 1.431 . S
C507 C508 1.370 1_565 S
C507 C513 1.489 1_565 S
C508 H499 0.950 . S
C508 C507 1.370 1_545 S
C508 C509 1.391 . S
C509 H497 0.950 . S
C509 C505 1.393 1_545 S
C509 C508 1.391 . S
C510 H500 0.950 . S
C510 C511 1.386 . S
C510 C512 1.391 . S
C511 C510 1.386 . S
C511 C515 1.393 1_545 S
C512 H501 0.950 . S
C512 C510 1.391 . S
C512 C513 1.431 . S
C513 C507 1.489 1_545 S
C513 C512 1.431 . S
C513 C514 1.370 1_545 S
C514 H502 0.950 . S
C514 C513 1.370 1_565 S
C514 C515 1.391 . S
C515 H503 0.950 . S
C515 C511 1.393 1_565 S
C515 C514 1.391 . S
H516 C524 0.950 . S
H517 C529 0.950 . S
H518 C526 0.950 . S
H519 C528 0.950 . S
H520 C530 0.950 . S
H521 C532 0.950 . S
H522 C534 0.950 . S
H523 C535 0.950 . S
C524 H516 0.950 . S
C524 C525 1.386 . S
C524 C526 1.391 . S
C525 C524 1.386 . S
C525 C529 1.393 . S
C526 H518 0.950 . S
C526 C524 1.391 . S
C526 C527 1.400 . S
C527 C526 1.400 . S
C527 C528 1.398 . S
C527 C533 1.491 . S
C528 H519 0.950 . S
C528 C527 1.398 . S
C528 C529 1.391 . S
C529 H517 0.950 . S
C529 C525 1.393 . S
C529 C528 1.391 . S
C530 H520 0.950 . S
C530 C531 1.386 . S
C530 C532 1.391 . S
C531 C530 1.386 . S
C531 C535 1.393 . S
C532 H521 0.950 . S
C532 C530 1.391 . S
C532 C533 1.400 . S
C533 C527 1.491 . S
C533 C532 1.400 . S
C533 C534 1.398 . S
C534 H522 0.950 . S
C534 C533 1.398 . S
C534 C535 1.391 . S
C535 H523 0.950 . S
C535 C531 1.393 . S
C535 C534 1.391 . S
H536 C544 0.950 . S
H537 C549 0.950 . S
H538 C546 0.950 . S
H539 C548 0.950 . S
H540 C550 0.950 . S
H541 C552 0.950 . S
H542 C554 0.950 . S
H543 C555 0.950 . S
C544 H536 0.950 . S
C544 C545 1.386 1_655 S
C544 C546 1.391 . S
C545 C544 1.386 1_455 S
C545 C549 1.393 . S
C546 H538 0.950 . S
C546 C544 1.391 . S
C546 C547 1.400 1_655 S
C547 C546 1.400 1_455 S
C547 C548 1.398 . S
C547 C553 1.491 1_455 S
C548 H539 0.950 . S
C548 C547 1.398 . S
C548 C549 1.391 . S
C549 H537 0.950 . S
C549 C545 1.393 . S
C549 C548 1.391 . S
C550 H540 0.950 . S
C550 C551 1.386 1_455 S
C550 C552 1.391 . S
C551 C550 1.386 1_655 S
C551 C555 1.393 . S
C552 H541 0.950 . S
C552 C550 1.391 . S
C552 C553 1.400 1_455 S
C553 C547 1.491 1_655 S
C553 C552 1.400 1_655 S
C553 C554 1.398 . S
C554 H542 0.950 . S
C554 C553 1.398 . S
C554 C555 1.391 . S
C555 H543 0.950 . S
C555 C551 1.393 . S
C555 C554 1.391 . S
H556 C564 0.950 1_545 S
H557 C569 0.950 . S
H558 C566 0.950 . S
H559 C568 0.950 . S
H560 C570 0.950 1_565 S
H561 C572 0.950 . S
H562 C574 0.950 . S
H563 C575 0.950 . S
C564 H556 0.950 1_565 S
C564 C565 1.386 . S
C564 C566 1.391 1_565 S
C565 C564 1.386 . S
C565 C569 1.393 . S
C566 H558 0.950 . S
C566 C564 1.391 1_545 S
C566 C567 1.400 1_545 S
C567 C566 1.400 1_565 S
C567 C568 1.398 . S
C567 C573 1.491 1_565 S
C568 H559 0.950 . S
C568 C567 1.398 . S
C568 C569 1.391 . S
C569 H557 0.950 . S
C569 C565 1.393 . S
C569 C568 1.391 . S
C570 H560 0.950 1_545 S
C570 C571 1.386 . S
C570 C572 1.391 1_545 S
C571 C570 1.386 . S
C571 C575 1.393 . S
C572 H561 0.950 . S
C572 C570 1.391 1_565 S
C572 C573 1.400 1_565 S
C573 C567 1.491 1_545 S
C573 C572 1.400 1_545 S
C573 C574 1.398 . S
C574 H562 0.950 . S
C574 C573 1.398 . S
C574 C575 1.391 . S
C575 H563 0.950 . S
C575 C571 1.393 . S
C575 C574 1.391 . S
H576 C584 0.950 . S
H577 C589 0.950 . S
H578 C586 0.950 . S
H579 C588 0.950 . S
H580 C590 0.950 . S
H581 C592 0.950 . S
H582 C594 0.950 . S
H583 C595 0.950 . S
C584 H576 0.950 . S
C584 C585 1.386 . S
C584 C586 1.391 . S
C585 C584 1.386 . S
C585 C589 1.393 . S
C586 H578 0.950 . S
C586 C584 1.391 . S
C586 C587 1.400 . S
C587 C586 1.400 . S
C587 C588 1.398 . S
C587 C593 1.491 . S
C588 H579 0.950 . S
C588 C587 1.398 . S
C588 C589 1.391 . S
C589 H577 0.950 . S
C589 C585 1.393 . S
C589 C588 1.391 . S
C590 H580 0.950 . S
C590 C591 1.386 . S
C590 C592 1.391 . S
C591 C590 1.386 . S
C591 C595 1.393 . S
C592 H581 0.950 . S
C592 C590 1.391 . S
C592 C593 1.400 . S
C593 C587 1.491 . S
C593 C592 1.400 . S
C593 C594 1.398 . S
C594 H582 0.950 . S
C594 C593 1.398 . S
C594 C595 1.391 . S
C595 H583 0.950 . S
C595 C591 1.393 . S
C595 C594 1.391 . S
H596 C604 0.950 . S
H597 C609 0.950 . S
H598 C606 0.960 . S
H599 C608 0.950 . S
H600 C610 0.950 . S
H601 C612 0.960 . S
H602 C614 0.950 . S
H603 C615 0.950 . S
C604 H596 0.950 . S
C604 C605 1.386 . S
C604 C606 1.391 . S
C605 C604 1.386 . S
C605 C609 1.393 . S
C606 H598 0.960 . S
C606 C604 1.391 . S
C606 C607 1.400 . S
C607 C606 1.400 . S
C607 C608 1.398 . S
C607 C613 1.491 1_655 S
C608 H599 0.950 . S
C608 C607 1.398 . S
C608 C609 1.391 . S
C609 H597 0.950 . S
C609 C605 1.393 . S
C609 C608 1.391 . S
C610 H600 0.950 . S
C610 C611 1.386 . S
C610 C612 1.391 . S
C611 C610 1.386 . S
C611 C615 1.393 . S
C612 H601 0.960 . S
C612 C610 1.391 . S
C612 C613 1.400 . S
C613 C607 1.491 1_455 S
C613 C612 1.400 . S
C613 C614 1.398 . S
C614 H602 0.950 . S
C614 C613 1.398 . S
C614 C615 1.391 . S
C615 H603 0.950 . S
C615 C611 1.393 . S
C615 C614 1.391 . S
H616 C624 0.950 . S
H617 C629 0.950 . S
H618 C626 0.950 . S
H619 C628 0.950 . S
H620 C630 0.950 . S
H621 C632 0.950 . S
H622 C634 0.950 . S
H623 C635 0.950 . S
C624 H616 0.950 . S
C624 C625 1.386 . S
C624 C626 1.391 . S
C625 C624 1.386 . S
C625 C629 1.393 1_545 S
C626 H618 0.950 . S
C626 C624 1.391 . S
C626 C627 1.400 . S
C627 C626 1.400 . S
C627 C628 1.398 1_545 S
C627 C633 1.491 1_545 S
C628 H619 0.950 . S
C628 C627 1.398 1_565 S
C628 C629 1.391 . S
C629 H617 0.950 . S
C629 C625 1.393 1_565 S
C629 C628 1.391 . S
C630 H620 0.950 . S
C630 C631 1.386 . S
C630 C632 1.391 . S
C631 C630 1.386 . S
C631 C635 1.393 1_565 S
C632 H621 0.950 . S
C632 C630 1.391 . S
C632 C633 1.400 . S
C633 C627 1.491 1_565 S
C633 C632 1.400 . S
C633 C634 1.398 1_565 S
C634 H622 0.950 . S
C634 C633 1.398 1_545 S
C634 C635 1.391 . S
C635 H623 0.950 . S
C635 C631 1.393 1_545 S
C635 C634 1.391 . S
C165 C5 1.405 . S
C171 C122 1.413 . S
C185 C16 1.406 . S
C191 C133 1.413 . S
C205 C31 1.412 . S
C211 C148 1.402 . S
C225 C42 1.412 . S
C231 C83 1.410 . S
C245 C96 1.398 . S
C251 C57 1.404 . S
C265 C109 1.408 . S
C271 C68 1.412 . S
C285 C134 1.612 . S
C291 C10 1.614 . S
C305 C17 1.621 . S
C311 C153 1.622 . S
C325 C36 1.617 . S
C331 C88 1.620 . S
C345 C43 1.613 . S
C351 C101 1.615 . S
C365 C62 1.613 . S
C371 C114 1.616 . S
C385 C69 1.616 . S
C391 C127 1.614 . S
C405 C121 1.087 . S
C411 C4 1.101 . S
C425 C23 1.093 . S
C431 C140 1.104 . S
C445 C30 1.084 . S
C451 C147 1.079 . S
C465 C82 1.090 . S
C471 C49 1.102 . S
C485 C56 1.079 . S
C491 C95 1.084 . S
C505 C108 1.097 . S
C511 C75 1.104 . S
C525 C3 1.609 . S
C531 C44 1.610 . S
C545 C55 1.607 . S
C551 C18 1.613 . S
C565 C29 1.608 . S
C571 C70 1.611 . S
C585 C81 1.609 . S
C591 C120 1.613 . S
C605 C94 1.609 . S
C611 C135 1.610 . S
C625 C146 1.611 . S
C631 C107 1.608 . S
