# Generated by pormake.
# Topology ums, (4)-cn, num edge types: 1
# Building blocks:
#     Node 0, Type 0, BuildingBlock: CEKHIL_clean_sbu_0, # of connection points: 4
#     Node 1, Type 0, BuildingBlock: CEKHIL_clean_sbu_0, # of connection points: 4
#     Node 2, Type 0, BuildingBlock: CEKHIL_clean_sbu_0, # of connection points: 4
#     Node 3, Type 0, BuildingBlock: CEKHIL_clean_sbu_0, # of connection points: 4
#     Node 4, Type 0, BuildingBlock: CEKHIL_clean_sbu_0, # of connection points: 4
#     Node 5, Type 0, BuildingBlock: CEKHIL_clean_sbu_0, # of connection points: 4
#     Node 6, Type 0, BuildingBlock: CEKHIL_clean_sbu_0, # of connection points: 4
#     Node 7, Type 0, BuildingBlock: CEKHIL_clean_sbu_0, # of connection points: 4
#     Node 8, Type 0, BuildingBlock: CEKHIL_clean_sbu_0, # of connection points: 4
#     Node 9, Type 0, BuildingBlock: CEKHIL_clean_sbu_0, # of connection points: 4
#     Node 10, Type 0, BuildingBlock: CEKHIL_clean_sbu_0, # of connection points: 4
#     Node 11, Type 0, BuildingBlock: CEKHIL_clean_sbu_0, # of connection points: 4
#     Node 12, Type 0, BuildingBlock: CEKHIL_clean_sbu_0, # of connection points: 4
#     Node 13, Type 0, BuildingBlock: CEKHIL_clean_sbu_0, # of connection points: 4
#     Node 14, Type 0, BuildingBlock: CEKHIL_clean_sbu_0, # of connection points: 4
#     Node 15, Type 0, BuildingBlock: CEKHIL_clean_sbu_0, # of connection points: 4
#     Node 16, Type 0, BuildingBlock: CEKHIL_clean_sbu_0, # of connection points: 4
#     Node 17, Type 0, BuildingBlock: CEKHIL_clean_sbu_0, # of connection points: 4
#     Node 18, Type 0, BuildingBlock: CEKHIL_clean_sbu_0, # of connection points: 4
#     Node 19, Type 0, BuildingBlock: CEKHIL_clean_sbu_0, # of connection points: 4
#     Node 20, Type 0, BuildingBlock: CEKHIL_clean_sbu_0, # of connection points: 4
#     Node 21, Type 0, BuildingBlock: CEKHIL_clean_sbu_0, # of connection points: 4
#     Node 22, Type 0, BuildingBlock: CEKHIL_clean_sbu_0, # of connection points: 4
#     Node 23, Type 0, BuildingBlock: CEKHIL_clean_sbu_0, # of connection points: 4
#     Node 24, Type 0, BuildingBlock: CEKHIL_clean_sbu_0, # of connection points: 4
#     Node 25, Type 0, BuildingBlock: CEKHIL_clean_sbu_0, # of connection points: 4
#     Node 26, Type 0, BuildingBlock: CEKHIL_clean_sbu_0, # of connection points: 4
#     Node 27, Type 0, BuildingBlock: CEKHIL_clean_sbu_0, # of connection points: 4
#     Node 28, Type 0, BuildingBlock: CEKHIL_clean_sbu_0, # of connection points: 4
#     Node 29, Type 0, BuildingBlock: CEKHIL_clean_sbu_0, # of connection points: 4
#     Node 30, Type 0, BuildingBlock: CEKHIL_clean_sbu_0, # of connection points: 4
#     Node 31, Type 0, BuildingBlock: CEKHIL_clean_sbu_0, # of connection points: 4
#     Node 32, Type 0, BuildingBlock: CEKHIL_clean_sbu_0, # of connection points: 4
#     Node 33, Type 0, BuildingBlock: CEKHIL_clean_sbu_0, # of connection points: 4
#     Node 34, Type 0, BuildingBlock: CEKHIL_clean_sbu_0, # of connection points: 4
#     Node 35, Type 0, BuildingBlock: CEKHIL_clean_sbu_0, # of connection points: 4
#     Edge 36, Type (0, 0), BuildingBlock: AJUNOK_clean_linker_0, # of connection points: 2
#     Edge 37, Type (0, 0), BuildingBlock: AJUNOK_clean_linker_0, # of connection points: 2
#     Edge 38, Type (0, 0), BuildingBlock: AJUNOK_clean_linker_0, # of connection points: 2
#     Edge 39, Type (0, 0), BuildingBlock: AJUNOK_clean_linker_0, # of connection points: 2
#     Edge 40, Type (0, 0), BuildingBlock: AJUNOK_clean_linker_0, # of connection points: 2
#     Edge 41, Type (0, 0), BuildingBlock: AJUNOK_clean_linker_0, # of connection points: 2
#     Edge 42, Type (0, 0), BuildingBlock: AJUNOK_clean_linker_0, # of connection points: 2
#     Edge 43, Type (0, 0), BuildingBlock: AJUNOK_clean_linker_0, # of connection points: 2
#     Edge 44, Type (0, 0), BuildingBlock: AJUNOK_clean_linker_0, # of connection points: 2
#     Edge 45, Type (0, 0), BuildingBlock: AJUNOK_clean_linker_0, # of connection points: 2
#     Edge 46, Type (0, 0), BuildingBlock: AJUNOK_clean_linker_0, # of connection points: 2
#     Edge 47, Type (0, 0), BuildingBlock: AJUNOK_clean_linker_0, # of connection points: 2
#     Edge 48, Type (0, 0), BuildingBlock: AJUNOK_clean_linker_0, # of connection points: 2
#     Edge 49, Type (0, 0), BuildingBlock: AJUNOK_clean_linker_0, # of connection points: 2
#     Edge 50, Type (0, 0), BuildingBlock: AJUNOK_clean_linker_0, # of connection points: 2
#     Edge 51, Type (0, 0), BuildingBlock: AJUNOK_clean_linker_0, # of connection points: 2
#     Edge 52, Type (0, 0), BuildingBlock: AJUNOK_clean_linker_0, # of connection points: 2
#     Edge 53, Type (0, 0), BuildingBlock: AJUNOK_clean_linker_0, # of connection points: 2
#     Edge 54, Type (0, 0), BuildingBlock: AJUNOK_clean_linker_0, # of connection points: 2
#     Edge 55, Type (0, 0), BuildingBlock: AJUNOK_clean_linker_0, # of connection points: 2
#     Edge 56, Type (0, 0), BuildingBlock: AJUNOK_clean_linker_0, # of connection points: 2
#     Edge 57, Type (0, 0), BuildingBlock: AJUNOK_clean_linker_0, # of connection points: 2
#     Edge 58, Type (0, 0), BuildingBlock: AJUNOK_clean_linker_0, # of connection points: 2
#     Edge 59, Type (0, 0), BuildingBlock: AJUNOK_clean_linker_0, # of connection points: 2
#     Edge 60, Type (0, 0), BuildingBlock: AJUNOK_clean_linker_0, # of connection points: 2
#     Edge 61, Type (0, 0), BuildingBlock: AJUNOK_clean_linker_0, # of connection points: 2
#     Edge 62, Type (0, 0), BuildingBlock: AJUNOK_clean_linker_0, # of connection points: 2
#     Edge 63, Type (0, 0), BuildingBlock: AJUNOK_clean_linker_0, # of connection points: 2
#     Edge 64, Type (0, 0), BuildingBlock: AJUNOK_clean_linker_0, # of connection points: 2
#     Edge 65, Type (0, 0), BuildingBlock: AJUNOK_clean_linker_0, # of connection points: 2
#     Edge 66, Type (0, 0), BuildingBlock: AJUNOK_clean_linker_0, # of connection points: 2
#     Edge 67, Type (0, 0), BuildingBlock: AJUNOK_clean_linker_0, # of connection points: 2
#     Edge 68, Type (0, 0), BuildingBlock: AJUNOK_clean_linker_0, # of connection points: 2
#     Edge 69, Type (0, 0), BuildingBlock: AJUNOK_clean_linker_0, # of connection points: 2
#     Edge 70, Type (0, 0), BuildingBlock: AJUNOK_clean_linker_0, # of connection points: 2
#     Edge 71, Type (0, 0), BuildingBlock: AJUNOK_clean_linker_0, # of connection points: 2
#     Edge 72, Type (0, 0), BuildingBlock: AJUNOK_clean_linker_0, # of connection points: 2
#     Edge 73, Type (0, 0), BuildingBlock: AJUNOK_clean_linker_0, # of connection points: 2
#     Edge 74, Type (0, 0), BuildingBlock: AJUNOK_clean_linker_0, # of connection points: 2
#     Edge 75, Type (0, 0), BuildingBlock: AJUNOK_clean_linker_0, # of connection points: 2
#     Edge 76, Type (0, 0), BuildingBlock: AJUNOK_clean_linker_0, # of connection points: 2
#     Edge 77, Type (0, 0), BuildingBlock: AJUNOK_clean_linker_0, # of connection points: 2
#     Edge 78, Type (0, 0), BuildingBlock: AJUNOK_clean_linker_0, # of connection points: 2
#     Edge 79, Type (0, 0), BuildingBlock: AJUNOK_clean_linker_0, # of connection points: 2
#     Edge 80, Type (0, 0), BuildingBlock: AJUNOK_clean_linker_0, # of connection points: 2
#     Edge 81, Type (0, 0), BuildingBlock: AJUNOK_clean_linker_0, # of connection points: 2
#     Edge 82, Type (0, 0), BuildingBlock: AJUNOK_clean_linker_0, # of connection points: 2
#     Edge 83, Type (0, 0), BuildingBlock: AJUNOK_clean_linker_0, # of connection points: 2
#     Edge 84, Type (0, 0), BuildingBlock: AJUNOK_clean_linker_0, # of connection points: 2
#     Edge 85, Type (0, 0), BuildingBlock: AJUNOK_clean_linker_0, # of connection points: 2
#     Edge 86, Type (0, 0), BuildingBlock: AJUNOK_clean_linker_0, # of connection points: 2
#     Edge 87, Type (0, 0), BuildingBlock: AJUNOK_clean_linker_0, # of connection points: 2
#     Edge 88, Type (0, 0), BuildingBlock: AJUNOK_clean_linker_0, # of connection points: 2
#     Edge 89, Type (0, 0), BuildingBlock: AJUNOK_clean_linker_0, # of connection points: 2
#     Edge 90, Type (0, 0), BuildingBlock: AJUNOK_clean_linker_0, # of connection points: 2
#     Edge 91, Type (0, 0), BuildingBlock: AJUNOK_clean_linker_0, # of connection points: 2
#     Edge 92, Type (0, 0), BuildingBlock: AJUNOK_clean_linker_0, # of connection points: 2
#     Edge 93, Type (0, 0), BuildingBlock: AJUNOK_clean_linker_0, # of connection points: 2
#     Edge 94, Type (0, 0), BuildingBlock: AJUNOK_clean_linker_0, # of connection points: 2
#     Edge 95, Type (0, 0), BuildingBlock: AJUNOK_clean_linker_0, # of connection points: 2
#     Edge 96, Type (0, 0), BuildingBlock: AJUNOK_clean_linker_0, # of connection points: 2
#     Edge 97, Type (0, 0), BuildingBlock: AJUNOK_clean_linker_0, # of connection points: 2
#     Edge 98, Type (0, 0), BuildingBlock: AJUNOK_clean_linker_0, # of connection points: 2
#     Edge 99, Type (0, 0), BuildingBlock: AJUNOK_clean_linker_0, # of connection points: 2
#     Edge 100, Type (0, 0), BuildingBlock: AJUNOK_clean_linker_0, # of connection points: 2
#     Edge 101, Type (0, 0), BuildingBlock: AJUNOK_clean_linker_0, # of connection points: 2
#     Edge 102, Type (0, 0), BuildingBlock: AJUNOK_clean_linker_0, # of connection points: 2
#     Edge 103, Type (0, 0), BuildingBlock: AJUNOK_clean_linker_0, # of connection points: 2
#     Edge 104, Type (0, 0), BuildingBlock: AJUNOK_clean_linker_0, # of connection points: 2
#     Edge 105, Type (0, 0), BuildingBlock: AJUNOK_clean_linker_0, # of connection points: 2
#     Edge 106, Type (0, 0), BuildingBlock: AJUNOK_clean_linker_0, # of connection points: 2
#     Edge 107, Type (0, 0), BuildingBlock: AJUNOK_clean_linker_0, # of connection points: 2
# Relax obj value: 0.196
# Max RMSD: 0.151
# Mean RMSD: 0.149
data_MOF--net-ums--node1-CEKHIL_clean_sbu_0--edge1-AJUNOK_clean_linker_0
_symmetry_space_group_name_H-M    P1
_symmetry_Int_Tables_number       1
_symmetry_cell_setting            triclinic
loop_
_symmetry_equiv_pos_as_xyz
'x, y, z'
_cell_length_a     72.97945
_cell_length_b     72.976005
_cell_length_c     17.479229
_cell_angle_alpha  90.004145
_cell_angle_beta   90.023201
_cell_angle_gamma 119.97289
loop_
_atom_site_label
_atom_site_type_symbol
_atom_site_fract_x
_atom_site_fract_y
_atom_site_fract_z
_atom_type_partial_charge
Co0 Co 0.19524 0.27214 0.22391 0.0
O1 O 0.21821 0.2705 0.27165 0.0
O2 O 0.19172 0.24403 0.21069 0.0
C3 C 0.21628 0.30358 0.16536 0.0
O4 O 0.16955 0.26806 0.16237 0.0
Co5 Co 0.18684 0.3094 0.2573 0.0
O6 O 0.1661 0.29693 0.173 0.0
C7 C 0.17553 0.27559 0.37153 0.0
C8 C 0.20975 0.2513 0.24589 0.0
C9 C 0.16048 0.27878 0.1447 0.0
O10 O 0.1785 0.26389 0.32339 0.0
O11 O 0.18005 0.29461 0.35793 0.0
O12 O 0.21323 0.28606 0.13453 0.0
O13 O 0.20771 0.3016 0.23137 0.0
Co14 Co 0.75182 0.92779 0.22612 0.0
O15 O 0.75326 0.95222 0.27462 0.0
O16 O 0.7798 0.95255 0.21306 0.0
C17 C 0.72034 0.9173 0.16771 0.0
O18 O 0.75608 0.90639 0.16388 0.0
Co19 Co 0.71483 0.88199 0.25885 0.0
O20 O 0.72729 0.874 0.17383 0.0
C21 C 0.74887 0.9043 0.37262 0.0
C22 C 0.77244 0.96315 0.24887 0.0
C23 C 0.74541 0.88663 0.1457 0.0
O24 O 0.76026 0.91934 0.32528 0.0
O25 O 0.72999 0.88956 0.35879 0.0
O26 O 0.73781 0.93189 0.13712 0.0
O27 O 0.72236 0.91063 0.23355 0.0
Co28 Co 0.09528 0.82843 0.22544 0.0
O29 O 0.07024 0.80559 0.27181 0.0
O30 O 0.07128 0.83278 0.2122 0.0
C31 C 0.10525 0.80712 0.16612 0.0
O32 O 0.11723 0.85412 0.16512 0.0
Co33 Co 0.14061 0.83608 0.25876 0.0
O34 O 0.14931 0.857 0.17495 0.0
C35 C 0.11854 0.8478 0.3735 0.0
C36 C 0.06007 0.81476 0.24688 0.0
C37 C 0.13698 0.86297 0.14729 0.0
O38 O 0.10379 0.84481 0.32573 0.0
O39 O 0.13301 0.84327 0.35944 0.0
O40 O 0.09106 0.81061 0.13535 0.0
O41 O 0.11186 0.81545 0.23249 0.0
Co42 Co 0.2763 0.1899 0.27684 0.0
O43 O 0.27485 0.21295 0.22888 0.0
O44 O 0.24827 0.18659 0.28976 0.0
C45 C 0.30773 0.21085 0.3357 0.0
O46 O 0.27207 0.16418 0.33852 0.0
Co47 Co 0.31342 0.18128 0.24379 0.0
O48 O 0.30086 0.16057 0.32806 0.0
C49 C 0.27955 0.16983 0.12962 0.0
C50 C 0.25566 0.20462 0.25455 0.0
C51 C 0.28272 0.15503 0.35625 0.0
O52 O 0.26799 0.1731 0.17744 0.0
O53 O 0.29852 0.1742 0.14332 0.0
O54 O 0.29022 0.20789 0.36624 0.0
O55 O 0.30577 0.20226 0.2697 0.0
Co56 Co 0.83277 0.09101 0.27587 0.0
O57 O 0.80979 0.0662 0.22919 0.0
O58 O 0.83664 0.06665 0.28932 0.0
C59 C 0.81162 0.10123 0.33504 0.0
O60 O 0.85851 0.11284 0.3365 0.0
Co61 Co 0.8407 0.13644 0.24199 0.0
O62 O 0.8616 0.145 0.3259 0.0
C63 C 0.85234 0.11416 0.12786 0.0
C64 C 0.81851 0.05569 0.25502 0.0
C65 C 0.86746 0.13263 0.35399 0.0
O66 O 0.84932 0.09946 0.17593 0.0
O67 O 0.84777 0.12863 0.14146 0.0
O68 O 0.81494 0.08692 0.36571 0.0
O69 O 0.82001 0.10779 0.26873 0.0
Co70 Co 0.93247 0.74758 0.27681 0.0
O71 O 0.95745 0.74957 0.23064 0.0
O72 O 0.95659 0.77587 0.2899 0.0
C73 C 0.9223 0.71634 0.33656 0.0
O74 O 0.91058 0.7515 0.33686 0.0
Co75 Co 0.88708 0.71005 0.24321 0.0
O76 O 0.87848 0.72236 0.32705 0.0
C77 C 0.90928 0.74382 0.12859 0.0
C78 C 0.96772 0.76892 0.25543 0.0
C79 C 0.89083 0.74064 0.35468 0.0
O80 O 0.92407 0.75551 0.17637 0.0
O81 O 0.89473 0.72487 0.1426 0.0
O82 O 0.93658 0.734 0.36714 0.0
O83 O 0.91577 0.71806 0.27003 0.0
Co84 Co 0.83432 0.74802 0.77663 0.0
O85 O 0.81142 0.75018 0.7305 0.0
O86 O 0.83864 0.77636 0.78988 0.0
C87 C 0.81314 0.7168 0.83628 0.0
O88 O 0.86006 0.75174 0.83668 0.0
Co89 Co 0.8419 0.71029 0.7429 0.0
O90 O 0.86278 0.72244 0.82691 0.0
C91 C 0.85363 0.74413 0.62839 0.0
C92 C 0.82057 0.76951 0.75545 0.0
C93 C 0.86882 0.74075 0.85456 0.0
O94 O 0.85063 0.75588 0.67619 0.0
O95 O 0.84912 0.72513 0.64235 0.0
O96 O 0.81663 0.7345 0.86693 0.0
O97 O 0.82136 0.71848 0.76973 0.0
Co98 Co 0.27453 0.08973 0.77702 0.0
O99 O 0.27258 0.0648 0.73051 0.0
O100 O 0.24605 0.06575 0.78746 0.0
C101 C 0.30513 0.09943 0.84046 0.0
O102 O 0.27055 0.11155 0.83716 0.0
Co103 Co 0.31258 0.135 0.74677 0.0
O104 O 0.30034 0.14327 0.83187 0.0
C105 C 0.27915 0.11395 0.63008 0.0
C106 C 0.25309 0.05459 0.75376 0.0
C107 C 0.28183 0.13104 0.85789 0.0
O108 O 0.26738 0.09869 0.67607 0.0
O109 O 0.298 0.12848 0.64573 0.0
O110 O 0.28717 0.08505 0.86869 0.0
O111 O 0.30418 0.10618 0.77334 0.0
Co112 Co 0.93277 0.18899 0.7754 0.0
O113 O 0.95774 0.21193 0.72925 0.0
O114 O 0.95669 0.18438 0.786 0.0
C115 C 0.92315 0.20992 0.83885 0.0
O116 O 0.91083 0.1632 0.83524 0.0
Co117 Co 0.88759 0.18205 0.74467 0.0
O118 O 0.87921 0.16152 0.82973 0.0
C119 C 0.90885 0.17007 0.62755 0.0
C120 C 0.96791 0.2026 0.75259 0.0
C121 C 0.89135 0.15512 0.85589 0.0
O122 O 0.92382 0.17302 0.67418 0.0
O123 O 0.89447 0.17463 0.64309 0.0
O124 O 0.93747 0.20624 0.8672 0.0
O125 O 0.91642 0.20228 0.77165 0.0
Co126 Co 0.75276 0.82927 0.72447 0.0
O127 O 0.7548 0.80634 0.77093 0.0
O128 O 0.78122 0.83376 0.71345 0.0
C129 C 0.72202 0.8083 0.66175 0.0
O130 O 0.7567 0.85507 0.66446 0.0
Co131 Co 0.71478 0.83657 0.75553 0.0
O132 O 0.72723 0.85754 0.67194 0.0
C133 C 0.74846 0.84908 0.87135 0.0
C134 C 0.77427 0.81562 0.74738 0.0
C135 C 0.74569 0.86373 0.6456 0.0
O136 O 0.76011 0.84547 0.8252 0.0
O137 O 0.72959 0.84479 0.85615 0.0
O138 O 0.73994 0.81186 0.63314 0.0
O139 O 0.7231 0.8161 0.72879 0.0
Co140 Co 0.1935 0.92694 0.72556 0.0
O141 O 0.21635 0.95207 0.77156 0.0
O142 O 0.18911 0.95091 0.71187 0.0
C143 C 0.21478 0.9169 0.66643 0.0
O144 O 0.16781 0.90487 0.66549 0.0
Co145 Co 0.18599 0.88167 0.75959 0.0
O146 O 0.16515 0.8729 0.67541 0.0
C147 C 0.17421 0.90382 0.87387 0.0
C148 C 0.20715 0.96219 0.74636 0.0
C149 C 0.15909 0.88513 0.64763 0.0
O150 O 0.17717 0.91853 0.82596 0.0
O151 O 0.17876 0.88935 0.86002 0.0
O152 O 0.21126 0.93105 0.63542 0.0
O153 O 0.20651 0.91041 0.73292 0.0
Co154 Co 0.09542 0.27077 0.72341 0.0
O155 O 0.07037 0.26859 0.76971 0.0
O156 O 0.07157 0.24225 0.71227 0.0
C157 C 0.10502 0.30146 0.66068 0.0
O158 O 0.11734 0.26697 0.66337 0.0
Co159 Co 0.1406 0.30887 0.75426 0.0
O160 O 0.14904 0.29674 0.66928 0.0
C161 C 0.11951 0.27537 0.8706 0.0
C162 C 0.06029 0.24912 0.74605 0.0
C163 C 0.13684 0.27825 0.64297 0.0
O164 O 0.10435 0.26356 0.82429 0.0
O165 O 0.13399 0.29426 0.85523 0.0
O166 O 0.09074 0.2835 0.632 0.0
O167 O 0.11176 0.30044 0.72775 0.0
Co168 Co 0.86186 0.6054 0.56173 0.0
O169 O 0.88478 0.60355 0.60873 0.0
O170 O 0.85761 0.57697 0.55083 0.0
C171 C 0.88282 0.63604 0.49878 0.0
O172 O 0.83614 0.60153 0.50118 0.0
Co173 Co 0.85478 0.64356 0.59287 0.0
O174 O 0.83424 0.63135 0.50783 0.0
C175 C 0.84263 0.61011 0.70915 0.0
C176 C 0.87585 0.58418 0.58439 0.0
C177 C 0.82795 0.61289 0.48107 0.0
O178 O 0.8456 0.59815 0.66226 0.0
O179 O 0.84731 0.62911 0.69419 0.0
O180 O 0.87929 0.6181 0.47048 0.0
O181 O 0.87505 0.63504 0.56579 0.0
Co182 Co 0.41906 0.26131 0.55882 0.0
O183 O 0.42038 0.28578 0.6063 0.0
O184 O 0.44731 0.2858 0.54876 0.0
C185 C 0.38837 0.2513 0.49563 0.0
O186 O 0.4235 0.23984 0.49805 0.0
Co187 Co 0.38138 0.21575 0.58869 0.0
O188 O 0.39433 0.20765 0.50556 0.0
C189 C 0.4145 0.23736 0.70591 0.0
C190 C 0.43978 0.29652 0.58256 0.0
C191 C 0.41273 0.22014 0.47918 0.0
O192 O 0.42641 0.25238 0.65932 0.0
O193 O 0.3956 0.2229 0.69044 0.0
O194 O 0.40623 0.2659 0.46754 0.0
O195 O 0.38946 0.24447 0.5624 0.0
Co196 Co 0.7606 0.16117 0.56021 0.0
O197 O 0.73553 0.13829 0.60614 0.0
O198 O 0.73677 0.16595 0.54962 0.0
C199 C 0.77012 0.14017 0.49663 0.0
O200 O 0.78265 0.18695 0.50062 0.0
Co201 Co 0.80567 0.16785 0.59114 0.0
O202 O 0.81418 0.18845 0.50623 0.0
C203 C 0.78444 0.17981 0.7084 0.0
C204 C 0.72546 0.14773 0.58293 0.0
C205 C 0.80213 0.19495 0.48006 0.0
O206 O 0.76957 0.17706 0.6616 0.0
O207 O 0.79874 0.17514 0.69288 0.0
O208 O 0.75588 0.14394 0.46825 0.0
O209 O 0.77683 0.14774 0.5639 0.0
Co210 Co 0.94144 0.52185 0.61035 0.0
O211 O 0.94015 0.5449 0.56165 0.0
O212 O 0.91355 0.5188 0.62347 0.0
C213 C 0.97301 0.54282 0.66857 0.0
O214 O 0.93693 0.49621 0.67296 0.0
Co215 Co 0.97815 0.51255 0.57898 0.0
O216 O 0.96528 0.49187 0.66313 0.0
C217 C 0.94416 0.50079 0.46485 0.0
C218 C 0.92102 0.53677 0.58786 0.0
C219 C 0.94721 0.48671 0.69104 0.0
O220 O 0.93288 0.50477 0.51159 0.0
O221 O 0.96299 0.50478 0.47904 0.0
O222 O 0.95556 0.54006 0.69901 0.0
O223 O 0.97093 0.53396 0.60302 0.0
Co224 Co 0.50114 0.42439 0.61252 0.0
O225 O 0.47797 0.39995 0.56478 0.0
O226 O 0.50423 0.39959 0.62616 0.0
C227 C 0.48041 0.43527 0.67067 0.0
O228 O 0.52694 0.44567 0.67413 0.0
Co229 Co 0.51045 0.47034 0.57948 0.0
O230 O 0.53104 0.47826 0.66402 0.0
C231 C 0.52202 0.44776 0.46621 0.0
C232 C 0.48621 0.38902 0.59079 0.0
C233 C 0.53633 0.46545 0.69204 0.0
O234 O 0.51793 0.43253 0.51323 0.0
O235 O 0.51825 0.46276 0.48003 0.0
O236 O 0.48318 0.42064 0.70162 0.0
O237 O 0.48908 0.4418 0.60474 0.0
Co238 Co 0.59793 0.07975 0.61155 0.0
O239 O 0.62303 0.08213 0.56522 0.0
O240 O 0.62169 0.10837 0.62276 0.0
C241 C 0.58856 0.04916 0.67424 0.0
O242 O 0.57574 0.08318 0.67157 0.0
Co243 Co 0.55301 0.04121 0.57966 0.0
O244 O 0.54431 0.05308 0.66481 0.0
C245 C 0.57412 0.07469 0.46344 0.0
C246 C 0.63305 0.10157 0.58904 0.0
C247 C 0.55624 0.07158 0.69164 0.0
O248 O 0.58884 0.08682 0.51072 0.0
O249 O 0.56003 0.0556 0.47824 0.0
O250 O 0.60275 0.06714 0.70301 0.0
O251 O 0.58186 0.05012 0.60707 0.0
Co252 Co 0.49771 0.07836 0.11122 0.0
O253 O 0.47464 0.07992 0.064 0.0
O254 O 0.50166 0.10669 0.12174 0.0
C255 C 0.47692 0.04766 0.17416 0.0
O256 O 0.52354 0.08256 0.17192 0.0
Co257 Co 0.50531 0.04052 0.08072 0.0
O258 O 0.52595 0.05303 0.16537 0.0
C259 C 0.51686 0.07367 0.96369 0.0
C260 C 0.48341 0.09931 0.08804 0.0
C261 C 0.53201 0.07145 0.19202 0.0
O262 O 0.51396 0.08566 0.01065 0.0
O263 O 0.51229 0.05472 0.97892 0.0
O264 O 0.48028 0.06554 0.20247 0.0
O265 O 0.48479 0.04874 0.1073 0.0
Co266 Co 0.94121 0.42214 0.10915 0.0
O267 O 0.93984 0.39787 0.05949 0.0
O268 O 0.91332 0.39731 0.122 0.0
C269 C 0.9728 0.43265 0.16706 0.0
O270 O 0.93675 0.44319 0.1727 0.0
Co271 Co 0.97788 0.46819 0.0785 0.0
O272 O 0.96539 0.47571 0.16474 0.0
C273 C 0.94364 0.44634 0.9649 0.0
C274 C 0.92069 0.38684 0.08547 0.0
C275 C 0.94731 0.46282 0.19257 0.0
O276 O 0.93259 0.43079 0.01081 0.0
O277 O 0.96237 0.46131 0.97935 0.0
O278 O 0.95537 0.4179 0.19735 0.0
O279 O 0.9707 0.43952 0.10171 0.0
Co280 Co 0.59943 0.5232 0.11291 0.0
O281 O 0.62384 0.5464 0.0653 0.0
O282 O 0.62426 0.52018 0.12673 0.0
C283 C 0.58849 0.54391 0.17098 0.0
O284 O 0.57821 0.49736 0.1744 0.0
Co285 Co 0.55344 0.5137 0.0798 0.0
O286 O 0.54555 0.49305 0.16407 0.0
C287 C 0.57604 0.5021 0.96672 0.0
C288 C 0.6348 0.5382 0.09145 0.0
C289 C 0.55842 0.48785 0.19211 0.0
O290 O 0.59134 0.50638 0.01363 0.0
O291 O 0.56096 0.50575 0.98052 0.0
O292 O 0.60313 0.54116 0.20196 0.0
O293 O 0.58195 0.5352 0.10506 0.0
Co294 Co 0.41723 0.16109 0.05997 0.0
O295 O 0.41859 0.13802 0.1081 0.0
O296 O 0.44512 0.16418 0.0463 0.0
C297 C 0.38563 0.14025 0.00177 0.0
O298 O 0.42161 0.18678 0.99784 0.0
Co299 Co 0.38056 0.17033 0.09308 0.0
O300 O 0.3928 0.19037 0.00678 0.0
C301 C 0.41496 0.18246 0.20575 0.0
C302 C 0.43772 0.1462 0.08184 0.0
C303 C 0.41089 0.19574 0.97855 0.0
O304 O 0.42594 0.17808 0.15899 0.0
O305 O 0.39619 0.17872 0.19205 0.0
O306 O 0.40305 0.14302 0.97114 0.0
O307 O 0.38773 0.14896 0.06769 0.0
Co308 Co 0.86052 0.25901 0.05975 0.0
O309 O 0.88351 0.28389 0.106 0.0
O310 O 0.85656 0.2833 0.04617 0.0
C311 C 0.88167 0.24884 0.00044 0.0
O312 O 0.83475 0.23709 0.99949 0.0
Co313 Co 0.85276 0.21366 0.09393 0.0
O314 O 0.83184 0.20501 0.01004 0.0
C315 C 0.84123 0.23599 0.20819 0.0
C316 C 0.87473 0.29433 0.08012 0.0
C317 C 0.82588 0.2173 0.982 0.0
O318 O 0.84408 0.2506 0.15993 0.0
O319 O 0.84588 0.22158 0.1946 0.0
O320 O 0.87827 0.26308 0.96969 0.0
O321 O 0.87336 0.24231 0.06686 0.0
Co322 Co 0.7625 0.6059 0.06175 0.0
O323 O 0.73794 0.60438 0.10915 0.0
O324 O 0.73814 0.57757 0.05143 0.0
C325 C 0.77233 0.63654 0.99856 0.0
O326 O 0.78411 0.60171 0.00095 0.0
Co327 Co 0.8079 0.64379 0.09222 0.0
O328 O 0.816 0.6313 0.00742 0.0
C329 C 0.78646 0.61056 0.20905 0.0
C330 C 0.72731 0.58499 0.08518 0.0
C331 C 0.80367 0.61288 0.98079 0.0
O332 O 0.77151 0.59862 0.16222 0.0
O333 O 0.80084 0.62951 0.19386 0.0
O334 O 0.75779 0.61863 0.9705 0.0
O335 O 0.77915 0.63552 0.06546 0.0
Co336 Co 0.52639 0.93702 0.89293 0.0
O337 O 0.54963 0.93587 0.94063 0.0
O338 O 0.52334 0.90914 0.87981 0.0
C339 C 0.54708 0.96853 0.83412 0.0
O340 O 0.50051 0.93235 0.83136 0.0
Co341 Co 0.51699 0.97362 0.92512 0.0
O342 O 0.49627 0.96076 0.84103 0.0
C343 C 0.50581 0.93984 0.03954 0.0
C344 C 0.54141 0.91668 0.91485 0.0
C345 C 0.49102 0.94265 0.81331 0.0
O346 O 0.50969 0.92855 0.99247 0.0
O347 O 0.50961 0.95859 0.02531 0.0
O348 O 0.54427 0.95107 0.8036 0.0
O349 O 0.53842 0.9665 0.90004 0.0
Co350 Co 0.08418 0.59357 0.89144 0.0
O351 O 0.08663 0.61869 0.93794 0.0
O352 O 0.11287 0.61729 0.88072 0.0
C353 C 0.05366 0.58438 0.8284 0.0
O354 O 0.08755 0.57134 0.83127 0.0
Co355 Co 0.04548 0.54871 0.9226 0.0
O356 O 0.05734 0.53998 0.83751 0.0
C357 C 0.07873 0.56974 0.03971 0.0
C358 C 0.1061 0.62868 0.9144 0.0
C359 C 0.07587 0.55186 0.81092 0.0
O360 O 0.09106 0.58434 0.99241 0.0
O361 O 0.05961 0.5558 0.02455 0.0
O362 O 0.07169 0.59851 0.79983 0.0
O363 O 0.05456 0.57762 0.89551 0.0
Co364 Co 0.42954 0.49628 0.8909 0.0
O365 O 0.40494 0.47309 0.93754 0.0
O366 O 0.40504 0.50001 0.87966 0.0
C367 C 0.43978 0.47566 0.8284 0.0
O368 O 0.45116 0.52224 0.83077 0.0
Co369 Co 0.47504 0.50418 0.92278 0.0
O370 O 0.48325 0.52502 0.83892 0.0
C371 C 0.45316 0.51577 0.03868 0.0
C372 C 0.39424 0.48176 0.91328 0.0
C373 C 0.47086 0.53103 0.81213 0.0
O374 O 0.43813 0.51244 0.99171 0.0
O375 O 0.4678 0.51155 0.02383 0.0
O376 O 0.42524 0.47893 0.79963 0.0
O377 O 0.4464 0.48352 0.89541 0.0
Co378 Co 0.60907 0.85654 0.94411 0.0
O379 O 0.60772 0.87977 0.89745 0.0
O380 O 0.58079 0.8527 0.95425 0.0
C381 C 0.63971 0.87711 0.00775 0.0
O382 O 0.60461 0.83052 0.00415 0.0
Co383 Co 0.64678 0.84871 0.91399 0.0
O384 O 0.63393 0.82772 0.99728 0.0
C385 C 0.61379 0.83746 0.7964 0.0
C386 C 0.5883 0.87102 0.92102 0.0
C387 C 0.61547 0.8217 0.02331 0.0
O388 O 0.60185 0.84055 0.84298 0.0
O389 O 0.63263 0.84174 0.81211 0.0
O390 O 0.62181 0.87375 0.03588 0.0
O391 O 0.63868 0.86933 0.94075 0.0
Co392 Co 0.16566 0.75632 0.94234 0.0
O393 O 0.14284 0.73113 0.89671 0.0
O394 O 0.17054 0.73255 0.95355 0.0
C395 C 0.14452 0.76579 0.00544 0.0
O396 O 0.19142 0.77863 0.00164 0.0
Co397 Co 0.17193 0.80119 0.90982 0.0
O398 O 0.19285 0.81011 0.99383 0.0
C399 C 0.1841 0.77989 0.79356 0.0
C400 C 0.15232 0.72114 0.92026 0.0
C401 C 0.19954 0.79826 0.02045 0.0
O402 O 0.18154 0.7652 0.84094 0.0
O403 O 0.17921 0.79407 0.80839 0.0
O404 O 0.14841 0.75166 0.03419 0.0
O405 O 0.15206 0.77239 0.93808 0.0
Co406 Co 0.26645 0.41514 0.94389 0.0
O407 O 0.29086 0.41636 0.89626 0.0
O408 O 0.29105 0.44334 0.95408 0.0
C409 C 0.25638 0.38439 0.00677 0.0
O410 O 0.2451 0.41971 0.00494 0.0
Co411 Co 0.22078 0.37763 0.91437 0.0
O412 O 0.21286 0.39059 0.99796 0.0
C413 C 0.24237 0.41076 0.79716 0.0
C414 C 0.3017 0.43574 0.92012 0.0
C415 C 0.22543 0.40899 0.02419 0.0
O416 O 0.25758 0.42255 0.84336 0.0
O417 O 0.22774 0.39197 0.81288 0.0
O418 O 0.27101 0.40222 0.03497 0.0
O419 O 0.24951 0.38554 0.94013 0.0
Co420 Co 0.16684 0.41391 0.44399 0.0
O421 O 0.14397 0.41601 0.39702 0.0
O422 O 0.17073 0.44207 0.45859 0.0
C423 C 0.14564 0.3823 0.50156 0.0
O424 O 0.19244 0.41769 0.50519 0.0
Co425 Co 0.17518 0.37673 0.40925 0.0
O426 O 0.19571 0.38873 0.49436 0.0
C427 C 0.18777 0.41138 0.29743 0.0
C428 C 0.15282 0.43523 0.42308 0.0
C429 C 0.20141 0.40688 0.52283 0.0
O430 O 0.18369 0.42249 0.34469 0.0
O431 O 0.18368 0.39248 0.31057 0.0
O432 O 0.14878 0.39979 0.53294 0.0
O433 O 0.1542 0.38439 0.43541 0.0
Co434 Co 0.60974 0.75816 0.44407 0.0
O435 O 0.60738 0.73306 0.39751 0.0
O436 O 0.58142 0.73415 0.4583 0.0
C437 C 0.6412 0.76822 0.50228 0.0
O438 O 0.60625 0.78025 0.50468 0.0
Co439 Co 0.64735 0.8034 0.40903 0.0
O440 O 0.63553 0.81221 0.49386 0.0
C441 C 0.61286 0.78146 0.29658 0.0
C442 C 0.58812 0.72291 0.42309 0.0
C443 C 0.61731 0.80002 0.52222 0.0
O444 O 0.60146 0.76655 0.34433 0.0
O445 O 0.63186 0.79603 0.30972 0.0
O446 O 0.62361 0.75405 0.53357 0.0
O447 O 0.63927 0.7747 0.43592 0.0
Co448 Co 0.26422 0.85518 0.44256 0.0
O449 O 0.28937 0.87798 0.39674 0.0
O450 O 0.28796 0.85027 0.45348 0.0
C451 C 0.25486 0.87639 0.50579 0.0
O452 O 0.24198 0.82943 0.50196 0.0
Co453 Co 0.21934 0.84886 0.41056 0.0
O454 O 0.21044 0.82785 0.49422 0.0
C455 C 0.24052 0.83664 0.29401 0.0
C456 C 0.29934 0.86846 0.42013 0.0
C457 C 0.22234 0.82121 0.52072 0.0
O458 O 0.25527 0.83926 0.34124 0.0
O459 O 0.22634 0.84151 0.30899 0.0
O460 O 0.26899 0.87247 0.53437 0.0
O461 O 0.24816 0.8688 0.43851 0.0
Co462 Co 0.08382 0.49377 0.3912 0.0
O463 O 0.08626 0.47108 0.43782 0.0
O464 O 0.11252 0.49877 0.38097 0.0
C465 C 0.05336 0.47246 0.32777 0.0
O466 O 0.08728 0.51939 0.33104 0.0
Co467 Co 0.04514 0.50001 0.42169 0.0
O468 O 0.05717 0.52073 0.33708 0.0
C469 C 0.07831 0.51226 0.53917 0.0
C470 C 0.10576 0.48062 0.41467 0.0
C471 C 0.07571 0.52733 0.31073 0.0
O472 O 0.09061 0.50986 0.49216 0.0
O473 O 0.05921 0.50716 0.52377 0.0
O474 O 0.07142 0.47636 0.2995 0.0
O475 O 0.05417 0.48011 0.39484 0.0
Co476 Co 0.52799 0.5953 0.39079 0.0
O477 O 0.55096 0.62031 0.43688 0.0
O478 O 0.52356 0.61933 0.3792 0.0
C479 C 0.54889 0.58538 0.32857 0.0
O480 O 0.50217 0.57328 0.33108 0.0
Co481 Co 0.52085 0.55013 0.42364 0.0
O482 O 0.50002 0.54148 0.33947 0.0
C483 C 0.50857 0.57165 0.53866 0.0
C484 C 0.54171 0.63051 0.41314 0.0
C485 C 0.4937 0.5536 0.31254 0.0
O486 O 0.51187 0.58665 0.49165 0.0
O487 O 0.513 0.55713 0.52418 0.0
O488 O 0.54534 0.5997 0.29945 0.0
O489 O 0.54117 0.57884 0.39577 0.0
Co490 Co 0.427 0.93556 0.39242 0.0
O491 O 0.402 0.9334 0.43909 0.0
O492 O 0.40289 0.90731 0.37841 0.0
C493 C 0.43714 0.96699 0.33404 0.0
O494 O 0.4489 0.93183 0.33165 0.0
Co495 Co 0.47242 0.97304 0.42636 0.0
O496 O 0.48102 0.96093 0.34187 0.0
C497 C 0.45046 0.93874 0.53949 0.0
C498 C 0.39174 0.91413 0.41347 0.0
C499 C 0.46865 0.94271 0.31385 0.0
O500 O 0.43541 0.92733 0.49218 0.0
O501 O 0.46511 0.95768 0.52584 0.0
O502 O 0.42288 0.94941 0.30293 0.0
O503 O 0.4437 0.96509 0.40029 0.0
C504 C 0.22159 0.20576 0.25113 0.0
C505 C 0.24388 0.2164 0.25095 0.0
C506 C 0.21051 0.21703 0.24914 0.0
C507 C 0.22133 0.23932 0.2495 0.0
H508 H 0.21265 0.18864 0.2519 0.0
H509 H 0.19339 0.20823 0.24822 0.0
S510 S 0.27965 0.27465 0.25052 0.0
N511 N 0.27627 0.25055 0.25116 0.0
N512 N 0.25565 0.27152 0.2497 0.0
C513 C 0.2436 0.25006 0.25026 0.0
C514 C 0.2548 0.23866 0.25039 0.0
C515 C 0.81763 0.02069 0.24558 0.0
C516 C 0.80694 0.03216 0.25353 0.0
C517 C 0.80649 0.99836 0.24432 0.0
C518 C 0.78433 0.98672 0.25348 0.0
H519 H 0.83467 0.02901 0.23895 0.0
H520 H 0.81529 0.99017 0.23646 0.0
S521 S 0.74914 0.00941 0.28077 0.0
N522 N 0.77305 0.03022 0.27279 0.0
N523 N 0.7523 0.98863 0.27277 0.0
C524 C 0.7736 0.99812 0.26334 0.0
C525 C 0.78485 0.02072 0.26275 0.0
C526 C 1.00273 0.77065 0.25113 0.0
C527 C 0.9912 0.78139 0.25168 0.0
C528 C 0.02492 0.78167 0.25159 0.0
C529 C 0.03659 0.80392 0.25072 0.0
H530 H 0.99456 0.75352 0.25174 0.0
H531 H 0.03298 0.77259 0.2512 0.0
S532 S 0.01409 0.83963 0.25079 0.0
N533 N 0.99315 0.81562 0.25202 0.0
N534 N 0.03492 0.83636 0.2498 0.0
C535 C 0.02531 0.81491 0.25036 0.0
C536 C 1.00262 0.80365 0.25177 0.0
C537 C 0.78737 0.77139 0.75103 0.0
C538 C 0.80962 0.78206 0.752 0.0
C539 C 0.77624 0.78246 0.75168 0.0
C540 C 0.78686 0.80471 0.75144 0.0
H541 H 0.77837 0.75426 0.75113 0.0
H542 H 0.75911 0.77343 0.75087 0.0
S543 S 0.84506 0.84029 0.7529 0.0
N544 N 0.84194 0.81624 0.75349 0.0
N545 N 0.82099 0.83709 0.75164 0.0
C546 C 0.80912 0.81565 0.75158 0.0
C547 C 0.8205 0.80432 0.75277 0.0
C548 C 0.25129 0.01953 0.74986 0.0
C549 C 0.24058 0.03109 0.74983 0.0
C550 C 0.24025 0.99735 0.75068 0.0
C551 C 0.21801 0.98569 0.74964 0.0
H552 H 0.26842 0.02768 0.75073 0.0
H553 H 0.24931 0.98927 0.75077 0.0
S554 S 0.18234 1.00825 0.74815 0.0
N555 N 0.20636 0.02918 0.74936 0.0
N556 N 0.18559 0.9874 0.74783 0.0
C557 C 0.20704 0.99699 0.74862 0.0
C558 C 0.21832 0.01969 0.74964 0.0
C559 C 0.02511 0.24701 0.75017 0.0
C560 C 0.0368 0.23645 0.74964 0.0
C561 C 1.00293 0.23584 0.74907 0.0
C562 C 0.99141 0.21359 0.74919 0.0
H563 H 0.03314 0.26414 0.75 0.0
H564 H 0.99476 0.24481 0.74952 0.0
S565 S 0.01435 0.17826 0.74894 0.0
N566 N 0.03517 0.20236 0.74861 0.0
N567 N 0.99339 0.18132 0.74956 0.0
C568 C 1.00284 0.20275 0.7496 0.0
C569 C 0.02554 0.21419 0.74891 0.0
C570 C 0.87626 0.54974 0.58745 0.0
C571 C 0.88726 0.57203 0.58673 0.0
C572 C 0.88716 0.5383 0.58787 0.0
C573 C 0.90943 0.54875 0.58496 0.0
H574 H 0.85913 0.54108 0.58862 0.0
H575 H 0.87809 0.52119 0.58972 0.0
S576 S 0.94562 0.60691 0.58032 0.0
N577 N 0.92172 0.60402 0.58265 0.0
N578 N 0.94201 0.58272 0.5812 0.0
C579 C 0.92053 0.57101 0.58315 0.0
C580 C 0.90951 0.58259 0.58461 0.0
C581 C 0.47394 0.33154 0.58803 0.0
C582 C 0.45166 0.32005 0.58613 0.0
C583 C 0.48513 0.35386 0.58973 0.0
C584 C 0.47447 0.36548 0.58705 0.0
H585 H 0.48277 0.32324 0.5891 0.0
H586 H 0.50225 0.36207 0.59235 0.0
S587 S 0.41623 0.34293 0.57961 0.0
N588 N 0.41943 0.32209 0.58117 0.0
N589 N 0.4403 0.36368 0.58215 0.0
C590 C 0.45222 0.35413 0.58409 0.0
C591 C 0.44087 0.33153 0.58422 0.0
C592 C 0.69034 0.11462 0.58647 0.0
C593 C 0.70196 0.13687 0.58636 0.0
C594 C 0.66817 0.10355 0.58533 0.0
C595 C 0.65655 0.1142 0.58586 0.0
H596 H 0.69843 0.10558 0.58599 0.0
H597 H 0.66006 0.08642 0.58542 0.0
S598 S 0.67927 0.17242 0.58682 0.0
N599 N 0.70016 0.16924 0.58616 0.0
N600 N 0.65837 0.14837 0.58708 0.0
C601 C 0.66791 0.13646 0.58671 0.0
C602 C 0.69061 0.1478 0.58604 0.0
C603 C 0.48274 0.13361 0.08335 0.0
C604 C 0.47187 0.11132 0.085 0.0
C605 C 0.47171 0.14491 0.08216 0.0
C606 C 0.44944 0.13435 0.08516 0.0
H607 H 0.49987 0.14236 0.08206 0.0
H608 H 0.48068 0.16202 0.07967 0.0
S609 S 0.41356 0.07615 0.09215 0.0
N610 N 0.43753 0.0792 0.09008 0.0
N611 N 0.417 0.10028 0.09008 0.0
C612 C 0.43846 0.1121 0.08789 0.0
C613 C 0.44962 0.10064 0.08722 0.0
C614 C 0.87558 0.3293 0.08969 0.0
C615 C 0.88628 0.31785 0.08108 0.0
C616 C 0.88671 0.35163 0.09066 0.0
C617 C 0.90884 0.36329 0.08054 0.0
H618 H 0.85858 0.32096 0.09716 0.0
H619 H 0.87791 0.3598 0.09918 0.0
S620 S 0.94398 0.34064 0.05094 0.0
N621 N 0.92011 0.31982 0.05995 0.0
N622 N 0.94082 0.36141 0.05939 0.0
C623 C 0.91955 0.35191 0.06985 0.0
C624 C 0.90833 0.32931 0.07076 0.0
C625 C 0.67004 0.53944 0.0906 0.0
C626 C 0.65834 0.55004 0.08817 0.0
C627 C 0.69236 0.55072 0.08942 0.0
C628 C 0.70377 0.57301 0.08832 0.0
H629 H 0.66189 0.52233 0.09262 0.0
H630 H 0.70073 0.54195 0.09023 0.0
S631 S 0.68066 0.60825 0.0829 0.0
N632 N 0.65999 0.58413 0.08448 0.0
N633 N 0.70157 0.60517 0.08445 0.0
C634 C 0.69221 0.58372 0.08671 0.0
C635 C 0.66962 0.57229 0.08605 0.0
C636 C 0.54272 0.88273 0.91608 0.0
C637 C 0.55329 0.905 0.91809 0.0
C638 C 0.55403 0.87171 0.91717 0.0
C639 C 0.57631 0.88259 0.91779 0.0
H640 H 0.5256 0.87374 0.91446 0.0
H641 H 0.54527 0.85457 0.91671 0.0
S642 S 0.6115 0.94093 0.92174 0.0
N643 N 0.58737 0.93747 0.9207 0.0
N644 N 0.60845 0.91695 0.92057 0.0
C645 C 0.587 0.90485 0.91891 0.0
C646 C 0.57555 0.916 0.91964 0.0
C647 C 0.10813 0.66383 0.91837 0.0
C648 C 0.11876 0.65219 0.91772 0.0
C649 C 0.11922 0.686 0.91723 0.0
C650 C 0.14147 0.69763 0.9172 0.0
H651 H 0.091 0.65574 0.91834 0.0
H652 H 0.11018 0.6941 0.91775 0.0
S653 S 0.17698 0.67489 0.9165 0.0
N654 N 0.15293 0.654 0.91632 0.0
N655 N 0.17382 0.6958 0.91725 0.0
C656 C 0.15238 0.68626 0.91748 0.0
C657 C 0.14103 0.66355 0.91681 0.0
C658 C 0.33686 0.46983 0.9174 0.0
C659 C 0.32525 0.44754 0.91649 0.0
C660 C 0.35919 0.48093 0.9161 0.0
C661 C 0.37069 0.47014 0.91636 0.0
H662 H 0.32865 0.47875 0.91837 0.0
H663 H 0.36749 0.49806 0.91579 0.0
S664 S 0.34782 0.41182 0.91529 0.0
N665 N 0.32708 0.41517 0.91576 0.0
N666 N 0.36865 0.43584 0.91545 0.0
C667 C 0.35921 0.44787 0.91625 0.0
C668 C 0.33662 0.43664 0.91575 0.0
C669 C 0.10814 0.44767 0.41819 0.0
C670 C 0.11856 0.46992 0.41868 0.0
C671 C 0.11944 0.43678 0.41767 0.0
C672 C 0.14169 0.44762 0.41952 0.0
H673 H 0.09102 0.4385 0.41674 0.0
H674 H 0.11058 0.41964 0.41719 0.0
S675 S 0.17668 0.50591 0.42237 0.0
N676 N 0.15253 0.50249 0.42036 0.0
N677 N 0.1738 0.48196 0.42251 0.0
C678 C 0.15238 0.46988 0.42097 0.0
C679 C 0.14082 0.48103 0.41961 0.0
C680 C 0.57492 0.66557 0.41734 0.0
C681 C 0.55267 0.65401 0.41727 0.0
C682 C 0.58606 0.68775 0.41733 0.0
C683 C 0.57547 0.69941 0.41915 0.0
H684 H 0.58391 0.65741 0.41599 0.0
H685 H 0.60319 0.69582 0.41726 0.0
S686 S 0.51727 0.67687 0.42067 0.0
N687 N 0.52037 0.65593 0.41842 0.0
N688 N 0.54136 0.69771 0.42149 0.0
C689 C 0.55321 0.68811 0.42003 0.0
C690 C 0.54181 0.66542 0.41815 0.0
C691 C 0.35675 0.91244 0.41839 0.0
C692 C 0.36824 0.90167 0.41681 0.0
C693 C 0.33457 0.90148 0.41743 0.0
C694 C 0.32284 0.87923 0.41673 0.0
H695 H 0.36496 0.92957 0.41896 0.0
H696 H 0.32656 0.9106 0.41867 0.0
S697 S 0.34519 0.8434 0.41362 0.0
N698 N 0.36618 0.86739 0.41388 0.0
N699 N 0.3244 0.84674 0.41518 0.0
C700 C 0.33407 0.86819 0.4161 0.0
C701 C 0.35676 0.87941 0.4152 0.0
C702 C 0.13559 0.25919 0.95035 0.0
C703 C 0.12183 0.26742 0.94514 0.0
C704 C 0.14655 0.26083 0.01855 0.0
C705 C 0.1443 0.27107 0.08312 0.0
H706 H 0.1396 0.2535 0.89936 0.0
H707 H 0.15836 0.25597 0.01807 0.0
S708 S 0.10703 0.29146 0.10235 0.0
N709 N 0.10419 0.2832 0.01285 0.0
N710 N 0.12459 0.28627 0.14106 0.0
C711 C 0.1288 0.27718 0.08081 0.0
C712 C 0.11761 0.27536 0.0117 0.0
C713 C 0.76306 0.89074 0.01893 0.0
C714 C 0.75316 0.87829 0.08386 0.0
C715 C 0.76458 0.88142 0.95058 0.0
C716 C 0.75657 0.85947 0.94559 0.0
H717 H 0.7677 0.90735 0.01837 0.0
H718 H 0.76998 0.89106 0.89939 0.0
S719 S 0.73344 0.82077 0.10356 0.0
N720 N 0.73852 0.84349 0.14222 0.0
N721 N 0.74138 0.82615 0.01373 0.0
C722 C 0.749 0.84737 0.01241 0.0
C723 C 0.74729 0.85675 0.08167 0.0
C724 C 0.13295 0.87752 0.02255 0.0
C725 C 0.14555 0.87929 0.08628 0.0
C726 C 0.1422 0.88859 0.9545 0.0
C727 C 0.16422 0.90195 0.94863 0.0
H728 H 0.11622 0.86598 0.02245 0.0
H729 H 0.13237 0.88486 0.90392 0.0
S730 S 0.20341 0.9156 0.10399 0.0
N731 N 0.18065 0.89825 0.14308 0.0
N732 N 0.19784 0.91886 0.01518 0.0
C733 C 0.17652 0.90579 0.01465 0.0
C734 C 0.16723 0.89448 0.08356 0.0
C735 C 0.26307 0.13014 0.55046 0.0
C736 C 0.2712 0.1163 0.55557 0.0
C737 C 0.26475 0.14113 0.48234 0.0
C738 C 0.27493 0.13883 0.41772 0.0
H739 H 0.25743 0.13419 0.6015 0.0
H740 H 0.25997 0.153 0.48291 0.0
S741 S 0.29507 0.10135 0.39819 0.0
N742 N 0.28684 0.09854 0.4877 0.0
N743 N 0.28997 0.11899 0.3596 0.0
C744 C 0.28094 0.12325 0.41991 0.0
C745 C 0.27908 0.11203 0.48895 0.0
C746 C 0.88203 0.1287 0.47893 0.0
C747 C 0.88379 0.14124 0.41506 0.0
C748 C 0.89314 0.138 0.54689 0.0
C749 C 0.90655 0.16003 0.55256 0.0
H750 H 0.87048 0.11197 0.47915 0.0
H751 H 0.88948 0.12821 0.5975 0.0
S752 S 0.92012 0.19909 0.3969 0.0
N753 N 0.90274 0.17631 0.35799 0.0
N754 N 0.92341 0.1936 0.48579 0.0
C755 C 0.91032 0.17228 0.48651 0.0
C756 C 0.89898 0.16293 0.41765 0.0
C757 C 0.88564 0.76087 0.54779 0.0
C758 C 0.86363 0.75225 0.55366 0.0
C759 C 0.89489 0.75913 0.47962 0.0
C760 C 0.88229 0.7484 0.41578 0.0
H761 H 0.89547 0.7669 0.59841 0.0
H762 H 0.91162 0.76428 0.47969 0.0
S763 S 0.82445 0.727 0.39812 0.0
N764 N 0.83002 0.7357 0.48708 0.0
N765 N 0.8472 0.73241 0.35893 0.0
C766 C 0.86062 0.74196 0.41854 0.0
C767 C 0.85133 0.7439 0.48759 0.0
C768 C 0.88327 0.75913 0.97965 0.0
C769 C 0.88509 0.74838 0.91579 0.0
C770 C 0.8942 0.76076 0.04791 0.0
C771 C 0.90747 0.75199 0.05385 0.0
H772 H 0.87178 0.7644 0.97965 0.0
H773 H 0.89043 0.76682 0.09851 0.0
S774 S 0.92121 0.72658 0.89835 0.0
N775 N 0.904 0.73218 0.85904 0.0
N776 N 0.92435 0.73525 0.98736 0.0
C777 C 0.91136 0.74359 0.98779 0.0
C778 C 0.90019 0.74177 0.91865 0.0
C779 C 0.2815 0.16139 0.92213 0.0
C780 C 0.27418 0.13952 0.91954 0.0
C781 C 0.27999 0.17107 0.98921 0.0
C782 C 0.27108 0.15924 0.05599 0.0
H783 H 0.29 0.17138 0.87394 0.0
H784 H 0.28787 0.18819 0.99118 0.0
S785 S 0.24697 0.10122 0.0766 0.0
N786 N 0.25535 0.10598 0.98712 0.0
N787 N 0.25277 0.12436 0.11343 0.0
C788 C 0.26169 0.13714 0.05186 0.0
C789 C 0.26316 0.1272 0.98343 0.0
C790 C 0.85109 0.11354 0.98736 0.0
C791 C 0.86291 0.11632 0.05413 0.0
C792 C 0.86083 0.12466 0.92025 0.0
C793 C 0.88275 0.13901 0.91761 0.0
H794 H 0.83396 0.10446 0.98934 0.0
H795 H 0.85087 0.12328 0.87208 0.0
S796 S 0.92098 0.14968 0.07468 0.0
N797 N 0.89779 0.13254 0.11154 0.0
N798 N 0.91627 0.15338 0.98521 0.0
C799 C 0.89502 0.14017 0.98153 0.0
C800 C 0.88502 0.12882 0.04999 0.0
C801 C 0.76571 0.88898 0.45244 0.0
C802 C 0.75725 0.90254 0.44695 0.0
C803 C 0.76402 0.87801 0.52057 0.0
C804 C 0.75351 0.88005 0.5847 0.0
H805 H 0.77152 0.88505 0.40159 0.0
H806 H 0.769 0.86629 0.52023 0.0
S807 S 0.73251 0.9168 0.60327 0.0
N808 N 0.74106 0.91987 0.51413 0.0
N809 N 0.73783 0.89935 0.64216 0.0
C810 C 0.74723 0.89539 0.58228 0.0
C811 C 0.74913 0.90664 0.5133 0.0
C812 C 0.13363 0.87978 0.45438 0.0
C813 C 0.1204 0.85775 0.44835 0.0
C814 C 0.14458 0.88906 0.52263 0.0
C815 C 0.14283 0.87648 0.58637 0.0
H816 H 0.13734 0.88962 0.40386 0.0
H817 H 0.15603 0.90583 0.5227 0.0
S818 S 0.10686 0.81855 0.60351 0.0
N819 N 0.10364 0.8241 0.51462 0.0
N820 N 0.12404 0.84135 0.64289 0.0
C821 C 0.12777 0.85477 0.58341 0.0
C822 C 0.11658 0.84544 0.51429 0.0
C823 C 0.16729 0.27808 0.5788 0.0
C824 C 0.14538 0.27059 0.58152 0.0
C825 C 0.17694 0.27644 0.51188 0.0
C826 C 0.16505 0.26724 0.44539 0.0
H827 H 0.1773 0.28679 0.62669 0.0
H828 H 0.19406 0.28445 0.50971 0.0
S829 S 0.10696 0.24254 0.42543 0.0
N830 N 0.11177 0.25125 0.51453 0.0
N831 N 0.13011 0.24843 0.38852 0.0
C832 C 0.14294 0.25767 0.44977 0.0
C833 C 0.13304 0.25928 0.51803 0.0
C834 C 0.79761 0.61321 0.41662 0.0
C835 C 0.81181 0.60545 0.41939 0.0
C836 C 0.78644 0.61182 0.3496 0.0
C837 C 0.78897 0.60253 0.28311 0.0
H838 H 0.79637 0.62193 0.46461 0.0
H839 H 0.77745 0.61997 0.3475 0.0
S840 S 0.82183 0.57722 0.26301 0.0
N841 N 0.82579 0.58587 0.3522 0.0
N842 N 0.8048 0.58343 0.22609 0.0
C843 C 0.80133 0.59275 0.28739 0.0
C844 C 0.81275 0.59414 0.35572 0.0
C845 C 0.43172 0.21487 0.28423 0.0
C846 C 0.42369 0.19291 0.27939 0.0
C847 C 0.43038 0.22425 0.35267 0.0
C848 C 0.42062 0.21184 0.41783 0.0
H849 H 0.43692 0.22445 0.23286 0.0
H850 H 0.43493 0.24084 0.35195 0.0
S851 S 0.40101 0.15439 0.43803 0.0
N852 N 0.40875 0.15968 0.34797 0.0
N853 N 0.40615 0.17714 0.4766 0.0
C854 C 0.41481 0.19033 0.41583 0.0
C855 C 0.41637 0.18089 0.34649 0.0
C856 C 0.84254 0.23644 0.34868 0.0
C857 C 0.83072 0.23383 0.28205 0.0
C858 C 0.83277 0.2253 0.41573 0.0
C859 C 0.81082 0.21109 0.41845 0.0
H860 H 0.85966 0.24541 0.34662 0.0
H861 H 0.84272 0.22655 0.46376 0.0
S862 S 0.77259 0.2009 0.26179 0.0
N863 N 0.79582 0.21793 0.2249 0.0
N864 N 0.77729 0.19704 0.3511 0.0
C865 C 0.79857 0.21011 0.3547 0.0
C866 C 0.80859 0.22148 0.28631 0.0
C867 C 0.92941 0.47354 0.8176 0.0
C868 C 0.93908 0.47061 0.75274 0.0
C869 C 0.92763 0.46264 0.88602 0.0
C870 C 0.93512 0.44827 0.89112 0.0
H871 H 0.92522 0.48584 0.81811 0.0
H872 H 0.92253 0.46722 0.93722 0.0
S873 S 0.95723 0.43157 0.73312 0.0
N874 N 0.9528 0.44964 0.69437 0.0
N875 N 0.94938 0.42928 0.823 0.0
C876 C 0.94231 0.44332 0.82424 0.0
C877 C 0.94433 0.45449 0.75493 0.0
C878 C 0.56047 0.46997 0.88697 0.0
C879 C 0.57445 0.49189 0.89271 0.0
C880 C 0.54972 0.46087 0.8183 0.0
C881 C 0.55242 0.47353 0.75382 0.0
H882 H 0.55603 0.46021 0.93789 0.0
H883 H 0.53767 0.44429 0.81836 0.0
S884 S 0.59057 0.53098 0.7359 0.0
N885 N 0.59294 0.52534 0.8256 0.0
N886 N 0.57288 0.50841 0.69646 0.0
C887 C 0.56823 0.495 0.75661 0.0
C888 C 0.57924 0.50415 0.8262 0.0
C889 C 0.52533 0.07071 0.75623 0.0
C890 C 0.54734 0.07882 0.75331 0.0
C891 C 0.51549 0.07206 0.82315 0.0
C892 C 0.5273 0.08164 0.88943 0.0
H893 H 0.51541 0.0618 0.70843 0.0
H894 H 0.49836 0.06367 0.82538 0.0
S895 S 0.58552 0.10781 0.9091 0.0
N896 N 0.58088 0.09898 0.82014 0.0
N897 N 0.56222 0.10131 0.94607 0.0
C898 C 0.54945 0.09171 0.88498 0.0
C899 C 0.55954 0.09038 0.81674 0.0
C900 C 0.56267 0.07167 0.25609 0.0
C901 C 0.54825 0.07916 0.25343 0.0
C902 C 0.57403 0.07332 0.3229 0.0
C903 C 0.57146 0.08262 0.38934 0.0
H904 H 0.56396 0.06295 0.2082 0.0
H905 H 0.58318 0.06535 0.32495 0.0
S906 S 0.53808 0.10735 0.40955 0.0
N907 N 0.53405 0.09855 0.32056 0.0
N908 N 0.55538 0.10148 0.4463 0.0
C909 C 0.55888 0.09216 0.38509 0.0
C910 C 0.54727 0.0905 0.31695 0.0
C911 C 0.946 0.49261 0.25737 0.0
C912 C 0.93932 0.47086 0.25468 0.0
C913 C 0.9442 0.50207 0.32457 0.0
C914 C 0.93563 0.49014 0.39136 0.0
H915 H 0.95425 0.50273 0.20916 0.0
H916 H 0.95167 0.51916 0.3266 0.0
S917 S 0.91276 0.43225 0.41143 0.0
N918 N 0.92114 0.43722 0.32198 0.0
N919 N 0.91804 0.4552 0.44853 0.0
C920 C 0.92675 0.46809 0.38706 0.0
C921 C 0.92851 0.45837 0.31851 0.0
C922 C 0.55408 0.4634 0.38629 0.0
C923 C 0.53218 0.44938 0.39209 0.0
C924 C 0.56312 0.47429 0.31781 0.0
C925 C 0.55039 0.47168 0.25358 0.0
H926 H 0.56389 0.46777 0.43713 0.0
H927 H 0.57968 0.48636 0.3179 0.0
S928 S 0.49296 0.43345 0.23568 0.0
N929 N 0.49868 0.43095 0.32514 0.0
N930 N 0.51548 0.45125 0.19634 0.0
C931 C 0.52894 0.45583 0.25632 0.0
C932 C 0.51987 0.44468 0.32571 0.0
C933 C 0.41312 0.23766 0.84627 0.0
C934 C 0.42244 0.23493 0.78026 0.0
C935 C 0.41133 0.22637 0.91334 0.0
C936 C 0.41869 0.21184 0.91667 0.0
H937 H 0.40521 0.24687 0.84362 0.0
H938 H 0.4026 0.2278 0.96088 0.0
S939 S 0.44719 0.20152 0.76212 0.0
N940 N 0.44137 0.21877 0.72457 0.0
N941 N 0.43821 0.19757 0.85084 0.0
C942 C 0.43014 0.21078 0.85367 0.0
C943 C 0.43193 0.22232 0.78527 0.0
C944 C 0.80003 0.21184 0.78934 0.0
C945 C 0.78675 0.1898 0.78353 0.0
C946 C 0.81115 0.22116 0.85729 0.0
C947 C 0.80954 0.20862 0.92099 0.0
H948 H 0.80359 0.22166 0.73883 0.0
H949 H 0.8226 0.23792 0.85714 0.0
S950 S 0.77357 0.15069 0.93877 0.0
N951 N 0.77017 0.15619 0.85002 0.0
N952 N 0.79084 0.17351 0.97777 0.0
C953 C 0.79447 0.18689 0.91828 0.0
C954 C 0.78312 0.17753 0.84943 0.0
C955 C 0.8341 0.61268 0.91667 0.0
C956 C 0.8122 0.60524 0.9192 0.0
C957 C 0.84382 0.61115 0.84973 0.0
C958 C 0.832 0.60206 0.78305 0.0
H959 H 0.84408 0.62126 0.96481 0.0
H960 H 0.86094 0.61908 0.84784 0.0
S961 S 0.77395 0.57759 0.76227 0.0
N962 N 0.77867 0.58614 0.85157 0.0
N963 N 0.79711 0.58347 0.7256 0.0
C964 C 0.80989 0.59258 0.78709 0.0
C965 C 0.79992 0.5941 0.85535 0.0
C966 C 0.4665 0.92258 0.61905 0.0
C967 C 0.45236 0.93034 0.61358 0.0
C968 C 0.47747 0.92445 0.68742 0.0
C969 C 0.47482 0.93447 0.75187 0.0
H970 H 0.47087 0.91721 0.56807 0.0
H971 H 0.48961 0.92005 0.68711 0.0
S972 S 0.43635 0.95338 0.77059 0.0
N973 N 0.43383 0.94522 0.68105 0.0
N974 N 0.45429 0.94877 0.80959 0.0
C975 C 0.45889 0.93997 0.74941 0.0
C976 C 0.44767 0.93788 0.68015 0.0
C977 C 0.07491 0.52087 0.74647 0.0
C978 C 0.08309 0.5429 0.74936 0.0
C979 C 0.07631 0.511 0.67974 0.0
C980 C 0.08604 0.52277 0.61357 0.0
H981 H 0.06592 0.51097 0.79416 0.0
H982 H 0.0679 0.49386 0.67755 0.0
S983 S 0.11237 0.581 0.59381 0.0
N984 N 0.1034 0.5764 0.68258 0.0
N985 N 0.10586 0.55767 0.55698 0.0
C986 C 0.09615 0.54492 0.61797 0.0
C987 C 0.09474 0.55506 0.68604 0.0
C988 C 0.46689 0.54501 0.68617 0.0
C989 C 0.47933 0.54727 0.75092 0.0
C990 C 0.47628 0.55588 0.61796 0.0
C991 C 0.49827 0.56955 0.61294 0.0
H992 H 0.45023 0.53321 0.68556 0.0
H993 H 0.46662 0.55183 0.56683 0.0
S994 S 0.53699 0.58429 0.7706 0.0
N995 N 0.51419 0.56685 0.80919 0.0
N996 N 0.53165 0.58711 0.68097 0.0
C997 C 0.51038 0.5738 0.67968 0.0
C998 C 0.50094 0.56269 0.74878 0.0
C999 C 0.59758 0.80792 0.14936 0.0
C1000 C 0.60756 0.80545 0.08446 0.0
C1001 C 0.59613 0.7971 0.2177 0.0
C1002 C 0.60431 0.78329 0.22268 0.0
H1003 H 0.59289 0.81986 0.14999 0.0
H1004 H 0.59074 0.80135 0.26893 0.0
S1005 S 0.62765 0.76797 0.06466 0.0
N1006 N 0.62243 0.78552 0.02604 0.0
N1007 N 0.61966 0.76533 0.15445 0.0
C1008 C 0.61188 0.7788 0.15578 0.0
C1009 C 0.61354 0.78987 0.08657 0.0
C1010 C 0.22529 0.80446 0.21367 0.0
C1011 C 0.23825 0.82656 0.21908 0.0
C1012 C 0.21436 0.79491 0.14565 0.0
C1013 C 0.21585 0.80725 0.08148 0.0
H1014 H 0.22185 0.79476 0.26443 0.0
H1015 H 0.20312 0.77808 0.14601 0.0
S1016 S 0.25086 0.8653 0.0629 0.0
N1017 N 0.25432 0.86006 0.15194 0.0
N1018 N 0.23397 0.84229 0.02413 0.0
C1019 C 0.23055 0.82906 0.08396 0.0
C1020 C 0.24171 0.83868 0.15286 0.0
C1021 C 0.22961 0.4266 0.15093 0.0
C1022 C 0.21722 0.41696 0.08559 0.0
C1023 C 0.22024 0.42799 0.21932 0.0
C1024 C 0.1983 0.42012 0.22394 0.0
H1025 H 0.24617 0.43103 0.15177 0.0
H1026 H 0.22979 0.43309 0.2708 0.0
S1027 S 0.15985 0.39776 0.06486 0.0
N1028 N 0.18257 0.40276 0.02649 0.0
N1029 N 0.16513 0.40544 0.155 0.0
C1030 C 0.18632 0.41291 0.15669 0.0
C1031 C 0.19574 0.41131 0.08741 0.0
C1032 C 0.22665 0.42704 0.71635 0.0
C1033 C 0.24021 0.4186 0.72223 0.0
C1034 C 0.21562 0.42521 0.64818 0.0
C1035 C 0.2176 0.41456 0.58434 0.0
H1036 H 0.22282 0.43305 0.76693 0.0
H1037 H 0.20397 0.43028 0.6482 0.0
S1038 S 0.25435 0.3935 0.56681 0.0
N1039 N 0.25743 0.4022 0.65577 0.0
N1040 N 0.23688 0.39875 0.52759 0.0
C1041 C 0.23292 0.40823 0.58718 0.0
C1042 C 0.2442 0.41026 0.65625 0.0
C1043 C 0.59714 0.80552 0.71515 0.0
C1044 C 0.60602 0.82758 0.72122 0.0
C1045 C 0.59886 0.79622 0.64708 0.0
C1046 C 0.60983 0.80878 0.58351 0.0
H1047 H 0.59084 0.79568 0.76556 0.0
H1048 H 0.59343 0.77943 0.647 0.0
S1049 S 0.63215 0.86678 0.56647 0.0
N1050 N 0.62324 0.86125 0.65517 0.0
N1051 N 0.62646 0.84395 0.52716 0.0
C1052 C 0.61663 0.83054 0.58649 0.0
C1053 C 0.61473 0.8399 0.65547 0.0
C1054 C 0.21627 0.79518 0.71328 0.0
C1055 C 0.19418 0.78216 0.71863 0.0
C1056 C 0.22578 0.80625 0.64547 0.0
C1057 C 0.21341 0.80483 0.58146 0.0
H1058 H 0.22598 0.7986 0.76402 0.0
H1059 H 0.24259 0.81754 0.64593 0.0
S1060 S 0.15539 0.76964 0.5626 0.0
N1061 N 0.16067 0.76606 0.65145 0.0
N1062 N 0.17836 0.78667 0.52403 0.0
C1063 C 0.19161 0.79004 0.58378 0.0
C1064 C 0.18204 0.77874 0.65245 0.0
C1065 C 0.07662 0.56897 0.18019 0.0
C1066 C 0.08645 0.56698 0.11416 0.0
C1067 C 0.07502 0.55755 0.24671 0.0
C1068 C 0.08311 0.54362 0.24955 0.0
H1069 H 0.06826 0.57775 0.17793 0.0
H1070 H 0.06594 0.5584 0.29421 0.0
S1071 S 0.11271 0.53499 0.0946 0.0
N1072 N 0.10634 0.55193 0.05785 0.0
N1073 N 0.10353 0.53048 0.18308 0.0
C1074 C 0.09491 0.5432 0.18652 0.0
C1075 C 0.09651 0.55489 0.11865 0.0
C1076 C 0.46841 0.5479 0.11887 0.0
C1077 C 0.45515 0.52586 0.11336 0.0
C1078 C 0.47929 0.55732 0.18708 0.0
C1079 C 0.47744 0.54487 0.25133 0.0
H1080 H 0.47217 0.55764 0.06805 0.0
H1081 H 0.49078 0.57408 0.1868 0.0
S1082 S 0.4415 0.48697 0.26971 0.0
N1083 N 0.43836 0.49234 0.18047 0.0
N1084 N 0.45863 0.50985 0.30869 0.0
C1085 C 0.46241 0.52315 0.24876 0.0
C1086 C 0.45129 0.51367 0.17966 0.0
C1087 C 0.4738 0.92292 0.1199 0.0
C1088 C 0.49581 0.93147 0.11402 0.0
C1089 C 0.46456 0.92453 0.1883 0.0
C1090 C 0.47716 0.93505 0.25235 0.0
H1091 H 0.46399 0.91708 0.06919 0.0
H1092 H 0.44785 0.91945 0.18828 0.0
S1093 S 0.53496 0.95619 0.26994 0.0
N1094 N 0.5294 0.94772 0.1807 0.0
N1095 N 0.51222 0.95077 0.30929 0.0
C1096 C 0.49881 0.94141 0.24951 0.0
C1097 C 0.5081 0.93959 0.18023 0.0
C1098 C 0.23813 0.34493 0.00796 0.0
C1099 C 0.24713 0.36412 0.04886 0.0
C1100 C 0.22868 0.32538 0.04594 0.0
C1101 C 0.22744 0.32431 0.12616 0.0
H1102 H 0.23843 0.34502 0.94599 0.0
H1103 H 0.22185 0.31101 0.01216 0.0
S1104 S 0.24848 0.36999 0.25972 0.0
N1105 N 0.25438 0.38085 0.17385 0.0
N1106 N 0.2362 0.34418 0.24541 0.0
C1107 C 0.23641 0.34341 0.16773 0.0
C1108 C 0.24639 0.3633 0.12906 0.0
C1109 C 0.69863 0.90835 0.04817 0.0
C1110 C 0.69962 0.90775 0.12833 0.0
C1111 C 0.67913 0.89841 0.00983 0.0
C1112 C 0.6599 0.88795 0.05033 0.0
H1113 H 0.71303 0.91612 0.01466 0.0
H1114 H 0.67911 0.89896 0.94789 0.0
S1115 S 0.6538 0.88224 0.2609 0.0
N1116 N 0.67963 0.89592 0.24712 0.0
N1117 N 0.64303 0.87774 0.17489 0.0
C1118 C 0.66063 0.88759 0.1305 0.0
C1119 C 0.68049 0.89734 0.16952 0.0
C1120 C 0.12334 0.78408 0.00793 0.0
C1121 C 0.13376 0.77522 0.04823 0.0
C1122 C 0.11366 0.7939 0.04641 0.0
C1123 C 0.11448 0.79564 0.12654 0.0
H1124 H 0.12265 0.78343 0.94601 0.0
H1125 H 0.10593 0.8006 0.013 0.0
S1126 S 0.13997 0.77515 0.25869 0.0
N1127 N 0.14417 0.76865 0.17264 0.0
N1128 N 0.12644 0.78748 0.2451 0.0
C1129 C 0.12482 0.78679 0.16755 0.0
C1130 C 0.13433 0.77646 0.12838 0.0
C1131 C 0.32942 0.22352 0.45534 0.0
C1132 C 0.32844 0.22203 0.37515 0.0
C1133 C 0.34893 0.23308 0.49367 0.0
C1134 C 0.36816 0.24196 0.45314 0.0
H1135 H 0.31502 0.21681 0.48886 0.0
H1136 H 0.34895 0.23358 0.55562 0.0
S1137 S 0.37426 0.24262 0.24252 0.0
N1138 N 0.34843 0.23039 0.25633 0.0
N1139 N 0.38503 0.2488 0.32854 0.0
C1140 C 0.36742 0.24096 0.37296 0.0
C1141 C 0.34757 0.23086 0.33394 0.0
C1142 C 0.78811 0.11873 0.49337 0.0
C1143 C 0.77961 0.12954 0.45345 0.0
C1144 C 0.798 0.10917 0.45463 0.0
C1145 C 0.8002 0.11051 0.37465 0.0
H1146 H 0.78709 0.11761 0.55519 0.0
H1147 H 0.80437 0.10109 0.48779 0.0
S1148 S 0.78093 0.13736 0.2436 0.0
N1149 N 0.77397 0.141 0.32964 0.0
N1150 N 0.79295 0.12351 0.25667 0.0
C1151 C 0.79176 0.1213 0.33402 0.0
C1152 C 0.78134 0.13068 0.37344 0.0
C1153 C 0.91385 0.6949 0.45674 0.0
C1154 C 0.91291 0.6957 0.37658 0.0
C1155 C 0.9041 0.67548 0.49565 0.0
C1156 C 0.8935 0.65616 0.45575 0.0
H1157 H 0.92175 0.70938 0.48982 0.0
H1158 H 0.90491 0.67561 0.55756 0.0
S1159 S 0.88674 0.64953 0.24557 0.0
N1160 N 0.90051 0.67539 0.25853 0.0
N1161 N 0.88266 0.63899 0.33183 0.0
C1162 C 0.89275 0.6567 0.37562 0.0
C1163 C 0.90232 0.67646 0.33602 0.0
C1164 C 0.8003 0.6954 0.9565 0.0
C1165 C 0.80188 0.69618 0.87631 0.0
C1166 C 0.79063 0.67598 0.99543 0.0
C1167 C 0.78177 0.65665 0.95551 0.0
H1168 H 0.80698 0.70988 0.98958 0.0
H1169 H 0.79006 0.67611 0.05735 0.0
S1170 S 0.78144 0.64999 0.74524 0.0
N1171 N 0.79366 0.67585 0.7582 0.0
N1172 N 0.77511 0.63945 0.83155 0.0
C1173 C 0.7829 0.65718 0.87536 0.0
C1174 C 0.79307 0.67693 0.83573 0.0
C1175 C 0.36397 0.12679 0.88231 0.0
C1176 C 0.36489 0.12912 0.96227 0.0
C1177 C 0.34451 0.11708 0.8436 0.0
C1178 C 0.32525 0.10888 0.88354 0.0
H1179 H 0.37839 0.1329 0.84914 0.0
H1180 H 0.34456 0.11592 0.78181 0.0
S1181 S 0.31892 0.11077 0.09325 0.0
N1182 N 0.34475 0.12243 0.08018 0.0
N1183 N 0.30825 0.10374 0.00728 0.0
C1184 C 0.3259 0.11079 0.96351 0.0
C1185 C 0.34571 0.12105 0.00289 0.0
C1186 C 0.90501 0.2312 0.84201 0.0
C1187 C 0.91365 0.22053 0.88198 0.0
C1188 C 0.89513 0.24077 0.88075 0.0
C1189 C 0.89309 0.23957 0.96079 0.0
H1190 H 0.9059 0.2322 0.78015 0.0
H1191 H 0.88863 0.24873 0.84758 0.0
S1192 S 0.91281 0.21317 0.09199 0.0
N1193 N 0.91962 0.20938 0.00588 0.0
N1194 N 0.90067 0.22689 0.07888 0.0
C1195 C 0.90168 0.22893 0.00147 0.0
C1196 C 0.91208 0.21955 0.96204 0.0
C1197 C 0.68254 0.78717 0.65999 0.0
C1198 C 0.70176 0.79741 0.61934 0.0
C1199 C 0.663 0.77726 0.6218 0.0
C1200 C 0.66195 0.77766 0.54159 0.0
H1201 H 0.68259 0.78678 0.72195 0.0
H1202 H 0.64862 0.76969 0.65547 0.0
S1203 S 0.70772 0.80252 0.40857 0.0
N1204 N 0.71854 0.80718 0.49452 0.0
N1205 N 0.6819 0.78905 0.42262 0.0
C1206 C 0.68108 0.78783 0.50025 0.0
C1207 C 0.70096 0.79756 0.53913 0.0
C1208 C 0.22729 0.90779 0.54651 0.0
C1209 C 0.226 0.90743 0.62674 0.0
C1210 C 0.23676 0.89776 0.50805 0.0
C1211 C 0.24571 0.88744 0.54844 0.0
H1212 H 0.22048 0.91541 0.51306 0.0
H1213 H 0.23707 0.89812 0.44609 0.0
S1214 S 0.24696 0.88245 0.75916 0.0
N1215 N 0.23471 0.89605 0.74547 0.0
N1216 N 0.25289 0.87767 0.67304 0.0
C1217 C 0.24494 0.88735 0.62867 0.0
C1218 C 0.23496 0.89721 0.66783 0.0
C1219 C 0.13238 0.36042 0.62066 0.0
C1220 C 0.13442 0.3615 0.5406 0.0
C1221 C 0.12275 0.34088 0.6588 0.0
C1222 C 0.11435 0.32168 0.61822 0.0
H1223 H 0.13869 0.37478 0.65432 0.0
H1224 H 0.12184 0.34082 0.72068 0.0
S1225 S 0.11533 0.31576 0.40791 0.0
N1226 N 0.12714 0.34157 0.42186 0.0
N1227 N 0.10863 0.30493 0.49369 0.0
C1228 C 0.11593 0.32249 0.53814 0.0
C1229 C 0.12609 0.34238 0.49933 0.0
C1230 C 0.01431 0.56695 0.8257 0.0
C1231 C 0.03352 0.57497 0.78552 0.0
C1232 C 0.99481 0.55701 0.78737 0.0
C1233 C 0.99378 0.55426 0.70761 0.0
H1234 H 0.01435 0.56837 0.88741 0.0
H1235 H 0.98043 0.55102 0.82072 0.0
S1236 S 0.0396 0.57215 0.57612 0.0
N1237 N 0.05037 0.57959 0.66176 0.0
N1238 N 0.01378 0.5605 0.58956 0.0
C1239 C 1.01292 0.56223 0.66673 0.0
C1240 C 0.03278 0.57271 0.7057 0.0
C1241 C 0.45805 0.45446 0.8275 0.0
C1242 C 0.44924 0.46481 0.78646 0.0
C1243 C 0.46766 0.44447 0.78971 0.0
C1244 C 0.46926 0.44492 0.70956 0.0
H1245 H 0.45746 0.454 0.88945 0.0
H1246 H 0.47429 0.43676 0.82363 0.0
S1247 S 0.4489 0.47015 0.57567 0.0
N1248 N 0.4426 0.47479 0.66138 0.0
N1249 N 0.46109 0.45653 0.5902 0.0
C1250 C 0.46051 0.45524 0.66783 0.0
C1251 C 0.45037 0.46504 0.7063 0.0
C1252 C 0.56101 0.99028 0.71514 0.0
C1253 C 0.55842 0.98929 0.79497 0.0
C1254 C 0.57093 0.00978 0.67679 0.0
C1255 C 0.57907 0.029 0.71702 0.0
H1256 H 0.55494 0.97589 0.68178 0.0
H1257 H 0.57226 0.00979 0.61505 0.0
S1258 S 0.57663 0.03515 0.92658 0.0
N1259 N 0.5649 0.00933 0.91311 0.0
N1260 N 0.58394 0.0459 0.84087 0.0
C1261 C 0.57694 0.02829 0.79689 0.0
C1262 C 0.56649 1.00844 0.83588 0.0
C1263 C 0.45564 1.00822 0.17621 0.0
C1264 C 0.46614 0.02746 0.21669 0.0
C1265 C 0.44581 0.98871 0.21453 0.0
C1266 C 0.44657 0.98773 0.29468 0.0
H1267 H 0.45497 1.00823 0.11428 0.0
H1268 H 0.438 0.97431 0.181 0.0
S1269 S 0.47237 0.0336 0.42713 0.0
N1270 N 0.47664 0.04435 0.34116 0.0
N1271 N 0.45866 1.00777 0.41338 0.0
C1272 C 0.45704 1.00688 0.33584 0.0
C1273 C 0.46669 0.02673 0.29682 0.0
C1274 C 0.01399 0.45049 0.32486 0.0
C1275 C 0.03323 0.46158 0.28476 0.0
C1276 C 0.99451 0.44072 0.28632 0.0
C1277 C 0.99354 0.44211 0.20639 0.0
H1278 H 0.01398 0.44935 0.38666 0.0
H1279 H 0.98011 0.43244 0.3196 0.0
S1280 S 0.03942 0.46958 0.07496 0.0
N1281 N 0.05015 0.47331 0.16085 0.0
N1282 N 0.0136 0.45542 0.08827 0.0
C1283 C 1.0127 0.45316 0.16559 0.0
C1284 C 0.03254 0.46275 0.20479 0.0
C1285 C 0.57995 0.55738 0.28968 0.0
C1286 C 0.57897 0.55523 0.20967 0.0
C1287 C 0.57021 0.56725 0.32744 0.0
C1288 C 0.5596 0.57578 0.28648 0.0
H1289 H 0.58789 0.55099 0.32358 0.0
H1290 H 0.57106 0.56824 0.38931 0.0
S1291 S 0.5528 0.57464 0.07607 0.0
N1292 N 0.56654 0.56257 0.09054 0.0
N1293 N 0.54875 0.58154 0.16164 0.0
C1294 C 0.55882 0.5741 0.20643 0.0
C1295 C 0.56836 0.56369 0.16802 0.0
loop_
_geom_bond_atom_site_label_1
_geom_bond_atom_site_label_2
_geom_bond_distance
_geom_bond_site_symmetry_2
_ccdc_geom_bond_type
Co0 O1 2.216 . S
Co0 O2 2.091 . S
Co0 O4 2.004 . S
Co0 O10 2.021 . S
Co0 O12 2.137 . S
Co0 O13 2.244 . S
O1 Co0 2.216 . S
O1 C8 1.247 . S
O2 Co0 2.091 . S
O2 C8 1.261 . S
C3 O12 1.247 . S
C3 O13 1.272 . S
O4 Co0 2.004 . S
O4 C9 1.259 . S
Co5 O6 2.061 . S
Co5 O11 2.052 . S
Co5 O13 2.135 . S
O6 Co5 2.061 . S
O6 C9 1.235 . S
C7 O10 1.238 . S
C7 O11 1.241 . S
C8 O1 1.247 . S
C8 O2 1.261 . S
C9 O4 1.259 . S
C9 O6 1.235 . S
O10 Co0 2.021 . S
O10 C7 1.238 . S
O11 Co5 2.052 . S
O11 C7 1.241 . S
O12 Co0 2.137 . S
O12 C3 1.247 . S
O13 Co0 2.244 . S
O13 C3 1.272 . S
O13 Co5 2.135 . S
Co14 O15 2.216 . S
Co14 O16 2.091 . S
Co14 O18 2.004 . S
Co14 O24 2.021 . S
Co14 O26 2.137 . S
Co14 O27 2.244 . S
O15 Co14 2.216 . S
O15 C22 1.247 . S
O16 Co14 2.091 . S
O16 C22 1.261 . S
C17 O26 1.247 . S
C17 O27 1.272 . S
O18 Co14 2.004 . S
O18 C23 1.259 . S
Co19 O20 2.061 . S
Co19 O25 2.052 . S
Co19 O27 2.135 . S
O20 Co19 2.061 . S
O20 C23 1.235 . S
C21 O24 1.238 . S
C21 O25 1.241 . S
C22 O15 1.247 . S
C22 O16 1.261 . S
C23 O18 1.259 . S
C23 O20 1.235 . S
O24 Co14 2.021 . S
O24 C21 1.238 . S
O25 Co19 2.052 . S
O25 C21 1.241 . S
O26 Co14 2.137 . S
O26 C17 1.247 . S
O27 Co14 2.244 . S
O27 C17 1.272 . S
O27 Co19 2.135 . S
Co28 O29 2.216 . S
Co28 O30 2.091 . S
Co28 O32 2.004 . S
Co28 O38 2.021 . S
Co28 O40 2.137 . S
Co28 O41 2.244 . S
O29 Co28 2.216 . S
O29 C36 1.247 . S
O30 Co28 2.091 . S
O30 C36 1.261 . S
C31 O40 1.247 . S
C31 O41 1.272 . S
O32 Co28 2.004 . S
O32 C37 1.259 . S
Co33 O34 2.061 . S
Co33 O39 2.052 . S
Co33 O41 2.135 . S
O34 Co33 2.061 . S
O34 C37 1.235 . S
C35 O38 1.238 . S
C35 O39 1.241 . S
C36 O29 1.247 . S
C36 O30 1.261 . S
C37 O32 1.259 . S
C37 O34 1.235 . S
O38 Co28 2.021 . S
O38 C35 1.238 . S
O39 Co33 2.052 . S
O39 C35 1.241 . S
O40 Co28 2.137 . S
O40 C31 1.247 . S
O41 Co28 2.244 . S
O41 C31 1.272 . S
O41 Co33 2.135 . S
Co42 O43 2.216 . S
Co42 O44 2.091 . S
Co42 O46 2.004 . S
Co42 O52 2.021 . S
Co42 O54 2.137 . S
Co42 O55 2.244 . S
O43 Co42 2.216 . S
O43 C50 1.247 . S
O44 Co42 2.091 . S
O44 C50 1.261 . S
C45 O54 1.247 . S
C45 O55 1.272 . S
O46 Co42 2.004 . S
O46 C51 1.259 . S
Co47 O48 2.061 . S
Co47 O53 2.052 . S
Co47 O55 2.135 . S
O48 Co47 2.061 . S
O48 C51 1.235 . S
C49 O52 1.238 . S
C49 O53 1.241 . S
C50 O43 1.247 . S
C50 O44 1.261 . S
C51 O46 1.259 . S
C51 O48 1.235 . S
O52 Co42 2.021 . S
O52 C49 1.238 . S
O53 Co47 2.052 . S
O53 C49 1.241 . S
O54 Co42 2.137 . S
O54 C45 1.247 . S
O55 Co42 2.244 . S
O55 C45 1.272 . S
O55 Co47 2.135 . S
Co56 O57 2.216 . S
Co56 O58 2.091 . S
Co56 O60 2.004 . S
Co56 O66 2.021 . S
Co56 O68 2.137 . S
Co56 O69 2.244 . S
O57 Co56 2.216 . S
O57 C64 1.247 . S
O58 Co56 2.091 . S
O58 C64 1.261 . S
C59 O68 1.247 . S
C59 O69 1.272 . S
O60 Co56 2.004 . S
O60 C65 1.259 . S
Co61 O62 2.061 . S
Co61 O67 2.052 . S
Co61 O69 2.135 . S
O62 Co61 2.061 . S
O62 C65 1.235 . S
C63 O66 1.238 . S
C63 O67 1.241 . S
C64 O57 1.247 . S
C64 O58 1.261 . S
C65 O60 1.259 . S
C65 O62 1.235 . S
O66 Co56 2.021 . S
O66 C63 1.238 . S
O67 Co61 2.052 . S
O67 C63 1.241 . S
O68 Co56 2.137 . S
O68 C59 1.247 . S
O69 Co56 2.244 . S
O69 C59 1.272 . S
O69 Co61 2.135 . S
Co70 O71 2.216 . S
Co70 O72 2.091 . S
Co70 O74 2.004 . S
Co70 O80 2.021 . S
Co70 O82 2.137 . S
Co70 O83 2.244 . S
O71 Co70 2.216 . S
O71 C78 1.247 . S
O72 Co70 2.091 . S
O72 C78 1.261 . S
C73 O82 1.247 . S
C73 O83 1.272 . S
O74 Co70 2.004 . S
O74 C79 1.259 . S
Co75 O76 2.061 . S
Co75 O81 2.052 . S
Co75 O83 2.135 . S
O76 Co75 2.061 . S
O76 C79 1.235 . S
C77 O80 1.238 . S
C77 O81 1.241 . S
C78 O71 1.247 . S
C78 O72 1.261 . S
C79 O74 1.259 . S
C79 O76 1.235 . S
O80 Co70 2.021 . S
O80 C77 1.238 . S
O81 Co75 2.052 . S
O81 C77 1.241 . S
O82 Co70 2.137 . S
O82 C73 1.247 . S
O83 Co70 2.244 . S
O83 C73 1.272 . S
O83 Co75 2.135 . S
Co84 O85 2.216 . S
Co84 O86 2.091 . S
Co84 O88 2.004 . S
Co84 O94 2.021 . S
Co84 O96 2.137 . S
Co84 O97 2.244 . S
O85 Co84 2.216 . S
O85 C92 1.247 . S
O86 Co84 2.091 . S
O86 C92 1.261 . S
C87 O96 1.247 . S
C87 O97 1.272 . S
O88 Co84 2.004 . S
O88 C93 1.259 . S
Co89 O90 2.061 . S
Co89 O95 2.052 . S
Co89 O97 2.135 . S
O90 Co89 2.061 . S
O90 C93 1.235 . S
C91 O94 1.238 . S
C91 O95 1.241 . S
C92 O85 1.247 . S
C92 O86 1.261 . S
C93 O88 1.259 . S
C93 O90 1.235 . S
O94 Co84 2.021 . S
O94 C91 1.238 . S
O95 Co89 2.052 . S
O95 C91 1.241 . S
O96 Co84 2.137 . S
O96 C87 1.247 . S
O97 Co84 2.244 . S
O97 C87 1.272 . S
O97 Co89 2.135 . S
Co98 O99 2.216 . S
Co98 O100 2.091 . S
Co98 O102 2.004 . S
Co98 O108 2.021 . S
Co98 O110 2.137 . S
Co98 O111 2.244 . S
O99 Co98 2.216 . S
O99 C106 1.247 . S
O100 Co98 2.091 . S
O100 C106 1.261 . S
C101 O110 1.247 . S
C101 O111 1.272 . S
O102 Co98 2.004 . S
O102 C107 1.259 . S
Co103 O104 2.061 . S
Co103 O109 2.052 . S
Co103 O111 2.135 . S
O104 Co103 2.061 . S
O104 C107 1.235 . S
C105 O108 1.238 . S
C105 O109 1.241 . S
C106 O99 1.247 . S
C106 O100 1.261 . S
C107 O102 1.259 . S
C107 O104 1.235 . S
O108 Co98 2.021 . S
O108 C105 1.238 . S
O109 Co103 2.052 . S
O109 C105 1.241 . S
O110 Co98 2.137 . S
O110 C101 1.247 . S
O111 Co98 2.244 . S
O111 C101 1.272 . S
O111 Co103 2.135 . S
Co112 O113 2.216 . S
Co112 O114 2.091 . S
Co112 O116 2.004 . S
Co112 O122 2.021 . S
Co112 O124 2.137 . S
Co112 O125 2.244 . S
O113 Co112 2.216 . S
O113 C120 1.247 . S
O114 Co112 2.091 . S
O114 C120 1.261 . S
C115 O124 1.247 . S
C115 O125 1.272 . S
O116 Co112 2.004 . S
O116 C121 1.259 . S
Co117 O118 2.061 . S
Co117 O123 2.052 . S
Co117 O125 2.135 . S
O118 Co117 2.061 . S
O118 C121 1.235 . S
C119 O122 1.238 . S
C119 O123 1.241 . S
C120 O113 1.247 . S
C120 O114 1.261 . S
C121 O116 1.259 . S
C121 O118 1.235 . S
O122 Co112 2.021 . S
O122 C119 1.238 . S
O123 Co117 2.052 . S
O123 C119 1.241 . S
O124 Co112 2.137 . S
O124 C115 1.247 . S
O125 Co112 2.244 . S
O125 C115 1.272 . S
O125 Co117 2.135 . S
Co126 O127 2.216 . S
Co126 O128 2.091 . S
Co126 O130 2.004 . S
Co126 O136 2.021 . S
Co126 O138 2.137 . S
Co126 O139 2.244 . S
O127 Co126 2.216 . S
O127 C134 1.247 . S
O128 Co126 2.091 . S
O128 C134 1.261 . S
C129 O138 1.247 . S
C129 O139 1.272 . S
O130 Co126 2.004 . S
O130 C135 1.259 . S
Co131 O132 2.061 . S
Co131 O137 2.052 . S
Co131 O139 2.135 . S
O132 Co131 2.061 . S
O132 C135 1.235 . S
C133 O136 1.238 . S
C133 O137 1.241 . S
C134 O127 1.247 . S
C134 O128 1.261 . S
C135 O130 1.259 . S
C135 O132 1.235 . S
O136 Co126 2.021 . S
O136 C133 1.238 . S
O137 Co131 2.052 . S
O137 C133 1.241 . S
O138 Co126 2.137 . S
O138 C129 1.247 . S
O139 Co126 2.244 . S
O139 C129 1.272 . S
O139 Co131 2.135 . S
Co140 O141 2.216 . S
Co140 O142 2.091 . S
Co140 O144 2.004 . S
Co140 O150 2.021 . S
Co140 O152 2.137 . S
Co140 O153 2.244 . S
O141 Co140 2.216 . S
O141 C148 1.247 . S
O142 Co140 2.091 . S
O142 C148 1.261 . S
C143 O152 1.247 . S
C143 O153 1.272 . S
O144 Co140 2.004 . S
O144 C149 1.259 . S
Co145 O146 2.061 . S
Co145 O151 2.052 . S
Co145 O153 2.135 . S
O146 Co145 2.061 . S
O146 C149 1.235 . S
C147 O150 1.238 . S
C147 O151 1.241 . S
C148 O141 1.247 . S
C148 O142 1.261 . S
C149 O144 1.259 . S
C149 O146 1.235 . S
O150 Co140 2.021 . S
O150 C147 1.238 . S
O151 Co145 2.052 . S
O151 C147 1.241 . S
O152 Co140 2.137 . S
O152 C143 1.247 . S
O153 Co140 2.244 . S
O153 C143 1.272 . S
O153 Co145 2.135 . S
Co154 O155 2.216 . S
Co154 O156 2.091 . S
Co154 O158 2.004 . S
Co154 O164 2.021 . S
Co154 O166 2.137 . S
Co154 O167 2.244 . S
O155 Co154 2.216 . S
O155 C162 1.247 . S
O156 Co154 2.091 . S
O156 C162 1.261 . S
C157 O166 1.247 . S
C157 O167 1.272 . S
O158 Co154 2.004 . S
O158 C163 1.259 . S
Co159 O160 2.061 . S
Co159 O165 2.052 . S
Co159 O167 2.135 . S
O160 Co159 2.061 . S
O160 C163 1.235 . S
C161 O164 1.238 . S
C161 O165 1.241 . S
C162 O155 1.247 . S
C162 O156 1.261 . S
C163 O158 1.259 . S
C163 O160 1.235 . S
O164 Co154 2.021 . S
O164 C161 1.238 . S
O165 Co159 2.052 . S
O165 C161 1.241 . S
O166 Co154 2.137 . S
O166 C157 1.247 . S
O167 Co154 2.244 . S
O167 C157 1.272 . S
O167 Co159 2.135 . S
Co168 O169 2.216 . S
Co168 O170 2.091 . S
Co168 O172 2.004 . S
Co168 O178 2.021 . S
Co168 O180 2.137 . S
Co168 O181 2.244 . S
O169 Co168 2.216 . S
O169 C176 1.247 . S
O170 Co168 2.091 . S
O170 C176 1.261 . S
C171 O180 1.247 . S
C171 O181 1.272 . S
O172 Co168 2.004 . S
O172 C177 1.259 . S
Co173 O174 2.061 . S
Co173 O179 2.052 . S
Co173 O181 2.135 . S
O174 Co173 2.061 . S
O174 C177 1.235 . S
C175 O178 1.238 . S
C175 O179 1.241 . S
C176 O169 1.247 . S
C176 O170 1.261 . S
C177 O172 1.259 . S
C177 O174 1.235 . S
O178 Co168 2.021 . S
O178 C175 1.238 . S
O179 Co173 2.052 . S
O179 C175 1.241 . S
O180 Co168 2.137 . S
O180 C171 1.247 . S
O181 Co168 2.244 . S
O181 C171 1.272 . S
O181 Co173 2.135 . S
Co182 O183 2.216 . S
Co182 O184 2.091 . S
Co182 O186 2.004 . S
Co182 O192 2.021 . S
Co182 O194 2.137 . S
Co182 O195 2.244 . S
O183 Co182 2.216 . S
O183 C190 1.247 . S
O184 Co182 2.091 . S
O184 C190 1.261 . S
C185 O194 1.247 . S
C185 O195 1.272 . S
O186 Co182 2.004 . S
O186 C191 1.259 . S
Co187 O188 2.061 . S
Co187 O193 2.052 . S
Co187 O195 2.135 . S
O188 Co187 2.061 . S
O188 C191 1.235 . S
C189 O192 1.238 . S
C189 O193 1.241 . S
C190 O183 1.247 . S
C190 O184 1.261 . S
C191 O186 1.259 . S
C191 O188 1.235 . S
O192 Co182 2.021 . S
O192 C189 1.238 . S
O193 Co187 2.052 . S
O193 C189 1.241 . S
O194 Co182 2.137 . S
O194 C185 1.247 . S
O195 Co182 2.244 . S
O195 C185 1.272 . S
O195 Co187 2.135 . S
Co196 O197 2.216 . S
Co196 O198 2.091 . S
Co196 O200 2.004 . S
Co196 O206 2.021 . S
Co196 O208 2.137 . S
Co196 O209 2.244 . S
O197 Co196 2.216 . S
O197 C204 1.247 . S
O198 Co196 2.091 . S
O198 C204 1.261 . S
C199 O208 1.247 . S
C199 O209 1.272 . S
O200 Co196 2.004 . S
O200 C205 1.259 . S
Co201 O202 2.061 . S
Co201 O207 2.052 . S
Co201 O209 2.135 . S
O202 Co201 2.061 . S
O202 C205 1.235 . S
C203 O206 1.238 . S
C203 O207 1.241 . S
C204 O197 1.247 . S
C204 O198 1.261 . S
C205 O200 1.259 . S
C205 O202 1.235 . S
O206 Co196 2.021 . S
O206 C203 1.238 . S
O207 Co201 2.052 . S
O207 C203 1.241 . S
O208 Co196 2.137 . S
O208 C199 1.247 . S
O209 Co196 2.244 . S
O209 C199 1.272 . S
O209 Co201 2.135 . S
Co210 O211 2.216 . S
Co210 O212 2.091 . S
Co210 O214 2.004 . S
Co210 O220 2.021 . S
Co210 O222 2.137 . S
Co210 O223 2.244 . S
O211 Co210 2.216 . S
O211 C218 1.247 . S
O212 Co210 2.091 . S
O212 C218 1.261 . S
C213 O222 1.247 . S
C213 O223 1.272 . S
O214 Co210 2.004 . S
O214 C219 1.259 . S
Co215 O216 2.061 . S
Co215 O221 2.052 . S
Co215 O223 2.135 . S
O216 Co215 2.061 . S
O216 C219 1.235 . S
C217 O220 1.238 . S
C217 O221 1.241 . S
C218 O211 1.247 . S
C218 O212 1.261 . S
C219 O214 1.259 . S
C219 O216 1.235 . S
O220 Co210 2.021 . S
O220 C217 1.238 . S
O221 Co215 2.052 . S
O221 C217 1.241 . S
O222 Co210 2.137 . S
O222 C213 1.247 . S
O223 Co210 2.244 . S
O223 C213 1.272 . S
O223 Co215 2.135 . S
Co224 O225 2.216 . S
Co224 O226 2.091 . S
Co224 O228 2.004 . S
Co224 O234 2.021 . S
Co224 O236 2.137 . S
Co224 O237 2.244 . S
O225 Co224 2.216 . S
O225 C232 1.247 . S
O226 Co224 2.091 . S
O226 C232 1.261 . S
C227 O236 1.247 . S
C227 O237 1.272 . S
O228 Co224 2.004 . S
O228 C233 1.259 . S
Co229 O230 2.061 . S
Co229 O235 2.052 . S
Co229 O237 2.135 . S
O230 Co229 2.061 . S
O230 C233 1.235 . S
C231 O234 1.238 . S
C231 O235 1.241 . S
C232 O225 1.247 . S
C232 O226 1.261 . S
C233 O228 1.259 . S
C233 O230 1.235 . S
O234 Co224 2.021 . S
O234 C231 1.238 . S
O235 Co229 2.052 . S
O235 C231 1.241 . S
O236 Co224 2.137 . S
O236 C227 1.247 . S
O237 Co224 2.244 . S
O237 C227 1.272 . S
O237 Co229 2.135 . S
Co238 O239 2.216 . S
Co238 O240 2.091 . S
Co238 O242 2.004 . S
Co238 O248 2.021 . S
Co238 O250 2.137 . S
Co238 O251 2.244 . S
O239 Co238 2.216 . S
O239 C246 1.247 . S
O240 Co238 2.091 . S
O240 C246 1.261 . S
C241 O250 1.247 . S
C241 O251 1.272 . S
O242 Co238 2.004 . S
O242 C247 1.259 . S
Co243 O244 2.061 . S
Co243 O249 2.052 . S
Co243 O251 2.135 . S
O244 Co243 2.061 . S
O244 C247 1.235 . S
C245 O248 1.238 . S
C245 O249 1.241 . S
C246 O239 1.247 . S
C246 O240 1.261 . S
C247 O242 1.259 . S
C247 O244 1.235 . S
O248 Co238 2.021 . S
O248 C245 1.238 . S
O249 Co243 2.052 . S
O249 C245 1.241 . S
O250 Co238 2.137 . S
O250 C241 1.247 . S
O251 Co238 2.244 . S
O251 C241 1.272 . S
O251 Co243 2.135 . S
Co252 O253 2.216 . S
Co252 O254 2.091 . S
Co252 O256 2.004 . S
Co252 O262 2.021 . S
Co252 O264 2.137 . S
Co252 O265 2.244 . S
O253 Co252 2.216 . S
O253 C260 1.247 . S
O254 Co252 2.091 . S
O254 C260 1.261 . S
C255 O264 1.247 . S
C255 O265 1.272 . S
O256 Co252 2.004 . S
O256 C261 1.259 . S
Co257 O258 2.061 . S
Co257 O263 2.052 . S
Co257 O265 2.135 . S
O258 Co257 2.061 . S
O258 C261 1.235 . S
C259 O262 1.238 . S
C259 O263 1.241 . S
C260 O253 1.247 . S
C260 O254 1.261 . S
C261 O256 1.259 . S
C261 O258 1.235 . S
O262 Co252 2.021 . S
O262 C259 1.238 . S
O263 Co257 2.052 . S
O263 C259 1.241 . S
O264 Co252 2.137 . S
O264 C255 1.247 . S
O265 Co252 2.244 . S
O265 C255 1.272 . S
O265 Co257 2.135 . S
Co266 O267 2.216 . S
Co266 O268 2.091 . S
Co266 O270 2.004 . S
Co266 O276 2.021 . S
Co266 O278 2.137 . S
Co266 O279 2.244 . S
O267 Co266 2.216 . S
O267 C274 1.247 . S
O268 Co266 2.091 . S
O268 C274 1.261 . S
C269 O278 1.247 . S
C269 O279 1.272 . S
O270 Co266 2.004 . S
O270 C275 1.259 . S
Co271 O272 2.061 . S
Co271 O277 2.052 . S
Co271 O279 2.135 . S
O272 Co271 2.061 . S
O272 C275 1.235 . S
C273 O276 1.238 . S
C273 O277 1.241 . S
C274 O267 1.247 . S
C274 O268 1.261 . S
C275 O270 1.259 . S
C275 O272 1.235 . S
O276 Co266 2.021 . S
O276 C273 1.238 . S
O277 Co271 2.052 . S
O277 C273 1.241 . S
O278 Co266 2.137 . S
O278 C269 1.247 . S
O279 Co266 2.244 . S
O279 C269 1.272 . S
O279 Co271 2.135 . S
Co280 O281 2.216 . S
Co280 O282 2.091 . S
Co280 O284 2.004 . S
Co280 O290 2.021 . S
Co280 O292 2.137 . S
Co280 O293 2.244 . S
O281 Co280 2.216 . S
O281 C288 1.247 . S
O282 Co280 2.091 . S
O282 C288 1.261 . S
C283 O292 1.247 . S
C283 O293 1.272 . S
O284 Co280 2.004 . S
O284 C289 1.259 . S
Co285 O286 2.061 . S
Co285 O291 2.052 . S
Co285 O293 2.135 . S
O286 Co285 2.061 . S
O286 C289 1.235 . S
C287 O290 1.238 . S
C287 O291 1.241 . S
C288 O281 1.247 . S
C288 O282 1.261 . S
C289 O284 1.259 . S
C289 O286 1.235 . S
O290 Co280 2.021 . S
O290 C287 1.238 . S
O291 Co285 2.052 . S
O291 C287 1.241 . S
O292 Co280 2.137 . S
O292 C283 1.247 . S
O293 Co280 2.244 . S
O293 C283 1.272 . S
O293 Co285 2.135 . S
Co294 O295 2.216 1_556 S
Co294 O296 2.091 . S
Co294 O298 2.004 . S
Co294 O304 2.021 1_556 S
Co294 O306 2.137 . S
Co294 O307 2.244 . S
O295 Co294 2.216 1_554 S
O295 C302 1.247 . S
O296 Co294 2.091 . S
O296 C302 1.261 1_556 S
C297 O306 1.247 . S
C297 O307 1.272 . S
O298 Co294 2.004 . S
O298 C303 1.259 . S
Co299 O300 2.061 1_554 S
Co299 O305 2.052 . S
Co299 O307 2.135 1_554 S
O300 Co299 2.061 1_556 S
O300 C303 1.235 . S
C301 O304 1.238 . S
C301 O305 1.241 . S
C302 O295 1.247 . S
C302 O296 1.261 1_554 S
C303 O298 1.259 . S
C303 O300 1.235 . S
O304 Co294 2.021 1_554 S
O304 C301 1.238 . S
O305 Co299 2.052 . S
O305 C301 1.241 . S
O306 Co294 2.137 . S
O306 C297 1.247 . S
O307 Co294 2.244 . S
O307 C297 1.272 . S
O307 Co299 2.135 1_556 S
Co308 O309 2.216 1_556 S
Co308 O310 2.091 . S
Co308 O312 2.004 . S
Co308 O318 2.021 1_556 S
Co308 O320 2.137 . S
Co308 O321 2.244 . S
O309 Co308 2.216 1_554 S
O309 C316 1.247 . S
O310 Co308 2.091 . S
O310 C316 1.261 1_556 S
C311 O320 1.247 . S
C311 O321 1.272 . S
O312 Co308 2.004 . S
O312 C317 1.259 . S
Co313 O314 2.061 1_554 S
Co313 O319 2.052 . S
Co313 O321 2.135 1_554 S
O314 Co313 2.061 1_556 S
O314 C317 1.235 . S
C315 O318 1.238 . S
C315 O319 1.241 . S
C316 O309 1.247 . S
C316 O310 1.261 1_554 S
C317 O312 1.259 . S
C317 O314 1.235 . S
O318 Co308 2.021 1_554 S
O318 C315 1.238 . S
O319 Co313 2.052 . S
O319 C315 1.241 . S
O320 Co308 2.137 . S
O320 C311 1.247 . S
O321 Co308 2.244 . S
O321 C311 1.272 . S
O321 Co313 2.135 1_556 S
Co322 O323 2.216 1_556 S
Co322 O324 2.091 . S
Co322 O326 2.004 . S
Co322 O332 2.021 1_556 S
Co322 O334 2.137 . S
Co322 O335 2.244 . S
O323 Co322 2.216 1_554 S
O323 C330 1.247 . S
O324 Co322 2.091 . S
O324 C330 1.261 1_556 S
C325 O334 1.247 . S
C325 O335 1.272 . S
O326 Co322 2.004 . S
O326 C331 1.259 . S
Co327 O328 2.061 1_554 S
Co327 O333 2.052 . S
Co327 O335 2.135 1_554 S
O328 Co327 2.061 1_556 S
O328 C331 1.235 . S
C329 O332 1.238 . S
C329 O333 1.241 . S
C330 O323 1.247 . S
C330 O324 1.261 1_554 S
C331 O326 1.259 . S
C331 O328 1.235 . S
O332 Co322 2.021 1_554 S
O332 C329 1.238 . S
O333 Co327 2.052 . S
O333 C329 1.241 . S
O334 Co322 2.137 . S
O334 C325 1.247 . S
O335 Co322 2.244 . S
O335 C325 1.272 . S
O335 Co327 2.135 1_556 S
Co336 O337 2.216 . S
Co336 O338 2.091 . S
Co336 O340 2.004 . S
Co336 O346 2.021 . S
Co336 O348 2.137 . S
Co336 O349 2.244 . S
O337 Co336 2.216 . S
O337 C344 1.247 . S
O338 Co336 2.091 . S
O338 C344 1.261 . S
C339 O348 1.247 . S
C339 O349 1.272 . S
O340 Co336 2.004 . S
O340 C345 1.259 . S
Co341 O342 2.061 . S
Co341 O347 2.052 . S
Co341 O349 2.135 . S
O342 Co341 2.061 . S
O342 C345 1.235 . S
C343 O346 1.238 . S
C343 O347 1.241 . S
C344 O337 1.247 . S
C344 O338 1.261 . S
C345 O340 1.259 . S
C345 O342 1.235 . S
O346 Co336 2.021 . S
O346 C343 1.238 . S
O347 Co341 2.052 . S
O347 C343 1.241 . S
O348 Co336 2.137 . S
O348 C339 1.247 . S
O349 Co336 2.244 . S
O349 C339 1.272 . S
O349 Co341 2.135 . S
Co350 O351 2.216 . S
Co350 O352 2.091 . S
Co350 O354 2.004 . S
Co350 O360 2.021 . S
Co350 O362 2.137 . S
Co350 O363 2.244 . S
O351 Co350 2.216 . S
O351 C358 1.247 . S
O352 Co350 2.091 . S
O352 C358 1.261 . S
C353 O362 1.247 . S
C353 O363 1.272 . S
O354 Co350 2.004 . S
O354 C359 1.259 . S
Co355 O356 2.061 . S
Co355 O361 2.052 . S
Co355 O363 2.135 . S
O356 Co355 2.061 . S
O356 C359 1.235 . S
C357 O360 1.238 . S
C357 O361 1.241 . S
C358 O351 1.247 . S
C358 O352 1.261 . S
C359 O354 1.259 . S
C359 O356 1.235 . S
O360 Co350 2.021 . S
O360 C357 1.238 . S
O361 Co355 2.052 . S
O361 C357 1.241 . S
O362 Co350 2.137 . S
O362 C353 1.247 . S
O363 Co350 2.244 . S
O363 C353 1.272 . S
O363 Co355 2.135 . S
Co364 O365 2.216 . S
Co364 O366 2.091 . S
Co364 O368 2.004 . S
Co364 O374 2.021 . S
Co364 O376 2.137 . S
Co364 O377 2.244 . S
O365 Co364 2.216 . S
O365 C372 1.247 . S
O366 Co364 2.091 . S
O366 C372 1.261 . S
C367 O376 1.247 . S
C367 O377 1.272 . S
O368 Co364 2.004 . S
O368 C373 1.259 . S
Co369 O370 2.061 . S
Co369 O375 2.052 . S
Co369 O377 2.135 . S
O370 Co369 2.061 . S
O370 C373 1.235 . S
C371 O374 1.238 . S
C371 O375 1.241 . S
C372 O365 1.247 . S
C372 O366 1.261 . S
C373 O368 1.259 . S
C373 O370 1.235 . S
O374 Co364 2.021 . S
O374 C371 1.238 . S
O375 Co369 2.052 . S
O375 C371 1.241 . S
O376 Co364 2.137 . S
O376 C367 1.247 . S
O377 Co364 2.244 . S
O377 C367 1.272 . S
O377 Co369 2.135 . S
Co378 O379 2.216 1_554 S
Co378 O380 2.091 . S
Co378 O382 2.004 . S
Co378 O388 2.021 1_554 S
Co378 O390 2.137 . S
Co378 O391 2.244 . S
O379 Co378 2.216 1_556 S
O379 C386 1.247 . S
O380 Co378 2.091 . S
O380 C386 1.261 1_554 S
C381 O390 1.247 . S
C381 O391 1.272 . S
O382 Co378 2.004 . S
O382 C387 1.259 . S
Co383 O384 2.061 1_556 S
Co383 O389 2.052 . S
Co383 O391 2.135 1_556 S
O384 Co383 2.061 1_554 S
O384 C387 1.235 . S
C385 O388 1.238 . S
C385 O389 1.241 . S
C386 O379 1.247 . S
C386 O380 1.261 1_556 S
C387 O382 1.259 . S
C387 O384 1.235 . S
O388 Co378 2.021 1_556 S
O388 C385 1.238 . S
O389 Co383 2.052 . S
O389 C385 1.241 . S
O390 Co378 2.137 . S
O390 C381 1.247 . S
O391 Co378 2.244 . S
O391 C381 1.272 . S
O391 Co383 2.135 1_554 S
Co392 O393 2.216 1_554 S
Co392 O394 2.091 . S
Co392 O396 2.004 . S
Co392 O402 2.021 1_554 S
Co392 O404 2.137 . S
Co392 O405 2.244 . S
O393 Co392 2.216 1_556 S
O393 C400 1.247 . S
O394 Co392 2.091 . S
O394 C400 1.261 1_554 S
C395 O404 1.247 . S
C395 O405 1.272 . S
O396 Co392 2.004 . S
O396 C401 1.259 . S
Co397 O398 2.061 1_556 S
Co397 O403 2.052 . S
Co397 O405 2.135 1_556 S
O398 Co397 2.061 1_554 S
O398 C401 1.235 . S
C399 O402 1.238 . S
C399 O403 1.241 . S
C400 O393 1.247 . S
C400 O394 1.261 1_556 S
C401 O396 1.259 . S
C401 O398 1.235 . S
O402 Co392 2.021 1_556 S
O402 C399 1.238 . S
O403 Co397 2.052 . S
O403 C399 1.241 . S
O404 Co392 2.137 . S
O404 C395 1.247 . S
O405 Co392 2.244 . S
O405 C395 1.272 . S
O405 Co397 2.135 1_554 S
Co406 O407 2.216 1_554 S
Co406 O408 2.091 . S
Co406 O410 2.004 . S
Co406 O416 2.021 1_554 S
Co406 O418 2.137 . S
Co406 O419 2.244 . S
O407 Co406 2.216 1_556 S
O407 C414 1.247 . S
O408 Co406 2.091 . S
O408 C414 1.261 1_554 S
C409 O418 1.247 . S
C409 O419 1.272 . S
O410 Co406 2.004 . S
O410 C415 1.259 . S
Co411 O412 2.061 1_556 S
Co411 O417 2.052 . S
Co411 O419 2.135 1_556 S
O412 Co411 2.061 1_554 S
O412 C415 1.235 . S
C413 O416 1.238 . S
C413 O417 1.241 . S
C414 O407 1.247 . S
C414 O408 1.261 1_556 S
C415 O410 1.259 . S
C415 O412 1.235 . S
O416 Co406 2.021 1_556 S
O416 C413 1.238 . S
O417 Co411 2.052 . S
O417 C413 1.241 . S
O418 Co406 2.137 . S
O418 C409 1.247 . S
O419 Co406 2.244 . S
O419 C409 1.272 . S
O419 Co411 2.135 1_554 S
Co420 O421 2.216 . S
Co420 O422 2.091 . S
Co420 O424 2.004 . S
Co420 O430 2.021 . S
Co420 O432 2.137 . S
Co420 O433 2.244 . S
O421 Co420 2.216 . S
O421 C428 1.247 . S
O422 Co420 2.091 . S
O422 C428 1.261 . S
C423 O432 1.247 . S
C423 O433 1.272 . S
O424 Co420 2.004 . S
O424 C429 1.259 . S
Co425 O426 2.061 . S
Co425 O431 2.052 . S
Co425 O433 2.135 . S
O426 Co425 2.061 . S
O426 C429 1.235 . S
C427 O430 1.238 . S
C427 O431 1.241 . S
C428 O421 1.247 . S
C428 O422 1.261 . S
C429 O424 1.259 . S
C429 O426 1.235 . S
O430 Co420 2.021 . S
O430 C427 1.238 . S
O431 Co425 2.052 . S
O431 C427 1.241 . S
O432 Co420 2.137 . S
O432 C423 1.247 . S
O433 Co420 2.244 . S
O433 C423 1.272 . S
O433 Co425 2.135 . S
Co434 O435 2.216 . S
Co434 O436 2.091 . S
Co434 O438 2.004 . S
Co434 O444 2.021 . S
Co434 O446 2.137 . S
Co434 O447 2.244 . S
O435 Co434 2.216 . S
O435 C442 1.247 . S
O436 Co434 2.091 . S
O436 C442 1.261 . S
C437 O446 1.247 . S
C437 O447 1.272 . S
O438 Co434 2.004 . S
O438 C443 1.259 . S
Co439 O440 2.061 . S
Co439 O445 2.052 . S
Co439 O447 2.135 . S
O440 Co439 2.061 . S
O440 C443 1.235 . S
C441 O444 1.238 . S
C441 O445 1.241 . S
C442 O435 1.247 . S
C442 O436 1.261 . S
C443 O438 1.259 . S
C443 O440 1.235 . S
O444 Co434 2.021 . S
O444 C441 1.238 . S
O445 Co439 2.052 . S
O445 C441 1.241 . S
O446 Co434 2.137 . S
O446 C437 1.247 . S
O447 Co434 2.244 . S
O447 C437 1.272 . S
O447 Co439 2.135 . S
Co448 O449 2.216 . S
Co448 O450 2.091 . S
Co448 O452 2.004 . S
Co448 O458 2.021 . S
Co448 O460 2.137 . S
Co448 O461 2.244 . S
O449 Co448 2.216 . S
O449 C456 1.247 . S
O450 Co448 2.091 . S
O450 C456 1.261 . S
C451 O460 1.247 . S
C451 O461 1.272 . S
O452 Co448 2.004 . S
O452 C457 1.259 . S
Co453 O454 2.061 . S
Co453 O459 2.052 . S
Co453 O461 2.135 . S
O454 Co453 2.061 . S
O454 C457 1.235 . S
C455 O458 1.238 . S
C455 O459 1.241 . S
C456 O449 1.247 . S
C456 O450 1.261 . S
C457 O452 1.259 . S
C457 O454 1.235 . S
O458 Co448 2.021 . S
O458 C455 1.238 . S
O459 Co453 2.052 . S
O459 C455 1.241 . S
O460 Co448 2.137 . S
O460 C451 1.247 . S
O461 Co448 2.244 . S
O461 C451 1.272 . S
O461 Co453 2.135 . S
Co462 O463 2.216 . S
Co462 O464 2.091 . S
Co462 O466 2.004 . S
Co462 O472 2.021 . S
Co462 O474 2.137 . S
Co462 O475 2.244 . S
O463 Co462 2.216 . S
O463 C470 1.247 . S
O464 Co462 2.091 . S
O464 C470 1.261 . S
C465 O474 1.247 . S
C465 O475 1.272 . S
O466 Co462 2.004 . S
O466 C471 1.259 . S
Co467 O468 2.061 . S
Co467 O473 2.052 . S
Co467 O475 2.135 . S
O468 Co467 2.061 . S
O468 C471 1.235 . S
C469 O472 1.238 . S
C469 O473 1.241 . S
C470 O463 1.247 . S
C470 O464 1.261 . S
C471 O466 1.259 . S
C471 O468 1.235 . S
O472 Co462 2.021 . S
O472 C469 1.238 . S
O473 Co467 2.052 . S
O473 C469 1.241 . S
O474 Co462 2.137 . S
O474 C465 1.247 . S
O475 Co462 2.244 . S
O475 C465 1.272 . S
O475 Co467 2.135 . S
Co476 O477 2.216 . S
Co476 O478 2.091 . S
Co476 O480 2.004 . S
Co476 O486 2.021 . S
Co476 O488 2.137 . S
Co476 O489 2.244 . S
O477 Co476 2.216 . S
O477 C484 1.247 . S
O478 Co476 2.091 . S
O478 C484 1.261 . S
C479 O488 1.247 . S
C479 O489 1.272 . S
O480 Co476 2.004 . S
O480 C485 1.259 . S
Co481 O482 2.061 . S
Co481 O487 2.052 . S
Co481 O489 2.135 . S
O482 Co481 2.061 . S
O482 C485 1.235 . S
C483 O486 1.238 . S
C483 O487 1.241 . S
C484 O477 1.247 . S
C484 O478 1.261 . S
C485 O480 1.259 . S
C485 O482 1.235 . S
O486 Co476 2.021 . S
O486 C483 1.238 . S
O487 Co481 2.052 . S
O487 C483 1.241 . S
O488 Co476 2.137 . S
O488 C479 1.247 . S
O489 Co476 2.244 . S
O489 C479 1.272 . S
O489 Co481 2.135 . S
Co490 O491 2.216 . S
Co490 O492 2.091 . S
Co490 O494 2.004 . S
Co490 O500 2.021 . S
Co490 O502 2.137 . S
Co490 O503 2.244 . S
O491 Co490 2.216 . S
O491 C498 1.247 . S
O492 Co490 2.091 . S
O492 C498 1.261 . S
C493 O502 1.247 . S
C493 O503 1.272 . S
O494 Co490 2.004 . S
O494 C499 1.259 . S
Co495 O496 2.061 . S
Co495 O501 2.052 . S
Co495 O503 2.135 . S
O496 Co495 2.061 . S
O496 C499 1.235 . S
C497 O500 1.238 . S
C497 O501 1.241 . S
C498 O491 1.247 . S
C498 O492 1.261 . S
C499 O494 1.259 . S
C499 O496 1.235 . S
O500 Co490 2.021 . S
O500 C497 1.238 . S
O501 Co495 2.052 . S
O501 C497 1.241 . S
O502 Co490 2.137 . S
O502 C493 1.247 . S
O503 Co490 2.244 . S
O503 C493 1.272 . S
O503 Co495 2.135 . S
C504 C505 1.369 . S
C504 C506 1.419 . S
C504 H508 0.930 . S
C505 C504 1.369 . S
C505 C514 1.429 . S
C506 C504 1.419 . S
C506 C507 1.363 . S
C506 H509 0.929 . S
C507 C506 1.363 . S
C507 C513 1.428 . S
H508 C504 0.930 . S
H509 C506 0.929 . S
S510 N511 1.613 . S
S510 N512 1.610 . S
N511 S510 1.613 . S
N511 C514 1.350 . S
N512 S510 1.610 . S
N512 C513 1.351 . S
C513 C507 1.428 . S
C513 N512 1.351 . S
C513 C514 1.434 . S
C514 C505 1.429 . S
C514 N511 1.350 . S
C514 C513 1.434 . S
C515 C516 1.369 . S
C515 C517 1.419 1_545 S
C515 H519 0.930 . S
C516 C515 1.369 . S
C516 C525 1.429 . S
C517 C515 1.419 1_565 S
C517 C518 1.363 . S
C517 H520 0.929 . S
C518 C517 1.363 . S
C518 C524 1.428 . S
H519 C515 0.930 . S
H520 C517 0.929 . S
S521 N522 1.613 1_565 S
S521 N523 1.610 . S
N522 S521 1.613 1_545 S
N522 C525 1.350 . S
N523 S521 1.610 . S
N523 C524 1.351 . S
C524 C518 1.428 . S
C524 N523 1.351 . S
C524 C525 1.434 1_565 S
C525 C516 1.429 . S
C525 N522 1.350 . S
C525 C524 1.434 1_545 S
C526 C527 1.369 . S
C526 C528 1.419 1_655 S
C526 H530 0.930 . S
C527 C526 1.369 . S
C527 C536 1.429 . S
C528 C526 1.419 1_455 S
C528 C529 1.363 . S
C528 H531 0.929 . S
C529 C528 1.363 . S
C529 C535 1.428 . S
H530 C526 0.930 . S
H531 C528 0.929 . S
S532 N533 1.607 1_455 S
S532 N534 1.629 . S
N533 S532 1.607 1_655 S
N533 C536 1.350 . S
N534 S532 1.629 . S
N534 C535 1.351 . S
C535 C529 1.428 . S
C535 N534 1.351 . S
C535 C536 1.434 1_455 S
C536 C527 1.429 . S
C536 N533 1.350 . S
C536 C535 1.434 1_655 S
C537 C538 1.369 . S
C537 C539 1.419 . S
C537 H541 0.930 . S
C538 C537 1.369 . S
C538 C547 1.429 . S
C539 C537 1.419 . S
C539 C540 1.363 . S
C539 H542 0.929 . S
C540 C539 1.363 . S
C540 C546 1.428 . S
H541 C537 0.930 . S
H542 C539 0.929 . S
S543 N544 1.613 . S
S543 N545 1.610 . S
N544 S543 1.613 . S
N544 C547 1.350 . S
N545 S543 1.610 . S
N545 C546 1.351 . S
C546 C540 1.428 . S
C546 N545 1.351 . S
C546 C547 1.434 . S
C547 C538 1.429 . S
C547 N544 1.350 . S
C547 C546 1.434 . S
C548 C549 1.369 . S
C548 C550 1.419 1_545 S
C548 H552 0.930 . S
C549 C548 1.369 . S
C549 C558 1.429 . S
C550 C548 1.419 1_565 S
C550 C551 1.363 . S
C550 H553 0.929 . S
C551 C550 1.363 . S
C551 C557 1.428 . S
H552 C548 0.930 . S
H553 C550 0.929 . S
S554 N555 1.613 1_565 S
S554 N556 1.610 . S
N555 S554 1.613 1_545 S
N555 C558 1.350 . S
N556 S554 1.610 . S
N556 C557 1.351 . S
C557 C551 1.428 . S
C557 N556 1.351 . S
C557 C558 1.434 1_565 S
C558 C549 1.429 . S
C558 N555 1.350 . S
C558 C557 1.434 1_545 S
C559 C560 1.369 . S
C559 C561 1.419 1_455 S
C559 H563 0.930 . S
C560 C559 1.369 . S
C560 C569 1.429 . S
C561 C559 1.419 1_655 S
C561 C562 1.363 . S
C561 H564 0.929 . S
C562 C561 1.363 . S
C562 C568 1.428 . S
H563 C559 0.930 . S
H564 C561 0.929 . S
S565 N566 1.613 . S
S565 N567 1.610 1_455 S
N566 S565 1.613 . S
N566 C569 1.350 . S
N567 S565 1.610 1_655 S
N567 C568 1.351 . S
C568 C562 1.428 . S
C568 N567 1.351 . S
C568 C569 1.434 1_655 S
C569 C560 1.429 . S
C569 N566 1.350 . S
C569 C568 1.434 1_455 S
C570 C571 1.369 . S
C570 C572 1.419 . S
C570 H574 0.930 . S
C571 C570 1.369 . S
C571 C580 1.429 . S
C572 C570 1.419 . S
C572 C573 1.363 . S
C572 H575 0.929 . S
C573 C572 1.363 . S
C573 C579 1.428 . S
H574 C570 0.930 . S
H575 C572 0.929 . S
S576 N577 1.613 . S
S576 N578 1.610 . S
N577 S576 1.613 . S
N577 C580 1.350 . S
N578 S576 1.610 . S
N578 C579 1.351 . S
C579 C573 1.428 . S
C579 N578 1.351 . S
C579 C580 1.434 . S
C580 C571 1.429 . S
C580 N577 1.350 . S
C580 C579 1.434 . S
C581 C582 1.369 . S
C581 C583 1.419 . S
C581 H585 0.930 . S
C582 C581 1.369 . S
C582 C591 1.429 . S
C583 C581 1.419 . S
C583 C584 1.363 . S
C583 H586 0.929 . S
C584 C583 1.363 . S
C584 C590 1.428 . S
H585 C581 0.930 . S
H586 C583 0.929 . S
S587 N588 1.613 . S
S587 N589 1.610 . S
N588 S587 1.613 . S
N588 C591 1.350 . S
N589 S587 1.610 . S
N589 C590 1.351 . S
C590 C584 1.428 . S
C590 N589 1.351 . S
C590 C591 1.434 . S
C591 C582 1.429 . S
C591 N588 1.350 . S
C591 C590 1.434 . S
C592 C593 1.369 . S
C592 C594 1.419 . S
C592 H596 0.930 . S
C593 C592 1.369 . S
C593 C602 1.429 . S
C594 C592 1.419 . S
C594 C595 1.363 . S
C594 H597 0.929 . S
C595 C594 1.363 . S
C595 C601 1.428 . S
H596 C592 0.930 . S
H597 C594 0.929 . S
S598 N599 1.613 . S
S598 N600 1.610 . S
N599 S598 1.613 . S
N599 C602 1.350 . S
N600 S598 1.610 . S
N600 C601 1.351 . S
C601 C595 1.428 . S
C601 N600 1.351 . S
C601 C602 1.434 . S
C602 C593 1.429 . S
C602 N599 1.350 . S
C602 C601 1.434 . S
C603 C604 1.369 . S
C603 C605 1.419 . S
C603 H607 0.930 . S
C604 C603 1.369 . S
C604 C613 1.429 . S
C605 C603 1.419 . S
C605 C606 1.363 . S
C605 H608 0.929 1_554 S
C606 C605 1.363 . S
C606 C612 1.428 . S
H607 C603 0.930 . S
H608 C605 0.929 1_556 S
S609 N610 1.613 . S
S609 N611 1.610 . S
N610 S609 1.613 . S
N610 C613 1.350 . S
N611 S609 1.610 . S
N611 C612 1.351 . S
C612 C606 1.428 . S
C612 N611 1.351 . S
C612 C613 1.434 . S
C613 C604 1.429 . S
C613 N610 1.350 . S
C613 C612 1.434 . S
C614 C615 1.369 . S
C614 C616 1.419 . S
C614 H618 0.930 . S
C615 C614 1.369 . S
C615 C624 1.429 . S
C616 C614 1.419 . S
C616 C617 1.363 . S
C616 H619 0.929 . S
C617 C616 1.363 . S
C617 C623 1.428 . S
H618 C614 0.930 . S
H619 C616 0.929 . S
S620 N621 1.613 . S
S620 N622 1.610 . S
N621 S620 1.613 . S
N621 C624 1.350 1_556 S
N622 S620 1.610 . S
N622 C623 1.351 1_556 S
C623 C617 1.428 . S
C623 N622 1.351 1_554 S
C623 C624 1.434 . S
C624 C615 1.429 . S
C624 N621 1.350 1_554 S
C624 C623 1.434 . S
C625 C626 1.369 . S
C625 C627 1.419 . S
C625 H629 0.930 . S
C626 C625 1.369 . S
C626 C635 1.429 . S
C627 C625 1.419 . S
C627 C628 1.363 . S
C627 H630 0.929 . S
C628 C627 1.363 . S
C628 C634 1.428 . S
H629 C625 0.930 . S
H630 C627 0.929 . S
S631 N632 1.613 . S
S631 N633 1.610 . S
N632 S631 1.613 . S
N632 C635 1.350 . S
N633 S631 1.610 . S
N633 C634 1.351 . S
C634 C628 1.428 . S
C634 N633 1.351 . S
C634 C635 1.434 . S
C635 C626 1.429 . S
C635 N632 1.350 . S
C635 C634 1.434 . S
C636 C637 1.369 . S
C636 C638 1.419 . S
C636 H640 0.930 . S
C637 C636 1.369 . S
C637 C646 1.429 . S
C638 C636 1.419 . S
C638 C639 1.363 . S
C638 H641 0.929 . S
C639 C638 1.363 . S
C639 C645 1.428 . S
H640 C636 0.930 . S
H641 C638 0.929 . S
S642 N643 1.613 1_554 S
S642 N644 1.610 . S
N643 S642 1.613 1_556 S
N643 C646 1.350 . S
N644 S642 1.610 . S
N644 C645 1.351 1_554 S
C645 C639 1.428 . S
C645 N644 1.351 1_556 S
C645 C646 1.434 . S
C646 C637 1.429 . S
C646 N643 1.350 . S
C646 C645 1.434 . S
C647 C648 1.369 . S
C647 C649 1.419 . S
C647 H651 0.930 . S
C648 C647 1.369 . S
C648 C657 1.429 . S
C649 C647 1.419 . S
C649 C650 1.363 . S
C649 H652 0.929 . S
C650 C649 1.363 . S
C650 C656 1.428 . S
H651 C647 0.930 . S
H652 C649 0.929 . S
S653 N654 1.613 . S
S653 N655 1.610 . S
N654 S653 1.613 . S
N654 C657 1.350 . S
N655 S653 1.610 . S
N655 C656 1.351 . S
C656 C650 1.428 . S
C656 N655 1.351 . S
C656 C657 1.434 . S
C657 C648 1.429 . S
C657 N654 1.350 . S
C657 C656 1.434 . S
C658 C659 1.369 . S
C658 C660 1.419 . S
C658 H662 0.930 . S
C659 C658 1.369 . S
C659 C668 1.429 . S
C660 C658 1.419 . S
C660 C661 1.363 . S
C660 H663 0.929 . S
C661 C660 1.363 . S
C661 C667 1.428 . S
H662 C658 0.930 . S
H663 C660 0.929 . S
S664 N665 1.613 . S
S664 N666 1.609 1_554 S
N665 S664 1.613 . S
N665 C668 1.350 1_554 S
N666 S664 1.609 1_556 S
N666 C667 1.352 . S
C667 C661 1.428 . S
C667 N666 1.352 . S
C667 C668 1.434 . S
C668 C659 1.429 . S
C668 N665 1.350 1_556 S
C668 C667 1.434 . S
C669 C670 1.369 . S
C669 C671 1.419 . S
C669 H673 0.930 . S
C670 C669 1.369 . S
C670 C679 1.429 . S
C671 C669 1.419 . S
C671 C672 1.363 . S
C671 H674 0.929 . S
C672 C671 1.363 . S
C672 C678 1.428 . S
H673 C669 0.930 . S
H674 C671 0.929 . S
S675 N676 1.613 . S
S675 N677 1.610 . S
N676 S675 1.613 . S
N676 C679 1.350 . S
N677 S675 1.610 . S
N677 C678 1.351 . S
C678 C672 1.428 . S
C678 N677 1.351 . S
C678 C679 1.434 . S
C679 C670 1.429 . S
C679 N676 1.350 . S
C679 C678 1.434 . S
C680 C681 1.369 . S
C680 C682 1.419 . S
C680 H684 0.930 . S
C681 C680 1.369 . S
C681 C690 1.429 . S
C682 C680 1.419 . S
C682 C683 1.363 . S
C682 H685 0.929 . S
C683 C682 1.363 . S
C683 C689 1.428 . S
H684 C680 0.930 . S
H685 C682 0.929 . S
S686 N687 1.613 . S
S686 N688 1.610 . S
N687 S686 1.613 . S
N687 C690 1.350 . S
N688 S686 1.610 . S
N688 C689 1.351 . S
C689 C683 1.428 . S
C689 N688 1.351 . S
C689 C690 1.434 . S
C690 C681 1.429 . S
C690 N687 1.350 . S
C690 C689 1.434 . S
C691 C692 1.369 . S
C691 C693 1.419 . S
C691 H695 0.930 . S
C692 C691 1.369 . S
C692 C701 1.429 . S
C693 C691 1.419 . S
C693 C694 1.363 . S
C693 H696 0.929 . S
C694 C693 1.363 . S
C694 C700 1.428 . S
H695 C691 0.930 . S
H696 C693 0.929 . S
S697 N698 1.613 . S
S697 N699 1.610 . S
N698 S697 1.613 . S
N698 C701 1.350 . S
N699 S697 1.610 . S
N699 C700 1.351 . S
C700 C694 1.428 . S
C700 N699 1.351 . S
C700 C701 1.434 . S
C701 C692 1.429 . S
C701 N698 1.350 . S
C701 C700 1.434 . S
C702 C703 1.369 . S
C702 C704 1.419 . S
C702 H706 0.930 . S
C703 C702 1.369 . S
C703 C712 1.429 . S
C704 C702 1.419 . S
C704 C705 1.363 . S
C704 H707 0.929 . S
C705 C704 1.363 . S
C705 C711 1.428 . S
H706 C702 0.930 . S
H707 C704 0.929 . S
S708 N709 1.613 1_554 S
S708 N710 1.610 . S
N709 S708 1.613 1_556 S
N709 C712 1.350 . S
N710 S708 1.610 . S
N710 C711 1.351 1_554 S
C711 C705 1.428 . S
C711 N710 1.351 1_556 S
C711 C712 1.434 . S
C712 C703 1.429 . S
C712 N709 1.350 . S
C712 C711 1.434 . S
C713 C714 1.369 . S
C713 C715 1.419 . S
C713 H717 0.930 . S
C714 C713 1.369 . S
C714 C723 1.429 . S
C715 C713 1.419 . S
C715 C716 1.363 . S
C715 H718 0.929 . S
C716 C715 1.363 . S
C716 C722 1.428 . S
H717 C713 0.930 . S
H718 C715 0.929 . S
S719 N720 1.613 1_556 S
S719 N721 1.610 . S
N720 S719 1.613 1_554 S
N720 C723 1.350 1_554 S
N721 S719 1.610 . S
N721 C722 1.351 . S
C722 C716 1.428 . S
C722 N721 1.351 . S
C722 C723 1.434 . S
C723 C714 1.429 . S
C723 N720 1.350 1_556 S
C723 C722 1.434 . S
C724 C725 1.369 . S
C724 C726 1.419 . S
C724 H728 0.930 . S
C725 C724 1.369 . S
C725 C734 1.429 . S
C726 C724 1.419 . S
C726 C727 1.363 . S
C726 H729 0.929 . S
C727 C726 1.363 . S
C727 C733 1.428 . S
H728 C724 0.930 . S
H729 C726 0.929 . S
S730 N731 1.613 . S
S730 N732 1.610 . S
N731 S730 1.613 . S
N731 C734 1.350 . S
N732 S730 1.610 . S
N732 C733 1.351 . S
C733 C727 1.428 . S
C733 N732 1.351 . S
C733 C734 1.434 . S
C734 C725 1.429 . S
C734 N731 1.350 . S
C734 C733 1.434 . S
C735 C736 1.369 . S
C735 C737 1.419 . S
C735 H739 0.930 . S
C736 C735 1.369 . S
C736 C745 1.429 . S
C737 C735 1.419 . S
C737 C738 1.363 . S
C737 H740 0.929 . S
C738 C737 1.363 . S
C738 C744 1.428 . S
H739 C735 0.930 . S
H740 C737 0.929 . S
S741 N742 1.613 . S
S741 N743 1.610 . S
N742 S741 1.613 . S
N742 C745 1.350 . S
N743 S741 1.610 . S
N743 C744 1.351 . S
C744 C738 1.428 . S
C744 N743 1.351 . S
C744 C745 1.434 . S
C745 C736 1.429 . S
C745 N742 1.350 . S
C745 C744 1.434 . S
C746 C747 1.369 . S
C746 C748 1.419 . S
C746 H750 0.930 . S
C747 C746 1.369 . S
C747 C756 1.429 . S
C748 C746 1.419 . S
C748 C749 1.363 . S
C748 H751 0.929 . S
C749 C748 1.363 . S
C749 C755 1.428 . S
H750 C746 0.930 . S
H751 C748 0.929 . S
S752 N753 1.613 . S
S752 N754 1.610 . S
N753 S752 1.613 . S
N753 C756 1.350 . S
N754 S752 1.610 . S
N754 C755 1.351 . S
C755 C749 1.428 . S
C755 N754 1.351 . S
C755 C756 1.434 . S
C756 C747 1.429 . S
C756 N753 1.350 . S
C756 C755 1.434 . S
C757 C758 1.369 . S
C757 C759 1.419 . S
C757 H761 0.930 . S
C758 C757 1.369 . S
C758 C767 1.429 . S
C759 C757 1.419 . S
C759 C760 1.363 . S
C759 H762 0.929 . S
C760 C759 1.363 . S
C760 C766 1.428 . S
H761 C757 0.930 . S
H762 C759 0.929 . S
S763 N764 1.613 . S
S763 N765 1.610 . S
N764 S763 1.613 . S
N764 C767 1.350 . S
N765 S763 1.610 . S
N765 C766 1.351 . S
C766 C760 1.428 . S
C766 N765 1.351 . S
C766 C767 1.434 . S
C767 C758 1.429 . S
C767 N764 1.350 . S
C767 C766 1.434 . S
C768 C769 1.369 . S
C768 C770 1.419 . S
C768 H772 0.930 . S
C769 C768 1.369 . S
C769 C778 1.429 . S
C770 C768 1.419 . S
C770 C771 1.363 . S
C770 H773 0.929 . S
C771 C770 1.363 . S
C771 C777 1.428 . S
H772 C768 0.930 . S
H773 C770 0.929 . S
S774 N775 1.613 . S
S774 N776 1.610 . S
N775 S774 1.613 . S
N775 C778 1.350 . S
N776 S774 1.610 . S
N776 C777 1.351 . S
C777 C771 1.428 . S
C777 N776 1.351 . S
C777 C778 1.434 . S
C778 C769 1.429 . S
C778 N775 1.350 . S
C778 C777 1.434 . S
C779 C780 1.369 . S
C779 C781 1.419 . S
C779 H783 0.930 1_554 S
C780 C779 1.369 . S
C780 C789 1.429 . S
C781 C779 1.419 . S
C781 C782 1.363 . S
C781 H784 0.929 . S
C782 C781 1.363 . S
C782 C788 1.428 . S
H783 C779 0.930 1_556 S
H784 C781 0.929 . S
S785 N786 1.613 . S
S785 N787 1.610 . S
N786 S785 1.613 . S
N786 C789 1.350 . S
N787 S785 1.610 . S
N787 C788 1.351 . S
C788 C782 1.428 . S
C788 N787 1.351 . S
C788 C789 1.434 . S
C789 C780 1.429 . S
C789 N786 1.350 . S
C789 C788 1.434 . S
C790 C791 1.369 . S
C790 C792 1.419 . S
C790 H794 0.930 . S
C791 C790 1.369 . S
C791 C800 1.429 . S
C792 C790 1.419 . S
C792 C793 1.363 . S
C792 H795 0.929 1_554 S
C793 C792 1.363 . S
C793 C799 1.428 . S
H794 C790 0.930 . S
H795 C792 0.929 1_556 S
S796 N797 1.613 . S
S796 N798 1.610 . S
N797 S796 1.613 . S
N797 C800 1.350 . S
N798 S796 1.610 . S
N798 C799 1.351 . S
C799 C793 1.428 . S
C799 N798 1.351 . S
C799 C800 1.434 . S
C800 C791 1.429 . S
C800 N797 1.350 . S
C800 C799 1.434 . S
C801 C802 1.369 . S
C801 C803 1.419 . S
C801 H805 0.930 . S
C802 C801 1.369 . S
C802 C811 1.429 . S
C803 C801 1.419 . S
C803 C804 1.363 . S
C803 H806 0.929 . S
C804 C803 1.363 . S
C804 C810 1.428 . S
H805 C801 0.930 . S
H806 C803 0.929 . S
S807 N808 1.613 . S
S807 N809 1.610 . S
N808 S807 1.613 . S
N808 C811 1.350 . S
N809 S807 1.610 . S
N809 C810 1.351 . S
C810 C804 1.428 . S
C810 N809 1.351 . S
C810 C811 1.434 . S
C811 C802 1.429 . S
C811 N808 1.350 . S
C811 C810 1.434 . S
C812 C813 1.369 . S
C812 C814 1.419 . S
C812 H816 0.930 . S
C813 C812 1.369 . S
C813 C822 1.429 . S
C814 C812 1.419 . S
C814 C815 1.363 . S
C814 H817 0.929 . S
C815 C814 1.363 . S
C815 C821 1.428 . S
H816 C812 0.930 . S
H817 C814 0.929 . S
S818 N819 1.613 . S
S818 N820 1.610 . S
N819 S818 1.613 . S
N819 C822 1.350 . S
N820 S818 1.610 . S
N820 C821 1.351 . S
C821 C815 1.428 . S
C821 N820 1.351 . S
C821 C822 1.434 . S
C822 C813 1.429 . S
C822 N819 1.350 . S
C822 C821 1.434 . S
C823 C824 1.369 . S
C823 C825 1.419 . S
C823 H827 0.930 . S
C824 C823 1.369 . S
C824 C833 1.429 . S
C825 C823 1.419 . S
C825 C826 1.363 . S
C825 H828 0.929 . S
C826 C825 1.363 . S
C826 C832 1.428 . S
H827 C823 0.930 . S
H828 C825 0.929 . S
S829 N830 1.613 . S
S829 N831 1.610 . S
N830 S829 1.613 . S
N830 C833 1.350 . S
N831 S829 1.610 . S
N831 C832 1.351 . S
C832 C826 1.428 . S
C832 N831 1.351 . S
C832 C833 1.434 . S
C833 C824 1.429 . S
C833 N830 1.350 . S
C833 C832 1.434 . S
C834 C835 1.369 . S
C834 C836 1.419 . S
C834 H838 0.930 . S
C835 C834 1.369 . S
C835 C844 1.429 . S
C836 C834 1.419 . S
C836 C837 1.363 . S
C836 H839 0.929 . S
C837 C836 1.363 . S
C837 C843 1.428 . S
H838 C834 0.930 . S
H839 C836 0.929 . S
S840 N841 1.613 . S
S840 N842 1.610 . S
N841 S840 1.613 . S
N841 C844 1.350 . S
N842 S840 1.610 . S
N842 C843 1.351 . S
C843 C837 1.428 . S
C843 N842 1.351 . S
C843 C844 1.434 . S
C844 C835 1.429 . S
C844 N841 1.350 . S
C844 C843 1.434 . S
C845 C846 1.369 . S
C845 C847 1.419 . S
C845 H849 0.930 . S
C846 C845 1.369 . S
C846 C855 1.429 . S
C847 C845 1.419 . S
C847 C848 1.363 . S
C847 H850 0.929 . S
C848 C847 1.363 . S
C848 C854 1.428 . S
H849 C845 0.930 . S
H850 C847 0.929 . S
S851 N852 1.613 . S
S851 N853 1.610 . S
N852 S851 1.613 . S
N852 C855 1.350 . S
N853 S851 1.610 . S
N853 C854 1.351 . S
C854 C848 1.428 . S
C854 N853 1.351 . S
C854 C855 1.434 . S
C855 C846 1.429 . S
C855 N852 1.350 . S
C855 C854 1.434 . S
C856 C857 1.369 . S
C856 C858 1.419 . S
C856 H860 0.930 . S
C857 C856 1.369 . S
C857 C866 1.429 . S
C858 C856 1.419 . S
C858 C859 1.363 . S
C858 H861 0.929 . S
C859 C858 1.363 . S
C859 C865 1.428 . S
H860 C856 0.930 . S
H861 C858 0.929 . S
S862 N863 1.613 . S
S862 N864 1.610 . S
N863 S862 1.613 . S
N863 C866 1.350 . S
N864 S862 1.610 . S
N864 C865 1.351 . S
C865 C859 1.428 . S
C865 N864 1.351 . S
C865 C866 1.434 . S
C866 C857 1.429 . S
C866 N863 1.350 . S
C866 C865 1.434 . S
C867 C868 1.369 . S
C867 C869 1.419 . S
C867 H871 0.930 . S
C868 C867 1.369 . S
C868 C877 1.429 . S
C869 C867 1.419 . S
C869 C870 1.363 1_556 S
C869 H872 0.929 . S
C870 C869 1.363 1_554 S
C870 C876 1.428 1_554 S
H871 C867 0.930 . S
H872 C869 0.929 . S
S873 N874 1.613 . S
S873 N875 1.610 . S
N874 S873 1.613 . S
N874 C877 1.350 . S
N875 S873 1.610 . S
N875 C876 1.351 . S
C876 C870 1.428 1_556 S
C876 N875 1.351 . S
C876 C877 1.434 . S
C877 C868 1.429 . S
C877 N874 1.350 . S
C877 C876 1.434 . S
C878 C879 1.369 . S
C878 C880 1.419 1_554 S
C878 H882 0.930 . S
C879 C878 1.369 . S
C879 C888 1.429 1_554 S
C880 C878 1.419 1_556 S
C880 C881 1.363 . S
C880 H883 0.929 . S
C881 C880 1.363 . S
C881 C887 1.428 . S
H882 C878 0.930 . S
H883 C880 0.929 . S
S884 N885 1.613 . S
S884 N886 1.610 . S
N885 S884 1.613 . S
N885 C888 1.350 . S
N886 S884 1.610 . S
N886 C887 1.351 . S
C887 C881 1.428 . S
C887 N886 1.351 . S
C887 C888 1.434 . S
C888 C879 1.429 1_556 S
C888 N885 1.350 . S
C888 C887 1.434 . S
C889 C890 1.369 . S
C889 C891 1.419 . S
C889 H893 0.930 . S
C890 C889 1.369 . S
C890 C899 1.429 . S
C891 C889 1.419 . S
C891 C892 1.363 1_556 S
C891 H894 0.929 . S
C892 C891 1.363 1_554 S
C892 C898 1.428 . S
H893 C889 0.930 . S
H894 C891 0.929 . S
S895 N896 1.613 1_554 S
S895 N897 1.610 . S
N896 S895 1.613 1_556 S
N896 C899 1.350 . S
N897 S895 1.610 . S
N897 C898 1.351 . S
C898 C892 1.428 . S
C898 N897 1.351 . S
C898 C899 1.434 1_554 S
C899 C890 1.429 . S
C899 N896 1.350 . S
C899 C898 1.434 1_556 S
C900 C901 1.369 . S
C900 C902 1.419 . S
C900 H904 0.930 . S
C901 C900 1.369 . S
C901 C910 1.429 . S
C902 C900 1.419 . S
C902 C903 1.363 . S
C902 H905 0.929 . S
C903 C902 1.363 . S
C903 C909 1.428 . S
H904 C900 0.930 . S
H905 C902 0.929 . S
S906 N907 1.613 . S
S906 N908 1.610 . S
N907 S906 1.613 . S
N907 C910 1.350 . S
N908 S906 1.610 . S
N908 C909 1.351 . S
C909 C903 1.428 . S
C909 N908 1.351 . S
C909 C910 1.434 . S
C910 C901 1.429 . S
C910 N907 1.350 . S
C910 C909 1.434 . S
C911 C912 1.369 . S
C911 C913 1.419 . S
C911 H915 0.930 . S
C912 C911 1.369 . S
C912 C921 1.429 . S
C913 C911 1.419 . S
C913 C914 1.363 . S
C913 H916 0.929 . S
C914 C913 1.363 . S
C914 C920 1.428 . S
H915 C911 0.930 . S
H916 C913 0.929 . S
S917 N918 1.613 . S
S917 N919 1.610 . S
N918 S917 1.613 . S
N918 C921 1.350 . S
N919 S917 1.610 . S
N919 C920 1.351 . S
C920 C914 1.428 . S
C920 N919 1.351 . S
C920 C921 1.434 . S
C921 C912 1.429 . S
C921 N918 1.350 . S
C921 C920 1.434 . S
C922 C923 1.369 . S
C922 C924 1.419 . S
C922 H926 0.930 . S
C923 C922 1.369 . S
C923 C932 1.429 . S
C924 C922 1.419 . S
C924 C925 1.363 . S
C924 H927 0.929 . S
C925 C924 1.363 . S
C925 C931 1.428 . S
H926 C922 0.930 . S
H927 C924 0.929 . S
S928 N929 1.613 . S
S928 N930 1.610 . S
N929 S928 1.613 . S
N929 C932 1.350 . S
N930 S928 1.610 . S
N930 C931 1.351 . S
C931 C925 1.428 . S
C931 N930 1.351 . S
C931 C932 1.434 . S
C932 C923 1.429 . S
C932 N929 1.350 . S
C932 C931 1.434 . S
C933 C934 1.369 . S
C933 C935 1.419 . S
C933 H937 0.930 . S
C934 C933 1.369 . S
C934 C943 1.429 . S
C935 C933 1.419 . S
C935 C936 1.363 . S
C935 H938 0.929 . S
C936 C935 1.363 . S
C936 C942 1.428 . S
H937 C933 0.930 . S
H938 C935 0.929 . S
S939 N940 1.613 . S
S939 N941 1.610 . S
N940 S939 1.613 . S
N940 C943 1.350 . S
N941 S939 1.610 . S
N941 C942 1.351 . S
C942 C936 1.428 . S
C942 N941 1.351 . S
C942 C943 1.434 . S
C943 C934 1.429 . S
C943 N940 1.350 . S
C943 C942 1.434 . S
C944 C945 1.369 . S
C944 C946 1.419 . S
C944 H948 0.930 . S
C945 C944 1.369 . S
C945 C954 1.429 . S
C946 C944 1.419 . S
C946 C947 1.363 . S
C946 H949 0.929 . S
C947 C946 1.363 . S
C947 C953 1.428 . S
H948 C944 0.930 . S
H949 C946 0.929 . S
S950 N951 1.613 . S
S950 N952 1.610 . S
N951 S950 1.613 . S
N951 C954 1.350 . S
N952 S950 1.610 . S
N952 C953 1.351 . S
C953 C947 1.428 . S
C953 N952 1.351 . S
C953 C954 1.434 . S
C954 C945 1.429 . S
C954 N951 1.350 . S
C954 C953 1.434 . S
C955 C956 1.369 . S
C955 C957 1.419 . S
C955 H959 0.930 . S
C956 C955 1.369 . S
C956 C965 1.429 . S
C957 C955 1.419 . S
C957 C958 1.363 . S
C957 H960 0.929 . S
C958 C957 1.363 . S
C958 C964 1.428 . S
H959 C955 0.930 . S
H960 C957 0.929 . S
S961 N962 1.613 . S
S961 N963 1.610 . S
N962 S961 1.613 . S
N962 C965 1.350 . S
N963 S961 1.610 . S
N963 C964 1.351 . S
C964 C958 1.428 . S
C964 N963 1.351 . S
C964 C965 1.434 . S
C965 C956 1.429 . S
C965 N962 1.350 . S
C965 C964 1.434 . S
C966 C967 1.369 . S
C966 C968 1.419 . S
C966 H970 0.930 . S
C967 C966 1.369 . S
C967 C976 1.429 . S
C968 C966 1.419 . S
C968 C969 1.363 . S
C968 H971 0.929 . S
C969 C968 1.363 . S
C969 C975 1.428 . S
H970 C966 0.930 . S
H971 C968 0.929 . S
S972 N973 1.613 . S
S972 N974 1.610 . S
N973 S972 1.613 . S
N973 C976 1.350 . S
N974 S972 1.610 . S
N974 C975 1.351 . S
C975 C969 1.428 . S
C975 N974 1.351 . S
C975 C976 1.434 . S
C976 C967 1.429 . S
C976 N973 1.350 . S
C976 C975 1.434 . S
C977 C978 1.369 . S
C977 C979 1.419 . S
C977 H981 0.930 . S
C978 C977 1.369 . S
C978 C987 1.429 . S
C979 C977 1.419 . S
C979 C980 1.363 . S
C979 H982 0.929 . S
C980 C979 1.363 . S
C980 C986 1.428 . S
H981 C977 0.930 . S
H982 C979 0.929 . S
S983 N984 1.613 . S
S983 N985 1.610 . S
N984 S983 1.613 . S
N984 C987 1.350 . S
N985 S983 1.610 . S
N985 C986 1.351 . S
C986 C980 1.428 . S
C986 N985 1.351 . S
C986 C987 1.434 . S
C987 C978 1.429 . S
C987 N984 1.350 . S
C987 C986 1.434 . S
C988 C989 1.369 . S
C988 C990 1.419 . S
C988 H992 0.930 . S
C989 C988 1.369 . S
C989 C998 1.429 . S
C990 C988 1.419 . S
C990 C991 1.363 . S
C990 H993 0.929 . S
C991 C990 1.363 . S
C991 C997 1.428 . S
H992 C988 0.930 . S
H993 C990 0.929 . S
S994 N995 1.613 . S
S994 N996 1.610 . S
N995 S994 1.613 . S
N995 C998 1.350 . S
N996 S994 1.610 . S
N996 C997 1.351 . S
C997 C991 1.428 . S
C997 N996 1.351 . S
C997 C998 1.434 . S
C998 C989 1.429 . S
C998 N995 1.350 . S
C998 C997 1.434 . S
C999 C1000 1.369 . S
C999 C1001 1.419 . S
C999 H1003 0.930 . S
C1000 C999 1.369 . S
C1000 C1009 1.429 . S
C1001 C999 1.419 . S
C1001 C1002 1.363 . S
C1001 H1004 0.929 . S
C1002 C1001 1.363 . S
C1002 C1008 1.428 . S
H1003 C999 0.930 . S
H1004 C1001 0.929 . S
S1005 N1006 1.613 . S
S1005 N1007 1.610 . S
N1006 S1005 1.613 . S
N1006 C1009 1.350 . S
N1007 S1005 1.610 . S
N1007 C1008 1.351 . S
C1008 C1002 1.428 . S
C1008 N1007 1.351 . S
C1008 C1009 1.434 . S
C1009 C1000 1.429 . S
C1009 N1006 1.350 . S
C1009 C1008 1.434 . S
C1010 C1011 1.369 . S
C1010 C1012 1.419 . S
C1010 H1014 0.930 . S
C1011 C1010 1.369 . S
C1011 C1020 1.429 . S
C1012 C1010 1.419 . S
C1012 C1013 1.363 . S
C1012 H1015 0.929 . S
C1013 C1012 1.363 . S
C1013 C1019 1.428 . S
H1014 C1010 0.930 . S
H1015 C1012 0.929 . S
S1016 N1017 1.613 . S
S1016 N1018 1.610 . S
N1017 S1016 1.613 . S
N1017 C1020 1.350 . S
N1018 S1016 1.610 . S
N1018 C1019 1.351 . S
C1019 C1013 1.428 . S
C1019 N1018 1.351 . S
C1019 C1020 1.434 . S
C1020 C1011 1.429 . S
C1020 N1017 1.350 . S
C1020 C1019 1.434 . S
C1021 C1022 1.369 . S
C1021 C1023 1.419 . S
C1021 H1025 0.930 . S
C1022 C1021 1.369 . S
C1022 C1031 1.429 . S
C1023 C1021 1.419 . S
C1023 C1024 1.363 . S
C1023 H1026 0.929 . S
C1024 C1023 1.363 . S
C1024 C1030 1.428 . S
H1025 C1021 0.930 . S
H1026 C1023 0.929 . S
S1027 N1028 1.613 . S
S1027 N1029 1.610 . S
N1028 S1027 1.613 . S
N1028 C1031 1.350 . S
N1029 S1027 1.610 . S
N1029 C1030 1.351 . S
C1030 C1024 1.428 . S
C1030 N1029 1.351 . S
C1030 C1031 1.434 . S
C1031 C1022 1.429 . S
C1031 N1028 1.350 . S
C1031 C1030 1.434 . S
C1032 C1033 1.369 . S
C1032 C1034 1.419 . S
C1032 H1036 0.930 . S
C1033 C1032 1.369 . S
C1033 C1042 1.429 . S
C1034 C1032 1.419 . S
C1034 C1035 1.363 . S
C1034 H1037 0.929 . S
C1035 C1034 1.363 . S
C1035 C1041 1.428 . S
H1036 C1032 0.930 . S
H1037 C1034 0.929 . S
S1038 N1039 1.613 . S
S1038 N1040 1.610 . S
N1039 S1038 1.613 . S
N1039 C1042 1.350 . S
N1040 S1038 1.610 . S
N1040 C1041 1.351 . S
C1041 C1035 1.428 . S
C1041 N1040 1.351 . S
C1041 C1042 1.434 . S
C1042 C1033 1.429 . S
C1042 N1039 1.350 . S
C1042 C1041 1.434 . S
C1043 C1044 1.369 . S
C1043 C1045 1.419 . S
C1043 H1047 0.930 . S
C1044 C1043 1.369 . S
C1044 C1053 1.429 . S
C1045 C1043 1.419 . S
C1045 C1046 1.363 . S
C1045 H1048 0.929 . S
C1046 C1045 1.363 . S
C1046 C1052 1.428 . S
H1047 C1043 0.930 . S
H1048 C1045 0.929 . S
S1049 N1050 1.613 . S
S1049 N1051 1.610 . S
N1050 S1049 1.613 . S
N1050 C1053 1.350 . S
N1051 S1049 1.610 . S
N1051 C1052 1.351 . S
C1052 C1046 1.428 . S
C1052 N1051 1.351 . S
C1052 C1053 1.434 . S
C1053 C1044 1.429 . S
C1053 N1050 1.350 . S
C1053 C1052 1.434 . S
C1054 C1055 1.369 . S
C1054 C1056 1.419 . S
C1054 H1058 0.930 . S
C1055 C1054 1.369 . S
C1055 C1064 1.429 . S
C1056 C1054 1.419 . S
C1056 C1057 1.363 . S
C1056 H1059 0.929 . S
C1057 C1056 1.363 . S
C1057 C1063 1.428 . S
H1058 C1054 0.930 . S
H1059 C1056 0.929 . S
S1060 N1061 1.613 . S
S1060 N1062 1.610 . S
N1061 S1060 1.613 . S
N1061 C1064 1.350 . S
N1062 S1060 1.610 . S
N1062 C1063 1.351 . S
C1063 C1057 1.428 . S
C1063 N1062 1.351 . S
C1063 C1064 1.434 . S
C1064 C1055 1.429 . S
C1064 N1061 1.350 . S
C1064 C1063 1.434 . S
C1065 C1066 1.369 1_554 S
C1065 C1067 1.419 . S
C1065 H1069 0.930 . S
C1066 C1065 1.369 1_556 S
C1066 C1075 1.429 . S
C1067 C1065 1.419 . S
C1067 C1068 1.363 . S
C1067 H1070 0.929 . S
C1068 C1067 1.363 . S
C1068 C1074 1.428 . S
H1069 C1065 0.930 . S
H1070 C1067 0.929 . S
S1071 N1072 1.613 . S
S1071 N1073 1.610 1_556 S
N1072 S1071 1.613 . S
N1072 C1075 1.350 . S
N1073 S1071 1.610 1_554 S
N1073 C1074 1.351 . S
C1074 C1068 1.428 . S
C1074 N1073 1.351 . S
C1074 C1075 1.434 1_554 S
C1075 C1066 1.429 . S
C1075 N1072 1.350 . S
C1075 C1074 1.434 1_556 S
C1076 C1077 1.369 1_554 S
C1076 C1078 1.419 . S
C1076 H1080 0.930 1_554 S
C1077 C1076 1.369 1_556 S
C1077 C1086 1.429 1_556 S
C1078 C1076 1.419 . S
C1078 C1079 1.363 . S
C1078 H1081 0.929 . S
C1079 C1078 1.363 . S
C1079 C1085 1.428 . S
H1080 C1076 0.930 1_556 S
H1081 C1078 0.929 . S
S1082 N1083 1.613 . S
S1082 N1084 1.610 . S
N1083 S1082 1.613 . S
N1083 C1086 1.350 . S
N1084 S1082 1.610 . S
N1084 C1085 1.351 . S
C1085 C1079 1.428 . S
C1085 N1084 1.351 . S
C1085 C1086 1.434 . S
C1086 C1077 1.429 1_554 S
C1086 N1083 1.350 . S
C1086 C1085 1.434 . S
C1087 C1088 1.369 1_554 S
C1087 C1089 1.419 . S
C1087 H1091 0.930 1_554 S
C1088 C1087 1.369 1_556 S
C1088 C1097 1.429 1_556 S
C1089 C1087 1.419 . S
C1089 C1090 1.363 . S
C1089 H1092 0.929 . S
C1090 C1089 1.363 . S
C1090 C1096 1.428 . S
H1091 C1087 0.930 1_556 S
H1092 C1089 0.929 . S
S1093 N1094 1.613 . S
S1093 N1095 1.610 . S
N1094 S1093 1.613 . S
N1094 C1097 1.350 . S
N1095 S1093 1.610 . S
N1095 C1096 1.351 . S
C1096 C1090 1.428 . S
C1096 N1095 1.351 . S
C1096 C1097 1.434 . S
C1097 C1088 1.429 1_554 S
C1097 N1094 1.350 . S
C1097 C1096 1.434 . S
C1098 C1099 1.369 . S
C1098 C1100 1.419 . S
C1098 H1102 0.930 . S
C1099 C1098 1.369 . S
C1099 C1108 1.429 . S
C1100 C1098 1.419 . S
C1100 C1101 1.363 . S
C1100 H1103 0.929 . S
C1101 C1100 1.363 . S
C1101 C1107 1.428 . S
H1102 C1098 0.930 . S
H1103 C1100 0.929 . S
S1104 N1105 1.613 . S
S1104 N1106 1.610 . S
N1105 S1104 1.613 . S
N1105 C1108 1.350 . S
N1106 S1104 1.610 . S
N1106 C1107 1.351 . S
C1107 C1101 1.428 . S
C1107 N1106 1.351 . S
C1107 C1108 1.434 . S
C1108 C1099 1.429 . S
C1108 N1105 1.350 . S
C1108 C1107 1.434 . S
C1109 C1110 1.369 . S
C1109 C1111 1.419 . S
C1109 H1113 0.930 1_554 S
C1110 C1109 1.369 . S
C1110 C1119 1.429 . S
C1111 C1109 1.419 . S
C1111 C1112 1.363 . S
C1111 H1114 0.929 1_554 S
C1112 C1111 1.363 . S
C1112 C1118 1.428 . S
H1113 C1109 0.930 1_556 S
H1114 C1111 0.929 1_556 S
S1115 N1116 1.613 . S
S1115 N1117 1.610 . S
N1116 S1115 1.613 . S
N1116 C1119 1.350 . S
N1117 S1115 1.610 . S
N1117 C1118 1.351 . S
C1118 C1112 1.428 . S
C1118 N1117 1.351 . S
C1118 C1119 1.434 . S
C1119 C1110 1.429 . S
C1119 N1116 1.350 . S
C1119 C1118 1.434 . S
C1120 C1121 1.369 . S
C1120 C1122 1.419 . S
C1120 H1124 0.930 1_554 S
C1121 C1120 1.369 . S
C1121 C1130 1.429 . S
C1122 C1120 1.419 . S
C1122 C1123 1.363 . S
C1122 H1125 0.929 . S
C1123 C1122 1.363 . S
C1123 C1129 1.428 . S
H1124 C1120 0.930 1_556 S
H1125 C1122 0.929 . S
S1126 N1127 1.613 . S
S1126 N1128 1.610 . S
N1127 S1126 1.613 . S
N1127 C1130 1.350 . S
N1128 S1126 1.610 . S
N1128 C1129 1.351 . S
C1129 C1123 1.428 . S
C1129 N1128 1.351 . S
C1129 C1130 1.434 . S
C1130 C1121 1.429 . S
C1130 N1127 1.350 . S
C1130 C1129 1.434 . S
C1131 C1132 1.369 . S
C1131 C1133 1.419 . S
C1131 H1135 0.930 . S
C1132 C1131 1.369 . S
C1132 C1141 1.429 . S
C1133 C1131 1.419 . S
C1133 C1134 1.363 . S
C1133 H1136 0.929 . S
C1134 C1133 1.363 . S
C1134 C1140 1.428 . S
H1135 C1131 0.930 . S
H1136 C1133 0.929 . S
S1137 N1138 1.613 . S
S1137 N1139 1.610 . S
N1138 S1137 1.613 . S
N1138 C1141 1.350 . S
N1139 S1137 1.610 . S
N1139 C1140 1.351 . S
C1140 C1134 1.428 . S
C1140 N1139 1.351 . S
C1140 C1141 1.434 . S
C1141 C1132 1.429 . S
C1141 N1138 1.350 . S
C1141 C1140 1.434 . S
C1142 C1143 1.369 . S
C1142 C1144 1.419 . S
C1142 H1146 0.930 . S
C1143 C1142 1.369 . S
C1143 C1152 1.429 . S
C1144 C1142 1.419 . S
C1144 C1145 1.363 . S
C1144 H1147 0.929 . S
C1145 C1144 1.363 . S
C1145 C1151 1.428 . S
H1146 C1142 0.930 . S
H1147 C1144 0.929 . S
S1148 N1149 1.613 . S
S1148 N1150 1.610 . S
N1149 S1148 1.613 . S
N1149 C1152 1.350 . S
N1150 S1148 1.610 . S
N1150 C1151 1.351 . S
C1151 C1145 1.428 . S
C1151 N1150 1.351 . S
C1151 C1152 1.434 . S
C1152 C1143 1.429 . S
C1152 N1149 1.350 . S
C1152 C1151 1.434 . S
C1153 C1154 1.369 . S
C1153 C1155 1.419 . S
C1153 H1157 0.930 . S
C1154 C1153 1.369 . S
C1154 C1163 1.429 . S
C1155 C1153 1.419 . S
C1155 C1156 1.363 . S
C1155 H1158 0.929 . S
C1156 C1155 1.363 . S
C1156 C1162 1.428 . S
H1157 C1153 0.930 . S
H1158 C1155 0.929 . S
S1159 N1160 1.613 . S
S1159 N1161 1.610 . S
N1160 S1159 1.613 . S
N1160 C1163 1.350 . S
N1161 S1159 1.610 . S
N1161 C1162 1.351 . S
C1162 C1156 1.428 . S
C1162 N1161 1.351 . S
C1162 C1163 1.434 . S
C1163 C1154 1.429 . S
C1163 N1160 1.350 . S
C1163 C1162 1.434 . S
C1164 C1165 1.369 . S
C1164 C1166 1.419 . S
C1164 H1168 0.930 . S
C1165 C1164 1.369 . S
C1165 C1174 1.429 . S
C1166 C1164 1.419 . S
C1166 C1167 1.363 . S
C1166 H1169 0.929 . S
C1167 C1166 1.363 . S
C1167 C1173 1.428 . S
H1168 C1164 0.930 . S
H1169 C1166 0.929 . S
S1170 N1171 1.613 . S
S1170 N1172 1.610 . S
N1171 S1170 1.613 . S
N1171 C1174 1.350 . S
N1172 S1170 1.610 . S
N1172 C1173 1.351 . S
C1173 C1167 1.428 . S
C1173 N1172 1.351 . S
C1173 C1174 1.434 . S
C1174 C1165 1.429 . S
C1174 N1171 1.350 . S
C1174 C1173 1.434 . S
C1175 C1176 1.369 . S
C1175 C1177 1.419 . S
C1175 H1179 0.930 . S
C1176 C1175 1.369 . S
C1176 C1185 1.429 . S
C1177 C1175 1.419 . S
C1177 C1178 1.363 . S
C1177 H1180 0.929 . S
C1178 C1177 1.363 . S
C1178 C1184 1.428 . S
H1179 C1175 0.930 . S
H1180 C1177 0.929 . S
S1181 N1182 1.613 1_554 S
S1181 N1183 1.610 1_554 S
N1182 S1181 1.613 1_556 S
N1182 C1185 1.350 . S
N1183 S1181 1.610 1_556 S
N1183 C1184 1.351 . S
C1184 C1178 1.428 . S
C1184 N1183 1.351 . S
C1184 C1185 1.434 . S
C1185 C1176 1.429 . S
C1185 N1182 1.350 . S
C1185 C1184 1.434 . S
C1186 C1187 1.369 . S
C1186 C1188 1.419 . S
C1186 H1190 0.930 . S
C1187 C1186 1.369 . S
C1187 C1196 1.429 . S
C1188 C1186 1.419 . S
C1188 C1189 1.363 . S
C1188 H1191 0.929 . S
C1189 C1188 1.363 . S
C1189 C1195 1.428 . S
H1190 C1186 0.930 . S
H1191 C1188 0.929 . S
S1192 N1193 1.613 . S
S1192 N1194 1.610 . S
N1193 S1192 1.613 . S
N1193 C1196 1.350 1_554 S
N1194 S1192 1.610 . S
N1194 C1195 1.351 1_554 S
C1195 C1189 1.428 . S
C1195 N1194 1.351 1_556 S
C1195 C1196 1.434 . S
C1196 C1187 1.429 . S
C1196 N1193 1.350 1_556 S
C1196 C1195 1.434 . S
C1197 C1198 1.369 . S
C1197 C1199 1.419 . S
C1197 H1201 0.930 . S
C1198 C1197 1.369 . S
C1198 C1207 1.429 . S
C1199 C1197 1.419 . S
C1199 C1200 1.363 . S
C1199 H1202 0.929 . S
C1200 C1199 1.363 . S
C1200 C1206 1.428 . S
H1201 C1197 0.930 . S
H1202 C1199 0.929 . S
S1203 N1204 1.613 . S
S1203 N1205 1.610 . S
N1204 S1203 1.613 . S
N1204 C1207 1.350 . S
N1205 S1203 1.610 . S
N1205 C1206 1.351 . S
C1206 C1200 1.428 . S
C1206 N1205 1.351 . S
C1206 C1207 1.434 . S
C1207 C1198 1.429 . S
C1207 N1204 1.350 . S
C1207 C1206 1.434 . S
C1208 C1209 1.369 . S
C1208 C1210 1.419 . S
C1208 H1212 0.930 . S
C1209 C1208 1.369 . S
C1209 C1218 1.429 . S
C1210 C1208 1.419 . S
C1210 C1211 1.363 . S
C1210 H1213 0.929 . S
C1211 C1210 1.363 . S
C1211 C1217 1.428 . S
H1212 C1208 0.930 . S
H1213 C1210 0.929 . S
S1214 N1215 1.613 . S
S1214 N1216 1.610 . S
N1215 S1214 1.613 . S
N1215 C1218 1.350 . S
N1216 S1214 1.610 . S
N1216 C1217 1.351 . S
C1217 C1211 1.428 . S
C1217 N1216 1.351 . S
C1217 C1218 1.434 . S
C1218 C1209 1.429 . S
C1218 N1215 1.350 . S
C1218 C1217 1.434 . S
C1219 C1220 1.369 . S
C1219 C1221 1.419 . S
C1219 H1223 0.930 . S
C1220 C1219 1.369 . S
C1220 C1229 1.429 . S
C1221 C1219 1.419 . S
C1221 C1222 1.363 . S
C1221 H1224 0.929 . S
C1222 C1221 1.363 . S
C1222 C1228 1.428 . S
H1223 C1219 0.930 . S
H1224 C1221 0.929 . S
S1225 N1226 1.613 . S
S1225 N1227 1.610 . S
N1226 S1225 1.613 . S
N1226 C1229 1.350 . S
N1227 S1225 1.610 . S
N1227 C1228 1.351 . S
C1228 C1222 1.428 . S
C1228 N1227 1.351 . S
C1228 C1229 1.434 . S
C1229 C1220 1.429 . S
C1229 N1226 1.350 . S
C1229 C1228 1.434 . S
C1230 C1231 1.369 . S
C1230 C1232 1.419 1_455 S
C1230 H1234 0.930 . S
C1231 C1230 1.369 . S
C1231 C1240 1.429 . S
C1232 C1230 1.419 1_655 S
C1232 C1233 1.363 . S
C1232 H1235 0.929 . S
C1233 C1232 1.363 . S
C1233 C1239 1.428 . S
H1234 C1230 0.930 . S
H1235 C1232 0.929 . S
S1236 N1237 1.613 . S
S1236 N1238 1.610 1_455 S
N1237 S1236 1.613 . S
N1237 C1240 1.350 . S
N1238 S1236 1.610 1_655 S
N1238 C1239 1.351 . S
C1239 C1233 1.428 . S
C1239 N1238 1.351 . S
C1239 C1240 1.434 1_655 S
C1240 C1231 1.429 . S
C1240 N1237 1.350 . S
C1240 C1239 1.434 1_455 S
C1241 C1242 1.369 . S
C1241 C1243 1.419 . S
C1241 H1245 0.930 . S
C1242 C1241 1.369 . S
C1242 C1251 1.429 . S
C1243 C1241 1.419 . S
C1243 C1244 1.363 . S
C1243 H1246 0.929 . S
C1244 C1243 1.363 . S
C1244 C1250 1.428 . S
H1245 C1241 0.930 . S
H1246 C1243 0.929 . S
S1247 N1248 1.613 . S
S1247 N1249 1.610 . S
N1248 S1247 1.613 . S
N1248 C1251 1.350 . S
N1249 S1247 1.610 . S
N1249 C1250 1.351 . S
C1250 C1244 1.428 . S
C1250 N1249 1.351 . S
C1250 C1251 1.434 . S
C1251 C1242 1.429 . S
C1251 N1248 1.350 . S
C1251 C1250 1.434 . S
C1252 C1253 1.369 . S
C1252 C1254 1.419 1_565 S
C1252 H1256 0.930 . S
C1253 C1252 1.369 . S
C1253 C1262 1.429 . S
C1254 C1252 1.419 1_545 S
C1254 C1255 1.363 . S
C1254 H1257 0.929 . S
C1255 C1254 1.363 . S
C1255 C1261 1.428 . S
H1256 C1252 0.930 . S
H1257 C1254 0.929 . S
S1258 N1259 1.613 1_545 S
S1258 N1260 1.610 . S
N1259 S1258 1.613 1_565 S
N1259 C1262 1.350 . S
N1260 S1258 1.610 . S
N1260 C1261 1.351 . S
C1261 C1255 1.428 . S
C1261 N1260 1.351 . S
C1261 C1262 1.434 1_545 S
C1262 C1253 1.429 . S
C1262 N1259 1.350 . S
C1262 C1261 1.434 1_565 S
C1263 C1264 1.369 . S
C1263 C1265 1.419 1_545 S
C1263 H1267 0.930 . S
C1264 C1263 1.369 . S
C1264 C1273 1.429 . S
C1265 C1263 1.419 1_565 S
C1265 C1266 1.363 . S
C1265 H1268 0.929 . S
C1266 C1265 1.363 . S
C1266 C1272 1.428 . S
H1267 C1263 0.930 . S
H1268 C1265 0.929 . S
S1269 N1270 1.613 . S
S1269 N1271 1.610 1_545 S
N1270 S1269 1.613 . S
N1270 C1273 1.350 . S
N1271 S1269 1.610 1_565 S
N1271 C1272 1.351 . S
C1272 C1266 1.428 . S
C1272 N1271 1.351 . S
C1272 C1273 1.434 1_565 S
C1273 C1264 1.429 . S
C1273 N1270 1.350 . S
C1273 C1272 1.434 1_545 S
C1274 C1275 1.369 . S
C1274 C1276 1.419 1_455 S
C1274 H1278 0.930 . S
C1275 C1274 1.369 . S
C1275 C1284 1.429 . S
C1276 C1274 1.419 1_655 S
C1276 C1277 1.363 . S
C1276 H1279 0.929 . S
C1277 C1276 1.363 . S
C1277 C1283 1.428 . S
H1278 C1274 0.930 . S
H1279 C1276 0.929 . S
S1280 N1281 1.613 . S
S1280 N1282 1.610 1_455 S
N1281 S1280 1.613 . S
N1281 C1284 1.350 . S
N1282 S1280 1.610 1_655 S
N1282 C1283 1.351 . S
C1283 C1277 1.428 . S
C1283 N1282 1.351 . S
C1283 C1284 1.434 1_655 S
C1284 C1275 1.429 . S
C1284 N1281 1.350 . S
C1284 C1283 1.434 1_455 S
C1285 C1286 1.369 . S
C1285 C1287 1.419 . S
C1285 H1289 0.930 . S
C1286 C1285 1.369 . S
C1286 C1295 1.429 . S
C1287 C1285 1.419 . S
C1287 C1288 1.363 . S
C1287 H1290 0.929 . S
C1288 C1287 1.363 . S
C1288 C1294 1.428 . S
H1289 C1285 0.930 . S
H1290 C1287 0.929 . S
S1291 N1292 1.613 . S
S1291 N1293 1.610 . S
N1292 S1291 1.613 . S
N1292 C1295 1.350 . S
N1293 S1291 1.610 . S
N1293 C1294 1.351 . S
C1294 C1288 1.428 . S
C1294 N1293 1.351 . S
C1294 C1295 1.434 . S
C1295 C1286 1.429 . S
C1295 N1292 1.350 . S
C1295 C1294 1.434 . S
C505 C50 1.232 . S
C507 C8 1.232 . S
C516 C64 1.231 . S
C518 C22 1.232 . S
C527 C78 1.231 . S
C529 C36 1.232 . S
C538 C92 1.231 . S
C540 C134 1.232 . S
C549 C106 1.232 . S
C551 C148 1.232 . S
C560 C162 1.232 . S
C562 C120 1.232 . S
C571 C176 1.222 . S
C573 C218 1.223 . S
C582 C190 1.222 . S
C584 C232 1.223 . S
C593 C204 1.222 . S
C595 C246 1.223 . S
C604 C260 1.220 . S
C606 C302 1.220 . S
C615 C316 1.220 . S
C617 C274 1.221 . S
C626 C288 1.221 . S
C628 C330 1.220 . S
C637 C344 1.221 . S
C639 C386 1.220 . S
C648 C358 1.220 . S
C650 C400 1.219 . S
C659 C414 1.219 . S
C661 C372 1.221 . S
C670 C470 1.222 . S
C672 C428 1.222 . S
C681 C484 1.222 . S
C683 C442 1.222 . S
C692 C498 1.222 . S
C694 C456 1.222 . S
C703 C161 1.492 . S
C705 C9 1.531 1_556 S
C714 C23 1.529 1_556 S
C716 C133 1.489 . S
C725 C37 1.534 1_556 S
C727 C147 1.492 . S
C736 C105 1.491 . S
C738 C51 1.538 . S
C747 C65 1.543 . S
C749 C119 1.500 . S
C758 C91 1.491 . S
C760 C79 1.538 . S
C769 C93 1.529 1_554 S
C771 C77 1.485 . S
C780 C107 1.534 1_554 S
C782 C49 1.490 . S
C791 C63 1.484 . S
C793 C121 1.530 1_554 S
C802 C21 1.497 . S
C804 C135 1.538 . S
C813 C35 1.502 . S
C815 C149 1.541 . S
C824 C163 1.543 . S
C826 C7 1.500 . S
C835 C177 1.509 . S
C837 C329 1.460 . S
C846 C301 1.465 . S
C848 C191 1.508 . S
C857 C315 1.460 . S
C859 C205 1.508 . S
C868 C219 1.535 . S
C870 C273 1.483 . S
C879 C287 1.483 . S
C881 C233 1.536 . S
C890 C247 1.536 . S
C892 C259 1.481 . S
C901 C261 1.537 . S
C903 C245 1.482 . S
C912 C275 1.534 . S
C914 C217 1.479 . S
C923 C231 1.479 . S
C925 C289 1.533 . S
C934 C189 1.506 . S
C936 C303 1.558 . S
C945 C203 1.505 . S
C947 C317 1.554 . S
C956 C331 1.558 . S
C958 C175 1.508 . S
C967 C497 1.484 . S
C969 C345 1.534 . S
C978 C359 1.538 . S
C980 C469 1.484 . S
C989 C373 1.534 . S
C991 C483 1.484 . S
C1000 C387 1.552 . S
C1002 C441 1.505 . S
C1011 C455 1.510 . S
C1013 C401 1.556 . S
C1022 C415 1.556 . S
C1024 C427 1.512 . S
C1033 C413 1.464 . S
C1035 C429 1.507 . S
C1044 C385 1.463 . S
C1046 C443 1.507 . S
C1055 C399 1.470 . S
C1057 C457 1.510 . S
C1066 C357 1.484 . S
C1068 C471 1.540 . S
C1077 C371 1.485 . S
C1079 C485 1.536 . S
C1088 C343 1.486 . S
C1090 C499 1.537 . S
C1099 C409 1.449 . S
C1101 C3 1.449 . S
C1110 C17 1.447 . S
C1112 C381 1.449 . S
C1121 C395 1.447 . S
C1123 C31 1.446 . S
C1132 C45 1.451 . S
C1134 C185 1.451 . S
C1143 C199 1.448 . S
C1145 C59 1.448 . S
C1154 C73 1.449 . S
C1156 C171 1.450 . S
C1165 C87 1.449 . S
C1167 C325 1.449 . S
C1176 C297 1.449 . S
C1178 C101 1.449 . S
C1187 C115 1.445 . S
C1189 C311 1.446 . S
C1198 C129 1.447 . S
C1200 C437 1.448 . S
C1209 C143 1.448 . S
C1211 C451 1.449 . S
C1220 C423 1.451 . S
C1222 C157 1.451 . S
C1231 C353 1.451 . S
C1233 C213 1.450 . S
C1242 C367 1.453 . S
C1244 C227 1.452 . S
C1253 C339 1.452 . S
C1255 C241 1.453 . S
C1264 C255 1.453 . S
C1266 C493 1.452 . S
C1275 C465 1.449 . S
C1277 C269 1.449 . S
C1286 C283 1.448 . S
C1288 C479 1.449 . S
