# Generated by pormake.
# Topology vbf, (5)-cn, num edge types: 1
# Building blocks:
#     Node 0, Type 0, BuildingBlock: XOMCOT_clean_sbu_0, # of connection points: 5
#     Node 1, Type 0, BuildingBlock: XOMCOT_clean_sbu_0, # of connection points: 5
#     Node 2, Type 0, BuildingBlock: XOMCOT_clean_sbu_0, # of connection points: 5
#     Node 3, Type 0, BuildingBlock: XOMCOT_clean_sbu_0, # of connection points: 5
#     Node 4, Type 0, BuildingBlock: XOMCOT_clean_sbu_0, # of connection points: 5
#     Node 5, Type 0, BuildingBlock: XOMCOT_clean_sbu_0, # of connection points: 5
#     Node 6, Type 0, BuildingBlock: XOMCOT_clean_sbu_0, # of connection points: 5
#     Node 7, Type 0, BuildingBlock: XOMCOT_clean_sbu_0, # of connection points: 5
#     Node 8, Type 0, BuildingBlock: XOMCOT_clean_sbu_0, # of connection points: 5
#     Node 9, Type 0, BuildingBlock: XOMCOT_clean_sbu_0, # of connection points: 5
#     Node 10, Type 0, BuildingBlock: XOMCOT_clean_sbu_0, # of connection points: 5
#     Node 11, Type 0, BuildingBlock: XOMCOT_clean_sbu_0, # of connection points: 5
#     Node 12, Type 0, BuildingBlock: XOMCOT_clean_sbu_0, # of connection points: 5
#     Node 13, Type 0, BuildingBlock: XOMCOT_clean_sbu_0, # of connection points: 5
#     Node 14, Type 0, BuildingBlock: XOMCOT_clean_sbu_0, # of connection points: 5
#     Node 15, Type 0, BuildingBlock: XOMCOT_clean_sbu_0, # of connection points: 5
#     Edge 16, Type (0, 0), BuildingBlock: ZUJKAS_clean_linker_0, # of connection points: 2
#     Edge 17, Type (0, 0), BuildingBlock: ZUJKAS_clean_linker_0, # of connection points: 2
#     Edge 18, Type (0, 0), BuildingBlock: ZUJKAS_clean_linker_0, # of connection points: 2
#     Edge 19, Type (0, 0), BuildingBlock: ZUJKAS_clean_linker_0, # of connection points: 2
#     Edge 20, Type (0, 0), BuildingBlock: ZUJKAS_clean_linker_0, # of connection points: 2
#     Edge 21, Type (0, 0), BuildingBlock: ZUJKAS_clean_linker_0, # of connection points: 2
#     Edge 22, Type (0, 0), BuildingBlock: ZUJKAS_clean_linker_0, # of connection points: 2
#     Edge 23, Type (0, 0), BuildingBlock: ZUJKAS_clean_linker_0, # of connection points: 2
#     Edge 24, Type (0, 0), BuildingBlock: ZUJKAS_clean_linker_0, # of connection points: 2
#     Edge 25, Type (0, 0), BuildingBlock: ZUJKAS_clean_linker_0, # of connection points: 2
#     Edge 26, Type (0, 0), BuildingBlock: ZUJKAS_clean_linker_0, # of connection points: 2
#     Edge 27, Type (0, 0), BuildingBlock: ZUJKAS_clean_linker_0, # of connection points: 2
#     Edge 28, Type (0, 0), BuildingBlock: ZUJKAS_clean_linker_0, # of connection points: 2
#     Edge 29, Type (0, 0), BuildingBlock: ZUJKAS_clean_linker_0, # of connection points: 2
#     Edge 30, Type (0, 0), BuildingBlock: ZUJKAS_clean_linker_0, # of connection points: 2
#     Edge 31, Type (0, 0), BuildingBlock: ZUJKAS_clean_linker_0, # of connection points: 2
#     Edge 32, Type (0, 0), BuildingBlock: ZUJKAS_clean_linker_0, # of connection points: 2
#     Edge 33, Type (0, 0), BuildingBlock: ZUJKAS_clean_linker_0, # of connection points: 2
#     Edge 34, Type (0, 0), BuildingBlock: ZUJKAS_clean_linker_0, # of connection points: 2
#     Edge 35, Type (0, 0), BuildingBlock: ZUJKAS_clean_linker_0, # of connection points: 2
#     Edge 36, Type (0, 0), BuildingBlock: ZUJKAS_clean_linker_0, # of connection points: 2
#     Edge 37, Type (0, 0), BuildingBlock: ZUJKAS_clean_linker_0, # of connection points: 2
#     Edge 38, Type (0, 0), BuildingBlock: ZUJKAS_clean_linker_0, # of connection points: 2
#     Edge 39, Type (0, 0), BuildingBlock: ZUJKAS_clean_linker_0, # of connection points: 2
#     Edge 40, Type (0, 0), BuildingBlock: ZUJKAS_clean_linker_0, # of connection points: 2
#     Edge 41, Type (0, 0), BuildingBlock: ZUJKAS_clean_linker_0, # of connection points: 2
#     Edge 42, Type (0, 0), BuildingBlock: ZUJKAS_clean_linker_0, # of connection points: 2
#     Edge 43, Type (0, 0), BuildingBlock: ZUJKAS_clean_linker_0, # of connection points: 2
#     Edge 44, Type (0, 0), BuildingBlock: ZUJKAS_clean_linker_0, # of connection points: 2
#     Edge 45, Type (0, 0), BuildingBlock: ZUJKAS_clean_linker_0, # of connection points: 2
#     Edge 46, Type (0, 0), BuildingBlock: ZUJKAS_clean_linker_0, # of connection points: 2
#     Edge 47, Type (0, 0), BuildingBlock: ZUJKAS_clean_linker_0, # of connection points: 2
#     Edge 48, Type (0, 0), BuildingBlock: ZUJKAS_clean_linker_0, # of connection points: 2
#     Edge 49, Type (0, 0), BuildingBlock: ZUJKAS_clean_linker_0, # of connection points: 2
#     Edge 50, Type (0, 0), BuildingBlock: ZUJKAS_clean_linker_0, # of connection points: 2
#     Edge 51, Type (0, 0), BuildingBlock: ZUJKAS_clean_linker_0, # of connection points: 2
#     Edge 52, Type (0, 0), BuildingBlock: ZUJKAS_clean_linker_0, # of connection points: 2
#     Edge 53, Type (0, 0), BuildingBlock: ZUJKAS_clean_linker_0, # of connection points: 2
#     Edge 54, Type (0, 0), BuildingBlock: ZUJKAS_clean_linker_0, # of connection points: 2
#     Edge 55, Type (0, 0), BuildingBlock: ZUJKAS_clean_linker_0, # of connection points: 2
# Relax obj value: 0.129
# Max RMSD: 0.207
# Mean RMSD: 0.207
data_MOF--net-vbf--node1-XOMCOT_clean_sbu_0--edge1-ZUJKAS_clean_linker_0
_symmetry_space_group_name_H-M    P1
_symmetry_Int_Tables_number       1
_symmetry_cell_setting            triclinic
loop_
_symmetry_equiv_pos_as_xyz
'x, y, z'
_cell_length_a     56.221039
_cell_length_b     92.953303
_cell_length_c     32.513088
_cell_angle_alpha  89.98705
_cell_angle_beta   89.941548
_cell_angle_gamma 89.935198
loop_
_atom_site_label
_atom_site_type_symbol
_atom_site_fract_x
_atom_site_fract_y
_atom_site_fract_z
_atom_type_partial_charge
Co0 Co 0.09118 0.31276 1.00747 0.0
C1 C 0.13336 0.29397 0.98943 0.0
C2 C 0.11007 0.28475 0.03447 0.0
C3 C 0.12891 0.27561 0.02882 0.0
N4 N 0.11267 0.29631 0.0098 0.0
N5 N 0.14375 0.28142 1.00078 0.0
H6 H 0.14104 0.30142 0.96765 0.0
H7 H 0.09562 0.28294 0.05572 0.0
C8 C 0.05391 0.30593 0.07082 0.0
O9 O 0.03769 0.31016 0.04432 0.0
N10 N 0.06993 0.32933 1.00673 0.0
C11 C 0.05849 0.33564 0.97501 0.0
C12 C 0.04428 0.34654 0.99009 0.0
C13 C 0.06324 0.33693 0.04026 0.0
N14 N 0.04705 0.34718 0.03124 0.0
C15 C 0.06872 0.30442 0.9322 0.0
C16 C 0.04515 0.28039 0.96069 0.0
C17 C 0.04355 0.28382 0.91875 0.0
C18 C 0.05573 0.29602 0.90476 0.0
C19 C 0.05863 0.28904 0.98712 0.0
N20 N 0.06963 0.30125 0.97321 0.0
H21 H 0.07872 0.31327 0.91968 0.0
H22 H 0.06055 0.28551 0.01843 0.0
H23 H 0.05984 0.3326 0.94316 0.0
H24 H 0.06953 0.33463 0.07102 0.0
O25 O 0.10956 0.32127 0.96389 0.0
O26 O 0.11606 0.32516 0.02997 0.0
O27 O 0.07594 0.30618 0.06085 0.0
C28 C 0.12184 0.32784 0.99186 0.0
H29 H 0.13141 0.26545 0.04444 0.0
H30 H 0.03204 0.35303 0.97231 0.0
H31 H 0.03635 0.27098 0.97309 0.0
H32 H 0.05607 0.29883 0.87245 0.0
Co33 Co 0.92281 0.694 0.01332 0.0
C34 C 0.88001 0.71278 0.99259 0.0
C35 C 0.88142 0.70539 0.05501 0.0
C36 C 0.8613 0.71354 0.05037 0.0
N37 N 0.8936 0.70513 0.01924 0.0
N38 N 0.86042 0.71819 0.01121 0.0
H39 H 0.88389 0.7144 0.96051 0.0
H40 H 0.88685 0.6999 0.0828 0.0
C41 C 0.93293 0.71535 0.07908 0.0
O42 O 0.92314 0.725 0.05487 0.0
N43 N 0.9513 0.68246 0.00998 0.0
C44 C 0.96338 0.67839 0.97622 0.0
C45 C 0.98269 0.67026 0.98843 0.0
C46 C 0.96322 0.67677 0.04207 0.0
N47 N 0.98263 0.66926 0.02996 0.0
C48 C 0.93042 0.71165 0.94254 0.0
C49 C 0.97171 0.72491 0.96838 0.0
C50 C 0.96249 0.72837 0.92948 0.0
C51 C 0.94168 0.72145 0.91665 0.0
C52 C 0.95969 0.71504 0.99358 0.0
N53 N 0.93868 0.70899 0.98126 0.0
H54 H 0.91544 0.70581 0.93053 0.0
H55 H 0.9677 0.712 0.02248 0.0
H56 H 0.9585 0.68113 0.94501 0.0
H57 H 0.95781 0.67827 0.07369 0.0
O58 O 0.90923 0.68359 0.96815 0.0
O59 O 0.9051 0.67733 0.03342 0.0
O60 O 0.93461 0.70226 0.06724 0.0
C61 C 0.90008 0.67486 0.99488 0.0
H62 H 0.84802 0.71564 0.07375 0.0
H63 H 0.99558 0.66537 0.96804 0.0
H64 H 0.9881 0.72971 0.97915 0.0
H65 H 0.93455 0.72318 0.88611 0.0
Co66 Co 0.17605 0.5647 0.26077 0.0
C67 C 0.1318 0.54682 0.24267 0.0
C68 C 0.13412 0.55527 0.30388 0.0
C69 C 0.11282 0.5483 0.30008 0.0
N70 N 0.14626 0.55434 0.26817 0.0
N71 N 0.11133 0.54301 0.26166 0.0
H72 H 0.13531 0.54459 0.21075 0.0
H73 H 0.14025 0.56097 0.33086 0.0
C74 C 0.18577 0.54335 0.32652 0.0
O75 O 0.1756 0.53386 0.30229 0.0
N76 N 0.20517 0.57552 0.25641 0.0
C77 C 0.21827 0.5784 0.22275 0.0
C78 C 0.2377 0.58649 0.23458 0.0
C79 C 0.21656 0.58188 0.28798 0.0
N80 N 0.2366 0.58864 0.27568 0.0
C81 C 0.18178 0.54653 0.19063 0.0
C82 C 0.22344 0.53317 0.21451 0.0
C83 C 0.21371 0.52984 0.17591 0.0
C84 C 0.19263 0.53673 0.1642 0.0
C85 C 0.21179 0.54302 0.24035 0.0
N86 N 0.1907 0.54921 0.22888 0.0
H87 H 0.16672 0.55248 0.17923 0.0
H88 H 0.22024 0.54604 0.26887 0.0
H89 H 0.21407 0.57483 0.19195 0.0
H90 H 0.20998 0.58173 0.31926 0.0
O91 O 0.1628 0.57529 0.21544 0.0
O92 O 0.15966 0.58193 0.28056 0.0
O93 O 0.18773 0.55643 0.31474 0.0
C94 C 0.15461 0.58442 0.24203 0.0
H95 H 0.09933 0.54729 0.32368 0.0
H96 H 0.25167 0.59031 0.21445 0.0
H97 H 0.24003 0.52838 0.22443 0.0
H98 H 0.18507 0.53509 0.13393 0.0
Co99 Co 0.83821 0.44353 0.24798 0.0
C100 C 0.88408 0.45989 0.23922 0.0
C101 C 0.85465 0.47304 0.25814 0.0
C102 C 0.87444 0.48159 0.25502 0.0
N103 N 0.86059 0.45942 0.24834 0.0
N104 N 0.89299 0.47334 0.24325 0.0
H105 H 0.89456 0.45066 0.23024 0.0
H106 H 0.83696 0.47657 0.26654 0.0
C107 C 0.80548 0.44941 0.32177 0.0
O108 O 0.78928 0.44043 0.30831 0.0
N109 N 0.8159 0.42764 0.24779 0.0
C110 C 0.79978 0.42434 0.21868 0.0
C111 C 0.78634 0.41291 0.23235 0.0
C112 C 0.81291 0.41771 0.27768 0.0
N113 N 0.79433 0.40891 0.26981 0.0
C114 C 0.8271 0.45885 0.17552 0.0
C115 C 0.78169 0.46789 0.19512 0.0
C116 C 0.79121 0.47153 0.15661 0.0
C117 C 0.8143 0.46697 0.14719 0.0
C118 C 0.79515 0.45963 0.22272 0.0
N119 N 0.81757 0.45511 0.21267 0.0
H120 H 0.84502 0.4557 0.16769 0.0
H121 H 0.7872 0.45685 0.25152 0.0
H122 H 0.79731 0.43015 0.19019 0.0
H123 H 0.82302 0.41767 0.306 0.0
O124 O 0.85543 0.43388 0.20495 0.0
O125 O 0.86231 0.4308 0.2714 0.0
O126 O 0.82443 0.45186 0.30095 0.0
C127 C 0.86749 0.4274 0.23347 0.0
H128 H 0.87495 0.49307 0.26032 0.0
H129 H 0.7709 0.40853 0.21698 0.0
H130 H 0.76385 0.47117 0.20359 0.0
H131 H 0.82263 0.46982 0.11826 0.0
Co132 Co 0.08451 0.81361 0.5144 0.0
C133 C 0.13039 0.79844 0.49634 0.0
C134 C 0.11043 0.78808 0.54415 0.0
C135 C 0.13169 0.78102 0.53979 0.0
N136 N 0.10952 0.79912 0.51716 0.0
N137 N 0.14429 0.78757 0.50997 0.0
H138 H 0.13584 0.80602 0.47293 0.0
H139 H 0.09689 0.78536 0.56635 0.0
C140 C 0.04939 0.8042 0.57866 0.0
O141 O 0.03231 0.80686 0.55215 0.0
N142 N 0.05979 0.82832 0.51334 0.0
C143 C 0.04729 0.83378 0.48152 0.0
C144 C 0.0313 0.84378 0.4964 0.0
C145 C 0.05182 0.83553 0.54672 0.0
N146 N 0.03399 0.8447 0.5375 0.0
C147 C 0.06369 0.80322 0.44009 0.0
C148 C 0.04637 0.77738 0.46926 0.0
C149 C 0.04413 0.78057 0.42736 0.0
C150 C 0.05295 0.79367 0.41295 0.0
C151 C 0.05773 0.78721 0.49546 0.0
N152 N 0.06557 0.80024 0.48113 0.0
H153 H 0.07123 0.81286 0.42725 0.0
H154 H 0.06077 0.78399 0.52682 0.0
H155 H 0.04927 0.83085 0.44968 0.0
H156 H 0.05862 0.83385 0.57748 0.0
O157 O 0.10054 0.82313 0.46994 0.0
O158 O 0.10663 0.82813 0.53547 0.0
O159 O 0.07113 0.8062 0.56841 0.0
C160 C 0.1116 0.83083 0.49701 0.0
H161 H 0.13759 0.77185 0.55762 0.0
H162 H 0.01814 0.84954 0.47851 0.0
H163 H 0.04027 0.76716 0.48128 0.0
H164 H 0.05182 0.79645 0.38064 0.0
Co165 Co 0.92626 0.19497 0.50694 0.0
C166 C 0.88433 0.21292 0.48216 0.0
C167 C 0.89987 0.22009 0.53878 0.0
C168 C 0.88082 0.22878 0.52994 0.0
N169 N 0.90236 0.21018 0.5087 0.0
N170 N 0.87101 0.22426 0.4945 0.0
H171 H 0.88082 0.20672 0.45467 0.0
H172 H 0.91083 0.22102 0.56588 0.0
C173 C 0.96185 0.20567 0.56804 0.0
O174 O 0.97839 0.20355 0.54009 0.0
N175 N 0.9498 0.1794 0.50702 0.0
C176 C 0.9567 0.17078 0.47574 0.0
C177 C 0.97258 0.16071 0.49033 0.0
C178 C 0.96054 0.1737 0.5406 0.0
N179 N 0.97515 0.16263 0.53117 0.0
C180 C 0.95236 0.20311 0.43481 0.0
C181 C 0.96369 0.23076 0.45876 0.0
C182 C 0.97057 0.22608 0.41949 0.0
C183 C 0.96469 0.21204 0.40776 0.0
C184 C 0.95139 0.22141 0.48505 0.0
N185 N 0.94646 0.20756 0.4735 0.0
H186 H 0.94648 0.19289 0.42343 0.0
H187 H 0.94558 0.22546 0.51447 0.0
H188 H 0.94995 0.17113 0.44474 0.0
H189 H 0.95761 0.17749 0.57157 0.0
O190 O 0.90973 0.18579 0.46253 0.0
O191 O 0.90287 0.18138 0.52841 0.0
O192 O 0.94018 0.20246 0.56027 0.0
C193 C 0.89785 0.17866 0.48997 0.0
H194 H 0.8741 0.23741 0.54904 0.0
H195 H 0.98102 0.15235 0.47232 0.0
H196 H 0.96752 0.2416 0.46898 0.0
H197 H 0.96858 0.20814 0.37709 0.0
Co198 Co 0.17494 0.06331 0.7657 0.0
C199 C 0.1302 0.04711 0.74501 0.0
C200 C 0.13951 0.04586 0.80869 0.0
C201 C 0.1177 0.03959 0.80366 0.0
N202 N 0.14796 0.05023 0.77182 0.0
N203 N 0.11176 0.04043 0.76369 0.0
H204 H 0.12957 0.05077 0.71348 0.0
H205 H 0.14756 0.04806 0.83813 0.0
C206 C 0.1934 0.04261 0.82779 0.0
O207 O 0.18789 0.03244 0.80138 0.0
N208 N 0.20092 0.07684 0.7621 0.0
C209 C 0.21166 0.08201 0.72819 0.0
C210 C 0.22923 0.09147 0.74026 0.0
C211 C 0.21179 0.08327 0.79412 0.0
N212 N 0.22931 0.09225 0.7818 0.0
C213 C 0.18322 0.04365 0.69905 0.0
C214 C 0.23065 0.03831 0.71524 0.0
C215 C 0.22017 0.03192 0.68063 0.0
C216 C 0.1961 0.03467 0.67287 0.0
C217 C 0.21696 0.04711 0.7411 0.0
N218 N 0.19335 0.04949 0.73328 0.0
H219 H 0.16536 0.04637 0.69049 0.0
H220 H 0.22546 0.0522 0.7671 0.0
H221 H 0.20708 0.07908 0.69699 0.0
H222 H 0.2071 0.08124 0.82585 0.0
O223 O 0.1595 0.07274 0.72056 0.0
O224 O 0.15434 0.0787 0.78594 0.0
O225 O 0.18889 0.05579 0.8192 0.0
C226 C 0.1491 0.08097 0.74732 0.0
H227 H 0.10657 0.03533 0.82795 0.0
H228 H 0.24082 0.09742 0.71985 0.0
H229 H 0.2493 0.03662 0.7221 0.0
H230 H 0.18751 0.03042 0.64565 0.0
Co231 Co 0.83877 0.94602 0.76885 0.0
C232 C 0.88094 0.96513 0.74724 0.0
C233 C 0.88067 0.95722 0.80921 0.0
C234 C 0.90038 0.9657 0.80424 0.0
N235 N 0.86807 0.95705 0.77391 0.0
N236 N 0.90052 0.97066 0.76537 0.0
H237 H 0.87645 0.96711 0.71559 0.0
H238 H 0.87568 0.95158 0.837 0.0
C239 C 0.82916 0.96794 0.83324 0.0
O240 O 0.83905 0.97729 0.8082 0.0
N241 N 0.81018 0.93461 0.76616 0.0
C242 C 0.79819 0.93042 0.73246 0.0
C243 C 0.77884 0.92238 0.74481 0.0
C244 C 0.79818 0.92905 0.79838 0.0
N245 N 0.77882 0.92153 0.78635 0.0
C246 C 0.83114 0.96325 0.69715 0.0
C247 C 0.79003 0.97681 0.72302 0.0
C248 C 0.79926 0.9801 0.68404 0.0
C249 C 0.81998 0.97306 0.67116 0.0
C250 C 0.80204 0.96702 0.74843 0.0
N251 N 0.82298 0.96084 0.73609 0.0
H252 H 0.84602 0.95724 0.68521 0.0
H253 H 0.79407 0.96413 0.7775 0.0
H254 H 0.80318 0.93301 0.70119 0.0
H255 H 0.80348 0.93066 0.83001 0.0
O256 O 0.85227 0.93514 0.72427 0.0
O257 O 0.85621 0.92945 0.79004 0.0
O258 O 0.82714 0.95476 0.82233 0.0
C259 C 0.86118 0.92657 0.75169 0.0
H260 H 0.9138 0.96791 0.82724 0.0
H261 H 0.76602 0.9174 0.72454 0.0
H262 H 0.77362 0.98167 0.73365 0.0
H263 H 0.82705 0.97471 0.64051 0.0
Co264 Co 0.59074 0.31412 0.50573 0.0
C265 C 0.6312 0.29484 0.48153 0.0
C266 C 0.61201 0.28664 0.5335 0.0
C267 C 0.63011 0.27725 0.52445 0.0
N268 N 0.61239 0.29767 0.5064 0.0
N269 N 0.6422 0.28243 0.49196 0.0
H270 H 0.63693 0.30167 0.45647 0.0
H271 H 0.59963 0.28538 0.55862 0.0
C272 C 0.55471 0.30597 0.5695 0.0
O273 O 0.53804 0.30949 0.54299 0.0
N274 N 0.56951 0.33085 0.5065 0.0
C275 C 0.56202 0.33904 0.47475 0.0
C276 C 0.54738 0.34976 0.48946 0.0
C277 C 0.56045 0.33742 0.5403 0.0
N278 N 0.54614 0.34863 0.53075 0.0
C279 C 0.56419 0.30677 0.43353 0.0
C280 C 0.54731 0.28048 0.45997 0.0
C281 C 0.54252 0.28485 0.41956 0.0
C282 C 0.55102 0.29825 0.40665 0.0
C283 C 0.56044 0.28944 0.48609 0.0
N284 N 0.56837 0.30262 0.47317 0.0
H285 H 0.57224 0.31631 0.4212 0.0
H286 H 0.56473 0.28543 0.51626 0.0
H287 H 0.56723 0.33782 0.44307 0.0
H288 H 0.56392 0.33392 0.5714 0.0
O289 O 0.60801 0.32239 0.46068 0.0
O290 O 0.61628 0.32641 0.52619 0.0
O291 O 0.57665 0.30738 0.5598 0.0
C292 C 0.62138 0.32874 0.48756 0.0
H293 H 0.6346 0.26759 0.54139 0.0
H294 H 0.53857 0.35786 0.47104 0.0
H295 H 0.54139 0.2701 0.4711 0.0
H296 H 0.54869 0.30182 0.37519 0.0
Co297 Co 0.42376 0.69682 0.5119 0.0
C298 C 0.38009 0.71508 0.4932 0.0
C299 C 0.38104 0.70592 0.55371 0.0
C300 C 0.3598 0.71296 0.54906 0.0
N301 N 0.39397 0.70725 0.51895 0.0
N302 N 0.35919 0.71869 0.51107 0.0
H303 H 0.38431 0.71767 0.46178 0.0
H304 H 0.38656 0.6999 0.58053 0.0
C305 C 0.43274 0.71738 0.57988 0.0
O306 O 0.42243 0.72705 0.55637 0.0
N307 N 0.45279 0.68588 0.50744 0.0
C308 C 0.46623 0.68346 0.47389 0.0
C309 C 0.48532 0.67499 0.48523 0.0
C310 C 0.46362 0.67885 0.53847 0.0
N311 N 0.48366 0.6721 0.52591 0.0
C312 C 0.43078 0.71565 0.4435 0.0
C313 C 0.47236 0.72835 0.47021 0.0
C314 C 0.46347 0.73198 0.43124 0.0
C315 C 0.44235 0.72548 0.41817 0.0
C316 C 0.45998 0.71851 0.49496 0.0
N317 N 0.43899 0.71258 0.48202 0.0
H318 H 0.41586 0.70991 0.43089 0.0
H319 H 0.46791 0.71519 0.52367 0.0
H320 H 0.46249 0.6876 0.44349 0.0
H321 H 0.45666 0.67854 0.56948 0.0
O322 O 0.41094 0.6869 0.46516 0.0
O323 O 0.40698 0.67942 0.52935 0.0
O324 O 0.43496 0.70444 0.567 0.0
C325 C 0.40231 0.67747 0.49042 0.0
H326 H 0.34576 0.71374 0.57178 0.0
H327 H 0.49946 0.67142 0.46505 0.0
H328 H 0.48898 0.73282 0.48113 0.0
H329 H 0.43543 0.72737 0.38755 0.0
Co330 Co 0.67763 0.56338 0.74859 0.0
C331 C 0.63567 0.54554 0.72341 0.0
C332 C 0.65339 0.53684 0.77622 0.0
C333 C 0.63439 0.52819 0.7671 0.0
N334 N 0.6545 0.54771 0.74866 0.0
N335 N 0.6232 0.53367 0.73406 0.0
H336 H 0.63088 0.55252 0.69811 0.0
H337 H 0.66526 0.53523 0.80187 0.0
C338 C 0.71185 0.55348 0.81352 0.0
O339 O 0.72934 0.55612 0.78773 0.0
N340 N 0.70032 0.57935 0.75 0.0
C341 C 0.70733 0.58799 0.71887 0.0
C342 C 0.72262 0.59826 0.73389 0.0
C343 C 0.71036 0.58523 0.78391 0.0
N344 N 0.72477 0.59643 0.77485 0.0
C345 C 0.70563 0.55566 0.67826 0.0
C346 C 0.71908 0.52855 0.70392 0.0
C347 C 0.72612 0.53327 0.66483 0.0
C348 C 0.71928 0.54706 0.65225 0.0
C349 C 0.70559 0.53761 0.72927 0.0
N350 N 0.69942 0.5512 0.71681 0.0
H351 H 0.69904 0.56563 0.66614 0.0
H352 H 0.69986 0.5335 0.7586 0.0
H353 H 0.70109 0.58747 0.68757 0.0
H354 H 0.70711 0.58147 0.81479 0.0
O355 O 0.66167 0.57222 0.70294 0.0
O356 O 0.65313 0.5766 0.76823 0.0
O357 O 0.69035 0.55615 0.80309 0.0
C358 C 0.64882 0.57919 0.72947 0.0
H359 H 0.62861 0.5189 0.78455 0.0
H360 H 0.731 0.60666 0.71599 0.0
H361 H 0.72367 0.51787 0.71464 0.0
H362 H 0.72341 0.55092 0.62163 0.0
Co363 Co 0.34138 0.44608 0.76138 0.0
C364 C 0.38224 0.46473 0.73569 0.0
C365 C 0.36304 0.47365 0.78672 0.0
C366 C 0.3812 0.48285 0.77676 0.0
N367 N 0.36339 0.46229 0.76077 0.0
N368 N 0.39328 0.47723 0.74485 0.0
H369 H 0.38791 0.45758 0.71133 0.0
H370 H 0.35061 0.47528 0.8116 0.0
C371 C 0.30535 0.45489 0.82444 0.0
O372 O 0.28883 0.45114 0.79797 0.0
N373 N 0.31978 0.42959 0.76354 0.0
C374 C 0.31173 0.42121 0.73262 0.0
C375 C 0.29768 0.41046 0.74877 0.0
C376 C 0.31147 0.42322 0.79815 0.0
N377 N 0.29733 0.41183 0.79001 0.0
C378 C 0.31547 0.45312 0.68826 0.0
C379 C 0.29902 0.47978 0.71254 0.0
C380 C 0.29486 0.47529 0.672 0.0
C381 C 0.30294 0.46162 0.66038 0.0
C382 C 0.31151 0.47083 0.73971 0.0
N383 N 0.31935 0.4575 0.72777 0.0
H384 H 0.32321 0.44335 0.67683 0.0
H385 H 0.31556 0.47499 0.76979 0.0
H386 H 0.31614 0.42232 0.70056 0.0
H387 H 0.3159 0.42671 0.82891 0.0
O388 O 0.35843 0.43712 0.71704 0.0
O389 O 0.36663 0.43366 0.78279 0.0
O390 O 0.32735 0.45347 0.81497 0.0
C391 C 0.37149 0.43076 0.74438 0.0
H392 H 0.38571 0.49272 0.79266 0.0
H393 H 0.28824 0.40236 0.73134 0.0
H394 H 0.29365 0.49038 0.72275 0.0
H395 H 0.30024 0.45761 0.62947 0.0
Co396 Co 0.58749 0.81457 0.013 0.0
C397 C 0.63282 0.79847 0.99121 0.0
C398 C 0.62881 0.80343 0.0552 0.0
C399 C 0.65074 0.79733 0.04958 0.0
N400 N 0.6172 0.80396 0.01893 0.0
N401 N 0.65332 0.79425 0.00939 0.0
H402 H 0.63026 0.79833 0.95841 0.0
H403 H 0.62209 0.80775 0.08383 0.0
C404 C 0.5774 0.79293 0.07813 0.0
O405 O 0.58715 0.78339 0.05348 0.0
N406 N 0.5585 0.82565 0.0097 0.0
C407 C 0.54614 0.82946 0.97601 0.0
C408 C 0.52655 0.83734 0.98833 0.0
C409 C 0.5465 0.83127 0.04183 0.0
N410 N 0.52677 0.83846 0.02982 0.0
C411 C 0.58111 0.79645 0.9427 0.0
C412 C 0.53907 0.78369 0.96716 0.0
C413 C 0.54854 0.78019 0.92845 0.0
C414 C 0.56985 0.78676 0.91646 0.0
C415 C 0.55108 0.79343 0.9927 0.0
N416 N 0.57232 0.79933 0.98095 0.0
H417 H 0.59619 0.80224 0.93097 0.0
H418 H 0.54278 0.79659 0.02129 0.0
H419 H 0.55101 0.8267 0.9448 0.0
H420 H 0.55206 0.82994 0.07342 0.0
O421 O 0.60063 0.82529 0.96782 0.0
O422 O 0.60428 0.83151 0.03324 0.0
O423 O 0.57595 0.8061 0.06686 0.0
C424 C 0.60914 0.83419 0.99473 0.0
H425 H 0.66399 0.79555 0.07318 0.0
H426 H 0.51337 0.84199 0.96807 0.0
H427 H 0.52235 0.77915 0.97737 0.0
H428 H 0.57723 0.785 0.88609 0.0
Co429 Co 0.4285 0.19591 1.00628 0.0
C430 C 0.38556 0.21411 0.98793 0.0
C431 C 0.40755 0.22319 0.03502 0.0
C432 C 0.3882 0.23193 0.02974 0.0
N433 N 0.40616 0.21198 0.00878 0.0
N434 N 0.37415 0.2262 1.00049 0.0
H435 H 0.37862 0.20678 0.96512 0.0
H436 H 0.42143 0.22501 0.05729 0.0
C437 C 0.46484 0.20385 0.06983 0.0
O438 O 0.48147 0.20039 0.04314 0.0
N439 N 0.4505 0.17963 1.0056 0.0
C440 C 0.45955 0.17228 0.97341 0.0
C441 C 0.47406 0.16147 0.98796 0.0
C442 C 0.45868 0.17258 0.03917 0.0
N443 N 0.47379 0.16178 0.02946 0.0
C444 C 0.45297 0.20423 0.93283 0.0
C445 C 0.4719 0.2298 0.96074 0.0
C446 C 0.47575 0.22579 0.91973 0.0
C447 C 0.4661 0.2128 0.906 0.0
C448 C 0.4588 0.22078 0.98683 0.0
N449 N 0.44996 0.20791 0.97318 0.0
H450 H 0.44426 0.19497 0.9201 0.0
H451 H 0.45544 0.22449 0.01762 0.0
H452 H 0.45563 0.17416 0.94147 0.0
H453 H 0.45396 0.17554 0.07025 0.0
O454 O 0.41114 0.18745 0.96163 0.0
O455 O 0.40394 0.18295 0.02727 0.0
O456 O 0.44288 0.20256 0.06016 0.0
C457 C 0.39885 0.18044 0.98876 0.0
H458 H 0.38476 0.24175 0.04661 0.0
H459 H 0.48383 0.1539 0.96914 0.0
H460 H 0.47866 0.23991 0.97245 0.0
H461 H 0.46768 0.20956 0.8741 0.0
Co462 Co 0.67148 0.06267 0.26861 0.0
C463 C 0.62849 0.04489 0.24583 0.0
C464 C 0.63527 0.04547 0.31055 0.0
C465 C 0.61499 0.03765 0.30414 0.0
N466 N 0.64457 0.0495 0.27398 0.0
N467 N 0.61075 0.03726 0.26348 0.0
H468 H 0.62881 0.04757 0.21357 0.0
H469 H 0.64206 0.04858 0.34032 0.0
C470 C 0.68835 0.04188 0.33158 0.0
O471 O 0.682 0.03178 0.30553 0.0
N472 N 0.69742 0.07623 0.26549 0.0
C473 C 0.70835 0.0813 0.23164 0.0
C474 C 0.72614 0.09058 0.24376 0.0
C475 C 0.70847 0.08253 0.29758 0.0
N476 N 0.72625 0.09133 0.28531 0.0
C477 C 0.68124 0.04394 0.20048 0.0
C478 C 0.72747 0.03707 0.22148 0.0
C479 C 0.7178 0.03131 0.18531 0.0
C480 C 0.69439 0.03488 0.17499 0.0
C481 C 0.71347 0.04595 0.24661 0.0
N482 N 0.69032 0.04895 0.23662 0.0
H483 H 0.66418 0.04748 0.18981 0.0
H484 H 0.72141 0.05065 0.2737 0.0
H485 H 0.70379 0.07837 0.20043 0.0
H486 H 0.70379 0.08047 0.3293 0.0
O487 O 0.65622 0.07204 0.22327 0.0
O488 O 0.65056 0.07793 0.28859 0.0
O489 O 0.68508 0.05513 0.32228 0.0
C490 C 0.64543 0.08013 0.2499 0.0
H491 H 0.60354 0.03319 0.32771 0.0
H492 H 0.73794 0.09639 0.22337 0.0
H493 H 0.74572 0.03484 0.23006 0.0
H494 H 0.6866 0.03125 0.14635 0.0
Co495 Co 0.33731 0.94399 0.26525 0.0
C496 C 0.38165 0.96065 0.24095 0.0
C497 C 0.38185 0.95223 0.30237 0.0
C498 C 0.40339 0.9586 0.29512 0.0
N499 N 0.36803 0.95353 0.26869 0.0
N500 N 0.4033 0.96386 0.25654 0.0
H501 H 0.37658 0.96303 0.20975 0.0
H502 H 0.37667 0.94672 0.33029 0.0
C503 C 0.33207 0.96576 0.33179 0.0
O504 O 0.34342 0.97472 0.30744 0.0
N505 N 0.30731 0.93398 0.26423 0.0
C506 C 0.29274 0.93172 0.2321 0.0
C507 C 0.27334 0.92398 0.2457 0.0
C508 C 0.29682 0.92756 0.29668 0.0
N509 N 0.27591 0.92135 0.28638 0.0
C510 C 0.33002 0.96152 0.19412 0.0
C511 C 0.29204 0.97738 0.2233 0.0
C512 C 0.29979 0.97968 0.18271 0.0
C513 C 0.319 0.97146 0.16835 0.0
C514 C 0.30353 0.96716 0.24809 0.0
N515 N 0.3229 0.95972 0.23394 0.0
H516 H 0.34375 0.95481 0.18116 0.0
H517 H 0.29619 0.96492 0.27809 0.0
H518 H 0.29595 0.93548 0.2011 0.0
H519 H 0.30463 0.92728 0.32706 0.0
O520 O 0.34839 0.93272 0.21946 0.0
O521 O 0.353 0.92649 0.28462 0.0
O522 O 0.32785 0.9529 0.31978 0.0
C523 C 0.35685 0.92363 0.24589 0.0
H524 H 0.41807 0.95927 0.31656 0.0
H525 H 0.25839 0.92071 0.227 0.0
H526 H 0.277 0.98322 0.23571 0.0
H527 H 0.32497 0.97222 0.13676 0.0
H528 H 0.15692 0.33991 0.04031 0.0
H529 H 0.18953 0.35574 0.01734 0.0
H530 H 0.16307 0.35369 0.89311 0.0
H531 H 0.13093 0.33799 0.91539 0.0
H532 H 0.2248 0.34916 0.94997 0.0
H533 H 0.17006 0.39773 0.92017 0.0
H534 H 0.16058 0.38347 0.95424 0.0
H535 H 0.15794 0.38137 0.89949 0.0
C536 C 0.15805 0.34292 0.00819 0.0
C537 C 0.14133 0.33771 0.97971 0.0
C538 C 0.17667 0.35192 0.99511 0.0
C539 C 0.17854 0.356 0.95358 0.0
C540 C 0.1618 0.35083 0.92535 0.0
H541 H 0.28295 0.38411 0.78235 0.0
H542 H 0.25616 0.37096 0.82817 0.0
C543 C 0.14347 0.34179 0.9382 0.0
C544 C 0.19816 0.36532 0.93865 0.0
H545 H 0.20825 0.39688 0.88778 0.0
C546 C 0.22132 0.35971 0.93703 0.0
C547 C 0.19361 0.37911 0.92202 0.0
C548 C 0.16924 0.38587 0.92431 0.0
C549 C 0.23979 0.36723 0.91722 0.0
C550 C 0.23487 0.38062 0.89826 0.0
C551 C 0.212 0.38657 0.90196 0.0
C552 C 0.25268 0.38825 0.87237 0.0
C553 C 0.26433 0.36066 0.91621 0.0
C554 C 0.2595 0.4024 0.88166 0.0
C555 C 0.27475 0.40998 0.85534 0.0
C556 C 0.28326 0.40361 0.81888 0.0
C557 C 0.27664 0.38936 0.80999 0.0
C558 C 0.26151 0.38177 0.83643 0.0
H559 H 0.26689 0.35287 0.94174 0.0
H560 H 0.26673 0.35478 0.88679 0.0
H561 H 0.27829 0.36908 0.91823 0.0
H562 H 0.25271 0.40767 0.90898 0.0
H563 H 0.27918 0.421 0.86283 0.0
H564 H 0.86545 0.66094 0.03986 0.0
H565 H 0.83296 0.64605 0.01206 0.0
H566 H 0.86355 0.6494 0.8908 0.0
H567 H 0.89568 0.66415 0.918 0.0
H568 H 0.81401 0.65908 0.90059 0.0
H569 H 0.83094 0.6039 0.96116 0.0
H570 H 0.83289 0.61901 0.99577 0.0
H571 H 0.85458 0.61693 0.95578 0.0
C572 C 0.86552 0.65815 1.00751 0.0
C573 C 0.88304 0.66375 0.98108 0.0
C574 C 0.84696 0.64969 0.99167 0.0
C575 C 0.84586 0.64666 0.94934 0.0
C576 C 0.86403 0.65164 0.92351 0.0
H577 H 0.76412 0.61183 0.75473 0.0
H578 H 0.79102 0.6243 0.8012 0.0
C579 C 0.88241 0.66006 0.93916 0.0
C580 C 0.82493 0.63951 0.93058 0.0
H581 H 0.79906 0.60673 0.91485 0.0
C582 C 0.81055 0.64766 0.90408 0.0
C583 C 0.82036 0.62467 0.93548 0.0
C584 C 0.83547 0.6155 0.96343 0.0
C585 C 0.79224 0.64128 0.88121 0.0
C586 C 0.78847 0.62628 0.88432 0.0
C587 C 0.80209 0.61822 0.91234 0.0
C588 C 0.77171 0.6187 0.85649 0.0
C589 C 0.7773 0.65063 0.85344 0.0
C590 C 0.75205 0.61119 0.87212 0.0
C591 C 0.7364 0.60408 0.84545 0.0
C592 C 0.74025 0.60423 0.80257 0.0
C593 C 0.76015 0.61171 0.78727 0.0
C594 C 0.77567 0.61882 0.81389 0.0
H595 H 0.77758 0.66206 0.86346 0.0
H596 H 0.78454 0.65014 0.82171 0.0
H597 H 0.75856 0.64688 0.85267 0.0
H598 H 0.7487 0.61094 0.90493 0.0
H599 H 0.72126 0.59856 0.85854 0.0
H600 H 0.02725 0.66024 0.00922 0.0
H601 H 0.0557 0.64763 0.05275 0.0
H602 H 1.00643 0.64953 0.15424 0.0
H603 H 0.97737 0.66151 0.11057 0.0
H604 H 0.07749 0.65597 0.12342 0.0
H605 H 0.02291 0.60731 0.15337 0.0
H606 H 0.01514 0.62033 0.11448 0.0
H607 H 0.0088 0.62389 0.16775 0.0
C608 C 0.02218 0.65783 0.04055 0.0
C609 C 0.99972 0.66189 0.05594 0.0
C610 C 0.03864 0.6507 0.06559 0.0
C611 C 0.03313 0.64742 0.10667 0.0
C612 C 0.01095 0.65165 0.12243 0.0
H613 H 0.12006 0.5988 0.28576 0.0
H614 H 0.09059 0.61588 0.25798 0.0
C615 C 0.99439 0.6587 0.09735 0.0
C616 C 0.05076 0.63971 0.13285 0.0
H617 H 0.05974 0.60881 0.1879 0.0
C618 C 0.07354 0.64569 0.13765 0.0
C619 C 0.04563 0.62631 0.15167 0.0
C620 C 0.02188 0.61899 0.14635 0.0
C621 C 0.09137 0.63855 0.16005 0.0
C622 C 0.0864 0.62503 0.17798 0.0
C623 C 0.06344 0.61925 0.1744 0.0
C624 C 0.10539 0.61599 0.1965 0.0
C625 C 0.11553 0.64545 0.16401 0.0
C626 C 0.1235 0.61052 0.17128 0.0
C627 C 0.14007 0.60077 0.18689 0.0
C628 C 0.13903 0.59631 0.22818 0.0
C629 C 0.12144 0.60218 0.25397 0.0
C630 C 0.10456 0.61186 0.23809 0.0
H631 H 0.11469 0.65725 0.15869 0.0
H632 H 0.12325 0.64343 0.19491 0.0
H633 H 0.12769 0.64074 0.14071 0.0
H634 H 0.12428 0.61338 0.139 0.0
H635 H 0.15338 0.5964 0.16623 0.0
H636 H 0.02728 0.3734 0.01855 0.0
H637 H 0.99995 0.38621 0.06443 0.0
H638 H 0.00692 0.3524 0.15443 0.0
H639 H 0.03393 0.33943 0.10845 0.0
H640 H 0.95971 0.35942 0.1354 0.0
H641 H 0.01154 0.40841 0.17224 0.0
H642 H 0.00998 0.40464 0.11814 0.0
H643 H 0.0251 0.3923 0.15177 0.0
C644 C 0.02317 0.36877 0.04827 0.0
C645 C 0.03288 0.35543 0.05986 0.0
C646 C 0.00773 0.37616 0.07463 0.0
C647 C 1.00165 0.37036 0.11312 0.0
C648 C 0.01157 0.35715 0.12507 0.0
H649 H 0.90529 0.41815 0.28051 0.0
H650 H 0.93884 0.40302 0.25757 0.0
C651 C 0.02714 0.34979 0.09883 0.0
C652 C 0.98346 0.37753 0.13923 0.0
H653 H 0.96953 0.40949 0.18534 0.0
C654 C 0.96201 0.37028 0.14689 0.0
C655 C 0.98655 0.39164 0.15466 0.0
C656 C 0.00962 0.39967 0.14918 0.0
C657 C 0.94312 0.37705 0.16754 0.0
C658 C 0.94569 0.39146 0.18069 0.0
C659 C 0.96756 0.39846 0.17508 0.0
C660 C 0.92511 0.3999 0.19607 0.0
C661 C 0.92028 0.36887 0.17421 0.0
C662 C 0.90642 0.40312 0.16912 0.0
C663 C 0.88753 0.41176 0.18193 0.0
C664 C 0.88681 0.41733 0.22211 0.0
C665 C 0.90529 0.41389 0.2495 0.0
C666 C 0.92446 0.40532 0.23641 0.0
H667 H 0.92319 0.35705 0.17273 0.0
H668 H 0.91223 0.3716 0.20442 0.0
H669 H 0.9074 0.37183 0.14978 0.0
H670 H 0.90672 0.39921 0.13773 0.0
H671 H 0.87358 0.41421 0.16006 0.0
H672 H 0.12258 0.83771 0.41843 0.0
H673 H 0.15132 0.8551 0.39349 0.0
H674 H 0.16944 0.86633 0.51824 0.0
H675 H 0.14042 0.84857 0.54393 0.0
H676 H 0.15204 0.88493 0.40843 0.0
H677 H 0.23465 0.85777 0.46278 0.0
H678 H 0.20652 0.84847 0.45978 0.0
H679 H 0.21169 0.86124 0.50013 0.0
C680 C 0.13262 0.84381 0.44084 0.0
C681 C 0.12918 0.84172 0.48329 0.0
C682 C 0.14907 0.8538 0.42639 0.0
C683 C 0.16266 0.86196 0.45389 0.0
C684 C 0.15933 0.86001 0.49644 0.0
H685 H 0.2731 0.92271 0.37011 0.0
H686 H 0.24596 0.90937 0.41484 0.0
C687 C 0.14269 0.84993 0.51108 0.0
C688 C 0.1799 0.87253 0.43691 0.0
H689 H 0.23928 0.87823 0.42099 0.0
C690 C 0.17112 0.88359 0.41166 0.0
C691 C 0.20478 0.87078 0.44115 0.0
C692 C 0.21514 0.8589 0.46719 0.0
C693 C 0.18649 0.89259 0.38942 0.0
C694 C 0.21133 0.89039 0.39205 0.0
C695 C 0.2202 0.87983 0.41887 0.0
C696 C 0.22816 0.89835 0.36513 0.0
C697 C 0.17601 0.90424 0.36264 0.0
C698 C 0.22741 0.89641 0.32235 0.0
C699 C 0.24304 0.9039 0.29664 0.0
C700 C 0.25985 0.91352 0.3131 0.0
C701 C 0.26066 0.91532 0.35616 0.0
C702 C 0.24506 0.90774 0.38189 0.0
H703 H 0.1576 0.90702 0.37223 0.0
H704 H 0.18709 0.91411 0.36355 0.0
H705 H 0.17536 0.90039 0.33034 0.0
H706 H 0.21477 0.88901 0.30881 0.0
H707 H 0.24208 0.90199 0.26388 0.0
H708 H 0.86205 0.16605 0.53577 0.0
H709 H 0.83116 0.14941 0.51052 0.0
H710 H 0.86205 0.15102 0.38921 0.0
H711 H 0.8925 0.16749 0.41376 0.0
H712 H 0.79842 0.15526 0.43922 0.0
H713 H 0.85538 0.10715 0.41685 0.0
H714 H 0.86327 0.12165 0.45127 0.0
H715 H 0.86775 0.12354 0.3968 0.0
C716 C 0.8623 0.16272 0.50386 0.0
C717 C 0.87971 0.16807 0.47679 0.0
C718 C 0.84465 0.15328 0.48946 0.0
C719 C 0.8445 0.14888 0.44808 0.0
C720 C 0.86201 0.15412 0.42134 0.0
H721 H 0.76995 0.1017 0.26488 0.0
H722 H 0.79698 0.1154 0.30839 0.0
C723 C 0.87936 0.1636 0.43547 0.0
C724 C 0.82573 0.13927 0.43155 0.0
H725 H 0.81833 0.1074 0.38095 0.0
C726 C 0.80256 0.14467 0.42716 0.0
C727 C 0.8313 0.12552 0.41561 0.0
C728 C 0.85573 0.11903 0.42062 0.0
C729 C 0.78511 0.13699 0.40525 0.0
C730 C 0.79093 0.12343 0.388 0.0
C731 C 0.81388 0.11781 0.39393 0.0
C732 C 0.774 0.11524 0.3618 0.0
C733 C 0.76102 0.1438 0.3989 0.0
C734 C 0.75206 0.11048 0.3773 0.0
C735 C 0.73635 0.10275 0.35224 0.0
C736 C 0.74232 0.09948 0.31116 0.0
C737 C 0.76445 0.10417 0.29597 0.0
C738 C 0.78008 0.11193 0.32099 0.0
H739 H 0.76122 0.15552 0.40573 0.0
H740 H 0.75481 0.14224 0.36681 0.0
H741 H 0.74795 0.13865 0.41981 0.0
H742 H 0.74713 0.11266 0.40889 0.0
H743 H 0.71948 0.09945 0.36512 0.0
H744 H 0.01568 0.14846 0.51062 0.0
H745 H 0.04339 0.13637 0.55683 0.0
H746 H 0.99947 0.14774 0.66059 0.0
H747 H 0.97118 0.15953 0.61441 0.0
H748 H 0.06855 0.14905 0.62285 0.0
H749 H 0.01068 0.10424 0.67651 0.0
H750 H 1.00381 0.11475 0.63133 0.0
H751 H 0.99885 0.12213 0.68163 0.0
C752 C 0.01159 0.1482 0.54312 0.0
C753 C 0.99102 0.15496 0.55856 0.0
C754 C 0.02761 0.14137 0.5696 0.0
C755 C 0.02344 0.14103 0.61215 0.0
C756 C 1.00291 0.14768 0.62781 0.0
H757 H 0.11487 0.09535 0.79249 0.0
H758 H 0.08402 0.11173 0.76561 0.0
C759 C 0.98685 0.15456 0.60131 0.0
C760 C 0.04107 0.13406 0.63982 0.0
H761 H 0.04971 0.10499 0.70257 0.0
C762 C 0.06436 0.13949 0.64058 0.0
C763 C 0.03555 0.12168 0.66335 0.0
C764 C 0.01093 0.11524 0.66315 0.0
C765 C 0.08241 0.13265 0.66312 0.0
C766 C 0.07719 0.11987 0.68498 0.0
C767 C 0.05368 0.1148 0.68586 0.0
C768 C 0.09637 0.11073 0.70259 0.0
C769 C 0.10708 0.13902 0.66273 0.0
C770 C 0.1134 0.10474 0.67616 0.0
C771 C 0.13079 0.09544 0.69128 0.0
C772 C 0.13162 0.09186 0.73328 0.0
C773 C 0.1148 0.09802 0.76006 0.0
C774 C 0.09714 0.10731 0.74473 0.0
H775 H 0.10657 0.15077 0.65637 0.0
H776 H 0.11629 0.13721 0.69248 0.0
H777 H 0.11768 0.13384 0.63802 0.0
H778 H 0.11292 0.10698 0.64347 0.0
H779 H 0.14343 0.09087 0.66974 0.0
H780 H 0.86321 0.91362 0.67723 0.0
H781 H 0.89378 0.89726 0.65154 0.0
H782 H 0.92779 0.89745 0.77032 0.0
H783 H 0.89686 0.91386 0.79657 0.0
H784 H 0.95777 0.90484 0.69878 0.0
H785 H 0.90784 0.85398 0.67686 0.0
H786 H 0.89298 0.86972 0.65757 0.0
H787 H 0.89816 0.86792 0.71186 0.0
C788 C 0.87691 0.90996 0.6982 0.0
C789 C 0.87763 0.91498 0.73895 0.0
C790 C 0.89433 0.90057 0.68347 0.0
C791 C 0.91295 0.89607 0.70907 0.0
C792 C 0.91344 0.90074 0.75018 0.0
H793 H 0.02146 0.83648 0.61448 0.0
H794 H 0.99387 0.84882 0.66105 0.0
C795 C 0.89573 0.91002 0.76518 0.0
C796 C 0.93275 0.88751 0.69133 0.0
H797 H 0.94457 0.85623 0.64011 0.0
C798 C 0.95504 0.89411 0.68656 0.0
C799 C 0.92915 0.87352 0.67549 0.0
C800 C 0.9058 0.86578 0.68095 0.0
C801 C 0.97346 0.88734 0.66459 0.0
C802 C 0.96943 0.87367 0.64689 0.0
C803 C 0.94755 0.86677 0.65343 0.0
C804 C 0.98725 0.86664 0.61983 0.0
C805 C 0.99698 0.89494 0.65981 0.0
C806 C 0.99265 0.87256 0.58121 0.0
C807 C 0.00831 0.86551 0.55448 0.0
C808 C 0.01901 0.85244 0.56598 0.0
C809 C 0.01384 0.84665 0.605 0.0
C810 C 0.99797 0.85363 0.63153 0.0
H811 H 0.99915 0.90368 0.68282 0.0
H812 H 0.01199 0.88724 0.66298 0.0
H813 H 0.99798 0.89979 0.62866 0.0
H814 H 0.98433 0.88251 0.57139 0.0
H815 H 0.01199 0.87023 0.52471 0.0
H816 H 0.79352 0.41089 0.35329 0.0
H817 H 0.76959 0.39653 0.40078 0.0
H818 H 0.74249 0.37185 0.29883 0.0
H819 H 0.76693 0.38587 0.25133 0.0
H820 H 0.7211 0.39469 0.40178 0.0
H821 H 0.75934 0.34042 0.37997 0.0
H822 H 0.77439 0.35652 0.36302 0.0
H823 H 0.75139 0.34858 0.33193 0.0
C824 C 0.78302 0.40215 0.34102 0.0
C825 C 0.78229 0.39948 0.29838 0.0
C826 C 0.76917 0.39402 0.36825 0.0
C827 C 0.75446 0.38298 0.35351 0.0
C828 C 0.75407 0.3801 0.3111 0.0
H829 H 0.63539 0.33311 0.40888 0.0
H830 H 0.66953 0.34652 0.38386 0.0
C831 C 0.76788 0.38822 0.28388 0.0
C832 C 0.73816 0.37514 0.38175 0.0
H833 H 0.71955 0.34138 0.40779 0.0
C834 C 0.72106 0.38304 0.40385 0.0
C835 C 0.73822 0.35995 0.38469 0.0
C836 C 0.75699 0.35089 0.36397 0.0
C837 C 0.70308 0.37611 0.42651 0.0
C838 C 0.70233 0.36092 0.42731 0.0
C839 C 0.72014 0.35305 0.40704 0.0
C840 C 0.68159 0.35301 0.44415 0.0
C841 C 0.68418 0.38502 0.44745 0.0
C842 C 0.67697 0.35222 0.48661 0.0
C843 C 0.65726 0.34445 0.50128 0.0
C844 C 0.64195 0.33744 0.47359 0.0
C845 C 0.64671 0.33839 0.43118 0.0
C846 C 0.66631 0.34603 0.41671 0.0
H847 H 0.68627 0.3967 0.44123 0.0
H848 H 0.66626 0.38158 0.43701 0.0
H849 H 0.68509 0.38327 0.48118 0.0
H850 H 0.68869 0.35747 0.50831 0.0
H851 H 0.6541 0.34386 0.5341 0.0
H852 H 0.24399 0.58557 0.35797 0.0
H853 H 0.27083 0.59962 0.4013 0.0
H854 H 0.29443 0.62332 0.29489 0.0
H855 H 0.26707 0.60972 0.25158 0.0
H856 H 0.31979 0.60278 0.3989 0.0
H857 H 0.27553 0.65529 0.37385 0.0
H858 H 0.26182 0.63843 0.3599 0.0
H859 H 0.28355 0.64659 0.32657 0.0
C860 C 0.25463 0.59389 0.34376 0.0
C861 C 0.25308 0.59658 0.30118 0.0
C862 C 0.27013 0.60184 0.36861 0.0
C863 C 0.28433 0.61271 0.35151 0.0
C864 C 0.28327 0.6152 0.30895 0.0
H865 H 0.39516 0.67028 0.41071 0.0
H866 H 0.36617 0.65355 0.38259 0.0
C867 C 0.26777 0.60728 0.28409 0.0
C868 C 0.30043 0.6214 0.37794 0.0
H869 H 0.31464 0.65604 0.4028 0.0
C870 C 0.31848 0.61441 0.40026 0.0
C871 C 0.29855 0.63656 0.38011 0.0
C872 C 0.27867 0.64466 0.35918 0.0
C873 C 0.33542 0.62226 0.42284 0.0
C874 C 0.33417 0.63744 0.42323 0.0
C875 C 0.3156 0.64438 0.40228 0.0
C876 C 0.3531 0.64647 0.44173 0.0
C877 C 0.35518 0.61439 0.44466 0.0
C878 C 0.35566 0.64787 0.48456 0.0
C879 C 0.37237 0.65753 0.50098 0.0
C880 C 0.38662 0.66591 0.47469 0.0
C881 C 0.38443 0.66405 0.43191 0.0
C882 C 0.36784 0.65448 0.41568 0.0
H883 H 0.35477 0.60263 0.43865 0.0
H884 H 0.3727 0.6187 0.43479 0.0
H885 H 0.35358 0.61617 0.47831 0.0
H886 H 0.34427 0.64184 0.50518 0.0
H887 H 0.37355 0.6588 0.53403 0.0
H888 H 0.4894 0.67312 0.60912 0.0
H889 H 0.51667 0.65869 0.65074 0.0
H890 H 0.54214 0.63749 0.54136 0.0
H891 H 0.51469 0.65161 0.49953 0.0
H892 H 0.52052 0.6277 0.65679 0.0
H893 H 0.60307 0.653 0.59779 0.0
H894 H 0.57411 0.66115 0.59177 0.0
H895 H 0.5833 0.64681 0.55822 0.0
C896 C 0.5006 0.66531 0.59381 0.0
C897 C 0.4998 0.66362 0.55073 0.0
C898 C 0.51628 0.65711 0.61773 0.0
C899 C 0.53164 0.64716 0.59911 0.0
C900 C 0.53074 0.64531 0.5563 0.0
H901 H 0.63567 0.58409 0.65058 0.0
H902 H 0.60662 0.6012 0.62467 0.0
C903 C 0.51504 0.65345 0.53237 0.0
C904 C 0.54856 0.63858 0.62419 0.0
H905 H 0.60767 0.63109 0.63507 0.0
C906 C 0.5396 0.62854 0.65255 0.0
C907 C 0.57343 0.6398 0.61878 0.0
C908 C 0.58413 0.65086 0.59029 0.0
C909 C 0.55485 0.61913 0.67395 0.0
C910 C 0.57968 0.61997 0.66722 0.0
C911 C 0.58863 0.63042 0.64013 0.0
C912 C 0.59658 0.60928 0.68459 0.0
C913 C 0.54425 0.60791 0.70201 0.0
C914 C 0.60061 0.60805 0.72715 0.0
C915 C 0.61737 0.59815 0.7423 0.0
C916 C 0.63038 0.58942 0.71501 0.0
C917 C 0.62607 0.59066 0.67255 0.0
C918 C 0.60943 0.60046 0.65758 0.0
H919 H 0.52463 0.60715 0.6986 0.0
H920 H 0.55218 0.59719 0.69569 0.0
H921 H 0.54827 0.61074 0.73442 0.0
H922 H 0.59111 0.6149 0.74855 0.0
H923 H 0.62036 0.59747 0.77514 0.0
H924 H 0.55192 0.35302 0.61317 0.0
H925 H 0.52429 0.36531 0.65989 0.0
H926 H 0.4782 0.375 0.55772 0.0
H927 H 0.50521 0.36254 0.51118 0.0
H928 H 0.50639 0.3945 0.65806 0.0
H929 H 0.43436 0.35436 0.64091 0.0
H930 H 0.46475 0.35069 0.62618 0.0
H931 H 0.44559 0.3608 0.59261 0.0
C932 C 0.53587 0.35771 0.60062 0.0
C933 C 0.53084 0.3567 0.55825 0.0
C934 C 0.52015 0.3648 0.62739 0.0
C935 C 0.49899 0.37087 0.6124 0.0
C936 C 0.49423 0.37019 0.5701 0.0
H937 H 0.38006 0.42143 0.66694 0.0
H938 H 0.41213 0.40613 0.64242 0.0
C939 C 0.5099 0.36318 0.54338 0.0
C940 C 0.48167 0.37794 0.64051 0.0
H941 H 0.4231 0.37729 0.66847 0.0
C942 C 0.48829 0.39061 0.66107 0.0
C943 C 0.45812 0.37279 0.64467 0.0
C944 C 0.45029 0.35883 0.62527 0.0
C945 C 0.47152 0.39877 0.68337 0.0
C946 C 0.44765 0.39401 0.68551 0.0
C947 C 0.44139 0.38094 0.66677 0.0
C948 C 0.42828 0.40323 0.70216 0.0
C949 C 0.47905 0.41282 0.70248 0.0
C950 C 0.4265 0.40664 0.74423 0.0
C951 C 0.4079 0.41546 0.75861 0.0
C952 C 0.39094 0.421 0.73104 0.0
C953 C 0.39281 0.41742 0.68911 0.0
C954 C 0.41116 0.40863 0.67494 0.0
H955 H 0.4976 0.41575 0.69423 0.0
H956 H 0.46698 0.42162 0.69253 0.0
H957 H 0.47781 0.41198 0.73646 0.0
H958 H 0.43939 0.40245 0.76587 0.0
H959 H 0.40693 0.41802 0.79106 0.0
H960 H 0.61193 0.84574 0.9184 0.0
H961 H 0.641 0.86299 0.89251 0.0
H962 H 0.67161 0.86652 0.0136 0.0
H963 H 0.64223 0.84916 0.04003 0.0
H964 H 0.65278 0.89259 0.92197 0.0
H965 H 0.72681 0.85283 0.93306 0.0
H966 H 0.696 0.84735 0.93301 0.0
H967 H 0.70843 0.85574 0.97771 0.0
C968 C 0.62463 0.85031 0.93974 0.0
C969 C 0.62486 0.84606 0.98125 0.0
C970 C 0.64122 0.86018 0.92486 0.0
C971 C 0.65858 0.86591 0.951 0.0
C972 C 0.65842 0.86212 0.99287 0.0
H973 H 0.78461 0.91298 0.86604 0.0
H974 H 0.75553 0.90091 0.90975 0.0
C975 C 0.64157 0.85229 1.00797 0.0
C976 C 0.67735 0.87528 0.93336 0.0
H977 H 0.73521 0.87489 0.90118 0.0
C978 C 0.6709 0.88882 0.91785 0.0
C979 C 0.70095 0.87033 0.92807 0.0
C980 C 0.70862 0.85575 0.94358 0.0
C981 C 0.68732 0.89745 0.89653 0.0
C982 C 0.71065 0.89222 0.8895 0.0
C983 C 0.71732 0.87888 0.90634 0.0
C984 C 0.72806 0.90007 0.86327 0.0
C985 C 0.67947 0.9121 0.88181 0.0
C986 C 0.7225 0.90351 0.82234 0.0
C987 C 0.73901 0.91058 0.79729 0.0
C988 C 0.76169 0.91424 0.81236 0.0
C989 C 0.76729 0.91061 0.85333 0.0
C990 C 0.75069 0.90359 0.87842 0.0
H991 H 0.6646 0.91635 0.90081 0.0
H992 H 0.69435 0.91994 0.88262 0.0
H993 H 0.67303 0.91123 0.84966 0.0
H994 H 0.7054 0.90059 0.80953 0.0
H995 H 0.73386 0.91323 0.76617 0.0
H996 H 0.36351 0.16727 0.03451 0.0
H997 H 0.33269 0.15066 0.00878 0.0
H998 H 0.36204 0.15393 0.88663 0.0
H999 H 0.39237 0.17038 0.91157 0.0
H1000 H 0.29907 0.15693 0.93663 0.0
H1001 H 0.35758 0.10949 0.91367 0.0
H1002 H 0.36464 0.12381 0.94924 0.0
H1003 H 0.36949 0.12622 0.89505 0.0
C1004 C 0.36339 0.16436 1.00226 0.0
C1005 C 0.38037 0.17014 0.97511 0.0
C1006 C 0.34579 0.15492 0.98762 0.0
C1007 C 0.34528 0.15098 0.94587 0.0
C1008 C 0.36228 0.1567 0.919 0.0
H1009 H 0.2727 0.10312 0.76162 0.0
H1010 H 0.2992 0.11714 0.80535 0.0
C1011 C 0.37957 0.16617 0.93338 0.0
C1012 C 0.32681 0.14121 0.92918 0.0
H1013 H 0.3205 0.10936 0.87806 0.0
C1014 C 0.30353 0.1464 0.92452 0.0
C1015 C 0.33283 0.12755 0.91311 0.0
C1016 C 0.35744 0.12134 0.91824 0.0
C1017 C 0.2864 0.13859 0.90226 0.0
C1018 C 0.29266 0.12512 0.88493 0.0
C1019 C 0.31572 0.11971 0.89111 0.0
C1020 C 0.27604 0.11677 0.85852 0.0
C1021 C 0.26216 0.14519 0.89564 0.0
C1022 C 0.25419 0.11181 0.87381 0.0
C1023 C 0.2388 0.1039 0.84865 0.0
C1024 C 0.24502 0.10064 0.80767 0.0
C1025 C 0.26705 0.10556 0.79264 0.0
C1026 C 0.28236 0.1135 0.81778 0.0
H1027 H 0.26206 0.1569 0.90245 0.0
H1028 H 0.2561 0.14357 0.86348 0.0
H1029 H 0.24915 0.13993 0.91643 0.0
H1030 H 0.24909 0.11395 0.90535 0.0
H1031 H 0.22198 0.10044 0.86138 0.0
H1032 H 0.61042 0.09388 0.2949 0.0
H1033 H 0.57734 0.10841 0.26716 0.0
H1034 H 0.60639 0.10394 0.14507 0.0
H1035 H 0.63904 0.0896 0.17209 0.0
H1036 H 0.57771 0.13485 0.21269 0.0
H1037 H 0.5374 0.08679 0.13992 0.0
H1038 H 0.55863 0.08557 0.18147 0.0
H1039 H 0.56864 0.08874 0.12972 0.0
C1040 C 0.60987 0.09622 0.26228 0.0
C1041 C 0.62719 0.09049 0.23564 0.0
C1042 C 0.59097 0.10445 0.24648 0.0
C1043 C 0.58923 0.10699 0.20396 0.0
C1044 C 0.60718 0.10189 0.17786 0.0
H1045 H 0.51357 0.14633 0.01095 0.0
H1046 H 0.53887 0.13303 0.05824 0.0
C1047 C 0.62588 0.09371 0.19345 0.0
C1048 C 0.56846 0.11449 0.18571 0.0
H1049 H 0.52481 0.10969 0.11403 0.0
C1050 C 0.56576 0.12934 0.1918 0.0
C1051 C 0.55292 0.10724 0.15851 0.0
C1052 C 0.55434 0.09117 0.15223 0.0
C1053 C 0.54881 0.13728 0.1694 0.0
C1054 C 0.53417 0.13012 0.14054 0.0
C1055 C 0.53615 0.11517 0.136 0.0
C1056 C 0.51809 0.13805 0.11233 0.0
C1057 C 0.54749 0.15337 0.17503 0.0
C1058 C 0.4977 0.1451 0.12693 0.0
C1059 C 0.48287 0.15262 0.09976 0.0
C1060 C 0.48819 0.15329 0.05737 0.0
C1061 C 0.50854 0.14598 0.04302 0.0
C1062 C 0.52322 0.13842 0.07014 0.0
H1063 H 0.56212 0.15751 0.19468 0.0
H1064 H 0.54824 0.15887 0.14473 0.0
H1065 H 0.53029 0.15623 0.18969 0.0
H1066 H 0.49322 0.14474 0.15932 0.0
H1067 H 0.46727 0.15787 0.11213 0.0
H1068 H 0.53273 0.84736 0.10914 0.0
H1069 H 0.50341 0.85902 0.15325 0.0
H1070 H 0.4526 0.85842 0.05409 0.0
H1071 H 0.48135 0.84616 0.01028 0.0
H1072 H 0.48183 0.88463 0.14514 0.0
H1073 H 0.41318 0.84205 0.14629 0.0
H1074 H 0.44294 0.83895 0.12737 0.0
H1075 H 0.421 0.8474 0.09504 0.0
C1076 C 0.51523 0.84944 0.09672 0.0
C1077 C 0.50952 0.84563 0.05593 0.0
C1078 C 0.49848 0.85623 0.12206 0.0
C1079 C 0.47559 0.85936 0.10737 0.0
C1080 C 0.46991 0.85579 0.06657 0.0
H1081 H 0.35736 0.91166 0.16994 0.0
H1082 H 0.38631 0.89469 0.14191 0.0
C1083 C 0.48659 0.84893 0.04126 0.0
C1084 C 0.45801 0.86693 0.13402 0.0
H1085 H 0.40064 0.86548 0.16887 0.0
C1086 C 0.46421 0.88033 0.15088 0.0
C1087 C 0.43503 0.8613 0.1418 0.0
C1088 C 0.42771 0.84657 0.12703 0.0
C1089 C 0.44774 0.88853 0.17351 0.0
C1090 C 0.42449 0.88315 0.17976 0.0
C1091 C 0.41848 0.86957 0.16405 0.0
C1092 C 0.40559 0.89209 0.19892 0.0
C1093 C 0.45494 0.90319 0.18904 0.0
C1094 C 0.40636 0.89591 0.24075 0.0
C1095 C 0.38958 0.90555 0.25708 0.0
C1096 C 0.372 0.91159 0.23164 0.0
C1097 C 0.37074 0.90722 0.1903 0.0
C1098 C 0.38726 0.89752 0.1742 0.0
H1099 H 0.4726 0.90656 0.1771 0.0
H1100 H 0.44152 0.91138 0.18002 0.0
H1101 H 0.45578 0.90299 0.22313 0.0
H1102 H 0.42028 0.89173 0.26043 0.0
H1103 H 0.39108 0.9088 0.28896 0.0
H1104 H 0.96073 0.25455 0.40446 0.0
H1105 H 0.97684 0.26966 0.34928 0.0
H1106 H 0.02252 0.23488 0.31091 0.0
H1107 H 0.00683 0.21979 0.36623 0.0
H1108 H 0.02606 0.27765 0.32651 0.0
H1109 H 0.97959 0.24447 0.20927 0.0
H1110 H 0.97197 0.24389 0.26321 0.0
H1111 H 0.99795 0.23465 0.24479 0.0
C1112 C 0.97458 0.25021 0.38487 0.0
C1113 C 0.98231 0.2359 0.38951 0.0
C1114 C 0.98367 0.25884 0.35324 0.0
C1115 C 1.00057 0.25329 0.32569 0.0
C1116 C 0.00919 0.23928 0.33148 0.0
H1117 H 0.08216 0.29456 0.13146 0.0
H1118 H 0.06933 0.28278 0.19507 0.0
C1119 C 1.00016 0.23066 0.36304 0.0
C1120 C 0.00822 0.26181 0.28947 0.0
H1121 H 1.00567 0.26244 0.18457 0.0
C1122 C 0.02161 0.27437 0.29545 0.0
C1123 C 1.0021 0.25757 0.24907 0.0
C1124 C 0.98694 0.24448 0.24098 0.0
C1125 C 0.02944 0.28267 0.26188 0.0
C1126 C 0.0238 0.27821 0.22144 0.0
C1127 C 0.01008 0.26579 0.2156 0.0
C1128 C 0.03178 0.28628 0.18453 0.0
C1129 C 0.04338 0.29623 0.2699 0.0
C1130 C 0.01492 0.29208 0.15738 0.0
C1131 C 0.02216 0.29877 0.12097 0.0
C1132 C 0.04644 0.29969 0.11077 0.0
C1133 C 0.06333 0.29407 0.13839 0.0
C1134 C 0.05605 0.2874 0.17489 0.0
H1135 H 0.04146 0.29992 0.30224 0.0
H1136 H 0.06251 0.29414 0.26398 0.0
H1137 H 0.03755 0.30502 0.24904 0.0
H1138 H 0.9961 0.29128 0.16417 0.0
H1139 H 0.00867 0.303 0.1005 0.0
H1140 H 0.06462 0.76976 0.35843 0.0
H1141 H 0.0455 0.7559 0.30374 0.0
H1142 H 0.9803 0.75498 0.37377 0.0
H1143 H 0.99975 0.76853 0.42935 0.0
H1144 H 0.98856 0.72936 0.33133 0.0
H1145 H 0.99913 0.77645 0.22831 0.0
H1146 H 0.02684 0.77007 0.24866 0.0
H1147 H 1.00473 0.77741 0.28283 0.0
C1148 C 0.04632 0.76638 0.36239 0.0
C1149 C 0.03353 0.77031 0.39779 0.0
C1150 C 0.03538 0.75854 0.33109 0.0
C1151 C 0.01129 0.75474 0.33418 0.0
C1152 C 0.99887 0.75789 0.37064 0.0
H1153 H 0.92311 0.74 0.12084 0.0
H1154 H 0.94075 0.74842 0.18493 0.0
C1155 C 0.00995 0.7656 0.40234 0.0
C1156 C 0.9988 0.74843 0.29823 0.0
H1157 H 0.98564 0.75489 0.19744 0.0
C1158 C 0.98782 0.73493 0.30206 0.0
C1159 C 0.99749 0.75584 0.26024 0.0
C1160 C 0.00746 0.7708 0.25476 0.0
C1161 C 0.9759 0.72854 0.26866 0.0
C1162 C 0.9754 0.73574 0.23026 0.0
C1163 C 0.98617 0.7493 0.22672 0.0
C1164 C 0.96328 0.72975 0.19339 0.0
C1165 C 0.96356 0.71432 0.27512 0.0
C1166 C 0.96987 0.71635 0.17681 0.0
C1167 C 0.95955 0.71141 0.14022 0.0
C1168 C 0.9428 0.71992 0.11919 0.0
C1169 C 0.93607 0.73322 0.13612 0.0
C1170 C 0.94613 0.73805 0.17283 0.0
H1171 H 0.95977 0.71234 0.30819 0.0
H1172 H 0.94657 0.71384 0.25779 0.0
H1173 H 0.97525 0.70552 0.26399 0.0
H1174 H 0.98348 0.7099 0.19147 0.0
H1175 H 0.96524 0.70116 0.12775 0.0
H1176 H 0.18805 0.516 0.35652 0.0
H1177 H 0.20512 0.50788 0.42127 0.0
H1178 H 0.2231 0.55163 0.45246 0.0
H1179 H 0.20649 0.55988 0.38678 0.0
H1180 H 0.2595 0.53373 0.46781 0.0
H1181 H 0.17803 0.51053 0.53542 0.0
H1182 H 0.18362 0.50315 0.48541 0.0
H1183 H 0.17733 0.52208 0.4908 0.0
C1184 C 0.19546 0.52395 0.37718 0.0
C1185 C 0.19575 0.53861 0.36651 0.0
C1186 C 0.20506 0.51929 0.41445 0.0
C1187 C 0.21488 0.52917 0.44228 0.0
C1188 C 0.21538 0.54382 0.43167 0.0
H1189 H 0.25736 0.49401 0.68301 0.0
H1190 H 0.23847 0.50942 0.63121 0.0
C1191 C 0.20588 0.54852 0.39414 0.0
C1192 C 0.22565 0.52396 0.48132 0.0
H1193 H 0.2152 0.50186 0.56327 0.0
C1194 C 0.24971 0.52695 0.48904 0.0
C1195 C 0.21279 0.51538 0.50964 0.0
C1196 C 0.18645 0.51274 0.50514 0.0
C1197 C 0.26158 0.52089 0.52288 0.0
C1198 C 0.24923 0.51129 0.54914 0.0
C1199 C 0.22482 0.50901 0.54283 0.0
C1200 C 0.26157 0.50275 0.58143 0.0
C1201 C 0.28731 0.52478 0.52991 0.0
C1202 C 0.28075 0.49383 0.57074 0.0
C1203 C 0.2917 0.48517 0.60025 0.0
C1204 C 0.28348 0.48498 0.64117 0.0
C1205 C 0.26429 0.49397 0.65193 0.0
C1206 C 0.2534 0.50273 0.6223 0.0
H1207 H 0.29137 0.53565 0.51756 0.0
H1208 H 0.29191 0.52455 0.5631 0.0
H1209 H 0.29883 0.51696 0.51348 0.0
H1210 H 0.28704 0.49335 0.53928 0.0
H1211 H 0.30668 0.47861 0.59086 0.0
H1212 H 0.71655 0.50507 0.64785 0.0
H1213 H 0.73401 0.49021 0.59338 0.0
H1214 H 0.78101 0.52496 0.56034 0.0
H1215 H 0.7638 0.53985 0.61499 0.0
H1216 H 0.73298 0.49978 0.50767 0.0
H1217 H 0.82459 0.48828 0.5634 0.0
H1218 H 0.80058 0.49312 0.59776 0.0
H1219 H 0.81461 0.50665 0.56677 0.0
C1220 C 0.73102 0.50941 0.6297 0.0
C1221 C 0.7388 0.52363 0.63567 0.0
C1222 C 0.74089 0.50094 0.59848 0.0
C1223 C 0.7589 0.50646 0.57308 0.0
C1224 C 0.76734 0.52044 0.57996 0.0
H1225 H 0.82775 0.47373 0.35059 0.0
H1226 H 0.81718 0.48779 0.4119 0.0
C1227 C 0.75738 0.52896 0.61097 0.0
C1228 C 0.76717 0.49813 0.53696 0.0
H1229 H 0.81537 0.48104 0.49544 0.0
C1230 C 0.75096 0.49562 0.50504 0.0
C1231 C 0.79073 0.49295 0.53343 0.0
C1232 C 0.80868 0.49526 0.5672 0.0
C1233 C 0.75766 0.48808 0.4695 0.0
C1234 C 0.78107 0.48255 0.4663 0.0
C1235 C 0.79742 0.48523 0.49803 0.0
C1236 C 0.78856 0.47367 0.43063 0.0
C1237 C 0.7397 0.48638 0.43537 0.0
C1238 C 0.77644 0.46088 0.42152 0.0
C1239 C 0.78227 0.45294 0.38651 0.0
C1240 C 0.8006 0.4575 0.36011 0.0
C1241 C 0.81347 0.46998 0.37022 0.0
C1242 C 0.80747 0.47801 0.40522 0.0
H1243 H 0.72556 0.49472 0.4371 0.0
H1244 H 0.74833 0.48703 0.40469 0.0
H1245 H 0.73101 0.47571 0.43817 0.0
H1246 H 0.76223 0.45712 0.44129 0.0
H1247 H 0.77226 0.44325 0.38005 0.0
H1248 H 0.01038 0.73055 0.91329 0.0
H1249 H 0.02969 0.74558 0.86099 0.0
H1250 H 0.96154 0.76344 0.82772 0.0
H1251 H 0.94234 0.74891 0.88057 0.0
H1252 H 0.02173 0.74433 0.77852 0.0
H1253 H 1.00168 0.7993 0.83341 0.0
H1254 H 0.99848 0.78366 0.86588 0.0
H1255 H 0.97535 0.78849 0.83015 0.0
C1256 C 0.99961 0.73797 0.89555 0.0
C1257 C 0.9748 0.73851 0.90108 0.0
C1258 C 0.01065 0.74647 0.86548 0.0
C1259 C 0.99713 0.75579 0.84072 0.0
C1260 C 0.97246 0.7566 0.84696 0.0
H1261 H 1.00532 0.80099 0.61289 0.0
H1262 H 0.99519 0.78972 0.67855 0.0
C1263 C 0.96145 0.74813 0.87691 0.0
C1264 C 0.00827 0.76378 0.80606 0.0
H1265 H 0.0117 0.79703 0.76156 0.0
C1266 C 0.01993 0.75589 0.77517 0.0
C1267 C 1.00592 0.77887 0.80165 0.0
C1268 C 0.99489 0.78808 0.83477 0.0
C1269 C 0.02824 0.76258 0.73914 0.0
C1270 C 0.02498 0.77756 0.73404 0.0
C1271 C 0.01404 0.78553 0.76547 0.0
C1272 C 0.03158 0.78498 0.69528 0.0
C1273 C 0.03948 0.75348 0.70595 0.0
C1274 C 0.05547 0.78629 0.68326 0.0
C1275 C 0.06136 0.79278 0.64572 0.0
C1276 C 0.04343 0.79802 0.61947 0.0
C1277 C 0.01956 0.79697 0.63215 0.0
C1278 C 0.01373 0.79057 0.66974 0.0
H1279 H 0.03714 0.74179 0.71174 0.0
H1280 H 0.03174 0.75613 0.67546 0.0
H1281 H 0.05883 0.75579 0.70456 0.0
H1282 H 0.06954 0.78221 0.7028 0.0
H1283 H 0.07992 0.79349 0.63705 0.0
H1284 H 0.01829 0.29198 0.85038 0.0
H1285 H 1.00136 0.27663 0.79749 0.0
H1286 H 0.02084 0.23899 0.86748 0.0
H1287 H 0.03954 0.25428 0.91917 0.0
H1288 H 0.03327 0.23527 0.79213 0.0
H1289 H 0.94092 0.25515 0.78914 0.0
H1290 H 0.96105 0.26981 0.78131 0.0
H1291 H 0.96141 0.2601 0.82936 0.0
C1292 C 0.01908 0.28044 0.85464 0.0
C1293 C 0.03053 0.27443 0.8891 0.0
C1294 C 0.00893 0.27165 0.82459 0.0
C1295 C 0.00935 0.25662 0.82871 0.0
C1296 C 0.02011 0.25056 0.86368 0.0
H1297 H 0.93576 0.20584 0.63931 0.0
H1298 H 0.94684 0.21649 0.70551 0.0
C1299 C 0.03062 0.25936 0.89349 0.0
C1300 C 1.00047 0.24728 0.79485 0.0
H1301 H 0.95449 0.24307 0.72735 0.0
C1302 C 0.01587 0.23684 0.77844 0.0
C1303 C 0.97759 0.24902 0.77731 0.0
C1304 C 0.95924 0.25902 0.79557 0.0
C1305 C 0.00951 0.22862 0.74395 0.0
C1306 C 0.98748 0.23128 0.72424 0.0
C1307 C 0.97158 0.2412 0.74185 0.0
C1308 C 0.98102 0.22435 0.68456 0.0
C1309 C 0.02651 0.21714 0.7292 0.0
C1310 C 0.99636 0.22534 0.65056 0.0
C1311 C 0.99025 0.21907 0.613 0.0
C1312 C 0.96837 0.21197 0.60827 0.0
C1313 C 0.95277 0.21121 0.64203 0.0
C1314 C 0.95908 0.2173 0.67987 0.0
H1315 H 0.03753 0.21296 0.75492 0.0
H1316 H 0.01694 0.20799 0.71489 0.0
H1317 H 0.03878 0.22185 0.7061 0.0
H1318 H 0.01299 0.23114 0.65284 0.0
H1319 H 1.0025 0.22004 0.58742 0.0
H1320 H 0.21621 0.01772 0.8466 0.0
H1321 H 0.23171 0.01008 0.91304 0.0
H1322 H 0.20899 0.0502 0.96704 0.0
H1323 H 0.19417 0.05819 0.8997 0.0
H1324 H 0.25137 0.04278 0.996 0.0
H1325 H 0.19292 0.99532 1.00668 0.0
H1326 H 0.21008 0.99466 0.96027 0.0
H1327 H 0.18886 0.00898 0.96792 0.0
C1328 C 0.21447 0.02494 0.87258 0.0
C1329 C 0.20369 0.03849 0.86802 0.0
C1330 C 0.22319 0.0205 0.9107 0.0
C1331 C 0.22084 0.02935 0.94546 0.0
C1332 C 0.21075 0.04311 0.94079 0.0
H1333 H 0.25178 0.98554 0.17808 0.0
H1334 H 0.23115 1.00006 0.12665 0.0
C1335 C 0.2023 0.04767 0.90233 0.0
C1336 C 0.22928 0.02417 0.98626 0.0
H1337 H 0.22776 0.99495 0.04979 0.0
C1338 C 0.24595 0.03242 0.00809 0.0
C1339 C 0.22175 0.01084 1.00287 0.0
C1340 C 0.20221 1.00204 0.98341 0.0
C1341 C 0.25626 0.02732 0.04473 0.0
C1342 C 0.25034 0.01339 0.05922 0.0
C1343 C 0.23269 0.00552 0.03856 0.0
C1344 C 0.26309 0.00633 0.09401 0.0
C1345 C 0.27333 0.03698 0.06742 0.0
C1346 C 0.28799 0.00518 0.09351 0.0
C1347 C 0.2999 0.99718 0.12352 0.0
C1348 C 0.28719 0.98975 0.15424 0.0
C1349 C 0.26227 0.99122 0.15535 0.0
C1350 C 0.25038 0.99943 0.12564 0.0
H1351 H 0.26886 0.0485 0.06241 0.0
H1352 H 0.27324 0.0348 0.10099 0.0
H1353 H 0.29159 0.03521 0.05543 0.0
H1354 H 0.29828 0.01002 0.069 0.0
H1355 H 0.31911 0.99654 0.12193 0.0
H1356 H 0.79752 0.95422 0.88436 0.0
H1357 H 0.77988 0.96364 0.94802 0.0
H1358 H 0.82208 1.00215 0.93632 0.0
H1359 H 0.83917 0.99305 0.87246 0.0
H1360 H 0.79861 0.97213 0.02197 0.0
H1361 H 0.75594 0.01863 0.945 0.0
H1362 H 0.76879 1.00387 0.91663 0.0
H1363 H 0.78742 0.01802 0.93631 0.0
C1364 C 0.80305 0.96468 0.89546 0.0
C1365 C 0.81949 0.97298 0.87309 0.0
C1366 C 0.79298 0.97005 0.93182 0.0
C1367 C 0.79925 0.98375 0.94644 0.0
C1368 C 0.81643 0.99174 0.92503 0.0
H1369 H 0.76255 0.03689 0.15643 0.0
H1370 H 0.78371 0.02421 0.10115 0.0
C1371 C 0.82627 0.98648 0.88858 0.0
C1372 C 0.7877 0.98987 0.98369 0.0
H1373 H 0.75673 0.01913 0.01824 0.0
C1374 C 0.78932 0.98236 0.02111 0.0
C1375 C 0.77541 1.00318 0.9825 0.0
C1376 C 0.77154 0.01132 0.94288 0.0
C1377 C 0.77949 0.988 0.05751 0.0
C1378 C 0.76786 1.00146 0.05636 0.0
C1379 C 0.766 0.00889 0.019 0.0
C1380 C 0.7567 0.0079 0.09326 0.0
C1381 C 0.78177 0.97969 0.09713 0.0
C1382 C 0.7347 1.00279 0.10732 0.0
C1383 C 0.72254 0.01004 0.13859 0.0
C1384 C 0.73224 0.02251 0.15648 0.0
C1385 C 0.75478 0.02724 0.14355 0.0
C1386 C 0.76682 0.02005 0.11192 0.0
H1387 H 0.79368 0.97021 0.09392 0.0
H1388 H 0.78876 0.98678 0.1218 0.0
H1389 H 0.76393 0.9759 0.10694 0.0
H1390 H 0.72653 0.9935 0.09301 0.0
H1391 H 0.70523 0.00614 0.14807 0.0
H1392 H 0.50999 0.30237 0.60074 0.0
H1393 H 0.49869 0.29062 0.66501 0.0
H1394 H 0.57262 0.28318 0.69318 0.0
H1395 H 0.58417 0.29517 0.62923 0.0
H1396 H 0.50787 0.26267 0.68519 0.0
H1397 H 0.54725 0.2992 0.80156 0.0
H1398 H 0.54332 0.30436 0.74844 0.0
H1399 H 0.56794 0.29313 0.76315 0.0
C1400 C 0.5239 0.29839 0.62078 0.0
C1401 C 0.548 0.29968 0.60975 0.0
C1402 C 0.51739 0.29168 0.65754 0.0
C1403 C 0.5348 0.28616 0.68413 0.0
C1404 C 0.5589 0.28762 0.67357 0.0
H1405 H 0.50896 0.21843 0.8621 0.0
H1406 H 0.52481 0.23352 0.80686 0.0
C1407 C 0.56545 0.29439 0.63682 0.0
C1408 C 0.52758 0.27797 0.72129 0.0
H1409 H 0.53271 0.27668 0.82599 0.0
C1410 C 0.51325 0.26577 0.71598 0.0
C1411 C 0.53443 0.2821 0.76147 0.0
C1412 C 0.5489 0.29549 0.76919 0.0
C1413 C 0.50579 0.25748 0.74962 0.0
C1414 C 0.51325 0.26133 0.78969 0.0
C1415 C 0.52728 0.27366 0.79518 0.0
C1416 C 0.50615 0.25275 0.82612 0.0
C1417 C 0.48963 0.24479 0.74201 0.0
C1418 C 0.49136 0.25874 0.85642 0.0
C1419 C 0.48237 0.25015 0.8882 0.0
C1420 C 0.48805 0.23543 0.89012 0.0
C1421 C 0.50396 0.22968 0.86102 0.0
C1422 C 0.513 0.23828 0.82944 0.0
H1423 H 0.48086 0.24545 0.71145 0.0
H1424 H 0.50028 0.23474 0.74285 0.0
H1425 H 0.47566 0.24406 0.76607 0.0
H1426 H 0.48595 0.26991 0.85446 0.0
H1427 H 0.47004 0.25487 0.90999 0.0
H1428 H 0.56733 0.75958 0.87779 0.0
H1429 H 0.54718 0.74647 0.82268 0.0
H1430 H 0.48059 0.76613 0.85695 0.0
H1431 H 0.50064 0.77944 0.91194 0.0
H1432 H 0.4784 0.73531 0.83532 0.0
H1433 H 0.5245 0.76917 0.71889 0.0
H1434 H 0.54342 0.76037 0.7557 0.0
H1435 H 0.52303 0.77404 0.77258 0.0
C1436 C 0.54836 0.76106 0.87381 0.0
C1437 C 0.53566 0.7707 0.89902 0.0
C1438 C 0.53688 0.75353 0.84235 0.0
C1439 C 0.51248 0.7555 0.83539 0.0
C1440 C 0.49946 0.76448 0.86183 0.0
H1441 H 0.43142 0.74409 0.61436 0.0
H1442 H 0.45034 0.75217 0.67768 0.0
C1443 C 0.51094 0.77204 0.89336 0.0
C1444 C 0.50094 0.74899 0.79883 0.0
H1445 H 0.49997 0.7506 0.69389 0.0
C1446 C 0.48314 0.73858 0.80436 0.0
C1447 C 0.50703 0.75341 0.75853 0.0
C1448 C 0.52539 0.76494 0.75082 0.0
C1449 C 0.47132 0.73243 0.77051 0.0
C1450 C 0.47756 0.73679 0.73023 0.0
C1451 C 0.49535 0.7472 0.72481 0.0
C1452 C 0.46502 0.73136 0.6932 0.0
C1453 C 0.45184 0.7216 0.77799 0.0
C1454 C 0.46695 0.71692 0.68088 0.0
C1455 C 0.45614 0.71222 0.6444 0.0
C1456 C 0.44328 0.72192 0.61965 0.0
C1457 C 0.44117 0.73632 0.63255 0.0
C1458 C 0.45199 0.74098 0.6688 0.0
H1459 H 0.44628 0.72131 0.81079 0.0
H1460 H 0.43606 0.7241 0.75872 0.0
H1461 H 0.45829 0.71074 0.76928 0.0
H1462 H 0.47723 0.70936 0.69897 0.0
H1463 H 0.4582 0.70109 0.63527 0.0
H1464 H 0.76415 0.4957 0.16998 0.0
H1465 H 0.74455 0.51081 0.11806 0.0
H1466 H 0.76863 0.48203 0.02263 0.0
H1467 H 0.78765 0.4668 0.07412 0.0
H1468 H 0.76695 0.52487 0.05349 0.0
H1469 H 0.69879 0.4875 0.99359 0.0
H1470 H 0.71389 0.48455 0.04188 0.0
H1471 H 0.72788 0.47955 0.99413 0.0
C1472 C 0.76481 0.49246 0.13801 0.0
C1473 C 0.7775 0.48009 0.12612 0.0
C1474 C 0.75373 0.50113 0.10839 0.0
C1475 C 0.75489 0.49745 0.06653 0.0
C1476 C 0.76711 0.48494 0.05479 0.0
H1477 H 0.75523 0.54607 0.84494 0.0
H1478 H 0.76358 0.53387 0.90982 0.0
C1479 C 0.7782 0.47633 0.08423 0.0
C1480 C 0.74494 0.50712 0.03454 0.0
H1481 H 0.7095 0.50726 0.94936 0.0
C1482 C 0.75409 0.52111 0.03109 0.0
C1483 C 0.72792 0.50229 1.00567 0.0
C1484 C 0.71636 0.4877 0.0092 0.0
C1485 C 0.74765 0.53012 0.99823 0.0
C1486 C 0.73194 0.52489 0.96773 0.0
C1487 C 0.72178 0.5112 0.97245 0.0
C1488 C 0.72682 0.53309 0.92957 0.0
C1489 C 0.75793 0.54509 0.99627 0.0
C1490 C 0.70333 0.53651 0.91872 0.0
C1491 C 0.69846 0.54341 0.88142 0.0
C1492 C 0.717 0.54692 0.8541 0.0
C1493 C 0.74053 0.54359 0.86528 0.0
C1494 C 0.74536 0.5367 0.90255 0.0
H1495 H 0.76319 0.54898 0.02726 0.0
H1496 H 0.7741 0.54495 0.97667 0.0
H1497 H 0.74504 0.55282 0.98278 0.0
H1498 H 0.68874 0.53372 0.939 0.0
H1499 H 0.68013 0.5458 0.87377 0.0
H1500 H 0.2614 0.52836 0.15739 0.0
H1501 H 0.28018 0.51453 0.10176 0.0
H1502 H 0.21238 0.49575 0.07144 0.0
H1503 H 0.19357 0.50932 0.12707 0.0
H1504 H 0.27944 0.4828 0.08133 0.0
H1505 H 0.23569 0.518 0.96574 0.0
H1506 H 0.23893 0.52312 0.01902 0.0
H1507 H 0.21623 0.51057 1.00416 0.0
C1508 C 0.2506 0.52104 0.13948 0.0
C1509 C 0.22593 0.52006 0.14637 0.0
C1510 C 0.26134 0.5132 0.10761 0.0
C1511 C 0.24757 0.50432 0.08214 0.0
C1512 C 0.22324 0.50273 0.09037 0.0
H1513 H 0.26059 0.45726 0.85624 0.0
H1514 H 0.24848 0.46881 0.92031 0.0
C1515 C 0.21252 0.51051 0.12212 0.0
C1516 C 0.25811 0.49733 0.04537 0.0
H1517 H 0.25508 0.49717 0.94052 0.0
C1518 C 0.27432 0.48598 0.05048 0.0
C1519 C 0.25142 0.50156 1.00524 0.0
C1520 C 0.23477 0.51406 0.99797 0.0
C1521 C 0.28332 0.47837 0.01639 0.0
C1522 C 0.2762 0.48242 0.97624 0.0
C1523 C 0.26043 0.49401 0.97128 0.0
C1524 C 0.28417 0.47459 0.93881 0.0
C1525 C 0.29967 0.46575 0.02368 0.0
C1526 C 0.30833 0.47393 0.92786 0.0
C1527 C 0.31536 0.46725 0.89114 0.0
C1528 C 0.29832 0.46126 0.8645 0.0
C1529 C 0.27419 0.46181 0.87588 0.0
C1530 C 0.26722 0.46841 0.91256 0.0
H1531 H 0.29881 0.46191 0.05602 0.0
H1532 H 0.29518 0.45666 1.00294 0.0
H1533 H 0.31826 0.46905 0.01719 0.0
H1534 H 0.32169 0.47887 0.94718 0.0
H1535 H 0.33407 0.46707 0.88327 0.0
H1536 H 0.44572 0.75311 0.38147 0.0
H1537 H 0.46636 0.76569 0.3258 0.0
H1538 H 0.53194 0.74468 0.35927 0.0
H1539 H 0.51137 0.73195 0.41495 0.0
H1540 H 0.536 0.77523 0.33572 0.0
H1541 H 0.48656 0.74177 0.2228 0.0
H1542 H 0.46847 0.75124 0.2595 0.0
H1543 H 0.48817 0.73727 0.27673 0.0
C1544 C 0.4646 0.75128 0.37728 0.0
C1545 C 0.47685 0.7414 0.40234 0.0
C1546 C 0.47636 0.75849 0.3455 0.0
C1547 C 0.50057 0.75593 0.33803 0.0
C1548 C 0.51322 0.74677 0.36451 0.0
H1549 H 0.57732 0.76581 0.11025 0.0
H1550 H 0.55956 0.75769 0.17468 0.0
C1551 C 0.50146 0.73956 0.39642 0.0
C1552 C 0.51215 0.76191 0.30077 0.0
H1553 H 0.51136 0.75994 0.1959 0.0
C1554 C 0.53063 0.77193 0.30512 0.0
C1555 C 0.50526 0.75744 0.26093 0.0
C1556 C 0.48617 0.74625 0.25447 0.0
C1557 C 0.54227 0.77771 0.27052 0.0
C1558 C 0.53509 0.7734 0.23068 0.0
C1559 C 0.51672 0.76331 0.22646 0.0
C1560 C 0.54692 0.77874 0.19281 0.0
C1561 C 0.56248 0.78814 0.27679 0.0
C1562 C 0.54568 0.79331 0.18152 0.0
C1563 C 0.55581 0.79802 0.14449 0.0
C1564 C 0.56729 0.78822 0.11808 0.0
C1565 C 0.56863 0.77367 0.12977 0.0
C1566 C 0.55849 0.76899 0.16664 0.0
H1567 H 0.56908 0.78801 0.30899 0.0
H1568 H 0.5775 0.7856 0.2558 0.0
H1569 H 0.55624 0.79919 0.26967 0.0
H1570 H 0.53646 0.80097 0.20091 0.0
H1571 H 0.55438 0.80928 0.13634 0.0
H1572 H 0.54978 0.25597 0.4082 0.0
H1573 H 0.53422 0.24089 0.35262 0.0
H1574 H 0.4932 0.27673 0.30723 0.0
H1575 H 0.50862 0.29187 0.36269 0.0
H1576 H 0.48739 0.23345 0.32572 0.0
H1577 H 0.53675 0.26573 0.20999 0.0
H1578 H 0.54251 0.26704 0.26445 0.0
H1579 H 0.51722 0.27601 0.24239 0.0
C1580 C 0.53706 0.26056 0.38691 0.0
C1581 C 0.53061 0.27516 0.3896 0.0
C1582 C 0.52827 0.25194 0.35508 0.0
C1583 C 0.51293 0.25778 0.32539 0.0
C1584 C 0.50542 0.27211 0.32934 0.0
H1585 H 0.43536 0.21444 0.12991 0.0
H1586 H 0.44684 0.22662 0.19355 0.0
C1587 C 0.51423 0.28073 0.36104 0.0
C1588 C 0.50587 0.24916 0.28904 0.0
H1589 H 0.51055 0.24797 0.18439 0.0
C1590 C 0.49244 0.23659 0.29479 0.0
C1591 C 0.51284 0.25317 0.24881 0.0
C1592 C 0.52831 0.26614 0.24088 0.0
C1593 C 0.48542 0.22806 0.26121 0.0
C1594 C 0.49181 0.23232 0.2209 0.0
C1595 C 0.50554 0.24477 0.21529 0.0
C1596 C 0.48469 0.22403 0.1839 0.0
C1597 C 0.4716 0.21444 0.26919 0.0
C1598 C 0.50215 0.21865 0.15711 0.0
C1599 C 0.49567 0.21179 0.12056 0.0
C1600 C 0.47157 0.21024 0.10993 0.0
C1601 C 0.45409 0.21541 0.1372 0.0
C1602 C 0.4606 0.2223 0.17375 0.0
H1603 H 0.47349 0.21078 0.30157 0.0
H1604 H 0.45245 0.21647 0.26331 0.0
H1605 H 0.47754 0.20566 0.24844 0.0
H1606 H 0.52085 0.21992 0.16427 0.0
H1607 H 0.5096 0.20792 0.10035 0.0
H1608 H 0.81884 1.00151 0.63786 0.0
H1609 H 0.79968 0.01565 0.58376 0.0
H1610 H 0.73284 0.99482 0.61001 0.0
H1611 H 0.75188 0.98081 0.66466 0.0
H1612 H 0.78073 1.00434 0.51612 0.0
H1613 H 0.71155 0.03609 0.5966 0.0
H1614 H 0.73555 0.02727 0.62357 0.0
H1615 H 0.70973 0.01724 0.60795 0.0
C1616 C 0.79996 1.00014 0.63255 0.0
C1617 C 0.78686 0.99004 0.65541 0.0
C1618 C 0.78902 0.00824 0.60169 0.0
C1619 C 0.76476 0.00641 0.59298 0.0
C1620 C 0.75143 0.99669 0.61676 0.0
H1621 H 0.6955 0.01475 0.36069 0.0
H1622 H 0.71436 0.00753 0.42485 0.0
C1623 C 0.76235 0.98865 0.64793 0.0
C1624 C 0.75417 0.01347 0.55625 0.0
H1625 H 0.70731 0.03389 0.52325 0.0
C1626 C 0.76484 0.01095 0.51784 0.0
C1627 C 0.73357 0.02222 0.55841 0.0
C1628 C 0.72206 0.026 0.59891 0.0
C1629 C 0.75506 0.01649 0.48148 0.0
C1630 C 0.73375 0.02456 0.4834 0.0
C1631 C 0.72352 0.02757 0.52185 0.0
C1632 C 0.72131 0.02924 0.44548 0.0
C1633 C 0.76755 0.01357 0.44123 0.0
C1634 C 0.71834 0.04389 0.43628 0.0
C1635 C 0.70743 0.04811 0.39941 0.0
C1636 C 0.69921 0.03771 0.37136 0.0
C1637 C 0.70176 0.02307 0.38133 0.0
C1638 C 0.71261 0.01889 0.41801 0.0
H1639 H 0.78661 0.01087 0.44596 0.0
H1640 H 0.75897 1.00428 0.42583 0.0
H1641 H 0.76636 0.023 0.42035 0.0
H1642 H 0.72485 0.05204 0.45723 0.0
H1643 H 0.70569 0.05948 0.3927 0.0
H1644 H 0.20798 0.00632 0.64511 0.0
H1645 H 0.22899 0.99352 0.59006 0.0
H1646 H 0.28485 0.02523 0.59319 0.0
H1647 H 0.26391 0.03812 0.64822 0.0
H1648 H 0.26127 0.01952 0.51268 0.0
H1649 H 0.29351 0.97002 0.59125 0.0
H1650 H 0.26315 0.97529 0.60053 0.0
H1651 H 0.28691 0.98644 0.61884 0.0
C1652 C 0.2249 0.01046 0.63442 0.0
C1653 C 0.2343 0.02323 0.65098 0.0
C1654 C 0.23694 1.00309 0.60318 0.0
C1655 C 0.25854 0.00838 0.5878 0.0
C1656 C 0.26828 0.02092 0.60491 0.0
H1657 H 0.3442 0.99037 0.37202 0.0
H1658 H 0.32683 1.00015 0.43488 0.0
C1659 C 0.25636 0.02823 0.63646 0.0
C1660 C 0.26988 1.00153 0.55155 0.0
H1661 H 0.29865 0.97119 0.5191 0.0
C1662 C 0.26957 0.00899 0.51407 0.0
C1663 C 0.28031 0.98771 0.55342 0.0
C1664 C 0.28121 0.97936 0.59316 0.0
C1665 C 0.27927 1.00295 0.4782 0.0
C1666 C 0.29025 0.98923 0.48014 0.0
C1667 C 0.29036 0.98172 0.51765 0.0
C1668 C 0.30193 0.98267 0.44361 0.0
C1669 C 0.27708 0.01119 0.43836 0.0
C1670 C 0.29454 0.96922 0.42859 0.0
C1671 C 0.30474 0.96347 0.39282 0.0
C1672 C 0.32247 0.9711 0.37143 0.0
C1673 C 0.33036 0.98431 0.3874 0.0
C1674 C 0.32035 0.98997 0.42326 0.0
H1675 H 0.26224 0.01909 0.4395 0.0
H1676 H 0.29376 0.01726 0.43276 0.0
H1677 H 0.27409 1.00383 0.41197 0.0
H1678 H 0.28048 0.96334 0.44397 0.0
H1679 H 0.29829 0.95325 0.38135 0.0
H1680 H 0.35045 0.22098 0.92868 0.0
H1681 H 0.31123 0.23047 0.90887 0.0
H1682 H 0.30646 0.25291 0.02455 0.0
H1683 H 0.34476 0.24335 0.04489 0.0
H1684 H 0.26685 0.22719 0.95246 0.0
H1685 H 0.29198 0.28446 0.93842 0.0
H1686 H 0.31356 0.27004 0.93649 0.0
H1687 H 0.30278 0.27656 0.9852 0.0
C1688 C 0.34101 0.22791 0.94989 0.0
C1689 C 0.35107 0.23155 0.98817 0.0
C1690 C 0.3187 0.23339 0.9384 0.0
C1691 C 0.30626 0.2427 0.96483 0.0
C1692 C 0.31608 0.24612 1.00315 0.0
H1693 H 0.17127 0.26249 0.04285 0.0
H1694 H 0.20941 0.25266 0.02244 0.0
C1695 C 0.33812 0.24062 0.0147 0.0
C1696 C 0.28236 0.24835 0.95436 0.0
H1697 H 0.25063 0.27969 0.9548 0.0
C1698 C 0.26332 0.23866 0.95181 0.0
C1699 C 0.27778 0.26331 0.95286 0.0
C1700 C 0.29765 0.27419 0.95295 0.0
C1701 C 0.23969 0.24358 0.95156 0.0
C1702 C 0.23508 0.25852 0.95443 0.0
C1703 C 0.25415 0.26822 0.95313 0.0
C1704 C 0.21107 0.26412 0.96463 0.0
C1705 C 0.21983 0.2327 0.95004 0.0
C1706 C 0.19949 0.27419 0.93939 0.0
C1707 C 0.17733 0.27986 0.95095 0.0
C1708 C 0.16653 0.27566 0.98819 0.0
C1709 C 0.17851 0.26572 0.01346 0.0
C1710 C 0.20045 0.26004 1.00183 0.0
H1711 H 0.22559 0.2227 0.93412 0.0
H1712 H 0.21465 0.22976 0.98189 0.0
H1713 H 0.20395 0.2371 0.9341 0.0
H1714 H 0.20758 0.27762 0.91078 0.0
H1715 H 0.16864 0.28744 0.93064 0.0
H1716 H 0.83849 0.74037 0.04803 0.0
H1717 H 0.80374 0.75356 0.0231 0.0
H1718 H 0.80498 0.72894 0.91075 0.0
H1719 H 0.84016 0.71566 0.93577 0.0
H1720 H 0.79682 0.76895 0.93639 0.0
H1721 H 0.73719 0.72308 0.97623 0.0
H1722 H 0.76532 0.72521 1.00225 0.0
H1723 H 0.7648 0.72012 0.94912 0.0
C1724 C 0.83151 0.73788 0.01785 0.0
C1725 C 0.84184 0.72695 0.99393 0.0
C1726 C 0.81177 0.74545 1.00357 0.0
C1727 C 0.80181 0.74216 0.96523 0.0
C1728 C 0.8125 0.73161 0.94044 0.0
H1729 H 0.65562 0.77552 0.94549 0.0
H1730 H 0.69155 0.76316 0.92017 0.0
C1731 C 0.83256 0.7241 0.95461 0.0
C1732 C 0.77927 0.74927 0.95345 0.0
H1733 H 0.71942 0.74576 0.96738 0.0
C1734 C 0.77982 0.7638 0.94198 0.0
C1735 C 0.75716 0.74248 0.96045 0.0
C1736 C 0.75582 0.72685 0.97268 0.0
C1737 C 0.75885 0.772 0.94007 0.0
C1738 C 0.73693 0.76556 0.95106 0.0
C1739 C 0.73621 0.75072 0.95912 0.0
C1740 C 0.71559 0.77432 0.96117 0.0
C1741 C 0.76052 0.78762 0.92795 0.0
C1742 C 0.7172 0.78472 0.99229 0.0
C1743 C 0.69687 0.79168 1.00667 0.0
C1744 C 0.67437 0.78835 0.99053 0.0
C1745 C 0.67277 0.77835 0.95822 0.0
C1746 C 0.69324 0.77128 0.94388 0.0
H1747 H 0.77529 0.78936 0.90578 0.0
H1748 H 0.74369 0.79153 0.91397 0.0
H1749 H 0.76435 0.79418 0.95569 0.0
H1750 H 0.73408 0.78702 1.00687 0.0
H1751 H 0.69868 0.79945 0.03127 0.0
H1752 H 0.11188 0.52017 0.20972 0.0
H1753 H 0.07718 0.50575 0.1884 0.0
H1754 H 0.03104 0.53441 0.25584 0.0
H1755 H 0.06528 0.5487 0.27669 0.0
H1756 H 0.04518 0.49195 0.24474 0.0
H1757 H 0.99724 0.53025 0.14465 0.0
H1758 H 0.02855 0.53204 0.15614 0.0
H1759 H 1.00649 0.53847 0.1919 0.0
C1760 C 0.09423 0.52349 0.21911 0.0
C1761 C 0.0912 0.53548 0.24494 0.0
C1762 C 0.0745 0.51525 0.20715 0.0
C1763 C 0.05152 0.51912 0.22016 0.0
C1764 C 0.04853 0.53136 0.24483 0.0
H1765 H 0.91435 0.49642 0.27786 0.0
H1766 H 0.9542 0.50544 0.26425 0.0
C1767 C 0.06812 0.53945 0.25705 0.0
C1768 C 0.03059 0.50994 0.21148 0.0
H1769 H 0.97295 0.51242 0.17953 0.0
C1770 C 0.02957 0.49619 0.22937 0.0
C1771 C 0.01029 0.5155 0.19132 0.0
C1772 C 0.01075 0.52982 0.16954 0.0
C1773 C 0.00813 0.48842 0.23072 0.0
C1774 C 0.98739 0.49456 0.21354 0.0
C1775 C 0.98888 0.5078 0.19295 0.0
C1776 C 0.9635 0.48851 0.22158 0.0
C1777 C 0.00729 0.47422 0.25308 0.0
C1778 C 0.95557 0.47592 0.2022 0.0
C1779 C 0.93254 0.47074 0.20969 0.0
C1780 C 0.91712 0.47813 0.23659 0.0
C1781 C 0.92545 0.49061 0.25634 0.0
C1782 C 0.94831 0.49576 0.24878 0.0
H1783 H 0.02481 0.47121 0.26636 0.0
H1784 H 0.99395 0.47472 0.27825 0.0
H1785 H 1.00166 0.46563 0.23151 0.0
H1786 H 0.96704 0.47023 0.18089 0.0
H1787 H 0.92665 0.46118 0.1937 0.0
H1788 H 0.31269 0.71321 0.52218 0.0
H1789 H 0.27926 0.7281 0.50041 0.0
H1790 H 0.32758 0.75707 0.43915 0.0
H1791 H 0.36139 0.74205 0.46128 0.0
H1792 H 0.29629 0.77054 0.49495 0.0
H1793 H 0.24622 0.73511 0.38994 0.0
H1794 H 0.25452 0.72585 0.43618 0.0
H1795 H 0.27729 0.73225 0.40174 0.0
C1796 C 0.31617 0.72264 0.50359 0.0
C1797 C 0.33959 0.72655 0.4936 0.0
C1798 C 0.29704 0.73106 0.49076 0.0
C1799 C 0.30088 0.74359 0.46765 0.0
C1800 C 0.32423 0.74735 0.45656 0.0
H1801 H 0.16369 0.78888 0.43355 0.0
H1802 H 0.20411 0.78115 0.4138 0.0
C1803 C 0.34347 0.73878 0.46907 0.0
C1804 C 0.28056 0.75338 0.45976 0.0
H1805 H 0.22273 0.75273 0.42803 0.0
C1806 C 0.28042 0.76685 0.47924 0.0
C1807 C 0.25996 0.74868 0.43878 0.0
C1808 C 0.25956 0.73474 0.4151 0.0
C1809 C 0.25951 0.77507 0.4817 0.0
C1810 C 0.23825 0.76961 0.46456 0.0
C1811 C 0.23898 0.75684 0.4416 0.0
C1812 C 0.21472 0.77563 0.4758 0.0
C1813 C 0.26003 0.78919 0.50454 0.0
C1814 C 0.20739 0.77504 0.51698 0.0
C1815 C 0.18449 0.77926 0.52809 0.0
C1816 C 0.16836 0.7842 0.49828 0.0
C1817 C 0.17586 0.78518 0.4571 0.0
C1818 C 0.19884 0.78076 0.44584 0.0
H1819 H 0.27805 0.79408 0.50362 0.0
H1820 H 0.24702 0.79694 0.49149 0.0
H1821 H 0.25536 0.78728 0.53726 0.0
H1822 H 0.21919 0.77088 0.54049 0.0
H1823 H 0.1793 0.77854 0.56009 0.0
H1824 H 0.8568 0.25192 0.49203 0.0
H1825 H 0.81695 0.26075 0.47515 0.0
H1826 H 0.79564 0.21776 0.44194 0.0
H1827 H 0.83565 0.20885 0.45898 0.0
H1828 H 0.78478 0.2574 0.40032 0.0
H1829 H 0.75403 0.231 0.54481 0.0
H1830 H 0.78504 0.23467 0.53503 0.0
H1831 H 0.77048 0.22022 0.50862 0.0
C1832 C 0.84373 0.24441 0.48039 0.0
C1833 C 0.8492 0.22968 0.47719 0.0
C1834 C 0.82105 0.24947 0.47056 0.0
C1835 C 0.80334 0.23989 0.45766 0.0
C1836 C 0.8091 0.22531 0.45196 0.0
H1837 H 0.65109 0.25446 0.47766 0.0
H1838 H 0.68957 0.24364 0.46069 0.0
C1839 C 0.83194 0.22024 0.46147 0.0
C1840 C 0.77839 0.24496 0.45504 0.0
H1841 H 0.72626 0.24479 0.50869 0.0
C1842 C 0.77182 0.25454 0.42366 0.0
C1843 C 0.76165 0.24125 0.48567 0.0
C1844 C 0.76802 0.23129 0.52068 0.0
C1845 C 0.74883 0.26054 0.42216 0.0
C1846 C 0.73226 0.25716 0.45357 0.0
C1847 C 0.73885 0.24737 0.48449 0.0
C1848 C 0.70829 0.26394 0.45642 0.0
C1849 C 0.74253 0.27032 0.38679 0.0
C1850 C 0.70572 0.27898 0.45851 0.0
C1851 C 0.68357 0.28517 0.46748 0.0
C1852 C 0.66377 0.2764 0.47548 0.0
C1853 C 0.66615 0.26142 0.47179 0.0
C1854 C 0.68811 0.25526 0.46212 0.0
H1855 H 0.75352 0.2679 0.35921 0.0
H1856 H 0.72346 0.26935 0.37837 0.0
H1857 H 0.74609 0.28163 0.39575 0.0
H1858 H 0.72105 0.28593 0.45539 0.0
H1859 H 0.68223 0.29673 0.47076 0.0
H1860 H 0.0689 0.04202 0.80054 0.0
H1861 H 0.03155 0.0321 0.7756 0.0
H1862 H 0.06564 0.01976 0.66201 0.0
H1863 H 0.1036 0.02951 0.68758 0.0
H1864 H 1.00354 0.03736 0.70482 0.0
H1865 H 0.03995 0.98149 0.70901 0.0
H1866 H 0.05529 0.99628 0.73314 0.0
H1867 H 0.05508 0.9947 0.67815 0.0
C1868 C 0.06849 0.03722 0.77022 0.0
C1869 C 0.08926 0.03627 0.74631 0.0
C1870 C 0.04707 0.03167 0.75582 0.0
C1871 C 0.04588 0.02501 0.71721 0.0
C1872 C 0.06627 0.02469 0.69215 0.0
H1873 H 0.91997 0.96905 0.68916 0.0
H1874 H 0.95382 0.98331 0.66335 0.0
C1875 C 0.08784 0.03033 0.70661 0.0
C1876 C 0.02355 0.01758 0.70563 0.0
H1877 H 0.99869 0.98408 0.70544 0.0
C1878 C 1.00251 0.02571 0.70378 0.0
C1879 C 0.02223 1.00238 0.70404 0.0
C1880 C 0.04425 0.99312 0.70633 0.0
C1881 C 0.98014 0.01903 0.70369 0.0
C1882 C 0.97882 1.00387 0.7059 0.0
C1883 C 0.99981 0.99572 0.70385 0.0
C1884 C 0.95657 0.99647 0.71803 0.0
C1885 C 0.95808 0.02827 0.70353 0.0
C1886 C 0.94698 0.99919 0.7571 0.0
C1887 C 0.92805 0.99102 0.77187 0.0
C1888 C 0.91822 0.97999 0.74785 0.0
C1889 C 0.92716 0.97759 0.70804 0.0
C1890 C 0.94645 0.98568 0.69339 0.0
H1891 H 0.96142 0.03874 0.6881 0.0
H1892 H 0.94311 0.02276 0.68785 0.0
H1893 H 0.9527 0.03053 0.73574 0.0
H1894 H 0.9548 0.00726 0.77696 0.0
H1895 H 0.92136 0.99311 0.80254 0.0
H1896 H 0.43336 0.46264 0.72522 0.0
H1897 H 0.47226 0.4733 0.70905 0.0
H1898 H 0.44047 0.51556 0.70922 0.0
H1899 H 0.40193 0.50495 0.72682 0.0
H1900 H 0.49168 0.49081 0.64941 0.0
H1901 H 0.48917 0.51921 0.79951 0.0
H1902 H 0.4678 0.50559 0.78582 0.0
H1903 H 0.46463 0.52367 0.76669 0.0
C1904 C 0.43469 0.47416 0.72096 0.0
C1905 C 0.41483 0.48303 0.72777 0.0
C1906 C 0.45687 0.48025 0.71185 0.0
C1907 C 0.4594 0.49527 0.70906 0.0
C1908 C 0.4391 0.50399 0.71245 0.0
H1909 H 0.58605 0.54983 0.70807 0.0
H1910 H 0.54569 0.5411 0.69336 0.0
C1911 C 0.4171 0.49795 0.72225 0.0
C1912 C 0.48339 0.50188 0.70584 0.0
H1913 H 0.52155 0.52444 0.75595 0.0
C1914 C 0.49819 0.4982 0.67261 0.0
C1915 C 0.49197 0.51145 0.73633 0.0
C1916 C 0.47769 0.51512 0.7743 0.0
C1917 C 0.5213 0.50388 0.66905 0.0
C1918 C 0.52975 0.51344 0.69951 0.0
C1919 C 0.51485 0.51727 0.73232 0.0
C1920 C 0.55468 0.51859 0.70047 0.0
C1921 C 0.53655 0.49961 0.63289 0.0
C1922 C 0.57312 0.50882 0.70857 0.0
C1923 C 0.59599 0.51379 0.71726 0.0
C1924 C 0.60091 0.52862 0.71787 0.0
C1925 C 0.58278 0.53836 0.70735 0.0
C1926 C 0.55976 0.53338 0.69912 0.0
H1927 H 0.52571 0.49521 0.60726 0.0
H1928 H 0.54695 0.50894 0.62141 0.0
H1929 H 0.54931 0.49117 0.64274 0.0
H1930 H 0.56952 0.4974 0.71045 0.0
H1931 H 0.6097 0.50608 0.72512 0.0
H1932 H 0.40121 0.98635 0.20344 0.0
H1933 H 0.43522 1.00046 0.17779 0.0
H1934 H 0.4833 0.97181 0.241 0.0
H1935 H 0.44974 0.95774 0.26574 0.0
H1936 H 0.46644 0.01467 0.22807 0.0
H1937 H 0.51701 0.97657 0.13223 0.0
H1938 H 0.4861 0.97372 0.14518 0.0
H1939 H 0.5093 0.9683 0.18019 0.0
C1940 C 0.41911 0.98291 0.21079 0.0
C1941 C 0.42289 0.97104 0.23677 0.0
C1942 C 0.43848 0.99097 0.19628 0.0
C1943 C 0.46184 0.98707 0.20693 0.0
C1944 C 0.46553 0.97486 0.23148 0.0
H1945 H 0.59114 0.01208 0.28487 0.0
H1946 H 0.5545 1.00157 0.25812 0.0
C1947 C 0.44631 0.96692 0.24611 0.0
C1948 C 0.48238 0.99652 0.19743 0.0
H1949 H 0.54086 0.99445 0.16976 0.0
C1950 C 0.4825 0.01048 0.21393 0.0
C1951 C 0.50329 0.9911 0.17873 0.0
C1952 C 0.50382 0.97665 0.1577 0.0
C1953 C 0.50361 0.01852 0.21616 0.0
C1954 C 0.52501 0.01242 0.20132 0.0
C1955 C 0.52444 0.99905 0.18138 0.0
C1956 C 0.54837 0.01839 0.21337 0.0
C1957 C 0.5034 0.0329 0.23765 0.0
C1958 C 0.55729 0.03119 0.19641 0.0
C1959 C 0.57841 0.03721 0.21164 0.0
C1960 C 0.59059 0.03054 0.24428 0.0
C1961 C 0.58193 0.0175 0.26006 0.0
C1962 C 0.56111 0.01146 0.24465 0.0
H1963 H 0.4853 0.03602 0.24815 0.0
H1964 H 0.51541 0.03257 0.26474 0.0
H1965 H 0.51014 0.04133 0.21648 0.0
H1966 H 0.54766 0.03667 0.17218 0.0
H1967 H 0.58468 0.04731 0.19916 0.0
loop_
_geom_bond_atom_site_label_1
_geom_bond_atom_site_label_2
_geom_bond_distance
_geom_bond_site_symmetry_2
_ccdc_geom_bond_type
Co0 N4 2.148 . S
Co0 N10 2.128 . S
Co0 N20 2.194 1_554 S
Co0 O25 2.351 1_554 S
Co0 O26 2.155 . S
Co0 O27 2.096 . S
C1 N4 1.301 1_556 S
C1 N5 1.328 . S
C1 H6 0.930 . S
C2 C3 1.333 . S
C2 N4 1.317 . S
C2 H7 0.930 . S
C3 C2 1.333 . S
C3 N5 1.350 1_554 S
C3 H29 0.931 . S
N4 Co0 2.148 . S
N4 C1 1.301 1_554 S
N4 C2 1.317 . S
N5 C1 1.328 . S
N5 C3 1.350 1_556 S
H6 C1 0.930 . S
H7 C2 0.930 . S
C8 O9 1.224 . S
C8 O27 1.247 . S
O9 C8 1.224 . S
N10 Co0 2.128 . S
N10 C11 1.355 1_554 S
N10 C13 1.311 . S
C11 N10 1.355 1_556 S
C11 C12 1.363 . S
C11 H23 0.929 . S
C12 C11 1.363 . S
C12 N14 1.375 1_556 S
C12 H30 0.931 . S
C13 N10 1.311 . S
C13 N14 1.347 . S
C13 H24 0.929 . S
N14 C12 1.375 1_554 S
N14 C13 1.347 . S
C15 C18 1.365 . S
C15 N20 1.328 . S
C15 H21 0.929 . S
C16 C17 1.362 . S
C16 C19 1.378 . S
C16 H31 0.929 . S
C17 C16 1.362 . S
C17 C18 1.366 . S
C18 C15 1.365 . S
C18 C17 1.366 . S
C18 H32 0.930 . S
C19 C16 1.378 . S
C19 N20 1.315 . S
C19 H22 0.930 . S
N20 Co0 2.194 1_556 S
N20 C15 1.328 . S
N20 C19 1.315 . S
H21 C15 0.929 . S
H22 C19 0.930 . S
H23 C11 0.929 . S
H24 C13 0.929 . S
O25 Co0 2.351 1_556 S
O25 C28 1.244 . S
O26 Co0 2.155 . S
O26 C28 1.240 1_554 S
O27 Co0 2.096 . S
O27 C8 1.247 . S
C28 O25 1.244 . S
C28 O26 1.240 1_556 S
H29 C3 0.931 . S
H30 C12 0.931 . S
H31 C16 0.929 . S
H32 C18 0.930 . S
Co33 N37 2.148 . S
Co33 N43 2.128 . S
Co33 N53 2.194 1_554 S
Co33 O58 2.351 1_554 S
Co33 O59 2.155 . S
Co33 O60 2.096 . S
C34 N37 1.301 1_556 S
C34 N38 1.328 . S
C34 H39 0.930 . S
C35 C36 1.333 . S
C35 N37 1.317 . S
C35 H40 0.930 . S
C36 C35 1.333 . S
C36 N38 1.350 1_554 S
C36 H62 0.931 . S
N37 Co33 2.148 . S
N37 C34 1.301 1_554 S
N37 C35 1.317 . S
N38 C34 1.328 . S
N38 C36 1.350 1_556 S
H39 C34 0.930 . S
H40 C35 0.930 . S
C41 O42 1.224 . S
C41 O60 1.247 . S
O42 C41 1.224 . S
N43 Co33 2.128 . S
N43 C44 1.355 1_554 S
N43 C46 1.311 . S
C44 N43 1.355 1_556 S
C44 C45 1.363 . S
C44 H56 0.929 . S
C45 C44 1.363 . S
C45 N47 1.375 1_556 S
C45 H63 0.931 . S
C46 N43 1.311 . S
C46 N47 1.347 . S
C46 H57 0.929 . S
N47 C45 1.375 1_554 S
N47 C46 1.347 . S
C48 C51 1.365 . S
C48 N53 1.328 . S
C48 H54 0.929 . S
C49 C50 1.362 . S
C49 C52 1.378 . S
C49 H64 0.929 . S
C50 C49 1.362 . S
C50 C51 1.366 . S
C51 C48 1.365 . S
C51 C50 1.366 . S
C51 H65 0.930 . S
C52 C49 1.378 . S
C52 N53 1.315 . S
C52 H55 0.930 . S
N53 Co33 2.194 1_556 S
N53 C48 1.328 . S
N53 C52 1.315 . S
H54 C48 0.929 . S
H55 C52 0.930 . S
H56 C44 0.929 . S
H57 C46 0.929 . S
O58 Co33 2.351 1_556 S
O58 C61 1.244 . S
O59 Co33 2.155 . S
O59 C61 1.240 1_554 S
O60 Co33 2.096 . S
O60 C41 1.247 . S
C61 O58 1.244 . S
C61 O59 1.240 1_556 S
H62 C36 0.931 . S
H63 C45 0.931 . S
H64 C49 0.929 . S
H65 C51 0.930 . S
Co66 N70 2.148 . S
Co66 N76 2.128 . S
Co66 N86 2.194 . S
Co66 O91 2.351 . S
Co66 O92 2.155 . S
Co66 O93 2.096 . S
C67 N70 1.301 . S
C67 N71 1.328 . S
C67 H72 0.930 . S
C68 C69 1.333 . S
C68 N70 1.317 . S
C68 H73 0.930 . S
C69 C68 1.333 . S
C69 N71 1.350 . S
C69 H95 0.931 . S
N70 Co66 2.148 . S
N70 C67 1.301 . S
N70 C68 1.317 . S
N71 C67 1.328 . S
N71 C69 1.350 . S
H72 C67 0.930 . S
H73 C68 0.930 . S
C74 O75 1.224 . S
C74 O93 1.247 . S
O75 C74 1.224 . S
N76 Co66 2.128 . S
N76 C77 1.355 . S
N76 C79 1.311 . S
C77 N76 1.355 . S
C77 C78 1.363 . S
C77 H89 0.929 . S
C78 C77 1.363 . S
C78 N80 1.375 . S
C78 H96 0.931 . S
C79 N76 1.311 . S
C79 N80 1.347 . S
C79 H90 0.929 . S
N80 C78 1.375 . S
N80 C79 1.347 . S
C81 C84 1.365 . S
C81 N86 1.328 . S
C81 H87 0.929 . S
C82 C83 1.362 . S
C82 C85 1.378 . S
C82 H97 0.929 . S
C83 C82 1.362 . S
C83 C84 1.366 . S
C84 C81 1.365 . S
C84 C83 1.366 . S
C84 H98 0.930 . S
C85 C82 1.378 . S
C85 N86 1.315 . S
C85 H88 0.930 . S
N86 Co66 2.194 . S
N86 C81 1.328 . S
N86 C85 1.315 . S
H87 C81 0.929 . S
H88 C85 0.930 . S
H89 C77 0.929 . S
H90 C79 0.929 . S
O91 Co66 2.351 . S
O91 C94 1.244 . S
O92 Co66 2.155 . S
O92 C94 1.240 . S
O93 Co66 2.096 . S
O93 C74 1.247 . S
C94 O91 1.244 . S
C94 O92 1.240 . S
H95 C69 0.931 . S
H96 C78 0.931 . S
H97 C82 0.929 . S
H98 C84 0.930 . S
Co99 N103 2.148 . S
Co99 N109 2.128 . S
Co99 N119 2.194 . S
Co99 O124 2.351 . S
Co99 O125 2.155 . S
Co99 O126 2.096 . S
C100 N103 1.301 . S
C100 N104 1.328 . S
C100 H105 0.930 . S
C101 C102 1.333 . S
C101 N103 1.317 . S
C101 H106 0.930 . S
C102 C101 1.333 . S
C102 N104 1.350 . S
C102 H128 0.931 . S
N103 Co99 2.148 . S
N103 C100 1.301 . S
N103 C101 1.317 . S
N104 C100 1.328 . S
N104 C102 1.350 . S
H105 C100 0.930 . S
H106 C101 0.930 . S
C107 O108 1.224 . S
C107 O126 1.247 . S
O108 C107 1.224 . S
N109 Co99 2.128 . S
N109 C110 1.355 . S
N109 C112 1.311 . S
C110 N109 1.355 . S
C110 C111 1.363 . S
C110 H122 0.929 . S
C111 C110 1.363 . S
C111 N113 1.375 . S
C111 H129 0.931 . S
C112 N109 1.311 . S
C112 N113 1.347 . S
C112 H123 0.929 . S
N113 C111 1.375 . S
N113 C112 1.347 . S
C114 C117 1.365 . S
C114 N119 1.328 . S
C114 H120 0.929 . S
C115 C116 1.362 . S
C115 C118 1.378 . S
C115 H130 0.929 . S
C116 C115 1.362 . S
C116 C117 1.366 . S
C117 C114 1.365 . S
C117 C116 1.366 . S
C117 H131 0.930 . S
C118 C115 1.378 . S
C118 N119 1.315 . S
C118 H121 0.930 . S
N119 Co99 2.194 . S
N119 C114 1.328 . S
N119 C118 1.315 . S
H120 C114 0.929 . S
H121 C118 0.930 . S
H122 C110 0.929 . S
H123 C112 0.929 . S
O124 Co99 2.351 . S
O124 C127 1.244 . S
O125 Co99 2.155 . S
O125 C127 1.240 . S
O126 Co99 2.096 . S
O126 C107 1.247 . S
C127 O124 1.244 . S
C127 O125 1.240 . S
H128 C102 0.931 . S
H129 C111 0.931 . S
H130 C115 0.929 . S
H131 C117 0.930 . S
Co132 N136 2.148 . S
Co132 N142 2.128 . S
Co132 N152 2.194 . S
Co132 O157 2.351 . S
Co132 O158 2.155 . S
Co132 O159 2.096 . S
C133 N136 1.301 . S
C133 N137 1.328 . S
C133 H138 0.930 . S
C134 C135 1.333 . S
C134 N136 1.317 . S
C134 H139 0.930 . S
C135 C134 1.333 . S
C135 N137 1.350 . S
C135 H161 0.931 . S
N136 Co132 2.148 . S
N136 C133 1.301 . S
N136 C134 1.317 . S
N137 C133 1.328 . S
N137 C135 1.350 . S
H138 C133 0.930 . S
H139 C134 0.930 . S
C140 O141 1.224 . S
C140 O159 1.247 . S
O141 C140 1.224 . S
N142 Co132 2.128 . S
N142 C143 1.355 . S
N142 C145 1.311 . S
C143 N142 1.355 . S
C143 C144 1.363 . S
C143 H155 0.929 . S
C144 C143 1.363 . S
C144 N146 1.375 . S
C144 H162 0.931 . S
C145 N142 1.311 . S
C145 N146 1.347 . S
C145 H156 0.929 . S
N146 C144 1.375 . S
N146 C145 1.347 . S
C147 C150 1.365 . S
C147 N152 1.328 . S
C147 H153 0.929 . S
C148 C149 1.362 . S
C148 C151 1.378 . S
C148 H163 0.929 . S
C149 C148 1.362 . S
C149 C150 1.366 . S
C150 C147 1.365 . S
C150 C149 1.366 . S
C150 H164 0.930 . S
C151 C148 1.378 . S
C151 N152 1.315 . S
C151 H154 0.930 . S
N152 Co132 2.194 . S
N152 C147 1.328 . S
N152 C151 1.315 . S
H153 C147 0.929 . S
H154 C151 0.930 . S
H155 C143 0.929 . S
H156 C145 0.929 . S
O157 Co132 2.351 . S
O157 C160 1.244 . S
O158 Co132 2.155 . S
O158 C160 1.240 . S
O159 Co132 2.096 . S
O159 C140 1.247 . S
C160 O157 1.244 . S
C160 O158 1.240 . S
H161 C135 0.931 . S
H162 C144 0.931 . S
H163 C148 0.929 . S
H164 C150 0.930 . S
Co165 N169 2.148 . S
Co165 N175 2.128 . S
Co165 N185 2.194 . S
Co165 O190 2.351 . S
Co165 O191 2.155 . S
Co165 O192 2.096 . S
C166 N169 1.301 . S
C166 N170 1.328 . S
C166 H171 0.930 . S
C167 C168 1.333 . S
C167 N169 1.317 . S
C167 H172 0.930 . S
C168 C167 1.333 . S
C168 N170 1.350 . S
C168 H194 0.931 . S
N169 Co165 2.148 . S
N169 C166 1.301 . S
N169 C167 1.317 . S
N170 C166 1.328 . S
N170 C168 1.350 . S
H171 C166 0.930 . S
H172 C167 0.930 . S
C173 O174 1.224 . S
C173 O192 1.247 . S
O174 C173 1.224 . S
N175 Co165 2.128 . S
N175 C176 1.355 . S
N175 C178 1.311 . S
C176 N175 1.355 . S
C176 C177 1.363 . S
C176 H188 0.929 . S
C177 C176 1.363 . S
C177 N179 1.375 . S
C177 H195 0.931 . S
C178 N175 1.311 . S
C178 N179 1.347 . S
C178 H189 0.929 . S
N179 C177 1.375 . S
N179 C178 1.347 . S
C180 C183 1.365 . S
C180 N185 1.328 . S
C180 H186 0.929 . S
C181 C182 1.362 . S
C181 C184 1.378 . S
C181 H196 0.929 . S
C182 C181 1.362 . S
C182 C183 1.366 . S
C183 C180 1.365 . S
C183 C182 1.366 . S
C183 H197 0.930 . S
C184 C181 1.378 . S
C184 N185 1.315 . S
C184 H187 0.930 . S
N185 Co165 2.194 . S
N185 C180 1.328 . S
N185 C184 1.315 . S
H186 C180 0.929 . S
H187 C184 0.930 . S
H188 C176 0.929 . S
H189 C178 0.929 . S
O190 Co165 2.351 . S
O190 C193 1.244 . S
O191 Co165 2.155 . S
O191 C193 1.240 . S
O192 Co165 2.096 . S
O192 C173 1.247 . S
C193 O190 1.244 . S
C193 O191 1.240 . S
H194 C168 0.931 . S
H195 C177 0.931 . S
H196 C181 0.929 . S
H197 C183 0.930 . S
Co198 N202 2.148 . S
Co198 N208 2.128 . S
Co198 N218 2.194 . S
Co198 O223 2.351 . S
Co198 O224 2.155 . S
Co198 O225 2.096 . S
C199 N202 1.301 . S
C199 N203 1.328 . S
C199 H204 0.930 . S
C200 C201 1.333 . S
C200 N202 1.317 . S
C200 H205 0.930 . S
C201 C200 1.333 . S
C201 N203 1.350 . S
C201 H227 0.931 . S
N202 Co198 2.148 . S
N202 C199 1.301 . S
N202 C200 1.317 . S
N203 C199 1.328 . S
N203 C201 1.350 . S
H204 C199 0.930 . S
H205 C200 0.930 . S
C206 O207 1.224 . S
C206 O225 1.247 . S
O207 C206 1.224 . S
N208 Co198 2.128 . S
N208 C209 1.355 . S
N208 C211 1.311 . S
C209 N208 1.355 . S
C209 C210 1.363 . S
C209 H221 0.929 . S
C210 C209 1.363 . S
C210 N212 1.375 . S
C210 H228 0.931 . S
C211 N208 1.311 . S
C211 N212 1.347 . S
C211 H222 0.929 . S
N212 C210 1.375 . S
N212 C211 1.347 . S
C213 C216 1.365 . S
C213 N218 1.328 . S
C213 H219 0.929 . S
C214 C215 1.362 . S
C214 C217 1.378 . S
C214 H229 0.929 . S
C215 C214 1.362 . S
C215 C216 1.366 . S
C216 C213 1.365 . S
C216 C215 1.366 . S
C216 H230 0.930 . S
C217 C214 1.378 . S
C217 N218 1.315 . S
C217 H220 0.930 . S
N218 Co198 2.194 . S
N218 C213 1.328 . S
N218 C217 1.315 . S
H219 C213 0.929 . S
H220 C217 0.930 . S
H221 C209 0.929 . S
H222 C211 0.929 . S
O223 Co198 2.351 . S
O223 C226 1.244 . S
O224 Co198 2.155 . S
O224 C226 1.240 . S
O225 Co198 2.096 . S
O225 C206 1.247 . S
C226 O223 1.244 . S
C226 O224 1.240 . S
H227 C201 0.931 . S
H228 C210 0.931 . S
H229 C214 0.929 . S
H230 C216 0.930 . S
Co231 N235 2.148 . S
Co231 N241 2.128 . S
Co231 N251 2.194 . S
Co231 O256 2.351 . S
Co231 O257 2.155 . S
Co231 O258 2.096 . S
C232 N235 1.301 . S
C232 N236 1.328 . S
C232 H237 0.930 . S
C233 C234 1.333 . S
C233 N235 1.317 . S
C233 H238 0.930 . S
C234 C233 1.333 . S
C234 N236 1.350 . S
C234 H260 0.931 . S
N235 Co231 2.148 . S
N235 C232 1.301 . S
N235 C233 1.317 . S
N236 C232 1.328 . S
N236 C234 1.350 . S
H237 C232 0.930 . S
H238 C233 0.930 . S
C239 O240 1.224 . S
C239 O258 1.247 . S
O240 C239 1.224 . S
N241 Co231 2.128 . S
N241 C242 1.355 . S
N241 C244 1.311 . S
C242 N241 1.355 . S
C242 C243 1.363 . S
C242 H254 0.929 . S
C243 C242 1.363 . S
C243 N245 1.375 . S
C243 H261 0.931 . S
C244 N241 1.311 . S
C244 N245 1.347 . S
C244 H255 0.929 . S
N245 C243 1.375 . S
N245 C244 1.347 . S
C246 C249 1.365 . S
C246 N251 1.328 . S
C246 H252 0.929 . S
C247 C248 1.362 . S
C247 C250 1.378 . S
C247 H262 0.929 . S
C248 C247 1.362 . S
C248 C249 1.366 . S
C249 C246 1.365 . S
C249 C248 1.366 . S
C249 H263 0.930 . S
C250 C247 1.378 . S
C250 N251 1.315 . S
C250 H253 0.930 . S
N251 Co231 2.194 . S
N251 C246 1.328 . S
N251 C250 1.315 . S
H252 C246 0.929 . S
H253 C250 0.930 . S
H254 C242 0.929 . S
H255 C244 0.929 . S
O256 Co231 2.351 . S
O256 C259 1.244 . S
O257 Co231 2.155 . S
O257 C259 1.240 . S
O258 Co231 2.096 . S
O258 C239 1.247 . S
C259 O256 1.244 . S
C259 O257 1.240 . S
H260 C234 0.931 . S
H261 C243 0.931 . S
H262 C247 0.929 . S
H263 C249 0.930 . S
Co264 N268 2.148 . S
Co264 N274 2.128 . S
Co264 N284 2.194 . S
Co264 O289 2.351 . S
Co264 O290 2.155 . S
Co264 O291 2.096 . S
C265 N268 1.301 . S
C265 N269 1.328 . S
C265 H270 0.930 . S
C266 C267 1.333 . S
C266 N268 1.317 . S
C266 H271 0.930 . S
C267 C266 1.333 . S
C267 N269 1.350 . S
C267 H293 0.931 . S
N268 Co264 2.148 . S
N268 C265 1.301 . S
N268 C266 1.317 . S
N269 C265 1.328 . S
N269 C267 1.350 . S
H270 C265 0.930 . S
H271 C266 0.930 . S
C272 O273 1.224 . S
C272 O291 1.247 . S
O273 C272 1.224 . S
N274 Co264 2.128 . S
N274 C275 1.355 . S
N274 C277 1.311 . S
C275 N274 1.355 . S
C275 C276 1.363 . S
C275 H287 0.929 . S
C276 C275 1.363 . S
C276 N278 1.375 . S
C276 H294 0.931 . S
C277 N274 1.311 . S
C277 N278 1.347 . S
C277 H288 0.929 . S
N278 C276 1.375 . S
N278 C277 1.347 . S
C279 C282 1.365 . S
C279 N284 1.328 . S
C279 H285 0.929 . S
C280 C281 1.362 . S
C280 C283 1.378 . S
C280 H295 0.929 . S
C281 C280 1.362 . S
C281 C282 1.366 . S
C282 C279 1.365 . S
C282 C281 1.366 . S
C282 H296 0.930 . S
C283 C280 1.378 . S
C283 N284 1.315 . S
C283 H286 0.930 . S
N284 Co264 2.194 . S
N284 C279 1.328 . S
N284 C283 1.315 . S
H285 C279 0.929 . S
H286 C283 0.930 . S
H287 C275 0.929 . S
H288 C277 0.929 . S
O289 Co264 2.351 . S
O289 C292 1.244 . S
O290 Co264 2.155 . S
O290 C292 1.240 . S
O291 Co264 2.096 . S
O291 C272 1.247 . S
C292 O289 1.244 . S
C292 O290 1.240 . S
H293 C267 0.931 . S
H294 C276 0.931 . S
H295 C280 0.929 . S
H296 C282 0.930 . S
Co297 N301 2.148 . S
Co297 N307 2.128 . S
Co297 N317 2.194 . S
Co297 O322 2.351 . S
Co297 O323 2.155 . S
Co297 O324 2.096 . S
C298 N301 1.301 . S
C298 N302 1.328 . S
C298 H303 0.930 . S
C299 C300 1.333 . S
C299 N301 1.317 . S
C299 H304 0.930 . S
C300 C299 1.333 . S
C300 N302 1.350 . S
C300 H326 0.931 . S
N301 Co297 2.148 . S
N301 C298 1.301 . S
N301 C299 1.317 . S
N302 C298 1.328 . S
N302 C300 1.350 . S
H303 C298 0.930 . S
H304 C299 0.930 . S
C305 O306 1.224 . S
C305 O324 1.247 . S
O306 C305 1.224 . S
N307 Co297 2.128 . S
N307 C308 1.355 . S
N307 C310 1.311 . S
C308 N307 1.355 . S
C308 C309 1.363 . S
C308 H320 0.929 . S
C309 C308 1.363 . S
C309 N311 1.375 . S
C309 H327 0.931 . S
C310 N307 1.311 . S
C310 N311 1.347 . S
C310 H321 0.929 . S
N311 C309 1.375 . S
N311 C310 1.347 . S
C312 C315 1.365 . S
C312 N317 1.328 . S
C312 H318 0.929 . S
C313 C314 1.362 . S
C313 C316 1.378 . S
C313 H328 0.929 . S
C314 C313 1.362 . S
C314 C315 1.366 . S
C315 C312 1.365 . S
C315 C314 1.366 . S
C315 H329 0.930 . S
C316 C313 1.378 . S
C316 N317 1.315 . S
C316 H319 0.930 . S
N317 Co297 2.194 . S
N317 C312 1.328 . S
N317 C316 1.315 . S
H318 C312 0.929 . S
H319 C316 0.930 . S
H320 C308 0.929 . S
H321 C310 0.929 . S
O322 Co297 2.351 . S
O322 C325 1.244 . S
O323 Co297 2.155 . S
O323 C325 1.240 . S
O324 Co297 2.096 . S
O324 C305 1.247 . S
C325 O322 1.244 . S
C325 O323 1.240 . S
H326 C300 0.931 . S
H327 C309 0.931 . S
H328 C313 0.929 . S
H329 C315 0.930 . S
Co330 N334 2.148 . S
Co330 N340 2.128 . S
Co330 N350 2.194 . S
Co330 O355 2.351 . S
Co330 O356 2.155 . S
Co330 O357 2.096 . S
C331 N334 1.301 . S
C331 N335 1.328 . S
C331 H336 0.930 . S
C332 C333 1.333 . S
C332 N334 1.317 . S
C332 H337 0.930 . S
C333 C332 1.333 . S
C333 N335 1.350 . S
C333 H359 0.931 . S
N334 Co330 2.148 . S
N334 C331 1.301 . S
N334 C332 1.317 . S
N335 C331 1.328 . S
N335 C333 1.350 . S
H336 C331 0.930 . S
H337 C332 0.930 . S
C338 O339 1.224 . S
C338 O357 1.247 . S
O339 C338 1.224 . S
N340 Co330 2.128 . S
N340 C341 1.355 . S
N340 C343 1.311 . S
C341 N340 1.355 . S
C341 C342 1.363 . S
C341 H353 0.929 . S
C342 C341 1.363 . S
C342 N344 1.375 . S
C342 H360 0.931 . S
C343 N340 1.311 . S
C343 N344 1.347 . S
C343 H354 0.929 . S
N344 C342 1.375 . S
N344 C343 1.347 . S
C345 C348 1.365 . S
C345 N350 1.328 . S
C345 H351 0.929 . S
C346 C347 1.362 . S
C346 C349 1.378 . S
C346 H361 0.929 . S
C347 C346 1.362 . S
C347 C348 1.366 . S
C348 C345 1.365 . S
C348 C347 1.366 . S
C348 H362 0.930 . S
C349 C346 1.378 . S
C349 N350 1.315 . S
C349 H352 0.930 . S
N350 Co330 2.194 . S
N350 C345 1.328 . S
N350 C349 1.315 . S
H351 C345 0.929 . S
H352 C349 0.930 . S
H353 C341 0.929 . S
H354 C343 0.929 . S
O355 Co330 2.351 . S
O355 C358 1.244 . S
O356 Co330 2.155 . S
O356 C358 1.240 . S
O357 Co330 2.096 . S
O357 C338 1.247 . S
C358 O355 1.244 . S
C358 O356 1.240 . S
H359 C333 0.931 . S
H360 C342 0.931 . S
H361 C346 0.929 . S
H362 C348 0.930 . S
Co363 N367 2.148 . S
Co363 N373 2.128 . S
Co363 N383 2.194 . S
Co363 O388 2.351 . S
Co363 O389 2.155 . S
Co363 O390 2.096 . S
C364 N367 1.301 . S
C364 N368 1.328 . S
C364 H369 0.930 . S
C365 C366 1.333 . S
C365 N367 1.317 . S
C365 H370 0.930 . S
C366 C365 1.333 . S
C366 N368 1.350 . S
C366 H392 0.931 . S
N367 Co363 2.148 . S
N367 C364 1.301 . S
N367 C365 1.317 . S
N368 C364 1.328 . S
N368 C366 1.350 . S
H369 C364 0.930 . S
H370 C365 0.930 . S
C371 O372 1.224 . S
C371 O390 1.247 . S
O372 C371 1.224 . S
N373 Co363 2.128 . S
N373 C374 1.355 . S
N373 C376 1.311 . S
C374 N373 1.355 . S
C374 C375 1.363 . S
C374 H386 0.929 . S
C375 C374 1.363 . S
C375 N377 1.375 . S
C375 H393 0.931 . S
C376 N373 1.311 . S
C376 N377 1.347 . S
C376 H387 0.929 . S
N377 C375 1.375 . S
N377 C376 1.347 . S
C378 C381 1.365 . S
C378 N383 1.328 . S
C378 H384 0.929 . S
C379 C380 1.362 . S
C379 C382 1.378 . S
C379 H394 0.929 . S
C380 C379 1.362 . S
C380 C381 1.366 . S
C381 C378 1.365 . S
C381 C380 1.366 . S
C381 H395 0.930 . S
C382 C379 1.378 . S
C382 N383 1.315 . S
C382 H385 0.930 . S
N383 Co363 2.194 . S
N383 C378 1.328 . S
N383 C382 1.315 . S
H384 C378 0.929 . S
H385 C382 0.930 . S
H386 C374 0.929 . S
H387 C376 0.929 . S
O388 Co363 2.351 . S
O388 C391 1.244 . S
O389 Co363 2.155 . S
O389 C391 1.240 . S
O390 Co363 2.096 . S
O390 C371 1.247 . S
C391 O388 1.244 . S
C391 O389 1.240 . S
H392 C366 0.931 . S
H393 C375 0.931 . S
H394 C379 0.929 . S
H395 C381 0.930 . S
Co396 N400 2.148 . S
Co396 N406 2.128 . S
Co396 N416 2.194 1_554 S
Co396 O421 2.351 1_554 S
Co396 O422 2.155 . S
Co396 O423 2.096 . S
C397 N400 1.301 1_556 S
C397 N401 1.328 . S
C397 H402 0.930 . S
C398 C399 1.333 . S
C398 N400 1.317 . S
C398 H403 0.930 . S
C399 C398 1.333 . S
C399 N401 1.350 1_554 S
C399 H425 0.931 . S
N400 Co396 2.148 . S
N400 C397 1.301 1_554 S
N400 C398 1.317 . S
N401 C397 1.328 . S
N401 C399 1.350 1_556 S
H402 C397 0.930 . S
H403 C398 0.930 . S
C404 O405 1.224 . S
C404 O423 1.247 . S
O405 C404 1.224 . S
N406 Co396 2.128 . S
N406 C407 1.355 1_554 S
N406 C409 1.311 . S
C407 N406 1.355 1_556 S
C407 C408 1.363 . S
C407 H419 0.929 . S
C408 C407 1.363 . S
C408 N410 1.375 1_556 S
C408 H426 0.931 . S
C409 N406 1.311 . S
C409 N410 1.347 . S
C409 H420 0.929 . S
N410 C408 1.375 1_554 S
N410 C409 1.347 . S
C411 C414 1.365 . S
C411 N416 1.328 . S
C411 H417 0.929 . S
C412 C413 1.362 . S
C412 C415 1.378 . S
C412 H427 0.929 . S
C413 C412 1.362 . S
C413 C414 1.366 . S
C414 C411 1.365 . S
C414 C413 1.366 . S
C414 H428 0.930 . S
C415 C412 1.378 . S
C415 N416 1.315 . S
C415 H418 0.930 . S
N416 Co396 2.194 1_556 S
N416 C411 1.328 . S
N416 C415 1.315 . S
H417 C411 0.929 . S
H418 C415 0.930 . S
H419 C407 0.929 . S
H420 C409 0.929 . S
O421 Co396 2.351 1_556 S
O421 C424 1.244 . S
O422 Co396 2.155 . S
O422 C424 1.240 1_554 S
O423 Co396 2.096 . S
O423 C404 1.247 . S
C424 O421 1.244 . S
C424 O422 1.240 1_556 S
H425 C399 0.931 . S
H426 C408 0.931 . S
H427 C412 0.929 . S
H428 C414 0.930 . S
Co429 N433 2.148 . S
Co429 N439 2.128 . S
Co429 N449 2.194 1_554 S
Co429 O454 2.351 1_554 S
Co429 O455 2.155 . S
Co429 O456 2.096 . S
C430 N433 1.301 1_556 S
C430 N434 1.328 . S
C430 H435 0.930 . S
C431 C432 1.333 . S
C431 N433 1.317 . S
C431 H436 0.930 . S
C432 C431 1.333 . S
C432 N434 1.350 1_554 S
C432 H458 0.931 . S
N433 Co429 2.148 . S
N433 C430 1.301 1_554 S
N433 C431 1.317 . S
N434 C430 1.328 . S
N434 C432 1.350 1_556 S
H435 C430 0.930 . S
H436 C431 0.930 . S
C437 O438 1.224 . S
C437 O456 1.247 . S
O438 C437 1.224 . S
N439 Co429 2.128 . S
N439 C440 1.355 1_554 S
N439 C442 1.311 . S
C440 N439 1.355 1_556 S
C440 C441 1.363 . S
C440 H452 0.929 . S
C441 C440 1.363 . S
C441 N443 1.375 1_556 S
C441 H459 0.931 . S
C442 N439 1.311 . S
C442 N443 1.347 . S
C442 H453 0.929 . S
N443 C441 1.375 1_554 S
N443 C442 1.347 . S
C444 C447 1.365 . S
C444 N449 1.328 . S
C444 H450 0.929 . S
C445 C446 1.362 . S
C445 C448 1.378 . S
C445 H460 0.929 . S
C446 C445 1.362 . S
C446 C447 1.366 . S
C447 C444 1.365 . S
C447 C446 1.366 . S
C447 H461 0.930 . S
C448 C445 1.378 . S
C448 N449 1.315 . S
C448 H451 0.930 . S
N449 Co429 2.194 1_556 S
N449 C444 1.328 . S
N449 C448 1.315 . S
H450 C444 0.929 . S
H451 C448 0.930 . S
H452 C440 0.929 . S
H453 C442 0.929 . S
O454 Co429 2.351 1_556 S
O454 C457 1.244 . S
O455 Co429 2.155 . S
O455 C457 1.240 1_554 S
O456 Co429 2.096 . S
O456 C437 1.247 . S
C457 O454 1.244 . S
C457 O455 1.240 1_556 S
H458 C432 0.931 . S
H459 C441 0.931 . S
H460 C445 0.929 . S
H461 C447 0.930 . S
Co462 N466 2.148 . S
Co462 N472 2.128 . S
Co462 N482 2.194 . S
Co462 O487 2.351 . S
Co462 O488 2.155 . S
Co462 O489 2.096 . S
C463 N466 1.301 . S
C463 N467 1.328 . S
C463 H468 0.930 . S
C464 C465 1.333 . S
C464 N466 1.317 . S
C464 H469 0.930 . S
C465 C464 1.333 . S
C465 N467 1.350 . S
C465 H491 0.931 . S
N466 Co462 2.148 . S
N466 C463 1.301 . S
N466 C464 1.317 . S
N467 C463 1.328 . S
N467 C465 1.350 . S
H468 C463 0.930 . S
H469 C464 0.930 . S
C470 O471 1.224 . S
C470 O489 1.247 . S
O471 C470 1.224 . S
N472 Co462 2.128 . S
N472 C473 1.355 . S
N472 C475 1.311 . S
C473 N472 1.355 . S
C473 C474 1.363 . S
C473 H485 0.929 . S
C474 C473 1.363 . S
C474 N476 1.375 . S
C474 H492 0.931 . S
C475 N472 1.311 . S
C475 N476 1.347 . S
C475 H486 0.929 . S
N476 C474 1.375 . S
N476 C475 1.347 . S
C477 C480 1.365 . S
C477 N482 1.328 . S
C477 H483 0.929 . S
C478 C479 1.362 . S
C478 C481 1.378 . S
C478 H493 0.929 . S
C479 C478 1.362 . S
C479 C480 1.366 . S
C480 C477 1.365 . S
C480 C479 1.366 . S
C480 H494 0.930 . S
C481 C478 1.378 . S
C481 N482 1.315 . S
C481 H484 0.930 . S
N482 Co462 2.194 . S
N482 C477 1.328 . S
N482 C481 1.315 . S
H483 C477 0.929 . S
H484 C481 0.930 . S
H485 C473 0.929 . S
H486 C475 0.929 . S
O487 Co462 2.351 . S
O487 C490 1.244 . S
O488 Co462 2.155 . S
O488 C490 1.240 . S
O489 Co462 2.096 . S
O489 C470 1.247 . S
C490 O487 1.244 . S
C490 O488 1.240 . S
H491 C465 0.931 . S
H492 C474 0.931 . S
H493 C478 0.929 . S
H494 C480 0.930 . S
Co495 N499 2.148 . S
Co495 N505 2.128 . S
Co495 N515 2.194 . S
Co495 O520 2.351 . S
Co495 O521 2.155 . S
Co495 O522 2.096 . S
C496 N499 1.301 . S
C496 N500 1.328 . S
C496 H501 0.930 . S
C497 C498 1.333 . S
C497 N499 1.317 . S
C497 H502 0.930 . S
C498 C497 1.333 . S
C498 N500 1.350 . S
C498 H524 0.931 . S
N499 Co495 2.148 . S
N499 C496 1.301 . S
N499 C497 1.317 . S
N500 C496 1.328 . S
N500 C498 1.350 . S
H501 C496 0.930 . S
H502 C497 0.930 . S
C503 O504 1.224 . S
C503 O522 1.247 . S
O504 C503 1.224 . S
N505 Co495 2.128 . S
N505 C506 1.355 . S
N505 C508 1.311 . S
C506 N505 1.355 . S
C506 C507 1.363 . S
C506 H518 0.929 . S
C507 C506 1.363 . S
C507 N509 1.375 . S
C507 H525 0.931 . S
C508 N505 1.311 . S
C508 N509 1.347 . S
C508 H519 0.929 . S
N509 C507 1.375 . S
N509 C508 1.347 . S
C510 C513 1.365 . S
C510 N515 1.328 . S
C510 H516 0.929 . S
C511 C512 1.362 . S
C511 C514 1.378 . S
C511 H526 0.929 . S
C512 C511 1.362 . S
C512 C513 1.366 . S
C513 C510 1.365 . S
C513 C512 1.366 . S
C513 H527 0.930 . S
C514 C511 1.378 . S
C514 N515 1.315 . S
C514 H517 0.930 . S
N515 Co495 2.194 . S
N515 C510 1.328 . S
N515 C514 1.315 . S
H516 C510 0.929 . S
H517 C514 0.930 . S
H518 C506 0.929 . S
H519 C508 0.929 . S
O520 Co495 2.351 . S
O520 C523 1.244 . S
O521 Co495 2.155 . S
O521 C523 1.240 . S
O522 Co495 2.096 . S
O522 C503 1.247 . S
C523 O520 1.244 . S
C523 O521 1.240 . S
H524 C498 0.931 . S
H525 C507 0.931 . S
H526 C511 0.929 . S
H527 C513 0.930 . S
H528 C536 0.929 1_554 S
H529 C538 0.930 . S
H530 C540 0.930 . S
H531 C543 0.929 . S
H532 C546 0.930 . S
H533 C548 0.960 . S
H534 C548 0.960 . S
H535 C548 0.960 . S
C536 H528 0.929 1_556 S
C536 C537 1.377 . S
C536 C538 1.384 . S
C537 C536 1.377 . S
C537 C543 1.390 . S
C538 H529 0.930 . S
C538 C536 1.384 . S
C538 C539 1.372 . S
C539 C538 1.372 . S
C539 C540 1.400 . S
C539 C544 1.490 . S
C540 H530 0.930 . S
C540 C539 1.400 . S
C540 C543 1.386 . S
H541 C557 0.930 . S
H542 C558 0.931 . S
C543 H531 0.929 . S
C543 C537 1.390 . S
C543 C540 1.386 . S
C544 C539 1.490 . S
C544 C546 1.395 . S
C544 C547 1.403 . S
H545 C551 0.930 . S
C546 H532 0.930 . S
C546 C544 1.395 . S
C546 C549 1.403 . S
C547 C544 1.403 . S
C547 C548 1.524 . S
C547 C551 1.400 . S
C548 H533 0.960 . S
C548 H534 0.960 . S
C548 H535 0.960 . S
C548 C547 1.524 . S
C549 C546 1.403 . S
C549 C550 1.392 . S
C549 C553 1.495 . S
C550 C549 1.392 . S
C550 C551 1.385 . S
C550 C552 1.478 . S
C551 H545 0.930 . S
C551 C547 1.400 . S
C551 C550 1.385 . S
C552 C550 1.478 . S
C552 C554 1.381 . S
C552 C558 1.383 . S
C553 C549 1.495 . S
C553 H559 0.959 . S
C553 H560 0.961 . S
C553 H561 0.960 . S
C554 C552 1.381 . S
C554 C555 1.394 . S
C554 H562 0.930 . S
C555 C554 1.394 . S
C555 C556 1.383 . S
C555 H563 0.929 . S
C556 C555 1.383 . S
C556 C557 1.377 . S
C557 H541 0.930 . S
C557 C556 1.377 . S
C557 C558 1.379 . S
C558 H542 0.931 . S
C558 C552 1.383 . S
C558 C557 1.379 . S
H559 C553 0.959 . S
H560 C553 0.961 . S
H561 C553 0.960 . S
H562 C554 0.930 . S
H563 C555 0.929 . S
H564 C572 0.929 . S
H565 C574 0.930 . S
H566 C576 0.930 . S
H567 C579 0.929 . S
H568 C582 0.930 . S
H569 C584 0.960 . S
H570 C584 0.960 . S
H571 C584 0.960 . S
C572 H564 0.929 . S
C572 C573 1.377 . S
C572 C574 1.384 . S
C573 C572 1.377 . S
C573 C579 1.390 . S
C574 H565 0.930 . S
C574 C572 1.384 . S
C574 C575 1.372 . S
C575 C574 1.372 . S
C575 C576 1.400 . S
C575 C580 1.490 . S
C576 H566 0.930 . S
C576 C575 1.400 . S
C576 C579 1.386 . S
H577 C593 0.930 . S
H578 C594 0.931 . S
C579 H567 0.929 . S
C579 C573 1.390 . S
C579 C576 1.386 . S
C580 C575 1.490 . S
C580 C582 1.395 . S
C580 C583 1.403 . S
H581 C587 0.930 . S
C582 H568 0.930 . S
C582 C580 1.395 . S
C582 C585 1.403 . S
C583 C580 1.403 . S
C583 C584 1.524 . S
C583 C587 1.400 . S
C584 H569 0.960 . S
C584 H570 0.960 . S
C584 H571 0.960 . S
C584 C583 1.524 . S
C585 C582 1.403 . S
C585 C586 1.392 . S
C585 C589 1.495 . S
C586 C585 1.392 . S
C586 C587 1.385 . S
C586 C588 1.478 . S
C587 H581 0.930 . S
C587 C583 1.400 . S
C587 C586 1.385 . S
C588 C586 1.478 . S
C588 C590 1.381 . S
C588 C594 1.383 . S
C589 C585 1.495 . S
C589 H595 0.959 . S
C589 H596 0.961 . S
C589 H597 0.960 . S
C590 C588 1.381 . S
C590 C591 1.394 . S
C590 H598 0.930 . S
C591 C590 1.394 . S
C591 C592 1.383 . S
C591 H599 0.929 . S
C592 C591 1.383 . S
C592 C593 1.377 . S
C593 H577 0.930 . S
C593 C592 1.377 . S
C593 C594 1.379 . S
C594 H578 0.931 . S
C594 C588 1.383 . S
C594 C593 1.379 . S
H595 C589 0.959 . S
H596 C589 0.961 . S
H597 C589 0.960 . S
H598 C590 0.930 . S
H599 C591 0.929 . S
H600 C608 0.929 . S
H601 C610 0.930 . S
H602 C612 0.930 . S
H603 C615 0.939 . S
H604 C618 0.930 . S
H605 C620 0.960 . S
H606 C620 0.960 . S
H607 C620 0.960 . S
C608 H600 0.929 . S
C608 C609 1.377 . S
C608 C610 1.384 . S
C609 C608 1.377 . S
C609 C615 1.386 1_455 S
C610 H601 0.930 . S
C610 C608 1.384 . S
C610 C611 1.372 . S
C611 C610 1.372 . S
C611 C612 1.400 . S
C611 C616 1.490 . S
C612 H602 0.930 . S
C612 C611 1.400 . S
C612 C615 1.380 1_455 S
H613 C629 0.930 . S
H614 C630 0.931 . S
C615 H603 0.939 . S
C615 C609 1.386 1_655 S
C615 C612 1.380 1_655 S
C616 C611 1.490 . S
C616 C618 1.395 . S
C616 C619 1.403 . S
H617 C623 0.930 . S
C618 H604 0.930 . S
C618 C616 1.395 . S
C618 C621 1.403 . S
C619 C616 1.403 . S
C619 C620 1.524 . S
C619 C623 1.400 . S
C620 H605 0.960 . S
C620 H606 0.960 . S
C620 H607 0.960 . S
C620 C619 1.524 . S
C621 C618 1.403 . S
C621 C622 1.392 . S
C621 C625 1.495 . S
C622 C621 1.392 . S
C622 C623 1.385 . S
C622 C624 1.478 . S
C623 H617 0.930 . S
C623 C619 1.400 . S
C623 C622 1.385 . S
C624 C622 1.478 . S
C624 C626 1.381 . S
C624 C630 1.383 . S
C625 C621 1.495 . S
C625 H631 0.959 . S
C625 H632 0.961 . S
C625 H633 0.960 . S
C626 C624 1.381 . S
C626 C627 1.394 . S
C626 H634 0.930 . S
C627 C626 1.394 . S
C627 C628 1.383 . S
C627 H635 0.929 . S
C628 C627 1.383 . S
C628 C629 1.377 . S
C629 H613 0.930 . S
C629 C628 1.377 . S
C629 C630 1.379 . S
C630 H614 0.931 . S
C630 C624 1.383 . S
C630 C629 1.379 . S
H631 C625 0.959 . S
H632 C625 0.961 . S
H633 C625 0.960 . S
H634 C626 0.930 . S
H635 C627 0.929 . S
H636 C644 0.929 . S
H637 C646 0.930 . S
H638 C648 0.930 . S
H639 C651 0.929 . S
H640 C654 0.930 . S
H641 C656 0.960 . S
H642 C656 0.960 . S
H643 C656 0.960 . S
C644 H636 0.929 . S
C644 C645 1.377 . S
C644 C646 1.384 . S
C645 C644 1.377 . S
C645 C651 1.390 . S
C646 H637 0.930 . S
C646 C644 1.384 . S
C646 C647 1.372 . S
C647 C646 1.372 . S
C647 C648 1.400 . S
C647 C652 1.490 . S
C648 H638 0.930 . S
C648 C647 1.400 . S
C648 C651 1.386 . S
H649 C665 0.930 . S
H650 C666 0.931 . S
C651 H639 0.929 . S
C651 C645 1.390 . S
C651 C648 1.386 . S
C652 C647 1.490 . S
C652 C654 1.395 . S
C652 C655 1.403 . S
H653 C659 0.930 . S
C654 H640 0.930 . S
C654 C652 1.395 . S
C654 C657 1.403 . S
C655 C652 1.403 . S
C655 C656 1.524 . S
C655 C659 1.400 . S
C656 H641 0.960 . S
C656 H642 0.960 . S
C656 H643 0.960 . S
C656 C655 1.524 . S
C657 C654 1.403 . S
C657 C658 1.392 . S
C657 C661 1.495 . S
C658 C657 1.392 . S
C658 C659 1.385 . S
C658 C660 1.478 . S
C659 H653 0.930 . S
C659 C655 1.400 . S
C659 C658 1.385 . S
C660 C658 1.478 . S
C660 C662 1.381 . S
C660 C666 1.383 . S
C661 C657 1.495 . S
C661 H667 0.959 . S
C661 H668 0.961 . S
C661 H669 0.960 . S
C662 C660 1.381 . S
C662 C663 1.394 . S
C662 H670 0.930 . S
C663 C662 1.394 . S
C663 C664 1.383 . S
C663 H671 0.929 . S
C664 C663 1.383 . S
C664 C665 1.377 . S
C665 H649 0.930 . S
C665 C664 1.377 . S
C665 C666 1.379 . S
C666 H650 0.931 . S
C666 C660 1.383 . S
C666 C665 1.379 . S
H667 C661 0.959 . S
H668 C661 0.961 . S
H669 C661 0.960 . S
H670 C662 0.930 . S
H671 C663 0.929 . S
H672 C680 0.929 . S
H673 C682 0.930 . S
H674 C684 0.930 . S
H675 C687 0.929 . S
H676 C690 0.930 . S
H677 C692 0.960 . S
H678 C692 0.960 . S
H679 C692 0.960 . S
C680 H672 0.929 . S
C680 C681 1.377 . S
C680 C682 1.384 . S
C681 C680 1.377 . S
C681 C687 1.390 . S
C682 H673 0.930 . S
C682 C680 1.384 . S
C682 C683 1.372 . S
C683 C682 1.372 . S
C683 C684 1.400 . S
C683 C688 1.490 . S
C684 H674 0.930 . S
C684 C683 1.400 . S
C684 C687 1.386 . S
H685 C701 0.930 . S
H686 C702 0.931 . S
C687 H675 0.929 . S
C687 C681 1.390 . S
C687 C684 1.386 . S
C688 C683 1.490 . S
C688 C690 1.395 . S
C688 C691 1.403 . S
H689 C695 0.930 . S
C690 H676 0.930 . S
C690 C688 1.395 . S
C690 C693 1.403 . S
C691 C688 1.403 . S
C691 C692 1.524 . S
C691 C695 1.400 . S
C692 H677 0.960 . S
C692 H678 0.960 . S
C692 H679 0.960 . S
C692 C691 1.524 . S
C693 C690 1.403 . S
C693 C694 1.392 . S
C693 C697 1.495 . S
C694 C693 1.392 . S
C694 C695 1.385 . S
C694 C696 1.478 . S
C695 H689 0.930 . S
C695 C691 1.400 . S
C695 C694 1.385 . S
C696 C694 1.478 . S
C696 C698 1.381 . S
C696 C702 1.383 . S
C697 C693 1.495 . S
C697 H703 0.959 . S
C697 H704 0.961 . S
C697 H705 0.960 . S
C698 C696 1.381 . S
C698 C699 1.394 . S
C698 H706 0.930 . S
C699 C698 1.394 . S
C699 C700 1.383 . S
C699 H707 0.929 . S
C700 C699 1.383 . S
C700 C701 1.377 . S
C701 H685 0.930 . S
C701 C700 1.377 . S
C701 C702 1.379 . S
C702 H686 0.931 . S
C702 C696 1.383 . S
C702 C701 1.379 . S
H703 C697 0.959 . S
H704 C697 0.961 . S
H705 C697 0.960 . S
H706 C698 0.930 . S
H707 C699 0.929 . S
H708 C716 0.929 . S
H709 C718 0.930 . S
H710 C720 0.930 . S
H711 C723 0.929 . S
H712 C726 0.930 . S
H713 C728 0.960 . S
H714 C728 0.960 . S
H715 C728 0.960 . S
C716 H708 0.929 . S
C716 C717 1.377 . S
C716 C718 1.384 . S
C717 C716 1.377 . S
C717 C723 1.390 . S
C718 H709 0.930 . S
C718 C716 1.384 . S
C718 C719 1.372 . S
C719 C718 1.372 . S
C719 C720 1.400 . S
C719 C724 1.490 . S
C720 H710 0.930 . S
C720 C719 1.400 . S
C720 C723 1.386 . S
H721 C737 0.930 . S
H722 C738 0.931 . S
C723 H711 0.929 . S
C723 C717 1.390 . S
C723 C720 1.386 . S
C724 C719 1.490 . S
C724 C726 1.395 . S
C724 C727 1.403 . S
H725 C731 0.930 . S
C726 H712 0.930 . S
C726 C724 1.395 . S
C726 C729 1.403 . S
C727 C724 1.403 . S
C727 C728 1.524 . S
C727 C731 1.400 . S
C728 H713 0.960 . S
C728 H714 0.960 . S
C728 H715 0.960 . S
C728 C727 1.524 . S
C729 C726 1.403 . S
C729 C730 1.392 . S
C729 C733 1.495 . S
C730 C729 1.392 . S
C730 C731 1.385 . S
C730 C732 1.478 . S
C731 H725 0.930 . S
C731 C727 1.400 . S
C731 C730 1.385 . S
C732 C730 1.478 . S
C732 C734 1.381 . S
C732 C738 1.383 . S
C733 C729 1.495 . S
C733 H739 0.959 . S
C733 H740 0.961 . S
C733 H741 0.960 . S
C734 C732 1.381 . S
C734 C735 1.394 . S
C734 H742 0.930 . S
C735 C734 1.394 . S
C735 C736 1.383 . S
C735 H743 0.929 . S
C736 C735 1.383 . S
C736 C737 1.377 . S
C737 H721 0.930 . S
C737 C736 1.377 . S
C737 C738 1.379 . S
C738 H722 0.931 . S
C738 C732 1.383 . S
C738 C737 1.379 . S
H739 C733 0.959 . S
H740 C733 0.961 . S
H741 C733 0.960 . S
H742 C734 0.930 . S
H743 C735 0.929 . S
H744 C752 0.929 . S
H745 C754 0.930 . S
H746 C756 0.930 . S
H747 C759 0.911 1_655 S
H748 C762 0.930 . S
H749 C764 0.960 . S
H750 C764 0.960 . S
H751 C764 0.960 . S
C752 H744 0.929 . S
C752 C753 1.377 . S
C752 C754 1.384 . S
C753 C752 1.377 . S
C753 C759 1.390 . S
C754 H745 0.930 . S
C754 C752 1.384 . S
C754 C755 1.372 . S
C755 C754 1.372 . S
C755 C756 1.400 . S
C755 C760 1.490 . S
C756 H746 0.930 . S
C756 C755 1.400 . S
C756 C759 1.386 . S
H757 C773 0.930 . S
H758 C774 0.931 . S
C759 H747 0.911 1_455 S
C759 C753 1.390 . S
C759 C756 1.386 . S
C760 C755 1.490 . S
C760 C762 1.395 . S
C760 C763 1.403 . S
H761 C767 0.930 . S
C762 H748 0.930 . S
C762 C760 1.395 . S
C762 C765 1.403 . S
C763 C760 1.403 . S
C763 C764 1.524 . S
C763 C767 1.400 . S
C764 H749 0.960 . S
C764 H750 0.960 . S
C764 H751 0.960 . S
C764 C763 1.524 . S
C765 C762 1.403 . S
C765 C766 1.392 . S
C765 C769 1.495 . S
C766 C765 1.392 . S
C766 C767 1.385 . S
C766 C768 1.478 . S
C767 H761 0.930 . S
C767 C763 1.400 . S
C767 C766 1.385 . S
C768 C766 1.478 . S
C768 C770 1.381 . S
C768 C774 1.383 . S
C769 C765 1.495 . S
C769 H775 0.959 . S
C769 H776 0.961 . S
C769 H777 0.960 . S
C770 C768 1.381 . S
C770 C771 1.394 . S
C770 H778 0.930 . S
C771 C770 1.394 . S
C771 C772 1.383 . S
C771 H779 0.929 . S
C772 C771 1.383 . S
C772 C773 1.377 . S
C773 H757 0.930 . S
C773 C772 1.377 . S
C773 C774 1.379 . S
C774 H758 0.931 . S
C774 C768 1.383 . S
C774 C773 1.379 . S
H775 C769 0.959 . S
H776 C769 0.961 . S
H777 C769 0.960 . S
H778 C770 0.930 . S
H779 C771 0.929 . S
H780 C788 0.929 . S
H781 C790 0.930 . S
H782 C792 0.930 . S
H783 C795 0.929 . S
H784 C798 0.930 . S
H785 C800 0.960 . S
H786 C800 0.960 . S
H787 C800 0.960 . S
C788 H780 0.929 . S
C788 C789 1.377 . S
C788 C790 1.384 . S
C789 C788 1.377 . S
C789 C795 1.390 . S
C790 H781 0.930 . S
C790 C788 1.384 . S
C790 C791 1.372 . S
C791 C790 1.372 . S
C791 C792 1.400 . S
C791 C796 1.490 . S
C792 H782 0.930 . S
C792 C791 1.400 . S
C792 C795 1.386 . S
H793 C809 0.930 . S
H794 C810 0.931 . S
C795 H783 0.929 . S
C795 C789 1.390 . S
C795 C792 1.386 . S
C796 C791 1.490 . S
C796 C798 1.395 . S
C796 C799 1.403 . S
H797 C803 0.930 . S
C798 H784 0.930 . S
C798 C796 1.395 . S
C798 C801 1.403 . S
C799 C796 1.403 . S
C799 C800 1.524 . S
C799 C803 1.400 . S
C800 H785 0.960 . S
C800 H786 0.960 . S
C800 H787 0.960 . S
C800 C799 1.524 . S
C801 C798 1.403 . S
C801 C802 1.392 . S
C801 C805 1.495 . S
C802 C801 1.392 . S
C802 C803 1.385 . S
C802 C804 1.478 . S
C803 H797 0.930 . S
C803 C799 1.400 . S
C803 C802 1.385 . S
C804 C802 1.478 . S
C804 C806 1.381 . S
C804 C810 1.383 . S
C805 C801 1.495 . S
C805 H811 0.959 . S
C805 H812 0.961 . S
C805 H813 0.960 . S
C806 C804 1.381 . S
C806 C807 1.394 . S
C806 H814 0.930 . S
C807 C806 1.394 . S
C807 C808 1.383 . S
C807 H815 0.929 1_655 S
C808 C807 1.383 . S
C808 C809 1.377 . S
C809 H793 0.930 . S
C809 C808 1.377 . S
C809 C810 1.379 . S
C810 H794 0.931 . S
C810 C804 1.383 . S
C810 C809 1.379 . S
H811 C805 0.959 . S
H812 C805 0.961 . S
H813 C805 0.960 . S
H814 C806 0.930 . S
H815 C807 0.929 1_455 S
H816 C824 0.929 . S
H817 C826 0.930 . S
H818 C828 0.930 . S
H819 C831 0.929 . S
H820 C834 0.930 . S
H821 C836 0.960 . S
H822 C836 0.960 . S
H823 C836 0.960 . S
C824 H816 0.929 . S
C824 C825 1.377 . S
C824 C826 1.384 . S
C825 C824 1.377 . S
C825 C831 1.390 . S
C826 H817 0.930 . S
C826 C824 1.384 . S
C826 C827 1.372 . S
C827 C826 1.372 . S
C827 C828 1.400 . S
C827 C832 1.490 . S
C828 H818 0.930 . S
C828 C827 1.400 . S
C828 C831 1.386 . S
H829 C845 0.930 . S
H830 C846 0.931 . S
C831 H819 0.929 . S
C831 C825 1.390 . S
C831 C828 1.386 . S
C832 C827 1.490 . S
C832 C834 1.395 . S
C832 C835 1.403 . S
H833 C839 0.930 . S
C834 H820 0.930 . S
C834 C832 1.395 . S
C834 C837 1.403 . S
C835 C832 1.403 . S
C835 C836 1.524 . S
C835 C839 1.400 . S
C836 H821 0.960 . S
C836 H822 0.960 . S
C836 H823 0.960 . S
C836 C835 1.524 . S
C837 C834 1.403 . S
C837 C838 1.392 . S
C837 C841 1.495 . S
C838 C837 1.392 . S
C838 C839 1.385 . S
C838 C840 1.478 . S
C839 H833 0.930 . S
C839 C835 1.400 . S
C839 C838 1.385 . S
C840 C838 1.478 . S
C840 C842 1.381 . S
C840 C846 1.383 . S
C841 C837 1.495 . S
C841 H847 0.959 . S
C841 H848 0.961 . S
C841 H849 0.960 . S
C842 C840 1.381 . S
C842 C843 1.394 . S
C842 H850 0.930 . S
C843 C842 1.394 . S
C843 C844 1.383 . S
C843 H851 0.929 . S
C844 C843 1.383 . S
C844 C845 1.377 . S
C845 H829 0.930 . S
C845 C844 1.377 . S
C845 C846 1.379 . S
C846 H830 0.931 . S
C846 C840 1.383 . S
C846 C845 1.379 . S
H847 C841 0.959 . S
H848 C841 0.961 . S
H849 C841 0.960 . S
H850 C842 0.930 . S
H851 C843 0.929 . S
H852 C860 0.929 . S
H853 C862 0.930 . S
H854 C864 0.930 . S
H855 C867 0.929 . S
H856 C870 0.930 . S
H857 C872 0.960 . S
H858 C872 0.960 . S
H859 C872 0.960 . S
C860 H852 0.929 . S
C860 C861 1.377 . S
C860 C862 1.384 . S
C861 C860 1.377 . S
C861 C867 1.390 . S
C862 H853 0.930 . S
C862 C860 1.384 . S
C862 C863 1.372 . S
C863 C862 1.372 . S
C863 C864 1.400 . S
C863 C868 1.490 . S
C864 H854 0.930 . S
C864 C863 1.400 . S
C864 C867 1.386 . S
H865 C881 0.930 . S
H866 C882 0.931 . S
C867 H855 0.929 . S
C867 C861 1.390 . S
C867 C864 1.386 . S
C868 C863 1.490 . S
C868 C870 1.395 . S
C868 C871 1.403 . S
H869 C875 0.930 . S
C870 H856 0.930 . S
C870 C868 1.395 . S
C870 C873 1.403 . S
C871 C868 1.403 . S
C871 C872 1.524 . S
C871 C875 1.400 . S
C872 H857 0.960 . S
C872 H858 0.960 . S
C872 H859 0.960 . S
C872 C871 1.524 . S
C873 C870 1.403 . S
C873 C874 1.392 . S
C873 C877 1.495 . S
C874 C873 1.392 . S
C874 C875 1.385 . S
C874 C876 1.478 . S
C875 H869 0.930 . S
C875 C871 1.400 . S
C875 C874 1.385 . S
C876 C874 1.478 . S
C876 C878 1.381 . S
C876 C882 1.383 . S
C877 C873 1.495 . S
C877 H883 0.959 . S
C877 H884 0.961 . S
C877 H885 0.960 . S
C878 C876 1.381 . S
C878 C879 1.394 . S
C878 H886 0.930 . S
C879 C878 1.394 . S
C879 C880 1.383 . S
C879 H887 0.929 . S
C880 C879 1.383 . S
C880 C881 1.377 . S
C881 H865 0.930 . S
C881 C880 1.377 . S
C881 C882 1.379 . S
C882 H866 0.931 . S
C882 C876 1.383 . S
C882 C881 1.379 . S
H883 C877 0.959 . S
H884 C877 0.961 . S
H885 C877 0.960 . S
H886 C878 0.930 . S
H887 C879 0.929 . S
H888 C896 0.929 . S
H889 C898 0.930 . S
H890 C900 0.930 . S
H891 C903 0.929 . S
H892 C906 0.930 . S
H893 C908 0.960 . S
H894 C908 0.960 . S
H895 C908 0.960 . S
C896 H888 0.929 . S
C896 C897 1.377 . S
C896 C898 1.384 . S
C897 C896 1.377 . S
C897 C903 1.390 . S
C898 H889 0.930 . S
C898 C896 1.384 . S
C898 C899 1.372 . S
C899 C898 1.372 . S
C899 C900 1.400 . S
C899 C904 1.490 . S
C900 H890 0.930 . S
C900 C899 1.400 . S
C900 C903 1.386 . S
H901 C917 0.930 . S
H902 C918 0.931 . S
C903 H891 0.929 . S
C903 C897 1.390 . S
C903 C900 1.386 . S
C904 C899 1.490 . S
C904 C906 1.395 . S
C904 C907 1.403 . S
H905 C911 0.930 . S
C906 H892 0.930 . S
C906 C904 1.395 . S
C906 C909 1.403 . S
C907 C904 1.403 . S
C907 C908 1.524 . S
C907 C911 1.400 . S
C908 H893 0.960 . S
C908 H894 0.960 . S
C908 H895 0.960 . S
C908 C907 1.524 . S
C909 C906 1.403 . S
C909 C910 1.392 . S
C909 C913 1.495 . S
C910 C909 1.392 . S
C910 C911 1.385 . S
C910 C912 1.478 . S
C911 H905 0.930 . S
C911 C907 1.400 . S
C911 C910 1.385 . S
C912 C910 1.478 . S
C912 C914 1.381 . S
C912 C918 1.383 . S
C913 C909 1.495 . S
C913 H919 0.959 . S
C913 H920 0.961 . S
C913 H921 0.960 . S
C914 C912 1.381 . S
C914 C915 1.394 . S
C914 H922 0.930 . S
C915 C914 1.394 . S
C915 C916 1.383 . S
C915 H923 0.929 . S
C916 C915 1.383 . S
C916 C917 1.377 . S
C917 H901 0.930 . S
C917 C916 1.377 . S
C917 C918 1.379 . S
C918 H902 0.931 . S
C918 C912 1.383 . S
C918 C917 1.379 . S
H919 C913 0.959 . S
H920 C913 0.961 . S
H921 C913 0.960 . S
H922 C914 0.930 . S
H923 C915 0.929 . S
H924 C932 0.929 . S
H925 C934 0.930 . S
H926 C936 0.930 . S
H927 C939 0.929 . S
H928 C942 0.930 . S
H929 C944 0.960 . S
H930 C944 0.960 . S
H931 C944 0.960 . S
C932 H924 0.929 . S
C932 C933 1.377 . S
C932 C934 1.384 . S
C933 C932 1.377 . S
C933 C939 1.390 . S
C934 H925 0.930 . S
C934 C932 1.384 . S
C934 C935 1.372 . S
C935 C934 1.372 . S
C935 C936 1.400 . S
C935 C940 1.490 . S
C936 H926 0.930 . S
C936 C935 1.400 . S
C936 C939 1.386 . S
H937 C953 0.930 . S
H938 C954 0.931 . S
C939 H927 0.929 . S
C939 C933 1.390 . S
C939 C936 1.386 . S
C940 C935 1.490 . S
C940 C942 1.395 . S
C940 C943 1.403 . S
H941 C947 0.930 . S
C942 H928 0.930 . S
C942 C940 1.395 . S
C942 C945 1.403 . S
C943 C940 1.403 . S
C943 C944 1.524 . S
C943 C947 1.400 . S
C944 H929 0.960 . S
C944 H930 0.960 . S
C944 H931 0.960 . S
C944 C943 1.524 . S
C945 C942 1.403 . S
C945 C946 1.392 . S
C945 C949 1.495 . S
C946 C945 1.392 . S
C946 C947 1.385 . S
C946 C948 1.478 . S
C947 H941 0.930 . S
C947 C943 1.400 . S
C947 C946 1.385 . S
C948 C946 1.478 . S
C948 C950 1.381 . S
C948 C954 1.383 . S
C949 C945 1.495 . S
C949 H955 0.959 . S
C949 H956 0.961 . S
C949 H957 0.960 . S
C950 C948 1.381 . S
C950 C951 1.394 . S
C950 H958 0.930 . S
C951 C950 1.394 . S
C951 C952 1.383 . S
C951 H959 0.929 . S
C952 C951 1.383 . S
C952 C953 1.377 . S
C953 H937 0.930 . S
C953 C952 1.377 . S
C953 C954 1.379 . S
C954 H938 0.931 . S
C954 C948 1.383 . S
C954 C953 1.379 . S
H955 C949 0.959 . S
H956 C949 0.961 . S
H957 C949 0.960 . S
H958 C950 0.930 . S
H959 C951 0.929 . S
H960 C968 0.929 . S
H961 C970 0.930 . S
H962 C972 0.930 . S
H963 C975 0.929 . S
H964 C978 0.930 . S
H965 C980 0.960 . S
H966 C980 0.960 . S
H967 C980 0.960 . S
C968 H960 0.929 . S
C968 C969 1.377 . S
C968 C970 1.384 . S
C969 C968 1.377 . S
C969 C975 1.390 . S
C970 H961 0.930 . S
C970 C968 1.384 . S
C970 C971 1.372 . S
C971 C970 1.372 . S
C971 C972 1.400 . S
C971 C976 1.490 . S
C972 H962 0.930 . S
C972 C971 1.400 . S
C972 C975 1.386 . S
H973 C989 0.930 . S
H974 C990 0.931 . S
C975 H963 0.929 . S
C975 C969 1.390 . S
C975 C972 1.386 . S
C976 C971 1.490 . S
C976 C978 1.395 . S
C976 C979 1.403 . S
H977 C983 0.930 . S
C978 H964 0.930 . S
C978 C976 1.395 . S
C978 C981 1.403 . S
C979 C976 1.403 . S
C979 C980 1.524 . S
C979 C983 1.400 . S
C980 H965 0.960 . S
C980 H966 0.960 . S
C980 H967 0.960 . S
C980 C979 1.524 . S
C981 C978 1.403 . S
C981 C982 1.392 . S
C981 C985 1.495 . S
C982 C981 1.392 . S
C982 C983 1.385 . S
C982 C984 1.478 . S
C983 H977 0.930 . S
C983 C979 1.400 . S
C983 C982 1.385 . S
C984 C982 1.478 . S
C984 C986 1.381 . S
C984 C990 1.383 . S
C985 C981 1.495 . S
C985 H991 0.959 . S
C985 H992 0.961 . S
C985 H993 0.960 . S
C986 C984 1.381 . S
C986 C987 1.394 . S
C986 H994 0.930 . S
C987 C986 1.394 . S
C987 C988 1.383 . S
C987 H995 0.929 . S
C988 C987 1.383 . S
C988 C989 1.377 . S
C989 H973 0.930 . S
C989 C988 1.377 . S
C989 C990 1.379 . S
C990 H974 0.931 . S
C990 C984 1.383 . S
C990 C989 1.379 . S
H991 C985 0.959 . S
H992 C985 0.961 . S
H993 C985 0.960 . S
H994 C986 0.930 . S
H995 C987 0.929 . S
H996 C1004 0.929 1_554 S
H997 C1006 0.930 . S
H998 C1008 0.930 . S
H999 C1011 0.929 . S
H1000 C1014 0.930 . S
H1001 C1016 0.960 . S
H1002 C1016 0.960 . S
H1003 C1016 0.960 . S
C1004 H996 0.929 1_556 S
C1004 C1005 1.377 . S
C1004 C1006 1.384 . S
C1005 C1004 1.377 . S
C1005 C1011 1.390 . S
C1006 H997 0.930 . S
C1006 C1004 1.384 . S
C1006 C1007 1.372 . S
C1007 C1006 1.372 . S
C1007 C1008 1.400 . S
C1007 C1012 1.490 . S
C1008 H998 0.930 . S
C1008 C1007 1.400 . S
C1008 C1011 1.386 . S
H1009 C1025 0.930 . S
H1010 C1026 0.931 . S
C1011 H999 0.929 . S
C1011 C1005 1.390 . S
C1011 C1008 1.386 . S
C1012 C1007 1.490 . S
C1012 C1014 1.395 . S
C1012 C1015 1.403 . S
H1013 C1019 0.930 . S
C1014 H1000 0.930 . S
C1014 C1012 1.395 . S
C1014 C1017 1.403 . S
C1015 C1012 1.403 . S
C1015 C1016 1.524 . S
C1015 C1019 1.400 . S
C1016 H1001 0.960 . S
C1016 H1002 0.960 . S
C1016 H1003 0.960 . S
C1016 C1015 1.524 . S
C1017 C1014 1.403 . S
C1017 C1018 1.392 . S
C1017 C1021 1.495 . S
C1018 C1017 1.392 . S
C1018 C1019 1.385 . S
C1018 C1020 1.478 . S
C1019 H1013 0.930 . S
C1019 C1015 1.400 . S
C1019 C1018 1.385 . S
C1020 C1018 1.478 . S
C1020 C1022 1.381 . S
C1020 C1026 1.383 . S
C1021 C1017 1.495 . S
C1021 H1027 0.959 . S
C1021 H1028 0.961 . S
C1021 H1029 0.960 . S
C1022 C1020 1.381 . S
C1022 C1023 1.394 . S
C1022 H1030 0.930 . S
C1023 C1022 1.394 . S
C1023 C1024 1.383 . S
C1023 H1031 0.929 . S
C1024 C1023 1.383 . S
C1024 C1025 1.377 . S
C1025 H1009 0.930 . S
C1025 C1024 1.377 . S
C1025 C1026 1.379 . S
C1026 H1010 0.931 . S
C1026 C1020 1.383 . S
C1026 C1025 1.379 . S
H1027 C1021 0.959 . S
H1028 C1021 0.961 . S
H1029 C1021 0.960 . S
H1030 C1022 0.930 . S
H1031 C1023 0.929 . S
H1032 C1040 0.929 . S
H1033 C1042 0.930 . S
H1034 C1044 0.930 . S
H1035 C1047 0.929 . S
H1036 C1050 0.930 . S
H1037 C1052 0.960 . S
H1038 C1052 0.960 . S
H1039 C1052 0.960 . S
C1040 H1032 0.929 . S
C1040 C1041 1.377 . S
C1040 C1042 1.384 . S
C1041 C1040 1.377 . S
C1041 C1047 1.390 . S
C1042 H1033 0.930 . S
C1042 C1040 1.384 . S
C1042 C1043 1.372 . S
C1043 C1042 1.372 . S
C1043 C1044 1.400 . S
C1043 C1048 1.490 . S
C1044 H1034 0.930 . S
C1044 C1043 1.400 . S
C1044 C1047 1.386 . S
H1045 C1061 0.930 . S
H1046 C1062 0.931 . S
C1047 H1035 0.929 . S
C1047 C1041 1.390 . S
C1047 C1044 1.386 . S
C1048 C1043 1.490 . S
C1048 C1050 1.395 . S
C1048 C1051 1.403 . S
H1049 C1055 0.930 . S
C1050 H1036 0.930 . S
C1050 C1048 1.395 . S
C1050 C1053 1.403 . S
C1051 C1048 1.403 . S
C1051 C1052 1.524 . S
C1051 C1055 1.400 . S
C1052 H1037 0.960 . S
C1052 H1038 0.960 . S
C1052 H1039 0.960 . S
C1052 C1051 1.524 . S
C1053 C1050 1.403 . S
C1053 C1054 1.392 . S
C1053 C1057 1.495 . S
C1054 C1053 1.392 . S
C1054 C1055 1.385 . S
C1054 C1056 1.478 . S
C1055 H1049 0.930 . S
C1055 C1051 1.400 . S
C1055 C1054 1.385 . S
C1056 C1054 1.478 . S
C1056 C1058 1.381 . S
C1056 C1062 1.383 . S
C1057 C1053 1.495 . S
C1057 H1063 0.959 . S
C1057 H1064 0.961 . S
C1057 H1065 0.960 . S
C1058 C1056 1.381 . S
C1058 C1059 1.394 . S
C1058 H1066 0.930 . S
C1059 C1058 1.394 . S
C1059 C1060 1.383 . S
C1059 H1067 0.929 . S
C1060 C1059 1.383 . S
C1060 C1061 1.377 . S
C1061 H1045 0.930 . S
C1061 C1060 1.377 . S
C1061 C1062 1.379 . S
C1062 H1046 0.931 . S
C1062 C1056 1.383 . S
C1062 C1061 1.379 . S
H1063 C1057 0.959 . S
H1064 C1057 0.961 . S
H1065 C1057 0.960 . S
H1066 C1058 0.930 . S
H1067 C1059 0.929 . S
H1068 C1076 0.929 . S
H1069 C1078 0.930 . S
H1070 C1080 0.930 . S
H1071 C1083 0.929 . S
H1072 C1086 0.930 . S
H1073 C1088 0.960 . S
H1074 C1088 0.960 . S
H1075 C1088 0.960 . S
C1076 H1068 0.929 . S
C1076 C1077 1.377 . S
C1076 C1078 1.384 . S
C1077 C1076 1.377 . S
C1077 C1083 1.390 . S
C1078 H1069 0.930 . S
C1078 C1076 1.384 . S
C1078 C1079 1.372 . S
C1079 C1078 1.372 . S
C1079 C1080 1.400 . S
C1079 C1084 1.490 . S
C1080 H1070 0.930 . S
C1080 C1079 1.400 . S
C1080 C1083 1.386 . S
H1081 C1097 0.930 . S
H1082 C1098 0.931 . S
C1083 H1071 0.929 . S
C1083 C1077 1.390 . S
C1083 C1080 1.386 . S
C1084 C1079 1.490 . S
C1084 C1086 1.395 . S
C1084 C1087 1.403 . S
H1085 C1091 0.930 . S
C1086 H1072 0.930 . S
C1086 C1084 1.395 . S
C1086 C1089 1.403 . S
C1087 C1084 1.403 . S
C1087 C1088 1.524 . S
C1087 C1091 1.400 . S
C1088 H1073 0.960 . S
C1088 H1074 0.960 . S
C1088 H1075 0.960 . S
C1088 C1087 1.524 . S
C1089 C1086 1.403 . S
C1089 C1090 1.392 . S
C1089 C1093 1.495 . S
C1090 C1089 1.392 . S
C1090 C1091 1.385 . S
C1090 C1092 1.478 . S
C1091 H1085 0.930 . S
C1091 C1087 1.400 . S
C1091 C1090 1.385 . S
C1092 C1090 1.478 . S
C1092 C1094 1.381 . S
C1092 C1098 1.383 . S
C1093 C1089 1.495 . S
C1093 H1099 0.959 . S
C1093 H1100 0.961 . S
C1093 H1101 0.960 . S
C1094 C1092 1.381 . S
C1094 C1095 1.394 . S
C1094 H1102 0.930 . S
C1095 C1094 1.394 . S
C1095 C1096 1.383 . S
C1095 H1103 0.929 . S
C1096 C1095 1.383 . S
C1096 C1097 1.377 . S
C1097 H1081 0.930 . S
C1097 C1096 1.377 . S
C1097 C1098 1.379 . S
C1098 H1082 0.931 . S
C1098 C1092 1.383 . S
C1098 C1097 1.379 . S
H1099 C1093 0.959 . S
H1100 C1093 0.961 . S
H1101 C1093 0.960 . S
H1102 C1094 0.930 . S
H1103 C1095 0.929 . S
H1104 C1112 0.929 . S
H1105 C1114 0.930 . S
H1106 C1116 0.930 1_455 S
H1107 C1119 0.929 . S
H1108 C1122 0.930 . S
H1109 C1124 0.960 . S
H1110 C1124 0.960 . S
H1111 C1124 0.960 . S
C1112 H1104 0.929 . S
C1112 C1113 1.377 . S
C1112 C1114 1.384 . S
C1113 C1112 1.377 . S
C1113 C1119 1.390 . S
C1114 H1105 0.930 . S
C1114 C1112 1.384 . S
C1114 C1115 1.372 . S
C1115 C1114 1.372 . S
C1115 C1116 1.400 . S
C1115 C1120 1.490 1_655 S
C1116 H1106 0.930 1_655 S
C1116 C1115 1.400 . S
C1116 C1119 1.386 . S
H1117 C1133 0.930 . S
H1118 C1134 0.931 . S
C1119 H1107 0.929 . S
C1119 C1113 1.390 . S
C1119 C1116 1.386 . S
C1120 C1115 1.490 1_455 S
C1120 C1122 1.395 . S
C1120 C1123 1.403 1_455 S
H1121 C1127 0.930 . S
C1122 H1108 0.930 . S
C1122 C1120 1.395 . S
C1122 C1125 1.403 . S
C1123 C1120 1.403 1_655 S
C1123 C1124 1.524 . S
C1123 C1127 1.400 1_655 S
C1124 H1109 0.960 . S
C1124 H1110 0.960 . S
C1124 H1111 0.960 . S
C1124 C1123 1.524 . S
C1125 C1122 1.403 . S
C1125 C1126 1.392 . S
C1125 C1129 1.495 . S
C1126 C1125 1.392 . S
C1126 C1127 1.385 . S
C1126 C1128 1.478 . S
C1127 H1121 0.930 . S
C1127 C1123 1.400 1_455 S
C1127 C1126 1.385 . S
C1128 C1126 1.478 . S
C1128 C1130 1.381 . S
C1128 C1134 1.383 . S
C1129 C1125 1.495 . S
C1129 H1135 0.959 . S
C1129 H1136 0.961 . S
C1129 H1137 0.960 . S
C1130 C1128 1.381 . S
C1130 C1131 1.394 . S
C1130 H1138 0.930 . S
C1131 C1130 1.394 . S
C1131 C1132 1.383 . S
C1131 H1139 0.929 . S
C1132 C1131 1.383 . S
C1132 C1133 1.377 . S
C1133 H1117 0.930 . S
C1133 C1132 1.377 . S
C1133 C1134 1.379 . S
C1134 H1118 0.931 . S
C1134 C1128 1.383 . S
C1134 C1133 1.379 . S
H1135 C1129 0.959 . S
H1136 C1129 0.961 . S
H1137 C1129 0.960 . S
H1138 C1130 0.930 . S
H1139 C1131 0.929 . S
H1140 C1148 0.929 . S
H1141 C1150 0.930 . S
H1142 C1152 0.930 . S
H1143 C1155 0.929 1_655 S
H1144 C1158 0.930 . S
H1145 C1160 0.960 . S
H1146 C1160 0.960 . S
H1147 C1160 0.960 . S
C1148 H1140 0.929 . S
C1148 C1149 1.377 . S
C1148 C1150 1.384 . S
C1149 C1148 1.377 . S
C1149 C1155 1.390 . S
C1150 H1141 0.930 . S
C1150 C1148 1.384 . S
C1150 C1151 1.372 . S
C1151 C1150 1.372 . S
C1151 C1152 1.400 1_455 S
C1151 C1156 1.483 1_455 S
C1152 H1142 0.930 . S
C1152 C1151 1.400 1_655 S
C1152 C1155 1.386 1_655 S
H1153 C1169 0.930 . S
H1154 C1170 0.931 . S
C1155 H1143 0.929 1_455 S
C1155 C1149 1.390 . S
C1155 C1152 1.386 1_455 S
C1156 C1151 1.483 1_655 S
C1156 C1158 1.390 1_655 S
C1156 C1159 1.414 . S
H1157 C1163 0.930 . S
C1158 H1144 0.930 . S
C1158 C1156 1.390 1_455 S
C1158 C1161 1.403 1_455 S
C1159 C1156 1.414 . S
C1159 C1160 1.524 . S
C1159 C1163 1.400 . S
C1160 H1145 0.960 . S
C1160 H1146 0.960 . S
C1160 H1147 0.960 . S
C1160 C1159 1.524 . S
C1161 C1158 1.403 1_655 S
C1161 C1162 1.392 . S
C1161 C1165 1.495 1_655 S
C1162 C1161 1.392 . S
C1162 C1163 1.385 . S
C1162 C1164 1.478 . S
C1163 H1157 0.930 . S
C1163 C1159 1.400 . S
C1163 C1162 1.385 . S
C1164 C1162 1.478 . S
C1164 C1166 1.381 . S
C1164 C1170 1.383 . S
C1165 C1161 1.495 1_455 S
C1165 H1171 0.959 . S
C1165 H1172 0.961 1_455 S
C1165 H1173 0.960 . S
C1166 C1164 1.381 . S
C1166 C1167 1.394 . S
C1166 H1174 0.918 1_655 S
C1167 C1166 1.394 . S
C1167 C1168 1.383 . S
C1167 H1175 0.929 . S
C1168 C1167 1.383 . S
C1168 C1169 1.377 . S
C1169 H1153 0.930 . S
C1169 C1168 1.377 . S
C1169 C1170 1.379 . S
C1170 H1154 0.931 . S
C1170 C1164 1.383 . S
C1170 C1169 1.379 . S
H1171 C1165 0.959 . S
H1172 C1165 0.961 1_655 S
H1173 C1165 0.960 . S
H1174 C1166 0.918 1_455 S
H1175 C1167 0.929 . S
H1176 C1184 0.929 . S
H1177 C1186 0.930 . S
H1178 C1188 0.930 . S
H1179 C1191 0.929 . S
H1180 C1194 0.930 . S
H1181 C1196 0.960 . S
H1182 C1196 0.960 . S
H1183 C1196 0.960 . S
C1184 H1176 0.929 . S
C1184 C1185 1.377 . S
C1184 C1186 1.384 . S
C1185 C1184 1.377 . S
C1185 C1191 1.390 . S
C1186 H1177 0.930 . S
C1186 C1184 1.384 . S
C1186 C1187 1.372 . S
C1187 C1186 1.372 . S
C1187 C1188 1.400 . S
C1187 C1192 1.490 . S
C1188 H1178 0.930 . S
C1188 C1187 1.400 . S
C1188 C1191 1.386 . S
H1189 C1205 0.930 . S
H1190 C1206 0.931 . S
C1191 H1179 0.929 . S
C1191 C1185 1.390 . S
C1191 C1188 1.386 . S
C1192 C1187 1.490 . S
C1192 C1194 1.395 . S
C1192 C1195 1.403 . S
H1193 C1199 0.930 . S
C1194 H1180 0.930 . S
C1194 C1192 1.395 . S
C1194 C1197 1.403 . S
C1195 C1192 1.403 . S
C1195 C1196 1.524 . S
C1195 C1199 1.400 . S
C1196 H1181 0.960 . S
C1196 H1182 0.960 . S
C1196 H1183 0.960 . S
C1196 C1195 1.524 . S
C1197 C1194 1.403 . S
C1197 C1198 1.392 . S
C1197 C1201 1.495 . S
C1198 C1197 1.392 . S
C1198 C1199 1.385 . S
C1198 C1200 1.478 . S
C1199 H1193 0.930 . S
C1199 C1195 1.400 . S
C1199 C1198 1.385 . S
C1200 C1198 1.478 . S
C1200 C1202 1.381 . S
C1200 C1206 1.383 . S
C1201 C1197 1.495 . S
C1201 H1207 0.959 . S
C1201 H1208 0.961 . S
C1201 H1209 0.960 . S
C1202 C1200 1.381 . S
C1202 C1203 1.394 . S
C1202 H1210 0.930 . S
C1203 C1202 1.394 . S
C1203 C1204 1.383 . S
C1203 H1211 0.929 . S
C1204 C1203 1.383 . S
C1204 C1205 1.377 . S
C1205 H1189 0.930 . S
C1205 C1204 1.377 . S
C1205 C1206 1.379 . S
C1206 H1190 0.931 . S
C1206 C1200 1.383 . S
C1206 C1205 1.379 . S
H1207 C1201 0.959 . S
H1208 C1201 0.961 . S
H1209 C1201 0.960 . S
H1210 C1202 0.930 . S
H1211 C1203 0.929 . S
H1212 C1220 0.929 . S
H1213 C1222 0.930 . S
H1214 C1224 0.930 . S
H1215 C1227 0.929 . S
H1216 C1230 0.930 . S
H1217 C1232 0.960 . S
H1218 C1232 0.960 . S
H1219 C1232 0.960 . S
C1220 H1212 0.929 . S
C1220 C1221 1.377 . S
C1220 C1222 1.384 . S
C1221 C1220 1.377 . S
C1221 C1227 1.390 . S
C1222 H1213 0.930 . S
C1222 C1220 1.384 . S
C1222 C1223 1.372 . S
C1223 C1222 1.372 . S
C1223 C1224 1.400 . S
C1223 C1228 1.490 . S
C1224 H1214 0.930 . S
C1224 C1223 1.400 . S
C1224 C1227 1.386 . S
H1225 C1241 0.930 . S
H1226 C1242 0.931 . S
C1227 H1215 0.929 . S
C1227 C1221 1.390 . S
C1227 C1224 1.386 . S
C1228 C1223 1.490 . S
C1228 C1230 1.395 . S
C1228 C1231 1.403 . S
H1229 C1235 0.930 . S
C1230 H1216 0.930 . S
C1230 C1228 1.395 . S
C1230 C1233 1.403 . S
C1231 C1228 1.403 . S
C1231 C1232 1.524 . S
C1231 C1235 1.400 . S
C1232 H1217 0.960 . S
C1232 H1218 0.960 . S
C1232 H1219 0.960 . S
C1232 C1231 1.524 . S
C1233 C1230 1.403 . S
C1233 C1234 1.392 . S
C1233 C1237 1.495 . S
C1234 C1233 1.392 . S
C1234 C1235 1.385 . S
C1234 C1236 1.478 . S
C1235 H1229 0.930 . S
C1235 C1231 1.400 . S
C1235 C1234 1.385 . S
C1236 C1234 1.478 . S
C1236 C1238 1.381 . S
C1236 C1242 1.383 . S
C1237 C1233 1.495 . S
C1237 H1243 0.959 . S
C1237 H1244 0.961 . S
C1237 H1245 0.960 . S
C1238 C1236 1.381 . S
C1238 C1239 1.394 . S
C1238 H1246 0.930 . S
C1239 C1238 1.394 . S
C1239 C1240 1.383 . S
C1239 H1247 0.929 . S
C1240 C1239 1.383 . S
C1240 C1241 1.377 . S
C1241 H1225 0.930 . S
C1241 C1240 1.377 . S
C1241 C1242 1.379 . S
C1242 H1226 0.931 . S
C1242 C1236 1.383 . S
C1242 C1241 1.379 . S
H1243 C1237 0.959 . S
H1244 C1237 0.961 . S
H1245 C1237 0.960 . S
H1246 C1238 0.930 . S
H1247 C1239 0.929 . S
H1248 C1256 0.929 1_455 S
H1249 C1258 0.930 . S
H1250 C1260 0.930 . S
H1251 C1263 0.929 . S
H1252 C1266 0.930 . S
H1253 C1268 0.960 . S
H1254 C1268 0.960 . S
H1255 C1268 0.960 1_655 S
C1256 H1248 0.929 1_655 S
C1256 C1257 1.377 . S
C1256 C1258 1.384 1_655 S
C1257 C1256 1.377 . S
C1257 C1263 1.390 . S
C1258 H1249 0.930 . S
C1258 C1256 1.384 1_455 S
C1258 C1259 1.372 1_455 S
C1259 C1258 1.372 1_655 S
C1259 C1260 1.400 . S
C1259 C1264 1.490 1_655 S
C1260 H1250 0.930 . S
C1260 C1259 1.400 . S
C1260 C1263 1.386 . S
H1261 C1277 0.930 . S
H1262 C1278 0.931 . S
C1263 H1251 0.929 . S
C1263 C1257 1.390 . S
C1263 C1260 1.386 . S
C1264 C1259 1.490 1_455 S
C1264 C1266 1.395 . S
C1264 C1267 1.403 . S
H1265 C1271 0.930 . S
C1266 H1252 0.930 . S
C1266 C1264 1.395 . S
C1266 C1269 1.403 . S
C1267 C1264 1.403 . S
C1267 C1268 1.524 . S
C1267 C1271 1.400 . S
C1268 H1253 0.960 . S
C1268 H1254 0.960 . S
C1268 H1255 0.960 1_455 S
C1268 C1267 1.524 . S
C1269 C1266 1.403 . S
C1269 C1270 1.392 . S
C1269 C1273 1.495 . S
C1270 C1269 1.392 . S
C1270 C1271 1.385 . S
C1270 C1272 1.478 . S
C1271 H1265 0.930 . S
C1271 C1267 1.400 . S
C1271 C1270 1.385 . S
C1272 C1270 1.478 . S
C1272 C1274 1.381 . S
C1272 C1278 1.383 . S
C1273 C1269 1.495 . S
C1273 H1279 0.959 . S
C1273 H1280 0.961 . S
C1273 H1281 0.960 . S
C1274 C1272 1.381 . S
C1274 C1275 1.394 . S
C1274 H1282 0.930 . S
C1275 C1274 1.394 . S
C1275 C1276 1.383 . S
C1275 H1283 0.929 . S
C1276 C1275 1.383 . S
C1276 C1277 1.377 . S
C1277 H1261 0.930 . S
C1277 C1276 1.377 . S
C1277 C1278 1.379 . S
C1278 H1262 0.931 . S
C1278 C1272 1.383 . S
C1278 C1277 1.379 . S
H1279 C1273 0.959 . S
H1280 C1273 0.961 . S
H1281 C1273 0.960 . S
H1282 C1274 0.930 . S
H1283 C1275 0.929 . S
H1284 C1292 0.929 . S
H1285 C1294 0.930 . S
H1286 C1296 0.930 . S
H1287 C1299 0.929 . S
H1288 C1302 0.930 . S
H1289 C1304 0.960 . S
H1290 C1304 0.960 . S
H1291 C1304 0.960 . S
C1292 H1284 0.929 . S
C1292 C1293 1.377 . S
C1292 C1294 1.384 . S
C1293 C1292 1.377 . S
C1293 C1299 1.390 . S
C1294 H1285 0.930 . S
C1294 C1292 1.384 . S
C1294 C1295 1.372 . S
C1295 C1294 1.372 . S
C1295 C1296 1.400 . S
C1295 C1300 1.490 1_455 S
C1296 H1286 0.930 . S
C1296 C1295 1.400 . S
C1296 C1299 1.386 . S
H1297 C1313 0.930 . S
H1298 C1314 0.931 . S
C1299 H1287 0.929 . S
C1299 C1293 1.390 . S
C1299 C1296 1.386 . S
C1300 C1295 1.490 1_655 S
C1300 C1302 1.395 1_655 S
C1300 C1303 1.403 . S
H1301 C1307 0.930 . S
C1302 H1288 0.930 . S
C1302 C1300 1.395 1_455 S
C1302 C1305 1.403 . S
C1303 C1300 1.403 . S
C1303 C1304 1.524 . S
C1303 C1307 1.400 . S
C1304 H1289 0.960 . S
C1304 H1290 0.960 . S
C1304 H1291 0.960 . S
C1304 C1303 1.524 . S
C1305 C1302 1.403 . S
C1305 C1306 1.392 1_455 S
C1305 C1309 1.495 . S
C1306 C1305 1.392 1_655 S
C1306 C1307 1.385 . S
C1306 C1308 1.478 . S
C1307 H1301 0.930 . S
C1307 C1303 1.400 . S
C1307 C1306 1.385 . S
C1308 C1306 1.478 . S
C1308 C1310 1.381 . S
C1308 C1314 1.383 . S
C1309 C1305 1.495 . S
C1309 H1315 0.959 . S
C1309 H1316 0.961 . S
C1309 H1317 0.960 . S
C1310 C1308 1.381 . S
C1310 C1311 1.394 . S
C1310 H1318 0.930 . S
C1311 C1310 1.394 . S
C1311 C1312 1.383 . S
C1311 H1319 0.929 . S
C1312 C1311 1.383 . S
C1312 C1313 1.377 . S
C1313 H1297 0.930 . S
C1313 C1312 1.377 . S
C1313 C1314 1.379 . S
C1314 H1298 0.931 . S
C1314 C1308 1.383 . S
C1314 C1313 1.379 . S
H1315 C1309 0.959 . S
H1316 C1309 0.961 . S
H1317 C1309 0.960 . S
H1318 C1310 0.930 . S
H1319 C1311 0.929 . S
H1320 C1328 0.929 . S
H1321 C1330 0.930 . S
H1322 C1332 0.930 . S
H1323 C1335 0.929 . S
H1324 C1338 0.930 . S
H1325 C1340 0.960 . S
H1326 C1340 0.960 . S
H1327 C1340 0.960 . S
C1328 H1320 0.929 . S
C1328 C1329 1.377 . S
C1328 C1330 1.384 . S
C1329 C1328 1.377 . S
C1329 C1335 1.390 . S
C1330 H1321 0.930 . S
C1330 C1328 1.384 . S
C1330 C1331 1.372 . S
C1331 C1330 1.372 . S
C1331 C1332 1.400 . S
C1331 C1336 1.490 . S
C1332 H1322 0.930 . S
C1332 C1331 1.400 . S
C1332 C1335 1.386 . S
H1333 C1349 0.930 . S
H1334 C1350 0.931 . S
C1335 H1323 0.929 . S
C1335 C1329 1.390 . S
C1335 C1332 1.386 . S
C1336 C1331 1.490 . S
C1336 C1338 1.395 . S
C1336 C1339 1.471 . S
H1337 C1343 0.930 . S
C1338 H1324 0.930 . S
C1338 C1336 1.395 . S
C1338 C1341 1.403 1_556 S
C1339 C1336 1.471 . S
C1339 C1340 1.487 1_545 S
C1339 C1343 1.370 1_546 S
C1340 H1325 0.960 . S
C1340 H1326 0.960 . S
C1340 H1327 0.960 . S
C1340 C1339 1.487 1_565 S
C1341 C1338 1.403 1_554 S
C1341 C1342 1.469 . S
C1341 C1345 1.495 . S
C1342 C1341 1.469 . S
C1342 C1343 1.351 1_545 S
C1342 C1344 1.438 1_545 S
C1343 H1337 0.930 . S
C1343 C1339 1.370 1_564 S
C1343 C1342 1.351 1_565 S
C1344 C1342 1.438 1_565 S
C1344 C1346 1.381 . S
C1344 C1350 1.383 . S
C1345 C1341 1.495 . S
C1345 H1351 0.959 . S
C1345 H1352 0.961 . S
C1345 H1353 0.960 . S
C1346 C1344 1.381 . S
C1346 C1347 1.394 . S
C1346 H1354 0.930 . S
C1347 C1346 1.394 . S
C1347 C1348 1.383 . S
C1347 H1355 0.929 . S
C1348 C1347 1.383 . S
C1348 C1349 1.377 . S
C1349 H1333 0.930 . S
C1349 C1348 1.377 . S
C1349 C1350 1.379 . S
C1350 H1334 0.931 . S
C1350 C1344 1.383 . S
C1350 C1349 1.379 . S
H1351 C1345 0.959 . S
H1352 C1345 0.961 . S
H1353 C1345 0.960 . S
H1354 C1346 0.930 . S
H1355 C1347 0.929 . S
H1356 C1364 0.929 . S
H1357 C1366 0.930 . S
H1358 C1368 0.930 . S
H1359 C1371 0.929 . S
H1360 C1374 0.930 . S
H1361 C1376 0.960 . S
H1362 C1376 0.960 . S
H1363 C1376 0.960 . S
C1364 H1356 0.929 . S
C1364 C1365 1.377 . S
C1364 C1366 1.384 . S
C1365 C1364 1.377 . S
C1365 C1371 1.390 . S
C1366 H1357 0.930 . S
C1366 C1364 1.384 . S
C1366 C1367 1.372 . S
C1367 C1366 1.372 . S
C1367 C1368 1.400 . S
C1367 C1372 1.490 . S
C1368 H1358 0.930 . S
C1368 C1367 1.400 . S
C1368 C1371 1.386 . S
H1369 C1385 0.930 . S
H1370 C1386 0.931 . S
C1371 H1359 0.929 . S
C1371 C1365 1.390 . S
C1371 C1368 1.386 . S
C1372 C1367 1.490 . S
C1372 C1374 1.395 . S
C1372 C1375 1.410 1_565 S
H1373 C1379 0.927 1_554 S
C1374 H1360 0.930 . S
C1374 C1372 1.395 . S
C1374 C1377 1.403 1_556 S
C1375 C1372 1.410 1_545 S
C1375 C1376 1.519 . S
C1375 C1379 1.417 . S
C1376 H1361 0.960 . S
C1376 H1362 0.960 . S
C1376 H1363 0.960 . S
C1376 C1375 1.519 . S
C1377 C1374 1.403 1_554 S
C1377 C1378 1.392 . S
C1377 C1381 1.495 . S
C1378 C1377 1.392 . S
C1378 C1379 1.368 1_564 S
C1378 C1380 1.478 1_565 S
C1379 H1373 0.927 1_556 S
C1379 C1375 1.417 . S
C1379 C1378 1.368 1_546 S
C1380 C1378 1.478 1_545 S
C1380 C1382 1.381 . S
C1380 C1386 1.383 . S
C1381 C1377 1.495 . S
C1381 H1387 0.959 . S
C1381 H1388 0.961 . S
C1381 H1389 0.960 . S
C1382 C1380 1.381 . S
C1382 C1383 1.394 . S
C1382 H1390 0.930 . S
C1383 C1382 1.394 . S
C1383 C1384 1.383 . S
C1383 H1391 0.929 . S
C1384 C1383 1.383 . S
C1384 C1385 1.377 . S
C1385 H1369 0.930 . S
C1385 C1384 1.377 . S
C1385 C1386 1.379 . S
C1386 H1370 0.931 . S
C1386 C1380 1.383 . S
C1386 C1385 1.379 . S
H1387 C1381 0.959 . S
H1388 C1381 0.961 . S
H1389 C1381 0.960 . S
H1390 C1382 0.930 . S
H1391 C1383 0.929 . S
H1392 C1400 0.929 . S
H1393 C1402 0.930 . S
H1394 C1404 0.930 . S
H1395 C1407 0.929 . S
H1396 C1410 0.930 . S
H1397 C1412 0.960 . S
H1398 C1412 0.960 . S
H1399 C1412 0.960 . S
C1400 H1392 0.929 . S
C1400 C1401 1.377 . S
C1400 C1402 1.384 . S
C1401 C1400 1.377 . S
C1401 C1407 1.390 . S
C1402 H1393 0.930 . S
C1402 C1400 1.384 . S
C1402 C1403 1.372 . S
C1403 C1402 1.372 . S
C1403 C1404 1.400 . S
C1403 C1408 1.490 . S
C1404 H1394 0.930 . S
C1404 C1403 1.400 . S
C1404 C1407 1.386 . S
H1405 C1421 0.930 . S
H1406 C1422 0.931 . S
C1407 H1395 0.929 . S
C1407 C1401 1.390 . S
C1407 C1404 1.386 . S
C1408 C1403 1.490 . S
C1408 C1410 1.395 . S
C1408 C1411 1.403 . S
H1409 C1415 0.930 . S
C1410 H1396 0.930 . S
C1410 C1408 1.395 . S
C1410 C1413 1.403 . S
C1411 C1408 1.403 . S
C1411 C1412 1.524 . S
C1411 C1415 1.400 . S
C1412 H1397 0.960 . S
C1412 H1398 0.960 . S
C1412 H1399 0.960 . S
C1412 C1411 1.524 . S
C1413 C1410 1.403 . S
C1413 C1414 1.392 . S
C1413 C1417 1.495 . S
C1414 C1413 1.392 . S
C1414 C1415 1.385 . S
C1414 C1416 1.478 . S
C1415 H1409 0.930 . S
C1415 C1411 1.400 . S
C1415 C1414 1.385 . S
C1416 C1414 1.478 . S
C1416 C1418 1.381 . S
C1416 C1422 1.383 . S
C1417 C1413 1.495 . S
C1417 H1423 0.959 . S
C1417 H1424 0.961 . S
C1417 H1425 0.960 . S
C1418 C1416 1.381 . S
C1418 C1419 1.394 . S
C1418 H1426 0.930 . S
C1419 C1418 1.394 . S
C1419 C1420 1.383 . S
C1419 H1427 0.929 . S
C1420 C1419 1.383 . S
C1420 C1421 1.377 . S
C1421 H1405 0.930 . S
C1421 C1420 1.377 . S
C1421 C1422 1.379 . S
C1422 H1406 0.931 . S
C1422 C1416 1.383 . S
C1422 C1421 1.379 . S
H1423 C1417 0.959 . S
H1424 C1417 0.961 . S
H1425 C1417 0.960 . S
H1426 C1418 0.930 . S
H1427 C1419 0.929 . S
H1428 C1436 0.929 . S
H1429 C1438 0.930 . S
H1430 C1440 0.930 . S
H1431 C1443 0.929 . S
H1432 C1446 0.930 . S
H1433 C1448 0.960 . S
H1434 C1448 0.960 . S
H1435 C1448 0.960 . S
C1436 H1428 0.929 . S
C1436 C1437 1.377 . S
C1436 C1438 1.384 . S
C1437 C1436 1.377 . S
C1437 C1443 1.390 . S
C1438 H1429 0.930 . S
C1438 C1436 1.384 . S
C1438 C1439 1.372 . S
C1439 C1438 1.372 . S
C1439 C1440 1.400 . S
C1439 C1444 1.490 . S
C1440 H1430 0.930 . S
C1440 C1439 1.400 . S
C1440 C1443 1.386 . S
H1441 C1457 0.930 . S
H1442 C1458 0.931 . S
C1443 H1431 0.929 . S
C1443 C1437 1.390 . S
C1443 C1440 1.386 . S
C1444 C1439 1.490 . S
C1444 C1446 1.395 . S
C1444 C1447 1.403 . S
H1445 C1451 0.930 . S
C1446 H1432 0.930 . S
C1446 C1444 1.395 . S
C1446 C1449 1.403 . S
C1447 C1444 1.403 . S
C1447 C1448 1.524 . S
C1447 C1451 1.400 . S
C1448 H1433 0.960 . S
C1448 H1434 0.960 . S
C1448 H1435 0.960 . S
C1448 C1447 1.524 . S
C1449 C1446 1.403 . S
C1449 C1450 1.392 . S
C1449 C1453 1.495 . S
C1450 C1449 1.392 . S
C1450 C1451 1.385 . S
C1450 C1452 1.478 . S
C1451 H1445 0.930 . S
C1451 C1447 1.400 . S
C1451 C1450 1.385 . S
C1452 C1450 1.478 . S
C1452 C1454 1.381 . S
C1452 C1458 1.383 . S
C1453 C1449 1.495 . S
C1453 H1459 0.959 . S
C1453 H1460 0.961 . S
C1453 H1461 0.960 . S
C1454 C1452 1.381 . S
C1454 C1455 1.394 . S
C1454 H1462 0.930 . S
C1455 C1454 1.394 . S
C1455 C1456 1.383 . S
C1455 H1463 0.929 . S
C1456 C1455 1.383 . S
C1456 C1457 1.377 . S
C1457 H1441 0.930 . S
C1457 C1456 1.377 . S
C1457 C1458 1.379 . S
C1458 H1442 0.931 . S
C1458 C1452 1.383 . S
C1458 C1457 1.379 . S
H1459 C1453 0.959 . S
H1460 C1453 0.961 . S
H1461 C1453 0.960 . S
H1462 C1454 0.930 . S
H1463 C1455 0.929 . S
H1464 C1472 0.929 . S
H1465 C1474 0.930 . S
H1466 C1476 0.930 . S
H1467 C1479 0.929 . S
H1468 C1482 0.930 . S
H1469 C1484 0.960 1_556 S
H1470 C1484 0.960 . S
H1471 C1484 0.960 . S
C1472 H1464 0.929 . S
C1472 C1473 1.377 . S
C1472 C1474 1.384 . S
C1473 C1472 1.377 . S
C1473 C1479 1.390 . S
C1474 H1465 0.930 . S
C1474 C1472 1.384 . S
C1474 C1475 1.372 . S
C1475 C1474 1.372 . S
C1475 C1476 1.400 . S
C1475 C1480 1.490 . S
C1476 H1466 0.930 . S
C1476 C1475 1.400 . S
C1476 C1479 1.386 . S
H1477 C1493 0.930 . S
H1478 C1494 0.931 . S
C1479 H1467 0.929 . S
C1479 C1473 1.390 . S
C1479 C1476 1.386 . S
C1480 C1475 1.490 . S
C1480 C1482 1.395 . S
C1480 C1483 1.401 . S
H1481 C1487 0.930 . S
C1482 H1468 0.930 . S
C1482 C1480 1.395 . S
C1482 C1485 1.403 1_554 S
C1483 C1480 1.401 . S
C1483 C1484 1.523 . S
C1483 C1487 1.402 1_554 S
C1484 H1469 0.960 1_554 S
C1484 H1470 0.960 . S
C1484 H1471 0.960 . S
C1484 C1483 1.523 . S
C1485 C1482 1.403 1_556 S
C1485 C1486 1.392 . S
C1485 C1489 1.495 . S
C1486 C1485 1.392 . S
C1486 C1487 1.385 . S
C1486 C1488 1.478 . S
C1487 H1481 0.930 . S
C1487 C1483 1.402 1_556 S
C1487 C1486 1.385 . S
C1488 C1486 1.478 . S
C1488 C1490 1.381 . S
C1488 C1494 1.383 . S
C1489 C1485 1.495 . S
C1489 H1495 0.959 1_556 S
C1489 H1496 0.961 . S
C1489 H1497 0.960 . S
C1490 C1488 1.381 . S
C1490 C1491 1.394 . S
C1490 H1498 0.930 . S
C1491 C1490 1.394 . S
C1491 C1492 1.383 . S
C1491 H1499 0.929 . S
C1492 C1491 1.383 . S
C1492 C1493 1.377 . S
C1493 H1477 0.930 . S
C1493 C1492 1.377 . S
C1493 C1494 1.379 . S
C1494 H1478 0.931 . S
C1494 C1488 1.383 . S
C1494 C1493 1.379 . S
H1495 C1489 0.959 1_554 S
H1496 C1489 0.961 . S
H1497 C1489 0.960 . S
H1498 C1490 0.930 . S
H1499 C1491 0.929 . S
H1500 C1508 0.929 . S
H1501 C1510 0.930 . S
H1502 C1512 0.930 . S
H1503 C1515 0.929 . S
H1504 C1518 0.930 . S
H1505 C1520 0.960 . S
H1506 C1520 0.960 . S
H1507 C1520 0.960 . S
C1508 H1500 0.929 . S
C1508 C1509 1.377 . S
C1508 C1510 1.384 . S
C1509 C1508 1.377 . S
C1509 C1515 1.390 . S
C1510 H1501 0.930 . S
C1510 C1508 1.384 . S
C1510 C1511 1.372 . S
C1511 C1510 1.372 . S
C1511 C1512 1.400 . S
C1511 C1516 1.490 . S
C1512 H1502 0.930 . S
C1512 C1511 1.400 . S
C1512 C1515 1.386 . S
H1513 C1529 0.930 . S
H1514 C1530 0.931 . S
C1515 H1503 0.929 . S
C1515 C1509 1.390 . S
C1515 C1512 1.386 . S
C1516 C1511 1.490 . S
C1516 C1518 1.395 . S
C1516 C1519 1.403 1_554 S
H1517 C1523 0.930 . S
C1518 H1504 0.930 . S
C1518 C1516 1.395 . S
C1518 C1521 1.411 . S
C1519 C1516 1.403 1_556 S
C1519 C1520 1.524 . S
C1519 C1523 1.400 . S
C1520 H1505 0.960 . S
C1520 H1506 0.960 . S
C1520 H1507 0.960 . S
C1520 C1519 1.524 . S
C1521 C1518 1.411 . S
C1521 C1522 1.383 1_554 S
C1521 C1525 1.497 . S
C1522 C1521 1.383 1_556 S
C1522 C1523 1.385 . S
C1522 C1524 1.478 . S
C1523 H1517 0.930 . S
C1523 C1519 1.400 . S
C1523 C1522 1.385 . S
C1524 C1522 1.478 . S
C1524 C1526 1.381 . S
C1524 C1530 1.383 . S
C1525 C1521 1.497 . S
C1525 H1531 0.959 . S
C1525 H1532 0.961 . S
C1525 H1533 0.960 1_554 S
C1526 C1524 1.381 . S
C1526 C1527 1.394 . S
C1526 H1534 0.930 . S
C1527 C1526 1.394 . S
C1527 C1528 1.383 . S
C1527 H1535 0.929 . S
C1528 C1527 1.383 . S
C1528 C1529 1.377 . S
C1529 H1513 0.930 . S
C1529 C1528 1.377 . S
C1529 C1530 1.379 . S
C1530 H1514 0.931 . S
C1530 C1524 1.383 . S
C1530 C1529 1.379 . S
H1531 C1525 0.959 . S
H1532 C1525 0.961 . S
H1533 C1525 0.960 1_556 S
H1534 C1526 0.930 . S
H1535 C1527 0.929 . S
H1536 C1544 0.929 . S
H1537 C1546 0.930 . S
H1538 C1548 0.930 . S
H1539 C1551 0.929 . S
H1540 C1554 0.930 . S
H1541 C1556 0.960 . S
H1542 C1556 0.960 . S
H1543 C1556 0.960 . S
C1544 H1536 0.929 . S
C1544 C1545 1.377 . S
C1544 C1546 1.384 . S
C1545 C1544 1.377 . S
C1545 C1551 1.390 . S
C1546 H1537 0.930 . S
C1546 C1544 1.384 . S
C1546 C1547 1.372 . S
C1547 C1546 1.372 . S
C1547 C1548 1.400 . S
C1547 C1552 1.490 . S
C1548 H1538 0.930 . S
C1548 C1547 1.400 . S
C1548 C1551 1.386 . S
H1549 C1565 0.930 . S
H1550 C1566 0.931 . S
C1551 H1539 0.929 . S
C1551 C1545 1.390 . S
C1551 C1548 1.386 . S
C1552 C1547 1.490 . S
C1552 C1554 1.395 . S
C1552 C1555 1.403 . S
H1553 C1559 0.930 . S
C1554 H1540 0.930 . S
C1554 C1552 1.395 . S
C1554 C1557 1.403 . S
C1555 C1552 1.403 . S
C1555 C1556 1.524 . S
C1555 C1559 1.400 . S
C1556 H1541 0.960 . S
C1556 H1542 0.960 . S
C1556 H1543 0.960 . S
C1556 C1555 1.524 . S
C1557 C1554 1.403 . S
C1557 C1558 1.392 . S
C1557 C1561 1.495 . S
C1558 C1557 1.392 . S
C1558 C1559 1.385 . S
C1558 C1560 1.478 . S
C1559 H1553 0.930 . S
C1559 C1555 1.400 . S
C1559 C1558 1.385 . S
C1560 C1558 1.478 . S
C1560 C1562 1.381 . S
C1560 C1566 1.383 . S
C1561 C1557 1.495 . S
C1561 H1567 0.959 . S
C1561 H1568 0.961 . S
C1561 H1569 0.960 . S
C1562 C1560 1.381 . S
C1562 C1563 1.394 . S
C1562 H1570 0.930 . S
C1563 C1562 1.394 . S
C1563 C1564 1.383 . S
C1563 H1571 0.929 . S
C1564 C1563 1.383 . S
C1564 C1565 1.377 . S
C1565 H1549 0.930 . S
C1565 C1564 1.377 . S
C1565 C1566 1.379 . S
C1566 H1550 0.931 . S
C1566 C1560 1.383 . S
C1566 C1565 1.379 . S
H1567 C1561 0.959 . S
H1568 C1561 0.961 . S
H1569 C1561 0.960 . S
H1570 C1562 0.930 . S
H1571 C1563 0.929 . S
H1572 C1580 0.929 . S
H1573 C1582 0.930 . S
H1574 C1584 0.930 . S
H1575 C1587 0.929 . S
H1576 C1590 0.930 . S
H1577 C1592 0.960 . S
H1578 C1592 0.960 . S
H1579 C1592 0.960 . S
C1580 H1572 0.929 . S
C1580 C1581 1.377 . S
C1580 C1582 1.384 . S
C1581 C1580 1.377 . S
C1581 C1587 1.390 . S
C1582 H1573 0.930 . S
C1582 C1580 1.384 . S
C1582 C1583 1.372 . S
C1583 C1582 1.372 . S
C1583 C1584 1.400 . S
C1583 C1588 1.490 . S
C1584 H1574 0.930 . S
C1584 C1583 1.400 . S
C1584 C1587 1.386 . S
H1585 C1601 0.930 . S
H1586 C1602 0.931 . S
C1587 H1575 0.929 . S
C1587 C1581 1.390 . S
C1587 C1584 1.386 . S
C1588 C1583 1.490 . S
C1588 C1590 1.395 . S
C1588 C1591 1.403 . S
H1589 C1595 0.930 . S
C1590 H1576 0.930 . S
C1590 C1588 1.395 . S
C1590 C1593 1.403 . S
C1591 C1588 1.403 . S
C1591 C1592 1.524 . S
C1591 C1595 1.400 . S
C1592 H1577 0.960 . S
C1592 H1578 0.960 . S
C1592 H1579 0.960 . S
C1592 C1591 1.524 . S
C1593 C1590 1.403 . S
C1593 C1594 1.392 . S
C1593 C1597 1.495 . S
C1594 C1593 1.392 . S
C1594 C1595 1.385 . S
C1594 C1596 1.478 . S
C1595 H1589 0.930 . S
C1595 C1591 1.400 . S
C1595 C1594 1.385 . S
C1596 C1594 1.478 . S
C1596 C1598 1.381 . S
C1596 C1602 1.383 . S
C1597 C1593 1.495 . S
C1597 H1603 0.959 . S
C1597 H1604 0.961 . S
C1597 H1605 0.960 . S
C1598 C1596 1.381 . S
C1598 C1599 1.394 . S
C1598 H1606 0.930 . S
C1599 C1598 1.394 . S
C1599 C1600 1.383 . S
C1599 H1607 0.929 . S
C1600 C1599 1.383 . S
C1600 C1601 1.377 . S
C1601 H1585 0.930 . S
C1601 C1600 1.377 . S
C1601 C1602 1.379 . S
C1602 H1586 0.931 . S
C1602 C1596 1.383 . S
C1602 C1601 1.379 . S
H1603 C1597 0.959 . S
H1604 C1597 0.961 . S
H1605 C1597 0.960 . S
H1606 C1598 0.930 . S
H1607 C1599 0.929 . S
H1608 C1616 0.929 . S
H1609 C1618 0.930 . S
H1610 C1620 0.930 . S
H1611 C1623 0.929 . S
H1612 C1626 0.930 . S
H1613 C1628 0.960 . S
H1614 C1628 0.960 . S
H1615 C1628 0.960 . S
C1616 H1608 0.929 . S
C1616 C1617 1.377 . S
C1616 C1618 1.384 . S
C1617 C1616 1.377 . S
C1617 C1623 1.390 . S
C1618 H1609 0.930 . S
C1618 C1616 1.384 . S
C1618 C1619 1.372 . S
C1619 C1618 1.372 . S
C1619 C1620 1.400 . S
C1619 C1624 1.520 . S
C1620 H1610 0.930 . S
C1620 C1619 1.400 . S
C1620 C1623 1.386 . S
H1621 C1637 0.930 . S
H1622 C1638 0.931 . S
C1623 H1611 0.929 . S
C1623 C1617 1.390 . S
C1623 C1620 1.386 . S
C1624 C1619 1.520 . S
C1624 C1626 1.411 . S
C1624 C1627 1.360 1_565 S
H1625 C1631 0.930 . S
C1626 H1612 0.930 . S
C1626 C1624 1.411 . S
C1626 C1629 1.403 1_565 S
C1627 C1624 1.360 1_545 S
C1627 C1628 1.524 . S
C1627 C1631 1.400 . S
C1628 H1613 0.960 . S
C1628 H1614 0.960 . S
C1628 H1615 0.960 . S
C1628 C1627 1.524 . S
C1629 C1626 1.403 1_545 S
C1629 C1630 1.392 . S
C1629 C1633 1.495 1_545 S
C1630 C1629 1.392 . S
C1630 C1631 1.385 . S
C1630 C1632 1.478 . S
C1631 H1625 0.930 . S
C1631 C1627 1.400 . S
C1631 C1630 1.385 . S
C1632 C1630 1.478 . S
C1632 C1634 1.381 . S
C1632 C1638 1.383 . S
C1633 C1629 1.495 1_565 S
C1633 H1639 0.959 . S
C1633 H1640 0.961 . S
C1633 H1641 0.960 1_565 S
C1634 C1632 1.381 . S
C1634 C1635 1.394 . S
C1634 H1642 0.930 . S
C1635 C1634 1.394 . S
C1635 C1636 1.383 . S
C1635 H1643 0.929 . S
C1636 C1635 1.383 . S
C1636 C1637 1.377 . S
C1637 H1621 0.930 . S
C1637 C1636 1.377 . S
C1637 C1638 1.379 . S
C1638 H1622 0.931 . S
C1638 C1632 1.383 . S
C1638 C1637 1.379 . S
H1639 C1633 0.959 . S
H1640 C1633 0.961 . S
H1641 C1633 0.960 1_545 S
H1642 C1634 0.930 . S
H1643 C1635 0.929 . S
H1644 C1652 0.929 . S
H1645 C1654 0.930 . S
H1646 C1656 0.930 . S
H1647 C1659 0.929 . S
H1648 C1662 0.930 . S
H1649 C1664 0.960 . S
H1650 C1664 0.960 . S
H1651 C1664 0.960 . S
C1652 H1644 0.929 . S
C1652 C1653 1.377 . S
C1652 C1654 1.384 . S
C1653 C1652 1.377 . S
C1653 C1659 1.390 . S
C1654 H1645 0.930 . S
C1654 C1652 1.384 . S
C1654 C1655 1.372 . S
C1655 C1654 1.372 . S
C1655 C1656 1.400 . S
C1655 C1660 1.490 . S
C1656 H1646 0.930 . S
C1656 C1655 1.400 . S
C1656 C1659 1.386 . S
H1657 C1673 0.930 . S
H1658 C1674 0.931 . S
C1659 H1647 0.929 . S
C1659 C1653 1.390 . S
C1659 C1656 1.386 . S
C1660 C1655 1.490 . S
C1660 C1662 1.395 . S
C1660 C1663 1.403 1_545 S
H1661 C1667 0.930 . S
C1662 H1648 0.930 . S
C1662 C1660 1.395 . S
C1662 C1665 1.403 . S
C1663 C1660 1.403 1_565 S
C1663 C1664 1.524 . S
C1663 C1667 1.400 . S
C1664 H1649 0.960 . S
C1664 H1650 0.960 . S
C1664 H1651 0.960 . S
C1664 C1663 1.524 . S
C1665 C1662 1.403 . S
C1665 C1666 1.392 1_545 S
C1665 C1669 1.495 . S
C1666 C1665 1.392 1_565 S
C1666 C1667 1.385 . S
C1666 C1668 1.478 . S
C1667 H1661 0.930 . S
C1667 C1663 1.400 . S
C1667 C1666 1.385 . S
C1668 C1666 1.478 . S
C1668 C1670 1.381 . S
C1668 C1674 1.383 . S
C1669 C1665 1.495 . S
C1669 H1675 0.959 . S
C1669 H1676 0.961 . S
C1669 H1677 0.960 . S
C1670 C1668 1.381 . S
C1670 C1671 1.394 . S
C1670 H1678 0.930 . S
C1671 C1670 1.394 . S
C1671 C1672 1.383 . S
C1671 H1679 0.929 . S
C1672 C1671 1.383 . S
C1672 C1673 1.377 . S
C1673 H1657 0.930 . S
C1673 C1672 1.377 . S
C1673 C1674 1.379 . S
C1674 H1658 0.931 . S
C1674 C1668 1.383 . S
C1674 C1673 1.379 . S
H1675 C1669 0.959 . S
H1676 C1669 0.961 . S
H1677 C1669 0.960 . S
H1678 C1670 0.930 . S
H1679 C1671 0.929 . S
H1680 C1688 0.929 . S
H1681 C1690 0.930 . S
H1682 C1692 0.930 . S
H1683 C1695 0.929 . S
H1684 C1698 0.930 . S
H1685 C1700 0.960 . S
H1686 C1700 0.960 . S
H1687 C1700 0.960 1_554 S
C1688 H1680 0.929 . S
C1688 C1689 1.377 . S
C1688 C1690 1.384 . S
C1689 C1688 1.377 . S
C1689 C1695 1.390 1_556 S
C1690 H1681 0.930 . S
C1690 C1688 1.384 . S
C1690 C1691 1.372 . S
C1691 C1690 1.372 . S
C1691 C1692 1.400 1_556 S
C1691 C1696 1.490 . S
C1692 H1682 0.930 . S
C1692 C1691 1.400 1_554 S
C1692 C1695 1.386 . S
H1693 C1709 0.930 . S
H1694 C1710 0.931 . S
C1695 H1683 0.929 . S
C1695 C1689 1.390 1_554 S
C1695 C1692 1.386 . S
C1696 C1691 1.490 . S
C1696 C1698 1.395 . S
C1696 C1699 1.403 . S
H1697 C1703 0.930 . S
C1698 H1684 0.930 . S
C1698 C1696 1.395 . S
C1698 C1701 1.403 . S
C1699 C1696 1.403 . S
C1699 C1700 1.524 . S
C1699 C1703 1.400 . S
C1700 H1685 0.960 . S
C1700 H1686 0.960 . S
C1700 H1687 0.960 1_556 S
C1700 C1699 1.524 . S
C1701 C1698 1.403 . S
C1701 C1702 1.392 . S
C1701 C1705 1.495 . S
C1702 C1701 1.392 . S
C1702 C1703 1.385 . S
C1702 C1704 1.478 . S
C1703 H1697 0.930 . S
C1703 C1699 1.400 . S
C1703 C1702 1.385 . S
C1704 C1702 1.478 . S
C1704 C1706 1.381 . S
C1704 C1710 1.383 1_556 S
C1705 C1701 1.495 . S
C1705 H1711 0.959 . S
C1705 H1712 0.961 1_556 S
C1705 H1713 0.960 . S
C1706 C1704 1.381 . S
C1706 C1707 1.394 . S
C1706 H1714 0.930 . S
C1707 C1706 1.394 . S
C1707 C1708 1.383 . S
C1707 H1715 0.929 . S
C1708 C1707 1.383 . S
C1708 C1709 1.377 1_556 S
C1709 H1693 0.930 . S
C1709 C1708 1.377 1_554 S
C1709 C1710 1.379 . S
C1710 H1694 0.931 . S
C1710 C1704 1.383 1_554 S
C1710 C1709 1.379 . S
H1711 C1705 0.959 . S
H1712 C1705 0.961 1_554 S
H1713 C1705 0.960 . S
H1714 C1706 0.930 . S
H1715 C1707 0.929 . S
H1716 C1724 0.929 . S
H1717 C1726 0.930 . S
H1718 C1728 0.934 . S
H1719 C1731 0.929 . S
H1720 C1734 0.930 . S
H1721 C1736 0.960 . S
H1722 C1736 0.960 . S
H1723 C1736 0.960 . S
C1724 H1716 0.929 . S
C1724 C1725 1.377 . S
C1724 C1726 1.384 . S
C1725 C1724 1.377 . S
C1725 C1731 1.390 . S
C1726 H1717 0.930 . S
C1726 C1724 1.384 . S
C1726 C1727 1.372 . S
C1727 C1726 1.372 . S
C1727 C1728 1.400 . S
C1727 C1732 1.490 . S
C1728 H1718 0.934 . S
C1728 C1727 1.400 . S
C1728 C1731 1.386 . S
H1729 C1745 0.930 . S
H1730 C1746 0.931 . S
C1731 H1719 0.929 . S
C1731 C1725 1.390 . S
C1731 C1728 1.386 . S
C1732 C1727 1.490 . S
C1732 C1734 1.395 . S
C1732 C1735 1.403 1_556 S
H1733 C1739 0.930 . S
C1734 H1720 0.930 . S
C1734 C1732 1.395 . S
C1734 C1737 1.403 . S
C1735 C1732 1.403 1_554 S
C1735 C1736 1.524 . S
C1735 C1739 1.400 . S
C1736 H1721 0.960 . S
C1736 H1722 0.960 . S
C1736 H1723 0.960 . S
C1736 C1735 1.524 . S
C1737 C1734 1.403 . S
C1737 C1738 1.392 . S
C1737 C1741 1.495 . S
C1738 C1737 1.392 . S
C1738 C1739 1.385 1_556 S
C1738 C1740 1.478 . S
C1739 H1733 0.930 . S
C1739 C1735 1.400 . S
C1739 C1738 1.385 1_554 S
C1740 C1738 1.478 . S
C1740 C1742 1.381 . S
C1740 C1746 1.383 . S
C1741 C1737 1.495 . S
C1741 H1747 0.959 . S
C1741 H1748 0.961 . S
C1741 H1749 0.960 . S
C1742 C1740 1.381 . S
C1742 C1743 1.394 . S
C1742 H1750 0.930 . S
C1743 C1742 1.394 . S
C1743 C1744 1.383 . S
C1743 H1751 0.929 . S
C1744 C1743 1.383 . S
C1744 C1745 1.377 . S
C1745 H1729 0.930 . S
C1745 C1744 1.377 . S
C1745 C1746 1.379 . S
C1746 H1730 0.931 . S
C1746 C1740 1.383 . S
C1746 C1745 1.379 . S
H1747 C1741 0.959 . S
H1748 C1741 0.961 . S
H1749 C1741 0.960 . S
H1750 C1742 0.930 . S
H1751 C1743 0.929 . S
H1752 C1760 0.929 . S
H1753 C1762 0.930 . S
H1754 C1764 0.930 . S
H1755 C1767 0.929 . S
H1756 C1770 0.930 . S
H1757 C1772 0.960 1_655 S
H1758 C1772 0.960 . S
H1759 C1772 0.960 . S
C1760 H1752 0.929 . S
C1760 C1761 1.377 . S
C1760 C1762 1.384 . S
C1761 C1760 1.377 . S
C1761 C1767 1.390 . S
C1762 H1753 0.930 . S
C1762 C1760 1.384 . S
C1762 C1763 1.372 . S
C1763 C1762 1.372 . S
C1763 C1764 1.400 . S
C1763 C1768 1.490 . S
C1764 H1754 0.930 . S
C1764 C1763 1.400 . S
C1764 C1767 1.386 . S
H1765 C1781 0.930 . S
H1766 C1782 0.931 . S
C1767 H1755 0.929 . S
C1767 C1761 1.390 . S
C1767 C1764 1.386 . S
C1768 C1763 1.490 . S
C1768 C1770 1.395 . S
C1768 C1771 1.403 . S
H1769 C1775 0.930 . S
C1770 H1756 0.930 . S
C1770 C1768 1.395 . S
C1770 C1773 1.403 1_455 S
C1771 C1768 1.403 . S
C1771 C1772 1.524 . S
C1771 C1775 1.400 1_455 S
C1772 H1757 0.960 1_455 S
C1772 H1758 0.960 . S
C1772 H1759 0.960 . S
C1772 C1771 1.524 . S
C1773 C1770 1.403 1_655 S
C1773 C1774 1.392 . S
C1773 C1777 1.495 . S
C1774 C1773 1.392 . S
C1774 C1775 1.385 . S
C1774 C1776 1.478 . S
C1775 H1769 0.930 . S
C1775 C1771 1.400 1_655 S
C1775 C1774 1.385 . S
C1776 C1774 1.478 . S
C1776 C1778 1.381 . S
C1776 C1782 1.383 . S
C1777 C1773 1.495 . S
C1777 H1783 0.959 1_655 S
C1777 H1784 0.961 . S
C1777 H1785 0.960 . S
C1778 C1776 1.381 . S
C1778 C1779 1.394 . S
C1778 H1786 0.930 . S
C1779 C1778 1.394 . S
C1779 C1780 1.383 . S
C1779 H1787 0.929 . S
C1780 C1779 1.383 . S
C1780 C1781 1.377 . S
C1781 H1765 0.930 . S
C1781 C1780 1.377 . S
C1781 C1782 1.379 . S
C1782 H1766 0.931 . S
C1782 C1776 1.383 . S
C1782 C1781 1.379 . S
H1783 C1777 0.959 1_455 S
H1784 C1777 0.961 . S
H1785 C1777 0.960 . S
H1786 C1778 0.930 . S
H1787 C1779 0.929 . S
H1788 C1796 0.929 . S
H1789 C1798 0.930 . S
H1790 C1800 0.930 . S
H1791 C1803 0.929 . S
H1792 C1806 0.930 . S
H1793 C1808 0.960 . S
H1794 C1808 0.960 . S
H1795 C1808 0.960 . S
C1796 H1788 0.929 . S
C1796 C1797 1.377 . S
C1796 C1798 1.384 . S
C1797 C1796 1.377 . S
C1797 C1803 1.390 . S
C1798 H1789 0.930 . S
C1798 C1796 1.384 . S
C1798 C1799 1.372 . S
C1799 C1798 1.372 . S
C1799 C1800 1.400 . S
C1799 C1804 1.490 . S
C1800 H1790 0.930 . S
C1800 C1799 1.400 . S
C1800 C1803 1.386 . S
H1801 C1817 0.930 . S
H1802 C1818 0.931 . S
C1803 H1791 0.929 . S
C1803 C1797 1.390 . S
C1803 C1800 1.386 . S
C1804 C1799 1.490 . S
C1804 C1806 1.395 . S
C1804 C1807 1.403 . S
H1805 C1811 0.930 . S
C1806 H1792 0.930 . S
C1806 C1804 1.395 . S
C1806 C1809 1.403 . S
C1807 C1804 1.403 . S
C1807 C1808 1.524 . S
C1807 C1811 1.400 . S
C1808 H1793 0.960 . S
C1808 H1794 0.960 . S
C1808 H1795 0.960 . S
C1808 C1807 1.524 . S
C1809 C1806 1.403 . S
C1809 C1810 1.392 . S
C1809 C1813 1.495 . S
C1810 C1809 1.392 . S
C1810 C1811 1.385 . S
C1810 C1812 1.478 . S
C1811 H1805 0.930 . S
C1811 C1807 1.400 . S
C1811 C1810 1.385 . S
C1812 C1810 1.478 . S
C1812 C1814 1.381 . S
C1812 C1818 1.383 . S
C1813 C1809 1.495 . S
C1813 H1819 0.959 . S
C1813 H1820 0.961 . S
C1813 H1821 0.960 . S
C1814 C1812 1.381 . S
C1814 C1815 1.394 . S
C1814 H1822 0.930 . S
C1815 C1814 1.394 . S
C1815 C1816 1.383 . S
C1815 H1823 0.929 . S
C1816 C1815 1.383 . S
C1816 C1817 1.377 . S
C1817 H1801 0.930 . S
C1817 C1816 1.377 . S
C1817 C1818 1.379 . S
C1818 H1802 0.931 . S
C1818 C1812 1.383 . S
C1818 C1817 1.379 . S
H1819 C1813 0.959 . S
H1820 C1813 0.961 . S
H1821 C1813 0.960 . S
H1822 C1814 0.930 . S
H1823 C1815 0.929 . S
H1824 C1832 0.929 . S
H1825 C1834 0.930 . S
H1826 C1836 0.930 . S
H1827 C1839 0.929 . S
H1828 C1842 0.930 . S
H1829 C1844 0.960 . S
H1830 C1844 0.960 . S
H1831 C1844 0.960 . S
C1832 H1824 0.929 . S
C1832 C1833 1.377 . S
C1832 C1834 1.384 . S
C1833 C1832 1.377 . S
C1833 C1839 1.390 . S
C1834 H1825 0.930 . S
C1834 C1832 1.384 . S
C1834 C1835 1.372 . S
C1835 C1834 1.372 . S
C1835 C1836 1.400 . S
C1835 C1840 1.490 . S
C1836 H1826 0.930 . S
C1836 C1835 1.400 . S
C1836 C1839 1.386 . S
H1837 C1853 0.930 . S
H1838 C1854 0.931 . S
C1839 H1827 0.929 . S
C1839 C1833 1.390 . S
C1839 C1836 1.386 . S
C1840 C1835 1.490 . S
C1840 C1842 1.395 . S
C1840 C1843 1.403 . S
H1841 C1847 0.930 . S
C1842 H1828 0.930 . S
C1842 C1840 1.395 . S
C1842 C1845 1.403 . S
C1843 C1840 1.403 . S
C1843 C1844 1.524 . S
C1843 C1847 1.400 . S
C1844 H1829 0.960 . S
C1844 H1830 0.960 . S
C1844 H1831 0.960 . S
C1844 C1843 1.524 . S
C1845 C1842 1.403 . S
C1845 C1846 1.392 . S
C1845 C1849 1.495 . S
C1846 C1845 1.392 . S
C1846 C1847 1.385 . S
C1846 C1848 1.478 . S
C1847 H1841 0.930 . S
C1847 C1843 1.400 . S
C1847 C1846 1.385 . S
C1848 C1846 1.478 . S
C1848 C1850 1.381 . S
C1848 C1854 1.383 . S
C1849 C1845 1.495 . S
C1849 H1855 0.959 . S
C1849 H1856 0.961 . S
C1849 H1857 0.960 . S
C1850 C1848 1.381 . S
C1850 C1851 1.394 . S
C1850 H1858 0.930 . S
C1851 C1850 1.394 . S
C1851 C1852 1.383 . S
C1851 H1859 0.929 . S
C1852 C1851 1.383 . S
C1852 C1853 1.377 . S
C1853 H1837 0.930 . S
C1853 C1852 1.377 . S
C1853 C1854 1.379 . S
C1854 H1838 0.931 . S
C1854 C1848 1.383 . S
C1854 C1853 1.379 . S
H1855 C1849 0.959 . S
H1856 C1849 0.961 . S
H1857 C1849 0.960 . S
H1858 C1850 0.930 . S
H1859 C1851 0.929 . S
H1860 C1868 0.929 . S
H1861 C1870 0.930 . S
H1862 C1872 0.930 . S
H1863 C1875 0.929 . S
H1864 C1878 0.930 . S
H1865 C1880 0.960 . S
H1866 C1880 0.960 . S
H1867 C1880 0.960 . S
C1868 H1860 0.929 . S
C1868 C1869 1.377 . S
C1868 C1870 1.384 . S
C1869 C1868 1.377 . S
C1869 C1875 1.390 . S
C1870 H1861 0.930 . S
C1870 C1868 1.384 . S
C1870 C1871 1.372 . S
C1871 C1870 1.372 . S
C1871 C1872 1.400 . S
C1871 C1876 1.490 . S
C1872 H1862 0.930 . S
C1872 C1871 1.400 . S
C1872 C1875 1.386 . S
H1873 C1889 0.930 . S
H1874 C1890 0.931 . S
C1875 H1863 0.929 . S
C1875 C1869 1.390 . S
C1875 C1872 1.386 . S
C1876 C1871 1.490 . S
C1876 C1878 1.395 . S
C1876 C1879 1.403 1_545 S
H1877 C1883 0.930 . S
C1878 H1864 0.930 . S
C1878 C1876 1.395 . S
C1878 C1881 1.403 1_455 S
C1879 C1876 1.403 1_565 S
C1879 C1880 1.524 . S
C1879 C1883 1.400 1_455 S
C1880 H1865 0.960 . S
C1880 H1866 0.960 . S
C1880 H1867 0.960 . S
C1880 C1879 1.524 . S
C1881 C1878 1.403 1_655 S
C1881 C1882 1.392 1_545 S
C1881 C1885 1.495 . S
C1882 C1881 1.392 1_565 S
C1882 C1883 1.385 . S
C1882 C1884 1.478 . S
C1883 H1877 0.930 . S
C1883 C1879 1.400 1_655 S
C1883 C1882 1.385 . S
C1884 C1882 1.478 . S
C1884 C1886 1.381 . S
C1884 C1890 1.383 . S
C1885 C1881 1.495 . S
C1885 H1891 0.959 . S
C1885 H1892 0.961 . S
C1885 H1893 0.960 . S
C1886 C1884 1.381 . S
C1886 C1887 1.394 . S
C1886 H1894 0.930 . S
C1887 C1886 1.394 . S
C1887 C1888 1.383 . S
C1887 H1895 0.929 . S
C1888 C1887 1.383 . S
C1888 C1889 1.377 . S
C1889 H1873 0.930 . S
C1889 C1888 1.377 . S
C1889 C1890 1.379 . S
C1890 H1874 0.931 . S
C1890 C1884 1.383 . S
C1890 C1889 1.379 . S
H1891 C1885 0.959 . S
H1892 C1885 0.961 . S
H1893 C1885 0.960 . S
H1894 C1886 0.930 . S
H1895 C1887 0.929 . S
H1896 C1904 0.929 . S
H1897 C1906 0.930 . S
H1898 C1908 0.930 . S
H1899 C1911 0.929 . S
H1900 C1914 0.930 . S
H1901 C1916 0.960 . S
H1902 C1916 0.960 . S
H1903 C1916 0.960 . S
C1904 H1896 0.929 . S
C1904 C1905 1.377 . S
C1904 C1906 1.384 . S
C1905 C1904 1.377 . S
C1905 C1911 1.390 . S
C1906 H1897 0.930 . S
C1906 C1904 1.384 . S
C1906 C1907 1.372 . S
C1907 C1906 1.372 . S
C1907 C1908 1.400 . S
C1907 C1912 1.490 . S
C1908 H1898 0.930 . S
C1908 C1907 1.400 . S
C1908 C1911 1.386 . S
H1909 C1925 0.930 . S
H1910 C1926 0.931 . S
C1911 H1899 0.929 . S
C1911 C1905 1.390 . S
C1911 C1908 1.386 . S
C1912 C1907 1.490 . S
C1912 C1914 1.395 . S
C1912 C1915 1.403 . S
H1913 C1919 0.930 . S
C1914 H1900 0.930 . S
C1914 C1912 1.395 . S
C1914 C1917 1.403 . S
C1915 C1912 1.403 . S
C1915 C1916 1.524 . S
C1915 C1919 1.400 . S
C1916 H1901 0.960 . S
C1916 H1902 0.960 . S
C1916 H1903 0.960 . S
C1916 C1915 1.524 . S
C1917 C1914 1.403 . S
C1917 C1918 1.392 . S
C1917 C1921 1.495 . S
C1918 C1917 1.392 . S
C1918 C1919 1.385 . S
C1918 C1920 1.478 . S
C1919 H1913 0.930 . S
C1919 C1915 1.400 . S
C1919 C1918 1.385 . S
C1920 C1918 1.478 . S
C1920 C1922 1.381 . S
C1920 C1926 1.383 . S
C1921 C1917 1.495 . S
C1921 H1927 0.959 . S
C1921 H1928 0.961 . S
C1921 H1929 0.960 . S
C1922 C1920 1.381 . S
C1922 C1923 1.394 . S
C1922 H1930 0.930 . S
C1923 C1922 1.394 . S
C1923 C1924 1.383 . S
C1923 H1931 0.929 . S
C1924 C1923 1.383 . S
C1924 C1925 1.377 . S
C1925 H1909 0.930 . S
C1925 C1924 1.377 . S
C1925 C1926 1.379 . S
C1926 H1910 0.931 . S
C1926 C1920 1.383 . S
C1926 C1925 1.379 . S
H1927 C1921 0.959 . S
H1928 C1921 0.961 . S
H1929 C1921 0.960 . S
H1930 C1922 0.930 . S
H1931 C1923 0.929 . S
H1932 C1940 0.929 . S
H1933 C1942 0.930 1_545 S
H1934 C1944 0.930 . S
H1935 C1947 0.929 . S
H1936 C1950 0.930 . S
H1937 C1952 0.960 . S
H1938 C1952 0.960 . S
H1939 C1952 0.960 . S
C1940 H1932 0.929 . S
C1940 C1941 1.377 . S
C1940 C1942 1.384 . S
C1941 C1940 1.377 . S
C1941 C1947 1.390 . S
C1942 H1933 0.930 1_565 S
C1942 C1940 1.384 . S
C1942 C1943 1.372 . S
C1943 C1942 1.372 . S
C1943 C1944 1.400 . S
C1943 C1948 1.490 . S
C1944 H1934 0.930 . S
C1944 C1943 1.400 . S
C1944 C1947 1.386 . S
H1945 C1961 0.930 . S
H1946 C1962 0.931 . S
C1947 H1935 0.929 . S
C1947 C1941 1.390 . S
C1947 C1944 1.386 . S
C1948 C1943 1.490 . S
C1948 C1950 1.395 1_565 S
C1948 C1951 1.403 . S
H1949 C1955 0.930 . S
C1950 H1936 0.930 . S
C1950 C1948 1.395 1_545 S
C1950 C1953 1.403 . S
C1951 C1948 1.403 . S
C1951 C1952 1.524 . S
C1951 C1955 1.400 . S
C1952 H1937 0.960 . S
C1952 H1938 0.960 . S
C1952 H1939 0.960 . S
C1952 C1951 1.524 . S
C1953 C1950 1.403 . S
C1953 C1954 1.392 . S
C1953 C1957 1.495 . S
C1954 C1953 1.392 . S
C1954 C1955 1.385 1_545 S
C1954 C1956 1.478 . S
C1955 H1949 0.930 . S
C1955 C1951 1.400 . S
C1955 C1954 1.385 1_565 S
C1956 C1954 1.478 . S
C1956 C1958 1.381 . S
C1956 C1962 1.383 . S
C1957 C1953 1.495 . S
C1957 H1963 0.959 . S
C1957 H1964 0.961 . S
C1957 H1965 0.960 . S
C1958 C1956 1.381 . S
C1958 C1959 1.394 . S
C1958 H1966 0.930 . S
C1959 C1958 1.394 . S
C1959 C1960 1.383 . S
C1959 H1967 0.929 . S
C1960 C1959 1.383 . S
C1960 C1961 1.377 . S
C1961 H1945 0.930 . S
C1961 C1960 1.377 . S
C1961 C1962 1.379 . S
C1962 H1946 0.931 . S
C1962 C1956 1.383 . S
C1962 C1961 1.379 . S
H1963 C1957 0.959 . S
H1964 C1957 0.961 . S
H1965 C1957 0.960 . S
H1966 C1958 0.930 . S
H1967 C1959 0.929 . S
C537 C28 1.723 . S
C556 N377 1.707 . S
C573 C61 1.725 . S
C592 N344 1.709 . S
C609 N47 1.717 1_455 S
C628 C94 1.723 . S
C645 N14 1.715 1_655 S
C664 C127 1.706 . S
C681 C160 1.723 . S
C700 N509 1.718 . S
C717 C193 1.725 . S
C736 N476 1.699 . S
C753 N179 1.715 1_455 S
C772 C226 1.712 . S
C789 C259 1.720 . S
C808 N146 1.705 1_655 S
C825 N113 1.715 . S
C844 C292 1.732 . S
C861 N80 1.717 . S
C880 C325 1.717 . S
C897 N311 1.720 . S
C916 C358 1.732 . S
C933 N278 1.719 . S
C952 C391 1.718 . S
C969 C424 1.720 . S
C988 N245 1.729 . S
C1005 C457 1.725 . S
C1024 N212 1.700 . S
C1041 C490 1.722 . S
C1060 N443 1.719 . S
C1077 N410 1.717 . S
C1096 C523 1.708 . S
C1113 C182 1.031 . S
C1132 C8 1.045 . S
C1149 C149 1.033 . S
C1168 C41 1.034 . S
C1185 C74 1.019 . S
C1204 C380 1.019 . S
C1221 C347 1.034 . S
C1240 C107 1.015 . S
C1257 C50 1.034 . S
C1276 C140 1.004 . S
C1293 C17 1.036 . S
C1312 C173 1.003 . S
C1329 C206 1.019 . S
C1348 C512 1.019 . S
C1365 C239 1.019 . S
C1384 C479 1.021 . S
C1401 C272 1.029 . S
C1420 C446 1.027 . S
C1437 C413 1.033 . S
C1456 C305 1.043 . S
C1473 C116 1.035 . S
C1492 C338 1.029 . S
C1509 C83 1.035 . S
C1528 C371 1.045 . S
C1545 C314 1.032 . S
C1564 C404 1.041 . S
C1581 C281 1.032 . S
C1600 C437 1.044 . S
C1617 C248 1.031 . S
C1636 C470 0.997 . S
C1653 C215 1.031 . S
C1672 C503 0.999 . S
C1689 N434 1.428 . S
C1708 N5 1.422 . S
C1725 N38 1.420 . S
C1744 N401 1.445 . S
C1761 N71 1.427 . S
C1780 N104 1.427 . S
C1797 N302 1.421 . S
C1816 N137 1.399 . S
C1833 N170 1.418 . S
C1852 N269 1.426 . S
C1869 N203 1.419 . S
C1888 N236 1.418 . S
C1905 N368 1.418 . S
C1924 N335 1.434 . S
C1941 N500 1.429 . S
C1960 N467 1.410 . S
