# Generated by pormake.
# Topology fcg, (5)-cn, num edge types: 1
# Building blocks:
#     Node 0, Type 0, BuildingBlock: XOMCOT_clean_sbu_1, # of connection points: 5
#     Node 1, Type 0, BuildingBlock: XOMCOT_clean_sbu_1, # of connection points: 5
#     Node 2, Type 0, BuildingBlock: XOMCOT_clean_sbu_1, # of connection points: 5
#     Node 3, Type 0, BuildingBlock: XOMCOT_clean_sbu_1, # of connection points: 5
#     Node 4, Type 0, BuildingBlock: XOMCOT_clean_sbu_1, # of connection points: 5
#     Node 5, Type 0, BuildingBlock: XOMCOT_clean_sbu_1, # of connection points: 5
#     Node 6, Type 0, BuildingBlock: XOMCOT_clean_sbu_1, # of connection points: 5
#     Node 7, Type 0, BuildingBlock: XOMCOT_clean_sbu_1, # of connection points: 5
#     Node 8, Type 0, BuildingBlock: XOMCOT_clean_sbu_1, # of connection points: 5
#     Node 9, Type 0, BuildingBlock: XOMCOT_clean_sbu_1, # of connection points: 5
#     Node 10, Type 0, BuildingBlock: XOMCOT_clean_sbu_1, # of connection points: 5
#     Node 11, Type 0, BuildingBlock: XOMCOT_clean_sbu_1, # of connection points: 5
#     Node 12, Type 0, BuildingBlock: XOMCOT_clean_sbu_1, # of connection points: 5
#     Node 13, Type 0, BuildingBlock: XOMCOT_clean_sbu_1, # of connection points: 5
#     Node 14, Type 0, BuildingBlock: XOMCOT_clean_sbu_1, # of connection points: 5
#     Node 15, Type 0, BuildingBlock: XOMCOT_clean_sbu_1, # of connection points: 5
#     Node 16, Type 0, BuildingBlock: XOMCOT_clean_sbu_1, # of connection points: 5
#     Node 17, Type 0, BuildingBlock: XOMCOT_clean_sbu_1, # of connection points: 5
#     Node 18, Type 0, BuildingBlock: XOMCOT_clean_sbu_1, # of connection points: 5
#     Node 19, Type 0, BuildingBlock: XOMCOT_clean_sbu_1, # of connection points: 5
#     Node 20, Type 0, BuildingBlock: XOMCOT_clean_sbu_1, # of connection points: 5
#     Node 21, Type 0, BuildingBlock: XOMCOT_clean_sbu_1, # of connection points: 5
#     Node 22, Type 0, BuildingBlock: XOMCOT_clean_sbu_1, # of connection points: 5
#     Node 23, Type 0, BuildingBlock: XOMCOT_clean_sbu_1, # of connection points: 5
#     Node 24, Type 0, BuildingBlock: XOMCOT_clean_sbu_1, # of connection points: 5
#     Node 25, Type 0, BuildingBlock: XOMCOT_clean_sbu_1, # of connection points: 5
#     Node 26, Type 0, BuildingBlock: XOMCOT_clean_sbu_1, # of connection points: 5
#     Node 27, Type 0, BuildingBlock: XOMCOT_clean_sbu_1, # of connection points: 5
#     Node 28, Type 0, BuildingBlock: XOMCOT_clean_sbu_1, # of connection points: 5
#     Node 29, Type 0, BuildingBlock: XOMCOT_clean_sbu_1, # of connection points: 5
#     Node 30, Type 0, BuildingBlock: XOMCOT_clean_sbu_1, # of connection points: 5
#     Node 31, Type 0, BuildingBlock: XOMCOT_clean_sbu_1, # of connection points: 5
#     Node 32, Type 0, BuildingBlock: XOMCOT_clean_sbu_1, # of connection points: 5
#     Node 33, Type 0, BuildingBlock: XOMCOT_clean_sbu_1, # of connection points: 5
#     Node 34, Type 0, BuildingBlock: XOMCOT_clean_sbu_1, # of connection points: 5
#     Node 35, Type 0, BuildingBlock: XOMCOT_clean_sbu_1, # of connection points: 5
#     Node 36, Type 0, BuildingBlock: XOMCOT_clean_sbu_1, # of connection points: 5
#     Node 37, Type 0, BuildingBlock: XOMCOT_clean_sbu_1, # of connection points: 5
#     Node 38, Type 0, BuildingBlock: XOMCOT_clean_sbu_1, # of connection points: 5
#     Node 39, Type 0, BuildingBlock: XOMCOT_clean_sbu_1, # of connection points: 5
#     Node 40, Type 0, BuildingBlock: XOMCOT_clean_sbu_1, # of connection points: 5
#     Node 41, Type 0, BuildingBlock: XOMCOT_clean_sbu_1, # of connection points: 5
#     Node 42, Type 0, BuildingBlock: XOMCOT_clean_sbu_1, # of connection points: 5
#     Node 43, Type 0, BuildingBlock: XOMCOT_clean_sbu_1, # of connection points: 5
#     Node 44, Type 0, BuildingBlock: XOMCOT_clean_sbu_1, # of connection points: 5
#     Node 45, Type 0, BuildingBlock: XOMCOT_clean_sbu_1, # of connection points: 5
#     Node 46, Type 0, BuildingBlock: XOMCOT_clean_sbu_1, # of connection points: 5
#     Node 47, Type 0, BuildingBlock: XOMCOT_clean_sbu_1, # of connection points: 5
#     Edge 48, Type (0, 0), BuildingBlock: XUDNAN_clean_linker_2, # of connection points: 2
#     Edge 49, Type (0, 0), BuildingBlock: XUDNAN_clean_linker_2, # of connection points: 2
#     Edge 50, Type (0, 0), BuildingBlock: XUDNAN_clean_linker_2, # of connection points: 2
#     Edge 51, Type (0, 0), BuildingBlock: XUDNAN_clean_linker_2, # of connection points: 2
#     Edge 52, Type (0, 0), BuildingBlock: XUDNAN_clean_linker_2, # of connection points: 2
#     Edge 53, Type (0, 0), BuildingBlock: XUDNAN_clean_linker_2, # of connection points: 2
#     Edge 54, Type (0, 0), BuildingBlock: XUDNAN_clean_linker_2, # of connection points: 2
#     Edge 55, Type (0, 0), BuildingBlock: XUDNAN_clean_linker_2, # of connection points: 2
#     Edge 56, Type (0, 0), BuildingBlock: XUDNAN_clean_linker_2, # of connection points: 2
#     Edge 57, Type (0, 0), BuildingBlock: XUDNAN_clean_linker_2, # of connection points: 2
#     Edge 58, Type (0, 0), BuildingBlock: XUDNAN_clean_linker_2, # of connection points: 2
#     Edge 59, Type (0, 0), BuildingBlock: XUDNAN_clean_linker_2, # of connection points: 2
#     Edge 60, Type (0, 0), BuildingBlock: XUDNAN_clean_linker_2, # of connection points: 2
#     Edge 61, Type (0, 0), BuildingBlock: XUDNAN_clean_linker_2, # of connection points: 2
#     Edge 62, Type (0, 0), BuildingBlock: XUDNAN_clean_linker_2, # of connection points: 2
#     Edge 63, Type (0, 0), BuildingBlock: XUDNAN_clean_linker_2, # of connection points: 2
#     Edge 64, Type (0, 0), BuildingBlock: XUDNAN_clean_linker_2, # of connection points: 2
#     Edge 65, Type (0, 0), BuildingBlock: XUDNAN_clean_linker_2, # of connection points: 2
#     Edge 66, Type (0, 0), BuildingBlock: XUDNAN_clean_linker_2, # of connection points: 2
#     Edge 67, Type (0, 0), BuildingBlock: XUDNAN_clean_linker_2, # of connection points: 2
#     Edge 68, Type (0, 0), BuildingBlock: XUDNAN_clean_linker_2, # of connection points: 2
#     Edge 69, Type (0, 0), BuildingBlock: XUDNAN_clean_linker_2, # of connection points: 2
#     Edge 70, Type (0, 0), BuildingBlock: XUDNAN_clean_linker_2, # of connection points: 2
#     Edge 71, Type (0, 0), BuildingBlock: XUDNAN_clean_linker_2, # of connection points: 2
#     Edge 72, Type (0, 0), BuildingBlock: XUDNAN_clean_linker_2, # of connection points: 2
#     Edge 73, Type (0, 0), BuildingBlock: XUDNAN_clean_linker_2, # of connection points: 2
#     Edge 74, Type (0, 0), BuildingBlock: XUDNAN_clean_linker_2, # of connection points: 2
#     Edge 75, Type (0, 0), BuildingBlock: XUDNAN_clean_linker_2, # of connection points: 2
#     Edge 76, Type (0, 0), BuildingBlock: XUDNAN_clean_linker_2, # of connection points: 2
#     Edge 77, Type (0, 0), BuildingBlock: XUDNAN_clean_linker_2, # of connection points: 2
#     Edge 78, Type (0, 0), BuildingBlock: XUDNAN_clean_linker_2, # of connection points: 2
#     Edge 79, Type (0, 0), BuildingBlock: XUDNAN_clean_linker_2, # of connection points: 2
#     Edge 80, Type (0, 0), BuildingBlock: XUDNAN_clean_linker_2, # of connection points: 2
#     Edge 81, Type (0, 0), BuildingBlock: XUDNAN_clean_linker_2, # of connection points: 2
#     Edge 82, Type (0, 0), BuildingBlock: XUDNAN_clean_linker_2, # of connection points: 2
#     Edge 83, Type (0, 0), BuildingBlock: XUDNAN_clean_linker_2, # of connection points: 2
#     Edge 84, Type (0, 0), BuildingBlock: XUDNAN_clean_linker_2, # of connection points: 2
#     Edge 85, Type (0, 0), BuildingBlock: XUDNAN_clean_linker_2, # of connection points: 2
#     Edge 86, Type (0, 0), BuildingBlock: XUDNAN_clean_linker_2, # of connection points: 2
#     Edge 87, Type (0, 0), BuildingBlock: XUDNAN_clean_linker_2, # of connection points: 2
#     Edge 88, Type (0, 0), BuildingBlock: XUDNAN_clean_linker_2, # of connection points: 2
#     Edge 89, Type (0, 0), BuildingBlock: XUDNAN_clean_linker_2, # of connection points: 2
#     Edge 90, Type (0, 0), BuildingBlock: XUDNAN_clean_linker_2, # of connection points: 2
#     Edge 91, Type (0, 0), BuildingBlock: XUDNAN_clean_linker_2, # of connection points: 2
#     Edge 92, Type (0, 0), BuildingBlock: XUDNAN_clean_linker_2, # of connection points: 2
#     Edge 93, Type (0, 0), BuildingBlock: XUDNAN_clean_linker_2, # of connection points: 2
#     Edge 94, Type (0, 0), BuildingBlock: XUDNAN_clean_linker_2, # of connection points: 2
#     Edge 95, Type (0, 0), BuildingBlock: XUDNAN_clean_linker_2, # of connection points: 2
#     Edge 96, Type (0, 0), BuildingBlock: XUDNAN_clean_linker_2, # of connection points: 2
#     Edge 97, Type (0, 0), BuildingBlock: XUDNAN_clean_linker_2, # of connection points: 2
#     Edge 98, Type (0, 0), BuildingBlock: XUDNAN_clean_linker_2, # of connection points: 2
#     Edge 99, Type (0, 0), BuildingBlock: XUDNAN_clean_linker_2, # of connection points: 2
#     Edge 100, Type (0, 0), BuildingBlock: XUDNAN_clean_linker_2, # of connection points: 2
#     Edge 101, Type (0, 0), BuildingBlock: XUDNAN_clean_linker_2, # of connection points: 2
#     Edge 102, Type (0, 0), BuildingBlock: XUDNAN_clean_linker_2, # of connection points: 2
#     Edge 103, Type (0, 0), BuildingBlock: XUDNAN_clean_linker_2, # of connection points: 2
#     Edge 104, Type (0, 0), BuildingBlock: XUDNAN_clean_linker_2, # of connection points: 2
#     Edge 105, Type (0, 0), BuildingBlock: XUDNAN_clean_linker_2, # of connection points: 2
#     Edge 106, Type (0, 0), BuildingBlock: XUDNAN_clean_linker_2, # of connection points: 2
#     Edge 107, Type (0, 0), BuildingBlock: XUDNAN_clean_linker_2, # of connection points: 2
#     Edge 108, Type (0, 0), BuildingBlock: XUDNAN_clean_linker_2, # of connection points: 2
#     Edge 109, Type (0, 0), BuildingBlock: XUDNAN_clean_linker_2, # of connection points: 2
#     Edge 110, Type (0, 0), BuildingBlock: XUDNAN_clean_linker_2, # of connection points: 2
#     Edge 111, Type (0, 0), BuildingBlock: XUDNAN_clean_linker_2, # of connection points: 2
#     Edge 112, Type (0, 0), BuildingBlock: XUDNAN_clean_linker_2, # of connection points: 2
#     Edge 113, Type (0, 0), BuildingBlock: XUDNAN_clean_linker_2, # of connection points: 2
#     Edge 114, Type (0, 0), BuildingBlock: XUDNAN_clean_linker_2, # of connection points: 2
#     Edge 115, Type (0, 0), BuildingBlock: XUDNAN_clean_linker_2, # of connection points: 2
#     Edge 116, Type (0, 0), BuildingBlock: XUDNAN_clean_linker_2, # of connection points: 2
#     Edge 117, Type (0, 0), BuildingBlock: XUDNAN_clean_linker_2, # of connection points: 2
#     Edge 118, Type (0, 0), BuildingBlock: XUDNAN_clean_linker_2, # of connection points: 2
#     Edge 119, Type (0, 0), BuildingBlock: XUDNAN_clean_linker_2, # of connection points: 2
#     Edge 120, Type (0, 0), BuildingBlock: XUDNAN_clean_linker_2, # of connection points: 2
#     Edge 121, Type (0, 0), BuildingBlock: XUDNAN_clean_linker_2, # of connection points: 2
#     Edge 122, Type (0, 0), BuildingBlock: XUDNAN_clean_linker_2, # of connection points: 2
#     Edge 123, Type (0, 0), BuildingBlock: XUDNAN_clean_linker_2, # of connection points: 2
#     Edge 124, Type (0, 0), BuildingBlock: XUDNAN_clean_linker_2, # of connection points: 2
#     Edge 125, Type (0, 0), BuildingBlock: XUDNAN_clean_linker_2, # of connection points: 2
#     Edge 126, Type (0, 0), BuildingBlock: XUDNAN_clean_linker_2, # of connection points: 2
#     Edge 127, Type (0, 0), BuildingBlock: XUDNAN_clean_linker_2, # of connection points: 2
#     Edge 128, Type (0, 0), BuildingBlock: XUDNAN_clean_linker_2, # of connection points: 2
#     Edge 129, Type (0, 0), BuildingBlock: XUDNAN_clean_linker_2, # of connection points: 2
#     Edge 130, Type (0, 0), BuildingBlock: XUDNAN_clean_linker_2, # of connection points: 2
#     Edge 131, Type (0, 0), BuildingBlock: XUDNAN_clean_linker_2, # of connection points: 2
#     Edge 132, Type (0, 0), BuildingBlock: XUDNAN_clean_linker_2, # of connection points: 2
#     Edge 133, Type (0, 0), BuildingBlock: XUDNAN_clean_linker_2, # of connection points: 2
#     Edge 134, Type (0, 0), BuildingBlock: XUDNAN_clean_linker_2, # of connection points: 2
#     Edge 135, Type (0, 0), BuildingBlock: XUDNAN_clean_linker_2, # of connection points: 2
#     Edge 136, Type (0, 0), BuildingBlock: XUDNAN_clean_linker_2, # of connection points: 2
#     Edge 137, Type (0, 0), BuildingBlock: XUDNAN_clean_linker_2, # of connection points: 2
#     Edge 138, Type (0, 0), BuildingBlock: XUDNAN_clean_linker_2, # of connection points: 2
#     Edge 139, Type (0, 0), BuildingBlock: XUDNAN_clean_linker_2, # of connection points: 2
#     Edge 140, Type (0, 0), BuildingBlock: XUDNAN_clean_linker_2, # of connection points: 2
#     Edge 141, Type (0, 0), BuildingBlock: XUDNAN_clean_linker_2, # of connection points: 2
#     Edge 142, Type (0, 0), BuildingBlock: XUDNAN_clean_linker_2, # of connection points: 2
#     Edge 143, Type (0, 0), BuildingBlock: XUDNAN_clean_linker_2, # of connection points: 2
#     Edge 144, Type (0, 0), BuildingBlock: XUDNAN_clean_linker_2, # of connection points: 2
#     Edge 145, Type (0, 0), BuildingBlock: XUDNAN_clean_linker_2, # of connection points: 2
#     Edge 146, Type (0, 0), BuildingBlock: XUDNAN_clean_linker_2, # of connection points: 2
#     Edge 147, Type (0, 0), BuildingBlock: XUDNAN_clean_linker_2, # of connection points: 2
#     Edge 148, Type (0, 0), BuildingBlock: XUDNAN_clean_linker_2, # of connection points: 2
#     Edge 149, Type (0, 0), BuildingBlock: XUDNAN_clean_linker_2, # of connection points: 2
#     Edge 150, Type (0, 0), BuildingBlock: XUDNAN_clean_linker_2, # of connection points: 2
#     Edge 151, Type (0, 0), BuildingBlock: XUDNAN_clean_linker_2, # of connection points: 2
#     Edge 152, Type (0, 0), BuildingBlock: XUDNAN_clean_linker_2, # of connection points: 2
#     Edge 153, Type (0, 0), BuildingBlock: XUDNAN_clean_linker_2, # of connection points: 2
#     Edge 154, Type (0, 0), BuildingBlock: XUDNAN_clean_linker_2, # of connection points: 2
#     Edge 155, Type (0, 0), BuildingBlock: XUDNAN_clean_linker_2, # of connection points: 2
#     Edge 156, Type (0, 0), BuildingBlock: XUDNAN_clean_linker_2, # of connection points: 2
#     Edge 157, Type (0, 0), BuildingBlock: XUDNAN_clean_linker_2, # of connection points: 2
#     Edge 158, Type (0, 0), BuildingBlock: XUDNAN_clean_linker_2, # of connection points: 2
#     Edge 159, Type (0, 0), BuildingBlock: XUDNAN_clean_linker_2, # of connection points: 2
#     Edge 160, Type (0, 0), BuildingBlock: XUDNAN_clean_linker_2, # of connection points: 2
#     Edge 161, Type (0, 0), BuildingBlock: XUDNAN_clean_linker_2, # of connection points: 2
#     Edge 162, Type (0, 0), BuildingBlock: XUDNAN_clean_linker_2, # of connection points: 2
#     Edge 163, Type (0, 0), BuildingBlock: XUDNAN_clean_linker_2, # of connection points: 2
#     Edge 164, Type (0, 0), BuildingBlock: XUDNAN_clean_linker_2, # of connection points: 2
#     Edge 165, Type (0, 0), BuildingBlock: XUDNAN_clean_linker_2, # of connection points: 2
#     Edge 166, Type (0, 0), BuildingBlock: XUDNAN_clean_linker_2, # of connection points: 2
#     Edge 167, Type (0, 0), BuildingBlock: XUDNAN_clean_linker_2, # of connection points: 2
# Relax obj value: 0.360
# Max RMSD: 0.248
# Mean RMSD: 0.248
data_MOF--net-fcg--node1-XOMCOT_clean_sbu_1--edge1-XUDNAN_clean_linker_2
_symmetry_space_group_name_H-M    P1
_symmetry_Int_Tables_number       1
_symmetry_cell_setting            triclinic
loop_
_symmetry_equiv_pos_as_xyz
'x, y, z'
_cell_length_a     66.485132
_cell_length_b     66.452455
_cell_length_c     66.466827
_cell_angle_alpha  90.0372
_cell_angle_beta   89.994352
_cell_angle_gamma 89.983742
loop_
_atom_site_label
_atom_site_type_symbol
_atom_site_fract_x
_atom_site_fract_y
_atom_site_fract_z
_atom_type_partial_charge
C0 C 0.13547 0.29614 0.1403 0.0
C1 C 0.15224 0.28475 0.13555 0.0
N2 N 0.14683 0.26522 0.13567 0.0
N3 N 0.11971 0.2837 0.14322 0.0
C4 C 0.12714 0.26507 0.14018 0.0
H5 H 0.1346 0.31238 0.14073 0.0
Co6 Co 0.09264 0.28969 0.14626 0.0
C7 C 0.0774 0.25636 0.1723 0.0
O8 O 0.06437 0.26813 0.18132 0.0
N9 N 0.06455 0.29545 0.14882 0.0
C10 C 0.03392 0.30557 0.15853 0.0
C11 C 0.05407 0.3054 0.16328 0.0
C12 C 0.05014 0.28973 0.13558 0.0
N13 N 0.03164 0.29582 0.14101 0.0
O14 O 0.08857 0.27917 0.11998 0.0
H15 H 0.0603 0.31175 0.17686 0.0
H16 H 0.05283 0.28099 0.12215 0.0
O17 O 0.08849 0.26331 0.15826 0.0
C18 C 0.08878 0.29353 0.10732 0.0
O19 O 0.09004 0.31211 0.11402 0.0
N20 N 0.09827 0.30164 0.17103 0.0
C21 C 0.10841 0.32431 0.20474 0.0
C22 C 0.11062 0.30331 0.20488 0.0
C23 C 0.1057 0.29221 0.1877 0.0
C24 C 0.09731 0.3221 0.17024 0.0
C25 C 0.10185 0.33372 0.18707 0.0
H26 H 0.10846 0.27622 0.1877 0.0
H27 H 0.09264 0.32939 0.15646 0.0
H28 H 0.11802 0.25162 0.1398 0.0
H29 H 0.16707 0.29038 0.13187 0.0
H30 H 0.02196 0.31264 0.16703 0.0
H31 H 0.11619 0.29557 0.21809 0.0
H32 H 0.10066 0.34995 0.18613 0.0
C33 C 0.70468 0.14779 0.12176 0.0
C34 C 0.71614 0.1643 0.11656 0.0
N35 N 0.73541 0.15827 0.11474 0.0
N36 N 0.71674 0.13153 0.12335 0.0
C37 C 0.73524 0.13842 0.11867 0.0
H38 H 0.68857 0.14769 0.12387 0.0
Co39 Co 0.71039 0.10474 0.12861 0.0
C40 C 0.75353 0.09513 0.1374 0.0
O41 O 0.75708 0.08875 0.11904 0.0
N42 N 0.70428 0.07765 0.13352 0.0
C43 C 0.6891 0.04863 0.1404 0.0
C44 C 0.68744 0.06926 0.14119 0.0
C45 C 0.71578 0.06181 0.12809 0.0
N46 N 0.70697 0.04399 0.13204 0.0
O47 O 0.72146 0.09785 0.10317 0.0
H48 H 0.67441 0.0774 0.14643 0.0
H49 H 0.73019 0.06327 0.12084 0.0
O50 O 0.73606 0.10145 0.14231 0.0
C51 C 0.70771 0.09597 0.09 0.0
O52 O 0.68887 0.09675 0.09594 0.0
N53 N 0.69778 0.11238 0.15255 0.0
C54 C 0.67466 0.12864 0.18357 0.0
C55 C 0.69482 0.12317 0.18687 0.0
C56 C 0.70616 0.11495 0.17112 0.0
C57 C 0.67809 0.11694 0.14932 0.0
C58 C 0.66622 0.12487 0.16461 0.0
H59 H 0.72167 0.1112 0.17389 0.0
H60 H 0.67168 0.11468 0.13452 0.0
H61 H 0.74831 0.12893 0.11729 0.0
H62 H 0.71072 0.17949 0.11432 0.0
H63 H 0.67767 0.03794 0.14487 0.0
H64 H 0.70201 0.12586 0.20125 0.0
H65 H 0.65062 0.12829 0.16144 0.0
C66 C 0.88357 0.72051 0.09256 0.0
C67 C 0.8676 0.72773 0.08144 0.0
N68 N 0.86195 0.74563 0.08924 0.0
N69 N 0.88779 0.73375 0.10731 0.0
C70 C 0.87446 0.74881 0.10489 0.0
H71 H 0.89201 0.7069 0.08968 0.0
Co72 Co 0.90946 0.73412 0.12478 0.0
C73 C 0.89031 0.74389 0.16336 0.0
O74 O 0.8996 0.72832 0.17124 0.0
N75 N 0.93229 0.73556 0.14134 0.0
C76 C 0.95702 0.74948 0.15916 0.0
C77 C 0.93664 0.74921 0.15582 0.0
C78 C 0.9504 0.72811 0.13591 0.0
N79 N 0.96567 0.73635 0.14643 0.0
O80 O 0.9174 0.75921 0.1128 0.0
H81 H 0.92627 0.76008 0.16199 0.0
H82 H 0.9525 0.71856 0.12288 0.0
O83 O 0.89339 0.74873 0.14497 0.0
C84 C 0.92862 0.75911 0.09729 0.0
O85 O 0.94637 0.75056 0.09864 0.0
N86 N 0.901 0.70882 0.13618 0.0
C87 C 0.8877 0.67753 0.16104 0.0
C88 C 0.87394 0.69025 0.15142 0.0
C89 C 0.88084 0.70586 0.13933 0.0
C90 C 0.91432 0.69456 0.14274 0.0
C91 C 0.90806 0.67909 0.15564 0.0
H92 H 0.86985 0.71663 0.13418 0.0
H93 H 0.93004 0.6956 0.13917 0.0
H94 H 0.87491 0.76251 0.11367 0.0
H95 H 0.86105 0.72056 0.06838 0.0
H96 H 0.96495 0.75976 0.16899 0.0
H97 H 0.85794 0.68908 0.15421 0.0
H98 H 0.9193 0.66931 0.1622 0.0
C99 C 0.29286 0.85448 0.12703 0.0
C100 C 0.28254 0.83652 0.12595 0.0
N101 N 0.2628 0.8407 0.12409 0.0
N102 N 0.27962 0.86979 0.12584 0.0
C103 C 0.26147 0.86093 0.12395 0.0
H104 H 0.30898 0.85631 0.12827 0.0
Co105 Co 0.2857 0.89689 0.12483 0.0
C106 C 0.25157 0.91665 0.14582 0.0
O107 O 0.26387 0.93039 0.15297 0.0
N108 N 0.29204 0.92446 0.12286 0.0
C109 C 0.30776 0.95396 0.12082 0.0
C110 C 0.30945 0.93424 0.12674 0.0
C111 C 0.28025 0.93858 0.11407 0.0
N112 N 0.28935 0.95667 0.11289 0.0
O113 O 0.27764 0.89714 0.09738 0.0
H114 H 0.32293 0.92764 0.13278 0.0
H115 H 0.26538 0.9355 0.10821 0.0
O116 O 0.25826 0.9034 0.13353 0.0
C117 C 0.29248 0.89468 0.08554 0.0
O118 O 0.31064 0.89374 0.09329 0.0
N119 N 0.29476 0.89527 0.15178 0.0
C120 C 0.31066 0.89007 0.19026 0.0
C121 C 0.28995 0.8886 0.18697 0.0
C122 C 0.28242 0.89044 0.16752 0.0
C123 C 0.3151 0.89505 0.15451 0.0
C124 C 0.3234 0.89283 0.1737 0.0
H125 H 0.26678 0.88694 0.16519 0.0
H126 H 0.32498 0.89587 0.14164 0.0
H127 H 0.24759 0.8691 0.12172 0.0
H128 H 0.28904 0.8216 0.12646 0.0
H129 H 0.31925 0.96542 0.12218 0.0
H130 H 0.27975 0.88512 0.1992 0.0
H131 H 0.33959 0.89304 0.17555 0.0
C132 C 0.13587 0.70071 0.87951 0.0
C133 C 0.15594 0.70354 0.88408 0.0
N134 N 0.15933 0.72348 0.88564 0.0
N135 N 0.1268 0.71881 0.87831 0.0
C136 C 0.14145 0.7323 0.8822 0.0
H137 H 0.12829 0.68644 0.87759 0.0
Co138 Co 0.09976 0.72504 0.87455 0.0
C139 C 0.10359 0.76814 0.86134 0.0
O140 O 0.08931 0.77543 0.8729 0.0
N141 N 0.07262 0.73172 0.87102 0.0
C142 C 0.04362 0.74367 0.8594 0.0
C143 C 0.06355 0.7401 0.85491 0.0
C144 C 0.05789 0.72999 0.88486 0.0
N145 N 0.04013 0.73741 0.87837 0.0
O146 O 0.09983 0.73733 0.9006 0.0
H147 H 0.07105 0.7438 0.84095 0.0
H148 H 0.06015 0.72333 0.89948 0.0
O149 O 0.10769 0.74947 0.86157 0.0
C150 C 0.09822 0.72294 0.91317 0.0
O151 O 0.09486 0.70477 0.90607 0.0
N152 N 0.10004 0.7115 0.84987 0.0
C153 C 0.1044 0.68519 0.81738 0.0
C154 C 0.11656 0.7024 0.81914 0.0
C155 C 0.11412 0.71537 0.83545 0.0
C156 C 0.08764 0.69527 0.84819 0.0
C157 C 0.08937 0.68206 0.83191 0.0
H158 H 0.12452 0.72771 0.83715 0.0
H159 H 0.07687 0.6921 0.85997 0.0
H160 H 0.13888 0.74834 0.88337 0.0
H161 H 0.16711 0.69187 0.88622 0.0
H162 H 0.03275 0.75079 0.8496 0.0
H163 H 0.12875 0.70528 0.80874 0.0
H164 H 0.07944 0.66918 0.83112 0.0
C165 C 0.26307 0.1271 0.84548 0.0
C166 C 0.24912 0.14204 0.84881 0.0
N167 N 0.23104 0.13335 0.85173 0.0
N168 N 0.25379 0.10909 0.84621 0.0
C169 C 0.2343 0.11339 0.85 0.0
H170 H 0.27908 0.12922 0.84364 0.0
Co171 Co 0.26557 0.08378 0.84647 0.0
C172 C 0.23933 0.05844 0.82028 0.0
O173 O 0.25439 0.04634 0.81613 0.0
N174 N 0.27745 0.05795 0.84755 0.0
C175 C 0.29747 0.03122 0.8451 0.0
C176 C 0.29552 0.05134 0.84093 0.0
C177 C 0.26899 0.04152 0.85619 0.0
N178 N 0.28072 0.02504 0.85461 0.0
O179 O 0.25397 0.07935 0.87233 0.0
H180 H 0.30681 0.06021 0.83346 0.0
H181 H 0.25411 0.04147 0.86279 0.0
O182 O 0.24189 0.073 0.83265 0.0
C183 C 0.26729 0.08515 0.88481 0.0
O184 O 0.2849 0.09064 0.87767 0.0
N185 N 0.27839 0.08986 0.82197 0.0
C186 C 0.30089 0.10355 0.78932 0.0
C187 C 0.28072 0.09794 0.78685 0.0
C188 C 0.26956 0.09161 0.80348 0.0
C189 C 0.29768 0.09623 0.82474 0.0
C190 C 0.30931 0.10283 0.80861 0.0
H191 H 0.25372 0.08912 0.80142 0.0
H192 H 0.30408 0.09618 0.8397 0.0
H193 H 0.223 0.10202 0.85283 0.0
H194 H 0.25219 0.15802 0.84969 0.0
H195 H 0.31031 0.02187 0.84149 0.0
H196 H 0.27341 0.0992 0.77234 0.0
H197 H 0.32474 0.10736 0.81123 0.0
C198 C 0.84808 0.30176 0.87094 0.0
C199 C 0.83094 0.29323 0.87877 0.0
N200 N 0.83366 0.27317 0.87965 0.0
N201 N 0.86153 0.28714 0.86688 0.0
C202 C 0.85229 0.26983 0.87229 0.0
H203 H 0.85103 0.3177 0.8696 0.0
Co204 Co 0.88854 0.29137 0.86123 0.0
C205 C 0.90015 0.25972 0.83246 0.0
O206 O 0.91201 0.27263 0.82332 0.0
N207 N 0.91638 0.2957 0.85639 0.0
C208 C 0.94656 0.30859 0.84956 0.0
C209 C 0.92617 0.31093 0.8471 0.0
C210 C 0.93136 0.2842 0.86411 0.0
N211 N 0.94979 0.29182 0.86039 0.0
O212 O 0.89473 0.27952 0.88639 0.0
H213 H 0.91931 0.32338 0.83933 0.0
H214 H 0.92878 0.27086 0.87306 0.0
O215 O 0.89 0.26529 0.84783 0.0
C216 C 0.89648 0.29352 0.89933 0.0
O217 O 0.89628 0.31224 0.89294 0.0
N218 N 0.88106 0.30479 0.83758 0.0
C219 C 0.86409 0.32971 0.80842 0.0
C220 C 0.86372 0.30873 0.80614 0.0
C221 C 0.87186 0.29648 0.82117 0.0
C222 C 0.88108 0.32513 0.84016 0.0
C223 C 0.87301 0.33789 0.82565 0.0
H224 H 0.86956 0.28046 0.82003 0.0
H225 H 0.88698 0.33147 0.85395 0.0
H226 H 0.85966 0.25531 0.87247 0.0
H227 H 0.81787 0.30122 0.88431 0.0
H228 H 0.95809 0.3187 0.84409 0.0
H229 H 0.8562 0.30182 0.79344 0.0
H230 H 0.87337 0.354 0.82813 0.0
C231 C 0.71227 0.85899 0.86406 0.0
C232 C 0.72304 0.84212 0.86949 0.0
N233 N 0.74237 0.84757 0.87228 0.0
N234 N 0.72481 0.8749 0.86338 0.0
C235 C 0.74297 0.8675 0.86858 0.0
H236 H 0.69628 0.85969 0.86115 0.0
Co237 Co 0.71825 0.90156 0.85872 0.0
C238 C 0.75243 0.91749 0.83457 0.0
O239 O 0.74031 0.92973 0.82488 0.0
N240 N 0.71156 0.92888 0.85475 0.0
C241 C 0.69671 0.95796 0.84735 0.0
C242 C 0.69557 0.93742 0.84553 0.0
C243 C 0.72194 0.9447 0.86238 0.0
N244 N 0.71333 0.96255 0.85793 0.0
O245 O 0.72664 0.90774 0.88545 0.0
H246 H 0.68342 0.92959 0.83826 0.0
H247 H 0.73573 0.94313 0.87088 0.0
O248 O 0.74545 0.90634 0.8486 0.0
C249 C 0.71234 0.90529 0.89792 0.0
O250 O 0.69449 0.90049 0.89087 0.0
N251 N 0.70875 0.89414 0.83293 0.0
C252 C 0.69114 0.88112 0.79709 0.0
C253 C 0.71209 0.88166 0.79917 0.0
C254 C 0.72059 0.88758 0.81742 0.0
C255 C 0.68838 0.8921 0.83166 0.0
C256 C 0.6792 0.88594 0.81378 0.0
H257 H 0.7366 0.88602 0.81911 0.0
H258 H 0.67916 0.89534 0.84469 0.0
H259 H 0.75624 0.87672 0.87041 0.0
H260 H 0.7171 0.82707 0.87128 0.0
H261 H 0.68574 0.96864 0.8418 0.0
H262 H 0.72184 0.87693 0.78698 0.0
H263 H 0.66295 0.88512 0.81297 0.0
C264 C 0.11457 0.13055 0.29013 0.0
C265 C 0.10931 0.1484 0.28113 0.0
N266 N 0.1213 0.15127 0.265 0.0
N267 N 0.12977 0.12211 0.27976 0.0
C268 C 0.13402 0.13539 0.26503 0.0
H269 H 0.10651 0.1232 0.3022 0.0
Co270 Co 0.13618 0.09503 0.28217 0.0
C271 C 0.14618 0.09653 0.23807 0.0
O272 O 0.12788 0.10082 0.23197 0.0
N273 N 0.14211 0.0678 0.28452 0.0
C274 C 0.15045 0.03763 0.2961 0.0
C275 C 0.14999 0.0579 0.30037 0.0
C276 C 0.13785 0.05335 0.27088 0.0
N277 N 0.14266 0.03484 0.27759 0.0
O278 O 0.11119 0.089 0.26944 0.0
H279 H 0.15448 0.06486 0.31437 0.0
H280 H 0.13074 0.05629 0.25653 0.0
O281 O 0.15009 0.09484 0.25675 0.0
C282 C 0.09744 0.0803 0.2795 0.0
O283 O 0.10161 0.07308 0.29741 0.0
N284 N 0.15992 0.10166 0.2957 0.0
C285 C 0.19301 0.11272 0.31897 0.0
C286 C 0.19565 0.10349 0.30015 0.0
C287 C 0.17889 0.09797 0.28876 0.0
C288 C 0.15704 0.11021 0.31411 0.0
C289 C 0.17337 0.11597 0.32596 0.0
H290 H 0.18127 0.09054 0.27453 0.0
H291 H 0.14193 0.11248 0.31967 0.0
H292 H 0.14543 0.13289 0.25378 0.0
H293 H 0.0964 0.15745 0.28513 0.0
H294 H 0.1551 0.02577 0.30625 0.0
H295 H 0.21055 0.10072 0.29415 0.0
H296 H 0.17063 0.12265 0.34057 0.0
C297 C 0.85901 0.14103 0.27306 0.0
C298 C 0.84272 0.13578 0.26132 0.0
N299 N 0.84966 0.12841 0.24374 0.0
N300 N 0.87606 0.13721 0.26275 0.0
C301 C 0.86986 0.12947 0.24505 0.0
H302 H 0.85845 0.14691 0.28822 0.0
Co303 Co 0.90259 0.1399 0.27092 0.0
C304 C 0.92355 0.15896 0.23629 0.0
O305 O 0.93725 0.16674 0.2482 0.0
N306 N 0.9298 0.14186 0.27917 0.0
C307 C 0.95972 0.14944 0.29246 0.0
C308 C 0.93964 0.15464 0.29165 0.0
C309 C 0.94434 0.12912 0.27272 0.0
N310 N 0.96245 0.13329 0.28062 0.0
O311 O 0.9064 0.1122 0.26473 0.0
H312 H 0.93299 0.1671 0.29963 0.0
H313 H 0.94193 0.1171 0.26202 0.0
O314 O 0.91 0.14741 0.24355 0.0
C315 C 0.90416 0.1005 0.27967 0.0
O316 O 0.90046 0.10843 0.29742 0.0
N317 N 0.89718 0.16684 0.27799 0.0
C318 C 0.87891 0.20235 0.29118 0.0
C319 C 0.88279 0.19916 0.27071 0.0
C320 C 0.89145 0.18116 0.26438 0.0
C321 C 0.89405 0.16993 0.29804 0.0
C322 C 0.88518 0.18771 0.30501 0.0
H323 H 0.89172 0.17829 0.24846 0.0
H324 H 0.8974 0.158 0.30859 0.0
H325 H 0.88007 0.12455 0.23337 0.0
H326 H 0.82705 0.13677 0.26564 0.0
H327 H 0.97129 0.15665 0.30138 0.0
H328 H 0.87804 0.20998 0.25948 0.0
H329 H 0.88202 0.18932 0.32092 0.0
C330 C 0.87583 0.85531 0.29553 0.0
C331 C 0.87349 0.83675 0.28667 0.0
N332 N 0.86931 0.8396 0.26705 0.0
N333 N 0.87313 0.86972 0.28154 0.0
C334 C 0.86928 0.85968 0.26431 0.0
H335 H 0.87867 0.85816 0.31129 0.0
Co336 Co 0.87201 0.89692 0.28715 0.0
C337 C 0.85396 0.91535 0.25027 0.0
O338 O 0.84502 0.92938 0.26096 0.0
N339 N 0.87129 0.92447 0.29346 0.0
C340 C 0.86725 0.95375 0.30914 0.0
C341 C 0.86289 0.9336 0.30957 0.0
C342 C 0.88101 0.93946 0.28368 0.0
N343 N 0.87868 0.95744 0.29286 0.0
O344 O 0.89982 0.8993 0.28083 0.0
H345 H 0.85441 0.92636 0.3213 0.0
H346 H 0.88987 0.93714 0.27021 0.0
O347 O 0.86523 0.90249 0.25905 0.0
C348 C 0.91154 0.89555 0.29548 0.0
O349 O 0.90367 0.89133 0.31312 0.0
N350 N 0.84493 0.8933 0.29453 0.0
C351 C 0.80733 0.88247 0.30963 0.0
C352 C 0.81036 0.88456 0.2889 0.0
C353 C 0.82939 0.88943 0.28162 0.0
C354 C 0.84245 0.89027 0.31466 0.0
C355 C 0.8237 0.8852 0.3226 0.0
H356 H 0.83159 0.88873 0.26563 0.0
H357 H 0.85527 0.89145 0.3246 0.0
H358 H 0.86566 0.86684 0.25017 0.0
H359 H 0.87467 0.82232 0.29411 0.0
H360 H 0.86226 0.96484 0.31997 0.0
H361 H 0.79836 0.88147 0.2783 0.0
H362 H 0.82211 0.88323 0.33869 0.0
C363 C 0.15735 0.86928 0.28711 0.0
C364 C 0.17282 0.87381 0.274 0.0
N365 N 0.16616 0.87096 0.25505 0.0
N366 N 0.1411 0.86364 0.27638 0.0
C367 C 0.14699 0.86474 0.257 0.0
H368 H 0.15757 0.87107 0.30328 0.0
Co369 Co 0.11455 0.86035 0.2847 0.0
C370 C 0.1041 0.83655 0.24781 0.0
O371 O 0.09712 0.85185 0.23744 0.0
N372 N 0.08762 0.85697 0.29247 0.0
C373 C 0.05842 0.84287 0.30079 0.0
C374 C 0.07875 0.83974 0.29861 0.0
C375 C 0.07231 0.87028 0.29088 0.0
N376 N 0.05442 0.86206 0.29574 0.0
O377 O 0.10708 0.88094 0.26607 0.0
H378 H 0.08642 0.82552 0.30056 0.0
H379 H 0.07403 0.88559 0.28572 0.0
O380 O 0.11096 0.83912 0.26548 0.0
C381 C 0.11164 0.89708 0.27535 0.0
O382 O 0.11697 0.89582 0.29436 0.0
N383 N 0.12292 0.84178 0.30405 0.0
C384 C 0.1377 0.81804 0.33524 0.0
C385 C 0.14018 0.81212 0.31512 0.0
C386 C 0.13288 0.82434 0.29969 0.0
C387 C 0.12041 0.84782 0.32347 0.0
C388 C 0.12761 0.83611 0.33934 0.0
H389 H 0.13587 0.82011 0.28429 0.0
H390 H 0.11301 0.86197 0.32662 0.0
H391 H 0.13686 0.86265 0.24446 0.0
H392 H 0.18755 0.87943 0.27809 0.0
H393 H 0.0473 0.83163 0.30469 0.0
H394 H 0.14834 0.79854 0.3113 0.0
H395 H 0.1254 0.84122 0.35466 0.0
C396 C 0.14051 0.85667 0.71039 0.0
C397 C 0.13913 0.83945 0.72185 0.0
N398 N 0.13405 0.84486 0.7407 0.0
N399 N 0.13677 0.87279 0.72218 0.0
C400 C 0.13249 0.86503 0.74043 0.0
H401 H 0.14467 0.85738 0.69469 0.0
Co402 Co 0.13897 0.89996 0.71624 0.0
C403 C 0.16325 0.91622 0.75047 0.0
O404 O 0.17154 0.93011 0.73911 0.0
N405 N 0.14065 0.92766 0.71036 0.0
C406 C 0.14162 0.95692 0.69413 0.0
C407 C 0.14599 0.93678 0.69297 0.0
C408 C 0.13308 0.94274 0.72183 0.0
N409 N 0.1335 0.96059 0.71226 0.0
O410 O 0.11257 0.90367 0.7265 0.0
H411 H 0.15155 0.92943 0.67966 0.0
H412 H 0.12626 0.94045 0.73644 0.0
O413 O 0.15012 0.90439 0.74296 0.0
C414 C 0.09881 0.90812 0.71401 0.0
O415 O 0.10352 0.91159 0.69514 0.0
N416 N 0.1645 0.89502 0.70496 0.0
C417 C 0.19907 0.88328 0.68433 0.0
C418 C 0.19901 0.8844 0.70535 0.0
C419 C 0.1814 0.88971 0.71542 0.0
C420 C 0.16413 0.89308 0.68454 0.0
C421 C 0.1813 0.88749 0.67387 0.0
H422 H 0.1813 0.88829 0.73152 0.0
H423 H 0.15014 0.89528 0.67652 0.0
H424 H 0.12921 0.87406 0.75358 0.0
H425 H 0.14208 0.82421 0.71688 0.0
H426 H 0.14348 0.96791 0.68224 0.0
H427 H 0.21218 0.88021 0.714 0.0
H428 H 0.18061 0.88621 0.65763 0.0
C429 C 0.13326 0.11718 0.6887 0.0
C430 C 0.14986 0.10616 0.69473 0.0
N431 N 0.1513 0.10744 0.71492 0.0
N432 N 0.12442 0.12518 0.70511 0.0
C433 C 0.13581 0.11908 0.72071 0.0
H434 H 0.12719 0.11802 0.67363 0.0
Co435 Co 0.09884 0.13582 0.70823 0.0
C436 C 0.10162 0.15071 0.74987 0.0
O437 O 0.08724 0.13854 0.75583 0.0
N438 N 0.07299 0.14616 0.71209 0.0
C439 C 0.04768 0.16522 0.72289 0.0
C440 C 0.06782 0.16491 0.71808 0.0
C441 C 0.05572 0.13558 0.71282 0.0
N442 N 0.0402 0.1467 0.71961 0.0
O443 O 0.09236 0.11252 0.72373 0.0
H444 H 0.07827 0.17724 0.71995 0.0
H445 H 0.05471 0.11965 0.70978 0.0
O446 O 0.10752 0.15034 0.73167 0.0
C447 C 0.08855 0.09756 0.71241 0.0
O448 O 0.08645 0.10082 0.69301 0.0
N449 N 0.1056 0.15792 0.69212 0.0
C450 C 0.11417 0.19161 0.66865 0.0
C451 C 0.12693 0.18593 0.68447 0.0
C452 C 0.12241 0.16903 0.69598 0.0
C453 C 0.09358 0.16247 0.67614 0.0
C454 C 0.09747 0.17943 0.6643 0.0
H455 H 0.13253 0.16479 0.70796 0.0
H456 H 0.08065 0.15317 0.67282 0.0
H457 H 0.13163 0.12139 0.73627 0.0
H458 H 0.15947 0.09717 0.68513 0.0
H459 H 0.03936 0.17785 0.72897 0.0
H460 H 0.14042 0.19438 0.68791 0.0
H461 H 0.08726 0.18315 0.65217 0.0
C462 C 0.87212 0.13022 0.71317 0.0
C463 C 0.87454 0.1489 0.72207 0.0
N464 N 0.87643 0.14612 0.74206 0.0
N465 N 0.87249 0.11594 0.72759 0.0
C466 C 0.87554 0.12613 0.74486 0.0
H467 H 0.86969 0.12729 0.69735 0.0
Co468 Co 0.86876 0.08821 0.72609 0.0
C469 C 0.85904 0.08478 0.76961 0.0
O470 O 0.87693 0.07812 0.77468 0.0
N471 N 0.86494 0.06048 0.72521 0.0
C472 C 0.85158 0.03012 0.7294 0.0
C473 C 0.84806 0.05048 0.73043 0.0
C474 C 0.87843 0.04594 0.72089 0.0
N475 N 0.87074 0.02732 0.72345 0.0
O476 O 0.89406 0.08499 0.73878 0.0
H477 H 0.83416 0.05756 0.73508 0.0
H478 H 0.89382 0.04888 0.71661 0.0
O479 O 0.85495 0.0888 0.75136 0.0
C480 C 0.90822 0.08626 0.726 0.0
O481 O 0.9036 0.08627 0.70676 0.0
N482 N 0.84473 0.09225 0.71235 0.0
C483 C 0.814 0.10461 0.68684 0.0
C484 C 0.8134 0.10932 0.70741 0.0
C485 C 0.82904 0.10315 0.71993 0.0
C486 C 0.8451 0.08668 0.69265 0.0
C487 C 0.82981 0.09266 0.67959 0.0
H488 H 0.82916 0.10838 0.73531 0.0
H489 H 0.8579 0.07847 0.68684 0.0
H490 H 0.87715 0.11907 0.75939 0.0
H491 H 0.87419 0.16335 0.71458 0.0
H492 H 0.84089 0.01833 0.7328 0.0
H493 H 0.8017 0.11887 0.71354 0.0
H494 H 0.83075 0.08863 0.66382 0.0
C495 C 0.86099 0.85306 0.71104 0.0
C496 C 0.84446 0.85903 0.72216 0.0
N497 N 0.85041 0.86185 0.74134 0.0
N498 N 0.87715 0.85214 0.72325 0.0
C499 C 0.87021 0.85767 0.74151 0.0
H500 H 0.86135 0.85042 0.69499 0.0
Co501 Co 0.90412 0.84887 0.71698 0.0
C502 C 0.92159 0.82636 0.75182 0.0
O503 O 0.93566 0.81817 0.74062 0.0
N504 N 0.93182 0.84623 0.71094 0.0
C505 C 0.96213 0.83934 0.69823 0.0
C506 C 0.94192 0.83472 0.69748 0.0
C507 C 0.94634 0.85747 0.71972 0.0
N508 N 0.96469 0.85378 0.71213 0.0
O509 O 0.90834 0.87576 0.72583 0.0
H510 H 0.93525 0.82389 0.6874 0.0
H511 H 0.94362 0.86847 0.7314 0.0
O512 O 0.90888 0.83847 0.74398 0.0
C513 C 0.91061 0.88781 0.71114 0.0
O514 O 0.91124 0.88053 0.69276 0.0
N515 N 0.8986 0.82335 0.70652 0.0
C516 C 0.88802 0.78901 0.68503 0.0
C517 C 0.89022 0.78825 0.70599 0.0
C518 C 0.89506 0.80578 0.71658 0.0
C519 C 0.89593 0.8244 0.68623 0.0
C520 C 0.89073 0.8074 0.67516 0.0
H521 H 0.89529 0.80514 0.73276 0.0
H522 H 0.89797 0.83864 0.67862 0.0
H523 H 0.87978 0.85997 0.75445 0.0
H524 H 0.82939 0.86149 0.71652 0.0
H525 H 0.97385 0.83329 0.68867 0.0
H526 H 0.88754 0.7744 0.71415 0.0
H527 H 0.88894 0.80859 0.659 0.0
C528 C 0.28204 0.12688 0.12447 0.0
C529 C 0.27461 0.12111 0.14294 0.0
N530 N 0.25442 0.11982 0.14155 0.0
N531 N 0.26656 0.12924 0.1116 0.0
C532 C 0.24997 0.12476 0.12241 0.0
H533 H 0.29771 0.12877 0.12053 0.0
Co534 Co 0.26793 0.13467 0.08433 0.0
C535 C 0.23411 0.16289 0.0768 0.0
O536 O 0.24417 0.17145 0.06215 0.0
N537 N 0.26934 0.13963 0.05597 0.0
C538 C 0.2775 0.15082 0.02536 0.0
C539 C 0.27937 0.15409 0.04563 0.0
C540 C 0.2611 0.12807 0.04127 0.0
N541 N 0.26607 0.1344 0.02266 0.0
O542 O 0.25606 0.10898 0.07962 0.0
H543 H 0.28734 0.16666 0.05203 0.0
H544 H 0.25212 0.11479 0.04395 0.0
O545 O 0.24156 0.14767 0.08589 0.0
C546 C 0.27034 0.09633 0.07775 0.0
O547 O 0.28886 0.10324 0.0772 0.0
N548 N 0.2814 0.15871 0.09038 0.0
C549 C 0.30608 0.19039 0.10295 0.0
C550 C 0.28556 0.18987 0.10812 0.0
C551 C 0.27353 0.17386 0.10182 0.0
C552 C 0.30149 0.15826 0.08633 0.0
C553 C 0.31393 0.17424 0.09179 0.0
H554 H 0.25824 0.17318 0.10719 0.0
H555 H 0.30781 0.14547 0.07849 0.0
H556 H 0.23499 0.12417 0.11609 0.0
H557 H 0.2834 0.11792 0.15627 0.0
H558 H 0.28412 0.15978 0.01348 0.0
H559 H 0.27891 0.20126 0.11767 0.0
H560 H 0.32958 0.17374 0.08736 0.0
C561 C 0.29537 0.84713 0.84229 0.0
C562 C 0.28199 0.85184 0.82721 0.0
N563 N 0.26342 0.85286 0.83526 0.0
N564 N 0.28523 0.84514 0.85974 0.0
C565 C 0.26579 0.84848 0.85492 0.0
H566 H 0.31156 0.84681 0.84087 0.0
Co567 Co 0.29575 0.84524 0.88566 0.0
C568 C 0.2744 0.81281 0.90714 0.0
O569 O 0.29107 0.80892 0.91701 0.0
N570 N 0.30608 0.8462 0.91218 0.0
C571 C 0.32461 0.84651 0.94009 0.0
C572 C 0.32453 0.84234 0.91983 0.0
C573 C 0.29533 0.85272 0.92822 0.0
N574 N 0.30621 0.85312 0.94535 0.0
O575 O 0.27992 0.86862 0.89129 0.0
H576 H 0.33737 0.83694 0.91156 0.0
H577 H 0.27978 0.8574 0.92724 0.0
O578 O 0.27408 0.82715 0.89429 0.0
C579 C 0.29021 0.88326 0.88448 0.0
O580 O 0.30826 0.8795 0.87731 0.0
N581 N 0.3127 0.82378 0.87847 0.0
C582 C 0.34049 0.79804 0.86031 0.0
C583 C 0.32089 0.79144 0.86451 0.0
C584 C 0.30703 0.80473 0.87318 0.0
C585 C 0.33159 0.83044 0.87411 0.0
C586 C 0.34581 0.81777 0.86539 0.0
H587 H 0.29158 0.79996 0.87438 0.0
H588 H 0.33544 0.84602 0.87687 0.0
H589 H 0.25391 0.84972 0.866 0.0
H590 H 0.2858 0.85543 0.81179 0.0
H591 H 0.3373 0.84472 0.95013 0.0
H592 H 0.31597 0.77655 0.86006 0.0
H593 H 0.36069 0.82357 0.86217 0.0
C594 C 0.12684 0.28391 0.86807 0.0
C595 C 0.12482 0.27843 0.84816 0.0
N596 N 0.11992 0.25878 0.84751 0.0
N597 N 0.12355 0.26766 0.87977 0.0
C598 C 0.119 0.25276 0.86681 0.0
H599 H 0.13113 0.29859 0.87361 0.0
Co600 Co 0.12679 0.2656 0.90744 0.0
C601 C 0.12588 0.22031 0.90559 0.0
O602 O 0.10646 0.21865 0.90879 0.0
N603 N 0.13009 0.26355 0.93503 0.0
C604 C 0.1413 0.25538 0.9654 0.0
C605 C 0.14466 0.2536 0.94505 0.0
C606 C 0.11816 0.27131 0.94947 0.0
N607 N 0.12456 0.26651 0.96815 0.0
O608 O 0.09894 0.25891 0.90973 0.0
H609 H 0.15692 0.24554 0.938 0.0
H610 H 0.10482 0.28002 0.94628 0.0
O611 O 0.13415 0.23759 0.90491 0.0
C612 C 0.08762 0.27424 0.90783 0.0
O613 O 0.09609 0.2921 0.90692 0.0
N614 N 0.15363 0.27357 0.9044 0.0
C615 C 0.18746 0.29206 0.88808 0.0
C616 C 0.18489 0.27116 0.88666 0.0
C617 C 0.16768 0.26225 0.89455 0.0
C618 C 0.157 0.29346 0.90803 0.0
C619 C 0.17384 0.30311 0.89987 0.0
H620 H 0.16502 0.2467 0.89093 0.0
H621 H 0.14553 0.3023 0.91548 0.0
H622 H 0.11595 0.23748 0.8713 0.0
H623 H 0.12724 0.28801 0.83523 0.0
H624 H 0.15061 0.24913 0.97719 0.0
H625 H 0.19527 0.26195 0.87811 0.0
H626 H 0.17517 0.31928 0.90133 0.0
C627 C 0.71372 0.14742 0.84717 0.0
C628 C 0.72857 0.14598 0.83273 0.0
N629 N 0.74636 0.14346 0.84216 0.0
N630 N 0.72224 0.14578 0.86551 0.0
C631 C 0.74202 0.14347 0.86192 0.0
H632 H 0.69774 0.14864 0.84443 0.0
Co633 Co 0.71084 0.14332 0.89084 0.0
C634 C 0.73428 0.1723 0.91567 0.0
O635 O 0.71842 0.17608 0.92685 0.0
N636 N 0.69984 0.14025 0.91676 0.0
C637 C 0.68059 0.13726 0.944 0.0
C638 C 0.68107 0.14298 0.92413 0.0
C639 C 0.71034 0.13275 0.9325 0.0
N640 N 0.69905 0.13082 0.94922 0.0
O641 O 0.72534 0.11864 0.8945 0.0
H642 H 0.66829 0.14854 0.91588 0.0
H643 H 0.72604 0.12856 0.9316 0.0
O644 O 0.73308 0.15934 0.90152 0.0
C645 C 0.71528 0.10519 0.88527 0.0
O646 O 0.69833 0.11048 0.87657 0.0
N647 N 0.69517 0.16613 0.88556 0.0
C648 C 0.66941 0.19414 0.86788 0.0
C649 C 0.68891 0.19971 0.87376 0.0
C650 C 0.70175 0.18534 0.88228 0.0
C651 C 0.67629 0.1606 0.87991 0.0
C652 C 0.66302 0.17441 0.87152 0.0
H653 H 0.71725 0.18941 0.88469 0.0
H654 H 0.67181 0.14499 0.88106 0.0
H655 H 0.75287 0.14031 0.87364 0.0
H656 H 0.72633 0.14602 0.81661 0.0
H657 H 0.66764 0.13795 0.95385 0.0
H658 H 0.69467 0.21462 0.87055 0.0
H659 H 0.64816 0.16939 0.86714 0.0
C660 C 0.87837 0.70477 0.87209 0.0
C661 C 0.88424 0.71516 0.85508 0.0
N662 N 0.88267 0.73501 0.85894 0.0
N663 N 0.87312 0.71811 0.88645 0.0
C664 C 0.87604 0.7363 0.87802 0.0
H665 H 0.87845 0.68861 0.87405 0.0
Co666 Co 0.86667 0.71405 0.91317 0.0
C667 C 0.83419 0.74389 0.9213 0.0
O668 O 0.82458 0.73118 0.93302 0.0
N669 N 0.86082 0.71042 0.94066 0.0
C670 C 0.85883 0.69783 0.97163 0.0
C671 C 0.85763 0.69345 0.95143 0.0
C672 C 0.86363 0.72486 0.95476 0.0
N673 N 0.86255 0.7176 0.9736 0.0
O674 O 0.88998 0.72927 0.92001 0.0
H675 H 0.85619 0.67849 0.94535 0.0
H676 H 0.86822 0.74009 0.95125 0.0
O677 O 0.85064 0.7386 0.9129 0.0
C678 C 0.90491 0.72024 0.92781 0.0
O679 O 0.90296 0.70145 0.93358 0.0
N680 N 0.84483 0.69791 0.9052 0.0
C681 C 0.81803 0.67005 0.88864 0.0
C682 C 0.81442 0.69078 0.887 0.0
C683 C 0.82824 0.70448 0.89496 0.0
C684 C 0.84884 0.67784 0.90633 0.0
C685 C 0.83549 0.66364 0.89855 0.0
H686 H 0.82608 0.72019 0.89164 0.0
H687 H 0.86301 0.67282 0.91255 0.0
H688 H 0.87436 0.75032 0.88611 0.0
H689 H 0.88937 0.70863 0.84106 0.0
H690 H 0.85844 0.68709 0.98387 0.0
H691 H 0.80164 0.69641 0.8786 0.0
H692 H 0.83913 0.64781 0.8998 0.0
C693 C 0.73192 0.85542 0.14108 0.0
C694 C 0.74542 0.85784 0.15656 0.0
N695 N 0.76322 0.86333 0.14865 0.0
N696 N 0.74118 0.85945 0.12349 0.0
C697 C 0.76031 0.86413 0.12858 0.0
H698 H 0.71604 0.85231 0.14269 0.0
Co699 Co 0.7284 0.86333 0.0989 0.0
C700 C 0.75448 0.84226 0.06932 0.0
O701 O 0.73863 0.83709 0.05871 0.0
N702 N 0.71532 0.8683 0.07416 0.0
C703 C 0.69255 0.87407 0.05034 0.0
C704 C 0.69558 0.86719 0.06956 0.0
C705 C 0.72377 0.87676 0.05764 0.0
N706 N 0.71036 0.87995 0.04267 0.0
O707 O 0.73842 0.89005 0.09814 0.0
H708 H 0.68372 0.86245 0.0795 0.0
H709 H 0.7396 0.88032 0.05669 0.0
O710 O 0.75232 0.85304 0.08515 0.0
C711 C 0.72664 0.90096 0.10858 0.0
O712 O 0.71109 0.89235 0.11725 0.0
N713 N 0.71719 0.83737 0.10103 0.0
C714 C 0.69726 0.80115 0.10835 0.0
C715 C 0.7178 0.80133 0.1036 0.0
C716 C 0.72762 0.81964 0.10051 0.0
C717 C 0.69761 0.83747 0.10707 0.0
C718 C 0.68721 0.81958 0.11033 0.0
H719 H 0.74371 0.81939 0.09867 0.0
H720 H 0.69017 0.85162 0.11005 0.0
H721 H 0.77136 0.8697 0.118 0.0
H722 H 0.74214 0.85673 0.17248 0.0
H723 H 0.67813 0.87501 0.0429 0.0
H724 H 0.72641 0.78749 0.10307 0.0
H725 H 0.6715 0.82022 0.11458 0.0
C726 C 0.13423 0.68675 0.15213 0.0
C727 C 0.12955 0.69577 0.17015 0.0
N728 N 0.13084 0.7159 0.16782 0.0
N729 N 0.13865 0.70109 0.13854 0.0
C730 C 0.13639 0.71866 0.14846 0.0
H731 H 0.13359 0.67082 0.1489 0.0
Co732 Co 0.14262 0.697 0.11134 0.0
C733 C 0.17202 0.72801 0.09863 0.0
O734 O 0.18063 0.7152 0.08625 0.0
N735 N 0.14572 0.69279 0.08352 0.0
C736 C 0.14853 0.67923 0.05302 0.0
C737 C 0.15114 0.67606 0.07328 0.0
C738 C 0.13993 0.7059 0.06903 0.0
N739 N 0.14145 0.698 0.05042 0.0
O740 O 0.11835 0.71101 0.10653 0.0
H741 H 0.15592 0.66203 0.07981 0.0
H742 H 0.13381 0.72068 0.07213 0.0
O743 O 0.15714 0.72239 0.10941 0.0
C744 C 0.10231 0.70065 0.10697 0.0
O745 O 0.10372 0.68096 0.10802 0.0
N746 N 0.16599 0.68222 0.1175 0.0
C747 C 0.19508 0.65703 0.13431 0.0
C748 C 0.19801 0.67788 0.13365 0.0
C749 C 0.18306 0.69026 0.12569 0.0
C750 C 0.16289 0.66195 0.11818 0.0
C751 C 0.17732 0.64903 0.12629 0.0
H752 H 0.18477 0.70624 0.12769 0.0
H753 H 0.14859 0.65585 0.11337 0.0
H754 H 0.13821 0.73319 0.1414 0.0
H755 H 0.12468 0.68805 0.18362 0.0
H756 H 0.15112 0.66837 0.04115 0.0
H757 H 0.21109 0.68471 0.14058 0.0
H758 H 0.17428 0.63303 0.12696 0.0
C759 C 0.86172 0.29243 0.14213 0.0
C760 C 0.86819 0.2793 0.15687 0.0
N761 N 0.87034 0.26096 0.14847 0.0
N762 N 0.85989 0.28228 0.12467 0.0
C763 C 0.8653 0.26323 0.12902 0.0
H764 H 0.85934 0.30845 0.14379 0.0
Co765 Co 0.85581 0.29242 0.09922 0.0
C766 C 0.83198 0.26124 0.07831 0.0
O767 O 0.82205 0.27555 0.06894 0.0
N768 N 0.85278 0.30261 0.07293 0.0
C769 C 0.85031 0.32111 0.0451 0.0
C770 C 0.84702 0.32068 0.06554 0.0
C771 C 0.85986 0.29262 0.05668 0.0
N772 N 0.85835 0.30336 0.03962 0.0
O773 O 0.88287 0.28551 0.09321 0.0
H774 H 0.8417 0.33329 0.07421 0.0
H775 H 0.86679 0.2779 0.0575 0.0
O776 O 0.84654 0.2659 0.09002 0.0
C777 C 0.89562 0.2995 0.09067 0.0
O778 O 0.8896 0.31831 0.09049 0.0
N779 N 0.82934 0.29966 0.10668 0.0
C780 C 0.79062 0.31111 0.118 0.0
C781 C 0.79635 0.29086 0.11839 0.0
C782 C 0.81592 0.28554 0.11331 0.0
C783 C 0.82472 0.31957 0.10847 0.0
C784 C 0.80525 0.32567 0.11363 0.0
H785 H 0.82028 0.27 0.11509 0.0
H786 H 0.83625 0.33078 0.10632 0.0
H787 H 0.86685 0.25147 0.11788 0.0
H788 H 0.87146 0.28302 0.17239 0.0
H789 H 0.8474 0.33365 0.03513 0.0
H790 H 0.78593 0.27922 0.12303 0.0
H791 H 0.80171 0.34157 0.11411 0.0
C792 C 0.63206 0.78654 0.60939 0.0
C793 C 0.64995 0.77697 0.60519 0.0
N794 N 0.65137 0.76075 0.61723 0.0
N795 N 0.62217 0.77614 0.62373 0.0
C796 C 0.63451 0.76072 0.62843 0.0
H797 H 0.62599 0.79943 0.60153 0.0
Co798 Co 0.59541 0.77987 0.63052 0.0
C799 C 0.58561 0.74634 0.65863 0.0
O800 O 0.5727 0.75752 0.6686 0.0
N801 N 0.56802 0.7837 0.6367 0.0
C802 C 0.53827 0.79673 0.64474 0.0
C803 C 0.55874 0.79934 0.64581 0.0
C804 C 0.55277 0.77174 0.63039 0.0
N805 N 0.53457 0.7794 0.63495 0.0
O806 O 0.5883 0.76783 0.60547 0.0
H807 H 0.56605 0.81229 0.65227 0.0
H808 H 0.55495 0.75809 0.62176 0.0
O809 O 0.59487 0.75364 0.64347 0.0
C810 C 0.58485 0.78095 0.59197 0.0
O811 O 0.58335 0.79989 0.59753 0.0
N812 N 0.60379 0.79316 0.65402 0.0
C813 C 0.62199 0.81771 0.68288 0.0
C814 C 0.62107 0.7968 0.68556 0.0
C815 C 0.61231 0.78472 0.67073 0.0
C816 C 0.60489 0.81342 0.65107 0.0
C817 C 0.61361 0.82601 0.66541 0.0
H818 H 0.61369 0.76868 0.67232 0.0
H819 H 0.5993 0.81979 0.63717 0.0
H820 H 0.63066 0.74873 0.63871 0.0
H821 H 0.66058 0.78099 0.59353 0.0
H822 H 0.52696 0.80709 0.65025 0.0
H823 H 0.6281 0.78971 0.69844 0.0
H824 H 0.61417 0.84205 0.66262 0.0
C825 C 0.20193 0.6289 0.65072 0.0
C826 C 0.20906 0.64617 0.64161 0.0
N827 N 0.22932 0.64506 0.64072 0.0
N828 N 0.21768 0.61711 0.65556 0.0
C829 C 0.23403 0.62738 0.64943 0.0
H830 H 0.18633 0.62475 0.65272 0.0
Co831 Co 0.21861 0.59047 0.6638 0.0
C832 C 0.25935 0.58877 0.68147 0.0
O833 O 0.26464 0.57376 0.66972 0.0
N834 N 0.22013 0.5635 0.67174 0.0
C835 C 0.22774 0.53543 0.68832 0.0
C836 C 0.22468 0.55589 0.69003 0.0
C837 C 0.2199 0.5474 0.65939 0.0
N838 N 0.22475 0.53022 0.66898 0.0
O839 O 0.23472 0.58498 0.64052 0.0
H840 H 0.22674 0.5648 0.7035 0.0
H841 H 0.2175 0.54833 0.64336 0.0
O842 O 0.24187 0.59641 0.67995 0.0
C843 C 0.22338 0.58369 0.62515 0.0
O844 O 0.20383 0.58283 0.62807 0.0
N845 N 0.2018 0.59642 0.68562 0.0
C846 C 0.17373 0.6079 0.71454 0.0
C847 C 0.19213 0.61802 0.71283 0.0
C848 C 0.20596 0.61206 0.69827 0.0
C849 C 0.18404 0.58625 0.68712 0.0
C850 C 0.16984 0.59158 0.70174 0.0
H851 H 0.2196 0.62068 0.69657 0.0
H852 H 0.18066 0.57428 0.67662 0.0
H853 H 0.24904 0.62113 0.64989 0.0
H854 H 0.19995 0.65819 0.63549 0.0
H855 H 0.23238 0.52531 0.70021 0.0
H856 H 0.19567 0.63067 0.72249 0.0
H857 H 0.1557 0.58354 0.70252 0.0
C858 C 0.36771 0.21326 0.6189 0.0
C859 C 0.34902 0.22099 0.61429 0.0
N860 N 0.3457 0.23686 0.62642 0.0
N861 N 0.37615 0.22453 0.63353 0.0
C862 C 0.36224 0.23864 0.63791 0.0
H863 H 0.37514 0.20094 0.61129 0.0
Co864 Co 0.40272 0.22337 0.6419 0.0
C865 C 0.40964 0.2641 0.6572 0.0
O866 O 0.42476 0.26606 0.64463 0.0
N867 N 0.42968 0.22231 0.65031 0.0
C868 C 0.4573 0.22284 0.66932 0.0
C869 C 0.43659 0.22221 0.66946 0.0
C870 C 0.44646 0.22311 0.63891 0.0
N871 N 0.46333 0.22362 0.65005 0.0
O872 O 0.40961 0.23848 0.61851 0.0
H873 H 0.42719 0.22225 0.68273 0.0
H874 H 0.44661 0.22353 0.62272 0.0
O875 O 0.39958 0.24778 0.65754 0.0
C876 C 0.41358 0.22752 0.60332 0.0
O877 O 0.41505 0.20795 0.60569 0.0
N878 N 0.39504 0.20737 0.6635 0.0
C879 C 0.37944 0.17896 0.68996 0.0
C880 C 0.37469 0.19943 0.69214 0.0
C881 C 0.38255 0.21343 0.67863 0.0
C882 C 0.40037 0.18769 0.66153 0.0
C883 C 0.39282 0.1732 0.67469 0.0
H884 H 0.3777 0.22888 0.67975 0.0
H885 H 0.40994 0.18314 0.64917 0.0
H886 H 0.36457 0.2509 0.64836 0.0
H887 H 0.339 0.21585 0.60252 0.0
H888 H 0.4671 0.22336 0.68232 0.0
H889 H 0.36412 0.20446 0.70348 0.0
H890 H 0.39697 0.15759 0.67257 0.0
C891 C 0.78017 0.36238 0.63167 0.0
C892 C 0.76998 0.34477 0.62753 0.0
N893 N 0.75111 0.34958 0.62186 0.0
N894 N 0.7677 0.37808 0.62864 0.0
C895 C 0.7502 0.3698 0.62265 0.0
H896 H 0.7958 0.36368 0.63599 0.0
Co897 Co 0.77332 0.40538 0.62896 0.0
C898 C 0.73758 0.424 0.64864 0.0
O899 O 0.74856 0.43869 0.65596 0.0
N900 N 0.77885 0.43337 0.62862 0.0
C901 C 0.78851 0.46497 0.63474 0.0
C902 C 0.78977 0.44528 0.64106 0.0
C903 C 0.77126 0.44634 0.61486 0.0
N904 N 0.77692 0.46547 0.61821 0.0
O905 O 0.76583 0.40643 0.6013 0.0
H906 H 0.79784 0.4404 0.65425 0.0
H907 H 0.76125 0.44208 0.60277 0.0
O908 O 0.74566 0.41071 0.6373 0.0
C909 C 0.77994 0.40031 0.5899 0.0
O910 O 0.79711 0.39496 0.59813 0.0
N911 N 0.78212 0.40282 0.65564 0.0
C912 C 0.79954 0.39414 0.69274 0.0
C913 C 0.77861 0.39422 0.69051 0.0
C914 C 0.77019 0.39803 0.67169 0.0
C915 C 0.80254 0.40209 0.65741 0.0
C916 C 0.8116 0.39798 0.67589 0.0
H917 H 0.75421 0.39602 0.67001 0.0
H918 H 0.81182 0.40458 0.64428 0.0
H919 H 0.73731 0.37853 0.61789 0.0
H920 H 0.77605 0.32968 0.62837 0.0
H921 H 0.79573 0.47787 0.64159 0.0
H922 H 0.76885 0.39039 0.70299 0.0
H923 H 0.82786 0.39765 0.67697 0.0
C924 C 0.63843 0.21056 0.36838 0.0
C925 C 0.65428 0.22355 0.37145 0.0
N926 N 0.64681 0.24222 0.37416 0.0
N927 N 0.6211 0.22104 0.36912 0.0
C928 C 0.62667 0.24025 0.3727 0.0
H929 H 0.63939 0.19446 0.36624 0.0
Co930 Co 0.59534 0.21053 0.36843 0.0
C931 C 0.57142 0.23987 0.34543 0.0
O932 O 0.5617 0.22469 0.33727 0.0
N933 N 0.56892 0.19996 0.36878 0.0
C934 C 0.54069 0.18195 0.36742 0.0
C935 C 0.56092 0.18217 0.36297 0.0
C936 C 0.55327 0.20994 0.37718 0.0
N937 N 0.53591 0.19953 0.37626 0.0
O938 O 0.59208 0.21846 0.39568 0.0
H939 H 0.56894 0.16988 0.35611 0.0
H940 H 0.55465 0.22472 0.38388 0.0
O941 O 0.58486 0.23646 0.35881 0.0
C942 C 0.59594 0.20391 0.40749 0.0
O943 O 0.59989 0.18618 0.39962 0.0
N944 N 0.60021 0.2017 0.34184 0.0
C945 C 0.6116 0.18681 0.3042 0.0
C946 C 0.61024 0.20757 0.30764 0.0
C947 C 0.60508 0.21469 0.32665 0.0
C948 C 0.60308 0.18155 0.33922 0.0
C949 C 0.60831 0.17371 0.3204 0.0
H950 H 0.60593 0.23069 0.32923 0.0
H951 H 0.60196 0.17153 0.35197 0.0
H952 H 0.61613 0.25242 0.37511 0.0
H953 H 0.67006 0.21954 0.37182 0.0
H954 H 0.53028 0.16986 0.36413 0.0
H955 H 0.6139 0.2183 0.29593 0.0
H956 H 0.60992 0.15759 0.31864 0.0
C957 C 0.79133 0.65034 0.33948 0.0
C958 C 0.77867 0.6663 0.34352 0.0
N959 N 0.75985 0.65909 0.34576 0.0
N960 N 0.78045 0.63325 0.33918 0.0
C961 C 0.76136 0.63908 0.34288 0.0
H962 H 0.80754 0.65097 0.33837 0.0
Co963 Co 0.78979 0.60712 0.34095 0.0
C964 C 0.76308 0.58312 0.31481 0.0
O965 O 0.77852 0.57176 0.30995 0.0
N966 N 0.79905 0.5803 0.34392 0.0
C967 C 0.81668 0.55199 0.34728 0.0
C968 C 0.81725 0.57168 0.34098 0.0
C969 C 0.78785 0.56546 0.35228 0.0
N970 N 0.79816 0.54811 0.35442 0.0
O971 O 0.77689 0.60528 0.3664 0.0
H972 H 0.83047 0.57894 0.33515 0.0
H973 H 0.77244 0.56751 0.35709 0.0
O974 O 0.76543 0.59757 0.32733 0.0
C975 C 0.78857 0.60707 0.38143 0.0
O976 O 0.80809 0.60732 0.37839 0.0
N977 N 0.80344 0.61057 0.31625 0.0
C978 C 0.82605 0.61913 0.28194 0.0
C979 C 0.80503 0.61847 0.281 0.0
C980 C 0.79397 0.61447 0.2984 0.0
C981 C 0.82377 0.61292 0.31766 0.0
C982 C 0.83547 0.61648 0.30057 0.0
H983 H 0.7778 0.6154 0.29752 0.0
H984 H 0.83093 0.61242 0.33226 0.0
H985 H 0.74916 0.62862 0.34547 0.0
H986 H 0.78315 0.68181 0.34574 0.0
H987 H 0.82903 0.54139 0.34665 0.0
H988 H 0.7972 0.62131 0.267 0.0
H989 H 0.85164 0.61792 0.30203 0.0
C990 C 0.35576 0.8059 0.38137 0.0
C991 C 0.34151 0.7934 0.3899 0.0
N992 N 0.34909 0.77458 0.39059 0.0
N993 N 0.37214 0.79492 0.37666 0.0
C994 C 0.36761 0.776 0.38245 0.0
H995 H 0.35457 0.82202 0.37947 0.0
Co996 Co 0.39742 0.80336 0.36855 0.0
C997 C 0.40957 0.77422 0.33715 0.0
O998 O 0.41739 0.78885 0.3264 0.0
N999 N 0.42361 0.81134 0.36109 0.0
C1000 C 0.45228 0.82744 0.35469 0.0
C1001 C 0.43162 0.82903 0.35503 0.0
C1002 C 0.43976 0.79936 0.36422 0.0
N1003 N 0.45731 0.80873 0.36056 0.0
O1004 O 0.40788 0.79161 0.39243 0.0
H1005 H 0.42339 0.84266 0.35199 0.0
H1006 H 0.43866 0.78429 0.37028 0.0
O1007 O 0.40121 0.77809 0.35405 0.0
C1008 C 0.41443 0.80322 0.40616 0.0
O1009 O 0.41649 0.82251 0.40234 0.0
N1010 N 0.38587 0.81603 0.34609 0.0
C1011 C 0.36736 0.83834 0.31581 0.0
C1012 C 0.36732 0.81726 0.31515 0.0
C1013 C 0.37612 0.80636 0.33077 0.0
C1014 C 0.3846 0.83643 0.34773 0.0
C1015 C 0.37575 0.84794 0.33259 0.0
H1016 H 0.37454 0.79021 0.33072 0.0
H1017 H 0.39035 0.84381 0.36105 0.0
H1018 H 0.37828 0.76371 0.38189 0.0
H1019 H 0.32691 0.79794 0.39548 0.0
H1020 H 0.46277 0.83937 0.35111 0.0
H1021 H 0.36001 0.80926 0.30297 0.0
H1022 H 0.37554 0.86418 0.33397 0.0
C1023 C 0.20984 0.3746 0.3695 0.0
C1024 C 0.22081 0.35727 0.37224 0.0
N1025 N 0.24049 0.36197 0.37114 0.0
N1026 N 0.22255 0.39011 0.36663 0.0
C1027 C 0.24115 0.38195 0.36766 0.0
H1028 H 0.19368 0.37598 0.37073 0.0
Co1029 Co 0.21552 0.41704 0.36702 0.0
C1030 C 0.24231 0.43739 0.3377 0.0
O1031 O 0.22867 0.45141 0.33493 0.0
N1032 N 0.20826 0.4447 0.36841 0.0
C1033 C 0.1921 0.47408 0.36841 0.0
C1034 C 0.19123 0.45426 0.36266 0.0
C1035 C 0.21925 0.45929 0.37753 0.0
N1036 N 0.2097 0.47722 0.37786 0.0
O1037 O 0.23058 0.41959 0.39117 0.0
H1038 H 0.17865 0.4476 0.35495 0.0
H1039 H 0.23383 0.45672 0.38426 0.0
O1040 O 0.23919 0.42345 0.35061 0.0
C1041 C 0.21941 0.41963 0.40671 0.0
O1042 O 0.19985 0.42126 0.40433 0.0
N1043 N 0.19955 0.41264 0.34407 0.0
C1044 C 0.17347 0.39829 0.31447 0.0
C1045 C 0.19405 0.40047 0.3105 0.0
C1046 C 0.2069 0.40731 0.32561 0.0
C1047 C 0.17965 0.41004 0.3483 0.0
C1048 C 0.16624 0.40334 0.3336 0.0
H1049 H 0.2228 0.4069 0.32263 0.0
H1050 H 0.17426 0.41265 0.36345 0.0
H1051 H 0.25487 0.39071 0.36751 0.0
H1052 H 0.21482 0.34251 0.37564 0.0
H1053 H 0.18058 0.4853 0.36587 0.0
H1054 H 0.2003 0.3963 0.29604 0.0
H1055 H 0.15056 0.40122 0.33748 0.0
C1056 C 0.65409 0.6359 0.77874 0.0
C1057 C 0.64947 0.65324 0.76828 0.0
N1058 N 0.64768 0.6485 0.74863 0.0
N1059 N 0.65514 0.62042 0.76567 0.0
C1060 C 0.65127 0.62858 0.74752 0.0
H1061 H 0.65547 0.63446 0.79489 0.0
Co1062 Co 0.65613 0.5931 0.77118 0.0
C1063 C 0.66979 0.58268 0.72932 0.0
O1064 O 0.65185 0.57884 0.722 0.0
N1065 N 0.65693 0.56548 0.77624 0.0
C1066 C 0.66632 0.53336 0.77561 0.0
C1067 C 0.67284 0.553 0.77428 0.0
C1068 C 0.64108 0.55315 0.77917 0.0
N1069 N 0.64628 0.53355 0.77855 0.0
O1070 O 0.63141 0.59004 0.75685 0.0
H1071 H 0.68802 0.55781 0.77097 0.0
H1072 H 0.62575 0.55834 0.7804 0.0
O1073 O 0.67189 0.58843 0.74745 0.0
C1074 C 0.61642 0.59481 0.76779 0.0
O1075 O 0.61967 0.59955 0.78672 0.0
N1076 N 0.67963 0.5969 0.7862 0.0
C1077 C 0.71271 0.60395 0.81081 0.0
C1078 C 0.71388 0.60742 0.79009 0.0
C1079 C 0.69704 0.60417 0.77806 0.0
C1080 C 0.67815 0.59357 0.80638 0.0
C1081 C 0.69456 0.59712 0.81906 0.0
H1082 H 0.69795 0.60801 0.76231 0.0
H1083 H 0.66407 0.58838 0.81266 0.0
H1084 H 0.64945 0.6198 0.73394 0.0
H1085 H 0.6469 0.66798 0.77471 0.0
H1086 H 0.67553 0.52004 0.77386 0.0
H1087 H 0.72755 0.6132 0.78334 0.0
H1088 H 0.69313 0.59452 0.83508 0.0
C1089 C 0.38567 0.62806 0.7998 0.0
C1090 C 0.3653 0.62394 0.79993 0.0
N1091 N 0.36099 0.61265 0.78363 0.0
N1092 N 0.39396 0.61973 0.78323 0.0
C1093 C 0.37868 0.60995 0.7742 0.0
H1094 H 0.39345 0.63778 0.81025 0.0
Co1095 Co 0.41863 0.62371 0.77044 0.0
C1096 C 0.40403 0.62304 0.72733 0.0
O1097 O 0.41816 0.61148 0.71974 0.0
N1098 N 0.44304 0.6277 0.75717 0.0
C1099 C 0.46625 0.63908 0.73595 0.0
C1100 C 0.44676 0.64122 0.74246 0.0
C1101 C 0.46061 0.6178 0.75962 0.0
N1102 N 0.47492 0.62433 0.74676 0.0
O1103 O 0.41995 0.59542 0.76571 0.0
H1104 H 0.43595 0.65191 0.73668 0.0
H1105 H 0.46283 0.60583 0.7704 0.0
O1106 O 0.40426 0.62776 0.74585 0.0
C1107 C 0.42604 0.5863 0.7814 0.0
O1108 O 0.43312 0.59718 0.79634 0.0
N1109 N 0.41737 0.65127 0.77647 0.0
C1110 C 0.41247 0.68969 0.79232 0.0
C1111 C 0.40415 0.68472 0.77364 0.0
C1112 C 0.40655 0.66533 0.76604 0.0
C1113 C 0.42668 0.65628 0.79404 0.0
C1114 C 0.42414 0.67539 0.80246 0.0
H1115 H 0.39903 0.66172 0.75215 0.0
H1116 H 0.4351 0.64494 0.80215 0.0
H1117 H 0.38016 0.60264 0.75973 0.0
H1118 H 0.35437 0.62995 0.8104 0.0
H1119 H 0.47358 0.64791 0.7244 0.0
H1120 H 0.3949 0.6954 0.76551 0.0
H1121 H 0.43073 0.67878 0.81698 0.0
C1122 C 0.34644 0.35952 0.79351 0.0
C1123 C 0.35286 0.34431 0.78092 0.0
N1124 N 0.36114 0.35277 0.76447 0.0
N1125 N 0.35041 0.37744 0.78483 0.0
C1126 C 0.3594 0.37278 0.76724 0.0
H1127 H 0.33975 0.35758 0.8082 0.0
Co1128 Co 0.34682 0.40347 0.7945 0.0
C1129 C 0.32501 0.42449 0.76139 0.0
O1130 O 0.31561 0.43624 0.77423 0.0
N1131 N 0.34404 0.43006 0.80405 0.0
C1132 C 0.34338 0.4567 0.82435 0.0
C1133 C 0.33742 0.437 0.82199 0.0
C1134 C 0.35356 0.44602 0.7957 0.0
N1135 N 0.35353 0.46228 0.80778 0.0
O1136 O 0.37415 0.40892 0.7876 0.0
H1137 H 0.33035 0.42811 0.83354 0.0
H1138 H 0.36215 0.44514 0.78189 0.0
O1139 O 0.33785 0.41168 0.76781 0.0
C1140 C 0.38618 0.40998 0.80244 0.0
O1141 O 0.3789 0.40929 0.82081 0.0
N1142 N 0.32056 0.39656 0.80261 0.0
C1143 C 0.28676 0.37638 0.81747 0.0
C1144 C 0.28787 0.38219 0.79721 0.0
C1145 C 0.30509 0.39171 0.78996 0.0
C1146 C 0.31948 0.39152 0.82247 0.0
C1147 C 0.30267 0.38164 0.83027 0.0
H1148 H 0.30638 0.39346 0.77394 0.0
H1149 H 0.33247 0.39372 0.83201 0.0
H1150 H 0.36483 0.38395 0.75672 0.0
H1151 H 0.35215 0.32832 0.78395 0.0
H1152 H 0.34181 0.4657 0.83785 0.0
H1153 H 0.27602 0.37837 0.78669 0.0
H1154 H 0.30287 0.37689 0.84585 0.0
C1155 C 0.62661 0.37382 0.77709 0.0
C1156 C 0.64345 0.37944 0.7662 0.0
N1157 N 0.63807 0.381 0.74672 0.0
N1158 N 0.61087 0.37195 0.76441 0.0
C1159 C 0.61836 0.37668 0.74617 0.0
H1160 H 0.62583 0.37145 0.79317 0.0
Co1161 Co 0.5839 0.36643 0.76959 0.0
C1162 C 0.57539 0.35865 0.72573 0.0
O1163 O 0.56889 0.37678 0.72129 0.0
N1164 N 0.55665 0.3611 0.7742 0.0
C1165 C 0.52621 0.34735 0.77225 0.0
C1166 C 0.54636 0.34456 0.7684 0.0
C1167 C 0.54251 0.37353 0.78183 0.0
N1168 N 0.52385 0.36564 0.78065 0.0
O1169 O 0.5777 0.39257 0.75989 0.0
H1170 H 0.55301 0.33155 0.76122 0.0
H1171 H 0.54558 0.38851 0.78732 0.0
O1172 O 0.58116 0.35453 0.74347 0.0
C1173 C 0.57979 0.40512 0.77419 0.0
O1174 O 0.58341 0.39834 0.7924 0.0
N1175 N 0.59094 0.34138 0.78017 0.0
C1176 C 0.60243 0.30536 0.79806 0.0
C1177 C 0.60721 0.3093 0.77794 0.0
C1178 C 0.60152 0.32751 0.76931 0.0
C1179 C 0.58652 0.33803 0.79991 0.0
C1180 C 0.59214 0.32002 0.80921 0.0
H1181 H 0.60609 0.33058 0.75402 0.0
H1182 H 0.57869 0.34945 0.80848 0.0
H1183 H 0.60944 0.37773 0.73267 0.0
H1184 H 0.65843 0.38197 0.77205 0.0
H1185 H 0.51421 0.33686 0.76889 0.0
H1186 H 0.61573 0.29858 0.76909 0.0
H1187 H 0.58837 0.31752 0.82486 0.0
C1188 C 0.5982 0.34552 0.20933 0.0
C1189 C 0.59166 0.33083 0.22248 0.0
N1190 N 0.59098 0.33883 0.24113 0.0
N1191 N 0.60178 0.36257 0.21973 0.0
C1192 C 0.59685 0.35808 0.23889 0.0
H1193 H 0.60028 0.34375 0.1933 0.0
Co1194 Co 0.61073 0.38777 0.21156 0.0
C1195 C 0.62894 0.40218 0.25118 0.0
O1196 O 0.622 0.42065 0.25151 0.0
N1197 N 0.61961 0.41368 0.20365 0.0
C1198 C 0.63452 0.43974 0.18864 0.0
C1199 C 0.63336 0.41909 0.18963 0.0
C1200 C 0.61267 0.43144 0.21082 0.0
N1201 N 0.62153 0.4474 0.20211 0.0
O1202 O 0.58663 0.3986 0.22241 0.0
H1203 H 0.64208 0.40889 0.18049 0.0
H1204 H 0.60096 0.4328 0.22202 0.0
O1205 O 0.62474 0.39032 0.23675 0.0
C1206 C 0.57407 0.40273 0.20858 0.0
O1207 O 0.58001 0.40196 0.18974 0.0
N1208 N 0.63334 0.37602 0.19965 0.0
C1209 C 0.66417 0.35855 0.17727 0.0
C1210 C 0.66731 0.36418 0.19737 0.0
C1211 C 0.6517 0.37292 0.20835 0.0
C1212 C 0.62994 0.37045 0.18022 0.0
C1213 C 0.64515 0.36173 0.16872 0.0
H1214 H 0.65467 0.37716 0.22371 0.0
H1215 H 0.61535 0.37316 0.17355 0.0
H1216 H 0.59735 0.36891 0.25102 0.0
H1217 H 0.58822 0.31538 0.21866 0.0
H1218 H 0.64423 0.44842 0.17888 0.0
H1219 H 0.68167 0.3617 0.20465 0.0
H1220 H 0.64212 0.35786 0.15319 0.0
C1221 C 0.64333 0.62273 0.18975 0.0
C1222 C 0.66112 0.61579 0.19772 0.0
N1223 N 0.65927 0.61539 0.21788 0.0
N1224 N 0.63036 0.62654 0.20487 0.0
C1225 C 0.64053 0.622 0.22186 0.0
H1226 H 0.6396 0.62361 0.17394 0.0
Co1227 Co 0.60308 0.63102 0.20191 0.0
C1228 C 0.59211 0.65966 0.23381 0.0
O1229 O 0.57977 0.66845 0.22111 0.0
N1230 N 0.57505 0.63455 0.19895 0.0
C1231 C 0.54374 0.63748 0.18743 0.0
C1232 C 0.56375 0.64027 0.18303 0.0
C1233 C 0.56142 0.62839 0.21279 0.0
N1234 N 0.54235 0.62998 0.20615 0.0
O1235 O 0.59829 0.60558 0.21389 0.0
H1236 H 0.56932 0.6454 0.16871 0.0
H1237 H 0.56548 0.62197 0.2272 0.0
O1238 O 0.60222 0.64427 0.22817 0.0
C1239 C 0.59838 0.59227 0.20013 0.0
O1240 O 0.59987 0.59823 0.18133 0.0
N1241 N 0.60905 0.65517 0.18849 0.0
C1242 C 0.62484 0.68551 0.16408 0.0
C1243 C 0.62673 0.68649 0.18508 0.0
C1244 C 0.61914 0.67097 0.19698 0.0
C1245 C 0.60766 0.65371 0.16809 0.0
C1246 C 0.61498 0.6689 0.15562 0.0
H1247 H 0.62281 0.67109 0.21277 0.0
H1248 H 0.60183 0.64009 0.16136 0.0
H1249 H 0.63379 0.62183 0.23668 0.0
H1250 H 0.67405 0.61048 0.18935 0.0
H1251 H 0.53119 0.64028 0.17743 0.0
H1252 H 0.63515 0.69848 0.19222 0.0
H1253 H 0.61353 0.66727 0.13948 0.0
C1254 C 0.37079 0.63903 0.22913 0.0
C1255 C 0.37648 0.65772 0.23639 0.0
N1256 N 0.38544 0.65509 0.2544 0.0
N1257 N 0.37613 0.62484 0.24262 0.0
C1258 C 0.3855 0.63509 0.25739 0.0
H1259 H 0.36194 0.63624 0.21577 0.0
Co1260 Co 0.36882 0.59795 0.24633 0.0
C1261 C 0.35919 0.60015 0.29081 0.0
O1262 O 0.36793 0.58339 0.29658 0.0
N1263 N 0.36131 0.57128 0.25103 0.0
C1264 C 0.34418 0.54457 0.26155 0.0
C1265 C 0.34376 0.56508 0.25916 0.0
C1266 C 0.3721 0.55425 0.24851 0.0
N1267 N 0.36207 0.53778 0.25492 0.0
O1268 O 0.39534 0.59275 0.25615 0.0
H1269 H 0.33158 0.57489 0.26362 0.0
H1270 H 0.38704 0.55389 0.24212 0.0
O1271 O 0.35937 0.60536 0.27243 0.0
C1272 C 0.4065 0.59028 0.24077 0.0
O1273 O 0.39773 0.58897 0.22308 0.0
N1274 N 0.34359 0.60298 0.235 0.0
C1275 C 0.30783 0.60796 0.21398 0.0
C1276 C 0.30961 0.61496 0.23378 0.0
C1277 C 0.3278 0.6126 0.244 0.0
C1278 C 0.34211 0.59619 0.21572 0.0
C1279 C 0.32435 0.59869 0.20482 0.0
H1280 H 0.32897 0.61848 0.25906 0.0
H1281 H 0.35486 0.58883 0.2088 0.0
H1282 H 0.39106 0.62798 0.27093 0.0
H1283 H 0.3728 0.67213 0.22975 0.0
H1284 H 0.33242 0.53547 0.26816 0.0
H1285 H 0.29716 0.62247 0.24115 0.0
H1286 H 0.32344 0.59319 0.1895 0.0
C1287 C 0.33795 0.373 0.20044 0.0
C1288 C 0.32102 0.3824 0.20787 0.0
N1289 N 0.32171 0.3817 0.22813 0.0
N1290 N 0.3492 0.36654 0.21601 0.0
C1291 C 0.33879 0.37179 0.23262 0.0
H1292 H 0.34262 0.37245 0.18486 0.0
Co1293 Co 0.37613 0.35928 0.21563 0.0
C1294 C 0.37819 0.33947 0.25546 0.0
O1295 O 0.3906 0.35304 0.26271 0.0
N1296 N 0.40328 0.35271 0.21559 0.0
C1297 C 0.43343 0.33895 0.21988 0.0
C1298 C 0.41296 0.3355 0.22033 0.0
C1299 C 0.41798 0.36615 0.21197 0.0
N1300 N 0.43647 0.35832 0.21466 0.0
O1301 O 0.38162 0.3811 0.23346 0.0
H1302 H 0.40563 0.32153 0.22429 0.0
H1303 H 0.41511 0.38167 0.20815 0.0
O1304 O 0.37166 0.34102 0.23754 0.0
C1305 C 0.38134 0.39814 0.22481 0.0
O1306 O 0.37792 0.39912 0.20538 0.0
N1307 N 0.37063 0.33846 0.19741 0.0
C1308 C 0.36332 0.30751 0.17022 0.0
C1309 C 0.35135 0.30968 0.1874 0.0
C1310 C 0.3553 0.32524 0.20087 0.0
C1311 C 0.38186 0.3371 0.18027 0.0
C1312 C 0.37871 0.32142 0.16662 0.0
H1313 H 0.34592 0.32673 0.21407 0.0
H1314 H 0.3935 0.34806 0.17729 0.0
H1315 H 0.34476 0.37043 0.24771 0.0
H1316 H 0.30979 0.3903 0.1991 0.0
H1317 H 0.44509 0.32811 0.22328 0.0
H1318 H 0.33929 0.29919 0.19058 0.0
H1319 H 0.38808 0.32023 0.15333 0.0
C1320 C 0.80036 0.61501 0.6111 0.0
C1321 C 0.79521 0.60538 0.62874 0.0
N1322 N 0.77521 0.60745 0.63153 0.0
N1323 N 0.78371 0.6232 0.60298 0.0
C1324 C 0.76872 0.61837 0.61573 0.0
H1325 H 0.81514 0.6155 0.60431 0.0
Co1326 Co 0.78116 0.63554 0.5782 0.0
C1327 C 0.73932 0.65003 0.57877 0.0
O1328 O 0.7357 0.64241 0.56089 0.0
N1329 N 0.77857 0.64793 0.55309 0.0
C1330 C 0.77083 0.66973 0.52888 0.0
C1331 C 0.77335 0.66722 0.54929 0.0
C1332 C 0.7797 0.63922 0.53479 0.0
N1333 N 0.77486 0.65205 0.51988 0.0
O1334 O 0.76648 0.61259 0.56936 0.0
H1335 H 0.77072 0.67853 0.5607 0.0
H1336 H 0.78311 0.62352 0.53236 0.0
O1337 O 0.75657 0.64811 0.58681 0.0
C1338 C 0.77706 0.59785 0.5633 0.0
O1339 O 0.79647 0.60046 0.56069 0.0
N1340 N 0.79642 0.65716 0.58753 0.0
C1341 C 0.82331 0.68465 0.60403 0.0
C1342 C 0.80305 0.68475 0.60977 0.0
C1343 C 0.78986 0.6707 0.60156 0.0
C1344 C 0.81595 0.65719 0.58133 0.0
C1345 C 0.82975 0.67078 0.5895 0.0
H1346 H 0.77467 0.67033 0.60723 0.0
H1347 H 0.82096 0.64606 0.57054 0.0
H1348 H 0.75319 0.62236 0.61317 0.0
H1349 H 0.80529 0.59696 0.63834 0.0
H1350 H 0.76613 0.68335 0.52129 0.0
H1351 H 0.79763 0.69496 0.62128 0.0
H1352 H 0.84534 0.67025 0.58477 0.0
C1353 C 0.77664 0.38777 0.3472 0.0
C1354 C 0.76376 0.39043 0.33118 0.0
N1355 N 0.74734 0.37903 0.33441 0.0
N1356 N 0.7682 0.37499 0.36048 0.0
C1357 C 0.75044 0.36977 0.35214 0.0
H1358 H 0.79079 0.39546 0.34953 0.0
Co1359 Co 0.77785 0.37014 0.38615 0.0
C1360 C 0.74774 0.34349 0.4054 0.0
O1361 O 0.76237 0.33431 0.415 0.0
N1362 N 0.78774 0.36619 0.41245 0.0
C1363 C 0.80634 0.36181 0.43991 0.0
C1364 C 0.80556 0.35933 0.41937 0.0
C1365 C 0.77813 0.37288 0.42911 0.0
N1366 N 0.78904 0.37041 0.44607 0.0
O1367 O 0.76899 0.39644 0.39357 0.0
H1368 H 0.81769 0.35357 0.4103 0.0
H1369 H 0.76334 0.37961 0.42861 0.0
O1370 O 0.75182 0.3585 0.39403 0.0
C1371 C 0.78345 0.40899 0.39391 0.0
O1372 O 0.80186 0.40214 0.39165 0.0
N1373 N 0.78775 0.34511 0.37715 0.0
C1374 C 0.80505 0.31269 0.35667 0.0
C1375 C 0.78437 0.3131 0.36068 0.0
C1376 C 0.77596 0.3296 0.37051 0.0
C1377 C 0.80782 0.34514 0.37291 0.0
C1378 C 0.8169 0.32887 0.36313 0.0
H1379 H 0.75982 0.33028 0.37137 0.0
H1380 H 0.81671 0.35835 0.37628 0.0
H1381 H 0.73937 0.36031 0.35936 0.0
H1382 H 0.76599 0.40036 0.31847 0.0
H1383 H 0.8191 0.35822 0.44934 0.0
H1384 H 0.7746 0.30112 0.35551 0.0
H1385 H 0.8328 0.3295 0.35963 0.0
C1386 C 0.62862 0.78803 0.35066 0.0
C1387 C 0.6253 0.77699 0.33337 0.0
N1388 N 0.62558 0.75732 0.33829 0.0
N1389 N 0.63098 0.77529 0.36626 0.0
C1390 C 0.62882 0.75677 0.35826 0.0
H1391 H 0.62908 0.80425 0.35181 0.0
Co1392 Co 0.6348 0.78122 0.39326 0.0
C1393 C 0.66177 0.74849 0.40764 0.0
O1394 O 0.67059 0.76063 0.42051 0.0
N1395 N 0.6381 0.78701 0.42098 0.0
C1396 C 0.64284 0.80201 0.45057 0.0
C1397 C 0.64658 0.80301 0.43028 0.0
C1398 C 0.62958 0.77638 0.43615 0.0
N1399 N 0.63207 0.7853 0.45419 0.0
O1400 O 0.60868 0.77077 0.39841 0.0
H1401 H 0.65446 0.81519 0.4231 0.0
H1402 H 0.62083 0.76283 0.4339 0.0
O1403 O 0.6472 0.75495 0.39694 0.0
C1404 C 0.59696 0.78593 0.39811 0.0
O1405 O 0.60506 0.80395 0.3971 0.0
N1406 N 0.65925 0.79343 0.38659 0.0
C1407 C 0.68944 0.81695 0.36947 0.0
C1408 C 0.69166 0.796 0.37087 0.0
C1409 C 0.67615 0.78441 0.3791 0.0
C1410 C 0.65679 0.81371 0.38493 0.0
C1411 C 0.67182 0.82579 0.37687 0.0
H1412 H 0.67732 0.76828 0.37805 0.0
H1413 H 0.64271 0.8205 0.38943 0.0
H1414 H 0.62889 0.74307 0.367 0.0
H1415 H 0.62296 0.78294 0.3184 0.0
H1416 H 0.64725 0.81301 0.46175 0.0
H1417 H 0.70471 0.78852 0.36459 0.0
H1418 H 0.66939 0.84188 0.37597 0.0
C1419 C 0.2235 0.65859 0.39017 0.0
C1420 C 0.23474 0.65728 0.37281 0.0
N1421 N 0.25298 0.64999 0.37769 0.0
N1422 N 0.23487 0.65256 0.40588 0.0
C1423 C 0.25263 0.64712 0.39771 0.0
H1424 H 0.20818 0.6639 0.39126 0.0
Co1425 Co 0.2287 0.65223 0.43307 0.0
C1426 C 0.26333 0.67386 0.45161 0.0
O1427 O 0.25175 0.68161 0.46564 0.0
N1428 N 0.22257 0.65117 0.4607 0.0
C1429 C 0.20618 0.64929 0.48984 0.0
C1430 C 0.20518 0.65572 0.47025 0.0
C1431 C 0.23384 0.64191 0.47494 0.0
N1432 N 0.2242 0.64062 0.49273 0.0
O1433 O 0.23743 0.62492 0.43412 0.0
H1434 H 0.192 0.66221 0.46347 0.0
H1435 H 0.24839 0.63519 0.47201 0.0
O1436 O 0.25586 0.66163 0.43881 0.0
C1437 C 0.22275 0.61295 0.43144 0.0
O1438 O 0.20454 0.62059 0.43036 0.0
N1439 N 0.21866 0.67877 0.43066 0.0
C1440 C 0.19975 0.71466 0.41962 0.0
C1441 C 0.22073 0.71361 0.42112 0.0
C1442 C 0.22992 0.69538 0.42606 0.0
C1443 C 0.19825 0.67952 0.42882 0.0
C1444 C 0.18846 0.69734 0.4236 0.0
H1445 H 0.24598 0.69451 0.42448 0.0
H1446 H 0.18955 0.66584 0.43014 0.0
H1447 H 0.2653 0.64165 0.40636 0.0
H1448 H 0.22992 0.66134 0.35779 0.0
H1449 H 0.19429 0.65021 0.50093 0.0
H1450 H 0.23003 0.72638 0.41712 0.0
H1451 H 0.17224 0.69737 0.42198 0.0
C1452 C 0.35622 0.20206 0.37014 0.0
C1453 C 0.35822 0.2084 0.35049 0.0
N1454 N 0.36077 0.22853 0.35055 0.0
N1455 N 0.35724 0.21819 0.38239 0.0
C1456 C 0.36026 0.23398 0.37007 0.0
H1457 H 0.35397 0.18674 0.37517 0.0
Co1458 Co 0.35517 0.21925 0.41017 0.0
C1459 C 0.32974 0.25527 0.41763 0.0
O1460 O 0.32023 0.2457 0.43202 0.0
N1461 N 0.35362 0.22047 0.43885 0.0
C1462 C 0.34498 0.21787 0.47125 0.0
C1463 C 0.33946 0.21352 0.4518 0.0
C1464 C 0.36753 0.22898 0.4511 0.0
N1465 N 0.36271 0.22749 0.47072 0.0
O1466 O 0.38191 0.22955 0.41079 0.0
H1467 H 0.32564 0.2061 0.44765 0.0
H1468 H 0.38107 0.23633 0.44594 0.0
O1469 O 0.34402 0.2465 0.4082 0.0
C1470 C 0.39417 0.21482 0.41111 0.0
O1471 O 0.38677 0.19653 0.41248 0.0
N1472 N 0.32984 0.20708 0.40812 0.0
C1473 C 0.29916 0.18129 0.39553 0.0
C1474 C 0.29883 0.2018 0.3904 0.0
C1475 C 0.31443 0.21442 0.39667 0.0
C1476 C 0.33014 0.18734 0.41363 0.0
C1477 C 0.31472 0.17433 0.40797 0.0
H1478 H 0.31501 0.22948 0.39064 0.0
H1479 H 0.34302 0.18143 0.42163 0.0
H1480 H 0.36171 0.24929 0.37532 0.0
H1481 H 0.35787 0.19892 0.33725 0.0
H1482 H 0.33685 0.21379 0.48476 0.0
H1483 H 0.28752 0.20776 0.3803 0.0
H1484 H 0.31559 0.15869 0.41246 0.0
C1485 C 0.20326 0.38248 0.63996 0.0
C1486 C 0.21308 0.3889 0.65721 0.0
N1487 N 0.23304 0.38645 0.65444 0.0
N1488 N 0.21706 0.37607 0.62655 0.0
C1489 C 0.23487 0.37881 0.6358 0.0
H1490 H 0.18723 0.38297 0.63718 0.0
Co1491 Co 0.21545 0.36809 0.59971 0.0
C1492 C 0.25444 0.34689 0.59444 0.0
O1493 O 0.25851 0.3555 0.57714 0.0
N1494 N 0.2147 0.36013 0.5726 0.0
C1495 C 0.21879 0.3415 0.54505 0.0
C1496 C 0.21589 0.34107 0.56553 0.0
C1497 C 0.21642 0.37181 0.55607 0.0
N1498 N 0.21918 0.36087 0.53921 0.0
O1499 O 0.23237 0.39034 0.59347 0.0
H1500 H 0.21595 0.32772 0.57484 0.0
H1501 H 0.21707 0.38805 0.55641 0.0
O1502 O 0.23827 0.35095 0.6038 0.0
C1503 C 0.22225 0.40656 0.59254 0.0
O1504 O 0.20266 0.40513 0.5902 0.0
N1505 N 0.19812 0.34702 0.60667 0.0
C1506 C 0.17186 0.3156 0.61547 0.0
C1507 C 0.19041 0.31721 0.62538 0.0
C1508 C 0.2033 0.33307 0.62083 0.0
C1509 C 0.17979 0.34626 0.59751 0.0
C1510 C 0.1665 0.33045 0.60148 0.0
H1511 H 0.21748 0.33411 0.62871 0.0
H1512 H 0.17565 0.35775 0.58677 0.0
H1513 H 0.24915 0.37631 0.62844 0.0
H1514 H 0.2061 0.39501 0.67059 0.0
H1515 H 0.22113 0.32864 0.53532 0.0
H1516 H 0.19513 0.30605 0.63628 0.0
H1517 H 0.15217 0.32988 0.59375 0.0
C1518 C 0.64424 0.21375 0.65096 0.0
C1519 C 0.6396 0.22878 0.66462 0.0
N1520 N 0.6346 0.24549 0.65424 0.0
N1521 N 0.6421 0.22108 0.63218 0.0
C1522 C 0.63624 0.24033 0.63474 0.0
H1523 H 0.64811 0.19834 0.65449 0.0
Co1524 Co 0.64268 0.2087 0.60711 0.0
C1525 C 0.6659 0.23831 0.58241 0.0
O1526 O 0.67503 0.22427 0.57189 0.0
N1527 N 0.64256 0.19689 0.58142 0.0
C1528 C 0.64441 0.17768 0.55404 0.0
C1529 C 0.64881 0.17891 0.57426 0.0
C1530 C 0.63419 0.20606 0.56533 0.0
N1531 N 0.63522 0.19486 0.54846 0.0
O1532 O 0.61601 0.21773 0.6028 0.0
H1533 H 0.65595 0.1672 0.58291 0.0
H1534 H 0.62724 0.22076 0.5661 0.0
O1535 O 0.65324 0.23345 0.59596 0.0
C1536 C 0.60358 0.20642 0.61189 0.0
O1537 O 0.61041 0.19034 0.62115 0.0
N1538 N 0.66831 0.19857 0.61281 0.0
C1539 C 0.70345 0.17883 0.62414 0.0
C1540 C 0.70372 0.19944 0.61967 0.0
C1541 C 0.68582 0.2092 0.61457 0.0
C1542 C 0.66763 0.17887 0.6184 0.0
C1543 C 0.68505 0.1686 0.62383 0.0
H1544 H 0.68612 0.22529 0.61273 0.0
H1545 H 0.65335 0.17107 0.61853 0.0
H1546 H 0.63191 0.25005 0.62243 0.0
H1547 H 0.63945 0.22736 0.68083 0.0
H1548 H 0.64787 0.16513 0.54424 0.0
H1549 H 0.71752 0.20805 0.62069 0.0
H1550 H 0.68414 0.15277 0.62759 0.0
C1551 C 0.35022 0.76831 0.6423 0.0
C1552 C 0.35074 0.75584 0.65893 0.0
N1553 N 0.35719 0.7376 0.6529 0.0
N1554 N 0.35591 0.75772 0.62591 0.0
C1555 C 0.36038 0.73925 0.63301 0.0
H1556 H 0.34535 0.78384 0.64211 0.0
Co1557 Co 0.35587 0.7643 0.59851 0.0
C1558 C 0.34195 0.72253 0.58913 0.0
O1559 O 0.35997 0.71458 0.58763 0.0
N1560 N 0.3555 0.77004 0.57102 0.0
C1561 C 0.34505 0.77199 0.53934 0.0
C1562 C 0.33929 0.76854 0.55887 0.0
C1563 C 0.37087 0.77461 0.55857 0.0
N1564 N 0.36495 0.7757 0.53918 0.0
O1565 O 0.38094 0.75033 0.59555 0.0
H1566 H 0.32429 0.7647 0.56385 0.0
H1567 H 0.38628 0.77635 0.56342 0.0
O1568 O 0.33972 0.74105 0.59329 0.0
C1569 C 0.39356 0.76379 0.60085 0.0
O1570 O 0.3866 0.78174 0.60551 0.0
N1571 N 0.33291 0.77985 0.60215 0.0
C1572 C 0.30462 0.80802 0.61455 0.0
C1573 C 0.30051 0.78732 0.61603 0.0
C1574 C 0.31496 0.77337 0.60972 0.0
C1575 C 0.33662 0.79981 0.59951 0.0
C1576 C 0.32259 0.81416 0.60542 0.0
H1577 H 0.31231 0.75753 0.6123 0.0
H1578 H 0.35104 0.80463 0.59373 0.0
H1579 H 0.36528 0.72691 0.62366 0.0
H1580 H 0.34657 0.75981 0.67417 0.0
H1581 H 0.33534 0.77164 0.52627 0.0
H1582 H 0.2869 0.78197 0.6232 0.0
H1583 H 0.32621 0.82995 0.60368 0.0
H1584 H 0.12879 0.24776 0.00449 0.0
H1585 H 0.09973 0.29831 0.97493 0.0
H1586 H 0.08438 0.30823 0.00706 0.0
H1587 H 0.08835 0.23649 0.04001 0.0
H1588 H 0.1054 0.23067 0.06028 0.0
H1589 H 0.11291 0.22632 0.03459 0.0
H1590 H 0.14449 0.24853 0.03992 0.0
H1591 H 0.13714 0.25282 0.06562 0.0
H1592 H 0.14152 0.27388 0.04913 0.0
H1593 H 0.07447 0.3145 0.04239 0.0
H1594 H 0.0712 0.31715 0.07927 0.0
H1595 H 0.10628 0.26259 0.08643 0.0
C1596 C 0.11919 0.2609 0.00471 0.0
C1597 C 0.1154 0.27213 0.98701 0.0
C1598 C 0.10261 0.28918 0.98807 0.0
C1599 C 0.09384 0.29499 0.00631 0.0
C1600 C 0.09792 0.28361 0.0234 0.0
C1601 C 0.11032 0.26695 0.02282 0.0
C1602 C 0.11309 0.25801 0.04364 0.0
C1603 C 0.10441 0.2366 0.04468 0.0
C1604 C 0.13538 0.25835 0.04994 0.0
C1605 C 0.10068 0.27258 0.05603 0.0
C1606 C 0.09195 0.28713 0.04398 0.0
C1607 C 0.08096 0.30306 0.05198 0.0
C1608 C 0.0792 0.30445 0.0729 0.0
C1609 C 0.08827 0.28993 0.08553 0.0
C1610 C 0.09877 0.27356 0.077 0.0
H1611 H 0.68142 0.09046 0.05922 0.0
H1612 H 0.74405 0.1038 0.07181 0.0
H1613 H 0.74965 0.11089 0.03569 0.0
H1614 H 0.68903 0.06835 0.00805 0.0
H1615 H 0.66611 0.07961 -0.00105 0.0
H1616 H 0.66816 0.07218 0.02494 0.0
H1617 H 0.65864 0.1084 0.03587 0.0
H1618 H 0.65688 0.11605 0.01 0.0
H1619 H 0.67341 0.12931 0.02692 0.0
H1620 H 0.74698 0.12115 -0.00089 0.0
H1621 H 0.73665 0.13254 0.96527 0.0
H1622 H 0.67573 0.11246 0.9772 0.0
C1623 C 0.69647 0.0943 0.05433 0.0
C1624 C 0.71232 0.09652 0.06829 0.0
C1625 C 0.73174 0.10182 0.06132 0.0
C1626 C 0.73504 0.10591 0.04085 0.0
C1627 C 0.71882 0.10439 0.0276 0.0
C1628 C 0.69998 0.09845 0.03407 0.0
C1629 C 0.68459 0.09971 0.01737 0.0
C1630 C 0.6765 0.07871 0.01201 0.0
C1631 C 0.66738 0.11423 0.02288 0.0
C1632 C 0.69749 0.10808 0.00066 0.0
C1633 C 0.71725 0.11041 0.0067 0.0
C1634 C 0.73164 0.11902 0.99411 0.0
C1635 C 0.72563 0.12542 0.9749 0.0
C1636 C 0.70537 0.12336 0.96855 0.0
C1637 C 0.69128 0.11436 0.98162 0.0
H1638 H 0.93339 0.73108 0.0679 0.0
H1639 H 0.90012 0.78512 0.08298 0.0
H1640 H 0.88015 0.78146 0.05164 0.0
H1641 H 0.93361 0.73764 0.013 0.0
H1642 H 0.93038 0.71109 0.00855 0.0
H1643 H 0.94352 0.71961 0.03068 0.0
H1644 H 0.91872 0.69939 0.05341 0.0
H1645 H 0.90612 0.6907 0.03108 0.0
H1646 H 0.89204 0.70333 0.05045 0.0
H1647 H 0.86292 0.77061 0.01899 0.0
H1648 H 0.84946 0.75298 0.9888 0.0
H1649 H 0.89254 0.70499 0.99751 0.0
C1650 C 0.9223 0.74248 0.06433 0.0
C1651 C 0.9185 0.75862 0.07757 0.0
C1652 C 0.90341 0.77285 0.07277 0.0
C1653 C 0.892 0.77083 0.05507 0.0
C1654 C 0.89576 0.75437 0.04259 0.0
C1655 C 0.91056 0.74044 0.04706 0.0
C1656 C 0.9108 0.72332 0.03209 0.0
C1657 C 0.93076 0.7229 0.02039 0.0
C1658 C 0.90668 0.703 0.04239 0.0
C1659 C 0.89353 0.72948 0.01871 0.0
C1660 C 0.88523 0.7476 0.02471 0.0
C1661 C 0.86928 0.75638 0.01424 0.0
C1662 C 0.86169 0.74632 0.99725 0.0
C1663 C 0.86979 0.72757 0.99129 0.0
C1664 C 0.88587 0.71912 0.00215 0.0
H1665 H 0.32987 0.86729 0.97558 0.0
H1666 H 0.26784 0.85435 0.95983 0.0
H1667 H 0.25698 0.86606 0.99337 0.0
H1668 H 0.32692 0.84974 0.02587 0.0
H1669 H 0.34353 0.8688 0.03569 0.0
H1670 H 0.34604 0.86061 0.01 0.0
H1671 H 0.34215 0.8975 0.99789 0.0
H1672 H 0.33949 0.90579 0.02356 0.0
H1673 H 0.32032 0.91177 0.00535 0.0
H1674 H 0.25315 0.87809 0.02952 0.0
H1675 H 0.257 0.88798 0.06526 0.0
H1676 H 0.3216 0.8922 0.05684 0.0
C1677 C 0.314 0.8668 0.97912 0.0
C1678 C 0.29974 0.85991 0.96494 0.0
C1679 C 0.27907 0.85982 0.97026 0.0
C1680 C 0.27274 0.86639 0.98932 0.0
C1681 C 0.28725 0.87305 0.00291 0.0
C1682 C 0.30745 0.87324 0.99803 0.0
C1683 C 0.32017 0.88036 0.01548 0.0
C1684 C 0.33503 0.86389 0.02215 0.0
C1685 C 0.33118 0.90002 0.01025 0.0
C1686 C 0.30402 0.88385 0.0311 0.0
C1687 C 0.28508 0.87976 0.02357 0.0
C1688 C 0.2679 0.88144 0.03552 0.0
C1689 C 0.27022 0.88712 0.05577 0.0
C1690 C 0.28958 0.89088 0.06382 0.0
C1691 C 0.30658 0.88948 0.05115 0.0
H1692 H 0.12201 0.67871 0.02057 0.0
H1693 H 0.14502 0.73694 0.03855 0.0
H1694 H 0.13394 0.75135 0.00586 0.0
H1695 H 0.13663 0.68063 0.96995 0.0
H1696 H 0.11447 0.66802 0.96074 0.0
H1697 H 0.12329 0.66317 0.98584 0.0
H1698 H 0.08832 0.67315 7e-05 0.0
H1699 H 0.07944 0.67815 0.97496 0.0
H1700 H 0.07786 0.69742 0.99399 0.0
H1701 H 0.1226 0.75817 0.96932 0.0
H1702 H 0.11168 0.75672 0.93359 0.0
H1703 H 0.0949 0.69416 0.94171 0.0
C1704 C 0.12471 0.69449 0.01762 0.0
C1705 C 0.13451 0.70671 0.03188 0.0
C1706 C 0.13747 0.7274 0.02771 0.0
C1707 C 0.13124 0.73566 0.00924 0.0
C1708 C 0.12175 0.72306 0.99536 0.0
C1709 C 0.11834 0.70295 -0.00048 0.0
C1710 C 0.10827 0.69235 0.98218 0.0
C1711 C 0.12146 0.67503 0.97421 0.0
C1712 C 0.08722 0.68483 0.98816 0.0
C1713 C 0.107 0.70943 0.96729 0.0
C1714 C 0.11474 0.7271 0.97502 0.0
C1715 C 0.11623 0.74447 0.96326 0.0
C1716 C 0.10995 0.74355 0.94302 0.0
C1717 C 0.10234 0.72538 0.93489 0.0
C1718 C 0.1005 0.70836 0.94743 0.0
H1719 H 0.29291 0.10015 0.91262 0.0
H1720 H 0.23198 0.0778 0.90574 0.0
H1721 H 0.2251 0.08634 0.9415 0.0
H1722 H 0.3011 0.0843 0.96423 0.0
H1723 H 0.31518 0.10671 0.97016 0.0
H1724 H 0.31543 0.09683 0.94492 0.0
H1725 H 0.30331 0.13136 0.93136 0.0
H1726 H 0.30283 0.1413 0.95653 0.0
H1727 H 0.28049 0.14226 0.94119 0.0
H1728 H 0.22512 0.09906 0.9783 0.0
H1729 H 0.23161 0.11552 0.01128 0.0
H1730 H 0.29193 0.13047 0.99181 0.0
C1731 C 0.27816 0.0967 0.9186 0.0
C1732 C 0.26301 0.08818 0.90643 0.0
C1733 C 0.24386 0.08418 0.91487 0.0
C1734 C 0.23984 0.089 0.93514 0.0
C1735 C 0.25513 0.09781 0.94658 0.0
C1736 C 0.27389 0.10158 0.93849 0.0
C1737 C 0.2875 0.11229 0.95317 0.0
C1738 C 0.30588 0.09925 0.95843 0.0
C1739 C 0.29389 0.13303 0.94507 0.0
C1740 C 0.27345 0.11428 0.97084 0.0
C1741 C 0.25491 0.10565 0.96701 0.0
C1742 C 0.2396 0.10583 0.98139 0.0
C1743 C 0.24339 0.11515 3e-05 0.0
C1744 C 0.26218 0.12441 0.00389 0.0
C1745 C 0.27732 0.1238 0.9891 0.0
H1746 H 0.87387 0.32752 0.01075 0.0
H1747 H 0.85837 0.26562 0.02421 0.0
H1748 H 0.87018 0.25527 0.99046 0.0
H1749 H 0.85757 0.32731 0.96044 0.0
H1750 H 0.87759 0.34326 0.95149 0.0
H1751 H 0.86927 0.34519 0.97716 0.0
H1752 H 0.90579 0.33884 0.98937 0.0
H1753 H 0.91417 0.33666 0.96367 0.0
H1754 H 0.91892 0.31654 0.98121 0.0
H1755 H 0.88117 0.25232 0.95412 0.0
H1756 H 0.88958 0.25729 0.91818 0.0
H1757 H 0.89873 0.32098 0.92948 0.0
C1758 C 0.87297 0.3118 0.00659 0.0
C1759 C 0.86522 0.29737 0.02003 0.0
C1760 C 0.86447 0.27687 0.01415 0.0
C1761 C 0.87114 0.27087 0.99505 0.0
C1762 C 0.87872 0.28552 0.98214 0.0
C1763 C 0.87971 0.30555 0.98771 0.0
C1764 C 0.88766 0.3185 0.97083 0.0
C1765 C 0.87209 0.33449 0.96461 0.0
C1766 C 0.90784 0.3282 0.97662 0.0
C1767 C 0.89041 0.30273 0.95468 0.0
C1768 C 0.88537 0.28375 0.96147 0.0
C1769 C 0.88545 0.26706 0.94871 0.0
C1770 C 0.8903 0.27 0.92835 0.0
C1771 C 0.8949 0.28949 0.92108 0.0
C1772 C 0.89547 0.30585 0.9346 0.0
H1773 H 0.68496 0.87829 0.01044 0.0
H1774 H 0.74473 0.89786 0.02831 0.0
H1775 H 0.75159 0.90804 0.99335 0.0
H1776 H 0.69811 0.85795 0.96384 0.0
H1777 H 0.67553 0.8662 0.9513 0.0
H1778 H 0.67517 0.86133 0.97791 0.0
H1779 H 0.66189 0.89744 0.98452 0.0
H1780 H 0.66216 0.90242 0.95788 0.0
H1781 H 0.67567 0.91871 0.97485 0.0
H1782 H 0.75245 0.91422 0.95529 0.0
H1783 H 0.74666 0.91636 0.91847 0.0
H1784 H 0.68592 0.89409 0.92705 0.0
C1785 C 0.6994 0.88504 0.00735 0.0
C1786 C 0.71423 0.88716 0.02246 0.0
C1787 C 0.73306 0.89578 0.01719 0.0
C1788 C 0.73711 0.90176 0.9973 0.0
C1789 C 0.72214 0.89923 0.98284 0.0
C1790 C 0.70361 0.89121 0.98773 0.0
C1791 C 0.69015 0.88951 0.9695 0.0
C1792 C 0.68441 0.86744 0.9654 0.0
C1793 C 0.67136 0.90282 0.97183 0.0
C1794 C 0.70406 0.89758 0.95347 0.0
C1795 C 0.72247 0.90315 0.96134 0.0
C1796 C 0.738 0.91012 0.94903 0.0
C1797 C 0.73459 0.91128 0.92816 0.0
C1798 C 0.71581 0.90554 0.9199 0.0
C1799 C 0.70038 0.89884 0.93286 0.0
H1800 H 0.0796 0.11527 0.26878 0.0
H1801 H 0.06772 0.05219 0.27992 0.0
H1802 H 0.0311 0.05869 0.27745 0.0
H1803 H 0.04303 0.13204 0.30111 0.0
H1804 H 0.03594 0.154 0.28687 0.0
H1805 H 0.06093 0.14393 0.28458 0.0
H1806 H 0.05659 0.14065 0.24607 0.0
H1807 H 0.03161 0.151 0.2481 0.0
H1808 H 0.03539 0.12696 0.23609 0.0
H1809 H 0.99617 0.07256 0.27715 0.0
H1810 H 0.96526 0.09292 0.28101 0.0
H1811 H 9e-05 0.14756 0.27412 0.0
C1812 C 0.06927 0.10274 0.26986 0.0
C1813 C 0.07629 0.08313 0.27394 0.0
C1814 C 0.06246 0.06719 0.2763 0.0
C1815 C 0.04171 0.07078 0.27494 0.0
C1816 C 0.03518 0.09046 0.27167 0.0
C1817 C 0.04855 0.10621 0.26926 0.0
C1818 C 0.03778 0.12632 0.269 0.0
C1819 C 0.04484 0.13986 0.28643 0.0
C1820 C 0.0405 0.13685 0.2486 0.0
C1821 C 0.01629 0.11945 0.27203 0.0
C1822 C 0.01509 0.09869 0.27305 0.0
C1823 C 0.9969 0.0888 0.27622 0.0
C1824 C 0.97948 0.10044 0.27841 0.0
C1825 C 0.98045 0.1217 0.27789 0.0
C1826 C -0.00092 0.13131 0.27466 0.0
H1827 H 0.8879 0.98882 0.31711 0.0
H1828 H 0.88653 0.96995 0.25467 0.0
H1829 H 0.89657 0.00428 0.24422 0.0
H1830 H 0.86548 0.03531 0.30987 0.0
H1831 H 0.88025 0.0483 0.32855 0.0
H1832 H 0.87572 0.02175 0.33101 0.0
H1833 H 0.91413 0.01517 0.33271 0.0
H1834 H 0.9188 0.04178 0.3303 0.0
H1835 H 0.93016 0.02437 0.31286 0.0
H1836 H 0.90327 0.04183 0.2407 0.0
H1837 H 0.90606 0.07881 0.24446 0.0
H1838 H 0.90239 0.07232 0.30932 0.0
C1839 C 0.88987 0.99181 0.30124 0.0
C1840 C 0.88639 0.97673 0.2867 0.0
C1841 C 0.88935 0.98123 0.26608 0.0
C1842 C 0.89499 0.00069 0.26002 0.0
C1843 C 0.89779 0.01535 0.27479 0.0
C1844 C 0.89546 0.01104 0.29499 0.0
C1845 C 0.89795 0.02959 0.3079 0.0
C1846 C 0.8787 0.03399 0.32003 0.0
C1847 C 0.91636 0.0276 0.32175 0.0
C1848 C 0.9014 0.04522 0.29179 0.0
C1849 C 0.90154 0.03676 0.27278 0.0
C1850 C 0.90345 0.04856 0.25553 0.0
C1851 C 0.90502 0.06953 0.2578 0.0
C1852 C 0.90446 0.07842 0.27718 0.0
C1853 C 0.90295 0.06599 0.29431 0.0
H1854 H 0.02176 0.85547 0.31911 0.0
H1855 H 0.04274 0.88857 0.26702 0.0
H1856 H 0.00846 0.90204 0.26173 0.0
H1857 H 0.97447 0.84131 0.29949 0.0
H1858 H 0.96114 0.84431 0.32292 0.0
H1859 H 0.9875 0.83814 0.32307 0.0
H1860 H 0.99482 0.8694 0.34525 0.0
H1861 H 0.96844 0.87563 0.34523 0.0
H1862 H 0.98667 0.8939 0.33691 0.0
H1863 H 0.97106 0.90952 0.26059 0.0
H1864 H 0.93418 0.91242 0.26533 0.0
H1865 H 0.93841 0.87561 0.31905 0.0
C1866 C 0.01912 0.86566 0.30668 0.0
C1867 C 0.03484 0.87101 0.29349 0.0
C1868 C 0.03092 0.88448 0.27745 0.0
C1869 C 0.01149 0.89211 0.27426 0.0
C1870 C 0.99624 0.88632 0.28743 0.0
C1871 C -8e-05 0.8736 0.30347 0.0
C1872 C 0.98095 0.86955 0.31535 0.0
C1873 C 0.97571 0.84699 0.31519 0.0
C1874 C 0.98284 0.87761 0.33696 0.0
C1875 C 0.96595 0.88166 0.30328 0.0
C1876 C 0.97499 0.89118 0.28717 0.0
C1877 C 0.96387 0.90236 0.27332 0.0
C1878 C 0.94296 0.90388 0.27607 0.0
C1879 C 0.93352 0.89442 0.29265 0.0
C1880 C 0.94525 0.8833 0.30642 0.0
H1881 H 0.14573 0.91803 0.27655 0.0
H1882 H 0.08533 0.91932 0.25244 0.0
H1883 H 0.08973 0.95541 0.24367 0.0
H1884 H 0.14284 0.96018 0.30203 0.0
H1885 H 0.16821 0.96895 0.29819 0.0
H1886 H 0.1628 0.94256 0.29674 0.0
H1887 H 0.17772 0.94085 0.26085 0.0
H1888 H 0.18366 0.9673 0.2622 0.0
H1889 H 0.16871 0.95778 0.24168 0.0
H1890 H 0.09813 0.99243 0.24488 0.0
H1891 H 0.10939 0.02623 0.25558 0.0
H1892 H 0.164 0.00043 0.27991 0.0
C1893 C 0.13379 0.92576 0.26858 0.0
C1894 C 0.11531 0.91612 0.26489 0.0
C1895 C 0.09974 0.92652 0.25492 0.0
C1896 C 0.10214 0.94698 0.24997 0.0
C1897 C 0.12028 0.95647 0.25491 0.0
C1898 C 0.13597 0.94601 0.2637 0.0
C1899 C 0.15266 0.95991 0.27046 0.0
C1900 C 0.15684 0.95777 0.29319 0.0
C1901 C 0.17182 0.95625 0.25805 0.0
C1902 C 0.14335 0.98002 0.26552 0.0
C1903 C 0.12497 0.9778 0.25599 0.0
C1904 C 0.11273 0.99433 0.25183 0.0
C1905 C 0.11924 0.01348 0.25796 0.0
C1906 C 0.13761 0.01586 0.26848 0.0
C1907 C 0.14997 -0.00103 0.27179 0.0
H1908 H 0.00232 0.83974 0.71871 0.0
H1909 H 0.96687 0.89414 0.71335 0.0
H1910 H 0.99755 0.91475 0.71753 0.0
H1911 H 0.03798 0.86037 0.75704 0.0
H1912 H 0.05905 0.84684 0.74662 0.0
H1913 H 0.03407 0.8364 0.74494 0.0
H1914 H 0.0377 0.8336 0.70619 0.0
H1915 H 0.06266 0.84388 0.7078 0.0
H1916 H 0.04419 0.85569 0.69184 0.0
H1917 H 0.03228 0.92897 0.71694 0.0
H1918 H 0.06883 0.93588 0.71405 0.0
H1919 H 0.08159 0.8727 0.72344 0.0
C1920 C 0.00114 0.85599 0.71872 0.0
C1921 C 0.98242 0.86548 0.71575 0.0
C1922 C 0.98117 0.88673 0.71581 0.0
C1923 C 0.99846 0.8985 0.71818 0.0
C1924 C 0.01678 0.88873 0.72098 0.0
C1925 C 0.01821 0.86797 0.72161 0.0
C1926 C 0.03983 0.86126 0.7241 0.0
C1927 C 0.04291 0.85059 0.74438 0.0
C1928 C 0.04648 0.84783 0.70643 0.0
C1929 C 0.05038 0.88145 0.72375 0.0
C1930 C 0.0368 0.89713 0.72201 0.0
C1931 C 0.04306 0.91694 0.71897 0.0
C1932 C 0.06374 0.92075 0.71736 0.0
C1933 C 0.07772 0.90489 0.71921 0.0
C1934 C 0.07103 0.88512 0.72283 0.0
H1935 H 0.0802 0.06354 0.69161 0.0
H1936 H 0.10321 0.08454 0.74895 0.0
H1937 H 0.11334 0.04971 0.75746 0.0
H1938 H 0.06384 0.01215 0.70803 0.0
H1939 H 0.07219 0.00135 0.68459 0.0
H1940 H 0.06284 0.02681 0.68524 0.0
H1941 H 0.09598 0.03922 0.66886 0.0
H1942 H 0.10557 0.01396 0.66841 0.0
H1943 H 0.11965 0.03354 0.68082 0.0
H1944 H 0.12511 0.01312 0.75741 0.0
H1945 H 0.138 0.97916 0.74826 0.0
H1946 H 0.10885 0.98375 0.69027 0.0
C1947 C 0.08674 0.06075 0.70627 0.0
C1948 C 0.09074 0.07669 0.71969 0.0
C1949 C 0.09969 0.07247 0.73857 0.0
C1950 C 0.10553 0.05274 0.74351 0.0
C1951 C 0.10216 0.03747 0.72946 0.0
C1952 C 0.0928 0.04132 0.71128 0.0
C1953 C 0.09315 0.02316 0.6976 0.0
C1954 C 0.07173 0.01541 0.69364 0.0
C1955 C 0.10426 0.02775 0.67777 0.0
C1956 C 0.10488 0.00868 0.71053 0.0
C1957 C 0.10957 0.01691 0.72906 0.0
C1958 C 0.12127 0.00647 0.74305 0.0
C1959 C 0.12852 0.98728 0.73779 0.0
C1960 C 0.12442 0.97912 0.71858 0.0
C1961 C 0.1122 0.98982 0.70502 0.0
H1962 H 0.01904 0.11847 0.6996 0.0
H1963 H 0.01734 0.15782 0.75157 0.0
H1964 H 0.98455 0.1432 0.76156 0.0
H1965 H 0.96742 0.12235 0.68769 0.0
H1966 H 0.96521 0.0966 0.67944 0.0
H1967 H 0.98898 0.10936 0.67758 0.0
H1968 H 0.00566 0.0809 0.69845 0.0
H1969 H 0.9818 0.06824 0.70067 0.0
H1970 H 0.99579 0.07478 0.72296 0.0
H1971 H 0.95154 0.12457 0.76527 0.0
H1972 H 0.91912 0.10713 0.7598 0.0
H1973 H 0.94269 0.08061 0.70503 0.0
C1974 C 0.01182 0.12386 0.71317 0.0
C1975 C 0.02066 0.13917 0.72487 0.0
C1976 C 0.01065 0.1462 0.74233 0.0
C1977 C 0.9922 0.13781 0.74823 0.0
C1978 C 0.98401 0.12249 0.73646 0.0
C1979 C 0.9934 0.11579 0.71915 0.0
C1980 C 0.98086 0.10029 0.70826 0.0
C1981 C 0.97528 0.1076 0.687 0.0
C1982 C 0.99168 0.07984 0.70755 0.0
C1983 C 0.96272 0.09956 0.72192 0.0
C1984 C 0.96495 0.11213 0.73835 0.0
C1985 C 0.9497 0.11455 0.75256 0.0
C1986 C 0.93141 0.10447 0.74943 0.0
C1987 C 0.92855 0.09247 0.73206 0.0
C1988 C 0.94461 0.08955 0.71853 0.0
H1989 H 0.86297 0.99212 0.74288 0.0
H1990 H 0.90194 0.01967 0.69834 0.0
H1991 H 0.9194 0.98729 0.69361 0.0
H1992 H 0.90082 0.95792 0.76441 0.0
H1993 H 0.883 0.93776 0.76775 0.0
H1994 H 0.87471 0.96356 0.76911 0.0
H1995 H 0.84826 0.95666 0.74131 0.0
H1996 H 0.85636 0.93087 0.74003 0.0
H1997 H 0.8563 0.94615 0.71762 0.0
H1998 H 0.93009 0.95163 0.69096 0.0
H1999 H 0.93321 0.91459 0.69043 0.0
H2000 H 0.88816 0.91001 0.73736 0.0
C2001 C 0.87521 0.99137 0.73218 0.0
C2002 C 0.88113 0.00847 0.72101 0.0
C2003 C 0.89734 0.00687 0.70727 0.0
C2004 C 0.90733 0.98854 0.70447 0.0
C2005 C 0.90106 0.97198 0.71566 0.0
C2006 C 0.88541 0.97319 0.72928 0.0
C2007 C 0.88093 0.95286 0.73857 0.0
C2008 C 0.88512 0.95305 0.76131 0.0
C2009 C 0.85918 0.94625 0.7341 0.0
C2010 C 0.89607 0.93991 0.7275 0.0
C2011 C 0.90764 0.95131 0.71449 0.0
C2012 C 0.92143 0.94257 0.70135 0.0
C2013 C 0.92309 0.92159 0.70113 0.0
C2014 C 0.91116 0.90967 0.71408 0.0
C2015 C 0.89786 0.91893 0.72777 0.0
H2016 H 0.29823 0.06717 0.07184 0.0
H2017 H 0.23539 0.07592 0.08707 0.0
H2018 H 0.23223 0.03941 0.09412 0.0
H2019 H 0.29355 0.01596 0.04977 0.0
H2020 H 0.31726 0.00831 0.06047 0.0
H2021 H 0.31334 0.03417 0.05332 0.0
H2022 H 0.32284 0.0455 0.08941 0.0
H2023 H 0.32656 0.01975 0.09675 0.0
H2024 H 0.30919 0.03537 0.11055 0.0
H2025 H 0.23746 0.00247 0.10347 0.0
H2026 H 0.25052 0.96928 0.1144 0.0
H2027 H 0.31001 0.98592 0.09368 0.0
C2028 C 0.28362 0.0614 0.07615 0.0
C2029 C 0.26701 0.07436 0.07881 0.0
C2030 C 0.24825 0.0662 0.08472 0.0
C2031 C 0.24635 0.0455 0.08878 0.0
C2032 C 0.26331 0.03325 0.08669 0.0
C2033 C 0.28154 0.04096 0.08034 0.0
C2034 C 0.29804 0.02532 0.08112 0.0
C2035 C 0.30601 0.02066 0.0599 0.0
C2036 C 0.31515 0.03189 0.0953 0.0
C2037 C 0.28648 0.00772 0.08961 0.0
C2038 C 0.2664 0.01237 0.09241 0.0
C2039 C 0.2531 0.99863 0.10105 0.0
C2040 C 0.26061 0.97982 0.10718 0.0
C2041 C 0.28127 0.9751 0.10491 0.0
C2042 C 0.29419 0.98917 0.09571 0.0
H2043 H 0.29269 0.99095 0.83618 0.0
H2044 H 0.2586 0.01332 0.88703 0.0
H2045 H 0.25331 0.97826 0.89877 0.0
H2046 H 0.26331 0.94442 0.8284 0.0
H2047 H 0.28542 0.93024 0.82166 0.0
H2048 H 0.28408 0.95676 0.81611 0.0
H2049 H 0.31724 0.96278 0.83579 0.0
H2050 H 0.3188 0.93636 0.84127 0.0
H2051 H 0.31912 0.95441 0.86152 0.0
H2052 H 0.25501 0.94025 0.90649 0.0
H2053 H 0.26444 0.90411 0.90962 0.0
H2054 H 0.29766 0.90824 0.8537 0.0
C2055 C 0.28397 0.98849 0.8497 0.0
C2056 C 0.27616 0.0048 0.86078 0.0
C2057 C 0.26459 0.00097 0.87826 0.0
C2058 C 0.26152 0.98113 0.88501 0.0
C2059 C 0.26987 0.96536 0.87391 0.0
C2060 C 0.28073 0.96893 0.85651 0.0
C2061 C 0.28939 0.94981 0.84789 0.0
C2062 C 0.27999 0.94503 0.82729 0.0
C2063 C 0.3125 0.95092 0.84656 0.0
C2064 C 0.28259 0.93496 0.86363 0.0
C2065 C 0.27097 0.94396 0.87835 0.0
C2066 C 0.2639 0.93305 0.8949 0.0
C2067 C 0.26926 0.91259 0.89657 0.0
C2068 C 0.28184 0.90359 0.88196 0.0
C2069 C 0.2881 0.91484 0.86515 0.0
H2070 H 0.06119 0.30451 0.90002 0.0
H2071 H 0.0649 0.23955 0.90564 0.0
H2072 H 0.0292 0.23679 0.8952 0.0
H2073 H 0.00943 0.31029 0.91722 0.0
H2074 H 0.00434 0.33008 0.89939 0.0
H2075 H 0.02943 0.32669 0.90905 0.0
H2076 H 0.04297 0.32374 0.87259 0.0
H2077 H 0.01793 0.32688 0.86281 0.0
H2078 H 0.03249 0.30505 0.85595 0.0
H2079 H 0.99317 0.2415 0.88232 0.0
H2080 H 0.96061 0.25316 0.86836 0.0
H2081 H 0.98182 0.31479 0.8707 0.0
C2082 C 0.05448 0.28967 0.89941 0.0
C2083 C 0.06582 0.27224 0.90377 0.0
C2084 C 0.05645 0.25313 0.90252 0.0
C2085 C 0.03621 0.25143 0.89656 0.0
C2086 C 0.02562 0.26897 0.89192 0.0
C2087 C 0.03448 0.28772 0.89338 0.0
C2088 C 0.02038 0.30424 0.88666 0.0
C2089 C 0.01561 0.31867 0.90412 0.0
C2090 C 0.02896 0.31564 0.86842 0.0
C2091 C 0.00219 0.29191 0.8809 0.0
C2092 C 0.00535 0.27161 0.88418 0.0
C2093 C 0.99056 0.25737 0.87979 0.0
C2094 C 0.97212 0.26411 0.87191 0.0
C2095 C 0.96873 0.28486 0.86831 0.0
C2096 C 0.98404 0.29882 0.87295 0.0
H2097 H 0.70627 0.99722 0.83791 0.0
H2098 H 0.73475 0.97305 0.89134 0.0
H2099 H 0.74277 0.00767 0.90262 0.0
H2100 H 0.73997 0.04102 0.83108 0.0
H2101 H 0.71947 0.0568 0.82299 0.0
H2102 H 0.7189 0.03016 0.81791 0.0
H2103 H 0.68434 0.02745 0.83585 0.0
H2104 H 0.68481 0.054 0.84093 0.0
H2105 H 0.68187 0.0364 0.86134 0.0
H2106 H 0.74422 0.04573 0.90964 0.0
H2107 H 0.73778 0.08256 0.91189 0.0
H2108 H 0.70764 0.08046 0.85414 0.0
C2109 C 0.71439 -0.00085 0.85188 0.0
C2110 C 0.71983 0.98243 0.86374 0.0
C2111 C 0.73062 0.98563 0.88187 0.0
C2112 C 0.73521 0.00525 0.8884 0.0
C2113 C 0.72912 0.02146 0.87653 0.0
C2114 C 0.71904 0.0185 0.85856 0.0
C2115 C 0.71256 0.03817 0.84925 0.0
C2116 C 0.72338 0.04174 0.82912 0.0
C2117 C 0.68954 0.03905 0.84671 0.0
C2118 C 0.71978 0.05269 0.86515 0.0
C2119 C 0.72969 0.04296 0.88063 0.0
C2120 C 0.7367 0.05349 0.89746 0.0
C2121 C 0.73306 0.07436 0.89862 0.0
C2122 C 0.72219 0.08422 0.88321 0.0
C2123 C 0.71596 0.07326 0.86616 0.0
H2124 H 0.00193 0.74153 0.86359 0.0
H2125 H 0.036 0.73633 0.91914 0.0
H2126 H 0.00453 0.73572 0.93838 0.0
H2127 H 0.96129 0.77413 0.88497 0.0
H2128 H 0.94215 0.76205 0.87 0.0
H2129 H 0.96747 0.7641 0.86052 0.0
H2130 H 0.96868 0.7255 0.85529 0.0
H2131 H 0.94341 0.72345 0.86469 0.0
H2132 H 0.96333 0.70908 0.8762 0.0
H2133 H 0.96986 0.73047 0.9512 0.0
H2134 H 0.93385 0.72256 0.95658 0.0
H2135 H 0.92183 0.73456 0.89367 0.0
C2136 C 0.00286 0.74075 0.87981 0.0
C2137 C 0.02161 0.7387 0.88971 0.0
C2138 C 0.02196 0.73742 0.91102 0.0
C2139 C 0.00411 0.73733 0.92218 0.0
C2140 C 0.98595 0.73895 0.91194 0.0
C2141 C 0.98514 0.74092 0.89125 0.0
C2142 C 0.96355 0.74121 0.88388 0.0
C2143 C 0.95831 0.76159 0.87428 0.0
C2144 C 0.95952 0.72377 0.86916 0.0
C2145 C 0.95246 0.73828 0.9036 0.0
C2146 C 0.96568 0.73711 0.91962 0.0
C2147 C 0.95926 0.73198 0.93894 0.0
C2148 C 0.93886 0.72753 0.94188 0.0
C2149 C 0.92518 0.72862 0.92568 0.0
C2150 C 0.93196 0.73451 0.90644 0.0
H2151 H 0.70873 0.92527 0.13598 0.0
H2152 H 0.75054 0.92603 0.08586 0.0
H2153 H 0.75201 0.96327 0.08791 0.0
H2154 H 0.68049 0.96663 0.12172 0.0
H2155 H 0.67656 0.97604 0.14686 0.0
H2156 H 0.68061 0.94959 0.14281 0.0
H2157 H 0.71066 0.95012 0.16766 0.0
H2158 H 0.7066 0.97658 0.17195 0.0
H2159 H 0.7309 0.96774 0.16377 0.0
H2160 H 0.74594 0.00053 0.09352 0.0
H2161 H 0.73403 0.03441 0.10269 0.0
H2162 H 0.69678 0.00859 0.14971 0.0
C2163 C 0.71844 0.93321 0.12558 0.0
C2164 C 0.7295 0.92284 0.11072 0.0
C2165 C 0.74204 0.93374 0.09742 0.0
C2166 C 0.74293 0.95486 0.09848 0.0
C2167 C 0.73139 0.96465 0.11307 0.0
C2168 C 0.71957 0.95411 0.12651 0.0
C2169 C 0.70784 0.96804 0.14015 0.0
C2170 C 0.68503 0.96488 0.13772 0.0
C2171 C 0.7144 0.96547 0.16219 0.0
C2172 C 0.71438 0.98816 0.13189 0.0
C2173 C 0.72809 0.98594 0.11641 0.0
C2174 C 0.73548 0.00244 0.10586 0.0
C2175 C 0.72865 0.02167 0.11126 0.0
C2176 C 0.71451 0.02426 0.12706 0.0
C2177 C 0.70749 0.00719 0.13753 0.0
H2178 H 0.06512 0.68309 0.10754 0.0
H2179 H 0.09545 0.74049 0.11496 0.0
H2180 H 0.06343 0.75601 0.12554 0.0
H2181 H 0.01731 0.7036 0.08874 0.0
H2182 H 0.00258 0.68505 0.10194 0.0
H2183 H 0.02759 0.67894 0.09347 0.0
H2184 H 0.03729 0.66888 0.12987 0.0
H2185 H 0.01243 0.67525 0.13851 0.0
H2186 H 0.0341 0.68685 0.14995 0.0
H2187 H 0.02887 0.76455 0.13795 0.0
H2188 H 0.99332 0.76634 0.14842 0.0
H2189 H 0.98547 0.70346 0.13276 0.0
C2190 C 0.06496 0.69901 0.11101 0.0
C2191 C 0.08275 0.71059 0.11036 0.0
C2192 C 0.08196 0.73136 0.11517 0.0
C2193 C 0.06386 0.74029 0.12129 0.0
C2194 C 0.04672 0.7283 0.12232 0.0
C2195 C 0.04703 0.70818 0.11703 0.0
C2196 C 0.02663 0.6985 0.11999 0.0
C2197 C 0.01802 0.69109 0.09983 0.0
C2198 C 0.02769 0.68136 0.1355 0.0
C2199 C 0.01487 0.71625 0.12804 0.0
C2200 C 0.02674 0.73326 0.12932 0.0
C2201 C 0.01938 0.75136 0.13688 0.0
C2202 C -0.00077 0.75217 0.143 0.0
C2203 C 0.98668 0.73499 0.14147 0.0
C2204 C 0.9947 0.71682 0.13395 0.0
H2205 H 0.99456 0.28599 0.15469 0.0
H2206 H 0.02816 0.3016 0.1011 0.0
H2207 H 0.99686 0.30059 0.08103 0.0
H2208 H 0.95871 0.25131 0.12882 0.0
H2209 H 0.938 0.25886 0.14463 0.0
H2210 H 0.9633 0.25913 0.15438 0.0
H2211 H 0.9592 0.29671 0.16403 0.0
H2212 H 0.93395 0.29646 0.15434 0.0
H2213 H 0.95183 0.31459 0.14501 0.0
H2214 H 0.96166 0.30298 0.06816 0.0
H2215 H 0.92484 0.30581 0.06278 0.0
H2216 H 0.91432 0.2853 0.1237 0.0
C2217 C 0.99524 0.28892 0.13868 0.0
C2218 C 0.01361 0.2939 0.12933 0.0
C2219 C 0.01416 0.29761 0.10838 0.0
C2220 C 0.9965 0.29706 0.09692 0.0
C2221 C 0.97854 0.29229 0.10658 0.0
C2222 C 0.9778 0.28792 0.12692 0.0
C2223 C 0.95645 0.28389 0.13373 0.0
C2224 C 0.95397 0.26199 0.1408 0.0
C2225 C 0.94999 0.29881 0.15024 0.0
C2226 C 0.94525 0.28757 0.11425 0.0
C2227 C 0.95827 0.29238 0.09875 0.0
C2228 C 0.95131 0.29864 0.07996 0.0
C2229 C 0.93049 0.30022 0.07701 0.0
C2230 C 0.91707 0.29519 0.09265 0.0
C2231 C 0.92447 0.28848 0.11134 0.0
H2232 H 0.58544 0.8074 0.56083 0.0
H2233 H 0.59114 0.74381 0.57446 0.0
H2234 H 0.60102 0.73727 0.5391 0.0
H2235 H 0.56796 0.80251 0.50817 0.0
H2236 H 0.58265 0.82392 0.50039 0.0
H2237 H 0.57273 0.82275 0.52559 0.0
H2238 H 0.60868 0.82779 0.53982 0.0
H2239 H 0.61877 0.82867 0.51475 0.0
H2240 H 0.62838 0.81061 0.53255 0.0
H2241 H 0.61344 0.73852 0.50263 0.0
H2242 H 0.62783 0.74762 0.46934 0.0
H2243 H 0.61558 0.81048 0.48138 0.0
C2244 C 0.58817 0.79198 0.55633 0.0
C2245 C 0.58732 0.77608 0.57038 0.0
C2246 C 0.59147 0.7562 0.56388 0.0
C2247 C 0.59712 0.75235 0.54384 0.0
C2248 C 0.59854 0.76856 0.53056 0.0
C2249 C 0.59407 0.78797 0.5366 0.0
C2250 C 0.59865 0.80311 0.52028 0.0
C2251 C 0.57934 0.81369 0.51319 0.0
C2252 C 0.61457 0.81843 0.52728 0.0
C2253 C 0.60689 0.78932 0.50422 0.0
C2254 C 0.6064 0.76939 0.51017 0.0
C2255 C 0.61374 0.75407 0.49781 0.0
C2256 C 0.62187 0.75932 0.47899 0.0
C2257 C 0.62294 0.77973 0.47299 0.0
C2258 C 0.61517 0.79479 0.48574 0.0
H2259 H 0.20205 0.61409 0.51353 0.0
H2260 H 0.26014 0.64327 0.51176 0.0
H2261 H 0.26907 0.62746 0.5445 0.0
H2262 H 0.19245 0.62068 0.56371 0.0
H2263 H 0.18031 0.59672 0.56745 0.0
H2264 H 0.1801 0.60821 0.54301 0.0
H2265 H 0.1962 0.57608 0.52771 0.0
H2266 H 0.19654 0.5645 0.55223 0.0
H2267 H 0.21947 0.56661 0.53793 0.0
H2268 H 0.26893 0.61242 0.58 0.0
H2269 H 0.26016 0.59918 0.61373 0.0
H2270 H 0.20294 0.57835 0.59039 0.0
C2271 C 0.21678 0.6168 0.51992 0.0
C2272 C 0.23043 0.62986 0.51037 0.0
C2273 C 0.24961 0.63315 0.51896 0.0
C2274 C 0.25475 0.62423 0.53746 0.0
C2275 C 0.24068 0.6117 0.54679 0.0
C2276 C 0.22221 0.60776 0.53805 0.0
C2277 C 0.20915 0.59492 0.55145 0.0
C2278 C 0.18935 0.60579 0.55672 0.0
C2279 C 0.20511 0.5743 0.54175 0.0
C2280 C 0.22271 0.59297 0.56957 0.0
C2281 C 0.24094 0.60253 0.56665 0.0
C2282 C 0.25493 0.60442 0.58223 0.0
C2283 C 0.24987 0.59678 0.60133 0.0
C2284 C 0.23096 0.58754 0.60461 0.0
C2285 C 0.21763 0.58507 0.5883 0.0
H2286 H 0.34997 0.24176 0.50671 0.0
H2287 H 0.4032 0.22499 0.47305 0.0
H2288 H 0.42405 0.23027 0.50331 0.0
H2289 H 0.37625 0.28014 0.5396 0.0
H2290 H 0.36195 0.27357 0.56162 0.0
H2291 H 0.35051 0.27199 0.53701 0.0
H2292 H 0.3414 0.23472 0.54208 0.0
H2293 H 0.35148 0.23591 0.56709 0.0
H2294 H 0.36063 0.21717 0.54975 0.0
H2295 H 0.43748 0.22979 0.53813 0.0
H2296 H 0.44253 0.22519 0.57473 0.0
H2297 H 0.38161 0.24516 0.58583 0.0
C2298 C 0.36608 0.23971 0.50568 0.0
C2299 C 0.37503 0.23303 0.48761 0.0
C2300 C 0.39613 0.23039 0.4867 0.0
C2301 C 0.40808 0.23337 0.5038 0.0
C2302 C 0.39875 0.23947 0.52156 0.0
C2303 C 0.37826 0.24298 0.52253 0.0
C2304 C 0.37172 0.24772 0.54384 0.0
C2305 C 0.36466 0.26966 0.54559 0.0
C2306 C 0.35536 0.233 0.5511 0.0
C2307 C 0.39137 0.24468 0.55491 0.0
C2308 C 0.4069 0.24031 0.54174 0.0
C2309 C 0.4257 0.23398 0.54857 0.0
C2310 C 0.42849 0.23144 0.56932 0.0
C2311 C 0.41267 0.23556 0.58288 0.0
C2312 C 0.39416 0.2429 0.57568 0.0
H2313 H 0.80249 0.37763 0.5644 0.0
H2314 H 0.75102 0.41776 0.56602 0.0
H2315 H 0.74722 0.4141 0.52907 0.0
H2316 H 0.82337 0.39457 0.51829 0.0
H2317 H 0.83108 0.36984 0.51022 0.0
H2318 H 0.82942 0.37555 0.53665 0.0
H2319 H 0.80515 0.34544 0.54174 0.0
H2320 H 0.80676 0.3396 0.51533 0.0
H2321 H 0.78257 0.34385 0.52681 0.0
H2322 H 0.7503 0.40695 0.49164 0.0
H2323 H 0.75884 0.39617 0.45733 0.0
H2324 H 0.80726 0.35921 0.48115 0.0
C2325 C 0.79041 0.3857 0.55702 0.0
C2326 C 0.7771 0.39809 0.568 0.0
C2327 C 0.76135 0.40818 0.55783 0.0
C2328 C 0.75912 0.4062 0.53689 0.0
C2329 C 0.77261 0.3939 0.5265 0.0
C2330 C 0.78783 0.38369 0.53629 0.0
C2331 C 0.80026 0.37126 0.52183 0.0
C2332 C 0.82233 0.37823 0.52175 0.0
C2333 C 0.79857 0.3487 0.52672 0.0
C2334 C 0.78989 0.37629 0.50225 0.0
C2335 C 0.774 0.38936 0.5052 0.0
C2336 C 0.76258 0.39653 0.48919 0.0
C2337 C 0.76754 0.39017 0.46967 0.0
C2338 C 0.78375 0.37664 0.46625 0.0
C2339 C 0.7949 0.36963 0.48295 0.0
H2340 H 0.62505 0.16946 0.51794 0.0
H2341 H 0.6291 0.2327 0.53394 0.0
H2342 H 0.61651 0.24197 0.50037 0.0
H2343 H 0.64293 0.17518 0.46802 0.0
H2344 H 0.62659 0.15617 0.45767 0.0
H2345 H 0.63446 0.1546 0.48352 0.0
H2346 H 0.59714 0.15325 0.49479 0.0
H2347 H 0.58915 0.15498 0.46894 0.0
H2348 H 0.58016 0.17297 0.48715 0.0
H2349 H 0.60483 0.24443 0.4643 0.0
H2350 H 0.59675 0.23968 0.42825 0.0
H2351 H 0.60116 0.17497 0.43601 0.0
C2352 C 0.62334 0.18526 0.51445 0.0
C2353 C 0.62793 0.20029 0.52876 0.0
C2354 C 0.62532 0.22082 0.52347 0.0
C2355 C 0.61823 0.22628 0.50437 0.0
C2356 C 0.61382 0.21106 0.49068 0.0
C2357 C 0.61635 0.19097 0.49546 0.0
C2358 C 0.61146 0.17755 0.47775 0.0
C2359 C 0.62996 0.16516 0.47137 0.0
C2360 C 0.5934 0.16388 0.48244 0.0
C2361 C 0.60613 0.19323 0.46216 0.0
C2362 C 0.60735 0.21248 0.46992 0.0
C2363 C 0.60369 0.22942 0.45809 0.0
C2364 C 0.59906 0.22659 0.43766 0.0
C2365 C 0.5983 0.20698 0.42935 0.0
C2366 C 0.60156 0.19016 0.44192 0.0
H2367 H 0.80603 0.59966 0.41761 0.0
H2368 H 0.75389 0.62748 0.39 0.0
H2369 H 0.74395 0.64159 0.42301 0.0
H2370 H 0.78123 0.58715 0.46594 0.0
H2371 H 0.80377 0.5922 0.48013 0.0
H2372 H 0.80555 0.58302 0.45468 0.0
H2373 H 0.82783 0.61366 0.44539 0.0
H2374 H 0.82586 0.62311 0.47069 0.0
H2375 H 0.81848 0.63875 0.44981 0.0
H2376 H 0.74221 0.65588 0.45833 0.0
H2377 H 0.74639 0.6657 0.49408 0.0
H2378 H 0.79883 0.62725 0.49846 0.0
C2379 C 0.79226 0.60832 0.41864 0.0
C2380 C 0.78064 0.61242 0.40139 0.0
C2381 C 0.76281 0.62393 0.40317 0.0
C2382 C 0.75714 0.63211 0.42181 0.0
C2383 C 0.76928 0.62826 0.43848 0.0
C2384 C 0.78623 0.61627 0.43713 0.0
C2385 C 0.797 0.61477 0.45711 0.0
C2386 C 0.79687 0.59299 0.46493 0.0
C2387 C 0.81856 0.62307 0.45565 0.0
C2388 C 0.78379 0.62822 0.46982 0.0
C2389 C 0.76792 0.63596 0.45882 0.0
C2390 C 0.75439 0.64966 0.46716 0.0
C2391 C 0.75697 0.6553 0.48736 0.0
C2392 C 0.77286 0.64711 0.49894 0.0
C2393 C 0.7864 0.63345 0.48998 0.0
H2394 H 0.35854 0.76179 0.50132 0.0
H2395 H 0.39964 0.79719 0.53763 0.0
H2396 H 0.42036 0.80386 0.50753 0.0
H2397 H 0.39585 0.7403 0.46653 0.0
H2398 H 0.37922 0.74248 0.4452 0.0
H2399 H 0.369 0.73851 0.46999 0.0
H2400 H 0.347 0.77054 0.46631 0.0
H2401 H 0.35694 0.77423 0.44143 0.0
H2402 H 0.35875 0.79408 0.45981 0.0
H2403 H 0.43363 0.81067 0.47293 0.0
H2404 H 0.43839 0.81687 0.43653 0.0
H2405 H 0.38965 0.77568 0.42317 0.0
C2406 C 0.37197 0.77082 0.503 0.0
C2407 C 0.37748 0.77896 0.52184 0.0
C2408 C 0.39527 0.7906 0.5234 0.0
C2409 C 0.40713 0.79445 0.50639 0.0
C2410 C 0.40113 0.78635 0.488 0.0
C2411 C 0.384 0.77469 0.48624 0.0
C2412 C 0.37989 0.76912 0.46456 0.0
C2413 C 0.38108 0.74624 0.4614 0.0
C2414 C 0.35944 0.7775 0.45762 0.0
C2415 C 0.39715 0.77982 0.45433 0.0
C2416 C 0.40927 0.78966 0.46809 0.0
C2417 C 0.42461 0.80261 0.46203 0.0
C2418 C 0.42722 0.80604 0.44138 0.0
C2419 C 0.4147 0.79638 0.42716 0.0
C2420 C 0.39993 0.78265 0.43372 0.0
H2421 H 0.2028 0.39323 0.52101 0.0
H2422 H 0.24664 0.34564 0.51323 0.0
H2423 H 0.25532 0.35905 0.47958 0.0
H2424 H 0.18431 0.39149 0.47169 0.0
H2425 H 0.18004 0.4182 0.46974 0.0
H2426 H 0.17931 0.40619 0.49394 0.0
H2427 H 0.20647 0.43101 0.50695 0.0
H2428 H 0.20746 0.44293 0.48261 0.0
H2429 H 0.23009 0.43304 0.4938 0.0
H2430 H 0.25791 0.37673 0.44614 0.0
H2431 H 0.25085 0.39416 0.41404 0.0
H2432 H 0.20433 0.42924 0.44339 0.0
C2433 C 0.21444 0.38588 0.51229 0.0
C2434 C 0.22415 0.36853 0.51963 0.0
C2435 C 0.23898 0.35892 0.50773 0.0
C2436 C 0.24416 0.36656 0.48875 0.0
C2437 C 0.23429 0.38376 0.48192 0.0
C2438 C 0.21956 0.39315 0.49325 0.0
C2439 C 0.20971 0.41008 0.4817 0.0
C2440 C 0.18701 0.40625 0.47911 0.0
C2441 C 0.21368 0.43047 0.49188 0.0
C2442 C 0.22081 0.40844 0.4619 0.0
C2443 C 0.23531 0.39353 0.46247 0.0
C2444 C 0.24678 0.38861 0.44559 0.0
C2445 C 0.24279 0.39869 0.42747 0.0
C2446 C 0.22718 0.41314 0.42639 0.0
C2447 C 0.21651 0.41843 0.44394 0.0
H2448 H 0.49882 0.61171 0.7772 0.0
H2449 H 0.49746 0.6221 0.71287 0.0
H2450 H 0.53334 0.61244 0.71051 0.0
H2451 H 0.5462 0.63282 0.78532 0.0
H2452 H 0.55365 0.61521 0.80455 0.0
H2453 H 0.52744 0.62068 0.80068 0.0
H2454 H 0.52017 0.58269 0.79551 0.0
H2455 H 0.54641 0.5771 0.79937 0.0
H2456 H 0.53401 0.56886 0.77671 0.0
H2457 H 0.57003 0.60348 0.71567 0.0
H2458 H 0.60469 0.59796 0.72828 0.0
H2459 H 0.58166 0.59437 0.78924 0.0
C2460 C 0.50596 0.61148 0.76257 0.0
C2461 C 0.49539 0.6175 0.7452 0.0
C2462 C 0.50537 0.6176 0.72636 0.0
C2463 C 0.52567 0.612 0.72487 0.0
C2464 C 0.53576 0.6064 0.74236 0.0
C2465 C 0.52623 0.60615 0.76086 0.0
C2466 C 0.54076 0.60116 0.77762 0.0
C2467 C 0.54209 0.6185 0.79293 0.0
C2468 C 0.53499 0.58126 0.7879 0.0
C2469 C 0.56004 0.59902 0.76573 0.0
C2470 C 0.55686 0.60176 0.74538 0.0
C2471 C 0.57266 0.60113 0.73156 0.0
C2472 C 0.59226 0.59795 0.73882 0.0
C2473 C 0.5958 0.59574 0.7597 0.0
C2474 C 0.5794 0.596 0.77319 0.0
H2475 H 0.39976 0.56189 0.7604 0.0
H2476 H 0.44051 0.56279 0.81145 0.0
H2477 H 0.42739 0.53004 0.82256 0.0
H2478 H 0.35892 0.54282 0.78479 0.0
H2479 H 0.35001 0.52616 0.76531 0.0
H2480 H 0.36445 0.54807 0.75875 0.0
H2481 H 0.39055 0.52663 0.73987 0.0
H2482 H 0.37597 0.50445 0.74546 0.0
H2483 H 0.40217 0.50554 0.75236 0.0
H2484 H 0.40658 0.50047 0.83125 0.0
H2485 H 0.382 0.47272 0.83443 0.0
H2486 H 0.35562 0.48919 0.77721 0.0
C2487 C 0.40643 0.55483 0.77348 0.0
C2488 C 0.42119 0.5649 0.78506 0.0
C2489 C 0.42921 0.55537 0.80235 0.0
C2490 C 0.42184 0.53676 0.80881 0.0
C2491 C 0.40665 0.52767 0.79765 0.0
C2492 C 0.39933 0.53606 0.78009 0.0
C2493 C 0.38224 0.52351 0.77159 0.0
C2494 C 0.36275 0.53588 0.77004 0.0
C2495 C 0.38809 0.51449 0.7511 0.0
C2496 C 0.38061 0.5073 0.78757 0.0
C2497 C 0.39488 0.51004 0.80244 0.0
C2498 C 0.39557 0.49792 0.81953 0.0
C2499 C 0.38148 0.48238 0.82133 0.0
C2500 C 0.36703 0.47902 0.80611 0.0
C2501 C 0.36666 0.49153 0.78895 0.0
H2502 H 0.4874 0.36074 0.76264 0.0
H2503 H 0.51822 0.39297 0.81032 0.0
H2504 H 0.4866 0.41044 0.81896 0.0
H2505 H 0.45444 0.40189 0.74738 0.0
H2506 H 0.4333 0.38557 0.74261 0.0
H2507 H 0.45857 0.37625 0.73949 0.0
H2508 H 0.45098 0.34711 0.76424 0.0
H2509 H 0.42571 0.35631 0.76728 0.0
H2510 H 0.44153 0.35283 0.78902 0.0
H2511 H 0.45141 0.42238 0.82413 0.0
H2512 H 0.41466 0.42792 0.82554 0.0
H2513 H 0.40679 0.38916 0.77364 0.0
C2514 C 0.48747 0.37143 0.77493 0.0
C2515 C 0.50528 0.37552 0.78583 0.0
C2516 C 0.50481 0.38978 0.80165 0.0
C2517 C 0.48693 0.39976 0.80667 0.0
C2518 C 0.46969 0.39545 0.79558 0.0
C2519 C 0.46978 0.38166 0.78001 0.0
C2520 C 0.44901 0.37938 0.77088 0.0
C2521 C 0.44883 0.38619 0.74878 0.0
C2522 C 0.44136 0.35762 0.77299 0.0
C2523 C 0.43716 0.39373 0.78404 0.0
C2524 C 0.44941 0.40288 0.79816 0.0
C2525 C 0.44171 0.41558 0.81296 0.0
C2526 C 0.42087 0.41865 0.81365 0.0
C2527 C 0.40808 0.40924 0.79949 0.0
C2528 C 0.41636 0.39699 0.78425 0.0
H2529 H 0.61003 0.42251 0.7534 0.0
H2530 H 0.55714 0.43536 0.78913 0.0
H2531 H 0.56722 0.47111 0.79141 0.0
H2532 H 0.64202 0.44981 0.78223 0.0
H2533 H 0.65793 0.45909 0.76234 0.0
H2534 H 0.64447 0.43585 0.7591 0.0
H2535 H 0.62779 0.44939 0.72673 0.0
H2536 H 0.64154 0.47259 0.72954 0.0
H2537 H 0.61451 0.47306 0.72737 0.0
H2538 H 0.58545 0.5035 0.79443 0.0
H2539 H 0.60973 0.53142 0.79646 0.0
H2540 H 0.65175 0.49743 0.75974 0.0
C2541 C 0.60008 0.43318 0.7607 0.0
C2542 C 0.58245 0.42661 0.77046 0.0
C2543 C 0.57033 0.44047 0.78104 0.0
C2544 C 0.57602 0.46071 0.78249 0.0
C2545 C 0.59401 0.46664 0.77349 0.0
C2546 C 0.6058 0.45336 0.7626 0.0
C2547 C 0.62566 0.46289 0.75671 0.0
C2548 C 0.64357 0.45121 0.76564 0.0
C2549 C 0.62746 0.46459 0.73372 0.0
C2550 C 0.62339 0.48339 0.76646 0.0
C2551 C 0.60494 0.48528 0.77584 0.0
C2552 C 0.59978 0.50238 0.78679 0.0
C2553 C 0.61369 0.51816 0.78787 0.0
C2554 C 0.63261 0.51672 0.77817 0.0
C2555 C 0.63748 0.499 0.76741 0.0
H2556 H 0.55251 0.37879 0.23373 0.0
H2557 H 0.5472 0.42765 0.19093 0.0
H2558 H 0.51029 0.42356 0.19074 0.0
H2559 H 0.51928 0.34808 0.21065 0.0
H2560 H 0.50809 0.33717 0.2328 0.0
H2561 H 0.53335 0.34675 0.2338 0.0
H2562 H 0.52388 0.37033 0.26331 0.0
H2563 H 0.49862 0.36046 0.26282 0.0
H2564 H 0.50278 0.38719 0.26077 0.0
H2565 H 0.4755 0.41073 0.19056 0.0
H2566 H 0.4441 0.39131 0.19195 0.0
H2567 H 0.47153 0.34985 0.23432 0.0
C2568 C 0.54341 0.38927 0.22518 0.0
C2569 C 0.55246 0.40388 0.21272 0.0
C2570 C 0.54035 0.41667 0.20085 0.0
C2571 C 0.51943 0.41441 0.20062 0.0
C2572 C 0.51097 0.39918 0.21225 0.0
C2573 C 0.5225 0.38694 0.22452 0.0
C2574 C 0.50997 0.3701 0.23346 0.0
C2575 C 0.51817 0.34931 0.2273 0.0
C2576 C 0.50873 0.37215 0.25646 0.0
C2577 C 0.48983 0.37435 0.22367 0.0
C2578 C 0.49072 0.39136 0.21176 0.0
C2579 C 0.47445 0.39767 0.20023 0.0
C2580 C 0.45665 0.38651 0.20112 0.0
C2581 C 0.45521 0.36914 0.21341 0.0
C2582 C 0.47212 0.36301 0.22477 0.0
H2583 H 0.62195 0.47789 0.17518 0.0
H2584 H 0.61148 0.46394 0.23801 0.0
H2585 H 0.60343 0.49969 0.24466 0.0
H2586 H 0.64521 0.52607 0.18287 0.0
H2587 H 0.63365 0.53719 0.16102 0.0
H2588 H 0.6387 0.51058 0.16156 0.0
H2589 H 0.60112 0.50334 0.15394 0.0
H2590 H 0.59594 0.52993 0.15353 0.0
H2591 H 0.582 0.51368 0.17017 0.0
H2592 H 0.59734 0.53745 0.24435 0.0
H2593 H 0.59322 0.57378 0.23685 0.0
H2594 H 0.60668 0.56193 0.17403 0.0
C2595 C 0.61815 0.48241 0.19036 0.0
C2596 C 0.61736 0.46823 0.20609 0.0
C2597 C 0.61199 0.47461 0.22572 0.0
C2598 C 0.60747 0.49485 0.22964 0.0
C2599 C 0.60825 0.50845 0.21373 0.0
C2600 C 0.6134 0.50246 0.19447 0.0
C2601 C 0.61292 0.51988 0.17992 0.0
C2602 C 0.63386 0.52365 0.17082 0.0
C2603 C 0.59705 0.5165 0.16342 0.0
C2604 C 0.60681 0.53666 0.194 0.0
C2605 C 0.60424 0.52987 0.21346 0.0
C2606 C 0.59918 0.54292 0.22913 0.0
C2607 C 0.59685 0.56348 0.22475 0.0
C2608 C 0.59947 0.57063 0.20486 0.0
C2609 C 0.60433 0.55694 0.18936 0.0
H2610 H 0.4326 0.58566 0.20982 0.0
H2611 H 0.43019 0.60111 0.2732 0.0
H2612 H 0.46631 0.61045 0.27208 0.0
H2613 H 0.48494 0.56691 0.20838 0.0
H2614 H 0.48911 0.57787 0.18394 0.0
H2615 H 0.46436 0.56932 0.1909 0.0
H2616 H 0.45005 0.6047 0.18282 0.0
H2617 H 0.47474 0.61347 0.17616 0.0
H2618 H 0.46048 0.62644 0.19525 0.0
H2619 H 0.50218 0.62121 0.26266 0.0
H2620 H 0.53364 0.63249 0.24596 0.0
H2621 H 0.51074 0.61145 0.1887 0.0
C2622 C 0.43972 0.5905 0.22366 0.0
C2623 C 0.42861 0.59253 0.24165 0.0
C2624 C 0.43849 0.5992 0.25931 0.0
C2625 C 0.45897 0.60459 0.25878 0.0
C2626 C 0.46925 0.60314 0.2405 0.0
C2627 C 0.4599 0.59612 0.22331 0.0
C2628 C 0.4734 0.59767 0.20509 0.0
C2629 C 0.47824 0.57669 0.19658 0.0
C2630 C 0.46411 0.61139 0.18889 0.0
C2631 C 0.49171 0.60719 0.2145 0.0
C2632 C 0.48929 0.60995 0.23499 0.0
C2633 C 0.50423 0.61896 0.24667 0.0
C2634 C 0.52201 0.62531 0.2371 0.0
C2635 C 0.52445 0.62296 0.21607 0.0
C2636 C 0.50913 0.61366 0.20476 0.0
H2637 H 0.33903 0.50417 0.253 0.0
H2638 H 0.40084 0.52477 0.25648 0.0
H2639 H 0.4126 0.4896 0.25448 0.0
H2640 H 0.34657 0.45703 0.28212 0.0
H2641 H 0.32976 0.44266 0.26652 0.0
H2642 H 0.3252 0.4691 0.27058 0.0
H2643 H 0.32524 0.47617 0.2325 0.0
H2644 H 0.32888 0.44984 0.2277 0.0
H2645 H 0.34621 0.46793 0.21736 0.0
H2646 H 0.41768 0.45275 0.24814 0.0
H2647 H 0.41545 0.4175 0.23603 0.0
H2648 H 0.35049 0.42115 0.2372 0.0
C2649 C 0.35501 0.50129 0.25391 0.0
C2650 C 0.369 0.51725 0.25491 0.0
C2651 C 0.38984 0.51282 0.25549 0.0
C2652 C 0.39666 0.49287 0.25462 0.0
C2653 C 0.38244 0.47751 0.25339 0.0
C2654 C 0.36204 0.48151 0.25309 0.0
C2655 C 0.34989 0.46255 0.24974 0.0
C2656 C 0.33709 0.45756 0.26834 0.0
C2657 C 0.3368 0.46423 0.23069 0.0
C2658 C 0.36669 0.44744 0.2471 0.0
C2659 C 0.38536 0.45623 0.24979 0.0
C2660 C 0.40317 0.44559 0.24647 0.0
C2661 C 0.40181 0.42564 0.23969 0.0
C2662 C 0.38282 0.41679 0.23626 0.0
C2663 C 0.36511 0.42761 0.24038 0.0
H2664 H 0.76723 0.50282 0.63115 0.0
H2665 H 0.7766 0.46677 0.57768 0.0
H2666 H 0.77169 0.49692 0.55642 0.0
H2667 H 0.7285 0.53727 0.60841 0.0
H2668 H 0.73795 0.55876 0.62196 0.0
H2669 H 0.73957 0.53403 0.63296 0.0
H2670 H 0.77798 0.5382 0.63749 0.0
H2671 H 0.77653 0.56295 0.62682 0.0
H2672 H 0.7933 0.5446 0.61603 0.0
H2673 H 0.77268 0.5316 0.54192 0.0
H2674 H 0.77709 0.56802 0.53522 0.0
H2675 H 0.76298 0.58115 0.59739 0.0
C2676 C 0.76784 0.50132 0.61495 0.0
C2677 C 0.7723 0.48263 0.60596 0.0
C2678 C 0.77302 0.48102 0.58474 0.0
C2679 C 0.77022 0.49802 0.5726 0.0
C2680 C 0.76615 0.51637 0.58192 0.0
C2681 C 0.76457 0.51805 0.60261 0.0
C2682 C 0.76141 0.5397 0.60895 0.0
C2683 C 0.74062 0.5426 0.61864 0.0
C2684 C 0.77832 0.54676 0.62314 0.0
C2685 C 0.76256 0.55004 0.58869 0.0
C2686 C 0.76521 0.53633 0.57325 0.0
C2687 C 0.76979 0.54248 0.5537 0.0
C2688 C 0.77223 0.56312 0.54998 0.0
C2689 C 0.76961 0.57725 0.56564 0.0
C2690 C 0.76411 0.57065 0.58501 0.0
H2691 H 0.81141 0.43853 0.39765 0.0
H2692 H 0.74778 0.42888 0.38697 0.0
H2693 H 0.74377 0.46505 0.37901 0.0
H2694 H 0.80725 0.49067 0.41849 0.0
H2695 H 0.83018 0.49822 0.40616 0.0
H2696 H 0.82706 0.47259 0.41443 0.0
H2697 H 0.83467 0.46015 0.37825 0.0
H2698 H 0.83749 0.48567 0.36978 0.0
H2699 H 0.81963 0.46928 0.35762 0.0
H2700 H 0.74796 0.50126 0.36751 0.0
H2701 H 0.75967 0.53417 0.3547 0.0
H2702 H 0.82053 0.51949 0.37302 0.0
C2703 C 0.79649 0.4441 0.39422 0.0
C2704 C 0.77989 0.43093 0.39301 0.0
C2705 C 0.76067 0.43876 0.38822 0.0
C2706 C 0.75827 0.45927 0.38362 0.0
C2707 C 0.77519 0.4717 0.38413 0.0
C2708 C 0.79388 0.46441 0.38959 0.0
C2709 C 0.81005 0.48024 0.38728 0.0
C2710 C 0.81917 0.48576 0.40781 0.0
C2711 C 0.82641 0.47342 0.37235 0.0
C2712 C 0.79773 0.49739 0.37887 0.0
C2713 C 0.77762 0.49235 0.37742 0.0
C2714 C 0.76362 0.50547 0.36894 0.0
C2715 C 0.7704 0.52415 0.36173 0.0
C2716 C 0.79103 0.52944 0.36285 0.0
C2717 C 0.80472 0.51588 0.37179 0.0
H2718 H 0.56962 0.81616 0.39843 0.0
H2719 H 0.57489 0.75153 0.39059 0.0
H2720 H 0.53894 0.75004 0.38066 0.0
H2721 H 0.518 0.81721 0.41727 0.0
H2722 H 0.51234 0.84008 0.40384 0.0
H2723 H 0.5376 0.83531 0.41238 0.0
H2724 H 0.55061 0.84011 0.37592 0.0
H2725 H 0.52537 0.8445 0.36718 0.0
H2726 H 0.54033 0.82484 0.35598 0.0
H2727 H 0.50287 0.75647 0.36913 0.0
H2728 H 0.46972 0.76985 0.35869 0.0
H2729 H 0.48944 0.83026 0.37348 0.0
C2730 C 0.5632 0.80158 0.39502 0.0
C2731 C 0.57502 0.78393 0.39536 0.0
C2732 C 0.56602 0.76521 0.39063 0.0
C2733 C 0.54568 0.76425 0.38487 0.0
C2734 C 0.53467 0.78214 0.38399 0.0
C2735 C 0.54314 0.80041 0.38914 0.0
C2736 C 0.52865 0.81765 0.38602 0.0
C2737 C 0.52386 0.82817 0.40607 0.0
C2738 C 0.53673 0.83265 0.37034 0.0
C2739 C 0.51066 0.80632 0.37808 0.0
C2740 C 0.51431 0.78585 0.37708 0.0
C2741 C 0.49984 0.77245 0.37 0.0
C2742 C 0.48108 0.78017 0.36411 0.0
C2743 C 0.47703 0.8011 0.36523 0.0
C2744 C 0.49215 0.81426 0.37216 0.0
H2745 H 0.18598 0.50599 0.3943 0.0
H2746 H 0.24822 0.49016 0.38295 0.0
H2747 H 0.25909 0.52236 0.39833 0.0
H2748 H 0.19007 0.55726 0.38198 0.0
H2749 H 0.1728 0.56556 0.40117 0.0
H2750 H 0.17041 0.54072 0.39068 0.0
H2751 H 0.1728 0.52537 0.42647 0.0
H2752 H 0.1753 0.55021 0.43707 0.0
H2753 H 0.19409 0.53133 0.44217 0.0
H2754 H 0.26268 0.55785 0.41294 0.0
H2755 H 0.25853 0.59294 0.42493 0.0
H2756 H 0.19385 0.58441 0.42667 0.0
C2757 C 0.20191 0.50926 0.39501 0.0
C2758 C 0.21625 0.4956 0.38734 0.0
C2759 C 0.23698 0.50034 0.38889 0.0
C2760 C 0.24327 0.51859 0.39756 0.0
C2761 C 0.22865 0.53181 0.40481 0.0
C2762 C 0.2084 0.52725 0.40367 0.0
C2763 C 0.19555 0.54416 0.41179 0.0
C2764 C 0.18138 0.55241 0.39543 0.0
C2765 C 0.18374 0.53735 0.43049 0.0
C2766 C 0.21166 0.55922 0.41725 0.0
C2767 C 0.23071 0.55186 0.41331 0.0
C2768 C 0.24784 0.56364 0.4163 0.0
C2769 C 0.24536 0.58353 0.42317 0.0
C2770 C 0.22588 0.59139 0.42683 0.0
C2771 C 0.20896 0.57885 0.42415 0.0
H2772 H 0.50489 0.1761 0.3888 0.0
H2773 H 0.52229 0.23808 0.37807 0.0
H2774 H 0.48834 0.24937 0.38813 0.0
H2775 H 0.4557 0.18005 0.369 0.0
H2776 H 0.44458 0.16343 0.3873 0.0
H2777 H 0.47062 0.16055 0.38051 0.0
H2778 H 0.4808 0.16392 0.41803 0.0
H2779 H 0.45475 0.16687 0.42492 0.0
H2780 H 0.47287 0.18572 0.43212 0.0
H2781 H 0.45145 0.2536 0.39746 0.0
H2782 H 0.41512 0.25015 0.4052 0.0
H2783 H 0.42265 0.18544 0.40987 0.0
C2784 C 0.5016 0.19205 0.38858 0.0
C2785 C 0.5163 0.20619 0.38272 0.0
C2786 C 0.51139 0.22696 0.38281 0.0
C2787 C 0.4921 0.23352 0.38842 0.0
C2788 C 0.47793 0.21914 0.39402 0.0
C2789 C 0.4825 0.19884 0.3942 0.0
C2790 C 0.46449 0.18634 0.4002 0.0
C2791 C 0.4585 0.17174 0.38324 0.0
C2792 C 0.46847 0.17505 0.42 0.0
C2793 C 0.44896 0.20272 0.403 0.0
C2794 C 0.45694 0.22158 0.39949 0.0
C2795 C 0.44509 0.23891 0.40043 0.0
C2796 C 0.4245 0.23683 0.40485 0.0
C2797 C 0.41606 0.21756 0.40822 0.0
C2798 C 0.42861 0.20042 0.40752 0.0
H2799 H 0.2049 0.51474 0.63713 0.0
H2800 H 0.2531 0.50254 0.67929 0.0
H2801 H 0.26091 0.47091 0.66112 0.0
H2802 H 0.18784 0.46441 0.63294 0.0
H2803 H 0.18155 0.46665 0.60666 0.0
H2804 H 0.18089 0.48851 0.62259 0.0
H2805 H 0.20546 0.50664 0.59827 0.0
H2806 H 0.20652 0.48459 0.5825 0.0
H2807 H 0.22937 0.49522 0.59249 0.0
H2808 H 0.26309 0.4404 0.63811 0.0
H2809 H 0.25614 0.41146 0.61584 0.0
H2810 H 0.20603 0.44393 0.58949 0.0
C2811 C 0.21721 0.50549 0.64244 0.0
C2812 C 0.22848 0.51111 0.6595 0.0
C2813 C 0.24419 0.49841 0.66631 0.0
C2814 C 0.24888 0.48057 0.65594 0.0
C2815 C 0.23768 0.47571 0.63887 0.0
C2816 C 0.22198 0.48769 0.63238 0.0
C2817 C 0.2113 0.47855 0.61451 0.0
C2818 C 0.18909 0.47427 0.61948 0.0
C2819 C 0.21329 0.49206 0.59584 0.0
C2820 C 0.22322 0.45934 0.61209 0.0
C2821 C 0.23864 0.4581 0.626 0.0
C2822 C 0.25112 0.44127 0.62711 0.0
C2823 C 0.2471 0.42493 0.61432 0.0
C2824 C 0.23042 0.4254 0.60104 0.0
C2825 C 0.21894 0.44317 0.5994 0.0
H2826 H 0.57793 0.19377 0.64101 0.0
H2827 H 0.58178 0.23282 0.58885 0.0
H2828 H 0.54618 0.24277 0.59384 0.0
H2829 H 0.52825 0.17625 0.63344 0.0
H2830 H 0.5219 0.17633 0.6598 0.0
H2831 H 0.5476 0.17269 0.65212 0.0
H2832 H 0.55853 0.20286 0.67434 0.0
H2833 H 0.53283 0.20668 0.68203 0.0
H2834 H 0.54676 0.22703 0.67078 0.0
H2835 H 0.50977 0.24681 0.60366 0.0
H2836 H 0.47553 0.24565 0.61814 0.0
H2837 H 0.49641 0.20512 0.66471 0.0
C2838 C 0.57129 0.20436 0.63056 0.0
C2839 C 0.58244 0.2124 0.6144 0.0
C2840 C 0.57337 0.22647 0.60127 0.0
C2841 C 0.55324 0.2322 0.60401 0.0
C2842 C 0.54265 0.22394 0.62013 0.0
C2843 C 0.55143 0.21045 0.63327 0.0
C2844 C 0.53691 0.2038 0.64946 0.0
C2845 C 0.53346 0.18091 0.64864 0.0
C2846 C 0.5442 0.2105 0.67039 0.0
C2847 C 0.51836 0.21527 0.64313 0.0
C2848 C 0.52197 0.22682 0.62619 0.0
C2849 C 0.50682 0.23798 0.61701 0.0
C2850 C 0.48745 0.23714 0.62525 0.0
C2851 C 0.48348 0.22532 0.64253 0.0
C2852 C 0.4992 0.2145 0.6517 0.0
H2853 H 0.50328 0.80209 0.62284 0.0
H2854 H 0.52237 0.74044 0.63179 0.0
H2855 H 0.48859 0.72848 0.62104 0.0
H2856 H 0.45431 0.797 0.64159 0.0
H2857 H 0.44332 0.81393 0.62348 0.0
H2858 H 0.4692 0.81689 0.6307 0.0
H2859 H 0.47991 0.81442 0.59323 0.0
H2860 H 0.45401 0.81129 0.58591 0.0
H2861 H 0.47247 0.79282 0.57859 0.0
H2862 H 0.45096 0.724 0.61151 0.0
H2863 H 0.41435 0.72773 0.60447 0.0
H2864 H 0.42214 0.79242 0.60092 0.0
C2865 C 0.50036 0.78607 0.62258 0.0
C2866 C 0.51528 0.77218 0.62831 0.0
C2867 C 0.51105 0.7513 0.62739 0.0
C2868 C 0.49196 0.74441 0.62131 0.0
C2869 C 0.47746 0.75863 0.6159 0.0
C2870 C 0.48163 0.77902 0.61635 0.0
C2871 C 0.46364 0.79145 0.61038 0.0
C2872 C 0.45724 0.80564 0.62756 0.0
C2873 C 0.46776 0.80318 0.59087 0.0
C2874 C 0.44842 0.77497 0.60703 0.0
C2875 C 0.4565 0.75606 0.61009 0.0
C2876 C 0.44459 0.73874 0.60883 0.0
C2877 C 0.42388 0.74095 0.60474 0.0
C2878 C 0.41546 0.76034 0.60214 0.0
C2879 C 0.42809 0.77737 0.60284 0.0
H2880 H 0.18054 0.36522 0.29106 0.0
H2881 H 0.13582 0.4111 0.30363 0.0
H2882 H 0.11338 0.39613 0.27793 0.0
H2883 H 0.17347 0.36347 0.23806 0.0
H2884 H 0.17707 0.33664 0.23629 0.0
H2885 H 0.1891 0.35062 0.25612 0.0
H2886 H 0.17252 0.32732 0.28263 0.0
H2887 H 0.16034 0.31332 0.26286 0.0
H2888 H 0.14557 0.32433 0.28277 0.0
H2889 H 0.09671 0.37708 0.2497 0.0
H2890 H 0.08674 0.35506 0.22138 0.0
H2891 H 0.14236 0.32154 0.22782 0.0
C2892 C 0.16607 0.37219 0.28833 0.0
C2893 C 0.15992 0.3894 0.29919 0.0
C2894 C 0.14073 0.39786 0.29548 0.0
C2895 C 0.12794 0.38949 0.28093 0.0
C2896 C 0.13453 0.37257 0.27041 0.0
C2897 C 0.1531 0.36397 0.274 0.0
C2898 C 0.15675 0.34599 0.26051 0.0
C2899 C 0.17518 0.34939 0.24694 0.0
C2900 C 0.15892 0.32659 0.27294 0.0
C2901 C 0.13744 0.34599 0.2485 0.0
C2902 C 0.12479 0.3614 0.25445 0.0
C2903 C 0.10642 0.36488 0.245 0.0
C2904 C 0.10093 0.35237 0.22893 0.0
C2905 C 0.11375 0.33658 0.22254 0.0
C2906 C 0.13212 0.33327 0.23263 0.0
H2907 H 0.63792 0.15608 0.29502 0.0
H2908 H 0.5986 0.20056 0.26774 0.0
H2909 H 0.61008 0.19 0.23408 0.0
H2910 H 0.67863 0.1618 0.26142 0.0
H2911 H 0.68504 0.13546 0.26047 0.0
H2912 H 0.67312 0.14571 0.28254 0.0
H2913 H 0.64452 0.11939 0.27959 0.0
H2914 H 0.65646 0.10892 0.25761 0.0
H2915 H 0.63069 0.11726 0.25635 0.0
H2916 H 0.62717 0.17637 0.2038 0.0
H2917 H 0.64762 0.15922 0.1782 0.0
H2918 H 0.67476 0.12213 0.22469 0.0
C2919 C 0.63143 0.16333 0.28196 0.0
C2920 C 0.6174 0.17921 0.28402 0.0
C2921 C 0.60955 0.18855 0.26654 0.0
C2922 C 0.6159 0.1826 0.24736 0.0
C2923 C 0.63 0.16718 0.24589 0.0
C2924 C 0.63755 0.15752 0.26266 0.0
C2925 C 0.65289 0.14167 0.25681 0.0
C2926 C 0.67365 0.14646 0.26585 0.0
C2927 C 0.6457 0.12056 0.26295 0.0
C2928 C 0.65294 0.14414 0.23415 0.0
C2929 C 0.6396 0.15894 0.22823 0.0
C2930 C 0.63742 0.1645 0.20819 0.0
C2931 C 0.64904 0.15455 0.19373 0.0
C2932 C 0.66261 0.13904 0.19932 0.0
C2933 C 0.66458 0.13389 0.21988 0.0
H2934 H 0.85816 0.6858 0.18852 0.0
H2935 H 0.90223 0.64014 0.17276 0.0
H2936 H 0.89172 0.62019 0.20239 0.0
H2937 H 0.86286 0.68298 0.24109 0.0
H2938 H 0.83638 0.6864 0.24584 0.0
H2939 H 0.8476 0.69697 0.22358 0.0
H2940 H 0.82178 0.67804 0.2013 0.0
H2941 H 0.81037 0.66751 0.22349 0.0
H2942 H 0.81922 0.65114 0.20375 0.0
H2943 H 0.8768 0.60595 0.23495 0.0
H2944 H 0.85731 0.59773 0.26575 0.0
H2945 H 0.82173 0.65176 0.25766 0.0
C2946 C 0.86537 0.67139 0.19083 0.0
C2947 C 0.88094 0.66453 0.17803 0.0
C2948 C 0.89036 0.64586 0.18234 0.0
C2949 C 0.88443 0.63437 0.1991 0.0
C2950 C 0.86897 0.64168 0.2113 0.0
C2951 C 0.85946 0.65967 0.20716 0.0
C2952 C 0.84314 0.66429 0.22231 0.0
C2953 C 0.84779 0.68381 0.23388 0.0
C2954 C 0.8224 0.66529 0.2121 0.0
C2955 C 0.8449 0.64607 0.23575 0.0
C2956 C 0.86001 0.63325 0.22934 0.0
C2957 C 0.86481 0.61578 0.23994 0.0
C2958 C 0.85376 0.61127 0.2574 0.0
C2959 C 0.83795 0.62402 0.26381 0.0
C2960 C 0.83355 0.64161 0.25284 0.0
H2961 H 0.37227 0.83289 0.27535 0.0
H2962 H 0.34149 0.87023 0.31919 0.0
H2963 H 0.32521 0.88916 0.29161 0.0
H2964 H 0.38091 0.87251 0.23835 0.0
H2965 H 0.37674 0.85599 0.21724 0.0
H2966 H 0.3867 0.84609 0.24042 0.0
H2967 H 0.35765 0.82012 0.24195 0.0
H2968 H 0.34765 0.82989 0.21877 0.0
H2969 H 0.33198 0.82882 0.24088 0.0
H2970 H 0.31035 0.90213 0.25939 0.0
H2971 H 0.2988 0.909 0.22467 0.0
H2972 H 0.34012 0.86391 0.20194 0.0
C2973 C 0.36214 0.8451 0.27912 0.0
C2974 C 0.35811 0.85014 0.29936 0.0
C2975 C 0.34492 0.86629 0.30376 0.0
C2976 C 0.33558 0.87707 0.28822 0.0
C2977 C 0.3398 0.87163 0.26841 0.0
C2978 C 0.35287 0.85612 0.26382 0.0
C2979 C 0.35449 0.85296 0.24133 0.0
C2980 C 0.37599 0.85714 0.2339 0.0
C2981 C 0.34752 0.83169 0.23539 0.0
C2982 C 0.33996 0.86886 0.23397 0.0
C2983 C 0.33165 0.87948 0.24983 0.0
C2984 C 0.31695 0.89413 0.24684 0.0
C2985 C 0.31047 0.89789 0.22714 0.0
C2986 C 0.31879 0.88716 0.21073 0.0
C2987 C 0.33388 0.87264 0.21421 0.0
H2988 H 0.11821 0.69136 0.77877 0.0
H2989 H 0.10148 0.64395 0.82051 0.0
H2990 H 0.11316 0.61855 0.79623 0.0
H2991 H 0.1084 0.66362 0.73123 0.0
H2992 H 0.13034 0.6742 0.71933 0.0
H2993 H 0.1169 0.68845 0.73811 0.0
H2994 H 0.14985 0.69251 0.75857 0.0
H2995 H 0.16333 0.67823 0.73996 0.0
H2996 H 0.16373 0.6704 0.76592 0.0
H2997 H 0.13059 0.59835 0.76923 0.0
H2998 H 0.15319 0.58557 0.74244 0.0
H2999 H 0.16048 0.6463 0.71984 0.0
C3000 C 0.11671 0.67565 0.78278 0.0
C3001 C 0.10876 0.6698 0.80162 0.0
C3002 C 0.10703 0.64897 0.80606 0.0
C3003 C 0.11375 0.63436 0.79237 0.0
C3004 C 0.1222 0.64074 0.77429 0.0
C3005 C 0.12365 0.66092 0.76947 0.0
C3006 C 0.13539 0.66402 0.75022 0.0
C3007 C 0.12195 0.67311 0.73375 0.0
C3008 C 0.15419 0.67705 0.7539 0.0
C3009 C 0.14097 0.6425 0.74537 0.0
C3010 C 0.13286 0.62921 0.75914 0.0
C3011 C 0.1368 0.60859 0.75821 0.0
C3012 C 0.14961 0.60146 0.74298 0.0
C3013 C 0.15856 0.61498 0.7292 0.0
C3014 C 0.15386 0.63567 0.73026 0.0
H3015 H 0.37158 0.18039 0.73051 0.0
H3016 H 0.36347 0.14315 0.67745 0.0
H3017 H 0.34386 0.11885 0.6975 0.0
H3018 H 0.37564 0.13916 0.76682 0.0
H3019 H 0.36191 0.15261 0.78596 0.0
H3020 H 0.37664 0.16626 0.76776 0.0
H3021 H 0.34514 0.18699 0.75779 0.0
H3022 H 0.33031 0.17337 0.77588 0.0
H3023 H 0.32266 0.17404 0.74987 0.0
H3024 H 0.32283 0.10006 0.7226 0.0
H3025 H 0.3033 0.08725 0.75158 0.0
H3026 H 0.3251 0.13681 0.78808 0.0
C3027 C 0.36582 0.16704 0.72316 0.0
C3028 C 0.36916 0.1636 0.70245 0.0
C3029 C 0.36141 0.14592 0.69338 0.0
C3030 C 0.35015 0.13209 0.7046 0.0
C3031 C 0.34686 0.13611 0.7249 0.0
C3032 C 0.3546 0.15306 0.73414 0.0
C3033 C 0.34832 0.15419 0.75599 0.0
C3034 C 0.36672 0.15298 0.76995 0.0
C3035 C 0.33587 0.17328 0.76011 0.0
C3036 C 0.33554 0.13542 0.75749 0.0
C3037 C 0.3349 0.12517 0.73941 0.0
C3038 C 0.32337 0.10784 0.7369 0.0
C3039 C 0.31225 0.10075 0.75337 0.0
C3040 C 0.31283 0.11097 0.77205 0.0
C3041 C 0.32468 0.12849 0.77407 0.0
H3042 H 0.82882 0.36617 0.6997 0.0
H3043 H 0.79024 0.40942 0.72972 0.0
H3044 H 0.80396 0.3988 0.76265 0.0
H3045 H 0.82289 0.32746 0.73541 0.0
H3046 H 0.8484 0.31844 0.73368 0.0
H3047 H 0.83691 0.33064 0.71242 0.0
H3048 H 0.86608 0.35648 0.71124 0.0
H3049 H 0.87774 0.34428 0.73245 0.0
H3050 H 0.87214 0.37081 0.73347 0.0
H3051 H 0.8208 0.38257 0.79215 0.0
H3052 H 0.83884 0.36112 0.8165 0.0
H3053 H 0.86596 0.3279 0.76723 0.0
C3054 C 0.82359 0.37367 0.7132 0.0
C3055 C 0.80865 0.38874 0.71227 0.0
C3056 C 0.80171 0.39786 0.73022 0.0
C3057 C 0.80946 0.39198 0.74892 0.0
C3058 C 0.82402 0.37691 0.74935 0.0
C3059 C 0.83099 0.36783 0.73198 0.0
C3060 C 0.84581 0.35118 0.73667 0.0
C3061 C 0.83803 0.33072 0.7291 0.0
C3062 C 0.86668 0.35598 0.72794 0.0
C3063 C 0.84591 0.35214 0.7594 0.0
C3064 C 0.83341 0.36723 0.7664 0.0
C3065 C 0.83076 0.37082 0.78686 0.0
C3066 C 0.84113 0.35862 0.80056 0.0
C3067 C 0.85387 0.34294 0.79372 0.0
C3068 C 0.85627 0.33974 0.77286 0.0
H3069 H 0.6609 0.85368 0.79091 0.0
H3070 H 0.70095 0.89461 0.75963 0.0
H3071 H 0.68652 0.88387 0.72708 0.0
H3072 H 0.66438 0.81386 0.75533 0.0
H3073 H 0.63846 0.80629 0.75764 0.0
H3074 H 0.65102 0.81806 0.77856 0.0
H3075 H 0.62328 0.84543 0.78002 0.0
H3076 H 0.61059 0.8337 0.75912 0.0
H3077 H 0.61761 0.85987 0.75778 0.0
H3078 H 0.6684 0.86823 0.69807 0.0
H3079 H 0.64872 0.84771 0.67422 0.0
H3080 H 0.62069 0.81646 0.72423 0.0
C3081 C 0.66641 0.86056 0.77721 0.0
C3082 C 0.68195 0.87504 0.77772 0.0
C3083 C 0.68909 0.88344 0.7595 0.0
C3084 C 0.68093 0.87751 0.74098 0.0
C3085 C 0.66572 0.8631 0.74097 0.0
C3086 C 0.65856 0.85466 0.75857 0.0
C3087 C 0.64277 0.8388 0.75428 0.0
C3088 C 0.64957 0.81802 0.7619 0.0
C3089 C 0.62235 0.84482 0.76334 0.0
C3090 C 0.64228 0.83953 0.73151 0.0
C3091 C 0.6555 0.85379 0.72417 0.0
C3092 C 0.6579 0.85711 0.70363 0.0
C3093 C 0.64657 0.84545 0.69021 0.0
C3094 C 0.63308 0.83057 0.69737 0.0
C3095 C 0.63092 0.82767 0.71832 0.0
H3096 H 0.19774 0.14757 0.34069 0.0
H3097 H 0.2281 0.0919 0.32491 0.0
H3098 H 0.2578 0.10265 0.34442 0.0
H3099 H 0.24019 0.17926 0.33721 0.0
H3100 H 0.2334 0.1949 0.35831 0.0
H3101 H 0.21412 0.18241 0.34397 0.0
H3102 H 0.20063 0.16566 0.37648 0.0
H3103 H 0.21987 0.17813 0.39094 0.0
H3104 H 0.21748 0.15113 0.39199 0.0
H3105 H 0.28468 0.12011 0.36398 0.0
H3106 H 0.30727 0.14316 0.382 0.0
H3107 H 0.25896 0.18701 0.38656 0.0
C3108 C 0.21051 0.13748 0.34161 0.0
C3109 C 0.21061 0.11888 0.33125 0.0
C3110 C 0.22778 0.10631 0.33251 0.0
C3111 C 0.24465 0.11222 0.34368 0.0
C3112 C 0.24408 0.13069 0.35359 0.0
C3113 C 0.22746 0.14312 0.35271 0.0
C3114 C 0.23102 0.16254 0.36415 0.0
C3115 C 0.2296 0.18085 0.35006 0.0
C3116 C 0.21638 0.16447 0.38195 0.0
C3117 C 0.25238 0.15919 0.37132 0.0
C3118 C 0.25955 0.14067 0.36516 0.0
C3119 C 0.27914 0.13452 0.36918 0.0
C3120 C 0.29181 0.14771 0.37962 0.0
C3121 C 0.28488 0.16687 0.38604 0.0
C3122 C 0.26478 0.17251 0.38193 0.0
H3123 H 0.84003 0.29135 0.36289 0.0
H3124 H 0.7897 0.29769 0.32178 0.0
H3125 H 0.8037 0.27083 0.3004 0.0
H3126 H 0.87802 0.28155 0.32492 0.0
H3127 H 0.89126 0.26325 0.33992 0.0
H3128 H 0.87755 0.2833 0.35199 0.0
H3129 H 0.85721 0.25715 0.37251 0.0
H3130 H 0.87085 0.23703 0.36052 0.0
H3131 H 0.84377 0.23752 0.35947 0.0
H3132 H 0.82259 0.24346 0.28367 0.0
H3133 H 0.84492 0.21603 0.27282 0.0
H3134 H 0.88351 0.22694 0.32442 0.0
C3135 C 0.83206 0.28711 0.34933 0.0
C3136 C 0.81371 0.29648 0.34405 0.0
C3137 C 0.8036 0.29048 0.32627 0.0
C3138 C 0.8115 0.27535 0.31395 0.0
C3139 C 0.82952 0.26634 0.31962 0.0
C3140 C 0.83969 0.27189 0.33688 0.0
C3141 C 0.85856 0.25935 0.33964 0.0
C3142 C 0.87747 0.27266 0.33908 0.0
C3143 C 0.85753 0.24703 0.3592 0.0
C3144 C 0.85733 0.24589 0.32126 0.0
C3145 C 0.8405 0.25032 0.30989 0.0
C3146 C 0.8359 0.23992 0.29234 0.0
C3147 C 0.84879 0.22445 0.28622 0.0
C3148 C 0.86613 0.2195 0.29761 0.0
C3149 C 0.8704 0.2304 0.31539 0.0
H3150 H 0.73063 0.81485 0.37247 0.0
H3151 H 0.68239 0.84706 0.34244 0.0
H3152 H 0.70732 0.86819 0.32497 0.0
H3153 H 0.76359 0.85749 0.37935 0.0
H3154 H 0.78621 0.84337 0.37441 0.0
H3155 H 0.76458 0.83098 0.38504 0.0
H3156 H 0.76487 0.80508 0.35586 0.0
H3157 H 0.78655 0.81732 0.34521 0.0
H3158 H 0.76422 0.81391 0.33022 0.0
H3159 H 0.7372 0.88523 0.31012 0.0
H3160 H 0.77052 0.89697 0.29858 0.0
H3161 H 0.79937 0.85355 0.3379 0.0
C3162 C 0.72534 0.82632 0.36219 0.0
C3163 C 0.70458 0.82946 0.35898 0.0
C3164 C 0.69822 0.84466 0.34544 0.0
C3165 C 0.71225 0.85668 0.33536 0.0
C3166 C 0.73258 0.85329 0.33897 0.0
C3167 C 0.73915 0.83849 0.35201 0.0
C3168 C 0.76189 0.8378 0.3529 0.0
C3169 C 0.76951 0.84271 0.37419 0.0
C3170 C 0.76985 0.81731 0.3456 0.0
C3171 C 0.76702 0.85444 0.33823 0.0
C3172 C 0.74988 0.86319 0.33039 0.0
C3173 C 0.75075 0.87855 0.31618 0.0
C3174 C 0.7697 0.88507 0.30968 0.0
C3175 C 0.78746 0.87622 0.31742 0.0
C3176 C 0.78604 0.86081 0.33198 0.0
H3177 H 0.17226 0.71692 0.38926 0.0
H3178 H 0.20605 0.75372 0.43123 0.0
H3179 H 0.19178 0.78445 0.4157 0.0
H3180 H 0.18004 0.74753 0.34728 0.0
H3181 H 0.1555 0.74353 0.33647 0.0
H3182 H 0.16655 0.72454 0.35227 0.0
H3183 H 0.13527 0.72541 0.37555 0.0
H3184 H 0.12404 0.74434 0.35972 0.0
H3185 H 0.12723 0.74901 0.38625 0.0
H3186 H 0.17529 0.81104 0.39427 0.0
H3187 H 0.15895 0.83149 0.36788 0.0
H3188 H 0.13651 0.77705 0.33965 0.0
C3189 C 0.17624 0.73143 0.39552 0.0
C3190 C 0.19 0.73301 0.41161 0.0
C3191 C 0.19542 0.75226 0.41896 0.0
C3192 C 0.18735 0.76974 0.41029 0.0
C3193 C 0.17398 0.76766 0.39426 0.0
C3194 C 0.16849 0.74898 0.38693 0.0
C3195 C 0.15508 0.75082 0.36863 0.0
C3196 C 0.16489 0.74103 0.35007 0.0
C3197 C 0.13416 0.74187 0.3728 0.0
C3198 C 0.15412 0.77346 0.36658 0.0
C3199 C 0.16491 0.78292 0.38164 0.0
C3200 C 0.16665 0.8038 0.38252 0.0
C3201 C 0.15725 0.81528 0.36752 0.0
C3202 C 0.14643 0.80585 0.35176 0.0
C3203 C 0.14476 0.78467 0.35146 0.0
H3204 H 0.26317 0.80948 0.61494 0.0
H3205 H 0.31639 0.84022 0.6371 0.0
H3206 H 0.29499 0.86441 0.65519 0.0
H3207 H 0.23168 0.85456 0.60911 0.0
H3208 H 0.20923 0.84195 0.61757 0.0
H3209 H 0.22867 0.82794 0.60487 0.0
H3210 H 0.23077 0.80334 0.63505 0.0
H3211 H 0.21136 0.81726 0.64782 0.0
H3212 H 0.23527 0.81319 0.65993 0.0
H3213 H 0.2683 0.88345 0.67317 0.0
H3214 H 0.23752 0.89663 0.68938 0.0
H3215 H 0.20154 0.85388 0.65564 0.0
C3216 C 0.27029 0.82141 0.62346 0.0
C3217 C 0.29144 0.8231 0.62438 0.0
C3218 C 0.30021 0.83889 0.63576 0.0
C3219 C 0.28819 0.85266 0.64619 0.0
C3220 C 0.26743 0.85051 0.64507 0.0
C3221 C 0.2585 0.83537 0.63394 0.0
C3222 C 0.23583 0.83594 0.63602 0.0
C3223 C 0.22576 0.84037 0.61568 0.0
C3224 C 0.22785 0.81627 0.64526 0.0
C3225 C 0.23349 0.85347 0.6504 0.0
C3226 C 0.25192 0.8617 0.65536 0.0
C3227 C 0.25375 0.87732 0.66923 0.0
C3228 C 0.23625 0.88464 0.67841 0.0
C3229 C 0.21724 0.87638 0.67358 0.0
C3230 C 0.21587 0.86074 0.65925 0.0
H3231 H 0.12833 0.22757 0.68289 0.0
H3232 H 0.10997 0.19758 0.62783 0.0
H3233 H 0.11923 0.2279 0.60839 0.0
H3234 H 0.11324 0.27873 0.66878 0.0
H3235 H 0.13488 0.28985 0.68075 0.0
H3236 H 0.12436 0.26683 0.69047 0.0
H3237 H 0.15911 0.24943 0.68712 0.0
H3238 H 0.16972 0.27234 0.67743 0.0
H3239 H 0.17171 0.24939 0.6631 0.0
H3240 H 0.13339 0.26052 0.59473 0.0
H3241 H 0.15224 0.29192 0.58801 0.0
H3242 H 0.16204 0.29967 0.65206 0.0
C3243 C 0.12615 0.22734 0.66675 0.0
C3244 C 0.11842 0.21015 0.65691 0.0
C3245 C 0.1156 0.21065 0.63577 0.0
C3246 C 0.12087 0.22779 0.62459 0.0
C3247 C 0.12885 0.2443 0.63479 0.0
C3248 C 0.13144 0.24419 0.65541 0.0
C3249 C 0.14169 0.26315 0.66268 0.0
C3250 C 0.1277 0.27536 0.67648 0.0
C3251 C 0.16174 0.25828 0.67319 0.0
C3252 C 0.14502 0.27375 0.64285 0.0
C3253 C 0.13723 0.26284 0.62694 0.0
C3254 C 0.13933 0.26929 0.6071 0.0
C3255 C 0.14998 0.28716 0.60343 0.0
C3256 C 0.15857 0.29818 0.61952 0.0
C3257 C 0.15569 0.29151 0.63946 0.0
H3258 H 0.77325 0.10889 0.69183 0.0
H3259 H 0.82211 0.12229 0.65066 0.0
H3260 H 0.79875 0.14153 0.62918 0.0
H3261 H 0.73356 0.10438 0.65349 0.0
H3262 H 0.71496 0.11611 0.66937 0.0
H3263 H 0.73517 0.10184 0.68045 0.0
H3264 H 0.74503 0.13276 0.7021 0.0
H3265 H 0.72499 0.14717 0.69098 0.0
H3266 H 0.75047 0.15637 0.6899 0.0
H3267 H 0.77093 0.16207 0.61406 0.0
H3268 H 0.73978 0.18032 0.60496 0.0
H3269 H 0.70919 0.15338 0.65592 0.0
C3270 C 0.77895 0.11565 0.67815 0.0
C3271 C 0.79945 0.11399 0.67283 0.0
C3272 C 0.80638 0.12305 0.65483 0.0
C3273 C 0.79326 0.13413 0.64261 0.0
C3274 C 0.77326 0.13587 0.64854 0.0
C3275 C 0.76606 0.12668 0.66574 0.0
C3276 C 0.74408 0.13148 0.66914 0.0
C3277 C 0.73119 0.11231 0.66804 0.0
C3278 C 0.74097 0.14261 0.68922 0.0
C3279 C 0.74016 0.14515 0.65138 0.0
C3280 C 0.75716 0.1475 0.63967 0.0
C3281 C 0.75744 0.16016 0.62297 0.0
C3282 C 0.73977 0.17056 0.618 0.0
C3283 C 0.72213 0.16812 0.62966 0.0
C3284 C 0.72239 0.15524 0.64655 0.0
H3285 H 0.8196 0.72504 0.61059 0.0
H3286 H 0.85901 0.6742 0.62145 0.0
H3287 H 0.88083 0.69568 0.64267 0.0
H3288 H 0.85946 0.76349 0.60875 0.0
H3289 H 0.84398 0.78206 0.62106 0.0
H3290 H 0.83253 0.76296 0.60558 0.0
H3291 H 0.80989 0.75241 0.63553 0.0
H3292 H 0.8214 0.7713 0.65115 0.0
H3293 H 0.82138 0.74536 0.65906 0.0
H3294 H 0.89612 0.7219 0.66562 0.0
H3295 H 0.90574 0.75188 0.68567 0.0
H3296 H 0.85691 0.78559 0.65862 0.0
C3297 C 0.83301 0.71855 0.6172 0.0
C3298 C 0.83772 0.69804 0.61441 0.0
C3299 C 0.85534 0.68998 0.62325 0.0
C3300 C 0.86772 0.70202 0.6354 0.0
C3301 C 0.86236 0.7221 0.63827 0.0
C3302 C 0.84562 0.73038 0.62913 0.0
C3303 C 0.84288 0.75221 0.63496 0.0
C3304 C 0.84484 0.76599 0.61649 0.0
C3305 C 0.82269 0.7555 0.64582 0.0
C3306 C 0.86045 0.75482 0.64915 0.0
C3307 C 0.87149 0.73728 0.65096 0.0
C3308 C 0.88778 0.7358 0.66409 0.0
C3309 C 0.89305 0.75279 0.67549 0.0
C3310 C 0.88215 0.77097 0.67347 0.0
C3311 C 0.86567 0.77193 0.66015 0.0
H3312 H 0.32867 0.29788 0.15064 0.0
H3313 H 0.39014 0.27834 0.15993 0.0
H3314 H 0.38307 0.24699 0.14099 0.0
H3315 H 0.30556 0.25196 0.15728 0.0
H3316 H 0.28685 0.255 0.1379 0.0
H3317 H 0.29731 0.27678 0.15009 0.0
H3318 H 0.30818 0.29126 0.11556 0.0
H3319 H 0.29752 0.2696 0.1032 0.0
H3320 H 0.32347 0.2762 0.09896 0.0
H3321 H 0.36772 0.21595 0.12591 0.0
H3322 H 0.34645 0.18873 0.11285 0.0
H3323 H 0.29575 0.23004 0.11006 0.0
C3324 C 0.34071 0.28716 0.14823 0.0
C3325 C 0.35993 0.29036 0.15659 0.0
C3326 C 0.37539 0.2761 0.15339 0.0
C3327 C 0.37148 0.2583 0.14273 0.0
C3328 C 0.35219 0.25532 0.13507 0.0
C3329 C 0.33717 0.26955 0.13731 0.0
C3330 C 0.31753 0.26237 0.12832 0.0
C3331 C 0.30084 0.26148 0.14436 0.0
C3332 C 0.31131 0.27565 0.11044 0.0
C3333 C 0.32361 0.24154 0.12144 0.0
C3334 C 0.34364 0.23776 0.12544 0.0
C3335 C 0.35217 0.21892 0.12213 0.0
C3336 C 0.3399 0.20354 0.11453 0.0
C3337 C 0.31931 0.20709 0.11006 0.0
C3338 C 0.3113 0.22656 0.11335 0.0
H3339 H 0.34891 0.75805 0.86668 0.0
H3340 H 0.36402 0.80871 0.82839 0.0
H3341 H 0.38693 0.78709 0.80877 0.0
H3342 H 0.39919 0.73486 0.86655 0.0
H3343 H 0.38929 0.70962 0.86592 0.0
H3344 H 0.3752 0.72942 0.87797 0.0
H3345 H 0.34449 0.72155 0.85527 0.0
H3346 H 0.35843 0.70169 0.84326 0.0
H3347 H 0.34753 0.72152 0.82832 0.0
H3348 H 0.4054 0.75942 0.79123 0.0
H3349 H 0.41872 0.72741 0.77748 0.0
H3350 H 0.39287 0.69503 0.82777 0.0
C3351 C 0.35719 0.76459 0.85426 0.0
C3352 C 0.35482 0.78508 0.84915 0.0
C3353 C 0.36587 0.79313 0.83279 0.0
C3354 C 0.37888 0.78097 0.82152 0.0
C3355 C 0.38084 0.76083 0.82691 0.0
C3356 C 0.3704 0.7527 0.84296 0.0
C3357 C 0.37457 0.7304 0.84504 0.0
C3358 C 0.3852 0.72581 0.86506 0.0
C3359 C 0.3551 0.71807 0.84283 0.0
C3360 C 0.38855 0.72717 0.82734 0.0
C3361 C 0.39203 0.74494 0.81711 0.0
C3362 C 0.40314 0.74547 0.79933 0.0
C3363 C 0.41064 0.72731 0.79163 0.0
C3364 C 0.40713 0.70899 0.80185 0.0
C3365 C 0.39625 0.70899 0.82007 0.0
H3366 H 0.26768 0.37583 0.8545 0.0
H3367 H 0.26965 0.34527 0.79668 0.0
H3368 H 0.24432 0.32119 0.80853 0.0
H3369 H 0.26391 0.33107 0.88413 0.0
H3370 H 0.24705 0.34176 0.90249 0.0
H3371 H 0.26449 0.35771 0.88924 0.0
H3372 H 0.23503 0.38018 0.87715 0.0
H3373 H 0.2175 0.36436 0.89045 0.0
H3374 H 0.21422 0.36888 0.86392 0.0
H3375 H 0.2198 0.2999 0.82636 0.0
H3376 H 0.19656 0.28264 0.84922 0.0
H3377 H 0.2112 0.32535 0.89657 0.0
C3378 C 0.26272 0.36413 0.8443 0.0
C3379 C 0.2705 0.36272 0.82451 0.0
C3380 C 0.26358 0.34713 0.81168 0.0
C3381 C 0.24931 0.33319 0.81833 0.0
C3382 C 0.24214 0.33491 0.83791 0.0
C3383 C 0.24852 0.34995 0.85074 0.0
C3384 C 0.23865 0.34794 0.87124 0.0
C3385 C 0.25447 0.34441 0.88775 0.0
C3386 C 0.22557 0.36644 0.87596 0.0
C3387 C 0.22586 0.32935 0.86788 0.0
C3388 C 0.22815 0.32217 0.84851 0.0
C3389 C 0.21796 0.30526 0.84163 0.0
C3390 C 0.20495 0.29542 0.85487 0.0
C3391 C 0.2023 0.30236 0.87489 0.0
C3392 C 0.21292 0.31963 0.88141 0.0
H3393 H 0.6228 0.29969 0.83347 0.0
H3394 H 0.59654 0.26779 0.78294 0.0
H3395 H 0.60926 0.23564 0.79655 0.0
H3396 H 0.66758 0.27156 0.83529 0.0
H3397 H 0.6697 0.27147 0.86233 0.0
H3398 H 0.65687 0.29179 0.84986 0.0
H3399 H 0.62501 0.28514 0.8713 0.0
H3400 H 0.63781 0.26487 0.88397 0.0
H3401 H 0.6141 0.26031 0.87163 0.0
H3402 H 0.62645 0.20763 0.81409 0.0
H3403 H 0.64732 0.18495 0.83456 0.0
H3404 H 0.66288 0.23471 0.87398 0.0
C3405 C 0.61938 0.28585 0.82556 0.0
C3406 C 0.6086 0.28609 0.80726 0.0
C3407 C 0.60479 0.26782 0.79699 0.0
C3408 C 0.61189 0.24954 0.80463 0.0
C3409 C 0.62279 0.24982 0.82251 0.0
C3410 C 0.62653 0.26745 0.8329 0.0
C3411 C 0.63972 0.26364 0.85111 0.0
C3412 C 0.65965 0.27531 0.84954 0.0
C3413 C 0.62848 0.26879 0.87066 0.0
C3414 C 0.64306 0.24117 0.84912 0.0
C3415 C 0.63298 0.23353 0.83262 0.0
C3416 C 0.63419 0.21335 0.82722 0.0
C3417 C 0.64601 0.20057 0.83903 0.0
C3418 C 0.65651 0.20799 0.85606 0.0
C3419 C 0.65499 0.2286 0.8611 0.0
H3420 H 0.77669 0.67001 0.88709 0.0
H3421 H 0.8293 0.63733 0.86633 0.0
H3422 H 0.80748 0.61447 0.84693 0.0
H3423 H 0.74263 0.62604 0.89037 0.0
H3424 H 0.72128 0.64017 0.88144 0.0
H3425 H 0.74083 0.65262 0.89552 0.0
H3426 H 0.74558 0.67818 0.86647 0.0
H3427 H 0.72609 0.66583 0.85232 0.0
H3428 H 0.75072 0.66904 0.84145 0.0
H3429 H 0.78066 0.59789 0.82662 0.0
H3430 H 0.75021 0.58795 0.80764 0.0
H3431 H 0.7148 0.63057 0.84202 0.0
C3432 C 0.78358 0.65787 0.87867 0.0
C3433 C 0.80469 0.65536 0.87838 0.0
C3434 C 0.81315 0.63932 0.86713 0.0
C3435 C 0.80089 0.6263 0.85598 0.0
C3436 C 0.78018 0.62938 0.85636 0.0
C3437 C 0.77154 0.64465 0.86753 0.0
C3438 C 0.74898 0.6454 0.86442 0.0
C3439 C 0.73777 0.64078 0.88411 0.0
C3440 C 0.74247 0.66582 0.85564 0.0
C3441 C 0.74637 0.62857 0.84927 0.0
C3442 C 0.76456 0.61945 0.84492 0.0
C3443 C 0.76627 0.60461 0.83019 0.0
C3444 C 0.74898 0.59909 0.81947 0.0
C3445 C 0.73026 0.6083 0.82367 0.0
C3446 C 0.72889 0.62298 0.83895 0.0
H3447 H 0.67044 0.79316 0.13862 0.0
H3448 H 0.70043 0.7657 0.08749 0.0
H3449 H 0.6835 0.73343 0.09497 0.0
H3450 H 0.67393 0.7516 0.17114 0.0
H3451 H 0.64961 0.75536 0.18252 0.0
H3452 H 0.66319 0.77649 0.17244 0.0
H3453 H 0.63276 0.7854 0.14974 0.0
H3454 H 0.61905 0.76428 0.15978 0.0
H3455 H 0.62264 0.76659 0.133 0.0
H3456 H 0.66458 0.7039 0.10904 0.0
H3457 H 0.64574 0.67903 0.12906 0.0
H3458 H 0.62719 0.7263 0.17022 0.0
C3459 C 0.67317 0.78048 0.12874 0.0
C3460 C 0.68667 0.78195 0.1124 0.0
C3461 C 0.69024 0.76485 0.10017 0.0
C3462 C 0.6806 0.74653 0.10421 0.0
C3463 C 0.66741 0.74561 0.12048 0.0
C3464 C 0.66368 0.76214 0.13253 0.0
C3465 C 0.64951 0.757 0.14959 0.0
C3466 C 0.65967 0.76031 0.17013 0.0
C3467 C 0.62982 0.76903 0.14792 0.0
C3468 C 0.6461 0.7349 0.14544 0.0
C3469 C 0.65643 0.72864 0.12851 0.0
C3470 C 0.65621 0.70867 0.12217 0.0
C3471 C 0.64533 0.69468 0.13358 0.0
C3472 C 0.63482 0.70072 0.15115 0.0
C3473 C 0.63508 0.72118 0.15692 0.0
H3474 H 0.30229 0.62824 0.17882 0.0
H3475 H 0.27076 0.59424 0.22461 0.0
H3476 H 0.23857 0.5999 0.20669 0.0
H3477 H 0.26569 0.66597 0.17428 0.0
H3478 H 0.26879 0.66945 0.14757 0.0
H3479 H 0.2895 0.66049 0.1625 0.0
H3480 H 0.29267 0.62917 0.13943 0.0
H3481 H 0.27189 0.63804 0.12443 0.0
H3482 H 0.27107 0.61327 0.13544 0.0
H3483 H 0.20985 0.61084 0.18493 0.0
H3484 H 0.1861 0.62884 0.16275 0.0
H3485 H 0.23623 0.657 0.13191 0.0
C3486 C 0.28861 0.62169 0.18478 0.0
C3487 C 0.28884 0.61061 0.20286 0.0
C3488 C 0.27072 0.60268 0.21067 0.0
C3489 C 0.25247 0.60572 0.20055 0.0
C3490 C 0.25268 0.61686 0.18279 0.0
C3491 C 0.27025 0.62487 0.17505 0.0
C3492 C 0.2661 0.63791 0.15685 0.0
C3493 C 0.27292 0.65975 0.16053 0.0
C3494 C 0.27602 0.62906 0.13792 0.0
C3495 C 0.24342 0.63632 0.1558 0.0
C3496 C 0.23602 0.62378 0.17063 0.0
C3497 C 0.21547 0.62053 0.17312 0.0
C3498 C 0.20211 0.63072 0.16039 0.0
C3499 C 0.20937 0.64418 0.14556 0.0
C3500 C 0.23031 0.64673 0.14308 0.0
H3501 H 0.77775 0.34181 0.1425 0.0
H3502 H 0.75624 0.29284 0.10498 0.0
H3503 H 0.72134 0.30043 0.11512 0.0
H3504 H 0.74426 0.33406 0.18271 0.0
H3505 H 0.74048 0.36038 0.18811 0.0
H3506 H 0.76369 0.35207 0.1769 0.0
H3507 H 0.75853 0.37688 0.14727 0.0
H3508 H 0.73537 0.38541 0.15849 0.0
H3509 H 0.73547 0.37605 0.13303 0.0
H3510 H 0.68913 0.31203 0.13073 0.0
H3511 H 0.66161 0.32728 0.15045 0.0
H3512 H 0.70404 0.36924 0.17709 0.0
C3513 C 0.76566 0.33296 0.1361 0.0
C3514 C 0.76966 0.31675 0.12296 0.0
C3515 C 0.75348 0.30523 0.11522 0.0
C3516 C 0.73362 0.30947 0.1208 0.0
C3517 C 0.73021 0.32533 0.13405 0.0
C3518 C 0.74574 0.33697 0.14153 0.0
C3519 C 0.73805 0.35265 0.15615 0.0
C3520 C 0.74716 0.34959 0.17721 0.0
C3521 C 0.74209 0.37402 0.14825 0.0
C3522 C 0.71582 0.3478 0.15594 0.0
C3523 C 0.7116 0.33207 0.14303 0.0
C3524 C 0.6922 0.32453 0.14072 0.0
C3525 C 0.67666 0.33334 0.15193 0.0
C3526 C 0.68065 0.34949 0.16527 0.0
C3527 C 0.70051 0.3568 0.16717 0.0
H3528 H 0.09871 0.18558 0.26594 0.0
H3529 H 0.13546 0.14864 0.2263 0.0
H3530 H 0.12682 0.17056 0.19798 0.0
H3531 H 0.05895 0.19363 0.23049 0.0
H3532 H 0.05425 0.21914 0.23845 0.0
H3533 H 0.064 0.20103 0.25609 0.0
H3534 H 0.09438 0.2243 0.26371 0.0
H3535 H 0.08457 0.24262 0.24635 0.0
H3536 H 0.10979 0.23318 0.24323 0.0
H3537 H 0.11386 0.19641 0.17357 0.0
H3538 H 0.09912 0.22547 0.15571 0.0
H3539 H 0.06972 0.24438 0.21088 0.0
C3540 C 0.10497 0.18197 0.25137 0.0
C3541 C 0.11782 0.16521 0.24865 0.0
C3542 C 0.12582 0.16141 0.22917 0.0
C3543 C 0.12082 0.1737 0.21279 0.0
C3544 C 0.1077 0.18969 0.216 0.0
C3545 C 0.09997 0.19391 0.23481 0.0
C3546 C 0.08613 0.21198 0.23424 0.0
C3547 C 0.06456 0.20609 0.24017 0.0
C3548 C 0.09421 0.22903 0.24767 0.0
C3549 C 0.08745 0.21739 0.21217 0.0
C3550 C 0.09992 0.20431 0.20188 0.0
C3551 C 0.10402 0.20671 0.18146 0.0
C3552 C 0.0956 0.22326 0.17144 0.0
C3553 C 0.08327 0.23718 0.18187 0.0
C3554 C 0.07881 0.23386 0.20238 0.0
H3555 H 0.81173 0.13908 0.23269 0.0
H3556 H 0.86139 0.09958 0.21725 0.0
H3557 H 0.84207 0.0865 0.18841 0.0
H3558 H 0.77184 0.10429 0.22015 0.0
H3559 H 0.75565 0.1235 0.20996 0.0
H3560 H 0.77333 0.1297 0.22954 0.0
H3561 H 0.78867 0.15759 0.20698 0.0
H3562 H 0.771 0.15148 0.18738 0.0
H3563 H 0.7976 0.15122 0.18217 0.0
H3564 H 0.81755 0.0781 0.16084 0.0
H3565 H 0.78932 0.07482 0.13681 0.0
H3566 H 0.75579 0.11966 0.17044 0.0
C3567 C 0.81846 0.12753 0.22338 0.0
C3568 C 0.83812 0.12043 0.22721 0.0
C3569 C 0.84649 0.1055 0.21446 0.0
C3570 C 0.83558 0.09787 0.19811 0.0
C3571 C 0.8163 0.10529 0.19469 0.0
C3572 C 0.80779 0.11978 0.20697 0.0
C3573 C 0.78693 0.12544 0.19981 0.0
C3574 C 0.771 0.12043 0.21582 0.0
C3575 C 0.78601 0.14775 0.19372 0.0
C3576 C 0.78503 0.1118 0.18166 0.0
C3577 C 0.80213 0.10033 0.17893 0.0
C3578 C 0.80402 0.08693 0.16289 0.0
C3579 C 0.78796 0.0852 0.14931 0.0
C3580 C 0.77024 0.09673 0.15194 0.0
C3581 C 0.76888 0.11023 0.16831 0.0
H3582 H 0.88837 0.78493 0.16417 0.0
H3583 H 0.86641 0.73105 0.19352 0.0
H3584 H 0.85255 0.75158 0.22109 0.0
H3585 H 0.90715 0.80629 0.20497 0.0
H3586 H 0.90081 0.83214 0.1997 0.0
H3587 H 0.90365 0.81458 0.17938 0.0
H3588 H 0.8677 0.82278 0.16672 0.0
H3589 H 0.86485 0.8407 0.18691 0.0
H3590 H 0.84671 0.82081 0.18378 0.0
H3591 H 0.84819 0.77595 0.24841 0.0
H3592 H 0.85225 0.80315 0.27332 0.0
H3593 H 0.87766 0.84159 0.22717 0.0
C3594 C 0.87972 0.77769 0.17592 0.0
C3595 C 0.87818 0.75656 0.17675 0.0
C3596 C 0.86755 0.7473 0.19267 0.0
C3597 C 0.85956 0.75884 0.20832 0.0
C3598 C 0.86228 0.7796 0.20777 0.0
C3599 C 0.87184 0.78905 0.19184 0.0
C3600 C 0.87559 0.81108 0.19648 0.0
C3601 C 0.89813 0.8163 0.19506 0.0
C3602 C 0.86296 0.82464 0.18265 0.0
C3603 C 0.86809 0.81206 0.21798 0.0
C3604 C 0.85997 0.79389 0.22398 0.0
C3605 C 0.85404 0.79042 0.24378 0.0
C3606 C 0.85664 0.80584 0.25788 0.0
C3607 C 0.86526 0.82444 0.25216 0.0
C3608 C 0.87063 0.82767 0.23185 0.0
H3609 H 0.24221 0.92899 0.18385 0.0
H3610 H 0.22052 0.89184 0.13471 0.0
H3611 H 0.19496 0.8771 0.15732 0.0
H3612 H 0.24 0.892 0.21965 0.0
H3613 H 0.23238 0.90793 0.24025 0.0
H3614 H 0.24656 0.91832 0.21967 0.0
H3615 H 0.21874 0.94499 0.21297 0.0
H3616 H 0.20513 0.93515 0.23422 0.0
H3617 H 0.19302 0.93688 0.21001 0.0
H3618 H 0.1747 0.86358 0.1862 0.0
H3619 H 0.15959 0.8538 0.21865 0.0
H3620 H 0.19502 0.89948 0.24901 0.0
C3621 C 0.23157 0.91839 0.17756 0.0
C3622 C 0.23323 0.91172 0.15742 0.0
C3623 C 0.21941 0.89728 0.15003 0.0
C3624 C 0.20489 0.88879 0.16278 0.0
C3625 C 0.20437 0.89496 0.18284 0.0
C3626 C 0.21718 0.90962 0.19012 0.0
C3627 C 0.21487 0.91227 0.21265 0.0
C3628 C 0.23462 0.90733 0.22369 0.0
C3629 C 0.20748 0.93359 0.21775 0.0
C3630 C 0.19888 0.89666 0.21697 0.0
C3631 C 0.19298 0.8869 0.19956 0.0
C3632 C 0.17896 0.87136 0.19987 0.0
C3633 C 0.17046 0.86591 0.21838 0.0
C3634 C 0.17602 0.87593 0.23638 0.0
C3635 C 0.19055 0.89142 0.23558 0.0
H3636 H 0.08947 0.80273 0.84327 0.0
H3637 H 0.13985 0.76116 0.84397 0.0
H3638 H 0.1538 0.77738 0.8138 0.0
H3639 H 0.08236 0.80356 0.79176 0.0
H3640 H 0.0767 0.82999 0.78956 0.0
H3641 H 0.0716 0.81698 0.81275 0.0
H3642 H 0.09354 0.84254 0.83241 0.0
H3643 H 0.09839 0.85588 0.8093 0.0
H3644 H 0.11907 0.84707 0.82447 0.0
H3645 H 0.15974 0.79446 0.78117 0.0
H3646 H 0.15978 0.81494 0.75009 0.0
H3647 H 0.1068 0.84673 0.77088 0.0
C3648 C 0.10374 0.79749 0.83742 0.0
C3649 C 0.11349 0.78059 0.84585 0.0
C3650 C 0.13199 0.77393 0.8376 0.0
C3651 C 0.14008 0.78307 0.82049 0.0
C3652 C 0.12965 0.79906 0.81194 0.0
C3653 C 0.11213 0.80655 0.82031 0.0
C3654 C 0.10354 0.82338 0.80752 0.0
C3655 C 0.0823 0.81815 0.79996 0.0
C3656 C 0.10365 0.84341 0.81912 0.0
C3657 C 0.11861 0.82364 0.79041 0.0
C3658 C 0.13352 0.80946 0.79327 0.0
C3659 C 0.14837 0.80589 0.7789 0.0
C3660 C 0.14816 0.81738 0.76125 0.0
C3661 C 0.13334 0.83234 0.75825 0.0
C3662 C 0.11841 0.83551 0.77303 0.0
H3663 H 0.16437 0.11949 0.75148 0.0
H3664 H 0.16684 0.07 0.70901 0.0
H3665 H 0.18651 0.05003 0.73356 0.0
H3666 H 0.2139 0.11419 0.77066 0.0
H3667 H 0.20696 0.12082 0.79603 0.0
H3668 H 0.1927 0.13051 0.77518 0.0
H3669 H 0.16022 0.11568 0.79094 0.0
H3670 H 0.17457 0.10557 0.81159 0.0
H3671 H 0.15902 0.08918 0.79658 0.0
H3672 H 0.20685 0.0361 0.76246 0.0
H3673 H 0.22911 0.03061 0.79166 0.0
H3674 H 0.21207 0.08903 0.81549 0.0
C3675 C 0.16896 0.1044 0.74739 0.0
C3676 C 0.1641 0.09627 0.72835 0.0
C3677 C 0.17063 0.0766 0.7234 0.0
C3678 C 0.18156 0.06508 0.73735 0.0
C3679 C 0.18576 0.07346 0.75615 0.0
C3680 C 0.17979 0.09275 0.76109 0.0
C3681 C 0.18698 0.0987 0.78186 0.0
C3682 C 0.20097 0.11714 0.78086 0.0
C3683 C 0.16913 0.1025 0.79608 0.0
C3684 C 0.19833 0.07988 0.78772 0.0
C3685 C 0.19725 0.06539 0.77282 0.0
C3686 C 0.20766 0.04726 0.7743 0.0
C3687 C 0.22021 0.04425 0.791 0.0
C3688 C 0.22234 0.05936 0.80591 0.0
C3689 C 0.21058 0.07703 0.80457 0.0
H3690 H 0.89612 0.18194 0.74095 0.0
H3691 H 0.85911 0.14378 0.77873 0.0
H3692 H 0.862 0.16822 0.80651 0.0
H3693 H 0.92996 0.19793 0.78002 0.0
H3694 H 0.93234 0.22327 0.77066 0.0
H3695 H 0.92711 0.20293 0.75352 0.0
H3696 H 0.89526 0.22154 0.74085 0.0
H3697 H 0.9005 0.24201 0.75783 0.0
H3698 H 0.87648 0.22949 0.75875 0.0
H3699 H 0.86851 0.19698 0.83005 0.0
H3700 H 0.8781 0.22833 0.84764 0.0
H3701 H 0.91165 0.24734 0.79489 0.0
C3702 C 0.88852 0.17889 0.75503 0.0
C3703 C 0.87749 0.16098 0.75776 0.0
C3704 C 0.86788 0.15731 0.77645 0.0
C3705 C 0.86937 0.17112 0.79228 0.0
C3706 C 0.88061 0.18851 0.78924 0.0
C3707 C 0.89002 0.19246 0.7711 0.0
C3708 C 0.90134 0.21221 0.77188 0.0
C3709 C 0.92403 0.20888 0.76885 0.0
C3710 C 0.89288 0.2272 0.75641 0.0
C3711 C 0.8967 0.21875 0.79322 0.0
C3712 C 0.8847 0.20489 0.80297 0.0
C3713 C 0.87801 0.20792 0.82262 0.0
C3714 C 0.88355 0.22574 0.83249 0.0
C3715 C 0.89573 0.24022 0.82271 0.0
C3716 C 0.90252 0.23648 0.8029 0.0
H3717 H 0.76426 0.92407 0.79573 0.0
H3718 H 0.78342 0.8964 0.85165 0.0
H3719 H 0.81205 0.88064 0.83394 0.0
H3720 H 0.77266 0.88281 0.76589 0.0
H3721 H 0.78146 0.89629 0.74407 0.0
H3722 H 0.76458 0.90832 0.76147 0.0
H3723 H 0.78986 0.93757 0.76657 0.0
H3724 H 0.8067 0.92586 0.74882 0.0
H3725 H 0.81542 0.93202 0.77374 0.0
H3726 H 0.83643 0.86522 0.80956 0.0
H3727 H 0.85533 0.8519 0.78046 0.0
H3728 H 0.81948 0.88866 0.74023 0.0
C3729 C 0.77489 0.91533 0.80444 0.0
C3730 C 0.77174 0.91166 0.82515 0.0
C3731 C 0.78565 0.89955 0.83583 0.0
C3732 C 0.80194 0.89053 0.82588 0.0
C3733 C 0.80411 0.89378 0.80527 0.0
C3734 C 0.79107 0.90605 0.7947 0.0
C3735 C 0.79562 0.90564 0.77235 0.0
C3736 C 0.7775 0.89779 0.76024 0.0
C3737 C 0.8023 0.92651 0.76494 0.0
C3738 C 0.8129 0.89082 0.77193 0.0
C3739 C 0.81775 0.88438 0.7911 0.0
C3740 C 0.83292 0.87034 0.79451 0.0
C3741 C 0.84356 0.86286 0.7779 0.0
C3742 C 0.83885 0.86924 0.75811 0.0
C3743 C 0.82326 0.88336 0.75516 0.0
H3744 H 0.21554 0.13162 0.1464 0.0
H3745 H 0.26187 0.0929 0.17119 0.0
H3746 H 0.23814 0.08118 0.1972 0.0
H3747 H 0.1944 0.14656 0.19342 0.0
H3748 H 0.16877 0.14679 0.18456 0.0
H3749 H 0.18908 0.15153 0.16728 0.0
H3750 H 0.17656 0.12258 0.14446 0.0
H3751 H 0.15621 0.11766 0.16169 0.0
H3752 H 0.17333 0.09775 0.15489 0.0
H3753 H 0.21007 0.07422 0.22077 0.0
H3754 H 0.17965 0.07366 0.24192 0.0
H3755 H 0.15105 0.11693 0.20228 0.0
C3756 C 0.22059 0.12051 0.15718 0.0
C3757 C 0.24055 0.11313 0.15678 0.0
C3758 C 0.24674 0.0989 0.17136 0.0
C3759 C 0.23331 0.09204 0.18607 0.0
C3760 C 0.21377 0.09958 0.18603 0.0
C3761 C 0.20739 0.11358 0.17207 0.0
C3762 C 0.18579 0.11987 0.17598 0.0
C3763 C 0.18444 0.14253 0.18059 0.0
C3764 C 0.17217 0.11411 0.15819 0.0
C3765 C 0.1811 0.10731 0.19443 0.0
C3766 C 0.19745 0.09563 0.19983 0.0
C3767 C 0.19716 0.08325 0.21669 0.0
C3768 C 0.17985 0.0831 0.22865 0.0
C3769 C 0.16308 0.09529 0.22375 0.0
C3770 C 0.16357 0.10726 0.20619 0.0
H3771 H 0.89943 0.25815 0.17694 0.0
H3772 H 0.85861 0.22296 0.14024 0.0
H3773 H 0.87186 0.19166 0.15536 0.0
H3774 H 0.94159 0.22238 0.17534 0.0
H3775 H 0.94875 0.22723 0.20104 0.0
H3776 H 0.93713 0.24679 0.18629 0.0
H3777 H 0.90913 0.25103 0.21317 0.0
H3778 H 0.92093 0.23187 0.22818 0.0
H3779 H 0.89491 0.2293 0.22103 0.0
H3780 H 0.88664 0.16479 0.17724 0.0
H3781 H 0.90135 0.14455 0.20474 0.0
H3782 H 0.93409 0.19703 0.22558 0.0
C3783 C 0.89334 0.24384 0.17211 0.0
C3784 C 0.87799 0.24289 0.15751 0.0
C3785 C 0.87049 0.22391 0.15134 0.0
C3786 C 0.87795 0.2061 0.15978 0.0
C3787 C 0.89316 0.20753 0.17413 0.0
C3788 C 0.90081 0.22591 0.18019 0.0
C3789 C 0.91636 0.22338 0.1966 0.0
C3790 C 0.93719 0.23036 0.18938 0.0
C3791 C 0.90994 0.23455 0.21588 0.0
C3792 C 0.9157 0.20077 0.19936 0.0
C3793 C 0.90234 0.19187 0.18614 0.0
C3794 C 0.89751 0.17148 0.18735 0.0
C3795 C 0.90596 0.16008 0.20296 0.0
C3796 C 0.91914 0.16911 0.21705 0.0
C3797 C 0.92461 0.18951 0.21467 0.0
H3798 H 0.76232 0.88972 0.17935 0.0
H3799 H 0.8024 0.85393 0.14258 0.0
H3800 H 0.83156 0.86588 0.16283 0.0
H3801 H 0.79623 0.93261 0.18555 0.0
H3802 H 0.78814 0.93726 0.21102 0.0
H3803 H 0.77095 0.92637 0.1931 0.0
H3804 H 0.76495 0.89608 0.21698 0.0
H3805 H 0.78195 0.90697 0.235 0.0
H3806 H 0.78622 0.88178 0.22589 0.0
H3807 H 0.85551 0.87926 0.18992 0.0
H3808 H 0.8721 0.89378 0.22002 0.0
H3809 H 0.81618 0.92295 0.23662 0.0
C3810 C 0.77728 0.88452 0.17555 0.0
C3811 C 0.78026 0.87083 0.15963 0.0
C3812 C 0.79998 0.86446 0.15479 0.0
C3813 C 0.81653 0.87118 0.16617 0.0
C3814 C 0.81304 0.88464 0.18196 0.0
C3815 C 0.79388 0.89141 0.18643 0.0
C3816 C 0.79391 0.90553 0.20426 0.0
C3817 C 0.78689 0.9267 0.19811 0.0
C3818 C 0.781 0.89708 0.22155 0.0
C3819 C 0.81602 0.90535 0.20953 0.0
C3820 C 0.82687 0.89318 0.1966 0.0
C3821 C 0.84723 0.8892 0.19983 0.0
C3822 C 0.85656 0.89754 0.2169 0.0
C3823 C 0.84557 0.9099 0.23037 0.0
C3824 C 0.82519 0.91418 0.22625 0.0
H3825 H 0.10456 0.82608 0.20762 0.0
H3826 H 0.10719 0.80112 0.26792 0.0
H3827 H 0.11328 0.76744 0.2538 0.0
H3828 H 0.07971 0.78228 0.18402 0.0
H3829 H 0.09392 0.78457 0.16104 0.0
H3830 H 0.0883 0.80665 0.17577 0.0
H3831 H 0.12631 0.81515 0.17742 0.0
H3832 H 0.13207 0.79301 0.16288 0.0
H3833 H 0.14366 0.79669 0.18711 0.0
H3834 H 0.12156 0.73712 0.23367 0.0
H3835 H 0.13003 0.7114 0.20846 0.0
H3836 H 0.121 0.75535 0.16089 0.0
C3837 C 0.10603 0.81345 0.21779 0.0
C3838 C 0.1055 0.81624 0.23887 0.0
C3839 C 0.10776 0.79938 0.25173 0.0
C3840 C 0.11114 0.78016 0.24387 0.0
C3841 C 0.11212 0.77797 0.22308 0.0
C3842 C 0.10945 0.79406 0.21017 0.0
C3843 C 0.11198 0.78755 0.18844 0.0
C3844 C 0.0923 0.79043 0.17662 0.0
C3845 C 0.12955 0.79877 0.17838 0.0
C3846 C 0.11679 0.76543 0.19127 0.0
C3847 C 0.11672 0.76025 0.21137 0.0
C3848 C 0.12137 0.74089 0.21784 0.0
C3849 C 0.1261 0.72634 0.20335 0.0
C3850 C 0.1261 0.73115 0.18257 0.0
C3851 C 0.12134 0.75105 0.17657 0.0
H3852 H 0.20262 0.92232 0.76014 0.0
H3853 H 0.14814 0.89318 0.78108 0.0
H3854 H 0.16781 0.87513 0.80697 0.0
H3855 H 0.23198 0.88024 0.76238 0.0
H3856 H 0.25479 0.8926 0.77025 0.0
H3857 H 0.23624 0.90627 0.75608 0.0
H3858 H 0.23388 0.9334 0.7841 0.0
H3859 H 0.25299 0.9201 0.79796 0.0
H3860 H 0.2292 0.92574 0.8097 0.0
H3861 H 0.19414 0.85752 0.82809 0.0
H3862 H 0.22479 0.84251 0.84311 0.0
H3863 H 0.26179 0.88221 0.80696 0.0
C3864 C 0.19466 0.91284 0.77072 0.0
C3865 C 0.17379 0.9094 0.76882 0.0
C3866 C 0.16409 0.89621 0.78246 0.0
C3867 C 0.17515 0.88586 0.79717 0.0
C3868 C 0.19589 0.88887 0.79801 0.0
C3869 C 0.20551 0.90219 0.78525 0.0
C3870 C 0.22812 0.90115 0.78767 0.0
C3871 C 0.23837 0.89468 0.76792 0.0
C3872 C 0.23653 0.9213 0.79532 0.0
C3873 C 0.22977 0.88494 0.80353 0.0
C3874 C 0.21104 0.87818 0.8095 0.0
C3875 C 0.20887 0.86285 0.82367 0.0
C3876 C 0.22631 0.85439 0.83207 0.0
C3877 C 0.24562 0.86109 0.82607 0.0
C3878 C 0.24726 0.87655 0.81161 0.0
H3879 H 0.08935 0.15973 0.78837 0.0
H3880 H 0.12963 0.17941 0.74082 0.0
H3881 H 0.13824 0.2095 0.76047 0.0
H3882 H 0.0701 0.20723 0.80091 0.0
H3883 H 0.06935 0.20299 0.82769 0.0
H3884 H 0.06718 0.18207 0.81061 0.0
H3885 H 0.09755 0.1645 0.82774 0.0
H3886 H 0.09958 0.18524 0.84509 0.0
H3887 H 0.12101 0.17788 0.83022 0.0
H3888 H 0.14085 0.23863 0.78414 0.0
H3889 H 0.13988 0.2631 0.81213 0.0
H3890 H 0.09788 0.22465 0.84404 0.0
C3891 C 0.10023 0.17019 0.78223 0.0
C3892 C 0.10869 0.16722 0.76297 0.0
C3893 C 0.12284 0.18133 0.75547 0.0
C3894 C 0.12784 0.19854 0.76651 0.0
C3895 C 0.11874 0.20133 0.78513 0.0
C3896 C 0.10551 0.18741 0.79312 0.0
C3897 C 0.09772 0.19419 0.81341 0.0
C3898 C 0.07472 0.19678 0.81312 0.0
C3899 C 0.10437 0.17959 0.8301 0.0
C3900 C 0.1083 0.21426 0.8153 0.0
C3901 C 0.12037 0.2181 0.79886 0.0
C3902 C 0.13152 0.23577 0.79717 0.0
C3903 C 0.1307 0.24968 0.81301 0.0
C3904 C 0.11884 0.24577 0.83026 0.0
C3905 C 0.10727 0.22796 0.83116 0.0
H3906 H 0.81851 0.08689 0.76616 0.0
H3907 H 0.86774 0.09993 0.80693 0.0
H3908 H 0.84415 0.11783 0.82959 0.0
H3909 H 0.79378 0.13339 0.77066 0.0
H3910 H 0.76873 0.12306 0.76967 0.0
H3911 H 0.78917 0.1102 0.75736 0.0
H3912 H 0.78152 0.07772 0.77758 0.0
H3913 H 0.76076 0.09031 0.78959 0.0
H3914 H 0.78019 0.07888 0.80465 0.0
H3915 H 0.81549 0.13634 0.8463 0.0
H3916 H 0.78319 0.15017 0.85831 0.0
H3917 H 0.75287 0.12415 0.80667 0.0
C3918 C 0.82424 0.09321 0.78005 0.0
C3919 C 0.84485 0.09201 0.78493 0.0
C3920 C 0.8519 0.10045 0.80315 0.0
C3921 C 0.83868 0.11082 0.81594 0.0
C3922 C 0.81852 0.11234 0.8103 0.0
C3923 C 0.81128 0.10343 0.79298 0.0
C3924 C 0.78904 0.10723 0.79023 0.0
C3925 C 0.78495 0.11918 0.77083 0.0
C3926 C 0.77718 0.08736 0.79054 0.0
C3927 C 0.78482 0.11977 0.80873 0.0
C3928 C 0.80205 0.12271 0.82002 0.0
C3929 C 0.80188 0.13391 0.83771 0.0
C3930 C 0.78347 0.14169 0.84441 0.0
C3931 C 0.76547 0.13806 0.83354 0.0
C3932 C 0.76634 0.12735 0.81523 0.0
H3933 H 0.93521 0.79073 0.76747 0.0
H3934 H 0.89713 0.84206 0.78096 0.0
H3935 H 0.88483 0.82489 0.81143 0.0
H3936 H 0.90103 0.75427 0.77987 0.0
H3937 H 0.91854 0.73687 0.79111 0.0
H3938 H 0.92704 0.75424 0.77218 0.0
H3939 H 0.95417 0.7681 0.79653 0.0
H3940 H 0.94599 0.75051 0.81548 0.0
H3941 H 0.94681 0.77703 0.82107 0.0
H3942 H 0.8737 0.80081 0.83785 0.0
H3943 H 0.86543 0.7719 0.85948 0.0
H3944 H 0.91068 0.73598 0.82903 0.0
C3945 C 0.92479 0.79865 0.77717 0.0
C3946 C 0.91714 0.81777 0.77184 0.0
C3947 C 0.90316 0.82741 0.78471 0.0
C3948 C 0.89613 0.81779 0.80209 0.0
C3949 C 0.90336 0.79861 0.80647 0.0
C3950 C 0.91758 0.78922 0.79455 0.0
C3951 C 0.92165 0.76795 0.80173 0.0
C3952 C 0.91676 0.75243 0.78524 0.0
C3953 C 0.94345 0.76578 0.80914 0.0
C3954 C 0.90692 0.76661 0.81905 0.0
C3955 C 0.89676 0.78456 0.82169 0.0
C3956 C 0.88181 0.78679 0.83617 0.0
C3957 C 0.87724 0.77027 0.8484 0.0
C3958 C 0.88749 0.75171 0.84602 0.0
C3959 C 0.90253 0.74992 0.83112 0.0
H3960 H 0.17406 0.2625 0.1054 0.0
H3961 H 0.14523 0.22859 0.15298 0.0
H3962 H 0.16299 0.19778 0.14193 0.0
H3963 H 0.17131 0.22342 0.06814 0.0
H3964 H 0.19534 0.22925 0.05703 0.0
H3965 H 0.18086 0.24879 0.06902 0.0
H3966 H 0.21087 0.2572 0.09247 0.0
H3967 H 0.22558 0.23797 0.08031 0.0
H3968 H 0.22218 0.23744 0.10721 0.0
H3969 H 0.18454 0.17086 0.12603 0.0
H3970 H 0.2088 0.15013 0.10692 0.0
H3971 H 0.22216 0.20143 0.06874 0.0
C3972 C 0.17178 0.24864 0.11362 0.0
C3973 C 0.15848 0.24787 0.13013 0.0
C3974 C 0.15543 0.22939 0.1403 0.0
C3975 C 0.16539 0.21185 0.13411 0.0
C3976 C 0.17816 0.21302 0.11755 0.0
C3977 C 0.18138 0.23093 0.10745 0.0
C3978 C 0.19566 0.22805 0.08995 0.0
C3979 C 0.18516 0.23265 0.06985 0.0
C3980 C 0.2147 0.24093 0.09266 0.0
C3981 C 0.20023 0.20582 0.09201 0.0
C3982 C 0.18998 0.19739 0.10799 0.0
C3983 C 0.19253 0.17726 0.11337 0.0
C3984 C 0.2063 0.16558 0.10239 0.0
C3985 C 0.21729 0.17406 0.08622 0.0
C3986 C 0.2138 0.19434 0.08079 0.0
H3987 H 0.23877 0.81304 0.88578 0.0
H3988 H 0.27229 0.77903 0.9304 0.0
H3989 H 0.24651 0.75249 0.92957 0.0
H3990 H 0.18873 0.79989 0.90485 0.0
H3991 H 0.17788 0.79833 0.88005 0.0
H3992 H 0.19861 0.81515 0.88473 0.0
H3993 H 0.2187 0.79827 0.85594 0.0
H3994 H 0.19814 0.78125 0.8513 0.0
H3995 H 0.22288 0.77146 0.85651 0.0
H3996 H 0.21842 0.72845 0.92234 0.0
H3997 H 0.18791 0.71012 0.91144 0.0
H3998 H 0.17214 0.75984 0.87228 0.0
C3999 C 0.24054 0.80016 0.89559 0.0
C4000 C 0.25762 0.79815 0.90813 0.0
C4001 C 0.25939 0.78097 0.92065 0.0
C4002 C 0.24483 0.76574 0.92027 0.0
C4003 C 0.22847 0.76794 0.90742 0.0
C4004 C 0.22606 0.78483 0.89551 0.0
C4005 C 0.20708 0.78334 0.88296 0.0
C4006 C 0.19219 0.80018 0.88849 0.0
C4007 C 0.21201 0.78359 0.86034 0.0
C4008 C 0.19937 0.76291 0.88955 0.0
C4009 C 0.21199 0.75423 0.90358 0.0
C4010 C 0.20832 0.73515 0.91148 0.0
C4011 C 0.19107 0.72477 0.9051 0.0
C4012 C 0.17767 0.73359 0.89112 0.0
C4013 C 0.18201 0.75286 0.8832 0.0
H4014 H 0.22782 0.16704 0.87454 0.0
H4015 H 0.1928 0.12136 0.84386 0.0
H4016 H 0.1614 0.13737 0.85606 0.0
H4017 H 0.19654 0.17098 0.91824 0.0
H4018 H 0.19982 0.19779 0.92065 0.0
H4019 H 0.21936 0.18271 0.90946 0.0
H4020 H 0.21839 0.20488 0.87733 0.0
H4021 H 0.19907 0.22015 0.88859 0.0
H4022 H 0.19482 0.20857 0.86444 0.0
H4023 H 0.13371 0.15941 0.87118 0.0
H4024 H 0.11257 0.18583 0.88693 0.0
H4025 H 0.16637 0.21573 0.90853 0.0
C4026 C 0.21357 0.16051 0.87019 0.0
C4027 C 0.21273 0.143 0.85819 0.0
C4028 C 0.19375 0.1347 0.85317 0.0
C4029 C 0.17587 0.1437 0.86 0.0
C4030 C 0.17727 0.16088 0.87199 0.0
C4031 C 0.19567 0.16918 0.877 0.0
C4032 C 0.19323 0.1877 0.88998 0.0
C4033 C 0.2028 0.1846 0.91082 0.0
C4034 C 0.20189 0.20643 0.87945 0.0
C4035 C 0.17058 0.1887 0.89136 0.0
C4036 C 0.16154 0.17314 0.88094 0.0
C4037 C 0.14065 0.17154 0.87954 0.0
C4038 C 0.12876 0.18651 0.88865 0.0
C4039 C 0.13786 0.20282 0.8989 0.0
C4040 C 0.159 0.20354 0.90063 0.0
H4041 H 0.76544 0.17562 0.88851 0.0
H4042 H 0.74185 0.20135 0.94376 0.0
H4043 H 0.76708 0.22842 0.94188 0.0
H4044 H 0.81946 0.1894 0.89767 0.0
H4045 H 0.82359 0.19483 0.87142 0.0
H4046 H 0.80565 0.17582 0.87867 0.0
H4047 H 0.77816 0.19417 0.85815 0.0
H4048 H 0.79584 0.21339 0.85109 0.0
H4049 H 0.77269 0.22022 0.86347 0.0
H4050 H 0.79115 0.25511 0.93167 0.0
H4051 H 0.81451 0.27865 0.91493 0.0
H4052 H 0.82355 0.23571 0.86671 0.0
C4053 C 0.76596 0.18657 0.90056 0.0
C4054 C 0.75164 0.1863 0.91634 0.0
C4055 C 0.75264 0.20118 0.93156 0.0
C4056 C 0.76695 0.21664 0.93063 0.0
C4057 C 0.78032 0.21691 0.9145 0.0
C4058 C 0.78021 0.20212 0.89988 0.0
C4059 C 0.79532 0.20676 0.88338 0.0
C4060 C 0.812 0.19075 0.88276 0.0
C4061 C 0.78487 0.20876 0.86281 0.0
C4062 C 0.80339 0.22685 0.89066 0.0
C4063 C 0.79458 0.23231 0.90872 0.0
C4064 C 0.79841 0.25085 0.91773 0.0
C4065 C 0.81154 0.26418 0.90806 0.0
C4066 C 0.82079 0.25892 0.88962 0.0
C4067 C 0.81686 0.23989 0.88096 0.0
H4068 H 0.74049 0.81398 0.89558 0.0
H4069 H 0.78177 0.85272 0.8631 0.0
H4070 H 0.81023 0.8315 0.874 0.0
H4071 H 0.77321 0.80377 0.9379 0.0
H4072 H 0.76526 0.77795 0.94025 0.0
H4073 H 0.74817 0.79655 0.93042 0.0
H4074 H 0.74319 0.77516 0.89817 0.0
H4075 H 0.76013 0.75644 0.90797 0.0
H4076 H 0.76487 0.76761 0.88372 0.0
H4077 H 0.83398 0.80524 0.88718 0.0
H4078 H 0.85127 0.77564 0.90146 0.0
H4079 H 0.79451 0.75425 0.92564 0.0
C4080 C 0.7555 0.81796 0.89069 0.0
C4081 C 0.75891 0.83505 0.87853 0.0
C4082 C 0.77883 0.83986 0.87264 0.0
C4083 C 0.79508 0.82787 0.8787 0.0
C4084 C 0.79119 0.81118 0.89075 0.0
C4085 C 0.7719 0.80622 0.8967 0.0
C4086 C 0.77176 0.78727 0.90934 0.0
C4087 C 0.76415 0.79166 0.93075 0.0
C4088 C 0.75925 0.77064 0.89918 0.0
C4089 C 0.79395 0.78218 0.90932 0.0
C4090 C 0.80491 0.7962 0.89857 0.0
C4091 C 0.82558 0.79425 0.89576 0.0
C4092 C 0.83526 0.77738 0.90391 0.0
C4093 C 0.82426 0.76267 0.91473 0.0
C4094 C 0.80339 0.76535 0.9177 0.0
H4095 H 0.84404 0.77618 0.1098 0.0
H4096 H 0.8458 0.74676 0.05147 0.0
H4097 H 0.82107 0.77124 0.03858 0.0
H4098 H 0.79241 0.78617 0.11063 0.0
H4099 H 0.79489 0.81023 0.12293 0.0
H4100 H 0.81354 0.79104 0.12692 0.0
H4101 H 0.84131 0.81582 0.11531 0.0
H4102 H 0.82263 0.83501 0.11102 0.0
H4103 H 0.83936 0.82763 0.09097 0.0
H4104 H 0.79428 0.79755 0.03291 0.0
H4105 H 0.76664 0.82231 0.03545 0.0
H4106 H 0.78407 0.83535 0.09701 0.0
C4107 C 0.83961 0.77501 0.0942 0.0
C4108 C 0.84712 0.75956 0.08164 0.0
C4109 C 0.84027 0.75834 0.06148 0.0
C4110 C 0.82635 0.77233 0.05394 0.0
C4111 C 0.81948 0.78748 0.06673 0.0
C4112 C 0.82588 0.78887 0.08644 0.0
C4113 C 0.81545 0.80584 0.09748 0.0
C4114 C 0.80335 0.79783 0.11554 0.0
C4115 C 0.83059 0.82203 0.10408 0.0
C4116 C 0.80178 0.81354 0.08102 0.0
C4117 C 0.80442 0.80288 0.06334 0.0
C4118 C 0.7923 0.8062 0.04656 0.0
C4119 C 0.77667 0.82031 0.04814 0.0
C4120 C 0.77334 0.8309 0.06634 0.0
C4121 C 0.78651 0.82788 0.08273 0.0
H4122 H 0.21025 0.73954 0.0888 0.0
H4123 H 0.15587 0.76042 0.11834 0.0
H4124 H 0.17304 0.79217 0.1274 0.0
H4125 H 0.24405 0.75845 0.12519 0.0
H4126 H 0.26325 0.76526 0.1073 0.0
H4127 H 0.24625 0.74492 0.10177 0.0
H4128 H 0.23578 0.76239 0.06852 0.0
H4129 H 0.25288 0.78273 0.07386 0.0
H4130 H 0.22669 0.78795 0.06918 0.0
H4131 H 0.19652 0.82131 0.13385 0.0
H4132 H 0.22474 0.84523 0.13789 0.0
H4133 H 0.2639 0.80453 0.1052 0.0
C4134 C 0.20182 0.75091 0.09688 0.0
C4135 C 0.18168 0.7476 0.10273 0.0
C4136 C 0.17131 0.76269 0.11365 0.0
C4137 C 0.18092 0.78076 0.11885 0.0
C4138 C 0.20091 0.78341 0.1131 0.0
C4139 C 0.21124 0.76888 0.10238 0.0
C4140 C 0.2329 0.77495 0.09887 0.0
C4141 C 0.24746 0.76001 0.10889 0.0
C4142 C 0.23731 0.77714 0.07627 0.0
C4143 C 0.23319 0.79514 0.10938 0.0
C4144 C 0.21456 0.79985 0.11734 0.0
C4145 C 0.21116 0.8178 0.12764 0.0
C4146 C 0.22723 0.8313 0.12982 0.0
C4147 C 0.24648 0.82667 0.12191 0.0
C4148 C 0.24942 0.80832 0.11162 0.0
H4149 H 0.73618 0.19228 0.09196 0.0
H4150 H 0.77404 0.15126 0.12581 0.0
H4151 H 0.80394 0.17106 0.11644 0.0
H4152 H 0.77158 0.20229 0.05134 0.0
H4153 H 0.76486 0.22851 0.0496 0.0
H4154 H 0.74649 0.21032 0.05778 0.0
H4155 H 0.74065 0.23065 0.09064 0.0
H4156 H 0.75873 0.24899 0.08237 0.0
H4157 H 0.76186 0.23681 0.10638 0.0
H4158 H 0.82939 0.19671 0.10555 0.0
H4159 H 0.84804 0.22714 0.09519 0.0
H4160 H 0.79365 0.25093 0.06798 0.0
C4161 C 0.75074 0.18745 0.09738 0.0
C4162 C 0.75276 0.1701 0.10944 0.0
C4163 C 0.77214 0.16426 0.1162 0.0
C4164 C 0.78923 0.17543 0.11099 0.0
C4165 C 0.78673 0.19236 0.09894 0.0
C4166 C 0.76797 0.19839 0.09227 0.0
C4167 C 0.76926 0.21776 0.08041 0.0
C4168 C 0.76266 0.21451 0.05848 0.0
C4169 C 0.7569 0.23454 0.09056 0.0
C4170 C 0.79161 0.22186 0.08178 0.0
C4171 C 0.80147 0.20699 0.09242 0.0
C4172 C 0.8219 0.20831 0.09694 0.0
C4173 C 0.83239 0.22563 0.09096 0.0
C4174 C 0.82237 0.24133 0.08062 0.0
C4175 C 0.80188 0.23904 0.07547 0.0
H4176 H 0.58233 0.73471 0.698 0.0
H4177 H 0.60819 0.71692 0.64072 0.0
H4178 H 0.62652 0.68935 0.65761 0.0
H4179 H 0.62577 0.72761 0.72644 0.0
H4180 H 0.61322 0.71813 0.74852 0.0
H4181 H 0.60022 0.73498 0.73178 0.0
H4182 H 0.57149 0.70901 0.72728 0.0
H4183 H 0.58419 0.69221 0.74433 0.0
H4184 H 0.57745 0.68372 0.71947 0.0
H4185 H 0.64375 0.66524 0.68108 0.0
H4186 H 0.65769 0.64545 0.7093 0.0
H4187 H 0.62115 0.67956 0.75127 0.0
C4188 C 0.59137 0.72467 0.68889 0.0
C4189 C 0.59371 0.72787 0.668 0.0
C4190 C 0.60612 0.71469 0.65673 0.0
C4191 C 0.6166 0.69901 0.66619 0.0
C4192 C 0.6145 0.69673 0.68692 0.0
C4193 C 0.60207 0.70908 0.69812 0.0
C4194 C 0.60333 0.70417 0.72034 0.0
C4195 C 0.6111 0.7223 0.73247 0.0
C4196 C 0.5829 0.69684 0.72832 0.0
C4197 C 0.61862 0.6873 0.71993 0.0
C4198 C 0.62477 0.68315 0.7005 0.0
C4199 C 0.63893 0.66826 0.69634 0.0
C4200 C 0.64676 0.65712 0.71244 0.0
C4201 C 0.64053 0.661 0.73246 0.0
C4202 C 0.6264 0.67643 0.73618 0.0
H4203 H 0.35104 0.58233 0.75844 0.0
H4204 H 0.3279 0.63654 0.78642 0.0
H4205 H 0.29832 0.63538 0.76402 0.0
H4206 H 0.33965 0.59581 0.70992 0.0
H4207 H 0.33274 0.57107 0.70117 0.0
H4208 H 0.35025 0.57376 0.72164 0.0
H4209 H 0.32786 0.55161 0.7445 0.0
H4210 H 0.31045 0.54831 0.72401 0.0
H4211 H 0.30171 0.55794 0.74782 0.0
H4212 H 0.27392 0.63095 0.73566 0.0
H4213 H 0.25428 0.62161 0.70569 0.0
H4214 H 0.29379 0.57057 0.69552 0.0
C4215 C 0.33945 0.59361 0.76024 0.0
C4216 C 0.34173 0.60945 0.77425 0.0
C4217 C 0.32633 0.62406 0.77608 0.0
C4218 C 0.30957 0.62363 0.76326 0.0
C4219 C 0.30841 0.60842 0.74885 0.0
C4220 C 0.32276 0.59346 0.74751 0.0
C4221 C 0.31881 0.57965 0.7298 0.0
C4222 C 0.33641 0.58011 0.71475 0.0
C4223 C 0.31444 0.5581 0.73697 0.0
C4224 C 0.3002 0.58943 0.72111 0.0
C4225 C 0.29442 0.60595 0.73237 0.0
C4226 C 0.27809 0.61784 0.72694 0.0
C4227 C 0.26704 0.61241 0.70984 0.0
C4228 C 0.27234 0.59522 0.69834 0.0
C4229 C 0.28932 0.58376 0.70398 0.0
H4230 H 0.37933 0.265 0.68529 0.0
H4231 H 0.42917 0.30012 0.66185 0.0
H4232 H 0.42189 0.32683 0.68665 0.0
H4233 H 0.34608 0.30688 0.69516 0.0
H4234 H 0.33612 0.29597 0.7179 0.0
H4235 H 0.34498 0.27992 0.69791 0.0
H4236 H 0.36917 0.2622 0.72284 0.0
H4237 H 0.36046 0.27825 0.74288 0.0
H4238 H 0.38691 0.27704 0.73701 0.0
H4239 H 0.40958 0.34943 0.71439 0.0
H4240 H 0.39298 0.36638 0.74297 0.0
H4241 H 0.35142 0.31639 0.74852 0.0
C4242 C 0.38873 0.2783 0.68531 0.0
C4243 C 0.40487 0.28042 0.67162 0.0
C4244 C 0.41672 0.29813 0.67216 0.0
C4245 C 0.41271 0.31339 0.6862 0.0
C4246 C 0.3968 0.31071 0.69958 0.0
C4247 C 0.38497 0.29363 0.69923 0.0
C4248 C 0.36894 0.29434 0.7154 0.0
C4249 C 0.34778 0.29428 0.70603 0.0
C4250 C 0.37153 0.27692 0.73042 0.0
C4251 C 0.3737 0.31443 0.72505 0.0
C4252 C 0.38977 0.32368 0.71562 0.0
C4253 C 0.39692 0.34238 0.72181 0.0
C4254 C 0.38734 0.35193 0.73799 0.0
C4255 C 0.37086 0.34273 0.7479 0.0
C4256 C 0.36407 0.32369 0.74133 0.0
H4257 H 0.72458 0.43625 0.6857 0.0
H4258 H 0.7079 0.39926 0.63452 0.0
H4259 H 0.67919 0.38569 0.65381 0.0
H4260 H 0.71647 0.39996 0.72156 0.0
H4261 H 0.70665 0.41643 0.74076 0.0
H4262 H 0.7237 0.4261 0.7221 0.0
H4263 H 0.69773 0.45336 0.71187 0.0
H4264 H 0.68073 0.44403 0.73082 0.0
H4265 H 0.67256 0.44591 0.70505 0.0
H4266 H 0.6545 0.37384 0.67948 0.0
H4267 H 0.63491 0.36482 0.70967 0.0
H4268 H 0.66863 0.4082 0.74485 0.0
C4269 C 0.71445 0.42588 0.67826 0.0
C4270 C 0.71827 0.41903 0.65847 0.0
C4271 C 0.70509 0.40487 0.64956 0.0
C4272 C 0.68878 0.39707 0.66042 0.0
C4273 C 0.68592 0.40356 0.68017 0.0
C4274 C 0.69827 0.41776 0.68899 0.0
C4275 C 0.69308 0.42074 0.71102 0.0
C4276 C 0.71104 0.41549 0.72465 0.0
C4277 C 0.68558 0.44229 0.71491 0.0
C4278 C 0.67622 0.40562 0.71335 0.0
C4279 C 0.67214 0.39612 0.69528 0.0
C4280 C 0.65742 0.38133 0.69365 0.0
C4281 C 0.6464 0.37631 0.71086 0.0
C4282 C 0.65027 0.38586 0.72954 0.0
C4283 C 0.66549 0.4006 0.73079 0.0
H4284 H 0.55504 0.24816 0.30879 0.0
H4285 H 0.58825 0.27548 0.35794 0.0
H4286 H 0.59328 0.30603 0.33736 0.0
H4287 H 0.58707 0.26303 0.27193 0.0
H4288 H 0.56835 0.26748 0.25282 0.0
H4289 H 0.56349 0.24965 0.27255 0.0
H4290 H 0.53095 0.26874 0.28239 0.0
H4291 H 0.53548 0.28653 0.26243 0.0
H4292 H 0.53213 0.29529 0.28788 0.0
H4293 H 0.59863 0.3313 0.31007 0.0
H4294 H 0.60413 0.34946 0.27842 0.0
H4295 H 0.56828 0.30511 0.24654 0.0
C4296 C 0.56272 0.26083 0.31556 0.0
C4297 C 0.57107 0.25953 0.33508 0.0
C4298 C 0.58156 0.27623 0.3431 0.0
C4299 C 0.58446 0.29364 0.33153 0.0
C4300 C 0.57675 0.29406 0.31201 0.0
C4301 C 0.56597 0.27813 0.30413 0.0
C4302 C 0.56141 0.28124 0.28202 0.0
C4303 C 0.57064 0.26435 0.26908 0.0
C4304 C 0.53864 0.28306 0.27848 0.0
C4305 C 0.57191 0.30111 0.27848 0.0
C4306 C 0.58033 0.30841 0.29604 0.0
C4307 C 0.59178 0.32591 0.29631 0.0
C4308 C 0.5948 0.33616 0.27816 0.0
C4309 C 0.58659 0.3288 0.25986 0.0
C4310 C 0.5748 0.31113 0.26019 0.0
H4311 H 0.73268 0.6111 0.31167 0.0
H4312 H 0.75255 0.55312 0.28896 0.0
H4313 H 0.72582 0.55397 0.26336 0.0
H4314 H 0.67749 0.60311 0.30167 0.0
H4315 H 0.67402 0.62901 0.29443 0.0
H4316 H 0.69271 0.62252 0.31297 0.0
H4317 H 0.7199 0.64043 0.29171 0.0
H4318 H 0.70147 0.64675 0.27293 0.0
H4319 H 0.72374 0.63294 0.26591 0.0
H4320 H 0.70118 0.56336 0.23709 0.0
H4321 H 0.67727 0.57941 0.21353 0.0
H4322 H 0.67194 0.63063 0.25348 0.0
C4323 C 0.73097 0.59827 0.30176 0.0
C4324 C 0.74471 0.58202 0.30233 0.0
C4325 C 0.74222 0.56572 0.28882 0.0
C4326 C 0.72706 0.56605 0.27422 0.0
C4327 C 0.71433 0.58266 0.27347 0.0
C4328 C 0.71583 0.59832 0.28709 0.0
C4329 C 0.70114 0.61505 0.28201 0.0
C4330 C 0.6854 0.61756 0.29877 0.0
C4331 C 0.71223 0.63496 0.27789 0.0
C4332 C 0.69174 0.60664 0.26299 0.0
C4333 C 0.69957 0.5879 0.25841 0.0
C4334 C 0.6946 0.57782 0.24071 0.0
C4335 C 0.68121 0.58707 0.22736 0.0
C4336 C 0.67284 0.60611 0.23185 0.0
C4337 C 0.67799 0.61591 0.24998 0.0
H4338 H 0.41268 0.76362 0.29742 0.0
H4339 H 0.40127 0.73923 0.35693 0.0
H4340 H 0.39546 0.70572 0.34198 0.0
H4341 H 0.37431 0.73632 0.27277 0.0
H4342 H 0.38823 0.73237 0.24983 0.0
H4343 H 0.39333 0.7541 0.26519 0.0
H4344 H 0.4309 0.74398 0.26735 0.0
H4345 H 0.42596 0.72226 0.25188 0.0
H4346 H 0.43758 0.71922 0.27619 0.0
H4347 H 0.3895 0.67563 0.32087 0.0
H4348 H 0.38298 0.65039 0.29492 0.0
H4349 H 0.39729 0.694 0.24841 0.0
C4350 C 0.40933 0.75114 0.30734 0.0
C4351 C 0.40762 0.75393 0.32837 0.0
C4352 C 0.40275 0.73736 0.34081 0.0
C4353 C 0.39945 0.7183 0.33246 0.0
C4354 C 0.40098 0.71612 0.31166 0.0
C4355 C 0.40576 0.73205 0.29923 0.0
C4356 C 0.40527 0.72582 0.27726 0.0
C4357 C 0.38933 0.73787 0.26558 0.0
C4358 C 0.42618 0.72795 0.26761 0.0
C4359 C 0.39928 0.70392 0.27931 0.0
C4360 C 0.39709 0.69869 0.29932 0.0
C4361 C 0.39136 0.67948 0.30516 0.0
C4362 C 0.38778 0.66517 0.29019 0.0
C4363 C 0.38982 0.67007 0.26949 0.0
C4364 C 0.39562 0.68979 0.26405 0.0
H4365 H 0.26696 0.4046 0.33177 0.0
H4366 H 0.25196 0.46333 0.30735 0.0
H4367 H 0.27165 0.45566 0.27692 0.0
H4368 H 0.31887 0.4021 0.30998 0.0
H4369 H 0.31671 0.37546 0.3053 0.0
H4370 H 0.30365 0.38664 0.32628 0.0
H4371 H 0.27017 0.37191 0.313 0.0
H4372 H 0.28294 0.36106 0.29174 0.0
H4373 H 0.26203 0.37788 0.28783 0.0
H4374 H 0.28841 0.43988 0.24722 0.0
H4375 H 0.30602 0.41883 0.22214 0.0
H4376 H 0.31112 0.37079 0.26593 0.0
C4377 C 0.26835 0.41612 0.32034 0.0
C4378 C 0.25783 0.43455 0.32196 0.0
C4379 C 0.25984 0.44909 0.30648 0.0
C4380 C 0.27095 0.44486 0.28908 0.0
C4381 C 0.2802 0.42614 0.28749 0.0
C4382 C 0.27947 0.41218 0.30288 0.0
C4383 C 0.29001 0.39284 0.29694 0.0
C4384 C 0.3084 0.38905 0.31043 0.0
C4385 C 0.27541 0.37487 0.2974 0.0
C4386 C 0.29623 0.39794 0.27562 0.0
C4387 C 0.29034 0.41719 0.27044 0.0
C4388 C 0.29335 0.42488 0.25117 0.0
C4389 C 0.30315 0.41275 0.23697 0.0
C4390 C 0.3099 0.39322 0.24213 0.0
C4391 C 0.30626 0.38575 0.26169 0.0
H4392 H 0.67258 0.586 0.68814 0.0
H4393 H 0.70817 0.57674 0.74208 0.0
H4394 H 0.73923 0.57852 0.72202 0.0
H4395 H 0.70693 0.55799 0.65302 0.0
H4396 H 0.70259 0.57574 0.63299 0.0
H4397 H 0.68305 0.57072 0.65111 0.0
H4398 H 0.68094 0.6089 0.65911 0.0
H4399 H 0.70062 0.61392 0.64124 0.0
H4400 H 0.70331 0.62208 0.66696 0.0
H4401 H 0.76641 0.58525 0.69712 0.0
H4402 H 0.78773 0.59642 0.6689 0.0
H4403 H 0.73475 0.60041 0.63087 0.0
C4404 C 0.6869 0.58378 0.69559 0.0
C4405 C 0.68797 0.58126 0.71664 0.0
C4406 C 0.707 0.57885 0.72597 0.0
C4407 C 0.72474 0.57969 0.71469 0.0
C4408 C 0.72325 0.58281 0.69406 0.0
C4409 C 0.70483 0.58466 0.68453 0.0
C4410 C 0.70753 0.58962 0.66245 0.0
C4411 C 0.69955 0.57249 0.64911 0.0
C4412 C 0.69751 0.60983 0.65714 0.0
C4413 C 0.73025 0.59102 0.66133 0.0
C4414 C 0.73904 0.58675 0.67963 0.0
C4415 C 0.75974 0.5883 0.68259 0.0
C4416 C 0.77175 0.59463 0.66644 0.0
C4417 C 0.76302 0.59947 0.64762 0.0
C4418 C 0.742 0.59719 0.64506 0.0
H4419 H 0.41188 0.63892 0.69023 0.0
H4420 H 0.36597 0.63458 0.73631 0.0
H4421 H 0.34675 0.66172 0.71989 0.0
H4422 H 0.41375 0.68923 0.68841 0.0
H4423 H 0.41718 0.69216 0.66167 0.0
H4424 H 0.42512 0.66936 0.67383 0.0
H4425 H 0.40288 0.64811 0.64986 0.0
H4426 H 0.39525 0.67086 0.6372 0.0
H4427 H 0.37654 0.65405 0.6473 0.0
H4428 H 0.33626 0.69353 0.70278 0.0
H4429 H 0.33319 0.72529 0.6835 0.0
H4430 H 0.38567 0.70894 0.64847 0.0
C4431 C 0.39728 0.64299 0.6962 0.0
C4432 C 0.39027 0.63457 0.71435 0.0
C4433 C 0.37148 0.64078 0.72227 0.0
C4434 C 0.36048 0.65621 0.71308 0.0
C4435 C 0.36839 0.66514 0.69587 0.0
C4436 C 0.38613 0.65847 0.68721 0.0
C4437 C 0.39242 0.67201 0.66999 0.0
C4438 C 0.41335 0.68123 0.67372 0.0
C4439 C 0.39172 0.66057 0.64989 0.0
C4440 C 0.37607 0.68783 0.67103 0.0
C4441 C 0.36223 0.68351 0.6859 0.0
C4442 C 0.34675 0.69685 0.69078 0.0
C4443 C 0.34526 0.71494 0.67998 0.0
C4444 C 0.35914 0.71946 0.66451 0.0
C4445 C 0.37465 0.70565 0.66 0.0
H4446 H 0.289 0.43858 0.74662 0.0
H4447 H 0.34105 0.40242 0.73068 0.0
H4448 H 0.32358 0.39079 0.70017 0.0
H4449 H 0.25323 0.40421 0.7339 0.0
H4450 H 0.23513 0.42142 0.72333 0.0
H4451 H 0.25263 0.43008 0.74206 0.0
H4452 H 0.26521 0.45801 0.71804 0.0
H4453 H 0.24755 0.44972 0.69919 0.0
H4454 H 0.27393 0.45137 0.69323 0.0
H4455 H 0.29908 0.37872 0.67513 0.0
H4456 H 0.27015 0.36956 0.65427 0.0
H4457 H 0.23358 0.41419 0.68503 0.0
C4458 C 0.29702 0.42882 0.73633 0.0
C4459 C 0.31645 0.42144 0.74105 0.0
C4460 C 0.32623 0.40832 0.72739 0.0
C4461 C 0.31641 0.40161 0.71001 0.0
C4462 C 0.29691 0.40834 0.70636 0.0
C4463 C 0.28742 0.42197 0.71885 0.0
C4464 C 0.26586 0.42558 0.71216 0.0
C4465 C 0.25083 0.41998 0.72886 0.0
C4466 C 0.26297 0.44747 0.70524 0.0
C4467 C 0.26448 0.41113 0.69455 0.0
C4468 C 0.28266 0.40153 0.69143 0.0
C4469 C 0.28493 0.38655 0.67702 0.0
C4470 C 0.26832 0.38148 0.66519 0.0
C4471 C 0.24957 0.39141 0.66764 0.0
C4472 C 0.24766 0.40637 0.68268 0.0
H4473 H 0.61381 0.25194 0.689 0.0
H4474 H 0.63783 0.28194 0.63624 0.0
H4475 H 0.62209 0.31373 0.64709 0.0
H4476 H 0.56658 0.27842 0.69055 0.0
H4477 H 0.56592 0.28003 0.71762 0.0
H4478 H 0.57865 0.25933 0.70557 0.0
H4479 H 0.61173 0.26797 0.72461 0.0
H4480 H 0.59856 0.28804 0.73711 0.0
H4481 H 0.6214 0.2933 0.72348 0.0
H4482 H 0.60389 0.34247 0.66383 0.0
H4483 H 0.58785 0.36664 0.68726 0.0
H4484 H 0.57629 0.31799 0.72915 0.0
C4485 C 0.61595 0.26523 0.67985 0.0
C4486 C 0.6269 0.26436 0.66166 0.0
C4487 C 0.62919 0.28212 0.65004 0.0
C4488 C 0.62032 0.30027 0.65607 0.0
C4489 C 0.60921 0.30049 0.67381 0.0
C4490 C 0.60721 0.2835 0.68567 0.0
C4491 C 0.59501 0.28793 0.70437 0.0
C4492 C 0.57537 0.2757 0.70452 0.0
C4493 C 0.60744 0.28409 0.72351 0.0
C4494 C 0.59087 0.31013 0.70138 0.0
C4495 C 0.59888 0.31705 0.68351 0.0
C4496 C 0.59742 0.33722 0.67781 0.0
C4497 C 0.58813 0.3508 0.69109 0.0
C4498 C 0.58073 0.34411 0.70987 0.0
C4499 C 0.58169 0.32345 0.71478 0.0
H4500 H 0.7289 0.4107 0.31657 0.0
H4501 H 0.72441 0.34647 0.32681 0.0
H4502 H 0.69225 0.34569 0.30802 0.0
H4503 H 0.67576 0.42108 0.32272 0.0
H4504 H 0.67523 0.44027 0.30357 0.0
H4505 H 0.69798 0.43576 0.3176 0.0
H4506 H 0.71757 0.42992 0.28438 0.0
H4507 H 0.69495 0.43462 0.27027 0.0
H4508 H 0.70857 0.41144 0.26667 0.0
H4509 H 0.66208 0.3516 0.28636 0.0
H4510 H 0.63492 0.36395 0.2643 0.0
H4511 H 0.65735 0.42491 0.27053 0.0
C4512 C 0.72119 0.39648 0.31464 0.0
C4513 C 0.72911 0.37857 0.32286 0.0
C4514 C 0.71848 0.36028 0.32052 0.0
C4515 C 0.70027 0.35973 0.30993 0.0
C4516 C 0.69278 0.37767 0.30211 0.0
C4517 C 0.7028 0.39574 0.30446 0.0
C4518 C 0.69133 0.4129 0.29479 0.0
C4519 C 0.68468 0.42842 0.31062 0.0
C4520 C 0.70385 0.4228 0.27803 0.0
C4521 C 0.67348 0.40159 0.28628 0.0
C4522 C 0.67467 0.38127 0.29063 0.0
C4523 C 0.66075 0.36751 0.28319 0.0
C4524 C 0.64535 0.37467 0.27074 0.0
C4525 C 0.64378 0.39542 0.26617 0.0
C4526 C 0.65786 0.40907 0.2743 0.0
H4527 H 0.58084 0.69746 0.24536 0.0
H4528 H 0.61617 0.64594 0.26449 0.0
H4529 H 0.62795 0.66521 0.29408 0.0
H4530 H 0.61689 0.73403 0.25756 0.0
H4531 H 0.59895 0.7526 0.26587 0.0
H4532 H 0.59178 0.7342 0.24732 0.0
H4533 H 0.56191 0.72287 0.26968 0.0
H4534 H 0.56883 0.74141 0.28821 0.0
H4535 H 0.56654 0.71534 0.29531 0.0
H4536 H 0.63703 0.69078 0.32066 0.0
H4537 H 0.6426 0.72051 0.34228 0.0
H4538 H 0.60202 0.75539 0.30498 0.0
C4539 C 0.59074 0.69003 0.25595 0.0
C4540 C 0.59746 0.67012 0.2527 0.0
C4541 C 0.61073 0.66114 0.26675 0.0
C4542 C 0.61751 0.67197 0.28357 0.0
C4543 C 0.61092 0.69175 0.28605 0.0
C4544 C 0.59779 0.70066 0.27264 0.0
C4545 C 0.59378 0.72242 0.27807 0.0
C4546 C 0.60077 0.73664 0.2612 0.0
C4547 C 0.57144 0.72569 0.28312 0.0
C4548 C 0.60684 0.72445 0.29657 0.0
C4549 C 0.61649 0.70657 0.30102 0.0
C4550 C 0.62945 0.70482 0.31739 0.0
C4551 C 0.63247 0.72175 0.3296 0.0
C4552 C 0.6227 0.74023 0.32531 0.0
C4553 C 0.60982 0.74154 0.3085 0.0
H4554 H 0.27847 0.61824 0.37758 0.0
H4555 H 0.26524 0.67486 0.34816 0.0
H4556 H 0.29426 0.66985 0.3254 0.0
H4557 H 0.33377 0.6204 0.3733 0.0
H4558 H 0.33604 0.5939 0.36794 0.0
H4559 H 0.31568 0.60292 0.38344 0.0
H4560 H 0.28986 0.58601 0.35963 0.0
H4561 H 0.3101 0.57683 0.34417 0.0
H4562 H 0.29039 0.59184 0.33315 0.0
H4563 H 0.32311 0.65818 0.3051 0.0
H4564 H 0.34791 0.63902 0.28558 0.0
H4565 H 0.34216 0.58884 0.32702 0.0
C4566 C 0.28198 0.62967 0.36652 0.0
C4567 C 0.26984 0.647 0.36458 0.0
C4568 C 0.27441 0.66148 0.34971 0.0
C4569 C 0.29093 0.65884 0.33691 0.0
C4570 C 0.30259 0.64156 0.33914 0.0
C4571 C 0.29823 0.62708 0.35339 0.0
C4572 C 0.312 0.60899 0.35128 0.0
C4573 C 0.32516 0.60641 0.37011 0.0
C4574 C 0.29986 0.58979 0.34678 0.0
C4575 C 0.32449 0.6154 0.3333 0.0
C4576 C 0.31902 0.63442 0.32687 0.0
C4577 C 0.32761 0.64333 0.31004 0.0
C4578 C 0.3417 0.63228 0.29905 0.0
C4579 C 0.34697 0.61241 0.30477 0.0
C4580 C 0.33864 0.60408 0.32245 0.0
H4581 H 0.3874 0.331 0.29498 0.0
H4582 H 0.35798 0.30627 0.24211 0.0
H4583 H 0.35091 0.27503 0.26054 0.0
H4584 H 0.4108 0.28533 0.31113 0.0
H4585 H 0.4069 0.28999 0.33756 0.0
H4586 H 0.40941 0.3108 0.3204 0.0
H4587 H 0.37508 0.32501 0.33236 0.0
H4588 H 0.37253 0.30429 0.34963 0.0
H4589 H 0.35308 0.30919 0.33141 0.0
H4590 H 0.34749 0.24612 0.28434 0.0
H4591 H 0.34653 0.22222 0.31274 0.0
H4592 H 0.37859 0.26538 0.34985 0.0
C4593 C 0.3794 0.31906 0.28731 0.0
C4594 C 0.37323 0.32117 0.26709 0.0
C4595 C 0.36277 0.30514 0.25762 0.0
C4596 C 0.35873 0.28725 0.26793 0.0
C4597 C 0.36517 0.28558 0.28775 0.0
C4598 C 0.37514 0.30107 0.29743 0.0
C4599 C 0.38032 0.29537 0.31886 0.0
C4600 C 0.40322 0.29537 0.32217 0.0
C4601 C 0.36961 0.30929 0.33395 0.0
C4602 C 0.37183 0.27424 0.31959 0.0
C4603 C 0.36317 0.26888 0.30151 0.0
C4604 C 0.35424 0.25013 0.29861 0.0
C4605 C 0.35391 0.23658 0.31477 0.0
C4606 C 0.36242 0.24188 0.33357 0.0
C4607 C 0.37169 0.26092 0.33581 0.0
H4608 H 0.71436 0.67683 0.56028 0.0
H4609 H 0.73273 0.6548 0.61886 0.0
H4610 H 0.71157 0.68065 0.63528 0.0
H4611 H 0.71693 0.72814 0.57309 0.0
H4612 H 0.69561 0.73571 0.55815 0.0
H4613 H 0.71019 0.71406 0.5509 0.0
H4614 H 0.67813 0.69187 0.55131 0.0
H4615 H 0.66338 0.71354 0.55824 0.0
H4616 H 0.66268 0.6912 0.57359 0.0
H4617 H 0.68909 0.70939 0.64521 0.0
H4618 H 0.66733 0.73957 0.6479 0.0
H4619 H 0.66589 0.74434 0.58293 0.0
C4620 C 0.71346 0.67714 0.57655 0.0
C4621 C 0.7248 0.66368 0.58838 0.0
C4622 C 0.72391 0.66491 0.60961 0.0
C4623 C 0.71199 0.67953 0.61904 0.0
C4624 C 0.70134 0.69295 0.60697 0.0
C4625 C 0.70199 0.69193 0.58619 0.0
C4626 C 0.69029 0.70901 0.57671 0.0
C4627 C 0.70408 0.72252 0.56397 0.0
C4628 C 0.67257 0.70092 0.56423 0.0
C4629 C 0.68305 0.71984 0.59539 0.0
C4630 C 0.68938 0.71021 0.61269 0.0
C4631 C 0.68413 0.71713 0.63178 0.0
C4632 C 0.67187 0.73424 0.63319 0.0
C4633 C 0.66533 0.74436 0.61565 0.0
C4634 C 0.67114 0.73713 0.59655 0.0
H4635 H 0.68158 0.24497 0.3953 0.0
H4636 H 0.63709 0.28041 0.36341 0.0
H4637 H 0.65654 0.31134 0.3707 0.0
H4638 H 0.69212 0.28184 0.43456 0.0
H4639 H 0.71855 0.27583 0.43532 0.0
H4640 H 0.70053 0.25678 0.42844 0.0
H4641 H 0.71959 0.25053 0.39495 0.0
H4642 H 0.73773 0.2694 0.40183 0.0
H4643 H 0.72438 0.27142 0.37832 0.0
H4644 H 0.68268 0.33801 0.37916 0.0
H4645 H 0.71285 0.35784 0.38828 0.0
H4646 H 0.73909 0.30474 0.41576 0.0
C4647 C 0.67593 0.25923 0.38985 0.0
C4648 C 0.65787 0.2603 0.37874 0.0
C4649 C 0.65082 0.27929 0.3721 0.0
C4650 C 0.66177 0.29692 0.37615 0.0
C4651 C 0.67959 0.29531 0.3871 0.0
C4652 C 0.68652 0.27693 0.39396 0.0
C4653 C 0.70634 0.27909 0.4049 0.0
C4654 C 0.70425 0.27303 0.42713 0.0
C4655 C 0.72299 0.26689 0.39437 0.0
C4656 C 0.70976 0.30149 0.40275 0.0
C4657 C 0.69418 0.31065 0.39249 0.0
C4658 C 0.6948 0.33104 0.38749 0.0
C4659 C 0.71199 0.3422 0.39275 0.0
C4660 C 0.72826 0.33294 0.40293 0.0
C4661 C 0.72678 0.31243 0.40837 0.0
H4662 H 0.75955 0.68974 0.37282 0.0
H4663 H 0.7209 0.65165 0.33662 0.0
H4664 H 0.69092 0.66827 0.35124 0.0
H4665 H 0.7279 0.69029 0.41716 0.0
H4666 H 0.73341 0.71617 0.42315 0.0
H4667 H 0.75178 0.70103 0.41015 0.0
H4668 H 0.75334 0.72716 0.38121 0.0
H4669 H 0.73529 0.74253 0.39429 0.0
H4670 H 0.73041 0.73464 0.36881 0.0
H4671 H 0.66532 0.69031 0.36862 0.0
H4672 H 0.6462 0.7168 0.3864 0.0
H4673 H 0.70173 0.73967 0.41194 0.0
C4674 C 0.74478 0.68504 0.36783 0.0
C4675 C 0.7425 0.66951 0.35349 0.0
C4676 C 0.72292 0.66349 0.34764 0.0
C4677 C 0.70585 0.6728 0.35589 0.0
C4678 C 0.70863 0.68793 0.37016 0.0
C4679 C 0.72761 0.69401 0.37607 0.0
C4680 C 0.72653 0.71085 0.39138 0.0
C4681 C 0.73543 0.70418 0.41166 0.0
C4682 C 0.73701 0.72992 0.38344 0.0
C4683 C 0.70398 0.71368 0.39279 0.0
C4684 C 0.6939 0.70022 0.38055 0.0
C4685 C 0.67304 0.70077 0.37843 0.0
C4686 C 0.6623 0.71585 0.3886 0.0
C4687 C 0.67243 0.7302 0.40069 0.0
C4688 C 0.69347 0.72866 0.40321 0.0
H4689 H 0.32059 0.77297 0.42014 0.0
H4690 H 0.35724 0.73571 0.38094 0.0
H4691 H 0.34249 0.70527 0.39606 0.0
H4692 H 0.32216 0.74009 0.46409 0.0
H4693 H 0.29631 0.7447 0.47087 0.0
H4694 H 0.31056 0.76391 0.45814 0.0
H4695 H 0.284 0.76584 0.42977 0.0
H4696 H 0.26927 0.74715 0.44264 0.0
H4697 H 0.27666 0.74313 0.41686 0.0
H4698 H 0.32137 0.67897 0.41291 0.0
H4699 H 0.29476 0.65908 0.42959 0.0
H4700 H 0.27274 0.7132 0.4587 0.0
C4701 C 0.32554 0.75843 0.41472 0.0
C4702 C 0.34021 0.75681 0.39939 0.0
C4703 C 0.34631 0.73742 0.39288 0.0
C4704 C 0.338 0.72 0.40138 0.0
C4705 C 0.32369 0.72214 0.41652 0.0
C4706 C 0.31749 0.74087 0.42314 0.0
C4707 C 0.30102 0.73903 0.43878 0.0
C4708 C 0.30795 0.74743 0.45918 0.0
C4709 C 0.28159 0.74939 0.43158 0.0
C4710 C 0.2986 0.71637 0.43956 0.0
C4711 C 0.3119 0.70689 0.42669 0.0
C4712 C 0.31118 0.68617 0.42337 0.0
C4713 C 0.29608 0.67498 0.43296 0.0
C4714 C 0.28198 0.6845 0.44578 0.0
C4715 C 0.28373 0.70536 0.44957 0.0
H4716 H 0.24144 0.33359 0.40015 0.0
H4717 H 0.27719 0.36139 0.35333 0.0
H4718 H 0.30552 0.33836 0.36136 0.0
H4719 H 0.28253 0.32631 0.43555 0.0
H4720 H 0.27266 0.30271 0.44454 0.0
H4721 H 0.2558 0.32183 0.43534 0.0
H4722 H 0.24078 0.29644 0.40976 0.0
H4723 H 0.25751 0.27725 0.41894 0.0
H4724 H 0.25731 0.28352 0.39256 0.0
H4725 H 0.32894 0.31015 0.37333 0.0
H4726 H 0.34545 0.28047 0.38863 0.0
H4727 H 0.29425 0.27282 0.42842 0.0
C4728 C 0.25522 0.33478 0.39156 0.0
C4729 C 0.25714 0.34904 0.37598 0.0
C4730 C 0.27552 0.3505 0.36532 0.0
C4731 C 0.29162 0.3375 0.36979 0.0
C4732 C 0.28915 0.32345 0.3852 0.0
C4733 C 0.27144 0.32221 0.39603 0.0
C4734 C 0.27236 0.30581 0.41174 0.0
C4735 C 0.27074 0.3147 0.43305 0.0
C4736 C 0.25603 0.28981 0.40801 0.0
C4737 C 0.29317 0.29756 0.40776 0.0
C4738 C 0.30271 0.3079 0.39245 0.0
C4739 C 0.32168 0.30214 0.3855 0.0
C4740 C 0.33094 0.28524 0.39427 0.0
C4741 C 0.32122 0.27435 0.40982 0.0
C4742 C 0.30225 0.28092 0.41677 0.0
H4743 H 0.32935 0.25299 0.59278 0.0
H4744 H 0.32701 0.254 0.65789 0.0
H4745 H 0.30264 0.28211 0.65668 0.0
H4746 H 0.32925 0.305 0.58623 0.0
H4747 H 0.31354 0.3056 0.56411 0.0
H4748 H 0.3286 0.28376 0.56933 0.0
H4749 H 0.29767 0.26063 0.56844 0.0
H4750 H 0.2822 0.28207 0.56238 0.0
H4751 H 0.2761 0.26657 0.58378 0.0
H4752 H 0.27974 0.31052 0.64851 0.0
H4753 H 0.25956 0.33801 0.63392 0.0
H4754 H 0.27835 0.32017 0.57397 0.0
C4755 C 0.3232 0.2588 0.60669 0.0
C4756 C 0.32968 0.25126 0.62545 0.0
C4757 C 0.32197 0.25959 0.64344 0.0
C4758 C 0.30819 0.27549 0.64288 0.0
C4759 C 0.30245 0.28294 0.62417 0.0
C4760 C 0.30963 0.27489 0.60638 0.0
C4761 C 0.30196 0.28655 0.58836 0.0
C4762 C 0.31939 0.2958 0.57631 0.0
C4763 C 0.28869 0.27316 0.57495 0.0
C4764 C 0.28967 0.30262 0.59882 0.0
C4765 C 0.28995 0.30005 0.61946 0.0
C4766 C 0.27943 0.31273 0.63238 0.0
C4767 C 0.26809 0.32832 0.62396 0.0
C4768 C 0.26768 0.33131 0.60287 0.0
C4769 C 0.27874 0.3184 0.59017 0.0
H4770 H 0.75554 0.3135 0.60298 0.0
H4771 H 0.711 0.35553 0.62562 0.0
H4772 H 0.68387 0.33321 0.61366 0.0
H4773 H 0.72762 0.29773 0.55825 0.0
H4774 H 0.73563 0.27189 0.56024 0.0
H4775 H 0.75165 0.2918 0.56932 0.0
H4776 H 0.75297 0.27503 0.60453 0.0
H4777 H 0.73724 0.25497 0.59545 0.0
H4778 H 0.72978 0.26917 0.61732 0.0
H4779 H 0.66176 0.30518 0.60209 0.0
H4780 H 0.64626 0.27276 0.59262 0.0
H4781 H 0.70497 0.24934 0.57646 0.0
C4782 C 0.74009 0.31799 0.60541 0.0
C4783 C 0.73538 0.3363 0.61514 0.0
C4784 C 0.71495 0.34172 0.61793 0.0
C4785 C 0.69944 0.32915 0.61119 0.0
C4786 C 0.7046 0.31128 0.60153 0.0
C4787 C 0.72441 0.30568 0.59865 0.0
C4788 C 0.72586 0.28521 0.58873 0.0
C4789 C 0.73578 0.28676 0.5679 0.0
C4790 C 0.73712 0.27021 0.60232 0.0
C4791 C 0.70377 0.27995 0.58697 0.0
C4792 C 0.69175 0.29528 0.59431 0.0
C4793 C 0.67096 0.29323 0.59592 0.0
C4794 C 0.66228 0.27481 0.59047 0.0
C4795 C 0.67439 0.25875 0.58344 0.0
C4796 C 0.69529 0.2616 0.58113 0.0
H4797 H 0.26976 0.64799 0.64663 0.0
H4798 H 0.2206 0.67169 0.61071 0.0
H4799 H 0.24477 0.69229 0.59153 0.0
H4800 H 0.29896 0.69275 0.64924 0.0
H4801 H 0.32269 0.67979 0.64723 0.0
H4802 H 0.30135 0.66724 0.65815 0.0
H4803 H 0.3054 0.63824 0.63232 0.0
H4804 H 0.32658 0.65091 0.62114 0.0
H4805 H 0.30536 0.64387 0.60579 0.0
H4806 H 0.27413 0.71151 0.57746 0.0
H4807 H 0.30649 0.72833 0.56999 0.0
H4808 H 0.33665 0.68975 0.61297 0.0
C4809 C 0.26399 0.65731 0.63462 0.0
C4810 C 0.24316 0.65809 0.63021 0.0
C4811 C 0.23637 0.67094 0.61461 0.0
C4812 C 0.25003 0.68255 0.60347 0.0
C4813 C 0.27045 0.68104 0.608 0.0
C4814 C 0.2774 0.66877 0.62323 0.0
C4815 C 0.30006 0.67 0.62528 0.0
C4816 C 0.30611 0.67792 0.64621 0.0
C4817 C 0.30993 0.64953 0.62086 0.0
C4818 C 0.30478 0.68513 0.60896 0.0
C4819 C 0.28748 0.69134 0.59918 0.0
C4820 C 0.28781 0.70648 0.58469 0.0
C4821 C 0.30621 0.71585 0.58047 0.0
C4822 C 0.324 0.70979 0.59043 0.0
C4823 C 0.32335 0.69399 0.60455 0.0
loop_
_geom_bond_atom_site_label_1
_geom_bond_atom_site_label_2
_geom_bond_distance
_geom_bond_site_symmetry_2
_ccdc_geom_bond_type
C0 C1 1.351 . S
C0 N3 1.368 . S
C0 H5 0.931 . S
C1 C0 1.351 . S
C1 N2 1.373 . S
C1 H29 0.930 . S
N2 C1 1.373 . S
N2 C4 1.340 . S
N3 C0 1.368 . S
N3 C4 1.321 . S
N3 Co6 2.135 . S
C4 N2 1.340 . S
C4 N3 1.321 . S
C4 H28 0.930 . S
H5 C0 0.931 . S
Co6 N3 2.135 . S
Co6 N9 2.121 . S
Co6 O14 2.055 . S
Co6 O17 2.039 . S
Co6 N20 2.140 . S
C7 O8 1.227 . S
C7 O17 1.265 . S
O8 C7 1.227 . S
N9 Co6 2.121 . S
N9 C11 1.375 . S
N9 C12 1.313 . S
C10 C11 1.338 . S
C10 N13 1.377 . S
C10 H30 0.930 . S
C11 N9 1.375 . S
C11 C10 1.338 . S
C11 H15 0.931 . S
C12 N9 1.313 . S
C12 N13 1.344 . S
C12 H16 0.930 . S
N13 C10 1.377 . S
N13 C12 1.344 . S
O14 Co6 2.055 . S
O14 C18 1.253 . S
H15 C11 0.931 . S
H16 C12 0.930 . S
O17 Co6 2.039 . S
O17 C7 1.265 . S
C18 O14 1.253 . S
C18 O19 1.227 . S
O19 C18 1.227 . S
N20 Co6 2.140 . S
N20 C23 1.346 . S
N20 C24 1.345 . S
C21 C22 1.387 . S
C21 C25 1.391 . S
C22 C21 1.387 . S
C22 C23 1.369 . S
C22 H31 0.929 . S
C23 N20 1.346 . S
C23 C22 1.369 . S
C23 H26 0.928 . S
C24 N20 1.345 . S
C24 C25 1.371 . S
C24 H27 0.931 . S
C25 C21 1.391 . S
C25 C24 1.371 . S
C25 H32 0.930 . S
H26 C23 0.928 . S
H27 C24 0.931 . S
H28 C4 0.930 . S
H29 C1 0.930 . S
H30 C10 0.930 . S
H31 C22 0.929 . S
H32 C25 0.930 . S
C33 C34 1.351 . S
C33 N36 1.368 . S
C33 H38 0.931 . S
C34 C33 1.351 . S
C34 N35 1.373 . S
C34 H62 0.930 . S
N35 C34 1.373 . S
N35 C37 1.340 . S
N36 C33 1.368 . S
N36 C37 1.321 . S
N36 Co39 2.135 . S
C37 N35 1.340 . S
C37 N36 1.321 . S
C37 H61 0.930 . S
H38 C33 0.931 . S
Co39 N36 2.135 . S
Co39 N42 2.121 . S
Co39 O47 2.055 . S
Co39 O50 2.039 . S
Co39 N53 2.140 . S
C40 O41 1.227 . S
C40 O50 1.265 . S
O41 C40 1.227 . S
N42 Co39 2.121 . S
N42 C44 1.375 . S
N42 C45 1.313 . S
C43 C44 1.338 . S
C43 N46 1.377 . S
C43 H63 0.930 . S
C44 N42 1.375 . S
C44 C43 1.338 . S
C44 H48 0.931 . S
C45 N42 1.313 . S
C45 N46 1.344 . S
C45 H49 0.930 . S
N46 C43 1.377 . S
N46 C45 1.344 . S
O47 Co39 2.055 . S
O47 C51 1.253 . S
H48 C44 0.931 . S
H49 C45 0.930 . S
O50 Co39 2.039 . S
O50 C40 1.265 . S
C51 O47 1.253 . S
C51 O52 1.227 . S
O52 C51 1.227 . S
N53 Co39 2.140 . S
N53 C56 1.346 . S
N53 C57 1.345 . S
C54 C55 1.387 . S
C54 C58 1.391 . S
C55 C54 1.387 . S
C55 C56 1.369 . S
C55 H64 0.929 . S
C56 N53 1.346 . S
C56 C55 1.369 . S
C56 H59 0.928 . S
C57 N53 1.345 . S
C57 C58 1.371 . S
C57 H60 0.931 . S
C58 C54 1.391 . S
C58 C57 1.371 . S
C58 H65 0.930 . S
H59 C56 0.928 . S
H60 C57 0.931 . S
H61 C37 0.930 . S
H62 C34 0.930 . S
H63 C43 0.930 . S
H64 C55 0.929 . S
H65 C58 0.930 . S
C66 C67 1.351 . S
C66 N69 1.368 . S
C66 H71 0.931 . S
C67 C66 1.351 . S
C67 N68 1.373 . S
C67 H95 0.930 . S
N68 C67 1.373 . S
N68 C70 1.340 . S
N69 C66 1.368 . S
N69 C70 1.321 . S
N69 Co72 2.135 . S
C70 N68 1.340 . S
C70 N69 1.321 . S
C70 H94 0.930 . S
H71 C66 0.931 . S
Co72 N69 2.135 . S
Co72 N75 2.121 . S
Co72 O80 2.055 . S
Co72 O83 2.039 . S
Co72 N86 2.140 . S
C73 O74 1.227 . S
C73 O83 1.265 . S
O74 C73 1.227 . S
N75 Co72 2.121 . S
N75 C77 1.375 . S
N75 C78 1.313 . S
C76 C77 1.338 . S
C76 N79 1.377 . S
C76 H96 0.930 . S
C77 N75 1.375 . S
C77 C76 1.338 . S
C77 H81 0.931 . S
C78 N75 1.313 . S
C78 N79 1.344 . S
C78 H82 0.930 . S
N79 C76 1.377 . S
N79 C78 1.344 . S
O80 Co72 2.055 . S
O80 C84 1.253 . S
H81 C77 0.931 . S
H82 C78 0.930 . S
O83 Co72 2.039 . S
O83 C73 1.265 . S
C84 O80 1.253 . S
C84 O85 1.227 . S
O85 C84 1.227 . S
N86 Co72 2.140 . S
N86 C89 1.346 . S
N86 C90 1.345 . S
C87 C88 1.387 . S
C87 C91 1.391 . S
C88 C87 1.387 . S
C88 C89 1.369 . S
C88 H97 0.929 . S
C89 N86 1.346 . S
C89 C88 1.369 . S
C89 H92 0.928 . S
C90 N86 1.345 . S
C90 C91 1.371 . S
C90 H93 0.931 . S
C91 C87 1.391 . S
C91 C90 1.371 . S
C91 H98 0.930 . S
H92 C89 0.928 . S
H93 C90 0.931 . S
H94 C70 0.930 . S
H95 C67 0.930 . S
H96 C76 0.930 . S
H97 C88 0.929 . S
H98 C91 0.930 . S
C99 C100 1.351 . S
C99 N102 1.368 . S
C99 H104 0.931 . S
C100 C99 1.351 . S
C100 N101 1.373 . S
C100 H128 0.930 . S
N101 C100 1.373 . S
N101 C103 1.340 . S
N102 C99 1.368 . S
N102 C103 1.321 . S
N102 Co105 2.135 . S
C103 N101 1.340 . S
C103 N102 1.321 . S
C103 H127 0.930 . S
H104 C99 0.931 . S
Co105 N102 2.135 . S
Co105 N108 2.121 . S
Co105 O113 2.055 . S
Co105 O116 2.039 . S
Co105 N119 2.140 . S
C106 O107 1.227 . S
C106 O116 1.265 . S
O107 C106 1.227 . S
N108 Co105 2.121 . S
N108 C110 1.375 . S
N108 C111 1.313 . S
C109 C110 1.338 . S
C109 N112 1.377 . S
C109 H129 0.930 . S
C110 N108 1.375 . S
C110 C109 1.338 . S
C110 H114 0.931 . S
C111 N108 1.313 . S
C111 N112 1.344 . S
C111 H115 0.930 . S
N112 C109 1.377 . S
N112 C111 1.344 . S
O113 Co105 2.055 . S
O113 C117 1.253 . S
H114 C110 0.931 . S
H115 C111 0.930 . S
O116 Co105 2.039 . S
O116 C106 1.265 . S
C117 O113 1.253 . S
C117 O118 1.227 . S
O118 C117 1.227 . S
N119 Co105 2.140 . S
N119 C122 1.346 . S
N119 C123 1.345 . S
C120 C121 1.387 . S
C120 C124 1.391 . S
C121 C120 1.387 . S
C121 C122 1.369 . S
C121 H130 0.929 . S
C122 N119 1.346 . S
C122 C121 1.369 . S
C122 H125 0.928 . S
C123 N119 1.345 . S
C123 C124 1.371 . S
C123 H126 0.931 . S
C124 C120 1.391 . S
C124 C123 1.371 . S
C124 H131 0.930 . S
H125 C122 0.928 . S
H126 C123 0.931 . S
H127 C103 0.930 . S
H128 C100 0.930 . S
H129 C109 0.930 . S
H130 C121 0.929 . S
H131 C124 0.930 . S
C132 C133 1.351 . S
C132 N135 1.368 . S
C132 H137 0.931 . S
C133 C132 1.351 . S
C133 N134 1.373 . S
C133 H161 0.930 . S
N134 C133 1.373 . S
N134 C136 1.340 . S
N135 C132 1.368 . S
N135 C136 1.321 . S
N135 Co138 2.135 . S
C136 N134 1.340 . S
C136 N135 1.321 . S
C136 H160 0.930 . S
H137 C132 0.931 . S
Co138 N135 2.135 . S
Co138 N141 2.121 . S
Co138 O146 2.055 . S
Co138 O149 2.039 . S
Co138 N152 2.140 . S
C139 O140 1.227 . S
C139 O149 1.265 . S
O140 C139 1.227 . S
N141 Co138 2.121 . S
N141 C143 1.375 . S
N141 C144 1.313 . S
C142 C143 1.338 . S
C142 N145 1.377 . S
C142 H162 0.930 . S
C143 N141 1.375 . S
C143 C142 1.338 . S
C143 H147 0.931 . S
C144 N141 1.313 . S
C144 N145 1.344 . S
C144 H148 0.930 . S
N145 C142 1.377 . S
N145 C144 1.344 . S
O146 Co138 2.055 . S
O146 C150 1.253 . S
H147 C143 0.931 . S
H148 C144 0.930 . S
O149 Co138 2.039 . S
O149 C139 1.265 . S
C150 O146 1.253 . S
C150 O151 1.227 . S
O151 C150 1.227 . S
N152 Co138 2.140 . S
N152 C155 1.346 . S
N152 C156 1.345 . S
C153 C154 1.387 . S
C153 C157 1.391 . S
C154 C153 1.387 . S
C154 C155 1.369 . S
C154 H163 0.929 . S
C155 N152 1.346 . S
C155 C154 1.369 . S
C155 H158 0.928 . S
C156 N152 1.345 . S
C156 C157 1.371 . S
C156 H159 0.931 . S
C157 C153 1.391 . S
C157 C156 1.371 . S
C157 H164 0.930 . S
H158 C155 0.928 . S
H159 C156 0.931 . S
H160 C136 0.930 . S
H161 C133 0.930 . S
H162 C142 0.930 . S
H163 C154 0.929 . S
H164 C157 0.930 . S
C165 C166 1.351 . S
C165 N168 1.368 . S
C165 H170 0.931 . S
C166 C165 1.351 . S
C166 N167 1.373 . S
C166 H194 0.930 . S
N167 C166 1.373 . S
N167 C169 1.340 . S
N168 C165 1.368 . S
N168 C169 1.321 . S
N168 Co171 2.135 . S
C169 N167 1.340 . S
C169 N168 1.321 . S
C169 H193 0.930 . S
H170 C165 0.931 . S
Co171 N168 2.135 . S
Co171 N174 2.121 . S
Co171 O179 2.055 . S
Co171 O182 2.039 . S
Co171 N185 2.140 . S
C172 O173 1.227 . S
C172 O182 1.265 . S
O173 C172 1.227 . S
N174 Co171 2.121 . S
N174 C176 1.375 . S
N174 C177 1.313 . S
C175 C176 1.338 . S
C175 N178 1.377 . S
C175 H195 0.930 . S
C176 N174 1.375 . S
C176 C175 1.338 . S
C176 H180 0.931 . S
C177 N174 1.313 . S
C177 N178 1.344 . S
C177 H181 0.930 . S
N178 C175 1.377 . S
N178 C177 1.344 . S
O179 Co171 2.055 . S
O179 C183 1.253 . S
H180 C176 0.931 . S
H181 C177 0.930 . S
O182 Co171 2.039 . S
O182 C172 1.265 . S
C183 O179 1.253 . S
C183 O184 1.227 . S
O184 C183 1.227 . S
N185 Co171 2.140 . S
N185 C188 1.346 . S
N185 C189 1.345 . S
C186 C187 1.387 . S
C186 C190 1.391 . S
C187 C186 1.387 . S
C187 C188 1.369 . S
C187 H196 0.929 . S
C188 N185 1.346 . S
C188 C187 1.369 . S
C188 H191 0.928 . S
C189 N185 1.345 . S
C189 C190 1.371 . S
C189 H192 0.931 . S
C190 C186 1.391 . S
C190 C189 1.371 . S
C190 H197 0.930 . S
H191 C188 0.928 . S
H192 C189 0.931 . S
H193 C169 0.930 . S
H194 C166 0.930 . S
H195 C175 0.930 . S
H196 C187 0.929 . S
H197 C190 0.930 . S
C198 C199 1.351 . S
C198 N201 1.368 . S
C198 H203 0.931 . S
C199 C198 1.351 . S
C199 N200 1.373 . S
C199 H227 0.930 . S
N200 C199 1.373 . S
N200 C202 1.340 . S
N201 C198 1.368 . S
N201 C202 1.321 . S
N201 Co204 2.135 . S
C202 N200 1.340 . S
C202 N201 1.321 . S
C202 H226 0.930 . S
H203 C198 0.931 . S
Co204 N201 2.135 . S
Co204 N207 2.121 . S
Co204 O212 2.055 . S
Co204 O215 2.039 . S
Co204 N218 2.140 . S
C205 O206 1.227 . S
C205 O215 1.265 . S
O206 C205 1.227 . S
N207 Co204 2.121 . S
N207 C209 1.375 . S
N207 C210 1.313 . S
C208 C209 1.338 . S
C208 N211 1.377 . S
C208 H228 0.930 . S
C209 N207 1.375 . S
C209 C208 1.338 . S
C209 H213 0.931 . S
C210 N207 1.313 . S
C210 N211 1.344 . S
C210 H214 0.930 . S
N211 C208 1.377 . S
N211 C210 1.344 . S
O212 Co204 2.055 . S
O212 C216 1.253 . S
H213 C209 0.931 . S
H214 C210 0.930 . S
O215 Co204 2.039 . S
O215 C205 1.265 . S
C216 O212 1.253 . S
C216 O217 1.227 . S
O217 C216 1.227 . S
N218 Co204 2.140 . S
N218 C221 1.346 . S
N218 C222 1.345 . S
C219 C220 1.387 . S
C219 C223 1.391 . S
C220 C219 1.387 . S
C220 C221 1.369 . S
C220 H229 0.929 . S
C221 N218 1.346 . S
C221 C220 1.369 . S
C221 H224 0.928 . S
C222 N218 1.345 . S
C222 C223 1.371 . S
C222 H225 0.931 . S
C223 C219 1.391 . S
C223 C222 1.371 . S
C223 H230 0.930 . S
H224 C221 0.928 . S
H225 C222 0.931 . S
H226 C202 0.930 . S
H227 C199 0.930 . S
H228 C208 0.930 . S
H229 C220 0.929 . S
H230 C223 0.930 . S
C231 C232 1.351 . S
C231 N234 1.368 . S
C231 H236 0.931 . S
C232 C231 1.351 . S
C232 N233 1.373 . S
C232 H260 0.930 . S
N233 C232 1.373 . S
N233 C235 1.340 . S
N234 C231 1.368 . S
N234 C235 1.321 . S
N234 Co237 2.135 . S
C235 N233 1.340 . S
C235 N234 1.321 . S
C235 H259 0.930 . S
H236 C231 0.931 . S
Co237 N234 2.135 . S
Co237 N240 2.121 . S
Co237 O245 2.055 . S
Co237 O248 2.039 . S
Co237 N251 2.140 . S
C238 O239 1.227 . S
C238 O248 1.265 . S
O239 C238 1.227 . S
N240 Co237 2.121 . S
N240 C242 1.375 . S
N240 C243 1.313 . S
C241 C242 1.338 . S
C241 N244 1.377 . S
C241 H261 0.930 . S
C242 N240 1.375 . S
C242 C241 1.338 . S
C242 H246 0.931 . S
C243 N240 1.313 . S
C243 N244 1.344 . S
C243 H247 0.930 . S
N244 C241 1.377 . S
N244 C243 1.344 . S
O245 Co237 2.055 . S
O245 C249 1.253 . S
H246 C242 0.931 . S
H247 C243 0.930 . S
O248 Co237 2.039 . S
O248 C238 1.265 . S
C249 O245 1.253 . S
C249 O250 1.227 . S
O250 C249 1.227 . S
N251 Co237 2.140 . S
N251 C254 1.346 . S
N251 C255 1.345 . S
C252 C253 1.387 . S
C252 C256 1.391 . S
C253 C252 1.387 . S
C253 C254 1.369 . S
C253 H262 0.929 . S
C254 N251 1.346 . S
C254 C253 1.369 . S
C254 H257 0.928 . S
C255 N251 1.345 . S
C255 C256 1.371 . S
C255 H258 0.931 . S
C256 C252 1.391 . S
C256 C255 1.371 . S
C256 H263 0.930 . S
H257 C254 0.928 . S
H258 C255 0.931 . S
H259 C235 0.930 . S
H260 C232 0.930 . S
H261 C241 0.930 . S
H262 C253 0.929 . S
H263 C256 0.930 . S
C264 C265 1.351 . S
C264 N267 1.368 . S
C264 H269 0.931 . S
C265 C264 1.351 . S
C265 N266 1.373 . S
C265 H293 0.930 . S
N266 C265 1.373 . S
N266 C268 1.340 . S
N267 C264 1.368 . S
N267 C268 1.321 . S
N267 Co270 2.135 . S
C268 N266 1.340 . S
C268 N267 1.321 . S
C268 H292 0.930 . S
H269 C264 0.931 . S
Co270 N267 2.135 . S
Co270 N273 2.121 . S
Co270 O278 2.055 . S
Co270 O281 2.039 . S
Co270 N284 2.140 . S
C271 O272 1.227 . S
C271 O281 1.265 . S
O272 C271 1.227 . S
N273 Co270 2.121 . S
N273 C275 1.375 . S
N273 C276 1.313 . S
C274 C275 1.338 . S
C274 N277 1.377 . S
C274 H294 0.930 . S
C275 N273 1.375 . S
C275 C274 1.338 . S
C275 H279 0.931 . S
C276 N273 1.313 . S
C276 N277 1.344 . S
C276 H280 0.930 . S
N277 C274 1.377 . S
N277 C276 1.344 . S
O278 Co270 2.055 . S
O278 C282 1.253 . S
H279 C275 0.931 . S
H280 C276 0.930 . S
O281 Co270 2.039 . S
O281 C271 1.265 . S
C282 O278 1.253 . S
C282 O283 1.227 . S
O283 C282 1.227 . S
N284 Co270 2.140 . S
N284 C287 1.346 . S
N284 C288 1.345 . S
C285 C286 1.387 . S
C285 C289 1.391 . S
C286 C285 1.387 . S
C286 C287 1.369 . S
C286 H295 0.929 . S
C287 N284 1.346 . S
C287 C286 1.369 . S
C287 H290 0.928 . S
C288 N284 1.345 . S
C288 C289 1.371 . S
C288 H291 0.931 . S
C289 C285 1.391 . S
C289 C288 1.371 . S
C289 H296 0.930 . S
H290 C287 0.928 . S
H291 C288 0.931 . S
H292 C268 0.930 . S
H293 C265 0.930 . S
H294 C274 0.930 . S
H295 C286 0.929 . S
H296 C289 0.930 . S
C297 C298 1.351 . S
C297 N300 1.368 . S
C297 H302 0.931 . S
C298 C297 1.351 . S
C298 N299 1.373 . S
C298 H326 0.930 . S
N299 C298 1.373 . S
N299 C301 1.340 . S
N300 C297 1.368 . S
N300 C301 1.321 . S
N300 Co303 2.135 . S
C301 N299 1.340 . S
C301 N300 1.321 . S
C301 H325 0.930 . S
H302 C297 0.931 . S
Co303 N300 2.135 . S
Co303 N306 2.121 . S
Co303 O311 2.055 . S
Co303 O314 2.039 . S
Co303 N317 2.140 . S
C304 O305 1.227 . S
C304 O314 1.265 . S
O305 C304 1.227 . S
N306 Co303 2.121 . S
N306 C308 1.375 . S
N306 C309 1.313 . S
C307 C308 1.338 . S
C307 N310 1.377 . S
C307 H327 0.930 . S
C308 N306 1.375 . S
C308 C307 1.338 . S
C308 H312 0.931 . S
C309 N306 1.313 . S
C309 N310 1.344 . S
C309 H313 0.930 . S
N310 C307 1.377 . S
N310 C309 1.344 . S
O311 Co303 2.055 . S
O311 C315 1.253 . S
H312 C308 0.931 . S
H313 C309 0.930 . S
O314 Co303 2.039 . S
O314 C304 1.265 . S
C315 O311 1.253 . S
C315 O316 1.227 . S
O316 C315 1.227 . S
N317 Co303 2.140 . S
N317 C320 1.346 . S
N317 C321 1.345 . S
C318 C319 1.387 . S
C318 C322 1.391 . S
C319 C318 1.387 . S
C319 C320 1.369 . S
C319 H328 0.929 . S
C320 N317 1.346 . S
C320 C319 1.369 . S
C320 H323 0.928 . S
C321 N317 1.345 . S
C321 C322 1.371 . S
C321 H324 0.931 . S
C322 C318 1.391 . S
C322 C321 1.371 . S
C322 H329 0.930 . S
H323 C320 0.928 . S
H324 C321 0.931 . S
H325 C301 0.930 . S
H326 C298 0.930 . S
H327 C307 0.930 . S
H328 C319 0.929 . S
H329 C322 0.930 . S
C330 C331 1.351 . S
C330 N333 1.368 . S
C330 H335 0.931 . S
C331 C330 1.351 . S
C331 N332 1.373 . S
C331 H359 0.930 . S
N332 C331 1.373 . S
N332 C334 1.340 . S
N333 C330 1.368 . S
N333 C334 1.321 . S
N333 Co336 2.135 . S
C334 N332 1.340 . S
C334 N333 1.321 . S
C334 H358 0.930 . S
H335 C330 0.931 . S
Co336 N333 2.135 . S
Co336 N339 2.121 . S
Co336 O344 2.055 . S
Co336 O347 2.039 . S
Co336 N350 2.140 . S
C337 O338 1.227 . S
C337 O347 1.265 . S
O338 C337 1.227 . S
N339 Co336 2.121 . S
N339 C341 1.375 . S
N339 C342 1.313 . S
C340 C341 1.338 . S
C340 N343 1.377 . S
C340 H360 0.930 . S
C341 N339 1.375 . S
C341 C340 1.338 . S
C341 H345 0.931 . S
C342 N339 1.313 . S
C342 N343 1.344 . S
C342 H346 0.930 . S
N343 C340 1.377 . S
N343 C342 1.344 . S
O344 Co336 2.055 . S
O344 C348 1.253 . S
H345 C341 0.931 . S
H346 C342 0.930 . S
O347 Co336 2.039 . S
O347 C337 1.265 . S
C348 O344 1.253 . S
C348 O349 1.227 . S
O349 C348 1.227 . S
N350 Co336 2.140 . S
N350 C353 1.346 . S
N350 C354 1.345 . S
C351 C352 1.387 . S
C351 C355 1.391 . S
C352 C351 1.387 . S
C352 C353 1.369 . S
C352 H361 0.929 . S
C353 N350 1.346 . S
C353 C352 1.369 . S
C353 H356 0.928 . S
C354 N350 1.345 . S
C354 C355 1.371 . S
C354 H357 0.931 . S
C355 C351 1.391 . S
C355 C354 1.371 . S
C355 H362 0.930 . S
H356 C353 0.928 . S
H357 C354 0.931 . S
H358 C334 0.930 . S
H359 C331 0.930 . S
H360 C340 0.930 . S
H361 C352 0.929 . S
H362 C355 0.930 . S
C363 C364 1.351 . S
C363 N366 1.368 . S
C363 H368 0.931 . S
C364 C363 1.351 . S
C364 N365 1.373 . S
C364 H392 0.930 . S
N365 C364 1.373 . S
N365 C367 1.340 . S
N366 C363 1.368 . S
N366 C367 1.321 . S
N366 Co369 2.135 . S
C367 N365 1.340 . S
C367 N366 1.321 . S
C367 H391 0.930 . S
H368 C363 0.931 . S
Co369 N366 2.135 . S
Co369 N372 2.121 . S
Co369 O377 2.055 . S
Co369 O380 2.039 . S
Co369 N383 2.140 . S
C370 O371 1.227 . S
C370 O380 1.265 . S
O371 C370 1.227 . S
N372 Co369 2.121 . S
N372 C374 1.375 . S
N372 C375 1.313 . S
C373 C374 1.338 . S
C373 N376 1.377 . S
C373 H393 0.930 . S
C374 N372 1.375 . S
C374 C373 1.338 . S
C374 H378 0.931 . S
C375 N372 1.313 . S
C375 N376 1.344 . S
C375 H379 0.930 . S
N376 C373 1.377 . S
N376 C375 1.344 . S
O377 Co369 2.055 . S
O377 C381 1.253 . S
H378 C374 0.931 . S
H379 C375 0.930 . S
O380 Co369 2.039 . S
O380 C370 1.265 . S
C381 O377 1.253 . S
C381 O382 1.227 . S
O382 C381 1.227 . S
N383 Co369 2.140 . S
N383 C386 1.346 . S
N383 C387 1.345 . S
C384 C385 1.387 . S
C384 C388 1.391 . S
C385 C384 1.387 . S
C385 C386 1.369 . S
C385 H394 0.929 . S
C386 N383 1.346 . S
C386 C385 1.369 . S
C386 H389 0.928 . S
C387 N383 1.345 . S
C387 C388 1.371 . S
C387 H390 0.931 . S
C388 C384 1.391 . S
C388 C387 1.371 . S
C388 H395 0.930 . S
H389 C386 0.928 . S
H390 C387 0.931 . S
H391 C367 0.930 . S
H392 C364 0.930 . S
H393 C373 0.930 . S
H394 C385 0.929 . S
H395 C388 0.930 . S
C396 C397 1.351 . S
C396 N399 1.368 . S
C396 H401 0.931 . S
C397 C396 1.351 . S
C397 N398 1.373 . S
C397 H425 0.930 . S
N398 C397 1.373 . S
N398 C400 1.340 . S
N399 C396 1.368 . S
N399 C400 1.321 . S
N399 Co402 2.135 . S
C400 N398 1.340 . S
C400 N399 1.321 . S
C400 H424 0.930 . S
H401 C396 0.931 . S
Co402 N399 2.135 . S
Co402 N405 2.121 . S
Co402 O410 2.055 . S
Co402 O413 2.039 . S
Co402 N416 2.140 . S
C403 O404 1.227 . S
C403 O413 1.265 . S
O404 C403 1.227 . S
N405 Co402 2.121 . S
N405 C407 1.375 . S
N405 C408 1.313 . S
C406 C407 1.338 . S
C406 N409 1.377 . S
C406 H426 0.930 . S
C407 N405 1.375 . S
C407 C406 1.338 . S
C407 H411 0.931 . S
C408 N405 1.313 . S
C408 N409 1.344 . S
C408 H412 0.930 . S
N409 C406 1.377 . S
N409 C408 1.344 . S
O410 Co402 2.055 . S
O410 C414 1.253 . S
H411 C407 0.931 . S
H412 C408 0.930 . S
O413 Co402 2.039 . S
O413 C403 1.265 . S
C414 O410 1.253 . S
C414 O415 1.227 . S
O415 C414 1.227 . S
N416 Co402 2.140 . S
N416 C419 1.346 . S
N416 C420 1.345 . S
C417 C418 1.387 . S
C417 C421 1.391 . S
C418 C417 1.387 . S
C418 C419 1.369 . S
C418 H427 0.929 . S
C419 N416 1.346 . S
C419 C418 1.369 . S
C419 H422 0.928 . S
C420 N416 1.345 . S
C420 C421 1.371 . S
C420 H423 0.931 . S
C421 C417 1.391 . S
C421 C420 1.371 . S
C421 H428 0.930 . S
H422 C419 0.928 . S
H423 C420 0.931 . S
H424 C400 0.930 . S
H425 C397 0.930 . S
H426 C406 0.930 . S
H427 C418 0.929 . S
H428 C421 0.930 . S
C429 C430 1.351 . S
C429 N432 1.368 . S
C429 H434 0.931 . S
C430 C429 1.351 . S
C430 N431 1.373 . S
C430 H458 0.930 . S
N431 C430 1.373 . S
N431 C433 1.340 . S
N432 C429 1.368 . S
N432 C433 1.321 . S
N432 Co435 2.135 . S
C433 N431 1.340 . S
C433 N432 1.321 . S
C433 H457 0.930 . S
H434 C429 0.931 . S
Co435 N432 2.135 . S
Co435 N438 2.121 . S
Co435 O443 2.055 . S
Co435 O446 2.039 . S
Co435 N449 2.140 . S
C436 O437 1.227 . S
C436 O446 1.265 . S
O437 C436 1.227 . S
N438 Co435 2.121 . S
N438 C440 1.375 . S
N438 C441 1.313 . S
C439 C440 1.338 . S
C439 N442 1.377 . S
C439 H459 0.930 . S
C440 N438 1.375 . S
C440 C439 1.338 . S
C440 H444 0.931 . S
C441 N438 1.313 . S
C441 N442 1.344 . S
C441 H445 0.930 . S
N442 C439 1.377 . S
N442 C441 1.344 . S
O443 Co435 2.055 . S
O443 C447 1.253 . S
H444 C440 0.931 . S
H445 C441 0.930 . S
O446 Co435 2.039 . S
O446 C436 1.265 . S
C447 O443 1.253 . S
C447 O448 1.227 . S
O448 C447 1.227 . S
N449 Co435 2.140 . S
N449 C452 1.346 . S
N449 C453 1.345 . S
C450 C451 1.387 . S
C450 C454 1.391 . S
C451 C450 1.387 . S
C451 C452 1.369 . S
C451 H460 0.929 . S
C452 N449 1.346 . S
C452 C451 1.369 . S
C452 H455 0.928 . S
C453 N449 1.345 . S
C453 C454 1.371 . S
C453 H456 0.931 . S
C454 C450 1.391 . S
C454 C453 1.371 . S
C454 H461 0.930 . S
H455 C452 0.928 . S
H456 C453 0.931 . S
H457 C433 0.930 . S
H458 C430 0.930 . S
H459 C439 0.930 . S
H460 C451 0.929 . S
H461 C454 0.930 . S
C462 C463 1.351 . S
C462 N465 1.368 . S
C462 H467 0.931 . S
C463 C462 1.351 . S
C463 N464 1.373 . S
C463 H491 0.930 . S
N464 C463 1.373 . S
N464 C466 1.340 . S
N465 C462 1.368 . S
N465 C466 1.321 . S
N465 Co468 2.135 . S
C466 N464 1.340 . S
C466 N465 1.321 . S
C466 H490 0.930 . S
H467 C462 0.931 . S
Co468 N465 2.135 . S
Co468 N471 2.121 . S
Co468 O476 2.055 . S
Co468 O479 2.039 . S
Co468 N482 2.140 . S
C469 O470 1.227 . S
C469 O479 1.265 . S
O470 C469 1.227 . S
N471 Co468 2.121 . S
N471 C473 1.375 . S
N471 C474 1.313 . S
C472 C473 1.338 . S
C472 N475 1.377 . S
C472 H492 0.930 . S
C473 N471 1.375 . S
C473 C472 1.338 . S
C473 H477 0.931 . S
C474 N471 1.313 . S
C474 N475 1.344 . S
C474 H478 0.930 . S
N475 C472 1.377 . S
N475 C474 1.344 . S
O476 Co468 2.055 . S
O476 C480 1.253 . S
H477 C473 0.931 . S
H478 C474 0.930 . S
O479 Co468 2.039 . S
O479 C469 1.265 . S
C480 O476 1.253 . S
C480 O481 1.227 . S
O481 C480 1.227 . S
N482 Co468 2.140 . S
N482 C485 1.346 . S
N482 C486 1.345 . S
C483 C484 1.387 . S
C483 C487 1.391 . S
C484 C483 1.387 . S
C484 C485 1.369 . S
C484 H493 0.929 . S
C485 N482 1.346 . S
C485 C484 1.369 . S
C485 H488 0.928 . S
C486 N482 1.345 . S
C486 C487 1.371 . S
C486 H489 0.931 . S
C487 C483 1.391 . S
C487 C486 1.371 . S
C487 H494 0.930 . S
H488 C485 0.928 . S
H489 C486 0.931 . S
H490 C466 0.930 . S
H491 C463 0.930 . S
H492 C472 0.930 . S
H493 C484 0.929 . S
H494 C487 0.930 . S
C495 C496 1.351 . S
C495 N498 1.368 . S
C495 H500 0.931 . S
C496 C495 1.351 . S
C496 N497 1.373 . S
C496 H524 0.930 . S
N497 C496 1.373 . S
N497 C499 1.340 . S
N498 C495 1.368 . S
N498 C499 1.321 . S
N498 Co501 2.135 . S
C499 N497 1.340 . S
C499 N498 1.321 . S
C499 H523 0.930 . S
H500 C495 0.931 . S
Co501 N498 2.135 . S
Co501 N504 2.121 . S
Co501 O509 2.055 . S
Co501 O512 2.039 . S
Co501 N515 2.140 . S
C502 O503 1.227 . S
C502 O512 1.265 . S
O503 C502 1.227 . S
N504 Co501 2.121 . S
N504 C506 1.375 . S
N504 C507 1.313 . S
C505 C506 1.338 . S
C505 N508 1.377 . S
C505 H525 0.930 . S
C506 N504 1.375 . S
C506 C505 1.338 . S
C506 H510 0.931 . S
C507 N504 1.313 . S
C507 N508 1.344 . S
C507 H511 0.930 . S
N508 C505 1.377 . S
N508 C507 1.344 . S
O509 Co501 2.055 . S
O509 C513 1.253 . S
H510 C506 0.931 . S
H511 C507 0.930 . S
O512 Co501 2.039 . S
O512 C502 1.265 . S
C513 O509 1.253 . S
C513 O514 1.227 . S
O514 C513 1.227 . S
N515 Co501 2.140 . S
N515 C518 1.346 . S
N515 C519 1.345 . S
C516 C517 1.387 . S
C516 C520 1.391 . S
C517 C516 1.387 . S
C517 C518 1.369 . S
C517 H526 0.929 . S
C518 N515 1.346 . S
C518 C517 1.369 . S
C518 H521 0.928 . S
C519 N515 1.345 . S
C519 C520 1.371 . S
C519 H522 0.931 . S
C520 C516 1.391 . S
C520 C519 1.371 . S
C520 H527 0.930 . S
H521 C518 0.928 . S
H522 C519 0.931 . S
H523 C499 0.930 . S
H524 C496 0.930 . S
H525 C505 0.930 . S
H526 C517 0.929 . S
H527 C520 0.930 . S
C528 C529 1.351 . S
C528 N531 1.368 . S
C528 H533 0.931 . S
C529 C528 1.351 . S
C529 N530 1.373 . S
C529 H557 0.930 . S
N530 C529 1.373 . S
N530 C532 1.340 . S
N531 C528 1.368 . S
N531 C532 1.321 . S
N531 Co534 2.135 . S
C532 N530 1.340 . S
C532 N531 1.321 . S
C532 H556 0.930 . S
H533 C528 0.931 . S
Co534 N531 2.135 . S
Co534 N537 2.121 . S
Co534 O542 2.055 . S
Co534 O545 2.039 . S
Co534 N548 2.140 . S
C535 O536 1.227 . S
C535 O545 1.265 . S
O536 C535 1.227 . S
N537 Co534 2.121 . S
N537 C539 1.375 . S
N537 C540 1.313 . S
C538 C539 1.338 . S
C538 N541 1.377 . S
C538 H558 0.930 . S
C539 N537 1.375 . S
C539 C538 1.338 . S
C539 H543 0.931 . S
C540 N537 1.313 . S
C540 N541 1.344 . S
C540 H544 0.930 . S
N541 C538 1.377 . S
N541 C540 1.344 . S
O542 Co534 2.055 . S
O542 C546 1.253 . S
H543 C539 0.931 . S
H544 C540 0.930 . S
O545 Co534 2.039 . S
O545 C535 1.265 . S
C546 O542 1.253 . S
C546 O547 1.227 . S
O547 C546 1.227 . S
N548 Co534 2.140 . S
N548 C551 1.346 . S
N548 C552 1.345 . S
C549 C550 1.387 . S
C549 C553 1.391 . S
C550 C549 1.387 . S
C550 C551 1.369 . S
C550 H559 0.929 . S
C551 N548 1.346 . S
C551 C550 1.369 . S
C551 H554 0.928 . S
C552 N548 1.345 . S
C552 C553 1.371 . S
C552 H555 0.931 . S
C553 C549 1.391 . S
C553 C552 1.371 . S
C553 H560 0.930 . S
H554 C551 0.928 . S
H555 C552 0.931 . S
H556 C532 0.930 . S
H557 C529 0.930 . S
H558 C538 0.930 . S
H559 C550 0.929 . S
H560 C553 0.930 . S
C561 C562 1.351 . S
C561 N564 1.368 . S
C561 H566 0.931 . S
C562 C561 1.351 . S
C562 N563 1.373 . S
C562 H590 0.930 . S
N563 C562 1.373 . S
N563 C565 1.340 . S
N564 C561 1.368 . S
N564 C565 1.321 . S
N564 Co567 2.135 . S
C565 N563 1.340 . S
C565 N564 1.321 . S
C565 H589 0.930 . S
H566 C561 0.931 . S
Co567 N564 2.135 . S
Co567 N570 2.121 . S
Co567 O575 2.055 . S
Co567 O578 2.039 . S
Co567 N581 2.140 . S
C568 O569 1.227 . S
C568 O578 1.265 . S
O569 C568 1.227 . S
N570 Co567 2.121 . S
N570 C572 1.375 . S
N570 C573 1.313 . S
C571 C572 1.338 . S
C571 N574 1.377 . S
C571 H591 0.930 . S
C572 N570 1.375 . S
C572 C571 1.338 . S
C572 H576 0.931 . S
C573 N570 1.313 . S
C573 N574 1.344 . S
C573 H577 0.930 . S
N574 C571 1.377 . S
N574 C573 1.344 . S
O575 Co567 2.055 . S
O575 C579 1.253 . S
H576 C572 0.931 . S
H577 C573 0.930 . S
O578 Co567 2.039 . S
O578 C568 1.265 . S
C579 O575 1.253 . S
C579 O580 1.227 . S
O580 C579 1.227 . S
N581 Co567 2.140 . S
N581 C584 1.346 . S
N581 C585 1.345 . S
C582 C583 1.387 . S
C582 C586 1.391 . S
C583 C582 1.387 . S
C583 C584 1.369 . S
C583 H592 0.929 . S
C584 N581 1.346 . S
C584 C583 1.369 . S
C584 H587 0.928 . S
C585 N581 1.345 . S
C585 C586 1.371 . S
C585 H588 0.931 . S
C586 C582 1.391 . S
C586 C585 1.371 . S
C586 H593 0.930 . S
H587 C584 0.928 . S
H588 C585 0.931 . S
H589 C565 0.930 . S
H590 C562 0.930 . S
H591 C571 0.930 . S
H592 C583 0.929 . S
H593 C586 0.930 . S
C594 C595 1.351 . S
C594 N597 1.368 . S
C594 H599 0.931 . S
C595 C594 1.351 . S
C595 N596 1.373 . S
C595 H623 0.930 . S
N596 C595 1.373 . S
N596 C598 1.340 . S
N597 C594 1.368 . S
N597 C598 1.321 . S
N597 Co600 2.135 . S
C598 N596 1.340 . S
C598 N597 1.321 . S
C598 H622 0.930 . S
H599 C594 0.931 . S
Co600 N597 2.135 . S
Co600 N603 2.121 . S
Co600 O608 2.055 . S
Co600 O611 2.039 . S
Co600 N614 2.140 . S
C601 O602 1.227 . S
C601 O611 1.265 . S
O602 C601 1.227 . S
N603 Co600 2.121 . S
N603 C605 1.375 . S
N603 C606 1.313 . S
C604 C605 1.338 . S
C604 N607 1.377 . S
C604 H624 0.930 . S
C605 N603 1.375 . S
C605 C604 1.338 . S
C605 H609 0.931 . S
C606 N603 1.313 . S
C606 N607 1.344 . S
C606 H610 0.930 . S
N607 C604 1.377 . S
N607 C606 1.344 . S
O608 Co600 2.055 . S
O608 C612 1.253 . S
H609 C605 0.931 . S
H610 C606 0.930 . S
O611 Co600 2.039 . S
O611 C601 1.265 . S
C612 O608 1.253 . S
C612 O613 1.227 . S
O613 C612 1.227 . S
N614 Co600 2.140 . S
N614 C617 1.346 . S
N614 C618 1.345 . S
C615 C616 1.387 . S
C615 C619 1.391 . S
C616 C615 1.387 . S
C616 C617 1.369 . S
C616 H625 0.929 . S
C617 N614 1.346 . S
C617 C616 1.369 . S
C617 H620 0.928 . S
C618 N614 1.345 . S
C618 C619 1.371 . S
C618 H621 0.931 . S
C619 C615 1.391 . S
C619 C618 1.371 . S
C619 H626 0.930 . S
H620 C617 0.928 . S
H621 C618 0.931 . S
H622 C598 0.930 . S
H623 C595 0.930 . S
H624 C604 0.930 . S
H625 C616 0.929 . S
H626 C619 0.930 . S
C627 C628 1.351 . S
C627 N630 1.368 . S
C627 H632 0.931 . S
C628 C627 1.351 . S
C628 N629 1.373 . S
C628 H656 0.930 . S
N629 C628 1.373 . S
N629 C631 1.340 . S
N630 C627 1.368 . S
N630 C631 1.321 . S
N630 Co633 2.135 . S
C631 N629 1.340 . S
C631 N630 1.321 . S
C631 H655 0.930 . S
H632 C627 0.931 . S
Co633 N630 2.135 . S
Co633 N636 2.121 . S
Co633 O641 2.055 . S
Co633 O644 2.039 . S
Co633 N647 2.140 . S
C634 O635 1.227 . S
C634 O644 1.265 . S
O635 C634 1.227 . S
N636 Co633 2.121 . S
N636 C638 1.375 . S
N636 C639 1.313 . S
C637 C638 1.338 . S
C637 N640 1.377 . S
C637 H657 0.930 . S
C638 N636 1.375 . S
C638 C637 1.338 . S
C638 H642 0.931 . S
C639 N636 1.313 . S
C639 N640 1.344 . S
C639 H643 0.930 . S
N640 C637 1.377 . S
N640 C639 1.344 . S
O641 Co633 2.055 . S
O641 C645 1.253 . S
H642 C638 0.931 . S
H643 C639 0.930 . S
O644 Co633 2.039 . S
O644 C634 1.265 . S
C645 O641 1.253 . S
C645 O646 1.227 . S
O646 C645 1.227 . S
N647 Co633 2.140 . S
N647 C650 1.346 . S
N647 C651 1.345 . S
C648 C649 1.387 . S
C648 C652 1.391 . S
C649 C648 1.387 . S
C649 C650 1.369 . S
C649 H658 0.929 . S
C650 N647 1.346 . S
C650 C649 1.369 . S
C650 H653 0.928 . S
C651 N647 1.345 . S
C651 C652 1.371 . S
C651 H654 0.931 . S
C652 C648 1.391 . S
C652 C651 1.371 . S
C652 H659 0.930 . S
H653 C650 0.928 . S
H654 C651 0.931 . S
H655 C631 0.930 . S
H656 C628 0.930 . S
H657 C637 0.930 . S
H658 C649 0.929 . S
H659 C652 0.930 . S
C660 C661 1.351 . S
C660 N663 1.368 . S
C660 H665 0.931 . S
C661 C660 1.351 . S
C661 N662 1.373 . S
C661 H689 0.930 . S
N662 C661 1.373 . S
N662 C664 1.340 . S
N663 C660 1.368 . S
N663 C664 1.321 . S
N663 Co666 2.135 . S
C664 N662 1.340 . S
C664 N663 1.321 . S
C664 H688 0.930 . S
H665 C660 0.931 . S
Co666 N663 2.135 . S
Co666 N669 2.121 . S
Co666 O674 2.055 . S
Co666 O677 2.039 . S
Co666 N680 2.140 . S
C667 O668 1.227 . S
C667 O677 1.265 . S
O668 C667 1.227 . S
N669 Co666 2.121 . S
N669 C671 1.375 . S
N669 C672 1.313 . S
C670 C671 1.338 . S
C670 N673 1.377 . S
C670 H690 0.930 . S
C671 N669 1.375 . S
C671 C670 1.338 . S
C671 H675 0.931 . S
C672 N669 1.313 . S
C672 N673 1.344 . S
C672 H676 0.930 . S
N673 C670 1.377 . S
N673 C672 1.344 . S
O674 Co666 2.055 . S
O674 C678 1.253 . S
H675 C671 0.931 . S
H676 C672 0.930 . S
O677 Co666 2.039 . S
O677 C667 1.265 . S
C678 O674 1.253 . S
C678 O679 1.227 . S
O679 C678 1.227 . S
N680 Co666 2.140 . S
N680 C683 1.346 . S
N680 C684 1.345 . S
C681 C682 1.387 . S
C681 C685 1.391 . S
C682 C681 1.387 . S
C682 C683 1.369 . S
C682 H691 0.929 . S
C683 N680 1.346 . S
C683 C682 1.369 . S
C683 H686 0.928 . S
C684 N680 1.345 . S
C684 C685 1.371 . S
C684 H687 0.931 . S
C685 C681 1.391 . S
C685 C684 1.371 . S
C685 H692 0.930 . S
H686 C683 0.928 . S
H687 C684 0.931 . S
H688 C664 0.930 . S
H689 C661 0.930 . S
H690 C670 0.930 . S
H691 C682 0.929 . S
H692 C685 0.930 . S
C693 C694 1.351 . S
C693 N696 1.368 . S
C693 H698 0.931 . S
C694 C693 1.351 . S
C694 N695 1.373 . S
C694 H722 0.930 . S
N695 C694 1.373 . S
N695 C697 1.340 . S
N696 C693 1.368 . S
N696 C697 1.321 . S
N696 Co699 2.135 . S
C697 N695 1.340 . S
C697 N696 1.321 . S
C697 H721 0.930 . S
H698 C693 0.931 . S
Co699 N696 2.135 . S
Co699 N702 2.121 . S
Co699 O707 2.055 . S
Co699 O710 2.039 . S
Co699 N713 2.140 . S
C700 O701 1.227 . S
C700 O710 1.265 . S
O701 C700 1.227 . S
N702 Co699 2.121 . S
N702 C704 1.375 . S
N702 C705 1.313 . S
C703 C704 1.338 . S
C703 N706 1.377 . S
C703 H723 0.930 . S
C704 N702 1.375 . S
C704 C703 1.338 . S
C704 H708 0.931 . S
C705 N702 1.313 . S
C705 N706 1.344 . S
C705 H709 0.930 . S
N706 C703 1.377 . S
N706 C705 1.344 . S
O707 Co699 2.055 . S
O707 C711 1.253 . S
H708 C704 0.931 . S
H709 C705 0.930 . S
O710 Co699 2.039 . S
O710 C700 1.265 . S
C711 O707 1.253 . S
C711 O712 1.227 . S
O712 C711 1.227 . S
N713 Co699 2.140 . S
N713 C716 1.346 . S
N713 C717 1.345 . S
C714 C715 1.387 . S
C714 C718 1.391 . S
C715 C714 1.387 . S
C715 C716 1.369 . S
C715 H724 0.929 . S
C716 N713 1.346 . S
C716 C715 1.369 . S
C716 H719 0.928 . S
C717 N713 1.345 . S
C717 C718 1.371 . S
C717 H720 0.931 . S
C718 C714 1.391 . S
C718 C717 1.371 . S
C718 H725 0.930 . S
H719 C716 0.928 . S
H720 C717 0.931 . S
H721 C697 0.930 . S
H722 C694 0.930 . S
H723 C703 0.930 . S
H724 C715 0.929 . S
H725 C718 0.930 . S
C726 C727 1.351 . S
C726 N729 1.368 . S
C726 H731 0.931 . S
C727 C726 1.351 . S
C727 N728 1.373 . S
C727 H755 0.930 . S
N728 C727 1.373 . S
N728 C730 1.340 . S
N729 C726 1.368 . S
N729 C730 1.321 . S
N729 Co732 2.135 . S
C730 N728 1.340 . S
C730 N729 1.321 . S
C730 H754 0.930 . S
H731 C726 0.931 . S
Co732 N729 2.135 . S
Co732 N735 2.121 . S
Co732 O740 2.055 . S
Co732 O743 2.039 . S
Co732 N746 2.140 . S
C733 O734 1.227 . S
C733 O743 1.265 . S
O734 C733 1.227 . S
N735 Co732 2.121 . S
N735 C737 1.375 . S
N735 C738 1.313 . S
C736 C737 1.338 . S
C736 N739 1.377 . S
C736 H756 0.930 . S
C737 N735 1.375 . S
C737 C736 1.338 . S
C737 H741 0.931 . S
C738 N735 1.313 . S
C738 N739 1.344 . S
C738 H742 0.930 . S
N739 C736 1.377 . S
N739 C738 1.344 . S
O740 Co732 2.055 . S
O740 C744 1.253 . S
H741 C737 0.931 . S
H742 C738 0.930 . S
O743 Co732 2.039 . S
O743 C733 1.265 . S
C744 O740 1.253 . S
C744 O745 1.227 . S
O745 C744 1.227 . S
N746 Co732 2.140 . S
N746 C749 1.346 . S
N746 C750 1.345 . S
C747 C748 1.387 . S
C747 C751 1.391 . S
C748 C747 1.387 . S
C748 C749 1.369 . S
C748 H757 0.929 . S
C749 N746 1.346 . S
C749 C748 1.369 . S
C749 H752 0.928 . S
C750 N746 1.345 . S
C750 C751 1.371 . S
C750 H753 0.931 . S
C751 C747 1.391 . S
C751 C750 1.371 . S
C751 H758 0.930 . S
H752 C749 0.928 . S
H753 C750 0.931 . S
H754 C730 0.930 . S
H755 C727 0.930 . S
H756 C736 0.930 . S
H757 C748 0.929 . S
H758 C751 0.930 . S
C759 C760 1.351 . S
C759 N762 1.368 . S
C759 H764 0.931 . S
C760 C759 1.351 . S
C760 N761 1.373 . S
C760 H788 0.930 . S
N761 C760 1.373 . S
N761 C763 1.340 . S
N762 C759 1.368 . S
N762 C763 1.321 . S
N762 Co765 2.135 . S
C763 N761 1.340 . S
C763 N762 1.321 . S
C763 H787 0.930 . S
H764 C759 0.931 . S
Co765 N762 2.135 . S
Co765 N768 2.121 . S
Co765 O773 2.055 . S
Co765 O776 2.039 . S
Co765 N779 2.140 . S
C766 O767 1.227 . S
C766 O776 1.265 . S
O767 C766 1.227 . S
N768 Co765 2.121 . S
N768 C770 1.375 . S
N768 C771 1.313 . S
C769 C770 1.338 . S
C769 N772 1.377 . S
C769 H789 0.930 . S
C770 N768 1.375 . S
C770 C769 1.338 . S
C770 H774 0.931 . S
C771 N768 1.313 . S
C771 N772 1.344 . S
C771 H775 0.930 . S
N772 C769 1.377 . S
N772 C771 1.344 . S
O773 Co765 2.055 . S
O773 C777 1.253 . S
H774 C770 0.931 . S
H775 C771 0.930 . S
O776 Co765 2.039 . S
O776 C766 1.265 . S
C777 O773 1.253 . S
C777 O778 1.227 . S
O778 C777 1.227 . S
N779 Co765 2.140 . S
N779 C782 1.346 . S
N779 C783 1.345 . S
C780 C781 1.387 . S
C780 C784 1.391 . S
C781 C780 1.387 . S
C781 C782 1.369 . S
C781 H790 0.929 . S
C782 N779 1.346 . S
C782 C781 1.369 . S
C782 H785 0.928 . S
C783 N779 1.345 . S
C783 C784 1.371 . S
C783 H786 0.931 . S
C784 C780 1.391 . S
C784 C783 1.371 . S
C784 H791 0.930 . S
H785 C782 0.928 . S
H786 C783 0.931 . S
H787 C763 0.930 . S
H788 C760 0.930 . S
H789 C769 0.930 . S
H790 C781 0.929 . S
H791 C784 0.930 . S
C792 C793 1.351 . S
C792 N795 1.368 . S
C792 H797 0.931 . S
C793 C792 1.351 . S
C793 N794 1.373 . S
C793 H821 0.930 . S
N794 C793 1.373 . S
N794 C796 1.340 . S
N795 C792 1.368 . S
N795 C796 1.321 . S
N795 Co798 2.135 . S
C796 N794 1.340 . S
C796 N795 1.321 . S
C796 H820 0.930 . S
H797 C792 0.931 . S
Co798 N795 2.135 . S
Co798 N801 2.121 . S
Co798 O806 2.055 . S
Co798 O809 2.039 . S
Co798 N812 2.140 . S
C799 O800 1.227 . S
C799 O809 1.265 . S
O800 C799 1.227 . S
N801 Co798 2.121 . S
N801 C803 1.375 . S
N801 C804 1.313 . S
C802 C803 1.338 . S
C802 N805 1.377 . S
C802 H822 0.930 . S
C803 N801 1.375 . S
C803 C802 1.338 . S
C803 H807 0.931 . S
C804 N801 1.313 . S
C804 N805 1.344 . S
C804 H808 0.930 . S
N805 C802 1.377 . S
N805 C804 1.344 . S
O806 Co798 2.055 . S
O806 C810 1.253 . S
H807 C803 0.931 . S
H808 C804 0.930 . S
O809 Co798 2.039 . S
O809 C799 1.265 . S
C810 O806 1.253 . S
C810 O811 1.227 . S
O811 C810 1.227 . S
N812 Co798 2.140 . S
N812 C815 1.346 . S
N812 C816 1.345 . S
C813 C814 1.387 . S
C813 C817 1.391 . S
C814 C813 1.387 . S
C814 C815 1.369 . S
C814 H823 0.929 . S
C815 N812 1.346 . S
C815 C814 1.369 . S
C815 H818 0.928 . S
C816 N812 1.345 . S
C816 C817 1.371 . S
C816 H819 0.931 . S
C817 C813 1.391 . S
C817 C816 1.371 . S
C817 H824 0.930 . S
H818 C815 0.928 . S
H819 C816 0.931 . S
H820 C796 0.930 . S
H821 C793 0.930 . S
H822 C802 0.930 . S
H823 C814 0.929 . S
H824 C817 0.930 . S
C825 C826 1.351 . S
C825 N828 1.368 . S
C825 H830 0.931 . S
C826 C825 1.351 . S
C826 N827 1.373 . S
C826 H854 0.930 . S
N827 C826 1.373 . S
N827 C829 1.340 . S
N828 C825 1.368 . S
N828 C829 1.321 . S
N828 Co831 2.135 . S
C829 N827 1.340 . S
C829 N828 1.321 . S
C829 H853 0.930 . S
H830 C825 0.931 . S
Co831 N828 2.135 . S
Co831 N834 2.121 . S
Co831 O839 2.055 . S
Co831 O842 2.039 . S
Co831 N845 2.140 . S
C832 O833 1.227 . S
C832 O842 1.265 . S
O833 C832 1.227 . S
N834 Co831 2.121 . S
N834 C836 1.375 . S
N834 C837 1.313 . S
C835 C836 1.338 . S
C835 N838 1.377 . S
C835 H855 0.930 . S
C836 N834 1.375 . S
C836 C835 1.338 . S
C836 H840 0.931 . S
C837 N834 1.313 . S
C837 N838 1.344 . S
C837 H841 0.930 . S
N838 C835 1.377 . S
N838 C837 1.344 . S
O839 Co831 2.055 . S
O839 C843 1.253 . S
H840 C836 0.931 . S
H841 C837 0.930 . S
O842 Co831 2.039 . S
O842 C832 1.265 . S
C843 O839 1.253 . S
C843 O844 1.227 . S
O844 C843 1.227 . S
N845 Co831 2.140 . S
N845 C848 1.346 . S
N845 C849 1.345 . S
C846 C847 1.387 . S
C846 C850 1.391 . S
C847 C846 1.387 . S
C847 C848 1.369 . S
C847 H856 0.929 . S
C848 N845 1.346 . S
C848 C847 1.369 . S
C848 H851 0.928 . S
C849 N845 1.345 . S
C849 C850 1.371 . S
C849 H852 0.931 . S
C850 C846 1.391 . S
C850 C849 1.371 . S
C850 H857 0.930 . S
H851 C848 0.928 . S
H852 C849 0.931 . S
H853 C829 0.930 . S
H854 C826 0.930 . S
H855 C835 0.930 . S
H856 C847 0.929 . S
H857 C850 0.930 . S
C858 C859 1.351 . S
C858 N861 1.368 . S
C858 H863 0.931 . S
C859 C858 1.351 . S
C859 N860 1.373 . S
C859 H887 0.930 . S
N860 C859 1.373 . S
N860 C862 1.340 . S
N861 C858 1.368 . S
N861 C862 1.321 . S
N861 Co864 2.135 . S
C862 N860 1.340 . S
C862 N861 1.321 . S
C862 H886 0.930 . S
H863 C858 0.931 . S
Co864 N861 2.135 . S
Co864 N867 2.121 . S
Co864 O872 2.055 . S
Co864 O875 2.039 . S
Co864 N878 2.140 . S
C865 O866 1.227 . S
C865 O875 1.265 . S
O866 C865 1.227 . S
N867 Co864 2.121 . S
N867 C869 1.375 . S
N867 C870 1.313 . S
C868 C869 1.338 . S
C868 N871 1.377 . S
C868 H888 0.930 . S
C869 N867 1.375 . S
C869 C868 1.338 . S
C869 H873 0.931 . S
C870 N867 1.313 . S
C870 N871 1.344 . S
C870 H874 0.930 . S
N871 C868 1.377 . S
N871 C870 1.344 . S
O872 Co864 2.055 . S
O872 C876 1.253 . S
H873 C869 0.931 . S
H874 C870 0.930 . S
O875 Co864 2.039 . S
O875 C865 1.265 . S
C876 O872 1.253 . S
C876 O877 1.227 . S
O877 C876 1.227 . S
N878 Co864 2.140 . S
N878 C881 1.346 . S
N878 C882 1.345 . S
C879 C880 1.387 . S
C879 C883 1.391 . S
C880 C879 1.387 . S
C880 C881 1.369 . S
C880 H889 0.929 . S
C881 N878 1.346 . S
C881 C880 1.369 . S
C881 H884 0.928 . S
C882 N878 1.345 . S
C882 C883 1.371 . S
C882 H885 0.931 . S
C883 C879 1.391 . S
C883 C882 1.371 . S
C883 H890 0.930 . S
H884 C881 0.928 . S
H885 C882 0.931 . S
H886 C862 0.930 . S
H887 C859 0.930 . S
H888 C868 0.930 . S
H889 C880 0.929 . S
H890 C883 0.930 . S
C891 C892 1.351 . S
C891 N894 1.368 . S
C891 H896 0.931 . S
C892 C891 1.351 . S
C892 N893 1.373 . S
C892 H920 0.930 . S
N893 C892 1.373 . S
N893 C895 1.340 . S
N894 C891 1.368 . S
N894 C895 1.321 . S
N894 Co897 2.135 . S
C895 N893 1.340 . S
C895 N894 1.321 . S
C895 H919 0.930 . S
H896 C891 0.931 . S
Co897 N894 2.135 . S
Co897 N900 2.121 . S
Co897 O905 2.055 . S
Co897 O908 2.039 . S
Co897 N911 2.140 . S
C898 O899 1.227 . S
C898 O908 1.265 . S
O899 C898 1.227 . S
N900 Co897 2.121 . S
N900 C902 1.375 . S
N900 C903 1.313 . S
C901 C902 1.338 . S
C901 N904 1.377 . S
C901 H921 0.930 . S
C902 N900 1.375 . S
C902 C901 1.338 . S
C902 H906 0.931 . S
C903 N900 1.313 . S
C903 N904 1.344 . S
C903 H907 0.930 . S
N904 C901 1.377 . S
N904 C903 1.344 . S
O905 Co897 2.055 . S
O905 C909 1.253 . S
H906 C902 0.931 . S
H907 C903 0.930 . S
O908 Co897 2.039 . S
O908 C898 1.265 . S
C909 O905 1.253 . S
C909 O910 1.227 . S
O910 C909 1.227 . S
N911 Co897 2.140 . S
N911 C914 1.346 . S
N911 C915 1.345 . S
C912 C913 1.387 . S
C912 C916 1.391 . S
C913 C912 1.387 . S
C913 C914 1.369 . S
C913 H922 0.929 . S
C914 N911 1.346 . S
C914 C913 1.369 . S
C914 H917 0.928 . S
C915 N911 1.345 . S
C915 C916 1.371 . S
C915 H918 0.931 . S
C916 C912 1.391 . S
C916 C915 1.371 . S
C916 H923 0.930 . S
H917 C914 0.928 . S
H918 C915 0.931 . S
H919 C895 0.930 . S
H920 C892 0.930 . S
H921 C901 0.930 . S
H922 C913 0.929 . S
H923 C916 0.930 . S
C924 C925 1.351 . S
C924 N927 1.368 . S
C924 H929 0.931 . S
C925 C924 1.351 . S
C925 N926 1.373 . S
C925 H953 0.930 . S
N926 C925 1.373 . S
N926 C928 1.340 . S
N927 C924 1.368 . S
N927 C928 1.321 . S
N927 Co930 2.135 . S
C928 N926 1.340 . S
C928 N927 1.321 . S
C928 H952 0.930 . S
H929 C924 0.931 . S
Co930 N927 2.135 . S
Co930 N933 2.121 . S
Co930 O938 2.055 . S
Co930 O941 2.039 . S
Co930 N944 2.140 . S
C931 O932 1.227 . S
C931 O941 1.265 . S
O932 C931 1.227 . S
N933 Co930 2.121 . S
N933 C935 1.375 . S
N933 C936 1.313 . S
C934 C935 1.338 . S
C934 N937 1.377 . S
C934 H954 0.930 . S
C935 N933 1.375 . S
C935 C934 1.338 . S
C935 H939 0.931 . S
C936 N933 1.313 . S
C936 N937 1.344 . S
C936 H940 0.930 . S
N937 C934 1.377 . S
N937 C936 1.344 . S
O938 Co930 2.055 . S
O938 C942 1.253 . S
H939 C935 0.931 . S
H940 C936 0.930 . S
O941 Co930 2.039 . S
O941 C931 1.265 . S
C942 O938 1.253 . S
C942 O943 1.227 . S
O943 C942 1.227 . S
N944 Co930 2.140 . S
N944 C947 1.346 . S
N944 C948 1.345 . S
C945 C946 1.387 . S
C945 C949 1.391 . S
C946 C945 1.387 . S
C946 C947 1.369 . S
C946 H955 0.929 . S
C947 N944 1.346 . S
C947 C946 1.369 . S
C947 H950 0.928 . S
C948 N944 1.345 . S
C948 C949 1.371 . S
C948 H951 0.931 . S
C949 C945 1.391 . S
C949 C948 1.371 . S
C949 H956 0.930 . S
H950 C947 0.928 . S
H951 C948 0.931 . S
H952 C928 0.930 . S
H953 C925 0.930 . S
H954 C934 0.930 . S
H955 C946 0.929 . S
H956 C949 0.930 . S
C957 C958 1.351 . S
C957 N960 1.368 . S
C957 H962 0.931 . S
C958 C957 1.351 . S
C958 N959 1.373 . S
C958 H986 0.930 . S
N959 C958 1.373 . S
N959 C961 1.340 . S
N960 C957 1.368 . S
N960 C961 1.321 . S
N960 Co963 2.135 . S
C961 N959 1.340 . S
C961 N960 1.321 . S
C961 H985 0.930 . S
H962 C957 0.931 . S
Co963 N960 2.135 . S
Co963 N966 2.121 . S
Co963 O971 2.055 . S
Co963 O974 2.039 . S
Co963 N977 2.140 . S
C964 O965 1.227 . S
C964 O974 1.265 . S
O965 C964 1.227 . S
N966 Co963 2.121 . S
N966 C968 1.375 . S
N966 C969 1.313 . S
C967 C968 1.338 . S
C967 N970 1.377 . S
C967 H987 0.930 . S
C968 N966 1.375 . S
C968 C967 1.338 . S
C968 H972 0.931 . S
C969 N966 1.313 . S
C969 N970 1.344 . S
C969 H973 0.930 . S
N970 C967 1.377 . S
N970 C969 1.344 . S
O971 Co963 2.055 . S
O971 C975 1.253 . S
H972 C968 0.931 . S
H973 C969 0.930 . S
O974 Co963 2.039 . S
O974 C964 1.265 . S
C975 O971 1.253 . S
C975 O976 1.227 . S
O976 C975 1.227 . S
N977 Co963 2.140 . S
N977 C980 1.346 . S
N977 C981 1.345 . S
C978 C979 1.387 . S
C978 C982 1.391 . S
C979 C978 1.387 . S
C979 C980 1.369 . S
C979 H988 0.929 . S
C980 N977 1.346 . S
C980 C979 1.369 . S
C980 H983 0.928 . S
C981 N977 1.345 . S
C981 C982 1.371 . S
C981 H984 0.931 . S
C982 C978 1.391 . S
C982 C981 1.371 . S
C982 H989 0.930 . S
H983 C980 0.928 . S
H984 C981 0.931 . S
H985 C961 0.930 . S
H986 C958 0.930 . S
H987 C967 0.930 . S
H988 C979 0.929 . S
H989 C982 0.930 . S
C990 C991 1.351 . S
C990 N993 1.368 . S
C990 H995 0.931 . S
C991 C990 1.351 . S
C991 N992 1.373 . S
C991 H1019 0.930 . S
N992 C991 1.373 . S
N992 C994 1.340 . S
N993 C990 1.368 . S
N993 C994 1.321 . S
N993 Co996 2.135 . S
C994 N992 1.340 . S
C994 N993 1.321 . S
C994 H1018 0.930 . S
H995 C990 0.931 . S
Co996 N993 2.135 . S
Co996 N999 2.121 . S
Co996 O1004 2.055 . S
Co996 O1007 2.039 . S
Co996 N1010 2.140 . S
C997 O998 1.227 . S
C997 O1007 1.265 . S
O998 C997 1.227 . S
N999 Co996 2.121 . S
N999 C1001 1.375 . S
N999 C1002 1.313 . S
C1000 C1001 1.338 . S
C1000 N1003 1.377 . S
C1000 H1020 0.930 . S
C1001 N999 1.375 . S
C1001 C1000 1.338 . S
C1001 H1005 0.931 . S
C1002 N999 1.313 . S
C1002 N1003 1.344 . S
C1002 H1006 0.930 . S
N1003 C1000 1.377 . S
N1003 C1002 1.344 . S
O1004 Co996 2.055 . S
O1004 C1008 1.253 . S
H1005 C1001 0.931 . S
H1006 C1002 0.930 . S
O1007 Co996 2.039 . S
O1007 C997 1.265 . S
C1008 O1004 1.253 . S
C1008 O1009 1.227 . S
O1009 C1008 1.227 . S
N1010 Co996 2.140 . S
N1010 C1013 1.346 . S
N1010 C1014 1.345 . S
C1011 C1012 1.387 . S
C1011 C1015 1.391 . S
C1012 C1011 1.387 . S
C1012 C1013 1.369 . S
C1012 H1021 0.929 . S
C1013 N1010 1.346 . S
C1013 C1012 1.369 . S
C1013 H1016 0.928 . S
C1014 N1010 1.345 . S
C1014 C1015 1.371 . S
C1014 H1017 0.931 . S
C1015 C1011 1.391 . S
C1015 C1014 1.371 . S
C1015 H1022 0.930 . S
H1016 C1013 0.928 . S
H1017 C1014 0.931 . S
H1018 C994 0.930 . S
H1019 C991 0.930 . S
H1020 C1000 0.930 . S
H1021 C1012 0.929 . S
H1022 C1015 0.930 . S
C1023 C1024 1.351 . S
C1023 N1026 1.368 . S
C1023 H1028 0.931 . S
C1024 C1023 1.351 . S
C1024 N1025 1.373 . S
C1024 H1052 0.930 . S
N1025 C1024 1.373 . S
N1025 C1027 1.340 . S
N1026 C1023 1.368 . S
N1026 C1027 1.321 . S
N1026 Co1029 2.135 . S
C1027 N1025 1.340 . S
C1027 N1026 1.321 . S
C1027 H1051 0.930 . S
H1028 C1023 0.931 . S
Co1029 N1026 2.135 . S
Co1029 N1032 2.121 . S
Co1029 O1037 2.055 . S
Co1029 O1040 2.039 . S
Co1029 N1043 2.140 . S
C1030 O1031 1.227 . S
C1030 O1040 1.265 . S
O1031 C1030 1.227 . S
N1032 Co1029 2.121 . S
N1032 C1034 1.375 . S
N1032 C1035 1.313 . S
C1033 C1034 1.338 . S
C1033 N1036 1.377 . S
C1033 H1053 0.930 . S
C1034 N1032 1.375 . S
C1034 C1033 1.338 . S
C1034 H1038 0.931 . S
C1035 N1032 1.313 . S
C1035 N1036 1.344 . S
C1035 H1039 0.930 . S
N1036 C1033 1.377 . S
N1036 C1035 1.344 . S
O1037 Co1029 2.055 . S
O1037 C1041 1.253 . S
H1038 C1034 0.931 . S
H1039 C1035 0.930 . S
O1040 Co1029 2.039 . S
O1040 C1030 1.265 . S
C1041 O1037 1.253 . S
C1041 O1042 1.227 . S
O1042 C1041 1.227 . S
N1043 Co1029 2.140 . S
N1043 C1046 1.346 . S
N1043 C1047 1.345 . S
C1044 C1045 1.387 . S
C1044 C1048 1.391 . S
C1045 C1044 1.387 . S
C1045 C1046 1.369 . S
C1045 H1054 0.929 . S
C1046 N1043 1.346 . S
C1046 C1045 1.369 . S
C1046 H1049 0.928 . S
C1047 N1043 1.345 . S
C1047 C1048 1.371 . S
C1047 H1050 0.931 . S
C1048 C1044 1.391 . S
C1048 C1047 1.371 . S
C1048 H1055 0.930 . S
H1049 C1046 0.928 . S
H1050 C1047 0.931 . S
H1051 C1027 0.930 . S
H1052 C1024 0.930 . S
H1053 C1033 0.930 . S
H1054 C1045 0.929 . S
H1055 C1048 0.930 . S
C1056 C1057 1.351 . S
C1056 N1059 1.368 . S
C1056 H1061 0.931 . S
C1057 C1056 1.351 . S
C1057 N1058 1.373 . S
C1057 H1085 0.930 . S
N1058 C1057 1.373 . S
N1058 C1060 1.340 . S
N1059 C1056 1.368 . S
N1059 C1060 1.321 . S
N1059 Co1062 2.135 . S
C1060 N1058 1.340 . S
C1060 N1059 1.321 . S
C1060 H1084 0.930 . S
H1061 C1056 0.931 . S
Co1062 N1059 2.135 . S
Co1062 N1065 2.121 . S
Co1062 O1070 2.055 . S
Co1062 O1073 2.039 . S
Co1062 N1076 2.140 . S
C1063 O1064 1.227 . S
C1063 O1073 1.265 . S
O1064 C1063 1.227 . S
N1065 Co1062 2.121 . S
N1065 C1067 1.375 . S
N1065 C1068 1.313 . S
C1066 C1067 1.338 . S
C1066 N1069 1.377 . S
C1066 H1086 0.930 . S
C1067 N1065 1.375 . S
C1067 C1066 1.338 . S
C1067 H1071 0.931 . S
C1068 N1065 1.313 . S
C1068 N1069 1.344 . S
C1068 H1072 0.930 . S
N1069 C1066 1.377 . S
N1069 C1068 1.344 . S
O1070 Co1062 2.055 . S
O1070 C1074 1.253 . S
H1071 C1067 0.931 . S
H1072 C1068 0.930 . S
O1073 Co1062 2.039 . S
O1073 C1063 1.265 . S
C1074 O1070 1.253 . S
C1074 O1075 1.227 . S
O1075 C1074 1.227 . S
N1076 Co1062 2.140 . S
N1076 C1079 1.346 . S
N1076 C1080 1.345 . S
C1077 C1078 1.387 . S
C1077 C1081 1.391 . S
C1078 C1077 1.387 . S
C1078 C1079 1.369 . S
C1078 H1087 0.929 . S
C1079 N1076 1.346 . S
C1079 C1078 1.369 . S
C1079 H1082 0.928 . S
C1080 N1076 1.345 . S
C1080 C1081 1.371 . S
C1080 H1083 0.931 . S
C1081 C1077 1.391 . S
C1081 C1080 1.371 . S
C1081 H1088 0.930 . S
H1082 C1079 0.928 . S
H1083 C1080 0.931 . S
H1084 C1060 0.930 . S
H1085 C1057 0.930 . S
H1086 C1066 0.930 . S
H1087 C1078 0.929 . S
H1088 C1081 0.930 . S
C1089 C1090 1.351 . S
C1089 N1092 1.368 . S
C1089 H1094 0.931 . S
C1090 C1089 1.351 . S
C1090 N1091 1.373 . S
C1090 H1118 0.930 . S
N1091 C1090 1.373 . S
N1091 C1093 1.340 . S
N1092 C1089 1.368 . S
N1092 C1093 1.321 . S
N1092 Co1095 2.135 . S
C1093 N1091 1.340 . S
C1093 N1092 1.321 . S
C1093 H1117 0.930 . S
H1094 C1089 0.931 . S
Co1095 N1092 2.135 . S
Co1095 N1098 2.121 . S
Co1095 O1103 2.055 . S
Co1095 O1106 2.039 . S
Co1095 N1109 2.140 . S
C1096 O1097 1.227 . S
C1096 O1106 1.265 . S
O1097 C1096 1.227 . S
N1098 Co1095 2.121 . S
N1098 C1100 1.375 . S
N1098 C1101 1.313 . S
C1099 C1100 1.338 . S
C1099 N1102 1.377 . S
C1099 H1119 0.930 . S
C1100 N1098 1.375 . S
C1100 C1099 1.338 . S
C1100 H1104 0.931 . S
C1101 N1098 1.313 . S
C1101 N1102 1.344 . S
C1101 H1105 0.930 . S
N1102 C1099 1.377 . S
N1102 C1101 1.344 . S
O1103 Co1095 2.055 . S
O1103 C1107 1.253 . S
H1104 C1100 0.931 . S
H1105 C1101 0.930 . S
O1106 Co1095 2.039 . S
O1106 C1096 1.265 . S
C1107 O1103 1.253 . S
C1107 O1108 1.227 . S
O1108 C1107 1.227 . S
N1109 Co1095 2.140 . S
N1109 C1112 1.346 . S
N1109 C1113 1.345 . S
C1110 C1111 1.387 . S
C1110 C1114 1.391 . S
C1111 C1110 1.387 . S
C1111 C1112 1.369 . S
C1111 H1120 0.929 . S
C1112 N1109 1.346 . S
C1112 C1111 1.369 . S
C1112 H1115 0.928 . S
C1113 N1109 1.345 . S
C1113 C1114 1.371 . S
C1113 H1116 0.931 . S
C1114 C1110 1.391 . S
C1114 C1113 1.371 . S
C1114 H1121 0.930 . S
H1115 C1112 0.928 . S
H1116 C1113 0.931 . S
H1117 C1093 0.930 . S
H1118 C1090 0.930 . S
H1119 C1099 0.930 . S
H1120 C1111 0.929 . S
H1121 C1114 0.930 . S
C1122 C1123 1.351 . S
C1122 N1125 1.368 . S
C1122 H1127 0.931 . S
C1123 C1122 1.351 . S
C1123 N1124 1.373 . S
C1123 H1151 0.930 . S
N1124 C1123 1.373 . S
N1124 C1126 1.340 . S
N1125 C1122 1.368 . S
N1125 C1126 1.321 . S
N1125 Co1128 2.135 . S
C1126 N1124 1.340 . S
C1126 N1125 1.321 . S
C1126 H1150 0.930 . S
H1127 C1122 0.931 . S
Co1128 N1125 2.135 . S
Co1128 N1131 2.121 . S
Co1128 O1136 2.055 . S
Co1128 O1139 2.039 . S
Co1128 N1142 2.140 . S
C1129 O1130 1.227 . S
C1129 O1139 1.265 . S
O1130 C1129 1.227 . S
N1131 Co1128 2.121 . S
N1131 C1133 1.375 . S
N1131 C1134 1.313 . S
C1132 C1133 1.338 . S
C1132 N1135 1.377 . S
C1132 H1152 0.930 . S
C1133 N1131 1.375 . S
C1133 C1132 1.338 . S
C1133 H1137 0.931 . S
C1134 N1131 1.313 . S
C1134 N1135 1.344 . S
C1134 H1138 0.930 . S
N1135 C1132 1.377 . S
N1135 C1134 1.344 . S
O1136 Co1128 2.055 . S
O1136 C1140 1.253 . S
H1137 C1133 0.931 . S
H1138 C1134 0.930 . S
O1139 Co1128 2.039 . S
O1139 C1129 1.265 . S
C1140 O1136 1.253 . S
C1140 O1141 1.227 . S
O1141 C1140 1.227 . S
N1142 Co1128 2.140 . S
N1142 C1145 1.346 . S
N1142 C1146 1.345 . S
C1143 C1144 1.387 . S
C1143 C1147 1.391 . S
C1144 C1143 1.387 . S
C1144 C1145 1.369 . S
C1144 H1153 0.929 . S
C1145 N1142 1.346 . S
C1145 C1144 1.369 . S
C1145 H1148 0.928 . S
C1146 N1142 1.345 . S
C1146 C1147 1.371 . S
C1146 H1149 0.931 . S
C1147 C1143 1.391 . S
C1147 C1146 1.371 . S
C1147 H1154 0.930 . S
H1148 C1145 0.928 . S
H1149 C1146 0.931 . S
H1150 C1126 0.930 . S
H1151 C1123 0.930 . S
H1152 C1132 0.930 . S
H1153 C1144 0.929 . S
H1154 C1147 0.930 . S
C1155 C1156 1.351 . S
C1155 N1158 1.368 . S
C1155 H1160 0.931 . S
C1156 C1155 1.351 . S
C1156 N1157 1.373 . S
C1156 H1184 0.930 . S
N1157 C1156 1.373 . S
N1157 C1159 1.340 . S
N1158 C1155 1.368 . S
N1158 C1159 1.321 . S
N1158 Co1161 2.135 . S
C1159 N1157 1.340 . S
C1159 N1158 1.321 . S
C1159 H1183 0.930 . S
H1160 C1155 0.931 . S
Co1161 N1158 2.135 . S
Co1161 N1164 2.121 . S
Co1161 O1169 2.055 . S
Co1161 O1172 2.039 . S
Co1161 N1175 2.140 . S
C1162 O1163 1.227 . S
C1162 O1172 1.265 . S
O1163 C1162 1.227 . S
N1164 Co1161 2.121 . S
N1164 C1166 1.375 . S
N1164 C1167 1.313 . S
C1165 C1166 1.338 . S
C1165 N1168 1.377 . S
C1165 H1185 0.930 . S
C1166 N1164 1.375 . S
C1166 C1165 1.338 . S
C1166 H1170 0.931 . S
C1167 N1164 1.313 . S
C1167 N1168 1.344 . S
C1167 H1171 0.930 . S
N1168 C1165 1.377 . S
N1168 C1167 1.344 . S
O1169 Co1161 2.055 . S
O1169 C1173 1.253 . S
H1170 C1166 0.931 . S
H1171 C1167 0.930 . S
O1172 Co1161 2.039 . S
O1172 C1162 1.265 . S
C1173 O1169 1.253 . S
C1173 O1174 1.227 . S
O1174 C1173 1.227 . S
N1175 Co1161 2.140 . S
N1175 C1178 1.346 . S
N1175 C1179 1.345 . S
C1176 C1177 1.387 . S
C1176 C1180 1.391 . S
C1177 C1176 1.387 . S
C1177 C1178 1.369 . S
C1177 H1186 0.929 . S
C1178 N1175 1.346 . S
C1178 C1177 1.369 . S
C1178 H1181 0.928 . S
C1179 N1175 1.345 . S
C1179 C1180 1.371 . S
C1179 H1182 0.931 . S
C1180 C1176 1.391 . S
C1180 C1179 1.371 . S
C1180 H1187 0.930 . S
H1181 C1178 0.928 . S
H1182 C1179 0.931 . S
H1183 C1159 0.930 . S
H1184 C1156 0.930 . S
H1185 C1165 0.930 . S
H1186 C1177 0.929 . S
H1187 C1180 0.930 . S
C1188 C1189 1.351 . S
C1188 N1191 1.368 . S
C1188 H1193 0.931 . S
C1189 C1188 1.351 . S
C1189 N1190 1.373 . S
C1189 H1217 0.930 . S
N1190 C1189 1.373 . S
N1190 C1192 1.340 . S
N1191 C1188 1.368 . S
N1191 C1192 1.321 . S
N1191 Co1194 2.135 . S
C1192 N1190 1.340 . S
C1192 N1191 1.321 . S
C1192 H1216 0.930 . S
H1193 C1188 0.931 . S
Co1194 N1191 2.135 . S
Co1194 N1197 2.121 . S
Co1194 O1202 2.055 . S
Co1194 O1205 2.039 . S
Co1194 N1208 2.140 . S
C1195 O1196 1.227 . S
C1195 O1205 1.265 . S
O1196 C1195 1.227 . S
N1197 Co1194 2.121 . S
N1197 C1199 1.375 . S
N1197 C1200 1.313 . S
C1198 C1199 1.338 . S
C1198 N1201 1.377 . S
C1198 H1218 0.930 . S
C1199 N1197 1.375 . S
C1199 C1198 1.338 . S
C1199 H1203 0.931 . S
C1200 N1197 1.313 . S
C1200 N1201 1.344 . S
C1200 H1204 0.930 . S
N1201 C1198 1.377 . S
N1201 C1200 1.344 . S
O1202 Co1194 2.055 . S
O1202 C1206 1.253 . S
H1203 C1199 0.931 . S
H1204 C1200 0.930 . S
O1205 Co1194 2.039 . S
O1205 C1195 1.265 . S
C1206 O1202 1.253 . S
C1206 O1207 1.227 . S
O1207 C1206 1.227 . S
N1208 Co1194 2.140 . S
N1208 C1211 1.346 . S
N1208 C1212 1.345 . S
C1209 C1210 1.387 . S
C1209 C1213 1.391 . S
C1210 C1209 1.387 . S
C1210 C1211 1.369 . S
C1210 H1219 0.929 . S
C1211 N1208 1.346 . S
C1211 C1210 1.369 . S
C1211 H1214 0.928 . S
C1212 N1208 1.345 . S
C1212 C1213 1.371 . S
C1212 H1215 0.931 . S
C1213 C1209 1.391 . S
C1213 C1212 1.371 . S
C1213 H1220 0.930 . S
H1214 C1211 0.928 . S
H1215 C1212 0.931 . S
H1216 C1192 0.930 . S
H1217 C1189 0.930 . S
H1218 C1198 0.930 . S
H1219 C1210 0.929 . S
H1220 C1213 0.930 . S
C1221 C1222 1.351 . S
C1221 N1224 1.368 . S
C1221 H1226 0.931 . S
C1222 C1221 1.351 . S
C1222 N1223 1.373 . S
C1222 H1250 0.930 . S
N1223 C1222 1.373 . S
N1223 C1225 1.340 . S
N1224 C1221 1.368 . S
N1224 C1225 1.321 . S
N1224 Co1227 2.135 . S
C1225 N1223 1.340 . S
C1225 N1224 1.321 . S
C1225 H1249 0.930 . S
H1226 C1221 0.931 . S
Co1227 N1224 2.135 . S
Co1227 N1230 2.121 . S
Co1227 O1235 2.055 . S
Co1227 O1238 2.039 . S
Co1227 N1241 2.140 . S
C1228 O1229 1.227 . S
C1228 O1238 1.265 . S
O1229 C1228 1.227 . S
N1230 Co1227 2.121 . S
N1230 C1232 1.375 . S
N1230 C1233 1.313 . S
C1231 C1232 1.338 . S
C1231 N1234 1.377 . S
C1231 H1251 0.930 . S
C1232 N1230 1.375 . S
C1232 C1231 1.338 . S
C1232 H1236 0.931 . S
C1233 N1230 1.313 . S
C1233 N1234 1.344 . S
C1233 H1237 0.930 . S
N1234 C1231 1.377 . S
N1234 C1233 1.344 . S
O1235 Co1227 2.055 . S
O1235 C1239 1.253 . S
H1236 C1232 0.931 . S
H1237 C1233 0.930 . S
O1238 Co1227 2.039 . S
O1238 C1228 1.265 . S
C1239 O1235 1.253 . S
C1239 O1240 1.227 . S
O1240 C1239 1.227 . S
N1241 Co1227 2.140 . S
N1241 C1244 1.346 . S
N1241 C1245 1.345 . S
C1242 C1243 1.387 . S
C1242 C1246 1.391 . S
C1243 C1242 1.387 . S
C1243 C1244 1.369 . S
C1243 H1252 0.929 . S
C1244 N1241 1.346 . S
C1244 C1243 1.369 . S
C1244 H1247 0.928 . S
C1245 N1241 1.345 . S
C1245 C1246 1.371 . S
C1245 H1248 0.931 . S
C1246 C1242 1.391 . S
C1246 C1245 1.371 . S
C1246 H1253 0.930 . S
H1247 C1244 0.928 . S
H1248 C1245 0.931 . S
H1249 C1225 0.930 . S
H1250 C1222 0.930 . S
H1251 C1231 0.930 . S
H1252 C1243 0.929 . S
H1253 C1246 0.930 . S
C1254 C1255 1.351 . S
C1254 N1257 1.368 . S
C1254 H1259 0.931 . S
C1255 C1254 1.351 . S
C1255 N1256 1.373 . S
C1255 H1283 0.930 . S
N1256 C1255 1.373 . S
N1256 C1258 1.340 . S
N1257 C1254 1.368 . S
N1257 C1258 1.321 . S
N1257 Co1260 2.135 . S
C1258 N1256 1.340 . S
C1258 N1257 1.321 . S
C1258 H1282 0.930 . S
H1259 C1254 0.931 . S
Co1260 N1257 2.135 . S
Co1260 N1263 2.121 . S
Co1260 O1268 2.055 . S
Co1260 O1271 2.039 . S
Co1260 N1274 2.140 . S
C1261 O1262 1.227 . S
C1261 O1271 1.265 . S
O1262 C1261 1.227 . S
N1263 Co1260 2.121 . S
N1263 C1265 1.375 . S
N1263 C1266 1.313 . S
C1264 C1265 1.338 . S
C1264 N1267 1.377 . S
C1264 H1284 0.930 . S
C1265 N1263 1.375 . S
C1265 C1264 1.338 . S
C1265 H1269 0.931 . S
C1266 N1263 1.313 . S
C1266 N1267 1.344 . S
C1266 H1270 0.930 . S
N1267 C1264 1.377 . S
N1267 C1266 1.344 . S
O1268 Co1260 2.055 . S
O1268 C1272 1.253 . S
H1269 C1265 0.931 . S
H1270 C1266 0.930 . S
O1271 Co1260 2.039 . S
O1271 C1261 1.265 . S
C1272 O1268 1.253 . S
C1272 O1273 1.227 . S
O1273 C1272 1.227 . S
N1274 Co1260 2.140 . S
N1274 C1277 1.346 . S
N1274 C1278 1.345 . S
C1275 C1276 1.387 . S
C1275 C1279 1.391 . S
C1276 C1275 1.387 . S
C1276 C1277 1.369 . S
C1276 H1285 0.929 . S
C1277 N1274 1.346 . S
C1277 C1276 1.369 . S
C1277 H1280 0.928 . S
C1278 N1274 1.345 . S
C1278 C1279 1.371 . S
C1278 H1281 0.931 . S
C1279 C1275 1.391 . S
C1279 C1278 1.371 . S
C1279 H1286 0.930 . S
H1280 C1277 0.928 . S
H1281 C1278 0.931 . S
H1282 C1258 0.930 . S
H1283 C1255 0.930 . S
H1284 C1264 0.930 . S
H1285 C1276 0.929 . S
H1286 C1279 0.930 . S
C1287 C1288 1.351 . S
C1287 N1290 1.368 . S
C1287 H1292 0.931 . S
C1288 C1287 1.351 . S
C1288 N1289 1.373 . S
C1288 H1316 0.930 . S
N1289 C1288 1.373 . S
N1289 C1291 1.340 . S
N1290 C1287 1.368 . S
N1290 C1291 1.321 . S
N1290 Co1293 2.135 . S
C1291 N1289 1.340 . S
C1291 N1290 1.321 . S
C1291 H1315 0.930 . S
H1292 C1287 0.931 . S
Co1293 N1290 2.135 . S
Co1293 N1296 2.121 . S
Co1293 O1301 2.055 . S
Co1293 O1304 2.039 . S
Co1293 N1307 2.140 . S
C1294 O1295 1.227 . S
C1294 O1304 1.265 . S
O1295 C1294 1.227 . S
N1296 Co1293 2.121 . S
N1296 C1298 1.375 . S
N1296 C1299 1.313 . S
C1297 C1298 1.338 . S
C1297 N1300 1.377 . S
C1297 H1317 0.930 . S
C1298 N1296 1.375 . S
C1298 C1297 1.338 . S
C1298 H1302 0.931 . S
C1299 N1296 1.313 . S
C1299 N1300 1.344 . S
C1299 H1303 0.930 . S
N1300 C1297 1.377 . S
N1300 C1299 1.344 . S
O1301 Co1293 2.055 . S
O1301 C1305 1.253 . S
H1302 C1298 0.931 . S
H1303 C1299 0.930 . S
O1304 Co1293 2.039 . S
O1304 C1294 1.265 . S
C1305 O1301 1.253 . S
C1305 O1306 1.227 . S
O1306 C1305 1.227 . S
N1307 Co1293 2.140 . S
N1307 C1310 1.346 . S
N1307 C1311 1.345 . S
C1308 C1309 1.387 . S
C1308 C1312 1.391 . S
C1309 C1308 1.387 . S
C1309 C1310 1.369 . S
C1309 H1318 0.929 . S
C1310 N1307 1.346 . S
C1310 C1309 1.369 . S
C1310 H1313 0.928 . S
C1311 N1307 1.345 . S
C1311 C1312 1.371 . S
C1311 H1314 0.931 . S
C1312 C1308 1.391 . S
C1312 C1311 1.371 . S
C1312 H1319 0.930 . S
H1313 C1310 0.928 . S
H1314 C1311 0.931 . S
H1315 C1291 0.930 . S
H1316 C1288 0.930 . S
H1317 C1297 0.930 . S
H1318 C1309 0.929 . S
H1319 C1312 0.930 . S
C1320 C1321 1.351 . S
C1320 N1323 1.368 . S
C1320 H1325 0.931 . S
C1321 C1320 1.351 . S
C1321 N1322 1.373 . S
C1321 H1349 0.930 . S
N1322 C1321 1.373 . S
N1322 C1324 1.340 . S
N1323 C1320 1.368 . S
N1323 C1324 1.321 . S
N1323 Co1326 2.135 . S
C1324 N1322 1.340 . S
C1324 N1323 1.321 . S
C1324 H1348 0.930 . S
H1325 C1320 0.931 . S
Co1326 N1323 2.135 . S
Co1326 N1329 2.121 . S
Co1326 O1334 2.055 . S
Co1326 O1337 2.039 . S
Co1326 N1340 2.140 . S
C1327 O1328 1.227 . S
C1327 O1337 1.265 . S
O1328 C1327 1.227 . S
N1329 Co1326 2.121 . S
N1329 C1331 1.375 . S
N1329 C1332 1.313 . S
C1330 C1331 1.338 . S
C1330 N1333 1.377 . S
C1330 H1350 0.930 . S
C1331 N1329 1.375 . S
C1331 C1330 1.338 . S
C1331 H1335 0.931 . S
C1332 N1329 1.313 . S
C1332 N1333 1.344 . S
C1332 H1336 0.930 . S
N1333 C1330 1.377 . S
N1333 C1332 1.344 . S
O1334 Co1326 2.055 . S
O1334 C1338 1.253 . S
H1335 C1331 0.931 . S
H1336 C1332 0.930 . S
O1337 Co1326 2.039 . S
O1337 C1327 1.265 . S
C1338 O1334 1.253 . S
C1338 O1339 1.227 . S
O1339 C1338 1.227 . S
N1340 Co1326 2.140 . S
N1340 C1343 1.346 . S
N1340 C1344 1.345 . S
C1341 C1342 1.387 . S
C1341 C1345 1.391 . S
C1342 C1341 1.387 . S
C1342 C1343 1.369 . S
C1342 H1351 0.929 . S
C1343 N1340 1.346 . S
C1343 C1342 1.369 . S
C1343 H1346 0.928 . S
C1344 N1340 1.345 . S
C1344 C1345 1.371 . S
C1344 H1347 0.931 . S
C1345 C1341 1.391 . S
C1345 C1344 1.371 . S
C1345 H1352 0.930 . S
H1346 C1343 0.928 . S
H1347 C1344 0.931 . S
H1348 C1324 0.930 . S
H1349 C1321 0.930 . S
H1350 C1330 0.930 . S
H1351 C1342 0.929 . S
H1352 C1345 0.930 . S
C1353 C1354 1.351 . S
C1353 N1356 1.368 . S
C1353 H1358 0.931 . S
C1354 C1353 1.351 . S
C1354 N1355 1.373 . S
C1354 H1382 0.930 . S
N1355 C1354 1.373 . S
N1355 C1357 1.340 . S
N1356 C1353 1.368 . S
N1356 C1357 1.321 . S
N1356 Co1359 2.135 . S
C1357 N1355 1.340 . S
C1357 N1356 1.321 . S
C1357 H1381 0.930 . S
H1358 C1353 0.931 . S
Co1359 N1356 2.135 . S
Co1359 N1362 2.121 . S
Co1359 O1367 2.055 . S
Co1359 O1370 2.039 . S
Co1359 N1373 2.140 . S
C1360 O1361 1.227 . S
C1360 O1370 1.265 . S
O1361 C1360 1.227 . S
N1362 Co1359 2.121 . S
N1362 C1364 1.375 . S
N1362 C1365 1.313 . S
C1363 C1364 1.338 . S
C1363 N1366 1.377 . S
C1363 H1383 0.930 . S
C1364 N1362 1.375 . S
C1364 C1363 1.338 . S
C1364 H1368 0.931 . S
C1365 N1362 1.313 . S
C1365 N1366 1.344 . S
C1365 H1369 0.930 . S
N1366 C1363 1.377 . S
N1366 C1365 1.344 . S
O1367 Co1359 2.055 . S
O1367 C1371 1.253 . S
H1368 C1364 0.931 . S
H1369 C1365 0.930 . S
O1370 Co1359 2.039 . S
O1370 C1360 1.265 . S
C1371 O1367 1.253 . S
C1371 O1372 1.227 . S
O1372 C1371 1.227 . S
N1373 Co1359 2.140 . S
N1373 C1376 1.346 . S
N1373 C1377 1.345 . S
C1374 C1375 1.387 . S
C1374 C1378 1.391 . S
C1375 C1374 1.387 . S
C1375 C1376 1.369 . S
C1375 H1384 0.929 . S
C1376 N1373 1.346 . S
C1376 C1375 1.369 . S
C1376 H1379 0.928 . S
C1377 N1373 1.345 . S
C1377 C1378 1.371 . S
C1377 H1380 0.931 . S
C1378 C1374 1.391 . S
C1378 C1377 1.371 . S
C1378 H1385 0.930 . S
H1379 C1376 0.928 . S
H1380 C1377 0.931 . S
H1381 C1357 0.930 . S
H1382 C1354 0.930 . S
H1383 C1363 0.930 . S
H1384 C1375 0.929 . S
H1385 C1378 0.930 . S
C1386 C1387 1.351 . S
C1386 N1389 1.368 . S
C1386 H1391 0.931 . S
C1387 C1386 1.351 . S
C1387 N1388 1.373 . S
C1387 H1415 0.930 . S
N1388 C1387 1.373 . S
N1388 C1390 1.340 . S
N1389 C1386 1.368 . S
N1389 C1390 1.321 . S
N1389 Co1392 2.135 . S
C1390 N1388 1.340 . S
C1390 N1389 1.321 . S
C1390 H1414 0.930 . S
H1391 C1386 0.931 . S
Co1392 N1389 2.135 . S
Co1392 N1395 2.121 . S
Co1392 O1400 2.055 . S
Co1392 O1403 2.039 . S
Co1392 N1406 2.140 . S
C1393 O1394 1.227 . S
C1393 O1403 1.265 . S
O1394 C1393 1.227 . S
N1395 Co1392 2.121 . S
N1395 C1397 1.375 . S
N1395 C1398 1.313 . S
C1396 C1397 1.338 . S
C1396 N1399 1.377 . S
C1396 H1416 0.930 . S
C1397 N1395 1.375 . S
C1397 C1396 1.338 . S
C1397 H1401 0.931 . S
C1398 N1395 1.313 . S
C1398 N1399 1.344 . S
C1398 H1402 0.930 . S
N1399 C1396 1.377 . S
N1399 C1398 1.344 . S
O1400 Co1392 2.055 . S
O1400 C1404 1.253 . S
H1401 C1397 0.931 . S
H1402 C1398 0.930 . S
O1403 Co1392 2.039 . S
O1403 C1393 1.265 . S
C1404 O1400 1.253 . S
C1404 O1405 1.227 . S
O1405 C1404 1.227 . S
N1406 Co1392 2.140 . S
N1406 C1409 1.346 . S
N1406 C1410 1.345 . S
C1407 C1408 1.387 . S
C1407 C1411 1.391 . S
C1408 C1407 1.387 . S
C1408 C1409 1.369 . S
C1408 H1417 0.929 . S
C1409 N1406 1.346 . S
C1409 C1408 1.369 . S
C1409 H1412 0.928 . S
C1410 N1406 1.345 . S
C1410 C1411 1.371 . S
C1410 H1413 0.931 . S
C1411 C1407 1.391 . S
C1411 C1410 1.371 . S
C1411 H1418 0.930 . S
H1412 C1409 0.928 . S
H1413 C1410 0.931 . S
H1414 C1390 0.930 . S
H1415 C1387 0.930 . S
H1416 C1396 0.930 . S
H1417 C1408 0.929 . S
H1418 C1411 0.930 . S
C1419 C1420 1.351 . S
C1419 N1422 1.368 . S
C1419 H1424 0.931 . S
C1420 C1419 1.351 . S
C1420 N1421 1.373 . S
C1420 H1448 0.930 . S
N1421 C1420 1.373 . S
N1421 C1423 1.340 . S
N1422 C1419 1.368 . S
N1422 C1423 1.321 . S
N1422 Co1425 2.135 . S
C1423 N1421 1.340 . S
C1423 N1422 1.321 . S
C1423 H1447 0.930 . S
H1424 C1419 0.931 . S
Co1425 N1422 2.135 . S
Co1425 N1428 2.121 . S
Co1425 O1433 2.055 . S
Co1425 O1436 2.039 . S
Co1425 N1439 2.140 . S
C1426 O1427 1.227 . S
C1426 O1436 1.265 . S
O1427 C1426 1.227 . S
N1428 Co1425 2.121 . S
N1428 C1430 1.375 . S
N1428 C1431 1.313 . S
C1429 C1430 1.338 . S
C1429 N1432 1.377 . S
C1429 H1449 0.930 . S
C1430 N1428 1.375 . S
C1430 C1429 1.338 . S
C1430 H1434 0.931 . S
C1431 N1428 1.313 . S
C1431 N1432 1.344 . S
C1431 H1435 0.930 . S
N1432 C1429 1.377 . S
N1432 C1431 1.344 . S
O1433 Co1425 2.055 . S
O1433 C1437 1.253 . S
H1434 C1430 0.931 . S
H1435 C1431 0.930 . S
O1436 Co1425 2.039 . S
O1436 C1426 1.265 . S
C1437 O1433 1.253 . S
C1437 O1438 1.227 . S
O1438 C1437 1.227 . S
N1439 Co1425 2.140 . S
N1439 C1442 1.346 . S
N1439 C1443 1.345 . S
C1440 C1441 1.387 . S
C1440 C1444 1.391 . S
C1441 C1440 1.387 . S
C1441 C1442 1.369 . S
C1441 H1450 0.929 . S
C1442 N1439 1.346 . S
C1442 C1441 1.369 . S
C1442 H1445 0.928 . S
C1443 N1439 1.345 . S
C1443 C1444 1.371 . S
C1443 H1446 0.931 . S
C1444 C1440 1.391 . S
C1444 C1443 1.371 . S
C1444 H1451 0.930 . S
H1445 C1442 0.928 . S
H1446 C1443 0.931 . S
H1447 C1423 0.930 . S
H1448 C1420 0.930 . S
H1449 C1429 0.930 . S
H1450 C1441 0.929 . S
H1451 C1444 0.930 . S
C1452 C1453 1.351 . S
C1452 N1455 1.368 . S
C1452 H1457 0.931 . S
C1453 C1452 1.351 . S
C1453 N1454 1.373 . S
C1453 H1481 0.930 . S
N1454 C1453 1.373 . S
N1454 C1456 1.340 . S
N1455 C1452 1.368 . S
N1455 C1456 1.321 . S
N1455 Co1458 2.135 . S
C1456 N1454 1.340 . S
C1456 N1455 1.321 . S
C1456 H1480 0.930 . S
H1457 C1452 0.931 . S
Co1458 N1455 2.135 . S
Co1458 N1461 2.121 . S
Co1458 O1466 2.055 . S
Co1458 O1469 2.039 . S
Co1458 N1472 2.140 . S
C1459 O1460 1.227 . S
C1459 O1469 1.265 . S
O1460 C1459 1.227 . S
N1461 Co1458 2.121 . S
N1461 C1463 1.375 . S
N1461 C1464 1.313 . S
C1462 C1463 1.338 . S
C1462 N1465 1.377 . S
C1462 H1482 0.930 . S
C1463 N1461 1.375 . S
C1463 C1462 1.338 . S
C1463 H1467 0.931 . S
C1464 N1461 1.313 . S
C1464 N1465 1.344 . S
C1464 H1468 0.930 . S
N1465 C1462 1.377 . S
N1465 C1464 1.344 . S
O1466 Co1458 2.055 . S
O1466 C1470 1.253 . S
H1467 C1463 0.931 . S
H1468 C1464 0.930 . S
O1469 Co1458 2.039 . S
O1469 C1459 1.265 . S
C1470 O1466 1.253 . S
C1470 O1471 1.227 . S
O1471 C1470 1.227 . S
N1472 Co1458 2.140 . S
N1472 C1475 1.346 . S
N1472 C1476 1.345 . S
C1473 C1474 1.387 . S
C1473 C1477 1.391 . S
C1474 C1473 1.387 . S
C1474 C1475 1.369 . S
C1474 H1483 0.929 . S
C1475 N1472 1.346 . S
C1475 C1474 1.369 . S
C1475 H1478 0.928 . S
C1476 N1472 1.345 . S
C1476 C1477 1.371 . S
C1476 H1479 0.931 . S
C1477 C1473 1.391 . S
C1477 C1476 1.371 . S
C1477 H1484 0.930 . S
H1478 C1475 0.928 . S
H1479 C1476 0.931 . S
H1480 C1456 0.930 . S
H1481 C1453 0.930 . S
H1482 C1462 0.930 . S
H1483 C1474 0.929 . S
H1484 C1477 0.930 . S
C1485 C1486 1.351 . S
C1485 N1488 1.368 . S
C1485 H1490 0.931 . S
C1486 C1485 1.351 . S
C1486 N1487 1.373 . S
C1486 H1514 0.930 . S
N1487 C1486 1.373 . S
N1487 C1489 1.340 . S
N1488 C1485 1.368 . S
N1488 C1489 1.321 . S
N1488 Co1491 2.135 . S
C1489 N1487 1.340 . S
C1489 N1488 1.321 . S
C1489 H1513 0.930 . S
H1490 C1485 0.931 . S
Co1491 N1488 2.135 . S
Co1491 N1494 2.121 . S
Co1491 O1499 2.055 . S
Co1491 O1502 2.039 . S
Co1491 N1505 2.140 . S
C1492 O1493 1.227 . S
C1492 O1502 1.265 . S
O1493 C1492 1.227 . S
N1494 Co1491 2.121 . S
N1494 C1496 1.375 . S
N1494 C1497 1.313 . S
C1495 C1496 1.338 . S
C1495 N1498 1.377 . S
C1495 H1515 0.930 . S
C1496 N1494 1.375 . S
C1496 C1495 1.338 . S
C1496 H1500 0.931 . S
C1497 N1494 1.313 . S
C1497 N1498 1.344 . S
C1497 H1501 0.930 . S
N1498 C1495 1.377 . S
N1498 C1497 1.344 . S
O1499 Co1491 2.055 . S
O1499 C1503 1.253 . S
H1500 C1496 0.931 . S
H1501 C1497 0.930 . S
O1502 Co1491 2.039 . S
O1502 C1492 1.265 . S
C1503 O1499 1.253 . S
C1503 O1504 1.227 . S
O1504 C1503 1.227 . S
N1505 Co1491 2.140 . S
N1505 C1508 1.346 . S
N1505 C1509 1.345 . S
C1506 C1507 1.387 . S
C1506 C1510 1.391 . S
C1507 C1506 1.387 . S
C1507 C1508 1.369 . S
C1507 H1516 0.929 . S
C1508 N1505 1.346 . S
C1508 C1507 1.369 . S
C1508 H1511 0.928 . S
C1509 N1505 1.345 . S
C1509 C1510 1.371 . S
C1509 H1512 0.931 . S
C1510 C1506 1.391 . S
C1510 C1509 1.371 . S
C1510 H1517 0.930 . S
H1511 C1508 0.928 . S
H1512 C1509 0.931 . S
H1513 C1489 0.930 . S
H1514 C1486 0.930 . S
H1515 C1495 0.930 . S
H1516 C1507 0.929 . S
H1517 C1510 0.930 . S
C1518 C1519 1.351 . S
C1518 N1521 1.368 . S
C1518 H1523 0.931 . S
C1519 C1518 1.351 . S
C1519 N1520 1.373 . S
C1519 H1547 0.930 . S
N1520 C1519 1.373 . S
N1520 C1522 1.340 . S
N1521 C1518 1.368 . S
N1521 C1522 1.321 . S
N1521 Co1524 2.135 . S
C1522 N1520 1.340 . S
C1522 N1521 1.321 . S
C1522 H1546 0.930 . S
H1523 C1518 0.931 . S
Co1524 N1521 2.135 . S
Co1524 N1527 2.121 . S
Co1524 O1532 2.055 . S
Co1524 O1535 2.039 . S
Co1524 N1538 2.140 . S
C1525 O1526 1.227 . S
C1525 O1535 1.265 . S
O1526 C1525 1.227 . S
N1527 Co1524 2.121 . S
N1527 C1529 1.375 . S
N1527 C1530 1.313 . S
C1528 C1529 1.338 . S
C1528 N1531 1.377 . S
C1528 H1548 0.930 . S
C1529 N1527 1.375 . S
C1529 C1528 1.338 . S
C1529 H1533 0.931 . S
C1530 N1527 1.313 . S
C1530 N1531 1.344 . S
C1530 H1534 0.930 . S
N1531 C1528 1.377 . S
N1531 C1530 1.344 . S
O1532 Co1524 2.055 . S
O1532 C1536 1.253 . S
H1533 C1529 0.931 . S
H1534 C1530 0.930 . S
O1535 Co1524 2.039 . S
O1535 C1525 1.265 . S
C1536 O1532 1.253 . S
C1536 O1537 1.227 . S
O1537 C1536 1.227 . S
N1538 Co1524 2.140 . S
N1538 C1541 1.346 . S
N1538 C1542 1.345 . S
C1539 C1540 1.387 . S
C1539 C1543 1.391 . S
C1540 C1539 1.387 . S
C1540 C1541 1.369 . S
C1540 H1549 0.929 . S
C1541 N1538 1.346 . S
C1541 C1540 1.369 . S
C1541 H1544 0.928 . S
C1542 N1538 1.345 . S
C1542 C1543 1.371 . S
C1542 H1545 0.931 . S
C1543 C1539 1.391 . S
C1543 C1542 1.371 . S
C1543 H1550 0.930 . S
H1544 C1541 0.928 . S
H1545 C1542 0.931 . S
H1546 C1522 0.930 . S
H1547 C1519 0.930 . S
H1548 C1528 0.930 . S
H1549 C1540 0.929 . S
H1550 C1543 0.930 . S
C1551 C1552 1.351 . S
C1551 N1554 1.368 . S
C1551 H1556 0.931 . S
C1552 C1551 1.351 . S
C1552 N1553 1.373 . S
C1552 H1580 0.930 . S
N1553 C1552 1.373 . S
N1553 C1555 1.340 . S
N1554 C1551 1.368 . S
N1554 C1555 1.321 . S
N1554 Co1557 2.135 . S
C1555 N1553 1.340 . S
C1555 N1554 1.321 . S
C1555 H1579 0.930 . S
H1556 C1551 0.931 . S
Co1557 N1554 2.135 . S
Co1557 N1560 2.121 . S
Co1557 O1565 2.055 . S
Co1557 O1568 2.039 . S
Co1557 N1571 2.140 . S
C1558 O1559 1.227 . S
C1558 O1568 1.265 . S
O1559 C1558 1.227 . S
N1560 Co1557 2.121 . S
N1560 C1562 1.375 . S
N1560 C1563 1.313 . S
C1561 C1562 1.338 . S
C1561 N1564 1.377 . S
C1561 H1581 0.930 . S
C1562 N1560 1.375 . S
C1562 C1561 1.338 . S
C1562 H1566 0.931 . S
C1563 N1560 1.313 . S
C1563 N1564 1.344 . S
C1563 H1567 0.930 . S
N1564 C1561 1.377 . S
N1564 C1563 1.344 . S
O1565 Co1557 2.055 . S
O1565 C1569 1.253 . S
H1566 C1562 0.931 . S
H1567 C1563 0.930 . S
O1568 Co1557 2.039 . S
O1568 C1558 1.265 . S
C1569 O1565 1.253 . S
C1569 O1570 1.227 . S
O1570 C1569 1.227 . S
N1571 Co1557 2.140 . S
N1571 C1574 1.346 . S
N1571 C1575 1.345 . S
C1572 C1573 1.387 . S
C1572 C1576 1.391 . S
C1573 C1572 1.387 . S
C1573 C1574 1.369 . S
C1573 H1582 0.929 . S
C1574 N1571 1.346 . S
C1574 C1573 1.369 . S
C1574 H1577 0.928 . S
C1575 N1571 1.345 . S
C1575 C1576 1.371 . S
C1575 H1578 0.931 . S
C1576 C1572 1.391 . S
C1576 C1575 1.371 . S
C1576 H1583 0.930 . S
H1577 C1574 0.928 . S
H1578 C1575 0.931 . S
H1579 C1555 0.930 . S
H1580 C1552 0.930 . S
H1581 C1561 0.930 . S
H1582 C1573 0.929 . S
H1583 C1576 0.930 . S
H1584 C1596 0.930 . S
H1585 C1598 0.930 . S
H1586 C1599 0.930 . S
H1587 C1603 0.959 . S
H1588 C1603 0.959 . S
H1589 C1603 0.961 . S
H1590 C1604 0.960 . S
H1591 C1604 0.961 . S
H1592 C1604 0.959 . S
H1593 C1607 0.929 . S
H1594 C1608 0.931 . S
H1595 C1610 0.930 . S
C1596 H1584 0.930 . S
C1596 C1597 1.399 . S
C1596 C1601 1.399 1_556 S
C1597 C1596 1.399 . S
C1597 C1598 1.376 . S
C1598 H1585 0.930 . S
C1598 C1597 1.376 . S
C1598 C1599 1.388 1_556 S
C1599 H1586 0.930 . S
C1599 C1598 1.388 1_554 S
C1599 C1600 1.390 . S
C1600 C1599 1.390 . S
C1600 C1601 1.394 . S
C1600 C1606 1.465 . S
C1601 C1596 1.399 1_554 S
C1601 C1600 1.394 . S
C1601 C1602 1.516 . S
C1602 C1601 1.516 . S
C1602 C1603 1.502 . S
C1602 C1604 1.561 . S
C1602 C1605 1.526 . S
C1603 H1587 0.959 . S
C1603 H1588 0.959 . S
C1603 H1589 0.961 . S
C1603 C1602 1.502 . S
C1604 H1590 0.960 . S
C1604 H1591 0.961 . S
C1604 H1592 0.959 . S
C1604 C1602 1.561 . S
C1605 C1602 1.526 . S
C1605 C1606 1.396 . S
C1605 C1610 1.390 . S
C1606 C1600 1.465 . S
C1606 C1605 1.396 . S
C1606 C1607 1.399 . S
C1607 H1593 0.929 . S
C1607 C1606 1.399 . S
C1607 C1608 1.385 . S
C1608 H1594 0.931 . S
C1608 C1607 1.385 . S
C1608 C1609 1.389 . S
C1609 C1608 1.389 . S
C1609 C1610 1.387 . S
C1610 H1595 0.930 . S
C1610 C1605 1.390 . S
C1610 C1609 1.387 . S
H1611 C1623 0.930 . S
H1612 C1625 0.930 . S
H1613 C1626 0.930 . S
H1614 C1630 0.959 . S
H1615 C1630 0.959 . S
H1616 C1630 0.961 . S
H1617 C1631 0.960 . S
H1618 C1631 0.961 . S
H1619 C1631 0.959 . S
H1620 C1634 0.929 . S
H1621 C1635 0.931 . S
H1622 C1637 0.930 . S
C1623 H1611 0.930 . S
C1623 C1624 1.399 . S
C1623 C1628 1.399 . S
C1624 C1623 1.399 . S
C1624 C1625 1.376 . S
C1625 H1612 0.930 . S
C1625 C1624 1.376 . S
C1625 C1626 1.388 . S
C1626 H1613 0.930 . S
C1626 C1625 1.388 . S
C1626 C1627 1.390 . S
C1627 C1626 1.390 . S
C1627 C1628 1.394 . S
C1627 C1633 1.465 . S
C1628 C1623 1.399 . S
C1628 C1627 1.394 . S
C1628 C1629 1.516 . S
C1629 C1628 1.516 . S
C1629 C1630 1.502 . S
C1629 C1631 1.561 . S
C1629 C1632 1.526 . S
C1630 H1614 0.959 . S
C1630 H1615 0.959 . S
C1630 H1616 0.961 . S
C1630 C1629 1.502 . S
C1631 H1617 0.960 . S
C1631 H1618 0.961 . S
C1631 H1619 0.959 . S
C1631 C1629 1.561 . S
C1632 C1629 1.526 . S
C1632 C1633 1.396 . S
C1632 C1637 1.390 1_554 S
C1633 C1627 1.465 . S
C1633 C1632 1.396 . S
C1633 C1634 1.399 1_554 S
C1634 H1620 0.929 . S
C1634 C1633 1.399 1_556 S
C1634 C1635 1.385 . S
C1635 H1621 0.931 . S
C1635 C1634 1.385 . S
C1635 C1636 1.389 . S
C1636 C1635 1.389 . S
C1636 C1637 1.387 . S
C1637 H1622 0.930 . S
C1637 C1632 1.390 1_556 S
C1637 C1636 1.387 . S
H1638 C1650 0.930 . S
H1639 C1652 0.930 . S
H1640 C1653 0.930 . S
H1641 C1657 0.959 . S
H1642 C1657 0.959 . S
H1643 C1657 0.961 . S
H1644 C1658 0.960 . S
H1645 C1658 0.961 . S
H1646 C1658 0.959 . S
H1647 C1661 0.929 . S
H1648 C1662 0.931 . S
H1649 C1664 0.930 . S
C1650 H1638 0.930 . S
C1650 C1651 1.399 . S
C1650 C1655 1.399 . S
C1651 C1650 1.399 . S
C1651 C1652 1.376 . S
C1652 H1639 0.930 . S
C1652 C1651 1.376 . S
C1652 C1653 1.388 . S
C1653 H1640 0.930 . S
C1653 C1652 1.388 . S
C1653 C1654 1.390 . S
C1654 C1653 1.390 . S
C1654 C1655 1.394 . S
C1654 C1660 1.465 . S
C1655 C1650 1.399 . S
C1655 C1654 1.394 . S
C1655 C1656 1.516 . S
C1656 C1655 1.516 . S
C1656 C1657 1.502 . S
C1656 C1658 1.561 . S
C1656 C1659 1.526 . S
C1657 H1641 0.959 . S
C1657 H1642 0.959 . S
C1657 H1643 0.961 . S
C1657 C1656 1.502 . S
C1658 H1644 0.960 . S
C1658 H1645 0.961 . S
C1658 H1646 0.959 . S
C1658 C1656 1.561 . S
C1659 C1656 1.526 . S
C1659 C1660 1.396 . S
C1659 C1664 1.390 1_554 S
C1660 C1654 1.465 . S
C1660 C1659 1.396 . S
C1660 C1661 1.399 . S
C1661 H1647 0.929 . S
C1661 C1660 1.399 . S
C1661 C1662 1.385 1_554 S
C1662 H1648 0.931 . S
C1662 C1661 1.385 1_556 S
C1662 C1663 1.389 . S
C1663 C1662 1.389 . S
C1663 C1664 1.387 . S
C1664 H1649 0.930 . S
C1664 C1659 1.390 1_556 S
C1664 C1663 1.387 . S
H1665 C1677 0.930 . S
H1666 C1679 0.930 . S
H1667 C1680 0.930 . S
H1668 C1684 0.959 . S
H1669 C1684 0.959 . S
H1670 C1684 0.961 . S
H1671 C1685 0.967 . S
H1672 C1685 0.961 . S
H1673 C1685 0.959 . S
H1674 C1688 0.929 . S
H1675 C1689 0.931 . S
H1676 C1691 0.930 . S
C1677 H1665 0.930 . S
C1677 C1678 1.399 . S
C1677 C1682 1.399 1_556 S
C1678 C1677 1.399 . S
C1678 C1679 1.376 . S
C1679 H1666 0.930 . S
C1679 C1678 1.376 . S
C1679 C1680 1.388 1_556 S
C1680 H1667 0.930 . S
C1680 C1679 1.388 1_554 S
C1680 C1681 1.390 . S
C1681 C1680 1.390 . S
C1681 C1682 1.394 . S
C1681 C1687 1.465 . S
C1682 C1677 1.399 1_554 S
C1682 C1681 1.394 . S
C1682 C1683 1.516 . S
C1683 C1682 1.516 . S
C1683 C1684 1.502 . S
C1683 C1685 1.561 . S
C1683 C1686 1.526 . S
C1684 H1668 0.959 . S
C1684 H1669 0.959 . S
C1684 H1670 0.961 . S
C1684 C1683 1.502 . S
C1685 H1671 0.967 . S
C1685 H1672 0.961 . S
C1685 H1673 0.959 . S
C1685 C1683 1.561 . S
C1686 C1683 1.526 . S
C1686 C1687 1.396 . S
C1686 C1691 1.390 . S
C1687 C1681 1.465 . S
C1687 C1686 1.396 . S
C1687 C1688 1.399 . S
C1688 H1674 0.929 . S
C1688 C1687 1.399 . S
C1688 C1689 1.385 . S
C1689 H1675 0.931 . S
C1689 C1688 1.385 . S
C1689 C1690 1.389 . S
C1690 C1689 1.389 . S
C1690 C1691 1.387 . S
C1691 H1676 0.930 . S
C1691 C1686 1.390 . S
C1691 C1690 1.387 . S
H1692 C1704 0.930 . S
H1693 C1706 0.930 . S
H1694 C1707 0.930 . S
H1695 C1711 0.959 . S
H1696 C1711 0.959 . S
H1697 C1711 0.961 . S
H1698 C1712 0.960 . S
H1699 C1712 0.961 . S
H1700 C1712 0.959 . S
H1701 C1715 0.929 . S
H1702 C1716 0.931 . S
H1703 C1718 0.930 . S
C1704 H1692 0.930 . S
C1704 C1705 1.399 . S
C1704 C1709 1.399 1_554 S
C1705 C1704 1.399 . S
C1705 C1706 1.376 . S
C1706 H1693 0.930 . S
C1706 C1705 1.376 . S
C1706 C1707 1.388 . S
C1707 H1694 0.930 . S
C1707 C1706 1.388 . S
C1707 C1708 1.390 1_554 S
C1708 C1707 1.390 1_556 S
C1708 C1709 1.394 . S
C1708 C1714 1.465 . S
C1709 C1704 1.399 1_556 S
C1709 C1708 1.394 . S
C1709 C1710 1.516 . S
C1710 C1709 1.516 . S
C1710 C1711 1.502 . S
C1710 C1712 1.561 . S
C1710 C1713 1.526 . S
C1711 H1695 0.959 . S
C1711 H1696 0.959 . S
C1711 H1697 0.961 . S
C1711 C1710 1.502 . S
C1712 H1698 0.960 . S
C1712 H1699 0.961 . S
C1712 H1700 0.959 . S
C1712 C1710 1.561 . S
C1713 C1710 1.526 . S
C1713 C1714 1.396 . S
C1713 C1718 1.390 . S
C1714 C1708 1.465 . S
C1714 C1713 1.396 . S
C1714 C1715 1.399 . S
C1715 H1701 0.929 . S
C1715 C1714 1.399 . S
C1715 C1716 1.385 . S
C1716 H1702 0.931 . S
C1716 C1715 1.385 . S
C1716 C1717 1.389 . S
C1717 C1716 1.389 . S
C1717 C1718 1.387 . S
C1718 H1703 0.930 . S
C1718 C1713 1.390 . S
C1718 C1717 1.387 . S
H1719 C1731 0.930 . S
H1720 C1733 0.930 . S
H1721 C1734 0.930 . S
H1722 C1738 0.959 . S
H1723 C1738 0.959 . S
H1724 C1738 0.961 . S
H1725 C1739 0.960 . S
H1726 C1739 0.961 . S
H1727 C1739 0.959 . S
H1728 C1742 0.933 . S
H1729 C1743 0.931 . S
H1730 C1745 0.930 . S
C1731 H1719 0.930 . S
C1731 C1732 1.399 . S
C1731 C1736 1.399 . S
C1732 C1731 1.399 . S
C1732 C1733 1.376 . S
C1733 H1720 0.930 . S
C1733 C1732 1.376 . S
C1733 C1734 1.388 . S
C1734 H1721 0.930 . S
C1734 C1733 1.388 . S
C1734 C1735 1.390 . S
C1735 C1734 1.390 . S
C1735 C1736 1.394 . S
C1735 C1741 1.465 . S
C1736 C1731 1.399 . S
C1736 C1735 1.394 . S
C1736 C1737 1.516 . S
C1737 C1736 1.516 . S
C1737 C1738 1.502 . S
C1737 C1739 1.561 . S
C1737 C1740 1.526 . S
C1738 H1722 0.959 . S
C1738 H1723 0.959 . S
C1738 H1724 0.961 . S
C1738 C1737 1.502 . S
C1739 H1725 0.960 . S
C1739 H1726 0.961 . S
C1739 H1727 0.959 . S
C1739 C1737 1.561 . S
C1740 C1737 1.526 . S
C1740 C1741 1.396 . S
C1740 C1745 1.390 1_556 S
C1741 C1735 1.465 . S
C1741 C1740 1.396 . S
C1741 C1742 1.399 1_556 S
C1742 H1728 0.933 . S
C1742 C1741 1.399 1_554 S
C1742 C1743 1.385 . S
C1743 H1729 0.931 . S
C1743 C1742 1.385 . S
C1743 C1744 1.389 . S
C1744 C1743 1.389 . S
C1744 C1745 1.387 . S
C1745 H1730 0.930 . S
C1745 C1740 1.390 1_554 S
C1745 C1744 1.387 . S
H1746 C1758 0.930 . S
H1747 C1760 0.930 . S
H1748 C1761 0.930 . S
H1749 C1765 0.959 . S
H1750 C1765 0.959 . S
H1751 C1765 0.961 . S
H1752 C1766 0.960 . S
H1753 C1766 0.961 . S
H1754 C1766 0.959 . S
H1755 C1769 0.929 . S
H1756 C1770 0.931 . S
H1757 C1772 0.930 . S
C1758 H1746 0.930 . S
C1758 C1759 1.399 . S
C1758 C1763 1.399 1_554 S
C1759 C1758 1.399 . S
C1759 C1760 1.376 . S
C1760 H1747 0.930 . S
C1760 C1759 1.376 . S
C1760 C1761 1.388 . S
C1761 H1748 0.930 . S
C1761 C1760 1.388 . S
C1761 C1762 1.390 1_554 S
C1762 C1761 1.390 1_556 S
C1762 C1763 1.394 . S
C1762 C1768 1.465 . S
C1763 C1758 1.399 1_556 S
C1763 C1762 1.394 . S
C1763 C1764 1.516 . S
C1764 C1763 1.516 . S
C1764 C1765 1.502 . S
C1764 C1766 1.561 . S
C1764 C1767 1.526 . S
C1765 H1749 0.959 . S
C1765 H1750 0.959 . S
C1765 H1751 0.961 . S
C1765 C1764 1.502 . S
C1766 H1752 0.960 . S
C1766 H1753 0.961 . S
C1766 H1754 0.959 . S
C1766 C1764 1.561 . S
C1767 C1764 1.526 . S
C1767 C1768 1.396 . S
C1767 C1772 1.390 . S
C1768 C1762 1.465 . S
C1768 C1767 1.396 . S
C1768 C1769 1.399 . S
C1769 H1755 0.929 . S
C1769 C1768 1.399 . S
C1769 C1770 1.385 . S
C1770 H1756 0.931 . S
C1770 C1769 1.385 . S
C1770 C1771 1.389 . S
C1771 C1770 1.389 . S
C1771 C1772 1.387 . S
C1772 H1757 0.930 . S
C1772 C1767 1.390 . S
C1772 C1771 1.387 . S
H1773 C1785 0.930 . S
H1774 C1787 0.930 . S
H1775 C1788 0.930 . S
H1776 C1792 0.959 . S
H1777 C1792 0.959 . S
H1778 C1792 0.961 . S
H1779 C1793 0.960 . S
H1780 C1793 0.961 . S
H1781 C1793 0.959 . S
H1782 C1796 0.929 . S
H1783 C1797 0.931 . S
H1784 C1799 0.930 . S
C1785 H1773 0.930 . S
C1785 C1786 1.399 . S
C1785 C1790 1.399 1_554 S
C1786 C1785 1.399 . S
C1786 C1787 1.376 . S
C1787 H1774 0.930 . S
C1787 C1786 1.376 . S
C1787 C1788 1.388 . S
C1788 H1775 0.930 . S
C1788 C1787 1.388 . S
C1788 C1789 1.390 1_554 S
C1789 C1788 1.390 1_556 S
C1789 C1790 1.394 . S
C1789 C1795 1.465 . S
C1790 C1785 1.399 1_556 S
C1790 C1789 1.394 . S
C1790 C1791 1.516 . S
C1791 C1790 1.516 . S
C1791 C1792 1.502 . S
C1791 C1793 1.561 . S
C1791 C1794 1.526 . S
C1792 H1776 0.959 . S
C1792 H1777 0.959 . S
C1792 H1778 0.961 . S
C1792 C1791 1.502 . S
C1793 H1779 0.960 . S
C1793 H1780 0.961 . S
C1793 H1781 0.959 . S
C1793 C1791 1.561 . S
C1794 C1791 1.526 . S
C1794 C1795 1.396 . S
C1794 C1799 1.390 . S
C1795 C1789 1.465 . S
C1795 C1794 1.396 . S
C1795 C1796 1.399 . S
C1796 H1782 0.929 . S
C1796 C1795 1.399 . S
C1796 C1797 1.385 . S
C1797 H1783 0.931 . S
C1797 C1796 1.385 . S
C1797 C1798 1.389 . S
C1798 C1797 1.389 . S
C1798 C1799 1.387 . S
C1799 H1784 0.930 . S
C1799 C1794 1.390 . S
C1799 C1798 1.387 . S
H1800 C1812 0.930 . S
H1801 C1814 0.930 . S
H1802 C1815 0.930 . S
H1803 C1819 0.959 . S
H1804 C1819 0.959 . S
H1805 C1819 0.961 . S
H1806 C1820 0.960 . S
H1807 C1820 0.961 . S
H1808 C1820 0.959 . S
H1809 C1823 0.924 1_455 S
H1810 C1824 0.931 . S
H1811 C1826 0.930 . S
C1812 H1800 0.930 . S
C1812 C1813 1.399 . S
C1812 C1817 1.399 . S
C1813 C1812 1.399 . S
C1813 C1814 1.376 . S
C1814 H1801 0.930 . S
C1814 C1813 1.376 . S
C1814 C1815 1.388 . S
C1815 H1802 0.930 . S
C1815 C1814 1.388 . S
C1815 C1816 1.390 . S
C1816 C1815 1.390 . S
C1816 C1817 1.394 . S
C1816 C1822 1.465 . S
C1817 C1812 1.399 . S
C1817 C1816 1.394 . S
C1817 C1818 1.516 . S
C1818 C1817 1.516 . S
C1818 C1819 1.502 . S
C1818 C1820 1.561 . S
C1818 C1821 1.526 . S
C1819 H1803 0.959 . S
C1819 H1804 0.959 . S
C1819 H1805 0.961 . S
C1819 C1818 1.502 . S
C1820 H1806 0.960 . S
C1820 H1807 0.961 . S
C1820 H1808 0.959 . S
C1820 C1818 1.561 . S
C1821 C1818 1.526 . S
C1821 C1822 1.396 . S
C1821 C1826 1.390 1_455 S
C1822 C1816 1.465 . S
C1822 C1821 1.396 . S
C1822 C1823 1.381 1_455 S
C1823 H1809 0.924 1_655 S
C1823 C1822 1.381 1_655 S
C1823 C1824 1.409 . S
C1824 H1810 0.931 . S
C1824 C1823 1.409 . S
C1824 C1825 1.389 . S
C1825 C1824 1.389 . S
C1825 C1826 1.387 . S
C1826 H1811 0.930 . S
C1826 C1821 1.390 1_655 S
C1826 C1825 1.387 . S
H1827 C1839 0.930 . S
H1828 C1841 0.930 . S
H1829 C1842 0.921 1_545 S
H1830 C1846 0.959 . S
H1831 C1846 0.959 . S
H1832 C1846 0.961 . S
H1833 C1847 0.960 . S
H1834 C1847 0.961 . S
H1835 C1847 0.959 . S
H1836 C1850 0.929 . S
H1837 C1851 0.931 . S
H1838 C1853 0.930 . S
C1839 H1827 0.930 . S
C1839 C1840 1.399 . S
C1839 C1844 1.399 1_565 S
C1840 C1839 1.399 . S
C1840 C1841 1.376 . S
C1841 H1828 0.930 . S
C1841 C1840 1.376 . S
C1841 C1842 1.426 . S
C1842 H1829 0.921 1_565 S
C1842 C1841 1.426 . S
C1842 C1843 1.362 1_565 S
C1843 C1842 1.362 1_545 S
C1843 C1844 1.394 . S
C1843 C1849 1.465 . S
C1844 C1839 1.399 1_545 S
C1844 C1843 1.394 . S
C1844 C1845 1.516 . S
C1845 C1844 1.516 . S
C1845 C1846 1.502 . S
C1845 C1847 1.561 . S
C1845 C1848 1.526 . S
C1846 H1830 0.959 . S
C1846 H1831 0.959 . S
C1846 H1832 0.961 . S
C1846 C1845 1.502 . S
C1847 H1833 0.960 . S
C1847 H1834 0.961 . S
C1847 H1835 0.959 . S
C1847 C1845 1.561 . S
C1848 C1845 1.526 . S
C1848 C1849 1.396 . S
C1848 C1853 1.390 . S
C1849 C1843 1.465 . S
C1849 C1848 1.396 . S
C1849 C1850 1.399 . S
C1850 H1836 0.929 . S
C1850 C1849 1.399 . S
C1850 C1851 1.385 . S
C1851 H1837 0.931 . S
C1851 C1850 1.385 . S
C1851 C1852 1.389 . S
C1852 C1851 1.389 . S
C1852 C1853 1.387 . S
C1853 H1838 0.930 . S
C1853 C1848 1.390 . S
C1853 C1852 1.387 . S
H1854 C1866 0.930 . S
H1855 C1868 0.930 . S
H1856 C1869 0.931 . S
H1857 C1873 0.959 . S
H1858 C1873 0.959 . S
H1859 C1873 0.961 . S
H1860 C1874 0.960 . S
H1861 C1874 0.961 . S
H1862 C1874 0.959 . S
H1863 C1877 0.929 . S
H1864 C1878 0.931 . S
H1865 C1880 0.930 . S
C1866 H1854 0.930 . S
C1866 C1867 1.399 . S
C1866 C1871 1.399 1_455 S
C1867 C1866 1.399 . S
C1867 C1868 1.376 . S
C1868 H1855 0.930 . S
C1868 C1867 1.376 . S
C1868 C1869 1.388 . S
C1869 H1856 0.931 . S
C1869 C1868 1.388 . S
C1869 C1870 1.390 1_455 S
C1870 C1869 1.390 1_655 S
C1870 C1871 1.394 . S
C1870 C1876 1.465 . S
C1871 C1866 1.399 1_655 S
C1871 C1870 1.394 . S
C1871 C1872 1.516 . S
C1872 C1871 1.516 . S
C1872 C1873 1.502 . S
C1872 C1874 1.561 . S
C1872 C1875 1.526 . S
C1873 H1857 0.959 . S
C1873 H1858 0.959 . S
C1873 H1859 0.961 . S
C1873 C1872 1.502 . S
C1874 H1860 0.960 . S
C1874 H1861 0.961 . S
C1874 H1862 0.959 . S
C1874 C1872 1.561 . S
C1875 C1872 1.526 . S
C1875 C1876 1.396 . S
C1875 C1880 1.390 . S
C1876 C1870 1.465 . S
C1876 C1875 1.396 . S
C1876 C1877 1.399 . S
C1877 H1863 0.929 . S
C1877 C1876 1.399 . S
C1877 C1878 1.385 . S
C1878 H1864 0.931 . S
C1878 C1877 1.385 . S
C1878 C1879 1.389 . S
C1879 C1878 1.389 . S
C1879 C1880 1.387 . S
C1880 H1865 0.930 . S
C1880 C1875 1.390 . S
C1880 C1879 1.387 . S
H1881 C1893 0.930 . S
H1882 C1895 0.930 . S
H1883 C1896 0.930 . S
H1884 C1900 0.959 . S
H1885 C1900 0.959 . S
H1886 C1900 0.961 . S
H1887 C1901 0.960 . S
H1888 C1901 0.961 . S
H1889 C1901 0.959 . S
H1890 C1904 0.930 . S
H1891 C1905 0.931 . S
H1892 C1907 0.930 . S
C1893 H1881 0.930 . S
C1893 C1894 1.399 . S
C1893 C1898 1.399 . S
C1894 C1893 1.399 . S
C1894 C1895 1.376 . S
C1895 H1882 0.930 . S
C1895 C1894 1.376 . S
C1895 C1896 1.388 . S
C1896 H1883 0.930 . S
C1896 C1895 1.388 . S
C1896 C1897 1.390 . S
C1897 C1896 1.390 . S
C1897 C1898 1.394 . S
C1897 C1903 1.465 . S
C1898 C1893 1.399 . S
C1898 C1897 1.394 . S
C1898 C1899 1.516 . S
C1899 C1898 1.516 . S
C1899 C1900 1.502 . S
C1899 C1901 1.561 . S
C1899 C1902 1.526 . S
C1900 H1884 0.959 . S
C1900 H1885 0.959 . S
C1900 H1886 0.961 . S
C1900 C1899 1.502 . S
C1901 H1887 0.960 . S
C1901 H1888 0.961 . S
C1901 H1889 0.959 . S
C1901 C1899 1.561 . S
C1902 C1899 1.526 . S
C1902 C1903 1.396 . S
C1902 C1907 1.390 1_565 S
C1903 C1897 1.465 . S
C1903 C1902 1.396 . S
C1903 C1904 1.399 . S
C1904 H1890 0.930 . S
C1904 C1903 1.399 . S
C1904 C1905 1.384 1_565 S
C1905 H1891 0.931 . S
C1905 C1904 1.384 1_545 S
C1905 C1906 1.389 . S
C1906 C1905 1.389 . S
C1906 C1907 1.387 . S
C1907 H1892 0.930 . S
C1907 C1902 1.390 1_545 S
C1907 C1906 1.387 . S
H1908 C1920 0.930 . S
H1909 C1922 0.930 . S
H1910 C1923 0.930 . S
H1911 C1927 0.959 . S
H1912 C1927 0.959 . S
H1913 C1927 0.961 . S
H1914 C1928 0.960 . S
H1915 C1928 0.961 . S
H1916 C1928 0.959 . S
H1917 C1931 0.929 . S
H1918 C1932 0.931 . S
H1919 C1934 0.930 . S
C1920 H1908 0.930 . S
C1920 C1921 1.399 . S
C1920 C1925 1.399 1_655 S
C1921 C1920 1.399 . S
C1921 C1922 1.376 . S
C1922 H1909 0.930 . S
C1922 C1921 1.376 . S
C1922 C1923 1.388 1_655 S
C1923 H1910 0.930 . S
C1923 C1922 1.388 1_455 S
C1923 C1924 1.390 . S
C1924 C1923 1.390 . S
C1924 C1925 1.394 . S
C1924 C1930 1.465 . S
C1925 C1920 1.399 1_455 S
C1925 C1924 1.394 . S
C1925 C1926 1.516 . S
C1926 C1925 1.516 . S
C1926 C1927 1.502 . S
C1926 C1928 1.561 . S
C1926 C1929 1.526 . S
C1927 H1911 0.959 . S
C1927 H1912 0.959 . S
C1927 H1913 0.961 . S
C1927 C1926 1.502 . S
C1928 H1914 0.960 . S
C1928 H1915 0.961 . S
C1928 H1916 0.959 . S
C1928 C1926 1.561 . S
C1929 C1926 1.526 . S
C1929 C1930 1.396 . S
C1929 C1934 1.390 . S
C1930 C1924 1.465 . S
C1930 C1929 1.396 . S
C1930 C1931 1.399 . S
C1931 H1917 0.929 . S
C1931 C1930 1.399 . S
C1931 C1932 1.385 . S
C1932 H1918 0.931 . S
C1932 C1931 1.385 . S
C1932 C1933 1.389 . S
C1933 C1932 1.389 . S
C1933 C1934 1.387 . S
C1934 H1919 0.930 . S
C1934 C1929 1.390 . S
C1934 C1933 1.387 . S
H1935 C1947 0.930 . S
H1936 C1949 0.930 . S
H1937 C1950 0.930 . S
H1938 C1954 0.959 . S
H1939 C1954 0.959 . S
H1940 C1954 0.961 . S
H1941 C1955 0.960 . S
H1942 C1955 0.961 . S
H1943 C1955 0.959 . S
H1944 C1958 0.929 . S
H1945 C1959 0.931 . S
H1946 C1961 0.930 . S
C1947 H1935 0.930 . S
C1947 C1948 1.399 . S
C1947 C1952 1.399 . S
C1948 C1947 1.399 . S
C1948 C1949 1.376 . S
C1949 H1936 0.930 . S
C1949 C1948 1.376 . S
C1949 C1950 1.388 . S
C1950 H1937 0.930 . S
C1950 C1949 1.388 . S
C1950 C1951 1.390 . S
C1951 C1950 1.390 . S
C1951 C1952 1.394 . S
C1951 C1957 1.465 . S
C1952 C1947 1.399 . S
C1952 C1951 1.394 . S
C1952 C1953 1.516 . S
C1953 C1952 1.516 . S
C1953 C1954 1.502 . S
C1953 C1955 1.561 . S
C1953 C1956 1.526 . S
C1954 H1938 0.959 . S
C1954 H1939 0.959 . S
C1954 H1940 0.961 . S
C1954 C1953 1.502 . S
C1955 H1941 0.960 . S
C1955 H1942 0.961 . S
C1955 H1943 0.959 . S
C1955 C1953 1.561 . S
C1956 C1953 1.526 . S
C1956 C1957 1.396 . S
C1956 C1961 1.390 1_545 S
C1957 C1951 1.465 . S
C1957 C1956 1.396 . S
C1957 C1958 1.399 . S
C1958 H1944 0.929 . S
C1958 C1957 1.399 . S
C1958 C1959 1.385 1_545 S
C1959 H1945 0.931 . S
C1959 C1958 1.385 1_565 S
C1959 C1960 1.389 . S
C1960 C1959 1.389 . S
C1960 C1961 1.387 . S
C1961 H1946 0.930 . S
C1961 C1956 1.390 1_565 S
C1961 C1960 1.387 . S
H1962 C1974 0.930 . S
H1963 C1976 0.930 . S
H1964 C1977 0.930 . S
H1965 C1981 0.959 . S
H1966 C1981 0.959 . S
H1967 C1981 0.961 . S
H1968 C1982 0.973 . S
H1969 C1982 0.961 . S
H1970 C1982 0.959 . S
H1971 C1985 0.929 . S
H1972 C1986 0.931 . S
H1973 C1988 0.930 . S
C1974 H1962 0.930 . S
C1974 C1975 1.399 . S
C1974 C1979 1.399 1_455 S
C1975 C1974 1.399 . S
C1975 C1976 1.376 . S
C1976 H1963 0.930 . S
C1976 C1975 1.376 . S
C1976 C1977 1.388 1_455 S
C1977 H1964 0.930 . S
C1977 C1976 1.388 1_655 S
C1977 C1978 1.390 . S
C1978 C1977 1.390 . S
C1978 C1979 1.394 . S
C1978 C1984 1.465 . S
C1979 C1974 1.399 1_655 S
C1979 C1978 1.394 . S
C1979 C1980 1.516 . S
C1980 C1979 1.516 . S
C1980 C1981 1.502 . S
C1980 C1982 1.561 . S
C1980 C1983 1.526 . S
C1981 H1965 0.959 . S
C1981 H1966 0.959 . S
C1981 H1967 0.961 . S
C1981 C1980 1.502 . S
C1982 H1968 0.973 . S
C1982 H1969 0.961 . S
C1982 H1970 0.959 . S
C1982 C1980 1.561 . S
C1983 C1980 1.526 . S
C1983 C1984 1.396 . S
C1983 C1988 1.390 . S
C1984 C1978 1.465 . S
C1984 C1983 1.396 . S
C1984 C1985 1.399 . S
C1985 H1971 0.929 . S
C1985 C1984 1.399 . S
C1985 C1986 1.385 . S
C1986 H1972 0.931 . S
C1986 C1985 1.385 . S
C1986 C1987 1.389 . S
C1987 C1986 1.389 . S
C1987 C1988 1.387 . S
C1988 H1973 0.930 . S
C1988 C1983 1.390 . S
C1988 C1987 1.387 . S
H1989 C2001 0.930 . S
H1990 C2003 0.930 . S
H1991 C2004 0.930 . S
H1992 C2008 0.959 . S
H1993 C2008 0.959 . S
H1994 C2008 0.961 . S
H1995 C2009 0.960 . S
H1996 C2009 0.961 . S
H1997 C2009 0.959 . S
H1998 C2012 0.929 . S
H1999 C2013 0.931 . S
H2000 C2015 0.930 . S
C2001 H1989 0.930 . S
C2001 C2002 1.399 . S
C2001 C2006 1.399 1_545 S
C2002 C2001 1.399 . S
C2002 C2003 1.376 . S
C2003 H1990 0.930 . S
C2003 C2002 1.376 . S
C2003 C2004 1.388 1_545 S
C2004 H1991 0.930 . S
C2004 C2003 1.388 1_565 S
C2004 C2005 1.390 . S
C2005 C2004 1.390 . S
C2005 C2006 1.394 . S
C2005 C2011 1.465 . S
C2006 C2001 1.399 1_565 S
C2006 C2005 1.394 . S
C2006 C2007 1.516 . S
C2007 C2006 1.516 . S
C2007 C2008 1.502 . S
C2007 C2009 1.561 . S
C2007 C2010 1.526 . S
C2008 H1992 0.959 . S
C2008 H1993 0.959 . S
C2008 H1994 0.961 . S
C2008 C2007 1.502 . S
C2009 H1995 0.960 . S
C2009 H1996 0.961 . S
C2009 H1997 0.959 . S
C2009 C2007 1.561 . S
C2010 C2007 1.526 . S
C2010 C2011 1.396 . S
C2010 C2015 1.390 . S
C2011 C2005 1.465 . S
C2011 C2010 1.396 . S
C2011 C2012 1.399 . S
C2012 H1998 0.929 . S
C2012 C2011 1.399 . S
C2012 C2013 1.385 . S
C2013 H1999 0.931 . S
C2013 C2012 1.385 . S
C2013 C2014 1.389 . S
C2014 C2013 1.389 . S
C2014 C2015 1.387 . S
C2015 H2000 0.930 . S
C2015 C2010 1.390 . S
C2015 C2014 1.387 . S
H2016 C2028 0.930 . S
H2017 C2030 0.930 . S
H2018 C2031 0.930 . S
H2019 C2035 0.959 . S
H2020 C2035 0.959 . S
H2021 C2035 0.961 . S
H2022 C2036 0.960 . S
H2023 C2036 0.961 . S
H2024 C2036 0.959 . S
H2025 C2039 0.929 . S
H2026 C2040 0.931 . S
H2027 C2042 0.930 . S
C2028 H2016 0.930 . S
C2028 C2029 1.399 . S
C2028 C2033 1.399 . S
C2029 C2028 1.399 . S
C2029 C2030 1.376 . S
C2030 H2017 0.930 . S
C2030 C2029 1.376 . S
C2030 C2031 1.388 . S
C2031 H2018 0.930 . S
C2031 C2030 1.388 . S
C2031 C2032 1.390 . S
C2032 C2031 1.390 . S
C2032 C2033 1.394 . S
C2032 C2038 1.465 . S
C2033 C2028 1.399 . S
C2033 C2032 1.394 . S
C2033 C2034 1.516 . S
C2034 C2033 1.516 . S
C2034 C2035 1.502 . S
C2034 C2036 1.561 . S
C2034 C2037 1.526 . S
C2035 H2019 0.959 . S
C2035 H2020 0.959 . S
C2035 H2021 0.961 . S
C2035 C2034 1.502 . S
C2036 H2022 0.960 . S
C2036 H2023 0.961 . S
C2036 H2024 0.959 . S
C2036 C2034 1.561 . S
C2037 C2034 1.526 . S
C2037 C2038 1.396 . S
C2037 C2042 1.390 1_545 S
C2038 C2032 1.465 . S
C2038 C2037 1.396 . S
C2038 C2039 1.399 1_545 S
C2039 H2025 0.929 . S
C2039 C2038 1.399 1_565 S
C2039 C2040 1.385 . S
C2040 H2026 0.931 . S
C2040 C2039 1.385 . S
C2040 C2041 1.389 . S
C2041 C2040 1.389 . S
C2041 C2042 1.387 . S
C2042 H2027 0.930 . S
C2042 C2037 1.390 1_565 S
C2042 C2041 1.387 . S
H2043 C2055 0.930 . S
H2044 C2057 0.930 . S
H2045 C2058 0.930 . S
H2046 C2062 0.959 . S
H2047 C2062 0.959 . S
H2048 C2062 0.961 . S
H2049 C2063 0.960 . S
H2050 C2063 0.961 . S
H2051 C2063 0.959 . S
H2052 C2066 0.929 . S
H2053 C2067 0.931 . S
H2054 C2069 0.930 . S
C2055 H2043 0.930 . S
C2055 C2056 1.399 . S
C2055 C2060 1.399 1_545 S
C2056 C2055 1.399 . S
C2056 C2057 1.376 . S
C2057 H2044 0.930 . S
C2057 C2056 1.376 . S
C2057 C2058 1.388 . S
C2058 H2045 0.930 . S
C2058 C2057 1.388 . S
C2058 C2059 1.390 1_545 S
C2059 C2058 1.390 1_565 S
C2059 C2060 1.394 . S
C2059 C2065 1.465 . S
C2060 C2055 1.399 1_565 S
C2060 C2059 1.394 . S
C2060 C2061 1.516 . S
C2061 C2060 1.516 . S
C2061 C2062 1.502 . S
C2061 C2063 1.561 . S
C2061 C2064 1.526 . S
C2062 H2046 0.959 . S
C2062 H2047 0.959 . S
C2062 H2048 0.961 . S
C2062 C2061 1.502 . S
C2063 H2049 0.960 . S
C2063 H2050 0.961 . S
C2063 H2051 0.959 . S
C2063 C2061 1.561 . S
C2064 C2061 1.526 . S
C2064 C2065 1.396 . S
C2064 C2069 1.390 . S
C2065 C2059 1.465 . S
C2065 C2064 1.396 . S
C2065 C2066 1.399 . S
C2066 H2052 0.929 . S
C2066 C2065 1.399 . S
C2066 C2067 1.385 . S
C2067 H2053 0.931 . S
C2067 C2066 1.385 . S
C2067 C2068 1.389 . S
C2068 C2067 1.389 . S
C2068 C2069 1.387 . S
C2069 H2054 0.930 . S
C2069 C2064 1.390 . S
C2069 C2068 1.387 . S
H2070 C2082 0.930 . S
H2071 C2084 0.930 . S
H2072 C2085 0.930 . S
H2073 C2089 0.959 . S
H2074 C2089 0.959 . S
H2075 C2089 0.961 . S
H2076 C2090 0.960 . S
H2077 C2090 0.961 . S
H2078 C2090 0.959 . S
H2079 C2093 0.925 1_455 S
H2080 C2094 0.931 . S
H2081 C2096 0.930 . S
C2082 H2070 0.930 . S
C2082 C2083 1.399 . S
C2082 C2087 1.399 . S
C2083 C2082 1.399 . S
C2083 C2084 1.376 . S
C2084 H2071 0.930 . S
C2084 C2083 1.376 . S
C2084 C2085 1.388 . S
C2085 H2072 0.930 . S
C2085 C2084 1.388 . S
C2085 C2086 1.390 . S
C2086 C2085 1.390 . S
C2086 C2087 1.394 . S
C2086 C2092 1.465 . S
C2087 C2082 1.399 . S
C2087 C2086 1.394 . S
C2087 C2088 1.516 . S
C2088 C2087 1.516 . S
C2088 C2089 1.502 . S
C2088 C2090 1.561 . S
C2088 C2091 1.526 . S
C2089 H2073 0.959 . S
C2089 H2074 0.959 . S
C2089 H2075 0.961 . S
C2089 C2088 1.502 . S
C2090 H2076 0.960 . S
C2090 H2077 0.961 . S
C2090 H2078 0.959 . S
C2090 C2088 1.561 . S
C2091 C2088 1.526 . S
C2091 C2092 1.396 . S
C2091 C2096 1.390 1_455 S
C2092 C2086 1.465 . S
C2092 C2091 1.396 . S
C2092 C2093 1.385 1_455 S
C2093 H2079 0.925 1_655 S
C2093 C2092 1.385 1_655 S
C2093 C2094 1.404 . S
C2094 H2080 0.931 . S
C2094 C2093 1.404 . S
C2094 C2095 1.389 . S
C2095 C2094 1.389 . S
C2095 C2096 1.387 . S
C2096 H2081 0.930 . S
C2096 C2091 1.390 1_655 S
C2096 C2095 1.387 . S
H2097 C2109 0.930 . S
H2098 C2111 0.930 . S
H2099 C2112 0.930 . S
H2100 C2116 0.959 . S
H2101 C2116 0.959 . S
H2102 C2116 0.961 . S
H2103 C2117 0.960 . S
H2104 C2117 0.961 . S
H2105 C2117 0.959 . S
H2106 C2120 0.929 . S
H2107 C2121 0.931 . S
H2108 C2123 0.930 . S
C2109 H2097 0.930 . S
C2109 C2110 1.399 . S
C2109 C2114 1.399 1_565 S
C2110 C2109 1.399 . S
C2110 C2111 1.376 . S
C2111 H2098 0.930 . S
C2111 C2110 1.376 . S
C2111 C2112 1.388 . S
C2112 H2099 0.930 . S
C2112 C2111 1.388 . S
C2112 C2113 1.390 1_565 S
C2113 C2112 1.390 1_545 S
C2113 C2114 1.394 . S
C2113 C2119 1.465 . S
C2114 C2109 1.399 1_545 S
C2114 C2113 1.394 . S
C2114 C2115 1.516 . S
C2115 C2114 1.516 . S
C2115 C2116 1.502 . S
C2115 C2117 1.561 . S
C2115 C2118 1.526 . S
C2116 H2100 0.959 . S
C2116 H2101 0.959 . S
C2116 H2102 0.961 . S
C2116 C2115 1.502 . S
C2117 H2103 0.960 . S
C2117 H2104 0.961 . S
C2117 H2105 0.959 . S
C2117 C2115 1.561 . S
C2118 C2115 1.526 . S
C2118 C2119 1.396 . S
C2118 C2123 1.390 . S
C2119 C2113 1.465 . S
C2119 C2118 1.396 . S
C2119 C2120 1.399 . S
C2120 H2106 0.929 . S
C2120 C2119 1.399 . S
C2120 C2121 1.385 . S
C2121 H2107 0.931 . S
C2121 C2120 1.385 . S
C2121 C2122 1.389 . S
C2122 C2121 1.389 . S
C2122 C2123 1.387 . S
C2123 H2108 0.930 . S
C2123 C2118 1.390 . S
C2123 C2122 1.387 . S
H2124 C2136 0.930 . S
H2125 C2138 0.930 . S
H2126 C2139 0.930 . S
H2127 C2143 0.959 . S
H2128 C2143 0.959 . S
H2129 C2143 0.961 . S
H2130 C2144 0.960 . S
H2131 C2144 0.961 . S
H2132 C2144 0.959 . S
H2133 C2147 0.929 . S
H2134 C2148 0.931 . S
H2135 C2150 0.930 . S
C2136 H2124 0.930 . S
C2136 C2137 1.399 . S
C2136 C2141 1.399 1_455 S
C2137 C2136 1.399 . S
C2137 C2138 1.376 . S
C2138 H2125 0.930 . S
C2138 C2137 1.376 . S
C2138 C2139 1.388 1_455 S
C2139 H2126 0.930 . S
C2139 C2138 1.388 1_655 S
C2139 C2140 1.390 . S
C2140 C2139 1.390 . S
C2140 C2141 1.394 . S
C2140 C2146 1.465 . S
C2141 C2136 1.399 1_655 S
C2141 C2140 1.394 . S
C2141 C2142 1.516 . S
C2142 C2141 1.516 . S
C2142 C2143 1.502 . S
C2142 C2144 1.561 . S
C2142 C2145 1.526 . S
C2143 H2127 0.959 . S
C2143 H2128 0.959 . S
C2143 H2129 0.961 . S
C2143 C2142 1.502 . S
C2144 H2130 0.960 . S
C2144 H2131 0.961 . S
C2144 H2132 0.959 . S
C2144 C2142 1.561 . S
C2145 C2142 1.526 . S
C2145 C2146 1.396 . S
C2145 C2150 1.390 . S
C2146 C2140 1.465 . S
C2146 C2145 1.396 . S
C2146 C2147 1.399 . S
C2147 H2133 0.929 . S
C2147 C2146 1.399 . S
C2147 C2148 1.385 . S
C2148 H2134 0.931 . S
C2148 C2147 1.385 . S
C2148 C2149 1.389 . S
C2149 C2148 1.389 . S
C2149 C2150 1.387 . S
C2150 H2135 0.930 . S
C2150 C2145 1.390 . S
C2150 C2149 1.387 . S
H2151 C2163 0.930 . S
H2152 C2165 0.930 . S
H2153 C2166 0.930 . S
H2154 C2170 0.959 . S
H2155 C2170 0.959 . S
H2156 C2170 0.961 . S
H2157 C2171 0.960 . S
H2158 C2171 0.961 . S
H2159 C2171 0.959 . S
H2160 C2174 0.929 . S
H2161 C2175 0.931 . S
H2162 C2177 0.930 . S
C2163 H2151 0.930 . S
C2163 C2164 1.399 . S
C2163 C2168 1.399 . S
C2164 C2163 1.399 . S
C2164 C2165 1.376 . S
C2165 H2152 0.930 . S
C2165 C2164 1.376 . S
C2165 C2166 1.388 . S
C2166 H2153 0.930 . S
C2166 C2165 1.388 . S
C2166 C2167 1.390 . S
C2167 C2166 1.390 . S
C2167 C2168 1.394 . S
C2167 C2173 1.465 . S
C2168 C2163 1.399 . S
C2168 C2167 1.394 . S
C2168 C2169 1.516 . S
C2169 C2168 1.516 . S
C2169 C2170 1.502 . S
C2169 C2171 1.561 . S
C2169 C2172 1.526 . S
C2170 H2154 0.959 . S
C2170 H2155 0.959 . S
C2170 H2156 0.961 . S
C2170 C2169 1.502 . S
C2171 H2157 0.960 . S
C2171 H2158 0.961 . S
C2171 H2159 0.959 . S
C2171 C2169 1.561 . S
C2172 C2169 1.526 . S
C2172 C2173 1.396 . S
C2172 C2177 1.390 1_565 S
C2173 C2167 1.465 . S
C2173 C2172 1.396 . S
C2173 C2174 1.399 1_565 S
C2174 H2160 0.929 . S
C2174 C2173 1.399 1_545 S
C2174 C2175 1.385 . S
C2175 H2161 0.931 . S
C2175 C2174 1.385 . S
C2175 C2176 1.389 . S
C2176 C2175 1.389 . S
C2176 C2177 1.387 . S
C2177 H2162 0.930 . S
C2177 C2172 1.390 1_545 S
C2177 C2176 1.387 . S
H2178 C2190 0.930 . S
H2179 C2192 0.930 . S
H2180 C2193 0.930 . S
H2181 C2197 0.959 . S
H2182 C2197 0.976 . S
H2183 C2197 0.961 . S
H2184 C2198 0.960 . S
H2185 C2198 0.961 . S
H2186 C2198 0.959 . S
H2187 C2201 0.929 . S
H2188 C2202 0.931 . S
H2189 C2204 0.930 . S
C2190 H2178 0.930 . S
C2190 C2191 1.399 . S
C2190 C2195 1.399 . S
C2191 C2190 1.399 . S
C2191 C2192 1.376 . S
C2192 H2179 0.930 . S
C2192 C2191 1.376 . S
C2192 C2193 1.388 . S
C2193 H2180 0.930 . S
C2193 C2192 1.388 . S
C2193 C2194 1.390 . S
C2194 C2193 1.390 . S
C2194 C2195 1.394 . S
C2194 C2200 1.465 . S
C2195 C2190 1.399 . S
C2195 C2194 1.394 . S
C2195 C2196 1.516 . S
C2196 C2195 1.516 . S
C2196 C2197 1.502 . S
C2196 C2198 1.561 . S
C2196 C2199 1.526 . S
C2197 H2181 0.959 . S
C2197 H2182 0.976 . S
C2197 H2183 0.961 . S
C2197 C2196 1.502 . S
C2198 H2184 0.960 . S
C2198 H2185 0.961 . S
C2198 H2186 0.959 . S
C2198 C2196 1.561 . S
C2199 C2196 1.526 . S
C2199 C2200 1.396 . S
C2199 C2204 1.390 1_455 S
C2200 C2194 1.465 . S
C2200 C2199 1.396 . S
C2200 C2201 1.399 . S
C2201 H2187 0.929 . S
C2201 C2200 1.399 . S
C2201 C2202 1.385 1_455 S
C2202 H2188 0.931 . S
C2202 C2201 1.385 1_655 S
C2202 C2203 1.389 . S
C2203 C2202 1.389 . S
C2203 C2204 1.387 . S
C2204 H2189 0.930 . S
C2204 C2199 1.390 1_655 S
C2204 C2203 1.387 . S
H2205 C2217 0.930 . S
H2206 C2219 0.930 . S
H2207 C2220 0.930 . S
H2208 C2224 0.959 . S
H2209 C2224 0.959 . S
H2210 C2224 0.961 . S
H2211 C2225 0.960 . S
H2212 C2225 0.961 . S
H2213 C2225 0.959 . S
H2214 C2228 0.929 . S
H2215 C2229 0.931 . S
H2216 C2231 0.930 . S
C2217 H2205 0.930 . S
C2217 C2218 1.399 . S
C2217 C2222 1.399 1_455 S
C2218 C2217 1.399 . S
C2218 C2219 1.376 . S
C2219 H2206 0.930 . S
C2219 C2218 1.376 . S
C2219 C2220 1.388 1_455 S
C2220 H2207 0.930 . S
C2220 C2219 1.388 1_655 S
C2220 C2221 1.390 . S
C2221 C2220 1.390 . S
C2221 C2222 1.394 . S
C2221 C2227 1.465 . S
C2222 C2217 1.399 1_655 S
C2222 C2221 1.394 . S
C2222 C2223 1.516 . S
C2223 C2222 1.516 . S
C2223 C2224 1.502 . S
C2223 C2225 1.561 . S
C2223 C2226 1.526 . S
C2224 H2208 0.959 . S
C2224 H2209 0.959 . S
C2224 H2210 0.961 . S
C2224 C2223 1.502 . S
C2225 H2211 0.960 . S
C2225 H2212 0.961 . S
C2225 H2213 0.959 . S
C2225 C2223 1.561 . S
C2226 C2223 1.526 . S
C2226 C2227 1.396 . S
C2226 C2231 1.390 . S
C2227 C2221 1.465 . S
C2227 C2226 1.396 . S
C2227 C2228 1.399 . S
C2228 H2214 0.929 . S
C2228 C2227 1.399 . S
C2228 C2229 1.385 . S
C2229 H2215 0.931 . S
C2229 C2228 1.385 . S
C2229 C2230 1.389 . S
C2230 C2229 1.389 . S
C2230 C2231 1.387 . S
C2231 H2216 0.930 . S
C2231 C2226 1.390 . S
C2231 C2230 1.387 . S
H2232 C2244 0.930 . S
H2233 C2246 0.930 . S
H2234 C2247 0.930 . S
H2235 C2251 0.959 . S
H2236 C2251 0.959 . S
H2237 C2251 0.961 . S
H2238 C2252 0.960 . S
H2239 C2252 0.961 . S
H2240 C2252 0.959 . S
H2241 C2255 0.929 . S
H2242 C2256 0.931 . S
H2243 C2258 0.930 . S
C2244 H2232 0.930 . S
C2244 C2245 1.399 . S
C2244 C2249 1.399 . S
C2245 C2244 1.399 . S
C2245 C2246 1.376 . S
C2246 H2233 0.930 . S
C2246 C2245 1.376 . S
C2246 C2247 1.388 . S
C2247 H2234 0.930 . S
C2247 C2246 1.388 . S
C2247 C2248 1.390 . S
C2248 C2247 1.390 . S
C2248 C2249 1.394 . S
C2248 C2254 1.465 . S
C2249 C2244 1.399 . S
C2249 C2248 1.394 . S
C2249 C2250 1.516 . S
C2250 C2249 1.516 . S
C2250 C2251 1.502 . S
C2250 C2252 1.561 . S
C2250 C2253 1.526 . S
C2251 H2235 0.959 . S
C2251 H2236 0.959 . S
C2251 H2237 0.961 . S
C2251 C2250 1.502 . S
C2252 H2238 0.960 . S
C2252 H2239 0.961 . S
C2252 H2240 0.959 . S
C2252 C2250 1.561 . S
C2253 C2250 1.526 . S
C2253 C2254 1.396 . S
C2253 C2258 1.390 . S
C2254 C2248 1.465 . S
C2254 C2253 1.396 . S
C2254 C2255 1.399 . S
C2255 H2241 0.929 . S
C2255 C2254 1.399 . S
C2255 C2256 1.385 . S
C2256 H2242 0.931 . S
C2256 C2255 1.385 . S
C2256 C2257 1.389 . S
C2257 C2256 1.389 . S
C2257 C2258 1.387 . S
C2258 H2243 0.930 . S
C2258 C2253 1.390 . S
C2258 C2257 1.387 . S
H2259 C2271 0.930 . S
H2260 C2273 0.930 . S
H2261 C2274 0.930 . S
H2262 C2278 0.959 . S
H2263 C2278 0.959 . S
H2264 C2278 0.961 . S
H2265 C2279 0.960 . S
H2266 C2279 0.961 . S
H2267 C2279 0.959 . S
H2268 C2282 0.929 . S
H2269 C2283 0.931 . S
H2270 C2285 0.930 . S
C2271 H2259 0.930 . S
C2271 C2272 1.399 . S
C2271 C2276 1.399 . S
C2272 C2271 1.399 . S
C2272 C2273 1.376 . S
C2273 H2260 0.930 . S
C2273 C2272 1.376 . S
C2273 C2274 1.388 . S
C2274 H2261 0.930 . S
C2274 C2273 1.388 . S
C2274 C2275 1.390 . S
C2275 C2274 1.390 . S
C2275 C2276 1.394 . S
C2275 C2281 1.465 . S
C2276 C2271 1.399 . S
C2276 C2275 1.394 . S
C2276 C2277 1.516 . S
C2277 C2276 1.516 . S
C2277 C2278 1.502 . S
C2277 C2279 1.561 . S
C2277 C2280 1.526 . S
C2278 H2262 0.959 . S
C2278 H2263 0.959 . S
C2278 H2264 0.961 . S
C2278 C2277 1.502 . S
C2279 H2265 0.960 . S
C2279 H2266 0.961 . S
C2279 H2267 0.959 . S
C2279 C2277 1.561 . S
C2280 C2277 1.526 . S
C2280 C2281 1.396 . S
C2280 C2285 1.390 . S
C2281 C2275 1.465 . S
C2281 C2280 1.396 . S
C2281 C2282 1.399 . S
C2282 H2268 0.929 . S
C2282 C2281 1.399 . S
C2282 C2283 1.385 . S
C2283 H2269 0.931 . S
C2283 C2282 1.385 . S
C2283 C2284 1.389 . S
C2284 C2283 1.389 . S
C2284 C2285 1.387 . S
C2285 H2270 0.930 . S
C2285 C2280 1.390 . S
C2285 C2284 1.387 . S
H2286 C2298 0.930 . S
H2287 C2300 0.930 . S
H2288 C2301 0.930 . S
H2289 C2305 0.959 . S
H2290 C2305 0.959 . S
H2291 C2305 0.961 . S
H2292 C2306 0.960 . S
H2293 C2306 0.961 . S
H2294 C2306 0.959 . S
H2295 C2309 0.929 . S
H2296 C2310 0.931 . S
H2297 C2312 0.930 . S
C2298 H2286 0.930 . S
C2298 C2299 1.399 . S
C2298 C2303 1.399 . S
C2299 C2298 1.399 . S
C2299 C2300 1.376 . S
C2300 H2287 0.930 . S
C2300 C2299 1.376 . S
C2300 C2301 1.388 . S
C2301 H2288 0.930 . S
C2301 C2300 1.388 . S
C2301 C2302 1.390 . S
C2302 C2301 1.390 . S
C2302 C2303 1.394 . S
C2302 C2308 1.465 . S
C2303 C2298 1.399 . S
C2303 C2302 1.394 . S
C2303 C2304 1.516 . S
C2304 C2303 1.516 . S
C2304 C2305 1.502 . S
C2304 C2306 1.561 . S
C2304 C2307 1.526 . S
C2305 H2289 0.959 . S
C2305 H2290 0.959 . S
C2305 H2291 0.961 . S
C2305 C2304 1.502 . S
C2306 H2292 0.960 . S
C2306 H2293 0.961 . S
C2306 H2294 0.959 . S
C2306 C2304 1.561 . S
C2307 C2304 1.526 . S
C2307 C2308 1.396 . S
C2307 C2312 1.390 . S
C2308 C2302 1.465 . S
C2308 C2307 1.396 . S
C2308 C2309 1.399 . S
C2309 H2295 0.929 . S
C2309 C2308 1.399 . S
C2309 C2310 1.385 . S
C2310 H2296 0.931 . S
C2310 C2309 1.385 . S
C2310 C2311 1.389 . S
C2311 C2310 1.389 . S
C2311 C2312 1.387 . S
C2312 H2297 0.930 . S
C2312 C2307 1.390 . S
C2312 C2311 1.387 . S
H2313 C2325 0.930 . S
H2314 C2327 0.930 . S
H2315 C2328 0.930 . S
H2316 C2332 0.959 . S
H2317 C2332 0.959 . S
H2318 C2332 0.961 . S
H2319 C2333 0.960 . S
H2320 C2333 0.961 . S
H2321 C2333 0.959 . S
H2322 C2336 0.929 . S
H2323 C2337 0.931 . S
H2324 C2339 0.930 . S
C2325 H2313 0.930 . S
C2325 C2326 1.399 . S
C2325 C2330 1.399 . S
C2326 C2325 1.399 . S
C2326 C2327 1.376 . S
C2327 H2314 0.930 . S
C2327 C2326 1.376 . S
C2327 C2328 1.388 . S
C2328 H2315 0.930 . S
C2328 C2327 1.388 . S
C2328 C2329 1.390 . S
C2329 C2328 1.390 . S
C2329 C2330 1.394 . S
C2329 C2335 1.465 . S
C2330 C2325 1.399 . S
C2330 C2329 1.394 . S
C2330 C2331 1.516 . S
C2331 C2330 1.516 . S
C2331 C2332 1.502 . S
C2331 C2333 1.561 . S
C2331 C2334 1.526 . S
C2332 H2316 0.959 . S
C2332 H2317 0.959 . S
C2332 H2318 0.961 . S
C2332 C2331 1.502 . S
C2333 H2319 0.960 . S
C2333 H2320 0.961 . S
C2333 H2321 0.959 . S
C2333 C2331 1.561 . S
C2334 C2331 1.526 . S
C2334 C2335 1.396 . S
C2334 C2339 1.390 . S
C2335 C2329 1.465 . S
C2335 C2334 1.396 . S
C2335 C2336 1.399 . S
C2336 H2322 0.929 . S
C2336 C2335 1.399 . S
C2336 C2337 1.385 . S
C2337 H2323 0.931 . S
C2337 C2336 1.385 . S
C2337 C2338 1.389 . S
C2338 C2337 1.389 . S
C2338 C2339 1.387 . S
C2339 H2324 0.930 . S
C2339 C2334 1.390 . S
C2339 C2338 1.387 . S
H2340 C2352 0.930 . S
H2341 C2354 0.930 . S
H2342 C2355 0.930 . S
H2343 C2359 0.959 . S
H2344 C2359 0.959 . S
H2345 C2359 0.961 . S
H2346 C2360 0.960 . S
H2347 C2360 0.961 . S
H2348 C2360 0.959 . S
H2349 C2363 0.929 . S
H2350 C2364 0.931 . S
H2351 C2366 0.930 . S
C2352 H2340 0.930 . S
C2352 C2353 1.399 . S
C2352 C2357 1.399 . S
C2353 C2352 1.399 . S
C2353 C2354 1.376 . S
C2354 H2341 0.930 . S
C2354 C2353 1.376 . S
C2354 C2355 1.388 . S
C2355 H2342 0.930 . S
C2355 C2354 1.388 . S
C2355 C2356 1.390 . S
C2356 C2355 1.390 . S
C2356 C2357 1.394 . S
C2356 C2362 1.465 . S
C2357 C2352 1.399 . S
C2357 C2356 1.394 . S
C2357 C2358 1.516 . S
C2358 C2357 1.516 . S
C2358 C2359 1.502 . S
C2358 C2360 1.561 . S
C2358 C2361 1.526 . S
C2359 H2343 0.959 . S
C2359 H2344 0.959 . S
C2359 H2345 0.961 . S
C2359 C2358 1.502 . S
C2360 H2346 0.960 . S
C2360 H2347 0.961 . S
C2360 H2348 0.959 . S
C2360 C2358 1.561 . S
C2361 C2358 1.526 . S
C2361 C2362 1.396 . S
C2361 C2366 1.390 . S
C2362 C2356 1.465 . S
C2362 C2361 1.396 . S
C2362 C2363 1.399 . S
C2363 H2349 0.929 . S
C2363 C2362 1.399 . S
C2363 C2364 1.385 . S
C2364 H2350 0.931 . S
C2364 C2363 1.385 . S
C2364 C2365 1.389 . S
C2365 C2364 1.389 . S
C2365 C2366 1.387 . S
C2366 H2351 0.930 . S
C2366 C2361 1.390 . S
C2366 C2365 1.387 . S
H2367 C2379 0.930 . S
H2368 C2381 0.930 . S
H2369 C2382 0.930 . S
H2370 C2386 0.959 . S
H2371 C2386 0.959 . S
H2372 C2386 0.961 . S
H2373 C2387 0.960 . S
H2374 C2387 0.961 . S
H2375 C2387 0.959 . S
H2376 C2390 0.929 . S
H2377 C2391 0.931 . S
H2378 C2393 0.930 . S
C2379 H2367 0.930 . S
C2379 C2380 1.399 . S
C2379 C2384 1.399 . S
C2380 C2379 1.399 . S
C2380 C2381 1.376 . S
C2381 H2368 0.930 . S
C2381 C2380 1.376 . S
C2381 C2382 1.388 . S
C2382 H2369 0.930 . S
C2382 C2381 1.388 . S
C2382 C2383 1.390 . S
C2383 C2382 1.390 . S
C2383 C2384 1.394 . S
C2383 C2389 1.465 . S
C2384 C2379 1.399 . S
C2384 C2383 1.394 . S
C2384 C2385 1.516 . S
C2385 C2384 1.516 . S
C2385 C2386 1.502 . S
C2385 C2387 1.561 . S
C2385 C2388 1.526 . S
C2386 H2370 0.959 . S
C2386 H2371 0.959 . S
C2386 H2372 0.961 . S
C2386 C2385 1.502 . S
C2387 H2373 0.960 . S
C2387 H2374 0.961 . S
C2387 H2375 0.959 . S
C2387 C2385 1.561 . S
C2388 C2385 1.526 . S
C2388 C2389 1.396 . S
C2388 C2393 1.390 . S
C2389 C2383 1.465 . S
C2389 C2388 1.396 . S
C2389 C2390 1.399 . S
C2390 H2376 0.929 . S
C2390 C2389 1.399 . S
C2390 C2391 1.385 . S
C2391 H2377 0.931 . S
C2391 C2390 1.385 . S
C2391 C2392 1.389 . S
C2392 C2391 1.389 . S
C2392 C2393 1.387 . S
C2393 H2378 0.930 . S
C2393 C2388 1.390 . S
C2393 C2392 1.387 . S
H2394 C2406 0.930 . S
H2395 C2408 0.930 . S
H2396 C2409 0.930 . S
H2397 C2413 0.959 . S
H2398 C2413 0.959 . S
H2399 C2413 0.961 . S
H2400 C2414 0.960 . S
H2401 C2414 0.961 . S
H2402 C2414 0.959 . S
H2403 C2417 0.929 . S
H2404 C2418 0.931 . S
H2405 C2420 0.930 . S
C2406 H2394 0.930 . S
C2406 C2407 1.399 . S
C2406 C2411 1.399 . S
C2407 C2406 1.399 . S
C2407 C2408 1.376 . S
C2408 H2395 0.930 . S
C2408 C2407 1.376 . S
C2408 C2409 1.388 . S
C2409 H2396 0.930 . S
C2409 C2408 1.388 . S
C2409 C2410 1.390 . S
C2410 C2409 1.390 . S
C2410 C2411 1.394 . S
C2410 C2416 1.465 . S
C2411 C2406 1.399 . S
C2411 C2410 1.394 . S
C2411 C2412 1.516 . S
C2412 C2411 1.516 . S
C2412 C2413 1.502 . S
C2412 C2414 1.561 . S
C2412 C2415 1.526 . S
C2413 H2397 0.959 . S
C2413 H2398 0.959 . S
C2413 H2399 0.961 . S
C2413 C2412 1.502 . S
C2414 H2400 0.960 . S
C2414 H2401 0.961 . S
C2414 H2402 0.959 . S
C2414 C2412 1.561 . S
C2415 C2412 1.526 . S
C2415 C2416 1.396 . S
C2415 C2420 1.390 . S
C2416 C2410 1.465 . S
C2416 C2415 1.396 . S
C2416 C2417 1.399 . S
C2417 H2403 0.929 . S
C2417 C2416 1.399 . S
C2417 C2418 1.385 . S
C2418 H2404 0.931 . S
C2418 C2417 1.385 . S
C2418 C2419 1.389 . S
C2419 C2418 1.389 . S
C2419 C2420 1.387 . S
C2420 H2405 0.930 . S
C2420 C2415 1.390 . S
C2420 C2419 1.387 . S
H2421 C2433 0.930 . S
H2422 C2435 0.930 . S
H2423 C2436 0.930 . S
H2424 C2440 0.959 . S
H2425 C2440 0.959 . S
H2426 C2440 0.961 . S
H2427 C2441 0.960 . S
H2428 C2441 0.961 . S
H2429 C2441 0.959 . S
H2430 C2444 0.929 . S
H2431 C2445 0.931 . S
H2432 C2447 0.930 . S
C2433 H2421 0.930 . S
C2433 C2434 1.399 . S
C2433 C2438 1.399 . S
C2434 C2433 1.399 . S
C2434 C2435 1.376 . S
C2435 H2422 0.930 . S
C2435 C2434 1.376 . S
C2435 C2436 1.388 . S
C2436 H2423 0.930 . S
C2436 C2435 1.388 . S
C2436 C2437 1.390 . S
C2437 C2436 1.390 . S
C2437 C2438 1.394 . S
C2437 C2443 1.465 . S
C2438 C2433 1.399 . S
C2438 C2437 1.394 . S
C2438 C2439 1.516 . S
C2439 C2438 1.516 . S
C2439 C2440 1.502 . S
C2439 C2441 1.561 . S
C2439 C2442 1.526 . S
C2440 H2424 0.959 . S
C2440 H2425 0.959 . S
C2440 H2426 0.961 . S
C2440 C2439 1.502 . S
C2441 H2427 0.960 . S
C2441 H2428 0.961 . S
C2441 H2429 0.959 . S
C2441 C2439 1.561 . S
C2442 C2439 1.526 . S
C2442 C2443 1.396 . S
C2442 C2447 1.390 . S
C2443 C2437 1.465 . S
C2443 C2442 1.396 . S
C2443 C2444 1.399 . S
C2444 H2430 0.929 . S
C2444 C2443 1.399 . S
C2444 C2445 1.385 . S
C2445 H2431 0.931 . S
C2445 C2444 1.385 . S
C2445 C2446 1.389 . S
C2446 C2445 1.389 . S
C2446 C2447 1.387 . S
C2447 H2432 0.930 . S
C2447 C2442 1.390 . S
C2447 C2446 1.387 . S
H2448 C2460 0.930 . S
H2449 C2462 0.930 . S
H2450 C2463 0.930 . S
H2451 C2467 0.959 . S
H2452 C2467 0.959 . S
H2453 C2467 0.961 . S
H2454 C2468 0.960 . S
H2455 C2468 0.961 . S
H2456 C2468 0.959 . S
H2457 C2471 0.929 . S
H2458 C2472 0.931 . S
H2459 C2474 0.930 . S
C2460 H2448 0.930 . S
C2460 C2461 1.399 . S
C2460 C2465 1.399 . S
C2461 C2460 1.399 . S
C2461 C2462 1.376 . S
C2462 H2449 0.930 . S
C2462 C2461 1.376 . S
C2462 C2463 1.388 . S
C2463 H2450 0.930 . S
C2463 C2462 1.388 . S
C2463 C2464 1.390 . S
C2464 C2463 1.390 . S
C2464 C2465 1.394 . S
C2464 C2470 1.465 . S
C2465 C2460 1.399 . S
C2465 C2464 1.394 . S
C2465 C2466 1.516 . S
C2466 C2465 1.516 . S
C2466 C2467 1.502 . S
C2466 C2468 1.561 . S
C2466 C2469 1.526 . S
C2467 H2451 0.959 . S
C2467 H2452 0.959 . S
C2467 H2453 0.961 . S
C2467 C2466 1.502 . S
C2468 H2454 0.960 . S
C2468 H2455 0.961 . S
C2468 H2456 0.959 . S
C2468 C2466 1.561 . S
C2469 C2466 1.526 . S
C2469 C2470 1.396 . S
C2469 C2474 1.390 . S
C2470 C2464 1.465 . S
C2470 C2469 1.396 . S
C2470 C2471 1.399 . S
C2471 H2457 0.929 . S
C2471 C2470 1.399 . S
C2471 C2472 1.385 . S
C2472 H2458 0.931 . S
C2472 C2471 1.385 . S
C2472 C2473 1.389 . S
C2473 C2472 1.389 . S
C2473 C2474 1.387 . S
C2474 H2459 0.930 . S
C2474 C2469 1.390 . S
C2474 C2473 1.387 . S
H2475 C2487 0.930 . S
H2476 C2489 0.930 . S
H2477 C2490 0.930 . S
H2478 C2494 0.959 . S
H2479 C2494 0.959 . S
H2480 C2494 0.961 . S
H2481 C2495 0.960 . S
H2482 C2495 0.961 . S
H2483 C2495 0.959 . S
H2484 C2498 0.929 . S
H2485 C2499 0.931 . S
H2486 C2501 0.930 . S
C2487 H2475 0.930 . S
C2487 C2488 1.399 . S
C2487 C2492 1.399 . S
C2488 C2487 1.399 . S
C2488 C2489 1.376 . S
C2489 H2476 0.930 . S
C2489 C2488 1.376 . S
C2489 C2490 1.388 . S
C2490 H2477 0.930 . S
C2490 C2489 1.388 . S
C2490 C2491 1.390 . S
C2491 C2490 1.390 . S
C2491 C2492 1.394 . S
C2491 C2497 1.465 . S
C2492 C2487 1.399 . S
C2492 C2491 1.394 . S
C2492 C2493 1.516 . S
C2493 C2492 1.516 . S
C2493 C2494 1.502 . S
C2493 C2495 1.561 . S
C2493 C2496 1.526 . S
C2494 H2478 0.959 . S
C2494 H2479 0.959 . S
C2494 H2480 0.961 . S
C2494 C2493 1.502 . S
C2495 H2481 0.960 . S
C2495 H2482 0.961 . S
C2495 H2483 0.959 . S
C2495 C2493 1.561 . S
C2496 C2493 1.526 . S
C2496 C2497 1.396 . S
C2496 C2501 1.390 . S
C2497 C2491 1.465 . S
C2497 C2496 1.396 . S
C2497 C2498 1.399 . S
C2498 H2484 0.929 . S
C2498 C2497 1.399 . S
C2498 C2499 1.385 . S
C2499 H2485 0.931 . S
C2499 C2498 1.385 . S
C2499 C2500 1.389 . S
C2500 C2499 1.389 . S
C2500 C2501 1.387 . S
C2501 H2486 0.930 . S
C2501 C2496 1.390 . S
C2501 C2500 1.387 . S
H2502 C2514 0.930 . S
H2503 C2516 0.930 . S
H2504 C2517 0.930 . S
H2505 C2521 0.959 . S
H2506 C2521 0.959 . S
H2507 C2521 0.961 . S
H2508 C2522 0.960 . S
H2509 C2522 0.961 . S
H2510 C2522 0.959 . S
H2511 C2525 0.929 . S
H2512 C2526 0.931 . S
H2513 C2528 0.930 . S
C2514 H2502 0.930 . S
C2514 C2515 1.399 . S
C2514 C2519 1.399 . S
C2515 C2514 1.399 . S
C2515 C2516 1.376 . S
C2516 H2503 0.930 . S
C2516 C2515 1.376 . S
C2516 C2517 1.388 . S
C2517 H2504 0.930 . S
C2517 C2516 1.388 . S
C2517 C2518 1.390 . S
C2518 C2517 1.390 . S
C2518 C2519 1.394 . S
C2518 C2524 1.465 . S
C2519 C2514 1.399 . S
C2519 C2518 1.394 . S
C2519 C2520 1.516 . S
C2520 C2519 1.516 . S
C2520 C2521 1.502 . S
C2520 C2522 1.561 . S
C2520 C2523 1.526 . S
C2521 H2505 0.959 . S
C2521 H2506 0.959 . S
C2521 H2507 0.961 . S
C2521 C2520 1.502 . S
C2522 H2508 0.960 . S
C2522 H2509 0.961 . S
C2522 H2510 0.959 . S
C2522 C2520 1.561 . S
C2523 C2520 1.526 . S
C2523 C2524 1.396 . S
C2523 C2528 1.390 . S
C2524 C2518 1.465 . S
C2524 C2523 1.396 . S
C2524 C2525 1.399 . S
C2525 H2511 0.929 . S
C2525 C2524 1.399 . S
C2525 C2526 1.385 . S
C2526 H2512 0.931 . S
C2526 C2525 1.385 . S
C2526 C2527 1.389 . S
C2527 C2526 1.389 . S
C2527 C2528 1.387 . S
C2528 H2513 0.930 . S
C2528 C2523 1.390 . S
C2528 C2527 1.387 . S
H2529 C2541 0.930 . S
H2530 C2543 0.930 . S
H2531 C2544 0.930 . S
H2532 C2548 0.959 . S
H2533 C2548 0.959 . S
H2534 C2548 0.961 . S
H2535 C2549 0.960 . S
H2536 C2549 0.961 . S
H2537 C2549 0.959 . S
H2538 C2552 0.929 . S
H2539 C2553 0.931 . S
H2540 C2555 0.930 . S
C2541 H2529 0.930 . S
C2541 C2542 1.399 . S
C2541 C2546 1.399 . S
C2542 C2541 1.399 . S
C2542 C2543 1.376 . S
C2543 H2530 0.930 . S
C2543 C2542 1.376 . S
C2543 C2544 1.388 . S
C2544 H2531 0.930 . S
C2544 C2543 1.388 . S
C2544 C2545 1.390 . S
C2545 C2544 1.390 . S
C2545 C2546 1.394 . S
C2545 C2551 1.465 . S
C2546 C2541 1.399 . S
C2546 C2545 1.394 . S
C2546 C2547 1.516 . S
C2547 C2546 1.516 . S
C2547 C2548 1.502 . S
C2547 C2549 1.561 . S
C2547 C2550 1.526 . S
C2548 H2532 0.959 . S
C2548 H2533 0.959 . S
C2548 H2534 0.961 . S
C2548 C2547 1.502 . S
C2549 H2535 0.960 . S
C2549 H2536 0.961 . S
C2549 H2537 0.959 . S
C2549 C2547 1.561 . S
C2550 C2547 1.526 . S
C2550 C2551 1.396 . S
C2550 C2555 1.390 . S
C2551 C2545 1.465 . S
C2551 C2550 1.396 . S
C2551 C2552 1.399 . S
C2552 H2538 0.929 . S
C2552 C2551 1.399 . S
C2552 C2553 1.385 . S
C2553 H2539 0.931 . S
C2553 C2552 1.385 . S
C2553 C2554 1.389 . S
C2554 C2553 1.389 . S
C2554 C2555 1.387 . S
C2555 H2540 0.930 . S
C2555 C2550 1.390 . S
C2555 C2554 1.387 . S
H2556 C2568 0.930 . S
H2557 C2570 0.930 . S
H2558 C2571 0.930 . S
H2559 C2575 0.959 . S
H2560 C2575 0.959 . S
H2561 C2575 0.961 . S
H2562 C2576 0.960 . S
H2563 C2576 0.961 . S
H2564 C2576 0.959 . S
H2565 C2579 0.929 . S
H2566 C2580 0.931 . S
H2567 C2582 0.930 . S
C2568 H2556 0.930 . S
C2568 C2569 1.399 . S
C2568 C2573 1.399 . S
C2569 C2568 1.399 . S
C2569 C2570 1.376 . S
C2570 H2557 0.930 . S
C2570 C2569 1.376 . S
C2570 C2571 1.388 . S
C2571 H2558 0.930 . S
C2571 C2570 1.388 . S
C2571 C2572 1.390 . S
C2572 C2571 1.390 . S
C2572 C2573 1.394 . S
C2572 C2578 1.465 . S
C2573 C2568 1.399 . S
C2573 C2572 1.394 . S
C2573 C2574 1.516 . S
C2574 C2573 1.516 . S
C2574 C2575 1.502 . S
C2574 C2576 1.561 . S
C2574 C2577 1.526 . S
C2575 H2559 0.959 . S
C2575 H2560 0.959 . S
C2575 H2561 0.961 . S
C2575 C2574 1.502 . S
C2576 H2562 0.960 . S
C2576 H2563 0.961 . S
C2576 H2564 0.959 . S
C2576 C2574 1.561 . S
C2577 C2574 1.526 . S
C2577 C2578 1.396 . S
C2577 C2582 1.390 . S
C2578 C2572 1.465 . S
C2578 C2577 1.396 . S
C2578 C2579 1.399 . S
C2579 H2565 0.929 . S
C2579 C2578 1.399 . S
C2579 C2580 1.385 . S
C2580 H2566 0.931 . S
C2580 C2579 1.385 . S
C2580 C2581 1.389 . S
C2581 C2580 1.389 . S
C2581 C2582 1.387 . S
C2582 H2567 0.930 . S
C2582 C2577 1.390 . S
C2582 C2581 1.387 . S
H2583 C2595 0.930 . S
H2584 C2597 0.930 . S
H2585 C2598 0.930 . S
H2586 C2602 0.959 . S
H2587 C2602 0.959 . S
H2588 C2602 0.961 . S
H2589 C2603 0.960 . S
H2590 C2603 0.961 . S
H2591 C2603 0.959 . S
H2592 C2606 0.929 . S
H2593 C2607 0.931 . S
H2594 C2609 0.930 . S
C2595 H2583 0.930 . S
C2595 C2596 1.399 . S
C2595 C2600 1.399 . S
C2596 C2595 1.399 . S
C2596 C2597 1.376 . S
C2597 H2584 0.930 . S
C2597 C2596 1.376 . S
C2597 C2598 1.388 . S
C2598 H2585 0.930 . S
C2598 C2597 1.388 . S
C2598 C2599 1.390 . S
C2599 C2598 1.390 . S
C2599 C2600 1.394 . S
C2599 C2605 1.465 . S
C2600 C2595 1.399 . S
C2600 C2599 1.394 . S
C2600 C2601 1.516 . S
C2601 C2600 1.516 . S
C2601 C2602 1.502 . S
C2601 C2603 1.561 . S
C2601 C2604 1.526 . S
C2602 H2586 0.959 . S
C2602 H2587 0.959 . S
C2602 H2588 0.961 . S
C2602 C2601 1.502 . S
C2603 H2589 0.960 . S
C2603 H2590 0.961 . S
C2603 H2591 0.959 . S
C2603 C2601 1.561 . S
C2604 C2601 1.526 . S
C2604 C2605 1.396 . S
C2604 C2609 1.390 . S
C2605 C2599 1.465 . S
C2605 C2604 1.396 . S
C2605 C2606 1.399 . S
C2606 H2592 0.929 . S
C2606 C2605 1.399 . S
C2606 C2607 1.385 . S
C2607 H2593 0.931 . S
C2607 C2606 1.385 . S
C2607 C2608 1.389 . S
C2608 C2607 1.389 . S
C2608 C2609 1.387 . S
C2609 H2594 0.930 . S
C2609 C2604 1.390 . S
C2609 C2608 1.387 . S
H2610 C2622 0.930 . S
H2611 C2624 0.930 . S
H2612 C2625 0.930 . S
H2613 C2629 0.959 . S
H2614 C2629 0.959 . S
H2615 C2629 0.961 . S
H2616 C2630 0.960 . S
H2617 C2630 0.961 . S
H2618 C2630 0.959 . S
H2619 C2633 0.929 . S
H2620 C2634 0.931 . S
H2621 C2636 0.930 . S
C2622 H2610 0.930 . S
C2622 C2623 1.399 . S
C2622 C2627 1.399 . S
C2623 C2622 1.399 . S
C2623 C2624 1.376 . S
C2624 H2611 0.930 . S
C2624 C2623 1.376 . S
C2624 C2625 1.388 . S
C2625 H2612 0.930 . S
C2625 C2624 1.388 . S
C2625 C2626 1.390 . S
C2626 C2625 1.390 . S
C2626 C2627 1.394 . S
C2626 C2632 1.465 . S
C2627 C2622 1.399 . S
C2627 C2626 1.394 . S
C2627 C2628 1.516 . S
C2628 C2627 1.516 . S
C2628 C2629 1.502 . S
C2628 C2630 1.561 . S
C2628 C2631 1.526 . S
C2629 H2613 0.959 . S
C2629 H2614 0.959 . S
C2629 H2615 0.961 . S
C2629 C2628 1.502 . S
C2630 H2616 0.960 . S
C2630 H2617 0.961 . S
C2630 H2618 0.959 . S
C2630 C2628 1.561 . S
C2631 C2628 1.526 . S
C2631 C2632 1.396 . S
C2631 C2636 1.390 . S
C2632 C2626 1.465 . S
C2632 C2631 1.396 . S
C2632 C2633 1.399 . S
C2633 H2619 0.929 . S
C2633 C2632 1.399 . S
C2633 C2634 1.385 . S
C2634 H2620 0.931 . S
C2634 C2633 1.385 . S
C2634 C2635 1.389 . S
C2635 C2634 1.389 . S
C2635 C2636 1.387 . S
C2636 H2621 0.930 . S
C2636 C2631 1.390 . S
C2636 C2635 1.387 . S
H2637 C2649 0.930 . S
H2638 C2651 0.930 . S
H2639 C2652 0.930 . S
H2640 C2656 0.959 . S
H2641 C2656 0.959 . S
H2642 C2656 0.961 . S
H2643 C2657 0.960 . S
H2644 C2657 0.961 . S
H2645 C2657 0.959 . S
H2646 C2660 0.929 . S
H2647 C2661 0.931 . S
H2648 C2663 0.930 . S
C2649 H2637 0.930 . S
C2649 C2650 1.399 . S
C2649 C2654 1.399 . S
C2650 C2649 1.399 . S
C2650 C2651 1.376 . S
C2651 H2638 0.930 . S
C2651 C2650 1.376 . S
C2651 C2652 1.388 . S
C2652 H2639 0.930 . S
C2652 C2651 1.388 . S
C2652 C2653 1.390 . S
C2653 C2652 1.390 . S
C2653 C2654 1.394 . S
C2653 C2659 1.465 . S
C2654 C2649 1.399 . S
C2654 C2653 1.394 . S
C2654 C2655 1.516 . S
C2655 C2654 1.516 . S
C2655 C2656 1.502 . S
C2655 C2657 1.561 . S
C2655 C2658 1.526 . S
C2656 H2640 0.959 . S
C2656 H2641 0.959 . S
C2656 H2642 0.961 . S
C2656 C2655 1.502 . S
C2657 H2643 0.960 . S
C2657 H2644 0.961 . S
C2657 H2645 0.959 . S
C2657 C2655 1.561 . S
C2658 C2655 1.526 . S
C2658 C2659 1.396 . S
C2658 C2663 1.390 . S
C2659 C2653 1.465 . S
C2659 C2658 1.396 . S
C2659 C2660 1.399 . S
C2660 H2646 0.929 . S
C2660 C2659 1.399 . S
C2660 C2661 1.385 . S
C2661 H2647 0.931 . S
C2661 C2660 1.385 . S
C2661 C2662 1.389 . S
C2662 C2661 1.389 . S
C2662 C2663 1.387 . S
C2663 H2648 0.930 . S
C2663 C2658 1.390 . S
C2663 C2662 1.387 . S
H2664 C2676 0.930 . S
H2665 C2678 0.930 . S
H2666 C2679 0.930 . S
H2667 C2683 0.959 . S
H2668 C2683 0.959 . S
H2669 C2683 0.961 . S
H2670 C2684 0.960 . S
H2671 C2684 0.961 . S
H2672 C2684 0.959 . S
H2673 C2687 0.929 . S
H2674 C2688 0.931 . S
H2675 C2690 0.930 . S
C2676 H2664 0.930 . S
C2676 C2677 1.399 . S
C2676 C2681 1.399 . S
C2677 C2676 1.399 . S
C2677 C2678 1.376 . S
C2678 H2665 0.930 . S
C2678 C2677 1.376 . S
C2678 C2679 1.388 . S
C2679 H2666 0.930 . S
C2679 C2678 1.388 . S
C2679 C2680 1.390 . S
C2680 C2679 1.390 . S
C2680 C2681 1.394 . S
C2680 C2686 1.465 . S
C2681 C2676 1.399 . S
C2681 C2680 1.394 . S
C2681 C2682 1.516 . S
C2682 C2681 1.516 . S
C2682 C2683 1.502 . S
C2682 C2684 1.561 . S
C2682 C2685 1.526 . S
C2683 H2667 0.959 . S
C2683 H2668 0.959 . S
C2683 H2669 0.961 . S
C2683 C2682 1.502 . S
C2684 H2670 0.960 . S
C2684 H2671 0.961 . S
C2684 H2672 0.959 . S
C2684 C2682 1.561 . S
C2685 C2682 1.526 . S
C2685 C2686 1.396 . S
C2685 C2690 1.390 . S
C2686 C2680 1.465 . S
C2686 C2685 1.396 . S
C2686 C2687 1.399 . S
C2687 H2673 0.929 . S
C2687 C2686 1.399 . S
C2687 C2688 1.385 . S
C2688 H2674 0.931 . S
C2688 C2687 1.385 . S
C2688 C2689 1.389 . S
C2689 C2688 1.389 . S
C2689 C2690 1.387 . S
C2690 H2675 0.930 . S
C2690 C2685 1.390 . S
C2690 C2689 1.387 . S
H2691 C2703 0.930 . S
H2692 C2705 0.930 . S
H2693 C2706 0.930 . S
H2694 C2710 0.959 . S
H2695 C2710 0.959 . S
H2696 C2710 0.961 . S
H2697 C2711 0.960 . S
H2698 C2711 0.961 . S
H2699 C2711 0.959 . S
H2700 C2714 0.929 . S
H2701 C2715 0.931 . S
H2702 C2717 0.930 . S
C2703 H2691 0.930 . S
C2703 C2704 1.399 . S
C2703 C2708 1.399 . S
C2704 C2703 1.399 . S
C2704 C2705 1.376 . S
C2705 H2692 0.930 . S
C2705 C2704 1.376 . S
C2705 C2706 1.388 . S
C2706 H2693 0.930 . S
C2706 C2705 1.388 . S
C2706 C2707 1.390 . S
C2707 C2706 1.390 . S
C2707 C2708 1.394 . S
C2707 C2713 1.465 . S
C2708 C2703 1.399 . S
C2708 C2707 1.394 . S
C2708 C2709 1.516 . S
C2709 C2708 1.516 . S
C2709 C2710 1.502 . S
C2709 C2711 1.561 . S
C2709 C2712 1.526 . S
C2710 H2694 0.959 . S
C2710 H2695 0.959 . S
C2710 H2696 0.961 . S
C2710 C2709 1.502 . S
C2711 H2697 0.960 . S
C2711 H2698 0.961 . S
C2711 H2699 0.959 . S
C2711 C2709 1.561 . S
C2712 C2709 1.526 . S
C2712 C2713 1.396 . S
C2712 C2717 1.390 . S
C2713 C2707 1.465 . S
C2713 C2712 1.396 . S
C2713 C2714 1.399 . S
C2714 H2700 0.929 . S
C2714 C2713 1.399 . S
C2714 C2715 1.385 . S
C2715 H2701 0.931 . S
C2715 C2714 1.385 . S
C2715 C2716 1.389 . S
C2716 C2715 1.389 . S
C2716 C2717 1.387 . S
C2717 H2702 0.930 . S
C2717 C2712 1.390 . S
C2717 C2716 1.387 . S
H2718 C2730 0.930 . S
H2719 C2732 0.930 . S
H2720 C2733 0.930 . S
H2721 C2737 0.959 . S
H2722 C2737 0.959 . S
H2723 C2737 0.961 . S
H2724 C2738 0.960 . S
H2725 C2738 0.961 . S
H2726 C2738 0.959 . S
H2727 C2741 0.929 . S
H2728 C2742 0.931 . S
H2729 C2744 0.930 . S
C2730 H2718 0.930 . S
C2730 C2731 1.399 . S
C2730 C2735 1.399 . S
C2731 C2730 1.399 . S
C2731 C2732 1.376 . S
C2732 H2719 0.930 . S
C2732 C2731 1.376 . S
C2732 C2733 1.388 . S
C2733 H2720 0.930 . S
C2733 C2732 1.388 . S
C2733 C2734 1.390 . S
C2734 C2733 1.390 . S
C2734 C2735 1.394 . S
C2734 C2740 1.465 . S
C2735 C2730 1.399 . S
C2735 C2734 1.394 . S
C2735 C2736 1.516 . S
C2736 C2735 1.516 . S
C2736 C2737 1.502 . S
C2736 C2738 1.561 . S
C2736 C2739 1.526 . S
C2737 H2721 0.959 . S
C2737 H2722 0.959 . S
C2737 H2723 0.961 . S
C2737 C2736 1.502 . S
C2738 H2724 0.960 . S
C2738 H2725 0.961 . S
C2738 H2726 0.959 . S
C2738 C2736 1.561 . S
C2739 C2736 1.526 . S
C2739 C2740 1.396 . S
C2739 C2744 1.390 . S
C2740 C2734 1.465 . S
C2740 C2739 1.396 . S
C2740 C2741 1.399 . S
C2741 H2727 0.929 . S
C2741 C2740 1.399 . S
C2741 C2742 1.385 . S
C2742 H2728 0.931 . S
C2742 C2741 1.385 . S
C2742 C2743 1.389 . S
C2743 C2742 1.389 . S
C2743 C2744 1.387 . S
C2744 H2729 0.930 . S
C2744 C2739 1.390 . S
C2744 C2743 1.387 . S
H2745 C2757 0.930 . S
H2746 C2759 0.930 . S
H2747 C2760 0.930 . S
H2748 C2764 0.959 . S
H2749 C2764 0.959 . S
H2750 C2764 0.961 . S
H2751 C2765 0.960 . S
H2752 C2765 0.961 . S
H2753 C2765 0.959 . S
H2754 C2768 0.929 . S
H2755 C2769 0.931 . S
H2756 C2771 0.930 . S
C2757 H2745 0.930 . S
C2757 C2758 1.399 . S
C2757 C2762 1.399 . S
C2758 C2757 1.399 . S
C2758 C2759 1.376 . S
C2759 H2746 0.930 . S
C2759 C2758 1.376 . S
C2759 C2760 1.388 . S
C2760 H2747 0.930 . S
C2760 C2759 1.388 . S
C2760 C2761 1.390 . S
C2761 C2760 1.390 . S
C2761 C2762 1.394 . S
C2761 C2767 1.465 . S
C2762 C2757 1.399 . S
C2762 C2761 1.394 . S
C2762 C2763 1.516 . S
C2763 C2762 1.516 . S
C2763 C2764 1.502 . S
C2763 C2765 1.561 . S
C2763 C2766 1.526 . S
C2764 H2748 0.959 . S
C2764 H2749 0.959 . S
C2764 H2750 0.961 . S
C2764 C2763 1.502 . S
C2765 H2751 0.960 . S
C2765 H2752 0.961 . S
C2765 H2753 0.959 . S
C2765 C2763 1.561 . S
C2766 C2763 1.526 . S
C2766 C2767 1.396 . S
C2766 C2771 1.390 . S
C2767 C2761 1.465 . S
C2767 C2766 1.396 . S
C2767 C2768 1.399 . S
C2768 H2754 0.929 . S
C2768 C2767 1.399 . S
C2768 C2769 1.385 . S
C2769 H2755 0.931 . S
C2769 C2768 1.385 . S
C2769 C2770 1.389 . S
C2770 C2769 1.389 . S
C2770 C2771 1.387 . S
C2771 H2756 0.930 . S
C2771 C2766 1.390 . S
C2771 C2770 1.387 . S
H2772 C2784 0.930 . S
H2773 C2786 0.930 . S
H2774 C2787 0.930 . S
H2775 C2791 0.959 . S
H2776 C2791 0.959 . S
H2777 C2791 0.961 . S
H2778 C2792 0.960 . S
H2779 C2792 0.961 . S
H2780 C2792 0.959 . S
H2781 C2795 0.929 . S
H2782 C2796 0.931 . S
H2783 C2798 0.930 . S
C2784 H2772 0.930 . S
C2784 C2785 1.399 . S
C2784 C2789 1.399 . S
C2785 C2784 1.399 . S
C2785 C2786 1.376 . S
C2786 H2773 0.930 . S
C2786 C2785 1.376 . S
C2786 C2787 1.388 . S
C2787 H2774 0.930 . S
C2787 C2786 1.388 . S
C2787 C2788 1.390 . S
C2788 C2787 1.390 . S
C2788 C2789 1.394 . S
C2788 C2794 1.465 . S
C2789 C2784 1.399 . S
C2789 C2788 1.394 . S
C2789 C2790 1.516 . S
C2790 C2789 1.516 . S
C2790 C2791 1.502 . S
C2790 C2792 1.561 . S
C2790 C2793 1.526 . S
C2791 H2775 0.959 . S
C2791 H2776 0.959 . S
C2791 H2777 0.961 . S
C2791 C2790 1.502 . S
C2792 H2778 0.960 . S
C2792 H2779 0.961 . S
C2792 H2780 0.959 . S
C2792 C2790 1.561 . S
C2793 C2790 1.526 . S
C2793 C2794 1.396 . S
C2793 C2798 1.390 . S
C2794 C2788 1.465 . S
C2794 C2793 1.396 . S
C2794 C2795 1.399 . S
C2795 H2781 0.929 . S
C2795 C2794 1.399 . S
C2795 C2796 1.385 . S
C2796 H2782 0.931 . S
C2796 C2795 1.385 . S
C2796 C2797 1.389 . S
C2797 C2796 1.389 . S
C2797 C2798 1.387 . S
C2798 H2783 0.930 . S
C2798 C2793 1.390 . S
C2798 C2797 1.387 . S
H2799 C2811 0.930 . S
H2800 C2813 0.930 . S
H2801 C2814 0.930 . S
H2802 C2818 0.959 . S
H2803 C2818 0.959 . S
H2804 C2818 0.961 . S
H2805 C2819 0.960 . S
H2806 C2819 0.961 . S
H2807 C2819 0.959 . S
H2808 C2822 0.929 . S
H2809 C2823 0.931 . S
H2810 C2825 0.930 . S
C2811 H2799 0.930 . S
C2811 C2812 1.399 . S
C2811 C2816 1.399 . S
C2812 C2811 1.399 . S
C2812 C2813 1.376 . S
C2813 H2800 0.930 . S
C2813 C2812 1.376 . S
C2813 C2814 1.388 . S
C2814 H2801 0.930 . S
C2814 C2813 1.388 . S
C2814 C2815 1.390 . S
C2815 C2814 1.390 . S
C2815 C2816 1.394 . S
C2815 C2821 1.465 . S
C2816 C2811 1.399 . S
C2816 C2815 1.394 . S
C2816 C2817 1.516 . S
C2817 C2816 1.516 . S
C2817 C2818 1.502 . S
C2817 C2819 1.561 . S
C2817 C2820 1.526 . S
C2818 H2802 0.959 . S
C2818 H2803 0.959 . S
C2818 H2804 0.961 . S
C2818 C2817 1.502 . S
C2819 H2805 0.960 . S
C2819 H2806 0.961 . S
C2819 H2807 0.959 . S
C2819 C2817 1.561 . S
C2820 C2817 1.526 . S
C2820 C2821 1.396 . S
C2820 C2825 1.390 . S
C2821 C2815 1.465 . S
C2821 C2820 1.396 . S
C2821 C2822 1.399 . S
C2822 H2808 0.929 . S
C2822 C2821 1.399 . S
C2822 C2823 1.385 . S
C2823 H2809 0.931 . S
C2823 C2822 1.385 . S
C2823 C2824 1.389 . S
C2824 C2823 1.389 . S
C2824 C2825 1.387 . S
C2825 H2810 0.930 . S
C2825 C2820 1.390 . S
C2825 C2824 1.387 . S
H2826 C2838 0.930 . S
H2827 C2840 0.930 . S
H2828 C2841 0.930 . S
H2829 C2845 0.959 . S
H2830 C2845 0.959 . S
H2831 C2845 0.961 . S
H2832 C2846 0.960 . S
H2833 C2846 0.961 . S
H2834 C2846 0.959 . S
H2835 C2849 0.929 . S
H2836 C2850 0.931 . S
H2837 C2852 0.930 . S
C2838 H2826 0.930 . S
C2838 C2839 1.399 . S
C2838 C2843 1.399 . S
C2839 C2838 1.399 . S
C2839 C2840 1.376 . S
C2840 H2827 0.930 . S
C2840 C2839 1.376 . S
C2840 C2841 1.388 . S
C2841 H2828 0.930 . S
C2841 C2840 1.388 . S
C2841 C2842 1.390 . S
C2842 C2841 1.390 . S
C2842 C2843 1.394 . S
C2842 C2848 1.465 . S
C2843 C2838 1.399 . S
C2843 C2842 1.394 . S
C2843 C2844 1.516 . S
C2844 C2843 1.516 . S
C2844 C2845 1.502 . S
C2844 C2846 1.561 . S
C2844 C2847 1.526 . S
C2845 H2829 0.959 . S
C2845 H2830 0.959 . S
C2845 H2831 0.961 . S
C2845 C2844 1.502 . S
C2846 H2832 0.960 . S
C2846 H2833 0.961 . S
C2846 H2834 0.959 . S
C2846 C2844 1.561 . S
C2847 C2844 1.526 . S
C2847 C2848 1.396 . S
C2847 C2852 1.390 . S
C2848 C2842 1.465 . S
C2848 C2847 1.396 . S
C2848 C2849 1.399 . S
C2849 H2835 0.929 . S
C2849 C2848 1.399 . S
C2849 C2850 1.385 . S
C2850 H2836 0.931 . S
C2850 C2849 1.385 . S
C2850 C2851 1.389 . S
C2851 C2850 1.389 . S
C2851 C2852 1.387 . S
C2852 H2837 0.930 . S
C2852 C2847 1.390 . S
C2852 C2851 1.387 . S
H2853 C2865 0.930 . S
H2854 C2867 0.930 . S
H2855 C2868 0.930 . S
H2856 C2872 0.959 . S
H2857 C2872 0.959 . S
H2858 C2872 0.961 . S
H2859 C2873 0.960 . S
H2860 C2873 0.961 . S
H2861 C2873 0.959 . S
H2862 C2876 0.929 . S
H2863 C2877 0.931 . S
H2864 C2879 0.930 . S
C2865 H2853 0.930 . S
C2865 C2866 1.399 . S
C2865 C2870 1.399 . S
C2866 C2865 1.399 . S
C2866 C2867 1.376 . S
C2867 H2854 0.930 . S
C2867 C2866 1.376 . S
C2867 C2868 1.388 . S
C2868 H2855 0.930 . S
C2868 C2867 1.388 . S
C2868 C2869 1.390 . S
C2869 C2868 1.390 . S
C2869 C2870 1.394 . S
C2869 C2875 1.465 . S
C2870 C2865 1.399 . S
C2870 C2869 1.394 . S
C2870 C2871 1.516 . S
C2871 C2870 1.516 . S
C2871 C2872 1.502 . S
C2871 C2873 1.561 . S
C2871 C2874 1.526 . S
C2872 H2856 0.959 . S
C2872 H2857 0.959 . S
C2872 H2858 0.961 . S
C2872 C2871 1.502 . S
C2873 H2859 0.960 . S
C2873 H2860 0.961 . S
C2873 H2861 0.959 . S
C2873 C2871 1.561 . S
C2874 C2871 1.526 . S
C2874 C2875 1.396 . S
C2874 C2879 1.390 . S
C2875 C2869 1.465 . S
C2875 C2874 1.396 . S
C2875 C2876 1.399 . S
C2876 H2862 0.929 . S
C2876 C2875 1.399 . S
C2876 C2877 1.385 . S
C2877 H2863 0.931 . S
C2877 C2876 1.385 . S
C2877 C2878 1.389 . S
C2878 C2877 1.389 . S
C2878 C2879 1.387 . S
C2879 H2864 0.930 . S
C2879 C2874 1.390 . S
C2879 C2878 1.387 . S
H2880 C2892 0.930 . S
H2881 C2894 0.930 . S
H2882 C2895 0.930 . S
H2883 C2899 0.959 . S
H2884 C2899 0.959 . S
H2885 C2899 0.961 . S
H2886 C2900 0.960 . S
H2887 C2900 0.961 . S
H2888 C2900 0.959 . S
H2889 C2903 0.929 . S
H2890 C2904 0.931 . S
H2891 C2906 0.930 . S
C2892 H2880 0.930 . S
C2892 C2893 1.399 . S
C2892 C2897 1.399 . S
C2893 C2892 1.399 . S
C2893 C2894 1.376 . S
C2894 H2881 0.930 . S
C2894 C2893 1.376 . S
C2894 C2895 1.388 . S
C2895 H2882 0.930 . S
C2895 C2894 1.388 . S
C2895 C2896 1.390 . S
C2896 C2895 1.390 . S
C2896 C2897 1.394 . S
C2896 C2902 1.465 . S
C2897 C2892 1.399 . S
C2897 C2896 1.394 . S
C2897 C2898 1.516 . S
C2898 C2897 1.516 . S
C2898 C2899 1.502 . S
C2898 C2900 1.561 . S
C2898 C2901 1.526 . S
C2899 H2883 0.959 . S
C2899 H2884 0.959 . S
C2899 H2885 0.961 . S
C2899 C2898 1.502 . S
C2900 H2886 0.960 . S
C2900 H2887 0.961 . S
C2900 H2888 0.959 . S
C2900 C2898 1.561 . S
C2901 C2898 1.526 . S
C2901 C2902 1.396 . S
C2901 C2906 1.390 . S
C2902 C2896 1.465 . S
C2902 C2901 1.396 . S
C2902 C2903 1.399 . S
C2903 H2889 0.929 . S
C2903 C2902 1.399 . S
C2903 C2904 1.385 . S
C2904 H2890 0.931 . S
C2904 C2903 1.385 . S
C2904 C2905 1.389 . S
C2905 C2904 1.389 . S
C2905 C2906 1.387 . S
C2906 H2891 0.930 . S
C2906 C2901 1.390 . S
C2906 C2905 1.387 . S
H2907 C2919 0.930 . S
H2908 C2921 0.930 . S
H2909 C2922 0.930 . S
H2910 C2926 0.959 . S
H2911 C2926 0.959 . S
H2912 C2926 0.961 . S
H2913 C2927 0.960 . S
H2914 C2927 0.961 . S
H2915 C2927 0.959 . S
H2916 C2930 0.929 . S
H2917 C2931 0.931 . S
H2918 C2933 0.930 . S
C2919 H2907 0.930 . S
C2919 C2920 1.399 . S
C2919 C2924 1.399 . S
C2920 C2919 1.399 . S
C2920 C2921 1.376 . S
C2921 H2908 0.930 . S
C2921 C2920 1.376 . S
C2921 C2922 1.388 . S
C2922 H2909 0.930 . S
C2922 C2921 1.388 . S
C2922 C2923 1.390 . S
C2923 C2922 1.390 . S
C2923 C2924 1.394 . S
C2923 C2929 1.465 . S
C2924 C2919 1.399 . S
C2924 C2923 1.394 . S
C2924 C2925 1.516 . S
C2925 C2924 1.516 . S
C2925 C2926 1.502 . S
C2925 C2927 1.561 . S
C2925 C2928 1.526 . S
C2926 H2910 0.959 . S
C2926 H2911 0.959 . S
C2926 H2912 0.961 . S
C2926 C2925 1.502 . S
C2927 H2913 0.960 . S
C2927 H2914 0.961 . S
C2927 H2915 0.959 . S
C2927 C2925 1.561 . S
C2928 C2925 1.526 . S
C2928 C2929 1.396 . S
C2928 C2933 1.390 . S
C2929 C2923 1.465 . S
C2929 C2928 1.396 . S
C2929 C2930 1.399 . S
C2930 H2916 0.929 . S
C2930 C2929 1.399 . S
C2930 C2931 1.385 . S
C2931 H2917 0.931 . S
C2931 C2930 1.385 . S
C2931 C2932 1.389 . S
C2932 C2931 1.389 . S
C2932 C2933 1.387 . S
C2933 H2918 0.930 . S
C2933 C2928 1.390 . S
C2933 C2932 1.387 . S
H2934 C2946 0.930 . S
H2935 C2948 0.930 . S
H2936 C2949 0.930 . S
H2937 C2953 0.959 . S
H2938 C2953 0.959 . S
H2939 C2953 0.961 . S
H2940 C2954 0.960 . S
H2941 C2954 0.961 . S
H2942 C2954 0.959 . S
H2943 C2957 0.929 . S
H2944 C2958 0.931 . S
H2945 C2960 0.930 . S
C2946 H2934 0.930 . S
C2946 C2947 1.399 . S
C2946 C2951 1.399 . S
C2947 C2946 1.399 . S
C2947 C2948 1.376 . S
C2948 H2935 0.930 . S
C2948 C2947 1.376 . S
C2948 C2949 1.388 . S
C2949 H2936 0.930 . S
C2949 C2948 1.388 . S
C2949 C2950 1.390 . S
C2950 C2949 1.390 . S
C2950 C2951 1.394 . S
C2950 C2956 1.465 . S
C2951 C2946 1.399 . S
C2951 C2950 1.394 . S
C2951 C2952 1.516 . S
C2952 C2951 1.516 . S
C2952 C2953 1.502 . S
C2952 C2954 1.561 . S
C2952 C2955 1.526 . S
C2953 H2937 0.959 . S
C2953 H2938 0.959 . S
C2953 H2939 0.961 . S
C2953 C2952 1.502 . S
C2954 H2940 0.960 . S
C2954 H2941 0.961 . S
C2954 H2942 0.959 . S
C2954 C2952 1.561 . S
C2955 C2952 1.526 . S
C2955 C2956 1.396 . S
C2955 C2960 1.390 . S
C2956 C2950 1.465 . S
C2956 C2955 1.396 . S
C2956 C2957 1.399 . S
C2957 H2943 0.929 . S
C2957 C2956 1.399 . S
C2957 C2958 1.385 . S
C2958 H2944 0.931 . S
C2958 C2957 1.385 . S
C2958 C2959 1.389 . S
C2959 C2958 1.389 . S
C2959 C2960 1.387 . S
C2960 H2945 0.930 . S
C2960 C2955 1.390 . S
C2960 C2959 1.387 . S
H2961 C2973 0.930 . S
H2962 C2975 0.930 . S
H2963 C2976 0.930 . S
H2964 C2980 0.959 . S
H2965 C2980 0.959 . S
H2966 C2980 0.961 . S
H2967 C2981 0.960 . S
H2968 C2981 0.961 . S
H2969 C2981 0.959 . S
H2970 C2984 0.929 . S
H2971 C2985 0.931 . S
H2972 C2987 0.930 . S
C2973 H2961 0.930 . S
C2973 C2974 1.399 . S
C2973 C2978 1.399 . S
C2974 C2973 1.399 . S
C2974 C2975 1.376 . S
C2975 H2962 0.930 . S
C2975 C2974 1.376 . S
C2975 C2976 1.388 . S
C2976 H2963 0.930 . S
C2976 C2975 1.388 . S
C2976 C2977 1.390 . S
C2977 C2976 1.390 . S
C2977 C2978 1.394 . S
C2977 C2983 1.465 . S
C2978 C2973 1.399 . S
C2978 C2977 1.394 . S
C2978 C2979 1.516 . S
C2979 C2978 1.516 . S
C2979 C2980 1.502 . S
C2979 C2981 1.561 . S
C2979 C2982 1.526 . S
C2980 H2964 0.959 . S
C2980 H2965 0.959 . S
C2980 H2966 0.961 . S
C2980 C2979 1.502 . S
C2981 H2967 0.960 . S
C2981 H2968 0.961 . S
C2981 H2969 0.959 . S
C2981 C2979 1.561 . S
C2982 C2979 1.526 . S
C2982 C2983 1.396 . S
C2982 C2987 1.390 . S
C2983 C2977 1.465 . S
C2983 C2982 1.396 . S
C2983 C2984 1.399 . S
C2984 H2970 0.929 . S
C2984 C2983 1.399 . S
C2984 C2985 1.385 . S
C2985 H2971 0.931 . S
C2985 C2984 1.385 . S
C2985 C2986 1.389 . S
C2986 C2985 1.389 . S
C2986 C2987 1.387 . S
C2987 H2972 0.930 . S
C2987 C2982 1.390 . S
C2987 C2986 1.387 . S
H2988 C3000 0.930 . S
H2989 C3002 0.930 . S
H2990 C3003 0.930 . S
H2991 C3007 0.959 . S
H2992 C3007 0.959 . S
H2993 C3007 0.961 . S
H2994 C3008 0.960 . S
H2995 C3008 0.961 . S
H2996 C3008 0.959 . S
H2997 C3011 0.929 . S
H2998 C3012 0.931 . S
H2999 C3014 0.930 . S
C3000 H2988 0.930 . S
C3000 C3001 1.399 . S
C3000 C3005 1.399 . S
C3001 C3000 1.399 . S
C3001 C3002 1.376 . S
C3002 H2989 0.930 . S
C3002 C3001 1.376 . S
C3002 C3003 1.388 . S
C3003 H2990 0.930 . S
C3003 C3002 1.388 . S
C3003 C3004 1.390 . S
C3004 C3003 1.390 . S
C3004 C3005 1.394 . S
C3004 C3010 1.465 . S
C3005 C3000 1.399 . S
C3005 C3004 1.394 . S
C3005 C3006 1.516 . S
C3006 C3005 1.516 . S
C3006 C3007 1.502 . S
C3006 C3008 1.561 . S
C3006 C3009 1.526 . S
C3007 H2991 0.959 . S
C3007 H2992 0.959 . S
C3007 H2993 0.961 . S
C3007 C3006 1.502 . S
C3008 H2994 0.960 . S
C3008 H2995 0.961 . S
C3008 H2996 0.959 . S
C3008 C3006 1.561 . S
C3009 C3006 1.526 . S
C3009 C3010 1.396 . S
C3009 C3014 1.390 . S
C3010 C3004 1.465 . S
C3010 C3009 1.396 . S
C3010 C3011 1.399 . S
C3011 H2997 0.929 . S
C3011 C3010 1.399 . S
C3011 C3012 1.385 . S
C3012 H2998 0.931 . S
C3012 C3011 1.385 . S
C3012 C3013 1.389 . S
C3013 C3012 1.389 . S
C3013 C3014 1.387 . S
C3014 H2999 0.930 . S
C3014 C3009 1.390 . S
C3014 C3013 1.387 . S
H3015 C3027 0.930 . S
H3016 C3029 0.930 . S
H3017 C3030 0.930 . S
H3018 C3034 0.959 . S
H3019 C3034 0.959 . S
H3020 C3034 0.961 . S
H3021 C3035 0.960 . S
H3022 C3035 0.961 . S
H3023 C3035 0.959 . S
H3024 C3038 0.929 . S
H3025 C3039 0.931 . S
H3026 C3041 0.930 . S
C3027 H3015 0.930 . S
C3027 C3028 1.399 . S
C3027 C3032 1.399 . S
C3028 C3027 1.399 . S
C3028 C3029 1.376 . S
C3029 H3016 0.930 . S
C3029 C3028 1.376 . S
C3029 C3030 1.388 . S
C3030 H3017 0.930 . S
C3030 C3029 1.388 . S
C3030 C3031 1.390 . S
C3031 C3030 1.390 . S
C3031 C3032 1.394 . S
C3031 C3037 1.465 . S
C3032 C3027 1.399 . S
C3032 C3031 1.394 . S
C3032 C3033 1.516 . S
C3033 C3032 1.516 . S
C3033 C3034 1.502 . S
C3033 C3035 1.561 . S
C3033 C3036 1.526 . S
C3034 H3018 0.959 . S
C3034 H3019 0.959 . S
C3034 H3020 0.961 . S
C3034 C3033 1.502 . S
C3035 H3021 0.960 . S
C3035 H3022 0.961 . S
C3035 H3023 0.959 . S
C3035 C3033 1.561 . S
C3036 C3033 1.526 . S
C3036 C3037 1.396 . S
C3036 C3041 1.390 . S
C3037 C3031 1.465 . S
C3037 C3036 1.396 . S
C3037 C3038 1.399 . S
C3038 H3024 0.929 . S
C3038 C3037 1.399 . S
C3038 C3039 1.385 . S
C3039 H3025 0.931 . S
C3039 C3038 1.385 . S
C3039 C3040 1.389 . S
C3040 C3039 1.389 . S
C3040 C3041 1.387 . S
C3041 H3026 0.930 . S
C3041 C3036 1.390 . S
C3041 C3040 1.387 . S
H3042 C3054 0.930 . S
H3043 C3056 0.930 . S
H3044 C3057 0.930 . S
H3045 C3061 0.959 . S
H3046 C3061 0.959 . S
H3047 C3061 0.961 . S
H3048 C3062 0.960 . S
H3049 C3062 0.961 . S
H3050 C3062 0.959 . S
H3051 C3065 0.929 . S
H3052 C3066 0.931 . S
H3053 C3068 0.930 . S
C3054 H3042 0.930 . S
C3054 C3055 1.399 . S
C3054 C3059 1.399 . S
C3055 C3054 1.399 . S
C3055 C3056 1.376 . S
C3056 H3043 0.930 . S
C3056 C3055 1.376 . S
C3056 C3057 1.388 . S
C3057 H3044 0.930 . S
C3057 C3056 1.388 . S
C3057 C3058 1.390 . S
C3058 C3057 1.390 . S
C3058 C3059 1.394 . S
C3058 C3064 1.465 . S
C3059 C3054 1.399 . S
C3059 C3058 1.394 . S
C3059 C3060 1.516 . S
C3060 C3059 1.516 . S
C3060 C3061 1.502 . S
C3060 C3062 1.561 . S
C3060 C3063 1.526 . S
C3061 H3045 0.959 . S
C3061 H3046 0.959 . S
C3061 H3047 0.961 . S
C3061 C3060 1.502 . S
C3062 H3048 0.960 . S
C3062 H3049 0.961 . S
C3062 H3050 0.959 . S
C3062 C3060 1.561 . S
C3063 C3060 1.526 . S
C3063 C3064 1.396 . S
C3063 C3068 1.390 . S
C3064 C3058 1.465 . S
C3064 C3063 1.396 . S
C3064 C3065 1.399 . S
C3065 H3051 0.929 . S
C3065 C3064 1.399 . S
C3065 C3066 1.385 . S
C3066 H3052 0.931 . S
C3066 C3065 1.385 . S
C3066 C3067 1.389 . S
C3067 C3066 1.389 . S
C3067 C3068 1.387 . S
C3068 H3053 0.930 . S
C3068 C3063 1.390 . S
C3068 C3067 1.387 . S
H3069 C3081 0.930 . S
H3070 C3083 0.930 . S
H3071 C3084 0.930 . S
H3072 C3088 0.959 . S
H3073 C3088 0.959 . S
H3074 C3088 0.961 . S
H3075 C3089 0.960 . S
H3076 C3089 0.961 . S
H3077 C3089 0.959 . S
H3078 C3092 0.929 . S
H3079 C3093 0.931 . S
H3080 C3095 0.930 . S
C3081 H3069 0.930 . S
C3081 C3082 1.399 . S
C3081 C3086 1.399 . S
C3082 C3081 1.399 . S
C3082 C3083 1.376 . S
C3083 H3070 0.930 . S
C3083 C3082 1.376 . S
C3083 C3084 1.388 . S
C3084 H3071 0.930 . S
C3084 C3083 1.388 . S
C3084 C3085 1.390 . S
C3085 C3084 1.390 . S
C3085 C3086 1.394 . S
C3085 C3091 1.465 . S
C3086 C3081 1.399 . S
C3086 C3085 1.394 . S
C3086 C3087 1.516 . S
C3087 C3086 1.516 . S
C3087 C3088 1.502 . S
C3087 C3089 1.561 . S
C3087 C3090 1.526 . S
C3088 H3072 0.959 . S
C3088 H3073 0.959 . S
C3088 H3074 0.961 . S
C3088 C3087 1.502 . S
C3089 H3075 0.960 . S
C3089 H3076 0.961 . S
C3089 H3077 0.959 . S
C3089 C3087 1.561 . S
C3090 C3087 1.526 . S
C3090 C3091 1.396 . S
C3090 C3095 1.390 . S
C3091 C3085 1.465 . S
C3091 C3090 1.396 . S
C3091 C3092 1.399 . S
C3092 H3078 0.929 . S
C3092 C3091 1.399 . S
C3092 C3093 1.385 . S
C3093 H3079 0.931 . S
C3093 C3092 1.385 . S
C3093 C3094 1.389 . S
C3094 C3093 1.389 . S
C3094 C3095 1.387 . S
C3095 H3080 0.930 . S
C3095 C3090 1.390 . S
C3095 C3094 1.387 . S
H3096 C3108 0.930 . S
H3097 C3110 0.930 . S
H3098 C3111 0.930 . S
H3099 C3115 0.959 . S
H3100 C3115 0.959 . S
H3101 C3115 0.961 . S
H3102 C3116 0.960 . S
H3103 C3116 0.961 . S
H3104 C3116 0.959 . S
H3105 C3119 0.929 . S
H3106 C3120 0.931 . S
H3107 C3122 0.930 . S
C3108 H3096 0.930 . S
C3108 C3109 1.399 . S
C3108 C3113 1.399 . S
C3109 C3108 1.399 . S
C3109 C3110 1.376 . S
C3110 H3097 0.930 . S
C3110 C3109 1.376 . S
C3110 C3111 1.388 . S
C3111 H3098 0.930 . S
C3111 C3110 1.388 . S
C3111 C3112 1.390 . S
C3112 C3111 1.390 . S
C3112 C3113 1.394 . S
C3112 C3118 1.465 . S
C3113 C3108 1.399 . S
C3113 C3112 1.394 . S
C3113 C3114 1.516 . S
C3114 C3113 1.516 . S
C3114 C3115 1.502 . S
C3114 C3116 1.561 . S
C3114 C3117 1.526 . S
C3115 H3099 0.959 . S
C3115 H3100 0.959 . S
C3115 H3101 0.961 . S
C3115 C3114 1.502 . S
C3116 H3102 0.960 . S
C3116 H3103 0.961 . S
C3116 H3104 0.959 . S
C3116 C3114 1.561 . S
C3117 C3114 1.526 . S
C3117 C3118 1.396 . S
C3117 C3122 1.390 . S
C3118 C3112 1.465 . S
C3118 C3117 1.396 . S
C3118 C3119 1.399 . S
C3119 H3105 0.929 . S
C3119 C3118 1.399 . S
C3119 C3120 1.385 . S
C3120 H3106 0.931 . S
C3120 C3119 1.385 . S
C3120 C3121 1.389 . S
C3121 C3120 1.389 . S
C3121 C3122 1.387 . S
C3122 H3107 0.930 . S
C3122 C3117 1.390 . S
C3122 C3121 1.387 . S
H3123 C3135 0.930 . S
H3124 C3137 0.930 . S
H3125 C3138 0.930 . S
H3126 C3142 0.959 . S
H3127 C3142 0.959 . S
H3128 C3142 0.961 . S
H3129 C3143 0.960 . S
H3130 C3143 0.961 . S
H3131 C3143 0.959 . S
H3132 C3146 0.929 . S
H3133 C3147 0.931 . S
H3134 C3149 0.930 . S
C3135 H3123 0.930 . S
C3135 C3136 1.399 . S
C3135 C3140 1.399 . S
C3136 C3135 1.399 . S
C3136 C3137 1.376 . S
C3137 H3124 0.930 . S
C3137 C3136 1.376 . S
C3137 C3138 1.388 . S
C3138 H3125 0.930 . S
C3138 C3137 1.388 . S
C3138 C3139 1.390 . S
C3139 C3138 1.390 . S
C3139 C3140 1.394 . S
C3139 C3145 1.465 . S
C3140 C3135 1.399 . S
C3140 C3139 1.394 . S
C3140 C3141 1.516 . S
C3141 C3140 1.516 . S
C3141 C3142 1.502 . S
C3141 C3143 1.561 . S
C3141 C3144 1.526 . S
C3142 H3126 0.959 . S
C3142 H3127 0.959 . S
C3142 H3128 0.961 . S
C3142 C3141 1.502 . S
C3143 H3129 0.960 . S
C3143 H3130 0.961 . S
C3143 H3131 0.959 . S
C3143 C3141 1.561 . S
C3144 C3141 1.526 . S
C3144 C3145 1.396 . S
C3144 C3149 1.390 . S
C3145 C3139 1.465 . S
C3145 C3144 1.396 . S
C3145 C3146 1.399 . S
C3146 H3132 0.929 . S
C3146 C3145 1.399 . S
C3146 C3147 1.385 . S
C3147 H3133 0.931 . S
C3147 C3146 1.385 . S
C3147 C3148 1.389 . S
C3148 C3147 1.389 . S
C3148 C3149 1.387 . S
C3149 H3134 0.930 . S
C3149 C3144 1.390 . S
C3149 C3148 1.387 . S
H3150 C3162 0.930 . S
H3151 C3164 0.930 . S
H3152 C3165 0.930 . S
H3153 C3169 0.959 . S
H3154 C3169 0.959 . S
H3155 C3169 0.961 . S
H3156 C3170 0.960 . S
H3157 C3170 0.961 . S
H3158 C3170 0.959 . S
H3159 C3173 0.929 . S
H3160 C3174 0.931 . S
H3161 C3176 0.930 . S
C3162 H3150 0.930 . S
C3162 C3163 1.399 . S
C3162 C3167 1.399 . S
C3163 C3162 1.399 . S
C3163 C3164 1.376 . S
C3164 H3151 0.930 . S
C3164 C3163 1.376 . S
C3164 C3165 1.388 . S
C3165 H3152 0.930 . S
C3165 C3164 1.388 . S
C3165 C3166 1.390 . S
C3166 C3165 1.390 . S
C3166 C3167 1.394 . S
C3166 C3172 1.465 . S
C3167 C3162 1.399 . S
C3167 C3166 1.394 . S
C3167 C3168 1.516 . S
C3168 C3167 1.516 . S
C3168 C3169 1.502 . S
C3168 C3170 1.561 . S
C3168 C3171 1.526 . S
C3169 H3153 0.959 . S
C3169 H3154 0.959 . S
C3169 H3155 0.961 . S
C3169 C3168 1.502 . S
C3170 H3156 0.960 . S
C3170 H3157 0.961 . S
C3170 H3158 0.959 . S
C3170 C3168 1.561 . S
C3171 C3168 1.526 . S
C3171 C3172 1.396 . S
C3171 C3176 1.390 . S
C3172 C3166 1.465 . S
C3172 C3171 1.396 . S
C3172 C3173 1.399 . S
C3173 H3159 0.929 . S
C3173 C3172 1.399 . S
C3173 C3174 1.385 . S
C3174 H3160 0.931 . S
C3174 C3173 1.385 . S
C3174 C3175 1.389 . S
C3175 C3174 1.389 . S
C3175 C3176 1.387 . S
C3176 H3161 0.930 . S
C3176 C3171 1.390 . S
C3176 C3175 1.387 . S
H3177 C3189 0.930 . S
H3178 C3191 0.930 . S
H3179 C3192 0.930 . S
H3180 C3196 0.959 . S
H3181 C3196 0.959 . S
H3182 C3196 0.961 . S
H3183 C3197 0.960 . S
H3184 C3197 0.961 . S
H3185 C3197 0.959 . S
H3186 C3200 0.929 . S
H3187 C3201 0.931 . S
H3188 C3203 0.930 . S
C3189 H3177 0.930 . S
C3189 C3190 1.399 . S
C3189 C3194 1.399 . S
C3190 C3189 1.399 . S
C3190 C3191 1.376 . S
C3191 H3178 0.930 . S
C3191 C3190 1.376 . S
C3191 C3192 1.388 . S
C3192 H3179 0.930 . S
C3192 C3191 1.388 . S
C3192 C3193 1.390 . S
C3193 C3192 1.390 . S
C3193 C3194 1.394 . S
C3193 C3199 1.465 . S
C3194 C3189 1.399 . S
C3194 C3193 1.394 . S
C3194 C3195 1.516 . S
C3195 C3194 1.516 . S
C3195 C3196 1.502 . S
C3195 C3197 1.561 . S
C3195 C3198 1.526 . S
C3196 H3180 0.959 . S
C3196 H3181 0.959 . S
C3196 H3182 0.961 . S
C3196 C3195 1.502 . S
C3197 H3183 0.960 . S
C3197 H3184 0.961 . S
C3197 H3185 0.959 . S
C3197 C3195 1.561 . S
C3198 C3195 1.526 . S
C3198 C3199 1.396 . S
C3198 C3203 1.390 . S
C3199 C3193 1.465 . S
C3199 C3198 1.396 . S
C3199 C3200 1.399 . S
C3200 H3186 0.929 . S
C3200 C3199 1.399 . S
C3200 C3201 1.385 . S
C3201 H3187 0.931 . S
C3201 C3200 1.385 . S
C3201 C3202 1.389 . S
C3202 C3201 1.389 . S
C3202 C3203 1.387 . S
C3203 H3188 0.930 . S
C3203 C3198 1.390 . S
C3203 C3202 1.387 . S
H3204 C3216 0.930 . S
H3205 C3218 0.930 . S
H3206 C3219 0.930 . S
H3207 C3223 0.959 . S
H3208 C3223 0.959 . S
H3209 C3223 0.961 . S
H3210 C3224 0.960 . S
H3211 C3224 0.961 . S
H3212 C3224 0.959 . S
H3213 C3227 0.929 . S
H3214 C3228 0.931 . S
H3215 C3230 0.930 . S
C3216 H3204 0.930 . S
C3216 C3217 1.399 . S
C3216 C3221 1.399 . S
C3217 C3216 1.399 . S
C3217 C3218 1.376 . S
C3218 H3205 0.930 . S
C3218 C3217 1.376 . S
C3218 C3219 1.388 . S
C3219 H3206 0.930 . S
C3219 C3218 1.388 . S
C3219 C3220 1.390 . S
C3220 C3219 1.390 . S
C3220 C3221 1.394 . S
C3220 C3226 1.465 . S
C3221 C3216 1.399 . S
C3221 C3220 1.394 . S
C3221 C3222 1.516 . S
C3222 C3221 1.516 . S
C3222 C3223 1.502 . S
C3222 C3224 1.561 . S
C3222 C3225 1.526 . S
C3223 H3207 0.959 . S
C3223 H3208 0.959 . S
C3223 H3209 0.961 . S
C3223 C3222 1.502 . S
C3224 H3210 0.960 . S
C3224 H3211 0.961 . S
C3224 H3212 0.959 . S
C3224 C3222 1.561 . S
C3225 C3222 1.526 . S
C3225 C3226 1.396 . S
C3225 C3230 1.390 . S
C3226 C3220 1.465 . S
C3226 C3225 1.396 . S
C3226 C3227 1.399 . S
C3227 H3213 0.929 . S
C3227 C3226 1.399 . S
C3227 C3228 1.385 . S
C3228 H3214 0.931 . S
C3228 C3227 1.385 . S
C3228 C3229 1.389 . S
C3229 C3228 1.389 . S
C3229 C3230 1.387 . S
C3230 H3215 0.930 . S
C3230 C3225 1.390 . S
C3230 C3229 1.387 . S
H3231 C3243 0.930 . S
H3232 C3245 0.930 . S
H3233 C3246 0.930 . S
H3234 C3250 0.959 . S
H3235 C3250 0.959 . S
H3236 C3250 0.961 . S
H3237 C3251 0.960 . S
H3238 C3251 0.961 . S
H3239 C3251 0.959 . S
H3240 C3254 0.929 . S
H3241 C3255 0.931 . S
H3242 C3257 0.930 . S
C3243 H3231 0.930 . S
C3243 C3244 1.399 . S
C3243 C3248 1.399 . S
C3244 C3243 1.399 . S
C3244 C3245 1.376 . S
C3245 H3232 0.930 . S
C3245 C3244 1.376 . S
C3245 C3246 1.388 . S
C3246 H3233 0.930 . S
C3246 C3245 1.388 . S
C3246 C3247 1.390 . S
C3247 C3246 1.390 . S
C3247 C3248 1.394 . S
C3247 C3253 1.465 . S
C3248 C3243 1.399 . S
C3248 C3247 1.394 . S
C3248 C3249 1.516 . S
C3249 C3248 1.516 . S
C3249 C3250 1.502 . S
C3249 C3251 1.561 . S
C3249 C3252 1.526 . S
C3250 H3234 0.959 . S
C3250 H3235 0.959 . S
C3250 H3236 0.961 . S
C3250 C3249 1.502 . S
C3251 H3237 0.960 . S
C3251 H3238 0.961 . S
C3251 H3239 0.959 . S
C3251 C3249 1.561 . S
C3252 C3249 1.526 . S
C3252 C3253 1.396 . S
C3252 C3257 1.390 . S
C3253 C3247 1.465 . S
C3253 C3252 1.396 . S
C3253 C3254 1.399 . S
C3254 H3240 0.929 . S
C3254 C3253 1.399 . S
C3254 C3255 1.385 . S
C3255 H3241 0.931 . S
C3255 C3254 1.385 . S
C3255 C3256 1.389 . S
C3256 C3255 1.389 . S
C3256 C3257 1.387 . S
C3257 H3242 0.930 . S
C3257 C3252 1.390 . S
C3257 C3256 1.387 . S
H3258 C3270 0.930 . S
H3259 C3272 0.930 . S
H3260 C3273 0.930 . S
H3261 C3277 0.959 . S
H3262 C3277 0.959 . S
H3263 C3277 0.961 . S
H3264 C3278 0.960 . S
H3265 C3278 0.961 . S
H3266 C3278 0.959 . S
H3267 C3281 0.929 . S
H3268 C3282 0.931 . S
H3269 C3284 0.930 . S
C3270 H3258 0.930 . S
C3270 C3271 1.399 . S
C3270 C3275 1.399 . S
C3271 C3270 1.399 . S
C3271 C3272 1.376 . S
C3272 H3259 0.930 . S
C3272 C3271 1.376 . S
C3272 C3273 1.388 . S
C3273 H3260 0.930 . S
C3273 C3272 1.388 . S
C3273 C3274 1.390 . S
C3274 C3273 1.390 . S
C3274 C3275 1.394 . S
C3274 C3280 1.465 . S
C3275 C3270 1.399 . S
C3275 C3274 1.394 . S
C3275 C3276 1.516 . S
C3276 C3275 1.516 . S
C3276 C3277 1.502 . S
C3276 C3278 1.561 . S
C3276 C3279 1.526 . S
C3277 H3261 0.959 . S
C3277 H3262 0.959 . S
C3277 H3263 0.961 . S
C3277 C3276 1.502 . S
C3278 H3264 0.960 . S
C3278 H3265 0.961 . S
C3278 H3266 0.959 . S
C3278 C3276 1.561 . S
C3279 C3276 1.526 . S
C3279 C3280 1.396 . S
C3279 C3284 1.390 . S
C3280 C3274 1.465 . S
C3280 C3279 1.396 . S
C3280 C3281 1.399 . S
C3281 H3267 0.929 . S
C3281 C3280 1.399 . S
C3281 C3282 1.385 . S
C3282 H3268 0.931 . S
C3282 C3281 1.385 . S
C3282 C3283 1.389 . S
C3283 C3282 1.389 . S
C3283 C3284 1.387 . S
C3284 H3269 0.930 . S
C3284 C3279 1.390 . S
C3284 C3283 1.387 . S
H3285 C3297 0.930 . S
H3286 C3299 0.930 . S
H3287 C3300 0.930 . S
H3288 C3304 0.959 . S
H3289 C3304 0.959 . S
H3290 C3304 0.961 . S
H3291 C3305 0.960 . S
H3292 C3305 0.961 . S
H3293 C3305 0.959 . S
H3294 C3308 0.929 . S
H3295 C3309 0.931 . S
H3296 C3311 0.930 . S
C3297 H3285 0.930 . S
C3297 C3298 1.399 . S
C3297 C3302 1.399 . S
C3298 C3297 1.399 . S
C3298 C3299 1.376 . S
C3299 H3286 0.930 . S
C3299 C3298 1.376 . S
C3299 C3300 1.388 . S
C3300 H3287 0.930 . S
C3300 C3299 1.388 . S
C3300 C3301 1.390 . S
C3301 C3300 1.390 . S
C3301 C3302 1.394 . S
C3301 C3307 1.465 . S
C3302 C3297 1.399 . S
C3302 C3301 1.394 . S
C3302 C3303 1.516 . S
C3303 C3302 1.516 . S
C3303 C3304 1.502 . S
C3303 C3305 1.561 . S
C3303 C3306 1.526 . S
C3304 H3288 0.959 . S
C3304 H3289 0.959 . S
C3304 H3290 0.961 . S
C3304 C3303 1.502 . S
C3305 H3291 0.960 . S
C3305 H3292 0.961 . S
C3305 H3293 0.959 . S
C3305 C3303 1.561 . S
C3306 C3303 1.526 . S
C3306 C3307 1.396 . S
C3306 C3311 1.390 . S
C3307 C3301 1.465 . S
C3307 C3306 1.396 . S
C3307 C3308 1.399 . S
C3308 H3294 0.929 . S
C3308 C3307 1.399 . S
C3308 C3309 1.385 . S
C3309 H3295 0.931 . S
C3309 C3308 1.385 . S
C3309 C3310 1.389 . S
C3310 C3309 1.389 . S
C3310 C3311 1.387 . S
C3311 H3296 0.930 . S
C3311 C3306 1.390 . S
C3311 C3310 1.387 . S
H3312 C3324 0.930 . S
H3313 C3326 0.930 . S
H3314 C3327 0.930 . S
H3315 C3331 0.959 . S
H3316 C3331 0.959 . S
H3317 C3331 0.961 . S
H3318 C3332 0.960 . S
H3319 C3332 0.961 . S
H3320 C3332 0.959 . S
H3321 C3335 0.929 . S
H3322 C3336 0.931 . S
H3323 C3338 0.930 . S
C3324 H3312 0.930 . S
C3324 C3325 1.399 . S
C3324 C3329 1.399 . S
C3325 C3324 1.399 . S
C3325 C3326 1.376 . S
C3326 H3313 0.930 . S
C3326 C3325 1.376 . S
C3326 C3327 1.388 . S
C3327 H3314 0.930 . S
C3327 C3326 1.388 . S
C3327 C3328 1.390 . S
C3328 C3327 1.390 . S
C3328 C3329 1.394 . S
C3328 C3334 1.465 . S
C3329 C3324 1.399 . S
C3329 C3328 1.394 . S
C3329 C3330 1.516 . S
C3330 C3329 1.516 . S
C3330 C3331 1.502 . S
C3330 C3332 1.561 . S
C3330 C3333 1.526 . S
C3331 H3315 0.959 . S
C3331 H3316 0.959 . S
C3331 H3317 0.961 . S
C3331 C3330 1.502 . S
C3332 H3318 0.960 . S
C3332 H3319 0.961 . S
C3332 H3320 0.959 . S
C3332 C3330 1.561 . S
C3333 C3330 1.526 . S
C3333 C3334 1.396 . S
C3333 C3338 1.390 . S
C3334 C3328 1.465 . S
C3334 C3333 1.396 . S
C3334 C3335 1.399 . S
C3335 H3321 0.929 . S
C3335 C3334 1.399 . S
C3335 C3336 1.385 . S
C3336 H3322 0.931 . S
C3336 C3335 1.385 . S
C3336 C3337 1.389 . S
C3337 C3336 1.389 . S
C3337 C3338 1.387 . S
C3338 H3323 0.930 . S
C3338 C3333 1.390 . S
C3338 C3337 1.387 . S
H3339 C3351 0.930 . S
H3340 C3353 0.930 . S
H3341 C3354 0.930 . S
H3342 C3358 0.959 . S
H3343 C3358 0.959 . S
H3344 C3358 0.961 . S
H3345 C3359 0.960 . S
H3346 C3359 0.961 . S
H3347 C3359 0.959 . S
H3348 C3362 0.929 . S
H3349 C3363 0.931 . S
H3350 C3365 0.930 . S
C3351 H3339 0.930 . S
C3351 C3352 1.399 . S
C3351 C3356 1.399 . S
C3352 C3351 1.399 . S
C3352 C3353 1.376 . S
C3353 H3340 0.930 . S
C3353 C3352 1.376 . S
C3353 C3354 1.388 . S
C3354 H3341 0.930 . S
C3354 C3353 1.388 . S
C3354 C3355 1.390 . S
C3355 C3354 1.390 . S
C3355 C3356 1.394 . S
C3355 C3361 1.465 . S
C3356 C3351 1.399 . S
C3356 C3355 1.394 . S
C3356 C3357 1.516 . S
C3357 C3356 1.516 . S
C3357 C3358 1.502 . S
C3357 C3359 1.561 . S
C3357 C3360 1.526 . S
C3358 H3342 0.959 . S
C3358 H3343 0.959 . S
C3358 H3344 0.961 . S
C3358 C3357 1.502 . S
C3359 H3345 0.960 . S
C3359 H3346 0.961 . S
C3359 H3347 0.959 . S
C3359 C3357 1.561 . S
C3360 C3357 1.526 . S
C3360 C3361 1.396 . S
C3360 C3365 1.390 . S
C3361 C3355 1.465 . S
C3361 C3360 1.396 . S
C3361 C3362 1.399 . S
C3362 H3348 0.929 . S
C3362 C3361 1.399 . S
C3362 C3363 1.385 . S
C3363 H3349 0.931 . S
C3363 C3362 1.385 . S
C3363 C3364 1.389 . S
C3364 C3363 1.389 . S
C3364 C3365 1.387 . S
C3365 H3350 0.930 . S
C3365 C3360 1.390 . S
C3365 C3364 1.387 . S
H3366 C3378 0.930 . S
H3367 C3380 0.930 . S
H3368 C3381 0.930 . S
H3369 C3385 0.959 . S
H3370 C3385 0.959 . S
H3371 C3385 0.961 . S
H3372 C3386 0.960 . S
H3373 C3386 0.961 . S
H3374 C3386 0.959 . S
H3375 C3389 0.929 . S
H3376 C3390 0.931 . S
H3377 C3392 0.930 . S
C3378 H3366 0.930 . S
C3378 C3379 1.399 . S
C3378 C3383 1.399 . S
C3379 C3378 1.399 . S
C3379 C3380 1.376 . S
C3380 H3367 0.930 . S
C3380 C3379 1.376 . S
C3380 C3381 1.388 . S
C3381 H3368 0.930 . S
C3381 C3380 1.388 . S
C3381 C3382 1.390 . S
C3382 C3381 1.390 . S
C3382 C3383 1.394 . S
C3382 C3388 1.465 . S
C3383 C3378 1.399 . S
C3383 C3382 1.394 . S
C3383 C3384 1.516 . S
C3384 C3383 1.516 . S
C3384 C3385 1.502 . S
C3384 C3386 1.561 . S
C3384 C3387 1.526 . S
C3385 H3369 0.959 . S
C3385 H3370 0.959 . S
C3385 H3371 0.961 . S
C3385 C3384 1.502 . S
C3386 H3372 0.960 . S
C3386 H3373 0.961 . S
C3386 H3374 0.959 . S
C3386 C3384 1.561 . S
C3387 C3384 1.526 . S
C3387 C3388 1.396 . S
C3387 C3392 1.390 . S
C3388 C3382 1.465 . S
C3388 C3387 1.396 . S
C3388 C3389 1.399 . S
C3389 H3375 0.929 . S
C3389 C3388 1.399 . S
C3389 C3390 1.385 . S
C3390 H3376 0.931 . S
C3390 C3389 1.385 . S
C3390 C3391 1.389 . S
C3391 C3390 1.389 . S
C3391 C3392 1.387 . S
C3392 H3377 0.930 . S
C3392 C3387 1.390 . S
C3392 C3391 1.387 . S
H3393 C3405 0.930 . S
H3394 C3407 0.930 . S
H3395 C3408 0.930 . S
H3396 C3412 0.959 . S
H3397 C3412 0.959 . S
H3398 C3412 0.961 . S
H3399 C3413 0.960 . S
H3400 C3413 0.961 . S
H3401 C3413 0.959 . S
H3402 C3416 0.929 . S
H3403 C3417 0.931 . S
H3404 C3419 0.930 . S
C3405 H3393 0.930 . S
C3405 C3406 1.399 . S
C3405 C3410 1.399 . S
C3406 C3405 1.399 . S
C3406 C3407 1.376 . S
C3407 H3394 0.930 . S
C3407 C3406 1.376 . S
C3407 C3408 1.388 . S
C3408 H3395 0.930 . S
C3408 C3407 1.388 . S
C3408 C3409 1.390 . S
C3409 C3408 1.390 . S
C3409 C3410 1.394 . S
C3409 C3415 1.465 . S
C3410 C3405 1.399 . S
C3410 C3409 1.394 . S
C3410 C3411 1.516 . S
C3411 C3410 1.516 . S
C3411 C3412 1.502 . S
C3411 C3413 1.561 . S
C3411 C3414 1.526 . S
C3412 H3396 0.959 . S
C3412 H3397 0.959 . S
C3412 H3398 0.961 . S
C3412 C3411 1.502 . S
C3413 H3399 0.960 . S
C3413 H3400 0.961 . S
C3413 H3401 0.959 . S
C3413 C3411 1.561 . S
C3414 C3411 1.526 . S
C3414 C3415 1.396 . S
C3414 C3419 1.390 . S
C3415 C3409 1.465 . S
C3415 C3414 1.396 . S
C3415 C3416 1.399 . S
C3416 H3402 0.929 . S
C3416 C3415 1.399 . S
C3416 C3417 1.385 . S
C3417 H3403 0.931 . S
C3417 C3416 1.385 . S
C3417 C3418 1.389 . S
C3418 C3417 1.389 . S
C3418 C3419 1.387 . S
C3419 H3404 0.930 . S
C3419 C3414 1.390 . S
C3419 C3418 1.387 . S
H3420 C3432 0.930 . S
H3421 C3434 0.930 . S
H3422 C3435 0.930 . S
H3423 C3439 0.959 . S
H3424 C3439 0.959 . S
H3425 C3439 0.961 . S
H3426 C3440 0.960 . S
H3427 C3440 0.961 . S
H3428 C3440 0.959 . S
H3429 C3443 0.929 . S
H3430 C3444 0.931 . S
H3431 C3446 0.930 . S
C3432 H3420 0.930 . S
C3432 C3433 1.399 . S
C3432 C3437 1.399 . S
C3433 C3432 1.399 . S
C3433 C3434 1.376 . S
C3434 H3421 0.930 . S
C3434 C3433 1.376 . S
C3434 C3435 1.388 . S
C3435 H3422 0.930 . S
C3435 C3434 1.388 . S
C3435 C3436 1.390 . S
C3436 C3435 1.390 . S
C3436 C3437 1.394 . S
C3436 C3442 1.465 . S
C3437 C3432 1.399 . S
C3437 C3436 1.394 . S
C3437 C3438 1.516 . S
C3438 C3437 1.516 . S
C3438 C3439 1.502 . S
C3438 C3440 1.561 . S
C3438 C3441 1.526 . S
C3439 H3423 0.959 . S
C3439 H3424 0.959 . S
C3439 H3425 0.961 . S
C3439 C3438 1.502 . S
C3440 H3426 0.960 . S
C3440 H3427 0.961 . S
C3440 H3428 0.959 . S
C3440 C3438 1.561 . S
C3441 C3438 1.526 . S
C3441 C3442 1.396 . S
C3441 C3446 1.390 . S
C3442 C3436 1.465 . S
C3442 C3441 1.396 . S
C3442 C3443 1.399 . S
C3443 H3429 0.929 . S
C3443 C3442 1.399 . S
C3443 C3444 1.385 . S
C3444 H3430 0.931 . S
C3444 C3443 1.385 . S
C3444 C3445 1.389 . S
C3445 C3444 1.389 . S
C3445 C3446 1.387 . S
C3446 H3431 0.930 . S
C3446 C3441 1.390 . S
C3446 C3445 1.387 . S
H3447 C3459 0.930 . S
H3448 C3461 0.930 . S
H3449 C3462 0.930 . S
H3450 C3466 0.959 . S
H3451 C3466 0.959 . S
H3452 C3466 0.961 . S
H3453 C3467 0.960 . S
H3454 C3467 0.961 . S
H3455 C3467 0.959 . S
H3456 C3470 0.929 . S
H3457 C3471 0.931 . S
H3458 C3473 0.930 . S
C3459 H3447 0.930 . S
C3459 C3460 1.399 . S
C3459 C3464 1.399 . S
C3460 C3459 1.399 . S
C3460 C3461 1.376 . S
C3461 H3448 0.930 . S
C3461 C3460 1.376 . S
C3461 C3462 1.388 . S
C3462 H3449 0.930 . S
C3462 C3461 1.388 . S
C3462 C3463 1.390 . S
C3463 C3462 1.390 . S
C3463 C3464 1.394 . S
C3463 C3469 1.465 . S
C3464 C3459 1.399 . S
C3464 C3463 1.394 . S
C3464 C3465 1.516 . S
C3465 C3464 1.516 . S
C3465 C3466 1.502 . S
C3465 C3467 1.561 . S
C3465 C3468 1.526 . S
C3466 H3450 0.959 . S
C3466 H3451 0.959 . S
C3466 H3452 0.961 . S
C3466 C3465 1.502 . S
C3467 H3453 0.960 . S
C3467 H3454 0.961 . S
C3467 H3455 0.959 . S
C3467 C3465 1.561 . S
C3468 C3465 1.526 . S
C3468 C3469 1.396 . S
C3468 C3473 1.390 . S
C3469 C3463 1.465 . S
C3469 C3468 1.396 . S
C3469 C3470 1.399 . S
C3470 H3456 0.929 . S
C3470 C3469 1.399 . S
C3470 C3471 1.385 . S
C3471 H3457 0.931 . S
C3471 C3470 1.385 . S
C3471 C3472 1.389 . S
C3472 C3471 1.389 . S
C3472 C3473 1.387 . S
C3473 H3458 0.930 . S
C3473 C3468 1.390 . S
C3473 C3472 1.387 . S
H3474 C3486 0.930 . S
H3475 C3488 0.930 . S
H3476 C3489 0.930 . S
H3477 C3493 0.959 . S
H3478 C3493 0.959 . S
H3479 C3493 0.961 . S
H3480 C3494 0.960 . S
H3481 C3494 0.961 . S
H3482 C3494 0.959 . S
H3483 C3497 0.929 . S
H3484 C3498 0.931 . S
H3485 C3500 0.930 . S
C3486 H3474 0.930 . S
C3486 C3487 1.399 . S
C3486 C3491 1.399 . S
C3487 C3486 1.399 . S
C3487 C3488 1.376 . S
C3488 H3475 0.930 . S
C3488 C3487 1.376 . S
C3488 C3489 1.388 . S
C3489 H3476 0.930 . S
C3489 C3488 1.388 . S
C3489 C3490 1.390 . S
C3490 C3489 1.390 . S
C3490 C3491 1.394 . S
C3490 C3496 1.465 . S
C3491 C3486 1.399 . S
C3491 C3490 1.394 . S
C3491 C3492 1.516 . S
C3492 C3491 1.516 . S
C3492 C3493 1.502 . S
C3492 C3494 1.561 . S
C3492 C3495 1.526 . S
C3493 H3477 0.959 . S
C3493 H3478 0.959 . S
C3493 H3479 0.961 . S
C3493 C3492 1.502 . S
C3494 H3480 0.960 . S
C3494 H3481 0.961 . S
C3494 H3482 0.959 . S
C3494 C3492 1.561 . S
C3495 C3492 1.526 . S
C3495 C3496 1.396 . S
C3495 C3500 1.390 . S
C3496 C3490 1.465 . S
C3496 C3495 1.396 . S
C3496 C3497 1.399 . S
C3497 H3483 0.929 . S
C3497 C3496 1.399 . S
C3497 C3498 1.385 . S
C3498 H3484 0.931 . S
C3498 C3497 1.385 . S
C3498 C3499 1.389 . S
C3499 C3498 1.389 . S
C3499 C3500 1.387 . S
C3500 H3485 0.930 . S
C3500 C3495 1.390 . S
C3500 C3499 1.387 . S
H3501 C3513 0.930 . S
H3502 C3515 0.930 . S
H3503 C3516 0.930 . S
H3504 C3520 0.959 . S
H3505 C3520 0.959 . S
H3506 C3520 0.961 . S
H3507 C3521 0.960 . S
H3508 C3521 0.961 . S
H3509 C3521 0.959 . S
H3510 C3524 0.929 . S
H3511 C3525 0.931 . S
H3512 C3527 0.930 . S
C3513 H3501 0.930 . S
C3513 C3514 1.399 . S
C3513 C3518 1.399 . S
C3514 C3513 1.399 . S
C3514 C3515 1.376 . S
C3515 H3502 0.930 . S
C3515 C3514 1.376 . S
C3515 C3516 1.388 . S
C3516 H3503 0.930 . S
C3516 C3515 1.388 . S
C3516 C3517 1.390 . S
C3517 C3516 1.390 . S
C3517 C3518 1.394 . S
C3517 C3523 1.465 . S
C3518 C3513 1.399 . S
C3518 C3517 1.394 . S
C3518 C3519 1.516 . S
C3519 C3518 1.516 . S
C3519 C3520 1.502 . S
C3519 C3521 1.561 . S
C3519 C3522 1.526 . S
C3520 H3504 0.959 . S
C3520 H3505 0.959 . S
C3520 H3506 0.961 . S
C3520 C3519 1.502 . S
C3521 H3507 0.960 . S
C3521 H3508 0.961 . S
C3521 H3509 0.959 . S
C3521 C3519 1.561 . S
C3522 C3519 1.526 . S
C3522 C3523 1.396 . S
C3522 C3527 1.390 . S
C3523 C3517 1.465 . S
C3523 C3522 1.396 . S
C3523 C3524 1.399 . S
C3524 H3510 0.929 . S
C3524 C3523 1.399 . S
C3524 C3525 1.385 . S
C3525 H3511 0.931 . S
C3525 C3524 1.385 . S
C3525 C3526 1.389 . S
C3526 C3525 1.389 . S
C3526 C3527 1.387 . S
C3527 H3512 0.930 . S
C3527 C3522 1.390 . S
C3527 C3526 1.387 . S
H3528 C3540 0.930 . S
H3529 C3542 0.930 . S
H3530 C3543 0.930 . S
H3531 C3547 0.959 . S
H3532 C3547 0.959 . S
H3533 C3547 0.961 . S
H3534 C3548 0.960 . S
H3535 C3548 0.961 . S
H3536 C3548 0.959 . S
H3537 C3551 0.929 . S
H3538 C3552 0.931 . S
H3539 C3554 0.930 . S
C3540 H3528 0.930 . S
C3540 C3541 1.399 . S
C3540 C3545 1.399 . S
C3541 C3540 1.399 . S
C3541 C3542 1.376 . S
C3542 H3529 0.930 . S
C3542 C3541 1.376 . S
C3542 C3543 1.388 . S
C3543 H3530 0.930 . S
C3543 C3542 1.388 . S
C3543 C3544 1.390 . S
C3544 C3543 1.390 . S
C3544 C3545 1.394 . S
C3544 C3550 1.465 . S
C3545 C3540 1.399 . S
C3545 C3544 1.394 . S
C3545 C3546 1.516 . S
C3546 C3545 1.516 . S
C3546 C3547 1.502 . S
C3546 C3548 1.561 . S
C3546 C3549 1.526 . S
C3547 H3531 0.959 . S
C3547 H3532 0.959 . S
C3547 H3533 0.961 . S
C3547 C3546 1.502 . S
C3548 H3534 0.960 . S
C3548 H3535 0.961 . S
C3548 H3536 0.959 . S
C3548 C3546 1.561 . S
C3549 C3546 1.526 . S
C3549 C3550 1.396 . S
C3549 C3554 1.390 . S
C3550 C3544 1.465 . S
C3550 C3549 1.396 . S
C3550 C3551 1.399 . S
C3551 H3537 0.929 . S
C3551 C3550 1.399 . S
C3551 C3552 1.385 . S
C3552 H3538 0.931 . S
C3552 C3551 1.385 . S
C3552 C3553 1.389 . S
C3553 C3552 1.389 . S
C3553 C3554 1.387 . S
C3554 H3539 0.930 . S
C3554 C3549 1.390 . S
C3554 C3553 1.387 . S
H3555 C3567 0.930 . S
H3556 C3569 0.930 . S
H3557 C3570 0.930 . S
H3558 C3574 0.959 . S
H3559 C3574 0.959 . S
H3560 C3574 0.961 . S
H3561 C3575 0.960 . S
H3562 C3575 0.961 . S
H3563 C3575 0.959 . S
H3564 C3578 0.929 . S
H3565 C3579 0.931 . S
H3566 C3581 0.930 . S
C3567 H3555 0.930 . S
C3567 C3568 1.399 . S
C3567 C3572 1.399 . S
C3568 C3567 1.399 . S
C3568 C3569 1.376 . S
C3569 H3556 0.930 . S
C3569 C3568 1.376 . S
C3569 C3570 1.388 . S
C3570 H3557 0.930 . S
C3570 C3569 1.388 . S
C3570 C3571 1.390 . S
C3571 C3570 1.390 . S
C3571 C3572 1.394 . S
C3571 C3577 1.465 . S
C3572 C3567 1.399 . S
C3572 C3571 1.394 . S
C3572 C3573 1.516 . S
C3573 C3572 1.516 . S
C3573 C3574 1.502 . S
C3573 C3575 1.561 . S
C3573 C3576 1.526 . S
C3574 H3558 0.959 . S
C3574 H3559 0.959 . S
C3574 H3560 0.961 . S
C3574 C3573 1.502 . S
C3575 H3561 0.960 . S
C3575 H3562 0.961 . S
C3575 H3563 0.959 . S
C3575 C3573 1.561 . S
C3576 C3573 1.526 . S
C3576 C3577 1.396 . S
C3576 C3581 1.390 . S
C3577 C3571 1.465 . S
C3577 C3576 1.396 . S
C3577 C3578 1.399 . S
C3578 H3564 0.929 . S
C3578 C3577 1.399 . S
C3578 C3579 1.385 . S
C3579 H3565 0.931 . S
C3579 C3578 1.385 . S
C3579 C3580 1.389 . S
C3580 C3579 1.389 . S
C3580 C3581 1.387 . S
C3581 H3566 0.930 . S
C3581 C3576 1.390 . S
C3581 C3580 1.387 . S
H3582 C3594 0.930 . S
H3583 C3596 0.930 . S
H3584 C3597 0.930 . S
H3585 C3601 0.959 . S
H3586 C3601 0.959 . S
H3587 C3601 0.961 . S
H3588 C3602 0.960 . S
H3589 C3602 0.961 . S
H3590 C3602 0.959 . S
H3591 C3605 0.929 . S
H3592 C3606 0.931 . S
H3593 C3608 0.930 . S
C3594 H3582 0.930 . S
C3594 C3595 1.399 . S
C3594 C3599 1.399 . S
C3595 C3594 1.399 . S
C3595 C3596 1.376 . S
C3596 H3583 0.930 . S
C3596 C3595 1.376 . S
C3596 C3597 1.388 . S
C3597 H3584 0.930 . S
C3597 C3596 1.388 . S
C3597 C3598 1.390 . S
C3598 C3597 1.390 . S
C3598 C3599 1.394 . S
C3598 C3604 1.465 . S
C3599 C3594 1.399 . S
C3599 C3598 1.394 . S
C3599 C3600 1.516 . S
C3600 C3599 1.516 . S
C3600 C3601 1.502 . S
C3600 C3602 1.561 . S
C3600 C3603 1.526 . S
C3601 H3585 0.959 . S
C3601 H3586 0.959 . S
C3601 H3587 0.961 . S
C3601 C3600 1.502 . S
C3602 H3588 0.960 . S
C3602 H3589 0.961 . S
C3602 H3590 0.959 . S
C3602 C3600 1.561 . S
C3603 C3600 1.526 . S
C3603 C3604 1.396 . S
C3603 C3608 1.390 . S
C3604 C3598 1.465 . S
C3604 C3603 1.396 . S
C3604 C3605 1.399 . S
C3605 H3591 0.929 . S
C3605 C3604 1.399 . S
C3605 C3606 1.385 . S
C3606 H3592 0.931 . S
C3606 C3605 1.385 . S
C3606 C3607 1.389 . S
C3607 C3606 1.389 . S
C3607 C3608 1.387 . S
C3608 H3593 0.930 . S
C3608 C3603 1.390 . S
C3608 C3607 1.387 . S
H3609 C3621 0.930 . S
H3610 C3623 0.930 . S
H3611 C3624 0.930 . S
H3612 C3628 0.959 . S
H3613 C3628 0.959 . S
H3614 C3628 0.961 . S
H3615 C3629 0.960 . S
H3616 C3629 0.961 . S
H3617 C3629 0.959 . S
H3618 C3632 0.929 . S
H3619 C3633 0.931 . S
H3620 C3635 0.930 . S
C3621 H3609 0.930 . S
C3621 C3622 1.399 . S
C3621 C3626 1.399 . S
C3622 C3621 1.399 . S
C3622 C3623 1.376 . S
C3623 H3610 0.930 . S
C3623 C3622 1.376 . S
C3623 C3624 1.388 . S
C3624 H3611 0.930 . S
C3624 C3623 1.388 . S
C3624 C3625 1.390 . S
C3625 C3624 1.390 . S
C3625 C3626 1.394 . S
C3625 C3631 1.465 . S
C3626 C3621 1.399 . S
C3626 C3625 1.394 . S
C3626 C3627 1.516 . S
C3627 C3626 1.516 . S
C3627 C3628 1.502 . S
C3627 C3629 1.561 . S
C3627 C3630 1.526 . S
C3628 H3612 0.959 . S
C3628 H3613 0.959 . S
C3628 H3614 0.961 . S
C3628 C3627 1.502 . S
C3629 H3615 0.960 . S
C3629 H3616 0.961 . S
C3629 H3617 0.959 . S
C3629 C3627 1.561 . S
C3630 C3627 1.526 . S
C3630 C3631 1.396 . S
C3630 C3635 1.390 . S
C3631 C3625 1.465 . S
C3631 C3630 1.396 . S
C3631 C3632 1.399 . S
C3632 H3618 0.929 . S
C3632 C3631 1.399 . S
C3632 C3633 1.385 . S
C3633 H3619 0.931 . S
C3633 C3632 1.385 . S
C3633 C3634 1.389 . S
C3634 C3633 1.389 . S
C3634 C3635 1.387 . S
C3635 H3620 0.930 . S
C3635 C3630 1.390 . S
C3635 C3634 1.387 . S
H3636 C3648 0.930 . S
H3637 C3650 0.930 . S
H3638 C3651 0.930 . S
H3639 C3655 0.959 . S
H3640 C3655 0.959 . S
H3641 C3655 0.961 . S
H3642 C3656 0.960 . S
H3643 C3656 0.961 . S
H3644 C3656 0.959 . S
H3645 C3659 0.929 . S
H3646 C3660 0.931 . S
H3647 C3662 0.930 . S
C3648 H3636 0.930 . S
C3648 C3649 1.399 . S
C3648 C3653 1.399 . S
C3649 C3648 1.399 . S
C3649 C3650 1.376 . S
C3650 H3637 0.930 . S
C3650 C3649 1.376 . S
C3650 C3651 1.388 . S
C3651 H3638 0.930 . S
C3651 C3650 1.388 . S
C3651 C3652 1.390 . S
C3652 C3651 1.390 . S
C3652 C3653 1.394 . S
C3652 C3658 1.465 . S
C3653 C3648 1.399 . S
C3653 C3652 1.394 . S
C3653 C3654 1.516 . S
C3654 C3653 1.516 . S
C3654 C3655 1.502 . S
C3654 C3656 1.561 . S
C3654 C3657 1.526 . S
C3655 H3639 0.959 . S
C3655 H3640 0.959 . S
C3655 H3641 0.961 . S
C3655 C3654 1.502 . S
C3656 H3642 0.960 . S
C3656 H3643 0.961 . S
C3656 H3644 0.959 . S
C3656 C3654 1.561 . S
C3657 C3654 1.526 . S
C3657 C3658 1.396 . S
C3657 C3662 1.390 . S
C3658 C3652 1.465 . S
C3658 C3657 1.396 . S
C3658 C3659 1.399 . S
C3659 H3645 0.929 . S
C3659 C3658 1.399 . S
C3659 C3660 1.385 . S
C3660 H3646 0.931 . S
C3660 C3659 1.385 . S
C3660 C3661 1.389 . S
C3661 C3660 1.389 . S
C3661 C3662 1.387 . S
C3662 H3647 0.930 . S
C3662 C3657 1.390 . S
C3662 C3661 1.387 . S
H3663 C3675 0.930 . S
H3664 C3677 0.930 . S
H3665 C3678 0.930 . S
H3666 C3682 0.959 . S
H3667 C3682 0.959 . S
H3668 C3682 0.961 . S
H3669 C3683 0.960 . S
H3670 C3683 0.961 . S
H3671 C3683 0.959 . S
H3672 C3686 0.929 . S
H3673 C3687 0.931 . S
H3674 C3689 0.930 . S
C3675 H3663 0.930 . S
C3675 C3676 1.399 . S
C3675 C3680 1.399 . S
C3676 C3675 1.399 . S
C3676 C3677 1.376 . S
C3677 H3664 0.930 . S
C3677 C3676 1.376 . S
C3677 C3678 1.388 . S
C3678 H3665 0.930 . S
C3678 C3677 1.388 . S
C3678 C3679 1.390 . S
C3679 C3678 1.390 . S
C3679 C3680 1.394 . S
C3679 C3685 1.465 . S
C3680 C3675 1.399 . S
C3680 C3679 1.394 . S
C3680 C3681 1.516 . S
C3681 C3680 1.516 . S
C3681 C3682 1.502 . S
C3681 C3683 1.561 . S
C3681 C3684 1.526 . S
C3682 H3666 0.959 . S
C3682 H3667 0.959 . S
C3682 H3668 0.961 . S
C3682 C3681 1.502 . S
C3683 H3669 0.960 . S
C3683 H3670 0.961 . S
C3683 H3671 0.959 . S
C3683 C3681 1.561 . S
C3684 C3681 1.526 . S
C3684 C3685 1.396 . S
C3684 C3689 1.390 . S
C3685 C3679 1.465 . S
C3685 C3684 1.396 . S
C3685 C3686 1.399 . S
C3686 H3672 0.929 . S
C3686 C3685 1.399 . S
C3686 C3687 1.385 . S
C3687 H3673 0.931 . S
C3687 C3686 1.385 . S
C3687 C3688 1.389 . S
C3688 C3687 1.389 . S
C3688 C3689 1.387 . S
C3689 H3674 0.930 . S
C3689 C3684 1.390 . S
C3689 C3688 1.387 . S
H3690 C3702 0.930 . S
H3691 C3704 0.930 . S
H3692 C3705 0.930 . S
H3693 C3709 0.959 . S
H3694 C3709 0.959 . S
H3695 C3709 0.961 . S
H3696 C3710 0.960 . S
H3697 C3710 0.961 . S
H3698 C3710 0.959 . S
H3699 C3713 0.929 . S
H3700 C3714 0.931 . S
H3701 C3716 0.930 . S
C3702 H3690 0.930 . S
C3702 C3703 1.399 . S
C3702 C3707 1.399 . S
C3703 C3702 1.399 . S
C3703 C3704 1.376 . S
C3704 H3691 0.930 . S
C3704 C3703 1.376 . S
C3704 C3705 1.388 . S
C3705 H3692 0.930 . S
C3705 C3704 1.388 . S
C3705 C3706 1.390 . S
C3706 C3705 1.390 . S
C3706 C3707 1.394 . S
C3706 C3712 1.465 . S
C3707 C3702 1.399 . S
C3707 C3706 1.394 . S
C3707 C3708 1.516 . S
C3708 C3707 1.516 . S
C3708 C3709 1.502 . S
C3708 C3710 1.561 . S
C3708 C3711 1.526 . S
C3709 H3693 0.959 . S
C3709 H3694 0.959 . S
C3709 H3695 0.961 . S
C3709 C3708 1.502 . S
C3710 H3696 0.960 . S
C3710 H3697 0.961 . S
C3710 H3698 0.959 . S
C3710 C3708 1.561 . S
C3711 C3708 1.526 . S
C3711 C3712 1.396 . S
C3711 C3716 1.390 . S
C3712 C3706 1.465 . S
C3712 C3711 1.396 . S
C3712 C3713 1.399 . S
C3713 H3699 0.929 . S
C3713 C3712 1.399 . S
C3713 C3714 1.385 . S
C3714 H3700 0.931 . S
C3714 C3713 1.385 . S
C3714 C3715 1.389 . S
C3715 C3714 1.389 . S
C3715 C3716 1.387 . S
C3716 H3701 0.930 . S
C3716 C3711 1.390 . S
C3716 C3715 1.387 . S
H3717 C3729 0.930 . S
H3718 C3731 0.930 . S
H3719 C3732 0.930 . S
H3720 C3736 0.959 . S
H3721 C3736 0.959 . S
H3722 C3736 0.961 . S
H3723 C3737 0.960 . S
H3724 C3737 0.961 . S
H3725 C3737 0.959 . S
H3726 C3740 0.929 . S
H3727 C3741 0.931 . S
H3728 C3743 0.930 . S
C3729 H3717 0.930 . S
C3729 C3730 1.399 . S
C3729 C3734 1.399 . S
C3730 C3729 1.399 . S
C3730 C3731 1.376 . S
C3731 H3718 0.930 . S
C3731 C3730 1.376 . S
C3731 C3732 1.388 . S
C3732 H3719 0.930 . S
C3732 C3731 1.388 . S
C3732 C3733 1.390 . S
C3733 C3732 1.390 . S
C3733 C3734 1.394 . S
C3733 C3739 1.465 . S
C3734 C3729 1.399 . S
C3734 C3733 1.394 . S
C3734 C3735 1.516 . S
C3735 C3734 1.516 . S
C3735 C3736 1.502 . S
C3735 C3737 1.561 . S
C3735 C3738 1.526 . S
C3736 H3720 0.959 . S
C3736 H3721 0.959 . S
C3736 H3722 0.961 . S
C3736 C3735 1.502 . S
C3737 H3723 0.960 . S
C3737 H3724 0.961 . S
C3737 H3725 0.959 . S
C3737 C3735 1.561 . S
C3738 C3735 1.526 . S
C3738 C3739 1.396 . S
C3738 C3743 1.390 . S
C3739 C3733 1.465 . S
C3739 C3738 1.396 . S
C3739 C3740 1.399 . S
C3740 H3726 0.929 . S
C3740 C3739 1.399 . S
C3740 C3741 1.385 . S
C3741 H3727 0.931 . S
C3741 C3740 1.385 . S
C3741 C3742 1.389 . S
C3742 C3741 1.389 . S
C3742 C3743 1.387 . S
C3743 H3728 0.930 . S
C3743 C3738 1.390 . S
C3743 C3742 1.387 . S
H3744 C3756 0.930 . S
H3745 C3758 0.930 . S
H3746 C3759 0.930 . S
H3747 C3763 0.959 . S
H3748 C3763 0.959 . S
H3749 C3763 0.961 . S
H3750 C3764 0.960 . S
H3751 C3764 0.961 . S
H3752 C3764 0.959 . S
H3753 C3767 0.929 . S
H3754 C3768 0.931 . S
H3755 C3770 0.930 . S
C3756 H3744 0.930 . S
C3756 C3757 1.399 . S
C3756 C3761 1.399 . S
C3757 C3756 1.399 . S
C3757 C3758 1.376 . S
C3758 H3745 0.930 . S
C3758 C3757 1.376 . S
C3758 C3759 1.388 . S
C3759 H3746 0.930 . S
C3759 C3758 1.388 . S
C3759 C3760 1.390 . S
C3760 C3759 1.390 . S
C3760 C3761 1.394 . S
C3760 C3766 1.465 . S
C3761 C3756 1.399 . S
C3761 C3760 1.394 . S
C3761 C3762 1.516 . S
C3762 C3761 1.516 . S
C3762 C3763 1.502 . S
C3762 C3764 1.561 . S
C3762 C3765 1.526 . S
C3763 H3747 0.959 . S
C3763 H3748 0.959 . S
C3763 H3749 0.961 . S
C3763 C3762 1.502 . S
C3764 H3750 0.960 . S
C3764 H3751 0.961 . S
C3764 H3752 0.959 . S
C3764 C3762 1.561 . S
C3765 C3762 1.526 . S
C3765 C3766 1.396 . S
C3765 C3770 1.390 . S
C3766 C3760 1.465 . S
C3766 C3765 1.396 . S
C3766 C3767 1.399 . S
C3767 H3753 0.929 . S
C3767 C3766 1.399 . S
C3767 C3768 1.385 . S
C3768 H3754 0.931 . S
C3768 C3767 1.385 . S
C3768 C3769 1.389 . S
C3769 C3768 1.389 . S
C3769 C3770 1.387 . S
C3770 H3755 0.930 . S
C3770 C3765 1.390 . S
C3770 C3769 1.387 . S
H3771 C3783 0.930 . S
H3772 C3785 0.930 . S
H3773 C3786 0.930 . S
H3774 C3790 0.959 . S
H3775 C3790 0.959 . S
H3776 C3790 0.961 . S
H3777 C3791 0.960 . S
H3778 C3791 0.961 . S
H3779 C3791 0.959 . S
H3780 C3794 0.929 . S
H3781 C3795 0.931 . S
H3782 C3797 0.930 . S
C3783 H3771 0.930 . S
C3783 C3784 1.399 . S
C3783 C3788 1.399 . S
C3784 C3783 1.399 . S
C3784 C3785 1.376 . S
C3785 H3772 0.930 . S
C3785 C3784 1.376 . S
C3785 C3786 1.388 . S
C3786 H3773 0.930 . S
C3786 C3785 1.388 . S
C3786 C3787 1.390 . S
C3787 C3786 1.390 . S
C3787 C3788 1.394 . S
C3787 C3793 1.465 . S
C3788 C3783 1.399 . S
C3788 C3787 1.394 . S
C3788 C3789 1.516 . S
C3789 C3788 1.516 . S
C3789 C3790 1.502 . S
C3789 C3791 1.561 . S
C3789 C3792 1.526 . S
C3790 H3774 0.959 . S
C3790 H3775 0.959 . S
C3790 H3776 0.961 . S
C3790 C3789 1.502 . S
C3791 H3777 0.960 . S
C3791 H3778 0.961 . S
C3791 H3779 0.959 . S
C3791 C3789 1.561 . S
C3792 C3789 1.526 . S
C3792 C3793 1.396 . S
C3792 C3797 1.390 . S
C3793 C3787 1.465 . S
C3793 C3792 1.396 . S
C3793 C3794 1.399 . S
C3794 H3780 0.929 . S
C3794 C3793 1.399 . S
C3794 C3795 1.385 . S
C3795 H3781 0.931 . S
C3795 C3794 1.385 . S
C3795 C3796 1.389 . S
C3796 C3795 1.389 . S
C3796 C3797 1.387 . S
C3797 H3782 0.930 . S
C3797 C3792 1.390 . S
C3797 C3796 1.387 . S
H3798 C3810 0.930 . S
H3799 C3812 0.930 . S
H3800 C3813 0.930 . S
H3801 C3817 0.959 . S
H3802 C3817 0.959 . S
H3803 C3817 0.961 . S
H3804 C3818 0.960 . S
H3805 C3818 0.961 . S
H3806 C3818 0.959 . S
H3807 C3821 0.929 . S
H3808 C3822 0.931 . S
H3809 C3824 0.930 . S
C3810 H3798 0.930 . S
C3810 C3811 1.399 . S
C3810 C3815 1.399 . S
C3811 C3810 1.399 . S
C3811 C3812 1.376 . S
C3812 H3799 0.930 . S
C3812 C3811 1.376 . S
C3812 C3813 1.388 . S
C3813 H3800 0.930 . S
C3813 C3812 1.388 . S
C3813 C3814 1.390 . S
C3814 C3813 1.390 . S
C3814 C3815 1.394 . S
C3814 C3820 1.465 . S
C3815 C3810 1.399 . S
C3815 C3814 1.394 . S
C3815 C3816 1.516 . S
C3816 C3815 1.516 . S
C3816 C3817 1.502 . S
C3816 C3818 1.561 . S
C3816 C3819 1.526 . S
C3817 H3801 0.959 . S
C3817 H3802 0.959 . S
C3817 H3803 0.961 . S
C3817 C3816 1.502 . S
C3818 H3804 0.960 . S
C3818 H3805 0.961 . S
C3818 H3806 0.959 . S
C3818 C3816 1.561 . S
C3819 C3816 1.526 . S
C3819 C3820 1.396 . S
C3819 C3824 1.390 . S
C3820 C3814 1.465 . S
C3820 C3819 1.396 . S
C3820 C3821 1.399 . S
C3821 H3807 0.929 . S
C3821 C3820 1.399 . S
C3821 C3822 1.385 . S
C3822 H3808 0.931 . S
C3822 C3821 1.385 . S
C3822 C3823 1.389 . S
C3823 C3822 1.389 . S
C3823 C3824 1.387 . S
C3824 H3809 0.930 . S
C3824 C3819 1.390 . S
C3824 C3823 1.387 . S
H3825 C3837 0.930 . S
H3826 C3839 0.930 . S
H3827 C3840 0.930 . S
H3828 C3844 0.959 . S
H3829 C3844 0.959 . S
H3830 C3844 0.961 . S
H3831 C3845 0.960 . S
H3832 C3845 0.961 . S
H3833 C3845 0.959 . S
H3834 C3848 0.929 . S
H3835 C3849 0.931 . S
H3836 C3851 0.930 . S
C3837 H3825 0.930 . S
C3837 C3838 1.399 . S
C3837 C3842 1.399 . S
C3838 C3837 1.399 . S
C3838 C3839 1.376 . S
C3839 H3826 0.930 . S
C3839 C3838 1.376 . S
C3839 C3840 1.388 . S
C3840 H3827 0.930 . S
C3840 C3839 1.388 . S
C3840 C3841 1.390 . S
C3841 C3840 1.390 . S
C3841 C3842 1.394 . S
C3841 C3847 1.465 . S
C3842 C3837 1.399 . S
C3842 C3841 1.394 . S
C3842 C3843 1.516 . S
C3843 C3842 1.516 . S
C3843 C3844 1.502 . S
C3843 C3845 1.561 . S
C3843 C3846 1.526 . S
C3844 H3828 0.959 . S
C3844 H3829 0.959 . S
C3844 H3830 0.961 . S
C3844 C3843 1.502 . S
C3845 H3831 0.960 . S
C3845 H3832 0.961 . S
C3845 H3833 0.959 . S
C3845 C3843 1.561 . S
C3846 C3843 1.526 . S
C3846 C3847 1.396 . S
C3846 C3851 1.390 . S
C3847 C3841 1.465 . S
C3847 C3846 1.396 . S
C3847 C3848 1.399 . S
C3848 H3834 0.929 . S
C3848 C3847 1.399 . S
C3848 C3849 1.385 . S
C3849 H3835 0.931 . S
C3849 C3848 1.385 . S
C3849 C3850 1.389 . S
C3850 C3849 1.389 . S
C3850 C3851 1.387 . S
C3851 H3836 0.930 . S
C3851 C3846 1.390 . S
C3851 C3850 1.387 . S
H3852 C3864 0.930 . S
H3853 C3866 0.930 . S
H3854 C3867 0.930 . S
H3855 C3871 0.959 . S
H3856 C3871 0.959 . S
H3857 C3871 0.961 . S
H3858 C3872 0.960 . S
H3859 C3872 0.961 . S
H3860 C3872 0.959 . S
H3861 C3875 0.929 . S
H3862 C3876 0.931 . S
H3863 C3878 0.930 . S
C3864 H3852 0.930 . S
C3864 C3865 1.399 . S
C3864 C3869 1.399 . S
C3865 C3864 1.399 . S
C3865 C3866 1.376 . S
C3866 H3853 0.930 . S
C3866 C3865 1.376 . S
C3866 C3867 1.388 . S
C3867 H3854 0.930 . S
C3867 C3866 1.388 . S
C3867 C3868 1.390 . S
C3868 C3867 1.390 . S
C3868 C3869 1.394 . S
C3868 C3874 1.465 . S
C3869 C3864 1.399 . S
C3869 C3868 1.394 . S
C3869 C3870 1.516 . S
C3870 C3869 1.516 . S
C3870 C3871 1.502 . S
C3870 C3872 1.561 . S
C3870 C3873 1.526 . S
C3871 H3855 0.959 . S
C3871 H3856 0.959 . S
C3871 H3857 0.961 . S
C3871 C3870 1.502 . S
C3872 H3858 0.960 . S
C3872 H3859 0.961 . S
C3872 H3860 0.959 . S
C3872 C3870 1.561 . S
C3873 C3870 1.526 . S
C3873 C3874 1.396 . S
C3873 C3878 1.390 . S
C3874 C3868 1.465 . S
C3874 C3873 1.396 . S
C3874 C3875 1.399 . S
C3875 H3861 0.929 . S
C3875 C3874 1.399 . S
C3875 C3876 1.385 . S
C3876 H3862 0.931 . S
C3876 C3875 1.385 . S
C3876 C3877 1.389 . S
C3877 C3876 1.389 . S
C3877 C3878 1.387 . S
C3878 H3863 0.930 . S
C3878 C3873 1.390 . S
C3878 C3877 1.387 . S
H3879 C3891 0.930 . S
H3880 C3893 0.930 . S
H3881 C3894 0.930 . S
H3882 C3898 0.959 . S
H3883 C3898 0.959 . S
H3884 C3898 0.961 . S
H3885 C3899 0.960 . S
H3886 C3899 0.961 . S
H3887 C3899 0.959 . S
H3888 C3902 0.929 . S
H3889 C3903 0.931 . S
H3890 C3905 0.930 . S
C3891 H3879 0.930 . S
C3891 C3892 1.399 . S
C3891 C3896 1.399 . S
C3892 C3891 1.399 . S
C3892 C3893 1.376 . S
C3893 H3880 0.930 . S
C3893 C3892 1.376 . S
C3893 C3894 1.388 . S
C3894 H3881 0.930 . S
C3894 C3893 1.388 . S
C3894 C3895 1.390 . S
C3895 C3894 1.390 . S
C3895 C3896 1.394 . S
C3895 C3901 1.465 . S
C3896 C3891 1.399 . S
C3896 C3895 1.394 . S
C3896 C3897 1.516 . S
C3897 C3896 1.516 . S
C3897 C3898 1.502 . S
C3897 C3899 1.561 . S
C3897 C3900 1.526 . S
C3898 H3882 0.959 . S
C3898 H3883 0.959 . S
C3898 H3884 0.961 . S
C3898 C3897 1.502 . S
C3899 H3885 0.960 . S
C3899 H3886 0.961 . S
C3899 H3887 0.959 . S
C3899 C3897 1.561 . S
C3900 C3897 1.526 . S
C3900 C3901 1.396 . S
C3900 C3905 1.390 . S
C3901 C3895 1.465 . S
C3901 C3900 1.396 . S
C3901 C3902 1.399 . S
C3902 H3888 0.929 . S
C3902 C3901 1.399 . S
C3902 C3903 1.385 . S
C3903 H3889 0.931 . S
C3903 C3902 1.385 . S
C3903 C3904 1.389 . S
C3904 C3903 1.389 . S
C3904 C3905 1.387 . S
C3905 H3890 0.930 . S
C3905 C3900 1.390 . S
C3905 C3904 1.387 . S
H3906 C3918 0.930 . S
H3907 C3920 0.930 . S
H3908 C3921 0.930 . S
H3909 C3925 0.959 . S
H3910 C3925 0.959 . S
H3911 C3925 0.961 . S
H3912 C3926 0.960 . S
H3913 C3926 0.961 . S
H3914 C3926 0.959 . S
H3915 C3929 0.929 . S
H3916 C3930 0.931 . S
H3917 C3932 0.930 . S
C3918 H3906 0.930 . S
C3918 C3919 1.399 . S
C3918 C3923 1.399 . S
C3919 C3918 1.399 . S
C3919 C3920 1.376 . S
C3920 H3907 0.930 . S
C3920 C3919 1.376 . S
C3920 C3921 1.388 . S
C3921 H3908 0.930 . S
C3921 C3920 1.388 . S
C3921 C3922 1.390 . S
C3922 C3921 1.390 . S
C3922 C3923 1.394 . S
C3922 C3928 1.465 . S
C3923 C3918 1.399 . S
C3923 C3922 1.394 . S
C3923 C3924 1.516 . S
C3924 C3923 1.516 . S
C3924 C3925 1.502 . S
C3924 C3926 1.561 . S
C3924 C3927 1.526 . S
C3925 H3909 0.959 . S
C3925 H3910 0.959 . S
C3925 H3911 0.961 . S
C3925 C3924 1.502 . S
C3926 H3912 0.960 . S
C3926 H3913 0.961 . S
C3926 H3914 0.959 . S
C3926 C3924 1.561 . S
C3927 C3924 1.526 . S
C3927 C3928 1.396 . S
C3927 C3932 1.390 . S
C3928 C3922 1.465 . S
C3928 C3927 1.396 . S
C3928 C3929 1.399 . S
C3929 H3915 0.929 . S
C3929 C3928 1.399 . S
C3929 C3930 1.385 . S
C3930 H3916 0.931 . S
C3930 C3929 1.385 . S
C3930 C3931 1.389 . S
C3931 C3930 1.389 . S
C3931 C3932 1.387 . S
C3932 H3917 0.930 . S
C3932 C3927 1.390 . S
C3932 C3931 1.387 . S
H3933 C3945 0.930 . S
H3934 C3947 0.930 . S
H3935 C3948 0.930 . S
H3936 C3952 0.959 . S
H3937 C3952 0.959 . S
H3938 C3952 0.961 . S
H3939 C3953 0.960 . S
H3940 C3953 0.961 . S
H3941 C3953 0.959 . S
H3942 C3956 0.929 . S
H3943 C3957 0.931 . S
H3944 C3959 0.930 . S
C3945 H3933 0.930 . S
C3945 C3946 1.399 . S
C3945 C3950 1.399 . S
C3946 C3945 1.399 . S
C3946 C3947 1.376 . S
C3947 H3934 0.930 . S
C3947 C3946 1.376 . S
C3947 C3948 1.388 . S
C3948 H3935 0.930 . S
C3948 C3947 1.388 . S
C3948 C3949 1.390 . S
C3949 C3948 1.390 . S
C3949 C3950 1.394 . S
C3949 C3955 1.465 . S
C3950 C3945 1.399 . S
C3950 C3949 1.394 . S
C3950 C3951 1.516 . S
C3951 C3950 1.516 . S
C3951 C3952 1.502 . S
C3951 C3953 1.561 . S
C3951 C3954 1.526 . S
C3952 H3936 0.959 . S
C3952 H3937 0.959 . S
C3952 H3938 0.961 . S
C3952 C3951 1.502 . S
C3953 H3939 0.960 . S
C3953 H3940 0.961 . S
C3953 H3941 0.959 . S
C3953 C3951 1.561 . S
C3954 C3951 1.526 . S
C3954 C3955 1.396 . S
C3954 C3959 1.390 . S
C3955 C3949 1.465 . S
C3955 C3954 1.396 . S
C3955 C3956 1.399 . S
C3956 H3942 0.929 . S
C3956 C3955 1.399 . S
C3956 C3957 1.385 . S
C3957 H3943 0.931 . S
C3957 C3956 1.385 . S
C3957 C3958 1.389 . S
C3958 C3957 1.389 . S
C3958 C3959 1.387 . S
C3959 H3944 0.930 . S
C3959 C3954 1.390 . S
C3959 C3958 1.387 . S
H3960 C3972 0.930 . S
H3961 C3974 0.930 . S
H3962 C3975 0.930 . S
H3963 C3979 0.959 . S
H3964 C3979 0.959 . S
H3965 C3979 0.961 . S
H3966 C3980 0.960 . S
H3967 C3980 0.961 . S
H3968 C3980 0.959 . S
H3969 C3983 0.929 . S
H3970 C3984 0.931 . S
H3971 C3986 0.930 . S
C3972 H3960 0.930 . S
C3972 C3973 1.399 . S
C3972 C3977 1.399 . S
C3973 C3972 1.399 . S
C3973 C3974 1.376 . S
C3974 H3961 0.930 . S
C3974 C3973 1.376 . S
C3974 C3975 1.388 . S
C3975 H3962 0.930 . S
C3975 C3974 1.388 . S
C3975 C3976 1.390 . S
C3976 C3975 1.390 . S
C3976 C3977 1.394 . S
C3976 C3982 1.465 . S
C3977 C3972 1.399 . S
C3977 C3976 1.394 . S
C3977 C3978 1.516 . S
C3978 C3977 1.516 . S
C3978 C3979 1.502 . S
C3978 C3980 1.561 . S
C3978 C3981 1.526 . S
C3979 H3963 0.959 . S
C3979 H3964 0.959 . S
C3979 H3965 0.961 . S
C3979 C3978 1.502 . S
C3980 H3966 0.960 . S
C3980 H3967 0.961 . S
C3980 H3968 0.959 . S
C3980 C3978 1.561 . S
C3981 C3978 1.526 . S
C3981 C3982 1.396 . S
C3981 C3986 1.390 . S
C3982 C3976 1.465 . S
C3982 C3981 1.396 . S
C3982 C3983 1.399 . S
C3983 H3969 0.929 . S
C3983 C3982 1.399 . S
C3983 C3984 1.385 . S
C3984 H3970 0.931 . S
C3984 C3983 1.385 . S
C3984 C3985 1.389 . S
C3985 C3984 1.389 . S
C3985 C3986 1.387 . S
C3986 H3971 0.930 . S
C3986 C3981 1.390 . S
C3986 C3985 1.387 . S
H3987 C3999 0.930 . S
H3988 C4001 0.930 . S
H3989 C4002 0.930 . S
H3990 C4006 0.959 . S
H3991 C4006 0.959 . S
H3992 C4006 0.961 . S
H3993 C4007 0.960 . S
H3994 C4007 0.961 . S
H3995 C4007 0.959 . S
H3996 C4010 0.929 . S
H3997 C4011 0.931 . S
H3998 C4013 0.930 . S
C3999 H3987 0.930 . S
C3999 C4000 1.399 . S
C3999 C4004 1.399 . S
C4000 C3999 1.399 . S
C4000 C4001 1.376 . S
C4001 H3988 0.930 . S
C4001 C4000 1.376 . S
C4001 C4002 1.388 . S
C4002 H3989 0.930 . S
C4002 C4001 1.388 . S
C4002 C4003 1.390 . S
C4003 C4002 1.390 . S
C4003 C4004 1.394 . S
C4003 C4009 1.465 . S
C4004 C3999 1.399 . S
C4004 C4003 1.394 . S
C4004 C4005 1.516 . S
C4005 C4004 1.516 . S
C4005 C4006 1.502 . S
C4005 C4007 1.561 . S
C4005 C4008 1.526 . S
C4006 H3990 0.959 . S
C4006 H3991 0.959 . S
C4006 H3992 0.961 . S
C4006 C4005 1.502 . S
C4007 H3993 0.960 . S
C4007 H3994 0.961 . S
C4007 H3995 0.959 . S
C4007 C4005 1.561 . S
C4008 C4005 1.526 . S
C4008 C4009 1.396 . S
C4008 C4013 1.390 . S
C4009 C4003 1.465 . S
C4009 C4008 1.396 . S
C4009 C4010 1.399 . S
C4010 H3996 0.929 . S
C4010 C4009 1.399 . S
C4010 C4011 1.385 . S
C4011 H3997 0.931 . S
C4011 C4010 1.385 . S
C4011 C4012 1.389 . S
C4012 C4011 1.389 . S
C4012 C4013 1.387 . S
C4013 H3998 0.930 . S
C4013 C4008 1.390 . S
C4013 C4012 1.387 . S
H4014 C4026 0.930 . S
H4015 C4028 0.930 . S
H4016 C4029 0.930 . S
H4017 C4033 0.959 . S
H4018 C4033 0.959 . S
H4019 C4033 0.961 . S
H4020 C4034 0.960 . S
H4021 C4034 0.961 . S
H4022 C4034 0.959 . S
H4023 C4037 0.929 . S
H4024 C4038 0.931 . S
H4025 C4040 0.930 . S
C4026 H4014 0.930 . S
C4026 C4027 1.399 . S
C4026 C4031 1.399 . S
C4027 C4026 1.399 . S
C4027 C4028 1.376 . S
C4028 H4015 0.930 . S
C4028 C4027 1.376 . S
C4028 C4029 1.388 . S
C4029 H4016 0.930 . S
C4029 C4028 1.388 . S
C4029 C4030 1.390 . S
C4030 C4029 1.390 . S
C4030 C4031 1.394 . S
C4030 C4036 1.465 . S
C4031 C4026 1.399 . S
C4031 C4030 1.394 . S
C4031 C4032 1.516 . S
C4032 C4031 1.516 . S
C4032 C4033 1.502 . S
C4032 C4034 1.561 . S
C4032 C4035 1.526 . S
C4033 H4017 0.959 . S
C4033 H4018 0.959 . S
C4033 H4019 0.961 . S
C4033 C4032 1.502 . S
C4034 H4020 0.960 . S
C4034 H4021 0.961 . S
C4034 H4022 0.959 . S
C4034 C4032 1.561 . S
C4035 C4032 1.526 . S
C4035 C4036 1.396 . S
C4035 C4040 1.390 . S
C4036 C4030 1.465 . S
C4036 C4035 1.396 . S
C4036 C4037 1.399 . S
C4037 H4023 0.929 . S
C4037 C4036 1.399 . S
C4037 C4038 1.385 . S
C4038 H4024 0.931 . S
C4038 C4037 1.385 . S
C4038 C4039 1.389 . S
C4039 C4038 1.389 . S
C4039 C4040 1.387 . S
C4040 H4025 0.930 . S
C4040 C4035 1.390 . S
C4040 C4039 1.387 . S
H4041 C4053 0.930 . S
H4042 C4055 0.930 . S
H4043 C4056 0.930 . S
H4044 C4060 0.959 . S
H4045 C4060 0.959 . S
H4046 C4060 0.961 . S
H4047 C4061 0.960 . S
H4048 C4061 0.961 . S
H4049 C4061 0.959 . S
H4050 C4064 0.929 . S
H4051 C4065 0.931 . S
H4052 C4067 0.930 . S
C4053 H4041 0.930 . S
C4053 C4054 1.399 . S
C4053 C4058 1.399 . S
C4054 C4053 1.399 . S
C4054 C4055 1.376 . S
C4055 H4042 0.930 . S
C4055 C4054 1.376 . S
C4055 C4056 1.388 . S
C4056 H4043 0.930 . S
C4056 C4055 1.388 . S
C4056 C4057 1.390 . S
C4057 C4056 1.390 . S
C4057 C4058 1.394 . S
C4057 C4063 1.465 . S
C4058 C4053 1.399 . S
C4058 C4057 1.394 . S
C4058 C4059 1.516 . S
C4059 C4058 1.516 . S
C4059 C4060 1.502 . S
C4059 C4061 1.561 . S
C4059 C4062 1.526 . S
C4060 H4044 0.959 . S
C4060 H4045 0.959 . S
C4060 H4046 0.961 . S
C4060 C4059 1.502 . S
C4061 H4047 0.960 . S
C4061 H4048 0.961 . S
C4061 H4049 0.959 . S
C4061 C4059 1.561 . S
C4062 C4059 1.526 . S
C4062 C4063 1.396 . S
C4062 C4067 1.390 . S
C4063 C4057 1.465 . S
C4063 C4062 1.396 . S
C4063 C4064 1.399 . S
C4064 H4050 0.929 . S
C4064 C4063 1.399 . S
C4064 C4065 1.385 . S
C4065 H4051 0.931 . S
C4065 C4064 1.385 . S
C4065 C4066 1.389 . S
C4066 C4065 1.389 . S
C4066 C4067 1.387 . S
C4067 H4052 0.930 . S
C4067 C4062 1.390 . S
C4067 C4066 1.387 . S
H4068 C4080 0.930 . S
H4069 C4082 0.930 . S
H4070 C4083 0.930 . S
H4071 C4087 0.959 . S
H4072 C4087 0.959 . S
H4073 C4087 0.961 . S
H4074 C4088 0.960 . S
H4075 C4088 0.961 . S
H4076 C4088 0.959 . S
H4077 C4091 0.929 . S
H4078 C4092 0.931 . S
H4079 C4094 0.930 . S
C4080 H4068 0.930 . S
C4080 C4081 1.399 . S
C4080 C4085 1.399 . S
C4081 C4080 1.399 . S
C4081 C4082 1.376 . S
C4082 H4069 0.930 . S
C4082 C4081 1.376 . S
C4082 C4083 1.388 . S
C4083 H4070 0.930 . S
C4083 C4082 1.388 . S
C4083 C4084 1.390 . S
C4084 C4083 1.390 . S
C4084 C4085 1.394 . S
C4084 C4090 1.465 . S
C4085 C4080 1.399 . S
C4085 C4084 1.394 . S
C4085 C4086 1.516 . S
C4086 C4085 1.516 . S
C4086 C4087 1.502 . S
C4086 C4088 1.561 . S
C4086 C4089 1.526 . S
C4087 H4071 0.959 . S
C4087 H4072 0.959 . S
C4087 H4073 0.961 . S
C4087 C4086 1.502 . S
C4088 H4074 0.960 . S
C4088 H4075 0.961 . S
C4088 H4076 0.959 . S
C4088 C4086 1.561 . S
C4089 C4086 1.526 . S
C4089 C4090 1.396 . S
C4089 C4094 1.390 . S
C4090 C4084 1.465 . S
C4090 C4089 1.396 . S
C4090 C4091 1.399 . S
C4091 H4077 0.929 . S
C4091 C4090 1.399 . S
C4091 C4092 1.385 . S
C4092 H4078 0.931 . S
C4092 C4091 1.385 . S
C4092 C4093 1.389 . S
C4093 C4092 1.389 . S
C4093 C4094 1.387 . S
C4094 H4079 0.930 . S
C4094 C4089 1.390 . S
C4094 C4093 1.387 . S
H4095 C4107 0.930 . S
H4096 C4109 0.930 . S
H4097 C4110 0.930 . S
H4098 C4114 0.959 . S
H4099 C4114 0.959 . S
H4100 C4114 0.961 . S
H4101 C4115 0.960 . S
H4102 C4115 0.961 . S
H4103 C4115 0.959 . S
H4104 C4118 0.929 . S
H4105 C4119 0.931 . S
H4106 C4121 0.930 . S
C4107 H4095 0.930 . S
C4107 C4108 1.399 . S
C4107 C4112 1.399 . S
C4108 C4107 1.399 . S
C4108 C4109 1.376 . S
C4109 H4096 0.930 . S
C4109 C4108 1.376 . S
C4109 C4110 1.388 . S
C4110 H4097 0.930 . S
C4110 C4109 1.388 . S
C4110 C4111 1.390 . S
C4111 C4110 1.390 . S
C4111 C4112 1.394 . S
C4111 C4117 1.465 . S
C4112 C4107 1.399 . S
C4112 C4111 1.394 . S
C4112 C4113 1.516 . S
C4113 C4112 1.516 . S
C4113 C4114 1.502 . S
C4113 C4115 1.561 . S
C4113 C4116 1.526 . S
C4114 H4098 0.959 . S
C4114 H4099 0.959 . S
C4114 H4100 0.961 . S
C4114 C4113 1.502 . S
C4115 H4101 0.960 . S
C4115 H4102 0.961 . S
C4115 H4103 0.959 . S
C4115 C4113 1.561 . S
C4116 C4113 1.526 . S
C4116 C4117 1.396 . S
C4116 C4121 1.390 . S
C4117 C4111 1.465 . S
C4117 C4116 1.396 . S
C4117 C4118 1.399 . S
C4118 H4104 0.929 . S
C4118 C4117 1.399 . S
C4118 C4119 1.385 . S
C4119 H4105 0.931 . S
C4119 C4118 1.385 . S
C4119 C4120 1.389 . S
C4120 C4119 1.389 . S
C4120 C4121 1.387 . S
C4121 H4106 0.930 . S
C4121 C4116 1.390 . S
C4121 C4120 1.387 . S
H4122 C4134 0.930 . S
H4123 C4136 0.930 . S
H4124 C4137 0.930 . S
H4125 C4141 0.959 . S
H4126 C4141 0.959 . S
H4127 C4141 0.961 . S
H4128 C4142 0.960 . S
H4129 C4142 0.961 . S
H4130 C4142 0.959 . S
H4131 C4145 0.929 . S
H4132 C4146 0.931 . S
H4133 C4148 0.930 . S
C4134 H4122 0.930 . S
C4134 C4135 1.399 . S
C4134 C4139 1.399 . S
C4135 C4134 1.399 . S
C4135 C4136 1.376 . S
C4136 H4123 0.930 . S
C4136 C4135 1.376 . S
C4136 C4137 1.388 . S
C4137 H4124 0.930 . S
C4137 C4136 1.388 . S
C4137 C4138 1.390 . S
C4138 C4137 1.390 . S
C4138 C4139 1.394 . S
C4138 C4144 1.465 . S
C4139 C4134 1.399 . S
C4139 C4138 1.394 . S
C4139 C4140 1.516 . S
C4140 C4139 1.516 . S
C4140 C4141 1.502 . S
C4140 C4142 1.561 . S
C4140 C4143 1.526 . S
C4141 H4125 0.959 . S
C4141 H4126 0.959 . S
C4141 H4127 0.961 . S
C4141 C4140 1.502 . S
C4142 H4128 0.960 . S
C4142 H4129 0.961 . S
C4142 H4130 0.959 . S
C4142 C4140 1.561 . S
C4143 C4140 1.526 . S
C4143 C4144 1.396 . S
C4143 C4148 1.390 . S
C4144 C4138 1.465 . S
C4144 C4143 1.396 . S
C4144 C4145 1.399 . S
C4145 H4131 0.929 . S
C4145 C4144 1.399 . S
C4145 C4146 1.385 . S
C4146 H4132 0.931 . S
C4146 C4145 1.385 . S
C4146 C4147 1.389 . S
C4147 C4146 1.389 . S
C4147 C4148 1.387 . S
C4148 H4133 0.930 . S
C4148 C4143 1.390 . S
C4148 C4147 1.387 . S
H4149 C4161 0.930 . S
H4150 C4163 0.930 . S
H4151 C4164 0.930 . S
H4152 C4168 0.959 . S
H4153 C4168 0.959 . S
H4154 C4168 0.961 . S
H4155 C4169 0.960 . S
H4156 C4169 0.961 . S
H4157 C4169 0.959 . S
H4158 C4172 0.929 . S
H4159 C4173 0.931 . S
H4160 C4175 0.930 . S
C4161 H4149 0.930 . S
C4161 C4162 1.399 . S
C4161 C4166 1.399 . S
C4162 C4161 1.399 . S
C4162 C4163 1.376 . S
C4163 H4150 0.930 . S
C4163 C4162 1.376 . S
C4163 C4164 1.388 . S
C4164 H4151 0.930 . S
C4164 C4163 1.388 . S
C4164 C4165 1.390 . S
C4165 C4164 1.390 . S
C4165 C4166 1.394 . S
C4165 C4171 1.465 . S
C4166 C4161 1.399 . S
C4166 C4165 1.394 . S
C4166 C4167 1.516 . S
C4167 C4166 1.516 . S
C4167 C4168 1.502 . S
C4167 C4169 1.561 . S
C4167 C4170 1.526 . S
C4168 H4152 0.959 . S
C4168 H4153 0.959 . S
C4168 H4154 0.961 . S
C4168 C4167 1.502 . S
C4169 H4155 0.960 . S
C4169 H4156 0.961 . S
C4169 H4157 0.959 . S
C4169 C4167 1.561 . S
C4170 C4167 1.526 . S
C4170 C4171 1.396 . S
C4170 C4175 1.390 . S
C4171 C4165 1.465 . S
C4171 C4170 1.396 . S
C4171 C4172 1.399 . S
C4172 H4158 0.929 . S
C4172 C4171 1.399 . S
C4172 C4173 1.385 . S
C4173 H4159 0.931 . S
C4173 C4172 1.385 . S
C4173 C4174 1.389 . S
C4174 C4173 1.389 . S
C4174 C4175 1.387 . S
C4175 H4160 0.930 . S
C4175 C4170 1.390 . S
C4175 C4174 1.387 . S
H4176 C4188 0.930 . S
H4177 C4190 0.930 . S
H4178 C4191 0.930 . S
H4179 C4195 0.959 . S
H4180 C4195 0.959 . S
H4181 C4195 0.961 . S
H4182 C4196 0.960 . S
H4183 C4196 0.961 . S
H4184 C4196 0.959 . S
H4185 C4199 0.929 . S
H4186 C4200 0.931 . S
H4187 C4202 0.930 . S
C4188 H4176 0.930 . S
C4188 C4189 1.399 . S
C4188 C4193 1.399 . S
C4189 C4188 1.399 . S
C4189 C4190 1.376 . S
C4190 H4177 0.930 . S
C4190 C4189 1.376 . S
C4190 C4191 1.388 . S
C4191 H4178 0.930 . S
C4191 C4190 1.388 . S
C4191 C4192 1.390 . S
C4192 C4191 1.390 . S
C4192 C4193 1.394 . S
C4192 C4198 1.465 . S
C4193 C4188 1.399 . S
C4193 C4192 1.394 . S
C4193 C4194 1.516 . S
C4194 C4193 1.516 . S
C4194 C4195 1.502 . S
C4194 C4196 1.561 . S
C4194 C4197 1.526 . S
C4195 H4179 0.959 . S
C4195 H4180 0.959 . S
C4195 H4181 0.961 . S
C4195 C4194 1.502 . S
C4196 H4182 0.960 . S
C4196 H4183 0.961 . S
C4196 H4184 0.959 . S
C4196 C4194 1.561 . S
C4197 C4194 1.526 . S
C4197 C4198 1.396 . S
C4197 C4202 1.390 . S
C4198 C4192 1.465 . S
C4198 C4197 1.396 . S
C4198 C4199 1.399 . S
C4199 H4185 0.929 . S
C4199 C4198 1.399 . S
C4199 C4200 1.385 . S
C4200 H4186 0.931 . S
C4200 C4199 1.385 . S
C4200 C4201 1.389 . S
C4201 C4200 1.389 . S
C4201 C4202 1.387 . S
C4202 H4187 0.930 . S
C4202 C4197 1.390 . S
C4202 C4201 1.387 . S
H4203 C4215 0.930 . S
H4204 C4217 0.930 . S
H4205 C4218 0.930 . S
H4206 C4222 0.959 . S
H4207 C4222 0.959 . S
H4208 C4222 0.961 . S
H4209 C4223 0.960 . S
H4210 C4223 0.961 . S
H4211 C4223 0.959 . S
H4212 C4226 0.929 . S
H4213 C4227 0.931 . S
H4214 C4229 0.930 . S
C4215 H4203 0.930 . S
C4215 C4216 1.399 . S
C4215 C4220 1.399 . S
C4216 C4215 1.399 . S
C4216 C4217 1.376 . S
C4217 H4204 0.930 . S
C4217 C4216 1.376 . S
C4217 C4218 1.388 . S
C4218 H4205 0.930 . S
C4218 C4217 1.388 . S
C4218 C4219 1.390 . S
C4219 C4218 1.390 . S
C4219 C4220 1.394 . S
C4219 C4225 1.465 . S
C4220 C4215 1.399 . S
C4220 C4219 1.394 . S
C4220 C4221 1.516 . S
C4221 C4220 1.516 . S
C4221 C4222 1.502 . S
C4221 C4223 1.561 . S
C4221 C4224 1.526 . S
C4222 H4206 0.959 . S
C4222 H4207 0.959 . S
C4222 H4208 0.961 . S
C4222 C4221 1.502 . S
C4223 H4209 0.960 . S
C4223 H4210 0.961 . S
C4223 H4211 0.959 . S
C4223 C4221 1.561 . S
C4224 C4221 1.526 . S
C4224 C4225 1.396 . S
C4224 C4229 1.390 . S
C4225 C4219 1.465 . S
C4225 C4224 1.396 . S
C4225 C4226 1.399 . S
C4226 H4212 0.929 . S
C4226 C4225 1.399 . S
C4226 C4227 1.385 . S
C4227 H4213 0.931 . S
C4227 C4226 1.385 . S
C4227 C4228 1.389 . S
C4228 C4227 1.389 . S
C4228 C4229 1.387 . S
C4229 H4214 0.930 . S
C4229 C4224 1.390 . S
C4229 C4228 1.387 . S
H4230 C4242 0.930 . S
H4231 C4244 0.930 . S
H4232 C4245 0.930 . S
H4233 C4249 0.959 . S
H4234 C4249 0.959 . S
H4235 C4249 0.961 . S
H4236 C4250 0.960 . S
H4237 C4250 0.961 . S
H4238 C4250 0.959 . S
H4239 C4253 0.929 . S
H4240 C4254 0.931 . S
H4241 C4256 0.930 . S
C4242 H4230 0.930 . S
C4242 C4243 1.399 . S
C4242 C4247 1.399 . S
C4243 C4242 1.399 . S
C4243 C4244 1.376 . S
C4244 H4231 0.930 . S
C4244 C4243 1.376 . S
C4244 C4245 1.388 . S
C4245 H4232 0.930 . S
C4245 C4244 1.388 . S
C4245 C4246 1.390 . S
C4246 C4245 1.390 . S
C4246 C4247 1.394 . S
C4246 C4252 1.465 . S
C4247 C4242 1.399 . S
C4247 C4246 1.394 . S
C4247 C4248 1.516 . S
C4248 C4247 1.516 . S
C4248 C4249 1.502 . S
C4248 C4250 1.561 . S
C4248 C4251 1.526 . S
C4249 H4233 0.959 . S
C4249 H4234 0.959 . S
C4249 H4235 0.961 . S
C4249 C4248 1.502 . S
C4250 H4236 0.960 . S
C4250 H4237 0.961 . S
C4250 H4238 0.959 . S
C4250 C4248 1.561 . S
C4251 C4248 1.526 . S
C4251 C4252 1.396 . S
C4251 C4256 1.390 . S
C4252 C4246 1.465 . S
C4252 C4251 1.396 . S
C4252 C4253 1.399 . S
C4253 H4239 0.929 . S
C4253 C4252 1.399 . S
C4253 C4254 1.385 . S
C4254 H4240 0.931 . S
C4254 C4253 1.385 . S
C4254 C4255 1.389 . S
C4255 C4254 1.389 . S
C4255 C4256 1.387 . S
C4256 H4241 0.930 . S
C4256 C4251 1.390 . S
C4256 C4255 1.387 . S
H4257 C4269 0.930 . S
H4258 C4271 0.930 . S
H4259 C4272 0.930 . S
H4260 C4276 0.959 . S
H4261 C4276 0.959 . S
H4262 C4276 0.961 . S
H4263 C4277 0.960 . S
H4264 C4277 0.961 . S
H4265 C4277 0.959 . S
H4266 C4280 0.929 . S
H4267 C4281 0.931 . S
H4268 C4283 0.930 . S
C4269 H4257 0.930 . S
C4269 C4270 1.399 . S
C4269 C4274 1.399 . S
C4270 C4269 1.399 . S
C4270 C4271 1.376 . S
C4271 H4258 0.930 . S
C4271 C4270 1.376 . S
C4271 C4272 1.388 . S
C4272 H4259 0.930 . S
C4272 C4271 1.388 . S
C4272 C4273 1.390 . S
C4273 C4272 1.390 . S
C4273 C4274 1.394 . S
C4273 C4279 1.465 . S
C4274 C4269 1.399 . S
C4274 C4273 1.394 . S
C4274 C4275 1.516 . S
C4275 C4274 1.516 . S
C4275 C4276 1.502 . S
C4275 C4277 1.561 . S
C4275 C4278 1.526 . S
C4276 H4260 0.959 . S
C4276 H4261 0.959 . S
C4276 H4262 0.961 . S
C4276 C4275 1.502 . S
C4277 H4263 0.960 . S
C4277 H4264 0.961 . S
C4277 H4265 0.959 . S
C4277 C4275 1.561 . S
C4278 C4275 1.526 . S
C4278 C4279 1.396 . S
C4278 C4283 1.390 . S
C4279 C4273 1.465 . S
C4279 C4278 1.396 . S
C4279 C4280 1.399 . S
C4280 H4266 0.929 . S
C4280 C4279 1.399 . S
C4280 C4281 1.385 . S
C4281 H4267 0.931 . S
C4281 C4280 1.385 . S
C4281 C4282 1.389 . S
C4282 C4281 1.389 . S
C4282 C4283 1.387 . S
C4283 H4268 0.930 . S
C4283 C4278 1.390 . S
C4283 C4282 1.387 . S
H4284 C4296 0.930 . S
H4285 C4298 0.930 . S
H4286 C4299 0.930 . S
H4287 C4303 0.959 . S
H4288 C4303 0.959 . S
H4289 C4303 0.961 . S
H4290 C4304 0.960 . S
H4291 C4304 0.961 . S
H4292 C4304 0.959 . S
H4293 C4307 0.929 . S
H4294 C4308 0.931 . S
H4295 C4310 0.930 . S
C4296 H4284 0.930 . S
C4296 C4297 1.399 . S
C4296 C4301 1.399 . S
C4297 C4296 1.399 . S
C4297 C4298 1.376 . S
C4298 H4285 0.930 . S
C4298 C4297 1.376 . S
C4298 C4299 1.388 . S
C4299 H4286 0.930 . S
C4299 C4298 1.388 . S
C4299 C4300 1.390 . S
C4300 C4299 1.390 . S
C4300 C4301 1.394 . S
C4300 C4306 1.465 . S
C4301 C4296 1.399 . S
C4301 C4300 1.394 . S
C4301 C4302 1.516 . S
C4302 C4301 1.516 . S
C4302 C4303 1.502 . S
C4302 C4304 1.561 . S
C4302 C4305 1.526 . S
C4303 H4287 0.959 . S
C4303 H4288 0.959 . S
C4303 H4289 0.961 . S
C4303 C4302 1.502 . S
C4304 H4290 0.960 . S
C4304 H4291 0.961 . S
C4304 H4292 0.959 . S
C4304 C4302 1.561 . S
C4305 C4302 1.526 . S
C4305 C4306 1.396 . S
C4305 C4310 1.390 . S
C4306 C4300 1.465 . S
C4306 C4305 1.396 . S
C4306 C4307 1.399 . S
C4307 H4293 0.929 . S
C4307 C4306 1.399 . S
C4307 C4308 1.385 . S
C4308 H4294 0.931 . S
C4308 C4307 1.385 . S
C4308 C4309 1.389 . S
C4309 C4308 1.389 . S
C4309 C4310 1.387 . S
C4310 H4295 0.930 . S
C4310 C4305 1.390 . S
C4310 C4309 1.387 . S
H4311 C4323 0.930 . S
H4312 C4325 0.930 . S
H4313 C4326 0.930 . S
H4314 C4330 0.959 . S
H4315 C4330 0.959 . S
H4316 C4330 0.961 . S
H4317 C4331 0.960 . S
H4318 C4331 0.961 . S
H4319 C4331 0.959 . S
H4320 C4334 0.929 . S
H4321 C4335 0.931 . S
H4322 C4337 0.930 . S
C4323 H4311 0.930 . S
C4323 C4324 1.399 . S
C4323 C4328 1.399 . S
C4324 C4323 1.399 . S
C4324 C4325 1.376 . S
C4325 H4312 0.930 . S
C4325 C4324 1.376 . S
C4325 C4326 1.388 . S
C4326 H4313 0.930 . S
C4326 C4325 1.388 . S
C4326 C4327 1.390 . S
C4327 C4326 1.390 . S
C4327 C4328 1.394 . S
C4327 C4333 1.465 . S
C4328 C4323 1.399 . S
C4328 C4327 1.394 . S
C4328 C4329 1.516 . S
C4329 C4328 1.516 . S
C4329 C4330 1.502 . S
C4329 C4331 1.561 . S
C4329 C4332 1.526 . S
C4330 H4314 0.959 . S
C4330 H4315 0.959 . S
C4330 H4316 0.961 . S
C4330 C4329 1.502 . S
C4331 H4317 0.960 . S
C4331 H4318 0.961 . S
C4331 H4319 0.959 . S
C4331 C4329 1.561 . S
C4332 C4329 1.526 . S
C4332 C4333 1.396 . S
C4332 C4337 1.390 . S
C4333 C4327 1.465 . S
C4333 C4332 1.396 . S
C4333 C4334 1.399 . S
C4334 H4320 0.929 . S
C4334 C4333 1.399 . S
C4334 C4335 1.385 . S
C4335 H4321 0.931 . S
C4335 C4334 1.385 . S
C4335 C4336 1.389 . S
C4336 C4335 1.389 . S
C4336 C4337 1.387 . S
C4337 H4322 0.930 . S
C4337 C4332 1.390 . S
C4337 C4336 1.387 . S
H4338 C4350 0.930 . S
H4339 C4352 0.930 . S
H4340 C4353 0.930 . S
H4341 C4357 0.959 . S
H4342 C4357 0.959 . S
H4343 C4357 0.961 . S
H4344 C4358 0.960 . S
H4345 C4358 0.961 . S
H4346 C4358 0.959 . S
H4347 C4361 0.929 . S
H4348 C4362 0.931 . S
H4349 C4364 0.930 . S
C4350 H4338 0.930 . S
C4350 C4351 1.399 . S
C4350 C4355 1.399 . S
C4351 C4350 1.399 . S
C4351 C4352 1.376 . S
C4352 H4339 0.930 . S
C4352 C4351 1.376 . S
C4352 C4353 1.388 . S
C4353 H4340 0.930 . S
C4353 C4352 1.388 . S
C4353 C4354 1.390 . S
C4354 C4353 1.390 . S
C4354 C4355 1.394 . S
C4354 C4360 1.465 . S
C4355 C4350 1.399 . S
C4355 C4354 1.394 . S
C4355 C4356 1.516 . S
C4356 C4355 1.516 . S
C4356 C4357 1.502 . S
C4356 C4358 1.561 . S
C4356 C4359 1.526 . S
C4357 H4341 0.959 . S
C4357 H4342 0.959 . S
C4357 H4343 0.961 . S
C4357 C4356 1.502 . S
C4358 H4344 0.960 . S
C4358 H4345 0.961 . S
C4358 H4346 0.959 . S
C4358 C4356 1.561 . S
C4359 C4356 1.526 . S
C4359 C4360 1.396 . S
C4359 C4364 1.390 . S
C4360 C4354 1.465 . S
C4360 C4359 1.396 . S
C4360 C4361 1.399 . S
C4361 H4347 0.929 . S
C4361 C4360 1.399 . S
C4361 C4362 1.385 . S
C4362 H4348 0.931 . S
C4362 C4361 1.385 . S
C4362 C4363 1.389 . S
C4363 C4362 1.389 . S
C4363 C4364 1.387 . S
C4364 H4349 0.930 . S
C4364 C4359 1.390 . S
C4364 C4363 1.387 . S
H4365 C4377 0.930 . S
H4366 C4379 0.930 . S
H4367 C4380 0.930 . S
H4368 C4384 0.959 . S
H4369 C4384 0.959 . S
H4370 C4384 0.961 . S
H4371 C4385 0.960 . S
H4372 C4385 0.961 . S
H4373 C4385 0.959 . S
H4374 C4388 0.929 . S
H4375 C4389 0.931 . S
H4376 C4391 0.930 . S
C4377 H4365 0.930 . S
C4377 C4378 1.399 . S
C4377 C4382 1.399 . S
C4378 C4377 1.399 . S
C4378 C4379 1.376 . S
C4379 H4366 0.930 . S
C4379 C4378 1.376 . S
C4379 C4380 1.388 . S
C4380 H4367 0.930 . S
C4380 C4379 1.388 . S
C4380 C4381 1.390 . S
C4381 C4380 1.390 . S
C4381 C4382 1.394 . S
C4381 C4387 1.465 . S
C4382 C4377 1.399 . S
C4382 C4381 1.394 . S
C4382 C4383 1.516 . S
C4383 C4382 1.516 . S
C4383 C4384 1.502 . S
C4383 C4385 1.561 . S
C4383 C4386 1.526 . S
C4384 H4368 0.959 . S
C4384 H4369 0.959 . S
C4384 H4370 0.961 . S
C4384 C4383 1.502 . S
C4385 H4371 0.960 . S
C4385 H4372 0.961 . S
C4385 H4373 0.959 . S
C4385 C4383 1.561 . S
C4386 C4383 1.526 . S
C4386 C4387 1.396 . S
C4386 C4391 1.390 . S
C4387 C4381 1.465 . S
C4387 C4386 1.396 . S
C4387 C4388 1.399 . S
C4388 H4374 0.929 . S
C4388 C4387 1.399 . S
C4388 C4389 1.385 . S
C4389 H4375 0.931 . S
C4389 C4388 1.385 . S
C4389 C4390 1.389 . S
C4390 C4389 1.389 . S
C4390 C4391 1.387 . S
C4391 H4376 0.930 . S
C4391 C4386 1.390 . S
C4391 C4390 1.387 . S
H4392 C4404 0.930 . S
H4393 C4406 0.930 . S
H4394 C4407 0.930 . S
H4395 C4411 0.959 . S
H4396 C4411 0.959 . S
H4397 C4411 0.961 . S
H4398 C4412 0.960 . S
H4399 C4412 0.961 . S
H4400 C4412 0.959 . S
H4401 C4415 0.929 . S
H4402 C4416 0.931 . S
H4403 C4418 0.930 . S
C4404 H4392 0.930 . S
C4404 C4405 1.399 . S
C4404 C4409 1.399 . S
C4405 C4404 1.399 . S
C4405 C4406 1.376 . S
C4406 H4393 0.930 . S
C4406 C4405 1.376 . S
C4406 C4407 1.388 . S
C4407 H4394 0.930 . S
C4407 C4406 1.388 . S
C4407 C4408 1.390 . S
C4408 C4407 1.390 . S
C4408 C4409 1.394 . S
C4408 C4414 1.465 . S
C4409 C4404 1.399 . S
C4409 C4408 1.394 . S
C4409 C4410 1.516 . S
C4410 C4409 1.516 . S
C4410 C4411 1.502 . S
C4410 C4412 1.561 . S
C4410 C4413 1.526 . S
C4411 H4395 0.959 . S
C4411 H4396 0.959 . S
C4411 H4397 0.961 . S
C4411 C4410 1.502 . S
C4412 H4398 0.960 . S
C4412 H4399 0.961 . S
C4412 H4400 0.959 . S
C4412 C4410 1.561 . S
C4413 C4410 1.526 . S
C4413 C4414 1.396 . S
C4413 C4418 1.390 . S
C4414 C4408 1.465 . S
C4414 C4413 1.396 . S
C4414 C4415 1.399 . S
C4415 H4401 0.929 . S
C4415 C4414 1.399 . S
C4415 C4416 1.385 . S
C4416 H4402 0.931 . S
C4416 C4415 1.385 . S
C4416 C4417 1.389 . S
C4417 C4416 1.389 . S
C4417 C4418 1.387 . S
C4418 H4403 0.930 . S
C4418 C4413 1.390 . S
C4418 C4417 1.387 . S
H4419 C4431 0.930 . S
H4420 C4433 0.930 . S
H4421 C4434 0.930 . S
H4422 C4438 0.959 . S
H4423 C4438 0.959 . S
H4424 C4438 0.961 . S
H4425 C4439 0.960 . S
H4426 C4439 0.961 . S
H4427 C4439 0.959 . S
H4428 C4442 0.929 . S
H4429 C4443 0.931 . S
H4430 C4445 0.930 . S
C4431 H4419 0.930 . S
C4431 C4432 1.399 . S
C4431 C4436 1.399 . S
C4432 C4431 1.399 . S
C4432 C4433 1.376 . S
C4433 H4420 0.930 . S
C4433 C4432 1.376 . S
C4433 C4434 1.388 . S
C4434 H4421 0.930 . S
C4434 C4433 1.388 . S
C4434 C4435 1.390 . S
C4435 C4434 1.390 . S
C4435 C4436 1.394 . S
C4435 C4441 1.465 . S
C4436 C4431 1.399 . S
C4436 C4435 1.394 . S
C4436 C4437 1.516 . S
C4437 C4436 1.516 . S
C4437 C4438 1.502 . S
C4437 C4439 1.561 . S
C4437 C4440 1.526 . S
C4438 H4422 0.959 . S
C4438 H4423 0.959 . S
C4438 H4424 0.961 . S
C4438 C4437 1.502 . S
C4439 H4425 0.960 . S
C4439 H4426 0.961 . S
C4439 H4427 0.959 . S
C4439 C4437 1.561 . S
C4440 C4437 1.526 . S
C4440 C4441 1.396 . S
C4440 C4445 1.390 . S
C4441 C4435 1.465 . S
C4441 C4440 1.396 . S
C4441 C4442 1.399 . S
C4442 H4428 0.929 . S
C4442 C4441 1.399 . S
C4442 C4443 1.385 . S
C4443 H4429 0.931 . S
C4443 C4442 1.385 . S
C4443 C4444 1.389 . S
C4444 C4443 1.389 . S
C4444 C4445 1.387 . S
C4445 H4430 0.930 . S
C4445 C4440 1.390 . S
C4445 C4444 1.387 . S
H4446 C4458 0.930 . S
H4447 C4460 0.930 . S
H4448 C4461 0.930 . S
H4449 C4465 0.959 . S
H4450 C4465 0.959 . S
H4451 C4465 0.961 . S
H4452 C4466 0.960 . S
H4453 C4466 0.961 . S
H4454 C4466 0.959 . S
H4455 C4469 0.929 . S
H4456 C4470 0.931 . S
H4457 C4472 0.930 . S
C4458 H4446 0.930 . S
C4458 C4459 1.399 . S
C4458 C4463 1.399 . S
C4459 C4458 1.399 . S
C4459 C4460 1.376 . S
C4460 H4447 0.930 . S
C4460 C4459 1.376 . S
C4460 C4461 1.388 . S
C4461 H4448 0.930 . S
C4461 C4460 1.388 . S
C4461 C4462 1.390 . S
C4462 C4461 1.390 . S
C4462 C4463 1.394 . S
C4462 C4468 1.465 . S
C4463 C4458 1.399 . S
C4463 C4462 1.394 . S
C4463 C4464 1.516 . S
C4464 C4463 1.516 . S
C4464 C4465 1.502 . S
C4464 C4466 1.561 . S
C4464 C4467 1.526 . S
C4465 H4449 0.959 . S
C4465 H4450 0.959 . S
C4465 H4451 0.961 . S
C4465 C4464 1.502 . S
C4466 H4452 0.960 . S
C4466 H4453 0.961 . S
C4466 H4454 0.959 . S
C4466 C4464 1.561 . S
C4467 C4464 1.526 . S
C4467 C4468 1.396 . S
C4467 C4472 1.390 . S
C4468 C4462 1.465 . S
C4468 C4467 1.396 . S
C4468 C4469 1.399 . S
C4469 H4455 0.929 . S
C4469 C4468 1.399 . S
C4469 C4470 1.385 . S
C4470 H4456 0.931 . S
C4470 C4469 1.385 . S
C4470 C4471 1.389 . S
C4471 C4470 1.389 . S
C4471 C4472 1.387 . S
C4472 H4457 0.930 . S
C4472 C4467 1.390 . S
C4472 C4471 1.387 . S
H4473 C4485 0.930 . S
H4474 C4487 0.930 . S
H4475 C4488 0.930 . S
H4476 C4492 0.959 . S
H4477 C4492 0.959 . S
H4478 C4492 0.961 . S
H4479 C4493 0.960 . S
H4480 C4493 0.961 . S
H4481 C4493 0.959 . S
H4482 C4496 0.929 . S
H4483 C4497 0.931 . S
H4484 C4499 0.930 . S
C4485 H4473 0.930 . S
C4485 C4486 1.399 . S
C4485 C4490 1.399 . S
C4486 C4485 1.399 . S
C4486 C4487 1.376 . S
C4487 H4474 0.930 . S
C4487 C4486 1.376 . S
C4487 C4488 1.388 . S
C4488 H4475 0.930 . S
C4488 C4487 1.388 . S
C4488 C4489 1.390 . S
C4489 C4488 1.390 . S
C4489 C4490 1.394 . S
C4489 C4495 1.465 . S
C4490 C4485 1.399 . S
C4490 C4489 1.394 . S
C4490 C4491 1.516 . S
C4491 C4490 1.516 . S
C4491 C4492 1.502 . S
C4491 C4493 1.561 . S
C4491 C4494 1.526 . S
C4492 H4476 0.959 . S
C4492 H4477 0.959 . S
C4492 H4478 0.961 . S
C4492 C4491 1.502 . S
C4493 H4479 0.960 . S
C4493 H4480 0.961 . S
C4493 H4481 0.959 . S
C4493 C4491 1.561 . S
C4494 C4491 1.526 . S
C4494 C4495 1.396 . S
C4494 C4499 1.390 . S
C4495 C4489 1.465 . S
C4495 C4494 1.396 . S
C4495 C4496 1.399 . S
C4496 H4482 0.929 . S
C4496 C4495 1.399 . S
C4496 C4497 1.385 . S
C4497 H4483 0.931 . S
C4497 C4496 1.385 . S
C4497 C4498 1.389 . S
C4498 C4497 1.389 . S
C4498 C4499 1.387 . S
C4499 H4484 0.930 . S
C4499 C4494 1.390 . S
C4499 C4498 1.387 . S
H4500 C4512 0.930 . S
H4501 C4514 0.930 . S
H4502 C4515 0.930 . S
H4503 C4519 0.959 . S
H4504 C4519 0.959 . S
H4505 C4519 0.961 . S
H4506 C4520 0.960 . S
H4507 C4520 0.961 . S
H4508 C4520 0.959 . S
H4509 C4523 0.929 . S
H4510 C4524 0.931 . S
H4511 C4526 0.930 . S
C4512 H4500 0.930 . S
C4512 C4513 1.399 . S
C4512 C4517 1.399 . S
C4513 C4512 1.399 . S
C4513 C4514 1.376 . S
C4514 H4501 0.930 . S
C4514 C4513 1.376 . S
C4514 C4515 1.388 . S
C4515 H4502 0.930 . S
C4515 C4514 1.388 . S
C4515 C4516 1.390 . S
C4516 C4515 1.390 . S
C4516 C4517 1.394 . S
C4516 C4522 1.465 . S
C4517 C4512 1.399 . S
C4517 C4516 1.394 . S
C4517 C4518 1.516 . S
C4518 C4517 1.516 . S
C4518 C4519 1.502 . S
C4518 C4520 1.561 . S
C4518 C4521 1.526 . S
C4519 H4503 0.959 . S
C4519 H4504 0.959 . S
C4519 H4505 0.961 . S
C4519 C4518 1.502 . S
C4520 H4506 0.960 . S
C4520 H4507 0.961 . S
C4520 H4508 0.959 . S
C4520 C4518 1.561 . S
C4521 C4518 1.526 . S
C4521 C4522 1.396 . S
C4521 C4526 1.390 . S
C4522 C4516 1.465 . S
C4522 C4521 1.396 . S
C4522 C4523 1.399 . S
C4523 H4509 0.929 . S
C4523 C4522 1.399 . S
C4523 C4524 1.385 . S
C4524 H4510 0.931 . S
C4524 C4523 1.385 . S
C4524 C4525 1.389 . S
C4525 C4524 1.389 . S
C4525 C4526 1.387 . S
C4526 H4511 0.930 . S
C4526 C4521 1.390 . S
C4526 C4525 1.387 . S
H4527 C4539 0.930 . S
H4528 C4541 0.930 . S
H4529 C4542 0.930 . S
H4530 C4546 0.959 . S
H4531 C4546 0.959 . S
H4532 C4546 0.961 . S
H4533 C4547 0.960 . S
H4534 C4547 0.961 . S
H4535 C4547 0.959 . S
H4536 C4550 0.929 . S
H4537 C4551 0.931 . S
H4538 C4553 0.930 . S
C4539 H4527 0.930 . S
C4539 C4540 1.399 . S
C4539 C4544 1.399 . S
C4540 C4539 1.399 . S
C4540 C4541 1.376 . S
C4541 H4528 0.930 . S
C4541 C4540 1.376 . S
C4541 C4542 1.388 . S
C4542 H4529 0.930 . S
C4542 C4541 1.388 . S
C4542 C4543 1.390 . S
C4543 C4542 1.390 . S
C4543 C4544 1.394 . S
C4543 C4549 1.465 . S
C4544 C4539 1.399 . S
C4544 C4543 1.394 . S
C4544 C4545 1.516 . S
C4545 C4544 1.516 . S
C4545 C4546 1.502 . S
C4545 C4547 1.561 . S
C4545 C4548 1.526 . S
C4546 H4530 0.959 . S
C4546 H4531 0.959 . S
C4546 H4532 0.961 . S
C4546 C4545 1.502 . S
C4547 H4533 0.960 . S
C4547 H4534 0.961 . S
C4547 H4535 0.959 . S
C4547 C4545 1.561 . S
C4548 C4545 1.526 . S
C4548 C4549 1.396 . S
C4548 C4553 1.390 . S
C4549 C4543 1.465 . S
C4549 C4548 1.396 . S
C4549 C4550 1.399 . S
C4550 H4536 0.929 . S
C4550 C4549 1.399 . S
C4550 C4551 1.385 . S
C4551 H4537 0.931 . S
C4551 C4550 1.385 . S
C4551 C4552 1.389 . S
C4552 C4551 1.389 . S
C4552 C4553 1.387 . S
C4553 H4538 0.930 . S
C4553 C4548 1.390 . S
C4553 C4552 1.387 . S
H4554 C4566 0.930 . S
H4555 C4568 0.930 . S
H4556 C4569 0.930 . S
H4557 C4573 0.959 . S
H4558 C4573 0.959 . S
H4559 C4573 0.961 . S
H4560 C4574 0.960 . S
H4561 C4574 0.961 . S
H4562 C4574 0.959 . S
H4563 C4577 0.929 . S
H4564 C4578 0.931 . S
H4565 C4580 0.930 . S
C4566 H4554 0.930 . S
C4566 C4567 1.399 . S
C4566 C4571 1.399 . S
C4567 C4566 1.399 . S
C4567 C4568 1.376 . S
C4568 H4555 0.930 . S
C4568 C4567 1.376 . S
C4568 C4569 1.388 . S
C4569 H4556 0.930 . S
C4569 C4568 1.388 . S
C4569 C4570 1.390 . S
C4570 C4569 1.390 . S
C4570 C4571 1.394 . S
C4570 C4576 1.465 . S
C4571 C4566 1.399 . S
C4571 C4570 1.394 . S
C4571 C4572 1.516 . S
C4572 C4571 1.516 . S
C4572 C4573 1.502 . S
C4572 C4574 1.561 . S
C4572 C4575 1.526 . S
C4573 H4557 0.959 . S
C4573 H4558 0.959 . S
C4573 H4559 0.961 . S
C4573 C4572 1.502 . S
C4574 H4560 0.960 . S
C4574 H4561 0.961 . S
C4574 H4562 0.959 . S
C4574 C4572 1.561 . S
C4575 C4572 1.526 . S
C4575 C4576 1.396 . S
C4575 C4580 1.390 . S
C4576 C4570 1.465 . S
C4576 C4575 1.396 . S
C4576 C4577 1.399 . S
C4577 H4563 0.929 . S
C4577 C4576 1.399 . S
C4577 C4578 1.385 . S
C4578 H4564 0.931 . S
C4578 C4577 1.385 . S
C4578 C4579 1.389 . S
C4579 C4578 1.389 . S
C4579 C4580 1.387 . S
C4580 H4565 0.930 . S
C4580 C4575 1.390 . S
C4580 C4579 1.387 . S
H4581 C4593 0.930 . S
H4582 C4595 0.930 . S
H4583 C4596 0.930 . S
H4584 C4600 0.959 . S
H4585 C4600 0.959 . S
H4586 C4600 0.961 . S
H4587 C4601 0.960 . S
H4588 C4601 0.961 . S
H4589 C4601 0.959 . S
H4590 C4604 0.929 . S
H4591 C4605 0.931 . S
H4592 C4607 0.930 . S
C4593 H4581 0.930 . S
C4593 C4594 1.399 . S
C4593 C4598 1.399 . S
C4594 C4593 1.399 . S
C4594 C4595 1.376 . S
C4595 H4582 0.930 . S
C4595 C4594 1.376 . S
C4595 C4596 1.388 . S
C4596 H4583 0.930 . S
C4596 C4595 1.388 . S
C4596 C4597 1.390 . S
C4597 C4596 1.390 . S
C4597 C4598 1.394 . S
C4597 C4603 1.465 . S
C4598 C4593 1.399 . S
C4598 C4597 1.394 . S
C4598 C4599 1.516 . S
C4599 C4598 1.516 . S
C4599 C4600 1.502 . S
C4599 C4601 1.561 . S
C4599 C4602 1.526 . S
C4600 H4584 0.959 . S
C4600 H4585 0.959 . S
C4600 H4586 0.961 . S
C4600 C4599 1.502 . S
C4601 H4587 0.960 . S
C4601 H4588 0.961 . S
C4601 H4589 0.959 . S
C4601 C4599 1.561 . S
C4602 C4599 1.526 . S
C4602 C4603 1.396 . S
C4602 C4607 1.390 . S
C4603 C4597 1.465 . S
C4603 C4602 1.396 . S
C4603 C4604 1.399 . S
C4604 H4590 0.929 . S
C4604 C4603 1.399 . S
C4604 C4605 1.385 . S
C4605 H4591 0.931 . S
C4605 C4604 1.385 . S
C4605 C4606 1.389 . S
C4606 C4605 1.389 . S
C4606 C4607 1.387 . S
C4607 H4592 0.930 . S
C4607 C4602 1.390 . S
C4607 C4606 1.387 . S
H4608 C4620 0.930 . S
H4609 C4622 0.930 . S
H4610 C4623 0.930 . S
H4611 C4627 0.959 . S
H4612 C4627 0.959 . S
H4613 C4627 0.961 . S
H4614 C4628 0.960 . S
H4615 C4628 0.961 . S
H4616 C4628 0.959 . S
H4617 C4631 0.929 . S
H4618 C4632 0.931 . S
H4619 C4634 0.930 . S
C4620 H4608 0.930 . S
C4620 C4621 1.399 . S
C4620 C4625 1.399 . S
C4621 C4620 1.399 . S
C4621 C4622 1.376 . S
C4622 H4609 0.930 . S
C4622 C4621 1.376 . S
C4622 C4623 1.388 . S
C4623 H4610 0.930 . S
C4623 C4622 1.388 . S
C4623 C4624 1.390 . S
C4624 C4623 1.390 . S
C4624 C4625 1.394 . S
C4624 C4630 1.465 . S
C4625 C4620 1.399 . S
C4625 C4624 1.394 . S
C4625 C4626 1.516 . S
C4626 C4625 1.516 . S
C4626 C4627 1.502 . S
C4626 C4628 1.561 . S
C4626 C4629 1.526 . S
C4627 H4611 0.959 . S
C4627 H4612 0.959 . S
C4627 H4613 0.961 . S
C4627 C4626 1.502 . S
C4628 H4614 0.960 . S
C4628 H4615 0.961 . S
C4628 H4616 0.959 . S
C4628 C4626 1.561 . S
C4629 C4626 1.526 . S
C4629 C4630 1.396 . S
C4629 C4634 1.390 . S
C4630 C4624 1.465 . S
C4630 C4629 1.396 . S
C4630 C4631 1.399 . S
C4631 H4617 0.929 . S
C4631 C4630 1.399 . S
C4631 C4632 1.385 . S
C4632 H4618 0.931 . S
C4632 C4631 1.385 . S
C4632 C4633 1.389 . S
C4633 C4632 1.389 . S
C4633 C4634 1.387 . S
C4634 H4619 0.930 . S
C4634 C4629 1.390 . S
C4634 C4633 1.387 . S
H4635 C4647 0.930 . S
H4636 C4649 0.930 . S
H4637 C4650 0.930 . S
H4638 C4654 0.959 . S
H4639 C4654 0.959 . S
H4640 C4654 0.961 . S
H4641 C4655 0.960 . S
H4642 C4655 0.961 . S
H4643 C4655 0.959 . S
H4644 C4658 0.929 . S
H4645 C4659 0.931 . S
H4646 C4661 0.930 . S
C4647 H4635 0.930 . S
C4647 C4648 1.399 . S
C4647 C4652 1.399 . S
C4648 C4647 1.399 . S
C4648 C4649 1.376 . S
C4649 H4636 0.930 . S
C4649 C4648 1.376 . S
C4649 C4650 1.388 . S
C4650 H4637 0.930 . S
C4650 C4649 1.388 . S
C4650 C4651 1.390 . S
C4651 C4650 1.390 . S
C4651 C4652 1.394 . S
C4651 C4657 1.465 . S
C4652 C4647 1.399 . S
C4652 C4651 1.394 . S
C4652 C4653 1.516 . S
C4653 C4652 1.516 . S
C4653 C4654 1.502 . S
C4653 C4655 1.561 . S
C4653 C4656 1.526 . S
C4654 H4638 0.959 . S
C4654 H4639 0.959 . S
C4654 H4640 0.961 . S
C4654 C4653 1.502 . S
C4655 H4641 0.960 . S
C4655 H4642 0.961 . S
C4655 H4643 0.959 . S
C4655 C4653 1.561 . S
C4656 C4653 1.526 . S
C4656 C4657 1.396 . S
C4656 C4661 1.390 . S
C4657 C4651 1.465 . S
C4657 C4656 1.396 . S
C4657 C4658 1.399 . S
C4658 H4644 0.929 . S
C4658 C4657 1.399 . S
C4658 C4659 1.385 . S
C4659 H4645 0.931 . S
C4659 C4658 1.385 . S
C4659 C4660 1.389 . S
C4660 C4659 1.389 . S
C4660 C4661 1.387 . S
C4661 H4646 0.930 . S
C4661 C4656 1.390 . S
C4661 C4660 1.387 . S
H4662 C4674 0.930 . S
H4663 C4676 0.930 . S
H4664 C4677 0.930 . S
H4665 C4681 0.959 . S
H4666 C4681 0.959 . S
H4667 C4681 0.961 . S
H4668 C4682 0.960 . S
H4669 C4682 0.961 . S
H4670 C4682 0.959 . S
H4671 C4685 0.929 . S
H4672 C4686 0.931 . S
H4673 C4688 0.930 . S
C4674 H4662 0.930 . S
C4674 C4675 1.399 . S
C4674 C4679 1.399 . S
C4675 C4674 1.399 . S
C4675 C4676 1.376 . S
C4676 H4663 0.930 . S
C4676 C4675 1.376 . S
C4676 C4677 1.388 . S
C4677 H4664 0.930 . S
C4677 C4676 1.388 . S
C4677 C4678 1.390 . S
C4678 C4677 1.390 . S
C4678 C4679 1.394 . S
C4678 C4684 1.465 . S
C4679 C4674 1.399 . S
C4679 C4678 1.394 . S
C4679 C4680 1.516 . S
C4680 C4679 1.516 . S
C4680 C4681 1.502 . S
C4680 C4682 1.561 . S
C4680 C4683 1.526 . S
C4681 H4665 0.959 . S
C4681 H4666 0.959 . S
C4681 H4667 0.961 . S
C4681 C4680 1.502 . S
C4682 H4668 0.960 . S
C4682 H4669 0.961 . S
C4682 H4670 0.959 . S
C4682 C4680 1.561 . S
C4683 C4680 1.526 . S
C4683 C4684 1.396 . S
C4683 C4688 1.390 . S
C4684 C4678 1.465 . S
C4684 C4683 1.396 . S
C4684 C4685 1.399 . S
C4685 H4671 0.929 . S
C4685 C4684 1.399 . S
C4685 C4686 1.385 . S
C4686 H4672 0.931 . S
C4686 C4685 1.385 . S
C4686 C4687 1.389 . S
C4687 C4686 1.389 . S
C4687 C4688 1.387 . S
C4688 H4673 0.930 . S
C4688 C4683 1.390 . S
C4688 C4687 1.387 . S
H4689 C4701 0.930 . S
H4690 C4703 0.930 . S
H4691 C4704 0.930 . S
H4692 C4708 0.959 . S
H4693 C4708 0.959 . S
H4694 C4708 0.961 . S
H4695 C4709 0.960 . S
H4696 C4709 0.961 . S
H4697 C4709 0.959 . S
H4698 C4712 0.929 . S
H4699 C4713 0.931 . S
H4700 C4715 0.930 . S
C4701 H4689 0.930 . S
C4701 C4702 1.399 . S
C4701 C4706 1.399 . S
C4702 C4701 1.399 . S
C4702 C4703 1.376 . S
C4703 H4690 0.930 . S
C4703 C4702 1.376 . S
C4703 C4704 1.388 . S
C4704 H4691 0.930 . S
C4704 C4703 1.388 . S
C4704 C4705 1.390 . S
C4705 C4704 1.390 . S
C4705 C4706 1.394 . S
C4705 C4711 1.465 . S
C4706 C4701 1.399 . S
C4706 C4705 1.394 . S
C4706 C4707 1.516 . S
C4707 C4706 1.516 . S
C4707 C4708 1.502 . S
C4707 C4709 1.561 . S
C4707 C4710 1.526 . S
C4708 H4692 0.959 . S
C4708 H4693 0.959 . S
C4708 H4694 0.961 . S
C4708 C4707 1.502 . S
C4709 H4695 0.960 . S
C4709 H4696 0.961 . S
C4709 H4697 0.959 . S
C4709 C4707 1.561 . S
C4710 C4707 1.526 . S
C4710 C4711 1.396 . S
C4710 C4715 1.390 . S
C4711 C4705 1.465 . S
C4711 C4710 1.396 . S
C4711 C4712 1.399 . S
C4712 H4698 0.929 . S
C4712 C4711 1.399 . S
C4712 C4713 1.385 . S
C4713 H4699 0.931 . S
C4713 C4712 1.385 . S
C4713 C4714 1.389 . S
C4714 C4713 1.389 . S
C4714 C4715 1.387 . S
C4715 H4700 0.930 . S
C4715 C4710 1.390 . S
C4715 C4714 1.387 . S
H4716 C4728 0.930 . S
H4717 C4730 0.930 . S
H4718 C4731 0.930 . S
H4719 C4735 0.959 . S
H4720 C4735 0.959 . S
H4721 C4735 0.961 . S
H4722 C4736 0.960 . S
H4723 C4736 0.961 . S
H4724 C4736 0.959 . S
H4725 C4739 0.929 . S
H4726 C4740 0.931 . S
H4727 C4742 0.930 . S
C4728 H4716 0.930 . S
C4728 C4729 1.399 . S
C4728 C4733 1.399 . S
C4729 C4728 1.399 . S
C4729 C4730 1.376 . S
C4730 H4717 0.930 . S
C4730 C4729 1.376 . S
C4730 C4731 1.388 . S
C4731 H4718 0.930 . S
C4731 C4730 1.388 . S
C4731 C4732 1.390 . S
C4732 C4731 1.390 . S
C4732 C4733 1.394 . S
C4732 C4738 1.465 . S
C4733 C4728 1.399 . S
C4733 C4732 1.394 . S
C4733 C4734 1.516 . S
C4734 C4733 1.516 . S
C4734 C4735 1.502 . S
C4734 C4736 1.561 . S
C4734 C4737 1.526 . S
C4735 H4719 0.959 . S
C4735 H4720 0.959 . S
C4735 H4721 0.961 . S
C4735 C4734 1.502 . S
C4736 H4722 0.960 . S
C4736 H4723 0.961 . S
C4736 H4724 0.959 . S
C4736 C4734 1.561 . S
C4737 C4734 1.526 . S
C4737 C4738 1.396 . S
C4737 C4742 1.390 . S
C4738 C4732 1.465 . S
C4738 C4737 1.396 . S
C4738 C4739 1.399 . S
C4739 H4725 0.929 . S
C4739 C4738 1.399 . S
C4739 C4740 1.385 . S
C4740 H4726 0.931 . S
C4740 C4739 1.385 . S
C4740 C4741 1.389 . S
C4741 C4740 1.389 . S
C4741 C4742 1.387 . S
C4742 H4727 0.930 . S
C4742 C4737 1.390 . S
C4742 C4741 1.387 . S
H4743 C4755 0.930 . S
H4744 C4757 0.930 . S
H4745 C4758 0.930 . S
H4746 C4762 0.959 . S
H4747 C4762 0.959 . S
H4748 C4762 0.961 . S
H4749 C4763 0.960 . S
H4750 C4763 0.961 . S
H4751 C4763 0.959 . S
H4752 C4766 0.929 . S
H4753 C4767 0.931 . S
H4754 C4769 0.930 . S
C4755 H4743 0.930 . S
C4755 C4756 1.399 . S
C4755 C4760 1.399 . S
C4756 C4755 1.399 . S
C4756 C4757 1.376 . S
C4757 H4744 0.930 . S
C4757 C4756 1.376 . S
C4757 C4758 1.388 . S
C4758 H4745 0.930 . S
C4758 C4757 1.388 . S
C4758 C4759 1.390 . S
C4759 C4758 1.390 . S
C4759 C4760 1.394 . S
C4759 C4765 1.465 . S
C4760 C4755 1.399 . S
C4760 C4759 1.394 . S
C4760 C4761 1.516 . S
C4761 C4760 1.516 . S
C4761 C4762 1.502 . S
C4761 C4763 1.561 . S
C4761 C4764 1.526 . S
C4762 H4746 0.959 . S
C4762 H4747 0.959 . S
C4762 H4748 0.961 . S
C4762 C4761 1.502 . S
C4763 H4749 0.960 . S
C4763 H4750 0.961 . S
C4763 H4751 0.959 . S
C4763 C4761 1.561 . S
C4764 C4761 1.526 . S
C4764 C4765 1.396 . S
C4764 C4769 1.390 . S
C4765 C4759 1.465 . S
C4765 C4764 1.396 . S
C4765 C4766 1.399 . S
C4766 H4752 0.929 . S
C4766 C4765 1.399 . S
C4766 C4767 1.385 . S
C4767 H4753 0.931 . S
C4767 C4766 1.385 . S
C4767 C4768 1.389 . S
C4768 C4767 1.389 . S
C4768 C4769 1.387 . S
C4769 H4754 0.930 . S
C4769 C4764 1.390 . S
C4769 C4768 1.387 . S
H4770 C4782 0.930 . S
H4771 C4784 0.930 . S
H4772 C4785 0.930 . S
H4773 C4789 0.959 . S
H4774 C4789 0.959 . S
H4775 C4789 0.961 . S
H4776 C4790 0.960 . S
H4777 C4790 0.961 . S
H4778 C4790 0.959 . S
H4779 C4793 0.929 . S
H4780 C4794 0.931 . S
H4781 C4796 0.930 . S
C4782 H4770 0.930 . S
C4782 C4783 1.399 . S
C4782 C4787 1.399 . S
C4783 C4782 1.399 . S
C4783 C4784 1.376 . S
C4784 H4771 0.930 . S
C4784 C4783 1.376 . S
C4784 C4785 1.388 . S
C4785 H4772 0.930 . S
C4785 C4784 1.388 . S
C4785 C4786 1.390 . S
C4786 C4785 1.390 . S
C4786 C4787 1.394 . S
C4786 C4792 1.465 . S
C4787 C4782 1.399 . S
C4787 C4786 1.394 . S
C4787 C4788 1.516 . S
C4788 C4787 1.516 . S
C4788 C4789 1.502 . S
C4788 C4790 1.561 . S
C4788 C4791 1.526 . S
C4789 H4773 0.959 . S
C4789 H4774 0.959 . S
C4789 H4775 0.961 . S
C4789 C4788 1.502 . S
C4790 H4776 0.960 . S
C4790 H4777 0.961 . S
C4790 H4778 0.959 . S
C4790 C4788 1.561 . S
C4791 C4788 1.526 . S
C4791 C4792 1.396 . S
C4791 C4796 1.390 . S
C4792 C4786 1.465 . S
C4792 C4791 1.396 . S
C4792 C4793 1.399 . S
C4793 H4779 0.929 . S
C4793 C4792 1.399 . S
C4793 C4794 1.385 . S
C4794 H4780 0.931 . S
C4794 C4793 1.385 . S
C4794 C4795 1.389 . S
C4795 C4794 1.389 . S
C4795 C4796 1.387 . S
C4796 H4781 0.930 . S
C4796 C4791 1.390 . S
C4796 C4795 1.387 . S
H4797 C4809 0.930 . S
H4798 C4811 0.930 . S
H4799 C4812 0.930 . S
H4800 C4816 0.959 . S
H4801 C4816 0.959 . S
H4802 C4816 0.961 . S
H4803 C4817 0.960 . S
H4804 C4817 0.961 . S
H4805 C4817 0.959 . S
H4806 C4820 0.929 . S
H4807 C4821 0.931 . S
H4808 C4823 0.930 . S
C4809 H4797 0.930 . S
C4809 C4810 1.399 . S
C4809 C4814 1.399 . S
C4810 C4809 1.399 . S
C4810 C4811 1.376 . S
C4811 H4798 0.930 . S
C4811 C4810 1.376 . S
C4811 C4812 1.388 . S
C4812 H4799 0.930 . S
C4812 C4811 1.388 . S
C4812 C4813 1.390 . S
C4813 C4812 1.390 . S
C4813 C4814 1.394 . S
C4813 C4819 1.465 . S
C4814 C4809 1.399 . S
C4814 C4813 1.394 . S
C4814 C4815 1.516 . S
C4815 C4814 1.516 . S
C4815 C4816 1.502 . S
C4815 C4817 1.561 . S
C4815 C4818 1.526 . S
C4816 H4800 0.959 . S
C4816 H4801 0.959 . S
C4816 H4802 0.961 . S
C4816 C4815 1.502 . S
C4817 H4803 0.960 . S
C4817 H4804 0.961 . S
C4817 H4805 0.959 . S
C4817 C4815 1.561 . S
C4818 C4815 1.526 . S
C4818 C4819 1.396 . S
C4818 C4823 1.390 . S
C4819 C4813 1.465 . S
C4819 C4818 1.396 . S
C4819 C4820 1.399 . S
C4820 H4806 0.929 . S
C4820 C4819 1.399 . S
C4820 C4821 1.385 . S
C4821 H4807 0.931 . S
C4821 C4820 1.385 . S
C4821 C4822 1.389 . S
C4822 C4821 1.389 . S
C4822 C4823 1.387 . S
C4823 H4808 0.930 . S
C4823 C4818 1.390 . S
C4823 C4822 1.387 . S
C1597 N607 1.502 . S
C1609 C18 1.513 . S
C1624 C51 1.536 . S
C1636 N640 1.473 . S
C1651 C84 1.502 . S
C1663 N673 1.444 . S
C1678 N574 1.447 . S
C1690 C117 1.499 . S
C1705 N739 1.466 . S
C1717 C150 1.532 . S
C1732 C183 1.518 . S
C1744 N541 1.449 . S
C1759 N772 1.465 . S
C1771 C216 1.531 . S
C1786 N706 1.520 . S
C1798 C249 1.544 . S
C1813 C282 1.543 . S
C1825 N310 1.520 . S
C1840 N343 1.451 . S
C1852 C315 1.521 . S
C1867 N376 1.459 . S
C1879 C348 1.528 . S
C1894 C381 1.542 . S
C1906 N277 1.521 . S
C1921 N508 1.490 . S
C1933 C414 1.506 . S
C1948 C447 1.496 . S
C1960 N409 1.452 . S
C1975 N442 1.446 . S
C1987 C480 1.499 . S
C2002 N475 1.503 . S
C2014 C513 1.514 . S
C2029 C546 1.536 . S
C2041 N112 1.475 . S
C2056 N178 1.513 . S
C2068 C579 1.546 . S
C2083 C612 1.510 . S
C2095 N211 1.444 . S
C2110 N244 1.515 . S
C2122 C645 1.546 . S
C2137 N145 1.498 . S
C2149 C678 1.510 . S
C2164 C711 1.539 . S
C2176 N46 1.479 . S
C2191 C744 1.499 . S
C2203 N79 1.475 . S
C2218 N13 1.505 . S
C2230 C777 1.515 . S
C2245 C810 1.509 . S
C2257 N1399 1.444 . S
C2272 N1432 1.449 . S
C2284 C843 1.498 . S
C2299 N1465 1.501 . S
C2311 C876 1.512 . S
C2326 C909 1.531 . S
C2338 N1366 1.465 . S
C2353 N1531 1.450 . S
C2365 C942 1.497 . S
C2380 C975 1.509 . S
C2392 N1333 1.497 . S
C2407 N1564 1.497 . S
C2419 C1008 1.510 . S
C2434 N1498 1.447 . S
C2446 C1041 1.498 . S
C2461 N1102 1.457 . S
C2473 C1074 1.526 . S
C2488 C1107 1.540 . S
C2500 N1135 1.522 . S
C2515 N1168 1.509 . S
C2527 C1140 1.518 . S
C2542 C1173 1.544 . S
C2554 N1069 1.518 . S
C2569 C1206 1.536 . S
C2581 N1300 1.522 . S
C2596 N1201 1.460 . S
C2608 C1239 1.528 . S
C2623 C1272 1.511 . S
C2635 N1234 1.445 . S
C2650 N1267 1.464 . S
C2662 C1305 1.530 . S
C2677 N904 1.520 . S
C2689 C1338 1.544 . S
C2704 C1371 1.505 . S
C2716 N970 1.489 . S
C2731 C1404 1.544 . S
C2743 N1003 1.518 . S
C2758 N1036 1.445 . S
C2770 C1437 1.499 . S
C2785 N937 1.442 . S
C2797 C1470 1.505 . S
C2812 N838 1.444 . S
C2824 C1503 1.500 . S
C2839 C1536 1.497 . S
C2851 N871 1.450 . S
C2866 N805 1.460 . S
C2878 C1569 1.528 . S
C2893 C1044 1.491 . S
C2905 C21 1.473 . S
C2920 C945 1.412 . S
C2932 C54 1.487 . S
C2947 C87 1.499 . S
C2959 C978 1.457 . S
C2974 C1011 1.489 . S
C2986 C120 1.414 . S
C3001 C153 1.493 . S
C3013 C846 1.419 . S
C3028 C879 1.497 . S
C3040 C186 1.426 . S
C3055 C912 1.481 . S
C3067 C219 1.485 . S
C3082 C252 1.479 . S
C3094 C813 1.487 . S
C3109 C285 1.404 . S
C3121 C1473 1.473 . S
C3136 C1374 1.407 . S
C3148 C318 1.441 . S
C3163 C1407 1.499 . S
C3175 C351 1.432 . S
C3190 C1440 1.466 . S
C3202 C384 1.495 . S
C3217 C1572 1.450 . S
C3229 C417 1.405 . S
C3244 C450 1.492 . S
C3256 C1506 1.418 . S
C3271 C483 1.500 . S
C3283 C1539 1.449 . S
C3298 C1341 1.428 . S
C3310 C516 1.414 . S
C3325 C1308 1.403 . S
C3337 C549 1.450 . S
C3352 C582 1.425 . S
C3364 C1110 1.417 . S
C3379 C1143 1.410 . S
C3391 C615 1.435 . S
C3406 C1176 1.410 . S
C3418 C648 1.485 . S
C3433 C681 1.500 . S
C3445 C1077 1.438 . S
C3460 C714 1.480 . S
C3472 C1242 1.486 . S
C3487 C1275 1.404 . S
C3499 C747 1.475 . S
C3514 C780 1.452 . S
C3526 C1209 1.499 . S
C3541 N266 1.188 . S
C3553 C7 1.100 . S
C3568 N299 1.064 . S
C3580 C40 1.200 . S
C3595 C73 1.059 . S
C3607 N332 1.199 . S
C3622 C106 1.132 . S
C3634 N365 1.164 . S
C3649 C139 1.071 . S
C3661 N398 1.200 . S
C3676 N431 1.085 . S
C3688 C172 1.148 . S
C3703 N464 1.149 . S
C3715 C205 1.148 . S
C3730 C238 1.121 . S
C3742 N497 1.173 . S
C3757 N530 1.152 . S
C3769 C271 1.083 . S
C3784 N761 1.147 . S
C3796 C304 1.151 . S
C3811 N695 1.202 . S
C3823 C337 1.067 . S
C3838 C370 1.058 . S
C3850 N728 1.198 . S
C3865 C403 1.200 . S
C3877 N563 1.064 . S
C3892 C436 1.061 . S
C3904 N596 1.182 . S
C3919 C469 1.171 . S
C3931 N629 1.124 . S
C3946 C502 1.200 . S
C3958 N662 1.065 . S
C3973 N2 1.104 . S
C3985 C535 1.185 . S
C4000 C568 1.106 . S
C4012 N134 1.125 . S
C4027 N167 1.068 . S
C4039 C601 1.200 . S
C4054 C634 1.122 . S
C4066 N200 1.110 . S
C4081 N233 1.195 . S
C4093 C667 1.059 . S
C4108 N68 1.078 . S
C4120 C700 1.158 . S
C4135 C733 1.154 . S
C4147 N101 1.143 . S
C4162 N35 1.197 . S
C4174 C766 1.059 . S
C4189 C799 1.195 . S
C4201 N1058 1.090 . S
C4216 N1091 1.186 . S
C4228 C832 1.061 . S
C4243 C865 1.143 . S
C4255 N1124 1.091 . S
C4270 C898 1.199 . S
C4282 N1157 1.063 . S
C4297 C931 1.186 . S
C4309 N1190 1.104 . S
C4324 C964 1.103 . S
C4336 N1223 1.128 . S
C4351 C997 1.199 . S
C4363 N1256 1.078 . S
C4378 C1030 1.153 . S
C4390 N1289 1.083 . S
C4405 C1063 1.059 . S
C4417 N1322 1.198 . S
C4432 C1096 1.060 . S
C4444 N1553 1.199 . S
C4459 C1129 1.181 . S
C4471 N1487 1.111 . S
C4486 N1520 1.200 . S
C4498 C1162 1.077 . S
C4513 N1355 1.201 . S
C4525 C1195 1.062 . S
C4540 C1228 1.198 . S
C4552 N1388 1.062 . S
C4567 N1421 1.190 . S
C4579 C1261 1.060 . S
C4594 C1294 1.060 . S
C4606 N1454 1.199 . S
C4621 C1327 1.126 . S
C4633 N794 1.169 . S
C4648 N926 1.066 . S
C4660 C1360 1.200 . S
C4675 N959 1.082 . S
C4687 C1393 1.196 . S
C4702 N992 1.195 . S
C4714 C1426 1.089 . S
C4729 N1025 1.112 . S
C4741 C1459 1.179 . S
C4756 N860 1.201 . S
C4768 C1492 1.064 . S
C4783 N893 1.092 . S
C4795 C1525 1.192 . S
C4810 N827 1.109 . S
C4822 C1558 1.122 . S
