# Generated by pormake.
# Topology wjd, (6)-cn, num edge types: 1
# Building blocks:
#     Node 0, Type 0, BuildingBlock: PAMTOO_clean_sbu_0, # of connection points: 6
#     Node 1, Type 0, BuildingBlock: PAMTOO_clean_sbu_0, # of connection points: 6
#     Node 2, Type 0, BuildingBlock: PAMTOO_clean_sbu_0, # of connection points: 6
#     Node 3, Type 0, BuildingBlock: PAMTOO_clean_sbu_0, # of connection points: 6
#     Node 4, Type 0, BuildingBlock: PAMTOO_clean_sbu_0, # of connection points: 6
#     Node 5, Type 0, BuildingBlock: PAMTOO_clean_sbu_0, # of connection points: 6
#     Node 6, Type 0, BuildingBlock: PAMTOO_clean_sbu_0, # of connection points: 6
#     Node 7, Type 0, BuildingBlock: PAMTOO_clean_sbu_0, # of connection points: 6
#     Node 8, Type 0, BuildingBlock: PAMTOO_clean_sbu_0, # of connection points: 6
#     Node 9, Type 0, BuildingBlock: PAMTOO_clean_sbu_0, # of connection points: 6
#     Node 10, Type 0, BuildingBlock: PAMTOO_clean_sbu_0, # of connection points: 6
#     Node 11, Type 0, BuildingBlock: PAMTOO_clean_sbu_0, # of connection points: 6
#     Edge 12, Type (0, 0), BuildingBlock: EZIPEK_clean_linker_0, # of connection points: 2
#     Edge 13, Type (0, 0), BuildingBlock: EZIPEK_clean_linker_0, # of connection points: 2
#     Edge 14, Type (0, 0), BuildingBlock: EZIPEK_clean_linker_0, # of connection points: 2
#     Edge 15, Type (0, 0), BuildingBlock: EZIPEK_clean_linker_0, # of connection points: 2
#     Edge 16, Type (0, 0), BuildingBlock: EZIPEK_clean_linker_0, # of connection points: 2
#     Edge 17, Type (0, 0), BuildingBlock: EZIPEK_clean_linker_0, # of connection points: 2
#     Edge 18, Type (0, 0), BuildingBlock: EZIPEK_clean_linker_0, # of connection points: 2
#     Edge 19, Type (0, 0), BuildingBlock: EZIPEK_clean_linker_0, # of connection points: 2
#     Edge 20, Type (0, 0), BuildingBlock: EZIPEK_clean_linker_0, # of connection points: 2
#     Edge 21, Type (0, 0), BuildingBlock: EZIPEK_clean_linker_0, # of connection points: 2
#     Edge 22, Type (0, 0), BuildingBlock: EZIPEK_clean_linker_0, # of connection points: 2
#     Edge 23, Type (0, 0), BuildingBlock: EZIPEK_clean_linker_0, # of connection points: 2
#     Edge 24, Type (0, 0), BuildingBlock: EZIPEK_clean_linker_0, # of connection points: 2
#     Edge 25, Type (0, 0), BuildingBlock: EZIPEK_clean_linker_0, # of connection points: 2
#     Edge 26, Type (0, 0), BuildingBlock: EZIPEK_clean_linker_0, # of connection points: 2
#     Edge 27, Type (0, 0), BuildingBlock: EZIPEK_clean_linker_0, # of connection points: 2
#     Edge 28, Type (0, 0), BuildingBlock: EZIPEK_clean_linker_0, # of connection points: 2
#     Edge 29, Type (0, 0), BuildingBlock: EZIPEK_clean_linker_0, # of connection points: 2
#     Edge 30, Type (0, 0), BuildingBlock: EZIPEK_clean_linker_0, # of connection points: 2
#     Edge 31, Type (0, 0), BuildingBlock: EZIPEK_clean_linker_0, # of connection points: 2
#     Edge 32, Type (0, 0), BuildingBlock: EZIPEK_clean_linker_0, # of connection points: 2
#     Edge 33, Type (0, 0), BuildingBlock: EZIPEK_clean_linker_0, # of connection points: 2
#     Edge 34, Type (0, 0), BuildingBlock: EZIPEK_clean_linker_0, # of connection points: 2
#     Edge 35, Type (0, 0), BuildingBlock: EZIPEK_clean_linker_0, # of connection points: 2
#     Edge 36, Type (0, 0), BuildingBlock: EZIPEK_clean_linker_0, # of connection points: 2
#     Edge 37, Type (0, 0), BuildingBlock: EZIPEK_clean_linker_0, # of connection points: 2
#     Edge 38, Type (0, 0), BuildingBlock: EZIPEK_clean_linker_0, # of connection points: 2
#     Edge 39, Type (0, 0), BuildingBlock: EZIPEK_clean_linker_0, # of connection points: 2
#     Edge 40, Type (0, 0), BuildingBlock: EZIPEK_clean_linker_0, # of connection points: 2
#     Edge 41, Type (0, 0), BuildingBlock: EZIPEK_clean_linker_0, # of connection points: 2
#     Edge 42, Type (0, 0), BuildingBlock: EZIPEK_clean_linker_0, # of connection points: 2
#     Edge 43, Type (0, 0), BuildingBlock: EZIPEK_clean_linker_0, # of connection points: 2
#     Edge 44, Type (0, 0), BuildingBlock: EZIPEK_clean_linker_0, # of connection points: 2
#     Edge 45, Type (0, 0), BuildingBlock: EZIPEK_clean_linker_0, # of connection points: 2
#     Edge 46, Type (0, 0), BuildingBlock: EZIPEK_clean_linker_0, # of connection points: 2
#     Edge 47, Type (0, 0), BuildingBlock: EZIPEK_clean_linker_0, # of connection points: 2
# Relax obj value: 0.095
# Max RMSD: 0.232
# Mean RMSD: 0.232
data_MOF--net-wjd--node1-PAMTOO_clean_sbu_0--edge1-EZIPEK_clean_linker_0
_symmetry_space_group_name_H-M    P1
_symmetry_Int_Tables_number       1
_symmetry_cell_setting            triclinic
loop_
_symmetry_equiv_pos_as_xyz
'x, y, z'
_cell_length_a     31.644166
_cell_length_b     31.842382
_cell_length_c     39.175043
_cell_angle_alpha  90.246587
_cell_angle_beta   89.715769
_cell_angle_gamma 119.93007
loop_
_atom_site_label
_atom_site_type_symbol
_atom_site_fract_x
_atom_site_fract_y
_atom_site_fract_z
_atom_type_partial_charge
Dy0 Dy 0.33703 0.0897 0.1347 0.0
Dy1 Dy 0.40697 0.1955 0.09544 0.0
C2 C 0.34134 0.09562 0.05406 0.0
O3 O 0.41493 0.1055 0.13969 0.0
O4 O 0.44218 0.15017 0.09063 0.0
O5 O 0.30727 1.01225 0.13914 0.0
O6 O 0.27987 0.04873 0.17139 0.0
O7 O 0.42862 0.21054 0.15097 0.0
O8 O 0.36986 0.14067 0.17777 0.0
O9 O 0.34671 0.20137 0.11995 0.0
O10 O 0.29026 0.1206 0.11767 0.0
O11 O 0.41843 0.26064 0.0694 0.0
O12 O 0.47809 0.24663 0.07574 0.0
C13 C 0.44842 0.12667 0.11566 0.0
O14 O 0.34133 0.07157 0.08091 0.0
O15 O 0.35701 0.14269 0.05507 0.0
C16 C 0.22225 0.97211 0.15029 0.0
C17 C 0.1239 0.90881 0.13265 0.0
C18 C 0.15758 0.9385 0.10775 0.0
C19 C 0.20634 0.97008 0.11654 0.0
C20 C 0.18859 0.94242 0.17512 0.0
C21 C 0.1398 0.91099 0.16638 0.0
C22 C 0.27291 1.00717 0.16018 0.0
C23 C 0.40689 0.18498 0.17853 0.0
C24 C 0.30148 0.1661 0.12103 0.0
C25 C 0.49943 0.32949 0.07551 0.0
C26 C 0.56663 0.42837 0.0893 0.0
C27 C 0.58314 0.39573 0.08232 0.0
C28 C 0.55001 0.34698 0.07539 0.0
C29 C 0.48284 0.36224 0.08276 0.0
C30 C 0.51617 0.41123 0.08971 0.0
C31 C 0.46537 0.2779 0.06629 0.0
H32 H 0.1461 0.93723 0.08158 0.0
H33 H 0.23156 0.99313 0.09704 0.0
H34 H 0.19996 0.94383 0.20135 0.0
H35 H 0.11439 0.88827 0.18592 0.0
H36 H 0.62186 0.40816 0.08191 0.0
H37 H 0.56412 0.32297 0.06958 0.0
H38 H 0.44423 0.35019 0.08279 0.0
H39 H 0.50269 0.43585 0.09509 0.0
Dy40 Dy 0.8397 0.65617 0.38862 0.0
Dy41 Dy 0.79404 0.72343 0.36297 0.0
C42 C 0.82146 0.66827 0.31056 0.0
O43 O 0.90533 0.72993 0.38913 0.0
O44 O 0.87597 0.76897 0.35548 0.0
O45 O 0.84539 0.59561 0.37258 0.0
O46 O 0.87934 0.63068 0.4212 0.0
O47 O 0.82257 0.74619 0.41523 0.0
O48 O 0.80692 0.67275 0.43502 0.0
O49 O 0.72858 0.65376 0.38135 0.0
O50 O 0.7616 0.60394 0.37871 0.0
O51 O 0.75025 0.75675 0.37312 0.0
O52 O 0.78862 0.76941 0.32495 0.0
C53 C 0.91221 0.767 0.3705 0.0
O54 O 0.85435 0.67318 0.33288 0.0
O55 O 0.78532 0.67464 0.31967 0.0
C56 C 0.8847 0.5588 0.40193 0.0
C57 C 0.91478 0.4891 0.40155 0.0
C58 C 0.87634 0.48308 0.38077 0.0
C59 C 0.86144 0.51746 0.38095 0.0
C60 C 0.92294 0.56468 0.42319 0.0
C61 C 0.938 0.52997 0.42295 0.0
C62 C 0.87072 0.59653 0.3989 0.0
C63 C 0.80944 0.71498 0.44006 0.0
C64 C 0.72399 0.61019 0.38223 0.0
C65 C 0.78881 0.83564 0.3512 0.0
C66 C 0.8346 0.93582 0.36327 0.0
C67 C 0.85502 0.90885 0.37598 0.0
C68 C 0.83231 0.8591 0.36996 0.0
C69 C 0.76855 0.8626 0.33816 0.0
C70 C 0.79139 0.9126 0.34418 0.0
C71 C 0.76527 0.78316 0.34553 0.0
H72 H 0.85778 0.45158 0.36435 0.0
H73 H 0.83181 0.51175 0.36427 0.0
H74 H 0.94167 0.59637 0.43937 0.0
H75 H 0.9676 0.53489 0.43935 0.0
H76 H 0.88825 0.92628 0.39086 0.0
H77 H 0.8485 0.8388 0.38016 0.0
H78 H 0.73507 0.845 0.32358 0.0
H79 H 0.77519 0.93307 0.33435 0.0
Dy80 Dy 0.98006 0.26404 0.13694 0.0
Dy81 Dy 0.87163 0.22152 0.09886 0.0
C82 C 0.97256 0.26247 0.05659 0.0
O83 O 0.96006 0.32293 0.14248 0.0
O84 O 0.91192 0.30188 0.09468 0.0
O85 O 1.02362 0.25539 0.17554 0.0
O86 O 0.05848 0.31176 0.13781 0.0
O87 O 0.85611 0.22525 0.15472 0.0
O88 O 0.92833 0.24033 0.18025 0.0
O89 O 0.87142 0.15825 0.12235 0.0
O90 O 0.95362 0.18785 0.11867 0.0
O91 O 0.80787 0.16492 0.07273 0.0
O92 O 0.81533 0.2354 0.08141 0.0
C93 C 0.93603 0.33263 0.11919 0.0
O94 O 0.99574 0.28788 0.08334 0.0
O95 O 0.92599 0.22851 0.05785 0.0
C96 C 0.09921 0.26972 0.15418 0.0
C97 C 0.16296 0.23315 0.14188 0.0
C98 C 0.11778 0.21294 0.12518 0.0
C99 C 0.08625 0.23118 0.13118 0.0
C100 C 0.14442 0.29011 0.17074 0.0
C101 C 0.17613 0.27205 0.16458 0.0
C102 C 0.06483 0.28723 0.16181 0.0
C103 C 0.88267 0.22961 0.18177 0.0
C104 C 0.90888 0.15152 0.12217 0.0
C105 C 0.73521 0.16887 0.0821 0.0
C106 C 0.63801 0.14093 0.10009 0.0
C107 C 0.67478 0.1588 0.12503 0.0
C108 C 0.72301 0.17263 0.11612 0.0
C109 C 0.69797 0.14855 0.05763 0.0
C110 C 0.64977 0.13465 0.06654 0.0
C111 C 0.78677 0.19113 0.07103 0.0
H112 H 0.10691 0.18296 0.10759 0.0
H113 H 0.05152 0.2149 0.11812 0.0
H114 H 0.15503 0.31971 0.18864 0.0
H115 H 0.21081 0.28814 0.1777 0.0
H116 H 0.66661 0.16445 0.15096 0.0
H117 H 0.75114 0.18842 0.13542 0.0
H118 H 0.70657 0.14557 0.03124 0.0
H119 H 0.62212 0.12148 0.04685 0.0
Dy120 Dy 0.40169 0.18919 0.40151 0.0
Dy121 Dy 0.33597 0.08288 0.36193 0.0
C122 C 0.40627 0.17964 0.31883 0.0
O123 O 0.34202 0.19142 0.3733 0.0
O124 O 0.2875 0.11136 0.37991 0.0
O125 O 0.40599 0.25155 0.42795 0.0
O126 O 0.47067 0.24569 0.42031 0.0
O127 O 0.34243 0.06465 0.41501 0.0
O128 O 0.35545 0.1341 0.44233 0.0
O129 O 0.41399 0.09828 0.35897 0.0
O130 O 0.44419 0.15092 0.40472 0.0
O131 O 0.28548 0.0426 0.32158 0.0
O132 O 0.30123 1.00437 0.3604 0.0
C133 C 0.29711 0.15566 0.37363 0.0
O134 O 0.4255 0.20568 0.34661 0.0
O135 O 0.37107 0.13431 0.31918 0.0
C136 C 0.48199 0.32489 0.41971 0.0
C137 C 0.54942 0.4231 0.40489 0.0
C138 C 0.53935 0.38676 0.38056 0.0
C139 C 0.50583 0.33807 0.38785 0.0
C140 C 0.48999 0.36154 0.4432 0.0
C141 C 0.5233 0.41023 0.43584 0.0
C142 C 0.45345 0.27336 0.43025 0.0
C143 C 0.34174 0.08735 0.44262 0.0
C144 C 0.44864 0.12345 0.38157 0.0
C145 C 0.21935 0.9687 0.34147 0.0
C146 C 0.11817 0.90705 0.35244 0.0
C147 C 0.13853 0.95761 0.35306 0.0
C148 C 0.18868 0.98816 0.34785 0.0
C149 C 0.19901 0.91817 0.34109 0.0
C150 C 0.1489 0.88761 0.34658 0.0
C151 C 0.27236 1.00072 0.33552 0.0
H152 H 0.5593 0.39577 0.35666 0.0
H153 H 0.5003 0.31052 0.36925 0.0
H154 H 0.4722 0.3523 0.46793 0.0
H155 H 0.53077 0.43759 0.45508 0.0
H156 H 0.11552 0.97337 0.3574 0.0
H157 H 0.20339 0.02701 0.34859 0.0
H158 H 0.22188 0.90233 0.3364 0.0
H159 H 0.13392 0.84872 0.34589 0.0
Dy160 Dy 0.80661 0.7329 0.12129 0.0
Dy161 Dy 0.84601 0.66264 0.08569 0.0
C162 C 0.81447 0.72816 0.0413 0.0
O163 O 0.73848 0.66319 0.10737 0.0
O164 O 0.77017 0.61184 0.10368 0.0
O165 O 0.76371 0.76852 0.11906 0.0
O166 O 0.81002 0.77969 0.1626 0.0
O167 O 0.85989 0.66612 0.14223 0.0
O168 O 0.79986 0.68102 0.16127 0.0
O169 O 0.90706 0.73879 0.08048 0.0
O170 O 0.88817 0.77173 0.12613 0.0
O171 O 0.90666 0.65141 0.0749 0.0
O172 O 0.83426 0.5976 0.05915 0.0
C173 C 0.73289 0.6193 0.10507 0.0
O174 O 0.82563 0.75678 0.06783 0.0
O175 O 0.8153 0.68711 0.04288 0.0
C176 C 0.80471 0.84676 0.14319 0.0
C177 C 0.84552 0.94778 0.13605 0.0
C178 C 0.86667 0.92367 0.11931 0.0
C179 C 0.84627 0.87349 0.12278 0.0
C180 C 0.78382 0.87086 0.16019 0.0
C181 C 0.80406 0.92106 0.15661 0.0
C182 C 0.78327 0.7939 0.14664 0.0
C183 C 0.83201 0.66739 0.16674 0.0
C184 C 0.92003 0.77175 0.10448 0.0
C185 C 0.88935 0.57019 0.07423 0.0
C186 C 0.9108 0.49852 0.09672 0.0
C187 C 0.89583 0.52219 0.12015 0.0
C188 C 0.8852 0.55779 0.10899 0.0
C189 C 0.90477 0.54688 0.05098 0.0
C190 C 0.91536 0.51137 0.06209 0.0
C191 C 0.87967 0.60847 0.06188 0.0
H192 H 0.8986 0.94362 0.10332 0.0
H193 H 0.86266 0.85538 0.10942 0.0
H194 H 0.75176 0.85084 0.17605 0.0
H195 H 0.78723 0.93906 0.16967 0.0
H196 H 0.89173 0.51259 0.14693 0.0
H197 H 0.87366 0.57555 0.12742 0.0
H198 H 0.90854 0.55611 0.02412 0.0
H199 H 0.92647 0.49336 0.04358 0.0
Dy200 Dy 0.86821 0.20627 0.40466 0.0
Dy201 Dy 0.97513 0.24908 0.36544 0.0
C202 C 0.88127 0.22195 0.32318 0.0
O203 O 0.89297 0.15286 0.41263 0.0
O204 O 0.93331 0.16795 0.36247 0.0
O205 O 0.79776 0.14333 0.41401 0.0
O206 O 0.81462 0.21238 0.43592 0.0
O207 O 0.98771 0.23616 0.41895 0.0
O208 O 0.9266 0.2434 0.44523 0.0
O209 O 0.97082 0.31477 0.38173 0.0
O210 O 0.8875 0.28053 0.38865 0.0
O211 O 0.05358 0.29475 0.36372 0.0
O212 O 1.01576 0.24451 0.32249 0.0
C213 C 0.91233 0.13917 0.3886 0.0
O214 O 0.8546 0.19308 0.3481 0.0
O215 O 0.92685 0.25525 0.3277 0.0
C216 C 0.73214 0.15839 0.42034 0.0
C217 C 0.63797 0.13954 0.40152 0.0
C218 C 0.67497 0.15345 0.3768 0.0
C219 C 0.7217 0.16285 0.38614 0.0
C220 C 0.695 0.14387 0.4449 0.0
C221 C 0.64836 0.13457 0.4356 0.0
C222 C 0.78094 0.16743 0.43069 0.0
C223 C 0.97018 0.24722 0.4456 0.0
C224 C 0.93147 0.31844 0.38664 0.0
C225 C 0.09259 0.2545 0.33923 0.0
C226 C 0.15661 0.21754 0.34761 0.0
C227 C 0.16731 0.26191 0.36251 0.0
C228 C 0.13568 0.28027 0.3583 0.0
C229 C 0.08263 0.21054 0.32364 0.0
C230 C 0.11423 0.19212 0.32796 0.0
C231 C 0.05787 0.27297 0.33671 0.0
H232 H 0.66787 0.15788 0.35043 0.0
H233 H 0.74974 0.17383 0.36672 0.0
H234 H 0.70215 0.13995 0.47137 0.0
H235 H 0.62055 0.1243 0.45511 0.0
H236 H 0.19995 0.28207 0.37769 0.0
H237 H 0.1446 0.31437 0.37039 0.0
H238 H 0.05007 0.18992 0.30849 0.0
H239 H 0.10546 0.15785 0.31623 0.0
Dy240 Dy 0.21035 0.381 0.59978 0.0
Dy241 Dy 0.10254 0.31333 0.63655 0.0
C242 C 0.19355 0.37652 0.68203 0.0
O243 O 0.19413 0.30518 0.59257 0.0
O244 O 0.14511 0.27363 0.63926 0.0
O245 O 0.28275 0.39234 0.591 0.0
O246 O 0.26212 0.44193 0.56938 0.0
O247 O 0.09296 0.28965 0.58288 0.0
O248 O 0.1542 0.3574 0.55741 0.0
O249 O 0.10621 0.38475 0.62511 0.0
O250 O 0.18914 0.43424 0.61789 0.0
O251 O 1.02416 0.28138 0.63566 0.0
O252 O 0.05855 0.26356 0.67629 0.0
C253 C 0.17544 0.27251 0.61661 0.0
O254 O 0.22183 0.37807 0.65661 0.0
O255 O 0.14772 0.36346 0.67741 0.0
C256 C 0.34584 0.47288 0.58274 0.0
C257 C 0.43999 0.55028 0.59735 0.0
C258 C 0.39963 0.5438 0.61672 0.0
C259 C 0.35277 0.50519 0.60952 0.0
C260 C 0.38632 0.4789 0.56393 0.0
C261 C 0.43299 0.51726 0.57115 0.0
C262 C 0.2972 0.43227 0.57398 0.0
C263 C 0.11106 0.31752 0.5562 0.0
C264 C 0.14509 0.42816 0.62132 0.0
C265 C 0.98629 0.20028 0.65324 0.0
C266 C 0.92689 0.1014 0.63743 0.0
C267 C 0.9739 0.12787 0.62349 0.0
C268 C 1.00335 0.17696 0.63128 0.0
C269 C 0.93924 0.17393 0.66717 0.0
C270 C 0.9096 0.12467 0.65926 0.0
C271 C 1.01772 0.25212 0.66088 0.0
H272 H 0.40431 0.56916 0.63686 0.0
H273 H 0.322 0.50088 0.62452 0.0
H274 H 0.38173 0.45416 0.54334 0.0
H275 H 0.46358 0.52186 0.55579 0.0
H276 H 0.98775 0.11048 0.60657 0.0
H277 H 1.03952 0.19679 0.62016 0.0
H278 H 0.92548 0.19142 0.68406 0.0
H279 H 0.87336 0.10466 0.67021 0.0
Dy280 Dy 0.27003 0.96224 0.8652 0.0
Dy281 Dy 0.2247 0.85493 0.90283 0.0
C282 C 0.26273 0.95514 0.94453 0.0
O283 O 0.33453 0.95455 0.88113 0.0
O284 O 0.29704 0.87129 0.88271 0.0
O285 O 0.31871 0.03978 0.8663 0.0
O286 O 0.2668 1.00725 0.82523 0.0
O287 O 0.21041 0.84224 0.84631 0.0
O288 O 0.27175 0.91443 0.82477 0.0
O289 O 0.1688 0.87745 0.90883 0.0
O290 O 0.18846 0.92189 0.86038 0.0
O291 O 0.16276 0.78327 0.91081 0.0
O292 O 0.23135 0.80383 0.93556 0.0
C293 C 0.3365 0.91409 0.88276 0.0
O294 O 0.25055 0.97102 0.91789 0.0
O295 O 0.26154 0.91305 0.94368 0.0
C296 C 0.27743 0.08016 0.84847 0.0
C297 C 0.2389 0.14131 0.86321 0.0
C298 C 0.22284 0.09807 0.88137 0.0
C299 C 0.24199 0.06783 0.87412 0.0
C300 C 0.29352 0.12336 0.83018 0.0
C301 C 0.27444 0.15387 0.83756 0.0
C302 C 0.29674 0.04739 0.84097 0.0
C303 C 0.23782 0.86905 0.82081 0.0
C304 C 0.15718 0.89868 0.88504 0.0
C305 C 0.18087 0.72064 0.92087 0.0
C306 C 0.1681 0.62778 0.90651 0.0
C307 C 0.19946 0.66793 0.88631 0.0
C308 C 0.20576 0.71403 0.89339 0.0
C309 C 0.14904 0.68039 0.94065 0.0
C310 C 0.14272 0.63443 0.93358 0.0
C311 C 0.18715 0.7688 0.92934 0.0
H312 H 0.19555 0.08782 0.90126 0.0
H313 H 0.22901 0.03468 0.88853 0.0
H314 H 0.32075 0.13346 0.81028 0.0
H315 H 0.28729 0.18716 0.82332 0.0
H316 H 0.21963 0.66368 0.86545 0.0
H317 H 0.23031 0.74454 0.87768 0.0
H318 H 0.12934 0.68461 0.96186 0.0
H319 H 0.11861 0.6041 0.9496 0.0
Dy320 Dy 0.68442 0.83247 0.59076 0.0
Dy321 Dy 0.74489 0.78645 0.63022 0.0
C322 C 0.68448 0.82229 0.67318 0.0
O323 O 0.76337 0.88775 0.58612 0.0
O324 O 0.78682 0.86741 0.63496 0.0
O325 O 0.67622 0.89439 0.57976 0.0
O326 O 0.62519 0.82437 0.5584 0.0
O327 O 0.77374 0.80512 0.57769 0.0
O328 O 0.70473 0.7932 0.55112 0.0
O329 O 0.67209 0.72297 0.61489 0.0
O330 O 0.62795 0.76241 0.61255 0.0
O331 O 0.77329 0.73717 0.62908 0.0
O332 O 0.79202 0.78819 0.67069 0.0
C333 C 0.79582 0.89855 0.61027 0.0
O334 O 0.68427 0.8479 0.64688 0.0
O335 O 0.69647 0.78846 0.67039 0.0
C336 C 0.59382 0.87626 0.57372 0.0
C337 C 0.51601 0.89265 0.59071 0.0
C338 C 0.5567 0.90939 0.61222 0.0
C339 C 0.59513 0.90113 0.60391 0.0
C340 C 0.55299 0.85945 0.55233 0.0
C341 C 0.51444 0.86747 0.56075 0.0
C342 C 0.63507 0.86887 0.56365 0.0
C343 C 0.7457 0.79172 0.5509 0.0
C344 C 0.63015 0.72242 0.61327 0.0
C345 C 0.85464 0.7769 0.64799 0.0
C346 C 0.95517 0.81523 0.63538 0.0
C347 C 0.9293 0.83423 0.61865 0.0
C348 C 0.87947 0.81507 0.62474 0.0
C349 C 0.88025 0.75744 0.66453 0.0
C350 C 0.93022 0.77632 0.65813 0.0
C351 C 0.80235 0.75827 0.65485 0.0
H352 H 0.55873 0.92896 0.6354 0.0
H353 H 0.62598 0.91454 0.62103 0.0
H354 H 0.55105 0.84036 0.52891 0.0
H355 H 0.48346 0.8543 0.54377 0.0
H356 H 0.9478 0.86407 0.60092 0.0
H357 H 0.86033 0.83035 0.61148 0.0
H358 H 0.86171 0.72789 0.68246 0.0
H359 H 0.94957 0.76112 0.67121 0.0
Dy360 Dy 0.11092 0.32812 0.86672 0.0
Dy361 Dy 0.21661 0.38806 0.90637 0.0
C362 C 0.11386 0.3262 0.94672 0.0
O363 O 0.117 0.3989 0.884 0.0
O364 O 0.20062 0.44426 0.88687 0.0
O365 O 1.0329 0.29817 0.86387 0.0
O366 O 0.0708 0.28306 0.82375 0.0
O367 O 0.2304 0.38305 0.85039 0.0
O368 O 0.16223 0.3807 0.829 0.0
O369 O 0.19283 0.31005 0.91382 0.0
O370 O 0.1492 0.28473 0.86494 0.0
O371 O 0.2882 0.39754 0.91501 0.0
O372 O 0.26813 0.44653 0.93887 0.0
C373 C 0.15766 0.44112 0.88668 0.0
O374 O 0.0966 0.29967 0.91932 0.0
O375 O 0.15739 0.36579 0.94691 0.0
C376 C 0.99502 0.21846 0.84166 0.0
C377 C 0.93197 0.11773 0.84936 0.0
C378 C 0.9645 0.14484 0.8755 0.0
C379 C 0.99584 0.19474 0.87165 0.0
C380 C 0.96302 0.19127 0.81531 0.0
C381 C 0.93168 0.14124 0.81913 0.0
C382 C 1.02865 0.27105 0.83752 0.0
C383 C 0.2065 0.38819 0.82488 0.0
C384 C 0.17119 0.27666 0.89034 0.0
C385 C 0.35058 0.47986 0.92095 0.0
C386 C 0.43844 0.56459 0.89976 0.0
C387 C 0.41269 0.52435 0.87762 0.0
C388 C 0.36873 0.48357 0.88767 0.0
C389 C 0.37877 0.51624 0.94442 0.0
C390 C 0.42241 0.55704 0.93429 0.0
C391 C 0.30348 0.43789 0.93195 0.0
H392 H 0.96519 0.12743 0.89902 0.0
H393 H 1.02067 0.21483 0.89217 0.0
H394 H 0.96216 0.20873 0.79186 0.0
H395 H 0.90673 0.12093 0.79871 0.0
H396 H 0.42578 0.52239 0.85266 0.0
H397 H 0.34919 0.4547 0.86935 0.0
H398 H 0.36707 0.51315 0.97079 0.0
H399 H 0.44343 0.58268 0.95408 0.0
Dy400 Dy 0.23106 0.84799 0.59658 0.0
Dy401 Dy 0.27589 0.95606 0.63301 0.0
C402 C 0.24111 0.86326 0.67816 0.0
O403 O 0.17397 0.86903 0.59005 0.0
O404 O 0.19423 0.91718 0.63688 0.0
O405 O 0.16935 0.7767 0.58782 0.0
O406 O 0.23979 0.79481 0.56698 0.0
O407 O 0.25971 0.96576 0.57978 0.0
O408 O 0.26313 0.90311 0.55372 0.0
O409 O 0.3417 0.9508 0.61757 0.0
O410 O 0.30584 0.8678 0.61444 0.0
O411 O 0.32431 0.03367 0.6318 0.0
O412 O 0.27279 1.00108 0.67329 0.0
C413 C 0.16253 0.89185 0.61306 0.0
O414 O 0.21372 0.83656 0.65275 0.0
O415 O 0.27657 0.90788 0.67359 0.0
C416 C 0.18701 0.71244 0.58328 0.0
C417 C 0.16708 0.61818 0.60156 0.0
C418 C 0.16035 0.64757 0.62534 0.0
C419 C 0.17041 0.69434 0.61635 0.0
C420 C 0.19394 0.68309 0.55965 0.0
C421 C 0.18415 0.6365 0.5687 0.0
C422 C 0.19497 0.76052 0.57237 0.0
C423 C 0.26737 0.94656 0.55256 0.0
C424 C 0.3448 0.91118 0.61465 0.0
C425 C 0.28426 0.07473 0.6511 0.0
C426 C 0.24823 0.13834 0.63835 0.0
C427 C 0.22244 0.09004 0.62702 0.0
C428 C 0.24077 0.05879 0.63282 0.0
C429 C 0.3102 0.12291 0.66236 0.0
C430 C 0.29256 0.15463 0.65576 0.0
C431 C 0.3028 0.04124 0.65762 0.0
H432 H 0.14718 0.63421 0.65082 0.0
H433 H 0.16473 0.7161 0.63514 0.0
H434 H 0.20646 0.69605 0.534 0.0
H435 H 0.18959 0.61452 0.54994 0.0
H436 H 0.18841 0.07673 0.61337 0.0
H437 H 0.22109 1.02218 0.62293 0.0
H438 H 0.34412 0.13604 0.67613 0.0
H439 H 0.31323 0.19181 0.66454 0.0
Dy440 Dy 0.74414 0.79921 0.85964 0.0
Dy441 Dy 0.68324 0.84645 0.89734 0.0
C442 C 0.74616 0.80929 0.93772 0.0
O443 O 0.67106 0.73646 0.87679 0.0
O444 O 0.62685 0.77581 0.87664 0.0
O445 O 0.77137 0.74921 0.86311 0.0
O446 O 0.79114 0.79767 0.81993 0.0
O447 O 0.68096 0.85682 0.84035 0.0
O448 O 0.69442 0.79657 0.81935 0.0
O449 O 0.76154 0.90394 0.89846 0.0
O450 O 0.78574 0.87995 0.85061 0.0
O451 O 0.67408 0.90839 0.90695 0.0
O452 O 0.62554 0.83974 0.93085 0.0
C453 C 0.62892 0.73579 0.87762 0.0
O454 O 0.77439 0.82456 0.91104 0.0
O455 O 0.70431 0.80892 0.93753 0.0
C456 C 0.85274 0.78681 0.84422 0.0
C457 C 0.95281 0.82555 0.8576 0.0
C458 C 0.92505 0.84007 0.87711 0.0
C459 C 0.87547 0.82072 0.87057 0.0
C460 C 0.88034 0.77208 0.82465 0.0
C461 C 0.93016 0.79119 0.83142 0.0
C462 C 0.80071 0.76836 0.83707 0.0
C463 C 0.68151 0.82942 0.81511 0.0
C464 C 0.79097 0.91398 0.87225 0.0
C465 C 0.59319 0.89059 0.91676 0.0
C466 C 0.51349 0.90409 0.90199 0.0
C467 C 0.52202 0.87202 0.88229 0.0
C468 C 0.5617 0.86538 0.88958 0.0
C469 C 0.5851 0.9232 0.93599 0.0
C470 C 0.54558 0.92989 0.92871 0.0
C471 C 0.63488 0.88393 0.92529 0.0
H472 H 0.94182 0.86635 0.89748 0.0
H473 H 0.85484 0.83237 0.88608 0.0
H474 H 0.86346 0.74603 0.80418 0.0
H475 H 0.9511 0.7795 0.8162 0.0
H476 H 0.49746 0.85152 0.86176 0.0
H477 H 0.56752 0.84028 0.87428 0.0
H478 H 0.60912 0.94318 0.95693 0.0
H479 H 0.53943 0.9545 0.94433 0.0
C480 C 0.22127 0.22144 0.10412 0.0
C481 C 0.19639 0.21331 0.13585 0.0
C482 C 0.23981 0.17301 0.15777 0.0
C483 C 0.26246 0.17871 0.12544 0.0
N484 N 0.26846 0.20007 0.06604 0.0
N485 N 0.1748 0.17346 0.19059 0.0
C486 C 0.25122 0.20042 0.09805 0.0
C487 C 0.20359 0.18675 0.16203 0.0
N488 N 0.21796 0.25098 0.08035 0.0
N489 N 0.25427 0.15619 0.18479 0.0
H490 H 0.14773 0.18258 0.19453 0.0
H491 H 0.17477 0.14994 0.20898 0.0
H492 H 0.27982 0.14474 0.1825 0.0
H493 H 0.24368 0.15687 0.2099 0.0
H494 H 0.23928 0.26259 0.05833 0.0
H495 H 0.19672 0.26728 0.08388 0.0
H496 H 0.25752 0.21066 0.04425 0.0
H497 H 0.29053 0.18507 0.06078 0.0
C498 C 0.04111 0.87004 0.38842 0.0
C499 C 0.06438 0.87423 0.35646 0.0
C500 C 0.98758 0.80873 0.33336 0.0
C501 C 0.96348 0.80651 0.36458 0.0
N502 N 0.96473 0.84277 0.41881 0.0
N503 N 0.05666 0.85613 0.29621 0.0
C504 C 0.98953 0.8396 0.39122 0.0
C505 C 1.03659 0.84621 0.32821 0.0
N506 N 0.0684 0.89355 0.41642 0.0
N507 N 0.96461 0.77367 0.30917 0.0
H508 H 0.09225 0.88369 0.29133 0.0
H509 H 1.03657 0.84032 0.27417 0.0
H510 H 0.92919 0.74523 0.31223 0.0
H511 H 0.98205 0.77035 0.28756 0.0
H512 H 0.05414 0.88781 0.44108 0.0
H513 H 0.1062 0.91579 0.41549 0.0
H514 H 0.98086 0.86909 0.43774 0.0
H515 H 0.92687 0.82211 0.42079 0.0
C516 C 0.90568 0.08306 0.15589 0.0
C517 C 0.89932 0.10106 0.12442 0.0
C518 C 0.85811 1.01884 0.10042 0.0
C519 C 0.86604 1.00095 0.13147 0.0
N520 N 0.90538 1.01663 0.1863 0.0
N521 N 0.87881 0.08872 0.06475 0.0
C522 C 0.89232 0.03332 0.15849 0.0
C523 C 0.87845 0.06968 0.09604 0.0
N524 N 0.92258 0.11305 0.18367 0.0
N525 N 0.82924 0.98712 0.07572 0.0
H526 H 0.89336 0.1258 0.06076 0.0
H527 H 0.86883 0.06854 0.04226 0.0
H528 H 0.81365 0.94964 0.0779 0.0
H529 H 0.81754 0.99751 0.05422 0.0
H530 H 0.92233 0.10091 0.20835 0.0
H531 H 0.934 0.14993 0.18247 0.0
H532 H 0.9287 0.03915 0.20527 0.0
H533 H 0.89613 0.98046 0.18905 0.0
C534 C 0.22705 0.16621 0.39308 0.0
C535 C 0.25724 0.166 0.36628 0.0
C536 C 0.22122 0.19914 0.32688 0.0
C537 C 0.18954 0.19739 0.35333 0.0
N538 N 0.15477 0.1697 0.40927 0.0
N539 N 0.27583 0.17176 0.30619 0.0
C540 C 0.19012 0.1779 0.38574 0.0
C541 C 0.25209 0.17929 0.33268 0.0
N542 N 0.23514 0.15742 0.42581 0.0
N543 N 0.22319 0.22145 0.29669 0.0
H544 H 0.29818 0.15671 0.30956 0.0
H545 H 0.27002 0.17625 0.28065 0.0
H546 H 0.20098 0.23617 0.29139 0.0
H547 H 0.24934 0.22872 0.2779 0.0
H548 H 0.2181 0.1623 0.44703 0.0
H549 H 0.26193 0.14888 0.432 0.0
H550 H 0.1502 0.151 0.43198 0.0
H551 H 0.12714 0.17779 0.40475 0.0
C552 C 1.03937 0.89112 0.11603 0.0
C553 C 0.07219 0.8741 0.12335 0.0
C554 C 1.005 0.79017 0.11926 0.0
C555 C 0.97283 0.80703 0.10949 0.0
N556 N 0.96162 0.87307 0.09171 0.0
N557 N 0.08855 0.80784 0.12455 0.0
C558 C 0.99068 0.85746 0.10592 0.0
C559 C 0.05565 0.82371 0.12271 0.0
N560 N 0.05422 0.9392 0.11981 0.0
N561 N 0.98697 0.74238 0.12694 0.0
H562 H 0.126 0.83128 0.12694 0.0
H563 H 0.07926 0.7719 0.12047 0.0
H564 H 0.95015 0.71659 0.12524 0.0
H565 H 1.00779 0.72908 0.13802 0.0
H566 H 1.03057 0.95299 0.11845 0.0
H567 H 0.08954 0.9649 0.12706 0.0
H568 H 0.97384 0.9091 0.08545 0.0
H569 H 0.92649 0.84918 0.08306 0.0
C570 C 0.89663 1.02249 0.35085 0.0
C571 C 0.8579 0.98816 0.37149 0.0
C572 C 0.86927 0.05261 0.41115 0.0
C573 C 0.90229 0.08771 0.38763 0.0
N574 N 0.96564 0.10391 0.34672 0.0
N575 N 0.8054 0.96974 0.42064 0.0
C576 C 0.92137 0.07214 0.36064 0.0
C577 C 0.84382 1.00298 0.40156 0.0
N578 N 0.90874 1.00784 0.32136 0.0
N579 N 0.8661 0.06585 0.44385 0.0
H580 H 0.78682 0.93272 0.41518 0.0
H581 H 0.78955 0.97927 0.44033 0.0
H582 H 0.89032 0.10001 0.45349 0.0
H583 H 0.84542 0.04135 0.46289 0.0
H584 H 0.93267 0.03185 0.30321 0.0
H585 H 0.89202 0.97163 0.31374 0.0
H586 H 0.98348 0.09414 0.32869 0.0
H587 H 0.98781 0.13833 0.35702 0.0
C588 C 0.21871 0.19376 0.66023 0.0
C589 C 0.2288 0.17188 0.63218 0.0
C590 C 0.19978 0.21242 0.59321 0.0
C591 C 0.19452 0.23814 0.62125 0.0
N592 N 0.21888 0.26574 0.67913 0.0
N593 N 0.23943 0.16943 0.57126 0.0
C594 C 0.20931 0.23217 0.65421 0.0
C595 C 0.22223 0.18367 0.5984 0.0
N596 N 0.21739 0.17767 0.6927 0.0
N597 N 0.18266 0.21443 0.56173 0.0
H598 H 0.25746 0.14976 0.57396 0.0
H599 H 0.24024 0.18128 0.54639 0.0
H600 H 0.16737 0.23589 0.55643 0.0
H601 H 0.18028 0.19192 0.54156 0.0
H602 H 0.20603 0.19007 0.71355 0.0
H603 H 0.22257 0.14854 0.69823 0.0
H604 H 0.23343 0.26491 0.70278 0.0
H605 H 0.21912 0.29796 0.6743 0.0
C606 C 0.09106 0.90838 0.85536 0.0
C607 C 0.10544 0.88898 0.88268 0.0
C608 C 1.01942 0.83131 0.8952 0.0
C609 C 1.00554 0.84647 0.8654 0.0
N610 N 1.02753 0.89842 0.81613 0.0
N611 N 0.08079 0.85276 0.93856 0.0
C612 C 0.04121 0.88484 0.84522 0.0
C613 C 0.06898 0.85624 0.9056 0.0
N614 N 0.12393 0.9522 0.84172 0.0
N615 N 0.98545 0.79203 0.91308 0.0
H616 H 0.11483 0.87658 0.94885 0.0
H617 H 0.05508 0.8322 0.9571 0.0
H618 H 0.9487 0.77272 0.90633 0.0
H619 H 0.99451 0.77594 0.93267 0.0
H620 H 0.11519 0.97027 0.82347 0.0
H621 H 0.15819 0.97411 0.85242 0.0
H622 H 0.05223 0.92167 0.79802 0.0
H623 H 0.99123 0.88385 0.80879 0.0
C624 C 0.84587 0.98501 0.58816 0.0
C625 C 0.83865 0.94942 0.61288 0.0
C626 C 0.89528 1.0138 0.65156 0.0
C627 C 0.89627 0.04905 0.62907 0.0
N628 N 0.87081 0.069 0.57663 0.0
N629 N 0.87896 0.93156 0.658 0.0
C630 C 0.87138 0.0349 0.59741 0.0
C631 C 0.86968 0.96408 0.64191 0.0
N632 N 0.83291 0.9716 0.55497 0.0
N633 N 0.91815 0.02769 0.68246 0.0
H634 H 0.8678 0.89724 0.64803 0.0
H635 H 0.90401 0.94076 0.67772 0.0
H636 H 0.93906 0.06386 0.6899 0.0
H637 H 0.91345 1.00327 0.70173 0.0
H638 H 0.84057 0.99615 0.5352 0.0
H639 H 0.82149 0.9366 0.54624 0.0
H640 H 0.84859 0.06036 0.55521 0.0
H641 H 0.88961 0.10596 0.58228 0.0
C642 C 0.15757 0.19851 0.86247 0.0
C643 C 0.17926 0.23371 0.88885 0.0
C644 C 0.23556 0.20357 0.90106 0.0
C645 C 0.21852 0.17339 0.87174 0.0
N646 N 0.16412 0.14241 0.82363 0.0
N647 N 0.21806 0.2476 0.94394 0.0
C648 C 0.17955 0.17076 0.85227 0.0
C649 C 0.21245 0.23014 0.91137 0.0
N650 N 0.11321 0.18803 0.84977 0.0
N651 N 0.27489 0.20806 0.91856 0.0
H652 H 0.19548 0.25945 0.95436 0.0
H653 H 0.239 0.24287 0.96229 0.0
H654 H 0.29254 0.18886 0.91208 0.0
H655 H 0.29256 0.23387 0.9376 0.0
H656 H 0.09346 0.16032 0.83235 0.0
H657 H 0.0927 0.20212 0.86055 0.0
H658 H 0.14023 0.14358 0.80599 0.0
H659 H 0.17784 0.12002 0.81616 0.0
C660 C 0.07601 0.8538 0.58974 0.0
C661 C 0.11036 0.88159 0.61552 0.0
C662 C 0.04251 0.86981 0.6531 0.0
C663 C 1.00862 0.83704 0.62903 0.0
N664 N 0.99271 0.79383 0.57572 0.0
N665 N 0.12422 0.93564 0.66314 0.0
C666 C 1.02528 0.82818 0.59761 0.0
C667 C 0.09323 0.89513 0.64501 0.0
N668 N 0.09139 0.85581 0.55683 0.0
N669 N 1.02632 0.87657 0.68394 0.0
H670 H 0.15896 0.96048 0.65453 0.0
H671 H 0.1133 0.94929 0.68341 0.0
H672 H 0.98947 0.8613 0.69011 0.0
H673 H 0.04938 0.8944 0.70438 0.0
H674 H 0.0678 0.83975 0.53634 0.0
H675 H 0.12705 0.87964 0.54912 0.0
H676 H 1.00315 0.78153 0.55438 0.0
H677 H 0.95528 0.77435 0.5805 0.0
C678 C 0.84643 0.05035 0.86033 0.0
C679 C 0.8962 0.06523 0.85452 0.0
C680 C 0.87802 0.9812 0.86255 0.0
C681 C 0.82755 0.96579 0.86528 0.0
N682 N 0.76307 0.98481 0.8585 0.0
N683 N 0.95863 0.04419 0.84475 0.0
C684 C 0.81158 1.00015 0.8619 0.0
C685 C 0.91181 0.03042 0.85405 0.0
N686 N 0.83249 0.08423 0.86545 0.0
N687 N 0.89396 0.94941 0.86954 0.0
H688 H 0.98431 0.07987 0.83857 0.0
H689 H 0.97089 1.01975 0.84044 0.0
H690 H 0.87039 0.91353 0.87644 0.0
H691 H 0.93064 0.95956 0.87146 0.0
H692 H 0.79769 0.07547 0.87368 0.0
H693 H 0.85681 0.12145 0.86462 0.0
H694 H 0.74978 1.00786 0.85229 0.0
H695 H 0.73636 0.94838 0.85808 0.0
C696 C 0.45234 0.18463 0.26575 0.0
C697 C 0.4248 0.20074 0.28467 0.0
C698 C 0.40182 0.22528 0.23197 0.0
C699 C 0.42517 0.2046 0.21301 0.0
N700 N 0.48387 0.17787 0.21057 0.0
N701 N 0.38634 0.24937 0.2876 0.0
C702 C 0.45481 0.18935 0.22963 0.0
C703 C 0.40435 0.22601 0.26829 0.0
N704 N 0.4734 0.16205 0.28227 0.0
N705 N 0.37464 0.24111 0.21521 0.0
H706 H 0.38793 0.25001 0.31421 0.0
H707 H 0.37358 0.27111 0.27747 0.0
H708 H 0.37404 0.24264 0.18861 0.0
H709 H 0.35164 0.25109 0.22737 0.0
H710 H 0.48918 0.1442 0.26998 0.0
H711 H 0.47352 0.15979 0.30878 0.0
H712 H 0.50928 0.16982 0.22081 0.0
H713 H 0.4852 0.18039 0.18405 0.0
C714 C 0.81441 0.62106 0.25713 0.0
C715 C 0.83091 0.66633 0.27377 0.0
C716 C 0.86826 0.70843 0.22066 0.0
C717 C 0.84313 0.66425 0.20282 0.0
N718 N 0.79564 0.57751 0.20294 0.0
N719 N 0.86747 0.75345 0.26977 0.0
C720 C 0.81762 0.62 0.22079 0.0
C721 C 0.85659 0.71022 0.2552 0.0
N722 N 0.79531 0.57951 0.27596 0.0
N723 N 0.90323 0.74868 0.20435 0.0
H724 H 0.85809 0.75633 0.29475 0.0
H725 H 0.88177 0.78571 0.25607 0.0
H726 H 0.91405 0.7469 0.17946 0.0
H727 H 0.92542 0.78144 0.21678 0.0
H728 H 0.78603 0.54577 0.26575 0.0
H729 H 0.79164 0.57938 0.30246 0.0
H730 H 0.77222 0.54397 0.21384 0.0
H731 H 0.80014 0.57644 0.17657 0.0
C732 C 0.84679 0.17667 0.23227 0.0
C733 C 0.86148 0.22178 0.21646 0.0
C734 C 0.86508 0.25803 0.27235 0.0
C735 C 0.86166 0.21648 0.28814 0.0
N736 N 0.84825 0.13502 0.2835 0.0
N737 N 0.88324 0.30558 0.22058 0.0
C738 C 0.85076 0.17479 0.26834 0.0
C739 C 0.86904 0.26228 0.23623 0.0
N740 N 0.83054 0.13611 0.21248 0.0
N741 N 0.86545 0.29362 0.29218 0.0
H742 H 0.88539 0.30928 0.19412 0.0
H743 H 0.89509 0.33805 0.23369 0.0
H744 H 0.86217 0.29075 0.31872 0.0
H745 H 0.86436 0.32339 0.28235 0.0
H746 H 0.81577 0.10125 0.22234 0.0
H747 H 0.82762 0.13718 0.18601 0.0
H748 H 0.84675 0.10613 0.26992 0.0
H749 H 0.85028 0.13181 0.3098 0.0
C750 C 0.23863 0.42756 0.73298 0.0
C751 C 0.21014 0.38114 0.7179 0.0
C752 C 0.2052 0.3437 0.77321 0.0
C753 C 0.22241 0.38897 0.78926 0.0
N754 N 0.2574 0.47525 0.7852 0.0
N755 N 0.15955 0.29434 0.72573 0.0
C756 C 0.24046 0.43155 0.76933 0.0
C757 C 0.19202 0.33888 0.73847 0.0
N758 N 0.26286 0.46746 0.71273 0.0
N759 N 0.20024 0.30505 0.79142 0.0
H760 H 0.14755 0.28883 0.70064 0.0
H761 H 0.14143 0.2635 0.74093 0.0
H762 H 0.21187 0.30855 0.81664 0.0
H763 H 0.1907 0.27169 0.78027 0.0
H764 H 0.28685 0.50188 0.72221 0.0
H765 H 0.26202 0.46513 0.68614 0.0
H766 H 0.26614 0.50711 0.7723 0.0
H767 H 0.26078 0.47881 0.81172 0.0
C768 C 0.18919 0.84949 0.7672 0.0
C769 C 0.228 0.84996 0.78551 0.0
C770 C 0.25988 0.83547 0.73241 0.0
C771 C 0.22822 0.84607 0.71384 0.0
N772 N 0.15862 0.85759 0.71232 0.0
N773 N 0.29874 0.84028 0.78668 0.0
C774 C 0.19084 0.8503 0.73087 0.0
C775 C 0.2625 0.84121 0.76847 0.0
N776 N 0.15149 0.84924 0.78457 0.0
N777 N 0.28656 0.81911 0.71536 0.0
H778 H 0.29998 0.84191 0.8133 0.0
H779 H 0.32838 0.83982 0.77543 0.0
H780 H 0.28285 0.81267 0.68908 0.0
H781 H 0.30807 0.80738 0.7274 0.0
H782 H 0.12013 0.84511 0.77297 0.0
H783 H 0.14961 0.84913 0.81113 0.0
H784 H 0.13469 0.86763 0.72286 0.0
H785 H 0.15654 0.85452 0.68583 0.0
C786 C 0.70731 0.87599 0.72468 0.0
C787 C 0.67324 0.83262 0.70791 0.0
C788 C 0.632 0.79873 0.76243 0.0
C789 C 0.67164 0.83745 0.77956 0.0
N790 N 0.74622 0.9144 0.77802 0.0
N791 N 0.59974 0.75497 0.70917 0.0
C792 C 0.70828 0.8773 0.76098 0.0
C793 C 0.63395 0.79497 0.72631 0.0
N794 N 0.73971 0.91525 0.70601 0.0
N795 N 0.5931 0.76544 0.78107 0.0
H796 H 0.59873 0.75291 0.68256 0.0
H797 H 0.57315 0.72359 0.72098 0.0
H798 H 0.59124 0.76831 0.80754 0.0
H799 H 0.56135 0.7375 0.77049 0.0
H800 H 0.76224 0.94936 0.71649 0.0
H801 H 0.74155 0.91516 0.67948 0.0
H802 H 0.77771 0.94113 0.76625 0.0
H803 H 0.74725 0.91737 0.80448 0.0
C804 C 0.2514 1.00343 0.99114 0.0
C805 C 0.28207 0.9889 0.97435 0.0
C806 C 0.35344 0.05458 0.00367 0.0
C807 C 0.32229 0.06637 0.02235 0.0
N808 N 0.24157 0.05057 0.03628 0.0
N809 N 0.36202 0.99834 0.9662 0.0
C810 C 0.27125 0.04057 0.01654 0.0
C811 C 0.33304 1.01378 0.98117 0.0
N812 N 0.20322 0.9819 0.98248 0.0
N813 N 0.40281 0.08336 0.00709 0.0
H814 H 0.34909 0.97012 0.9486 0.0
H815 H 0.39825 1.01113 0.97272 0.0
H816 H 0.41846 0.1137 0.02303 0.0
H817 H 0.42835 0.0801 0.99222 0.0
H818 H 0.18011 0.99458 0.99032 0.0
H819 H 0.18659 0.95222 0.96604 0.0
H820 H 0.20375 0.0292 0.03685 0.0
H821 H 0.25515 0.07946 0.05349 0.0
C822 C 0.82705 0.77257 0.4884 0.0
C823 C 0.79385 0.7282 0.47253 0.0
C824 C 0.72865 0.72311 0.50996 0.0
C825 C 0.76025 0.77116 0.52171 0.0
N826 N 0.83839 0.8445 0.51772 0.0
N827 N 0.71072 0.66347 0.46568 0.0
C828 C 0.80923 0.79665 0.50972 0.0
C829 C 0.74401 0.70393 0.48271 0.0
N830 N 0.87594 0.79107 0.48366 0.0
N831 N 0.68501 0.69456 0.5259 0.0
H832 H 0.72053 0.647 0.44678 0.0
H833 H 0.67317 0.6481 0.46892 0.0
H834 H 0.67284 0.70623 0.54661 0.0
H835 H 0.66307 0.65771 0.52078 0.0
H836 H 0.90242 0.82122 0.49678 0.0
H837 H 0.88971 0.77268 0.4695 0.0
H838 H 0.87286 0.86607 0.50711 0.0
H839 H 0.82615 0.86391 0.5322 0.0
C840 C 0.05637 0.33796 0.98498 0.0
C841 C 0.08016 0.31128 0.97672 0.0
C842 C 1.02727 0.2479 0.01774 0.0
C843 C 1.00235 0.27366 0.02491 0.0
N844 N 0.98757 0.33893 0.01238 0.0
N845 N 0.08472 0.23822 0.98195 0.0
C846 C 1.0154 0.31752 0.0076 0.0
C847 C 0.06442 0.26539 0.99213 0.0
N848 N 0.07294 0.38288 0.97117 0.0
N849 N 1.0167 0.20768 0.03648 0.0
H850 H 0.11433 0.25117 0.96524 0.0
H851 H 0.07094 0.20211 0.98872 0.0
H852 H 0.98793 0.19233 0.05393 0.0
H853 H 1.03764 0.1908 0.03604 0.0
H854 H 0.06101 0.40659 0.97872 0.0
H855 H 0.10124 0.39816 0.95346 0.0
H856 H 0.99177 0.36861 -0.00141 0.0
H857 H 0.95709 0.32424 0.0284 0.0
C858 C 0.3489 0.02931 0.48144 0.0
C859 C 0.32602 0.05693 0.47427 0.0
C860 C 0.25947 1.0054 0.51387 0.0
C861 C 0.28242 0.97749 0.52087 0.0
N862 N 0.34128 0.95459 0.50233 0.0
N863 N 0.26314 0.07603 0.48711 0.0
C864 C 0.32489 0.98696 0.50211 0.0
C865 C 0.2823 0.04636 0.49155 0.0
N866 N 0.39513 0.04511 0.46954 0.0
N867 N 0.21394 0.99033 0.5269 0.0
H868 H 0.27903 0.10605 0.47116 0.0
H869 H 0.23416 0.07382 0.5012 0.0
H870 H 0.19495 0.9587 0.54118 0.0
H871 H 0.19273 1.00586 0.52107 0.0
H872 H 0.41633 0.03005 0.4768 0.0
H873 H 0.41443 0.07692 0.45542 0.0
H874 H 0.36844 0.95702 0.48596 0.0
H875 H 0.32472 0.92231 0.51585 0.0
C876 C 0.82866 0.79468 0.00097 0.0
C877 C 0.80048 0.74488 0.00973 0.0
C878 C 0.73426 0.73727 0.97254 0.0
C879 C 0.76127 0.78796 0.96582 0.0
N880 N 0.83122 0.86613 0.97704 0.0
N881 N 0.73259 0.66601 0.99606 0.0
C882 C 0.80785 0.81688 0.98081 0.0
C883 C 0.75496 0.7153 0.99334 0.0
N884 N 0.87649 0.82007 0.01066 0.0
N885 N 0.68826 0.71012 0.95966 0.0
H886 H 0.74651 0.64816 0.01017 0.0
H887 H 0.70246 0.64201 0.98176 0.0
H888 H 0.67251 0.72387 0.94322 0.0
H889 H 0.6639 0.67475 0.9671 0.0
H890 H 0.90085 0.8552 0.00271 0.0
H891 H 0.8933 0.8039 0.02377 0.0
H892 H 0.86283 0.89001 0.99009 0.0
H893 H 0.81646 0.88367 0.96321 0.0
C894 C 0.06829 0.33471 0.50753 0.0
C895 C 0.07936 0.30214 0.52494 0.0
C896 C 1.01097 0.23356 0.49527 0.0
C897 C 1.0026 0.26605 0.476 0.0
N898 N 1.02753 0.34818 0.4601 0.0
N899 N 0.06776 0.22133 0.52868 0.0
C900 C 1.03251 0.31681 0.48109 0.0
C901 C 0.05246 0.25176 0.51681 0.0
N902 N 0.08987 0.38228 0.5171 0.0
N903 N 0.97845 0.18502 0.4935 0.0
H904 H 0.09897 0.23352 0.54339 0.0
H905 H 0.05279 0.18535 0.52096 0.0
H906 H 0.94729 0.17101 0.4784 0.0
H907 H 0.97951 0.15956 0.50955 0.0
H908 H 0.07859 0.40593 0.50835 0.0
H909 H 0.11681 0.39789 0.53559 0.0
H910 H 0.05244 0.38518 0.45905 0.0
H911 H 0.99976 0.33666 0.44221 0.0
C912 C 0.58535 0.17863 0.10787 0.0
C913 C 0.58947 0.13629 0.10764 0.0
C914 C 0.5004 0.0861 0.11528 0.0
C915 C 0.49675 0.12878 0.11713 0.0
N916 N 0.53764 0.21585 0.1234 0.0
N917 N 0.55286 0.05043 0.11673 0.0
C918 C 0.53986 0.17504 0.11593 0.0
C919 C 0.54752 0.09019 0.11319 0.0
N920 N 0.6245 0.22231 0.09889 0.0
N921 N 0.45895 0.04184 0.11361 0.0
H922 H 0.58666 0.05229 0.11478 0.0
H923 H 0.52469 1.01657 0.12419 0.0
H924 H 0.42408 0.03748 0.11512 0.0
H925 H 0.45893 1.00975 0.10836 0.0
H926 H 0.62202 0.25319 0.09424 0.0
H927 H 0.65883 0.22704 0.09318 0.0
H928 H 0.56832 0.24988 0.1268 0.0
H929 H 0.50529 0.21503 0.12968 0.0
C930 C 0.67524 0.53441 0.41662 0.0
C931 C 0.6763 0.56574 0.39037 0.0
C932 C 0.59061 0.50632 0.37713 0.0
C933 C 0.5923 0.47291 0.40024 0.0
N934 N 0.63984 0.45227 0.43737 0.0
N935 N 0.63626 0.5787 0.34265 0.0
C936 C 0.63556 0.48625 0.41879 0.0
C937 C 0.63411 0.5512 0.36998 0.0
N938 N 0.7117 0.55095 0.44028 0.0
N939 N 0.5473 0.49538 0.36234 0.0
H940 H 0.66732 0.61133 0.3364 0.0
H941 H 0.60861 0.56741 0.32462 0.0
H942 H 0.51519 0.46272 0.36676 0.0
H943 H 0.54234 0.52005 0.34802 0.0
H944 H 0.70996 0.53161 0.46214 0.0
H945 H 0.74138 0.58597 0.44014 0.0
H946 H 0.67263 0.45853 0.44795 0.0
H947 H 0.61204 0.41632 0.43954 0.0
C948 C 0.97301 0.42387 0.11438 0.0
C949 C 0.93192 0.37742 0.12054 0.0
C950 C 0.87736 0.41112 0.11308 0.0
C951 C 0.91838 0.45776 0.10771 0.0
N952 N 1.00532 0.51084 0.10981 0.0
N953 N 0.84609 0.32919 0.13344 0.0
C954 C 0.96629 0.46484 0.11054 0.0
C955 C 0.8845 0.37196 0.12238 0.0
N956 N 1.018 0.4284 0.11025 0.0
N957 N 0.83141 0.40354 0.10753 0.0
H958 H 0.84963 0.29949 0.14006 0.0
H959 H 0.8118 0.32448 0.13907 0.0
H960 H 0.82433 0.43116 0.10107 0.0
H961 H 0.80045 0.36928 0.10669 0.0
H962 H 0.04844 0.45995 0.10169 0.0
H963 H 1.02432 0.39948 0.11331 0.0
H964 H 0.04089 0.51911 0.11503 0.0
H965 H 1.00154 0.54134 0.10676 0.0
C966 C 0.53988 0.17076 0.37763 0.0
C967 C 0.49662 0.12488 0.38071 0.0
C968 C 0.54709 0.08727 0.3911 0.0
C969 C 0.5895 0.13396 0.39243 0.0
N970 N 0.62539 0.2209 0.39153 0.0
N971 N 0.45859 0.03981 0.39388 0.0
C972 C 0.58569 0.17589 0.38666 0.0
C973 C 0.50007 0.08303 0.38801 0.0
N974 N 0.5373 0.20961 0.36552 0.0
N975 N 0.55188 0.04698 0.39239 0.0
H976 H 0.42374 0.03528 0.39159 0.0
H977 H 0.45868 1.00935 0.40333 0.0
H978 H 0.58563 0.04891 0.39488 0.0
H979 H 0.52314 1.01201 0.38816 0.0
H980 H 0.56781 0.24248 0.35899 0.0
H981 H 0.50459 0.20762 0.35882 0.0
H982 H 0.62347 0.25261 0.39194 0.0
H983 H 0.65973 0.22654 0.39813 0.0
C984 C 0.6153 0.51562 0.06996 0.0
C985 C 0.60287 0.48048 0.09607 0.0
C986 C 0.66944 0.54092 0.13169 0.0
C987 C 0.68305 0.57545 0.10502 0.0
N988 N 0.66 0.60045 0.05382 0.0
N989 N 0.60993 0.46216 0.15456 0.0
C990 C 0.65291 0.56437 0.07583 0.0
C991 C 0.62742 0.49404 0.12789 0.0
N992 N 0.593 0.50185 0.03887 0.0
N993 N 0.69719 0.55305 0.16054 0.0
H994 H 0.57918 0.42778 0.15248 0.0
H995 H 0.62317 0.47075 0.17936 0.0
H996 H 0.72511 0.58832 0.16533 0.0
H997 H 0.69345 0.52838 0.17928 0.0
H998 H 0.60451 0.52417 0.01748 0.0
H999 H 0.56491 0.46678 0.03369 0.0
H1000 H 0.63642 0.59571 0.03385 0.0
H1001 H 0.68672 0.63646 0.05762 0.0
C1002 C 0.95396 0.44669 0.37261 0.0
C1003 C 0.92854 0.45081 0.40121 0.0
C1004 C 0.91781 0.37462 0.42387 0.0
C1005 C 0.93604 0.36661 0.39273 0.0
N1006 N 0.96838 0.39332 0.3361 0.0
N1007 N 0.8825 0.41708 0.45297 0.0
C1008 C 0.95405 0.40252 0.36687 0.0
C1009 C 0.90995 0.41463 0.42679 0.0
N1010 N 0.97796 0.48516 0.35102 0.0
N1011 N 0.90878 0.34438 0.45097 0.0
H1012 H 0.87673 0.44631 0.45655 0.0
H1013 H 0.86256 0.38862 0.4698 0.0
H1014 H 0.91415 0.31474 0.44993 0.0
H1015 H 0.90058 0.35131 0.47539 0.0
H1016 H 1.00096 0.48629 0.3315 0.0
H1017 H 0.97836 0.51784 0.35467 0.0
H1018 H 0.97644 0.41567 0.31489 0.0
H1019 H 0.9688 0.3614 0.33088 0.0
C1020 C 0.11532 0.52713 0.59573 0.0
C1021 C 0.15592 0.56797 0.61072 0.0
C1022 C 0.17523 0.51302 0.64196 0.0
C1023 C 0.1412 0.47331 0.62191 0.0
N1024 N 0.07757 0.44256 0.57931 0.0
N1025 N 0.22736 0.6 0.64642 0.0
C1026 C 0.11027 0.48012 0.59904 0.0
C1027 C 0.1864 0.56096 0.63367 0.0
N1028 N 0.08104 0.53321 0.57886 0.0
N1029 N 0.19584 0.50453 0.6697 0.0
H1030 H 0.23715 0.63572 0.64087 0.0
H1031 H 0.25374 0.59686 0.66018 0.0
H1032 H 0.18599 0.4695 0.67743 0.0
H1033 H 0.2178 0.53134 0.68713 0.0
H1034 H 0.048 0.50454 0.57042 0.0
H1035 H 0.08356 0.56696 0.57611 0.0
H1036 H 0.05888 0.44686 0.55907 0.0
H1037 H 0.07067 0.40721 0.58186 0.0
C1038 C 0.38914 0.89246 0.91761 0.0
C1039 C 0.38381 0.91549 0.88823 0.0
C1040 C 0.46592 0.93524 0.86916 0.0
C1041 C 0.46877 0.90783 0.89669 0.0
N1042 N 0.42945 0.85307 0.94366 0.0
N1043 N 0.41417 0.95299 0.83347 0.0
C1044 C 0.42934 0.88443 0.91995 0.0
C1045 C 0.42154 0.93561 0.86334 0.0
N1046 N 0.3566 0.87967 0.944 0.0
N1047 N 0.50594 0.96171 0.84903 0.0
H1048 H 0.38225 0.95375 0.82833 0.0
H1049 H 0.43796 0.96314 0.81274 0.0
H1050 H 0.53862 0.96167 0.85229 0.0
H1051 H 0.50801 0.98647 0.83088 0.0
H1052 H 0.36162 0.86784 0.96758 0.0
H1053 H 0.32695 0.88538 0.94368 0.0
H1054 H 0.39924 0.83062 0.95863 0.0
H1055 H 0.45814 0.84606 0.94629 0.0
C1056 C 0.55473 0.67055 0.57942 0.0
C1057 C 0.58341 0.67613 0.60873 0.0
C1058 C 0.5194 0.59683 0.62968 0.0
C1059 C 0.48901 0.59397 0.60214 0.0
N1060 N 0.4743 0.63222 0.55423 0.0
N1061 N 0.59056 0.64795 0.66424 0.0
C1062 C 0.50575 0.63201 0.57798 0.0
C1063 C 0.56522 0.64004 0.63452 0.0
N1064 N 0.57484 0.70119 0.55229 0.0
N1065 N 0.50492 0.55789 0.65075 0.0
H1066 H 0.62414 0.67899 0.66861 0.0
H1067 H 0.57669 0.62562 0.68554 0.0
H1068 H 0.47137 0.52613 0.64824 0.0
H1069 H 0.52751 0.55565 0.66901 0.0
H1070 H 0.55753 0.69566 0.52881 0.0
H1071 H 0.61079 0.72951 0.55196 0.0
H1072 H 0.48282 0.66174 0.53854 0.0
H1073 H 0.43799 0.60475 0.55231 0.0
C1074 C 0.18792 0.56364 0.92412 0.0
C1075 C 0.16426 0.57939 0.90108 0.0
C1076 C 0.13585 0.50422 0.8677 0.0
C1077 C 0.15633 0.48695 0.89234 0.0
N1078 N 0.19257 0.49614 0.94797 0.0
N1079 N 0.10933 0.56185 0.85391 0.0
C1080 C 0.17971 0.51555 0.92168 0.0
C1081 C 0.1363 0.54879 0.87371 0.0
N1082 N 0.21971 0.59524 0.94773 0.0
N1083 N 0.11807 0.47931 0.83784 0.0
H1084 H 0.10935 0.59437 0.8573 0.0
H1085 H 0.08412 0.53892 0.83595 0.0
H1086 H 0.11729 0.44683 0.8325 0.0
H1087 H 0.10766 0.49267 0.81727 0.0
H1088 H 0.24235 0.58768 0.96253 0.0
H1089 H 0.22689 0.63081 0.95039 0.0
H1090 H 0.20472 0.51322 0.97151 0.0
H1091 H 0.18648 0.46084 0.94766 0.0
C1092 C 0.40541 0.88782 0.63496 0.0
C1093 C 0.39359 0.91445 0.6118 0.0
C1094 C 0.46857 0.93565 0.57945 0.0
C1095 C 0.47525 0.90206 0.59916 0.0
N1096 N 0.44704 0.84239 0.64409 0.0
N1097 N 0.41363 0.96336 0.56092 0.0
C1098 C 0.44302 0.87732 0.62666 0.0
C1099 C 0.42543 0.93882 0.58394 0.0
N1100 N 0.3819 0.87436 0.66567 0.0
N1101 N 0.50407 0.96536 0.55696 0.0
H1102 H 0.38364 0.96821 0.56384 0.0
H1103 H 0.43193 0.97657 0.53785 0.0
H1104 H 0.53609 0.96414 0.55312 0.0
H1105 H 0.50397 0.99408 0.54443 0.0
H1106 H 0.39158 0.85852 0.68506 0.0
H1107 H 0.35666 0.88464 0.67312 0.0
H1108 H 0.42131 0.81959 0.66189 0.0
H1109 H 0.47386 0.83338 0.63875 0.0
C1110 C 0.55175 0.68856 0.91074 0.0
C1111 C 0.58153 0.69016 0.88297 0.0
C1112 C 0.51031 0.61902 0.85832 0.0
C1113 C 0.48357 0.61256 0.88916 0.0
N1114 N 0.46938 0.66288 0.92816 0.0
N1115 N 0.58917 0.65536 0.83013 0.0
C1116 C 0.50145 0.65358 0.91094 0.0
C1117 C 0.56102 0.65451 0.85692 0.0
N1118 N 0.57154 0.71994 0.93752 0.0
N1119 N 0.48576 0.60035 0.82858 0.0
H1120 H 0.62568 0.68198 0.82737 0.0
H1121 H 0.57703 0.62743 0.81222 0.0
H1122 H 0.44848 0.58801 0.82691 0.0
H1123 H 0.50284 0.60632 0.80486 0.0
H1124 H 0.55192 0.71712 0.9597 0.0
H1125 H 0.60857 0.74538 0.93902 0.0
H1126 H 0.48014 0.69479 0.94184 0.0
H1127 H 0.43176 0.64174 0.92463 0.0
loop_
_geom_bond_atom_site_label_1
_geom_bond_atom_site_label_2
_geom_bond_distance
_geom_bond_site_symmetry_2
_ccdc_geom_bond_type
Dy0 O3 2.307 . S
Dy0 O5 2.395 . S
Dy0 O6 2.379 . S
Dy0 O8 2.339 . S
Dy0 O10 2.298 . S
Dy0 O14 2.275 . S
Dy0 C22 2.729 1_545 S
Dy1 O4 2.298 . S
Dy1 O7 2.275 . S
Dy1 O9 2.307 . S
Dy1 O11 2.395 . S
Dy1 O12 2.379 . S
Dy1 O15 2.339 . S
Dy1 C31 2.738 . S
C2 O14 1.254 . S
C2 O15 1.257 . S
O3 Dy0 2.307 . S
O3 C13 1.266 . S
O4 Dy1 2.298 . S
O4 C13 1.236 . S
O5 Dy0 2.395 . S
O5 C22 1.251 1_545 S
O6 Dy0 2.379 . S
O6 C22 1.244 1_545 S
O7 Dy1 2.275 . S
O7 C23 1.254 . S
O8 Dy0 2.339 . S
O8 C23 1.257 . S
O9 Dy1 2.307 . S
O9 C24 1.266 . S
O10 Dy0 2.298 . S
O10 C24 1.236 . S
O11 Dy1 2.395 . S
O11 C31 1.255 . S
O12 Dy1 2.379 . S
O12 C31 1.249 . S
C13 O3 1.266 . S
C13 O4 1.236 . S
O14 Dy0 2.275 . S
O14 C2 1.254 . S
O15 Dy1 2.339 . S
O15 C2 1.257 . S
C16 C19 1.344 . S
C16 C20 1.328 . S
C16 C22 1.526 . S
C17 C18 1.304 . S
C17 C21 1.323 . S
C18 C17 1.304 . S
C18 C19 1.371 . S
C18 H32 0.930 . S
C19 C16 1.344 . S
C19 C18 1.371 . S
C19 H33 0.931 . S
C20 C16 1.328 . S
C20 C21 1.433 . S
C20 H34 0.931 . S
C21 C17 1.323 . S
C21 C20 1.433 . S
C21 H35 0.933 . S
C22 Dy0 2.729 1_565 S
C22 O5 1.251 1_565 S
C22 O6 1.244 1_565 S
C22 C16 1.526 . S
C23 O7 1.254 . S
C23 O8 1.257 . S
C24 O9 1.266 . S
C24 O10 1.236 . S
C25 C28 1.344 . S
C25 C29 1.328 . S
C25 C31 1.516 . S
C26 C27 1.304 . S
C26 C30 1.323 . S
C27 C26 1.304 . S
C27 C28 1.371 . S
C27 H36 0.930 . S
C28 C25 1.344 . S
C28 C27 1.371 . S
C28 H37 0.931 . S
C29 C25 1.328 . S
C29 C30 1.433 . S
C29 H38 0.931 . S
C30 C26 1.323 . S
C30 C29 1.433 . S
C30 H39 0.933 . S
C31 Dy1 2.738 . S
C31 O11 1.255 . S
C31 O12 1.249 . S
C31 C25 1.516 . S
H32 C18 0.930 . S
H33 C19 0.931 . S
H34 C20 0.931 . S
H35 C21 0.933 . S
H36 C27 0.930 . S
H37 C28 0.931 . S
H38 C29 0.931 . S
H39 C30 0.933 . S
Dy40 O43 2.307 . S
Dy40 O45 2.395 . S
Dy40 O46 2.379 . S
Dy40 O48 2.339 . S
Dy40 O50 2.298 . S
Dy40 O54 2.275 . S
Dy40 C62 2.738 . S
Dy41 O44 2.298 . S
Dy41 O47 2.275 . S
Dy41 O49 2.307 . S
Dy41 O51 2.395 . S
Dy41 O52 2.379 . S
Dy41 O55 2.339 . S
Dy41 C71 2.738 . S
C42 O54 1.254 . S
C42 O55 1.257 . S
O43 Dy40 2.307 . S
O43 C53 1.266 . S
O44 Dy41 2.298 . S
O44 C53 1.236 . S
O45 Dy40 2.395 . S
O45 C62 1.255 . S
O46 Dy40 2.379 . S
O46 C62 1.249 . S
O47 Dy41 2.275 . S
O47 C63 1.254 . S
O48 Dy40 2.339 . S
O48 C63 1.257 . S
O49 Dy41 2.307 . S
O49 C64 1.266 . S
O50 Dy40 2.298 . S
O50 C64 1.236 . S
O51 Dy41 2.395 . S
O51 C71 1.255 . S
O52 Dy41 2.379 . S
O52 C71 1.249 . S
C53 O43 1.266 . S
C53 O44 1.236 . S
O54 Dy40 2.275 . S
O54 C42 1.254 . S
O55 Dy41 2.339 . S
O55 C42 1.257 . S
C56 C59 1.344 . S
C56 C60 1.328 . S
C56 C62 1.516 . S
C57 C58 1.304 . S
C57 C61 1.323 . S
C58 C57 1.304 . S
C58 C59 1.371 . S
C58 H72 0.930 . S
C59 C56 1.344 . S
C59 C58 1.371 . S
C59 H73 0.931 . S
C60 C56 1.328 . S
C60 C61 1.433 . S
C60 H74 0.931 . S
C61 C57 1.323 . S
C61 C60 1.433 . S
C61 H75 0.933 . S
C62 Dy40 2.738 . S
C62 O45 1.255 . S
C62 O46 1.249 . S
C62 C56 1.516 . S
C63 O47 1.254 . S
C63 O48 1.257 . S
C64 O49 1.266 . S
C64 O50 1.236 . S
C65 C68 1.344 . S
C65 C69 1.328 . S
C65 C71 1.516 . S
C66 C67 1.304 . S
C66 C70 1.323 . S
C67 C66 1.304 . S
C67 C68 1.371 . S
C67 H76 0.930 . S
C68 C65 1.344 . S
C68 C67 1.371 . S
C68 H77 0.931 . S
C69 C65 1.328 . S
C69 C70 1.433 . S
C69 H78 0.931 . S
C70 C66 1.323 . S
C70 C69 1.433 . S
C70 H79 0.933 . S
C71 Dy41 2.738 . S
C71 O51 1.255 . S
C71 O52 1.249 . S
C71 C65 1.516 . S
H72 C58 0.930 . S
H73 C59 0.931 . S
H74 C60 0.931 . S
H75 C61 0.933 . S
H76 C67 0.930 . S
H77 C68 0.931 . S
H78 C69 0.931 . S
H79 C70 0.933 . S
Dy80 O83 2.307 . S
Dy80 O85 2.395 . S
Dy80 O86 2.379 . S
Dy80 O88 2.339 . S
Dy80 O90 2.298 . S
Dy80 O94 2.275 . S
Dy80 C102 2.712 1_655 S
Dy81 O84 2.298 . S
Dy81 O87 2.275 . S
Dy81 O89 2.307 . S
Dy81 O91 2.395 . S
Dy81 O92 2.379 . S
Dy81 O95 2.339 . S
Dy81 C111 2.738 . S
C82 O94 1.254 . S
C82 O95 1.257 . S
O83 Dy80 2.307 . S
O83 C93 1.266 . S
O84 Dy81 2.298 . S
O84 C93 1.236 . S
O85 Dy80 2.395 . S
O85 C102 1.244 1_655 S
O86 Dy80 2.379 . S
O86 C102 1.236 1_655 S
O87 Dy81 2.275 . S
O87 C103 1.254 . S
O88 Dy80 2.339 . S
O88 C103 1.257 . S
O89 Dy81 2.307 . S
O89 C104 1.266 . S
O90 Dy80 2.298 . S
O90 C104 1.236 . S
O91 Dy81 2.395 . S
O91 C111 1.255 . S
O92 Dy81 2.379 . S
O92 C111 1.249 . S
C93 O83 1.266 . S
C93 O84 1.236 . S
O94 Dy80 2.275 . S
O94 C82 1.254 . S
O95 Dy81 2.339 . S
O95 C82 1.257 . S
C96 C99 1.344 . S
C96 C100 1.328 . S
C96 C102 1.542 . S
C97 C98 1.304 . S
C97 C101 1.323 . S
C98 C97 1.304 . S
C98 C99 1.371 . S
C98 H112 0.930 . S
C99 C96 1.344 . S
C99 C98 1.371 . S
C99 H113 0.931 . S
C100 C96 1.328 . S
C100 C101 1.433 . S
C100 H114 0.931 . S
C101 C97 1.323 . S
C101 C100 1.433 . S
C101 H115 0.933 . S
C102 Dy80 2.712 1_455 S
C102 O85 1.244 1_455 S
C102 O86 1.236 1_455 S
C102 C96 1.542 . S
C103 O87 1.254 . S
C103 O88 1.257 . S
C104 O89 1.266 . S
C104 O90 1.236 . S
C105 C108 1.344 . S
C105 C109 1.328 . S
C105 C111 1.516 . S
C106 C107 1.304 . S
C106 C110 1.323 . S
C107 C106 1.304 . S
C107 C108 1.371 . S
C107 H116 0.930 . S
C108 C105 1.344 . S
C108 C107 1.371 . S
C108 H117 0.931 . S
C109 C105 1.328 . S
C109 C110 1.433 . S
C109 H118 0.931 . S
C110 C106 1.323 . S
C110 C109 1.433 . S
C110 H119 0.933 . S
C111 Dy81 2.738 . S
C111 O91 1.255 . S
C111 O92 1.249 . S
C111 C105 1.516 . S
H112 C98 0.930 . S
H113 C99 0.931 . S
H114 C100 0.931 . S
H115 C101 0.933 . S
H116 C107 0.930 . S
H117 C108 0.931 . S
H118 C109 0.931 . S
H119 C110 0.933 . S
Dy120 O123 2.307 . S
Dy120 O125 2.395 . S
Dy120 O126 2.379 . S
Dy120 O128 2.339 . S
Dy120 O130 2.298 . S
Dy120 O134 2.275 . S
Dy120 C142 2.738 . S
Dy121 O124 2.298 . S
Dy121 O127 2.275 . S
Dy121 O129 2.307 . S
Dy121 O131 2.395 . S
Dy121 O132 2.379 . S
Dy121 O135 2.339 . S
Dy121 C151 2.729 1_545 S
C122 O134 1.254 . S
C122 O135 1.257 . S
O123 Dy120 2.307 . S
O123 C133 1.266 . S
O124 Dy121 2.298 . S
O124 C133 1.236 . S
O125 Dy120 2.395 . S
O125 C142 1.255 . S
O126 Dy120 2.379 . S
O126 C142 1.249 . S
O127 Dy121 2.275 . S
O127 C143 1.254 . S
O128 Dy120 2.339 . S
O128 C143 1.257 . S
O129 Dy121 2.307 . S
O129 C144 1.266 . S
O130 Dy120 2.298 . S
O130 C144 1.236 . S
O131 Dy121 2.395 . S
O131 C151 1.251 1_545 S
O132 Dy121 2.379 . S
O132 C151 1.244 1_545 S
C133 O123 1.266 . S
C133 O124 1.236 . S
O134 Dy120 2.275 . S
O134 C122 1.254 . S
O135 Dy121 2.339 . S
O135 C122 1.257 . S
C136 C139 1.344 . S
C136 C140 1.328 . S
C136 C142 1.516 . S
C137 C138 1.304 . S
C137 C141 1.323 . S
C138 C137 1.304 . S
C138 C139 1.371 . S
C138 H152 0.930 . S
C139 C136 1.344 . S
C139 C138 1.371 . S
C139 H153 0.931 . S
C140 C136 1.328 . S
C140 C141 1.433 . S
C140 H154 0.931 . S
C141 C137 1.323 . S
C141 C140 1.433 . S
C141 H155 0.933 . S
C142 Dy120 2.738 . S
C142 O125 1.255 . S
C142 O126 1.249 . S
C142 C136 1.516 . S
C143 O127 1.254 . S
C143 O128 1.257 . S
C144 O129 1.266 . S
C144 O130 1.236 . S
C145 C148 1.344 . S
C145 C149 1.328 . S
C145 C151 1.526 . S
C146 C147 1.304 . S
C146 C150 1.323 . S
C147 C146 1.304 . S
C147 C148 1.371 . S
C147 H156 0.930 . S
C148 C145 1.344 . S
C148 C147 1.371 . S
C148 H157 0.931 . S
C149 C145 1.328 . S
C149 C150 1.433 . S
C149 H158 0.931 . S
C150 C146 1.323 . S
C150 C149 1.433 . S
C150 H159 0.933 . S
C151 Dy121 2.729 1_565 S
C151 O131 1.251 1_565 S
C151 O132 1.244 1_565 S
C151 C145 1.526 . S
H152 C138 0.930 . S
H153 C139 0.931 . S
H154 C140 0.931 . S
H155 C141 0.933 . S
H156 C147 0.930 . S
H157 C148 0.931 . S
H158 C149 0.931 . S
H159 C150 0.933 . S
Dy160 O163 2.307 . S
Dy160 O165 2.395 . S
Dy160 O166 2.379 . S
Dy160 O168 2.339 . S
Dy160 O170 2.298 . S
Dy160 O174 2.275 . S
Dy160 C182 2.738 . S
Dy161 O164 2.298 . S
Dy161 O167 2.275 . S
Dy161 O169 2.307 . S
Dy161 O171 2.395 . S
Dy161 O172 2.379 . S
Dy161 O175 2.339 . S
Dy161 C191 2.738 . S
C162 O174 1.254 . S
C162 O175 1.257 . S
O163 Dy160 2.307 . S
O163 C173 1.266 . S
O164 Dy161 2.298 . S
O164 C173 1.236 . S
O165 Dy160 2.395 . S
O165 C182 1.255 . S
O166 Dy160 2.379 . S
O166 C182 1.249 . S
O167 Dy161 2.275 . S
O167 C183 1.254 . S
O168 Dy160 2.339 . S
O168 C183 1.257 . S
O169 Dy161 2.307 . S
O169 C184 1.266 . S
O170 Dy160 2.298 . S
O170 C184 1.236 . S
O171 Dy161 2.395 . S
O171 C191 1.255 . S
O172 Dy161 2.379 . S
O172 C191 1.249 . S
C173 O163 1.266 . S
C173 O164 1.236 . S
O174 Dy160 2.275 . S
O174 C162 1.254 . S
O175 Dy161 2.339 . S
O175 C162 1.257 . S
C176 C179 1.344 . S
C176 C180 1.328 . S
C176 C182 1.516 . S
C177 C178 1.304 . S
C177 C181 1.323 . S
C178 C177 1.304 . S
C178 C179 1.371 . S
C178 H192 0.930 . S
C179 C176 1.344 . S
C179 C178 1.371 . S
C179 H193 0.931 . S
C180 C176 1.328 . S
C180 C181 1.433 . S
C180 H194 0.931 . S
C181 C177 1.323 . S
C181 C180 1.433 . S
C181 H195 0.933 . S
C182 Dy160 2.738 . S
C182 O165 1.255 . S
C182 O166 1.249 . S
C182 C176 1.516 . S
C183 O167 1.254 . S
C183 O168 1.257 . S
C184 O169 1.266 . S
C184 O170 1.236 . S
C185 C188 1.344 . S
C185 C189 1.328 . S
C185 C191 1.516 . S
C186 C187 1.304 . S
C186 C190 1.323 . S
C187 C186 1.304 . S
C187 C188 1.371 . S
C187 H196 0.930 . S
C188 C185 1.344 . S
C188 C187 1.371 . S
C188 H197 0.931 . S
C189 C185 1.328 . S
C189 C190 1.433 . S
C189 H198 0.931 . S
C190 C186 1.323 . S
C190 C189 1.433 . S
C190 H199 0.933 . S
C191 Dy161 2.738 . S
C191 O171 1.255 . S
C191 O172 1.249 . S
C191 C185 1.516 . S
H192 C178 0.930 . S
H193 C179 0.931 . S
H194 C180 0.931 . S
H195 C181 0.933 . S
H196 C187 0.930 . S
H197 C188 0.931 . S
H198 C189 0.931 . S
H199 C190 0.933 . S
Dy200 O203 2.307 . S
Dy200 O205 2.395 . S
Dy200 O206 2.379 . S
Dy200 O208 2.339 . S
Dy200 O210 2.298 . S
Dy200 O214 2.275 . S
Dy200 C222 2.738 . S
Dy201 O204 2.298 . S
Dy201 O207 2.275 . S
Dy201 O209 2.307 . S
Dy201 O211 2.395 . S
Dy201 O212 2.379 . S
Dy201 O215 2.339 . S
Dy201 C231 2.712 1_655 S
C202 O214 1.254 . S
C202 O215 1.257 . S
O203 Dy200 2.307 . S
O203 C213 1.266 . S
O204 Dy201 2.298 . S
O204 C213 1.236 . S
O205 Dy200 2.395 . S
O205 C222 1.255 . S
O206 Dy200 2.379 . S
O206 C222 1.249 . S
O207 Dy201 2.275 . S
O207 C223 1.254 . S
O208 Dy200 2.339 . S
O208 C223 1.257 . S
O209 Dy201 2.307 . S
O209 C224 1.266 . S
O210 Dy200 2.298 . S
O210 C224 1.236 . S
O211 Dy201 2.395 . S
O211 C231 1.244 1_655 S
O212 Dy201 2.379 . S
O212 C231 1.236 1_655 S
C213 O203 1.266 . S
C213 O204 1.236 . S
O214 Dy200 2.275 . S
O214 C202 1.254 . S
O215 Dy201 2.339 . S
O215 C202 1.257 . S
C216 C219 1.344 . S
C216 C220 1.328 . S
C216 C222 1.516 . S
C217 C218 1.304 . S
C217 C221 1.323 . S
C218 C217 1.304 . S
C218 C219 1.371 . S
C218 H232 0.930 . S
C219 C216 1.344 . S
C219 C218 1.371 . S
C219 H233 0.931 . S
C220 C216 1.328 . S
C220 C221 1.433 . S
C220 H234 0.931 . S
C221 C217 1.323 . S
C221 C220 1.433 . S
C221 H235 0.933 . S
C222 Dy200 2.738 . S
C222 O205 1.255 . S
C222 O206 1.249 . S
C222 C216 1.516 . S
C223 O207 1.254 . S
C223 O208 1.257 . S
C224 O209 1.266 . S
C224 O210 1.236 . S
C225 C228 1.344 . S
C225 C229 1.328 . S
C225 C231 1.542 . S
C226 C227 1.304 . S
C226 C230 1.323 . S
C227 C226 1.304 . S
C227 C228 1.371 . S
C227 H236 0.930 . S
C228 C225 1.344 . S
C228 C227 1.371 . S
C228 H237 0.931 . S
C229 C225 1.328 . S
C229 C230 1.433 . S
C229 H238 0.931 . S
C230 C226 1.323 . S
C230 C229 1.433 . S
C230 H239 0.933 . S
C231 Dy201 2.712 1_455 S
C231 O211 1.244 1_455 S
C231 O212 1.236 1_455 S
C231 C225 1.542 . S
H232 C218 0.930 . S
H233 C219 0.931 . S
H234 C220 0.931 . S
H235 C221 0.933 . S
H236 C227 0.930 . S
H237 C228 0.931 . S
H238 C229 0.931 . S
H239 C230 0.933 . S
Dy240 O243 2.307 . S
Dy240 O245 2.395 . S
Dy240 O246 2.379 . S
Dy240 O248 2.339 . S
Dy240 O250 2.298 . S
Dy240 O254 2.275 . S
Dy240 C262 2.738 . S
Dy241 O244 2.298 . S
Dy241 O247 2.275 . S
Dy241 O249 2.307 . S
Dy241 O251 2.395 . S
Dy241 O252 2.379 . S
Dy241 O255 2.339 . S
Dy241 C271 2.729 1_455 S
C242 O254 1.254 . S
C242 O255 1.257 . S
O243 Dy240 2.307 . S
O243 C253 1.266 . S
O244 Dy241 2.298 . S
O244 C253 1.236 . S
O245 Dy240 2.395 . S
O245 C262 1.255 . S
O246 Dy240 2.379 . S
O246 C262 1.249 . S
O247 Dy241 2.275 . S
O247 C263 1.254 . S
O248 Dy240 2.339 . S
O248 C263 1.257 . S
O249 Dy241 2.307 . S
O249 C264 1.266 . S
O250 Dy240 2.298 . S
O250 C264 1.236 . S
O251 Dy241 2.395 . S
O251 C271 1.251 1_455 S
O252 Dy241 2.379 . S
O252 C271 1.244 1_455 S
C253 O243 1.266 . S
C253 O244 1.236 . S
O254 Dy240 2.275 . S
O254 C242 1.254 . S
O255 Dy241 2.339 . S
O255 C242 1.257 . S
C256 C259 1.344 . S
C256 C260 1.328 . S
C256 C262 1.516 . S
C257 C258 1.304 . S
C257 C261 1.323 . S
C258 C257 1.304 . S
C258 C259 1.371 . S
C258 H272 0.930 . S
C259 C256 1.344 . S
C259 C258 1.371 . S
C259 H273 0.931 . S
C260 C256 1.328 . S
C260 C261 1.433 . S
C260 H274 0.931 . S
C261 C257 1.323 . S
C261 C260 1.433 . S
C261 H275 0.933 . S
C262 Dy240 2.738 . S
C262 O245 1.255 . S
C262 O246 1.249 . S
C262 C256 1.516 . S
C263 O247 1.254 . S
C263 O248 1.257 . S
C264 O249 1.266 . S
C264 O250 1.236 . S
C265 C268 1.344 . S
C265 C269 1.328 . S
C265 C271 1.526 . S
C266 C267 1.304 . S
C266 C270 1.323 . S
C267 C266 1.304 . S
C267 C268 1.371 . S
C267 H276 0.930 . S
C268 C265 1.344 . S
C268 C267 1.371 . S
C268 H277 0.931 . S
C269 C265 1.328 . S
C269 C270 1.433 . S
C269 H278 0.931 . S
C270 C266 1.323 . S
C270 C269 1.433 . S
C270 H279 0.933 . S
C271 Dy241 2.729 1_655 S
C271 O251 1.251 1_655 S
C271 O252 1.244 1_655 S
C271 C265 1.526 . S
H272 C258 0.930 . S
H273 C259 0.931 . S
H274 C260 0.931 . S
H275 C261 0.933 . S
H276 C267 0.930 . S
H277 C268 0.931 . S
H278 C269 0.931 . S
H279 C270 0.933 . S
Dy280 O283 2.307 . S
Dy280 O285 2.395 . S
Dy280 O286 2.379 . S
Dy280 O288 2.339 . S
Dy280 O290 2.298 . S
Dy280 O294 2.275 . S
Dy280 C302 2.712 1_565 S
Dy281 O284 2.298 . S
Dy281 O287 2.275 . S
Dy281 O289 2.307 . S
Dy281 O291 2.395 . S
Dy281 O292 2.379 . S
Dy281 O295 2.339 . S
Dy281 C311 2.738 . S
C282 O294 1.254 . S
C282 O295 1.257 . S
O283 Dy280 2.307 . S
O283 C293 1.266 . S
O284 Dy281 2.298 . S
O284 C293 1.236 . S
O285 Dy280 2.395 . S
O285 C302 1.244 1_565 S
O286 Dy280 2.379 . S
O286 C302 1.236 1_565 S
O287 Dy281 2.275 . S
O287 C303 1.254 . S
O288 Dy280 2.339 . S
O288 C303 1.257 . S
O289 Dy281 2.307 . S
O289 C304 1.266 . S
O290 Dy280 2.298 . S
O290 C304 1.236 . S
O291 Dy281 2.395 . S
O291 C311 1.255 . S
O292 Dy281 2.379 . S
O292 C311 1.249 . S
C293 O283 1.266 . S
C293 O284 1.236 . S
O294 Dy280 2.275 . S
O294 C282 1.254 . S
O295 Dy281 2.339 . S
O295 C282 1.257 . S
C296 C299 1.344 . S
C296 C300 1.328 . S
C296 C302 1.542 . S
C297 C298 1.304 . S
C297 C301 1.323 . S
C298 C297 1.304 . S
C298 C299 1.371 . S
C298 H312 0.930 . S
C299 C296 1.344 . S
C299 C298 1.371 . S
C299 H313 0.931 . S
C300 C296 1.328 . S
C300 C301 1.433 . S
C300 H314 0.931 . S
C301 C297 1.323 . S
C301 C300 1.433 . S
C301 H315 0.933 . S
C302 Dy280 2.712 1_545 S
C302 O285 1.244 1_545 S
C302 O286 1.236 1_545 S
C302 C296 1.542 . S
C303 O287 1.254 . S
C303 O288 1.257 . S
C304 O289 1.266 . S
C304 O290 1.236 . S
C305 C308 1.344 . S
C305 C309 1.328 . S
C305 C311 1.516 . S
C306 C307 1.304 . S
C306 C310 1.323 . S
C307 C306 1.304 . S
C307 C308 1.371 . S
C307 H316 0.930 . S
C308 C305 1.344 . S
C308 C307 1.371 . S
C308 H317 0.931 . S
C309 C305 1.328 . S
C309 C310 1.433 . S
C309 H318 0.931 . S
C310 C306 1.323 . S
C310 C309 1.433 . S
C310 H319 0.933 . S
C311 Dy281 2.738 . S
C311 O291 1.255 . S
C311 O292 1.249 . S
C311 C305 1.516 . S
H312 C298 0.930 . S
H313 C299 0.931 . S
H314 C300 0.931 . S
H315 C301 0.933 . S
H316 C307 0.930 . S
H317 C308 0.931 . S
H318 C309 0.931 . S
H319 C310 0.933 . S
Dy320 O323 2.307 . S
Dy320 O325 2.395 . S
Dy320 O326 2.379 . S
Dy320 O328 2.339 . S
Dy320 O330 2.298 . S
Dy320 O334 2.275 . S
Dy320 C342 2.738 . S
Dy321 O324 2.298 . S
Dy321 O327 2.275 . S
Dy321 O329 2.307 . S
Dy321 O331 2.395 . S
Dy321 O332 2.379 . S
Dy321 O335 2.339 . S
Dy321 C351 2.738 . S
C322 O334 1.254 . S
C322 O335 1.257 . S
O323 Dy320 2.307 . S
O323 C333 1.266 . S
O324 Dy321 2.298 . S
O324 C333 1.236 . S
O325 Dy320 2.395 . S
O325 C342 1.255 . S
O326 Dy320 2.379 . S
O326 C342 1.249 . S
O327 Dy321 2.275 . S
O327 C343 1.254 . S
O328 Dy320 2.339 . S
O328 C343 1.257 . S
O329 Dy321 2.307 . S
O329 C344 1.266 . S
O330 Dy320 2.298 . S
O330 C344 1.236 . S
O331 Dy321 2.395 . S
O331 C351 1.255 . S
O332 Dy321 2.379 . S
O332 C351 1.249 . S
C333 O323 1.266 . S
C333 O324 1.236 . S
O334 Dy320 2.275 . S
O334 C322 1.254 . S
O335 Dy321 2.339 . S
O335 C322 1.257 . S
C336 C339 1.344 . S
C336 C340 1.328 . S
C336 C342 1.516 . S
C337 C338 1.304 . S
C337 C341 1.323 . S
C338 C337 1.304 . S
C338 C339 1.371 . S
C338 H352 0.930 . S
C339 C336 1.344 . S
C339 C338 1.371 . S
C339 H353 0.931 . S
C340 C336 1.328 . S
C340 C341 1.433 . S
C340 H354 0.931 . S
C341 C337 1.323 . S
C341 C340 1.433 . S
C341 H355 0.933 . S
C342 Dy320 2.738 . S
C342 O325 1.255 . S
C342 O326 1.249 . S
C342 C336 1.516 . S
C343 O327 1.254 . S
C343 O328 1.257 . S
C344 O329 1.266 . S
C344 O330 1.236 . S
C345 C348 1.344 . S
C345 C349 1.328 . S
C345 C351 1.516 . S
C346 C347 1.304 . S
C346 C350 1.323 . S
C347 C346 1.304 . S
C347 C348 1.371 . S
C347 H356 0.930 . S
C348 C345 1.344 . S
C348 C347 1.371 . S
C348 H357 0.931 . S
C349 C345 1.328 . S
C349 C350 1.433 . S
C349 H358 0.931 . S
C350 C346 1.323 . S
C350 C349 1.433 . S
C350 H359 0.933 . S
C351 Dy321 2.738 . S
C351 O331 1.255 . S
C351 O332 1.249 . S
C351 C345 1.516 . S
H352 C338 0.930 . S
H353 C339 0.931 . S
H354 C340 0.931 . S
H355 C341 0.933 . S
H356 C347 0.930 . S
H357 C348 0.931 . S
H358 C349 0.931 . S
H359 C350 0.933 . S
Dy360 O363 2.307 . S
Dy360 O365 2.395 . S
Dy360 O366 2.379 . S
Dy360 O368 2.339 . S
Dy360 O370 2.298 . S
Dy360 O374 2.275 . S
Dy360 C382 2.729 1_455 S
Dy361 O364 2.298 . S
Dy361 O367 2.275 . S
Dy361 O369 2.307 . S
Dy361 O371 2.395 . S
Dy361 O372 2.379 . S
Dy361 O375 2.339 . S
Dy361 C391 2.738 . S
C362 O374 1.254 . S
C362 O375 1.257 . S
O363 Dy360 2.307 . S
O363 C373 1.266 . S
O364 Dy361 2.298 . S
O364 C373 1.236 . S
O365 Dy360 2.395 . S
O365 C382 1.251 1_455 S
O366 Dy360 2.379 . S
O366 C382 1.244 1_455 S
O367 Dy361 2.275 . S
O367 C383 1.254 . S
O368 Dy360 2.339 . S
O368 C383 1.257 . S
O369 Dy361 2.307 . S
O369 C384 1.266 . S
O370 Dy360 2.298 . S
O370 C384 1.236 . S
O371 Dy361 2.395 . S
O371 C391 1.255 . S
O372 Dy361 2.379 . S
O372 C391 1.249 . S
C373 O363 1.266 . S
C373 O364 1.236 . S
O374 Dy360 2.275 . S
O374 C362 1.254 . S
O375 Dy361 2.339 . S
O375 C362 1.257 . S
C376 C379 1.344 . S
C376 C380 1.328 . S
C376 C382 1.526 . S
C377 C378 1.304 . S
C377 C381 1.323 . S
C378 C377 1.304 . S
C378 C379 1.371 . S
C378 H392 0.930 . S
C379 C376 1.344 . S
C379 C378 1.371 . S
C379 H393 0.931 . S
C380 C376 1.328 . S
C380 C381 1.433 . S
C380 H394 0.931 . S
C381 C377 1.323 . S
C381 C380 1.433 . S
C381 H395 0.933 . S
C382 Dy360 2.729 1_655 S
C382 O365 1.251 1_655 S
C382 O366 1.244 1_655 S
C382 C376 1.526 . S
C383 O367 1.254 . S
C383 O368 1.257 . S
C384 O369 1.266 . S
C384 O370 1.236 . S
C385 C388 1.344 . S
C385 C389 1.328 . S
C385 C391 1.516 . S
C386 C387 1.304 . S
C386 C390 1.323 . S
C387 C386 1.304 . S
C387 C388 1.371 . S
C387 H396 0.930 . S
C388 C385 1.344 . S
C388 C387 1.371 . S
C388 H397 0.931 . S
C389 C385 1.328 . S
C389 C390 1.433 . S
C389 H398 0.931 . S
C390 C386 1.323 . S
C390 C389 1.433 . S
C390 H399 0.933 . S
C391 Dy361 2.738 . S
C391 O371 1.255 . S
C391 O372 1.249 . S
C391 C385 1.516 . S
H392 C378 0.930 . S
H393 C379 0.931 . S
H394 C380 0.931 . S
H395 C381 0.933 . S
H396 C387 0.930 . S
H397 C388 0.931 . S
H398 C389 0.931 . S
H399 C390 0.933 . S
Dy400 O403 2.307 . S
Dy400 O405 2.395 . S
Dy400 O406 2.379 . S
Dy400 O408 2.339 . S
Dy400 O410 2.298 . S
Dy400 O414 2.275 . S
Dy400 C422 2.738 . S
Dy401 O404 2.298 . S
Dy401 O407 2.275 . S
Dy401 O409 2.307 . S
Dy401 O411 2.395 . S
Dy401 O412 2.379 . S
Dy401 O415 2.339 . S
Dy401 C431 2.712 1_565 S
C402 O414 1.254 . S
C402 O415 1.257 . S
O403 Dy400 2.307 . S
O403 C413 1.266 . S
O404 Dy401 2.298 . S
O404 C413 1.236 . S
O405 Dy400 2.395 . S
O405 C422 1.255 . S
O406 Dy400 2.379 . S
O406 C422 1.249 . S
O407 Dy401 2.275 . S
O407 C423 1.254 . S
O408 Dy400 2.339 . S
O408 C423 1.257 . S
O409 Dy401 2.307 . S
O409 C424 1.266 . S
O410 Dy400 2.298 . S
O410 C424 1.236 . S
O411 Dy401 2.395 . S
O411 C431 1.244 1_565 S
O412 Dy401 2.379 . S
O412 C431 1.236 1_565 S
C413 O403 1.266 . S
C413 O404 1.236 . S
O414 Dy400 2.275 . S
O414 C402 1.254 . S
O415 Dy401 2.339 . S
O415 C402 1.257 . S
C416 C419 1.344 . S
C416 C420 1.328 . S
C416 C422 1.516 . S
C417 C418 1.304 . S
C417 C421 1.323 . S
C418 C417 1.304 . S
C418 C419 1.371 . S
C418 H432 0.930 . S
C419 C416 1.344 . S
C419 C418 1.371 . S
C419 H433 0.931 . S
C420 C416 1.328 . S
C420 C421 1.433 . S
C420 H434 0.931 . S
C421 C417 1.323 . S
C421 C420 1.433 . S
C421 H435 0.933 . S
C422 Dy400 2.738 . S
C422 O405 1.255 . S
C422 O406 1.249 . S
C422 C416 1.516 . S
C423 O407 1.254 . S
C423 O408 1.257 . S
C424 O409 1.266 . S
C424 O410 1.236 . S
C425 C428 1.344 . S
C425 C429 1.328 . S
C425 C431 1.542 . S
C426 C427 1.304 . S
C426 C430 1.323 . S
C427 C426 1.304 . S
C427 C428 1.371 . S
C427 H436 0.930 . S
C428 C425 1.344 . S
C428 C427 1.371 . S
C428 H437 0.931 . S
C429 C425 1.328 . S
C429 C430 1.433 . S
C429 H438 0.931 . S
C430 C426 1.323 . S
C430 C429 1.433 . S
C430 H439 0.933 . S
C431 Dy401 2.712 1_545 S
C431 O411 1.244 1_545 S
C431 O412 1.236 1_545 S
C431 C425 1.542 . S
H432 C418 0.930 . S
H433 C419 0.931 . S
H434 C420 0.931 . S
H435 C421 0.933 . S
H436 C427 0.930 . S
H437 C428 0.931 . S
H438 C429 0.931 . S
H439 C430 0.933 . S
Dy440 O443 2.307 . S
Dy440 O445 2.395 . S
Dy440 O446 2.379 . S
Dy440 O448 2.339 . S
Dy440 O450 2.298 . S
Dy440 O454 2.275 . S
Dy440 C462 2.738 . S
Dy441 O444 2.298 . S
Dy441 O447 2.275 . S
Dy441 O449 2.307 . S
Dy441 O451 2.395 . S
Dy441 O452 2.379 . S
Dy441 O455 2.339 . S
Dy441 C471 2.738 . S
C442 O454 1.254 . S
C442 O455 1.257 . S
O443 Dy440 2.307 . S
O443 C453 1.266 . S
O444 Dy441 2.298 . S
O444 C453 1.236 . S
O445 Dy440 2.395 . S
O445 C462 1.255 . S
O446 Dy440 2.379 . S
O446 C462 1.249 . S
O447 Dy441 2.275 . S
O447 C463 1.254 . S
O448 Dy440 2.339 . S
O448 C463 1.257 . S
O449 Dy441 2.307 . S
O449 C464 1.266 . S
O450 Dy440 2.298 . S
O450 C464 1.236 . S
O451 Dy441 2.395 . S
O451 C471 1.255 . S
O452 Dy441 2.379 . S
O452 C471 1.249 . S
C453 O443 1.266 . S
C453 O444 1.236 . S
O454 Dy440 2.275 . S
O454 C442 1.254 . S
O455 Dy441 2.339 . S
O455 C442 1.257 . S
C456 C459 1.344 . S
C456 C460 1.328 . S
C456 C462 1.516 . S
C457 C458 1.304 . S
C457 C461 1.323 . S
C458 C457 1.304 . S
C458 C459 1.371 . S
C458 H472 0.930 . S
C459 C456 1.344 . S
C459 C458 1.371 . S
C459 H473 0.931 . S
C460 C456 1.328 . S
C460 C461 1.433 . S
C460 H474 0.931 . S
C461 C457 1.323 . S
C461 C460 1.433 . S
C461 H475 0.933 . S
C462 Dy440 2.738 . S
C462 O445 1.255 . S
C462 O446 1.249 . S
C462 C456 1.516 . S
C463 O447 1.254 . S
C463 O448 1.257 . S
C464 O449 1.266 . S
C464 O450 1.236 . S
C465 C468 1.344 . S
C465 C469 1.328 . S
C465 C471 1.516 . S
C466 C467 1.304 . S
C466 C470 1.323 . S
C467 C466 1.304 . S
C467 C468 1.371 . S
C467 H476 0.930 . S
C468 C465 1.344 . S
C468 C467 1.371 . S
C468 H477 0.931 . S
C469 C465 1.328 . S
C469 C470 1.433 . S
C469 H478 0.931 . S
C470 C466 1.323 . S
C470 C469 1.433 . S
C470 H479 0.933 . S
C471 Dy441 2.738 . S
C471 O451 1.255 . S
C471 O452 1.249 . S
C471 C465 1.516 . S
H472 C458 0.930 . S
H473 C459 0.931 . S
H474 C460 0.931 . S
H475 C461 0.933 . S
H476 C467 0.930 . S
H477 C468 0.931 . S
H478 C469 0.931 . S
H479 C470 0.933 . S
C480 C481 1.363 . S
C480 C486 1.379 . S
C480 N488 1.356 . S
C481 C480 1.363 . S
C481 C487 1.363 . S
C482 C483 1.363 . S
C482 C487 1.379 . S
C482 N489 1.356 . S
C483 C482 1.363 . S
C483 C486 1.363 . S
N484 C486 1.356 . S
N484 H496 0.984 . S
N484 H497 0.985 . S
N485 C487 1.356 . S
N485 H490 0.984 . S
N485 H491 0.985 . S
C486 C480 1.379 . S
C486 C483 1.363 . S
C486 N484 1.356 . S
C487 C481 1.363 . S
C487 C482 1.379 . S
C487 N485 1.356 . S
N488 C480 1.356 . S
N488 H494 0.984 . S
N488 H495 0.984 . S
N489 C482 1.356 . S
N489 H492 0.984 . S
N489 H493 0.985 . S
H490 N485 0.984 . S
H491 N485 0.985 . S
H492 N489 0.984 . S
H493 N489 0.985 . S
H494 N488 0.984 . S
H495 N488 0.984 . S
H496 N484 0.984 . S
H497 N484 0.985 . S
C498 C499 1.363 . S
C498 C504 1.379 1_455 S
C498 N506 1.356 . S
C499 C498 1.363 . S
C499 C505 1.363 1_455 S
C500 C501 1.363 . S
C500 C505 1.379 . S
C500 N507 1.356 . S
C501 C500 1.363 . S
C501 C504 1.363 . S
N502 C504 1.356 . S
N502 H514 0.984 . S
N502 H515 0.985 . S
N503 C505 1.356 1_455 S
N503 H508 0.984 . S
N503 H509 0.985 1_455 S
C504 C498 1.379 1_655 S
C504 C501 1.363 . S
C504 N502 1.356 . S
C505 C499 1.363 1_655 S
C505 C500 1.379 . S
C505 N503 1.356 1_655 S
N506 C498 1.356 . S
N506 H512 0.984 . S
N506 H513 0.984 . S
N507 C500 1.356 . S
N507 H510 0.984 . S
N507 H511 0.985 . S
H508 N503 0.984 . S
H509 N503 0.985 1_655 S
H510 N507 0.984 . S
H511 N507 0.985 . S
H512 N506 0.984 . S
H513 N506 0.984 . S
H514 N502 0.984 . S
H515 N502 0.985 . S
C516 C517 1.363 . S
C516 C522 1.379 . S
C516 N524 1.356 . S
C517 C516 1.363 . S
C517 C523 1.363 . S
C518 C519 1.363 . S
C518 C523 1.379 1_565 S
C518 N525 1.356 . S
C519 C518 1.363 . S
C519 C522 1.363 1_565 S
N520 C522 1.356 1_565 S
N520 H532 0.984 1_565 S
N520 H533 0.985 . S
N521 C523 1.356 . S
N521 H526 0.984 . S
N521 H527 0.985 . S
C522 C516 1.379 . S
C522 C519 1.363 1_545 S
C522 N520 1.356 1_545 S
C523 C517 1.363 . S
C523 C518 1.379 1_545 S
C523 N521 1.356 . S
N524 C516 1.356 . S
N524 H530 0.984 . S
N524 H531 0.984 . S
N525 C518 1.356 . S
N525 H528 0.984 . S
N525 H529 0.985 . S
H526 N521 0.984 . S
H527 N521 0.985 . S
H528 N525 0.984 . S
H529 N525 0.985 . S
H530 N524 0.984 . S
H531 N524 0.984 . S
H532 N520 0.984 1_545 S
H533 N520 0.985 . S
C534 C535 1.363 . S
C534 C540 1.379 . S
C534 N542 1.356 . S
C535 C534 1.363 . S
C535 C541 1.363 . S
C536 C537 1.363 . S
C536 C541 1.379 . S
C536 N543 1.356 . S
C537 C536 1.363 . S
C537 C540 1.363 . S
N538 C540 1.356 . S
N538 H550 0.984 . S
N538 H551 0.985 . S
N539 C541 1.356 . S
N539 H544 0.984 . S
N539 H545 0.985 . S
C540 C534 1.379 . S
C540 C537 1.363 . S
C540 N538 1.356 . S
C541 C535 1.363 . S
C541 C536 1.379 . S
C541 N539 1.356 . S
N542 C534 1.356 . S
N542 H548 0.984 . S
N542 H549 0.984 . S
N543 C536 1.356 . S
N543 H546 0.984 . S
N543 H547 0.985 . S
H544 N539 0.984 . S
H545 N539 0.985 . S
H546 N543 0.984 . S
H547 N543 0.985 . S
H548 N542 0.984 . S
H549 N542 0.984 . S
H550 N538 0.984 . S
H551 N538 0.985 . S
C552 C553 1.363 . S
C552 C558 1.379 1_455 S
C552 N560 1.356 . S
C553 C552 1.363 . S
C553 C559 1.363 1_455 S
C554 C555 1.363 . S
C554 C559 1.379 . S
C554 N561 1.356 . S
C555 C554 1.363 . S
C555 C558 1.363 . S
N556 C558 1.356 . S
N556 H568 0.984 . S
N556 H569 0.985 . S
N557 C559 1.356 1_455 S
N557 H562 0.984 . S
N557 H563 0.985 . S
C558 C552 1.379 1_655 S
C558 C555 1.363 . S
C558 N556 1.356 . S
C559 C553 1.363 1_655 S
C559 C554 1.379 . S
C559 N557 1.356 1_655 S
N560 C552 1.356 . S
N560 H566 0.984 . S
N560 H567 0.984 . S
N561 C554 1.356 . S
N561 H564 0.984 . S
N561 H565 0.985 . S
H562 N557 0.984 . S
H563 N557 0.985 . S
H564 N561 0.984 . S
H565 N561 0.985 . S
H566 N560 0.984 . S
H567 N560 0.984 . S
H568 N556 0.984 . S
H569 N556 0.985 . S
C570 C571 1.363 1_545 S
C570 C576 1.379 . S
C570 N578 1.356 1_545 S
C571 C570 1.363 1_565 S
C571 C577 1.363 . S
C572 C573 1.363 . S
C572 C577 1.379 1_545 S
C572 N579 1.356 . S
C573 C572 1.363 . S
C573 C576 1.363 . S
N574 C576 1.356 . S
N574 H586 0.984 . S
N574 H587 0.985 . S
N575 C577 1.356 . S
N575 H580 0.984 . S
N575 H581 0.985 . S
C576 C570 1.379 . S
C576 C573 1.363 . S
C576 N574 1.356 . S
C577 C571 1.363 . S
C577 C572 1.379 1_565 S
C577 N575 1.356 . S
N578 C570 1.356 1_565 S
N578 H584 0.984 1_565 S
N578 H585 0.984 . S
N579 C572 1.356 . S
N579 H582 0.984 . S
N579 H583 0.985 . S
H580 N575 0.984 . S
H581 N575 0.985 . S
H582 N579 0.984 . S
H583 N579 0.985 . S
H584 N578 0.984 1_545 S
H585 N578 0.984 . S
H586 N574 0.984 . S
H587 N574 0.985 . S
C588 C589 1.363 . S
C588 C594 1.379 . S
C588 N596 1.356 . S
C589 C588 1.363 . S
C589 C595 1.363 . S
C590 C591 1.363 . S
C590 C595 1.379 . S
C590 N597 1.356 . S
C591 C590 1.363 . S
C591 C594 1.363 . S
N592 C594 1.356 . S
N592 H604 0.984 . S
N592 H605 0.985 . S
N593 C595 1.356 . S
N593 H598 0.984 . S
N593 H599 0.985 . S
C594 C588 1.379 . S
C594 C591 1.363 . S
C594 N592 1.356 . S
C595 C589 1.363 . S
C595 C590 1.379 . S
C595 N593 1.356 . S
N596 C588 1.356 . S
N596 H602 0.984 . S
N596 H603 0.984 . S
N597 C590 1.356 . S
N597 H600 0.984 . S
N597 H601 0.985 . S
H598 N593 0.984 . S
H599 N593 0.985 . S
H600 N597 0.984 . S
H601 N597 0.985 . S
H602 N596 0.984 . S
H603 N596 0.984 . S
H604 N592 0.984 . S
H605 N592 0.985 . S
C606 C607 1.363 . S
C606 C612 1.379 . S
C606 N614 1.356 . S
C607 C606 1.363 . S
C607 C613 1.363 . S
C608 C609 1.363 . S
C608 C613 1.379 1_655 S
C608 N615 1.356 . S
C609 C608 1.363 . S
C609 C612 1.363 1_655 S
N610 C612 1.356 1_655 S
N610 H622 0.984 1_655 S
N610 H623 0.985 . S
N611 C613 1.356 . S
N611 H616 0.984 . S
N611 H617 0.985 . S
C612 C606 1.379 . S
C612 C609 1.363 1_455 S
C612 N610 1.356 1_455 S
C613 C607 1.363 . S
C613 C608 1.379 1_455 S
C613 N611 1.356 . S
N614 C606 1.356 . S
N614 H620 0.984 . S
N614 H621 0.984 . S
N615 C608 1.356 . S
N615 H618 0.984 . S
N615 H619 0.985 . S
H616 N611 0.984 . S
H617 N611 0.985 . S
H618 N615 0.984 . S
H619 N615 0.985 . S
H620 N614 0.984 . S
H621 N614 0.984 . S
H622 N610 0.984 1_455 S
H623 N610 0.985 . S
C624 C625 1.363 . S
C624 C630 1.379 1_565 S
C624 N632 1.356 . S
C625 C624 1.363 . S
C625 C631 1.363 . S
C626 C627 1.363 1_565 S
C626 C631 1.379 . S
C626 N633 1.356 1_565 S
C627 C626 1.363 1_545 S
C627 C630 1.363 . S
N628 C630 1.356 . S
N628 H640 0.984 . S
N628 H641 0.985 . S
N629 C631 1.356 . S
N629 H634 0.984 . S
N629 H635 0.985 . S
C630 C624 1.379 1_545 S
C630 C627 1.363 . S
C630 N628 1.356 . S
C631 C625 1.363 . S
C631 C626 1.379 . S
C631 N629 1.356 . S
N632 C624 1.356 . S
N632 H638 0.984 . S
N632 H639 0.984 . S
N633 C626 1.356 1_545 S
N633 H636 0.984 . S
N633 H637 0.999 . S
H634 N629 0.984 . S
H635 N629 0.985 . S
H636 N633 0.984 . S
H637 N633 0.999 . S
H638 N632 0.984 . S
H639 N632 0.984 . S
H640 N628 0.984 . S
H641 N628 0.985 . S
C642 C643 1.363 . S
C642 C648 1.379 . S
C642 N650 1.356 . S
C643 C642 1.363 . S
C643 C649 1.363 . S
C644 C645 1.363 . S
C644 C649 1.379 . S
C644 N651 1.356 . S
C645 C644 1.363 . S
C645 C648 1.363 . S
N646 C648 1.356 . S
N646 H658 0.984 . S
N646 H659 0.985 . S
N647 C649 1.356 . S
N647 H652 0.984 . S
N647 H653 0.985 . S
C648 C642 1.379 . S
C648 C645 1.363 . S
C648 N646 1.356 . S
C649 C643 1.363 . S
C649 C644 1.379 . S
C649 N647 1.356 . S
N650 C642 1.356 . S
N650 H656 0.984 . S
N650 H657 0.984 . S
N651 C644 1.356 . S
N651 H654 0.984 . S
N651 H655 0.985 . S
H652 N647 0.984 . S
H653 N647 0.985 . S
H654 N651 0.984 . S
H655 N651 0.985 . S
H656 N650 0.984 . S
H657 N650 0.984 . S
H658 N646 0.984 . S
H659 N646 0.985 . S
C660 C661 1.363 . S
C660 C666 1.379 1_455 S
C660 N668 1.356 . S
C661 C660 1.363 . S
C661 C667 1.363 . S
C662 C663 1.363 1_455 S
C662 C667 1.379 . S
C662 N669 1.356 1_455 S
C663 C662 1.363 1_655 S
C663 C666 1.363 . S
N664 C666 1.356 . S
N664 H676 0.984 . S
N664 H677 0.985 . S
N665 C667 1.356 . S
N665 H670 0.984 . S
N665 H671 0.985 . S
C666 C660 1.379 1_655 S
C666 C663 1.363 . S
C666 N664 1.356 . S
C667 C661 1.363 . S
C667 C662 1.379 . S
C667 N665 1.356 . S
N668 C660 1.356 . S
N668 H674 0.984 . S
N668 H675 0.984 . S
N669 C662 1.356 1_655 S
N669 H672 0.984 . S
N669 H673 0.985 1_655 S
H670 N665 0.984 . S
H671 N665 0.985 . S
H672 N669 0.984 . S
H673 N669 0.985 1_455 S
H674 N668 0.984 . S
H675 N668 0.984 . S
H676 N664 0.984 . S
H677 N664 0.985 . S
C678 C679 1.363 1_565 S
C678 C684 1.379 . S
C678 N686 1.356 1_565 S
C679 C678 1.363 1_545 S
C679 C685 1.363 . S
C680 C681 1.363 . S
C680 C685 1.379 1_565 S
C680 N687 1.356 . S
C681 C680 1.363 . S
C681 C684 1.363 . S
N682 C684 1.356 . S
N682 H694 0.984 . S
N682 H695 0.985 . S
N683 C685 1.356 . S
N683 H688 0.984 . S
N683 H689 0.985 . S
C684 C678 1.379 . S
C684 C681 1.363 . S
C684 N682 1.356 . S
C685 C679 1.363 . S
C685 C680 1.379 1_545 S
C685 N683 1.356 . S
N686 C678 1.356 1_545 S
N686 H692 0.984 . S
N686 H693 0.984 . S
N687 C680 1.356 . S
N687 H690 0.984 . S
N687 H691 0.985 . S
H688 N683 0.984 . S
H689 N683 0.985 . S
H690 N687 0.984 . S
H691 N687 0.985 . S
H692 N686 0.984 . S
H693 N686 0.984 . S
H694 N682 0.984 . S
H695 N682 0.985 . S
C696 C697 1.363 . S
C696 C702 1.379 . S
C696 N704 1.356 . S
C697 C696 1.363 . S
C697 C703 1.363 . S
C698 C699 1.363 . S
C698 C703 1.379 . S
C698 N705 1.356 . S
C699 C698 1.363 . S
C699 C702 1.363 . S
N700 C702 1.356 . S
N700 H712 0.984 . S
N700 H713 0.985 . S
N701 C703 1.356 . S
N701 H706 0.984 . S
N701 H707 0.985 . S
C702 C696 1.379 . S
C702 C699 1.363 . S
C702 N700 1.356 . S
C703 C697 1.363 . S
C703 C698 1.379 . S
C703 N701 1.356 . S
N704 C696 1.356 . S
N704 H710 0.984 . S
N704 H711 0.984 . S
N705 C698 1.356 . S
N705 H708 0.984 . S
N705 H709 0.985 . S
H706 N701 0.984 . S
H707 N701 0.985 . S
H708 N705 0.984 . S
H709 N705 0.985 . S
H710 N704 0.984 . S
H711 N704 0.984 . S
H712 N700 0.984 . S
H713 N700 0.985 . S
C714 C715 1.363 . S
C714 C720 1.379 . S
C714 N722 1.356 . S
C715 C714 1.363 . S
C715 C721 1.363 . S
C716 C717 1.363 . S
C716 C721 1.379 . S
C716 N723 1.356 . S
C717 C716 1.363 . S
C717 C720 1.363 . S
N718 C720 1.356 . S
N718 H730 0.984 . S
N718 H731 0.985 . S
N719 C721 1.356 . S
N719 H724 0.984 . S
N719 H725 0.985 . S
C720 C714 1.379 . S
C720 C717 1.363 . S
C720 N718 1.356 . S
C721 C715 1.363 . S
C721 C716 1.379 . S
C721 N719 1.356 . S
N722 C714 1.356 . S
N722 H728 0.984 . S
N722 H729 0.984 . S
N723 C716 1.356 . S
N723 H726 0.984 . S
N723 H727 0.985 . S
H724 N719 0.984 . S
H725 N719 0.985 . S
H726 N723 0.984 . S
H727 N723 0.985 . S
H728 N722 0.984 . S
H729 N722 0.984 . S
H730 N718 0.984 . S
H731 N718 0.985 . S
C732 C733 1.363 . S
C732 C738 1.379 . S
C732 N740 1.356 . S
C733 C732 1.363 . S
C733 C739 1.363 . S
C734 C735 1.363 . S
C734 C739 1.379 . S
C734 N741 1.356 . S
C735 C734 1.363 . S
C735 C738 1.363 . S
N736 C738 1.356 . S
N736 H748 0.984 . S
N736 H749 0.985 . S
N737 C739 1.356 . S
N737 H742 0.984 . S
N737 H743 0.985 . S
C738 C732 1.379 . S
C738 C735 1.363 . S
C738 N736 1.356 . S
C739 C733 1.363 . S
C739 C734 1.379 . S
C739 N737 1.356 . S
N740 C732 1.356 . S
N740 H746 0.984 . S
N740 H747 0.984 . S
N741 C734 1.356 . S
N741 H744 0.984 . S
N741 H745 0.985 . S
H742 N737 0.984 . S
H743 N737 0.985 . S
H744 N741 0.984 . S
H745 N741 0.985 . S
H746 N740 0.984 . S
H747 N740 0.984 . S
H748 N736 0.984 . S
H749 N736 0.985 . S
C750 C751 1.363 . S
C750 C756 1.379 . S
C750 N758 1.356 . S
C751 C750 1.363 . S
C751 C757 1.363 . S
C752 C753 1.363 . S
C752 C757 1.379 . S
C752 N759 1.356 . S
C753 C752 1.363 . S
C753 C756 1.363 . S
N754 C756 1.356 . S
N754 H766 0.984 . S
N754 H767 0.985 . S
N755 C757 1.356 . S
N755 H760 0.984 . S
N755 H761 0.985 . S
C756 C750 1.379 . S
C756 C753 1.363 . S
C756 N754 1.356 . S
C757 C751 1.363 . S
C757 C752 1.379 . S
C757 N755 1.356 . S
N758 C750 1.356 . S
N758 H764 0.984 . S
N758 H765 0.984 . S
N759 C752 1.356 . S
N759 H762 0.984 . S
N759 H763 0.985 . S
H760 N755 0.984 . S
H761 N755 0.985 . S
H762 N759 0.984 . S
H763 N759 0.985 . S
H764 N758 0.984 . S
H765 N758 0.984 . S
H766 N754 0.984 . S
H767 N754 0.985 . S
C768 C769 1.363 . S
C768 C774 1.379 . S
C768 N776 1.356 . S
C769 C768 1.363 . S
C769 C775 1.363 . S
C770 C771 1.363 . S
C770 C775 1.379 . S
C770 N777 1.356 . S
C771 C770 1.363 . S
C771 C774 1.363 . S
N772 C774 1.356 . S
N772 H784 0.984 . S
N772 H785 0.985 . S
N773 C775 1.356 . S
N773 H778 0.984 . S
N773 H779 0.985 . S
C774 C768 1.379 . S
C774 C771 1.363 . S
C774 N772 1.356 . S
C775 C769 1.363 . S
C775 C770 1.379 . S
C775 N773 1.356 . S
N776 C768 1.356 . S
N776 H782 0.984 . S
N776 H783 0.984 . S
N777 C770 1.356 . S
N777 H780 0.984 . S
N777 H781 0.985 . S
H778 N773 0.984 . S
H779 N773 0.985 . S
H780 N777 0.984 . S
H781 N777 0.985 . S
H782 N776 0.984 . S
H783 N776 0.984 . S
H784 N772 0.984 . S
H785 N772 0.985 . S
C786 C787 1.363 . S
C786 C792 1.379 . S
C786 N794 1.356 . S
C787 C786 1.363 . S
C787 C793 1.363 . S
C788 C789 1.363 . S
C788 C793 1.379 . S
C788 N795 1.356 . S
C789 C788 1.363 . S
C789 C792 1.363 . S
N790 C792 1.356 . S
N790 H802 0.984 . S
N790 H803 0.985 . S
N791 C793 1.356 . S
N791 H796 0.984 . S
N791 H797 0.985 . S
C792 C786 1.379 . S
C792 C789 1.363 . S
C792 N790 1.356 . S
C793 C787 1.363 . S
C793 C788 1.379 . S
C793 N791 1.356 . S
N794 C786 1.356 . S
N794 H800 0.984 . S
N794 H801 0.984 . S
N795 C788 1.356 . S
N795 H798 0.984 . S
N795 H799 0.985 . S
H796 N791 0.984 . S
H797 N791 0.985 . S
H798 N795 0.984 . S
H799 N795 0.985 . S
H800 N794 0.984 . S
H801 N794 0.984 . S
H802 N790 0.984 . S
H803 N790 0.985 . S
C804 C805 1.363 1_554 S
C804 C810 1.379 1_565 S
C804 N812 1.356 . S
C805 C804 1.363 1_556 S
C805 C811 1.363 . S
C806 C807 1.363 1_556 S
C806 C811 1.379 1_545 S
C806 N813 1.356 . S
C807 C806 1.363 1_554 S
C807 C810 1.363 . S
N808 C810 1.356 . S
N808 H820 0.984 . S
N808 H821 0.985 . S
N809 C811 1.356 . S
N809 H814 0.984 . S
N809 H815 0.985 . S
C810 C804 1.379 1_545 S
C810 C807 1.363 . S
C810 N808 1.356 . S
C811 C805 1.363 . S
C811 C806 1.379 1_565 S
C811 N809 1.356 . S
N812 C804 1.356 . S
N812 H818 0.984 . S
N812 H819 0.984 . S
N813 C806 1.356 . S
N813 H816 0.984 . S
N813 H817 0.985 . S
H814 N809 0.984 . S
H815 N809 0.985 . S
H816 N813 0.984 . S
H817 N813 0.985 . S
H818 N812 0.984 . S
H819 N812 0.984 . S
H820 N808 0.984 . S
H821 N808 0.985 . S
C822 C823 1.363 . S
C822 C828 1.379 . S
C822 N830 1.356 . S
C823 C822 1.363 . S
C823 C829 1.363 . S
C824 C825 1.363 . S
C824 C829 1.379 . S
C824 N831 1.356 . S
C825 C824 1.363 . S
C825 C828 1.363 . S
N826 C828 1.356 . S
N826 H838 0.984 . S
N826 H839 0.985 . S
N827 C829 1.356 . S
N827 H832 0.984 . S
N827 H833 0.985 . S
C828 C822 1.379 . S
C828 C825 1.363 . S
C828 N826 1.356 . S
C829 C823 1.363 . S
C829 C824 1.379 . S
C829 N827 1.356 . S
N830 C822 1.356 . S
N830 H836 0.984 . S
N830 H837 0.984 . S
N831 C824 1.356 . S
N831 H834 0.984 . S
N831 H835 0.985 . S
H832 N827 0.984 . S
H833 N827 0.985 . S
H834 N831 0.984 . S
H835 N831 0.985 . S
H836 N830 0.984 . S
H837 N830 0.984 . S
H838 N826 0.984 . S
H839 N826 0.985 . S
C840 C841 1.363 . S
C840 C846 1.379 1_455 S
C840 N848 1.356 . S
C841 C840 1.363 . S
C841 C847 1.363 1_556 S
C842 C843 1.363 . S
C842 C847 1.379 1_655 S
C842 N849 1.356 . S
C843 C842 1.363 . S
C843 C846 1.363 1_554 S
N844 C846 1.356 . S
N844 H856 0.984 . S
N844 H857 0.985 . S
N845 C847 1.356 . S
N845 H850 0.984 . S
N845 H851 0.985 . S
C846 C840 1.379 1_655 S
C846 C843 1.363 1_556 S
C846 N844 1.356 . S
C847 C841 1.363 1_554 S
C847 C842 1.379 1_455 S
C847 N845 1.356 . S
N848 C840 1.356 . S
N848 H854 0.984 . S
N848 H855 0.984 . S
N849 C842 1.356 . S
N849 H852 0.984 . S
N849 H853 0.985 . S
H850 N845 0.984 . S
H851 N845 0.985 . S
H852 N849 0.984 . S
H853 N849 0.985 . S
H854 N848 0.984 . S
H855 N848 0.984 . S
H856 N844 0.984 . S
H857 N844 0.985 . S
C858 C859 1.363 . S
C858 C864 1.379 1_545 S
C858 N866 1.356 . S
C859 C858 1.363 . S
C859 C865 1.363 . S
C860 C861 1.363 . S
C860 C865 1.379 1_565 S
C860 N867 1.356 . S
C861 C860 1.363 . S
C861 C864 1.363 . S
N862 C864 1.356 . S
N862 H874 0.984 . S
N862 H875 0.985 . S
N863 C865 1.356 . S
N863 H868 0.984 . S
N863 H869 0.985 . S
C864 C858 1.379 1_565 S
C864 C861 1.363 . S
C864 N862 1.356 . S
C865 C859 1.363 . S
C865 C860 1.379 1_545 S
C865 N863 1.356 . S
N866 C858 1.356 . S
N866 H872 0.984 . S
N866 H873 0.984 . S
N867 C860 1.356 . S
N867 H870 0.984 . S
N867 H871 0.985 . S
H868 N863 0.984 . S
H869 N863 0.985 . S
H870 N867 0.984 . S
H871 N867 0.985 . S
H872 N866 0.984 . S
H873 N866 0.984 . S
H874 N862 0.984 . S
H875 N862 0.985 . S
C876 C877 1.363 . S
C876 C882 1.379 . S
C876 N884 1.356 . S
C877 C876 1.363 . S
C877 C883 1.363 1_554 S
C878 C879 1.363 . S
C878 C883 1.379 . S
C878 N885 1.356 . S
C879 C878 1.363 . S
C879 C882 1.363 1_556 S
N880 C882 1.356 . S
N880 H892 0.984 . S
N880 H893 0.985 . S
N881 C883 1.356 . S
N881 H886 0.984 . S
N881 H887 0.985 . S
C882 C876 1.379 . S
C882 C879 1.363 1_554 S
C882 N880 1.356 . S
C883 C877 1.363 1_556 S
C883 C878 1.379 . S
C883 N881 1.356 . S
N884 C876 1.356 . S
N884 H890 0.984 . S
N884 H891 0.984 . S
N885 C878 1.356 . S
N885 H888 0.984 . S
N885 H889 0.985 . S
H886 N881 0.984 . S
H887 N881 0.985 . S
H888 N885 0.984 . S
H889 N885 0.985 . S
H890 N884 0.984 . S
H891 N884 0.984 . S
H892 N880 0.984 . S
H893 N880 0.985 . S
C894 C895 1.363 . S
C894 C900 1.379 1_455 S
C894 N902 1.356 . S
C895 C894 1.363 . S
C895 C901 1.363 . S
C896 C897 1.363 . S
C896 C901 1.379 1_655 S
C896 N903 1.356 . S
C897 C896 1.363 . S
C897 C900 1.363 . S
N898 C900 1.356 . S
N898 H910 0.984 . S
N898 H911 0.985 . S
N899 C901 1.356 . S
N899 H904 0.984 . S
N899 H905 0.985 . S
C900 C894 1.379 1_655 S
C900 C897 1.363 . S
C900 N898 1.356 . S
C901 C895 1.363 . S
C901 C896 1.379 1_455 S
C901 N899 1.356 . S
N902 C894 1.356 . S
N902 H908 0.984 . S
N902 H909 0.984 . S
N903 C896 1.356 . S
N903 H906 0.984 . S
N903 H907 0.985 . S
H904 N899 0.984 . S
H905 N899 0.985 . S
H906 N903 0.984 . S
H907 N903 0.985 . S
H908 N902 0.984 . S
H909 N902 0.984 . S
H910 N898 0.984 . S
H911 N898 0.985 . S
C912 C913 1.363 . S
C912 C918 1.379 . S
C912 N920 1.356 . S
C913 C912 1.363 . S
C913 C919 1.363 . S
C914 C915 1.363 . S
C914 C919 1.379 . S
C914 N921 1.356 . S
C915 C914 1.363 . S
C915 C918 1.363 . S
N916 C918 1.356 . S
N916 H928 0.984 . S
N916 H929 0.985 . S
N917 C919 1.356 . S
N917 H922 0.984 . S
N917 H923 0.985 . S
C918 C912 1.379 . S
C918 C915 1.363 . S
C918 N916 1.356 . S
C919 C913 1.363 . S
C919 C914 1.379 . S
C919 N917 1.356 . S
N920 C912 1.356 . S
N920 H926 0.984 . S
N920 H927 0.984 . S
N921 C914 1.356 . S
N921 H924 0.984 . S
N921 H925 0.985 . S
H922 N917 0.984 . S
H923 N917 0.985 . S
H924 N921 0.984 . S
H925 N921 0.985 . S
H926 N920 0.984 . S
H927 N920 0.984 . S
H928 N916 0.984 . S
H929 N916 0.985 . S
C930 C931 1.363 . S
C930 C936 1.379 . S
C930 N938 1.356 . S
C931 C930 1.363 . S
C931 C937 1.363 . S
C932 C933 1.363 . S
C932 C937 1.379 . S
C932 N939 1.356 . S
C933 C932 1.363 . S
C933 C936 1.363 . S
N934 C936 1.356 . S
N934 H946 0.984 . S
N934 H947 0.985 . S
N935 C937 1.356 . S
N935 H940 0.984 . S
N935 H941 0.985 . S
C936 C930 1.379 . S
C936 C933 1.363 . S
C936 N934 1.356 . S
C937 C931 1.363 . S
C937 C932 1.379 . S
C937 N935 1.356 . S
N938 C930 1.356 . S
N938 H944 0.984 . S
N938 H945 0.984 . S
N939 C932 1.356 . S
N939 H942 0.984 . S
N939 H943 0.985 . S
H940 N935 0.984 . S
H941 N935 0.985 . S
H942 N939 0.984 . S
H943 N939 0.985 . S
H944 N938 0.984 . S
H945 N938 0.984 . S
H946 N934 0.984 . S
H947 N934 0.985 . S
C948 C949 1.363 . S
C948 C954 1.379 . S
C948 N956 1.356 . S
C949 C948 1.363 . S
C949 C955 1.363 . S
C950 C951 1.363 . S
C950 C955 1.379 . S
C950 N957 1.356 . S
C951 C950 1.363 . S
C951 C954 1.363 . S
N952 C954 1.356 . S
N952 H964 0.984 . S
N952 H965 0.985 . S
N953 C955 1.356 . S
N953 H958 0.984 . S
N953 H959 0.985 . S
C954 C948 1.379 . S
C954 C951 1.363 . S
C954 N952 1.356 . S
C955 C949 1.363 . S
C955 C950 1.379 . S
C955 N953 1.356 . S
N956 C948 1.356 . S
N956 H962 0.984 . S
N956 H963 0.984 . S
N957 C950 1.356 . S
N957 H960 0.984 . S
N957 H961 0.985 . S
H958 N953 0.984 . S
H959 N953 0.985 . S
H960 N957 0.984 . S
H961 N957 0.985 . S
H962 N956 0.984 . S
H963 N956 0.984 . S
H964 N952 0.984 . S
H965 N952 0.985 . S
C966 C967 1.363 . S
C966 C972 1.379 . S
C966 N974 1.356 . S
C967 C966 1.363 . S
C967 C973 1.363 . S
C968 C969 1.363 . S
C968 C973 1.379 . S
C968 N975 1.356 . S
C969 C968 1.363 . S
C969 C972 1.363 . S
N970 C972 1.356 . S
N970 H982 0.984 . S
N970 H983 0.985 . S
N971 C973 1.356 . S
N971 H976 0.984 . S
N971 H977 0.985 . S
C972 C966 1.379 . S
C972 C969 1.363 . S
C972 N970 1.356 . S
C973 C967 1.363 . S
C973 C968 1.379 . S
C973 N971 1.356 . S
N974 C966 1.356 . S
N974 H980 0.984 . S
N974 H981 0.984 . S
N975 C968 1.356 . S
N975 H978 0.984 . S
N975 H979 0.985 . S
H976 N971 0.984 . S
H977 N971 0.985 . S
H978 N975 0.984 . S
H979 N975 0.985 . S
H980 N974 0.984 . S
H981 N974 0.984 . S
H982 N970 0.984 . S
H983 N970 0.985 . S
C984 C985 1.363 . S
C984 C990 1.379 . S
C984 N992 1.356 . S
C985 C984 1.363 . S
C985 C991 1.363 . S
C986 C987 1.363 . S
C986 C991 1.379 . S
C986 N993 1.356 . S
C987 C986 1.363 . S
C987 C990 1.363 . S
N988 C990 1.356 . S
N988 H1000 0.984 . S
N988 H1001 0.985 . S
N989 C991 1.356 . S
N989 H994 0.984 . S
N989 H995 0.985 . S
C990 C984 1.379 . S
C990 C987 1.363 . S
C990 N988 1.356 . S
C991 C985 1.363 . S
C991 C986 1.379 . S
C991 N989 1.356 . S
N992 C984 1.356 . S
N992 H998 0.984 . S
N992 H999 0.984 . S
N993 C986 1.356 . S
N993 H996 0.984 . S
N993 H997 0.985 . S
H994 N989 0.984 . S
H995 N989 0.985 . S
H996 N993 0.984 . S
H997 N993 0.985 . S
H998 N992 0.984 . S
H999 N992 0.984 . S
H1000 N988 0.984 . S
H1001 N988 0.985 . S
C1002 C1003 1.363 . S
C1002 C1008 1.379 . S
C1002 N1010 1.356 . S
C1003 C1002 1.363 . S
C1003 C1009 1.363 . S
C1004 C1005 1.363 . S
C1004 C1009 1.379 . S
C1004 N1011 1.356 . S
C1005 C1004 1.363 . S
C1005 C1008 1.363 . S
N1006 C1008 1.356 . S
N1006 H1018 0.984 . S
N1006 H1019 0.985 . S
N1007 C1009 1.356 . S
N1007 H1012 0.984 . S
N1007 H1013 0.985 . S
C1008 C1002 1.379 . S
C1008 C1005 1.363 . S
C1008 N1006 1.356 . S
C1009 C1003 1.363 . S
C1009 C1004 1.379 . S
C1009 N1007 1.356 . S
N1010 C1002 1.356 . S
N1010 H1016 0.984 . S
N1010 H1017 0.984 . S
N1011 C1004 1.356 . S
N1011 H1014 0.984 . S
N1011 H1015 0.985 . S
H1012 N1007 0.984 . S
H1013 N1007 0.985 . S
H1014 N1011 0.984 . S
H1015 N1011 0.985 . S
H1016 N1010 0.984 . S
H1017 N1010 0.984 . S
H1018 N1006 0.984 . S
H1019 N1006 0.985 . S
C1020 C1021 1.363 . S
C1020 C1026 1.379 . S
C1020 N1028 1.356 . S
C1021 C1020 1.363 . S
C1021 C1027 1.363 . S
C1022 C1023 1.363 . S
C1022 C1027 1.379 . S
C1022 N1029 1.356 . S
C1023 C1022 1.363 . S
C1023 C1026 1.363 . S
N1024 C1026 1.356 . S
N1024 H1036 0.984 . S
N1024 H1037 0.985 . S
N1025 C1027 1.356 . S
N1025 H1030 0.984 . S
N1025 H1031 0.985 . S
C1026 C1020 1.379 . S
C1026 C1023 1.363 . S
C1026 N1024 1.356 . S
C1027 C1021 1.363 . S
C1027 C1022 1.379 . S
C1027 N1025 1.356 . S
N1028 C1020 1.356 . S
N1028 H1034 0.984 . S
N1028 H1035 0.984 . S
N1029 C1022 1.356 . S
N1029 H1032 0.984 . S
N1029 H1033 0.985 . S
H1030 N1025 0.984 . S
H1031 N1025 0.985 . S
H1032 N1029 0.984 . S
H1033 N1029 0.985 . S
H1034 N1028 0.984 . S
H1035 N1028 0.984 . S
H1036 N1024 0.984 . S
H1037 N1024 0.985 . S
C1038 C1039 1.363 . S
C1038 C1044 1.379 . S
C1038 N1046 1.356 . S
C1039 C1038 1.363 . S
C1039 C1045 1.363 . S
C1040 C1041 1.363 . S
C1040 C1045 1.379 . S
C1040 N1047 1.356 . S
C1041 C1040 1.363 . S
C1041 C1044 1.363 . S
N1042 C1044 1.356 . S
N1042 H1054 0.984 . S
N1042 H1055 0.985 . S
N1043 C1045 1.356 . S
N1043 H1048 0.984 . S
N1043 H1049 0.985 . S
C1044 C1038 1.379 . S
C1044 C1041 1.363 . S
C1044 N1042 1.356 . S
C1045 C1039 1.363 . S
C1045 C1040 1.379 . S
C1045 N1043 1.356 . S
N1046 C1038 1.356 . S
N1046 H1052 0.984 . S
N1046 H1053 0.984 . S
N1047 C1040 1.356 . S
N1047 H1050 0.984 . S
N1047 H1051 0.985 . S
H1048 N1043 0.984 . S
H1049 N1043 0.985 . S
H1050 N1047 0.984 . S
H1051 N1047 0.985 . S
H1052 N1046 0.984 . S
H1053 N1046 0.984 . S
H1054 N1042 0.984 . S
H1055 N1042 0.985 . S
C1056 C1057 1.363 . S
C1056 C1062 1.379 . S
C1056 N1064 1.356 . S
C1057 C1056 1.363 . S
C1057 C1063 1.363 . S
C1058 C1059 1.363 . S
C1058 C1063 1.379 . S
C1058 N1065 1.356 . S
C1059 C1058 1.363 . S
C1059 C1062 1.363 . S
N1060 C1062 1.356 . S
N1060 H1072 0.984 . S
N1060 H1073 0.985 . S
N1061 C1063 1.356 . S
N1061 H1066 0.984 . S
N1061 H1067 0.985 . S
C1062 C1056 1.379 . S
C1062 C1059 1.363 . S
C1062 N1060 1.356 . S
C1063 C1057 1.363 . S
C1063 C1058 1.379 . S
C1063 N1061 1.356 . S
N1064 C1056 1.356 . S
N1064 H1070 0.984 . S
N1064 H1071 0.984 . S
N1065 C1058 1.356 . S
N1065 H1068 0.984 . S
N1065 H1069 0.985 . S
H1066 N1061 0.984 . S
H1067 N1061 0.985 . S
H1068 N1065 0.984 . S
H1069 N1065 0.985 . S
H1070 N1064 0.984 . S
H1071 N1064 0.984 . S
H1072 N1060 0.984 . S
H1073 N1060 0.985 . S
C1074 C1075 1.363 . S
C1074 C1080 1.379 . S
C1074 N1082 1.356 . S
C1075 C1074 1.363 . S
C1075 C1081 1.363 . S
C1076 C1077 1.363 . S
C1076 C1081 1.379 . S
C1076 N1083 1.356 . S
C1077 C1076 1.363 . S
C1077 C1080 1.363 . S
N1078 C1080 1.356 . S
N1078 H1090 0.984 . S
N1078 H1091 0.985 . S
N1079 C1081 1.356 . S
N1079 H1084 0.984 . S
N1079 H1085 0.985 . S
C1080 C1074 1.379 . S
C1080 C1077 1.363 . S
C1080 N1078 1.356 . S
C1081 C1075 1.363 . S
C1081 C1076 1.379 . S
C1081 N1079 1.356 . S
N1082 C1074 1.356 . S
N1082 H1088 0.984 . S
N1082 H1089 0.984 . S
N1083 C1076 1.356 . S
N1083 H1086 0.984 . S
N1083 H1087 0.985 . S
H1084 N1079 0.984 . S
H1085 N1079 0.985 . S
H1086 N1083 0.984 . S
H1087 N1083 0.985 . S
H1088 N1082 0.984 . S
H1089 N1082 0.984 . S
H1090 N1078 0.984 . S
H1091 N1078 0.985 . S
C1092 C1093 1.363 . S
C1092 C1098 1.379 . S
C1092 N1100 1.356 . S
C1093 C1092 1.363 . S
C1093 C1099 1.363 . S
C1094 C1095 1.363 . S
C1094 C1099 1.379 . S
C1094 N1101 1.356 . S
C1095 C1094 1.363 . S
C1095 C1098 1.363 . S
N1096 C1098 1.356 . S
N1096 H1108 0.984 . S
N1096 H1109 0.985 . S
N1097 C1099 1.356 . S
N1097 H1102 0.984 . S
N1097 H1103 0.985 . S
C1098 C1092 1.379 . S
C1098 C1095 1.363 . S
C1098 N1096 1.356 . S
C1099 C1093 1.363 . S
C1099 C1094 1.379 . S
C1099 N1097 1.356 . S
N1100 C1092 1.356 . S
N1100 H1106 0.984 . S
N1100 H1107 0.984 . S
N1101 C1094 1.356 . S
N1101 H1104 0.984 . S
N1101 H1105 0.985 . S
H1102 N1097 0.984 . S
H1103 N1097 0.985 . S
H1104 N1101 0.984 . S
H1105 N1101 0.985 . S
H1106 N1100 0.984 . S
H1107 N1100 0.984 . S
H1108 N1096 0.984 . S
H1109 N1096 0.985 . S
C1110 C1111 1.363 . S
C1110 C1116 1.379 . S
C1110 N1118 1.356 . S
C1111 C1110 1.363 . S
C1111 C1117 1.363 . S
C1112 C1113 1.363 . S
C1112 C1117 1.379 . S
C1112 N1119 1.356 . S
C1113 C1112 1.363 . S
C1113 C1116 1.363 . S
N1114 C1116 1.356 . S
N1114 H1126 0.984 . S
N1114 H1127 0.985 . S
N1115 C1117 1.356 . S
N1115 H1120 0.984 . S
N1115 H1121 0.985 . S
C1116 C1110 1.379 . S
C1116 C1113 1.363 . S
C1116 N1114 1.356 . S
C1117 C1111 1.363 . S
C1117 C1112 1.379 . S
C1117 N1115 1.356 . S
N1118 C1110 1.356 . S
N1118 H1124 0.984 . S
N1118 H1125 0.984 . S
N1119 C1112 1.356 . S
N1119 H1122 0.984 . S
N1119 H1123 0.985 . S
H1120 N1115 0.984 . S
H1121 N1115 0.985 . S
H1122 N1119 0.984 . S
H1123 N1119 0.985 . S
H1124 N1118 0.984 . S
H1125 N1118 0.984 . S
H1126 N1114 0.984 . S
H1127 N1114 0.985 . S
C481 C97 1.347 . S
C483 C24 1.345 . S
C499 C146 1.347 . S
C501 C53 1.345 . S
C517 C104 1.345 . S
C519 C177 1.347 . S
C535 C133 1.345 . S
C537 C226 1.347 . S
C553 C17 1.347 . S
C555 C184 1.345 . S
C571 C66 1.347 . S
C573 C213 1.345 . S
C589 C426 1.347 . S
C591 C253 1.345 . S
C607 C304 1.345 . S
C609 C457 1.347 . S
C625 C333 1.345 . S
C627 C266 1.347 . S
C643 C384 1.345 . S
C645 C297 1.347 . S
C661 C413 1.345 . S
C663 C346 1.347 . S
C679 C377 1.347 . S
C681 C464 1.345 . S
C697 C122 1.720 . S
C699 C23 1.720 . S
C715 C42 1.720 . S
C717 C183 1.720 . S
C733 C103 1.720 . S
C735 C202 1.720 . S
C751 C242 1.720 . S
C753 C383 1.720 . S
C769 C303 1.720 . S
C771 C402 1.720 . S
C787 C322 1.720 . S
C789 C463 1.720 . S
C805 C282 2.510 . S
C807 C2 2.510 . S
C823 C63 2.510 . S
C825 C343 2.510 . S
C841 C362 2.510 . S
C843 C82 2.510 . S
C859 C143 2.510 . S
C861 C423 2.510 . S
C877 C162 2.510 . S
C879 C442 2.510 . S
C895 C263 2.510 . S
C897 C223 2.510 . S
C913 C106 1.615 . S
C915 C13 1.615 . S
C931 C64 1.615 . S
C933 C137 1.615 . S
C949 C93 1.615 . S
C951 C186 1.615 . S
C967 C144 1.615 . S
C969 C217 1.615 . S
C985 C26 1.615 . S
C987 C173 1.615 . S
C1003 C57 1.615 . S
C1005 C224 1.615 . S
C1021 C417 1.615 . S
C1023 C264 1.615 . S
C1039 C293 1.615 . S
C1041 C466 1.615 . S
C1057 C344 1.615 . S
C1059 C257 1.615 . S
C1075 C306 1.615 . S
C1077 C373 1.615 . S
C1093 C424 1.615 . S
C1095 C337 1.615 . S
C1111 C453 1.615 . S
C1113 C386 1.615 . S
