# Generated by pormake.
# Topology umw, (4)-cn, num edge types: 1
# Building blocks:
#     Node 0, Type 0, BuildingBlock: KUFVIS_clean_sbu_0, # of connection points: 4
#     Node 1, Type 0, BuildingBlock: KUFVIS_clean_sbu_0, # of connection points: 4
#     Node 2, Type 0, BuildingBlock: KUFVIS_clean_sbu_0, # of connection points: 4
#     Node 3, Type 0, BuildingBlock: KUFVIS_clean_sbu_0, # of connection points: 4
#     Node 4, Type 0, BuildingBlock: KUFVIS_clean_sbu_0, # of connection points: 4
#     Node 5, Type 0, BuildingBlock: KUFVIS_clean_sbu_0, # of connection points: 4
#     Node 6, Type 0, BuildingBlock: KUFVIS_clean_sbu_0, # of connection points: 4
#     Node 7, Type 0, BuildingBlock: KUFVIS_clean_sbu_0, # of connection points: 4
#     Edge 8, Type (0, 0), BuildingBlock: FUNLAD_clean_linker_0, # of connection points: 2
#     Edge 9, Type (0, 0), BuildingBlock: FUNLAD_clean_linker_0, # of connection points: 2
#     Edge 10, Type (0, 0), BuildingBlock: FUNLAD_clean_linker_0, # of connection points: 2
#     Edge 11, Type (0, 0), BuildingBlock: FUNLAD_clean_linker_0, # of connection points: 2
#     Edge 12, Type (0, 0), BuildingBlock: FUNLAD_clean_linker_0, # of connection points: 2
#     Edge 13, Type (0, 0), BuildingBlock: FUNLAD_clean_linker_0, # of connection points: 2
#     Edge 14, Type (0, 0), BuildingBlock: FUNLAD_clean_linker_0, # of connection points: 2
#     Edge 15, Type (0, 0), BuildingBlock: FUNLAD_clean_linker_0, # of connection points: 2
#     Edge 16, Type (0, 0), BuildingBlock: FUNLAD_clean_linker_0, # of connection points: 2
#     Edge 17, Type (0, 0), BuildingBlock: FUNLAD_clean_linker_0, # of connection points: 2
#     Edge 18, Type (0, 0), BuildingBlock: FUNLAD_clean_linker_0, # of connection points: 2
#     Edge 19, Type (0, 0), BuildingBlock: FUNLAD_clean_linker_0, # of connection points: 2
#     Edge 20, Type (0, 0), BuildingBlock: FUNLAD_clean_linker_0, # of connection points: 2
#     Edge 21, Type (0, 0), BuildingBlock: FUNLAD_clean_linker_0, # of connection points: 2
#     Edge 22, Type (0, 0), BuildingBlock: FUNLAD_clean_linker_0, # of connection points: 2
#     Edge 23, Type (0, 0), BuildingBlock: FUNLAD_clean_linker_0, # of connection points: 2
# Relax obj value: 0.134
# Max RMSD: 0.105
# Mean RMSD: 0.105
data_MOF--net-umw--node1-KUFVIS_clean_sbu_0--edge1-FUNLAD_clean_linker_0
_symmetry_space_group_name_H-M    P1
_symmetry_Int_Tables_number       1
_symmetry_cell_setting            triclinic
loop_
_symmetry_equiv_pos_as_xyz
'x, y, z'
_cell_length_a     48.418191
_cell_length_b     48.537936
_cell_length_c     29.407732
_cell_angle_alpha  89.964141
_cell_angle_beta   90.072051
_cell_angle_gamma 89.965355
loop_
_atom_site_label
_atom_site_type_symbol
_atom_site_fract_x
_atom_site_fract_y
_atom_site_fract_z
_atom_type_partial_charge
Mn0 Mn 0.41128 0.18532 0.29904 0.0
Mn1 Mn 0.4747 0.15589 0.29878 0.0
C2 C 0.43535 0.17921 0.36598 0.0
C3 C 0.38171 0.22336 0.30034 0.0
C4 C 0.42189 0.12313 0.29136 0.0
O5 O 0.4228 0.18944 0.23211 0.0
O6 O 0.46433 0.16854 0.23737 0.0
C7 C 0.50746 0.20558 0.27638 0.0
N8 N 0.50235 0.18376 0.30426 0.0
C9 C 0.54153 0.19479 0.3512 0.0
C10 C 0.5473 0.21731 0.32287 0.0
C11 C 0.5301 0.2228 0.28543 0.0
C12 C 0.51862 0.17843 0.34059 0.0
H13 H 0.4944 0.20979 0.24741 0.0
C14 C 0.44548 0.1809 0.21465 0.0
O15 O 0.37293 0.19911 0.2886 0.0
O16 O 0.40809 0.22597 0.30676 0.0
N17 N 0.48777 0.14294 0.35638 0.0
C18 C 0.47825 0.12159 0.38205 0.0
C19 C 0.49249 0.11412 0.42184 0.0
C20 C 0.51661 0.12832 0.43433 0.0
C21 C 0.52618 0.15001 0.40707 0.0
C22 C 0.51101 0.15667 0.36802 0.0
H23 H 0.45986 0.11045 0.37233 0.0
O24 O 0.40868 0.18129 0.36624 0.0
O25 O 0.44737 0.18051 0.32657 0.0
O26 O 0.4053 0.14356 0.29191 0.0
O27 O 0.44807 0.12546 0.29375 0.0
C28 C 0.54994 0.16556 0.41743 0.0
C29 C 0.55748 0.18807 0.38974 0.0
H30 H 0.56477 0.23062 0.32971 0.0
H31 H 0.53436 0.24019 0.26349 0.0
H32 H 0.48496 0.09738 0.44273 0.0
H33 H 0.52752 0.12251 0.46506 0.0
H34 H 0.56238 0.16062 0.44696 0.0
H35 H 0.57548 0.20019 0.39858 0.0
Mn36 Mn 0.81771 0.41359 0.54968 0.0
Mn37 Mn 0.83417 0.48112 0.54825 0.0
C38 C 0.82367 0.43746 0.61687 0.0
C39 C 0.78363 0.37959 0.55364 0.0
C40 C 0.87523 0.43519 0.52772 0.0
O41 O 0.80885 0.4252 0.48392 0.0
O42 O 0.81511 0.47117 0.4912 0.0
C43 C 0.77775 0.50465 0.55069 0.0
N44 N 0.80366 0.50288 0.56847 0.0
C45 C 0.79285 0.53629 0.62621 0.0
C46 C 0.76618 0.53883 0.60802 0.0
C47 C 0.75855 0.5228 0.57028 0.0
C48 C 0.81105 0.51779 0.60533 0.0
H49 H 0.77174 0.49216 0.52202 0.0
C50 C 0.8074 0.44994 0.46873 0.0
O51 O 0.80839 0.37378 0.53945 0.0
O52 O 0.7783 0.40524 0.56181 0.0
N53 N 0.85255 0.49367 0.6021 0.0
C54 C 0.87851 0.48765 0.61707 0.0
C55 C 0.88908 0.50137 0.65536 0.0
C56 C 0.873 0.52135 0.67752 0.0
C57 C 0.84642 0.52734 0.66132 0.0
C58 C 0.83703 0.51309 0.6229 0.0
H59 H 0.89113 0.47256 0.59992 0.0
O60 O 0.82534 0.41084 0.61659 0.0
O61 O 0.81842 0.44911 0.57826 0.0
O62 O 0.85939 0.41481 0.53654 0.0
O63 O 0.86715 0.46029 0.52841 0.0
C64 C 0.82876 0.54667 0.68208 0.0
C65 C 0.80192 0.551 0.66474 0.0
H66 H 0.7513 0.55276 0.62308 0.0
H67 H 0.73791 0.5244 0.55636 0.0
H68 H 0.90961 0.49662 0.66766 0.0
H69 H 0.88122 0.53186 0.70706 0.0
H70 H 0.83544 0.558 0.71184 0.0
H71 H 0.78834 0.56551 0.68154 0.0
Mn72 Mn 0.60271 0.82122 0.80464 0.0
Mn73 Mn 0.53735 0.84567 0.80584 0.0
C74 C 0.58178 0.83316 0.87252 0.0
C75 C 0.63396 0.78467 0.81163 0.0
C76 C 0.58706 0.87999 0.77799 0.0
O77 O 0.58804 0.81024 0.74139 0.0
O78 O 0.54374 0.824 0.75002 0.0
C79 C 0.5072 0.79282 0.81428 0.0
N80 N 0.51223 0.81888 0.82923 0.0
C81 C 0.47686 0.81518 0.88629 0.0
C82 C 0.47084 0.78853 0.87081 0.0
C83 C 0.48627 0.7772 0.83494 0.0
C84 C 0.49803 0.82969 0.86451 0.0
H85 H 0.51922 0.78401 0.78708 0.0
C86 C 0.56297 0.81211 0.72754 0.0
O87 O 0.64107 0.80773 0.79245 0.0
O88 O 0.60818 0.78207 0.82259 0.0
N89 N 0.52811 0.86686 0.85852 0.0
C90 C 0.53848 0.89156 0.87241 0.0
C91 C 0.52667 0.9049 0.91004 0.0
C92 C 0.50402 0.89297 0.93243 0.0
C93 C 0.49358 0.86765 0.91726 0.0
C94 C 0.50639 0.85517 0.87993 0.0
H95 H 0.55565 0.90101 0.85498 0.0
O96 O 0.60844 0.83209 0.86962 0.0
O97 O 0.56815 0.82715 0.83589 0.0
O98 O 0.60561 0.86183 0.78542 0.0
O99 O 0.56126 0.8753 0.78249 0.0
C100 C 0.47118 0.85412 0.93806 0.0
C101 C 0.46301 0.82776 0.92293 0.0
H102 H 0.45471 0.77642 0.88667 0.0
H103 H 0.48203 0.75649 0.82325 0.0
H104 H 0.53488 0.92442 0.92156 0.0
H105 H 0.49494 0.90332 0.9614 0.0
H106 H 0.46057 0.86347 0.96656 0.0
H107 H 0.44633 0.81719 0.94015 0.0
Mn108 Mn 0.19822 0.59694 0.0351 0.0
Mn109 Mn 0.17497 0.53122 0.03329 0.0
C110 C 0.19104 0.57289 0.10176 0.0
C111 C 0.23439 0.62871 0.04045 0.0
C112 C 0.13798 0.58069 0.01731 0.0
O113 O 0.20599 0.58533 0.969 0.0
O114 O 0.19057 0.54147 0.97392 0.0
C115 C 0.22899 0.50325 0.02354 0.0
N116 N 0.20488 0.50681 0.0466 0.0
C117 C 0.21709 0.47156 0.10059 0.0
C118 C 0.24201 0.46743 0.07731 0.0
C119 C 0.24802 0.48341 0.03871 0.0
C120 C 0.19901 0.49174 0.08403 0.0
H121 H 0.23364 0.51548 -0.00618 0.0
C122 C 0.20117 0.56154 0.95182 0.0
O123 O 0.21016 0.63601 0.0256 0.0
O124 O 0.23817 0.60266 0.04772 0.0
N125 N 0.15918 0.5184 0.08903 0.0
C126 C 0.1345 0.52535 0.1081 0.0
C127 C 0.12536 0.51125 0.14697 0.0
C128 C 0.14149 0.48995 0.16549 0.0
C129 C 0.1667 0.483 0.14504 0.0
C130 C 0.17464 0.49764 0.10617 0.0
H131 H 0.12186 0.54148 0.09369 0.0
O132 O 0.19108 0.59957 0.10202 0.0
O133 O 0.19495 0.56114 0.06279 0.0
O134 O 0.1564 0.59933 0.02213 0.0
O135 O 0.14295 0.55491 0.0204 0.0
C136 C 0.18433 0.46225 0.16188 0.0
C137 C 0.2096 0.45666 0.13984 0.0
H138 H 0.25673 0.45213 0.08888 0.0
H139 H 0.26724 0.48041 0.02066 0.0
H140 H 0.10587 0.51671 0.16253 0.0
H141 H 0.13434 0.47909 0.19542 0.0
H142 H 0.17882 0.45069 0.19205 0.0
H143 H 0.22315 0.44091 0.15344 0.0
Mn144 Mn 0.41618 0.81596 0.27894 0.0
Mn145 Mn 0.47811 0.84753 0.28921 0.0
C146 C 0.44021 0.82972 0.2151 0.0
C147 C 0.3892 0.77659 0.26815 0.0
C148 C 0.42329 0.87591 0.30722 0.0
O149 O 0.42768 0.807 0.34473 0.0
O150 O 0.47102 0.82461 0.34369 0.0
C151 C 0.51504 0.7989 0.28567 0.0
N152 N 0.50759 0.82416 0.26973 0.0
C153 C 0.54525 0.82432 0.21638 0.0
C154 C 0.55371 0.79858 0.23302 0.0
C155 C 0.5384 0.78573 0.26759 0.0
C156 C 0.52188 0.8365 0.23592 0.0
H157 H 0.50306 0.78881 0.31159 0.0
C158 C 0.45151 0.81099 0.36268 0.0
O159 O 0.37878 0.79903 0.28499 0.0
O160 O 0.4157 0.77625 0.26177 0.0
N161 N 0.48756 0.87004 0.23801 0.0
C162 C 0.4749 0.89328 0.22235 0.0
C163 C 0.48642 0.90766 0.18554 0.0
C164 C 0.51098 0.8982 0.16553 0.0
C165 C 0.5237 0.87432 0.18236 0.0
C166 C 0.51126 0.86083 0.21911 0.0
H167 H 0.45608 0.90074 0.23763 0.0
O168 O 0.41378 0.8257 0.21303 0.0
O169 O 0.45181 0.82548 0.25424 0.0
O170 O 0.40771 0.85599 0.29554 0.0
O171 O 0.44958 0.87413 0.30897 0.0
C172 C 0.54793 0.86306 0.1635 0.0
C173 C 0.55862 0.838 0.18032 0.0
H174 H 0.5716 0.78828 0.21893 0.0
H175 H 0.54453 0.76566 0.28012 0.0
H176 H 0.47642 0.92602 0.17265 0.0
H177 H 0.51973 0.90926 0.13699 0.0
H178 H 0.55814 0.87318 0.13532 0.0
H179 H 0.57683 0.82916 0.16469 0.0
Mn180 Mn 0.18702 0.4102 0.51137 0.0
Mn181 Mn 0.16605 0.47654 0.50688 0.0
C182 C 0.17682 0.43081 0.44251 0.0
C183 C 0.2228 0.37789 0.50663 0.0
C184 C 0.12866 0.42922 0.53556 0.0
O185 O 0.19814 0.42502 0.57435 0.0
O186 O 0.18674 0.46971 0.56367 0.0
C187 C 0.22101 0.5029 0.49904 0.0
N188 N 0.19488 0.4992 0.48301 0.0
C189 C 0.20268 0.53113 0.4217 0.0
C190 C 0.2295 0.53568 0.43809 0.0
C191 C 0.23875 0.52136 0.47676 0.0
C192 C 0.18594 0.51246 0.44532 0.0
H193 H 0.2283 0.49169 0.52838 0.0
C194 C 0.19752 0.45027 0.58717 0.0
O195 O 0.1992 0.37153 0.52492 0.0
O196 O 0.2262 0.40337 0.495 0.0
N197 N 0.146 0.48622 0.453 0.0
C198 C 0.12023 0.47818 0.43988 0.0
C199 C 0.10829 0.48981 0.40078 0.0
C200 C 0.1228 0.5098 0.37587 0.0
C201 C 0.14916 0.51798 0.39029 0.0
C202 C 0.15997 0.50574 0.42962 0.0
H203 H 0.10885 0.463 0.45905 0.0
O204 O 0.17665 0.40422 0.44602 0.0
O205 O 0.18294 0.44435 0.47903 0.0
O206 O 0.14596 0.40965 0.52947 0.0
O207 O 0.13475 0.45466 0.53025 0.0
C208 C 0.16532 0.53743 0.36673 0.0
C209 C 0.19212 0.54389 0.38227 0.0
H210 H 0.24328 0.54982 0.42089 0.0
H211 H 0.25954 0.5245 0.48928 0.0
H212 H 0.08793 0.4834 0.38988 0.0
H213 H 0.11361 0.51857 0.34554 0.0
H214 H 0.15755 0.54715 0.3361 0.0
H215 H 0.20458 0.55842 0.3633 0.0
Mn216 Mn 0.60006 0.18819 0.77458 0.0
Mn217 Mn 0.53322 0.16832 0.77309 0.0
C218 C 0.57781 0.17993 0.7064 0.0
C219 C 0.63331 0.22297 0.76992 0.0
C220 C 0.5808 0.13007 0.79747 0.0
O221 O 0.58673 0.19775 0.83916 0.0
O222 O 0.54134 0.1881 0.83024 0.0
C223 C 0.50633 0.22309 0.76896 0.0
N224 N 0.50989 0.19732 0.7517 0.0
C225 C 0.47545 0.20524 0.6941 0.0
C226 C 0.47105 0.23171 0.71176 0.0
C227 C 0.48672 0.24074 0.74914 0.0
C228 C 0.49533 0.18862 0.71518 0.0
H229 H 0.51847 0.23012 0.79745 0.0
C230 C 0.56168 0.19753 0.8533 0.0
O231 O 0.63932 0.19892 0.78676 0.0
O232 O 0.6076 0.22745 0.76019 0.0
N233 N 0.52246 0.14911 0.71909 0.0
C234 C 0.5309 0.12397 0.70382 0.0
C235 C 0.51844 0.11259 0.665 0.0
C236 C 0.49715 0.12694 0.64274 0.0
C237 C 0.48862 0.15263 0.65937 0.0
C238 C 0.50193 0.16303 0.698 0.0
H239 H 0.54706 0.11271 0.72103 0.0
O240 O 0.60452 0.17928 0.70855 0.0
O241 O 0.56497 0.18552 0.7439 0.0
O242 O 0.60051 0.14691 0.78996 0.0
O243 O 0.55531 0.13666 0.79441 0.0
C244 C 0.46769 0.1685 0.63879 0.0
C245 C 0.46123 0.19487 0.65596 0.0
H246 H 0.45596 0.2454 0.69654 0.0
H247 H 0.48368 0.26126 0.76265 0.0
H248 H 0.52515 0.09275 0.65238 0.0
H249 H 0.48761 0.11812 0.61276 0.0
H250 H 0.45686 0.16088 0.60911 0.0
H251 H 0.44558 0.20716 0.63911 0.0
Mn252 Mn 0.82806 0.60047 0.02606 0.0
Mn253 Mn 0.85519 0.53634 0.01987 0.0
C254 C 0.83682 0.58014 0.95659 0.0
C255 C 0.78981 0.62989 0.02443 0.0
C256 C 0.88921 0.58709 0.04199 0.0
O257 O 0.82085 0.58534 0.09041 0.0
O258 O 0.83865 0.54282 0.08003 0.0
C259 C 0.80307 0.50465 0.02559 0.0
N260 N 0.82694 0.51075 0.00332 0.0
C261 C 0.81721 0.47717 0.9453 0.0
C262 C 0.79258 0.47044 0.96773 0.0
C263 C 0.78544 0.48431 0.00797 0.0
C264 C 0.8339 0.49768 0.9644 0.0
H265 H 0.79753 0.51524 0.05656 0.0
C266 C 0.82668 0.56101 0.10454 0.0
O267 O 0.81353 0.63823 0.03992 0.0
O268 O 0.78783 0.60406 0.01401 0.0
N269 N 0.87185 0.52706 0.9629 0.0
C270 C 0.89588 0.53661 0.94467 0.0
C271 C 0.90578 0.52512 0.904 0.0
C272 C 0.89109 0.50371 0.88283 0.0
C273 C 0.86664 0.49394 0.9026 0.0
C274 C 0.85784 0.50612 0.94325 0.0
H275 H 0.90738 0.5529 0.96098 0.0
O276 O 0.8351 0.60669 0.95973 0.0
O277 O 0.83354 0.56635 -0.0061 0.0
O278 O 0.86967 0.60479 0.03964 0.0
O279 O 0.88565 0.56129 0.03582 0.0
C280 C 0.85044 0.47287 0.88322 0.0
C281 C 0.82568 0.46459 0.90443 0.0
H282 H 0.77892 0.45477 0.95423 0.0
H283 H 0.76642 0.4793 0.02538 0.0
H284 H 0.92469 0.53274 0.88901 0.0
H285 H 0.89867 0.49504 0.85129 0.0
H286 H 0.85663 0.46319 0.85165 0.0
H287 H 0.81319 0.44867 0.88884 0.0
C288 C 0.47275 0.20052 0.4114 0.0
C289 C 0.45062 0.18198 0.40864 0.0
C290 C 0.4873 0.2035 0.45196 0.0
C291 C 0.47903 0.18887 0.49065 0.0
C292 C 0.45592 0.17156 0.48875 0.0
C293 C 0.44179 0.16803 0.44777 0.0
C294 C 0.49457 0.1915 0.53312 0.0
C295 C 0.52091 0.18314 0.53558 0.0
C296 C 0.53653 0.18334 0.57857 0.0
C297 C 0.55571 0.16229 0.58724 0.0
C298 C 0.56946 0.16113 0.62896 0.0
C299 C 0.56401 0.18099 0.66228 0.0
H300 H 0.51852 0.22116 0.60462 0.0
C301 C 0.54628 0.20303 0.65251 0.0
C302 C 0.53243 0.20412 0.61108 0.0
H303 H 0.54291 0.21925 0.67718 0.0
H304 H 0.47884 0.21262 0.38213 0.0
H305 H 0.50485 0.21733 0.45326 0.0
H306 H 0.44922 0.16036 0.51864 0.0
H307 H 0.42421 0.15426 0.44648 0.0
H308 H 0.48361 0.19852 0.56306 0.0
H309 H 0.53049 0.17387 0.50602 0.0
H310 H 0.55946 0.14633 0.56223 0.0
H311 H 0.58374 0.14441 0.63566 0.0
C312 C 0.84125 0.45193 0.69255 0.0
C313 C 0.82039 0.45221 0.65962 0.0
C314 C 0.83846 0.46796 0.73165 0.0
C315 C 0.81448 0.48386 0.73833 0.0
C316 C 0.79273 0.48213 0.70707 0.0
C317 C 0.79574 0.4665 0.66774 0.0
C318 C 0.81184 0.50291 0.77697 0.0
C319 C 0.83344 0.51753 0.79242 0.0
C320 C 0.83165 0.53643 0.83165 0.0
C321 C 0.85242 0.55631 0.83778 0.0
C322 C 0.85361 0.57173 0.87784 0.0
C323 C 0.83442 0.5668 0.91241 0.0
H324 H 0.79512 0.51794 0.86241 0.0
C325 C 0.81256 0.54849 0.90511 0.0
C326 C 0.81122 0.53327 0.8652 0.0
H327 H 0.79717 0.54504 0.93123 0.0
H328 H 0.86007 0.4403 0.68713 0.0
H329 H 0.85515 0.46823 0.75619 0.0
H330 H 0.77392 0.49385 0.71203 0.0
H331 H 0.7791 0.46615 0.64307 0.0
H332 H 0.79126 0.50643 0.79033 0.0
H333 H 0.8533 0.51574 0.77553 0.0
H334 H 0.86831 0.55919 0.8123 0.0
H335 H 0.87029 0.58628 0.88283 0.0
C336 C 0.47871 0.81429 0.16633 0.0
C337 C 0.45623 0.83199 0.17322 0.0
C338 C 0.49393 0.81575 0.12631 0.0
C339 C 0.48605 0.83412 0.0919 0.0
C340 C 0.4627 0.85084 0.09772 0.0
C341 C 0.4479 0.8499 0.13841 0.0
C342 C 0.50084 0.83439 0.04847 0.0
C343 C 0.52844 0.83608 0.04626 0.0
C344 C 0.54276 0.83498 0.00226 0.0
C345 C 0.56398 0.85372 -0.00745 0.0
C346 C 0.57679 0.85337 0.94997 0.0
C347 C 0.56849 0.83417 0.91709 0.0
H348 H 0.51967 0.79981 0.97733 0.0
C349 C 0.54854 0.81436 0.92798 0.0
C350 C 0.53542 0.81502 0.96997 0.0
H351 H 0.543 0.79843 0.90387 0.0
H352 H 0.48443 0.79923 0.19185 0.0
H353 H 0.51137 0.80203 0.12174 0.0
H354 H 0.45607 0.86469 0.07094 0.0
H355 H 0.43005 0.8631 0.14275 0.0
H356 H 0.48866 0.8335 0.01764 0.0
H357 H 0.54056 0.83913 0.07689 0.0
H358 H 0.57016 0.86897 0.01745 0.0
H359 H 0.59278 0.86829 0.94244 0.0
C360 C 0.20189 0.45954 0.38775 0.0
C361 C 0.17852 0.44381 0.39796 0.0
C362 C 0.20303 0.47463 0.34768 0.0
C363 C 0.18082 0.4739 0.31682 0.0
C364 C 0.15825 0.45654 0.3258 0.0
C365 C 0.15724 0.44125 0.36604 0.0
C366 C 0.17939 0.49298 0.27773 0.0
C367 C 0.20176 0.50518 0.25973 0.0
C368 C 0.19967 0.52478 0.22169 0.0
C369 C 0.22044 0.52472 0.18861 0.0
C370 C 0.2177 0.54096 0.14988 0.0
C371 C 0.19435 0.55766 0.14413 0.0
H372 H 0.16145 0.54423 0.24339 0.0
C373 C 0.17476 0.55969 0.17888 0.0
C374 C 0.17723 0.54307 0.21742 0.0
H375 H 0.15702 0.57315 0.17529 0.0
H376 H 0.2188 0.46116 0.41181 0.0
H377 H 0.22059 0.48803 0.34278 0.0
H378 H 0.14094 0.45559 0.30246 0.0
H379 H 0.13928 0.4287 0.37332 0.0
H380 H 0.15913 0.49714 0.26337 0.0
H381 H 0.22234 0.49926 0.27061 0.0
H382 H 0.23813 0.51116 0.19171 0.0
H383 H 0.23346 0.5399 0.12379 0.0
C384 C 0.33495 0.23894 0.32638 0.0
C385 C 0.3624 0.24538 0.31494 0.0
C386 C 0.31831 0.25814 0.34908 0.0
C387 C 0.32873 0.28432 0.36043 0.0
C388 C 0.35552 0.29133 0.34629 0.0
C389 C 0.37229 0.272 0.32427 0.0
C390 C 0.31233 0.30487 0.38668 0.0
C391 C 0.29344 0.29793 0.41853 0.0
C392 C 0.27717 0.31838 0.44556 0.0
C393 C 0.2526 0.30982 0.46683 0.0
C394 C 0.23566 0.32877 0.48959 0.0
C395 C 0.24301 0.35674 0.49172 0.0
H396 H 0.30464 0.35347 0.43659 0.0
C397 C 0.26843 0.36497 0.47304 0.0
C398 C 0.28537 0.34606 0.45047 0.0
H399 H 0.27486 0.38632 0.47446 0.0
H400 H 0.3267 0.21859 0.31979 0.0
H401 H 0.29743 0.25232 0.35802 0.0
H402 H 0.36394 0.31149 0.35393 0.0
H403 H 0.39334 0.27762 0.31596 0.0
H404 H 0.31692 0.32639 0.38027 0.0
H405 H 0.28923 0.27627 0.42473 0.0
H406 H 0.24593 0.28857 0.46439 0.0
H407 H 0.21619 0.32174 0.50348 0.0
C408 C 0.77294 0.33264 0.58471 0.0
C409 C 0.76369 0.35817 0.56791 0.0
C410 C 0.75474 0.31504 0.60785 0.0
C411 C 0.72689 0.32256 0.61406 0.0
C412 C 0.71738 0.34716 0.59438 0.0
C413 C 0.7356 0.36492 0.57209 0.0
C414 C 0.70707 0.3057 0.64103 0.0
C415 C 0.71438 0.28951 0.67646 0.0
C416 C 0.69389 0.27422 0.70481 0.0
C417 C 0.70205 0.25003 0.72746 0.0
C418 C 0.68278 0.23414 0.75152 0.0
C419 C 0.65494 0.2423 0.75376 0.0
H420 H 0.65951 0.30248 0.69486 0.0
C421 C 0.64722 0.26749 0.73383 0.0
C422 C 0.66643 0.28331 0.70982 0.0
H423 H 0.62601 0.27456 0.73526 0.0
H424 H 0.79452 0.32697 0.58226 0.0
H425 H 0.76263 0.29582 0.6213 0.0
H426 H 0.69598 0.35331 0.59804 0.0
H427 H 0.72788 0.38446 0.55955 0.0
H428 H 0.68537 0.30797 0.63244 0.0
H429 H 0.73608 0.287 0.68489 0.0
H430 H 0.72317 0.24278 0.725 0.0
H431 H 0.68942 0.21483 0.76642 0.0
C432 C 0.77421 0.67643 -0.00238 0.0
C433 C 0.76771 0.6493 0.01053 0.0
C434 C 0.75469 0.69279 0.97484 0.0
C435 C 0.72818 0.68241 0.96508 0.0
C436 C 0.7212 0.65601 0.98083 0.0
C437 C 0.74082 0.6395 0.00274 0.0
C438 C 0.7073 0.69837 0.93866 0.0
C439 C 0.71392 0.71594 0.90469 0.0
C440 C 0.6932 0.73154 0.87695 0.0
C441 C 0.70201 0.75466 0.852 0.0
C442 C 0.68304 0.77102 0.82809 0.0
C443 C 0.65475 0.76456 0.82842 0.0
H444 H 0.65739 0.70592 0.89166 0.0
C445 C 0.64614 0.74051 0.85098 0.0
C446 C 0.66509 0.72413 0.87477 0.0
H447 H 0.62453 0.73479 0.85164 0.0
H448 H 0.79482 0.68451 0.00285 0.0
H449 H 0.76052 0.71339 0.96447 0.0
H450 H 0.70082 0.64764 0.9744 0.0
H451 H 0.73521 0.61866 0.01218 0.0
H452 H 0.68581 0.69437 0.94657 0.0
H453 H 0.73558 0.71944 0.89704 0.0
H454 H 0.72356 0.76069 0.85228 0.0
H455 H 0.6904 0.78942 0.81116 0.0
C456 C 0.28021 0.64015 0.07522 0.0
C457 C 0.25479 0.64913 0.05734 0.0
C458 C 0.29713 0.65812 0.09992 0.0
C459 C 0.28892 0.68558 0.10771 0.0
C460 C 0.26439 0.69496 0.0872 0.0
C461 C 0.24748 0.67698 0.06238 0.0
C462 C 0.3049 0.70496 0.13732 0.0
C463 C 0.32458 0.6971 0.16732 0.0
C464 C 0.34 0.71684 0.19673 0.0
C465 C 0.36744 0.71086 0.20875 0.0
C466 C 0.38309 0.72964 0.23411 0.0
C467 C 0.37142 0.75457 0.24897 0.0
H468 H 0.30652 0.74608 0.20614 0.0
C469 C 0.34342 0.7598 0.23938 0.0
C470 C 0.3279 0.74121 0.21337 0.0
H471 H 0.3338 0.77884 0.25022 0.0
H472 H 0.28659 0.61887 0.07168 0.0
H473 H 0.31632 0.6501 0.11327 0.0
H474 H 0.25767 0.71607 0.09186 0.0
H475 H 0.22803 0.68459 0.04917 0.0
H476 H 0.29968 0.72668 0.13485 0.0
H477 H 0.33049 0.67562 0.16993 0.0
H478 H 0.37716 0.69205 0.19702 0.0
H479 H 0.40459 0.72499 0.24088 0.0
C480 C 0.4239 0.92375 0.33883 0.0
C481 C 0.41117 0.90376 0.31138 0.0
C482 C 0.41658 0.95153 0.33486 0.0
C483 C 0.39678 0.95989 0.30259 0.0
C484 C 0.38315 0.93977 0.27675 0.0
C485 C 0.38994 0.9119 0.2816 0.0
C486 C 0.39332 0.98938 0.29064 0.0
C487 C 0.39481 0.00975 0.3215 0.0
C488 C 0.39782 0.03907 0.3082 0.0
C489 C 0.38554 0.05978 0.33467 0.0
C490 C 0.39155 0.08757 0.32652 0.0
C491 C 0.41067 0.09495 0.29278 0.0
H492 H 0.42598 0.03113 0.25236 0.0
C493 C 0.42235 0.07432 0.26549 0.0
C494 C 0.41571 0.04665 0.27269 0.0
H495 H 0.43745 0.07955 0.23972 0.0
H496 H 0.44051 0.91807 0.36173 0.0
H497 H 0.42786 0.9666 0.35466 0.0
H498 H 0.36803 0.94573 0.25138 0.0
H499 H 0.38007 0.89703 0.25946 0.0
H500 H 0.39069 0.99452 0.25489 0.0
H501 H 0.39496 1.00478 0.35755 0.0
H502 H 0.37196 0.05439 0.36254 0.0
H503 H 0.38272 0.10312 0.34858 0.0
C504 C 0.91861 0.40728 0.53921 0.0
C505 C 0.90517 0.43035 0.52042 0.0
C506 C 0.94757 0.4055 0.5391 0.0
C507 C 0.9636 0.42671 0.5197 0.0
C508 C 0.94993 0.44889 0.49876 0.0
C509 C 0.92119 0.45075 0.49921 0.0
C510 C 0.99434 0.42808 0.52292 0.0
C511 C 0.01108 0.40845 0.54031 0.0
C512 C 0.04143 0.413 0.54447 0.0
C513 C 0.05997 0.39117 0.53724 0.0
C514 C 0.08858 0.39592 0.53683 0.0
C515 C 0.09913 0.42259 0.54416 0.0
H516 H 0.03846 0.45624 0.56267 0.0
C517 C 0.0805 0.44391 0.55468 0.0
C518 C 0.05209 0.43918 0.55495 0.0
H519 H 0.08778 0.46462 0.56128 0.0
H520 H 0.90685 0.3913 0.55613 0.0
H521 H 0.95709 0.38805 0.55571 0.0
H522 H 0.96157 0.46548 0.48327 0.0
H523 H 0.91155 0.46873 0.48417 0.0
H524 H 1.00382 0.4469 0.51033 0.0
H525 H 1.00294 0.3885 0.55003 0.0
H526 H 0.05231 0.37068 0.52991 0.0
H527 H 0.10229 0.37898 0.52874 0.0
C528 C 0.57514 0.9283 0.75632 0.0
C529 C 0.59529 0.90901 0.7696 0.0
C530 C 0.58069 0.95646 0.75774 0.0
C531 C 0.60652 0.96612 0.7726 0.0
C532 C 0.62748 0.94694 0.78208 0.0
C533 C 0.62189 0.91857 0.78085 0.0
C534 C 0.61123 0.99608 0.77985 0.0
C535 C 0.59125 0.01202 0.79803 0.0
C536 C 0.59228 0.04251 0.8037 0.0
C537 C 0.57002 0.0552 0.82601 0.0
C538 C 0.56736 0.08379 0.82661 0.0
C539 C 0.58703 0.10056 0.80516 0.0
H540 H 0.6304 0.05051 0.76682 0.0
C541 C 0.61038 0.08812 0.78548 0.0
C542 C 0.61295 0.05931 0.7845 0.0
H543 H 0.62577 0.10052 0.76831 0.0
H544 H 0.55457 0.92174 0.74668 0.0
H545 H 0.56442 0.97071 0.74839 0.0
H546 H 0.64771 0.95391 0.79283 0.0
H547 H 0.63791 0.9043 0.79117 0.0
H548 H 0.63137 1.00451 0.77183 0.0
H549 H 0.57228 1.00203 0.80898 0.0
H550 H 0.55386 0.0429 0.84141 0.0
H551 H 0.5492 0.09272 0.84229 0.0
C552 C 0.93823 0.57707 0.06161 0.0
C553 C 0.91812 0.59639 0.04843 0.0
C554 C 0.96619 0.58359 0.05967 0.0
C555 C 0.97486 0.60958 0.04429 0.0
C556 C 0.95487 0.62975 0.03469 0.0
C557 C 0.92663 0.62318 0.03654 0.0
C558 C 1.00469 0.61489 0.03625 0.0
C559 C 0.02038 0.59548 0.01604 0.0
C560 C 0.05093 0.59606 0.01069 0.0
C561 C 0.06305 0.57472 0.98543 0.0
C562 C 0.09155 0.57094 0.98537 0.0
C563 C 0.10881 0.58858 0.01026 0.0
H564 H 0.05983 0.6315 0.05354 0.0
C565 C 0.09708 0.61122 0.03296 0.0
C566 C 0.06829 0.61488 0.03346 0.0
H567 H 0.10995 0.625 0.05272 0.0
H568 H 0.93245 0.55642 0.07184 0.0
H569 H 0.98113 0.56791 0.06892 0.0
H570 H 0.96109 0.65007 0.02343 0.0
H571 H 0.91162 0.63855 0.02631 0.0
H572 H 0.01328 0.63466 0.04597 0.0
H573 H 0.01006 0.57705 0.00354 0.0
H574 H 0.05032 0.55999 0.96732 0.0
H575 H 0.10003 0.55343 0.96728 0.0
C576 C 0.52967 0.22079 0.90676 0.0
C577 C 0.55473 0.2068 0.8997 0.0
C578 C 0.51823 0.22283 0.95014 0.0
C579 C 0.53148 0.21054 0.9876 0.0
C580 C 0.55783 0.19881 0.98106 0.0
C581 C 0.56941 0.19697 0.93747 0.0
C582 C 0.51766 0.2069 0.03258 0.0
C583 C 0.49077 0.21253 0.04122 0.0
C584 C 0.47701 0.20335 0.08378 0.0
C585 C 0.45595 0.21931 0.10361 0.0
C586 C 0.44391 0.21128 0.14503 0.0
C587 C 0.45259 0.18697 0.16672 0.0
H588 H 0.49928 0.16464 0.08858 0.0
C589 C 0.47213 0.17009 0.14487 0.0
C590 C 0.48416 0.17814 0.10403 0.0
H591 H 0.47894 0.15096 0.16027 0.0
H592 H 0.51801 0.22877 0.87823 0.0
H593 H 0.49843 0.23289 0.95324 0.0
H594 H 0.56875 0.18944 0.00929 0.0
H595 H 0.58864 0.1859 0.93295 0.0
H596 H 0.52985 0.19714 0.05915 0.0
H597 H 0.47811 0.2235 0.01683 0.0
H598 H 0.4496 0.23852 0.08801 0.0
H599 H 0.429 0.22475 0.16112 0.0
C600 C 0.83269 0.52874 0.16939 0.0
C601 C 0.81909 0.55186 0.15099 0.0
C602 C 0.82411 0.51707 0.21014 0.0
C603 C 0.80156 0.52808 0.23389 0.0
C604 C 0.78877 0.55208 0.21704 0.0
C605 C 0.79735 0.56383 0.17568 0.0
C606 C 0.79257 0.51567 0.27766 0.0
C607 C 0.79499 0.48836 0.28631 0.0
C608 C 0.7925 0.47585 0.3324 0.0
C609 C 0.80517 0.45018 0.34072 0.0
C610 C 0.80786 0.44004 0.38516 0.0
C611 C 0.79792 0.45549 0.4219 0.0
H612 H 0.76901 0.50889 0.3641 0.0
C613 C 0.78296 0.47977 0.41315 0.0
C614 C 0.78006 0.48975 0.36893 0.0
H615 H 0.77472 0.49192 0.44085 0.0
H616 H 0.84996 0.51928 0.15194 0.0
H617 H 0.83545 0.49951 0.22313 0.0
H618 H 0.77175 0.56136 0.23537 0.0
H619 H 0.7865 0.58164 0.16246 0.0
H620 H 0.78525 0.52975 0.30356 0.0
H621 H 0.80169 0.47478 0.25911 0.0
H622 H 0.8146 0.43878 0.31314 0.0
H623 H 0.81958 0.42134 0.39097 0.0
C624 C 0.52791 0.78954 0.67847 0.0
C625 C 0.55457 0.80072 0.68301 0.0
C626 C 0.51688 0.78376 0.63577 0.0
C627 C 0.53201 0.78961 0.59623 0.0
C628 C 0.55948 0.79885 0.6008 0.0
C629 C 0.57072 0.80434 0.6439 0.0
C630 C 0.51943 0.78735 0.55008 0.0
C631 C 0.4919 0.78915 0.54236 0.0
C632 C 0.47944 0.7905 0.49606 0.0
C633 C 0.45366 0.80351 0.49013 0.0
C634 C 0.443 0.80821 0.44643 0.0
C635 C 0.45798 0.79985 0.40809 0.0
H636 H 0.51231 0.76884 0.46067 0.0
C637 C 0.48258 0.78496 0.41418 0.0
C638 C 0.49311 0.7801 0.45762 0.0
H639 H 0.49434 0.77791 0.38522 0.0
H640 H 0.51505 0.78616 0.70799 0.0
H641 H 0.49622 0.77536 0.63409 0.0
H642 H 0.57182 0.80308 0.5709 0.0
H643 H 0.59127 0.81301 0.64639 0.0
H644 H 0.53358 0.78674 0.5215 0.0
H645 H 0.47796 0.79239 0.57072 0.0
H646 H 0.44243 0.81135 0.51922 0.0
H647 H 0.42411 0.81997 0.44257 0.0
C648 C 0.18799 0.53904 0.87995 0.0
C649 C 0.20698 0.55556 0.90364 0.0
C650 C 0.1949 0.52733 0.83839 0.0
C651 C 0.2211 0.53172 0.81938 0.0
C652 C 0.23943 0.54995 0.84121 0.0
C653 C 0.23249 0.56171 0.88339 0.0
C654 C 0.22874 0.51803 0.776 0.0
C655 C 0.21956 0.49247 0.76558 0.0
C656 C 0.22009 0.48013 0.71922 0.0
C657 C 0.21213 0.4524 0.71363 0.0
C658 C 0.20676 0.44162 0.67024 0.0
C659 C 0.20896 0.45857 0.63179 0.0
H660 H 0.23017 0.51774 0.68247 0.0
C661 C 0.21884 0.48563 0.6372 0.0
C662 C 0.22437 0.49629 0.68022 0.0
H663 H 0.22092 0.49923 0.60821 0.0
H664 H 0.16801 0.53427 0.89455 0.0
H665 H 0.17972 0.51454 0.82147 0.0
H666 H 0.2595 0.55418 0.82658 0.0
H667 H 0.24752 0.57424 0.90117 0.0
H668 H 0.24147 0.52952 0.75236 0.0
H669 H 0.20919 0.48057 0.79183 0.0
H670 H 0.2086 0.43944 0.74306 0.0
H671 H 0.1991 0.42074 0.66714 0.0
loop_
_geom_bond_atom_site_label_1
_geom_bond_atom_site_label_2
_geom_bond_distance
_geom_bond_site_symmetry_2
_ccdc_geom_bond_type
Mn0 O5 2.095 . S
Mn0 O15 2.162 . S
Mn0 O16 2.297 . S
Mn0 O24 2.385 . S
Mn0 O25 2.209 . S
Mn0 O26 2.094 . S
Mn1 O6 2.121 . S
Mn1 N8 2.257 . S
Mn1 N17 2.282 . S
Mn1 O25 2.215 . S
Mn1 O27 2.117 . S
C2 O24 1.234 . S
C2 O25 1.283 . S
C3 O15 1.281 . S
C3 O16 1.236 . S
C4 O26 1.240 . S
C4 O27 1.264 . S
O5 Mn0 2.095 . S
O5 C14 1.250 . S
O6 Mn1 2.121 . S
O6 C14 1.258 . S
C7 N8 1.326 . S
C7 C11 1.460 . S
C7 H13 0.929 . S
N8 Mn1 2.257 . S
N8 C7 1.326 . S
N8 C12 1.362 . S
C9 C10 1.258 . S
C9 C12 1.431 . S
C9 C29 1.449 . S
C10 C9 1.258 . S
C10 C11 1.477 . S
C10 H30 0.931 . S
C11 C7 1.460 . S
C11 C10 1.477 . S
C11 H31 0.930 . S
C12 N8 1.362 . S
C12 C9 1.431 . S
C12 C22 1.476 . S
H13 C7 0.929 . S
C14 O5 1.250 . S
C14 O6 1.258 . S
O15 Mn0 2.162 . S
O15 C3 1.281 . S
O16 Mn0 2.297 . S
O16 C3 1.236 . S
N17 Mn1 2.282 . S
N17 C18 1.328 . S
N17 C22 1.318 . S
C18 N17 1.328 . S
C18 C19 1.457 . S
C18 H23 0.929 . S
C19 C18 1.457 . S
C19 C20 1.291 . S
C19 H32 0.931 . S
C20 C19 1.291 . S
C20 C21 1.373 . S
C20 H33 0.929 . S
C21 C20 1.373 . S
C21 C22 1.396 . S
C21 C28 1.403 . S
C22 C12 1.476 . S
C22 N17 1.318 . S
C22 C21 1.396 . S
H23 C18 0.929 . S
O24 Mn0 2.385 . S
O24 C2 1.234 . S
O25 Mn0 2.209 . S
O25 Mn1 2.215 . S
O25 C2 1.283 . S
O26 Mn0 2.094 . S
O26 C4 1.240 . S
O27 Mn1 2.117 . S
O27 C4 1.264 . S
C28 C21 1.403 . S
C28 C29 1.399 . S
C28 H34 0.929 . S
C29 C9 1.449 . S
C29 C28 1.399 . S
C29 H35 0.930 . S
H30 C10 0.931 . S
H31 C11 0.930 . S
H32 C19 0.931 . S
H33 C20 0.929 . S
H34 C28 0.929 . S
H35 C29 0.930 . S
Mn36 O41 2.095 . S
Mn36 O51 2.162 . S
Mn36 O52 2.297 . S
Mn36 O60 2.385 . S
Mn36 O61 2.209 . S
Mn36 O62 2.094 . S
Mn37 O42 2.121 . S
Mn37 N44 2.257 . S
Mn37 N53 2.282 . S
Mn37 O61 2.215 . S
Mn37 O63 2.117 . S
C38 O60 1.234 . S
C38 O61 1.283 . S
C39 O51 1.281 . S
C39 O52 1.236 . S
C40 O62 1.240 . S
C40 O63 1.264 . S
O41 Mn36 2.095 . S
O41 C50 1.250 . S
O42 Mn37 2.121 . S
O42 C50 1.258 . S
C43 N44 1.326 . S
C43 C47 1.460 . S
C43 H49 0.929 . S
N44 Mn37 2.257 . S
N44 C43 1.326 . S
N44 C48 1.362 . S
C45 C46 1.258 . S
C45 C48 1.431 . S
C45 C65 1.449 . S
C46 C45 1.258 . S
C46 C47 1.477 . S
C46 H66 0.931 . S
C47 C43 1.460 . S
C47 C46 1.477 . S
C47 H67 0.930 . S
C48 N44 1.362 . S
C48 C45 1.431 . S
C48 C58 1.476 . S
H49 C43 0.929 . S
C50 O41 1.250 . S
C50 O42 1.258 . S
O51 Mn36 2.162 . S
O51 C39 1.281 . S
O52 Mn36 2.297 . S
O52 C39 1.236 . S
N53 Mn37 2.282 . S
N53 C54 1.328 . S
N53 C58 1.318 . S
C54 N53 1.328 . S
C54 C55 1.457 . S
C54 H59 0.929 . S
C55 C54 1.457 . S
C55 C56 1.291 . S
C55 H68 0.931 . S
C56 C55 1.291 . S
C56 C57 1.373 . S
C56 H69 0.929 . S
C57 C56 1.373 . S
C57 C58 1.396 . S
C57 C64 1.403 . S
C58 C48 1.476 . S
C58 N53 1.318 . S
C58 C57 1.396 . S
H59 C54 0.929 . S
O60 Mn36 2.385 . S
O60 C38 1.234 . S
O61 Mn36 2.209 . S
O61 Mn37 2.215 . S
O61 C38 1.283 . S
O62 Mn36 2.094 . S
O62 C40 1.240 . S
O63 Mn37 2.117 . S
O63 C40 1.264 . S
C64 C57 1.403 . S
C64 C65 1.399 . S
C64 H70 0.929 . S
C65 C45 1.449 . S
C65 C64 1.399 . S
C65 H71 0.930 . S
H66 C46 0.931 . S
H67 C47 0.930 . S
H68 C55 0.931 . S
H69 C56 0.929 . S
H70 C64 0.929 . S
H71 C65 0.930 . S
Mn72 O77 2.095 . S
Mn72 O87 2.162 . S
Mn72 O88 2.297 . S
Mn72 O96 2.385 . S
Mn72 O97 2.209 . S
Mn72 O98 2.094 . S
Mn73 O78 2.121 . S
Mn73 N80 2.257 . S
Mn73 N89 2.282 . S
Mn73 O97 2.215 . S
Mn73 O99 2.117 . S
C74 O96 1.234 . S
C74 O97 1.283 . S
C75 O87 1.281 . S
C75 O88 1.236 . S
C76 O98 1.240 . S
C76 O99 1.264 . S
O77 Mn72 2.095 . S
O77 C86 1.250 . S
O78 Mn73 2.121 . S
O78 C86 1.258 . S
C79 N80 1.326 . S
C79 C83 1.460 . S
C79 H85 0.929 . S
N80 Mn73 2.257 . S
N80 C79 1.326 . S
N80 C84 1.362 . S
C81 C82 1.258 . S
C81 C84 1.431 . S
C81 C101 1.449 . S
C82 C81 1.258 . S
C82 C83 1.477 . S
C82 H102 0.931 . S
C83 C79 1.460 . S
C83 C82 1.477 . S
C83 H103 0.930 . S
C84 N80 1.362 . S
C84 C81 1.431 . S
C84 C94 1.476 . S
H85 C79 0.929 . S
C86 O77 1.250 . S
C86 O78 1.258 . S
O87 Mn72 2.162 . S
O87 C75 1.281 . S
O88 Mn72 2.297 . S
O88 C75 1.236 . S
N89 Mn73 2.282 . S
N89 C90 1.328 . S
N89 C94 1.318 . S
C90 N89 1.328 . S
C90 C91 1.457 . S
C90 H95 0.929 . S
C91 C90 1.457 . S
C91 C92 1.291 . S
C91 H104 0.931 . S
C92 C91 1.291 . S
C92 C93 1.373 . S
C92 H105 0.929 . S
C93 C92 1.373 . S
C93 C94 1.396 . S
C93 C100 1.403 . S
C94 C84 1.476 . S
C94 N89 1.318 . S
C94 C93 1.396 . S
H95 C90 0.929 . S
O96 Mn72 2.385 . S
O96 C74 1.234 . S
O97 Mn72 2.209 . S
O97 Mn73 2.215 . S
O97 C74 1.283 . S
O98 Mn72 2.094 . S
O98 C76 1.240 . S
O99 Mn73 2.117 . S
O99 C76 1.264 . S
C100 C93 1.403 . S
C100 C101 1.399 . S
C100 H106 0.929 . S
C101 C81 1.449 . S
C101 C100 1.399 . S
C101 H107 0.930 . S
H102 C82 0.931 . S
H103 C83 0.930 . S
H104 C91 0.931 . S
H105 C92 0.929 . S
H106 C100 0.929 . S
H107 C101 0.930 . S
Mn108 O113 2.095 1_554 S
Mn108 O123 2.162 . S
Mn108 O124 2.297 . S
Mn108 O132 2.385 . S
Mn108 O133 2.209 . S
Mn108 O134 2.094 . S
Mn109 O114 2.121 1_554 S
Mn109 N116 2.257 . S
Mn109 N125 2.282 . S
Mn109 O133 2.215 . S
Mn109 O135 2.117 . S
C110 O132 1.234 . S
C110 O133 1.283 . S
C111 O123 1.281 . S
C111 O124 1.236 . S
C112 O134 1.240 . S
C112 O135 1.264 . S
O113 Mn108 2.095 1_556 S
O113 C122 1.250 . S
O114 Mn109 2.121 1_556 S
O114 C122 1.258 . S
C115 N116 1.326 . S
C115 C119 1.460 . S
C115 H121 0.929 . S
N116 Mn109 2.257 . S
N116 C115 1.326 . S
N116 C120 1.362 . S
C117 C118 1.258 . S
C117 C120 1.431 . S
C117 C137 1.449 . S
C118 C117 1.258 . S
C118 C119 1.477 . S
C118 H138 0.931 . S
C119 C115 1.460 . S
C119 C118 1.477 . S
C119 H139 0.930 . S
C120 N116 1.362 . S
C120 C117 1.431 . S
C120 C130 1.476 . S
H121 C115 0.929 . S
C122 O113 1.250 . S
C122 O114 1.258 . S
O123 Mn108 2.162 . S
O123 C111 1.281 . S
O124 Mn108 2.297 . S
O124 C111 1.236 . S
N125 Mn109 2.282 . S
N125 C126 1.328 . S
N125 C130 1.318 . S
C126 N125 1.328 . S
C126 C127 1.457 . S
C126 H131 0.929 . S
C127 C126 1.457 . S
C127 C128 1.291 . S
C127 H140 0.931 . S
C128 C127 1.291 . S
C128 C129 1.373 . S
C128 H141 0.929 . S
C129 C128 1.373 . S
C129 C130 1.396 . S
C129 C136 1.403 . S
C130 C120 1.476 . S
C130 N125 1.318 . S
C130 C129 1.396 . S
H131 C126 0.929 . S
O132 Mn108 2.385 . S
O132 C110 1.234 . S
O133 Mn108 2.209 . S
O133 Mn109 2.215 . S
O133 C110 1.283 . S
O134 Mn108 2.094 . S
O134 C112 1.240 . S
O135 Mn109 2.117 . S
O135 C112 1.264 . S
C136 C129 1.403 . S
C136 C137 1.399 . S
C136 H142 0.929 . S
C137 C117 1.449 . S
C137 C136 1.399 . S
C137 H143 0.930 . S
H138 C118 0.931 . S
H139 C119 0.930 . S
H140 C127 0.931 . S
H141 C128 0.929 . S
H142 C136 0.929 . S
H143 C137 0.930 . S
Mn144 O149 2.095 . S
Mn144 O159 2.162 . S
Mn144 O160 2.297 . S
Mn144 O168 2.385 . S
Mn144 O169 2.209 . S
Mn144 O170 2.094 . S
Mn145 O150 2.121 . S
Mn145 N152 2.257 . S
Mn145 N161 2.282 . S
Mn145 O169 2.215 . S
Mn145 O171 2.117 . S
C146 O168 1.234 . S
C146 O169 1.283 . S
C147 O159 1.281 . S
C147 O160 1.236 . S
C148 O170 1.240 . S
C148 O171 1.264 . S
O149 Mn144 2.095 . S
O149 C158 1.250 . S
O150 Mn145 2.121 . S
O150 C158 1.258 . S
C151 N152 1.326 . S
C151 C155 1.460 . S
C151 H157 0.929 . S
N152 Mn145 2.257 . S
N152 C151 1.326 . S
N152 C156 1.362 . S
C153 C154 1.258 . S
C153 C156 1.431 . S
C153 C173 1.449 . S
C154 C153 1.258 . S
C154 C155 1.477 . S
C154 H174 0.931 . S
C155 C151 1.460 . S
C155 C154 1.477 . S
C155 H175 0.930 . S
C156 N152 1.362 . S
C156 C153 1.431 . S
C156 C166 1.476 . S
H157 C151 0.929 . S
C158 O149 1.250 . S
C158 O150 1.258 . S
O159 Mn144 2.162 . S
O159 C147 1.281 . S
O160 Mn144 2.297 . S
O160 C147 1.236 . S
N161 Mn145 2.282 . S
N161 C162 1.328 . S
N161 C166 1.318 . S
C162 N161 1.328 . S
C162 C163 1.457 . S
C162 H167 0.929 . S
C163 C162 1.457 . S
C163 C164 1.291 . S
C163 H176 0.931 . S
C164 C163 1.291 . S
C164 C165 1.373 . S
C164 H177 0.929 . S
C165 C164 1.373 . S
C165 C166 1.396 . S
C165 C172 1.403 . S
C166 C156 1.476 . S
C166 N161 1.318 . S
C166 C165 1.396 . S
H167 C162 0.929 . S
O168 Mn144 2.385 . S
O168 C146 1.234 . S
O169 Mn144 2.209 . S
O169 Mn145 2.215 . S
O169 C146 1.283 . S
O170 Mn144 2.094 . S
O170 C148 1.240 . S
O171 Mn145 2.117 . S
O171 C148 1.264 . S
C172 C165 1.403 . S
C172 C173 1.399 . S
C172 H178 0.929 . S
C173 C153 1.449 . S
C173 C172 1.399 . S
C173 H179 0.930 . S
H174 C154 0.931 . S
H175 C155 0.930 . S
H176 C163 0.931 . S
H177 C164 0.929 . S
H178 C172 0.929 . S
H179 C173 0.930 . S
Mn180 O185 2.095 . S
Mn180 O195 2.162 . S
Mn180 O196 2.297 . S
Mn180 O204 2.385 . S
Mn180 O205 2.209 . S
Mn180 O206 2.094 . S
Mn181 O186 2.121 . S
Mn181 N188 2.257 . S
Mn181 N197 2.282 . S
Mn181 O205 2.215 . S
Mn181 O207 2.117 . S
C182 O204 1.234 . S
C182 O205 1.283 . S
C183 O195 1.281 . S
C183 O196 1.236 . S
C184 O206 1.240 . S
C184 O207 1.264 . S
O185 Mn180 2.095 . S
O185 C194 1.250 . S
O186 Mn181 2.121 . S
O186 C194 1.258 . S
C187 N188 1.326 . S
C187 C191 1.460 . S
C187 H193 0.929 . S
N188 Mn181 2.257 . S
N188 C187 1.326 . S
N188 C192 1.362 . S
C189 C190 1.258 . S
C189 C192 1.431 . S
C189 C209 1.449 . S
C190 C189 1.258 . S
C190 C191 1.477 . S
C190 H210 0.931 . S
C191 C187 1.460 . S
C191 C190 1.477 . S
C191 H211 0.930 . S
C192 N188 1.362 . S
C192 C189 1.431 . S
C192 C202 1.476 . S
H193 C187 0.929 . S
C194 O185 1.250 . S
C194 O186 1.258 . S
O195 Mn180 2.162 . S
O195 C183 1.281 . S
O196 Mn180 2.297 . S
O196 C183 1.236 . S
N197 Mn181 2.282 . S
N197 C198 1.328 . S
N197 C202 1.318 . S
C198 N197 1.328 . S
C198 C199 1.457 . S
C198 H203 0.929 . S
C199 C198 1.457 . S
C199 C200 1.291 . S
C199 H212 0.931 . S
C200 C199 1.291 . S
C200 C201 1.373 . S
C200 H213 0.929 . S
C201 C200 1.373 . S
C201 C202 1.396 . S
C201 C208 1.403 . S
C202 C192 1.476 . S
C202 N197 1.318 . S
C202 C201 1.396 . S
H203 C198 0.929 . S
O204 Mn180 2.385 . S
O204 C182 1.234 . S
O205 Mn180 2.209 . S
O205 Mn181 2.215 . S
O205 C182 1.283 . S
O206 Mn180 2.094 . S
O206 C184 1.240 . S
O207 Mn181 2.117 . S
O207 C184 1.264 . S
C208 C201 1.403 . S
C208 C209 1.399 . S
C208 H214 0.929 . S
C209 C189 1.449 . S
C209 C208 1.399 . S
C209 H215 0.930 . S
H210 C190 0.931 . S
H211 C191 0.930 . S
H212 C199 0.931 . S
H213 C200 0.929 . S
H214 C208 0.929 . S
H215 C209 0.930 . S
Mn216 O221 2.095 . S
Mn216 O231 2.162 . S
Mn216 O232 2.297 . S
Mn216 O240 2.385 . S
Mn216 O241 2.209 . S
Mn216 O242 2.094 . S
Mn217 O222 2.121 . S
Mn217 N224 2.257 . S
Mn217 N233 2.282 . S
Mn217 O241 2.215 . S
Mn217 O243 2.117 . S
C218 O240 1.234 . S
C218 O241 1.283 . S
C219 O231 1.281 . S
C219 O232 1.236 . S
C220 O242 1.240 . S
C220 O243 1.264 . S
O221 Mn216 2.095 . S
O221 C230 1.250 . S
O222 Mn217 2.121 . S
O222 C230 1.258 . S
C223 N224 1.326 . S
C223 C227 1.460 . S
C223 H229 0.929 . S
N224 Mn217 2.257 . S
N224 C223 1.326 . S
N224 C228 1.362 . S
C225 C226 1.258 . S
C225 C228 1.431 . S
C225 C245 1.449 . S
C226 C225 1.258 . S
C226 C227 1.477 . S
C226 H246 0.931 . S
C227 C223 1.460 . S
C227 C226 1.477 . S
C227 H247 0.930 . S
C228 N224 1.362 . S
C228 C225 1.431 . S
C228 C238 1.476 . S
H229 C223 0.929 . S
C230 O221 1.250 . S
C230 O222 1.258 . S
O231 Mn216 2.162 . S
O231 C219 1.281 . S
O232 Mn216 2.297 . S
O232 C219 1.236 . S
N233 Mn217 2.282 . S
N233 C234 1.328 . S
N233 C238 1.318 . S
C234 N233 1.328 . S
C234 C235 1.457 . S
C234 H239 0.929 . S
C235 C234 1.457 . S
C235 C236 1.291 . S
C235 H248 0.931 . S
C236 C235 1.291 . S
C236 C237 1.373 . S
C236 H249 0.929 . S
C237 C236 1.373 . S
C237 C238 1.396 . S
C237 C244 1.403 . S
C238 C228 1.476 . S
C238 N233 1.318 . S
C238 C237 1.396 . S
H239 C234 0.929 . S
O240 Mn216 2.385 . S
O240 C218 1.234 . S
O241 Mn216 2.209 . S
O241 Mn217 2.215 . S
O241 C218 1.283 . S
O242 Mn216 2.094 . S
O242 C220 1.240 . S
O243 Mn217 2.117 . S
O243 C220 1.264 . S
C244 C237 1.403 . S
C244 C245 1.399 . S
C244 H250 0.929 . S
C245 C225 1.449 . S
C245 C244 1.399 . S
C245 H251 0.930 . S
H246 C226 0.931 . S
H247 C227 0.930 . S
H248 C235 0.931 . S
H249 C236 0.929 . S
H250 C244 0.929 . S
H251 C245 0.930 . S
Mn252 O257 2.095 . S
Mn252 O267 2.162 . S
Mn252 O268 2.297 . S
Mn252 O276 2.385 1_554 S
Mn252 O277 2.209 1_554 S
Mn252 O278 2.094 . S
Mn253 O258 2.121 . S
Mn253 N260 2.257 . S
Mn253 N269 2.282 1_554 S
Mn253 O277 2.215 1_554 S
Mn253 O279 2.117 . S
C254 O276 1.234 . S
C254 O277 1.283 . S
C255 O267 1.281 . S
C255 O268 1.236 . S
C256 O278 1.240 . S
C256 O279 1.264 . S
O257 Mn252 2.095 . S
O257 C266 1.250 . S
O258 Mn253 2.121 . S
O258 C266 1.258 . S
C259 N260 1.326 . S
C259 C263 1.460 . S
C259 H265 0.929 . S
N260 Mn253 2.257 . S
N260 C259 1.326 . S
N260 C264 1.362 1_554 S
C261 C262 1.258 . S
C261 C264 1.431 . S
C261 C281 1.449 . S
C262 C261 1.258 . S
C262 C263 1.477 1_556 S
C262 H282 0.931 . S
C263 C259 1.460 . S
C263 C262 1.477 1_554 S
C263 H283 0.930 . S
C264 N260 1.362 1_556 S
C264 C261 1.431 . S
C264 C274 1.476 . S
H265 C259 0.929 . S
C266 O257 1.250 . S
C266 O258 1.258 . S
O267 Mn252 2.162 . S
O267 C255 1.281 . S
O268 Mn252 2.297 . S
O268 C255 1.236 . S
N269 Mn253 2.282 1_556 S
N269 C270 1.328 . S
N269 C274 1.318 . S
C270 N269 1.328 . S
C270 C271 1.457 . S
C270 H275 0.929 . S
C271 C270 1.457 . S
C271 C272 1.291 . S
C271 H284 0.931 . S
C272 C271 1.291 . S
C272 C273 1.373 . S
C272 H285 0.929 . S
C273 C272 1.373 . S
C273 C274 1.396 . S
C273 C280 1.403 . S
C274 C264 1.476 . S
C274 N269 1.318 . S
C274 C273 1.396 . S
H275 C270 0.929 . S
O276 Mn252 2.385 1_556 S
O276 C254 1.234 . S
O277 Mn252 2.209 1_556 S
O277 Mn253 2.215 1_556 S
O277 C254 1.283 . S
O278 Mn252 2.094 . S
O278 C256 1.240 . S
O279 Mn253 2.117 . S
O279 C256 1.264 . S
C280 C273 1.403 . S
C280 C281 1.399 . S
C280 H286 0.929 . S
C281 C261 1.449 . S
C281 C280 1.399 . S
C281 H287 0.930 . S
H282 C262 0.931 . S
H283 C263 0.930 . S
H284 C271 0.931 . S
H285 C272 0.929 . S
H286 C280 0.929 . S
H287 C281 0.930 . S
C288 C289 1.386 . S
C288 C290 1.383 . S
C288 H304 0.951 . S
C289 C288 1.386 . S
C289 C293 1.383 . S
C290 C288 1.383 . S
C290 C291 1.402 . S
C290 H305 0.951 . S
C291 C290 1.402 . S
C291 C292 1.375 . S
C291 C294 1.481 . S
C292 C291 1.375 . S
C292 C293 1.367 . S
C292 H306 0.951 . S
C293 C289 1.383 . S
C293 C292 1.367 . S
C293 H307 0.950 . S
C294 C291 1.481 . S
C294 C295 1.297 . S
C294 H308 0.950 . S
C295 C294 1.297 . S
C295 C296 1.479 . S
C295 H309 0.950 . S
C296 C295 1.479 . S
C296 C297 1.375 . S
C296 C302 1.404 . S
C297 C296 1.375 . S
C297 C298 1.369 . S
C297 H310 0.950 . S
C298 C297 1.369 . S
C298 C299 1.392 . S
C298 H311 0.951 . S
C299 C298 1.392 . S
C299 C301 1.384 . S
H300 C302 0.949 . S
C301 C299 1.384 . S
C301 C302 1.385 . S
C301 H303 0.950 . S
C302 C296 1.404 . S
C302 H300 0.949 . S
C302 C301 1.385 . S
H303 C301 0.950 . S
H304 C288 0.951 . S
H305 C290 0.951 . S
H306 C292 0.951 . S
H307 C293 0.950 . S
H308 C294 0.950 . S
H309 C295 0.950 . S
H310 C297 0.950 . S
H311 C298 0.951 . S
C312 C313 1.386 . S
C312 C314 1.383 . S
C312 H328 0.951 . S
C313 C312 1.386 . S
C313 C317 1.383 . S
C314 C312 1.383 . S
C314 C315 1.402 . S
C314 H329 0.951 . S
C315 C314 1.402 . S
C315 C316 1.375 . S
C315 C318 1.481 . S
C316 C315 1.375 . S
C316 C317 1.367 . S
C316 H330 0.951 . S
C317 C313 1.383 . S
C317 C316 1.367 . S
C317 H331 0.950 . S
C318 C315 1.481 . S
C318 C319 1.297 . S
C318 H332 0.950 . S
C319 C318 1.297 . S
C319 C320 1.479 . S
C319 H333 0.950 . S
C320 C319 1.479 . S
C320 C321 1.375 . S
C320 C326 1.404 . S
C321 C320 1.375 . S
C321 C322 1.369 . S
C321 H334 0.950 . S
C322 C321 1.369 . S
C322 C323 1.392 . S
C322 H335 0.951 . S
C323 C322 1.392 . S
C323 C325 1.384 . S
H324 C326 0.949 . S
C325 C323 1.384 . S
C325 C326 1.385 . S
C325 H327 0.950 . S
C326 C320 1.404 . S
C326 H324 0.949 . S
C326 C325 1.385 . S
H327 C325 0.950 . S
H328 C312 0.951 . S
H329 C314 0.951 . S
H330 C316 0.951 . S
H331 C317 0.950 . S
H332 C318 0.950 . S
H333 C319 0.950 . S
H334 C321 0.950 . S
H335 C322 0.951 . S
C336 C337 1.386 . S
C336 C338 1.383 . S
C336 H352 0.951 . S
C337 C336 1.386 . S
C337 C341 1.383 . S
C338 C336 1.383 . S
C338 C339 1.402 . S
C338 H353 0.951 . S
C339 C338 1.402 . S
C339 C340 1.375 . S
C339 C342 1.481 . S
C340 C339 1.375 . S
C340 C341 1.367 . S
C340 H354 0.951 . S
C341 C337 1.383 . S
C341 C340 1.367 . S
C341 H355 0.950 . S
C342 C339 1.481 . S
C342 C343 1.297 . S
C342 H356 0.950 . S
C343 C342 1.297 . S
C343 C344 1.479 1_554 S
C343 H357 0.950 . S
C344 C343 1.479 1_556 S
C344 C345 1.375 . S
C344 C350 1.404 . S
C345 C344 1.375 . S
C345 C346 1.369 . S
C345 H358 0.950 1_556 S
C346 C345 1.369 . S
C346 C347 1.392 . S
C346 H359 0.951 . S
C347 C346 1.392 . S
C347 C349 1.384 . S
H348 C350 0.949 . S
C349 C347 1.384 . S
C349 C350 1.385 . S
C349 H351 0.950 . S
C350 C344 1.404 . S
C350 H348 0.949 . S
C350 C349 1.385 . S
H351 C349 0.950 . S
H352 C336 0.951 . S
H353 C338 0.951 . S
H354 C340 0.951 . S
H355 C341 0.950 . S
H356 C342 0.950 . S
H357 C343 0.950 . S
H358 C345 0.950 1_554 S
H359 C346 0.951 . S
C360 C361 1.386 . S
C360 C362 1.383 . S
C360 H376 0.951 . S
C361 C360 1.386 . S
C361 C365 1.383 . S
C362 C360 1.383 . S
C362 C363 1.402 . S
C362 H377 0.951 . S
C363 C362 1.402 . S
C363 C364 1.375 . S
C363 C366 1.481 . S
C364 C363 1.375 . S
C364 C365 1.367 . S
C364 H378 0.951 . S
C365 C361 1.383 . S
C365 C364 1.367 . S
C365 H379 0.950 . S
C366 C363 1.481 . S
C366 C367 1.297 . S
C366 H380 0.950 . S
C367 C366 1.297 . S
C367 C368 1.479 . S
C367 H381 0.950 . S
C368 C367 1.479 . S
C368 C369 1.375 . S
C368 C374 1.404 . S
C369 C368 1.375 . S
C369 C370 1.369 . S
C369 H382 0.950 . S
C370 C369 1.369 . S
C370 C371 1.392 . S
C370 H383 0.951 . S
C371 C370 1.392 . S
C371 C373 1.384 . S
H372 C374 0.949 . S
C373 C371 1.384 . S
C373 C374 1.385 . S
C373 H375 0.950 . S
C374 C368 1.404 . S
C374 H372 0.949 . S
C374 C373 1.385 . S
H375 C373 0.950 . S
H376 C360 0.951 . S
H377 C362 0.951 . S
H378 C364 0.951 . S
H379 C365 0.950 . S
H380 C366 0.950 . S
H381 C367 0.950 . S
H382 C369 0.950 . S
H383 C370 0.951 . S
C384 C385 1.386 . S
C384 C386 1.383 . S
C384 H400 0.951 . S
C385 C384 1.386 . S
C385 C389 1.383 . S
C386 C384 1.383 . S
C386 C387 1.402 . S
C386 H401 0.951 . S
C387 C386 1.402 . S
C387 C388 1.375 . S
C387 C390 1.481 . S
C388 C387 1.375 . S
C388 C389 1.367 . S
C388 H402 0.951 . S
C389 C385 1.383 . S
C389 C388 1.367 . S
C389 H403 0.950 . S
C390 C387 1.481 . S
C390 C391 1.297 . S
C390 H404 0.950 . S
C391 C390 1.297 . S
C391 C392 1.479 . S
C391 H405 0.950 . S
C392 C391 1.479 . S
C392 C393 1.375 . S
C392 C398 1.404 . S
C393 C392 1.375 . S
C393 C394 1.369 . S
C393 H406 0.950 . S
C394 C393 1.369 . S
C394 C395 1.392 . S
C394 H407 0.951 . S
C395 C394 1.392 . S
C395 C397 1.384 . S
H396 C398 0.949 . S
C397 C395 1.384 . S
C397 C398 1.385 . S
C397 H399 0.950 . S
C398 C392 1.404 . S
C398 H396 0.949 . S
C398 C397 1.385 . S
H399 C397 0.950 . S
H400 C384 0.951 . S
H401 C386 0.951 . S
H402 C388 0.951 . S
H403 C389 0.950 . S
H404 C390 0.950 . S
H405 C391 0.950 . S
H406 C393 0.950 . S
H407 C394 0.951 . S
C408 C409 1.386 . S
C408 C410 1.383 . S
C408 H424 0.951 . S
C409 C408 1.386 . S
C409 C413 1.383 . S
C410 C408 1.383 . S
C410 C411 1.402 . S
C410 H425 0.951 . S
C411 C410 1.402 . S
C411 C412 1.375 . S
C411 C414 1.481 . S
C412 C411 1.375 . S
C412 C413 1.367 . S
C412 H426 0.951 . S
C413 C409 1.383 . S
C413 C412 1.367 . S
C413 H427 0.950 . S
C414 C411 1.481 . S
C414 C415 1.297 . S
C414 H428 0.950 . S
C415 C414 1.297 . S
C415 C416 1.479 . S
C415 H429 0.950 . S
C416 C415 1.479 . S
C416 C417 1.375 . S
C416 C422 1.404 . S
C417 C416 1.375 . S
C417 C418 1.369 . S
C417 H430 0.950 . S
C418 C417 1.369 . S
C418 C419 1.392 . S
C418 H431 0.951 . S
C419 C418 1.392 . S
C419 C421 1.384 . S
H420 C422 0.949 . S
C421 C419 1.384 . S
C421 C422 1.385 . S
C421 H423 0.950 . S
C422 C416 1.404 . S
C422 H420 0.949 . S
C422 C421 1.385 . S
H423 C421 0.950 . S
H424 C408 0.951 . S
H425 C410 0.951 . S
H426 C412 0.951 . S
H427 C413 0.950 . S
H428 C414 0.950 . S
H429 C415 0.950 . S
H430 C417 0.950 . S
H431 C418 0.951 . S
C432 C433 1.386 . S
C432 C434 1.383 . S
C432 H448 0.951 . S
C433 C432 1.386 . S
C433 C437 1.383 1_556 S
C434 C432 1.383 . S
C434 C435 1.402 . S
C434 H449 0.951 . S
C435 C434 1.402 . S
C435 C436 1.375 . S
C435 C438 1.481 . S
C436 C435 1.375 . S
C436 C437 1.367 1_556 S
C436 H450 0.951 . S
C437 C433 1.383 1_554 S
C437 C436 1.367 1_554 S
C437 H451 0.950 . S
C438 C435 1.481 . S
C438 C439 1.297 . S
C438 H452 0.950 . S
C439 C438 1.297 . S
C439 C440 1.479 . S
C439 H453 0.950 . S
C440 C439 1.479 . S
C440 C441 1.375 . S
C440 C446 1.404 . S
C441 C440 1.375 . S
C441 C442 1.369 . S
C441 H454 0.950 . S
C442 C441 1.369 . S
C442 C443 1.392 . S
C442 H455 0.951 . S
C443 C442 1.392 . S
C443 C445 1.384 . S
H444 C446 0.949 . S
C445 C443 1.384 . S
C445 C446 1.385 . S
C445 H447 0.950 . S
C446 C440 1.404 . S
C446 H444 0.949 . S
C446 C445 1.385 . S
H447 C445 0.950 . S
H448 C432 0.951 . S
H449 C434 0.951 . S
H450 C436 0.951 . S
H451 C437 0.950 . S
H452 C438 0.950 . S
H453 C439 0.950 . S
H454 C441 0.950 . S
H455 C442 0.951 . S
C456 C457 1.386 . S
C456 C458 1.383 . S
C456 H472 0.951 . S
C457 C456 1.386 . S
C457 C461 1.383 . S
C458 C456 1.383 . S
C458 C459 1.402 . S
C458 H473 0.951 . S
C459 C458 1.402 . S
C459 C460 1.375 . S
C459 C462 1.481 . S
C460 C459 1.375 . S
C460 C461 1.367 . S
C460 H474 0.951 . S
C461 C457 1.383 . S
C461 C460 1.367 . S
C461 H475 0.950 . S
C462 C459 1.481 . S
C462 C463 1.297 . S
C462 H476 0.950 . S
C463 C462 1.297 . S
C463 C464 1.479 . S
C463 H477 0.950 . S
C464 C463 1.479 . S
C464 C465 1.375 . S
C464 C470 1.404 . S
C465 C464 1.375 . S
C465 C466 1.369 . S
C465 H478 0.950 . S
C466 C465 1.369 . S
C466 C467 1.392 . S
C466 H479 0.951 . S
C467 C466 1.392 . S
C467 C469 1.384 . S
H468 C470 0.949 . S
C469 C467 1.384 . S
C469 C470 1.385 . S
C469 H471 0.950 . S
C470 C464 1.404 . S
C470 H468 0.949 . S
C470 C469 1.385 . S
H471 C469 0.950 . S
H472 C456 0.951 . S
H473 C458 0.951 . S
H474 C460 0.951 . S
H475 C461 0.950 . S
H476 C462 0.950 . S
H477 C463 0.950 . S
H478 C465 0.950 . S
H479 C466 0.951 . S
C480 C481 1.386 . S
C480 C482 1.383 . S
C480 H496 0.951 . S
C481 C480 1.386 . S
C481 C485 1.383 . S
C482 C480 1.383 . S
C482 C483 1.402 . S
C482 H497 0.951 . S
C483 C482 1.402 . S
C483 C484 1.375 . S
C483 C486 1.481 . S
C484 C483 1.375 . S
C484 C485 1.367 . S
C484 H498 0.951 . S
C485 C481 1.383 . S
C485 C484 1.367 . S
C485 H499 0.950 . S
C486 C483 1.481 . S
C486 C487 1.297 1_565 S
C486 H500 0.950 . S
C487 C486 1.297 1_545 S
C487 C488 1.479 . S
C487 H501 0.950 . S
C488 C487 1.479 . S
C488 C489 1.375 . S
C488 C494 1.404 . S
C489 C488 1.375 . S
C489 C490 1.369 . S
C489 H502 0.950 . S
C490 C489 1.369 . S
C490 C491 1.392 . S
C490 H503 0.951 . S
C491 C490 1.392 . S
C491 C493 1.384 . S
H492 C494 0.949 . S
C493 C491 1.384 . S
C493 C494 1.385 . S
C493 H495 0.950 . S
C494 C488 1.404 . S
C494 H492 0.949 . S
C494 C493 1.385 . S
H495 C493 0.950 . S
H496 C480 0.951 . S
H497 C482 0.951 . S
H498 C484 0.951 . S
H499 C485 0.950 . S
H500 C486 0.950 . S
H501 C487 0.950 . S
H502 C489 0.950 . S
H503 C490 0.951 . S
C504 C505 1.386 . S
C504 C506 1.383 . S
C504 H520 0.951 . S
C505 C504 1.386 . S
C505 C509 1.383 . S
C506 C504 1.383 . S
C506 C507 1.402 . S
C506 H521 0.951 . S
C507 C506 1.402 . S
C507 C508 1.375 . S
C507 C510 1.481 . S
C508 C507 1.375 . S
C508 C509 1.367 . S
C508 H522 0.951 . S
C509 C505 1.383 . S
C509 C508 1.367 . S
C509 H523 0.950 . S
C510 C507 1.481 . S
C510 C511 1.297 1_655 S
C510 H524 0.950 . S
C511 C510 1.297 1_455 S
C511 C512 1.479 . S
C511 H525 0.950 . S
C512 C511 1.479 . S
C512 C513 1.375 . S
C512 C518 1.404 . S
C513 C512 1.375 . S
C513 C514 1.369 . S
C513 H526 0.950 . S
C514 C513 1.369 . S
C514 C515 1.392 . S
C514 H527 0.951 . S
C515 C514 1.392 . S
C515 C517 1.384 . S
H516 C518 0.949 . S
C517 C515 1.384 . S
C517 C518 1.385 . S
C517 H519 0.950 . S
C518 C512 1.404 . S
C518 H516 0.949 . S
C518 C517 1.385 . S
H519 C517 0.950 . S
H520 C504 0.951 . S
H521 C506 0.951 . S
H522 C508 0.951 . S
H523 C509 0.950 . S
H524 C510 0.950 . S
H525 C511 0.950 . S
H526 C513 0.950 . S
H527 C514 0.951 . S
C528 C529 1.386 . S
C528 C530 1.383 . S
C528 H544 0.951 . S
C529 C528 1.386 . S
C529 C533 1.383 . S
C530 C528 1.383 . S
C530 C531 1.402 . S
C530 H545 0.951 . S
C531 C530 1.402 . S
C531 C532 1.375 . S
C531 C534 1.481 . S
C532 C531 1.375 . S
C532 C533 1.367 . S
C532 H546 0.951 . S
C533 C529 1.383 . S
C533 C532 1.367 . S
C533 H547 0.950 . S
C534 C531 1.481 . S
C534 C535 1.297 1_565 S
C534 H548 0.950 . S
C535 C534 1.297 1_545 S
C535 C536 1.479 . S
C535 H549 0.950 . S
C536 C535 1.479 . S
C536 C537 1.375 . S
C536 C542 1.404 . S
C537 C536 1.375 . S
C537 C538 1.369 . S
C537 H550 0.950 . S
C538 C537 1.369 . S
C538 C539 1.392 . S
C538 H551 0.951 . S
C539 C538 1.392 . S
C539 C541 1.384 . S
H540 C542 0.949 . S
C541 C539 1.384 . S
C541 C542 1.385 . S
C541 H543 0.950 . S
C542 C536 1.404 . S
C542 H540 0.949 . S
C542 C541 1.385 . S
H543 C541 0.950 . S
H544 C528 0.951 . S
H545 C530 0.951 . S
H546 C532 0.951 . S
H547 C533 0.950 . S
H548 C534 0.950 . S
H549 C535 0.950 . S
H550 C537 0.950 . S
H551 C538 0.951 . S
C552 C553 1.386 . S
C552 C554 1.383 . S
C552 H568 0.951 . S
C553 C552 1.386 . S
C553 C557 1.383 . S
C554 C552 1.383 . S
C554 C555 1.402 . S
C554 H569 0.951 . S
C555 C554 1.402 . S
C555 C556 1.375 . S
C555 C558 1.481 . S
C556 C555 1.375 . S
C556 C557 1.367 . S
C556 H570 0.951 1_554 S
C557 C553 1.383 . S
C557 C556 1.367 . S
C557 H571 0.950 1_554 S
C558 C555 1.481 . S
C558 C559 1.297 1_655 S
C558 H572 0.950 . S
C559 C558 1.297 1_455 S
C559 C560 1.479 . S
C559 H573 0.950 . S
C560 C559 1.479 . S
C560 C561 1.375 . S
C560 C566 1.404 . S
C561 C560 1.375 . S
C561 C562 1.369 . S
C561 H574 0.950 . S
C562 C561 1.369 . S
C562 C563 1.392 . S
C562 H575 0.951 . S
C563 C562 1.392 . S
C563 C565 1.384 . S
H564 C566 0.949 1_556 S
C565 C563 1.384 . S
C565 C566 1.385 . S
C565 H567 0.950 1_554 S
C566 C560 1.404 . S
C566 H564 0.949 1_554 S
C566 C565 1.385 . S
H567 C565 0.950 1_556 S
H568 C552 0.951 . S
H569 C554 0.951 . S
H570 C556 0.951 1_556 S
H571 C557 0.950 1_556 S
H572 C558 0.950 . S
H573 C559 0.950 . S
H574 C561 0.950 . S
H575 C562 0.951 . S
C576 C577 1.386 . S
C576 C578 1.383 . S
C576 H592 0.951 . S
C577 C576 1.386 . S
C577 C581 1.383 . S
C578 C576 1.383 . S
C578 C579 1.402 . S
C578 H593 0.951 . S
C579 C578 1.402 . S
C579 C580 1.375 . S
C579 C582 1.481 1_556 S
C580 C579 1.375 . S
C580 C581 1.367 . S
C580 H594 0.951 1_556 S
C581 C577 1.383 . S
C581 C580 1.367 . S
C581 H595 0.950 . S
C582 C579 1.481 1_554 S
C582 C583 1.297 . S
C582 H596 0.950 . S
C583 C582 1.297 . S
C583 C584 1.479 . S
C583 H597 0.950 . S
C584 C583 1.479 . S
C584 C585 1.375 . S
C584 C590 1.404 . S
C585 C584 1.375 . S
C585 C586 1.369 . S
C585 H598 0.950 . S
C586 C585 1.369 . S
C586 C587 1.392 . S
C586 H599 0.951 . S
C587 C586 1.392 . S
C587 C589 1.384 . S
H588 C590 0.949 . S
C589 C587 1.384 . S
C589 C590 1.385 . S
C589 H591 0.950 . S
C590 C584 1.404 . S
C590 H588 0.949 . S
C590 C589 1.385 . S
H591 C589 0.950 . S
H592 C576 0.951 . S
H593 C578 0.951 . S
H594 C580 0.951 1_554 S
H595 C581 0.950 . S
H596 C582 0.950 . S
H597 C583 0.950 . S
H598 C585 0.950 . S
H599 C586 0.951 . S
C600 C601 1.386 . S
C600 C602 1.383 . S
C600 H616 0.951 . S
C601 C600 1.386 . S
C601 C605 1.383 . S
C602 C600 1.383 . S
C602 C603 1.402 . S
C602 H617 0.951 . S
C603 C602 1.402 . S
C603 C604 1.375 . S
C603 C606 1.481 . S
C604 C603 1.375 . S
C604 C605 1.367 . S
C604 H618 0.951 . S
C605 C601 1.383 . S
C605 C604 1.367 . S
C605 H619 0.950 . S
C606 C603 1.481 . S
C606 C607 1.297 . S
C606 H620 0.950 . S
C607 C606 1.297 . S
C607 C608 1.479 . S
C607 H621 0.950 . S
C608 C607 1.479 . S
C608 C609 1.375 . S
C608 C614 1.404 . S
C609 C608 1.375 . S
C609 C610 1.369 . S
C609 H622 0.950 . S
C610 C609 1.369 . S
C610 C611 1.392 . S
C610 H623 0.951 . S
C611 C610 1.392 . S
C611 C613 1.384 . S
H612 C614 0.949 . S
C613 C611 1.384 . S
C613 C614 1.385 . S
C613 H615 0.950 . S
C614 C608 1.404 . S
C614 H612 0.949 . S
C614 C613 1.385 . S
H615 C613 0.950 . S
H616 C600 0.951 . S
H617 C602 0.951 . S
H618 C604 0.951 . S
H619 C605 0.950 . S
H620 C606 0.950 . S
H621 C607 0.950 . S
H622 C609 0.950 . S
H623 C610 0.951 . S
C624 C625 1.386 . S
C624 C626 1.383 . S
C624 H640 0.951 . S
C625 C624 1.386 . S
C625 C629 1.383 . S
C626 C624 1.383 . S
C626 C627 1.402 . S
C626 H641 0.951 . S
C627 C626 1.402 . S
C627 C628 1.375 . S
C627 C630 1.481 . S
C628 C627 1.375 . S
C628 C629 1.367 . S
C628 H642 0.951 . S
C629 C625 1.383 . S
C629 C628 1.367 . S
C629 H643 0.950 . S
C630 C627 1.481 . S
C630 C631 1.297 . S
C630 H644 0.950 . S
C631 C630 1.297 . S
C631 C632 1.479 . S
C631 H645 0.950 . S
C632 C631 1.479 . S
C632 C633 1.375 . S
C632 C638 1.404 . S
C633 C632 1.375 . S
C633 C634 1.369 . S
C633 H646 0.950 . S
C634 C633 1.369 . S
C634 C635 1.392 . S
C634 H647 0.951 . S
C635 C634 1.392 . S
C635 C637 1.384 . S
H636 C638 0.949 . S
C637 C635 1.384 . S
C637 C638 1.385 . S
C637 H639 0.950 . S
C638 C632 1.404 . S
C638 H636 0.949 . S
C638 C637 1.385 . S
H639 C637 0.950 . S
H640 C624 0.951 . S
H641 C626 0.951 . S
H642 C628 0.951 . S
H643 C629 0.950 . S
H644 C630 0.950 . S
H645 C631 0.950 . S
H646 C633 0.950 . S
H647 C634 0.951 . S
C648 C649 1.386 . S
C648 C650 1.383 . S
C648 H664 0.951 . S
C649 C648 1.386 . S
C649 C653 1.383 . S
C650 C648 1.383 . S
C650 C651 1.402 . S
C650 H665 0.951 . S
C651 C650 1.402 . S
C651 C652 1.375 . S
C651 C654 1.481 . S
C652 C651 1.375 . S
C652 C653 1.367 . S
C652 H666 0.951 . S
C653 C649 1.383 . S
C653 C652 1.367 . S
C653 H667 0.950 . S
C654 C651 1.481 . S
C654 C655 1.297 . S
C654 H668 0.950 . S
C655 C654 1.297 . S
C655 C656 1.479 . S
C655 H669 0.950 . S
C656 C655 1.479 . S
C656 C657 1.375 . S
C656 C662 1.404 . S
C657 C656 1.375 . S
C657 C658 1.369 . S
C657 H670 0.950 . S
C658 C657 1.369 . S
C658 C659 1.392 . S
C658 H671 0.951 . S
C659 C658 1.392 . S
C659 C661 1.384 . S
H660 C662 0.949 . S
C661 C659 1.384 . S
C661 C662 1.385 . S
C661 H663 0.950 . S
C662 C656 1.404 . S
C662 H660 0.949 . S
C662 C661 1.385 . S
H663 C661 0.950 . S
H664 C648 0.951 . S
H665 C650 0.951 . S
H666 C652 0.951 . S
H667 C653 0.950 . S
H668 C654 0.950 . S
H669 C655 0.950 . S
H670 C657 0.950 . S
H671 C658 0.951 . S
C289 C2 0.714 . S
C299 C218 0.732 . S
C313 C38 0.755 . S
C323 C254 0.650 . S
C337 C146 0.733 . S
C347 C74 0.700 . S
C361 C182 0.679 . S
C371 C110 0.778 . S
C385 C3 1.424 . S
C395 C183 1.445 . S
C409 C39 1.407 . S
C419 C219 1.425 . S
C433 C255 1.425 1_556 S
C443 C75 1.444 . S
C457 C111 1.437 . S
C467 C147 1.395 . S
C481 C148 1.453 . S
C491 C4 1.431 . S
C505 C40 1.462 . S
C515 C184 1.467 . S
C529 C76 1.471 . S
C539 C220 1.451 . S
C553 C256 1.468 . S
C563 C112 1.446 . S
C577 C230 1.328 . S
C587 C14 1.325 . S
C601 C266 1.391 . S
C611 C50 1.286 . S
C625 C86 1.373 . S
C635 C158 1.273 . S
C649 C122 1.372 . S
C659 C194 1.369 . S
