# Generated by pormake.
# Topology uot, (4)-cn, num edge types: 1
# Building blocks:
#     Node 0, Type 0, BuildingBlock: KUFVIS_clean_sbu_0, # of connection points: 4
#     Node 1, Type 0, BuildingBlock: KUFVIS_clean_sbu_0, # of connection points: 4
#     Node 2, Type 0, BuildingBlock: KUFVIS_clean_sbu_0, # of connection points: 4
#     Node 3, Type 0, BuildingBlock: KUFVIS_clean_sbu_0, # of connection points: 4
#     Node 4, Type 0, BuildingBlock: KUFVIS_clean_sbu_0, # of connection points: 4
#     Node 5, Type 0, BuildingBlock: KUFVIS_clean_sbu_0, # of connection points: 4
#     Node 6, Type 0, BuildingBlock: KUFVIS_clean_sbu_0, # of connection points: 4
#     Node 7, Type 0, BuildingBlock: KUFVIS_clean_sbu_0, # of connection points: 4
#     Node 8, Type 0, BuildingBlock: KUFVIS_clean_sbu_0, # of connection points: 4
#     Node 9, Type 0, BuildingBlock: KUFVIS_clean_sbu_0, # of connection points: 4
#     Node 10, Type 0, BuildingBlock: KUFVIS_clean_sbu_0, # of connection points: 4
#     Node 11, Type 0, BuildingBlock: KUFVIS_clean_sbu_0, # of connection points: 4
#     Node 12, Type 0, BuildingBlock: KUFVIS_clean_sbu_0, # of connection points: 4
#     Node 13, Type 0, BuildingBlock: KUFVIS_clean_sbu_0, # of connection points: 4
#     Node 14, Type 0, BuildingBlock: KUFVIS_clean_sbu_0, # of connection points: 4
#     Node 15, Type 0, BuildingBlock: KUFVIS_clean_sbu_0, # of connection points: 4
#     Edge 16, Type (0, 0), BuildingBlock: KIFKEQ_clean_linker_1, # of connection points: 2
#     Edge 17, Type (0, 0), BuildingBlock: KIFKEQ_clean_linker_1, # of connection points: 2
#     Edge 18, Type (0, 0), BuildingBlock: KIFKEQ_clean_linker_1, # of connection points: 2
#     Edge 19, Type (0, 0), BuildingBlock: KIFKEQ_clean_linker_1, # of connection points: 2
#     Edge 20, Type (0, 0), BuildingBlock: KIFKEQ_clean_linker_1, # of connection points: 2
#     Edge 21, Type (0, 0), BuildingBlock: KIFKEQ_clean_linker_1, # of connection points: 2
#     Edge 22, Type (0, 0), BuildingBlock: KIFKEQ_clean_linker_1, # of connection points: 2
#     Edge 23, Type (0, 0), BuildingBlock: KIFKEQ_clean_linker_1, # of connection points: 2
#     Edge 24, Type (0, 0), BuildingBlock: KIFKEQ_clean_linker_1, # of connection points: 2
#     Edge 25, Type (0, 0), BuildingBlock: KIFKEQ_clean_linker_1, # of connection points: 2
#     Edge 26, Type (0, 0), BuildingBlock: KIFKEQ_clean_linker_1, # of connection points: 2
#     Edge 27, Type (0, 0), BuildingBlock: KIFKEQ_clean_linker_1, # of connection points: 2
#     Edge 28, Type (0, 0), BuildingBlock: KIFKEQ_clean_linker_1, # of connection points: 2
#     Edge 29, Type (0, 0), BuildingBlock: KIFKEQ_clean_linker_1, # of connection points: 2
#     Edge 30, Type (0, 0), BuildingBlock: KIFKEQ_clean_linker_1, # of connection points: 2
#     Edge 31, Type (0, 0), BuildingBlock: KIFKEQ_clean_linker_1, # of connection points: 2
#     Edge 32, Type (0, 0), BuildingBlock: KIFKEQ_clean_linker_1, # of connection points: 2
#     Edge 33, Type (0, 0), BuildingBlock: KIFKEQ_clean_linker_1, # of connection points: 2
#     Edge 34, Type (0, 0), BuildingBlock: KIFKEQ_clean_linker_1, # of connection points: 2
#     Edge 35, Type (0, 0), BuildingBlock: KIFKEQ_clean_linker_1, # of connection points: 2
#     Edge 36, Type (0, 0), BuildingBlock: KIFKEQ_clean_linker_1, # of connection points: 2
#     Edge 37, Type (0, 0), BuildingBlock: KIFKEQ_clean_linker_1, # of connection points: 2
#     Edge 38, Type (0, 0), BuildingBlock: KIFKEQ_clean_linker_1, # of connection points: 2
#     Edge 39, Type (0, 0), BuildingBlock: KIFKEQ_clean_linker_1, # of connection points: 2
#     Edge 40, Type (0, 0), BuildingBlock: KIFKEQ_clean_linker_1, # of connection points: 2
#     Edge 41, Type (0, 0), BuildingBlock: KIFKEQ_clean_linker_1, # of connection points: 2
#     Edge 42, Type (0, 0), BuildingBlock: KIFKEQ_clean_linker_1, # of connection points: 2
#     Edge 43, Type (0, 0), BuildingBlock: KIFKEQ_clean_linker_1, # of connection points: 2
#     Edge 44, Type (0, 0), BuildingBlock: KIFKEQ_clean_linker_1, # of connection points: 2
#     Edge 45, Type (0, 0), BuildingBlock: KIFKEQ_clean_linker_1, # of connection points: 2
#     Edge 46, Type (0, 0), BuildingBlock: KIFKEQ_clean_linker_1, # of connection points: 2
#     Edge 47, Type (0, 0), BuildingBlock: KIFKEQ_clean_linker_1, # of connection points: 2
# Relax obj value: 0.078
# Max RMSD: 0.115
# Mean RMSD: 0.115
data_MOF--net-uot--node1-KUFVIS_clean_sbu_0--edge1-KIFKEQ_clean_linker_1
_symmetry_space_group_name_H-M    P1
_symmetry_Int_Tables_number       1
_symmetry_cell_setting            triclinic
loop_
_symmetry_equiv_pos_as_xyz
'x, y, z'
_cell_length_a     44.917035
_cell_length_b     44.928774
_cell_length_c     41.319073
_cell_angle_alpha  89.987856
_cell_angle_beta   90.005235
_cell_angle_gamma 89.982181
loop_
_atom_site_label
_atom_site_type_symbol
_atom_site_fract_x
_atom_site_fract_y
_atom_site_fract_z
_atom_type_partial_charge
Mn0 Mn 0.18613 0.41883 0.33235 0.0
Mn1 Mn 0.15034 0.371 0.38164 0.0
C2 C 0.15018 0.38755 0.31164 0.0
C3 C 0.1896 0.4661 0.31002 0.0
C4 C 0.21377 0.36189 0.35822 0.0
O5 O 0.19518 0.43471 0.37733 0.0
O6 O 0.16624 0.40465 0.40774 0.0
C7 C 0.09989 0.40893 0.40221 0.0
N8 N 0.1101 0.38359 0.38794 0.0
C9 C 0.06019 0.3669 0.37706 0.0
C10 C 0.04913 0.39272 0.39184 0.0
C11 C 0.06907 0.41383 0.40445 0.0
C12 C 0.09111 0.36308 0.37583 0.0
H13 H 0.11514 0.42532 0.41173 0.0
C14 C 0.1837 0.42704 0.40435 0.0
O15 O 0.21275 0.44882 0.31154 0.0
O16 O 0.16478 0.45607 0.32172 0.0
N17 N 0.1336 0.33783 0.35893 0.0
C18 C 0.14789 0.31504 0.34368 0.0
C19 C 0.13112 0.2925 0.3288 0.0
C20 C 0.09988 0.29358 0.3298 0.0
C21 C 0.08568 0.31714 0.34582 0.0
C22 C 0.10356 0.33881 0.36052 0.0
H23 H 0.17188 0.31416 0.34266 0.0
O24 O 0.1698 0.39948 0.2926 0.0
O25 O 0.15207 0.39469 0.34202 0.0
O26 O 0.21482 0.38419 0.33919 0.0
O27 O 0.19129 0.35578 0.37598 0.0
C28 C 0.0545 0.32031 0.34718 0.0
C29 C 0.04176 0.34516 0.3628 0.0
H30 H 0.02539 0.39672 0.39336 0.0
H31 H 0.06071 0.4339 0.41573 0.0
H32 H 0.14224 0.27442 0.31641 0.0
H33 H 0.08702 0.27633 0.31796 0.0
H34 H 0.04011 0.30398 0.33591 0.0
H35 H 0.01777 0.34756 0.36331 0.0
Mn36 Mn 0.41745 0.82109 0.66323 0.0
Mn37 Mn 0.36725 0.84821 0.61024 0.0
C38 C 0.38039 0.85269 0.68079 0.0
C39 C 0.46346 0.82589 0.68859 0.0
C40 C 0.36561 0.78514 0.63621 0.0
O41 O 0.43685 0.8135 0.61969 0.0
O42 O 0.40308 0.83445 0.58612 0.0
C43 C 0.40034 0.90126 0.58774 0.0
N44 N 0.37575 0.88915 0.60183 0.0
C45 C 0.35383 0.93751 0.60958 0.0
C46 C 0.37882 0.95048 0.59491 0.0
C47 C 0.40217 0.93227 0.58397 0.0
C48 C 0.35309 0.90646 0.61233 0.0
H49 H 0.41845 0.88735 0.57957 0.0
C50 C 0.42782 0.8211 0.59162 0.0
O51 O 0.45043 0.80012 0.68657 0.0
O52 O 0.45003 0.84831 0.67536 0.0
N53 N 0.33178 0.8624 0.63077 0.0
C54 C 0.31021 0.84654 0.64625 0.0
C55 C 0.28572 0.86154 0.65969 0.0
C56 C 0.28367 0.89265 0.65705 0.0
C57 C 0.30607 0.90847 0.64084 0.0
C58 C 0.32978 0.89228 0.62761 0.0
H59 H 0.3118 0.82266 0.64859 0.0
O60 O 0.3938 0.83522 0.70113 0.0
O61 O 0.38923 0.85103 0.65091 0.0
O62 O 0.38776 0.78724 0.65542 0.0
O63 O 0.35657 0.80635 0.6181 0.0
C64 C 0.30614 0.93971 0.63792 0.0
C65 C 0.32999 0.95422 0.62228 0.0
H66 H 0.38045 0.97441 0.59225 0.0
H67 H 0.42161 0.94213 0.57282 0.0
H68 H 0.26858 0.84919 0.67225 0.0
H69 H 0.26493 0.90417 0.66778 0.0
H70 H 0.28815 0.95283 0.64801 0.0
H71 H 0.32998 0.97828 0.62058 0.0
Mn72 Mn 0.81786 0.57653 0.33373 0.0
Mn73 Mn 0.85467 0.62574 0.38054 0.0
C74 C 0.85448 0.60613 0.31152 0.0
C75 C 0.81344 0.52852 0.31367 0.0
C76 C 0.79167 0.63554 0.356 0.0
O77 O 0.80834 0.56277 0.37931 0.0
O78 O 0.83705 0.59407 0.40837 0.0
C79 C 0.90318 0.58675 0.40412 0.0
N80 N 0.89424 0.61183 0.38835 0.0
C81 C 0.94497 0.62601 0.3777 0.0
C82 C 0.95471 0.60044 0.39404 0.0
C83 C 0.93372 0.58071 0.40727 0.0
C84 C 0.91425 0.63099 0.37558 0.0
H85 H 0.88712 0.57142 0.41414 0.0
C86 C 0.81934 0.57176 0.40606 0.0
O87 O 0.79064 0.5463 0.31433 0.0
O88 O 0.83844 0.53848 0.32496 0.0
N89 N 0.87312 0.65713 0.35644 0.0
C90 C 0.86005 0.67985 0.33982 0.0
C91 C 0.87798 0.70111 0.3243 0.0
C92 C 0.90912 0.69883 0.32607 0.0
C93 C 0.92207 0.67539 0.34351 0.0
C94 C 0.90307 0.65506 0.35879 0.0
H95 H 0.83613 0.68161 0.33816 0.0
O96 O 0.83457 0.59388 0.2931 0.0
O97 O 0.85251 0.60032 0.34225 0.0
O98 O 0.78982 0.61193 0.33901 0.0
O99 O 0.81449 0.64227 0.373 0.0
C100 C 0.95307 0.67106 0.34575 0.0
C101 C 0.96451 0.64638 0.36283 0.0
H102 H 0.97824 0.59557 0.39629 0.0
H103 H 0.94106 0.56084 0.41974 0.0
H104 H 0.86782 0.71909 0.31081 0.0
H105 H 0.92288 0.71505 0.31372 0.0
H106 H 0.9683 0.68633 0.33404 0.0
H107 H 0.98837 0.64307 0.36401 0.0
Mn108 Mn 0.57588 0.1782 0.66717 0.0
Mn109 Mn 0.62745 0.14693 0.61875 0.0
C110 C 0.61171 0.14718 0.68877 0.0
C111 C 0.52859 0.17522 0.69005 0.0
C112 C 0.62937 0.2116 0.64022 0.0
O113 O 0.55858 0.18379 0.62226 0.0
O114 O 0.59248 0.15916 0.5922 0.0
C115 C 0.59447 0.09277 0.59936 0.0
N116 N 0.61876 0.10559 0.61332 0.0
C117 C 0.63992 0.0577 0.62565 0.0
C118 C 0.61524 0.04399 0.61119 0.0
C119 C 0.59241 0.06161 0.59801 0.0
C120 C 0.6409 0.08885 0.62598 0.0
H121 H 0.57675 0.10623 0.58946 0.0
C122 C 0.56799 0.1736 0.59532 0.0
O123 O 0.54207 0.20072 0.68736 0.0
O124 O 0.54244 0.15205 0.67909 0.0
N125 N 0.66212 0.13384 0.64167 0.0
C126 C 0.68352 0.1505 0.65643 0.0
C127 C 0.70752 0.13622 0.67172 0.0
C128 C 0.7093 0.10501 0.67164 0.0
C129 C 0.68712 0.08834 0.65609 0.0
C130 C 0.66392 0.10381 0.64091 0.0
H131 H 0.68217 0.17449 0.65679 0.0
O132 O 0.59764 0.16584 0.70721 0.0
O133 O 0.60408 0.14722 0.65847 0.0
O134 O 0.60644 0.21107 0.65848 0.0
O135 O 0.6384 0.18913 0.62394 0.0
C136 C 0.6868 0.05699 0.65565 0.0
C137 C 0.66323 0.04168 0.64044 0.0
H138 H 0.61343 0.01996 0.61037 0.0
H139 H 0.5732 0.05119 0.587 0.0
H140 H 0.72451 0.14924 0.68373 0.0
H141 H 0.72765 0.09407 0.6838 0.0
H142 H 0.70437 0.04443 0.66733 0.0
H143 H 0.66303 0.01757 0.64064 0.0
Mn144 Mn 0.18038 0.5712 0.66857 0.0
Mn145 Mn 0.14458 0.61881 0.619 0.0
C146 C 0.14487 0.60301 0.68926 0.0
C147 C 0.18338 0.52402 0.69101 0.0
C148 C 0.20806 0.62803 0.64239 0.0
O149 O 0.18935 0.55499 0.62384 0.0
O150 O 0.1609 0.58515 0.59307 0.0
C151 C 0.09454 0.5803 0.59859 0.0
N152 N 0.10448 0.60587 0.61258 0.0
C153 C 0.05439 0.62236 0.62285 0.0
C154 C 0.04361 0.59629 0.60834 0.0
C155 C 0.06378 0.57516 0.59619 0.0
C156 C 0.08527 0.62638 0.6243 0.0
H157 H 0.10998 0.5639 0.58942 0.0
C158 C 0.1783 0.56273 0.59667 0.0
O159 O 0.20674 0.54101 0.68949 0.0
O160 O 0.15865 0.53432 0.6794 0.0
N161 N 0.12747 0.6521 0.64119 0.0
C162 C 0.14149 0.67526 0.65605 0.0
C163 C 0.12446 0.69794 0.67035 0.0
C164 C 0.09324 0.69663 0.66914 0.0
C165 C 0.07932 0.67272 0.65346 0.0
C166 C 0.09744 0.65093 0.63933 0.0
H167 H 0.16547 0.67632 0.65723 0.0
O168 O 0.16446 0.59095 0.70825 0.0
O169 O 0.14638 0.59556 0.65891 0.0
O170 O 0.2094 0.60552 0.66115 0.0
O171 O 0.18533 0.63425 0.62503 0.0
C172 C 0.04817 0.66935 0.65186 0.0
C173 C 0.03571 0.64418 0.63658 0.0
H174 H 0.0199 0.59213 0.60667 0.0
H175 H 0.05564 0.55491 0.58512 0.0
H176 H 0.13538 0.71629 0.68246 0.0
H177 H 0.08019 0.71398 0.68054 0.0
H178 H 0.03359 0.68577 0.6627 0.0
H179 H 0.01174 0.64164 0.63588 0.0
Mn180 Mn 0.56953 0.81324 0.32464 0.0
Mn181 Mn 0.61526 0.85056 0.37515 0.0
C182 C 0.60082 0.8494 0.30457 0.0
C183 C 0.52305 0.80875 0.30062 0.0
C184 C 0.62676 0.78737 0.35255 0.0
O185 O 0.5522 0.80457 0.36902 0.0
O186 O 0.58185 0.83313 0.40043 0.0
C187 C 0.57458 0.89927 0.39438 0.0
N188 N 0.60079 0.89018 0.38108 0.0
C189 C 0.61567 0.94078 0.37088 0.0
C190 C 0.58894 0.95068 0.38471 0.0
C191 C 0.56829 0.92983 0.39647 0.0
C192 C 0.62083 0.91006 0.36971 0.0
H193 H 0.55855 0.8833 0.40323 0.0
C194 C 0.55968 0.81558 0.39629 0.0
O195 O 0.54062 0.78588 0.30305 0.0
O196 O 0.53234 0.83384 0.31229 0.0
N197 N 0.64833 0.86873 0.35361 0.0
C198 C 0.67229 0.85546 0.33941 0.0
C199 C 0.69465 0.87321 0.32556 0.0
C200 C 0.69221 0.90437 0.32656 0.0
C201 C 0.6675 0.91751 0.3416 0.0
C202 C 0.64608 0.89869 0.3553 0.0
H203 H 0.67422 0.83153 0.33843 0.0
O204 O 0.58988 0.82931 0.28543 0.0
O205 O 0.59274 0.84789 0.33473 0.0
O206 O 0.60458 0.78525 0.33339 0.0
O207 O 0.63216 0.81037 0.36977 0.0
C208 C 0.663 0.94852 0.34295 0.0
C209 C 0.6371 0.96014 0.35757 0.0
H210 H 0.5839 0.97422 0.38613 0.0
H211 H 0.54753 0.93729 0.40699 0.0
H212 H 0.71363 0.8629 0.31397 0.0
H213 H 0.70932 0.91798 0.3155 0.0
H214 H 0.67911 0.96362 0.33241 0.0
H215 H 0.63369 0.98401 0.35806 0.0
Mn216 Mn 0.81405 0.42606 0.6714 0.0
Mn217 Mn 0.8437 0.37675 0.61925 0.0
C218 C 0.84569 0.38932 0.69004 0.0
C219 C 0.81766 0.47194 0.69715 0.0
C220 C 0.77944 0.37474 0.642 0.0
O221 O 0.80743 0.44545 0.62751 0.0
O222 O 0.83182 0.41319 0.59511 0.0
C223 C 0.8983 0.40927 0.6004 0.0
N224 N 0.88515 0.38474 0.61345 0.0
C225 C 0.93274 0.362 0.62372 0.0
C226 C 0.94679 0.38693 0.61018 0.0
C227 C 0.92948 0.41066 0.59848 0.0
C228 C 0.90157 0.36169 0.62462 0.0
H229 H 0.88509 0.42767 0.59163 0.0
C230 C 0.81737 0.43744 0.59989 0.0
O231 O 0.79206 0.45871 0.69417 0.0
O232 O 0.84054 0.45884 0.68449 0.0
N233 N 0.85634 0.34087 0.64014 0.0
C234 C 0.83943 0.31944 0.65451 0.0
C235 C 0.85339 0.29463 0.66855 0.0
C236 C 0.88455 0.29212 0.6677 0.0
C237 C 0.90148 0.31441 0.65268 0.0
C238 C 0.88631 0.33845 0.63875 0.0
H239 H 0.81549 0.32137 0.65548 0.0
O240 O 0.82745 0.40244 0.70978 0.0
O241 O 0.84469 0.39828 0.66018 0.0
O242 O 0.78087 0.39606 0.66232 0.0
O243 O 0.80126 0.36649 0.62428 0.0
C244 C 0.93283 0.31404 0.65162 0.0
C245 C 0.94845 0.3378 0.63713 0.0
H246 H 0.97084 0.38823 0.60897 0.0
H247 H 0.94017 0.43006 0.58818 0.0
H248 H 0.84018 0.27758 0.68021 0.0
H249 H 0.89526 0.27312 0.6789 0.0
H250 H 0.94517 0.29578 0.66229 0.0
H251 H 0.97256 0.33745 0.63687 0.0
Mn252 Mn 0.43225 0.18157 0.32515 0.0
Mn253 Mn 0.38498 0.13983 0.36942 0.0
C254 C 0.40299 0.14623 0.30017 0.0
C255 C 0.4798 0.18865 0.30473 0.0
C256 C 0.37304 0.20424 0.35123 0.0
O257 O 0.44677 0.18777 0.37113 0.0
O258 O 0.41683 0.15597 0.398 0.0
C259 C 0.42585 0.0907 0.38695 0.0
N260 N 0.40008 0.10018 0.37297 0.0
C261 C 0.38673 0.05013 0.35816 0.0
C262 C 0.41303 0.03981 0.37261 0.0
C263 C 0.43269 0.0602 0.38702 0.0
C264 C 0.38101 0.08076 0.35901 0.0
H265 H 0.44112 0.10632 0.39788 0.0
C266 C 0.43861 0.17441 0.39689 0.0
O267 O 0.46157 0.21094 0.30774 0.0
O268 O 0.47053 0.16264 0.31375 0.0
N269 N 0.35338 0.12254 0.34462 0.0
C270 C 0.32973 0.13625 0.33029 0.0
C271 C 0.30828 0.11903 0.31414 0.0
C272 C 0.31131 0.08793 0.31297 0.0
C273 C 0.33569 0.07431 0.32812 0.0
C274 C 0.35618 0.09258 0.34418 0.0
H275 H 0.32735 0.16014 0.33095 0.0
O276 O 0.41448 0.16777 0.28343 0.0
O277 O 0.4094 0.14583 0.33082 0.0
O278 O 0.39623 0.20813 0.3339 0.0
O279 O 0.36731 0.17998 0.36617 0.0
C280 C 0.34076 0.04337 0.32739 0.0
C281 C 0.36628 0.03129 0.34237 0.0
H282 H 0.41849 0.01633 0.37253 0.0
H283 H 0.45312 0.05243 0.39805 0.0
H284 H 0.28956 0.12972 0.30245 0.0
H285 H 0.29491 0.07476 0.30015 0.0
H286 H 0.3254 0.02871 0.31498 0.0
H287 H 0.37015 0.00751 0.34126 0.0
Mn288 Mn 0.67538 0.91917 0.83498 0.0
Mn289 Mn 0.64478 0.86816 0.88439 0.0
C290 C 0.64441 0.88296 0.8141 0.0
C291 C 0.67156 0.96612 0.81155 0.0
C292 C 0.7096 0.86676 0.86298 0.0
O293 O 0.68101 0.93702 0.87959 0.0
O294 O 0.65614 0.90383 0.91031 0.0
C295 C 0.58988 0.9003 0.90306 0.0
N296 N 0.60324 0.87613 0.88946 0.0
C297 C 0.5558 0.85409 0.87687 0.0
C298 C 0.54155 0.87865 0.89096 0.0
C299 C 0.55867 0.90185 0.9041 0.0
C300 C 0.58698 0.8536 0.87689 0.0
H301 H 0.60295 0.91832 0.91291 0.0
C302 C 0.67051 0.92829 0.90667 0.0
O303 O 0.69729 0.95302 0.8141 0.0
O304 O 0.6487 0.95209 0.82292 0.0
N305 N 0.63247 0.833 0.86187 0.0
C306 C 0.64962 0.81188 0.84727 0.0
C307 C 0.63587 0.78762 0.83193 0.0
C308 C 0.60468 0.78532 0.83176 0.0
C309 C 0.58751 0.80725 0.84706 0.0
C310 C 0.60246 0.83074 0.86231 0.0
H311 H 0.67358 0.81365 0.84708 0.0
O312 O 0.66294 0.89684 0.79533 0.0
O313 O 0.64472 0.8909 0.84429 0.0
O314 O 0.70865 0.88909 0.84387 0.0
O315 O 0.68729 0.85793 0.87966 0.0
C316 C 0.55615 0.80708 0.84716 0.0
C317 C 0.5403 0.83046 0.86207 0.0
H318 H 0.51748 0.88008 0.8915 0.0
H319 H 0.54783 0.92097 0.91482 0.0
H320 H 0.64927 0.77083 0.82008 0.0
H321 H 0.59416 0.76676 0.81955 0.0
H322 H 0.54398 0.78927 0.83543 0.0
H323 H 0.51619 0.83029 0.86159 0.0
Mn324 Mn 0.91634 0.32638 0.17069 0.0
Mn325 Mn 0.86345 0.35333 0.12083 0.0
C326 C 0.87745 0.35377 0.19161 0.0
C327 C 0.96255 0.33278 0.19512 0.0
C328 C 0.86711 0.28848 0.14146 0.0
O329 O 0.93518 0.32293 0.12629 0.0
O330 O 0.90022 0.345 0.09535 0.0
C331 C 0.8911 0.41074 0.10269 0.0
N332 N 0.8679 0.39536 0.11575 0.0
C333 C 0.84095 0.44063 0.12633 0.0
C334 C 0.86447 0.45694 0.11278 0.0
C335 C 0.88965 0.44192 0.10094 0.0
C336 C 0.84348 0.40957 0.12705 0.0
H337 H 0.91058 0.39929 0.09376 0.0
C338 C 0.92578 0.33271 0.09917 0.0
O339 O 0.95126 0.30634 0.19142 0.0
O340 O 0.9472 0.35503 0.18421 0.0
N341 N 0.82702 0.3626 0.14266 0.0
C342 C 0.8074 0.34378 0.15728 0.0
C343 C 0.78159 0.35539 0.1717 0.0
C344 C 0.77618 0.38618 0.17088 0.0
C345 C 0.79662 0.40508 0.15555 0.0
C346 C 0.82182 0.39221 0.14132 0.0
H347 H 0.81154 0.32012 0.15817 0.0
O348 O 0.89268 0.33609 0.21013 0.0
O349 O 0.8857 0.355 0.16147 0.0
O350 O 0.88915 0.29099 0.16075 0.0
O351 O 0.85659 0.31019 0.12508 0.0
C352 C 0.79335 0.43626 0.15455 0.0
C353 C 0.81549 0.45402 0.13993 0.0
H354 H 0.86358 0.48101 0.11169 0.0
H355 H 0.90797 0.45437 0.09062 0.0
H356 H 0.76598 0.34066 0.18359 0.0
H357 H 0.75641 0.39508 0.18235 0.0
H358 H 0.77412 0.44685 0.16541 0.0
H359 H 0.81294 0.47799 0.13979 0.0
Mn360 Mn 0.31474 0.0805 0.82769 0.0
Mn361 Mn 0.34259 0.13097 0.87961 0.0
C362 C 0.34432 0.11883 0.80877 0.0
C363 C 0.3203 0.03488 0.80175 0.0
C364 C 0.27781 0.12938 0.85844 0.0
O365 O 0.30996 0.06066 0.87167 0.0
O366 O 0.33387 0.09364 0.90365 0.0
C367 C 0.39971 0.10211 0.89663 0.0
N368 N 0.38462 0.12573 0.88406 0.0
C369 C 0.43031 0.15148 0.87222 0.0
C370 C 0.44634 0.12751 0.88522 0.0
C371 C 0.43096 0.10272 0.89747 0.0
C372 C 0.39918 0.14979 0.87242 0.0
H373 H 0.38799 0.08289 0.9058 0.0
C374 C 0.32054 0.06873 0.89901 0.0
O375 O 0.29412 0.04681 0.80525 0.0
O376 O 0.34271 0.04913 0.81393 0.0
N377 N 0.35225 0.16768 0.85852 0.0
C378 C 0.33359 0.18793 0.84467 0.0
C379 C 0.34551 0.21355 0.83015 0.0
C380 C 0.37645 0.21806 0.82996 0.0
C381 C 0.39521 0.19693 0.8444 0.0
C382 C 0.38204 0.172 0.85885 0.0
H383 H 0.30981 0.18445 0.84448 0.0
O384 O 0.32646 0.10497 0.78921 0.0
O385 O 0.34398 0.10973 0.83856 0.0
O386 O 0.28018 0.10869 0.83748 0.0
O387 O 0.29937 0.13847 0.87604 0.0
C388 C 0.42649 0.19929 0.84433 0.0
C389 C 0.44402 0.1766 0.85827 0.0
H390 H 0.47045 0.12774 0.88558 0.0
H391 H 0.44318 0.08405 0.90736 0.0
H392 H 0.33089 0.22968 0.81892 0.0
H393 H 0.38558 0.23767 0.81839 0.0
H394 H 0.4373 0.21826 0.83322 0.0
H395 H 0.46806 0.17847 0.85766 0.0
Mn396 Mn 0.08726 0.66859 0.16819 0.0
Mn397 Mn 0.13919 0.64349 0.116 0.0
C398 C 0.12693 0.64117 0.18709 0.0
C399 C 0.04186 0.6613 0.1941 0.0
C400 C 0.136 0.70755 0.13897 0.0
O401 O 0.06698 0.67251 0.1247 0.0
O402 O 0.10216 0.65353 0.09159 0.0
C403 C 0.11025 0.58729 0.09589 0.0
N404 N 0.13395 0.60176 0.1091 0.0
C405 C 0.16016 0.55566 0.11735 0.0
C406 C 0.13613 0.54028 0.10359 0.0
C407 C 0.11106 0.55617 0.09284 0.0
C408 C 0.15825 0.58672 0.11937 0.0
H409 H 0.09084 0.5994 0.08783 0.0
C410 C 0.07634 0.66474 0.09684 0.0
O411 O 0.0528 0.6879 0.19055 0.0
O412 O 0.05711 0.63938 0.18228 0.0
N413 N 0.17587 0.63279 0.13652 0.0
C414 C 0.19612 0.65074 0.15142 0.0
C415 C 0.22195 0.63816 0.16483 0.0
C416 C 0.22673 0.60732 0.1627 0.0
C417 C 0.20566 0.58934 0.14707 0.0
C418 C 0.18048 0.60316 0.13388 0.0
H419 H 0.19245 0.67442 0.15334 0.0
O420 O 0.11218 0.65847 0.20648 0.0
O421 O 0.11785 0.64043 0.15719 0.0
O422 O 0.11384 0.70455 0.15806 0.0
O423 O 0.14672 0.68623 0.12217 0.0
C424 C 0.20829 0.55816 0.14479 0.0
C425 C 0.18557 0.54134 0.12992 0.0
H426 H 0.13654 0.51625 0.1015 0.0
H427 H 0.09235 0.54444 0.08238 0.0
H428 H 0.23806 0.65217 0.17695 0.0
H429 H 0.24651 0.59766 0.1734 0.0
H430 H 0.22748 0.54684 0.15485 0.0
H431 H 0.18764 0.51734 0.12876 0.0
Mn432 Mn 0.67827 0.08078 0.16735 0.0
Mn433 Mn 0.65728 0.13402 0.11474 0.0
C434 C 0.65257 0.12175 0.18589 0.0
C435 C 0.66781 0.03538 0.19182 0.0
C436 C 0.72071 0.12611 0.1388 0.0
O437 O 0.68287 0.06107 0.12344 0.0
O438 O 0.66306 0.09603 0.09074 0.0
C439 C 0.59818 0.1112 0.09514 0.0
N440 N 0.61518 0.13323 0.10821 0.0
C441 C 0.57219 0.16428 0.11653 0.0
C442 C 0.55425 0.142 0.10295 0.0
C443 C 0.56731 0.11535 0.09224 0.0
C444 C 0.60289 0.15906 0.11839 0.0
H445 H 0.60811 0.09059 0.0871 0.0
C446 C 0.67403 0.07007 0.09576 0.0
O447 O 0.69502 0.04505 0.1897 0.0
O448 O 0.6471 0.0519 0.17941 0.0
N449 N 0.65068 0.17164 0.13529 0.0
C450 C 0.67073 0.18978 0.15023 0.0
C451 C 0.66103 0.21679 0.16371 0.0
C452 C 0.63088 0.22487 0.16165 0.0
C453 C 0.61068 0.20588 0.14606 0.0
C454 C 0.62169 0.17939 0.13279 0.0
H455 H 0.69389 0.1836 0.1521 0.0
O456 O 0.66804 0.10558 0.20576 0.0
O457 O 0.65229 0.11304 0.15587 0.0
O458 O 0.71566 0.10571 0.15953 0.0
O459 O 0.7008 0.13712 0.12024 0.0
C460 C 0.57995 0.21184 0.14392 0.0
C461 C 0.56072 0.19107 0.12913 0.0
H462 H 0.53038 0.14497 0.101 0.0
H463 H 0.55358 0.09798 0.08192 0.0
H464 H 0.67673 0.23126 0.17582 0.0
H465 H 0.62343 0.24556 0.1724 0.0
H466 H 0.57079 0.23211 0.15404 0.0
H467 H 0.53707 0.19569 0.12811 0.0
Mn468 Mn 0.07491 0.32491 0.83613 0.0
Mn469 Mn 0.12686 0.35358 0.88608 0.0
C470 C 0.11352 0.35265 0.81515 0.0
C471 C 0.02881 0.33037 0.81101 0.0
C472 C 0.12516 0.28853 0.86594 0.0
O473 O 0.0557 0.3216 0.88036 0.0
O474 O 0.09014 0.34446 0.91124 0.0
C475 C 0.0973 0.41032 0.90319 0.0
N476 N 0.12113 0.39551 0.89069 0.0
C477 C 0.14697 0.44143 0.88027 0.0
C478 C 0.1228 0.45717 0.89325 0.0
C479 C 0.09785 0.44154 0.90472 0.0
C480 C 0.1453 0.41031 0.8797 0.0
H481 H 0.078 0.3984 0.91184 0.0
C482 C 0.0648 0.33177 0.90743 0.0
O483 O 0.04044 0.30413 0.81517 0.0
O484 O 0.0437 0.35289 0.82195 0.0
N485 N 0.16328 0.36373 0.86471 0.0
C486 C 0.18371 0.34536 0.8507 0.0
C487 C 0.20946 0.35759 0.83676 0.0
C488 C 0.214 0.38851 0.83749 0.0
C489 C 0.19278 0.40694 0.85224 0.0
C490 C 0.16767 0.39347 0.86599 0.0
H491 H 0.18026 0.3216 0.8499 0.0
O492 O 0.09869 0.33455 0.79677 0.0
O493 O 0.10497 0.35424 0.84517 0.0
O494 O 0.10289 0.29019 0.8468 0.0
O495 O 0.135 0.31067 0.88214 0.0
C496 C 0.1952 0.43819 0.85314 0.0
C497 C 0.17231 0.45543 0.86713 0.0
H498 H 0.12301 0.48127 0.8942 0.0
H499 H 0.07903 0.45354 0.91459 0.0
H500 H 0.22569 0.34323 0.82533 0.0
H501 H 0.23374 0.39789 0.82639 0.0
H502 H 0.21435 0.44923 0.84266 0.0
H503 H 0.17421 0.47946 0.8672 0.0
Mn504 Mn 0.32458 0.91702 0.15941 0.0
Mn505 Mn 0.34416 0.86283 0.10738 0.0
C506 C 0.35129 0.87674 0.17802 0.0
C507 C 0.33557 0.96312 0.18202 0.0
C508 C 0.28158 0.87068 0.13401 0.0
O509 O 0.31795 0.93551 0.11521 0.0
O510 O 0.33714 0.90022 0.08255 0.0
C511 C 0.4023 0.88576 0.08477 0.0
N512 N 0.386 0.86387 0.09911 0.0
C513 C 0.42958 0.83348 0.10661 0.0
C514 C 0.44681 0.85561 0.0917 0.0
C515 C 0.4331 0.88186 0.08076 0.0
C516 C 0.39892 0.83844 0.10955 0.0
H517 H 0.39187 0.90607 0.07655 0.0
C518 C 0.32584 0.92607 0.08739 0.0
O519 O 0.30839 0.95317 0.18146 0.0
O520 O 0.35592 0.94649 0.16911 0.0
N521 N 0.35185 0.82574 0.12861 0.0
C522 C 0.3325 0.80769 0.14473 0.0
C523 C 0.34292 0.78108 0.1585 0.0
C524 C 0.37308 0.77328 0.15552 0.0
C525 C 0.39255 0.79215 0.1387 0.0
C526 C 0.38083 0.81824 0.1252 0.0
H527 H 0.30934 0.81366 0.14731 0.0
O528 O 0.33649 0.89336 0.19805 0.0
O529 O 0.35044 0.88471 0.14775 0.0
O530 O 0.28719 0.8915 0.15406 0.0
O531 O 0.30089 0.85952 0.11481 0.0
C532 C 0.42326 0.78646 0.13552 0.0
C533 C 0.44176 0.80709 0.11946 0.0
H534 H 0.47062 0.85283 0.08888 0.0
H535 H 0.44628 0.89912 0.06942 0.0
H536 H 0.32778 0.76669 0.17155 0.0
H537 H 0.3811 0.7529 0.16649 0.0
H538 H 0.43297 0.76651 0.14579 0.0
H539 H 0.4654 0.80269 0.11762 0.0
Mn540 Mn 0.91933 0.67729 0.83877 0.0
Mn541 Mn 0.8692 0.65407 0.89386 0.0
C542 C 0.87892 0.64931 0.82271 0.0
C543 C 0.96369 0.66853 0.81127 0.0
C544 C 0.87222 0.71746 0.86877 0.0
O545 O 0.94114 0.6824 0.88143 0.0
O546 O 0.90726 0.66361 0.9163 0.0
C547 C 0.89772 0.59759 0.91385 0.0
N548 N 0.87395 0.61232 0.9011 0.0
C549 C 0.84719 0.56649 0.89332 0.0
C550 C 0.87129 0.55085 0.90659 0.0
C551 C 0.89667 0.56648 0.91689 0.0
C552 C 0.84935 0.59752 0.89129 0.0
H553 H 0.91739 0.60949 0.92151 0.0
C554 C 0.93287 0.67469 0.90976 0.0
O555 O 0.95317 0.69538 0.8141 0.0
O556 O 0.94873 0.64731 0.82484 0.0
N557 N 0.83175 0.64382 0.87476 0.0
C558 C 0.81135 0.66199 0.86041 0.0
C559 C 0.78513 0.6497 0.84764 0.0
C560 C 0.78016 0.61889 0.84974 0.0
C561 C 0.80143 0.60066 0.8647 0.0
C562 C 0.82699 0.61421 0.87732 0.0
H563 H 0.81518 0.68565 0.85846 0.0
O564 O 0.89295 0.66582 0.80194 0.0
O565 O 0.8891 0.64988 0.85213 0.0
O566 O 0.89311 0.7136 0.84825 0.0
O567 O 0.86232 0.69696 0.88731 0.0
C568 C 0.79859 0.56949 0.86693 0.0
C569 C 0.82144 0.55242 0.88125 0.0
H570 H 0.8707 0.52682 0.90865 0.0
H571 H 0.91544 0.55455 0.92696 0.0
H572 H 0.76887 0.6639 0.83601 0.0
H573 H 0.76006 0.60945 0.83953 0.0
H574 H 0.77911 0.55839 0.85731 0.0
H575 H 0.81917 0.52845 0.88242 0.0
H576 H 0.25811 0.3557 0.3133 0.0
H577 H 0.22728 0.32133 0.40508 0.0
H578 H 0.2978 0.31873 0.31273 0.0
H579 H 0.26755 0.2852 0.40514 0.0
H580 H 0.31637 0.20133 0.37478 0.0
H581 H 0.27966 0.24078 0.37732 0.0
H582 H 0.3434 0.30255 0.33692 0.0
H583 H 0.38001 0.2626 0.33321 0.0
C584 C 0.26009 0.34057 0.3336 0.0
C585 C 0.23938 0.34125 0.35908 0.0
C586 C 0.28294 0.31946 0.33336 0.0
C587 C 0.28573 0.2988 0.35876 0.0
C588 C 0.26566 0.3003 0.38481 0.0
C589 C 0.24264 0.32113 0.38487 0.0
C590 C 0.32268 0.22332 0.36651 0.0
C591 C 0.35116 0.22875 0.35372 0.0
C592 C 0.30163 0.24605 0.36819 0.0
C593 C 0.30859 0.27493 0.35749 0.0
C594 C 0.33718 0.28049 0.34499 0.0
C595 C 0.35821 0.25761 0.34301 0.0
H596 H 0.33522 0.76239 0.5853 0.0
H597 H 0.35651 0.74553 0.68558 0.0
H598 H 0.30042 0.72098 0.58563 0.0
H599 H 0.32067 0.70453 0.68634 0.0
H600 H 0.26355 0.62098 0.66954 0.0
H601 H 0.30562 0.65541 0.66657 0.0
H602 H 0.25225 0.71599 0.60966 0.0
H603 H 0.21085 0.68167 0.61184 0.0
C604 C 0.33256 0.74964 0.60738 0.0
C605 C 0.3482 0.75738 0.63555 0.0
C606 C 0.31253 0.72602 0.60763 0.0
C607 C 0.30728 0.70991 0.63621 0.0
C608 C 0.32427 0.71647 0.66391 0.0
C609 C 0.34473 0.73996 0.66352 0.0
C610 C 0.2609 0.64161 0.65628 0.0
C611 C 0.23384 0.64848 0.64081 0.0
C612 C 0.28497 0.66134 0.65468 0.0
C613 C 0.28239 0.68827 0.6376 0.0
C614 C 0.25528 0.6951 0.62233 0.0
C615 C 0.23139 0.67545 0.6238 0.0
H616 H 0.66559 0.77533 0.40135 0.0
H617 H 0.63653 0.74334 0.30792 0.0
H618 H 0.70366 0.73698 0.40303 0.0
H619 H 0.67551 0.70547 0.30903 0.0
H620 H 0.73494 0.62585 0.33382 0.0
H621 H 0.69321 0.66061 0.33424 0.0
H622 H 0.74979 0.72773 0.37708 0.0
H623 H 0.79098 0.69286 0.37773 0.0
C624 C 0.66737 0.76009 0.38112 0.0
C625 C 0.64821 0.7625 0.35438 0.0
C626 C 0.68933 0.73821 0.382 0.0
C627 C 0.69297 0.71842 0.35595 0.0
C628 C 0.67318 0.7202 0.32962 0.0
C629 C 0.65091 0.74196 0.32891 0.0
C630 C 0.73842 0.64802 0.34338 0.0
C631 C 0.76628 0.65652 0.35586 0.0
C632 C 0.71453 0.66798 0.34349 0.0
C633 C 0.71808 0.69691 0.35587 0.0
C634 C 0.74604 0.70542 0.36803 0.0
C635 C 0.76978 0.68544 0.36821 0.0
H636 H 0.68123 0.21961 0.60727 0.0
H637 H 0.6188 0.26585 0.66918 0.0
H638 H 0.71282 0.26299 0.60632 0.0
H639 H 0.65052 0.3101 0.6674 0.0
H640 H 0.75739 0.34753 0.58864 0.0
H641 H 0.71631 0.31236 0.58598 0.0
H642 H 0.6989 0.32613 0.68778 0.0
H643 H 0.73939 0.36245 0.69 0.0
C644 C 0.67395 0.2392 0.62035 0.0
C645 C 0.64741 0.23913 0.63837 0.0
C646 C 0.69205 0.26428 0.61956 0.0
C647 C 0.68408 0.29018 0.63652 0.0
C648 C 0.65733 0.29042 0.65421 0.0
C649 C 0.63914 0.26512 0.65512 0.0
C650 C 0.74442 0.34342 0.6103 0.0
C651 C 0.75178 0.35731 0.63963 0.0
C652 C 0.72098 0.32319 0.60884 0.0
C653 C 0.70478 0.31591 0.63684 0.0
C654 C 0.71087 0.33131 0.66575 0.0
C655 C 0.73411 0.35201 0.66707 0.0
H656 H 0.71932 0.81744 0.89981 0.0
H657 H 0.76314 0.87629 0.83199 0.0
H658 H 0.76345 0.78692 0.90245 0.0
H659 H 0.80811 0.84564 0.83534 0.0
H660 H 0.86024 0.75497 0.81836 0.0
H661 H 0.8244 0.79595 0.81847 0.0
H662 H 0.81352 0.78589 0.92183 0.0
H663 H 0.84825 0.7443 0.92137 0.0
C664 C 0.73851 0.82417 0.88573 0.0
C665 C 0.73754 0.84938 0.86561 0.0
C666 C 0.76404 0.80672 0.88751 0.0
C667 C 0.78948 0.81399 0.86938 0.0
C668 C 0.78882 0.83941 0.84952 0.0
C669 C 0.76309 0.85699 0.84769 0.0
C670 C 0.85071 0.76209 0.84117 0.0
C671 C 0.85655 0.74624 0.86977 0.0
C672 C 0.83023 0.78559 0.84127 0.0
C673 C 0.8156 0.79372 0.87006 0.0
C674 C 0.82374 0.77959 0.8991 0.0
C675 C 0.84376 0.75591 0.8989 0.0
H676 H 0.75661 0.14032 0.18965 0.0
H677 H 0.75069 0.1442 0.08551 0.0
H678 H 0.79846 0.17503 0.18839 0.0
H679 H 0.79335 0.17764 0.08394 0.0
H680 H 0.82209 0.27415 0.10027 0.0
H681 H 0.79345 0.22883 0.09832 0.0
H682 H 0.84855 0.19066 0.1734 0.0
H683 H 0.87718 0.23695 0.17605 0.0
C684 C 0.76508 0.14769 0.16644 0.0
C685 C 0.75027 0.1401 0.13771 0.0
C686 C 0.78909 0.16752 0.16568 0.0
C687 C 0.79878 0.17966 0.13609 0.0
C688 C 0.78585 0.16938 0.10718 0.0
C689 C 0.76158 0.15011 0.10802 0.0
C690 C 0.82846 0.2561 0.11622 0.0
C691 C 0.85185 0.25938 0.13852 0.0
C692 C 0.81216 0.22984 0.11483 0.0
C693 C 0.81881 0.20595 0.13556 0.0
C694 C 0.84279 0.20873 0.15723 0.0
C695 C 0.85923 0.23521 0.15865 0.0
H696 H 0.11576 0.23593 0.83305 0.0
H697 H 0.1733 0.27719 0.90399 0.0
H698 H 0.14734 0.19155 0.83376 0.0
H699 H 0.20493 0.23393 0.90378 0.0
H700 H 0.25326 0.15093 0.91353 0.0
H701 H 0.21036 0.18374 0.91831 0.0
H702 H 0.19617 0.17776 0.81498 0.0
H703 H 0.23826 0.14352 0.81069 0.0
C704 C 0.13489 0.23548 0.84899 0.0
C705 C 0.14202 0.26025 0.86832 0.0
C706 C 0.15308 0.21012 0.84925 0.0
C707 C 0.17869 0.20909 0.86885 0.0
C708 C 0.18511 0.23353 0.88887 0.0
C709 C 0.167 0.25863 0.88874 0.0
C710 C 0.24054 0.15618 0.89199 0.0
C711 C 0.24922 0.14511 0.8617 0.0
C712 C 0.21607 0.17509 0.89464 0.0
C713 C 0.20023 0.18401 0.86692 0.0
C714 C 0.20774 0.17128 0.83687 0.0
C715 C 0.23193 0.15178 0.83434 0.0
H716 H 0.24844 0.85482 0.18646 0.0
H717 H 0.24902 0.85403 0.08207 0.0
H718 H 0.20667 0.81991 0.18653 0.0
H719 H 0.20643 0.82047 0.0819 0.0
H720 H 0.17915 0.72344 0.09623 0.0
H721 H 0.20754 0.76888 0.09455 0.0
H722 H 0.15577 0.80434 0.17385 0.0
H723 H 0.12736 0.75783 0.17617 0.0
C724 C 0.23879 0.84808 0.16357 0.0
C725 C 0.25206 0.85661 0.13426 0.0
C726 C 0.21484 0.82815 0.16357 0.0
C727 C 0.20368 0.81686 0.1342 0.0
C728 C 0.21507 0.82807 0.10493 0.0
C729 C 0.2393 0.84741 0.10497 0.0
C730 C 0.17346 0.7409 0.11322 0.0
C731 C 0.15106 0.73679 0.13653 0.0
C732 C 0.18961 0.76725 0.11199 0.0
C733 C 0.18381 0.79044 0.1339 0.0
C734 C 0.16084 0.78683 0.15671 0.0
C735 C 0.14452 0.76025 0.15795 0.0
H736 H 0.22001 0.48133 0.25537 0.0
H737 H 0.15995 0.51583 0.32779 0.0
H738 H 0.21271 0.5267 0.22291 0.0
H739 H 0.15373 0.56142 0.2961 0.0
H740 H 0.12326 0.58222 0.17546 0.0
H741 H 0.14864 0.54214 0.20437 0.0
H742 H 0.19386 0.60684 0.26371 0.0
H743 H 0.16979 0.64726 0.23314 0.0
C744 C 0.20617 0.49906 0.26483 0.0
C745 C 0.19042 0.49524 0.2939 0.0
C746 C 0.20203 0.52485 0.24634 0.0
C747 C 0.18292 0.54739 0.25735 0.0
C748 C 0.16888 0.54441 0.28748 0.0
C749 C 0.17231 0.51836 0.30544 0.0
C750 C 0.13988 0.58789 0.19342 0.0
C751 C 0.14568 0.61772 0.20114 0.0
C752 C 0.15417 0.56502 0.21009 0.0
C753 C 0.17351 0.57162 0.23572 0.0
C754 C 0.17949 0.60141 0.2435 0.0
C755 C 0.16571 0.62437 0.22619 0.0
H756 H 0.49919 0.78403 0.71824 0.0
H757 H 0.49106 0.87842 0.69972 0.0
H758 H 0.544 0.79366 0.75099 0.0
H759 H 0.53505 0.88772 0.7322 0.0
H760 H 0.58736 0.89823 0.82346 0.0
H761 H 0.54378 0.88013 0.79433 0.0
H762 H 0.59923 0.81902 0.74077 0.0
H763 H 0.64321 0.83723 0.77045 0.0
C764 C 0.50702 0.80669 0.72096 0.0
C765 C 0.49152 0.83048 0.70656 0.0
C766 C 0.53258 0.81214 0.73959 0.0
C767 C 0.54259 0.84143 0.74431 0.0
C768 C 0.52747 0.86497 0.72928 0.0
C769 C 0.50234 0.85958 0.71055 0.0
C770 C 0.59009 0.88031 0.80615 0.0
C771 C 0.61833 0.86852 0.79963 0.0
C772 C 0.56526 0.87014 0.78935 0.0
C773 C 0.56827 0.84826 0.76535 0.0
C774 C 0.5964 0.8357 0.75944 0.0
C775 C 0.62143 0.84613 0.77621 0.0
H776 H 0.83496 0.34674 0.23801 0.0
H777 H 0.88125 0.41289 0.18159 0.0
H778 H 0.81029 0.38661 0.26895 0.0
H779 H 0.85537 0.45239 0.21086 0.0
H780 H 0.84168 0.4786 0.33354 0.0
H781 H 0.84832 0.43257 0.30271 0.0
H782 H 0.79134 0.46686 0.2274 0.0
H783 H 0.78361 0.51263 0.25895 0.0
C784 C 0.83894 0.36976 0.2315 0.0
C785 C 0.85896 0.37691 0.2066 0.0
C786 C 0.82483 0.39239 0.24901 0.0
C787 C 0.83049 0.42233 0.24156 0.0
C788 C 0.85007 0.42939 0.2163 0.0
C789 C 0.86466 0.40686 0.19944 0.0
C790 C 0.82975 0.47583 0.31094 0.0
C791 C 0.81219 0.49899 0.29849 0.0
C792 C 0.83342 0.44954 0.29346 0.0
C793 C 0.82018 0.44637 0.26294 0.0
C794 C 0.80139 0.46885 0.25114 0.0
C795 C 0.79701 0.49489 0.26912 0.0
H796 H 0.49752 0.12411 0.69696 0.0
H797 H 0.49384 0.21796 0.71984 0.0
H798 H 0.45227 0.11587 0.72758 0.0
H799 H 0.44766 0.20937 0.75077 0.0
H800 H 0.34578 0.16545 0.766 0.0
H801 H 0.39017 0.18444 0.7375 0.0
H802 H 0.4452 0.12337 0.7916 0.0
H803 H 0.40133 0.10441 0.81939 0.0
C804 C 0.48693 0.14309 0.7083 0.0
C805 C 0.49947 0.17167 0.70624 0.0
C806 C 0.46102 0.13829 0.7259 0.0
C807 C 0.44683 0.16193 0.74174 0.0
C808 C 0.45838 0.19085 0.73869 0.0
C809 C 0.4847 0.19569 0.72111 0.0
C810 C 0.36755 0.15676 0.77218 0.0
C811 C 0.37043 0.13404 0.79529 0.0
C812 C 0.3928 0.16765 0.75611 0.0
C813 C 0.42093 0.15529 0.76249 0.0
C814 C 0.42372 0.13325 0.78634 0.0
C815 C 0.3987 0.12257 0.80237 0.0
H816 H 0.1553 0.4741 0.67129 0.0
H817 H 0.21106 0.50908 0.74738 0.0
H818 H 0.14689 0.4289 0.70304 0.0
H819 H 0.20154 0.46415 0.77982 0.0
H820 H 0.15714 0.34435 0.77036 0.0
H821 H 0.18316 0.38333 0.73942 0.0
H822 H 0.13673 0.45071 0.794 0.0
H823 H 0.10963 0.41202 0.82334 0.0
C824 C 0.16636 0.47169 0.69445 0.0
C825 C 0.18378 0.49486 0.70702 0.0
C826 C 0.16168 0.44587 0.71246 0.0
C827 C 0.17373 0.44325 0.74362 0.0
C828 C 0.19239 0.46574 0.75562 0.0
C829 C 0.19781 0.49127 0.73713 0.0
C830 C 0.15311 0.36753 0.77609 0.0
C831 C 0.13241 0.37538 0.80006 0.0
C832 C 0.168 0.38966 0.75861 0.0
C833 C 0.16238 0.41978 0.76511 0.0
C834 C 0.142 0.42756 0.78935 0.0
C835 C 0.12668 0.40551 0.80622 0.0
H836 H 0.34345 0.83478 0.2245 0.0
H837 H 0.40989 0.87539 0.16353 0.0
H838 H 0.38283 0.80831 0.25415 0.0
H839 H 0.44891 0.84774 0.19169 0.0
H840 H 0.51063 0.7817 0.24316 0.0
H841 H 0.46578 0.78944 0.20997 0.0
H842 H 0.4264 0.8406 0.28729 0.0
H843 H 0.47144 0.83395 0.31972 0.0
C844 C 0.36635 0.83701 0.21664 0.0
C845 C 0.37369 0.85617 0.19103 0.0
C846 C 0.38874 0.82188 0.23345 0.0
C847 C 0.41871 0.82565 0.22471 0.0
C848 C 0.42588 0.84388 0.19827 0.0
C849 C 0.40359 0.85952 0.18203 0.0
C850 C 0.49198 0.79381 0.25329 0.0
C851 C 0.49429 0.80734 0.28381 0.0
C852 C 0.46648 0.79825 0.23437 0.0
C853 C 0.44276 0.81543 0.2463 0.0
C854 C 0.44428 0.82695 0.27781 0.0
C855 C 0.47002 0.82329 0.29624 0.0
H856 H 0.77493 0.50684 0.72666 0.0
H857 H 0.86974 0.49957 0.71017 0.0
H858 H 0.78375 0.5508 0.76108 0.0
H859 H 0.8782 0.54256 0.74431 0.0
H860 H 0.88874 0.59163 0.83567 0.0
H861 H 0.86779 0.54876 0.80773 0.0
H862 H 0.81153 0.60695 0.75144 0.0
H863 H 0.83229 0.65024 0.78023 0.0
C864 C 0.79749 0.51467 0.73018 0.0
C865 C 0.82165 0.49965 0.71587 0.0
C866 C 0.80248 0.53971 0.74979 0.0
C867 C 0.83165 0.54958 0.75559 0.0
C868 C 0.85554 0.53501 0.74059 0.0
C869 C 0.85061 0.51046 0.72089 0.0
C870 C 0.87096 0.59518 0.81838 0.0
C871 C 0.86152 0.62403 0.81058 0.0
C872 C 0.85918 0.57072 0.80222 0.0
C873 C 0.83817 0.57469 0.77747 0.0
C874 C 0.82747 0.60341 0.77073 0.0
C875 C 0.83938 0.62805 0.787 0.0
H876 H 0.66096 0.16458 0.23152 0.0
H877 H 0.59379 0.12231 0.17287 0.0
H878 H 0.62185 0.19176 0.26095 0.0
H879 H 0.55514 0.15069 0.20058 0.0
H880 H 0.49344 0.21713 0.24857 0.0
H881 H 0.53922 0.21027 0.21677 0.0
H882 H 0.57752 0.15959 0.29512 0.0
H883 H 0.53152 0.16532 0.32615 0.0
C884 C 0.63796 0.16211 0.22409 0.0
C885 C 0.63032 0.14235 0.19914 0.0
C886 C 0.61574 0.17766 0.24075 0.0
C887 C 0.5857 0.17373 0.23241 0.0
C888 C 0.57824 0.15473 0.20675 0.0
C889 C 0.60032 0.13866 0.19077 0.0
C890 C 0.5121 0.20547 0.25932 0.0
C891 C 0.50919 0.19166 0.28962 0.0
C892 C 0.53814 0.20154 0.24119 0.0
C893 C 0.56175 0.18458 0.25372 0.0
C894 C 0.55972 0.17309 0.28522 0.0
C895 C 0.53345 0.17625 0.30286 0.0
H896 H 0.71316 0.00059 0.77956 0.0
H897 H 0.62011 0.9969 0.80621 0.0
H898 H 0.70324 0.04614 0.74798 0.0
H899 H 0.61057 0.0415 0.77488 0.0
H900 H 0.59743 0.0898 0.68032 0.0
H901 H 0.61692 0.04683 0.70955 0.0
H902 H 0.67734 0.10394 0.76187 0.0
H903 H 0.65766 0.14736 0.73221 0.0
C904 C 0.69081 0.00961 0.77899 0.0
C905 C 0.66737 0.99501 0.79508 0.0
C906 C 0.68521 0.03556 0.76104 0.0
C907 C 0.65612 0.04687 0.75887 0.0
C908 C 0.6331 0.03289 0.77593 0.0
C909 C 0.63865 0.00736 0.79389 0.0
C910 C 0.61546 0.09305 0.6974 0.0
C911 C 0.62665 0.12157 0.70358 0.0
C912 C 0.62647 0.06857 0.71418 0.0
C913 C 0.64865 0.07223 0.73775 0.0
C914 C 0.66051 0.10066 0.74344 0.0
C915 C 0.64922 0.12535 0.72672 0.0
H916 H 0.09442 0.40689 0.32188 0.0
H917 H 0.14515 0.34197 0.26836 0.0
H918 H 0.04895 0.39046 0.29503 0.0
H919 H 0.09943 0.32554 0.24083 0.0
H920 H 0.00108 0.29159 0.22135 0.0
H921 H 0.04709 0.30191 0.2516 0.0
H922 H 0.03378 0.39612 0.23689 0.0
H923 H 0.98836 0.38609 0.20716 0.0
C924 C 0.09562 0.38864 0.30479 0.0
C925 C 0.12291 0.37508 0.29768 0.0
C926 C 0.06973 0.37944 0.28922 0.0
C927 C 0.07074 0.35679 0.26582 0.0
C928 C 0.09804 0.34282 0.25904 0.0
C929 C 0.12409 0.35224 0.27458 0.0
C930 C 0.00814 0.31445 0.22452 0.0
C931 C 0.99105 0.33803 0.21202 0.0
C932 C 0.03442 0.32031 0.24172 0.0
C933 C 0.04372 0.34981 0.24683 0.0
C934 C 0.02685 0.3732 0.2338 0.0
C935 C 0.00089 0.36739 0.21658 0.0
H936 H 0.37344 0.01028 0.78651 0.0
H937 H 0.27868 0.9969 0.77522 0.0
H938 H 0.38309 0.96638 0.75414 0.0
H939 H 0.28866 0.9522 0.74246 0.0
H940 H 0.39363 0.90969 0.66765 0.0
H941 H 0.37438 0.95401 0.69443 0.0
H942 H 0.31541 0.89936 0.75167 0.0
H943 H 0.3345 0.85471 0.72407 0.0
C944 C 0.3546 0.9979 0.7772 0.0
C945 C 0.32526 0.00714 0.78334 0.0
C946 C 0.36018 0.97284 0.75845 0.0
C947 C 0.33662 0.95621 0.74547 0.0
C948 C 0.30717 0.9648 0.75217 0.0
C949 C 0.30151 0.99029 0.77083 0.0
C950 C 0.37581 0.90727 0.68511 0.0
C951 C 0.36493 0.87904 0.69331 0.0
C952 C 0.36501 0.93254 0.70065 0.0
C953 C 0.34354 0.93001 0.72518 0.0
C954 C 0.33175 0.90186 0.73259 0.0
C955 C 0.3427 0.87643 0.717 0.0
H956 H 0.91027 0.5868 0.32215 0.0
H957 H 0.8595 0.65019 0.2665 0.0
H958 H 0.95581 0.6028 0.29504 0.0
H959 H 0.90526 0.66624 0.23885 0.0
H960 H 0.00249 0.70185 0.21987 0.0
H961 H 0.95665 0.69089 0.25008 0.0
H962 H 0.97243 0.5968 0.23752 0.0
H963 H 0.01775 0.60749 0.2078 0.0
C964 C 0.90907 0.60458 0.30447 0.0
C965 C 0.88176 0.61793 0.29692 0.0
C966 C 0.93499 0.61353 0.28876 0.0
C967 C 0.93401 0.63577 0.26488 0.0
C968 C 0.90664 0.64933 0.25747 0.0
C969 C 0.88056 0.64012 0.27308 0.0
C970 C 0.99605 0.67887 0.22356 0.0
C971 C 0.01375 0.65554 0.21154 0.0
C972 C 0.96985 0.67264 0.24071 0.0
C973 C 0.96121 0.64301 0.2463 0.0
C974 C 0.97881 0.61983 0.234 0.0
C975 C 0.0047 0.62601 0.21679 0.0
H976 H 0.70538 0.99483 0.22049 0.0
H977 H 0.61257 0.01247 0.20046 0.0
H978 H 0.69117 0.94926 0.24947 0.0
H979 H 0.59866 0.96732 0.22888 0.0
H980 H 0.58111 0.90542 0.3124 0.0
H981 H 0.59963 0.95046 0.28624 0.0
H982 H 0.66676 0.89865 0.23687 0.0
H983 H 0.64818 0.85343 0.26364 0.0
C984 C 0.68206 0.98894 0.22214 0.0
C985 C 0.66009 0.00727 0.20831 0.0
C986 C 0.67397 0.96288 0.23858 0.0
C987 C 0.64382 0.95497 0.2416 0.0
C988 C 0.62203 0.97314 0.22739 0.0
C989 C 0.63005 -0.00107 0.21093 0.0
C990 C 0.60019 0.90385 0.29643 0.0
C991 C 0.61389 0.87637 0.29062 0.0
C992 C 0.61059 0.92948 0.28123 0.0
C993 C 0.63463 0.92801 0.25955 0.0
C994 C 0.64845 0.90043 0.25381 0.0
C995 C 0.63782 0.87466 0.26891 0.0
H996 H 0.90258 0.40433 0.67902 0.0
H997 H 0.84787 0.3429 0.73279 0.0
H998 H 0.9468 0.38559 0.7064 0.0
H999 H 0.89246 0.32428 0.76103 0.0
H1000 H 0.99105 0.28871 0.78404 0.0
H1001 H 0.94593 0.29871 0.75193 0.0
H1002 H 0.95854 0.39302 0.76627 0.0
H1003 H 0.00288 0.38336 0.79791 0.0
C1004 C 0.90022 0.38618 0.6961 0.0
C1005 C 0.8721 0.37446 0.70331 0.0
C1006 C 0.92543 0.37567 0.71198 0.0
C1007 C 0.92296 0.35362 0.73591 0.0
C1008 C 0.89493 0.34109 0.74244 0.0
C1009 C 0.86953 0.35177 0.72649 0.0
C1010 C 0.98398 0.31151 0.78042 0.0
C1011 C 0.00062 0.33524 0.79333 0.0
C1012 C 0.95824 0.31718 0.76214 0.0
C1013 C 0.94911 0.34663 0.7563 0.0
C1014 C 0.96541 0.37013 0.76989 0.0
C1015 C 0.99075 0.36453 0.7882 0.0
H1016 H 0.35685 0.14436 0.25738 0.0
H1017 H 0.42362 0.09018 0.3038 0.0
H1018 H 0.33868 0.10047 0.22774 0.0
H1019 H 0.40573 0.04653 0.27447 0.0
H1020 H 0.29889 0.0037 0.21193 0.0
H1021 H 0.31399 0.04922 0.24043 0.0
H1022 H 0.40572 0.03173 0.21568 0.0
H1023 H 0.39093 0.98664 0.18757 0.0
C1024 C 0.36737 0.12297 0.26134 0.0
C1025 C 0.39093 0.12017 0.2834 0.0
C1026 C 0.357 0.09797 0.24457 0.0
C1027 C 0.37077 0.07016 0.24895 0.0
C1028 C 0.39479 0.06772 0.27055 0.0
C1029 C 0.40484 0.09254 0.28752 0.0
C1030 C 0.32222 0.00976 0.21244 0.0
C1031 C 0.34373 0.99153 0.19766 0.0
C1032 C 0.33081 0.03579 0.22861 0.0
C1033 C 0.36102 0.04378 0.23039 0.0
C1034 C 0.38233 0.02585 0.21504 0.0
C1035 C 0.37379 9e-05 0.19881 0.0
H1036 H 0.08807 0.5858 0.68065 0.0
H1037 H 0.14253 0.64954 0.73141 0.0
H1038 H 0.04385 0.60477 0.70812 0.0
H1039 H 0.09814 0.66853 0.75948 0.0
H1040 H 0.00272 0.70735 0.78183 0.0
H1041 H 0.04688 0.69429 0.74961 0.0
H1042 H 0.02955 0.60109 0.76667 0.0
H1043 H 0.98599 0.61382 0.79838 0.0
C1044 C 0.09036 0.60434 0.69724 0.0
C1045 C 0.11834 0.61686 0.70339 0.0
C1046 C 0.06519 0.615 0.71316 0.0
C1047 C 0.06762 0.63811 0.73591 0.0
C1048 C 0.09563 0.65097 0.74173 0.0
C1049 C 0.12094 0.64008 0.72589 0.0
C1050 C 0.00847 0.68412 0.77867 0.0
C1051 C 0.99086 0.66163 0.79258 0.0
C1052 C 0.03369 0.67669 0.76035 0.0
C1053 C 0.04138 0.64669 0.75544 0.0
C1054 C 0.02386 0.62437 0.7696 0.0
C1055 C -0.00101 0.63173 0.78798 0.0
H1056 H 0.20515 0.50798 0.59533 0.0
H1057 H 0.16543 0.57455 0.53318 0.0
H1058 H 0.21148 0.47518 0.54884 0.0
H1059 H 0.17168 0.54157 0.48687 0.0
H1060 H 0.20695 0.48342 0.40575 0.0
H1061 H 0.21035 0.51673 0.45228 0.0
H1062 H 0.17531 0.44754 0.51398 0.0
H1063 H 0.172 0.41415 0.46773 0.0
C1064 C 0.19807 0.5158 0.57174 0.0
C1065 C 0.1846 0.54388 0.56805 0.0
C1066 C 0.2016 0.49691 0.54517 0.0
C1067 C 0.19199 0.50579 0.51429 0.0
C1068 C 0.17956 0.53425 0.51034 0.0
C1069 C 0.1758 0.55305 0.53694 0.0
C1070 C 0.20041 0.47512 0.42932 0.0
C1071 C 0.18904 0.44614 0.43297 0.0
C1072 C 0.20219 0.49429 0.45589 0.0
C1073 C 0.19297 0.48476 0.48669 0.0
C1074 C 0.18282 0.45541 0.49059 0.0
C1075 C 0.18077 0.43635 0.46402 0.0
H1076 H 0.57672 0.80197 0.45764 0.0
H1077 H 0.49947 0.81729 0.39799 0.0
H1078 H 0.54501 0.79744 0.5052 0.0
H1079 H 0.46776 0.81559 0.44553 0.0
H1080 H 0.41224 0.79899 0.53285 0.0
H1081 H 0.44432 0.79128 0.48608 0.0
H1082 H 0.51912 0.82545 0.54089 0.0
H1083 H 0.48732 0.83039 0.58812 0.0
C1084 C 0.55285 0.80435 0.45486 0.0
C1085 C 0.54042 0.80988 0.42435 0.0
C1086 C 0.53461 0.80215 0.48214 0.0
C1087 C 0.50362 0.80659 0.47966 0.0
C1088 C 0.4913 0.81143 0.4487 0.0
C1089 C 0.50948 0.81262 0.42132 0.0
C1090 C 0.43568 0.80441 0.53477 0.0
C1091 C 0.44743 0.81526 0.56388 0.0
C1092 C 0.4541 0.80029 0.5079 0.0
C1093 C 0.48451 0.80798 0.50923 0.0
C1094 C 0.49613 0.81857 0.53878 0.0
C1095 C 0.47787 0.82171 0.56591 0.0
H1096 H 0.7895 0.51875 0.41074 0.0
H1097 H 0.83549 0.58461 0.46847 0.0
H1098 H 0.78458 0.48708 0.45829 0.0
H1099 H 0.8307 0.5527 0.51585 0.0
H1100 H 0.79869 0.49561 0.60034 0.0
H1101 H 0.79436 0.52929 0.55414 0.0
H1102 H 0.82191 0.45851 0.4901 0.0
H1103 H 0.82607 0.42484 0.53593 0.0
C1104 C 0.79823 0.5267 0.4336 0.0
C1105 C 0.81314 0.55417 0.43566 0.0
C1106 C 0.79552 0.50845 0.46079 0.0
C1107 C 0.80747 0.51732 0.49069 0.0
C1108 C 0.82109 0.54536 0.49317 0.0
C1109 C 0.82397 0.56357 0.46593 0.0
C1110 C 0.80352 0.48714 0.57637 0.0
C1111 C 0.81286 0.45753 0.57188 0.0
C1112 C 0.80117 0.50649 0.54997 0.0
C1113 C 0.80777 0.49652 0.51854 0.0
C1114 C 0.81631 0.46674 0.51398 0.0
C1115 C 0.81892 0.4475 0.54033 0.0
H1116 H 0.42466 0.15713 0.45856 0.0
H1117 H 0.49291 0.20162 0.40276 0.0
H1118 H 0.45588 0.16038 0.50663 0.0
H1119 H 0.52399 0.20493 0.45104 0.0
H1120 H 0.58287 0.16307 0.53213 0.0
H1121 H 0.55093 0.167 0.48468 0.0
H1122 H 0.47849 0.19731 0.54495 0.0
H1123 H 0.5103 0.19329 0.59261 0.0
C1124 C 0.44615 0.1679 0.45658 0.0
C1125 C 0.45631 0.17898 0.42672 0.0
C1126 C 0.46396 0.1699 0.4842 0.0
C1127 C 0.49239 0.1828 0.48252 0.0
C1128 C 0.50226 0.19461 0.45293 0.0
C1129 C 0.48436 0.19286 0.42535 0.0
C1130 C 0.5602 0.17077 0.53531 0.0
C1131 C 0.54914 0.17774 0.56624 0.0
C1132 C 0.54198 0.17321 0.50807 0.0
C1133 C 0.51223 0.18244 0.51115 0.0
C1134 C 0.50128 0.18991 0.54193 0.0
C1135 C 0.51957 0.18773 0.56918 0.0
H1136 H 0.69041 0.01128 0.09672 0.0
H1137 H 0.66156 0.08134 0.03206 0.0
H1138 H 0.69188 0.97662 0.05137 0.0
H1139 H 0.66276 0.04652 0.98697 0.0
H1140 H 0.69576 0.98376 0.90854 0.0
H1141 H 0.69871 0.01756 0.95445 0.0
H1142 H 0.65554 0.95213 0.01493 0.0
H1143 H 0.6528 0.91804 0.96919 0.0
C1144 C 0.68448 0.01936 0.07288 0.0
C1145 C 0.67585 0.04915 0.06809 0.0
C1146 C 0.68517 -0.00058 0.04694 0.0
C1147 C 0.67744 0.00885 0.01564 0.0
C1148 C 0.66919 0.03868 0.01076 0.0
C1149 C 0.66834 0.05859 0.03668 0.0
C1150 C 0.68708 0.9764 0.93165 0.0
C1151 C 0.67395 0.94814 0.93507 0.0
C1152 C 0.68863 0.99589 0.95791 0.0
C1153 C 0.67723 0.98755 0.98823 0.0
C1154 C 0.66476 0.95907 0.99192 0.0
C1155 C 0.66308 0.9396 0.96563 0.0
H1156 H 0.00727 0.31145 0.90892 0.0
H1157 H 0.07653 0.34759 0.97015 0.0
H1158 H 0.97364 0.30986 0.95517 0.0
H1159 H 0.04271 0.34625 0.01615 0.0
H1160 H 0.98324 0.31229 0.09761 0.0
H1161 H 0.01667 0.31015 0.05128 0.0
H1162 H 0.94753 0.34627 0.99015 0.0
H1163 H 0.91385 0.34816 0.03631 0.0
C1164 C 0.0154 0.31896 0.93221 0.0
C1165 C 0.04466 0.32967 0.93575 0.0
C1166 C 0.99604 0.3182 0.95865 0.0
C1167 C 0.00553 0.32798 0.98925 0.0
C1168 C 0.03487 0.33826 0.99293 0.0
C1169 C 0.05419 0.33916 0.96649 0.0
C1170 C 0.97504 0.31965 0.07429 0.0
C1171 C 0.9458 0.33045 0.07076 0.0
C1172 C 0.99429 0.31855 0.04779 0.0
C1173 C 0.98474 0.3281 0.01713 0.0
C1174 C 0.95542 0.33846 0.01343 0.0
C1175 C 0.93618 0.33969 0.03996 0.0
H1176 H 0.33652 0.07891 0.9619 0.0
H1177 H 0.30005 0.01115 0.89898 0.0
H1178 H 0.33578 0.04404 0.00682 0.0
H1179 H 0.29899 0.97634 0.94434 0.0
H1180 H 0.3393 0.9151 0.02373 0.0
H1181 H 0.33568 0.94942 0.97822 0.0
H1182 H 0.30072 0.01724 0.04181 0.0
H1183 H 0.30464 0.98323 0.08743 0.0
C1184 C 0.32809 0.05667 0.95764 0.0
C1185 C 0.31839 0.04788 0.92672 0.0
C1186 C 0.32752 0.03672 0.98351 0.0
C1187 C 0.31732 0.00745 0.97912 0.0
C1188 C 0.30725 -0.00131 0.94836 0.0
C1189 C 0.30769 0.01871 0.92245 0.0
C1190 C 0.33069 0.93727 0.02804 0.0
C1191 C 0.32241 0.94639 0.05935 0.0
C1192 C 0.32846 0.95687 0.00189 0.0
C1193 C 0.31799 0.98605 0.00646 0.0
C1194 C 0.30922 0.99501 0.0376 0.0
C1195 C 0.31137 0.97542 0.06373 0.0
H1196 H 0.99231 0.66376 0.90718 0.0
H1197 H 0.92207 0.69038 0.97221 0.0
H1198 H 0.02724 0.66225 0.95213 0.0
H1199 H 0.95727 0.69133 0.01697 0.0
H1200 H 0.01647 0.65699 0.09689 0.0
H1201 H 0.98249 0.66088 0.05142 0.0
H1202 H 0.05595 0.6864 0.98946 0.0
H1203 H 0.09011 0.6801 0.03478 0.0
C1204 C 0.98458 0.67 0.93108 0.0
C1205 C 0.95455 0.67703 0.93637 0.0
C1206 C 0.00464 0.66932 0.95693 0.0
C1207 C 0.99525 0.67646 0.98853 0.0
C1208 C 0.96531 0.68479 0.99332 0.0
C1209 C 0.94511 0.68459 0.96763 0.0
C1210 C 0.02525 0.66343 0.07348 0.0
C1211 C 0.05586 0.66818 0.06925 0.0
C1212 C 0.00573 0.66597 0.04736 0.0
C1213 C 0.01622 0.67418 0.01649 0.0
C1214 C 0.04695 0.67944 0.01254 0.0
C1215 C 0.06659 0.67605 0.03855 0.0
loop_
_geom_bond_atom_site_label_1
_geom_bond_atom_site_label_2
_geom_bond_distance
_geom_bond_site_symmetry_2
_ccdc_geom_bond_type
Mn0 O5 2.095 . S
Mn0 O15 2.162 . S
Mn0 O16 2.297 . S
Mn0 O24 2.385 . S
Mn0 O25 2.209 . S
Mn0 O26 2.094 . S
Mn1 O6 2.121 . S
Mn1 N8 2.257 . S
Mn1 N17 2.282 . S
Mn1 O25 2.215 . S
Mn1 O27 2.117 . S
C2 O24 1.234 . S
C2 O25 1.283 . S
C3 O15 1.281 . S
C3 O16 1.236 . S
C4 O26 1.240 . S
C4 O27 1.264 . S
O5 Mn0 2.095 . S
O5 C14 1.250 . S
O6 Mn1 2.121 . S
O6 C14 1.258 . S
C7 N8 1.326 . S
C7 C11 1.460 . S
C7 H13 0.929 . S
N8 Mn1 2.257 . S
N8 C7 1.326 . S
N8 C12 1.362 . S
C9 C10 1.258 . S
C9 C12 1.431 . S
C9 C29 1.449 . S
C10 C9 1.258 . S
C10 C11 1.477 . S
C10 H30 0.931 . S
C11 C7 1.460 . S
C11 C10 1.477 . S
C11 H31 0.930 . S
C12 N8 1.362 . S
C12 C9 1.431 . S
C12 C22 1.476 . S
H13 C7 0.929 . S
C14 O5 1.250 . S
C14 O6 1.258 . S
O15 Mn0 2.162 . S
O15 C3 1.281 . S
O16 Mn0 2.297 . S
O16 C3 1.236 . S
N17 Mn1 2.282 . S
N17 C18 1.328 . S
N17 C22 1.318 . S
C18 N17 1.328 . S
C18 C19 1.457 . S
C18 H23 0.929 . S
C19 C18 1.457 . S
C19 C20 1.291 . S
C19 H32 0.931 . S
C20 C19 1.291 . S
C20 C21 1.373 . S
C20 H33 0.929 . S
C21 C20 1.373 . S
C21 C22 1.396 . S
C21 C28 1.403 . S
C22 C12 1.476 . S
C22 N17 1.318 . S
C22 C21 1.396 . S
H23 C18 0.929 . S
O24 Mn0 2.385 . S
O24 C2 1.234 . S
O25 Mn0 2.209 . S
O25 Mn1 2.215 . S
O25 C2 1.283 . S
O26 Mn0 2.094 . S
O26 C4 1.240 . S
O27 Mn1 2.117 . S
O27 C4 1.264 . S
C28 C21 1.403 . S
C28 C29 1.399 . S
C28 H34 0.929 . S
C29 C9 1.449 . S
C29 C28 1.399 . S
C29 H35 0.930 . S
H30 C10 0.931 . S
H31 C11 0.930 . S
H32 C19 0.931 . S
H33 C20 0.929 . S
H34 C28 0.929 . S
H35 C29 0.930 . S
Mn36 O41 2.095 . S
Mn36 O51 2.162 . S
Mn36 O52 2.297 . S
Mn36 O60 2.385 . S
Mn36 O61 2.209 . S
Mn36 O62 2.094 . S
Mn37 O42 2.121 . S
Mn37 N44 2.257 . S
Mn37 N53 2.282 . S
Mn37 O61 2.215 . S
Mn37 O63 2.117 . S
C38 O60 1.234 . S
C38 O61 1.283 . S
C39 O51 1.281 . S
C39 O52 1.236 . S
C40 O62 1.240 . S
C40 O63 1.264 . S
O41 Mn36 2.095 . S
O41 C50 1.250 . S
O42 Mn37 2.121 . S
O42 C50 1.258 . S
C43 N44 1.326 . S
C43 C47 1.460 . S
C43 H49 0.929 . S
N44 Mn37 2.257 . S
N44 C43 1.326 . S
N44 C48 1.362 . S
C45 C46 1.258 . S
C45 C48 1.431 . S
C45 C65 1.449 . S
C46 C45 1.258 . S
C46 C47 1.477 . S
C46 H66 0.931 . S
C47 C43 1.460 . S
C47 C46 1.477 . S
C47 H67 0.930 . S
C48 N44 1.362 . S
C48 C45 1.431 . S
C48 C58 1.476 . S
H49 C43 0.929 . S
C50 O41 1.250 . S
C50 O42 1.258 . S
O51 Mn36 2.162 . S
O51 C39 1.281 . S
O52 Mn36 2.297 . S
O52 C39 1.236 . S
N53 Mn37 2.282 . S
N53 C54 1.328 . S
N53 C58 1.318 . S
C54 N53 1.328 . S
C54 C55 1.457 . S
C54 H59 0.929 . S
C55 C54 1.457 . S
C55 C56 1.291 . S
C55 H68 0.931 . S
C56 C55 1.291 . S
C56 C57 1.373 . S
C56 H69 0.929 . S
C57 C56 1.373 . S
C57 C58 1.396 . S
C57 C64 1.403 . S
C58 C48 1.476 . S
C58 N53 1.318 . S
C58 C57 1.396 . S
H59 C54 0.929 . S
O60 Mn36 2.385 . S
O60 C38 1.234 . S
O61 Mn36 2.209 . S
O61 Mn37 2.215 . S
O61 C38 1.283 . S
O62 Mn36 2.094 . S
O62 C40 1.240 . S
O63 Mn37 2.117 . S
O63 C40 1.264 . S
C64 C57 1.403 . S
C64 C65 1.399 . S
C64 H70 0.929 . S
C65 C45 1.449 . S
C65 C64 1.399 . S
C65 H71 0.930 . S
H66 C46 0.931 . S
H67 C47 0.930 . S
H68 C55 0.931 . S
H69 C56 0.929 . S
H70 C64 0.929 . S
H71 C65 0.930 . S
Mn72 O77 2.095 . S
Mn72 O87 2.162 . S
Mn72 O88 2.297 . S
Mn72 O96 2.385 . S
Mn72 O97 2.209 . S
Mn72 O98 2.094 . S
Mn73 O78 2.121 . S
Mn73 N80 2.257 . S
Mn73 N89 2.282 . S
Mn73 O97 2.215 . S
Mn73 O99 2.117 . S
C74 O96 1.234 . S
C74 O97 1.283 . S
C75 O87 1.281 . S
C75 O88 1.236 . S
C76 O98 1.240 . S
C76 O99 1.264 . S
O77 Mn72 2.095 . S
O77 C86 1.250 . S
O78 Mn73 2.121 . S
O78 C86 1.258 . S
C79 N80 1.326 . S
C79 C83 1.460 . S
C79 H85 0.929 . S
N80 Mn73 2.257 . S
N80 C79 1.326 . S
N80 C84 1.362 . S
C81 C82 1.258 . S
C81 C84 1.431 . S
C81 C101 1.449 . S
C82 C81 1.258 . S
C82 C83 1.477 . S
C82 H102 0.931 . S
C83 C79 1.460 . S
C83 C82 1.477 . S
C83 H103 0.930 . S
C84 N80 1.362 . S
C84 C81 1.431 . S
C84 C94 1.476 . S
H85 C79 0.929 . S
C86 O77 1.250 . S
C86 O78 1.258 . S
O87 Mn72 2.162 . S
O87 C75 1.281 . S
O88 Mn72 2.297 . S
O88 C75 1.236 . S
N89 Mn73 2.282 . S
N89 C90 1.328 . S
N89 C94 1.318 . S
C90 N89 1.328 . S
C90 C91 1.457 . S
C90 H95 0.929 . S
C91 C90 1.457 . S
C91 C92 1.291 . S
C91 H104 0.931 . S
C92 C91 1.291 . S
C92 C93 1.373 . S
C92 H105 0.929 . S
C93 C92 1.373 . S
C93 C94 1.396 . S
C93 C100 1.403 . S
C94 C84 1.476 . S
C94 N89 1.318 . S
C94 C93 1.396 . S
H95 C90 0.929 . S
O96 Mn72 2.385 . S
O96 C74 1.234 . S
O97 Mn72 2.209 . S
O97 Mn73 2.215 . S
O97 C74 1.283 . S
O98 Mn72 2.094 . S
O98 C76 1.240 . S
O99 Mn73 2.117 . S
O99 C76 1.264 . S
C100 C93 1.403 . S
C100 C101 1.399 . S
C100 H106 0.929 . S
C101 C81 1.449 . S
C101 C100 1.399 . S
C101 H107 0.930 . S
H102 C82 0.931 . S
H103 C83 0.930 . S
H104 C91 0.931 . S
H105 C92 0.929 . S
H106 C100 0.929 . S
H107 C101 0.930 . S
Mn108 O113 2.095 . S
Mn108 O123 2.162 . S
Mn108 O124 2.297 . S
Mn108 O132 2.385 . S
Mn108 O133 2.209 . S
Mn108 O134 2.094 . S
Mn109 O114 2.121 . S
Mn109 N116 2.257 . S
Mn109 N125 2.282 . S
Mn109 O133 2.215 . S
Mn109 O135 2.117 . S
C110 O132 1.234 . S
C110 O133 1.283 . S
C111 O123 1.281 . S
C111 O124 1.236 . S
C112 O134 1.240 . S
C112 O135 1.264 . S
O113 Mn108 2.095 . S
O113 C122 1.250 . S
O114 Mn109 2.121 . S
O114 C122 1.258 . S
C115 N116 1.326 . S
C115 C119 1.460 . S
C115 H121 0.929 . S
N116 Mn109 2.257 . S
N116 C115 1.326 . S
N116 C120 1.362 . S
C117 C118 1.258 . S
C117 C120 1.431 . S
C117 C137 1.449 . S
C118 C117 1.258 . S
C118 C119 1.477 . S
C118 H138 0.931 . S
C119 C115 1.460 . S
C119 C118 1.477 . S
C119 H139 0.930 . S
C120 N116 1.362 . S
C120 C117 1.431 . S
C120 C130 1.476 . S
H121 C115 0.929 . S
C122 O113 1.250 . S
C122 O114 1.258 . S
O123 Mn108 2.162 . S
O123 C111 1.281 . S
O124 Mn108 2.297 . S
O124 C111 1.236 . S
N125 Mn109 2.282 . S
N125 C126 1.328 . S
N125 C130 1.318 . S
C126 N125 1.328 . S
C126 C127 1.457 . S
C126 H131 0.929 . S
C127 C126 1.457 . S
C127 C128 1.291 . S
C127 H140 0.931 . S
C128 C127 1.291 . S
C128 C129 1.373 . S
C128 H141 0.929 . S
C129 C128 1.373 . S
C129 C130 1.396 . S
C129 C136 1.403 . S
C130 C120 1.476 . S
C130 N125 1.318 . S
C130 C129 1.396 . S
H131 C126 0.929 . S
O132 Mn108 2.385 . S
O132 C110 1.234 . S
O133 Mn108 2.209 . S
O133 Mn109 2.215 . S
O133 C110 1.283 . S
O134 Mn108 2.094 . S
O134 C112 1.240 . S
O135 Mn109 2.117 . S
O135 C112 1.264 . S
C136 C129 1.403 . S
C136 C137 1.399 . S
C136 H142 0.929 . S
C137 C117 1.449 . S
C137 C136 1.399 . S
C137 H143 0.930 . S
H138 C118 0.931 . S
H139 C119 0.930 . S
H140 C127 0.931 . S
H141 C128 0.929 . S
H142 C136 0.929 . S
H143 C137 0.930 . S
Mn144 O149 2.095 . S
Mn144 O159 2.162 . S
Mn144 O160 2.297 . S
Mn144 O168 2.385 . S
Mn144 O169 2.209 . S
Mn144 O170 2.094 . S
Mn145 O150 2.121 . S
Mn145 N152 2.257 . S
Mn145 N161 2.282 . S
Mn145 O169 2.215 . S
Mn145 O171 2.117 . S
C146 O168 1.234 . S
C146 O169 1.283 . S
C147 O159 1.281 . S
C147 O160 1.236 . S
C148 O170 1.240 . S
C148 O171 1.264 . S
O149 Mn144 2.095 . S
O149 C158 1.250 . S
O150 Mn145 2.121 . S
O150 C158 1.258 . S
C151 N152 1.326 . S
C151 C155 1.460 . S
C151 H157 0.929 . S
N152 Mn145 2.257 . S
N152 C151 1.326 . S
N152 C156 1.362 . S
C153 C154 1.258 . S
C153 C156 1.431 . S
C153 C173 1.449 . S
C154 C153 1.258 . S
C154 C155 1.477 . S
C154 H174 0.931 . S
C155 C151 1.460 . S
C155 C154 1.477 . S
C155 H175 0.930 . S
C156 N152 1.362 . S
C156 C153 1.431 . S
C156 C166 1.476 . S
H157 C151 0.929 . S
C158 O149 1.250 . S
C158 O150 1.258 . S
O159 Mn144 2.162 . S
O159 C147 1.281 . S
O160 Mn144 2.297 . S
O160 C147 1.236 . S
N161 Mn145 2.282 . S
N161 C162 1.328 . S
N161 C166 1.318 . S
C162 N161 1.328 . S
C162 C163 1.457 . S
C162 H167 0.929 . S
C163 C162 1.457 . S
C163 C164 1.291 . S
C163 H176 0.931 . S
C164 C163 1.291 . S
C164 C165 1.373 . S
C164 H177 0.929 . S
C165 C164 1.373 . S
C165 C166 1.396 . S
C165 C172 1.403 . S
C166 C156 1.476 . S
C166 N161 1.318 . S
C166 C165 1.396 . S
H167 C162 0.929 . S
O168 Mn144 2.385 . S
O168 C146 1.234 . S
O169 Mn144 2.209 . S
O169 Mn145 2.215 . S
O169 C146 1.283 . S
O170 Mn144 2.094 . S
O170 C148 1.240 . S
O171 Mn145 2.117 . S
O171 C148 1.264 . S
C172 C165 1.403 . S
C172 C173 1.399 . S
C172 H178 0.929 . S
C173 C153 1.449 . S
C173 C172 1.399 . S
C173 H179 0.930 . S
H174 C154 0.931 . S
H175 C155 0.930 . S
H176 C163 0.931 . S
H177 C164 0.929 . S
H178 C172 0.929 . S
H179 C173 0.930 . S
Mn180 O185 2.095 . S
Mn180 O195 2.162 . S
Mn180 O196 2.297 . S
Mn180 O204 2.385 . S
Mn180 O205 2.209 . S
Mn180 O206 2.094 . S
Mn181 O186 2.121 . S
Mn181 N188 2.257 . S
Mn181 N197 2.282 . S
Mn181 O205 2.215 . S
Mn181 O207 2.117 . S
C182 O204 1.234 . S
C182 O205 1.283 . S
C183 O195 1.281 . S
C183 O196 1.236 . S
C184 O206 1.240 . S
C184 O207 1.264 . S
O185 Mn180 2.095 . S
O185 C194 1.250 . S
O186 Mn181 2.121 . S
O186 C194 1.258 . S
C187 N188 1.326 . S
C187 C191 1.460 . S
C187 H193 0.929 . S
N188 Mn181 2.257 . S
N188 C187 1.326 . S
N188 C192 1.362 . S
C189 C190 1.258 . S
C189 C192 1.431 . S
C189 C209 1.449 . S
C190 C189 1.258 . S
C190 C191 1.477 . S
C190 H210 0.931 . S
C191 C187 1.460 . S
C191 C190 1.477 . S
C191 H211 0.930 . S
C192 N188 1.362 . S
C192 C189 1.431 . S
C192 C202 1.476 . S
H193 C187 0.929 . S
C194 O185 1.250 . S
C194 O186 1.258 . S
O195 Mn180 2.162 . S
O195 C183 1.281 . S
O196 Mn180 2.297 . S
O196 C183 1.236 . S
N197 Mn181 2.282 . S
N197 C198 1.328 . S
N197 C202 1.318 . S
C198 N197 1.328 . S
C198 C199 1.457 . S
C198 H203 0.929 . S
C199 C198 1.457 . S
C199 C200 1.291 . S
C199 H212 0.931 . S
C200 C199 1.291 . S
C200 C201 1.373 . S
C200 H213 0.929 . S
C201 C200 1.373 . S
C201 C202 1.396 . S
C201 C208 1.403 . S
C202 C192 1.476 . S
C202 N197 1.318 . S
C202 C201 1.396 . S
H203 C198 0.929 . S
O204 Mn180 2.385 . S
O204 C182 1.234 . S
O205 Mn180 2.209 . S
O205 Mn181 2.215 . S
O205 C182 1.283 . S
O206 Mn180 2.094 . S
O206 C184 1.240 . S
O207 Mn181 2.117 . S
O207 C184 1.264 . S
C208 C201 1.403 . S
C208 C209 1.399 . S
C208 H214 0.929 . S
C209 C189 1.449 . S
C209 C208 1.399 . S
C209 H215 0.930 . S
H210 C190 0.931 . S
H211 C191 0.930 . S
H212 C199 0.931 . S
H213 C200 0.929 . S
H214 C208 0.929 . S
H215 C209 0.930 . S
Mn216 O221 2.095 . S
Mn216 O231 2.162 . S
Mn216 O232 2.297 . S
Mn216 O240 2.385 . S
Mn216 O241 2.209 . S
Mn216 O242 2.094 . S
Mn217 O222 2.121 . S
Mn217 N224 2.257 . S
Mn217 N233 2.282 . S
Mn217 O241 2.215 . S
Mn217 O243 2.117 . S
C218 O240 1.234 . S
C218 O241 1.283 . S
C219 O231 1.281 . S
C219 O232 1.236 . S
C220 O242 1.240 . S
C220 O243 1.264 . S
O221 Mn216 2.095 . S
O221 C230 1.250 . S
O222 Mn217 2.121 . S
O222 C230 1.258 . S
C223 N224 1.326 . S
C223 C227 1.460 . S
C223 H229 0.929 . S
N224 Mn217 2.257 . S
N224 C223 1.326 . S
N224 C228 1.362 . S
C225 C226 1.258 . S
C225 C228 1.431 . S
C225 C245 1.449 . S
C226 C225 1.258 . S
C226 C227 1.477 . S
C226 H246 0.931 . S
C227 C223 1.460 . S
C227 C226 1.477 . S
C227 H247 0.930 . S
C228 N224 1.362 . S
C228 C225 1.431 . S
C228 C238 1.476 . S
H229 C223 0.929 . S
C230 O221 1.250 . S
C230 O222 1.258 . S
O231 Mn216 2.162 . S
O231 C219 1.281 . S
O232 Mn216 2.297 . S
O232 C219 1.236 . S
N233 Mn217 2.282 . S
N233 C234 1.328 . S
N233 C238 1.318 . S
C234 N233 1.328 . S
C234 C235 1.457 . S
C234 H239 0.929 . S
C235 C234 1.457 . S
C235 C236 1.291 . S
C235 H248 0.931 . S
C236 C235 1.291 . S
C236 C237 1.373 . S
C236 H249 0.929 . S
C237 C236 1.373 . S
C237 C238 1.396 . S
C237 C244 1.403 . S
C238 C228 1.476 . S
C238 N233 1.318 . S
C238 C237 1.396 . S
H239 C234 0.929 . S
O240 Mn216 2.385 . S
O240 C218 1.234 . S
O241 Mn216 2.209 . S
O241 Mn217 2.215 . S
O241 C218 1.283 . S
O242 Mn216 2.094 . S
O242 C220 1.240 . S
O243 Mn217 2.117 . S
O243 C220 1.264 . S
C244 C237 1.403 . S
C244 C245 1.399 . S
C244 H250 0.929 . S
C245 C225 1.449 . S
C245 C244 1.399 . S
C245 H251 0.930 . S
H246 C226 0.931 . S
H247 C227 0.930 . S
H248 C235 0.931 . S
H249 C236 0.929 . S
H250 C244 0.929 . S
H251 C245 0.930 . S
Mn252 O257 2.095 . S
Mn252 O267 2.162 . S
Mn252 O268 2.297 . S
Mn252 O276 2.385 . S
Mn252 O277 2.209 . S
Mn252 O278 2.094 . S
Mn253 O258 2.121 . S
Mn253 N260 2.257 . S
Mn253 N269 2.282 . S
Mn253 O277 2.215 . S
Mn253 O279 2.117 . S
C254 O276 1.234 . S
C254 O277 1.283 . S
C255 O267 1.281 . S
C255 O268 1.236 . S
C256 O278 1.240 . S
C256 O279 1.264 . S
O257 Mn252 2.095 . S
O257 C266 1.250 . S
O258 Mn253 2.121 . S
O258 C266 1.258 . S
C259 N260 1.326 . S
C259 C263 1.460 . S
C259 H265 0.929 . S
N260 Mn253 2.257 . S
N260 C259 1.326 . S
N260 C264 1.362 . S
C261 C262 1.258 . S
C261 C264 1.431 . S
C261 C281 1.449 . S
C262 C261 1.258 . S
C262 C263 1.477 . S
C262 H282 0.931 . S
C263 C259 1.460 . S
C263 C262 1.477 . S
C263 H283 0.930 . S
C264 N260 1.362 . S
C264 C261 1.431 . S
C264 C274 1.476 . S
H265 C259 0.929 . S
C266 O257 1.250 . S
C266 O258 1.258 . S
O267 Mn252 2.162 . S
O267 C255 1.281 . S
O268 Mn252 2.297 . S
O268 C255 1.236 . S
N269 Mn253 2.282 . S
N269 C270 1.328 . S
N269 C274 1.318 . S
C270 N269 1.328 . S
C270 C271 1.457 . S
C270 H275 0.929 . S
C271 C270 1.457 . S
C271 C272 1.291 . S
C271 H284 0.931 . S
C272 C271 1.291 . S
C272 C273 1.373 . S
C272 H285 0.929 . S
C273 C272 1.373 . S
C273 C274 1.396 . S
C273 C280 1.403 . S
C274 C264 1.476 . S
C274 N269 1.318 . S
C274 C273 1.396 . S
H275 C270 0.929 . S
O276 Mn252 2.385 . S
O276 C254 1.234 . S
O277 Mn252 2.209 . S
O277 Mn253 2.215 . S
O277 C254 1.283 . S
O278 Mn252 2.094 . S
O278 C256 1.240 . S
O279 Mn253 2.117 . S
O279 C256 1.264 . S
C280 C273 1.403 . S
C280 C281 1.399 . S
C280 H286 0.929 . S
C281 C261 1.449 . S
C281 C280 1.399 . S
C281 H287 0.930 . S
H282 C262 0.931 . S
H283 C263 0.930 . S
H284 C271 0.931 . S
H285 C272 0.929 . S
H286 C280 0.929 . S
H287 C281 0.930 . S
Mn288 O293 2.095 . S
Mn288 O303 2.157 1_565 S
Mn288 O304 2.297 . S
Mn288 O312 2.385 . S
Mn288 O313 2.209 . S
Mn288 O314 2.094 . S
Mn289 O294 2.121 . S
Mn289 N296 2.257 . S
Mn289 N305 2.282 . S
Mn289 O313 2.215 . S
Mn289 O315 2.117 . S
C290 O312 1.234 . S
C290 O313 1.283 . S
C291 O303 1.283 . S
C291 O304 1.236 1_545 S
C292 O314 1.240 . S
C292 O315 1.264 . S
O293 Mn288 2.095 . S
O293 C302 1.250 . S
O294 Mn289 2.121 . S
O294 C302 1.258 . S
C295 N296 1.326 . S
C295 C299 1.460 . S
C295 H301 0.929 . S
N296 Mn289 2.257 . S
N296 C295 1.326 . S
N296 C300 1.362 . S
C297 C298 1.258 . S
C297 C300 1.431 . S
C297 C317 1.449 . S
C298 C297 1.258 . S
C298 C299 1.477 . S
C298 H318 0.931 . S
C299 C295 1.460 . S
C299 C298 1.477 . S
C299 H319 0.930 . S
C300 N296 1.362 . S
C300 C297 1.431 . S
C300 C310 1.476 . S
H301 C295 0.929 . S
C302 O293 1.250 . S
C302 O294 1.258 . S
O303 Mn288 2.157 1_545 S
O303 C291 1.283 . S
O304 Mn288 2.297 . S
O304 C291 1.236 1_565 S
N305 Mn289 2.282 . S
N305 C306 1.328 . S
N305 C310 1.318 . S
C306 N305 1.328 . S
C306 C307 1.457 . S
C306 H311 0.929 . S
C307 C306 1.457 . S
C307 C308 1.291 . S
C307 H320 0.931 . S
C308 C307 1.291 . S
C308 C309 1.373 . S
C308 H321 0.929 . S
C309 C308 1.373 . S
C309 C310 1.396 . S
C309 C316 1.403 . S
C310 C300 1.476 . S
C310 N305 1.318 . S
C310 C309 1.396 . S
H311 C306 0.929 . S
O312 Mn288 2.385 . S
O312 C290 1.234 . S
O313 Mn288 2.209 . S
O313 Mn289 2.215 . S
O313 C290 1.283 . S
O314 Mn288 2.094 . S
O314 C292 1.240 . S
O315 Mn289 2.117 . S
O315 C292 1.264 . S
C316 C309 1.403 . S
C316 C317 1.399 . S
C316 H322 0.929 . S
C317 C297 1.449 . S
C317 C316 1.399 . S
C317 H323 0.930 . S
H318 C298 0.931 . S
H319 C299 0.930 . S
H320 C307 0.931 . S
H321 C308 0.929 . S
H322 C316 0.929 . S
H323 C317 0.930 . S
Mn324 O329 2.095 . S
Mn324 O339 2.157 1_655 S
Mn324 O340 2.297 . S
Mn324 O348 2.385 . S
Mn324 O349 2.209 . S
Mn324 O350 2.094 . S
Mn325 O330 2.121 . S
Mn325 N332 2.257 . S
Mn325 N341 2.282 . S
Mn325 O349 2.215 . S
Mn325 O351 2.117 . S
C326 O348 1.234 . S
C326 O349 1.283 . S
C327 O339 1.283 . S
C327 O340 1.236 1_455 S
C328 O350 1.240 . S
C328 O351 1.264 . S
O329 Mn324 2.095 . S
O329 C338 1.250 . S
O330 Mn325 2.121 . S
O330 C338 1.258 . S
C331 N332 1.326 . S
C331 C335 1.460 . S
C331 H337 0.929 . S
N332 Mn325 2.257 . S
N332 C331 1.326 . S
N332 C336 1.362 . S
C333 C334 1.258 . S
C333 C336 1.431 . S
C333 C353 1.449 . S
C334 C333 1.258 . S
C334 C335 1.477 . S
C334 H354 0.931 . S
C335 C331 1.460 . S
C335 C334 1.477 . S
C335 H355 0.930 . S
C336 N332 1.362 . S
C336 C333 1.431 . S
C336 C346 1.476 . S
H337 C331 0.929 . S
C338 O329 1.250 . S
C338 O330 1.258 . S
O339 Mn324 2.157 1_455 S
O339 C327 1.283 . S
O340 Mn324 2.297 . S
O340 C327 1.236 1_655 S
N341 Mn325 2.282 . S
N341 C342 1.328 . S
N341 C346 1.318 . S
C342 N341 1.328 . S
C342 C343 1.457 . S
C342 H347 0.929 . S
C343 C342 1.457 . S
C343 C344 1.291 . S
C343 H356 0.931 . S
C344 C343 1.291 . S
C344 C345 1.373 . S
C344 H357 0.929 . S
C345 C344 1.373 . S
C345 C346 1.396 . S
C345 C352 1.403 . S
C346 C336 1.476 . S
C346 N341 1.318 . S
C346 C345 1.396 . S
H347 C342 0.929 . S
O348 Mn324 2.385 . S
O348 C326 1.234 . S
O349 Mn324 2.209 . S
O349 Mn325 2.215 . S
O349 C326 1.283 . S
O350 Mn324 2.094 . S
O350 C328 1.240 . S
O351 Mn325 2.117 . S
O351 C328 1.264 . S
C352 C345 1.403 . S
C352 C353 1.399 . S
C352 H358 0.929 . S
C353 C333 1.449 . S
C353 C352 1.399 . S
C353 H359 0.930 . S
H354 C334 0.931 . S
H355 C335 0.930 . S
H356 C343 0.931 . S
H357 C344 0.929 . S
H358 C352 0.929 . S
H359 C353 0.930 . S
Mn360 O365 2.095 . S
Mn360 O375 2.157 1_545 S
Mn360 O376 2.297 . S
Mn360 O384 2.385 . S
Mn360 O385 2.209 . S
Mn360 O386 2.094 . S
Mn361 O366 2.121 . S
Mn361 N368 2.257 . S
Mn361 N377 2.282 . S
Mn361 O385 2.215 . S
Mn361 O387 2.117 . S
C362 O384 1.234 . S
C362 O385 1.283 . S
C363 O375 1.283 . S
C363 O376 1.236 1_565 S
C364 O386 1.240 . S
C364 O387 1.264 . S
O365 Mn360 2.095 . S
O365 C374 1.250 . S
O366 Mn361 2.121 . S
O366 C374 1.258 . S
C367 N368 1.326 . S
C367 C371 1.460 . S
C367 H373 0.929 . S
N368 Mn361 2.257 . S
N368 C367 1.326 . S
N368 C372 1.362 . S
C369 C370 1.258 . S
C369 C372 1.431 . S
C369 C389 1.449 . S
C370 C369 1.258 . S
C370 C371 1.477 . S
C370 H390 0.931 . S
C371 C367 1.460 . S
C371 C370 1.477 . S
C371 H391 0.930 . S
C372 N368 1.362 . S
C372 C369 1.431 . S
C372 C382 1.476 . S
H373 C367 0.929 . S
C374 O365 1.250 . S
C374 O366 1.258 . S
O375 Mn360 2.157 1_565 S
O375 C363 1.283 . S
O376 Mn360 2.297 . S
O376 C363 1.236 1_545 S
N377 Mn361 2.282 . S
N377 C378 1.328 . S
N377 C382 1.318 . S
C378 N377 1.328 . S
C378 C379 1.457 . S
C378 H383 0.929 . S
C379 C378 1.457 . S
C379 C380 1.291 . S
C379 H392 0.931 . S
C380 C379 1.291 . S
C380 C381 1.373 . S
C380 H393 0.929 . S
C381 C380 1.373 . S
C381 C382 1.396 . S
C381 C388 1.403 . S
C382 C372 1.476 . S
C382 N377 1.318 . S
C382 C381 1.396 . S
H383 C378 0.929 . S
O384 Mn360 2.385 . S
O384 C362 1.234 . S
O385 Mn360 2.209 . S
O385 Mn361 2.215 . S
O385 C362 1.283 . S
O386 Mn360 2.094 . S
O386 C364 1.240 . S
O387 Mn361 2.117 . S
O387 C364 1.264 . S
C388 C381 1.403 . S
C388 C389 1.399 . S
C388 H394 0.929 . S
C389 C369 1.449 . S
C389 C388 1.399 . S
C389 H395 0.930 . S
H390 C370 0.931 . S
H391 C371 0.930 . S
H392 C379 0.931 . S
H393 C380 0.929 . S
H394 C388 0.929 . S
H395 C389 0.930 . S
Mn396 O401 2.095 . S
Mn396 O411 2.157 1_455 S
Mn396 O412 2.297 . S
Mn396 O420 2.385 . S
Mn396 O421 2.209 . S
Mn396 O422 2.094 . S
Mn397 O402 2.121 . S
Mn397 N404 2.257 . S
Mn397 N413 2.282 . S
Mn397 O421 2.215 . S
Mn397 O423 2.117 . S
C398 O420 1.234 . S
C398 O421 1.283 . S
C399 O411 1.283 . S
C399 O412 1.236 1_655 S
C400 O422 1.240 . S
C400 O423 1.264 . S
O401 Mn396 2.095 . S
O401 C410 1.250 . S
O402 Mn397 2.121 . S
O402 C410 1.258 . S
C403 N404 1.326 . S
C403 C407 1.460 . S
C403 H409 0.929 . S
N404 Mn397 2.257 . S
N404 C403 1.326 . S
N404 C408 1.362 . S
C405 C406 1.258 . S
C405 C408 1.431 . S
C405 C425 1.449 . S
C406 C405 1.258 . S
C406 C407 1.477 . S
C406 H426 0.931 . S
C407 C403 1.460 . S
C407 C406 1.477 . S
C407 H427 0.930 . S
C408 N404 1.362 . S
C408 C405 1.431 . S
C408 C418 1.476 . S
H409 C403 0.929 . S
C410 O401 1.250 . S
C410 O402 1.258 . S
O411 Mn396 2.157 1_655 S
O411 C399 1.283 . S
O412 Mn396 2.297 . S
O412 C399 1.236 1_455 S
N413 Mn397 2.282 . S
N413 C414 1.328 . S
N413 C418 1.318 . S
C414 N413 1.328 . S
C414 C415 1.457 . S
C414 H419 0.929 . S
C415 C414 1.457 . S
C415 C416 1.291 . S
C415 H428 0.931 . S
C416 C415 1.291 . S
C416 C417 1.373 . S
C416 H429 0.929 . S
C417 C416 1.373 . S
C417 C418 1.396 . S
C417 C424 1.403 . S
C418 C408 1.476 . S
C418 N413 1.318 . S
C418 C417 1.396 . S
H419 C414 0.929 . S
O420 Mn396 2.385 . S
O420 C398 1.234 . S
O421 Mn396 2.209 . S
O421 Mn397 2.215 . S
O421 C398 1.283 . S
O422 Mn396 2.094 . S
O422 C400 1.240 . S
O423 Mn397 2.117 . S
O423 C400 1.264 . S
C424 C417 1.403 . S
C424 C425 1.399 . S
C424 H430 0.929 . S
C425 C405 1.449 . S
C425 C424 1.399 . S
C425 H431 0.930 . S
H426 C406 0.931 . S
H427 C407 0.930 . S
H428 C415 0.931 . S
H429 C416 0.929 . S
H430 C424 0.929 . S
H431 C425 0.930 . S
Mn432 O437 2.095 . S
Mn432 O447 2.157 1_545 S
Mn432 O448 2.297 . S
Mn432 O456 2.385 . S
Mn432 O457 2.209 . S
Mn432 O458 2.094 . S
Mn433 O438 2.121 . S
Mn433 N440 2.257 . S
Mn433 N449 2.282 . S
Mn433 O457 2.215 . S
Mn433 O459 2.117 . S
C434 O456 1.234 . S
C434 O457 1.283 . S
C435 O447 1.283 . S
C435 O448 1.236 1_565 S
C436 O458 1.240 . S
C436 O459 1.264 . S
O437 Mn432 2.095 . S
O437 C446 1.250 . S
O438 Mn433 2.121 . S
O438 C446 1.258 . S
C439 N440 1.326 . S
C439 C443 1.460 . S
C439 H445 0.929 . S
N440 Mn433 2.257 . S
N440 C439 1.326 . S
N440 C444 1.362 . S
C441 C442 1.258 . S
C441 C444 1.431 . S
C441 C461 1.449 . S
C442 C441 1.258 . S
C442 C443 1.477 . S
C442 H462 0.931 . S
C443 C439 1.460 . S
C443 C442 1.477 . S
C443 H463 0.930 . S
C444 N440 1.362 . S
C444 C441 1.431 . S
C444 C454 1.476 . S
H445 C439 0.929 . S
C446 O437 1.250 . S
C446 O438 1.258 . S
O447 Mn432 2.157 1_565 S
O447 C435 1.283 . S
O448 Mn432 2.297 . S
O448 C435 1.236 1_545 S
N449 Mn433 2.282 . S
N449 C450 1.328 . S
N449 C454 1.318 . S
C450 N449 1.328 . S
C450 C451 1.457 . S
C450 H455 0.929 . S
C451 C450 1.457 . S
C451 C452 1.291 . S
C451 H464 0.931 . S
C452 C451 1.291 . S
C452 C453 1.373 . S
C452 H465 0.929 . S
C453 C452 1.373 . S
C453 C454 1.396 . S
C453 C460 1.403 . S
C454 C444 1.476 . S
C454 N449 1.318 . S
C454 C453 1.396 . S
H455 C450 0.929 . S
O456 Mn432 2.385 . S
O456 C434 1.234 . S
O457 Mn432 2.209 . S
O457 Mn433 2.215 . S
O457 C434 1.283 . S
O458 Mn432 2.094 . S
O458 C436 1.240 . S
O459 Mn433 2.117 . S
O459 C436 1.264 . S
C460 C453 1.403 . S
C460 C461 1.399 . S
C460 H466 0.929 . S
C461 C441 1.449 . S
C461 C460 1.399 . S
C461 H467 0.930 . S
H462 C442 0.931 . S
H463 C443 0.930 . S
H464 C451 0.931 . S
H465 C452 0.929 . S
H466 C460 0.929 . S
H467 C461 0.930 . S
Mn468 O473 2.095 . S
Mn468 O483 2.157 1_455 S
Mn468 O484 2.297 . S
Mn468 O492 2.385 . S
Mn468 O493 2.209 . S
Mn468 O494 2.094 . S
Mn469 O474 2.121 . S
Mn469 N476 2.257 . S
Mn469 N485 2.282 . S
Mn469 O493 2.215 . S
Mn469 O495 2.117 . S
C470 O492 1.234 . S
C470 O493 1.283 . S
C471 O483 1.283 . S
C471 O484 1.236 1_655 S
C472 O494 1.240 . S
C472 O495 1.264 . S
O473 Mn468 2.095 . S
O473 C482 1.250 . S
O474 Mn469 2.121 . S
O474 C482 1.258 . S
C475 N476 1.326 . S
C475 C479 1.460 . S
C475 H481 0.929 . S
N476 Mn469 2.257 . S
N476 C475 1.326 . S
N476 C480 1.362 . S
C477 C478 1.258 . S
C477 C480 1.431 . S
C477 C497 1.449 . S
C478 C477 1.258 . S
C478 C479 1.477 . S
C478 H498 0.931 . S
C479 C475 1.460 . S
C479 C478 1.477 . S
C479 H499 0.930 . S
C480 N476 1.362 . S
C480 C477 1.431 . S
C480 C490 1.476 . S
H481 C475 0.929 . S
C482 O473 1.250 . S
C482 O474 1.258 . S
O483 Mn468 2.157 1_655 S
O483 C471 1.283 . S
O484 Mn468 2.297 . S
O484 C471 1.236 1_455 S
N485 Mn469 2.282 . S
N485 C486 1.328 . S
N485 C490 1.318 . S
C486 N485 1.328 . S
C486 C487 1.457 . S
C486 H491 0.929 . S
C487 C486 1.457 . S
C487 C488 1.291 . S
C487 H500 0.931 . S
C488 C487 1.291 . S
C488 C489 1.373 . S
C488 H501 0.929 . S
C489 C488 1.373 . S
C489 C490 1.396 . S
C489 C496 1.403 . S
C490 C480 1.476 . S
C490 N485 1.318 . S
C490 C489 1.396 . S
H491 C486 0.929 . S
O492 Mn468 2.385 . S
O492 C470 1.234 . S
O493 Mn468 2.209 . S
O493 Mn469 2.215 . S
O493 C470 1.283 . S
O494 Mn468 2.094 . S
O494 C472 1.240 . S
O495 Mn469 2.117 . S
O495 C472 1.264 . S
C496 C489 1.403 . S
C496 C497 1.399 . S
C496 H502 0.929 . S
C497 C477 1.449 . S
C497 C496 1.399 . S
C497 H503 0.930 . S
H498 C478 0.931 . S
H499 C479 0.930 . S
H500 C487 0.931 . S
H501 C488 0.929 . S
H502 C496 0.929 . S
H503 C497 0.930 . S
Mn504 O509 2.095 . S
Mn504 O519 2.157 1_565 S
Mn504 O520 2.297 . S
Mn504 O528 2.385 . S
Mn504 O529 2.209 . S
Mn504 O530 2.094 . S
Mn505 O510 2.121 . S
Mn505 N512 2.257 . S
Mn505 N521 2.282 . S
Mn505 O529 2.215 . S
Mn505 O531 2.117 . S
C506 O528 1.234 . S
C506 O529 1.283 . S
C507 O519 1.283 . S
C507 O520 1.236 1_545 S
C508 O530 1.240 . S
C508 O531 1.264 . S
O509 Mn504 2.095 . S
O509 C518 1.250 . S
O510 Mn505 2.121 . S
O510 C518 1.258 . S
C511 N512 1.326 . S
C511 C515 1.460 . S
C511 H517 0.929 . S
N512 Mn505 2.257 . S
N512 C511 1.326 . S
N512 C516 1.362 . S
C513 C514 1.258 . S
C513 C516 1.431 . S
C513 C533 1.449 . S
C514 C513 1.258 . S
C514 C515 1.477 . S
C514 H534 0.931 . S
C515 C511 1.460 . S
C515 C514 1.477 . S
C515 H535 0.930 . S
C516 N512 1.362 . S
C516 C513 1.431 . S
C516 C526 1.476 . S
H517 C511 0.929 . S
C518 O509 1.250 . S
C518 O510 1.258 . S
O519 Mn504 2.157 1_545 S
O519 C507 1.283 . S
O520 Mn504 2.297 . S
O520 C507 1.236 1_565 S
N521 Mn505 2.282 . S
N521 C522 1.328 . S
N521 C526 1.318 . S
C522 N521 1.328 . S
C522 C523 1.457 . S
C522 H527 0.929 . S
C523 C522 1.457 . S
C523 C524 1.291 . S
C523 H536 0.931 . S
C524 C523 1.291 . S
C524 C525 1.373 . S
C524 H537 0.929 . S
C525 C524 1.373 . S
C525 C526 1.396 . S
C525 C532 1.403 . S
C526 C516 1.476 . S
C526 N521 1.318 . S
C526 C525 1.396 . S
H527 C522 0.929 . S
O528 Mn504 2.385 . S
O528 C506 1.234 . S
O529 Mn504 2.209 . S
O529 Mn505 2.215 . S
O529 C506 1.283 . S
O530 Mn504 2.094 . S
O530 C508 1.240 . S
O531 Mn505 2.117 . S
O531 C508 1.264 . S
C532 C525 1.403 . S
C532 C533 1.399 . S
C532 H538 0.929 . S
C533 C513 1.449 . S
C533 C532 1.399 . S
C533 H539 0.930 . S
H534 C514 0.931 . S
H535 C515 0.930 . S
H536 C523 0.931 . S
H537 C524 0.929 . S
H538 C532 0.929 . S
H539 C533 0.930 . S
Mn540 O545 2.095 . S
Mn540 O555 2.157 1_655 S
Mn540 O556 2.297 . S
Mn540 O564 2.385 . S
Mn540 O565 2.209 . S
Mn540 O566 2.094 . S
Mn541 O546 2.121 . S
Mn541 N548 2.257 . S
Mn541 N557 2.282 . S
Mn541 O565 2.215 . S
Mn541 O567 2.117 . S
C542 O564 1.234 . S
C542 O565 1.283 . S
C543 O555 1.283 . S
C543 O556 1.236 1_455 S
C544 O566 1.240 . S
C544 O567 1.264 . S
O545 Mn540 2.095 . S
O545 C554 1.250 . S
O546 Mn541 2.121 . S
O546 C554 1.258 . S
C547 N548 1.326 . S
C547 C551 1.460 . S
C547 H553 0.929 . S
N548 Mn541 2.257 . S
N548 C547 1.326 . S
N548 C552 1.362 . S
C549 C550 1.258 . S
C549 C552 1.431 . S
C549 C569 1.449 . S
C550 C549 1.258 . S
C550 C551 1.477 . S
C550 H570 0.931 . S
C551 C547 1.460 . S
C551 C550 1.477 . S
C551 H571 0.930 . S
C552 N548 1.362 . S
C552 C549 1.431 . S
C552 C562 1.476 . S
H553 C547 0.929 . S
C554 O545 1.250 . S
C554 O546 1.258 . S
O555 Mn540 2.157 1_455 S
O555 C543 1.283 . S
O556 Mn540 2.297 . S
O556 C543 1.236 1_655 S
N557 Mn541 2.282 . S
N557 C558 1.328 . S
N557 C562 1.318 . S
C558 N557 1.328 . S
C558 C559 1.457 . S
C558 H563 0.929 . S
C559 C558 1.457 . S
C559 C560 1.291 . S
C559 H572 0.931 . S
C560 C559 1.291 . S
C560 C561 1.373 . S
C560 H573 0.929 . S
C561 C560 1.373 . S
C561 C562 1.396 . S
C561 C568 1.403 . S
C562 C552 1.476 . S
C562 N557 1.318 . S
C562 C561 1.396 . S
H563 C558 0.929 . S
O564 Mn540 2.385 . S
O564 C542 1.234 . S
O565 Mn540 2.209 . S
O565 Mn541 2.215 . S
O565 C542 1.283 . S
O566 Mn540 2.094 . S
O566 C544 1.240 . S
O567 Mn541 2.117 . S
O567 C544 1.264 . S
C568 C561 1.403 . S
C568 C569 1.399 . S
C568 H574 0.929 . S
C569 C549 1.449 . S
C569 C568 1.399 . S
C569 H575 0.930 . S
H570 C550 0.931 . S
H571 C551 0.930 . S
H572 C559 0.931 . S
H573 C560 0.929 . S
H574 C568 0.929 . S
H575 C569 0.930 . S
H576 C584 0.950 . S
H577 C589 0.950 . S
H578 C586 0.950 . S
H579 C588 0.950 . S
H580 C590 0.950 . S
H581 C592 0.950 . S
H582 C594 0.950 . S
H583 C595 0.950 . S
C584 H576 0.950 . S
C584 C585 1.386 . S
C584 C586 1.391 . S
C585 C584 1.386 . S
C585 C589 1.393 . S
C586 H578 0.950 . S
C586 C584 1.391 . S
C586 C587 1.400 . S
C587 C586 1.400 . S
C587 C588 1.398 . S
C587 C593 1.491 . S
C588 H579 0.950 . S
C588 C587 1.398 . S
C588 C589 1.391 . S
C589 H577 0.950 . S
C589 C585 1.393 . S
C589 C588 1.391 . S
C590 H580 0.950 . S
C590 C591 1.386 . S
C590 C592 1.391 . S
C591 C590 1.386 . S
C591 C595 1.393 . S
C592 H581 0.950 . S
C592 C590 1.391 . S
C592 C593 1.400 . S
C593 C587 1.491 . S
C593 C592 1.400 . S
C593 C594 1.398 . S
C594 H582 0.950 . S
C594 C593 1.398 . S
C594 C595 1.391 . S
C595 H583 0.950 . S
C595 C591 1.393 . S
C595 C594 1.391 . S
H596 C604 0.950 . S
H597 C609 0.950 . S
H598 C606 0.950 . S
H599 C608 0.950 . S
H600 C610 0.950 . S
H601 C612 0.950 . S
H602 C614 0.950 . S
H603 C615 0.950 . S
C604 H596 0.950 . S
C604 C605 1.386 . S
C604 C606 1.391 . S
C605 C604 1.386 . S
C605 C609 1.393 . S
C606 H598 0.950 . S
C606 C604 1.391 . S
C606 C607 1.400 . S
C607 C606 1.400 . S
C607 C608 1.398 . S
C607 C613 1.491 . S
C608 H599 0.950 . S
C608 C607 1.398 . S
C608 C609 1.391 . S
C609 H597 0.950 . S
C609 C605 1.393 . S
C609 C608 1.391 . S
C610 H600 0.950 . S
C610 C611 1.386 . S
C610 C612 1.391 . S
C611 C610 1.386 . S
C611 C615 1.393 . S
C612 H601 0.950 . S
C612 C610 1.391 . S
C612 C613 1.400 . S
C613 C607 1.491 . S
C613 C612 1.400 . S
C613 C614 1.398 . S
C614 H602 0.950 . S
C614 C613 1.398 . S
C614 C615 1.391 . S
C615 H603 0.950 . S
C615 C611 1.393 . S
C615 C614 1.391 . S
H616 C624 0.950 . S
H617 C629 0.950 . S
H618 C626 0.950 . S
H619 C628 0.950 . S
H620 C630 0.950 . S
H621 C632 0.950 . S
H622 C634 0.950 . S
H623 C635 0.950 . S
C624 H616 0.950 . S
C624 C625 1.386 . S
C624 C626 1.391 . S
C625 C624 1.386 . S
C625 C629 1.393 . S
C626 H618 0.950 . S
C626 C624 1.391 . S
C626 C627 1.400 . S
C627 C626 1.400 . S
C627 C628 1.398 . S
C627 C633 1.491 . S
C628 H619 0.950 . S
C628 C627 1.398 . S
C628 C629 1.391 . S
C629 H617 0.950 . S
C629 C625 1.393 . S
C629 C628 1.391 . S
C630 H620 0.950 . S
C630 C631 1.386 . S
C630 C632 1.391 . S
C631 C630 1.386 . S
C631 C635 1.393 . S
C632 H621 0.950 . S
C632 C630 1.391 . S
C632 C633 1.400 . S
C633 C627 1.491 . S
C633 C632 1.400 . S
C633 C634 1.398 . S
C634 H622 0.950 . S
C634 C633 1.398 . S
C634 C635 1.391 . S
C635 H623 0.950 . S
C635 C631 1.393 . S
C635 C634 1.391 . S
H636 C644 0.950 . S
H637 C649 0.950 . S
H638 C646 0.950 . S
H639 C648 0.950 . S
H640 C650 0.950 . S
H641 C652 0.950 . S
H642 C654 0.950 . S
H643 C655 0.950 . S
C644 H636 0.950 . S
C644 C645 1.386 . S
C644 C646 1.391 . S
C645 C644 1.386 . S
C645 C649 1.393 . S
C646 H638 0.950 . S
C646 C644 1.391 . S
C646 C647 1.400 . S
C647 C646 1.400 . S
C647 C648 1.398 . S
C647 C653 1.491 . S
C648 H639 0.950 . S
C648 C647 1.398 . S
C648 C649 1.391 . S
C649 H637 0.950 . S
C649 C645 1.393 . S
C649 C648 1.391 . S
C650 H640 0.950 . S
C650 C651 1.386 . S
C650 C652 1.391 . S
C651 C650 1.386 . S
C651 C655 1.393 . S
C652 H641 0.950 . S
C652 C650 1.391 . S
C652 C653 1.400 . S
C653 C647 1.491 . S
C653 C652 1.400 . S
C653 C654 1.398 . S
C654 H642 0.950 . S
C654 C653 1.398 . S
C654 C655 1.391 . S
C655 H643 0.950 . S
C655 C651 1.393 . S
C655 C654 1.391 . S
H656 C664 0.950 . S
H657 C669 0.950 . S
H658 C666 0.950 . S
H659 C668 0.950 . S
H660 C670 0.950 . S
H661 C672 0.950 . S
H662 C674 0.950 . S
H663 C675 0.950 . S
C664 H656 0.950 . S
C664 C665 1.386 . S
C664 C666 1.391 . S
C665 C664 1.386 . S
C665 C669 1.393 . S
C666 H658 0.950 . S
C666 C664 1.391 . S
C666 C667 1.400 . S
C667 C666 1.400 . S
C667 C668 1.398 . S
C667 C673 1.491 . S
C668 H659 0.950 . S
C668 C667 1.398 . S
C668 C669 1.391 . S
C669 H657 0.950 . S
C669 C665 1.393 . S
C669 C668 1.391 . S
C670 H660 0.950 . S
C670 C671 1.386 . S
C670 C672 1.391 . S
C671 C670 1.386 . S
C671 C675 1.393 . S
C672 H661 0.950 . S
C672 C670 1.391 . S
C672 C673 1.400 . S
C673 C667 1.491 . S
C673 C672 1.400 . S
C673 C674 1.398 . S
C674 H662 0.950 . S
C674 C673 1.398 . S
C674 C675 1.391 . S
C675 H663 0.950 . S
C675 C671 1.393 . S
C675 C674 1.391 . S
H676 C684 0.950 . S
H677 C689 0.950 . S
H678 C686 0.950 . S
H679 C688 0.950 . S
H680 C690 0.950 . S
H681 C692 0.950 . S
H682 C694 0.950 . S
H683 C695 0.950 . S
C684 H676 0.950 . S
C684 C685 1.386 . S
C684 C686 1.391 . S
C685 C684 1.386 . S
C685 C689 1.393 . S
C686 H678 0.950 . S
C686 C684 1.391 . S
C686 C687 1.400 . S
C687 C686 1.400 . S
C687 C688 1.398 . S
C687 C693 1.491 . S
C688 H679 0.950 . S
C688 C687 1.398 . S
C688 C689 1.391 . S
C689 H677 0.950 . S
C689 C685 1.393 . S
C689 C688 1.391 . S
C690 H680 0.950 . S
C690 C691 1.386 . S
C690 C692 1.391 . S
C691 C690 1.386 . S
C691 C695 1.393 . S
C692 H681 0.950 . S
C692 C690 1.391 . S
C692 C693 1.400 . S
C693 C687 1.491 . S
C693 C692 1.400 . S
C693 C694 1.398 . S
C694 H682 0.950 . S
C694 C693 1.398 . S
C694 C695 1.391 . S
C695 H683 0.950 . S
C695 C691 1.393 . S
C695 C694 1.391 . S
H696 C704 0.950 . S
H697 C709 0.950 . S
H698 C706 0.950 . S
H699 C708 0.950 . S
H700 C710 0.950 . S
H701 C712 0.950 . S
H702 C714 0.950 . S
H703 C715 0.950 . S
C704 H696 0.950 . S
C704 C705 1.386 . S
C704 C706 1.391 . S
C705 C704 1.386 . S
C705 C709 1.393 . S
C706 H698 0.950 . S
C706 C704 1.391 . S
C706 C707 1.400 . S
C707 C706 1.400 . S
C707 C708 1.398 . S
C707 C713 1.491 . S
C708 H699 0.950 . S
C708 C707 1.398 . S
C708 C709 1.391 . S
C709 H697 0.950 . S
C709 C705 1.393 . S
C709 C708 1.391 . S
C710 H700 0.950 . S
C710 C711 1.386 . S
C710 C712 1.391 . S
C711 C710 1.386 . S
C711 C715 1.393 . S
C712 H701 0.950 . S
C712 C710 1.391 . S
C712 C713 1.400 . S
C713 C707 1.491 . S
C713 C712 1.400 . S
C713 C714 1.398 . S
C714 H702 0.950 . S
C714 C713 1.398 . S
C714 C715 1.391 . S
C715 H703 0.950 . S
C715 C711 1.393 . S
C715 C714 1.391 . S
H716 C724 0.950 . S
H717 C729 0.950 . S
H718 C726 0.950 . S
H719 C728 0.950 . S
H720 C730 0.950 . S
H721 C732 0.950 . S
H722 C734 0.950 . S
H723 C735 0.950 . S
C724 H716 0.950 . S
C724 C725 1.386 . S
C724 C726 1.391 . S
C725 C724 1.386 . S
C725 C729 1.393 . S
C726 H718 0.950 . S
C726 C724 1.391 . S
C726 C727 1.400 . S
C727 C726 1.400 . S
C727 C728 1.398 . S
C727 C733 1.491 . S
C728 H719 0.950 . S
C728 C727 1.398 . S
C728 C729 1.391 . S
C729 H717 0.950 . S
C729 C725 1.393 . S
C729 C728 1.391 . S
C730 H720 0.950 . S
C730 C731 1.386 . S
C730 C732 1.391 . S
C731 C730 1.386 . S
C731 C735 1.393 . S
C732 H721 0.950 . S
C732 C730 1.391 . S
C732 C733 1.400 . S
C733 C727 1.491 . S
C733 C732 1.400 . S
C733 C734 1.398 . S
C734 H722 0.950 . S
C734 C733 1.398 . S
C734 C735 1.391 . S
C735 H723 0.950 . S
C735 C731 1.393 . S
C735 C734 1.391 . S
H736 C744 0.950 . S
H737 C749 0.950 . S
H738 C746 0.950 . S
H739 C748 0.950 . S
H740 C750 0.950 . S
H741 C752 0.950 . S
H742 C754 0.950 . S
H743 C755 0.950 . S
C744 H736 0.950 . S
C744 C745 1.386 . S
C744 C746 1.391 . S
C745 C744 1.386 . S
C745 C749 1.393 . S
C746 H738 0.950 . S
C746 C744 1.391 . S
C746 C747 1.400 . S
C747 C746 1.400 . S
C747 C748 1.398 . S
C747 C753 1.491 . S
C748 H739 0.950 . S
C748 C747 1.398 . S
C748 C749 1.391 . S
C749 H737 0.950 . S
C749 C745 1.393 . S
C749 C748 1.391 . S
C750 H740 0.950 . S
C750 C751 1.386 . S
C750 C752 1.391 . S
C751 C750 1.386 . S
C751 C755 1.393 . S
C752 H741 0.950 . S
C752 C750 1.391 . S
C752 C753 1.400 . S
C753 C747 1.491 . S
C753 C752 1.400 . S
C753 C754 1.398 . S
C754 H742 0.950 . S
C754 C753 1.398 . S
C754 C755 1.391 . S
C755 H743 0.950 . S
C755 C751 1.393 . S
C755 C754 1.391 . S
H756 C764 0.950 . S
H757 C769 0.950 . S
H758 C766 0.950 . S
H759 C768 0.950 . S
H760 C770 0.950 . S
H761 C772 0.950 . S
H762 C774 0.950 . S
H763 C775 0.950 . S
C764 H756 0.950 . S
C764 C765 1.386 . S
C764 C766 1.391 . S
C765 C764 1.386 . S
C765 C769 1.393 . S
C766 H758 0.950 . S
C766 C764 1.391 . S
C766 C767 1.400 . S
C767 C766 1.400 . S
C767 C768 1.398 . S
C767 C773 1.491 . S
C768 H759 0.950 . S
C768 C767 1.398 . S
C768 C769 1.391 . S
C769 H757 0.950 . S
C769 C765 1.393 . S
C769 C768 1.391 . S
C770 H760 0.950 . S
C770 C771 1.386 . S
C770 C772 1.391 . S
C771 C770 1.386 . S
C771 C775 1.393 . S
C772 H761 0.950 . S
C772 C770 1.391 . S
C772 C773 1.400 . S
C773 C767 1.491 . S
C773 C772 1.400 . S
C773 C774 1.398 . S
C774 H762 0.950 . S
C774 C773 1.398 . S
C774 C775 1.391 . S
C775 H763 0.950 . S
C775 C771 1.393 . S
C775 C774 1.391 . S
H776 C784 0.950 . S
H777 C789 0.950 . S
H778 C786 0.950 . S
H779 C788 0.950 . S
H780 C790 0.950 . S
H781 C792 0.950 . S
H782 C794 0.950 . S
H783 C795 0.950 . S
C784 H776 0.950 . S
C784 C785 1.386 . S
C784 C786 1.391 . S
C785 C784 1.386 . S
C785 C789 1.393 . S
C786 H778 0.950 . S
C786 C784 1.391 . S
C786 C787 1.400 . S
C787 C786 1.400 . S
C787 C788 1.398 . S
C787 C793 1.491 . S
C788 H779 0.950 . S
C788 C787 1.398 . S
C788 C789 1.391 . S
C789 H777 0.950 . S
C789 C785 1.393 . S
C789 C788 1.391 . S
C790 H780 0.950 . S
C790 C791 1.386 . S
C790 C792 1.391 . S
C791 C790 1.386 . S
C791 C795 1.393 . S
C792 H781 0.950 . S
C792 C790 1.391 . S
C792 C793 1.400 . S
C793 C787 1.491 . S
C793 C792 1.400 . S
C793 C794 1.398 . S
C794 H782 0.950 . S
C794 C793 1.398 . S
C794 C795 1.391 . S
C795 H783 0.950 . S
C795 C791 1.393 . S
C795 C794 1.391 . S
H796 C804 0.950 . S
H797 C809 0.950 . S
H798 C806 0.950 . S
H799 C808 0.950 . S
H800 C810 0.950 . S
H801 C812 0.950 . S
H802 C814 0.950 . S
H803 C815 0.950 . S
C804 H796 0.950 . S
C804 C805 1.386 . S
C804 C806 1.391 . S
C805 C804 1.386 . S
C805 C809 1.393 . S
C806 H798 0.950 . S
C806 C804 1.391 . S
C806 C807 1.400 . S
C807 C806 1.400 . S
C807 C808 1.398 . S
C807 C813 1.491 . S
C808 H799 0.950 . S
C808 C807 1.398 . S
C808 C809 1.391 . S
C809 H797 0.950 . S
C809 C805 1.393 . S
C809 C808 1.391 . S
C810 H800 0.950 . S
C810 C811 1.386 . S
C810 C812 1.391 . S
C811 C810 1.386 . S
C811 C815 1.393 . S
C812 H801 0.950 . S
C812 C810 1.391 . S
C812 C813 1.400 . S
C813 C807 1.491 . S
C813 C812 1.400 . S
C813 C814 1.398 . S
C814 H802 0.950 . S
C814 C813 1.398 . S
C814 C815 1.391 . S
C815 H803 0.950 . S
C815 C811 1.393 . S
C815 C814 1.391 . S
H816 C824 0.950 . S
H817 C829 0.950 . S
H818 C826 0.950 . S
H819 C828 0.950 . S
H820 C830 0.950 . S
H821 C832 0.950 . S
H822 C834 0.950 . S
H823 C835 0.950 . S
C824 H816 0.950 . S
C824 C825 1.386 . S
C824 C826 1.391 . S
C825 C824 1.386 . S
C825 C829 1.393 . S
C826 H818 0.950 . S
C826 C824 1.391 . S
C826 C827 1.400 . S
C827 C826 1.400 . S
C827 C828 1.398 . S
C827 C833 1.491 . S
C828 H819 0.950 . S
C828 C827 1.398 . S
C828 C829 1.391 . S
C829 H817 0.950 . S
C829 C825 1.393 . S
C829 C828 1.391 . S
C830 H820 0.950 . S
C830 C831 1.386 . S
C830 C832 1.391 . S
C831 C830 1.386 . S
C831 C835 1.393 . S
C832 H821 0.950 . S
C832 C830 1.391 . S
C832 C833 1.400 . S
C833 C827 1.491 . S
C833 C832 1.400 . S
C833 C834 1.398 . S
C834 H822 0.950 . S
C834 C833 1.398 . S
C834 C835 1.391 . S
C835 H823 0.950 . S
C835 C831 1.393 . S
C835 C834 1.391 . S
H836 C844 0.950 . S
H837 C849 0.950 . S
H838 C846 0.950 . S
H839 C848 0.950 . S
H840 C850 0.950 . S
H841 C852 0.950 . S
H842 C854 0.950 . S
H843 C855 0.950 . S
C844 H836 0.950 . S
C844 C845 1.386 . S
C844 C846 1.391 . S
C845 C844 1.386 . S
C845 C849 1.393 . S
C846 H838 0.950 . S
C846 C844 1.391 . S
C846 C847 1.400 . S
C847 C846 1.400 . S
C847 C848 1.398 . S
C847 C853 1.491 . S
C848 H839 0.950 . S
C848 C847 1.398 . S
C848 C849 1.391 . S
C849 H837 0.950 . S
C849 C845 1.393 . S
C849 C848 1.391 . S
C850 H840 0.950 . S
C850 C851 1.386 . S
C850 C852 1.391 . S
C851 C850 1.386 . S
C851 C855 1.393 . S
C852 H841 0.950 . S
C852 C850 1.391 . S
C852 C853 1.400 . S
C853 C847 1.491 . S
C853 C852 1.400 . S
C853 C854 1.398 . S
C854 H842 0.950 . S
C854 C853 1.398 . S
C854 C855 1.391 . S
C855 H843 0.950 . S
C855 C851 1.393 . S
C855 C854 1.391 . S
H856 C864 0.950 . S
H857 C869 0.950 . S
H858 C866 0.950 . S
H859 C868 0.950 . S
H860 C870 0.950 . S
H861 C872 0.950 . S
H862 C874 0.950 . S
H863 C875 0.950 . S
C864 H856 0.950 . S
C864 C865 1.386 . S
C864 C866 1.391 . S
C865 C864 1.386 . S
C865 C869 1.393 . S
C866 H858 0.950 . S
C866 C864 1.391 . S
C866 C867 1.400 . S
C867 C866 1.400 . S
C867 C868 1.398 . S
C867 C873 1.491 . S
C868 H859 0.950 . S
C868 C867 1.398 . S
C868 C869 1.391 . S
C869 H857 0.950 . S
C869 C865 1.393 . S
C869 C868 1.391 . S
C870 H860 0.950 . S
C870 C871 1.386 . S
C870 C872 1.391 . S
C871 C870 1.386 . S
C871 C875 1.393 . S
C872 H861 0.950 . S
C872 C870 1.391 . S
C872 C873 1.400 . S
C873 C867 1.491 . S
C873 C872 1.400 . S
C873 C874 1.398 . S
C874 H862 0.950 . S
C874 C873 1.398 . S
C874 C875 1.391 . S
C875 H863 0.950 . S
C875 C871 1.393 . S
C875 C874 1.391 . S
H876 C884 0.950 . S
H877 C889 0.950 . S
H878 C886 0.950 . S
H879 C888 0.950 . S
H880 C890 0.950 . S
H881 C892 0.950 . S
H882 C894 0.950 . S
H883 C895 0.950 . S
C884 H876 0.950 . S
C884 C885 1.386 . S
C884 C886 1.391 . S
C885 C884 1.386 . S
C885 C889 1.393 . S
C886 H878 0.950 . S
C886 C884 1.391 . S
C886 C887 1.400 . S
C887 C886 1.400 . S
C887 C888 1.398 . S
C887 C893 1.491 . S
C888 H879 0.950 . S
C888 C887 1.398 . S
C888 C889 1.391 . S
C889 H877 0.950 . S
C889 C885 1.393 . S
C889 C888 1.391 . S
C890 H880 0.950 . S
C890 C891 1.386 . S
C890 C892 1.391 . S
C891 C890 1.386 . S
C891 C895 1.393 . S
C892 H881 0.950 . S
C892 C890 1.391 . S
C892 C893 1.400 . S
C893 C887 1.491 . S
C893 C892 1.400 . S
C893 C894 1.398 . S
C894 H882 0.950 . S
C894 C893 1.398 . S
C894 C895 1.391 . S
C895 H883 0.950 . S
C895 C891 1.393 . S
C895 C894 1.391 . S
H896 C904 0.950 . S
H897 C909 0.950 . S
H898 C906 0.950 . S
H899 C908 0.950 . S
H900 C910 0.950 . S
H901 C912 0.950 . S
H902 C914 0.950 . S
H903 C915 0.950 . S
C904 H896 0.950 . S
C904 C905 1.386 . S
C904 C906 1.391 . S
C905 C904 1.386 . S
C905 C909 1.393 . S
C906 H898 0.950 . S
C906 C904 1.391 . S
C906 C907 1.400 . S
C907 C906 1.400 . S
C907 C908 1.398 . S
C907 C913 1.491 . S
C908 H899 0.950 . S
C908 C907 1.398 . S
C908 C909 1.391 . S
C909 H897 0.950 . S
C909 C905 1.393 . S
C909 C908 1.391 . S
C910 H900 0.950 . S
C910 C911 1.386 . S
C910 C912 1.391 . S
C911 C910 1.386 . S
C911 C915 1.393 . S
C912 H901 0.950 . S
C912 C910 1.391 . S
C912 C913 1.400 . S
C913 C907 1.491 . S
C913 C912 1.400 . S
C913 C914 1.398 . S
C914 H902 0.950 . S
C914 C913 1.398 . S
C914 C915 1.391 . S
C915 H903 0.950 . S
C915 C911 1.393 . S
C915 C914 1.391 . S
H916 C924 0.950 . S
H917 C929 0.950 . S
H918 C926 0.950 . S
H919 C928 0.950 . S
H920 C930 0.950 . S
H921 C932 0.950 . S
H922 C934 0.950 . S
H923 C935 0.950 . S
C924 H916 0.950 . S
C924 C925 1.386 . S
C924 C926 1.391 . S
C925 C924 1.386 . S
C925 C929 1.393 . S
C926 H918 0.950 . S
C926 C924 1.391 . S
C926 C927 1.400 . S
C927 C926 1.400 . S
C927 C928 1.398 . S
C927 C933 1.491 . S
C928 H919 0.950 . S
C928 C927 1.398 . S
C928 C929 1.391 . S
C929 H917 0.950 . S
C929 C925 1.393 . S
C929 C928 1.391 . S
C930 H920 0.950 . S
C930 C931 1.386 . S
C930 C932 1.391 . S
C931 C930 1.386 . S
C931 C935 1.393 . S
C932 H921 0.950 . S
C932 C930 1.391 . S
C932 C933 1.400 . S
C933 C927 1.491 . S
C933 C932 1.400 . S
C933 C934 1.398 . S
C934 H922 0.950 . S
C934 C933 1.398 . S
C934 C935 1.391 . S
C935 H923 0.950 . S
C935 C931 1.393 . S
C935 C934 1.391 . S
H936 C944 0.950 . S
H937 C949 0.950 . S
H938 C946 0.950 . S
H939 C948 0.950 . S
H940 C950 0.950 . S
H941 C952 0.950 . S
H942 C954 0.950 . S
H943 C955 0.950 . S
C944 H936 0.950 . S
C944 C945 1.386 . S
C944 C946 1.391 . S
C945 C944 1.386 . S
C945 C949 1.393 . S
C946 H938 0.950 . S
C946 C944 1.391 . S
C946 C947 1.400 . S
C947 C946 1.400 . S
C947 C948 1.398 . S
C947 C953 1.491 . S
C948 H939 0.950 . S
C948 C947 1.398 . S
C948 C949 1.391 . S
C949 H937 0.950 . S
C949 C945 1.393 . S
C949 C948 1.391 . S
C950 H940 0.950 . S
C950 C951 1.386 . S
C950 C952 1.391 . S
C951 C950 1.386 . S
C951 C955 1.393 . S
C952 H941 0.950 . S
C952 C950 1.391 . S
C952 C953 1.400 . S
C953 C947 1.491 . S
C953 C952 1.400 . S
C953 C954 1.398 . S
C954 H942 0.950 . S
C954 C953 1.398 . S
C954 C955 1.391 . S
C955 H943 0.950 . S
C955 C951 1.393 . S
C955 C954 1.391 . S
H956 C964 0.950 . S
H957 C969 0.950 . S
H958 C966 0.950 . S
H959 C968 0.950 . S
H960 C970 0.950 . S
H961 C972 0.950 . S
H962 C974 0.950 . S
H963 C975 0.950 . S
C964 H956 0.950 . S
C964 C965 1.386 . S
C964 C966 1.391 . S
C965 C964 1.386 . S
C965 C969 1.393 . S
C966 H958 0.950 . S
C966 C964 1.391 . S
C966 C967 1.400 . S
C967 C966 1.400 . S
C967 C968 1.398 . S
C967 C973 1.491 . S
C968 H959 0.950 . S
C968 C967 1.398 . S
C968 C969 1.391 . S
C969 H957 0.950 . S
C969 C965 1.393 . S
C969 C968 1.391 . S
C970 H960 0.950 . S
C970 C971 1.386 . S
C970 C972 1.391 . S
C971 C970 1.386 . S
C971 C975 1.393 . S
C972 H961 0.950 . S
C972 C970 1.391 . S
C972 C973 1.400 . S
C973 C967 1.491 . S
C973 C972 1.400 . S
C973 C974 1.398 . S
C974 H962 0.950 . S
C974 C973 1.398 . S
C974 C975 1.391 . S
C975 H963 0.950 . S
C975 C971 1.393 . S
C975 C974 1.391 . S
H976 C984 0.950 . S
H977 C989 0.950 . S
H978 C986 0.950 . S
H979 C988 0.950 . S
H980 C990 0.950 . S
H981 C992 0.950 . S
H982 C994 0.950 . S
H983 C995 0.950 . S
C984 H976 0.950 . S
C984 C985 1.386 . S
C984 C986 1.391 . S
C985 C984 1.386 . S
C985 C989 1.393 . S
C986 H978 0.950 . S
C986 C984 1.391 . S
C986 C987 1.400 . S
C987 C986 1.400 . S
C987 C988 1.398 . S
C987 C993 1.491 . S
C988 H979 0.950 . S
C988 C987 1.398 . S
C988 C989 1.391 . S
C989 H977 0.950 . S
C989 C985 1.393 . S
C989 C988 1.391 . S
C990 H980 0.950 . S
C990 C991 1.386 . S
C990 C992 1.391 . S
C991 C990 1.386 . S
C991 C995 1.393 . S
C992 H981 0.950 . S
C992 C990 1.391 . S
C992 C993 1.400 . S
C993 C987 1.491 . S
C993 C992 1.400 . S
C993 C994 1.398 . S
C994 H982 0.950 . S
C994 C993 1.398 . S
C994 C995 1.391 . S
C995 H983 0.950 . S
C995 C991 1.393 . S
C995 C994 1.391 . S
H996 C1004 0.950 . S
H997 C1009 0.950 . S
H998 C1006 0.950 . S
H999 C1008 0.950 . S
H1000 C1010 0.950 . S
H1001 C1012 0.950 . S
H1002 C1014 0.950 . S
H1003 C1015 0.950 . S
C1004 H996 0.950 . S
C1004 C1005 1.386 . S
C1004 C1006 1.391 . S
C1005 C1004 1.386 . S
C1005 C1009 1.393 . S
C1006 H998 0.950 . S
C1006 C1004 1.391 . S
C1006 C1007 1.400 . S
C1007 C1006 1.400 . S
C1007 C1008 1.398 . S
C1007 C1013 1.491 . S
C1008 H999 0.950 . S
C1008 C1007 1.398 . S
C1008 C1009 1.391 . S
C1009 H997 0.950 . S
C1009 C1005 1.393 . S
C1009 C1008 1.391 . S
C1010 H1000 0.950 . S
C1010 C1011 1.386 . S
C1010 C1012 1.391 . S
C1011 C1010 1.386 . S
C1011 C1015 1.393 . S
C1012 H1001 0.950 . S
C1012 C1010 1.391 . S
C1012 C1013 1.400 . S
C1013 C1007 1.491 . S
C1013 C1012 1.400 . S
C1013 C1014 1.398 . S
C1014 H1002 0.950 . S
C1014 C1013 1.398 . S
C1014 C1015 1.391 . S
C1015 H1003 0.950 . S
C1015 C1011 1.393 . S
C1015 C1014 1.391 . S
H1016 C1024 0.950 . S
H1017 C1029 0.950 . S
H1018 C1026 0.950 . S
H1019 C1028 0.950 . S
H1020 C1030 0.950 . S
H1021 C1032 0.950 . S
H1022 C1034 0.950 . S
H1023 C1035 0.950 . S
C1024 H1016 0.950 . S
C1024 C1025 1.386 . S
C1024 C1026 1.391 . S
C1025 C1024 1.386 . S
C1025 C1029 1.393 . S
C1026 H1018 0.950 . S
C1026 C1024 1.391 . S
C1026 C1027 1.400 . S
C1027 C1026 1.400 . S
C1027 C1028 1.398 . S
C1027 C1033 1.491 . S
C1028 H1019 0.950 . S
C1028 C1027 1.398 . S
C1028 C1029 1.391 . S
C1029 H1017 0.950 . S
C1029 C1025 1.393 . S
C1029 C1028 1.391 . S
C1030 H1020 0.950 . S
C1030 C1031 1.386 . S
C1030 C1032 1.391 . S
C1031 C1030 1.386 . S
C1031 C1035 1.393 . S
C1032 H1021 0.950 . S
C1032 C1030 1.391 . S
C1032 C1033 1.400 . S
C1033 C1027 1.491 . S
C1033 C1032 1.400 . S
C1033 C1034 1.398 . S
C1034 H1022 0.950 . S
C1034 C1033 1.398 . S
C1034 C1035 1.391 . S
C1035 H1023 0.950 . S
C1035 C1031 1.393 . S
C1035 C1034 1.391 . S
H1036 C1044 0.950 . S
H1037 C1049 0.950 . S
H1038 C1046 0.950 . S
H1039 C1048 0.950 . S
H1040 C1050 0.950 . S
H1041 C1052 0.950 . S
H1042 C1054 0.950 . S
H1043 C1055 0.950 . S
C1044 H1036 0.950 . S
C1044 C1045 1.386 . S
C1044 C1046 1.391 . S
C1045 C1044 1.386 . S
C1045 C1049 1.393 . S
C1046 H1038 0.950 . S
C1046 C1044 1.391 . S
C1046 C1047 1.400 . S
C1047 C1046 1.400 . S
C1047 C1048 1.398 . S
C1047 C1053 1.491 . S
C1048 H1039 0.950 . S
C1048 C1047 1.398 . S
C1048 C1049 1.391 . S
C1049 H1037 0.950 . S
C1049 C1045 1.393 . S
C1049 C1048 1.391 . S
C1050 H1040 0.950 . S
C1050 C1051 1.386 . S
C1050 C1052 1.391 . S
C1051 C1050 1.386 . S
C1051 C1055 1.393 . S
C1052 H1041 0.950 . S
C1052 C1050 1.391 . S
C1052 C1053 1.400 . S
C1053 C1047 1.491 . S
C1053 C1052 1.400 . S
C1053 C1054 1.398 . S
C1054 H1042 0.950 . S
C1054 C1053 1.398 . S
C1054 C1055 1.391 . S
C1055 H1043 0.950 . S
C1055 C1051 1.393 . S
C1055 C1054 1.391 . S
H1056 C1064 0.950 . S
H1057 C1069 0.950 . S
H1058 C1066 0.950 . S
H1059 C1068 0.950 . S
H1060 C1070 0.950 . S
H1061 C1072 0.950 . S
H1062 C1074 0.950 . S
H1063 C1075 0.950 . S
C1064 H1056 0.950 . S
C1064 C1065 1.386 . S
C1064 C1066 1.391 . S
C1065 C1064 1.386 . S
C1065 C1069 1.393 . S
C1066 H1058 0.950 . S
C1066 C1064 1.391 . S
C1066 C1067 1.400 . S
C1067 C1066 1.400 . S
C1067 C1068 1.398 . S
C1067 C1073 1.491 . S
C1068 H1059 0.950 . S
C1068 C1067 1.398 . S
C1068 C1069 1.391 . S
C1069 H1057 0.950 . S
C1069 C1065 1.393 . S
C1069 C1068 1.391 . S
C1070 H1060 0.950 . S
C1070 C1071 1.386 . S
C1070 C1072 1.391 . S
C1071 C1070 1.386 . S
C1071 C1075 1.393 . S
C1072 H1061 0.950 . S
C1072 C1070 1.391 . S
C1072 C1073 1.400 . S
C1073 C1067 1.491 . S
C1073 C1072 1.400 . S
C1073 C1074 1.398 . S
C1074 H1062 0.950 . S
C1074 C1073 1.398 . S
C1074 C1075 1.391 . S
C1075 H1063 0.950 . S
C1075 C1071 1.393 . S
C1075 C1074 1.391 . S
H1076 C1084 0.950 . S
H1077 C1089 0.950 . S
H1078 C1086 0.950 . S
H1079 C1088 0.950 . S
H1080 C1090 0.950 . S
H1081 C1092 0.950 . S
H1082 C1094 0.950 . S
H1083 C1095 0.950 . S
C1084 H1076 0.950 . S
C1084 C1085 1.386 . S
C1084 C1086 1.391 . S
C1085 C1084 1.386 . S
C1085 C1089 1.393 . S
C1086 H1078 0.950 . S
C1086 C1084 1.391 . S
C1086 C1087 1.400 . S
C1087 C1086 1.400 . S
C1087 C1088 1.398 . S
C1087 C1093 1.491 . S
C1088 H1079 0.950 . S
C1088 C1087 1.398 . S
C1088 C1089 1.391 . S
C1089 H1077 0.950 . S
C1089 C1085 1.393 . S
C1089 C1088 1.391 . S
C1090 H1080 0.950 . S
C1090 C1091 1.386 . S
C1090 C1092 1.391 . S
C1091 C1090 1.386 . S
C1091 C1095 1.393 . S
C1092 H1081 0.950 . S
C1092 C1090 1.391 . S
C1092 C1093 1.400 . S
C1093 C1087 1.491 . S
C1093 C1092 1.400 . S
C1093 C1094 1.398 . S
C1094 H1082 0.950 . S
C1094 C1093 1.398 . S
C1094 C1095 1.391 . S
C1095 H1083 0.950 . S
C1095 C1091 1.393 . S
C1095 C1094 1.391 . S
H1096 C1104 0.950 . S
H1097 C1109 0.950 . S
H1098 C1106 0.950 . S
H1099 C1108 0.950 . S
H1100 C1110 0.950 . S
H1101 C1112 0.950 . S
H1102 C1114 0.950 . S
H1103 C1115 0.950 . S
C1104 H1096 0.950 . S
C1104 C1105 1.386 . S
C1104 C1106 1.391 . S
C1105 C1104 1.386 . S
C1105 C1109 1.393 . S
C1106 H1098 0.950 . S
C1106 C1104 1.391 . S
C1106 C1107 1.400 . S
C1107 C1106 1.400 . S
C1107 C1108 1.398 . S
C1107 C1113 1.491 . S
C1108 H1099 0.950 . S
C1108 C1107 1.398 . S
C1108 C1109 1.391 . S
C1109 H1097 0.950 . S
C1109 C1105 1.393 . S
C1109 C1108 1.391 . S
C1110 H1100 0.950 . S
C1110 C1111 1.386 . S
C1110 C1112 1.391 . S
C1111 C1110 1.386 . S
C1111 C1115 1.393 . S
C1112 H1101 0.950 . S
C1112 C1110 1.391 . S
C1112 C1113 1.400 . S
C1113 C1107 1.491 . S
C1113 C1112 1.400 . S
C1113 C1114 1.398 . S
C1114 H1102 0.950 . S
C1114 C1113 1.398 . S
C1114 C1115 1.391 . S
C1115 H1103 0.950 . S
C1115 C1111 1.393 . S
C1115 C1114 1.391 . S
H1116 C1124 0.950 . S
H1117 C1129 0.950 . S
H1118 C1126 0.950 . S
H1119 C1128 0.950 . S
H1120 C1130 0.950 . S
H1121 C1132 0.950 . S
H1122 C1134 0.950 . S
H1123 C1135 0.950 . S
C1124 H1116 0.950 . S
C1124 C1125 1.386 . S
C1124 C1126 1.391 . S
C1125 C1124 1.386 . S
C1125 C1129 1.393 . S
C1126 H1118 0.950 . S
C1126 C1124 1.391 . S
C1126 C1127 1.400 . S
C1127 C1126 1.400 . S
C1127 C1128 1.398 . S
C1127 C1133 1.491 . S
C1128 H1119 0.950 . S
C1128 C1127 1.398 . S
C1128 C1129 1.391 . S
C1129 H1117 0.950 . S
C1129 C1125 1.393 . S
C1129 C1128 1.391 . S
C1130 H1120 0.950 . S
C1130 C1131 1.386 . S
C1130 C1132 1.391 . S
C1131 C1130 1.386 . S
C1131 C1135 1.393 . S
C1132 H1121 0.950 . S
C1132 C1130 1.391 . S
C1132 C1133 1.400 . S
C1133 C1127 1.491 . S
C1133 C1132 1.400 . S
C1133 C1134 1.398 . S
C1134 H1122 0.950 . S
C1134 C1133 1.398 . S
C1134 C1135 1.391 . S
C1135 H1123 0.950 . S
C1135 C1131 1.393 . S
C1135 C1134 1.391 . S
H1136 C1144 0.950 . S
H1137 C1149 0.950 . S
H1138 C1146 0.950 1_565 S
H1139 C1148 0.950 . S
H1140 C1150 0.950 . S
H1141 C1152 0.950 1_545 S
H1142 C1154 0.950 . S
H1143 C1155 0.950 . S
C1144 H1136 0.950 . S
C1144 C1145 1.386 . S
C1144 C1146 1.391 . S
C1145 C1144 1.386 . S
C1145 C1149 1.393 . S
C1146 H1138 0.950 1_545 S
C1146 C1144 1.391 . S
C1146 C1147 1.400 . S
C1147 C1146 1.400 . S
C1147 C1148 1.398 . S
C1147 C1153 1.491 1_544 S
C1148 H1139 0.950 . S
C1148 C1147 1.398 . S
C1148 C1149 1.391 . S
C1149 H1137 0.950 . S
C1149 C1145 1.393 . S
C1149 C1148 1.391 . S
C1150 H1140 0.950 . S
C1150 C1151 1.386 . S
C1150 C1152 1.391 . S
C1151 C1150 1.386 . S
C1151 C1155 1.393 . S
C1152 H1141 0.950 1_565 S
C1152 C1150 1.391 . S
C1152 C1153 1.400 . S
C1153 C1147 1.491 1_566 S
C1153 C1152 1.400 . S
C1153 C1154 1.398 . S
C1154 H1142 0.950 . S
C1154 C1153 1.398 . S
C1154 C1155 1.391 . S
C1155 H1143 0.950 . S
C1155 C1151 1.393 . S
C1155 C1154 1.391 . S
H1156 C1164 0.948 1_655 S
H1157 C1169 0.950 . S
H1158 C1166 0.950 . S
H1159 C1168 0.950 . S
H1160 C1170 0.948 1_455 S
H1161 C1172 0.950 . S
H1162 C1174 0.950 . S
H1163 C1175 0.950 . S
C1164 H1156 0.948 1_455 S
C1164 C1165 1.386 . S
C1164 C1166 1.391 1_455 S
C1165 C1164 1.386 . S
C1165 C1169 1.393 . S
C1166 H1158 0.950 . S
C1166 C1164 1.391 1_655 S
C1166 C1167 1.400 1_655 S
C1167 C1166 1.400 1_455 S
C1167 C1168 1.398 . S
C1167 C1173 1.491 1_456 S
C1168 H1159 0.950 . S
C1168 C1167 1.398 . S
C1168 C1169 1.391 . S
C1169 H1157 0.950 . S
C1169 C1165 1.393 . S
C1169 C1168 1.391 . S
C1170 H1160 0.948 1_655 S
C1170 C1171 1.386 . S
C1170 C1172 1.391 1_655 S
C1171 C1170 1.386 . S
C1171 C1175 1.393 . S
C1172 H1161 0.950 . S
C1172 C1170 1.391 1_455 S
C1172 C1173 1.400 1_455 S
C1173 C1167 1.491 1_654 S
C1173 C1172 1.400 1_655 S
C1173 C1174 1.398 . S
C1174 H1162 0.950 . S
C1174 C1173 1.398 . S
C1174 C1175 1.391 . S
C1175 H1163 0.950 . S
C1175 C1171 1.393 . S
C1175 C1174 1.391 . S
H1176 C1184 0.950 . S
H1177 C1189 0.950 1_565 S
H1178 C1186 0.950 . S
H1179 C1188 0.950 . S
H1180 C1190 0.950 . S
H1181 C1192 0.950 . S
H1182 C1194 0.950 . S
H1183 C1195 0.950 1_545 S
C1184 H1176 0.950 . S
C1184 C1185 1.386 . S
C1184 C1186 1.391 . S
C1185 C1184 1.386 . S
C1185 C1189 1.393 . S
C1186 H1178 0.950 . S
C1186 C1184 1.391 . S
C1186 C1187 1.400 . S
C1187 C1186 1.400 . S
C1187 C1188 1.398 1_545 S
C1187 C1193 1.491 1_546 S
C1188 H1179 0.950 . S
C1188 C1187 1.398 1_565 S
C1188 C1189 1.391 1_565 S
C1189 H1177 0.950 1_545 S
C1189 C1185 1.393 . S
C1189 C1188 1.391 1_545 S
C1190 H1180 0.950 . S
C1190 C1191 1.386 . S
C1190 C1192 1.391 . S
C1191 C1190 1.386 . S
C1191 C1195 1.393 . S
C1192 H1181 0.950 . S
C1192 C1190 1.391 . S
C1192 C1193 1.400 . S
C1193 C1187 1.491 1_564 S
C1193 C1192 1.400 . S
C1193 C1194 1.398 1_565 S
C1194 H1182 0.950 . S
C1194 C1193 1.398 1_545 S
C1194 C1195 1.391 1_545 S
C1195 H1183 0.950 1_565 S
C1195 C1191 1.393 . S
C1195 C1194 1.391 1_565 S
H1196 C1204 0.950 . S
H1197 C1209 0.950 . S
H1198 C1206 0.950 . S
H1199 C1208 0.950 . S
H1200 C1210 0.950 . S
H1201 C1212 0.950 . S
H1202 C1214 0.950 . S
H1203 C1215 0.950 . S
C1204 H1196 0.950 . S
C1204 C1205 1.386 1_455 S
C1204 C1206 1.391 . S
C1205 C1204 1.386 1_655 S
C1205 C1209 1.393 . S
C1206 H1198 0.950 . S
C1206 C1204 1.391 . S
C1206 C1207 1.400 1_455 S
C1207 C1206 1.400 1_655 S
C1207 C1208 1.398 . S
C1207 C1213 1.491 1_656 S
C1208 H1199 0.950 . S
C1208 C1207 1.398 . S
C1208 C1209 1.391 . S
C1209 H1197 0.950 . S
C1209 C1205 1.393 . S
C1209 C1208 1.391 . S
C1210 H1200 0.950 . S
C1210 C1211 1.386 1_655 S
C1210 C1212 1.391 . S
C1211 C1210 1.386 1_455 S
C1211 C1215 1.393 . S
C1212 H1201 0.950 . S
C1212 C1210 1.391 . S
C1212 C1213 1.400 1_655 S
C1213 C1207 1.491 1_454 S
C1213 C1212 1.400 1_455 S
C1213 C1214 1.398 . S
C1214 H1202 0.950 . S
C1214 C1213 1.398 . S
C1214 C1215 1.391 . S
C1215 H1203 0.950 . S
C1215 C1211 1.393 . S
C1215 C1214 1.391 . S
C585 C4 1.222 . S
C591 C256 1.205 . S
C605 C40 1.219 . S
C611 C148 1.208 . S
C625 C184 1.224 . S
C631 C76 1.203 . S
C645 C112 1.211 . S
C651 C220 1.216 . S
C665 C292 1.202 . S
C671 C544 1.224 . S
C685 C436 1.225 . S
C691 C328 1.202 . S
C705 C472 1.202 . S
C711 C364 1.225 . S
C725 C508 1.215 . S
C731 C400 1.212 . S
C745 C3 1.349 . S
C751 C398 1.352 . S
C765 C39 1.341 . S
C771 C290 1.362 . S
C785 C326 1.352 . S
C791 C75 1.353 . S
C805 C111 1.354 . S
C811 C362 1.353 . S
C825 C147 1.344 . S
C831 C470 1.362 . S
C845 C506 1.354 . S
C851 C183 1.344 . S
C865 C219 1.349 . S
C871 C542 1.352 . S
C885 C434 1.355 . S
C891 C255 1.342 . S
C905 C291 1.355 . S
C911 C110 1.353 . S
C925 C2 1.352 . S
C931 C327 1.351 . S
C945 C363 1.349 . S
C951 C38 1.362 . S
C965 C74 1.352 . S
C971 C399 1.348 . S
C985 C435 1.351 . S
C991 C182 1.352 . S
C1005 C218 1.352 . S
C1011 C471 1.352 . S
C1025 C254 1.357 . S
C1031 C507 1.355 . S
C1045 C146 1.354 . S
C1051 C543 1.355 . S
C1065 C158 1.564 . S
C1071 C14 1.563 . S
C1085 C194 1.563 . S
C1091 C50 1.562 . S
C1105 C86 1.549 . S
C1111 C230 1.549 . S
C1125 C266 1.553 . S
C1131 C122 1.553 . S
C1145 C446 1.570 . S
C1151 C302 1.570 . S
C1165 C482 1.569 . S
C1171 C338 1.569 . S
C1185 C374 1.570 . S
C1191 C518 1.570 . S
C1205 C554 1.551 . S
C1211 C410 1.552 . S
