# Generated by pormake.
# Topology dei, (4)-cn, num edge types: 1
# Building blocks:
#     Node 0, Type 0, BuildingBlock: KUFVIS_clean_sbu_0, # of connection points: 4
#     Node 1, Type 0, BuildingBlock: KUFVIS_clean_sbu_0, # of connection points: 4
#     Node 2, Type 0, BuildingBlock: KUFVIS_clean_sbu_0, # of connection points: 4
#     Node 3, Type 0, BuildingBlock: KUFVIS_clean_sbu_0, # of connection points: 4
#     Node 4, Type 0, BuildingBlock: KUFVIS_clean_sbu_0, # of connection points: 4
#     Node 5, Type 0, BuildingBlock: KUFVIS_clean_sbu_0, # of connection points: 4
#     Node 6, Type 0, BuildingBlock: KUFVIS_clean_sbu_0, # of connection points: 4
#     Node 7, Type 0, BuildingBlock: KUFVIS_clean_sbu_0, # of connection points: 4
#     Node 8, Type 0, BuildingBlock: KUFVIS_clean_sbu_0, # of connection points: 4
#     Node 9, Type 0, BuildingBlock: KUFVIS_clean_sbu_0, # of connection points: 4
#     Node 10, Type 0, BuildingBlock: KUFVIS_clean_sbu_0, # of connection points: 4
#     Node 11, Type 0, BuildingBlock: KUFVIS_clean_sbu_0, # of connection points: 4
#     Node 12, Type 0, BuildingBlock: KUFVIS_clean_sbu_0, # of connection points: 4
#     Node 13, Type 0, BuildingBlock: KUFVIS_clean_sbu_0, # of connection points: 4
#     Node 14, Type 0, BuildingBlock: KUFVIS_clean_sbu_0, # of connection points: 4
#     Node 15, Type 0, BuildingBlock: KUFVIS_clean_sbu_0, # of connection points: 4
#     Node 16, Type 0, BuildingBlock: KUFVIS_clean_sbu_0, # of connection points: 4
#     Node 17, Type 0, BuildingBlock: KUFVIS_clean_sbu_0, # of connection points: 4
#     Node 18, Type 0, BuildingBlock: KUFVIS_clean_sbu_0, # of connection points: 4
#     Node 19, Type 0, BuildingBlock: KUFVIS_clean_sbu_0, # of connection points: 4
#     Node 20, Type 0, BuildingBlock: KUFVIS_clean_sbu_0, # of connection points: 4
#     Node 21, Type 0, BuildingBlock: KUFVIS_clean_sbu_0, # of connection points: 4
#     Node 22, Type 0, BuildingBlock: KUFVIS_clean_sbu_0, # of connection points: 4
#     Node 23, Type 0, BuildingBlock: KUFVIS_clean_sbu_0, # of connection points: 4
#     Node 24, Type 0, BuildingBlock: KUFVIS_clean_sbu_0, # of connection points: 4
#     Node 25, Type 0, BuildingBlock: KUFVIS_clean_sbu_0, # of connection points: 4
#     Node 26, Type 0, BuildingBlock: KUFVIS_clean_sbu_0, # of connection points: 4
#     Node 27, Type 0, BuildingBlock: KUFVIS_clean_sbu_0, # of connection points: 4
#     Node 28, Type 0, BuildingBlock: KUFVIS_clean_sbu_0, # of connection points: 4
#     Node 29, Type 0, BuildingBlock: KUFVIS_clean_sbu_0, # of connection points: 4
#     Node 30, Type 0, BuildingBlock: KUFVIS_clean_sbu_0, # of connection points: 4
#     Node 31, Type 0, BuildingBlock: KUFVIS_clean_sbu_0, # of connection points: 4
#     Edge 32, Type (0, 0), BuildingBlock: XIVTED_clean_linker_0, # of connection points: 2
#     Edge 33, Type (0, 0), BuildingBlock: XIVTED_clean_linker_0, # of connection points: 2
#     Edge 34, Type (0, 0), BuildingBlock: XIVTED_clean_linker_0, # of connection points: 2
#     Edge 35, Type (0, 0), BuildingBlock: XIVTED_clean_linker_0, # of connection points: 2
#     Edge 36, Type (0, 0), BuildingBlock: XIVTED_clean_linker_0, # of connection points: 2
#     Edge 37, Type (0, 0), BuildingBlock: XIVTED_clean_linker_0, # of connection points: 2
#     Edge 38, Type (0, 0), BuildingBlock: XIVTED_clean_linker_0, # of connection points: 2
#     Edge 39, Type (0, 0), BuildingBlock: XIVTED_clean_linker_0, # of connection points: 2
#     Edge 40, Type (0, 0), BuildingBlock: XIVTED_clean_linker_0, # of connection points: 2
#     Edge 41, Type (0, 0), BuildingBlock: XIVTED_clean_linker_0, # of connection points: 2
#     Edge 42, Type (0, 0), BuildingBlock: XIVTED_clean_linker_0, # of connection points: 2
#     Edge 43, Type (0, 0), BuildingBlock: XIVTED_clean_linker_0, # of connection points: 2
#     Edge 44, Type (0, 0), BuildingBlock: XIVTED_clean_linker_0, # of connection points: 2
#     Edge 45, Type (0, 0), BuildingBlock: XIVTED_clean_linker_0, # of connection points: 2
#     Edge 46, Type (0, 0), BuildingBlock: XIVTED_clean_linker_0, # of connection points: 2
#     Edge 47, Type (0, 0), BuildingBlock: XIVTED_clean_linker_0, # of connection points: 2
#     Edge 48, Type (0, 0), BuildingBlock: XIVTED_clean_linker_0, # of connection points: 2
#     Edge 49, Type (0, 0), BuildingBlock: XIVTED_clean_linker_0, # of connection points: 2
#     Edge 50, Type (0, 0), BuildingBlock: XIVTED_clean_linker_0, # of connection points: 2
#     Edge 51, Type (0, 0), BuildingBlock: XIVTED_clean_linker_0, # of connection points: 2
#     Edge 52, Type (0, 0), BuildingBlock: XIVTED_clean_linker_0, # of connection points: 2
#     Edge 53, Type (0, 0), BuildingBlock: XIVTED_clean_linker_0, # of connection points: 2
#     Edge 54, Type (0, 0), BuildingBlock: XIVTED_clean_linker_0, # of connection points: 2
#     Edge 55, Type (0, 0), BuildingBlock: XIVTED_clean_linker_0, # of connection points: 2
#     Edge 56, Type (0, 0), BuildingBlock: XIVTED_clean_linker_0, # of connection points: 2
#     Edge 57, Type (0, 0), BuildingBlock: XIVTED_clean_linker_0, # of connection points: 2
#     Edge 58, Type (0, 0), BuildingBlock: XIVTED_clean_linker_0, # of connection points: 2
#     Edge 59, Type (0, 0), BuildingBlock: XIVTED_clean_linker_0, # of connection points: 2
#     Edge 60, Type (0, 0), BuildingBlock: XIVTED_clean_linker_0, # of connection points: 2
#     Edge 61, Type (0, 0), BuildingBlock: XIVTED_clean_linker_0, # of connection points: 2
#     Edge 62, Type (0, 0), BuildingBlock: XIVTED_clean_linker_0, # of connection points: 2
#     Edge 63, Type (0, 0), BuildingBlock: XIVTED_clean_linker_0, # of connection points: 2
#     Edge 64, Type (0, 0), BuildingBlock: XIVTED_clean_linker_0, # of connection points: 2
#     Edge 65, Type (0, 0), BuildingBlock: XIVTED_clean_linker_0, # of connection points: 2
#     Edge 66, Type (0, 0), BuildingBlock: XIVTED_clean_linker_0, # of connection points: 2
#     Edge 67, Type (0, 0), BuildingBlock: XIVTED_clean_linker_0, # of connection points: 2
#     Edge 68, Type (0, 0), BuildingBlock: XIVTED_clean_linker_0, # of connection points: 2
#     Edge 69, Type (0, 0), BuildingBlock: XIVTED_clean_linker_0, # of connection points: 2
#     Edge 70, Type (0, 0), BuildingBlock: XIVTED_clean_linker_0, # of connection points: 2
#     Edge 71, Type (0, 0), BuildingBlock: XIVTED_clean_linker_0, # of connection points: 2
#     Edge 72, Type (0, 0), BuildingBlock: XIVTED_clean_linker_0, # of connection points: 2
#     Edge 73, Type (0, 0), BuildingBlock: XIVTED_clean_linker_0, # of connection points: 2
#     Edge 74, Type (0, 0), BuildingBlock: XIVTED_clean_linker_0, # of connection points: 2
#     Edge 75, Type (0, 0), BuildingBlock: XIVTED_clean_linker_0, # of connection points: 2
#     Edge 76, Type (0, 0), BuildingBlock: XIVTED_clean_linker_0, # of connection points: 2
#     Edge 77, Type (0, 0), BuildingBlock: XIVTED_clean_linker_0, # of connection points: 2
#     Edge 78, Type (0, 0), BuildingBlock: XIVTED_clean_linker_0, # of connection points: 2
#     Edge 79, Type (0, 0), BuildingBlock: XIVTED_clean_linker_0, # of connection points: 2
#     Edge 80, Type (0, 0), BuildingBlock: XIVTED_clean_linker_0, # of connection points: 2
#     Edge 81, Type (0, 0), BuildingBlock: XIVTED_clean_linker_0, # of connection points: 2
#     Edge 82, Type (0, 0), BuildingBlock: XIVTED_clean_linker_0, # of connection points: 2
#     Edge 83, Type (0, 0), BuildingBlock: XIVTED_clean_linker_0, # of connection points: 2
#     Edge 84, Type (0, 0), BuildingBlock: XIVTED_clean_linker_0, # of connection points: 2
#     Edge 85, Type (0, 0), BuildingBlock: XIVTED_clean_linker_0, # of connection points: 2
#     Edge 86, Type (0, 0), BuildingBlock: XIVTED_clean_linker_0, # of connection points: 2
#     Edge 87, Type (0, 0), BuildingBlock: XIVTED_clean_linker_0, # of connection points: 2
#     Edge 88, Type (0, 0), BuildingBlock: XIVTED_clean_linker_0, # of connection points: 2
#     Edge 89, Type (0, 0), BuildingBlock: XIVTED_clean_linker_0, # of connection points: 2
#     Edge 90, Type (0, 0), BuildingBlock: XIVTED_clean_linker_0, # of connection points: 2
#     Edge 91, Type (0, 0), BuildingBlock: XIVTED_clean_linker_0, # of connection points: 2
#     Edge 92, Type (0, 0), BuildingBlock: XIVTED_clean_linker_0, # of connection points: 2
#     Edge 93, Type (0, 0), BuildingBlock: XIVTED_clean_linker_0, # of connection points: 2
#     Edge 94, Type (0, 0), BuildingBlock: XIVTED_clean_linker_0, # of connection points: 2
#     Edge 95, Type (0, 0), BuildingBlock: XIVTED_clean_linker_0, # of connection points: 2
# Relax obj value: 0.223
# Max RMSD: 0.066
# Mean RMSD: 0.066
data_MOF--net-dei--node1-KUFVIS_clean_sbu_0--edge1-XIVTED_clean_linker_0
_symmetry_space_group_name_H-M    P1
_symmetry_Int_Tables_number       1
_symmetry_cell_setting            triclinic
loop_
_symmetry_equiv_pos_as_xyz
'x, y, z'
_cell_length_a     57.86584
_cell_length_b     57.88474
_cell_length_c     78.313058
_cell_angle_alpha  90.007221
_cell_angle_beta   90.001106
_cell_angle_gamma 90.013936
loop_
_atom_site_label
_atom_site_type_symbol
_atom_site_fract_x
_atom_site_fract_y
_atom_site_fract_z
_atom_type_partial_charge
Mn0 Mn 0.13314 0.62381 0.0352 0.0
Mn1 Mn 0.11683 0.66062 0.0664 0.0
C2 C 0.0964 0.6403 0.03469 0.0
C3 C 0.13684 0.58575 0.02523 0.0
C4 C 0.14992 0.67367 0.03794 0.0
O5 O 0.15638 0.61727 0.05433 0.0
O6 O 0.14126 0.63984 0.07499 0.0
C7 C 0.09633 0.62856 0.09165 0.0
N8 N 0.09438 0.64739 0.08133 0.0
C9 C 0.05848 0.6584 0.09448 0.0
C10 C 0.05999 0.63905 0.1052 0.0
C11 C 0.07888 0.62393 0.10365 0.0
C12 C 0.07592 0.66162 0.08234 0.0
H13 H 0.11122 0.61736 0.09088 0.0
C14 C 0.15562 0.62466 0.06969 0.0
O15 O 0.14956 0.60235 0.0192 0.0
O16 O 0.12201 0.59125 0.03695 0.0
N17 N 0.09291 0.68163 0.05985 0.0
C18 C 0.09347 0.69876 0.04794 0.0
C19 C 0.07536 0.7149 0.04729 0.0
C20 C 0.05726 0.71365 0.05921 0.0
C21 C 0.05716 0.69591 0.07142 0.0
C22 C 0.07519 0.67982 0.07101 0.0
H23 H 0.10777 0.70029 0.03916 0.0
O24 O 0.1057 0.63212 0.02086 0.0
O25 O 0.10885 0.63847 0.04841 0.0
O26 O 0.14855 0.65505 0.02925 0.0
O27 O 0.13962 0.67668 0.05212 0.0
C28 C 0.04012 0.69379 0.08417 0.0
C29 C 0.04063 0.6749 0.09558 0.0
H30 H 0.04682 0.63571 0.11471 0.0
H31 H 0.08024 0.60903 0.11193 0.0
H32 H 0.07563 0.72859 0.03788 0.0
H33 H 0.0436 0.72643 0.05893 0.0
H34 H 0.02616 0.70621 0.08501 0.0
H35 H 0.0271 0.67312 0.10504 0.0
Mn36 Mn 0.62902 0.87817 0.28516 0.0
Mn37 Mn 0.59163 0.86136 0.31589 0.0
C38 C 0.61131 0.84208 0.28361 0.0
C39 C 0.66714 0.88071 0.27494 0.0
C40 C 0.57933 0.89586 0.28823 0.0
O41 O 0.63679 0.89978 0.30501 0.0
O42 O 0.61261 0.88543 0.32494 0.0
C43 C 0.62333 0.84015 0.34109 0.0
N44 N 0.60466 0.83847 0.33056 0.0
C45 C 0.59334 0.80232 0.3432 0.0
C46 C 0.61251 0.80357 0.35411 0.0
C47 C 0.6277 0.82246 0.35293 0.0
C48 C 0.59034 0.82005 0.33126 0.0
H49 H 0.63459 0.85502 0.34061 0.0
C50 C 0.6288 0.89905 0.3202 0.0
O51 O 0.65122 0.8949 0.26977 0.0
O52 O 0.66096 0.8653 0.28603 0.0
N53 N 0.5705 0.83773 0.30898 0.0
C54 C 0.55344 0.83867 0.29701 0.0
C55 C 0.5373 0.82059 0.29598 0.0
C56 C 0.53848 0.8021 0.30757 0.0
C57 C 0.55613 0.80161 0.31984 0.0
C58 C 0.57222 0.81967 0.31983 0.0
H59 H 0.552 0.85323 0.28846 0.0
O60 O 0.6194 0.85205 0.27 0.0
O61 O 0.61363 0.85367 0.2977 0.0
O62 O 0.59833 0.89519 0.27994 0.0
O63 O 0.57574 0.88452 0.30189 0.0
C64 C 0.55817 0.78415 0.33229 0.0
C65 C 0.57684 0.78443 0.3439 0.0
H66 H 0.61568 0.79019 0.3635 0.0
H67 H 0.64247 0.82361 0.36137 0.0
H68 H 0.52367 0.82116 0.28652 0.0
H69 H 0.52569 0.78845 0.30699 0.0
H70 H 0.54578 0.77013 0.3328 0.0
H71 H 0.57849 0.77066 0.35318 0.0
Mn72 Mn 0.38042 0.39276 0.52994 0.0
Mn73 Mn 0.40244 0.35864 0.56093 0.0
C74 C 0.41779 0.37843 0.52747 0.0
C75 C 0.37384 0.43034 0.51987 0.0
C76 C 0.36712 0.34209 0.53501 0.0
O77 O 0.35881 0.39851 0.55026 0.0
O78 O 0.37766 0.37815 0.57053 0.0
C79 C 0.42364 0.3944 0.58294 0.0
N80 N 0.42573 0.37487 0.57335 0.0
C81 C 0.46644 0.37256 0.57925 0.0
C82 C 0.46472 0.39257 0.58926 0.0
C83 C 0.44321 0.40352 0.59112 0.0
C84 C 0.44629 0.36409 0.57158 0.0
H85 H 0.40718 0.403 0.58427 0.0
C86 C 0.36168 0.39192 0.56569 0.0
O87 O 0.36133 0.41307 0.51465 0.0
O88 O 0.38998 0.42575 0.5308 0.0
N89 N 0.42691 0.33905 0.55323 0.0
C90 C 0.42588 0.32057 0.54246 0.0
C91 C 0.44605 0.30794 0.53898 0.0
C92 C 0.46705 0.31447 0.54657 0.0
C93 C 0.4676 0.33341 0.55773 0.0
C94 C 0.44688 0.34504 0.561 0.0
H95 H 0.40982 0.31554 0.53652 0.0
O96 O 0.40684 0.38572 0.51406 0.0
O97 O 0.40658 0.37994 0.54178 0.0
O98 O 0.36644 0.36028 0.52572 0.0
O99 O 0.37904 0.34039 0.54866 0.0
C100 C 0.48806 0.34176 0.56519 0.0
C101 C 0.48751 0.36122 0.57602 0.0
H102 H 0.47985 0.39982 0.5954 0.0
H103 H 0.44175 0.41904 0.59875 0.0
H104 H 0.44546 0.29333 0.53037 0.0
H105 H 0.48268 0.30497 0.54362 0.0
H106 H 0.50443 0.33395 0.56198 0.0
H107 H 0.50348 0.36778 0.58136 0.0
Mn108 Mn 0.86949 0.13055 0.78392 0.0
Mn109 Mn 0.90664 0.14465 0.8156 0.0
C110 C 0.88838 0.16609 0.78357 0.0
C111 C 0.83158 0.12932 0.77312 0.0
C112 C 0.91886 0.11172 0.78693 0.0
O113 O 0.86073 0.10797 0.80295 0.0
O114 O 0.88524 0.12021 0.82339 0.0
C115 C 0.87441 0.16439 0.84108 0.0
N116 N 0.89349 0.16655 0.83102 0.0
C117 C 0.90513 0.20123 0.84556 0.0
C118 C 0.88555 0.19948 0.85604 0.0
C119 C 0.86999 0.18111 0.85366 0.0
C120 C 0.90817 0.18452 0.83285 0.0
H121 H 0.86286 0.14985 0.83967 0.0
C122 C 0.86881 0.10729 0.81811 0.0
O123 O 0.84737 0.1151 0.76778 0.0
O124 O 0.83778 0.14409 0.78468 0.0
N125 N 0.92833 0.16842 0.81007 0.0
C126 C 0.94577 0.16812 0.79839 0.0
C127 C 0.96233 0.18587 0.79853 0.0
C128 C 0.96119 0.20328 0.81101 0.0
C129 C 0.94316 0.20308 0.82299 0.0
C130 C 0.92667 0.18548 0.82178 0.0
H131 H 0.94718 0.15429 0.78919 0.0
O132 O 0.88015 0.15712 0.76963 0.0
O133 O 0.88527 0.15401 0.79738 0.0
O134 O 0.89993 0.11305 0.77859 0.0
O135 O 0.92251 0.12237 0.80088 0.0
C136 C 0.9411 0.21941 0.83626 0.0
C137 C 0.922 0.2186 0.84744 0.0
H138 H 0.88236 0.21207 0.866 0.0
H139 H 0.85491 0.17956 0.86176 0.0
H140 H 0.97625 0.18584 0.7893 0.0
H141 H 0.97428 0.21666 0.81132 0.0
H142 H 0.95385 0.23297 0.83773 0.0
H143 H 0.92036 0.23155 0.85736 0.0
Mn144 Mn 0.12085 0.38768 0.9688 0.0
Mn145 Mn 0.0955 0.35647 0.93752 0.0
C146 C 0.08246 0.37652 0.97145 0.0
C147 C 0.13037 0.42446 0.97931 0.0
C148 C 0.12936 0.33599 0.96302 0.0
O149 O 0.14271 0.39207 0.94846 0.0
O150 O 0.1222 0.37351 0.92813 0.0
C151 C 0.07816 0.39484 0.9161 0.0
N152 N 0.07403 0.37536 0.92536 0.0
C153 C 0.0333 0.37748 0.91951 0.0
C154 C 0.03711 0.39748 0.9098 0.0
C155 C 0.05965 0.40618 0.90809 0.0
C156 C 0.05245 0.36674 0.92701 0.0
H157 H 0.09543 0.40173 0.91489 0.0
C158 C 0.13933 0.38578 0.93302 0.0
O159 O 0.1416 0.4062 0.98428 0.0
O160 O 0.11393 0.42131 0.96837 0.0
N161 N 0.06912 0.33928 0.94492 0.0
C162 C 0.06823 0.32046 0.95536 0.0
C163 C 0.04683 0.30991 0.95867 0.0
C164 C 0.02662 0.31885 0.95126 0.0
C165 C 0.02806 0.33807 0.94042 0.0
C166 C 0.04988 0.34754 0.93728 0.0
H167 H 0.08369 0.31362 0.96118 0.0
O168 O 0.09422 0.38248 0.98484 0.0
O169 O 0.09349 0.37748 0.95703 0.0
O170 O 0.13211 0.35394 0.97241 0.0
O171 O 0.1169 0.33568 0.94956 0.0
C172 C 0.00859 0.3488 0.93319 0.0
C173 C 0.01115 0.36832 0.9226 0.0
H174 H 0.02283 0.40644 0.9038 0.0
H175 H 0.06273 0.42169 0.90071 0.0
H176 H 0.04589 0.29508 0.96706 0.0
H177 H 0.01007 0.31097 0.9541 0.0
H178 H 0.99149 0.3428 0.93641 0.0
H179 H 0.99593 0.37657 0.91735 0.0
Mn180 Mn 0.86786 0.87148 0.21971 0.0
Mn181 Mn 0.90357 0.85027 0.1894 0.0
C182 C 0.88299 0.83438 0.22236 0.0
C183 C 0.82982 0.87649 0.22962 0.0
C184 C 0.91844 0.88611 0.21543 0.0
O185 O 0.86191 0.89264 0.19912 0.0
O186 O 0.88382 0.87454 0.17932 0.0
C187 C 0.86907 0.82805 0.16686 0.0
N188 N 0.88834 0.82652 0.17679 0.0
C189 C 0.89161 0.78579 0.17139 0.0
C190 C 0.87187 0.78691 0.16103 0.0
C191 C 0.86057 0.80816 0.15874 0.0
C192 C 0.89947 0.80622 0.17895 0.0
H193 H 0.86017 0.8443 0.16523 0.0
C194 C 0.86928 0.89001 0.18384 0.0
O195 O 0.84637 0.89015 0.23454 0.0
O196 O 0.83532 0.86048 0.21883 0.0
N197 N 0.92338 0.82633 0.19768 0.0
C198 C 0.94125 0.82785 0.20896 0.0
C199 C 0.95409 0.80799 0.21294 0.0
C200 C 0.94836 0.78679 0.20533 0.0
C201 C 0.92997 0.78571 0.1937 0.0
C202 C 0.9181 0.80614 0.18996 0.0
H203 H 0.94566 0.84406 0.21494 0.0
O204 O 0.87538 0.84523 0.23572 0.0
O205 O 0.8817 0.84571 0.20811 0.0
O206 O 0.89984 0.88654 0.22429 0.0
O207 O 0.92089 0.87412 0.20189 0.0
C208 C 0.92237 0.76499 0.18621 0.0
C209 C 0.9032 0.76502 0.17507 0.0
H210 H 0.86509 0.77153 0.15496 0.0
H211 H 0.84525 0.80916 0.15085 0.0
H212 H 0.96823 0.80898 0.22195 0.0
H213 H 0.95802 0.7714 0.20865 0.0
H214 H 0.9306 0.74886 0.18953 0.0
H215 H 0.8969 0.74891 0.1699 0.0
Mn216 Mn 0.37816 0.63017 0.46496 0.0
Mn217 Mn 0.39596 0.6655 0.43332 0.0
C218 C 0.41541 0.64538 0.46545 0.0
C219 C 0.37322 0.59244 0.47526 0.0
C220 C 0.36344 0.68062 0.46158 0.0
O221 O 0.35481 0.62388 0.4459 0.0
O222 O 0.37057 0.64561 0.42503 0.0
C223 C 0.41475 0.63192 0.40842 0.0
N224 N 0.41766 0.65087 0.4185 0.0
C225 C 0.45388 0.65996 0.40503 0.0
C226 C 0.45137 0.64047 0.39455 0.0
C227 C 0.43183 0.62625 0.39638 0.0
C228 C 0.43673 0.66423 0.41722 0.0
H229 H 0.39937 0.62141 0.40941 0.0
C230 C 0.35577 0.63095 0.43047 0.0
O231 O 0.36101 0.6095 0.48116 0.0
O232 O 0.38826 0.59731 0.46355 0.0
N233 N 0.42086 0.68553 0.4395 0.0
C234 C 0.42125 0.70286 0.45127 0.0
C235 C 0.44019 0.71803 0.45174 0.0
C236 C 0.45814 0.71565 0.43977 0.0
C237 C 0.45723 0.69775 0.42771 0.0
C238 C 0.4384 0.68262 0.42833 0.0
H239 H 0.4071 0.70525 0.46008 0.0
O240 O 0.40568 0.6379 0.47933 0.0
O241 O 0.40306 0.6436 0.45166 0.0
O242 O 0.36381 0.66209 0.47043 0.0
O243 O 0.37402 0.68291 0.44744 0.0
C244 C 0.47408 0.69453 0.41494 0.0
C245 C 0.47249 0.67555 0.40368 0.0
H246 H 0.46427 0.63633 0.38501 0.0
H247 H 0.4297 0.61125 0.38828 0.0
H248 H 0.44071 0.73185 0.46104 0.0
H249 H 0.47248 0.72768 0.43993 0.0
H250 H 0.48863 0.70623 0.41392 0.0
H251 H 0.48581 0.67298 0.39416 0.0
Mn252 Mn 0.63136 0.13292 0.71623 0.0
Mn253 Mn 0.59519 0.15 0.68481 0.0
C254 C 0.61461 0.16951 0.71708 0.0
C255 C 0.66917 0.12977 0.72703 0.0
C256 C 0.58108 0.11676 0.71281 0.0
O257 O 0.63891 0.11046 0.69681 0.0
O258 O 0.61528 0.12477 0.67651 0.0
C259 C 0.6285 0.16915 0.65985 0.0
N260 N 0.60949 0.17181 0.66991 0.0
C261 C 0.59963 0.20759 0.65613 0.0
C262 C 0.61918 0.20535 0.64567 0.0
C263 C 0.63382 0.18617 0.64768 0.0
C264 C 0.59574 0.19057 0.66848 0.0
H265 H 0.63931 0.15401 0.66096 0.0
C266 C 0.63088 0.11075 0.68163 0.0
O267 O 0.65277 0.11609 0.73217 0.0
O268 O 0.66365 0.14496 0.7156 0.0
N269 N 0.5748 0.17463 0.69091 0.0
C270 C 0.55744 0.1748 0.70266 0.0
C271 C 0.54184 0.19338 0.70295 0.0
C272 C 0.54381 0.21116 0.69081 0.0
C273 C 0.56173 0.21046 0.67876 0.0
C274 C 0.57732 0.19204 0.67958 0.0
H275 H 0.55536 0.16073 0.71158 0.0
O276 O 0.62213 0.1597 0.73092 0.0
O277 O 0.61697 0.15753 0.70317 0.0
O278 O 0.59998 0.11688 0.72126 0.0
O279 O 0.57813 0.12799 0.69903 0.0
C280 C 0.56455 0.22712 0.66581 0.0
C281 C 0.58358 0.22579 0.65458 0.0
H282 H 0.62304 0.21817 0.63601 0.0
H283 H 0.64888 0.18425 0.63961 0.0
H284 H 0.52799 0.19373 0.71224 0.0
H285 H 0.53143 0.2252 0.69082 0.0
H286 H 0.55251 0.24136 0.66463 0.0
H287 H 0.58586 0.23899 0.64492 0.0
Mn288 Mn 0.87406 0.38233 0.96548 0.0
Mn289 Mn 0.89156 0.34554 0.93462 0.0
C290 C 0.91063 0.36563 0.96686 0.0
C291 C 0.87026 0.42031 0.97561 0.0
C292 C 0.85725 0.33251 0.96228 0.0
O293 O 0.85178 0.3892 0.94582 0.0
O294 O 0.8675 0.3664 0.92554 0.0
C295 C 0.91297 0.37746 0.90969 0.0
N296 N 0.91457 0.35872 0.92013 0.0
C297 C 0.95067 0.34735 0.90744 0.0
C298 C 0.94951 0.36661 0.89661 0.0
C299 C 0.9307 0.38188 0.89788 0.0
C300 C 0.93296 0.34437 0.91941 0.0
H301 H 0.89811 0.38874 0.9102 0.0
C302 C 0.8531 0.38176 0.9305 0.0
O303 O 0.85712 0.40376 0.9812 0.0
O304 O 0.88551 0.41482 0.96418 0.0
N305 N 0.91522 0.3245 0.94164 0.0
C306 C 0.91424 0.30743 0.95359 0.0
C307 C 0.93228 0.29126 0.95459 0.0
C308 C 0.95076 0.2924 0.94298 0.0
C309 C 0.95128 0.31006 0.93072 0.0
C310 C 0.93329 0.32622 0.93079 0.0
H311 H 0.89966 0.30598 0.96212 0.0
O312 O 0.9007 0.37372 0.98047 0.0
O313 O 0.89888 0.36763 0.95281 0.0
O314 O 0.85818 0.35117 0.97095 0.0
O315 O 0.86823 0.32946 0.94839 0.0
C316 C 0.96869 0.31203 0.91822 0.0
C317 C 0.96843 0.33072 0.90662 0.0
H318 H 0.9629 0.36978 0.88723 0.0
H319 H 0.92961 0.39671 0.8895 0.0
H320 H 0.93169 0.27761 0.96403 0.0
H321 H 0.96437 0.27958 0.94352 0.0
H322 H 0.98264 0.29958 0.91765 0.0
H323 H 0.98217 0.33233 0.8973 0.0
Mn324 Mn 0.36838 0.13353 0.72072 0.0
Mn325 Mn 0.40333 0.15521 0.69008 0.0
C326 C 0.38392 0.17044 0.72357 0.0
C327 C 0.33061 0.12841 0.73113 0.0
C328 C 0.41877 0.11877 0.71545 0.0
O329 O 0.36151 0.11301 0.69998 0.0
O330 O 0.38323 0.13115 0.6801 0.0
C331 C 0.36814 0.17782 0.66835 0.0
N332 N 0.38771 0.17919 0.67797 0.0
C333 C 0.3908 0.22004 0.67292 0.0
C334 C 0.37075 0.21907 0.66289 0.0
C335 C 0.3594 0.19785 0.66058 0.0
C336 C 0.39889 0.19947 0.68016 0.0
H337 H 0.3592 0.1616 0.6667 0.0
C338 C 0.36856 0.1158 0.68464 0.0
O339 O 0.34724 0.11458 0.73561 0.0
O340 O 0.3359 0.14476 0.72056 0.0
N341 N 0.42343 0.17902 0.69822 0.0
C342 C 0.44175 0.17728 0.70909 0.0
C343 C 0.45475 0.19707 0.713 0.0
C344 C 0.44873 0.21842 0.70574 0.0
C345 C 0.4299 0.21971 0.69451 0.0
C346 C 0.41788 0.19935 0.69081 0.0
H347 H 0.44638 0.16095 0.71479 0.0
O348 O 0.37664 0.15935 0.73694 0.0
O349 O 0.38208 0.15944 0.70922 0.0
O350 O 0.40036 0.11811 0.72452 0.0
O351 O 0.42099 0.13114 0.70207 0.0
C352 C 0.42204 0.24057 0.68739 0.0
C353 C 0.40248 0.24076 0.67663 0.0
H354 H 0.36377 0.23456 0.65708 0.0
H355 H 0.34384 0.19697 0.65293 0.0
H356 H 0.46925 0.19591 0.72168 0.0
H357 H 0.45853 0.23375 0.70901 0.0
H358 H 0.43033 0.25665 0.69078 0.0
H359 H 0.39602 0.25701 0.67177 0.0
Mn360 Mn 0.62363 0.61246 0.46865 0.0
Mn361 Mn 0.60246 0.64815 0.4383 0.0
C362 C 0.58686 0.62824 0.47159 0.0
C363 C 0.62843 0.57454 0.47867 0.0
C364 C 0.63876 0.66277 0.46406 0.0
O365 O 0.64445 0.60603 0.44799 0.0
O366 O 0.62654 0.62814 0.42824 0.0
C367 C 0.5799 0.61363 0.41596 0.0
N368 N 0.57854 0.63298 0.42581 0.0
C369 C 0.53786 0.63671 0.42027 0.0
C370 C 0.53881 0.6169 0.40998 0.0
C371 C 0.55994 0.60532 0.40781 0.0
C372 C 0.55836 0.64436 0.42788 0.0
H373 H 0.59605 0.60455 0.4144 0.0
C374 C 0.64185 0.61342 0.43273 0.0
O375 O 0.64233 0.59099 0.4834 0.0
O376 O 0.61223 0.58009 0.46804 0.0
N377 N 0.57871 0.66826 0.44647 0.0
C378 C 0.58042 0.6863 0.4576 0.0
C379 C 0.56068 0.6994 0.46146 0.0
C380 C 0.53942 0.69378 0.45389 0.0
C381 C 0.53816 0.67524 0.4424 0.0
C382 C 0.55847 0.66311 0.43876 0.0
H383 H 0.59668 0.69061 0.46354 0.0
O384 O 0.59783 0.62053 0.48488 0.0
O385 O 0.59783 0.62655 0.4572 0.0
O386 O 0.63923 0.64419 0.47291 0.0
O387 O 0.6265 0.66537 0.45067 0.0
C388 C 0.51737 0.66777 0.43494 0.0
C389 C 0.51721 0.6486 0.42381 0.0
H390 H 0.52338 0.61027 0.40387 0.0
H391 H 0.56081 0.58994 0.39998 0.0
H392 H 0.56182 0.71366 0.47036 0.0
H393 H 0.52412 0.70364 0.45712 0.0
H394 H 0.50131 0.67606 0.43834 0.0
H395 H 0.50103 0.64259 0.41852 0.0
Mn396 Mn 0.13101 0.87294 0.21681 0.0
Mn397 Mn 0.09519 0.85816 0.18446 0.0
C398 C 0.11374 0.83661 0.21633 0.0
C399 C 0.16865 0.87529 0.2281 0.0
C400 C 0.08071 0.88937 0.21358 0.0
O401 O 0.13927 0.89637 0.19825 0.0
O402 O 0.11529 0.88414 0.17746 0.0
C403 C 0.12894 0.84158 0.15883 0.0
N404 N 0.10993 0.83778 0.1687 0.0
C405 C 0.10088 0.80291 0.1534 0.0
C406 C 0.12039 0.80638 0.1431 0.0
C407 C 0.13462 0.82568 0.14594 0.0
C408 C 0.09651 0.81894 0.16637 0.0
H409 H 0.13948 0.85678 0.16061 0.0
C410 C 0.1312 0.89743 0.18311 0.0
O411 O 0.15222 0.88874 0.23348 0.0
O412 O 0.16325 0.86068 0.21622 0.0
N413 N 0.0749 0.8329 0.18921 0.0
C414 C 0.05739 0.83156 0.20079 0.0
C415 C 0.04224 0.8126 0.2003 0.0
C416 C 0.04485 0.79565 0.18759 0.0
C417 C 0.06291 0.79755 0.17573 0.0
C418 C 0.07797 0.81634 0.17726 0.0
H419 H 0.05489 0.84496 0.21021 0.0
O420 O 0.12118 0.84552 0.23054 0.0
O421 O 0.11662 0.84924 0.20277 0.0
O422 O 0.09967 0.88901 0.22196 0.0
O423 O 0.07774 0.8788 0.19951 0.0
C424 C 0.06637 0.78176 0.16226 0.0
C425 C 0.08535 0.78443 0.15112 0.0
H426 H 0.12456 0.7944 0.13293 0.0
H427 H 0.14965 0.82855 0.13799 0.0
H428 H 0.0283 0.81131 0.20946 0.0
H429 H 0.03286 0.78129 0.18704 0.0
H430 H 0.05468 0.76734 0.16048 0.0
H431 H 0.08801 0.77197 0.14098 0.0
Mn432 Mn 0.88599 0.61881 0.03178 0.0
Mn433 Mn 0.9091 0.65014 0.06391 0.0
C434 C 0.92413 0.63119 0.03004 0.0
C435 C 0.87769 0.58211 0.0206 0.0
C436 C 0.87535 0.66994 0.03806 0.0
O437 O 0.86372 0.61315 0.05171 0.0
O438 O 0.88306 0.63156 0.07274 0.0
C439 C 0.92772 0.61244 0.0854 0.0
N440 N 0.93114 0.63214 0.07624 0.0
C441 C 0.97176 0.63197 0.08269 0.0
C442 C 0.96867 0.61176 0.09229 0.0
C443 C 0.94653 0.60197 0.09366 0.0
C444 C 0.9523 0.64185 0.07497 0.0
H445 H 0.91077 0.60472 0.08636 0.0
C446 C 0.86655 0.61881 0.06734 0.0
O447 O 0.8662 0.60025 0.01573 0.0
O448 O 0.8938 0.58533 0.03181 0.0
N449 N 0.93478 0.66867 0.05698 0.0
C450 C 0.93508 0.68744 0.04647 0.0
C451 C 0.95606 0.69887 0.04334 0.0
C452 C 0.97648 0.69084 0.05098 0.0
C453 C 0.97566 0.67161 0.06185 0.0
C454 C 0.95421 0.66123 0.06481 0.0
H455 H 0.91948 0.69355 0.04042 0.0
O456 O 0.91301 0.62523 0.01634 0.0
O457 O 0.91262 0.62957 0.04423 0.0
O458 O 0.87383 0.65224 0.0283 0.0
O459 O 0.88706 0.67023 0.05187 0.0
C460 C 0.99543 0.66175 0.06928 0.0
C461 C 0.99351 0.64216 0.07989 0.0
H462 H 0.98321 0.60345 0.09847 0.0
H463 H 0.94401 0.5863 0.10097 0.0
H464 H 0.95653 0.71367 0.0349 0.0
H465 H 0.99273 0.69939 0.04828 0.0
H466 H 0.01228 0.66845 0.06618 0.0
H467 H 0.00896 0.63461 0.08535 0.0
Mn468 Mn 0.1287 0.12784 0.7844 0.0
Mn469 Mn 0.09002 0.14542 0.81398 0.0
C470 C 0.11106 0.16388 0.78194 0.0
C471 C 0.16727 0.12535 0.77514 0.0
C472 C 0.07889 0.11023 0.78651 0.0
O473 O 0.1355 0.1066 0.80468 0.0
O474 O 0.11045 0.12149 0.82381 0.0
C475 C 0.12078 0.16727 0.8395 0.0
N476 N 0.10246 0.16865 0.82863 0.0
C477 C 0.09049 0.20493 0.8407 0.0
C478 C 0.10929 0.204 0.85198 0.0
C479 C 0.12466 0.18522 0.85124 0.0
C480 C 0.08805 0.18701 0.82884 0.0
H481 H 0.13212 0.15246 0.83937 0.0
C482 C 0.12668 0.10761 0.81961 0.0
O483 O 0.15168 0.11094 0.76972 0.0
O484 O 0.1605 0.14085 0.78597 0.0
N485 N 0.06922 0.16888 0.80629 0.0
C486 C 0.05264 0.16764 0.79397 0.0
C487 C 0.03644 0.18559 0.79244 0.0
C488 C 0.03704 0.20425 0.80392 0.0
C489 C 0.05419 0.20504 0.81656 0.0
C490 C 0.0704 0.18711 0.81702 0.0
H491 H 0.0516 0.15292 0.78553 0.0
O492 O 0.11977 0.15362 0.76867 0.0
O493 O 0.11277 0.15261 0.79622 0.0
O494 O 0.09822 0.11069 0.77863 0.0
O495 O 0.07477 0.12195 0.79991 0.0
C496 C 0.05561 0.22268 0.82893 0.0
C497 C 0.07384 0.22269 0.84093 0.0
H498 H 0.11205 0.21756 0.86129 0.0
H499 H 0.13915 0.18433 0.85995 0.0
H500 H 0.0232 0.18479 0.78271 0.0
H501 H 0.02418 0.21779 0.80297 0.0
H502 H 0.04311 0.23661 0.82908 0.0
H503 H 0.07504 0.23661 0.85013 0.0
Mn504 Mn 0.62504 0.3747 0.53541 0.0
Mn505 Mn 0.60725 0.33903 0.56684 0.0
C506 C 0.58856 0.35786 0.53406 0.0
C507 C 0.62825 0.41245 0.52469 0.0
C508 C 0.64158 0.32483 0.53953 0.0
O509 O 0.64692 0.3825 0.55506 0.0
O510 O 0.63174 0.35979 0.57561 0.0
C511 C 0.58633 0.37226 0.59107 0.0
N512 N 0.58445 0.35313 0.58105 0.0
C513 C 0.5477 0.34335 0.59342 0.0
C514 C 0.54915 0.363 0.60384 0.0
C515 C 0.56845 0.37766 0.60252 0.0
C516 C 0.56565 0.33932 0.58184 0.0
H517 H 0.60148 0.38315 0.59046 0.0
C518 C 0.64595 0.37521 0.57042 0.0
O519 O 0.64217 0.39619 0.51967 0.0
O520 O 0.61282 0.40679 0.53591 0.0
N521 N 0.58323 0.31818 0.56019 0.0
C522 C 0.58388 0.30075 0.54851 0.0
C523 C 0.56533 0.28515 0.54753 0.0
C524 C 0.54666 0.28726 0.5589 0.0
C525 C 0.54647 0.30527 0.57088 0.0
C526 C 0.56502 0.32079 0.5708 0.0
H527 H 0.59854 0.29863 0.54013 0.0
O528 O 0.59877 0.36528 0.52035 0.0
O529 O 0.60016 0.36038 0.54815 0.0
O530 O 0.64126 0.34342 0.53073 0.0
O531 O 0.63023 0.32216 0.55331 0.0
C532 C 0.52879 0.30828 0.58305 0.0
C533 C 0.52932 0.3274 0.59424 0.0
H534 H 0.5356 0.36698 0.61292 0.0
H535 H 0.56974 0.39282 0.61056 0.0
H536 H 0.56564 0.27126 0.53829 0.0
H537 H 0.5326 0.27492 0.55835 0.0
H538 H 0.51439 0.29633 0.58362 0.0
H539 H 0.51536 0.32982 0.60328 0.0
Mn540 Mn 0.36886 0.87792 0.28534 0.0
Mn541 Mn 0.40583 0.86383 0.31716 0.0
C542 C 0.38727 0.84214 0.28536 0.0
C543 C 0.33095 0.87937 0.27448 0.0
C544 C 0.41872 0.89577 0.28808 0.0
O545 O 0.36046 0.90106 0.30412 0.0
O546 O 0.38519 0.88913 0.32451 0.0
C547 C 0.37289 0.8458 0.34282 0.0
N548 N 0.39199 0.84282 0.3329 0.0
C549 C 0.4025 0.80825 0.34803 0.0
C550 C 0.38291 0.81087 0.3584 0.0
C551 C 0.3679 0.82959 0.35565 0.0
C552 C 0.40612 0.82448 0.33507 0.0
H553 H 0.36176 0.86059 0.34111 0.0
C554 C 0.36895 0.90218 0.31913 0.0
O555 O 0.34693 0.89331 0.26901 0.0
O556 O 0.33695 0.8648 0.28623 0.0
N557 N 0.42686 0.83931 0.3121 0.0
C558 C 0.44439 0.83877 0.30049 0.0
C559 C 0.46039 0.82053 0.30095 0.0
C560 C 0.45861 0.80349 0.31366 0.0
C561 C 0.44052 0.80456 0.32556 0.0
C562 C 0.42462 0.82264 0.32406 0.0
H563 H 0.44628 0.8523 0.2911 0.0
O564 O 0.37914 0.8509 0.27133 0.0
O565 O 0.3843 0.8545 0.29904 0.0
O566 O 0.39962 0.89489 0.27989 0.0
O567 O 0.42231 0.88517 0.30206 0.0
C568 C 0.43787 0.78867 0.33906 0.0
C569 C 0.41883 0.79047 0.35025 0.0
H570 H 0.37928 0.79867 0.36854 0.0
H571 H 0.3528 0.83179 0.36364 0.0
H572 H 0.47437 0.8199 0.29178 0.0
H573 H 0.47127 0.78973 0.31421 0.0
H574 H 0.4502 0.7748 0.34082 0.0
H575 H 0.41677 0.7779 0.36038 0.0
Mn576 Mn 0.62512 0.11145 0.53208 0.0
Mn577 Mn 0.60188 0.14572 0.56251 0.0
C578 C 0.58769 0.12541 0.52895 0.0
C579 C 0.63217 0.07389 0.52209 0.0
C580 C 0.63761 0.16241 0.53695 0.0
O581 O 0.64624 0.10608 0.55275 0.0
O582 O 0.62683 0.12681 0.57254 0.0
C583 C 0.5809 0.10982 0.5845 0.0
N584 N 0.57864 0.12921 0.57479 0.0
C585 C 0.53778 0.13084 0.58024 0.0
C586 C 0.53968 0.11098 0.59039 0.0
C587 C 0.56134 0.10044 0.59254 0.0
C588 C 0.55793 0.13958 0.57273 0.0
H589 H 0.59748 0.10153 0.58606 0.0
C590 C 0.64302 0.11306 0.56805 0.0
O591 O 0.64474 0.09122 0.51708 0.0
O592 O 0.6158 0.07836 0.53286 0.0
N593 N 0.5772 0.16477 0.55443 0.0
C594 C 0.57812 0.18318 0.54359 0.0
C595 C 0.55778 0.19541 0.53984 0.0
C596 C 0.53676 0.18856 0.54723 0.0
C597 C 0.53634 0.16972 0.55848 0.0
C598 C 0.55719 0.15851 0.56203 0.0
H599 H 0.5942 0.18844 0.53779 0.0
O600 O 0.5991 0.11814 0.51575 0.0
O601 O 0.59848 0.12412 0.54345 0.0
O602 O 0.63895 0.14401 0.52794 0.0
O603 O 0.62518 0.16425 0.55034 0.0
C604 C 0.5159 0.16107 0.56576 0.0
C605 C 0.51658 0.14177 0.57674 0.0
H606 H 0.52457 0.10353 0.59643 0.0
H607 H 0.56294 0.08503 0.60027 0.0
H608 H 0.55828 0.20994 0.53115 0.0
H609 H 0.52102 0.19775 0.54407 0.0
H610 H 0.49945 0.16848 0.56231 0.0
H611 H 0.50063 0.13503 0.58198 0.0
Mn612 Mn 0.14171 0.37215 0.78199 0.0
Mn613 Mn 0.10828 0.34792 0.81246 0.0
C614 C 0.12687 0.33519 0.77812 0.0
C615 C 0.17905 0.37837 0.77129 0.0
C616 C 0.09117 0.3852 0.78831 0.0
O617 O 0.14845 0.39197 0.80311 0.0
O618 O 0.12783 0.37221 0.82277 0.0
C619 C 0.14476 0.32559 0.83317 0.0
N620 N 0.12502 0.32396 0.82376 0.0
C621 C 0.1233 0.28287 0.82804 0.0
C622 C 0.14352 0.2841 0.83786 0.0
C623 C 0.15428 0.30557 0.84044 0.0
C624 C 0.11442 0.30344 0.8213 0.0
H625 H 0.15322 0.34201 0.83505 0.0
C626 C 0.14182 0.38827 0.81842 0.0
O627 O 0.16215 0.39219 0.76735 0.0
O628 O 0.17427 0.36155 0.78157 0.0
N629 N 0.08872 0.32382 0.80408 0.0
C630 C 0.07007 0.3254 0.79352 0.0
C631 C 0.05766 0.30534 0.78931 0.0
C632 C 0.06461 0.2839 0.79595 0.0
C633 C 0.08375 0.28279 0.8069 0.0
C634 C 0.09514 0.30339 0.81093 0.0
H635 H 0.06475 0.3418 0.78827 0.0
O636 O 0.13364 0.34721 0.76506 0.0
O637 O 0.12896 0.34525 0.79284 0.0
O638 O 0.10935 0.38697 0.77907 0.0
O639 O 0.08957 0.37194 0.80128 0.0
C640 C 0.09252 0.26193 0.81341 0.0
C641 C 0.11214 0.26194 0.82409 0.0
H642 H 0.15108 0.26864 0.84329 0.0
H643 H 0.16997 0.30666 0.84792 0.0
H644 H 0.04292 0.30636 0.78083 0.0
H645 H 0.05528 0.26838 0.79243 0.0
H646 H 0.08493 0.24571 0.80957 0.0
H647 H 0.11898 0.24569 0.8287 0.0
Mn648 Mn 0.88652 0.88636 0.03302 0.0
Mn649 Mn 0.91033 0.85304 0.06379 0.0
C650 C 0.92411 0.87278 0.03 0.0
C651 C 0.87945 0.92362 0.02224 0.0
C652 C 0.87503 0.83507 0.03843 0.0
O653 O 0.86567 0.89233 0.05374 0.0
O654 O 0.88462 0.87123 0.07353 0.0
C655 C 0.92982 0.88979 0.08577 0.0
N656 N 0.93284 0.87042 0.07614 0.0
C657 C 0.9736 0.86999 0.08205 0.0
C658 C 0.97094 0.88983 0.09213 0.0
C659 C 0.94894 0.89977 0.09399 0.0
C660 C 0.95388 0.86063 0.07434 0.0
H661 H 0.91297 0.89759 0.08713 0.0
C662 C 0.86854 0.88508 0.06901 0.0
O663 O 0.86642 0.90625 0.01798 0.0
O664 O 0.89602 0.91938 0.03288 0.0
N665 N 0.93569 0.83471 0.05599 0.0
C666 C 0.93555 0.81637 0.04508 0.0
C667 C 0.95633 0.80486 0.04143 0.0
C668 C 0.97701 0.81237 0.04901 0.0
C669 C 0.97663 0.83117 0.0603 0.0
C670 C 0.95537 0.84167 0.06372 0.0
H671 H 0.91973 0.81064 0.03911 0.0
O672 O 0.91244 0.87927 0.01669 0.0
O673 O 0.91335 0.87434 0.0445 0.0
O674 O 0.87282 0.85349 0.0295 0.0
O675 O 0.88786 0.83364 0.05163 0.0
C676 C 0.99666 0.84045 0.06778 0.0
C677 C 0.99517 0.85964 0.07883 0.0
H678 H 0.9857 0.89774 0.09832 0.0
H679 H 0.94674 0.91516 0.10167 0.0
H680 H 0.95646 0.7904 0.03268 0.0
H681 H 0.99309 0.80375 0.04594 0.0
H682 H 0.01338 0.83359 0.06445 0.0
H683 H 0.01079 0.86678 0.08431 0.0
Mn684 Mn 0.37503 0.63266 0.28324 0.0
Mn685 Mn 0.40906 0.65428 0.31434 0.0
C686 C 0.38998 0.6698 0.28078 0.0
C687 C 0.33746 0.62734 0.27271 0.0
C688 C 0.42536 0.61837 0.28884 0.0
O689 O 0.36816 0.61173 0.30371 0.0
O690 O 0.38893 0.63 0.32407 0.0
C691 C 0.37347 0.67645 0.33594 0.0
N692 N 0.39309 0.67807 0.32641 0.0
C693 C 0.3954 0.719 0.3312 0.0
C694 C 0.37529 0.7178 0.34115 0.0
C695 C 0.36431 0.69641 0.34356 0.0
C696 C 0.40397 0.6985 0.32418 0.0
H697 H 0.36478 0.6601 0.33763 0.0
C698 C 0.3746 0.6145 0.31919 0.0
O699 O 0.35421 0.61373 0.26808 0.0
O700 O 0.34255 0.64352 0.28346 0.0
N701 N 0.42902 0.6783 0.30635 0.0
C702 C 0.4473 0.67681 0.29542 0.0
C703 C 0.45986 0.69682 0.29135 0.0
C704 C 0.45343 0.71813 0.29847 0.0
C705 C 0.43461 0.71918 0.30972 0.0
C706 C 0.42305 0.69861 0.31361 0.0
H707 H 0.4522 0.66053 0.28978 0.0
O708 O 0.38309 0.65876 0.26728 0.0
O709 O 0.38812 0.65856 0.29504 0.0
O710 O 0.40722 0.61779 0.27948 0.0
O711 O 0.42706 0.63042 0.30242 0.0
C712 C 0.42629 0.73998 0.31666 0.0
C713 C 0.40668 0.73988 0.32737 0.0
H714 H 0.36797 0.73323 0.3468 0.0
H715 H 0.3487 0.69534 0.35113 0.0
H716 H 0.47432 0.69586 0.28261 0.0
H717 H 0.46288 0.73362 0.29505 0.0
H718 H 0.43437 0.75618 0.31328 0.0
H719 H 0.39983 0.75601 0.33209 0.0
Mn720 Mn 0.6271 0.87524 0.4647 0.0
Mn721 Mn 0.60952 0.8401 0.43283 0.0
C722 C 0.58992 0.85988 0.46506 0.0
C723 C 0.632 0.91281 0.47537 0.0
C724 C 0.64189 0.8248 0.46113 0.0
O725 O 0.65049 0.88178 0.44572 0.0
O726 O 0.63498 0.86008 0.42473 0.0
C727 C 0.59095 0.87375 0.40789 0.0
N728 N 0.58792 0.8548 0.41796 0.0
C729 C 0.55173 0.84586 0.40439 0.0
C730 C 0.55436 0.86535 0.39392 0.0
C731 C 0.57396 0.87948 0.39581 0.0
C732 C 0.56884 0.84147 0.41658 0.0
H733 H 0.60635 0.8842 0.40893 0.0
C734 C 0.64968 0.87477 0.43027 0.0
O735 O 0.64421 0.89564 0.48109 0.0
O736 O 0.61699 0.90815 0.46358 0.0
N737 N 0.58459 0.82 0.43882 0.0
C738 C 0.58411 0.8026 0.45053 0.0
C739 C 0.56514 0.78747 0.45091 0.0
C740 C 0.54723 0.78998 0.43893 0.0
C741 C 0.54821 0.80794 0.42693 0.0
C742 C 0.56709 0.82301 0.42762 0.0
H743 H 0.59821 0.80015 0.45937 0.0
O744 O 0.59961 0.86728 0.47898 0.0
O745 O 0.60223 0.86188 0.45125 0.0
O746 O 0.64149 0.8433 0.47002 0.0
O747 O 0.63136 0.82257 0.44697 0.0
C748 C 0.53139 0.8113 0.41416 0.0
C749 C 0.53303 0.83037 0.40299 0.0
H750 H 0.54151 0.86957 0.38436 0.0
H751 H 0.57618 0.89448 0.38772 0.0
H752 H 0.56455 0.77361 0.46017 0.0
H753 H 0.53285 0.77798 0.43903 0.0
H754 H 0.51679 0.79967 0.4131 0.0
H755 H 0.51971 0.83307 0.39348 0.0
Mn756 Mn 0.37792 0.37797 0.71304 0.0
Mn757 Mn 0.4144 0.36062 0.68194 0.0
C758 C 0.39537 0.34183 0.71463 0.0
C759 C 0.34007 0.38084 0.72351 0.0
C760 C 0.42796 0.39454 0.70965 0.0
O761 O 0.37015 0.39985 0.69341 0.0
O762 O 0.3942 0.38566 0.67336 0.0
C763 C 0.38114 0.341 0.65714 0.0
N764 N 0.40016 0.33853 0.66721 0.0
C765 C 0.40976 0.30228 0.65401 0.0
C766 C 0.39023 0.30435 0.64352 0.0
C767 C 0.37572 0.32368 0.64522 0.0
C768 C 0.41381 0.31967 0.66605 0.0
H769 H 0.37037 0.35619 0.65804 0.0
C770 C 0.37835 0.39953 0.6783 0.0
O771 O 0.35616 0.3949 0.72863 0.0
O772 O 0.34597 0.36544 0.71233 0.0
N773 N 0.43488 0.33615 0.68823 0.0
C774 C 0.45223 0.33619 0.69998 0.0
C775 C 0.46765 0.31747 0.70061 0.0
C776 C 0.46549 0.29931 0.6888 0.0
C777 C 0.44759 0.29978 0.67673 0.0
C778 C 0.43223 0.31842 0.67718 0.0
H779 H 0.45441 0.35051 0.70869 0.0
O780 O 0.38747 0.35196 0.72823 0.0
O781 O 0.39275 0.35317 0.70042 0.0
O782 O 0.40894 0.39456 0.71793 0.0
O783 O 0.43126 0.38292 0.69607 0.0
C784 C 0.44454 0.28265 0.66414 0.0
C785 C 0.42558 0.28384 0.65283 0.0
H786 H 0.38626 0.29125 0.63408 0.0
H787 H 0.36066 0.32546 0.63713 0.0
H788 H 0.48147 0.31728 0.70992 0.0
H789 H 0.47769 0.28512 0.68909 0.0
H790 H 0.45639 0.26822 0.66327 0.0
H791 H 0.42315 0.27031 0.64345 0.0
Mn792 Mn 0.87286 0.12296 0.96438 0.0
Mn793 Mn 0.88882 0.16102 0.93384 0.0
C794 C 0.90846 0.14157 0.96606 0.0
C795 C 0.87138 0.08472 0.97443 0.0
C796 C 0.85442 0.17243 0.96175 0.0
O797 O 0.85121 0.11501 0.9446 0.0
O798 O 0.8647 0.14 0.92489 0.0
C799 C 0.90997 0.12956 0.90845 0.0
N800 N 0.91159 0.14827 0.91893 0.0
C801 C 0.94744 0.15996 0.906 0.0
C802 C 0.94625 0.14074 0.89512 0.0
C803 C 0.92755 0.12535 0.89648 0.0
C804 C 0.92985 0.16279 0.91808 0.0
H805 H 0.89524 0.11814 0.90908 0.0
C806 C 0.85136 0.12356 0.92958 0.0
O807 O 0.85678 0.1002 0.97973 0.0
O808 O 0.88648 0.0914 0.96327 0.0
N809 N 0.91237 0.18235 0.94057 0.0
C810 C 0.91143 0.19939 0.95255 0.0
C811 C 0.92932 0.21577 0.95339 0.0
C812 C 0.94758 0.21485 0.94158 0.0
C813 C 0.94805 0.19722 0.92929 0.0
C814 C 0.93022 0.18089 0.92951 0.0
H815 H 0.89701 0.20064 0.96125 0.0
O816 O 0.89872 0.13301 0.9796 0.0
O817 O 0.89703 0.13903 0.95191 0.0
O818 O 0.85521 0.15324 0.9698 0.0
O819 O 0.86578 0.17648 0.94817 0.0
C820 C 0.9653 0.19541 0.91666 0.0
C821 C 0.96513 0.17666 0.90513 0.0
H822 H 0.95954 0.13771 0.88564 0.0
H823 H 0.92645 0.11055 0.88807 0.0
H824 H 0.92876 0.22938 0.96286 0.0
H825 H 0.96108 0.22781 0.94202 0.0
H826 H 0.97913 0.20799 0.91599 0.0
H827 H 0.97879 0.17515 0.89574 0.0
Mn828 Mn 0.1372 0.6278 0.21749 0.0
Mn829 Mn 0.10147 0.64822 0.18696 0.0
C830 C 0.12107 0.66441 0.22019 0.0
C831 C 0.17517 0.62349 0.22743 0.0
C832 C 0.0872 0.6119 0.21279 0.0
O833 O 0.14401 0.60699 0.19693 0.0
O834 O 0.122 0.6245 0.17694 0.0
C835 C 0.1357 0.67142 0.16475 0.0
N836 N 0.11629 0.67244 0.17456 0.0
C837 C 0.11232 0.71319 0.1695 0.0
C838 C 0.1322 0.71259 0.15927 0.0
C839 C 0.14391 0.69159 0.15686 0.0
C840 C 0.10474 0.69249 0.17681 0.0
H841 H 0.14493 0.65537 0.16305 0.0
C842 C 0.13691 0.60944 0.18159 0.0
O843 O 0.15889 0.60947 0.23231 0.0
O844 O 0.16939 0.63956 0.21677 0.0
N845 N 0.08096 0.67163 0.19517 0.0
C846 C 0.06296 0.66959 0.20631 0.0
C847 C 0.0497 0.68915 0.21035 0.0
C848 C 0.05513 0.71058 0.20298 0.0
C849 C 0.07366 0.7122 0.19151 0.0
C850 C 0.08596 0.69204 0.18767 0.0
H851 H 0.05879 0.65321 0.21212 0.0
O852 O 0.12881 0.65366 0.23357 0.0
O853 O 0.12289 0.65326 0.20589 0.0
O854 O 0.10564 0.61194 0.2218 0.0
O855 O 0.08461 0.62387 0.19925 0.0
C856 C 0.08096 0.73318 0.18425 0.0
C857 C 0.10031 0.73368 0.17329 0.0
H858 H 0.13877 0.7282 0.15337 0.0
H859 H 0.15934 0.691 0.14906 0.0
H860 H 0.03545 0.68775 0.21924 0.0
H861 H 0.04513 0.72573 0.20636 0.0
H862 H 0.0723 0.7491 0.18756 0.0
H863 H 0.10637 0.74998 0.1683 0.0
Mn864 Mn 0.38183 0.8933 0.46765 0.0
Mn865 Mn 0.40294 0.85814 0.43692 0.0
C866 C 0.41865 0.87768 0.47028 0.0
C867 C 0.37692 0.93095 0.47817 0.0
C868 C 0.36726 0.84277 0.46287 0.0
O869 O 0.36087 0.90008 0.44715 0.0
O870 O 0.37812 0.87767 0.42729 0.0
C871 C 0.42417 0.89344 0.41452 0.0
N872 N 0.42623 0.87403 0.42423 0.0
C873 C 0.46694 0.87158 0.41837 0.0
C874 C 0.46525 0.89146 0.40822 0.0
C875 C 0.44376 0.90242 0.40628 0.0
C876 C 0.44677 0.86323 0.42607 0.0
H877 H 0.40773 0.90207 0.41314 0.0
C878 C 0.36294 0.89247 0.43191 0.0
O879 O 0.36312 0.91433 0.48273 0.0
O880 O 0.39307 0.92575 0.4674 0.0
N881 N 0.42736 0.83847 0.44461 0.0
C882 C 0.4263 0.82016 0.45552 0.0
C883 C 0.44645 0.80754 0.4591 0.0
C884 C 0.46746 0.81394 0.45147 0.0
C885 C 0.46804 0.83272 0.44017 0.0
C886 C 0.44734 0.84432 0.43679 0.0
H887 H 0.41024 0.81527 0.46153 0.0
O888 O 0.40773 0.88504 0.48369 0.0
O889 O 0.40761 0.87959 0.45593 0.0
O890 O 0.36642 0.86142 0.47164 0.0
O891 O 0.37961 0.84027 0.44951 0.0
C892 C 0.48852 0.84096 0.43268 0.0
C893 C 0.488 0.86028 0.42171 0.0
H894 H 0.48039 0.89862 0.40204 0.0
H895 H 0.44233 0.91785 0.39855 0.0
H896 H 0.44583 0.79307 0.46783 0.0
H897 H 0.48308 0.80447 0.4545 0.0
H898 H 0.50487 0.83318 0.43598 0.0
H899 H 0.50399 0.86678 0.41636 0.0
Mn900 Mn 0.87532 0.62549 0.2136 0.0
Mn901 Mn 0.91134 0.64279 0.18215 0.0
C902 C 0.89133 0.66239 0.21425 0.0
C903 C 0.83761 0.62116 0.22408 0.0
C904 C 0.9258 0.61034 0.21058 0.0
O905 O 0.8686 0.60235 0.19447 0.0
O906 O 0.89167 0.61714 0.17402 0.0
C907 C 0.87787 0.66082 0.15687 0.0
N908 N 0.89673 0.66406 0.16699 0.0
C909 C 0.90591 0.69983 0.15295 0.0
C910 C 0.88653 0.69696 0.1424 0.0
C911 C 0.8723 0.67749 0.14451 0.0
C912 C 0.91009 0.68308 0.16545 0.0
H913 H 0.86737 0.64548 0.15806 0.0
C914 C 0.87646 0.60277 0.17925 0.0
O915 O 0.85452 0.60859 0.22979 0.0
O916 O 0.84259 0.63617 0.21237 0.0
N917 N 0.93126 0.66788 0.18806 0.0
C918 C 0.94857 0.66858 0.19984 0.0
C919 C 0.96372 0.68754 0.20007 0.0
C920 C 0.96137 0.70516 0.18784 0.0
C921 C 0.94352 0.70391 0.17575 0.0
C922 C 0.9284 0.6851 0.17661 0.0
H923 H 0.95092 0.65466 0.20886 0.0
O924 O 0.8836 0.65271 0.22807 0.0
O925 O 0.88928 0.65026 0.20036 0.0
O926 O 0.90693 0.61045 0.21903 0.0
O927 O 0.92867 0.62127 0.19665 0.0
C928 C 0.94034 0.72039 0.16271 0.0
C929 C 0.92151 0.71839 0.15135 0.0
H930 H 0.88248 0.70954 0.13261 0.0
H931 H 0.85738 0.67508 0.13636 0.0
H932 H 0.97751 0.68832 0.20939 0.0
H933 H 0.97339 0.71951 0.18782 0.0
H934 H 0.95206 0.7349 0.16148 0.0
H935 H 0.91901 0.73141 0.14159 0.0
Mn936 Mn 0.11784 0.11948 0.96936 0.0
Mn937 Mn 0.09397 0.15136 0.93781 0.0
C938 C 0.08024 0.13311 0.97205 0.0
C939 C 0.12488 0.08258 0.98076 0.0
C940 C 0.12939 0.17043 0.96271 0.0
O941 O 0.13875 0.11278 0.94881 0.0
O942 O 0.11945 0.13249 0.92842 0.0
C943 C 0.07399 0.1137 0.91693 0.0
N944 N 0.0712 0.13353 0.92606 0.0
C945 C 0.03031 0.13374 0.92059 0.0
C946 C 0.03275 0.1134 0.91103 0.0
C947 C 0.0547 0.10335 0.90919 0.0
C948 C 0.0502 0.14345 0.92781 0.0
H949 H 0.09079 0.10579 0.91561 0.0
C950 C 0.13567 0.11904 0.93333 0.0
O951 O 0.13792 0.10007 0.98477 0.0
O952 O 0.10833 0.08652 0.97005 0.0
N953 N 0.06878 0.17019 0.94528 0.0
C954 C 0.06916 0.18907 0.95568 0.0
C955 C 0.04847 0.20081 0.9592 0.0
C956 C 0.02765 0.19299 0.95204 0.0
C957 C 0.02777 0.17364 0.94126 0.0
C958 C 0.04894 0.16292 0.93794 0.0
H959 H 0.08509 0.19506 0.96133 0.0
O960 O 0.09186 0.12712 0.98551 0.0
O961 O 0.09106 0.13101 0.95762 0.0
O962 O 0.13143 0.15249 0.97219 0.0
O963 O 0.11671 0.17117 0.94938 0.0
C964 C 0.00757 0.16403 0.93426 0.0
C965 C 0.0088 0.14423 0.92381 0.0
H966 H 0.01785 0.1052 0.90524 0.0
H967 H 0.05672 0.08758 0.90192 0.0
H968 H 0.04855 0.21572 0.96754 0.0
H969 H 0.01164 0.20181 0.95502 0.0
H970 H 0.99092 0.17112 0.93756 0.0
H971 H 0.99304 0.13677 0.91879 0.0
Mn972 Mn 0.64036 0.37915 0.71887 0.0
Mn973 Mn 0.60597 0.35584 0.68859 0.0
C974 C 0.62675 0.34158 0.72197 0.0
C975 C 0.67779 0.38679 0.72869 0.0
C976 C 0.58952 0.39174 0.71405 0.0
O977 O 0.6456 0.40014 0.69812 0.0
O978 O 0.62505 0.3805 0.67836 0.0
C979 C 0.64143 0.3344 0.66646 0.0
N980 N 0.62217 0.33238 0.67634 0.0
C981 C 0.62026 0.29148 0.67126 0.0
C982 C 0.64 0.29311 0.66095 0.0
C983 C 0.65061 0.31469 0.65852 0.0
C984 C 0.61168 0.31177 0.67863 0.0
H985 H 0.64979 0.35091 0.6647 0.0
C986 C 0.63881 0.39671 0.6828 0.0
O987 O 0.66029 0.39911 0.73371 0.0
O988 O 0.67354 0.37019 0.71806 0.0
N989 N 0.58687 0.33141 0.69699 0.0
C990 C 0.56878 0.33254 0.70811 0.0
C991 C 0.55659 0.31232 0.71222 0.0
C992 C 0.56317 0.29117 0.7049 0.0
C993 C 0.58174 0.29052 0.69341 0.0
C994 C 0.59293 0.31127 0.68951 0.0
H995 H 0.56375 0.34871 0.71387 0.0
O996 O 0.63392 0.35305 0.73519 0.0
O997 O 0.62781 0.35247 0.70751 0.0
O998 O 0.60785 0.39285 0.72313 0.0
O999 O 0.58767 0.3794 0.70063 0.0
C1000 C 0.59018 0.26993 0.68623 0.0
C1001 C 0.60933 0.2704 0.67508 0.0
H1002 H 0.64731 0.27787 0.65501 0.0
H1003 H 0.66593 0.31609 0.65066 0.0
H1004 H 0.54229 0.31299 0.72111 0.0
H1005 H 0.55402 0.27551 0.70833 0.0
H1006 H 0.58268 0.25358 0.68987 0.0
H1007 H 0.61608 0.25439 0.67 0.0
Mn1008 Mn 0.38032 0.13017 0.53595 0.0
Mn1009 Mn 0.39872 0.16719 0.56637 0.0
C1010 C 0.41688 0.14677 0.534 0.0
C1011 C 0.37685 0.09215 0.52585 0.0
C1012 C 0.36409 0.1803 0.53899 0.0
O1013 O 0.35875 0.1232 0.55598 0.0
O1014 O 0.37406 0.14712 0.57572 0.0
C1015 C 0.41941 0.13491 0.59138 0.0
N1016 N 0.42144 0.15352 0.58086 0.0
C1017 C 0.4582 0.16371 0.59307 0.0
C1018 C 0.45658 0.14458 0.604 0.0
C1019 C 0.43722 0.12997 0.60301 0.0
C1020 C 0.44033 0.16724 0.58132 0.0
H1021 H 0.40419 0.12411 0.59105 0.0
C1022 C 0.35981 0.13141 0.57109 0.0
O1023 O 0.36288 0.10831 0.52073 0.0
O1024 O 0.39243 0.09803 0.5369 0.0
N1025 N 0.42291 0.18747 0.55914 0.0
C1026 C 0.42237 0.20435 0.54703 0.0
C1027 C 0.44102 0.21979 0.54568 0.0
C1028 C 0.45966 0.21812 0.55712 0.0
C1029 C 0.45972 0.20067 0.56955 0.0
C1030 C 0.4411 0.18524 0.56982 0.0
H1031 H 0.40772 0.20617 0.5386 0.0
O1032 O 0.40642 0.13896 0.52051 0.0
O1033 O 0.40544 0.14488 0.54821 0.0
O1034 O 0.36404 0.16125 0.53077 0.0
O1035 O 0.37583 0.18367 0.5525 0.0
C1036 C 0.47732 0.19818 0.58185 0.0
C1037 C 0.47662 0.17963 0.59355 0.0
H1038 H 0.47007 0.14099 0.61322 0.0
H1039 H 0.4358 0.11523 0.61145 0.0
H1040 H 0.44079 0.23326 0.5361 0.0
H1041 H 0.47377 0.23036 0.55629 0.0
H1042 H 0.49178 0.21007 0.58214 0.0
H1043 H 0.49052 0.17758 0.60269 0.0
Mn1044 Mn 0.64 0.63284 0.28205 0.0
Mn1045 Mn 0.60742 0.65673 0.31317 0.0
C1046 C 0.62705 0.67066 0.27931 0.0
C1047 C 0.67709 0.62478 0.27158 0.0
C1048 C 0.589 0.62153 0.28781 0.0
O1049 O 0.6452 0.61131 0.30249 0.0
O1050 O 0.62618 0.6314 0.32285 0.0
C1051 C 0.64441 0.677 0.33455 0.0
N1052 N 0.62477 0.67964 0.32517 0.0
C1053 C 0.62403 0.72049 0.33072 0.0
C1054 C 0.64416 0.71821 0.34054 0.0
C1055 C 0.65439 0.69635 0.34246 0.0
C1056 C 0.6147 0.70054 0.32332 0.0
H1057 H 0.65244 0.66027 0.33594 0.0
C1058 C 0.63911 0.61474 0.31797 0.0
O1059 O 0.65928 0.61279 0.26669 0.0
O1060 O 0.67333 0.64118 0.28247 0.0
N1061 N 0.58861 0.68178 0.30541 0.0
C1062 C 0.56995 0.68126 0.29479 0.0
C1063 C 0.55806 0.70183 0.29119 0.0
C1064 C 0.5655 0.7227 0.29851 0.0
C1065 C 0.5846 0.72273 0.30952 0.0
C1066 C 0.59548 0.70165 0.31292 0.0
H1067 H 0.56425 0.6653 0.28904 0.0
O1068 O 0.63366 0.65918 0.26595 0.0
O1069 O 0.62844 0.6597 0.29374 0.0
O1070 O 0.60695 0.62001 0.27833 0.0
O1071 O 0.58802 0.63378 0.30135 0.0
C1072 C 0.59384 0.74298 0.31671 0.0
C1073 C 0.61339 0.7419 0.32742 0.0
H1074 H 0.65207 0.73315 0.34648 0.0
H1075 H 0.67001 0.69446 0.34994 0.0
H1076 H 0.54334 0.70165 0.28267 0.0
H1077 H 0.55657 0.73863 0.29546 0.0
H1078 H 0.58665 0.75957 0.31338 0.0
H1079 H 0.62055 0.75771 0.3326 0.0
Mn1080 Mn 0.13189 0.88259 0.03705 0.0
Mn1081 Mn 0.11627 0.84367 0.06704 0.0
C1082 C 0.09626 0.86396 0.03526 0.0
C1083 C 0.13322 0.92108 0.02758 0.0
C1084 C 0.15098 0.8334 0.03908 0.0
O1085 O 0.15346 0.89017 0.05699 0.0
O1086 O 0.13976 0.86496 0.07648 0.0
C1087 C 0.09415 0.87385 0.09282 0.0
N1088 N 0.09302 0.8555 0.08196 0.0
C1089 C 0.05725 0.84265 0.0944 0.0
C1090 C 0.05793 0.86149 0.10566 0.0
C1091 C 0.07634 0.87729 0.10474 0.0
C1092 C 0.07503 0.84062 0.08239 0.0
H1093 H 0.10868 0.88556 0.09253 0.0
C1094 C 0.153 0.88161 0.07202 0.0
O1095 O 0.14784 0.9058 0.02202 0.0
O1096 O 0.11814 0.91406 0.03865 0.0
N1097 N 0.09325 0.82212 0.05972 0.0
C1098 C 0.09468 0.80552 0.04743 0.0
C1099 C 0.07712 0.78885 0.04613 0.0
C1100 C 0.05867 0.78902 0.0578 0.0
C1101 C 0.05767 0.80622 0.0704 0.0
C1102 C 0.07518 0.8229 0.07062 0.0
H1103 H 0.10925 0.80483 0.03884 0.0
O1104 O 0.10588 0.87282 0.02178 0.0
O1105 O 0.10793 0.86608 0.04933 0.0
O1106 O 0.14969 0.85261 0.03113 0.0
O1107 O 0.13986 0.82902 0.05271 0.0
C1108 C 0.04023 0.80724 0.08293 0.0
C1109 C 0.03992 0.82556 0.09485 0.0
H1110 H 0.04448 0.86391 0.11512 0.0
H1111 H 0.07705 0.89179 0.11345 0.0
H1112 H 0.07808 0.77559 0.03642 0.0
H1113 H 0.04544 0.77582 0.05702 0.0
H1114 H 0.02666 0.79436 0.08327 0.0
H1115 H 0.02614 0.82644 0.10419 0.0
Mn1116 Mn 0.87618 0.37656 0.78319 0.0
Mn1117 Mn 0.90809 0.35216 0.81438 0.0
C1118 C 0.8882 0.33843 0.78058 0.0
C1119 C 0.83937 0.38546 0.7727 0.0
C1120 C 0.92722 0.38717 0.78921 0.0
O1121 O 0.87109 0.39799 0.80367 0.0
O1122 O 0.88945 0.37755 0.82417 0.0
C1123 C 0.87093 0.33195 0.83561 0.0
N1124 N 0.89051 0.32924 0.82617 0.0
C1125 C 0.8904 0.2882 0.8309 0.0
C1126 C 0.87031 0.29054 0.84076 0.0
C1127 C 0.86057 0.31253 0.84315 0.0
C1128 C 0.90019 0.30822 0.82394 0.0
H1129 H 0.86321 0.34878 0.83731 0.0
C1130 C 0.87673 0.39436 0.81923 0.0
O1131 O 0.85746 0.39705 0.76782 0.0
O1132 O 0.84271 0.3689 0.78352 0.0
N1133 N 0.9266 0.32704 0.80635 0.0
C1134 C 0.9451 0.32753 0.79558 0.0
C1135 C 0.95649 0.30684 0.79149 0.0
C1136 C 0.94867 0.28589 0.79844 0.0
C1137 C 0.92969 0.28588 0.80956 0.0
C1138 C 0.91935 0.30707 0.81348 0.0
H1139 H 0.95106 0.34354 0.79006 0.0
O1140 O 0.88206 0.35002 0.76715 0.0
O1141 O 0.88707 0.34956 0.79494 0.0
O1142 O 0.90947 0.38873 0.77953 0.0
O1143 O 0.92777 0.37508 0.80283 0.0
C1144 C 0.92003 0.26556 0.81632 0.0
C1145 C 0.90047 0.26669 0.82704 0.0
H1146 H 0.86206 0.27555 0.84635 0.0
H1147 H 0.84499 0.31447 0.85066 0.0
H1148 H 0.9711 0.30702 0.78286 0.0
H1149 H 0.9572 0.26989 0.795 0.0
H1150 H 0.92692 0.24896 0.81264 0.0
H1151 H 0.89274 0.25088 0.83172 0.0
H1152 H 0.11798 0.58082 0.15795 0.0
H1153 H 0.18618 0.64247 0.0925 0.0
H1154 H 0.18198 0.61304 0.17273 0.0
H1155 H 0.1508 0.57981 0.07859 0.0
H1156 H 0.1908 0.62771 0.12151 0.0
H1157 H 0.13359 0.57461 0.12931 0.0
C1158 C 0.13576 0.58556 0.15534 0.0
C1159 C 0.14879 0.59734 0.16764 0.0
C1160 C 0.18294 0.61667 0.11197 0.0
C1161 C 0.16633 0.59151 0.13474 0.0
C1162 C 0.18051 0.62505 0.09535 0.0
C1163 C 0.16812 0.61231 0.08321 0.0
C1164 C 0.17204 0.59588 0.11656 0.0
C1165 C 0.1606 0.59007 0.08762 0.0
C1166 C 0.14466 0.58215 0.13898 0.0
C1167 C 0.17152 0.60369 0.16358 0.0
N1168 N 0.16189 0.58287 0.10413 0.0
N1169 N 0.17934 0.60141 0.14728 0.0
H1170 H 0.67838 0.85699 0.40615 0.0
H1171 H 0.67502 0.89754 0.32613 0.0
H1172 H 0.6471 0.9204 0.4232 0.0
H1173 H 0.61124 0.92405 0.34664 0.0
H1174 H 0.69236 0.90003 0.35466 0.0
H1175 H 0.68347 0.87379 0.37784 0.0
C1176 C 0.67381 0.87494 0.40415 0.0
C1177 C 0.66242 0.88739 0.41698 0.0
C1178 C 0.67485 0.90611 0.35276 0.0
C1179 C 0.66718 0.90645 0.38445 0.0
C1180 C 0.66505 0.90504 0.33644 0.0
C1181 C 0.6416 0.91034 0.33414 0.0
C1182 C 0.66102 0.91264 0.3667 0.0
C1183 C 0.62934 0.91963 0.34797 0.0
C1184 C 0.67662 0.88457 0.38794 0.0
C1185 C 0.65618 0.91036 0.41364 0.0
N1186 N 0.63906 0.92009 0.36375 0.0
N1187 N 0.65778 0.91886 0.39749 0.0
H1188 H 0.3975 0.42988 0.65595 0.0
H1189 H 0.33091 0.37237 0.58748 0.0
H1190 H 0.33346 0.39624 0.66881 0.0
H1191 H 0.36635 0.436 0.5764 0.0
H1192 H 0.3257 0.38504 0.61699 0.0
H1193 H 0.3824 0.43794 0.62743 0.0
C1194 C 0.37983 0.42518 0.65298 0.0
C1195 C 0.36665 0.41246 0.66467 0.0
C1196 C 0.33369 0.39677 0.60797 0.0
C1197 C 0.34971 0.42042 0.63185 0.0
C1198 C 0.33646 0.38958 0.59108 0.0
C1199 C 0.34897 0.40323 0.57957 0.0
C1200 C 0.3444 0.41726 0.61346 0.0
C1201 C 0.35641 0.42511 0.58492 0.0
C1202 C 0.37121 0.42965 0.63667 0.0
C1203 C 0.34404 0.40627 0.66014 0.0
N1204 N 0.35476 0.43114 0.60167 0.0
N1205 N 0.33653 0.4096 0.64386 0.0
H1206 H 0.82166 0.14239 0.90664 0.0
H1207 H 0.82281 0.10914 0.825 0.0
H1208 H 0.85554 0.07874 0.92009 0.0
H1209 H 0.88664 0.07916 0.8426 0.0
H1210 H 0.80657 0.10438 0.85371 0.0
H1211 H 0.81559 0.1277 0.87782 0.0
C1212 C 0.82669 0.1248 0.90373 0.0
C1213 C 0.83902 0.1117 0.9157 0.0
C1214 C 0.82386 0.09812 0.85113 0.0
C1215 C 0.83299 0.09499 0.88256 0.0
C1216 C 0.83299 0.10044 0.83467 0.0
C1217 C 0.85619 0.09481 0.83157 0.0
C1218 C 0.83812 0.0901 0.8644 0.0
C1219 C 0.86873 0.08391 0.84458 0.0
C1220 C 0.82327 0.11635 0.88723 0.0
C1221 C 0.84575 0.08924 0.91122 0.0
N1222 N 0.8597 0.08233 0.86055 0.0
N1223 N 0.84343 0.0819 0.89479 0.0
H1224 H 0.14134 0.43 0.92173 0.0
H1225 H 0.12275 0.42303 0.83687 0.0
H1226 H 0.16791 0.36176 0.91215 0.0
H1227 H 0.18308 0.37988 0.83322 0.0
H1228 H 0.13236 0.43136 0.86659 0.0
H1229 H 0.15116 0.44095 0.89232 0.0
C1230 C 0.1503 0.4177 0.91367 0.0
C1231 C 0.15386 0.39497 0.91925 0.0
C1232 C 0.14427 0.42106 0.85913 0.0
C1233 C 0.16416 0.40693 0.88559 0.0
C1234 C 0.13876 0.41639 0.84211 0.0
C1235 C 0.15233 0.40103 0.83263 0.0
C1236 C 0.16305 0.40961 0.8668 0.0
C1237 C 0.17243 0.39211 0.84012 0.0
C1238 C 0.1555 0.42381 0.89681 0.0
C1239 C 0.16499 0.37947 0.90826 0.0
N1240 N 0.17679 0.39593 0.85694 0.0
N1241 N 0.16944 0.38563 0.89185 0.0
H1242 H 0.86828 0.92957 0.08 0.0
H1243 H 0.88898 0.92381 0.16478 0.0
H1244 H 0.84025 0.86224 0.09084 0.0
H1245 H 0.82727 0.8829 0.1698 0.0
H1246 H 0.87899 0.93167 0.13507 0.0
H1247 H 0.85971 0.94137 0.10946 0.0
C1248 C 0.85928 0.91766 0.08836 0.0
C1249 C 0.85495 0.89492 0.08309 0.0
C1250 C 0.86691 0.922 0.14282 0.0
C1251 C 0.846 0.90786 0.11679 0.0
C1252 C 0.87262 0.91761 0.15985 0.0
C1253 C 0.85875 0.90297 0.16973 0.0
C1254 C 0.8476 0.91098 0.13554 0.0
C1255 C 0.83817 0.89459 0.16261 0.0
C1256 C 0.85479 0.92425 0.10523 0.0
C1257 C 0.84379 0.87995 0.09447 0.0
N1258 N 0.83359 0.89806 0.14577 0.0
N1259 N 0.84 0.88657 0.11088 0.0
H1260 H 0.35973 0.58573 0.42266 0.0
H1261 H 0.32928 0.61838 0.32692 0.0
H1262 H 0.32602 0.64849 0.40686 0.0
H1263 H 0.39241 0.58609 0.34354 0.0
H1264 H 0.31332 0.61341 0.35573 0.0
H1265 H 0.35573 0.57064 0.39355 0.0
C1266 C 0.35017 0.59572 0.41334 0.0
C1267 C 0.34323 0.61839 0.41706 0.0
C1268 C 0.33023 0.60641 0.35281 0.0
C1269 C 0.33883 0.6014 0.38391 0.0
C1270 C 0.33925 0.60902 0.33637 0.0
C1271 C 0.36214 0.60258 0.33295 0.0
C1272 C 0.34416 0.59703 0.36574 0.0
C1273 C 0.37465 0.59116 0.34573 0.0
C1274 C 0.34816 0.58722 0.3967 0.0
C1275 C 0.33152 0.63091 0.40443 0.0
N1276 N 0.36562 0.58904 0.36167 0.0
N1277 N 0.33005 0.62242 0.38829 0.0
H1278 H 0.67625 0.11163 0.67271 0.0
H1279 H 0.67485 0.13385 0.58831 0.0
H1280 H 0.6108 0.08154 0.65891 0.0
H1281 H 0.63778 0.07017 0.581 0.0
H1282 H 0.68155 0.12337 0.61807 0.0
H1283 H 0.69062 0.10361 0.64381 0.0
C1284 C 0.66532 0.10229 0.66385 0.0
C1285 C 0.64228 0.09734 0.66807 0.0
C1286 C 0.67304 0.11102 0.60982 0.0
C1287 C 0.65821 0.08888 0.63502 0.0
C1288 C 0.66932 0.11701 0.59276 0.0
C1289 C 0.65601 0.1027 0.58222 0.0
C1290 C 0.66263 0.09096 0.61645 0.0
C1291 C 0.64844 0.08145 0.58872 0.0
C1292 C 0.67338 0.09809 0.64729 0.0
C1293 C 0.62865 0.08566 0.65607 0.0
N1294 N 0.65114 0.07658 0.6056 0.0
N1295 N 0.63669 0.08215 0.63999 0.0
H1296 H 0.83067 0.39759 0.82519 0.0
H1297 H 0.82254 0.36472 0.90736 0.0
H1298 H 0.89691 0.41824 0.8451 0.0
H1299 H 0.86007 0.42611 0.92126 0.0
H1300 H 0.81944 0.3791 0.87816 0.0
H1301 H 0.81356 0.40403 0.85351 0.0
C1302 C 0.84134 0.40464 0.8353 0.0
C1303 C 0.86521 0.40732 0.83294 0.0
C1304 C 0.82727 0.39009 0.88774 0.0
C1305 C 0.84603 0.41413 0.86521 0.0
C1306 C 0.82891 0.38188 0.90446 0.0
C1307 C 0.84144 0.39434 0.91668 0.0
C1308 C 0.83902 0.41044 0.88316 0.0
C1309 C 0.85004 0.41615 0.91219 0.0
C1310 C 0.83164 0.40798 0.85148 0.0
C1311 C 0.87843 0.41598 0.84649 0.0
N1312 N 0.84952 0.42311 0.8956 0.0
N1313 N 0.86872 0.41876 0.86214 0.0
H1314 H 0.32458 0.12222 0.67423 0.0
H1315 H 0.3635 0.08662 0.5806 0.0
H1316 H 0.38696 0.0852 0.66207 0.0
H1317 H 0.33028 0.15063 0.5941 0.0
H1318 H 0.35673 0.07236 0.6097 0.0
H1319 H 0.31188 0.11789 0.64451 0.0
C1320 C 0.33493 0.11195 0.66554 0.0
C1321 C 0.35679 0.10397 0.67052 0.0
C1322 C 0.34999 0.0891 0.60603 0.0
C1323 C 0.34262 0.09929 0.63665 0.0
C1324 C 0.35363 0.09715 0.58941 0.0
C1325 C 0.3474 0.1198 0.58504 0.0
C1326 C 0.3398 0.10376 0.61817 0.0
C1327 C 0.33525 0.13303 0.59703 0.0
C1328 C 0.32782 0.10975 0.64857 0.0
C1329 C 0.36993 0.09144 0.65869 0.0
N1330 N 0.33211 0.12495 0.61315 0.0
N1331 N 0.36282 0.0898 0.64219 0.0
H1332 H 0.67637 0.63265 0.4141 0.0
H1333 H 0.61825 0.58104 0.33647 0.0
H1334 H 0.63418 0.57169 0.41838 0.0
H1335 H 0.68161 0.61945 0.33177 0.0
H1336 H 0.62868 0.57101 0.3658 0.0
H1337 H 0.68467 0.62272 0.38439 0.0
C1338 C 0.66983 0.61653 0.40898 0.0
C1339 C 0.65476 0.60284 0.41863 0.0
C1340 C 0.64083 0.58084 0.3582 0.0
C1341 C 0.66293 0.59205 0.38443 0.0
C1342 C 0.63492 0.58637 0.34139 0.0
C1343 C 0.64922 0.60088 0.33175 0.0
C1344 C 0.6607 0.59071 0.36555 0.0
C1345 C 0.67031 0.60797 0.33881 0.0
C1346 C 0.67436 0.61093 0.39196 0.0
C1347 C 0.64612 0.5825 0.41133 0.0
N1348 N 0.67513 0.60338 0.35547 0.0
N1349 N 0.64975 0.57805 0.39448 0.0
H1350 H 0.11321 0.92774 0.16018 0.0
H1351 H 0.15082 0.92748 0.07929 0.0
H1352 H 0.17661 0.8945 0.17511 0.0
H1353 H 0.1789 0.86318 0.09761 0.0
H1354 H 0.15397 0.94344 0.10823 0.0
H1355 H 0.12915 0.9341 0.13175 0.0
C1356 C 0.13101 0.92297 0.15772 0.0
C1357 C 0.14365 0.91064 0.16996 0.0
C1358 C 0.1602 0.92612 0.10577 0.0
C1359 C 0.16175 0.91693 0.13725 0.0
C1360 C 0.15876 0.91713 0.08921 0.0
C1361 C 0.16437 0.89391 0.08618 0.0
C1362 C 0.16736 0.91172 0.11921 0.0
C1363 C 0.17424 0.88111 0.09951 0.0
C1364 C 0.14015 0.92652 0.14143 0.0
C1365 C 0.16642 0.90426 0.16602 0.0
N1366 N 0.17503 0.89005 0.11554 0.0
N1367 N 0.17442 0.90663 0.14978 0.0
H1368 H 0.83679 0.63872 0.08973 0.0
H1369 H 0.89502 0.57172 0.15713 0.0
H1370 H 0.86823 0.5738 0.07639 0.0
H1371 H 0.83193 0.60739 0.16946 0.0
H1372 H 0.88126 0.56653 0.1279 0.0
H1373 H 0.82911 0.62386 0.11839 0.0
C1374 C 0.84096 0.62089 0.09261 0.0
C1375 C 0.85298 0.60737 0.08074 0.0
C1376 C 0.8699 0.57458 0.13714 0.0
C1377 C 0.84555 0.5907 0.11371 0.0
C1378 C 0.87771 0.57733 0.15389 0.0
C1379 C 0.86456 0.58994 0.16566 0.0
C1380 C 0.84928 0.5854 0.13204 0.0
C1381 C 0.84248 0.5974 0.16073 0.0
C1382 C 0.83674 0.61242 0.10901 0.0
C1383 C 0.85867 0.58462 0.0852 0.0
N1384 N 0.83586 0.59581 0.1441 0.0
N1385 N 0.85563 0.57722 0.10154 0.0
H1386 H 0.17175 0.10995 0.82918 0.0
H1387 H 0.167 0.13921 0.91233 0.0
H1388 H 0.10636 0.07994 0.84325 0.0
H1389 H 0.13157 0.07517 0.922 0.0
H1390 H 0.17472 0.12654 0.88316 0.0
H1391 H 0.18535 0.10457 0.85861 0.0
C1392 C 0.16069 0.10117 0.83826 0.0
C1393 C 0.13786 0.09552 0.83391 0.0
C1394 C 0.16634 0.11464 0.89184 0.0
C1395 C 0.15291 0.09003 0.86751 0.0
C1396 C 0.16202 0.12191 0.90854 0.0
C1397 C 0.1489 0.10808 0.91955 0.0
C1398 C 0.15671 0.09377 0.886 0.0
C1399 C 0.14207 0.08614 0.91391 0.0
C1400 C 0.16831 0.09846 0.8551 0.0
C1401 C 0.12405 0.08459 0.84619 0.0
N1402 N 0.14534 0.07997 0.89732 0.0
N1403 N 0.13165 0.08253 0.86252 0.0
H1404 H 0.64227 0.42057 0.57829 0.0
H1405 H 0.68302 0.39159 0.67266 0.0
H1406 H 0.67567 0.35758 0.594 0.0
H1407 H 0.61948 0.4261 0.65978 0.0
H1408 H 0.69532 0.39464 0.64278 0.0
H1409 H 0.64948 0.43688 0.60675 0.0
C1410 C 0.65226 0.41068 0.58743 0.0
C1411 C 0.65842 0.38773 0.5839 0.0
C1412 C 0.67921 0.40258 0.64669 0.0
C1413 C 0.66657 0.40615 0.61626 0.0
C1414 C 0.67232 0.40112 0.66375 0.0
C1415 C 0.65024 0.40865 0.66859 0.0
C1416 C 0.66398 0.41187 0.63455 0.0
C1417 C 0.63668 0.42022 0.65649 0.0
C1418 C 0.65616 0.41991 0.60367 0.0
C1419 C 0.67074 0.37536 0.59628 0.0
N1420 N 0.64359 0.42113 0.63992 0.0
N1421 N 0.67416 0.38461 0.61203 0.0
H1422 H 0.38726 0.93596 0.33899 0.0
H1423 H 0.36217 0.93776 0.4227 0.0
H1424 H 0.32531 0.89639 0.33068 0.0
H1425 H 0.33573 0.87085 0.40867 0.0
H1426 H 0.35411 0.95161 0.39365 0.0
H1427 H 0.37513 0.94316 0.36832 0.0
C1428 C 0.37041 0.92996 0.34309 0.0
C1429 C 0.3572 0.91567 0.33245 0.0
C1430 C 0.34937 0.93413 0.39711 0.0
C1431 C 0.3436 0.92288 0.36622 0.0
C1432 C 0.35363 0.92634 0.41374 0.0
C1433 C 0.34971 0.90312 0.41795 0.0
C1434 C 0.34119 0.91848 0.38476 0.0
C1435 C 0.33904 0.88886 0.40583 0.0
C1436 C 0.36347 0.93396 0.35991 0.0
C1437 C 0.33583 0.90771 0.33849 0.0
N1438 N 0.33548 0.89666 0.38969 0.0
N1439 N 0.3301 0.91064 0.3552 0.0
H1440 H 0.06715 0.62211 0.05801 0.0
H1441 H 0.95073 0.66044 0.01069 0.0
H1442 H 0.06835 0.66281 0.01197 0.0
H1443 H 0.95495 0.60553 0.04764 0.0
H1444 H 0.99317 0.6642 0.0116 0.0
H1445 H 0.02524 0.61951 0.05592 0.0
C1446 C 0.05845 0.63125 0.0478 0.0
C1447 C 0.07111 0.64317 0.03538 0.0
C1448 C 0.98479 0.6513 0.01946 0.0
C1449 C 0.02303 0.63984 0.03262 0.0
C1450 C 0.96066 0.64921 0.01896 0.0
C1451 C 0.94948 0.63337 0.02968 0.0
C1452 C 0.99763 0.63721 0.0306 0.0
C1453 C 0.96297 0.61863 0.03973 0.0
C1454 C 0.03453 0.62943 0.04643 0.0
C1455 C 0.05907 0.65376 0.02194 0.0
N1456 N 0.9863 0.62107 0.0401 0.0
N1457 N 0.03562 0.65194 0.02093 0.0
H1458 H 0.65296 0.70191 0.29609 0.0
H1459 H 0.59023 0.81461 0.25974 0.0
H1460 H 0.59723 0.69663 0.25986 0.0
H1461 H 0.62913 0.81214 0.30662 0.0
H1462 H 0.59434 0.77237 0.2571 0.0
H1463 H 0.64833 0.74386 0.29636 0.0
C1464 C 0.63965 0.7097 0.28824 0.0
C1465 C 0.62477 0.69594 0.27852 0.0
C1466 C 0.60165 0.7811 0.26808 0.0
C1467 C 0.61935 0.74384 0.27867 0.0
C1468 C 0.59911 0.80508 0.26967 0.0
C1469 C 0.60887 0.81673 0.28363 0.0
C1470 C 0.61469 0.76897 0.28026 0.0
C1471 C 0.6207 0.80377 0.29595 0.0
C1472 C 0.63702 0.7336 0.28836 0.0
C1473 C 0.60851 0.70679 0.26794 0.0
N1474 N 0.62351 0.78068 0.29386 0.0
N1475 N 0.60594 0.7302 0.26847 0.0
H1476 H 0.44928 0.40332 0.5448 0.0
H1477 H 0.56093 0.33666 0.51041 0.0
H1478 H 0.44345 0.34799 0.5083 0.0
H1479 H 0.55875 0.37712 0.55656 0.0
H1480 H 0.5189 0.34198 0.50721 0.0
H1481 H 0.49105 0.39746 0.54575 0.0
C1482 C 0.45692 0.38985 0.53702 0.0
C1483 C 0.44302 0.37545 0.52701 0.0
C1484 C 0.52763 0.34936 0.51816 0.0
C1485 C 0.49073 0.36858 0.52797 0.0
C1486 C 0.55148 0.34612 0.52008 0.0
C1487 C 0.56316 0.35598 0.534 0.0
C1488 C 0.51566 0.36316 0.52997 0.0
C1489 C 0.55033 0.36858 0.54596 0.0
C1490 C 0.48072 0.38651 0.53753 0.0
C1491 C 0.45369 0.35892 0.51657 0.0
N1492 N 0.52737 0.37202 0.54356 0.0
N1493 N 0.477 0.35564 0.5175 0.0
H1494 H 0.8602 0.30936 0.7976 0.0
H1495 H 0.91214 0.19207 0.76025 0.0
H1496 H 0.91625 0.31006 0.76144 0.0
H1497 H 0.87351 0.197 0.80714 0.0
H1498 H 0.91251 0.23455 0.7584 0.0
H1499 H 0.86152 0.2672 0.79802 0.0
C1500 C 0.8729 0.30051 0.78982 0.0
C1501 C 0.88878 0.31302 0.78003 0.0
C1502 C 0.90431 0.22629 0.76922 0.0
C1503 C 0.89039 0.26482 0.78032 0.0
C1504 C 0.90426 0.20214 0.77035 0.0
C1505 C 0.89322 0.1911 0.78407 0.0
C1506 C 0.89263 0.23933 0.78163 0.0
C1507 C 0.88282 0.20481 0.79664 0.0
C1508 C 0.87365 0.27648 0.79003 0.0
C1509 C 0.90421 0.30087 0.76955 0.0
N1510 N 0.88256 0.22816 0.79502 0.0
N1511 N 0.90487 0.27732 0.77012 0.0
H1512 H 0.93759 0.34333 0.99033 0.0
H1513 H 0.0522 0.4039 0.9549 0.0
H1514 H 0.94094 0.38398 0.94432 0.0
H1515 H 0.05539 0.34764 0.99078 0.0
H1516 H 0.01007 0.40093 0.95471 0.0
H1517 H 0.97986 0.34665 0.99319 0.0
C1518 C 0.94733 0.35247 0.98064 0.0
C1519 C 0.93593 0.36292 0.96685 0.0
C1520 C 0.0199 0.38915 0.96262 0.0
C1521 C 0.98376 0.36788 0.97052 0.0
C1522 C 0.04391 0.39083 0.96269 0.0
C1523 C 0.0571 0.37529 0.97227 0.0
C1524 C 0.00902 0.37175 0.97219 0.0
C1525 C 0.04566 0.35939 0.98279 0.0
C1526 C 0.97132 0.35457 0.98237 0.0
C1527 C 0.94913 0.37507 0.95485 0.0
N1528 N 0.02217 0.35773 0.98228 0.0
N1529 N 0.97227 0.37746 0.95709 0.0
H1530 H 0.9116 0.80697 0.24188 0.0
H1531 H 0.87385 0.6927 0.1913 0.0
H1532 H 0.85794 0.80431 0.20383 0.0
H1533 H 0.9139 0.68935 0.2376 0.0
H1534 H 0.87164 0.73453 0.19427 0.0
H1535 H 0.9154 0.76454 0.24 0.0
C1536 C 0.90062 0.79739 0.23321 0.0
C1537 C 0.88507 0.80901 0.22251 0.0
C1538 C 0.88135 0.72479 0.20363 0.0
C1539 C 0.88901 0.76095 0.22042 0.0
C1540 C 0.88293 0.70091 0.20176 0.0
C1541 C 0.89451 0.68766 0.21401 0.0
C1542 C 0.89161 0.73564 0.2178 0.0
C1543 C 0.90507 0.69909 0.22777 0.0
C1544 C 0.90274 0.77328 0.23214 0.0
C1545 C 0.87072 0.79596 0.21184 0.0
N1546 N 0.90344 0.72249 0.22929 0.0
N1547 N 0.8732 0.77269 0.21092 0.0
H1548 H 0.44427 0.62597 0.44239 0.0
H1549 H 0.56134 0.65794 0.49156 0.0
H1550 H 0.44397 0.66683 0.48837 0.0
H1551 H 0.55516 0.60451 0.45357 0.0
H1552 H 0.5191 0.66373 0.4903 0.0
H1553 H 0.4859 0.62128 0.44507 0.0
C1554 C 0.45315 0.63473 0.4527 0.0
C1555 C 0.4408 0.64727 0.46495 0.0
C1556 C 0.52701 0.65067 0.48232 0.0
C1557 C 0.48857 0.64153 0.4684 0.0
C1558 C 0.55102 0.64742 0.48303 0.0
C1559 C 0.56162 0.63139 0.47214 0.0
C1560 C 0.51375 0.63758 0.47077 0.0
C1561 C 0.54763 0.61765 0.46169 0.0
C1562 C 0.47691 0.63172 0.45442 0.0
C1563 C 0.45303 0.65732 0.47853 0.0
N1564 N 0.52448 0.62122 0.46112 0.0
N1565 N 0.47632 0.65432 0.47989 0.0
H1566 H 0.63362 0.19873 0.69412 0.0
H1567 H 0.59809 0.3154 0.74227 0.0
H1568 H 0.59288 0.19775 0.74016 0.0
H1569 H 0.65162 0.31039 0.70426 0.0
H1570 H 0.59392 0.27296 0.74159 0.0
H1571 H 0.63745 0.24042 0.69669 0.0
C1572 C 0.62473 0.20745 0.70444 0.0
C1573 C 0.61244 0.19489 0.71671 0.0
C1574 C 0.60665 0.28117 0.73348 0.0
C1575 C 0.6171 0.2428 0.71998 0.0
C1576 C 0.60897 0.3053 0.73385 0.0
C1577 C 0.62453 0.31625 0.72277 0.0
C1578 C 0.62022 0.26814 0.72209 0.0
C1579 C 0.63879 0.30255 0.7125 0.0
C1580 C 0.62724 0.23127 0.70608 0.0
C1581 C 0.60219 0.20697 0.73029 0.0
N1582 N 0.63612 0.27927 0.71226 0.0
N1583 N 0.60463 0.23034 0.73154 0.0
H1584 H 0.41778 0.31618 0.73883 0.0
H1585 H 0.3573 0.20034 0.7063 0.0
H1586 H 0.37849 0.31029 0.6923 0.0
H1587 H 0.41364 0.19799 0.74219 0.0
H1588 H 0.36124 0.24222 0.70466 0.0
H1589 H 0.41503 0.27401 0.7426 0.0
C1590 C 0.40912 0.3059 0.7292 0.0
C1591 C 0.39878 0.3166 0.71504 0.0
C1592 C 0.37282 0.23265 0.71291 0.0
C1593 C 0.39454 0.26885 0.7197 0.0
C1594 C 0.37056 0.20877 0.71383 0.0
C1595 C 0.38575 0.1958 0.72389 0.0
C1596 C 0.39044 0.24373 0.72211 0.0
C1597 C 0.40204 0.2075 0.73394 0.0
C1598 C 0.40736 0.28196 0.73144 0.0
C1599 C 0.38729 0.30269 0.70312 0.0
N1600 N 0.40422 0.23091 0.73262 0.0
N1601 N 0.38525 0.27963 0.70583 0.0
H1602 H 0.09178 0.69088 0.23986 0.0
H1603 H 0.13026 0.80727 0.19233 0.0
H1604 H 0.14546 0.69526 0.20192 0.0
H1605 H 0.09093 0.80874 0.23902 0.0
H1606 H 0.13098 0.76526 0.19361 0.0
H1607 H 0.08755 0.73332 0.23869 0.0
C1608 C 0.10263 0.70083 0.23132 0.0
C1609 C 0.11837 0.6897 0.22049 0.0
C1610 C 0.1218 0.77465 0.20345 0.0
C1611 C 0.11394 0.73777 0.21922 0.0
C1612 C 0.12104 0.79867 0.20253 0.0
C1613 C 0.11004 0.81143 0.21535 0.0
C1614 C 0.11155 0.7632 0.21735 0.0
C1615 C 0.09934 0.79941 0.22877 0.0
C1616 C 0.10025 0.72494 0.23066 0.0
C1617 C 0.13254 0.70322 0.21001 0.0
N1618 N 0.10034 0.7759 0.22945 0.0
N1619 N 0.12985 0.72648 0.20951 0.0
H1620 H 0.09064 0.19102 0.75751 0.0
H1621 H 0.15334 0.30364 0.79391 0.0
H1622 H 0.12854 0.1941 0.80481 0.0
H1623 H 0.09681 0.30957 0.75842 0.0
H1624 H 0.14893 0.26173 0.79364 0.0
H1625 H 0.09495 0.23326 0.75458 0.0
C1626 C 0.09936 0.20069 0.76745 0.0
C1627 C 0.10875 0.18923 0.78164 0.0
C1628 C 0.13742 0.2721 0.7859 0.0
C1629 C 0.11487 0.2369 0.77791 0.0
C1630 C 0.13992 0.29599 0.78608 0.0
C1631 C 0.12475 0.30993 0.77675 0.0
C1632 C 0.11956 0.26201 0.77631 0.0
C1633 C 0.10833 0.29926 0.76619 0.0
C1634 C 0.10202 0.22465 0.76569 0.0
C1635 C 0.1204 0.20232 0.79396 0.0
N1636 N 0.10586 0.27582 0.76645 0.0
N1637 N 0.12339 0.22535 0.79168 0.0
H1638 H 0.41831 0.69802 0.26164 0.0
H1639 H 0.37231 0.81165 0.30912 0.0
H1640 H 0.36334 0.69909 0.29871 0.0
H1641 H 0.41151 0.81583 0.26246 0.0
H1642 H 0.37397 0.76967 0.30759 0.0
H1643 H 0.41998 0.74065 0.26292 0.0
C1644 C 0.40664 0.70728 0.27002 0.0
C1645 C 0.39127 0.6952 0.28058 0.0
C1646 C 0.38262 0.77968 0.29782 0.0
C1647 C 0.39279 0.74345 0.28196 0.0
C1648 C 0.38199 0.80368 0.29886 0.0
C1649 C 0.39225 0.81717 0.28612 0.0
C1650 C 0.3936 0.76896 0.2839 0.0
C1651 C 0.40364 0.80593 0.27264 0.0
C1652 C 0.40756 0.7315 0.27074 0.0
C1653 C 0.37602 0.70782 0.29084 0.0
N1654 N 0.40405 0.7824 0.27187 0.0
N1655 N 0.37731 0.7312 0.2914 0.0
H1656 H 0.44479 0.16679 0.50991 0.0
H1657 H 0.55581 0.10051 0.54591 0.0
H1658 H 0.44645 0.12764 0.55669 0.0
H1659 H 0.56242 0.15538 0.50911 0.0
H1660 H 0.51399 0.10616 0.54614 0.0
H1661 H 0.48678 0.16092 0.50686 0.0
C1662 C 0.45412 0.15747 0.51973 0.0
C1663 C 0.44231 0.14818 0.5338 0.0
C1664 C 0.5245 0.11704 0.53801 0.0
C1665 C 0.48973 0.14032 0.52992 0.0
C1666 C 0.54833 0.11383 0.53791 0.0
C1667 C 0.56245 0.12819 0.52804 0.0
C1668 C 0.51469 0.13482 0.52818 0.0
C1669 C 0.55199 0.14449 0.51729 0.0
C1670 C 0.47794 0.15391 0.51788 0.0
C1671 C 0.45498 0.13573 0.54594 0.0
N1672 N 0.52864 0.14768 0.51784 0.0
N1673 N 0.47789 0.13194 0.54361 0.0
H1674 H 0.95071 0.84438 0.00978 0.0
H1675 H 0.06645 0.88141 0.05837 0.0
H1676 H 0.95493 0.89834 0.0475 0.0
H1677 H 0.06876 0.84211 0.01167 0.0
H1678 H 0.02476 0.88448 0.05561 0.0
H1679 H 0.99324 0.84086 0.01048 0.0
C1680 C 0.96065 0.85549 0.01814 0.0
C1681 C 0.94947 0.87097 0.02915 0.0
C1682 C 0.0342 0.8747 0.04612 0.0
C1683 C 0.99763 0.86738 0.02986 0.0
C1684 C 0.05803 0.87263 0.04786 0.0
C1685 C 0.07097 0.86102 0.03544 0.0
C1686 C 0.023 0.86468 0.03203 0.0
C1687 C 0.05925 0.85089 0.02165 0.0
C1688 C 0.98482 0.85354 0.01852 0.0
C1689 C 0.96296 0.88554 0.03934 0.0
N1690 N 0.03582 0.85282 0.02033 0.0
N1691 N 0.98627 0.88321 0.03961 0.0
H1692 H 0.44992 0.9025 0.4527 0.0
H1693 H 0.56215 0.83822 0.48829 0.0
H1694 H 0.44465 0.84762 0.48961 0.0
H1695 H 0.56026 0.87825 0.44194 0.0
H1696 H 0.51997 0.8425 0.49085 0.0
H1697 H 0.49172 0.89697 0.45171 0.0
C1698 C 0.45768 0.88918 0.46055 0.0
C1699 C 0.44392 0.87484 0.47072 0.0
C1700 C 0.52877 0.84999 0.47998 0.0
C1701 C 0.49171 0.86837 0.46972 0.0
C1702 C 0.55274 0.84737 0.47843 0.0
C1703 C 0.56456 0.85745 0.46467 0.0
C1704 C 0.51678 0.86339 0.46795 0.0
C1705 C 0.55175 0.86959 0.45244 0.0
C1706 C 0.48151 0.88603 0.46001 0.0
C1707 C 0.45477 0.85853 0.48124 0.0
N1708 N 0.52862 0.87243 0.45447 0.0
N1709 N 0.47811 0.85546 0.4803 0.0
H1710 H 0.0502 0.10555 0.95562 0.0
H1711 H 0.93441 0.16398 0.99016 0.0
H1712 H 0.05288 0.1626 0.99087 0.0
H1713 H 0.93963 0.12544 0.94325 0.0
H1714 H 0.97677 0.1619 0.99324 0.0
H1715 H 0.00816 0.10867 0.95487 0.0
C1716 C 0.04181 0.11882 0.96317 0.0
C1717 C 0.05488 0.13448 0.97274 0.0
C1718 C 0.9686 0.15424 0.98216 0.0
C1719 C 0.00681 0.13817 0.97203 0.0
C1720 C 0.94456 0.15561 0.98032 0.0
C1721 C 0.93365 0.14532 0.96623 0.0
C1722 C 0.98156 0.1418 0.97011 0.0
C1723 C 0.94739 0.1342 0.95402 0.0
C1724 C 0.01785 0.12059 0.96276 0.0
C1725 C 0.04327 0.15069 0.98292 0.0
N1726 N 0.97055 0.13248 0.95637 0.0
N1727 N 0.01978 0.15239 0.98212 0.0
H1728 H 0.12705 0.46494 0.96195 0.0
H1729 H 0.1261 0.54597 0.04227 0.0
H1730 H 0.14435 0.43744 0.01148 0.0
H1731 H 0.15203 0.57068 0.99399 0.0
H1732 H 0.12794 0.50623 0.03133 0.0
H1733 H 0.13159 0.50417 0.97328 0.0
C1734 C 0.13199 0.46719 0.9752 0.0
C1735 C 0.1354 0.44796 0.9858 0.0
C1736 C 0.1334 0.52036 0.02321 0.0
C1737 C 0.13999 0.49275 0.99892 0.0
C1738 C 0.13223 0.54302 0.02938 0.0
C1739 C 0.13888 0.56164 0.01899 0.0
C1740 C 0.14064 0.51635 0.00637 0.0
C1741 C 0.14679 0.55682 0.00243 0.0
C1742 C 0.13463 0.48955 0.98162 0.0
C1743 C 0.14175 0.45183 0.00286 0.0
N1744 N 0.14712 0.53468 0.99653 0.0
N1745 N 0.14346 0.47382 0.009 0.0
H1746 H 0.79785 0.8422 0.23091 0.0
H1747 H 0.69034 0.91722 0.26017 0.0
H1748 H 0.80723 0.91409 0.24365 0.0
H1749 H 0.69872 0.84585 0.27473 0.0
H1750 H 0.73044 0.91734 0.24947 0.0
H1751 H 0.75849 0.84405 0.2421 0.0
C1752 C 0.79159 0.85844 0.236 0.0
C1753 C 0.80589 0.87802 0.23638 0.0
C1754 C 0.72342 0.90173 0.25506 0.0
C1755 C 0.76059 0.88029 0.24901 0.0
C1756 C 0.70057 0.9016 0.26107 0.0
C1757 C 0.69119 0.88148 0.26835 0.0
C1758 C 0.73669 0.88144 0.25594 0.0
C1759 C 0.70524 0.86176 0.26928 0.0
C1760 C 0.76915 0.85943 0.24245 0.0
C1761 C 0.79682 0.89857 0.24321 0.0
N1762 N 0.72714 0.86216 0.263 0.0
N1763 N 0.77462 0.89925 0.24913 0.0
H1764 H 0.38146 0.47027 0.53732 0.0
H1765 H 0.38112 0.55249 0.45777 0.0
H1766 H 0.35878 0.44479 0.48837 0.0
H1767 H 0.35907 0.57783 0.50691 0.0
H1768 H 0.37817 0.51279 0.46856 0.0
H1769 H 0.37842 0.50993 0.5265 0.0
C1770 C 0.37573 0.47306 0.52431 0.0
C1771 C 0.37035 0.45426 0.5137 0.0
C1772 C 0.37381 0.52705 0.47692 0.0
C1773 C 0.36736 0.49948 0.50118 0.0
C1774 C 0.37561 0.54968 0.47082 0.0
C1775 C 0.37036 0.56845 0.48149 0.0
C1776 C 0.36739 0.52318 0.49395 0.0
C1777 C 0.3632 0.56383 0.49827 0.0
C1778 C 0.37391 0.49565 0.51819 0.0
C1779 C 0.36296 0.45882 0.49697 0.0
N1780 N 0.36227 0.54166 0.50409 0.0
N1781 N 0.36205 0.48098 0.49111 0.0
H1782 H 0.80062 0.16481 0.77261 0.0
H1783 H 0.69153 0.09282 0.74181 0.0
H1784 H 0.80792 0.09323 0.75831 0.0
H1785 H 0.70106 0.16436 0.72814 0.0
H1786 H 0.73142 0.09199 0.75288 0.0
H1787 H 0.76109 0.16444 0.7614 0.0
C1788 C 0.79388 0.14898 0.76717 0.0
C1789 C 0.80763 0.12904 0.76633 0.0
C1790 C 0.7247 0.10781 0.74743 0.0
C1791 C 0.76222 0.12841 0.75377 0.0
C1792 C 0.70196 0.10834 0.7412 0.0
C1793 C 0.693 0.12868 0.73402 0.0
C1794 C 0.73827 0.12794 0.74688 0.0
C1795 C 0.7073 0.14828 0.73349 0.0
C1796 C 0.77135 0.14882 0.76073 0.0
C1797 C 0.79796 0.10902 0.7591 0.0
N1798 N 0.72909 0.14749 0.73998 0.0
N1799 N 0.77575 0.10914 0.75323 0.0
H1800 H 0.86311 0.56987 0.98845 0.0
H1801 H 0.85506 0.43478 0.00695 0.0
H1802 H 0.88222 0.54112 0.03723 0.0
H1803 H 0.88118 0.46037 0.95898 0.0
H1804 H 0.85441 0.4746 0.01793 0.0
H1805 H 0.85913 0.53034 0.97705 0.0
C1806 C 0.86613 0.55526 0.9968 0.0
C1807 C 0.8731 0.5587 0.01377 0.0
C1808 C 0.8601 0.47143 0.00496 0.0
C1809 C 0.86819 0.51376 0.00097 0.0
C1810 C 0.8604 0.44879 0.99868 0.0
C1811 C 0.86833 0.44429 0.98208 0.0
C1812 C 0.86716 0.48973 0.9944 0.0
C1813 C 0.87513 0.46309 0.9719 0.0
C1814 C 0.864 0.5328 0.99028 0.0
C1815 C 0.87697 0.53919 0.02404 0.0
N1816 N 0.87427 0.48502 0.97818 0.0
N1817 N 0.87433 0.51756 0.01752 0.0
H1818 H 0.19842 0.16053 0.77584 0.0
H1819 H 0.30852 0.09019 0.7446 0.0
H1820 H 0.19147 0.08928 0.76054 0.0
H1821 H 0.29838 0.16239 0.73323 0.0
H1822 H 0.26846 0.08831 0.75538 0.0
H1823 H 0.23823 0.16037 0.76541 0.0
C1824 C 0.20531 0.14479 0.77036 0.0
C1825 C 0.19155 0.1249 0.769 0.0
C1826 C 0.27511 0.1045 0.75049 0.0
C1827 C 0.23734 0.12455 0.75724 0.0
C1828 C 0.29793 0.10562 0.74443 0.0
C1829 C 0.30677 0.12647 0.73798 0.0
C1830 C 0.26136 0.12452 0.75049 0.0
C1831 C 0.29228 0.14593 0.738 0.0
C1832 C 0.22801 0.14475 0.76435 0.0
C1833 C 0.20144 0.10502 0.76173 0.0
N1834 N 0.27043 0.14453 0.74429 0.0
N1835 N 0.22383 0.10527 0.75621 0.0
H1836 H 0.59351 0.44394 0.52406 0.0
H1837 H 0.66604 0.55223 0.49284 0.0
H1838 H 0.66501 0.43533 0.50984 0.0
H1839 H 0.59424 0.54247 0.47988 0.0
H1840 H 0.66719 0.51225 0.50381 0.0
H1841 H 0.59454 0.48331 0.51285 0.0
C1842 C 0.60948 0.45037 0.51862 0.0
C1843 C 0.62918 0.4363 0.51782 0.0
C1844 C 0.65127 0.51896 0.4985 0.0
C1845 C 0.63055 0.48157 0.50518 0.0
C1846 C 0.65056 0.54173 0.49233 0.0
C1847 C 0.63002 0.55066 0.48542 0.0
C1848 C 0.63114 0.50538 0.49813 0.0
C1849 C 0.61047 0.53629 0.48502 0.0
C1850 C 0.61002 0.47281 0.51218 0.0
C1851 C 0.64939 0.44557 0.51059 0.0
N1852 N 0.61145 0.51451 0.49143 0.0
N1853 N 0.64964 0.46775 0.50465 0.0
H1854 H 0.20042 0.84056 0.22901 0.0
H1855 H 0.30763 0.91537 0.25931 0.0
H1856 H 0.19116 0.91197 0.24313 0.0
H1857 H 0.2998 0.844 0.27398 0.0
H1858 H 0.26768 0.91506 0.24838 0.0
H1859 H 0.23982 0.84195 0.24046 0.0
C1860 C 0.20671 0.85657 0.23448 0.0
C1861 C 0.19245 0.87616 0.23518 0.0
C1862 C 0.27478 0.89952 0.25403 0.0
C1863 C 0.23772 0.87796 0.24799 0.0
C1864 C 0.29756 0.89964 0.26017 0.0
C1865 C 0.30703 0.87968 0.26759 0.0
C1866 C 0.26166 0.87912 0.25488 0.0
C1867 C 0.29316 0.85979 0.26844 0.0
C1868 C 0.22915 0.85731 0.24106 0.0
C1869 C 0.20152 0.89643 0.24245 0.0
N1870 N 0.27131 0.85994 0.262 0.0
N1871 N 0.22368 0.8969 0.24842 0.0
H1872 H 0.62428 0.0336 0.53905 0.0
H1873 H 0.62402 0.95323 0.45844 0.0
H1874 H 0.64737 0.06004 0.49049 0.0
H1875 H 0.6462 0.92662 0.50718 0.0
H1876 H 0.62716 0.99267 0.46978 0.0
H1877 H 0.62702 0.99417 0.5277 0.0
C1878 C 0.63006 0.03107 0.52602 0.0
C1879 C 0.63565 0.05007 0.51568 0.0
C1880 C 0.63149 0.97818 0.47793 0.0
C1881 C 0.63824 0.00513 0.50255 0.0
C1882 C 0.62959 0.95571 0.47152 0.0
C1883 C 0.63484 0.93666 0.48191 0.0
C1884 C 0.63802 0.9816 0.495 0.0
C1885 C 0.64208 0.94084 0.49874 0.0
C1886 C 0.63169 0.00861 0.5196 0.0
C1887 C 0.64305 0.04584 0.4989 0.0
N1888 N 0.64311 0.96286 0.50486 0.0
N1889 N 0.64377 0.02382 0.49274 0.0
H1890 H 0.20062 0.41696 0.75782 0.0
H1891 H 0.30833 0.3463 0.72301 0.0
H1892 H 0.21103 0.34449 0.76815 0.0
H1893 H 0.3173 0.41697 0.73924 0.0
H1894 H 0.26904 0.3469 0.73433 0.0
H1895 H 0.24024 0.41891 0.74609 0.0
C1896 C 0.21117 0.40151 0.75757 0.0
C1897 C 0.20257 0.38054 0.76399 0.0
C1898 C 0.27958 0.3623 0.7354 0.0
C1899 C 0.24735 0.38258 0.75043 0.0
C1900 C 0.30199 0.36201 0.72889 0.0
C1901 C 0.31616 0.38159 0.73026 0.0
C1902 C 0.27097 0.38244 0.74305 0.0
C1903 C 0.30698 0.40145 0.73805 0.0
C1904 C 0.23373 0.40266 0.75098 0.0
C1905 C 0.21697 0.36105 0.76343 0.0
N1906 N 0.28484 0.40145 0.74408 0.0
N1907 N 0.2385 0.36249 0.75665 0.0
H1908 H 0.84044 0.94383 0.00833 0.0
H1909 H 0.90723 0.05436 0.97401 0.0
H1910 H 0.91226 0.95691 0.01945 0.0
H1911 H 0.83611 0.06032 0.98992 0.0
H1912 H 0.90818 0.01505 0.98537 0.0
H1913 H 0.83724 0.98331 0.99658 0.0
C1914 C 0.8555 0.95494 0.00825 0.0
C1915 C 0.87664 0.94711 0.01491 0.0
C1916 C 0.89235 0.02494 0.98635 0.0
C1917 C 0.87321 0.99182 0.00129 0.0
C1918 C 0.89175 0.04735 0.97982 0.0
C1919 C 0.87158 0.0607 0.98109 0.0
C1920 C 0.87251 0.01547 0.99392 0.0
C1921 C 0.85206 0.05067 0.98879 0.0
C1922 C 0.85363 0.97743 0.00164 0.0
C1923 C 0.8956 0.96224 0.01455 0.0
N1924 N 0.85293 0.02855 0.99483 0.0
N1925 N 0.8935 0.98371 0.00772 0.0
H1926 H 0.30541 0.66132 0.2712 0.0
H1927 H 0.19782 0.58646 0.24222 0.0
H1928 H 0.31529 0.5894 0.25871 0.0
H1929 H 0.20717 0.65769 0.22753 0.0
H1930 H 0.238 0.5859 0.25289 0.0
H1931 H 0.26611 0.65912 0.26013 0.0
C1932 C 0.29928 0.645 0.26616 0.0
C1933 C 0.31369 0.62552 0.26581 0.0
C1934 C 0.23115 0.60155 0.24725 0.0
C1935 C 0.26844 0.62285 0.2533 0.0
C1936 C 0.20827 0.60193 0.24127 0.0
C1937 C 0.19916 0.62216 0.23399 0.0
C1938 C 0.24464 0.6217 0.24631 0.0
C1939 C 0.21346 0.6417 0.23299 0.0
C1940 C 0.27686 0.6438 0.25979 0.0
C1941 C 0.30477 0.60485 0.25908 0.0
N1942 N 0.23533 0.64104 0.23922 0.0
N1943 N 0.28257 0.60397 0.25319 0.0
H1944 H 0.41143 0.06041 0.52564 0.0
H1945 H 0.33923 0.95285 0.49253 0.0
H1946 H 0.3402 0.06938 0.5108 0.0
H1947 H 0.41114 0.96293 0.48008 0.0
H1948 H 0.33801 0.99249 0.50416 0.0
H1949 H 0.41047 0.02117 0.51415 0.0
C1950 C 0.39553 0.05408 0.52004 0.0
C1951 C 0.37588 0.06823 0.51911 0.0
C1952 C 0.35398 0.98592 0.49882 0.0
C1953 C 0.37462 0.02312 0.50615 0.0
C1954 C 0.35472 0.96335 0.49228 0.0
C1955 C 0.37531 0.95462 0.48531 0.0
C1956 C 0.37412 0.99949 0.49878 0.0
C1957 C 0.39488 0.96897 0.48525 0.0
C1958 C 0.39504 0.03171 0.51343 0.0
C1959 C 0.35576 0.05907 0.51166 0.0
N1960 N 0.39386 0.99055 0.49202 0.0
N1961 N 0.35557 0.03698 0.50555 0.0
H1962 H 0.71777 0.63087 0.28838 0.0
H1963 H 0.79729 0.63059 0.20738 0.0
H1964 H 0.69003 0.60983 0.23971 0.0
H1965 H 0.82362 0.60656 0.25572 0.0
H1966 H 0.75785 0.62827 0.21884 0.0
H1967 H 0.75696 0.6271 0.27677 0.0
C1968 C 0.71996 0.62531 0.27527 0.0
C1969 C 0.70068 0.6206 0.26498 0.0
C1970 C 0.77227 0.62334 0.22686 0.0
C1971 C 0.74536 0.61686 0.25154 0.0
C1972 C 0.79475 0.62478 0.22039 0.0
C1973 C 0.81372 0.61878 0.23064 0.0
C1974 C 0.7688 0.61653 0.24386 0.0
C1975 C 0.80946 0.61126 0.24739 0.0
C1976 C 0.74229 0.6231 0.2687 0.0
C1977 C 0.70447 0.61346 0.24808 0.0
N1978 N 0.78747 0.61069 0.25358 0.0
N1979 N 0.7264 0.61218 0.24178 0.0
H1980 H 0.09758 0.95166 0.02896 0.0
H1981 H 0.16415 0.06229 0.99422 0.0
H1982 H 0.16827 0.94569 0.01204 0.0
H1983 H 0.09187 0.04973 0.98445 0.0
H1984 H 0.16743 0.02279 0.00596 0.0
H1985 H 0.09659 0.99124 0.01813 0.0
C1986 C 0.11297 0.95872 0.02305 0.0
C1987 C 0.13301 0.94529 0.02132 0.0
C1988 C 0.15091 0.02881 0.00122 0.0
C1989 C 0.13205 0.99081 0.0091 0.0
C1990 C 0.149 0.05131 0.99463 0.0
C1991 C 0.12772 0.05926 0.98832 0.0
C1992 C 0.13126 0.01455 0.00191 0.0
C1993 C 0.10864 0.04429 0.98908 0.0
C1994 C 0.11234 0.98129 0.01682 0.0
C1995 C 0.15242 0.9554 0.01351 0.0
N1996 N 0.11082 0.02281 0.99586 0.0
N1997 N 0.15152 0.97765 0.00776 0.0
H1998 H 0.82675 0.40063 0.74085 0.0
H1999 H 0.69132 0.40413 0.75968 0.0
H2000 H 0.79869 0.38089 0.78972 0.0
H2001 H 0.71823 0.37863 0.71192 0.0
H2002 H 0.73112 0.40732 0.77054 0.0
H2003 H 0.78708 0.4043 0.7297 0.0
C2004 C 0.81225 0.39747 0.74928 0.0
C2005 C 0.8159 0.39031 0.76617 0.0
C2006 C 0.72822 0.40128 0.75763 0.0
C2007 C 0.77084 0.39486 0.75368 0.0
C2008 C 0.70561 0.39955 0.75142 0.0
C2009 C 0.70155 0.39094 0.73495 0.0
C2010 C 0.74684 0.39499 0.7471 0.0
C2011 C 0.72066 0.38514 0.72476 0.0
C2012 C 0.78972 0.39944 0.74291 0.0
C2013 C 0.79656 0.38626 0.77657 0.0
N2014 N 0.7425 0.38734 0.73097 0.0
N2015 N 0.77484 0.38867 0.77019 0.0
H2016 H 0.18685 0.80998 0.05295 0.0
H2017 H 0.14117 0.69658 0.00813 0.0
H2018 H 0.14109 0.81042 0.00963 0.0
H2019 H 0.18375 0.69851 0.05319 0.0
H2020 H 0.15035 0.73742 0.00284 0.0
H2021 H 0.19586 0.7695 0.04727 0.0
C2022 C 0.17951 0.80177 0.04176 0.0
C2023 C 0.16338 0.81355 0.03166 0.0
C2024 C 0.15835 0.7287 0.01355 0.0
C2025 C 0.17247 0.76674 0.02562 0.0
C2026 C 0.15334 0.70531 0.01643 0.0
C2027 C 0.16181 0.69422 0.03108 0.0
C2028 C 0.17184 0.74097 0.02546 0.0
C2029 C 0.17695 0.70646 0.04172 0.0
C2030 C 0.18439 0.77853 0.03863 0.0
C2031 C 0.15389 0.80198 0.01756 0.0
N2032 N 0.1812 0.72921 0.03885 0.0
N2033 N 0.15811 0.77903 0.01519 0.0
H2034 H 0.55546 0.93089 0.30286 0.0
H2035 H 0.44153 0.88578 0.25848 0.0
H2036 H 0.55562 0.88598 0.25906 0.0
H2037 H 0.44353 0.93027 0.3025 0.0
H2038 H 0.48252 0.89423 0.2532 0.0
H2039 H 0.51486 0.93985 0.29751 0.0
C2040 C 0.54714 0.92369 0.29166 0.0
C2041 C 0.55892 0.90789 0.28128 0.0
C2042 C 0.47381 0.90282 0.26366 0.0
C2043 C 0.51197 0.91694 0.27558 0.0
C2044 C 0.45031 0.89825 0.26652 0.0
C2045 C 0.43915 0.90751 0.28087 0.0
C2046 C 0.48616 0.91661 0.27533 0.0
C2047 C 0.4515 0.92294 0.29122 0.0
C2048 C 0.52384 0.92856 0.28871 0.0
C2049 C 0.5472 0.89856 0.26719 0.0
N2050 N 0.47437 0.92672 0.28841 0.0
N2051 N 0.5242 0.90278 0.26497 0.0
H2052 H 0.33061 0.20541 0.55438 0.0
H2053 H 0.37335 0.31754 0.50552 0.0
H2054 H 0.37301 0.20316 0.50925 0.0
H2055 H 0.33602 0.31719 0.55307 0.0
H2056 H 0.364 0.27639 0.50173 0.0
H2057 H 0.32243 0.2461 0.54884 0.0
C2058 C 0.3374 0.21331 0.54288 0.0
C2059 C 0.35231 0.20092 0.53217 0.0
C2060 C 0.35721 0.28549 0.51272 0.0
C2061 C 0.34414 0.24792 0.5262 0.0
C2062 C 0.36231 0.30904 0.51476 0.0
C2063 C 0.35531 0.32071 0.52958 0.0
C2064 C 0.34508 0.27367 0.52562 0.0
C2065 C 0.34163 0.30879 0.54143 0.0
C2066 C 0.333 0.23665 0.53981 0.0
C2067 C 0.36113 0.21208 0.51766 0.0
N2068 N 0.33722 0.28592 0.5393 0.0
N2069 N 0.35736 0.23512 0.5153 0.0
H2070 H 0.9395 0.11813 0.75586 0.0
H2071 H 0.05839 0.11685 0.75549 0.0
H2072 H 0.94536 0.07962 0.80266 0.0
H2073 H 0.05235 0.0781 0.80216 0.0
H2074 H 0.01776 0.10913 0.74937 0.0
H2075 H 0.97989 0.10945 0.74946 0.0
C2076 C 0.94908 0.10697 0.76441 0.0
C2077 C 0.93914 0.09959 0.77981 0.0
C2078 C 0.02523 0.10165 0.76073 0.0
C2079 C 0.98585 0.09026 0.77306 0.0
C2080 C 0.04872 0.10576 0.76404 0.0
C2081 C 0.0587 0.09806 0.77933 0.0
C2082 C 0.01169 0.08988 0.77294 0.0
C2083 C 0.04529 0.08429 0.7902 0.0
C2084 C 0.97241 0.10228 0.76093 0.0
C2085 C 0.95241 0.08564 0.79064 0.0
N2086 N 0.02247 0.08099 0.78694 0.0
N2087 N 0.97508 0.08176 0.7872 0.0
H2088 H 0.12794 0.19264 0.9937 0.0
H2089 H 0.12715 0.31326 0.99385 0.0
H2090 H 0.15356 0.19943 0.94234 0.0
H2091 H 0.15344 0.30706 0.94262 0.0
H2092 H 0.13435 0.27199 0.99829 0.0
H2093 H 0.13495 0.23388 0.99831 0.0
C2094 C 0.13588 0.20269 0.98362 0.0
C2095 C 0.14018 0.19264 0.96762 0.0
C2096 C 0.1391 0.27956 0.98618 0.0
C2097 C 0.14762 0.24018 0.97247 0.0
C2098 C 0.13523 0.30332 0.98376 0.0
C2099 C 0.1397 0.31353 0.96785 0.0
C2100 C 0.14747 0.26602 0.97252 0.0
C2101 C 0.1497 0.29983 0.95508 0.0
C2102 C 0.13959 0.22645 0.98613 0.0
C2103 C 0.14998 0.20651 0.95487 0.0
N2104 N 0.15298 0.27687 0.95763 0.0
N2105 N 0.15308 0.22949 0.9575 0.0
H2106 H 0.94205 0.87895 0.24518 0.0
H2107 H 0.05601 0.92405 0.19936 0.0
H2108 H 0.94395 0.9178 0.19834 0.0
H2109 H 0.05673 0.87782 0.24239 0.0
H2110 H 0.01509 0.93173 0.20449 0.0
H2111 H 0.98321 0.8877 0.24968 0.0
C2112 C 0.95087 0.89023 0.23628 0.0
C2113 C 0.9396 0.89786 0.22145 0.0
C2114 C 0.02425 0.92041 0.21316 0.0
C2115 C 0.98672 0.90739 0.2262 0.0
C2116 C 0.04772 0.91628 0.21036 0.0
C2117 C 0.0598 0.9005 0.22058 0.0
C2118 C 0.01252 0.90818 0.22604 0.0
C2119 C 0.0481 0.89042 0.2344 0.0
C2120 C 0.97444 0.89496 0.23871 0.0
C2121 C 0.95199 0.91177 0.21001 0.0
N2122 N 0.02497 0.89403 0.23652 0.0
N2123 N 0.97488 0.91585 0.21251 0.0
H2124 H 0.37233 0.70326 0.49152 0.0
H2125 H 0.33375 0.8192 0.44622 0.0
H2126 H 0.33162 0.70716 0.4456 0.0
H2127 H 0.37541 0.81768 0.49173 0.0
H2128 H 0.32389 0.77861 0.45062 0.0
H2129 H 0.36507 0.74455 0.49657 0.0
C2130 C 0.36097 0.71257 0.48295 0.0
C2131 C 0.35246 0.70185 0.46817 0.0
C2132 C 0.33468 0.7872 0.45997 0.0
C2133 C 0.34467 0.7491 0.4735 0.0
C2134 C 0.34009 0.81047 0.45753 0.0
C2135 C 0.35518 0.82179 0.46873 0.0
C2136 C 0.34506 0.77489 0.47343 0.0
C2137 C 0.3634 0.8096 0.48297 0.0
C2138 C 0.35707 0.73621 0.48569 0.0
C2139 C 0.3384 0.71481 0.45719 0.0
N2140 N 0.35865 0.78663 0.48473 0.0
N2141 N 0.33524 0.73777 0.45993 0.0
H2142 H 0.44252 0.08599 0.69814 0.0
H2143 H 0.55877 0.12489 0.74299 0.0
H2144 H 0.44418 0.12631 0.7443 0.0
H2145 H 0.55474 0.08473 0.69682 0.0
H2146 H 0.51759 0.11719 0.74822 0.0
H2147 H 0.48332 0.07661 0.70205 0.0
C2148 C 0.45133 0.09211 0.70949 0.0
C2149 C 0.43995 0.1067 0.72101 0.0
C2150 C 0.52588 0.10939 0.73725 0.0
C2151 C 0.48713 0.09714 0.72515 0.0
C2152 C 0.54948 0.11352 0.73441 0.0
C2153 C 0.56016 0.10528 0.71952 0.0
C2154 C 0.51295 0.09704 0.72504 0.0
C2155 C 0.54717 0.09127 0.70851 0.0
C2156 C 0.47473 0.08699 0.71164 0.0
C2157 C 0.45228 0.11466 0.73529 0.0
N2158 N 0.52424 0.08788 0.71135 0.0
N2159 N 0.47535 0.11021 0.73677 0.0
H2160 H 0.86462 0.30975 0.99235 0.0
H2161 H 0.81901 0.19608 0.94747 0.0
H2162 H 0.82416 0.30757 0.94624 0.0
H2163 H 0.86434 0.19577 0.99104 0.0
H2164 H 0.81047 0.23677 0.95274 0.0
H2165 H 0.85501 0.26899 0.99761 0.0
C2166 C 0.85281 0.30099 0.98378 0.0
C2167 C 0.84506 0.31198 0.96889 0.0
C2168 C 0.82174 0.22773 0.96152 0.0
C2169 C 0.83453 0.26533 0.9745 0.0
C2170 C 0.82634 0.20438 0.95863 0.0
C2171 C 0.84222 0.19256 0.96893 0.0
C2172 C 0.83364 0.23957 0.97451 0.0
C2173 C 0.85172 0.20424 0.98297 0.0
C2174 C 0.84757 0.27764 0.98665 0.0
C2175 C 0.83038 0.2997 0.95792 0.0
N2176 N 0.84775 0.22728 0.98512 0.0
N2177 N 0.82587 0.277 0.96081 0.0
H2178 H 0.63373 0.80271 0.49144 0.0
H2179 H 0.67268 0.68578 0.44745 0.0
H2180 H 0.67305 0.79772 0.44491 0.0
H2181 H 0.63058 0.68828 0.49271 0.0
H2182 H 0.68235 0.72651 0.45137 0.0
H2183 H 0.64132 0.76157 0.49695 0.0
C2184 C 0.64484 0.7932 0.4828 0.0
C2185 C 0.65286 0.80356 0.46773 0.0
C2186 C 0.67152 0.7181 0.46077 0.0
C2187 C 0.66107 0.7565 0.47364 0.0
C2188 C 0.66624 0.69475 0.45862 0.0
C2189 C 0.65103 0.68367 0.46987 0.0
C2190 C 0.66092 0.73072 0.47398 0.0
C2191 C 0.64268 0.69617 0.48392 0.0
C2192 C 0.64893 0.76965 0.48582 0.0
C2193 C 0.66662 0.79035 0.4567 0.0
N2194 N 0.6473 0.7192 0.48538 0.0
N2195 N 0.67002 0.7675 0.45974 0.0
H2196 H 0.8773 0.69236 0.00708 0.0
H2197 H 0.87857 0.81282 0.00761 0.0
H2198 H 0.85111 0.69903 0.05831 0.0
H2199 H 0.8487 0.80665 0.05773 0.0
H2200 H 0.8717 0.77161 0.00287 0.0
H2201 H 0.86989 0.73354 0.0024 0.0
C2202 C 0.86925 0.70237 0.01714 0.0
C2203 C 0.86488 0.69232 0.03312 0.0
C2204 C 0.86598 0.77918 0.01475 0.0
C2205 C 0.85699 0.73977 0.02818 0.0
C2206 C 0.86965 0.80293 0.01733 0.0
C2207 C 0.8641 0.81314 0.03305 0.0
C2208 C 0.85675 0.76562 0.02808 0.0
C2209 C 0.85317 0.79945 0.0454 0.0
C2210 C 0.86531 0.7261 0.01458 0.0
C2211 C 0.85483 0.70613 0.04581 0.0
N2212 N 0.85015 0.77646 0.04274 0.0
N2213 N 0.8515 0.72906 0.04313 0.0
H2214 H 0.6343 0.3028 0.50914 0.0
H2215 H 0.67043 0.18584 0.5544 0.0
H2216 H 0.67258 0.29796 0.55614 0.0
H2217 H 0.6299 0.18833 0.50835 0.0
H2218 H 0.68048 0.22649 0.55056 0.0
H2219 H 0.64141 0.26151 0.50403 0.0
C2220 C 0.64516 0.29329 0.51795 0.0
C2221 C 0.65299 0.30377 0.53304 0.0
C2222 C 0.66988 0.21812 0.54099 0.0
C2223 C 0.66056 0.25649 0.52761 0.0
C2224 C 0.66436 0.19482 0.54311 0.0
C2225 C 0.64954 0.18374 0.53158 0.0
C2226 C 0.65994 0.2307 0.52749 0.0
C2227 C 0.64168 0.19623 0.51737 0.0
C2228 C 0.64894 0.26964 0.51517 0.0
C2229 C 0.66636 0.29053 0.54431 0.0
N2230 N 0.64657 0.2192 0.5159 0.0
N2231 N 0.66943 0.26757 0.5415 0.0
H2232 H 0.9507 0.38332 0.75891 0.0
H2233 H 0.06691 0.41553 0.80748 0.0
H2234 H 0.95472 0.4139 0.80896 0.0
H2235 H 0.06574 0.38014 0.75914 0.0
H2236 H 0.02601 0.42481 0.80409 0.0
H2237 H 0.99215 0.39119 0.75486 0.0
C2238 C 0.9601 0.39254 0.76874 0.0
C2239 C 0.94935 0.39802 0.78428 0.0
C2240 C 0.03472 0.41553 0.79396 0.0
C2241 C 0.99668 0.40662 0.77995 0.0
C2242 C 0.05816 0.41047 0.79583 0.0
C2243 C 0.06968 0.39726 0.7835 0.0
C2244 C 0.02247 0.40672 0.77988 0.0
C2245 C 0.05748 0.39068 0.7688 0.0
C2246 C 0.9838 0.3968 0.76652 0.0
C2247 C 0.9624 0.40942 0.79679 0.0
N2248 N 0.03437 0.39504 0.76754 0.0
N2249 N 0.98536 0.41309 0.79444 0.0
H2250 H 0.44837 0.62367 0.25858 0.0
H2251 H 0.5646 0.59081 0.30653 0.0
H2252 H 0.45234 0.58947 0.30731 0.0
H2253 H 0.56324 0.62779 0.25884 0.0
H2254 H 0.52386 0.58106 0.30283 0.0
H2255 H 0.48986 0.61647 0.25434 0.0
C2256 C 0.45775 0.6137 0.26801 0.0
C2257 C 0.44696 0.60704 0.28328 0.0
C2258 C 0.53248 0.59083 0.29291 0.0
C2259 C 0.49441 0.59934 0.27881 0.0
C2260 C 0.55582 0.59621 0.29497 0.0
C2261 C 0.56726 0.60995 0.28291 0.0
C2262 C 0.52021 0.59985 0.27891 0.0
C2263 C 0.55505 0.61688 0.2683 0.0
C2264 C 0.4815 0.60987 0.26571 0.0
C2265 C 0.46002 0.59479 0.29533 0.0
N2266 N 0.53202 0.61216 0.26687 0.0
N2267 N 0.48306 0.59162 0.29294 0.0
H2268 H 0.44916 0.38737 0.74034 0.0
H2269 H 0.56662 0.42506 0.69679 0.0
H2270 H 0.45477 0.42607 0.69358 0.0
H2271 H 0.56334 0.38379 0.74244 0.0
H2272 H 0.52593 0.43513 0.70039 0.0
H2273 H 0.49016 0.39515 0.74617 0.0
C2274 C 0.45875 0.39845 0.73173 0.0
C2275 C 0.44863 0.40621 0.7165 0.0
C2276 C 0.53415 0.42437 0.70994 0.0
C2277 C 0.49557 0.41456 0.72274 0.0
C2278 C 0.55746 0.41884 0.70795 0.0
C2279 C 0.5683 0.40377 0.71941 0.0
C2280 C 0.52133 0.41417 0.72321 0.0
C2281 C 0.5556 0.39574 0.73347 0.0
C2282 C 0.48224 0.40263 0.73493 0.0
C2283 C 0.46196 0.4199 0.70551 0.0
N2284 N 0.53262 0.40062 0.73478 0.0
N2285 N 0.48477 0.42334 0.70871 0.0
H2286 H 0.95015 0.57602 0.19563 0.0
H2287 H 0.0639 0.61804 0.24275 0.0
H2288 H 0.94967 0.62039 0.23974 0.0
H2289 H 0.06194 0.58032 0.19539 0.0
H2290 H 0.02278 0.60918 0.24717 0.0
H2291 H 0.99077 0.56716 0.20098 0.0
C2292 C 0.95844 0.58316 0.20686 0.0
C2293 C 0.94658 0.59879 0.21734 0.0
C2294 C 0.03153 0.60216 0.2361 0.0
C2295 C 0.99347 0.58975 0.22308 0.0
C2296 C 0.05508 0.60695 0.23371 0.0
C2297 C 0.06627 0.59977 0.21873 0.0
C2298 C 0.01924 0.59012 0.2234 0.0
C2299 C 0.05392 0.58606 0.20715 0.0
C2300 C 0.98172 0.57833 0.20982 0.0
C2301 C 0.95819 0.60799 0.23152 0.0
N2302 N 0.03104 0.58195 0.2096 0.0
N2303 N 0.98118 0.60375 0.23377 0.0
loop_
_geom_bond_atom_site_label_1
_geom_bond_atom_site_label_2
_geom_bond_distance
_geom_bond_site_symmetry_2
_ccdc_geom_bond_type
Mn0 O5 2.095 . S
Mn0 O15 2.162 . S
Mn0 O16 2.297 . S
Mn0 O24 2.385 . S
Mn0 O25 2.209 . S
Mn0 O26 2.094 . S
Mn1 O6 2.121 . S
Mn1 N8 2.257 . S
Mn1 N17 2.282 . S
Mn1 O25 2.215 . S
Mn1 O27 2.117 . S
C2 O24 1.234 . S
C2 O25 1.283 . S
C3 O15 1.281 . S
C3 O16 1.236 . S
C4 O26 1.240 . S
C4 O27 1.264 . S
O5 Mn0 2.095 . S
O5 C14 1.250 . S
O6 Mn1 2.121 . S
O6 C14 1.258 . S
C7 N8 1.326 . S
C7 C11 1.460 . S
C7 H13 0.929 . S
N8 Mn1 2.257 . S
N8 C7 1.326 . S
N8 C12 1.362 . S
C9 C10 1.258 . S
C9 C12 1.431 . S
C9 C29 1.449 . S
C10 C9 1.258 . S
C10 C11 1.477 . S
C10 H30 0.931 . S
C11 C7 1.460 . S
C11 C10 1.477 . S
C11 H31 0.930 . S
C12 N8 1.362 . S
C12 C9 1.431 . S
C12 C22 1.476 . S
H13 C7 0.929 . S
C14 O5 1.250 . S
C14 O6 1.258 . S
O15 Mn0 2.162 . S
O15 C3 1.281 . S
O16 Mn0 2.297 . S
O16 C3 1.236 . S
N17 Mn1 2.282 . S
N17 C18 1.328 . S
N17 C22 1.318 . S
C18 N17 1.328 . S
C18 C19 1.457 . S
C18 H23 0.929 . S
C19 C18 1.457 . S
C19 C20 1.291 . S
C19 H32 0.931 . S
C20 C19 1.291 . S
C20 C21 1.373 . S
C20 H33 0.929 . S
C21 C20 1.373 . S
C21 C22 1.396 . S
C21 C28 1.403 . S
C22 C12 1.476 . S
C22 N17 1.318 . S
C22 C21 1.396 . S
H23 C18 0.929 . S
O24 Mn0 2.385 . S
O24 C2 1.234 . S
O25 Mn0 2.209 . S
O25 Mn1 2.215 . S
O25 C2 1.283 . S
O26 Mn0 2.094 . S
O26 C4 1.240 . S
O27 Mn1 2.117 . S
O27 C4 1.264 . S
C28 C21 1.403 . S
C28 C29 1.399 . S
C28 H34 0.929 1_455 S
C29 C9 1.449 . S
C29 C28 1.399 . S
C29 H35 0.930 1_455 S
H30 C10 0.931 . S
H31 C11 0.930 . S
H32 C19 0.931 . S
H33 C20 0.929 . S
H34 C28 0.929 1_655 S
H35 C29 0.930 1_655 S
Mn36 O41 2.095 . S
Mn36 O51 2.162 . S
Mn36 O52 2.297 . S
Mn36 O60 2.385 . S
Mn36 O61 2.209 . S
Mn36 O62 2.094 . S
Mn37 O42 2.121 . S
Mn37 N44 2.257 . S
Mn37 N53 2.282 . S
Mn37 O61 2.215 . S
Mn37 O63 2.117 . S
C38 O60 1.234 . S
C38 O61 1.283 . S
C39 O51 1.281 . S
C39 O52 1.236 . S
C40 O62 1.240 . S
C40 O63 1.264 . S
O41 Mn36 2.095 . S
O41 C50 1.250 . S
O42 Mn37 2.121 . S
O42 C50 1.258 . S
C43 N44 1.326 . S
C43 C47 1.460 . S
C43 H49 0.929 . S
N44 Mn37 2.257 . S
N44 C43 1.326 . S
N44 C48 1.362 . S
C45 C46 1.258 . S
C45 C48 1.431 . S
C45 C65 1.449 . S
C46 C45 1.258 . S
C46 C47 1.477 . S
C46 H66 0.931 . S
C47 C43 1.460 . S
C47 C46 1.477 . S
C47 H67 0.930 . S
C48 N44 1.362 . S
C48 C45 1.431 . S
C48 C58 1.476 . S
H49 C43 0.929 . S
C50 O41 1.250 . S
C50 O42 1.258 . S
O51 Mn36 2.162 . S
O51 C39 1.281 . S
O52 Mn36 2.297 . S
O52 C39 1.236 . S
N53 Mn37 2.282 . S
N53 C54 1.328 . S
N53 C58 1.318 . S
C54 N53 1.328 . S
C54 C55 1.457 . S
C54 H59 0.929 . S
C55 C54 1.457 . S
C55 C56 1.291 . S
C55 H68 0.931 . S
C56 C55 1.291 . S
C56 C57 1.373 . S
C56 H69 0.929 . S
C57 C56 1.373 . S
C57 C58 1.396 . S
C57 C64 1.403 . S
C58 C48 1.476 . S
C58 N53 1.318 . S
C58 C57 1.396 . S
H59 C54 0.929 . S
O60 Mn36 2.385 . S
O60 C38 1.234 . S
O61 Mn36 2.209 . S
O61 Mn37 2.215 . S
O61 C38 1.283 . S
O62 Mn36 2.094 . S
O62 C40 1.240 . S
O63 Mn37 2.117 . S
O63 C40 1.264 . S
C64 C57 1.403 . S
C64 C65 1.399 . S
C64 H70 0.929 . S
C65 C45 1.449 . S
C65 C64 1.399 . S
C65 H71 0.930 . S
H66 C46 0.931 . S
H67 C47 0.930 . S
H68 C55 0.931 . S
H69 C56 0.929 . S
H70 C64 0.929 . S
H71 C65 0.930 . S
Mn72 O77 2.095 . S
Mn72 O87 2.162 . S
Mn72 O88 2.297 . S
Mn72 O96 2.385 . S
Mn72 O97 2.209 . S
Mn72 O98 2.094 . S
Mn73 O78 2.121 . S
Mn73 N80 2.257 . S
Mn73 N89 2.282 . S
Mn73 O97 2.215 . S
Mn73 O99 2.117 . S
C74 O96 1.234 . S
C74 O97 1.283 . S
C75 O87 1.281 . S
C75 O88 1.236 . S
C76 O98 1.240 . S
C76 O99 1.264 . S
O77 Mn72 2.095 . S
O77 C86 1.250 . S
O78 Mn73 2.121 . S
O78 C86 1.258 . S
C79 N80 1.326 . S
C79 C83 1.460 . S
C79 H85 0.929 . S
N80 Mn73 2.257 . S
N80 C79 1.326 . S
N80 C84 1.362 . S
C81 C82 1.258 . S
C81 C84 1.431 . S
C81 C101 1.449 . S
C82 C81 1.258 . S
C82 C83 1.477 . S
C82 H102 0.931 . S
C83 C79 1.460 . S
C83 C82 1.477 . S
C83 H103 0.930 . S
C84 N80 1.362 . S
C84 C81 1.431 . S
C84 C94 1.476 . S
H85 C79 0.929 . S
C86 O77 1.250 . S
C86 O78 1.258 . S
O87 Mn72 2.162 . S
O87 C75 1.281 . S
O88 Mn72 2.297 . S
O88 C75 1.236 . S
N89 Mn73 2.282 . S
N89 C90 1.328 . S
N89 C94 1.318 . S
C90 N89 1.328 . S
C90 C91 1.457 . S
C90 H95 0.929 . S
C91 C90 1.457 . S
C91 C92 1.291 . S
C91 H104 0.931 . S
C92 C91 1.291 . S
C92 C93 1.373 . S
C92 H105 0.929 . S
C93 C92 1.373 . S
C93 C94 1.396 . S
C93 C100 1.403 . S
C94 C84 1.476 . S
C94 N89 1.318 . S
C94 C93 1.396 . S
H95 C90 0.929 . S
O96 Mn72 2.385 . S
O96 C74 1.234 . S
O97 Mn72 2.209 . S
O97 Mn73 2.215 . S
O97 C74 1.283 . S
O98 Mn72 2.094 . S
O98 C76 1.240 . S
O99 Mn73 2.117 . S
O99 C76 1.264 . S
C100 C93 1.403 . S
C100 C101 1.399 . S
C100 H106 0.929 . S
C101 C81 1.449 . S
C101 C100 1.399 . S
C101 H107 0.930 . S
H102 C82 0.931 . S
H103 C83 0.930 . S
H104 C91 0.931 . S
H105 C92 0.929 . S
H106 C100 0.929 . S
H107 C101 0.930 . S
Mn108 O113 2.095 . S
Mn108 O123 2.162 . S
Mn108 O124 2.297 . S
Mn108 O132 2.385 . S
Mn108 O133 2.209 . S
Mn108 O134 2.094 . S
Mn109 O114 2.121 . S
Mn109 N116 2.257 . S
Mn109 N125 2.282 . S
Mn109 O133 2.215 . S
Mn109 O135 2.117 . S
C110 O132 1.234 . S
C110 O133 1.283 . S
C111 O123 1.281 . S
C111 O124 1.236 . S
C112 O134 1.240 . S
C112 O135 1.264 . S
O113 Mn108 2.095 . S
O113 C122 1.250 . S
O114 Mn109 2.121 . S
O114 C122 1.258 . S
C115 N116 1.326 . S
C115 C119 1.460 . S
C115 H121 0.929 . S
N116 Mn109 2.257 . S
N116 C115 1.326 . S
N116 C120 1.362 . S
C117 C118 1.258 . S
C117 C120 1.431 . S
C117 C137 1.449 . S
C118 C117 1.258 . S
C118 C119 1.477 . S
C118 H138 0.931 . S
C119 C115 1.460 . S
C119 C118 1.477 . S
C119 H139 0.930 . S
C120 N116 1.362 . S
C120 C117 1.431 . S
C120 C130 1.476 . S
H121 C115 0.929 . S
C122 O113 1.250 . S
C122 O114 1.258 . S
O123 Mn108 2.162 . S
O123 C111 1.281 . S
O124 Mn108 2.297 . S
O124 C111 1.236 . S
N125 Mn109 2.282 . S
N125 C126 1.328 . S
N125 C130 1.318 . S
C126 N125 1.328 . S
C126 C127 1.457 . S
C126 H131 0.929 . S
C127 C126 1.457 . S
C127 C128 1.291 . S
C127 H140 0.931 . S
C128 C127 1.291 . S
C128 C129 1.373 . S
C128 H141 0.929 . S
C129 C128 1.373 . S
C129 C130 1.396 . S
C129 C136 1.403 . S
C130 C120 1.476 . S
C130 N125 1.318 . S
C130 C129 1.396 . S
H131 C126 0.929 . S
O132 Mn108 2.385 . S
O132 C110 1.234 . S
O133 Mn108 2.209 . S
O133 Mn109 2.215 . S
O133 C110 1.283 . S
O134 Mn108 2.094 . S
O134 C112 1.240 . S
O135 Mn109 2.117 . S
O135 C112 1.264 . S
C136 C129 1.403 . S
C136 C137 1.399 . S
C136 H142 0.929 . S
C137 C117 1.449 . S
C137 C136 1.399 . S
C137 H143 0.930 . S
H138 C118 0.931 . S
H139 C119 0.930 . S
H140 C127 0.931 . S
H141 C128 0.929 . S
H142 C136 0.929 . S
H143 C137 0.930 . S
Mn144 O149 2.095 . S
Mn144 O159 2.162 . S
Mn144 O160 2.297 . S
Mn144 O168 2.385 . S
Mn144 O169 2.209 . S
Mn144 O170 2.094 . S
Mn145 O150 2.121 . S
Mn145 N152 2.257 . S
Mn145 N161 2.282 . S
Mn145 O169 2.215 . S
Mn145 O171 2.117 . S
C146 O168 1.234 . S
C146 O169 1.283 . S
C147 O159 1.281 . S
C147 O160 1.236 . S
C148 O170 1.240 . S
C148 O171 1.264 . S
O149 Mn144 2.095 . S
O149 C158 1.250 . S
O150 Mn145 2.121 . S
O150 C158 1.258 . S
C151 N152 1.326 . S
C151 C155 1.460 . S
C151 H157 0.929 . S
N152 Mn145 2.257 . S
N152 C151 1.326 . S
N152 C156 1.362 . S
C153 C154 1.258 . S
C153 C156 1.431 . S
C153 C173 1.449 . S
C154 C153 1.258 . S
C154 C155 1.477 . S
C154 H174 0.931 . S
C155 C151 1.460 . S
C155 C154 1.477 . S
C155 H175 0.930 . S
C156 N152 1.362 . S
C156 C153 1.431 . S
C156 C166 1.476 . S
H157 C151 0.929 . S
C158 O149 1.250 . S
C158 O150 1.258 . S
O159 Mn144 2.162 . S
O159 C147 1.281 . S
O160 Mn144 2.297 . S
O160 C147 1.236 . S
N161 Mn145 2.282 . S
N161 C162 1.328 . S
N161 C166 1.318 . S
C162 N161 1.328 . S
C162 C163 1.457 . S
C162 H167 0.929 . S
C163 C162 1.457 . S
C163 C164 1.291 . S
C163 H176 0.931 . S
C164 C163 1.291 . S
C164 C165 1.373 . S
C164 H177 0.929 . S
C165 C164 1.373 . S
C165 C166 1.396 . S
C165 C172 1.403 . S
C166 C156 1.476 . S
C166 N161 1.318 . S
C166 C165 1.396 . S
H167 C162 0.929 . S
O168 Mn144 2.385 . S
O168 C146 1.234 . S
O169 Mn144 2.209 . S
O169 Mn145 2.215 . S
O169 C146 1.283 . S
O170 Mn144 2.094 . S
O170 C148 1.240 . S
O171 Mn145 2.117 . S
O171 C148 1.264 . S
C172 C165 1.403 . S
C172 C173 1.399 . S
C172 H178 0.929 1_455 S
C173 C153 1.449 . S
C173 C172 1.399 . S
C173 H179 0.930 1_455 S
H174 C154 0.931 . S
H175 C155 0.930 . S
H176 C163 0.931 . S
H177 C164 0.929 . S
H178 C172 0.929 1_655 S
H179 C173 0.930 1_655 S
Mn180 O185 2.095 . S
Mn180 O195 2.162 . S
Mn180 O196 2.297 . S
Mn180 O204 2.385 . S
Mn180 O205 2.209 . S
Mn180 O206 2.094 . S
Mn181 O186 2.121 . S
Mn181 N188 2.257 . S
Mn181 N197 2.282 . S
Mn181 O205 2.215 . S
Mn181 O207 2.117 . S
C182 O204 1.234 . S
C182 O205 1.283 . S
C183 O195 1.281 . S
C183 O196 1.236 . S
C184 O206 1.240 . S
C184 O207 1.264 . S
O185 Mn180 2.095 . S
O185 C194 1.250 . S
O186 Mn181 2.121 . S
O186 C194 1.258 . S
C187 N188 1.326 . S
C187 C191 1.460 . S
C187 H193 0.929 . S
N188 Mn181 2.257 . S
N188 C187 1.326 . S
N188 C192 1.362 . S
C189 C190 1.258 . S
C189 C192 1.431 . S
C189 C209 1.449 . S
C190 C189 1.258 . S
C190 C191 1.477 . S
C190 H210 0.931 . S
C191 C187 1.460 . S
C191 C190 1.477 . S
C191 H211 0.930 . S
C192 N188 1.362 . S
C192 C189 1.431 . S
C192 C202 1.476 . S
H193 C187 0.929 . S
C194 O185 1.250 . S
C194 O186 1.258 . S
O195 Mn180 2.162 . S
O195 C183 1.281 . S
O196 Mn180 2.297 . S
O196 C183 1.236 . S
N197 Mn181 2.282 . S
N197 C198 1.328 . S
N197 C202 1.318 . S
C198 N197 1.328 . S
C198 C199 1.457 . S
C198 H203 0.929 . S
C199 C198 1.457 . S
C199 C200 1.291 . S
C199 H212 0.931 . S
C200 C199 1.291 . S
C200 C201 1.373 . S
C200 H213 0.929 . S
C201 C200 1.373 . S
C201 C202 1.396 . S
C201 C208 1.403 . S
C202 C192 1.476 . S
C202 N197 1.318 . S
C202 C201 1.396 . S
H203 C198 0.929 . S
O204 Mn180 2.385 . S
O204 C182 1.234 . S
O205 Mn180 2.209 . S
O205 Mn181 2.215 . S
O205 C182 1.283 . S
O206 Mn180 2.094 . S
O206 C184 1.240 . S
O207 Mn181 2.117 . S
O207 C184 1.264 . S
C208 C201 1.403 . S
C208 C209 1.399 . S
C208 H214 0.929 . S
C209 C189 1.449 . S
C209 C208 1.399 . S
C209 H215 0.930 . S
H210 C190 0.931 . S
H211 C191 0.930 . S
H212 C199 0.931 . S
H213 C200 0.929 . S
H214 C208 0.929 . S
H215 C209 0.930 . S
Mn216 O221 2.095 . S
Mn216 O231 2.162 . S
Mn216 O232 2.297 . S
Mn216 O240 2.385 . S
Mn216 O241 2.209 . S
Mn216 O242 2.094 . S
Mn217 O222 2.121 . S
Mn217 N224 2.257 . S
Mn217 N233 2.282 . S
Mn217 O241 2.215 . S
Mn217 O243 2.117 . S
C218 O240 1.234 . S
C218 O241 1.283 . S
C219 O231 1.281 . S
C219 O232 1.236 . S
C220 O242 1.240 . S
C220 O243 1.264 . S
O221 Mn216 2.095 . S
O221 C230 1.250 . S
O222 Mn217 2.121 . S
O222 C230 1.258 . S
C223 N224 1.326 . S
C223 C227 1.460 . S
C223 H229 0.929 . S
N224 Mn217 2.257 . S
N224 C223 1.326 . S
N224 C228 1.362 . S
C225 C226 1.258 . S
C225 C228 1.431 . S
C225 C245 1.449 . S
C226 C225 1.258 . S
C226 C227 1.477 . S
C226 H246 0.931 . S
C227 C223 1.460 . S
C227 C226 1.477 . S
C227 H247 0.930 . S
C228 N224 1.362 . S
C228 C225 1.431 . S
C228 C238 1.476 . S
H229 C223 0.929 . S
C230 O221 1.250 . S
C230 O222 1.258 . S
O231 Mn216 2.162 . S
O231 C219 1.281 . S
O232 Mn216 2.297 . S
O232 C219 1.236 . S
N233 Mn217 2.282 . S
N233 C234 1.328 . S
N233 C238 1.318 . S
C234 N233 1.328 . S
C234 C235 1.457 . S
C234 H239 0.929 . S
C235 C234 1.457 . S
C235 C236 1.291 . S
C235 H248 0.931 . S
C236 C235 1.291 . S
C236 C237 1.373 . S
C236 H249 0.929 . S
C237 C236 1.373 . S
C237 C238 1.396 . S
C237 C244 1.403 . S
C238 C228 1.476 . S
C238 N233 1.318 . S
C238 C237 1.396 . S
H239 C234 0.929 . S
O240 Mn216 2.385 . S
O240 C218 1.234 . S
O241 Mn216 2.209 . S
O241 Mn217 2.215 . S
O241 C218 1.283 . S
O242 Mn216 2.094 . S
O242 C220 1.240 . S
O243 Mn217 2.117 . S
O243 C220 1.264 . S
C244 C237 1.403 . S
C244 C245 1.399 . S
C244 H250 0.929 . S
C245 C225 1.449 . S
C245 C244 1.399 . S
C245 H251 0.930 . S
H246 C226 0.931 . S
H247 C227 0.930 . S
H248 C235 0.931 . S
H249 C236 0.929 . S
H250 C244 0.929 . S
H251 C245 0.930 . S
Mn252 O257 2.095 . S
Mn252 O267 2.162 . S
Mn252 O268 2.297 . S
Mn252 O276 2.385 . S
Mn252 O277 2.209 . S
Mn252 O278 2.094 . S
Mn253 O258 2.121 . S
Mn253 N260 2.257 . S
Mn253 N269 2.282 . S
Mn253 O277 2.215 . S
Mn253 O279 2.117 . S
C254 O276 1.234 . S
C254 O277 1.283 . S
C255 O267 1.281 . S
C255 O268 1.236 . S
C256 O278 1.240 . S
C256 O279 1.264 . S
O257 Mn252 2.095 . S
O257 C266 1.250 . S
O258 Mn253 2.121 . S
O258 C266 1.258 . S
C259 N260 1.326 . S
C259 C263 1.460 . S
C259 H265 0.929 . S
N260 Mn253 2.257 . S
N260 C259 1.326 . S
N260 C264 1.362 . S
C261 C262 1.258 . S
C261 C264 1.431 . S
C261 C281 1.449 . S
C262 C261 1.258 . S
C262 C263 1.477 . S
C262 H282 0.931 . S
C263 C259 1.460 . S
C263 C262 1.477 . S
C263 H283 0.930 . S
C264 N260 1.362 . S
C264 C261 1.431 . S
C264 C274 1.476 . S
H265 C259 0.929 . S
C266 O257 1.250 . S
C266 O258 1.258 . S
O267 Mn252 2.162 . S
O267 C255 1.281 . S
O268 Mn252 2.297 . S
O268 C255 1.236 . S
N269 Mn253 2.282 . S
N269 C270 1.328 . S
N269 C274 1.318 . S
C270 N269 1.328 . S
C270 C271 1.457 . S
C270 H275 0.929 . S
C271 C270 1.457 . S
C271 C272 1.291 . S
C271 H284 0.931 . S
C272 C271 1.291 . S
C272 C273 1.373 . S
C272 H285 0.929 . S
C273 C272 1.373 . S
C273 C274 1.396 . S
C273 C280 1.403 . S
C274 C264 1.476 . S
C274 N269 1.318 . S
C274 C273 1.396 . S
H275 C270 0.929 . S
O276 Mn252 2.385 . S
O276 C254 1.234 . S
O277 Mn252 2.209 . S
O277 Mn253 2.215 . S
O277 C254 1.283 . S
O278 Mn252 2.094 . S
O278 C256 1.240 . S
O279 Mn253 2.117 . S
O279 C256 1.264 . S
C280 C273 1.403 . S
C280 C281 1.399 . S
C280 H286 0.929 . S
C281 C261 1.449 . S
C281 C280 1.399 . S
C281 H287 0.930 . S
H282 C262 0.931 . S
H283 C263 0.930 . S
H284 C271 0.931 . S
H285 C272 0.929 . S
H286 C280 0.929 . S
H287 C281 0.930 . S
Mn288 O293 2.095 . S
Mn288 O303 2.162 . S
Mn288 O304 2.297 . S
Mn288 O312 2.385 . S
Mn288 O313 2.209 . S
Mn288 O314 2.094 . S
Mn289 O294 2.121 . S
Mn289 N296 2.257 . S
Mn289 N305 2.282 . S
Mn289 O313 2.215 . S
Mn289 O315 2.117 . S
C290 O312 1.234 . S
C290 O313 1.283 . S
C291 O303 1.281 . S
C291 O304 1.236 . S
C292 O314 1.240 . S
C292 O315 1.264 . S
O293 Mn288 2.095 . S
O293 C302 1.250 . S
O294 Mn289 2.121 . S
O294 C302 1.258 . S
C295 N296 1.326 . S
C295 C299 1.460 . S
C295 H301 0.929 . S
N296 Mn289 2.257 . S
N296 C295 1.326 . S
N296 C300 1.362 . S
C297 C298 1.258 . S
C297 C300 1.431 . S
C297 C317 1.449 . S
C298 C297 1.258 . S
C298 C299 1.477 . S
C298 H318 0.931 . S
C299 C295 1.460 . S
C299 C298 1.477 . S
C299 H319 0.930 . S
C300 N296 1.362 . S
C300 C297 1.431 . S
C300 C310 1.476 . S
H301 C295 0.929 . S
C302 O293 1.250 . S
C302 O294 1.258 . S
O303 Mn288 2.162 . S
O303 C291 1.281 . S
O304 Mn288 2.297 . S
O304 C291 1.236 . S
N305 Mn289 2.282 . S
N305 C306 1.328 . S
N305 C310 1.318 . S
C306 N305 1.328 . S
C306 C307 1.457 . S
C306 H311 0.929 . S
C307 C306 1.457 . S
C307 C308 1.291 . S
C307 H320 0.931 . S
C308 C307 1.291 . S
C308 C309 1.373 . S
C308 H321 0.929 . S
C309 C308 1.373 . S
C309 C310 1.396 . S
C309 C316 1.403 . S
C310 C300 1.476 . S
C310 N305 1.318 . S
C310 C309 1.396 . S
H311 C306 0.929 . S
O312 Mn288 2.385 . S
O312 C290 1.234 . S
O313 Mn288 2.209 . S
O313 Mn289 2.215 . S
O313 C290 1.283 . S
O314 Mn288 2.094 . S
O314 C292 1.240 . S
O315 Mn289 2.117 . S
O315 C292 1.264 . S
C316 C309 1.403 . S
C316 C317 1.399 . S
C316 H322 0.929 1_655 S
C317 C297 1.449 . S
C317 C316 1.399 . S
C317 H323 0.930 1_655 S
H318 C298 0.931 . S
H319 C299 0.930 . S
H320 C307 0.931 . S
H321 C308 0.929 . S
H322 C316 0.929 1_455 S
H323 C317 0.930 1_455 S
Mn324 O329 2.095 . S
Mn324 O339 2.162 . S
Mn324 O340 2.297 . S
Mn324 O348 2.385 . S
Mn324 O349 2.209 . S
Mn324 O350 2.094 . S
Mn325 O330 2.121 . S
Mn325 N332 2.257 . S
Mn325 N341 2.282 . S
Mn325 O349 2.215 . S
Mn325 O351 2.117 . S
C326 O348 1.234 . S
C326 O349 1.283 . S
C327 O339 1.281 . S
C327 O340 1.236 . S
C328 O350 1.240 . S
C328 O351 1.264 . S
O329 Mn324 2.095 . S
O329 C338 1.250 . S
O330 Mn325 2.121 . S
O330 C338 1.258 . S
C331 N332 1.326 . S
C331 C335 1.460 . S
C331 H337 0.929 . S
N332 Mn325 2.257 . S
N332 C331 1.326 . S
N332 C336 1.362 . S
C333 C334 1.258 . S
C333 C336 1.431 . S
C333 C353 1.449 . S
C334 C333 1.258 . S
C334 C335 1.477 . S
C334 H354 0.931 . S
C335 C331 1.460 . S
C335 C334 1.477 . S
C335 H355 0.930 . S
C336 N332 1.362 . S
C336 C333 1.431 . S
C336 C346 1.476 . S
H337 C331 0.929 . S
C338 O329 1.250 . S
C338 O330 1.258 . S
O339 Mn324 2.162 . S
O339 C327 1.281 . S
O340 Mn324 2.297 . S
O340 C327 1.236 . S
N341 Mn325 2.282 . S
N341 C342 1.328 . S
N341 C346 1.318 . S
C342 N341 1.328 . S
C342 C343 1.457 . S
C342 H347 0.929 . S
C343 C342 1.457 . S
C343 C344 1.291 . S
C343 H356 0.931 . S
C344 C343 1.291 . S
C344 C345 1.373 . S
C344 H357 0.929 . S
C345 C344 1.373 . S
C345 C346 1.396 . S
C345 C352 1.403 . S
C346 C336 1.476 . S
C346 N341 1.318 . S
C346 C345 1.396 . S
H347 C342 0.929 . S
O348 Mn324 2.385 . S
O348 C326 1.234 . S
O349 Mn324 2.209 . S
O349 Mn325 2.215 . S
O349 C326 1.283 . S
O350 Mn324 2.094 . S
O350 C328 1.240 . S
O351 Mn325 2.117 . S
O351 C328 1.264 . S
C352 C345 1.403 . S
C352 C353 1.399 . S
C352 H358 0.929 . S
C353 C333 1.449 . S
C353 C352 1.399 . S
C353 H359 0.930 . S
H354 C334 0.931 . S
H355 C335 0.930 . S
H356 C343 0.931 . S
H357 C344 0.929 . S
H358 C352 0.929 . S
H359 C353 0.930 . S
Mn360 O365 2.095 . S
Mn360 O375 2.162 . S
Mn360 O376 2.297 . S
Mn360 O384 2.385 . S
Mn360 O385 2.209 . S
Mn360 O386 2.094 . S
Mn361 O366 2.121 . S
Mn361 N368 2.257 . S
Mn361 N377 2.282 . S
Mn361 O385 2.215 . S
Mn361 O387 2.117 . S
C362 O384 1.234 . S
C362 O385 1.283 . S
C363 O375 1.281 . S
C363 O376 1.236 . S
C364 O386 1.240 . S
C364 O387 1.264 . S
O365 Mn360 2.095 . S
O365 C374 1.250 . S
O366 Mn361 2.121 . S
O366 C374 1.258 . S
C367 N368 1.326 . S
C367 C371 1.460 . S
C367 H373 0.929 . S
N368 Mn361 2.257 . S
N368 C367 1.326 . S
N368 C372 1.362 . S
C369 C370 1.258 . S
C369 C372 1.431 . S
C369 C389 1.449 . S
C370 C369 1.258 . S
C370 C371 1.477 . S
C370 H390 0.931 . S
C371 C367 1.460 . S
C371 C370 1.477 . S
C371 H391 0.930 . S
C372 N368 1.362 . S
C372 C369 1.431 . S
C372 C382 1.476 . S
H373 C367 0.929 . S
C374 O365 1.250 . S
C374 O366 1.258 . S
O375 Mn360 2.162 . S
O375 C363 1.281 . S
O376 Mn360 2.297 . S
O376 C363 1.236 . S
N377 Mn361 2.282 . S
N377 C378 1.328 . S
N377 C382 1.318 . S
C378 N377 1.328 . S
C378 C379 1.457 . S
C378 H383 0.929 . S
C379 C378 1.457 . S
C379 C380 1.291 . S
C379 H392 0.931 . S
C380 C379 1.291 . S
C380 C381 1.373 . S
C380 H393 0.929 . S
C381 C380 1.373 . S
C381 C382 1.396 . S
C381 C388 1.403 . S
C382 C372 1.476 . S
C382 N377 1.318 . S
C382 C381 1.396 . S
H383 C378 0.929 . S
O384 Mn360 2.385 . S
O384 C362 1.234 . S
O385 Mn360 2.209 . S
O385 Mn361 2.215 . S
O385 C362 1.283 . S
O386 Mn360 2.094 . S
O386 C364 1.240 . S
O387 Mn361 2.117 . S
O387 C364 1.264 . S
C388 C381 1.403 . S
C388 C389 1.399 . S
C388 H394 0.929 . S
C389 C369 1.449 . S
C389 C388 1.399 . S
C389 H395 0.930 . S
H390 C370 0.931 . S
H391 C371 0.930 . S
H392 C379 0.931 . S
H393 C380 0.929 . S
H394 C388 0.929 . S
H395 C389 0.930 . S
Mn396 O401 2.095 . S
Mn396 O411 2.162 . S
Mn396 O412 2.297 . S
Mn396 O420 2.385 . S
Mn396 O421 2.209 . S
Mn396 O422 2.094 . S
Mn397 O402 2.121 . S
Mn397 N404 2.257 . S
Mn397 N413 2.282 . S
Mn397 O421 2.215 . S
Mn397 O423 2.117 . S
C398 O420 1.234 . S
C398 O421 1.283 . S
C399 O411 1.281 . S
C399 O412 1.236 . S
C400 O422 1.240 . S
C400 O423 1.264 . S
O401 Mn396 2.095 . S
O401 C410 1.250 . S
O402 Mn397 2.121 . S
O402 C410 1.258 . S
C403 N404 1.326 . S
C403 C407 1.460 . S
C403 H409 0.929 . S
N404 Mn397 2.257 . S
N404 C403 1.326 . S
N404 C408 1.362 . S
C405 C406 1.258 . S
C405 C408 1.431 . S
C405 C425 1.449 . S
C406 C405 1.258 . S
C406 C407 1.477 . S
C406 H426 0.931 . S
C407 C403 1.460 . S
C407 C406 1.477 . S
C407 H427 0.930 . S
C408 N404 1.362 . S
C408 C405 1.431 . S
C408 C418 1.476 . S
H409 C403 0.929 . S
C410 O401 1.250 . S
C410 O402 1.258 . S
O411 Mn396 2.162 . S
O411 C399 1.281 . S
O412 Mn396 2.297 . S
O412 C399 1.236 . S
N413 Mn397 2.282 . S
N413 C414 1.328 . S
N413 C418 1.318 . S
C414 N413 1.328 . S
C414 C415 1.457 . S
C414 H419 0.929 . S
C415 C414 1.457 . S
C415 C416 1.291 . S
C415 H428 0.931 . S
C416 C415 1.291 . S
C416 C417 1.373 . S
C416 H429 0.929 . S
C417 C416 1.373 . S
C417 C418 1.396 . S
C417 C424 1.403 . S
C418 C408 1.476 . S
C418 N413 1.318 . S
C418 C417 1.396 . S
H419 C414 0.929 . S
O420 Mn396 2.385 . S
O420 C398 1.234 . S
O421 Mn396 2.209 . S
O421 Mn397 2.215 . S
O421 C398 1.283 . S
O422 Mn396 2.094 . S
O422 C400 1.240 . S
O423 Mn397 2.117 . S
O423 C400 1.264 . S
C424 C417 1.403 . S
C424 C425 1.399 . S
C424 H430 0.929 . S
C425 C405 1.449 . S
C425 C424 1.399 . S
C425 H431 0.930 . S
H426 C406 0.931 . S
H427 C407 0.930 . S
H428 C415 0.931 . S
H429 C416 0.929 . S
H430 C424 0.929 . S
H431 C425 0.930 . S
Mn432 O437 2.095 . S
Mn432 O447 2.162 . S
Mn432 O448 2.297 . S
Mn432 O456 2.385 . S
Mn432 O457 2.209 . S
Mn432 O458 2.094 . S
Mn433 O438 2.121 . S
Mn433 N440 2.257 . S
Mn433 N449 2.282 . S
Mn433 O457 2.215 . S
Mn433 O459 2.117 . S
C434 O456 1.234 . S
C434 O457 1.283 . S
C435 O447 1.281 . S
C435 O448 1.236 . S
C436 O458 1.240 . S
C436 O459 1.264 . S
O437 Mn432 2.095 . S
O437 C446 1.250 . S
O438 Mn433 2.121 . S
O438 C446 1.258 . S
C439 N440 1.326 . S
C439 C443 1.460 . S
C439 H445 0.929 . S
N440 Mn433 2.257 . S
N440 C439 1.326 . S
N440 C444 1.362 . S
C441 C442 1.258 . S
C441 C444 1.431 . S
C441 C461 1.449 . S
C442 C441 1.258 . S
C442 C443 1.477 . S
C442 H462 0.931 . S
C443 C439 1.460 . S
C443 C442 1.477 . S
C443 H463 0.930 . S
C444 N440 1.362 . S
C444 C441 1.431 . S
C444 C454 1.476 . S
H445 C439 0.929 . S
C446 O437 1.250 . S
C446 O438 1.258 . S
O447 Mn432 2.162 . S
O447 C435 1.281 . S
O448 Mn432 2.297 . S
O448 C435 1.236 . S
N449 Mn433 2.282 . S
N449 C450 1.328 . S
N449 C454 1.318 . S
C450 N449 1.328 . S
C450 C451 1.457 . S
C450 H455 0.929 . S
C451 C450 1.457 . S
C451 C452 1.291 . S
C451 H464 0.931 . S
C452 C451 1.291 . S
C452 C453 1.373 . S
C452 H465 0.929 . S
C453 C452 1.373 . S
C453 C454 1.396 . S
C453 C460 1.403 . S
C454 C444 1.476 . S
C454 N449 1.318 . S
C454 C453 1.396 . S
H455 C450 0.929 . S
O456 Mn432 2.385 . S
O456 C434 1.234 . S
O457 Mn432 2.209 . S
O457 Mn433 2.215 . S
O457 C434 1.283 . S
O458 Mn432 2.094 . S
O458 C436 1.240 . S
O459 Mn433 2.117 . S
O459 C436 1.264 . S
C460 C453 1.403 . S
C460 C461 1.399 . S
C460 H466 0.929 1_655 S
C461 C441 1.449 . S
C461 C460 1.399 . S
C461 H467 0.930 1_655 S
H462 C442 0.931 . S
H463 C443 0.930 . S
H464 C451 0.931 . S
H465 C452 0.929 . S
H466 C460 0.929 1_455 S
H467 C461 0.930 1_455 S
Mn468 O473 2.095 . S
Mn468 O483 2.162 . S
Mn468 O484 2.297 . S
Mn468 O492 2.385 . S
Mn468 O493 2.209 . S
Mn468 O494 2.094 . S
Mn469 O474 2.121 . S
Mn469 N476 2.257 . S
Mn469 N485 2.282 . S
Mn469 O493 2.215 . S
Mn469 O495 2.117 . S
C470 O492 1.234 . S
C470 O493 1.283 . S
C471 O483 1.281 . S
C471 O484 1.236 . S
C472 O494 1.240 . S
C472 O495 1.264 . S
O473 Mn468 2.095 . S
O473 C482 1.250 . S
O474 Mn469 2.121 . S
O474 C482 1.258 . S
C475 N476 1.326 . S
C475 C479 1.460 . S
C475 H481 0.929 . S
N476 Mn469 2.257 . S
N476 C475 1.326 . S
N476 C480 1.362 . S
C477 C478 1.258 . S
C477 C480 1.431 . S
C477 C497 1.449 . S
C478 C477 1.258 . S
C478 C479 1.477 . S
C478 H498 0.931 . S
C479 C475 1.460 . S
C479 C478 1.477 . S
C479 H499 0.930 . S
C480 N476 1.362 . S
C480 C477 1.431 . S
C480 C490 1.476 . S
H481 C475 0.929 . S
C482 O473 1.250 . S
C482 O474 1.258 . S
O483 Mn468 2.162 . S
O483 C471 1.281 . S
O484 Mn468 2.297 . S
O484 C471 1.236 . S
N485 Mn469 2.282 . S
N485 C486 1.328 . S
N485 C490 1.318 . S
C486 N485 1.328 . S
C486 C487 1.457 . S
C486 H491 0.929 . S
C487 C486 1.457 . S
C487 C488 1.291 . S
C487 H500 0.931 . S
C488 C487 1.291 . S
C488 C489 1.373 . S
C488 H501 0.929 . S
C489 C488 1.373 . S
C489 C490 1.396 . S
C489 C496 1.403 . S
C490 C480 1.476 . S
C490 N485 1.318 . S
C490 C489 1.396 . S
H491 C486 0.929 . S
O492 Mn468 2.385 . S
O492 C470 1.234 . S
O493 Mn468 2.209 . S
O493 Mn469 2.215 . S
O493 C470 1.283 . S
O494 Mn468 2.094 . S
O494 C472 1.240 . S
O495 Mn469 2.117 . S
O495 C472 1.264 . S
C496 C489 1.403 . S
C496 C497 1.399 . S
C496 H502 0.929 . S
C497 C477 1.449 . S
C497 C496 1.399 . S
C497 H503 0.930 . S
H498 C478 0.931 . S
H499 C479 0.930 . S
H500 C487 0.931 . S
H501 C488 0.929 . S
H502 C496 0.929 . S
H503 C497 0.930 . S
Mn504 O509 2.095 . S
Mn504 O519 2.162 . S
Mn504 O520 2.297 . S
Mn504 O528 2.385 . S
Mn504 O529 2.209 . S
Mn504 O530 2.094 . S
Mn505 O510 2.121 . S
Mn505 N512 2.257 . S
Mn505 N521 2.282 . S
Mn505 O529 2.215 . S
Mn505 O531 2.117 . S
C506 O528 1.234 . S
C506 O529 1.283 . S
C507 O519 1.281 . S
C507 O520 1.236 . S
C508 O530 1.240 . S
C508 O531 1.264 . S
O509 Mn504 2.095 . S
O509 C518 1.250 . S
O510 Mn505 2.121 . S
O510 C518 1.258 . S
C511 N512 1.326 . S
C511 C515 1.460 . S
C511 H517 0.929 . S
N512 Mn505 2.257 . S
N512 C511 1.326 . S
N512 C516 1.362 . S
C513 C514 1.258 . S
C513 C516 1.431 . S
C513 C533 1.449 . S
C514 C513 1.258 . S
C514 C515 1.477 . S
C514 H534 0.931 . S
C515 C511 1.460 . S
C515 C514 1.477 . S
C515 H535 0.930 . S
C516 N512 1.362 . S
C516 C513 1.431 . S
C516 C526 1.476 . S
H517 C511 0.929 . S
C518 O509 1.250 . S
C518 O510 1.258 . S
O519 Mn504 2.162 . S
O519 C507 1.281 . S
O520 Mn504 2.297 . S
O520 C507 1.236 . S
N521 Mn505 2.282 . S
N521 C522 1.328 . S
N521 C526 1.318 . S
C522 N521 1.328 . S
C522 C523 1.457 . S
C522 H527 0.929 . S
C523 C522 1.457 . S
C523 C524 1.291 . S
C523 H536 0.931 . S
C524 C523 1.291 . S
C524 C525 1.373 . S
C524 H537 0.929 . S
C525 C524 1.373 . S
C525 C526 1.396 . S
C525 C532 1.403 . S
C526 C516 1.476 . S
C526 N521 1.318 . S
C526 C525 1.396 . S
H527 C522 0.929 . S
O528 Mn504 2.385 . S
O528 C506 1.234 . S
O529 Mn504 2.209 . S
O529 Mn505 2.215 . S
O529 C506 1.283 . S
O530 Mn504 2.094 . S
O530 C508 1.240 . S
O531 Mn505 2.117 . S
O531 C508 1.264 . S
C532 C525 1.403 . S
C532 C533 1.399 . S
C532 H538 0.929 . S
C533 C513 1.449 . S
C533 C532 1.399 . S
C533 H539 0.930 . S
H534 C514 0.931 . S
H535 C515 0.930 . S
H536 C523 0.931 . S
H537 C524 0.929 . S
H538 C532 0.929 . S
H539 C533 0.930 . S
Mn540 O545 2.095 . S
Mn540 O555 2.162 . S
Mn540 O556 2.297 . S
Mn540 O564 2.385 . S
Mn540 O565 2.209 . S
Mn540 O566 2.094 . S
Mn541 O546 2.121 . S
Mn541 N548 2.257 . S
Mn541 N557 2.282 . S
Mn541 O565 2.215 . S
Mn541 O567 2.117 . S
C542 O564 1.234 . S
C542 O565 1.283 . S
C543 O555 1.281 . S
C543 O556 1.236 . S
C544 O566 1.240 . S
C544 O567 1.264 . S
O545 Mn540 2.095 . S
O545 C554 1.250 . S
O546 Mn541 2.121 . S
O546 C554 1.258 . S
C547 N548 1.326 . S
C547 C551 1.460 . S
C547 H553 0.929 . S
N548 Mn541 2.257 . S
N548 C547 1.326 . S
N548 C552 1.362 . S
C549 C550 1.258 . S
C549 C552 1.431 . S
C549 C569 1.449 . S
C550 C549 1.258 . S
C550 C551 1.477 . S
C550 H570 0.931 . S
C551 C547 1.460 . S
C551 C550 1.477 . S
C551 H571 0.930 . S
C552 N548 1.362 . S
C552 C549 1.431 . S
C552 C562 1.476 . S
H553 C547 0.929 . S
C554 O545 1.250 . S
C554 O546 1.258 . S
O555 Mn540 2.162 . S
O555 C543 1.281 . S
O556 Mn540 2.297 . S
O556 C543 1.236 . S
N557 Mn541 2.282 . S
N557 C558 1.328 . S
N557 C562 1.318 . S
C558 N557 1.328 . S
C558 C559 1.457 . S
C558 H563 0.929 . S
C559 C558 1.457 . S
C559 C560 1.291 . S
C559 H572 0.931 . S
C560 C559 1.291 . S
C560 C561 1.373 . S
C560 H573 0.929 . S
C561 C560 1.373 . S
C561 C562 1.396 . S
C561 C568 1.403 . S
C562 C552 1.476 . S
C562 N557 1.318 . S
C562 C561 1.396 . S
H563 C558 0.929 . S
O564 Mn540 2.385 . S
O564 C542 1.234 . S
O565 Mn540 2.209 . S
O565 Mn541 2.215 . S
O565 C542 1.283 . S
O566 Mn540 2.094 . S
O566 C544 1.240 . S
O567 Mn541 2.117 . S
O567 C544 1.264 . S
C568 C561 1.403 . S
C568 C569 1.399 . S
C568 H574 0.929 . S
C569 C549 1.449 . S
C569 C568 1.399 . S
C569 H575 0.930 . S
H570 C550 0.931 . S
H571 C551 0.930 . S
H572 C559 0.931 . S
H573 C560 0.929 . S
H574 C568 0.929 . S
H575 C569 0.930 . S
Mn576 O581 2.095 . S
Mn576 O591 2.162 . S
Mn576 O592 2.297 . S
Mn576 O600 2.385 . S
Mn576 O601 2.209 . S
Mn576 O602 2.094 . S
Mn577 O582 2.121 . S
Mn577 N584 2.257 . S
Mn577 N593 2.282 . S
Mn577 O601 2.215 . S
Mn577 O603 2.117 . S
C578 O600 1.234 . S
C578 O601 1.283 . S
C579 O591 1.281 . S
C579 O592 1.236 . S
C580 O602 1.240 . S
C580 O603 1.264 . S
O581 Mn576 2.095 . S
O581 C590 1.250 . S
O582 Mn577 2.121 . S
O582 C590 1.258 . S
C583 N584 1.326 . S
C583 C587 1.460 . S
C583 H589 0.929 . S
N584 Mn577 2.257 . S
N584 C583 1.326 . S
N584 C588 1.362 . S
C585 C586 1.258 . S
C585 C588 1.431 . S
C585 C605 1.449 . S
C586 C585 1.258 . S
C586 C587 1.477 . S
C586 H606 0.931 . S
C587 C583 1.460 . S
C587 C586 1.477 . S
C587 H607 0.930 . S
C588 N584 1.362 . S
C588 C585 1.431 . S
C588 C598 1.476 . S
H589 C583 0.929 . S
C590 O581 1.250 . S
C590 O582 1.258 . S
O591 Mn576 2.162 . S
O591 C579 1.281 . S
O592 Mn576 2.297 . S
O592 C579 1.236 . S
N593 Mn577 2.282 . S
N593 C594 1.328 . S
N593 C598 1.318 . S
C594 N593 1.328 . S
C594 C595 1.457 . S
C594 H599 0.929 . S
C595 C594 1.457 . S
C595 C596 1.291 . S
C595 H608 0.931 . S
C596 C595 1.291 . S
C596 C597 1.373 . S
C596 H609 0.929 . S
C597 C596 1.373 . S
C597 C598 1.396 . S
C597 C604 1.403 . S
C598 C588 1.476 . S
C598 N593 1.318 . S
C598 C597 1.396 . S
H599 C594 0.929 . S
O600 Mn576 2.385 . S
O600 C578 1.234 . S
O601 Mn576 2.209 . S
O601 Mn577 2.215 . S
O601 C578 1.283 . S
O602 Mn576 2.094 . S
O602 C580 1.240 . S
O603 Mn577 2.117 . S
O603 C580 1.264 . S
C604 C597 1.403 . S
C604 C605 1.399 . S
C604 H610 0.929 . S
C605 C585 1.449 . S
C605 C604 1.399 . S
C605 H611 0.930 . S
H606 C586 0.931 . S
H607 C587 0.930 . S
H608 C595 0.931 . S
H609 C596 0.929 . S
H610 C604 0.929 . S
H611 C605 0.930 . S
Mn612 O617 2.095 . S
Mn612 O627 2.162 . S
Mn612 O628 2.297 . S
Mn612 O636 2.385 . S
Mn612 O637 2.209 . S
Mn612 O638 2.094 . S
Mn613 O618 2.121 . S
Mn613 N620 2.257 . S
Mn613 N629 2.282 . S
Mn613 O637 2.215 . S
Mn613 O639 2.117 . S
C614 O636 1.234 . S
C614 O637 1.283 . S
C615 O627 1.281 . S
C615 O628 1.236 . S
C616 O638 1.240 . S
C616 O639 1.264 . S
O617 Mn612 2.095 . S
O617 C626 1.250 . S
O618 Mn613 2.121 . S
O618 C626 1.258 . S
C619 N620 1.326 . S
C619 C623 1.460 . S
C619 H625 0.929 . S
N620 Mn613 2.257 . S
N620 C619 1.326 . S
N620 C624 1.362 . S
C621 C622 1.258 . S
C621 C624 1.431 . S
C621 C641 1.449 . S
C622 C621 1.258 . S
C622 C623 1.477 . S
C622 H642 0.931 . S
C623 C619 1.460 . S
C623 C622 1.477 . S
C623 H643 0.930 . S
C624 N620 1.362 . S
C624 C621 1.431 . S
C624 C634 1.476 . S
H625 C619 0.929 . S
C626 O617 1.250 . S
C626 O618 1.258 . S
O627 Mn612 2.162 . S
O627 C615 1.281 . S
O628 Mn612 2.297 . S
O628 C615 1.236 . S
N629 Mn613 2.282 . S
N629 C630 1.328 . S
N629 C634 1.318 . S
C630 N629 1.328 . S
C630 C631 1.457 . S
C630 H635 0.929 . S
C631 C630 1.457 . S
C631 C632 1.291 . S
C631 H644 0.931 . S
C632 C631 1.291 . S
C632 C633 1.373 . S
C632 H645 0.929 . S
C633 C632 1.373 . S
C633 C634 1.396 . S
C633 C640 1.403 . S
C634 C624 1.476 . S
C634 N629 1.318 . S
C634 C633 1.396 . S
H635 C630 0.929 . S
O636 Mn612 2.385 . S
O636 C614 1.234 . S
O637 Mn612 2.209 . S
O637 Mn613 2.215 . S
O637 C614 1.283 . S
O638 Mn612 2.094 . S
O638 C616 1.240 . S
O639 Mn613 2.117 . S
O639 C616 1.264 . S
C640 C633 1.403 . S
C640 C641 1.399 . S
C640 H646 0.929 . S
C641 C621 1.449 . S
C641 C640 1.399 . S
C641 H647 0.930 . S
H642 C622 0.931 . S
H643 C623 0.930 . S
H644 C631 0.931 . S
H645 C632 0.929 . S
H646 C640 0.929 . S
H647 C641 0.930 . S
Mn648 O653 2.095 . S
Mn648 O663 2.162 . S
Mn648 O664 2.297 . S
Mn648 O672 2.385 . S
Mn648 O673 2.209 . S
Mn648 O674 2.094 . S
Mn649 O654 2.121 . S
Mn649 N656 2.257 . S
Mn649 N665 2.282 . S
Mn649 O673 2.215 . S
Mn649 O675 2.117 . S
C650 O672 1.234 . S
C650 O673 1.283 . S
C651 O663 1.281 . S
C651 O664 1.236 . S
C652 O674 1.240 . S
C652 O675 1.264 . S
O653 Mn648 2.095 . S
O653 C662 1.250 . S
O654 Mn649 2.121 . S
O654 C662 1.258 . S
C655 N656 1.326 . S
C655 C659 1.460 . S
C655 H661 0.929 . S
N656 Mn649 2.257 . S
N656 C655 1.326 . S
N656 C660 1.362 . S
C657 C658 1.258 . S
C657 C660 1.431 . S
C657 C677 1.449 . S
C658 C657 1.258 . S
C658 C659 1.477 . S
C658 H678 0.931 . S
C659 C655 1.460 . S
C659 C658 1.477 . S
C659 H679 0.930 . S
C660 N656 1.362 . S
C660 C657 1.431 . S
C660 C670 1.476 . S
H661 C655 0.929 . S
C662 O653 1.250 . S
C662 O654 1.258 . S
O663 Mn648 2.162 . S
O663 C651 1.281 . S
O664 Mn648 2.297 . S
O664 C651 1.236 . S
N665 Mn649 2.282 . S
N665 C666 1.328 . S
N665 C670 1.318 . S
C666 N665 1.328 . S
C666 C667 1.457 . S
C666 H671 0.929 . S
C667 C666 1.457 . S
C667 C668 1.291 . S
C667 H680 0.931 . S
C668 C667 1.291 . S
C668 C669 1.373 . S
C668 H681 0.929 . S
C669 C668 1.373 . S
C669 C670 1.396 . S
C669 C676 1.403 . S
C670 C660 1.476 . S
C670 N665 1.318 . S
C670 C669 1.396 . S
H671 C666 0.929 . S
O672 Mn648 2.385 . S
O672 C650 1.234 . S
O673 Mn648 2.209 . S
O673 Mn649 2.215 . S
O673 C650 1.283 . S
O674 Mn648 2.094 . S
O674 C652 1.240 . S
O675 Mn649 2.117 . S
O675 C652 1.264 . S
C676 C669 1.403 . S
C676 C677 1.399 . S
C676 H682 0.929 1_655 S
C677 C657 1.449 . S
C677 C676 1.399 . S
C677 H683 0.930 1_655 S
H678 C658 0.931 . S
H679 C659 0.930 . S
H680 C667 0.931 . S
H681 C668 0.929 . S
H682 C676 0.929 1_455 S
H683 C677 0.930 1_455 S
Mn684 O689 2.095 . S
Mn684 O699 2.162 . S
Mn684 O700 2.297 . S
Mn684 O708 2.385 . S
Mn684 O709 2.209 . S
Mn684 O710 2.094 . S
Mn685 O690 2.121 . S
Mn685 N692 2.257 . S
Mn685 N701 2.282 . S
Mn685 O709 2.215 . S
Mn685 O711 2.117 . S
C686 O708 1.234 . S
C686 O709 1.283 . S
C687 O699 1.281 . S
C687 O700 1.236 . S
C688 O710 1.240 . S
C688 O711 1.264 . S
O689 Mn684 2.095 . S
O689 C698 1.250 . S
O690 Mn685 2.121 . S
O690 C698 1.258 . S
C691 N692 1.326 . S
C691 C695 1.460 . S
C691 H697 0.929 . S
N692 Mn685 2.257 . S
N692 C691 1.326 . S
N692 C696 1.362 . S
C693 C694 1.258 . S
C693 C696 1.431 . S
C693 C713 1.449 . S
C694 C693 1.258 . S
C694 C695 1.477 . S
C694 H714 0.931 . S
C695 C691 1.460 . S
C695 C694 1.477 . S
C695 H715 0.930 . S
C696 N692 1.362 . S
C696 C693 1.431 . S
C696 C706 1.476 . S
H697 C691 0.929 . S
C698 O689 1.250 . S
C698 O690 1.258 . S
O699 Mn684 2.162 . S
O699 C687 1.281 . S
O700 Mn684 2.297 . S
O700 C687 1.236 . S
N701 Mn685 2.282 . S
N701 C702 1.328 . S
N701 C706 1.318 . S
C702 N701 1.328 . S
C702 C703 1.457 . S
C702 H707 0.929 . S
C703 C702 1.457 . S
C703 C704 1.291 . S
C703 H716 0.931 . S
C704 C703 1.291 . S
C704 C705 1.373 . S
C704 H717 0.929 . S
C705 C704 1.373 . S
C705 C706 1.396 . S
C705 C712 1.403 . S
C706 C696 1.476 . S
C706 N701 1.318 . S
C706 C705 1.396 . S
H707 C702 0.929 . S
O708 Mn684 2.385 . S
O708 C686 1.234 . S
O709 Mn684 2.209 . S
O709 Mn685 2.215 . S
O709 C686 1.283 . S
O710 Mn684 2.094 . S
O710 C688 1.240 . S
O711 Mn685 2.117 . S
O711 C688 1.264 . S
C712 C705 1.403 . S
C712 C713 1.399 . S
C712 H718 0.929 . S
C713 C693 1.449 . S
C713 C712 1.399 . S
C713 H719 0.930 . S
H714 C694 0.931 . S
H715 C695 0.930 . S
H716 C703 0.931 . S
H717 C704 0.929 . S
H718 C712 0.929 . S
H719 C713 0.930 . S
Mn720 O725 2.095 . S
Mn720 O735 2.162 . S
Mn720 O736 2.297 . S
Mn720 O744 2.385 . S
Mn720 O745 2.209 . S
Mn720 O746 2.094 . S
Mn721 O726 2.121 . S
Mn721 N728 2.257 . S
Mn721 N737 2.282 . S
Mn721 O745 2.215 . S
Mn721 O747 2.117 . S
C722 O744 1.234 . S
C722 O745 1.283 . S
C723 O735 1.281 . S
C723 O736 1.236 . S
C724 O746 1.240 . S
C724 O747 1.264 . S
O725 Mn720 2.095 . S
O725 C734 1.250 . S
O726 Mn721 2.121 . S
O726 C734 1.258 . S
C727 N728 1.326 . S
C727 C731 1.460 . S
C727 H733 0.929 . S
N728 Mn721 2.257 . S
N728 C727 1.326 . S
N728 C732 1.362 . S
C729 C730 1.258 . S
C729 C732 1.431 . S
C729 C749 1.449 . S
C730 C729 1.258 . S
C730 C731 1.477 . S
C730 H750 0.931 . S
C731 C727 1.460 . S
C731 C730 1.477 . S
C731 H751 0.930 . S
C732 N728 1.362 . S
C732 C729 1.431 . S
C732 C742 1.476 . S
H733 C727 0.929 . S
C734 O725 1.250 . S
C734 O726 1.258 . S
O735 Mn720 2.162 . S
O735 C723 1.281 . S
O736 Mn720 2.297 . S
O736 C723 1.236 . S
N737 Mn721 2.282 . S
N737 C738 1.328 . S
N737 C742 1.318 . S
C738 N737 1.328 . S
C738 C739 1.457 . S
C738 H743 0.929 . S
C739 C738 1.457 . S
C739 C740 1.291 . S
C739 H752 0.931 . S
C740 C739 1.291 . S
C740 C741 1.373 . S
C740 H753 0.929 . S
C741 C740 1.373 . S
C741 C742 1.396 . S
C741 C748 1.403 . S
C742 C732 1.476 . S
C742 N737 1.318 . S
C742 C741 1.396 . S
H743 C738 0.929 . S
O744 Mn720 2.385 . S
O744 C722 1.234 . S
O745 Mn720 2.209 . S
O745 Mn721 2.215 . S
O745 C722 1.283 . S
O746 Mn720 2.094 . S
O746 C724 1.240 . S
O747 Mn721 2.117 . S
O747 C724 1.264 . S
C748 C741 1.403 . S
C748 C749 1.399 . S
C748 H754 0.929 . S
C749 C729 1.449 . S
C749 C748 1.399 . S
C749 H755 0.930 . S
H750 C730 0.931 . S
H751 C731 0.930 . S
H752 C739 0.931 . S
H753 C740 0.929 . S
H754 C748 0.929 . S
H755 C749 0.930 . S
Mn756 O761 2.095 . S
Mn756 O771 2.162 . S
Mn756 O772 2.297 . S
Mn756 O780 2.385 . S
Mn756 O781 2.209 . S
Mn756 O782 2.094 . S
Mn757 O762 2.121 . S
Mn757 N764 2.257 . S
Mn757 N773 2.282 . S
Mn757 O781 2.215 . S
Mn757 O783 2.117 . S
C758 O780 1.234 . S
C758 O781 1.283 . S
C759 O771 1.281 . S
C759 O772 1.236 . S
C760 O782 1.240 . S
C760 O783 1.264 . S
O761 Mn756 2.095 . S
O761 C770 1.250 . S
O762 Mn757 2.121 . S
O762 C770 1.258 . S
C763 N764 1.326 . S
C763 C767 1.460 . S
C763 H769 0.929 . S
N764 Mn757 2.257 . S
N764 C763 1.326 . S
N764 C768 1.362 . S
C765 C766 1.258 . S
C765 C768 1.431 . S
C765 C785 1.449 . S
C766 C765 1.258 . S
C766 C767 1.477 . S
C766 H786 0.931 . S
C767 C763 1.460 . S
C767 C766 1.477 . S
C767 H787 0.930 . S
C768 N764 1.362 . S
C768 C765 1.431 . S
C768 C778 1.476 . S
H769 C763 0.929 . S
C770 O761 1.250 . S
C770 O762 1.258 . S
O771 Mn756 2.162 . S
O771 C759 1.281 . S
O772 Mn756 2.297 . S
O772 C759 1.236 . S
N773 Mn757 2.282 . S
N773 C774 1.328 . S
N773 C778 1.318 . S
C774 N773 1.328 . S
C774 C775 1.457 . S
C774 H779 0.929 . S
C775 C774 1.457 . S
C775 C776 1.291 . S
C775 H788 0.931 . S
C776 C775 1.291 . S
C776 C777 1.373 . S
C776 H789 0.929 . S
C777 C776 1.373 . S
C777 C778 1.396 . S
C777 C784 1.403 . S
C778 C768 1.476 . S
C778 N773 1.318 . S
C778 C777 1.396 . S
H779 C774 0.929 . S
O780 Mn756 2.385 . S
O780 C758 1.234 . S
O781 Mn756 2.209 . S
O781 Mn757 2.215 . S
O781 C758 1.283 . S
O782 Mn756 2.094 . S
O782 C760 1.240 . S
O783 Mn757 2.117 . S
O783 C760 1.264 . S
C784 C777 1.403 . S
C784 C785 1.399 . S
C784 H790 0.929 . S
C785 C765 1.449 . S
C785 C784 1.399 . S
C785 H791 0.930 . S
H786 C766 0.931 . S
H787 C767 0.930 . S
H788 C775 0.931 . S
H789 C776 0.929 . S
H790 C784 0.929 . S
H791 C785 0.930 . S
Mn792 O797 2.095 . S
Mn792 O807 2.162 . S
Mn792 O808 2.297 . S
Mn792 O816 2.385 . S
Mn792 O817 2.209 . S
Mn792 O818 2.094 . S
Mn793 O798 2.121 . S
Mn793 N800 2.257 . S
Mn793 N809 2.282 . S
Mn793 O817 2.215 . S
Mn793 O819 2.117 . S
C794 O816 1.234 . S
C794 O817 1.283 . S
C795 O807 1.281 . S
C795 O808 1.236 . S
C796 O818 1.240 . S
C796 O819 1.264 . S
O797 Mn792 2.095 . S
O797 C806 1.250 . S
O798 Mn793 2.121 . S
O798 C806 1.258 . S
C799 N800 1.326 . S
C799 C803 1.460 . S
C799 H805 0.929 . S
N800 Mn793 2.257 . S
N800 C799 1.326 . S
N800 C804 1.362 . S
C801 C802 1.258 . S
C801 C804 1.431 . S
C801 C821 1.449 . S
C802 C801 1.258 . S
C802 C803 1.477 . S
C802 H822 0.931 . S
C803 C799 1.460 . S
C803 C802 1.477 . S
C803 H823 0.930 . S
C804 N800 1.362 . S
C804 C801 1.431 . S
C804 C814 1.476 . S
H805 C799 0.929 . S
C806 O797 1.250 . S
C806 O798 1.258 . S
O807 Mn792 2.162 . S
O807 C795 1.281 . S
O808 Mn792 2.297 . S
O808 C795 1.236 . S
N809 Mn793 2.282 . S
N809 C810 1.328 . S
N809 C814 1.318 . S
C810 N809 1.328 . S
C810 C811 1.457 . S
C810 H815 0.929 . S
C811 C810 1.457 . S
C811 C812 1.291 . S
C811 H824 0.931 . S
C812 C811 1.291 . S
C812 C813 1.373 . S
C812 H825 0.929 . S
C813 C812 1.373 . S
C813 C814 1.396 . S
C813 C820 1.403 . S
C814 C804 1.476 . S
C814 N809 1.318 . S
C814 C813 1.396 . S
H815 C810 0.929 . S
O816 Mn792 2.385 . S
O816 C794 1.234 . S
O817 Mn792 2.209 . S
O817 Mn793 2.215 . S
O817 C794 1.283 . S
O818 Mn792 2.094 . S
O818 C796 1.240 . S
O819 Mn793 2.117 . S
O819 C796 1.264 . S
C820 C813 1.403 . S
C820 C821 1.399 . S
C820 H826 0.929 1_655 S
C821 C801 1.449 . S
C821 C820 1.399 . S
C821 H827 0.930 1_655 S
H822 C802 0.931 . S
H823 C803 0.930 . S
H824 C811 0.931 . S
H825 C812 0.929 . S
H826 C820 0.929 1_455 S
H827 C821 0.930 1_455 S
Mn828 O833 2.095 . S
Mn828 O843 2.162 . S
Mn828 O844 2.297 . S
Mn828 O852 2.385 . S
Mn828 O853 2.209 . S
Mn828 O854 2.094 . S
Mn829 O834 2.121 . S
Mn829 N836 2.257 . S
Mn829 N845 2.282 . S
Mn829 O853 2.215 . S
Mn829 O855 2.117 . S
C830 O852 1.234 . S
C830 O853 1.283 . S
C831 O843 1.281 . S
C831 O844 1.236 . S
C832 O854 1.240 . S
C832 O855 1.264 . S
O833 Mn828 2.095 . S
O833 C842 1.250 . S
O834 Mn829 2.121 . S
O834 C842 1.258 . S
C835 N836 1.326 . S
C835 C839 1.460 . S
C835 H841 0.929 . S
N836 Mn829 2.257 . S
N836 C835 1.326 . S
N836 C840 1.362 . S
C837 C838 1.258 . S
C837 C840 1.431 . S
C837 C857 1.449 . S
C838 C837 1.258 . S
C838 C839 1.477 . S
C838 H858 0.931 . S
C839 C835 1.460 . S
C839 C838 1.477 . S
C839 H859 0.930 . S
C840 N836 1.362 . S
C840 C837 1.431 . S
C840 C850 1.476 . S
H841 C835 0.929 . S
C842 O833 1.250 . S
C842 O834 1.258 . S
O843 Mn828 2.162 . S
O843 C831 1.281 . S
O844 Mn828 2.297 . S
O844 C831 1.236 . S
N845 Mn829 2.282 . S
N845 C846 1.328 . S
N845 C850 1.318 . S
C846 N845 1.328 . S
C846 C847 1.457 . S
C846 H851 0.929 . S
C847 C846 1.457 . S
C847 C848 1.291 . S
C847 H860 0.931 . S
C848 C847 1.291 . S
C848 C849 1.373 . S
C848 H861 0.929 . S
C849 C848 1.373 . S
C849 C850 1.396 . S
C849 C856 1.403 . S
C850 C840 1.476 . S
C850 N845 1.318 . S
C850 C849 1.396 . S
H851 C846 0.929 . S
O852 Mn828 2.385 . S
O852 C830 1.234 . S
O853 Mn828 2.209 . S
O853 Mn829 2.215 . S
O853 C830 1.283 . S
O854 Mn828 2.094 . S
O854 C832 1.240 . S
O855 Mn829 2.117 . S
O855 C832 1.264 . S
C856 C849 1.403 . S
C856 C857 1.399 . S
C856 H862 0.929 . S
C857 C837 1.449 . S
C857 C856 1.399 . S
C857 H863 0.930 . S
H858 C838 0.931 . S
H859 C839 0.930 . S
H860 C847 0.931 . S
H861 C848 0.929 . S
H862 C856 0.929 . S
H863 C857 0.930 . S
Mn864 O869 2.095 . S
Mn864 O879 2.162 . S
Mn864 O880 2.297 . S
Mn864 O888 2.385 . S
Mn864 O889 2.209 . S
Mn864 O890 2.094 . S
Mn865 O870 2.121 . S
Mn865 N872 2.257 . S
Mn865 N881 2.282 . S
Mn865 O889 2.215 . S
Mn865 O891 2.117 . S
C866 O888 1.234 . S
C866 O889 1.283 . S
C867 O879 1.281 . S
C867 O880 1.236 . S
C868 O890 1.240 . S
C868 O891 1.264 . S
O869 Mn864 2.095 . S
O869 C878 1.250 . S
O870 Mn865 2.121 . S
O870 C878 1.258 . S
C871 N872 1.326 . S
C871 C875 1.460 . S
C871 H877 0.929 . S
N872 Mn865 2.257 . S
N872 C871 1.326 . S
N872 C876 1.362 . S
C873 C874 1.258 . S
C873 C876 1.431 . S
C873 C893 1.449 . S
C874 C873 1.258 . S
C874 C875 1.477 . S
C874 H894 0.931 . S
C875 C871 1.460 . S
C875 C874 1.477 . S
C875 H895 0.930 . S
C876 N872 1.362 . S
C876 C873 1.431 . S
C876 C886 1.476 . S
H877 C871 0.929 . S
C878 O869 1.250 . S
C878 O870 1.258 . S
O879 Mn864 2.162 . S
O879 C867 1.281 . S
O880 Mn864 2.297 . S
O880 C867 1.236 . S
N881 Mn865 2.282 . S
N881 C882 1.328 . S
N881 C886 1.318 . S
C882 N881 1.328 . S
C882 C883 1.457 . S
C882 H887 0.929 . S
C883 C882 1.457 . S
C883 C884 1.291 . S
C883 H896 0.931 . S
C884 C883 1.291 . S
C884 C885 1.373 . S
C884 H897 0.929 . S
C885 C884 1.373 . S
C885 C886 1.396 . S
C885 C892 1.403 . S
C886 C876 1.476 . S
C886 N881 1.318 . S
C886 C885 1.396 . S
H887 C882 0.929 . S
O888 Mn864 2.385 . S
O888 C866 1.234 . S
O889 Mn864 2.209 . S
O889 Mn865 2.215 . S
O889 C866 1.283 . S
O890 Mn864 2.094 . S
O890 C868 1.240 . S
O891 Mn865 2.117 . S
O891 C868 1.264 . S
C892 C885 1.403 . S
C892 C893 1.399 . S
C892 H898 0.929 . S
C893 C873 1.449 . S
C893 C892 1.399 . S
C893 H899 0.930 . S
H894 C874 0.931 . S
H895 C875 0.930 . S
H896 C883 0.931 . S
H897 C884 0.929 . S
H898 C892 0.929 . S
H899 C893 0.930 . S
Mn900 O905 2.095 . S
Mn900 O915 2.162 . S
Mn900 O916 2.297 . S
Mn900 O924 2.385 . S
Mn900 O925 2.209 . S
Mn900 O926 2.094 . S
Mn901 O906 2.121 . S
Mn901 N908 2.257 . S
Mn901 N917 2.282 . S
Mn901 O925 2.215 . S
Mn901 O927 2.117 . S
C902 O924 1.234 . S
C902 O925 1.283 . S
C903 O915 1.281 . S
C903 O916 1.236 . S
C904 O926 1.240 . S
C904 O927 1.264 . S
O905 Mn900 2.095 . S
O905 C914 1.250 . S
O906 Mn901 2.121 . S
O906 C914 1.258 . S
C907 N908 1.326 . S
C907 C911 1.460 . S
C907 H913 0.929 . S
N908 Mn901 2.257 . S
N908 C907 1.326 . S
N908 C912 1.362 . S
C909 C910 1.258 . S
C909 C912 1.431 . S
C909 C929 1.449 . S
C910 C909 1.258 . S
C910 C911 1.477 . S
C910 H930 0.931 . S
C911 C907 1.460 . S
C911 C910 1.477 . S
C911 H931 0.930 . S
C912 N908 1.362 . S
C912 C909 1.431 . S
C912 C922 1.476 . S
H913 C907 0.929 . S
C914 O905 1.250 . S
C914 O906 1.258 . S
O915 Mn900 2.162 . S
O915 C903 1.281 . S
O916 Mn900 2.297 . S
O916 C903 1.236 . S
N917 Mn901 2.282 . S
N917 C918 1.328 . S
N917 C922 1.318 . S
C918 N917 1.328 . S
C918 C919 1.457 . S
C918 H923 0.929 . S
C919 C918 1.457 . S
C919 C920 1.291 . S
C919 H932 0.931 . S
C920 C919 1.291 . S
C920 C921 1.373 . S
C920 H933 0.929 . S
C921 C920 1.373 . S
C921 C922 1.396 . S
C921 C928 1.403 . S
C922 C912 1.476 . S
C922 N917 1.318 . S
C922 C921 1.396 . S
H923 C918 0.929 . S
O924 Mn900 2.385 . S
O924 C902 1.234 . S
O925 Mn900 2.209 . S
O925 Mn901 2.215 . S
O925 C902 1.283 . S
O926 Mn900 2.094 . S
O926 C904 1.240 . S
O927 Mn901 2.117 . S
O927 C904 1.264 . S
C928 C921 1.403 . S
C928 C929 1.399 . S
C928 H934 0.929 . S
C929 C909 1.449 . S
C929 C928 1.399 . S
C929 H935 0.930 . S
H930 C910 0.931 . S
H931 C911 0.930 . S
H932 C919 0.931 . S
H933 C920 0.929 . S
H934 C928 0.929 . S
H935 C929 0.930 . S
Mn936 O941 2.095 . S
Mn936 O951 2.162 . S
Mn936 O952 2.297 . S
Mn936 O960 2.385 . S
Mn936 O961 2.209 . S
Mn936 O962 2.094 . S
Mn937 O942 2.121 . S
Mn937 N944 2.257 . S
Mn937 N953 2.282 . S
Mn937 O961 2.215 . S
Mn937 O963 2.117 . S
C938 O960 1.234 . S
C938 O961 1.283 . S
C939 O951 1.281 . S
C939 O952 1.236 . S
C940 O962 1.240 . S
C940 O963 1.264 . S
O941 Mn936 2.095 . S
O941 C950 1.250 . S
O942 Mn937 2.121 . S
O942 C950 1.258 . S
C943 N944 1.326 . S
C943 C947 1.460 . S
C943 H949 0.929 . S
N944 Mn937 2.257 . S
N944 C943 1.326 . S
N944 C948 1.362 . S
C945 C946 1.258 . S
C945 C948 1.431 . S
C945 C965 1.449 . S
C946 C945 1.258 . S
C946 C947 1.477 . S
C946 H966 0.931 . S
C947 C943 1.460 . S
C947 C946 1.477 . S
C947 H967 0.930 . S
C948 N944 1.362 . S
C948 C945 1.431 . S
C948 C958 1.476 . S
H949 C943 0.929 . S
C950 O941 1.250 . S
C950 O942 1.258 . S
O951 Mn936 2.162 . S
O951 C939 1.281 . S
O952 Mn936 2.297 . S
O952 C939 1.236 . S
N953 Mn937 2.282 . S
N953 C954 1.328 . S
N953 C958 1.318 . S
C954 N953 1.328 . S
C954 C955 1.457 . S
C954 H959 0.929 . S
C955 C954 1.457 . S
C955 C956 1.291 . S
C955 H968 0.931 . S
C956 C955 1.291 . S
C956 C957 1.373 . S
C956 H969 0.929 . S
C957 C956 1.373 . S
C957 C958 1.396 . S
C957 C964 1.403 . S
C958 C948 1.476 . S
C958 N953 1.318 . S
C958 C957 1.396 . S
H959 C954 0.929 . S
O960 Mn936 2.385 . S
O960 C938 1.234 . S
O961 Mn936 2.209 . S
O961 Mn937 2.215 . S
O961 C938 1.283 . S
O962 Mn936 2.094 . S
O962 C940 1.240 . S
O963 Mn937 2.117 . S
O963 C940 1.264 . S
C964 C957 1.403 . S
C964 C965 1.399 . S
C964 H970 0.929 1_455 S
C965 C945 1.449 . S
C965 C964 1.399 . S
C965 H971 0.930 1_455 S
H966 C946 0.931 . S
H967 C947 0.930 . S
H968 C955 0.931 . S
H969 C956 0.929 . S
H970 C964 0.929 1_655 S
H971 C965 0.930 1_655 S
Mn972 O977 2.095 . S
Mn972 O987 2.162 . S
Mn972 O988 2.297 . S
Mn972 O996 2.385 . S
Mn972 O997 2.209 . S
Mn972 O998 2.094 . S
Mn973 O978 2.121 . S
Mn973 N980 2.257 . S
Mn973 N989 2.282 . S
Mn973 O997 2.215 . S
Mn973 O999 2.117 . S
C974 O996 1.234 . S
C974 O997 1.283 . S
C975 O987 1.281 . S
C975 O988 1.236 . S
C976 O998 1.240 . S
C976 O999 1.264 . S
O977 Mn972 2.095 . S
O977 C986 1.250 . S
O978 Mn973 2.121 . S
O978 C986 1.258 . S
C979 N980 1.326 . S
C979 C983 1.460 . S
C979 H985 0.929 . S
N980 Mn973 2.257 . S
N980 C979 1.326 . S
N980 C984 1.362 . S
C981 C982 1.258 . S
C981 C984 1.431 . S
C981 C1001 1.449 . S
C982 C981 1.258 . S
C982 C983 1.477 . S
C982 H1002 0.931 . S
C983 C979 1.460 . S
C983 C982 1.477 . S
C983 H1003 0.930 . S
C984 N980 1.362 . S
C984 C981 1.431 . S
C984 C994 1.476 . S
H985 C979 0.929 . S
C986 O977 1.250 . S
C986 O978 1.258 . S
O987 Mn972 2.162 . S
O987 C975 1.281 . S
O988 Mn972 2.297 . S
O988 C975 1.236 . S
N989 Mn973 2.282 . S
N989 C990 1.328 . S
N989 C994 1.318 . S
C990 N989 1.328 . S
C990 C991 1.457 . S
C990 H995 0.929 . S
C991 C990 1.457 . S
C991 C992 1.291 . S
C991 H1004 0.931 . S
C992 C991 1.291 . S
C992 C993 1.373 . S
C992 H1005 0.929 . S
C993 C992 1.373 . S
C993 C994 1.396 . S
C993 C1000 1.403 . S
C994 C984 1.476 . S
C994 N989 1.318 . S
C994 C993 1.396 . S
H995 C990 0.929 . S
O996 Mn972 2.385 . S
O996 C974 1.234 . S
O997 Mn972 2.209 . S
O997 Mn973 2.215 . S
O997 C974 1.283 . S
O998 Mn972 2.094 . S
O998 C976 1.240 . S
O999 Mn973 2.117 . S
O999 C976 1.264 . S
C1000 C993 1.403 . S
C1000 C1001 1.399 . S
C1000 H1006 0.929 . S
C1001 C981 1.449 . S
C1001 C1000 1.399 . S
C1001 H1007 0.930 . S
H1002 C982 0.931 . S
H1003 C983 0.930 . S
H1004 C991 0.931 . S
H1005 C992 0.929 . S
H1006 C1000 0.929 . S
H1007 C1001 0.930 . S
Mn1008 O1013 2.095 . S
Mn1008 O1023 2.162 . S
Mn1008 O1024 2.297 . S
Mn1008 O1032 2.385 . S
Mn1008 O1033 2.209 . S
Mn1008 O1034 2.094 . S
Mn1009 O1014 2.121 . S
Mn1009 N1016 2.257 . S
Mn1009 N1025 2.282 . S
Mn1009 O1033 2.215 . S
Mn1009 O1035 2.117 . S
C1010 O1032 1.234 . S
C1010 O1033 1.283 . S
C1011 O1023 1.281 . S
C1011 O1024 1.236 . S
C1012 O1034 1.240 . S
C1012 O1035 1.264 . S
O1013 Mn1008 2.095 . S
O1013 C1022 1.250 . S
O1014 Mn1009 2.121 . S
O1014 C1022 1.258 . S
C1015 N1016 1.326 . S
C1015 C1019 1.460 . S
C1015 H1021 0.929 . S
N1016 Mn1009 2.257 . S
N1016 C1015 1.326 . S
N1016 C1020 1.362 . S
C1017 C1018 1.258 . S
C1017 C1020 1.431 . S
C1017 C1037 1.449 . S
C1018 C1017 1.258 . S
C1018 C1019 1.477 . S
C1018 H1038 0.931 . S
C1019 C1015 1.460 . S
C1019 C1018 1.477 . S
C1019 H1039 0.930 . S
C1020 N1016 1.362 . S
C1020 C1017 1.431 . S
C1020 C1030 1.476 . S
H1021 C1015 0.929 . S
C1022 O1013 1.250 . S
C1022 O1014 1.258 . S
O1023 Mn1008 2.162 . S
O1023 C1011 1.281 . S
O1024 Mn1008 2.297 . S
O1024 C1011 1.236 . S
N1025 Mn1009 2.282 . S
N1025 C1026 1.328 . S
N1025 C1030 1.318 . S
C1026 N1025 1.328 . S
C1026 C1027 1.457 . S
C1026 H1031 0.929 . S
C1027 C1026 1.457 . S
C1027 C1028 1.291 . S
C1027 H1040 0.931 . S
C1028 C1027 1.291 . S
C1028 C1029 1.373 . S
C1028 H1041 0.929 . S
C1029 C1028 1.373 . S
C1029 C1030 1.396 . S
C1029 C1036 1.403 . S
C1030 C1020 1.476 . S
C1030 N1025 1.318 . S
C1030 C1029 1.396 . S
H1031 C1026 0.929 . S
O1032 Mn1008 2.385 . S
O1032 C1010 1.234 . S
O1033 Mn1008 2.209 . S
O1033 Mn1009 2.215 . S
O1033 C1010 1.283 . S
O1034 Mn1008 2.094 . S
O1034 C1012 1.240 . S
O1035 Mn1009 2.117 . S
O1035 C1012 1.264 . S
C1036 C1029 1.403 . S
C1036 C1037 1.399 . S
C1036 H1042 0.929 . S
C1037 C1017 1.449 . S
C1037 C1036 1.399 . S
C1037 H1043 0.930 . S
H1038 C1018 0.931 . S
H1039 C1019 0.930 . S
H1040 C1027 0.931 . S
H1041 C1028 0.929 . S
H1042 C1036 0.929 . S
H1043 C1037 0.930 . S
Mn1044 O1049 2.095 . S
Mn1044 O1059 2.162 . S
Mn1044 O1060 2.297 . S
Mn1044 O1068 2.385 . S
Mn1044 O1069 2.209 . S
Mn1044 O1070 2.094 . S
Mn1045 O1050 2.121 . S
Mn1045 N1052 2.257 . S
Mn1045 N1061 2.282 . S
Mn1045 O1069 2.215 . S
Mn1045 O1071 2.117 . S
C1046 O1068 1.234 . S
C1046 O1069 1.283 . S
C1047 O1059 1.281 . S
C1047 O1060 1.236 . S
C1048 O1070 1.240 . S
C1048 O1071 1.264 . S
O1049 Mn1044 2.095 . S
O1049 C1058 1.250 . S
O1050 Mn1045 2.121 . S
O1050 C1058 1.258 . S
C1051 N1052 1.326 . S
C1051 C1055 1.460 . S
C1051 H1057 0.929 . S
N1052 Mn1045 2.257 . S
N1052 C1051 1.326 . S
N1052 C1056 1.362 . S
C1053 C1054 1.258 . S
C1053 C1056 1.431 . S
C1053 C1073 1.449 . S
C1054 C1053 1.258 . S
C1054 C1055 1.477 . S
C1054 H1074 0.931 . S
C1055 C1051 1.460 . S
C1055 C1054 1.477 . S
C1055 H1075 0.930 . S
C1056 N1052 1.362 . S
C1056 C1053 1.431 . S
C1056 C1066 1.476 . S
H1057 C1051 0.929 . S
C1058 O1049 1.250 . S
C1058 O1050 1.258 . S
O1059 Mn1044 2.162 . S
O1059 C1047 1.281 . S
O1060 Mn1044 2.297 . S
O1060 C1047 1.236 . S
N1061 Mn1045 2.282 . S
N1061 C1062 1.328 . S
N1061 C1066 1.318 . S
C1062 N1061 1.328 . S
C1062 C1063 1.457 . S
C1062 H1067 0.929 . S
C1063 C1062 1.457 . S
C1063 C1064 1.291 . S
C1063 H1076 0.931 . S
C1064 C1063 1.291 . S
C1064 C1065 1.373 . S
C1064 H1077 0.929 . S
C1065 C1064 1.373 . S
C1065 C1066 1.396 . S
C1065 C1072 1.403 . S
C1066 C1056 1.476 . S
C1066 N1061 1.318 . S
C1066 C1065 1.396 . S
H1067 C1062 0.929 . S
O1068 Mn1044 2.385 . S
O1068 C1046 1.234 . S
O1069 Mn1044 2.209 . S
O1069 Mn1045 2.215 . S
O1069 C1046 1.283 . S
O1070 Mn1044 2.094 . S
O1070 C1048 1.240 . S
O1071 Mn1045 2.117 . S
O1071 C1048 1.264 . S
C1072 C1065 1.403 . S
C1072 C1073 1.399 . S
C1072 H1078 0.929 . S
C1073 C1053 1.449 . S
C1073 C1072 1.399 . S
C1073 H1079 0.930 . S
H1074 C1054 0.931 . S
H1075 C1055 0.930 . S
H1076 C1063 0.931 . S
H1077 C1064 0.929 . S
H1078 C1072 0.929 . S
H1079 C1073 0.930 . S
Mn1080 O1085 2.095 . S
Mn1080 O1095 2.162 . S
Mn1080 O1096 2.297 . S
Mn1080 O1104 2.385 . S
Mn1080 O1105 2.209 . S
Mn1080 O1106 2.094 . S
Mn1081 O1086 2.121 . S
Mn1081 N1088 2.257 . S
Mn1081 N1097 2.282 . S
Mn1081 O1105 2.215 . S
Mn1081 O1107 2.117 . S
C1082 O1104 1.234 . S
C1082 O1105 1.283 . S
C1083 O1095 1.281 . S
C1083 O1096 1.236 . S
C1084 O1106 1.240 . S
C1084 O1107 1.264 . S
O1085 Mn1080 2.095 . S
O1085 C1094 1.250 . S
O1086 Mn1081 2.121 . S
O1086 C1094 1.258 . S
C1087 N1088 1.326 . S
C1087 C1091 1.460 . S
C1087 H1093 0.929 . S
N1088 Mn1081 2.257 . S
N1088 C1087 1.326 . S
N1088 C1092 1.362 . S
C1089 C1090 1.258 . S
C1089 C1092 1.431 . S
C1089 C1109 1.449 . S
C1090 C1089 1.258 . S
C1090 C1091 1.477 . S
C1090 H1110 0.931 . S
C1091 C1087 1.460 . S
C1091 C1090 1.477 . S
C1091 H1111 0.930 . S
C1092 N1088 1.362 . S
C1092 C1089 1.431 . S
C1092 C1102 1.476 . S
H1093 C1087 0.929 . S
C1094 O1085 1.250 . S
C1094 O1086 1.258 . S
O1095 Mn1080 2.162 . S
O1095 C1083 1.281 . S
O1096 Mn1080 2.297 . S
O1096 C1083 1.236 . S
N1097 Mn1081 2.282 . S
N1097 C1098 1.328 . S
N1097 C1102 1.318 . S
C1098 N1097 1.328 . S
C1098 C1099 1.457 . S
C1098 H1103 0.929 . S
C1099 C1098 1.457 . S
C1099 C1100 1.291 . S
C1099 H1112 0.931 . S
C1100 C1099 1.291 . S
C1100 C1101 1.373 . S
C1100 H1113 0.929 . S
C1101 C1100 1.373 . S
C1101 C1102 1.396 . S
C1101 C1108 1.403 . S
C1102 C1092 1.476 . S
C1102 N1097 1.318 . S
C1102 C1101 1.396 . S
H1103 C1098 0.929 . S
O1104 Mn1080 2.385 . S
O1104 C1082 1.234 . S
O1105 Mn1080 2.209 . S
O1105 Mn1081 2.215 . S
O1105 C1082 1.283 . S
O1106 Mn1080 2.094 . S
O1106 C1084 1.240 . S
O1107 Mn1081 2.117 . S
O1107 C1084 1.264 . S
C1108 C1101 1.403 . S
C1108 C1109 1.399 . S
C1108 H1114 0.929 1_455 S
C1109 C1089 1.449 . S
C1109 C1108 1.399 . S
C1109 H1115 0.930 1_455 S
H1110 C1090 0.931 . S
H1111 C1091 0.930 . S
H1112 C1099 0.931 . S
H1113 C1100 0.929 . S
H1114 C1108 0.929 1_655 S
H1115 C1109 0.930 1_655 S
Mn1116 O1121 2.095 . S
Mn1116 O1131 2.162 . S
Mn1116 O1132 2.297 . S
Mn1116 O1140 2.385 . S
Mn1116 O1141 2.209 . S
Mn1116 O1142 2.094 . S
Mn1117 O1122 2.121 . S
Mn1117 N1124 2.257 . S
Mn1117 N1133 2.282 . S
Mn1117 O1141 2.215 . S
Mn1117 O1143 2.117 . S
C1118 O1140 1.234 . S
C1118 O1141 1.283 . S
C1119 O1131 1.281 . S
C1119 O1132 1.236 . S
C1120 O1142 1.240 . S
C1120 O1143 1.264 . S
O1121 Mn1116 2.095 . S
O1121 C1130 1.250 . S
O1122 Mn1117 2.121 . S
O1122 C1130 1.258 . S
C1123 N1124 1.326 . S
C1123 C1127 1.460 . S
C1123 H1129 0.929 . S
N1124 Mn1117 2.257 . S
N1124 C1123 1.326 . S
N1124 C1128 1.362 . S
C1125 C1126 1.258 . S
C1125 C1128 1.431 . S
C1125 C1145 1.449 . S
C1126 C1125 1.258 . S
C1126 C1127 1.477 . S
C1126 H1146 0.931 . S
C1127 C1123 1.460 . S
C1127 C1126 1.477 . S
C1127 H1147 0.930 . S
C1128 N1124 1.362 . S
C1128 C1125 1.431 . S
C1128 C1138 1.476 . S
H1129 C1123 0.929 . S
C1130 O1121 1.250 . S
C1130 O1122 1.258 . S
O1131 Mn1116 2.162 . S
O1131 C1119 1.281 . S
O1132 Mn1116 2.297 . S
O1132 C1119 1.236 . S
N1133 Mn1117 2.282 . S
N1133 C1134 1.328 . S
N1133 C1138 1.318 . S
C1134 N1133 1.328 . S
C1134 C1135 1.457 . S
C1134 H1139 0.929 . S
C1135 C1134 1.457 . S
C1135 C1136 1.291 . S
C1135 H1148 0.931 . S
C1136 C1135 1.291 . S
C1136 C1137 1.373 . S
C1136 H1149 0.929 . S
C1137 C1136 1.373 . S
C1137 C1138 1.396 . S
C1137 C1144 1.403 . S
C1138 C1128 1.476 . S
C1138 N1133 1.318 . S
C1138 C1137 1.396 . S
H1139 C1134 0.929 . S
O1140 Mn1116 2.385 . S
O1140 C1118 1.234 . S
O1141 Mn1116 2.209 . S
O1141 Mn1117 2.215 . S
O1141 C1118 1.283 . S
O1142 Mn1116 2.094 . S
O1142 C1120 1.240 . S
O1143 Mn1117 2.117 . S
O1143 C1120 1.264 . S
C1144 C1137 1.403 . S
C1144 C1145 1.399 . S
C1144 H1150 0.929 . S
C1145 C1125 1.449 . S
C1145 C1144 1.399 . S
C1145 H1151 0.930 . S
H1146 C1126 0.931 . S
H1147 C1127 0.930 . S
H1148 C1135 0.931 . S
H1149 C1136 0.929 . S
H1150 C1144 0.929 . S
H1151 C1145 0.930 . S
H1152 C1158 0.930 . S
H1153 C1162 0.930 . S
H1154 C1167 0.929 . S
H1155 C1165 0.929 . S
H1156 C1160 0.929 . S
H1157 C1166 0.929 . S
C1158 H1152 0.930 . S
C1158 C1159 1.367 . S
C1158 C1166 1.378 . S
C1159 C1158 1.367 . S
C1159 C1167 1.433 . S
C1160 H1156 0.929 . S
C1160 C1162 1.378 . S
C1160 C1164 1.350 . S
C1161 C1164 1.463 . S
C1161 C1166 1.350 . S
C1161 N1169 1.427 . S
C1162 H1153 0.930 . S
C1162 C1160 1.378 . S
C1162 C1163 1.367 . S
C1163 C1162 1.367 . S
C1163 C1165 1.433 . S
C1164 C1160 1.350 . S
C1164 C1161 1.463 . S
C1164 N1168 1.427 . S
C1165 H1155 0.929 . S
C1165 C1163 1.433 . S
C1165 N1168 1.384 . S
C1166 H1157 0.929 . S
C1166 C1158 1.378 . S
C1166 C1161 1.350 . S
C1167 H1154 0.929 . S
C1167 C1159 1.433 . S
C1167 N1169 1.384 . S
N1168 C1164 1.427 . S
N1168 C1165 1.384 . S
N1169 C1161 1.427 . S
N1169 C1167 1.384 . S
H1170 C1176 0.930 . S
H1171 C1180 0.930 . S
H1172 C1185 0.929 . S
H1173 C1183 0.929 . S
H1174 C1178 0.929 . S
H1175 C1184 0.929 . S
C1176 H1170 0.930 . S
C1176 C1177 1.367 . S
C1176 C1184 1.378 . S
C1177 C1176 1.367 . S
C1177 C1185 1.433 . S
C1178 H1174 0.929 . S
C1178 C1180 1.378 . S
C1178 C1182 1.350 . S
C1179 C1182 1.463 . S
C1179 C1184 1.350 . S
C1179 N1187 1.427 . S
C1180 H1171 0.930 . S
C1180 C1178 1.378 . S
C1180 C1181 1.367 . S
C1181 C1180 1.367 . S
C1181 C1183 1.433 . S
C1182 C1178 1.350 . S
C1182 C1179 1.463 . S
C1182 N1186 1.427 . S
C1183 H1173 0.929 . S
C1183 C1181 1.433 . S
C1183 N1186 1.384 . S
C1184 H1175 0.929 . S
C1184 C1176 1.378 . S
C1184 C1179 1.350 . S
C1185 H1172 0.929 . S
C1185 C1177 1.433 . S
C1185 N1187 1.384 . S
N1186 C1182 1.427 . S
N1186 C1183 1.384 . S
N1187 C1179 1.427 . S
N1187 C1185 1.384 . S
H1188 C1194 0.930 . S
H1189 C1198 0.930 . S
H1190 C1203 0.929 . S
H1191 C1201 0.929 . S
H1192 C1196 0.929 . S
H1193 C1202 0.929 . S
C1194 H1188 0.930 . S
C1194 C1195 1.367 . S
C1194 C1202 1.378 . S
C1195 C1194 1.367 . S
C1195 C1203 1.433 . S
C1196 H1192 0.929 . S
C1196 C1198 1.378 . S
C1196 C1200 1.350 . S
C1197 C1200 1.463 . S
C1197 C1202 1.350 . S
C1197 N1205 1.427 . S
C1198 H1189 0.930 . S
C1198 C1196 1.378 . S
C1198 C1199 1.367 . S
C1199 C1198 1.367 . S
C1199 C1201 1.433 . S
C1200 C1196 1.350 . S
C1200 C1197 1.463 . S
C1200 N1204 1.427 . S
C1201 H1191 0.929 . S
C1201 C1199 1.433 . S
C1201 N1204 1.384 . S
C1202 H1193 0.929 . S
C1202 C1194 1.378 . S
C1202 C1197 1.350 . S
C1203 H1190 0.929 . S
C1203 C1195 1.433 . S
C1203 N1205 1.384 . S
N1204 C1200 1.427 . S
N1204 C1201 1.384 . S
N1205 C1197 1.427 . S
N1205 C1203 1.384 . S
H1206 C1212 0.930 . S
H1207 C1216 0.930 . S
H1208 C1221 0.929 . S
H1209 C1219 0.929 . S
H1210 C1214 0.929 . S
H1211 C1220 0.929 . S
C1212 H1206 0.930 . S
C1212 C1213 1.367 . S
C1212 C1220 1.378 . S
C1213 C1212 1.367 . S
C1213 C1221 1.433 . S
C1214 H1210 0.929 . S
C1214 C1216 1.378 . S
C1214 C1218 1.350 . S
C1215 C1218 1.463 . S
C1215 C1220 1.350 . S
C1215 N1223 1.427 . S
C1216 H1207 0.930 . S
C1216 C1214 1.378 . S
C1216 C1217 1.367 . S
C1217 C1216 1.367 . S
C1217 C1219 1.433 . S
C1218 C1214 1.350 . S
C1218 C1215 1.463 . S
C1218 N1222 1.427 . S
C1219 H1209 0.929 . S
C1219 C1217 1.433 . S
C1219 N1222 1.384 . S
C1220 H1211 0.929 . S
C1220 C1212 1.378 . S
C1220 C1215 1.350 . S
C1221 H1208 0.929 . S
C1221 C1213 1.433 . S
C1221 N1223 1.384 . S
N1222 C1218 1.427 . S
N1222 C1219 1.384 . S
N1223 C1215 1.427 . S
N1223 C1221 1.384 . S
H1224 C1230 0.930 . S
H1225 C1234 0.930 . S
H1226 C1239 0.929 . S
H1227 C1237 0.929 . S
H1228 C1232 0.929 . S
H1229 C1238 0.929 . S
C1230 H1224 0.930 . S
C1230 C1231 1.367 . S
C1230 C1238 1.378 . S
C1231 C1230 1.367 . S
C1231 C1239 1.433 . S
C1232 H1228 0.929 . S
C1232 C1234 1.378 . S
C1232 C1236 1.350 . S
C1233 C1236 1.463 . S
C1233 C1238 1.350 . S
C1233 N1241 1.427 . S
C1234 H1225 0.930 . S
C1234 C1232 1.378 . S
C1234 C1235 1.367 . S
C1235 C1234 1.367 . S
C1235 C1237 1.433 . S
C1236 C1232 1.350 . S
C1236 C1233 1.463 . S
C1236 N1240 1.427 . S
C1237 H1227 0.929 . S
C1237 C1235 1.433 . S
C1237 N1240 1.384 . S
C1238 H1229 0.929 . S
C1238 C1230 1.378 . S
C1238 C1233 1.350 . S
C1239 H1226 0.929 . S
C1239 C1231 1.433 . S
C1239 N1241 1.384 . S
N1240 C1236 1.427 . S
N1240 C1237 1.384 . S
N1241 C1233 1.427 . S
N1241 C1239 1.384 . S
H1242 C1248 0.930 . S
H1243 C1252 0.930 . S
H1244 C1257 0.929 . S
H1245 C1255 0.929 . S
H1246 C1250 0.929 . S
H1247 C1256 0.929 . S
C1248 H1242 0.930 . S
C1248 C1249 1.367 . S
C1248 C1256 1.378 . S
C1249 C1248 1.367 . S
C1249 C1257 1.433 . S
C1250 H1246 0.929 . S
C1250 C1252 1.378 . S
C1250 C1254 1.350 . S
C1251 C1254 1.463 . S
C1251 C1256 1.350 . S
C1251 N1259 1.427 . S
C1252 H1243 0.930 . S
C1252 C1250 1.378 . S
C1252 C1253 1.367 . S
C1253 C1252 1.367 . S
C1253 C1255 1.433 . S
C1254 C1250 1.350 . S
C1254 C1251 1.463 . S
C1254 N1258 1.427 . S
C1255 H1245 0.929 . S
C1255 C1253 1.433 . S
C1255 N1258 1.384 . S
C1256 H1247 0.929 . S
C1256 C1248 1.378 . S
C1256 C1251 1.350 . S
C1257 H1244 0.929 . S
C1257 C1249 1.433 . S
C1257 N1259 1.384 . S
N1258 C1254 1.427 . S
N1258 C1255 1.384 . S
N1259 C1251 1.427 . S
N1259 C1257 1.384 . S
H1260 C1266 0.930 . S
H1261 C1270 0.930 . S
H1262 C1275 0.929 . S
H1263 C1273 0.929 . S
H1264 C1268 0.929 . S
H1265 C1274 0.929 . S
C1266 H1260 0.930 . S
C1266 C1267 1.367 . S
C1266 C1274 1.378 . S
C1267 C1266 1.367 . S
C1267 C1275 1.433 . S
C1268 H1264 0.929 . S
C1268 C1270 1.378 . S
C1268 C1272 1.350 . S
C1269 C1272 1.463 . S
C1269 C1274 1.350 . S
C1269 N1277 1.427 . S
C1270 H1261 0.930 . S
C1270 C1268 1.378 . S
C1270 C1271 1.367 . S
C1271 C1270 1.367 . S
C1271 C1273 1.433 . S
C1272 C1268 1.350 . S
C1272 C1269 1.463 . S
C1272 N1276 1.427 . S
C1273 H1263 0.929 . S
C1273 C1271 1.433 . S
C1273 N1276 1.384 . S
C1274 H1265 0.929 . S
C1274 C1266 1.378 . S
C1274 C1269 1.350 . S
C1275 H1262 0.929 . S
C1275 C1267 1.433 . S
C1275 N1277 1.384 . S
N1276 C1272 1.427 . S
N1276 C1273 1.384 . S
N1277 C1269 1.427 . S
N1277 C1275 1.384 . S
H1278 C1284 0.930 . S
H1279 C1288 0.930 . S
H1280 C1293 0.929 . S
H1281 C1291 0.929 . S
H1282 C1286 0.929 . S
H1283 C1292 0.929 . S
C1284 H1278 0.930 . S
C1284 C1285 1.367 . S
C1284 C1292 1.378 . S
C1285 C1284 1.367 . S
C1285 C1293 1.433 . S
C1286 H1282 0.929 . S
C1286 C1288 1.378 . S
C1286 C1290 1.350 . S
C1287 C1290 1.463 . S
C1287 C1292 1.350 . S
C1287 N1295 1.427 . S
C1288 H1279 0.930 . S
C1288 C1286 1.378 . S
C1288 C1289 1.367 . S
C1289 C1288 1.367 . S
C1289 C1291 1.433 . S
C1290 C1286 1.350 . S
C1290 C1287 1.463 . S
C1290 N1294 1.427 . S
C1291 H1281 0.929 . S
C1291 C1289 1.433 . S
C1291 N1294 1.384 . S
C1292 H1283 0.929 . S
C1292 C1284 1.378 . S
C1292 C1287 1.350 . S
C1293 H1280 0.929 . S
C1293 C1285 1.433 . S
C1293 N1295 1.384 . S
N1294 C1290 1.427 . S
N1294 C1291 1.384 . S
N1295 C1287 1.427 . S
N1295 C1293 1.384 . S
H1296 C1302 0.930 . S
H1297 C1306 0.930 . S
H1298 C1311 0.929 . S
H1299 C1309 0.929 . S
H1300 C1304 0.929 . S
H1301 C1310 0.929 . S
C1302 H1296 0.930 . S
C1302 C1303 1.367 . S
C1302 C1310 1.378 . S
C1303 C1302 1.367 . S
C1303 C1311 1.433 . S
C1304 H1300 0.929 . S
C1304 C1306 1.378 . S
C1304 C1308 1.350 . S
C1305 C1308 1.463 . S
C1305 C1310 1.350 . S
C1305 N1313 1.427 . S
C1306 H1297 0.930 . S
C1306 C1304 1.378 . S
C1306 C1307 1.367 . S
C1307 C1306 1.367 . S
C1307 C1309 1.433 . S
C1308 C1304 1.350 . S
C1308 C1305 1.463 . S
C1308 N1312 1.427 . S
C1309 H1299 0.929 . S
C1309 C1307 1.433 . S
C1309 N1312 1.384 . S
C1310 H1301 0.929 . S
C1310 C1302 1.378 . S
C1310 C1305 1.350 . S
C1311 H1298 0.929 . S
C1311 C1303 1.433 . S
C1311 N1313 1.384 . S
N1312 C1308 1.427 . S
N1312 C1309 1.384 . S
N1313 C1305 1.427 . S
N1313 C1311 1.384 . S
H1314 C1320 0.930 . S
H1315 C1324 0.930 . S
H1316 C1329 0.929 . S
H1317 C1327 0.929 . S
H1318 C1322 0.929 . S
H1319 C1328 0.929 . S
C1320 H1314 0.930 . S
C1320 C1321 1.367 . S
C1320 C1328 1.378 . S
C1321 C1320 1.367 . S
C1321 C1329 1.433 . S
C1322 H1318 0.929 . S
C1322 C1324 1.378 . S
C1322 C1326 1.350 . S
C1323 C1326 1.463 . S
C1323 C1328 1.350 . S
C1323 N1331 1.427 . S
C1324 H1315 0.930 . S
C1324 C1322 1.378 . S
C1324 C1325 1.367 . S
C1325 C1324 1.367 . S
C1325 C1327 1.433 . S
C1326 C1322 1.350 . S
C1326 C1323 1.463 . S
C1326 N1330 1.427 . S
C1327 H1317 0.929 . S
C1327 C1325 1.433 . S
C1327 N1330 1.384 . S
C1328 H1319 0.929 . S
C1328 C1320 1.378 . S
C1328 C1323 1.350 . S
C1329 H1316 0.929 . S
C1329 C1321 1.433 . S
C1329 N1331 1.384 . S
N1330 C1326 1.427 . S
N1330 C1327 1.384 . S
N1331 C1323 1.427 . S
N1331 C1329 1.384 . S
H1332 C1338 0.930 . S
H1333 C1342 0.930 . S
H1334 C1347 0.929 . S
H1335 C1345 0.929 . S
H1336 C1340 0.929 . S
H1337 C1346 0.929 . S
C1338 H1332 0.930 . S
C1338 C1339 1.367 . S
C1338 C1346 1.378 . S
C1339 C1338 1.367 . S
C1339 C1347 1.433 . S
C1340 H1336 0.929 . S
C1340 C1342 1.378 . S
C1340 C1344 1.350 . S
C1341 C1344 1.463 . S
C1341 C1346 1.350 . S
C1341 N1349 1.427 . S
C1342 H1333 0.930 . S
C1342 C1340 1.378 . S
C1342 C1343 1.367 . S
C1343 C1342 1.367 . S
C1343 C1345 1.433 . S
C1344 C1340 1.350 . S
C1344 C1341 1.463 . S
C1344 N1348 1.427 . S
C1345 H1335 0.929 . S
C1345 C1343 1.433 . S
C1345 N1348 1.384 . S
C1346 H1337 0.929 . S
C1346 C1338 1.378 . S
C1346 C1341 1.350 . S
C1347 H1334 0.929 . S
C1347 C1339 1.433 . S
C1347 N1349 1.384 . S
N1348 C1344 1.427 . S
N1348 C1345 1.384 . S
N1349 C1341 1.427 . S
N1349 C1347 1.384 . S
H1350 C1356 0.930 . S
H1351 C1360 0.930 . S
H1352 C1365 0.929 . S
H1353 C1363 0.929 . S
H1354 C1358 0.929 . S
H1355 C1364 0.929 . S
C1356 H1350 0.930 . S
C1356 C1357 1.367 . S
C1356 C1364 1.378 . S
C1357 C1356 1.367 . S
C1357 C1365 1.433 . S
C1358 H1354 0.929 . S
C1358 C1360 1.378 . S
C1358 C1362 1.350 . S
C1359 C1362 1.463 . S
C1359 C1364 1.350 . S
C1359 N1367 1.427 . S
C1360 H1351 0.930 . S
C1360 C1358 1.378 . S
C1360 C1361 1.367 . S
C1361 C1360 1.367 . S
C1361 C1363 1.433 . S
C1362 C1358 1.350 . S
C1362 C1359 1.463 . S
C1362 N1366 1.427 . S
C1363 H1353 0.929 . S
C1363 C1361 1.433 . S
C1363 N1366 1.384 . S
C1364 H1355 0.929 . S
C1364 C1356 1.378 . S
C1364 C1359 1.350 . S
C1365 H1352 0.929 . S
C1365 C1357 1.433 . S
C1365 N1367 1.384 . S
N1366 C1362 1.427 . S
N1366 C1363 1.384 . S
N1367 C1359 1.427 . S
N1367 C1365 1.384 . S
H1368 C1374 0.930 . S
H1369 C1378 0.930 . S
H1370 C1383 0.929 . S
H1371 C1381 0.929 . S
H1372 C1376 0.929 . S
H1373 C1382 0.929 . S
C1374 H1368 0.930 . S
C1374 C1375 1.367 . S
C1374 C1382 1.378 . S
C1375 C1374 1.367 . S
C1375 C1383 1.433 . S
C1376 H1372 0.929 . S
C1376 C1378 1.378 . S
C1376 C1380 1.350 . S
C1377 C1380 1.463 . S
C1377 C1382 1.350 . S
C1377 N1385 1.427 . S
C1378 H1369 0.930 . S
C1378 C1376 1.378 . S
C1378 C1379 1.367 . S
C1379 C1378 1.367 . S
C1379 C1381 1.433 . S
C1380 C1376 1.350 . S
C1380 C1377 1.463 . S
C1380 N1384 1.427 . S
C1381 H1371 0.929 . S
C1381 C1379 1.433 . S
C1381 N1384 1.384 . S
C1382 H1373 0.929 . S
C1382 C1374 1.378 . S
C1382 C1377 1.350 . S
C1383 H1370 0.929 . S
C1383 C1375 1.433 . S
C1383 N1385 1.384 . S
N1384 C1380 1.427 . S
N1384 C1381 1.384 . S
N1385 C1377 1.427 . S
N1385 C1383 1.384 . S
H1386 C1392 0.930 . S
H1387 C1396 0.930 . S
H1388 C1401 0.929 . S
H1389 C1399 0.929 . S
H1390 C1394 0.929 . S
H1391 C1400 0.929 . S
C1392 H1386 0.930 . S
C1392 C1393 1.367 . S
C1392 C1400 1.378 . S
C1393 C1392 1.367 . S
C1393 C1401 1.433 . S
C1394 H1390 0.929 . S
C1394 C1396 1.378 . S
C1394 C1398 1.350 . S
C1395 C1398 1.463 . S
C1395 C1400 1.350 . S
C1395 N1403 1.427 . S
C1396 H1387 0.930 . S
C1396 C1394 1.378 . S
C1396 C1397 1.367 . S
C1397 C1396 1.367 . S
C1397 C1399 1.433 . S
C1398 C1394 1.350 . S
C1398 C1395 1.463 . S
C1398 N1402 1.427 . S
C1399 H1389 0.929 . S
C1399 C1397 1.433 . S
C1399 N1402 1.384 . S
C1400 H1391 0.929 . S
C1400 C1392 1.378 . S
C1400 C1395 1.350 . S
C1401 H1388 0.929 . S
C1401 C1393 1.433 . S
C1401 N1403 1.384 . S
N1402 C1398 1.427 . S
N1402 C1399 1.384 . S
N1403 C1395 1.427 . S
N1403 C1401 1.384 . S
H1404 C1410 0.930 . S
H1405 C1414 0.930 . S
H1406 C1419 0.929 . S
H1407 C1417 0.929 . S
H1408 C1412 0.929 . S
H1409 C1418 0.929 . S
C1410 H1404 0.930 . S
C1410 C1411 1.367 . S
C1410 C1418 1.378 . S
C1411 C1410 1.367 . S
C1411 C1419 1.433 . S
C1412 H1408 0.929 . S
C1412 C1414 1.378 . S
C1412 C1416 1.350 . S
C1413 C1416 1.463 . S
C1413 C1418 1.350 . S
C1413 N1421 1.427 . S
C1414 H1405 0.930 . S
C1414 C1412 1.378 . S
C1414 C1415 1.367 . S
C1415 C1414 1.367 . S
C1415 C1417 1.433 . S
C1416 C1412 1.350 . S
C1416 C1413 1.463 . S
C1416 N1420 1.427 . S
C1417 H1407 0.929 . S
C1417 C1415 1.433 . S
C1417 N1420 1.384 . S
C1418 H1409 0.929 . S
C1418 C1410 1.378 . S
C1418 C1413 1.350 . S
C1419 H1406 0.929 . S
C1419 C1411 1.433 . S
C1419 N1421 1.384 . S
N1420 C1416 1.427 . S
N1420 C1417 1.384 . S
N1421 C1413 1.427 . S
N1421 C1419 1.384 . S
H1422 C1428 0.930 . S
H1423 C1432 0.930 . S
H1424 C1437 0.929 . S
H1425 C1435 0.929 . S
H1426 C1430 0.929 . S
H1427 C1436 0.929 . S
C1428 H1422 0.930 . S
C1428 C1429 1.367 . S
C1428 C1436 1.378 . S
C1429 C1428 1.367 . S
C1429 C1437 1.433 . S
C1430 H1426 0.929 . S
C1430 C1432 1.378 . S
C1430 C1434 1.350 . S
C1431 C1434 1.463 . S
C1431 C1436 1.350 . S
C1431 N1439 1.427 . S
C1432 H1423 0.930 . S
C1432 C1430 1.378 . S
C1432 C1433 1.367 . S
C1433 C1432 1.367 . S
C1433 C1435 1.433 . S
C1434 C1430 1.350 . S
C1434 C1431 1.463 . S
C1434 N1438 1.427 . S
C1435 H1425 0.929 . S
C1435 C1433 1.433 . S
C1435 N1438 1.384 . S
C1436 H1427 0.929 . S
C1436 C1428 1.378 . S
C1436 C1431 1.350 . S
C1437 H1424 0.929 . S
C1437 C1429 1.433 . S
C1437 N1439 1.384 . S
N1438 C1434 1.427 . S
N1438 C1435 1.384 . S
N1439 C1431 1.427 . S
N1439 C1437 1.384 . S
H1440 C1446 0.930 . S
H1441 C1450 0.930 . S
H1442 C1455 0.929 . S
H1443 C1453 0.929 . S
H1444 C1448 0.929 . S
H1445 C1454 0.929 . S
C1446 H1440 0.930 . S
C1446 C1447 1.367 . S
C1446 C1454 1.378 . S
C1447 C1446 1.367 . S
C1447 C1455 1.433 . S
C1448 H1444 0.929 . S
C1448 C1450 1.378 . S
C1448 C1452 1.350 . S
C1449 C1452 1.463 1_455 S
C1449 C1454 1.350 . S
C1449 N1457 1.427 . S
C1450 H1441 0.930 . S
C1450 C1448 1.378 . S
C1450 C1451 1.367 . S
C1451 C1450 1.367 . S
C1451 C1453 1.433 . S
C1452 C1448 1.350 . S
C1452 C1449 1.463 1_655 S
C1452 N1456 1.427 . S
C1453 H1443 0.929 . S
C1453 C1451 1.433 . S
C1453 N1456 1.384 . S
C1454 H1445 0.929 . S
C1454 C1446 1.378 . S
C1454 C1449 1.350 . S
C1455 H1442 0.929 . S
C1455 C1447 1.433 . S
C1455 N1457 1.384 . S
N1456 C1452 1.427 . S
N1456 C1453 1.384 . S
N1457 C1449 1.427 . S
N1457 C1455 1.384 . S
H1458 C1464 0.930 . S
H1459 C1468 0.930 . S
H1460 C1473 0.929 . S
H1461 C1471 0.929 . S
H1462 C1466 0.929 . S
H1463 C1472 0.929 . S
C1464 H1458 0.930 . S
C1464 C1465 1.367 . S
C1464 C1472 1.378 . S
C1465 C1464 1.367 . S
C1465 C1473 1.433 . S
C1466 H1462 0.929 . S
C1466 C1468 1.378 . S
C1466 C1470 1.350 . S
C1467 C1470 1.463 . S
C1467 C1472 1.350 . S
C1467 N1475 1.427 . S
C1468 H1459 0.930 . S
C1468 C1466 1.378 . S
C1468 C1469 1.367 . S
C1469 C1468 1.367 . S
C1469 C1471 1.433 . S
C1470 C1466 1.350 . S
C1470 C1467 1.463 . S
C1470 N1474 1.427 . S
C1471 H1461 0.929 . S
C1471 C1469 1.433 . S
C1471 N1474 1.384 . S
C1472 H1463 0.929 . S
C1472 C1464 1.378 . S
C1472 C1467 1.350 . S
C1473 H1460 0.929 . S
C1473 C1465 1.433 . S
C1473 N1475 1.384 . S
N1474 C1470 1.427 . S
N1474 C1471 1.384 . S
N1475 C1467 1.427 . S
N1475 C1473 1.384 . S
H1476 C1482 0.930 . S
H1477 C1486 0.930 . S
H1478 C1491 0.929 . S
H1479 C1489 0.929 . S
H1480 C1484 0.929 . S
H1481 C1490 0.929 . S
C1482 H1476 0.930 . S
C1482 C1483 1.367 . S
C1482 C1490 1.378 . S
C1483 C1482 1.367 . S
C1483 C1491 1.433 . S
C1484 H1480 0.929 . S
C1484 C1486 1.378 . S
C1484 C1488 1.350 . S
C1485 C1488 1.463 . S
C1485 C1490 1.350 . S
C1485 N1493 1.427 . S
C1486 H1477 0.930 . S
C1486 C1484 1.378 . S
C1486 C1487 1.367 . S
C1487 C1486 1.367 . S
C1487 C1489 1.433 . S
C1488 C1484 1.350 . S
C1488 C1485 1.463 . S
C1488 N1492 1.427 . S
C1489 H1479 0.929 . S
C1489 C1487 1.433 . S
C1489 N1492 1.384 . S
C1490 H1481 0.929 . S
C1490 C1482 1.378 . S
C1490 C1485 1.350 . S
C1491 H1478 0.929 . S
C1491 C1483 1.433 . S
C1491 N1493 1.384 . S
N1492 C1488 1.427 . S
N1492 C1489 1.384 . S
N1493 C1485 1.427 . S
N1493 C1491 1.384 . S
H1494 C1500 0.930 . S
H1495 C1504 0.930 . S
H1496 C1509 0.929 . S
H1497 C1507 0.929 . S
H1498 C1502 0.929 . S
H1499 C1508 0.929 . S
C1500 H1494 0.930 . S
C1500 C1501 1.367 . S
C1500 C1508 1.378 . S
C1501 C1500 1.367 . S
C1501 C1509 1.433 . S
C1502 H1498 0.929 . S
C1502 C1504 1.378 . S
C1502 C1506 1.350 . S
C1503 C1506 1.463 . S
C1503 C1508 1.350 . S
C1503 N1511 1.427 . S
C1504 H1495 0.930 . S
C1504 C1502 1.378 . S
C1504 C1505 1.367 . S
C1505 C1504 1.367 . S
C1505 C1507 1.433 . S
C1506 C1502 1.350 . S
C1506 C1503 1.463 . S
C1506 N1510 1.427 . S
C1507 H1497 0.929 . S
C1507 C1505 1.433 . S
C1507 N1510 1.384 . S
C1508 H1499 0.929 . S
C1508 C1500 1.378 . S
C1508 C1503 1.350 . S
C1509 H1496 0.929 . S
C1509 C1501 1.433 . S
C1509 N1511 1.384 . S
N1510 C1506 1.427 . S
N1510 C1507 1.384 . S
N1511 C1503 1.427 . S
N1511 C1509 1.384 . S
H1512 C1518 0.930 . S
H1513 C1522 0.930 . S
H1514 C1527 0.929 . S
H1515 C1525 0.929 . S
H1516 C1520 0.929 . S
H1517 C1526 0.929 . S
C1518 H1512 0.930 . S
C1518 C1519 1.367 . S
C1518 C1526 1.378 . S
C1519 C1518 1.367 . S
C1519 C1527 1.433 . S
C1520 H1516 0.929 . S
C1520 C1522 1.378 . S
C1520 C1524 1.350 . S
C1521 C1524 1.463 1_655 S
C1521 C1526 1.350 . S
C1521 N1529 1.427 . S
C1522 H1513 0.930 . S
C1522 C1520 1.378 . S
C1522 C1523 1.367 . S
C1523 C1522 1.367 . S
C1523 C1525 1.433 . S
C1524 C1520 1.350 . S
C1524 C1521 1.463 1_455 S
C1524 N1528 1.427 . S
C1525 H1515 0.929 . S
C1525 C1523 1.433 . S
C1525 N1528 1.384 . S
C1526 H1517 0.929 . S
C1526 C1518 1.378 . S
C1526 C1521 1.350 . S
C1527 H1514 0.929 . S
C1527 C1519 1.433 . S
C1527 N1529 1.384 . S
N1528 C1524 1.427 . S
N1528 C1525 1.384 . S
N1529 C1521 1.427 . S
N1529 C1527 1.384 . S
H1530 C1536 0.930 . S
H1531 C1540 0.930 . S
H1532 C1545 0.929 . S
H1533 C1543 0.929 . S
H1534 C1538 0.929 . S
H1535 C1544 0.929 . S
C1536 H1530 0.930 . S
C1536 C1537 1.367 . S
C1536 C1544 1.378 . S
C1537 C1536 1.367 . S
C1537 C1545 1.433 . S
C1538 H1534 0.929 . S
C1538 C1540 1.378 . S
C1538 C1542 1.350 . S
C1539 C1542 1.463 . S
C1539 C1544 1.350 . S
C1539 N1547 1.427 . S
C1540 H1531 0.930 . S
C1540 C1538 1.378 . S
C1540 C1541 1.367 . S
C1541 C1540 1.367 . S
C1541 C1543 1.433 . S
C1542 C1538 1.350 . S
C1542 C1539 1.463 . S
C1542 N1546 1.427 . S
C1543 H1533 0.929 . S
C1543 C1541 1.433 . S
C1543 N1546 1.384 . S
C1544 H1535 0.929 . S
C1544 C1536 1.378 . S
C1544 C1539 1.350 . S
C1545 H1532 0.929 . S
C1545 C1537 1.433 . S
C1545 N1547 1.384 . S
N1546 C1542 1.427 . S
N1546 C1543 1.384 . S
N1547 C1539 1.427 . S
N1547 C1545 1.384 . S
H1548 C1554 0.930 . S
H1549 C1558 0.930 . S
H1550 C1563 0.929 . S
H1551 C1561 0.929 . S
H1552 C1556 0.929 . S
H1553 C1562 0.929 . S
C1554 H1548 0.930 . S
C1554 C1555 1.367 . S
C1554 C1562 1.378 . S
C1555 C1554 1.367 . S
C1555 C1563 1.433 . S
C1556 H1552 0.929 . S
C1556 C1558 1.378 . S
C1556 C1560 1.350 . S
C1557 C1560 1.463 . S
C1557 C1562 1.350 . S
C1557 N1565 1.427 . S
C1558 H1549 0.930 . S
C1558 C1556 1.378 . S
C1558 C1559 1.367 . S
C1559 C1558 1.367 . S
C1559 C1561 1.433 . S
C1560 C1556 1.350 . S
C1560 C1557 1.463 . S
C1560 N1564 1.427 . S
C1561 H1551 0.929 . S
C1561 C1559 1.433 . S
C1561 N1564 1.384 . S
C1562 H1553 0.929 . S
C1562 C1554 1.378 . S
C1562 C1557 1.350 . S
C1563 H1550 0.929 . S
C1563 C1555 1.433 . S
C1563 N1565 1.384 . S
N1564 C1560 1.427 . S
N1564 C1561 1.384 . S
N1565 C1557 1.427 . S
N1565 C1563 1.384 . S
H1566 C1572 0.930 . S
H1567 C1576 0.930 . S
H1568 C1581 0.929 . S
H1569 C1579 0.929 . S
H1570 C1574 0.929 . S
H1571 C1580 0.929 . S
C1572 H1566 0.930 . S
C1572 C1573 1.367 . S
C1572 C1580 1.378 . S
C1573 C1572 1.367 . S
C1573 C1581 1.433 . S
C1574 H1570 0.929 . S
C1574 C1576 1.378 . S
C1574 C1578 1.350 . S
C1575 C1578 1.463 . S
C1575 C1580 1.350 . S
C1575 N1583 1.427 . S
C1576 H1567 0.930 . S
C1576 C1574 1.378 . S
C1576 C1577 1.367 . S
C1577 C1576 1.367 . S
C1577 C1579 1.433 . S
C1578 C1574 1.350 . S
C1578 C1575 1.463 . S
C1578 N1582 1.427 . S
C1579 H1569 0.929 . S
C1579 C1577 1.433 . S
C1579 N1582 1.384 . S
C1580 H1571 0.929 . S
C1580 C1572 1.378 . S
C1580 C1575 1.350 . S
C1581 H1568 0.929 . S
C1581 C1573 1.433 . S
C1581 N1583 1.384 . S
N1582 C1578 1.427 . S
N1582 C1579 1.384 . S
N1583 C1575 1.427 . S
N1583 C1581 1.384 . S
H1584 C1590 0.930 . S
H1585 C1594 0.930 . S
H1586 C1599 0.929 . S
H1587 C1597 0.929 . S
H1588 C1592 0.929 . S
H1589 C1598 0.929 . S
C1590 H1584 0.930 . S
C1590 C1591 1.367 . S
C1590 C1598 1.378 . S
C1591 C1590 1.367 . S
C1591 C1599 1.433 . S
C1592 H1588 0.929 . S
C1592 C1594 1.378 . S
C1592 C1596 1.350 . S
C1593 C1596 1.463 . S
C1593 C1598 1.350 . S
C1593 N1601 1.427 . S
C1594 H1585 0.930 . S
C1594 C1592 1.378 . S
C1594 C1595 1.367 . S
C1595 C1594 1.367 . S
C1595 C1597 1.433 . S
C1596 C1592 1.350 . S
C1596 C1593 1.463 . S
C1596 N1600 1.427 . S
C1597 H1587 0.929 . S
C1597 C1595 1.433 . S
C1597 N1600 1.384 . S
C1598 H1589 0.929 . S
C1598 C1590 1.378 . S
C1598 C1593 1.350 . S
C1599 H1586 0.929 . S
C1599 C1591 1.433 . S
C1599 N1601 1.384 . S
N1600 C1596 1.427 . S
N1600 C1597 1.384 . S
N1601 C1593 1.427 . S
N1601 C1599 1.384 . S
H1602 C1608 0.930 . S
H1603 C1612 0.930 . S
H1604 C1617 0.929 . S
H1605 C1615 0.929 . S
H1606 C1610 0.929 . S
H1607 C1616 0.929 . S
C1608 H1602 0.930 . S
C1608 C1609 1.367 . S
C1608 C1616 1.378 . S
C1609 C1608 1.367 . S
C1609 C1617 1.433 . S
C1610 H1606 0.929 . S
C1610 C1612 1.378 . S
C1610 C1614 1.350 . S
C1611 C1614 1.463 . S
C1611 C1616 1.350 . S
C1611 N1619 1.427 . S
C1612 H1603 0.930 . S
C1612 C1610 1.378 . S
C1612 C1613 1.367 . S
C1613 C1612 1.367 . S
C1613 C1615 1.433 . S
C1614 C1610 1.350 . S
C1614 C1611 1.463 . S
C1614 N1618 1.427 . S
C1615 H1605 0.929 . S
C1615 C1613 1.433 . S
C1615 N1618 1.384 . S
C1616 H1607 0.929 . S
C1616 C1608 1.378 . S
C1616 C1611 1.350 . S
C1617 H1604 0.929 . S
C1617 C1609 1.433 . S
C1617 N1619 1.384 . S
N1618 C1614 1.427 . S
N1618 C1615 1.384 . S
N1619 C1611 1.427 . S
N1619 C1617 1.384 . S
H1620 C1626 0.930 . S
H1621 C1630 0.930 . S
H1622 C1635 0.929 . S
H1623 C1633 0.929 . S
H1624 C1628 0.929 . S
H1625 C1634 0.929 . S
C1626 H1620 0.930 . S
C1626 C1627 1.367 . S
C1626 C1634 1.378 . S
C1627 C1626 1.367 . S
C1627 C1635 1.433 . S
C1628 H1624 0.929 . S
C1628 C1630 1.378 . S
C1628 C1632 1.350 . S
C1629 C1632 1.463 . S
C1629 C1634 1.350 . S
C1629 N1637 1.427 . S
C1630 H1621 0.930 . S
C1630 C1628 1.378 . S
C1630 C1631 1.367 . S
C1631 C1630 1.367 . S
C1631 C1633 1.433 . S
C1632 C1628 1.350 . S
C1632 C1629 1.463 . S
C1632 N1636 1.427 . S
C1633 H1623 0.929 . S
C1633 C1631 1.433 . S
C1633 N1636 1.384 . S
C1634 H1625 0.929 . S
C1634 C1626 1.378 . S
C1634 C1629 1.350 . S
C1635 H1622 0.929 . S
C1635 C1627 1.433 . S
C1635 N1637 1.384 . S
N1636 C1632 1.427 . S
N1636 C1633 1.384 . S
N1637 C1629 1.427 . S
N1637 C1635 1.384 . S
H1638 C1644 0.930 . S
H1639 C1648 0.930 . S
H1640 C1653 0.929 . S
H1641 C1651 0.929 . S
H1642 C1646 0.929 . S
H1643 C1652 0.929 . S
C1644 H1638 0.930 . S
C1644 C1645 1.367 . S
C1644 C1652 1.378 . S
C1645 C1644 1.367 . S
C1645 C1653 1.433 . S
C1646 H1642 0.929 . S
C1646 C1648 1.378 . S
C1646 C1650 1.350 . S
C1647 C1650 1.463 . S
C1647 C1652 1.350 . S
C1647 N1655 1.427 . S
C1648 H1639 0.930 . S
C1648 C1646 1.378 . S
C1648 C1649 1.367 . S
C1649 C1648 1.367 . S
C1649 C1651 1.433 . S
C1650 C1646 1.350 . S
C1650 C1647 1.463 . S
C1650 N1654 1.427 . S
C1651 H1641 0.929 . S
C1651 C1649 1.433 . S
C1651 N1654 1.384 . S
C1652 H1643 0.929 . S
C1652 C1644 1.378 . S
C1652 C1647 1.350 . S
C1653 H1640 0.929 . S
C1653 C1645 1.433 . S
C1653 N1655 1.384 . S
N1654 C1650 1.427 . S
N1654 C1651 1.384 . S
N1655 C1647 1.427 . S
N1655 C1653 1.384 . S
H1656 C1662 0.930 . S
H1657 C1666 0.930 . S
H1658 C1671 0.929 . S
H1659 C1669 0.929 . S
H1660 C1664 0.929 . S
H1661 C1670 0.929 . S
C1662 H1656 0.930 . S
C1662 C1663 1.367 . S
C1662 C1670 1.378 . S
C1663 C1662 1.367 . S
C1663 C1671 1.433 . S
C1664 H1660 0.929 . S
C1664 C1666 1.378 . S
C1664 C1668 1.350 . S
C1665 C1668 1.463 . S
C1665 C1670 1.350 . S
C1665 N1673 1.427 . S
C1666 H1657 0.930 . S
C1666 C1664 1.378 . S
C1666 C1667 1.367 . S
C1667 C1666 1.367 . S
C1667 C1669 1.433 . S
C1668 C1664 1.350 . S
C1668 C1665 1.463 . S
C1668 N1672 1.427 . S
C1669 H1659 0.929 . S
C1669 C1667 1.433 . S
C1669 N1672 1.384 . S
C1670 H1661 0.929 . S
C1670 C1662 1.378 . S
C1670 C1665 1.350 . S
C1671 H1658 0.929 . S
C1671 C1663 1.433 . S
C1671 N1673 1.384 . S
N1672 C1668 1.427 . S
N1672 C1669 1.384 . S
N1673 C1665 1.427 . S
N1673 C1671 1.384 . S
H1674 C1680 0.930 . S
H1675 C1684 0.930 . S
H1676 C1689 0.929 . S
H1677 C1687 0.929 . S
H1678 C1682 0.929 . S
H1679 C1688 0.929 . S
C1680 H1674 0.930 . S
C1680 C1681 1.367 . S
C1680 C1688 1.378 . S
C1681 C1680 1.367 . S
C1681 C1689 1.433 . S
C1682 H1678 0.929 . S
C1682 C1684 1.378 . S
C1682 C1686 1.350 . S
C1683 C1686 1.463 1_655 S
C1683 C1688 1.350 . S
C1683 N1691 1.427 . S
C1684 H1675 0.930 . S
C1684 C1682 1.378 . S
C1684 C1685 1.367 . S
C1685 C1684 1.367 . S
C1685 C1687 1.433 . S
C1686 C1682 1.350 . S
C1686 C1683 1.463 1_455 S
C1686 N1690 1.427 . S
C1687 H1677 0.929 . S
C1687 C1685 1.433 . S
C1687 N1690 1.384 . S
C1688 H1679 0.929 . S
C1688 C1680 1.378 . S
C1688 C1683 1.350 . S
C1689 H1676 0.929 . S
C1689 C1681 1.433 . S
C1689 N1691 1.384 . S
N1690 C1686 1.427 . S
N1690 C1687 1.384 . S
N1691 C1683 1.427 . S
N1691 C1689 1.384 . S
H1692 C1698 0.930 . S
H1693 C1702 0.930 . S
H1694 C1707 0.929 . S
H1695 C1705 0.929 . S
H1696 C1700 0.929 . S
H1697 C1706 0.929 . S
C1698 H1692 0.930 . S
C1698 C1699 1.367 . S
C1698 C1706 1.378 . S
C1699 C1698 1.367 . S
C1699 C1707 1.433 . S
C1700 H1696 0.929 . S
C1700 C1702 1.378 . S
C1700 C1704 1.350 . S
C1701 C1704 1.463 . S
C1701 C1706 1.350 . S
C1701 N1709 1.427 . S
C1702 H1693 0.930 . S
C1702 C1700 1.378 . S
C1702 C1703 1.367 . S
C1703 C1702 1.367 . S
C1703 C1705 1.433 . S
C1704 C1700 1.350 . S
C1704 C1701 1.463 . S
C1704 N1708 1.427 . S
C1705 H1695 0.929 . S
C1705 C1703 1.433 . S
C1705 N1708 1.384 . S
C1706 H1697 0.929 . S
C1706 C1698 1.378 . S
C1706 C1701 1.350 . S
C1707 H1694 0.929 . S
C1707 C1699 1.433 . S
C1707 N1709 1.384 . S
N1708 C1704 1.427 . S
N1708 C1705 1.384 . S
N1709 C1701 1.427 . S
N1709 C1707 1.384 . S
H1710 C1716 0.930 . S
H1711 C1720 0.930 . S
H1712 C1725 0.929 . S
H1713 C1723 0.929 . S
H1714 C1718 0.929 . S
H1715 C1724 0.929 . S
C1716 H1710 0.930 . S
C1716 C1717 1.367 . S
C1716 C1724 1.378 . S
C1717 C1716 1.367 . S
C1717 C1725 1.433 . S
C1718 H1714 0.929 . S
C1718 C1720 1.378 . S
C1718 C1722 1.350 . S
C1719 C1722 1.463 1_455 S
C1719 C1724 1.350 . S
C1719 N1727 1.427 . S
C1720 H1711 0.930 . S
C1720 C1718 1.378 . S
C1720 C1721 1.367 . S
C1721 C1720 1.367 . S
C1721 C1723 1.433 . S
C1722 C1718 1.350 . S
C1722 C1719 1.463 1_655 S
C1722 N1726 1.427 . S
C1723 H1713 0.929 . S
C1723 C1721 1.433 . S
C1723 N1726 1.384 . S
C1724 H1715 0.929 . S
C1724 C1716 1.378 . S
C1724 C1719 1.350 . S
C1725 H1712 0.929 . S
C1725 C1717 1.433 . S
C1725 N1727 1.384 . S
N1726 C1722 1.427 . S
N1726 C1723 1.384 . S
N1727 C1719 1.427 . S
N1727 C1725 1.384 . S
H1728 C1734 0.930 . S
H1729 C1738 0.930 . S
H1730 C1743 0.929 . S
H1731 C1741 0.929 . S
H1732 C1736 0.929 . S
H1733 C1742 0.929 . S
C1734 H1728 0.930 . S
C1734 C1735 1.367 . S
C1734 C1742 1.378 . S
C1735 C1734 1.367 . S
C1735 C1743 1.433 1_556 S
C1736 H1732 0.929 . S
C1736 C1738 1.378 . S
C1736 C1740 1.350 . S
C1737 C1740 1.463 1_556 S
C1737 C1742 1.350 . S
C1737 N1745 1.427 1_556 S
C1738 H1729 0.930 . S
C1738 C1736 1.378 . S
C1738 C1739 1.367 . S
C1739 C1738 1.367 . S
C1739 C1741 1.433 1_554 S
C1740 C1736 1.350 . S
C1740 C1737 1.463 1_554 S
C1740 N1744 1.427 1_554 S
C1741 H1731 0.929 . S
C1741 C1739 1.433 1_556 S
C1741 N1744 1.384 . S
C1742 H1733 0.929 . S
C1742 C1734 1.378 . S
C1742 C1737 1.350 . S
C1743 H1730 0.929 . S
C1743 C1735 1.433 1_554 S
C1743 N1745 1.384 . S
N1744 C1740 1.427 1_556 S
N1744 C1741 1.384 . S
N1745 C1737 1.427 1_554 S
N1745 C1743 1.384 . S
H1746 C1752 0.930 . S
H1747 C1756 0.930 . S
H1748 C1761 0.929 . S
H1749 C1759 0.929 . S
H1750 C1754 0.929 . S
H1751 C1760 0.929 . S
C1752 H1746 0.930 . S
C1752 C1753 1.367 . S
C1752 C1760 1.378 . S
C1753 C1752 1.367 . S
C1753 C1761 1.433 . S
C1754 H1750 0.929 . S
C1754 C1756 1.378 . S
C1754 C1758 1.350 . S
C1755 C1758 1.463 . S
C1755 C1760 1.350 . S
C1755 N1763 1.427 . S
C1756 H1747 0.930 . S
C1756 C1754 1.378 . S
C1756 C1757 1.367 . S
C1757 C1756 1.367 . S
C1757 C1759 1.433 . S
C1758 C1754 1.350 . S
C1758 C1755 1.463 . S
C1758 N1762 1.427 . S
C1759 H1749 0.929 . S
C1759 C1757 1.433 . S
C1759 N1762 1.384 . S
C1760 H1751 0.929 . S
C1760 C1752 1.378 . S
C1760 C1755 1.350 . S
C1761 H1748 0.929 . S
C1761 C1753 1.433 . S
C1761 N1763 1.384 . S
N1762 C1758 1.427 . S
N1762 C1759 1.384 . S
N1763 C1755 1.427 . S
N1763 C1761 1.384 . S
H1764 C1770 0.930 . S
H1765 C1774 0.930 . S
H1766 C1779 0.929 . S
H1767 C1777 0.929 . S
H1768 C1772 0.929 . S
H1769 C1778 0.929 . S
C1770 H1764 0.930 . S
C1770 C1771 1.367 . S
C1770 C1778 1.378 . S
C1771 C1770 1.367 . S
C1771 C1779 1.433 . S
C1772 H1768 0.929 . S
C1772 C1774 1.378 . S
C1772 C1776 1.350 . S
C1773 C1776 1.463 . S
C1773 C1778 1.350 . S
C1773 N1781 1.427 . S
C1774 H1765 0.930 . S
C1774 C1772 1.378 . S
C1774 C1775 1.367 . S
C1775 C1774 1.367 . S
C1775 C1777 1.433 . S
C1776 C1772 1.350 . S
C1776 C1773 1.463 . S
C1776 N1780 1.427 . S
C1777 H1767 0.929 . S
C1777 C1775 1.433 . S
C1777 N1780 1.384 . S
C1778 H1769 0.929 . S
C1778 C1770 1.378 . S
C1778 C1773 1.350 . S
C1779 H1766 0.929 . S
C1779 C1771 1.433 . S
C1779 N1781 1.384 . S
N1780 C1776 1.427 . S
N1780 C1777 1.384 . S
N1781 C1773 1.427 . S
N1781 C1779 1.384 . S
H1782 C1788 0.930 . S
H1783 C1792 0.930 . S
H1784 C1797 0.929 . S
H1785 C1795 0.929 . S
H1786 C1790 0.929 . S
H1787 C1796 0.929 . S
C1788 H1782 0.930 . S
C1788 C1789 1.367 . S
C1788 C1796 1.378 . S
C1789 C1788 1.367 . S
C1789 C1797 1.433 . S
C1790 H1786 0.929 . S
C1790 C1792 1.378 . S
C1790 C1794 1.350 . S
C1791 C1794 1.463 . S
C1791 C1796 1.350 . S
C1791 N1799 1.427 . S
C1792 H1783 0.930 . S
C1792 C1790 1.378 . S
C1792 C1793 1.367 . S
C1793 C1792 1.367 . S
C1793 C1795 1.433 . S
C1794 C1790 1.350 . S
C1794 C1791 1.463 . S
C1794 N1798 1.427 . S
C1795 H1785 0.929 . S
C1795 C1793 1.433 . S
C1795 N1798 1.384 . S
C1796 H1787 0.929 . S
C1796 C1788 1.378 . S
C1796 C1791 1.350 . S
C1797 H1784 0.929 . S
C1797 C1789 1.433 . S
C1797 N1799 1.384 . S
N1798 C1794 1.427 . S
N1798 C1795 1.384 . S
N1799 C1791 1.427 . S
N1799 C1797 1.384 . S
H1800 C1806 0.930 . S
H1801 C1810 0.930 . S
H1802 C1815 0.929 . S
H1803 C1813 0.929 . S
H1804 C1808 0.929 . S
H1805 C1814 0.929 . S
C1806 H1800 0.930 . S
C1806 C1807 1.367 1_556 S
C1806 C1814 1.378 . S
C1807 C1806 1.367 1_554 S
C1807 C1815 1.433 . S
C1808 H1804 0.929 . S
C1808 C1810 1.378 . S
C1808 C1812 1.350 1_554 S
C1809 C1812 1.463 1_554 S
C1809 C1814 1.350 1_554 S
C1809 N1817 1.427 . S
C1810 H1801 0.930 . S
C1810 C1808 1.378 . S
C1810 C1811 1.367 1_554 S
C1811 C1810 1.367 1_556 S
C1811 C1813 1.433 . S
C1812 C1808 1.350 1_556 S
C1812 C1809 1.463 1_556 S
C1812 N1816 1.427 . S
C1813 H1803 0.929 . S
C1813 C1811 1.433 . S
C1813 N1816 1.384 . S
C1814 H1805 0.929 . S
C1814 C1806 1.378 . S
C1814 C1809 1.350 1_556 S
C1815 H1802 0.929 . S
C1815 C1807 1.433 . S
C1815 N1817 1.384 . S
N1816 C1812 1.427 . S
N1816 C1813 1.384 . S
N1817 C1809 1.427 . S
N1817 C1815 1.384 . S
H1818 C1824 0.930 . S
H1819 C1828 0.930 . S
H1820 C1833 0.929 . S
H1821 C1831 0.929 . S
H1822 C1826 0.929 . S
H1823 C1832 0.929 . S
C1824 H1818 0.930 . S
C1824 C1825 1.367 . S
C1824 C1832 1.378 . S
C1825 C1824 1.367 . S
C1825 C1833 1.433 . S
C1826 H1822 0.929 . S
C1826 C1828 1.378 . S
C1826 C1830 1.350 . S
C1827 C1830 1.463 . S
C1827 C1832 1.350 . S
C1827 N1835 1.427 . S
C1828 H1819 0.930 . S
C1828 C1826 1.378 . S
C1828 C1829 1.367 . S
C1829 C1828 1.367 . S
C1829 C1831 1.433 . S
C1830 C1826 1.350 . S
C1830 C1827 1.463 . S
C1830 N1834 1.427 . S
C1831 H1821 0.929 . S
C1831 C1829 1.433 . S
C1831 N1834 1.384 . S
C1832 H1823 0.929 . S
C1832 C1824 1.378 . S
C1832 C1827 1.350 . S
C1833 H1820 0.929 . S
C1833 C1825 1.433 . S
C1833 N1835 1.384 . S
N1834 C1830 1.427 . S
N1834 C1831 1.384 . S
N1835 C1827 1.427 . S
N1835 C1833 1.384 . S
H1836 C1842 0.930 . S
H1837 C1846 0.930 . S
H1838 C1851 0.929 . S
H1839 C1849 0.929 . S
H1840 C1844 0.929 . S
H1841 C1850 0.929 . S
C1842 H1836 0.930 . S
C1842 C1843 1.367 . S
C1842 C1850 1.378 . S
C1843 C1842 1.367 . S
C1843 C1851 1.433 . S
C1844 H1840 0.929 . S
C1844 C1846 1.378 . S
C1844 C1848 1.350 . S
C1845 C1848 1.463 . S
C1845 C1850 1.350 . S
C1845 N1853 1.427 . S
C1846 H1837 0.930 . S
C1846 C1844 1.378 . S
C1846 C1847 1.367 . S
C1847 C1846 1.367 . S
C1847 C1849 1.433 . S
C1848 C1844 1.350 . S
C1848 C1845 1.463 . S
C1848 N1852 1.427 . S
C1849 H1839 0.929 . S
C1849 C1847 1.433 . S
C1849 N1852 1.384 . S
C1850 H1841 0.929 . S
C1850 C1842 1.378 . S
C1850 C1845 1.350 . S
C1851 H1838 0.929 . S
C1851 C1843 1.433 . S
C1851 N1853 1.384 . S
N1852 C1848 1.427 . S
N1852 C1849 1.384 . S
N1853 C1845 1.427 . S
N1853 C1851 1.384 . S
H1854 C1860 0.930 . S
H1855 C1864 0.930 . S
H1856 C1869 0.929 . S
H1857 C1867 0.929 . S
H1858 C1862 0.929 . S
H1859 C1868 0.929 . S
C1860 H1854 0.930 . S
C1860 C1861 1.367 . S
C1860 C1868 1.378 . S
C1861 C1860 1.367 . S
C1861 C1869 1.433 . S
C1862 H1858 0.929 . S
C1862 C1864 1.378 . S
C1862 C1866 1.350 . S
C1863 C1866 1.463 . S
C1863 C1868 1.350 . S
C1863 N1871 1.427 . S
C1864 H1855 0.930 . S
C1864 C1862 1.378 . S
C1864 C1865 1.367 . S
C1865 C1864 1.367 . S
C1865 C1867 1.433 . S
C1866 C1862 1.350 . S
C1866 C1863 1.463 . S
C1866 N1870 1.427 . S
C1867 H1857 0.929 . S
C1867 C1865 1.433 . S
C1867 N1870 1.384 . S
C1868 H1859 0.929 . S
C1868 C1860 1.378 . S
C1868 C1863 1.350 . S
C1869 H1856 0.929 . S
C1869 C1861 1.433 . S
C1869 N1871 1.384 . S
N1870 C1866 1.427 . S
N1870 C1867 1.384 . S
N1871 C1863 1.427 . S
N1871 C1869 1.384 . S
H1872 C1878 0.930 . S
H1873 C1882 0.930 . S
H1874 C1887 0.929 . S
H1875 C1885 0.929 . S
H1876 C1880 0.929 . S
H1877 C1886 0.929 . S
C1878 H1872 0.930 . S
C1878 C1879 1.367 . S
C1878 C1886 1.378 . S
C1879 C1878 1.367 . S
C1879 C1887 1.433 . S
C1880 H1876 0.929 . S
C1880 C1882 1.378 . S
C1880 C1884 1.350 . S
C1881 C1884 1.463 1_545 S
C1881 C1886 1.350 . S
C1881 N1889 1.427 . S
C1882 H1873 0.930 . S
C1882 C1880 1.378 . S
C1882 C1883 1.367 . S
C1883 C1882 1.367 . S
C1883 C1885 1.433 . S
C1884 C1880 1.350 . S
C1884 C1881 1.463 1_565 S
C1884 N1888 1.427 . S
C1885 H1875 0.929 . S
C1885 C1883 1.433 . S
C1885 N1888 1.384 . S
C1886 H1877 0.929 . S
C1886 C1878 1.378 . S
C1886 C1881 1.350 . S
C1887 H1874 0.929 . S
C1887 C1879 1.433 . S
C1887 N1889 1.384 . S
N1888 C1884 1.427 . S
N1888 C1885 1.384 . S
N1889 C1881 1.427 . S
N1889 C1887 1.384 . S
H1890 C1896 0.930 . S
H1891 C1900 0.930 . S
H1892 C1905 0.929 . S
H1893 C1903 0.929 . S
H1894 C1898 0.929 . S
H1895 C1904 0.929 . S
C1896 H1890 0.930 . S
C1896 C1897 1.367 . S
C1896 C1904 1.378 . S
C1897 C1896 1.367 . S
C1897 C1905 1.433 . S
C1898 H1894 0.929 . S
C1898 C1900 1.378 . S
C1898 C1902 1.350 . S
C1899 C1902 1.463 . S
C1899 C1904 1.350 . S
C1899 N1907 1.427 . S
C1900 H1891 0.930 . S
C1900 C1898 1.378 . S
C1900 C1901 1.367 . S
C1901 C1900 1.367 . S
C1901 C1903 1.433 . S
C1902 C1898 1.350 . S
C1902 C1899 1.463 . S
C1902 N1906 1.427 . S
C1903 H1893 0.929 . S
C1903 C1901 1.433 . S
C1903 N1906 1.384 . S
C1904 H1895 0.929 . S
C1904 C1896 1.378 . S
C1904 C1899 1.350 . S
C1905 H1892 0.929 . S
C1905 C1897 1.433 . S
C1905 N1907 1.384 . S
N1906 C1902 1.427 . S
N1906 C1903 1.384 . S
N1907 C1899 1.427 . S
N1907 C1905 1.384 . S
H1908 C1914 0.930 1_556 S
H1909 C1918 0.930 1_554 S
H1910 C1923 0.929 . S
H1911 C1921 0.929 . S
H1912 C1916 0.929 . S
H1913 C1922 0.929 . S
C1914 H1908 0.930 1_554 S
C1914 C1915 1.367 . S
C1914 C1922 1.378 1_554 S
C1915 C1914 1.367 . S
C1915 C1923 1.433 . S
C1916 H1912 0.929 . S
C1916 C1918 1.378 1_554 S
C1916 C1920 1.350 1_554 S
C1917 C1920 1.463 1_564 S
C1917 C1922 1.350 1_554 S
C1917 N1925 1.427 . S
C1918 H1909 0.930 1_556 S
C1918 C1916 1.378 1_556 S
C1918 C1919 1.367 . S
C1919 C1918 1.367 . S
C1919 C1921 1.433 . S
C1920 C1916 1.350 1_556 S
C1920 C1917 1.463 1_546 S
C1920 N1924 1.427 . S
C1921 H1911 0.929 . S
C1921 C1919 1.433 . S
C1921 N1924 1.384 . S
C1922 H1913 0.929 . S
C1922 C1914 1.378 1_556 S
C1922 C1917 1.350 1_556 S
C1923 H1910 0.929 . S
C1923 C1915 1.433 . S
C1923 N1925 1.384 . S
N1924 C1920 1.427 . S
N1924 C1921 1.384 . S
N1925 C1917 1.427 . S
N1925 C1923 1.384 . S
H1926 C1932 0.930 . S
H1927 C1936 0.930 . S
H1928 C1941 0.929 . S
H1929 C1939 0.929 . S
H1930 C1934 0.929 . S
H1931 C1940 0.929 . S
C1932 H1926 0.930 . S
C1932 C1933 1.367 . S
C1932 C1940 1.378 . S
C1933 C1932 1.367 . S
C1933 C1941 1.433 . S
C1934 H1930 0.929 . S
C1934 C1936 1.378 . S
C1934 C1938 1.350 . S
C1935 C1938 1.463 . S
C1935 C1940 1.350 . S
C1935 N1943 1.427 . S
C1936 H1927 0.930 . S
C1936 C1934 1.378 . S
C1936 C1937 1.367 . S
C1937 C1936 1.367 . S
C1937 C1939 1.433 . S
C1938 C1934 1.350 . S
C1938 C1935 1.463 . S
C1938 N1942 1.427 . S
C1939 H1929 0.929 . S
C1939 C1937 1.433 . S
C1939 N1942 1.384 . S
C1940 H1931 0.929 . S
C1940 C1932 1.378 . S
C1940 C1935 1.350 . S
C1941 H1928 0.929 . S
C1941 C1933 1.433 . S
C1941 N1943 1.384 . S
N1942 C1938 1.427 . S
N1942 C1939 1.384 . S
N1943 C1935 1.427 . S
N1943 C1941 1.384 . S
H1944 C1950 0.930 . S
H1945 C1954 0.930 . S
H1946 C1959 0.929 . S
H1947 C1957 0.929 . S
H1948 C1952 0.929 . S
H1949 C1958 0.929 . S
C1950 H1944 0.930 . S
C1950 C1951 1.367 . S
C1950 C1958 1.378 . S
C1951 C1950 1.367 . S
C1951 C1959 1.433 . S
C1952 H1948 0.929 . S
C1952 C1954 1.378 . S
C1952 C1956 1.350 . S
C1953 C1956 1.463 1_545 S
C1953 C1958 1.350 . S
C1953 N1961 1.427 . S
C1954 H1945 0.930 . S
C1954 C1952 1.378 . S
C1954 C1955 1.367 . S
C1955 C1954 1.367 . S
C1955 C1957 1.433 . S
C1956 C1952 1.350 . S
C1956 C1953 1.463 1_565 S
C1956 N1960 1.427 . S
C1957 H1947 0.929 . S
C1957 C1955 1.433 . S
C1957 N1960 1.384 . S
C1958 H1949 0.929 . S
C1958 C1950 1.378 . S
C1958 C1953 1.350 . S
C1959 H1946 0.929 . S
C1959 C1951 1.433 . S
C1959 N1961 1.384 . S
N1960 C1956 1.427 . S
N1960 C1957 1.384 . S
N1961 C1953 1.427 . S
N1961 C1959 1.384 . S
H1962 C1968 0.930 . S
H1963 C1972 0.930 . S
H1964 C1977 0.929 . S
H1965 C1975 0.929 . S
H1966 C1970 0.929 . S
H1967 C1976 0.929 . S
C1968 H1962 0.930 . S
C1968 C1969 1.367 . S
C1968 C1976 1.378 . S
C1969 C1968 1.367 . S
C1969 C1977 1.433 . S
C1970 H1966 0.929 . S
C1970 C1972 1.378 . S
C1970 C1974 1.350 . S
C1971 C1974 1.463 . S
C1971 C1976 1.350 . S
C1971 N1979 1.427 . S
C1972 H1963 0.930 . S
C1972 C1970 1.378 . S
C1972 C1973 1.367 . S
C1973 C1972 1.367 . S
C1973 C1975 1.433 . S
C1974 C1970 1.350 . S
C1974 C1971 1.463 . S
C1974 N1978 1.427 . S
C1975 H1965 0.929 . S
C1975 C1973 1.433 . S
C1975 N1978 1.384 . S
C1976 H1967 0.929 . S
C1976 C1968 1.378 . S
C1976 C1971 1.350 . S
C1977 H1964 0.929 . S
C1977 C1969 1.433 . S
C1977 N1979 1.384 . S
N1978 C1974 1.427 . S
N1978 C1975 1.384 . S
N1979 C1971 1.427 . S
N1979 C1977 1.384 . S
H1980 C1986 0.930 . S
H1981 C1990 0.930 . S
H1982 C1995 0.929 . S
H1983 C1993 0.929 . S
H1984 C1988 0.929 . S
H1985 C1994 0.929 . S
C1986 H1980 0.930 . S
C1986 C1987 1.367 1_556 S
C1986 C1994 1.378 . S
C1987 C1986 1.367 1_554 S
C1987 C1995 1.433 . S
C1988 H1984 0.929 . S
C1988 C1990 1.378 . S
C1988 C1992 1.350 1_554 S
C1989 C1992 1.463 1_564 S
C1989 C1994 1.350 1_554 S
C1989 N1997 1.427 . S
C1990 H1981 0.930 . S
C1990 C1988 1.378 . S
C1990 C1991 1.367 1_554 S
C1991 C1990 1.367 1_556 S
C1991 C1993 1.433 . S
C1992 C1988 1.350 1_556 S
C1992 C1989 1.463 1_546 S
C1992 N1996 1.427 . S
C1993 H1983 0.929 . S
C1993 C1991 1.433 . S
C1993 N1996 1.384 . S
C1994 H1985 0.929 . S
C1994 C1986 1.378 . S
C1994 C1989 1.350 1_556 S
C1995 H1982 0.929 . S
C1995 C1987 1.433 . S
C1995 N1997 1.384 . S
N1996 C1992 1.427 . S
N1996 C1993 1.384 . S
N1997 C1989 1.427 . S
N1997 C1995 1.384 . S
H1998 C2004 0.930 . S
H1999 C2008 0.930 . S
H2000 C2013 0.929 . S
H2001 C2011 0.929 . S
H2002 C2006 0.929 . S
H2003 C2012 0.929 . S
C2004 H1998 0.930 . S
C2004 C2005 1.367 . S
C2004 C2012 1.378 . S
C2005 C2004 1.367 . S
C2005 C2013 1.433 . S
C2006 H2002 0.929 . S
C2006 C2008 1.378 . S
C2006 C2010 1.350 . S
C2007 C2010 1.463 . S
C2007 C2012 1.350 . S
C2007 N2015 1.427 . S
C2008 H1999 0.930 . S
C2008 C2006 1.378 . S
C2008 C2009 1.367 . S
C2009 C2008 1.367 . S
C2009 C2011 1.433 . S
C2010 C2006 1.350 . S
C2010 C2007 1.463 . S
C2010 N2014 1.427 . S
C2011 H2001 0.929 . S
C2011 C2009 1.433 . S
C2011 N2014 1.384 . S
C2012 H2003 0.929 . S
C2012 C2004 1.378 . S
C2012 C2007 1.350 . S
C2013 H2000 0.929 . S
C2013 C2005 1.433 . S
C2013 N2015 1.384 . S
N2014 C2010 1.427 . S
N2014 C2011 1.384 . S
N2015 C2007 1.427 . S
N2015 C2013 1.384 . S
H2016 C2022 0.930 . S
H2017 C2026 0.930 . S
H2018 C2031 0.929 . S
H2019 C2029 0.929 . S
H2020 C2024 0.929 . S
H2021 C2030 0.929 . S
C2022 H2016 0.930 . S
C2022 C2023 1.367 . S
C2022 C2030 1.378 . S
C2023 C2022 1.367 . S
C2023 C2031 1.433 . S
C2024 H2020 0.929 . S
C2024 C2026 1.378 . S
C2024 C2028 1.350 . S
C2025 C2028 1.463 . S
C2025 C2030 1.350 . S
C2025 N2033 1.427 . S
C2026 H2017 0.930 . S
C2026 C2024 1.378 . S
C2026 C2027 1.367 . S
C2027 C2026 1.367 . S
C2027 C2029 1.433 . S
C2028 C2024 1.350 . S
C2028 C2025 1.463 . S
C2028 N2032 1.427 . S
C2029 H2019 0.929 . S
C2029 C2027 1.433 . S
C2029 N2032 1.384 . S
C2030 H2021 0.929 . S
C2030 C2022 1.378 . S
C2030 C2025 1.350 . S
C2031 H2018 0.929 . S
C2031 C2023 1.433 . S
C2031 N2033 1.384 . S
N2032 C2028 1.427 . S
N2032 C2029 1.384 . S
N2033 C2025 1.427 . S
N2033 C2031 1.384 . S
H2034 C2040 0.930 . S
H2035 C2044 0.930 . S
H2036 C2049 0.929 . S
H2037 C2047 0.929 . S
H2038 C2042 0.929 . S
H2039 C2048 0.929 . S
C2040 H2034 0.930 . S
C2040 C2041 1.367 . S
C2040 C2048 1.378 . S
C2041 C2040 1.367 . S
C2041 C2049 1.433 . S
C2042 H2038 0.929 . S
C2042 C2044 1.378 . S
C2042 C2046 1.350 . S
C2043 C2046 1.463 . S
C2043 C2048 1.350 . S
C2043 N2051 1.427 . S
C2044 H2035 0.930 . S
C2044 C2042 1.378 . S
C2044 C2045 1.367 . S
C2045 C2044 1.367 . S
C2045 C2047 1.433 . S
C2046 C2042 1.350 . S
C2046 C2043 1.463 . S
C2046 N2050 1.427 . S
C2047 H2037 0.929 . S
C2047 C2045 1.433 . S
C2047 N2050 1.384 . S
C2048 H2039 0.929 . S
C2048 C2040 1.378 . S
C2048 C2043 1.350 . S
C2049 H2036 0.929 . S
C2049 C2041 1.433 . S
C2049 N2051 1.384 . S
N2050 C2046 1.427 . S
N2050 C2047 1.384 . S
N2051 C2043 1.427 . S
N2051 C2049 1.384 . S
H2052 C2058 0.930 . S
H2053 C2062 0.930 . S
H2054 C2067 0.929 . S
H2055 C2065 0.929 . S
H2056 C2060 0.929 . S
H2057 C2066 0.929 . S
C2058 H2052 0.930 . S
C2058 C2059 1.367 . S
C2058 C2066 1.378 . S
C2059 C2058 1.367 . S
C2059 C2067 1.433 . S
C2060 H2056 0.929 . S
C2060 C2062 1.378 . S
C2060 C2064 1.350 . S
C2061 C2064 1.463 . S
C2061 C2066 1.350 . S
C2061 N2069 1.427 . S
C2062 H2053 0.930 . S
C2062 C2060 1.378 . S
C2062 C2063 1.367 . S
C2063 C2062 1.367 . S
C2063 C2065 1.433 . S
C2064 C2060 1.350 . S
C2064 C2061 1.463 . S
C2064 N2068 1.427 . S
C2065 H2055 0.929 . S
C2065 C2063 1.433 . S
C2065 N2068 1.384 . S
C2066 H2057 0.929 . S
C2066 C2058 1.378 . S
C2066 C2061 1.350 . S
C2067 H2054 0.929 . S
C2067 C2059 1.433 . S
C2067 N2069 1.384 . S
N2068 C2064 1.427 . S
N2068 C2065 1.384 . S
N2069 C2061 1.427 . S
N2069 C2067 1.384 . S
H2070 C2076 0.930 . S
H2071 C2080 0.930 . S
H2072 C2085 0.929 . S
H2073 C2083 0.929 . S
H2074 C2078 0.929 . S
H2075 C2084 0.929 . S
C2076 H2070 0.930 . S
C2076 C2077 1.367 . S
C2076 C2084 1.378 . S
C2077 C2076 1.367 . S
C2077 C2085 1.433 . S
C2078 H2074 0.929 . S
C2078 C2080 1.378 . S
C2078 C2082 1.350 . S
C2079 C2082 1.463 1_655 S
C2079 C2084 1.350 . S
C2079 N2087 1.427 . S
C2080 H2071 0.930 . S
C2080 C2078 1.378 . S
C2080 C2081 1.367 . S
C2081 C2080 1.367 . S
C2081 C2083 1.433 . S
C2082 C2078 1.350 . S
C2082 C2079 1.463 1_455 S
C2082 N2086 1.427 . S
C2083 H2073 0.929 . S
C2083 C2081 1.433 . S
C2083 N2086 1.384 . S
C2084 H2075 0.929 . S
C2084 C2076 1.378 . S
C2084 C2079 1.350 . S
C2085 H2072 0.929 . S
C2085 C2077 1.433 . S
C2085 N2087 1.384 . S
N2086 C2082 1.427 . S
N2086 C2083 1.384 . S
N2087 C2079 1.427 . S
N2087 C2085 1.384 . S
H2088 C2094 0.930 . S
H2089 C2098 0.930 . S
H2090 C2103 0.929 . S
H2091 C2101 0.929 . S
H2092 C2096 0.929 . S
H2093 C2102 0.929 . S
C2094 H2088 0.930 . S
C2094 C2095 1.367 . S
C2094 C2102 1.378 . S
C2095 C2094 1.367 . S
C2095 C2103 1.433 . S
C2096 H2092 0.929 . S
C2096 C2098 1.378 . S
C2096 C2100 1.350 . S
C2097 C2100 1.463 . S
C2097 C2102 1.350 . S
C2097 N2105 1.427 . S
C2098 H2089 0.930 . S
C2098 C2096 1.378 . S
C2098 C2099 1.367 . S
C2099 C2098 1.367 . S
C2099 C2101 1.433 . S
C2100 C2096 1.350 . S
C2100 C2097 1.463 . S
C2100 N2104 1.427 . S
C2101 H2091 0.929 . S
C2101 C2099 1.433 . S
C2101 N2104 1.384 . S
C2102 H2093 0.929 . S
C2102 C2094 1.378 . S
C2102 C2097 1.350 . S
C2103 H2090 0.929 . S
C2103 C2095 1.433 . S
C2103 N2105 1.384 . S
N2104 C2100 1.427 . S
N2104 C2101 1.384 . S
N2105 C2097 1.427 . S
N2105 C2103 1.384 . S
H2106 C2112 0.930 . S
H2107 C2116 0.930 . S
H2108 C2121 0.929 . S
H2109 C2119 0.929 . S
H2110 C2114 0.929 . S
H2111 C2120 0.929 . S
C2112 H2106 0.930 . S
C2112 C2113 1.367 . S
C2112 C2120 1.378 . S
C2113 C2112 1.367 . S
C2113 C2121 1.433 . S
C2114 H2110 0.929 . S
C2114 C2116 1.378 . S
C2114 C2118 1.350 . S
C2115 C2118 1.463 1_655 S
C2115 C2120 1.350 . S
C2115 N2123 1.427 . S
C2116 H2107 0.930 . S
C2116 C2114 1.378 . S
C2116 C2117 1.367 . S
C2117 C2116 1.367 . S
C2117 C2119 1.433 . S
C2118 C2114 1.350 . S
C2118 C2115 1.463 1_455 S
C2118 N2122 1.427 . S
C2119 H2109 0.929 . S
C2119 C2117 1.433 . S
C2119 N2122 1.384 . S
C2120 H2111 0.929 . S
C2120 C2112 1.378 . S
C2120 C2115 1.350 . S
C2121 H2108 0.929 . S
C2121 C2113 1.433 . S
C2121 N2123 1.384 . S
N2122 C2118 1.427 . S
N2122 C2119 1.384 . S
N2123 C2115 1.427 . S
N2123 C2121 1.384 . S
H2124 C2130 0.930 . S
H2125 C2134 0.930 . S
H2126 C2139 0.929 . S
H2127 C2137 0.929 . S
H2128 C2132 0.929 . S
H2129 C2138 0.929 . S
C2130 H2124 0.930 . S
C2130 C2131 1.367 . S
C2130 C2138 1.378 . S
C2131 C2130 1.367 . S
C2131 C2139 1.433 . S
C2132 H2128 0.929 . S
C2132 C2134 1.378 . S
C2132 C2136 1.350 . S
C2133 C2136 1.463 . S
C2133 C2138 1.350 . S
C2133 N2141 1.427 . S
C2134 H2125 0.930 . S
C2134 C2132 1.378 . S
C2134 C2135 1.367 . S
C2135 C2134 1.367 . S
C2135 C2137 1.433 . S
C2136 C2132 1.350 . S
C2136 C2133 1.463 . S
C2136 N2140 1.427 . S
C2137 H2127 0.929 . S
C2137 C2135 1.433 . S
C2137 N2140 1.384 . S
C2138 H2129 0.929 . S
C2138 C2130 1.378 . S
C2138 C2133 1.350 . S
C2139 H2126 0.929 . S
C2139 C2131 1.433 . S
C2139 N2141 1.384 . S
N2140 C2136 1.427 . S
N2140 C2137 1.384 . S
N2141 C2133 1.427 . S
N2141 C2139 1.384 . S
H2142 C2148 0.930 . S
H2143 C2152 0.930 . S
H2144 C2157 0.929 . S
H2145 C2155 0.929 . S
H2146 C2150 0.929 . S
H2147 C2156 0.929 . S
C2148 H2142 0.930 . S
C2148 C2149 1.367 . S
C2148 C2156 1.378 . S
C2149 C2148 1.367 . S
C2149 C2157 1.433 . S
C2150 H2146 0.929 . S
C2150 C2152 1.378 . S
C2150 C2154 1.350 . S
C2151 C2154 1.463 . S
C2151 C2156 1.350 . S
C2151 N2159 1.427 . S
C2152 H2143 0.930 . S
C2152 C2150 1.378 . S
C2152 C2153 1.367 . S
C2153 C2152 1.367 . S
C2153 C2155 1.433 . S
C2154 C2150 1.350 . S
C2154 C2151 1.463 . S
C2154 N2158 1.427 . S
C2155 H2145 0.929 . S
C2155 C2153 1.433 . S
C2155 N2158 1.384 . S
C2156 H2147 0.929 . S
C2156 C2148 1.378 . S
C2156 C2151 1.350 . S
C2157 H2144 0.929 . S
C2157 C2149 1.433 . S
C2157 N2159 1.384 . S
N2158 C2154 1.427 . S
N2158 C2155 1.384 . S
N2159 C2151 1.427 . S
N2159 C2157 1.384 . S
H2160 C2166 0.899 1_554 S
H2161 C2170 0.930 . S
H2162 C2175 0.929 . S
H2163 C2173 0.889 1_554 S
H2164 C2168 0.929 . S
H2165 C2174 0.898 1_554 S
C2166 H2160 0.899 1_556 S
C2166 C2167 1.367 . S
C2166 C2174 1.378 . S
C2167 C2166 1.367 . S
C2167 C2175 1.433 . S
C2168 H2164 0.929 . S
C2168 C2170 1.378 . S
C2168 C2172 1.350 . S
C2169 C2172 1.463 . S
C2169 C2174 1.350 . S
C2169 N2177 1.427 . S
C2170 H2161 0.930 . S
C2170 C2168 1.378 . S
C2170 C2171 1.367 . S
C2171 C2170 1.367 . S
C2171 C2173 1.433 . S
C2172 C2168 1.350 . S
C2172 C2169 1.463 . S
C2172 N2176 1.427 . S
C2173 H2163 0.889 1_556 S
C2173 C2171 1.433 . S
C2173 N2176 1.384 . S
C2174 H2165 0.898 1_556 S
C2174 C2166 1.378 . S
C2174 C2169 1.350 . S
C2175 H2162 0.929 . S
C2175 C2167 1.433 . S
C2175 N2177 1.384 . S
N2176 C2172 1.427 . S
N2176 C2173 1.384 . S
N2177 C2169 1.427 . S
N2177 C2175 1.384 . S
H2178 C2184 0.930 . S
H2179 C2188 0.930 . S
H2180 C2193 0.929 . S
H2181 C2191 0.929 . S
H2182 C2186 0.929 . S
H2183 C2192 0.929 . S
C2184 H2178 0.930 . S
C2184 C2185 1.367 . S
C2184 C2192 1.378 . S
C2185 C2184 1.367 . S
C2185 C2193 1.433 . S
C2186 H2182 0.929 . S
C2186 C2188 1.378 . S
C2186 C2190 1.350 . S
C2187 C2190 1.463 . S
C2187 C2192 1.350 . S
C2187 N2195 1.427 . S
C2188 H2179 0.930 . S
C2188 C2186 1.378 . S
C2188 C2189 1.367 . S
C2189 C2188 1.367 . S
C2189 C2191 1.433 . S
C2190 C2186 1.350 . S
C2190 C2187 1.463 . S
C2190 N2194 1.427 . S
C2191 H2181 0.929 . S
C2191 C2189 1.433 . S
C2191 N2194 1.384 . S
C2192 H2183 0.929 . S
C2192 C2184 1.378 . S
C2192 C2187 1.350 . S
C2193 H2180 0.929 . S
C2193 C2185 1.433 . S
C2193 N2195 1.384 . S
N2194 C2190 1.427 . S
N2194 C2191 1.384 . S
N2195 C2187 1.427 . S
N2195 C2193 1.384 . S
H2196 C2202 0.930 . S
H2197 C2206 0.930 . S
H2198 C2211 0.929 . S
H2199 C2209 0.929 . S
H2200 C2204 0.929 . S
H2201 C2210 0.929 . S
C2202 H2196 0.930 . S
C2202 C2203 1.367 . S
C2202 C2210 1.378 . S
C2203 C2202 1.367 . S
C2203 C2211 1.433 . S
C2204 H2200 0.929 . S
C2204 C2206 1.378 . S
C2204 C2208 1.350 . S
C2205 C2208 1.463 . S
C2205 C2210 1.350 . S
C2205 N2213 1.427 . S
C2206 H2197 0.930 . S
C2206 C2204 1.378 . S
C2206 C2207 1.367 . S
C2207 C2206 1.367 . S
C2207 C2209 1.433 . S
C2208 C2204 1.350 . S
C2208 C2205 1.463 . S
C2208 N2212 1.427 . S
C2209 H2199 0.929 . S
C2209 C2207 1.433 . S
C2209 N2212 1.384 . S
C2210 H2201 0.929 . S
C2210 C2202 1.378 . S
C2210 C2205 1.350 . S
C2211 H2198 0.929 . S
C2211 C2203 1.433 . S
C2211 N2213 1.384 . S
N2212 C2208 1.427 . S
N2212 C2209 1.384 . S
N2213 C2205 1.427 . S
N2213 C2211 1.384 . S
H2214 C2220 0.930 . S
H2215 C2224 0.930 . S
H2216 C2229 0.929 . S
H2217 C2227 0.929 . S
H2218 C2222 0.929 . S
H2219 C2228 0.929 . S
C2220 H2214 0.930 . S
C2220 C2221 1.367 . S
C2220 C2228 1.378 . S
C2221 C2220 1.367 . S
C2221 C2229 1.433 . S
C2222 H2218 0.929 . S
C2222 C2224 1.378 . S
C2222 C2226 1.350 . S
C2223 C2226 1.463 . S
C2223 C2228 1.350 . S
C2223 N2231 1.427 . S
C2224 H2215 0.930 . S
C2224 C2222 1.378 . S
C2224 C2225 1.367 . S
C2225 C2224 1.367 . S
C2225 C2227 1.433 . S
C2226 C2222 1.350 . S
C2226 C2223 1.463 . S
C2226 N2230 1.427 . S
C2227 H2217 0.929 . S
C2227 C2225 1.433 . S
C2227 N2230 1.384 . S
C2228 H2219 0.929 . S
C2228 C2220 1.378 . S
C2228 C2223 1.350 . S
C2229 H2216 0.929 . S
C2229 C2221 1.433 . S
C2229 N2231 1.384 . S
N2230 C2226 1.427 . S
N2230 C2227 1.384 . S
N2231 C2223 1.427 . S
N2231 C2229 1.384 . S
H2232 C2238 0.930 . S
H2233 C2242 0.930 . S
H2234 C2247 0.929 . S
H2235 C2245 0.929 . S
H2236 C2240 0.929 . S
H2237 C2246 0.929 . S
C2238 H2232 0.930 . S
C2238 C2239 1.367 . S
C2238 C2246 1.378 . S
C2239 C2238 1.367 . S
C2239 C2247 1.433 . S
C2240 H2236 0.929 . S
C2240 C2242 1.378 . S
C2240 C2244 1.350 . S
C2241 C2244 1.463 1_655 S
C2241 C2246 1.350 . S
C2241 N2249 1.427 . S
C2242 H2233 0.930 . S
C2242 C2240 1.378 . S
C2242 C2243 1.367 . S
C2243 C2242 1.367 . S
C2243 C2245 1.433 . S
C2244 C2240 1.350 . S
C2244 C2241 1.463 1_455 S
C2244 N2248 1.427 . S
C2245 H2235 0.929 . S
C2245 C2243 1.433 . S
C2245 N2248 1.384 . S
C2246 H2237 0.929 . S
C2246 C2238 1.378 . S
C2246 C2241 1.350 . S
C2247 H2234 0.929 . S
C2247 C2239 1.433 . S
C2247 N2249 1.384 . S
N2248 C2244 1.427 . S
N2248 C2245 1.384 . S
N2249 C2241 1.427 . S
N2249 C2247 1.384 . S
H2250 C2256 0.930 . S
H2251 C2260 0.930 . S
H2252 C2265 0.929 . S
H2253 C2263 0.929 . S
H2254 C2258 0.929 . S
H2255 C2264 0.929 . S
C2256 H2250 0.930 . S
C2256 C2257 1.367 . S
C2256 C2264 1.378 . S
C2257 C2256 1.367 . S
C2257 C2265 1.433 . S
C2258 H2254 0.929 . S
C2258 C2260 1.378 . S
C2258 C2262 1.350 . S
C2259 C2262 1.463 . S
C2259 C2264 1.350 . S
C2259 N2267 1.427 . S
C2260 H2251 0.930 . S
C2260 C2258 1.378 . S
C2260 C2261 1.367 . S
C2261 C2260 1.367 . S
C2261 C2263 1.433 . S
C2262 C2258 1.350 . S
C2262 C2259 1.463 . S
C2262 N2266 1.427 . S
C2263 H2253 0.929 . S
C2263 C2261 1.433 . S
C2263 N2266 1.384 . S
C2264 H2255 0.929 . S
C2264 C2256 1.378 . S
C2264 C2259 1.350 . S
C2265 H2252 0.929 . S
C2265 C2257 1.433 . S
C2265 N2267 1.384 . S
N2266 C2262 1.427 . S
N2266 C2263 1.384 . S
N2267 C2259 1.427 . S
N2267 C2265 1.384 . S
H2268 C2274 0.930 . S
H2269 C2278 0.930 . S
H2270 C2283 0.929 . S
H2271 C2281 0.929 . S
H2272 C2276 0.929 . S
H2273 C2282 0.929 . S
C2274 H2268 0.930 . S
C2274 C2275 1.367 . S
C2274 C2282 1.378 . S
C2275 C2274 1.367 . S
C2275 C2283 1.433 . S
C2276 H2272 0.929 . S
C2276 C2278 1.378 . S
C2276 C2280 1.350 . S
C2277 C2280 1.463 . S
C2277 C2282 1.350 . S
C2277 N2285 1.427 . S
C2278 H2269 0.930 . S
C2278 C2276 1.378 . S
C2278 C2279 1.367 . S
C2279 C2278 1.367 . S
C2279 C2281 1.433 . S
C2280 C2276 1.350 . S
C2280 C2277 1.463 . S
C2280 N2284 1.427 . S
C2281 H2271 0.929 . S
C2281 C2279 1.433 . S
C2281 N2284 1.384 . S
C2282 H2273 0.929 . S
C2282 C2274 1.378 . S
C2282 C2277 1.350 . S
C2283 H2270 0.929 . S
C2283 C2275 1.433 . S
C2283 N2285 1.384 . S
N2284 C2280 1.427 . S
N2284 C2281 1.384 . S
N2285 C2277 1.427 . S
N2285 C2283 1.384 . S
H2286 C2292 0.930 . S
H2287 C2296 0.930 . S
H2288 C2301 0.929 . S
H2289 C2299 0.929 . S
H2290 C2294 0.929 . S
H2291 C2300 0.929 . S
C2292 H2286 0.930 . S
C2292 C2293 1.367 . S
C2292 C2300 1.378 . S
C2293 C2292 1.367 . S
C2293 C2301 1.433 . S
C2294 H2290 0.929 . S
C2294 C2296 1.378 . S
C2294 C2298 1.350 . S
C2295 C2298 1.463 1_655 S
C2295 C2300 1.350 . S
C2295 N2303 1.427 . S
C2296 H2287 0.930 . S
C2296 C2294 1.378 . S
C2296 C2297 1.367 . S
C2297 C2296 1.367 . S
C2297 C2299 1.433 . S
C2298 C2294 1.350 . S
C2298 C2295 1.463 1_455 S
C2298 N2302 1.427 . S
C2299 H2289 0.929 . S
C2299 C2297 1.433 . S
C2299 N2302 1.384 . S
C2300 H2291 0.929 . S
C2300 C2292 1.378 . S
C2300 C2295 1.350 . S
C2301 H2288 0.929 . S
C2301 C2293 1.433 . S
C2301 N2303 1.384 . S
N2302 C2298 1.427 . S
N2302 C2299 1.384 . S
N2303 C2295 1.427 . S
N2303 C2301 1.384 . S
C1159 C842 1.543 . S
C1163 C14 1.528 . S
C1177 C734 1.525 . S
C1181 C50 1.544 . S
C1195 C770 1.536 . S
C1199 C86 1.535 . S
C1213 C806 1.525 . S
C1217 C122 1.544 . S
C1231 C158 1.544 . S
C1235 C626 1.525 . S
C1249 C662 1.544 . S
C1253 C194 1.525 . S
C1267 C230 1.540 . S
C1271 C698 1.528 . S
C1285 C266 1.544 . S
C1289 C590 1.526 . S
C1303 C1130 1.544 . S
C1307 C302 1.525 . S
C1321 C338 1.526 . S
C1325 C1022 1.543 . S
C1339 C374 1.533 . S
C1343 C1058 1.538 . S
C1357 C410 1.525 . S
C1361 C1094 1.544 . S
C1375 C446 1.536 . S
C1379 C914 1.536 . S
C1393 C482 1.544 . S
C1397 C950 1.526 . S
C1411 C518 1.536 . S
C1415 C986 1.531 . S
C1429 C554 1.525 . S
C1433 C878 1.544 . S
C1447 C2 1.431 . S
C1451 C434 1.432 . S
C1465 C1046 1.431 . S
C1469 C38 1.431 . S
C1483 C74 1.432 . S
C1487 C506 1.431 . S
C1501 C1118 1.431 . S
C1505 C110 1.431 . S
C1519 C290 1.431 . S
C1523 C146 1.432 . S
C1537 C182 1.432 . S
C1541 C902 1.431 . S
C1555 C218 1.431 . S
C1559 C362 1.432 . S
C1573 C254 1.431 . S
C1577 C974 1.432 . S
C1591 C758 1.431 . S
C1595 C326 1.431 . S
C1609 C830 1.432 . S
C1613 C398 1.430 . S
C1627 C470 1.431 . S
C1631 C614 1.431 . S
C1645 C686 1.432 . S
C1649 C542 1.430 . S
C1663 C1010 1.431 . S
C1667 C578 1.432 . S
C1681 C650 1.432 . S
C1685 C1082 1.431 . S
C1699 C866 1.432 . S
C1703 C722 1.431 . S
C1717 C938 1.432 . S
C1721 C794 1.431 . S
C1735 C147 1.200 . S
C1739 C3 1.204 . S
C1753 C183 1.203 . S
C1757 C39 1.210 . S
C1771 C75 1.200 . S
C1775 C219 1.205 . S
C1789 C111 1.199 . S
C1793 C255 1.205 . S
C1807 C435 1.206 . S
C1811 C291 1.211 . S
C1825 C471 1.199 . S
C1829 C327 1.206 . S
C1843 C507 1.202 . S
C1847 C363 1.210 . S
C1861 C399 1.200 . S
C1865 C543 1.207 . S
C1879 C579 1.201 . S
C1883 C723 1.203 . S
C1897 C615 1.205 . S
C1901 C759 1.199 . S
C1915 C651 1.211 . S
C1919 C795 1.204 . S
C1933 C687 1.202 . S
C1937 C831 1.210 . S
C1951 C1011 1.203 . S
C1955 C867 1.210 . S
C1969 C1047 1.201 . S
C1973 C903 1.200 . S
C1987 C1083 1.205 . S
C1991 C939 1.211 . S
C2005 C1119 1.210 . S
C2009 C975 1.206 . S
C2023 C1084 1.422 . S
C2027 C4 1.410 . S
C2041 C40 1.421 . S
C2045 C544 1.410 . S
C2059 C1012 1.409 . S
C2063 C76 1.424 . S
C2077 C112 1.408 . S
C2081 C472 1.423 . S
C2095 C940 1.409 . S
C2099 C148 1.424 . S
C2113 C184 1.421 . S
C2117 C400 1.409 . S
C2131 C220 1.417 . S
C2135 C868 1.416 . S
C2149 C328 1.417 . S
C2153 C256 1.413 . S
C2167 C292 1.424 . S
C2171 C796 1.409 . S
C2185 C724 1.417 . S
C2189 C364 1.416 . S
C2203 C436 1.424 . S
C2207 C652 1.409 . S
C2221 C508 1.421 . S
C2225 C580 1.412 . S
C2239 C1120 1.413 . S
C2243 C616 1.418 . S
C2257 C688 1.409 . S
C2261 C1048 1.421 . S
C2275 C760 1.410 . S
C2279 C976 1.421 . S
C2293 C904 1.413 . S
C2297 C832 1.418 . S
