# Generated by pormake.
# Topology gme, (4)-cn, num edge types: 1
# Building blocks:
#     Node 0, Type 0, BuildingBlock: GALJAG_clean_sbu_0, # of connection points: 4
#     Node 1, Type 0, BuildingBlock: GALJAG_clean_sbu_0, # of connection points: 4
#     Node 2, Type 0, BuildingBlock: GALJAG_clean_sbu_0, # of connection points: 4
#     Node 3, Type 0, BuildingBlock: GALJAG_clean_sbu_0, # of connection points: 4
#     Node 4, Type 0, BuildingBlock: GALJAG_clean_sbu_0, # of connection points: 4
#     Node 5, Type 0, BuildingBlock: GALJAG_clean_sbu_0, # of connection points: 4
#     Node 6, Type 0, BuildingBlock: GALJAG_clean_sbu_0, # of connection points: 4
#     Node 7, Type 0, BuildingBlock: GALJAG_clean_sbu_0, # of connection points: 4
#     Node 8, Type 0, BuildingBlock: GALJAG_clean_sbu_0, # of connection points: 4
#     Node 9, Type 0, BuildingBlock: GALJAG_clean_sbu_0, # of connection points: 4
#     Node 10, Type 0, BuildingBlock: GALJAG_clean_sbu_0, # of connection points: 4
#     Node 11, Type 0, BuildingBlock: GALJAG_clean_sbu_0, # of connection points: 4
#     Node 12, Type 0, BuildingBlock: GALJAG_clean_sbu_0, # of connection points: 4
#     Node 13, Type 0, BuildingBlock: GALJAG_clean_sbu_0, # of connection points: 4
#     Node 14, Type 0, BuildingBlock: GALJAG_clean_sbu_0, # of connection points: 4
#     Node 15, Type 0, BuildingBlock: GALJAG_clean_sbu_0, # of connection points: 4
#     Node 16, Type 0, BuildingBlock: GALJAG_clean_sbu_0, # of connection points: 4
#     Node 17, Type 0, BuildingBlock: GALJAG_clean_sbu_0, # of connection points: 4
#     Node 18, Type 0, BuildingBlock: GALJAG_clean_sbu_0, # of connection points: 4
#     Node 19, Type 0, BuildingBlock: GALJAG_clean_sbu_0, # of connection points: 4
#     Node 20, Type 0, BuildingBlock: GALJAG_clean_sbu_0, # of connection points: 4
#     Node 21, Type 0, BuildingBlock: GALJAG_clean_sbu_0, # of connection points: 4
#     Node 22, Type 0, BuildingBlock: GALJAG_clean_sbu_0, # of connection points: 4
#     Node 23, Type 0, BuildingBlock: GALJAG_clean_sbu_0, # of connection points: 4
#     Edge 24, Type (0, 0), BuildingBlock: UVAHIK_clean_linker_0, # of connection points: 2
#     Edge 25, Type (0, 0), BuildingBlock: UVAHIK_clean_linker_0, # of connection points: 2
#     Edge 26, Type (0, 0), BuildingBlock: UVAHIK_clean_linker_0, # of connection points: 2
#     Edge 27, Type (0, 0), BuildingBlock: UVAHIK_clean_linker_0, # of connection points: 2
#     Edge 28, Type (0, 0), BuildingBlock: UVAHIK_clean_linker_0, # of connection points: 2
#     Edge 29, Type (0, 0), BuildingBlock: UVAHIK_clean_linker_0, # of connection points: 2
#     Edge 30, Type (0, 0), BuildingBlock: UVAHIK_clean_linker_0, # of connection points: 2
#     Edge 31, Type (0, 0), BuildingBlock: UVAHIK_clean_linker_0, # of connection points: 2
#     Edge 32, Type (0, 0), BuildingBlock: UVAHIK_clean_linker_0, # of connection points: 2
#     Edge 33, Type (0, 0), BuildingBlock: UVAHIK_clean_linker_0, # of connection points: 2
#     Edge 34, Type (0, 0), BuildingBlock: UVAHIK_clean_linker_0, # of connection points: 2
#     Edge 35, Type (0, 0), BuildingBlock: UVAHIK_clean_linker_0, # of connection points: 2
#     Edge 36, Type (0, 0), BuildingBlock: UVAHIK_clean_linker_0, # of connection points: 2
#     Edge 37, Type (0, 0), BuildingBlock: UVAHIK_clean_linker_0, # of connection points: 2
#     Edge 38, Type (0, 0), BuildingBlock: UVAHIK_clean_linker_0, # of connection points: 2
#     Edge 39, Type (0, 0), BuildingBlock: UVAHIK_clean_linker_0, # of connection points: 2
#     Edge 40, Type (0, 0), BuildingBlock: UVAHIK_clean_linker_0, # of connection points: 2
#     Edge 41, Type (0, 0), BuildingBlock: UVAHIK_clean_linker_0, # of connection points: 2
#     Edge 42, Type (0, 0), BuildingBlock: UVAHIK_clean_linker_0, # of connection points: 2
#     Edge 43, Type (0, 0), BuildingBlock: UVAHIK_clean_linker_0, # of connection points: 2
#     Edge 44, Type (0, 0), BuildingBlock: UVAHIK_clean_linker_0, # of connection points: 2
#     Edge 45, Type (0, 0), BuildingBlock: UVAHIK_clean_linker_0, # of connection points: 2
#     Edge 46, Type (0, 0), BuildingBlock: UVAHIK_clean_linker_0, # of connection points: 2
#     Edge 47, Type (0, 0), BuildingBlock: UVAHIK_clean_linker_0, # of connection points: 2
#     Edge 48, Type (0, 0), BuildingBlock: UVAHIK_clean_linker_0, # of connection points: 2
#     Edge 49, Type (0, 0), BuildingBlock: UVAHIK_clean_linker_0, # of connection points: 2
#     Edge 50, Type (0, 0), BuildingBlock: UVAHIK_clean_linker_0, # of connection points: 2
#     Edge 51, Type (0, 0), BuildingBlock: UVAHIK_clean_linker_0, # of connection points: 2
#     Edge 52, Type (0, 0), BuildingBlock: UVAHIK_clean_linker_0, # of connection points: 2
#     Edge 53, Type (0, 0), BuildingBlock: UVAHIK_clean_linker_0, # of connection points: 2
#     Edge 54, Type (0, 0), BuildingBlock: UVAHIK_clean_linker_0, # of connection points: 2
#     Edge 55, Type (0, 0), BuildingBlock: UVAHIK_clean_linker_0, # of connection points: 2
#     Edge 56, Type (0, 0), BuildingBlock: UVAHIK_clean_linker_0, # of connection points: 2
#     Edge 57, Type (0, 0), BuildingBlock: UVAHIK_clean_linker_0, # of connection points: 2
#     Edge 58, Type (0, 0), BuildingBlock: UVAHIK_clean_linker_0, # of connection points: 2
#     Edge 59, Type (0, 0), BuildingBlock: UVAHIK_clean_linker_0, # of connection points: 2
#     Edge 60, Type (0, 0), BuildingBlock: UVAHIK_clean_linker_0, # of connection points: 2
#     Edge 61, Type (0, 0), BuildingBlock: UVAHIK_clean_linker_0, # of connection points: 2
#     Edge 62, Type (0, 0), BuildingBlock: UVAHIK_clean_linker_0, # of connection points: 2
#     Edge 63, Type (0, 0), BuildingBlock: UVAHIK_clean_linker_0, # of connection points: 2
#     Edge 64, Type (0, 0), BuildingBlock: UVAHIK_clean_linker_0, # of connection points: 2
#     Edge 65, Type (0, 0), BuildingBlock: UVAHIK_clean_linker_0, # of connection points: 2
#     Edge 66, Type (0, 0), BuildingBlock: UVAHIK_clean_linker_0, # of connection points: 2
#     Edge 67, Type (0, 0), BuildingBlock: UVAHIK_clean_linker_0, # of connection points: 2
#     Edge 68, Type (0, 0), BuildingBlock: UVAHIK_clean_linker_0, # of connection points: 2
#     Edge 69, Type (0, 0), BuildingBlock: UVAHIK_clean_linker_0, # of connection points: 2
#     Edge 70, Type (0, 0), BuildingBlock: UVAHIK_clean_linker_0, # of connection points: 2
#     Edge 71, Type (0, 0), BuildingBlock: UVAHIK_clean_linker_0, # of connection points: 2
# Relax obj value: 0.080
# Max RMSD: 0.062
# Mean RMSD: 0.062
data_MOF--net-gme--node1-GALJAG_clean_sbu_0--edge1-UVAHIK_clean_linker_0
_symmetry_space_group_name_H-M    P1
_symmetry_Int_Tables_number       1
_symmetry_cell_setting            triclinic
loop_
_symmetry_equiv_pos_as_xyz
'x, y, z'
_cell_length_a     74.627314
_cell_length_b     74.601429
_cell_length_c     72.194667
_cell_angle_alpha  90.021955
_cell_angle_beta   90.027565
_cell_angle_gamma 119.98969
loop_
_atom_site_label
_atom_site_type_symbol
_atom_site_fract_x
_atom_site_fract_y
_atom_site_fract_z
_atom_type_partial_charge
In0 In 0.4017 0.06888 0.11811 0.0
O1 O 0.37583 0.05187 0.13961 0.0
O2 O 0.40699 0.06412 0.14815 0.0
C3 C 0.3825 0.04919 0.08661 0.0
C4 C 0.40276 0.10553 0.1193 0.0
C5 C 0.43683 0.06747 0.1139 0.0
O6 O 0.37829 0.04022 0.10212 0.0
O7 O 0.39618 0.06807 0.08705 0.0
O8 O 0.43639 0.08415 0.11286 0.0
O9 O 0.4195 0.05151 0.11671 0.0
C10 C 0.38818 0.05434 0.1526 0.0
O11 O 0.41867 0.10396 0.12155 0.0
O12 O 0.3863 0.08861 0.11655 0.0
In13 In 0.33376 0.40632 0.61494 0.0
O14 O 0.31431 0.42188 0.61179 0.0
O15 O 0.29928 0.39086 0.62151 0.0
C16 C 0.36986 0.44223 0.61173 0.0
C17 C 0.33655 0.39254 0.64882 0.0
C18 C 0.33159 0.38665 0.58286 0.0
O19 O 0.35294 0.4415 0.61527 0.0
O20 O 0.36854 0.42482 0.60962 0.0
O21 O 0.33887 0.38362 0.59753 0.0
O22 O 0.32536 0.39946 0.58442 0.0
C23 C 0.29771 0.40641 0.61721 0.0
O24 O 0.32755 0.38037 0.63547 0.0
O25 O 0.34404 0.41143 0.64501 0.0
In26 In 0.92601 0.33182 0.11126 0.0
O27 O 0.94334 0.32813 0.13603 0.0
O28 O 0.92161 0.33804 0.1411 0.0
C29 C 0.94799 0.33015 0.08239 0.0
C30 C 0.89054 0.29521 0.11006 0.0
C31 C 0.92871 0.36856 0.104 0.0
O32 O 0.9558 0.33588 0.09832 0.0
O33 O 0.92919 0.32509 0.0812 0.0
O34 O 0.91189 0.35161 0.10307 0.0
O35 O 0.94419 0.36697 0.10853 0.0
C36 C 0.93439 0.33347 0.14782 0.0
O37 O 0.89112 0.31228 0.10793 0.0
O38 O 0.9079 0.29659 0.11278 0.0
In39 In 0.59959 0.93328 0.6159 0.0
O40 O 0.58579 0.89897 0.61013 0.0
O41 O 0.61845 0.91701 0.61369 0.0
C42 C 0.56333 0.93323 0.61756 0.0
C43 C 0.61448 0.94394 0.65066 0.0
C44 C 0.61785 0.95345 0.5844 0.0
O45 O 0.5643 0.91686 0.61715 0.0
O46 O 0.58063 0.94965 0.61718 0.0
O47 O 0.62493 0.96093 0.60018 0.0
O48 O 0.6016 0.936 0.58458 0.0
C49 C 0.60291 0.89939 0.61064 0.0
O50 O 0.6205 0.95699 0.63768 0.0
O51 O 0.60096 0.92585 0.64611 0.0
In52 In 0.6653 0.59445 0.11314 0.0
O53 O 0.67005 0.61603 0.13772 0.0
O54 O 0.65372 0.58357 0.1422 0.0
C55 C 0.66721 0.61838 0.08434 0.0
C56 C 0.70181 0.59527 0.11383 0.0
C57 C 0.62982 0.559 0.10598 0.0
O58 O 0.65959 0.61893 0.09978 0.0
O59 O 0.67417 0.6061 0.0836 0.0
O60 O 0.6468 0.55954 0.1087 0.0
O61 O 0.63082 0.57639 0.10661 0.0
C62 C 0.66065 0.60134 0.14905 0.0
O63 O 0.68556 0.5803 0.10721 0.0
O64 O 0.6997 0.60994 0.11998 0.0
In65 In 0.06583 0.66554 0.61258 0.0
O66 O 0.04895 0.67084 0.63682 0.0
O67 O 0.06216 0.65181 0.64125 0.0
C68 C 0.04325 0.66838 0.58471 0.0
C69 C 0.10185 0.70166 0.61288 0.0
C70 C 0.06916 0.63204 0.60435 0.0
O71 O 0.03513 0.65564 0.5978 0.0
O72 O 0.06259 0.67974 0.5858 0.0
O73 O 0.0841 0.64864 0.61048 0.0
O74 O 0.05261 0.63246 0.602 0.0
C75 C 0.0523 0.65986 0.648 0.0
O76 O 0.09956 0.68588 0.60434 0.0
O77 O 0.08597 0.69921 0.62132 0.0
In78 In 0.92918 0.5941 0.38134 0.0
O79 O 0.94692 0.61508 0.35675 0.0
O80 O 0.93027 0.58255 0.35262 0.0
C81 C 0.94877 0.61979 0.40998 0.0
C82 C 0.8929 0.59333 0.37818 0.0
C83 C 0.93049 0.55999 0.3915 0.0
O84 O 0.95842 0.61825 0.3963 0.0
O85 O 0.92939 0.60866 0.40907 0.0
O86 O 0.9137 0.55996 0.38924 0.0
O87 O 0.94657 0.57728 0.38892 0.0
C88 C 0.94156 0.60017 0.34565 0.0
O89 O 0.89428 0.57846 0.38493 0.0
O90 O 0.90983 0.60857 0.37298 0.0
In91 In 0.33501 0.92905 0.87852 0.0
O92 O 0.31451 0.89447 0.88302 0.0
O93 O 0.29981 0.91244 0.87935 0.0
C94 C 0.37171 0.93015 0.87614 0.0
C95 C 0.33075 0.93992 0.84393 0.0
C96 C 0.33659 0.94763 0.91103 0.0
O97 O 0.35477 0.91358 0.87822 0.0
O98 O 0.37019 0.94622 0.87537 0.0
O99 O 0.33753 0.95612 0.89566 0.0
O100 O 0.33501 0.93005 0.9099 0.0
C101 C 0.29776 0.89476 0.88196 0.0
O102 O 0.33604 0.9525 0.85729 0.0
O103 O 0.32789 0.92227 0.84808 0.0
In104 In 0.40132 0.33269 0.37909 0.0
O105 O 0.41576 0.31242 0.38297 0.0
O106 O 0.3834 0.29741 0.37762 0.0
C107 C 0.43636 0.36955 0.38332 0.0
C108 C 0.39127 0.33241 0.34314 0.0
C109 C 0.37988 0.33183 0.40948 0.0
O110 O 0.43598 0.35251 0.3844 0.0
O111 O 0.41908 0.36806 0.37999 0.0
O112 O 0.37569 0.33575 0.39357 0.0
O113 O 0.39463 0.32817 0.40993 0.0
C114 C 0.39909 0.29558 0.3806 0.0
O115 O 0.37977 0.33208 0.35612 0.0
O116 O 0.40774 0.33313 0.34835 0.0
In117 In 0.07167 0.40818 0.8795 0.0
O118 O 0.10645 0.4221 0.88196 0.0
O119 O 0.08803 0.38935 0.87921 0.0
C120 C 0.07025 0.44357 0.88267 0.0
C121 C 0.05979 0.39624 0.84417 0.0
C122 C 0.05406 0.38831 0.9113 0.0
O123 O 0.087 0.44332 0.882 0.0
O124 O 0.05421 0.426 0.88157 0.0
O125 O 0.04516 0.38206 0.89582 0.0
O126 O 0.07157 0.40445 0.91062 0.0
C127 C 0.1059 0.40493 0.881 0.0
O128 O 0.04769 0.38773 0.85765 0.0
O129 O 0.07752 0.41068 0.84856 0.0
In130 In 0.66262 0.06733 0.37574 0.0
O131 O 0.68241 0.10222 0.37794 0.0
O132 O 0.69787 0.0848 0.37556 0.0
C133 C 0.62576 0.06616 0.37646 0.0
C134 C 0.66422 0.05335 0.34164 0.0
C135 C 0.66481 0.05117 0.40847 0.0
O136 O 0.64278 0.08273 0.37483 0.0
O137 O 0.62727 0.05011 0.37752 0.0
O138 O 0.66236 0.04171 0.39335 0.0
O139 O 0.66609 0.0686 0.40702 0.0
C140 C 0.69941 0.10241 0.37704 0.0
O141 O 0.65829 0.04159 0.35558 0.0
O142 O 0.66894 0.07177 0.34491 0.0
In143 In 0.5929 0.66481 0.87798 0.0
O144 O 0.6141 0.66119 0.857 0.0
O145 O 0.59706 0.67541 0.84811 0.0
C146 C 0.60967 0.6639 0.91079 0.0
C147 C 0.59372 0.70091 0.88293 0.0
C148 C 0.55747 0.62799 0.87497 0.0
O149 O 0.61874 0.66541 0.89562 0.0
O150 O 0.59223 0.66259 0.90929 0.0
O151 O 0.55785 0.64507 0.87502 0.0
O152 O 0.57497 0.62943 0.87638 0.0
C153 C 0.60974 0.6696 0.84394 0.0
O154 O 0.57707 0.68379 0.88178 0.0
O155 O 0.61004 0.69983 0.88157 0.0
In156 In 0.60076 0.93176 0.87603 0.0
O157 O 0.62147 0.95611 0.8546 0.0
O158 O 0.6059 0.92449 0.84668 0.0
C159 C 0.6175 0.95388 0.90722 0.0
C160 C 0.59902 0.89566 0.88409 0.0
C161 C 0.56484 0.93143 0.87089 0.0
O162 O 0.62837 0.95184 0.89497 0.0
O163 O 0.59845 0.94491 0.9037 0.0
O164 O 0.5656 0.9156 0.87586 0.0
O165 O 0.58224 0.94742 0.86831 0.0
C166 C 0.61792 0.94299 0.84204 0.0
O167 O 0.58305 0.89706 0.88152 0.0
O168 O 0.61588 0.91253 0.88285 0.0
In169 In 0.66525 0.59521 0.38251 0.0
O170 O 0.6695 0.61655 0.35791 0.0
O171 O 0.65413 0.58407 0.3534 0.0
C172 C 0.66901 0.61941 0.41172 0.0
C173 C 0.70118 0.59497 0.38068 0.0
C174 C 0.62878 0.56113 0.39016 0.0
O175 O 0.66207 0.6211 0.39627 0.0
O176 O 0.67427 0.60579 0.41227 0.0
O177 O 0.6456 0.56095 0.38944 0.0
O178 O 0.63043 0.57859 0.38732 0.0
C179 C 0.66058 0.60178 0.34655 0.0
O180 O 0.68457 0.57961 0.38624 0.0
O181 O 0.69969 0.61051 0.37613 0.0
In182 In 0.06637 0.66896 0.88102 0.0
O183 O 0.10084 0.68826 0.88686 0.0
O184 O 0.08617 0.70313 0.87379 0.0
C185 C 0.0668 0.63402 0.88976 0.0
C186 C 0.05432 0.66367 0.84517 0.0
C187 C 0.04491 0.67277 0.90935 0.0
O188 O 0.08311 0.65098 0.88667 0.0
O189 O 0.05032 0.6348 0.88885 0.0
O190 O 0.03612 0.66119 0.89564 0.0
O191 O 0.06436 0.68252 0.90864 0.0
C192 C 0.10267 0.70473 0.88016 0.0
O193 O 0.04972 0.67381 0.85629 0.0
O194 O 0.0648 0.65642 0.85216 0.0
In195 In 0.39712 0.06578 0.37907 0.0
O196 O 0.413 0.10082 0.38187 0.0
O197 O 0.38132 0.08475 0.37395 0.0
C198 C 0.43294 0.06568 0.38344 0.0
C199 C 0.38481 0.05063 0.34453 0.0
C200 C 0.37686 0.04724 0.41056 0.0
O201 O 0.43229 0.08201 0.3804 0.0
O202 O 0.4155 0.04941 0.38449 0.0
O203 O 0.37469 0.03725 0.39583 0.0
O204 O 0.38904 0.06645 0.40932 0.0
C205 C 0.39717 0.1019 0.37761 0.0
O206 O 0.37201 0.04752 0.35727 0.0
O207 O 0.4035 0.06124 0.34926 0.0
In208 In 0.33017 0.39769 0.87434 0.0
O209 O 0.31141 0.41377 0.8782 0.0
O210 O 0.29519 0.38081 0.87797 0.0
C211 C 0.36625 0.43368 0.87114 0.0
C212 C 0.32717 0.38141 0.84027 0.0
C213 C 0.33188 0.38126 0.90712 0.0
O214 O 0.34892 0.43278 0.87152 0.0
O215 O 0.3654 0.41639 0.87221 0.0
O216 O 0.32581 0.37055 0.8925 0.0
O217 O 0.33717 0.40003 0.90505 0.0
C218 C 0.29423 0.39719 0.8793 0.0
O219 O 0.33682 0.37861 0.85328 0.0
O220 O 0.31909 0.39214 0.84456 0.0
In221 In 0.92736 0.33168 0.38174 0.0
O222 O 0.94573 0.32911 0.35722 0.0
O223 O 0.92467 0.33989 0.3522 0.0
C224 C 0.94672 0.32787 0.41172 0.0
C225 C 0.89197 0.29507 0.3803 0.0
C226 C 0.92957 0.36799 0.38991 0.0
O227 O 0.95617 0.33531 0.39666 0.0
O228 O 0.92775 0.32221 0.41141 0.0
O229 O 0.91268 0.35106 0.38949 0.0
O230 O 0.94537 0.36659 0.38631 0.0
C231 C 0.93745 0.33531 0.3455 0.0
O232 O 0.8924 0.31184 0.38396 0.0
O233 O 0.90944 0.29677 0.37741 0.0
In234 In 0.0672 0.40319 0.61647 0.0
O235 O 0.10215 0.41913 0.61247 0.0
O236 O 0.08706 0.3887 0.62349 0.0
C237 C 0.06861 0.43959 0.61101 0.0
C238 C 0.05081 0.39108 0.65073 0.0
C239 C 0.04804 0.38137 0.58567 0.0
O240 O 0.08379 0.43833 0.61714 0.0
O241 O 0.05259 0.42242 0.60768 0.0
O242 O 0.03855 0.37918 0.60071 0.0
O243 O 0.06709 0.39439 0.58626 0.0
C244 C 0.10385 0.40418 0.61846 0.0
O245 O 0.05054 0.37852 0.63889 0.0
O246 O 0.05906 0.40952 0.64522 0.0
In247 In 0.66408 0.06513 0.11872 0.0
O248 O 0.65803 0.03896 0.13907 0.0
O249 O 0.67547 0.07005 0.14834 0.0
C250 C 0.66108 0.04707 0.08561 0.0
C251 C 0.69965 0.10106 0.1139 0.0
C252 C 0.62823 0.06532 0.1223 0.0
O253 O 0.66988 0.04415 0.09927 0.0
O254 O 0.65383 0.05879 0.0888 0.0
O255 O 0.64542 0.08161 0.12001 0.0
O256 O 0.62915 0.04889 0.12318 0.0
C257 C 0.6678 0.05117 0.15219 0.0
O258 O 0.68255 0.10021 0.11674 0.0
O259 O 0.6988 0.08374 0.11339 0.0
In260 In 0.5999 0.67021 0.61754 0.0
O261 O 0.62019 0.66598 0.63916 0.0
O262 O 0.6011 0.67796 0.64798 0.0
C263 C 0.61813 0.67046 0.58528 0.0
C264 C 0.60294 0.70743 0.61361 0.0
C265 C 0.56378 0.63382 0.61761 0.0
O266 O 0.62551 0.66933 0.6007 0.0
O267 O 0.60168 0.67124 0.58627 0.0
O268 O 0.56467 0.65109 0.61888 0.0
O269 O 0.58112 0.63485 0.61646 0.0
C270 C 0.61419 0.67275 0.65238 0.0
O271 O 0.58585 0.69068 0.61305 0.0
O272 O 0.61859 0.7054 0.61621 0.0
In273 In 0.93076 0.59606 0.1123 0.0
O274 O 0.89604 0.58077 0.10766 0.0
O275 O 0.91119 0.61015 0.12104 0.0
C276 C 0.93182 0.56181 0.10209 0.0
C277 C 0.94255 0.60161 0.14816 0.0
C278 C 0.95109 0.62229 0.08419 0.0
O279 O 0.9151 0.56199 0.10401 0.0
O280 O 0.94796 0.57896 0.10499 0.0
O281 O 0.96042 0.61993 0.09771 0.0
O282 O 0.93167 0.6117 0.085 0.0
C283 C 0.89444 0.59527 0.11502 0.0
O284 O 0.94815 0.61668 0.13722 0.0
O285 O 0.93129 0.5841 0.14096 0.0
In286 In 0.33187 0.92842 0.61704 0.0
O287 O 0.33478 0.95211 0.6389 0.0
O288 O 0.32514 0.92137 0.64754 0.0
C289 C 0.33188 0.94777 0.58551 0.0
C290 C 0.29491 0.89381 0.61308 0.0
C291 C 0.36872 0.92969 0.61795 0.0
O292 O 0.33165 0.95494 0.60129 0.0
O293 O 0.33222 0.93106 0.58573 0.0
O294 O 0.35166 0.91299 0.61803 0.0
O295 O 0.36723 0.94578 0.61741 0.0
C296 C 0.32911 0.9393 0.65208 0.0
O297 O 0.31182 0.89416 0.61051 0.0
O298 O 0.29665 0.911 0.61748 0.0
In299 In 0.39977 0.33279 0.11508 0.0
O300 O 0.375 0.31844 0.13778 0.0
O301 O 0.40032 0.34846 0.14243 0.0
C302 C 0.38055 0.3322 0.08325 0.0
C303 C 0.40222 0.29794 0.11634 0.0
C304 C 0.43605 0.36806 0.11053 0.0
O305 O 0.37394 0.33397 0.09886 0.0
O306 O 0.39664 0.33073 0.08385 0.0
O307 O 0.43498 0.35083 0.11336 0.0
O308 O 0.41883 0.36744 0.11003 0.0
C309 C 0.38385 0.3336 0.14866 0.0
O310 O 0.4165 0.31504 0.12238 0.0
O311 O 0.38687 0.2985 0.10975 0.0
C312 C 0.39357 0.04358 0.31318 0.0
C313 C 0.37875 0.04319 0.32538 0.0
C314 C 0.38865 0.0381 0.29466 0.0
C315 C 0.35616 0.03909 0.25799 0.0
H316 H 0.37924 0.01037 0.231 0.0
C317 C 0.36132 0.0402 0.17773 0.0
C318 C 0.38154 0.0467 0.17161 0.0
C319 C 0.35581 0.03425 0.19621 0.0
C320 C 0.37255 0.01828 0.23835 0.0
H321 H 0.34699 0.03628 0.32795 0.0
H322 H 0.33842 0.02699 0.2952 0.0
H323 H 0.37862 0.00948 0.26479 0.0
H324 H 0.41157 0.05141 0.17974 0.0
H325 H 0.402 0.04102 0.21172 0.0
H326 H 0.35112 0.04881 0.23153 0.0
C327 C 0.35381 0.03143 0.30012 0.0
C328 C 0.37219 0.01776 0.25766 0.0
C329 C 0.35868 0.03668 0.31881 0.0
C330 C 0.39589 0.04653 0.18406 0.0
C331 C 0.39034 0.04038 0.20236 0.0
C332 C 0.35653 0.03962 0.23862 0.0
C333 C 0.36884 0.03228 0.28784 0.0
C334 C 0.36482 0.0289 0.26768 0.0
C335 C 0.37034 0.0344 0.20871 0.0
C336 C 0.36556 0.02996 0.22867 0.0
H337 H 0.40914 0.04848 0.31787 0.0
H338 H 0.40067 0.03924 0.2855 0.0
H339 H 0.35047 0.04789 0.26536 0.0
H340 H 0.34997 0.0402 0.16838 0.0
H341 H 0.34028 0.02971 0.20076 0.0
C342 C 0.34995 0.39992 0.68115 0.0
C343 C 0.33753 0.38545 0.66767 0.0
C344 C 0.34974 0.39375 0.69941 0.0
C345 C 0.31522 0.35535 0.73243 0.0
H346 H 0.36378 0.38144 0.76397 0.0
C347 C 0.34011 0.36751 0.81518 0.0
C348 C 0.32635 0.374 0.82118 0.0
C349 C 0.34088 0.36305 0.79645 0.0
C350 C 0.3501 0.37365 0.75535 0.0
H351 H 0.31572 0.35304 0.66251 0.0
H352 H 0.31518 0.34223 0.69466 0.0
H353 H 0.3678 0.3848 0.73041 0.0
H354 H 0.30182 0.37975 0.81263 0.0
H355 H 0.30311 0.37197 0.78014 0.0
H356 H 0.29747 0.34488 0.75741 0.0
C357 C 0.32506 0.35836 0.69103 0.0
C358 C 0.3524 0.37575 0.73614 0.0
C359 C 0.32541 0.36452 0.67265 0.0
C360 C 0.31265 0.37487 0.80838 0.0
C361 C 0.31326 0.37023 0.78977 0.0
C362 C 0.31292 0.35332 0.75164 0.0
C363 C 0.33701 0.37299 0.70464 0.0
C364 C 0.33494 0.36728 0.72452 0.0
C365 C 0.32771 0.36475 0.78351 0.0
C366 C 0.33029 0.3631 0.76332 0.0
H367 H 0.35949 0.41615 0.6777 0.0
H368 H 0.35889 0.40546 0.7096 0.0
H369 H 0.30146 0.3487 0.72386 0.0
H370 H 0.35083 0.3667 0.82479 0.0
H371 H 0.3521 0.35878 0.79201 0.0
C372 C 0.92677 0.33951 0.17999 0.0
C373 C 0.93775 0.33366 0.168 0.0
C374 C 0.9287 0.33869 0.1991 0.0
C375 C 0.96149 0.33814 0.23657 0.0
H376 H 0.91022 0.31572 0.26426 0.0
C377 C 0.9536 0.32879 0.31756 0.0
C378 C 0.94103 0.33593 0.32533 0.0
C379 C 0.9551 0.32775 0.29826 0.0
C380 C 0.92467 0.32205 0.25673 0.0
H381 H 0.95986 0.32291 0.1666 0.0
H382 H 0.96327 0.32148 0.20034 0.0
H383 H 0.90923 0.31493 0.23059 0.0
H384 H 0.92096 0.34843 0.31906 0.0
H385 H 0.92357 0.34658 0.28569 0.0
H386 H 0.97687 0.34551 0.26299 0.0
C387 C 0.95318 0.3267 0.19481 0.0
C388 C 0.92411 0.32162 0.23746 0.0
C389 C 0.95118 0.32747 0.17554 0.0
C390 C 0.93064 0.34268 0.31353 0.0
C391 C 0.93203 0.34153 0.29439 0.0
C392 C 0.96205 0.33853 0.25599 0.0
C393 C 0.94165 0.33198 0.20675 0.0
C394 C 0.94252 0.33022 0.22715 0.0
C395 C 0.9439 0.33366 0.28655 0.0
C396 C 0.94364 0.33103 0.26619 0.0
H397 H 0.91641 0.34451 0.17463 0.0
H398 H 0.91995 0.34328 0.20794 0.0
H399 H 0.97591 0.34486 0.22896 0.0
H400 H 0.96181 0.32353 0.32636 0.0
H401 H 0.96438 0.32166 0.29252 0.0
C402 C 0.6332 0.96974 0.67595 0.0
C403 C 0.62252 0.94913 0.66972 0.0
C404 C 0.63971 0.97419 0.69443 0.0
C405 C 0.64998 0.95201 0.73604 0.0
H406 H 0.62853 0.98166 0.76388 0.0
C407 C 0.62388 0.93302 0.81078 0.0
C408 C 0.62626 0.94861 0.8231 0.0
C409 C 0.63 0.9377 0.79237 0.0
C410 C 0.63513 0.97381 0.7563 0.0
H411 H 0.61092 0.91715 0.67759 0.0
H412 H 0.62242 0.9249 0.70959 0.0
H413 H 0.62751 0.98172 0.73008 0.0
H414 H 0.63757 0.98147 0.82607 0.0
H415 H 0.64816 0.9897 0.79358 0.0
H416 H 0.65674 0.94329 0.7622 0.0
C417 C 0.6258 0.93762 0.70032 0.0
C418 C 0.63452 0.97384 0.73694 0.0
C419 C 0.61905 0.93317 0.68203 0.0
C420 C 0.63555 0.96915 0.81682 0.0
C421 C 0.64154 0.97385 0.79826 0.0
C422 C 0.65068 0.95205 0.75534 0.0
C423 C 0.63599 0.95813 0.70677 0.0
C424 C 0.64109 0.96216 0.72669 0.0
C425 C 0.63856 0.95809 0.78581 0.0
C426 C 0.64238 0.96215 0.76568 0.0
H427 H 0.63606 0.98232 0.6667 0.0
H428 H 0.6475 0.99013 0.6991 0.0
H429 H 0.65547 0.94318 0.72842 0.0
H430 H 0.61681 0.91705 0.81525 0.0
H431 H 0.62715 0.92514 0.78309 0.0
C432 C 0.67002 0.62416 0.31816 0.0
C433 C 0.65865 0.60464 0.32659 0.0
C434 C 0.66967 0.62605 0.29887 0.0
C435 C 0.66094 0.59434 0.25742 0.0
H436 H 0.65693 0.63731 0.23071 0.0
C437 C 0.64603 0.58712 0.18002 0.0
C438 C 0.65873 0.60435 0.16899 0.0
C439 C 0.64561 0.58911 0.19916 0.0
C440 C 0.65825 0.62535 0.23804 0.0
H441 H 0.637 0.57211 0.3217 0.0
H442 H 0.63615 0.57545 0.2883 0.0
H443 H 0.65688 0.63734 0.26475 0.0
H444 H 0.68019 0.63741 0.16917 0.0
H445 H 0.67962 0.64088 0.20295 0.0
H446 H 0.66229 0.58227 0.23101 0.0
C447 C 0.64574 0.58921 0.29642 0.0
C448 C 0.65823 0.62537 0.25746 0.0
C449 C 0.64616 0.58731 0.31557 0.0
C450 C 0.6703 0.62386 0.17739 0.0
C451 C 0.66993 0.62586 0.19667 0.0
C452 C 0.66095 0.59432 0.23816 0.0
C453 C 0.65793 0.60846 0.2878 0.0
C454 C 0.65917 0.6096 0.26731 0.0
C455 C 0.65798 0.60836 0.20775 0.0
C456 C 0.6592 0.60955 0.22824 0.0
H457 H 0.67975 0.63778 0.32638 0.0
H458 H 0.67923 0.64108 0.29258 0.0
H459 H 0.66228 0.58232 0.26461 0.0
H460 H 0.63672 0.57192 0.17392 0.0
H461 H 0.63589 0.57543 0.2073 0.0
C462 C 0.04066 0.67077 0.67632 0.0
C463 C 0.0467 0.65768 0.66779 0.0
C464 C 0.03814 0.6703 0.69558 0.0
C465 C 0.05798 0.65758 0.73681 0.0
H466 H 0.01465 0.66072 0.76371 0.0
C467 C 0.05168 0.64686 0.81483 0.0
C468 C 0.04892 0.66112 0.82533 0.0
C469 C 0.04874 0.64562 0.79573 0.0
C470 C 0.02692 0.66002 0.75634 0.0
H471 H 0.05334 0.63286 0.67241 0.0
H472 H 0.04868 0.63185 0.70578 0.0
H473 H 0.01399 0.65986 0.7297 0.0
H474 H 0.03995 0.68461 0.82429 0.0
H475 H 0.03514 0.68272 0.79057 0.0
H476 H 0.07111 0.65794 0.76313 0.0
C477 C 0.04638 0.64281 0.69776 0.0
C478 C 0.02653 0.65951 0.73692 0.0
C479 C 0.04897 0.64333 0.67863 0.0
C480 C 0.04223 0.67351 0.81647 0.0
C481 C 0.03941 0.67237 0.79722 0.0
C482 C 0.05839 0.65812 0.75607 0.0
C483 C 0.0416 0.65673 0.70651 0.0
C484 C 0.04192 0.65796 0.72701 0.0
C485 C 0.04318 0.65877 0.78663 0.0
C486 C 0.04273 0.65902 0.76609 0.0
H487 H 0.03879 0.68195 0.66825 0.0
H488 H 0.03447 0.68121 0.70198 0.0
H489 H 0.07038 0.65698 0.72956 0.0
H490 H 0.05655 0.6369 0.82132 0.0
H491 H 0.05126 0.63462 0.78802 0.0
C492 C 0.94262 0.58634 0.17872 0.0
C493 C 0.94752 0.60396 0.1681 0.0
C494 C 0.94507 0.5878 0.19787 0.0
C495 C 0.96908 0.62329 0.23737 0.0
H496 H 0.92189 0.58004 0.26358 0.0
C497 C 0.95519 0.62227 0.31718 0.0
C498 C 0.9468 0.60282 0.32578 0.0
C499 C 0.95777 0.62401 0.29792 0.0
C500 C 0.9353 0.5921 0.2565 0.0
H501 H 0.95979 0.63712 0.16904 0.0
H502 H 0.96386 0.63965 0.20283 0.0
H503 H 0.92201 0.58029 0.22999 0.0
H504 H 0.93583 0.57021 0.32122 0.0
H505 H 0.94061 0.57327 0.28785 0.0
H506 H 0.98224 0.63509 0.26417 0.0
C507 C 0.95824 0.62474 0.19623 0.0
C508 C 0.93538 0.59224 0.23724 0.0
C509 C 0.95586 0.62329 0.17693 0.0
C510 C 0.94207 0.58537 0.31496 0.0
C511 C 0.94472 0.58711 0.29583 0.0
C512 C 0.969 0.62315 0.25679 0.0
C513 C 0.95234 0.60688 0.2069 0.0
C514 C 0.95237 0.60762 0.22743 0.0
C515 C 0.95202 0.60631 0.28703 0.0
C516 C 0.95222 0.60733 0.26652 0.0
H517 H 0.93641 0.57127 0.17227 0.0
H518 H 0.94085 0.57384 0.20568 0.0
H519 H 0.98237 0.63533 0.23016 0.0
H520 H 0.95899 0.63598 0.32523 0.0
H521 H 0.96341 0.639 0.2915 0.0
C522 C 0.31681 0.92894 0.81218 0.0
C523 C 0.32793 0.94503 0.82483 0.0
C524 C 0.31471 0.93328 0.79383 0.0
C525 C 0.34125 0.97065 0.75779 0.0
H526 H 0.28993 0.93646 0.73133 0.0
C527 C 0.33597 0.96513 0.67734 0.0
C528 C 0.32695 0.94448 0.67135 0.0
C529 C 0.33447 0.9696 0.69595 0.0
C530 C 0.30433 0.94628 0.73853 0.0
H531 H 0.34534 0.97833 0.82837 0.0
H532 H 0.34206 0.986 0.79581 0.0
H533 H 0.29004 0.93663 0.76512 0.0
H534 H 0.30882 0.91239 0.67984 0.0
H535 H 0.30605 0.92014 0.71204 0.0
H536 H 0.35572 0.97937 0.73111 0.0
C537 C 0.33482 0.97003 0.80029 0.0
C538 C 0.30439 0.94639 0.75784 0.0
C539 C 0.33666 0.96565 0.81885 0.0
C540 C 0.31598 0.92845 0.68408 0.0
C541 C 0.31423 0.9329 0.70249 0.0
C542 C 0.34119 0.97055 0.7384 0.0
C543 C 0.32386 0.95383 0.78762 0.0
C544 C 0.32301 0.95781 0.76764 0.0
C545 C 0.32357 0.95348 0.70867 0.0
C546 C 0.32288 0.95759 0.72865 0.0
H547 H 0.30986 0.9129 0.81641 0.0
H548 H 0.30647 0.92047 0.78432 0.0
H549 H 0.35583 0.97955 0.76501 0.0
H550 H 0.34453 0.97777 0.66777 0.0
H551 H 0.34185 0.9856 0.7004 0.0
C552 C 0.39731 0.3278 0.31001 0.0
C553 C 0.38581 0.33142 0.32337 0.0
C554 C 0.3922 0.32649 0.2913 0.0
C555 C 0.36869 0.34379 0.257 0.0
H556 H 0.36846 0.30042 0.22715 0.0
C557 C 0.36161 0.31455 0.17578 0.0
C558 C 0.37695 0.33315 0.1679 0.0
C559 C 0.35756 0.31336 0.19478 0.0
C560 C 0.36809 0.31243 0.23529 0.0
H561 H 0.36005 0.33667 0.32765 0.0
H562 H 0.35134 0.33478 0.29464 0.0
H563 H 0.37137 0.29961 0.26073 0.0
H564 H 0.39899 0.36543 0.17337 0.0
H565 H 0.39189 0.36337 0.20649 0.0
H566 H 0.36618 0.35701 0.23143 0.0
C567 C 0.3642 0.33282 0.29879 0.0
C568 C 0.36996 0.31206 0.25449 0.0
C569 C 0.36915 0.33386 0.31762 0.0
C570 C 0.38714 0.35086 0.1791 0.0
C571 C 0.38297 0.34971 0.19805 0.0
C572 C 0.36701 0.34426 0.23772 0.0
C573 C 0.37562 0.32898 0.28549 0.0
C574 C 0.3708 0.328 0.26549 0.0
C575 C 0.36863 0.33079 0.20619 0.0
C576 C 0.36716 0.32882 0.22665 0.0
H577 H 0.41022 0.32584 0.31402 0.0
H578 H 0.40146 0.32382 0.28131 0.0
H579 H 0.36935 0.35628 0.26517 0.0
H580 H 0.35347 0.30066 0.16746 0.0
H581 H 0.34627 0.29862 0.20067 0.0
C582 C 0.0423 0.39938 0.68182 0.0
C583 C 0.04367 0.38517 0.66999 0.0
C584 C 0.03811 0.39499 0.70063 0.0
C585 C 0.02266 0.37911 0.73955 0.0
H586 H 0.06042 0.36416 0.76239 0.0
C587 C 0.03322 0.37767 0.81936 0.0
C588 C 0.05402 0.38989 0.82472 0.0
C589 C 0.02809 0.37253 0.80069 0.0
C590 C 0.04961 0.36811 0.7562 0.0
H591 H 0.04069 0.35478 0.66832 0.0
H592 H 0.0336 0.34719 0.70136 0.0
H593 H 0.05693 0.36307 0.72876 0.0
H594 H 0.08574 0.40581 0.81496 0.0
H595 H 0.07683 0.39661 0.78257 0.0
H596 H 0.01611 0.38505 0.76707 0.0
C597 C 0.03578 0.36173 0.69604 0.0
C598 C 0.04748 0.36732 0.73696 0.0
C599 C 0.03977 0.36604 0.67714 0.0
C600 C 0.06958 0.39643 0.81122 0.0
C601 C 0.06449 0.39103 0.7927 0.0
C602 C 0.02465 0.3797 0.75884 0.0
C603 C 0.03537 0.37637 0.70804 0.0
C604 C 0.03451 0.37348 0.72841 0.0
C605 C 0.04371 0.37918 0.78721 0.0
C606 C 0.03869 0.37489 0.76728 0.0
H607 H 0.04516 0.41422 0.67667 0.0
H608 H 0.03812 0.40668 0.70954 0.0
H609 H 0.01243 0.38378 0.73331 0.0
H610 H 0.02094 0.37245 0.82952 0.0
H611 H 0.01195 0.36338 0.79677 0.0
C612 C 0.67892 0.0613 0.30992 0.0
C613 C 0.66603 0.04651 0.32294 0.0
C614 C 0.68041 0.05536 0.29197 0.0
C615 C 0.65066 0.01903 0.25669 0.0
H616 H 0.70356 0.04374 0.23142 0.0
C617 C 0.65652 0.02383 0.17679 0.0
C618 C 0.66964 0.04427 0.17087 0.0
C619 C 0.65712 0.01826 0.19522 0.0
C620 C 0.68866 0.03655 0.23828 0.0
H621 H 0.64475 0.01388 0.32759 0.0
H622 H 0.64682 0.0035 0.29564 0.0
H623 H 0.70256 0.04465 0.26518 0.0
H624 H 0.69434 0.07457 0.17917 0.0
H625 H 0.69542 0.06496 0.21105 0.0
H626 H 0.63678 0.01233 0.22975 0.0
C627 C 0.65598 0.01963 0.29957 0.0
C628 C 0.68811 0.03702 0.25757 0.0
C629 C 0.65482 0.02556 0.31776 0.0
C630 C 0.68398 0.05873 0.18336 0.0
C631 C 0.68474 0.05314 0.20161 0.0
C632 C 0.65121 0.01868 0.23733 0.0
C633 C 0.6688 0.03454 0.28654 0.0
C634 C 0.66914 0.02915 0.26689 0.0
C635 C 0.67107 0.03297 0.20787 0.0
C636 C 0.67027 0.02837 0.22794 0.0
H637 H 0.68781 0.07755 0.31357 0.0
H638 H 0.69015 0.06721 0.28212 0.0
H639 H 0.63585 0.01292 0.26357 0.0
H640 H 0.64531 0.0124 0.16739 0.0
H641 H 0.64643 0.0026 0.19967 0.0
C642 C 0.63126 0.66358 0.67775 0.0
C643 C 0.62162 0.67456 0.67159 0.0
C644 C 0.63688 0.66449 0.69641 0.0
C645 C 0.64632 0.69528 0.73916 0.0
H646 H 0.62202 0.64283 0.76517 0.0
C647 C 0.61615 0.68551 0.81268 0.0
C648 C 0.61829 0.67224 0.82508 0.0
C649 C 0.62286 0.68726 0.79443 0.0
C650 C 0.62938 0.65761 0.75811 0.0
H651 H 0.61103 0.69567 0.67981 0.0
H652 H 0.62097 0.69744 0.71208 0.0
H653 H 0.62274 0.6433 0.73131 0.0
H654 H 0.62958 0.6507 0.82832 0.0
H655 H 0.64107 0.6535 0.79602 0.0
H656 H 0.65199 0.70955 0.76586 0.0
C657 C 0.62423 0.68814 0.70264 0.0
C658 C 0.62979 0.65788 0.73872 0.0
C659 C 0.61836 0.68698 0.68417 0.0
C660 C 0.62776 0.66107 0.819 0.0
C661 C 0.63427 0.66262 0.80057 0.0
C662 C 0.64594 0.69501 0.75848 0.0
C663 C 0.63331 0.67673 0.70903 0.0
C664 C 0.63741 0.67667 0.7291 0.0
C665 C 0.63173 0.67564 0.78808 0.0
C666 C 0.63661 0.67613 0.76812 0.0
H667 H 0.63391 0.65387 0.66829 0.0
H668 H 0.64383 0.65553 0.70101 0.0
H669 H 0.65262 0.71 0.73207 0.0
H670 H 0.60895 0.69436 0.81698 0.0
H671 H 0.62035 0.69716 0.78509 0.0
C672 C 0.42177 0.14389 0.124 0.0
C673 C 0.40342 0.12563 0.11945 0.0
C674 C 0.42246 0.16296 0.12378 0.0
C675 C 0.3967 0.18916 0.10327 0.0
H676 H 0.42177 0.22815 0.14372 0.0
C677 C 0.38627 0.26 0.11087 0.0
C678 C 0.40327 0.27872 0.11681 0.0
C679 C 0.3871 0.24174 0.11113 0.0
C680 C 0.41498 0.21757 0.13219 0.0
H681 H 0.37138 0.11293 0.1112 0.0
H682 H 0.3726 0.14622 0.11075 0.0
H683 H 0.42176 0.19542 0.14433 0.0
H684 H 0.4345 0.29305 0.12767 0.0
H685 H 0.43612 0.26112 0.12788 0.0
H686 H 0.39001 0.21123 0.09103 0.0
C687 C 0.38648 0.14582 0.11439 0.0
C688 C 0.41494 0.19881 0.13257 0.0
C689 C 0.38575 0.12676 0.11475 0.0
C690 C 0.42114 0.27882 0.12306 0.0
C691 C 0.42202 0.26053 0.12326 0.0
C692 C 0.39684 0.20793 0.10283 0.0
C693 C 0.40485 0.16412 0.11884 0.0
C694 C 0.4056 0.18434 0.1182 0.0
C695 C 0.40501 0.24178 0.11725 0.0
C696 C 0.40577 0.22226 0.11738 0.0
H697 H 0.43563 0.14347 0.12768 0.0
H698 H 0.43686 0.17684 0.12715 0.0
H699 H 0.38972 0.17845 0.09184 0.0
H700 H 0.37223 0.25942 0.10606 0.0
H701 H 0.37359 0.22753 0.10673 0.0
C702 C 0.14205 0.42233 0.61333 0.0
C703 C 0.12385 0.40468 0.6192 0.0
C704 C 0.16093 0.42269 0.61365 0.0
C705 C 0.18753 0.39713 0.63459 0.0
H706 H 0.22469 0.4211 0.59281 0.0
C707 C 0.25989 0.38886 0.62436 0.0
C708 C 0.27797 0.40643 0.61815 0.0
C709 C 0.24113 0.38879 0.62494 0.0
C710 C 0.21459 0.41456 0.60468 0.0
H711 H 0.11111 0.3736 0.63013 0.0
H712 H 0.14409 0.37413 0.63052 0.0
H713 H 0.19185 0.4207 0.59303 0.0
H714 H 0.29069 0.43776 0.60784 0.0
H715 H 0.25798 0.43769 0.60896 0.0
H716 H 0.21028 0.39091 0.64618 0.0
C717 C 0.14381 0.38779 0.62587 0.0
C718 C 0.19578 0.41434 0.60481 0.0
C719 C 0.12491 0.38744 0.62555 0.0
C720 C 0.27698 0.42397 0.61264 0.0
C721 C 0.25823 0.42388 0.61318 0.0
C722 C 0.20635 0.39733 0.63445 0.0
C723 C 0.16202 0.40539 0.61984 0.0
C724 C 0.18204 0.40564 0.61977 0.0
C725 C 0.24009 0.40627 0.61927 0.0
C726 C 0.2201 0.40607 0.6195 0.0
H727 H 0.14171 0.43589 0.60843 0.0
H728 H 0.17472 0.43659 0.60916 0.0
H729 H 0.17741 0.39056 0.64644 0.0
H730 H 0.26019 0.3751 0.62867 0.0
H731 H 0.22738 0.3749 0.62951 0.0
C732 C 0.87123 0.25651 0.11046 0.0
C733 C 0.87103 0.27522 0.10954 0.0
C734 C 0.8527 0.2376 0.11014 0.0
C735 C 0.79736 0.21449 0.12022 0.0
H736 H 0.79157 0.1691 0.08969 0.0
C737 C 0.71909 0.13962 0.11175 0.0
C738 C 0.7192 0.12086 0.112 0.0
C739 C 0.73762 0.15843 0.11068 0.0
C740 C 0.79302 0.18154 0.09845 0.0
H741 H 0.85137 0.28886 0.10746 0.0
H742 H 0.81902 0.25583 0.10696 0.0
H743 H 0.82408 0.20201 0.08946 0.0
H744 H 0.73871 0.107 0.11112 0.0
H745 H 0.77114 0.13987 0.10958 0.0
H746 H 0.76649 0.19406 0.12944 0.0
C747 C 0.83348 0.25579 0.10804 0.0
C748 C 0.81162 0.20039 0.09829 0.0
C749 C 0.85199 0.27468 0.10823 0.0
C750 C 0.73817 0.12123 0.1109 0.0
C751 C 0.75673 0.14007 0.10992 0.0
C752 C 0.77882 0.19564 0.12046 0.0
C753 C 0.83364 0.23707 0.10903 0.0
C754 C 0.81395 0.21705 0.10915 0.0
C755 C 0.75667 0.15889 0.10993 0.0
C756 C 0.7764 0.17895 0.10955 0.0
H757 H 0.88569 0.25647 0.11148 0.0
H758 H 0.85328 0.22341 0.1111 0.0
H759 H 0.79883 0.22697 0.12895 0.0
H760 H 0.70467 0.13979 0.11247 0.0
H761 H 0.737 0.17263 0.11039 0.0
C762 C 0.58653 0.72905 0.60829 0.0
C763 C 0.60442 0.72779 0.61149 0.0
C764 C 0.58778 0.74827 0.60653 0.0
C765 C 0.62038 0.803 0.61906 0.0
H766 H 0.58693 0.81117 0.58261 0.0
C767 C 0.62371 0.88152 0.61004 0.0
C768 C 0.6045 0.88057 0.60847 0.0
C769 C 0.62499 0.86349 0.60884 0.0
C770 C 0.59627 0.80908 0.59293 0.0
H771 H 0.63769 0.74558 0.61518 0.0
H772 H 0.6399 0.77925 0.61202 0.0
H773 H 0.58685 0.77844 0.58345 0.0
H774 H 0.57162 0.86015 0.60412 0.0
H775 H 0.5738 0.8287 0.60219 0.0
H776 H 0.62954 0.83351 0.62874 0.0
C777 C 0.62488 0.76536 0.61104 0.0
C778 C 0.59622 0.79035 0.59341 0.0
C779 C 0.62363 0.74611 0.61277 0.0
C780 C 0.58665 0.86136 0.60535 0.0
C781 C 0.58792 0.84336 0.60413 0.0
C782 C 0.62042 0.82174 0.61858 0.0
C783 C 0.60695 0.76664 0.60794 0.0
C784 C 0.60807 0.78701 0.60664 0.0
C785 C 0.60708 0.8442 0.60601 0.0
C786 C 0.60816 0.82488 0.60566 0.0
H787 H 0.5715 0.71518 0.60727 0.0
H788 H 0.57365 0.74874 0.60441 0.0
H789 H 0.62948 0.80081 0.62956 0.0
H790 H 0.63774 0.89615 0.6124 0.0
H791 H 0.64 0.86466 0.61014 0.0
C792 C 0.72312 0.57868 0.10749 0.0
C793 C 0.72167 0.59548 0.11449 0.0
C794 C 0.74184 0.57873 0.10826 0.0
C795 C 0.79809 0.61365 0.11257 0.0
H796 H 0.79824 0.56331 0.12571 0.0
C797 C 0.87371 0.61183 0.12397 0.0
C798 C 0.8746 0.59507 0.11611 0.0
C799 C 0.85502 0.61188 0.12454 0.0
C800 C 0.79843 0.57744 0.12186 0.0
H801 H 0.7386 0.62548 0.12781 0.0
H802 H 0.7713 0.62551 0.12929 0.0
H803 H 0.76566 0.5635 0.12518 0.0
H804 H 0.85668 0.56515 0.10284 0.0
H805 H 0.82408 0.5653 0.1037 0.0
H806 H 0.83085 0.62756 0.10917 0.0
C807 C 0.75803 0.61241 0.12302 0.0
C808 C 0.77977 0.57754 0.12154 0.0
C809 C 0.73929 0.61235 0.12225 0.0
C810 C 0.85644 0.57827 0.10901 0.0
C811 C 0.83776 0.5783 0.1096 0.0
C812 C 0.81675 0.61354 0.11289 0.0
C813 C 0.7595 0.59558 0.11605 0.0
C814 C 0.77938 0.59562 0.1168 0.0
C815 C 0.83686 0.59516 0.11729 0.0
C816 C 0.81711 0.59541 0.11745 0.0
H817 H 0.70979 0.56548 0.10138 0.0
H818 H 0.74253 0.56567 0.10254 0.0
H819 H 0.79827 0.62774 0.10862 0.0
H820 H 0.88746 0.62497 0.1296 0.0
H821 H 0.85478 0.62497 0.13076 0.0
C822 C 0.27345 0.85629 0.60519 0.0
C823 C 0.27471 0.87462 0.61174 0.0
C824 C 0.25443 0.83792 0.60462 0.0
C825 C 0.20338 0.81212 0.62642 0.0
H826 H 0.18713 0.77584 0.58366 0.0
C827 C 0.12262 0.73931 0.62059 0.0
C828 C 0.12148 0.72156 0.6127 0.0
C829 C 0.14113 0.75822 0.62014 0.0
C830 C 0.19155 0.78567 0.59581 0.0
H831 H 0.2571 0.8882 0.62262 0.0
H832 H 0.22385 0.85602 0.62171 0.0
H833 H 0.21982 0.80852 0.58325 0.0
H834 H 0.13879 0.70956 0.59835 0.0
H835 H 0.17122 0.74243 0.59794 0.0
H836 H 0.17538 0.78918 0.63917 0.0
C837 C 0.23759 0.85587 0.61709 0.0
C838 C 0.21023 0.80441 0.59553 0.0
C839 C 0.25658 0.87429 0.61751 0.0
C840 C 0.1392 0.72303 0.60446 0.0
C841 C 0.15774 0.7419 0.60412 0.0
C842 C 0.18477 0.79332 0.62677 0.0
C843 C 0.23635 0.83749 0.61073 0.0
C844 C 0.21634 0.8178 0.61084 0.0
C845 C 0.15892 0.75975 0.6119 0.0
C846 C 0.17863 0.77985 0.61147 0.0
H847 H 0.28718 0.8561 0.60066 0.0
H848 H 0.25395 0.82393 0.59979 0.0
H849 H 0.20785 0.82203 0.63853 0.0
H850 H 0.10916 0.73864 0.62695 0.0
H851 H 0.14139 0.77171 0.62603 0.0
C852 C 0.87248 0.61046 0.37005 0.0
C853 C 0.87309 0.59317 0.37694 0.0
C854 C 0.85384 0.61059 0.36946 0.0
C855 C 0.79717 0.5763 0.37018 0.0
H856 H 0.79694 0.6256 0.38688 0.0
C857 C 0.72173 0.57721 0.3851 0.0
C858 C 0.72081 0.59477 0.37954 0.0
C859 C 0.74032 0.57702 0.38406 0.0
C860 C 0.79678 0.61181 0.38194 0.0
H861 H 0.85468 0.56236 0.38841 0.0
H862 H 0.82213 0.56262 0.3875 0.0
H863 H 0.82938 0.6252 0.3861 0.0
H864 H 0.7385 0.62582 0.36839 0.0
H865 H 0.77093 0.62542 0.3664 0.0
H866 H 0.76455 0.56287 0.36609 0.0
C867 C 0.83602 0.576 0.38238 0.0
C868 C 0.81537 0.61158 0.3815 0.0
C869 C 0.85467 0.57589 0.383 0.0
C870 C 0.73878 0.6121 0.37285 0.0
C871 C 0.75737 0.6119 0.3718 0.0
C872 C 0.77858 0.57653 0.3706 0.0
C873 C 0.83543 0.59341 0.37572 0.0
C874 C 0.81575 0.59379 0.37569 0.0
C875 C 0.75836 0.59437 0.37742 0.0
C876 C 0.77817 0.59426 0.37657 0.0
H877 H 0.88644 0.62397 0.36522 0.0
H878 H 0.85383 0.62412 0.36404 0.0
H879 H 0.79703 0.56246 0.36539 0.0
H880 H 0.70812 0.56364 0.39035 0.0
H881 H 0.74063 0.56338 0.38873 0.0
C882 C 0.12338 0.74287 0.87461 0.0
C883 C 0.1225 0.72444 0.88025 0.0
C884 C 0.14207 0.76161 0.87519 0.0
C885 C 0.19403 0.78646 0.89687 0.0
H886 H 0.20822 0.82655 0.85737 0.0
C887 C 0.27592 0.85674 0.88738 0.0
C888 C 0.27737 0.87576 0.88302 0.0
C889 C 0.2567 0.83859 0.88771 0.0
C890 C 0.20435 0.81559 0.8686 0.0
H891 H 0.14046 0.71103 0.89065 0.0
H892 H 0.17316 0.74361 0.89128 0.0
H893 H 0.17535 0.79409 0.85628 0.0
H894 H 0.25988 0.8908 0.87574 0.0
H895 H 0.22624 0.85902 0.87624 0.0
H896 H 0.22323 0.80787 0.90899 0.0
C897 C 0.15937 0.74373 0.88678 0.0
C898 C 0.18552 0.79701 0.86799 0.0
C899 C 0.14067 0.72503 0.8863 0.0
C900 C 0.25922 0.87634 0.87915 0.0
C901 C 0.24 0.85816 0.87933 0.0
C902 C 0.2129 0.80498 0.8974 0.0
C903 C 0.16029 0.76227 0.88133 0.0
C904 C 0.18016 0.78219 0.88209 0.0
C905 C 0.23857 0.8391 0.88354 0.0
C906 C 0.21828 0.8197 0.88324 0.0
H907 H 0.10958 0.74288 0.86996 0.0
H908 H 0.14217 0.77563 0.87111 0.0
H909 H 0.19022 0.77557 0.90813 0.0
H910 H 0.28967 0.85583 0.89041 0.0
H911 H 0.25608 0.82409 0.89082 0.0
C912 C 0.41516 0.14027 0.38163 0.0
C913 C 0.39707 0.12162 0.37744 0.0
C914 C 0.41496 0.15888 0.38201 0.0
C915 C 0.38563 0.18359 0.36559 0.0
H916 H 0.41518 0.22285 0.40494 0.0
C917 C 0.37956 0.25703 0.37725 0.0
C918 C 0.39819 0.27537 0.38092 0.0
C919 C 0.37893 0.23799 0.37711 0.0
C920 C 0.40701 0.21212 0.39378 0.0
H921 H 0.36462 0.10779 0.37021 0.0
H922 H 0.36421 0.14029 0.37105 0.0
H923 H 0.41512 0.19016 0.40388 0.0
H924 H 0.43071 0.28821 0.38742 0.0
H925 H 0.42964 0.25502 0.38708 0.0
H926 H 0.37754 0.2056 0.3555 0.0
C927 C 0.37861 0.14057 0.37384 0.0
C928 C 0.40699 0.19341 0.39315 0.0
C929 C 0.37882 0.12195 0.37345 0.0
C930 C 0.41612 0.27432 0.38459 0.0
C931 C 0.41548 0.2553 0.3845 0.0
C932 C 0.38562 0.2023 0.36623 0.0
C933 C 0.39666 0.15923 0.37823 0.0
C934 C 0.3964 0.17898 0.379 0.0
C935 C 0.3969 0.23693 0.38069 0.0
C936 C 0.3964 0.21681 0.38028 0.0
H937 H 0.42948 0.14049 0.3847 0.0
H938 H 0.4292 0.17303 0.38516 0.0
H939 H 0.37754 0.17291 0.35438 0.0
H940 H 0.36549 0.25739 0.3744 0.0
H941 H 0.36434 0.22407 0.37433 0.0
C942 C 0.25561 0.37827 0.88131 0.0
C943 C 0.27449 0.39703 0.88136 0.0
C944 C 0.2369 0.37823 0.88253 0.0
C945 C 0.21446 0.41044 0.89653 0.0
H946 H 0.17018 0.37529 0.86283 0.0
C947 C 0.14425 0.42111 0.88365 0.0
C948 C 0.12474 0.40324 0.88194 0.0
C949 C 0.16213 0.41958 0.88451 0.0
C950 C 0.18228 0.38498 0.87252 0.0
H951 H 0.28868 0.43042 0.883 0.0
H952 H 0.25604 0.43036 0.88503 0.0
H953 H 0.20213 0.37389 0.86298 0.0
H954 H 0.10857 0.36977 0.87989 0.0
H955 H 0.13982 0.36708 0.88156 0.0
H956 H 0.19469 0.42165 0.90598 0.0
C957 C 0.25567 0.41568 0.88422 0.0
C958 C 0.20057 0.38417 0.8726 0.0
C959 C 0.27435 0.41572 0.88295 0.0
C960 C 0.12343 0.38381 0.88115 0.0
C961 C 0.14132 0.38228 0.88202 0.0
C962 C 0.19616 0.41123 0.89647 0.0
C963 C 0.23674 0.39694 0.8839 0.0
C964 C 0.21693 0.39704 0.88449 0.0
C965 C 0.16087 0.40016 0.8837 0.0
C966 C 0.17994 0.39865 0.88434 0.0
H967 H 0.25526 0.36362 0.88014 0.0
H968 H 0.22257 0.36355 0.88245 0.0
H969 H 0.22667 0.4203 0.90606 0.0
H970 H 0.14574 0.4363 0.88424 0.0
H971 H 0.17697 0.43367 0.88552 0.0
C972 C 0.72024 0.14089 0.37946 0.0
C973 C 0.71951 0.12182 0.37736 0.0
C974 C 0.73917 0.15934 0.37945 0.0
C975 C 0.79517 0.18051 0.38643 0.0
H976 H 0.79941 0.22806 0.36057 0.0
C977 C 0.87283 0.25661 0.37639 0.0
C978 C 0.87252 0.27504 0.37954 0.0
C979 C 0.85437 0.23765 0.37576 0.0
C980 C 0.79841 0.21496 0.36798 0.0
H981 H 0.73796 0.10705 0.37366 0.0
H982 H 0.7711 0.13936 0.37343 0.0
H983 H 0.76682 0.19535 0.36014 0.0
H984 H 0.85273 0.28813 0.38447 0.0
H985 H 0.82053 0.25503 0.3834 0.0
H986 H 0.82682 0.2002 0.39424 0.0
C987 C 0.75705 0.14002 0.37531 0.0
C988 C 0.77975 0.19624 0.36776 0.0
C989 C 0.73808 0.12154 0.37535 0.0
C990 C 0.85344 0.27418 0.38199 0.0
C991 C 0.835 0.25524 0.38127 0.0
C992 C 0.81387 0.19925 0.38661 0.0
C993 C 0.75779 0.15914 0.37729 0.0
C994 C 0.77785 0.17884 0.37709 0.0
C995 C 0.83526 0.23678 0.37816 0.0
C996 C 0.81564 0.21671 0.3775 0.0
H997 H 0.70617 0.14158 0.38112 0.0
H998 H 0.73922 0.17377 0.38132 0.0
H999 H 0.79414 0.16747 0.39394 0.0
H1000 H 0.88732 0.25683 0.37444 0.0
H1001 H 0.85504 0.22369 0.37316 0.0
C1002 C 0.61285 0.73945 0.88625 0.0
C1003 C 0.59401 0.7207 0.8853 0.0
C1004 C 0.61304 0.75821 0.88792 0.0
C1005 C 0.5808 0.78167 0.87863 0.0
H1006 H 0.62 0.82566 0.91059 0.0
C1007 C 0.57894 0.85726 0.88796 0.0
C1008 C 0.5981 0.87567 0.88718 0.0
C1009 C 0.57806 0.83818 0.88948 0.0
C1010 C 0.60906 0.81357 0.9015 0.0
H1011 H 0.56061 0.70678 0.88573 0.0
H1012 H 0.56095 0.73949 0.88877 0.0
H1013 H 0.61925 0.79256 0.90984 0.0
H1014 H 0.63137 0.88865 0.88789 0.0
H1015 H 0.62986 0.85531 0.89034 0.0
H1016 H 0.57078 0.80267 0.87008 0.0
C1017 C 0.57556 0.73974 0.88799 0.0
C1018 C 0.60864 0.79463 0.90107 0.0
C1019 C 0.57537 0.72101 0.88634 0.0
C1020 C 0.61637 0.87469 0.88848 0.0
C1021 C 0.6155 0.85561 0.88998 0.0
C1022 C 0.58123 0.80058 0.87904 0.0
C1023 C 0.59439 0.75856 0.88866 0.0
C1024 C 0.59455 0.77851 0.88957 0.0
C1025 C 0.59633 0.83712 0.89022 0.0
C1026 C 0.59542 0.81678 0.89042 0.0
H1027 H 0.62745 0.73967 0.88547 0.0
H1028 H 0.62779 0.77246 0.8882 0.0
H1029 H 0.57 0.76968 0.86939 0.0
H1030 H 0.56459 0.85755 0.88708 0.0
H1031 H 0.56305 0.82423 0.88993 0.0
C1032 C 0.33248 0.9456 0.94532 0.0
C1033 C 0.33756 0.95741 0.92903 0.0
C1034 C 0.33426 0.95482 0.96254 0.0
C1035 C 0.34084 0.00244 0.98546 0.0
H1036 H 0.36353 0.98467 0.02508 0.0
C1037 C 0.37746 0.04931 0.05242 0.0
C1038 C 0.37321 0.03824 0.06911 0.0
C1039 C 0.37022 0.03886 0.03561 0.0
C1040 C 0.35689 0.9896 0.01425 0.0
H1041 H 0.34805 0.98803 0.91788 0.0
H1042 H 0.35183 0.00439 0.94805 0.0
H1043 H 0.35671 0.96774 0.99508 0.0
H1044 H 0.35745 0.00766 0.08143 0.0
H1045 H 0.34493 0.98936 0.05199 0.0
H1046 H 0.34182 0.02485 0.00467 0.0
C1047 C 0.34605 0.98789 0.94752 0.0
C1048 C 0.35294 0.97987 0.99702 0.0
C1049 C 0.34402 0.97857 0.93024 0.0
C1050 C 0.36101 0.01657 0.06876 0.0
C1051 C 0.35393 0.00611 0.05193 0.0
C1052 C 0.345 0.01231 0.00269 0.0
C1053 C 0.34143 0.97616 0.9639 0.0
C1054 C 0.34493 0.98619 0.98238 0.0
C1055 C 0.35876 0.01714 0.03517 0.0
C1056 C 0.35313 0.00602 0.01722 0.0
H1057 H 0.32721 0.92919 0.94478 0.0
H1058 H 0.3301 0.94521 0.9748 0.0
H1059 H 0.3344 0.00751 0.97459 0.0
H1060 H 0.38679 0.06604 0.05229 0.0
H1061 H 0.37431 0.04774 0.02289 0.0
C1062 C 0.35514 0.33982 0.4259 0.0
C1063 C 0.36932 0.33266 0.42646 0.0
C1064 C 0.3467 0.3424 0.4423 0.0
C1065 C 0.33922 0.32884 0.4922 0.0
H1066 H 0.34276 0.38221 0.49776 0.0
C1067 C 0.3407 0.36466 0.56333 0.0
C1068 C 0.33127 0.37681 0.56503 0.0
C1069 C 0.34172 0.35667 0.54611 0.0
C1070 C 0.34126 0.36707 0.49637 0.0
H1071 H 0.38513 0.32174 0.44445 0.0
H1072 H 0.3705 0.32629 0.473 0.0
H1073 H 0.3505 0.37247 0.46795 0.0
H1074 H 0.31473 0.38942 0.55027 0.0
H1075 H 0.31624 0.37522 0.52027 0.0
H1076 H 0.3304 0.32364 0.52077 0.0
C1077 C 0.36577 0.3298 0.45995 0.0
C1078 C 0.34571 0.36148 0.47926 0.0
C1079 C 0.37426 0.32733 0.4436 0.0
C1080 C 0.32225 0.38024 0.54934 0.0
C1081 C 0.3232 0.37218 0.53214 0.0
C1082 C 0.33471 0.3344 0.50933 0.0
C1083 C 0.3522 0.33773 0.45952 0.0
C1084 C 0.34512 0.34248 0.47708 0.0
C1085 C 0.33326 0.36061 0.53025 0.0
C1086 C 0.33606 0.35375 0.51169 0.0
H1087 H 0.351 0.34398 0.41286 0.0
H1088 H 0.33612 0.34834 0.44153 0.0
H1089 H 0.33837 0.31397 0.49086 0.0
H1090 H 0.34779 0.36179 0.5752 0.0
H1091 H 0.34981 0.34803 0.54512 0.0
C1092 C 0.02356 0.36322 0.93009 0.0
C1093 C 0.04466 0.37809 0.929 0.0
C1094 C 0.01449 0.35491 0.94723 0.0
C1095 C 0.02261 0.36805 0.9969 0.0
H1096 H 0.97718 0.31195 0.0032 0.0
C1097 C 0.98173 0.34006 0.06703 0.0
C1098 C 0.96011 0.33079 0.06603 0.0
C1099 C 0.99332 0.34288 0.05098 0.0
C1100 C 0.98988 0.32765 0.00163 0.0
H1101 H 0.07307 0.3951 0.94472 0.0
H1102 H 0.05742 0.38027 0.97449 0.0
H1103 H 0.99529 0.32245 0.97352 0.0
H1104 H 0.93355 0.31616 0.0477 0.0
H1105 H 0.95374 0.32113 0.01973 0.0
H1106 H 0.017 0.37339 0.02483 0.0
C1107 C 0.04771 0.37541 0.96226 0.0
C1108 C 0.00019 0.33369 0.98463 0.0
C1109 C 0.0567 0.38385 0.94519 0.0
C1110 C 0.95021 0.32343 0.04888 0.0
C1111 C 0.96177 0.32614 0.03287 0.0
C1112 C 0.01239 0.36199 0.01388 0.0
C1113 C 0.0264 0.3612 0.96357 0.0
C1114 C 0.01647 0.35407 0.98199 0.0
C1115 C 0.98347 0.33636 0.03368 0.0
C1116 C 0.99571 0.34184 0.01634 0.0
H1117 H 0.01393 0.35852 0.91781 0.0
H1118 H 0.998 0.34417 0.94775 0.0
H1119 H 0.0348 0.38398 0.99529 0.0
H1120 H 0.98975 0.3458 0.08009 0.0
H1121 H 0.01002 0.3506 0.05203 0.0
C1122 C 0.67257 0.05517 0.44226 0.0
C1123 C 0.66534 0.04237 0.42657 0.0
C1124 C 0.67172 0.04675 0.4597 0.0
C1125 C 0.6622 0.99851 0.48383 0.0
H1126 H 0.64439 0.02079 0.52376 0.0
C1127 C 0.62129 0.95369 0.55006 0.0
C1128 C 0.62745 0.96434 0.56701 0.0
C1129 C 0.62954 0.96409 0.53344 0.0
C1130 C 0.64968 0.01462 0.51282 0.0
H1131 H 0.65208 0.01087 0.41663 0.0
H1132 H 0.64979 0.99596 0.44717 0.0
H1133 H 0.65205 0.03735 0.49355 0.0
H1134 H 0.64736 0.99404 0.57997 0.0
H1135 H 0.6615 0.0124 0.55074 0.0
H1136 H 0.6587 0.9751 0.50308 0.0
C1137 C 0.65664 0.01258 0.44603 0.0
C1138 C 0.65415 0.02413 0.49549 0.0
C1139 C 0.6578 0.02107 0.42852 0.0
C1140 C 0.64233 0.98549 0.56708 0.0
C1141 C 0.65037 0.99598 0.5504 0.0
C1142 C 0.65746 0.98884 0.50113 0.0
C1143 C 0.66328 0.02528 0.46189 0.0
C1144 C 0.66021 0.01606 0.48069 0.0
C1145 C 0.6439 0.98539 0.53344 0.0
C1146 C 0.65092 0.99667 0.51569 0.0
H1147 H 0.67871 0.0717 0.44109 0.0
H1148 H 0.67744 0.05707 0.47151 0.0
H1149 H 0.6672 0.9921 0.47287 0.0
H1150 H 0.6099 0.93735 0.54963 0.0
H1151 H 0.62414 0.95563 0.52054 0.0
C1152 C 0.65451 0.63953 0.0682 0.0
C1153 C 0.66621 0.62953 0.06787 0.0
C1154 C 0.65112 0.6475 0.0519 0.0
C1155 C 0.66818 0.66202 0.00343 0.0
H1156 H 0.61004 0.64224 0.99431 0.0
C1157 C 0.63548 0.66042 0.93038 0.0
C1158 C 0.61855 0.66367 0.92897 0.0
C1159 C 0.64307 0.65922 0.94777 0.0
C1160 C 0.6264 0.64829 0.9967 0.0
H1161 H 0.68464 0.62116 0.05055 0.0
H1162 H 0.67878 0.63514 0.02211 0.0
H1163 H 0.62088 0.63615 0.02422 0.0
H1164 H 0.59691 0.66918 0.94449 0.0
H1165 H 0.61049 0.66774 0.97472 0.0
H1166 H 0.67366 0.67406 0.97581 0.0
C1167 C 0.67222 0.63683 0.03493 0.0
C1168 C 0.6326 0.64476 0.01388 0.0
C1169 C 0.67548 0.62873 0.05119 0.0
C1170 C 0.60981 0.66638 0.94518 0.0
C1171 C 0.61754 0.66545 0.96251 0.0
C1172 C 0.66199 0.66573 0.98624 0.0
C1173 C 0.65953 0.64576 0.03503 0.0
C1174 C 0.6535 0.65137 0.01736 0.0
C1175 C 0.63402 0.66148 0.96407 0.0
C1176 C 0.64097 0.65869 0.9826 0.0
H1177 H 0.64724 0.64044 0.08088 0.0
H1178 H 0.64146 0.65453 0.05239 0.0
H1179 H 0.68442 0.66739 0.0058 0.0
H1180 H 0.6425 0.65828 0.91807 0.0
H1181 H 0.65562 0.6559 0.94844 0.0
C1182 C 0.01237 0.65147 0.56406 0.0
C1183 C 0.03148 0.6688 0.5685 0.0
C1184 C 0.00259 0.65073 0.54735 0.0
C1185 C 0.0154 0.67414 0.50058 0.0
H1186 H 0.95624 0.63935 0.49389 0.0
C1187 C 0.97972 0.63752 0.43048 0.0
C1188 C 0.9592 0.63206 0.42659 0.0
C1189 C 0.98861 0.64642 0.4475 0.0
C1190 C 0.97276 0.64951 0.49543 0.0
H1191 H 0.05472 0.69955 0.55975 0.0
H1192 H 0.03721 0.69872 0.53098 0.0
H1193 H 0.97049 0.6473 0.52492 0.0
H1194 H 0.93233 0.63293 0.43673 0.0
H1195 H 0.94812 0.64937 0.4661 0.0
H1196 H 0.01761 0.67683 0.4711 0.0
C1197 C 0.0301 0.68533 0.53997 0.0
C1198 C 0.98099 0.65378 0.51331 0.0
C1199 C 0.04007 0.68589 0.55652 0.0
C1200 C 0.94813 0.63681 0.43951 0.0
C1201 C 0.95715 0.64607 0.45639 0.0
C1202 C 0.00713 0.67019 0.48271 0.0
C1203 C 0.01155 0.66748 0.53489 0.0
C1204 C 0.00248 0.66557 0.51611 0.0
C1205 C 0.97727 0.65039 0.46087 0.0
C1206 C 0.98577 0.65725 0.47986 0.0
H1207 H 0.00548 0.63805 0.57304 0.0
H1208 H 0.98852 0.63657 0.54388 0.0
H1209 H 0.03204 0.68317 0.50207 0.0
H1210 H 0.98854 0.63392 0.42077 0.0
H1211 H 0.00401 0.6492 0.45047 0.0
C1212 C 0.64532 0.9694 0.93134 0.0
C1213 C 0.62613 0.96564 0.92445 0.0
C1214 C 0.65277 0.9797 0.94823 0.0
C1215 C 0.64988 0.01645 0.97914 0.0
H1216 H 0.65782 0.98746 0.02007 0.0
C1217 C 0.64656 0.03916 0.05378 0.0
C1218 C 0.65961 0.03803 0.06714 0.0
C1219 C 0.64547 0.03144 0.03601 0.0
C1220 C 0.65612 0.99598 0.00873 0.0
H1221 H 0.59994 0.97006 0.92941 0.0
H1222 H 0.61326 0.98858 0.95857 0.0
H1223 H 0.65137 0.97253 0.98892 0.0
H1224 H 0.68171 0.02787 0.07251 0.0
H1225 H 0.68014 0.01466 0.04112 0.0
H1226 H 0.65454 0.03989 -0.00134 0.0
C1227 C 0.6224 0.98338 0.95105 0.0
C1228 C 0.6524 0.98741 0.99094 0.0
C1229 C 0.61476 0.97273 0.93444 0.0
C1230 C 0.67146 0.02885 0.06245 0.0
C1231 C 0.67052 0.02127 0.04451 0.0
C1232 C 0.65388 0.02516 0.9968 0.0
C1233 C 0.64136 0.9868 0.95815 0.0
C1234 C 0.64863 0.9973 0.97617 0.0
C1235 C 0.65761 0.02264 0.03104 0.0
C1236 C 0.65632 0.01469 0.01193 0.0
H1237 H 0.6543 0.96398 0.92389 0.0
H1238 H 0.66744 0.98221 0.95352 0.0
H1239 H 0.64724 0.02444 0.96786 0.0
H1240 H 0.63708 0.04598 0.05706 0.0
H1241 H 0.6349 0.03223 0.02619 0.0
C1242 C 0.66003 0.64344 0.42803 0.0
C1243 C 0.6693 0.63105 0.42833 0.0
C1244 C 0.65793 0.65224 0.44438 0.0
C1245 C 0.67502 0.66413 0.49326 0.0
H1246 H 0.61888 0.65249 0.50152 0.0
C1247 C 0.64245 0.66436 0.56597 0.0
C1248 C 0.62755 0.67052 0.56734 0.0
C1249 C 0.65003 0.66296 0.54862 0.0
C1250 C 0.63475 0.65628 0.49937 0.0
H1251 H 0.68474 0.61916 0.44568 0.0
H1252 H 0.68101 0.63447 0.47421 0.0
H1253 H 0.62835 0.64495 0.47158 0.0
H1254 H 0.60976 0.68122 0.55189 0.0
H1255 H 0.62335 0.67938 0.5218 0.0
H1256 H 0.6813 0.67522 0.52122 0.0
C1257 C 0.67544 0.63745 0.46137 0.0
C1258 C 0.64017 0.65194 0.48217 0.0
C1259 C 0.67745 0.62858 0.44505 0.0
C1260 C 0.62103 0.67612 0.55121 0.0
C1261 C 0.62876 0.67498 0.53396 0.0
C1262 C 0.66962 0.66863 0.51049 0.0
C1263 C 0.66516 0.6489 0.46129 0.0
C1264 C 0.66027 0.65557 0.47899 0.0
C1265 C 0.64297 0.66791 0.53238 0.0
C1266 C 0.64934 0.66451 0.51381 0.0
H1267 H 0.65371 0.64569 0.41531 0.0
H1268 H 0.65016 0.66121 0.44389 0.0
H1269 H 0.69067 0.66722 0.49113 0.0
H1270 H 0.64774 0.65997 0.57821 0.0
H1271 H 0.66082 0.65727 0.54791 0.0
C1272 C 0.95138 0.64082 0.05536 0.0
C1273 C 0.96186 0.63484 0.06782 0.0
C1274 C 0.96061 0.65042 0.03866 0.0
C1275 C 0.01043 0.67308 0.01218 0.0
H1276 H 0.97342 0.65382 0.96992 0.0
C1277 C 0.04321 0.68995 0.93839 0.0
C1278 C 0.03361 0.67349 0.92578 0.0
C1279 C 0.03359 0.68943 0.95512 0.0
C1280 C 0.98402 0.65927 0.98153 0.0
H1281 H 0.9904 0.63478 0.07303 0.0
H1282 H 0.00618 0.65057 0.04361 0.0
H1283 H 0.95923 0.64526 0.00091 0.0
H1284 H 0.0062 0.64396 0.92033 0.0
H1285 H 0.9898 0.64245 0.94982 0.0
H1286 H 0.03528 0.68553 0.99279 0.0
C1287 C 0.99112 0.64855 0.04682 0.0
C1288 C 0.97584 0.65467 -0.00059 0.0
C1289 C 0.98204 0.63935 0.06368 0.0
C1290 C 0.01387 0.6569 0.9298 0.0
C1291 C 0.00443 0.65614 0.94671 0.0
C1292 C 0.01862 0.67732 0.99429 0.0
C1293 C 0.98035 0.6538 0.03388 0.0
C1294 C 0.98896 0.66108 0.01499 0.0
C1295 C 0.01437 0.67219 0.95979 0.0
C1296 C 0.00554 0.67005 0.97871 0.0
H1297 H 0.93584 0.63768 0.05835 0.0
H1298 H 0.95203 0.65471 0.02932 0.0
H1299 H 0.02102 0.67873 0.02379 0.0
H1300 H 0.05837 0.70305 0.93548 0.0
H1301 H 0.04149 0.70233 0.96458 0.0
C1302 C 0.33517 0.97832 0.56813 0.0
C1303 C 0.33211 0.95815 0.56807 0.0
C1304 C 0.3365 0.98841 0.55144 0.0
C1305 C 0.32455 0.97964 0.50149 0.0
H1306 H 0.37258 0.03425 0.49572 0.0
C1307 C 0.3574 0.01567 0.43018 0.0
C1308 C 0.36707 0.03724 0.42823 0.0
C1309 C 0.35002 0.00646 0.44745 0.0
C1310 C 0.35883 0.0192 0.49715 0.0
H1311 H 0.32733 0.93245 0.55061 0.0
H1312 H 0.3296 0.95003 0.52154 0.0
H1313 H 0.36502 0.01741 0.52582 0.0
H1314 H 0.37561 0.06601 0.44247 0.0
H1315 H 0.36226 0.04992 0.47248 0.0
H1316 H 0.31849 0.9813 0.47275 0.0
C1317 C 0.3309 0.95803 0.53443 0.0
C1318 C 0.35453 0.00954 0.51442 0.0
C1319 C 0.32977 0.94803 0.55108 0.0
C1320 C 0.3684 0.04935 0.44363 0.0
C1321 C 0.36085 0.04013 0.46084 0.0
C1322 C 0.32875 0.98936 0.48422 0.0
C1323 C 0.33455 0.97841 0.53443 0.0
C1324 C 0.3376 0.9895 0.51667 0.0
C1325 C 0.35201 0.01863 0.46306 0.0
C1326 C 0.34619 0.00909 0.48176 0.0
H1327 H 0.33697 0.98644 0.58105 0.0
H1328 H 0.3392 0.00409 0.55182 0.0
H1329 H 0.31123 0.96427 0.50291 0.0
H1330 H 0.35622 0.00598 0.41854 0.0
H1331 H 0.34353 0.98988 0.44868 0.0
C1332 C 0.35233 0.33312 0.06515 0.0
C1333 C 0.37083 0.3325 0.06555 0.0
C1334 C 0.34386 0.3344 0.04824 0.0
C1335 C 0.34772 0.32914 -0.00283 0.0
H1336 H 0.32867 0.36881 0.99473 0.0
C1337 C 0.34097 0.38604 0.94062 0.0
C1338 C 0.3327 0.37274 0.92533 0.0
C1339 C 0.34201 0.37832 0.95792 0.0
C1340 C 0.33398 0.3577 0.99516 0.0
H1341 H 0.39475 0.33231 0.04864 0.0
H1342 H 0.3804 0.3351 0.01934 0.0
H1343 H 0.3373 0.36007 0.02459 0.0
H1344 H 0.31871 0.34088 0.91616 0.0
H1345 H 0.32028 0.32725 0.94658 0.0
H1346 H 0.34562 0.32777 0.96761 0.0
C1347 C 0.37208 0.33413 0.03194 0.0
C1348 C 0.33864 0.35245 0.01234 0.0
C1349 C 0.38044 0.33272 0.04877 0.0
C1350 C 0.32527 0.35149 0.92771 0.0
C1351 C 0.32622 0.34372 0.9451 0.0
C1352 C 0.3432 0.33452 0.97997 0.0
C1353 C 0.3538 0.33519 0.03144 0.0
C1354 C 0.3461 0.33852 0.01351 0.0
C1355 C 0.33467 0.35708 0.9604 0.0
C1356 C 0.33682 0.34929 0.97873 0.0
H1357 H 0.34453 0.33284 0.07789 0.0
H1358 H 0.32963 0.33493 0.04834 0.0
H1359 H 0.35303 0.31804 -0.0024 0.0
H1360 H 0.34689 0.40251 0.93921 0.0
H1361 H 0.34903 0.38915 0.96926 0.0
C1362 C 0.01622 0.35642 0.56827 0.0
C1363 C 0.03756 0.3706 0.56843 0.0
C1364 C 0.00606 0.34762 0.55162 0.0
C1365 C 0.01456 0.34003 0.5021 0.0
H1366 H 0.96319 0.34027 0.49502 0.0
C1367 C 0.97876 0.3379 0.4303 0.0
C1368 C 0.95709 0.32729 0.42893 0.0
C1369 C 0.98831 0.33957 0.44741 0.0
C1370 C 0.97732 0.33973 0.49684 0.0
H1371 H 0.06515 0.38611 0.55145 0.0
H1372 H 0.04738 0.37108 0.52238 0.0
H1373 H 0.98019 0.34956 0.52499 0.0
H1374 H 0.92844 0.30891 0.44399 0.0
H1375 H 0.94507 0.31155 0.47367 0.0
H1376 H 0.01186 0.33075 0.47364 0.0
C1377 C 0.03851 0.36649 0.5351 0.0
C1378 C 0.98707 0.34504 0.51406 0.0
C1379 C 0.04867 0.37523 0.55175 0.0
C1380 C 0.94519 0.3174 0.44468 0.0
C1381 C 0.9547 0.31899 0.4617 0.0
C1382 C 0.00479 0.33474 0.4848 0.0
C1383 C 0.01701 0.35289 0.53479 0.0
C1384 C 0.00592 0.34548 0.51686 0.0
C1385 C 0.97634 0.3306 0.46338 0.0
C1386 C 0.98616 0.33473 0.48195 0.0
H1387 H 0.00729 0.35245 0.58096 0.0
H1388 H 0.98954 0.33692 0.55189 0.0
H1389 H 0.02894 0.33998 0.50388 0.0
H1390 H 0.98829 0.34567 0.41837 0.0
H1391 H 0.00501 0.34872 0.44827 0.0
C1392 C 0.45595 0.04794 0.11518 0.0
C1393 C 0.45625 0.06681 0.11308 0.0
C1394 C 0.47441 0.04746 0.11572 0.0
C1395 C 0.52997 0.07779 0.10392 0.0
H1396 H 0.53546 0.04338 0.14118 0.0
C1397 C 0.60836 0.08403 0.12049 0.0
C1398 C 0.60849 0.0654 0.12266 0.0
C1399 C 0.58967 0.08403 0.11953 0.0
C1400 C 0.53409 0.0529 0.13058 0.0
H1401 H 0.47605 0.09991 0.10951 0.0
H1402 H 0.50831 0.09909 0.11056 0.0
H1403 H 0.50296 0.04352 0.13835 0.0
H1404 H 0.58923 0.03218 0.12587 0.0
H1405 H 0.55654 0.03215 0.12412 0.0
H1406 H 0.56112 0.08722 0.0962 0.0
C1407 C 0.49381 0.08464 0.11162 0.0
C1408 C 0.51547 0.05296 0.12893 0.0
C1409 C 0.47535 0.08513 0.1111 0.0
C1410 C 0.58959 0.04679 0.12424 0.0
C1411 C 0.57088 0.04679 0.12331 0.0
C1412 C 0.54859 0.07774 0.10557 0.0
C1413 C 0.49356 0.06583 0.11415 0.0
C1414 C 0.51321 0.06544 0.11561 0.0
C1415 C 0.57072 0.06539 0.12073 0.0
C1416 C 0.55088 0.06534 0.11896 0.0
H1417 H 0.44145 0.03356 0.11669 0.0
H1418 H 0.47368 0.03268 0.11739 0.0
H1419 H 0.52862 0.08734 0.09334 0.0
H1420 H 0.62269 0.09863 0.11928 0.0
H1421 H 0.59006 0.09865 0.11784 0.0
C1422 C 0.54375 0.59523 0.61474 0.0
C1423 C 0.544 0.61404 0.61712 0.0
C1424 C 0.52498 0.57657 0.61389 0.0
C1425 C 0.46993 0.55277 0.62667 0.0
H1426 H 0.46218 0.51169 0.58979 0.0
C1427 C 0.39027 0.48083 0.61349 0.0
C1428 C 0.38973 0.4619 0.611 0.0
C1429 C 0.40913 0.4994 0.61372 0.0
C1430 C 0.46417 0.52291 0.60029 0.0
H1431 H 0.52486 0.62812 0.62052 0.0
H1432 H 0.49211 0.59558 0.61897 0.0
H1433 H 0.49515 0.54402 0.59155 0.0
H1434 H 0.40844 0.44753 0.60652 0.0
H1435 H 0.44142 0.47994 0.60711 0.0
H1436 H 0.43904 0.53168 0.63549 0.0
C1437 C 0.5064 0.5952 0.61793 0.0
C1438 C 0.48306 0.54142 0.60131 0.0
C1439 C 0.52515 0.61384 0.61873 0.0
C1440 C 0.40839 0.46191 0.60843 0.0
C1441 C 0.42727 0.48048 0.60868 0.0
C1442 C 0.45107 0.53426 0.62569 0.0
C1443 C 0.50609 0.57636 0.61546 0.0
C1444 C 0.48613 0.55658 0.61449 0.0
C1445 C 0.42787 0.49943 0.61149 0.0
C1446 C 0.44795 0.51912 0.61246 0.0
H1447 H 0.55805 0.59491 0.61347 0.0
H1448 H 0.52526 0.56229 0.61219 0.0
H1449 H 0.47192 0.564 0.63717 0.0
H1450 H 0.37613 0.48132 0.61543 0.0
H1451 H 0.40903 0.51375 0.6156 0.0
C1452 C 0.94923 0.40711 0.10129 0.0
C1453 C 0.93004 0.38871 0.10065 0.0
C1454 C 0.95037 0.42625 0.09896 0.0
C1455 C 0.92075 0.45092 0.08224 0.0
H1456 H 0.9568 0.49499 0.11571 0.0
C1457 C 0.91404 0.52375 0.09581 0.0
C1458 C 0.93245 0.5427 0.09816 0.0
C1459 C 0.91458 0.50539 0.09381 0.0
C1460 C 0.94689 0.48296 0.10606 0.0
H1461 H 0.89704 0.37584 0.09675 0.0
H1462 H 0.89897 0.40924 0.09302 0.0
H1463 H 0.95623 0.46212 0.11659 0.0
H1464 H 0.96588 0.55745 0.09955 0.0
H1465 H 0.96683 0.5254 0.09597 0.0
H1466 H 0.91109 0.47173 0.07204 0.0
C1467 C 0.91319 0.40892 0.09503 0.0
C1468 C 0.94657 0.4641 0.10655 0.0
C1469 C 0.91206 0.38978 0.09729 0.0
C1470 C 0.95144 0.54305 0.09785 0.0
C1471 C 0.95197 0.5247 0.0959 0.0
C1472 C 0.92102 0.46979 0.0818 0.0
C1473 C 0.93234 0.4274 0.09602 0.0
C1474 C 0.93338 0.44779 0.09475 0.0
C1475 C 0.93354 0.50562 0.09417 0.0
C1476 C 0.93399 0.48596 0.0938 0.0
H1477 H 0.96336 0.40675 0.10374 0.0
H1478 H 0.9654 0.44016 0.09952 0.0
H1479 H 0.91064 0.43878 0.07276 0.0
H1480 H 0.89917 0.52301 0.09601 0.0
H1481 H 0.9001 0.49092 0.09266 0.0
C1482 C 0.38956 0.9119 0.61901 0.0
C1483 C 0.38881 0.93033 0.6184 0.0
C1484 C 0.40855 0.91248 0.61935 0.0
C1485 C 0.46374 0.94603 0.60792 0.0
H1486 H 0.47121 0.90846 0.63984 0.0
C1487 C 0.54324 0.95184 0.61818 0.0
C1488 C 0.54352 0.93315 0.61824 0.0
C1489 C 0.52446 0.95173 0.61858 0.0
C1490 C 0.4693 0.91891 0.63072 0.0
H1491 H 0.40731 0.96382 0.61774 0.0
H1492 H 0.44051 0.96484 0.61848 0.0
H1493 H 0.43823 0.90786 0.63984 0.0
H1494 H 0.52442 0.89972 0.61881 0.0
H1495 H 0.49164 0.89952 0.61937 0.0
H1496 H 0.49479 0.95704 0.59876 0.0
C1497 C 0.42642 0.94993 0.61848 0.0
C1498 C 0.45041 0.91857 0.63072 0.0
C1499 C 0.40742 0.94936 0.61816 0.0
C1500 C 0.52468 0.91437 0.6188 0.0
C1501 C 0.50591 0.91426 0.61923 0.0
C1502 C 0.48264 0.94638 0.60793 0.0
C1503 C 0.42721 0.9315 0.61907 0.0
C1504 C 0.44739 0.93208 0.61927 0.0
C1505 C 0.50558 0.93294 0.61908 0.0
C1506 C 0.48561 0.93279 0.61929 0.0
H1507 H 0.37546 0.89701 0.61916 0.0
H1508 H 0.40862 0.89799 0.61955 0.0
H1509 H 0.46182 0.95643 0.59874 0.0
H1510 H 0.55752 0.96656 0.6178 0.0
H1511 H 0.52473 0.96639 0.61868 0.0
C1512 C 0.59156 0.53967 0.10096 0.0
C1513 C 0.6101 0.53945 0.10351 0.0
C1514 C 0.57269 0.52115 0.10002 0.0
C1515 C 0.54932 0.46465 0.09277 0.0
H1516 H 0.5037 0.46201 0.12073 0.0
C1517 C 0.47475 0.38765 0.10932 0.0
C1518 C 0.4559 0.38753 0.10827 0.0
C1519 C 0.49352 0.40619 0.10759 0.0
C1520 C 0.51619 0.46256 0.11265 0.0
H1521 H 0.62354 0.5197 0.10662 0.0
H1522 H 0.59058 0.48736 0.10518 0.0
H1523 H 0.5365 0.49438 0.11936 0.0
H1524 H 0.44187 0.40664 0.10431 0.0
H1525 H 0.4746 0.43895 0.10114 0.0
H1526 H 0.52898 0.43271 0.08624 0.0
C1527 C 0.59061 0.50182 0.10369 0.0
C1528 C 0.535 0.48112 0.11185 0.0
C1529 C 0.60949 0.52035 0.10461 0.0
C1530 C 0.45616 0.40626 0.10526 0.0
C1531 C 0.47491 0.42478 0.10354 0.0
C1532 C 0.53048 0.44605 0.09358 0.0
C1533 C 0.57197 0.50201 0.10165 0.0
C1534 C 0.5518 0.48238 0.10194 0.0
C1535 C 0.49381 0.42498 0.10479 0.0
C1536 C 0.51373 0.44479 0.10358 0.0
H1537 H 0.59158 0.55417 0.09998 0.0
H1538 H 0.55865 0.52183 0.09814 0.0
H1539 H 0.56188 0.46518 0.08483 0.0
H1540 H 0.47502 0.37344 0.11166 0.0
H1541 H 0.50782 0.40585 0.10883 0.0
C1542 C 0.05207 0.46039 0.60197 0.0
C1543 C 0.06948 0.45963 0.60829 0.0
C1544 C 0.05283 0.4794 0.59989 0.0
C1545 C 0.08153 0.53336 0.61638 0.0
H1546 H 0.05504 0.54397 0.57495 0.0
C1547 C 0.08888 0.61312 0.60572 0.0
C1548 C 0.07048 0.61312 0.6016 0.0
C1549 C 0.0896 0.59478 0.60485 0.0
C1550 C 0.06239 0.54118 0.58666 0.0
H1551 H 0.10145 0.47814 0.61704 0.0
H1552 H 0.10285 0.51127 0.61325 0.0
H1553 H 0.0546 0.51105 0.57678 0.0
H1554 H 0.03863 0.59411 0.5927 0.0
H1555 H 0.03985 0.56205 0.59129 0.0
H1556 H 0.08917 0.56334 0.62637 0.0
C1557 C 0.08851 0.4972 0.61016 0.0
C1558 C 0.06212 0.52232 0.58772 0.0
C1559 C 0.08774 0.47823 0.61224 0.0
C1560 C 0.05303 0.59458 0.59595 0.0
C1561 C 0.05376 0.57623 0.59506 0.0
C1562 C 0.08183 0.55219 0.61531 0.0
C1563 C 0.07102 0.49801 0.60409 0.0
C1564 C 0.07163 0.51818 0.60264 0.0
C1565 C 0.07195 0.57606 0.59983 0.0
C1566 C 0.07221 0.5563 0.60047 0.0
H1567 H 0.03777 0.4463 0.59883 0.0
H1568 H 0.03902 0.47947 0.59538 0.0
H1569 H 0.08868 0.53053 0.62823 0.0
H1570 H 0.10261 0.62719 0.61003 0.0
H1571 H 0.10394 0.59522 0.60832 0.0
C1572 C 0.9504 0.54165 0.39662 0.0
C1573 C 0.93128 0.541 0.39554 0.0
C1574 C 0.95116 0.52344 0.39878 0.0
C1575 C 0.9201 0.46823 0.41204 0.0
H1576 H 0.95744 0.4617 0.37906 0.0
C1577 C 0.91246 0.3889 0.39604 0.0
C1578 C 0.93065 0.38798 0.39358 0.0
C1579 C 0.9134 0.40793 0.39847 0.0
C1580 C 0.94718 0.46337 0.3886 0.0
H1581 H 0.898 0.5209 0.39653 0.0
H1582 H 0.89932 0.48906 0.40019 0.0
H1583 H 0.9576 0.49438 0.37972 0.0
H1584 H 0.96412 0.40615 0.39229 0.0
H1585 H 0.96579 0.43938 0.39677 0.0
H1586 H 0.90949 0.43707 0.42073 0.0
C1587 C 0.91372 0.50365 0.39952 0.0
C1588 C 0.94726 0.48212 0.38897 0.0
C1589 C 0.91296 0.52187 0.39732 0.0
C1590 C 0.94983 0.4064 0.39405 0.0
C1591 C 0.95078 0.42543 0.39652 0.0
C1592 C 0.92004 0.44947 0.4117 0.0
C1593 C 0.93283 0.5042 0.39995 0.0
C1594 C 0.93358 0.4847 0.40055 0.0
C1595 C 0.93255 0.42644 0.39853 0.0
C1596 C 0.93344 0.44675 0.39983 0.0
H1597 H 0.96479 0.55619 0.39538 0.0
H1598 H 0.96612 0.5244 0.39934 0.0
H1599 H 0.90956 0.46985 0.42128 0.0
H1600 H 0.89745 0.37494 0.39572 0.0
H1601 H 0.89906 0.40816 0.39974 0.0
C1602 C 0.52621 0.91314 0.87182 0.0
C1603 C 0.54515 0.93146 0.86912 0.0
C1604 C 0.50761 0.91333 0.87114 0.0
C1605 C 0.48658 0.94814 0.87727 0.0
H1606 H 0.43787 0.9039 0.85355 0.0
C1607 C 0.41004 0.94944 0.87139 0.0
C1608 C 0.39168 0.93067 0.87455 0.0
C1609 C 0.42892 0.94988 0.86979 0.0
C1610 C 0.45128 0.91626 0.86039 0.0
H1611 H 0.55947 0.96427 0.86323 0.0
H1612 H 0.52693 0.9646 0.86198 0.0
H1613 H 0.47058 0.90402 0.85208 0.0
H1614 H 0.37865 0.89766 0.87855 0.0
H1615 H 0.41161 0.89845 0.87605 0.0
H1616 H 0.46726 0.96023 0.88584 0.0
C1617 C 0.52649 0.95013 0.86479 0.0
C1618 C 0.47002 0.91634 0.85952 0.0
C1619 C 0.54511 0.94992 0.8654 0.0
C1620 C 0.39255 0.91235 0.87607 0.0
C1621 C 0.41142 0.91279 0.8745 0.0
C1622 C 0.46783 0.94802 0.8782 0.0
C1623 C 0.50756 0.93187 0.8678 0.0
C1624 C 0.48785 0.93222 0.86804 0.0
C1625 C 0.42983 0.93156 0.87134 0.0
C1626 C 0.44992 0.93202 0.86987 0.0
H1627 H 0.52577 0.89868 0.87474 0.0
H1628 H 0.49329 0.89905 0.87371 0.0
H1629 H 0.49998 0.96042 0.88421 0.0
H1630 H 0.40983 0.9638 0.87008 0.0
H1631 H 0.44277 0.96455 0.86713 0.0
C1632 C 0.47444 0.39035 0.38899 0.0
C1633 C 0.45553 0.38963 0.38579 0.0
C1634 C 0.49264 0.40932 0.39119 0.0
C1635 C 0.51563 0.46479 0.38045 0.0
H1636 H 0.55697 0.47097 0.41642 0.0
C1637 C 0.59018 0.5429 0.39206 0.0
C1638 C 0.6086 0.54215 0.39281 0.0
C1639 C 0.57102 0.52471 0.39301 0.0
C1640 C 0.54561 0.46944 0.40625 0.0
H1641 H 0.44074 0.40813 0.3826 0.0
H1642 H 0.4725 0.44129 0.38662 0.0
H1643 H 0.52428 0.43835 0.41452 0.0
H1644 H 0.62146 0.52188 0.3957 0.0
H1645 H 0.58801 0.4901 0.39727 0.0
H1646 H 0.53703 0.49578 0.37204 0.0
C1647 C 0.47333 0.42722 0.38719 0.0
C1648 C 0.52691 0.45075 0.40513 0.0
C1649 C 0.45512 0.40823 0.38496 0.0
C1650 C 0.60751 0.52293 0.39511 0.0
C1651 C 0.58835 0.50474 0.39609 0.0
C1652 C 0.53431 0.48348 0.38158 0.0
C1653 C 0.49231 0.42798 0.39027 0.0
C1654 C 0.51178 0.44815 0.39209 0.0
C1655 C 0.56989 0.5054 0.39477 0.0
C1656 C 0.54959 0.48595 0.39438 0.0
H1657 H 0.47524 0.37626 0.38966 0.0
H1658 H 0.50704 0.40937 0.39328 0.0
H1659 H 0.50445 0.4632 0.37007 0.0
H1660 H 0.59055 0.55751 0.39035 0.0
H1661 H 0.55706 0.52574 0.39221 0.0
C1662 C 0.0504 0.46219 0.8864 0.0
C1663 C 0.06948 0.46285 0.88483 0.0
C1664 C 0.04968 0.48043 0.88856 0.0
C1665 C 0.08161 0.53542 0.90236 0.0
H1666 H 0.04066 0.54194 0.87473 0.0
C1667 C 0.08554 0.61417 0.89239 0.0
C1668 C 0.06686 0.61445 0.89264 0.0
C1669 C 0.08546 0.59542 0.89331 0.0
C1670 C 0.05199 0.54025 0.88276 0.0
H1671 H 0.10276 0.48308 0.88428 0.0
H1672 H 0.10151 0.51496 0.88776 0.0
H1673 H 0.0413 0.5097 0.87238 0.0
H1674 H 0.0335 0.59544 0.89473 0.0
H1675 H 0.03337 0.5627 0.89648 0.0
H1676 H 0.09249 0.56614 0.91251 0.0
C1677 C 0.0871 0.50034 0.88762 0.0
C1678 C 0.05237 0.52177 0.88141 0.0
C1679 C 0.08782 0.48209 0.88549 0.0
C1680 C 0.04814 0.59569 0.89444 0.0
C1681 C 0.04806 0.57694 0.89532 0.0
C1682 C 0.08126 0.55393 0.90369 0.0
C1683 C 0.06802 0.49973 0.88917 0.0
C1684 C 0.06726 0.51917 0.8911 0.0
C1685 C 0.06669 0.57657 0.89445 0.0
C1686 C 0.06652 0.55659 0.89382 0.0
H1687 H 0.036 0.44757 0.88603 0.0
H1688 H 0.03473 0.47939 0.88994 0.0
H1689 H 0.09307 0.53379 0.91025 0.0
H1690 H 0.1002 0.6284 0.89098 0.0
H1691 H 0.10006 0.59566 0.89244 0.0
C1692 C 0.60508 0.08411 0.37647 0.0
C1693 C 0.60577 0.06567 0.37749 0.0
C1694 C 0.58623 0.08375 0.37788 0.0
C1695 C 0.52989 0.04923 0.37292 0.0
H1696 H 0.52693 0.09162 0.40166 0.0
C1697 C 0.45253 0.04674 0.38686 0.0
C1698 C 0.4526 0.06548 0.38469 0.0
C1699 C 0.47111 0.04645 0.38699 0.0
C1700 C 0.52755 0.07977 0.39346 0.0
H1701 H 0.58732 0.03238 0.38074 0.0
H1702 H 0.55439 0.03175 0.38333 0.0
H1703 H 0.55957 0.09166 0.39966 0.0
H1704 H 0.47212 0.09865 0.38127 0.0
H1705 H 0.50454 0.09813 0.3814 0.0
H1706 H 0.49789 0.03742 0.36665 0.0
C1707 C 0.56838 0.04647 0.38124 0.0
C1708 C 0.54625 0.07981 0.3923 0.0
C1709 C 0.58724 0.04684 0.37984 0.0
C1710 C 0.4716 0.08397 0.38301 0.0
C1711 C 0.49017 0.08368 0.38317 0.0
C1712 C 0.51118 0.04919 0.3741 0.0
C1713 C 0.56767 0.06494 0.38034 0.0
C1714 C 0.54767 0.06461 0.38192 0.0
C1715 C 0.49013 0.06489 0.38499 0.0
C1716 C 0.50983 0.06453 0.3843 0.0
H1717 H 0.61911 0.09886 0.37462 0.0
H1718 H 0.58618 0.09821 0.37685 0.0
H1719 H 0.53053 0.03748 0.36461 0.0
H1720 H 0.43811 0.03225 0.38823 0.0
H1721 H 0.47058 0.03176 0.38866 0.0
C1722 C 0.51896 0.60736 0.87239 0.0
C1723 C 0.53803 0.60796 0.87365 0.0
C1724 C 0.5005 0.58844 0.87151 0.0
C1725 C 0.47921 0.53312 0.86047 0.0
H1726 H 0.43249 0.52619 0.88956 0.0
C1727 C 0.40495 0.45379 0.87056 0.0
C1728 C 0.38598 0.45348 0.87018 0.0
C1729 C 0.42361 0.47259 0.87039 0.0
C1730 C 0.44531 0.52795 0.88118 0.0
H1731 H 0.55279 0.58927 0.87483 0.0
H1732 H 0.52051 0.55617 0.87343 0.0
H1733 H 0.46487 0.55906 0.89042 0.0
H1734 H 0.37162 0.47254 0.86897 0.0
H1735 H 0.40417 0.50534 0.86846 0.0
H1736 H 0.45961 0.50195 0.85127 0.0
C1737 C 0.51983 0.57033 0.87294 0.0
C1738 C 0.46387 0.54679 0.88168 0.0
C1739 C 0.53831 0.58927 0.87384 0.0
C1740 C 0.38601 0.4723 0.86935 0.0
C1741 C 0.40465 0.49109 0.86917 0.0
C1742 C 0.46062 0.51426 0.85997 0.0
C1743 C 0.50071 0.5697 0.87185 0.0
C1744 C 0.48103 0.54961 0.87131 0.0
C1745 C 0.42367 0.49146 0.86984 0.0
C1746 C 0.44345 0.51147 0.87029 0.0
H1747 H 0.51826 0.62152 0.87214 0.0
H1748 H 0.48605 0.58849 0.87042 0.0
H1749 H 0.49207 0.53489 0.85215 0.0
H1750 H 0.4054 0.43951 0.87124 0.0
H1751 H 0.43799 0.47235 0.8711 0.0
loop_
_geom_bond_atom_site_label_1
_geom_bond_atom_site_label_2
_geom_bond_distance
_geom_bond_site_symmetry_2
_ccdc_geom_bond_type
In0 O1 2.294 . S
In0 O2 2.326 . S
In0 O6 2.266 . S
In0 O7 2.326 . S
In0 O8 2.266 . S
In0 O9 2.326 . S
In0 O11 2.294 . S
In0 O12 2.326 . S
O1 In0 2.294 . S
O1 C10 1.240 . S
O2 In0 2.326 . S
O2 C10 1.252 . S
C3 O6 1.252 . S
C3 O7 1.260 . S
C4 O11 1.240 . S
C4 O12 1.252 . S
C5 O8 1.252 . S
C5 O9 1.260 . S
O6 In0 2.266 . S
O6 C3 1.252 . S
O7 In0 2.326 . S
O7 C3 1.260 . S
O8 In0 2.266 . S
O8 C5 1.252 . S
O9 In0 2.326 . S
O9 C5 1.260 . S
C10 O1 1.240 . S
C10 O2 1.252 . S
O11 In0 2.294 . S
O11 C4 1.240 . S
O12 In0 2.326 . S
O12 C4 1.252 . S
In13 O14 2.294 . S
In13 O15 2.326 . S
In13 O19 2.266 . S
In13 O20 2.326 . S
In13 O21 2.266 . S
In13 O22 2.326 . S
In13 O24 2.294 . S
In13 O25 2.326 . S
O14 In13 2.294 . S
O14 C23 1.240 . S
O15 In13 2.326 . S
O15 C23 1.252 . S
C16 O19 1.252 . S
C16 O20 1.260 . S
C17 O24 1.240 . S
C17 O25 1.252 . S
C18 O21 1.252 . S
C18 O22 1.260 . S
O19 In13 2.266 . S
O19 C16 1.252 . S
O20 In13 2.326 . S
O20 C16 1.260 . S
O21 In13 2.266 . S
O21 C18 1.252 . S
O22 In13 2.326 . S
O22 C18 1.260 . S
C23 O14 1.240 . S
C23 O15 1.252 . S
O24 In13 2.294 . S
O24 C17 1.240 . S
O25 In13 2.326 . S
O25 C17 1.252 . S
In26 O27 2.294 . S
In26 O28 2.326 . S
In26 O32 2.266 . S
In26 O33 2.326 . S
In26 O34 2.266 . S
In26 O35 2.326 . S
In26 O37 2.294 . S
In26 O38 2.326 . S
O27 In26 2.294 . S
O27 C36 1.240 . S
O28 In26 2.326 . S
O28 C36 1.252 . S
C29 O32 1.252 . S
C29 O33 1.260 . S
C30 O37 1.240 . S
C30 O38 1.252 . S
C31 O34 1.252 . S
C31 O35 1.260 . S
O32 In26 2.266 . S
O32 C29 1.252 . S
O33 In26 2.326 . S
O33 C29 1.260 . S
O34 In26 2.266 . S
O34 C31 1.252 . S
O35 In26 2.326 . S
O35 C31 1.260 . S
C36 O27 1.240 . S
C36 O28 1.252 . S
O37 In26 2.294 . S
O37 C30 1.240 . S
O38 In26 2.326 . S
O38 C30 1.252 . S
In39 O40 2.294 . S
In39 O41 2.326 . S
In39 O45 2.266 . S
In39 O46 2.326 . S
In39 O47 2.266 . S
In39 O48 2.326 . S
In39 O50 2.294 . S
In39 O51 2.326 . S
O40 In39 2.294 . S
O40 C49 1.240 . S
O41 In39 2.326 . S
O41 C49 1.252 . S
C42 O45 1.252 . S
C42 O46 1.260 . S
C43 O50 1.240 . S
C43 O51 1.252 . S
C44 O47 1.252 . S
C44 O48 1.260 . S
O45 In39 2.266 . S
O45 C42 1.252 . S
O46 In39 2.326 . S
O46 C42 1.260 . S
O47 In39 2.266 . S
O47 C44 1.252 . S
O48 In39 2.326 . S
O48 C44 1.260 . S
C49 O40 1.240 . S
C49 O41 1.252 . S
O50 In39 2.294 . S
O50 C43 1.240 . S
O51 In39 2.326 . S
O51 C43 1.252 . S
In52 O53 2.294 . S
In52 O54 2.326 . S
In52 O58 2.266 . S
In52 O59 2.326 . S
In52 O60 2.266 . S
In52 O61 2.326 . S
In52 O63 2.294 . S
In52 O64 2.326 . S
O53 In52 2.294 . S
O53 C62 1.240 . S
O54 In52 2.326 . S
O54 C62 1.252 . S
C55 O58 1.252 . S
C55 O59 1.260 . S
C56 O63 1.240 . S
C56 O64 1.252 . S
C57 O60 1.252 . S
C57 O61 1.260 . S
O58 In52 2.266 . S
O58 C55 1.252 . S
O59 In52 2.326 . S
O59 C55 1.260 . S
O60 In52 2.266 . S
O60 C57 1.252 . S
O61 In52 2.326 . S
O61 C57 1.260 . S
C62 O53 1.240 . S
C62 O54 1.252 . S
O63 In52 2.294 . S
O63 C56 1.240 . S
O64 In52 2.326 . S
O64 C56 1.252 . S
In65 O66 2.294 . S
In65 O67 2.326 . S
In65 O71 2.266 . S
In65 O72 2.326 . S
In65 O73 2.266 . S
In65 O74 2.326 . S
In65 O76 2.294 . S
In65 O77 2.326 . S
O66 In65 2.294 . S
O66 C75 1.240 . S
O67 In65 2.326 . S
O67 C75 1.252 . S
C68 O71 1.252 . S
C68 O72 1.260 . S
C69 O76 1.240 . S
C69 O77 1.252 . S
C70 O73 1.252 . S
C70 O74 1.260 . S
O71 In65 2.266 . S
O71 C68 1.252 . S
O72 In65 2.326 . S
O72 C68 1.260 . S
O73 In65 2.266 . S
O73 C70 1.252 . S
O74 In65 2.326 . S
O74 C70 1.260 . S
C75 O66 1.240 . S
C75 O67 1.252 . S
O76 In65 2.294 . S
O76 C69 1.240 . S
O77 In65 2.326 . S
O77 C69 1.252 . S
In78 O79 2.294 . S
In78 O80 2.326 . S
In78 O84 2.266 . S
In78 O85 2.326 . S
In78 O86 2.266 . S
In78 O87 2.326 . S
In78 O89 2.294 . S
In78 O90 2.326 . S
O79 In78 2.294 . S
O79 C88 1.240 . S
O80 In78 2.326 . S
O80 C88 1.252 . S
C81 O84 1.252 . S
C81 O85 1.260 . S
C82 O89 1.240 . S
C82 O90 1.252 . S
C83 O86 1.252 . S
C83 O87 1.260 . S
O84 In78 2.266 . S
O84 C81 1.252 . S
O85 In78 2.326 . S
O85 C81 1.260 . S
O86 In78 2.266 . S
O86 C83 1.252 . S
O87 In78 2.326 . S
O87 C83 1.260 . S
C88 O79 1.240 . S
C88 O80 1.252 . S
O89 In78 2.294 . S
O89 C82 1.240 . S
O90 In78 2.326 . S
O90 C82 1.252 . S
In91 O92 2.294 . S
In91 O93 2.326 . S
In91 O97 2.266 . S
In91 O98 2.326 . S
In91 O99 2.266 . S
In91 O100 2.326 . S
In91 O102 2.294 . S
In91 O103 2.326 . S
O92 In91 2.294 . S
O92 C101 1.240 . S
O93 In91 2.326 . S
O93 C101 1.252 . S
C94 O97 1.252 . S
C94 O98 1.260 . S
C95 O102 1.240 . S
C95 O103 1.252 . S
C96 O99 1.252 . S
C96 O100 1.260 . S
O97 In91 2.266 . S
O97 C94 1.252 . S
O98 In91 2.326 . S
O98 C94 1.260 . S
O99 In91 2.266 . S
O99 C96 1.252 . S
O100 In91 2.326 . S
O100 C96 1.260 . S
C101 O92 1.240 . S
C101 O93 1.252 . S
O102 In91 2.294 . S
O102 C95 1.240 . S
O103 In91 2.326 . S
O103 C95 1.252 . S
In104 O105 2.294 . S
In104 O106 2.326 . S
In104 O110 2.266 . S
In104 O111 2.326 . S
In104 O112 2.266 . S
In104 O113 2.326 . S
In104 O115 2.294 . S
In104 O116 2.326 . S
O105 In104 2.294 . S
O105 C114 1.240 . S
O106 In104 2.326 . S
O106 C114 1.252 . S
C107 O110 1.252 . S
C107 O111 1.260 . S
C108 O115 1.240 . S
C108 O116 1.252 . S
C109 O112 1.252 . S
C109 O113 1.260 . S
O110 In104 2.266 . S
O110 C107 1.252 . S
O111 In104 2.326 . S
O111 C107 1.260 . S
O112 In104 2.266 . S
O112 C109 1.252 . S
O113 In104 2.326 . S
O113 C109 1.260 . S
C114 O105 1.240 . S
C114 O106 1.252 . S
O115 In104 2.294 . S
O115 C108 1.240 . S
O116 In104 2.326 . S
O116 C108 1.252 . S
In117 O118 2.294 . S
In117 O119 2.326 . S
In117 O123 2.266 . S
In117 O124 2.326 . S
In117 O125 2.266 . S
In117 O126 2.326 . S
In117 O128 2.294 . S
In117 O129 2.326 . S
O118 In117 2.294 . S
O118 C127 1.240 . S
O119 In117 2.326 . S
O119 C127 1.252 . S
C120 O123 1.252 . S
C120 O124 1.260 . S
C121 O128 1.240 . S
C121 O129 1.252 . S
C122 O125 1.252 . S
C122 O126 1.260 . S
O123 In117 2.266 . S
O123 C120 1.252 . S
O124 In117 2.326 . S
O124 C120 1.260 . S
O125 In117 2.266 . S
O125 C122 1.252 . S
O126 In117 2.326 . S
O126 C122 1.260 . S
C127 O118 1.240 . S
C127 O119 1.252 . S
O128 In117 2.294 . S
O128 C121 1.240 . S
O129 In117 2.326 . S
O129 C121 1.252 . S
In130 O131 2.294 . S
In130 O132 2.326 . S
In130 O136 2.266 . S
In130 O137 2.326 . S
In130 O138 2.266 . S
In130 O139 2.326 . S
In130 O141 2.294 . S
In130 O142 2.326 . S
O131 In130 2.294 . S
O131 C140 1.240 . S
O132 In130 2.326 . S
O132 C140 1.252 . S
C133 O136 1.252 . S
C133 O137 1.260 . S
C134 O141 1.240 . S
C134 O142 1.252 . S
C135 O138 1.252 . S
C135 O139 1.260 . S
O136 In130 2.266 . S
O136 C133 1.252 . S
O137 In130 2.326 . S
O137 C133 1.260 . S
O138 In130 2.266 . S
O138 C135 1.252 . S
O139 In130 2.326 . S
O139 C135 1.260 . S
C140 O131 1.240 . S
C140 O132 1.252 . S
O141 In130 2.294 . S
O141 C134 1.240 . S
O142 In130 2.326 . S
O142 C134 1.252 . S
In143 O144 2.294 . S
In143 O145 2.326 . S
In143 O149 2.266 . S
In143 O150 2.326 . S
In143 O151 2.266 . S
In143 O152 2.326 . S
In143 O154 2.294 . S
In143 O155 2.326 . S
O144 In143 2.294 . S
O144 C153 1.240 . S
O145 In143 2.326 . S
O145 C153 1.252 . S
C146 O149 1.252 . S
C146 O150 1.260 . S
C147 O154 1.240 . S
C147 O155 1.252 . S
C148 O151 1.252 . S
C148 O152 1.260 . S
O149 In143 2.266 . S
O149 C146 1.252 . S
O150 In143 2.326 . S
O150 C146 1.260 . S
O151 In143 2.266 . S
O151 C148 1.252 . S
O152 In143 2.326 . S
O152 C148 1.260 . S
C153 O144 1.240 . S
C153 O145 1.252 . S
O154 In143 2.294 . S
O154 C147 1.240 . S
O155 In143 2.326 . S
O155 C147 1.252 . S
In156 O157 2.294 . S
In156 O158 2.326 . S
In156 O162 2.266 . S
In156 O163 2.326 . S
In156 O164 2.266 . S
In156 O165 2.326 . S
In156 O167 2.294 . S
In156 O168 2.326 . S
O157 In156 2.294 . S
O157 C166 1.240 . S
O158 In156 2.326 . S
O158 C166 1.252 . S
C159 O162 1.252 . S
C159 O163 1.260 . S
C160 O167 1.240 . S
C160 O168 1.252 . S
C161 O164 1.252 . S
C161 O165 1.260 . S
O162 In156 2.266 . S
O162 C159 1.252 . S
O163 In156 2.326 . S
O163 C159 1.260 . S
O164 In156 2.266 . S
O164 C161 1.252 . S
O165 In156 2.326 . S
O165 C161 1.260 . S
C166 O157 1.240 . S
C166 O158 1.252 . S
O167 In156 2.294 . S
O167 C160 1.240 . S
O168 In156 2.326 . S
O168 C160 1.252 . S
In169 O170 2.294 . S
In169 O171 2.326 . S
In169 O175 2.266 . S
In169 O176 2.326 . S
In169 O177 2.266 . S
In169 O178 2.326 . S
In169 O180 2.294 . S
In169 O181 2.326 . S
O170 In169 2.294 . S
O170 C179 1.240 . S
O171 In169 2.326 . S
O171 C179 1.252 . S
C172 O175 1.252 . S
C172 O176 1.260 . S
C173 O180 1.240 . S
C173 O181 1.252 . S
C174 O177 1.252 . S
C174 O178 1.260 . S
O175 In169 2.266 . S
O175 C172 1.252 . S
O176 In169 2.326 . S
O176 C172 1.260 . S
O177 In169 2.266 . S
O177 C174 1.252 . S
O178 In169 2.326 . S
O178 C174 1.260 . S
C179 O170 1.240 . S
C179 O171 1.252 . S
O180 In169 2.294 . S
O180 C173 1.240 . S
O181 In169 2.326 . S
O181 C173 1.252 . S
In182 O183 2.294 . S
In182 O184 2.326 . S
In182 O188 2.266 . S
In182 O189 2.326 . S
In182 O190 2.266 . S
In182 O191 2.326 . S
In182 O193 2.294 . S
In182 O194 2.326 . S
O183 In182 2.294 . S
O183 C192 1.240 . S
O184 In182 2.326 . S
O184 C192 1.252 . S
C185 O188 1.252 . S
C185 O189 1.260 . S
C186 O193 1.240 . S
C186 O194 1.252 . S
C187 O190 1.252 . S
C187 O191 1.260 . S
O188 In182 2.266 . S
O188 C185 1.252 . S
O189 In182 2.326 . S
O189 C185 1.260 . S
O190 In182 2.266 . S
O190 C187 1.252 . S
O191 In182 2.326 . S
O191 C187 1.260 . S
C192 O183 1.240 . S
C192 O184 1.252 . S
O193 In182 2.294 . S
O193 C186 1.240 . S
O194 In182 2.326 . S
O194 C186 1.252 . S
In195 O196 2.294 . S
In195 O197 2.326 . S
In195 O201 2.266 . S
In195 O202 2.326 . S
In195 O203 2.266 . S
In195 O204 2.326 . S
In195 O206 2.294 . S
In195 O207 2.326 . S
O196 In195 2.294 . S
O196 C205 1.240 . S
O197 In195 2.326 . S
O197 C205 1.252 . S
C198 O201 1.252 . S
C198 O202 1.260 . S
C199 O206 1.240 . S
C199 O207 1.252 . S
C200 O203 1.252 . S
C200 O204 1.260 . S
O201 In195 2.266 . S
O201 C198 1.252 . S
O202 In195 2.326 . S
O202 C198 1.260 . S
O203 In195 2.266 . S
O203 C200 1.252 . S
O204 In195 2.326 . S
O204 C200 1.260 . S
C205 O196 1.240 . S
C205 O197 1.252 . S
O206 In195 2.294 . S
O206 C199 1.240 . S
O207 In195 2.326 . S
O207 C199 1.252 . S
In208 O209 2.294 . S
In208 O210 2.326 . S
In208 O214 2.266 . S
In208 O215 2.326 . S
In208 O216 2.266 . S
In208 O217 2.326 . S
In208 O219 2.294 . S
In208 O220 2.326 . S
O209 In208 2.294 . S
O209 C218 1.240 . S
O210 In208 2.326 . S
O210 C218 1.252 . S
C211 O214 1.252 . S
C211 O215 1.260 . S
C212 O219 1.240 . S
C212 O220 1.252 . S
C213 O216 1.252 . S
C213 O217 1.260 . S
O214 In208 2.266 . S
O214 C211 1.252 . S
O215 In208 2.326 . S
O215 C211 1.260 . S
O216 In208 2.266 . S
O216 C213 1.252 . S
O217 In208 2.326 . S
O217 C213 1.260 . S
C218 O209 1.240 . S
C218 O210 1.252 . S
O219 In208 2.294 . S
O219 C212 1.240 . S
O220 In208 2.326 . S
O220 C212 1.252 . S
In221 O222 2.294 . S
In221 O223 2.326 . S
In221 O227 2.266 . S
In221 O228 2.326 . S
In221 O229 2.266 . S
In221 O230 2.326 . S
In221 O232 2.294 . S
In221 O233 2.326 . S
O222 In221 2.294 . S
O222 C231 1.240 . S
O223 In221 2.326 . S
O223 C231 1.252 . S
C224 O227 1.252 . S
C224 O228 1.260 . S
C225 O232 1.240 . S
C225 O233 1.252 . S
C226 O229 1.252 . S
C226 O230 1.260 . S
O227 In221 2.266 . S
O227 C224 1.252 . S
O228 In221 2.326 . S
O228 C224 1.260 . S
O229 In221 2.266 . S
O229 C226 1.252 . S
O230 In221 2.326 . S
O230 C226 1.260 . S
C231 O222 1.240 . S
C231 O223 1.252 . S
O232 In221 2.294 . S
O232 C225 1.240 . S
O233 In221 2.326 . S
O233 C225 1.252 . S
In234 O235 2.294 . S
In234 O236 2.326 . S
In234 O240 2.266 . S
In234 O241 2.326 . S
In234 O242 2.266 . S
In234 O243 2.326 . S
In234 O245 2.294 . S
In234 O246 2.326 . S
O235 In234 2.294 . S
O235 C244 1.240 . S
O236 In234 2.326 . S
O236 C244 1.252 . S
C237 O240 1.252 . S
C237 O241 1.260 . S
C238 O245 1.240 . S
C238 O246 1.252 . S
C239 O242 1.252 . S
C239 O243 1.260 . S
O240 In234 2.266 . S
O240 C237 1.252 . S
O241 In234 2.326 . S
O241 C237 1.260 . S
O242 In234 2.266 . S
O242 C239 1.252 . S
O243 In234 2.326 . S
O243 C239 1.260 . S
C244 O235 1.240 . S
C244 O236 1.252 . S
O245 In234 2.294 . S
O245 C238 1.240 . S
O246 In234 2.326 . S
O246 C238 1.252 . S
In247 O248 2.294 . S
In247 O249 2.326 . S
In247 O253 2.266 . S
In247 O254 2.326 . S
In247 O255 2.266 . S
In247 O256 2.326 . S
In247 O258 2.294 . S
In247 O259 2.326 . S
O248 In247 2.294 . S
O248 C257 1.240 . S
O249 In247 2.326 . S
O249 C257 1.252 . S
C250 O253 1.252 . S
C250 O254 1.260 . S
C251 O258 1.240 . S
C251 O259 1.252 . S
C252 O255 1.252 . S
C252 O256 1.260 . S
O253 In247 2.266 . S
O253 C250 1.252 . S
O254 In247 2.326 . S
O254 C250 1.260 . S
O255 In247 2.266 . S
O255 C252 1.252 . S
O256 In247 2.326 . S
O256 C252 1.260 . S
C257 O248 1.240 . S
C257 O249 1.252 . S
O258 In247 2.294 . S
O258 C251 1.240 . S
O259 In247 2.326 . S
O259 C251 1.252 . S
In260 O261 2.294 . S
In260 O262 2.326 . S
In260 O266 2.266 . S
In260 O267 2.326 . S
In260 O268 2.266 . S
In260 O269 2.326 . S
In260 O271 2.294 . S
In260 O272 2.326 . S
O261 In260 2.294 . S
O261 C270 1.240 . S
O262 In260 2.326 . S
O262 C270 1.252 . S
C263 O266 1.252 . S
C263 O267 1.260 . S
C264 O271 1.240 . S
C264 O272 1.252 . S
C265 O268 1.252 . S
C265 O269 1.260 . S
O266 In260 2.266 . S
O266 C263 1.252 . S
O267 In260 2.326 . S
O267 C263 1.260 . S
O268 In260 2.266 . S
O268 C265 1.252 . S
O269 In260 2.326 . S
O269 C265 1.260 . S
C270 O261 1.240 . S
C270 O262 1.252 . S
O271 In260 2.294 . S
O271 C264 1.240 . S
O272 In260 2.326 . S
O272 C264 1.252 . S
In273 O274 2.294 . S
In273 O275 2.326 . S
In273 O279 2.266 . S
In273 O280 2.326 . S
In273 O281 2.266 . S
In273 O282 2.326 . S
In273 O284 2.294 . S
In273 O285 2.326 . S
O274 In273 2.294 . S
O274 C283 1.240 . S
O275 In273 2.326 . S
O275 C283 1.252 . S
C276 O279 1.252 . S
C276 O280 1.260 . S
C277 O284 1.240 . S
C277 O285 1.252 . S
C278 O281 1.252 . S
C278 O282 1.260 . S
O279 In273 2.266 . S
O279 C276 1.252 . S
O280 In273 2.326 . S
O280 C276 1.260 . S
O281 In273 2.266 . S
O281 C278 1.252 . S
O282 In273 2.326 . S
O282 C278 1.260 . S
C283 O274 1.240 . S
C283 O275 1.252 . S
O284 In273 2.294 . S
O284 C277 1.240 . S
O285 In273 2.326 . S
O285 C277 1.252 . S
In286 O287 2.294 . S
In286 O288 2.326 . S
In286 O292 2.266 . S
In286 O293 2.326 . S
In286 O294 2.266 . S
In286 O295 2.326 . S
In286 O297 2.294 . S
In286 O298 2.326 . S
O287 In286 2.294 . S
O287 C296 1.240 . S
O288 In286 2.326 . S
O288 C296 1.252 . S
C289 O292 1.252 . S
C289 O293 1.260 . S
C290 O297 1.240 . S
C290 O298 1.252 . S
C291 O294 1.252 . S
C291 O295 1.260 . S
O292 In286 2.266 . S
O292 C289 1.252 . S
O293 In286 2.326 . S
O293 C289 1.260 . S
O294 In286 2.266 . S
O294 C291 1.252 . S
O295 In286 2.326 . S
O295 C291 1.260 . S
C296 O287 1.240 . S
C296 O288 1.252 . S
O297 In286 2.294 . S
O297 C290 1.240 . S
O298 In286 2.326 . S
O298 C290 1.252 . S
In299 O300 2.294 . S
In299 O301 2.326 . S
In299 O305 2.266 . S
In299 O306 2.326 . S
In299 O307 2.266 . S
In299 O308 2.326 . S
In299 O310 2.294 . S
In299 O311 2.326 . S
O300 In299 2.294 . S
O300 C309 1.240 . S
O301 In299 2.326 . S
O301 C309 1.252 . S
C302 O305 1.252 . S
C302 O306 1.260 . S
C303 O310 1.240 . S
C303 O311 1.252 . S
C304 O307 1.252 . S
C304 O308 1.260 . S
O305 In299 2.266 . S
O305 C302 1.252 . S
O306 In299 2.326 . S
O306 C302 1.260 . S
O307 In299 2.266 . S
O307 C304 1.252 . S
O308 In299 2.326 . S
O308 C304 1.260 . S
C309 O300 1.240 . S
C309 O301 1.252 . S
O310 In299 2.294 . S
O310 C303 1.240 . S
O311 In299 2.326 . S
O311 C303 1.252 . S
C312 C313 1.349 . S
C312 C314 1.327 . S
C312 H337 0.950 . S
C313 C312 1.349 . S
C313 C329 1.349 . S
C314 C312 1.327 . S
C314 C333 1.429 . S
C314 H338 0.950 . S
C315 C332 1.574 . S
C315 C334 1.368 . S
C315 H339 0.949 . S
H316 C320 0.949 . S
C317 C318 1.349 . S
C317 C319 1.327 . S
C317 H340 0.950 . S
C318 C317 1.349 . S
C318 C330 1.349 . S
C319 C317 1.327 . S
C319 C335 1.429 . S
C319 H341 0.950 . S
C320 H316 0.949 . S
C320 C328 1.574 . S
C320 C336 1.368 . S
H321 C329 0.950 . S
H322 C327 0.950 . S
H323 C328 0.949 . S
H324 C330 0.950 . S
H325 C331 0.950 . S
H326 C332 0.949 . S
C327 H322 0.950 . S
C327 C329 1.327 . S
C327 C333 1.429 . S
C328 C320 1.574 . S
C328 H323 0.949 . S
C328 C334 1.368 . S
C329 C313 1.349 . S
C329 H321 0.950 . S
C329 C327 1.327 . S
C330 C318 1.349 . S
C330 H324 0.950 . S
C330 C331 1.327 . S
C331 H325 0.950 . S
C331 C330 1.327 . S
C331 C335 1.429 . S
C332 C315 1.574 . S
C332 H326 0.949 . S
C332 C336 1.368 . S
C333 C314 1.429 . S
C333 C327 1.429 . S
C333 C334 1.523 . S
C334 C315 1.368 . S
C334 C328 1.368 . S
C334 C333 1.523 . S
C335 C319 1.429 . S
C335 C331 1.429 . S
C335 C336 1.523 . S
C336 C320 1.368 . S
C336 C332 1.368 . S
C336 C335 1.523 . S
H337 C312 0.950 . S
H338 C314 0.950 . S
H339 C315 0.949 . S
H340 C317 0.950 . S
H341 C319 0.950 . S
C342 C343 1.349 . S
C342 C344 1.327 . S
C342 H367 0.950 . S
C343 C342 1.349 . S
C343 C359 1.349 . S
C344 C342 1.327 . S
C344 C363 1.429 . S
C344 H368 0.950 . S
C345 C362 1.574 . S
C345 C364 1.368 . S
C345 H369 0.949 . S
H346 C350 0.949 . S
C347 C348 1.349 . S
C347 C349 1.327 . S
C347 H370 0.950 . S
C348 C347 1.349 . S
C348 C360 1.349 . S
C349 C347 1.327 . S
C349 C365 1.429 . S
C349 H371 0.950 . S
C350 H346 0.949 . S
C350 C358 1.574 . S
C350 C366 1.368 . S
H351 C359 0.950 . S
H352 C357 0.950 . S
H353 C358 0.949 . S
H354 C360 0.950 . S
H355 C361 0.950 . S
H356 C362 0.949 . S
C357 H352 0.950 . S
C357 C359 1.327 . S
C357 C363 1.429 . S
C358 C350 1.574 . S
C358 H353 0.949 . S
C358 C364 1.368 . S
C359 C343 1.349 . S
C359 H351 0.950 . S
C359 C357 1.327 . S
C360 C348 1.349 . S
C360 H354 0.950 . S
C360 C361 1.327 . S
C361 H355 0.950 . S
C361 C360 1.327 . S
C361 C365 1.429 . S
C362 C345 1.574 . S
C362 H356 0.949 . S
C362 C366 1.368 . S
C363 C344 1.429 . S
C363 C357 1.429 . S
C363 C364 1.523 . S
C364 C345 1.368 . S
C364 C358 1.368 . S
C364 C363 1.523 . S
C365 C349 1.429 . S
C365 C361 1.429 . S
C365 C366 1.523 . S
C366 C350 1.368 . S
C366 C362 1.368 . S
C366 C365 1.523 . S
H367 C342 0.950 . S
H368 C344 0.950 . S
H369 C345 0.949 . S
H370 C347 0.950 . S
H371 C349 0.950 . S
C372 C373 1.349 . S
C372 C374 1.327 . S
C372 H397 0.950 . S
C373 C372 1.349 . S
C373 C389 1.349 . S
C374 C372 1.327 . S
C374 C393 1.429 . S
C374 H398 0.950 . S
C375 C392 1.574 . S
C375 C394 1.368 . S
C375 H399 0.949 . S
H376 C380 0.949 . S
C377 C378 1.349 . S
C377 C379 1.327 . S
C377 H400 0.950 . S
C378 C377 1.349 . S
C378 C390 1.349 . S
C379 C377 1.327 . S
C379 C395 1.429 . S
C379 H401 0.950 . S
C380 H376 0.949 . S
C380 C388 1.574 . S
C380 C396 1.368 . S
H381 C389 0.950 . S
H382 C387 0.950 . S
H383 C388 0.949 . S
H384 C390 0.950 . S
H385 C391 0.950 . S
H386 C392 0.949 . S
C387 H382 0.950 . S
C387 C389 1.327 . S
C387 C393 1.429 . S
C388 C380 1.574 . S
C388 H383 0.949 . S
C388 C394 1.368 . S
C389 C373 1.349 . S
C389 H381 0.950 . S
C389 C387 1.327 . S
C390 C378 1.349 . S
C390 H384 0.950 . S
C390 C391 1.327 . S
C391 H385 0.950 . S
C391 C390 1.327 . S
C391 C395 1.429 . S
C392 C375 1.574 . S
C392 H386 0.949 . S
C392 C396 1.368 . S
C393 C374 1.429 . S
C393 C387 1.429 . S
C393 C394 1.523 . S
C394 C375 1.368 . S
C394 C388 1.368 . S
C394 C393 1.523 . S
C395 C379 1.429 . S
C395 C391 1.429 . S
C395 C396 1.523 . S
C396 C380 1.368 . S
C396 C392 1.368 . S
C396 C395 1.523 . S
H397 C372 0.950 . S
H398 C374 0.950 . S
H399 C375 0.949 . S
H400 C377 0.950 . S
H401 C379 0.950 . S
C402 C403 1.349 . S
C402 C404 1.327 . S
C402 H427 0.950 . S
C403 C402 1.349 . S
C403 C419 1.349 . S
C404 C402 1.327 . S
C404 C423 1.429 . S
C404 H428 0.950 . S
C405 C422 1.574 . S
C405 C424 1.368 . S
C405 H429 0.949 . S
H406 C410 0.949 . S
C407 C408 1.349 . S
C407 C409 1.327 . S
C407 H430 0.950 . S
C408 C407 1.349 . S
C408 C420 1.349 . S
C409 C407 1.327 . S
C409 C425 1.429 . S
C409 H431 0.950 . S
C410 H406 0.949 . S
C410 C418 1.574 . S
C410 C426 1.368 . S
H411 C419 0.950 . S
H412 C417 0.950 . S
H413 C418 0.949 . S
H414 C420 0.950 . S
H415 C421 0.950 . S
H416 C422 0.949 . S
C417 H412 0.950 . S
C417 C419 1.327 . S
C417 C423 1.429 . S
C418 C410 1.574 . S
C418 H413 0.949 . S
C418 C424 1.368 . S
C419 C403 1.349 . S
C419 H411 0.950 . S
C419 C417 1.327 . S
C420 C408 1.349 . S
C420 H414 0.950 . S
C420 C421 1.327 . S
C421 H415 0.950 . S
C421 C420 1.327 . S
C421 C425 1.429 . S
C422 C405 1.574 . S
C422 H416 0.949 . S
C422 C426 1.368 . S
C423 C404 1.429 . S
C423 C417 1.429 . S
C423 C424 1.523 . S
C424 C405 1.368 . S
C424 C418 1.368 . S
C424 C423 1.523 . S
C425 C409 1.429 . S
C425 C421 1.429 . S
C425 C426 1.523 . S
C426 C410 1.368 . S
C426 C422 1.368 . S
C426 C425 1.523 . S
H427 C402 0.950 . S
H428 C404 0.950 . S
H429 C405 0.949 . S
H430 C407 0.950 . S
H431 C409 0.950 . S
C432 C433 1.349 . S
C432 C434 1.327 . S
C432 H457 0.950 . S
C433 C432 1.349 . S
C433 C449 1.349 . S
C434 C432 1.327 . S
C434 C453 1.429 . S
C434 H458 0.950 . S
C435 C452 1.574 . S
C435 C454 1.368 . S
C435 H459 0.949 . S
H436 C440 0.949 . S
C437 C438 1.349 . S
C437 C439 1.327 . S
C437 H460 0.950 . S
C438 C437 1.349 . S
C438 C450 1.349 . S
C439 C437 1.327 . S
C439 C455 1.429 . S
C439 H461 0.950 . S
C440 H436 0.949 . S
C440 C448 1.574 . S
C440 C456 1.368 . S
H441 C449 0.950 . S
H442 C447 0.950 . S
H443 C448 0.949 . S
H444 C450 0.950 . S
H445 C451 0.950 . S
H446 C452 0.949 . S
C447 H442 0.950 . S
C447 C449 1.327 . S
C447 C453 1.429 . S
C448 C440 1.574 . S
C448 H443 0.949 . S
C448 C454 1.368 . S
C449 C433 1.349 . S
C449 H441 0.950 . S
C449 C447 1.327 . S
C450 C438 1.349 . S
C450 H444 0.950 . S
C450 C451 1.327 . S
C451 H445 0.950 . S
C451 C450 1.327 . S
C451 C455 1.429 . S
C452 C435 1.574 . S
C452 H446 0.949 . S
C452 C456 1.368 . S
C453 C434 1.429 . S
C453 C447 1.429 . S
C453 C454 1.523 . S
C454 C435 1.368 . S
C454 C448 1.368 . S
C454 C453 1.523 . S
C455 C439 1.429 . S
C455 C451 1.429 . S
C455 C456 1.523 . S
C456 C440 1.368 . S
C456 C452 1.368 . S
C456 C455 1.523 . S
H457 C432 0.950 . S
H458 C434 0.950 . S
H459 C435 0.949 . S
H460 C437 0.950 . S
H461 C439 0.950 . S
C462 C463 1.349 . S
C462 C464 1.327 . S
C462 H487 0.950 . S
C463 C462 1.349 . S
C463 C479 1.349 . S
C464 C462 1.327 . S
C464 C483 1.429 . S
C464 H488 0.950 . S
C465 C482 1.574 . S
C465 C484 1.368 . S
C465 H489 0.949 . S
H466 C470 0.949 . S
C467 C468 1.349 . S
C467 C469 1.327 . S
C467 H490 0.950 . S
C468 C467 1.349 . S
C468 C480 1.349 . S
C469 C467 1.327 . S
C469 C485 1.429 . S
C469 H491 0.950 . S
C470 H466 0.949 . S
C470 C478 1.574 . S
C470 C486 1.368 . S
H471 C479 0.950 . S
H472 C477 0.950 . S
H473 C478 0.949 . S
H474 C480 0.950 . S
H475 C481 0.950 . S
H476 C482 0.949 . S
C477 H472 0.950 . S
C477 C479 1.327 . S
C477 C483 1.429 . S
C478 C470 1.574 . S
C478 H473 0.949 . S
C478 C484 1.368 . S
C479 C463 1.349 . S
C479 H471 0.950 . S
C479 C477 1.327 . S
C480 C468 1.349 . S
C480 H474 0.950 . S
C480 C481 1.327 . S
C481 H475 0.950 . S
C481 C480 1.327 . S
C481 C485 1.429 . S
C482 C465 1.574 . S
C482 H476 0.949 . S
C482 C486 1.368 . S
C483 C464 1.429 . S
C483 C477 1.429 . S
C483 C484 1.523 . S
C484 C465 1.368 . S
C484 C478 1.368 . S
C484 C483 1.523 . S
C485 C469 1.429 . S
C485 C481 1.429 . S
C485 C486 1.523 . S
C486 C470 1.368 . S
C486 C482 1.368 . S
C486 C485 1.523 . S
H487 C462 0.950 . S
H488 C464 0.950 . S
H489 C465 0.949 . S
H490 C467 0.950 . S
H491 C469 0.950 . S
C492 C493 1.349 . S
C492 C494 1.327 . S
C492 H517 0.950 . S
C493 C492 1.349 . S
C493 C509 1.349 . S
C494 C492 1.327 . S
C494 C513 1.429 . S
C494 H518 0.950 . S
C495 C512 1.574 . S
C495 C514 1.368 . S
C495 H519 0.949 . S
H496 C500 0.949 . S
C497 C498 1.349 . S
C497 C499 1.327 . S
C497 H520 0.950 . S
C498 C497 1.349 . S
C498 C510 1.349 . S
C499 C497 1.327 . S
C499 C515 1.429 . S
C499 H521 0.950 . S
C500 H496 0.949 . S
C500 C508 1.574 . S
C500 C516 1.368 . S
H501 C509 0.950 . S
H502 C507 0.950 . S
H503 C508 0.949 . S
H504 C510 0.950 . S
H505 C511 0.950 . S
H506 C512 0.949 . S
C507 H502 0.950 . S
C507 C509 1.327 . S
C507 C513 1.429 . S
C508 C500 1.574 . S
C508 H503 0.949 . S
C508 C514 1.368 . S
C509 C493 1.349 . S
C509 H501 0.950 . S
C509 C507 1.327 . S
C510 C498 1.349 . S
C510 H504 0.950 . S
C510 C511 1.327 . S
C511 H505 0.950 . S
C511 C510 1.327 . S
C511 C515 1.429 . S
C512 C495 1.574 . S
C512 H506 0.949 . S
C512 C516 1.368 . S
C513 C494 1.429 . S
C513 C507 1.429 . S
C513 C514 1.523 . S
C514 C495 1.368 . S
C514 C508 1.368 . S
C514 C513 1.523 . S
C515 C499 1.429 . S
C515 C511 1.429 . S
C515 C516 1.523 . S
C516 C500 1.368 . S
C516 C512 1.368 . S
C516 C515 1.523 . S
H517 C492 0.950 . S
H518 C494 0.950 . S
H519 C495 0.949 . S
H520 C497 0.950 . S
H521 C499 0.950 . S
C522 C523 1.349 . S
C522 C524 1.327 . S
C522 H547 0.950 . S
C523 C522 1.349 . S
C523 C539 1.349 . S
C524 C522 1.327 . S
C524 C543 1.429 . S
C524 H548 0.950 . S
C525 C542 1.574 . S
C525 C544 1.368 . S
C525 H549 0.949 . S
H526 C530 0.949 . S
C527 C528 1.349 . S
C527 C529 1.327 . S
C527 H550 0.950 . S
C528 C527 1.349 . S
C528 C540 1.349 . S
C529 C527 1.327 . S
C529 C545 1.429 . S
C529 H551 0.950 . S
C530 H526 0.949 . S
C530 C538 1.574 . S
C530 C546 1.368 . S
H531 C539 0.950 . S
H532 C537 0.950 . S
H533 C538 0.949 . S
H534 C540 0.950 . S
H535 C541 0.950 . S
H536 C542 0.949 . S
C537 H532 0.950 . S
C537 C539 1.327 . S
C537 C543 1.429 . S
C538 C530 1.574 . S
C538 H533 0.949 . S
C538 C544 1.368 . S
C539 C523 1.349 . S
C539 H531 0.950 . S
C539 C537 1.327 . S
C540 C528 1.349 . S
C540 H534 0.950 . S
C540 C541 1.327 . S
C541 H535 0.950 . S
C541 C540 1.327 . S
C541 C545 1.429 . S
C542 C525 1.574 . S
C542 H536 0.949 . S
C542 C546 1.368 . S
C543 C524 1.429 . S
C543 C537 1.429 . S
C543 C544 1.523 . S
C544 C525 1.368 . S
C544 C538 1.368 . S
C544 C543 1.523 . S
C545 C529 1.429 . S
C545 C541 1.429 . S
C545 C546 1.523 . S
C546 C530 1.368 . S
C546 C542 1.368 . S
C546 C545 1.523 . S
H547 C522 0.950 . S
H548 C524 0.950 . S
H549 C525 0.949 . S
H550 C527 0.950 . S
H551 C529 0.950 . S
C552 C553 1.349 . S
C552 C554 1.327 . S
C552 H577 0.950 . S
C553 C552 1.349 . S
C553 C569 1.349 . S
C554 C552 1.327 . S
C554 C573 1.429 . S
C554 H578 0.950 . S
C555 C572 1.574 . S
C555 C574 1.368 . S
C555 H579 0.949 . S
H556 C560 0.949 . S
C557 C558 1.349 . S
C557 C559 1.327 . S
C557 H580 0.950 . S
C558 C557 1.349 . S
C558 C570 1.349 . S
C559 C557 1.327 . S
C559 C575 1.429 . S
C559 H581 0.950 . S
C560 H556 0.949 . S
C560 C568 1.574 . S
C560 C576 1.368 . S
H561 C569 0.950 . S
H562 C567 0.950 . S
H563 C568 0.949 . S
H564 C570 0.950 . S
H565 C571 0.950 . S
H566 C572 0.949 . S
C567 H562 0.950 . S
C567 C569 1.327 . S
C567 C573 1.429 . S
C568 C560 1.574 . S
C568 H563 0.949 . S
C568 C574 1.368 . S
C569 C553 1.349 . S
C569 H561 0.950 . S
C569 C567 1.327 . S
C570 C558 1.349 . S
C570 H564 0.950 . S
C570 C571 1.327 . S
C571 H565 0.950 . S
C571 C570 1.327 . S
C571 C575 1.429 . S
C572 C555 1.574 . S
C572 H566 0.949 . S
C572 C576 1.368 . S
C573 C554 1.429 . S
C573 C567 1.429 . S
C573 C574 1.523 . S
C574 C555 1.368 . S
C574 C568 1.368 . S
C574 C573 1.523 . S
C575 C559 1.429 . S
C575 C571 1.429 . S
C575 C576 1.523 . S
C576 C560 1.368 . S
C576 C572 1.368 . S
C576 C575 1.523 . S
H577 C552 0.950 . S
H578 C554 0.950 . S
H579 C555 0.949 . S
H580 C557 0.950 . S
H581 C559 0.950 . S
C582 C583 1.349 . S
C582 C584 1.327 . S
C582 H607 0.950 . S
C583 C582 1.349 . S
C583 C599 1.349 . S
C584 C582 1.327 . S
C584 C603 1.429 . S
C584 H608 0.950 . S
C585 C602 1.574 . S
C585 C604 1.368 . S
C585 H609 0.949 . S
H586 C590 0.949 . S
C587 C588 1.349 . S
C587 C589 1.327 . S
C587 H610 0.950 . S
C588 C587 1.349 . S
C588 C600 1.349 . S
C589 C587 1.327 . S
C589 C605 1.429 . S
C589 H611 0.950 . S
C590 H586 0.949 . S
C590 C598 1.574 . S
C590 C606 1.368 . S
H591 C599 0.950 . S
H592 C597 0.950 . S
H593 C598 0.949 . S
H594 C600 0.950 . S
H595 C601 0.950 . S
H596 C602 0.949 . S
C597 H592 0.950 . S
C597 C599 1.327 . S
C597 C603 1.429 . S
C598 C590 1.574 . S
C598 H593 0.949 . S
C598 C604 1.368 . S
C599 C583 1.349 . S
C599 H591 0.950 . S
C599 C597 1.327 . S
C600 C588 1.349 . S
C600 H594 0.950 . S
C600 C601 1.327 . S
C601 H595 0.950 . S
C601 C600 1.327 . S
C601 C605 1.429 . S
C602 C585 1.574 . S
C602 H596 0.949 . S
C602 C606 1.368 . S
C603 C584 1.429 . S
C603 C597 1.429 . S
C603 C604 1.523 . S
C604 C585 1.368 . S
C604 C598 1.368 . S
C604 C603 1.523 . S
C605 C589 1.429 . S
C605 C601 1.429 . S
C605 C606 1.523 . S
C606 C590 1.368 . S
C606 C602 1.368 . S
C606 C605 1.523 . S
H607 C582 0.950 . S
H608 C584 0.950 . S
H609 C585 0.949 . S
H610 C587 0.950 . S
H611 C589 0.950 . S
C612 C613 1.349 . S
C612 C614 1.327 . S
C612 H637 0.950 . S
C613 C612 1.349 . S
C613 C629 1.349 . S
C614 C612 1.327 . S
C614 C633 1.429 . S
C614 H638 0.950 . S
C615 C632 1.574 . S
C615 C634 1.368 . S
C615 H639 0.949 . S
H616 C620 0.949 . S
C617 C618 1.349 . S
C617 C619 1.327 . S
C617 H640 0.950 . S
C618 C617 1.349 . S
C618 C630 1.349 . S
C619 C617 1.327 . S
C619 C635 1.429 . S
C619 H641 0.950 . S
C620 H616 0.949 . S
C620 C628 1.574 . S
C620 C636 1.368 . S
H621 C629 0.950 . S
H622 C627 0.950 . S
H623 C628 0.949 . S
H624 C630 0.950 . S
H625 C631 0.950 . S
H626 C632 0.949 . S
C627 H622 0.950 . S
C627 C629 1.327 . S
C627 C633 1.429 . S
C628 C620 1.574 . S
C628 H623 0.949 . S
C628 C634 1.368 . S
C629 C613 1.349 . S
C629 H621 0.950 . S
C629 C627 1.327 . S
C630 C618 1.349 . S
C630 H624 0.950 . S
C630 C631 1.327 . S
C631 H625 0.950 . S
C631 C630 1.327 . S
C631 C635 1.429 . S
C632 C615 1.574 . S
C632 H626 0.949 . S
C632 C636 1.368 . S
C633 C614 1.429 . S
C633 C627 1.429 . S
C633 C634 1.523 . S
C634 C615 1.368 . S
C634 C628 1.368 . S
C634 C633 1.523 . S
C635 C619 1.429 . S
C635 C631 1.429 . S
C635 C636 1.523 . S
C636 C620 1.368 . S
C636 C632 1.368 . S
C636 C635 1.523 . S
H637 C612 0.950 . S
H638 C614 0.950 . S
H639 C615 0.949 . S
H640 C617 0.950 . S
H641 C619 0.950 . S
C642 C643 1.349 . S
C642 C644 1.327 . S
C642 H667 0.950 . S
C643 C642 1.349 . S
C643 C659 1.349 . S
C644 C642 1.327 . S
C644 C663 1.429 . S
C644 H668 0.950 . S
C645 C662 1.574 . S
C645 C664 1.368 . S
C645 H669 0.949 . S
H646 C650 0.949 . S
C647 C648 1.349 . S
C647 C649 1.327 . S
C647 H670 0.950 . S
C648 C647 1.349 . S
C648 C660 1.349 . S
C649 C647 1.327 . S
C649 C665 1.429 . S
C649 H671 0.950 . S
C650 H646 0.949 . S
C650 C658 1.574 . S
C650 C666 1.368 . S
H651 C659 0.950 . S
H652 C657 0.950 . S
H653 C658 0.949 . S
H654 C660 0.950 . S
H655 C661 0.950 . S
H656 C662 0.949 . S
C657 H652 0.950 . S
C657 C659 1.327 . S
C657 C663 1.429 . S
C658 C650 1.574 . S
C658 H653 0.949 . S
C658 C664 1.368 . S
C659 C643 1.349 . S
C659 H651 0.950 . S
C659 C657 1.327 . S
C660 C648 1.349 . S
C660 H654 0.950 . S
C660 C661 1.327 . S
C661 H655 0.950 . S
C661 C660 1.327 . S
C661 C665 1.429 . S
C662 C645 1.574 . S
C662 H656 0.949 . S
C662 C666 1.368 . S
C663 C644 1.429 . S
C663 C657 1.429 . S
C663 C664 1.523 . S
C664 C645 1.368 . S
C664 C658 1.368 . S
C664 C663 1.523 . S
C665 C649 1.429 . S
C665 C661 1.429 . S
C665 C666 1.523 . S
C666 C650 1.368 . S
C666 C662 1.368 . S
C666 C665 1.523 . S
H667 C642 0.950 . S
H668 C644 0.950 . S
H669 C645 0.949 . S
H670 C647 0.950 . S
H671 C649 0.950 . S
C672 C673 1.349 . S
C672 C674 1.327 . S
C672 H697 0.950 . S
C673 C672 1.349 . S
C673 C689 1.349 . S
C674 C672 1.327 . S
C674 C693 1.429 . S
C674 H698 0.950 . S
C675 C692 1.574 . S
C675 C694 1.368 . S
C675 H699 0.949 . S
H676 C680 0.949 . S
C677 C678 1.349 . S
C677 C679 1.327 . S
C677 H700 0.950 . S
C678 C677 1.349 . S
C678 C690 1.349 . S
C679 C677 1.327 . S
C679 C695 1.429 . S
C679 H701 0.950 . S
C680 H676 0.949 . S
C680 C688 1.574 . S
C680 C696 1.368 . S
H681 C689 0.950 . S
H682 C687 0.950 . S
H683 C688 0.949 . S
H684 C690 0.950 . S
H685 C691 0.950 . S
H686 C692 0.949 . S
C687 H682 0.950 . S
C687 C689 1.327 . S
C687 C693 1.429 . S
C688 C680 1.574 . S
C688 H683 0.949 . S
C688 C694 1.368 . S
C689 C673 1.349 . S
C689 H681 0.950 . S
C689 C687 1.327 . S
C690 C678 1.349 . S
C690 H684 0.950 . S
C690 C691 1.327 . S
C691 H685 0.950 . S
C691 C690 1.327 . S
C691 C695 1.429 . S
C692 C675 1.574 . S
C692 H686 0.949 . S
C692 C696 1.368 . S
C693 C674 1.429 . S
C693 C687 1.429 . S
C693 C694 1.523 . S
C694 C675 1.368 . S
C694 C688 1.368 . S
C694 C693 1.523 . S
C695 C679 1.429 . S
C695 C691 1.429 . S
C695 C696 1.523 . S
C696 C680 1.368 . S
C696 C692 1.368 . S
C696 C695 1.523 . S
H697 C672 0.950 . S
H698 C674 0.950 . S
H699 C675 0.949 . S
H700 C677 0.950 . S
H701 C679 0.950 . S
C702 C703 1.349 . S
C702 C704 1.327 . S
C702 H727 0.950 . S
C703 C702 1.349 . S
C703 C719 1.349 . S
C704 C702 1.327 . S
C704 C723 1.429 . S
C704 H728 0.950 . S
C705 C722 1.574 . S
C705 C724 1.368 . S
C705 H729 0.949 . S
H706 C710 0.949 . S
C707 C708 1.349 . S
C707 C709 1.327 . S
C707 H730 0.950 . S
C708 C707 1.349 . S
C708 C720 1.349 . S
C709 C707 1.327 . S
C709 C725 1.429 . S
C709 H731 0.950 . S
C710 H706 0.949 . S
C710 C718 1.574 . S
C710 C726 1.368 . S
H711 C719 0.950 . S
H712 C717 0.950 . S
H713 C718 0.949 . S
H714 C720 0.950 . S
H715 C721 0.950 . S
H716 C722 0.949 . S
C717 H712 0.950 . S
C717 C719 1.327 . S
C717 C723 1.429 . S
C718 C710 1.574 . S
C718 H713 0.949 . S
C718 C724 1.368 . S
C719 C703 1.349 . S
C719 H711 0.950 . S
C719 C717 1.327 . S
C720 C708 1.349 . S
C720 H714 0.950 . S
C720 C721 1.327 . S
C721 H715 0.950 . S
C721 C720 1.327 . S
C721 C725 1.429 . S
C722 C705 1.574 . S
C722 H716 0.949 . S
C722 C726 1.368 . S
C723 C704 1.429 . S
C723 C717 1.429 . S
C723 C724 1.523 . S
C724 C705 1.368 . S
C724 C718 1.368 . S
C724 C723 1.523 . S
C725 C709 1.429 . S
C725 C721 1.429 . S
C725 C726 1.523 . S
C726 C710 1.368 . S
C726 C722 1.368 . S
C726 C725 1.523 . S
H727 C702 0.950 . S
H728 C704 0.950 . S
H729 C705 0.949 . S
H730 C707 0.950 . S
H731 C709 0.950 . S
C732 C733 1.349 . S
C732 C734 1.327 . S
C732 H757 0.950 . S
C733 C732 1.349 . S
C733 C749 1.349 . S
C734 C732 1.327 . S
C734 C753 1.429 . S
C734 H758 0.950 . S
C735 C752 1.574 . S
C735 C754 1.368 . S
C735 H759 0.949 . S
H736 C740 0.949 . S
C737 C738 1.349 . S
C737 C739 1.327 . S
C737 H760 0.950 . S
C738 C737 1.349 . S
C738 C750 1.349 . S
C739 C737 1.327 . S
C739 C755 1.429 . S
C739 H761 0.950 . S
C740 H736 0.949 . S
C740 C748 1.574 . S
C740 C756 1.368 . S
H741 C749 0.950 . S
H742 C747 0.950 . S
H743 C748 0.949 . S
H744 C750 0.950 . S
H745 C751 0.950 . S
H746 C752 0.949 . S
C747 H742 0.950 . S
C747 C749 1.327 . S
C747 C753 1.429 . S
C748 C740 1.574 . S
C748 H743 0.949 . S
C748 C754 1.368 . S
C749 C733 1.349 . S
C749 H741 0.950 . S
C749 C747 1.327 . S
C750 C738 1.349 . S
C750 H744 0.950 . S
C750 C751 1.327 . S
C751 H745 0.950 . S
C751 C750 1.327 . S
C751 C755 1.429 . S
C752 C735 1.574 . S
C752 H746 0.949 . S
C752 C756 1.368 . S
C753 C734 1.429 . S
C753 C747 1.429 . S
C753 C754 1.523 . S
C754 C735 1.368 . S
C754 C748 1.368 . S
C754 C753 1.523 . S
C755 C739 1.429 . S
C755 C751 1.429 . S
C755 C756 1.523 . S
C756 C740 1.368 . S
C756 C752 1.368 . S
C756 C755 1.523 . S
H757 C732 0.950 . S
H758 C734 0.950 . S
H759 C735 0.949 . S
H760 C737 0.950 . S
H761 C739 0.950 . S
C762 C763 1.349 . S
C762 C764 1.327 . S
C762 H787 0.950 . S
C763 C762 1.349 . S
C763 C779 1.349 . S
C764 C762 1.327 . S
C764 C783 1.429 . S
C764 H788 0.950 . S
C765 C782 1.574 . S
C765 C784 1.368 . S
C765 H789 0.949 . S
H766 C770 0.949 . S
C767 C768 1.349 . S
C767 C769 1.327 . S
C767 H790 0.950 . S
C768 C767 1.349 . S
C768 C780 1.349 . S
C769 C767 1.327 . S
C769 C785 1.429 . S
C769 H791 0.950 . S
C770 H766 0.949 . S
C770 C778 1.574 . S
C770 C786 1.368 . S
H771 C779 0.950 . S
H772 C777 0.950 . S
H773 C778 0.949 . S
H774 C780 0.950 . S
H775 C781 0.950 . S
H776 C782 0.949 . S
C777 H772 0.950 . S
C777 C779 1.327 . S
C777 C783 1.429 . S
C778 C770 1.574 . S
C778 H773 0.949 . S
C778 C784 1.368 . S
C779 C763 1.349 . S
C779 H771 0.950 . S
C779 C777 1.327 . S
C780 C768 1.349 . S
C780 H774 0.950 . S
C780 C781 1.327 . S
C781 H775 0.950 . S
C781 C780 1.327 . S
C781 C785 1.429 . S
C782 C765 1.574 . S
C782 H776 0.949 . S
C782 C786 1.368 . S
C783 C764 1.429 . S
C783 C777 1.429 . S
C783 C784 1.523 . S
C784 C765 1.368 . S
C784 C778 1.368 . S
C784 C783 1.523 . S
C785 C769 1.429 . S
C785 C781 1.429 . S
C785 C786 1.523 . S
C786 C770 1.368 . S
C786 C782 1.368 . S
C786 C785 1.523 . S
H787 C762 0.950 . S
H788 C764 0.950 . S
H789 C765 0.949 . S
H790 C767 0.950 . S
H791 C769 0.950 . S
C792 C793 1.349 . S
C792 C794 1.327 . S
C792 H817 0.950 . S
C793 C792 1.349 . S
C793 C809 1.349 . S
C794 C792 1.327 . S
C794 C813 1.429 . S
C794 H818 0.950 . S
C795 C812 1.574 . S
C795 C814 1.368 . S
C795 H819 0.949 . S
H796 C800 0.949 . S
C797 C798 1.349 . S
C797 C799 1.327 . S
C797 H820 0.950 . S
C798 C797 1.349 . S
C798 C810 1.349 . S
C799 C797 1.327 . S
C799 C815 1.429 . S
C799 H821 0.950 . S
C800 H796 0.949 . S
C800 C808 1.574 . S
C800 C816 1.368 . S
H801 C809 0.950 . S
H802 C807 0.950 . S
H803 C808 0.949 . S
H804 C810 0.950 . S
H805 C811 0.950 . S
H806 C812 0.949 . S
C807 H802 0.950 . S
C807 C809 1.327 . S
C807 C813 1.429 . S
C808 C800 1.574 . S
C808 H803 0.949 . S
C808 C814 1.368 . S
C809 C793 1.349 . S
C809 H801 0.950 . S
C809 C807 1.327 . S
C810 C798 1.349 . S
C810 H804 0.950 . S
C810 C811 1.327 . S
C811 H805 0.950 . S
C811 C810 1.327 . S
C811 C815 1.429 . S
C812 C795 1.574 . S
C812 H806 0.949 . S
C812 C816 1.368 . S
C813 C794 1.429 . S
C813 C807 1.429 . S
C813 C814 1.523 . S
C814 C795 1.368 . S
C814 C808 1.368 . S
C814 C813 1.523 . S
C815 C799 1.429 . S
C815 C811 1.429 . S
C815 C816 1.523 . S
C816 C800 1.368 . S
C816 C812 1.368 . S
C816 C815 1.523 . S
H817 C792 0.950 . S
H818 C794 0.950 . S
H819 C795 0.949 . S
H820 C797 0.950 . S
H821 C799 0.950 . S
C822 C823 1.349 . S
C822 C824 1.327 . S
C822 H847 0.950 . S
C823 C822 1.349 . S
C823 C839 1.349 . S
C824 C822 1.327 . S
C824 C843 1.429 . S
C824 H848 0.950 . S
C825 C842 1.574 . S
C825 C844 1.368 . S
C825 H849 0.949 . S
H826 C830 0.949 . S
C827 C828 1.349 . S
C827 C829 1.327 . S
C827 H850 0.950 . S
C828 C827 1.349 . S
C828 C840 1.349 . S
C829 C827 1.327 . S
C829 C845 1.429 . S
C829 H851 0.950 . S
C830 H826 0.949 . S
C830 C838 1.574 . S
C830 C846 1.368 . S
H831 C839 0.950 . S
H832 C837 0.950 . S
H833 C838 0.949 . S
H834 C840 0.950 . S
H835 C841 0.950 . S
H836 C842 0.949 . S
C837 H832 0.950 . S
C837 C839 1.327 . S
C837 C843 1.429 . S
C838 C830 1.574 . S
C838 H833 0.949 . S
C838 C844 1.368 . S
C839 C823 1.349 . S
C839 H831 0.950 . S
C839 C837 1.327 . S
C840 C828 1.349 . S
C840 H834 0.950 . S
C840 C841 1.327 . S
C841 H835 0.950 . S
C841 C840 1.327 . S
C841 C845 1.429 . S
C842 C825 1.574 . S
C842 H836 0.949 . S
C842 C846 1.368 . S
C843 C824 1.429 . S
C843 C837 1.429 . S
C843 C844 1.523 . S
C844 C825 1.368 . S
C844 C838 1.368 . S
C844 C843 1.523 . S
C845 C829 1.429 . S
C845 C841 1.429 . S
C845 C846 1.523 . S
C846 C830 1.368 . S
C846 C842 1.368 . S
C846 C845 1.523 . S
H847 C822 0.950 . S
H848 C824 0.950 . S
H849 C825 0.949 . S
H850 C827 0.950 . S
H851 C829 0.950 . S
C852 C853 1.349 . S
C852 C854 1.327 . S
C852 H877 0.950 . S
C853 C852 1.349 . S
C853 C869 1.349 . S
C854 C852 1.327 . S
C854 C873 1.429 . S
C854 H878 0.950 . S
C855 C872 1.574 . S
C855 C874 1.368 . S
C855 H879 0.949 . S
H856 C860 0.949 . S
C857 C858 1.349 . S
C857 C859 1.327 . S
C857 H880 0.950 . S
C858 C857 1.349 . S
C858 C870 1.349 . S
C859 C857 1.327 . S
C859 C875 1.429 . S
C859 H881 0.950 . S
C860 H856 0.949 . S
C860 C868 1.574 . S
C860 C876 1.368 . S
H861 C869 0.950 . S
H862 C867 0.950 . S
H863 C868 0.949 . S
H864 C870 0.950 . S
H865 C871 0.950 . S
H866 C872 0.949 . S
C867 H862 0.950 . S
C867 C869 1.327 . S
C867 C873 1.429 . S
C868 C860 1.574 . S
C868 H863 0.949 . S
C868 C874 1.368 . S
C869 C853 1.349 . S
C869 H861 0.950 . S
C869 C867 1.327 . S
C870 C858 1.349 . S
C870 H864 0.950 . S
C870 C871 1.327 . S
C871 H865 0.950 . S
C871 C870 1.327 . S
C871 C875 1.429 . S
C872 C855 1.574 . S
C872 H866 0.949 . S
C872 C876 1.368 . S
C873 C854 1.429 . S
C873 C867 1.429 . S
C873 C874 1.523 . S
C874 C855 1.368 . S
C874 C868 1.368 . S
C874 C873 1.523 . S
C875 C859 1.429 . S
C875 C871 1.429 . S
C875 C876 1.523 . S
C876 C860 1.368 . S
C876 C872 1.368 . S
C876 C875 1.523 . S
H877 C852 0.950 . S
H878 C854 0.950 . S
H879 C855 0.949 . S
H880 C857 0.950 . S
H881 C859 0.950 . S
C882 C883 1.349 . S
C882 C884 1.327 . S
C882 H907 0.950 . S
C883 C882 1.349 . S
C883 C899 1.349 . S
C884 C882 1.327 . S
C884 C903 1.429 . S
C884 H908 0.950 . S
C885 C902 1.574 . S
C885 C904 1.368 . S
C885 H909 0.949 . S
H886 C890 0.949 . S
C887 C888 1.349 . S
C887 C889 1.327 . S
C887 H910 0.950 . S
C888 C887 1.349 . S
C888 C900 1.349 . S
C889 C887 1.327 . S
C889 C905 1.429 . S
C889 H911 0.950 . S
C890 H886 0.949 . S
C890 C898 1.574 . S
C890 C906 1.368 . S
H891 C899 0.950 . S
H892 C897 0.950 . S
H893 C898 0.949 . S
H894 C900 0.950 . S
H895 C901 0.950 . S
H896 C902 0.949 . S
C897 H892 0.950 . S
C897 C899 1.327 . S
C897 C903 1.429 . S
C898 C890 1.574 . S
C898 H893 0.949 . S
C898 C904 1.368 . S
C899 C883 1.349 . S
C899 H891 0.950 . S
C899 C897 1.327 . S
C900 C888 1.349 . S
C900 H894 0.950 . S
C900 C901 1.327 . S
C901 H895 0.950 . S
C901 C900 1.327 . S
C901 C905 1.429 . S
C902 C885 1.574 . S
C902 H896 0.949 . S
C902 C906 1.368 . S
C903 C884 1.429 . S
C903 C897 1.429 . S
C903 C904 1.523 . S
C904 C885 1.368 . S
C904 C898 1.368 . S
C904 C903 1.523 . S
C905 C889 1.429 . S
C905 C901 1.429 . S
C905 C906 1.523 . S
C906 C890 1.368 . S
C906 C902 1.368 . S
C906 C905 1.523 . S
H907 C882 0.950 . S
H908 C884 0.950 . S
H909 C885 0.949 . S
H910 C887 0.950 . S
H911 C889 0.950 . S
C912 C913 1.349 . S
C912 C914 1.327 . S
C912 H937 0.950 . S
C913 C912 1.349 . S
C913 C929 1.349 . S
C914 C912 1.327 . S
C914 C933 1.429 . S
C914 H938 0.950 . S
C915 C932 1.574 . S
C915 C934 1.368 . S
C915 H939 0.949 . S
H916 C920 0.949 . S
C917 C918 1.349 . S
C917 C919 1.327 . S
C917 H940 0.950 . S
C918 C917 1.349 . S
C918 C930 1.349 . S
C919 C917 1.327 . S
C919 C935 1.429 . S
C919 H941 0.950 . S
C920 H916 0.949 . S
C920 C928 1.574 . S
C920 C936 1.368 . S
H921 C929 0.950 . S
H922 C927 0.950 . S
H923 C928 0.949 . S
H924 C930 0.950 . S
H925 C931 0.950 . S
H926 C932 0.949 . S
C927 H922 0.950 . S
C927 C929 1.327 . S
C927 C933 1.429 . S
C928 C920 1.574 . S
C928 H923 0.949 . S
C928 C934 1.368 . S
C929 C913 1.349 . S
C929 H921 0.950 . S
C929 C927 1.327 . S
C930 C918 1.349 . S
C930 H924 0.950 . S
C930 C931 1.327 . S
C931 H925 0.950 . S
C931 C930 1.327 . S
C931 C935 1.429 . S
C932 C915 1.574 . S
C932 H926 0.949 . S
C932 C936 1.368 . S
C933 C914 1.429 . S
C933 C927 1.429 . S
C933 C934 1.523 . S
C934 C915 1.368 . S
C934 C928 1.368 . S
C934 C933 1.523 . S
C935 C919 1.429 . S
C935 C931 1.429 . S
C935 C936 1.523 . S
C936 C920 1.368 . S
C936 C932 1.368 . S
C936 C935 1.523 . S
H937 C912 0.950 . S
H938 C914 0.950 . S
H939 C915 0.949 . S
H940 C917 0.950 . S
H941 C919 0.950 . S
C942 C943 1.349 . S
C942 C944 1.327 . S
C942 H967 0.950 . S
C943 C942 1.349 . S
C943 C959 1.349 . S
C944 C942 1.327 . S
C944 C963 1.429 . S
C944 H968 0.950 . S
C945 C962 1.574 . S
C945 C964 1.368 . S
C945 H969 0.949 . S
H946 C950 0.949 . S
C947 C948 1.349 . S
C947 C949 1.327 . S
C947 H970 0.950 . S
C948 C947 1.349 . S
C948 C960 1.349 . S
C949 C947 1.327 . S
C949 C965 1.429 . S
C949 H971 0.950 . S
C950 H946 0.949 . S
C950 C958 1.574 . S
C950 C966 1.368 . S
H951 C959 0.950 . S
H952 C957 0.950 . S
H953 C958 0.949 . S
H954 C960 0.950 . S
H955 C961 0.950 . S
H956 C962 0.949 . S
C957 H952 0.950 . S
C957 C959 1.327 . S
C957 C963 1.429 . S
C958 C950 1.574 . S
C958 H953 0.949 . S
C958 C964 1.368 . S
C959 C943 1.349 . S
C959 H951 0.950 . S
C959 C957 1.327 . S
C960 C948 1.349 . S
C960 H954 0.950 . S
C960 C961 1.327 . S
C961 H955 0.950 . S
C961 C960 1.327 . S
C961 C965 1.429 . S
C962 C945 1.574 . S
C962 H956 0.949 . S
C962 C966 1.368 . S
C963 C944 1.429 . S
C963 C957 1.429 . S
C963 C964 1.523 . S
C964 C945 1.368 . S
C964 C958 1.368 . S
C964 C963 1.523 . S
C965 C949 1.429 . S
C965 C961 1.429 . S
C965 C966 1.523 . S
C966 C950 1.368 . S
C966 C962 1.368 . S
C966 C965 1.523 . S
H967 C942 0.950 . S
H968 C944 0.950 . S
H969 C945 0.949 . S
H970 C947 0.950 . S
H971 C949 0.950 . S
C972 C973 1.349 . S
C972 C974 1.327 . S
C972 H997 0.950 . S
C973 C972 1.349 . S
C973 C989 1.349 . S
C974 C972 1.327 . S
C974 C993 1.429 . S
C974 H998 0.950 . S
C975 C992 1.574 . S
C975 C994 1.368 . S
C975 H999 0.949 . S
H976 C980 0.949 . S
C977 C978 1.349 . S
C977 C979 1.327 . S
C977 H1000 0.950 . S
C978 C977 1.349 . S
C978 C990 1.349 . S
C979 C977 1.327 . S
C979 C995 1.429 . S
C979 H1001 0.950 . S
C980 H976 0.949 . S
C980 C988 1.574 . S
C980 C996 1.368 . S
H981 C989 0.950 . S
H982 C987 0.950 . S
H983 C988 0.949 . S
H984 C990 0.950 . S
H985 C991 0.950 . S
H986 C992 0.949 . S
C987 H982 0.950 . S
C987 C989 1.327 . S
C987 C993 1.429 . S
C988 C980 1.574 . S
C988 H983 0.949 . S
C988 C994 1.368 . S
C989 C973 1.349 . S
C989 H981 0.950 . S
C989 C987 1.327 . S
C990 C978 1.349 . S
C990 H984 0.950 . S
C990 C991 1.327 . S
C991 H985 0.950 . S
C991 C990 1.327 . S
C991 C995 1.429 . S
C992 C975 1.574 . S
C992 H986 0.949 . S
C992 C996 1.368 . S
C993 C974 1.429 . S
C993 C987 1.429 . S
C993 C994 1.523 . S
C994 C975 1.368 . S
C994 C988 1.368 . S
C994 C993 1.523 . S
C995 C979 1.429 . S
C995 C991 1.429 . S
C995 C996 1.523 . S
C996 C980 1.368 . S
C996 C992 1.368 . S
C996 C995 1.523 . S
H997 C972 0.950 . S
H998 C974 0.950 . S
H999 C975 0.949 . S
H1000 C977 0.950 . S
H1001 C979 0.950 . S
C1002 C1003 1.349 . S
C1002 C1004 1.327 . S
C1002 H1027 0.950 . S
C1003 C1002 1.349 . S
C1003 C1019 1.349 . S
C1004 C1002 1.327 . S
C1004 C1023 1.429 . S
C1004 H1028 0.950 . S
C1005 C1022 1.574 . S
C1005 C1024 1.368 . S
C1005 H1029 0.949 . S
H1006 C1010 0.949 . S
C1007 C1008 1.349 . S
C1007 C1009 1.327 . S
C1007 H1030 0.950 . S
C1008 C1007 1.349 . S
C1008 C1020 1.349 . S
C1009 C1007 1.327 . S
C1009 C1025 1.429 . S
C1009 H1031 0.950 . S
C1010 H1006 0.949 . S
C1010 C1018 1.574 . S
C1010 C1026 1.368 . S
H1011 C1019 0.950 . S
H1012 C1017 0.950 . S
H1013 C1018 0.949 . S
H1014 C1020 0.950 . S
H1015 C1021 0.950 . S
H1016 C1022 0.949 . S
C1017 H1012 0.950 . S
C1017 C1019 1.327 . S
C1017 C1023 1.429 . S
C1018 C1010 1.574 . S
C1018 H1013 0.949 . S
C1018 C1024 1.368 . S
C1019 C1003 1.349 . S
C1019 H1011 0.950 . S
C1019 C1017 1.327 . S
C1020 C1008 1.349 . S
C1020 H1014 0.950 . S
C1020 C1021 1.327 . S
C1021 H1015 0.950 . S
C1021 C1020 1.327 . S
C1021 C1025 1.429 . S
C1022 C1005 1.574 . S
C1022 H1016 0.949 . S
C1022 C1026 1.368 . S
C1023 C1004 1.429 . S
C1023 C1017 1.429 . S
C1023 C1024 1.523 . S
C1024 C1005 1.368 . S
C1024 C1018 1.368 . S
C1024 C1023 1.523 . S
C1025 C1009 1.429 . S
C1025 C1021 1.429 . S
C1025 C1026 1.523 . S
C1026 C1010 1.368 . S
C1026 C1022 1.368 . S
C1026 C1025 1.523 . S
H1027 C1002 0.950 . S
H1028 C1004 0.950 . S
H1029 C1005 0.949 . S
H1030 C1007 0.950 . S
H1031 C1009 0.950 . S
C1032 C1033 1.349 . S
C1032 C1034 1.327 . S
C1032 H1057 0.950 . S
C1033 C1032 1.349 . S
C1033 C1049 1.349 . S
C1034 C1032 1.327 . S
C1034 C1053 1.429 . S
C1034 H1058 0.950 . S
C1035 C1052 1.574 1_556 S
C1035 C1054 1.368 1_545 S
C1035 H1059 0.949 . S
H1036 C1040 0.949 . S
C1037 C1038 1.349 . S
C1037 C1039 1.327 . S
C1037 H1060 0.950 . S
C1038 C1037 1.349 . S
C1038 C1050 1.349 . S
C1039 C1037 1.327 . S
C1039 C1055 1.429 . S
C1039 H1061 0.950 . S
C1040 H1036 0.949 . S
C1040 C1048 1.574 1_554 S
C1040 C1056 1.368 1_565 S
H1041 C1049 0.950 . S
H1042 C1047 0.976 . S
H1043 C1048 0.949 . S
H1044 C1050 0.950 . S
H1045 C1051 0.976 . S
H1046 C1052 0.949 . S
C1047 H1042 0.976 . S
C1047 C1049 1.327 . S
C1047 C1053 1.429 . S
C1048 C1040 1.574 1_556 S
C1048 H1043 0.949 . S
C1048 C1054 1.368 . S
C1049 C1033 1.349 . S
C1049 H1041 0.950 . S
C1049 C1047 1.327 . S
C1050 C1038 1.349 . S
C1050 H1044 0.950 . S
C1050 C1051 1.327 . S
C1051 H1045 0.976 . S
C1051 C1050 1.327 . S
C1051 C1055 1.429 . S
C1052 C1035 1.574 1_554 S
C1052 H1046 0.949 . S
C1052 C1056 1.368 . S
C1053 C1034 1.429 . S
C1053 C1047 1.429 . S
C1053 C1054 1.523 . S
C1054 C1035 1.368 1_565 S
C1054 C1048 1.368 . S
C1054 C1053 1.523 . S
C1055 C1039 1.429 . S
C1055 C1051 1.429 . S
C1055 C1056 1.523 . S
C1056 C1040 1.368 1_545 S
C1056 C1052 1.368 . S
C1056 C1055 1.523 . S
H1057 C1032 0.950 . S
H1058 C1034 0.950 . S
H1059 C1035 0.949 . S
H1060 C1037 0.950 . S
H1061 C1039 0.950 . S
C1062 C1063 1.349 . S
C1062 C1064 1.327 . S
C1062 H1087 0.950 . S
C1063 C1062 1.349 . S
C1063 C1079 1.349 . S
C1064 C1062 1.327 . S
C1064 C1083 1.429 . S
C1064 H1088 0.950 . S
C1065 C1082 1.574 . S
C1065 C1084 1.368 . S
C1065 H1089 0.949 . S
H1066 C1070 0.949 . S
C1067 C1068 1.349 . S
C1067 C1069 1.327 . S
C1067 H1090 0.950 . S
C1068 C1067 1.349 . S
C1068 C1080 1.349 . S
C1069 C1067 1.327 . S
C1069 C1085 1.429 . S
C1069 H1091 0.950 . S
C1070 H1066 0.949 . S
C1070 C1078 1.574 . S
C1070 C1086 1.368 . S
H1071 C1079 0.950 . S
H1072 C1077 0.950 . S
H1073 C1078 0.949 . S
H1074 C1080 0.950 . S
H1075 C1081 0.950 . S
H1076 C1082 0.949 . S
C1077 H1072 0.950 . S
C1077 C1079 1.327 . S
C1077 C1083 1.429 . S
C1078 C1070 1.574 . S
C1078 H1073 0.949 . S
C1078 C1084 1.368 . S
C1079 C1063 1.349 . S
C1079 H1071 0.950 . S
C1079 C1077 1.327 . S
C1080 C1068 1.349 . S
C1080 H1074 0.950 . S
C1080 C1081 1.327 . S
C1081 H1075 0.950 . S
C1081 C1080 1.327 . S
C1081 C1085 1.429 . S
C1082 C1065 1.574 . S
C1082 H1076 0.949 . S
C1082 C1086 1.368 . S
C1083 C1064 1.429 . S
C1083 C1077 1.429 . S
C1083 C1084 1.523 . S
C1084 C1065 1.368 . S
C1084 C1078 1.368 . S
C1084 C1083 1.523 . S
C1085 C1069 1.429 . S
C1085 C1081 1.429 . S
C1085 C1086 1.523 . S
C1086 C1070 1.368 . S
C1086 C1082 1.368 . S
C1086 C1085 1.523 . S
H1087 C1062 0.950 . S
H1088 C1064 0.950 . S
H1089 C1065 0.949 . S
H1090 C1067 0.950 . S
H1091 C1069 0.950 . S
C1092 C1093 1.349 . S
C1092 C1094 1.327 . S
C1092 H1117 0.950 . S
C1093 C1092 1.349 . S
C1093 C1109 1.349 . S
C1094 C1092 1.327 . S
C1094 C1113 1.429 . S
C1094 H1118 0.950 . S
C1095 C1112 1.574 1_456 S
C1095 C1114 1.368 . S
C1095 H1119 0.949 . S
H1096 C1100 0.949 . S
C1097 C1098 1.349 . S
C1097 C1099 1.327 . S
C1097 H1120 0.950 . S
C1098 C1097 1.349 . S
C1098 C1110 1.349 . S
C1099 C1097 1.327 . S
C1099 C1115 1.429 . S
C1099 H1121 0.950 . S
C1100 H1096 0.949 . S
C1100 C1108 1.574 1_654 S
C1100 C1116 1.368 . S
H1101 C1109 0.950 . S
H1102 C1107 0.950 . S
H1103 C1108 0.949 . S
H1104 C1110 0.950 . S
H1105 C1111 0.950 . S
H1106 C1112 0.949 . S
C1107 H1102 0.950 . S
C1107 C1109 1.327 . S
C1107 C1113 1.429 . S
C1108 C1100 1.574 1_456 S
C1108 H1103 0.949 . S
C1108 C1114 1.368 . S
C1109 C1093 1.349 . S
C1109 H1101 0.950 . S
C1109 C1107 1.327 . S
C1110 C1098 1.349 . S
C1110 H1104 0.950 . S
C1110 C1111 1.327 . S
C1111 H1105 0.950 . S
C1111 C1110 1.327 . S
C1111 C1115 1.429 . S
C1112 C1095 1.574 1_654 S
C1112 H1106 0.949 . S
C1112 C1116 1.368 . S
C1113 C1094 1.429 . S
C1113 C1107 1.429 . S
C1113 C1114 1.523 . S
C1114 C1095 1.368 . S
C1114 C1108 1.368 . S
C1114 C1113 1.523 . S
C1115 C1099 1.429 . S
C1115 C1111 1.429 . S
C1115 C1116 1.523 . S
C1116 C1100 1.368 . S
C1116 C1112 1.368 . S
C1116 C1115 1.523 . S
H1117 C1092 0.950 . S
H1118 C1094 0.950 . S
H1119 C1095 0.949 . S
H1120 C1097 0.950 . S
H1121 C1099 0.950 . S
C1122 C1123 1.349 . S
C1122 C1124 1.327 . S
C1122 H1147 0.950 . S
C1123 C1122 1.349 . S
C1123 C1139 1.349 . S
C1124 C1122 1.327 . S
C1124 C1143 1.429 . S
C1124 H1148 0.950 . S
C1125 C1142 1.574 . S
C1125 C1144 1.368 1_565 S
C1125 H1149 0.949 . S
H1126 C1130 0.949 . S
C1127 C1128 1.349 . S
C1127 C1129 1.327 . S
C1127 H1150 0.950 . S
C1128 C1127 1.349 . S
C1128 C1140 1.349 . S
C1129 C1127 1.327 . S
C1129 C1145 1.429 . S
C1129 H1151 0.950 . S
C1130 H1126 0.949 . S
C1130 C1138 1.574 . S
C1130 C1146 1.368 1_545 S
H1131 C1139 0.950 . S
H1132 C1137 0.949 . S
H1133 C1138 0.949 . S
H1134 C1140 0.950 . S
H1135 C1141 0.949 . S
H1136 C1142 0.949 . S
C1137 H1132 0.949 . S
C1137 C1139 1.327 . S
C1137 C1143 1.429 . S
C1138 C1130 1.574 . S
C1138 H1133 0.949 . S
C1138 C1144 1.368 . S
C1139 C1123 1.349 . S
C1139 H1131 0.950 . S
C1139 C1137 1.327 . S
C1140 C1128 1.349 . S
C1140 H1134 0.950 . S
C1140 C1141 1.327 . S
C1141 H1135 0.949 . S
C1141 C1140 1.327 . S
C1141 C1145 1.429 . S
C1142 C1125 1.574 . S
C1142 H1136 0.949 . S
C1142 C1146 1.368 . S
C1143 C1124 1.429 . S
C1143 C1137 1.429 . S
C1143 C1144 1.523 . S
C1144 C1125 1.368 1_545 S
C1144 C1138 1.368 . S
C1144 C1143 1.523 . S
C1145 C1129 1.429 . S
C1145 C1141 1.429 . S
C1145 C1146 1.523 . S
C1146 C1130 1.368 1_565 S
C1146 C1142 1.368 . S
C1146 C1145 1.523 . S
H1147 C1122 0.950 . S
H1148 C1124 0.950 . S
H1149 C1125 0.949 . S
H1150 C1127 0.950 . S
H1151 C1129 0.950 . S
C1152 C1153 1.349 . S
C1152 C1154 1.327 . S
C1152 H1177 0.950 . S
C1153 C1152 1.349 . S
C1153 C1169 1.349 . S
C1154 C1152 1.327 . S
C1154 C1173 1.429 . S
C1154 H1178 0.950 . S
C1155 C1172 1.574 1_554 S
C1155 C1174 1.368 . S
C1155 H1179 0.949 . S
H1156 C1160 0.949 . S
C1157 C1158 1.349 . S
C1157 C1159 1.327 . S
C1157 H1180 0.950 . S
C1158 C1157 1.349 . S
C1158 C1170 1.349 . S
C1159 C1157 1.327 . S
C1159 C1175 1.429 . S
C1159 H1181 0.950 . S
C1160 H1156 0.949 . S
C1160 C1168 1.574 1_556 S
C1160 C1176 1.368 . S
H1161 C1169 0.950 . S
H1162 C1167 0.950 . S
H1163 C1168 0.949 . S
H1164 C1170 0.950 . S
H1165 C1171 0.950 . S
H1166 C1172 0.949 . S
C1167 H1162 0.950 . S
C1167 C1169 1.327 . S
C1167 C1173 1.429 . S
C1168 C1160 1.574 1_554 S
C1168 H1163 0.949 . S
C1168 C1174 1.368 . S
C1169 C1153 1.349 . S
C1169 H1161 0.950 . S
C1169 C1167 1.327 . S
C1170 C1158 1.349 . S
C1170 H1164 0.950 . S
C1170 C1171 1.327 . S
C1171 H1165 0.950 . S
C1171 C1170 1.327 . S
C1171 C1175 1.429 . S
C1172 C1155 1.574 1_556 S
C1172 H1166 0.949 . S
C1172 C1176 1.368 . S
C1173 C1154 1.429 . S
C1173 C1167 1.429 . S
C1173 C1174 1.523 . S
C1174 C1155 1.368 . S
C1174 C1168 1.368 . S
C1174 C1173 1.523 . S
C1175 C1159 1.429 . S
C1175 C1171 1.429 . S
C1175 C1176 1.523 . S
C1176 C1160 1.368 . S
C1176 C1172 1.368 . S
C1176 C1175 1.523 . S
H1177 C1152 0.950 . S
H1178 C1154 0.950 . S
H1179 C1155 0.949 . S
H1180 C1157 0.950 . S
H1181 C1159 0.950 . S
C1182 C1183 1.349 . S
C1182 C1184 1.327 . S
C1182 H1207 0.950 . S
C1183 C1182 1.349 . S
C1183 C1199 1.349 . S
C1184 C1182 1.327 . S
C1184 C1203 1.429 . S
C1184 H1208 0.950 1_455 S
C1185 C1202 1.574 . S
C1185 C1204 1.368 . S
C1185 H1209 0.949 . S
H1186 C1190 0.949 . S
C1187 C1188 1.349 . S
C1187 C1189 1.327 . S
C1187 H1210 0.950 . S
C1188 C1187 1.349 . S
C1188 C1200 1.349 . S
C1189 C1187 1.327 . S
C1189 C1205 1.429 . S
C1189 H1211 0.950 1_655 S
C1190 H1186 0.949 . S
C1190 C1198 1.574 . S
C1190 C1206 1.368 . S
H1191 C1199 0.950 . S
H1192 C1197 0.950 . S
H1193 C1198 0.949 . S
H1194 C1200 0.950 . S
H1195 C1201 0.950 . S
H1196 C1202 0.949 . S
C1197 H1192 0.950 . S
C1197 C1199 1.327 . S
C1197 C1203 1.429 . S
C1198 C1190 1.574 . S
C1198 H1193 0.949 . S
C1198 C1204 1.368 1_655 S
C1199 C1183 1.349 . S
C1199 H1191 0.950 . S
C1199 C1197 1.327 . S
C1200 C1188 1.349 . S
C1200 H1194 0.950 . S
C1200 C1201 1.327 . S
C1201 H1195 0.950 . S
C1201 C1200 1.327 . S
C1201 C1205 1.429 . S
C1202 C1185 1.574 . S
C1202 H1196 0.949 . S
C1202 C1206 1.368 1_455 S
C1203 C1184 1.429 . S
C1203 C1197 1.429 . S
C1203 C1204 1.523 . S
C1204 C1185 1.368 . S
C1204 C1198 1.368 1_455 S
C1204 C1203 1.523 . S
C1205 C1189 1.429 . S
C1205 C1201 1.429 . S
C1205 C1206 1.523 . S
C1206 C1190 1.368 . S
C1206 C1202 1.368 1_655 S
C1206 C1205 1.523 . S
H1207 C1182 0.950 . S
H1208 C1184 0.950 1_655 S
H1209 C1185 0.949 . S
H1210 C1187 0.950 . S
H1211 C1189 0.950 1_455 S
C1212 C1213 1.349 . S
C1212 C1214 1.327 . S
C1212 H1237 0.950 . S
C1213 C1212 1.349 . S
C1213 C1229 1.349 . S
C1214 C1212 1.327 . S
C1214 C1233 1.429 . S
C1214 H1238 0.950 . S
C1215 C1232 1.574 1_566 S
C1215 C1234 1.368 . S
C1215 H1239 0.949 . S
H1216 C1220 0.949 . S
C1217 C1218 1.349 . S
C1217 C1219 1.327 . S
C1217 H1240 0.950 . S
C1218 C1217 1.349 . S
C1218 C1230 1.349 . S
C1219 C1217 1.327 . S
C1219 C1235 1.429 . S
C1219 H1241 0.950 . S
C1220 H1216 0.949 . S
C1220 C1228 1.574 1_544 S
C1220 C1236 1.368 . S
H1221 C1229 0.950 . S
H1222 C1227 0.950 . S
H1223 C1228 0.949 . S
H1224 C1230 0.950 . S
H1225 C1231 0.950 . S
H1226 C1232 0.949 . S
C1227 H1222 0.950 . S
C1227 C1229 1.327 . S
C1227 C1233 1.429 . S
C1228 C1220 1.574 1_566 S
C1228 H1223 0.949 . S
C1228 C1234 1.368 . S
C1229 C1213 1.349 . S
C1229 H1221 0.950 . S
C1229 C1227 1.327 . S
C1230 C1218 1.349 . S
C1230 H1224 0.950 . S
C1230 C1231 1.327 . S
C1231 H1225 0.950 . S
C1231 C1230 1.327 . S
C1231 C1235 1.429 . S
C1232 C1215 1.574 1_544 S
C1232 H1226 0.949 . S
C1232 C1236 1.368 . S
C1233 C1214 1.429 . S
C1233 C1227 1.429 . S
C1233 C1234 1.523 . S
C1234 C1215 1.368 . S
C1234 C1228 1.368 . S
C1234 C1233 1.523 . S
C1235 C1219 1.429 . S
C1235 C1231 1.429 . S
C1235 C1236 1.523 . S
C1236 C1220 1.368 . S
C1236 C1232 1.368 . S
C1236 C1235 1.523 . S
H1237 C1212 0.950 . S
H1238 C1214 0.950 . S
H1239 C1215 0.949 . S
H1240 C1217 0.950 . S
H1241 C1219 0.950 . S
C1242 C1243 1.349 . S
C1242 C1244 1.327 . S
C1242 H1267 0.950 . S
C1243 C1242 1.349 . S
C1243 C1259 1.349 . S
C1244 C1242 1.327 . S
C1244 C1263 1.429 . S
C1244 H1268 0.950 . S
C1245 C1262 1.574 . S
C1245 C1264 1.368 . S
C1245 H1269 0.949 . S
H1246 C1250 0.949 . S
C1247 C1248 1.349 . S
C1247 C1249 1.327 . S
C1247 H1270 0.950 . S
C1248 C1247 1.349 . S
C1248 C1260 1.349 . S
C1249 C1247 1.327 . S
C1249 C1265 1.429 . S
C1249 H1271 0.950 . S
C1250 H1246 0.949 . S
C1250 C1258 1.574 . S
C1250 C1266 1.368 . S
H1251 C1259 0.950 . S
H1252 C1257 0.950 . S
H1253 C1258 0.949 . S
H1254 C1260 0.950 . S
H1255 C1261 0.950 . S
H1256 C1262 0.949 . S
C1257 H1252 0.950 . S
C1257 C1259 1.327 . S
C1257 C1263 1.429 . S
C1258 C1250 1.574 . S
C1258 H1253 0.949 . S
C1258 C1264 1.368 . S
C1259 C1243 1.349 . S
C1259 H1251 0.950 . S
C1259 C1257 1.327 . S
C1260 C1248 1.349 . S
C1260 H1254 0.950 . S
C1260 C1261 1.327 . S
C1261 H1255 0.950 . S
C1261 C1260 1.327 . S
C1261 C1265 1.429 . S
C1262 C1245 1.574 . S
C1262 H1256 0.949 . S
C1262 C1266 1.368 . S
C1263 C1244 1.429 . S
C1263 C1257 1.429 . S
C1263 C1264 1.523 . S
C1264 C1245 1.368 . S
C1264 C1258 1.368 . S
C1264 C1263 1.523 . S
C1265 C1249 1.429 . S
C1265 C1261 1.429 . S
C1265 C1266 1.523 . S
C1266 C1250 1.368 . S
C1266 C1262 1.368 . S
C1266 C1265 1.523 . S
H1267 C1242 0.950 . S
H1268 C1244 0.950 . S
H1269 C1245 0.949 . S
H1270 C1247 0.950 . S
H1271 C1249 0.950 . S
C1272 C1273 1.349 . S
C1272 C1274 1.327 . S
C1272 H1297 0.950 . S
C1273 C1272 1.349 . S
C1273 C1289 1.349 . S
C1274 C1272 1.327 . S
C1274 C1293 1.429 . S
C1274 H1298 0.950 . S
C1275 C1292 1.574 1_554 S
C1275 C1294 1.368 1_455 S
C1275 H1299 0.949 . S
H1276 C1280 0.949 . S
C1277 C1278 1.349 . S
C1277 C1279 1.327 . S
C1277 H1300 0.950 . S
C1278 C1277 1.349 . S
C1278 C1290 1.349 . S
C1279 C1277 1.327 . S
C1279 C1295 1.429 . S
C1279 H1301 0.950 . S
C1280 H1276 0.949 . S
C1280 C1288 1.574 1_556 S
C1280 C1296 1.368 1_655 S
H1281 C1289 0.950 . S
H1282 C1287 0.950 1_455 S
H1283 C1288 0.949 . S
H1284 C1290 0.950 . S
H1285 C1291 0.950 1_655 S
H1286 C1292 0.949 . S
C1287 H1282 0.950 1_655 S
C1287 C1289 1.327 . S
C1287 C1293 1.429 . S
C1288 C1280 1.574 1_554 S
C1288 H1283 0.949 . S
C1288 C1294 1.368 . S
C1289 C1273 1.349 . S
C1289 H1281 0.950 . S
C1289 C1287 1.327 . S
C1290 C1278 1.349 . S
C1290 H1284 0.950 . S
C1290 C1291 1.327 . S
C1291 H1285 0.950 1_455 S
C1291 C1290 1.327 . S
C1291 C1295 1.429 . S
C1292 C1275 1.574 1_556 S
C1292 H1286 0.949 . S
C1292 C1296 1.368 . S
C1293 C1274 1.429 . S
C1293 C1287 1.429 . S
C1293 C1294 1.523 . S
C1294 C1275 1.368 1_655 S
C1294 C1288 1.368 . S
C1294 C1293 1.523 . S
C1295 C1279 1.429 . S
C1295 C1291 1.429 . S
C1295 C1296 1.523 . S
C1296 C1280 1.368 1_455 S
C1296 C1292 1.368 . S
C1296 C1295 1.523 . S
H1297 C1272 0.950 . S
H1298 C1274 0.950 . S
H1299 C1275 0.949 . S
H1300 C1277 0.950 . S
H1301 C1279 0.950 . S
C1302 C1303 1.349 . S
C1302 C1304 1.327 . S
C1302 H1327 0.950 . S
C1303 C1302 1.349 . S
C1303 C1319 1.349 . S
C1304 C1302 1.327 . S
C1304 C1323 1.429 . S
C1304 H1328 0.950 . S
C1305 C1322 1.574 . S
C1305 C1324 1.368 . S
C1305 H1329 0.949 . S
H1306 C1310 0.949 . S
C1307 C1308 1.349 . S
C1307 C1309 1.327 . S
C1307 H1330 0.950 . S
C1308 C1307 1.349 . S
C1308 C1320 1.349 . S
C1309 C1307 1.327 . S
C1309 C1325 1.429 . S
C1309 H1331 0.950 . S
C1310 H1306 0.949 . S
C1310 C1318 1.574 . S
C1310 C1326 1.368 . S
H1311 C1319 0.950 . S
H1312 C1317 0.950 . S
H1313 C1318 0.949 . S
H1314 C1320 0.950 . S
H1315 C1321 0.950 . S
H1316 C1322 0.949 . S
C1317 H1312 0.950 . S
C1317 C1319 1.327 . S
C1317 C1323 1.429 . S
C1318 C1310 1.574 . S
C1318 H1313 0.949 . S
C1318 C1324 1.368 1_545 S
C1319 C1303 1.349 . S
C1319 H1311 0.950 . S
C1319 C1317 1.327 . S
C1320 C1308 1.349 . S
C1320 H1314 0.950 . S
C1320 C1321 1.327 . S
C1321 H1315 0.950 . S
C1321 C1320 1.327 . S
C1321 C1325 1.429 . S
C1322 C1305 1.574 . S
C1322 H1316 0.949 . S
C1322 C1326 1.368 1_565 S
C1323 C1304 1.429 . S
C1323 C1317 1.429 . S
C1323 C1324 1.523 . S
C1324 C1305 1.368 . S
C1324 C1318 1.368 1_565 S
C1324 C1323 1.523 . S
C1325 C1309 1.429 . S
C1325 C1321 1.429 . S
C1325 C1326 1.523 . S
C1326 C1310 1.368 . S
C1326 C1322 1.368 1_545 S
C1326 C1325 1.523 . S
H1327 C1302 0.950 . S
H1328 C1304 0.950 . S
H1329 C1305 0.949 . S
H1330 C1307 0.950 . S
H1331 C1309 0.950 . S
C1332 C1333 1.349 . S
C1332 C1334 1.327 . S
C1332 H1357 0.950 . S
C1333 C1332 1.349 . S
C1333 C1349 1.349 . S
C1334 C1332 1.327 . S
C1334 C1353 1.429 . S
C1334 H1358 0.950 . S
C1335 C1352 1.574 1_554 S
C1335 C1354 1.368 . S
C1335 H1359 0.949 . S
H1336 C1340 0.949 . S
C1337 C1338 1.349 . S
C1337 C1339 1.327 . S
C1337 H1360 0.950 . S
C1338 C1337 1.349 . S
C1338 C1350 1.349 . S
C1339 C1337 1.327 . S
C1339 C1355 1.429 . S
C1339 H1361 0.950 . S
C1340 H1336 0.949 . S
C1340 C1348 1.574 1_556 S
C1340 C1356 1.368 . S
H1341 C1349 0.950 . S
H1342 C1347 0.950 . S
H1343 C1348 0.949 . S
H1344 C1350 0.950 . S
H1345 C1351 0.950 . S
H1346 C1352 0.949 . S
C1347 H1342 0.950 . S
C1347 C1349 1.327 . S
C1347 C1353 1.429 . S
C1348 C1340 1.574 1_554 S
C1348 H1343 0.949 . S
C1348 C1354 1.368 . S
C1349 C1333 1.349 . S
C1349 H1341 0.950 . S
C1349 C1347 1.327 . S
C1350 C1338 1.349 . S
C1350 H1344 0.950 . S
C1350 C1351 1.327 . S
C1351 H1345 0.950 . S
C1351 C1350 1.327 . S
C1351 C1355 1.429 . S
C1352 C1335 1.574 1_556 S
C1352 H1346 0.949 . S
C1352 C1356 1.368 . S
C1353 C1334 1.429 . S
C1353 C1347 1.429 . S
C1353 C1354 1.523 . S
C1354 C1335 1.368 . S
C1354 C1348 1.368 . S
C1354 C1353 1.523 . S
C1355 C1339 1.429 . S
C1355 C1351 1.429 . S
C1355 C1356 1.523 . S
C1356 C1340 1.368 . S
C1356 C1352 1.368 . S
C1356 C1355 1.523 . S
H1357 C1332 0.950 . S
H1358 C1334 0.950 . S
H1359 C1335 0.949 . S
H1360 C1337 0.950 . S
H1361 C1339 0.950 . S
C1362 C1363 1.349 . S
C1362 C1364 1.327 . S
C1362 H1387 0.950 . S
C1363 C1362 1.349 . S
C1363 C1379 1.349 . S
C1364 C1362 1.327 . S
C1364 C1383 1.429 . S
C1364 H1388 0.950 1_455 S
C1365 C1382 1.574 . S
C1365 C1384 1.368 . S
C1365 H1389 0.949 . S
H1366 C1370 0.949 . S
C1367 C1368 1.349 . S
C1367 C1369 1.327 . S
C1367 H1390 0.950 . S
C1368 C1367 1.349 . S
C1368 C1380 1.349 . S
C1369 C1367 1.327 . S
C1369 C1385 1.429 . S
C1369 H1391 0.950 1_655 S
C1370 H1366 0.949 . S
C1370 C1378 1.574 . S
C1370 C1386 1.368 . S
H1371 C1379 0.950 . S
H1372 C1377 0.950 . S
H1373 C1378 0.949 . S
H1374 C1380 0.950 . S
H1375 C1381 0.950 . S
H1376 C1382 0.949 . S
C1377 H1372 0.950 . S
C1377 C1379 1.327 . S
C1377 C1383 1.429 . S
C1378 C1370 1.574 . S
C1378 H1373 0.949 . S
C1378 C1384 1.368 1_655 S
C1379 C1363 1.349 . S
C1379 H1371 0.950 . S
C1379 C1377 1.327 . S
C1380 C1368 1.349 . S
C1380 H1374 0.950 . S
C1380 C1381 1.327 . S
C1381 H1375 0.950 . S
C1381 C1380 1.327 . S
C1381 C1385 1.429 . S
C1382 C1365 1.574 . S
C1382 H1376 0.949 . S
C1382 C1386 1.368 1_455 S
C1383 C1364 1.429 . S
C1383 C1377 1.429 . S
C1383 C1384 1.523 . S
C1384 C1365 1.368 . S
C1384 C1378 1.368 1_455 S
C1384 C1383 1.523 . S
C1385 C1369 1.429 . S
C1385 C1381 1.429 . S
C1385 C1386 1.523 . S
C1386 C1370 1.368 . S
C1386 C1382 1.368 1_655 S
C1386 C1385 1.523 . S
H1387 C1362 0.950 . S
H1388 C1364 0.950 1_655 S
H1389 C1365 0.949 . S
H1390 C1367 0.950 . S
H1391 C1369 0.950 1_455 S
C1392 C1393 1.349 . S
C1392 C1394 1.327 . S
C1392 H1417 0.950 . S
C1393 C1392 1.349 . S
C1393 C1409 1.349 . S
C1394 C1392 1.327 . S
C1394 C1413 1.429 . S
C1394 H1418 0.950 . S
C1395 C1412 1.574 . S
C1395 C1414 1.368 . S
C1395 H1419 0.949 . S
H1396 C1400 0.949 . S
C1397 C1398 1.349 . S
C1397 C1399 1.327 . S
C1397 H1420 0.950 . S
C1398 C1397 1.349 . S
C1398 C1410 1.349 . S
C1399 C1397 1.327 . S
C1399 C1415 1.429 . S
C1399 H1421 0.950 . S
C1400 H1396 0.949 . S
C1400 C1408 1.574 . S
C1400 C1416 1.368 . S
H1401 C1409 0.950 . S
H1402 C1407 0.950 . S
H1403 C1408 0.949 . S
H1404 C1410 0.950 . S
H1405 C1411 0.950 . S
H1406 C1412 0.949 . S
C1407 H1402 0.950 . S
C1407 C1409 1.327 . S
C1407 C1413 1.429 . S
C1408 C1400 1.574 . S
C1408 H1403 0.949 . S
C1408 C1414 1.368 . S
C1409 C1393 1.349 . S
C1409 H1401 0.950 . S
C1409 C1407 1.327 . S
C1410 C1398 1.349 . S
C1410 H1404 0.950 . S
C1410 C1411 1.327 . S
C1411 H1405 0.950 . S
C1411 C1410 1.327 . S
C1411 C1415 1.429 . S
C1412 C1395 1.574 . S
C1412 H1406 0.949 . S
C1412 C1416 1.368 . S
C1413 C1394 1.429 . S
C1413 C1407 1.429 . S
C1413 C1414 1.523 . S
C1414 C1395 1.368 . S
C1414 C1408 1.368 . S
C1414 C1413 1.523 . S
C1415 C1399 1.429 . S
C1415 C1411 1.429 . S
C1415 C1416 1.523 . S
C1416 C1400 1.368 . S
C1416 C1412 1.368 . S
C1416 C1415 1.523 . S
H1417 C1392 0.950 . S
H1418 C1394 0.950 . S
H1419 C1395 0.949 . S
H1420 C1397 0.950 . S
H1421 C1399 0.950 . S
C1422 C1423 1.349 . S
C1422 C1424 1.327 . S
C1422 H1447 0.950 . S
C1423 C1422 1.349 . S
C1423 C1439 1.349 . S
C1424 C1422 1.327 . S
C1424 C1443 1.429 . S
C1424 H1448 0.950 . S
C1425 C1442 1.574 . S
C1425 C1444 1.368 . S
C1425 H1449 0.949 . S
H1426 C1430 0.949 . S
C1427 C1428 1.349 . S
C1427 C1429 1.327 . S
C1427 H1450 0.950 . S
C1428 C1427 1.349 . S
C1428 C1440 1.349 . S
C1429 C1427 1.327 . S
C1429 C1445 1.429 . S
C1429 H1451 0.950 . S
C1430 H1426 0.949 . S
C1430 C1438 1.574 . S
C1430 C1446 1.368 . S
H1431 C1439 0.950 . S
H1432 C1437 0.950 . S
H1433 C1438 0.949 . S
H1434 C1440 0.950 . S
H1435 C1441 0.950 . S
H1436 C1442 0.949 . S
C1437 H1432 0.950 . S
C1437 C1439 1.327 . S
C1437 C1443 1.429 . S
C1438 C1430 1.574 . S
C1438 H1433 0.949 . S
C1438 C1444 1.368 . S
C1439 C1423 1.349 . S
C1439 H1431 0.950 . S
C1439 C1437 1.327 . S
C1440 C1428 1.349 . S
C1440 H1434 0.950 . S
C1440 C1441 1.327 . S
C1441 H1435 0.950 . S
C1441 C1440 1.327 . S
C1441 C1445 1.429 . S
C1442 C1425 1.574 . S
C1442 H1436 0.949 . S
C1442 C1446 1.368 . S
C1443 C1424 1.429 . S
C1443 C1437 1.429 . S
C1443 C1444 1.523 . S
C1444 C1425 1.368 . S
C1444 C1438 1.368 . S
C1444 C1443 1.523 . S
C1445 C1429 1.429 . S
C1445 C1441 1.429 . S
C1445 C1446 1.523 . S
C1446 C1430 1.368 . S
C1446 C1442 1.368 . S
C1446 C1445 1.523 . S
H1447 C1422 0.950 . S
H1448 C1424 0.950 . S
H1449 C1425 0.949 . S
H1450 C1427 0.950 . S
H1451 C1429 0.950 . S
C1452 C1453 1.349 . S
C1452 C1454 1.327 . S
C1452 H1477 0.950 . S
C1453 C1452 1.349 . S
C1453 C1469 1.349 . S
C1454 C1452 1.327 . S
C1454 C1473 1.429 . S
C1454 H1478 0.950 . S
C1455 C1472 1.574 . S
C1455 C1474 1.368 . S
C1455 H1479 0.949 . S
H1456 C1460 0.949 . S
C1457 C1458 1.349 . S
C1457 C1459 1.327 . S
C1457 H1480 0.950 . S
C1458 C1457 1.349 . S
C1458 C1470 1.349 . S
C1459 C1457 1.327 . S
C1459 C1475 1.429 . S
C1459 H1481 0.950 . S
C1460 H1456 0.949 . S
C1460 C1468 1.574 . S
C1460 C1476 1.368 . S
H1461 C1469 0.950 . S
H1462 C1467 0.950 . S
H1463 C1468 0.949 . S
H1464 C1470 0.950 . S
H1465 C1471 0.950 . S
H1466 C1472 0.949 . S
C1467 H1462 0.950 . S
C1467 C1469 1.327 . S
C1467 C1473 1.429 . S
C1468 C1460 1.574 . S
C1468 H1463 0.949 . S
C1468 C1474 1.368 . S
C1469 C1453 1.349 . S
C1469 H1461 0.950 . S
C1469 C1467 1.327 . S
C1470 C1458 1.349 . S
C1470 H1464 0.950 . S
C1470 C1471 1.327 . S
C1471 H1465 0.950 . S
C1471 C1470 1.327 . S
C1471 C1475 1.429 . S
C1472 C1455 1.574 . S
C1472 H1466 0.949 . S
C1472 C1476 1.368 . S
C1473 C1454 1.429 . S
C1473 C1467 1.429 . S
C1473 C1474 1.523 . S
C1474 C1455 1.368 . S
C1474 C1468 1.368 . S
C1474 C1473 1.523 . S
C1475 C1459 1.429 . S
C1475 C1471 1.429 . S
C1475 C1476 1.523 . S
C1476 C1460 1.368 . S
C1476 C1472 1.368 . S
C1476 C1475 1.523 . S
H1477 C1452 0.950 . S
H1478 C1454 0.950 . S
H1479 C1455 0.949 . S
H1480 C1457 0.950 . S
H1481 C1459 0.950 . S
C1482 C1483 1.349 . S
C1482 C1484 1.327 . S
C1482 H1507 0.950 . S
C1483 C1482 1.349 . S
C1483 C1499 1.349 . S
C1484 C1482 1.327 . S
C1484 C1503 1.429 . S
C1484 H1508 0.950 . S
C1485 C1502 1.574 . S
C1485 C1504 1.368 . S
C1485 H1509 0.949 . S
H1486 C1490 0.949 . S
C1487 C1488 1.349 . S
C1487 C1489 1.327 . S
C1487 H1510 0.950 . S
C1488 C1487 1.349 . S
C1488 C1500 1.349 . S
C1489 C1487 1.327 . S
C1489 C1505 1.429 . S
C1489 H1511 0.950 . S
C1490 H1486 0.949 . S
C1490 C1498 1.574 . S
C1490 C1506 1.368 . S
H1491 C1499 0.950 . S
H1492 C1497 0.950 . S
H1493 C1498 0.949 . S
H1494 C1500 0.950 . S
H1495 C1501 0.950 . S
H1496 C1502 0.949 . S
C1497 H1492 0.950 . S
C1497 C1499 1.327 . S
C1497 C1503 1.429 . S
C1498 C1490 1.574 . S
C1498 H1493 0.949 . S
C1498 C1504 1.368 . S
C1499 C1483 1.349 . S
C1499 H1491 0.950 . S
C1499 C1497 1.327 . S
C1500 C1488 1.349 . S
C1500 H1494 0.950 . S
C1500 C1501 1.327 . S
C1501 H1495 0.950 . S
C1501 C1500 1.327 . S
C1501 C1505 1.429 . S
C1502 C1485 1.574 . S
C1502 H1496 0.949 . S
C1502 C1506 1.368 . S
C1503 C1484 1.429 . S
C1503 C1497 1.429 . S
C1503 C1504 1.523 . S
C1504 C1485 1.368 . S
C1504 C1498 1.368 . S
C1504 C1503 1.523 . S
C1505 C1489 1.429 . S
C1505 C1501 1.429 . S
C1505 C1506 1.523 . S
C1506 C1490 1.368 . S
C1506 C1502 1.368 . S
C1506 C1505 1.523 . S
H1507 C1482 0.950 . S
H1508 C1484 0.950 . S
H1509 C1485 0.949 . S
H1510 C1487 0.950 . S
H1511 C1489 0.950 . S
C1512 C1513 1.349 . S
C1512 C1514 1.327 . S
C1512 H1537 0.950 . S
C1513 C1512 1.349 . S
C1513 C1529 1.349 . S
C1514 C1512 1.327 . S
C1514 C1533 1.429 . S
C1514 H1538 0.950 . S
C1515 C1532 1.574 . S
C1515 C1534 1.368 . S
C1515 H1539 0.949 . S
H1516 C1520 0.949 . S
C1517 C1518 1.349 . S
C1517 C1519 1.327 . S
C1517 H1540 0.950 . S
C1518 C1517 1.349 . S
C1518 C1530 1.349 . S
C1519 C1517 1.327 . S
C1519 C1535 1.429 . S
C1519 H1541 0.950 . S
C1520 H1516 0.949 . S
C1520 C1528 1.574 . S
C1520 C1536 1.368 . S
H1521 C1529 0.950 . S
H1522 C1527 0.950 . S
H1523 C1528 0.949 . S
H1524 C1530 0.950 . S
H1525 C1531 0.950 . S
H1526 C1532 0.949 . S
C1527 H1522 0.950 . S
C1527 C1529 1.327 . S
C1527 C1533 1.429 . S
C1528 C1520 1.574 . S
C1528 H1523 0.949 . S
C1528 C1534 1.368 . S
C1529 C1513 1.349 . S
C1529 H1521 0.950 . S
C1529 C1527 1.327 . S
C1530 C1518 1.349 . S
C1530 H1524 0.950 . S
C1530 C1531 1.327 . S
C1531 H1525 0.950 . S
C1531 C1530 1.327 . S
C1531 C1535 1.429 . S
C1532 C1515 1.574 . S
C1532 H1526 0.949 . S
C1532 C1536 1.368 . S
C1533 C1514 1.429 . S
C1533 C1527 1.429 . S
C1533 C1534 1.523 . S
C1534 C1515 1.368 . S
C1534 C1528 1.368 . S
C1534 C1533 1.523 . S
C1535 C1519 1.429 . S
C1535 C1531 1.429 . S
C1535 C1536 1.523 . S
C1536 C1520 1.368 . S
C1536 C1532 1.368 . S
C1536 C1535 1.523 . S
H1537 C1512 0.950 . S
H1538 C1514 0.950 . S
H1539 C1515 0.949 . S
H1540 C1517 0.950 . S
H1541 C1519 0.950 . S
C1542 C1543 1.349 . S
C1542 C1544 1.327 . S
C1542 H1567 0.950 . S
C1543 C1542 1.349 . S
C1543 C1559 1.349 . S
C1544 C1542 1.327 . S
C1544 C1563 1.429 . S
C1544 H1568 0.950 . S
C1545 C1562 1.574 . S
C1545 C1564 1.368 . S
C1545 H1569 0.949 . S
H1546 C1550 0.949 . S
C1547 C1548 1.349 . S
C1547 C1549 1.327 . S
C1547 H1570 0.950 . S
C1548 C1547 1.349 . S
C1548 C1560 1.349 . S
C1549 C1547 1.327 . S
C1549 C1565 1.429 . S
C1549 H1571 0.950 . S
C1550 H1546 0.949 . S
C1550 C1558 1.574 . S
C1550 C1566 1.368 . S
H1551 C1559 0.950 . S
H1552 C1557 0.950 . S
H1553 C1558 0.949 . S
H1554 C1560 0.950 . S
H1555 C1561 0.950 . S
H1556 C1562 0.949 . S
C1557 H1552 0.950 . S
C1557 C1559 1.327 . S
C1557 C1563 1.429 . S
C1558 C1550 1.574 . S
C1558 H1553 0.949 . S
C1558 C1564 1.368 . S
C1559 C1543 1.349 . S
C1559 H1551 0.950 . S
C1559 C1557 1.327 . S
C1560 C1548 1.349 . S
C1560 H1554 0.950 . S
C1560 C1561 1.327 . S
C1561 H1555 0.950 . S
C1561 C1560 1.327 . S
C1561 C1565 1.429 . S
C1562 C1545 1.574 . S
C1562 H1556 0.949 . S
C1562 C1566 1.368 . S
C1563 C1544 1.429 . S
C1563 C1557 1.429 . S
C1563 C1564 1.523 . S
C1564 C1545 1.368 . S
C1564 C1558 1.368 . S
C1564 C1563 1.523 . S
C1565 C1549 1.429 . S
C1565 C1561 1.429 . S
C1565 C1566 1.523 . S
C1566 C1550 1.368 . S
C1566 C1562 1.368 . S
C1566 C1565 1.523 . S
H1567 C1542 0.950 . S
H1568 C1544 0.950 . S
H1569 C1545 0.949 . S
H1570 C1547 0.950 . S
H1571 C1549 0.950 . S
C1572 C1573 1.349 . S
C1572 C1574 1.327 . S
C1572 H1597 0.950 . S
C1573 C1572 1.349 . S
C1573 C1589 1.349 . S
C1574 C1572 1.327 . S
C1574 C1593 1.429 . S
C1574 H1598 0.950 . S
C1575 C1592 1.574 . S
C1575 C1594 1.368 . S
C1575 H1599 0.949 . S
H1576 C1580 0.949 . S
C1577 C1578 1.349 . S
C1577 C1579 1.327 . S
C1577 H1600 0.950 . S
C1578 C1577 1.349 . S
C1578 C1590 1.349 . S
C1579 C1577 1.327 . S
C1579 C1595 1.429 . S
C1579 H1601 0.950 . S
C1580 H1576 0.949 . S
C1580 C1588 1.574 . S
C1580 C1596 1.368 . S
H1581 C1589 0.950 . S
H1582 C1587 0.950 . S
H1583 C1588 0.949 . S
H1584 C1590 0.950 . S
H1585 C1591 0.950 . S
H1586 C1592 0.949 . S
C1587 H1582 0.950 . S
C1587 C1589 1.327 . S
C1587 C1593 1.429 . S
C1588 C1580 1.574 . S
C1588 H1583 0.949 . S
C1588 C1594 1.368 . S
C1589 C1573 1.349 . S
C1589 H1581 0.950 . S
C1589 C1587 1.327 . S
C1590 C1578 1.349 . S
C1590 H1584 0.950 . S
C1590 C1591 1.327 . S
C1591 H1585 0.950 . S
C1591 C1590 1.327 . S
C1591 C1595 1.429 . S
C1592 C1575 1.574 . S
C1592 H1586 0.949 . S
C1592 C1596 1.368 . S
C1593 C1574 1.429 . S
C1593 C1587 1.429 . S
C1593 C1594 1.523 . S
C1594 C1575 1.368 . S
C1594 C1588 1.368 . S
C1594 C1593 1.523 . S
C1595 C1579 1.429 . S
C1595 C1591 1.429 . S
C1595 C1596 1.523 . S
C1596 C1580 1.368 . S
C1596 C1592 1.368 . S
C1596 C1595 1.523 . S
H1597 C1572 0.950 . S
H1598 C1574 0.950 . S
H1599 C1575 0.949 . S
H1600 C1577 0.950 . S
H1601 C1579 0.950 . S
C1602 C1603 1.349 . S
C1602 C1604 1.327 . S
C1602 H1627 0.950 . S
C1603 C1602 1.349 . S
C1603 C1619 1.349 . S
C1604 C1602 1.327 . S
C1604 C1623 1.429 . S
C1604 H1628 0.950 . S
C1605 C1622 1.574 . S
C1605 C1624 1.368 . S
C1605 H1629 0.949 . S
H1606 C1610 0.949 . S
C1607 C1608 1.349 . S
C1607 C1609 1.327 . S
C1607 H1630 0.950 . S
C1608 C1607 1.349 . S
C1608 C1620 1.349 . S
C1609 C1607 1.327 . S
C1609 C1625 1.429 . S
C1609 H1631 0.950 . S
C1610 H1606 0.949 . S
C1610 C1618 1.574 . S
C1610 C1626 1.368 . S
H1611 C1619 0.950 . S
H1612 C1617 0.950 . S
H1613 C1618 0.949 . S
H1614 C1620 0.950 . S
H1615 C1621 0.950 . S
H1616 C1622 0.949 . S
C1617 H1612 0.950 . S
C1617 C1619 1.327 . S
C1617 C1623 1.429 . S
C1618 C1610 1.574 . S
C1618 H1613 0.949 . S
C1618 C1624 1.368 . S
C1619 C1603 1.349 . S
C1619 H1611 0.950 . S
C1619 C1617 1.327 . S
C1620 C1608 1.349 . S
C1620 H1614 0.950 . S
C1620 C1621 1.327 . S
C1621 H1615 0.950 . S
C1621 C1620 1.327 . S
C1621 C1625 1.429 . S
C1622 C1605 1.574 . S
C1622 H1616 0.949 . S
C1622 C1626 1.368 . S
C1623 C1604 1.429 . S
C1623 C1617 1.429 . S
C1623 C1624 1.523 . S
C1624 C1605 1.368 . S
C1624 C1618 1.368 . S
C1624 C1623 1.523 . S
C1625 C1609 1.429 . S
C1625 C1621 1.429 . S
C1625 C1626 1.523 . S
C1626 C1610 1.368 . S
C1626 C1622 1.368 . S
C1626 C1625 1.523 . S
H1627 C1602 0.950 . S
H1628 C1604 0.950 . S
H1629 C1605 0.949 . S
H1630 C1607 0.950 . S
H1631 C1609 0.950 . S
C1632 C1633 1.349 . S
C1632 C1634 1.327 . S
C1632 H1657 0.950 . S
C1633 C1632 1.349 . S
C1633 C1649 1.349 . S
C1634 C1632 1.327 . S
C1634 C1653 1.429 . S
C1634 H1658 0.950 . S
C1635 C1652 1.574 . S
C1635 C1654 1.368 . S
C1635 H1659 0.949 . S
H1636 C1640 0.949 . S
C1637 C1638 1.349 . S
C1637 C1639 1.327 . S
C1637 H1660 0.950 . S
C1638 C1637 1.349 . S
C1638 C1650 1.349 . S
C1639 C1637 1.327 . S
C1639 C1655 1.429 . S
C1639 H1661 0.950 . S
C1640 H1636 0.949 . S
C1640 C1648 1.574 . S
C1640 C1656 1.368 . S
H1641 C1649 0.950 . S
H1642 C1647 0.950 . S
H1643 C1648 0.949 . S
H1644 C1650 0.950 . S
H1645 C1651 0.950 . S
H1646 C1652 0.949 . S
C1647 H1642 0.950 . S
C1647 C1649 1.327 . S
C1647 C1653 1.429 . S
C1648 C1640 1.574 . S
C1648 H1643 0.949 . S
C1648 C1654 1.368 . S
C1649 C1633 1.349 . S
C1649 H1641 0.950 . S
C1649 C1647 1.327 . S
C1650 C1638 1.349 . S
C1650 H1644 0.950 . S
C1650 C1651 1.327 . S
C1651 H1645 0.950 . S
C1651 C1650 1.327 . S
C1651 C1655 1.429 . S
C1652 C1635 1.574 . S
C1652 H1646 0.949 . S
C1652 C1656 1.368 . S
C1653 C1634 1.429 . S
C1653 C1647 1.429 . S
C1653 C1654 1.523 . S
C1654 C1635 1.368 . S
C1654 C1648 1.368 . S
C1654 C1653 1.523 . S
C1655 C1639 1.429 . S
C1655 C1651 1.429 . S
C1655 C1656 1.523 . S
C1656 C1640 1.368 . S
C1656 C1652 1.368 . S
C1656 C1655 1.523 . S
H1657 C1632 0.950 . S
H1658 C1634 0.950 . S
H1659 C1635 0.949 . S
H1660 C1637 0.950 . S
H1661 C1639 0.950 . S
C1662 C1663 1.349 . S
C1662 C1664 1.327 . S
C1662 H1687 0.950 . S
C1663 C1662 1.349 . S
C1663 C1679 1.349 . S
C1664 C1662 1.327 . S
C1664 C1683 1.429 . S
C1664 H1688 0.950 . S
C1665 C1682 1.574 . S
C1665 C1684 1.368 . S
C1665 H1689 0.949 . S
H1666 C1670 0.949 . S
C1667 C1668 1.349 . S
C1667 C1669 1.327 . S
C1667 H1690 0.950 . S
C1668 C1667 1.349 . S
C1668 C1680 1.349 . S
C1669 C1667 1.327 . S
C1669 C1685 1.429 . S
C1669 H1691 0.950 . S
C1670 H1666 0.949 . S
C1670 C1678 1.574 . S
C1670 C1686 1.368 . S
H1671 C1679 0.950 . S
H1672 C1677 0.950 . S
H1673 C1678 0.949 . S
H1674 C1680 0.950 . S
H1675 C1681 0.950 . S
H1676 C1682 0.949 . S
C1677 H1672 0.950 . S
C1677 C1679 1.327 . S
C1677 C1683 1.429 . S
C1678 C1670 1.574 . S
C1678 H1673 0.949 . S
C1678 C1684 1.368 . S
C1679 C1663 1.349 . S
C1679 H1671 0.950 . S
C1679 C1677 1.327 . S
C1680 C1668 1.349 . S
C1680 H1674 0.950 . S
C1680 C1681 1.327 . S
C1681 H1675 0.950 . S
C1681 C1680 1.327 . S
C1681 C1685 1.429 . S
C1682 C1665 1.574 . S
C1682 H1676 0.949 . S
C1682 C1686 1.368 . S
C1683 C1664 1.429 . S
C1683 C1677 1.429 . S
C1683 C1684 1.523 . S
C1684 C1665 1.368 . S
C1684 C1678 1.368 . S
C1684 C1683 1.523 . S
C1685 C1669 1.429 . S
C1685 C1681 1.429 . S
C1685 C1686 1.523 . S
C1686 C1670 1.368 . S
C1686 C1682 1.368 . S
C1686 C1685 1.523 . S
H1687 C1662 0.950 . S
H1688 C1664 0.950 . S
H1689 C1665 0.949 . S
H1690 C1667 0.950 . S
H1691 C1669 0.950 . S
C1692 C1693 1.349 . S
C1692 C1694 1.327 . S
C1692 H1717 0.950 . S
C1693 C1692 1.349 . S
C1693 C1709 1.349 . S
C1694 C1692 1.327 . S
C1694 C1713 1.429 . S
C1694 H1718 0.950 . S
C1695 C1712 1.574 . S
C1695 C1714 1.368 . S
C1695 H1719 0.949 . S
H1696 C1700 0.949 . S
C1697 C1698 1.349 . S
C1697 C1699 1.327 . S
C1697 H1720 0.950 . S
C1698 C1697 1.349 . S
C1698 C1710 1.349 . S
C1699 C1697 1.327 . S
C1699 C1715 1.429 . S
C1699 H1721 0.950 . S
C1700 H1696 0.949 . S
C1700 C1708 1.574 . S
C1700 C1716 1.368 . S
H1701 C1709 0.950 . S
H1702 C1707 0.950 . S
H1703 C1708 0.949 . S
H1704 C1710 0.950 . S
H1705 C1711 0.950 . S
H1706 C1712 0.949 . S
C1707 H1702 0.950 . S
C1707 C1709 1.327 . S
C1707 C1713 1.429 . S
C1708 C1700 1.574 . S
C1708 H1703 0.949 . S
C1708 C1714 1.368 . S
C1709 C1693 1.349 . S
C1709 H1701 0.950 . S
C1709 C1707 1.327 . S
C1710 C1698 1.349 . S
C1710 H1704 0.950 . S
C1710 C1711 1.327 . S
C1711 H1705 0.950 . S
C1711 C1710 1.327 . S
C1711 C1715 1.429 . S
C1712 C1695 1.574 . S
C1712 H1706 0.949 . S
C1712 C1716 1.368 . S
C1713 C1694 1.429 . S
C1713 C1707 1.429 . S
C1713 C1714 1.523 . S
C1714 C1695 1.368 . S
C1714 C1708 1.368 . S
C1714 C1713 1.523 . S
C1715 C1699 1.429 . S
C1715 C1711 1.429 . S
C1715 C1716 1.523 . S
C1716 C1700 1.368 . S
C1716 C1712 1.368 . S
C1716 C1715 1.523 . S
H1717 C1692 0.950 . S
H1718 C1694 0.950 . S
H1719 C1695 0.949 . S
H1720 C1697 0.950 . S
H1721 C1699 0.950 . S
C1722 C1723 1.349 . S
C1722 C1724 1.327 . S
C1722 H1747 0.950 . S
C1723 C1722 1.349 . S
C1723 C1739 1.349 . S
C1724 C1722 1.327 . S
C1724 C1743 1.429 . S
C1724 H1748 0.950 . S
C1725 C1742 1.574 . S
C1725 C1744 1.368 . S
C1725 H1749 0.949 . S
H1726 C1730 0.949 . S
C1727 C1728 1.349 . S
C1727 C1729 1.327 . S
C1727 H1750 0.950 . S
C1728 C1727 1.349 . S
C1728 C1740 1.349 . S
C1729 C1727 1.327 . S
C1729 C1745 1.429 . S
C1729 H1751 0.950 . S
C1730 H1726 0.949 . S
C1730 C1738 1.574 . S
C1730 C1746 1.368 . S
H1731 C1739 0.950 . S
H1732 C1737 0.950 . S
H1733 C1738 0.949 . S
H1734 C1740 0.950 . S
H1735 C1741 0.950 . S
H1736 C1742 0.949 . S
C1737 H1732 0.950 . S
C1737 C1739 1.327 . S
C1737 C1743 1.429 . S
C1738 C1730 1.574 . S
C1738 H1733 0.949 . S
C1738 C1744 1.368 . S
C1739 C1723 1.349 . S
C1739 H1731 0.950 . S
C1739 C1737 1.327 . S
C1740 C1728 1.349 . S
C1740 H1734 0.950 . S
C1740 C1741 1.327 . S
C1741 H1735 0.950 . S
C1741 C1740 1.327 . S
C1741 C1745 1.429 . S
C1742 C1725 1.574 . S
C1742 H1736 0.949 . S
C1742 C1746 1.368 . S
C1743 C1724 1.429 . S
C1743 C1737 1.429 . S
C1743 C1744 1.523 . S
C1744 C1725 1.368 . S
C1744 C1738 1.368 . S
C1744 C1743 1.523 . S
C1745 C1729 1.429 . S
C1745 C1741 1.429 . S
C1745 C1746 1.523 . S
C1746 C1730 1.368 . S
C1746 C1742 1.368 . S
C1746 C1745 1.523 . S
H1747 C1722 0.950 . S
H1748 C1724 0.950 . S
H1749 C1725 0.949 . S
H1750 C1727 0.950 . S
H1751 C1729 0.950 . S
C313 C199 1.338 . S
C318 C10 1.338 . S
C343 C17 1.338 . S
C348 C212 1.338 . S
C373 C36 1.338 . S
C378 C231 1.338 . S
C403 C43 1.338 . S
C408 C166 1.338 . S
C433 C179 1.338 . S
C438 C62 1.338 . S
C463 C75 1.338 . S
C468 C186 1.338 . S
C493 C277 1.338 . S
C498 C88 1.338 . S
C523 C95 1.338 . S
C528 C296 1.338 . S
C553 C108 1.338 . S
C558 C309 1.338 . S
C583 C238 1.338 . S
C588 C121 1.338 . S
C613 C134 1.338 . S
C618 C257 1.338 . S
C643 C270 1.338 . S
C648 C153 1.338 . S
C673 C4 1.727 . S
C678 C303 1.727 . S
C703 C244 1.727 . S
C708 C23 1.727 . S
C733 C30 1.727 . S
C738 C251 1.727 . S
C763 C264 1.727 . S
C768 C49 1.727 . S
C793 C56 1.727 . S
C798 C283 1.727 . S
C823 C290 1.727 . S
C828 C69 1.727 . S
C853 C82 1.727 . S
C858 C173 1.727 . S
C883 C192 1.727 . S
C888 C101 1.727 . S
C913 C205 1.727 . S
C918 C114 1.727 . S
C943 C218 1.727 . S
C948 C127 1.727 . S
C973 C140 1.727 . S
C978 C225 1.727 . S
C1003 C147 1.727 . S
C1008 C160 1.727 . S
C1033 C96 1.208 . S
C1038 C3 1.208 . S
C1063 C109 1.209 . S
C1068 C18 1.209 . S
C1093 C122 1.208 . S
C1098 C29 1.208 . S
C1123 C135 1.209 . S
C1128 C44 1.209 . S
C1153 C55 1.208 . S
C1158 C146 1.208 . S
C1183 C68 1.209 . S
C1188 C81 1.209 . S
C1213 C159 1.209 . S
C1218 C250 1.208 . S
C1243 C172 1.208 . S
C1248 C263 1.208 . S
C1273 C278 1.209 . S
C1278 C187 1.209 . S
C1303 C289 1.208 . S
C1308 C200 1.208 . S
C1333 C302 1.209 . S
C1338 C213 1.209 . S
C1363 C239 1.208 . S
C1368 C224 1.208 . S
C1393 C5 1.783 . S
C1398 C252 1.783 . S
C1423 C265 1.783 . S
C1428 C16 1.783 . S
C1453 C31 1.783 . S
C1458 C276 1.783 . S
C1483 C291 1.783 . S
C1488 C42 1.783 . S
C1513 C57 1.783 . S
C1518 C304 1.783 . S
C1543 C237 1.783 . S
C1548 C70 1.783 . S
C1573 C83 1.783 . S
C1578 C226 1.783 . S
C1603 C161 1.783 . S
C1608 C94 1.783 . S
C1633 C107 1.783 . S
C1638 C174 1.783 . S
C1663 C120 1.783 . S
C1668 C185 1.783 . S
C1693 C133 1.783 . S
C1698 C198 1.783 . S
C1723 C148 1.783 . S
C1728 C211 1.783 . S
