# Generated by pormake.
# Topology sml, (6)-cn, num edge types: 1
# Building blocks:
#     Node 0, Type 0, BuildingBlock: BETDAH_clean_sbu_0, # of connection points: 6
#     Node 1, Type 0, BuildingBlock: BETDAH_clean_sbu_0, # of connection points: 6
#     Node 2, Type 0, BuildingBlock: BETDAH_clean_sbu_0, # of connection points: 6
#     Node 3, Type 0, BuildingBlock: BETDAH_clean_sbu_0, # of connection points: 6
#     Node 4, Type 0, BuildingBlock: BETDAH_clean_sbu_0, # of connection points: 6
#     Node 5, Type 0, BuildingBlock: BETDAH_clean_sbu_0, # of connection points: 6
#     Edge 6, Type (0, 0), BuildingBlock: ZUJKAS_clean_linker_0, # of connection points: 2
#     Edge 7, Type (0, 0), BuildingBlock: ZUJKAS_clean_linker_0, # of connection points: 2
#     Edge 8, Type (0, 0), BuildingBlock: ZUJKAS_clean_linker_0, # of connection points: 2
#     Edge 9, Type (0, 0), BuildingBlock: ZUJKAS_clean_linker_0, # of connection points: 2
#     Edge 10, Type (0, 0), BuildingBlock: ZUJKAS_clean_linker_0, # of connection points: 2
#     Edge 11, Type (0, 0), BuildingBlock: ZUJKAS_clean_linker_0, # of connection points: 2
#     Edge 12, Type (0, 0), BuildingBlock: ZUJKAS_clean_linker_0, # of connection points: 2
#     Edge 13, Type (0, 0), BuildingBlock: ZUJKAS_clean_linker_0, # of connection points: 2
#     Edge 14, Type (0, 0), BuildingBlock: ZUJKAS_clean_linker_0, # of connection points: 2
#     Edge 15, Type (0, 0), BuildingBlock: ZUJKAS_clean_linker_0, # of connection points: 2
#     Edge 16, Type (0, 0), BuildingBlock: ZUJKAS_clean_linker_0, # of connection points: 2
#     Edge 17, Type (0, 0), BuildingBlock: ZUJKAS_clean_linker_0, # of connection points: 2
#     Edge 18, Type (0, 0), BuildingBlock: ZUJKAS_clean_linker_0, # of connection points: 2
#     Edge 19, Type (0, 0), BuildingBlock: ZUJKAS_clean_linker_0, # of connection points: 2
#     Edge 20, Type (0, 0), BuildingBlock: ZUJKAS_clean_linker_0, # of connection points: 2
#     Edge 21, Type (0, 0), BuildingBlock: ZUJKAS_clean_linker_0, # of connection points: 2
#     Edge 22, Type (0, 0), BuildingBlock: ZUJKAS_clean_linker_0, # of connection points: 2
#     Edge 23, Type (0, 0), BuildingBlock: ZUJKAS_clean_linker_0, # of connection points: 2
# Relax obj value: 0.144
# Max RMSD: 0.194
# Mean RMSD: 0.194
data_MOF--net-sml--node1-BETDAH_clean_sbu_0--edge1-ZUJKAS_clean_linker_0
_symmetry_space_group_name_H-M    P1
_symmetry_Int_Tables_number       1
_symmetry_cell_setting            triclinic
loop_
_symmetry_equiv_pos_as_xyz
'x, y, z'
_cell_length_a     43.246565
_cell_length_b     43.303646
_cell_length_c     29.721643
_cell_angle_alpha  90.005817
_cell_angle_beta   89.995157
_cell_angle_gamma 119.98959
loop_
_atom_site_label
_atom_site_type_symbol
_atom_site_fract_x
_atom_site_fract_y
_atom_site_fract_z
_atom_type_partial_charge
Ho0 Ho 0.19403 0.43519 0.09723 0.0
Ho1 Ho 0.2063 0.40076 0.18221 0.0
C2 C 0.21037 0.36934 0.08774 0.0
C3 C 0.19911 0.4655 0.02038 0.0
C4 C 0.19956 0.45758 0.97223 0.0
C5 C 0.2181 0.44085 0.95619 0.0
C6 C 0.21826 0.43403 0.91015 0.0
C7 C 0.19979 0.44368 0.8794 0.0
C8 C 0.18121 0.4603 0.89578 0.0
C9 C 0.18113 0.46717 0.9417 0.0
C10 C 0.13485 0.38323 0.13637 0.0
C11 C 0.19036 0.46681 0.1923 0.0
C12 C 0.20192 0.37064 0.25901 0.0
C13 C 0.20232 0.37859 0.30732 0.0
C14 C 0.18394 0.39517 0.32438 0.0
C15 C 0.18431 0.40169 0.37058 0.0
C16 C 0.20316 0.39187 0.40051 0.0
C17 C 0.22164 0.37545 0.3831 0.0
C18 C 0.22117 0.36888 0.33702 0.0
C19 C 0.26516 0.45334 0.14259 0.0
O20 O 0.21083 0.39732 0.06889 0.0
O21 O 0.20376 0.36194 0.13103 0.0
O22 O 0.16883 0.44625 0.04141 0.0
O23 O 0.22672 0.47087 0.04441 0.0
O24 O 0.13637 0.41065 0.1166 0.0
O25 O 0.16397 0.38355 0.13177 0.0
O26 O 0.19016 0.43893 0.21109 0.0
O27 O 0.19613 0.47383 0.14876 0.0
O28 O 0.23195 0.38943 0.23728 0.0
O29 O 0.17412 0.36573 0.23579 0.0
O30 O 0.2642 0.4259 0.16157 0.0
O31 O 0.23587 0.45235 0.14803 0.0
H32 H 0.23248 0.43312 0.97915 0.0
H33 H 0.23254 0.42087 0.89871 0.0
H34 H 0.16715 0.46856 0.873 0.0
H35 H 0.16678 0.4802 0.95338 0.0
H36 H 0.16924 0.40301 0.3021 0.0
H37 H 0.17012 0.41471 0.38282 0.0
H38 H 0.23598 0.36709 0.40522 0.0
H39 H 0.23539 0.35592 0.32455 0.0
Ho40 Ho 0.79181 0.23416 0.47434 0.0
Ho41 Ho 0.78604 0.18963 0.38931 0.0
C42 C 0.7769 0.15261 0.48362 0.0
C43 C 0.78127 0.25656 0.55046 0.0
C44 C 0.78091 0.24844 0.59883 0.0
C45 C 0.76164 0.2134 0.61547 0.0
C46 C 0.76176 0.2067 0.66158 0.0
C47 C 0.78127 0.23486 0.6919 0.0
C48 C 0.80045 0.26985 0.67501 0.0
C49 C 0.80019 0.27653 0.62903 0.0
C50 C 0.85379 0.24222 0.4428 0.0
C51 C 0.80124 0.27143 0.37966 0.0
C52 C 0.7947 0.16617 0.31289 0.0
C53 C 0.79339 0.17307 0.26436 0.0
C54 C 0.81328 0.20748 0.24595 0.0
C55 C 0.81194 0.21297 0.1997 0.0
C56 C 0.79063 0.18422 0.17092 0.0
C57 C 0.77075 0.14989 0.1896 0.0
C58 C 0.77219 0.14441 0.23573 0.0
C59 C 0.72449 0.18238 0.42191 0.0
O60 O 0.77293 0.17862 0.50096 0.0
O61 O 0.78812 0.15379 0.44189 0.0
O62 O 0.81233 0.27098 0.53043 0.0
O63 O 0.7555 0.23259 0.52551 0.0
O64 O 0.85086 0.2676 0.46179 0.0
O65 O 0.82442 0.21354 0.44433 0.0
O66 O 0.80446 0.24502 0.36201 0.0
O67 O 0.79091 0.27063 0.4218 0.0
O68 O 0.76429 0.15167 0.33449 0.0
O69 O 0.82099 0.19095 0.3364 0.0
O70 O 0.72696 0.15625 0.40446 0.0
O71 O 0.75397 0.21065 0.41898 0.0
H72 H 0.74657 0.19117 0.59292 0.0
H73 H 0.74697 0.17941 0.6734 0.0
H74 H 0.81532 0.29221 0.69744 0.0
H75 H 0.81507 0.30377 0.61702 0.0
H76 H 0.8299 0.23014 0.26718 0.0
H77 H 0.82731 0.23981 0.18655 0.0
H78 H 0.75451 0.12705 0.16841 0.0
H79 H 0.75682 0.11762 0.24908 0.0
Ho80 Ho 0.55673 0.75808 0.75941 0.0
Ho81 Ho 0.5957 0.80108 0.84552 0.0
C82 C 0.62255 0.8403 0.75206 0.0
C83 C 0.523 0.73718 0.68356 0.0
C84 C 0.53083 0.74547 0.63541 0.0
C85 C 0.5027 0.7373 0.60557 0.0
C86 C 0.50925 0.74394 0.55951 0.0
C87 C 0.54416 0.75884 0.54228 0.0
C88 C 0.57244 0.76766 0.57259 0.0
C89 C 0.56583 0.76109 0.61875 0.0
C90 C 0.61192 0.75093 0.78821 0.0
C91 C 0.52935 0.71899 0.8534 0.0
C92 C 0.62925 0.82241 0.92147 0.0
C93 C 0.62129 0.81525 0.96979 0.0
C94 C 0.64919 0.82297 0.99983 0.0
C95 C 0.64261 0.81757 0.04605 0.0
C96 C 0.60789 0.80433 0.06322 0.0
C97 C 0.5798 0.79587 0.03275 0.0
C98 C 0.58643 0.80124 0.98644 0.0
C99 C 0.5401 0.80756 0.81621 0.0
O100 O 0.59271 0.81428 0.73437 0.0
O101 O 0.63289 0.83846 0.7934 0.0
O102 O 0.5385 0.72146 0.70327 0.0
O103 O 0.52326 0.76225 0.70837 0.0
O104 O 0.58385 0.72561 0.76868 0.0
O105 O 0.61026 0.77908 0.78844 0.0
O106 O 0.55904 0.74512 0.87135 0.0
O107 O 0.51967 0.72056 0.81156 0.0
O108 O 0.61464 0.8386 0.90072 0.0
O109 O 0.62809 0.79645 0.89772 0.0
O110 O 0.56809 0.83338 0.83525 0.0
O111 O 0.54229 0.77978 0.8167 0.0
H112 H 0.47555 0.72556 0.61789 0.0
H113 H 0.48692 0.73748 0.53741 0.0
H114 H 0.5996 0.7789 0.56058 0.0
H115 H 0.58797 0.76782 0.64136 0.0
H116 H 0.67621 0.83344 0.98754 0.0
H117 H 0.66476 0.82367 0.06832 0.0
H118 H 0.55279 0.78585 0.04473 0.0
H119 H 0.56445 0.79486 0.9637 0.0
Ho120 Ho 0.7583 0.56418 0.14494 0.0
Ho121 Ho 0.80523 0.59785 0.06001 0.0
C122 C 0.84074 0.6297 0.15429 0.0
C123 C 0.73266 0.5345 0.22197 0.0
C124 C 0.74147 0.54241 0.27003 0.0
C125 C 0.77678 0.55801 0.28574 0.0
C126 C 0.78419 0.56494 0.33168 0.0
C127 C 0.75645 0.55653 0.36266 0.0
C128 C 0.7212 0.54103 0.34662 0.0
C129 C 0.71383 0.53404 0.3008 0.0
C130 C 0.75124 0.61581 0.10458 0.0
C131 C 0.72304 0.53207 0.05002 0.0
C132 C 0.83119 0.62725 0.98292 0.0
C133 C 0.82329 0.61907 0.93471 0.0
C134 C 0.78836 0.6039 0.91772 0.0
C135 C 0.78193 0.59721 0.87159 0.0
C136 C 0.81025 0.6054 0.84167 0.0
C137 C 0.84509 0.62039 0.85899 0.0
C138 C 0.8515 0.62717 0.905 0.0
C139 C 0.81112 0.54538 0.10051 0.0
O140 O 0.81311 0.60182 0.1732 0.0
O141 O 0.8416 0.63692 0.11094 0.0
O142 O 0.72264 0.55458 0.20102 0.0
O143 O 0.75403 0.52798 0.19775 0.0
O144 O 0.72524 0.58849 0.12444 0.0
O145 O 0.78003 0.61555 0.10968 0.0
O146 O 0.75087 0.55976 0.03113 0.0
O147 O 0.72164 0.52533 0.09366 0.0
O148 O 0.84188 0.6081 1.00482 0.0
O149 O 0.80885 0.63297 1.00616 0.0
O150 O 0.83772 0.57264 0.08139 0.0
O151 O 0.78288 0.54642 0.09474 0.0
H152 H 0.79859 0.5648 0.26259 0.0
H153 H 0.81165 0.57722 0.34289 0.0
H154 H 0.69918 0.53376 0.3696 0.0
H155 H 0.68642 0.5219 0.28937 0.0
H156 H 0.76607 0.5973 0.94 0.0
H157 H 0.75475 0.58532 0.85941 0.0
H158 H 0.86757 0.62751 0.83685 0.0
H159 H 0.87864 0.63902 0.91739 0.0
Ho160 Ho 0.2337 0.79651 0.43955 0.0
Ho161 Ho 0.18668 0.78443 0.52419 0.0
C162 C 0.1514 0.78035 0.42946 0.0
C163 C 0.25883 0.79013 0.36318 0.0
C164 C 0.25096 0.78961 0.31481 0.0
C165 C 0.21579 0.77441 0.29877 0.0
C166 C 0.20915 0.77378 0.25254 0.0
C167 C 0.23757 0.78822 0.22149 0.0
C168 C 0.27272 0.80362 0.2379 0.0
C169 C 0.2793 0.80429 0.28405 0.0
C170 C 0.24029 0.85577 0.47757 0.0
C171 C 0.2692 0.80221 0.53466 0.0
C172 C 0.15968 0.78701 0.60105 0.0
C173 C 0.16758 0.78771 0.6494 0.0
C174 C 0.20266 0.80181 0.66527 0.0
C175 C 0.20932 0.80235 0.71149 0.0
C176 C 0.181 0.7888 0.74267 0.0
C177 C 0.1459 0.77446 0.72638 0.0
C178 C 0.13932 0.77397 0.68026 0.0
C179 C 0.1814 0.72588 0.48481 0.0
O180 O 0.17918 0.78013 0.41085 0.0
O181 O 0.15012 0.78647 0.47283 0.0
O182 O 0.27054 0.82061 0.38393 0.0
O183 O 0.23576 0.76299 0.38719 0.0
O184 O 0.26634 0.8544 0.45783 0.0
O185 O 0.21164 0.8265 0.47338 0.0
O186 O 0.24189 0.80365 0.55265 0.0
O187 O 0.26969 0.79419 0.49179 0.0
O188 O 0.15088 0.75731 0.57981 0.0
O189 O 0.18114 0.81527 0.57755 0.0
O190 O 0.15441 0.72678 0.50233 0.0
O191 O 0.20942 0.75518 0.49087 0.0
H192 H 0.19345 0.76277 0.32188 0.0
H193 H 0.18175 0.76141 0.24108 0.0
H194 H 0.29526 0.8155 0.2151 0.0
H195 H 0.30663 0.81623 0.29575 0.0
H196 H 0.22486 0.81254 0.64198 0.0
H197 H 0.2367 0.81389 0.72281 0.0
H198 H 0.12339 0.76323 0.74924 0.0
H199 H 0.11204 0.76278 0.66865 0.0
Ho200 Ho 0.43737 0.20056 0.8075 0.0
Ho201 Ho 0.40195 0.21111 0.72202 0.0
C202 C 0.37194 0.21773 0.81657 0.0
C203 C 0.46972 0.20925 0.88371 0.0
C204 C 0.46269 0.21132 0.93174 0.0
C205 C 0.49152 0.22846 0.96146 0.0
C206 C 0.48563 0.22972 0.00749 0.0
C207 C 0.45067 0.2138 0.02477 0.0
C208 C 0.42177 0.1973 0.99458 0.0
C209 C 0.42773 0.19609 0.94845 0.0
C210 C 0.38363 0.14077 0.77186 0.0
C211 C 0.46691 0.19316 0.71265 0.0
C212 C 0.37073 0.20483 0.64544 0.0
C213 C 0.37852 0.20505 0.5972 0.0
C214 C 0.35014 0.18961 0.56659 0.0
C215 C 0.3567 0.19024 0.52046 0.0
C216 C 0.39189 0.20643 0.50394 0.0
C217 C 0.42035 0.22142 0.53495 0.0
C218 C 0.41371 0.2207 0.5812 0.0
C219 C 0.45601 0.27036 0.75884 0.0
O220 O 0.39997 0.21813 0.83531 0.0
O221 O 0.36401 0.21046 0.77346 0.0
O222 O 0.45057 0.17821 0.8643 0.0
O223 O 0.4736 0.23572 0.85854 0.0
O224 O 0.41086 0.14204 0.79205 0.0
O225 O 0.38497 0.17043 0.77462 0.0
O226 O 0.43932 0.19356 0.69376 0.0
O227 O 0.47454 0.1998 0.75593 0.0
O228 O 0.38891 0.23509 0.66687 0.0
O229 O 0.36736 0.17765 0.66863 0.0
O230 O 0.42847 0.26955 0.74026 0.0
O231 O 0.45419 0.24066 0.75453 0.0
H232 H 0.51869 0.24066 0.94907 0.0
H233 H 0.50851 0.24326 0.02955 0.0
H234 H 0.39452 0.18455 1.0067 0.0
H235 H 0.40509 0.18288 0.92594 0.0
H236 H 0.32279 0.17716 0.57839 0.0
H237 H 0.33414 0.17782 0.49775 0.0
H238 H 0.44777 0.23433 0.52346 0.0
H239 H 0.436 0.23267 0.60439 0.0
H240 H 0.32492 0.23866 0.78917 0.0
H241 H 0.29201 0.25856 0.83666 0.0
H242 H 0.3337 0.23476 0.95533 0.0
H243 H 0.3676 0.216 0.90819 0.0
H244 H 0.24135 0.2274 0.90165 0.0
H245 H 0.36546 0.33853 0.97425 0.0
H246 H 0.3659 0.31278 0.92684 0.0
H247 H 0.36134 0.29566 0.98312 0.0
C248 C 0.32687 0.23743 0.82538 0.0
C249 C 0.3492 0.22623 0.84497 0.0
C250 C 0.30805 0.24879 0.85245 0.0
C251 C 0.31109 0.2489 0.89947 0.0
C252 C 0.33181 0.23586 0.91909 0.0
H253 H 0.22698 0.31938 0.11611 0.0
H254 H 0.24763 0.28644 0.07001 0.0
C255 C 0.35103 0.22499 0.8921 0.0
C256 C 0.29364 0.26388 0.92785 0.0
H257 H 0.31089 0.32819 1.00618 0.0
C258 C 0.25653 0.24946 0.92446 0.0
C259 C 0.31361 0.29289 0.9573 0.0
C260 C 0.35381 0.31113 0.96035 0.0
C261 C 0.23882 0.26307 0.95022 0.0
C262 C 0.25878 0.29164 0.97997 0.0
C263 C 0.29576 0.30599 0.98351 0.0
C264 C 0.24217 0.30805 1.00689 0.0
C265 C 0.19895 0.24688 0.94581 0.0
C266 C 0.23206 0.33078 0.98635 0.0
C267 C 0.22053 0.34988 0.01254 0.0
C268 C 0.21889 0.34643 0.05967 0.0
C269 C 0.22781 0.32255 0.0799 0.0
C270 C 0.23963 0.30372 0.0537 0.0
H271 H 0.18669 0.22172 0.92607 0.0
H272 H 0.18634 0.24139 0.97961 0.0
H273 H 0.19303 0.26611 0.92867 0.0
H274 H 0.23425 0.33466 0.95023 0.0
H275 H 0.21368 0.3679 0.99591 0.0
H276 H 0.07752 0.38858 0.16096 0.0
H277 H 0.03007 0.35041 0.21313 0.0
H278 H 0.07695 0.28344 0.22853 0.0
H279 H 0.12461 0.32155 0.17549 0.0
H280 H 0.98067 0.2728 0.21047 0.0
H281 H 0.07238 0.32085 0.35842 0.0
H282 H 0.08398 0.34504 0.30592 0.0
H283 H 0.08452 0.30404 0.31017 0.0
C284 C 0.07755 0.36552 0.17505 0.0
C285 C 0.10497 0.35827 0.1649 0.0
C286 C 0.05044 0.34374 0.20476 0.0
C287 C 0.05032 0.31442 0.22488 0.0
C288 C 0.07692 0.30624 0.2136 0.0
H289 H 0.8653 0.19162 0.40411 0.0
H290 H 0.9143 0.20194 0.35309 0.0
C291 C 0.10405 0.328 0.18353 0.0
C292 C 0.02308 0.29395 0.25929 0.0
H293 H 0.01086 0.28765 0.37301 0.0
C294 C 0.98715 0.27516 0.24602 0.0
C295 C 0.03192 0.29752 0.30549 0.0
C296 C 0.07023 0.31803 0.32122 0.0
C297 C 0.95961 0.26149 0.27796 0.0
C298 C 0.96845 0.26663 0.3242 0.0
C299 C 0.00437 0.28366 0.33746 0.0
C300 C 0.94107 0.25942 0.35862 0.0
C301 C 0.92132 0.24392 0.26213 0.0
C302 C 0.94069 0.28828 0.37943 0.0
C303 C 0.91282 0.2825 0.40815 0.0
C304 C 0.88494 0.24774 0.4165 0.0
C305 C 0.88628 0.21871 0.39753 0.0
C306 C 0.91416 0.22453 0.36855 0.0
H307 H 0.91925 0.24538 0.22502 0.0
H308 H 0.90715 0.21542 0.27215 0.0
H309 H 0.90736 0.25671 0.27821 0.0
H310 H 0.96129 0.3154 0.3721 0.0
H311 H 0.91251 0.30532 0.42256 0.0
H312 H 0.7346 0.13043 0.55782 0.0
H313 H 0.71866 0.07807 0.60383 0.0
H314 H 0.78482 0.0525 0.52105 0.0
H315 H 0.79979 0.10437 0.47351 0.0
H316 H 0.72405 0.99546 0.53512 0.0
H317 H 0.77223 0.06087 0.6995 0.0
H318 H 0.74216 0.07367 0.67601 0.0
H319 H 0.7836 0.08583 0.64764 0.0
C320 C 0.74612 0.11392 0.54968 0.0
C321 C 0.76862 0.12159 0.51223 0.0
C322 C 0.73722 0.08412 0.57629 0.0
C323 C 0.75131 0.06185 0.56672 0.0
C324 C 0.77391 0.06951 0.52935 0.0
H325 H 0.69335 0.88963 0.7631 0.0
H326 H 0.72984 0.94203 0.71615 0.0
C327 C 0.78239 0.09908 0.50219 0.0
C328 C 0.74015 0.02921 0.59386 0.0
H329 H 0.72526 -0.00131 0.70195 0.0
C330 C 0.72495 0.99623 0.5716 0.0
C331 C 0.74214 0.0301 0.64143 0.0
C332 C 0.76133 0.0646 0.6674 0.0
C333 C 0.7096 0.96409 0.59565 0.0
C334 C 0.70824 0.96494 0.6432 0.0
C335 C 0.72557 -0.00206 0.66548 0.0
C336 C 0.68697 0.93221 0.67025 0.0
C337 C 0.6948 0.92961 0.56969 0.0
C338 C 0.65071 0.90952 0.6604 0.0
C339 C 0.63005 0.87942 0.68665 0.0
C340 C 0.64498 0.87185 0.72406 0.0
C341 C 0.68113 0.89483 0.73446 0.0
C342 C 0.702 0.92471 0.70764 0.0
H343 H 0.70961 0.93356 0.53769 0.0
H344 H 0.69611 0.90858 0.58954 0.0
H345 H 0.66651 0.92015 0.5609 0.0
H346 H 0.63812 0.91542 0.63283 0.0
H347 H 0.60212 0.86252 0.67817 0.0
H348 H 0.60772 0.68792 0.80879 0.0
H349 H 0.64613 0.6782 0.86025 0.0
H350 H 0.71253 0.7918 0.87822 0.0
H351 H 0.67404 0.80172 0.82651 0.0
H352 H 0.72212 0.70427 0.8618 0.0
H353 H 0.67414 0.75162 1.00605 0.0
H354 H 0.6517 0.74047 0.95233 0.0
H355 H 0.69345 0.78109 0.95878 0.0
C356 C 0.63082 0.71083 0.82315 0.0
C357 C 0.63766 0.74552 0.81441 0.0
C358 C 0.65274 0.70526 0.85245 0.0
C359 C 0.68181 0.73427 0.87341 0.0
C360 C 0.68991 0.76909 0.86278 0.0
H361 H 0.80257 0.67716 0.06457 0.0
H362 H 0.79293 0.71356 0.00883 0.0
C363 C 0.66798 0.77468 0.83332 0.0
C364 C 0.70155 0.72737 0.9088 0.0
H365 H 0.70813 0.72462 0.02297 0.0
C366 C 0.71987 0.70942 0.89701 0.0
C367 C 0.69823 0.73404 0.95464 0.0
C368 C 0.6782 0.75267 0.96905 0.0
C369 C 0.73342 0.69629 0.93011 0.0
C370 C 0.72855 0.70146 0.97593 0.0
C371 C 0.71193 0.72104 0.98768 0.0
C372 C 0.73531 0.68197 0.0117 0.0
C373 C 0.75071 0.67492 0.91611 0.0
C374 C 0.7061 0.65285 0.03216 0.0
C375 C 0.71149 0.63199 0.06332 0.0
C376 C 0.74622 0.63998 0.07462 0.0
C377 C 0.77554 0.67012 0.05565 0.0
C378 C 0.77011 0.69092 0.02406 0.0
H379 H 0.75038 0.67142 0.87904 0.0
H380 H 0.77887 0.68859 0.92771 0.0
H381 H 0.73678 0.64819 0.93216 0.0
H382 H 0.67906 0.64563 0.02298 0.0
H383 H 0.68842 0.60903 0.07764 0.0
H384 H 0.15007 0.7842 0.33789 0.0
H385 H 0.09817 0.76711 0.28987 0.0
H386 H 0.03121 0.74134 0.40748 0.0
H387 H 0.08317 0.75924 0.45576 0.0
H388 H 0.04146 0.70208 0.28409 0.0
H389 H 0.99633 0.79623 0.33498 0.0
H390 H 0.03961 0.80275 0.35019 0.0
H391 H 0.00056 0.7726 0.38193 0.0
C392 C 0.12437 0.7753 0.35356 0.0
C393 C 0.12067 0.77296 0.40061 0.0
C394 C 0.09476 0.76565 0.32607 0.0
C395 C 0.06088 0.75339 0.34507 0.0
C396 C 0.05722 0.75163 0.39208 0.0
H397 H 0.84641 0.62916 0.24595 0.0
H398 H 0.9004 0.66256 0.29127 0.0
C399 C 0.08692 0.76165 0.41964 0.0
C400 C 0.02901 0.73935 0.31569 0.0
H401 H 0.95442 0.74481 0.29299 0.0
C402 C 0.0227 0.71177 0.28566 0.0
C403 C 0.00449 0.75196 0.31786 0.0
C404 C 0.01074 0.78276 0.34766 0.0
C405 C 0.99212 0.69585 0.25857 0.0
C406 C 0.9673 0.70791 0.26152 0.0
C407 C 0.97362 0.73569 0.29106 0.0
C408 C 0.93417 0.69103 0.23476 0.0
C409 C 0.98602 0.66564 0.22769 0.0
C410 C 0.93536 0.69673 0.18824 0.0
C411 C 0.90461 0.67775 0.16221 0.0
C412 C 0.87224 0.65262 0.18235 0.0
C413 C 0.87094 0.64807 0.22932 0.0
C414 C 0.90168 0.66722 0.25532 0.0
H415 H 0.00542 0.65637 0.23373 0.0
H416 H 0.95856 0.64274 0.23212 0.0
H417 H 0.98871 0.67463 0.19221 0.0
H418 H 0.9603 0.71514 0.17195 0.0
H419 H 0.90655 0.68193 0.12615 0.0
H420 H 0.32311 0.13234 0.73122 0.0
H421 H 0.28222 0.08282 0.68234 0.0
H422 H 0.34266 0.02996 0.70736 0.0
H423 H 0.38377 0.07939 0.75516 0.0
H424 H 0.30551 0.06176 0.6037 0.0
H425 H 0.23755 0.9503 0.72435 0.0
H426 H 0.25912 0.99657 0.74136 0.0
H427 H 0.28503 0.97502 0.7325 0.0
C428 C 0.32746 0.11001 0.72635 0.0
C429 C 0.35682 0.10982 0.7463 0.0
C430 C 0.30402 0.08174 0.69876 0.0
C431 C 0.30923 0.05262 0.69178 0.0
C432 C 0.33781 0.0519 0.71305 0.0
H433 H 0.30211 0.91632 0.49614 0.0
H434 H 0.3106 0.96545 0.54461 0.0
C435 C 0.36138 0.08023 0.74013 0.0
C436 C 0.28743 0.0245 0.65889 0.0
H437 H 0.24157 0.93406 0.6474 0.0
C438 C 0.29066 0.03385 0.61324 0.0
C439 C 0.26771 0.98821 0.67148 0.0
C440 C 0.2618 0.97691 0.72016 0.0
C441 C 0.27738 0.00761 0.57965 0.0
C442 C 0.26077 0.97133 0.59224 0.0
C443 C 0.25467 0.96197 0.63788 0.0
C444 C 0.25441 0.94325 0.55931 0.0
C445 C 0.2828 0.0189 0.53096 0.0
C446 C 0.21996 0.91448 0.55165 0.0
C447 C 0.21502 0.88639 0.52363 0.0
C448 C 0.24458 0.88642 0.50394 0.0
C449 C 0.27888 0.91562 0.51096 0.0
C450 C 0.28374 0.94377 0.53843 0.0
H451 H 0.2855 0.04564 0.52677 0.0
H452 H 0.30772 0.02042 0.51851 0.0
H453 H 0.26027 -0.00062 0.50986 0.0
H454 H 0.19705 0.91359 0.56775 0.0
H455 H 0.18825 0.86441 0.51806 0.0
H456 H 0.25631 0.45303 0.82753 0.0
H457 H 0.25705 0.44424 0.7462 0.0
H458 H 0.14493 0.41026 0.73908 0.0
H459 H 0.14389 0.41883 0.82025 0.0
H460 H 0.21745 0.38304 0.69357 0.0
H461 H 0.18883 0.49009 0.64539 0.0
H462 H 0.20242 0.48608 0.7015 0.0
H463 H 0.15699 0.45784 0.68375 0.0
C464 C 0.23173 0.4434 0.80872 0.0
C465 C 0.2001 0.43693 0.83035 0.0
C466 C 0.23225 0.43856 0.76222 0.0
C467 C 0.20122 0.42728 0.73647 0.0
C468 C 0.1694 0.41987 0.75811 0.0
H469 H 0.14714 0.38213 0.45364 0.0
H470 H 0.1472 0.39075 0.53508 0.0
C471 C 0.16886 0.42476 0.80453 0.0
C472 C 0.20201 0.42299 0.68701 0.0
H473 H 0.18744 0.45221 0.58674 0.0
C474 C 0.21108 0.39828 0.67017 0.0
C475 C 0.19365 0.4429 0.65657 0.0
C476 C 0.18524 0.47096 0.67259 0.0
C477 C 0.2113 0.39238 0.62371 0.0
C478 C 0.20281 0.4122 0.59329 0.0
C479 C 0.19384 0.43699 0.61013 0.0
C480 C 0.20311 0.40763 0.54382 0.0
C481 C 0.21978 0.36437 0.60767 0.0
C482 C 0.23468 0.41496 0.52158 0.0
C483 C 0.23477 0.41019 0.47507 0.0
C484 C 0.20331 0.39822 0.44975 0.0
C485 C 0.17189 0.39167 0.47203 0.0
C486 C 0.17183 0.3964 0.5186 0.0
H487 H 0.21651 0.34542 0.63493 0.0
H488 H 0.2024 0.34906 0.57898 0.0
H489 H 0.24794 0.37757 0.59612 0.0
H490 H 0.25934 0.42452 0.5402 0.0
H491 H 0.25958 0.41615 0.45886 0.0
H492 H 0.73225 0.15393 0.11526 0.0
H493 H 0.73053 0.16129 0.03384 0.0
H494 H 0.84388 0.23517 0.0335 0.0
H495 H 0.84605 0.22718 0.11474 0.0
H496 H 0.7498 0.2229 0.98384 0.0
H497 H 0.83263 0.16306 0.93656 0.0
H498 H 0.81347 0.15798 0.99191 0.0
H499 H 0.85324 0.19864 0.9768 0.0
C500 C 0.7569 0.17147 0.09784 0.0
C501 C 0.78935 0.18975 0.12158 0.0
C502 C 0.75582 0.17582 0.05131 0.0
C503 C 0.78716 0.19832 0.02744 0.0
C504 C 0.81947 0.21713 0.05108 0.0
H505 H 0.83836 0.26482 0.74943 0.0
H506 H 0.83865 0.25543 0.83057 0.0
C507 C 0.82058 0.21286 0.09764 0.0
C508 C 0.78589 0.20245 0.97792 0.0
H509 H 0.8187 0.19157 0.87821 0.0
C510 C 0.7647 0.21587 0.96071 0.0
C511 C 0.80531 0.19322 0.94777 0.0
C512 C 0.8272 0.17711 0.96404 0.0
C513 C 0.76304 0.22107 0.91427 0.0
C514 C 0.78266 0.21207 0.88417 0.0
C515 C 0.80371 0.19849 0.90135 0.0
C516 C 0.7822 0.21715 0.83477 0.0
C517 C 0.74103 0.23701 0.89789 0.0
C518 C 0.75046 0.19831 0.81001 0.0
C519 C 0.75017 0.20369 0.76358 0.0
C520 C 0.78166 0.22803 0.74099 0.0
C521 C 0.81352 0.24633 0.76586 0.0
C522 C 0.8138 0.24084 0.8122 0.0
H523 H 0.7345 0.25006 0.92555 0.0
H524 H 0.75528 0.25695 0.87098 0.0
H525 H 0.71557 0.21556 0.88367 0.0
H526 H 0.72587 0.17945 0.82661 0.0
H527 H 0.72515 0.18929 0.74553 0.0
H528 H 0.60016 0.81507 0.49872 0.0
H529 H 0.61086 0.82358 0.41754 0.0
H530 H 0.51407 0.72419 0.39275 0.0
H531 H 0.50343 0.71512 0.47362 0.0
H532 H 0.61845 0.77842 0.35487 0.0
H533 H 0.50282 0.79538 0.31248 0.0
H534 H 0.51909 0.79901 0.3693 0.0
H535 H 0.49161 0.75589 0.34433 0.0
C536 C 0.58122 0.7949 0.47605 0.0
C537 C 0.55079 0.76449 0.49286 0.0
C538 C 0.5873 0.79992 0.42963 0.0
C539 C 0.56296 0.77481 0.39906 0.0
C540 C 0.53278 0.74432 0.41566 0.0
H541 H 0.55117 0.74999 0.10813 0.0
H542 H 0.5408 0.7432 0.18946 0.0
C543 C 0.52672 0.73923 0.46199 0.0
C544 C 0.56958 0.77992 0.34982 0.0
H545 H 0.53429 0.7889 0.2511 0.0
C546 C 0.60019 0.78095 0.33219 0.0
C547 C 0.54565 0.78308 0.32027 0.0
C548 C 0.51309 0.78362 0.33747 0.0
C549 C 0.60714 0.78428 0.2857 0.0
C550 C 0.58315 0.78734 0.25611 0.0
C551 C 0.5526 0.78644 0.27378 0.0
C552 C 0.5894 0.79171 0.20674 0.0
C553 C 0.63963 0.78359 0.26856 0.0
C554 C 0.61987 0.82151 0.18935 0.0
C555 C 0.6258 0.82556 0.14291 0.0
C556 C 0.60128 0.79996 0.11272 0.0
C557 C 0.57048 0.77036 0.13028 0.0
C558 C 0.56458 0.76635 0.17679 0.0
H559 H 0.64987 0.77184 0.29362 0.0
H560 H 0.6336 0.76812 0.23681 0.0
H561 H 0.66118 0.81128 0.26163 0.0
H562 H 0.63896 0.84187 0.21172 0.0
H563 H 0.6494 0.84908 0.13064 0.0
H564 H 0.7662 0.61811 0.78813 0.0
H565 H 0.75709 0.60897 0.70679 0.0
H566 H 0.83148 0.57017 0.70241 0.0
H567 H 0.83999 0.57828 0.78378 0.0
H568 H 0.80918 0.64038 0.63899 0.0
H569 H 0.7445 0.49275 0.63495 0.0
H570 H 0.74861 0.51717 0.68596 0.0
H571 H 0.78621 0.51467 0.66471 0.0
C572 C 0.78018 0.60708 0.76998 0.0
C573 C 0.80376 0.59884 0.7925 0.0
C574 C 0.77513 0.60212 0.72347 0.0
C575 C 0.7933 0.58851 0.69865 0.0
C576 C 0.81675 0.58016 0.721 0.0
H577 H 0.8019 0.54457 0.4144 0.0
H578 H 0.81253 0.55414 0.49553 0.0
C579 C 0.82187 0.58517 0.76745 0.0
C580 C 0.78865 0.58422 0.64915 0.0
H581 H 0.76118 0.52262 0.56463 0.0
C582 C 0.79853 0.61462 0.62271 0.0
C583 C 0.77493 0.55061 0.62801 0.0
C584 C 0.76264 0.51685 0.65481 0.0
C585 C 0.79549 0.61239 0.57562 0.0
C586 C 0.78164 0.57876 0.5545 0.0
C587 C 0.77189 0.54838 0.58091 0.0
C588 C 0.77628 0.57437 0.50511 0.0
C589 C 0.80775 0.64612 0.5488 0.0
C590 C 0.75231 0.58249 0.48367 0.0
C591 C 0.74629 0.57718 0.43738 0.0
C592 C 0.764 0.56348 0.41159 0.0
C593 C 0.78818 0.55557 0.43317 0.0
C594 C 0.79411 0.5608 0.47954 0.0
H595 H 0.82612 0.67021 0.56853 0.0
H596 H 0.8215 0.64568 0.51745 0.0
H597 H 0.78419 0.64844 0.53924 0.0
H598 H 0.73785 0.59246 0.50286 0.0
H599 H 0.72773 0.58382 0.42176 0.0
H600 H 0.14829 0.80406 0.8112 0.0
H601 H 0.15828 0.80379 0.89211 0.0
H602 H 0.23902 0.77526 0.8671 0.0
H603 H 0.22897 0.77509 0.78603 0.0
H604 H 0.15116 0.74726 0.94575 0.0
H605 H 0.28977 0.8618 0.95088 0.0
H606 H 0.2608 0.85276 0.90298 0.0
H607 H 0.28286 0.82739 0.91159 0.0
C608 C 0.16807 0.79754 0.82283 0.0
C609 C 0.18782 0.78959 0.79197 0.0
C610 C 0.17385 0.79757 0.86913 0.0
C611 C 0.19968 0.78993 0.88566 0.0
C612 C 0.21946 0.78195 0.85508 0.0
H613 H 0.27113 0.77382 0.15325 0.0
H614 H 0.26099 0.77352 0.07228 0.0
C615 C 0.21369 0.78189 0.80871 0.0
C616 C 0.2052 0.78945 0.93495 0.0
H617 H 0.26729 0.82875 0.01829 0.0
C618 C 0.1765 0.76516 0.96167 0.0
C619 C 0.2383 0.81279 0.95564 0.0
C620 C 0.26965 0.8404 0.92895 0.0
C621 C 0.18017 0.76316 0.00841 0.0
C622 C 0.21325 0.78654 0.02912 0.0
C623 C 0.24195 0.81082 1.00238 0.0
C624 C 0.21875 0.78623 0.07846 0.0
C625 C 0.14883 0.73546 0.03504 0.0
C626 C 0.19856 0.79375 0.10892 0.0
C627 C 0.20437 0.79407 0.15531 0.0
C628 C 0.23073 0.78717 0.17218 0.0
C629 C 0.25094 0.77971 0.14147 0.0
C630 C 0.24507 0.77936 0.09515 0.0
H631 H 0.12899 0.71384 0.0131 0.0
H632 H 0.15771 0.72341 0.06137 0.0
H633 H 0.13524 0.74829 0.05189 0.0
H634 H 0.17864 0.79991 0.09679 0.0
H635 H 0.18873 0.80047 0.1779 0.0
H636 H 0.35674 0.21917 0.43615 0.0
H637 H 0.36665 0.21995 0.35513 0.0
H638 H 0.4533 0.19968 0.37859 0.0
H639 H 0.4427 0.19747 0.4597 0.0
H640 H 0.42663 0.26379 0.30505 0.0
H641 H 0.39226 0.12253 0.2878 0.0
H642 H 0.3819 0.13935 0.3377 0.0
H643 H 0.4264 0.14729 0.32867 0.0
C644 C 0.3776 0.21436 0.42414 0.0
C645 C 0.39868 0.20789 0.45457 0.0
C646 C 0.38341 0.21511 0.37777 0.0
C647 C 0.41032 0.2093 0.36071 0.0
C648 C 0.43189 0.20351 0.39092 0.0
H649 H 0.48703 0.20346 0.09309 0.0
H650 H 0.47747 0.20382 0.17405 0.0
C651 C 0.42607 0.20269 0.43736 0.0
C652 C 0.41606 0.20984 0.31134 0.0
H653 H 0.41685 0.15931 0.22352 0.0
C654 C 0.42436 0.24091 0.28717 0.0
C655 C 0.41303 0.17994 0.28804 0.0
C656 C 0.40259 0.14526 0.31174 0.0
C657 C 0.43039 0.24314 0.2405 0.0
C658 C 0.42747 0.21328 0.21725 0.0
C659 C 0.41912 0.18219 0.2414 0.0
C660 C 0.43338 0.21379 0.16793 0.0
C661 C 0.44066 0.27773 0.21669 0.0
C662 C 0.41156 0.21897 0.13747 0.0
C663 C 0.41714 0.21907 0.09105 0.0
C664 C 0.44457 0.21381 0.07414 0.0
C665 C 0.4661 0.20826 0.10485 0.0
C666 C 0.46051 0.20818 0.15119 0.0
H667 H 0.4506 0.30046 0.24058 0.0
H668 H 0.46159 0.28382 0.191 0.0
H669 H 0.41687 0.27541 0.19935 0.0
H670 H 0.39002 0.22268 0.14959 0.0
H671 H 0.40017 0.22361 0.06843 0.0
H672 H 0.17459 0.51823 0.16742 0.0
H673 H 0.16878 0.56049 0.21637 0.0
H674 H 0.19137 0.51496 0.33219 0.0
H675 H 0.19599 0.47195 0.2838 0.0
H676 H 0.13818 0.52751 0.34942 0.0
H677 H 0.25058 0.64769 0.27155 0.0
H678 H 0.21598 0.62063 0.23234 0.0
H679 H 0.24151 0.60322 0.25884 0.0
C680 C 0.17831 0.51724 0.20332 0.0
C681 C 0.18601 0.49192 0.22169 0.0
C682 C 0.17518 0.54153 0.23122 0.0
C683 C 0.18041 0.5414 0.27784 0.0
C684 C 0.18737 0.51566 0.2963 0.0
H685 H 0.23573 0.71474 0.46224 0.0
H686 H 0.23336 0.66845 0.41283 0.0
C687 C 0.19003 0.49109 0.26854 0.0
C688 C 0.17888 0.5681 0.3076 0.0
H689 H 0.21653 0.65753 0.32606 0.0
C690 C 0.15532 0.55596 0.34437 0.0
C691 C 0.20159 0.6052 0.30126 0.0
C692 C 0.22909 0.62001 0.26415 0.0
C693 C 0.15396 0.57987 0.37511 0.0
C694 C 0.17607 0.61696 0.36813 0.0
C695 C 0.19943 0.62908 0.33119 0.0
C696 C 0.17665 0.64381 0.39962 0.0
C697 C 0.12973 0.56509 0.4155 0.0
C698 C 0.14554 0.6453 0.40875 0.0
C699 C 0.14679 0.67146 0.43754 0.0
C700 C 0.17929 0.69689 0.45681 0.0
C701 C 0.21034 0.69539 0.44771 0.0
C702 C 0.20902 0.66904 0.41944 0.0
H703 H 0.12245 0.53705 0.42249 0.0
H704 H 0.14249 0.58131 0.44601 0.0
H705 H 0.1047 0.56553 0.40891 0.0
H706 H 0.12045 0.62668 0.39299 0.0
H707 H 0.12257 0.67238 0.44374 0.0
H708 H 0.71119 0.23484 0.44599 0.0
H709 H 0.66499 0.23047 0.49731 0.0
H710 H 0.62503 0.11764 0.51245 0.0
H711 H 0.67098 0.12182 0.46015 0.0
H712 H 0.57124 0.13339 0.50347 0.0
H713 H 0.66788 0.21981 0.63277 0.0
H714 H 0.67713 0.24117 0.57882 0.0
H715 H 0.68043 0.20166 0.58618 0.0
C716 C 0.69237 0.20907 0.46006 0.0
C717 C 0.69466 0.1787 0.44953 0.0
C718 C 0.66622 0.20666 0.4896 0.0
C719 C 0.6422 0.17391 0.50954 0.0
C720 C 0.64356 0.14322 0.49771 0.0
H721 H 0.51612 0.17474 0.73889 0.0
H722 H 0.55653 0.16519 0.69092 0.0
C723 C 0.66965 0.14559 0.46781 0.0
C724 C 0.61574 0.17202 0.54262 0.0
H725 H 0.6084 0.21023 0.63934 0.0
C726 C 0.57929 0.14987 0.53347 0.0
C727 C 0.62634 0.19285 0.5823 0.0
C728 C 0.66507 0.2149 0.59591 0.0
C729 C 0.55308 0.14924 0.56193 0.0
C730 C 0.56372 0.17217 0.59978 0.0
C731 C 0.6002 0.19308 0.60996 0.0
C732 C 0.53767 0.1758 0.62855 0.0
C733 C 0.51432 0.12387 0.55118 0.0
C734 C 0.51373 0.18511 0.60951 0.0
C735 C 0.49031 0.19012 0.63677 0.0
C736 C 0.49093 0.18672 0.68375 0.0
C737 C 0.51508 0.17766 0.70282 0.0
C738 C 0.53815 0.17215 0.67545 0.0
H739 H 0.51104 0.10042 0.53192 0.0
H740 H 0.4979 0.11424 0.58221 0.0
H741 H 0.50393 0.13777 0.52999 0.0
H742 H 0.51361 0.18922 0.57359 0.0
H743 H 0.47229 0.19745 0.62105 0.0
H744 H 0.27306 0.51556 0.11035 0.0
H745 H 0.32068 0.55884 0.06175 0.0
H746 H 0.37307 0.49634 0.06737 0.0
H747 H 0.32475 0.45228 0.11493 0.0
H748 H 0.39223 0.59976 0.0764 0.0
H749 H 0.3656 0.50794 0.93252 0.0
H750 H 0.33477 0.49716 0.97868 0.0
H751 H 0.37363 0.49257 0.98497 0.0
C752 C 0.29465 0.51097 0.10099 0.0
C753 C 0.29504 0.48038 0.11572 0.0
C754 C 0.32187 0.53576 0.07341 0.0
C755 C 0.35005 0.53046 0.06029 0.0
C756 C 0.35112 0.50049 0.07624 0.0
H757 H 0.54355 0.70113 0.93597 0.0
H758 H 0.5018 0.65413 0.98636 0.0
C759 C 0.32372 0.47554 0.10367 0.0
C760 C 0.37825 0.55655 0.03005 0.0
H761 H 0.4164 0.56558 0.92676 0.0
C762 C 0.39761 0.59232 0.04371 0.0
C763 C 0.38479 0.54677 0.98719 0.0
C764 C 0.36342 0.50911 0.96966 0.0
C765 C 0.42329 0.61869 0.01561 0.0
C766 C 0.43043 0.60881 0.97313 0.0
C767 C 0.41113 0.573 0.95953 0.0
C768 C 0.45656 0.63554 0.94142 0.0
C769 C 0.44157 0.65702 0.03112 0.0
C770 C 0.4454 0.63959 0.89857 0.0
C771 C 0.46933 0.66604 0.86937 0.0
C772 C 0.50484 0.68904 0.8826 0.0
C773 C 0.51625 0.68414 0.92497 0.0
C774 C 0.49238 0.65742 0.95395 0.0
H775 H 0.4264 0.66109 0.05841 0.0
H776 H 0.4684 0.66459 0.04446 0.0
H777 H 0.44494 0.67523 1.00287 0.0
H778 H 0.41791 0.62284 0.88814 0.0
H779 H 0.45968 0.66908 0.83698 0.0
H780 H 0.83041 0.28688 0.29532 0.0
H781 H 0.83847 0.33548 0.24599 0.0
H782 H 0.79296 0.37205 0.34757 0.0
H783 H 0.78552 0.32404 0.3975 0.0
H784 H 0.78821 0.34762 0.21145 0.0
H785 H 0.88178 0.4638 0.314 0.0
H786 H 0.8724 0.41907 0.32603 0.0
H787 H 0.84229 0.43383 0.34469 0.0
C788 C 0.82238 0.30542 0.30736 0.0
C789 C 0.80736 0.3016 0.35041 0.0
C790 C 0.82705 0.33322 0.27911 0.0
C791 C 0.81685 0.35774 0.29335 0.0
C792 C 0.8019 0.35402 0.33632 0.0
H793 H 0.75616 0.48351 0.13282 0.0
H794 H 0.75979 0.43811 0.17763 0.0
C795 C 0.79744 0.32638 0.36472 0.0
C796 C 0.81987 0.38592 0.26235 0.0
H797 H 0.85169 0.47546 0.25427 0.0
C798 C 0.80242 0.37562 0.22061 0.0
C799 C 0.83891 0.4225 0.27397 0.0
C800 C 0.86022 0.43552 0.31691 0.0
C801 C 0.80239 0.40076 0.19089 0.0
C802 C 0.81955 0.43705 0.20376 0.0
C803 C 0.83815 0.44755 0.24471 0.0
C804 C 0.81752 0.46436 0.17593 0.0
C805 C 0.78403 0.38816 0.14596 0.0
C806 C 0.84879 0.49466 0.16107 0.0
C807 C 0.84676 0.52094 0.13603 0.0
C808 C 0.81344 0.51736 0.12577 0.0
C809 C 0.7822 0.48698 0.14047 0.0
C810 C 0.78423 0.46086 0.16566 0.0
H811 H 0.78243 0.36275 0.13556 0.0
H812 H 0.75636 0.3833 0.1486 0.0
H813 H 0.79815 0.40838 0.11931 0.0
H814 H 0.87475 0.49797 0.16888 0.0
H815 H 0.87124 0.54418 0.12512 0.0
H816 H 0.3194 0.7827 0.51919 0.0
H817 H 0.36629 0.78861 0.57047 0.0
H818 H 0.33407 0.84119 0.66749 0.0
H819 H 0.2867 0.83474 0.61684 0.0
H820 H 0.4233 0.84622 0.60796 0.0
H821 H 0.32963 0.76061 0.74128 0.0
H822 H 0.31482 0.76366 0.68559 0.0
H823 H 0.32488 0.79817 0.72628 0.0
C824 C 0.32236 0.79562 0.55139 0.0
C825 C 0.29901 0.80777 0.56426 0.0
C826 C 0.34917 0.79898 0.58064 0.0
C827 C 0.3532 0.81468 0.62316 0.0
C828 C 0.33081 0.8281 0.63537 0.0
H829 H 0.53935 0.86852 0.79438 0.0
H830 H 0.49399 0.87312 0.74974 0.0
C831 C 0.3038 0.82446 0.60632 0.0
C832 C 0.38054 0.81648 0.6548 0.0
H833 H 0.39122 0.7886 0.75812 0.0
C834 C 0.41635 0.83376 0.64087 0.0
C835 C 0.37128 0.79984 0.69754 0.0
C836 C 0.33305 0.77923 0.7135 0.0
C837 C 0.44315 0.83457 0.66834 0.0
C838 C 0.43394 0.81833 0.71127 0.0
C839 C 0.39821 0.80138 0.72539 0.0
C840 C 0.46046 0.81614 0.74057 0.0
C841 C 0.48083 0.85157 0.6505 0.0
C842 C 0.45589 0.78261 0.75153 0.0
C843 C 0.48142 0.77997 0.77727 0.0
C844 C 0.51202 0.8108 0.79241 0.0
C845 C 0.51605 0.84437 0.78284 0.0
C846 C 0.49036 0.84702 0.7571 0.0
H847 H 0.48192 0.85589 0.61354 0.0
H848 H 0.49731 0.87788 0.66688 0.0
H849 H 0.49294 0.83481 0.6582 0.0
H850 H 0.43292 0.75846 0.73931 0.0
H851 H 0.47753 0.75374 0.78456 0.0
H852 H 0.65572 0.48076 0.07485 0.0
H853 H 0.60783 0.43813 0.02596 0.0
H854 H 0.67636 0.48307 0.91031 0.0
H855 H 0.72379 0.5265 0.9586 0.0
H856 H 0.61078 0.47016 0.89219 0.0
H857 H 0.60261 0.35064 0.97247 0.0
H858 H 0.59478 0.37791 0.01095 0.0
H859 H 0.63793 0.39522 0.98498 0.0
C860 C 0.66056 0.48155 0.039 0.0
C861 C 0.69364 0.50681 0.02066 0.0
C862 C 0.63324 0.45704 0.01113 0.0
C863 C 0.63877 0.45688 0.96459 0.0
C864 C 0.67152 0.48258 0.94615 0.0
H865 H 0.52144 0.28175 0.78217 0.0
H866 H 0.56528 0.3286 0.83113 0.0
C867 C 0.69864 0.50739 0.97385 0.0
C868 C 0.61068 0.42992 0.93489 0.0
H869 H 0.559 0.34034 0.91735 0.0
C870 C 0.59946 0.44175 0.89763 0.0
C871 C 0.59627 0.39287 0.94174 0.0
C872 C 0.60874 0.37835 0.97942 0.0
C873 C 0.57439 0.4176 0.86689 0.0
C874 C 0.55937 0.38057 0.87437 0.0
C875 C 0.57039 0.36875 0.91181 0.0
C876 C 0.53326 0.35347 0.84297 0.0
C877 C 0.56519 0.43207 0.82598 0.0
C878 C 0.50074 0.35195 0.83317 0.0
C879 C 0.47591 0.3255 0.8046 0.0
C880 C 0.48296 0.29978 0.78626 0.0
C881 C 0.51545 0.30134 0.79597 0.0
C882 C 0.54041 0.32799 0.824 0.0
H883 H 0.58606 0.46004 0.81875 0.0
H884 H 0.56183 0.41558 0.79578 0.0
H885 H 0.53973 0.43176 0.83211 0.0
H886 H 0.49424 0.37075 0.84829 0.0
H887 H 0.45081 0.32453 0.79795 0.0
loop_
_geom_bond_atom_site_label_1
_geom_bond_atom_site_label_2
_geom_bond_distance
_geom_bond_site_symmetry_2
_ccdc_geom_bond_type
Ho0 C3 2.811 . S
Ho0 O20 2.322 . S
Ho0 O22 2.378 . S
Ho0 O23 2.524 . S
Ho0 O24 2.381 . S
Ho0 O25 2.669 . S
Ho0 O27 2.346 . S
Ho0 O31 2.305 . S
Ho1 C12 2.811 . S
Ho1 O21 2.346 . S
Ho1 O25 2.305 . S
Ho1 O26 2.322 . S
Ho1 O28 2.378 . S
Ho1 O29 2.524 . S
Ho1 O30 2.381 . S
Ho1 O31 2.669 . S
C2 O20 1.259 . S
C2 O21 1.268 . S
C3 Ho0 2.811 . S
C3 C4 1.488 . S
C3 O22 1.215 . S
C3 O23 1.289 . S
C4 C3 1.488 . S
C4 C5 1.348 1_554 S
C4 C9 1.413 1_554 S
C5 C4 1.348 1_556 S
C5 C6 1.442 . S
C5 H32 0.930 . S
C6 C5 1.442 . S
C6 C7 1.381 . S
C6 H33 0.931 . S
C7 C6 1.381 . S
C7 C8 1.321 . S
C8 C7 1.321 . S
C8 C9 1.403 . S
C8 H34 0.934 . S
C9 C4 1.413 1_556 S
C9 C8 1.403 . S
C9 H35 0.930 1_556 S
C10 O24 1.275 . S
C10 O25 1.256 . S
C11 O26 1.259 . S
C11 O27 1.268 . S
C12 Ho1 2.811 . S
C12 C13 1.488 . S
C12 O28 1.215 . S
C12 O29 1.289 . S
C13 C12 1.488 . S
C13 C14 1.348 . S
C13 C18 1.413 . S
C14 C13 1.348 . S
C14 C15 1.442 . S
C14 H36 0.930 . S
C15 C14 1.442 . S
C15 C16 1.381 . S
C15 H37 0.931 . S
C16 C15 1.381 . S
C16 C17 1.321 . S
C17 C16 1.321 . S
C17 C18 1.403 . S
C17 H38 0.934 . S
C18 C13 1.413 . S
C18 C17 1.403 . S
C18 H39 0.930 . S
C19 O30 1.275 . S
C19 O31 1.256 . S
O20 Ho0 2.322 . S
O20 C2 1.259 . S
O21 Ho1 2.346 . S
O21 C2 1.268 . S
O22 Ho0 2.378 . S
O22 C3 1.215 . S
O23 Ho0 2.524 . S
O23 C3 1.289 . S
O24 Ho0 2.381 . S
O24 C10 1.275 . S
O25 Ho0 2.669 . S
O25 Ho1 2.305 . S
O25 C10 1.256 . S
O26 Ho1 2.322 . S
O26 C11 1.259 . S
O27 Ho0 2.346 . S
O27 C11 1.268 . S
O28 Ho1 2.378 . S
O28 C12 1.215 . S
O29 Ho1 2.524 . S
O29 C12 1.289 . S
O30 Ho1 2.381 . S
O30 C19 1.275 . S
O31 Ho0 2.305 . S
O31 Ho1 2.669 . S
O31 C19 1.256 . S
H32 C5 0.930 . S
H33 C6 0.931 . S
H34 C8 0.934 . S
H35 C9 0.930 1_554 S
H36 C14 0.930 . S
H37 C15 0.931 . S
H38 C17 0.934 . S
H39 C18 0.930 . S
Ho40 C43 2.811 . S
Ho40 O60 2.322 . S
Ho40 O62 2.378 . S
Ho40 O63 2.524 . S
Ho40 O64 2.381 . S
Ho40 O65 2.669 . S
Ho40 O67 2.346 . S
Ho40 O71 2.305 . S
Ho41 C52 2.811 . S
Ho41 O61 2.346 . S
Ho41 O65 2.305 . S
Ho41 O66 2.322 . S
Ho41 O68 2.378 . S
Ho41 O69 2.524 . S
Ho41 O70 2.381 . S
Ho41 O71 2.669 . S
C42 O60 1.259 . S
C42 O61 1.268 . S
C43 Ho40 2.811 . S
C43 C44 1.488 . S
C43 O62 1.215 . S
C43 O63 1.289 . S
C44 C43 1.488 . S
C44 C45 1.348 . S
C44 C49 1.413 . S
C45 C44 1.348 . S
C45 C46 1.442 . S
C45 H72 0.930 . S
C46 C45 1.442 . S
C46 C47 1.381 . S
C46 H73 0.931 . S
C47 C46 1.381 . S
C47 C48 1.321 . S
C48 C47 1.321 . S
C48 C49 1.403 . S
C48 H74 0.934 . S
C49 C44 1.413 . S
C49 C48 1.403 . S
C49 H75 0.930 . S
C50 O64 1.275 . S
C50 O65 1.256 . S
C51 O66 1.259 . S
C51 O67 1.268 . S
C52 Ho41 2.811 . S
C52 C53 1.488 . S
C52 O68 1.215 . S
C52 O69 1.289 . S
C53 C52 1.488 . S
C53 C54 1.348 . S
C53 C58 1.413 . S
C54 C53 1.348 . S
C54 C55 1.442 . S
C54 H76 0.930 . S
C55 C54 1.442 . S
C55 C56 1.381 . S
C55 H77 0.931 . S
C56 C55 1.381 . S
C56 C57 1.321 . S
C57 C56 1.321 . S
C57 C58 1.403 . S
C57 H78 0.934 . S
C58 C53 1.413 . S
C58 C57 1.403 . S
C58 H79 0.930 . S
C59 O70 1.275 . S
C59 O71 1.256 . S
O60 Ho40 2.322 . S
O60 C42 1.259 . S
O61 Ho41 2.346 . S
O61 C42 1.268 . S
O62 Ho40 2.378 . S
O62 C43 1.215 . S
O63 Ho40 2.524 . S
O63 C43 1.289 . S
O64 Ho40 2.381 . S
O64 C50 1.275 . S
O65 Ho40 2.669 . S
O65 Ho41 2.305 . S
O65 C50 1.256 . S
O66 Ho41 2.322 . S
O66 C51 1.259 . S
O67 Ho40 2.346 . S
O67 C51 1.268 . S
O68 Ho41 2.378 . S
O68 C52 1.215 . S
O69 Ho41 2.524 . S
O69 C52 1.289 . S
O70 Ho41 2.381 . S
O70 C59 1.275 . S
O71 Ho40 2.305 . S
O71 Ho41 2.669 . S
O71 C59 1.256 . S
H72 C45 0.930 . S
H73 C46 0.931 . S
H74 C48 0.934 . S
H75 C49 0.930 . S
H76 C54 0.930 . S
H77 C55 0.931 . S
H78 C57 0.934 . S
H79 C58 0.930 . S
Ho80 C83 2.811 . S
Ho80 O100 2.322 . S
Ho80 O102 2.378 . S
Ho80 O103 2.524 . S
Ho80 O104 2.381 . S
Ho80 O105 2.669 . S
Ho80 O107 2.346 . S
Ho80 O111 2.305 . S
Ho81 C92 2.811 1_556 S
Ho81 O101 2.346 . S
Ho81 O105 2.305 . S
Ho81 O106 2.322 . S
Ho81 O108 2.378 . S
Ho81 O109 2.524 . S
Ho81 O110 2.381 . S
Ho81 O111 2.669 . S
C82 O100 1.259 . S
C82 O101 1.268 . S
C83 Ho80 2.811 . S
C83 C84 1.488 . S
C83 O102 1.215 . S
C83 O103 1.289 . S
C84 C83 1.488 . S
C84 C85 1.348 . S
C84 C89 1.413 . S
C85 C84 1.348 . S
C85 C86 1.442 . S
C85 H112 0.930 . S
C86 C85 1.442 . S
C86 C87 1.381 . S
C86 H113 0.931 . S
C87 C86 1.381 . S
C87 C88 1.321 . S
C88 C87 1.321 . S
C88 C89 1.403 . S
C88 H114 0.934 . S
C89 C84 1.413 . S
C89 C88 1.403 . S
C89 H115 0.930 . S
C90 O104 1.275 . S
C90 O105 1.256 . S
C91 O106 1.259 . S
C91 O107 1.268 . S
C92 Ho81 2.811 1_554 S
C92 C93 1.488 . S
C92 O108 1.215 1_554 S
C92 O109 1.289 1_554 S
C93 C92 1.488 . S
C93 C94 1.348 . S
C93 C98 1.413 . S
C94 C93 1.348 . S
C94 C95 1.442 . S
C94 H116 0.930 . S
C95 C94 1.442 . S
C95 C96 1.381 . S
C95 H117 0.931 . S
C96 C95 1.381 . S
C96 C97 1.321 . S
C97 C96 1.321 . S
C97 C98 1.403 . S
C97 H118 0.934 . S
C98 C93 1.413 . S
C98 C97 1.403 . S
C98 H119 0.930 . S
C99 O110 1.275 . S
C99 O111 1.256 . S
O100 Ho80 2.322 . S
O100 C82 1.259 . S
O101 Ho81 2.346 . S
O101 C82 1.268 . S
O102 Ho80 2.378 . S
O102 C83 1.215 . S
O103 Ho80 2.524 . S
O103 C83 1.289 . S
O104 Ho80 2.381 . S
O104 C90 1.275 . S
O105 Ho80 2.669 . S
O105 Ho81 2.305 . S
O105 C90 1.256 . S
O106 Ho81 2.322 . S
O106 C91 1.259 . S
O107 Ho80 2.346 . S
O107 C91 1.268 . S
O108 Ho81 2.378 . S
O108 C92 1.215 1_556 S
O109 Ho81 2.524 . S
O109 C92 1.289 1_556 S
O110 Ho81 2.381 . S
O110 C99 1.275 . S
O111 Ho80 2.305 . S
O111 Ho81 2.669 . S
O111 C99 1.256 . S
H112 C85 0.930 . S
H113 C86 0.931 . S
H114 C88 0.934 . S
H115 C89 0.930 . S
H116 C94 0.930 . S
H117 C95 0.931 . S
H118 C97 0.934 . S
H119 C98 0.930 . S
Ho120 C123 2.811 . S
Ho120 O140 2.322 . S
Ho120 O142 2.378 . S
Ho120 O143 2.524 . S
Ho120 O144 2.381 . S
Ho120 O145 2.669 . S
Ho120 O147 2.346 . S
Ho120 O151 2.305 . S
Ho121 C132 2.811 . S
Ho121 O141 2.346 1_556 S
Ho121 O145 2.305 1_556 S
Ho121 O146 2.322 . S
Ho121 O148 2.378 . S
Ho121 O149 2.524 . S
Ho121 O150 2.381 1_556 S
Ho121 O151 2.669 1_556 S
C122 O140 1.259 . S
C122 O141 1.268 . S
C123 Ho120 2.811 . S
C123 C124 1.488 . S
C123 O142 1.215 . S
C123 O143 1.289 . S
C124 C123 1.488 . S
C124 C125 1.348 . S
C124 C129 1.413 . S
C125 C124 1.348 . S
C125 C126 1.442 . S
C125 H152 0.930 . S
C126 C125 1.442 . S
C126 C127 1.381 . S
C126 H153 0.931 . S
C127 C126 1.381 . S
C127 C128 1.321 . S
C128 C127 1.321 . S
C128 C129 1.403 . S
C128 H154 0.934 . S
C129 C124 1.413 . S
C129 C128 1.403 . S
C129 H155 0.930 . S
C130 O144 1.275 . S
C130 O145 1.256 . S
C131 O146 1.259 . S
C131 O147 1.268 1_556 S
C132 Ho121 2.811 . S
C132 C133 1.488 . S
C132 O148 1.215 . S
C132 O149 1.289 . S
C133 C132 1.488 . S
C133 C134 1.348 . S
C133 C138 1.413 . S
C134 C133 1.348 . S
C134 C135 1.442 . S
C134 H156 0.930 . S
C135 C134 1.442 . S
C135 C136 1.381 . S
C135 H157 0.931 . S
C136 C135 1.381 . S
C136 C137 1.321 . S
C137 C136 1.321 . S
C137 C138 1.403 . S
C137 H158 0.934 . S
C138 C133 1.413 . S
C138 C137 1.403 . S
C138 H159 0.930 . S
C139 O150 1.275 . S
C139 O151 1.256 . S
O140 Ho120 2.322 . S
O140 C122 1.259 . S
O141 Ho121 2.346 1_554 S
O141 C122 1.268 . S
O142 Ho120 2.378 . S
O142 C123 1.215 . S
O143 Ho120 2.524 . S
O143 C123 1.289 . S
O144 Ho120 2.381 . S
O144 C130 1.275 . S
O145 Ho120 2.669 . S
O145 Ho121 2.305 1_554 S
O145 C130 1.256 . S
O146 Ho121 2.322 . S
O146 C131 1.259 . S
O147 Ho120 2.346 . S
O147 C131 1.268 1_554 S
O148 Ho121 2.378 . S
O148 C132 1.215 . S
O149 Ho121 2.524 . S
O149 C132 1.289 . S
O150 Ho121 2.381 1_554 S
O150 C139 1.275 . S
O151 Ho120 2.305 . S
O151 Ho121 2.669 1_554 S
O151 C139 1.256 . S
H152 C125 0.930 . S
H153 C126 0.931 . S
H154 C128 0.934 . S
H155 C129 0.930 . S
H156 C134 0.930 . S
H157 C135 0.931 . S
H158 C137 0.934 . S
H159 C138 0.930 . S
Ho160 C163 2.811 . S
Ho160 O180 2.322 . S
Ho160 O182 2.378 . S
Ho160 O183 2.524 . S
Ho160 O184 2.381 . S
Ho160 O185 2.669 . S
Ho160 O187 2.346 . S
Ho160 O191 2.305 . S
Ho161 C172 2.811 . S
Ho161 O181 2.346 . S
Ho161 O185 2.305 . S
Ho161 O186 2.322 . S
Ho161 O188 2.378 . S
Ho161 O189 2.524 . S
Ho161 O190 2.381 . S
Ho161 O191 2.669 . S
C162 O180 1.259 . S
C162 O181 1.268 . S
C163 Ho160 2.811 . S
C163 C164 1.488 . S
C163 O182 1.215 . S
C163 O183 1.289 . S
C164 C163 1.488 . S
C164 C165 1.348 . S
C164 C169 1.413 . S
C165 C164 1.348 . S
C165 C166 1.442 . S
C165 H192 0.930 . S
C166 C165 1.442 . S
C166 C167 1.381 . S
C166 H193 0.931 . S
C167 C166 1.381 . S
C167 C168 1.321 . S
C168 C167 1.321 . S
C168 C169 1.403 . S
C168 H194 0.934 . S
C169 C164 1.413 . S
C169 C168 1.403 . S
C169 H195 0.930 . S
C170 O184 1.275 . S
C170 O185 1.256 . S
C171 O186 1.259 . S
C171 O187 1.268 . S
C172 Ho161 2.811 . S
C172 C173 1.488 . S
C172 O188 1.215 . S
C172 O189 1.289 . S
C173 C172 1.488 . S
C173 C174 1.348 . S
C173 C178 1.413 . S
C174 C173 1.348 . S
C174 C175 1.442 . S
C174 H196 0.930 . S
C175 C174 1.442 . S
C175 C176 1.381 . S
C175 H197 0.931 . S
C176 C175 1.381 . S
C176 C177 1.321 . S
C177 C176 1.321 . S
C177 C178 1.403 . S
C177 H198 0.934 . S
C178 C173 1.413 . S
C178 C177 1.403 . S
C178 H199 0.930 . S
C179 O190 1.275 . S
C179 O191 1.256 . S
O180 Ho160 2.322 . S
O180 C162 1.259 . S
O181 Ho161 2.346 . S
O181 C162 1.268 . S
O182 Ho160 2.378 . S
O182 C163 1.215 . S
O183 Ho160 2.524 . S
O183 C163 1.289 . S
O184 Ho160 2.381 . S
O184 C170 1.275 . S
O185 Ho160 2.669 . S
O185 Ho161 2.305 . S
O185 C170 1.256 . S
O186 Ho161 2.322 . S
O186 C171 1.259 . S
O187 Ho160 2.346 . S
O187 C171 1.268 . S
O188 Ho161 2.378 . S
O188 C172 1.215 . S
O189 Ho161 2.524 . S
O189 C172 1.289 . S
O190 Ho161 2.381 . S
O190 C179 1.275 . S
O191 Ho160 2.305 . S
O191 Ho161 2.669 . S
O191 C179 1.256 . S
H192 C165 0.930 . S
H193 C166 0.931 . S
H194 C168 0.934 . S
H195 C169 0.930 . S
H196 C174 0.930 . S
H197 C175 0.931 . S
H198 C177 0.934 . S
H199 C178 0.930 . S
Ho200 C203 2.811 . S
Ho200 O220 2.322 . S
Ho200 O222 2.378 . S
Ho200 O223 2.524 . S
Ho200 O224 2.381 . S
Ho200 O225 2.669 . S
Ho200 O227 2.346 . S
Ho200 O231 2.305 . S
Ho201 C212 2.811 . S
Ho201 O221 2.346 . S
Ho201 O225 2.305 . S
Ho201 O226 2.322 . S
Ho201 O228 2.378 . S
Ho201 O229 2.524 . S
Ho201 O230 2.381 . S
Ho201 O231 2.669 . S
C202 O220 1.259 . S
C202 O221 1.268 . S
C203 Ho200 2.811 . S
C203 C204 1.488 . S
C203 O222 1.215 . S
C203 O223 1.289 . S
C204 C203 1.488 . S
C204 C205 1.348 . S
C204 C209 1.413 . S
C205 C204 1.348 . S
C205 C206 1.442 . S
C205 H232 0.930 . S
C206 C205 1.442 . S
C206 C207 1.381 . S
C206 H233 0.931 . S
C207 C206 1.381 . S
C207 C208 1.321 . S
C208 C207 1.321 . S
C208 C209 1.403 . S
C208 H234 0.934 . S
C209 C204 1.413 . S
C209 C208 1.403 . S
C209 H235 0.930 . S
C210 O224 1.275 . S
C210 O225 1.256 . S
C211 O226 1.259 . S
C211 O227 1.268 . S
C212 Ho201 2.811 . S
C212 C213 1.488 . S
C212 O228 1.215 . S
C212 O229 1.289 . S
C213 C212 1.488 . S
C213 C214 1.348 . S
C213 C218 1.413 . S
C214 C213 1.348 . S
C214 C215 1.442 . S
C214 H236 0.930 . S
C215 C214 1.442 . S
C215 C216 1.381 . S
C215 H237 0.931 . S
C216 C215 1.381 . S
C216 C217 1.321 . S
C217 C216 1.321 . S
C217 C218 1.403 . S
C217 H238 0.934 . S
C218 C213 1.413 . S
C218 C217 1.403 . S
C218 H239 0.930 . S
C219 O230 1.275 . S
C219 O231 1.256 . S
O220 Ho200 2.322 . S
O220 C202 1.259 . S
O221 Ho201 2.346 . S
O221 C202 1.268 . S
O222 Ho200 2.378 . S
O222 C203 1.215 . S
O223 Ho200 2.524 . S
O223 C203 1.289 . S
O224 Ho200 2.381 . S
O224 C210 1.275 . S
O225 Ho200 2.669 . S
O225 Ho201 2.305 . S
O225 C210 1.256 . S
O226 Ho201 2.322 . S
O226 C211 1.259 . S
O227 Ho200 2.346 . S
O227 C211 1.268 . S
O228 Ho201 2.378 . S
O228 C212 1.215 . S
O229 Ho201 2.524 . S
O229 C212 1.289 . S
O230 Ho201 2.381 . S
O230 C219 1.275 . S
O231 Ho200 2.305 . S
O231 Ho201 2.669 . S
O231 C219 1.256 . S
H232 C205 0.930 . S
H233 C206 0.931 . S
H234 C208 0.934 . S
H235 C209 0.930 . S
H236 C214 0.930 . S
H237 C215 0.931 . S
H238 C217 0.934 . S
H239 C218 0.930 . S
H240 C248 0.929 . S
H241 C250 0.930 . S
H242 C252 0.930 . S
H243 C255 0.929 . S
H244 C258 0.930 . S
H245 C260 0.960 . S
H246 C260 0.960 . S
H247 C260 0.960 . S
C248 H240 0.929 . S
C248 C249 1.377 . S
C248 C250 1.384 . S
C249 C248 1.377 . S
C249 C255 1.390 . S
C250 H241 0.930 . S
C250 C248 1.384 . S
C250 C251 1.372 . S
C251 C250 1.372 . S
C251 C252 1.400 . S
C251 C256 1.490 . S
C252 H242 0.930 . S
C252 C251 1.400 . S
C252 C255 1.386 . S
H253 C269 0.930 . S
H254 C270 0.931 . S
C255 H243 0.929 . S
C255 C249 1.390 . S
C255 C252 1.386 . S
C256 C251 1.490 . S
C256 C258 1.395 . S
C256 C259 1.403 . S
H257 C263 0.930 1_554 S
C258 H244 0.930 . S
C258 C256 1.395 . S
C258 C261 1.403 . S
C259 C256 1.403 . S
C259 C260 1.524 . S
C259 C263 1.400 . S
C260 H245 0.960 . S
C260 H246 0.960 . S
C260 H247 0.960 . S
C260 C259 1.524 . S
C261 C258 1.403 . S
C261 C262 1.392 . S
C261 C265 1.495 . S
C262 C261 1.392 . S
C262 C263 1.385 . S
C262 C264 1.478 1_556 S
C263 H257 0.930 1_556 S
C263 C259 1.400 . S
C263 C262 1.385 . S
C264 C262 1.478 1_554 S
C264 C266 1.381 . S
C264 C270 1.383 . S
C265 C261 1.495 . S
C265 H271 0.959 . S
C265 H272 0.961 . S
C265 H273 0.960 . S
C266 C264 1.381 . S
C266 C267 1.394 . S
C266 H274 0.930 . S
C267 C266 1.394 . S
C267 C268 1.383 . S
C267 H275 0.929 . S
C268 C267 1.383 . S
C268 C269 1.377 . S
C269 H253 0.930 . S
C269 C268 1.377 . S
C269 C270 1.379 . S
C270 H254 0.931 . S
C270 C264 1.383 . S
C270 C269 1.379 . S
H271 C265 0.959 . S
H272 C265 0.961 . S
H273 C265 0.960 . S
H274 C266 0.930 . S
H275 C267 0.929 . S
H276 C284 0.929 . S
H277 C286 0.930 . S
H278 C288 0.930 . S
H279 C291 0.929 . S
H280 C294 0.930 . S
H281 C296 0.960 . S
H282 C296 0.960 . S
H283 C296 0.960 . S
C284 H276 0.929 . S
C284 C285 1.377 . S
C284 C286 1.384 . S
C285 C284 1.377 . S
C285 C291 1.390 . S
C286 H277 0.930 . S
C286 C284 1.384 . S
C286 C287 1.372 . S
C287 C286 1.372 . S
C287 C288 1.400 . S
C287 C292 1.490 . S
C288 H278 0.930 . S
C288 C287 1.400 . S
C288 C291 1.386 . S
H289 C305 0.930 . S
H290 C306 0.931 . S
C291 H279 0.929 . S
C291 C285 1.390 . S
C291 C288 1.386 . S
C292 C287 1.490 . S
C292 C294 1.395 . S
C292 C295 1.403 . S
H293 C299 0.930 . S
C294 H280 0.930 . S
C294 C292 1.395 . S
C294 C297 1.403 1_455 S
C295 C292 1.403 . S
C295 C296 1.524 . S
C295 C299 1.400 1_455 S
C296 H281 0.960 . S
C296 H282 0.960 . S
C296 H283 0.960 . S
C296 C295 1.524 . S
C297 C294 1.403 1_655 S
C297 C298 1.392 . S
C297 C301 1.495 . S
C298 C297 1.392 . S
C298 C299 1.385 . S
C298 C300 1.478 . S
C299 H293 0.930 . S
C299 C295 1.400 1_655 S
C299 C298 1.385 . S
C300 C298 1.478 . S
C300 C302 1.381 . S
C300 C306 1.383 . S
C301 C297 1.495 . S
C301 H307 0.959 . S
C301 H308 0.961 . S
C301 H309 0.960 . S
C302 C300 1.381 . S
C302 C303 1.394 . S
C302 H310 0.930 . S
C303 C302 1.394 . S
C303 C304 1.383 . S
C303 H311 0.929 . S
C304 C303 1.383 . S
C304 C305 1.377 . S
C305 H289 0.930 . S
C305 C304 1.377 . S
C305 C306 1.379 . S
C306 H290 0.931 . S
C306 C300 1.383 . S
C306 C305 1.379 . S
H307 C301 0.959 . S
H308 C301 0.961 . S
H309 C301 0.960 . S
H310 C302 0.930 . S
H311 C303 0.929 . S
H312 C320 0.929 . S
H313 C322 0.930 . S
H314 C324 0.930 . S
H315 C327 0.929 . S
H316 C330 0.930 . S
H317 C332 0.960 . S
H318 C332 0.960 . S
H319 C332 0.960 . S
C320 H312 0.929 . S
C320 C321 1.377 . S
C320 C322 1.384 . S
C321 C320 1.377 . S
C321 C327 1.390 . S
C322 H313 0.930 . S
C322 C320 1.384 . S
C322 C323 1.372 . S
C323 C322 1.372 . S
C323 C324 1.400 . S
C323 C328 1.490 . S
C324 H314 0.930 . S
C324 C323 1.400 . S
C324 C327 1.386 . S
H325 C341 0.930 . S
H326 C342 0.931 . S
C327 H315 0.929 . S
C327 C321 1.390 . S
C327 C324 1.386 . S
C328 C323 1.490 . S
C328 C330 1.395 1_545 S
C328 C331 1.403 . S
H329 C335 0.930 . S
C330 H316 0.930 . S
C330 C328 1.395 1_565 S
C330 C333 1.403 . S
C331 C328 1.403 . S
C331 C332 1.524 . S
C331 C335 1.400 . S
C332 H317 0.960 . S
C332 H318 0.960 . S
C332 H319 0.960 . S
C332 C331 1.524 . S
C333 C330 1.403 . S
C333 C334 1.392 . S
C333 C337 1.495 . S
C334 C333 1.392 . S
C334 C335 1.385 1_565 S
C334 C336 1.478 . S
C335 H329 0.930 . S
C335 C331 1.400 . S
C335 C334 1.385 1_545 S
C336 C334 1.478 . S
C336 C338 1.381 . S
C336 C342 1.383 . S
C337 C333 1.495 . S
C337 H343 0.959 . S
C337 H344 0.961 . S
C337 H345 0.960 . S
C338 C336 1.381 . S
C338 C339 1.394 . S
C338 H346 0.930 . S
C339 C338 1.394 . S
C339 C340 1.383 . S
C339 H347 0.929 . S
C340 C339 1.383 . S
C340 C341 1.377 . S
C341 H325 0.930 . S
C341 C340 1.377 . S
C341 C342 1.379 . S
C342 H326 0.931 . S
C342 C336 1.383 . S
C342 C341 1.379 . S
H343 C337 0.959 . S
H344 C337 0.961 . S
H345 C337 0.960 . S
H346 C338 0.930 . S
H347 C339 0.929 . S
H348 C356 0.929 . S
H349 C358 0.930 . S
H350 C360 0.930 . S
H351 C363 0.929 . S
H352 C366 0.930 . S
H353 C368 0.960 . S
H354 C368 0.960 . S
H355 C368 0.960 . S
C356 H348 0.929 . S
C356 C357 1.377 . S
C356 C358 1.384 . S
C357 C356 1.377 . S
C357 C363 1.390 . S
C358 H349 0.930 . S
C358 C356 1.384 . S
C358 C359 1.372 . S
C359 C358 1.372 . S
C359 C360 1.400 . S
C359 C364 1.490 . S
C360 H350 0.930 . S
C360 C359 1.400 . S
C360 C363 1.386 . S
H361 C377 0.930 . S
H362 C378 0.931 . S
C363 H351 0.929 . S
C363 C357 1.390 . S
C363 C360 1.386 . S
C364 C359 1.490 . S
C364 C366 1.395 . S
C364 C367 1.403 . S
H365 C371 0.930 . S
C366 H352 0.930 . S
C366 C364 1.395 . S
C366 C369 1.403 . S
C367 C364 1.403 . S
C367 C368 1.524 . S
C367 C371 1.400 . S
C368 H353 0.960 . S
C368 H354 0.960 . S
C368 H355 0.960 . S
C368 C367 1.524 . S
C369 C366 1.403 . S
C369 C370 1.392 . S
C369 C373 1.495 . S
C370 C369 1.392 . S
C370 C371 1.385 . S
C370 C372 1.478 . S
C371 H365 0.930 . S
C371 C367 1.400 . S
C371 C370 1.385 . S
C372 C370 1.478 . S
C372 C374 1.381 . S
C372 C378 1.383 1_556 S
C373 C369 1.495 . S
C373 H379 0.959 . S
C373 H380 0.961 . S
C373 H381 0.960 . S
C374 C372 1.381 . S
C374 C375 1.394 . S
C374 H382 0.930 . S
C375 C374 1.394 . S
C375 C376 1.383 . S
C375 H383 0.929 . S
C376 C375 1.383 . S
C376 C377 1.377 1_556 S
C377 H361 0.930 . S
C377 C376 1.377 1_554 S
C377 C378 1.379 . S
C378 H362 0.931 . S
C378 C372 1.383 1_554 S
C378 C377 1.379 . S
H379 C373 0.959 . S
H380 C373 0.961 . S
H381 C373 0.960 . S
H382 C374 0.930 . S
H383 C375 0.929 . S
H384 C392 0.929 . S
H385 C394 0.930 . S
H386 C396 0.930 . S
H387 C399 0.929 . S
H388 C402 0.930 . S
H389 C404 0.960 . S
H390 C404 0.960 . S
H391 C404 0.960 . S
C392 H384 0.929 . S
C392 C393 1.377 . S
C392 C394 1.384 . S
C393 C392 1.377 . S
C393 C399 1.390 . S
C394 H385 0.930 . S
C394 C392 1.384 . S
C394 C395 1.372 . S
C395 C394 1.372 . S
C395 C396 1.400 . S
C395 C400 1.490 . S
C396 H386 0.930 . S
C396 C395 1.400 . S
C396 C399 1.386 . S
H397 C413 0.930 . S
H398 C414 0.931 . S
C399 H387 0.929 . S
C399 C393 1.390 . S
C399 C396 1.386 . S
C400 C395 1.490 . S
C400 C402 1.395 . S
C400 C403 1.403 1_455 S
H401 C407 0.930 . S
C402 H388 0.930 . S
C402 C400 1.395 . S
C402 C405 1.403 . S
C403 C400 1.403 1_655 S
C403 C404 1.524 . S
C403 C407 1.400 . S
C404 H389 0.960 . S
C404 H390 0.960 . S
C404 H391 0.960 . S
C404 C403 1.524 . S
C405 C402 1.403 . S
C405 C406 1.392 1_455 S
C405 C409 1.495 . S
C406 C405 1.392 1_655 S
C406 C407 1.385 . S
C406 C408 1.478 . S
C407 H401 0.930 . S
C407 C403 1.400 . S
C407 C406 1.385 . S
C408 C406 1.478 . S
C408 C410 1.381 . S
C408 C414 1.383 . S
C409 C405 1.495 . S
C409 H415 0.959 . S
C409 H416 0.961 . S
C409 H417 0.960 . S
C410 C408 1.381 . S
C410 C411 1.394 . S
C410 H418 0.930 . S
C411 C410 1.394 . S
C411 C412 1.383 . S
C411 H419 0.929 . S
C412 C411 1.383 . S
C412 C413 1.377 . S
C413 H397 0.930 . S
C413 C412 1.377 . S
C413 C414 1.379 . S
C414 H398 0.931 . S
C414 C408 1.383 . S
C414 C413 1.379 . S
H415 C409 0.959 . S
H416 C409 0.961 . S
H417 C409 0.960 . S
H418 C410 0.930 . S
H419 C411 0.929 . S
H420 C428 0.929 . S
H421 C430 0.930 . S
H422 C432 0.930 . S
H423 C435 0.929 . S
H424 C438 0.930 . S
H425 C440 0.960 . S
H426 C440 0.960 . S
H427 C440 0.960 . S
C428 H420 0.929 . S
C428 C429 1.377 . S
C428 C430 1.384 . S
C429 C428 1.377 . S
C429 C435 1.390 . S
C430 H421 0.930 . S
C430 C428 1.384 . S
C430 C431 1.372 . S
C431 C430 1.372 . S
C431 C432 1.400 . S
C431 C436 1.490 . S
C432 H422 0.930 . S
C432 C431 1.400 . S
C432 C435 1.386 . S
H433 C449 0.930 . S
H434 C450 0.931 . S
C435 H423 0.929 . S
C435 C429 1.390 . S
C435 C432 1.386 . S
C436 C431 1.490 . S
C436 C438 1.395 . S
C436 C439 1.403 . S
H437 C443 0.930 . S
C438 H424 0.930 . S
C438 C436 1.395 . S
C438 C441 1.403 1_545 S
C439 C436 1.403 . S
C439 C440 1.524 . S
C439 C443 1.400 1_545 S
C440 H425 0.960 . S
C440 H426 0.960 . S
C440 H427 0.960 . S
C440 C439 1.524 . S
C441 C438 1.403 1_565 S
C441 C442 1.392 . S
C441 C445 1.495 . S
C442 C441 1.392 . S
C442 C443 1.385 . S
C442 C444 1.478 . S
C443 H437 0.930 . S
C443 C439 1.400 1_565 S
C443 C442 1.385 . S
C444 C442 1.478 . S
C444 C446 1.381 . S
C444 C450 1.383 . S
C445 C441 1.495 . S
C445 H451 0.959 . S
C445 H452 0.961 . S
C445 H453 0.960 . S
C446 C444 1.381 . S
C446 C447 1.394 . S
C446 H454 0.930 . S
C447 C446 1.394 . S
C447 C448 1.383 . S
C447 H455 0.929 . S
C448 C447 1.383 . S
C448 C449 1.377 . S
C449 H433 0.930 . S
C449 C448 1.377 . S
C449 C450 1.379 . S
C450 H434 0.931 . S
C450 C444 1.383 . S
C450 C449 1.379 . S
H451 C445 0.959 . S
H452 C445 0.961 . S
H453 C445 0.960 . S
H454 C446 0.930 . S
H455 C447 0.929 . S
H456 C464 0.929 . S
H457 C466 0.930 . S
H458 C468 0.930 . S
H459 C471 0.929 . S
H460 C474 0.930 . S
H461 C476 0.960 . S
H462 C476 0.960 . S
H463 C476 0.960 . S
C464 H456 0.929 . S
C464 C465 1.377 . S
C464 C466 1.384 . S
C465 C464 1.377 . S
C465 C471 1.390 . S
C466 H457 0.930 . S
C466 C464 1.384 . S
C466 C467 1.372 . S
C467 C466 1.372 . S
C467 C468 1.400 . S
C467 C472 1.490 . S
C468 H458 0.930 . S
C468 C467 1.400 . S
C468 C471 1.386 . S
H469 C485 0.930 . S
H470 C486 0.931 . S
C471 H459 0.929 . S
C471 C465 1.390 . S
C471 C468 1.386 . S
C472 C467 1.490 . S
C472 C474 1.395 . S
C472 C475 1.403 . S
H473 C479 0.930 . S
C474 H460 0.930 . S
C474 C472 1.395 . S
C474 C477 1.403 . S
C475 C472 1.403 . S
C475 C476 1.524 . S
C475 C479 1.400 . S
C476 H461 0.960 . S
C476 H462 0.960 . S
C476 H463 0.960 . S
C476 C475 1.524 . S
C477 C474 1.403 . S
C477 C478 1.392 . S
C477 C481 1.495 . S
C478 C477 1.392 . S
C478 C479 1.385 . S
C478 C480 1.478 . S
C479 H473 0.930 . S
C479 C475 1.400 . S
C479 C478 1.385 . S
C480 C478 1.478 . S
C480 C482 1.381 . S
C480 C486 1.383 . S
C481 C477 1.495 . S
C481 H487 0.959 . S
C481 H488 0.961 . S
C481 H489 0.960 . S
C482 C480 1.381 . S
C482 C483 1.394 . S
C482 H490 0.930 . S
C483 C482 1.394 . S
C483 C484 1.383 . S
C483 H491 0.929 . S
C484 C483 1.383 . S
C484 C485 1.377 . S
C485 H469 0.930 . S
C485 C484 1.377 . S
C485 C486 1.379 . S
C486 H470 0.931 . S
C486 C480 1.383 . S
C486 C485 1.379 . S
H487 C481 0.959 . S
H488 C481 0.961 . S
H489 C481 0.960 . S
H490 C482 0.930 . S
H491 C483 0.929 . S
H492 C500 0.929 . S
H493 C502 0.930 . S
H494 C504 0.930 . S
H495 C507 0.929 . S
H496 C510 0.930 . S
H497 C512 0.960 . S
H498 C512 0.960 . S
H499 C512 0.960 . S
C500 H492 0.929 . S
C500 C501 1.377 . S
C500 C502 1.384 1_554 S
C501 C500 1.377 . S
C501 C507 1.390 . S
C502 H493 0.930 . S
C502 C500 1.384 1_556 S
C502 C503 1.372 . S
C503 C502 1.372 . S
C503 C504 1.400 . S
C503 C508 1.490 . S
C504 H494 0.930 . S
C504 C503 1.400 . S
C504 C507 1.386 1_556 S
H505 C521 0.930 . S
H506 C522 0.931 . S
C507 H495 0.929 . S
C507 C501 1.390 . S
C507 C504 1.386 1_554 S
C508 C503 1.490 . S
C508 C510 1.395 . S
C508 C511 1.403 . S
H509 C515 0.930 . S
C510 H496 0.930 . S
C510 C508 1.395 . S
C510 C513 1.403 . S
C511 C508 1.403 . S
C511 C512 1.524 . S
C511 C515 1.400 . S
C512 H497 0.960 . S
C512 H498 0.960 . S
C512 H499 0.960 . S
C512 C511 1.524 . S
C513 C510 1.403 . S
C513 C514 1.392 . S
C513 C517 1.495 . S
C514 C513 1.392 . S
C514 C515 1.385 . S
C514 C516 1.478 . S
C515 H509 0.930 . S
C515 C511 1.400 . S
C515 C514 1.385 . S
C516 C514 1.478 . S
C516 C518 1.381 . S
C516 C522 1.383 . S
C517 C513 1.495 . S
C517 H523 0.959 . S
C517 H524 0.961 . S
C517 H525 0.960 . S
C518 C516 1.381 . S
C518 C519 1.394 . S
C518 H526 0.930 . S
C519 C518 1.394 . S
C519 C520 1.383 . S
C519 H527 0.929 . S
C520 C519 1.383 . S
C520 C521 1.377 . S
C521 H505 0.930 . S
C521 C520 1.377 . S
C521 C522 1.379 . S
C522 H506 0.931 . S
C522 C516 1.383 . S
C522 C521 1.379 . S
H523 C517 0.959 . S
H524 C517 0.961 . S
H525 C517 0.960 . S
H526 C518 0.930 . S
H527 C519 0.929 . S
H528 C536 0.929 . S
H529 C538 0.930 . S
H530 C540 0.930 . S
H531 C543 0.929 . S
H532 C546 0.930 . S
H533 C548 0.960 . S
H534 C548 0.960 . S
H535 C548 0.960 . S
C536 H528 0.929 . S
C536 C537 1.377 . S
C536 C538 1.384 . S
C537 C536 1.377 . S
C537 C543 1.390 . S
C538 H529 0.930 . S
C538 C536 1.384 . S
C538 C539 1.372 . S
C539 C538 1.372 . S
C539 C540 1.400 . S
C539 C544 1.490 . S
C540 H530 0.930 . S
C540 C539 1.400 . S
C540 C543 1.386 . S
H541 C557 0.930 . S
H542 C558 0.931 . S
C543 H531 0.929 . S
C543 C537 1.390 . S
C543 C540 1.386 . S
C544 C539 1.490 . S
C544 C546 1.395 . S
C544 C547 1.403 . S
H545 C551 0.930 . S
C546 H532 0.930 . S
C546 C544 1.395 . S
C546 C549 1.403 . S
C547 C544 1.403 . S
C547 C548 1.524 . S
C547 C551 1.400 . S
C548 H533 0.960 . S
C548 H534 0.960 . S
C548 H535 0.960 . S
C548 C547 1.524 . S
C549 C546 1.403 . S
C549 C550 1.392 . S
C549 C553 1.495 . S
C550 C549 1.392 . S
C550 C551 1.385 . S
C550 C552 1.478 . S
C551 H545 0.930 . S
C551 C547 1.400 . S
C551 C550 1.385 . S
C552 C550 1.478 . S
C552 C554 1.381 . S
C552 C558 1.383 . S
C553 C549 1.495 . S
C553 H559 0.959 . S
C553 H560 0.961 . S
C553 H561 0.960 . S
C554 C552 1.381 . S
C554 C555 1.394 . S
C554 H562 0.930 . S
C555 C554 1.394 . S
C555 C556 1.383 . S
C555 H563 0.929 . S
C556 C555 1.383 . S
C556 C557 1.377 . S
C557 H541 0.930 . S
C557 C556 1.377 . S
C557 C558 1.379 . S
C558 H542 0.931 . S
C558 C552 1.383 . S
C558 C557 1.379 . S
H559 C553 0.959 . S
H560 C553 0.961 . S
H561 C553 0.960 . S
H562 C554 0.930 . S
H563 C555 0.929 . S
H564 C572 0.929 . S
H565 C574 0.930 . S
H566 C576 0.930 . S
H567 C579 0.929 . S
H568 C582 0.930 . S
H569 C584 0.960 . S
H570 C584 0.960 . S
H571 C584 0.960 . S
C572 H564 0.929 . S
C572 C573 1.377 . S
C572 C574 1.384 . S
C573 C572 1.377 . S
C573 C579 1.390 . S
C574 H565 0.930 . S
C574 C572 1.384 . S
C574 C575 1.372 . S
C575 C574 1.372 . S
C575 C576 1.400 . S
C575 C580 1.490 . S
C576 H566 0.930 . S
C576 C575 1.400 . S
C576 C579 1.386 . S
H577 C593 0.930 . S
H578 C594 0.931 . S
C579 H567 0.929 . S
C579 C573 1.390 . S
C579 C576 1.386 . S
C580 C575 1.490 . S
C580 C582 1.395 . S
C580 C583 1.403 . S
H581 C587 0.930 . S
C582 H568 0.930 . S
C582 C580 1.395 . S
C582 C585 1.403 . S
C583 C580 1.403 . S
C583 C584 1.524 . S
C583 C587 1.400 . S
C584 H569 0.960 . S
C584 H570 0.960 . S
C584 H571 0.960 . S
C584 C583 1.524 . S
C585 C582 1.403 . S
C585 C586 1.392 . S
C585 C589 1.495 . S
C586 C585 1.392 . S
C586 C587 1.385 . S
C586 C588 1.478 . S
C587 H581 0.930 . S
C587 C583 1.400 . S
C587 C586 1.385 . S
C588 C586 1.478 . S
C588 C590 1.381 . S
C588 C594 1.383 . S
C589 C585 1.495 . S
C589 H595 0.959 . S
C589 H596 0.961 . S
C589 H597 0.960 . S
C590 C588 1.381 . S
C590 C591 1.394 . S
C590 H598 0.930 . S
C591 C590 1.394 . S
C591 C592 1.383 . S
C591 H599 0.929 . S
C592 C591 1.383 . S
C592 C593 1.377 . S
C593 H577 0.930 . S
C593 C592 1.377 . S
C593 C594 1.379 . S
C594 H578 0.931 . S
C594 C588 1.383 . S
C594 C593 1.379 . S
H595 C589 0.959 . S
H596 C589 0.961 . S
H597 C589 0.960 . S
H598 C590 0.930 . S
H599 C591 0.929 . S
H600 C608 0.929 . S
H601 C610 0.930 . S
H602 C612 0.930 . S
H603 C615 0.929 . S
H604 C618 0.930 . S
H605 C620 0.960 . S
H606 C620 0.960 . S
H607 C620 0.960 . S
C608 H600 0.929 . S
C608 C609 1.377 . S
C608 C610 1.384 . S
C609 C608 1.377 . S
C609 C615 1.390 . S
C610 H601 0.930 . S
C610 C608 1.384 . S
C610 C611 1.372 . S
C611 C610 1.372 . S
C611 C612 1.400 . S
C611 C616 1.490 . S
C612 H602 0.930 . S
C612 C611 1.400 . S
C612 C615 1.386 . S
H613 C629 0.930 . S
H614 C630 0.931 . S
C615 H603 0.929 . S
C615 C609 1.390 . S
C615 C612 1.386 . S
C616 C611 1.490 . S
C616 C618 1.395 1_556 S
C616 C619 1.403 1_556 S
H617 C623 0.930 . S
C618 H604 0.930 . S
C618 C616 1.395 1_554 S
C618 C621 1.403 . S
C619 C616 1.403 1_554 S
C619 C620 1.524 1_554 S
C619 C623 1.400 . S
C620 H605 0.960 . S
C620 H606 0.960 . S
C620 H607 0.960 . S
C620 C619 1.524 1_556 S
C621 C618 1.403 . S
C621 C622 1.392 . S
C621 C625 1.495 . S
C622 C621 1.392 . S
C622 C623 1.385 . S
C622 C624 1.478 . S
C623 H617 0.930 . S
C623 C619 1.400 . S
C623 C622 1.385 . S
C624 C622 1.478 . S
C624 C626 1.381 . S
C624 C630 1.383 . S
C625 C621 1.495 . S
C625 H631 0.959 . S
C625 H632 0.961 . S
C625 H633 0.960 . S
C626 C624 1.381 . S
C626 C627 1.394 . S
C626 H634 0.930 . S
C627 C626 1.394 . S
C627 C628 1.383 . S
C627 H635 0.929 . S
C628 C627 1.383 . S
C628 C629 1.377 . S
C629 H613 0.930 . S
C629 C628 1.377 . S
C629 C630 1.379 . S
C630 H614 0.931 . S
C630 C624 1.383 . S
C630 C629 1.379 . S
H631 C625 0.959 . S
H632 C625 0.961 . S
H633 C625 0.960 . S
H634 C626 0.930 . S
H635 C627 0.929 . S
H636 C644 0.929 . S
H637 C646 0.930 . S
H638 C648 0.930 . S
H639 C651 0.929 . S
H640 C654 0.930 . S
H641 C656 0.960 . S
H642 C656 0.960 . S
H643 C656 0.960 . S
C644 H636 0.929 . S
C644 C645 1.377 . S
C644 C646 1.384 . S
C645 C644 1.377 . S
C645 C651 1.390 . S
C646 H637 0.930 . S
C646 C644 1.384 . S
C646 C647 1.372 . S
C647 C646 1.372 . S
C647 C648 1.400 . S
C647 C652 1.490 . S
C648 H638 0.930 . S
C648 C647 1.400 . S
C648 C651 1.386 . S
H649 C665 0.930 . S
H650 C666 0.931 . S
C651 H639 0.929 . S
C651 C645 1.390 . S
C651 C648 1.386 . S
C652 C647 1.490 . S
C652 C654 1.395 . S
C652 C655 1.403 . S
H653 C659 0.930 . S
C654 H640 0.930 . S
C654 C652 1.395 . S
C654 C657 1.403 . S
C655 C652 1.403 . S
C655 C656 1.524 . S
C655 C659 1.400 . S
C656 H641 0.960 . S
C656 H642 0.960 . S
C656 H643 0.960 . S
C656 C655 1.524 . S
C657 C654 1.403 . S
C657 C658 1.392 . S
C657 C661 1.495 . S
C658 C657 1.392 . S
C658 C659 1.385 . S
C658 C660 1.478 . S
C659 H653 0.930 . S
C659 C655 1.400 . S
C659 C658 1.385 . S
C660 C658 1.478 . S
C660 C662 1.381 . S
C660 C666 1.383 . S
C661 C657 1.495 . S
C661 H667 0.959 . S
C661 H668 0.961 . S
C661 H669 0.960 . S
C662 C660 1.381 . S
C662 C663 1.394 . S
C662 H670 0.930 . S
C663 C662 1.394 . S
C663 C664 1.383 . S
C663 H671 0.929 . S
C664 C663 1.383 . S
C664 C665 1.377 . S
C665 H649 0.930 . S
C665 C664 1.377 . S
C665 C666 1.379 . S
C666 H650 0.931 . S
C666 C660 1.383 . S
C666 C665 1.379 . S
H667 C661 0.959 . S
H668 C661 0.961 . S
H669 C661 0.960 . S
H670 C662 0.930 . S
H671 C663 0.929 . S
H672 C680 0.929 . S
H673 C682 0.930 . S
H674 C684 0.930 . S
H675 C687 0.929 . S
H676 C690 0.930 . S
H677 C692 0.960 . S
H678 C692 0.960 . S
H679 C692 0.960 . S
C680 H672 0.929 . S
C680 C681 1.377 . S
C680 C682 1.384 . S
C681 C680 1.377 . S
C681 C687 1.390 . S
C682 H673 0.930 . S
C682 C680 1.384 . S
C682 C683 1.372 . S
C683 C682 1.372 . S
C683 C684 1.400 . S
C683 C688 1.490 . S
C684 H674 0.930 . S
C684 C683 1.400 . S
C684 C687 1.386 . S
H685 C701 0.930 . S
H686 C702 0.931 . S
C687 H675 0.929 . S
C687 C681 1.390 . S
C687 C684 1.386 . S
C688 C683 1.490 . S
C688 C690 1.395 . S
C688 C691 1.403 . S
H689 C695 0.930 . S
C690 H676 0.930 . S
C690 C688 1.395 . S
C690 C693 1.403 . S
C691 C688 1.403 . S
C691 C692 1.524 . S
C691 C695 1.400 . S
C692 H677 0.960 . S
C692 H678 0.960 . S
C692 H679 0.960 . S
C692 C691 1.524 . S
C693 C690 1.403 . S
C693 C694 1.392 . S
C693 C697 1.495 . S
C694 C693 1.392 . S
C694 C695 1.385 . S
C694 C696 1.478 . S
C695 H689 0.930 . S
C695 C691 1.400 . S
C695 C694 1.385 . S
C696 C694 1.478 . S
C696 C698 1.381 . S
C696 C702 1.383 . S
C697 C693 1.495 . S
C697 H703 0.959 . S
C697 H704 0.961 . S
C697 H705 0.960 . S
C698 C696 1.381 . S
C698 C699 1.394 . S
C698 H706 0.930 . S
C699 C698 1.394 . S
C699 C700 1.383 . S
C699 H707 0.929 . S
C700 C699 1.383 . S
C700 C701 1.377 . S
C701 H685 0.930 . S
C701 C700 1.377 . S
C701 C702 1.379 . S
C702 H686 0.931 . S
C702 C696 1.383 . S
C702 C701 1.379 . S
H703 C697 0.959 . S
H704 C697 0.961 . S
H705 C697 0.960 . S
H706 C698 0.930 . S
H707 C699 0.929 . S
H708 C716 0.929 . S
H709 C718 0.930 . S
H710 C720 0.930 . S
H711 C723 0.929 . S
H712 C726 0.930 . S
H713 C728 0.960 . S
H714 C728 0.960 . S
H715 C728 0.960 . S
C716 H708 0.929 . S
C716 C717 1.377 . S
C716 C718 1.384 . S
C717 C716 1.377 . S
C717 C723 1.390 . S
C718 H709 0.930 . S
C718 C716 1.384 . S
C718 C719 1.372 . S
C719 C718 1.372 . S
C719 C720 1.400 . S
C719 C724 1.490 . S
C720 H710 0.930 . S
C720 C719 1.400 . S
C720 C723 1.386 . S
H721 C737 0.930 . S
H722 C738 0.931 . S
C723 H711 0.929 . S
C723 C717 1.390 . S
C723 C720 1.386 . S
C724 C719 1.490 . S
C724 C726 1.395 . S
C724 C727 1.403 . S
H725 C731 0.930 . S
C726 H712 0.930 . S
C726 C724 1.395 . S
C726 C729 1.403 . S
C727 C724 1.403 . S
C727 C728 1.524 . S
C727 C731 1.400 . S
C728 H713 0.960 . S
C728 H714 0.960 . S
C728 H715 0.960 . S
C728 C727 1.524 . S
C729 C726 1.403 . S
C729 C730 1.392 . S
C729 C733 1.495 . S
C730 C729 1.392 . S
C730 C731 1.385 . S
C730 C732 1.478 . S
C731 H725 0.930 . S
C731 C727 1.400 . S
C731 C730 1.385 . S
C732 C730 1.478 . S
C732 C734 1.381 . S
C732 C738 1.383 . S
C733 C729 1.495 . S
C733 H739 0.959 . S
C733 H740 0.961 . S
C733 H741 0.960 . S
C734 C732 1.381 . S
C734 C735 1.394 . S
C734 H742 0.930 . S
C735 C734 1.394 . S
C735 C736 1.383 . S
C735 H743 0.929 . S
C736 C735 1.383 . S
C736 C737 1.377 . S
C737 H721 0.930 . S
C737 C736 1.377 . S
C737 C738 1.379 . S
C738 H722 0.931 . S
C738 C732 1.383 . S
C738 C737 1.379 . S
H739 C733 0.959 . S
H740 C733 0.961 . S
H741 C733 0.960 . S
H742 C734 0.930 . S
H743 C735 0.929 . S
H744 C752 0.929 . S
H745 C754 0.930 . S
H746 C756 0.930 . S
H747 C759 0.929 . S
H748 C762 0.930 . S
H749 C764 0.960 . S
H750 C764 0.960 . S
H751 C764 0.960 . S
C752 H744 0.929 . S
C752 C753 1.377 . S
C752 C754 1.384 . S
C753 C752 1.377 . S
C753 C759 1.390 . S
C754 H745 0.930 . S
C754 C752 1.384 . S
C754 C755 1.372 . S
C755 C754 1.372 . S
C755 C756 1.400 . S
C755 C760 1.490 . S
C756 H746 0.930 . S
C756 C755 1.400 . S
C756 C759 1.386 . S
H757 C773 0.930 . S
H758 C774 0.931 . S
C759 H747 0.929 . S
C759 C753 1.390 . S
C759 C756 1.386 . S
C760 C755 1.490 . S
C760 C762 1.395 . S
C760 C763 1.403 . S
H761 C767 0.930 . S
C762 H748 0.930 . S
C762 C760 1.395 . S
C762 C765 1.403 . S
C763 C760 1.403 . S
C763 C764 1.524 . S
C763 C767 1.400 . S
C764 H749 0.960 . S
C764 H750 0.960 . S
C764 H751 0.960 . S
C764 C763 1.524 . S
C765 C762 1.403 . S
C765 C766 1.392 . S
C765 C769 1.495 . S
C766 C765 1.392 . S
C766 C767 1.385 . S
C766 C768 1.478 . S
C767 H761 0.930 . S
C767 C763 1.400 . S
C767 C766 1.385 . S
C768 C766 1.478 . S
C768 C770 1.381 1_554 S
C768 C774 1.383 . S
C769 C765 1.495 . S
C769 H775 0.959 . S
C769 H776 0.961 . S
C769 H777 0.960 . S
C770 C768 1.381 1_556 S
C770 C771 1.394 . S
C770 H778 0.930 . S
C771 C770 1.394 . S
C771 C772 1.383 . S
C771 H779 0.929 . S
C772 C771 1.383 . S
C772 C773 1.377 . S
C773 H757 0.930 . S
C773 C772 1.377 . S
C773 C774 1.379 1_556 S
C774 H758 0.931 . S
C774 C768 1.383 . S
C774 C773 1.379 1_554 S
H775 C769 0.959 . S
H776 C769 0.961 . S
H777 C769 0.960 . S
H778 C770 0.930 . S
H779 C771 0.929 . S
H780 C788 0.929 . S
H781 C790 0.930 . S
H782 C792 0.930 . S
H783 C795 0.929 . S
H784 C798 0.930 . S
H785 C800 0.960 . S
H786 C800 0.960 . S
H787 C800 0.960 . S
C788 H780 0.929 . S
C788 C789 1.377 . S
C788 C790 1.384 . S
C789 C788 1.377 . S
C789 C795 1.390 . S
C790 H781 0.930 . S
C790 C788 1.384 . S
C790 C791 1.372 . S
C791 C790 1.372 . S
C791 C792 1.400 . S
C791 C796 1.490 . S
C792 H782 0.930 . S
C792 C791 1.400 . S
C792 C795 1.386 . S
H793 C809 0.930 . S
H794 C810 0.931 . S
C795 H783 0.929 . S
C795 C789 1.390 . S
C795 C792 1.386 . S
C796 C791 1.490 . S
C796 C798 1.395 . S
C796 C799 1.403 . S
H797 C803 0.930 . S
C798 H784 0.930 . S
C798 C796 1.395 . S
C798 C801 1.403 . S
C799 C796 1.403 . S
C799 C800 1.524 . S
C799 C803 1.400 . S
C800 H785 0.960 . S
C800 H786 0.960 . S
C800 H787 0.960 . S
C800 C799 1.524 . S
C801 C798 1.403 . S
C801 C802 1.392 . S
C801 C805 1.495 . S
C802 C801 1.392 . S
C802 C803 1.385 . S
C802 C804 1.478 . S
C803 H797 0.930 . S
C803 C799 1.400 . S
C803 C802 1.385 . S
C804 C802 1.478 . S
C804 C806 1.381 . S
C804 C810 1.383 . S
C805 C801 1.495 . S
C805 H811 0.959 . S
C805 H812 0.961 . S
C805 H813 0.960 . S
C806 C804 1.381 . S
C806 C807 1.394 . S
C806 H814 0.930 . S
C807 C806 1.394 . S
C807 C808 1.383 . S
C807 H815 0.929 . S
C808 C807 1.383 . S
C808 C809 1.377 . S
C809 H793 0.930 . S
C809 C808 1.377 . S
C809 C810 1.379 . S
C810 H794 0.931 . S
C810 C804 1.383 . S
C810 C809 1.379 . S
H811 C805 0.959 . S
H812 C805 0.961 . S
H813 C805 0.960 . S
H814 C806 0.930 . S
H815 C807 0.929 . S
H816 C824 0.929 . S
H817 C826 0.930 . S
H818 C828 0.930 . S
H819 C831 0.929 . S
H820 C834 0.930 . S
H821 C836 0.960 . S
H822 C836 0.960 . S
H823 C836 0.960 . S
C824 H816 0.929 . S
C824 C825 1.377 . S
C824 C826 1.384 . S
C825 C824 1.377 . S
C825 C831 1.390 . S
C826 H817 0.930 . S
C826 C824 1.384 . S
C826 C827 1.372 . S
C827 C826 1.372 . S
C827 C828 1.400 . S
C827 C832 1.490 . S
C828 H818 0.930 . S
C828 C827 1.400 . S
C828 C831 1.386 . S
H829 C845 0.930 . S
H830 C846 0.931 . S
C831 H819 0.929 . S
C831 C825 1.390 . S
C831 C828 1.386 . S
C832 C827 1.490 . S
C832 C834 1.395 . S
C832 C835 1.403 . S
H833 C839 0.930 . S
C834 H820 0.930 . S
C834 C832 1.395 . S
C834 C837 1.403 . S
C835 C832 1.403 . S
C835 C836 1.524 . S
C835 C839 1.400 . S
C836 H821 0.960 . S
C836 H822 0.960 . S
C836 H823 0.960 . S
C836 C835 1.524 . S
C837 C834 1.403 . S
C837 C838 1.392 . S
C837 C841 1.495 . S
C838 C837 1.392 . S
C838 C839 1.385 . S
C838 C840 1.478 . S
C839 H833 0.930 . S
C839 C835 1.400 . S
C839 C838 1.385 . S
C840 C838 1.478 . S
C840 C842 1.381 . S
C840 C846 1.383 . S
C841 C837 1.495 . S
C841 H847 0.959 . S
C841 H848 0.961 . S
C841 H849 0.960 . S
C842 C840 1.381 . S
C842 C843 1.394 . S
C842 H850 0.930 . S
C843 C842 1.394 . S
C843 C844 1.383 . S
C843 H851 0.929 . S
C844 C843 1.383 . S
C844 C845 1.377 . S
C845 H829 0.930 . S
C845 C844 1.377 . S
C845 C846 1.379 . S
C846 H830 0.931 . S
C846 C840 1.383 . S
C846 C845 1.379 . S
H847 C841 0.959 . S
H848 C841 0.961 . S
H849 C841 0.960 . S
H850 C842 0.930 . S
H851 C843 0.929 . S
H852 C860 0.929 . S
H853 C862 0.930 . S
H854 C864 0.930 . S
H855 C867 0.929 . S
H856 C870 0.930 . S
H857 C872 0.960 . S
H858 C872 0.960 . S
H859 C872 0.960 . S
C860 H852 0.929 . S
C860 C861 1.377 . S
C860 C862 1.384 . S
C861 C860 1.377 . S
C861 C867 1.390 . S
C862 H853 0.930 . S
C862 C860 1.384 . S
C862 C863 1.372 . S
C863 C862 1.372 . S
C863 C864 1.400 . S
C863 C868 1.490 . S
C864 H854 0.930 . S
C864 C863 1.400 . S
C864 C867 1.386 . S
H865 C881 0.930 . S
H866 C882 0.931 . S
C867 H855 0.929 . S
C867 C861 1.390 . S
C867 C864 1.386 . S
C868 C863 1.490 . S
C868 C870 1.395 . S
C868 C871 1.403 . S
H869 C875 0.930 . S
C870 H856 0.930 . S
C870 C868 1.395 . S
C870 C873 1.403 . S
C871 C868 1.403 . S
C871 C872 1.524 . S
C871 C875 1.400 . S
C872 H857 0.960 . S
C872 H858 0.960 . S
C872 H859 0.960 . S
C872 C871 1.524 . S
C873 C870 1.403 . S
C873 C874 1.392 . S
C873 C877 1.495 . S
C874 C873 1.392 . S
C874 C875 1.385 . S
C874 C876 1.478 . S
C875 H869 0.930 . S
C875 C871 1.400 . S
C875 C874 1.385 . S
C876 C874 1.478 . S
C876 C878 1.381 . S
C876 C882 1.383 . S
C877 C873 1.495 . S
C877 H883 0.959 . S
C877 H884 0.961 . S
C877 H885 0.960 . S
C878 C876 1.381 . S
C878 C879 1.394 . S
C878 H886 0.930 . S
C879 C878 1.394 . S
C879 C880 1.383 . S
C879 H887 0.929 . S
C880 C879 1.383 . S
C880 C881 1.377 . S
C881 H865 0.930 . S
C881 C880 1.377 . S
C881 C882 1.379 . S
C882 H866 0.931 . S
C882 C876 1.383 . S
C882 C881 1.379 . S
H883 C877 0.959 . S
H884 C877 0.961 . S
H885 C877 0.960 . S
H886 C878 0.930 . S
H887 C879 0.929 . S
C249 C202 1.654 . S
C268 C2 1.643 . S
C285 C10 1.402 . S
C304 C50 1.401 . S
C321 C42 1.654 . S
C340 C82 1.642 . S
C357 C90 1.393 . S
C376 C130 1.431 1_556 S
C393 C162 1.656 . S
C412 C122 1.661 . S
C429 C210 1.395 . S
C448 C170 1.419 . S
C465 C7 1.073 . S
C484 C16 1.088 . S
C501 C56 1.080 . S
C520 C47 1.075 . S
C537 C87 1.074 . S
C556 C96 1.050 . S
C573 C136 1.071 . S
C592 C127 1.070 . S
C609 C176 1.072 . S
C628 C167 1.050 . S
C645 C216 1.070 . S
C664 C207 1.063 1_554 S
C681 C11 1.760 . S
C700 C179 1.779 . S
C717 C59 1.781 . S
C736 C211 1.766 . S
C753 C19 1.782 . S
C772 C91 1.759 . S
C789 C51 1.763 . S
C808 C139 1.775 . S
C825 C171 1.760 . S
C844 C99 1.781 . S
C861 C131 1.759 . S
C880 C219 1.780 . S
