# Generated by pormake.
# Topology ukd, (4)-cn, num edge types: 1
# Building blocks:
#     Node 0, Type 0, BuildingBlock: CEKHIL_clean_sbu_0, # of connection points: 4
#     Node 1, Type 0, BuildingBlock: CEKHIL_clean_sbu_0, # of connection points: 4
#     Node 2, Type 0, BuildingBlock: CEKHIL_clean_sbu_0, # of connection points: 4
#     Node 3, Type 0, BuildingBlock: CEKHIL_clean_sbu_0, # of connection points: 4
#     Node 4, Type 0, BuildingBlock: CEKHIL_clean_sbu_0, # of connection points: 4
#     Node 5, Type 0, BuildingBlock: CEKHIL_clean_sbu_0, # of connection points: 4
#     Node 6, Type 0, BuildingBlock: CEKHIL_clean_sbu_0, # of connection points: 4
#     Node 7, Type 0, BuildingBlock: CEKHIL_clean_sbu_0, # of connection points: 4
#     Node 8, Type 0, BuildingBlock: CEKHIL_clean_sbu_0, # of connection points: 4
#     Node 9, Type 0, BuildingBlock: CEKHIL_clean_sbu_0, # of connection points: 4
#     Node 10, Type 0, BuildingBlock: CEKHIL_clean_sbu_0, # of connection points: 4
#     Node 11, Type 0, BuildingBlock: CEKHIL_clean_sbu_0, # of connection points: 4
#     Node 12, Type 0, BuildingBlock: CEKHIL_clean_sbu_0, # of connection points: 4
#     Node 13, Type 0, BuildingBlock: CEKHIL_clean_sbu_0, # of connection points: 4
#     Node 14, Type 0, BuildingBlock: CEKHIL_clean_sbu_0, # of connection points: 4
#     Node 15, Type 0, BuildingBlock: CEKHIL_clean_sbu_0, # of connection points: 4
#     Node 16, Type 0, BuildingBlock: CEKHIL_clean_sbu_0, # of connection points: 4
#     Node 17, Type 0, BuildingBlock: CEKHIL_clean_sbu_0, # of connection points: 4
#     Node 18, Type 0, BuildingBlock: CEKHIL_clean_sbu_0, # of connection points: 4
#     Node 19, Type 0, BuildingBlock: CEKHIL_clean_sbu_0, # of connection points: 4
#     Node 20, Type 0, BuildingBlock: CEKHIL_clean_sbu_0, # of connection points: 4
#     Node 21, Type 0, BuildingBlock: CEKHIL_clean_sbu_0, # of connection points: 4
#     Node 22, Type 0, BuildingBlock: CEKHIL_clean_sbu_0, # of connection points: 4
#     Node 23, Type 0, BuildingBlock: CEKHIL_clean_sbu_0, # of connection points: 4
#     Node 24, Type 0, BuildingBlock: CEKHIL_clean_sbu_0, # of connection points: 4
#     Node 25, Type 0, BuildingBlock: CEKHIL_clean_sbu_0, # of connection points: 4
#     Node 26, Type 0, BuildingBlock: CEKHIL_clean_sbu_0, # of connection points: 4
#     Node 27, Type 0, BuildingBlock: CEKHIL_clean_sbu_0, # of connection points: 4
#     Node 28, Type 0, BuildingBlock: CEKHIL_clean_sbu_0, # of connection points: 4
#     Node 29, Type 0, BuildingBlock: CEKHIL_clean_sbu_0, # of connection points: 4
#     Node 30, Type 0, BuildingBlock: CEKHIL_clean_sbu_0, # of connection points: 4
#     Node 31, Type 0, BuildingBlock: CEKHIL_clean_sbu_0, # of connection points: 4
#     Edge 32, Type (0, 0), BuildingBlock: EZIPEK_clean_linker_0, # of connection points: 2
#     Edge 33, Type (0, 0), BuildingBlock: EZIPEK_clean_linker_0, # of connection points: 2
#     Edge 34, Type (0, 0), BuildingBlock: EZIPEK_clean_linker_0, # of connection points: 2
#     Edge 35, Type (0, 0), BuildingBlock: EZIPEK_clean_linker_0, # of connection points: 2
#     Edge 36, Type (0, 0), BuildingBlock: EZIPEK_clean_linker_0, # of connection points: 2
#     Edge 37, Type (0, 0), BuildingBlock: EZIPEK_clean_linker_0, # of connection points: 2
#     Edge 38, Type (0, 0), BuildingBlock: EZIPEK_clean_linker_0, # of connection points: 2
#     Edge 39, Type (0, 0), BuildingBlock: EZIPEK_clean_linker_0, # of connection points: 2
#     Edge 40, Type (0, 0), BuildingBlock: EZIPEK_clean_linker_0, # of connection points: 2
#     Edge 41, Type (0, 0), BuildingBlock: EZIPEK_clean_linker_0, # of connection points: 2
#     Edge 42, Type (0, 0), BuildingBlock: EZIPEK_clean_linker_0, # of connection points: 2
#     Edge 43, Type (0, 0), BuildingBlock: EZIPEK_clean_linker_0, # of connection points: 2
#     Edge 44, Type (0, 0), BuildingBlock: EZIPEK_clean_linker_0, # of connection points: 2
#     Edge 45, Type (0, 0), BuildingBlock: EZIPEK_clean_linker_0, # of connection points: 2
#     Edge 46, Type (0, 0), BuildingBlock: EZIPEK_clean_linker_0, # of connection points: 2
#     Edge 47, Type (0, 0), BuildingBlock: EZIPEK_clean_linker_0, # of connection points: 2
#     Edge 48, Type (0, 0), BuildingBlock: EZIPEK_clean_linker_0, # of connection points: 2
#     Edge 49, Type (0, 0), BuildingBlock: EZIPEK_clean_linker_0, # of connection points: 2
#     Edge 50, Type (0, 0), BuildingBlock: EZIPEK_clean_linker_0, # of connection points: 2
#     Edge 51, Type (0, 0), BuildingBlock: EZIPEK_clean_linker_0, # of connection points: 2
#     Edge 52, Type (0, 0), BuildingBlock: EZIPEK_clean_linker_0, # of connection points: 2
#     Edge 53, Type (0, 0), BuildingBlock: EZIPEK_clean_linker_0, # of connection points: 2
#     Edge 54, Type (0, 0), BuildingBlock: EZIPEK_clean_linker_0, # of connection points: 2
#     Edge 55, Type (0, 0), BuildingBlock: EZIPEK_clean_linker_0, # of connection points: 2
#     Edge 56, Type (0, 0), BuildingBlock: EZIPEK_clean_linker_0, # of connection points: 2
#     Edge 57, Type (0, 0), BuildingBlock: EZIPEK_clean_linker_0, # of connection points: 2
#     Edge 58, Type (0, 0), BuildingBlock: EZIPEK_clean_linker_0, # of connection points: 2
#     Edge 59, Type (0, 0), BuildingBlock: EZIPEK_clean_linker_0, # of connection points: 2
#     Edge 60, Type (0, 0), BuildingBlock: EZIPEK_clean_linker_0, # of connection points: 2
#     Edge 61, Type (0, 0), BuildingBlock: EZIPEK_clean_linker_0, # of connection points: 2
#     Edge 62, Type (0, 0), BuildingBlock: EZIPEK_clean_linker_0, # of connection points: 2
#     Edge 63, Type (0, 0), BuildingBlock: EZIPEK_clean_linker_0, # of connection points: 2
#     Edge 64, Type (0, 0), BuildingBlock: EZIPEK_clean_linker_0, # of connection points: 2
#     Edge 65, Type (0, 0), BuildingBlock: EZIPEK_clean_linker_0, # of connection points: 2
#     Edge 66, Type (0, 0), BuildingBlock: EZIPEK_clean_linker_0, # of connection points: 2
#     Edge 67, Type (0, 0), BuildingBlock: EZIPEK_clean_linker_0, # of connection points: 2
#     Edge 68, Type (0, 0), BuildingBlock: EZIPEK_clean_linker_0, # of connection points: 2
#     Edge 69, Type (0, 0), BuildingBlock: EZIPEK_clean_linker_0, # of connection points: 2
#     Edge 70, Type (0, 0), BuildingBlock: EZIPEK_clean_linker_0, # of connection points: 2
#     Edge 71, Type (0, 0), BuildingBlock: EZIPEK_clean_linker_0, # of connection points: 2
#     Edge 72, Type (0, 0), BuildingBlock: EZIPEK_clean_linker_0, # of connection points: 2
#     Edge 73, Type (0, 0), BuildingBlock: EZIPEK_clean_linker_0, # of connection points: 2
#     Edge 74, Type (0, 0), BuildingBlock: EZIPEK_clean_linker_0, # of connection points: 2
#     Edge 75, Type (0, 0), BuildingBlock: EZIPEK_clean_linker_0, # of connection points: 2
#     Edge 76, Type (0, 0), BuildingBlock: EZIPEK_clean_linker_0, # of connection points: 2
#     Edge 77, Type (0, 0), BuildingBlock: EZIPEK_clean_linker_0, # of connection points: 2
#     Edge 78, Type (0, 0), BuildingBlock: EZIPEK_clean_linker_0, # of connection points: 2
#     Edge 79, Type (0, 0), BuildingBlock: EZIPEK_clean_linker_0, # of connection points: 2
#     Edge 80, Type (0, 0), BuildingBlock: EZIPEK_clean_linker_0, # of connection points: 2
#     Edge 81, Type (0, 0), BuildingBlock: EZIPEK_clean_linker_0, # of connection points: 2
#     Edge 82, Type (0, 0), BuildingBlock: EZIPEK_clean_linker_0, # of connection points: 2
#     Edge 83, Type (0, 0), BuildingBlock: EZIPEK_clean_linker_0, # of connection points: 2
#     Edge 84, Type (0, 0), BuildingBlock: EZIPEK_clean_linker_0, # of connection points: 2
#     Edge 85, Type (0, 0), BuildingBlock: EZIPEK_clean_linker_0, # of connection points: 2
#     Edge 86, Type (0, 0), BuildingBlock: EZIPEK_clean_linker_0, # of connection points: 2
#     Edge 87, Type (0, 0), BuildingBlock: EZIPEK_clean_linker_0, # of connection points: 2
#     Edge 88, Type (0, 0), BuildingBlock: EZIPEK_clean_linker_0, # of connection points: 2
#     Edge 89, Type (0, 0), BuildingBlock: EZIPEK_clean_linker_0, # of connection points: 2
#     Edge 90, Type (0, 0), BuildingBlock: EZIPEK_clean_linker_0, # of connection points: 2
#     Edge 91, Type (0, 0), BuildingBlock: EZIPEK_clean_linker_0, # of connection points: 2
#     Edge 92, Type (0, 0), BuildingBlock: EZIPEK_clean_linker_0, # of connection points: 2
#     Edge 93, Type (0, 0), BuildingBlock: EZIPEK_clean_linker_0, # of connection points: 2
#     Edge 94, Type (0, 0), BuildingBlock: EZIPEK_clean_linker_0, # of connection points: 2
#     Edge 95, Type (0, 0), BuildingBlock: EZIPEK_clean_linker_0, # of connection points: 2
# Relax obj value: 0.046
# Max RMSD: 0.077
# Mean RMSD: 0.077
data_MOF--net-ukd--node1-CEKHIL_clean_sbu_0--edge1-EZIPEK_clean_linker_0
_symmetry_space_group_name_H-M    P1
_symmetry_Int_Tables_number       1
_symmetry_cell_setting            triclinic
loop_
_symmetry_equiv_pos_as_xyz
'x, y, z'
_cell_length_a     33.239881
_cell_length_b     33.208685
_cell_length_c     50.849694
_cell_angle_alpha  89.860876
_cell_angle_beta   90.028217
_cell_angle_gamma 90.034794
loop_
_atom_site_label
_atom_site_type_symbol
_atom_site_fract_x
_atom_site_fract_y
_atom_site_fract_z
_atom_type_partial_charge
Co0 Co 0.2201 0.16895 0.33281 0.0
O1 O 0.24656 0.1174 0.32809 0.0
O2 O 0.25424 0.15687 0.36254 0.0
C3 C 0.23186 0.19636 0.29269 0.0
O4 O 0.19996 0.22408 0.34497 0.0
Co5 Co 0.14478 0.19364 0.30042 0.0
O6 O 0.14729 0.24433 0.32065 0.0
C7 C 0.13507 0.13686 0.3447 0.0
C8 C 0.26357 0.12346 0.3508 0.0
C9 C 0.17242 0.24993 0.3392 0.0
O10 O 0.17279 0.14045 0.35019 0.0
O11 O 0.1188 0.15408 0.32483 0.0
O12 O 0.25988 0.19597 0.31051 0.0
O13 O 0.20011 0.17552 0.29833 0.0
Co14 Co 0.08394 0.97047 0.58655 0.0
O15 O 0.13545 0.99654 0.58167 0.0
O16 O 0.0966 0.00411 0.61645 0.0
C17 C 0.05889 0.98506 0.54578 0.0
O18 O 0.02856 0.95042 0.59874 0.0
Co19 Co 0.05804 0.89729 0.55359 0.0
O20 O 0.00686 0.8999 0.57317 0.0
C21 C 0.11497 0.88497 0.5974 0.0
C22 C 0.1297 0.01362 0.60431 0.0
C23 C 0.002 0.92381 0.59243 0.0
O24 O 0.11213 0.92259 0.60327 0.0
O25 O 0.09716 0.86951 0.57752 0.0
O26 O 0.05741 0.01091 0.56489 0.0
O27 O 0.07794 0.95222 0.55154 0.0
Co28 Co 0.27803 0.82877 0.84262 0.0
O29 O 0.2495 0.87859 0.83627 0.0
O30 O 0.24557 0.84248 0.87289 0.0
C31 C 0.26419 0.7989 0.80384 0.0
O32 O 0.30108 0.77517 0.85608 0.0
Co33 Co 0.35182 0.80478 0.80885 0.0
O34 O 0.35238 0.75528 0.83047 0.0
C35 C 0.3625 0.86419 0.85124 0.0
C36 C 0.23429 0.87399 0.85959 0.0
C37 C 0.32897 0.74982 0.84998 0.0
O38 O 0.32521 0.86009 0.85758 0.0
O39 O 0.37827 0.84625 0.83154 0.0
O40 O 0.23775 0.79887 0.82264 0.0
O41 O 0.29577 0.82079 0.80786 0.0
Co42 Co 0.42079 0.03081 0.09153 0.0
O43 O 0.37001 0.00311 0.08713 0.0
O44 O 0.4068 0.00196 0.12346 0.0
C45 C 0.44958 0.01145 0.05328 0.0
O46 O 0.47498 0.05394 0.10306 0.0
Co47 Co 0.44537 0.09937 0.05274 0.0
O48 O 0.49416 0.10297 0.07511 0.0
C49 C 0.38693 0.11663 0.09456 0.0
C50 C 0.37492 0.98983 0.11093 0.0
C51 C 0.49986 0.08152 0.09562 0.0
O52 O 0.39244 0.08129 0.10454 0.0
O53 O 0.40206 0.12794 0.07262 0.0
O54 O 0.44908 0.98723 0.07336 0.0
O55 O 0.42856 0.04388 0.05587 0.0
Co56 Co 0.21925 0.82531 0.16908 0.0
O57 O 0.24824 0.87476 0.17589 0.0
O58 O 0.24975 0.84137 0.13827 0.0
C59 C 0.23623 0.79429 0.2073 0.0
O60 O 0.19409 0.77316 0.15463 0.0
Co61 Co 0.14893 0.79702 0.20484 0.0
O62 O 0.15566 0.74519 0.18614 0.0
C63 C 0.13366 0.85782 0.16312 0.0
C64 C 0.26191 0.87199 0.15207 0.0
C65 C 0.17219 0.74405 0.16356 0.0
O66 O 0.17098 0.85683 0.15631 0.0
O67 O 0.11954 0.83762 0.18255 0.0
O68 O 0.26095 0.79449 0.1875 0.0
O69 O 0.20399 0.81543 0.20412 0.0
Co70 Co 0.42569 0.97087 0.41788 0.0
O71 O 0.37549 0.99935 0.42318 0.0
O72 O 0.41105 0.00081 0.38662 0.0
C73 C 0.45593 0.98856 0.45628 0.0
O74 O 0.47818 0.94619 0.40424 0.0
Co75 Co 0.45363 0.90134 0.45448 0.0
O76 O 0.50545 0.90687 0.43553 0.0
C77 C 0.39415 0.8847 0.41234 0.0
C78 C 0.37926 0.01274 0.39926 0.0
C79 C 0.50692 0.92389 0.41307 0.0
O80 O 0.3951 0.92193 0.40512 0.0
O81 O 0.41388 0.87113 0.43212 0.0
O82 O 0.45571 0.01313 0.43635 0.0
O83 O 0.43469 0.95629 0.45333 0.0
Co84 Co 0.28586 0.17715 0.66527 0.0
O85 O 0.25825 0.12673 0.67153 0.0
O86 O 0.25421 0.16217 0.63489 0.0
C87 C 0.26974 0.20645 0.70412 0.0
O88 O 0.30938 0.23011 0.65102 0.0
Co89 Co 0.35684 0.20586 0.70032 0.0
O90 O 0.34989 0.25766 0.68148 0.0
C91 C 0.37146 0.14543 0.65843 0.0
C92 C 0.24318 0.13043 0.64807 0.0
C93 C 0.33179 0.25909 0.65941 0.0
O94 O 0.33419 0.14686 0.65151 0.0
O95 O 0.38568 0.16517 0.67798 0.0
O96 O 0.24432 0.20646 0.6847 0.0
O97 O 0.30225 0.18605 0.70024 0.0
Co98 Co 0.07283 0.03112 0.91822 0.0
O99 O 0.12297 0.00304 0.9242 0.0
O100 O 0.08677 0.99941 0.88765 0.0
C101 C 0.04332 0.01584 0.95702 0.0
O102 O 0.01902 0.05385 0.90509 0.0
Co103 Co 0.04855 0.104 0.95239 0.0
O104 O 0.99935 0.1053 0.93057 0.0
C105 C 0.10724 0.11634 0.90983 0.0
C106 C 0.11845 0.98824 0.90078 0.0
C107 C 0.99382 0.08191 0.91109 0.0
O108 O 0.10347 0.07902 0.90341 0.0
O109 O 0.08941 0.13169 0.92971 0.0
O110 O 0.04346 0.99002 0.93788 0.0
O111 O 0.06481 0.04788 0.95329 0.0
Co112 Co 0.78752 0.8226 0.6625 0.0
O113 O 0.76027 0.87242 0.67158 0.0
O114 O 0.75243 0.83944 0.63415 0.0
C115 C 0.7762 0.78958 0.70122 0.0
O116 O 0.80693 0.77013 0.64571 0.0
Co117 Co 0.86324 0.79268 0.69011 0.0
O118 O 0.86187 0.74604 0.66598 0.0
C119 C 0.87162 0.8577 0.65156 0.0
C120 C 0.74287 0.86998 0.64874 0.0
C121 C 0.83472 0.74348 0.64851 0.0
O122 O 0.83373 0.85474 0.64656 0.0
O123 O 0.88881 0.83701 0.66954 0.0
O124 O 0.74896 0.79138 0.68294 0.0
O125 O 0.80832 0.81079 0.69682 0.0
Co126 Co 0.92466 0.02888 0.41699 0.0
O127 O 0.87376 0.00227 0.42337 0.0
O128 O 0.90999 0.9961 0.38704 0.0
C129 C 0.9523 0.01396 0.457 0.0
O130 O 0.97913 0.04944 0.40338 0.0
Co131 Co 0.95221 0.10183 0.44953 0.0
O132 O 0.00184 0.10029 0.42826 0.0
C133 C 0.89295 0.11447 0.40719 0.0
C134 C 0.87796 0.98634 0.40025 0.0
C135 C 0.00582 0.07634 0.40893 0.0
O136 O 0.89521 0.07682 0.40135 0.0
O137 O 0.91199 0.12991 0.42658 0.0
O138 O 0.95289 0.98834 0.43772 0.0
O139 O 0.93278 0.04673 0.45185 0.0
Co140 Co 0.71817 0.17524 0.16322 0.0
O141 O 0.74694 0.12585 0.17056 0.0
O142 O 0.74912 0.15911 0.13275 0.0
C143 C 0.73461 0.20646 0.20128 0.0
O144 O 0.69372 0.22713 0.14799 0.0
Co145 Co 0.64769 0.20487 0.19824 0.0
O146 O 0.65207 0.25524 0.17753 0.0
C147 C 0.63255 0.14336 0.15709 0.0
C148 C 0.76103 0.12865 0.14683 0.0
C149 C 0.67056 0.25598 0.15561 0.0
O150 O 0.66994 0.14373 0.15042 0.0
O151 O 0.61849 0.16412 0.17619 0.0
O152 O 0.75959 0.20629 0.18164 0.0
O153 O 0.70236 0.18536 0.19815 0.0
Co154 Co 0.57392 0.9749 0.91958 0.0
O155 O 0.62563 1.00047 0.92504 0.0
O156 O 0.58823 0.00758 0.88948 0.0
C157 C 0.54589 0.98942 0.95893 0.0
O158 O 0.5189 0.95494 0.90672 0.0
Co159 Co 0.54663 0.90174 0.95354 0.0
O160 O 0.4973 0.9036 0.93189 0.0
C161 C 0.60464 0.88881 0.91051 0.0
C162 C 0.62102 0.01692 0.90201 0.0
C163 C 0.49267 0.92772 0.9126 0.0
O164 O 0.60199 0.92625 0.90398 0.0
O165 O 0.5866 0.87387 0.9305 0.0
O166 O 0.54708 0.01637 0.94039 0.0
O167 O 0.56578 0.95678 0.95425 0.0
Co168 Co 0.77814 0.17838 0.83927 0.0
O169 O 0.75251 0.12662 0.8341 0.0
O170 O 0.74486 0.16476 0.8692 0.0
C171 C 0.76438 0.20561 0.79939 0.0
O172 O 0.79814 0.23368 0.85167 0.0
Co173 Co 0.85202 0.20424 0.80572 0.0
O174 O 0.84964 0.25445 0.82642 0.0
C175 C 0.86359 0.1465 0.84924 0.0
C176 C 0.73571 0.13169 0.85693 0.0
C177 C 0.82538 0.25974 0.84549 0.0
O178 O 0.82627 0.15024 0.85567 0.0
O179 O 0.87891 0.16376 0.82906 0.0
O180 O 0.7372 0.205 0.81773 0.0
O181 O 0.79682 0.18568 0.80465 0.0
Co182 Co 0.58031 0.02765 0.59043 0.0
O183 O 0.62994 0.99841 0.58461 0.0
O184 O 0.5945 0.99666 0.62144 0.0
C185 C 0.5494 0.01218 0.55208 0.0
O186 O 0.52719 0.05171 0.60366 0.0
Co187 Co 0.55632 0.09999 0.55509 0.0
O188 O 0.50768 0.10252 0.57736 0.0
C189 C 0.61576 0.11274 0.59722 0.0
C190 C 0.62582 0.98455 0.60836 0.0
C191 C 0.50226 0.0799 0.59732 0.0
O192 O 0.61202 0.07557 0.60417 0.0
O193 O 0.59759 0.12769 0.57728 0.0
O194 O 0.54964 0.9866 0.57145 0.0
O195 O 0.57171 0.0437 0.55528 0.0
Co196 Co 0.71924 0.8271 0.34056 0.0
O197 O 0.74522 0.87876 0.33591 0.0
O198 O 0.75075 0.84026 0.37139 0.0
C199 C 0.73485 0.80057 0.301 0.0
O200 O 0.69861 0.77177 0.3521 0.0
Co201 Co 0.6471 0.80234 0.30461 0.0
O202 O 0.6477 0.7522 0.32587 0.0
C203 C 0.63389 0.85969 0.34771 0.0
C204 C 0.76084 0.87307 0.35904 0.0
C205 C 0.67116 0.74633 0.34537 0.0
O206 O 0.66994 0.85382 0.35624 0.0
O207 O 0.62031 0.84477 0.32631 0.0
O208 O 0.76134 0.801 0.31979 0.0
O209 O 0.70229 0.82046 0.30567 0.0
Co210 Co 0.92338 0.96946 0.09174 0.0
O211 O 0.87335 0.99728 0.08483 0.0
O212 O 0.90779 0.00091 0.12208 0.0
C213 C 0.95432 0.98538 0.05351 0.0
O214 O 0.97679 0.94724 0.10595 0.0
Co215 Co 0.95031 0.89728 0.05786 0.0
O216 O 0.99856 0.89656 0.08056 0.0
C217 C 0.89006 0.88361 0.09936 0.0
C218 C 0.87677 0.01214 0.10832 0.0
C219 C 0.00274 0.91972 0.1003 0.0
O220 O 0.89249 0.92109 0.10574 0.0
O221 O 0.90941 0.86865 0.07996 0.0
O222 O 0.95327 0.01097 0.07276 0.0
O223 O 0.93308 0.95307 0.05677 0.0
Co224 Co 0.7172 0.68046 0.83907 0.0
O225 O 0.74525 0.63047 0.83195 0.0
O226 O 0.7513 0.66558 0.86862 0.0
C227 C 0.73081 0.71127 0.79982 0.0
O228 O 0.69555 0.73384 0.85321 0.0
Co229 Co 0.64271 0.70344 0.80727 0.0
O230 O 0.6395 0.75059 0.83115 0.0
C231 C 0.63349 0.64262 0.84781 0.0
C232 C 0.76201 0.63443 0.85484 0.0
C233 C 0.66548 0.75742 0.84899 0.0
O234 O 0.6699 0.64986 0.85527 0.0
O235 O 0.618 0.65809 0.82719 0.0
O236 O 0.75671 0.71103 0.81892 0.0
O237 O 0.69919 0.68917 0.80378 0.0
Co238 Co 0.56931 0.47027 0.09245 0.0
O239 O 0.62084 0.49621 0.0865 0.0
O240 O 0.58647 0.49885 0.12372 0.0
C241 C 0.54015 0.49054 0.05429 0.0
O242 O 0.51537 0.44906 0.10623 0.0
Co243 Co 0.53648 0.40334 0.05506 0.0
O244 O 0.48795 0.40485 0.07782 0.0
C245 C 0.59987 0.3838 0.09377 0.0
C246 C 0.61786 0.50992 0.11031 0.0
C247 C 0.48705 0.42478 0.0992 0.0
O248 O 0.59656 0.4188 0.10454 0.0
O249 O 0.58209 0.37388 0.07239 0.0
O250 O 0.54201 0.51478 0.07427 0.0
O251 O 0.5588 0.45683 0.05728 0.0
Co252 Co 0.77771 0.32314 0.33691 0.0
O253 O 0.74956 0.3734 0.33111 0.0
O254 O 0.74758 0.33782 0.36801 0.0
C255 C 0.7608 0.29343 0.29867 0.0
O256 O 0.80072 0.26944 0.35021 0.0
Co257 Co 0.84842 0.29631 0.30124 0.0
O258 O 0.85008 0.24768 0.32367 0.0
C259 C 0.86348 0.35611 0.3429 0.0
C260 C 0.73589 0.36935 0.35489 0.0
C261 C 0.82791 0.24346 0.34391 0.0
O262 O 0.82641 0.35376 0.3501 0.0
O263 O 0.8775 0.33691 0.32315 0.0
O264 O 0.73566 0.29365 0.31823 0.0
O265 O 0.79308 0.31456 0.30178 0.0
Co266 Co 0.93406 0.53312 0.58753 0.0
O267 O 0.88483 0.50373 0.58009 0.0
O268 O 0.91835 0.50023 0.61732 0.0
C269 C 0.96746 0.51899 0.54965 0.0
O270 O 0.98597 0.55643 0.60304 0.0
Co271 Co 0.95906 0.60697 0.55589 0.0
O272 O 0.00421 0.61225 0.58115 0.0
C273 C 0.88825 0.61249 0.58923 0.0
C274 C 0.88756 0.48845 0.60359 0.0
C275 C 0.00974 0.58657 0.59939 0.0
O276 O 0.9005 0.5801 0.60072 0.0
O277 O 0.9059 0.62616 0.56878 0.0
O278 O 0.96651 0.49341 0.56901 0.0
O279 O 0.94473 0.55035 0.55248 0.0
Co280 Co 0.72772 0.32606 0.66343 0.0
O281 O 0.75439 0.3772 0.66884 0.0
O282 O 0.76012 0.34032 0.63308 0.0
C283 C 0.74335 0.29751 0.70261 0.0
O284 O 0.70626 0.27133 0.6508 0.0
Co285 Co 0.65546 0.30045 0.69816 0.0
O286 O 0.65497 0.25123 0.67645 0.0
C287 C 0.6418 0.35813 0.6549 0.0
C288 C 0.7705 0.37266 0.64578 0.0
C289 C 0.67855 0.24575 0.65705 0.0
O290 O 0.67914 0.35529 0.64826 0.0
O291 O 0.62714 0.34011 0.675 0.0
O292 O 0.76933 0.29801 0.68356 0.0
O293 O 0.71097 0.31823 0.69855 0.0
Co294 Co 0.92763 0.47654 0.90973 0.0
O295 O 0.87901 0.50713 0.91593 0.0
O296 O 0.91282 0.50717 0.87848 0.0
C297 C 0.96004 0.49306 0.94719 0.0
O298 O 0.98002 0.45022 0.89669 0.0
Co299 Co 0.94863 0.40511 0.94617 0.0
O300 O 0.99575 0.39816 0.92304 0.0
C301 C 0.88909 0.39237 0.90444 0.0
C302 C 0.88232 0.5203 0.89202 0.0
C303 C 0.0032 0.42062 0.90332 0.0
O304 O 0.8941 0.42917 0.89707 0.0
O305 O 0.90675 0.37748 0.92457 0.0
O306 O 0.96015 0.51746 0.92722 0.0
O307 O 0.93642 0.46222 0.94525 0.0
Co308 Co 0.7736 0.67391 0.16892 0.0
O309 O 0.74515 0.62387 0.17518 0.0
O310 O 0.74406 0.65798 0.13773 0.0
C311 C 0.75582 0.70519 0.20645 0.0
O312 O 0.79724 0.72733 0.1552 0.0
Co313 Co 0.84366 0.70114 0.20502 0.0
O314 O 0.84631 0.74906 0.18206 0.0
C315 C 0.85985 0.64158 0.16351 0.0
C316 C 0.73196 0.62695 0.15122 0.0
C317 C 0.82451 0.75326 0.16164 0.0
O318 O 0.82254 0.64279 0.15671 0.0
O319 O 0.8739 0.66192 0.18276 0.0
O320 O 0.73117 0.70416 0.18663 0.0
O321 O 0.78802 0.6837 0.20411 0.0
Co322 Co 0.57751 0.52797 0.4156 0.0
O323 O 0.62838 0.50085 0.42115 0.0
O324 O 0.59093 0.49565 0.38524 0.0
C325 C 0.54956 0.51356 0.45509 0.0
O326 O 0.52288 0.5493 0.40293 0.0
Co327 Co 0.552 0.60125 0.4497 0.0
O328 O 0.50195 0.59992 0.42878 0.0
C329 C 0.60981 0.61357 0.40634 0.0
C330 C 0.62319 0.48524 0.39799 0.0
C331 C 0.49685 0.57639 0.40932 0.0
O332 O 0.60675 0.57614 0.39999 0.0
O333 O 0.59192 0.62868 0.42629 0.0
O334 O 0.54974 0.48691 0.43643 0.0
O335 O 0.57007 0.54585 0.45034 0.0
Co336 Co 0.271 0.32614 0.16109 0.0
O337 O 0.24309 0.37666 0.16694 0.0
O338 O 0.24486 0.34487 0.12902 0.0
C339 C 0.24852 0.29397 0.19795 0.0
O340 O 0.29497 0.27306 0.1479 0.0
Co341 Co 0.3362 0.29775 0.20128 0.0
O342 O 0.3373 0.2487 0.17882 0.0
C343 C 0.35685 0.36038 0.16286 0.0
C344 C 0.23162 0.37533 0.14257 0.0
C345 C 0.31922 0.24587 0.15675 0.0
O346 O 0.32314 0.35438 0.15078 0.0
O347 O 0.36394 0.34622 0.18583 0.0
O348 O 0.22575 0.29677 0.17726 0.0
O349 O 0.28129 0.31464 0.19659 0.0
Co350 Co 0.42402 0.53157 0.91729 0.0
O351 O 0.37498 0.50136 0.92336 0.0
O352 O 0.40989 0.50065 0.88629 0.0
C353 C 0.45397 0.51537 0.956 0.0
O354 O 0.47602 0.55761 0.90341 0.0
Co355 Co 0.45061 0.60222 0.95318 0.0
O356 O 0.50314 0.5956 0.93531 0.0
C357 C 0.39057 0.61672 0.9109 0.0
C358 C 0.37906 0.48778 0.8996 0.0
C359 C 0.50488 0.57937 0.91267 0.0
O360 O 0.39193 0.57935 0.90414 0.0
O361 O 0.41046 0.63104 0.93035 0.0
O362 O 0.45532 0.49065 0.93624 0.0
O363 O 0.43223 0.54711 0.95248 0.0
Co364 Co 0.22777 0.6761 0.6696 0.0
O365 O 0.25526 0.62557 0.67607 0.0
O366 O 0.25927 0.66083 0.63914 0.0
C367 C 0.24332 0.70627 0.70801 0.0
O368 O 0.20577 0.72998 0.65575 0.0
Co369 Co 0.15573 0.70356 0.70395 0.0
O370 O 0.15536 0.75201 0.68134 0.0
C371 C 0.14169 0.64443 0.66173 0.0
C372 C 0.27015 0.62933 0.65259 0.0
C373 C 0.17841 0.75611 0.66151 0.0
O374 O 0.17924 0.64593 0.6555 0.0
O375 O 0.12694 0.66392 0.68114 0.0
O376 O 0.2693 0.70536 0.68895 0.0
O377 O 0.21105 0.68526 0.70445 0.0
Co378 Co 0.07661 0.46346 0.41239 0.0
O379 O 0.12596 0.49184 0.42058 0.0
O380 O 0.09118 0.49912 0.38371 0.0
C381 C 0.04516 0.47394 0.45149 0.0
O382 O 0.02378 0.44214 0.39704 0.0
Co383 Co 0.05258 0.38671 0.44158 0.0
O384 O 0.00463 0.38629 0.41857 0.0
C385 C 0.11373 0.38046 0.4008 0.0
C386 C 0.12209 0.50933 0.39787 0.0
C387 C 0.99901 0.41291 0.40096 0.0
O388 O 0.10895 0.41818 0.39578 0.0
O389 O 0.09575 0.36264 0.4197 0.0
O390 O 0.04533 0.5012 0.43314 0.0
O391 O 0.06758 0.44277 0.44698 0.0
Co392 Co 0.27922 0.67458 0.34275 0.0
O393 O 0.2503 0.62501 0.3364 0.0
O394 O 0.24801 0.65972 0.37351 0.0
C395 C 0.26336 0.7053 0.30442 0.0
O396 O 0.30322 0.72774 0.35631 0.0
Co397 Co 0.35127 0.69925 0.30775 0.0
O398 O 0.35452 0.74724 0.33052 0.0
C399 C 0.3641 0.63922 0.34963 0.0
C400 C 0.23613 0.62865 0.36005 0.0
C401 C 0.33169 0.75261 0.3503 0.0
O402 O 0.32697 0.64274 0.35647 0.0
O403 O 0.37905 0.65782 0.32985 0.0
O404 O 0.23813 0.70529 0.32392 0.0
O405 O 0.29513 0.68336 0.3076 0.0
Co406 Co 0.06834 0.53596 0.0868 0.0
O407 O 0.11972 0.51089 0.07868 0.0
O408 O 0.08447 0.49991 0.11489 0.0
C409 C 0.03906 0.52614 0.04663 0.0
O410 O 0.01432 0.5533 0.1026 0.0
Co411 Co 0.03847 0.61248 0.05856 0.0
O412 O 0.99375 0.61154 0.08449 0.0
C413 C 0.10189 0.6201 0.09813 0.0
C414 C 0.11626 0.49209 0.10101 0.0
C415 C 0.98946 0.58293 0.10095 0.0
O416 O 0.09669 0.58292 0.10477 0.0
O417 O 0.0845 0.63637 0.07838 0.0
O418 O 0.04016 0.49743 0.06401 0.0
O419 O 0.05862 0.55836 0.05288 0.0
Co420 Co 0.2243 0.32428 0.83933 0.0
O421 O 0.25206 0.37485 0.83352 0.0
O422 O 0.25406 0.3397 0.87055 0.0
C423 C 0.24227 0.29435 0.80126 0.0
O424 O 0.20175 0.27035 0.85261 0.0
Co425 Co 0.15432 0.2971 0.80323 0.0
O426 O 0.15125 0.24958 0.82671 0.0
C427 C 0.13804 0.35707 0.84427 0.0
C428 C 0.26574 0.37116 0.85733 0.0
C429 C 0.17389 0.24487 0.84671 0.0
O430 O 0.1748 0.35419 0.85226 0.0
O431 O 0.12472 0.33864 0.824 0.0
O432 O 0.26696 0.29503 0.82106 0.0
O433 O 0.20975 0.31522 0.80402 0.0
Co434 Co 0.43008 0.4733 0.59031 0.0
O435 O 0.37914 0.50085 0.58624 0.0
O436 O 0.4169 0.50267 0.6221 0.0
C437 C 0.45762 0.49178 0.55143 0.0
O438 O 0.4847 0.45027 0.60143 0.0
Co439 Co 0.45325 0.40374 0.55227 0.0
O440 O 0.5028 0.40049 0.57394 0.0
C441 C 0.39559 0.38789 0.59482 0.0
C442 C 0.38453 0.51438 0.6099 0.0
C443 C 0.5093 0.42242 0.59406 0.0
O444 O 0.40186 0.42333 0.60427 0.0
O445 O 0.41049 0.37562 0.57309 0.0
O446 O 0.45786 0.51643 0.57122 0.0
O447 O 0.43667 0.45939 0.55473 0.0
C448 C 0.16292 0.32439 0.39641 0.0
C449 C 0.13991 0.35482 0.38389 0.0
C450 C 0.15606 0.32366 0.3416 0.0
C451 C 0.16825 0.28785 0.35479 0.0
N452 N 0.17855 0.25371 0.39671 0.0
N453 N 0.11242 0.38151 0.34312 0.0
C454 C 0.17128 0.28816 0.38274 0.0
C455 C 0.13646 0.35456 0.35601 0.0
N456 N 0.17607 0.32985 0.42159 0.0
N457 N 0.16319 0.32826 0.31532 0.0
H458 H 0.09675 0.40458 0.3523 0.0
H459 H 0.1055 0.37887 0.3232 0.0
H460 H 0.17851 0.3068 0.30427 0.0
H461 H 0.15802 0.35523 0.30533 0.0
H462 H 0.19559 0.30986 0.43095 0.0
H463 H 0.17112 0.35667 0.43178 0.0
H464 H 0.17674 0.25252 0.41716 0.0
H465 H 0.18209 0.22547 0.38831 0.0
C466 C 0.92813 0.90898 0.59477 0.0
C467 C 0.96429 0.9188 0.60825 0.0
C468 C 0.92884 0.90647 0.64977 0.0
C469 C 0.89794 0.8857 0.63611 0.0
N470 N 0.86973 0.86588 0.59398 0.0
N471 N 0.99922 0.92352 0.6502 0.0
C472 C 0.8974 0.88719 0.60812 0.0
C473 C 0.96461 0.91748 0.63625 0.0
N474 N 0.92317 0.92057 0.56919 0.0
N475 N 0.92403 0.91554 0.67575 0.0
H476 H 0.02681 0.93039 0.64176 0.0
H477 H 0.00122 0.91809 0.67036 0.0
H478 H 0.89746 0.90909 0.68588 0.0
H479 H 0.94424 0.9335 0.68614 0.0
H480 H 0.89612 0.91705 0.55906 0.0
H481 H 0.94452 0.93796 0.55925 0.0
H482 H 0.8716 0.86253 0.57363 0.0
H483 H 0.8468 0.84891 0.60233 0.0
C484 C 0.36901 0.6466 0.867 0.0
C485 C 0.36659 0.64592 0.89492 0.0
C486 C 0.33508 0.71275 0.89404 0.0
C487 C 0.33549 0.71243 0.86601 0.0
N488 N 0.33874 0.67118 0.82692 0.0
N489 N 0.33373 0.67201 0.93357 0.0
C490 C 0.34759 0.67664 0.85289 0.0
C491 C 0.34497 0.67687 0.90794 0.0
N492 N 0.39401 0.62106 0.85376 0.0
N493 N 0.32838 0.74747 0.9077 0.0
H494 H 0.33909 0.64541 0.94397 0.0
H495 H 0.31508 0.69234 0.9433 0.0
H496 H 0.32325 0.77525 0.89892 0.0
H497 H 0.3321 0.74939 0.92802 0.0
H498 H 0.39929 0.62363 0.83361 0.0
H499 H 0.41299 0.60043 0.86289 0.0
H500 H 0.34403 0.64409 0.81718 0.0
H501 H 0.32195 0.69185 0.81606 0.0
C502 C 0.5729 0.10126 0.09882 0.0
C503 C 0.53654 0.0902 0.1117 0.0
C504 C 0.5707 0.10024 0.15392 0.0
C505 C 0.60293 0.12019 0.14103 0.0
N506 N 0.62941 0.14657 0.09989 0.0
N507 N 0.49934 0.08796 0.15283 0.0
C508 C 0.60301 0.12226 0.11308 0.0
C509 C 0.53499 0.09155 0.13967 0.0
N510 N 0.579 0.09169 0.07303 0.0
N511 N 0.57406 0.0896 0.17978 0.0
H512 H 0.47153 0.0856 0.14357 0.0
H513 H 0.49696 0.09242 0.17306 0.0
H514 H 0.60048 0.09401 0.1905 0.0
H515 H 0.55245 0.07225 0.18944 0.0
H516 H 0.6065 0.09624 0.06361 0.0
H517 H 0.55842 0.07508 0.06204 0.0
H518 H 0.62746 0.15159 0.07968 0.0
H519 H 0.65009 0.16539 0.10908 0.0
C520 C 0.11438 0.71126 0.14107 0.0
C521 C 0.15658 0.71273 0.1452 0.0
C522 C 0.16423 0.65144 0.11836 0.0
C523 C 0.1217 0.64833 0.11669 0.0
N524 N 0.05638 0.67001 0.1316 0.0
N525 N 0.22226 0.68406 0.13841 0.0
C526 C 0.09688 0.67664 0.12967 0.0
C527 C 0.1818 0.68275 0.13397 0.0
N528 N 0.09106 0.74402 0.1468 0.0
N529 N 0.18759 0.62522 0.10444 0.0
H530 H 0.23605 0.7082 0.14783 0.0
H531 H 0.24194 0.66091 0.13351 0.0
H532 H 0.17542 0.60141 0.09369 0.0
H533 H 0.21863 0.62798 0.10252 0.0
H534 H 0.06079 0.74614 0.14166 0.0
H535 H 0.10294 0.77097 0.15385 0.0
H536 H 0.0374 0.68751 0.1432 0.0
H537 H 0.04242 0.64453 0.12388 0.0
C538 C 0.56674 0.93619 0.38268 0.0
C539 C 0.53869 0.90949 0.3947 0.0
C540 C 0.57679 0.85144 0.3786 0.0
C541 C 0.60375 0.87775 0.36554 0.0
N542 N 0.6231 0.94463 0.35248 0.0
N543 N 0.51033 0.84256 0.39674 0.0
C544 C 0.59848 0.92009 0.36689 0.0
C545 C 0.54189 0.86733 0.39061 0.0
N546 N 0.56322 0.97669 0.38649 0.0
N547 N 0.58484 0.81109 0.37989 0.0
H548 H 0.48306 0.8532 0.40408 0.0
H549 H 0.50933 0.8122 0.39167 0.0
H550 H 0.61003 0.79806 0.37117 0.0
H551 H 0.56863 0.79115 0.39167 0.0
H552 H 0.58521 0.99752 0.38124 0.0
H553 H 0.53833 0.98955 0.39556 0.0
H554 H 0.6187 0.97547 0.35029 0.0
H555 H 0.64719 0.93362 0.34148 0.0
C556 C 0.3192 0.32047 0.63029 0.0
C557 C 0.34567 0.29083 0.64074 0.0
C558 C 0.40374 0.32784 0.6235 0.0
C559 C 0.37757 0.35658 0.612 0.0
N560 N 0.31057 0.37878 0.60158 0.0
N561 N 0.41145 0.26008 0.63998 0.0
C562 C 0.33524 0.35257 0.61463 0.0
C563 C 0.38747 0.29277 0.63522 0.0
N564 N 0.27902 0.3181 0.63555 0.0
N565 N 0.44436 0.33451 0.62383 0.0
H566 H 0.40035 0.23291 0.64732 0.0
H567 H 0.44128 0.25825 0.63384 0.0
H568 H 0.45768 0.35994 0.61551 0.0
H569 H 0.46443 0.31684 0.63456 0.0
H570 H 0.2586 0.34098 0.63139 0.0
H571 H 0.26618 0.29322 0.64477 0.0
H572 H 0.27948 0.37558 0.60044 0.0
H573 H 0.32162 0.40293 0.59057 0.0
C574 C 0.95667 0.08718 0.86697 0.0
C575 C 0.95657 0.08868 0.89499 0.0
C576 C 0.89185 0.12429 0.89368 0.0
C577 C 0.89134 0.12158 0.86577 0.0
N578 N 0.91545 0.08556 0.82776 0.0
N579 N 0.91526 0.09358 0.93398 0.0
C580 C 0.92115 0.09798 0.85307 0.0
C581 C 0.92115 0.10213 0.90798 0.0
N582 N 0.99081 0.07839 0.85321 0.0
N583 N 0.86673 0.14992 0.90673 0.0
H584 H 0.93517 0.07586 0.94483 0.0
H585 H 0.88841 0.09996 0.9437 0.0
H586 H 0.8462 0.1688 0.89746 0.0
H587 H 0.86933 0.15546 0.92683 0.0
H588 H 0.99265 0.08153 0.83284 0.0
H589 H 0.01833 0.07176 0.86181 0.0
H590 H 0.93484 0.06556 0.81837 0.0
H591 H 0.88889 0.09131 0.81745 0.0
C592 C 0.8466 0.67563 0.58895 0.0
C593 C 0.85756 0.63948 0.602 0.0
C594 C 0.83304 0.66846 0.64329 0.0
C595 C 0.83503 0.70729 0.63148 0.0
N596 N 0.84199 0.74797 0.59223 0.0
N597 N 0.84425 0.5963 0.63909 0.0
C598 C 0.84033 0.71095 0.60394 0.0
C599 C 0.84537 0.63409 0.62853 0.0
N600 N 0.84101 0.67569 0.56237 0.0
N601 N 0.81822 0.66482 0.66825 0.0
H602 H 0.84458 0.57066 0.6273 0.0
H603 H 0.84067 0.59013 0.65901 0.0
H604 H 0.8063 0.68933 0.67837 0.0
H605 H 0.81483 0.63771 0.67826 0.0
H606 H 0.83018 0.70056 0.55203 0.0
H607 H 0.84212 0.64914 0.55142 0.0
H608 H 0.85039 0.75205 0.57265 0.0
H609 H 0.83782 0.77478 0.60244 0.0
C610 C 0.07652 0.08978 0.34968 0.0
C611 C 0.10789 0.11207 0.36185 0.0
C612 C 0.07925 0.093 0.40456 0.0
C613 C 0.04265 0.08147 0.39218 0.0
N614 N 0.006 0.07359 0.35105 0.0
N615 N 0.13612 0.13793 0.40259 0.0
C616 C 0.04118 0.08044 0.36419 0.0
C617 C 0.10897 0.11406 0.38982 0.0
N618 N 0.08052 0.0773 0.32425 0.0
N619 N 0.08579 0.08361 0.43037 0.0
H620 H 0.1575 0.1556 0.39313 0.0
H621 H 0.13477 0.14315 0.42278 0.0
H622 H 0.06552 0.06637 0.44133 0.0
H623 H 0.11326 0.08864 0.43972 0.0
H624 H 0.05979 0.05828 0.31517 0.0
H625 H 0.10689 0.08189 0.3135 0.0
H626 H 0.00342 0.07702 0.33073 0.0
H627 H 0.97855 0.06846 0.36018 0.0
C628 C 0.59633 0.3172 0.11654 0.0
C629 C 0.61991 0.35077 0.10853 0.0
C630 C 0.67994 0.31956 0.12831 0.0
C631 C 0.65606 0.28617 0.13613 0.0
N632 N 0.59532 0.24757 0.13045 0.0
N633 N 0.68489 0.38164 0.10283 0.0
C634 C 0.61541 0.28334 0.12798 0.0
C635 C 0.66202 0.35142 0.11336 0.0
N636 N 0.5553 0.31826 0.11433 0.0
N637 N 0.71959 0.32066 0.13519 0.0
H638 H 0.67257 0.40501 0.09169 0.0
H639 H 0.71614 0.3825 0.10363 0.0
H640 H 0.73421 0.29569 0.14307 0.0
H641 H 0.73782 0.34597 0.13327 0.0
H642 H 0.53641 0.29693 0.12292 0.0
H643 H 0.53958 0.34228 0.10605 0.0
H644 H 0.56707 0.24223 0.1223 0.0
H645 H 0.60875 0.22173 0.1381 0.0
C646 C 0.41942 0.91043 0.90952 0.0
C647 C 0.45529 0.92252 0.89647 0.0
C648 C 0.4201 0.9127 0.85456 0.0
C649 C 0.38977 0.88997 0.86751 0.0
N650 N 0.36386 0.86399 0.90895 0.0
N651 N 0.4901 0.93122 0.85471 0.0
C652 C 0.38974 0.88846 0.89548 0.0
C653 C 0.45567 0.92334 0.86844 0.0
N654 N 0.41369 0.91979 0.93538 0.0
N655 N 0.41489 0.92429 0.829 0.0
H656 H 0.5176 0.93791 0.86333 0.0
H657 H 0.49212 0.92745 0.8344 0.0
H658 H 0.38834 0.91856 0.81869 0.0
H659 H 0.43472 0.94364 0.81933 0.0
H660 H 0.38659 0.91456 0.94512 0.0
H661 H 0.43424 0.93697 0.94605 0.0
H662 H 0.36624 0.85908 0.92915 0.0
H663 H 0.34267 0.84547 0.90009 0.0
C664 C 0.86453 0.36335 0.86072 0.0
C665 C 0.86311 0.3645 0.8887 0.0
C666 C 0.82984 0.29844 0.88897 0.0
C667 C 0.83045 0.29778 0.86096 0.0
N668 N 0.83281 0.33794 0.82133 0.0
N669 N 0.82899 0.34077 0.92765 0.0
C670 C 0.84237 0.33319 0.84727 0.0
C671 C 0.84046 0.3346 0.9022 0.0
N672 N 0.88921 0.38839 0.84673 0.0
N673 N 0.82219 0.26444 0.9033 0.0
H674 H 0.83469 0.36776 0.93745 0.0
H675 H 0.80978 0.32123 0.93768 0.0
H676 H 0.81575 0.23656 0.89512 0.0
H677 H 0.82598 0.26321 0.92364 0.0
H678 H 0.89385 0.38515 0.82657 0.0
H679 H 0.90829 0.40952 0.85513 0.0
H680 H 0.83799 0.3647 0.8111 0.0
H681 H 0.81557 0.31696 0.81107 0.0
C682 C 0.43101 0.09897 0.65561 0.0
C683 C 0.40048 0.12126 0.64257 0.0
C684 C 0.42981 0.10069 0.60056 0.0
C685 C 0.46545 0.08772 0.61356 0.0
N686 N 0.50092 0.08009 0.65515 0.0
N687 N 0.37584 0.14896 0.60135 0.0
C688 C 0.46628 0.08777 0.6416 0.0
C689 C 0.40079 0.12331 0.61464 0.0
N690 N 0.42624 0.08811 0.68135 0.0
N691 N 0.42345 0.09136 0.57475 0.0
H692 H 0.3562 0.16889 0.6105 0.0
H693 H 0.37811 0.15377 0.58113 0.0
H694 H 0.44319 0.07342 0.564 0.0
H695 H 0.39639 0.09743 0.56514 0.0
H696 H 0.44617 0.06896 0.69109 0.0
H697 H 0.40001 0.09428 0.69186 0.0
H698 H 0.50335 0.08425 0.67541 0.0
H699 H 0.52827 0.07355 0.64632 0.0
C700 C 0.65335 0.67284 0.34794 0.0
C701 C 0.66471 0.70879 0.36115 0.0
C702 C 0.65607 0.67291 0.40291 0.0
C703 C 0.63444 0.64184 0.38997 0.0
N704 N 0.60871 0.61571 0.34859 0.0
N705 N 0.67034 0.74392 0.40295 0.0
C706 C 0.63249 0.64223 0.36199 0.0
C707 C 0.66495 0.70907 0.38915 0.0
N708 N 0.66259 0.66773 0.32199 0.0
N709 N 0.66814 0.66795 0.42838 0.0
H710 H 0.67388 0.7721 0.39431 0.0
H711 H 0.6667 0.7454 0.42329 0.0
H712 H 0.66378 0.641 0.43861 0.0
H713 H 0.68661 0.68861 0.43799 0.0
H714 H 0.6579 0.64062 0.31214 0.0
H715 H 0.67918 0.68881 0.31131 0.0
H716 H 0.60343 0.6182 0.32844 0.0
H717 H 0.59108 0.59378 0.35753 0.0
C718 C 0.07313 0.90306 0.15955 0.0
C719 C 0.10443 0.8814 0.14692 0.0
C720 C 0.07563 0.90124 0.10452 0.0
C721 C 0.0394 0.91338 0.11705 0.0
N722 N 0.00292 0.92092 0.15823 0.0
N723 N 0.13025 0.85382 0.10605 0.0
C724 C 0.03797 0.91358 0.14509 0.0
C725 C 0.10472 0.87921 0.11899 0.0
N726 N 0.07706 0.91397 0.1853 0.0
N727 N 0.08239 0.91066 0.07874 0.0
H728 H 0.14981 0.83403 0.11546 0.0
H729 H 0.12844 0.84896 0.08583 0.0
H730 H 0.06252 0.92819 0.06773 0.0
H731 H 0.1098 0.90513 0.06945 0.0
H732 H 0.05656 0.93272 0.19477 0.0
H733 H 0.10314 0.90823 0.19612 0.0
H734 H 1.00005 0.91678 0.17847 0.0
H735 H 0.97577 0.92739 0.14908 0.0
C736 C 0.64753 0.83034 0.85197 0.0
C737 C 0.65988 0.7946 0.86502 0.0
C738 C 0.65124 0.82961 0.90696 0.0
C739 C 0.62883 0.8604 0.89413 0.0
N740 N 0.60168 0.88633 0.85302 0.0
N741 N 0.66997 0.75944 0.90639 0.0
C742 C 0.62632 0.86026 0.86619 0.0
C743 C 0.66142 0.79405 0.89295 0.0
N744 N 0.65632 0.83583 0.82599 0.0
N745 N 0.66327 0.83453 0.93244 0.0
H746 H 0.67663 0.73218 0.89738 0.0
H747 H 0.66688 0.75704 0.92674 0.0
H748 H 0.65811 0.8611 0.94282 0.0
H749 H 0.6824 0.81437 0.94198 0.0
H750 H 0.65067 0.86275 0.81607 0.0
H751 H 0.6738 0.81537 0.81547 0.0
H752 H 0.59622 0.88405 0.83289 0.0
H753 H 0.58344 0.90744 0.86217 0.0
C754 C 0.41417 0.42645 0.1135 0.0
C755 C 0.45452 0.41464 0.11819 0.0
C756 C 0.43111 0.36613 0.15106 0.0
C757 C 0.39087 0.38078 0.14853 0.0
N758 N 0.34773 0.43368 0.13222 0.0
N759 N 0.50186 0.38159 0.14711 0.0
C760 C 0.38343 0.41359 0.13115 0.0
C761 C 0.46312 0.38767 0.13906 0.0
N762 N 0.40497 0.44947 0.09208 0.0
N763 N 0.43903 0.32985 0.16275 0.0
H764 H 0.52642 0.39621 0.13868 0.0
H765 H 0.50904 0.36495 0.16388 0.0
H766 H 0.41699 0.31016 0.16952 0.0
H767 H 0.46747 0.31664 0.16251 0.0
H768 H 0.37551 0.45554 0.08627 0.0
H769 H 0.42683 0.45976 0.07903 0.0
H770 H 0.34185 0.45973 0.12142 0.0
H771 H 0.32621 0.42713 0.14641 0.0
C772 C 0.86863 0.14112 0.36274 0.0
C773 C 0.86801 0.14237 0.39072 0.0
C774 C 0.83636 0.20908 0.38872 0.0
C775 C 0.83531 0.20705 0.36074 0.0
N776 N 0.83603 0.16332 0.32279 0.0
N777 N 0.83611 0.17053 0.42913 0.0
C778 C 0.84654 0.1704 0.34833 0.0
C779 C 0.84673 0.17401 0.40329 0.0
N780 N 0.8923 0.1143 0.34956 0.0
N781 N 0.83055 0.24459 0.40165 0.0
H782 H 0.84143 0.14438 0.44002 0.0
H783 H 0.81781 0.19148 0.43859 0.0
H784 H 0.82527 0.27192 0.39232 0.0
H785 H 0.83528 0.2476 0.42183 0.0
H786 H 0.8965 0.11559 0.32926 0.0
H787 H 0.91104 0.09355 0.35871 0.0
H788 H 0.84062 0.13563 0.31366 0.0
H789 H 0.81855 0.18335 0.31188 0.0
C790 C 0.11393 0.62099 0.61747 0.0
C791 C 0.11281 0.62043 0.64549 0.0
C792 C 0.04465 0.59177 0.64383 0.0
C793 C 0.04643 0.59152 0.61595 0.0
N794 N 0.08933 0.58949 0.57782 0.0
N795 N 0.08328 0.59009 0.68416 0.0
C796 C 0.08332 0.60067 0.60332 0.0
C797 C 0.08017 0.60074 0.65829 0.0
N798 N 0.14194 0.64299 0.60401 0.0
N799 N 0.00901 0.58596 0.65663 0.0
H800 H 0.10974 0.59417 0.6949 0.0
H801 H 0.06154 0.57294 0.69384 0.0
H802 H 0.98191 0.58054 0.64699 0.0
H803 H 0.00583 0.59013 0.67684 0.0
H804 H 0.14054 0.64725 0.58371 0.0
H805 H 0.16411 0.66032 0.61284 0.0
H806 H 0.11692 0.59271 0.56829 0.0
H807 H 0.06835 0.57224 0.56757 0.0
C808 C 0.63874 0.14204 0.64116 0.0
C809 C 0.64094 0.141 0.61322 0.0
C810 C 0.67344 0.20746 0.61343 0.0
C811 C 0.67245 0.20792 0.64145 0.0
N812 N 0.66868 0.16755 0.68104 0.0
N813 N 0.6752 0.16555 0.57457 0.0
C814 C 0.6601 0.17242 0.65496 0.0
C815 C 0.66337 0.17131 0.59999 0.0
N816 N 0.61418 0.11642 0.65478 0.0
N817 N 0.68088 0.24168 0.59929 0.0
H818 H 0.66983 0.13865 0.56458 0.0
H819 H 0.69435 0.18537 0.56473 0.0
H820 H 0.68645 0.26963 0.60764 0.0
H821 H 0.67748 0.24305 0.57892 0.0
H822 H 0.60854 0.11964 0.67483 0.0
H823 H 0.5963 0.09455 0.6461 0.0
H824 H 0.66348 0.14063 0.69108 0.0
H825 H 0.68509 0.18858 0.69178 0.0
C826 C 0.10492 0.37458 0.88765 0.0
C827 C 0.10811 0.38024 0.86006 0.0
C828 C 0.04243 0.41414 0.86013 0.0
C829 C 0.04084 0.41147 0.8881 0.0
N830 N 0.07935 0.40128 0.92822 0.0
N831 N 0.08575 0.41724 0.82189 0.0
C832 C 0.07499 0.39585 0.90176 0.0
C833 C 0.07883 0.40409 0.84694 0.0
N834 N 0.12805 0.34673 0.90045 0.0
N835 N 0.00888 0.42308 0.84573 0.0
H836 H 0.1127 0.41161 0.81204 0.0
H837 H 0.06679 0.43749 0.81227 0.0
H838 H 0.98058 0.42751 0.85388 0.0
H839 H 0.00826 0.42141 0.82527 0.0
H840 H 0.12339 0.33888 0.92008 0.0
H841 H 0.14856 0.32807 0.89106 0.0
H842 H 0.10565 0.39367 0.93826 0.0
H843 H 0.05897 0.41727 0.93962 0.0
C844 C 0.86592 0.85579 0.14349 0.0
C845 C 0.86513 0.85519 0.11552 0.0
C846 C 0.83343 0.78834 0.11702 0.0
C847 C 0.83227 0.7899 0.14501 0.0
N848 N 0.83351 0.83306 0.18329 0.0
N849 N 0.83359 0.82747 0.07681 0.0
C850 C 0.84374 0.82633 0.15767 0.0
C851 C 0.84396 0.82365 0.10268 0.0
N852 N 0.88993 0.8821 0.1569 0.0
N853 N 0.8276 0.753 0.10387 0.0
H854 H 0.83905 0.85375 0.06609 0.0
H855 H 0.81536 0.80664 0.06715 0.0
H856 H 0.82235 0.72554 0.11306 0.0
H857 H 0.83233 0.75026 0.08368 0.0
H858 H 0.89431 0.88025 0.17717 0.0
H859 H 0.90887 0.90286 0.14793 0.0
H860 H 0.83814 0.86068 0.19254 0.0
H861 H 0.81634 0.81287 0.19426 0.0
C862 C 0.42333 0.59299 0.40708 0.0
C863 C 0.45913 0.58199 0.3936 0.0
C864 C 0.42289 0.59205 0.3521 0.0
C865 C 0.39224 0.61363 0.36547 0.0
N866 N 0.36673 0.63808 0.40736 0.0
N867 N 0.49346 0.57587 0.35156 0.0
C868 C 0.39283 0.61454 0.39347 0.0
C869 C 0.45901 0.5821 0.36559 0.0
N870 N 0.41837 0.58296 0.43294 0.0
N871 N 0.4175 0.58096 0.3265 0.0
H872 H 0.5214 0.57053 0.36 0.0
H873 H 0.49494 0.58006 0.33125 0.0
H874 H 0.39058 0.58616 0.31647 0.0
H875 H 0.43769 0.56247 0.31652 0.0
H876 H 0.39135 0.58729 0.44295 0.0
H877 H 0.43954 0.56616 0.44336 0.0
H878 H 0.36955 0.64266 0.42756 0.0
H879 H 0.34484 0.6562 0.39888 0.0
C880 C 0.32703 0.14679 0.11834 0.0
C881 C 0.36814 0.14862 0.11086 0.0
C882 C 0.37285 0.21707 0.12844 0.0
C883 C 0.33346 0.21361 0.13878 0.0
N884 N 0.27367 0.17416 0.14563 0.0
N885 N 0.43262 0.18192 0.11445 0.0
C886 C 0.31061 0.17814 0.13427 0.0
C887 C 0.39174 0.18279 0.1175 0.0
N888 N 0.30346 0.11597 0.10947 0.0
N889 N 0.39188 0.25356 0.12839 0.0
H890 H 0.44808 0.15676 0.10756 0.0
H891 H 0.45156 0.2045 0.12146 0.0
H892 H 0.37816 0.27975 0.13524 0.0
H893 H 0.4192 0.25869 0.1189 0.0
H894 H 0.27243 0.11483 0.11213 0.0
H895 H 0.31462 0.09288 0.09767 0.0
H896 H 0.25725 0.14745 0.14566 0.0
H897 H 0.26056 0.19734 0.15635 0.0
C898 C 0.54354 0.63566 0.89227 0.0
C899 C 0.53785 0.59348 0.89497 0.0
C900 C 0.59701 0.5821 0.86666 0.0
C901 C 0.6046 0.62414 0.86655 0.0
N902 N 0.59004 0.69003 0.88393 0.0
N903 N 0.5601 0.52584 0.88569 0.0
C904 C 0.57947 0.65052 0.88095 0.0
C905 C 0.56482 0.56637 0.88237 0.0
N906 N 0.51336 0.6617 0.89897 0.0
N907 N 0.61991 0.55751 0.85124 0.0
H908 H 0.5356 0.51336 0.89551 0.0
H909 H 0.58121 0.50464 0.87968 0.0
H910 H 0.6445 0.56815 0.84051 0.0
H911 H 0.61354 0.52722 0.84804 0.0
H912 H 0.51437 0.69246 0.89493 0.0
H913 H 0.48526 0.65211 0.90562 0.0
H914 H 0.57506 0.70964 0.89654 0.0
H915 H 0.61623 0.70211 0.87591 0.0
C916 C 0.17209 0.79089 0.61659 0.0
C917 C 0.17183 0.79264 0.6446 0.0
C918 C 0.13778 0.85821 0.64221 0.0
C919 C 0.13947 0.85715 0.61425 0.0
N920 N 0.17349 0.82984 0.57635 0.0
N921 N 0.16922 0.83617 0.6826 0.0
C922 C 0.16175 0.82593 0.60196 0.0
C923 C 0.15969 0.82911 0.65689 0.0
N924 N 0.17925 0.75567 0.60361 0.0
N925 N 0.11332 0.88471 0.65506 0.0
H926 H 0.18667 0.81633 0.69369 0.0
H927 H 0.16391 0.86373 0.69174 0.0
H928 H 0.09469 0.90528 0.64563 0.0
H929 H 0.10841 0.8833 0.67529 0.0
H930 H 0.17527 0.75275 0.58336 0.0
H931 H 0.18518 0.72844 0.61287 0.0
H932 H 0.19254 0.80928 0.56717 0.0
H933 H 0.1683 0.85602 0.56547 0.0
C934 C 0.96059 0.41017 0.3577 0.0
C935 C 0.96101 0.40997 0.38559 0.0
C936 C 0.89342 0.38075 0.38629 0.0
C937 C 0.89268 0.38099 0.35826 0.0
N938 N 0.91881 0.41179 0.31872 0.0
N939 N 0.92133 0.41198 0.42516 0.0
C940 C 0.92406 0.40108 0.34444 0.0
C941 C 0.9251 0.40104 0.39942 0.0
N942 N 0.9951 0.41642 0.34371 0.0
N943 N 0.86633 0.35895 0.40067 0.0
H944 H 0.94345 0.42864 0.43482 0.0
H945 H 0.89452 0.40895 0.43563 0.0
H946 H 0.84333 0.34179 0.39265 0.0
H947 H 0.86918 0.35481 0.42092 0.0
H948 H 0.99672 0.41234 0.32342 0.0
H949 H 0.02279 0.42243 0.3524 0.0
H950 H 0.93961 0.42917 0.30836 0.0
H951 H 0.89157 0.40746 0.3089 0.0
C952 C 0.33883 0.78842 0.39469 0.0
C953 C 0.33948 0.78939 0.36666 0.0
C954 C 0.3746 0.85441 0.36836 0.0
C955 C 0.37125 0.85488 0.39622 0.0
N956 N 0.33761 0.82821 0.43453 0.0
N957 N 0.34473 0.83151 0.32785 0.0
C958 C 0.34913 0.82384 0.40892 0.0
C959 C 0.35283 0.82516 0.35387 0.0
N960 N 0.33139 0.75349 0.40806 0.0
N961 N 0.40074 0.87946 0.35555 0.0
H962 H 0.32768 0.81161 0.31664 0.0
H963 H 0.35097 0.85871 0.3184 0.0
H964 H 0.42021 0.89918 0.36507 0.0
H965 H 0.40654 0.8771 0.33546 0.0
H966 H 0.33486 0.75099 0.42838 0.0
H967 H 0.32599 0.726 0.39903 0.0
H968 H 0.31855 0.80788 0.44399 0.0
H969 H 0.34318 0.85445 0.44519 0.0
C970 C 0.95758 0.58913 0.14607 0.0
C971 C 0.95372 0.58484 0.11849 0.0
C972 C 0.88609 0.61309 0.12014 0.0
C973 C 0.88906 0.61689 0.148 0.0
N974 N 0.9218 0.59216 0.18742 0.0
N975 N 0.90771 0.57359 0.08296 0.0
C976 C 0.92297 0.59959 0.16101 0.0
C977 C 0.91568 0.59048 0.10675 0.0
N978 N 0.99419 0.58511 0.15795 0.0
N979 N 0.85755 0.6331 0.10586 0.0
H980 H 0.9277 0.5531 0.07466 0.0
H981 H 0.87947 0.57494 0.07405 0.0
H982 H 0.83722 0.65349 0.11374 0.0
H983 H 0.85737 0.63304 0.08535 0.0
H984 H 0.99903 0.59247 0.17762 0.0
H985 H 0.02016 0.57704 0.14779 0.0
H986 H 0.94473 0.57704 0.19735 0.0
H987 H 0.89585 0.59645 0.1986 0.0
C988 C 0.1682 0.20869 0.89144 0.0
C989 C 0.16662 0.20808 0.86338 0.0
C990 C 0.12968 0.14404 0.86535 0.0
C991 C 0.13231 0.14399 0.89326 0.0
N992 N 0.16821 0.16843 0.93123 0.0
N993 N 0.16103 0.16566 0.82493 0.0
C994 C 0.15627 0.17376 0.90575 0.0
C995 C 0.15249 0.17253 0.8508 0.0
N996 N 0.17847 0.24274 0.90488 0.0
N997 N 0.10349 0.11926 0.85246 0.0
H998 H 0.17914 0.18489 0.81385 0.0
H999 H 0.1542 0.13859 0.81558 0.0
H1000 H 0.08408 0.09941 0.86188 0.0
H1001 H 0.09799 0.12163 0.83232 0.0
H1002 H 0.17498 0.2453 0.92518 0.0
H1003 H 0.18727 0.26955 0.89612 0.0
H1004 H 0.18861 0.18754 0.94054 0.0
H1005 H 0.16162 0.14232 0.94185 0.0
C1006 C 0.54605 0.41335 0.63779 0.0
C1007 C 0.54649 0.41375 0.60979 0.0
C1008 C 0.61244 0.38028 0.61064 0.0
C1009 C 0.61307 0.38244 0.6386 0.0
N1010 N 0.58692 0.41591 0.67707 0.0
N1011 N 0.58766 0.41071 0.5706 0.0
C1012 C 0.58205 0.40407 0.65157 0.0
C1013 C 0.58222 0.40163 0.59656 0.0
N1014 N 0.51114 0.41853 0.65154 0.0
N1015 N 0.63843 0.3559 0.5973 0.0
H1016 H 0.56706 0.42761 0.55977 0.0
H1017 H 0.61472 0.40552 0.56081 0.0
H1018 H 0.65986 0.33777 0.60632 0.0
H1019 H 0.63582 0.35052 0.57718 0.0
H1020 H 0.50953 0.41466 0.67187 0.0
H1021 H 0.48302 0.42176 0.64282 0.0
H1022 H 0.56628 0.43438 0.68668 0.0
H1023 H 0.61374 0.4114 0.68734 0.0
C1024 C 0.226 0.22889 0.22048 0.0
C1025 C 0.23832 0.26989 0.22204 0.0
C1026 C 0.24376 0.26367 0.27026 0.0
C1027 C 0.23432 0.22191 0.26847 0.0
N1028 N 0.22399 0.16326 0.24142 0.0
N1029 N 0.24594 0.32903 0.24884 0.0
C1030 C 0.22693 0.20425 0.24349 0.0
C1031 C 0.24395 0.28794 0.24709 0.0
N1032 N 0.21209 0.21348 0.19731 0.0
N1033 N 0.25317 0.2803 0.29406 0.0
H1034 H 0.24331 0.34797 0.23254 0.0
H1035 H 0.24554 0.34483 0.26648 0.0
H1036 H 0.24896 0.26571 0.31196 0.0
H1037 H 0.26666 0.3084 0.29617 0.0
H1038 H 0.19808 0.18553 0.19581 0.0
H1039 H 0.21058 0.22973 0.17989 0.0
H1040 H 0.22392 0.14801 0.22356 0.0
H1041 H 0.22588 0.14383 0.2575 0.0
C1042 C 0.0216 0.96004 0.50491 0.0
C1043 C 0.03632 0.99228 0.52051 0.0
C1044 C 0.99054 0.03872 0.49754 0.0
C1045 C 0.9757 0.00651 0.48194 0.0
N1046 N 0.9656 0.93467 0.4796 0.0
N1047 N 0.04687 0.06402 0.52256 0.0
C1048 C 0.98803 0.96659 0.48809 0.0
C1049 C 0.02424 0.03216 0.5142 0.0
N1050 N 0.04154 0.92416 0.5041 0.0
N1051 N 0.97054 0.07456 0.49865 0.0
H1052 H 0.07424 0.06023 0.53231 0.0
H1053 H 0.04165 0.09355 0.51647 0.0
H1054 H 0.94178 0.07848 0.49103 0.0
H1055 H 0.97897 0.09789 0.51116 0.0
H1056 H 0.03338 0.90077 0.49156 0.0
H1057 H 0.07004 0.92022 0.51214 0.0
H1058 H 0.97097 0.90511 0.48557 0.0
H1059 H 0.93818 0.93832 0.46989 0.0
C1060 C 0.25706 0.77219 0.73097 0.0
C1061 C 0.24983 0.73003 0.7324 0.0
C1062 C 0.25158 0.7329 0.78073 0.0
C1063 C 0.25878 0.77509 0.77933 0.0
N1064 N 0.26032 0.83627 0.75372 0.0
N1065 N 0.24872 0.66884 0.75798 0.0
C1066 C 0.25991 0.79505 0.75458 0.0
C1067 C 0.24892 0.71006 0.75713 0.0
N1068 N 0.2616 0.79046 0.70701 0.0
N1069 N 0.24671 0.71456 0.80464 0.0
H1070 H 0.24817 0.65086 0.7412 0.0
H1071 H 0.25295 0.65207 0.77506 0.0
H1072 H 0.25237 0.7287 0.8225 0.0
H1073 H 0.23532 0.68558 0.80698 0.0
H1074 H 0.27275 0.81951 0.70454 0.0
H1075 H 0.25603 0.77613 0.6892 0.0
H1076 H 0.25634 0.85308 0.73662 0.0
H1077 H 0.2609 0.85428 0.77047 0.0
C1078 C 0.51625 0.99625 0.03151 0.0
C1079 C 0.47421 0.00362 0.02938 0.0
C1080 C 0.47951 0.00387 0.98118 0.0
C1081 C 0.52123 0.9946 0.98317 0.0
N1082 N 0.57903 0.97878 0.01009 0.0
N1083 N 0.41441 0.00507 0.00262 0.0
C1084 C 0.53937 0.98944 0.00831 0.0
C1085 C 0.45551 0.00511 0.00433 0.0
N1086 N 0.53463 0.99801 0.05556 0.0
N1087 N 0.46243 0.01136 0.9572 0.0
H1088 H 0.39566 0.00459 0.01905 0.0
H1089 H 0.39874 0.0013 0.98506 0.0
H1090 H 0.47692 0.00646 0.93937 0.0
H1091 H 0.43405 0.02418 0.95493 0.0
H1092 H 0.56565 0.9976 0.05827 0.0
H1093 H 0.5193 0.0032 0.07305 0.0
H1094 H 0.5925 0.96848 0.02732 0.0
H1095 H 0.59856 0.97855 0.99408 0.0
C1096 C 0.25489 0.7074 0.25542 0.0
C1097 C 0.25574 0.72822 0.27974 0.0
C1098 C 0.24248 0.79216 0.25669 0.0
C1099 C 0.24424 0.77163 0.23216 0.0
N1100 N 0.25627 0.71028 0.20791 0.0
N1101 N 0.25278 0.79045 0.304 0.0
C1102 C 0.25196 0.72949 0.23147 0.0
C1103 C 0.24972 0.77058 0.28054 0.0
N1104 N 0.25412 0.66618 0.2553 0.0
N1105 N 0.23462 0.83261 0.25715 0.0
H1106 H 0.25817 0.77599 0.32184 0.0
H1107 H 0.25275 0.8216 0.30595 0.0
H1108 H 0.23476 0.85072 0.24039 0.0
H1109 H 0.22687 0.84846 0.27402 0.0
H1110 H 0.24874 0.64901 0.23856 0.0
H1111 H 0.25489 0.64878 0.27239 0.0
H1112 H 0.26752 0.68118 0.20604 0.0
H1113 H 0.25088 0.72409 0.18993 0.0
C1114 C 0.5223 0.00185 0.47936 0.0
C1115 C 0.47992 0.99595 0.48071 0.0
C1116 C 0.48297 0.99989 0.52909 0.0
C1117 C 0.52532 0.00578 0.52767 0.0
N1118 N 0.58641 0.00417 0.50221 0.0
N1119 N 0.41885 0.99721 0.5062 0.0
C1120 C 0.54523 0.00503 0.50297 0.0
C1121 C 0.46002 0.99662 0.50545 0.0
N1122 N 0.54074 0.00488 0.45545 0.0
N1123 N 0.4646 0.99682 0.55308 0.0
H1124 H 0.40093 0.99621 0.48938 0.0
H1125 H 0.40213 0.00241 0.52314 0.0
H1126 H 0.47917 0.00253 0.5708 0.0
H1127 H 0.43522 0.98678 0.55569 0.0
H1128 H 0.57018 0.01474 0.45279 0.0
H1129 H 0.52584 0.99992 0.43785 0.0
H1130 H 0.60311 0.99883 0.48528 0.0
H1131 H 0.60441 0.00503 0.51899 0.0
C1132 C 0.25722 0.22945 0.77746 0.0
C1133 C 0.25101 0.27177 0.7767 0.0
C1134 C 0.25482 0.27106 0.72847 0.0
C1135 C 0.26252 0.22891 0.72908 0.0
N1136 N 0.2732 0.16785 0.75403 0.0
N1137 N 0.25265 0.33409 0.7524 0.0
C1138 C 0.2647 0.20817 0.75359 0.0
C1139 C 0.25195 0.29287 0.75244 0.0
N1140 N 0.25402 0.20929 0.80086 0.0
N1141 N 0.25038 0.29052 0.70495 0.0
H1142 H 0.25183 0.35125 0.76954 0.0
H1143 H 0.25803 0.35147 0.73571 0.0
H1144 H 0.25568 0.27685 0.68697 0.0
H1145 H 0.23917 0.31966 0.70312 0.0
H1146 H 0.25396 0.1781 0.8027 0.0
H1147 H 0.24867 0.22357 0.81872 0.0
H1148 H 0.28108 0.152 0.77093 0.0
H1149 H 0.2737 0.14996 0.73723 0.0
C1150 C 0.97829 0.00097 0.98071 0.0
C1151 C 0.02039 0.0086 0.98175 0.0
C1152 C 0.01922 0.0014 0.02995 0.0
C1153 C 0.97719 0.9935 0.02888 0.0
N1154 N 0.91518 0.99403 0.00427 0.0
N1155 N 0.08236 0.00854 0.00643 0.0
C1156 C 0.95636 0.99503 0.00449 0.0
C1157 C 0.04118 0.00733 0.00617 0.0
N1158 N 0.95921 0.99884 0.95691 0.0
N1159 N 0.03819 0.00376 0.05378 0.0
H1160 H 0.09975 0.01167 0.9895 0.0
H1161 H 0.0998 0.0029 0.02302 0.0
H1162 H 0.02448 0.99614 0.07151 0.0
H1163 H 0.06711 0.01513 0.05631 0.0
H1164 H 0.93026 0.98754 0.95439 0.0
H1165 H 0.97281 0.00666 0.93919 0.0
H1166 H 0.89771 0.99986 0.98772 0.0
H1167 H 0.89782 0.99098 0.02123 0.0
C1168 C 0.73161 0.78334 0.74075 0.0
C1169 C 0.76688 0.77095 0.72741 0.0
C1170 C 0.77825 0.71904 0.76149 0.0
C1171 C 0.74126 0.72965 0.7737 0.0
N1172 N 0.67922 0.76728 0.77171 0.0
N1173 N 0.82361 0.7262 0.72458 0.0
C1174 C 0.71689 0.7603 0.7623 0.0
C1175 C 0.79039 0.73886 0.73784 0.0
N1176 N 0.71333 0.81871 0.73378 0.0
N1177 N 0.80164 0.68941 0.77232 0.0
H1178 H 0.83463 0.74167 0.7085 0.0
H1179 H 0.83925 0.69977 0.72857 0.0
H1180 H 0.79144 0.66991 0.78697 0.0
H1181 H 0.83154 0.68436 0.76726 0.0
H1182 H 0.69024 0.83187 0.74461 0.0
H1183 H 0.72413 0.83743 0.71887 0.0
H1184 H 0.65812 0.78538 0.76222 0.0
H1185 H 0.66788 0.75226 0.78786 0.0
C1186 C 0.7436 0.2073 0.25028 0.0
C1187 C 0.74233 0.22884 0.22611 0.0
C1188 C 0.7516 0.2927 0.2498 0.0
C1189 C 0.75296 0.27111 0.27392 0.0
N1190 N 0.74438 0.20893 0.29796 0.0
N1191 N 0.74978 0.29115 0.20218 0.0
C1192 C 0.74713 0.22873 0.27441 0.0
C1193 C 0.7478 0.2713 0.22569 0.0
N1194 N 0.74449 0.16608 0.24999 0.0
N1195 N 0.75097 0.33394 0.25014 0.0
H1196 H 0.74457 0.27704 0.18433 0.0
H1197 H 0.75889 0.32095 0.20003 0.0
H1198 H 0.75222 0.35078 0.2674 0.0
H1199 H 0.74562 0.35185 0.2337 0.0
H1200 H 0.75009 0.14834 0.26648 0.0
H1201 H 0.74333 0.1492 0.23274 0.0
H1202 H 0.73456 0.17931 0.2999 0.0
H1203 H 0.74991 0.22256 0.31602 0.0
C1204 C 0.74894 0.27076 0.77556 0.0
C1205 C 0.75932 0.22918 0.77455 0.0
C1206 C 0.75894 0.23212 0.72608 0.0
C1207 C 0.75005 0.274 0.72724 0.0
N1208 N 0.74584 0.33489 0.75275 0.0
N1209 N 0.77666 0.17044 0.74902 0.0
C1210 C 0.74725 0.29371 0.75189 0.0
C1211 C 0.76544 0.21007 0.74984 0.0
N1212 N 0.74096 0.28874 0.79915 0.0
N1213 N 0.75906 0.21288 0.70231 0.0
H1214 H 0.77633 0.15151 0.76538 0.0
H1215 H 0.78774 0.15631 0.73229 0.0
H1216 H 0.75389 0.2274 0.68448 0.0
H1217 H 0.76108 0.18183 0.70005 0.0
H1218 H 0.72722 0.3168 0.80081 0.0
H1219 H 0.74656 0.27533 0.81729 0.0
H1220 H 0.74867 0.35148 0.76999 0.0
H1221 H 0.74597 0.35297 0.73596 0.0
C1222 C 0.73474 0.79472 0.25165 0.0
C1223 C 0.73996 0.7762 0.2767 0.0
C1224 C 0.74931 0.71054 0.25532 0.0
C1225 C 0.74795 0.7296 0.23036 0.0
N1226 N 0.74172 0.79008 0.20424 0.0
N1227 N 0.75568 0.71675 0.30245 0.0
C1228 C 0.74074 0.77169 0.22834 0.0
C1229 C 0.74852 0.73428 0.27854 0.0
N1230 N 0.72482 0.83465 0.25011 0.0
N1231 N 0.7486 0.66939 0.25687 0.0
H1232 H 0.75103 0.73106 0.32035 0.0
H1233 H 0.76804 0.68811 0.30459 0.0
H1234 H 0.74759 0.65083 0.24036 0.0
H1235 H 0.74469 0.65352 0.27436 0.0
H1236 H 0.71462 0.84864 0.23304 0.0
H1237 H 0.72529 0.85399 0.26621 0.0
H1238 H 0.74087 0.82109 0.20143 0.0
H1239 H 0.74653 0.77472 0.18671 0.0
C1240 C 0.5396 0.49621 0.00498 0.0
C1241 C 0.51881 0.50037 0.02928 0.0
C1242 C 0.45544 0.51071 0.0053 0.0
C1243 C 0.47644 0.50861 0.98102 0.0
N1244 N 0.53955 0.50555 0.95773 0.0
N1245 N 0.45835 0.52 0.0524 0.0
C1246 C 0.51879 0.50273 0.98084 0.0
C1247 C 0.47727 0.5105 0.02939 0.0
N1248 N 0.57962 0.48656 0.00493 0.0
N1249 N 0.41428 0.51027 0.00543 0.0
H1250 H 0.47184 0.51777 0.0708 0.0
H1251 H 0.42976 0.53278 0.05312 0.0
H1252 H 0.39701 0.50882 0.98833 0.0
H1253 H 0.3972 0.50703 0.02248 0.0
H1254 H 0.59499 0.4768 0.98829 0.0
H1255 H 0.59751 0.48712 0.02177 0.0
H1256 H 0.57077 0.5069 0.95647 0.0
H1257 H 0.52556 0.50955 0.93968 0.0
C1258 C 0.03956 0.51886 0.49074 0.0
C1259 C 0.02749 0.48305 0.47782 0.0
C1260 C 0.97501 0.4723 0.51126 0.0
C1261 C 0.98684 0.50831 0.52407 0.0
N1262 N 0.02495 0.57005 0.52285 0.0
N1263 N 0.98993 0.42096 0.47926 0.0
C1264 C 0.01757 0.53277 0.5129 0.0
C1265 C 0.99707 0.45836 0.48912 0.0
N1266 N 0.07405 0.53806 0.48296 0.0
N1267 N 0.94051 0.4531 0.51896 0.0
H1268 H 0.00487 0.41012 0.46298 0.0
H1269 H 0.97203 0.39941 0.48847 0.0
H1270 H 0.92223 0.46366 0.53407 0.0
H1271 H 0.9274 0.42945 0.50864 0.0
H1272 H 0.08727 0.5616 0.49332 0.0
H1273 H 0.09221 0.52769 0.4677 0.0
H1274 H 0.04278 0.59165 0.51363 0.0
H1275 H 0.01058 0.58058 0.53944 0.0
C1276 C 0.04171 0.50145 0.99966 0.0
C1277 C 0.02017 0.52057 0.0202 0.0
C1278 C 0.95931 0.52065 0.99285 0.0
C1279 C 0.98116 0.50316 0.97198 0.0
N1280 N 0.04598 0.48994 0.95269 0.0
N1281 N 0.96368 0.56226 0.03129 0.0
C1282 C 0.02329 0.49742 0.97447 0.0
C1283 C 0.98038 0.5341 0.0154 0.0
N1284 N 0.07958 0.48704 0.00411 0.0
N1285 N 0.91852 0.52511 0.99115 0.0
H1286 H 0.97977 0.57455 0.04669 0.0
H1287 H 0.93653 0.57666 0.02718 0.0
H1288 H 0.90201 0.51748 0.97443 0.0
H1289 H 0.90086 0.53383 0.00709 0.0
H1290 H 0.09492 0.46918 0.9906 0.0
H1291 H 0.0945 0.49072 0.022 0.0
H1292 H 0.07733 0.48968 0.95296 0.0
H1293 H 0.03353 0.48753 0.93394 0.0
C1294 C 0.4842 0.49908 0.47869 0.0
C1295 C 0.52604 0.50815 0.47982 0.0
C1296 C 0.52332 0.50635 0.52826 0.0
C1297 C 0.48115 0.49926 0.52699 0.0
N1298 N 0.42013 0.49784 0.50143 0.0
N1299 N 0.58533 0.52298 0.50557 0.0
C1300 C 0.46129 0.49779 0.50232 0.0
C1301 C 0.54543 0.51293 0.50459 0.0
N1302 N 0.46597 0.49186 0.45505 0.0
N1303 N 0.54274 0.50455 0.55197 0.0
H1304 H 0.60417 0.52269 0.4892 0.0
H1305 H 0.59975 0.53313 0.52247 0.0
H1306 H 0.52811 0.49964 0.56976 0.0
H1307 H 0.57386 0.50477 0.55411 0.0
H1308 H 0.43745 0.47913 0.45334 0.0
H1309 H 0.47962 0.49698 0.43694 0.0
H1310 H 0.40364 0.50165 0.4842 0.0
H1311 H 0.40215 0.49824 0.51823 0.0
C1312 C 0.29418 0.08961 0.39084 0.0
C1313 C 0.29214 0.09379 0.36301 0.0
C1314 C 0.34092 0.03859 0.35938 0.0
C1315 C 0.34873 0.04024 0.38688 0.0
N1316 N 0.33883 0.07757 0.42735 0.0
N1317 N 0.32359 0.07814 0.3212 0.0
C1318 C 0.32712 0.06866 0.40228 0.0
C1319 C 0.31833 0.06998 0.34731 0.0
N1320 N 0.26405 0.10387 0.4065 0.0
N1321 N 0.35322 0.00643 0.34476 0.0
H1322 H 0.31093 0.10299 0.31183 0.0
H1323 H 0.34487 0.06315 0.30977 0.0
H1324 H 0.36628 0.98082 0.353 0.0
H1325 H 0.34537 0.00301 0.32503 0.0
H1326 H 0.26334 0.09868 0.42673 0.0
H1327 H 0.23737 0.1158 0.39904 0.0
H1328 H 0.32532 0.10038 0.43829 0.0
H1329 H 0.36505 0.06636 0.43586 0.0
C1330 C 0.16509 0.04589 0.64317 0.0
C1331 C 0.15922 0.04308 0.61554 0.0
C1332 C 0.21401 0.09177 0.60951 0.0
C1333 C 0.21453 0.10001 0.63694 0.0
N1334 N 0.18003 0.09148 0.67866 0.0
N1335 N 0.17131 0.07415 0.57301 0.0
C1336 C 0.18707 0.07899 0.65351 0.0
C1337 C 0.18169 0.0691 0.59879 0.0
N1338 N 0.15142 0.0164 0.65967 0.0
N1339 N 0.24495 0.10377 0.59366 0.0
H1340 H 0.14551 0.06164 0.56473 0.0
H1341 H 0.18542 0.09522 0.56087 0.0
H1342 H 0.27118 0.11696 0.60085 0.0
H1343 H 0.24673 0.09558 0.5739 0.0
H1344 H 0.15791 0.01618 0.67974 0.0
H1345 H 0.13847 0.98973 0.65297 0.0
H1346 H 0.15792 0.07847 0.6905 0.0
H1347 H 0.19203 0.11788 0.68643 0.0
C1348 C 0.2167 0.94342 0.87551 0.0
C1349 C 0.20469 0.90318 0.87031 0.0
C1350 C 0.13673 0.9182 0.88654 0.0
C1351 C 0.14788 0.95915 0.8898 0.0
N1352 N 0.19628 0.01243 0.88378 0.0
N1353 N 0.15195 0.85358 0.86675 0.0
C1354 C 0.18731 0.97224 0.88332 0.0
C1355 C 0.16434 0.89088 0.87475 0.0
N1356 N 0.25647 0.95372 0.87395 0.0
N1357 N 0.10026 0.90506 0.89558 0.0
H1358 H 0.1712 0.8327 0.85806 0.0
H1359 H 0.12197 0.84449 0.86668 0.0
H1360 H 0.0791 0.92416 0.90413 0.0
H1361 H 0.0922 0.8748 0.89659 0.0
H1362 H 0.26783 0.98128 0.88024 0.0
H1363 H 0.27884 0.93344 0.86839 0.0
H1364 H 0.22301 0.02443 0.87652 0.0
H1365 H 0.17558 0.03436 0.88945 0.0
C1366 C 0.27935 0.94324 0.13928 0.0
C1367 C 0.29086 0.90215 0.14144 0.0
C1368 C 0.35715 0.9185 0.12282 0.0
C1369 C 0.34663 0.95994 0.12247 0.0
N1370 N 0.30062 0.01284 0.13418 0.0
N1371 N 0.3429 0.85163 0.13972 0.0
C1372 C 0.30851 0.97262 0.1318 0.0
C1373 C 0.33035 0.89 0.13436 0.0
N1374 N 0.24013 0.95395 0.14334 0.0
N1375 N 0.39231 0.90619 0.11145 0.0
H1376 H 0.32437 0.82992 0.1483 0.0
H1377 H 0.37262 0.84221 0.13779 0.0
H1378 H 0.41321 0.92617 0.10343 0.0
H1379 H 0.39946 0.87609 0.1082 0.0
H1380 H 0.22887 0.98257 0.13939 0.0
H1381 H 0.21784 0.93327 0.14851 0.0
H1382 H 0.27507 0.02424 0.14335 0.0
H1383 H 0.32144 0.03499 0.12901 0.0
C1384 C 0.6715 0.88918 0.63832 0.0
C1385 C 0.71271 0.90017 0.63977 0.0
C1386 C 0.69598 0.96811 0.62383 0.0
C1387 C 0.65547 0.95582 0.61988 0.0
N1388 N 0.60557 0.90307 0.61992 0.0
N1389 N 0.76542 0.94824 0.63115 0.0
C1390 C 0.64339 0.91596 0.62634 0.0
C1391 C 0.7253 0.93922 0.63187 0.0
N1392 N 0.65902 0.85352 0.64907 0.0
N1393 N 0.70614 0.00776 0.6208 0.0
H1394 H 0.78766 0.92813 0.63726 0.0
H1395 H 0.77694 0.97441 0.62272 0.0
H1396 H 0.6855 0.02978 0.61512 0.0
H1397 H 0.73404 0.01952 0.62606 0.0
H1398 H 0.62888 0.84566 0.6513 0.0
H1399 H 0.67872 0.83311 0.65791 0.0
H1400 H 0.5964 0.87316 0.62134 0.0
H1401 H 0.58415 0.92161 0.61107 0.0
C1402 C 0.80868 0.97089 0.38303 0.0
C1403 C 0.8479 0.95741 0.38974 0.0
C1404 C 0.83069 0.88922 0.3749 0.0
C1405 C 0.79051 0.90191 0.37019 0.0
N1406 N 0.73932 0.95302 0.37358 0.0
N1407 N 0.89441 0.90265 0.39643 0.0
C1408 C 0.77896 0.94232 0.37526 0.0
C1409 C 0.85841 0.91625 0.38688 0.0
N1410 N 0.80024 0.01118 0.38323 0.0
N1411 N 0.84294 0.85192 0.36686 0.0
H1412 H 0.9156 0.92149 0.40522 0.0
H1413 H 0.90187 0.87225 0.39769 0.0
H1414 H 0.82379 0.83129 0.35781 0.0
H1415 H 0.87287 0.84268 0.36702 0.0
H1416 H 0.77372 0.02338 0.37579 0.0
H1417 H 0.82117 0.03294 0.38887 0.0
H1418 H 0.72828 0.9808 0.37968 0.0
H1419 H 0.71673 0.93284 0.36821 0.0
C1420 C 0.83162 0.10992 0.1343 0.0
C1421 C 0.79051 0.09895 0.13665 0.0
C1422 C 0.80668 0.02997 0.12283 0.0
C1423 C 0.84721 0.0418 0.11852 0.0
N1424 N 0.89718 0.09438 0.11605 0.0
N1425 N 0.73743 0.05067 0.12984 0.0
C1426 C 0.85944 0.08214 0.12321 0.0
C1427 C 0.77761 0.05951 0.13002 0.0
N1428 N 0.84434 0.14647 0.14345 0.0
N1429 N 0.79631 0.99022 0.121 0.0
H1430 H 0.71538 0.07145 0.13519 0.0
H1431 H 0.72563 0.02395 0.12243 0.0
H1432 H 0.81679 0.96777 0.1159 0.0
H1433 H 0.76838 0.97892 0.12662 0.0
H1434 H 0.87452 0.15443 0.14517 0.0
H1435 H 0.82482 0.16786 0.15133 0.0
H1436 H 0.90641 0.12434 0.11615 0.0
H1437 H 0.91845 0.07504 0.10786 0.0
C1438 C 0.6734 0.07231 0.90695 0.0
C1439 C 0.65146 0.04538 0.89059 0.0
C1440 C 0.6807 0.07894 0.85203 0.0
C1441 C 0.70722 0.10134 0.86842 0.0
N1442 N 0.73606 0.10819 0.91196 0.0
N1443 N 0.64543 0.01587 0.84722 0.0
C1444 C 0.70582 0.09474 0.89605 0.0
C1445 C 0.65842 0.04645 0.86301 0.0
N1446 N 0.66238 0.07847 0.9325 0.0
N1447 N 0.67482 0.08958 0.82635 0.0
H1448 H 0.63221 0.98968 0.85454 0.0
H1449 H 0.6527 0.0143 0.8273 0.0
H1450 H 0.68723 0.11534 0.81791 0.0
H1451 H 0.6533 0.07567 0.81451 0.0
H1452 H 0.67593 0.1003 0.94426 0.0
H1453 H 0.63664 0.06596 0.94085 0.0
H1454 H 0.73742 0.10117 0.93195 0.0
H1455 H 0.76223 0.12154 0.90475 0.0
C1456 C 0.83335 0.61809 0.86813 0.0
C1457 C 0.79298 0.60522 0.86429 0.0
C1458 C 0.81294 0.53564 0.87488 0.0
C1459 C 0.85235 0.5492 0.88103 0.0
N1460 N 0.89905 0.60395 0.88692 0.0
N1461 N 0.74286 0.55295 0.86737 0.0
C1462 C 0.86231 0.59061 0.87853 0.0
C1463 C 0.7824 0.56424 0.86847 0.0
N1464 N 0.84447 0.65616 0.86082 0.0
N1465 N 0.805 0.49524 0.8745 0.0
H1466 H 0.71968 0.57303 0.86297 0.0
H1467 H 0.73253 0.5246 0.87296 0.0
H1468 H 0.82657 0.47354 0.87914 0.0
H1469 H 0.77825 0.483 0.86747 0.0
H1470 H 0.87422 0.66596 0.86033 0.0
H1471 H 0.82432 0.67711 0.85306 0.0
H1472 H 0.90646 0.6343 0.88863 0.0
H1473 H 0.92132 0.58469 0.89407 0.0
C1474 C 0.71531 0.55649 0.13635 0.0
C1475 C 0.70311 0.59705 0.14021 0.0
C1476 C 0.63607 0.58086 0.1227 0.0
C1477 C 0.64722 0.53968 0.12086 0.0
N1478 N 0.69533 0.48697 0.12903 0.0
N1479 N 0.65024 0.64674 0.14104 0.0
C1480 C 0.68633 0.52712 0.12851 0.0
C1481 C 0.66306 0.60898 0.13438 0.0
N1482 N 0.75493 0.54637 0.13928 0.0
N1483 N 0.60011 0.5934 0.1125 0.0
H1484 H 0.66898 0.66824 0.14958 0.0
H1485 H 0.62028 0.65575 0.14015 0.0
H1486 H 0.57923 0.57376 0.10417 0.0
H1487 H 0.59225 0.62358 0.11036 0.0
H1488 H 0.76667 0.51844 0.1341 0.0
H1489 H 0.77693 0.56707 0.14489 0.0
H1490 H 0.72173 0.47532 0.13701 0.0
H1491 H 0.67486 0.46482 0.12334 0.0
C1492 C 0.72004 0.43906 0.37121 0.0
C1493 C 0.70727 0.39897 0.36626 0.0
C1494 C 0.64045 0.4148 0.38409 0.0
C1495 C 0.65217 0.45566 0.387 0.0
N1496 N 0.70093 0.50832 0.37999 0.0
N1497 N 0.65379 0.34999 0.36402 0.0
C1498 C 0.69143 0.46825 0.37969 0.0
C1499 C 0.66706 0.38715 0.37168 0.0
N1500 N 0.75982 0.44887 0.3687 0.0
N1501 N 0.6044 0.40205 0.39406 0.0
H1502 H 0.67229 0.32886 0.3549 0.0
H1503 H 0.62371 0.34127 0.36464 0.0
H1504 H 0.58401 0.42135 0.40319 0.0
H1505 H 0.59609 0.37187 0.3953 0.0
H1506 H 0.77187 0.47628 0.37472 0.0
H1507 H 0.78159 0.42831 0.36258 0.0
H1508 H 0.72743 0.52 0.37217 0.0
H1509 H 0.68084 0.53049 0.38616 0.0
C1510 C 0.83556 0.43259 0.5973 0.0
C1511 C 0.85707 0.45908 0.61429 0.0
C1512 C 0.82673 0.42373 0.65186 0.0
C1513 C 0.80012 0.40253 0.63488 0.0
N1514 N 0.77267 0.39762 0.59084 0.0
N1515 N 0.86143 0.48657 0.65844 0.0
C1516 C 0.80247 0.41016 0.6074 0.0
C1517 C 0.84924 0.45675 0.6418 0.0
N1518 N 0.84764 0.42669 0.57196 0.0
N1519 N 0.83246 0.41153 0.67726 0.0
H1520 H 0.87451 0.51331 0.65202 0.0
H1521 H 0.85344 0.48697 0.67827 0.0
H1522 H 0.82013 0.38516 0.68494 0.0
H1523 H 0.85394 0.42469 0.68949 0.0
H1524 H 0.83423 0.40538 0.55973 0.0
H1525 H 0.87423 0.4385 0.56441 0.0
H1526 H 0.77213 0.4054 0.57096 0.0
H1527 H 0.74616 0.38424 0.59743 0.0
C1528 C 0.1444 0.42184 0.10316 0.0
C1529 C 0.14714 0.46292 0.11043 0.0
C1530 C 0.20759 0.44779 0.13655 0.0
C1531 C 0.20271 0.40581 0.13136 0.0
N1532 N 0.15942 0.35287 0.11496 0.0
N1533 N 0.17793 0.51466 0.13667 0.0
C1534 C 0.16936 0.39281 0.1159 0.0
C1535 C 0.17774 0.47576 0.12791 0.0
N1536 N 0.11783 0.41044 0.08406 0.0
N1537 N 0.24145 0.46144 0.14887 0.0
H1538 H 0.15776 0.53642 0.12992 0.0
H1539 H 0.19615 0.52474 0.15197 0.0
H1540 H 0.26371 0.44254 0.15608 0.0
H1541 H 0.24914 0.49177 0.15012 0.0
H1542 H 0.11758 0.38174 0.07582 0.0
H1543 H 0.09838 0.43064 0.07479 0.0
H1544 H 0.13318 0.3422 0.10621 0.0
H1545 H 0.1746 0.33071 0.12556 0.0
C1546 C 0.36147 0.41697 0.88641 0.0
C1547 C 0.35019 0.45806 0.88848 0.0
C1548 C 0.28234 0.44146 0.87247 0.0
C1549 C 0.29458 0.40095 0.86849 0.0
N1550 N 0.34753 0.35133 0.86761 0.0
N1551 N 0.30217 0.51088 0.88022 0.0
C1552 C 0.33461 0.38898 0.87444 0.0
C1553 C 0.3112 0.47071 0.88062 0.0
N1554 N 0.39742 0.40443 0.89662 0.0
N1555 N 0.24275 0.45164 0.86942 0.0
H1556 H 0.32239 0.53303 0.88629 0.0
H1557 H 0.27597 0.52257 0.87198 0.0
H1558 H 0.22078 0.43104 0.86362 0.0
H1559 H 0.23096 0.4795 0.87471 0.0
H1560 H 0.40542 0.37426 0.89855 0.0
H1561 H 0.41816 0.42409 0.90511 0.0
H1562 H 0.37747 0.34229 0.86864 0.0
H1563 H 0.32892 0.32999 0.85877 0.0
C1564 C 0.31525 0.53128 0.62664 0.0
C1565 C 0.35563 0.5433 0.62187 0.0
C1566 C 0.34059 0.61057 0.63944 0.0
C1567 C 0.29947 0.59965 0.642 0.0
N1568 N 0.24623 0.55163 0.63498 0.0
N1569 N 0.40547 0.59606 0.61985 0.0
C1570 C 0.2864 0.56049 0.63482 0.0
C1571 C 0.36803 0.58337 0.62733 0.0
N1572 N 0.30484 0.49162 0.62424 0.0
N1573 N 0.35371 0.64652 0.64934 0.0
H1574 H 0.42647 0.57723 0.61091 0.0
H1575 H 0.41464 0.62603 0.62048 0.0
H1576 H 0.33452 0.6674 0.65809 0.0
H1577 H 0.38397 0.65427 0.65087 0.0
H1578 H 0.27709 0.48005 0.63002 0.0
H1579 H 0.32523 0.46943 0.61855 0.0
H1580 H 0.23423 0.52525 0.62722 0.0
H1581 H 0.22434 0.57212 0.64103 0.0
C1582 C 0.14006 0.58116 0.38745 0.0
C1583 C 0.1515 0.54003 0.38868 0.0
C1584 C 0.21989 0.55805 0.37455 0.0
C1585 C 0.20737 0.59857 0.37093 0.0
N1586 N 0.15419 0.64795 0.37033 0.0
N1587 N 0.20041 0.4881 0.38027 0.0
C1588 C 0.16711 0.61 0.37652 0.0
C1589 C 0.19097 0.52813 0.38144 0.0
N1590 N 0.10376 0.59288 0.3975 0.0
N1591 N 0.25974 0.54843 0.37229 0.0
H1592 H 0.18015 0.46537 0.38534 0.0
H1593 H 0.2271 0.4772 0.3723 0.0
H1594 H 0.2818 0.56956 0.3675 0.0
H1595 H 0.27152 0.52045 0.37741 0.0
H1596 H 0.0955 0.62287 0.39995 0.0
H1597 H 0.08306 0.57264 0.40549 0.0
H1598 H 0.12415 0.65673 0.37109 0.0
H1599 H 0.17301 0.66995 0.36236 0.0
loop_
_geom_bond_atom_site_label_1
_geom_bond_atom_site_label_2
_geom_bond_distance
_geom_bond_site_symmetry_2
_ccdc_geom_bond_type
Co0 O1 2.216 . S
Co0 O2 2.091 . S
Co0 O4 2.004 . S
Co0 O10 2.021 . S
Co0 O12 2.137 . S
Co0 O13 2.244 . S
O1 Co0 2.216 . S
O1 C8 1.247 . S
O2 Co0 2.091 . S
O2 C8 1.261 . S
C3 O12 1.247 . S
C3 O13 1.272 . S
O4 Co0 2.004 . S
O4 C9 1.259 . S
Co5 O6 2.061 . S
Co5 O11 2.052 . S
Co5 O13 2.135 . S
O6 Co5 2.061 . S
O6 C9 1.235 . S
C7 O10 1.238 . S
C7 O11 1.241 . S
C8 O1 1.247 . S
C8 O2 1.261 . S
C9 O4 1.259 . S
C9 O6 1.235 . S
O10 Co0 2.021 . S
O10 C7 1.238 . S
O11 Co5 2.052 . S
O11 C7 1.241 . S
O12 Co0 2.137 . S
O12 C3 1.247 . S
O13 Co0 2.244 . S
O13 C3 1.272 . S
O13 Co5 2.135 . S
Co14 O15 2.216 1_565 S
Co14 O16 2.091 1_565 S
Co14 O18 1.993 1_455 S
Co14 O24 2.021 . S
Co14 O26 2.137 1_565 S
Co14 O27 2.244 . S
O15 Co14 2.216 1_545 S
O15 C22 1.247 . S
O16 Co14 2.091 1_545 S
O16 C22 1.261 . S
C17 O26 1.247 1_565 S
C17 O27 1.272 . S
O18 Co14 1.993 1_655 S
O18 C23 1.266 . S
Co19 O20 2.061 1_455 S
Co19 O25 2.052 . S
Co19 O27 2.135 . S
O20 Co19 2.061 1_655 S
O20 C23 1.235 . S
C21 O24 1.238 . S
C21 O25 1.241 . S
C22 O15 1.247 . S
C22 O16 1.261 . S
C23 O18 1.266 . S
C23 O20 1.235 . S
O24 Co14 2.021 . S
O24 C21 1.238 . S
O25 Co19 2.052 . S
O25 C21 1.241 . S
O26 Co14 2.137 1_545 S
O26 C17 1.247 1_545 S
O27 Co14 2.244 . S
O27 C17 1.272 . S
O27 Co19 2.135 . S
Co28 O29 2.216 . S
Co28 O30 2.091 . S
Co28 O32 2.004 . S
Co28 O38 2.021 . S
Co28 O40 2.137 . S
Co28 O41 2.244 . S
O29 Co28 2.216 . S
O29 C36 1.247 . S
O30 Co28 2.091 . S
O30 C36 1.261 . S
C31 O40 1.247 . S
C31 O41 1.272 . S
O32 Co28 2.004 . S
O32 C37 1.259 . S
Co33 O34 2.061 . S
Co33 O39 2.052 . S
Co33 O41 2.135 . S
O34 Co33 2.061 . S
O34 C37 1.235 . S
C35 O38 1.238 . S
C35 O39 1.241 . S
C36 O29 1.247 . S
C36 O30 1.261 . S
C37 O32 1.259 . S
C37 O34 1.235 . S
O38 Co28 2.021 . S
O38 C35 1.238 . S
O39 Co33 2.052 . S
O39 C35 1.241 . S
O40 Co28 2.137 . S
O40 C31 1.247 . S
O41 Co28 2.244 . S
O41 C31 1.272 . S
O41 Co33 2.135 . S
Co42 O43 2.216 1_545 S
Co42 O44 2.091 1_545 S
Co42 O46 2.004 . S
Co42 O52 2.021 . S
Co42 O54 2.137 1_545 S
Co42 O55 2.244 . S
O43 Co42 2.216 1_565 S
O43 C50 1.247 . S
O44 Co42 2.091 1_565 S
O44 C50 1.261 . S
C45 O54 1.247 1_545 S
C45 O55 1.272 . S
O46 Co42 2.004 . S
O46 C51 1.259 . S
Co47 O48 2.061 . S
Co47 O53 2.052 . S
Co47 O55 2.135 . S
O48 Co47 2.061 . S
O48 C51 1.235 . S
C49 O52 1.238 . S
C49 O53 1.241 . S
C50 O43 1.247 . S
C50 O44 1.261 . S
C51 O46 1.259 . S
C51 O48 1.235 . S
O52 Co42 2.021 . S
O52 C49 1.238 . S
O53 Co47 2.052 . S
O53 C49 1.241 . S
O54 Co42 2.137 1_565 S
O54 C45 1.247 1_565 S
O55 Co42 2.244 . S
O55 C45 1.272 . S
O55 Co47 2.135 . S
Co56 O57 2.216 . S
Co56 O58 2.091 . S
Co56 O60 2.004 . S
Co56 O66 2.021 . S
Co56 O68 2.137 . S
Co56 O69 2.244 . S
O57 Co56 2.216 . S
O57 C64 1.247 . S
O58 Co56 2.091 . S
O58 C64 1.261 . S
C59 O68 1.247 . S
C59 O69 1.272 . S
O60 Co56 2.004 . S
O60 C65 1.259 . S
Co61 O62 2.061 . S
Co61 O67 2.052 . S
Co61 O69 2.135 . S
O62 Co61 2.061 . S
O62 C65 1.235 . S
C63 O66 1.238 . S
C63 O67 1.241 . S
C64 O57 1.247 . S
C64 O58 1.261 . S
C65 O60 1.259 . S
C65 O62 1.235 . S
O66 Co56 2.021 . S
O66 C63 1.238 . S
O67 Co61 2.052 . S
O67 C63 1.241 . S
O68 Co56 2.137 . S
O68 C59 1.247 . S
O69 Co56 2.244 . S
O69 C59 1.272 . S
O69 Co61 2.135 . S
Co70 O71 2.216 1_565 S
Co70 O72 2.091 1_565 S
Co70 O74 2.004 . S
Co70 O80 2.021 . S
Co70 O82 2.137 1_565 S
Co70 O83 2.244 . S
O71 Co70 2.216 1_545 S
O71 C78 1.247 . S
O72 Co70 2.091 1_545 S
O72 C78 1.261 . S
C73 O82 1.247 1_565 S
C73 O83 1.272 . S
O74 Co70 2.004 . S
O74 C79 1.259 . S
Co75 O76 2.061 . S
Co75 O81 2.052 . S
Co75 O83 2.135 . S
O76 Co75 2.061 . S
O76 C79 1.235 . S
C77 O80 1.238 . S
C77 O81 1.241 . S
C78 O71 1.247 . S
C78 O72 1.261 . S
C79 O74 1.259 . S
C79 O76 1.235 . S
O80 Co70 2.021 . S
O80 C77 1.238 . S
O81 Co75 2.052 . S
O81 C77 1.241 . S
O82 Co70 2.137 1_545 S
O82 C73 1.247 1_545 S
O83 Co70 2.244 . S
O83 C73 1.272 . S
O83 Co75 2.135 . S
Co84 O85 2.216 . S
Co84 O86 2.091 . S
Co84 O88 2.004 . S
Co84 O94 2.021 . S
Co84 O96 2.137 . S
Co84 O97 2.244 . S
O85 Co84 2.216 . S
O85 C92 1.247 . S
O86 Co84 2.091 . S
O86 C92 1.261 . S
C87 O96 1.247 . S
C87 O97 1.272 . S
O88 Co84 2.004 . S
O88 C93 1.259 . S
Co89 O90 2.061 . S
Co89 O95 2.052 . S
Co89 O97 2.135 . S
O90 Co89 2.061 . S
O90 C93 1.235 . S
C91 O94 1.238 . S
C91 O95 1.241 . S
C92 O85 1.247 . S
C92 O86 1.261 . S
C93 O88 1.259 . S
C93 O90 1.235 . S
O94 Co84 2.021 . S
O94 C91 1.238 . S
O95 Co89 2.052 . S
O95 C91 1.241 . S
O96 Co84 2.137 . S
O96 C87 1.247 . S
O97 Co84 2.244 . S
O97 C87 1.272 . S
O97 Co89 2.135 . S
Co98 O99 2.216 1_545 S
Co98 O100 2.091 1_545 S
Co98 O102 1.993 1_455 S
Co98 O108 2.021 . S
Co98 O110 2.137 1_545 S
Co98 O111 2.244 . S
O99 Co98 2.216 1_565 S
O99 C106 1.247 . S
O100 Co98 2.091 1_565 S
O100 C106 1.261 . S
C101 O110 1.247 1_545 S
C101 O111 1.272 . S
O102 Co98 1.993 1_655 S
O102 C107 1.266 . S
Co103 O104 2.061 1_455 S
Co103 O109 2.052 . S
Co103 O111 2.135 . S
O104 Co103 2.061 1_655 S
O104 C107 1.235 . S
C105 O108 1.238 . S
C105 O109 1.241 . S
C106 O99 1.247 . S
C106 O100 1.261 . S
C107 O102 1.266 . S
C107 O104 1.235 . S
O108 Co98 2.021 . S
O108 C105 1.238 . S
O109 Co103 2.052 . S
O109 C105 1.241 . S
O110 Co98 2.137 1_565 S
O110 C101 1.247 1_565 S
O111 Co98 2.244 . S
O111 C101 1.272 . S
O111 Co103 2.135 . S
Co112 O113 2.216 . S
Co112 O114 2.091 . S
Co112 O116 2.004 . S
Co112 O122 2.021 . S
Co112 O124 2.137 . S
Co112 O125 2.244 . S
O113 Co112 2.216 . S
O113 C120 1.247 . S
O114 Co112 2.091 . S
O114 C120 1.261 . S
C115 O124 1.247 . S
C115 O125 1.272 . S
O116 Co112 2.004 . S
O116 C121 1.259 . S
Co117 O118 2.061 . S
Co117 O123 2.052 . S
Co117 O125 2.135 . S
O118 Co117 2.061 . S
O118 C121 1.235 . S
C119 O122 1.238 . S
C119 O123 1.241 . S
C120 O113 1.247 . S
C120 O114 1.261 . S
C121 O116 1.259 . S
C121 O118 1.235 . S
O122 Co112 2.021 . S
O122 C119 1.238 . S
O123 Co117 2.052 . S
O123 C119 1.241 . S
O124 Co112 2.137 . S
O124 C115 1.247 . S
O125 Co112 2.244 . S
O125 C115 1.272 . S
O125 Co117 2.135 . S
Co126 O127 2.216 1_545 S
Co126 O128 2.091 1_545 S
Co126 O130 1.993 1_655 S
Co126 O136 2.021 . S
Co126 O138 2.137 1_545 S
Co126 O139 2.244 . S
O127 Co126 2.216 1_565 S
O127 C134 1.247 . S
O128 Co126 2.091 1_565 S
O128 C134 1.261 . S
C129 O138 1.247 1_545 S
C129 O139 1.272 . S
O130 Co126 1.993 1_455 S
O130 C135 1.266 . S
Co131 O132 2.061 1_655 S
Co131 O137 2.052 . S
Co131 O139 2.135 . S
O132 Co131 2.061 1_455 S
O132 C135 1.235 . S
C133 O136 1.238 . S
C133 O137 1.241 . S
C134 O127 1.247 . S
C134 O128 1.261 . S
C135 O130 1.266 . S
C135 O132 1.235 . S
O136 Co126 2.021 . S
O136 C133 1.238 . S
O137 Co131 2.052 . S
O137 C133 1.241 . S
O138 Co126 2.137 1_565 S
O138 C129 1.247 1_565 S
O139 Co126 2.244 . S
O139 C129 1.272 . S
O139 Co131 2.135 . S
Co140 O141 2.216 . S
Co140 O142 2.091 . S
Co140 O144 2.004 . S
Co140 O150 2.021 . S
Co140 O152 2.137 . S
Co140 O153 2.244 . S
O141 Co140 2.216 . S
O141 C148 1.247 . S
O142 Co140 2.091 . S
O142 C148 1.261 . S
C143 O152 1.247 . S
C143 O153 1.272 . S
O144 Co140 2.004 . S
O144 C149 1.259 . S
Co145 O146 2.061 . S
Co145 O151 2.052 . S
Co145 O153 2.135 . S
O146 Co145 2.061 . S
O146 C149 1.235 . S
C147 O150 1.238 . S
C147 O151 1.241 . S
C148 O141 1.247 . S
C148 O142 1.261 . S
C149 O144 1.259 . S
C149 O146 1.235 . S
O150 Co140 2.021 . S
O150 C147 1.238 . S
O151 Co145 2.052 . S
O151 C147 1.241 . S
O152 Co140 2.137 . S
O152 C143 1.247 . S
O153 Co140 2.244 . S
O153 C143 1.272 . S
O153 Co145 2.135 . S
Co154 O155 2.216 1_565 S
Co154 O156 2.091 1_565 S
Co154 O158 2.004 . S
Co154 O164 2.021 . S
Co154 O166 2.137 1_565 S
Co154 O167 2.244 . S
O155 Co154 2.216 1_545 S
O155 C162 1.247 . S
O156 Co154 2.091 1_545 S
O156 C162 1.261 . S
C157 O166 1.247 1_565 S
C157 O167 1.272 . S
O158 Co154 2.004 . S
O158 C163 1.259 . S
Co159 O160 2.061 . S
Co159 O165 2.052 . S
Co159 O167 2.135 . S
O160 Co159 2.061 . S
O160 C163 1.235 . S
C161 O164 1.238 . S
C161 O165 1.241 . S
C162 O155 1.247 . S
C162 O156 1.261 . S
C163 O158 1.259 . S
C163 O160 1.235 . S
O164 Co154 2.021 . S
O164 C161 1.238 . S
O165 Co159 2.052 . S
O165 C161 1.241 . S
O166 Co154 2.137 1_545 S
O166 C157 1.247 1_545 S
O167 Co154 2.244 . S
O167 C157 1.272 . S
O167 Co159 2.135 . S
Co168 O169 2.216 . S
Co168 O170 2.091 . S
Co168 O172 2.004 . S
Co168 O178 2.021 . S
Co168 O180 2.137 . S
Co168 O181 2.244 . S
O169 Co168 2.216 . S
O169 C176 1.247 . S
O170 Co168 2.091 . S
O170 C176 1.261 . S
C171 O180 1.247 . S
C171 O181 1.272 . S
O172 Co168 2.004 . S
O172 C177 1.259 . S
Co173 O174 2.061 . S
Co173 O179 2.052 . S
Co173 O181 2.135 . S
O174 Co173 2.061 . S
O174 C177 1.235 . S
C175 O178 1.238 . S
C175 O179 1.241 . S
C176 O169 1.247 . S
C176 O170 1.261 . S
C177 O172 1.259 . S
C177 O174 1.235 . S
O178 Co168 2.021 . S
O178 C175 1.238 . S
O179 Co173 2.052 . S
O179 C175 1.241 . S
O180 Co168 2.137 . S
O180 C171 1.247 . S
O181 Co168 2.244 . S
O181 C171 1.272 . S
O181 Co173 2.135 . S
Co182 O183 2.216 1_545 S
Co182 O184 2.091 1_545 S
Co182 O186 2.004 . S
Co182 O192 2.021 . S
Co182 O194 2.137 1_545 S
Co182 O195 2.244 . S
O183 Co182 2.216 1_565 S
O183 C190 1.247 . S
O184 Co182 2.091 1_565 S
O184 C190 1.261 . S
C185 O194 1.247 1_545 S
C185 O195 1.272 . S
O186 Co182 2.004 . S
O186 C191 1.259 . S
Co187 O188 2.061 . S
Co187 O193 2.052 . S
Co187 O195 2.135 . S
O188 Co187 2.061 . S
O188 C191 1.235 . S
C189 O192 1.238 . S
C189 O193 1.241 . S
C190 O183 1.247 . S
C190 O184 1.261 . S
C191 O186 1.259 . S
C191 O188 1.235 . S
O192 Co182 2.021 . S
O192 C189 1.238 . S
O193 Co187 2.052 . S
O193 C189 1.241 . S
O194 Co182 2.137 1_565 S
O194 C185 1.247 1_565 S
O195 Co182 2.244 . S
O195 C185 1.272 . S
O195 Co187 2.135 . S
Co196 O197 2.216 . S
Co196 O198 2.091 . S
Co196 O200 2.004 . S
Co196 O206 2.021 . S
Co196 O208 2.137 . S
Co196 O209 2.244 . S
O197 Co196 2.216 . S
O197 C204 1.247 . S
O198 Co196 2.091 . S
O198 C204 1.261 . S
C199 O208 1.247 . S
C199 O209 1.272 . S
O200 Co196 2.004 . S
O200 C205 1.259 . S
Co201 O202 2.061 . S
Co201 O207 2.052 . S
Co201 O209 2.135 . S
O202 Co201 2.061 . S
O202 C205 1.235 . S
C203 O206 1.238 . S
C203 O207 1.241 . S
C204 O197 1.247 . S
C204 O198 1.261 . S
C205 O200 1.259 . S
C205 O202 1.235 . S
O206 Co196 2.021 . S
O206 C203 1.238 . S
O207 Co201 2.052 . S
O207 C203 1.241 . S
O208 Co196 2.137 . S
O208 C199 1.247 . S
O209 Co196 2.244 . S
O209 C199 1.272 . S
O209 Co201 2.135 . S
Co210 O211 2.216 1_565 S
Co210 O212 2.091 1_565 S
Co210 O214 1.993 1_655 S
Co210 O220 2.021 . S
Co210 O222 2.137 1_565 S
Co210 O223 2.244 . S
O211 Co210 2.216 1_545 S
O211 C218 1.247 . S
O212 Co210 2.091 1_545 S
O212 C218 1.261 . S
C213 O222 1.247 1_565 S
C213 O223 1.272 . S
O214 Co210 1.993 1_455 S
O214 C219 1.266 . S
Co215 O216 2.061 1_655 S
Co215 O221 2.052 . S
Co215 O223 2.135 . S
O216 Co215 2.061 1_455 S
O216 C219 1.235 . S
C217 O220 1.238 . S
C217 O221 1.241 . S
C218 O211 1.247 . S
C218 O212 1.261 . S
C219 O214 1.266 . S
C219 O216 1.235 . S
O220 Co210 2.021 . S
O220 C217 1.238 . S
O221 Co215 2.052 . S
O221 C217 1.241 . S
O222 Co210 2.137 1_545 S
O222 C213 1.247 1_545 S
O223 Co210 2.244 . S
O223 C213 1.272 . S
O223 Co215 2.135 . S
Co224 O225 2.216 . S
Co224 O226 2.091 . S
Co224 O228 2.004 . S
Co224 O234 2.021 . S
Co224 O236 2.137 . S
Co224 O237 2.244 . S
O225 Co224 2.216 . S
O225 C232 1.247 . S
O226 Co224 2.091 . S
O226 C232 1.261 . S
C227 O236 1.247 . S
C227 O237 1.272 . S
O228 Co224 2.004 . S
O228 C233 1.259 . S
Co229 O230 2.061 . S
Co229 O235 2.052 . S
Co229 O237 2.135 . S
O230 Co229 2.061 . S
O230 C233 1.235 . S
C231 O234 1.238 . S
C231 O235 1.241 . S
C232 O225 1.247 . S
C232 O226 1.261 . S
C233 O228 1.259 . S
C233 O230 1.235 . S
O234 Co224 2.021 . S
O234 C231 1.238 . S
O235 Co229 2.052 . S
O235 C231 1.241 . S
O236 Co224 2.137 . S
O236 C227 1.247 . S
O237 Co224 2.244 . S
O237 C227 1.272 . S
O237 Co229 2.135 . S
Co238 O239 2.216 . S
Co238 O240 2.091 . S
Co238 O242 2.004 . S
Co238 O248 2.021 . S
Co238 O250 2.137 . S
Co238 O251 2.244 . S
O239 Co238 2.216 . S
O239 C246 1.247 . S
O240 Co238 2.091 . S
O240 C246 1.261 . S
C241 O250 1.247 . S
C241 O251 1.272 . S
O242 Co238 2.004 . S
O242 C247 1.259 . S
Co243 O244 2.061 . S
Co243 O249 2.052 . S
Co243 O251 2.135 . S
O244 Co243 2.061 . S
O244 C247 1.235 . S
C245 O248 1.238 . S
C245 O249 1.241 . S
C246 O239 1.247 . S
C246 O240 1.261 . S
C247 O242 1.259 . S
C247 O244 1.235 . S
O248 Co238 2.021 . S
O248 C245 1.238 . S
O249 Co243 2.052 . S
O249 C245 1.241 . S
O250 Co238 2.137 . S
O250 C241 1.247 . S
O251 Co238 2.244 . S
O251 C241 1.272 . S
O251 Co243 2.135 . S
Co252 O253 2.216 . S
Co252 O254 2.091 . S
Co252 O256 2.004 . S
Co252 O262 2.021 . S
Co252 O264 2.137 . S
Co252 O265 2.244 . S
O253 Co252 2.216 . S
O253 C260 1.247 . S
O254 Co252 2.091 . S
O254 C260 1.261 . S
C255 O264 1.247 . S
C255 O265 1.272 . S
O256 Co252 2.004 . S
O256 C261 1.259 . S
Co257 O258 2.061 . S
Co257 O263 2.052 . S
Co257 O265 2.135 . S
O258 Co257 2.061 . S
O258 C261 1.235 . S
C259 O262 1.238 . S
C259 O263 1.241 . S
C260 O253 1.247 . S
C260 O254 1.261 . S
C261 O256 1.259 . S
C261 O258 1.235 . S
O262 Co252 2.021 . S
O262 C259 1.238 . S
O263 Co257 2.052 . S
O263 C259 1.241 . S
O264 Co252 2.137 . S
O264 C255 1.247 . S
O265 Co252 2.244 . S
O265 C255 1.272 . S
O265 Co257 2.135 . S
Co266 O267 2.216 . S
Co266 O268 2.091 . S
Co266 O270 1.993 1_655 S
Co266 O276 2.021 . S
Co266 O278 2.137 . S
Co266 O279 2.244 . S
O267 Co266 2.216 . S
O267 C274 1.247 . S
O268 Co266 2.091 . S
O268 C274 1.261 . S
C269 O278 1.247 . S
C269 O279 1.272 . S
O270 Co266 1.993 1_455 S
O270 C275 1.266 . S
Co271 O272 2.061 1_655 S
Co271 O277 2.052 . S
Co271 O279 2.135 . S
O272 Co271 2.061 1_455 S
O272 C275 1.235 . S
C273 O276 1.238 . S
C273 O277 1.241 . S
C274 O267 1.247 . S
C274 O268 1.261 . S
C275 O270 1.266 . S
C275 O272 1.235 . S
O276 Co266 2.021 . S
O276 C273 1.238 . S
O277 Co271 2.052 . S
O277 C273 1.241 . S
O278 Co266 2.137 . S
O278 C269 1.247 . S
O279 Co266 2.244 . S
O279 C269 1.272 . S
O279 Co271 2.135 . S
Co280 O281 2.216 . S
Co280 O282 2.091 . S
Co280 O284 2.004 . S
Co280 O290 2.021 . S
Co280 O292 2.137 . S
Co280 O293 2.244 . S
O281 Co280 2.216 . S
O281 C288 1.247 . S
O282 Co280 2.091 . S
O282 C288 1.261 . S
C283 O292 1.247 . S
C283 O293 1.272 . S
O284 Co280 2.004 . S
O284 C289 1.259 . S
Co285 O286 2.061 . S
Co285 O291 2.052 . S
Co285 O293 2.135 . S
O286 Co285 2.061 . S
O286 C289 1.235 . S
C287 O290 1.238 . S
C287 O291 1.241 . S
C288 O281 1.247 . S
C288 O282 1.261 . S
C289 O284 1.259 . S
C289 O286 1.235 . S
O290 Co280 2.021 . S
O290 C287 1.238 . S
O291 Co285 2.052 . S
O291 C287 1.241 . S
O292 Co280 2.137 . S
O292 C283 1.247 . S
O293 Co280 2.244 . S
O293 C283 1.272 . S
O293 Co285 2.135 . S
Co294 O295 2.216 . S
Co294 O296 2.091 . S
Co294 O298 1.993 1_655 S
Co294 O304 2.021 . S
Co294 O306 2.137 . S
Co294 O307 2.244 . S
O295 Co294 2.216 . S
O295 C302 1.247 . S
O296 Co294 2.091 . S
O296 C302 1.261 . S
C297 O306 1.247 . S
C297 O307 1.272 . S
O298 Co294 1.993 1_455 S
O298 C303 1.266 . S
Co299 O300 2.061 1_655 S
Co299 O305 2.052 . S
Co299 O307 2.135 . S
O300 Co299 2.061 1_455 S
O300 C303 1.235 . S
C301 O304 1.238 . S
C301 O305 1.241 . S
C302 O295 1.247 . S
C302 O296 1.261 . S
C303 O298 1.266 . S
C303 O300 1.235 . S
O304 Co294 2.021 . S
O304 C301 1.238 . S
O305 Co299 2.052 . S
O305 C301 1.241 . S
O306 Co294 2.137 . S
O306 C297 1.247 . S
O307 Co294 2.244 . S
O307 C297 1.272 . S
O307 Co299 2.135 . S
Co308 O309 2.216 . S
Co308 O310 2.091 . S
Co308 O312 2.004 . S
Co308 O318 2.021 . S
Co308 O320 2.137 . S
Co308 O321 2.244 . S
O309 Co308 2.216 . S
O309 C316 1.247 . S
O310 Co308 2.091 . S
O310 C316 1.261 . S
C311 O320 1.247 . S
C311 O321 1.272 . S
O312 Co308 2.004 . S
O312 C317 1.259 . S
Co313 O314 2.061 . S
Co313 O319 2.052 . S
Co313 O321 2.135 . S
O314 Co313 2.061 . S
O314 C317 1.235 . S
C315 O318 1.238 . S
C315 O319 1.241 . S
C316 O309 1.247 . S
C316 O310 1.261 . S
C317 O312 1.259 . S
C317 O314 1.235 . S
O318 Co308 2.021 . S
O318 C315 1.238 . S
O319 Co313 2.052 . S
O319 C315 1.241 . S
O320 Co308 2.137 . S
O320 C311 1.247 . S
O321 Co308 2.244 . S
O321 C311 1.272 . S
O321 Co313 2.135 . S
Co322 O323 2.216 . S
Co322 O324 2.091 . S
Co322 O326 2.004 . S
Co322 O332 2.021 . S
Co322 O334 2.137 . S
Co322 O335 2.244 . S
O323 Co322 2.216 . S
O323 C330 1.247 . S
O324 Co322 2.091 . S
O324 C330 1.261 . S
C325 O334 1.247 . S
C325 O335 1.272 . S
O326 Co322 2.004 . S
O326 C331 1.259 . S
Co327 O328 2.061 . S
Co327 O333 2.052 . S
Co327 O335 2.135 . S
O328 Co327 2.061 . S
O328 C331 1.235 . S
C329 O332 1.238 . S
C329 O333 1.241 . S
C330 O323 1.247 . S
C330 O324 1.261 . S
C331 O326 1.259 . S
C331 O328 1.235 . S
O332 Co322 2.021 . S
O332 C329 1.238 . S
O333 Co327 2.052 . S
O333 C329 1.241 . S
O334 Co322 2.137 . S
O334 C325 1.247 . S
O335 Co322 2.244 . S
O335 C325 1.272 . S
O335 Co327 2.135 . S
Co336 O337 2.216 . S
Co336 O338 2.091 . S
Co336 O340 2.004 . S
Co336 O346 2.021 . S
Co336 O348 2.137 . S
Co336 O349 2.244 . S
O337 Co336 2.216 . S
O337 C344 1.247 . S
O338 Co336 2.091 . S
O338 C344 1.261 . S
C339 O348 1.247 . S
C339 O349 1.272 . S
O340 Co336 2.004 . S
O340 C345 1.259 . S
Co341 O342 2.061 . S
Co341 O347 2.052 . S
Co341 O349 2.135 . S
O342 Co341 2.061 . S
O342 C345 1.235 . S
C343 O346 1.238 . S
C343 O347 1.241 . S
C344 O337 1.247 . S
C344 O338 1.261 . S
C345 O340 1.259 . S
C345 O342 1.235 . S
O346 Co336 2.021 . S
O346 C343 1.238 . S
O347 Co341 2.052 . S
O347 C343 1.241 . S
O348 Co336 2.137 . S
O348 C339 1.247 . S
O349 Co336 2.244 . S
O349 C339 1.272 . S
O349 Co341 2.135 . S
Co350 O351 2.216 . S
Co350 O352 2.091 . S
Co350 O354 2.004 . S
Co350 O360 2.021 . S
Co350 O362 2.137 . S
Co350 O363 2.244 . S
O351 Co350 2.216 . S
O351 C358 1.247 . S
O352 Co350 2.091 . S
O352 C358 1.261 . S
C353 O362 1.247 . S
C353 O363 1.272 . S
O354 Co350 2.004 . S
O354 C359 1.259 . S
Co355 O356 2.061 . S
Co355 O361 2.052 . S
Co355 O363 2.135 . S
O356 Co355 2.061 . S
O356 C359 1.235 . S
C357 O360 1.238 . S
C357 O361 1.241 . S
C358 O351 1.247 . S
C358 O352 1.261 . S
C359 O354 1.259 . S
C359 O356 1.235 . S
O360 Co350 2.021 . S
O360 C357 1.238 . S
O361 Co355 2.052 . S
O361 C357 1.241 . S
O362 Co350 2.137 . S
O362 C353 1.247 . S
O363 Co350 2.244 . S
O363 C353 1.272 . S
O363 Co355 2.135 . S
Co364 O365 2.216 . S
Co364 O366 2.091 . S
Co364 O368 2.004 . S
Co364 O374 2.021 . S
Co364 O376 2.137 . S
Co364 O377 2.244 . S
O365 Co364 2.216 . S
O365 C372 1.247 . S
O366 Co364 2.091 . S
O366 C372 1.261 . S
C367 O376 1.247 . S
C367 O377 1.272 . S
O368 Co364 2.004 . S
O368 C373 1.259 . S
Co369 O370 2.061 . S
Co369 O375 2.052 . S
Co369 O377 2.135 . S
O370 Co369 2.061 . S
O370 C373 1.235 . S
C371 O374 1.238 . S
C371 O375 1.241 . S
C372 O365 1.247 . S
C372 O366 1.261 . S
C373 O368 1.259 . S
C373 O370 1.235 . S
O374 Co364 2.021 . S
O374 C371 1.238 . S
O375 Co369 2.052 . S
O375 C371 1.241 . S
O376 Co364 2.137 . S
O376 C367 1.247 . S
O377 Co364 2.244 . S
O377 C367 1.272 . S
O377 Co369 2.135 . S
Co378 O379 2.216 . S
Co378 O380 2.091 . S
Co378 O382 1.993 1_455 S
Co378 O388 2.021 . S
Co378 O390 2.137 . S
Co378 O391 2.244 . S
O379 Co378 2.216 . S
O379 C386 1.247 . S
O380 Co378 2.091 . S
O380 C386 1.261 . S
C381 O390 1.247 . S
C381 O391 1.272 . S
O382 Co378 1.993 1_655 S
O382 C387 1.266 . S
Co383 O384 2.061 1_455 S
Co383 O389 2.052 . S
Co383 O391 2.135 . S
O384 Co383 2.061 1_655 S
O384 C387 1.235 . S
C385 O388 1.238 . S
C385 O389 1.241 . S
C386 O379 1.247 . S
C386 O380 1.261 . S
C387 O382 1.266 . S
C387 O384 1.235 . S
O388 Co378 2.021 . S
O388 C385 1.238 . S
O389 Co383 2.052 . S
O389 C385 1.241 . S
O390 Co378 2.137 . S
O390 C381 1.247 . S
O391 Co378 2.244 . S
O391 C381 1.272 . S
O391 Co383 2.135 . S
Co392 O393 2.216 . S
Co392 O394 2.091 . S
Co392 O396 2.004 . S
Co392 O402 2.021 . S
Co392 O404 2.137 . S
Co392 O405 2.244 . S
O393 Co392 2.216 . S
O393 C400 1.247 . S
O394 Co392 2.091 . S
O394 C400 1.261 . S
C395 O404 1.247 . S
C395 O405 1.272 . S
O396 Co392 2.004 . S
O396 C401 1.259 . S
Co397 O398 2.061 . S
Co397 O403 2.052 . S
Co397 O405 2.135 . S
O398 Co397 2.061 . S
O398 C401 1.235 . S
C399 O402 1.238 . S
C399 O403 1.241 . S
C400 O393 1.247 . S
C400 O394 1.261 . S
C401 O396 1.259 . S
C401 O398 1.235 . S
O402 Co392 2.021 . S
O402 C399 1.238 . S
O403 Co397 2.052 . S
O403 C399 1.241 . S
O404 Co392 2.137 . S
O404 C395 1.247 . S
O405 Co392 2.244 . S
O405 C395 1.272 . S
O405 Co397 2.135 . S
Co406 O407 2.216 . S
Co406 O408 2.091 . S
Co406 O410 1.993 1_455 S
Co406 O416 2.021 . S
Co406 O418 2.137 . S
Co406 O419 2.244 . S
O407 Co406 2.216 . S
O407 C414 1.247 . S
O408 Co406 2.091 . S
O408 C414 1.261 . S
C409 O418 1.247 . S
C409 O419 1.272 . S
O410 Co406 1.993 1_655 S
O410 C415 1.266 . S
Co411 O412 2.061 1_455 S
Co411 O417 2.052 . S
Co411 O419 2.135 . S
O412 Co411 2.061 1_655 S
O412 C415 1.235 . S
C413 O416 1.238 . S
C413 O417 1.241 . S
C414 O407 1.247 . S
C414 O408 1.261 . S
C415 O410 1.266 . S
C415 O412 1.235 . S
O416 Co406 2.021 . S
O416 C413 1.238 . S
O417 Co411 2.052 . S
O417 C413 1.241 . S
O418 Co406 2.137 . S
O418 C409 1.247 . S
O419 Co406 2.244 . S
O419 C409 1.272 . S
O419 Co411 2.135 . S
Co420 O421 2.216 . S
Co420 O422 2.091 . S
Co420 O424 2.004 . S
Co420 O430 2.021 . S
Co420 O432 2.137 . S
Co420 O433 2.244 . S
O421 Co420 2.216 . S
O421 C428 1.247 . S
O422 Co420 2.091 . S
O422 C428 1.261 . S
C423 O432 1.247 . S
C423 O433 1.272 . S
O424 Co420 2.004 . S
O424 C429 1.259 . S
Co425 O426 2.061 . S
Co425 O431 2.052 . S
Co425 O433 2.135 . S
O426 Co425 2.061 . S
O426 C429 1.235 . S
C427 O430 1.238 . S
C427 O431 1.241 . S
C428 O421 1.247 . S
C428 O422 1.261 . S
C429 O424 1.259 . S
C429 O426 1.235 . S
O430 Co420 2.021 . S
O430 C427 1.238 . S
O431 Co425 2.052 . S
O431 C427 1.241 . S
O432 Co420 2.137 . S
O432 C423 1.247 . S
O433 Co420 2.244 . S
O433 C423 1.272 . S
O433 Co425 2.135 . S
Co434 O435 2.216 . S
Co434 O436 2.091 . S
Co434 O438 2.004 . S
Co434 O444 2.021 . S
Co434 O446 2.137 . S
Co434 O447 2.244 . S
O435 Co434 2.216 . S
O435 C442 1.247 . S
O436 Co434 2.091 . S
O436 C442 1.261 . S
C437 O446 1.247 . S
C437 O447 1.272 . S
O438 Co434 2.004 . S
O438 C443 1.259 . S
Co439 O440 2.061 . S
Co439 O445 2.052 . S
Co439 O447 2.135 . S
O440 Co439 2.061 . S
O440 C443 1.235 . S
C441 O444 1.238 . S
C441 O445 1.241 . S
C442 O435 1.247 . S
C442 O436 1.261 . S
C443 O438 1.259 . S
C443 O440 1.235 . S
O444 Co434 2.021 . S
O444 C441 1.238 . S
O445 Co439 2.052 . S
O445 C441 1.241 . S
O446 Co434 2.137 . S
O446 C437 1.247 . S
O447 Co434 2.244 . S
O447 C437 1.272 . S
O447 Co439 2.135 . S
C448 C449 1.363 . S
C448 C454 1.379 . S
C448 N456 1.356 . S
C449 C448 1.363 . S
C449 C455 1.363 . S
C450 C451 1.363 . S
C450 C455 1.379 . S
C450 N457 1.356 . S
C451 C450 1.363 . S
C451 C454 1.363 . S
N452 C454 1.356 . S
N452 H464 0.984 . S
N452 H465 0.985 . S
N453 C455 1.356 . S
N453 H458 0.984 . S
N453 H459 0.985 . S
C454 C448 1.379 . S
C454 C451 1.363 . S
C454 N452 1.356 . S
C455 C449 1.363 . S
C455 C450 1.379 . S
C455 N453 1.356 . S
N456 C448 1.356 . S
N456 H462 0.984 . S
N456 H463 0.984 . S
N457 C450 1.356 . S
N457 H460 0.984 . S
N457 H461 0.985 . S
H458 N453 0.984 . S
H459 N453 0.985 . S
H460 N457 0.984 . S
H461 N457 0.985 . S
H462 N456 0.984 . S
H463 N456 0.984 . S
H464 N452 0.984 . S
H465 N452 0.985 . S
C466 C467 1.363 . S
C466 C472 1.379 . S
C466 N474 1.356 . S
C467 C466 1.363 . S
C467 C473 1.363 . S
C468 C469 1.363 . S
C468 C473 1.379 . S
C468 N475 1.356 . S
C469 C468 1.363 . S
C469 C472 1.363 . S
N470 C472 1.356 . S
N470 H482 0.984 . S
N470 H483 0.985 . S
N471 C473 1.356 . S
N471 H476 0.973 1_655 S
N471 H477 0.985 . S
C472 C466 1.379 . S
C472 C469 1.363 . S
C472 N470 1.356 . S
C473 C467 1.363 . S
C473 C468 1.379 . S
C473 N471 1.356 . S
N474 C466 1.356 . S
N474 H480 0.984 . S
N474 H481 0.984 . S
N475 C468 1.356 . S
N475 H478 0.984 . S
N475 H479 0.985 . S
H476 N471 0.973 1_455 S
H477 N471 0.985 . S
H478 N475 0.984 . S
H479 N475 0.985 . S
H480 N474 0.984 . S
H481 N474 0.984 . S
H482 N470 0.984 . S
H483 N470 0.985 . S
C484 C485 1.363 . S
C484 C490 1.379 . S
C484 N492 1.356 . S
C485 C484 1.363 . S
C485 C491 1.363 . S
C486 C487 1.363 . S
C486 C491 1.379 . S
C486 N493 1.356 . S
C487 C486 1.363 . S
C487 C490 1.363 . S
N488 C490 1.356 . S
N488 H500 0.984 . S
N488 H501 0.985 . S
N489 C491 1.356 . S
N489 H494 0.984 . S
N489 H495 0.985 . S
C490 C484 1.379 . S
C490 C487 1.363 . S
C490 N488 1.356 . S
C491 C485 1.363 . S
C491 C486 1.379 . S
C491 N489 1.356 . S
N492 C484 1.356 . S
N492 H498 0.984 . S
N492 H499 0.984 . S
N493 C486 1.356 . S
N493 H496 0.984 . S
N493 H497 0.985 . S
H494 N489 0.984 . S
H495 N489 0.985 . S
H496 N493 0.984 . S
H497 N493 0.985 . S
H498 N492 0.984 . S
H499 N492 0.984 . S
H500 N488 0.984 . S
H501 N488 0.985 . S
C502 C503 1.363 . S
C502 C508 1.379 . S
C502 N510 1.356 . S
C503 C502 1.363 . S
C503 C509 1.363 . S
C504 C505 1.363 . S
C504 C509 1.379 . S
C504 N511 1.356 . S
C505 C504 1.363 . S
C505 C508 1.363 . S
N506 C508 1.356 . S
N506 H518 0.984 . S
N506 H519 0.985 . S
N507 C509 1.356 . S
N507 H512 0.984 . S
N507 H513 0.985 . S
C508 C502 1.379 . S
C508 C505 1.363 . S
C508 N506 1.356 . S
C509 C503 1.363 . S
C509 C504 1.379 . S
C509 N507 1.356 . S
N510 C502 1.356 . S
N510 H516 0.984 . S
N510 H517 0.984 . S
N511 C504 1.356 . S
N511 H514 0.984 . S
N511 H515 0.985 . S
H512 N507 0.984 . S
H513 N507 0.985 . S
H514 N511 0.984 . S
H515 N511 0.985 . S
H516 N510 0.984 . S
H517 N510 0.984 . S
H518 N506 0.984 . S
H519 N506 0.985 . S
C520 C521 1.363 . S
C520 C526 1.379 . S
C520 N528 1.356 . S
C521 C520 1.363 . S
C521 C527 1.363 . S
C522 C523 1.363 . S
C522 C527 1.379 . S
C522 N529 1.356 . S
C523 C522 1.363 . S
C523 C526 1.363 . S
N524 C526 1.356 . S
N524 H536 0.984 . S
N524 H537 0.985 . S
N525 C527 1.356 . S
N525 H530 0.984 . S
N525 H531 0.985 . S
C526 C520 1.379 . S
C526 C523 1.363 . S
C526 N524 1.356 . S
C527 C521 1.363 . S
C527 C522 1.379 . S
C527 N525 1.356 . S
N528 C520 1.356 . S
N528 H534 0.984 . S
N528 H535 0.984 . S
N529 C522 1.356 . S
N529 H532 0.984 . S
N529 H533 0.985 . S
H530 N525 0.984 . S
H531 N525 0.985 . S
H532 N529 0.984 . S
H533 N529 0.985 . S
H534 N528 0.984 . S
H535 N528 0.984 . S
H536 N524 0.984 . S
H537 N524 0.985 . S
C538 C539 1.363 . S
C538 C544 1.379 . S
C538 N546 1.356 . S
C539 C538 1.363 . S
C539 C545 1.363 . S
C540 C541 1.363 . S
C540 C545 1.379 . S
C540 N547 1.356 . S
C541 C540 1.363 . S
C541 C544 1.363 . S
N542 C544 1.356 . S
N542 H554 0.984 . S
N542 H555 0.985 . S
N543 C545 1.356 . S
N543 H548 0.984 . S
N543 H549 0.985 . S
C544 C538 1.379 . S
C544 C541 1.363 . S
C544 N542 1.356 . S
C545 C539 1.363 . S
C545 C540 1.379 . S
C545 N543 1.356 . S
N546 C538 1.356 . S
N546 H552 0.984 . S
N546 H553 0.984 . S
N547 C540 1.356 . S
N547 H550 0.984 . S
N547 H551 0.985 . S
H548 N543 0.984 . S
H549 N543 0.985 . S
H550 N547 0.984 . S
H551 N547 0.985 . S
H552 N546 0.984 . S
H553 N546 0.984 . S
H554 N542 0.984 . S
H555 N542 0.985 . S
C556 C557 1.363 . S
C556 C562 1.379 . S
C556 N564 1.356 . S
C557 C556 1.363 . S
C557 C563 1.363 . S
C558 C559 1.363 . S
C558 C563 1.379 . S
C558 N565 1.356 . S
C559 C558 1.363 . S
C559 C562 1.363 . S
N560 C562 1.356 . S
N560 H572 0.984 . S
N560 H573 0.985 . S
N561 C563 1.356 . S
N561 H566 0.984 . S
N561 H567 0.985 . S
C562 C556 1.379 . S
C562 C559 1.363 . S
C562 N560 1.356 . S
C563 C557 1.363 . S
C563 C558 1.379 . S
C563 N561 1.356 . S
N564 C556 1.356 . S
N564 H570 0.984 . S
N564 H571 0.984 . S
N565 C558 1.356 . S
N565 H568 0.984 . S
N565 H569 0.985 . S
H566 N561 0.984 . S
H567 N561 0.985 . S
H568 N565 0.984 . S
H569 N565 0.985 . S
H570 N564 0.984 . S
H571 N564 0.984 . S
H572 N560 0.984 . S
H573 N560 0.985 . S
C574 C575 1.363 . S
C574 C580 1.379 . S
C574 N582 1.356 . S
C575 C574 1.363 . S
C575 C581 1.363 . S
C576 C577 1.363 . S
C576 C581 1.379 . S
C576 N583 1.356 . S
C577 C576 1.363 . S
C577 C580 1.363 . S
N578 C580 1.356 . S
N578 H590 0.984 . S
N578 H591 0.985 . S
N579 C581 1.356 . S
N579 H584 0.984 . S
N579 H585 0.985 . S
C580 C574 1.379 . S
C580 C577 1.363 . S
C580 N578 1.356 . S
C581 C575 1.363 . S
C581 C576 1.379 . S
C581 N579 1.356 . S
N582 C574 1.356 . S
N582 H588 0.984 . S
N582 H589 0.984 . S
N583 C576 1.356 . S
N583 H586 0.984 . S
N583 H587 0.985 . S
H584 N579 0.984 . S
H585 N579 0.985 . S
H586 N583 0.984 . S
H587 N583 0.985 . S
H588 N582 0.984 . S
H589 N582 0.984 . S
H590 N578 0.984 . S
H591 N578 0.985 . S
C592 C593 1.363 . S
C592 C598 1.379 . S
C592 N600 1.356 . S
C593 C592 1.363 . S
C593 C599 1.363 . S
C594 C595 1.363 . S
C594 C599 1.379 . S
C594 N601 1.356 . S
C595 C594 1.363 . S
C595 C598 1.363 . S
N596 C598 1.356 . S
N596 H608 0.984 . S
N596 H609 0.985 . S
N597 C599 1.356 . S
N597 H602 0.984 . S
N597 H603 0.985 . S
C598 C592 1.379 . S
C598 C595 1.363 . S
C598 N596 1.356 . S
C599 C593 1.363 . S
C599 C594 1.379 . S
C599 N597 1.356 . S
N600 C592 1.356 . S
N600 H606 0.984 . S
N600 H607 0.984 . S
N601 C594 1.356 . S
N601 H604 0.984 . S
N601 H605 0.985 . S
H602 N597 0.984 . S
H603 N597 0.985 . S
H604 N601 0.984 . S
H605 N601 0.985 . S
H606 N600 0.984 . S
H607 N600 0.984 . S
H608 N596 0.984 . S
H609 N596 0.985 . S
C610 C611 1.363 . S
C610 C616 1.379 . S
C610 N618 1.356 . S
C611 C610 1.363 . S
C611 C617 1.363 . S
C612 C613 1.363 . S
C612 C617 1.379 . S
C612 N619 1.356 . S
C613 C612 1.363 . S
C613 C616 1.363 . S
N614 C616 1.356 . S
N614 H626 0.984 . S
N614 H627 0.985 . S
N615 C617 1.356 . S
N615 H620 0.984 . S
N615 H621 0.985 . S
C616 C610 1.379 . S
C616 C613 1.363 . S
C616 N614 1.356 . S
C617 C611 1.363 . S
C617 C612 1.379 . S
C617 N615 1.356 . S
N618 C610 1.356 . S
N618 H624 0.984 . S
N618 H625 0.984 . S
N619 C612 1.356 . S
N619 H622 0.984 . S
N619 H623 0.985 . S
H620 N615 0.984 . S
H621 N615 0.985 . S
H622 N619 0.984 . S
H623 N619 0.985 . S
H624 N618 0.984 . S
H625 N618 0.984 . S
H626 N614 0.984 . S
H627 N614 0.985 . S
C628 C629 1.363 . S
C628 C634 1.379 . S
C628 N636 1.356 . S
C629 C628 1.363 . S
C629 C635 1.363 . S
C630 C631 1.363 . S
C630 C635 1.379 . S
C630 N637 1.356 . S
C631 C630 1.363 . S
C631 C634 1.363 . S
N632 C634 1.356 . S
N632 H644 0.984 . S
N632 H645 0.985 . S
N633 C635 1.356 . S
N633 H638 0.984 . S
N633 H639 0.985 . S
C634 C628 1.379 . S
C634 C631 1.363 . S
C634 N632 1.356 . S
C635 C629 1.363 . S
C635 C630 1.379 . S
C635 N633 1.356 . S
N636 C628 1.356 . S
N636 H642 0.984 . S
N636 H643 0.984 . S
N637 C630 1.356 . S
N637 H640 0.984 . S
N637 H641 0.985 . S
H638 N633 0.984 . S
H639 N633 0.985 . S
H640 N637 0.984 . S
H641 N637 0.985 . S
H642 N636 0.984 . S
H643 N636 0.984 . S
H644 N632 0.984 . S
H645 N632 0.985 . S
C646 C647 1.363 . S
C646 C652 1.379 . S
C646 N654 1.356 . S
C647 C646 1.363 . S
C647 C653 1.363 . S
C648 C649 1.363 . S
C648 C653 1.379 . S
C648 N655 1.356 . S
C649 C648 1.363 . S
C649 C652 1.363 . S
N650 C652 1.356 . S
N650 H662 0.984 . S
N650 H663 0.985 . S
N651 C653 1.356 . S
N651 H656 0.984 . S
N651 H657 0.985 . S
C652 C646 1.379 . S
C652 C649 1.363 . S
C652 N650 1.356 . S
C653 C647 1.363 . S
C653 C648 1.379 . S
C653 N651 1.356 . S
N654 C646 1.356 . S
N654 H660 0.984 . S
N654 H661 0.984 . S
N655 C648 1.356 . S
N655 H658 0.984 . S
N655 H659 0.985 . S
H656 N651 0.984 . S
H657 N651 0.985 . S
H658 N655 0.984 . S
H659 N655 0.985 . S
H660 N654 0.984 . S
H661 N654 0.984 . S
H662 N650 0.984 . S
H663 N650 0.985 . S
C664 C665 1.363 . S
C664 C670 1.379 . S
C664 N672 1.356 . S
C665 C664 1.363 . S
C665 C671 1.363 . S
C666 C667 1.363 . S
C666 C671 1.379 . S
C666 N673 1.356 . S
C667 C666 1.363 . S
C667 C670 1.363 . S
N668 C670 1.356 . S
N668 H680 0.984 . S
N668 H681 0.985 . S
N669 C671 1.356 . S
N669 H674 0.984 . S
N669 H675 0.985 . S
C670 C664 1.379 . S
C670 C667 1.363 . S
C670 N668 1.356 . S
C671 C665 1.363 . S
C671 C666 1.379 . S
C671 N669 1.356 . S
N672 C664 1.356 . S
N672 H678 0.984 . S
N672 H679 0.984 . S
N673 C666 1.356 . S
N673 H676 0.984 . S
N673 H677 0.985 . S
H674 N669 0.984 . S
H675 N669 0.985 . S
H676 N673 0.984 . S
H677 N673 0.985 . S
H678 N672 0.984 . S
H679 N672 0.984 . S
H680 N668 0.984 . S
H681 N668 0.985 . S
C682 C683 1.363 . S
C682 C688 1.379 . S
C682 N690 1.356 . S
C683 C682 1.363 . S
C683 C689 1.363 . S
C684 C685 1.363 . S
C684 C689 1.379 . S
C684 N691 1.356 . S
C685 C684 1.363 . S
C685 C688 1.363 . S
N686 C688 1.356 . S
N686 H698 0.984 . S
N686 H699 0.985 . S
N687 C689 1.356 . S
N687 H692 0.984 . S
N687 H693 0.985 . S
C688 C682 1.379 . S
C688 C685 1.363 . S
C688 N686 1.356 . S
C689 C683 1.363 . S
C689 C684 1.379 . S
C689 N687 1.356 . S
N690 C682 1.356 . S
N690 H696 0.984 . S
N690 H697 0.984 . S
N691 C684 1.356 . S
N691 H694 0.984 . S
N691 H695 0.985 . S
H692 N687 0.984 . S
H693 N687 0.985 . S
H694 N691 0.984 . S
H695 N691 0.985 . S
H696 N690 0.984 . S
H697 N690 0.984 . S
H698 N686 0.984 . S
H699 N686 0.985 . S
C700 C701 1.363 . S
C700 C706 1.379 . S
C700 N708 1.356 . S
C701 C700 1.363 . S
C701 C707 1.363 . S
C702 C703 1.363 . S
C702 C707 1.379 . S
C702 N709 1.356 . S
C703 C702 1.363 . S
C703 C706 1.363 . S
N704 C706 1.356 . S
N704 H716 0.984 . S
N704 H717 0.985 . S
N705 C707 1.356 . S
N705 H710 0.984 . S
N705 H711 0.985 . S
C706 C700 1.379 . S
C706 C703 1.363 . S
C706 N704 1.356 . S
C707 C701 1.363 . S
C707 C702 1.379 . S
C707 N705 1.356 . S
N708 C700 1.356 . S
N708 H714 0.984 . S
N708 H715 0.984 . S
N709 C702 1.356 . S
N709 H712 0.984 . S
N709 H713 0.985 . S
H710 N705 0.984 . S
H711 N705 0.985 . S
H712 N709 0.984 . S
H713 N709 0.985 . S
H714 N708 0.984 . S
H715 N708 0.984 . S
H716 N704 0.984 . S
H717 N704 0.985 . S
C718 C719 1.363 . S
C718 C724 1.379 . S
C718 N726 1.356 . S
C719 C718 1.363 . S
C719 C725 1.363 . S
C720 C721 1.363 . S
C720 C725 1.379 . S
C720 N727 1.356 . S
C721 C720 1.363 . S
C721 C724 1.363 . S
N722 C724 1.356 . S
N722 H734 0.984 . S
N722 H735 0.985 . S
N723 C725 1.356 . S
N723 H728 0.984 . S
N723 H729 0.985 . S
C724 C718 1.379 . S
C724 C721 1.363 . S
C724 N722 1.356 . S
C725 C719 1.363 . S
C725 C720 1.379 . S
C725 N723 1.356 . S
N726 C718 1.356 . S
N726 H732 0.984 . S
N726 H733 0.984 . S
N727 C720 1.356 . S
N727 H730 0.984 . S
N727 H731 0.985 . S
H728 N723 0.984 . S
H729 N723 0.985 . S
H730 N727 0.984 . S
H731 N727 0.985 . S
H732 N726 0.984 . S
H733 N726 0.984 . S
H734 N722 0.984 . S
H735 N722 0.985 . S
C736 C737 1.363 . S
C736 C742 1.379 . S
C736 N744 1.356 . S
C737 C736 1.363 . S
C737 C743 1.363 . S
C738 C739 1.363 . S
C738 C743 1.379 . S
C738 N745 1.356 . S
C739 C738 1.363 . S
C739 C742 1.363 . S
N740 C742 1.356 . S
N740 H752 0.984 . S
N740 H753 0.985 . S
N741 C743 1.356 . S
N741 H746 0.984 . S
N741 H747 0.985 . S
C742 C736 1.379 . S
C742 C739 1.363 . S
C742 N740 1.356 . S
C743 C737 1.363 . S
C743 C738 1.379 . S
C743 N741 1.356 . S
N744 C736 1.356 . S
N744 H750 0.984 . S
N744 H751 0.984 . S
N745 C738 1.356 . S
N745 H748 0.984 . S
N745 H749 0.985 . S
H746 N741 0.984 . S
H747 N741 0.985 . S
H748 N745 0.984 . S
H749 N745 0.985 . S
H750 N744 0.984 . S
H751 N744 0.984 . S
H752 N740 0.984 . S
H753 N740 0.985 . S
C754 C755 1.363 . S
C754 C760 1.379 . S
C754 N762 1.356 . S
C755 C754 1.363 . S
C755 C761 1.363 . S
C756 C757 1.363 . S
C756 C761 1.379 . S
C756 N763 1.356 . S
C757 C756 1.363 . S
C757 C760 1.363 . S
N758 C760 1.356 . S
N758 H770 0.984 . S
N758 H771 0.985 . S
N759 C761 1.356 . S
N759 H764 0.984 . S
N759 H765 0.985 . S
C760 C754 1.379 . S
C760 C757 1.363 . S
C760 N758 1.356 . S
C761 C755 1.363 . S
C761 C756 1.379 . S
C761 N759 1.356 . S
N762 C754 1.356 . S
N762 H768 0.984 . S
N762 H769 0.984 . S
N763 C756 1.356 . S
N763 H766 0.984 . S
N763 H767 0.985 . S
H764 N759 0.984 . S
H765 N759 0.985 . S
H766 N763 0.984 . S
H767 N763 0.985 . S
H768 N762 0.984 . S
H769 N762 0.984 . S
H770 N758 0.984 . S
H771 N758 0.985 . S
C772 C773 1.363 . S
C772 C778 1.379 . S
C772 N780 1.356 . S
C773 C772 1.363 . S
C773 C779 1.363 . S
C774 C775 1.363 . S
C774 C779 1.379 . S
C774 N781 1.356 . S
C775 C774 1.363 . S
C775 C778 1.363 . S
N776 C778 1.356 . S
N776 H788 0.984 . S
N776 H789 0.985 . S
N777 C779 1.356 . S
N777 H782 0.984 . S
N777 H783 0.985 . S
C778 C772 1.379 . S
C778 C775 1.363 . S
C778 N776 1.356 . S
C779 C773 1.363 . S
C779 C774 1.379 . S
C779 N777 1.356 . S
N780 C772 1.356 . S
N780 H786 0.984 . S
N780 H787 0.984 . S
N781 C774 1.356 . S
N781 H784 0.984 . S
N781 H785 0.985 . S
H782 N777 0.984 . S
H783 N777 0.985 . S
H784 N781 0.984 . S
H785 N781 0.985 . S
H786 N780 0.984 . S
H787 N780 0.984 . S
H788 N776 0.984 . S
H789 N776 0.985 . S
C790 C791 1.363 . S
C790 C796 1.379 . S
C790 N798 1.356 . S
C791 C790 1.363 . S
C791 C797 1.363 . S
C792 C793 1.363 . S
C792 C797 1.379 . S
C792 N799 1.356 . S
C793 C792 1.363 . S
C793 C796 1.363 . S
N794 C796 1.356 . S
N794 H806 0.984 . S
N794 H807 0.985 . S
N795 C797 1.356 . S
N795 H800 0.984 . S
N795 H801 0.985 . S
C796 C790 1.379 . S
C796 C793 1.363 . S
C796 N794 1.356 . S
C797 C791 1.363 . S
C797 C792 1.379 . S
C797 N795 1.356 . S
N798 C790 1.356 . S
N798 H804 0.984 . S
N798 H805 0.984 . S
N799 C792 1.356 . S
N799 H802 0.984 . S
N799 H803 0.985 . S
H800 N795 0.984 . S
H801 N795 0.985 . S
H802 N799 0.984 . S
H803 N799 0.985 . S
H804 N798 0.984 . S
H805 N798 0.984 . S
H806 N794 0.984 . S
H807 N794 0.985 . S
C808 C809 1.363 . S
C808 C814 1.379 . S
C808 N816 1.356 . S
C809 C808 1.363 . S
C809 C815 1.363 . S
C810 C811 1.363 . S
C810 C815 1.379 . S
C810 N817 1.356 . S
C811 C810 1.363 . S
C811 C814 1.363 . S
N812 C814 1.356 . S
N812 H824 0.984 . S
N812 H825 0.985 . S
N813 C815 1.356 . S
N813 H818 0.984 . S
N813 H819 0.985 . S
C814 C808 1.379 . S
C814 C811 1.363 . S
C814 N812 1.356 . S
C815 C809 1.363 . S
C815 C810 1.379 . S
C815 N813 1.356 . S
N816 C808 1.356 . S
N816 H822 0.984 . S
N816 H823 0.984 . S
N817 C810 1.356 . S
N817 H820 0.984 . S
N817 H821 0.985 . S
H818 N813 0.984 . S
H819 N813 0.985 . S
H820 N817 0.984 . S
H821 N817 0.985 . S
H822 N816 0.984 . S
H823 N816 0.984 . S
H824 N812 0.984 . S
H825 N812 0.985 . S
C826 C827 1.363 . S
C826 C832 1.379 . S
C826 N834 1.356 . S
C827 C826 1.363 . S
C827 C833 1.363 . S
C828 C829 1.363 . S
C828 C833 1.379 . S
C828 N835 1.356 . S
C829 C828 1.363 . S
C829 C832 1.363 . S
N830 C832 1.356 . S
N830 H842 0.984 . S
N830 H843 0.985 . S
N831 C833 1.356 . S
N831 H836 0.984 . S
N831 H837 0.985 . S
C832 C826 1.379 . S
C832 C829 1.363 . S
C832 N830 1.356 . S
C833 C827 1.363 . S
C833 C828 1.379 . S
C833 N831 1.356 . S
N834 C826 1.356 . S
N834 H840 0.984 . S
N834 H841 0.984 . S
N835 C828 1.356 . S
N835 H838 0.984 . S
N835 H839 0.985 . S
H836 N831 0.984 . S
H837 N831 0.985 . S
H838 N835 0.984 . S
H839 N835 0.985 . S
H840 N834 0.984 . S
H841 N834 0.984 . S
H842 N830 0.984 . S
H843 N830 0.985 . S
C844 C845 1.363 . S
C844 C850 1.379 . S
C844 N852 1.356 . S
C845 C844 1.363 . S
C845 C851 1.363 . S
C846 C847 1.363 . S
C846 C851 1.379 . S
C846 N853 1.356 . S
C847 C846 1.363 . S
C847 C850 1.363 . S
N848 C850 1.356 . S
N848 H860 0.984 . S
N848 H861 0.985 . S
N849 C851 1.356 . S
N849 H854 0.984 . S
N849 H855 0.985 . S
C850 C844 1.379 . S
C850 C847 1.363 . S
C850 N848 1.356 . S
C851 C845 1.363 . S
C851 C846 1.379 . S
C851 N849 1.356 . S
N852 C844 1.356 . S
N852 H858 0.984 . S
N852 H859 0.984 . S
N853 C846 1.356 . S
N853 H856 0.984 . S
N853 H857 0.985 . S
H854 N849 0.984 . S
H855 N849 0.985 . S
H856 N853 0.984 . S
H857 N853 0.985 . S
H858 N852 0.984 . S
H859 N852 0.984 . S
H860 N848 0.984 . S
H861 N848 0.985 . S
C862 C863 1.363 . S
C862 C868 1.379 . S
C862 N870 1.356 . S
C863 C862 1.363 . S
C863 C869 1.363 . S
C864 C865 1.363 . S
C864 C869 1.379 . S
C864 N871 1.356 . S
C865 C864 1.363 . S
C865 C868 1.363 . S
N866 C868 1.356 . S
N866 H878 0.984 . S
N866 H879 0.985 . S
N867 C869 1.356 . S
N867 H872 0.984 . S
N867 H873 0.985 . S
C868 C862 1.379 . S
C868 C865 1.363 . S
C868 N866 1.356 . S
C869 C863 1.363 . S
C869 C864 1.379 . S
C869 N867 1.356 . S
N870 C862 1.356 . S
N870 H876 0.984 . S
N870 H877 0.984 . S
N871 C864 1.356 . S
N871 H874 0.984 . S
N871 H875 0.985 . S
H872 N867 0.984 . S
H873 N867 0.985 . S
H874 N871 0.984 . S
H875 N871 0.985 . S
H876 N870 0.984 . S
H877 N870 0.984 . S
H878 N866 0.984 . S
H879 N866 0.985 . S
C880 C881 1.363 . S
C880 C886 1.379 . S
C880 N888 1.356 . S
C881 C880 1.363 . S
C881 C887 1.363 . S
C882 C883 1.363 . S
C882 C887 1.379 . S
C882 N889 1.356 . S
C883 C882 1.363 . S
C883 C886 1.363 . S
N884 C886 1.356 . S
N884 H896 0.984 . S
N884 H897 0.985 . S
N885 C887 1.356 . S
N885 H890 0.984 . S
N885 H891 0.985 . S
C886 C880 1.379 . S
C886 C883 1.363 . S
C886 N884 1.356 . S
C887 C881 1.363 . S
C887 C882 1.379 . S
C887 N885 1.356 . S
N888 C880 1.356 . S
N888 H894 0.984 . S
N888 H895 0.984 . S
N889 C882 1.356 . S
N889 H892 0.984 . S
N889 H893 0.985 . S
H890 N885 0.984 . S
H891 N885 0.985 . S
H892 N889 0.984 . S
H893 N889 0.985 . S
H894 N888 0.984 . S
H895 N888 0.984 . S
H896 N884 0.984 . S
H897 N884 0.985 . S
C898 C899 1.363 . S
C898 C904 1.379 . S
C898 N906 1.356 . S
C899 C898 1.363 . S
C899 C905 1.363 . S
C900 C901 1.363 . S
C900 C905 1.379 . S
C900 N907 1.356 . S
C901 C900 1.363 . S
C901 C904 1.363 . S
N902 C904 1.356 . S
N902 H914 0.984 . S
N902 H915 0.985 . S
N903 C905 1.356 . S
N903 H908 0.984 . S
N903 H909 0.985 . S
C904 C898 1.379 . S
C904 C901 1.363 . S
C904 N902 1.356 . S
C905 C899 1.363 . S
C905 C900 1.379 . S
C905 N903 1.356 . S
N906 C898 1.356 . S
N906 H912 0.984 . S
N906 H913 0.984 . S
N907 C900 1.356 . S
N907 H910 0.984 . S
N907 H911 0.985 . S
H908 N903 0.984 . S
H909 N903 0.985 . S
H910 N907 0.984 . S
H911 N907 0.985 . S
H912 N906 0.984 . S
H913 N906 0.984 . S
H914 N902 0.984 . S
H915 N902 0.985 . S
C916 C917 1.363 . S
C916 C922 1.379 . S
C916 N924 1.356 . S
C917 C916 1.363 . S
C917 C923 1.363 . S
C918 C919 1.363 . S
C918 C923 1.379 . S
C918 N925 1.356 . S
C919 C918 1.363 . S
C919 C922 1.363 . S
N920 C922 1.356 . S
N920 H932 0.984 . S
N920 H933 0.985 . S
N921 C923 1.356 . S
N921 H926 0.984 . S
N921 H927 0.985 . S
C922 C916 1.379 . S
C922 C919 1.363 . S
C922 N920 1.356 . S
C923 C917 1.363 . S
C923 C918 1.379 . S
C923 N921 1.356 . S
N924 C916 1.356 . S
N924 H930 0.984 . S
N924 H931 0.984 . S
N925 C918 1.356 . S
N925 H928 0.984 . S
N925 H929 0.985 . S
H926 N921 0.984 . S
H927 N921 0.985 . S
H928 N925 0.984 . S
H929 N925 0.985 . S
H930 N924 0.984 . S
H931 N924 0.984 . S
H932 N920 0.984 . S
H933 N920 0.985 . S
C934 C935 1.363 . S
C934 C940 1.379 . S
C934 N942 1.356 . S
C935 C934 1.363 . S
C935 C941 1.363 . S
C936 C937 1.363 . S
C936 C941 1.379 . S
C936 N943 1.356 . S
C937 C936 1.363 . S
C937 C940 1.363 . S
N938 C940 1.356 . S
N938 H950 0.984 . S
N938 H951 0.985 . S
N939 C941 1.356 . S
N939 H944 0.984 . S
N939 H945 0.985 . S
C940 C934 1.379 . S
C940 C937 1.363 . S
C940 N938 1.356 . S
C941 C935 1.363 . S
C941 C936 1.379 . S
C941 N939 1.356 . S
N942 C934 1.356 . S
N942 H948 0.984 . S
N942 H949 0.984 . S
N943 C936 1.356 . S
N943 H946 0.984 . S
N943 H947 0.985 . S
H944 N939 0.984 . S
H945 N939 0.985 . S
H946 N943 0.984 . S
H947 N943 0.985 . S
H948 N942 0.984 . S
H949 N942 0.984 . S
H950 N938 0.984 . S
H951 N938 0.985 . S
C952 C953 1.363 . S
C952 C958 1.379 . S
C952 N960 1.356 . S
C953 C952 1.363 . S
C953 C959 1.363 . S
C954 C955 1.363 . S
C954 C959 1.379 . S
C954 N961 1.356 . S
C955 C954 1.363 . S
C955 C958 1.363 . S
N956 C958 1.356 . S
N956 H968 0.984 . S
N956 H969 0.985 . S
N957 C959 1.356 . S
N957 H962 0.984 . S
N957 H963 0.985 . S
C958 C952 1.379 . S
C958 C955 1.363 . S
C958 N956 1.356 . S
C959 C953 1.363 . S
C959 C954 1.379 . S
C959 N957 1.356 . S
N960 C952 1.356 . S
N960 H966 0.984 . S
N960 H967 0.984 . S
N961 C954 1.356 . S
N961 H964 0.984 . S
N961 H965 0.985 . S
H962 N957 0.984 . S
H963 N957 0.985 . S
H964 N961 0.984 . S
H965 N961 0.985 . S
H966 N960 0.984 . S
H967 N960 0.984 . S
H968 N956 0.984 . S
H969 N956 0.985 . S
C970 C971 1.363 . S
C970 C976 1.379 . S
C970 N978 1.356 . S
C971 C970 1.363 . S
C971 C977 1.363 . S
C972 C973 1.363 . S
C972 C977 1.379 . S
C972 N979 1.356 . S
C973 C972 1.363 . S
C973 C976 1.363 . S
N974 C976 1.356 . S
N974 H986 0.984 . S
N974 H987 0.985 . S
N975 C977 1.356 . S
N975 H980 0.984 . S
N975 H981 0.985 . S
C976 C970 1.379 . S
C976 C973 1.363 . S
C976 N974 1.356 . S
C977 C971 1.363 . S
C977 C972 1.379 . S
C977 N975 1.356 . S
N978 C970 1.356 . S
N978 H984 0.984 . S
N978 H985 0.984 . S
N979 C972 1.356 . S
N979 H982 0.984 . S
N979 H983 0.985 . S
H980 N975 0.984 . S
H981 N975 0.985 . S
H982 N979 0.984 . S
H983 N979 0.985 . S
H984 N978 0.984 . S
H985 N978 0.984 . S
H986 N974 0.984 . S
H987 N974 0.985 . S
C988 C989 1.363 . S
C988 C994 1.379 . S
C988 N996 1.356 . S
C989 C988 1.363 . S
C989 C995 1.363 . S
C990 C991 1.363 . S
C990 C995 1.379 . S
C990 N997 1.356 . S
C991 C990 1.363 . S
C991 C994 1.363 . S
N992 C994 1.356 . S
N992 H1004 0.984 . S
N992 H1005 0.985 . S
N993 C995 1.356 . S
N993 H998 0.984 . S
N993 H999 0.985 . S
C994 C988 1.379 . S
C994 C991 1.363 . S
C994 N992 1.356 . S
C995 C989 1.363 . S
C995 C990 1.379 . S
C995 N993 1.356 . S
N996 C988 1.356 . S
N996 H1002 0.984 . S
N996 H1003 0.984 . S
N997 C990 1.356 . S
N997 H1000 0.984 . S
N997 H1001 0.985 . S
H998 N993 0.984 . S
H999 N993 0.985 . S
H1000 N997 0.984 . S
H1001 N997 0.985 . S
H1002 N996 0.984 . S
H1003 N996 0.984 . S
H1004 N992 0.984 . S
H1005 N992 0.985 . S
C1006 C1007 1.363 . S
C1006 C1012 1.379 . S
C1006 N1014 1.356 . S
C1007 C1006 1.363 . S
C1007 C1013 1.363 . S
C1008 C1009 1.363 . S
C1008 C1013 1.379 . S
C1008 N1015 1.356 . S
C1009 C1008 1.363 . S
C1009 C1012 1.363 . S
N1010 C1012 1.356 . S
N1010 H1022 0.984 . S
N1010 H1023 0.985 . S
N1011 C1013 1.356 . S
N1011 H1016 0.984 . S
N1011 H1017 0.985 . S
C1012 C1006 1.379 . S
C1012 C1009 1.363 . S
C1012 N1010 1.356 . S
C1013 C1007 1.363 . S
C1013 C1008 1.379 . S
C1013 N1011 1.356 . S
N1014 C1006 1.356 . S
N1014 H1020 0.984 . S
N1014 H1021 0.984 . S
N1015 C1008 1.356 . S
N1015 H1018 0.984 . S
N1015 H1019 0.985 . S
H1016 N1011 0.984 . S
H1017 N1011 0.985 . S
H1018 N1015 0.984 . S
H1019 N1015 0.985 . S
H1020 N1014 0.984 . S
H1021 N1014 0.984 . S
H1022 N1010 0.984 . S
H1023 N1010 0.985 . S
C1024 C1025 1.363 . S
C1024 C1030 1.379 . S
C1024 N1032 1.356 . S
C1025 C1024 1.363 . S
C1025 C1031 1.363 . S
C1026 C1027 1.363 . S
C1026 C1031 1.379 . S
C1026 N1033 1.356 . S
C1027 C1026 1.363 . S
C1027 C1030 1.363 . S
N1028 C1030 1.356 . S
N1028 H1040 0.984 . S
N1028 H1041 0.985 . S
N1029 C1031 1.356 . S
N1029 H1034 0.984 . S
N1029 H1035 0.985 . S
C1030 C1024 1.379 . S
C1030 C1027 1.363 . S
C1030 N1028 1.356 . S
C1031 C1025 1.363 . S
C1031 C1026 1.379 . S
C1031 N1029 1.356 . S
N1032 C1024 1.356 . S
N1032 H1038 0.984 . S
N1032 H1039 0.984 . S
N1033 C1026 1.356 . S
N1033 H1036 0.984 . S
N1033 H1037 0.985 . S
H1034 N1029 0.984 . S
H1035 N1029 0.985 . S
H1036 N1033 0.984 . S
H1037 N1033 0.985 . S
H1038 N1032 0.984 . S
H1039 N1032 0.984 . S
H1040 N1028 0.984 . S
H1041 N1028 0.985 . S
C1042 C1043 1.363 . S
C1042 C1048 1.379 . S
C1042 N1050 1.356 . S
C1043 C1042 1.363 . S
C1043 C1049 1.363 1_465 S
C1044 C1045 1.363 . S
C1044 C1049 1.379 . S
C1044 N1051 1.356 . S
C1045 C1044 1.363 . S
C1045 C1048 1.363 1_645 S
N1046 C1048 1.356 1_655 S
N1046 H1058 0.984 1_655 S
N1046 H1059 0.985 . S
N1047 C1049 1.356 1_455 S
N1047 H1052 0.984 . S
N1047 H1053 0.985 1_455 S
C1048 C1042 1.379 . S
C1048 C1045 1.363 1_465 S
C1048 N1046 1.356 1_455 S
C1049 C1043 1.363 1_645 S
C1049 C1044 1.379 . S
C1049 N1047 1.356 1_655 S
N1050 C1042 1.356 . S
N1050 H1056 0.984 . S
N1050 H1057 0.984 . S
N1051 C1044 1.356 . S
N1051 H1054 0.984 . S
N1051 H1055 0.985 . S
H1052 N1047 0.984 . S
H1053 N1047 0.985 1_655 S
H1054 N1051 0.984 . S
H1055 N1051 0.985 . S
H1056 N1050 0.984 . S
H1057 N1050 0.984 . S
H1058 N1046 0.984 1_455 S
H1059 N1046 0.985 . S
C1060 C1061 1.363 . S
C1060 C1066 1.379 . S
C1060 N1068 1.356 . S
C1061 C1060 1.363 . S
C1061 C1067 1.363 . S
C1062 C1063 1.363 . S
C1062 C1067 1.379 . S
C1062 N1069 1.356 . S
C1063 C1062 1.363 . S
C1063 C1066 1.363 . S
N1064 C1066 1.356 . S
N1064 H1076 0.984 . S
N1064 H1077 0.985 . S
N1065 C1067 1.356 . S
N1065 H1070 0.984 . S
N1065 H1071 0.985 . S
C1066 C1060 1.379 . S
C1066 C1063 1.363 . S
C1066 N1064 1.356 . S
C1067 C1061 1.363 . S
C1067 C1062 1.379 . S
C1067 N1065 1.356 . S
N1068 C1060 1.356 . S
N1068 H1074 0.984 . S
N1068 H1075 0.984 . S
N1069 C1062 1.356 . S
N1069 H1072 0.984 . S
N1069 H1073 0.985 . S
H1070 N1065 0.984 . S
H1071 N1065 0.985 . S
H1072 N1069 0.984 . S
H1073 N1069 0.985 . S
H1074 N1068 0.984 . S
H1075 N1068 0.984 . S
H1076 N1064 0.984 . S
H1077 N1064 0.985 . S
C1078 C1079 1.363 1_565 S
C1078 C1084 1.379 1_554 S
C1078 N1086 1.356 . S
C1079 C1078 1.363 1_545 S
C1079 C1085 1.363 . S
C1080 C1081 1.363 1_545 S
C1080 C1085 1.379 1_556 S
C1080 N1087 1.356 . S
C1081 C1080 1.363 1_565 S
C1081 C1084 1.363 . S
N1082 C1084 1.356 . S
N1082 H1094 0.984 . S
N1082 H1095 0.985 . S
N1083 C1085 1.356 . S
N1083 H1088 0.984 . S
N1083 H1089 0.985 . S
C1084 C1078 1.379 1_556 S
C1084 C1081 1.363 . S
C1084 N1082 1.356 . S
C1085 C1079 1.363 . S
C1085 C1080 1.379 1_554 S
C1085 N1083 1.356 . S
N1086 C1078 1.356 . S
N1086 H1092 0.984 . S
N1086 H1093 0.984 . S
N1087 C1080 1.356 . S
N1087 H1090 0.984 . S
N1087 H1091 0.985 . S
H1088 N1083 0.984 . S
H1089 N1083 0.985 . S
H1090 N1087 0.984 . S
H1091 N1087 0.985 . S
H1092 N1086 0.984 . S
H1093 N1086 0.984 . S
H1094 N1082 0.984 . S
H1095 N1082 0.985 . S
C1096 C1097 1.363 . S
C1096 C1102 1.379 . S
C1096 N1104 1.356 . S
C1097 C1096 1.363 . S
C1097 C1103 1.363 . S
C1098 C1099 1.363 . S
C1098 C1103 1.379 . S
C1098 N1105 1.356 . S
C1099 C1098 1.363 . S
C1099 C1102 1.363 . S
N1100 C1102 1.356 . S
N1100 H1112 0.984 . S
N1100 H1113 0.985 . S
N1101 C1103 1.356 . S
N1101 H1106 0.984 . S
N1101 H1107 0.985 . S
C1102 C1096 1.379 . S
C1102 C1099 1.363 . S
C1102 N1100 1.356 . S
C1103 C1097 1.363 . S
C1103 C1098 1.379 . S
C1103 N1101 1.356 . S
N1104 C1096 1.356 . S
N1104 H1110 0.984 . S
N1104 H1111 0.984 . S
N1105 C1098 1.356 . S
N1105 H1108 0.984 . S
N1105 H1109 0.985 . S
H1106 N1101 0.984 . S
H1107 N1101 0.985 . S
H1108 N1105 0.984 . S
H1109 N1105 0.985 . S
H1110 N1104 0.984 . S
H1111 N1104 0.984 . S
H1112 N1100 0.984 . S
H1113 N1100 0.985 . S
C1114 C1115 1.363 1_545 S
C1114 C1120 1.379 . S
C1114 N1122 1.356 . S
C1115 C1114 1.363 1_565 S
C1115 C1121 1.363 . S
C1116 C1117 1.363 1_565 S
C1116 C1121 1.379 . S
C1116 N1123 1.356 . S
C1117 C1116 1.363 1_545 S
C1117 C1120 1.363 . S
N1118 C1120 1.356 . S
N1118 H1130 0.984 . S
N1118 H1131 0.985 . S
N1119 C1121 1.356 . S
N1119 H1124 0.984 . S
N1119 H1125 0.985 . S
C1120 C1114 1.379 . S
C1120 C1117 1.363 . S
C1120 N1118 1.356 . S
C1121 C1115 1.363 . S
C1121 C1116 1.379 . S
C1121 N1119 1.356 . S
N1122 C1114 1.356 . S
N1122 H1128 0.984 . S
N1122 H1129 0.984 . S
N1123 C1116 1.356 . S
N1123 H1126 0.984 . S
N1123 H1127 0.985 . S
H1124 N1119 0.984 . S
H1125 N1119 0.985 . S
H1126 N1123 0.984 . S
H1127 N1123 0.985 . S
H1128 N1122 0.984 . S
H1129 N1122 0.984 . S
H1130 N1118 0.984 . S
H1131 N1118 0.985 . S
C1132 C1133 1.363 . S
C1132 C1138 1.379 . S
C1132 N1140 1.356 . S
C1133 C1132 1.363 . S
C1133 C1139 1.363 . S
C1134 C1135 1.363 . S
C1134 C1139 1.379 . S
C1134 N1141 1.356 . S
C1135 C1134 1.363 . S
C1135 C1138 1.363 . S
N1136 C1138 1.356 . S
N1136 H1148 0.984 . S
N1136 H1149 0.985 . S
N1137 C1139 1.356 . S
N1137 H1142 0.984 . S
N1137 H1143 0.985 . S
C1138 C1132 1.379 . S
C1138 C1135 1.363 . S
C1138 N1136 1.356 . S
C1139 C1133 1.363 . S
C1139 C1134 1.379 . S
C1139 N1137 1.356 . S
N1140 C1132 1.356 . S
N1140 H1146 0.984 . S
N1140 H1147 0.984 . S
N1141 C1134 1.356 . S
N1141 H1144 0.984 . S
N1141 H1145 0.985 . S
H1142 N1137 0.984 . S
H1143 N1137 0.985 . S
H1144 N1141 0.984 . S
H1145 N1141 0.985 . S
H1146 N1140 0.984 . S
H1147 N1140 0.984 . S
H1148 N1136 0.984 . S
H1149 N1136 0.985 . S
C1150 C1151 1.363 1_665 S
C1150 C1156 1.379 1_556 S
C1150 N1158 1.356 . S
C1151 C1150 1.363 1_445 S
C1151 C1157 1.363 . S
C1152 C1153 1.363 1_445 S
C1152 C1157 1.379 1_554 S
C1152 N1159 1.356 . S
C1153 C1152 1.363 1_665 S
C1153 C1156 1.363 . S
N1154 C1156 1.356 . S
N1154 H1166 0.984 . S
N1154 H1167 0.985 . S
N1155 C1157 1.356 . S
N1155 H1160 0.984 . S
N1155 H1161 0.985 . S
C1156 C1150 1.379 1_554 S
C1156 C1153 1.363 . S
C1156 N1154 1.356 . S
C1157 C1151 1.363 . S
C1157 C1152 1.379 1_556 S
C1157 N1155 1.356 . S
N1158 C1150 1.356 . S
N1158 H1164 0.984 . S
N1158 H1165 0.984 1_655 S
N1159 C1152 1.356 . S
N1159 H1162 0.984 1_455 S
N1159 H1163 0.985 . S
H1160 N1155 0.984 . S
H1161 N1155 0.985 . S
H1162 N1159 0.984 1_655 S
H1163 N1159 0.985 . S
H1164 N1158 0.984 . S
H1165 N1158 0.984 1_455 S
H1166 N1154 0.984 . S
H1167 N1154 0.985 . S
C1168 C1169 1.363 . S
C1168 C1174 1.379 . S
C1168 N1176 1.356 . S
C1169 C1168 1.363 . S
C1169 C1175 1.363 . S
C1170 C1171 1.363 . S
C1170 C1175 1.379 . S
C1170 N1177 1.356 . S
C1171 C1170 1.363 . S
C1171 C1174 1.363 . S
N1172 C1174 1.356 . S
N1172 H1184 0.984 . S
N1172 H1185 0.985 . S
N1173 C1175 1.356 . S
N1173 H1178 0.984 . S
N1173 H1179 0.985 . S
C1174 C1168 1.379 . S
C1174 C1171 1.363 . S
C1174 N1172 1.356 . S
C1175 C1169 1.363 . S
C1175 C1170 1.379 . S
C1175 N1173 1.356 . S
N1176 C1168 1.356 . S
N1176 H1182 0.984 . S
N1176 H1183 0.984 . S
N1177 C1170 1.356 . S
N1177 H1180 0.984 . S
N1177 H1181 0.985 . S
H1178 N1173 0.984 . S
H1179 N1173 0.985 . S
H1180 N1177 0.984 . S
H1181 N1177 0.985 . S
H1182 N1176 0.984 . S
H1183 N1176 0.984 . S
H1184 N1172 0.984 . S
H1185 N1172 0.985 . S
C1186 C1187 1.363 . S
C1186 C1192 1.379 . S
C1186 N1194 1.356 . S
C1187 C1186 1.363 . S
C1187 C1193 1.363 . S
C1188 C1189 1.363 . S
C1188 C1193 1.379 . S
C1188 N1195 1.356 . S
C1189 C1188 1.363 . S
C1189 C1192 1.363 . S
N1190 C1192 1.356 . S
N1190 H1202 0.984 . S
N1190 H1203 0.985 . S
N1191 C1193 1.356 . S
N1191 H1196 0.984 . S
N1191 H1197 0.985 . S
C1192 C1186 1.379 . S
C1192 C1189 1.363 . S
C1192 N1190 1.356 . S
C1193 C1187 1.363 . S
C1193 C1188 1.379 . S
C1193 N1191 1.356 . S
N1194 C1186 1.356 . S
N1194 H1200 0.984 . S
N1194 H1201 0.984 . S
N1195 C1188 1.356 . S
N1195 H1198 0.984 . S
N1195 H1199 0.985 . S
H1196 N1191 0.984 . S
H1197 N1191 0.985 . S
H1198 N1195 0.984 . S
H1199 N1195 0.985 . S
H1200 N1194 0.984 . S
H1201 N1194 0.984 . S
H1202 N1190 0.984 . S
H1203 N1190 0.985 . S
C1204 C1205 1.363 . S
C1204 C1210 1.379 . S
C1204 N1212 1.356 . S
C1205 C1204 1.363 . S
C1205 C1211 1.363 . S
C1206 C1207 1.363 . S
C1206 C1211 1.379 . S
C1206 N1213 1.356 . S
C1207 C1206 1.363 . S
C1207 C1210 1.363 . S
N1208 C1210 1.356 . S
N1208 H1220 0.984 . S
N1208 H1221 0.985 . S
N1209 C1211 1.356 . S
N1209 H1214 0.984 . S
N1209 H1215 0.985 . S
C1210 C1204 1.379 . S
C1210 C1207 1.363 . S
C1210 N1208 1.356 . S
C1211 C1205 1.363 . S
C1211 C1206 1.379 . S
C1211 N1209 1.356 . S
N1212 C1204 1.356 . S
N1212 H1218 0.984 . S
N1212 H1219 0.984 . S
N1213 C1206 1.356 . S
N1213 H1216 0.984 . S
N1213 H1217 0.985 . S
H1214 N1209 0.984 . S
H1215 N1209 0.985 . S
H1216 N1213 0.984 . S
H1217 N1213 0.985 . S
H1218 N1212 0.984 . S
H1219 N1212 0.984 . S
H1220 N1208 0.984 . S
H1221 N1208 0.985 . S
C1222 C1223 1.363 . S
C1222 C1228 1.379 . S
C1222 N1230 1.356 . S
C1223 C1222 1.363 . S
C1223 C1229 1.363 . S
C1224 C1225 1.363 . S
C1224 C1229 1.379 . S
C1224 N1231 1.356 . S
C1225 C1224 1.363 . S
C1225 C1228 1.363 . S
N1226 C1228 1.356 . S
N1226 H1238 0.984 . S
N1226 H1239 0.985 . S
N1227 C1229 1.356 . S
N1227 H1232 0.984 . S
N1227 H1233 0.985 . S
C1228 C1222 1.379 . S
C1228 C1225 1.363 . S
C1228 N1226 1.356 . S
C1229 C1223 1.363 . S
C1229 C1224 1.379 . S
C1229 N1227 1.356 . S
N1230 C1222 1.356 . S
N1230 H1236 0.984 . S
N1230 H1237 0.984 . S
N1231 C1224 1.356 . S
N1231 H1234 0.984 . S
N1231 H1235 0.985 . S
H1232 N1227 0.984 . S
H1233 N1227 0.985 . S
H1234 N1231 0.984 . S
H1235 N1231 0.985 . S
H1236 N1230 0.984 . S
H1237 N1230 0.984 . S
H1238 N1226 0.984 . S
H1239 N1226 0.985 . S
C1240 C1241 1.363 . S
C1240 C1246 1.379 1_554 S
C1240 N1248 1.356 . S
C1241 C1240 1.363 . S
C1241 C1247 1.363 . S
C1242 C1243 1.363 . S
C1242 C1247 1.379 1_556 S
C1242 N1249 1.356 . S
C1243 C1242 1.363 . S
C1243 C1246 1.363 . S
N1244 C1246 1.356 . S
N1244 H1256 0.984 . S
N1244 H1257 0.985 . S
N1245 C1247 1.356 . S
N1245 H1250 0.984 . S
N1245 H1251 0.985 . S
C1246 C1240 1.379 1_556 S
C1246 C1243 1.363 . S
C1246 N1244 1.356 . S
C1247 C1241 1.363 . S
C1247 C1242 1.379 1_554 S
C1247 N1245 1.356 . S
N1248 C1240 1.356 . S
N1248 H1254 0.984 . S
N1248 H1255 0.984 . S
N1249 C1242 1.356 . S
N1249 H1252 0.984 . S
N1249 H1253 0.985 . S
H1250 N1245 0.984 . S
H1251 N1245 0.985 . S
H1252 N1249 0.984 . S
H1253 N1249 0.985 . S
H1254 N1248 0.984 . S
H1255 N1248 0.984 . S
H1256 N1244 0.984 . S
H1257 N1244 0.985 . S
C1258 C1259 1.363 . S
C1258 C1264 1.379 . S
C1258 N1266 1.356 . S
C1259 C1258 1.363 . S
C1259 C1265 1.363 1_455 S
C1260 C1261 1.363 . S
C1260 C1265 1.379 . S
C1260 N1267 1.356 . S
C1261 C1260 1.363 . S
C1261 C1264 1.363 1_655 S
N1262 C1264 1.356 . S
N1262 H1274 0.984 . S
N1262 H1275 0.985 1_455 S
N1263 C1265 1.356 . S
N1263 H1268 0.984 1_655 S
N1263 H1269 0.985 . S
C1264 C1258 1.379 . S
C1264 C1261 1.363 1_455 S
C1264 N1262 1.356 . S
C1265 C1259 1.363 1_655 S
C1265 C1260 1.379 . S
C1265 N1263 1.356 . S
N1266 C1258 1.356 . S
N1266 H1272 0.984 . S
N1266 H1273 0.984 . S
N1267 C1260 1.356 . S
N1267 H1270 0.984 . S
N1267 H1271 0.985 . S
H1268 N1263 0.984 1_455 S
H1269 N1263 0.985 . S
H1270 N1267 0.984 . S
H1271 N1267 0.985 . S
H1272 N1266 0.984 . S
H1273 N1266 0.984 . S
H1274 N1262 0.984 . S
H1275 N1262 0.985 1_655 S
C1276 C1277 1.363 . S
C1276 C1282 1.379 1_554 S
C1276 N1284 1.356 . S
C1277 C1276 1.363 . S
C1277 C1283 1.363 1_455 S
C1278 C1279 1.363 . S
C1278 C1283 1.379 1_556 S
C1278 N1285 1.356 . S
C1279 C1278 1.363 . S
C1279 C1282 1.363 1_655 S
N1280 C1282 1.356 . S
N1280 H1292 0.984 . S
N1280 H1293 0.985 1_455 S
N1281 C1283 1.356 . S
N1281 H1286 0.984 1_655 S
N1281 H1287 0.985 . S
C1282 C1276 1.379 1_556 S
C1282 C1279 1.363 1_455 S
C1282 N1280 1.356 . S
C1283 C1277 1.363 1_655 S
C1283 C1278 1.379 1_554 S
C1283 N1281 1.356 . S
N1284 C1276 1.356 . S
N1284 H1290 0.984 . S
N1284 H1291 0.984 . S
N1285 C1278 1.356 . S
N1285 H1288 0.984 . S
N1285 H1289 0.985 . S
H1286 N1281 0.984 1_455 S
H1287 N1281 0.985 . S
H1288 N1285 0.984 . S
H1289 N1285 0.985 . S
H1290 N1284 0.984 . S
H1291 N1284 0.984 . S
H1292 N1280 0.984 . S
H1293 N1280 0.985 1_655 S
C1294 C1295 1.363 . S
C1294 C1300 1.379 . S
C1294 N1302 1.356 . S
C1295 C1294 1.363 . S
C1295 C1301 1.363 . S
C1296 C1297 1.363 . S
C1296 C1301 1.379 . S
C1296 N1303 1.356 . S
C1297 C1296 1.363 . S
C1297 C1300 1.363 . S
N1298 C1300 1.356 . S
N1298 H1310 0.984 . S
N1298 H1311 0.985 . S
N1299 C1301 1.356 . S
N1299 H1304 0.984 . S
N1299 H1305 0.985 . S
C1300 C1294 1.379 . S
C1300 C1297 1.363 . S
C1300 N1298 1.356 . S
C1301 C1295 1.363 . S
C1301 C1296 1.379 . S
C1301 N1299 1.356 . S
N1302 C1294 1.356 . S
N1302 H1308 0.984 . S
N1302 H1309 0.984 . S
N1303 C1296 1.356 . S
N1303 H1306 0.984 . S
N1303 H1307 0.985 . S
H1304 N1299 0.984 . S
H1305 N1299 0.985 . S
H1306 N1303 0.984 . S
H1307 N1303 0.985 . S
H1308 N1302 0.984 . S
H1309 N1302 0.984 . S
H1310 N1298 0.984 . S
H1311 N1298 0.985 . S
C1312 C1313 1.363 . S
C1312 C1318 1.379 . S
C1312 N1320 1.356 . S
C1313 C1312 1.363 . S
C1313 C1319 1.363 . S
C1314 C1315 1.363 . S
C1314 C1319 1.379 . S
C1314 N1321 1.356 . S
C1315 C1314 1.363 . S
C1315 C1318 1.363 . S
N1316 C1318 1.356 . S
N1316 H1328 0.984 . S
N1316 H1329 0.985 . S
N1317 C1319 1.356 . S
N1317 H1322 0.984 . S
N1317 H1323 0.985 . S
C1318 C1312 1.379 . S
C1318 C1315 1.363 . S
C1318 N1316 1.356 . S
C1319 C1313 1.363 . S
C1319 C1314 1.379 . S
C1319 N1317 1.356 . S
N1320 C1312 1.356 . S
N1320 H1326 0.984 . S
N1320 H1327 0.984 . S
N1321 C1314 1.356 . S
N1321 H1324 0.984 . S
N1321 H1325 0.985 . S
H1322 N1317 0.984 . S
H1323 N1317 0.985 . S
H1324 N1321 0.984 . S
H1325 N1321 0.985 . S
H1326 N1320 0.984 . S
H1327 N1320 0.984 . S
H1328 N1316 0.984 . S
H1329 N1316 0.985 . S
C1330 C1331 1.363 . S
C1330 C1336 1.379 . S
C1330 N1338 1.356 . S
C1331 C1330 1.363 . S
C1331 C1337 1.363 . S
C1332 C1333 1.363 . S
C1332 C1337 1.379 . S
C1332 N1339 1.356 . S
C1333 C1332 1.363 . S
C1333 C1336 1.363 . S
N1334 C1336 1.356 . S
N1334 H1346 0.984 . S
N1334 H1347 0.985 . S
N1335 C1337 1.356 . S
N1335 H1340 0.984 . S
N1335 H1341 0.985 . S
C1336 C1330 1.379 . S
C1336 C1333 1.363 . S
C1336 N1334 1.356 . S
C1337 C1331 1.363 . S
C1337 C1332 1.379 . S
C1337 N1335 1.356 . S
N1338 C1330 1.356 . S
N1338 H1344 0.984 . S
N1338 H1345 0.984 . S
N1339 C1332 1.356 . S
N1339 H1342 0.984 . S
N1339 H1343 0.985 . S
H1340 N1335 0.984 . S
H1341 N1335 0.985 . S
H1342 N1339 0.984 . S
H1343 N1339 0.985 . S
H1344 N1338 0.984 . S
H1345 N1338 0.984 . S
H1346 N1334 0.984 . S
H1347 N1334 0.985 . S
C1348 C1349 1.363 . S
C1348 C1354 1.379 . S
C1348 N1356 1.356 . S
C1349 C1348 1.363 . S
C1349 C1355 1.363 . S
C1350 C1351 1.363 . S
C1350 C1355 1.379 . S
C1350 N1357 1.356 . S
C1351 C1350 1.363 . S
C1351 C1354 1.363 . S
N1352 C1354 1.356 . S
N1352 H1364 0.984 . S
N1352 H1365 0.985 . S
N1353 C1355 1.356 . S
N1353 H1358 0.984 . S
N1353 H1359 0.985 . S
C1354 C1348 1.379 . S
C1354 C1351 1.363 . S
C1354 N1352 1.356 . S
C1355 C1349 1.363 . S
C1355 C1350 1.379 . S
C1355 N1353 1.356 . S
N1356 C1348 1.356 . S
N1356 H1362 0.984 . S
N1356 H1363 0.984 . S
N1357 C1350 1.356 . S
N1357 H1360 0.984 . S
N1357 H1361 0.985 . S
H1358 N1353 0.984 . S
H1359 N1353 0.985 . S
H1360 N1357 0.984 . S
H1361 N1357 0.985 . S
H1362 N1356 0.984 . S
H1363 N1356 0.984 . S
H1364 N1352 0.984 . S
H1365 N1352 0.985 . S
C1366 C1367 1.363 . S
C1366 C1372 1.379 . S
C1366 N1374 1.356 . S
C1367 C1366 1.363 . S
C1367 C1373 1.363 . S
C1368 C1369 1.363 . S
C1368 C1373 1.379 . S
C1368 N1375 1.356 . S
C1369 C1368 1.363 . S
C1369 C1372 1.363 . S
N1370 C1372 1.356 . S
N1370 H1382 0.984 1_565 S
N1370 H1383 0.985 1_565 S
N1371 C1373 1.356 . S
N1371 H1376 0.984 . S
N1371 H1377 0.985 . S
C1372 C1366 1.379 . S
C1372 C1369 1.363 . S
C1372 N1370 1.356 . S
C1373 C1367 1.363 . S
C1373 C1368 1.379 . S
C1373 N1371 1.356 . S
N1374 C1366 1.356 . S
N1374 H1380 0.984 . S
N1374 H1381 0.984 . S
N1375 C1368 1.356 . S
N1375 H1378 0.984 . S
N1375 H1379 0.985 . S
H1376 N1371 0.984 . S
H1377 N1371 0.985 . S
H1378 N1375 0.984 . S
H1379 N1375 0.985 . S
H1380 N1374 0.984 . S
H1381 N1374 0.984 . S
H1382 N1370 0.984 1_545 S
H1383 N1370 0.985 1_545 S
C1384 C1385 1.363 . S
C1384 C1390 1.379 . S
C1384 N1392 1.356 . S
C1385 C1384 1.363 . S
C1385 C1391 1.363 . S
C1386 C1387 1.363 . S
C1386 C1391 1.379 . S
C1386 N1393 1.356 . S
C1387 C1386 1.363 . S
C1387 C1390 1.363 . S
N1388 C1390 1.356 . S
N1388 H1400 0.984 . S
N1388 H1401 0.985 . S
N1389 C1391 1.356 . S
N1389 H1394 0.984 . S
N1389 H1395 0.985 . S
C1390 C1384 1.379 . S
C1390 C1387 1.363 . S
C1390 N1388 1.356 . S
C1391 C1385 1.363 . S
C1391 C1386 1.379 . S
C1391 N1389 1.356 . S
N1392 C1384 1.356 . S
N1392 H1398 0.984 . S
N1392 H1399 0.984 . S
N1393 C1386 1.356 . S
N1393 H1396 0.984 . S
N1393 H1397 0.985 . S
H1394 N1389 0.984 . S
H1395 N1389 0.985 . S
H1396 N1393 0.984 . S
H1397 N1393 0.985 . S
H1398 N1392 0.984 . S
H1399 N1392 0.984 . S
H1400 N1388 0.984 . S
H1401 N1388 0.985 . S
C1402 C1403 1.363 . S
C1402 C1408 1.379 . S
C1402 N1410 1.356 . S
C1403 C1402 1.363 . S
C1403 C1409 1.363 . S
C1404 C1405 1.363 . S
C1404 C1409 1.379 . S
C1404 N1411 1.356 . S
C1405 C1404 1.363 . S
C1405 C1408 1.363 . S
N1406 C1408 1.356 . S
N1406 H1418 0.984 . S
N1406 H1419 0.985 . S
N1407 C1409 1.356 . S
N1407 H1412 0.984 . S
N1407 H1413 0.985 . S
C1408 C1402 1.379 . S
C1408 C1405 1.363 . S
C1408 N1406 1.356 . S
C1409 C1403 1.363 . S
C1409 C1404 1.379 . S
C1409 N1407 1.356 . S
N1410 C1402 1.356 . S
N1410 H1416 0.995 . S
N1410 H1417 0.983 1_565 S
N1411 C1404 1.356 . S
N1411 H1414 0.984 . S
N1411 H1415 0.985 . S
H1412 N1407 0.984 . S
H1413 N1407 0.985 . S
H1414 N1411 0.984 . S
H1415 N1411 0.985 . S
H1416 N1410 0.995 . S
H1417 N1410 0.983 1_545 S
H1418 N1406 0.984 . S
H1419 N1406 0.985 . S
C1420 C1421 1.363 . S
C1420 C1426 1.379 . S
C1420 N1428 1.356 . S
C1421 C1420 1.363 . S
C1421 C1427 1.363 . S
C1422 C1423 1.363 . S
C1422 C1427 1.379 . S
C1422 N1429 1.356 . S
C1423 C1422 1.363 . S
C1423 C1426 1.363 . S
N1424 C1426 1.356 . S
N1424 H1436 0.984 . S
N1424 H1437 0.985 . S
N1425 C1427 1.356 . S
N1425 H1430 0.984 . S
N1425 H1431 0.985 . S
C1426 C1420 1.379 . S
C1426 C1423 1.363 . S
C1426 N1424 1.356 . S
C1427 C1421 1.363 . S
C1427 C1422 1.379 . S
C1427 N1425 1.356 . S
N1428 C1420 1.356 . S
N1428 H1434 0.984 . S
N1428 H1435 0.984 . S
N1429 C1422 1.356 . S
N1429 H1432 0.984 . S
N1429 H1433 0.985 . S
H1430 N1425 0.984 . S
H1431 N1425 0.985 . S
H1432 N1429 0.984 . S
H1433 N1429 0.985 . S
H1434 N1428 0.984 . S
H1435 N1428 0.984 . S
H1436 N1424 0.984 . S
H1437 N1424 0.985 . S
C1438 C1439 1.363 . S
C1438 C1444 1.379 . S
C1438 N1446 1.356 . S
C1439 C1438 1.363 . S
C1439 C1445 1.363 . S
C1440 C1441 1.363 . S
C1440 C1445 1.379 . S
C1440 N1447 1.356 . S
C1441 C1440 1.363 . S
C1441 C1444 1.363 . S
N1442 C1444 1.356 . S
N1442 H1454 0.984 . S
N1442 H1455 0.985 . S
N1443 C1445 1.356 . S
N1443 H1448 0.984 . S
N1443 H1449 0.985 . S
C1444 C1438 1.379 . S
C1444 C1441 1.363 . S
C1444 N1442 1.356 . S
C1445 C1439 1.363 . S
C1445 C1440 1.379 . S
C1445 N1443 1.356 . S
N1446 C1438 1.356 . S
N1446 H1452 0.984 . S
N1446 H1453 0.984 . S
N1447 C1440 1.356 . S
N1447 H1450 0.984 . S
N1447 H1451 0.985 . S
H1448 N1443 0.984 . S
H1449 N1443 0.985 . S
H1450 N1447 0.984 . S
H1451 N1447 0.985 . S
H1452 N1446 0.984 . S
H1453 N1446 0.984 . S
H1454 N1442 0.984 . S
H1455 N1442 0.985 . S
C1456 C1457 1.363 . S
C1456 C1462 1.379 . S
C1456 N1464 1.356 . S
C1457 C1456 1.363 . S
C1457 C1463 1.363 . S
C1458 C1459 1.363 . S
C1458 C1463 1.379 . S
C1458 N1465 1.356 . S
C1459 C1458 1.363 . S
C1459 C1462 1.363 . S
N1460 C1462 1.356 . S
N1460 H1472 0.984 . S
N1460 H1473 0.985 . S
N1461 C1463 1.356 . S
N1461 H1466 0.984 . S
N1461 H1467 0.985 . S
C1462 C1456 1.379 . S
C1462 C1459 1.363 . S
C1462 N1460 1.356 . S
C1463 C1457 1.363 . S
C1463 C1458 1.379 . S
C1463 N1461 1.356 . S
N1464 C1456 1.356 . S
N1464 H1470 0.984 . S
N1464 H1471 0.984 . S
N1465 C1458 1.356 . S
N1465 H1468 0.984 . S
N1465 H1469 0.985 . S
H1466 N1461 0.984 . S
H1467 N1461 0.985 . S
H1468 N1465 0.984 . S
H1469 N1465 0.985 . S
H1470 N1464 0.984 . S
H1471 N1464 0.984 . S
H1472 N1460 0.984 . S
H1473 N1460 0.985 . S
C1474 C1475 1.363 . S
C1474 C1480 1.379 . S
C1474 N1482 1.356 . S
C1475 C1474 1.363 . S
C1475 C1481 1.363 . S
C1476 C1477 1.363 . S
C1476 C1481 1.379 . S
C1476 N1483 1.356 . S
C1477 C1476 1.363 . S
C1477 C1480 1.363 . S
N1478 C1480 1.356 . S
N1478 H1490 0.984 . S
N1478 H1491 0.985 . S
N1479 C1481 1.356 . S
N1479 H1484 0.984 . S
N1479 H1485 0.985 . S
C1480 C1474 1.379 . S
C1480 C1477 1.363 . S
C1480 N1478 1.356 . S
C1481 C1475 1.363 . S
C1481 C1476 1.379 . S
C1481 N1479 1.356 . S
N1482 C1474 1.356 . S
N1482 H1488 0.984 . S
N1482 H1489 0.984 . S
N1483 C1476 1.356 . S
N1483 H1486 0.984 . S
N1483 H1487 0.985 . S
H1484 N1479 0.984 . S
H1485 N1479 0.985 . S
H1486 N1483 0.984 . S
H1487 N1483 0.985 . S
H1488 N1482 0.984 . S
H1489 N1482 0.984 . S
H1490 N1478 0.984 . S
H1491 N1478 0.985 . S
C1492 C1493 1.363 . S
C1492 C1498 1.379 . S
C1492 N1500 1.356 . S
C1493 C1492 1.363 . S
C1493 C1499 1.363 . S
C1494 C1495 1.363 . S
C1494 C1499 1.379 . S
C1494 N1501 1.356 . S
C1495 C1494 1.363 . S
C1495 C1498 1.363 . S
N1496 C1498 1.356 . S
N1496 H1508 0.984 . S
N1496 H1509 0.985 . S
N1497 C1499 1.356 . S
N1497 H1502 0.984 . S
N1497 H1503 0.985 . S
C1498 C1492 1.379 . S
C1498 C1495 1.363 . S
C1498 N1496 1.356 . S
C1499 C1493 1.363 . S
C1499 C1494 1.379 . S
C1499 N1497 1.356 . S
N1500 C1492 1.356 . S
N1500 H1506 0.984 . S
N1500 H1507 0.984 . S
N1501 C1494 1.356 . S
N1501 H1504 0.984 . S
N1501 H1505 0.985 . S
H1502 N1497 0.984 . S
H1503 N1497 0.985 . S
H1504 N1501 0.984 . S
H1505 N1501 0.985 . S
H1506 N1500 0.984 . S
H1507 N1500 0.984 . S
H1508 N1496 0.984 . S
H1509 N1496 0.985 . S
C1510 C1511 1.363 . S
C1510 C1516 1.379 . S
C1510 N1518 1.356 . S
C1511 C1510 1.363 . S
C1511 C1517 1.363 . S
C1512 C1513 1.363 . S
C1512 C1517 1.379 . S
C1512 N1519 1.356 . S
C1513 C1512 1.363 . S
C1513 C1516 1.363 . S
N1514 C1516 1.356 . S
N1514 H1526 0.984 . S
N1514 H1527 0.985 . S
N1515 C1517 1.356 . S
N1515 H1520 0.984 . S
N1515 H1521 0.985 . S
C1516 C1510 1.379 . S
C1516 C1513 1.363 . S
C1516 N1514 1.356 . S
C1517 C1511 1.363 . S
C1517 C1512 1.379 . S
C1517 N1515 1.356 . S
N1518 C1510 1.356 . S
N1518 H1524 0.984 . S
N1518 H1525 0.984 . S
N1519 C1512 1.356 . S
N1519 H1522 0.984 . S
N1519 H1523 0.985 . S
H1520 N1515 0.984 . S
H1521 N1515 0.985 . S
H1522 N1519 0.984 . S
H1523 N1519 0.985 . S
H1524 N1518 0.984 . S
H1525 N1518 0.984 . S
H1526 N1514 0.984 . S
H1527 N1514 0.985 . S
C1528 C1529 1.363 . S
C1528 C1534 1.379 . S
C1528 N1536 1.356 . S
C1529 C1528 1.363 . S
C1529 C1535 1.363 . S
C1530 C1531 1.363 . S
C1530 C1535 1.379 . S
C1530 N1537 1.356 . S
C1531 C1530 1.363 . S
C1531 C1534 1.363 . S
N1532 C1534 1.356 . S
N1532 H1544 0.984 . S
N1532 H1545 0.985 . S
N1533 C1535 1.356 . S
N1533 H1538 0.984 . S
N1533 H1539 0.985 . S
C1534 C1528 1.379 . S
C1534 C1531 1.363 . S
C1534 N1532 1.356 . S
C1535 C1529 1.363 . S
C1535 C1530 1.379 . S
C1535 N1533 1.356 . S
N1536 C1528 1.356 . S
N1536 H1542 0.984 . S
N1536 H1543 0.984 . S
N1537 C1530 1.356 . S
N1537 H1540 0.984 . S
N1537 H1541 0.985 . S
H1538 N1533 0.984 . S
H1539 N1533 0.985 . S
H1540 N1537 0.984 . S
H1541 N1537 0.985 . S
H1542 N1536 0.984 . S
H1543 N1536 0.984 . S
H1544 N1532 0.984 . S
H1545 N1532 0.985 . S
C1546 C1547 1.363 . S
C1546 C1552 1.379 . S
C1546 N1554 1.356 . S
C1547 C1546 1.363 . S
C1547 C1553 1.363 . S
C1548 C1549 1.363 . S
C1548 C1553 1.379 . S
C1548 N1555 1.356 . S
C1549 C1548 1.363 . S
C1549 C1552 1.363 . S
N1550 C1552 1.356 . S
N1550 H1562 0.984 . S
N1550 H1563 0.985 . S
N1551 C1553 1.356 . S
N1551 H1556 0.984 . S
N1551 H1557 0.985 . S
C1552 C1546 1.379 . S
C1552 C1549 1.363 . S
C1552 N1550 1.356 . S
C1553 C1547 1.363 . S
C1553 C1548 1.379 . S
C1553 N1551 1.356 . S
N1554 C1546 1.356 . S
N1554 H1560 0.984 . S
N1554 H1561 0.984 . S
N1555 C1548 1.356 . S
N1555 H1558 0.984 . S
N1555 H1559 0.985 . S
H1556 N1551 0.984 . S
H1557 N1551 0.985 . S
H1558 N1555 0.984 . S
H1559 N1555 0.985 . S
H1560 N1554 0.984 . S
H1561 N1554 0.984 . S
H1562 N1550 0.984 . S
H1563 N1550 0.985 . S
C1564 C1565 1.363 . S
C1564 C1570 1.379 . S
C1564 N1572 1.356 . S
C1565 C1564 1.363 . S
C1565 C1571 1.363 . S
C1566 C1567 1.363 . S
C1566 C1571 1.379 . S
C1566 N1573 1.356 . S
C1567 C1566 1.363 . S
C1567 C1570 1.363 . S
N1568 C1570 1.356 . S
N1568 H1580 0.984 . S
N1568 H1581 0.985 . S
N1569 C1571 1.356 . S
N1569 H1574 0.984 . S
N1569 H1575 0.985 . S
C1570 C1564 1.379 . S
C1570 C1567 1.363 . S
C1570 N1568 1.356 . S
C1571 C1565 1.363 . S
C1571 C1566 1.379 . S
C1571 N1569 1.356 . S
N1572 C1564 1.356 . S
N1572 H1578 0.984 . S
N1572 H1579 0.984 . S
N1573 C1566 1.356 . S
N1573 H1576 0.984 . S
N1573 H1577 0.985 . S
H1574 N1569 0.984 . S
H1575 N1569 0.985 . S
H1576 N1573 0.984 . S
H1577 N1573 0.985 . S
H1578 N1572 0.984 . S
H1579 N1572 0.984 . S
H1580 N1568 0.984 . S
H1581 N1568 0.985 . S
C1582 C1583 1.363 . S
C1582 C1588 1.379 . S
C1582 N1590 1.356 . S
C1583 C1582 1.363 . S
C1583 C1589 1.363 . S
C1584 C1585 1.363 . S
C1584 C1589 1.379 . S
C1584 N1591 1.356 . S
C1585 C1584 1.363 . S
C1585 C1588 1.363 . S
N1586 C1588 1.356 . S
N1586 H1598 0.984 . S
N1586 H1599 0.985 . S
N1587 C1589 1.356 . S
N1587 H1592 0.984 . S
N1587 H1593 0.985 . S
C1588 C1582 1.379 . S
C1588 C1585 1.363 . S
C1588 N1586 1.356 . S
C1589 C1583 1.363 . S
C1589 C1584 1.379 . S
C1589 N1587 1.356 . S
N1590 C1582 1.356 . S
N1590 H1596 0.984 . S
N1590 H1597 0.984 . S
N1591 C1584 1.356 . S
N1591 H1594 0.984 . S
N1591 H1595 0.985 . S
H1592 N1587 0.984 . S
H1593 N1587 0.985 . S
H1594 N1591 0.984 . S
H1595 N1591 0.985 . S
H1596 N1590 0.984 . S
H1597 N1590 0.984 . S
H1598 N1586 0.984 . S
H1599 N1586 0.985 . S
C449 C385 1.364 . S
C451 C9 1.347 . S
C467 C23 1.347 . S
C469 C119 1.364 . S
C485 C357 1.363 . S
C487 C37 1.347 . S
C503 C51 1.347 . S
C505 C147 1.363 . S
C521 C65 1.347 . S
C523 C413 1.363 . S
C539 C79 1.347 . S
C541 C203 1.363 . S
C557 C93 1.347 . S
C559 C441 1.364 . S
C575 C107 1.347 . S
C577 C175 1.363 . S
C593 C273 1.364 . S
C595 C121 1.347 . S
C611 C7 1.364 . S
C613 C135 1.347 . S
C629 C245 1.363 . S
C631 C149 1.347 . S
C647 C163 1.347 . S
C649 C35 1.363 . S
C665 C301 1.363 . S
C667 C177 1.347 . S
C683 C91 1.363 . S
C685 C191 1.347 . S
C701 C205 1.347 . S
C703 C329 1.364 . S
C719 C63 1.363 . S
C721 C219 1.347 . S
C737 C233 1.347 . S
C739 C161 1.363 . S
C755 C247 1.347 . S
C757 C343 1.363 . S
C773 C133 1.363 . S
C775 C261 1.347 . S
C791 C371 1.364 . S
C793 C275 1.347 . S
C809 C189 1.363 . S
C811 C289 1.347 . S
C827 C427 1.363 . S
C829 C303 1.347 . S
C845 C217 1.363 . S
C847 C317 1.347 . S
C863 C331 1.347 . S
C865 C399 1.364 . S
C881 C49 1.363 . S
C883 C345 1.347 . S
C899 C359 1.347 . S
C901 C231 1.363 . S
C917 C373 1.347 . S
C919 C21 1.363 . S
C935 C387 1.347 . S
C937 C259 1.364 . S
C953 C401 1.347 . S
C955 C77 1.363 . S
C971 C415 1.347 . S
C973 C315 1.363 . S
C989 C429 1.347 . S
C991 C105 1.363 . S
C1007 C443 1.347 . S
C1009 C287 1.364 . S
C1025 C339 1.521 . S
C1027 C3 1.521 . S
C1043 C17 1.521 . S
C1045 C129 1.521 . S
C1061 C367 1.521 . S
C1063 C31 1.521 . S
C1079 C45 1.521 . S
C1081 C157 1.521 . S
C1097 C395 1.521 . S
C1099 C59 1.521 . S
C1115 C73 1.521 . S
C1117 C185 1.521 . S
C1133 C423 1.521 . S
C1135 C87 1.521 . S
C1151 C101 1.521 . S
C1153 C213 1.521 . S
C1169 C115 1.521 . S
C1171 C227 1.521 . S
C1187 C143 1.521 . S
C1189 C255 1.521 . S
C1205 C171 1.521 . S
C1207 C283 1.521 . S
C1223 C199 1.521 . S
C1225 C311 1.521 . S
C1241 C241 1.521 . S
C1243 C353 1.521 . S
C1259 C381 1.521 . S
C1261 C269 1.521 . S
C1277 C409 1.521 . S
C1279 C297 1.521 . S
C1295 C325 1.521 . S
C1297 C437 1.521 . S
C1313 C8 1.477 . S
C1315 C78 1.477 . S
C1331 C22 1.477 . S
C1333 C92 1.477 . S
C1349 C36 1.477 . S
C1351 C106 1.477 . S
C1367 C64 1.477 . S
C1369 C50 1.477 . S
C1385 C120 1.477 . S
C1387 C190 1.477 . S
C1403 C134 1.477 . S
C1405 C204 1.477 . S
C1421 C148 1.477 . S
C1423 C218 1.477 . S
C1439 C162 1.477 . S
C1441 C176 1.477 . S
C1457 C232 1.477 . S
C1459 C302 1.477 . S
C1475 C316 1.477 . S
C1477 C246 1.477 . S
C1493 C260 1.477 . S
C1495 C330 1.477 . S
C1511 C274 1.477 . S
C1513 C288 1.477 . S
C1529 C414 1.477 . S
C1531 C344 1.477 . S
C1547 C358 1.477 . S
C1549 C428 1.477 . S
C1565 C442 1.477 . S
C1567 C372 1.477 . S
C1583 C386 1.477 . S
C1585 C400 1.477 . S
