# Generated by pormake.
# Topology pcl, (4)-cn, num edge types: 1
# Building blocks:
#     Node 0, Type 0, BuildingBlock: UXUYUI_clean_sbu_0, # of connection points: 4
#     Node 1, Type 0, BuildingBlock: UXUYUI_clean_sbu_0, # of connection points: 4
#     Node 2, Type 0, BuildingBlock: UXUYUI_clean_sbu_0, # of connection points: 4
#     Node 3, Type 0, BuildingBlock: UXUYUI_clean_sbu_0, # of connection points: 4
#     Node 4, Type 0, BuildingBlock: UXUYUI_clean_sbu_0, # of connection points: 4
#     Node 5, Type 0, BuildingBlock: UXUYUI_clean_sbu_0, # of connection points: 4
#     Node 6, Type 0, BuildingBlock: UXUYUI_clean_sbu_0, # of connection points: 4
#     Node 7, Type 0, BuildingBlock: UXUYUI_clean_sbu_0, # of connection points: 4
#     Node 8, Type 0, BuildingBlock: UXUYUI_clean_sbu_0, # of connection points: 4
#     Node 9, Type 0, BuildingBlock: UXUYUI_clean_sbu_0, # of connection points: 4
#     Node 10, Type 0, BuildingBlock: UXUYUI_clean_sbu_0, # of connection points: 4
#     Node 11, Type 0, BuildingBlock: UXUYUI_clean_sbu_0, # of connection points: 4
#     Node 12, Type 0, BuildingBlock: UXUYUI_clean_sbu_0, # of connection points: 4
#     Node 13, Type 0, BuildingBlock: UXUYUI_clean_sbu_0, # of connection points: 4
#     Node 14, Type 0, BuildingBlock: UXUYUI_clean_sbu_0, # of connection points: 4
#     Node 15, Type 0, BuildingBlock: UXUYUI_clean_sbu_0, # of connection points: 4
#     Edge 16, Type (0, 0), None
#     Edge 17, Type (0, 0), None
#     Edge 18, Type (0, 0), None
#     Edge 19, Type (0, 0), None
#     Edge 20, Type (0, 0), None
#     Edge 21, Type (0, 0), None
#     Edge 22, Type (0, 0), None
#     Edge 23, Type (0, 0), None
#     Edge 24, Type (0, 0), None
#     Edge 25, Type (0, 0), None
#     Edge 26, Type (0, 0), None
#     Edge 27, Type (0, 0), None
#     Edge 28, Type (0, 0), None
#     Edge 29, Type (0, 0), None
#     Edge 30, Type (0, 0), None
#     Edge 31, Type (0, 0), None
#     Edge 32, Type (0, 0), None
#     Edge 33, Type (0, 0), None
#     Edge 34, Type (0, 0), None
#     Edge 35, Type (0, 0), None
#     Edge 36, Type (0, 0), None
#     Edge 37, Type (0, 0), None
#     Edge 38, Type (0, 0), None
#     Edge 39, Type (0, 0), None
#     Edge 40, Type (0, 0), None
#     Edge 41, Type (0, 0), None
#     Edge 42, Type (0, 0), None
#     Edge 43, Type (0, 0), None
#     Edge 44, Type (0, 0), None
#     Edge 45, Type (0, 0), None
#     Edge 46, Type (0, 0), None
#     Edge 47, Type (0, 0), None
# Relax obj value: 0.133
# Max RMSD: 0.100
# Mean RMSD: 0.099
data_MOF--net-pcl--node1-UXUYUI_clean_sbu_0--edge1-none
_symmetry_space_group_name_H-M    P1
_symmetry_Int_Tables_number       1
_symmetry_cell_setting            triclinic
loop_
_symmetry_equiv_pos_as_xyz
'x, y, z'
_cell_length_a     39.989238
_cell_length_b     45.849015
_cell_length_c     40.333711
_cell_angle_alpha  90.000035
_cell_angle_beta   89.999999
_cell_angle_gamma 89.999962
loop_
_atom_site_label
_atom_site_type_symbol
_atom_site_fract_x
_atom_site_fract_y
_atom_site_fract_z
_atom_type_partial_charge
Li0 Li 0.18563 0.37403 0.124 0.0
Li1 Li 0.19544 0.34824 0.07276 0.0
Li2 Li 0.1872 0.40405 0.07405 0.0
Li3 Li 0.13982 0.36859 0.08532 0.0
C4 C 0.25178 0.37924 0.11246 0.0
N5 N 0.30743 0.37833 0.15295 0.0
C6 C 0.2608 0.35359 0.12887 0.0
C7 C 0.27112 0.40439 0.11641 0.0
C8 C 0.28899 0.35359 0.14933 0.0
C9 C 0.29917 0.40348 0.13703 0.0
C10 C 0.15682 0.3086 0.10868 0.0
C11 C 0.13198 0.26683 0.08194 0.0
N12 N 0.14287 0.24958 0.10715 0.0
C13 C 0.16764 0.29048 0.13441 0.0
C14 C 0.13876 0.29671 0.08229 0.0
C15 C 0.16039 0.26069 0.13315 0.0
C16 C 0.17069 0.3573 0.18821 0.0
N17 N 0.19279 0.37424 0.17133 0.0
C18 C 0.21584 0.39184 0.22244 0.0
C19 C 0.21517 0.39142 0.18769 0.0
C20 C 0.19274 0.37496 0.24033 0.0
C21 C 0.17022 0.35732 0.22274 0.0
H22 H 0.15246 0.34453 0.17477 0.0
H23 H 0.23166 0.40559 0.17394 0.0
C24 C 0.22426 0.31887 0.01752 0.0
N25 N 0.21813 0.31694 0.05061 0.0
C26 C 0.23914 0.2956 1.00058 0.0
C27 C 0.2412 0.26884 0.05209 0.0
C28 C 0.22698 0.2928 0.06807 0.0
C29 C 0.24757 0.26988 0.01778 0.0
H30 H 0.21743 0.33847 1.00423 0.0
H31 H 0.22273 0.29194 0.09445 0.0
C32 C 0.14673 0.41866 0.1379 0.0
N33 N 0.13555 0.44606 0.19783 0.0
C34 C 0.12037 0.40966 0.15821 0.0
C35 C 0.16722 0.44173 0.14785 0.0
C36 C 0.1152 0.42375 0.18849 0.0
C37 C 0.16118 0.45529 0.17829 0.0
C38 C 0.14781 0.37177 0.0162 0.0
C39 C 0.1353 0.39713 1.00152 0.0
C40 C 0.14093 0.34468 1.00182 0.0
C41 C 0.11536 0.39493 0.97319 0.0
C42 C 0.12092 0.34339 0.97346 0.0
N43 N 0.10861 0.36832 0.95988 0.0
C44 C 0.22361 0.44744 0.0363 0.0
C45 C 0.16936 0.4598 0.05535 0.0
C46 C 0.22595 0.47396 0.01908 0.0
N47 N 0.19538 0.44083 0.05358 0.0
C48 C 0.17048 0.48624 0.03836 0.0
C49 C 0.19877 0.49342 0.01943 0.0
H50 H 0.24388 0.43184 0.03515 0.0
H51 H 0.14716 0.45391 0.06913 0.0
C52 C 0.07581 0.34415 0.0989 0.0
N53 N 0.09248 0.36509 0.08165 0.0
C54 C 0.04093 0.34302 0.09817 0.0
C55 C 0.0409 0.38555 0.06278 0.0
C56 C 0.07577 0.38577 0.06409 0.0
C57 C 0.02301 0.36403 0.08011 0.0
H58 H 0.08946 0.32885 0.11409 0.0
H59 H 0.08949 0.40297 0.05187 0.0
O60 O 0.22429 0.37971 0.09239 0.0
O61 O 0.16416 0.33776 0.10932 0.0
O62 O 0.15295 0.40448 0.10876 0.0
O63 O 0.16743 0.37354 0.04395 0.0
H64 H 0.24595 0.33401 0.12614 0.0
H65 H 0.26441 0.42439 0.10378 0.0
H66 H 0.29618 0.33395 0.16237 0.0
H67 H 0.31435 0.42278 0.14044 0.0
H68 H 0.11799 0.25737 0.06166 0.0
H69 H 0.18192 0.29925 0.15491 0.0
H70 H 0.12972 0.31048 0.06253 0.0
H71 H 0.16877 0.24639 0.1528 0.0
H72 H 0.23324 0.40608 0.23513 0.0
H73 H 0.15202 0.34396 0.2356 0.0
H74 H 0.24418 0.29793 0.97435 0.0
H75 H 0.24665 0.24958 0.06661 0.0
H76 H 0.1044 0.39173 0.15085 0.0
H77 H 0.18784 0.44881 0.13241 0.0
H78 H 0.09508 0.41688 0.20463 0.0
H79 H 0.17697 0.47305 0.18645 0.0
H80 H 0.14065 0.4183 0.01205 0.0
H81 H 0.15116 0.32487 0.01218 0.0
H82 H 0.10528 0.41439 0.96177 0.0
H83 H 0.11531 0.32256 0.96216 0.0
H84 H 0.24816 0.47869 1.00467 0.0
H85 H 0.14918 0.50079 0.03966 0.0
H86 H 0.0281 0.32651 0.11256 0.0
H87 H 0.02807 0.40221 0.04862 0.0
Li88 Li 0.81387 0.63991 0.624 0.0
Li89 Li 0.80406 0.6657 0.57276 0.0
Li90 Li 0.8123 0.60989 0.57405 0.0
Li91 Li 0.85968 0.64535 0.58532 0.0
C92 C 0.74771 0.63469 0.61246 0.0
N93 N 0.69207 0.63561 0.65295 0.0
C94 C 0.7387 0.66035 0.62887 0.0
C95 C 0.72838 0.60955 0.61641 0.0
C96 C 0.71051 0.66034 0.64933 0.0
C97 C 0.70032 0.61046 0.63703 0.0
C98 C 0.84267 0.70534 0.60868 0.0
C99 C 0.86751 0.74711 0.58194 0.0
N100 N 0.85662 0.76436 0.60716 0.0
C101 C 0.83185 0.72346 0.63441 0.0
C102 C 0.86073 0.71722 0.58229 0.0
C103 C 0.8391 0.75325 0.63316 0.0
C104 C 0.8288 0.65664 0.68821 0.0
N105 N 0.80671 0.6397 0.67133 0.0
C106 C 0.78365 0.6221 0.72243 0.0
C107 C 0.78433 0.62252 0.68768 0.0
C108 C 0.80675 0.63897 0.74033 0.0
C109 C 0.82927 0.65662 0.72274 0.0
H110 H 0.84703 0.6694 0.67476 0.0
H111 H 0.76784 0.60834 0.67394 0.0
C112 C 0.77524 0.69507 0.51752 0.0
N113 N 0.78136 0.697 0.55061 0.0
C114 C 0.76035 0.71834 0.50058 0.0
C115 C 0.75829 0.7451 0.55208 0.0
C116 C 0.77252 0.72113 0.56807 0.0
C117 C 0.75192 0.74405 0.51778 0.0
H118 H 0.78207 0.67547 0.50423 0.0
H119 H 0.77676 0.72199 0.59445 0.0
C120 C 0.85276 0.59528 0.6379 0.0
N121 N 0.86395 0.56787 0.69783 0.0
C122 C 0.87912 0.60428 0.65821 0.0
C123 C 0.83227 0.5722 0.64785 0.0
C124 C 0.8843 0.59019 0.68849 0.0
C125 C 0.83831 0.55864 0.67829 0.0
C126 C 0.85168 0.64217 0.5162 0.0
C127 C 0.86419 0.6168 0.50152 0.0
C128 C 0.85857 0.66925 0.50182 0.0
C129 C 0.88413 0.619 0.47319 0.0
C130 C 0.87857 0.67055 0.47346 0.0
N131 N 0.89089 0.64561 0.45988 0.0
C132 C 0.77588 0.5665 0.5363 0.0
C133 C 0.83014 0.55413 0.55535 0.0
C134 C 0.77354 0.53997 0.51908 0.0
N135 N 0.80411 0.57311 0.55358 0.0
C136 C 0.82901 0.52769 0.53836 0.0
C137 C 0.80072 0.52051 0.51942 0.0
H138 H 0.75562 0.5821 0.53515 0.0
H139 H 0.85234 0.56003 0.56913 0.0
C140 C 0.92368 0.66979 0.5989 0.0
N141 N 0.90701 0.64885 0.58165 0.0
C142 C 0.95856 0.67092 0.59817 0.0
C143 C 0.9586 0.62839 0.56278 0.0
C144 C 0.92372 0.62817 0.56409 0.0
C145 C 0.97648 0.6499 0.58011 0.0
H146 H 0.91003 0.68509 0.61408 0.0
H147 H 0.91 0.61097 0.55187 0.0
O148 O 0.7752 0.63422 0.59239 0.0
O149 O 0.83534 0.67618 0.60932 0.0
O150 O 0.84655 0.60945 0.60876 0.0
O151 O 0.83206 0.6404 0.54395 0.0
H152 H 0.75354 0.67993 0.62614 0.0
H153 H 0.73508 0.58955 0.60378 0.0
H154 H 0.70332 0.67999 0.66237 0.0
H155 H 0.68515 0.59116 0.64044 0.0
H156 H 0.8815 0.75657 0.56166 0.0
H157 H 0.81757 0.71469 0.65491 0.0
H158 H 0.86977 0.70346 0.56253 0.0
H159 H 0.83072 0.76755 0.65281 0.0
H160 H 0.76625 0.60785 0.73513 0.0
H161 H 0.84747 0.66997 0.7356 0.0
H162 H 0.75531 0.716 0.47435 0.0
H163 H 0.75285 0.76436 0.56661 0.0
H164 H 0.89509 0.62221 0.65085 0.0
H165 H 0.81166 0.56513 0.63241 0.0
H166 H 0.90442 0.59706 0.70463 0.0
H167 H 0.82253 0.54088 0.68645 0.0
H168 H 0.85884 0.59564 0.51204 0.0
H169 H 0.84834 0.68907 0.51218 0.0
H170 H 0.89421 0.59955 0.46177 0.0
H171 H 0.88419 0.69138 0.46217 0.0
H172 H 0.75134 0.53524 0.50468 0.0
H173 H 0.85032 0.51315 0.53966 0.0
H174 H 0.97139 0.68743 0.61256 0.0
H175 H 0.97143 0.61173 0.54862 0.0
Li176 Li 0.1872 0.60989 0.94455 0.0
Li177 Li 0.13982 0.64535 0.93328 0.0
Li178 Li 0.18563 0.63991 0.8946 0.0
Li179 Li 0.19544 0.6657 0.94584 0.0
C180 C 0.14673 0.59528 0.8807 0.0
N181 N 0.13555 0.56787 0.82078 0.0
C182 C 0.12038 0.60427 0.86039 0.0
C183 C 0.16723 0.5722 0.87076 0.0
C184 C 0.1152 0.59018 0.83011 0.0
C185 C 0.16118 0.55864 0.84032 0.0
C186 C 0.14781 0.64217 1.0024 0.0
C187 C 0.12092 0.67056 0.04514 0.0
N188 N 0.1086 0.64562 0.05871 0.0
C189 C 0.1353 0.61681 0.01708 0.0
C190 C 0.14092 0.66926 0.01678 0.0
C191 C 0.11536 0.61901 0.04541 0.0
C192 C 0.22362 0.5665 0.98231 0.0
N193 N 0.19538 0.57311 0.96502 0.0
C194 C 0.17048 0.5277 0.98025 0.0
C195 C 0.16935 0.55414 0.96326 0.0
C196 C 0.19877 0.52052 0.99918 0.0
C197 C 0.22596 0.53997 0.99952 0.0
H198 H 0.24388 0.5821 0.98345 0.0
H199 H 0.14715 0.56003 0.94948 0.0
C200 C 0.07581 0.66979 0.91971 0.0
N201 N 0.09248 0.64885 0.93696 0.0
C202 C 0.04093 0.67092 0.92044 0.0
C203 C 0.0409 0.62839 0.95582 0.0
C204 C 0.07577 0.62817 0.95451 0.0
C205 C 0.02302 0.64991 0.9385 0.0
H206 H 0.08946 0.68509 0.90452 0.0
H207 H 0.08949 0.61097 0.96674 0.0
C208 C 0.25178 0.6347 0.90614 0.0
N209 N 0.30743 0.63561 0.86565 0.0
C210 C 0.2608 0.66035 0.88973 0.0
C211 C 0.27112 0.60955 0.9022 0.0
C212 C 0.28899 0.66035 0.86927 0.0
C213 C 0.29918 0.61046 0.88157 0.0
C214 C 0.15682 0.70534 0.90992 0.0
C215 C 0.16766 0.72346 0.88418 0.0
C216 C 0.13876 0.71723 0.9363 0.0
C217 C 0.16041 0.75325 0.88544 0.0
C218 C 0.13199 0.74711 0.93665 0.0
N219 N 0.14289 0.76436 0.91143 0.0
C220 C 0.17069 0.65664 0.8304 0.0
C221 C 0.21517 0.62252 0.83092 0.0
C222 C 0.17022 0.65661 0.79586 0.0
N223 N 0.19279 0.6397 0.84727 0.0
C224 C 0.21585 0.6221 0.79617 0.0
C225 C 0.19274 0.63897 0.77828 0.0
H226 H 0.15246 0.6694 0.84384 0.0
H227 H 0.23166 0.60835 0.84466 0.0
C228 C 0.22425 0.69507 1.00108 0.0
N229 N 0.21813 0.697 0.96799 0.0
C230 C 0.23914 0.71834 0.01803 0.0
C231 C 0.24121 0.7451 0.96652 0.0
C232 C 0.22698 0.72114 0.95054 0.0
C233 C 0.24757 0.74406 1.00083 0.0
H234 H 0.21743 0.67547 0.01438 0.0
H235 H 0.22273 0.722 0.92416 0.0
O236 O 0.15295 0.60945 0.90985 0.0
O237 O 0.16743 0.6404 0.97466 0.0
O238 O 0.22429 0.63422 0.92621 0.0
O239 O 0.16416 0.67618 0.90928 0.0
H240 H 0.1044 0.62221 0.86776 0.0
H241 H 0.18784 0.56513 0.8862 0.0
H242 H 0.09508 0.59706 0.81397 0.0
H243 H 0.17697 0.54088 0.83216 0.0
H244 H 0.1153 0.69139 0.05643 0.0
H245 H 0.14065 0.59564 1.00656 0.0
H246 H 0.15115 0.68907 1.00641 0.0
H247 H 0.10528 0.59956 0.05683 0.0
H248 H 0.14917 0.51315 0.97895 0.0
H249 H 0.24816 0.53524 0.01392 0.0
H250 H 0.0281 0.68744 0.90605 0.0
H251 H 0.02807 0.61172 0.96998 0.0
H252 H 0.24595 0.67993 0.89246 0.0
H253 H 0.26442 0.58955 0.91482 0.0
H254 H 0.29617 0.67999 0.85623 0.0
H255 H 0.31435 0.59116 0.87817 0.0
H256 H 0.18193 0.71468 0.86369 0.0
H257 H 0.12972 0.70347 0.95607 0.0
H258 H 0.16879 0.76754 0.86579 0.0
H259 H 0.118 0.75658 0.95693 0.0
H260 H 0.15202 0.66997 0.78301 0.0
H261 H 0.23325 0.60786 0.78347 0.0
H262 H 0.24418 0.716 0.04425 0.0
H263 H 0.24665 0.76436 0.95199 0.0
Li264 Li 0.8123 0.40405 0.44455 0.0
Li265 Li 0.85968 0.36859 0.43328 0.0
Li266 Li 0.81387 0.37403 0.3946 0.0
Li267 Li 0.80405 0.34824 0.44584 0.0
C268 C 0.85276 0.41866 0.3807 0.0
N269 N 0.86394 0.44607 0.32078 0.0
C270 C 0.87912 0.40966 0.36039 0.0
C271 C 0.83227 0.44173 0.37076 0.0
C272 C 0.8843 0.42375 0.33011 0.0
C273 C 0.83831 0.45529 0.34032 0.0
C274 C 0.85168 0.37176 0.5024 0.0
C275 C 0.87858 0.34338 0.54514 0.0
N276 N 0.89089 0.36832 0.55872 0.0
C277 C 0.86419 0.39713 0.51708 0.0
C278 C 0.85857 0.34468 0.51678 0.0
C279 C 0.88413 0.39493 0.54541 0.0
C280 C 0.77588 0.44744 0.48231 0.0
N281 N 0.80411 0.44083 0.46502 0.0
C282 C 0.82901 0.48624 0.48025 0.0
C283 C 0.83014 0.4598 0.46326 0.0
C284 C 0.80072 0.49342 0.49918 0.0
C285 C 0.77354 0.47396 0.49952 0.0
H286 H 0.75561 0.43184 0.48345 0.0
H287 H 0.85234 0.4539 0.44948 0.0
C288 C 0.92368 0.34415 0.41971 0.0
N289 N 0.90701 0.36509 0.43696 0.0
C290 C 0.95856 0.34301 0.42044 0.0
C291 C 0.9586 0.38555 0.45582 0.0
C292 C 0.92372 0.38577 0.45451 0.0
C293 C 0.97648 0.36403 0.43849 0.0
H294 H 0.91003 0.32884 0.40452 0.0
H295 H 0.91 0.40297 0.46674 0.0
C296 C 0.74771 0.37924 0.40614 0.0
N297 N 0.69207 0.37832 0.36565 0.0
C298 C 0.73869 0.35358 0.38973 0.0
C299 C 0.72837 0.40438 0.4022 0.0
C300 C 0.71051 0.35359 0.36927 0.0
C301 C 0.70032 0.40348 0.38157 0.0
C302 C 0.84267 0.3086 0.40992 0.0
C303 C 0.83184 0.29048 0.38418 0.0
C304 C 0.86073 0.29671 0.4363 0.0
C305 C 0.83909 0.26069 0.38544 0.0
C306 C 0.8675 0.26682 0.43665 0.0
N307 N 0.85661 0.24958 0.41143 0.0
C308 C 0.82881 0.3573 0.3304 0.0
C309 C 0.78433 0.39142 0.33092 0.0
C310 C 0.82927 0.35732 0.29586 0.0
N311 N 0.80671 0.37424 0.34727 0.0
C312 C 0.78365 0.39184 0.29617 0.0
C313 C 0.80675 0.37496 0.27828 0.0
H314 H 0.84703 0.34454 0.34384 0.0
H315 H 0.76783 0.40559 0.34466 0.0
C316 C 0.77524 0.31887 0.50108 0.0
N317 N 0.78136 0.31694 0.46799 0.0
C318 C 0.76035 0.29559 0.51802 0.0
C319 C 0.75829 0.26884 0.46652 0.0
C320 C 0.77251 0.2928 0.45054 0.0
C321 C 0.75192 0.26988 0.50083 0.0
H322 H 0.78207 0.33847 0.51438 0.0
H323 H 0.77676 0.29194 0.42416 0.0
O324 O 0.84654 0.40448 0.40984 0.0
O325 O 0.83206 0.37354 0.47465 0.0
O326 O 0.7752 0.37971 0.42621 0.0
O327 O 0.83534 0.33776 0.40928 0.0
H328 H 0.89509 0.39173 0.36776 0.0
H329 H 0.81165 0.44881 0.38619 0.0
H330 H 0.90442 0.41688 0.31397 0.0
H331 H 0.82252 0.47305 0.33216 0.0
H332 H 0.8842 0.32255 0.55643 0.0
H333 H 0.85884 0.41829 0.50656 0.0
H334 H 0.84834 0.32486 0.50641 0.0
H335 H 0.89422 0.41438 0.55683 0.0
H336 H 0.85032 0.50079 0.47895 0.0
H337 H 0.75134 0.47869 0.51392 0.0
H338 H 0.97139 0.3265 0.40605 0.0
H339 H 0.97143 0.40221 0.46998 0.0
H340 H 0.75355 0.33401 0.39246 0.0
H341 H 0.73508 0.42439 0.41482 0.0
H342 H 0.70332 0.33395 0.35623 0.0
H343 H 0.68514 0.42278 0.37817 0.0
H344 H 0.81757 0.29925 0.36369 0.0
H345 H 0.86977 0.31047 0.45607 0.0
H346 H 0.8307 0.2464 0.36579 0.0
H347 H 0.88149 0.25736 0.45693 0.0
H348 H 0.84747 0.34397 0.28301 0.0
H349 H 0.76625 0.40608 0.28347 0.0
H350 H 0.75531 0.29793 0.54425 0.0
H351 H 0.75284 0.24958 0.45199 0.0
Li352 Li 0.81541 0.66562 0.94672 0.0
Li353 Li 0.82555 0.61133 0.94508 0.0
Li354 Li 0.86866 0.64499 0.93148 0.0
Li355 Li 0.82419 0.63841 0.89208 0.0
C356 C 0.87165 0.64488 0.9955 0.0
N357 N 0.92691 0.65212 0.03584 0.0
C358 C 0.88752 0.62062 0.00937 0.0
C359 C 0.88382 0.67284 1.00228 0.0
C360 C 0.91545 0.62472 0.02965 0.0
C361 C 0.91177 0.67604 0.02273 0.0
C362 C 0.75654 0.62726 0.93811 0.0
C363 C 0.70151 0.60637 0.93235 0.0
N364 N 0.69443 0.61415 0.96413 0.0
C365 C 0.74874 0.63507 0.97071 0.0
C366 C 0.73275 0.61286 0.91872 0.0
C367 C 0.71719 0.62826 0.9834 0.0
C368 C 0.77117 0.71445 0.95124 0.0
N369 N 0.79282 0.69718 0.96824 0.0
C370 C 0.78563 0.72599 0.01711 0.0
C371 C 0.79979 0.70224 1.00069 0.0
C372 C 0.76318 0.74447 1.00035 0.0
C373 C 0.75583 0.73819 0.96692 0.0
H374 H 0.76591 0.70982 0.92546 0.0
H375 H 0.81655 0.6879 0.01389 0.0
C376 C 0.84604 0.55666 0.9663 0.0
N377 N 0.81861 0.57417 0.96641 0.0
C378 C 0.84568 0.52987 0.98266 0.0
C379 C 0.78857 0.53912 0.99893 0.0
C380 C 0.79 0.56579 0.98204 0.0
C381 C 0.81685 0.5209 0.99977 0.0
H382 H 0.86863 0.56381 0.95402 0.0
H383 H 0.76846 0.57987 0.9821 0.0
C384 C 0.86389 0.69853 0.90032 0.0
N385 N 0.90579 0.74441 0.88465 0.0
C386 C 0.88591 0.69626 0.87354 0.0
C387 C 0.86295 0.72423 0.91897 0.0
C388 C 0.90698 0.71966 0.86609 0.0
C389 C 0.88438 0.74716 0.91067 0.0
C390 C 0.85155 0.58409 0.88944 0.0
C391 C 0.87827 0.56964 0.8743 0.0
C392 C 0.81914 0.57306 0.88599 0.0
C393 C 0.87213 0.54427 0.85609 0.0
C394 C 0.81404 0.54763 0.86761 0.0
N395 N 0.84042 0.53388 0.85316 0.0
C396 C 0.93361 0.62351 0.93245 0.0
C397 C 0.93272 0.67484 0.93891 0.0
C398 C 0.96845 0.62327 0.93409 0.0
N399 N 0.91647 0.64905 0.93446 0.0
C400 C 0.9676 0.67565 0.94048 0.0
C401 C 0.98591 0.64962 0.93789 0.0
H402 H 0.92015 0.60322 0.92963 0.0
H403 H 0.91878 0.6948 0.94175 0.0
C404 C 0.78429 0.63996 0.83188 0.0
N405 N 0.81518 0.63708 0.84565 0.0
C406 C 0.78059 0.63988 0.79728 0.0
C407 C 0.84038 0.6336 0.7921 0.0
C408 C 0.84285 0.63349 0.82654 0.0
C409 C 0.80904 0.6372 0.77701 0.0
H410 H 0.76266 0.64271 0.84769 0.0
H411 H 0.86702 0.63079 0.83816 0.0
O412 O 0.84466 0.64126 0.97503 0.0
O413 O 0.787 0.63421 0.92488 0.0
O414 O 0.84284 0.676 0.90789 0.0
O415 O 0.85727 0.60917 0.90701 0.0
H416 H 0.87845 0.59884 1.00451 0.0
H417 H 0.87228 0.69186 0.99126 0.0
H418 H 0.92803 0.60612 0.04044 0.0
H419 H 0.9216 0.69754 0.02795 0.0
H420 H 0.68287 0.59518 0.91765 0.0
H421 H 0.76702 0.64577 0.98625 0.0
H422 H 0.73836 0.60678 0.89338 0.0
H423 H 0.71085 0.63405 1.00863 0.0
H424 H 0.79273 0.72992 0.04261 0.0
H425 H 0.73822 0.75127 0.95299 0.0
H426 H 0.86791 0.5164 0.98197 0.0
H427 H 0.76586 0.53326 0.01195 0.0
H428 H 0.887 0.67656 0.85889 0.0
H429 H 0.84603 0.7264 0.93973 0.0
H430 H 0.92431 0.71814 0.84557 0.0
H431 H 0.88403 0.76713 0.92496 0.0
H432 H 0.90348 0.578 0.87647 0.0
H433 H 0.79812 0.58392 0.89737 0.0
H434 H 0.89259 0.53288 0.84425 0.0
H435 H 0.7891 0.53884 0.8648 0.0
H436 H 0.98156 0.6027 0.93179 0.0
H437 H 0.98007 0.69637 0.94406 0.0
H438 H 0.756 0.64272 0.78651 0.0
H439 H 0.86283 0.63094 0.77738 0.0
Li440 Li 0.17395 0.40261 0.44508 0.0
Li441 Li 0.18409 0.34832 0.44672 0.0
Li442 Li 0.1753 0.37553 0.39208 0.0
Li443 Li 0.13083 0.36894 0.43148 0.0
C444 C 0.24295 0.38668 0.43811 0.0
N445 N 0.30506 0.39978 0.46413 0.0
C446 C 0.25075 0.37887 0.47071 0.0
C447 C 0.26674 0.40107 0.41872 0.0
C448 C 0.2823 0.38568 0.4834 0.0
C449 C 0.29798 0.40757 0.43235 0.0
C450 C 0.12784 0.36906 0.4955 0.0
C451 C 0.08772 0.33789 0.52273 0.0
N452 N 0.07259 0.36182 0.53584 0.0
C453 C 0.11198 0.39332 0.50937 0.0
C454 C 0.11568 0.34109 0.50228 0.0
C455 C 0.08404 0.38921 0.52965 0.0
C456 C 0.15345 0.45728 0.4663 0.0
N457 N 0.18088 0.43977 0.46641 0.0
C458 C 0.21093 0.47482 0.49893 0.0
C459 C 0.20949 0.44814 0.48204 0.0
C460 C 0.18264 0.49304 0.49977 0.0
C461 C 0.15382 0.48406 0.48266 0.0
H462 H 0.13086 0.45012 0.45402 0.0
H463 H 0.23104 0.43407 0.4821 0.0
C464 C 0.22832 0.29948 0.45124 0.0
N465 N 0.20667 0.31676 0.46824 0.0
C466 C 0.24367 0.27574 0.46692 0.0
C467 C 0.21386 0.28795 0.51711 0.0
C468 C 0.1997 0.31169 0.50069 0.0
C469 C 0.23631 0.26946 0.50035 0.0
H470 H 0.23359 0.30412 0.42546 0.0
H471 H 0.18294 0.32604 0.51389 0.0
C472 C 0.14794 0.42985 0.38944 0.0
N473 N 0.15908 0.48006 0.35316 0.0
C474 C 0.12123 0.4443 0.3743 0.0
C475 C 0.18035 0.44088 0.38599 0.0
C476 C 0.12736 0.46966 0.35609 0.0
C477 C 0.18546 0.46631 0.36761 0.0
C478 C 0.13561 0.31541 0.40032 0.0
C479 C 0.11358 0.31768 0.37354 0.0
C480 C 0.13654 0.28971 0.41897 0.0
C481 C 0.09251 0.29427 0.36609 0.0
C482 C 0.11511 0.26678 0.41067 0.0
N483 N 0.0937 0.26952 0.38465 0.0
C484 C 0.21521 0.37398 0.33188 0.0
C485 C 0.15664 0.38045 0.32654 0.0
C486 C 0.21891 0.37405 0.29728 0.0
N487 N 0.18431 0.37685 0.34565 0.0
C488 C 0.15912 0.38034 0.2921 0.0
C489 C 0.19046 0.37674 0.27701 0.0
H490 H 0.23683 0.37123 0.34769 0.0
H491 H 0.13248 0.38315 0.33816 0.0
C492 C 0.06588 0.39043 0.43245 0.0
N493 N 0.08302 0.36489 0.43446 0.0
C494 C 0.03105 0.39067 0.43409 0.0
C495 C 0.0319 0.33829 0.44048 0.0
C496 C 0.06678 0.33909 0.43891 0.0
C497 C 0.01358 0.36432 0.43789 0.0
H498 H 0.07934 0.41072 0.42963 0.0
H499 H 0.08072 0.31914 0.44175 0.0
O500 O 0.21249 0.37973 0.42488 0.0
O501 O 0.15483 0.37268 0.47503 0.0
O502 O 0.14222 0.40477 0.40701 0.0
O503 O 0.15666 0.33794 0.40789 0.0
H504 H 0.23247 0.36817 0.48625 0.0
H505 H 0.26113 0.40716 0.39339 0.0
H506 H 0.28864 0.37988 0.50863 0.0
H507 H 0.31663 0.41875 0.41765 0.0
H508 H 0.0779 0.3164 0.52795 0.0
H509 H 0.12105 0.41509 0.50451 0.0
H510 H 0.12721 0.32208 0.49126 0.0
H511 H 0.07146 0.40782 0.54044 0.0
H512 H 0.23363 0.48068 0.51195 0.0
H513 H 0.13159 0.49753 0.48197 0.0
H514 H 0.26127 0.26267 0.45299 0.0
H515 H 0.20676 0.28402 0.54261 0.0
H516 H 0.09601 0.43593 0.37647 0.0
H517 H 0.20137 0.43002 0.39737 0.0
H518 H 0.10691 0.48106 0.34425 0.0
H519 H 0.2104 0.4751 0.3648 0.0
H520 H 0.1125 0.33738 0.35889 0.0
H521 H 0.15346 0.28753 0.43973 0.0
H522 H 0.07519 0.29579 0.34557 0.0
H523 H 0.11546 0.24681 0.42496 0.0
H524 H 0.2435 0.37122 0.28651 0.0
H525 H 0.13666 0.383 0.27738 0.0
H526 H 0.01793 0.41124 0.43179 0.0
H527 H 0.01942 0.31756 0.44406 0.0
Li528 Li 0.82419 0.37553 0.12652 0.0
Li529 Li 0.86866 0.36895 0.08713 0.0
Li530 Li 0.82555 0.40261 0.07353 0.0
Li531 Li 0.81541 0.34832 0.07189 0.0
C532 C 0.85155 0.42985 0.12916 0.0
N533 N 0.84041 0.48006 0.16543 0.0
C534 C 0.87826 0.44431 0.1443 0.0
C535 C 0.81913 0.44088 0.13261 0.0
C536 C 0.87213 0.46967 0.1625 0.0
C537 C 0.81403 0.46631 0.15099 0.0
C538 C 0.86389 0.31541 0.11828 0.0
C539 C 0.88438 0.26678 0.10794 0.0
N540 N 0.90579 0.26953 0.13396 0.0
C541 C 0.88591 0.31768 0.14506 0.0
C542 C 0.86295 0.28971 0.09964 0.0
C543 C 0.90698 0.29428 0.15252 0.0
C544 C 0.78429 0.37398 0.18672 0.0
N545 N 0.81518 0.37686 0.17295 0.0
C546 C 0.84038 0.38035 0.2265 0.0
C547 C 0.84285 0.38045 0.19206 0.0
C548 C 0.80903 0.37674 0.24159 0.0
C549 C 0.78059 0.37405 0.22132 0.0
H550 H 0.76266 0.37122 0.17091 0.0
H551 H 0.86701 0.38315 0.18044 0.0
C552 C 0.93361 0.39043 0.08616 0.0
N553 N 0.91647 0.36489 0.08415 0.0
C554 C 0.96845 0.39067 0.08451 0.0
C555 C 0.9676 0.33829 0.07813 0.0
C556 C 0.93272 0.3391 0.0797 0.0
C557 C 0.98591 0.36432 0.08071 0.0
H558 H 0.92015 0.41072 0.08897 0.0
H559 H 0.91878 0.31914 0.07686 0.0
C560 C 0.75654 0.38667 0.08049 0.0
N561 N 0.69444 0.39976 0.05444 0.0
C562 C 0.74876 0.37887 0.04788 0.0
C563 C 0.73274 0.40106 0.09987 0.0
C564 C 0.71721 0.38567 0.03518 0.0
C565 C 0.7015 0.40754 0.08623 0.0
C566 C 0.87165 0.36906 0.02311 0.0
C567 C 0.88752 0.39331 1.00923 0.0
C568 C 0.88382 0.34109 0.01633 0.0
C569 C 0.91545 0.38921 0.98895 0.0
C570 C 0.91177 0.33789 0.99588 0.0
N571 N 0.92691 0.36181 0.98276 0.0
C572 C 0.84605 0.45728 0.05229 0.0
C573 C 0.79 0.44815 0.03657 0.0
C574 C 0.84568 0.48406 0.03594 0.0
N575 N 0.81861 0.43977 0.05219 0.0
C576 C 0.78856 0.47482 0.01968 0.0
C577 C 0.81685 0.49304 0.01883 0.0
H578 H 0.86864 0.45011 0.06457 0.0
H579 H 0.76845 0.43408 0.03652 0.0
C580 C 0.77117 0.29949 0.06737 0.0
N581 N 0.79282 0.31676 0.05036 0.0
C582 C 0.75583 0.27574 0.05168 0.0
C583 C 0.78563 0.28795 1.00149 0.0
C584 C 0.79979 0.31169 0.01791 0.0
C585 C 0.76318 0.26946 0.01825 0.0
H586 H 0.7659 0.30412 0.09314 0.0
H587 H 0.81655 0.32603 1.00471 0.0
O588 O 0.85727 0.40477 0.1116 0.0
O589 O 0.84284 0.33794 0.11071 0.0
O590 O 0.787 0.37973 0.09372 0.0
O591 O 0.84466 0.37268 0.04358 0.0
H592 H 0.90348 0.43595 0.14212 0.0
H593 H 0.79812 0.43002 0.12124 0.0
H594 H 0.89258 0.48108 0.17434 0.0
H595 H 0.78908 0.4751 0.1538 0.0
H596 H 0.88403 0.24681 0.09365 0.0
H597 H 0.88699 0.33738 0.15972 0.0
H598 H 0.84603 0.28753 0.07888 0.0
H599 H 0.9243 0.2958 0.17304 0.0
H600 H 0.86283 0.38301 0.24123 0.0
H601 H 0.75599 0.37121 0.23209 0.0
H602 H 0.98156 0.41124 0.08681 0.0
H603 H 0.98007 0.31756 0.07455 0.0
H604 H 0.76704 0.36817 0.03234 0.0
H605 H 0.73834 0.40714 0.12521 0.0
H606 H 0.71088 0.37988 0.00995 0.0
H607 H 0.68285 0.41872 0.10092 0.0
H608 H 0.87844 0.41509 0.01408 0.0
H609 H 0.87228 0.32208 0.02736 0.0
H610 H 0.92803 0.40781 0.97815 0.0
H611 H 0.9216 0.31639 0.99066 0.0
H612 H 0.86791 0.49752 0.03662 0.0
H613 H 0.76585 0.48069 1.00667 0.0
H614 H 0.73822 0.26267 0.06562 0.0
H615 H 0.79274 0.28402 0.976 0.0
Li616 Li 0.1753 0.63841 0.62653 0.0
Li617 Li 0.13084 0.64499 0.58713 0.0
Li618 Li 0.17395 0.61133 0.57353 0.0
Li619 Li 0.18409 0.66562 0.57189 0.0
C620 C 0.14795 0.58409 0.62916 0.0
N621 N 0.15909 0.53387 0.66543 0.0
C622 C 0.12123 0.56963 0.6443 0.0
C623 C 0.18036 0.57306 0.63261 0.0
C624 C 0.12737 0.54426 0.6625 0.0
C625 C 0.18546 0.54763 0.65099 0.0
C626 C 0.13561 0.69852 0.61828 0.0
C627 C 0.11511 0.74716 0.60794 0.0
N628 N 0.09371 0.74441 0.63396 0.0
C629 C 0.11359 0.69626 0.64506 0.0
C630 C 0.13654 0.72422 0.59964 0.0
C631 C 0.09251 0.71966 0.65252 0.0
C632 C 0.21521 0.63996 0.68672 0.0
N633 N 0.18431 0.63708 0.67295 0.0
C634 C 0.15912 0.63359 0.7265 0.0
C635 C 0.15665 0.63348 0.69206 0.0
C636 C 0.19046 0.6372 0.74159 0.0
C637 C 0.21891 0.63988 0.72132 0.0
H638 H 0.23683 0.64271 0.67091 0.0
H639 H 0.13248 0.63078 0.68044 0.0
C640 C 0.06588 0.62351 0.58616 0.0
N641 N 0.08303 0.64905 0.58415 0.0
C642 C 0.03105 0.62327 0.58451 0.0
C643 C 0.0319 0.67564 0.57813 0.0
C644 C 0.06678 0.67484 0.5797 0.0
C645 C 0.01358 0.64961 0.58071 0.0
H646 H 0.07934 0.60322 0.58897 0.0
H647 H 0.08072 0.6948 0.57686 0.0
C648 C 0.24295 0.62727 0.58049 0.0
N649 N 0.30506 0.61417 0.55445 0.0
C650 C 0.25073 0.63507 0.54788 0.0
C651 C 0.26676 0.61288 0.59987 0.0
C652 C 0.28229 0.62827 0.53518 0.0
C653 C 0.298 0.60639 0.58623 0.0
C654 C 0.12784 0.64488 0.52311 0.0
C655 C 0.11198 0.62062 0.50923 0.0
C656 C 0.11568 0.67285 0.51633 0.0
C657 C 0.08405 0.62473 0.48895 0.0
C658 C 0.08772 0.67605 0.49588 0.0
N659 N 0.07259 0.65212 0.48276 0.0
C660 C 0.15345 0.55666 0.55229 0.0
C661 C 0.2095 0.56579 0.53657 0.0
C662 C 0.15381 0.52988 0.53594 0.0
N663 N 0.18089 0.57417 0.55219 0.0
C664 C 0.21093 0.53911 0.51968 0.0
C665 C 0.18264 0.5209 0.51883 0.0
H666 H 0.13086 0.56382 0.56457 0.0
H667 H 0.23105 0.57986 0.53652 0.0
C668 C 0.22832 0.71445 0.56737 0.0
N669 N 0.20668 0.69718 0.55036 0.0
C670 C 0.24367 0.73819 0.55168 0.0
C671 C 0.21386 0.72599 0.50149 0.0
C672 C 0.1997 0.70224 0.51791 0.0
C673 C 0.23631 0.74447 0.51825 0.0
H674 H 0.23359 0.70982 0.59314 0.0
H675 H 0.18294 0.6879 0.50471 0.0
O676 O 0.14223 0.60916 0.6116 0.0
O677 O 0.15666 0.67599 0.61071 0.0
O678 O 0.21249 0.63421 0.59372 0.0
O679 O 0.15483 0.64126 0.54358 0.0
H680 H 0.09602 0.57799 0.64212 0.0
H681 H 0.20138 0.58392 0.62124 0.0
H682 H 0.10692 0.53286 0.67434 0.0
H683 H 0.21041 0.53884 0.6538 0.0
H684 H 0.11546 0.76713 0.59365 0.0
H685 H 0.1125 0.67656 0.65972 0.0
H686 H 0.15346 0.7264 0.57888 0.0
H687 H 0.07519 0.71814 0.67304 0.0
H688 H 0.13667 0.63093 0.74123 0.0
H689 H 0.2435 0.64272 0.73209 0.0
H690 H 0.01793 0.6027 0.58681 0.0
H691 H 0.01942 0.69637 0.57455 0.0
H692 H 0.23245 0.64576 0.53234 0.0
H693 H 0.26115 0.6068 0.62521 0.0
H694 H 0.28861 0.63406 0.50995 0.0
H695 H 0.31665 0.59522 0.60093 0.0
H696 H 0.12105 0.59885 0.51408 0.0
H697 H 0.12722 0.69186 0.52736 0.0
H698 H 0.07146 0.60613 0.47815 0.0
H699 H 0.0779 0.69755 0.49066 0.0
H700 H 0.13158 0.51641 0.53662 0.0
H701 H 0.23364 0.53325 0.50667 0.0
H702 H 0.26127 0.75127 0.56562 0.0
H703 H 0.20676 0.72992 0.476 0.0
Li704 Li 0.68563 0.87403 0.124 0.0
Li705 Li 0.69544 0.84824 0.07276 0.0
Li706 Li 0.6872 0.90405 0.07405 0.0
Li707 Li 0.63982 0.86859 0.08532 0.0
C708 C 0.75178 0.87924 0.11246 0.0
N709 N 0.80743 0.87833 0.15295 0.0
C710 C 0.7608 0.85359 0.12887 0.0
C711 C 0.77112 0.90439 0.11641 0.0
C712 C 0.78899 0.85359 0.14933 0.0
C713 C 0.79917 0.90348 0.13703 0.0
C714 C 0.65682 0.8086 0.10868 0.0
C715 C 0.63198 0.76683 0.08194 0.0
N716 N 0.64287 0.74958 0.10715 0.0
C717 C 0.66764 0.79048 0.13441 0.0
C718 C 0.63876 0.79671 0.08229 0.0
C719 C 0.66039 0.76069 0.13315 0.0
C720 C 0.67069 0.8573 0.18821 0.0
N721 N 0.69279 0.87424 0.17133 0.0
C722 C 0.71584 0.89184 0.22243 0.0
C723 C 0.71517 0.89142 0.18768 0.0
C724 C 0.69274 0.87496 0.24033 0.0
C725 C 0.67022 0.85732 0.22274 0.0
H726 H 0.65246 0.84453 0.17477 0.0
H727 H 0.73166 0.90559 0.17394 0.0
C728 C 0.72426 0.81887 0.01752 0.0
N729 N 0.71813 0.81694 0.05061 0.0
C730 C 0.73914 0.7956 1.00058 0.0
C731 C 0.7412 0.76884 0.05208 0.0
C732 C 0.72698 0.7928 0.06807 0.0
C733 C 0.74757 0.76988 0.01778 0.0
H734 H 0.71743 0.83847 1.00423 0.0
H735 H 0.72273 0.79194 0.09445 0.0
C736 C 0.64673 0.91866 0.1379 0.0
N737 N 0.63555 0.94606 0.19783 0.0
C738 C 0.62037 0.90966 0.15821 0.0
C739 C 0.66722 0.94173 0.14785 0.0
C740 C 0.6152 0.92375 0.18849 0.0
C741 C 0.66118 0.95529 0.17829 0.0
C742 C 0.64781 0.87177 0.0162 0.0
C743 C 0.6353 0.89713 1.00152 0.0
C744 C 0.64093 0.84468 1.00182 0.0
C745 C 0.61536 0.89493 0.97319 0.0
C746 C 0.62092 0.84339 0.97346 0.0
N747 N 0.60861 0.86832 0.95988 0.0
C748 C 0.72361 0.94744 0.0363 0.0
C749 C 0.66935 0.9598 0.05535 0.0
C750 C 0.72595 0.97396 0.01908 0.0
N751 N 0.69538 0.94083 0.05358 0.0
C752 C 0.67048 0.98624 0.03836 0.0
C753 C 0.69877 0.99342 0.01942 0.0
H754 H 0.74388 0.93184 0.03515 0.0
H755 H 0.64716 0.95391 0.06913 0.0
C756 C 0.57581 0.84415 0.0989 0.0
N757 N 0.59248 0.86509 0.08165 0.0
C758 C 0.54093 0.84302 0.09817 0.0
C759 C 0.54089 0.88555 0.06278 0.0
C760 C 0.57577 0.88577 0.06409 0.0
C761 C 0.52301 0.86403 0.08011 0.0
H762 H 0.58946 0.82885 0.11409 0.0
H763 H 0.58949 0.90297 0.05186 0.0
O764 O 0.72429 0.87971 0.09239 0.0
O765 O 0.66416 0.83776 0.10932 0.0
O766 O 0.65295 0.90448 0.10876 0.0
O767 O 0.66743 0.87354 0.04395 0.0
H768 H 0.74595 0.83401 0.12614 0.0
H769 H 0.76441 0.92439 0.10378 0.0
H770 H 0.79617 0.83395 0.16237 0.0
H771 H 0.81435 0.92278 0.14044 0.0
H772 H 0.61799 0.75737 0.06166 0.0
H773 H 0.68192 0.79925 0.15491 0.0
H774 H 0.62972 0.81048 0.06253 0.0
H775 H 0.66877 0.74639 0.1528 0.0
H776 H 0.73324 0.90608 0.23513 0.0
H777 H 0.65202 0.84396 0.2356 0.0
H778 H 0.74418 0.79793 0.97435 0.0
H779 H 0.74665 0.74958 0.06661 0.0
H780 H 0.6044 0.89173 0.15085 0.0
H781 H 0.68784 0.94881 0.13241 0.0
H782 H 0.59508 0.91688 0.20463 0.0
H783 H 0.67697 0.97305 0.18645 0.0
H784 H 0.64065 0.9183 0.01205 0.0
H785 H 0.65116 0.82487 0.01218 0.0
H786 H 0.60528 0.91439 0.96177 0.0
H787 H 0.61531 0.82255 0.96216 0.0
H788 H 0.74816 0.97869 1.00468 0.0
H789 H 0.64917 1.00079 0.03966 0.0
H790 H 0.5281 0.82651 0.11256 0.0
H791 H 0.52807 0.90221 0.04862 0.0
Li792 Li 0.30405 0.1657 0.57276 0.0
Li793 Li 0.31387 0.13991 0.624 0.0
Li794 Li 0.35968 0.14535 0.58532 0.0
Li795 Li 0.3123 0.10989 0.57405 0.0
C796 C 0.34268 0.20534 0.60868 0.0
N797 N 0.35662 0.26436 0.60715 0.0
C798 C 0.33185 0.22346 0.63441 0.0
C799 C 0.36074 0.21722 0.58229 0.0
C800 C 0.33911 0.25325 0.63315 0.0
C801 C 0.36751 0.2471 0.58194 0.0
C802 C 0.24771 0.13469 0.61246 0.0
C803 C 0.20032 0.11046 0.63703 0.0
N804 N 0.19207 0.13561 0.65295 0.0
C805 C 0.23869 0.16035 0.62887 0.0
C806 C 0.22838 0.10955 0.61641 0.0
C807 C 0.21051 0.16034 0.64933 0.0
C808 C 0.27524 0.19507 0.51752 0.0
N809 N 0.28136 0.197 0.55061 0.0
C810 C 0.25829 0.2451 0.55208 0.0
C811 C 0.27252 0.22113 0.56807 0.0
C812 C 0.25192 0.24405 0.51778 0.0
C813 C 0.26035 0.21834 0.50058 0.0
H814 H 0.28206 0.17546 0.50423 0.0
H815 H 0.27676 0.22199 0.59445 0.0
C816 C 0.3288 0.15664 0.68821 0.0
N817 N 0.30671 0.1397 0.67133 0.0
C818 C 0.32927 0.15662 0.72274 0.0
C819 C 0.28365 0.1221 0.72243 0.0
C820 C 0.28433 0.12252 0.68768 0.0
C821 C 0.30675 0.13898 0.74033 0.0
H822 H 0.34703 0.16941 0.67477 0.0
H823 H 0.26784 0.10834 0.67394 0.0
C824 C 0.35168 0.14217 0.5162 0.0
N825 N 0.39088 0.14561 0.45988 0.0
C826 C 0.36419 0.1168 0.50152 0.0
C827 C 0.35857 0.16925 0.50182 0.0
C828 C 0.38413 0.119 0.47319 0.0
C829 C 0.37857 0.17055 0.47346 0.0
C830 C 0.35276 0.09528 0.6379 0.0
C831 C 0.37912 0.10428 0.65821 0.0
C832 C 0.33227 0.0722 0.64785 0.0
C833 C 0.3843 0.09019 0.6885 0.0
C834 C 0.33832 0.05865 0.67829 0.0
N835 N 0.36395 0.06788 0.69783 0.0
C836 C 0.42368 0.16979 0.5989 0.0
C837 C 0.42372 0.12817 0.56409 0.0
C838 C 0.45856 0.17092 0.59817 0.0
N839 N 0.40701 0.14885 0.58165 0.0
C840 C 0.4586 0.12839 0.56279 0.0
C841 C 0.47648 0.14991 0.58011 0.0
H842 H 0.41003 0.18509 0.61409 0.0
H843 H 0.41 0.11097 0.55187 0.0
C844 C 0.27588 0.0665 0.5363 0.0
N845 N 0.30411 0.07311 0.55358 0.0
C846 C 0.27354 0.03997 0.51908 0.0
C847 C 0.32901 0.02769 0.53836 0.0
C848 C 0.33014 0.05413 0.55535 0.0
C849 C 0.30072 0.02051 0.51943 0.0
H850 H 0.25562 0.0821 0.53515 0.0
H851 H 0.35234 0.06003 0.56913 0.0
O852 O 0.33534 0.17618 0.60932 0.0
O853 O 0.2752 0.13422 0.59239 0.0
O854 O 0.33206 0.1404 0.54395 0.0
O855 O 0.34655 0.10945 0.60876 0.0
H856 H 0.31758 0.21469 0.65491 0.0
H857 H 0.36977 0.20345 0.56252 0.0
H858 H 0.33072 0.26755 0.6528 0.0
H859 H 0.38151 0.25656 0.56166 0.0
H860 H 0.18515 0.09115 0.64044 0.0
H861 H 0.25354 0.17993 0.62614 0.0
H862 H 0.23508 0.08955 0.60378 0.0
H863 H 0.20332 0.17998 0.66237 0.0
H864 H 0.25285 0.26436 0.56661 0.0
H865 H 0.25531 0.216 0.47435 0.0
H866 H 0.34747 0.16998 0.7356 0.0
H867 H 0.26625 0.10785 0.73513 0.0
H868 H 0.35884 0.09564 0.51205 0.0
H869 H 0.34834 0.18907 0.51218 0.0
H870 H 0.39421 0.09955 0.46177 0.0
H871 H 0.38419 0.19138 0.46216 0.0
H872 H 0.39509 0.12221 0.65085 0.0
H873 H 0.31166 0.06513 0.63241 0.0
H874 H 0.40442 0.09706 0.70463 0.0
H875 H 0.32253 0.04088 0.68645 0.0
H876 H 0.47139 0.18743 0.61256 0.0
H877 H 0.47143 0.11173 0.54863 0.0
H878 H 0.25134 0.03524 0.50467 0.0
H879 H 0.35032 0.01314 0.53966 0.0
Li880 Li 0.6872 0.10989 0.94455 0.0
Li881 Li 0.63982 0.14535 0.93328 0.0
Li882 Li 0.68563 0.13991 0.8946 0.0
Li883 Li 0.69544 0.1657 0.94584 0.0
C884 C 0.64673 0.09528 0.8807 0.0
N885 N 0.63555 0.06787 0.82078 0.0
C886 C 0.62038 0.10427 0.86039 0.0
C887 C 0.66723 0.0722 0.87076 0.0
C888 C 0.6152 0.09018 0.83011 0.0
C889 C 0.66118 0.05864 0.84032 0.0
C890 C 0.64781 0.14217 1.0024 0.0
C891 C 0.62092 0.17056 0.04514 0.0
N892 N 0.60861 0.14562 0.05872 0.0
C893 C 0.6353 0.11681 0.01708 0.0
C894 C 0.64092 0.16926 0.01678 0.0
C895 C 0.61536 0.11901 0.04541 0.0
C896 C 0.72362 0.0665 0.98231 0.0
N897 N 0.69538 0.07311 0.96502 0.0
C898 C 0.67048 0.0277 0.98025 0.0
C899 C 0.66935 0.05414 0.96326 0.0
C900 C 0.69877 0.02051 0.99918 0.0
C901 C 0.72595 0.03997 0.99952 0.0
H902 H 0.74388 0.0821 0.98345 0.0
H903 H 0.64716 0.06003 0.94948 0.0
C904 C 0.57581 0.16979 0.91971 0.0
N905 N 0.59248 0.14885 0.93696 0.0
C906 C 0.54093 0.17092 0.92044 0.0
C907 C 0.5409 0.12839 0.95582 0.0
C908 C 0.57577 0.12817 0.95451 0.0
C909 C 0.52302 0.14991 0.93849 0.0
H910 H 0.58946 0.18509 0.90452 0.0
H911 H 0.58949 0.11097 0.96674 0.0
C912 C 0.75178 0.13469 0.90614 0.0
N913 N 0.80743 0.13561 0.86565 0.0
C914 C 0.7608 0.16035 0.88973 0.0
C915 C 0.77112 0.10955 0.9022 0.0
C916 C 0.78899 0.16035 0.86927 0.0
C917 C 0.79918 0.11046 0.88157 0.0
C918 C 0.65682 0.20534 0.90992 0.0
C919 C 0.66765 0.22346 0.88418 0.0
C920 C 0.63876 0.21723 0.93631 0.0
C921 C 0.6604 0.25325 0.88544 0.0
C922 C 0.63199 0.24711 0.93665 0.0
N923 N 0.64289 0.26436 0.91144 0.0
C924 C 0.67069 0.15664 0.8304 0.0
C925 C 0.71517 0.12252 0.83092 0.0
C926 C 0.67022 0.15661 0.79586 0.0
N927 N 0.69279 0.1397 0.84727 0.0
C928 C 0.71584 0.1221 0.79617 0.0
C929 C 0.69274 0.13897 0.77828 0.0
H930 H 0.65246 0.1694 0.84384 0.0
H931 H 0.73166 0.10835 0.84466 0.0
C932 C 0.72426 0.19507 1.00108 0.0
N933 N 0.71813 0.197 0.96799 0.0
C934 C 0.73914 0.21834 0.01802 0.0
C935 C 0.74121 0.2451 0.96652 0.0
C936 C 0.72698 0.22113 0.95054 0.0
C937 C 0.74758 0.24405 1.00083 0.0
H938 H 0.71743 0.17547 0.01438 0.0
H939 H 0.72273 0.222 0.92416 0.0
O940 O 0.65295 0.10945 0.90985 0.0
O941 O 0.66744 0.1404 0.97466 0.0
O942 O 0.72429 0.13422 0.92621 0.0
O943 O 0.66416 0.17618 0.90928 0.0
H944 H 0.6044 0.12221 0.86776 0.0
H945 H 0.68784 0.06513 0.8862 0.0
H946 H 0.59508 0.09706 0.81397 0.0
H947 H 0.67697 0.04088 0.83216 0.0
H948 H 0.6153 0.19139 0.05643 0.0
H949 H 0.64065 0.09564 1.00656 0.0
H950 H 0.65115 0.18907 1.00642 0.0
H951 H 0.60528 0.09956 0.05683 0.0
H952 H 0.64917 0.01315 0.97895 0.0
H953 H 0.74816 0.03524 0.01392 0.0
H954 H 0.5281 0.18744 0.90605 0.0
H955 H 0.52807 0.11173 0.96998 0.0
H956 H 0.74595 0.17993 0.89246 0.0
H957 H 0.76442 0.08955 0.91482 0.0
H958 H 0.79617 0.17999 0.85623 0.0
H959 H 0.81435 0.09116 0.87817 0.0
H960 H 0.68193 0.21468 0.86369 0.0
H961 H 0.62972 0.20346 0.95607 0.0
H962 H 0.66879 0.26754 0.86579 0.0
H963 H 0.618 0.25658 0.95693 0.0
H964 H 0.65202 0.16997 0.78301 0.0
H965 H 0.73325 0.10786 0.78347 0.0
H966 H 0.74418 0.216 0.04425 0.0
H967 H 0.74665 0.26436 0.95199 0.0
Li968 Li 0.35968 0.86859 0.43328 0.0
Li969 Li 0.3123 0.90405 0.44455 0.0
Li970 Li 0.30406 0.84824 0.44584 0.0
Li971 Li 0.31387 0.87403 0.3946 0.0
C972 C 0.35168 0.87176 0.5024 0.0
N973 N 0.39089 0.86831 0.55871 0.0
C974 C 0.36419 0.89713 0.51708 0.0
C975 C 0.35857 0.84468 0.51678 0.0
C976 C 0.38413 0.89492 0.54541 0.0
C977 C 0.37858 0.84338 0.54513 0.0
C978 C 0.35276 0.91866 0.38071 0.0
C979 C 0.33831 0.95529 0.34032 0.0
N980 N 0.36394 0.94607 0.32078 0.0
C981 C 0.37912 0.90966 0.36039 0.0
C982 C 0.33227 0.94174 0.37076 0.0
C983 C 0.3843 0.92375 0.33011 0.0
C984 C 0.42368 0.84415 0.41971 0.0
N985 N 0.40701 0.86509 0.43696 0.0
C986 C 0.4586 0.88555 0.45582 0.0
C987 C 0.42372 0.88577 0.45451 0.0
C988 C 0.47648 0.86403 0.43849 0.0
C989 C 0.45856 0.84301 0.42044 0.0
H990 H 0.41003 0.82884 0.40452 0.0
H991 H 0.41 0.90297 0.46674 0.0
C992 C 0.27588 0.94744 0.4823 0.0
N993 N 0.30411 0.94083 0.46502 0.0
C994 C 0.27354 0.97396 0.49952 0.0
C995 C 0.32902 0.98624 0.48025 0.0
C996 C 0.33014 0.9598 0.46326 0.0
C997 C 0.30072 0.99342 0.49918 0.0
H998 H 0.25561 0.93184 0.48345 0.0
H999 H 0.35234 0.9539 0.44949 0.0
C1000 C 0.34267 0.8086 0.40992 0.0
N1001 N 0.3566 0.74957 0.41143 0.0
C1002 C 0.33184 0.79048 0.38418 0.0
C1003 C 0.36073 0.79671 0.4363 0.0
C1004 C 0.33908 0.76069 0.38543 0.0
C1005 C 0.3675 0.76682 0.43664 0.0
C1006 C 0.24771 0.87924 0.40614 0.0
C1007 C 0.2387 0.85358 0.38973 0.0
C1008 C 0.22837 0.90438 0.4022 0.0
C1009 C 0.21051 0.85359 0.36927 0.0
C1010 C 0.20032 0.90347 0.38157 0.0
N1011 N 0.19207 0.87832 0.36565 0.0
C1012 C 0.27524 0.81887 0.50108 0.0
C1013 C 0.27251 0.7928 0.45054 0.0
C1014 C 0.26035 0.79559 0.51802 0.0
N1015 N 0.28136 0.81694 0.46799 0.0
C1016 C 0.25829 0.76884 0.46652 0.0
C1017 C 0.25192 0.76988 0.50083 0.0
H1018 H 0.28207 0.83847 0.51438 0.0
H1019 H 0.27676 0.79194 0.42416 0.0
C1020 C 0.32881 0.8573 0.3304 0.0
N1021 N 0.30671 0.87424 0.34727 0.0
C1022 C 0.32927 0.85732 0.29586 0.0
C1023 C 0.28365 0.89184 0.29617 0.0
C1024 C 0.28433 0.89142 0.33092 0.0
C1025 C 0.30675 0.87497 0.27828 0.0
H1026 H 0.34703 0.84454 0.34384 0.0
H1027 H 0.26783 0.90559 0.34466 0.0
O1028 O 0.33206 0.87354 0.47466 0.0
O1029 O 0.34654 0.90448 0.40985 0.0
O1030 O 0.33534 0.83776 0.40928 0.0
O1031 O 0.2752 0.87971 0.42621 0.0
H1032 H 0.35884 0.91829 0.50656 0.0
H1033 H 0.34834 0.82486 0.50641 0.0
H1034 H 0.39422 0.91438 0.55683 0.0
H1035 H 0.3842 0.82254 0.55642 0.0
H1036 H 0.32252 0.97305 0.33216 0.0
H1037 H 0.39509 0.89173 0.36776 0.0
H1038 H 0.31165 0.94881 0.3862 0.0
H1039 H 0.40442 0.91688 0.31397 0.0
H1040 H 0.47143 0.90221 0.46998 0.0
H1041 H 0.47139 0.8265 0.40605 0.0
H1042 H 0.25134 0.9787 0.51392 0.0
H1043 H 0.35032 1.00079 0.47896 0.0
H1044 H 0.31756 0.79926 0.36368 0.0
H1045 H 0.36977 0.81047 0.45607 0.0
H1046 H 0.3307 0.7464 0.36578 0.0
H1047 H 0.38149 0.75736 0.45692 0.0
H1048 H 0.25355 0.83401 0.39246 0.0
H1049 H 0.23508 0.92439 0.41482 0.0
H1050 H 0.20332 0.83395 0.35623 0.0
H1051 H 0.18514 0.92278 0.37817 0.0
H1052 H 0.25532 0.79793 0.54425 0.0
H1053 H 0.25284 0.74958 0.45199 0.0
H1054 H 0.34748 0.84397 0.28301 0.0
H1055 H 0.26625 0.90608 0.28347 0.0
Li1056 Li 0.31541 0.16562 0.94672 0.0
Li1057 Li 0.32555 0.11133 0.94508 0.0
Li1058 Li 0.36866 0.14499 0.93148 0.0
Li1059 Li 0.32419 0.13841 0.89208 0.0
C1060 C 0.37165 0.14488 0.9955 0.0
N1061 N 0.42691 0.15211 0.03584 0.0
C1062 C 0.38752 0.12062 0.00937 0.0
C1063 C 0.38382 0.17284 1.00228 0.0
C1064 C 0.41545 0.12472 0.02965 0.0
C1065 C 0.41177 0.17604 0.02273 0.0
C1066 C 0.25654 0.12726 0.9381 0.0
C1067 C 0.20151 0.10636 0.93235 0.0
N1068 N 0.19443 0.11415 0.96413 0.0
C1069 C 0.24874 0.13507 0.9707 0.0
C1070 C 0.23275 0.11286 0.91871 0.0
C1071 C 0.21719 0.12826 0.9834 0.0
C1072 C 0.27117 0.21445 0.95124 0.0
N1073 N 0.29282 0.19718 0.96824 0.0
C1074 C 0.28563 0.22599 0.01711 0.0
C1075 C 0.29979 0.20224 1.00069 0.0
C1076 C 0.26318 0.24447 1.00035 0.0
C1077 C 0.25583 0.23819 0.96692 0.0
H1078 H 0.26591 0.20982 0.92546 0.0
H1079 H 0.31655 0.1879 0.01389 0.0
C1080 C 0.34604 0.05666 0.9663 0.0
N1081 N 0.31861 0.07417 0.96641 0.0
C1082 C 0.34568 0.02987 0.98266 0.0
C1083 C 0.28857 0.03912 0.99893 0.0
C1084 C 0.29001 0.06579 0.98205 0.0
C1085 C 0.31685 0.0209 0.99977 0.0
H1086 H 0.36863 0.06381 0.95402 0.0
H1087 H 0.26846 0.07987 0.9821 0.0
C1088 C 0.36389 0.19853 0.90032 0.0
N1089 N 0.40579 0.24441 0.88465 0.0
C1090 C 0.38591 0.19626 0.87354 0.0
C1091 C 0.36295 0.22423 0.91897 0.0
C1092 C 0.40698 0.21967 0.86609 0.0
C1093 C 0.38438 0.24716 0.91068 0.0
C1094 C 0.35155 0.08409 0.88944 0.0
C1095 C 0.37827 0.06964 0.8743 0.0
C1096 C 0.31914 0.07306 0.88599 0.0
C1097 C 0.37214 0.04427 0.85609 0.0
C1098 C 0.31404 0.04763 0.86761 0.0
N1099 N 0.34042 0.03388 0.85316 0.0
C1100 C 0.43361 0.12351 0.93245 0.0
C1101 C 0.43272 0.17484 0.93891 0.0
C1102 C 0.46845 0.12327 0.93409 0.0
N1103 N 0.41647 0.14905 0.93446 0.0
C1104 C 0.4676 0.17565 0.94048 0.0
C1105 C 0.48591 0.14962 0.93789 0.0
H1106 H 0.42016 0.10322 0.92963 0.0
H1107 H 0.41878 0.1948 0.94175 0.0
C1108 C 0.28429 0.13996 0.83188 0.0
N1109 N 0.31518 0.13708 0.84565 0.0
C1110 C 0.28059 0.13988 0.79728 0.0
C1111 C 0.34038 0.1336 0.7921 0.0
C1112 C 0.34285 0.13349 0.82654 0.0
C1113 C 0.30904 0.1372 0.77701 0.0
H1114 H 0.26266 0.14271 0.84769 0.0
H1115 H 0.36701 0.13079 0.83816 0.0
O1116 O 0.34466 0.14126 0.97503 0.0
O1117 O 0.287 0.13421 0.92488 0.0
O1118 O 0.34284 0.176 0.90789 0.0
O1119 O 0.35727 0.10917 0.90701 0.0
H1120 H 0.37845 0.09884 1.00451 0.0
H1121 H 0.37228 0.19186 0.99126 0.0
H1122 H 0.42804 0.10612 0.04044 0.0
H1123 H 0.4216 0.19754 0.02795 0.0
H1124 H 0.18287 0.09518 0.91765 0.0
H1125 H 0.26701 0.14577 0.98625 0.0
H1126 H 0.23837 0.10678 0.89338 0.0
H1127 H 0.21085 0.13405 1.00863 0.0
H1128 H 0.29273 0.22992 0.04261 0.0
H1129 H 0.23822 0.25127 0.95299 0.0
H1130 H 0.3679 0.0164 0.98197 0.0
H1131 H 0.26586 0.03326 0.01195 0.0
H1132 H 0.387 0.17656 0.85889 0.0
H1133 H 0.34603 0.2264 0.93973 0.0
H1134 H 0.42431 0.21814 0.84557 0.0
H1135 H 0.38403 0.26713 0.92496 0.0
H1136 H 0.40348 0.07801 0.87647 0.0
H1137 H 0.29812 0.08391 0.89737 0.0
H1138 H 0.39259 0.03288 0.84424 0.0
H1139 H 0.2891 0.03884 0.8648 0.0
H1140 H 0.48156 0.1027 0.93179 0.0
H1141 H 0.48007 0.19637 0.94406 0.0
H1142 H 0.25599 0.14272 0.78651 0.0
H1143 H 0.36283 0.13094 0.77737 0.0
Li1144 Li 0.68409 0.84832 0.44672 0.0
Li1145 Li 0.67395 0.90261 0.44508 0.0
Li1146 Li 0.63083 0.86894 0.43148 0.0
Li1147 Li 0.6753 0.87553 0.39208 0.0
C1148 C 0.62784 0.86906 0.4955 0.0
N1149 N 0.57259 0.86182 0.53584 0.0
C1150 C 0.61198 0.89332 0.50937 0.0
C1151 C 0.61568 0.84109 0.50228 0.0
C1152 C 0.58404 0.88921 0.52965 0.0
C1153 C 0.58772 0.83789 0.52273 0.0
C1154 C 0.74295 0.88668 0.43811 0.0
C1155 C 0.79799 0.90756 0.43236 0.0
N1156 N 0.80506 0.89978 0.46414 0.0
C1157 C 0.75075 0.87887 0.47071 0.0
C1158 C 0.76675 0.90107 0.41872 0.0
C1159 C 0.7823 0.88568 0.48341 0.0
C1160 C 0.72832 0.79949 0.45124 0.0
N1161 N 0.70668 0.81676 0.46824 0.0
C1162 C 0.71386 0.78795 0.51711 0.0
C1163 C 0.6997 0.81169 0.50069 0.0
C1164 C 0.73631 0.76946 0.50035 0.0
C1165 C 0.74367 0.77574 0.46692 0.0
H1166 H 0.73359 0.80412 0.42546 0.0
H1167 H 0.68294 0.82603 0.51389 0.0
C1168 C 0.65345 0.95728 0.46631 0.0
N1169 N 0.68089 0.93977 0.46641 0.0
C1170 C 0.65382 0.98406 0.48266 0.0
C1171 C 0.71093 0.97482 0.49893 0.0
C1172 C 0.70949 0.94815 0.48204 0.0
C1173 C 0.68264 0.99304 0.49977 0.0
H1174 H 0.63086 0.95012 0.45402 0.0
H1175 H 0.73104 0.93407 0.4821 0.0
C1176 C 0.63561 0.81541 0.40032 0.0
N1177 N 0.5937 0.76952 0.38465 0.0
C1178 C 0.61358 0.81768 0.37354 0.0
C1179 C 0.63654 0.78971 0.41897 0.0
C1180 C 0.59251 0.79427 0.36609 0.0
C1181 C 0.61511 0.76678 0.41067 0.0
C1182 C 0.64794 0.92985 0.38944 0.0
C1183 C 0.62123 0.9443 0.3743 0.0
C1184 C 0.68036 0.94088 0.38599 0.0
C1185 C 0.62736 0.96967 0.3561 0.0
C1186 C 0.68546 0.96631 0.36761 0.0
N1187 N 0.65908 0.98006 0.35317 0.0
C1188 C 0.56588 0.89043 0.43245 0.0
C1189 C 0.56678 0.83909 0.43891 0.0
C1190 C 0.53105 0.89067 0.43409 0.0
N1191 N 0.58303 0.86489 0.43446 0.0
C1192 C 0.5319 0.83829 0.44048 0.0
C1193 C 0.51358 0.86432 0.43789 0.0
H1194 H 0.57934 0.91072 0.42963 0.0
H1195 H 0.58072 0.81914 0.44175 0.0
C1196 C 0.71521 0.87398 0.33188 0.0
N1197 N 0.68431 0.87685 0.34565 0.0
C1198 C 0.71891 0.87405 0.29728 0.0
C1199 C 0.65912 0.88034 0.2921 0.0
C1200 C 0.65664 0.88045 0.32654 0.0
C1201 C 0.69046 0.87674 0.27701 0.0
H1202 H 0.73683 0.87123 0.34769 0.0
H1203 H 0.63248 0.88315 0.33816 0.0
O1204 O 0.65483 0.87268 0.47503 0.0
O1205 O 0.71249 0.87973 0.42488 0.0
O1206 O 0.65666 0.83794 0.40789 0.0
O1207 O 0.64222 0.90477 0.40701 0.0
H1208 H 0.62105 0.91509 0.50451 0.0
H1209 H 0.62721 0.82208 0.49126 0.0
H1210 H 0.57146 0.90781 0.54044 0.0
H1211 H 0.5779 0.8164 0.52795 0.0
H1212 H 0.81663 0.91875 0.41766 0.0
H1213 H 0.73247 0.86817 0.48625 0.0
H1214 H 0.76113 0.90715 0.39339 0.0
H1215 H 0.78864 0.87988 0.50864 0.0
H1216 H 0.70676 0.78402 0.54261 0.0
H1217 H 0.76127 0.76267 0.45299 0.0
H1218 H 0.63159 0.99753 0.48197 0.0
H1219 H 0.73363 0.98068 0.51194 0.0
H1220 H 0.6125 0.83738 0.35889 0.0
H1221 H 0.65346 0.78753 0.43973 0.0
H1222 H 0.57519 0.79579 0.34557 0.0
H1223 H 0.61546 0.74681 0.42496 0.0
H1224 H 0.59601 0.93593 0.37647 0.0
H1225 H 0.70137 0.93002 0.39737 0.0
H1226 H 0.60691 0.98106 0.34425 0.0
H1227 H 0.7104 0.9751 0.3648 0.0
H1228 H 0.51793 0.91124 0.43179 0.0
H1229 H 0.51942 0.81756 0.44406 0.0
H1230 H 0.7435 0.87122 0.28651 0.0
H1231 H 0.63666 0.883 0.27738 0.0
Li1232 Li 0.32419 0.87553 0.12652 0.0
Li1233 Li 0.36866 0.86895 0.08713 0.0
Li1234 Li 0.32555 0.90261 0.07353 0.0
Li1235 Li 0.31541 0.84832 0.07189 0.0
C1236 C 0.35155 0.92985 0.12916 0.0
N1237 N 0.34041 0.98007 0.16543 0.0
C1238 C 0.37826 0.94431 0.14429 0.0
C1239 C 0.31913 0.94088 0.13261 0.0
C1240 C 0.37212 0.96968 0.16249 0.0
C1241 C 0.31403 0.96631 0.15099 0.0
C1242 C 0.36388 0.81541 0.11828 0.0
C1243 C 0.38438 0.76678 0.10794 0.0
N1244 N 0.40579 0.76953 0.13396 0.0
C1245 C 0.38591 0.81768 0.14507 0.0
C1246 C 0.36295 0.78971 0.09964 0.0
C1247 C 0.40698 0.79428 0.15252 0.0
C1248 C 0.28429 0.87398 0.18672 0.0
N1249 N 0.31518 0.87686 0.17295 0.0
C1250 C 0.34038 0.88035 0.2265 0.0
C1251 C 0.34285 0.88045 0.19206 0.0
C1252 C 0.30903 0.87674 0.24159 0.0
C1253 C 0.28059 0.87405 0.22132 0.0
H1254 H 0.26266 0.87122 0.17091 0.0
H1255 H 0.36701 0.88315 0.18044 0.0
C1256 C 0.43361 0.89043 0.08616 0.0
N1257 N 0.41647 0.86489 0.08415 0.0
C1258 C 0.46845 0.89067 0.08451 0.0
C1259 C 0.46759 0.83829 0.07813 0.0
C1260 C 0.43272 0.8391 0.0797 0.0
C1261 C 0.48591 0.86432 0.08071 0.0
H1262 H 0.42015 0.91072 0.08897 0.0
H1263 H 0.41878 0.81914 0.07686 0.0
C1264 C 0.25654 0.88667 0.08049 0.0
N1265 N 0.19444 0.89976 0.05444 0.0
C1266 C 0.24876 0.87887 0.04788 0.0
C1267 C 0.23273 0.90105 0.09987 0.0
C1268 C 0.21721 0.88567 0.03517 0.0
C1269 C 0.2015 0.90754 0.08622 0.0
C1270 C 0.37165 0.86906 0.02311 0.0
C1271 C 0.38751 0.89331 1.00923 0.0
C1272 C 0.38382 0.84109 0.01633 0.0
C1273 C 0.41545 0.88921 0.98895 0.0
C1274 C 0.41177 0.83789 0.99588 0.0
N1275 N 0.4269 0.86181 0.98276 0.0
C1276 C 0.34605 0.95727 0.05229 0.0
C1277 C 0.29 0.94815 0.03657 0.0
C1278 C 0.34568 0.98406 0.03594 0.0
N1279 N 0.31861 0.93977 0.05219 0.0
C1280 C 0.28856 0.97482 0.01968 0.0
C1281 C 0.31685 0.99304 0.01883 0.0
H1282 H 0.36864 0.95011 0.06456 0.0
H1283 H 0.26845 0.93408 0.03653 0.0
C1284 C 0.27117 0.79949 0.06737 0.0
N1285 N 0.29282 0.81676 0.05036 0.0
C1286 C 0.25582 0.77574 0.05168 0.0
C1287 C 0.28563 0.78795 1.00149 0.0
C1288 C 0.29979 0.81169 0.01791 0.0
C1289 C 0.26318 0.76946 0.01825 0.0
H1290 H 0.2659 0.80412 0.09314 0.0
H1291 H 0.31655 0.82603 1.00471 0.0
O1292 O 0.35727 0.90477 0.1116 0.0
O1293 O 0.34284 0.83794 0.11071 0.0
O1294 O 0.287 0.87973 0.09372 0.0
O1295 O 0.34466 0.87268 0.04358 0.0
H1296 H 0.40348 0.93595 0.14212 0.0
H1297 H 0.29812 0.93001 0.12124 0.0
H1298 H 0.39258 0.98108 0.17433 0.0
H1299 H 0.28908 0.9751 0.1538 0.0
H1300 H 0.38403 0.74681 0.09365 0.0
H1301 H 0.38699 0.83738 0.15972 0.0
H1302 H 0.34603 0.78753 0.07888 0.0
H1303 H 0.4243 0.7958 0.17305 0.0
H1304 H 0.36283 0.88301 0.24123 0.0
H1305 H 0.25599 0.87121 0.23209 0.0
H1306 H 0.48156 0.91124 0.08681 0.0
H1307 H 0.48007 0.81756 0.07455 0.0
H1308 H 0.26705 0.86818 0.03234 0.0
H1309 H 0.23834 0.90713 0.12521 0.0
H1310 H 0.21088 0.87988 0.00994 0.0
H1311 H 0.18284 0.91871 0.10092 0.0
H1312 H 0.37844 0.91509 0.01408 0.0
H1313 H 0.37228 0.82208 0.02736 0.0
H1314 H 0.42803 0.9078 0.97815 0.0
H1315 H 0.42159 0.81639 0.99066 0.0
H1316 H 0.36791 0.99752 0.03661 0.0
H1317 H 0.26585 0.98069 1.00668 0.0
H1318 H 0.23822 0.76267 0.06562 0.0
H1319 H 0.29273 0.78402 0.976 0.0
Li1320 Li 0.63084 0.14499 0.58713 0.0
Li1321 Li 0.6753 0.13841 0.62652 0.0
Li1322 Li 0.68409 0.16562 0.57189 0.0
Li1323 Li 0.67395 0.11133 0.57353 0.0
C1324 C 0.63561 0.19852 0.61828 0.0
N1325 N 0.59371 0.24441 0.63396 0.0
C1326 C 0.61359 0.19626 0.64506 0.0
C1327 C 0.63654 0.22422 0.59964 0.0
C1328 C 0.59251 0.21966 0.65252 0.0
C1329 C 0.61511 0.24716 0.60794 0.0
C1330 C 0.64795 0.08409 0.62916 0.0
C1331 C 0.68546 0.04763 0.65099 0.0
N1332 N 0.65908 0.03387 0.66543 0.0
C1333 C 0.62123 0.06963 0.6443 0.0
C1334 C 0.68036 0.07306 0.63261 0.0
C1335 C 0.62737 0.04426 0.6625 0.0
C1336 C 0.56588 0.12351 0.58616 0.0
N1337 N 0.58303 0.14905 0.58415 0.0
C1338 C 0.5319 0.17565 0.57813 0.0
C1339 C 0.56678 0.17484 0.5797 0.0
C1340 C 0.51358 0.14962 0.58071 0.0
C1341 C 0.53105 0.12327 0.58451 0.0
H1342 H 0.57934 0.10322 0.58897 0.0
H1343 H 0.58072 0.1948 0.57686 0.0
C1344 C 0.71521 0.13996 0.68672 0.0
N1345 N 0.68431 0.13708 0.67295 0.0
C1346 C 0.71891 0.13988 0.72132 0.0
C1347 C 0.65912 0.13359 0.7265 0.0
C1348 C 0.65665 0.13349 0.69206 0.0
C1349 C 0.69046 0.1372 0.74159 0.0
H1350 H 0.73683 0.14271 0.67091 0.0
H1351 H 0.63248 0.13079 0.68044 0.0
C1352 C 0.62784 0.14488 0.52311 0.0
N1353 N 0.57259 0.15212 0.48276 0.0
C1354 C 0.61198 0.12062 0.50923 0.0
C1355 C 0.61568 0.17285 0.51633 0.0
C1356 C 0.58404 0.12473 0.48895 0.0
C1357 C 0.58772 0.17605 0.49588 0.0
C1358 C 0.74295 0.12727 0.58049 0.0
C1359 C 0.75074 0.13507 0.54789 0.0
C1360 C 0.76675 0.11288 0.59988 0.0
C1361 C 0.78229 0.12826 0.53518 0.0
C1362 C 0.79799 0.10639 0.58623 0.0
N1363 N 0.80506 0.11417 0.55445 0.0
C1364 C 0.72832 0.21445 0.56737 0.0
C1365 C 0.6997 0.20224 0.51791 0.0
C1366 C 0.74367 0.23819 0.55168 0.0
N1367 N 0.70667 0.19718 0.55036 0.0
C1368 C 0.71386 0.22599 0.50149 0.0
C1369 C 0.73631 0.24447 0.51825 0.0
H1370 H 0.73359 0.20982 0.59314 0.0
H1371 H 0.68294 0.1879 0.50471 0.0
C1372 C 0.65345 0.05666 0.55229 0.0
N1373 N 0.68089 0.07417 0.55219 0.0
C1374 C 0.65381 0.02988 0.53594 0.0
C1375 C 0.71093 0.03912 0.51968 0.0
C1376 C 0.70949 0.06579 0.53657 0.0
C1377 C 0.68264 0.0209 0.51883 0.0
H1378 H 0.63086 0.06382 0.56457 0.0
H1379 H 0.73104 0.07986 0.53652 0.0
O1380 O 0.65666 0.176 0.61071 0.0
O1381 O 0.64222 0.10916 0.6116 0.0
O1382 O 0.65483 0.14126 0.54358 0.0
O1383 O 0.71249 0.13421 0.59372 0.0
H1384 H 0.6125 0.17656 0.65972 0.0
H1385 H 0.65346 0.2264 0.57888 0.0
H1386 H 0.57519 0.21814 0.67304 0.0
H1387 H 0.61546 0.26713 0.59365 0.0
H1388 H 0.71041 0.03884 0.6538 0.0
H1389 H 0.59602 0.07799 0.64213 0.0
H1390 H 0.70138 0.08392 0.62124 0.0
H1391 H 0.60691 0.03286 0.67434 0.0
H1392 H 0.51942 0.19637 0.57455 0.0
H1393 H 0.51793 0.1027 0.58681 0.0
H1394 H 0.7435 0.14272 0.73209 0.0
H1395 H 0.63666 0.13093 0.74123 0.0
H1396 H 0.62105 0.09885 0.51409 0.0
H1397 H 0.62722 0.19186 0.52735 0.0
H1398 H 0.57146 0.10613 0.47815 0.0
H1399 H 0.5779 0.19755 0.49066 0.0
H1400 H 0.73246 0.14576 0.53235 0.0
H1401 H 0.76115 0.1068 0.62521 0.0
H1402 H 0.78862 0.13406 0.50995 0.0
H1403 H 0.81664 0.09521 0.60093 0.0
H1404 H 0.76127 0.25127 0.56562 0.0
H1405 H 0.70676 0.22992 0.476 0.0
H1406 H 0.63158 0.01641 0.53662 0.0
H1407 H 0.73364 0.03325 0.50667 0.0
loop_
_geom_bond_atom_site_label_1
_geom_bond_atom_site_label_2
_geom_bond_distance
_geom_bond_site_symmetry_2
_ccdc_geom_bond_type
Li0 N17 1.990 . S
Li0 O60 1.956 . S
Li0 O61 1.970 . S
Li0 O62 1.961 . S
Li1 N25 1.990 . S
Li1 O60 1.970 . S
Li1 O61 1.956 . S
Li1 O63 1.961 . S
Li2 N47 1.990 . S
Li2 O60 1.961 . S
Li2 O62 1.956 . S
Li2 O63 1.970 . S
Li3 N53 1.990 . S
Li3 O61 1.961 . S
Li3 O62 1.970 . S
Li3 O63 1.956 . S
C4 C6 1.348 . S
C4 C7 1.356 . S
C4 O60 1.325 . S
N5 C8 1.314 . S
N5 C9 1.279 . S
C6 C4 1.348 . S
C6 C8 1.353 . S
C6 H64 0.929 . S
C7 C4 1.356 . S
C7 C9 1.358 . S
C7 H65 0.930 . S
C8 N5 1.314 . S
C8 C6 1.353 . S
C8 H66 0.930 . S
C9 N5 1.279 . S
C9 C7 1.358 . S
C9 H67 0.930 . S
C10 C13 1.348 . S
C10 C14 1.356 . S
C10 O61 1.325 . S
C11 N12 1.279 . S
C11 C14 1.358 . S
C11 H68 0.930 . S
N12 C11 1.279 . S
N12 C15 1.314 . S
C13 C10 1.348 . S
C13 C15 1.353 . S
C13 H69 0.929 . S
C14 C10 1.356 . S
C14 C11 1.358 . S
C14 H70 0.930 . S
C15 N12 1.314 . S
C15 C13 1.353 . S
C15 H71 0.930 . S
C16 N17 1.314 . S
C16 C21 1.353 . S
C16 H22 0.930 . S
N17 Li0 1.990 . S
N17 C16 1.314 . S
N17 C19 1.279 . S
C18 C19 1.358 . S
C18 C20 1.356 . S
C18 H72 0.930 . S
C19 N17 1.279 . S
C19 C18 1.358 . S
C19 H23 0.930 . S
C20 C18 1.356 . S
C20 C21 1.348 . S
C21 C16 1.353 . S
C21 C20 1.348 . S
C21 H73 0.929 . S
H22 C16 0.930 . S
H23 C19 0.930 . S
C24 N25 1.314 . S
C24 C26 1.353 1_554 S
C24 H30 0.930 . S
N25 Li1 1.990 . S
N25 C24 1.314 . S
N25 C28 1.279 . S
C26 C24 1.353 1_556 S
C26 C29 1.348 1_556 S
C26 H74 0.929 . S
C27 C28 1.358 . S
C27 C29 1.356 . S
C27 H75 0.930 . S
C28 N25 1.279 . S
C28 C27 1.358 . S
C28 H31 0.930 . S
C29 C26 1.348 1_554 S
C29 C27 1.356 . S
H30 C24 0.930 . S
H31 C28 0.930 . S
C32 C34 1.348 . S
C32 C35 1.356 . S
C32 O62 1.325 . S
N33 C36 1.314 . S
N33 C37 1.279 . S
C34 C32 1.348 . S
C34 C36 1.353 . S
C34 H76 0.929 . S
C35 C32 1.356 . S
C35 C37 1.358 . S
C35 H77 0.930 . S
C36 N33 1.314 . S
C36 C34 1.353 . S
C36 H78 0.930 . S
C37 N33 1.279 . S
C37 C35 1.358 . S
C37 H79 0.930 . S
C38 C39 1.348 1_554 S
C38 C40 1.356 1_554 S
C38 O63 1.325 . S
C39 C38 1.348 1_556 S
C39 C41 1.353 . S
C39 H80 0.929 . S
C40 C38 1.356 1_556 S
C40 C42 1.358 . S
C40 H81 0.930 1_556 S
C41 C39 1.353 . S
C41 N43 1.314 . S
C41 H82 0.930 . S
C42 C40 1.358 . S
C42 N43 1.279 . S
C42 H83 0.930 . S
N43 C41 1.314 . S
N43 C42 1.279 . S
C44 C46 1.353 . S
C44 N47 1.314 . S
C44 H50 0.930 . S
C45 N47 1.279 . S
C45 C48 1.358 . S
C45 H51 0.930 . S
C46 C44 1.353 . S
C46 C49 1.348 . S
C46 H84 0.929 1_554 S
N47 Li2 1.990 . S
N47 C44 1.314 . S
N47 C45 1.279 . S
C48 C45 1.358 . S
C48 C49 1.356 . S
C48 H85 0.930 . S
C49 C46 1.348 . S
C49 C48 1.356 . S
H50 C44 0.930 . S
H51 C45 0.930 . S
C52 N53 1.314 . S
C52 C54 1.353 . S
C52 H58 0.930 . S
N53 Li3 1.990 . S
N53 C52 1.314 . S
N53 C56 1.279 . S
C54 C52 1.353 . S
C54 C57 1.348 . S
C54 H86 0.929 . S
C55 C56 1.358 . S
C55 C57 1.356 . S
C55 H87 0.930 . S
C56 N53 1.279 . S
C56 C55 1.358 . S
C56 H59 0.930 . S
C57 C54 1.348 . S
C57 C55 1.356 . S
H58 C52 0.930 . S
H59 C56 0.930 . S
O60 Li0 1.956 . S
O60 Li1 1.970 . S
O60 Li2 1.961 . S
O60 C4 1.325 . S
O61 Li0 1.970 . S
O61 Li1 1.956 . S
O61 Li3 1.961 . S
O61 C10 1.325 . S
O62 Li0 1.961 . S
O62 Li2 1.956 . S
O62 Li3 1.970 . S
O62 C32 1.325 . S
O63 Li1 1.961 . S
O63 Li2 1.970 . S
O63 Li3 1.956 . S
O63 C38 1.325 . S
H64 C6 0.929 . S
H65 C7 0.930 . S
H66 C8 0.930 . S
H67 C9 0.930 . S
H68 C11 0.930 . S
H69 C13 0.929 . S
H70 C14 0.930 . S
H71 C15 0.930 . S
H72 C18 0.930 . S
H73 C21 0.929 . S
H74 C26 0.929 . S
H75 C27 0.930 . S
H76 C34 0.929 . S
H77 C35 0.930 . S
H78 C36 0.930 . S
H79 C37 0.930 . S
H80 C39 0.929 . S
H81 C40 0.930 1_554 S
H82 C41 0.930 . S
H83 C42 0.930 . S
H84 C46 0.929 1_556 S
H85 C48 0.930 . S
H86 C54 0.929 . S
H87 C55 0.930 . S
Li88 N105 1.990 . S
Li88 O148 1.956 . S
Li88 O149 1.970 . S
Li88 O150 1.961 . S
Li89 N113 1.990 . S
Li89 O148 1.970 . S
Li89 O149 1.956 . S
Li89 O151 1.961 . S
Li90 N135 1.990 . S
Li90 O148 1.961 . S
Li90 O150 1.956 . S
Li90 O151 1.970 . S
Li91 N141 1.990 . S
Li91 O149 1.961 . S
Li91 O150 1.970 . S
Li91 O151 1.956 . S
C92 C94 1.348 . S
C92 C95 1.356 . S
C92 O148 1.325 . S
N93 C96 1.314 . S
N93 C97 1.279 . S
C94 C92 1.348 . S
C94 C96 1.353 . S
C94 H152 0.929 . S
C95 C92 1.356 . S
C95 C97 1.358 . S
C95 H153 0.930 . S
C96 N93 1.314 . S
C96 C94 1.353 . S
C96 H154 0.930 . S
C97 N93 1.279 . S
C97 C95 1.358 . S
C97 H155 0.930 . S
C98 C101 1.348 . S
C98 C102 1.356 . S
C98 O149 1.325 . S
C99 N100 1.279 . S
C99 C102 1.358 . S
C99 H156 0.930 . S
N100 C99 1.279 . S
N100 C103 1.314 . S
C101 C98 1.348 . S
C101 C103 1.353 . S
C101 H157 0.929 . S
C102 C98 1.356 . S
C102 C99 1.358 . S
C102 H158 0.930 . S
C103 N100 1.314 . S
C103 C101 1.353 . S
C103 H159 0.930 . S
C104 N105 1.314 . S
C104 C109 1.353 . S
C104 H110 0.930 . S
N105 Li88 1.990 . S
N105 C104 1.314 . S
N105 C107 1.279 . S
C106 C107 1.358 . S
C106 C108 1.356 . S
C106 H160 0.930 . S
C107 N105 1.279 . S
C107 C106 1.358 . S
C107 H111 0.930 . S
C108 C106 1.356 . S
C108 C109 1.348 . S
C109 C104 1.353 . S
C109 C108 1.348 . S
C109 H161 0.929 . S
H110 C104 0.930 . S
H111 C107 0.930 . S
C112 N113 1.314 . S
C112 C114 1.353 . S
C112 H118 0.930 . S
N113 Li89 1.990 . S
N113 C112 1.314 . S
N113 C116 1.279 . S
C114 C112 1.353 . S
C114 C117 1.348 . S
C114 H162 0.929 . S
C115 C116 1.358 . S
C115 C117 1.356 . S
C115 H163 0.930 . S
C116 N113 1.279 . S
C116 C115 1.358 . S
C116 H119 0.930 . S
C117 C114 1.348 . S
C117 C115 1.356 . S
H118 C112 0.930 . S
H119 C116 0.930 . S
C120 C122 1.348 . S
C120 C123 1.356 . S
C120 O150 1.325 . S
N121 C124 1.314 . S
N121 C125 1.279 . S
C122 C120 1.348 . S
C122 C124 1.353 . S
C122 H164 0.929 . S
C123 C120 1.356 . S
C123 C125 1.358 . S
C123 H165 0.930 . S
C124 N121 1.314 . S
C124 C122 1.353 . S
C124 H166 0.930 . S
C125 N121 1.279 . S
C125 C123 1.358 . S
C125 H167 0.930 . S
C126 C127 1.348 . S
C126 C128 1.356 . S
C126 O151 1.325 . S
C127 C126 1.348 . S
C127 C129 1.353 . S
C127 H168 0.929 . S
C128 C126 1.356 . S
C128 C130 1.358 . S
C128 H169 0.930 . S
C129 C127 1.353 . S
C129 N131 1.314 . S
C129 H170 0.930 . S
C130 C128 1.358 . S
C130 N131 1.279 . S
C130 H171 0.930 . S
N131 C129 1.314 . S
N131 C130 1.279 . S
C132 C134 1.353 . S
C132 N135 1.314 . S
C132 H138 0.930 . S
C133 N135 1.279 . S
C133 C136 1.358 . S
C133 H139 0.930 . S
C134 C132 1.353 . S
C134 C137 1.348 . S
C134 H172 0.929 . S
N135 Li90 1.990 . S
N135 C132 1.314 . S
N135 C133 1.279 . S
C136 C133 1.358 . S
C136 C137 1.356 . S
C136 H173 0.930 . S
C137 C134 1.348 . S
C137 C136 1.356 . S
H138 C132 0.930 . S
H139 C133 0.930 . S
C140 N141 1.314 . S
C140 C142 1.353 . S
C140 H146 0.930 . S
N141 Li91 1.990 . S
N141 C140 1.314 . S
N141 C144 1.279 . S
C142 C140 1.353 . S
C142 C145 1.348 . S
C142 H174 0.929 . S
C143 C144 1.358 . S
C143 C145 1.356 . S
C143 H175 0.930 . S
C144 N141 1.279 . S
C144 C143 1.358 . S
C144 H147 0.930 . S
C145 C142 1.348 . S
C145 C143 1.356 . S
H146 C140 0.930 . S
H147 C144 0.930 . S
O148 Li88 1.956 . S
O148 Li89 1.970 . S
O148 Li90 1.961 . S
O148 C92 1.325 . S
O149 Li88 1.970 . S
O149 Li89 1.956 . S
O149 Li91 1.961 . S
O149 C98 1.325 . S
O150 Li88 1.961 . S
O150 Li90 1.956 . S
O150 Li91 1.970 . S
O150 C120 1.325 . S
O151 Li89 1.961 . S
O151 Li90 1.970 . S
O151 Li91 1.956 . S
O151 C126 1.325 . S
H152 C94 0.929 . S
H153 C95 0.930 . S
H154 C96 0.930 . S
H155 C97 0.930 . S
H156 C99 0.930 . S
H157 C101 0.929 . S
H158 C102 0.930 . S
H159 C103 0.930 . S
H160 C106 0.930 . S
H161 C109 0.929 . S
H162 C114 0.929 . S
H163 C115 0.930 . S
H164 C122 0.929 . S
H165 C123 0.930 . S
H166 C124 0.930 . S
H167 C125 0.930 . S
H168 C127 0.929 . S
H169 C128 0.930 . S
H170 C129 0.930 . S
H171 C130 0.930 . S
H172 C134 0.929 . S
H173 C136 0.930 . S
H174 C142 0.929 . S
H175 C143 0.930 . S
Li176 N193 1.990 . S
Li176 O236 1.956 . S
Li176 O237 1.970 . S
Li176 O238 1.961 . S
Li177 N201 1.990 . S
Li177 O236 1.970 . S
Li177 O237 1.956 . S
Li177 O239 1.961 . S
Li178 N223 1.990 . S
Li178 O236 1.961 . S
Li178 O238 1.956 . S
Li178 O239 1.970 . S
Li179 N229 1.990 . S
Li179 O237 1.961 . S
Li179 O238 1.970 . S
Li179 O239 1.956 . S
C180 C182 1.348 . S
C180 C183 1.356 . S
C180 O236 1.325 . S
N181 C184 1.314 . S
N181 C185 1.279 . S
C182 C180 1.348 . S
C182 C184 1.353 . S
C182 H240 0.929 . S
C183 C180 1.356 . S
C183 C185 1.358 . S
C183 H241 0.930 . S
C184 N181 1.314 . S
C184 C182 1.353 . S
C184 H242 0.930 . S
C185 N181 1.279 . S
C185 C183 1.358 . S
C185 H243 0.930 . S
C186 C189 1.348 1_556 S
C186 C190 1.356 1_556 S
C186 O237 1.325 . S
C187 N188 1.279 . S
C187 C190 1.358 . S
C187 H244 0.930 . S
N188 C187 1.279 . S
N188 C191 1.314 . S
C189 C186 1.348 1_554 S
C189 C191 1.353 . S
C189 H245 0.929 . S
C190 C186 1.356 1_554 S
C190 C187 1.358 . S
C190 H246 0.930 1_554 S
C191 N188 1.314 . S
C191 C189 1.353 . S
C191 H247 0.930 . S
C192 N193 1.314 . S
C192 C197 1.353 . S
C192 H198 0.930 . S
N193 Li176 1.990 . S
N193 C192 1.314 . S
N193 C195 1.279 . S
C194 C195 1.358 . S
C194 C196 1.356 . S
C194 H248 0.930 . S
C195 N193 1.279 . S
C195 C194 1.358 . S
C195 H199 0.930 . S
C196 C194 1.356 . S
C196 C197 1.348 . S
C197 C192 1.353 . S
C197 C196 1.348 . S
C197 H249 0.929 1_556 S
H198 C192 0.930 . S
H199 C195 0.930 . S
C200 N201 1.314 . S
C200 C202 1.353 . S
C200 H206 0.930 . S
N201 Li177 1.990 . S
N201 C200 1.314 . S
N201 C204 1.279 . S
C202 C200 1.353 . S
C202 C205 1.348 . S
C202 H250 0.929 . S
C203 C204 1.358 . S
C203 C205 1.356 . S
C203 H251 0.930 . S
C204 N201 1.279 . S
C204 C203 1.358 . S
C204 H207 0.930 . S
C205 C202 1.348 . S
C205 C203 1.356 . S
H206 C200 0.930 . S
H207 C204 0.930 . S
C208 C210 1.348 . S
C208 C211 1.356 . S
C208 O238 1.325 . S
N209 C212 1.314 . S
N209 C213 1.279 . S
C210 C208 1.348 . S
C210 C212 1.353 . S
C210 H252 0.929 . S
C211 C208 1.356 . S
C211 C213 1.358 . S
C211 H253 0.930 . S
C212 N209 1.314 . S
C212 C210 1.353 . S
C212 H254 0.930 . S
C213 N209 1.279 . S
C213 C211 1.358 . S
C213 H255 0.930 . S
C214 C215 1.348 . S
C214 C216 1.356 . S
C214 O239 1.325 . S
C215 C214 1.348 . S
C215 C217 1.353 . S
C215 H256 0.929 . S
C216 C214 1.356 . S
C216 C218 1.358 . S
C216 H257 0.930 . S
C217 C215 1.353 . S
C217 N219 1.314 . S
C217 H258 0.930 . S
C218 C216 1.358 . S
C218 N219 1.279 . S
C218 H259 0.930 . S
N219 C217 1.314 . S
N219 C218 1.279 . S
C220 C222 1.353 . S
C220 N223 1.314 . S
C220 H226 0.930 . S
C221 N223 1.279 . S
C221 C224 1.358 . S
C221 H227 0.930 . S
C222 C220 1.353 . S
C222 C225 1.348 . S
C222 H260 0.929 . S
N223 Li178 1.990 . S
N223 C220 1.314 . S
N223 C221 1.279 . S
C224 C221 1.358 . S
C224 C225 1.356 . S
C224 H261 0.930 . S
C225 C222 1.348 . S
C225 C224 1.356 . S
H226 C220 0.930 . S
H227 C221 0.930 . S
C228 N229 1.314 . S
C228 C230 1.353 1_556 S
C228 H234 0.930 . S
N229 Li179 1.990 . S
N229 C228 1.314 . S
N229 C232 1.279 . S
C230 C228 1.353 1_554 S
C230 C233 1.348 1_554 S
C230 H262 0.929 . S
C231 C232 1.358 . S
C231 C233 1.356 . S
C231 H263 0.930 . S
C232 N229 1.279 . S
C232 C231 1.358 . S
C232 H235 0.930 . S
C233 C230 1.348 1_556 S
C233 C231 1.356 . S
H234 C228 0.930 . S
H235 C232 0.930 . S
O236 Li176 1.956 . S
O236 Li177 1.970 . S
O236 Li178 1.961 . S
O236 C180 1.325 . S
O237 Li176 1.970 . S
O237 Li177 1.956 . S
O237 Li179 1.961 . S
O237 C186 1.325 . S
O238 Li176 1.961 . S
O238 Li178 1.956 . S
O238 Li179 1.970 . S
O238 C208 1.325 . S
O239 Li177 1.961 . S
O239 Li178 1.970 . S
O239 Li179 1.956 . S
O239 C214 1.325 . S
H240 C182 0.929 . S
H241 C183 0.930 . S
H242 C184 0.930 . S
H243 C185 0.930 . S
H244 C187 0.930 . S
H245 C189 0.929 . S
H246 C190 0.930 1_556 S
H247 C191 0.930 . S
H248 C194 0.930 . S
H249 C197 0.929 1_554 S
H250 C202 0.929 . S
H251 C203 0.930 . S
H252 C210 0.929 . S
H253 C211 0.930 . S
H254 C212 0.930 . S
H255 C213 0.930 . S
H256 C215 0.929 . S
H257 C216 0.930 . S
H258 C217 0.930 . S
H259 C218 0.930 . S
H260 C222 0.929 . S
H261 C224 0.930 . S
H262 C230 0.929 . S
H263 C231 0.930 . S
Li264 N281 1.990 . S
Li264 O324 1.956 . S
Li264 O325 1.970 . S
Li264 O326 1.961 . S
Li265 N289 1.990 . S
Li265 O324 1.970 . S
Li265 O325 1.956 . S
Li265 O327 1.961 . S
Li266 N311 1.990 . S
Li266 O324 1.961 . S
Li266 O326 1.956 . S
Li266 O327 1.970 . S
Li267 N317 1.990 . S
Li267 O325 1.961 . S
Li267 O326 1.970 . S
Li267 O327 1.956 . S
C268 C270 1.348 . S
C268 C271 1.356 . S
C268 O324 1.325 . S
N269 C272 1.314 . S
N269 C273 1.279 . S
C270 C268 1.348 . S
C270 C272 1.353 . S
C270 H328 0.929 . S
C271 C268 1.356 . S
C271 C273 1.358 . S
C271 H329 0.930 . S
C272 N269 1.314 . S
C272 C270 1.353 . S
C272 H330 0.930 . S
C273 N269 1.279 . S
C273 C271 1.358 . S
C273 H331 0.930 . S
C274 C277 1.348 . S
C274 C278 1.356 . S
C274 O325 1.325 . S
C275 N276 1.279 . S
C275 C278 1.358 . S
C275 H332 0.930 . S
N276 C275 1.279 . S
N276 C279 1.314 . S
C277 C274 1.348 . S
C277 C279 1.353 . S
C277 H333 0.929 . S
C278 C274 1.356 . S
C278 C275 1.358 . S
C278 H334 0.930 . S
C279 N276 1.314 . S
C279 C277 1.353 . S
C279 H335 0.930 . S
C280 N281 1.314 . S
C280 C285 1.353 . S
C280 H286 0.930 . S
N281 Li264 1.990 . S
N281 C280 1.314 . S
N281 C283 1.279 . S
C282 C283 1.358 . S
C282 C284 1.356 . S
C282 H336 0.930 . S
C283 N281 1.279 . S
C283 C282 1.358 . S
C283 H287 0.930 . S
C284 C282 1.356 . S
C284 C285 1.348 . S
C285 C280 1.353 . S
C285 C284 1.348 . S
C285 H337 0.929 . S
H286 C280 0.930 . S
H287 C283 0.930 . S
C288 N289 1.314 . S
C288 C290 1.353 . S
C288 H294 0.930 . S
N289 Li265 1.990 . S
N289 C288 1.314 . S
N289 C292 1.279 . S
C290 C288 1.353 . S
C290 C293 1.348 . S
C290 H338 0.929 . S
C291 C292 1.358 . S
C291 C293 1.356 . S
C291 H339 0.930 . S
C292 N289 1.279 . S
C292 C291 1.358 . S
C292 H295 0.930 . S
C293 C290 1.348 . S
C293 C291 1.356 . S
H294 C288 0.930 . S
H295 C292 0.930 . S
C296 C298 1.348 . S
C296 C299 1.356 . S
C296 O326 1.325 . S
N297 C300 1.314 . S
N297 C301 1.279 . S
C298 C296 1.348 . S
C298 C300 1.353 . S
C298 H340 0.929 . S
C299 C296 1.356 . S
C299 C301 1.358 . S
C299 H341 0.930 . S
C300 N297 1.314 . S
C300 C298 1.353 . S
C300 H342 0.930 . S
C301 N297 1.279 . S
C301 C299 1.358 . S
C301 H343 0.930 . S
C302 C303 1.348 . S
C302 C304 1.356 . S
C302 O327 1.325 . S
C303 C302 1.348 . S
C303 C305 1.353 . S
C303 H344 0.929 . S
C304 C302 1.356 . S
C304 C306 1.358 . S
C304 H345 0.930 . S
C305 C303 1.353 . S
C305 N307 1.314 . S
C305 H346 0.930 . S
C306 C304 1.358 . S
C306 N307 1.279 . S
C306 H347 0.930 . S
N307 C305 1.314 . S
N307 C306 1.279 . S
C308 C310 1.353 . S
C308 N311 1.314 . S
C308 H314 0.930 . S
C309 N311 1.279 . S
C309 C312 1.358 . S
C309 H315 0.930 . S
C310 C308 1.353 . S
C310 C313 1.348 . S
C310 H348 0.929 . S
N311 Li266 1.990 . S
N311 C308 1.314 . S
N311 C309 1.279 . S
C312 C309 1.358 . S
C312 C313 1.356 . S
C312 H349 0.930 . S
C313 C310 1.348 . S
C313 C312 1.356 . S
H314 C308 0.930 . S
H315 C309 0.930 . S
C316 N317 1.314 . S
C316 C318 1.353 . S
C316 H322 0.930 . S
N317 Li267 1.990 . S
N317 C316 1.314 . S
N317 C320 1.279 . S
C318 C316 1.353 . S
C318 C321 1.348 . S
C318 H350 0.929 . S
C319 C320 1.358 . S
C319 C321 1.356 . S
C319 H351 0.930 . S
C320 N317 1.279 . S
C320 C319 1.358 . S
C320 H323 0.930 . S
C321 C318 1.348 . S
C321 C319 1.356 . S
H322 C316 0.930 . S
H323 C320 0.930 . S
O324 Li264 1.956 . S
O324 Li265 1.970 . S
O324 Li266 1.961 . S
O324 C268 1.325 . S
O325 Li264 1.970 . S
O325 Li265 1.956 . S
O325 Li267 1.961 . S
O325 C274 1.325 . S
O326 Li264 1.961 . S
O326 Li266 1.956 . S
O326 Li267 1.970 . S
O326 C296 1.325 . S
O327 Li265 1.961 . S
O327 Li266 1.970 . S
O327 Li267 1.956 . S
O327 C302 1.325 . S
H328 C270 0.929 . S
H329 C271 0.930 . S
H330 C272 0.930 . S
H331 C273 0.930 . S
H332 C275 0.930 . S
H333 C277 0.929 . S
H334 C278 0.930 . S
H335 C279 0.930 . S
H336 C282 0.930 . S
H337 C285 0.929 . S
H338 C290 0.929 . S
H339 C291 0.930 . S
H340 C298 0.929 . S
H341 C299 0.930 . S
H342 C300 0.930 . S
H343 C301 0.930 . S
H344 C303 0.929 . S
H345 C304 0.930 . S
H346 C305 0.930 . S
H347 C306 0.930 . S
H348 C310 0.929 . S
H349 C312 0.930 . S
H350 C318 0.929 . S
H351 C319 0.930 . S
Li352 N369 1.990 . S
Li352 O412 1.956 . S
Li352 O413 1.970 . S
Li352 O414 1.961 . S
Li353 N377 1.990 . S
Li353 O412 1.970 . S
Li353 O413 1.956 . S
Li353 O415 1.961 . S
Li354 N399 1.990 . S
Li354 O412 1.961 . S
Li354 O414 1.956 . S
Li354 O415 1.970 . S
Li355 N405 1.990 . S
Li355 O413 1.961 . S
Li355 O414 1.970 . S
Li355 O415 1.956 . S
C356 C358 1.348 1_556 S
C356 C359 1.356 1_556 S
C356 O412 1.325 . S
N357 C360 1.314 . S
N357 C361 1.279 . S
C358 C356 1.348 1_554 S
C358 C360 1.353 . S
C358 H416 0.929 . S
C359 C356 1.356 1_554 S
C359 C361 1.358 . S
C359 H417 0.930 1_554 S
C360 N357 1.314 . S
C360 C358 1.353 . S
C360 H418 0.930 . S
C361 N357 1.279 . S
C361 C359 1.358 . S
C361 H419 0.930 . S
C362 C365 1.348 . S
C362 C366 1.356 . S
C362 O413 1.325 . S
C363 N364 1.279 . S
C363 C366 1.358 . S
C363 H420 0.930 . S
N364 C363 1.279 . S
N364 C367 1.314 . S
C365 C362 1.348 . S
C365 C367 1.353 . S
C365 H421 0.929 . S
C366 C362 1.356 . S
C366 C363 1.358 . S
C366 H422 0.930 . S
C367 N364 1.314 . S
C367 C365 1.353 . S
C367 H423 0.930 . S
C368 N369 1.314 . S
C368 C373 1.353 . S
C368 H374 0.930 . S
N369 Li352 1.990 . S
N369 C368 1.314 . S
N369 C371 1.279 . S
C370 C371 1.358 1_554 S
C370 C372 1.356 1_554 S
C370 H424 0.930 . S
C371 N369 1.279 . S
C371 C370 1.358 1_556 S
C371 H375 0.930 1_556 S
C372 C370 1.356 1_556 S
C372 C373 1.348 . S
C373 C368 1.353 . S
C373 C372 1.348 . S
C373 H425 0.929 . S
H374 C368 0.930 . S
H375 C371 0.930 1_554 S
C376 N377 1.314 . S
C376 C378 1.353 . S
C376 H382 0.930 . S
N377 Li353 1.990 . S
N377 C376 1.314 . S
N377 C380 1.279 . S
C378 C376 1.353 . S
C378 C381 1.348 . S
C378 H426 0.929 . S
C379 C380 1.358 . S
C379 C381 1.356 . S
C379 H427 0.930 . S
C380 N377 1.279 . S
C380 C379 1.358 . S
C380 H383 0.930 . S
C381 C378 1.348 . S
C381 C379 1.356 . S
H382 C376 0.930 . S
H383 C380 0.930 . S
C384 C386 1.348 . S
C384 C387 1.356 . S
C384 O414 1.325 . S
N385 C388 1.314 . S
N385 C389 1.279 . S
C386 C384 1.348 . S
C386 C388 1.353 . S
C386 H428 0.929 . S
C387 C384 1.356 . S
C387 C389 1.358 . S
C387 H429 0.930 . S
C388 N385 1.314 . S
C388 C386 1.353 . S
C388 H430 0.930 . S
C389 N385 1.279 . S
C389 C387 1.358 . S
C389 H431 0.930 . S
C390 C391 1.348 . S
C390 C392 1.356 . S
C390 O415 1.325 . S
C391 C390 1.348 . S
C391 C393 1.353 . S
C391 H432 0.929 . S
C392 C390 1.356 . S
C392 C394 1.358 . S
C392 H433 0.930 . S
C393 C391 1.353 . S
C393 N395 1.314 . S
C393 H434 0.930 . S
C394 C392 1.358 . S
C394 N395 1.279 . S
C394 H435 0.930 . S
N395 C393 1.314 . S
N395 C394 1.279 . S
C396 C398 1.353 . S
C396 N399 1.314 . S
C396 H402 0.930 . S
C397 N399 1.279 . S
C397 C400 1.358 . S
C397 H403 0.930 . S
C398 C396 1.353 . S
C398 C401 1.348 . S
C398 H436 0.929 . S
N399 Li354 1.990 . S
N399 C396 1.314 . S
N399 C397 1.279 . S
C400 C397 1.358 . S
C400 C401 1.356 . S
C400 H437 0.930 . S
C401 C398 1.348 . S
C401 C400 1.356 . S
H402 C396 0.930 . S
H403 C397 0.930 . S
C404 N405 1.314 . S
C404 C406 1.353 . S
C404 H410 0.930 . S
N405 Li355 1.990 . S
N405 C404 1.314 . S
N405 C408 1.279 . S
C406 C404 1.353 . S
C406 C409 1.348 . S
C406 H438 0.929 . S
C407 C408 1.358 . S
C407 C409 1.356 . S
C407 H439 0.930 . S
C408 N405 1.279 . S
C408 C407 1.358 . S
C408 H411 0.930 . S
C409 C406 1.348 . S
C409 C407 1.356 . S
H410 C404 0.930 . S
H411 C408 0.930 . S
O412 Li352 1.956 . S
O412 Li353 1.970 . S
O412 Li354 1.961 . S
O412 C356 1.325 . S
O413 Li352 1.970 . S
O413 Li353 1.956 . S
O413 Li355 1.961 . S
O413 C362 1.325 . S
O414 Li352 1.961 . S
O414 Li354 1.956 . S
O414 Li355 1.970 . S
O414 C384 1.325 . S
O415 Li353 1.961 . S
O415 Li354 1.970 . S
O415 Li355 1.956 . S
O415 C390 1.325 . S
H416 C358 0.929 . S
H417 C359 0.930 1_556 S
H418 C360 0.930 . S
H419 C361 0.930 . S
H420 C363 0.930 . S
H421 C365 0.929 . S
H422 C366 0.930 . S
H423 C367 0.930 . S
H424 C370 0.930 . S
H425 C373 0.929 . S
H426 C378 0.929 . S
H427 C379 0.930 . S
H428 C386 0.929 . S
H429 C387 0.930 . S
H430 C388 0.930 . S
H431 C389 0.930 . S
H432 C391 0.929 . S
H433 C392 0.930 . S
H434 C393 0.930 . S
H435 C394 0.930 . S
H436 C398 0.929 . S
H437 C400 0.930 . S
H438 C406 0.929 . S
H439 C407 0.930 . S
Li440 N457 1.990 . S
Li440 O500 1.956 . S
Li440 O501 1.970 . S
Li440 O502 1.961 . S
Li441 N465 1.990 . S
Li441 O500 1.970 . S
Li441 O501 1.956 . S
Li441 O503 1.961 . S
Li442 N487 1.990 . S
Li442 O500 1.961 . S
Li442 O502 1.956 . S
Li442 O503 1.970 . S
Li443 N493 1.990 . S
Li443 O501 1.961 . S
Li443 O502 1.970 . S
Li443 O503 1.956 . S
C444 C446 1.348 . S
C444 C447 1.356 . S
C444 O500 1.325 . S
N445 C448 1.314 . S
N445 C449 1.279 . S
C446 C444 1.348 . S
C446 C448 1.353 . S
C446 H504 0.929 . S
C447 C444 1.356 . S
C447 C449 1.358 . S
C447 H505 0.930 . S
C448 N445 1.314 . S
C448 C446 1.353 . S
C448 H506 0.930 . S
C449 N445 1.279 . S
C449 C447 1.358 . S
C449 H507 0.930 . S
C450 C453 1.348 . S
C450 C454 1.356 . S
C450 O501 1.325 . S
C451 N452 1.279 . S
C451 C454 1.358 . S
C451 H508 0.930 . S
N452 C451 1.279 . S
N452 C455 1.314 . S
C453 C450 1.348 . S
C453 C455 1.353 . S
C453 H509 0.929 . S
C454 C450 1.356 . S
C454 C451 1.358 . S
C454 H510 0.930 . S
C455 N452 1.314 . S
C455 C453 1.353 . S
C455 H511 0.930 . S
C456 N457 1.314 . S
C456 C461 1.353 . S
C456 H462 0.930 . S
N457 Li440 1.990 . S
N457 C456 1.314 . S
N457 C459 1.279 . S
C458 C459 1.358 . S
C458 C460 1.356 . S
C458 H512 0.930 . S
C459 N457 1.279 . S
C459 C458 1.358 . S
C459 H463 0.930 . S
C460 C458 1.356 . S
C460 C461 1.348 . S
C461 C456 1.353 . S
C461 C460 1.348 . S
C461 H513 0.929 . S
H462 C456 0.930 . S
H463 C459 0.930 . S
C464 N465 1.314 . S
C464 C466 1.353 . S
C464 H470 0.930 . S
N465 Li441 1.990 . S
N465 C464 1.314 . S
N465 C468 1.279 . S
C466 C464 1.353 . S
C466 C469 1.348 . S
C466 H514 0.929 . S
C467 C468 1.358 . S
C467 C469 1.356 . S
C467 H515 0.930 . S
C468 N465 1.279 . S
C468 C467 1.358 . S
C468 H471 0.930 . S
C469 C466 1.348 . S
C469 C467 1.356 . S
H470 C464 0.930 . S
H471 C468 0.930 . S
C472 C474 1.348 . S
C472 C475 1.356 . S
C472 O502 1.325 . S
N473 C476 1.314 . S
N473 C477 1.279 . S
C474 C472 1.348 . S
C474 C476 1.353 . S
C474 H516 0.929 . S
C475 C472 1.356 . S
C475 C477 1.358 . S
C475 H517 0.930 . S
C476 N473 1.314 . S
C476 C474 1.353 . S
C476 H518 0.930 . S
C477 N473 1.279 . S
C477 C475 1.358 . S
C477 H519 0.930 . S
C478 C479 1.348 . S
C478 C480 1.356 . S
C478 O503 1.325 . S
C479 C478 1.348 . S
C479 C481 1.353 . S
C479 H520 0.929 . S
C480 C478 1.356 . S
C480 C482 1.358 . S
C480 H521 0.930 . S
C481 C479 1.353 . S
C481 N483 1.314 . S
C481 H522 0.930 . S
C482 C480 1.358 . S
C482 N483 1.279 . S
C482 H523 0.930 . S
N483 C481 1.314 . S
N483 C482 1.279 . S
C484 C486 1.353 . S
C484 N487 1.314 . S
C484 H490 0.930 . S
C485 N487 1.279 . S
C485 C488 1.358 . S
C485 H491 0.930 . S
C486 C484 1.353 . S
C486 C489 1.348 . S
C486 H524 0.929 . S
N487 Li442 1.990 . S
N487 C484 1.314 . S
N487 C485 1.279 . S
C488 C485 1.358 . S
C488 C489 1.356 . S
C488 H525 0.930 . S
C489 C486 1.348 . S
C489 C488 1.356 . S
H490 C484 0.930 . S
H491 C485 0.930 . S
C492 N493 1.314 . S
C492 C494 1.353 . S
C492 H498 0.930 . S
N493 Li443 1.990 . S
N493 C492 1.314 . S
N493 C496 1.279 . S
C494 C492 1.353 . S
C494 C497 1.348 . S
C494 H526 0.929 . S
C495 C496 1.358 . S
C495 C497 1.356 . S
C495 H527 0.930 . S
C496 N493 1.279 . S
C496 C495 1.358 . S
C496 H499 0.930 . S
C497 C494 1.348 . S
C497 C495 1.356 . S
H498 C492 0.930 . S
H499 C496 0.930 . S
O500 Li440 1.956 . S
O500 Li441 1.970 . S
O500 Li442 1.961 . S
O500 C444 1.325 . S
O501 Li440 1.970 . S
O501 Li441 1.956 . S
O501 Li443 1.961 . S
O501 C450 1.325 . S
O502 Li440 1.961 . S
O502 Li442 1.956 . S
O502 Li443 1.970 . S
O502 C472 1.325 . S
O503 Li441 1.961 . S
O503 Li442 1.970 . S
O503 Li443 1.956 . S
O503 C478 1.325 . S
H504 C446 0.929 . S
H505 C447 0.930 . S
H506 C448 0.930 . S
H507 C449 0.930 . S
H508 C451 0.930 . S
H509 C453 0.929 . S
H510 C454 0.930 . S
H511 C455 0.930 . S
H512 C458 0.930 . S
H513 C461 0.929 . S
H514 C466 0.929 . S
H515 C467 0.930 . S
H516 C474 0.929 . S
H517 C475 0.930 . S
H518 C476 0.930 . S
H519 C477 0.930 . S
H520 C479 0.929 . S
H521 C480 0.930 . S
H522 C481 0.930 . S
H523 C482 0.930 . S
H524 C486 0.929 . S
H525 C488 0.930 . S
H526 C494 0.929 . S
H527 C495 0.930 . S
Li528 N545 1.990 . S
Li528 O588 1.956 . S
Li528 O589 1.970 . S
Li528 O590 1.961 . S
Li529 N553 1.990 . S
Li529 O588 1.970 . S
Li529 O589 1.956 . S
Li529 O591 1.961 . S
Li530 N575 1.990 . S
Li530 O588 1.961 . S
Li530 O590 1.956 . S
Li530 O591 1.970 . S
Li531 N581 1.990 . S
Li531 O589 1.961 . S
Li531 O590 1.970 . S
Li531 O591 1.956 . S
C532 C534 1.348 . S
C532 C535 1.356 . S
C532 O588 1.325 . S
N533 C536 1.314 . S
N533 C537 1.279 . S
C534 C532 1.348 . S
C534 C536 1.353 . S
C534 H592 0.929 . S
C535 C532 1.356 . S
C535 C537 1.358 . S
C535 H593 0.930 . S
C536 N533 1.314 . S
C536 C534 1.353 . S
C536 H594 0.930 . S
C537 N533 1.279 . S
C537 C535 1.358 . S
C537 H595 0.930 . S
C538 C541 1.348 . S
C538 C542 1.356 . S
C538 O589 1.325 . S
C539 N540 1.279 . S
C539 C542 1.358 . S
C539 H596 0.930 . S
N540 C539 1.279 . S
N540 C543 1.314 . S
C541 C538 1.348 . S
C541 C543 1.353 . S
C541 H597 0.929 . S
C542 C538 1.356 . S
C542 C539 1.358 . S
C542 H598 0.930 . S
C543 N540 1.314 . S
C543 C541 1.353 . S
C543 H599 0.930 . S
C544 N545 1.314 . S
C544 C549 1.353 . S
C544 H550 0.930 . S
N545 Li528 1.990 . S
N545 C544 1.314 . S
N545 C547 1.279 . S
C546 C547 1.358 . S
C546 C548 1.356 . S
C546 H600 0.930 . S
C547 N545 1.279 . S
C547 C546 1.358 . S
C547 H551 0.930 . S
C548 C546 1.356 . S
C548 C549 1.348 . S
C549 C544 1.353 . S
C549 C548 1.348 . S
C549 H601 0.929 . S
H550 C544 0.930 . S
H551 C547 0.930 . S
C552 N553 1.314 . S
C552 C554 1.353 . S
C552 H558 0.930 . S
N553 Li529 1.990 . S
N553 C552 1.314 . S
N553 C556 1.279 . S
C554 C552 1.353 . S
C554 C557 1.348 . S
C554 H602 0.929 . S
C555 C556 1.358 . S
C555 C557 1.356 . S
C555 H603 0.930 . S
C556 N553 1.279 . S
C556 C555 1.358 . S
C556 H559 0.930 . S
C557 C554 1.348 . S
C557 C555 1.356 . S
H558 C552 0.930 . S
H559 C556 0.930 . S
C560 C562 1.348 . S
C560 C563 1.356 . S
C560 O590 1.325 . S
N561 C564 1.314 . S
N561 C565 1.279 . S
C562 C560 1.348 . S
C562 C564 1.353 . S
C562 H604 0.929 . S
C563 C560 1.356 . S
C563 C565 1.358 . S
C563 H605 0.930 . S
C564 N561 1.314 . S
C564 C562 1.353 . S
C564 H606 0.930 . S
C565 N561 1.279 . S
C565 C563 1.358 . S
C565 H607 0.930 . S
C566 C567 1.348 1_554 S
C566 C568 1.356 1_554 S
C566 O591 1.325 . S
C567 C566 1.348 1_556 S
C567 C569 1.353 . S
C567 H608 0.929 . S
C568 C566 1.356 1_556 S
C568 C570 1.358 . S
C568 H609 0.930 1_556 S
C569 C567 1.353 . S
C569 N571 1.314 . S
C569 H610 0.930 . S
C570 C568 1.358 . S
C570 N571 1.279 . S
C570 H611 0.930 . S
N571 C569 1.314 . S
N571 C570 1.279 . S
C572 C574 1.353 . S
C572 N575 1.314 . S
C572 H578 0.930 . S
C573 N575 1.279 . S
C573 C576 1.358 . S
C573 H579 0.930 . S
C574 C572 1.353 . S
C574 C577 1.348 . S
C574 H612 0.929 . S
N575 Li530 1.990 . S
N575 C572 1.314 . S
N575 C573 1.279 . S
C576 C573 1.358 . S
C576 C577 1.356 . S
C576 H613 0.930 . S
C577 C574 1.348 . S
C577 C576 1.356 . S
H578 C572 0.930 . S
H579 C573 0.930 . S
C580 N581 1.314 . S
C580 C582 1.353 . S
C580 H586 0.930 . S
N581 Li531 1.990 . S
N581 C580 1.314 . S
N581 C584 1.279 . S
C582 C580 1.353 . S
C582 C585 1.348 . S
C582 H614 0.929 . S
C583 C584 1.358 1_556 S
C583 C585 1.356 1_556 S
C583 H615 0.930 . S
C584 N581 1.279 . S
C584 C583 1.358 1_554 S
C584 H587 0.930 1_554 S
C585 C582 1.348 . S
C585 C583 1.356 1_554 S
H586 C580 0.930 . S
H587 C584 0.930 1_556 S
O588 Li528 1.956 . S
O588 Li529 1.970 . S
O588 Li530 1.961 . S
O588 C532 1.325 . S
O589 Li528 1.970 . S
O589 Li529 1.956 . S
O589 Li531 1.961 . S
O589 C538 1.325 . S
O590 Li528 1.961 . S
O590 Li530 1.956 . S
O590 Li531 1.970 . S
O590 C560 1.325 . S
O591 Li529 1.961 . S
O591 Li530 1.970 . S
O591 Li531 1.956 . S
O591 C566 1.325 . S
H592 C534 0.929 . S
H593 C535 0.930 . S
H594 C536 0.930 . S
H595 C537 0.930 . S
H596 C539 0.930 . S
H597 C541 0.929 . S
H598 C542 0.930 . S
H599 C543 0.930 . S
H600 C546 0.930 . S
H601 C549 0.929 . S
H602 C554 0.929 . S
H603 C555 0.930 . S
H604 C562 0.929 . S
H605 C563 0.930 . S
H606 C564 0.930 . S
H607 C565 0.930 . S
H608 C567 0.929 . S
H609 C568 0.930 1_554 S
H610 C569 0.930 . S
H611 C570 0.930 . S
H612 C574 0.929 . S
H613 C576 0.930 . S
H614 C582 0.929 . S
H615 C583 0.930 . S
Li616 N633 1.990 . S
Li616 O676 1.956 . S
Li616 O677 1.970 . S
Li616 O678 1.961 . S
Li617 N641 1.990 . S
Li617 O676 1.970 . S
Li617 O677 1.956 . S
Li617 O679 1.961 . S
Li618 N663 1.990 . S
Li618 O676 1.961 . S
Li618 O678 1.956 . S
Li618 O679 1.970 . S
Li619 N669 1.990 . S
Li619 O677 1.961 . S
Li619 O678 1.970 . S
Li619 O679 1.956 . S
C620 C622 1.348 . S
C620 C623 1.356 . S
C620 O676 1.325 . S
N621 C624 1.314 . S
N621 C625 1.279 . S
C622 C620 1.348 . S
C622 C624 1.353 . S
C622 H680 0.929 . S
C623 C620 1.356 . S
C623 C625 1.358 . S
C623 H681 0.930 . S
C624 N621 1.314 . S
C624 C622 1.353 . S
C624 H682 0.930 . S
C625 N621 1.279 . S
C625 C623 1.358 . S
C625 H683 0.930 . S
C626 C629 1.348 . S
C626 C630 1.356 . S
C626 O677 1.325 . S
C627 N628 1.279 . S
C627 C630 1.358 . S
C627 H684 0.930 . S
N628 C627 1.279 . S
N628 C631 1.314 . S
C629 C626 1.348 . S
C629 C631 1.353 . S
C629 H685 0.929 . S
C630 C626 1.356 . S
C630 C627 1.358 . S
C630 H686 0.930 . S
C631 N628 1.314 . S
C631 C629 1.353 . S
C631 H687 0.930 . S
C632 N633 1.314 . S
C632 C637 1.353 . S
C632 H638 0.930 . S
N633 Li616 1.990 . S
N633 C632 1.314 . S
N633 C635 1.279 . S
C634 C635 1.358 . S
C634 C636 1.356 . S
C634 H688 0.930 . S
C635 N633 1.279 . S
C635 C634 1.358 . S
C635 H639 0.930 . S
C636 C634 1.356 . S
C636 C637 1.348 . S
C637 C632 1.353 . S
C637 C636 1.348 . S
C637 H689 0.929 . S
H638 C632 0.930 . S
H639 C635 0.930 . S
C640 N641 1.314 . S
C640 C642 1.353 . S
C640 H646 0.930 . S
N641 Li617 1.990 . S
N641 C640 1.314 . S
N641 C644 1.279 . S
C642 C640 1.353 . S
C642 C645 1.348 . S
C642 H690 0.929 . S
C643 C644 1.358 . S
C643 C645 1.356 . S
C643 H691 0.930 . S
C644 N641 1.279 . S
C644 C643 1.358 . S
C644 H647 0.930 . S
C645 C642 1.348 . S
C645 C643 1.356 . S
H646 C640 0.930 . S
H647 C644 0.930 . S
C648 C650 1.348 . S
C648 C651 1.356 . S
C648 O678 1.325 . S
N649 C652 1.314 . S
N649 C653 1.279 . S
C650 C648 1.348 . S
C650 C652 1.353 . S
C650 H692 0.929 . S
C651 C648 1.356 . S
C651 C653 1.358 . S
C651 H693 0.930 . S
C652 N649 1.314 . S
C652 C650 1.353 . S
C652 H694 0.930 . S
C653 N649 1.279 . S
C653 C651 1.358 . S
C653 H695 0.930 . S
C654 C655 1.348 . S
C654 C656 1.356 . S
C654 O679 1.325 . S
C655 C654 1.348 . S
C655 C657 1.353 . S
C655 H696 0.929 . S
C656 C654 1.356 . S
C656 C658 1.358 . S
C656 H697 0.930 . S
C657 C655 1.353 . S
C657 N659 1.314 . S
C657 H698 0.930 . S
C658 C656 1.358 . S
C658 N659 1.279 . S
C658 H699 0.930 . S
N659 C657 1.314 . S
N659 C658 1.279 . S
C660 C662 1.353 . S
C660 N663 1.314 . S
C660 H666 0.930 . S
C661 N663 1.279 . S
C661 C664 1.358 . S
C661 H667 0.930 . S
C662 C660 1.353 . S
C662 C665 1.348 . S
C662 H700 0.929 . S
N663 Li618 1.990 . S
N663 C660 1.314 . S
N663 C661 1.279 . S
C664 C661 1.358 . S
C664 C665 1.356 . S
C664 H701 0.930 . S
C665 C662 1.348 . S
C665 C664 1.356 . S
H666 C660 0.930 . S
H667 C661 0.930 . S
C668 N669 1.314 . S
C668 C670 1.353 . S
C668 H674 0.930 . S
N669 Li619 1.990 . S
N669 C668 1.314 . S
N669 C672 1.279 . S
C670 C668 1.353 . S
C670 C673 1.348 . S
C670 H702 0.929 . S
C671 C672 1.358 . S
C671 C673 1.356 . S
C671 H703 0.930 . S
C672 N669 1.279 . S
C672 C671 1.358 . S
C672 H675 0.930 . S
C673 C670 1.348 . S
C673 C671 1.356 . S
H674 C668 0.930 . S
H675 C672 0.930 . S
O676 Li616 1.956 . S
O676 Li617 1.970 . S
O676 Li618 1.961 . S
O676 C620 1.325 . S
O677 Li616 1.970 . S
O677 Li617 1.956 . S
O677 Li619 1.961 . S
O677 C626 1.325 . S
O678 Li616 1.961 . S
O678 Li618 1.956 . S
O678 Li619 1.970 . S
O678 C648 1.325 . S
O679 Li617 1.961 . S
O679 Li618 1.970 . S
O679 Li619 1.956 . S
O679 C654 1.325 . S
H680 C622 0.929 . S
H681 C623 0.930 . S
H682 C624 0.930 . S
H683 C625 0.930 . S
H684 C627 0.930 . S
H685 C629 0.929 . S
H686 C630 0.930 . S
H687 C631 0.930 . S
H688 C634 0.930 . S
H689 C637 0.929 . S
H690 C642 0.929 . S
H691 C643 0.930 . S
H692 C650 0.929 . S
H693 C651 0.930 . S
H694 C652 0.930 . S
H695 C653 0.930 . S
H696 C655 0.929 . S
H697 C656 0.930 . S
H698 C657 0.930 . S
H699 C658 0.930 . S
H700 C662 0.929 . S
H701 C664 0.930 . S
H702 C670 0.929 . S
H703 C671 0.930 . S
Li704 N721 1.990 . S
Li704 O764 1.956 . S
Li704 O765 1.970 . S
Li704 O766 1.961 . S
Li705 N729 1.990 . S
Li705 O764 1.970 . S
Li705 O765 1.956 . S
Li705 O767 1.961 . S
Li706 N751 1.990 . S
Li706 O764 1.961 . S
Li706 O766 1.956 . S
Li706 O767 1.970 . S
Li707 N757 1.990 . S
Li707 O765 1.961 . S
Li707 O766 1.970 . S
Li707 O767 1.956 . S
C708 C710 1.348 . S
C708 C711 1.356 . S
C708 O764 1.325 . S
N709 C712 1.314 . S
N709 C713 1.279 . S
C710 C708 1.348 . S
C710 C712 1.353 . S
C710 H768 0.929 . S
C711 C708 1.356 . S
C711 C713 1.358 . S
C711 H769 0.930 . S
C712 N709 1.314 . S
C712 C710 1.353 . S
C712 H770 0.930 . S
C713 N709 1.279 . S
C713 C711 1.358 . S
C713 H771 0.930 . S
C714 C717 1.348 . S
C714 C718 1.356 . S
C714 O765 1.325 . S
C715 N716 1.279 . S
C715 C718 1.358 . S
C715 H772 0.930 . S
N716 C715 1.279 . S
N716 C719 1.314 . S
C717 C714 1.348 . S
C717 C719 1.353 . S
C717 H773 0.929 . S
C718 C714 1.356 . S
C718 C715 1.358 . S
C718 H774 0.930 . S
C719 N716 1.314 . S
C719 C717 1.353 . S
C719 H775 0.930 . S
C720 N721 1.314 . S
C720 C725 1.353 . S
C720 H726 0.930 . S
N721 Li704 1.990 . S
N721 C720 1.314 . S
N721 C723 1.279 . S
C722 C723 1.358 . S
C722 C724 1.356 . S
C722 H776 0.930 . S
C723 N721 1.279 . S
C723 C722 1.358 . S
C723 H727 0.930 . S
C724 C722 1.356 . S
C724 C725 1.348 . S
C725 C720 1.353 . S
C725 C724 1.348 . S
C725 H777 0.929 . S
H726 C720 0.930 . S
H727 C723 0.930 . S
C728 N729 1.314 . S
C728 C730 1.353 1_554 S
C728 H734 0.930 . S
N729 Li705 1.990 . S
N729 C728 1.314 . S
N729 C732 1.279 . S
C730 C728 1.353 1_556 S
C730 C733 1.348 1_556 S
C730 H778 0.929 . S
C731 C732 1.358 . S
C731 C733 1.356 . S
C731 H779 0.930 . S
C732 N729 1.279 . S
C732 C731 1.358 . S
C732 H735 0.930 . S
C733 C730 1.348 1_554 S
C733 C731 1.356 . S
H734 C728 0.930 . S
H735 C732 0.930 . S
C736 C738 1.348 . S
C736 C739 1.356 . S
C736 O766 1.325 . S
N737 C740 1.314 . S
N737 C741 1.279 . S
C738 C736 1.348 . S
C738 C740 1.353 . S
C738 H780 0.929 . S
C739 C736 1.356 . S
C739 C741 1.358 . S
C739 H781 0.930 . S
C740 N737 1.314 . S
C740 C738 1.353 . S
C740 H782 0.930 . S
C741 N737 1.279 . S
C741 C739 1.358 . S
C741 H783 0.930 . S
C742 C743 1.348 1_554 S
C742 C744 1.356 1_554 S
C742 O767 1.325 . S
C743 C742 1.348 1_556 S
C743 C745 1.353 . S
C743 H784 0.929 . S
C744 C742 1.356 1_556 S
C744 C746 1.358 . S
C744 H785 0.930 1_556 S
C745 C743 1.353 . S
C745 N747 1.314 . S
C745 H786 0.930 . S
C746 C744 1.358 . S
C746 N747 1.279 . S
C746 H787 0.930 . S
N747 C745 1.314 . S
N747 C746 1.279 . S
C748 C750 1.353 . S
C748 N751 1.314 . S
C748 H754 0.930 . S
C749 N751 1.279 . S
C749 C752 1.358 . S
C749 H755 0.930 . S
C750 C748 1.353 . S
C750 C753 1.348 . S
C750 H788 0.929 1_554 S
N751 Li706 1.990 . S
N751 C748 1.314 . S
N751 C749 1.279 . S
C752 C749 1.358 . S
C752 C753 1.356 . S
C752 H789 0.930 1_565 S
C753 C750 1.348 . S
C753 C752 1.356 . S
H754 C748 0.930 . S
H755 C749 0.930 . S
C756 N757 1.314 . S
C756 C758 1.353 . S
C756 H762 0.930 . S
N757 Li707 1.990 . S
N757 C756 1.314 . S
N757 C760 1.279 . S
C758 C756 1.353 . S
C758 C761 1.348 . S
C758 H790 0.929 . S
C759 C760 1.358 . S
C759 C761 1.356 . S
C759 H791 0.930 . S
C760 N757 1.279 . S
C760 C759 1.358 . S
C760 H763 0.930 . S
C761 C758 1.348 . S
C761 C759 1.356 . S
H762 C756 0.930 . S
H763 C760 0.930 . S
O764 Li704 1.956 . S
O764 Li705 1.970 . S
O764 Li706 1.961 . S
O764 C708 1.325 . S
O765 Li704 1.970 . S
O765 Li705 1.956 . S
O765 Li707 1.961 . S
O765 C714 1.325 . S
O766 Li704 1.961 . S
O766 Li706 1.956 . S
O766 Li707 1.970 . S
O766 C736 1.325 . S
O767 Li705 1.961 . S
O767 Li706 1.970 . S
O767 Li707 1.956 . S
O767 C742 1.325 . S
H768 C710 0.929 . S
H769 C711 0.930 . S
H770 C712 0.930 . S
H771 C713 0.930 . S
H772 C715 0.930 . S
H773 C717 0.929 . S
H774 C718 0.930 . S
H775 C719 0.930 . S
H776 C722 0.930 . S
H777 C725 0.929 . S
H778 C730 0.929 . S
H779 C731 0.930 . S
H780 C738 0.929 . S
H781 C739 0.930 . S
H782 C740 0.930 . S
H783 C741 0.930 . S
H784 C743 0.929 . S
H785 C744 0.930 1_554 S
H786 C745 0.930 . S
H787 C746 0.930 . S
H788 C750 0.929 1_556 S
H789 C752 0.930 1_545 S
H790 C758 0.929 . S
H791 C759 0.930 . S
Li792 N809 1.990 . S
Li792 O852 1.956 . S
Li792 O853 1.970 . S
Li792 O854 1.961 . S
Li793 N817 1.990 . S
Li793 O852 1.970 . S
Li793 O853 1.956 . S
Li793 O855 1.961 . S
Li794 N839 1.990 . S
Li794 O852 1.961 . S
Li794 O854 1.956 . S
Li794 O855 1.970 . S
Li795 N845 1.990 . S
Li795 O853 1.961 . S
Li795 O854 1.970 . S
Li795 O855 1.956 . S
C796 C798 1.348 . S
C796 C799 1.356 . S
C796 O852 1.325 . S
N797 C800 1.314 . S
N797 C801 1.279 . S
C798 C796 1.348 . S
C798 C800 1.353 . S
C798 H856 0.929 . S
C799 C796 1.356 . S
C799 C801 1.358 . S
C799 H857 0.930 . S
C800 N797 1.314 . S
C800 C798 1.353 . S
C800 H858 0.930 . S
C801 N797 1.279 . S
C801 C799 1.358 . S
C801 H859 0.930 . S
C802 C805 1.348 . S
C802 C806 1.356 . S
C802 O853 1.325 . S
C803 N804 1.279 . S
C803 C806 1.358 . S
C803 H860 0.930 . S
N804 C803 1.279 . S
N804 C807 1.314 . S
C805 C802 1.348 . S
C805 C807 1.353 . S
C805 H861 0.929 . S
C806 C802 1.356 . S
C806 C803 1.358 . S
C806 H862 0.930 . S
C807 N804 1.314 . S
C807 C805 1.353 . S
C807 H863 0.930 . S
C808 N809 1.314 . S
C808 C813 1.353 . S
C808 H814 0.930 . S
N809 Li792 1.990 . S
N809 C808 1.314 . S
N809 C811 1.279 . S
C810 C811 1.358 . S
C810 C812 1.356 . S
C810 H864 0.930 . S
C811 N809 1.279 . S
C811 C810 1.358 . S
C811 H815 0.930 . S
C812 C810 1.356 . S
C812 C813 1.348 . S
C813 C808 1.353 . S
C813 C812 1.348 . S
C813 H865 0.929 . S
H814 C808 0.930 . S
H815 C811 0.930 . S
C816 N817 1.314 . S
C816 C818 1.353 . S
C816 H822 0.930 . S
N817 Li793 1.990 . S
N817 C816 1.314 . S
N817 C820 1.279 . S
C818 C816 1.353 . S
C818 C821 1.348 . S
C818 H866 0.929 . S
C819 C820 1.358 . S
C819 C821 1.356 . S
C819 H867 0.930 . S
C820 N817 1.279 . S
C820 C819 1.358 . S
C820 H823 0.930 . S
C821 C818 1.348 . S
C821 C819 1.356 . S
H822 C816 0.930 . S
H823 C820 0.930 . S
C824 C826 1.348 . S
C824 C827 1.356 . S
C824 O854 1.325 . S
N825 C828 1.314 . S
N825 C829 1.279 . S
C826 C824 1.348 . S
C826 C828 1.353 . S
C826 H868 0.929 . S
C827 C824 1.356 . S
C827 C829 1.358 . S
C827 H869 0.930 . S
C828 N825 1.314 . S
C828 C826 1.353 . S
C828 H870 0.930 . S
C829 N825 1.279 . S
C829 C827 1.358 . S
C829 H871 0.930 . S
C830 C831 1.348 . S
C830 C832 1.356 . S
C830 O855 1.325 . S
C831 C830 1.348 . S
C831 C833 1.353 . S
C831 H872 0.929 . S
C832 C830 1.356 . S
C832 C834 1.358 . S
C832 H873 0.930 . S
C833 C831 1.353 . S
C833 N835 1.314 . S
C833 H874 0.930 . S
C834 C832 1.358 . S
C834 N835 1.279 . S
C834 H875 0.930 . S
N835 C833 1.314 . S
N835 C834 1.279 . S
C836 C838 1.353 . S
C836 N839 1.314 . S
C836 H842 0.930 . S
C837 N839 1.279 . S
C837 C840 1.358 . S
C837 H843 0.930 . S
C838 C836 1.353 . S
C838 C841 1.348 . S
C838 H876 0.929 . S
N839 Li794 1.990 . S
N839 C836 1.314 . S
N839 C837 1.279 . S
C840 C837 1.358 . S
C840 C841 1.356 . S
C840 H877 0.930 . S
C841 C838 1.348 . S
C841 C840 1.356 . S
H842 C836 0.930 . S
H843 C837 0.930 . S
C844 N845 1.314 . S
C844 C846 1.353 . S
C844 H850 0.930 . S
N845 Li795 1.990 . S
N845 C844 1.314 . S
N845 C848 1.279 . S
C846 C844 1.353 . S
C846 C849 1.348 . S
C846 H878 0.929 . S
C847 C848 1.358 . S
C847 C849 1.356 . S
C847 H879 0.930 1_545 S
C848 N845 1.279 . S
C848 C847 1.358 . S
C848 H851 0.930 . S
C849 C846 1.348 . S
C849 C847 1.356 . S
H850 C844 0.930 . S
H851 C848 0.930 . S
O852 Li792 1.956 . S
O852 Li793 1.970 . S
O852 Li794 1.961 . S
O852 C796 1.325 . S
O853 Li792 1.970 . S
O853 Li793 1.956 . S
O853 Li795 1.961 . S
O853 C802 1.325 . S
O854 Li792 1.961 . S
O854 Li794 1.956 . S
O854 Li795 1.970 . S
O854 C824 1.325 . S
O855 Li793 1.961 . S
O855 Li794 1.970 . S
O855 Li795 1.956 . S
O855 C830 1.325 . S
H856 C798 0.929 . S
H857 C799 0.930 . S
H858 C800 0.930 . S
H859 C801 0.930 . S
H860 C803 0.930 . S
H861 C805 0.929 . S
H862 C806 0.930 . S
H863 C807 0.930 . S
H864 C810 0.930 . S
H865 C813 0.929 . S
H866 C818 0.929 . S
H867 C819 0.930 . S
H868 C826 0.929 . S
H869 C827 0.930 . S
H870 C828 0.930 . S
H871 C829 0.930 . S
H872 C831 0.929 . S
H873 C832 0.930 . S
H874 C833 0.930 . S
H875 C834 0.930 . S
H876 C838 0.929 . S
H877 C840 0.930 . S
H878 C846 0.929 . S
H879 C847 0.930 1_565 S
Li880 N897 1.990 . S
Li880 O940 1.956 . S
Li880 O941 1.970 . S
Li880 O942 1.961 . S
Li881 N905 1.990 . S
Li881 O940 1.970 . S
Li881 O941 1.956 . S
Li881 O943 1.961 . S
Li882 N927 1.990 . S
Li882 O940 1.961 . S
Li882 O942 1.956 . S
Li882 O943 1.970 . S
Li883 N933 1.990 . S
Li883 O941 1.961 . S
Li883 O942 1.970 . S
Li883 O943 1.956 . S
C884 C886 1.348 . S
C884 C887 1.356 . S
C884 O940 1.325 . S
N885 C888 1.314 . S
N885 C889 1.279 . S
C886 C884 1.348 . S
C886 C888 1.353 . S
C886 H944 0.929 . S
C887 C884 1.356 . S
C887 C889 1.358 . S
C887 H945 0.930 . S
C888 N885 1.314 . S
C888 C886 1.353 . S
C888 H946 0.930 . S
C889 N885 1.279 . S
C889 C887 1.358 . S
C889 H947 0.930 . S
C890 C893 1.348 1_556 S
C890 C894 1.356 1_556 S
C890 O941 1.325 . S
C891 N892 1.279 . S
C891 C894 1.358 . S
C891 H948 0.930 . S
N892 C891 1.279 . S
N892 C895 1.314 . S
C893 C890 1.348 1_554 S
C893 C895 1.353 . S
C893 H949 0.929 . S
C894 C890 1.356 1_554 S
C894 C891 1.358 . S
C894 H950 0.930 1_554 S
C895 N892 1.314 . S
C895 C893 1.353 . S
C895 H951 0.930 . S
C896 N897 1.314 . S
C896 C901 1.353 . S
C896 H902 0.930 . S
N897 Li880 1.990 . S
N897 C896 1.314 . S
N897 C899 1.279 . S
C898 C899 1.358 . S
C898 C900 1.356 . S
C898 H952 0.930 1_545 S
C899 N897 1.279 . S
C899 C898 1.358 . S
C899 H903 0.930 . S
C900 C898 1.356 . S
C900 C901 1.348 . S
C901 C896 1.353 . S
C901 C900 1.348 . S
C901 H953 0.929 1_556 S
H902 C896 0.930 . S
H903 C899 0.930 . S
C904 N905 1.314 . S
C904 C906 1.353 . S
C904 H910 0.930 . S
N905 Li881 1.990 . S
N905 C904 1.314 . S
N905 C908 1.279 . S
C906 C904 1.353 . S
C906 C909 1.348 . S
C906 H954 0.929 . S
C907 C908 1.358 . S
C907 C909 1.356 . S
C907 H955 0.930 . S
C908 N905 1.279 . S
C908 C907 1.358 . S
C908 H911 0.930 . S
C909 C906 1.348 . S
C909 C907 1.356 . S
H910 C904 0.930 . S
H911 C908 0.930 . S
C912 C914 1.348 . S
C912 C915 1.356 . S
C912 O942 1.325 . S
N913 C916 1.314 . S
N913 C917 1.279 . S
C914 C912 1.348 . S
C914 C916 1.353 . S
C914 H956 0.929 . S
C915 C912 1.356 . S
C915 C917 1.358 . S
C915 H957 0.930 . S
C916 N913 1.314 . S
C916 C914 1.353 . S
C916 H958 0.930 . S
C917 N913 1.279 . S
C917 C915 1.358 . S
C917 H959 0.930 . S
C918 C919 1.348 . S
C918 C920 1.356 . S
C918 O943 1.325 . S
C919 C918 1.348 . S
C919 C921 1.353 . S
C919 H960 0.929 . S
C920 C918 1.356 . S
C920 C922 1.358 . S
C920 H961 0.930 . S
C921 C919 1.353 . S
C921 N923 1.314 . S
C921 H962 0.930 . S
C922 C920 1.358 . S
C922 N923 1.279 . S
C922 H963 0.930 . S
N923 C921 1.314 . S
N923 C922 1.279 . S
C924 C926 1.353 . S
C924 N927 1.314 . S
C924 H930 0.930 . S
C925 N927 1.279 . S
C925 C928 1.358 . S
C925 H931 0.930 . S
C926 C924 1.353 . S
C926 C929 1.348 . S
C926 H964 0.929 . S
N927 Li882 1.990 . S
N927 C924 1.314 . S
N927 C925 1.279 . S
C928 C925 1.358 . S
C928 C929 1.356 . S
C928 H965 0.930 . S
C929 C926 1.348 . S
C929 C928 1.356 . S
H930 C924 0.930 . S
H931 C925 0.930 . S
C932 N933 1.314 . S
C932 C934 1.353 1_556 S
C932 H938 0.930 . S
N933 Li883 1.990 . S
N933 C932 1.314 . S
N933 C936 1.279 . S
C934 C932 1.353 1_554 S
C934 C937 1.348 1_554 S
C934 H966 0.929 . S
C935 C936 1.358 . S
C935 C937 1.356 . S
C935 H967 0.930 . S
C936 N933 1.279 . S
C936 C935 1.358 . S
C936 H939 0.930 . S
C937 C934 1.348 1_556 S
C937 C935 1.356 . S
H938 C932 0.930 . S
H939 C936 0.930 . S
O940 Li880 1.956 . S
O940 Li881 1.970 . S
O940 Li882 1.961 . S
O940 C884 1.325 . S
O941 Li880 1.970 . S
O941 Li881 1.956 . S
O941 Li883 1.961 . S
O941 C890 1.325 . S
O942 Li880 1.961 . S
O942 Li882 1.956 . S
O942 Li883 1.970 . S
O942 C912 1.325 . S
O943 Li881 1.961 . S
O943 Li882 1.970 . S
O943 Li883 1.956 . S
O943 C918 1.325 . S
H944 C886 0.929 . S
H945 C887 0.930 . S
H946 C888 0.930 . S
H947 C889 0.930 . S
H948 C891 0.930 . S
H949 C893 0.929 . S
H950 C894 0.930 1_556 S
H951 C895 0.930 . S
H952 C898 0.930 1_565 S
H953 C901 0.929 1_554 S
H954 C906 0.929 . S
H955 C907 0.930 . S
H956 C914 0.929 . S
H957 C915 0.930 . S
H958 C916 0.930 . S
H959 C917 0.930 . S
H960 C919 0.929 . S
H961 C920 0.930 . S
H962 C921 0.930 . S
H963 C922 0.930 . S
H964 C926 0.929 . S
H965 C928 0.930 . S
H966 C934 0.929 . S
H967 C935 0.930 . S
Li968 N985 1.990 . S
Li968 O1028 1.956 . S
Li968 O1029 1.970 . S
Li968 O1030 1.961 . S
Li969 N993 1.990 . S
Li969 O1028 1.970 . S
Li969 O1029 1.956 . S
Li969 O1031 1.961 . S
Li970 N1015 1.990 . S
Li970 O1028 1.961 . S
Li970 O1030 1.956 . S
Li970 O1031 1.970 . S
Li971 N1021 1.990 . S
Li971 O1029 1.961 . S
Li971 O1030 1.970 . S
Li971 O1031 1.956 . S
C972 C974 1.348 . S
C972 C975 1.356 . S
C972 O1028 1.325 . S
N973 C976 1.314 . S
N973 C977 1.279 . S
C974 C972 1.348 . S
C974 C976 1.353 . S
C974 H1032 0.929 . S
C975 C972 1.356 . S
C975 C977 1.358 . S
C975 H1033 0.930 . S
C976 N973 1.314 . S
C976 C974 1.353 . S
C976 H1034 0.930 . S
C977 N973 1.279 . S
C977 C975 1.358 . S
C977 H1035 0.930 . S
C978 C981 1.348 . S
C978 C982 1.356 . S
C978 O1029 1.325 . S
C979 N980 1.279 . S
C979 C982 1.358 . S
C979 H1036 0.930 . S
N980 C979 1.279 . S
N980 C983 1.314 . S
C981 C978 1.348 . S
C981 C983 1.353 . S
C981 H1037 0.929 . S
C982 C978 1.356 . S
C982 C979 1.358 . S
C982 H1038 0.930 . S
C983 N980 1.314 . S
C983 C981 1.353 . S
C983 H1039 0.930 . S
C984 N985 1.314 . S
C984 C989 1.353 . S
C984 H990 0.930 . S
N985 Li968 1.990 . S
N985 C984 1.314 . S
N985 C987 1.279 . S
C986 C987 1.358 . S
C986 C988 1.356 . S
C986 H1040 0.930 . S
C987 N985 1.279 . S
C987 C986 1.358 . S
C987 H991 0.930 . S
C988 C986 1.356 . S
C988 C989 1.348 . S
C989 C984 1.353 . S
C989 C988 1.348 . S
C989 H1041 0.929 . S
H990 C984 0.930 . S
H991 C987 0.930 . S
C992 N993 1.314 . S
C992 C994 1.353 . S
C992 H998 0.930 . S
N993 Li969 1.990 . S
N993 C992 1.314 . S
N993 C996 1.279 . S
C994 C992 1.353 . S
C994 C997 1.348 . S
C994 H1042 0.929 . S
C995 C996 1.358 . S
C995 C997 1.356 . S
C995 H1043 0.930 1_565 S
C996 N993 1.279 . S
C996 C995 1.358 . S
C996 H999 0.930 . S
C997 C994 1.348 . S
C997 C995 1.356 . S
H998 C992 0.930 . S
H999 C996 0.930 . S
C1000 C1002 1.348 . S
C1000 C1003 1.356 . S
C1000 O1030 1.325 . S
N1001 C1004 1.314 . S
N1001 C1005 1.279 . S
C1002 C1000 1.348 . S
C1002 C1004 1.353 . S
C1002 H1044 0.929 . S
C1003 C1000 1.356 . S
C1003 C1005 1.358 . S
C1003 H1045 0.930 . S
C1004 N1001 1.314 . S
C1004 C1002 1.353 . S
C1004 H1046 0.930 . S
C1005 N1001 1.279 . S
C1005 C1003 1.358 . S
C1005 H1047 0.930 . S
C1006 C1007 1.348 . S
C1006 C1008 1.356 . S
C1006 O1031 1.325 . S
C1007 C1006 1.348 . S
C1007 C1009 1.353 . S
C1007 H1048 0.929 . S
C1008 C1006 1.356 . S
C1008 C1010 1.358 . S
C1008 H1049 0.930 . S
C1009 C1007 1.353 . S
C1009 N1011 1.314 . S
C1009 H1050 0.930 . S
C1010 C1008 1.358 . S
C1010 N1011 1.279 . S
C1010 H1051 0.930 . S
N1011 C1009 1.314 . S
N1011 C1010 1.279 . S
C1012 C1014 1.353 . S
C1012 N1015 1.314 . S
C1012 H1018 0.930 . S
C1013 N1015 1.279 . S
C1013 C1016 1.358 . S
C1013 H1019 0.930 . S
C1014 C1012 1.353 . S
C1014 C1017 1.348 . S
C1014 H1052 0.929 . S
N1015 Li970 1.990 . S
N1015 C1012 1.314 . S
N1015 C1013 1.279 . S
C1016 C1013 1.358 . S
C1016 C1017 1.356 . S
C1016 H1053 0.930 . S
C1017 C1014 1.348 . S
C1017 C1016 1.356 . S
H1018 C1012 0.930 . S
H1019 C1013 0.930 . S
C1020 N1021 1.314 . S
C1020 C1022 1.353 . S
C1020 H1026 0.930 . S
N1021 Li971 1.990 . S
N1021 C1020 1.314 . S
N1021 C1024 1.279 . S
C1022 C1020 1.353 . S
C1022 C1025 1.348 . S
C1022 H1054 0.929 . S
C1023 C1024 1.358 . S
C1023 C1025 1.356 . S
C1023 H1055 0.930 . S
C1024 N1021 1.279 . S
C1024 C1023 1.358 . S
C1024 H1027 0.930 . S
C1025 C1022 1.348 . S
C1025 C1023 1.356 . S
H1026 C1020 0.930 . S
H1027 C1024 0.930 . S
O1028 Li968 1.956 . S
O1028 Li969 1.970 . S
O1028 Li970 1.961 . S
O1028 C972 1.325 . S
O1029 Li968 1.970 . S
O1029 Li969 1.956 . S
O1029 Li971 1.961 . S
O1029 C978 1.325 . S
O1030 Li968 1.961 . S
O1030 Li970 1.956 . S
O1030 Li971 1.970 . S
O1030 C1000 1.325 . S
O1031 Li969 1.961 . S
O1031 Li970 1.970 . S
O1031 Li971 1.956 . S
O1031 C1006 1.325 . S
H1032 C974 0.929 . S
H1033 C975 0.930 . S
H1034 C976 0.930 . S
H1035 C977 0.930 . S
H1036 C979 0.930 . S
H1037 C981 0.929 . S
H1038 C982 0.930 . S
H1039 C983 0.930 . S
H1040 C986 0.930 . S
H1041 C989 0.929 . S
H1042 C994 0.929 . S
H1043 C995 0.930 1_545 S
H1044 C1002 0.929 . S
H1045 C1003 0.930 . S
H1046 C1004 0.930 . S
H1047 C1005 0.930 . S
H1048 C1007 0.929 . S
H1049 C1008 0.930 . S
H1050 C1009 0.930 . S
H1051 C1010 0.930 . S
H1052 C1014 0.929 . S
H1053 C1016 0.930 . S
H1054 C1022 0.929 . S
H1055 C1023 0.930 . S
Li1056 N1073 1.990 . S
Li1056 O1116 1.956 . S
Li1056 O1117 1.970 . S
Li1056 O1118 1.961 . S
Li1057 N1081 1.990 . S
Li1057 O1116 1.970 . S
Li1057 O1117 1.956 . S
Li1057 O1119 1.961 . S
Li1058 N1103 1.990 . S
Li1058 O1116 1.961 . S
Li1058 O1118 1.956 . S
Li1058 O1119 1.970 . S
Li1059 N1109 1.990 . S
Li1059 O1117 1.961 . S
Li1059 O1118 1.970 . S
Li1059 O1119 1.956 . S
C1060 C1062 1.348 1_556 S
C1060 C1063 1.356 1_556 S
C1060 O1116 1.325 . S
N1061 C1064 1.314 . S
N1061 C1065 1.279 . S
C1062 C1060 1.348 1_554 S
C1062 C1064 1.353 . S
C1062 H1120 0.929 . S
C1063 C1060 1.356 1_554 S
C1063 C1065 1.358 . S
C1063 H1121 0.930 1_554 S
C1064 N1061 1.314 . S
C1064 C1062 1.353 . S
C1064 H1122 0.930 . S
C1065 N1061 1.279 . S
C1065 C1063 1.358 . S
C1065 H1123 0.930 . S
C1066 C1069 1.348 . S
C1066 C1070 1.356 . S
C1066 O1117 1.325 . S
C1067 N1068 1.279 . S
C1067 C1070 1.358 . S
C1067 H1124 0.930 . S
N1068 C1067 1.279 . S
N1068 C1071 1.314 . S
C1069 C1066 1.348 . S
C1069 C1071 1.353 . S
C1069 H1125 0.929 . S
C1070 C1066 1.356 . S
C1070 C1067 1.358 . S
C1070 H1126 0.930 . S
C1071 N1068 1.314 . S
C1071 C1069 1.353 . S
C1071 H1127 0.930 . S
C1072 N1073 1.314 . S
C1072 C1077 1.353 . S
C1072 H1078 0.930 . S
N1073 Li1056 1.990 . S
N1073 C1072 1.314 . S
N1073 C1075 1.279 . S
C1074 C1075 1.358 1_554 S
C1074 C1076 1.356 1_554 S
C1074 H1128 0.930 . S
C1075 N1073 1.279 . S
C1075 C1074 1.358 1_556 S
C1075 H1079 0.930 1_556 S
C1076 C1074 1.356 1_556 S
C1076 C1077 1.348 . S
C1077 C1072 1.353 . S
C1077 C1076 1.348 . S
C1077 H1129 0.929 . S
H1078 C1072 0.930 . S
H1079 C1075 0.930 1_554 S
C1080 N1081 1.314 . S
C1080 C1082 1.353 . S
C1080 H1086 0.930 . S
N1081 Li1057 1.990 . S
N1081 C1080 1.314 . S
N1081 C1084 1.279 . S
C1082 C1080 1.353 . S
C1082 C1085 1.348 . S
C1082 H1130 0.929 . S
C1083 C1084 1.358 . S
C1083 C1085 1.356 . S
C1083 H1131 0.930 . S
C1084 N1081 1.279 . S
C1084 C1083 1.358 . S
C1084 H1087 0.930 . S
C1085 C1082 1.348 . S
C1085 C1083 1.356 . S
H1086 C1080 0.930 . S
H1087 C1084 0.930 . S
C1088 C1090 1.348 . S
C1088 C1091 1.356 . S
C1088 O1118 1.325 . S
N1089 C1092 1.314 . S
N1089 C1093 1.279 . S
C1090 C1088 1.348 . S
C1090 C1092 1.353 . S
C1090 H1132 0.929 . S
C1091 C1088 1.356 . S
C1091 C1093 1.358 . S
C1091 H1133 0.930 . S
C1092 N1089 1.314 . S
C1092 C1090 1.353 . S
C1092 H1134 0.930 . S
C1093 N1089 1.279 . S
C1093 C1091 1.358 . S
C1093 H1135 0.930 . S
C1094 C1095 1.348 . S
C1094 C1096 1.356 . S
C1094 O1119 1.325 . S
C1095 C1094 1.348 . S
C1095 C1097 1.353 . S
C1095 H1136 0.929 . S
C1096 C1094 1.356 . S
C1096 C1098 1.358 . S
C1096 H1137 0.930 . S
C1097 C1095 1.353 . S
C1097 N1099 1.314 . S
C1097 H1138 0.930 . S
C1098 C1096 1.358 . S
C1098 N1099 1.279 . S
C1098 H1139 0.930 . S
N1099 C1097 1.314 . S
N1099 C1098 1.279 . S
C1100 C1102 1.353 . S
C1100 N1103 1.314 . S
C1100 H1106 0.930 . S
C1101 N1103 1.279 . S
C1101 C1104 1.358 . S
C1101 H1107 0.930 . S
C1102 C1100 1.353 . S
C1102 C1105 1.348 . S
C1102 H1140 0.929 . S
N1103 Li1058 1.990 . S
N1103 C1100 1.314 . S
N1103 C1101 1.279 . S
C1104 C1101 1.358 . S
C1104 C1105 1.356 . S
C1104 H1141 0.930 . S
C1105 C1102 1.348 . S
C1105 C1104 1.356 . S
H1106 C1100 0.930 . S
H1107 C1101 0.930 . S
C1108 N1109 1.314 . S
C1108 C1110 1.353 . S
C1108 H1114 0.930 . S
N1109 Li1059 1.990 . S
N1109 C1108 1.314 . S
N1109 C1112 1.279 . S
C1110 C1108 1.353 . S
C1110 C1113 1.348 . S
C1110 H1142 0.929 . S
C1111 C1112 1.358 . S
C1111 C1113 1.356 . S
C1111 H1143 0.930 . S
C1112 N1109 1.279 . S
C1112 C1111 1.358 . S
C1112 H1115 0.930 . S
C1113 C1110 1.348 . S
C1113 C1111 1.356 . S
H1114 C1108 0.930 . S
H1115 C1112 0.930 . S
O1116 Li1056 1.956 . S
O1116 Li1057 1.970 . S
O1116 Li1058 1.961 . S
O1116 C1060 1.325 . S
O1117 Li1056 1.970 . S
O1117 Li1057 1.956 . S
O1117 Li1059 1.961 . S
O1117 C1066 1.325 . S
O1118 Li1056 1.961 . S
O1118 Li1058 1.956 . S
O1118 Li1059 1.970 . S
O1118 C1088 1.325 . S
O1119 Li1057 1.961 . S
O1119 Li1058 1.970 . S
O1119 Li1059 1.956 . S
O1119 C1094 1.325 . S
H1120 C1062 0.929 . S
H1121 C1063 0.930 1_556 S
H1122 C1064 0.930 . S
H1123 C1065 0.930 . S
H1124 C1067 0.930 . S
H1125 C1069 0.929 . S
H1126 C1070 0.930 . S
H1127 C1071 0.930 . S
H1128 C1074 0.930 . S
H1129 C1077 0.929 . S
H1130 C1082 0.929 . S
H1131 C1083 0.930 . S
H1132 C1090 0.929 . S
H1133 C1091 0.930 . S
H1134 C1092 0.930 . S
H1135 C1093 0.930 . S
H1136 C1095 0.929 . S
H1137 C1096 0.930 . S
H1138 C1097 0.930 . S
H1139 C1098 0.930 . S
H1140 C1102 0.929 . S
H1141 C1104 0.930 . S
H1142 C1110 0.929 . S
H1143 C1111 0.930 . S
Li1144 N1161 1.990 . S
Li1144 O1204 1.956 . S
Li1144 O1205 1.970 . S
Li1144 O1206 1.961 . S
Li1145 N1169 1.990 . S
Li1145 O1204 1.970 . S
Li1145 O1205 1.956 . S
Li1145 O1207 1.961 . S
Li1146 N1191 1.990 . S
Li1146 O1204 1.961 . S
Li1146 O1206 1.956 . S
Li1146 O1207 1.970 . S
Li1147 N1197 1.990 . S
Li1147 O1205 1.961 . S
Li1147 O1206 1.970 . S
Li1147 O1207 1.956 . S
C1148 C1150 1.348 . S
C1148 C1151 1.356 . S
C1148 O1204 1.325 . S
N1149 C1152 1.314 . S
N1149 C1153 1.279 . S
C1150 C1148 1.348 . S
C1150 C1152 1.353 . S
C1150 H1208 0.929 . S
C1151 C1148 1.356 . S
C1151 C1153 1.358 . S
C1151 H1209 0.930 . S
C1152 N1149 1.314 . S
C1152 C1150 1.353 . S
C1152 H1210 0.930 . S
C1153 N1149 1.279 . S
C1153 C1151 1.358 . S
C1153 H1211 0.930 . S
C1154 C1157 1.348 . S
C1154 C1158 1.356 . S
C1154 O1205 1.325 . S
C1155 N1156 1.279 . S
C1155 C1158 1.358 . S
C1155 H1212 0.930 . S
N1156 C1155 1.279 . S
N1156 C1159 1.314 . S
C1157 C1154 1.348 . S
C1157 C1159 1.353 . S
C1157 H1213 0.929 . S
C1158 C1154 1.356 . S
C1158 C1155 1.358 . S
C1158 H1214 0.930 . S
C1159 N1156 1.314 . S
C1159 C1157 1.353 . S
C1159 H1215 0.930 . S
C1160 N1161 1.314 . S
C1160 C1165 1.353 . S
C1160 H1166 0.930 . S
N1161 Li1144 1.990 . S
N1161 C1160 1.314 . S
N1161 C1163 1.279 . S
C1162 C1163 1.358 . S
C1162 C1164 1.356 . S
C1162 H1216 0.930 . S
C1163 N1161 1.279 . S
C1163 C1162 1.358 . S
C1163 H1167 0.930 . S
C1164 C1162 1.356 . S
C1164 C1165 1.348 . S
C1165 C1160 1.353 . S
C1165 C1164 1.348 . S
C1165 H1217 0.929 . S
H1166 C1160 0.930 . S
H1167 C1163 0.930 . S
C1168 N1169 1.314 . S
C1168 C1170 1.353 . S
C1168 H1174 0.930 . S
N1169 Li1145 1.990 . S
N1169 C1168 1.314 . S
N1169 C1172 1.279 . S
C1170 C1168 1.353 . S
C1170 C1173 1.348 . S
C1170 H1218 0.929 . S
C1171 C1172 1.358 . S
C1171 C1173 1.356 . S
C1171 H1219 0.930 . S
C1172 N1169 1.279 . S
C1172 C1171 1.358 . S
C1172 H1175 0.930 . S
C1173 C1170 1.348 . S
C1173 C1171 1.356 . S
H1174 C1168 0.930 . S
H1175 C1172 0.930 . S
C1176 C1178 1.348 . S
C1176 C1179 1.356 . S
C1176 O1206 1.325 . S
N1177 C1180 1.314 . S
N1177 C1181 1.279 . S
C1178 C1176 1.348 . S
C1178 C1180 1.353 . S
C1178 H1220 0.929 . S
C1179 C1176 1.356 . S
C1179 C1181 1.358 . S
C1179 H1221 0.930 . S
C1180 N1177 1.314 . S
C1180 C1178 1.353 . S
C1180 H1222 0.930 . S
C1181 N1177 1.279 . S
C1181 C1179 1.358 . S
C1181 H1223 0.930 . S
C1182 C1183 1.348 . S
C1182 C1184 1.356 . S
C1182 O1207 1.325 . S
C1183 C1182 1.348 . S
C1183 C1185 1.353 . S
C1183 H1224 0.929 . S
C1184 C1182 1.356 . S
C1184 C1186 1.358 . S
C1184 H1225 0.930 . S
C1185 C1183 1.353 . S
C1185 N1187 1.314 . S
C1185 H1226 0.930 . S
C1186 C1184 1.358 . S
C1186 N1187 1.279 . S
C1186 H1227 0.930 . S
N1187 C1185 1.314 . S
N1187 C1186 1.279 . S
C1188 C1190 1.353 . S
C1188 N1191 1.314 . S
C1188 H1194 0.930 . S
C1189 N1191 1.279 . S
C1189 C1192 1.358 . S
C1189 H1195 0.930 . S
C1190 C1188 1.353 . S
C1190 C1193 1.348 . S
C1190 H1228 0.929 . S
N1191 Li1146 1.990 . S
N1191 C1188 1.314 . S
N1191 C1189 1.279 . S
C1192 C1189 1.358 . S
C1192 C1193 1.356 . S
C1192 H1229 0.930 . S
C1193 C1190 1.348 . S
C1193 C1192 1.356 . S
H1194 C1188 0.930 . S
H1195 C1189 0.930 . S
C1196 N1197 1.314 . S
C1196 C1198 1.353 . S
C1196 H1202 0.930 . S
N1197 Li1147 1.990 . S
N1197 C1196 1.314 . S
N1197 C1200 1.279 . S
C1198 C1196 1.353 . S
C1198 C1201 1.348 . S
C1198 H1230 0.929 . S
C1199 C1200 1.358 . S
C1199 C1201 1.356 . S
C1199 H1231 0.930 . S
C1200 N1197 1.279 . S
C1200 C1199 1.358 . S
C1200 H1203 0.930 . S
C1201 C1198 1.348 . S
C1201 C1199 1.356 . S
H1202 C1196 0.930 . S
H1203 C1200 0.930 . S
O1204 Li1144 1.956 . S
O1204 Li1145 1.970 . S
O1204 Li1146 1.961 . S
O1204 C1148 1.325 . S
O1205 Li1144 1.970 . S
O1205 Li1145 1.956 . S
O1205 Li1147 1.961 . S
O1205 C1154 1.325 . S
O1206 Li1144 1.961 . S
O1206 Li1146 1.956 . S
O1206 Li1147 1.970 . S
O1206 C1176 1.325 . S
O1207 Li1145 1.961 . S
O1207 Li1146 1.970 . S
O1207 Li1147 1.956 . S
O1207 C1182 1.325 . S
H1208 C1150 0.929 . S
H1209 C1151 0.930 . S
H1210 C1152 0.930 . S
H1211 C1153 0.930 . S
H1212 C1155 0.930 . S
H1213 C1157 0.929 . S
H1214 C1158 0.930 . S
H1215 C1159 0.930 . S
H1216 C1162 0.930 . S
H1217 C1165 0.929 . S
H1218 C1170 0.929 . S
H1219 C1171 0.930 . S
H1220 C1178 0.929 . S
H1221 C1179 0.930 . S
H1222 C1180 0.930 . S
H1223 C1181 0.930 . S
H1224 C1183 0.929 . S
H1225 C1184 0.930 . S
H1226 C1185 0.930 . S
H1227 C1186 0.930 . S
H1228 C1190 0.929 . S
H1229 C1192 0.930 . S
H1230 C1198 0.929 . S
H1231 C1199 0.930 . S
Li1232 N1249 1.990 . S
Li1232 O1292 1.956 . S
Li1232 O1293 1.970 . S
Li1232 O1294 1.961 . S
Li1233 N1257 1.990 . S
Li1233 O1292 1.970 . S
Li1233 O1293 1.956 . S
Li1233 O1295 1.961 . S
Li1234 N1279 1.990 . S
Li1234 O1292 1.961 . S
Li1234 O1294 1.956 . S
Li1234 O1295 1.970 . S
Li1235 N1285 1.990 . S
Li1235 O1293 1.961 . S
Li1235 O1294 1.970 . S
Li1235 O1295 1.956 . S
C1236 C1238 1.348 . S
C1236 C1239 1.356 . S
C1236 O1292 1.325 . S
N1237 C1240 1.314 . S
N1237 C1241 1.279 . S
C1238 C1236 1.348 . S
C1238 C1240 1.353 . S
C1238 H1296 0.929 . S
C1239 C1236 1.356 . S
C1239 C1241 1.358 . S
C1239 H1297 0.930 . S
C1240 N1237 1.314 . S
C1240 C1238 1.353 . S
C1240 H1298 0.930 . S
C1241 N1237 1.279 . S
C1241 C1239 1.358 . S
C1241 H1299 0.930 . S
C1242 C1245 1.348 . S
C1242 C1246 1.356 . S
C1242 O1293 1.325 . S
C1243 N1244 1.279 . S
C1243 C1246 1.358 . S
C1243 H1300 0.930 . S
N1244 C1243 1.279 . S
N1244 C1247 1.314 . S
C1245 C1242 1.348 . S
C1245 C1247 1.353 . S
C1245 H1301 0.929 . S
C1246 C1242 1.356 . S
C1246 C1243 1.358 . S
C1246 H1302 0.930 . S
C1247 N1244 1.314 . S
C1247 C1245 1.353 . S
C1247 H1303 0.930 . S
C1248 N1249 1.314 . S
C1248 C1253 1.353 . S
C1248 H1254 0.930 . S
N1249 Li1232 1.990 . S
N1249 C1248 1.314 . S
N1249 C1251 1.279 . S
C1250 C1251 1.358 . S
C1250 C1252 1.356 . S
C1250 H1304 0.930 . S
C1251 N1249 1.279 . S
C1251 C1250 1.358 . S
C1251 H1255 0.930 . S
C1252 C1250 1.356 . S
C1252 C1253 1.348 . S
C1253 C1248 1.353 . S
C1253 C1252 1.348 . S
C1253 H1305 0.929 . S
H1254 C1248 0.930 . S
H1255 C1251 0.930 . S
C1256 N1257 1.314 . S
C1256 C1258 1.353 . S
C1256 H1262 0.930 . S
N1257 Li1233 1.990 . S
N1257 C1256 1.314 . S
N1257 C1260 1.279 . S
C1258 C1256 1.353 . S
C1258 C1261 1.348 . S
C1258 H1306 0.929 . S
C1259 C1260 1.358 . S
C1259 C1261 1.356 . S
C1259 H1307 0.930 . S
C1260 N1257 1.279 . S
C1260 C1259 1.358 . S
C1260 H1263 0.930 . S
C1261 C1258 1.348 . S
C1261 C1259 1.356 . S
H1262 C1256 0.930 . S
H1263 C1260 0.930 . S
C1264 C1266 1.348 . S
C1264 C1267 1.356 . S
C1264 O1294 1.325 . S
N1265 C1268 1.314 . S
N1265 C1269 1.279 . S
C1266 C1264 1.348 . S
C1266 C1268 1.353 . S
C1266 H1308 0.929 . S
C1267 C1264 1.356 . S
C1267 C1269 1.358 . S
C1267 H1309 0.930 . S
C1268 N1265 1.314 . S
C1268 C1266 1.353 . S
C1268 H1310 0.930 . S
C1269 N1265 1.279 . S
C1269 C1267 1.358 . S
C1269 H1311 0.930 . S
C1270 C1271 1.348 1_554 S
C1270 C1272 1.356 1_554 S
C1270 O1295 1.325 . S
C1271 C1270 1.348 1_556 S
C1271 C1273 1.353 . S
C1271 H1312 0.929 . S
C1272 C1270 1.356 1_556 S
C1272 C1274 1.358 . S
C1272 H1313 0.930 1_556 S
C1273 C1271 1.353 . S
C1273 N1275 1.314 . S
C1273 H1314 0.930 . S
C1274 C1272 1.358 . S
C1274 N1275 1.279 . S
C1274 H1315 0.930 . S
N1275 C1273 1.314 . S
N1275 C1274 1.279 . S
C1276 C1278 1.353 . S
C1276 N1279 1.314 . S
C1276 H1282 0.930 . S
C1277 N1279 1.279 . S
C1277 C1280 1.358 . S
C1277 H1283 0.930 . S
C1278 C1276 1.353 . S
C1278 C1281 1.348 . S
C1278 H1316 0.929 . S
N1279 Li1234 1.990 . S
N1279 C1276 1.314 . S
N1279 C1277 1.279 . S
C1280 C1277 1.358 . S
C1280 C1281 1.356 . S
C1280 H1317 0.930 . S
C1281 C1278 1.348 . S
C1281 C1280 1.356 . S
H1282 C1276 0.930 . S
H1283 C1277 0.930 . S
C1284 N1285 1.314 . S
C1284 C1286 1.353 . S
C1284 H1290 0.930 . S
N1285 Li1235 1.990 . S
N1285 C1284 1.314 . S
N1285 C1288 1.279 . S
C1286 C1284 1.353 . S
C1286 C1289 1.348 . S
C1286 H1318 0.929 . S
C1287 C1288 1.358 1_556 S
C1287 C1289 1.356 1_556 S
C1287 H1319 0.930 . S
C1288 N1285 1.279 . S
C1288 C1287 1.358 1_554 S
C1288 H1291 0.930 1_554 S
C1289 C1286 1.348 . S
C1289 C1287 1.356 1_554 S
H1290 C1284 0.930 . S
H1291 C1288 0.930 1_556 S
O1292 Li1232 1.956 . S
O1292 Li1233 1.970 . S
O1292 Li1234 1.961 . S
O1292 C1236 1.325 . S
O1293 Li1232 1.970 . S
O1293 Li1233 1.956 . S
O1293 Li1235 1.961 . S
O1293 C1242 1.325 . S
O1294 Li1232 1.961 . S
O1294 Li1234 1.956 . S
O1294 Li1235 1.970 . S
O1294 C1264 1.325 . S
O1295 Li1233 1.961 . S
O1295 Li1234 1.970 . S
O1295 Li1235 1.956 . S
O1295 C1270 1.325 . S
H1296 C1238 0.929 . S
H1297 C1239 0.930 . S
H1298 C1240 0.930 . S
H1299 C1241 0.930 . S
H1300 C1243 0.930 . S
H1301 C1245 0.929 . S
H1302 C1246 0.930 . S
H1303 C1247 0.930 . S
H1304 C1250 0.930 . S
H1305 C1253 0.929 . S
H1306 C1258 0.929 . S
H1307 C1259 0.930 . S
H1308 C1266 0.929 . S
H1309 C1267 0.930 . S
H1310 C1268 0.930 . S
H1311 C1269 0.930 . S
H1312 C1271 0.929 . S
H1313 C1272 0.930 1_554 S
H1314 C1273 0.930 . S
H1315 C1274 0.930 . S
H1316 C1278 0.929 . S
H1317 C1280 0.930 . S
H1318 C1286 0.929 . S
H1319 C1287 0.930 . S
Li1320 N1337 1.990 . S
Li1320 O1380 1.956 . S
Li1320 O1381 1.970 . S
Li1320 O1382 1.961 . S
Li1321 N1345 1.990 . S
Li1321 O1380 1.970 . S
Li1321 O1381 1.956 . S
Li1321 O1383 1.961 . S
Li1322 N1367 1.990 . S
Li1322 O1380 1.961 . S
Li1322 O1382 1.956 . S
Li1322 O1383 1.970 . S
Li1323 N1373 1.990 . S
Li1323 O1381 1.961 . S
Li1323 O1382 1.970 . S
Li1323 O1383 1.956 . S
C1324 C1326 1.348 . S
C1324 C1327 1.356 . S
C1324 O1380 1.325 . S
N1325 C1328 1.314 . S
N1325 C1329 1.279 . S
C1326 C1324 1.348 . S
C1326 C1328 1.353 . S
C1326 H1384 0.929 . S
C1327 C1324 1.356 . S
C1327 C1329 1.358 . S
C1327 H1385 0.930 . S
C1328 N1325 1.314 . S
C1328 C1326 1.353 . S
C1328 H1386 0.930 . S
C1329 N1325 1.279 . S
C1329 C1327 1.358 . S
C1329 H1387 0.930 . S
C1330 C1333 1.348 . S
C1330 C1334 1.356 . S
C1330 O1381 1.325 . S
C1331 N1332 1.279 . S
C1331 C1334 1.358 . S
C1331 H1388 0.930 . S
N1332 C1331 1.279 . S
N1332 C1335 1.314 . S
C1333 C1330 1.348 . S
C1333 C1335 1.353 . S
C1333 H1389 0.929 . S
C1334 C1330 1.356 . S
C1334 C1331 1.358 . S
C1334 H1390 0.930 . S
C1335 N1332 1.314 . S
C1335 C1333 1.353 . S
C1335 H1391 0.930 . S
C1336 N1337 1.314 . S
C1336 C1341 1.353 . S
C1336 H1342 0.930 . S
N1337 Li1320 1.990 . S
N1337 C1336 1.314 . S
N1337 C1339 1.279 . S
C1338 C1339 1.358 . S
C1338 C1340 1.356 . S
C1338 H1392 0.930 . S
C1339 N1337 1.279 . S
C1339 C1338 1.358 . S
C1339 H1343 0.930 . S
C1340 C1338 1.356 . S
C1340 C1341 1.348 . S
C1341 C1336 1.353 . S
C1341 C1340 1.348 . S
C1341 H1393 0.929 . S
H1342 C1336 0.930 . S
H1343 C1339 0.930 . S
C1344 N1345 1.314 . S
C1344 C1346 1.353 . S
C1344 H1350 0.930 . S
N1345 Li1321 1.990 . S
N1345 C1344 1.314 . S
N1345 C1348 1.279 . S
C1346 C1344 1.353 . S
C1346 C1349 1.348 . S
C1346 H1394 0.929 . S
C1347 C1348 1.358 . S
C1347 C1349 1.356 . S
C1347 H1395 0.930 . S
C1348 N1345 1.279 . S
C1348 C1347 1.358 . S
C1348 H1351 0.930 . S
C1349 C1346 1.348 . S
C1349 C1347 1.356 . S
H1350 C1344 0.930 . S
H1351 C1348 0.930 . S
C1352 C1354 1.348 . S
C1352 C1355 1.356 . S
C1352 O1382 1.325 . S
N1353 C1356 1.314 . S
N1353 C1357 1.279 . S
C1354 C1352 1.348 . S
C1354 C1356 1.353 . S
C1354 H1396 0.929 . S
C1355 C1352 1.356 . S
C1355 C1357 1.358 . S
C1355 H1397 0.930 . S
C1356 N1353 1.314 . S
C1356 C1354 1.353 . S
C1356 H1398 0.930 . S
C1357 N1353 1.279 . S
C1357 C1355 1.358 . S
C1357 H1399 0.930 . S
C1358 C1359 1.348 . S
C1358 C1360 1.356 . S
C1358 O1383 1.325 . S
C1359 C1358 1.348 . S
C1359 C1361 1.353 . S
C1359 H1400 0.929 . S
C1360 C1358 1.356 . S
C1360 C1362 1.358 . S
C1360 H1401 0.930 . S
C1361 C1359 1.353 . S
C1361 N1363 1.314 . S
C1361 H1402 0.930 . S
C1362 C1360 1.358 . S
C1362 N1363 1.279 . S
C1362 H1403 0.930 . S
N1363 C1361 1.314 . S
N1363 C1362 1.279 . S
C1364 C1366 1.353 . S
C1364 N1367 1.314 . S
C1364 H1370 0.930 . S
C1365 N1367 1.279 . S
C1365 C1368 1.358 . S
C1365 H1371 0.930 . S
C1366 C1364 1.353 . S
C1366 C1369 1.348 . S
C1366 H1404 0.929 . S
N1367 Li1322 1.990 . S
N1367 C1364 1.314 . S
N1367 C1365 1.279 . S
C1368 C1365 1.358 . S
C1368 C1369 1.356 . S
C1368 H1405 0.930 . S
C1369 C1366 1.348 . S
C1369 C1368 1.356 . S
H1370 C1364 0.930 . S
H1371 C1365 0.930 . S
C1372 N1373 1.314 . S
C1372 C1374 1.353 . S
C1372 H1378 0.930 . S
N1373 Li1323 1.990 . S
N1373 C1372 1.314 . S
N1373 C1376 1.279 . S
C1374 C1372 1.353 . S
C1374 C1377 1.348 . S
C1374 H1406 0.929 . S
C1375 C1376 1.358 . S
C1375 C1377 1.356 . S
C1375 H1407 0.930 . S
C1376 N1373 1.279 . S
C1376 C1375 1.358 . S
C1376 H1379 0.930 . S
C1377 C1374 1.348 . S
C1377 C1375 1.356 . S
H1378 C1372 0.930 . S
H1379 C1376 0.930 . S
O1380 Li1320 1.956 . S
O1380 Li1321 1.970 . S
O1380 Li1322 1.961 . S
O1380 C1324 1.325 . S
O1381 Li1320 1.970 . S
O1381 Li1321 1.956 . S
O1381 Li1323 1.961 . S
O1381 C1330 1.325 . S
O1382 Li1320 1.961 . S
O1382 Li1322 1.956 . S
O1382 Li1323 1.970 . S
O1382 C1352 1.325 . S
O1383 Li1321 1.961 . S
O1383 Li1322 1.970 . S
O1383 Li1323 1.956 . S
O1383 C1358 1.325 . S
H1384 C1326 0.929 . S
H1385 C1327 0.930 . S
H1386 C1328 0.930 . S
H1387 C1329 0.930 . S
H1388 C1331 0.930 . S
H1389 C1333 0.929 . S
H1390 C1334 0.930 . S
H1391 C1335 0.930 . S
H1392 C1338 0.930 . S
H1393 C1341 0.929 . S
H1394 C1346 0.929 . S
H1395 C1347 0.930 . S
H1396 C1354 0.929 . S
H1397 C1355 0.930 . S
H1398 C1356 0.930 . S
H1399 C1357 0.930 . S
H1400 C1359 0.929 . S
H1401 C1360 0.930 . S
H1402 C1361 0.930 . S
H1403 C1362 0.930 . S
H1404 C1366 0.929 . S
H1405 C1368 0.930 . S
H1406 C1374 0.929 . S
H1407 C1375 0.930 . S
C57 C557 1.590 1_455 S
C145 C645 1.590 1_655 S
C401 C205 1.590 1_655 S
C497 C293 1.590 1_455 S
C1261 C761 1.590 . S
C1340 C841 1.590 . S
C909 C1105 1.590 . S
C988 C1193 1.590 . S
C20 C489 1.556 . S
C108 C409 1.556 . S
C225 C636 1.556 . S
C548 C313 1.556 . S
C1201 C724 1.556 . S
C1113 C821 1.556 . S
C929 C1349 1.556 . S
C1252 C1025 1.556 . S
C1076 C29 1.471 1_556 S
C117 C1164 1.471 . S
C1289 C233 1.471 1_554 S
C1369 C321 1.471 . S
C733 C372 1.471 1_554 S
C812 C469 1.471 . S
C585 C937 1.471 1_554 S
C673 C1017 1.471 . S
C196 C49 1.580 1_556 S
C137 C284 1.580 . S
C577 C381 1.582 1_554 S
C460 C665 1.582 . S
C900 C753 1.580 1_546 S
C997 C849 1.580 1_565 S
C1281 C1085 1.582 1_564 S
C1377 C1173 1.582 1_545 S
