# Generated by pormake.
# Topology cha, (4)-cn, num edge types: 1
# Building blocks:
#     Node 0, Type 0, BuildingBlock: ICAMEG_clean_sbu_1, # of connection points: 4
#     Node 1, Type 0, BuildingBlock: ICAMEG_clean_sbu_1, # of connection points: 4
#     Node 2, Type 0, BuildingBlock: ICAMEG_clean_sbu_1, # of connection points: 4
#     Node 3, Type 0, BuildingBlock: ICAMEG_clean_sbu_1, # of connection points: 4
#     Node 4, Type 0, BuildingBlock: ICAMEG_clean_sbu_1, # of connection points: 4
#     Node 5, Type 0, BuildingBlock: ICAMEG_clean_sbu_1, # of connection points: 4
#     Node 6, Type 0, BuildingBlock: ICAMEG_clean_sbu_1, # of connection points: 4
#     Node 7, Type 0, BuildingBlock: ICAMEG_clean_sbu_1, # of connection points: 4
#     Node 8, Type 0, BuildingBlock: ICAMEG_clean_sbu_1, # of connection points: 4
#     Node 9, Type 0, BuildingBlock: ICAMEG_clean_sbu_1, # of connection points: 4
#     Node 10, Type 0, BuildingBlock: ICAMEG_clean_sbu_1, # of connection points: 4
#     Node 11, Type 0, BuildingBlock: ICAMEG_clean_sbu_1, # of connection points: 4
#     Node 12, Type 0, BuildingBlock: ICAMEG_clean_sbu_1, # of connection points: 4
#     Node 13, Type 0, BuildingBlock: ICAMEG_clean_sbu_1, # of connection points: 4
#     Node 14, Type 0, BuildingBlock: ICAMEG_clean_sbu_1, # of connection points: 4
#     Node 15, Type 0, BuildingBlock: ICAMEG_clean_sbu_1, # of connection points: 4
#     Node 16, Type 0, BuildingBlock: ICAMEG_clean_sbu_1, # of connection points: 4
#     Node 17, Type 0, BuildingBlock: ICAMEG_clean_sbu_1, # of connection points: 4
#     Node 18, Type 0, BuildingBlock: ICAMEG_clean_sbu_1, # of connection points: 4
#     Node 19, Type 0, BuildingBlock: ICAMEG_clean_sbu_1, # of connection points: 4
#     Node 20, Type 0, BuildingBlock: ICAMEG_clean_sbu_1, # of connection points: 4
#     Node 21, Type 0, BuildingBlock: ICAMEG_clean_sbu_1, # of connection points: 4
#     Node 22, Type 0, BuildingBlock: ICAMEG_clean_sbu_1, # of connection points: 4
#     Node 23, Type 0, BuildingBlock: ICAMEG_clean_sbu_1, # of connection points: 4
#     Node 24, Type 0, BuildingBlock: ICAMEG_clean_sbu_1, # of connection points: 4
#     Node 25, Type 0, BuildingBlock: ICAMEG_clean_sbu_1, # of connection points: 4
#     Node 26, Type 0, BuildingBlock: ICAMEG_clean_sbu_1, # of connection points: 4
#     Node 27, Type 0, BuildingBlock: ICAMEG_clean_sbu_1, # of connection points: 4
#     Node 28, Type 0, BuildingBlock: ICAMEG_clean_sbu_1, # of connection points: 4
#     Node 29, Type 0, BuildingBlock: ICAMEG_clean_sbu_1, # of connection points: 4
#     Node 30, Type 0, BuildingBlock: ICAMEG_clean_sbu_1, # of connection points: 4
#     Node 31, Type 0, BuildingBlock: ICAMEG_clean_sbu_1, # of connection points: 4
#     Node 32, Type 0, BuildingBlock: ICAMEG_clean_sbu_1, # of connection points: 4
#     Node 33, Type 0, BuildingBlock: ICAMEG_clean_sbu_1, # of connection points: 4
#     Node 34, Type 0, BuildingBlock: ICAMEG_clean_sbu_1, # of connection points: 4
#     Node 35, Type 0, BuildingBlock: ICAMEG_clean_sbu_1, # of connection points: 4
#     Edge 36, Type (0, 0), BuildingBlock: KIFKEQ_clean_linker_1, # of connection points: 2
#     Edge 37, Type (0, 0), BuildingBlock: KIFKEQ_clean_linker_1, # of connection points: 2
#     Edge 38, Type (0, 0), BuildingBlock: KIFKEQ_clean_linker_1, # of connection points: 2
#     Edge 39, Type (0, 0), BuildingBlock: KIFKEQ_clean_linker_1, # of connection points: 2
#     Edge 40, Type (0, 0), BuildingBlock: KIFKEQ_clean_linker_1, # of connection points: 2
#     Edge 41, Type (0, 0), BuildingBlock: KIFKEQ_clean_linker_1, # of connection points: 2
#     Edge 42, Type (0, 0), BuildingBlock: KIFKEQ_clean_linker_1, # of connection points: 2
#     Edge 43, Type (0, 0), BuildingBlock: KIFKEQ_clean_linker_1, # of connection points: 2
#     Edge 44, Type (0, 0), BuildingBlock: KIFKEQ_clean_linker_1, # of connection points: 2
#     Edge 45, Type (0, 0), BuildingBlock: KIFKEQ_clean_linker_1, # of connection points: 2
#     Edge 46, Type (0, 0), BuildingBlock: KIFKEQ_clean_linker_1, # of connection points: 2
#     Edge 47, Type (0, 0), BuildingBlock: KIFKEQ_clean_linker_1, # of connection points: 2
#     Edge 48, Type (0, 0), BuildingBlock: KIFKEQ_clean_linker_1, # of connection points: 2
#     Edge 49, Type (0, 0), BuildingBlock: KIFKEQ_clean_linker_1, # of connection points: 2
#     Edge 50, Type (0, 0), BuildingBlock: KIFKEQ_clean_linker_1, # of connection points: 2
#     Edge 51, Type (0, 0), BuildingBlock: KIFKEQ_clean_linker_1, # of connection points: 2
#     Edge 52, Type (0, 0), BuildingBlock: KIFKEQ_clean_linker_1, # of connection points: 2
#     Edge 53, Type (0, 0), BuildingBlock: KIFKEQ_clean_linker_1, # of connection points: 2
#     Edge 54, Type (0, 0), BuildingBlock: KIFKEQ_clean_linker_1, # of connection points: 2
#     Edge 55, Type (0, 0), BuildingBlock: KIFKEQ_clean_linker_1, # of connection points: 2
#     Edge 56, Type (0, 0), BuildingBlock: KIFKEQ_clean_linker_1, # of connection points: 2
#     Edge 57, Type (0, 0), BuildingBlock: KIFKEQ_clean_linker_1, # of connection points: 2
#     Edge 58, Type (0, 0), BuildingBlock: KIFKEQ_clean_linker_1, # of connection points: 2
#     Edge 59, Type (0, 0), BuildingBlock: KIFKEQ_clean_linker_1, # of connection points: 2
#     Edge 60, Type (0, 0), BuildingBlock: KIFKEQ_clean_linker_1, # of connection points: 2
#     Edge 61, Type (0, 0), BuildingBlock: KIFKEQ_clean_linker_1, # of connection points: 2
#     Edge 62, Type (0, 0), BuildingBlock: KIFKEQ_clean_linker_1, # of connection points: 2
#     Edge 63, Type (0, 0), BuildingBlock: KIFKEQ_clean_linker_1, # of connection points: 2
#     Edge 64, Type (0, 0), BuildingBlock: KIFKEQ_clean_linker_1, # of connection points: 2
#     Edge 65, Type (0, 0), BuildingBlock: KIFKEQ_clean_linker_1, # of connection points: 2
#     Edge 66, Type (0, 0), BuildingBlock: KIFKEQ_clean_linker_1, # of connection points: 2
#     Edge 67, Type (0, 0), BuildingBlock: KIFKEQ_clean_linker_1, # of connection points: 2
#     Edge 68, Type (0, 0), BuildingBlock: KIFKEQ_clean_linker_1, # of connection points: 2
#     Edge 69, Type (0, 0), BuildingBlock: KIFKEQ_clean_linker_1, # of connection points: 2
#     Edge 70, Type (0, 0), BuildingBlock: KIFKEQ_clean_linker_1, # of connection points: 2
#     Edge 71, Type (0, 0), BuildingBlock: KIFKEQ_clean_linker_1, # of connection points: 2
#     Edge 72, Type (0, 0), BuildingBlock: KIFKEQ_clean_linker_1, # of connection points: 2
#     Edge 73, Type (0, 0), BuildingBlock: KIFKEQ_clean_linker_1, # of connection points: 2
#     Edge 74, Type (0, 0), BuildingBlock: KIFKEQ_clean_linker_1, # of connection points: 2
#     Edge 75, Type (0, 0), BuildingBlock: KIFKEQ_clean_linker_1, # of connection points: 2
#     Edge 76, Type (0, 0), BuildingBlock: KIFKEQ_clean_linker_1, # of connection points: 2
#     Edge 77, Type (0, 0), BuildingBlock: KIFKEQ_clean_linker_1, # of connection points: 2
#     Edge 78, Type (0, 0), BuildingBlock: KIFKEQ_clean_linker_1, # of connection points: 2
#     Edge 79, Type (0, 0), BuildingBlock: KIFKEQ_clean_linker_1, # of connection points: 2
#     Edge 80, Type (0, 0), BuildingBlock: KIFKEQ_clean_linker_1, # of connection points: 2
#     Edge 81, Type (0, 0), BuildingBlock: KIFKEQ_clean_linker_1, # of connection points: 2
#     Edge 82, Type (0, 0), BuildingBlock: KIFKEQ_clean_linker_1, # of connection points: 2
#     Edge 83, Type (0, 0), BuildingBlock: KIFKEQ_clean_linker_1, # of connection points: 2
#     Edge 84, Type (0, 0), BuildingBlock: KIFKEQ_clean_linker_1, # of connection points: 2
#     Edge 85, Type (0, 0), BuildingBlock: KIFKEQ_clean_linker_1, # of connection points: 2
#     Edge 86, Type (0, 0), BuildingBlock: KIFKEQ_clean_linker_1, # of connection points: 2
#     Edge 87, Type (0, 0), BuildingBlock: KIFKEQ_clean_linker_1, # of connection points: 2
#     Edge 88, Type (0, 0), BuildingBlock: KIFKEQ_clean_linker_1, # of connection points: 2
#     Edge 89, Type (0, 0), BuildingBlock: KIFKEQ_clean_linker_1, # of connection points: 2
#     Edge 90, Type (0, 0), BuildingBlock: KIFKEQ_clean_linker_1, # of connection points: 2
#     Edge 91, Type (0, 0), BuildingBlock: KIFKEQ_clean_linker_1, # of connection points: 2
#     Edge 92, Type (0, 0), BuildingBlock: KIFKEQ_clean_linker_1, # of connection points: 2
#     Edge 93, Type (0, 0), BuildingBlock: KIFKEQ_clean_linker_1, # of connection points: 2
#     Edge 94, Type (0, 0), BuildingBlock: KIFKEQ_clean_linker_1, # of connection points: 2
#     Edge 95, Type (0, 0), BuildingBlock: KIFKEQ_clean_linker_1, # of connection points: 2
#     Edge 96, Type (0, 0), BuildingBlock: KIFKEQ_clean_linker_1, # of connection points: 2
#     Edge 97, Type (0, 0), BuildingBlock: KIFKEQ_clean_linker_1, # of connection points: 2
#     Edge 98, Type (0, 0), BuildingBlock: KIFKEQ_clean_linker_1, # of connection points: 2
#     Edge 99, Type (0, 0), BuildingBlock: KIFKEQ_clean_linker_1, # of connection points: 2
#     Edge 100, Type (0, 0), BuildingBlock: KIFKEQ_clean_linker_1, # of connection points: 2
#     Edge 101, Type (0, 0), BuildingBlock: KIFKEQ_clean_linker_1, # of connection points: 2
#     Edge 102, Type (0, 0), BuildingBlock: KIFKEQ_clean_linker_1, # of connection points: 2
#     Edge 103, Type (0, 0), BuildingBlock: KIFKEQ_clean_linker_1, # of connection points: 2
#     Edge 104, Type (0, 0), BuildingBlock: KIFKEQ_clean_linker_1, # of connection points: 2
#     Edge 105, Type (0, 0), BuildingBlock: KIFKEQ_clean_linker_1, # of connection points: 2
#     Edge 106, Type (0, 0), BuildingBlock: KIFKEQ_clean_linker_1, # of connection points: 2
#     Edge 107, Type (0, 0), BuildingBlock: KIFKEQ_clean_linker_1, # of connection points: 2
# Relax obj value: 0.067
# Max RMSD: 0.073
# Mean RMSD: 0.073
data_MOF--net-cha--node1-ICAMEG_clean_sbu_1--edge1-KIFKEQ_clean_linker_1
_symmetry_space_group_name_H-M    P1
_symmetry_Int_Tables_number       1
_symmetry_cell_setting            triclinic
loop_
_symmetry_equiv_pos_as_xyz
'x, y, z'
_cell_length_a     59.802415
_cell_length_b     59.79351
_cell_length_c     91.624041
_cell_angle_alpha  89.994522
_cell_angle_beta   89.995358
_cell_angle_gamma 120.01561
loop_
_atom_site_label
_atom_site_type_symbol
_atom_site_fract_x
_atom_site_fract_y
_atom_site_fract_z
_atom_type_partial_charge
Co0 Co 0.03142 0.26923 0.08353 0.0
Co1 Co 0.00184 0.30583 0.08655 0.0
O2 O 0.02781 0.29684 0.09243 0.0
C3 C 0.08625 0.31162 0.07927 0.0
O4 O 0.07886 0.32305 0.06977 0.0
C5 C 0.99424 0.29538 0.11802 0.0
O6 O 0.99612 0.27487 0.11527 0.0
O7 O 0.97375 0.26921 0.08771 0.0
O8 O 0.99315 0.24675 0.08146 0.0
H9 H 0.92622 0.29671 0.05776 0.0
H10 H 0.05735 0.29101 0.11184 0.0
O11 O 0.06986 0.29085 0.08563 0.0
H12 H 0.99808 0.19842 0.1212 0.0
H13 H 0.07117 0.21273 0.07799 0.0
H14 H 0.00748 0.23421 0.05827 0.0
H15 H 0.00123 0.21663 0.09664 0.0
H16 H 0.06516 0.24669 0.08944 0.0
O17 O 0.9958 0.31037 0.10767 0.0
H18 H 0.95919 0.28554 0.06497 0.0
H19 H 0.98915 0.34561 0.09652 0.0
H20 H 0.0127 0.19996 0.04656 0.0
H21 H 0.05508 0.2735 0.13651 0.0
H22 H 0.04474 0.18902 0.05643 0.0
H23 H 0.02518 0.22691 0.14133 0.0
O24 O 0.03296 0.28368 0.06384 0.0
H25 H 0.08015 0.38602 0.10476 0.0
H26 H 0.01773 0.34763 0.06438 0.0
H27 H 0.05294 0.39289 0.06257 0.0
H28 H 0.08441 0.41239 0.08288 0.0
H29 H 0.04476 0.34076 0.10608 0.0
H30 H 0.95637 0.3573 0.08975 0.0
H31 H 0.92467 0.33283 0.07019 0.0
O32 O 0.00729 0.30117 0.06534 0.0
C33 C 0.97303 0.24822 0.08426 0.0
C34 C 0.93998 0.30758 0.06626 0.0
C35 C 0.95688 0.34157 0.08423 0.0
N36 N 0.97622 0.31508 0.08104 0.0
C37 C 0.95875 0.30141 0.07035 0.0
C38 C 0.97537 0.33484 0.08803 0.0
C39 C 0.93911 0.32783 0.07325 0.0
C40 C 0.04454 0.27065 0.1138 0.0
N41 N 0.02952 0.25486 0.10279 0.0
C42 C 0.04324 0.26087 0.12781 0.0
C43 C 0.02642 0.23474 0.13052 0.0
C44 C 0.01118 0.21875 0.11923 0.0
C45 C 0.01299 0.2292 0.10536 0.0
C46 C 0.05709 0.21727 0.07362 0.0
C47 C 0.02133 0.22943 0.06269 0.0
C48 C 0.05364 0.23651 0.08004 0.0
N49 N 0.0358 0.24225 0.07461 0.0
C50 C 0.02426 0.21008 0.05598 0.0
C51 C 0.04226 0.20397 0.06152 0.0
C52 C 0.0209 0.29402 0.05808 0.0
C53 C 0.06651 0.37776 0.09586 0.0
C54 C 0.0314 0.35595 0.07325 0.0
C55 C 0.05126 0.38161 0.07217 0.0
C56 C 0.06891 0.39254 0.08357 0.0
N57 N 0.02912 0.34163 0.08536 0.0
C58 C 0.04639 0.35218 0.09657 0.0
Co59 Co 0.785 0.78556 0.08103 0.0
Co60 Co 0.74349 0.72071 0.08595 0.0
O61 O 0.75685 0.75681 0.09138 0.0
C62 C 0.74517 0.80154 0.08122 0.0
O63 O 0.72856 0.77921 0.07542 0.0
C64 C 0.75628 0.72323 0.11714 0.0
O65 O 0.77862 0.74333 0.11368 0.0
O66 O 0.77881 0.72526 0.08631 0.0
O67 O 0.80301 0.76548 0.07759 0.0
H68 H 0.74121 0.64762 0.05765 0.0
H69 H 0.77044 0.79451 0.11047 0.0
O70 O 0.76802 0.80664 0.08425 0.0
H71 H 0.86162 0.81717 0.11461 0.0
H72 H 0.84975 0.87946 0.07263 0.0
H73 H 0.81406 0.79078 0.05382 0.0
H74 H 0.83871 0.80275 0.0911 0.0
H75 H 0.81489 0.84253 0.08586 0.0
O76 O 0.73945 0.71128 0.10724 0.0
H77 H 0.7578 0.69327 0.06421 0.0
H78 H 0.7006 0.67086 0.09718 0.0
H79 H 0.84906 0.82712 0.04031 0.0
H80 H 0.79272 0.80913 0.13416 0.0
H81 H 0.86715 0.87185 0.04971 0.0
H82 H 0.8386 0.82046 0.13635 0.0
O83 O 0.76631 0.77278 0.06231 0.0
H84 H 0.67023 0.73013 0.10566 0.0
H85 H 0.69962 0.69744 0.06486 0.0
H86 H 0.65621 0.69263 0.06399 0.0
H87 H 0.64124 0.709 0.08451 0.0
H88 H 0.71358 0.73471 0.10604 0.0
H89 H 0.68352 0.62494 0.09107 0.0
H90 H 0.7038 0.61309 0.07113 0.0
O91 O 0.74744 0.72959 0.06451 0.0
C92 C 0.79992 0.74354 0.08125 0.0
C93 C 0.73215 0.65254 0.06632 0.0
C94 C 0.69979 0.63981 0.08509 0.0
N95 N 0.73002 0.6847 0.08096 0.0
C96 C 0.7414 0.67836 0.07005 0.0
C97 C 0.70957 0.66583 0.08852 0.0
C98 C 0.71117 0.63318 0.0739 0.0
C99 C 0.7905 0.79971 0.1113 0.0
N100 N 0.80327 0.79786 0.0994 0.0
C101 C 0.80297 0.80785 0.12475 0.0
C102 C 0.82871 0.81416 0.12598 0.0
C103 C 0.84162 0.81229 0.11379 0.0
C104 C 0.82852 0.80404 0.10052 0.0
C105 C 0.84208 0.86005 0.06844 0.0
C106 C 0.82196 0.81017 0.05803 0.0
C107 C 0.82231 0.83907 0.07587 0.0
N108 N 0.81263 0.8145 0.07069 0.0
C109 C 0.84172 0.83068 0.05031 0.0
C110 C 0.85183 0.85577 0.05559 0.0
C111 C 0.75444 0.75006 0.05696 0.0
C112 C 0.67651 0.72285 0.09668 0.0
C113 C 0.69327 0.70467 0.07382 0.0
C114 C 0.66865 0.70185 0.07327 0.0
C115 C 0.66026 0.71103 0.08479 0.0
N116 N 0.70906 0.71623 0.08553 0.0
C117 C 0.70099 0.72531 0.09686 0.0
Co118 Co 0.26678 0.01952 0.083 0.0
Co119 Co 0.33255 0.04742 0.08696 0.0
O120 O 0.29715 0.02253 0.09261 0.0
C121 C 0.25304 0.96412 0.08035 0.0
O122 O 0.27246 0.97062 0.07139 0.0
C123 C 0.32928 0.05712 0.11809 0.0
O124 O 0.30818 0.05746 0.11459 0.0
O125 O 0.32517 0.07638 0.08734 0.0
O126 O 0.28383 0.05774 0.08009 0.0
H127 H 0.40178 0.12108 0.05818 0.0
H128 H 0.2612 0.99532 0.11204 0.0
O129 O 0.24874 0.98116 0.08589 0.0
H130 H 0.23051 0.0574 0.11856 0.0
H131 H 0.17109 0.98239 0.07619 0.0
H132 H 0.25765 0.04267 0.05665 0.0
H133 H 0.24545 0.05177 0.09448 0.0
H134 H 0.21015 0.98771 0.0885 0.0
O135 O 0.34223 0.05357 0.10821 0.0
H136 H 0.35696 0.0894 0.06504 0.0
H137 H 0.38405 0.05866 0.09787 0.0
H138 H 0.21913 0.03811 0.04407 0.0
H139 H 0.24616 0.00015 0.13627 0.0
H140 H 0.17546 0.00779 0.05384 0.0
H141 H 0.23078 0.03146 0.13966 0.0
O142 O 0.28004 0.0163 0.06375 0.0
H143 H 0.33065 0.96806 0.10666 0.0
H144 H 0.35815 0.0297 0.06568 0.0
H145 H 0.36669 0.99342 0.06473 0.0
H146 H 0.35296 0.96232 0.08534 0.0
H147 H 0.32232 0.00451 0.10711 0.0
H148 H 0.42918 0.09016 0.09146 0.0
H149 H 0.43826 0.12158 0.07144 0.0
O150 O 0.3232 0.04169 0.06563 0.0
C151 C 0.30551 0.07759 0.08312 0.0
C152 C 0.39807 0.10742 0.06688 0.0
C153 C 0.41345 0.09009 0.08558 0.0
N154 N 0.36793 0.07206 0.08174 0.0
C155 C 0.37274 0.08939 0.07078 0.0
C156 C 0.38787 0.07234 0.08918 0.0
C157 C 0.41853 0.10771 0.07434 0.0
C158 C 0.25423 0.00875 0.11338 0.0
N159 N 0.2541 0.02315 0.10183 0.0
C160 C 0.24586 0.01149 0.12715 0.0
C161 C 0.23728 0.0291 0.12905 0.0
C162 C 0.23715 0.04368 0.11721 0.0
C163 C 0.2457 0.04045 0.10361 0.0
C164 C 0.19002 0.99572 0.07185 0.0
C165 C 0.23872 0.02958 0.06103 0.0
C166 C 0.2122 0.99879 0.07876 0.0
N167 N 0.23616 0.01569 0.07338 0.0
C168 C 0.21698 0.02702 0.05383 0.0
C169 C 0.19248 0.00998 0.05931 0.0
C170 C 0.30264 0.02796 0.05821 0.0
C171 C 0.33679 0.98152 0.09763 0.0
C172 C 0.35205 0.01621 0.07467 0.0
C173 C 0.35699 0.99573 0.07408 0.0
C174 C 0.34928 0.9783 0.08566 0.0
N175 N 0.33988 0.01929 0.08648 0.0
C176 C 0.3322 0.00224 0.09784 0.0
Co177 Co 0.26145 0.02505 0.92561 0.0
Co178 Co 0.30301 0.00221 0.91957 0.0
O179 O 0.28921 0.02478 0.9146 0.0
C180 C 0.30072 0.08107 0.92458 0.0
O181 O 0.31816 0.07578 0.92956 0.0
C182 C 0.28966 0.99223 0.88839 0.0
O183 O 0.2673 0.98984 0.89195 0.0
O184 O 0.26776 0.9713 0.91932 0.0
O185 O 0.24407 0.98699 0.92914 0.0
H186 H 0.30648 0.93122 0.94698 0.0
H187 H 0.27393 0.04818 0.89603 0.0
O188 O 0.27767 0.06303 0.92231 0.0
H189 H 0.18288 0.97877 0.89352 0.0
H190 H 0.19615 0.05281 0.93579 0.0
H191 H 0.23428 0.00123 0.9533 0.0
H192 H 0.20727 0.98786 0.91654 0.0
H193 H 0.2305 0.05124 0.92172 0.0
O194 O 0.30663 0.99718 0.89821 0.0
H195 H 0.28944 0.96012 0.94097 0.0
H196 H 0.34592 0.99588 0.90772 0.0
H197 H 0.19983 0.0021 0.96766 0.0
H198 H 0.25015 0.03993 0.87282 0.0
H199 H 0.18052 0.02803 0.95891 0.0
H200 H 0.20432 0.00493 0.87146 0.0
O201 O 0.2814 0.0315 0.94393 0.0
H202 H 0.37536 0.08548 0.89979 0.0
H203 H 0.34748 0.0228 0.94026 0.0
H204 H 0.39077 0.06163 0.94097 0.0
H205 H 0.40498 0.09327 0.92061 0.0
H206 H 0.33214 0.04648 0.89958 0.0
H207 H 0.36344 0.96722 0.91327 0.0
H208 H 0.34374 0.93468 0.93308 0.0
O209 O 0.29965 0.00678 0.9411 0.0
C210 C 0.2469 0.96825 0.92489 0.0
C211 C 0.31528 0.94538 0.93836 0.0
C212 C 0.34723 0.96556 0.91943 0.0
N213 N 0.31684 0.97981 0.92411 0.0
C214 C 0.30577 0.96185 0.93495 0.0
C215 C 0.3372 0.9817 0.91632 0.0
C216 C 0.33618 0.94732 0.93055 0.0
C217 C 0.2539 0.03312 0.89556 0.0
N218 N 0.242 0.01858 0.90764 0.0
C219 C 0.24057 0.02845 0.88238 0.0
C220 C 0.21487 0.00878 0.88161 0.0
C221 C 0.20284 0.99408 0.89398 0.0
C222 C 0.21678 0.99927 0.90698 0.0
C223 C 0.20437 0.0414 0.9397 0.0
C224 C 0.22586 0.01244 0.94938 0.0
C225 C 0.22386 0.04047 0.93179 0.0
N226 N 0.23422 0.02598 0.93662 0.0
C227 C 0.20641 0.01291 0.95758 0.0
C228 C 0.1956 0.02748 0.95267 0.0
C229 C 0.29333 0.02047 0.94893 0.0
C230 C 0.36942 0.0718 0.9087 0.0
C231 C 0.35349 0.03652 0.93138 0.0
C232 C 0.37805 0.05844 0.93183 0.0
C233 C 0.38601 0.07617 0.9204 0.0
N234 N 0.33735 0.03233 0.91985 0.0
C235 C 0.34501 0.04964 0.90862 0.0
Co236 Co 0.02261 0.26136 0.92315 0.0
Co237 Co 0.04805 0.32718 0.92012 0.0
O238 O 0.02423 0.2916 0.91407 0.0
C239 C 0.96739 0.24765 0.92543 0.0
O240 O 0.97442 0.26958 0.93216 0.0
C241 C 0.0588 0.32562 0.88895 0.0
O242 O 0.05961 0.30463 0.8921 0.0
O243 O 0.07813 0.32143 0.91986 0.0
O244 O 0.06089 0.27944 0.92531 0.0
H245 H 0.11947 0.3971 0.94978 0.0
H246 H 0.997 0.25617 0.89467 0.0
O247 O 0.98424 0.24211 0.92103 0.0
H248 H 0.06024 0.22768 0.88576 0.0
H249 H 0.98906 0.16601 0.92897 0.0
H250 H 0.0481 0.25287 0.94857 0.0
H251 H 0.05514 0.24132 0.91033 0.0
H252 H 0.99218 0.20468 0.91733 0.0
O253 O 0.05454 0.33775 0.89902 0.0
H254 H 0.08931 0.35215 0.94239 0.0
H255 H 0.05739 0.37838 0.90976 0.0
H256 H 0.04575 0.21474 0.96047 0.0
H257 H 0.00126 0.24243 0.86993 0.0
H258 H 0.01606 0.17093 0.95066 0.0
H259 H 0.03316 0.22818 0.86534 0.0
O260 O 0.01945 0.27362 0.9428 0.0
H261 H 0.9676 0.32238 0.9 0.0
H262 H 0.0281 0.35052 0.94154 0.0
H263 H 0.99055 0.35709 0.9424 0.0
H264 H 0.96002 0.34301 0.9215 0.0
H265 H 0.0053 0.31602 0.89964 0.0
H266 H 0.08736 0.42364 0.91671 0.0
H267 H 0.1186 0.43322 0.9369 0.0
O268 O 0.04202 0.31704 0.94125 0.0
C269 C 0.08024 0.30182 0.92306 0.0
C270 C 0.10588 0.39317 0.94101 0.0
C271 C 0.08788 0.40807 0.92243 0.0
N272 N 0.07146 0.36266 0.92576 0.0
C273 C 0.0887 0.36776 0.93681 0.0
C274 C 0.071 0.38242 0.91853 0.0
C275 C 0.1054 0.41343 0.93376 0.0
C276 C 0.01073 0.24974 0.89278 0.0
N277 N 0.0258 0.24954 0.90394 0.0
C278 C 0.01313 0.24208 0.87875 0.0
C279 C 0.03107 0.23413 0.87617 0.0
C280 C 0.04629 0.23387 0.88762 0.0
C281 C 0.04338 0.2417 0.90151 0.0
C282 C 0.00211 0.18501 0.93333 0.0
C283 C 0.03525 0.23387 0.94419 0.0
C284 C 0.00392 0.20697 0.9268 0.0
N285 N 0.02046 0.23102 0.93221 0.0
C286 C 0.03395 0.21235 0.951 0.0
C287 C 0.01727 0.18778 0.9455 0.0
C288 C 0.02959 0.29607 0.94851 0.0
C289 C 0.98081 0.32866 0.90915 0.0
C290 C 0.01486 0.34429 0.93242 0.0
C291 C 0.99367 0.3481 0.93296 0.0
C292 C 0.97655 0.34021 0.92123 0.0
N293 N 0.01895 0.33302 0.92051 0.0
C294 C 0.00223 0.32519 0.90899 0.0
Co295 Co 0.78785 0.78229 0.92254 0.0
Co296 Co 0.72197 0.74446 0.91872 0.0
O297 O 0.75732 0.7547 0.91312 0.0
C298 C 0.79914 0.73926 0.92529 0.0
O299 O 0.77779 0.72603 0.93284 0.0
C300 C 0.72506 0.75673 0.88746 0.0
O301 O 0.74632 0.7782 0.89074 0.0
O302 O 0.72953 0.78087 0.9181 0.0
O303 O 0.77113 0.80386 0.9248 0.0
H304 H 0.65304 0.74986 0.94723 0.0
H305 H 0.79314 0.76217 0.89394 0.0
O306 O 0.80555 0.76157 0.92032 0.0
H307 H 0.82474 0.8548 0.8859 0.0
H308 H 0.88362 0.84051 0.92924 0.0
H309 H 0.79718 0.81586 0.9483 0.0
H310 H 0.80974 0.83542 0.91024 0.0
H311 H 0.84445 0.80642 0.91717 0.0
O312 O 0.71221 0.74055 0.8975 0.0
H313 H 0.69779 0.76266 0.9404 0.0
H314 H 0.67034 0.7041 0.90798 0.0
H315 H 0.83582 0.8502 0.96063 0.0
H316 H 0.8082 0.78084 0.86946 0.0
H317 H 0.87942 0.86273 0.95109 0.0
H318 H 0.82404 0.82745 0.8653 0.0
O319 O 0.7745 0.76665 0.94201 0.0
H320 H 0.72342 0.66643 0.89961 0.0
H321 H 0.69622 0.70152 0.94024 0.0
H322 H 0.68748 0.65664 0.9415 0.0
H323 H 0.70107 0.63881 0.92107 0.0
H324 H 0.73194 0.71128 0.89885 0.0
H325 H 0.62528 0.6908 0.91436 0.0
H326 H 0.61642 0.71368 0.93417 0.0
O327 O 0.73131 0.74837 0.94002 0.0
C328 C 0.7494 0.80198 0.92187 0.0
C329 C 0.65666 0.73967 0.93862 0.0
C330 C 0.64108 0.70655 0.92016 0.0
N331 N 0.68664 0.73397 0.92391 0.0
C332 C 0.68194 0.74678 0.93475 0.0
C333 C 0.66662 0.71419 0.91658 0.0
C334 C 0.63612 0.71939 0.93128 0.0
C335 C 0.80029 0.78254 0.89226 0.0
N336 N 0.80066 0.7977 0.90352 0.0
C337 C 0.80868 0.79297 0.87836 0.0
C338 C 0.81752 0.81911 0.87602 0.0
C339 C 0.81789 0.83447 0.88757 0.0
C340 C 0.80932 0.82337 0.90133 0.0
C341 C 0.86472 0.83527 0.93347 0.0
C342 C 0.81608 0.82133 0.94403 0.0
C343 C 0.84248 0.81596 0.9267 0.0
N344 N 0.81855 0.80934 0.93195 0.0
C345 C 0.83789 0.84073 0.95108 0.0
C346 C 0.86235 0.84773 0.94573 0.0
C347 C 0.75185 0.75556 0.9475 0.0
C348 C 0.71734 0.67396 0.90857 0.0
C349 C 0.70225 0.69392 0.93132 0.0
C350 C 0.6972 0.66848 0.93209 0.0
C351 C 0.70482 0.65848 0.92062 0.0
N352 N 0.71445 0.70895 0.91944 0.0
C353 C 0.72204 0.69931 0.90817 0.0
Co354 Co 0.01884 0.78311 0.92398 0.0
Co355 Co 0.04558 0.74358 0.9203 0.0
O356 O 0.02053 0.75435 0.91488 0.0
C357 C 0.96353 0.73932 0.92278 0.0
O358 O 0.97056 0.72254 0.91916 0.0
C359 C 0.05444 0.75585 0.88892 0.0
O360 O 0.05382 0.77694 0.89207 0.0
O361 O 0.07496 0.77974 0.91986 0.0
O362 O 0.05724 0.80445 0.92408 0.0
H363 H 0.11936 0.74749 0.94867 0.0
H364 H 0.98967 0.75959 0.89668 0.0
O365 O 0.98011 0.76311 0.92454 0.0
H366 H 0.04822 0.85131 0.88489 0.0
H367 H 0.98394 0.84347 0.93143 0.0
H368 H 0.04765 0.81951 0.94795 0.0
H369 H 0.04756 0.83476 0.90962 0.0
H370 H 0.9863 0.80756 0.91972 0.0
O371 O 0.05158 0.73996 0.89904 0.0
H372 H 0.08786 0.76095 0.94199 0.0
H373 H 0.05616 0.70287 0.90931 0.0
H374 H 0.04611 0.85569 0.95988 0.0
H375 H 0.98949 0.77537 0.87187 0.0
H376 H 0.01407 0.86788 0.95163 0.0
H377 H 0.019 0.82153 0.86581 0.0
O378 O 0.01904 0.76951 0.94369 0.0
H379 H 0.96778 0.66521 0.89993 0.0
H380 H 0.02695 0.70064 0.94192 0.0
H381 H 0.99106 0.65561 0.94271 0.0
H382 H 0.96123 0.63759 0.92158 0.0
H383 H 0.00363 0.71029 0.89971 0.0
H384 H 0.08744 0.6889 0.91555 0.0
H385 H 0.11927 0.71122 0.9354 0.0
O386 O 0.04021 0.74733 0.94161 0.0
C387 C 0.07675 0.80159 0.92211 0.0
C388 C 0.10552 0.73755 0.94004 0.0
C389 C 0.08763 0.70469 0.92144 0.0
N390 N 0.07003 0.73253 0.92538 0.0
C391 C 0.08758 0.74502 0.93625 0.0
C392 C 0.06999 0.7127 0.91794 0.0
C393 C 0.10548 0.71722 0.93258 0.0
C394 C 0.00229 0.77976 0.89422 0.0
N395 N 0.01841 0.79625 0.90466 0.0
C396 C 0.00222 0.78856 0.88011 0.0
C397 C 0.01882 0.81445 0.87671 0.0
C398 C 0.03523 0.83117 0.88741 0.0
C399 C 0.0348 0.82166 0.90139 0.0
C400 C 0.99802 0.83838 0.93511 0.0
C401 C 0.03377 0.82481 0.94424 0.0
C402 C 0.99942 0.81804 0.92854 0.0
N403 N 0.01725 0.81159 0.93307 0.0
C404 C 0.03294 0.84526 0.95106 0.0
C405 C 0.01494 0.85207 0.94643 0.0
C406 C 0.0289 0.75678 0.94914 0.0
C407 C 0.98067 0.67283 0.90919 0.0
C408 C 0.01389 0.69304 0.93275 0.0
C409 C 0.99368 0.66748 0.93322 0.0
C410 C 0.97698 0.65736 0.92136 0.0
N411 N 0.01736 0.70812 0.92079 0.0
C412 C 0.0011 0.69831 0.9091 0.0
Co413 Co 0.2678 0.26592 0.92333 0.0
Co414 Co 0.30791 0.33143 0.91996 0.0
O415 O 0.29591 0.29592 0.91386 0.0
C416 C 0.30831 0.25068 0.92447 0.0
O417 O 0.32284 0.27095 0.93258 0.0
C418 C 0.29563 0.33003 0.88877 0.0
O419 O 0.27357 0.30943 0.89203 0.0
O420 O 0.27216 0.32572 0.91957 0.0
O421 O 0.2483 0.28451 0.92687 0.0
H422 H 0.30683 0.4015 0.94968 0.0
H423 H 0.28502 0.26007 0.89394 0.0
O424 O 0.2864 0.24638 0.91987 0.0
H425 H 0.1932 0.23418 0.88826 0.0
H426 H 0.20551 0.17074 0.92929 0.0
H427 H 0.23644 0.25746 0.95001 0.0
H428 H 0.21441 0.24751 0.91228 0.0
H429 H 0.24032 0.20936 0.91718 0.0
O430 O 0.3122 0.34201 0.8988 0.0
H431 H 0.2918 0.35651 0.94226 0.0
H432 H 0.34994 0.38254 0.90963 0.0
H433 H 0.20145 0.21939 0.9624 0.0
H434 H 0.26447 0.24658 0.86975 0.0
H435 H 0.18576 0.17564 0.95203 0.0
H436 H 0.21827 0.23363 0.86678 0.0
O437 O 0.28492 0.2779 0.94255 0.0
H438 H 0.38343 0.32613 0.90008 0.0
H439 H 0.35109 0.35461 0.94147 0.0
H440 H 0.39511 0.36094 0.94244 0.0
H441 H 0.41156 0.34669 0.92162 0.0
H442 H 0.33946 0.32001 0.89961 0.0
H443 H 0.36547 0.42784 0.9166 0.0
H444 H 0.34393 0.43753 0.93681 0.0
O445 O 0.30358 0.32121 0.94123 0.0
C446 C 0.251 0.30658 0.92394 0.0
C447 C 0.31644 0.39752 0.9409 0.0
C448 C 0.34933 0.4123 0.92232 0.0
N449 N 0.32014 0.36693 0.92562 0.0
C450 C 0.30807 0.37209 0.93668 0.0
C451 C 0.34042 0.38663 0.9184 0.0
C452 C 0.33724 0.41773 0.93366 0.0
C453 C 0.26482 0.25415 0.89277 0.0
N454 N 0.25092 0.25448 0.90453 0.0
C455 C 0.25333 0.24665 0.87903 0.0
C456 C 0.22741 0.23943 0.87737 0.0
C457 C 0.21334 0.23977 0.88941 0.0
C458 C 0.22548 0.2474 0.90299 0.0
C459 C 0.21213 0.1897 0.93389 0.0
C460 C 0.22958 0.2385 0.94537 0.0
C461 C 0.23186 0.21164 0.92709 0.0
N462 N 0.24021 0.23566 0.9328 0.0
C463 C 0.20983 0.21701 0.95246 0.0
C464 C 0.20105 0.19247 0.94665 0.0
C465 C 0.29629 0.30028 0.94838 0.0
C466 C 0.37651 0.33248 0.9092 0.0
C467 C 0.35809 0.34831 0.93239 0.0
C468 C 0.38305 0.35198 0.93299 0.0
C469 C 0.39227 0.34399 0.9213 0.0
N470 N 0.34279 0.33708 0.92046 0.0
C471 C 0.35167 0.32915 0.90897 0.0
Co472 Co 0.78729 0.02984 0.9215 0.0
Co473 Co 0.72059 0.00019 0.92146 0.0
O474 O 0.75484 0.02623 0.91455 0.0
C475 C 0.80109 0.08418 0.9295 0.0
O476 O 0.78548 0.07592 0.94077 0.0
C477 C 0.7208 0.99142 0.8899 0.0
O478 O 0.74384 0.99442 0.89194 0.0
O479 O 0.72928 0.97211 0.92031 0.0
O480 O 0.77248 0.99166 0.92174 0.0
H481 H 0.65758 0.9264 0.95274 0.0
H482 H 0.78705 0.05833 0.89503 0.0
O483 O 0.80314 0.0684 0.92102 0.0
H484 H 0.82254 0.00361 0.879 0.0
H485 H 0.88419 0.07166 0.92335 0.0
H486 H 0.8018 0.00339 0.94378 0.0
H487 H 0.81 0.00324 0.90467 0.0
H488 H 0.84272 0.06576 0.91433 0.0
O489 O 0.70796 0.99271 0.90066 0.0
H490 H 0.70081 0.95922 0.94408 0.0
H491 H 0.66703 0.98611 0.91297 0.0
H492 H 0.84282 0.00848 0.95303 0.0
H493 H 0.79971 0.0596 0.8693 0.0
H494 H 0.8844 0.04282 0.9428 0.0
H495 H 0.81747 0.03199 0.86112 0.0
O496 O 0.77636 0.02837 0.94215 0.0
H497 H 0.71574 0.07667 0.90278 0.0
H498 H 0.69643 0.01703 0.94419 0.0
H499 H 0.68592 0.05191 0.94604 0.0
H500 H 0.69552 0.08198 0.92521 0.0
H501 H 0.72613 0.04166 0.90145 0.0
H502 H 0.62342 0.95344 0.92122 0.0
H503 H 0.61852 0.92337 0.94128 0.0
O504 O 0.73286 0.00719 0.94224 0.0
C505 C 0.75024 0.97146 0.921 0.0
C506 C 0.65947 0.93945 0.94402 0.0
C507 C 0.6403 0.9546 0.92631 0.0
N508 N 0.68641 0.97467 0.92812 0.0
C509 C 0.68389 0.95812 0.9391 0.0
C510 C 0.66503 0.97301 0.92167 0.0
C511 C 0.63756 0.93774 0.93758 0.0
C512 C 0.79505 0.04649 0.8916 0.0
N513 N 0.79784 0.03078 0.90136 0.0
C514 C 0.80208 0.0472 0.87699 0.0
C515 C 0.812 0.03167 0.87241 0.0
C516 C 0.81481 0.01572 0.88243 0.0
C517 C 0.80759 0.01552 0.89695 0.0
C518 C 0.86619 0.05659 0.92787 0.0
C519 C 0.8198 0.01827 0.9392 0.0
C520 C 0.84265 0.05319 0.92283 0.0
N521 N 0.81985 0.03411 0.92845 0.0
C522 C 0.84298 0.0211 0.94451 0.0
C523 C 0.8663 0.0404 0.93878 0.0
C524 C 0.75468 0.01841 0.94879 0.0
C525 C 0.7114 0.06365 0.91192 0.0
C526 C 0.70076 0.03011 0.93511 0.0
C527 C 0.69471 0.04978 0.9362 0.0
C528 C 0.70008 0.06663 0.92451 0.0
N529 N 0.71177 0.02725 0.92269 0.0
C530 C 0.71717 0.04374 0.91121 0.0
Co531 Co 0.78499 0.01979 0.08625 0.0
Co532 Co 0.74686 0.0481 0.08647 0.0
O533 O 0.75629 0.02314 0.09359 0.0
C534 C 0.74259 0.96536 0.08112 0.0
O535 O 0.73172 0.97332 0.07158 0.0
C536 C 0.7581 0.05968 0.11767 0.0
O537 O 0.77932 0.05903 0.11501 0.0
O538 O 0.78345 0.07694 0.08685 0.0
O539 O 0.80755 0.05796 0.0849 0.0
H540 H 0.75383 0.11944 0.05435 0.0
H541 H 0.75862 0.99362 0.1137 0.0
O542 O 0.76319 0.98135 0.08775 0.0
H543 H 0.84971 0.05119 0.12729 0.0
H544 H 0.84191 0.98005 0.08436 0.0
H545 H 0.82389 0.04497 0.06279 0.0
H546 H 0.83556 0.04851 0.10175 0.0
H547 H 0.8064 0.98564 0.09382 0.0
O548 O 0.74244 0.05613 0.10727 0.0
H549 H 0.76586 0.08789 0.06318 0.0
H550 H 0.70691 0.06126 0.09536 0.0
H551 H 0.85973 0.04016 0.05308 0.0
H552 H 0.77197 0.99551 0.13935 0.0
H553 H 0.86893 0.0075 0.06389 0.0
H554 H 0.81779 0.02455 0.14629 0.0
O555 O 0.77361 0.01906 0.06574 0.0
H556 H 0.66759 0.97123 0.10678 0.0
H557 H 0.70464 0.02923 0.06441 0.0
H558 H 0.65957 0.99342 0.06339 0.0
H559 H 0.64075 0.96417 0.0847 0.0
H560 H 0.71265 0.00715 0.10728 0.0
H561 H 0.69437 0.09266 0.08695 0.0
H562 H 0.71785 0.12196 0.06626 0.0
O563 O 0.75136 0.04033 0.06571 0.0
C564 C 0.80518 0.07795 0.08559 0.0
C565 C 0.7434 0.10672 0.06334 0.0
C566 C 0.71005 0.09172 0.08166 0.0
N567 N 0.73697 0.07264 0.07969 0.0
C568 C 0.75008 0.08877 0.06836 0.0
C569 C 0.71727 0.07403 0.08639 0.0
C570 C 0.72323 0.10814 0.07004 0.0
C571 C 0.77865 0.0061 0.11661 0.0
N572 N 0.7963 0.02091 0.10623 0.0
C573 C 0.78607 0.00717 0.13116 0.0
C574 C 0.81177 0.0235 0.13505 0.0
C575 C 0.82968 0.03847 0.1244 0.0
C576 C 0.82155 0.03693 0.10996 0.0
C577 C 0.83813 0.99438 0.07958 0.0
C578 C 0.82789 0.03084 0.06761 0.0
C579 C 0.81801 0.9976 0.08487 0.0
N580 N 0.81321 0.01576 0.07894 0.0
C581 C 0.84816 0.02815 0.06204 0.0
C582 C 0.85329 0.0098 0.0681 0.0
C583 C 0.76148 0.02865 0.05916 0.0
C584 C 0.67556 0.98389 0.09744 0.0
C585 C 0.69662 0.01652 0.0737 0.0
C586 C 0.67107 0.99632 0.07308 0.0
C587 C 0.66051 0.97992 0.08504 0.0
N588 N 0.71122 0.02034 0.08592 0.0
C589 C 0.70103 0.0043 0.09768 0.0
Co590 Co 0.02811 0.78913 0.08387 0.0
Co591 Co 0.00275 0.72336 0.08719 0.0
O592 O 0.0266 0.75905 0.09317 0.0
C593 C 0.08355 0.80316 0.08248 0.0
O594 O 0.07692 0.78089 0.07628 0.0
C595 C 0.99331 0.72521 0.11857 0.0
O596 O 0.99412 0.74714 0.11587 0.0
O597 O 0.97271 0.72908 0.08766 0.0
O598 O 0.98983 0.77073 0.08145 0.0
H599 H 0.93098 0.65346 0.05771 0.0
H600 H 0.05369 0.79549 0.11249 0.0
O601 O 0.06642 0.80874 0.0862 0.0
H602 H 0.98933 0.8228 0.12054 0.0
H603 H 0.06075 0.88424 0.07759 0.0
H604 H 0.00295 0.797 0.05807 0.0
H605 H 0.99468 0.80851 0.09621 0.0
H606 H 0.05786 0.84591 0.08953 0.0
O607 O 0.99626 0.71259 0.10827 0.0
H608 H 0.96123 0.69841 0.06508 0.0
H609 H 0.9936 0.67213 0.09741 0.0
H610 H 0.00509 0.83479 0.04586 0.0
H611 H 0.04925 0.81 0.13696 0.0
H612 H 0.03415 0.8788 0.05562 0.0
H613 H 0.01678 0.82366 0.14113 0.0
O614 O 0.03186 0.77679 0.06438 0.0
H615 H 0.08346 0.72837 0.10702 0.0
H616 H 0.02256 0.70003 0.06566 0.0
H617 H 0.06018 0.69358 0.06466 0.0
H618 H 0.09091 0.70776 0.08546 0.0
H619 H 0.04569 0.73462 0.10752 0.0
H620 H 0.96356 0.62688 0.09048 0.0
H621 H 0.93204 0.61733 0.07045 0.0
O622 O 0.00856 0.73343 0.06602 0.0
C623 C 0.97052 0.74847 0.08406 0.0
C624 C 0.9447 0.65738 0.06641 0.0
C625 C 0.96296 0.64246 0.08482 0.0
N626 N 0.97932 0.68787 0.08156 0.0
C627 C 0.96193 0.68279 0.0706 0.0
C628 C 0.97988 0.66811 0.08871 0.0
C629 C 0.94528 0.63711 0.07358 0.0
C630 C 0.03973 0.80168 0.11417 0.0
N631 N 0.02446 0.80113 0.10292 0.0
C632 C 0.03721 0.80976 0.12807 0.0
C633 C 0.01896 0.81738 0.13041 0.0
C634 C 0.00353 0.81686 0.11887 0.0
C635 C 0.00656 0.80863 0.10513 0.0
C636 C 0.04798 0.86516 0.07325 0.0
C637 C 0.01554 0.81608 0.06243 0.0
C638 C 0.0463 0.84339 0.07994 0.0
N639 N 0.03011 0.81922 0.07456 0.0
C640 C 0.01671 0.83741 0.05545 0.0
C641 C 0.03304 0.86209 0.06092 0.0
C642 C 0.02137 0.7543 0.05871 0.0
C643 C 0.07016 0.72204 0.09791 0.0
C644 C 0.03588 0.7063 0.07474 0.0
C645 C 0.05712 0.70256 0.07412 0.0
C646 C 0.07435 0.71051 0.0858 0.0
N647 N 0.03187 0.71756 0.08668 0.0
C648 C 0.0487 0.72545 0.09815 0.0
Co649 Co 0.26023 0.26166 0.08298 0.0
Co650 Co 0.3261 0.30109 0.08667 0.0
O651 O 0.29043 0.28995 0.09237 0.0
C652 C 0.24716 0.30376 0.08094 0.0
O653 O 0.26934 0.31891 0.07451 0.0
C654 C 0.32338 0.2901 0.1182 0.0
O655 O 0.30123 0.26924 0.11551 0.0
O656 O 0.31958 0.26503 0.08731 0.0
O657 O 0.27793 0.24102 0.08096 0.0
H658 H 0.39571 0.2975 0.05786 0.0
H659 H 0.25402 0.28167 0.11137 0.0
O660 O 0.24131 0.2811 0.08496 0.0
H661 H 0.22409 0.18951 0.11991 0.0
H662 H 0.16491 0.20083 0.07613 0.0
H663 H 0.25218 0.2281 0.05741 0.0
H664 H 0.23921 0.20876 0.09556 0.0
H665 H 0.20338 0.23585 0.0882 0.0
O666 O 0.33641 0.30532 0.10785 0.0
H667 H 0.35082 0.28369 0.06489 0.0
H668 H 0.37748 0.3425 0.09714 0.0
H669 H 0.21423 0.19283 0.04508 0.0
H670 H 0.23868 0.26313 0.13584 0.0
H671 H 0.17022 0.17898 0.05444 0.0
H672 H 0.2237 0.21676 0.14026 0.0
O673 O 0.27323 0.27745 0.06347 0.0
H674 H 0.32241 0.37784 0.10594 0.0
H675 H 0.35068 0.34413 0.06512 0.0
H676 H 0.35809 0.38854 0.06389 0.0
H677 H 0.34395 0.40568 0.08442 0.0
H678 H 0.31521 0.33347 0.10666 0.0
H679 H 0.42268 0.35683 0.09055 0.0
H680 H 0.43201 0.33432 0.07073 0.0
O681 O 0.31651 0.29696 0.06541 0.0
C682 C 0.29997 0.24357 0.08376 0.0
C683 C 0.39189 0.30752 0.06647 0.0
C684 C 0.40703 0.3408 0.08483 0.0
N685 N 0.36155 0.31244 0.08131 0.0
C686 C 0.36652 0.29985 0.07046 0.0
C687 C 0.38141 0.33258 0.08854 0.0
C688 C 0.41225 0.32817 0.07371 0.0
C689 C 0.24727 0.26141 0.11316 0.0
N690 N 0.24757 0.24633 0.10204 0.0
C691 C 0.23871 0.25105 0.12706 0.0
C692 C 0.23036 0.22504 0.12954 0.0
C693 C 0.23061 0.20976 0.11813 0.0
C694 C 0.23933 0.22079 0.10438 0.0
C695 C 0.18399 0.20665 0.07197 0.0
C696 C 0.23309 0.22207 0.0616 0.0
C697 C 0.20585 0.22651 0.07874 0.0
N698 N 0.23001 0.23388 0.07358 0.0
C699 C 0.21168 0.20214 0.05455 0.0
C700 C 0.18698 0.1944 0.0598 0.0
C701 C 0.29585 0.2892 0.05795 0.0
C702 C 0.32872 0.37062 0.09694 0.0
C703 C 0.34442 0.35143 0.07408 0.0
C704 C 0.34871 0.37661 0.07334 0.0
C705 C 0.34078 0.38622 0.08486 0.0
N706 N 0.33265 0.33628 0.08599 0.0
C707 C 0.32478 0.34554 0.09731 0.0
Co708 Co 0.69712 0.60448 0.4173 0.0
Co709 Co 0.66705 0.64081 0.41946 0.0
O710 O 0.69299 0.63207 0.42567 0.0
C711 C 0.75188 0.6467 0.41206 0.0
O712 O 0.74445 0.65682 0.40176 0.0
C713 C 0.65722 0.62867 0.45065 0.0
O714 O 0.658 0.60766 0.44752 0.0
O715 O 0.63901 0.60399 0.41994 0.0
O716 O 0.65896 0.58129 0.4157 0.0
H717 H 0.59263 0.63208 0.38959 0.0
H718 H 0.72263 0.62863 0.44531 0.0
O719 O 0.73552 0.62681 0.41911 0.0
H720 H 0.66662 0.53609 0.45635 0.0
H721 H 0.73877 0.54953 0.41278 0.0
H722 H 0.67283 0.56759 0.39284 0.0
H723 H 0.66922 0.55246 0.43134 0.0
H724 H 0.73216 0.58356 0.42358 0.0
O725 O 0.6601 0.64456 0.44053 0.0
H726 H 0.62551 0.62103 0.39718 0.0
H727 H 0.65337 0.67984 0.42947 0.0
H728 H 0.67864 0.53322 0.3818 0.0
H729 H 0.72083 0.61306 0.47044 0.0
H730 H 0.71182 0.524 0.39178 0.0
H731 H 0.69257 0.5665 0.47611 0.0
O732 O 0.6978 0.61764 0.39725 0.0
H733 H 0.74386 0.72086 0.43912 0.0
H734 H 0.68373 0.68325 0.39767 0.0
H735 H 0.71864 0.72873 0.39653 0.0
H736 H 0.74896 0.74783 0.41738 0.0
H737 H 0.70879 0.6754 0.43976 0.0
H738 H 0.62065 0.69141 0.42232 0.0
H739 H 0.59006 0.66751 0.4022 0.0
O740 O 0.67366 0.63691 0.3984 0.0
C741 C 0.63861 0.58281 0.4175 0.0
C742 C 0.60592 0.64271 0.39833 0.0
C743 C 0.62162 0.67598 0.41672 0.0
N744 N 0.64149 0.64996 0.41365 0.0
C745 C 0.62463 0.6366 0.40264 0.0
C746 C 0.64007 0.66932 0.42073 0.0
C747 C 0.60447 0.66257 0.40543 0.0
C748 C 0.71049 0.6083 0.44765 0.0
N749 N 0.69605 0.59147 0.43685 0.0
C750 C 0.70947 0.59961 0.46192 0.0
C751 C 0.69358 0.57349 0.4651 0.0
C752 C 0.67899 0.55643 0.45402 0.0
C753 C 0.68047 0.56582 0.43988 0.0
C754 C 0.72422 0.55332 0.40836 0.0
C755 C 0.68719 0.56358 0.39731 0.0
C756 C 0.72042 0.57261 0.4144 0.0
N757 N 0.70198 0.57742 0.40892 0.0
C758 C 0.69044 0.54414 0.39098 0.0
C759 C 0.70908 0.539 0.39658 0.0
C760 C 0.6866 0.62876 0.39131 0.0
C761 C 0.73072 0.71277 0.42998 0.0
C762 C 0.6969 0.6914 0.40677 0.0
C763 C 0.7166 0.71718 0.40607 0.0
C764 C 0.73359 0.72789 0.41777 0.0
N765 N 0.69415 0.67674 0.41881 0.0
C766 C 0.71078 0.68707 0.43031 0.0
Co767 Co 0.4524 0.1171 0.41763 0.0
Co768 Co 0.40803 0.05229 0.4208 0.0
O769 O 0.42306 0.0882 0.42714 0.0
C770 C 0.41388 0.1347 0.41777 0.0
O771 O 0.39691 0.11252 0.41196 0.0
C772 C 0.42137 0.05224 0.45167 0.0
O773 O 0.44399 0.07196 0.44827 0.0
O774 O 0.44259 0.05481 0.42033 0.0
O775 O 0.46929 0.09613 0.41402 0.0
H776 H 0.40062 0.97961 0.38976 0.0
H777 H 0.43651 0.12468 0.447 0.0
O778 O 0.43646 0.13911 0.42094 0.0
H779 H 0.52624 0.14337 0.45271 0.0
H780 H 0.52027 0.2107 0.41175 0.0
H781 H 0.48273 0.12326 0.39081 0.0
H782 H 0.5049 0.1315 0.42867 0.0
H783 H 0.4838 0.17353 0.42389 0.0
O784 O 0.40413 0.04132 0.44184 0.0
H785 H 0.41958 0.02502 0.39756 0.0
H786 H 0.364 0.00268 0.43146 0.0
H787 H 0.51931 0.15984 0.37836 0.0
H788 H 0.45721 0.13673 0.47123 0.0
H789 H 0.53834 0.20395 0.38884 0.0
H790 H 0.50236 0.14606 0.4742 0.0
O791 O 0.435 0.10624 0.39845 0.0
H792 H 0.33792 0.06449 0.44285 0.0
H793 H 0.36365 0.03245 0.40011 0.0
H794 H 0.32124 0.03 0.40024 0.0
H795 H 0.30812 0.04605 0.42173 0.0
H796 H 0.38025 0.06676 0.44221 0.0
H797 H 0.34458 0.957 0.42412 0.0
H798 H 0.36285 0.94525 0.40308 0.0
O799 O 0.41185 0.06286 0.39965 0.0
C800 C 0.46454 0.07314 0.41626 0.0
C801 C 0.39244 0.9845 0.39891 0.0
C802 C 0.36101 0.9718 0.41821 0.0
N803 N 0.39277 0.01648 0.41488 0.0
C804 C 0.40304 0.01018 0.40335 0.0
C805 C 0.37212 0.99768 0.42234 0.0
C806 C 0.37126 0.96523 0.4064 0.0
C807 C 0.45627 0.12902 0.44818 0.0
N808 N 0.46951 0.12751 0.43643 0.0
C809 C 0.46785 0.13571 0.46194 0.0
C810 C 0.49316 0.14089 0.4636 0.0
C811 C 0.50656 0.13936 0.45155 0.0
C812 C 0.49435 0.13258 0.43797 0.0
C813 C 0.5122 0.19156 0.4071 0.0
C814 C 0.49104 0.14236 0.3955 0.0
C815 C 0.49153 0.17045 0.41392 0.0
N816 N 0.48133 0.1462 0.40815 0.0
C817 C 0.51169 0.16301 0.38837 0.0
C818 C 0.52233 0.18776 0.39425 0.0
C819 C 0.42133 0.08412 0.39256 0.0
C820 C 0.34339 0.05737 0.43343 0.0
C821 C 0.35811 0.03954 0.40949 0.0
C822 C 0.33405 0.03805 0.40951 0.0
C823 C 0.32669 0.04705 0.42158 0.0
N824 N 0.37436 0.04963 0.42117 0.0
C825 C 0.36729 0.05852 0.43304 0.0
Co826 Co 0.9287 0.34884 0.41821 0.0
Co827 Co 0.99535 0.3798 0.41963 0.0
O828 O 0.96095 0.35327 0.4261 0.0
C829 C 0.91599 0.29422 0.41203 0.0
O830 O 0.93288 0.30195 0.40136 0.0
C831 C 0.99382 0.38828 0.45108 0.0
O832 O 0.97082 0.38517 0.44869 0.0
O833 O 0.986 0.40733 0.42068 0.0
O834 O 0.9432 0.387 0.41697 0.0
H835 H 0.05895 0.45517 0.38949 0.0
H836 H 0.92785 0.32228 0.44573 0.0
O837 O 0.91304 0.3104 0.41964 0.0
H838 H 0.89109 0.37745 0.45838 0.0
H839 H 0.83187 0.30621 0.4147 0.0
H840 H 0.91499 0.37337 0.39439 0.0
H841 H 0.90487 0.3762 0.43318 0.0
H842 H 0.87301 0.31309 0.42489 0.0
O843 O 0.00707 0.38701 0.44054 0.0
H844 H 0.01557 0.42163 0.39752 0.0
H845 H 0.04875 0.39428 0.42872 0.0
H846 H 0.87429 0.3673 0.38396 0.0
H847 H 0.91395 0.32265 0.47103 0.0
H848 H 0.83235 0.33351 0.39413 0.0
H849 H 0.89554 0.35049 0.4775 0.0
O850 O 0.94066 0.34886 0.39795 0.0
H851 H 0.00091 0.30373 0.43832 0.0
H852 H 0.0208 0.36397 0.39716 0.0
H853 H 0.03209 0.32963 0.39542 0.0
H854 H 0.0222 0.29926 0.41612 0.0
H855 H 0.98977 0.33823 0.43955 0.0
H856 H 0.09251 0.42766 0.42113 0.0
H857 H 0.0978 0.45833 0.40133 0.0
O858 O 0.98407 0.37326 0.39869 0.0
C859 C 0.965 0.40747 0.41866 0.0
C860 C 0.0569 0.44185 0.39808 0.0
C861 C 0.07573 0.42644 0.41586 0.0
N862 N 0.02966 0.40587 0.41346 0.0
C863 C 0.03239 0.42277 0.40264 0.0
C864 C 0.05092 0.40761 0.42013 0.0
C865 C 0.07869 0.44363 0.40475 0.0
C866 C 0.91958 0.33422 0.44842 0.0
N867 N 0.91716 0.34918 0.43797 0.0
C868 C 0.91185 0.33444 0.46278 0.0
C869 C 0.90157 0.3501 0.46641 0.0
C870 C 0.8991 0.36526 0.45569 0.0
C871 C 0.90704 0.36455 0.44145 0.0
C872 C 0.85002 0.32103 0.4102 0.0
C873 C 0.89681 0.35874 0.39894 0.0
C874 C 0.87339 0.32499 0.4159 0.0
N875 N 0.89639 0.34376 0.41031 0.0
C876 C 0.87383 0.35534 0.39296 0.0
C877 C 0.85031 0.33636 0.39866 0.0
C878 C 0.96278 0.36033 0.39178 0.0
C879 C 0.00538 0.31689 0.42925 0.0
C880 C 0.01636 0.35077 0.40619 0.0
C881 C 0.02285 0.3314 0.40516 0.0
C882 C 0.0173 0.31437 0.41678 0.0
N883 N 0.00477 0.35318 0.41848 0.0
C884 C 0.9992 0.33651 0.4299 0.0
Co885 Co 0.93705 0.36554 0.2556 0.0
Co886 Co 0.97291 0.33482 0.25393 0.0
O887 O 0.96498 0.36137 0.24767 0.0
C888 C 0.97942 0.41976 0.26205 0.0
O889 O 0.98857 0.41155 0.27248 0.0
C890 C 0.96305 0.32711 0.22243 0.0
O891 O 0.94299 0.32987 0.22495 0.0
O892 O 0.93607 0.30724 0.25276 0.0
O893 O 0.91336 0.32732 0.2565 0.0
H894 H 0.96131 0.25896 0.2835 0.0
H895 H 0.96313 0.3929 0.22831 0.0
O896 O 0.95994 0.40401 0.25451 0.0
H897 H 0.87136 0.33804 0.2152 0.0
H898 H 0.88289 0.40815 0.25949 0.0
H899 H 0.89842 0.34033 0.27917 0.0
H900 H 0.88608 0.33855 0.24039 0.0
H901 H 0.91728 0.40152 0.24925 0.0
O902 O 0.97757 0.32816 0.23292 0.0
H903 H 0.95136 0.29256 0.27578 0.0
H904 H 0.01194 0.32067 0.24457 0.0
H905 H 0.86366 0.34615 0.28965 0.0
H906 H 0.94918 0.39331 0.20304 0.0
H907 H 0.85572 0.38027 0.2798 0.0
H908 H 0.90302 0.36562 0.19632 0.0
O909 O 0.9487 0.36498 0.27584 0.0
H910 H 0.05453 0.41149 0.23566 0.0
H911 H 0.0141 0.35027 0.27641 0.0
H912 H 0.05969 0.38468 0.27832 0.0
H913 H 0.08021 0.41554 0.25783 0.0
H914 H 0.00893 0.37691 0.23426 0.0
H915 H 0.02243 0.28724 0.25186 0.0
H916 H 0.99708 0.25616 0.2715 0.0
O917 O 0.96803 0.34089 0.27494 0.0
C918 C 0.91484 0.30694 0.25475 0.0
C919 C 0.97257 0.27246 0.27497 0.0
C920 C 0.00684 0.28831 0.2572 0.0
N921 N 0.98123 0.3087 0.25985 0.0
C922 C 0.96708 0.29158 0.27059 0.0
C923 C 0.00079 0.30716 0.2531 0.0
C924 C 0.99262 0.27088 0.26822 0.0
C925 C 0.94296 0.38104 0.22552 0.0
N926 N 0.92543 0.36575 0.23584 0.0
C927 C 0.93519 0.38126 0.21117 0.0
C928 C 0.9093 0.36568 0.20741 0.0
C929 C 0.89153 0.35018 0.21799 0.0
C930 C 0.9 0.35046 0.23223 0.0
C931 C 0.88613 0.39318 0.26386 0.0
C932 C 0.89496 0.35511 0.27477 0.0
C933 C 0.90561 0.38937 0.25812 0.0
N934 N 0.90971 0.37042 0.26353 0.0
C935 C 0.87531 0.35836 0.28077 0.0
C936 C 0.87089 0.37752 0.27525 0.0
C937 C 0.95943 0.35353 0.28193 0.0
C938 C 0.04583 0.39811 0.24465 0.0
C939 C 0.02288 0.36368 0.26746 0.0
C940 C 0.04871 0.38309 0.2686 0.0
C941 C 0.06022 0.40039 0.25709 0.0
N942 N 0.00893 0.36151 0.25519 0.0
C943 C 0.02004 0.37844 0.24389 0.0
Co944 Co 0.6872 0.59864 0.2565 0.0
Co945 Co 0.71498 0.66452 0.25312 0.0
O946 O 0.69016 0.62925 0.24718 0.0
C947 C 0.6317 0.58447 0.25926 0.0
O948 O 0.63807 0.60368 0.26837 0.0
C949 C 0.72492 0.66237 0.22189 0.0
O950 O 0.72533 0.64119 0.2251 0.0
O951 O 0.744 0.65724 0.2525 0.0
O952 O 0.7254 0.61574 0.25943 0.0
H953 H 0.78844 0.73299 0.28236 0.0
H954 H 0.66316 0.5938 0.22749 0.0
O955 O 0.64887 0.58051 0.25357 0.0
H956 H 0.72556 0.56366 0.22041 0.0
H957 H 0.65046 0.50282 0.26242 0.0
H958 H 0.7103 0.58892 0.28266 0.0
H959 H 0.71968 0.57782 0.24468 0.0
H960 H 0.65565 0.54214 0.25051 0.0
O961 O 0.72119 0.67488 0.23196 0.0
H962 H 0.75688 0.68835 0.27511 0.0
H963 H 0.72609 0.71631 0.24278 0.0
H964 H 0.70588 0.55013 0.29485 0.0
H965 H 0.66824 0.57955 0.20307 0.0
H966 H 0.67578 0.50669 0.28472 0.0
H967 H 0.69971 0.56445 0.19941 0.0
O968 O 0.68381 0.61132 0.27591 0.0
H969 H 0.63557 0.66296 0.23381 0.0
H970 H 0.69708 0.68937 0.2748 0.0
H971 H 0.66071 0.69775 0.27605 0.0
H972 H 0.62968 0.68456 0.25543 0.0
H973 H 0.67211 0.65478 0.23307 0.0
H974 H 0.75747 0.76127 0.24959 0.0
H975 H 0.78885 0.76982 0.26955 0.0
O976 O 0.7092 0.65453 0.27437 0.0
C977 C 0.74523 0.6375 0.25653 0.0
C978 C 0.7748 0.72952 0.27368 0.0
C979 C 0.75744 0.74539 0.25527 0.0
N980 N 0.73952 0.69976 0.25864 0.0
C981 C 0.75683 0.70429 0.26956 0.0
C982 C 0.73976 0.7199 0.25145 0.0
C983 C 0.77504 0.75017 0.26648 0.0
C984 C 0.67666 0.58695 0.22602 0.0
N985 N 0.69101 0.58654 0.23751 0.0
C986 C 0.67955 0.57903 0.21215 0.0
C987 C 0.69724 0.57061 0.2101 0.0
C988 C 0.71177 0.57018 0.22188 0.0
C989 C 0.7084 0.57829 0.23559 0.0
C990 C 0.66369 0.52164 0.26692 0.0
C991 C 0.69731 0.5701 0.27813 0.0
C992 C 0.66669 0.54398 0.26023 0.0
N993 N 0.68347 0.56781 0.2658 0.0
C994 C 0.69482 0.54819 0.2851 0.0
C995 C 0.67791 0.52383 0.27943 0.0
C996 C 0.69545 0.63377 0.28163 0.0
C997 C 0.64901 0.66886 0.24285 0.0
C998 C 0.68362 0.68351 0.26581 0.0
C999 C 0.66309 0.68835 0.26656 0.0
C1000 C 0.64569 0.68096 0.25499 0.0
N1001 N 0.68678 0.67173 0.25384 0.0
C1002 C 0.66977 0.66436 0.24247 0.0
Co1003 Co 0.45096 0.11973 0.25765 0.0
Co1004 Co 0.38638 0.07485 0.25417 0.0
O1005 O 0.42241 0.09026 0.24802 0.0
C1006 C 0.4689 0.0815 0.2574 0.0
O1007 O 0.4466 0.06427 0.26296 0.0
C1008 C 0.38689 0.08833 0.22331 0.0
O1009 O 0.40622 0.11109 0.2269 0.0
O1010 O 0.38846 0.10922 0.25457 0.0
O1011 O 0.42958 0.13622 0.2611 0.0
H1012 H 0.31277 0.06638 0.28474 0.0
H1013 H 0.45923 0.10419 0.22833 0.0
O1014 O 0.47333 0.10417 0.25446 0.0
H1015 H 0.47698 0.19363 0.22262 0.0
H1016 H 0.54416 0.18836 0.26396 0.0
H1017 H 0.45632 0.14982 0.28444 0.0
H1018 H 0.46496 0.17214 0.24662 0.0
H1019 H 0.50743 0.15168 0.25166 0.0
O1020 O 0.37585 0.07094 0.23306 0.0
H1021 H 0.35836 0.08584 0.27721 0.0
H1022 H 0.33724 0.03054 0.24325 0.0
H1023 H 0.49244 0.1866 0.29704 0.0
H1024 H 0.47145 0.12505 0.20414 0.0
H1025 H 0.53675 0.20613 0.28678 0.0
H1026 H 0.48031 0.17005 0.20117 0.0
O1027 O 0.43994 0.10218 0.27678 0.0
H1028 H 0.39992 0.0054 0.23239 0.0
H1029 H 0.36663 0.03044 0.27484 0.0
H1030 H 0.3647 0.98826 0.27481 0.0
H1031 H 0.38139 0.97549 0.25346 0.0
H1032 H 0.40166 0.04748 0.23293 0.0
H1033 H 0.29139 0.01061 0.25032 0.0
H1034 H 0.27893 0.02849 0.27125 0.0
O1035 O 0.3966 0.07872 0.27539 0.0
C1036 C 0.40656 0.13124 0.25871 0.0
C1037 C 0.31796 0.05837 0.27563 0.0
C1038 C 0.30596 0.02709 0.2563 0.0
N1039 N 0.35044 0.0592 0.25988 0.0
C1040 C 0.34375 0.06926 0.27135 0.0
C1041 C 0.33193 0.03848 0.25232 0.0
C1042 C 0.29898 0.03712 0.26805 0.0
C1043 C 0.46337 0.12389 0.22715 0.0
N1044 N 0.4615 0.13696 0.23888 0.0
C1045 C 0.47016 0.13555 0.21342 0.0
C1046 C 0.47508 0.16079 0.21175 0.0
C1047 C 0.47319 0.17402 0.22378 0.0
C1048 C 0.46631 0.16173 0.23734 0.0
C1049 C 0.52493 0.18007 0.26851 0.0
C1050 C 0.4755 0.15834 0.27986 0.0
C1051 C 0.50406 0.15927 0.2616 0.0
N1052 N 0.47971 0.1488 0.26725 0.0
C1053 C 0.4959 0.1791 0.28706 0.0
C1054 C 0.52076 0.19003 0.28131 0.0
C1055 C 0.41777 0.08834 0.28258 0.0
C1056 C 0.39252 0.01071 0.24174 0.0
C1057 C 0.37399 0.02505 0.26553 0.0
C1058 C 0.3728 0.00112 0.26556 0.0
C1059 C 0.38216 0.99395 0.25357 0.0
N1060 N 0.38414 0.04135 0.25387 0.0
C1061 C 0.39337 0.03448 0.24208 0.0
Co1062 Co 0.68799 0.11909 0.25646 0.0
Co1063 Co 0.71517 0.08059 0.25281 0.0
O1064 O 0.69061 0.09138 0.24696 0.0
C1065 C 0.63261 0.07747 0.25843 0.0
O1066 O 0.63899 0.0638 0.26687 0.0
C1067 C 0.7249 0.09237 0.22148 0.0
O1068 O 0.72566 0.11417 0.22458 0.0
O1069 O 0.74438 0.1168 0.25208 0.0
O1070 O 0.72619 0.13983 0.25945 0.0
H1071 H 0.78865 0.08501 0.28174 0.0
H1072 H 0.66411 0.10059 0.22735 0.0
O1073 O 0.64973 0.09928 0.25344 0.0
H1074 H 0.72718 0.19312 0.22082 0.0
H1075 H 0.65215 0.17882 0.26284 0.0
H1076 H 0.71128 0.15141 0.28276 0.0
H1077 H 0.72095 0.17257 0.24495 0.0
H1078 H 0.65694 0.14464 0.25069 0.0
O1079 O 0.72106 0.07622 0.23163 0.0
H1080 H 0.75731 0.09844 0.27462 0.0
H1081 H 0.72565 0.0395 0.24243 0.0
H1082 H 0.70724 0.18582 0.29519 0.0
H1083 H 0.66953 0.12044 0.20305 0.0
H1084 H 0.6775 0.19974 0.28522 0.0
H1085 H 0.70135 0.16701 0.19966 0.0
O1086 O 0.68419 0.10252 0.27578 0.0
H1087 H 0.63507 0.00313 0.23378 0.0
H1088 H 0.69717 0.03781 0.27451 0.0
H1089 H 0.6605 0.99322 0.27586 0.0
H1090 H 0.62916 0.97559 0.25537 0.0
H1091 H 0.67192 0.04769 0.23293 0.0
H1092 H 0.7568 0.02557 0.2491 0.0
H1093 H 0.78851 0.04833 0.26893 0.0
O1094 O 0.7097 0.08489 0.27409 0.0
C1095 C 0.74588 0.13784 0.25626 0.0
C1096 C 0.77486 0.07488 0.27312 0.0
C1097 C 0.75701 0.04154 0.25478 0.0
N1098 N 0.73953 0.0696 0.25823 0.0
C1099 C 0.75702 0.08234 0.26908 0.0
C1100 C 0.73946 0.04955 0.25103 0.0
C1101 C 0.77479 0.05432 0.26592 0.0
C1102 C 0.67776 0.12093 0.226 0.0
N1103 N 0.69211 0.13541 0.23757 0.0
C1104 C 0.68084 0.13204 0.2122 0.0
C1105 C 0.69873 0.15816 0.2103 0.0
C1106 C 0.71325 0.17281 0.22216 0.0
C1107 C 0.70968 0.16105 0.23579 0.0
C1108 C 0.66522 0.17297 0.26727 0.0
C1109 C 0.69843 0.15749 0.2783 0.0
C1110 C 0.66799 0.1536 0.26045 0.0
N1111 N 0.68457 0.14622 0.26594 0.0
C1112 C 0.69617 0.17692 0.28541 0.0
C1113 C 0.67946 0.1847 0.27982 0.0
C1114 C 0.69585 0.09167 0.28143 0.0
C1115 C 0.64863 0.01057 0.24275 0.0
C1116 C 0.68358 0.0303 0.26557 0.0
C1117 C 0.66288 0.00502 0.26638 0.0
C1118 C 0.64531 0.99514 0.25488 0.0
N1119 N 0.68675 0.04528 0.25361 0.0
C1120 C 0.66958 0.03575 0.24231 0.0
Co1121 Co 0.92997 0.59295 0.25587 0.0
Co1122 Co 0.96917 0.65916 0.25362 0.0
O1123 O 0.95866 0.62391 0.24733 0.0
C1124 C 0.97248 0.58071 0.25886 0.0
O1125 O 0.98667 0.60258 0.2658 0.0
C1126 C 0.95888 0.65783 0.22215 0.0
O1127 O 0.93809 0.63549 0.2246 0.0
O1128 O 0.93303 0.65235 0.25283 0.0
O1129 O 0.90871 0.61002 0.25758 0.0
H1130 H 0.96385 0.72674 0.28355 0.0
H1131 H 0.95252 0.58886 0.22789 0.0
O1132 O 0.95012 0.57469 0.25418 0.0
H1133 H 0.86087 0.55817 0.21715 0.0
H1134 H 0.86996 0.49703 0.26067 0.0
H1135 H 0.8942 0.58284 0.2806 0.0
H1136 H 0.87805 0.572 0.242 0.0
H1137 H 0.90549 0.53649 0.24966 0.0
O1138 O 0.97391 0.67055 0.23264 0.0
H1139 H 0.95072 0.68234 0.27577 0.0
H1140 H 0.0105 0.71126 0.24405 0.0
H1141 H 0.85839 0.54388 0.29186 0.0
H1142 H 0.93607 0.57485 0.20291 0.0
H1143 H 0.84607 0.50059 0.28189 0.0
H1144 H 0.88996 0.5595 0.19739 0.0
O1145 O 0.94405 0.60492 0.27579 0.0
H1146 H 0.04708 0.6576 0.23442 0.0
H1147 H 0.01144 0.68284 0.27566 0.0
H1148 H 0.05601 0.69073 0.27708 0.0
H1149 H 0.07411 0.67811 0.25634 0.0
H1150 H 0.00254 0.6499 0.2335 0.0
H1151 H 0.02417 0.75599 0.25139 0.0
H1152 H 0.00083 0.76394 0.27132 0.0
O1153 O 0.96441 0.64836 0.27467 0.0
C1154 C 0.91136 0.63229 0.2555 0.0
C1155 C 0.97424 0.72353 0.27489 0.0
C1156 C 0.00807 0.73995 0.25683 0.0
N1157 N 0.98 0.69423 0.25958 0.0
C1158 C 0.96695 0.69843 0.27048 0.0
C1159 C 0.00022 0.71459 0.2527 0.0
C1160 C 0.99497 0.74439 0.26802 0.0
C1161 C 0.93237 0.58194 0.22561 0.0
N1162 N 0.91627 0.58128 0.2364 0.0
C1163 C 0.92319 0.57414 0.21143 0.0
C1164 C 0.89733 0.56557 0.20834 0.0
C1165 C 0.88101 0.56486 0.21941 0.0
C1166 C 0.89087 0.57283 0.23346 0.0
C1167 C 0.87511 0.51579 0.26509 0.0
C1168 C 0.88884 0.56407 0.27614 0.0
C1169 C 0.89525 0.5382 0.25893 0.0
N1170 N 0.90178 0.56196 0.26442 0.0
C1171 C 0.8686 0.54208 0.28259 0.0
C1172 C 0.86171 0.5178 0.277 0.0
C1173 C 0.95582 0.6272 0.28174 0.0
C1174 C 0.03944 0.66325 0.24351 0.0
C1175 C 0.01917 0.67724 0.26661 0.0
C1176 C 0.04443 0.6818 0.26746 0.0
C1177 C 0.05458 0.67473 0.25582 0.0
N1178 N 0.00447 0.66606 0.25447 0.0
C1179 C 0.01426 0.65902 0.24303 0.0
Co1180 Co 0.45539 0.35864 0.25491 0.0
Co1181 Co 0.38975 0.33621 0.25343 0.0
O1182 O 0.4253 0.35863 0.24668 0.0
C1183 C 0.4708 0.41431 0.25724 0.0
O1184 O 0.44856 0.40782 0.26344 0.0
C1185 C 0.3895 0.32497 0.22213 0.0
O1186 O 0.41113 0.32507 0.22464 0.0
O1187 O 0.39368 0.30497 0.25328 0.0
O1188 O 0.43601 0.32039 0.25672 0.0
H1189 H 0.32014 0.26846 0.28502 0.0
H1190 H 0.46084 0.38589 0.22697 0.0
O1191 O 0.47595 0.39703 0.25319 0.0
H1192 H 0.48433 0.3196 0.21572 0.0
H1193 H 0.55015 0.38795 0.25868 0.0
H1194 H 0.46369 0.33143 0.27952 0.0
H1195 H 0.4721 0.3244 0.24073 0.0
H1196 H 0.51178 0.38702 0.2481 0.0
O1197 O 0.37766 0.32886 0.23253 0.0
H1198 H 0.36491 0.29667 0.27661 0.0
H1199 H 0.33874 0.32853 0.24391 0.0
H1200 H 0.50152 0.3316 0.29037 0.0
H1201 H 0.47327 0.38197 0.20183 0.0
H1202 H 0.54514 0.36002 0.27993 0.0
H1203 H 0.48501 0.34855 0.19607 0.0
O1204 O 0.44467 0.3618 0.27498 0.0
H1205 H 0.39727 0.41737 0.2325 0.0
H1206 H 0.36932 0.3589 0.27498 0.0
H1207 H 0.36493 0.39777 0.27559 0.0
H1208 H 0.37892 0.42729 0.25422 0.0
H1209 H 0.4015 0.37839 0.2324 0.0
H1210 H 0.29365 0.30051 0.25188 0.0
H1211 H 0.28415 0.27028 0.27261 0.0
O1212 O 0.40133 0.34304 0.27438 0.0
C1213 C 0.41295 0.30176 0.25541 0.0
C1214 C 0.32404 0.28161 0.276 0.0
C1215 C 0.30917 0.29957 0.25739 0.0
N1216 N 0.35442 0.31435 0.25986 0.0
C1217 C 0.34935 0.29768 0.27122 0.0
C1218 C 0.33472 0.31534 0.2529 0.0
C1219 C 0.30385 0.28262 0.26903 0.0
C1220 C 0.46622 0.3715 0.22458 0.0
N1221 N 0.46581 0.35544 0.23532 0.0
C1222 C 0.47312 0.36929 0.21031 0.0
C1223 C 0.47965 0.3505 0.20708 0.0
C1224 C 0.47925 0.33423 0.21809 0.0
C1225 C 0.47222 0.33698 0.23223 0.0
C1226 C 0.53124 0.37545 0.2633 0.0
C1227 C 0.48259 0.34374 0.27487 0.0
C1228 C 0.50945 0.37489 0.25738 0.0
N1229 N 0.48549 0.35905 0.26312 0.0
C1230 C 0.50395 0.3438 0.28108 0.0
C1231 C 0.52842 0.35977 0.27523 0.0
C1232 C 0.42287 0.35368 0.28123 0.0
C1233 C 0.39104 0.40462 0.24186 0.0
C1234 C 0.37552 0.37169 0.26566 0.0
C1235 C 0.37293 0.39364 0.26605 0.0
C1236 C 0.38078 0.41019 0.25406 0.0
N1237 N 0.38554 0.36633 0.25364 0.0
C1238 C 0.3933 0.38247 0.24184 0.0
Co1239 Co 0.45317 0.3548 0.41772 0.0
Co1240 Co 0.41334 0.381 0.41956 0.0
O1241 O 0.42441 0.35696 0.42616 0.0
C1242 C 0.41192 0.29942 0.41475 0.0
O1243 O 0.39901 0.306 0.40582 0.0
C1244 C 0.42384 0.3909 0.45098 0.0
O1245 O 0.44504 0.39017 0.44846 0.0
O1246 O 0.44935 0.4107 0.42024 0.0
O1247 O 0.4739 0.39303 0.41516 0.0
H1248 H 0.41706 0.4522 0.38865 0.0
H1249 H 0.43184 0.32946 0.44623 0.0
O1250 O 0.43326 0.31643 0.42029 0.0
H1251 H 0.52331 0.39293 0.45574 0.0
H1252 H 0.51387 0.31964 0.41391 0.0
H1253 H 0.48806 0.37897 0.39243 0.0
H1254 H 0.50519 0.38781 0.43099 0.0
H1255 H 0.47838 0.32386 0.42472 0.0
O1256 O 0.40852 0.38798 0.44052 0.0
H1257 H 0.43092 0.42171 0.39687 0.0
H1258 H 0.37176 0.39147 0.42897 0.0
H1259 H 0.52378 0.3755 0.38133 0.0
H1260 H 0.4493 0.33368 0.4711 0.0
H1261 H 0.5369 0.34566 0.39209 0.0
H1262 H 0.49531 0.3657 0.47599 0.0
O1263 O 0.43881 0.35169 0.39783 0.0
H1264 H 0.33618 0.30131 0.43921 0.0
H1265 H 0.37091 0.36144 0.39758 0.0
H1266 H 0.32656 0.32432 0.39635 0.0
H1267 H 0.30891 0.29397 0.4173 0.0
H1268 H 0.3805 0.33858 0.43993 0.0
H1269 H 0.35739 0.42178 0.4212 0.0
H1270 H 0.38004 0.45235 0.40086 0.0
O1271 O 0.41815 0.37447 0.39851 0.0
C1272 C 0.471 0.41251 0.41721 0.0
C1273 C 0.40698 0.43892 0.3975 0.0
C1274 C 0.37351 0.42187 0.41578 0.0
N1275 N 0.40202 0.40471 0.4133 0.0
C1276 C 0.41469 0.42156 0.40216 0.0
C1277 C 0.38177 0.4048 0.42015 0.0
C1278 C 0.38623 0.43901 0.40436 0.0
C1279 C 0.45197 0.34319 0.44823 0.0
N1280 N 0.46749 0.35828 0.43715 0.0
C1281 C 0.46172 0.34559 0.46235 0.0
C1282 C 0.48752 0.3636 0.4651 0.0
C1283 C 0.50323 0.37891 0.45374 0.0
C1284 C 0.49283 0.37598 0.43976 0.0
C1285 C 0.50838 0.33277 0.40915 0.0
C1286 C 0.4938 0.3661 0.39724 0.0
C1287 C 0.48828 0.33521 0.41521 0.0
N1288 N 0.48135 0.35186 0.40931 0.0
C1289 C 0.51397 0.36414 0.39088 0.0
C1290 C 0.5213 0.34738 0.39691 0.0
C1291 C 0.42705 0.36198 0.39161 0.0
C1292 C 0.34363 0.31443 0.43004 0.0
C1293 C 0.36339 0.34828 0.40671 0.0
C1294 C 0.33825 0.32732 0.40597 0.0
C1295 C 0.32835 0.31031 0.41773 0.0
N1296 N 0.37822 0.35223 0.41884 0.0
C1297 C 0.36868 0.33561 0.4304 0.0
Co1298 Co 0.69167 0.11873 0.41646 0.0
Co1299 Co 0.66756 0.05313 0.41943 0.0
O1300 O 0.6908 0.08883 0.42549 0.0
C1301 C 0.74703 0.13308 0.4145 0.0
O1302 O 0.74013 0.11085 0.40817 0.0
C1303 C 0.65689 0.05449 0.45064 0.0
O1304 O 0.65542 0.07511 0.44743 0.0
O1305 O 0.63697 0.05801 0.4198 0.0
O1306 O 0.65335 0.09987 0.41428 0.0
H1307 H 0.59688 0.9823 0.38985 0.0
H1308 H 0.71754 0.12461 0.44493 0.0
O1309 O 0.73005 0.13867 0.41856 0.0
H1310 H 0.65248 0.15069 0.45388 0.0
H1311 H 0.72313 0.21369 0.41076 0.0
H1312 H 0.66566 0.12652 0.39104 0.0
H1313 H 0.65801 0.13739 0.4293 0.0
H1314 H 0.72099 0.17542 0.42233 0.0
O1315 O 0.66144 0.04255 0.44058 0.0
H1316 H 0.62633 0.02744 0.39722 0.0
H1317 H 0.65946 0.00236 0.42975 0.0
H1318 H 0.66704 0.16424 0.3792 0.0
H1319 H 0.71285 0.13803 0.46966 0.0
H1320 H 0.69594 0.20821 0.38906 0.0
H1321 H 0.68004 0.15108 0.47428 0.0
O1322 O 0.69522 0.10679 0.39681 0.0
H1323 H 0.74906 0.05992 0.4393 0.0
H1324 H 0.68823 0.03065 0.39789 0.0
H1325 H 0.72644 0.02518 0.39689 0.0
H1326 H 0.75714 0.03983 0.41771 0.0
H1327 H 0.71071 0.06519 0.4398 0.0
H1328 H 0.63022 0.95692 0.42283 0.0
H1329 H 0.59873 0.94667 0.4027 0.0
O1330 O 0.67326 0.06333 0.39824 0.0
C1331 C 0.63433 0.0773 0.41659 0.0
C1332 C 0.61059 0.98652 0.3986 0.0
C1333 C 0.62928 0.97228 0.41712 0.0
N1334 N 0.64474 0.01751 0.4138 0.0
C1335 C 0.62737 0.01204 0.40278 0.0
C1336 C 0.64575 0.99803 0.42101 0.0
C1337 C 0.61162 0.96654 0.40582 0.0
C1338 C 0.70342 0.13053 0.44682 0.0
N1339 N 0.6881 0.13026 0.43567 0.0
C1340 C 0.70077 0.138 0.46086 0.0
C1341 C 0.68233 0.14528 0.46344 0.0
C1342 C 0.66684 0.14504 0.45201 0.0
C1343 C 0.67 0.13741 0.43812 0.0
C1344 C 0.71042 0.19463 0.40637 0.0
C1345 C 0.67817 0.14558 0.39545 0.0
C1346 C 0.70917 0.17289 0.41286 0.0
N1347 N 0.69306 0.14875 0.40743 0.0
C1348 C 0.67892 0.16687 0.38867 0.0
C1349 C 0.69516 0.19154 0.3942 0.0
C1350 C 0.68541 0.08442 0.39103 0.0
C1351 C 0.73578 0.05339 0.43017 0.0
C1352 C 0.70154 0.03713 0.40698 0.0
C1353 C 0.72311 0.03394 0.40636 0.0
C1354 C 0.74032 0.04215 0.41805 0.0
N1355 N 0.69718 0.04811 0.41893 0.0
C1356 C 0.71399 0.05624 0.43042 0.0
Co1357 Co 0.92337 0.59361 0.41609 0.0
Co1358 Co 0.98902 0.63259 0.42013 0.0
O1359 O 0.9534 0.62163 0.42574 0.0
C1360 C 0.91082 0.63592 0.41479 0.0
O1361 O 0.93333 0.65104 0.40868 0.0
C1362 C 0.98619 0.62224 0.45169 0.0
O1363 O 0.96421 0.60117 0.449 0.0
O1364 O 0.98224 0.59652 0.42127 0.0
O1365 O 0.94129 0.57321 0.41353 0.0
H1366 H 0.0586 0.62794 0.39189 0.0
H1367 H 0.91618 0.61197 0.44481 0.0
O1368 O 0.90439 0.61295 0.41848 0.0
H1369 H 0.88813 0.51989 0.45195 0.0
H1370 H 0.82818 0.53272 0.40892 0.0
H1371 H 0.91556 0.56138 0.38991 0.0
H1372 H 0.90342 0.54037 0.42789 0.0
H1373 H 0.86654 0.56731 0.42132 0.0
O1374 O 0.99922 0.6374 0.44132 0.0
H1375 H 0.01371 0.61445 0.39876 0.0
H1376 H 0.04042 0.67415 0.43047 0.0
H1377 H 0.87774 0.52659 0.37724 0.0
H1378 H 0.90068 0.59214 0.46902 0.0
H1379 H 0.83366 0.51204 0.38675 0.0
H1380 H 0.88664 0.54581 0.47272 0.0
O1381 O 0.93645 0.61023 0.39686 0.0
H1382 H 0.98562 0.71008 0.43833 0.0
H1383 H 0.01384 0.67498 0.39819 0.0
H1384 H 0.02145 0.71942 0.39644 0.0
H1385 H 0.00734 0.73726 0.41662 0.0
H1386 H 0.97822 0.66566 0.43958 0.0
H1387 H 0.08561 0.68816 0.42404 0.0
H1388 H 0.09492 0.66505 0.40457 0.0
O1389 O 0.97954 0.62785 0.39879 0.0
C1390 C 0.96293 0.57539 0.41701 0.0
C1391 C 0.05479 0.63823 0.40035 0.0
C1392 C 0.06995 0.672 0.41841 0.0
N1393 N 0.02447 0.64366 0.4149 0.0
C1394 C 0.02942 0.63073 0.40425 0.0
C1395 C 0.04433 0.66396 0.42202 0.0
C1396 C 0.07516 0.65903 0.40748 0.0
C1397 C 0.90979 0.59172 0.44629 0.0
N1398 N 0.91066 0.57735 0.43494 0.0
C1399 C 0.90117 0.58063 0.46004 0.0
C1400 C 0.89335 0.55464 0.46212 0.0
C1401 C 0.89421 0.5401 0.45048 0.0
C1402 C 0.90298 0.55184 0.43688 0.0
C1403 C 0.84729 0.53884 0.4047 0.0
C1404 C 0.89645 0.55503 0.39417 0.0
C1405 C 0.86908 0.55844 0.41166 0.0
N1406 N 0.89328 0.56617 0.40642 0.0
C1407 C 0.8751 0.53538 0.38692 0.0
C1408 C 0.85038 0.52724 0.39226 0.0
C1409 C 0.95904 0.62106 0.39134 0.0
C1410 C 0.99193 0.70255 0.42948 0.0
C1411 C 0.00759 0.68258 0.407 0.0
C1412 C 0.012 0.70778 0.40596 0.0
C1413 C 0.00408 0.71778 0.41729 0.0
N1414 N 0.99572 0.6678 0.41901 0.0
C1415 C 0.98787 0.67745 0.43015 0.0
Co1416 Co 0.36082 0.93396 0.75179 0.0
Co1417 Co 0.33242 0.9719 0.75301 0.0
O1418 O 0.35744 0.96226 0.75978 0.0
C1419 C 0.41574 0.97605 0.74763 0.0
O1420 O 0.40847 0.98762 0.73816 0.0
C1421 C 0.32144 0.96054 0.7842 0.0
O1422 O 0.32172 0.93918 0.78137 0.0
O1423 O 0.3036 0.93546 0.75359 0.0
O1424 O 0.3226 0.91175 0.74976 0.0
H1425 H 0.25976 0.96488 0.72212 0.0
H1426 H 0.3859 0.95782 0.77993 0.0
O1427 O 0.39924 0.95529 0.75394 0.0
H1428 H 0.32678 0.86589 0.79108 0.0
H1429 H 0.3997 0.87636 0.74869 0.0
H1430 H 0.33655 0.89711 0.72732 0.0
H1431 H 0.33077 0.88222 0.76595 0.0
H1432 H 0.39412 0.91139 0.75895 0.0
O1433 O 0.32512 0.97643 0.77392 0.0
H1434 H 0.29146 0.95267 0.7304 0.0
H1435 H 0.32015 0.01234 0.76219 0.0
H1436 H 0.34135 0.86176 0.71679 0.0
H1437 H 0.38271 0.94226 0.80519 0.0
H1438 H 0.37311 0.8512 0.72749 0.0
H1439 H 0.35289 0.89601 0.81091 0.0
O1440 O 0.36276 0.94716 0.73162 0.0
H1441 H 0.41019 0.05104 0.7727 0.0
H1442 H 0.35088 0.01397 0.73086 0.0
H1443 H 0.38685 0.05894 0.72958 0.0
H1444 H 0.41677 0.07777 0.75062 0.0
H1445 H 0.37408 0.00608 0.77347 0.0
H1446 H 0.28862 0.02508 0.75434 0.0
H1447 H 0.25822 0.00134 0.73412 0.0
O1448 O 0.33929 0.96718 0.73211 0.0
C1449 C 0.30259 0.91394 0.75129 0.0
C1450 C 0.27298 0.97545 0.7309 0.0
C1451 C 0.28915 0.00921 0.74899 0.0
N1452 N 0.30779 0.98196 0.74665 0.0
C1453 C 0.29103 0.96868 0.73559 0.0
C1454 C 0.30693 0.00189 0.75341 0.0
C1455 C 0.2721 0.99588 0.73765 0.0
C1456 C 0.37309 0.93761 0.7823 0.0
N1457 N 0.35857 0.92094 0.77146 0.0
C1458 C 0.37128 0.92893 0.79664 0.0
C1459 C 0.35451 0.90299 0.79985 0.0
C1460 C 0.33984 0.88609 0.78873 0.0
C1461 C 0.34211 0.89546 0.77452 0.0
C1462 C 0.38575 0.88074 0.74395 0.0
C1463 C 0.3503 0.89251 0.73209 0.0
C1464 C 0.38255 0.90059 0.7497 0.0
N1465 N 0.36487 0.90615 0.74381 0.0
C1466 C 0.35298 0.87253 0.72606 0.0
C1467 C 0.37083 0.86663 0.73206 0.0
C1468 C 0.35208 0.9585 0.72534 0.0
C1469 C 0.39724 0.04307 0.76348 0.0
C1470 C 0.36387 0.022 0.74004 0.0
C1471 C 0.38417 0.04749 0.73927 0.0
C1472 C 0.40094 0.05805 0.75108 0.0
N1473 N 0.36031 0.00747 0.75226 0.0
C1474 C 0.37671 0.01766 0.76387 0.0
Co1475 Co 0.11846 0.45094 0.7485 0.0
Co1476 Co 0.07547 0.3865 0.75368 0.0
O1477 O 0.09022 0.4228 0.75918 0.0
C1478 C 0.08015 0.46883 0.7498 0.0
O1479 O 0.06248 0.44633 0.74466 0.0
C1480 C 0.08922 0.38844 0.78466 0.0
O1481 O 0.11173 0.40816 0.78107 0.0
O1482 O 0.11026 0.38972 0.75352 0.0
O1483 O 0.13502 0.42964 0.74454 0.0
H1484 H 0.06926 0.3121 0.72487 0.0
H1485 H 0.10611 0.46088 0.77827 0.0
O1486 O 0.103 0.4733 0.75218 0.0
H1487 H 0.19636 0.47998 0.78078 0.0
H1488 H 0.18558 0.54391 0.73954 0.0
H1489 H 0.14564 0.45483 0.72073 0.0
H1490 H 0.17219 0.46617 0.75762 0.0
H1491 H 0.15055 0.50782 0.75319 0.0
O1492 O 0.07192 0.37699 0.77493 0.0
H1493 H 0.08761 0.35797 0.73153 0.0
H1494 H 0.03184 0.33739 0.76518 0.0
H1495 H 0.18076 0.49031 0.70679 0.0
H1496 H 0.12968 0.47492 0.80163 0.0
H1497 H 0.20098 0.53523 0.7162 0.0
H1498 H 0.1751 0.48446 0.80299 0.0
O1499 O 0.09869 0.43862 0.73007 0.0
H1500 H 0.00486 0.39898 0.77467 0.0
H1501 H 0.0308 0.3646 0.73312 0.0
H1502 H 0.98808 0.36146 0.7329 0.0
H1503 H 0.97485 0.3787 0.7538 0.0
H1504 H 0.04749 0.40189 0.77438 0.0
H1505 H 0.01303 0.29127 0.75898 0.0
H1506 H 0.0317 0.2784 0.73864 0.0
O1507 O 0.07888 0.39539 0.73227 0.0
C1508 C 0.13138 0.40747 0.74816 0.0
C1509 C 0.0609 0.31748 0.73371 0.0
C1510 C 0.02936 0.30578 0.75287 0.0
N1511 N 0.06064 0.35034 0.74863 0.0
C1512 C 0.07115 0.34342 0.7375 0.0
C1513 C 0.04012 0.33191 0.75635 0.0
C1514 C 0.03984 0.29857 0.74146 0.0
C1515 C 0.12597 0.46529 0.77875 0.0
N1516 N 0.13777 0.46279 0.76659 0.0
C1517 C 0.13917 0.47311 0.79201 0.0
C1518 C 0.16464 0.47842 0.79278 0.0
C1519 C 0.17657 0.47588 0.78032 0.0
C1520 C 0.16276 0.46798 0.76725 0.0
C1521 C 0.17696 0.52441 0.73535 0.0
C1522 C 0.15446 0.47431 0.72494 0.0
C1523 C 0.15709 0.50391 0.74301 0.0
N1524 N 0.14622 0.47922 0.73782 0.0
C1525 C 0.17428 0.49433 0.71698 0.0
C1526 C 0.1856 0.51953 0.72225 0.0
C1527 C 0.08607 0.41592 0.72476 0.0
C1528 C 0.01037 0.39134 0.76552 0.0
C1529 C 0.02521 0.3722 0.74223 0.0
C1530 C 0.00098 0.37032 0.74206 0.0
C1531 C 0.99356 0.37998 0.7538 0.0
N1532 N 0.04157 0.38331 0.75379 0.0
C1533 C 0.03444 0.39285 0.76532 0.0
Co1534 Co 0.59689 0.68819 0.75045 0.0
Co1535 Co 0.6632 0.71657 0.75187 0.0
O1536 O 0.62847 0.69142 0.75847 0.0
C1537 C 0.58381 0.63326 0.74589 0.0
O1538 O 0.60232 0.64056 0.73618 0.0
C1539 C 0.66239 0.72686 0.78312 0.0
O1540 O 0.64089 0.72682 0.78023 0.0
O1541 O 0.65558 0.74538 0.75262 0.0
O1542 O 0.61293 0.72643 0.74861 0.0
H1543 H 0.72925 0.78987 0.72146 0.0
H1544 H 0.59535 0.66264 0.77848 0.0
O1545 O 0.57981 0.64974 0.75243 0.0
H1546 H 0.56261 0.7217 0.78987 0.0
H1547 H 0.50043 0.6493 0.74712 0.0
H1548 H 0.58453 0.71284 0.72609 0.0
H1549 H 0.57516 0.71808 0.76473 0.0
H1550 H 0.54096 0.65475 0.75743 0.0
O1551 O 0.67473 0.72338 0.77284 0.0
H1552 H 0.68522 0.75799 0.72952 0.0
H1553 H 0.71579 0.72868 0.76118 0.0
H1554 H 0.54448 0.70818 0.71552 0.0
H1555 H 0.58277 0.66547 0.80375 0.0
H1556 H 0.50205 0.67622 0.72604 0.0
H1557 H 0.56637 0.69526 0.80959 0.0
O1558 O 0.60835 0.68661 0.7303 0.0
H1559 H 0.66433 0.6384 0.77105 0.0
H1560 H 0.68707 0.69861 0.72962 0.0
H1561 H 0.69611 0.66269 0.72812 0.0
H1562 H 0.68477 0.63232 0.74896 0.0
H1563 H 0.65545 0.67446 0.77205 0.0
H1564 H 0.76017 0.76038 0.75356 0.0
H1565 H 0.7671 0.79119 0.73352 0.0
O1566 O 0.65185 0.71014 0.73091 0.0
C1567 C 0.63511 0.74642 0.75028 0.0
C1568 C 0.72648 0.77647 0.73017 0.0
C1569 C 0.74383 0.75995 0.7482 0.0
N1570 N 0.69797 0.74134 0.74569 0.0
C1571 C 0.7016 0.75832 0.73473 0.0
C1572 C 0.71868 0.74208 0.75248 0.0
C1573 C 0.74771 0.77722 0.73695 0.0
C1574 C 0.58796 0.67544 0.7809 0.0
N1575 N 0.58594 0.69013 0.77012 0.0
C1576 C 0.58097 0.67704 0.79524 0.0
C1577 C 0.57182 0.69379 0.79852 0.0
C1578 C 0.56973 0.70865 0.78746 0.0
C1579 C 0.57694 0.70658 0.77325 0.0
C1580 C 0.5188 0.66333 0.74245 0.0
C1581 C 0.56614 0.699 0.73079 0.0
C1582 C 0.54181 0.66647 0.74823 0.0
N1583 N 0.56509 0.68424 0.74244 0.0
C1584 C 0.54353 0.6964 0.72473 0.0
C1585 C 0.51973 0.67845 0.73063 0.0
C1586 C 0.63043 0.69743 0.72408 0.0
C1587 C 0.66943 0.65154 0.76192 0.0
C1588 C 0.68201 0.68542 0.73871 0.0
C1589 C 0.68722 0.66515 0.73781 0.0
C1590 C 0.68087 0.64813 0.74951 0.0
N1591 N 0.67088 0.6887 0.75095 0.0
C1592 C 0.66452 0.67205 0.76244 0.0
Co1593 Co 0.59936 0.69754 0.58811 0.0
Co1594 Co 0.63658 0.66841 0.58636 0.0
O1595 O 0.6274 0.69393 0.57996 0.0
C1596 C 0.64201 0.75211 0.5927 0.0
O1597 O 0.65322 0.74442 0.60217 0.0
C1598 C 0.62504 0.65841 0.55514 0.0
O1599 O 0.60376 0.65873 0.55816 0.0
O1600 O 0.59997 0.63994 0.58572 0.0
O1601 O 0.57664 0.6593 0.58973 0.0
H1602 H 0.62862 0.59453 0.61648 0.0
H1603 H 0.62371 0.72315 0.56016 0.0
O1604 O 0.6212 0.73595 0.58631 0.0
H1605 H 0.53156 0.66595 0.5487 0.0
H1606 H 0.54304 0.73777 0.59201 0.0
H1607 H 0.56224 0.67288 0.61242 0.0
H1608 H 0.54761 0.66892 0.57382 0.0
H1609 H 0.57769 0.73182 0.5815 0.0
O1610 O 0.6409 0.66159 0.56534 0.0
H1611 H 0.61698 0.62688 0.60866 0.0
H1612 H 0.67642 0.6556 0.57673 0.0
H1613 H 0.52726 0.67802 0.62319 0.0
H1614 H 0.60846 0.72098 0.53491 0.0
H1615 H 0.51748 0.71067 0.61297 0.0
H1616 H 0.5621 0.69212 0.52904 0.0
O1617 O 0.61237 0.69862 0.60824 0.0
H1618 H 0.71628 0.74604 0.56704 0.0
H1619 H 0.67865 0.68573 0.60842 0.0
H1620 H 0.72385 0.7212 0.60981 0.0
H1621 H 0.74296 0.75162 0.58899 0.0
H1622 H 0.6711 0.71042 0.56617 0.0
H1623 H 0.68859 0.62342 0.58412 0.0
H1624 H 0.66467 0.59267 0.60417 0.0
O1625 O 0.63208 0.67487 0.60736 0.0
C1626 C 0.57857 0.63916 0.58802 0.0
C1627 C 0.63926 0.60789 0.60777 0.0
C1628 C 0.67289 0.62408 0.58959 0.0
N1629 N 0.64618 0.64326 0.59236 0.0
C1630 C 0.63281 0.62631 0.60333 0.0
C1631 C 0.66589 0.64223 0.58544 0.0
C1632 C 0.65947 0.60684 0.60085 0.0
C1633 C 0.60346 0.71074 0.55772 0.0
N1634 N 0.58657 0.69617 0.56847 0.0
C1635 C 0.59496 0.70952 0.54339 0.0
C1636 C 0.56895 0.69329 0.5401 0.0
C1637 C 0.55182 0.67858 0.55112 0.0
C1638 C 0.56102 0.68026 0.56532 0.0
C1639 C 0.54708 0.72344 0.59654 0.0
C1640 C 0.55797 0.687 0.60786 0.0
C1641 C 0.56671 0.72002 0.59065 0.0
N1642 N 0.57183 0.70187 0.59627 0.0
C1643 C 0.5382 0.68988 0.61402 0.0
C1644 C 0.53274 0.70822 0.6083 0.0
C1645 C 0.62358 0.68763 0.61433 0.0
C1646 C 0.70819 0.73287 0.57617 0.0
C1647 C 0.68681 0.69894 0.59934 0.0
C1648 C 0.71243 0.71895 0.60017 0.0
C1649 C 0.72314 0.73601 0.58849 0.0
N1650 N 0.67231 0.69593 0.58719 0.0
C1651 C 0.68265 0.71261 0.57571 0.0
Co1652 Co 0.35563 0.92526 0.59036 0.0
Co1653 Co 0.37999 0.99089 0.5872 0.0
O1654 O 0.35657 0.95515 0.58127 0.0
C1655 C 0.30043 0.91137 0.59245 0.0
O1656 O 0.30759 0.93378 0.59862 0.0
C1657 C 0.39026 0.98924 0.55596 0.0
O1658 O 0.39149 0.96848 0.55912 0.0
O1659 O 0.41045 0.9858 0.58676 0.0
O1660 O 0.39399 0.94396 0.59239 0.0
H1661 H 0.45123 0.06179 0.61647 0.0
H1662 H 0.32942 0.91923 0.56199 0.0
O1663 O 0.31722 0.90548 0.58843 0.0
H1664 H 0.39398 0.89254 0.55286 0.0
H1665 H 0.32374 0.83026 0.59633 0.0
H1666 H 0.38186 0.91754 0.6157 0.0
H1667 H 0.38889 0.90617 0.57744 0.0
H1668 H 0.32596 0.86852 0.58469 0.0
O1669 O 0.38595 0.0013 0.56605 0.0
H1670 H 0.42154 0.01662 0.60924 0.0
H1671 H 0.3882 0.04166 0.57681 0.0
H1672 H 0.38041 0.87983 0.6276 0.0
H1673 H 0.33368 0.90547 0.53727 0.0
H1674 H 0.35118 0.83581 0.61792 0.0
H1675 H 0.36624 0.89212 0.53256 0.0
O1676 O 0.35243 0.93746 0.61001 0.0
H1677 H 0.29848 0.98436 0.56756 0.0
H1678 H 0.35972 0.01371 0.60877 0.0
H1679 H 0.32166 0.01942 0.60986 0.0
H1680 H 0.29074 0.00472 0.58914 0.0
H1681 H 0.33669 0.97885 0.56697 0.0
H1682 H 0.41767 0.08712 0.58359 0.0
H1683 H 0.4494 0.0974 0.60359 0.0
O1684 O 0.3745 0.9809 0.6084 0.0
C1685 C 0.41304 0.96649 0.59 0.0
C1686 C 0.43742 0.05755 0.60777 0.0
C1687 C 0.41861 0.07177 0.58931 0.0
N1688 N 0.403 0.02652 0.59273 0.0
C1689 C 0.4205 0.03201 0.60367 0.0
C1690 C 0.40201 0.046 0.5855 0.0
C1691 C 0.4364 0.07752 0.60053 0.0
C1692 C 0.34344 0.91317 0.56007 0.0
N1693 N 0.35886 0.91347 0.57116 0.0
C1694 C 0.34584 0.90551 0.54603 0.0
C1695 C 0.36414 0.89807 0.54339 0.0
C1696 C 0.37973 0.89833 0.55477 0.0
C1697 C 0.37682 0.90615 0.56866 0.0
C1698 C 0.33659 0.84935 0.60064 0.0
C1699 C 0.36921 0.89846 0.61137 0.0
C1700 C 0.33789 0.87108 0.59411 0.0
N1701 N 0.35418 0.89525 0.59944 0.0
C1702 C 0.36842 0.87717 0.61818 0.0
C1703 C 0.352 0.85247 0.61274 0.0
C1704 C 0.36241 0.95991 0.6157 0.0
C1705 C 0.31184 0.9909 0.57664 0.0
C1706 C 0.34632 0.00721 0.59972 0.0
C1707 C 0.32483 0.01054 0.60039 0.0
C1708 C 0.3075 0.0023 0.58876 0.0
N1709 N 0.35048 0.99608 0.58778 0.0
C1710 C 0.33356 0.98792 0.57634 0.0
Co1711 Co 0.12022 0.4533 0.59173 0.0
Co1712 Co 0.05511 0.41339 0.58648 0.0
O1713 O 0.09117 0.42554 0.58127 0.0
C1714 C 0.13493 0.41242 0.5919 0.0
O1715 O 0.11246 0.3961 0.59767 0.0
C1716 C 0.05877 0.42495 0.55504 0.0
O1717 O 0.08041 0.44622 0.558 0.0
O1718 O 0.06103 0.44918 0.58574 0.0
O1719 O 0.10106 0.47238 0.59482 0.0
H1720 H 0.98327 0.41472 0.61417 0.0
H1721 H 0.12966 0.43823 0.56255 0.0
O1722 O 0.14047 0.43539 0.58883 0.0
H1723 H 0.15497 0.5301 0.55805 0.0
H1724 H 0.21445 0.516 0.60077 0.0
H1725 H 0.12565 0.48278 0.61879 0.0
H1726 H 0.13902 0.50726 0.58147 0.0
H1727 H 0.17733 0.48177 0.58735 0.0
O1728 O 0.04573 0.40927 0.56521 0.0
H1729 H 0.02868 0.42962 0.60779 0.0
H1730 H 0.00462 0.37138 0.57533 0.0
H1731 H 0.16219 0.51715 0.63249 0.0
H1732 H 0.14588 0.46044 0.53897 0.0
H1733 H 0.20698 0.534 0.62349 0.0
H1734 H 0.15854 0.50668 0.53659 0.0
O1735 O 0.10661 0.43476 0.61044 0.0
H1736 H 0.06173 0.33806 0.56756 0.0
H1737 H 0.03023 0.36988 0.60776 0.0
H1738 H 0.02379 0.32584 0.60899 0.0
H1739 H 0.03956 0.30965 0.58878 0.0
H1740 H 0.06793 0.38206 0.56682 0.0
H1741 H 0.95894 0.35598 0.58126 0.0
H1742 H 0.94804 0.37764 0.60085 0.0
O1743 O 0.06365 0.41732 0.60792 0.0
C1744 C 0.0796 0.47009 0.59079 0.0
C1745 C 0.98778 0.40506 0.60565 0.0
C1746 C 0.97412 0.37212 0.58717 0.0
N1747 N 0.01927 0.40122 0.59131 0.0
C1748 C 0.01345 0.41336 0.60203 0.0
C1749 C 1e-05 0.38094 0.58384 0.0
C1750 C 0.96802 0.38428 0.59816 0.0
C1751 C 0.13544 0.45843 0.56165 0.0
N1752 N 0.13342 0.47142 0.57339 0.0
C1753 C 0.14448 0.47088 0.54825 0.0
C1754 C 0.15153 0.4968 0.54692 0.0
C1755 C 0.1495 0.50994 0.55894 0.0
C1756 C 0.14035 0.49687 0.57217 0.0
C1757 C 0.19502 0.50887 0.60479 0.0
C1758 C 0.14507 0.49012 0.61476 0.0
C1759 C 0.17393 0.48946 0.59725 0.0
N1760 N 0.14933 0.48046 0.60221 0.0
C1761 C 0.16569 0.50954 0.62258 0.0
C1762 C 0.19081 0.51896 0.61753 0.0
C1763 C 0.08376 0.42353 0.61562 0.0
C1764 C 0.05471 0.34487 0.57641 0.0
C1765 C 0.0372 0.363 0.59893 0.0
C1766 C 0.03345 0.33802 0.59968 0.0
C1767 C 0.04229 0.32895 0.58833 0.0
N1768 N 0.04932 0.37847 0.58718 0.0
C1769 C 0.05808 0.36973 0.57603 0.0
Co1770 Co 0.35211 0.4496 0.5882 0.0
Co1771 Co 0.38039 0.41155 0.58659 0.0
O1772 O 0.3553 0.42126 0.58001 0.0
C1773 C 0.29736 0.40732 0.59229 0.0
O1774 O 0.30484 0.39564 0.60157 0.0
C1775 C 0.38974 0.42192 0.55513 0.0
O1776 O 0.38798 0.44258 0.5576 0.0
O1777 O 0.40919 0.44801 0.58576 0.0
O1778 O 0.39031 0.47165 0.59027 0.0
H1779 H 0.45314 0.41851 0.61736 0.0
H1780 H 0.32611 0.42643 0.5601 0.0
O1781 O 0.31369 0.42833 0.58613 0.0
H1782 H 0.38647 0.51822 0.54923 0.0
H1783 H 0.31359 0.50747 0.59171 0.0
H1784 H 0.37616 0.48582 0.61298 0.0
H1785 H 0.38296 0.50133 0.57419 0.0
H1786 H 0.3191 0.47256 0.5812 0.0
O1787 O 0.38755 0.40693 0.56563 0.0
H1788 H 0.42137 0.4307 0.60917 0.0
H1789 H 0.39273 0.37121 0.57727 0.0
H1790 H 0.37141 0.52102 0.62376 0.0
H1791 H 0.32873 0.44262 0.53504 0.0
H1792 H 0.33994 0.53205 0.61311 0.0
H1793 H 0.35918 0.48879 0.52946 0.0
O1794 O 0.35036 0.43631 0.60824 0.0
H1795 H 0.30221 0.33246 0.56726 0.0
H1796 H 0.36237 0.36947 0.60873 0.0
H1797 H 0.32639 0.32452 0.61014 0.0
H1798 H 0.29604 0.30572 0.58928 0.0
H1799 H 0.33835 0.37739 0.56637 0.0
H1800 H 0.42433 0.35851 0.58502 0.0
H1801 H 0.45475 0.38217 0.60525 0.0
O1802 O 0.37371 0.41624 0.60763 0.0
C1803 C 0.41023 0.46944 0.5884 0.0
C1804 C 0.43993 0.408 0.60857 0.0
C1805 C 0.42379 0.37434 0.5904 0.0
N1806 N 0.4051 0.40154 0.59284 0.0
C1807 C 0.42186 0.41476 0.60391 0.0
C1808 C 0.40598 0.38165 0.58604 0.0
C1809 C 0.44084 0.38762 0.60175 0.0
C1810 C 0.33916 0.44663 0.5578 0.0
N1811 N 0.35428 0.46293 0.56862 0.0
C1812 C 0.34066 0.45565 0.54357 0.0
C1813 C 0.35778 0.48154 0.54044 0.0
C1814 C 0.37312 0.49806 0.55153 0.0
C1815 C 0.37111 0.48836 0.56563 0.0
C1816 C 0.32743 0.50291 0.59642 0.0
C1817 C 0.36258 0.49065 0.60821 0.0
C1818 C 0.33061 0.48313 0.59053 0.0
N1819 N 0.34815 0.47736 0.59637 0.0
C1820 C 0.35991 0.51053 0.61439 0.0
C1821 C 0.34222 0.51669 0.60842 0.0
C1822 C 0.36109 0.42503 0.61451 0.0
C1823 C 0.31535 0.34041 0.5764 0.0
C1824 C 0.3492 0.36145 0.59963 0.0
C1825 C 0.32889 0.33597 0.60048 0.0
C1826 C 0.31188 0.32543 0.58877 0.0
N1827 N 0.35252 0.37598 0.58745 0.0
C1828 C 0.33589 0.36581 0.57594 0.0
Co1829 Co 0.60021 0.93233 0.59203 0.0
Co1830 Co 0.64119 0.99714 0.58663 0.0
O1831 O 0.62798 0.96097 0.58139 0.0
C1832 C 0.64009 0.91637 0.59166 0.0
O1833 O 0.65682 0.93874 0.59738 0.0
C1834 C 0.62787 0.99403 0.55547 0.0
O1835 O 0.60569 0.97384 0.55904 0.0
O1836 O 0.60574 0.99228 0.58642 0.0
O1837 O 0.58213 0.95231 0.59557 0.0
H1838 H 0.64333 0.07042 0.61464 0.0
H1839 H 0.614 0.92289 0.5625 0.0
O1840 O 0.61722 0.9113 0.58872 0.0
H1841 H 0.5226 0.89974 0.55915 0.0
H1842 H 0.53599 0.83852 0.60116 0.0
H1843 H 0.57191 0.92751 0.61949 0.0
H1844 H 0.54616 0.91471 0.58243 0.0
H1845 H 0.57037 0.87526 0.58757 0.0
O1846 O 0.64481 0.00621 0.56529 0.0
H1847 H 0.62694 0.02471 0.6083 0.0
H1848 H 0.68365 0.04695 0.57506 0.0
H1849 H 0.5374 0.89136 0.63337 0.0
H1850 H 0.59106 0.90771 0.53903 0.0
H1851 H 0.5192 0.84648 0.6242 0.0
H1852 H 0.54506 0.89613 0.53724 0.0
O1853 O 0.61942 0.94557 0.61057 0.0
H1854 H 0.71447 0.988 0.56668 0.0
H1855 H 0.68542 0.02107 0.60746 0.0
H1856 H 0.729 0.02624 0.60815 0.0
H1857 H 0.74379 0.00968 0.58764 0.0
H1858 H 0.67098 0.98308 0.56648 0.0
H1859 H 0.70052 0.09291 0.58095 0.0
H1860 H 0.68038 0.10488 0.60091 0.0
O1861 O 0.63769 0.98865 0.60812 0.0
C1862 C 0.58487 0.97405 0.59175 0.0
C1863 C 0.65232 0.06545 0.60596 0.0
C1864 C 0.68441 0.07807 0.58703 0.0
N1865 N 0.65449 0.03319 0.59143 0.0
C1866 C 0.64318 0.0396 0.60236 0.0
C1867 C 0.67474 0.05203 0.58373 0.0
C1868 C 0.6731 0.08477 0.59824 0.0
C1869 C 0.59389 0.91759 0.56185 0.0
N1870 N 0.58143 0.91961 0.57383 0.0
C1871 C 0.58104 0.90913 0.54851 0.0
C1872 C 0.55524 0.90268 0.54751 0.0
C1873 C 0.54264 0.90473 0.55979 0.0
C1874 C 0.55611 0.91329 0.57294 0.0
C1875 C 0.54372 0.858 0.60524 0.0
C1876 C 0.56396 0.90806 0.61538 0.0
C1877 C 0.56321 0.87888 0.59761 0.0
N1878 N 0.57296 0.90353 0.60266 0.0
C1879 C 0.54448 0.88766 0.62331 0.0
C1880 C 0.5343 0.86248 0.61817 0.0
C1881 C 0.63113 0.9684 0.61578 0.0
C1882 C 0.70828 0.99537 0.57566 0.0
C1883 C 0.6917 0.01376 0.59851 0.0
C1884 C 0.71641 0.01679 0.59895 0.0
C1885 C 0.7247 0.0075 0.58744 0.0
N1886 N 0.67573 0.0019 0.5869 0.0
C1887 C 0.68371 0.99271 0.57559 0.0
Co1888 Co 0.11576 0.69693 0.58915 0.0
Co1889 Co 0.04922 0.66693 0.58726 0.0
O1890 O 0.08391 0.69306 0.58097 0.0
C1891 C 0.12972 0.75199 0.59513 0.0
O1892 O 0.11295 0.74473 0.60584 0.0
C1893 C 0.05107 0.65852 0.55578 0.0
O1894 O 0.07386 0.66118 0.55827 0.0
O1895 O 0.05796 0.63896 0.58631 0.0
O1896 O 0.10058 0.6587 0.59056 0.0
H1897 H 0.98424 0.59193 0.6171 0.0
H1898 H 0.11778 0.72352 0.56143 0.0
O1899 O 0.13211 0.73543 0.58756 0.0
H1900 H 0.15305 0.66673 0.54963 0.0
H1901 H 0.21237 0.73797 0.59331 0.0
H1902 H 0.12834 0.67211 0.61332 0.0
H1903 H 0.13892 0.66854 0.57466 0.0
H1904 H 0.17173 0.73178 0.58275 0.0
O1905 O 0.03784 0.66 0.56626 0.0
H1906 H 0.02798 0.62499 0.60931 0.0
H1907 H 0.99623 0.65338 0.57783 0.0
H1908 H 0.16852 0.6775 0.62413 0.0
H1909 H 0.13205 0.72261 0.53629 0.0
H1910 H 0.21092 0.71063 0.61411 0.0
H1911 H 0.14971 0.69395 0.53024 0.0
O1912 O 0.10352 0.69735 0.60927 0.0
H1913 H 0.04558 0.74396 0.56842 0.0
H1914 H 0.0239 0.68328 0.60953 0.0
H1915 H 0.01337 0.71817 0.61114 0.0
H1916 H 0.02416 0.74877 0.59047 0.0
H1917 H 0.05595 0.70891 0.56732 0.0
H1918 H 0.95212 0.62049 0.58519 0.0
H1919 H 0.94593 0.58955 0.605 0.0
O1920 O 0.06012 0.6732 0.6083 0.0
C1921 C 0.07869 0.63843 0.58866 0.0
C1922 C 0.98668 0.60538 0.6085 0.0
C1923 C 0.96866 0.62138 0.59057 0.0
N1924 N 0.01463 0.64125 0.59324 0.0
C1925 C 0.0114 0.62419 0.60408 0.0
C1926 C 0.99367 0.63993 0.58643 0.0
C1927 C 0.9652 0.60403 0.60169 0.0
C1928 C 0.12573 0.71123 0.55892 0.0
N1929 N 0.12755 0.69613 0.56952 0.0
C1930 C 0.13367 0.71071 0.54465 0.0
C1931 C 0.14352 0.69459 0.54126 0.0
C1932 C 0.14537 0.67928 0.55213 0.0
C1933 C 0.13724 0.6803 0.56627 0.0
C1934 C 0.19401 0.72343 0.59775 0.0
C1935 C 0.14672 0.68646 0.60884 0.0
C1936 C 0.17093 0.71987 0.59184 0.0
N1937 N 0.14767 0.70146 0.59734 0.0
C1938 C 0.1694 0.68947 0.61503 0.0
C1939 C 0.19319 0.70808 0.60942 0.0
C1940 C 0.08131 0.68604 0.61533 0.0
C1941 C 0.04071 0.7307 0.57749 0.0
C1942 C 0.02873 0.69657 0.60051 0.0
C1943 C 0.02267 0.71625 0.60147 0.0
C1944 C 0.02872 0.73341 0.58986 0.0
N1945 N 0.04039 0.69399 0.5883 0.0
C1946 C 0.04646 0.71078 0.5769 0.0
Co1947 Co 0.11558 0.68832 0.75007 0.0
Co1948 Co 0.07601 0.71432 0.75353 0.0
O1949 O 0.08761 0.69045 0.75959 0.0
C1950 C 0.07504 0.63245 0.74867 0.0
O1951 O 0.06075 0.6381 0.74028 0.0
C1952 C 0.08796 0.72504 0.78477 0.0
O1953 O 0.11 0.72631 0.78168 0.0
O1954 O 0.11193 0.74409 0.75408 0.0
O1955 O 0.13543 0.72646 0.74664 0.0
H1956 H 0.07845 0.78635 0.72404 0.0
H1957 H 0.09812 0.66522 0.77944 0.0
O1958 O 0.09672 0.65013 0.75349 0.0
H1959 H 0.19022 0.73036 0.78518 0.0
H1960 H 0.17717 0.65465 0.74397 0.0
H1961 H 0.14709 0.71126 0.72345 0.0
H1962 H 0.16908 0.72278 0.76115 0.0
H1963 H 0.14259 0.65875 0.75612 0.0
O1964 O 0.07157 0.72049 0.77466 0.0
H1965 H 0.09289 0.75591 0.73143 0.0
H1966 H 0.0342 0.72381 0.76375 0.0
H1967 H 0.18187 0.70789 0.71101 0.0
H1968 H 0.11859 0.67199 0.80364 0.0
H1969 H 0.19713 0.67942 0.72128 0.0
H1970 H 0.16493 0.70484 0.80664 0.0
O1971 O 0.0985 0.68346 0.73083 0.0
H1972 H 0.99976 0.63369 0.77308 0.0
H1973 H 0.03305 0.69497 0.7319 0.0
H1974 H 0.98884 0.6576 0.73076 0.0
H1975 H 0.97191 0.62668 0.75147 0.0
H1976 H 0.04393 0.67123 0.77371 0.0
H1977 H 0.01925 0.75405 0.75681 0.0
H1978 H 0.04137 0.78552 0.73677 0.0
O1979 O 0.08041 0.70859 0.73231 0.0
C1980 C 0.13303 0.74595 0.74973 0.0
C1981 C 0.06859 0.77266 0.73275 0.0
C1982 C 0.03539 0.75455 0.75116 0.0
N1983 N 0.06423 0.73796 0.7479 0.0
C1984 C 0.07663 0.75532 0.73694 0.0
C1985 C 0.04396 0.73752 0.75506 0.0
C1986 C 0.0478 0.7722 0.73991 0.0
C1987 C 0.11838 0.67933 0.78062 0.0
N1988 N 0.1324 0.6935 0.76888 0.0
C1989 C 0.12983 0.68317 0.79437 0.0
C1990 C 0.15582 0.70164 0.79604 0.0
C1991 C 0.17001 0.71598 0.78401 0.0
C1992 C 0.15791 0.71164 0.77044 0.0
C1993 C 0.17073 0.66717 0.73941 0.0
C1994 C 0.15375 0.69897 0.72804 0.0
C1995 C 0.15113 0.66954 0.74623 0.0
N1996 N 0.14301 0.68543 0.74057 0.0
C1997 C 0.17339 0.69708 0.72092 0.0
C1998 C 0.18193 0.68108 0.72668 0.0
C1999 C 0.0874 0.6948 0.72508 0.0
C2000 C 0.00689 0.64707 0.764 0.0
C2001 C 0.02584 0.68156 0.74094 0.0
C2002 C 0.00078 0.66047 0.74024 0.0
C2003 C 0.99129 0.64313 0.75187 0.0
N2004 N 0.04099 0.68534 0.7529 0.0
C2005 C 0.03185 0.6684 0.76432 0.0
Co2006 Co 0.35939 0.45691 0.75086 0.0
Co2007 Co 0.33702 0.39143 0.75299 0.0
O2008 O 0.35936 0.42709 0.75941 0.0
C2009 C 0.41488 0.47199 0.74848 0.0
O2010 O 0.40813 0.44972 0.74225 0.0
C2011 C 0.3252 0.39183 0.78414 0.0
O2012 O 0.32342 0.41229 0.78098 0.0
O2013 O 0.30571 0.39531 0.75296 0.0
O2014 O 0.32116 0.43754 0.74904 0.0
H2015 H 0.26909 0.32058 0.72211 0.0
H2016 H 0.38627 0.46253 0.77895 0.0
O2017 O 0.39778 0.47737 0.7526 0.0
H2018 H 0.32019 0.48659 0.78957 0.0
H2019 H 0.38905 0.55166 0.74628 0.0
H2020 H 0.33223 0.46475 0.72605 0.0
H2021 H 0.32535 0.47425 0.76465 0.0
H2022 H 0.38797 0.51344 0.75723 0.0
O2023 O 0.33019 0.38025 0.77405 0.0
H2024 H 0.29729 0.36567 0.73001 0.0
H2025 H 0.32954 0.34083 0.76318 0.0
H2026 H 0.33255 0.50241 0.71484 0.0
H2027 H 0.38193 0.47497 0.80401 0.0
H2028 H 0.36111 0.54625 0.72496 0.0
H2029 H 0.34862 0.487 0.80946 0.0
O2030 O 0.36249 0.44567 0.73093 0.0
H2031 H 0.41854 0.39984 0.77395 0.0
H2032 H 0.35949 0.37033 0.73173 0.0
H2033 H 0.39839 0.36599 0.73123 0.0
H2034 H 0.4282 0.38077 0.75246 0.0
H2035 H 0.37953 0.404 0.77394 0.0
H2036 H 0.30154 0.29544 0.75573 0.0
H2037 H 0.27112 0.2851 0.73501 0.0
O2038 O 0.34358 0.40232 0.73192 0.0
C2039 C 0.30251 0.41452 0.75053 0.0
C2040 C 0.28232 0.32484 0.73112 0.0
C2041 C 0.30051 0.31073 0.75001 0.0
N2042 N 0.31516 0.35586 0.74696 0.0
C2043 C 0.29838 0.35034 0.73561 0.0
C2044 C 0.31627 0.33645 0.7542 0.0
C2045 C 0.28345 0.30494 0.73838 0.0
C2046 C 0.37193 0.46802 0.78121 0.0
N2047 N 0.35615 0.46774 0.77034 0.0
C2048 C 0.36948 0.47494 0.79543 0.0
C2049 C 0.35076 0.48164 0.79848 0.0
C2050 C 0.33479 0.48139 0.78733 0.0
C2051 C 0.33775 0.47432 0.77324 0.0
C2052 C 0.37648 0.53265 0.74179 0.0
C2053 C 0.3446 0.48375 0.73057 0.0
C2054 C 0.37583 0.51095 0.74792 0.0
N2055 N 0.35991 0.48687 0.74235 0.0
C2056 C 0.34475 0.50501 0.72415 0.0
C2057 C 0.3608 0.5296 0.72983 0.0
C2058 C 0.35425 0.42368 0.72488 0.0
C2059 C 0.40566 0.39327 0.76465 0.0
C2060 C 0.37241 0.37687 0.74099 0.0
C2061 C 0.39438 0.37431 0.74066 0.0
C2062 C 0.41109 0.3826 0.75258 0.0
N2063 N 0.36719 0.3873 0.75288 0.0
C2064 C 0.3835 0.39549 0.7646 0.0
Co2065 Co 0.59461 0.93173 0.74859 0.0
Co2066 Co 0.65949 0.97174 0.75447 0.0
O2067 O 0.62326 0.95924 0.75943 0.0
C2068 C 0.57918 0.97213 0.74861 0.0
O2069 O 0.60165 0.98877 0.74297 0.0
C2070 C 0.65529 0.95943 0.78589 0.0
O2071 O 0.63368 0.93824 0.78277 0.0
O2072 O 0.65379 0.93601 0.75495 0.0
O2073 O 0.61413 0.91306 0.74536 0.0
H2074 H 0.73223 0.9716 0.7271 0.0
H2075 H 0.58416 0.94554 0.77788 0.0
O2076 O 0.57395 0.94921 0.7516 0.0
H2077 H 0.55965 0.85377 0.78139 0.0
H2078 H 0.50078 0.86867 0.73864 0.0
H2079 H 0.59014 0.90336 0.72121 0.0
H2080 H 0.57604 0.8775 0.75825 0.0
H2081 H 0.53738 0.90262 0.75251 0.0
O2082 O 0.66843 0.97535 0.77582 0.0
H2083 H 0.68663 0.9563 0.73318 0.0
H2084 H 0.70961 0.01366 0.76609 0.0
H2085 H 0.55413 0.86927 0.70706 0.0
H2086 H 0.56749 0.92242 0.80118 0.0
H2087 H 0.50906 0.85169 0.71576 0.0
H2088 H 0.55523 0.87623 0.80305 0.0
O2089 O 0.60859 0.95097 0.73011 0.0
H2090 H 0.6519 0.04624 0.77384 0.0
H2091 H 0.68467 0.01583 0.73358 0.0
H2092 H 0.69085 0.0598 0.73265 0.0
H2093 H 0.67445 0.07528 0.7529 0.0
H2094 H 0.64596 0.00234 0.77427 0.0
H2095 H 0.75547 0.02945 0.76047 0.0
H2096 H 0.76702 0.00844 0.7408 0.0
O2097 O 0.65146 0.96833 0.73294 0.0
C2098 C 0.6355 0.9153 0.74953 0.0
C2099 C 0.72745 0.98098 0.73566 0.0
C2100 C 0.74049 0.01343 0.7544 0.0
N2101 N 0.69549 0.98424 0.74987 0.0
C2102 C 0.70166 0.97245 0.73911 0.0
C2103 C 0.7145 0.00438 0.75755 0.0
C2104 C 0.74695 0.00163 0.74336 0.0
C2105 C 0.57856 0.92536 0.77856 0.0
N2106 N 0.58105 0.9129 0.7667 0.0
C2107 C 0.56926 0.9124 0.7918 0.0
C2108 C 0.56244 0.8865 0.79285 0.0
C2109 C 0.56495 0.8739 0.78071 0.0
C2110 C 0.57435 0.88747 0.76765 0.0
C2111 C 0.52034 0.87613 0.73475 0.0
C2112 C 0.5706 0.89569 0.72511 0.0
C2113 C 0.54114 0.89539 0.74254 0.0
N2114 N 0.56589 0.9048 0.73774 0.0
C2115 C 0.55028 0.87645 0.71703 0.0
C2116 C 0.52499 0.86661 0.72192 0.0
C2117 C 0.63155 0.96231 0.72509 0.0
C2118 C 0.6592 0.03975 0.76497 0.0
C2119 C 0.67742 0.02241 0.74242 0.0
C2120 C 0.68102 0.04734 0.74184 0.0
C2121 C 0.67182 0.05602 0.75321 0.0
N2122 N 0.66508 0.00659 0.75401 0.0
C2123 C 0.65597 0.01494 0.76518 0.0
H2124 H 0.12488 0.33295 0.05899 0.0
H2125 H 0.10956 0.30912 0.10406 0.0
H2126 H 0.16757 0.33711 0.06099 0.0
H2127 H 0.15257 0.31462 0.10637 0.0
H2128 H 0.20301 0.27911 0.09674 0.0
H2129 H 0.1678 0.2878 0.09762 0.0
H2130 H 0.21096 0.35534 0.07054 0.0
H2131 H 0.24644 0.34595 0.06924 0.0
C2132 C 0.13106 0.32954 0.06947 0.0
C2133 C 0.11387 0.32033 0.08131 0.0
C2134 C 0.15555 0.33199 0.07064 0.0
C2135 C 0.16333 0.32561 0.08376 0.0
C2136 C 0.14694 0.31891 0.09598 0.0
C2137 C 0.12237 0.31595 0.09471 0.0
C2138 C 0.20525 0.29601 0.09106 0.0
C2139 C 0.22749 0.31168 0.08278 0.0
C2140 C 0.18505 0.3012 0.09171 0.0
C2141 C 0.18647 0.32238 0.0842 0.0
C2142 C 0.20914 0.33874 0.07635 0.0
C2143 C 0.22952 0.33348 0.07568 0.0
H2144 H 0.74574 0.9417 0.10558 0.0
H2145 H 0.71942 0.9267 0.06091 0.0
H2146 H 0.73956 0.89837 0.10755 0.0
H2147 H 0.71427 0.88353 0.06261 0.0
H2148 H 0.7027 0.80336 0.07111 0.0
H2149 H 0.69495 0.83988 0.07281 0.0
H2150 H 0.76564 0.88262 0.09743 0.0
H2151 H 0.77292 0.84644 0.09607 0.0
C2152 C 0.73821 0.92891 0.09625 0.0
C2153 C 0.73339 0.93761 0.08304 0.0
C2154 C 0.73481 0.90414 0.09733 0.0
C2155 C 0.72706 0.8877 0.08512 0.0
C2156 C 0.72021 0.89566 0.07224 0.0
C2157 C 0.72321 0.9204 0.07124 0.0
C2158 C 0.71628 0.82043 0.0771 0.0
C2159 C 0.7385 0.82205 0.08337 0.0
C2160 C 0.71192 0.84138 0.078 0.0
C2161 C 0.72962 0.86418 0.08529 0.0
C2162 C 0.7513 0.86527 0.09197 0.0
C2163 C 0.75564 0.84452 0.09105 0.0
H2164 H 0.12705 0.80345 0.07211 0.0
H2165 H 0.10224 0.84855 0.09701 0.0
H2166 H 0.17178 0.83916 0.07349 0.0
H2167 H 0.14602 0.88398 0.09791 0.0
H2168 H 0.22543 0.94268 0.10495 0.0
H2169 H 0.18754 0.89997 0.10754 0.0
H2170 H 0.19758 0.88177 0.0632 0.0
H2171 H 0.23647 0.92416 0.06099 0.0
C2172 C 0.13113 0.82081 0.07798 0.0
C2173 C 0.11103 0.82319 0.08435 0.0
C2174 C 0.15672 0.84132 0.0787 0.0
C2175 C 0.16262 0.8645 0.08584 0.0
C2176 C 0.14248 0.86635 0.09258 0.0
C2177 C 0.11715 0.846 0.09191 0.0
C2178 C 0.21989 0.92925 0.09591 0.0
C2179 C 0.23363 0.93675 0.08272 0.0
C2180 C 0.19806 0.90485 0.09733 0.0
C2181 C 0.18902 0.88763 0.08544 0.0
C2182 C 0.20396 0.89445 0.0726 0.0
C2183 C 0.22622 0.91877 0.0713 0.0
H2184 H 0.26938 0.09715 0.913 0.0
H2185 H 0.34566 0.12616 0.9312 0.0
H2186 H 0.27676 0.14057 0.91129 0.0
H2187 H 0.35347 0.1704 0.92904 0.0
H2188 H 0.33601 0.23683 0.94236 0.0
H2189 H 0.33882 0.19749 0.94056 0.0
H2190 H 0.29971 0.18042 0.89891 0.0
H2191 H 0.29586 0.2189 0.9011 0.0
C2192 C 0.28796 0.11287 0.91646 0.0
C2193 C 0.30686 0.1081 0.92235 0.0
C2194 C 0.29232 0.13795 0.91532 0.0
C2195 C 0.31581 0.15912 0.91993 0.0
C2196 C 0.33509 0.1545 0.92548 0.0
C2197 C 0.33068 0.1292 0.92665 0.0
C2198 C 0.32857 0.22492 0.93268 0.0
C2199 C 0.31534 0.2306 0.92198 0.0
C2200 C 0.33023 0.20241 0.93162 0.0
C2201 C 0.31897 0.18545 0.91974 0.0
C2202 C 0.3079 0.1926 0.90842 0.0
C2203 C 0.30583 0.21474 0.90961 0.0
H2204 H 0.94734 0.20453 0.90867 0.0
H2205 H 0.92513 0.24534 0.93898 0.0
H2206 H 0.90369 0.16852 0.90859 0.0
H2207 H 0.88061 0.20908 0.93859 0.0
H2208 H 0.82071 0.12189 0.95042 0.0
H2209 H 0.85823 0.16512 0.94794 0.0
H2210 H 0.8602 0.15258 0.90161 0.0
H2211 H 0.82353 0.1091 0.90425 0.0
C2212 C 0.93298 0.20603 0.91513 0.0
C2213 C 0.93981 0.22773 0.92395 0.0
C2214 C 0.90775 0.18538 0.91497 0.0
C2215 C 0.8885 0.18583 0.92357 0.0
C2216 C 0.89503 0.20803 0.93194 0.0
C2217 C 0.92046 0.22886 0.93208 0.0
C2218 C 0.82882 0.12865 0.93967 0.0
C2219 C 0.81954 0.11201 0.92758 0.0
C2220 C 0.85028 0.15348 0.93822 0.0
C2221 C 0.86261 0.16215 0.92462 0.0
C2222 C 0.85166 0.14627 0.91232 0.0
C2223 C 0.83055 0.1214 0.91381 0.0
H2224 H 0.80966 0.71195 0.94527 0.0
H2225 H 0.8315 0.74716 0.90264 0.0
H2226 H 0.84685 0.70506 0.94508 0.0
H2227 H 0.868 0.73945 0.90228 0.0
H2228 H 0.92348 0.7058 0.90543 0.0
H2229 H 0.87914 0.69852 0.90564 0.0
H2230 H 0.8977 0.74778 0.9434 0.0
H2231 H 0.942 0.75585 0.94286 0.0
C2232 C 0.82186 0.71736 0.93567 0.0
C2233 C 0.81786 0.73017 0.92399 0.0
C2234 C 0.84308 0.71347 0.93558 0.0
C2235 C 0.86008 0.72164 0.92364 0.0
C2236 C 0.85496 0.73272 0.91152 0.0
C2237 C 0.8342 0.73723 0.91177 0.0
C2238 C 0.91782 0.71458 0.91393 0.0
C2239 C 0.93601 0.73141 0.92411 0.0
C2240 C 0.89259 0.71046 0.91403 0.0
C2241 C 0.88512 0.72245 0.92461 0.0
C2242 C 0.90296 0.73808 0.93527 0.0
C2243 C 0.92827 0.74278 0.93491 0.0
H2244 H 0.79059 0.66694 0.39176 0.0
H2245 H 0.77511 0.64527 0.43715 0.0
H2246 H 0.833 0.67057 0.39409 0.0
H2247 H 0.81779 0.65002 0.4397 0.0
H2248 H 0.86635 0.61189 0.43037 0.0
H2249 H 0.83178 0.62165 0.43106 0.0
H2250 H 0.87652 0.68899 0.4041 0.0
H2251 H 0.91136 0.67867 0.40309 0.0
C2252 C 0.79667 0.66391 0.40236 0.0
C2253 C 0.77948 0.65541 0.41422 0.0
C2254 C 0.821 0.66604 0.40372 0.0
C2255 C 0.82858 0.66 0.41701 0.0
C2256 C 0.81228 0.65408 0.4292 0.0
C2257 C 0.78789 0.65153 0.42778 0.0
C2258 C 0.86906 0.62898 0.4247 0.0
C2259 C 0.89155 0.64436 0.41655 0.0
C2260 C 0.84925 0.63477 0.42522 0.0
C2261 C 0.85133 0.6562 0.41768 0.0
C2262 C 0.87424 0.67224 0.40995 0.0
C2263 C 0.89424 0.66642 0.40944 0.0
H2264 H 0.41973 0.27872 0.43914 0.0
H2265 H 0.38622 0.2586 0.39608 0.0
H2266 H 0.41409 0.23574 0.44198 0.0
H2267 H 0.38166 0.21578 0.39857 0.0
H2268 H 0.37079 0.13645 0.40879 0.0
H2269 H 0.364 0.17359 0.40996 0.0
H2270 H 0.43777 0.21795 0.43151 0.0
H2271 H 0.44407 0.18114 0.43076 0.0
C2272 C 0.41083 0.26491 0.43035 0.0
C2273 C 0.40372 0.27203 0.41732 0.0
C2274 C 0.40774 0.24033 0.43192 0.0
C2275 C 0.39804 0.22248 0.42036 0.0
C2276 C 0.38913 0.22898 0.40772 0.0
C2277 C 0.3918 0.25354 0.40625 0.0
C2278 C 0.38529 0.15404 0.41399 0.0
C2279 C 0.40803 0.15585 0.41961 0.0
C2280 C 0.38148 0.17536 0.41458 0.0
C2281 C 0.40029 0.19879 0.42086 0.0
C2282 C 0.42258 0.20015 0.42685 0.0
C2283 C 0.42634 0.179 0.42629 0.0
H2284 H 0.89106 0.27033 0.43698 0.0
H2285 H 0.89759 0.25592 0.39145 0.0
H2286 H 0.85325 0.22749 0.43928 0.0
H2287 H 0.85898 0.21332 0.39355 0.0
H2288 H 0.78971 0.13394 0.40247 0.0
H2289 H 0.83453 0.16956 0.40339 0.0
H2290 H 0.8107 0.21289 0.43066 0.0
H2291 H 0.76669 0.17756 0.43006 0.0
C2292 C 0.88463 0.25777 0.42752 0.0
C2293 C 0.89702 0.26655 0.414 0.0
C2294 C 0.86286 0.23329 0.4288 0.0
C2295 C 0.85266 0.21719 0.41651 0.0
C2296 C 0.86632 0.22516 0.40325 0.0
C2297 C 0.88843 0.2496 0.40202 0.0
C2298 C 0.79423 0.15094 0.40886 0.0
C2299 C 0.7746 0.15298 0.4161 0.0
C2300 C 0.81986 0.17138 0.40931 0.0
C2301 C 0.82629 0.1941 0.41712 0.0
C2302 C 0.80668 0.19558 0.42476 0.0
C2303 C 0.78126 0.17532 0.42429 0.0
H2304 H 0.9976 0.4572 0.28307 0.0
H2305 H 0.98167 0.44473 0.23694 0.0
H2306 H 0.00253 0.50017 0.28084 0.0
H2307 H 0.98791 0.48803 0.23449 0.0
H2308 H 0.95078 0.53793 0.24181 0.0
H2309 H 0.95975 0.50285 0.24153 0.0
H2310 H 0.02262 0.54416 0.27191 0.0
H2311 H 0.01293 0.57946 0.27254 0.0
C2312 C 0.99613 0.46406 0.27236 0.0
C2313 C 0.98885 0.44758 0.26021 0.0
C2314 C 0.99902 0.48872 0.27106 0.0
C2315 C 0.99502 0.49737 0.25753 0.0
C2316 C 0.99035 0.48171 0.24515 0.0
C2317 C 0.98696 0.45697 0.24651 0.0
C2318 C 0.96674 0.5398 0.24834 0.0
C2319 C 0.98095 0.56141 0.25733 0.0
C2320 C 0.97211 0.5197 0.24804 0.0
C2321 C 0.99199 0.5206 0.25667 0.0
C2322 C 0.00702 0.54274 0.26523 0.0
C2323 C 0.0016 0.56303 0.26552 0.0
H2324 H 0.59169 0.56793 0.27861 0.0
H2325 H 0.61042 0.5562 0.23483 0.0
H2326 H 0.5495 0.52873 0.27656 0.0
H2327 H 0.56794 0.51795 0.23243 0.0
H2328 H 0.51681 0.43283 0.24337 0.0
H2329 H 0.55227 0.47662 0.24251 0.0
H2330 H 0.50688 0.50262 0.26613 0.0
H2331 H 0.4711 0.45791 0.26745 0.0
C2332 C 0.58639 0.55745 0.26837 0.0
C2333 C 0.60438 0.56479 0.25696 0.0
C2334 C 0.56219 0.53502 0.26717 0.0
C2335 C 0.55551 0.5198 0.25444 0.0
C2336 C 0.57272 0.52871 0.24256 0.0
C2337 C 0.597 0.55074 0.24387 0.0
C2338 C 0.51414 0.44779 0.24832 0.0
C2339 C 0.49111 0.44175 0.2556 0.0
C2340 C 0.53451 0.47312 0.24767 0.0
C2341 C 0.53249 0.49333 0.25416 0.0
C2342 C 0.50916 0.4875 0.2611 0.0
C2343 C 0.48862 0.46192 0.26179 0.0
H2344 H 0.51582 0.11252 0.2451 0.0
H2345 H 0.47008 0.03756 0.26519 0.0
H2346 H 0.55231 0.10577 0.24376 0.0
H2347 H 0.50692 0.03038 0.26342 0.0
H2348 H 0.59162 0.05055 0.27682 0.0
H2349 H 0.54903 0.04669 0.2748 0.0
H2350 H 0.56952 0.08239 0.23217 0.0
H2351 H 0.61227 0.0873 0.23456 0.0
C2352 C 0.51339 0.09435 0.24905 0.0
C2353 C 0.49002 0.07566 0.25536 0.0
C2354 C 0.53435 0.09035 0.24813 0.0
C2355 C 0.53259 0.06743 0.2534 0.0
C2356 C 0.50898 0.04832 0.25936 0.0
C2357 C 0.48785 0.05238 0.2603 0.0
C2358 C 0.58671 0.05698 0.26689 0.0
C2359 C 0.60529 0.0696 0.25595 0.0
C2360 C 0.56229 0.05473 0.26571 0.0
C2361 C 0.55604 0.06477 0.25346 0.0
C2362 C 0.57394 0.07516 0.24195 0.0
C2363 C 0.59838 0.07782 0.24326 0.0
H2364 H 0.45521 0.99985 0.72793 0.0
H2365 H 0.43827 0.97093 0.77208 0.0
H2366 H 0.49809 0.00441 0.72986 0.0
H2367 H 0.48134 0.97657 0.77431 0.0
H2368 H 0.53378 0.94393 0.76294 0.0
H2369 H 0.4976 0.95119 0.7641 0.0
H2370 H 0.54123 0.02278 0.74036 0.0
H2371 H 0.57775 0.01501 0.73881 0.0
C2372 C 0.46101 0.99534 0.73821 0.0
C2373 C 0.44334 0.98465 0.74977 0.0
C2374 C 0.4856 0.998 0.73934 0.0
C2375 C 0.49297 0.99031 0.75214 0.0
C2376 C 0.47604 0.98196 0.76415 0.0
C2377 C 0.45142 0.97889 0.76292 0.0
C2378 C 0.5359 0.9614 0.75806 0.0
C2379 C 0.55863 0.97878 0.75066 0.0
C2380 C 0.51513 0.96573 0.75887 0.0
C2381 C 0.51645 0.98767 0.75239 0.0
C2382 C 0.53951 0.00559 0.74538 0.0
C2383 C 0.56047 0.00123 0.74457 0.0
H2384 H 0.11229 0.51638 0.76108 0.0
H2385 H 0.03568 0.46981 0.74314 0.0
H2386 H 0.1058 0.55304 0.76243 0.0
H2387 H 0.02879 0.50682 0.74493 0.0
H2388 H 0.04707 0.59056 0.73101 0.0
H2389 H 0.04392 0.54829 0.73308 0.0
H2390 H 0.08362 0.57101 0.77454 0.0
H2391 H 0.08775 0.61342 0.77209 0.0
C2392 C 0.09383 0.51381 0.75761 0.0
C2393 C 0.07457 0.49013 0.7519 0.0
C2394 C 0.08999 0.53489 0.75853 0.0
C2395 C 0.06668 0.53294 0.75387 0.0
C2396 C 0.04705 0.50904 0.74851 0.0
C2397 C 0.05094 0.48781 0.74756 0.0
C2398 C 0.05459 0.58623 0.7407 0.0
C2399 C 0.06802 0.60535 0.75127 0.0
C2400 C 0.05274 0.56199 0.74192 0.0
C2401 C 0.06402 0.55641 0.75384 0.0
C2402 C 0.0754 0.57488 0.76501 0.0
C2403 C 0.07762 0.59914 0.76366 0.0
H2404 H 0.45787 0.47265 0.73704 0.0
H2405 H 0.43411 0.51714 0.76333 0.0
H2406 H 0.50265 0.50837 0.73803 0.0
H2407 H 0.47801 0.55255 0.76395 0.0
H2408 H 0.55788 0.61034 0.77071 0.0
H2409 H 0.5201 0.56751 0.77312 0.0
H2410 H 0.52767 0.55174 0.7279 0.0
H2411 H 0.56636 0.59432 0.72576 0.0
C2412 C 0.46221 0.48987 0.74314 0.0
C2413 C 0.44239 0.4921 0.75002 0.0
C2414 C 0.48781 0.51037 0.74364 0.0
C2415 C 0.49401 0.53334 0.75111 0.0
C2416 C 0.47419 0.53505 0.75834 0.0
C2417 C 0.44882 0.51473 0.75785 0.0
C2418 C 0.55185 0.59742 0.76141 0.0
C2419 C 0.56478 0.60569 0.748 0.0
C2420 C 0.5301 0.57295 0.76274 0.0
C2421 C 0.5204 0.55642 0.75059 0.0
C2422 C 0.5346 0.56392 0.73749 0.0
C2423 C 0.55675 0.58834 0.73623 0.0
H2424 H 0.63815 0.77515 0.56814 0.0
H2425 H 0.66573 0.7913 0.61257 0.0
H2426 H 0.64441 0.81847 0.5659 0.0
H2427 H 0.67094 0.83446 0.61059 0.0
H2428 H 0.68264 0.91452 0.60162 0.0
H2429 H 0.6901 0.8778 0.6001 0.0
H2430 H 0.61889 0.83481 0.57596 0.0
H2431 H 0.6119 0.87119 0.57712 0.0
C2432 C 0.64597 0.78819 0.57736 0.0
C2433 C 0.65114 0.77982 0.59059 0.0
C2434 C 0.64941 0.81295 0.57612 0.0
C2435 C 0.65754 0.82974 0.58818 0.0
C2436 C 0.6647 0.82208 0.60107 0.0
C2437 C 0.66167 0.79733 0.60223 0.0
C2438 C 0.66888 0.89735 0.59577 0.0
C2439 C 0.64661 0.89573 0.58958 0.0
C2440 C 0.67307 0.87628 0.59498 0.0
C2441 C 0.65514 0.85334 0.58788 0.0
C2442 C 0.6334 0.85225 0.58128 0.0
C2443 C 0.62924 0.87313 0.58208 0.0
H2444 H 0.15528 0.77521 0.57019 0.0
H2445 H 0.14863 0.7906 0.61554 0.0
H2446 H 0.19369 0.8176 0.56785 0.0
H2447 H 0.18781 0.83275 0.61339 0.0
H2448 H 0.25805 0.91146 0.60421 0.0
H2449 H 0.21299 0.87631 0.60333 0.0
H2450 H 0.23601 0.83156 0.57672 0.0
H2451 H 0.28026 0.86642 0.57729 0.0
C2452 C 0.16181 0.78789 0.5796 0.0
C2453 C 0.14919 0.77951 0.59309 0.0
C2454 C 0.18393 0.81212 0.57829 0.0
C2455 C 0.19424 0.82834 0.59052 0.0
C2456 C 0.18039 0.8208 0.60374 0.0
C2457 C 0.15795 0.79661 0.60499 0.0
C2458 C 0.25331 0.89425 0.59799 0.0
C2459 C 0.27277 0.89168 0.59091 0.0
C2460 C 0.22755 0.87408 0.59755 0.0
C2461 C 0.22082 0.85111 0.58993 0.0
C2462 C 0.24028 0.84908 0.58247 0.0
C2463 C 0.26582 0.86907 0.58293 0.0
H2464 H 0.27446 0.41161 0.5678 0.0
H2465 H 0.25822 0.38384 0.61219 0.0
H2466 H 0.23133 0.40586 0.56566 0.0
H2467 H 0.21532 0.37924 0.61035 0.0
H2468 H 0.13593 0.36941 0.6019 0.0
H2469 H 0.17201 0.36099 0.60016 0.0
H2470 H 0.21566 0.43179 0.57573 0.0
H2471 H 0.17992 0.43968 0.57709 0.0
C2472 C 0.26143 0.40386 0.57703 0.0
C2473 C 0.26972 0.39848 0.59022 0.0
C2474 C 0.23678 0.40072 0.57585 0.0
C2475 C 0.22007 0.39275 0.58796 0.0
C2476 C 0.22763 0.38536 0.6008 0.0
C2477 C 0.25224 0.38805 0.60188 0.0
C2478 C 0.15311 0.38286 0.59595 0.0
C2479 C 0.15511 0.4053 0.58973 0.0
C2480 C 0.17381 0.37812 0.59502 0.0
C2481 C 0.19675 0.39565 0.58777 0.0
C2482 C 0.1982 0.41754 0.58115 0.0
C2483 C 0.17769 0.42224 0.58207 0.0
H2484 H 0.96378 0.31404 0.1278 0.0
H2485 H 0.01679 0.28963 0.14229 0.0
H2486 H 0.9561 0.32124 0.15297 0.0
H2487 H 0.01136 0.29913 0.1674 0.0
H2488 H 0.97966 0.29485 0.21272 0.0
H2489 H 0.9868 0.28696 0.18756 0.0
H2490 H 0.96927 0.34556 0.17317 0.0
H2491 H 0.95978 0.35126 0.19821 0.0
C2492 C 0.97415 0.31071 0.13644 0.0
C2493 C 0.99073 0.30118 0.13318 0.0
C2494 C 0.97 0.31506 0.15093 0.0
C2495 C 0.98309 0.31088 0.1625 0.0
C2496 C 0.00026 0.30196 0.15903 0.0
C2497 C 0.00366 0.29674 0.14458 0.0
C2498 C 0.97732 0.3059 0.20409 0.0
C2499 C 0.96903 0.3235 0.20732 0.0
C2500 C 0.98164 0.30162 0.18961 0.0
C2501 C 0.97865 0.31554 0.17805 0.0
C2502 C 0.97108 0.33378 0.18152 0.0
C2503 C 0.96588 0.33733 0.19593 0.0
H2504 H 0.71671 0.67772 0.12768 0.0
H2505 H 0.78332 0.74917 0.14142 0.0
H2506 H 0.70826 0.66321 0.15306 0.0
H2507 H 0.7748 0.73462 0.16675 0.0
H2508 H 0.73458 0.70946 0.21167 0.0
H2509 H 0.74129 0.72434 0.18633 0.0
H2510 H 0.73015 0.65058 0.17217 0.0
H2511 H 0.72347 0.63568 0.19742 0.0
C2512 C 0.7295 0.69035 0.13611 0.0
C2513 C 0.75075 0.71455 0.13253 0.0
C2514 C 0.72472 0.68199 0.15063 0.0
C2515 C 0.74089 0.69777 0.16189 0.0
C2516 C 0.76188 0.72213 0.15833 0.0
C2517 C 0.76684 0.73037 0.1438 0.0
C2518 C 0.73351 0.69641 0.20314 0.0
C2519 C 0.72859 0.67143 0.20656 0.0
C2520 C 0.73747 0.70498 0.18865 0.0
C2521 C 0.73624 0.68862 0.17727 0.0
C2522 C 0.73098 0.66354 0.18069 0.0
C2523 C 0.72733 0.65508 0.19517 0.0
H2524 H 0.37632 0.06774 0.12885 0.0
H2525 H 0.30129 0.05436 0.14221 0.0
H2526 H 0.39027 0.07437 0.15436 0.0
H2527 H 0.31524 0.06089 0.16764 0.0
H2528 H 0.34232 0.04781 0.21247 0.0
H2529 H 0.32845 0.03929 0.18696 0.0
H2530 H 0.39862 0.10784 0.17386 0.0
H2531 H 0.41248 0.11645 0.19928 0.0
C2532 C 0.3628 0.06613 0.13722 0.0
C2533 C 0.33775 0.06064 0.13351 0.0
C2534 C 0.37082 0.07003 0.15181 0.0
C2535 C 0.35384 0.06815 0.16298 0.0
C2536 C 0.32867 0.06224 0.15928 0.0
C2537 C 0.32076 0.05868 0.1447 0.0
C2538 C 0.35479 0.06103 0.20414 0.0
C2539 C 0.37844 0.08286 0.2079 0.0
C2540 C 0.34681 0.0562 0.18956 0.0
C2541 C 0.36247 0.0729 0.17843 0.0
C2542 C 0.38626 0.09452 0.18218 0.0
C2543 C 0.39409 0.09953 0.19676 0.0
H2544 H 0.26202 0.99004 0.86412 0.0
H2545 H 0.32957 0.98698 0.87787 0.0
H2546 H 0.27038 0.98347 0.83883 0.0
H2547 H 0.33786 0.98043 0.85259 0.0
H2548 H 0.32303 0.93626 0.80902 0.0
H2549 H 0.31599 0.94503 0.83406 0.0
H2550 H 0.30357 0.00634 0.81892 0.0
H2551 H 0.31065 0.9976 0.79374 0.0
C2552 C 0.27866 0.98801 0.86175 0.0
C2553 C 0.29506 0.98891 0.87302 0.0
C2554 C 0.28353 0.98443 0.84726 0.0
C2555 C 0.30473 0.98137 0.84374 0.0
C2556 C 0.32123 0.98247 0.85499 0.0
C2557 C 0.31653 0.98634 0.86946 0.0
C2558 C 0.31879 0.95162 0.811 0.0
C2559 C 0.31733 0.96619 0.79938 0.0
C2560 C 0.31493 0.95674 0.82536 0.0
C2561 C 0.30926 0.97638 0.82845 0.0
C2562 C 0.30773 0.99096 0.81685 0.0
C2563 C 0.3119 0.98603 0.80245 0.0
H2564 H 0.11705 0.41374 0.80887 0.0
H2565 H 0.04965 0.34294 0.79514 0.0
H2566 H 0.10898 0.39867 0.83413 0.0
H2567 H 0.04169 0.32791 0.82042 0.0
H2568 H 0.05758 0.29942 0.86431 0.0
H2569 H 0.06423 0.3148 0.83914 0.0
H2570 H 0.07526 0.38824 0.85385 0.0
H2571 H 0.06852 0.37288 0.87909 0.0
C2572 C 0.10052 0.39497 0.81124 0.0
C2573 C 0.08404 0.37949 0.79999 0.0
C2574 C 0.09582 0.38644 0.82571 0.0
C2575 C 0.07474 0.36211 0.82923 0.0
C2576 C 0.05822 0.34666 0.818 0.0
C2577 C 0.06271 0.35532 0.80355 0.0
C2578 C 0.06142 0.31885 0.86219 0.0
C2579 C 0.0626 0.33497 0.8737 0.0
C2580 C 0.06506 0.32758 0.84777 0.0
C2581 C 0.07026 0.35271 0.84454 0.0
C2582 C 0.07147 0.36885 0.85604 0.0
C2583 C 0.0675 0.36001 0.87047 0.0
H2584 H 0.63664 0.72626 0.80781 0.0
H2585 H 0.70936 0.73544 0.79292 0.0
H2586 H 0.652 0.73259 0.83292 0.0
H2587 H 0.72468 0.74169 0.81817 0.0
H2588 H 0.7514 0.78291 0.86307 0.0
H2589 H 0.73645 0.77482 0.83782 0.0
H2590 H 0.66375 0.71031 0.85184 0.0
H2591 H 0.67861 0.71843 0.87713 0.0
C2592 C 0.65591 0.72962 0.80989 0.0
C2593 C 0.67183 0.73046 0.79835 0.0
C2594 C 0.66463 0.73306 0.8243 0.0
C2595 C 0.68953 0.73762 0.82752 0.0
C2596 C 0.70547 0.73842 0.816 0.0
C2597 C 0.69665 0.73473 0.80156 0.0
C2598 C 0.73223 0.76698 0.86078 0.0
C2599 C 0.71613 0.75139 0.87212 0.0
C2600 C 0.72375 0.76224 0.84629 0.0
C2601 C 0.69892 0.74196 0.84284 0.0
C2602 C 0.6829 0.72625 0.85418 0.0
C2603 C 0.69145 0.73083 0.86865 0.0
H2604 H 0.05301 0.78083 0.86427 0.0
H2605 H 0.06483 0.71883 0.87896 0.0
H2606 H 0.06034 0.77266 0.83911 0.0
H2607 H 0.07208 0.71066 0.85377 0.0
H2608 H 0.11444 0.72664 0.8094 0.0
H2609 H 0.10554 0.73339 0.8345 0.0
H2610 H 0.03964 0.73856 0.81985 0.0
H2611 H 0.04854 0.73186 0.79467 0.0
C2612 C 0.05715 0.76545 0.86214 0.0
C2613 C 0.05845 0.75055 0.87363 0.0
C2614 C 0.06117 0.76066 0.84771 0.0
C2615 C 0.06682 0.74104 0.84445 0.0
C2616 C 0.06801 0.72608 0.85594 0.0
C2617 C 0.06374 0.73068 0.87036 0.0
C2618 C 0.09804 0.72921 0.81151 0.0
C2619 C 0.08224 0.7288 0.80002 0.0
C2620 C 0.09285 0.73291 0.82591 0.0
C2621 C 0.07189 0.73651 0.82916 0.0
C2622 C 0.05607 0.73607 0.81768 0.0
C2623 C 0.0611 0.7321 0.80327 0.0
H2624 H 0.32514 0.41764 0.80868 0.0
H2625 H 0.318 0.34553 0.79427 0.0
H2626 H 0.31921 0.40271 0.83391 0.0
H2627 H 0.31199 0.33059 0.8196 0.0
H2628 H 0.26968 0.30377 0.86435 0.0
H2629 H 0.27796 0.31865 0.83908 0.0
H2630 H 0.34227 0.39144 0.85311 0.0
H2631 H 0.33406 0.37656 0.87846 0.0
C2632 C 0.3223 0.39859 0.81089 0.0
C2633 C 0.32192 0.38271 0.79945 0.0
C2634 C 0.3191 0.39013 0.82537 0.0
C2635 C 0.31513 0.36549 0.82874 0.0
C2636 C 0.31481 0.34961 0.81732 0.0
C2637 C 0.31835 0.3582 0.80283 0.0
C2638 C 0.28562 0.32295 0.86206 0.0
C2639 C 0.30115 0.33904 0.87343 0.0
C2640 C 0.29046 0.33138 0.84757 0.0
C2641 C 0.31074 0.35621 0.84411 0.0
C2642 C 0.32636 0.37228 0.85546 0.0
C2643 C 0.32173 0.36372 0.86996 0.0
H2644 H 0.67204 0.95731 0.88064 0.0
H2645 H 0.74641 0.01714 0.8656 0.0
H2646 H 0.65613 0.9491 0.85562 0.0
H2647 H 0.73022 0.01112 0.84079 0.0
H2648 H 0.70474 0.98041 0.79544 0.0
H2649 H 0.72 0.98749 0.82049 0.0
H2650 H 0.64175 0.95954 0.83561 0.0
H2651 H 0.62657 0.95019 0.81051 0.0
C2652 C 0.68478 0.96903 0.87193 0.0
C2653 C 0.71044 0.98767 0.87495 0.0
C2654 C 0.67566 0.96455 0.85753 0.0
C2655 C 0.69177 0.97929 0.84587 0.0
C2656 C 0.71727 0.99864 0.84918 0.0
C2657 C 0.72659 0.0024 0.86348 0.0
C2658 C 0.6909 0.97575 0.80419 0.0
C2659 C 0.66453 0.96471 0.8011 0.0
C2660 C 0.69963 0.98005 0.81864 0.0
C2661 C 0.68229 0.97434 0.83038 0.0
C2662 C 0.65582 0.9637 0.8271 0.0
C2663 C 0.64703 0.95853 0.81266 0.0
H2664 H 0.78258 0.05899 0.14262 0.0
H2665 H 0.72032 0.06961 0.127 0.0
H2666 H 0.77345 0.06605 0.16757 0.0
H2667 H 0.71115 0.07661 0.15209 0.0
H2668 H 0.72566 0.11849 0.19684 0.0
H2669 H 0.73261 0.10981 0.17172 0.0
H2670 H 0.73901 0.04459 0.18636 0.0
H2671 H 0.73217 0.05329 0.21153 0.0
C2672 C 0.76693 0.06284 0.1445 0.0
C2673 C 0.75224 0.06385 0.1328 0.0
C2674 C 0.76159 0.06669 0.15883 0.0
C2675 C 0.74156 0.07186 0.16181 0.0
C2676 C 0.72684 0.07288 0.15012 0.0
C2677 C 0.73203 0.06876 0.13577 0.0
C2678 C 0.72853 0.10228 0.19471 0.0
C2679 C 0.72851 0.08667 0.20621 0.0
C2680 C 0.73233 0.09721 0.1803 0.0
C2681 C 0.73641 0.07656 0.17706 0.0
C2682 C 0.73618 0.06082 0.18854 0.0
C2683 C 0.73215 0.06573 0.20294 0.0
H2684 H 0.01477 0.75253 0.1433 0.0
H2685 H 0.96247 0.67574 0.12762 0.0
H2686 H 0.00848 0.73647 0.1682 0.0
H2687 H 0.95378 0.65972 0.15255 0.0
H2688 H 0.9761 0.7071 0.2131 0.0
H2689 H 0.98384 0.72322 0.18817 0.0
H2690 H 0.96554 0.6474 0.17271 0.0
H2691 H 0.95533 0.63114 0.19754 0.0
C2692 C 0.00159 0.73219 0.14529 0.0
C2693 C 0.98915 0.71532 0.13363 0.0
C2694 C 0.99767 0.7229 0.15962 0.0
C2695 C 0.9804 0.69662 0.1627 0.0
C2696 C 0.96776 0.67989 0.15084 0.0
C2697 C 0.97247 0.68906 0.13648 0.0
C2698 C 0.9737 0.69401 0.20427 0.0
C2699 C 0.965 0.66792 0.20714 0.0
C2700 C 0.97838 0.70324 0.18992 0.0
C2701 C 0.97542 0.68678 0.17811 0.0
C2702 C 0.96738 0.66071 0.18123 0.0
C2703 C 0.96176 0.65133 0.19553 0.0
H2704 H 0.29575 0.28527 0.14269 0.0
H2705 H 0.37256 0.30825 0.12768 0.0
H2706 H 0.3114 0.2956 0.16764 0.0
H2707 H 0.38812 0.31611 0.15269 0.0
H2708 H 0.33995 0.29386 0.21309 0.0
H2709 H 0.32403 0.285 0.18811 0.0
H2710 H 0.40053 0.34067 0.17258 0.0
H2711 H 0.41649 0.34711 0.19747 0.0
C2712 C 0.316 0.29221 0.14484 0.0
C2713 C 0.333 0.29606 0.13333 0.0
C2714 C 0.32505 0.29791 0.15921 0.0
C2715 C 0.35121 0.3067 0.16251 0.0
C2716 C 0.36805 0.31015 0.15082 0.0
C2717 C 0.35913 0.30537 0.1364 0.0
C2718 C 0.35322 0.30405 0.20424 0.0
C2719 C 0.3794 0.321 0.20712 0.0
C2720 C 0.34411 0.29922 0.18985 0.0
C2721 C 0.36083 0.31199 0.178 0.0
C2722 C 0.38699 0.32968 0.18113 0.0
C2723 C 0.39621 0.3337 0.19547 0.0
H2724 H 0.59937 0.65877 0.53062 0.0
H2725 H 0.66351 0.65022 0.54505 0.0
H2726 H 0.60807 0.65247 0.50543 0.0
H2727 H 0.6723 0.64409 0.51975 0.0
H2728 H 0.65794 0.6029 0.47507 0.0
H2729 H 0.65109 0.61098 0.5003 0.0
H2730 H 0.64141 0.67455 0.48623 0.0
H2731 H 0.64808 0.6664 0.46091 0.0
C2732 C 0.61535 0.65556 0.52842 0.0
C2733 C 0.63068 0.65486 0.53986 0.0
C2734 C 0.62045 0.65216 0.51396 0.0
C2735 C 0.64087 0.64779 0.5106 0.0
C2736 C 0.65627 0.64717 0.52202 0.0
C2737 C 0.6513 0.6508 0.5365 0.0
C2738 C 0.65433 0.61861 0.47734 0.0
C2739 C 0.65341 0.63393 0.46597 0.0
C2740 C 0.65061 0.62335 0.49181 0.0
C2741 C 0.6457 0.64339 0.49525 0.0
C2742 C 0.64491 0.6588 0.4839 0.0
C2743 C 0.64883 0.6542 0.46941 0.0
H2744 H 0.44883 0.07714 0.47602 0.0
H2745 H 0.38153 0.0066 0.46191 0.0
H2746 H 0.44027 0.06193 0.50123 0.0
H2747 H 0.37309 0.99138 0.48719 0.0
H2748 H 0.38878 0.96287 0.53134 0.0
H2749 H 0.39531 0.97812 0.50613 0.0
H2750 H 0.40624 0.05157 0.52074 0.0
H2751 H 0.39959 0.03633 0.54601 0.0
C2752 C 0.43221 0.05838 0.47829 0.0
C2753 C 0.4159 0.04302 0.46696 0.0
C2754 C 0.42723 0.04977 0.49275 0.0
C2755 C 0.40603 0.02548 0.49617 0.0
C2756 C 0.38969 0.01011 0.48485 0.0
C2757 C 0.39446 0.01887 0.4704 0.0
C2758 C 0.39254 0.98227 0.52919 0.0
C2759 C 0.39377 0.99844 0.54068 0.0
C2760 C 0.39611 0.99092 0.51474 0.0
C2761 C 0.40131 0.01603 0.51148 0.0
C2762 C 0.40246 0.03219 0.52295 0.0
C2763 C 0.39854 0.02342 0.5374 0.0
H2764 H 0.04246 0.42266 0.46022 0.0
H2765 H 0.9678 0.3639 0.47559 0.0
H2766 H 0.05818 0.43208 0.48524 0.0
H2767 H 0.98382 0.37112 0.50048 0.0
H2768 H 0.08746 0.43269 0.5306 0.0
H2769 H 0.07229 0.42217 0.50555 0.0
H2770 H 0.99417 0.39595 0.52035 0.0
H2771 H 0.00941 0.40417 0.54542 0.0
C2772 C 0.02961 0.41143 0.46902 0.0
C2773 C 0.00394 0.39273 0.46608 0.0
C2774 C 0.03862 0.4166 0.48341 0.0
C2775 C 0.02239 0.4025 0.49517 0.0
C2776 C 0.99685 0.38311 0.49198 0.0
C2777 C 0.98764 0.37866 0.47765 0.0
C2778 C 0.06703 0.4245 0.52839 0.0
C2779 C 0.04955 0.41912 0.53986 0.0
C2780 C 0.05825 0.41866 0.51398 0.0
C2781 C 0.03183 0.40816 0.51064 0.0
C2782 C 0.0145 0.40326 0.52229 0.0
C2783 C 0.02321 0.40823 0.53672 0.0
H2784 H 0.36645 0.42575 0.53066 0.0
H2785 H 0.42166 0.40468 0.54573 0.0
H2786 H 0.37256 0.41626 0.5057 0.0
H2787 H 0.43008 0.39761 0.52066 0.0
H2788 H 0.42916 0.36851 0.47543 0.0
H2789 H 0.41898 0.37377 0.5004 0.0
H2790 H 0.39658 0.42858 0.4855 0.0
H2791 H 0.4044 0.42095 0.46043 0.0
C2792 C 0.38021 0.41937 0.52852 0.0
C2793 C 0.39356 0.41588 0.54005 0.0
C2794 C 0.38402 0.41418 0.51414 0.0
C2795 C 0.40208 0.40629 0.51083 0.0
C2796 C 0.41553 0.40299 0.52255 0.0
C2797 C 0.41096 0.40727 0.53699 0.0
C2798 C 0.42183 0.38149 0.47758 0.0
C2799 C 0.4175 0.3943 0.46607 0.0
C2800 C 0.41622 0.38482 0.49197 0.0
C2801 C 0.40704 0.40185 0.4953 0.0
C2802 C 0.40295 0.41479 0.4836 0.0
C2803 C 0.40766 0.41068 0.46916 0.0
H2804 H 0.60091 0.96757 0.53129 0.0
H2805 H 0.66666 0.03988 0.54478 0.0
H2806 H 0.60888 0.98201 0.50591 0.0
H2807 H 0.67453 0.05429 0.51937 0.0
H2808 H 0.65758 0.08078 0.47512 0.0
H2809 H 0.6515 0.06597 0.50038 0.0
H2810 H 0.64257 0.99309 0.4862 0.0
H2811 H 0.64873 0.0079 0.46084 0.0
C2812 C 0.61708 0.98653 0.52884 0.0
C2813 C 0.63309 0.00263 0.54006 0.0
C2814 C 0.62172 0.99472 0.5143 0.0
C2815 C 0.6423 0.01929 0.51066 0.0
C2816 C 0.65839 0.03534 0.52186 0.0
C2817 C 0.65395 0.02703 0.5364 0.0
C2818 C 0.65433 0.06159 0.47737 0.0
C2819 C 0.65354 0.04547 0.46596 0.0
C2820 C 0.65103 0.05319 0.49186 0.0
C2821 C 0.64656 0.02838 0.49527 0.0
C2822 C 0.64579 0.01224 0.48388 0.0
C2823 C 0.64943 0.02076 0.46938 0.0
H2824 H 0.95795 0.61606 0.4761 0.0
H2825 H 0.03558 0.64231 0.46129 0.0
H2826 H 0.97325 0.62664 0.50111 0.0
H2827 H 0.0509 0.65056 0.48635 0.0
H2828 H 0.07777 0.6821 0.53125 0.0
H2829 H 0.062 0.67523 0.5063 0.0
H2830 H 0.98659 0.61623 0.52147 0.0
H2831 H 0.00216 0.62534 0.5465 0.0
C2832 C 0.97831 0.62378 0.4783 0.0
C2833 C 0.99563 0.62846 0.46684 0.0
C2834 C 0.98717 0.62964 0.4927 0.0
C2835 C 0.01348 0.63944 0.49606 0.0
C2836 C 0.03066 0.64376 0.48441 0.0
C2837 C 0.0219 0.63878 0.46997 0.0
C2838 C 0.05776 0.66785 0.52916 0.0
C2839 C 0.04113 0.65426 0.54072 0.0
C2840 C 0.04867 0.6636 0.5148 0.0
C2841 C 0.02289 0.64488 0.51155 0.0
C2842 C 0.00636 0.63123 0.52331 0.0
C2843 C 0.01527 0.63622 0.53773 0.0
H2844 H 0.98496 0.29436 0.03975 0.0
H2845 H 0.06014 0.30061 0.04018 0.0
H2846 H 0.98634 0.29639 0.01299 0.0
H2847 H 0.06171 0.30339 0.01354 0.0
H2848 H 0.06232 0.33505 0.96665 0.0
H2849 H 0.0601 0.33658 0.99329 0.0
H2850 H 0.98941 0.26306 0.99311 0.0
H2851 H 0.99187 0.26105 0.9665 0.0
C2852 C 0.00189 0.29654 0.03415 0.0
C2853 C 0.02241 0.29725 0.04204 0.0
C2854 C 0.00261 0.29759 0.01889 0.0
C2855 C 0.02414 0.30007 0.0113 0.0
C2856 C 0.04498 0.30162 0.01918 0.0
C2857 C 0.044 0.29993 0.0344 0.0
C2858 C 0.0462 0.3193 0.97227 0.0
C2859 C 0.02733 0.29785 0.96449 0.0
C2860 C 0.045 0.32018 0.98749 0.0
C2861 C 0.02458 0.29996 0.99516 0.0
C2862 C 0.00526 0.27894 0.98739 0.0
C2863 C 0.00676 0.27775 0.9722 0.0
H2864 H 0.71346 0.75181 0.96535 0.0
H2865 H 0.78477 0.74995 0.96576 0.0
H2866 H 0.71115 0.74791 0.992 0.0
H2867 H 0.782 0.74539 0.99234 0.0
H2868 H 0.75136 0.71226 0.03886 0.0
H2869 H 0.74842 0.71095 0.01214 0.0
H2870 H 0.74411 0.78085 0.01244 0.0
H2871 H 0.74772 0.78262 0.03906 0.0
C2872 C 0.72843 0.75022 0.9711 0.0
C2873 C 0.74938 0.75134 0.96348 0.0
C2874 C 0.72712 0.74805 0.98632 0.0
C2875 C 0.74637 0.7463 0.99415 0.0
C2876 C 0.76683 0.74653 0.98652 0.0
C2877 C 0.76848 0.74929 0.97134 0.0
C2878 C 0.74947 0.72715 0.03323 0.0
C2879 C 0.74987 0.7476 0.04103 0.0
C2880 C 0.74791 0.72645 0.01797 0.0
C2881 C 0.74605 0.7458 0.01031 0.0
C2882 C 0.74538 0.76563 0.01813 0.0
C2883 C 0.74755 0.76668 0.03333 0.0
H2884 H 0.29906 0.98646 0.96627 0.0
H2885 H 0.29979 0.05908 0.96738 0.0
H2886 H 0.30421 0.98811 0.99284 0.0
H2887 H 0.30558 0.06092 0.99388 0.0
H2888 H 0.33973 0.06342 0.04004 0.0
H2889 H 0.34061 0.06218 0.0133 0.0
H2890 H 0.27154 0.98728 0.01363 0.0
H2891 H 0.27018 0.98869 0.04026 0.0
C2892 C 0.30075 0.00296 0.97214 0.0
C2893 C 0.29888 0.02258 0.96476 0.0
C2894 C 0.30361 0.00383 0.98732 0.0
C2895 C 0.30531 0.02465 0.99533 0.0
C2896 C 0.3045 0.04476 0.98791 0.0
C2897 C 0.30104 0.04362 0.97278 0.0
C2898 C 0.32492 0.04657 0.03441 0.0
C2899 C 0.30482 0.0262 0.04223 0.0
C2900 C 0.32539 0.04593 0.01914 0.0
C2901 C 0.30615 0.02463 0.01148 0.0
C2902 C 0.28667 0.00383 0.01931 0.0
C2903 C 0.28585 0.00472 0.03453 0.0
H2904 H 0.06339 0.75295 0.96712 0.0
H2905 H 0.99128 0.75321 0.96734 0.0
H2906 H 0.06232 0.75069 0.99389 0.0
H2907 H 0.98993 0.75014 0.99398 0.0
H2908 H 0.98767 0.71588 0.04061 0.0
H2909 H 0.98954 0.71433 0.01394 0.0
H2910 H 0.0618 0.78634 0.01404 0.0
H2911 H 0.05968 0.78842 0.04069 0.0
C2912 C 0.04717 0.75214 0.97286 0.0
C2913 C 0.02746 0.75335 0.96516 0.0
C2914 C 0.04663 0.75095 0.98813 0.0
C2915 C 0.02603 0.75021 0.9959 0.0
C2916 C 0.00593 0.75056 0.98819 0.0
C2917 C 0.00679 0.75242 0.97298 0.0
C2918 C 0.00407 0.73127 0.03496 0.0
C2919 C 0.02348 0.75234 0.04273 0.0
C2920 C 0.00507 0.73038 0.01974 0.0
C2921 C 0.02583 0.75018 0.01204 0.0
C2922 C 0.04569 0.77079 0.01979 0.0
C2923 C 0.04439 0.77202 0.03499 0.0
H2924 H 0.26214 0.2937 0.03974 0.0
H2925 H 0.33487 0.29467 0.04004 0.0
H2926 H 0.26522 0.29933 0.0132 0.0
H2927 H 0.33748 0.2996 0.01344 0.0
H2928 H 0.30303 0.26706 0.96571 0.0
H2929 H 0.30541 0.26706 0.99237 0.0
H2930 H 0.29906 0.33577 0.994 0.0
H2931 H 0.2974 0.33629 0.96725 0.0
C2932 C 0.27879 0.29516 0.03415 0.0
C2933 C 0.29823 0.29366 0.04197 0.0
C2934 C 0.2806 0.29853 0.019 0.0
C2935 C 0.30159 0.29991 0.01134 0.0
C2936 C 0.32111 0.29858 0.01913 0.0
C2937 C 0.31962 0.29582 0.03433 0.0
C2938 C 0.30249 0.28237 0.97174 0.0
C2939 C 0.30002 0.30168 0.9644 0.0
C2940 C 0.30393 0.28239 0.98697 0.0
C2941 C 0.30235 0.30137 0.99518 0.0
C2942 C 0.30027 0.3209 0.98788 0.0
C2943 C 0.29945 0.32126 0.9726 0.0
H2944 H 0.71374 0.00444 0.96745 0.0
H2945 H 0.79646 0.03579 0.96694 0.0
H2946 H 0.71465 0.00647 0.99409 0.0
H2947 H 0.79722 0.03785 0.99346 0.0
H2948 H 0.78459 0.01014 0.04077 0.0
H2949 H 0.78215 0.00738 0.01426 0.0
H2950 H 0.73135 0.03922 0.01421 0.0
H2951 H 0.73362 0.04194 0.04081 0.0
C2952 C 0.73212 0.01182 0.97297 0.0
C2953 C 0.75502 0.01994 0.96499 0.0
C2954 C 0.73262 0.01308 0.98825 0.0
C2955 C 0.75599 0.02223 0.99589 0.0
C2956 C 0.77886 0.0304 0.98791 0.0
C2957 C 0.77841 0.02934 0.97268 0.0
C2958 C 0.77279 0.01649 0.03516 0.0
C2959 C 0.75932 0.0263 0.043 0.0
C2960 C 0.77153 0.01503 0.01994 0.0
C2961 C 0.75665 0.02318 0.01213 0.0
C2962 C 0.74283 0.0326 0.01992 0.0
C2963 C 0.74424 0.03426 0.03518 0.0
H2964 H 0.656 0.60095 0.2994 0.0
H2965 H 0.73079 0.6704 0.30004 0.0
H2966 H 0.65405 0.60217 0.32604 0.0
H2967 H 0.72904 0.67109 0.32677 0.0
H2968 H 0.72424 0.63133 0.37329 0.0
H2969 H 0.72642 0.63517 0.34666 0.0
H2970 H 0.65501 0.63656 0.34634 0.0
H2971 H 0.65306 0.63347 0.37301 0.0
C2972 C 0.67195 0.61653 0.30523 0.0
C2973 C 0.69356 0.63558 0.29764 0.0
C2974 C 0.67077 0.61725 0.32044 0.0
C2975 C 0.69141 0.63669 0.32838 0.0
C2976 C 0.71292 0.65589 0.32084 0.0
C2977 C 0.71384 0.65554 0.30558 0.0
C2978 C 0.70911 0.63266 0.36756 0.0
C2979 C 0.68846 0.63206 0.37525 0.0
C2980 C 0.71045 0.63499 0.35235 0.0
C2981 C 0.69089 0.63616 0.34453 0.0
C2982 C 0.6703 0.63566 0.35217 0.0
C2983 C 0.66925 0.63396 0.36741 0.0
H2984 H 0.44177 0.12478 0.37359 0.0
H2985 H 0.3928 0.04168 0.37501 0.0
H2986 H 0.43916 0.12364 0.34716 0.0
H2987 H 0.39031 0.04074 0.3483 0.0
H2988 H 0.37522 0.05945 0.3 0.0
H2989 H 0.37403 0.05688 0.32672 0.0
H2990 H 0.45681 0.10648 0.32811 0.0
H2991 H 0.45819 0.10916 0.30169 0.0
C2992 C 0.43027 0.10624 0.36831 0.0
C2993 C 0.41766 0.08328 0.3765 0.0
C2994 C 0.42891 0.10562 0.35312 0.0
C2995 C 0.41481 0.08208 0.34567 0.0
C2996 C 0.4013 0.05916 0.35378 0.0
C2997 C 0.40281 0.05973 0.36906 0.0
C2998 C 0.39319 0.06962 0.306 0.0
C2999 C 0.41677 0.08467 0.29864 0.0
C3000 C 0.39248 0.06807 0.32129 0.0
C3001 C 0.41529 0.08175 0.32947 0.0
C3002 C 0.43886 0.09609 0.32209 0.0
C3003 C 0.43962 0.09748 0.30691 0.0
H3004 H 0.92743 0.32274 0.37383 0.0
H3005 H 0.00013 0.39462 0.37331 0.0
H3006 H 0.9284 0.32098 0.34716 0.0
H3007 H 0.00052 0.39312 0.3466 0.0
H3008 H 0.96176 0.391 0.29996 0.0
H3009 H 0.96432 0.39253 0.32663 0.0
H3010 H 0.96387 0.32019 0.32705 0.0
H3011 H 0.96215 0.31891 0.30031 0.0
C3012 C 0.9436 0.33813 0.36804 0.0
C3013 C 0.96372 0.35882 0.37568 0.0
C3014 C 0.94417 0.33704 0.35281 0.0
C3015 C 0.96452 0.35692 0.34492 0.0
C3016 C 0.98463 0.3776 0.3525 0.0
C3017 C 0.98441 0.37838 0.36775 0.0
C3018 C 0.9624 0.37551 0.30572 0.0
C3019 C 0.96177 0.35483 0.29803 0.0
C3020 C 0.96395 0.37646 0.32095 0.0
C3021 C 0.96427 0.35647 0.3288 0.0
C3022 C 0.96362 0.33579 0.32118 0.0
C3023 C 0.96272 0.33514 0.30591 0.0
H3024 H 0.72359 0.11951 0.37337 0.0
H3025 H 0.65231 0.04632 0.3725 0.0
H3026 H 0.72612 0.11858 0.34673 0.0
H3027 H 0.65458 0.04587 0.34578 0.0
H3028 H 0.65629 0.08462 0.29927 0.0
H3029 H 0.65397 0.08024 0.32587 0.0
H3030 H 0.72878 0.08595 0.3264 0.0
H3031 H 0.7309 0.0896 0.29972 0.0
C3032 C 0.70853 0.10319 0.36749 0.0
C3033 C 0.68772 0.08301 0.37502 0.0
C3034 C 0.71006 0.10263 0.35228 0.0
C3035 C 0.69053 0.08217 0.34427 0.0
C3036 C 0.66984 0.06185 0.35175 0.0
C3037 C 0.66862 0.06209 0.36701 0.0
C3038 C 0.67213 0.08469 0.30504 0.0
C3039 C 0.6938 0.0875 0.29741 0.0
C3040 C 0.67073 0.08206 0.32023 0.0
C3041 C 0.6912 0.08278 0.32812 0.0
C3042 C 0.71277 0.08536 0.32053 0.0
C3043 C 0.71392 0.08736 0.30529 0.0
H3044 H 0.99586 0.62219 0.37314 0.0
H3045 H 0.92714 0.62878 0.37344 0.0
H3046 H 0.99732 0.62539 0.34643 0.0
H3047 H 0.92911 0.63267 0.34683 0.0
H3048 H 0.9608 0.66534 0.30021 0.0
H3049 H 0.96374 0.66607 0.32689 0.0
H3050 H 0.96209 0.59312 0.32616 0.0
H3051 H 0.95845 0.59193 0.29952 0.0
C3052 C 0.98133 0.6247 0.36753 0.0
C3053 C 0.96132 0.62512 0.37536 0.0
C3054 C 0.98212 0.62642 0.35228 0.0
C3055 C 0.96334 0.62928 0.34465 0.0
C3056 C 0.94388 0.63061 0.3525 0.0
C3057 C 0.94271 0.62827 0.36769 0.0
C3058 C 0.96123 0.64955 0.30572 0.0
C3059 C 0.95925 0.6285 0.29778 0.0
C3060 C 0.96285 0.64996 0.32096 0.0
C3061 C 0.96318 0.62968 0.3285 0.0
C3062 C 0.96203 0.60906 0.32056 0.0
C3063 C 0.9598 0.60833 0.30535 0.0
H3064 H 0.44772 0.34151 0.37291 0.0
H3065 H 0.40086 0.37794 0.37355 0.0
H3066 H 0.44567 0.33991 0.34644 0.0
H3067 H 0.39896 0.37633 0.34685 0.0
H3068 H 0.38164 0.34245 0.29922 0.0
H3069 H 0.38148 0.34438 0.3259 0.0
H3070 H 0.46341 0.37206 0.32645 0.0
H3071 H 0.46371 0.37012 0.29997 0.0
C3072 C 0.43687 0.3491 0.36744 0.0
C3073 C 0.42452 0.35995 0.37544 0.0
C3074 C 0.43585 0.34832 0.35222 0.0
C3075 C 0.42235 0.3582 0.34453 0.0
C3076 C 0.40943 0.36846 0.35248 0.0
C3077 C 0.41061 0.36946 0.36777 0.0
C3078 C 0.39965 0.34909 0.30502 0.0
C3079 C 0.42267 0.35603 0.29739 0.0
C3080 C 0.39955 0.35028 0.32031 0.0
C3081 C 0.42239 0.35817 0.32829 0.0
C3082 C 0.44542 0.36553 0.32064 0.0
C3083 C 0.44558 0.36454 0.30542 0.0
H3084 H 0.3906 0.96156 0.70794 0.0
H3085 H 0.31822 0.96126 0.70642 0.0
H3086 H 0.39308 0.96404 0.68125 0.0
H3087 H 0.32045 0.96294 0.67971 0.0
H3088 H 0.3243 0.92538 0.63361 0.0
H3089 H 0.32191 0.92722 0.66024 0.0
H3090 H 0.3939 0.9995 0.66063 0.0
H3091 H 0.39602 0.99819 0.63393 0.0
C3092 C 0.37527 0.96207 0.70192 0.0
C3093 C 0.3542 0.96119 0.70927 0.0
C3094 C 0.37676 0.96359 0.68669 0.0
C3095 C 0.35694 0.96365 0.67852 0.0
C3096 C 0.33594 0.96289 0.68582 0.0
C3097 C 0.33474 0.96202 0.70107 0.0
C3098 C 0.33951 0.94177 0.63936 0.0
C3099 C 0.36036 0.96163 0.6317 0.0
C3100 C 0.33806 0.94284 0.65456 0.0
C3101 C 0.35774 0.96347 0.66239 0.0
C3102 C 0.37854 0.9834 0.65477 0.0
C3103 C 0.37967 0.98267 0.63954 0.0
H3104 H 0.08093 0.37739 0.70658 0.0
H3105 H 0.08021 0.44928 0.70708 0.0
H3106 H 0.07746 0.37616 0.6799 0.0
H3107 H 0.07608 0.4476 0.68049 0.0
H3108 H 0.04537 0.42015 0.6333 0.0
H3109 H 0.04246 0.41544 0.65992 0.0
H3110 H 0.11188 0.41029 0.66031 0.0
H3111 H 0.11527 0.41565 0.63378 0.0
C3112 C 0.07953 0.39263 0.70103 0.0
C3113 C 0.08096 0.4135 0.70889 0.0
C3114 C 0.07765 0.39196 0.6858 0.0
C3115 C 0.07651 0.41178 0.67822 0.0
C3116 C 0.07677 0.43201 0.68612 0.0
C3117 C 0.07924 0.43302 0.7013 0.0
C3118 C 0.05985 0.41775 0.63905 0.0
C3119 C 0.08063 0.41841 0.63149 0.0
C3120 C 0.0582 0.41513 0.65425 0.0
C3121 C 0.07692 0.41246 0.66208 0.0
C3122 C 0.09712 0.41213 0.65447 0.0
C3123 C 0.09912 0.41534 0.63934 0.0
H3124 H 0.66719 0.73149 0.70526 0.0
H3125 H 0.59506 0.65911 0.70656 0.0
H3126 H 0.66684 0.72943 0.67853 0.0
H3127 H 0.59525 0.65681 0.67988 0.0
H3128 H 0.62683 0.65356 0.63286 0.0
H3129 H 0.62961 0.65568 0.65955 0.0
H3130 H 0.63048 0.72823 0.65875 0.0
H3131 H 0.62691 0.72587 0.6321 0.0
C3132 C 0.65145 0.71502 0.69986 0.0
C3133 C 0.63111 0.69549 0.708 0.0
C3134 C 0.65124 0.71393 0.6846 0.0
C3135 C 0.63104 0.69296 0.67724 0.0
C3136 C 0.61108 0.6731 0.68536 0.0
C3137 C 0.61095 0.67449 0.70059 0.0
C3138 C 0.62773 0.67002 0.63837 0.0
C3139 C 0.62657 0.68951 0.63039 0.0
C3140 C 0.62923 0.67116 0.65361 0.0
C3141 C 0.63029 0.69212 0.66111 0.0
C3142 C 0.62981 0.71194 0.65316 0.0
C3143 C 0.62765 0.7105 0.63795 0.0
H3144 H 0.37049 0.46401 0.70578 0.0
H3145 H 0.34297 0.38198 0.70727 0.0
H3146 H 0.37218 0.46301 0.67931 0.0
H3147 H 0.34467 0.38113 0.68059 0.0
H3148 H 0.37779 0.39963 0.63273 0.0
H3149 H 0.37659 0.39837 0.65944 0.0
H3150 H 0.33943 0.4444 0.65957 0.0
H3151 H 0.34058 0.44579 0.63309 0.0
C3152 C 0.36491 0.44574 0.7005 0.0
C3153 C 0.35649 0.42304 0.70873 0.0
C3154 C 0.36575 0.44518 0.68529 0.0
C3155 C 0.35835 0.42195 0.67785 0.0
C3156 C 0.35059 0.39934 0.68603 0.0
C3157 C 0.34953 0.39983 0.70131 0.0
C3158 C 0.36924 0.40937 0.63845 0.0
C3159 C 0.35938 0.42289 0.63069 0.0
C3160 C 0.36848 0.40855 0.65375 0.0
C3161 C 0.35813 0.42148 0.66161 0.0
C3162 C 0.34791 0.43459 0.65385 0.0
C3163 C 0.34845 0.43523 0.63862 0.0
H3164 H 0.60012 0.9697 0.70657 0.0
H3165 H 0.6706 0.96632 0.70773 0.0
H3166 H 0.60388 0.97479 0.68004 0.0
H3167 H 0.67392 0.97079 0.68111 0.0
H3168 H 0.638 0.9362 0.63393 0.0
H3169 H 0.64162 0.93842 0.66054 0.0
H3170 H 0.6375 0.00842 0.66032 0.0
H3171 H 0.63451 0.00665 0.63362 0.0
C3172 C 0.6165 0.97023 0.70117 0.0
C3173 C 0.63502 0.96753 0.70922 0.0
C3174 C 0.6187 0.97329 0.68602 0.0
C3175 C 0.63917 0.97316 0.67859 0.0
C3176 C 0.65796 0.97092 0.68662 0.0
C3177 C 0.65608 0.96845 0.70183 0.0
C3178 C 0.63825 0.95227 0.63954 0.0
C3179 C 0.63591 0.97122 0.6317 0.0
C3180 C 0.64044 0.95359 0.65474 0.0
C3181 C 0.63979 0.97356 0.66243 0.0
C3182 C 0.63801 0.99282 0.65461 0.0
C3183 C 0.63641 0.99184 0.63936 0.0
H3184 H 0.08506 0.72956 0.70669 0.0
H3185 H 0.08118 0.65544 0.7073 0.0
H3186 H 0.08203 0.72756 0.68 0.0
H3187 H 0.0774 0.65323 0.68066 0.0
H3188 H 0.04348 0.65213 0.63377 0.0
H3189 H 0.04294 0.65375 0.66049 0.0
H3190 H 0.1156 0.72534 0.65995 0.0
H3191 H 0.1167 0.72346 0.63331 0.0
C3192 C 0.08317 0.71269 0.70115 0.0
C3193 C 0.08344 0.69269 0.70908 0.0
C3194 C 0.08154 0.71162 0.68591 0.0
C3195 C 0.07948 0.69024 0.67835 0.0
C3196 C 0.07885 0.66985 0.68627 0.0
C3197 C 0.08111 0.67118 0.70149 0.0
C3198 C 0.05928 0.66828 0.63934 0.0
C3199 C 0.08016 0.68764 0.63142 0.0
C3200 C 0.05897 0.66913 0.6546 0.0
C3201 C 0.07919 0.6897 0.6622 0.0
C3202 C 0.09972 0.70938 0.65431 0.0
C3203 C 0.10036 0.70822 0.63908 0.0
H3204 H 0.80999 0.12605 0.08307 0.0
H3205 H 0.85488 0.08785 0.0871 0.0
H3206 H 0.84988 0.16778 0.08197 0.0
H3207 H 0.89428 0.12919 0.08667 0.0
H3208 H 0.96163 0.20283 0.0711 0.0
H3209 H 0.92058 0.16276 0.07066 0.0
H3210 H 0.88593 0.19845 0.09607 0.0
H3211 H 0.92696 0.23907 0.09596 0.0
C3212 C 0.8283 0.12653 0.08385 0.0
C3213 C 0.82914 0.10352 0.08517 0.0
C3214 C 0.85118 0.15047 0.08328 0.0
C3215 C 0.87538 0.15192 0.08414 0.0
C3216 C 0.87609 0.12889 0.08564 0.0
C3217 C 0.85336 0.10507 0.08604 0.0
C3218 C 0.94526 0.20221 0.07656 0.0
C3219 C 0.94766 0.22413 0.08366 0.0
C3220 C 0.92169 0.17913 0.07638 0.0
C3221 C 0.89993 0.17718 0.0835 0.0
C3222 C 0.90218 0.19927 0.09036 0.0
C3223 C 0.92575 0.22254 0.09037 0.0
H3224 H 0.95852 0.78615 0.07884 0.0
H3225 H 0.92324 0.70406 0.08673 0.0
H3226 H 0.91635 0.78213 0.0775 0.0
H3227 H 0.8805 0.69987 0.08478 0.0
H3228 H 0.8109 0.71143 0.09723 0.0
H3229 H 0.85136 0.71052 0.09726 0.0
H3230 H 0.87999 0.76623 0.06211 0.0
H3231 H 0.84026 0.76788 0.06253 0.0
C3232 C 0.94176 0.76714 0.0802 0.0
C3233 C 0.94439 0.74544 0.08296 0.0
C3234 C 0.91744 0.76479 0.07928 0.0
C3235 C 0.89493 0.74062 0.08087 0.0
C3236 C 0.89744 0.71881 0.0836 0.0
C3237 C 0.92193 0.7212 0.08466 0.0
C3238 C 0.82577 0.7232 0.08941 0.0
C3239 C 0.8226 0.74 0.08003 0.0
C3240 C 0.84893 0.72264 0.08939 0.0
C3241 C 0.86916 0.73867 0.07987 0.0
C3242 C 0.86517 0.75422 0.0699 0.0
C3243 C 0.84231 0.75505 0.07007 0.0
H3244 H 0.33845 0.12213 0.09769 0.0
H3245 H 0.27681 0.09077 0.06596 0.0
H3246 H 0.3385 0.163 0.09735 0.0
H3247 H 0.27768 0.13175 0.06501 0.0
H3248 H 0.2614 0.19372 0.07995 0.0
H3249 H 0.26457 0.15505 0.07948 0.0
H3250 H 0.34744 0.20106 0.08443 0.0
H3251 H 0.34407 0.24007 0.08573 0.0
C3252 C 0.32523 0.12413 0.09046 0.0
C3253 C 0.30741 0.10315 0.08199 0.0
C3254 C 0.32533 0.14761 0.0902 0.0
C3255 C 0.30785 0.15067 0.0813 0.0
C3256 C 0.2909 0.12995 0.07233 0.0
C3257 C 0.2905 0.10644 0.07279 0.0
C3258 C 0.28035 0.19574 0.08103 0.0
C3259 C 0.30246 0.22011 0.083 0.0
C3260 C 0.28221 0.17344 0.08057 0.0
C3261 C 0.3063 0.1748 0.08179 0.0
C3262 C 0.32852 0.1992 0.08364 0.0
C3263 C 0.32661 0.2216 0.0843 0.0
H3264 H 0.23697 0.92477 0.90953 0.0
H3265 H 0.20512 0.95244 0.94256 0.0
H3266 H 0.19653 0.88334 0.90911 0.0
H3267 H 0.16533 0.91113 0.94245 0.0
H3268 H 0.08812 0.85168 0.92455 0.0
H3269 H 0.13016 0.89023 0.92572 0.0
H3270 H 0.1668 0.84383 0.92237 0.0
H3271 H 0.12431 0.80485 0.92075 0.0
C3272 C 0.22156 0.92184 0.91689 0.0
C3273 C 0.22412 0.94199 0.92593 0.0
C3274 C 0.19841 0.8981 0.91667 0.0
C3275 C 0.17751 0.89408 0.92555 0.0
C3276 C 0.18075 0.9138 0.93517 0.0
C3277 C 0.20366 0.93747 0.93529 0.0
C3278 C 0.10503 0.84953 0.924 0.0
C3279 C 0.10272 0.82505 0.92255 0.0
C3280 C 0.12924 0.87172 0.92481 0.0
C3281 C 0.1519 0.87014 0.92434 0.0
C3282 C 0.14972 0.84573 0.9227 0.0
C3283 C 0.12536 0.8234 0.92182 0.0
H3284 H 0.20987 0.27969 0.94185 0.0
H3285 H 0.24005 0.33989 0.90922 0.0
H3286 H 0.17011 0.28122 0.94285 0.0
H3287 H 0.19954 0.34065 0.90969 0.0
H3288 H 0.12769 0.34629 0.92126 0.0
H3289 H 0.17029 0.35006 0.92275 0.0
H3290 H 0.13394 0.26724 0.92773 0.0
H3291 H 0.09194 0.26362 0.92694 0.0
C3292 C 0.20796 0.29326 0.93486 0.0
C3293 C 0.22795 0.30946 0.92534 0.0
C3294 C 0.18508 0.29404 0.93536 0.0
C3295 C 0.18133 0.31068 0.92613 0.0
C3296 C 0.20177 0.32769 0.91701 0.0
C3297 C 0.22495 0.32719 0.91669 0.0
C3298 C 0.12887 0.32894 0.92275 0.0
C3299 C 0.10631 0.30465 0.92395 0.0
C3300 C 0.15329 0.33109 0.92353 0.0
C3301 C 0.15563 0.30899 0.92547 0.0
C3302 C 0.13302 0.28478 0.92658 0.0
C3303 C 0.10877 0.28267 0.92596 0.0
H3304 H 0.71191 0.81049 0.91034 0.0
H3305 H 0.78316 0.84761 0.9349 0.0
H3306 H 0.7112 0.85098 0.91007 0.0
H3307 H 0.78194 0.88754 0.93509 0.0
H3308 H 0.79028 0.96201 0.91844 0.0
H3309 H 0.78868 0.92075 0.91868 0.0
H3310 H 0.70587 0.88167 0.92441 0.0
H3311 H 0.70733 0.92319 0.92358 0.0
C3312 C 0.72723 0.82717 0.91584 0.0
C3313 C 0.74772 0.82585 0.92252 0.0
C3314 C 0.72677 0.85036 0.91574 0.0
C3315 C 0.74667 0.87266 0.92242 0.0
C3316 C 0.76664 0.87099 0.92951 0.0
C3317 C 0.76724 0.84798 0.92948 0.0
C3318 C 0.77166 0.94469 0.91968 0.0
C3319 C 0.74893 0.94602 0.92098 0.0
C3320 C 0.77077 0.92094 0.91996 0.0
C3321 C 0.74717 0.89781 0.92172 0.0
C3322 C 0.72436 0.89905 0.92289 0.0
C3323 C 0.72521 0.92289 0.92249 0.0
H3324 H 0.51526 0.42582 0.40234 0.0
H3325 H 0.4794 0.45773 0.42978 0.0
H3326 H 0.55454 0.46749 0.40152 0.0
H3327 H 0.51938 0.49946 0.42958 0.0
H3328 H 0.58995 0.5769 0.41687 0.0
H3329 H 0.54866 0.53657 0.41589 0.0
H3330 H 0.58907 0.49352 0.41679 0.0
H3331 H 0.62995 0.53345 0.417 0.0
C3332 C 0.51583 0.44175 0.40828 0.0
C3333 C 0.49429 0.43841 0.41623 0.0
C3334 C 0.53847 0.46568 0.4079 0.0
C3335 C 0.5404 0.48685 0.41569 0.0
C3336 C 0.51858 0.48369 0.42335 0.0
C3337 C 0.49569 0.45975 0.42353 0.0
C3338 C 0.58997 0.55879 0.41681 0.0
C3339 C 0.61335 0.55849 0.41703 0.0
C3340 C 0.56627 0.53565 0.41634 0.0
C3341 C 0.56542 0.51169 0.41618 0.0
C3342 C 0.58885 0.51152 0.41655 0.0
C3343 C 0.61243 0.53454 0.41683 0.0
H3344 H 0.62153 0.11441 0.4115 0.0
H3345 H 0.58738 0.03251 0.4197 0.0
H3346 H 0.57912 0.10982 0.41057 0.0
H3347 H 0.54432 0.02778 0.41825 0.0
H3348 H 0.47528 0.04059 0.43199 0.0
H3349 H 0.51541 0.0389 0.43127 0.0
H3350 H 0.5423 0.09283 0.39525 0.0
H3351 H 0.50301 0.09523 0.39641 0.0
C3352 C 0.60497 0.09531 0.41301 0.0
C3353 C 0.608 0.07384 0.41571 0.0
C3354 C 0.5805 0.09263 0.41233 0.0
C3355 C 0.55822 0.06836 0.41415 0.0
C3356 C 0.5611 0.04677 0.41687 0.0
C3357 C 0.58577 0.04948 0.41763 0.0
C3358 C 0.48967 0.0517 0.42379 0.0
C3359 C 0.48629 0.06836 0.41441 0.0
C3360 C 0.51261 0.05072 0.42335 0.0
C3361 C 0.53233 0.06617 0.41341 0.0
C3362 C 0.52791 0.0813 0.40335 0.0
C3363 C 0.50532 0.08258 0.40395 0.0
H3364 H 0.92411 0.41591 0.41839 0.0
H3365 H 0.00759 0.45616 0.41793 0.0
H3366 H 0.925 0.45683 0.41789 0.0
H3367 H 0.00844 0.49734 0.41676 0.0
H3368 H 0.99902 0.56666 0.43024 0.0
H3369 H 0.00035 0.52651 0.43054 0.0
H3370 H 0.93382 0.49126 0.40206 0.0
H3371 H 0.9319 0.53083 0.40226 0.0
C3372 C 0.9427 0.43348 0.41811 0.0
C3373 C 0.96578 0.43265 0.41826 0.0
C3374 C 0.94321 0.45704 0.41767 0.0
C3375 C 0.9668 0.48048 0.41716 0.0
C3376 C 0.98993 0.4797 0.41732 0.0
C3377 C 0.98943 0.45606 0.41791 0.0
C3378 C 0.98478 0.55034 0.424 0.0
C3379 C 0.96521 0.55187 0.41635 0.0
C3380 C 0.9856 0.52735 0.42411 0.0
C3381 C 0.96702 0.50548 0.41646 0.0
C3382 C 0.94805 0.50743 0.4084 0.0
C3383 C 0.94704 0.53023 0.40843 0.0
H3384 H 0.75866 0.18242 0.27081 0.0
H3385 H 0.79111 0.14702 0.24336 0.0
H3386 H 0.79986 0.22235 0.27099 0.0
H3387 H 0.83227 0.1875 0.24305 0.0
H3388 H 0.90922 0.25849 0.25568 0.0
H3389 H 0.86916 0.21711 0.25684 0.0
H3390 H 0.82547 0.25681 0.25517 0.0
H3391 H 0.8653 0.29799 0.25466 0.0
C3392 C 0.7746 0.18318 0.26476 0.0
C3393 C 0.77154 0.16155 0.257 0.0
C3394 C 0.79823 0.20619 0.26478 0.0
C3395 C 0.81938 0.20836 0.25687 0.0
C3396 C 0.81651 0.18651 0.24937 0.0
C3397 C 0.79287 0.16331 0.2495 0.0
C3398 C 0.89105 0.25838 0.25556 0.0
C3399 C 0.89055 0.28164 0.25507 0.0
C3400 C 0.86805 0.23461 0.25616 0.0
C3401 C 0.84401 0.23353 0.25617 0.0
C3402 C 0.84358 0.25682 0.2555 0.0
C3403 C 0.86651 0.28054 0.25506 0.0
H3404 H 0.90785 0.67647 0.25499 0.0
H3405 H 0.86131 0.59326 0.25747 0.0
H3406 H 0.86871 0.67963 0.25627 0.0
H3407 H 0.82256 0.59634 0.25802 0.0
H3408 H 0.75794 0.6073 0.27268 0.0
H3409 H 0.79886 0.60806 0.27336 0.0
H3410 H 0.83115 0.67186 0.2429 0.0
H3411 H 0.79026 0.67181 0.24277 0.0
C3412 C 0.88932 0.65886 0.25569 0.0
C3413 C 0.88781 0.63461 0.2561 0.0
C3414 C 0.86686 0.66066 0.25635 0.0
C3415 C 0.8424 0.63825 0.25734 0.0
C3416 C 0.84101 0.61408 0.25761 0.0
C3417 C 0.86335 0.61229 0.25712 0.0
C3418 C 0.77381 0.62162 0.26619 0.0
C3419 C 0.77079 0.63935 0.25757 0.0
C3420 C 0.79728 0.62196 0.2665 0.0
C3421 C 0.81827 0.63973 0.25798 0.0
C3422 C 0.8155 0.65802 0.24969 0.0
C3423 C 0.79203 0.65793 0.24955 0.0
H3424 H 0.44963 0.28803 0.25927 0.0
H3425 H 0.36719 0.25519 0.25384 0.0
H3426 H 0.444 0.24528 0.26104 0.0
H3427 H 0.36154 0.21175 0.25598 0.0
H3428 H 0.3733 0.14092 0.24289 0.0
H3429 H 0.37173 0.18118 0.24283 0.0
H3430 H 0.42678 0.21015 0.27826 0.0
H3431 H 0.42892 0.17067 0.27797 0.0
C3432 C 0.4302 0.2717 0.25851 0.0
C3433 C 0.40885 0.27519 0.25643 0.0
C3434 C 0.42697 0.24707 0.25966 0.0
C3435 C 0.40227 0.22507 0.25889 0.0
C3436 C 0.38082 0.22835 0.25662 0.0
C3437 C 0.38407 0.25321 0.25544 0.0
C3438 C 0.38463 0.15576 0.25082 0.0
C3439 C 0.40157 0.15292 0.26026 0.0
C3440 C 0.38372 0.17876 0.25081 0.0
C3441 C 0.39958 0.19907 0.26032 0.0
C3442 C 0.41489 0.1952 0.2705 0.0
C3443 C 0.41604 0.17252 0.27039 0.0
H3444 H 0.29254 0.86415 0.74985 0.0
H3445 H 0.25452 0.90949 0.75098 0.0
H3446 H 0.25103 0.8249 0.74903 0.0
H3447 H 0.21263 0.86988 0.74953 0.0
H3448 H 0.14263 0.79088 0.7632 0.0
H3449 H 0.18304 0.83221 0.76314 0.0
H3450 H 0.2161 0.80074 0.73321 0.0
H3451 H 0.17632 0.75943 0.73375 0.0
C3452 C 0.27533 0.86581 0.74984 0.0
C3453 C 0.27697 0.89008 0.75054 0.0
C3454 C 0.25141 0.8432 0.74922 0.0
C3455 C 0.22838 0.84414 0.74908 0.0
C3456 C 0.22995 0.8684 0.74976 0.0
C3457 C 0.25398 0.89112 0.75052 0.0
C3458 C 0.1585 0.79293 0.75652 0.0
C3459 C 0.15638 0.7718 0.74862 0.0
C3460 C 0.18164 0.81664 0.75644 0.0
C3461 C 0.20301 0.81976 0.74833 0.0
C3462 C 0.20034 0.79889 0.73991 0.0
C3463 C 0.17743 0.77519 0.74014 0.0
H3464 H 0.25588 0.36893 0.75255 0.0
H3465 H 0.28892 0.4512 0.74621 0.0
H3466 H 0.21249 0.36343 0.75061 0.0
H3467 H 0.24623 0.44576 0.74468 0.0
H3468 H 0.17075 0.4304 0.72876 0.0
H3469 H 0.21039 0.42856 0.72818 0.0
H3470 H 0.18252 0.37382 0.76378 0.0
H3471 H 0.14215 0.37504 0.76403 0.0
C3472 C 0.25395 0.3858 0.75079 0.0
C3473 C 0.27597 0.41049 0.74951 0.0
C3474 C 0.22912 0.38265 0.74973 0.0
C3475 C 0.22589 0.40411 0.74731 0.0
C3476 C 0.24794 0.42871 0.74618 0.0
C3477 C 0.27255 0.43184 0.7472 0.0
C3478 C 0.17289 0.41768 0.73634 0.0
C3479 C 0.15351 0.40315 0.74658 0.0
C3480 C 0.19568 0.41671 0.73606 0.0
C3481 C 0.19988 0.40151 0.74616 0.0
C3482 C 0.17986 0.38571 0.75584 0.0
C3483 C 0.15679 0.38644 0.75601 0.0
H3484 H 0.67864 0.79458 0.75107 0.0
H3485 H 0.59538 0.75637 0.74811 0.0
H3486 H 0.68086 0.83647 0.74988 0.0
H3487 H 0.59758 0.79786 0.74747 0.0
H3488 H 0.60781 0.87304 0.7324 0.0
H3489 H 0.60979 0.83352 0.73173 0.0
H3490 H 0.67118 0.86512 0.76369 0.0
H3491 H 0.6698 0.9053 0.76396 0.0
C3492 C 0.66082 0.79507 0.75025 0.0
C3493 C 0.63684 0.77203 0.74969 0.0
C3494 C 0.6621 0.8191 0.74964 0.0
C3495 C 0.63941 0.82058 0.74848 0.0
C3496 C 0.61549 0.79752 0.74804 0.0
C3497 C 0.61422 0.77362 0.74854 0.0
C3498 C 0.62189 0.87169 0.73921 0.0
C3499 C 0.63848 0.89224 0.74834 0.0
C3500 C 0.62292 0.84892 0.7389 0.0
C3501 C 0.64033 0.84591 0.74785 0.0
C3502 C 0.65762 0.86682 0.75659 0.0
C3503 C 0.65678 0.88981 0.75679 0.0
H3504 H 0.52891 0.62962 0.58791 0.0
H3505 H 0.57355 0.59089 0.58913 0.0
H3506 H 0.4894 0.58836 0.58801 0.0
H3507 H 0.53364 0.54924 0.59005 0.0
H3508 H 0.456 0.47866 0.57622 0.0
H3509 H 0.49718 0.51921 0.57631 0.0
H3510 H 0.46332 0.55392 0.60325 0.0
H3511 H 0.42217 0.51406 0.60251 0.0
C3512 C 0.53035 0.6123 0.5883 0.0
C3513 C 0.55451 0.61368 0.58843 0.0
C3514 C 0.50756 0.5885 0.58852 0.0
C3515 C 0.50819 0.56531 0.58918 0.0
C3516 C 0.53236 0.56664 0.58936 0.0
C3517 C 0.55527 0.59055 0.58893 0.0
C3518 C 0.45747 0.49499 0.58218 0.0
C3519 C 0.43576 0.49325 0.58921 0.0
C3520 C 0.48111 0.51821 0.58231 0.0
C3521 C 0.4836 0.54005 0.58964 0.0
C3522 C 0.46204 0.53783 0.59712 0.0
C3523 C 0.43841 0.51486 0.59679 0.0
H3524 H 0.45992 0.01142 0.58738 0.0
H3525 H 0.42588 0.92928 0.59469 0.0
H3526 H 0.50299 0.0163 0.58902 0.0
H3527 H 0.4684 0.93404 0.59579 0.0
H3528 H 0.54493 0.94952 0.61069 0.0
H3529 H 0.5049 0.95056 0.61131 0.0
H3530 H 0.5324 0.00613 0.5761 0.0
H3531 H 0.57316 0.00578 0.57588 0.0
C3532 C 0.46157 0.99441 0.58927 0.0
C3533 C 0.43936 0.96995 0.5909 0.0
C3534 C 0.48625 0.99721 0.59014 0.0
C3535 C 0.4892 0.97561 0.59266 0.0
C3536 C 0.46695 0.95122 0.59418 0.0
C3537 C 0.44244 0.94845 0.5934 0.0
C3538 C 0.54258 0.96219 0.60318 0.0
C3539 C 0.56206 0.97734 0.59312 0.0
C3540 C 0.51954 0.96268 0.60347 0.0
C3541 C 0.51516 0.978 0.59354 0.0
C3542 C 0.53516 0.99417 0.58394 0.0
C3543 C 0.55848 0.99393 0.58378 0.0
H3544 H 0.03565 0.58999 0.5884 0.0
H3545 H 0.11905 0.62931 0.59028 0.0
H3546 H 0.03411 0.54848 0.58982 0.0
H3547 H 0.11751 0.58809 0.59112 0.0
H3548 H 0.10849 0.51349 0.60692 0.0
H3549 H 0.10657 0.55306 0.60707 0.0
H3550 H 0.04332 0.51954 0.57631 0.0
H3551 H 0.04465 0.47937 0.57658 0.0
C3552 C 0.05366 0.58982 0.589 0.0
C3553 C 0.07748 0.61306 0.58922 0.0
C3554 C 0.05276 0.56599 0.58975 0.0
C3555 C 0.07567 0.56488 0.59067 0.0
C3556 C 0.09944 0.58814 0.59073 0.0
C3557 C 0.10033 0.61188 0.59011 0.0
C3558 C 0.09403 0.51444 0.60025 0.0
C3559 C 0.07685 0.49332 0.59165 0.0
C3560 C 0.09304 0.53725 0.60026 0.0
C3561 C 0.07507 0.53971 0.59152 0.0
C3562 C 0.0573 0.51829 0.58325 0.0
C3563 C 0.05811 0.49528 0.58337 0.0
loop_
_geom_bond_atom_site_label_1
_geom_bond_atom_site_label_2
_geom_bond_distance
_geom_bond_site_symmetry_2
_ccdc_geom_bond_type
Co0 O2 2.143 . S
Co0 O8 2.074 1_455 S
Co0 O11 2.093 . S
Co0 O24 2.097 . S
Co0 N41 2.151 . S
Co0 N49 2.214 . S
Co1 O2 2.160 . S
Co1 O7 2.058 1_455 S
Co1 O17 2.057 . S
Co1 O32 2.037 . S
Co1 N36 2.145 1_455 S
Co1 N57 2.257 . S
O2 Co0 2.143 . S
O2 Co1 2.160 . S
C3 O4 1.278 . S
C3 O11 1.224 . S
O4 C3 1.278 . S
C5 O6 1.245 . S
C5 O17 1.232 . S
O6 C5 1.245 . S
O7 Co1 2.058 1_655 S
O7 C33 1.269 . S
O8 Co0 2.074 1_655 S
O8 C33 1.257 . S
H9 C34 0.930 . S
H10 C40 0.930 . S
O11 Co0 2.093 . S
O11 C3 1.224 . S
H12 C44 0.929 1_655 S
H13 C46 0.930 . S
H14 C47 0.930 . S
H15 C45 0.919 1_655 S
H16 C48 0.928 . S
O17 Co1 2.057 . S
O17 C5 1.232 . S
H18 C37 0.929 . S
H19 C38 0.929 . S
H20 C50 0.931 1_655 S
H21 C42 0.929 . S
H22 C51 0.930 . S
H23 C43 0.931 . S
O24 Co0 2.097 . S
O24 C52 1.214 . S
H25 C53 0.929 . S
H26 C54 0.929 . S
H27 C55 0.930 . S
H28 C56 0.929 . S
H29 C58 0.930 . S
H30 C35 0.930 . S
H31 C39 0.930 . S
O32 Co1 2.037 . S
O32 C52 1.234 . S
C33 O7 1.269 . S
C33 O8 1.257 . S
C34 H9 0.930 . S
C34 C37 1.388 . S
C34 C39 1.418 . S
C35 H30 0.930 . S
C35 C38 1.404 . S
C35 C39 1.353 . S
N36 Co1 2.145 1_655 S
N36 C37 1.397 . S
N36 C38 1.334 . S
C37 H18 0.929 . S
C37 C34 1.388 . S
C37 N36 1.397 . S
C38 H19 0.929 . S
C38 C35 1.404 . S
C38 N36 1.334 . S
C39 H31 0.930 . S
C39 C34 1.418 . S
C39 C35 1.353 . S
C40 H10 0.930 . S
C40 N41 1.330 . S
C40 C42 1.446 . S
N41 Co0 2.151 . S
N41 C40 1.330 . S
N41 C45 1.418 . S
C42 H21 0.929 . S
C42 C40 1.446 . S
C42 C43 1.332 . S
C43 H23 0.931 . S
C43 C42 1.332 . S
C43 C44 1.267 . S
C44 H12 0.929 1_455 S
C44 C43 1.267 . S
C44 C45 1.251 . S
C45 H15 0.919 1_455 S
C45 N41 1.418 . S
C45 C44 1.251 . S
C46 H13 0.930 . S
C46 C48 1.406 . S
C46 C51 1.261 . S
C47 H14 0.930 . S
C47 N49 1.325 . S
C47 C50 1.357 . S
C48 H16 0.928 . S
C48 C46 1.406 . S
C48 N49 1.261 . S
N49 Co0 2.214 . S
N49 C47 1.325 . S
N49 C48 1.261 . S
C50 H20 0.931 1_455 S
C50 C47 1.357 . S
C50 C51 1.312 . S
C51 H22 0.930 . S
C51 C46 1.261 . S
C51 C50 1.312 . S
C52 O24 1.214 . S
C52 O32 1.234 . S
C53 H25 0.929 . S
C53 C56 1.391 . S
C53 C58 1.391 . S
C54 H26 0.929 . S
C54 C55 1.390 . S
C54 N57 1.391 . S
C55 H27 0.930 . S
C55 C54 1.390 . S
C55 C56 1.392 . S
C56 H28 0.929 . S
C56 C53 1.391 . S
C56 C55 1.392 . S
N57 Co1 2.257 . S
N57 C54 1.391 . S
N57 C58 1.388 . S
C58 H29 0.930 . S
C58 C53 1.391 . S
C58 N57 1.388 . S
Co59 O61 2.143 . S
Co59 O67 2.074 . S
Co59 O70 2.093 . S
Co59 O83 2.097 . S
Co59 N100 2.151 . S
Co59 N108 2.214 . S
Co60 O61 2.160 . S
Co60 O66 2.058 . S
Co60 O76 2.057 . S
Co60 O91 2.037 . S
Co60 N95 2.145 . S
Co60 N116 2.257 . S
O61 Co59 2.143 . S
O61 Co60 2.160 . S
C62 O63 1.278 . S
C62 O70 1.224 . S
O63 C62 1.278 . S
C64 O65 1.245 . S
C64 O76 1.232 . S
O65 C64 1.245 . S
O66 Co60 2.058 . S
O66 C92 1.269 . S
O67 Co59 2.074 . S
O67 C92 1.257 . S
H68 C93 0.930 . S
H69 C99 0.930 . S
O70 Co59 2.093 . S
O70 C62 1.224 . S
H71 C103 0.929 . S
H72 C105 0.930 . S
H73 C106 0.930 . S
H74 C104 0.929 . S
H75 C107 0.928 . S
O76 Co60 2.057 . S
O76 C64 1.232 . S
H77 C96 0.929 . S
H78 C97 0.929 . S
H79 C109 0.931 . S
H80 C101 0.929 . S
H81 C110 0.930 . S
H82 C102 0.931 . S
O83 Co59 2.097 . S
O83 C111 1.214 . S
H84 C112 0.929 . S
H85 C113 0.929 . S
H86 C114 0.930 . S
H87 C115 0.929 . S
H88 C117 0.930 . S
H89 C94 0.930 . S
H90 C98 0.930 . S
O91 Co60 2.037 . S
O91 C111 1.234 . S
C92 O66 1.269 . S
C92 O67 1.257 . S
C93 H68 0.930 . S
C93 C96 1.388 . S
C93 C98 1.418 . S
C94 H89 0.930 . S
C94 C97 1.404 . S
C94 C98 1.353 . S
N95 Co60 2.145 . S
N95 C96 1.397 . S
N95 C97 1.334 . S
C96 H77 0.929 . S
C96 C93 1.388 . S
C96 N95 1.397 . S
C97 H78 0.929 . S
C97 C94 1.404 . S
C97 N95 1.334 . S
C98 H90 0.930 . S
C98 C93 1.418 . S
C98 C94 1.353 . S
C99 H69 0.930 . S
C99 N100 1.330 . S
C99 C101 1.446 . S
N100 Co59 2.151 . S
N100 C99 1.330 . S
N100 C104 1.418 . S
C101 H80 0.929 . S
C101 C99 1.446 . S
C101 C102 1.332 . S
C102 H82 0.931 . S
C102 C101 1.332 . S
C102 C103 1.267 . S
C103 H71 0.929 . S
C103 C102 1.267 . S
C103 C104 1.251 . S
C104 H74 0.929 . S
C104 N100 1.418 . S
C104 C103 1.251 . S
C105 H72 0.930 . S
C105 C107 1.406 . S
C105 C110 1.261 . S
C106 H73 0.930 . S
C106 N108 1.325 . S
C106 C109 1.357 . S
C107 H75 0.928 . S
C107 C105 1.406 . S
C107 N108 1.261 . S
N108 Co59 2.214 . S
N108 C106 1.325 . S
N108 C107 1.261 . S
C109 H79 0.931 . S
C109 C106 1.357 . S
C109 C110 1.312 . S
C110 H81 0.930 . S
C110 C105 1.261 . S
C110 C109 1.312 . S
C111 O83 1.214 . S
C111 O91 1.234 . S
C112 H84 0.929 . S
C112 C115 1.391 . S
C112 C117 1.391 . S
C113 H85 0.929 . S
C113 C114 1.390 . S
C113 N116 1.391 . S
C114 H86 0.930 . S
C114 C113 1.390 . S
C114 C115 1.392 . S
C115 H87 0.929 . S
C115 C112 1.391 . S
C115 C114 1.392 . S
N116 Co60 2.257 . S
N116 C113 1.391 . S
N116 C117 1.388 . S
C117 H88 0.930 . S
C117 C112 1.391 . S
C117 N116 1.388 . S
Co118 O120 2.143 . S
Co118 O126 2.074 . S
Co118 O129 2.093 1_545 S
Co118 O142 2.097 . S
Co118 N159 2.151 . S
Co118 N167 2.214 . S
Co119 O120 2.160 . S
Co119 O125 2.058 . S
Co119 O135 2.057 . S
Co119 O150 2.037 . S
Co119 N154 2.145 . S
Co119 N175 2.257 . S
O120 Co118 2.143 . S
O120 Co119 2.160 . S
C121 O122 1.278 . S
C121 O129 1.224 . S
O122 C121 1.278 . S
C123 O124 1.245 . S
C123 O135 1.232 . S
O124 C123 1.245 . S
O125 Co119 2.058 . S
O125 C151 1.269 . S
O126 Co118 2.074 . S
O126 C151 1.257 . S
H127 C152 0.930 . S
H128 C158 0.930 1_565 S
O129 Co118 2.093 1_565 S
O129 C121 1.224 . S
H130 C162 0.929 . S
H131 C164 0.930 . S
H132 C165 0.930 . S
H133 C163 0.929 . S
H134 C166 0.928 1_565 S
O135 Co119 2.057 . S
O135 C123 1.232 . S
H136 C155 0.929 . S
H137 C156 0.929 . S
H138 C168 0.931 . S
H139 C160 0.929 1_565 S
H140 C169 0.930 . S
H141 C161 0.931 . S
O142 Co118 2.097 . S
O142 C170 1.214 . S
H143 C171 0.929 . S
H144 C172 0.929 . S
H145 C173 0.930 . S
H146 C174 0.929 . S
H147 C176 0.930 . S
H148 C153 0.930 . S
H149 C157 0.930 . S
O150 Co119 2.037 . S
O150 C170 1.234 . S
C151 O125 1.269 . S
C151 O126 1.257 . S
C152 H127 0.930 . S
C152 C155 1.388 . S
C152 C157 1.418 . S
C153 H148 0.930 . S
C153 C156 1.404 . S
C153 C157 1.353 . S
N154 Co119 2.145 . S
N154 C155 1.397 . S
N154 C156 1.334 . S
C155 H136 0.929 . S
C155 C152 1.388 . S
C155 N154 1.397 . S
C156 H137 0.929 . S
C156 C153 1.404 . S
C156 N154 1.334 . S
C157 H149 0.930 . S
C157 C152 1.418 . S
C157 C153 1.353 . S
C158 H128 0.930 1_545 S
C158 N159 1.330 . S
C158 C160 1.446 . S
N159 Co118 2.151 . S
N159 C158 1.330 . S
N159 C163 1.418 . S
C160 H139 0.929 1_545 S
C160 C158 1.446 . S
C160 C161 1.332 . S
C161 H141 0.931 . S
C161 C160 1.332 . S
C161 C162 1.267 . S
C162 H130 0.929 . S
C162 C161 1.267 . S
C162 C163 1.251 . S
C163 H133 0.929 . S
C163 N159 1.418 . S
C163 C162 1.251 . S
C164 H131 0.930 . S
C164 C166 1.406 . S
C164 C169 1.261 . S
C165 H132 0.930 . S
C165 N167 1.325 . S
C165 C168 1.357 . S
C166 H134 0.928 1_545 S
C166 C164 1.406 . S
C166 N167 1.261 . S
N167 Co118 2.214 . S
N167 C165 1.325 . S
N167 C166 1.261 . S
C168 H138 0.931 . S
C168 C165 1.357 . S
C168 C169 1.312 . S
C169 H140 0.930 . S
C169 C164 1.261 . S
C169 C168 1.312 . S
C170 O142 1.214 . S
C170 O150 1.234 . S
C171 H143 0.929 . S
C171 C174 1.391 . S
C171 C176 1.391 . S
C172 H144 0.929 . S
C172 C173 1.390 1_545 S
C172 N175 1.391 . S
C173 H145 0.930 . S
C173 C172 1.390 1_565 S
C173 C174 1.392 . S
C174 H146 0.929 . S
C174 C171 1.391 . S
C174 C173 1.392 . S
N175 Co119 2.257 . S
N175 C172 1.391 . S
N175 C176 1.388 1_545 S
C176 H147 0.930 . S
C176 C171 1.391 . S
C176 N175 1.388 1_565 S
Co177 O179 2.143 . S
Co177 O185 2.074 1_545 S
Co177 O188 2.093 . S
Co177 O201 2.097 . S
Co177 N218 2.151 . S
Co177 N226 2.214 . S
Co178 O179 2.160 . S
Co178 O184 2.058 1_545 S
Co178 O194 2.057 . S
Co178 O209 2.037 . S
Co178 N213 2.145 1_545 S
Co178 N234 2.257 . S
O179 Co177 2.143 . S
O179 Co178 2.160 . S
C180 O181 1.278 . S
C180 O188 1.224 . S
O181 C180 1.278 . S
C182 O183 1.245 . S
C182 O194 1.232 . S
O183 C182 1.245 . S
O184 Co178 2.058 1_565 S
O184 C210 1.269 . S
O185 Co177 2.074 1_565 S
O185 C210 1.257 . S
H186 C211 0.930 . S
H187 C217 0.930 . S
O188 Co177 2.093 . S
O188 C180 1.224 . S
H189 C221 0.929 1_565 S
H190 C223 0.930 . S
H191 C224 0.930 . S
H192 C222 0.919 1_565 S
H193 C225 0.928 . S
O194 Co178 2.057 . S
O194 C182 1.232 . S
H195 C214 0.929 . S
H196 C215 0.929 . S
H197 C227 0.931 1_565 S
H198 C219 0.929 . S
H199 C228 0.930 . S
H200 C220 0.931 . S
O201 Co177 2.097 . S
O201 C229 1.214 . S
H202 C230 0.929 . S
H203 C231 0.929 . S
H204 C232 0.930 . S
H205 C233 0.929 . S
H206 C235 0.930 . S
H207 C212 0.930 . S
H208 C216 0.930 . S
O209 Co178 2.037 . S
O209 C229 1.234 . S
C210 O184 1.269 . S
C210 O185 1.257 . S
C211 H186 0.930 . S
C211 C214 1.388 . S
C211 C216 1.418 . S
C212 H207 0.930 . S
C212 C215 1.404 . S
C212 C216 1.353 . S
N213 Co178 2.145 1_565 S
N213 C214 1.397 . S
N213 C215 1.334 . S
C214 H195 0.929 . S
C214 C211 1.388 . S
C214 N213 1.397 . S
C215 H196 0.929 . S
C215 C212 1.404 . S
C215 N213 1.334 . S
C216 H208 0.930 . S
C216 C211 1.418 . S
C216 C212 1.353 . S
C217 H187 0.930 . S
C217 N218 1.330 . S
C217 C219 1.446 . S
N218 Co177 2.151 . S
N218 C217 1.330 . S
N218 C222 1.418 . S
C219 H198 0.929 . S
C219 C217 1.446 . S
C219 C220 1.332 . S
C220 H200 0.931 . S
C220 C219 1.332 . S
C220 C221 1.267 . S
C221 H189 0.929 1_545 S
C221 C220 1.267 . S
C221 C222 1.251 . S
C222 H192 0.919 1_545 S
C222 N218 1.418 . S
C222 C221 1.251 . S
C223 H190 0.930 . S
C223 C225 1.406 . S
C223 C228 1.261 . S
C224 H191 0.930 . S
C224 N226 1.325 . S
C224 C227 1.357 . S
C225 H193 0.928 . S
C225 C223 1.406 . S
C225 N226 1.261 . S
N226 Co177 2.214 . S
N226 C224 1.325 . S
N226 C225 1.261 . S
C227 H197 0.931 1_545 S
C227 C224 1.357 . S
C227 C228 1.312 . S
C228 H199 0.930 . S
C228 C223 1.261 . S
C228 C227 1.312 . S
C229 O201 1.214 . S
C229 O209 1.234 . S
C230 H202 0.929 . S
C230 C233 1.391 . S
C230 C235 1.391 . S
C231 H203 0.929 . S
C231 C232 1.390 . S
C231 N234 1.391 . S
C232 H204 0.930 . S
C232 C231 1.390 . S
C232 C233 1.392 . S
C233 H205 0.929 . S
C233 C230 1.391 . S
C233 C232 1.392 . S
N234 Co178 2.257 . S
N234 C231 1.391 . S
N234 C235 1.388 . S
C235 H206 0.930 . S
C235 C230 1.391 . S
C235 N234 1.388 . S
Co236 O238 2.143 . S
Co236 O244 2.074 . S
Co236 O247 2.093 1_455 S
Co236 O260 2.097 . S
Co236 N277 2.151 . S
Co236 N285 2.214 . S
Co237 O238 2.160 . S
Co237 O243 2.058 . S
Co237 O253 2.057 . S
Co237 O268 2.037 . S
Co237 N272 2.145 . S
Co237 N293 2.257 . S
O238 Co236 2.143 . S
O238 Co237 2.160 . S
C239 O240 1.278 . S
C239 O247 1.224 . S
O240 C239 1.278 . S
C241 O242 1.245 . S
C241 O253 1.232 . S
O242 C241 1.245 . S
O243 Co237 2.058 . S
O243 C269 1.269 . S
O244 Co236 2.074 . S
O244 C269 1.257 . S
H245 C270 0.930 . S
H246 C276 0.930 1_655 S
O247 Co236 2.093 1_655 S
O247 C239 1.224 . S
H248 C280 0.929 . S
H249 C282 0.930 . S
H250 C283 0.930 . S
H251 C281 0.929 . S
H252 C284 0.928 1_655 S
O253 Co237 2.057 . S
O253 C241 1.232 . S
H254 C273 0.929 . S
H255 C274 0.929 . S
H256 C286 0.931 . S
H257 C278 0.929 1_655 S
H258 C287 0.930 . S
H259 C279 0.931 . S
O260 Co236 2.097 . S
O260 C288 1.214 . S
H261 C289 0.929 . S
H262 C290 0.929 . S
H263 C291 0.930 . S
H264 C292 0.929 . S
H265 C294 0.930 . S
H266 C271 0.930 . S
H267 C275 0.930 . S
O268 Co237 2.037 . S
O268 C288 1.234 . S
C269 O243 1.269 . S
C269 O244 1.257 . S
C270 H245 0.930 . S
C270 C273 1.388 . S
C270 C275 1.418 . S
C271 H266 0.930 . S
C271 C274 1.404 . S
C271 C275 1.353 . S
N272 Co237 2.145 . S
N272 C273 1.397 . S
N272 C274 1.334 . S
C273 H254 0.929 . S
C273 C270 1.388 . S
C273 N272 1.397 . S
C274 H255 0.929 . S
C274 C271 1.404 . S
C274 N272 1.334 . S
C275 H267 0.930 . S
C275 C270 1.418 . S
C275 C271 1.353 . S
C276 H246 0.930 1_455 S
C276 N277 1.330 . S
C276 C278 1.446 . S
N277 Co236 2.151 . S
N277 C276 1.330 . S
N277 C281 1.418 . S
C278 H257 0.929 1_455 S
C278 C276 1.446 . S
C278 C279 1.332 . S
C279 H259 0.931 . S
C279 C278 1.332 . S
C279 C280 1.267 . S
C280 H248 0.929 . S
C280 C279 1.267 . S
C280 C281 1.251 . S
C281 H251 0.929 . S
C281 N277 1.418 . S
C281 C280 1.251 . S
C282 H249 0.930 . S
C282 C284 1.406 . S
C282 C287 1.261 . S
C283 H250 0.930 . S
C283 N285 1.325 . S
C283 C286 1.357 . S
C284 H252 0.928 1_455 S
C284 C282 1.406 . S
C284 N285 1.261 . S
N285 Co236 2.214 . S
N285 C283 1.325 . S
N285 C284 1.261 . S
C286 H256 0.931 . S
C286 C283 1.357 . S
C286 C287 1.312 . S
C287 H258 0.930 . S
C287 C282 1.261 . S
C287 C286 1.312 . S
C288 O260 1.214 . S
C288 O268 1.234 . S
C289 H261 0.929 . S
C289 C292 1.391 . S
C289 C294 1.391 . S
C290 H262 0.929 . S
C290 C291 1.390 1_455 S
C290 N293 1.391 . S
C291 H263 0.930 . S
C291 C290 1.390 1_655 S
C291 C292 1.392 . S
C292 H264 0.929 . S
C292 C289 1.391 . S
C292 C291 1.392 . S
N293 Co237 2.257 . S
N293 C290 1.391 . S
N293 C294 1.388 1_455 S
C294 H265 0.930 . S
C294 C289 1.391 . S
C294 N293 1.388 1_655 S
Co295 O297 2.143 . S
Co295 O303 2.074 . S
Co295 O306 2.093 . S
Co295 O319 2.097 . S
Co295 N336 2.151 . S
Co295 N344 2.214 . S
Co296 O297 2.160 . S
Co296 O302 2.058 . S
Co296 O312 2.057 . S
Co296 O327 2.037 . S
Co296 N331 2.145 . S
Co296 N352 2.257 . S
O297 Co295 2.143 . S
O297 Co296 2.160 . S
C298 O299 1.278 . S
C298 O306 1.224 . S
O299 C298 1.278 . S
C300 O301 1.245 . S
C300 O312 1.232 . S
O301 C300 1.245 . S
O302 Co296 2.058 . S
O302 C328 1.269 . S
O303 Co295 2.074 . S
O303 C328 1.257 . S
H304 C329 0.930 . S
H305 C335 0.930 . S
O306 Co295 2.093 . S
O306 C298 1.224 . S
H307 C339 0.929 . S
H308 C341 0.930 . S
H309 C342 0.930 . S
H310 C340 0.929 . S
H311 C343 0.928 . S
O312 Co296 2.057 . S
O312 C300 1.232 . S
H313 C332 0.929 . S
H314 C333 0.929 . S
H315 C345 0.931 . S
H316 C337 0.929 . S
H317 C346 0.930 . S
H318 C338 0.931 . S
O319 Co295 2.097 . S
O319 C347 1.214 . S
H320 C348 0.929 . S
H321 C349 0.929 . S
H322 C350 0.930 . S
H323 C351 0.929 . S
H324 C353 0.930 . S
H325 C330 0.930 . S
H326 C334 0.930 . S
O327 Co296 2.037 . S
O327 C347 1.234 . S
C328 O302 1.269 . S
C328 O303 1.257 . S
C329 H304 0.930 . S
C329 C332 1.388 . S
C329 C334 1.418 . S
C330 H325 0.930 . S
C330 C333 1.404 . S
C330 C334 1.353 . S
N331 Co296 2.145 . S
N331 C332 1.397 . S
N331 C333 1.334 . S
C332 H313 0.929 . S
C332 C329 1.388 . S
C332 N331 1.397 . S
C333 H314 0.929 . S
C333 C330 1.404 . S
C333 N331 1.334 . S
C334 H326 0.930 . S
C334 C329 1.418 . S
C334 C330 1.353 . S
C335 H305 0.930 . S
C335 N336 1.330 . S
C335 C337 1.446 . S
N336 Co295 2.151 . S
N336 C335 1.330 . S
N336 C340 1.418 . S
C337 H316 0.929 . S
C337 C335 1.446 . S
C337 C338 1.332 . S
C338 H318 0.931 . S
C338 C337 1.332 . S
C338 C339 1.267 . S
C339 H307 0.929 . S
C339 C338 1.267 . S
C339 C340 1.251 . S
C340 H310 0.929 . S
C340 N336 1.418 . S
C340 C339 1.251 . S
C341 H308 0.930 . S
C341 C343 1.406 . S
C341 C346 1.261 . S
C342 H309 0.930 . S
C342 N344 1.325 . S
C342 C345 1.357 . S
C343 H311 0.928 . S
C343 C341 1.406 . S
C343 N344 1.261 . S
N344 Co295 2.214 . S
N344 C342 1.325 . S
N344 C343 1.261 . S
C345 H315 0.931 . S
C345 C342 1.357 . S
C345 C346 1.312 . S
C346 H317 0.930 . S
C346 C341 1.261 . S
C346 C345 1.312 . S
C347 O319 1.214 . S
C347 O327 1.234 . S
C348 H320 0.929 . S
C348 C351 1.391 . S
C348 C353 1.391 . S
C349 H321 0.929 . S
C349 C350 1.390 . S
C349 N352 1.391 . S
C350 H322 0.930 . S
C350 C349 1.390 . S
C350 C351 1.392 . S
C351 H323 0.929 . S
C351 C348 1.391 . S
C351 C350 1.392 . S
N352 Co296 2.257 . S
N352 C349 1.391 . S
N352 C353 1.388 . S
C353 H324 0.930 . S
C353 C348 1.391 . S
C353 N352 1.388 . S
Co354 O356 2.143 . S
Co354 O362 2.074 . S
Co354 O365 2.093 1_455 S
Co354 O378 2.097 . S
Co354 N395 2.151 . S
Co354 N403 2.214 . S
Co355 O356 2.160 . S
Co355 O361 2.058 . S
Co355 O371 2.057 . S
Co355 O386 2.037 . S
Co355 N390 2.145 . S
Co355 N411 2.257 . S
O356 Co354 2.143 . S
O356 Co355 2.160 . S
C357 O358 1.278 . S
C357 O365 1.224 . S
O358 C357 1.278 . S
C359 O360 1.245 . S
C359 O371 1.232 . S
O360 C359 1.245 . S
O361 Co355 2.058 . S
O361 C387 1.269 . S
O362 Co354 2.074 . S
O362 C387 1.257 . S
H363 C388 0.930 . S
H364 C394 0.930 1_655 S
O365 Co354 2.093 1_655 S
O365 C357 1.224 . S
H366 C398 0.929 . S
H367 C400 0.930 . S
H368 C401 0.930 . S
H369 C399 0.929 . S
H370 C402 0.928 1_655 S
O371 Co355 2.057 . S
O371 C359 1.232 . S
H372 C391 0.929 . S
H373 C392 0.929 . S
H374 C404 0.931 . S
H375 C396 0.929 1_655 S
H376 C405 0.930 . S
H377 C397 0.931 . S
O378 Co354 2.097 . S
O378 C406 1.214 . S
H379 C407 0.929 . S
H380 C408 0.929 . S
H381 C409 0.930 . S
H382 C410 0.929 . S
H383 C412 0.930 . S
H384 C389 0.930 . S
H385 C393 0.930 . S
O386 Co355 2.037 . S
O386 C406 1.234 . S
C387 O361 1.269 . S
C387 O362 1.257 . S
C388 H363 0.930 . S
C388 C391 1.388 . S
C388 C393 1.418 . S
C389 H384 0.930 . S
C389 C392 1.404 . S
C389 C393 1.353 . S
N390 Co355 2.145 . S
N390 C391 1.397 . S
N390 C392 1.334 . S
C391 H372 0.929 . S
C391 C388 1.388 . S
C391 N390 1.397 . S
C392 H373 0.929 . S
C392 C389 1.404 . S
C392 N390 1.334 . S
C393 H385 0.930 . S
C393 C388 1.418 . S
C393 C389 1.353 . S
C394 H364 0.930 1_455 S
C394 N395 1.330 . S
C394 C396 1.446 . S
N395 Co354 2.151 . S
N395 C394 1.330 . S
N395 C399 1.418 . S
C396 H375 0.929 1_455 S
C396 C394 1.446 . S
C396 C397 1.332 . S
C397 H377 0.931 . S
C397 C396 1.332 . S
C397 C398 1.267 . S
C398 H366 0.929 . S
C398 C397 1.267 . S
C398 C399 1.251 . S
C399 H369 0.929 . S
C399 N395 1.418 . S
C399 C398 1.251 . S
C400 H367 0.930 . S
C400 C402 1.406 . S
C400 C405 1.261 . S
C401 H368 0.930 . S
C401 N403 1.325 . S
C401 C404 1.357 . S
C402 H370 0.928 1_455 S
C402 C400 1.406 . S
C402 N403 1.261 . S
N403 Co354 2.214 . S
N403 C401 1.325 . S
N403 C402 1.261 . S
C404 H374 0.931 . S
C404 C401 1.357 . S
C404 C405 1.312 . S
C405 H376 0.930 . S
C405 C400 1.261 . S
C405 C404 1.312 . S
C406 O378 1.214 . S
C406 O386 1.234 . S
C407 H379 0.929 . S
C407 C410 1.391 . S
C407 C412 1.391 . S
C408 H380 0.929 . S
C408 C409 1.390 1_455 S
C408 N411 1.391 . S
C409 H381 0.930 . S
C409 C408 1.390 1_655 S
C409 C410 1.392 . S
C410 H382 0.929 . S
C410 C407 1.391 . S
C410 C409 1.392 . S
N411 Co355 2.257 . S
N411 C408 1.391 . S
N411 C412 1.388 1_455 S
C412 H383 0.930 . S
C412 C407 1.391 . S
C412 N411 1.388 1_655 S
Co413 O415 2.143 . S
Co413 O421 2.074 . S
Co413 O424 2.093 . S
Co413 O437 2.097 . S
Co413 N454 2.151 . S
Co413 N462 2.214 . S
Co414 O415 2.160 . S
Co414 O420 2.058 . S
Co414 O430 2.057 . S
Co414 O445 2.037 . S
Co414 N449 2.145 . S
Co414 N470 2.257 . S
O415 Co413 2.143 . S
O415 Co414 2.160 . S
C416 O417 1.278 . S
C416 O424 1.224 . S
O417 C416 1.278 . S
C418 O419 1.245 . S
C418 O430 1.232 . S
O419 C418 1.245 . S
O420 Co414 2.058 . S
O420 C446 1.269 . S
O421 Co413 2.074 . S
O421 C446 1.257 . S
H422 C447 0.930 . S
H423 C453 0.930 . S
O424 Co413 2.093 . S
O424 C416 1.224 . S
H425 C457 0.929 . S
H426 C459 0.930 . S
H427 C460 0.930 . S
H428 C458 0.929 . S
H429 C461 0.928 . S
O430 Co414 2.057 . S
O430 C418 1.232 . S
H431 C450 0.929 . S
H432 C451 0.929 . S
H433 C463 0.931 . S
H434 C455 0.929 . S
H435 C464 0.930 . S
H436 C456 0.931 . S
O437 Co413 2.097 . S
O437 C465 1.214 . S
H438 C466 0.929 . S
H439 C467 0.929 . S
H440 C468 0.930 . S
H441 C469 0.929 . S
H442 C471 0.930 . S
H443 C448 0.930 . S
H444 C452 0.930 . S
O445 Co414 2.037 . S
O445 C465 1.234 . S
C446 O420 1.269 . S
C446 O421 1.257 . S
C447 H422 0.930 . S
C447 C450 1.388 . S
C447 C452 1.418 . S
C448 H443 0.930 . S
C448 C451 1.404 . S
C448 C452 1.353 . S
N449 Co414 2.145 . S
N449 C450 1.397 . S
N449 C451 1.334 . S
C450 H431 0.929 . S
C450 C447 1.388 . S
C450 N449 1.397 . S
C451 H432 0.929 . S
C451 C448 1.404 . S
C451 N449 1.334 . S
C452 H444 0.930 . S
C452 C447 1.418 . S
C452 C448 1.353 . S
C453 H423 0.930 . S
C453 N454 1.330 . S
C453 C455 1.446 . S
N454 Co413 2.151 . S
N454 C453 1.330 . S
N454 C458 1.418 . S
C455 H434 0.929 . S
C455 C453 1.446 . S
C455 C456 1.332 . S
C456 H436 0.931 . S
C456 C455 1.332 . S
C456 C457 1.267 . S
C457 H425 0.929 . S
C457 C456 1.267 . S
C457 C458 1.251 . S
C458 H428 0.929 . S
C458 N454 1.418 . S
C458 C457 1.251 . S
C459 H426 0.930 . S
C459 C461 1.406 . S
C459 C464 1.261 . S
C460 H427 0.930 . S
C460 N462 1.325 . S
C460 C463 1.357 . S
C461 H429 0.928 . S
C461 C459 1.406 . S
C461 N462 1.261 . S
N462 Co413 2.214 . S
N462 C460 1.325 . S
N462 C461 1.261 . S
C463 H433 0.931 . S
C463 C460 1.357 . S
C463 C464 1.312 . S
C464 H435 0.930 . S
C464 C459 1.261 . S
C464 C463 1.312 . S
C465 O437 1.214 . S
C465 O445 1.234 . S
C466 H438 0.929 . S
C466 C469 1.391 . S
C466 C471 1.391 . S
C467 H439 0.929 . S
C467 C468 1.390 . S
C467 N470 1.391 . S
C468 H440 0.930 . S
C468 C467 1.390 . S
C468 C469 1.392 . S
C469 H441 0.929 . S
C469 C466 1.391 . S
C469 C468 1.392 . S
N470 Co414 2.257 . S
N470 C467 1.391 . S
N470 C471 1.388 . S
C471 H442 0.930 . S
C471 C466 1.391 . S
C471 N470 1.388 . S
Co472 O474 2.143 . S
Co472 O480 2.074 1_545 S
Co472 O483 2.093 . S
Co472 O496 2.097 . S
Co472 N513 2.151 . S
Co472 N521 2.214 . S
Co473 O474 2.160 . S
Co473 O479 2.058 1_545 S
Co473 O489 2.057 . S
Co473 O504 2.037 . S
Co473 N508 2.145 1_545 S
Co473 N529 2.257 . S
O474 Co472 2.143 . S
O474 Co473 2.160 . S
C475 O476 1.278 . S
C475 O483 1.224 . S
O476 C475 1.278 . S
C477 O478 1.245 . S
C477 O489 1.232 . S
O478 C477 1.245 . S
O479 Co473 2.058 1_565 S
O479 C505 1.269 . S
O480 Co472 2.074 1_565 S
O480 C505 1.257 . S
H481 C506 0.930 . S
H482 C512 0.930 . S
O483 Co472 2.093 . S
O483 C475 1.224 . S
H484 C516 0.929 1_565 S
H485 C518 0.930 . S
H486 C519 0.930 . S
H487 C517 0.918 1_565 S
H488 C520 0.928 . S
O489 Co473 2.057 . S
O489 C477 1.232 . S
H490 C509 0.929 . S
H491 C510 0.929 . S
H492 C522 0.931 1_565 S
H493 C514 0.929 . S
H494 C523 0.930 . S
H495 C515 0.931 . S
O496 Co472 2.097 . S
O496 C524 1.214 . S
H497 C525 0.929 . S
H498 C526 0.929 . S
H499 C527 0.930 . S
H500 C528 0.929 . S
H501 C530 0.930 . S
H502 C507 0.930 . S
H503 C511 0.930 . S
O504 Co473 2.037 . S
O504 C524 1.234 . S
C505 O479 1.269 . S
C505 O480 1.257 . S
C506 H481 0.930 . S
C506 C509 1.388 . S
C506 C511 1.418 . S
C507 H502 0.930 . S
C507 C510 1.404 . S
C507 C511 1.353 . S
N508 Co473 2.145 1_565 S
N508 C509 1.397 . S
N508 C510 1.334 . S
C509 H490 0.929 . S
C509 C506 1.388 . S
C509 N508 1.397 . S
C510 H491 0.929 . S
C510 C507 1.404 . S
C510 N508 1.334 . S
C511 H503 0.930 . S
C511 C506 1.418 . S
C511 C507 1.353 . S
C512 H482 0.930 . S
C512 N513 1.330 . S
C512 C514 1.446 . S
N513 Co472 2.151 . S
N513 C512 1.330 . S
N513 C517 1.418 . S
C514 H493 0.929 . S
C514 C512 1.446 . S
C514 C515 1.332 . S
C515 H495 0.931 . S
C515 C514 1.332 . S
C515 C516 1.267 . S
C516 H484 0.929 1_545 S
C516 C515 1.267 . S
C516 C517 1.251 . S
C517 H487 0.918 1_545 S
C517 N513 1.418 . S
C517 C516 1.251 . S
C518 H485 0.930 . S
C518 C520 1.406 . S
C518 C523 1.261 . S
C519 H486 0.930 . S
C519 N521 1.325 . S
C519 C522 1.357 . S
C520 H488 0.928 . S
C520 C518 1.406 . S
C520 N521 1.261 . S
N521 Co472 2.214 . S
N521 C519 1.325 . S
N521 C520 1.261 . S
C522 H492 0.931 1_545 S
C522 C519 1.357 . S
C522 C523 1.312 . S
C523 H494 0.930 . S
C523 C518 1.261 . S
C523 C522 1.312 . S
C524 O496 1.214 . S
C524 O504 1.234 . S
C525 H497 0.929 . S
C525 C528 1.391 . S
C525 C530 1.391 . S
C526 H498 0.929 . S
C526 C527 1.390 . S
C526 N529 1.391 . S
C527 H499 0.930 . S
C527 C526 1.390 . S
C527 C528 1.392 . S
C528 H500 0.929 . S
C528 C525 1.391 . S
C528 C527 1.392 . S
N529 Co473 2.257 . S
N529 C526 1.391 . S
N529 C530 1.388 . S
C530 H501 0.930 . S
C530 C525 1.391 . S
C530 N529 1.388 . S
Co531 O533 2.143 . S
Co531 O539 2.074 . S
Co531 O542 2.093 1_545 S
Co531 O555 2.097 . S
Co531 N572 2.151 . S
Co531 N580 2.214 . S
Co532 O533 2.160 . S
Co532 O538 2.058 . S
Co532 O548 2.057 . S
Co532 O563 2.037 . S
Co532 N567 2.145 . S
Co532 N588 2.257 . S
O533 Co531 2.143 . S
O533 Co532 2.160 . S
C534 O535 1.278 . S
C534 O542 1.224 . S
O535 C534 1.278 . S
C536 O537 1.245 . S
C536 O548 1.232 . S
O537 C536 1.245 . S
O538 Co532 2.058 . S
O538 C564 1.269 . S
O539 Co531 2.074 . S
O539 C564 1.257 . S
H540 C565 0.930 . S
H541 C571 0.930 1_565 S
O542 Co531 2.093 1_565 S
O542 C534 1.224 . S
H543 C575 0.929 . S
H544 C577 0.930 . S
H545 C578 0.930 . S
H546 C576 0.929 . S
H547 C579 0.928 1_565 S
O548 Co532 2.057 . S
O548 C536 1.232 . S
H549 C568 0.929 . S
H550 C569 0.929 . S
H551 C581 0.931 . S
H552 C573 0.929 1_565 S
H553 C582 0.930 . S
H554 C574 0.931 . S
O555 Co531 2.097 . S
O555 C583 1.214 . S
H556 C584 0.929 . S
H557 C585 0.929 . S
H558 C586 0.930 . S
H559 C587 0.929 . S
H560 C589 0.930 . S
H561 C566 0.930 . S
H562 C570 0.930 . S
O563 Co532 2.037 . S
O563 C583 1.234 . S
C564 O538 1.269 . S
C564 O539 1.257 . S
C565 H540 0.930 . S
C565 C568 1.388 . S
C565 C570 1.418 . S
C566 H561 0.930 . S
C566 C569 1.404 . S
C566 C570 1.353 . S
N567 Co532 2.145 . S
N567 C568 1.397 . S
N567 C569 1.334 . S
C568 H549 0.929 . S
C568 C565 1.388 . S
C568 N567 1.397 . S
C569 H550 0.929 . S
C569 C566 1.404 . S
C569 N567 1.334 . S
C570 H562 0.930 . S
C570 C565 1.418 . S
C570 C566 1.353 . S
C571 H541 0.930 1_545 S
C571 N572 1.330 . S
C571 C573 1.446 . S
N572 Co531 2.151 . S
N572 C571 1.330 . S
N572 C576 1.418 . S
C573 H552 0.929 1_545 S
C573 C571 1.446 . S
C573 C574 1.332 . S
C574 H554 0.931 . S
C574 C573 1.332 . S
C574 C575 1.267 . S
C575 H543 0.929 . S
C575 C574 1.267 . S
C575 C576 1.251 . S
C576 H546 0.929 . S
C576 N572 1.418 . S
C576 C575 1.251 . S
C577 H544 0.930 . S
C577 C579 1.406 . S
C577 C582 1.261 . S
C578 H545 0.930 . S
C578 N580 1.325 . S
C578 C581 1.357 . S
C579 H547 0.928 1_545 S
C579 C577 1.406 . S
C579 N580 1.261 . S
N580 Co531 2.214 . S
N580 C578 1.325 . S
N580 C579 1.261 . S
C581 H551 0.931 . S
C581 C578 1.357 . S
C581 C582 1.312 . S
C582 H553 0.930 . S
C582 C577 1.261 . S
C582 C581 1.312 . S
C583 O555 1.214 . S
C583 O563 1.234 . S
C584 H556 0.929 . S
C584 C587 1.391 . S
C584 C589 1.391 . S
C585 H557 0.929 . S
C585 C586 1.390 1_545 S
C585 N588 1.391 . S
C586 H558 0.930 . S
C586 C585 1.390 1_565 S
C586 C587 1.392 . S
C587 H559 0.929 . S
C587 C584 1.391 . S
C587 C586 1.392 . S
N588 Co532 2.257 . S
N588 C585 1.391 . S
N588 C589 1.388 1_545 S
C589 H560 0.930 . S
C589 C584 1.391 . S
C589 N588 1.388 1_565 S
Co590 O592 2.143 . S
Co590 O598 2.074 1_455 S
Co590 O601 2.093 . S
Co590 O614 2.097 . S
Co590 N631 2.151 . S
Co590 N639 2.214 . S
Co591 O592 2.160 . S
Co591 O597 2.058 1_455 S
Co591 O607 2.057 . S
Co591 O622 2.037 . S
Co591 N626 2.145 1_455 S
Co591 N647 2.257 . S
O592 Co590 2.143 . S
O592 Co591 2.160 . S
C593 O594 1.278 . S
C593 O601 1.224 . S
O594 C593 1.278 . S
C595 O596 1.245 . S
C595 O607 1.232 . S
O596 C595 1.245 . S
O597 Co591 2.058 1_655 S
O597 C623 1.269 . S
O598 Co590 2.074 1_655 S
O598 C623 1.257 . S
H599 C624 0.930 . S
H600 C630 0.930 . S
O601 Co590 2.093 . S
O601 C593 1.224 . S
H602 C634 0.929 1_655 S
H603 C636 0.930 . S
H604 C637 0.930 . S
H605 C635 0.918 1_655 S
H606 C638 0.928 . S
O607 Co591 2.057 . S
O607 C595 1.232 . S
H608 C627 0.929 . S
H609 C628 0.929 . S
H610 C640 0.931 1_655 S
H611 C632 0.929 . S
H612 C641 0.930 . S
H613 C633 0.931 . S
O614 Co590 2.097 . S
O614 C642 1.214 . S
H615 C643 0.929 . S
H616 C644 0.929 . S
H617 C645 0.930 . S
H618 C646 0.929 . S
H619 C648 0.930 . S
H620 C625 0.930 . S
H621 C629 0.930 . S
O622 Co591 2.037 . S
O622 C642 1.234 . S
C623 O597 1.269 . S
C623 O598 1.257 . S
C624 H599 0.930 . S
C624 C627 1.388 . S
C624 C629 1.418 . S
C625 H620 0.930 . S
C625 C628 1.404 . S
C625 C629 1.353 . S
N626 Co591 2.145 1_655 S
N626 C627 1.397 . S
N626 C628 1.334 . S
C627 H608 0.929 . S
C627 C624 1.388 . S
C627 N626 1.397 . S
C628 H609 0.929 . S
C628 C625 1.404 . S
C628 N626 1.334 . S
C629 H621 0.930 . S
C629 C624 1.418 . S
C629 C625 1.353 . S
C630 H600 0.930 . S
C630 N631 1.330 . S
C630 C632 1.446 . S
N631 Co590 2.151 . S
N631 C630 1.330 . S
N631 C635 1.418 . S
C632 H611 0.929 . S
C632 C630 1.446 . S
C632 C633 1.332 . S
C633 H613 0.931 . S
C633 C632 1.332 . S
C633 C634 1.267 . S
C634 H602 0.929 1_455 S
C634 C633 1.267 . S
C634 C635 1.251 . S
C635 H605 0.918 1_455 S
C635 N631 1.418 . S
C635 C634 1.251 . S
C636 H603 0.930 . S
C636 C638 1.406 . S
C636 C641 1.261 . S
C637 H604 0.930 . S
C637 N639 1.325 . S
C637 C640 1.357 . S
C638 H606 0.928 . S
C638 C636 1.406 . S
C638 N639 1.261 . S
N639 Co590 2.214 . S
N639 C637 1.325 . S
N639 C638 1.261 . S
C640 H610 0.931 1_455 S
C640 C637 1.357 . S
C640 C641 1.312 . S
C641 H612 0.930 . S
C641 C636 1.261 . S
C641 C640 1.312 . S
C642 O614 1.214 . S
C642 O622 1.234 . S
C643 H615 0.929 . S
C643 C646 1.391 . S
C643 C648 1.391 . S
C644 H616 0.929 . S
C644 C645 1.390 . S
C644 N647 1.391 . S
C645 H617 0.930 . S
C645 C644 1.390 . S
C645 C646 1.392 . S
C646 H618 0.929 . S
C646 C643 1.391 . S
C646 C645 1.392 . S
N647 Co591 2.257 . S
N647 C644 1.391 . S
N647 C648 1.388 . S
C648 H619 0.930 . S
C648 C643 1.391 . S
C648 N647 1.388 . S
Co649 O651 2.143 . S
Co649 O657 2.074 . S
Co649 O660 2.093 . S
Co649 O673 2.097 . S
Co649 N690 2.151 . S
Co649 N698 2.214 . S
Co650 O651 2.160 . S
Co650 O656 2.058 . S
Co650 O666 2.057 . S
Co650 O681 2.037 . S
Co650 N685 2.145 . S
Co650 N706 2.257 . S
O651 Co649 2.143 . S
O651 Co650 2.160 . S
C652 O653 1.278 . S
C652 O660 1.224 . S
O653 C652 1.278 . S
C654 O655 1.245 . S
C654 O666 1.232 . S
O655 C654 1.245 . S
O656 Co650 2.058 . S
O656 C682 1.269 . S
O657 Co649 2.074 . S
O657 C682 1.257 . S
H658 C683 0.930 . S
H659 C689 0.930 . S
O660 Co649 2.093 . S
O660 C652 1.224 . S
H661 C693 0.929 . S
H662 C695 0.930 . S
H663 C696 0.930 . S
H664 C694 0.929 . S
H665 C697 0.928 . S
O666 Co650 2.057 . S
O666 C654 1.232 . S
H667 C686 0.929 . S
H668 C687 0.929 . S
H669 C699 0.931 . S
H670 C691 0.929 . S
H671 C700 0.930 . S
H672 C692 0.931 . S
O673 Co649 2.097 . S
O673 C701 1.214 . S
H674 C702 0.929 . S
H675 C703 0.929 . S
H676 C704 0.930 . S
H677 C705 0.929 . S
H678 C707 0.930 . S
H679 C684 0.930 . S
H680 C688 0.930 . S
O681 Co650 2.037 . S
O681 C701 1.234 . S
C682 O656 1.269 . S
C682 O657 1.257 . S
C683 H658 0.930 . S
C683 C686 1.388 . S
C683 C688 1.418 . S
C684 H679 0.930 . S
C684 C687 1.404 . S
C684 C688 1.353 . S
N685 Co650 2.145 . S
N685 C686 1.397 . S
N685 C687 1.334 . S
C686 H667 0.929 . S
C686 C683 1.388 . S
C686 N685 1.397 . S
C687 H668 0.929 . S
C687 C684 1.404 . S
C687 N685 1.334 . S
C688 H680 0.930 . S
C688 C683 1.418 . S
C688 C684 1.353 . S
C689 H659 0.930 . S
C689 N690 1.330 . S
C689 C691 1.446 . S
N690 Co649 2.151 . S
N690 C689 1.330 . S
N690 C694 1.418 . S
C691 H670 0.929 . S
C691 C689 1.446 . S
C691 C692 1.332 . S
C692 H672 0.931 . S
C692 C691 1.332 . S
C692 C693 1.267 . S
C693 H661 0.929 . S
C693 C692 1.267 . S
C693 C694 1.251 . S
C694 H664 0.929 . S
C694 N690 1.418 . S
C694 C693 1.251 . S
C695 H662 0.930 . S
C695 C697 1.406 . S
C695 C700 1.261 . S
C696 H663 0.930 . S
C696 N698 1.325 . S
C696 C699 1.357 . S
C697 H665 0.928 . S
C697 C695 1.406 . S
C697 N698 1.261 . S
N698 Co649 2.214 . S
N698 C696 1.325 . S
N698 C697 1.261 . S
C699 H669 0.931 . S
C699 C696 1.357 . S
C699 C700 1.312 . S
C700 H671 0.930 . S
C700 C695 1.261 . S
C700 C699 1.312 . S
C701 O673 1.214 . S
C701 O681 1.234 . S
C702 H674 0.929 . S
C702 C705 1.391 . S
C702 C707 1.391 . S
C703 H675 0.929 . S
C703 C704 1.390 . S
C703 N706 1.391 . S
C704 H676 0.930 . S
C704 C703 1.390 . S
C704 C705 1.392 . S
C705 H677 0.929 . S
C705 C702 1.391 . S
C705 C704 1.392 . S
N706 Co650 2.257 . S
N706 C703 1.391 . S
N706 C707 1.388 . S
C707 H678 0.930 . S
C707 C702 1.391 . S
C707 N706 1.388 . S
Co708 O710 2.143 . S
Co708 O716 2.074 . S
Co708 O719 2.093 . S
Co708 O732 2.097 . S
Co708 N749 2.151 . S
Co708 N757 2.214 . S
Co709 O710 2.160 . S
Co709 O715 2.058 . S
Co709 O725 2.057 . S
Co709 O740 2.037 . S
Co709 N744 2.145 . S
Co709 N765 2.257 . S
O710 Co708 2.143 . S
O710 Co709 2.160 . S
C711 O712 1.278 . S
C711 O719 1.224 . S
O712 C711 1.278 . S
C713 O714 1.245 . S
C713 O725 1.232 . S
O714 C713 1.245 . S
O715 Co709 2.058 . S
O715 C741 1.269 . S
O716 Co708 2.074 . S
O716 C741 1.257 . S
H717 C742 0.930 . S
H718 C748 0.930 . S
O719 Co708 2.093 . S
O719 C711 1.224 . S
H720 C752 0.929 . S
H721 C754 0.930 . S
H722 C755 0.930 . S
H723 C753 0.929 . S
H724 C756 0.928 . S
O725 Co709 2.057 . S
O725 C713 1.232 . S
H726 C745 0.929 . S
H727 C746 0.929 . S
H728 C758 0.931 . S
H729 C750 0.929 . S
H730 C759 0.930 . S
H731 C751 0.931 . S
O732 Co708 2.097 . S
O732 C760 1.214 . S
H733 C761 0.929 . S
H734 C762 0.929 . S
H735 C763 0.930 . S
H736 C764 0.929 . S
H737 C766 0.930 . S
H738 C743 0.930 . S
H739 C747 0.930 . S
O740 Co709 2.037 . S
O740 C760 1.234 . S
C741 O715 1.269 . S
C741 O716 1.257 . S
C742 H717 0.930 . S
C742 C745 1.388 . S
C742 C747 1.418 . S
C743 H738 0.930 . S
C743 C746 1.404 . S
C743 C747 1.353 . S
N744 Co709 2.145 . S
N744 C745 1.397 . S
N744 C746 1.334 . S
C745 H726 0.929 . S
C745 C742 1.388 . S
C745 N744 1.397 . S
C746 H727 0.929 . S
C746 C743 1.404 . S
C746 N744 1.334 . S
C747 H739 0.930 . S
C747 C742 1.418 . S
C747 C743 1.353 . S
C748 H718 0.930 . S
C748 N749 1.330 . S
C748 C750 1.446 . S
N749 Co708 2.151 . S
N749 C748 1.330 . S
N749 C753 1.418 . S
C750 H729 0.929 . S
C750 C748 1.446 . S
C750 C751 1.332 . S
C751 H731 0.931 . S
C751 C750 1.332 . S
C751 C752 1.267 . S
C752 H720 0.929 . S
C752 C751 1.267 . S
C752 C753 1.251 . S
C753 H723 0.929 . S
C753 N749 1.418 . S
C753 C752 1.251 . S
C754 H721 0.930 . S
C754 C756 1.406 . S
C754 C759 1.261 . S
C755 H722 0.930 . S
C755 N757 1.325 . S
C755 C758 1.357 . S
C756 H724 0.928 . S
C756 C754 1.406 . S
C756 N757 1.261 . S
N757 Co708 2.214 . S
N757 C755 1.325 . S
N757 C756 1.261 . S
C758 H728 0.931 . S
C758 C755 1.357 . S
C758 C759 1.312 . S
C759 H730 0.930 . S
C759 C754 1.261 . S
C759 C758 1.312 . S
C760 O732 1.214 . S
C760 O740 1.234 . S
C761 H733 0.929 . S
C761 C764 1.391 . S
C761 C766 1.391 . S
C762 H734 0.929 . S
C762 C763 1.390 . S
C762 N765 1.391 . S
C763 H735 0.930 . S
C763 C762 1.390 . S
C763 C764 1.392 . S
C764 H736 0.929 . S
C764 C761 1.391 . S
C764 C763 1.392 . S
N765 Co709 2.257 . S
N765 C762 1.391 . S
N765 C766 1.388 . S
C766 H737 0.930 . S
C766 C761 1.391 . S
C766 N765 1.388 . S
Co767 O769 2.143 . S
Co767 O775 2.074 . S
Co767 O778 2.093 . S
Co767 O791 2.097 . S
Co767 N808 2.151 . S
Co767 N816 2.214 . S
Co768 O769 2.160 . S
Co768 O774 2.058 . S
Co768 O784 2.057 . S
Co768 O799 2.037 . S
Co768 N803 2.145 . S
Co768 N824 2.257 . S
O769 Co767 2.143 . S
O769 Co768 2.160 . S
C770 O771 1.278 . S
C770 O778 1.224 . S
O771 C770 1.278 . S
C772 O773 1.245 . S
C772 O784 1.232 . S
O773 C772 1.245 . S
O774 Co768 2.058 . S
O774 C800 1.269 . S
O775 Co767 2.074 . S
O775 C800 1.257 . S
H776 C801 0.930 . S
H777 C807 0.930 . S
O778 Co767 2.093 . S
O778 C770 1.224 . S
H779 C811 0.929 . S
H780 C813 0.930 . S
H781 C814 0.930 . S
H782 C812 0.929 . S
H783 C815 0.928 . S
O784 Co768 2.057 . S
O784 C772 1.232 . S
H785 C804 0.929 1_545 S
H786 C805 0.929 . S
H787 C817 0.931 . S
H788 C809 0.929 . S
H789 C818 0.930 . S
H790 C810 0.931 . S
O791 Co767 2.097 . S
O791 C819 1.214 . S
H792 C820 0.929 . S
H793 C821 0.929 . S
H794 C822 0.930 . S
H795 C823 0.929 . S
H796 C825 0.930 . S
H797 C802 0.930 . S
H798 C806 0.930 . S
O799 Co768 2.037 . S
O799 C819 1.234 . S
C800 O774 1.269 . S
C800 O775 1.257 . S
C801 H776 0.930 . S
C801 C804 1.388 . S
C801 C806 1.418 . S
C802 H797 0.930 . S
C802 C805 1.404 . S
C802 C806 1.353 . S
N803 Co768 2.145 . S
N803 C804 1.397 1_545 S
N803 C805 1.334 1_545 S
C804 H785 0.929 1_565 S
C804 C801 1.388 . S
C804 N803 1.397 1_565 S
C805 H786 0.929 . S
C805 C802 1.404 . S
C805 N803 1.334 1_565 S
C806 H798 0.930 . S
C806 C801 1.418 . S
C806 C802 1.353 . S
C807 H777 0.930 . S
C807 N808 1.330 . S
C807 C809 1.446 . S
N808 Co767 2.151 . S
N808 C807 1.330 . S
N808 C812 1.418 . S
C809 H788 0.929 . S
C809 C807 1.446 . S
C809 C810 1.332 . S
C810 H790 0.931 . S
C810 C809 1.332 . S
C810 C811 1.267 . S
C811 H779 0.929 . S
C811 C810 1.267 . S
C811 C812 1.251 . S
C812 H782 0.929 . S
C812 N808 1.418 . S
C812 C811 1.251 . S
C813 H780 0.930 . S
C813 C815 1.406 . S
C813 C818 1.261 . S
C814 H781 0.930 . S
C814 N816 1.325 . S
C814 C817 1.357 . S
C815 H783 0.928 . S
C815 C813 1.406 . S
C815 N816 1.261 . S
N816 Co767 2.214 . S
N816 C814 1.325 . S
N816 C815 1.261 . S
C817 H787 0.931 . S
C817 C814 1.357 . S
C817 C818 1.312 . S
C818 H789 0.930 . S
C818 C813 1.261 . S
C818 C817 1.312 . S
C819 O791 1.214 . S
C819 O799 1.234 . S
C820 H792 0.929 . S
C820 C823 1.391 . S
C820 C825 1.391 . S
C821 H793 0.929 . S
C821 C822 1.390 . S
C821 N824 1.391 . S
C822 H794 0.930 . S
C822 C821 1.390 . S
C822 C823 1.392 . S
C823 H795 0.929 . S
C823 C820 1.391 . S
C823 C822 1.392 . S
N824 Co768 2.257 . S
N824 C821 1.391 . S
N824 C825 1.388 . S
C825 H796 0.930 . S
C825 C820 1.391 . S
C825 N824 1.388 . S
Co826 O828 2.143 . S
Co826 O834 2.074 . S
Co826 O837 2.093 . S
Co826 O850 2.097 . S
Co826 N867 2.151 . S
Co826 N875 2.214 . S
Co827 O828 2.160 1_455 S
Co827 O833 2.045 1_455 S
Co827 O843 2.057 . S
Co827 O858 2.044 . S
Co827 N862 2.145 . S
Co827 N883 2.257 . S
O828 Co826 2.143 . S
O828 Co827 2.160 1_655 S
C829 O830 1.278 . S
C829 O837 1.224 . S
O830 C829 1.278 . S
C831 O832 1.245 1_455 S
C831 O843 1.232 . S
O832 C831 1.245 1_655 S
O833 Co827 2.045 1_655 S
O833 C859 1.287 . S
O834 Co826 2.074 . S
O834 C859 1.257 . S
H835 C860 0.930 . S
H836 C866 0.930 . S
O837 Co826 2.093 . S
O837 C829 1.224 . S
H838 C870 0.929 . S
H839 C872 0.930 . S
H840 C873 0.930 . S
H841 C871 0.929 . S
H842 C874 0.928 . S
O843 Co827 2.057 . S
O843 C831 1.232 . S
H844 C863 0.929 . S
H845 C864 0.929 . S
H846 C876 0.931 . S
H847 C868 0.929 . S
H848 C877 0.930 . S
H849 C869 0.931 . S
O850 Co826 2.097 . S
O850 C878 1.214 . S
H851 C879 0.929 . S
H852 C880 0.929 . S
H853 C881 0.930 . S
H854 C882 0.929 . S
H855 C884 0.930 1_655 S
H856 C861 0.930 . S
H857 C865 0.930 . S
O858 Co827 2.044 . S
O858 C878 1.200 1_455 S
C859 O833 1.287 . S
C859 O834 1.257 . S
C860 H835 0.930 . S
C860 C863 1.388 . S
C860 C865 1.418 . S
C861 H856 0.930 . S
C861 C864 1.404 . S
C861 C865 1.353 . S
N862 Co827 2.145 . S
N862 C863 1.397 . S
N862 C864 1.334 . S
C863 H844 0.929 . S
C863 C860 1.388 . S
C863 N862 1.397 . S
C864 H845 0.929 . S
C864 C861 1.404 . S
C864 N862 1.334 . S
C865 H857 0.930 . S
C865 C860 1.418 . S
C865 C861 1.353 . S
C866 H836 0.930 . S
C866 N867 1.330 . S
C866 C868 1.446 . S
N867 Co826 2.151 . S
N867 C866 1.330 . S
N867 C871 1.418 . S
C868 H847 0.929 . S
C868 C866 1.446 . S
C868 C869 1.332 . S
C869 H849 0.931 . S
C869 C868 1.332 . S
C869 C870 1.267 . S
C870 H838 0.929 . S
C870 C869 1.267 . S
C870 C871 1.251 . S
C871 H841 0.929 . S
C871 N867 1.418 . S
C871 C870 1.251 . S
C872 H839 0.930 . S
C872 C874 1.406 . S
C872 C877 1.261 . S
C873 H840 0.930 . S
C873 N875 1.325 . S
C873 C876 1.357 . S
C874 H842 0.928 . S
C874 C872 1.406 . S
C874 N875 1.261 . S
N875 Co826 2.214 . S
N875 C873 1.325 . S
N875 C874 1.261 . S
C876 H846 0.931 . S
C876 C873 1.357 . S
C876 C877 1.312 . S
C877 H848 0.930 . S
C877 C872 1.261 . S
C877 C876 1.312 . S
C878 O850 1.214 . S
C878 O858 1.200 1_655 S
C879 H851 0.929 . S
C879 C882 1.391 . S
C879 C884 1.391 . S
C880 H852 0.929 . S
C880 C881 1.390 . S
C880 N883 1.391 . S
C881 H853 0.930 . S
C881 C880 1.390 . S
C881 C882 1.392 . S
C882 H854 0.929 . S
C882 C879 1.391 . S
C882 C881 1.392 . S
N883 Co827 2.257 . S
N883 C880 1.391 . S
N883 C884 1.388 . S
C884 H855 0.930 1_455 S
C884 C879 1.391 . S
C884 N883 1.388 . S
Co885 O887 2.143 . S
Co885 O893 2.074 . S
Co885 O896 2.093 . S
Co885 O909 2.097 . S
Co885 N926 2.151 . S
Co885 N934 2.214 . S
Co886 O887 2.160 . S
Co886 O892 2.058 . S
Co886 O902 2.057 . S
Co886 O917 2.037 . S
Co886 N921 2.145 1_655 S
Co886 N942 2.257 1_655 S
O887 Co885 2.143 . S
O887 Co886 2.160 . S
C888 O889 1.228 1_655 S
C888 O896 1.224 . S
O889 C888 1.228 1_455 S
C890 O891 1.245 . S
C890 O902 1.232 . S
O891 C890 1.245 . S
O892 Co886 2.058 . S
O892 C918 1.269 . S
O893 Co885 2.074 . S
O893 C918 1.257 . S
H894 C919 0.930 . S
H895 C925 0.930 . S
O896 Co885 2.093 . S
O896 C888 1.224 . S
H897 C929 0.929 . S
H898 C931 0.930 . S
H899 C932 0.930 . S
H900 C930 0.929 . S
H901 C933 0.928 . S
O902 Co886 2.057 . S
O902 C890 1.232 . S
H903 C922 0.929 . S
H904 C923 0.929 . S
H905 C935 0.931 . S
H906 C927 0.929 . S
H907 C936 0.930 . S
H908 C928 0.931 . S
O909 Co885 2.097 . S
O909 C937 1.214 . S
H910 C938 0.929 . S
H911 C939 0.929 . S
H912 C940 0.930 . S
H913 C941 0.929 . S
H914 C943 0.930 . S
H915 C920 0.930 . S
H916 C924 0.930 . S
O917 Co886 2.037 . S
O917 C937 1.234 . S
C918 O892 1.269 . S
C918 O893 1.257 . S
C919 H894 0.930 . S
C919 C922 1.388 1_455 S
C919 C924 1.418 . S
C920 H915 0.930 . S
C920 C923 1.404 . S
C920 C924 1.353 . S
N921 Co886 2.145 1_455 S
N921 C922 1.397 1_455 S
N921 C923 1.334 . S
C922 H903 0.929 . S
C922 C919 1.388 1_655 S
C922 N921 1.397 1_655 S
C923 H904 0.929 . S
C923 C920 1.404 . S
C923 N921 1.334 . S
C924 H916 0.930 . S
C924 C919 1.418 . S
C924 C920 1.353 . S
C925 H895 0.930 . S
C925 N926 1.330 . S
C925 C927 1.446 . S
N926 Co885 2.151 . S
N926 C925 1.330 . S
N926 C930 1.418 . S
C927 H906 0.929 . S
C927 C925 1.446 . S
C927 C928 1.332 . S
C928 H908 0.931 . S
C928 C927 1.332 . S
C928 C929 1.267 . S
C929 H897 0.929 . S
C929 C928 1.267 . S
C929 C930 1.251 . S
C930 H900 0.929 . S
C930 N926 1.418 . S
C930 C929 1.251 . S
C931 H898 0.930 . S
C931 C933 1.406 . S
C931 C936 1.261 . S
C932 H899 0.930 . S
C932 N934 1.325 . S
C932 C935 1.357 . S
C933 H901 0.928 . S
C933 C931 1.406 . S
C933 N934 1.261 . S
N934 Co885 2.214 . S
N934 C932 1.325 . S
N934 C933 1.261 . S
C935 H905 0.931 . S
C935 C932 1.357 . S
C935 C936 1.312 . S
C936 H907 0.930 . S
C936 C931 1.261 . S
C936 C935 1.312 . S
C937 O909 1.214 . S
C937 O917 1.234 . S
C938 H910 0.929 . S
C938 C941 1.391 . S
C938 C943 1.391 . S
C939 H911 0.929 . S
C939 C940 1.390 . S
C939 N942 1.391 . S
C940 H912 0.930 . S
C940 C939 1.390 . S
C940 C941 1.392 . S
C941 H913 0.929 . S
C941 C938 1.391 . S
C941 C940 1.392 . S
N942 Co886 2.257 1_455 S
N942 C939 1.391 . S
N942 C943 1.388 . S
C943 H914 0.930 . S
C943 C938 1.391 . S
C943 N942 1.388 . S
Co944 O946 2.143 . S
Co944 O952 2.074 . S
Co944 O955 2.093 . S
Co944 O968 2.097 . S
Co944 N985 2.151 . S
Co944 N993 2.214 . S
Co945 O946 2.160 . S
Co945 O951 2.058 . S
Co945 O961 2.057 . S
Co945 O976 2.037 . S
Co945 N980 2.145 . S
Co945 N1001 2.257 . S
O946 Co944 2.143 . S
O946 Co945 2.160 . S
C947 O948 1.278 . S
C947 O955 1.224 . S
O948 C947 1.278 . S
C949 O950 1.245 . S
C949 O961 1.232 . S
O950 C949 1.245 . S
O951 Co945 2.058 . S
O951 C977 1.269 . S
O952 Co944 2.074 . S
O952 C977 1.257 . S
H953 C978 0.930 . S
H954 C984 0.930 . S
O955 Co944 2.093 . S
O955 C947 1.224 . S
H956 C988 0.929 . S
H957 C990 0.930 . S
H958 C991 0.930 . S
H959 C989 0.929 . S
H960 C992 0.928 . S
O961 Co945 2.057 . S
O961 C949 1.232 . S
H962 C981 0.929 . S
H963 C982 0.929 . S
H964 C994 0.931 . S
H965 C986 0.929 . S
H966 C995 0.930 . S
H967 C987 0.931 . S
O968 Co944 2.097 . S
O968 C996 1.214 . S
H969 C997 0.929 . S
H970 C998 0.929 . S
H971 C999 0.930 . S
H972 C1000 0.929 . S
H973 C1002 0.930 . S
H974 C979 0.930 . S
H975 C983 0.930 . S
O976 Co945 2.037 . S
O976 C996 1.234 . S
C977 O951 1.269 . S
C977 O952 1.257 . S
C978 H953 0.930 . S
C978 C981 1.388 . S
C978 C983 1.418 . S
C979 H974 0.930 . S
C979 C982 1.404 . S
C979 C983 1.353 . S
N980 Co945 2.145 . S
N980 C981 1.397 . S
N980 C982 1.334 . S
C981 H962 0.929 . S
C981 C978 1.388 . S
C981 N980 1.397 . S
C982 H963 0.929 . S
C982 C979 1.404 . S
C982 N980 1.334 . S
C983 H975 0.930 . S
C983 C978 1.418 . S
C983 C979 1.353 . S
C984 H954 0.930 . S
C984 N985 1.330 . S
C984 C986 1.446 . S
N985 Co944 2.151 . S
N985 C984 1.330 . S
N985 C989 1.418 . S
C986 H965 0.929 . S
C986 C984 1.446 . S
C986 C987 1.332 . S
C987 H967 0.931 . S
C987 C986 1.332 . S
C987 C988 1.267 . S
C988 H956 0.929 . S
C988 C987 1.267 . S
C988 C989 1.251 . S
C989 H959 0.929 . S
C989 N985 1.418 . S
C989 C988 1.251 . S
C990 H957 0.930 . S
C990 C992 1.406 . S
C990 C995 1.261 . S
C991 H958 0.930 . S
C991 N993 1.325 . S
C991 C994 1.357 . S
C992 H960 0.928 . S
C992 C990 1.406 . S
C992 N993 1.261 . S
N993 Co944 2.214 . S
N993 C991 1.325 . S
N993 C992 1.261 . S
C994 H964 0.931 . S
C994 C991 1.357 . S
C994 C995 1.312 . S
C995 H966 0.930 . S
C995 C990 1.261 . S
C995 C994 1.312 . S
C996 O968 1.214 . S
C996 O976 1.234 . S
C997 H969 0.929 . S
C997 C1000 1.391 . S
C997 C1002 1.391 . S
C998 H970 0.929 . S
C998 C999 1.390 . S
C998 N1001 1.391 . S
C999 H971 0.930 . S
C999 C998 1.390 . S
C999 C1000 1.392 . S
C1000 H972 0.929 . S
C1000 C997 1.391 . S
C1000 C999 1.392 . S
N1001 Co945 2.257 . S
N1001 C998 1.391 . S
N1001 C1002 1.388 . S
C1002 H973 0.930 . S
C1002 C997 1.391 . S
C1002 N1001 1.388 . S
Co1003 O1005 2.143 . S
Co1003 O1011 2.074 . S
Co1003 O1014 2.093 . S
Co1003 O1027 2.097 . S
Co1003 N1044 2.151 . S
Co1003 N1052 2.214 . S
Co1004 O1005 2.160 . S
Co1004 O1010 2.058 . S
Co1004 O1020 2.057 . S
Co1004 O1035 2.037 . S
Co1004 N1039 2.145 . S
Co1004 N1060 2.257 . S
O1005 Co1003 2.143 . S
O1005 Co1004 2.160 . S
C1006 O1007 1.278 . S
C1006 O1014 1.224 . S
O1007 C1006 1.278 . S
C1008 O1009 1.245 . S
C1008 O1020 1.232 . S
O1009 C1008 1.245 . S
O1010 Co1004 2.058 . S
O1010 C1036 1.269 . S
O1011 Co1003 2.074 . S
O1011 C1036 1.257 . S
H1012 C1037 0.930 . S
H1013 C1043 0.930 . S
O1014 Co1003 2.093 . S
O1014 C1006 1.224 . S
H1015 C1047 0.929 . S
H1016 C1049 0.930 . S
H1017 C1050 0.930 . S
H1018 C1048 0.929 . S
H1019 C1051 0.928 . S
O1020 Co1004 2.057 . S
O1020 C1008 1.232 . S
H1021 C1040 0.929 . S
H1022 C1041 0.929 . S
H1023 C1053 0.931 . S
H1024 C1045 0.929 . S
H1025 C1054 0.930 . S
H1026 C1046 0.931 . S
O1027 Co1003 2.097 . S
O1027 C1055 1.214 . S
H1028 C1056 0.929 . S
H1029 C1057 0.929 . S
H1030 C1058 0.930 . S
H1031 C1059 0.929 . S
H1032 C1061 0.930 . S
H1033 C1038 0.930 . S
H1034 C1042 0.930 . S
O1035 Co1004 2.037 . S
O1035 C1055 1.234 . S
C1036 O1010 1.269 . S
C1036 O1011 1.257 . S
C1037 H1012 0.930 . S
C1037 C1040 1.388 . S
C1037 C1042 1.418 . S
C1038 H1033 0.930 . S
C1038 C1041 1.404 . S
C1038 C1042 1.353 . S
N1039 Co1004 2.145 . S
N1039 C1040 1.397 . S
N1039 C1041 1.334 . S
C1040 H1021 0.929 . S
C1040 C1037 1.388 . S
C1040 N1039 1.397 . S
C1041 H1022 0.929 . S
C1041 C1038 1.404 . S
C1041 N1039 1.334 . S
C1042 H1034 0.930 . S
C1042 C1037 1.418 . S
C1042 C1038 1.353 . S
C1043 H1013 0.930 . S
C1043 N1044 1.330 . S
C1043 C1045 1.446 . S
N1044 Co1003 2.151 . S
N1044 C1043 1.330 . S
N1044 C1048 1.418 . S
C1045 H1024 0.929 . S
C1045 C1043 1.446 . S
C1045 C1046 1.332 . S
C1046 H1026 0.931 . S
C1046 C1045 1.332 . S
C1046 C1047 1.267 . S
C1047 H1015 0.929 . S
C1047 C1046 1.267 . S
C1047 C1048 1.251 . S
C1048 H1018 0.929 . S
C1048 N1044 1.418 . S
C1048 C1047 1.251 . S
C1049 H1016 0.930 . S
C1049 C1051 1.406 . S
C1049 C1054 1.261 . S
C1050 H1017 0.930 . S
C1050 N1052 1.325 . S
C1050 C1053 1.357 . S
C1051 H1019 0.928 . S
C1051 C1049 1.406 . S
C1051 N1052 1.261 . S
N1052 Co1003 2.214 . S
N1052 C1050 1.325 . S
N1052 C1051 1.261 . S
C1053 H1023 0.931 . S
C1053 C1050 1.357 . S
C1053 C1054 1.312 . S
C1054 H1025 0.930 . S
C1054 C1049 1.261 . S
C1054 C1053 1.312 . S
C1055 O1027 1.214 . S
C1055 O1035 1.234 . S
C1056 H1028 0.929 . S
C1056 C1059 1.391 . S
C1056 C1061 1.391 1_565 S
C1057 H1029 0.929 . S
C1057 C1058 1.390 1_545 S
C1057 N1060 1.391 . S
C1058 H1030 0.930 . S
C1058 C1057 1.390 1_565 S
C1058 C1059 1.392 . S
C1059 H1031 0.929 . S
C1059 C1056 1.391 . S
C1059 C1058 1.392 . S
N1060 Co1004 2.257 . S
N1060 C1057 1.391 . S
N1060 C1061 1.388 . S
C1061 H1032 0.930 . S
C1061 C1056 1.391 1_545 S
C1061 N1060 1.388 . S
Co1062 O1064 2.143 . S
Co1062 O1070 2.074 . S
Co1062 O1073 2.093 . S
Co1062 O1086 2.097 . S
Co1062 N1103 2.151 . S
Co1062 N1111 2.214 . S
Co1063 O1064 2.160 . S
Co1063 O1069 2.058 . S
Co1063 O1079 2.057 . S
Co1063 O1094 2.037 . S
Co1063 N1098 2.145 . S
Co1063 N1119 2.257 . S
O1064 Co1062 2.143 . S
O1064 Co1063 2.160 . S
C1065 O1066 1.278 . S
C1065 O1073 1.224 . S
O1066 C1065 1.278 . S
C1067 O1068 1.245 . S
C1067 O1079 1.232 . S
O1068 C1067 1.245 . S
O1069 Co1063 2.058 . S
O1069 C1095 1.269 . S
O1070 Co1062 2.074 . S
O1070 C1095 1.257 . S
H1071 C1096 0.930 . S
H1072 C1102 0.930 . S
O1073 Co1062 2.093 . S
O1073 C1065 1.224 . S
H1074 C1106 0.929 . S
H1075 C1108 0.930 . S
H1076 C1109 0.930 . S
H1077 C1107 0.929 . S
H1078 C1110 0.928 . S
O1079 Co1063 2.057 . S
O1079 C1067 1.232 . S
H1080 C1099 0.929 . S
H1081 C1100 0.929 . S
H1082 C1112 0.931 . S
H1083 C1104 0.929 . S
H1084 C1113 0.930 . S
H1085 C1105 0.931 . S
O1086 Co1062 2.097 . S
O1086 C1114 1.214 . S
H1087 C1115 0.929 . S
H1088 C1116 0.929 . S
H1089 C1117 0.930 . S
H1090 C1118 0.929 . S
H1091 C1120 0.930 . S
H1092 C1097 0.930 . S
H1093 C1101 0.930 . S
O1094 Co1063 2.037 . S
O1094 C1114 1.234 . S
C1095 O1069 1.269 . S
C1095 O1070 1.257 . S
C1096 H1071 0.930 . S
C1096 C1099 1.388 . S
C1096 C1101 1.418 . S
C1097 H1092 0.930 . S
C1097 C1100 1.404 . S
C1097 C1101 1.353 . S
N1098 Co1063 2.145 . S
N1098 C1099 1.397 . S
N1098 C1100 1.334 . S
C1099 H1080 0.929 . S
C1099 C1096 1.388 . S
C1099 N1098 1.397 . S
C1100 H1081 0.929 . S
C1100 C1097 1.404 . S
C1100 N1098 1.334 . S
C1101 H1093 0.930 . S
C1101 C1096 1.418 . S
C1101 C1097 1.353 . S
C1102 H1072 0.930 . S
C1102 N1103 1.330 . S
C1102 C1104 1.446 . S
N1103 Co1062 2.151 . S
N1103 C1102 1.330 . S
N1103 C1107 1.418 . S
C1104 H1083 0.929 . S
C1104 C1102 1.446 . S
C1104 C1105 1.332 . S
C1105 H1085 0.931 . S
C1105 C1104 1.332 . S
C1105 C1106 1.267 . S
C1106 H1074 0.929 . S
C1106 C1105 1.267 . S
C1106 C1107 1.251 . S
C1107 H1077 0.929 . S
C1107 N1103 1.418 . S
C1107 C1106 1.251 . S
C1108 H1075 0.930 . S
C1108 C1110 1.406 . S
C1108 C1113 1.261 . S
C1109 H1076 0.930 . S
C1109 N1111 1.325 . S
C1109 C1112 1.357 . S
C1110 H1078 0.928 . S
C1110 C1108 1.406 . S
C1110 N1111 1.261 . S
N1111 Co1062 2.214 . S
N1111 C1109 1.325 . S
N1111 C1110 1.261 . S
C1112 H1082 0.931 . S
C1112 C1109 1.357 . S
C1112 C1113 1.312 . S
C1113 H1084 0.930 . S
C1113 C1108 1.261 . S
C1113 C1112 1.312 . S
C1114 O1086 1.214 . S
C1114 O1094 1.234 . S
C1115 H1087 0.929 . S
C1115 C1118 1.391 . S
C1115 C1120 1.391 1_565 S
C1116 H1088 0.929 . S
C1116 C1117 1.390 1_545 S
C1116 N1119 1.391 . S
C1117 H1089 0.930 . S
C1117 C1116 1.390 1_565 S
C1117 C1118 1.392 . S
C1118 H1090 0.929 . S
C1118 C1115 1.391 . S
C1118 C1117 1.392 . S
N1119 Co1063 2.257 . S
N1119 C1116 1.391 . S
N1119 C1120 1.388 . S
C1120 H1091 0.930 . S
C1120 C1115 1.391 1_545 S
C1120 N1119 1.388 . S
Co1121 O1123 2.143 . S
Co1121 O1129 2.074 . S
Co1121 O1132 2.093 . S
Co1121 O1145 2.097 . S
Co1121 N1162 2.151 . S
Co1121 N1170 2.214 . S
Co1122 O1123 2.160 . S
Co1122 O1128 2.058 . S
Co1122 O1138 2.057 . S
Co1122 O1153 2.037 . S
Co1122 N1157 2.145 1_655 S
Co1122 N1178 2.257 1_655 S
O1123 Co1121 2.143 . S
O1123 Co1122 2.160 . S
C1124 O1125 1.263 1_655 S
C1124 O1132 1.224 . S
O1125 C1124 1.263 1_455 S
C1126 O1127 1.245 . S
C1126 O1138 1.232 . S
O1127 C1126 1.245 . S
O1128 Co1122 2.058 . S
O1128 C1154 1.269 . S
O1129 Co1121 2.074 . S
O1129 C1154 1.257 . S
H1130 C1155 0.930 . S
H1131 C1161 0.930 . S
O1132 Co1121 2.093 . S
O1132 C1124 1.224 . S
H1133 C1165 0.929 . S
H1134 C1167 0.930 . S
H1135 C1168 0.930 . S
H1136 C1166 0.929 . S
H1137 C1169 0.928 . S
O1138 Co1122 2.057 . S
O1138 C1126 1.232 . S
H1139 C1158 0.929 . S
H1140 C1159 0.929 . S
H1141 C1171 0.931 . S
H1142 C1163 0.929 . S
H1143 C1172 0.930 . S
H1144 C1164 0.931 . S
O1145 Co1121 2.097 . S
O1145 C1173 1.214 . S
H1146 C1174 0.929 . S
H1147 C1175 0.929 . S
H1148 C1176 0.930 . S
H1149 C1177 0.929 . S
H1150 C1179 0.930 . S
H1151 C1156 0.930 . S
H1152 C1160 0.930 . S
O1153 Co1122 2.037 . S
O1153 C1173 1.234 . S
C1154 O1128 1.269 . S
C1154 O1129 1.257 . S
C1155 H1130 0.930 . S
C1155 C1158 1.388 1_455 S
C1155 C1160 1.418 . S
C1156 H1151 0.930 . S
C1156 C1159 1.404 . S
C1156 C1160 1.353 . S
N1157 Co1122 2.145 1_455 S
N1157 C1158 1.397 1_455 S
N1157 C1159 1.334 . S
C1158 H1139 0.929 . S
C1158 C1155 1.388 1_655 S
C1158 N1157 1.397 1_655 S
C1159 H1140 0.929 . S
C1159 C1156 1.404 . S
C1159 N1157 1.334 . S
C1160 H1152 0.930 . S
C1160 C1155 1.418 . S
C1160 C1156 1.353 . S
C1161 H1131 0.930 . S
C1161 N1162 1.330 . S
C1161 C1163 1.446 . S
N1162 Co1121 2.151 . S
N1162 C1161 1.330 . S
N1162 C1166 1.418 . S
C1163 H1142 0.929 . S
C1163 C1161 1.446 . S
C1163 C1164 1.332 . S
C1164 H1144 0.931 . S
C1164 C1163 1.332 . S
C1164 C1165 1.267 . S
C1165 H1133 0.929 . S
C1165 C1164 1.267 . S
C1165 C1166 1.251 . S
C1166 H1136 0.929 . S
C1166 N1162 1.418 . S
C1166 C1165 1.251 . S
C1167 H1134 0.930 . S
C1167 C1169 1.406 . S
C1167 C1172 1.261 . S
C1168 H1135 0.930 . S
C1168 N1170 1.325 . S
C1168 C1171 1.357 . S
C1169 H1137 0.928 . S
C1169 C1167 1.406 . S
C1169 N1170 1.261 . S
N1170 Co1121 2.214 . S
N1170 C1168 1.325 . S
N1170 C1169 1.261 . S
C1171 H1141 0.931 . S
C1171 C1168 1.357 . S
C1171 C1172 1.312 . S
C1172 H1143 0.930 . S
C1172 C1167 1.261 . S
C1172 C1171 1.312 . S
C1173 O1145 1.214 . S
C1173 O1153 1.234 . S
C1174 H1146 0.929 . S
C1174 C1177 1.391 . S
C1174 C1179 1.391 . S
C1175 H1147 0.929 . S
C1175 C1176 1.390 . S
C1175 N1178 1.391 . S
C1176 H1148 0.930 . S
C1176 C1175 1.390 . S
C1176 C1177 1.392 . S
C1177 H1149 0.929 . S
C1177 C1174 1.391 . S
C1177 C1176 1.392 . S
N1178 Co1122 2.257 1_455 S
N1178 C1175 1.391 . S
N1178 C1179 1.388 . S
C1179 H1150 0.930 . S
C1179 C1174 1.391 . S
C1179 N1178 1.388 . S
Co1180 O1182 2.143 . S
Co1180 O1188 2.074 . S
Co1180 O1191 2.093 . S
Co1180 O1204 2.097 . S
Co1180 N1221 2.151 . S
Co1180 N1229 2.214 . S
Co1181 O1182 2.160 . S
Co1181 O1187 2.058 . S
Co1181 O1197 2.057 . S
Co1181 O1212 2.037 . S
Co1181 N1216 2.145 . S
Co1181 N1237 2.257 . S
O1182 Co1180 2.143 . S
O1182 Co1181 2.160 . S
C1183 O1184 1.278 . S
C1183 O1191 1.224 . S
O1184 C1183 1.278 . S
C1185 O1186 1.245 . S
C1185 O1197 1.232 . S
O1186 C1185 1.245 . S
O1187 Co1181 2.058 . S
O1187 C1213 1.269 . S
O1188 Co1180 2.074 . S
O1188 C1213 1.257 . S
H1189 C1214 0.930 . S
H1190 C1220 0.930 . S
O1191 Co1180 2.093 . S
O1191 C1183 1.224 . S
H1192 C1224 0.929 . S
H1193 C1226 0.930 . S
H1194 C1227 0.930 . S
H1195 C1225 0.929 . S
H1196 C1228 0.928 . S
O1197 Co1181 2.057 . S
O1197 C1185 1.232 . S
H1198 C1217 0.929 . S
H1199 C1218 0.929 . S
H1200 C1230 0.931 . S
H1201 C1222 0.929 . S
H1202 C1231 0.930 . S
H1203 C1223 0.931 . S
O1204 Co1180 2.097 . S
O1204 C1232 1.214 . S
H1205 C1233 0.929 . S
H1206 C1234 0.929 . S
H1207 C1235 0.930 . S
H1208 C1236 0.929 . S
H1209 C1238 0.930 . S
H1210 C1215 0.930 . S
H1211 C1219 0.930 . S
O1212 Co1181 2.037 . S
O1212 C1232 1.234 . S
C1213 O1187 1.269 . S
C1213 O1188 1.257 . S
C1214 H1189 0.930 . S
C1214 C1217 1.388 . S
C1214 C1219 1.418 . S
C1215 H1210 0.930 . S
C1215 C1218 1.404 . S
C1215 C1219 1.353 . S
N1216 Co1181 2.145 . S
N1216 C1217 1.397 . S
N1216 C1218 1.334 . S
C1217 H1198 0.929 . S
C1217 C1214 1.388 . S
C1217 N1216 1.397 . S
C1218 H1199 0.929 . S
C1218 C1215 1.404 . S
C1218 N1216 1.334 . S
C1219 H1211 0.930 . S
C1219 C1214 1.418 . S
C1219 C1215 1.353 . S
C1220 H1190 0.930 . S
C1220 N1221 1.330 . S
C1220 C1222 1.446 . S
N1221 Co1180 2.151 . S
N1221 C1220 1.330 . S
N1221 C1225 1.418 . S
C1222 H1201 0.929 . S
C1222 C1220 1.446 . S
C1222 C1223 1.332 . S
C1223 H1203 0.931 . S
C1223 C1222 1.332 . S
C1223 C1224 1.267 . S
C1224 H1192 0.929 . S
C1224 C1223 1.267 . S
C1224 C1225 1.251 . S
C1225 H1195 0.929 . S
C1225 N1221 1.418 . S
C1225 C1224 1.251 . S
C1226 H1193 0.930 . S
C1226 C1228 1.406 . S
C1226 C1231 1.261 . S
C1227 H1194 0.930 . S
C1227 N1229 1.325 . S
C1227 C1230 1.357 . S
C1228 H1196 0.928 . S
C1228 C1226 1.406 . S
C1228 N1229 1.261 . S
N1229 Co1180 2.214 . S
N1229 C1227 1.325 . S
N1229 C1228 1.261 . S
C1230 H1200 0.931 . S
C1230 C1227 1.357 . S
C1230 C1231 1.312 . S
C1231 H1202 0.930 . S
C1231 C1226 1.261 . S
C1231 C1230 1.312 . S
C1232 O1204 1.214 . S
C1232 O1212 1.234 . S
C1233 H1205 0.929 . S
C1233 C1236 1.391 . S
C1233 C1238 1.391 . S
C1234 H1206 0.929 . S
C1234 C1235 1.390 . S
C1234 N1237 1.391 . S
C1235 H1207 0.930 . S
C1235 C1234 1.390 . S
C1235 C1236 1.392 . S
C1236 H1208 0.929 . S
C1236 C1233 1.391 . S
C1236 C1235 1.392 . S
N1237 Co1181 2.257 . S
N1237 C1234 1.391 . S
N1237 C1238 1.388 . S
C1238 H1209 0.930 . S
C1238 C1233 1.391 . S
C1238 N1237 1.388 . S
Co1239 O1241 2.143 . S
Co1239 O1247 2.074 . S
Co1239 O1250 2.093 . S
Co1239 O1263 2.097 . S
Co1239 N1280 2.151 . S
Co1239 N1288 2.214 . S
Co1240 O1241 2.160 . S
Co1240 O1246 2.058 . S
Co1240 O1256 2.057 . S
Co1240 O1271 2.037 . S
Co1240 N1275 2.145 . S
Co1240 N1296 2.257 . S
O1241 Co1239 2.143 . S
O1241 Co1240 2.160 . S
C1242 O1243 1.278 . S
C1242 O1250 1.224 . S
O1243 C1242 1.278 . S
C1244 O1245 1.245 . S
C1244 O1256 1.232 . S
O1245 C1244 1.245 . S
O1246 Co1240 2.058 . S
O1246 C1272 1.269 . S
O1247 Co1239 2.074 . S
O1247 C1272 1.257 . S
H1248 C1273 0.930 . S
H1249 C1279 0.930 . S
O1250 Co1239 2.093 . S
O1250 C1242 1.224 . S
H1251 C1283 0.929 . S
H1252 C1285 0.930 . S
H1253 C1286 0.930 . S
H1254 C1284 0.929 . S
H1255 C1287 0.928 . S
O1256 Co1240 2.057 . S
O1256 C1244 1.232 . S
H1257 C1276 0.929 . S
H1258 C1277 0.929 . S
H1259 C1289 0.931 . S
H1260 C1281 0.929 . S
H1261 C1290 0.930 . S
H1262 C1282 0.931 . S
O1263 Co1239 2.097 . S
O1263 C1291 1.214 . S
H1264 C1292 0.929 . S
H1265 C1293 0.929 . S
H1266 C1294 0.930 . S
H1267 C1295 0.929 . S
H1268 C1297 0.930 . S
H1269 C1274 0.930 . S
H1270 C1278 0.930 . S
O1271 Co1240 2.037 . S
O1271 C1291 1.234 . S
C1272 O1246 1.269 . S
C1272 O1247 1.257 . S
C1273 H1248 0.930 . S
C1273 C1276 1.388 . S
C1273 C1278 1.418 . S
C1274 H1269 0.930 . S
C1274 C1277 1.404 . S
C1274 C1278 1.353 . S
N1275 Co1240 2.145 . S
N1275 C1276 1.397 . S
N1275 C1277 1.334 . S
C1276 H1257 0.929 . S
C1276 C1273 1.388 . S
C1276 N1275 1.397 . S
C1277 H1258 0.929 . S
C1277 C1274 1.404 . S
C1277 N1275 1.334 . S
C1278 H1270 0.930 . S
C1278 C1273 1.418 . S
C1278 C1274 1.353 . S
C1279 H1249 0.930 . S
C1279 N1280 1.330 . S
C1279 C1281 1.446 . S
N1280 Co1239 2.151 . S
N1280 C1279 1.330 . S
N1280 C1284 1.418 . S
C1281 H1260 0.929 . S
C1281 C1279 1.446 . S
C1281 C1282 1.332 . S
C1282 H1262 0.931 . S
C1282 C1281 1.332 . S
C1282 C1283 1.267 . S
C1283 H1251 0.929 . S
C1283 C1282 1.267 . S
C1283 C1284 1.251 . S
C1284 H1254 0.929 . S
C1284 N1280 1.418 . S
C1284 C1283 1.251 . S
C1285 H1252 0.930 . S
C1285 C1287 1.406 . S
C1285 C1290 1.261 . S
C1286 H1253 0.930 . S
C1286 N1288 1.325 . S
C1286 C1289 1.357 . S
C1287 H1255 0.928 . S
C1287 C1285 1.406 . S
C1287 N1288 1.261 . S
N1288 Co1239 2.214 . S
N1288 C1286 1.325 . S
N1288 C1287 1.261 . S
C1289 H1259 0.931 . S
C1289 C1286 1.357 . S
C1289 C1290 1.312 . S
C1290 H1261 0.930 . S
C1290 C1285 1.261 . S
C1290 C1289 1.312 . S
C1291 O1263 1.214 . S
C1291 O1271 1.234 . S
C1292 H1264 0.929 . S
C1292 C1295 1.391 . S
C1292 C1297 1.391 . S
C1293 H1265 0.929 . S
C1293 C1294 1.390 . S
C1293 N1296 1.391 . S
C1294 H1266 0.930 . S
C1294 C1293 1.390 . S
C1294 C1295 1.392 . S
C1295 H1267 0.929 . S
C1295 C1292 1.391 . S
C1295 C1294 1.392 . S
N1296 Co1240 2.257 . S
N1296 C1293 1.391 . S
N1296 C1297 1.388 . S
C1297 H1268 0.930 . S
C1297 C1292 1.391 . S
C1297 N1296 1.388 . S
Co1298 O1300 2.143 . S
Co1298 O1306 2.074 . S
Co1298 O1309 2.093 . S
Co1298 O1322 2.097 . S
Co1298 N1339 2.151 . S
Co1298 N1347 2.214 . S
Co1299 O1300 2.160 . S
Co1299 O1305 2.058 . S
Co1299 O1315 2.057 . S
Co1299 O1330 2.037 . S
Co1299 N1334 2.145 . S
Co1299 N1355 2.257 . S
O1300 Co1298 2.143 . S
O1300 Co1299 2.160 . S
C1301 O1302 1.278 . S
C1301 O1309 1.224 . S
O1302 C1301 1.278 . S
C1303 O1304 1.245 . S
C1303 O1315 1.232 . S
O1304 C1303 1.245 . S
O1305 Co1299 2.058 . S
O1305 C1331 1.269 . S
O1306 Co1298 2.074 . S
O1306 C1331 1.257 . S
H1307 C1332 0.930 . S
H1308 C1338 0.930 . S
O1309 Co1298 2.093 . S
O1309 C1301 1.224 . S
H1310 C1342 0.929 . S
H1311 C1344 0.930 . S
H1312 C1345 0.930 . S
H1313 C1343 0.929 . S
H1314 C1346 0.928 . S
O1315 Co1299 2.057 . S
O1315 C1303 1.232 . S
H1316 C1335 0.929 1_545 S
H1317 C1336 0.929 . S
H1318 C1348 0.931 . S
H1319 C1340 0.929 . S
H1320 C1349 0.930 . S
H1321 C1341 0.931 . S
O1322 Co1298 2.097 . S
O1322 C1350 1.214 . S
H1323 C1351 0.929 . S
H1324 C1352 0.929 . S
H1325 C1353 0.930 . S
H1326 C1354 0.929 . S
H1327 C1356 0.930 . S
H1328 C1333 0.930 . S
H1329 C1337 0.930 . S
O1330 Co1299 2.037 . S
O1330 C1350 1.234 . S
C1331 O1305 1.269 . S
C1331 O1306 1.257 . S
C1332 H1307 0.930 . S
C1332 C1335 1.388 . S
C1332 C1337 1.418 . S
C1333 H1328 0.930 . S
C1333 C1336 1.404 . S
C1333 C1337 1.353 . S
N1334 Co1299 2.145 . S
N1334 C1335 1.397 1_545 S
N1334 C1336 1.334 1_545 S
C1335 H1316 0.929 1_565 S
C1335 C1332 1.388 . S
C1335 N1334 1.397 1_565 S
C1336 H1317 0.929 . S
C1336 C1333 1.404 . S
C1336 N1334 1.334 1_565 S
C1337 H1329 0.930 . S
C1337 C1332 1.418 . S
C1337 C1333 1.353 . S
C1338 H1308 0.930 . S
C1338 N1339 1.330 . S
C1338 C1340 1.446 . S
N1339 Co1298 2.151 . S
N1339 C1338 1.330 . S
N1339 C1343 1.418 . S
C1340 H1319 0.929 . S
C1340 C1338 1.446 . S
C1340 C1341 1.332 . S
C1341 H1321 0.931 . S
C1341 C1340 1.332 . S
C1341 C1342 1.267 . S
C1342 H1310 0.929 . S
C1342 C1341 1.267 . S
C1342 C1343 1.251 . S
C1343 H1313 0.929 . S
C1343 N1339 1.418 . S
C1343 C1342 1.251 . S
C1344 H1311 0.930 . S
C1344 C1346 1.406 . S
C1344 C1349 1.261 . S
C1345 H1312 0.930 . S
C1345 N1347 1.325 . S
C1345 C1348 1.357 . S
C1346 H1314 0.928 . S
C1346 C1344 1.406 . S
C1346 N1347 1.261 . S
N1347 Co1298 2.214 . S
N1347 C1345 1.325 . S
N1347 C1346 1.261 . S
C1348 H1318 0.931 . S
C1348 C1345 1.357 . S
C1348 C1349 1.312 . S
C1349 H1320 0.930 . S
C1349 C1344 1.261 . S
C1349 C1348 1.312 . S
C1350 O1322 1.214 . S
C1350 O1330 1.234 . S
C1351 H1323 0.929 . S
C1351 C1354 1.391 . S
C1351 C1356 1.391 . S
C1352 H1324 0.929 . S
C1352 C1353 1.390 . S
C1352 N1355 1.391 . S
C1353 H1325 0.930 . S
C1353 C1352 1.390 . S
C1353 C1354 1.392 . S
C1354 H1326 0.929 . S
C1354 C1351 1.391 . S
C1354 C1353 1.392 . S
N1355 Co1299 2.257 . S
N1355 C1352 1.391 . S
N1355 C1356 1.388 . S
C1356 H1327 0.930 . S
C1356 C1351 1.391 . S
C1356 N1355 1.388 . S
Co1357 O1359 2.143 . S
Co1357 O1365 2.074 . S
Co1357 O1368 2.093 . S
Co1357 O1381 2.097 . S
Co1357 N1398 2.151 . S
Co1357 N1406 2.214 . S
Co1358 O1359 2.160 1_455 S
Co1358 O1364 2.064 1_455 S
Co1358 O1374 2.057 . S
Co1358 O1389 2.037 . S
Co1358 N1393 2.145 . S
Co1358 N1414 2.257 . S
O1359 Co1357 2.143 . S
O1359 Co1358 2.160 1_655 S
C1360 O1361 1.278 . S
C1360 O1368 1.224 . S
O1361 C1360 1.278 . S
C1362 O1363 1.245 1_455 S
C1362 O1374 1.232 . S
O1363 C1362 1.245 1_655 S
O1364 Co1358 2.064 1_655 S
O1364 C1390 1.276 . S
O1365 Co1357 2.074 . S
O1365 C1390 1.257 . S
H1366 C1391 0.930 . S
H1367 C1397 0.930 . S
O1368 Co1357 2.093 . S
O1368 C1360 1.224 . S
H1369 C1401 0.929 . S
H1370 C1403 0.930 . S
H1371 C1404 0.930 . S
H1372 C1402 0.929 . S
H1373 C1405 0.928 . S
O1374 Co1358 2.057 . S
O1374 C1362 1.232 . S
H1375 C1394 0.929 . S
H1376 C1395 0.929 . S
H1377 C1407 0.931 . S
H1378 C1399 0.929 . S
H1379 C1408 0.930 . S
H1380 C1400 0.931 . S
O1381 Co1357 2.097 . S
O1381 C1409 1.214 . S
H1382 C1410 0.929 . S
H1383 C1411 0.929 . S
H1384 C1412 0.930 . S
H1385 C1413 0.929 . S
H1386 C1415 0.930 1_655 S
H1387 C1392 0.930 . S
H1388 C1396 0.930 . S
O1389 Co1358 2.037 . S
O1389 C1409 1.234 1_455 S
C1390 O1364 1.276 . S
C1390 O1365 1.257 . S
C1391 H1366 0.930 . S
C1391 C1394 1.388 . S
C1391 C1396 1.418 . S
C1392 H1387 0.930 . S
C1392 C1395 1.404 . S
C1392 C1396 1.353 . S
N1393 Co1358 2.145 . S
N1393 C1394 1.397 . S
N1393 C1395 1.334 . S
C1394 H1375 0.929 . S
C1394 C1391 1.388 . S
C1394 N1393 1.397 . S
C1395 H1376 0.929 . S
C1395 C1392 1.404 . S
C1395 N1393 1.334 . S
C1396 H1388 0.930 . S
C1396 C1391 1.418 . S
C1396 C1392 1.353 . S
C1397 H1367 0.930 . S
C1397 N1398 1.330 . S
C1397 C1399 1.446 . S
N1398 Co1357 2.151 . S
N1398 C1397 1.330 . S
N1398 C1402 1.418 . S
C1399 H1378 0.929 . S
C1399 C1397 1.446 . S
C1399 C1400 1.332 . S
C1400 H1380 0.931 . S
C1400 C1399 1.332 . S
C1400 C1401 1.267 . S
C1401 H1369 0.929 . S
C1401 C1400 1.267 . S
C1401 C1402 1.251 . S
C1402 H1372 0.929 . S
C1402 N1398 1.418 . S
C1402 C1401 1.251 . S
C1403 H1370 0.930 . S
C1403 C1405 1.406 . S
C1403 C1408 1.261 . S
C1404 H1371 0.930 . S
C1404 N1406 1.325 . S
C1404 C1407 1.357 . S
C1405 H1373 0.928 . S
C1405 C1403 1.406 . S
C1405 N1406 1.261 . S
N1406 Co1357 2.214 . S
N1406 C1404 1.325 . S
N1406 C1405 1.261 . S
C1407 H1377 0.931 . S
C1407 C1404 1.357 . S
C1407 C1408 1.312 . S
C1408 H1379 0.930 . S
C1408 C1403 1.261 . S
C1408 C1407 1.312 . S
C1409 O1381 1.214 . S
C1409 O1389 1.234 1_655 S
C1410 H1382 0.929 . S
C1410 C1413 1.391 . S
C1410 C1415 1.391 . S
C1411 H1383 0.929 . S
C1411 C1412 1.390 . S
C1411 N1414 1.391 . S
C1412 H1384 0.930 . S
C1412 C1411 1.390 . S
C1412 C1413 1.392 . S
C1413 H1385 0.929 . S
C1413 C1410 1.391 . S
C1413 C1412 1.392 . S
N1414 Co1358 2.257 . S
N1414 C1411 1.391 . S
N1414 C1415 1.388 . S
C1415 H1386 0.930 1_455 S
C1415 C1410 1.391 . S
C1415 N1414 1.388 . S
Co1416 O1418 2.143 . S
Co1416 O1424 2.074 . S
Co1416 O1427 2.093 . S
Co1416 O1440 2.097 . S
Co1416 N1457 2.151 . S
Co1416 N1465 2.214 . S
Co1417 O1418 2.160 . S
Co1417 O1423 2.058 . S
Co1417 O1433 2.057 . S
Co1417 O1448 2.037 . S
Co1417 N1452 2.145 1_565 S
Co1417 N1473 2.257 1_565 S
O1418 Co1416 2.143 . S
O1418 Co1417 2.160 . S
C1419 O1420 1.228 1_565 S
C1419 O1427 1.224 . S
O1420 C1419 1.228 1_545 S
C1421 O1422 1.245 . S
C1421 O1433 1.232 . S
O1422 C1421 1.245 . S
O1423 Co1417 2.058 . S
O1423 C1449 1.269 . S
O1424 Co1416 2.074 . S
O1424 C1449 1.257 . S
H1425 C1450 0.930 . S
H1426 C1456 0.930 . S
O1427 Co1416 2.093 . S
O1427 C1419 1.224 . S
H1428 C1460 0.929 . S
H1429 C1462 0.930 . S
H1430 C1463 0.930 . S
H1431 C1461 0.929 . S
H1432 C1464 0.928 . S
O1433 Co1417 2.057 . S
O1433 C1421 1.232 . S
H1434 C1453 0.929 . S
H1435 C1454 0.929 . S
H1436 C1466 0.931 . S
H1437 C1458 0.929 . S
H1438 C1467 0.930 . S
H1439 C1459 0.931 . S
O1440 Co1416 2.097 . S
O1440 C1468 1.214 . S
H1441 C1469 0.929 . S
H1442 C1470 0.929 . S
H1443 C1471 0.930 . S
H1444 C1472 0.929 . S
H1445 C1474 0.930 . S
H1446 C1451 0.930 . S
H1447 C1455 0.930 . S
O1448 Co1417 2.037 . S
O1448 C1468 1.234 . S
C1449 O1423 1.269 . S
C1449 O1424 1.257 . S
C1450 H1425 0.930 . S
C1450 C1453 1.388 1_545 S
C1450 C1455 1.418 . S
C1451 H1446 0.930 . S
C1451 C1454 1.404 . S
C1451 C1455 1.353 . S
N1452 Co1417 2.145 1_545 S
N1452 C1453 1.397 1_545 S
N1452 C1454 1.334 . S
C1453 H1434 0.929 . S
C1453 C1450 1.388 1_565 S
C1453 N1452 1.397 1_565 S
C1454 H1435 0.929 . S
C1454 C1451 1.404 . S
C1454 N1452 1.334 . S
C1455 H1447 0.930 . S
C1455 C1450 1.418 . S
C1455 C1451 1.353 . S
C1456 H1426 0.930 . S
C1456 N1457 1.330 . S
C1456 C1458 1.446 . S
N1457 Co1416 2.151 . S
N1457 C1456 1.330 . S
N1457 C1461 1.418 . S
C1458 H1437 0.929 . S
C1458 C1456 1.446 . S
C1458 C1459 1.332 . S
C1459 H1439 0.931 . S
C1459 C1458 1.332 . S
C1459 C1460 1.267 . S
C1460 H1428 0.929 . S
C1460 C1459 1.267 . S
C1460 C1461 1.251 . S
C1461 H1431 0.929 . S
C1461 N1457 1.418 . S
C1461 C1460 1.251 . S
C1462 H1429 0.930 . S
C1462 C1464 1.406 . S
C1462 C1467 1.261 . S
C1463 H1430 0.930 . S
C1463 N1465 1.325 . S
C1463 C1466 1.357 . S
C1464 H1432 0.928 . S
C1464 C1462 1.406 . S
C1464 N1465 1.261 . S
N1465 Co1416 2.214 . S
N1465 C1463 1.325 . S
N1465 C1464 1.261 . S
C1466 H1436 0.931 . S
C1466 C1463 1.357 . S
C1466 C1467 1.312 . S
C1467 H1438 0.930 . S
C1467 C1462 1.261 . S
C1467 C1466 1.312 . S
C1468 O1440 1.214 . S
C1468 O1448 1.234 . S
C1469 H1441 0.929 . S
C1469 C1472 1.391 . S
C1469 C1474 1.391 . S
C1470 H1442 0.929 . S
C1470 C1471 1.390 . S
C1470 N1473 1.391 . S
C1471 H1443 0.930 . S
C1471 C1470 1.390 . S
C1471 C1472 1.392 . S
C1472 H1444 0.929 . S
C1472 C1469 1.391 . S
C1472 C1471 1.392 . S
N1473 Co1417 2.257 1_545 S
N1473 C1470 1.391 . S
N1473 C1474 1.388 . S
C1474 H1445 0.930 . S
C1474 C1469 1.391 . S
C1474 N1473 1.388 . S
Co1475 O1477 2.143 . S
Co1475 O1483 2.074 . S
Co1475 O1486 2.093 . S
Co1475 O1499 2.097 . S
Co1475 N1516 2.151 . S
Co1475 N1524 2.214 . S
Co1476 O1477 2.160 . S
Co1476 O1482 2.058 . S
Co1476 O1492 2.057 . S
Co1476 O1507 2.037 . S
Co1476 N1511 2.145 . S
Co1476 N1532 2.257 . S
O1477 Co1475 2.143 . S
O1477 Co1476 2.160 . S
C1478 O1479 1.278 . S
C1478 O1486 1.224 . S
O1479 C1478 1.278 . S
C1480 O1481 1.245 . S
C1480 O1492 1.232 . S
O1481 C1480 1.245 . S
O1482 Co1476 2.058 . S
O1482 C1508 1.269 . S
O1483 Co1475 2.074 . S
O1483 C1508 1.257 . S
H1484 C1509 0.930 . S
H1485 C1515 0.930 . S
O1486 Co1475 2.093 . S
O1486 C1478 1.224 . S
H1487 C1519 0.929 . S
H1488 C1521 0.930 . S
H1489 C1522 0.930 . S
H1490 C1520 0.929 . S
H1491 C1523 0.928 . S
O1492 Co1476 2.057 . S
O1492 C1480 1.232 . S
H1493 C1512 0.929 . S
H1494 C1513 0.929 . S
H1495 C1525 0.931 . S
H1496 C1517 0.929 . S
H1497 C1526 0.930 . S
H1498 C1518 0.931 . S
O1499 Co1475 2.097 . S
O1499 C1527 1.214 . S
H1500 C1528 0.929 . S
H1501 C1529 0.929 . S
H1502 C1530 0.930 . S
H1503 C1531 0.929 . S
H1504 C1533 0.930 . S
H1505 C1510 0.930 . S
H1506 C1514 0.930 . S
O1507 Co1476 2.037 . S
O1507 C1527 1.234 . S
C1508 O1482 1.269 . S
C1508 O1483 1.257 . S
C1509 H1484 0.930 . S
C1509 C1512 1.388 . S
C1509 C1514 1.418 . S
C1510 H1505 0.930 . S
C1510 C1513 1.404 . S
C1510 C1514 1.353 . S
N1511 Co1476 2.145 . S
N1511 C1512 1.397 . S
N1511 C1513 1.334 . S
C1512 H1493 0.929 . S
C1512 C1509 1.388 . S
C1512 N1511 1.397 . S
C1513 H1494 0.929 . S
C1513 C1510 1.404 . S
C1513 N1511 1.334 . S
C1514 H1506 0.930 . S
C1514 C1509 1.418 . S
C1514 C1510 1.353 . S
C1515 H1485 0.930 . S
C1515 N1516 1.330 . S
C1515 C1517 1.446 . S
N1516 Co1475 2.151 . S
N1516 C1515 1.330 . S
N1516 C1520 1.418 . S
C1517 H1496 0.929 . S
C1517 C1515 1.446 . S
C1517 C1518 1.332 . S
C1518 H1498 0.931 . S
C1518 C1517 1.332 . S
C1518 C1519 1.267 . S
C1519 H1487 0.929 . S
C1519 C1518 1.267 . S
C1519 C1520 1.251 . S
C1520 H1490 0.929 . S
C1520 N1516 1.418 . S
C1520 C1519 1.251 . S
C1521 H1488 0.930 . S
C1521 C1523 1.406 . S
C1521 C1526 1.261 . S
C1522 H1489 0.930 . S
C1522 N1524 1.325 . S
C1522 C1525 1.357 . S
C1523 H1491 0.928 . S
C1523 C1521 1.406 . S
C1523 N1524 1.261 . S
N1524 Co1475 2.214 . S
N1524 C1522 1.325 . S
N1524 C1523 1.261 . S
C1525 H1495 0.931 . S
C1525 C1522 1.357 . S
C1525 C1526 1.312 . S
C1526 H1497 0.930 . S
C1526 C1521 1.261 . S
C1526 C1525 1.312 . S
C1527 O1499 1.214 . S
C1527 O1507 1.234 . S
C1528 H1500 0.929 . S
C1528 C1531 1.391 . S
C1528 C1533 1.391 1_655 S
C1529 H1501 0.929 . S
C1529 C1530 1.390 1_455 S
C1529 N1532 1.391 . S
C1530 H1502 0.930 . S
C1530 C1529 1.390 1_655 S
C1530 C1531 1.392 . S
C1531 H1503 0.929 . S
C1531 C1528 1.391 . S
C1531 C1530 1.392 . S
N1532 Co1476 2.257 . S
N1532 C1529 1.391 . S
N1532 C1533 1.388 . S
C1533 H1504 0.930 . S
C1533 C1528 1.391 1_455 S
C1533 N1532 1.388 . S
Co1534 O1536 2.143 . S
Co1534 O1542 2.074 . S
Co1534 O1545 2.093 . S
Co1534 O1558 2.097 . S
Co1534 N1575 2.151 . S
Co1534 N1583 2.214 . S
Co1535 O1536 2.160 . S
Co1535 O1541 2.058 . S
Co1535 O1551 2.057 . S
Co1535 O1566 2.037 . S
Co1535 N1570 2.145 . S
Co1535 N1591 2.257 . S
O1536 Co1534 2.143 . S
O1536 Co1535 2.160 . S
C1537 O1538 1.278 . S
C1537 O1545 1.224 . S
O1538 C1537 1.278 . S
C1539 O1540 1.245 . S
C1539 O1551 1.232 . S
O1540 C1539 1.245 . S
O1541 Co1535 2.058 . S
O1541 C1567 1.269 . S
O1542 Co1534 2.074 . S
O1542 C1567 1.257 . S
H1543 C1568 0.930 . S
H1544 C1574 0.930 . S
O1545 Co1534 2.093 . S
O1545 C1537 1.224 . S
H1546 C1578 0.929 . S
H1547 C1580 0.930 . S
H1548 C1581 0.930 . S
H1549 C1579 0.929 . S
H1550 C1582 0.928 . S
O1551 Co1535 2.057 . S
O1551 C1539 1.232 . S
H1552 C1571 0.929 . S
H1553 C1572 0.929 . S
H1554 C1584 0.931 . S
H1555 C1576 0.929 . S
H1556 C1585 0.930 . S
H1557 C1577 0.931 . S
O1558 Co1534 2.097 . S
O1558 C1586 1.214 . S
H1559 C1587 0.929 . S
H1560 C1588 0.929 . S
H1561 C1589 0.930 . S
H1562 C1590 0.929 . S
H1563 C1592 0.930 . S
H1564 C1569 0.930 . S
H1565 C1573 0.930 . S
O1566 Co1535 2.037 . S
O1566 C1586 1.234 . S
C1567 O1541 1.269 . S
C1567 O1542 1.257 . S
C1568 H1543 0.930 . S
C1568 C1571 1.388 . S
C1568 C1573 1.418 . S
C1569 H1564 0.930 . S
C1569 C1572 1.404 . S
C1569 C1573 1.353 . S
N1570 Co1535 2.145 . S
N1570 C1571 1.397 . S
N1570 C1572 1.334 . S
C1571 H1552 0.929 . S
C1571 C1568 1.388 . S
C1571 N1570 1.397 . S
C1572 H1553 0.929 . S
C1572 C1569 1.404 . S
C1572 N1570 1.334 . S
C1573 H1565 0.930 . S
C1573 C1568 1.418 . S
C1573 C1569 1.353 . S
C1574 H1544 0.930 . S
C1574 N1575 1.330 . S
C1574 C1576 1.446 . S
N1575 Co1534 2.151 . S
N1575 C1574 1.330 . S
N1575 C1579 1.418 . S
C1576 H1555 0.929 . S
C1576 C1574 1.446 . S
C1576 C1577 1.332 . S
C1577 H1557 0.931 . S
C1577 C1576 1.332 . S
C1577 C1578 1.267 . S
C1578 H1546 0.929 . S
C1578 C1577 1.267 . S
C1578 C1579 1.251 . S
C1579 H1549 0.929 . S
C1579 N1575 1.418 . S
C1579 C1578 1.251 . S
C1580 H1547 0.930 . S
C1580 C1582 1.406 . S
C1580 C1585 1.261 . S
C1581 H1548 0.930 . S
C1581 N1583 1.325 . S
C1581 C1584 1.357 . S
C1582 H1550 0.928 . S
C1582 C1580 1.406 . S
C1582 N1583 1.261 . S
N1583 Co1534 2.214 . S
N1583 C1581 1.325 . S
N1583 C1582 1.261 . S
C1584 H1554 0.931 . S
C1584 C1581 1.357 . S
C1584 C1585 1.312 . S
C1585 H1556 0.930 . S
C1585 C1580 1.261 . S
C1585 C1584 1.312 . S
C1586 O1558 1.214 . S
C1586 O1566 1.234 . S
C1587 H1559 0.929 . S
C1587 C1590 1.391 . S
C1587 C1592 1.391 . S
C1588 H1560 0.929 . S
C1588 C1589 1.390 . S
C1588 N1591 1.391 . S
C1589 H1561 0.930 . S
C1589 C1588 1.390 . S
C1589 C1590 1.392 . S
C1590 H1562 0.929 . S
C1590 C1587 1.391 . S
C1590 C1589 1.392 . S
N1591 Co1535 2.257 . S
N1591 C1588 1.391 . S
N1591 C1592 1.388 . S
C1592 H1563 0.930 . S
C1592 C1587 1.391 . S
C1592 N1591 1.388 . S
Co1593 O1595 2.143 . S
Co1593 O1601 2.074 . S
Co1593 O1604 2.093 . S
Co1593 O1617 2.097 . S
Co1593 N1634 2.151 . S
Co1593 N1642 2.214 . S
Co1594 O1595 2.160 . S
Co1594 O1600 2.058 . S
Co1594 O1610 2.057 . S
Co1594 O1625 2.037 . S
Co1594 N1629 2.145 . S
Co1594 N1650 2.257 . S
O1595 Co1593 2.143 . S
O1595 Co1594 2.160 . S
C1596 O1597 1.278 . S
C1596 O1604 1.224 . S
O1597 C1596 1.278 . S
C1598 O1599 1.245 . S
C1598 O1610 1.232 . S
O1599 C1598 1.245 . S
O1600 Co1594 2.058 . S
O1600 C1626 1.269 . S
O1601 Co1593 2.074 . S
O1601 C1626 1.257 . S
H1602 C1627 0.930 . S
H1603 C1633 0.930 . S
O1604 Co1593 2.093 . S
O1604 C1596 1.224 . S
H1605 C1637 0.929 . S
H1606 C1639 0.930 . S
H1607 C1640 0.930 . S
H1608 C1638 0.929 . S
H1609 C1641 0.928 . S
O1610 Co1594 2.057 . S
O1610 C1598 1.232 . S
H1611 C1630 0.929 . S
H1612 C1631 0.929 . S
H1613 C1643 0.931 . S
H1614 C1635 0.929 . S
H1615 C1644 0.930 . S
H1616 C1636 0.931 . S
O1617 Co1593 2.097 . S
O1617 C1645 1.214 . S
H1618 C1646 0.929 . S
H1619 C1647 0.929 . S
H1620 C1648 0.930 . S
H1621 C1649 0.929 . S
H1622 C1651 0.930 . S
H1623 C1628 0.930 . S
H1624 C1632 0.930 . S
O1625 Co1594 2.037 . S
O1625 C1645 1.234 . S
C1626 O1600 1.269 . S
C1626 O1601 1.257 . S
C1627 H1602 0.930 . S
C1627 C1630 1.388 . S
C1627 C1632 1.418 . S
C1628 H1623 0.930 . S
C1628 C1631 1.404 . S
C1628 C1632 1.353 . S
N1629 Co1594 2.145 . S
N1629 C1630 1.397 . S
N1629 C1631 1.334 . S
C1630 H1611 0.929 . S
C1630 C1627 1.388 . S
C1630 N1629 1.397 . S
C1631 H1612 0.929 . S
C1631 C1628 1.404 . S
C1631 N1629 1.334 . S
C1632 H1624 0.930 . S
C1632 C1627 1.418 . S
C1632 C1628 1.353 . S
C1633 H1603 0.930 . S
C1633 N1634 1.330 . S
C1633 C1635 1.446 . S
N1634 Co1593 2.151 . S
N1634 C1633 1.330 . S
N1634 C1638 1.418 . S
C1635 H1614 0.929 . S
C1635 C1633 1.446 . S
C1635 C1636 1.332 . S
C1636 H1616 0.931 . S
C1636 C1635 1.332 . S
C1636 C1637 1.267 . S
C1637 H1605 0.929 . S
C1637 C1636 1.267 . S
C1637 C1638 1.251 . S
C1638 H1608 0.929 . S
C1638 N1634 1.418 . S
C1638 C1637 1.251 . S
C1639 H1606 0.930 . S
C1639 C1641 1.406 . S
C1639 C1644 1.261 . S
C1640 H1607 0.930 . S
C1640 N1642 1.325 . S
C1640 C1643 1.357 . S
C1641 H1609 0.928 . S
C1641 C1639 1.406 . S
C1641 N1642 1.261 . S
N1642 Co1593 2.214 . S
N1642 C1640 1.325 . S
N1642 C1641 1.261 . S
C1643 H1613 0.931 . S
C1643 C1640 1.357 . S
C1643 C1644 1.312 . S
C1644 H1615 0.930 . S
C1644 C1639 1.261 . S
C1644 C1643 1.312 . S
C1645 O1617 1.214 . S
C1645 O1625 1.234 . S
C1646 H1618 0.929 . S
C1646 C1649 1.391 . S
C1646 C1651 1.391 . S
C1647 H1619 0.929 . S
C1647 C1648 1.390 . S
C1647 N1650 1.391 . S
C1648 H1620 0.930 . S
C1648 C1647 1.390 . S
C1648 C1649 1.392 . S
C1649 H1621 0.929 . S
C1649 C1646 1.391 . S
C1649 C1648 1.392 . S
N1650 Co1594 2.257 . S
N1650 C1647 1.391 . S
N1650 C1651 1.388 . S
C1651 H1622 0.930 . S
C1651 C1646 1.391 . S
C1651 N1650 1.388 . S
Co1652 O1654 2.143 . S
Co1652 O1660 2.074 . S
Co1652 O1663 2.093 . S
Co1652 O1676 2.097 . S
Co1652 N1693 2.151 . S
Co1652 N1701 2.214 . S
Co1653 O1654 2.160 1_545 S
Co1653 O1659 2.045 1_545 S
Co1653 O1669 2.057 . S
Co1653 O1684 2.044 . S
Co1653 N1688 2.145 . S
Co1653 N1709 2.257 . S
O1654 Co1652 2.143 . S
O1654 Co1653 2.160 1_565 S
C1655 O1656 1.278 . S
C1655 O1663 1.224 . S
O1656 C1655 1.278 . S
C1657 O1658 1.245 1_545 S
C1657 O1669 1.232 . S
O1658 C1657 1.245 1_565 S
O1659 Co1653 2.045 1_565 S
O1659 C1685 1.287 . S
O1660 Co1652 2.074 . S
O1660 C1685 1.257 . S
H1661 C1686 0.930 . S
H1662 C1692 0.930 . S
O1663 Co1652 2.093 . S
O1663 C1655 1.224 . S
H1664 C1696 0.929 . S
H1665 C1698 0.930 . S
H1666 C1699 0.930 . S
H1667 C1697 0.929 . S
H1668 C1700 0.928 . S
O1669 Co1653 2.057 . S
O1669 C1657 1.232 . S
H1670 C1689 0.929 . S
H1671 C1690 0.929 . S
H1672 C1702 0.931 . S
H1673 C1694 0.929 . S
H1674 C1703 0.930 . S
H1675 C1695 0.931 . S
O1676 Co1652 2.097 . S
O1676 C1704 1.214 . S
H1677 C1705 0.929 . S
H1678 C1706 0.929 . S
H1679 C1707 0.930 . S
H1680 C1708 0.929 . S
H1681 C1710 0.930 1_565 S
H1682 C1687 0.930 . S
H1683 C1691 0.930 . S
O1684 Co1653 2.044 . S
O1684 C1704 1.200 1_545 S
C1685 O1659 1.287 . S
C1685 O1660 1.257 . S
C1686 H1661 0.930 . S
C1686 C1689 1.388 . S
C1686 C1691 1.418 . S
C1687 H1682 0.930 . S
C1687 C1690 1.404 . S
C1687 C1691 1.353 . S
N1688 Co1653 2.145 . S
N1688 C1689 1.397 . S
N1688 C1690 1.334 . S
C1689 H1670 0.929 . S
C1689 C1686 1.388 . S
C1689 N1688 1.397 . S
C1690 H1671 0.929 . S
C1690 C1687 1.404 . S
C1690 N1688 1.334 . S
C1691 H1683 0.930 . S
C1691 C1686 1.418 . S
C1691 C1687 1.353 . S
C1692 H1662 0.930 . S
C1692 N1693 1.330 . S
C1692 C1694 1.446 . S
N1693 Co1652 2.151 . S
N1693 C1692 1.330 . S
N1693 C1697 1.418 . S
C1694 H1673 0.929 . S
C1694 C1692 1.446 . S
C1694 C1695 1.332 . S
C1695 H1675 0.931 . S
C1695 C1694 1.332 . S
C1695 C1696 1.267 . S
C1696 H1664 0.929 . S
C1696 C1695 1.267 . S
C1696 C1697 1.251 . S
C1697 H1667 0.929 . S
C1697 N1693 1.418 . S
C1697 C1696 1.251 . S
C1698 H1665 0.930 . S
C1698 C1700 1.406 . S
C1698 C1703 1.261 . S
C1699 H1666 0.930 . S
C1699 N1701 1.325 . S
C1699 C1702 1.357 . S
C1700 H1668 0.928 . S
C1700 C1698 1.406 . S
C1700 N1701 1.261 . S
N1701 Co1652 2.214 . S
N1701 C1699 1.325 . S
N1701 C1700 1.261 . S
C1702 H1672 0.931 . S
C1702 C1699 1.357 . S
C1702 C1703 1.312 . S
C1703 H1674 0.930 . S
C1703 C1698 1.261 . S
C1703 C1702 1.312 . S
C1704 O1676 1.214 . S
C1704 O1684 1.200 1_565 S
C1705 H1677 0.929 . S
C1705 C1708 1.391 . S
C1705 C1710 1.391 . S
C1706 H1678 0.929 . S
C1706 C1707 1.390 . S
C1706 N1709 1.391 . S
C1707 H1679 0.930 . S
C1707 C1706 1.390 . S
C1707 C1708 1.392 . S
C1708 H1680 0.929 . S
C1708 C1705 1.391 . S
C1708 C1707 1.392 . S
N1709 Co1653 2.257 . S
N1709 C1706 1.391 . S
N1709 C1710 1.388 . S
C1710 H1681 0.930 1_545 S
C1710 C1705 1.391 . S
C1710 N1709 1.388 . S
Co1711 O1713 2.143 . S
Co1711 O1719 2.074 . S
Co1711 O1722 2.093 . S
Co1711 O1735 2.097 . S
Co1711 N1752 2.151 . S
Co1711 N1760 2.214 . S
Co1712 O1713 2.160 . S
Co1712 O1718 2.058 . S
Co1712 O1728 2.057 . S
Co1712 O1743 2.037 . S
Co1712 N1747 2.145 . S
Co1712 N1768 2.257 . S
O1713 Co1711 2.143 . S
O1713 Co1712 2.160 . S
C1714 O1715 1.278 . S
C1714 O1722 1.224 . S
O1715 C1714 1.278 . S
C1716 O1717 1.245 . S
C1716 O1728 1.232 . S
O1717 C1716 1.245 . S
O1718 Co1712 2.058 . S
O1718 C1744 1.269 . S
O1719 Co1711 2.074 . S
O1719 C1744 1.257 . S
H1720 C1745 0.930 . S
H1721 C1751 0.930 . S
O1722 Co1711 2.093 . S
O1722 C1714 1.224 . S
H1723 C1755 0.929 . S
H1724 C1757 0.930 . S
H1725 C1758 0.930 . S
H1726 C1756 0.929 . S
H1727 C1759 0.928 . S
O1728 Co1712 2.057 . S
O1728 C1716 1.232 . S
H1729 C1748 0.929 1_455 S
H1730 C1749 0.929 . S
H1731 C1761 0.931 . S
H1732 C1753 0.929 . S
H1733 C1762 0.930 . S
H1734 C1754 0.931 . S
O1735 Co1711 2.097 . S
O1735 C1763 1.214 . S
H1736 C1764 0.929 . S
H1737 C1765 0.929 . S
H1738 C1766 0.930 . S
H1739 C1767 0.929 . S
H1740 C1769 0.930 . S
H1741 C1746 0.930 . S
H1742 C1750 0.930 . S
O1743 Co1712 2.037 . S
O1743 C1763 1.234 . S
C1744 O1718 1.269 . S
C1744 O1719 1.257 . S
C1745 H1720 0.930 . S
C1745 C1748 1.388 . S
C1745 C1750 1.418 . S
C1746 H1741 0.930 . S
C1746 C1749 1.404 . S
C1746 C1750 1.353 . S
N1747 Co1712 2.145 . S
N1747 C1748 1.397 1_455 S
N1747 C1749 1.334 1_455 S
C1748 H1729 0.929 1_655 S
C1748 C1745 1.388 . S
C1748 N1747 1.397 1_655 S
C1749 H1730 0.929 . S
C1749 C1746 1.404 . S
C1749 N1747 1.334 1_655 S
C1750 H1742 0.930 . S
C1750 C1745 1.418 . S
C1750 C1746 1.353 . S
C1751 H1721 0.930 . S
C1751 N1752 1.330 . S
C1751 C1753 1.446 . S
N1752 Co1711 2.151 . S
N1752 C1751 1.330 . S
N1752 C1756 1.418 . S
C1753 H1732 0.929 . S
C1753 C1751 1.446 . S
C1753 C1754 1.332 . S
C1754 H1734 0.931 . S
C1754 C1753 1.332 . S
C1754 C1755 1.267 . S
C1755 H1723 0.929 . S
C1755 C1754 1.267 . S
C1755 C1756 1.251 . S
C1756 H1726 0.929 . S
C1756 N1752 1.418 . S
C1756 C1755 1.251 . S
C1757 H1724 0.930 . S
C1757 C1759 1.406 . S
C1757 C1762 1.261 . S
C1758 H1725 0.930 . S
C1758 N1760 1.325 . S
C1758 C1761 1.357 . S
C1759 H1727 0.928 . S
C1759 C1757 1.406 . S
C1759 N1760 1.261 . S
N1760 Co1711 2.214 . S
N1760 C1758 1.325 . S
N1760 C1759 1.261 . S
C1761 H1731 0.931 . S
C1761 C1758 1.357 . S
C1761 C1762 1.312 . S
C1762 H1733 0.930 . S
C1762 C1757 1.261 . S
C1762 C1761 1.312 . S
C1763 O1735 1.214 . S
C1763 O1743 1.234 . S
C1764 H1736 0.929 . S
C1764 C1767 1.391 . S
C1764 C1769 1.391 . S
C1765 H1737 0.929 . S
C1765 C1766 1.390 . S
C1765 N1768 1.391 . S
C1766 H1738 0.930 . S
C1766 C1765 1.390 . S
C1766 C1767 1.392 . S
C1767 H1739 0.929 . S
C1767 C1764 1.391 . S
C1767 C1766 1.392 . S
N1768 Co1712 2.257 . S
N1768 C1765 1.391 . S
N1768 C1769 1.388 . S
C1769 H1740 0.930 . S
C1769 C1764 1.391 . S
C1769 N1768 1.388 . S
Co1770 O1772 2.143 . S
Co1770 O1778 2.074 . S
Co1770 O1781 2.093 . S
Co1770 O1794 2.097 . S
Co1770 N1811 2.151 . S
Co1770 N1819 2.214 . S
Co1771 O1772 2.160 . S
Co1771 O1777 2.058 . S
Co1771 O1787 2.057 . S
Co1771 O1802 2.037 . S
Co1771 N1806 2.145 . S
Co1771 N1827 2.257 . S
O1772 Co1770 2.143 . S
O1772 Co1771 2.160 . S
C1773 O1774 1.278 . S
C1773 O1781 1.224 . S
O1774 C1773 1.278 . S
C1775 O1776 1.245 . S
C1775 O1787 1.232 . S
O1776 C1775 1.245 . S
O1777 Co1771 2.058 . S
O1777 C1803 1.269 . S
O1778 Co1770 2.074 . S
O1778 C1803 1.257 . S
H1779 C1804 0.930 . S
H1780 C1810 0.930 . S
O1781 Co1770 2.093 . S
O1781 C1773 1.224 . S
H1782 C1814 0.929 . S
H1783 C1816 0.930 . S
H1784 C1817 0.930 . S
H1785 C1815 0.929 . S
H1786 C1818 0.928 . S
O1787 Co1771 2.057 . S
O1787 C1775 1.232 . S
H1788 C1807 0.929 . S
H1789 C1808 0.929 . S
H1790 C1820 0.931 . S
H1791 C1812 0.929 . S
H1792 C1821 0.930 . S
H1793 C1813 0.931 . S
O1794 Co1770 2.097 . S
O1794 C1822 1.214 . S
H1795 C1823 0.929 . S
H1796 C1824 0.929 . S
H1797 C1825 0.930 . S
H1798 C1826 0.929 . S
H1799 C1828 0.930 . S
H1800 C1805 0.930 . S
H1801 C1809 0.930 . S
O1802 Co1771 2.037 . S
O1802 C1822 1.234 . S
C1803 O1777 1.269 . S
C1803 O1778 1.257 . S
C1804 H1779 0.930 . S
C1804 C1807 1.388 . S
C1804 C1809 1.418 . S
C1805 H1800 0.930 . S
C1805 C1808 1.404 . S
C1805 C1809 1.353 . S
N1806 Co1771 2.145 . S
N1806 C1807 1.397 . S
N1806 C1808 1.334 . S
C1807 H1788 0.929 . S
C1807 C1804 1.388 . S
C1807 N1806 1.397 . S
C1808 H1789 0.929 . S
C1808 C1805 1.404 . S
C1808 N1806 1.334 . S
C1809 H1801 0.930 . S
C1809 C1804 1.418 . S
C1809 C1805 1.353 . S
C1810 H1780 0.930 . S
C1810 N1811 1.330 . S
C1810 C1812 1.446 . S
N1811 Co1770 2.151 . S
N1811 C1810 1.330 . S
N1811 C1815 1.418 . S
C1812 H1791 0.929 . S
C1812 C1810 1.446 . S
C1812 C1813 1.332 . S
C1813 H1793 0.931 . S
C1813 C1812 1.332 . S
C1813 C1814 1.267 . S
C1814 H1782 0.929 . S
C1814 C1813 1.267 . S
C1814 C1815 1.251 . S
C1815 H1785 0.929 . S
C1815 N1811 1.418 . S
C1815 C1814 1.251 . S
C1816 H1783 0.930 . S
C1816 C1818 1.406 . S
C1816 C1821 1.261 . S
C1817 H1784 0.930 . S
C1817 N1819 1.325 . S
C1817 C1820 1.357 . S
C1818 H1786 0.928 . S
C1818 C1816 1.406 . S
C1818 N1819 1.261 . S
N1819 Co1770 2.214 . S
N1819 C1817 1.325 . S
N1819 C1818 1.261 . S
C1820 H1790 0.931 . S
C1820 C1817 1.357 . S
C1820 C1821 1.312 . S
C1821 H1792 0.930 . S
C1821 C1816 1.261 . S
C1821 C1820 1.312 . S
C1822 O1794 1.214 . S
C1822 O1802 1.234 . S
C1823 H1795 0.929 . S
C1823 C1826 1.391 . S
C1823 C1828 1.391 . S
C1824 H1796 0.929 . S
C1824 C1825 1.390 . S
C1824 N1827 1.391 . S
C1825 H1797 0.930 . S
C1825 C1824 1.390 . S
C1825 C1826 1.392 . S
C1826 H1798 0.929 . S
C1826 C1823 1.391 . S
C1826 C1825 1.392 . S
N1827 Co1771 2.257 . S
N1827 C1824 1.391 . S
N1827 C1828 1.388 . S
C1828 H1799 0.930 . S
C1828 C1823 1.391 . S
C1828 N1827 1.388 . S
Co1829 O1831 2.143 . S
Co1829 O1837 2.074 . S
Co1829 O1840 2.093 . S
Co1829 O1853 2.097 . S
Co1829 N1870 2.151 . S
Co1829 N1878 2.214 . S
Co1830 O1831 2.160 1_545 S
Co1830 O1836 2.064 1_545 S
Co1830 O1846 2.057 . S
Co1830 O1861 2.037 . S
Co1830 N1865 2.145 . S
Co1830 N1886 2.257 . S
O1831 Co1829 2.143 . S
O1831 Co1830 2.160 1_565 S
C1832 O1833 1.278 . S
C1832 O1840 1.224 . S
O1833 C1832 1.278 . S
C1834 O1835 1.245 1_545 S
C1834 O1846 1.232 . S
O1835 C1834 1.245 1_565 S
O1836 Co1830 2.064 1_565 S
O1836 C1862 1.276 . S
O1837 Co1829 2.074 . S
O1837 C1862 1.257 . S
H1838 C1863 0.930 . S
H1839 C1869 0.930 . S
O1840 Co1829 2.093 . S
O1840 C1832 1.224 . S
H1841 C1873 0.929 . S
H1842 C1875 0.930 . S
H1843 C1876 0.930 . S
H1844 C1874 0.929 . S
H1845 C1877 0.928 . S
O1846 Co1830 2.057 . S
O1846 C1834 1.232 . S
H1847 C1866 0.929 . S
H1848 C1867 0.929 . S
H1849 C1879 0.931 . S
H1850 C1871 0.929 . S
H1851 C1880 0.930 . S
H1852 C1872 0.931 . S
O1853 Co1829 2.097 . S
O1853 C1881 1.214 . S
H1854 C1882 0.929 . S
H1855 C1883 0.929 . S
H1856 C1884 0.930 . S
H1857 C1885 0.929 . S
H1858 C1887 0.930 1_565 S
H1859 C1864 0.930 . S
H1860 C1868 0.930 . S
O1861 Co1830 2.037 . S
O1861 C1881 1.234 1_545 S
C1862 O1836 1.276 . S
C1862 O1837 1.257 . S
C1863 H1838 0.930 . S
C1863 C1866 1.388 . S
C1863 C1868 1.418 . S
C1864 H1859 0.930 . S
C1864 C1867 1.404 . S
C1864 C1868 1.353 . S
N1865 Co1830 2.145 . S
N1865 C1866 1.397 . S
N1865 C1867 1.334 . S
C1866 H1847 0.929 . S
C1866 C1863 1.388 . S
C1866 N1865 1.397 . S
C1867 H1848 0.929 . S
C1867 C1864 1.404 . S
C1867 N1865 1.334 . S
C1868 H1860 0.930 . S
C1868 C1863 1.418 . S
C1868 C1864 1.353 . S
C1869 H1839 0.930 . S
C1869 N1870 1.330 . S
C1869 C1871 1.446 . S
N1870 Co1829 2.151 . S
N1870 C1869 1.330 . S
N1870 C1874 1.418 . S
C1871 H1850 0.929 . S
C1871 C1869 1.446 . S
C1871 C1872 1.332 . S
C1872 H1852 0.931 . S
C1872 C1871 1.332 . S
C1872 C1873 1.267 . S
C1873 H1841 0.929 . S
C1873 C1872 1.267 . S
C1873 C1874 1.251 . S
C1874 H1844 0.929 . S
C1874 N1870 1.418 . S
C1874 C1873 1.251 . S
C1875 H1842 0.930 . S
C1875 C1877 1.406 . S
C1875 C1880 1.261 . S
C1876 H1843 0.930 . S
C1876 N1878 1.325 . S
C1876 C1879 1.357 . S
C1877 H1845 0.928 . S
C1877 C1875 1.406 . S
C1877 N1878 1.261 . S
N1878 Co1829 2.214 . S
N1878 C1876 1.325 . S
N1878 C1877 1.261 . S
C1879 H1849 0.931 . S
C1879 C1876 1.357 . S
C1879 C1880 1.312 . S
C1880 H1851 0.930 . S
C1880 C1875 1.261 . S
C1880 C1879 1.312 . S
C1881 O1853 1.214 . S
C1881 O1861 1.234 1_565 S
C1882 H1854 0.929 . S
C1882 C1885 1.391 . S
C1882 C1887 1.391 . S
C1883 H1855 0.929 . S
C1883 C1884 1.390 . S
C1883 N1886 1.391 . S
C1884 H1856 0.930 . S
C1884 C1883 1.390 . S
C1884 C1885 1.392 . S
C1885 H1857 0.929 . S
C1885 C1882 1.391 . S
C1885 C1884 1.392 . S
N1886 Co1830 2.257 . S
N1886 C1883 1.391 . S
N1886 C1887 1.388 . S
C1887 H1858 0.930 1_545 S
C1887 C1882 1.391 . S
C1887 N1886 1.388 . S
Co1888 O1890 2.143 . S
Co1888 O1896 2.074 . S
Co1888 O1899 2.093 . S
Co1888 O1912 2.097 . S
Co1888 N1929 2.151 . S
Co1888 N1937 2.214 . S
Co1889 O1890 2.160 . S
Co1889 O1895 2.058 . S
Co1889 O1905 2.057 . S
Co1889 O1920 2.037 . S
Co1889 N1924 2.145 . S
Co1889 N1945 2.257 . S
O1890 Co1888 2.143 . S
O1890 Co1889 2.160 . S
C1891 O1892 1.278 . S
C1891 O1899 1.224 . S
O1892 C1891 1.278 . S
C1893 O1894 1.245 . S
C1893 O1905 1.232 . S
O1894 C1893 1.245 . S
O1895 Co1889 2.058 . S
O1895 C1921 1.269 . S
O1896 Co1888 2.074 . S
O1896 C1921 1.257 . S
H1897 C1922 0.930 . S
H1898 C1928 0.930 . S
O1899 Co1888 2.093 . S
O1899 C1891 1.224 . S
H1900 C1932 0.929 . S
H1901 C1934 0.930 . S
H1902 C1935 0.930 . S
H1903 C1933 0.929 . S
H1904 C1936 0.928 . S
O1905 Co1889 2.057 . S
O1905 C1893 1.232 . S
H1906 C1925 0.929 1_455 S
H1907 C1926 0.929 . S
H1908 C1938 0.931 . S
H1909 C1930 0.929 . S
H1910 C1939 0.930 . S
H1911 C1931 0.931 . S
O1912 Co1888 2.097 . S
O1912 C1940 1.214 . S
H1913 C1941 0.929 . S
H1914 C1942 0.929 . S
H1915 C1943 0.930 . S
H1916 C1944 0.929 . S
H1917 C1946 0.930 . S
H1918 C1923 0.930 . S
H1919 C1927 0.930 . S
O1920 Co1889 2.037 . S
O1920 C1940 1.234 . S
C1921 O1895 1.269 . S
C1921 O1896 1.257 . S
C1922 H1897 0.930 . S
C1922 C1925 1.388 . S
C1922 C1927 1.418 . S
C1923 H1918 0.930 . S
C1923 C1926 1.404 . S
C1923 C1927 1.353 . S
N1924 Co1889 2.145 . S
N1924 C1925 1.397 1_455 S
N1924 C1926 1.334 1_455 S
C1925 H1906 0.929 1_655 S
C1925 C1922 1.388 . S
C1925 N1924 1.397 1_655 S
C1926 H1907 0.929 . S
C1926 C1923 1.404 . S
C1926 N1924 1.334 1_655 S
C1927 H1919 0.930 . S
C1927 C1922 1.418 . S
C1927 C1923 1.353 . S
C1928 H1898 0.930 . S
C1928 N1929 1.330 . S
C1928 C1930 1.446 . S
N1929 Co1888 2.151 . S
N1929 C1928 1.330 . S
N1929 C1933 1.418 . S
C1930 H1909 0.929 . S
C1930 C1928 1.446 . S
C1930 C1931 1.332 . S
C1931 H1911 0.931 . S
C1931 C1930 1.332 . S
C1931 C1932 1.267 . S
C1932 H1900 0.929 . S
C1932 C1931 1.267 . S
C1932 C1933 1.251 . S
C1933 H1903 0.929 . S
C1933 N1929 1.418 . S
C1933 C1932 1.251 . S
C1934 H1901 0.930 . S
C1934 C1936 1.406 . S
C1934 C1939 1.261 . S
C1935 H1902 0.930 . S
C1935 N1937 1.325 . S
C1935 C1938 1.357 . S
C1936 H1904 0.928 . S
C1936 C1934 1.406 . S
C1936 N1937 1.261 . S
N1937 Co1888 2.214 . S
N1937 C1935 1.325 . S
N1937 C1936 1.261 . S
C1938 H1908 0.931 . S
C1938 C1935 1.357 . S
C1938 C1939 1.312 . S
C1939 H1910 0.930 . S
C1939 C1934 1.261 . S
C1939 C1938 1.312 . S
C1940 O1912 1.214 . S
C1940 O1920 1.234 . S
C1941 H1913 0.929 . S
C1941 C1944 1.391 . S
C1941 C1946 1.391 . S
C1942 H1914 0.929 . S
C1942 C1943 1.390 . S
C1942 N1945 1.391 . S
C1943 H1915 0.930 . S
C1943 C1942 1.390 . S
C1943 C1944 1.392 . S
C1944 H1916 0.929 . S
C1944 C1941 1.391 . S
C1944 C1943 1.392 . S
N1945 Co1889 2.257 . S
N1945 C1942 1.391 . S
N1945 C1946 1.388 . S
C1946 H1917 0.930 . S
C1946 C1941 1.391 . S
C1946 N1945 1.388 . S
Co1947 O1949 2.143 . S
Co1947 O1955 2.074 . S
Co1947 O1958 2.093 . S
Co1947 O1971 2.097 . S
Co1947 N1988 2.151 . S
Co1947 N1996 2.214 . S
Co1948 O1949 2.160 . S
Co1948 O1954 2.058 . S
Co1948 O1964 2.057 . S
Co1948 O1979 2.037 . S
Co1948 N1983 2.145 . S
Co1948 N2004 2.257 . S
O1949 Co1947 2.143 . S
O1949 Co1948 2.160 . S
C1950 O1951 1.278 . S
C1950 O1958 1.224 . S
O1951 C1950 1.278 . S
C1952 O1953 1.245 . S
C1952 O1964 1.232 . S
O1953 C1952 1.245 . S
O1954 Co1948 2.058 . S
O1954 C1980 1.269 . S
O1955 Co1947 2.074 . S
O1955 C1980 1.257 . S
H1956 C1981 0.930 . S
H1957 C1987 0.930 . S
O1958 Co1947 2.093 . S
O1958 C1950 1.224 . S
H1959 C1991 0.929 . S
H1960 C1993 0.930 . S
H1961 C1994 0.930 . S
H1962 C1992 0.929 . S
H1963 C1995 0.928 . S
O1964 Co1948 2.057 . S
O1964 C1952 1.232 . S
H1965 C1984 0.929 . S
H1966 C1985 0.929 . S
H1967 C1997 0.931 . S
H1968 C1989 0.929 . S
H1969 C1998 0.930 . S
H1970 C1990 0.931 . S
O1971 Co1947 2.097 . S
O1971 C1999 1.214 . S
H1972 C2000 0.929 . S
H1973 C2001 0.929 . S
H1974 C2002 0.930 . S
H1975 C2003 0.929 . S
H1976 C2005 0.930 . S
H1977 C1982 0.930 . S
H1978 C1986 0.930 . S
O1979 Co1948 2.037 . S
O1979 C1999 1.234 . S
C1980 O1954 1.269 . S
C1980 O1955 1.257 . S
C1981 H1956 0.930 . S
C1981 C1984 1.388 . S
C1981 C1986 1.418 . S
C1982 H1977 0.930 . S
C1982 C1985 1.404 . S
C1982 C1986 1.353 . S
N1983 Co1948 2.145 . S
N1983 C1984 1.397 . S
N1983 C1985 1.334 . S
C1984 H1965 0.929 . S
C1984 C1981 1.388 . S
C1984 N1983 1.397 . S
C1985 H1966 0.929 . S
C1985 C1982 1.404 . S
C1985 N1983 1.334 . S
C1986 H1978 0.930 . S
C1986 C1981 1.418 . S
C1986 C1982 1.353 . S
C1987 H1957 0.930 . S
C1987 N1988 1.330 . S
C1987 C1989 1.446 . S
N1988 Co1947 2.151 . S
N1988 C1987 1.330 . S
N1988 C1992 1.418 . S
C1989 H1968 0.929 . S
C1989 C1987 1.446 . S
C1989 C1990 1.332 . S
C1990 H1970 0.931 . S
C1990 C1989 1.332 . S
C1990 C1991 1.267 . S
C1991 H1959 0.929 . S
C1991 C1990 1.267 . S
C1991 C1992 1.251 . S
C1992 H1962 0.929 . S
C1992 N1988 1.418 . S
C1992 C1991 1.251 . S
C1993 H1960 0.930 . S
C1993 C1995 1.406 . S
C1993 C1998 1.261 . S
C1994 H1961 0.930 . S
C1994 N1996 1.325 . S
C1994 C1997 1.357 . S
C1995 H1963 0.928 . S
C1995 C1993 1.406 . S
C1995 N1996 1.261 . S
N1996 Co1947 2.214 . S
N1996 C1994 1.325 . S
N1996 C1995 1.261 . S
C1997 H1967 0.931 . S
C1997 C1994 1.357 . S
C1997 C1998 1.312 . S
C1998 H1969 0.930 . S
C1998 C1993 1.261 . S
C1998 C1997 1.312 . S
C1999 O1971 1.214 . S
C1999 O1979 1.234 . S
C2000 H1972 0.929 . S
C2000 C2003 1.391 . S
C2000 C2005 1.391 1_655 S
C2001 H1973 0.929 . S
C2001 C2002 1.390 1_455 S
C2001 N2004 1.391 . S
C2002 H1974 0.930 . S
C2002 C2001 1.390 1_655 S
C2002 C2003 1.392 . S
C2003 H1975 0.929 . S
C2003 C2000 1.391 . S
C2003 C2002 1.392 . S
N2004 Co1948 2.257 . S
N2004 C2001 1.391 . S
N2004 C2005 1.388 . S
C2005 H1976 0.930 . S
C2005 C2000 1.391 1_455 S
C2005 N2004 1.388 . S
Co2006 O2008 2.143 . S
Co2006 O2014 2.074 . S
Co2006 O2017 2.093 . S
Co2006 O2030 2.097 . S
Co2006 N2047 2.151 . S
Co2006 N2055 2.214 . S
Co2007 O2008 2.160 . S
Co2007 O2013 2.058 . S
Co2007 O2023 2.057 . S
Co2007 O2038 2.037 . S
Co2007 N2042 2.145 . S
Co2007 N2063 2.257 . S
O2008 Co2006 2.143 . S
O2008 Co2007 2.160 . S
C2009 O2010 1.278 . S
C2009 O2017 1.224 . S
O2010 C2009 1.278 . S
C2011 O2012 1.245 . S
C2011 O2023 1.232 . S
O2012 C2011 1.245 . S
O2013 Co2007 2.058 . S
O2013 C2039 1.269 . S
O2014 Co2006 2.074 . S
O2014 C2039 1.257 . S
H2015 C2040 0.930 . S
H2016 C2046 0.930 . S
O2017 Co2006 2.093 . S
O2017 C2009 1.224 . S
H2018 C2050 0.929 . S
H2019 C2052 0.930 . S
H2020 C2053 0.930 . S
H2021 C2051 0.929 . S
H2022 C2054 0.928 . S
O2023 Co2007 2.057 . S
O2023 C2011 1.232 . S
H2024 C2043 0.929 . S
H2025 C2044 0.929 . S
H2026 C2056 0.931 . S
H2027 C2048 0.929 . S
H2028 C2057 0.930 . S
H2029 C2049 0.931 . S
O2030 Co2006 2.097 . S
O2030 C2058 1.214 . S
H2031 C2059 0.929 . S
H2032 C2060 0.929 . S
H2033 C2061 0.930 . S
H2034 C2062 0.929 . S
H2035 C2064 0.930 . S
H2036 C2041 0.930 . S
H2037 C2045 0.930 . S
O2038 Co2007 2.037 . S
O2038 C2058 1.234 . S
C2039 O2013 1.269 . S
C2039 O2014 1.257 . S
C2040 H2015 0.930 . S
C2040 C2043 1.388 . S
C2040 C2045 1.418 . S
C2041 H2036 0.930 . S
C2041 C2044 1.404 . S
C2041 C2045 1.353 . S
N2042 Co2007 2.145 . S
N2042 C2043 1.397 . S
N2042 C2044 1.334 . S
C2043 H2024 0.929 . S
C2043 C2040 1.388 . S
C2043 N2042 1.397 . S
C2044 H2025 0.929 . S
C2044 C2041 1.404 . S
C2044 N2042 1.334 . S
C2045 H2037 0.930 . S
C2045 C2040 1.418 . S
C2045 C2041 1.353 . S
C2046 H2016 0.930 . S
C2046 N2047 1.330 . S
C2046 C2048 1.446 . S
N2047 Co2006 2.151 . S
N2047 C2046 1.330 . S
N2047 C2051 1.418 . S
C2048 H2027 0.929 . S
C2048 C2046 1.446 . S
C2048 C2049 1.332 . S
C2049 H2029 0.931 . S
C2049 C2048 1.332 . S
C2049 C2050 1.267 . S
C2050 H2018 0.929 . S
C2050 C2049 1.267 . S
C2050 C2051 1.251 . S
C2051 H2021 0.929 . S
C2051 N2047 1.418 . S
C2051 C2050 1.251 . S
C2052 H2019 0.930 . S
C2052 C2054 1.406 . S
C2052 C2057 1.261 . S
C2053 H2020 0.930 . S
C2053 N2055 1.325 . S
C2053 C2056 1.357 . S
C2054 H2022 0.928 . S
C2054 C2052 1.406 . S
C2054 N2055 1.261 . S
N2055 Co2006 2.214 . S
N2055 C2053 1.325 . S
N2055 C2054 1.261 . S
C2056 H2026 0.931 . S
C2056 C2053 1.357 . S
C2056 C2057 1.312 . S
C2057 H2028 0.930 . S
C2057 C2052 1.261 . S
C2057 C2056 1.312 . S
C2058 O2030 1.214 . S
C2058 O2038 1.234 . S
C2059 H2031 0.929 . S
C2059 C2062 1.391 . S
C2059 C2064 1.391 . S
C2060 H2032 0.929 . S
C2060 C2061 1.390 . S
C2060 N2063 1.391 . S
C2061 H2033 0.930 . S
C2061 C2060 1.390 . S
C2061 C2062 1.392 . S
C2062 H2034 0.929 . S
C2062 C2059 1.391 . S
C2062 C2061 1.392 . S
N2063 Co2007 2.257 . S
N2063 C2060 1.391 . S
N2063 C2064 1.388 . S
C2064 H2035 0.930 . S
C2064 C2059 1.391 . S
C2064 N2063 1.388 . S
Co2065 O2067 2.143 . S
Co2065 O2073 2.074 . S
Co2065 O2076 2.093 . S
Co2065 O2089 2.097 . S
Co2065 N2106 2.151 . S
Co2065 N2114 2.214 . S
Co2066 O2067 2.160 . S
Co2066 O2072 2.058 . S
Co2066 O2082 2.057 . S
Co2066 O2097 2.037 . S
Co2066 N2101 2.145 1_565 S
Co2066 N2122 2.257 1_565 S
O2067 Co2065 2.143 . S
O2067 Co2066 2.160 . S
C2068 O2069 1.263 1_565 S
C2068 O2076 1.224 . S
O2069 C2068 1.263 1_545 S
C2070 O2071 1.245 . S
C2070 O2082 1.232 . S
O2071 C2070 1.245 . S
O2072 Co2066 2.058 . S
O2072 C2098 1.269 . S
O2073 Co2065 2.074 . S
O2073 C2098 1.257 . S
H2074 C2099 0.930 . S
H2075 C2105 0.930 . S
O2076 Co2065 2.093 . S
O2076 C2068 1.224 . S
H2077 C2109 0.929 . S
H2078 C2111 0.930 . S
H2079 C2112 0.930 . S
H2080 C2110 0.929 . S
H2081 C2113 0.928 . S
O2082 Co2066 2.057 . S
O2082 C2070 1.232 . S
H2083 C2102 0.929 . S
H2084 C2103 0.929 . S
H2085 C2115 0.931 . S
H2086 C2107 0.929 . S
H2087 C2116 0.930 . S
H2088 C2108 0.931 . S
O2089 Co2065 2.097 . S
O2089 C2117 1.214 . S
H2090 C2118 0.929 . S
H2091 C2119 0.929 . S
H2092 C2120 0.930 . S
H2093 C2121 0.929 . S
H2094 C2123 0.930 . S
H2095 C2100 0.930 . S
H2096 C2104 0.930 . S
O2097 Co2066 2.037 . S
O2097 C2117 1.234 . S
C2098 O2072 1.269 . S
C2098 O2073 1.257 . S
C2099 H2074 0.930 . S
C2099 C2102 1.388 1_545 S
C2099 C2104 1.418 . S
C2100 H2095 0.930 . S
C2100 C2103 1.404 . S
C2100 C2104 1.353 . S
N2101 Co2066 2.145 1_545 S
N2101 C2102 1.397 1_545 S
N2101 C2103 1.334 . S
C2102 H2083 0.929 . S
C2102 C2099 1.388 1_565 S
C2102 N2101 1.397 1_565 S
C2103 H2084 0.929 . S
C2103 C2100 1.404 . S
C2103 N2101 1.334 . S
C2104 H2096 0.930 . S
C2104 C2099 1.418 . S
C2104 C2100 1.353 . S
C2105 H2075 0.930 . S
C2105 N2106 1.330 . S
C2105 C2107 1.446 . S
N2106 Co2065 2.151 . S
N2106 C2105 1.330 . S
N2106 C2110 1.418 . S
C2107 H2086 0.929 . S
C2107 C2105 1.446 . S
C2107 C2108 1.332 . S
C2108 H2088 0.931 . S
C2108 C2107 1.332 . S
C2108 C2109 1.267 . S
C2109 H2077 0.929 . S
C2109 C2108 1.267 . S
C2109 C2110 1.251 . S
C2110 H2080 0.929 . S
C2110 N2106 1.418 . S
C2110 C2109 1.251 . S
C2111 H2078 0.930 . S
C2111 C2113 1.406 . S
C2111 C2116 1.261 . S
C2112 H2079 0.930 . S
C2112 N2114 1.325 . S
C2112 C2115 1.357 . S
C2113 H2081 0.928 . S
C2113 C2111 1.406 . S
C2113 N2114 1.261 . S
N2114 Co2065 2.214 . S
N2114 C2112 1.325 . S
N2114 C2113 1.261 . S
C2115 H2085 0.931 . S
C2115 C2112 1.357 . S
C2115 C2116 1.312 . S
C2116 H2087 0.930 . S
C2116 C2111 1.261 . S
C2116 C2115 1.312 . S
C2117 O2089 1.214 . S
C2117 O2097 1.234 . S
C2118 H2090 0.929 . S
C2118 C2121 1.391 . S
C2118 C2123 1.391 . S
C2119 H2091 0.929 . S
C2119 C2120 1.390 . S
C2119 N2122 1.391 . S
C2120 H2092 0.930 . S
C2120 C2119 1.390 . S
C2120 C2121 1.392 . S
C2121 H2093 0.929 . S
C2121 C2118 1.391 . S
C2121 C2120 1.392 . S
N2122 Co2066 2.257 1_545 S
N2122 C2119 1.391 . S
N2122 C2123 1.388 . S
C2123 H2094 0.930 . S
C2123 C2118 1.391 . S
C2123 N2122 1.388 . S
H2124 C2132 0.950 . S
H2125 C2137 0.950 . S
H2126 C2134 0.950 . S
H2127 C2136 0.950 . S
H2128 C2138 0.950 . S
H2129 C2140 0.950 . S
H2130 C2142 0.950 . S
H2131 C2143 0.950 . S
C2132 H2124 0.950 . S
C2132 C2133 1.386 . S
C2132 C2134 1.391 . S
C2133 C2132 1.386 . S
C2133 C2137 1.393 . S
C2134 H2126 0.950 . S
C2134 C2132 1.391 . S
C2134 C2135 1.400 . S
C2135 C2134 1.400 . S
C2135 C2136 1.398 . S
C2135 C2141 1.491 . S
C2136 H2127 0.950 . S
C2136 C2135 1.398 . S
C2136 C2137 1.391 . S
C2137 H2125 0.950 . S
C2137 C2133 1.393 . S
C2137 C2136 1.391 . S
C2138 H2128 0.950 . S
C2138 C2139 1.386 . S
C2138 C2140 1.391 . S
C2139 C2138 1.386 . S
C2139 C2143 1.393 . S
C2140 H2129 0.950 . S
C2140 C2138 1.391 . S
C2140 C2141 1.400 . S
C2141 C2135 1.491 . S
C2141 C2140 1.400 . S
C2141 C2142 1.398 . S
C2142 H2130 0.950 . S
C2142 C2141 1.398 . S
C2142 C2143 1.391 . S
C2143 H2131 0.950 . S
C2143 C2139 1.393 . S
C2143 C2142 1.391 . S
H2144 C2152 0.950 . S
H2145 C2157 0.950 . S
H2146 C2154 0.950 . S
H2147 C2156 0.950 . S
H2148 C2158 0.950 . S
H2149 C2160 0.950 . S
H2150 C2162 0.950 . S
H2151 C2163 0.950 . S
C2152 H2144 0.950 . S
C2152 C2153 1.386 . S
C2152 C2154 1.391 . S
C2153 C2152 1.386 . S
C2153 C2157 1.393 . S
C2154 H2146 0.950 . S
C2154 C2152 1.391 . S
C2154 C2155 1.400 . S
C2155 C2154 1.400 . S
C2155 C2156 1.398 . S
C2155 C2161 1.491 . S
C2156 H2147 0.950 . S
C2156 C2155 1.398 . S
C2156 C2157 1.391 . S
C2157 H2145 0.950 . S
C2157 C2153 1.393 . S
C2157 C2156 1.391 . S
C2158 H2148 0.950 . S
C2158 C2159 1.386 . S
C2158 C2160 1.391 . S
C2159 C2158 1.386 . S
C2159 C2163 1.393 . S
C2160 H2149 0.950 . S
C2160 C2158 1.391 . S
C2160 C2161 1.400 . S
C2161 C2155 1.491 . S
C2161 C2160 1.400 . S
C2161 C2162 1.398 . S
C2162 H2150 0.950 . S
C2162 C2161 1.398 . S
C2162 C2163 1.391 . S
C2163 H2151 0.950 . S
C2163 C2159 1.393 . S
C2163 C2162 1.391 . S
H2164 C2172 0.950 . S
H2165 C2177 0.950 . S
H2166 C2174 0.950 . S
H2167 C2176 0.950 . S
H2168 C2178 0.950 . S
H2169 C2180 0.950 . S
H2170 C2182 0.950 . S
H2171 C2183 0.950 . S
C2172 H2164 0.950 . S
C2172 C2173 1.386 . S
C2172 C2174 1.391 . S
C2173 C2172 1.386 . S
C2173 C2177 1.393 . S
C2174 H2166 0.950 . S
C2174 C2172 1.391 . S
C2174 C2175 1.400 . S
C2175 C2174 1.400 . S
C2175 C2176 1.398 . S
C2175 C2181 1.491 . S
C2176 H2167 0.950 . S
C2176 C2175 1.398 . S
C2176 C2177 1.391 . S
C2177 H2165 0.950 . S
C2177 C2173 1.393 . S
C2177 C2176 1.391 . S
C2178 H2168 0.950 . S
C2178 C2179 1.386 . S
C2178 C2180 1.391 . S
C2179 C2178 1.386 . S
C2179 C2183 1.393 . S
C2180 H2169 0.950 . S
C2180 C2178 1.391 . S
C2180 C2181 1.400 . S
C2181 C2175 1.491 . S
C2181 C2180 1.400 . S
C2181 C2182 1.398 . S
C2182 H2170 0.950 . S
C2182 C2181 1.398 . S
C2182 C2183 1.391 . S
C2183 H2171 0.950 . S
C2183 C2179 1.393 . S
C2183 C2182 1.391 . S
H2184 C2192 0.950 . S
H2185 C2197 0.950 . S
H2186 C2194 0.950 . S
H2187 C2196 0.950 . S
H2188 C2198 0.950 . S
H2189 C2200 0.950 . S
H2190 C2202 0.950 . S
H2191 C2203 0.950 . S
C2192 H2184 0.950 . S
C2192 C2193 1.386 . S
C2192 C2194 1.391 . S
C2193 C2192 1.386 . S
C2193 C2197 1.393 . S
C2194 H2186 0.950 . S
C2194 C2192 1.391 . S
C2194 C2195 1.400 . S
C2195 C2194 1.400 . S
C2195 C2196 1.398 . S
C2195 C2201 1.491 . S
C2196 H2187 0.950 . S
C2196 C2195 1.398 . S
C2196 C2197 1.391 . S
C2197 H2185 0.950 . S
C2197 C2193 1.393 . S
C2197 C2196 1.391 . S
C2198 H2188 0.950 . S
C2198 C2199 1.386 . S
C2198 C2200 1.391 . S
C2199 C2198 1.386 . S
C2199 C2203 1.393 . S
C2200 H2189 0.950 . S
C2200 C2198 1.391 . S
C2200 C2201 1.400 . S
C2201 C2195 1.491 . S
C2201 C2200 1.400 . S
C2201 C2202 1.398 . S
C2202 H2190 0.950 . S
C2202 C2201 1.398 . S
C2202 C2203 1.391 . S
C2203 H2191 0.950 . S
C2203 C2199 1.393 . S
C2203 C2202 1.391 . S
H2204 C2212 0.950 . S
H2205 C2217 0.950 . S
H2206 C2214 0.950 . S
H2207 C2216 0.950 . S
H2208 C2218 0.950 . S
H2209 C2220 0.950 . S
H2210 C2222 0.950 . S
H2211 C2223 0.950 . S
C2212 H2204 0.950 . S
C2212 C2213 1.386 . S
C2212 C2214 1.391 . S
C2213 C2212 1.386 . S
C2213 C2217 1.393 . S
C2214 H2206 0.950 . S
C2214 C2212 1.391 . S
C2214 C2215 1.400 . S
C2215 C2214 1.400 . S
C2215 C2216 1.398 . S
C2215 C2221 1.491 . S
C2216 H2207 0.950 . S
C2216 C2215 1.398 . S
C2216 C2217 1.391 . S
C2217 H2205 0.950 . S
C2217 C2213 1.393 . S
C2217 C2216 1.391 . S
C2218 H2208 0.950 . S
C2218 C2219 1.386 . S
C2218 C2220 1.391 . S
C2219 C2218 1.386 . S
C2219 C2223 1.393 . S
C2220 H2209 0.950 . S
C2220 C2218 1.391 . S
C2220 C2221 1.400 . S
C2221 C2215 1.491 . S
C2221 C2220 1.400 . S
C2221 C2222 1.398 . S
C2222 H2210 0.950 . S
C2222 C2221 1.398 . S
C2222 C2223 1.391 . S
C2223 H2211 0.950 . S
C2223 C2219 1.393 . S
C2223 C2222 1.391 . S
H2224 C2232 0.950 . S
H2225 C2237 0.950 . S
H2226 C2234 0.950 . S
H2227 C2236 0.950 . S
H2228 C2238 0.950 . S
H2229 C2240 0.950 . S
H2230 C2242 0.950 . S
H2231 C2243 0.950 . S
C2232 H2224 0.950 . S
C2232 C2233 1.386 . S
C2232 C2234 1.391 . S
C2233 C2232 1.386 . S
C2233 C2237 1.393 . S
C2234 H2226 0.950 . S
C2234 C2232 1.391 . S
C2234 C2235 1.400 . S
C2235 C2234 1.400 . S
C2235 C2236 1.398 . S
C2235 C2241 1.491 . S
C2236 H2227 0.950 . S
C2236 C2235 1.398 . S
C2236 C2237 1.391 . S
C2237 H2225 0.950 . S
C2237 C2233 1.393 . S
C2237 C2236 1.391 . S
C2238 H2228 0.950 . S
C2238 C2239 1.386 . S
C2238 C2240 1.391 . S
C2239 C2238 1.386 . S
C2239 C2243 1.393 . S
C2240 H2229 0.950 . S
C2240 C2238 1.391 . S
C2240 C2241 1.400 . S
C2241 C2235 1.491 . S
C2241 C2240 1.400 . S
C2241 C2242 1.398 . S
C2242 H2230 0.950 . S
C2242 C2241 1.398 . S
C2242 C2243 1.391 . S
C2243 H2231 0.950 . S
C2243 C2239 1.393 . S
C2243 C2242 1.391 . S
H2244 C2252 0.950 . S
H2245 C2257 0.950 . S
H2246 C2254 0.950 . S
H2247 C2256 0.950 . S
H2248 C2258 0.950 . S
H2249 C2260 0.950 . S
H2250 C2262 0.950 . S
H2251 C2263 0.950 . S
C2252 H2244 0.950 . S
C2252 C2253 1.386 . S
C2252 C2254 1.391 . S
C2253 C2252 1.386 . S
C2253 C2257 1.393 . S
C2254 H2246 0.950 . S
C2254 C2252 1.391 . S
C2254 C2255 1.400 . S
C2255 C2254 1.400 . S
C2255 C2256 1.398 . S
C2255 C2261 1.491 . S
C2256 H2247 0.950 . S
C2256 C2255 1.398 . S
C2256 C2257 1.391 . S
C2257 H2245 0.950 . S
C2257 C2253 1.393 . S
C2257 C2256 1.391 . S
C2258 H2248 0.950 . S
C2258 C2259 1.386 . S
C2258 C2260 1.391 . S
C2259 C2258 1.386 . S
C2259 C2263 1.393 . S
C2260 H2249 0.950 . S
C2260 C2258 1.391 . S
C2260 C2261 1.400 . S
C2261 C2255 1.491 . S
C2261 C2260 1.400 . S
C2261 C2262 1.398 . S
C2262 H2250 0.950 . S
C2262 C2261 1.398 . S
C2262 C2263 1.391 . S
C2263 H2251 0.950 . S
C2263 C2259 1.393 . S
C2263 C2262 1.391 . S
H2264 C2272 0.950 . S
H2265 C2277 0.950 . S
H2266 C2274 0.950 . S
H2267 C2276 0.950 . S
H2268 C2278 0.950 . S
H2269 C2280 0.950 . S
H2270 C2282 0.950 . S
H2271 C2283 0.950 . S
C2272 H2264 0.950 . S
C2272 C2273 1.386 . S
C2272 C2274 1.391 . S
C2273 C2272 1.386 . S
C2273 C2277 1.393 . S
C2274 H2266 0.950 . S
C2274 C2272 1.391 . S
C2274 C2275 1.400 . S
C2275 C2274 1.400 . S
C2275 C2276 1.398 . S
C2275 C2281 1.491 . S
C2276 H2267 0.950 . S
C2276 C2275 1.398 . S
C2276 C2277 1.391 . S
C2277 H2265 0.950 . S
C2277 C2273 1.393 . S
C2277 C2276 1.391 . S
C2278 H2268 0.950 . S
C2278 C2279 1.386 . S
C2278 C2280 1.391 . S
C2279 C2278 1.386 . S
C2279 C2283 1.393 . S
C2280 H2269 0.950 . S
C2280 C2278 1.391 . S
C2280 C2281 1.400 . S
C2281 C2275 1.491 . S
C2281 C2280 1.400 . S
C2281 C2282 1.398 . S
C2282 H2270 0.950 . S
C2282 C2281 1.398 . S
C2282 C2283 1.391 . S
C2283 H2271 0.950 . S
C2283 C2279 1.393 . S
C2283 C2282 1.391 . S
H2284 C2292 0.950 . S
H2285 C2297 0.950 . S
H2286 C2294 0.950 . S
H2287 C2296 0.950 . S
H2288 C2298 0.950 . S
H2289 C2300 0.950 . S
H2290 C2302 0.950 . S
H2291 C2303 0.950 . S
C2292 H2284 0.950 . S
C2292 C2293 1.386 . S
C2292 C2294 1.391 . S
C2293 C2292 1.386 . S
C2293 C2297 1.393 . S
C2294 H2286 0.950 . S
C2294 C2292 1.391 . S
C2294 C2295 1.400 . S
C2295 C2294 1.400 . S
C2295 C2296 1.398 . S
C2295 C2301 1.491 . S
C2296 H2287 0.950 . S
C2296 C2295 1.398 . S
C2296 C2297 1.391 . S
C2297 H2285 0.950 . S
C2297 C2293 1.393 . S
C2297 C2296 1.391 . S
C2298 H2288 0.950 . S
C2298 C2299 1.386 . S
C2298 C2300 1.391 . S
C2299 C2298 1.386 . S
C2299 C2303 1.393 . S
C2300 H2289 0.950 . S
C2300 C2298 1.391 . S
C2300 C2301 1.400 . S
C2301 C2295 1.491 . S
C2301 C2300 1.400 . S
C2301 C2302 1.398 . S
C2302 H2290 0.950 . S
C2302 C2301 1.398 . S
C2302 C2303 1.391 . S
C2303 H2291 0.950 . S
C2303 C2299 1.393 . S
C2303 C2302 1.391 . S
H2304 C2312 0.950 . S
H2305 C2317 0.950 . S
H2306 C2314 0.950 . S
H2307 C2316 0.950 . S
H2308 C2318 0.950 . S
H2309 C2320 0.950 . S
H2310 C2322 0.950 . S
H2311 C2323 0.950 . S
C2312 H2304 0.950 . S
C2312 C2313 1.386 1_455 S
C2312 C2314 1.391 . S
C2313 C2312 1.386 1_655 S
C2313 C2317 1.393 . S
C2314 H2306 0.950 . S
C2314 C2312 1.391 . S
C2314 C2315 1.400 1_455 S
C2315 C2314 1.400 1_655 S
C2315 C2316 1.398 . S
C2315 C2321 1.491 . S
C2316 H2307 0.950 . S
C2316 C2315 1.398 . S
C2316 C2317 1.391 . S
C2317 H2305 0.950 . S
C2317 C2313 1.393 . S
C2317 C2316 1.391 . S
C2318 H2308 0.950 . S
C2318 C2319 1.386 . S
C2318 C2320 1.391 . S
C2319 C2318 1.386 . S
C2319 C2323 1.393 1_655 S
C2320 H2309 0.950 . S
C2320 C2318 1.391 . S
C2320 C2321 1.400 . S
C2321 C2315 1.491 . S
C2321 C2320 1.400 . S
C2321 C2322 1.398 1_655 S
C2322 H2310 0.950 . S
C2322 C2321 1.398 1_455 S
C2322 C2323 1.391 . S
C2323 H2311 0.950 . S
C2323 C2319 1.393 1_455 S
C2323 C2322 1.391 . S
H2324 C2332 0.950 . S
H2325 C2337 0.950 . S
H2326 C2334 0.950 . S
H2327 C2336 0.950 . S
H2328 C2338 0.950 . S
H2329 C2340 0.950 . S
H2330 C2342 0.950 . S
H2331 C2343 0.950 . S
C2332 H2324 0.950 . S
C2332 C2333 1.386 . S
C2332 C2334 1.391 . S
C2333 C2332 1.386 . S
C2333 C2337 1.393 . S
C2334 H2326 0.950 . S
C2334 C2332 1.391 . S
C2334 C2335 1.400 . S
C2335 C2334 1.400 . S
C2335 C2336 1.398 . S
C2335 C2341 1.491 . S
C2336 H2327 0.950 . S
C2336 C2335 1.398 . S
C2336 C2337 1.391 . S
C2337 H2325 0.950 . S
C2337 C2333 1.393 . S
C2337 C2336 1.391 . S
C2338 H2328 0.950 . S
C2338 C2339 1.386 . S
C2338 C2340 1.391 . S
C2339 C2338 1.386 . S
C2339 C2343 1.393 . S
C2340 H2329 0.950 . S
C2340 C2338 1.391 . S
C2340 C2341 1.400 . S
C2341 C2335 1.491 . S
C2341 C2340 1.400 . S
C2341 C2342 1.398 . S
C2342 H2330 0.950 . S
C2342 C2341 1.398 . S
C2342 C2343 1.391 . S
C2343 H2331 0.950 . S
C2343 C2339 1.393 . S
C2343 C2342 1.391 . S
H2344 C2352 0.950 . S
H2345 C2357 0.950 . S
H2346 C2354 0.950 . S
H2347 C2356 0.950 . S
H2348 C2358 0.950 . S
H2349 C2360 0.950 . S
H2350 C2362 0.950 . S
H2351 C2363 0.950 . S
C2352 H2344 0.950 . S
C2352 C2353 1.386 . S
C2352 C2354 1.391 . S
C2353 C2352 1.386 . S
C2353 C2357 1.393 . S
C2354 H2346 0.950 . S
C2354 C2352 1.391 . S
C2354 C2355 1.400 . S
C2355 C2354 1.400 . S
C2355 C2356 1.398 . S
C2355 C2361 1.491 . S
C2356 H2347 0.950 . S
C2356 C2355 1.398 . S
C2356 C2357 1.391 . S
C2357 H2345 0.950 . S
C2357 C2353 1.393 . S
C2357 C2356 1.391 . S
C2358 H2348 0.950 . S
C2358 C2359 1.386 . S
C2358 C2360 1.391 . S
C2359 C2358 1.386 . S
C2359 C2363 1.393 . S
C2360 H2349 0.950 . S
C2360 C2358 1.391 . S
C2360 C2361 1.400 . S
C2361 C2355 1.491 . S
C2361 C2360 1.400 . S
C2361 C2362 1.398 . S
C2362 H2350 0.950 . S
C2362 C2361 1.398 . S
C2362 C2363 1.391 . S
C2363 H2351 0.950 . S
C2363 C2359 1.393 . S
C2363 C2362 1.391 . S
H2364 C2372 0.950 1_545 S
H2365 C2377 0.950 . S
H2366 C2374 0.950 1_545 S
H2367 C2376 0.950 . S
H2368 C2378 0.950 . S
H2369 C2380 0.950 . S
H2370 C2382 0.950 1_545 S
H2371 C2383 0.950 1_545 S
C2372 H2364 0.950 1_565 S
C2372 C2373 1.386 . S
C2372 C2374 1.391 . S
C2373 C2372 1.386 . S
C2373 C2377 1.393 . S
C2374 H2366 0.950 1_565 S
C2374 C2372 1.391 . S
C2374 C2375 1.400 . S
C2375 C2374 1.400 . S
C2375 C2376 1.398 . S
C2375 C2381 1.491 . S
C2376 H2367 0.950 . S
C2376 C2375 1.398 . S
C2376 C2377 1.391 . S
C2377 H2365 0.950 . S
C2377 C2373 1.393 . S
C2377 C2376 1.391 . S
C2378 H2368 0.950 . S
C2378 C2379 1.386 . S
C2378 C2380 1.391 . S
C2379 C2378 1.386 . S
C2379 C2383 1.393 . S
C2380 H2369 0.950 . S
C2380 C2378 1.391 . S
C2380 C2381 1.400 . S
C2381 C2375 1.491 . S
C2381 C2380 1.400 . S
C2381 C2382 1.398 . S
C2382 H2370 0.950 1_565 S
C2382 C2381 1.398 . S
C2382 C2383 1.391 . S
C2383 H2371 0.950 1_565 S
C2383 C2379 1.393 . S
C2383 C2382 1.391 . S
H2384 C2392 0.950 . S
H2385 C2397 0.950 . S
H2386 C2394 0.950 . S
H2387 C2396 0.950 . S
H2388 C2398 0.950 . S
H2389 C2400 0.950 . S
H2390 C2402 0.950 . S
H2391 C2403 0.950 . S
C2392 H2384 0.950 . S
C2392 C2393 1.386 . S
C2392 C2394 1.391 . S
C2393 C2392 1.386 . S
C2393 C2397 1.393 . S
C2394 H2386 0.950 . S
C2394 C2392 1.391 . S
C2394 C2395 1.400 . S
C2395 C2394 1.400 . S
C2395 C2396 1.398 . S
C2395 C2401 1.491 . S
C2396 H2387 0.950 . S
C2396 C2395 1.398 . S
C2396 C2397 1.391 . S
C2397 H2385 0.950 . S
C2397 C2393 1.393 . S
C2397 C2396 1.391 . S
C2398 H2388 0.950 . S
C2398 C2399 1.386 . S
C2398 C2400 1.391 . S
C2399 C2398 1.386 . S
C2399 C2403 1.393 . S
C2400 H2389 0.950 . S
C2400 C2398 1.391 . S
C2400 C2401 1.400 . S
C2401 C2395 1.491 . S
C2401 C2400 1.400 . S
C2401 C2402 1.398 . S
C2402 H2390 0.950 . S
C2402 C2401 1.398 . S
C2402 C2403 1.391 . S
C2403 H2391 0.950 . S
C2403 C2399 1.393 . S
C2403 C2402 1.391 . S
H2404 C2412 0.950 . S
H2405 C2417 0.950 . S
H2406 C2414 0.950 . S
H2407 C2416 0.950 . S
H2408 C2418 0.950 . S
H2409 C2420 0.950 . S
H2410 C2422 0.950 . S
H2411 C2423 0.950 . S
C2412 H2404 0.950 . S
C2412 C2413 1.386 . S
C2412 C2414 1.391 . S
C2413 C2412 1.386 . S
C2413 C2417 1.393 . S
C2414 H2406 0.950 . S
C2414 C2412 1.391 . S
C2414 C2415 1.400 . S
C2415 C2414 1.400 . S
C2415 C2416 1.398 . S
C2415 C2421 1.491 . S
C2416 H2407 0.950 . S
C2416 C2415 1.398 . S
C2416 C2417 1.391 . S
C2417 H2405 0.950 . S
C2417 C2413 1.393 . S
C2417 C2416 1.391 . S
C2418 H2408 0.950 . S
C2418 C2419 1.386 . S
C2418 C2420 1.391 . S
C2419 C2418 1.386 . S
C2419 C2423 1.393 . S
C2420 H2409 0.950 . S
C2420 C2418 1.391 . S
C2420 C2421 1.400 . S
C2421 C2415 1.491 . S
C2421 C2420 1.400 . S
C2421 C2422 1.398 . S
C2422 H2410 0.950 . S
C2422 C2421 1.398 . S
C2422 C2423 1.391 . S
C2423 H2411 0.950 . S
C2423 C2419 1.393 . S
C2423 C2422 1.391 . S
H2424 C2432 0.950 . S
H2425 C2437 0.950 . S
H2426 C2434 0.950 . S
H2427 C2436 0.950 . S
H2428 C2438 0.950 . S
H2429 C2440 0.950 . S
H2430 C2442 0.950 . S
H2431 C2443 0.950 . S
C2432 H2424 0.950 . S
C2432 C2433 1.386 . S
C2432 C2434 1.391 . S
C2433 C2432 1.386 . S
C2433 C2437 1.393 . S
C2434 H2426 0.950 . S
C2434 C2432 1.391 . S
C2434 C2435 1.400 . S
C2435 C2434 1.400 . S
C2435 C2436 1.398 . S
C2435 C2441 1.491 . S
C2436 H2427 0.950 . S
C2436 C2435 1.398 . S
C2436 C2437 1.391 . S
C2437 H2425 0.950 . S
C2437 C2433 1.393 . S
C2437 C2436 1.391 . S
C2438 H2428 0.950 . S
C2438 C2439 1.386 . S
C2438 C2440 1.391 . S
C2439 C2438 1.386 . S
C2439 C2443 1.393 . S
C2440 H2429 0.950 . S
C2440 C2438 1.391 . S
C2440 C2441 1.400 . S
C2441 C2435 1.491 . S
C2441 C2440 1.400 . S
C2441 C2442 1.398 . S
C2442 H2430 0.950 . S
C2442 C2441 1.398 . S
C2442 C2443 1.391 . S
C2443 H2431 0.950 . S
C2443 C2439 1.393 . S
C2443 C2442 1.391 . S
H2444 C2452 0.950 . S
H2445 C2457 0.950 . S
H2446 C2454 0.950 . S
H2447 C2456 0.950 . S
H2448 C2458 0.950 . S
H2449 C2460 0.950 . S
H2450 C2462 0.950 . S
H2451 C2463 0.950 . S
C2452 H2444 0.950 . S
C2452 C2453 1.386 . S
C2452 C2454 1.391 . S
C2453 C2452 1.386 . S
C2453 C2457 1.393 . S
C2454 H2446 0.950 . S
C2454 C2452 1.391 . S
C2454 C2455 1.400 . S
C2455 C2454 1.400 . S
C2455 C2456 1.398 . S
C2455 C2461 1.491 . S
C2456 H2447 0.950 . S
C2456 C2455 1.398 . S
C2456 C2457 1.391 . S
C2457 H2445 0.950 . S
C2457 C2453 1.393 . S
C2457 C2456 1.391 . S
C2458 H2448 0.950 . S
C2458 C2459 1.386 . S
C2458 C2460 1.391 . S
C2459 C2458 1.386 . S
C2459 C2463 1.393 . S
C2460 H2449 0.950 . S
C2460 C2458 1.391 . S
C2460 C2461 1.400 . S
C2461 C2455 1.491 . S
C2461 C2460 1.400 . S
C2461 C2462 1.398 . S
C2462 H2450 0.950 . S
C2462 C2461 1.398 . S
C2462 C2463 1.391 . S
C2463 H2451 0.950 . S
C2463 C2459 1.393 . S
C2463 C2462 1.391 . S
H2464 C2472 0.950 . S
H2465 C2477 0.950 . S
H2466 C2474 0.950 . S
H2467 C2476 0.950 . S
H2468 C2478 0.950 . S
H2469 C2480 0.950 . S
H2470 C2482 0.950 . S
H2471 C2483 0.950 . S
C2472 H2464 0.950 . S
C2472 C2473 1.386 . S
C2472 C2474 1.391 . S
C2473 C2472 1.386 . S
C2473 C2477 1.393 . S
C2474 H2466 0.950 . S
C2474 C2472 1.391 . S
C2474 C2475 1.400 . S
C2475 C2474 1.400 . S
C2475 C2476 1.398 . S
C2475 C2481 1.491 . S
C2476 H2467 0.950 . S
C2476 C2475 1.398 . S
C2476 C2477 1.391 . S
C2477 H2465 0.950 . S
C2477 C2473 1.393 . S
C2477 C2476 1.391 . S
C2478 H2468 0.950 . S
C2478 C2479 1.386 . S
C2478 C2480 1.391 . S
C2479 C2478 1.386 . S
C2479 C2483 1.393 . S
C2480 H2469 0.950 . S
C2480 C2478 1.391 . S
C2480 C2481 1.400 . S
C2481 C2475 1.491 . S
C2481 C2480 1.400 . S
C2481 C2482 1.398 . S
C2482 H2470 0.950 . S
C2482 C2481 1.398 . S
C2482 C2483 1.391 . S
C2483 H2471 0.950 . S
C2483 C2479 1.393 . S
C2483 C2482 1.391 . S
H2484 C2492 0.950 . S
H2485 C2497 0.950 . S
H2486 C2494 0.950 . S
H2487 C2496 0.950 . S
H2488 C2498 0.950 . S
H2489 C2500 0.950 . S
H2490 C2502 0.950 . S
H2491 C2503 0.950 . S
C2492 H2484 0.950 . S
C2492 C2493 1.386 1_655 S
C2492 C2494 1.391 . S
C2493 C2492 1.386 1_455 S
C2493 C2497 1.393 . S
C2494 H2486 0.950 . S
C2494 C2492 1.391 . S
C2494 C2495 1.400 1_655 S
C2495 C2494 1.400 1_455 S
C2495 C2496 1.398 . S
C2495 C2501 1.491 . S
C2496 H2487 0.950 . S
C2496 C2495 1.398 . S
C2496 C2497 1.391 . S
C2497 H2485 0.950 . S
C2497 C2493 1.393 . S
C2497 C2496 1.391 . S
C2498 H2488 0.950 . S
C2498 C2499 1.412 . S
C2498 C2500 1.391 . S
C2499 C2498 1.412 . S
C2499 C2503 1.371 1_455 S
C2500 H2489 0.950 . S
C2500 C2498 1.391 . S
C2500 C2501 1.400 . S
C2501 C2495 1.491 . S
C2501 C2500 1.400 . S
C2501 C2502 1.398 1_455 S
C2502 H2490 0.950 . S
C2502 C2501 1.398 1_655 S
C2502 C2503 1.391 . S
C2503 H2491 0.950 . S
C2503 C2499 1.371 1_655 S
C2503 C2502 1.391 . S
H2504 C2512 0.950 . S
H2505 C2517 0.950 . S
H2506 C2514 0.950 . S
H2507 C2516 0.950 . S
H2508 C2518 0.950 . S
H2509 C2520 0.950 . S
H2510 C2522 0.950 . S
H2511 C2523 0.950 . S
C2512 H2504 0.950 . S
C2512 C2513 1.386 . S
C2512 C2514 1.391 . S
C2513 C2512 1.386 . S
C2513 C2517 1.393 . S
C2514 H2506 0.950 . S
C2514 C2512 1.391 . S
C2514 C2515 1.400 . S
C2515 C2514 1.400 . S
C2515 C2516 1.398 . S
C2515 C2521 1.491 . S
C2516 H2507 0.950 . S
C2516 C2515 1.398 . S
C2516 C2517 1.391 . S
C2517 H2505 0.950 . S
C2517 C2513 1.393 . S
C2517 C2516 1.391 . S
C2518 H2508 0.950 . S
C2518 C2519 1.386 . S
C2518 C2520 1.391 . S
C2519 C2518 1.386 . S
C2519 C2523 1.393 . S
C2520 H2509 0.950 . S
C2520 C2518 1.391 . S
C2520 C2521 1.400 . S
C2521 C2515 1.491 . S
C2521 C2520 1.400 . S
C2521 C2522 1.398 . S
C2522 H2510 0.950 . S
C2522 C2521 1.398 . S
C2522 C2523 1.391 . S
C2523 H2511 0.950 . S
C2523 C2519 1.393 . S
C2523 C2522 1.391 . S
H2524 C2532 0.950 . S
H2525 C2537 0.950 . S
H2526 C2534 0.950 . S
H2527 C2536 0.950 . S
H2528 C2538 0.950 . S
H2529 C2540 0.950 . S
H2530 C2542 0.950 . S
H2531 C2543 0.950 . S
C2532 H2524 0.950 . S
C2532 C2533 1.386 . S
C2532 C2534 1.391 . S
C2533 C2532 1.386 . S
C2533 C2537 1.393 . S
C2534 H2526 0.950 . S
C2534 C2532 1.391 . S
C2534 C2535 1.400 . S
C2535 C2534 1.400 . S
C2535 C2536 1.398 . S
C2535 C2541 1.491 . S
C2536 H2527 0.950 . S
C2536 C2535 1.398 . S
C2536 C2537 1.391 . S
C2537 H2525 0.950 . S
C2537 C2533 1.393 . S
C2537 C2536 1.391 . S
C2538 H2528 0.950 . S
C2538 C2539 1.386 . S
C2538 C2540 1.391 . S
C2539 C2538 1.386 . S
C2539 C2543 1.393 . S
C2540 H2529 0.950 . S
C2540 C2538 1.391 . S
C2540 C2541 1.400 . S
C2541 C2535 1.491 . S
C2541 C2540 1.400 . S
C2541 C2542 1.398 . S
C2542 H2530 0.950 . S
C2542 C2541 1.398 . S
C2542 C2543 1.391 . S
C2543 H2531 0.950 . S
C2543 C2539 1.393 . S
C2543 C2542 1.391 . S
H2544 C2552 0.950 . S
H2545 C2557 0.950 . S
H2546 C2554 0.950 . S
H2547 C2556 0.950 . S
H2548 C2558 0.950 . S
H2549 C2560 0.950 . S
H2550 C2562 0.950 . S
H2551 C2563 0.950 . S
C2552 H2544 0.950 . S
C2552 C2553 1.386 1_565 S
C2552 C2554 1.391 . S
C2553 C2552 1.386 1_545 S
C2553 C2557 1.393 . S
C2554 H2546 0.950 . S
C2554 C2552 1.391 . S
C2554 C2555 1.400 1_565 S
C2555 C2554 1.400 1_545 S
C2555 C2556 1.398 . S
C2555 C2561 1.491 . S
C2556 H2547 0.950 . S
C2556 C2555 1.398 . S
C2556 C2557 1.391 . S
C2557 H2545 0.950 . S
C2557 C2553 1.393 . S
C2557 C2556 1.391 . S
C2558 H2548 0.950 . S
C2558 C2559 1.380 1_545 S
C2558 C2560 1.391 . S
C2559 C2558 1.380 1_565 S
C2559 C2563 1.394 . S
C2560 H2549 0.950 . S
C2560 C2558 1.391 . S
C2560 C2561 1.400 . S
C2561 C2555 1.491 . S
C2561 C2560 1.400 . S
C2561 C2562 1.398 1_545 S
C2562 H2550 0.950 . S
C2562 C2561 1.398 1_565 S
C2562 C2563 1.391 . S
C2563 H2551 0.950 . S
C2563 C2559 1.394 . S
C2563 C2562 1.391 . S
H2564 C2572 0.950 . S
H2565 C2577 0.950 . S
H2566 C2574 0.950 . S
H2567 C2576 0.950 . S
H2568 C2578 0.950 . S
H2569 C2580 0.950 . S
H2570 C2582 0.950 . S
H2571 C2583 0.950 . S
C2572 H2564 0.950 . S
C2572 C2573 1.386 . S
C2572 C2574 1.391 . S
C2573 C2572 1.386 . S
C2573 C2577 1.393 . S
C2574 H2566 0.950 . S
C2574 C2572 1.391 . S
C2574 C2575 1.400 . S
C2575 C2574 1.400 . S
C2575 C2576 1.398 . S
C2575 C2581 1.491 . S
C2576 H2567 0.950 . S
C2576 C2575 1.398 . S
C2576 C2577 1.391 . S
C2577 H2565 0.950 . S
C2577 C2573 1.393 . S
C2577 C2576 1.391 . S
C2578 H2568 0.950 . S
C2578 C2579 1.386 . S
C2578 C2580 1.391 . S
C2579 C2578 1.386 . S
C2579 C2583 1.393 . S
C2580 H2569 0.950 . S
C2580 C2578 1.391 . S
C2580 C2581 1.400 . S
C2581 C2575 1.491 . S
C2581 C2580 1.400 . S
C2581 C2582 1.398 . S
C2582 H2570 0.950 . S
C2582 C2581 1.398 . S
C2582 C2583 1.391 . S
C2583 H2571 0.950 . S
C2583 C2579 1.393 . S
C2583 C2582 1.391 . S
H2584 C2592 0.950 . S
H2585 C2597 0.950 . S
H2586 C2594 0.950 . S
H2587 C2596 0.950 . S
H2588 C2598 0.950 . S
H2589 C2600 0.950 . S
H2590 C2602 0.950 . S
H2591 C2603 0.950 . S
C2592 H2584 0.950 . S
C2592 C2593 1.386 . S
C2592 C2594 1.391 . S
C2593 C2592 1.386 . S
C2593 C2597 1.393 . S
C2594 H2586 0.950 . S
C2594 C2592 1.391 . S
C2594 C2595 1.400 . S
C2595 C2594 1.400 . S
C2595 C2596 1.398 . S
C2595 C2601 1.491 . S
C2596 H2587 0.950 . S
C2596 C2595 1.398 . S
C2596 C2597 1.391 . S
C2597 H2585 0.950 . S
C2597 C2593 1.393 . S
C2597 C2596 1.391 . S
C2598 H2588 0.950 . S
C2598 C2599 1.386 . S
C2598 C2600 1.391 . S
C2599 C2598 1.386 . S
C2599 C2603 1.393 . S
C2600 H2589 0.950 . S
C2600 C2598 1.391 . S
C2600 C2601 1.400 . S
C2601 C2595 1.491 . S
C2601 C2600 1.400 . S
C2601 C2602 1.398 . S
C2602 H2590 0.950 . S
C2602 C2601 1.398 . S
C2602 C2603 1.391 . S
C2603 H2591 0.950 . S
C2603 C2599 1.393 . S
C2603 C2602 1.391 . S
H2604 C2612 0.950 1_655 S
H2605 C2617 0.950 . S
H2606 C2614 0.950 . S
H2607 C2616 0.950 . S
H2608 C2618 0.950 . S
H2609 C2620 0.950 . S
H2610 C2622 0.950 . S
H2611 C2623 0.950 . S
C2612 H2604 0.950 1_455 S
C2612 C2613 1.386 . S
C2612 C2614 1.391 . S
C2613 C2612 1.386 . S
C2613 C2617 1.393 . S
C2614 H2606 0.950 . S
C2614 C2612 1.391 . S
C2614 C2615 1.400 . S
C2615 C2614 1.400 . S
C2615 C2616 1.398 . S
C2615 C2621 1.491 . S
C2616 H2607 0.950 . S
C2616 C2615 1.398 . S
C2616 C2617 1.391 . S
C2617 H2605 0.950 . S
C2617 C2613 1.393 . S
C2617 C2616 1.391 . S
C2618 H2608 0.950 . S
C2618 C2619 1.386 . S
C2618 C2620 1.391 . S
C2619 C2618 1.386 . S
C2619 C2623 1.393 . S
C2620 H2609 0.950 . S
C2620 C2618 1.391 . S
C2620 C2621 1.400 . S
C2621 C2615 1.491 . S
C2621 C2620 1.400 . S
C2621 C2622 1.398 . S
C2622 H2610 0.950 . S
C2622 C2621 1.398 . S
C2622 C2623 1.391 . S
C2623 H2611 0.950 . S
C2623 C2619 1.393 . S
C2623 C2622 1.391 . S
H2624 C2632 0.950 . S
H2625 C2637 0.950 . S
H2626 C2634 0.950 . S
H2627 C2636 0.950 . S
H2628 C2638 0.950 . S
H2629 C2640 0.950 . S
H2630 C2642 0.950 . S
H2631 C2643 0.950 . S
C2632 H2624 0.950 . S
C2632 C2633 1.386 . S
C2632 C2634 1.391 . S
C2633 C2632 1.386 . S
C2633 C2637 1.393 . S
C2634 H2626 0.950 . S
C2634 C2632 1.391 . S
C2634 C2635 1.400 . S
C2635 C2634 1.400 . S
C2635 C2636 1.398 . S
C2635 C2641 1.491 . S
C2636 H2627 0.950 . S
C2636 C2635 1.398 . S
C2636 C2637 1.391 . S
C2637 H2625 0.950 . S
C2637 C2633 1.393 . S
C2637 C2636 1.391 . S
C2638 H2628 0.950 . S
C2638 C2639 1.386 . S
C2638 C2640 1.391 . S
C2639 C2638 1.386 . S
C2639 C2643 1.393 . S
C2640 H2629 0.950 . S
C2640 C2638 1.391 . S
C2640 C2641 1.400 . S
C2641 C2635 1.491 . S
C2641 C2640 1.400 . S
C2641 C2642 1.398 . S
C2642 H2630 0.950 . S
C2642 C2641 1.398 . S
C2642 C2643 1.391 . S
C2643 H2631 0.950 . S
C2643 C2639 1.393 . S
C2643 C2642 1.391 . S
H2644 C2652 0.950 . S
H2645 C2657 0.950 . S
H2646 C2654 0.950 . S
H2647 C2656 0.950 . S
H2648 C2658 0.960 . S
H2649 C2660 0.950 . S
H2650 C2662 0.950 . S
H2651 C2663 0.950 . S
C2652 H2644 0.950 . S
C2652 C2653 1.386 . S
C2652 C2654 1.391 . S
C2653 C2652 1.386 . S
C2653 C2657 1.393 . S
C2654 H2646 0.950 . S
C2654 C2652 1.391 . S
C2654 C2655 1.400 . S
C2655 C2654 1.400 . S
C2655 C2656 1.398 . S
C2655 C2661 1.491 . S
C2656 H2647 0.950 . S
C2656 C2655 1.398 . S
C2656 C2657 1.391 . S
C2657 H2645 0.950 . S
C2657 C2653 1.393 . S
C2657 C2656 1.391 . S
C2658 H2648 0.960 . S
C2658 C2659 1.393 . S
C2658 C2660 1.391 1_565 S
C2659 C2658 1.393 . S
C2659 C2663 1.377 1_565 S
C2660 H2649 0.950 . S
C2660 C2658 1.391 1_545 S
C2660 C2661 1.400 . S
C2661 C2655 1.491 . S
C2661 C2660 1.400 . S
C2661 C2662 1.398 . S
C2662 H2650 0.950 . S
C2662 C2661 1.398 . S
C2662 C2663 1.391 . S
C2663 H2651 0.950 . S
C2663 C2659 1.377 1_545 S
C2663 C2662 1.391 . S
H2664 C2672 0.934 1_565 S
H2665 C2677 0.950 . S
H2666 C2674 0.950 . S
H2667 C2676 0.950 . S
H2668 C2678 0.950 . S
H2669 C2680 0.950 . S
H2670 C2682 0.950 . S
H2671 C2683 0.950 . S
C2672 H2664 0.934 1_545 S
C2672 C2673 1.386 . S
C2672 C2674 1.391 . S
C2673 C2672 1.386 . S
C2673 C2677 1.393 . S
C2674 H2666 0.950 . S
C2674 C2672 1.391 . S
C2674 C2675 1.400 . S
C2675 C2674 1.400 . S
C2675 C2676 1.398 . S
C2675 C2681 1.491 . S
C2676 H2667 0.950 . S
C2676 C2675 1.398 . S
C2676 C2677 1.391 . S
C2677 H2665 0.950 . S
C2677 C2673 1.393 . S
C2677 C2676 1.391 . S
C2678 H2668 0.950 . S
C2678 C2679 1.386 . S
C2678 C2680 1.391 . S
C2679 C2678 1.386 . S
C2679 C2683 1.393 . S
C2680 H2669 0.950 . S
C2680 C2678 1.391 . S
C2680 C2681 1.400 . S
C2681 C2675 1.491 . S
C2681 C2680 1.400 . S
C2681 C2682 1.398 . S
C2682 H2670 0.950 . S
C2682 C2681 1.398 . S
C2682 C2683 1.391 . S
C2683 H2671 0.950 . S
C2683 C2679 1.393 . S
C2683 C2682 1.391 . S
H2684 C2692 0.950 . S
H2685 C2697 0.950 . S
H2686 C2694 0.950 . S
H2687 C2696 0.950 . S
H2688 C2698 0.950 . S
H2689 C2700 0.950 . S
H2690 C2702 0.950 . S
H2691 C2703 0.950 . S
C2692 H2684 0.950 . S
C2692 C2693 1.386 . S
C2692 C2694 1.391 . S
C2693 C2692 1.386 . S
C2693 C2697 1.393 1_455 S
C2694 H2686 0.950 . S
C2694 C2692 1.391 . S
C2694 C2695 1.400 . S
C2695 C2694 1.400 . S
C2695 C2696 1.398 1_455 S
C2695 C2701 1.491 . S
C2696 H2687 0.950 . S
C2696 C2695 1.398 1_655 S
C2696 C2697 1.391 . S
C2697 H2685 0.950 . S
C2697 C2693 1.393 1_655 S
C2697 C2696 1.391 . S
C2698 H2688 0.950 . S
C2698 C2699 1.390 . S
C2698 C2700 1.391 . S
C2699 C2698 1.390 . S
C2699 C2703 1.389 1_655 S
C2700 H2689 0.950 . S
C2700 C2698 1.391 . S
C2700 C2701 1.400 1_655 S
C2701 C2695 1.491 . S
C2701 C2700 1.400 1_455 S
C2701 C2702 1.398 . S
C2702 H2690 0.950 . S
C2702 C2701 1.398 . S
C2702 C2703 1.391 . S
C2703 H2691 0.950 . S
C2703 C2699 1.389 1_455 S
C2703 C2702 1.391 . S
H2704 C2712 0.950 . S
H2705 C2717 0.950 . S
H2706 C2714 0.950 . S
H2707 C2716 0.950 . S
H2708 C2718 0.950 . S
H2709 C2720 0.950 . S
H2710 C2722 0.950 . S
H2711 C2723 0.950 . S
C2712 H2704 0.950 . S
C2712 C2713 1.386 . S
C2712 C2714 1.391 . S
C2713 C2712 1.386 . S
C2713 C2717 1.393 . S
C2714 H2706 0.950 . S
C2714 C2712 1.391 . S
C2714 C2715 1.400 . S
C2715 C2714 1.400 . S
C2715 C2716 1.398 . S
C2715 C2721 1.491 . S
C2716 H2707 0.950 . S
C2716 C2715 1.398 . S
C2716 C2717 1.391 . S
C2717 H2705 0.950 . S
C2717 C2713 1.393 . S
C2717 C2716 1.391 . S
C2718 H2708 0.950 . S
C2718 C2719 1.386 . S
C2718 C2720 1.391 . S
C2719 C2718 1.386 . S
C2719 C2723 1.393 . S
C2720 H2709 0.950 . S
C2720 C2718 1.391 . S
C2720 C2721 1.400 . S
C2721 C2715 1.491 . S
C2721 C2720 1.400 . S
C2721 C2722 1.398 . S
C2722 H2710 0.950 . S
C2722 C2721 1.398 . S
C2722 C2723 1.391 . S
C2723 H2711 0.950 . S
C2723 C2719 1.393 . S
C2723 C2722 1.391 . S
H2724 C2732 0.950 . S
H2725 C2737 0.950 . S
H2726 C2734 0.950 . S
H2727 C2736 0.950 . S
H2728 C2738 0.950 . S
H2729 C2740 0.950 . S
H2730 C2742 0.950 . S
H2731 C2743 0.950 . S
C2732 H2724 0.950 . S
C2732 C2733 1.386 . S
C2732 C2734 1.391 . S
C2733 C2732 1.386 . S
C2733 C2737 1.393 . S
C2734 H2726 0.950 . S
C2734 C2732 1.391 . S
C2734 C2735 1.400 . S
C2735 C2734 1.400 . S
C2735 C2736 1.398 . S
C2735 C2741 1.491 . S
C2736 H2727 0.950 . S
C2736 C2735 1.398 . S
C2736 C2737 1.391 . S
C2737 H2725 0.950 . S
C2737 C2733 1.393 . S
C2737 C2736 1.391 . S
C2738 H2728 0.950 . S
C2738 C2739 1.386 . S
C2738 C2740 1.391 . S
C2739 C2738 1.386 . S
C2739 C2743 1.393 . S
C2740 H2729 0.950 . S
C2740 C2738 1.391 . S
C2740 C2741 1.400 . S
C2741 C2735 1.491 . S
C2741 C2740 1.400 . S
C2741 C2742 1.398 . S
C2742 H2730 0.950 . S
C2742 C2741 1.398 . S
C2742 C2743 1.391 . S
C2743 H2731 0.950 . S
C2743 C2739 1.393 . S
C2743 C2742 1.391 . S
H2744 C2752 0.950 . S
H2745 C2757 0.950 . S
H2746 C2754 0.950 . S
H2747 C2756 0.950 . S
H2748 C2758 0.945 1_565 S
H2749 C2760 0.952 1_565 S
H2750 C2762 0.950 . S
H2751 C2763 0.950 . S
C2752 H2744 0.950 . S
C2752 C2753 1.386 . S
C2752 C2754 1.391 . S
C2753 C2752 1.386 . S
C2753 C2757 1.393 . S
C2754 H2746 0.950 . S
C2754 C2752 1.391 . S
C2754 C2755 1.400 . S
C2755 C2754 1.400 . S
C2755 C2756 1.398 . S
C2755 C2761 1.491 . S
C2756 H2747 0.950 . S
C2756 C2755 1.398 . S
C2756 C2757 1.391 . S
C2757 H2745 0.950 . S
C2757 C2753 1.393 . S
C2757 C2756 1.391 . S
C2758 H2748 0.945 1_545 S
C2758 C2759 1.385 . S
C2758 C2760 1.398 . S
C2759 C2758 1.385 . S
C2759 C2763 1.393 . S
C2760 H2749 0.952 1_545 S
C2760 C2758 1.398 . S
C2760 C2761 1.400 . S
C2761 C2755 1.491 . S
C2761 C2760 1.400 . S
C2761 C2762 1.398 . S
C2762 H2750 0.950 . S
C2762 C2761 1.398 . S
C2762 C2763 1.391 . S
C2763 H2751 0.950 . S
C2763 C2759 1.393 . S
C2763 C2762 1.391 . S
H2764 C2772 0.950 . S
H2765 C2777 0.950 . S
H2766 C2774 0.950 . S
H2767 C2776 0.950 . S
H2768 C2778 0.950 . S
H2769 C2780 0.950 . S
H2770 C2782 0.950 . S
H2771 C2783 0.950 . S
C2772 H2764 0.950 . S
C2772 C2773 1.386 . S
C2772 C2774 1.391 . S
C2773 C2772 1.386 . S
C2773 C2777 1.393 . S
C2774 H2766 0.950 . S
C2774 C2772 1.391 . S
C2774 C2775 1.400 . S
C2775 C2774 1.400 . S
C2775 C2776 1.398 . S
C2775 C2781 1.491 . S
C2776 H2767 0.950 . S
C2776 C2775 1.398 . S
C2776 C2777 1.391 . S
C2777 H2765 0.950 . S
C2777 C2773 1.393 . S
C2777 C2776 1.391 . S
C2778 H2768 0.950 . S
C2778 C2779 1.386 . S
C2778 C2780 1.391 . S
C2779 C2778 1.386 . S
C2779 C2783 1.393 . S
C2780 H2769 0.950 . S
C2780 C2778 1.391 . S
C2780 C2781 1.400 . S
C2781 C2775 1.491 . S
C2781 C2780 1.400 . S
C2781 C2782 1.398 . S
C2782 H2770 0.950 . S
C2782 C2781 1.398 . S
C2782 C2783 1.391 . S
C2783 H2771 0.950 . S
C2783 C2779 1.393 . S
C2783 C2782 1.391 . S
H2784 C2792 0.950 . S
H2785 C2797 0.950 . S
H2786 C2794 0.950 . S
H2787 C2796 0.950 . S
H2788 C2798 0.950 . S
H2789 C2800 0.950 . S
H2790 C2802 0.950 . S
H2791 C2803 0.950 . S
C2792 H2784 0.950 . S
C2792 C2793 1.386 . S
C2792 C2794 1.391 . S
C2793 C2792 1.386 . S
C2793 C2797 1.393 . S
C2794 H2786 0.950 . S
C2794 C2792 1.391 . S
C2794 C2795 1.400 . S
C2795 C2794 1.400 . S
C2795 C2796 1.398 . S
C2795 C2801 1.491 . S
C2796 H2787 0.950 . S
C2796 C2795 1.398 . S
C2796 C2797 1.391 . S
C2797 H2785 0.950 . S
C2797 C2793 1.393 . S
C2797 C2796 1.391 . S
C2798 H2788 0.950 . S
C2798 C2799 1.386 . S
C2798 C2800 1.391 . S
C2799 C2798 1.386 . S
C2799 C2803 1.393 . S
C2800 H2789 0.950 . S
C2800 C2798 1.391 . S
C2800 C2801 1.400 . S
C2801 C2795 1.491 . S
C2801 C2800 1.400 . S
C2801 C2802 1.398 . S
C2802 H2790 0.950 . S
C2802 C2801 1.398 . S
C2802 C2803 1.391 . S
C2803 H2791 0.950 . S
C2803 C2799 1.393 . S
C2803 C2802 1.391 . S
H2804 C2812 0.950 . S
H2805 C2817 0.950 . S
H2806 C2814 0.950 . S
H2807 C2816 0.950 . S
H2808 C2818 0.950 . S
H2809 C2820 0.950 . S
H2810 C2822 0.950 1_565 S
H2811 C2823 0.965 . S
C2812 H2804 0.950 . S
C2812 C2813 1.386 1_565 S
C2812 C2814 1.391 . S
C2813 C2812 1.386 1_545 S
C2813 C2817 1.393 . S
C2814 H2806 0.950 . S
C2814 C2812 1.391 . S
C2814 C2815 1.400 1_565 S
C2815 C2814 1.400 1_545 S
C2815 C2816 1.398 . S
C2815 C2821 1.491 . S
C2816 H2807 0.950 . S
C2816 C2815 1.398 . S
C2816 C2817 1.391 . S
C2817 H2805 0.950 . S
C2817 C2813 1.393 . S
C2817 C2816 1.391 . S
C2818 H2808 0.950 . S
C2818 C2819 1.386 . S
C2818 C2820 1.391 . S
C2819 C2818 1.386 . S
C2819 C2823 1.393 . S
C2820 H2809 0.950 . S
C2820 C2818 1.391 . S
C2820 C2821 1.400 . S
C2821 C2815 1.491 . S
C2821 C2820 1.400 . S
C2821 C2822 1.398 . S
C2822 H2810 0.950 1_545 S
C2822 C2821 1.398 . S
C2822 C2823 1.391 . S
C2823 H2811 0.965 . S
C2823 C2819 1.393 . S
C2823 C2822 1.391 . S
H2824 C2832 0.950 . S
H2825 C2837 0.950 . S
H2826 C2834 0.950 . S
H2827 C2836 0.950 . S
H2828 C2838 0.950 . S
H2829 C2840 0.950 . S
H2830 C2842 0.950 1_655 S
H2831 C2843 0.950 . S
C2832 H2824 0.950 . S
C2832 C2833 1.386 1_655 S
C2832 C2834 1.391 . S
C2833 C2832 1.386 1_455 S
C2833 C2837 1.393 . S
C2834 H2826 0.950 . S
C2834 C2832 1.391 . S
C2834 C2835 1.400 1_655 S
C2835 C2834 1.400 1_455 S
C2835 C2836 1.398 . S
C2835 C2841 1.491 . S
C2836 H2827 0.950 . S
C2836 C2835 1.398 . S
C2836 C2837 1.391 . S
C2837 H2825 0.950 . S
C2837 C2833 1.393 . S
C2837 C2836 1.391 . S
C2838 H2828 0.950 . S
C2838 C2839 1.386 . S
C2838 C2840 1.391 . S
C2839 C2838 1.386 . S
C2839 C2843 1.393 . S
C2840 H2829 0.950 . S
C2840 C2838 1.391 . S
C2840 C2841 1.400 . S
C2841 C2835 1.491 . S
C2841 C2840 1.400 . S
C2841 C2842 1.398 . S
C2842 H2830 0.950 1_455 S
C2842 C2841 1.398 . S
C2842 C2843 1.391 . S
C2843 H2831 0.950 . S
C2843 C2839 1.393 . S
C2843 C2842 1.391 . S
H2844 C2852 0.950 . S
H2845 C2857 0.950 . S
H2846 C2854 0.936 1_655 S
H2847 C2856 0.950 . S
H2848 C2858 0.950 . S
H2849 C2860 0.950 . S
H2850 C2862 0.950 1_655 S
H2851 C2863 0.950 1_655 S
C2852 H2844 0.950 . S
C2852 C2853 1.386 1_655 S
C2852 C2854 1.390 1_655 S
C2853 C2852 1.386 1_455 S
C2853 C2857 1.393 . S
C2854 H2846 0.936 1_455 S
C2854 C2852 1.390 1_455 S
C2854 C2855 1.414 . S
C2855 C2854 1.414 . S
C2855 C2856 1.398 . S
C2855 C2861 1.491 1_554 S
C2856 H2847 0.950 . S
C2856 C2855 1.398 . S
C2856 C2857 1.391 . S
C2857 H2845 0.950 . S
C2857 C2853 1.393 . S
C2857 C2856 1.391 . S
C2858 H2848 0.950 . S
C2858 C2859 1.386 . S
C2858 C2860 1.391 . S
C2859 C2858 1.386 . S
C2859 C2863 1.393 . S
C2860 H2849 0.950 . S
C2860 C2858 1.391 . S
C2860 C2861 1.400 . S
C2861 C2855 1.491 1_556 S
C2861 C2860 1.400 . S
C2861 C2862 1.398 . S
C2862 H2850 0.950 1_455 S
C2862 C2861 1.398 . S
C2862 C2863 1.391 . S
C2863 H2851 0.950 1_455 S
C2863 C2859 1.393 . S
C2863 C2862 1.391 . S
H2864 C2872 0.950 . S
H2865 C2877 0.950 . S
H2866 C2874 0.950 . S
H2867 C2876 0.950 . S
H2868 C2878 0.950 . S
H2869 C2880 0.950 . S
H2870 C2882 0.950 . S
H2871 C2883 0.950 . S
C2872 H2864 0.950 . S
C2872 C2873 1.386 . S
C2872 C2874 1.391 . S
C2873 C2872 1.386 . S
C2873 C2877 1.393 . S
C2874 H2866 0.950 . S
C2874 C2872 1.391 . S
C2874 C2875 1.400 . S
C2875 C2874 1.400 . S
C2875 C2876 1.398 . S
C2875 C2881 1.491 1_556 S
C2876 H2867 0.950 . S
C2876 C2875 1.398 . S
C2876 C2877 1.391 . S
C2877 H2865 0.950 . S
C2877 C2873 1.393 . S
C2877 C2876 1.391 . S
C2878 H2868 0.950 . S
C2878 C2879 1.386 . S
C2878 C2880 1.391 . S
C2879 C2878 1.386 . S
C2879 C2883 1.393 . S
C2880 H2869 0.950 . S
C2880 C2878 1.391 . S
C2880 C2881 1.400 . S
C2881 C2875 1.491 1_554 S
C2881 C2880 1.400 . S
C2881 C2882 1.398 . S
C2882 H2870 0.950 . S
C2882 C2881 1.398 . S
C2882 C2883 1.391 . S
C2883 H2871 0.950 . S
C2883 C2879 1.393 . S
C2883 C2882 1.391 . S
H2884 C2892 0.950 . S
H2885 C2897 0.950 . S
H2886 C2894 0.946 1_565 S
H2887 C2896 0.950 . S
H2888 C2898 0.950 . S
H2889 C2900 0.950 . S
H2890 C2902 0.950 1_565 S
H2891 C2903 0.950 1_565 S
C2892 H2884 0.950 . S
C2892 C2893 1.386 1_565 S
C2892 C2894 1.391 1_565 S
C2893 C2892 1.386 1_545 S
C2893 C2897 1.393 . S
C2894 H2886 0.946 1_545 S
C2894 C2892 1.391 1_545 S
C2894 C2895 1.405 . S
C2895 C2894 1.405 . S
C2895 C2896 1.398 . S
C2895 C2901 1.491 1_556 S
C2896 H2887 0.950 . S
C2896 C2895 1.398 . S
C2896 C2897 1.391 . S
C2897 H2885 0.950 . S
C2897 C2893 1.393 . S
C2897 C2896 1.391 . S
C2898 H2888 0.950 . S
C2898 C2899 1.386 . S
C2898 C2900 1.391 . S
C2899 C2898 1.386 . S
C2899 C2903 1.393 . S
C2900 H2889 0.950 . S
C2900 C2898 1.391 . S
C2900 C2901 1.400 . S
C2901 C2895 1.491 1_554 S
C2901 C2900 1.400 . S
C2901 C2902 1.398 . S
C2902 H2890 0.950 1_545 S
C2902 C2901 1.398 . S
C2902 C2903 1.391 . S
C2903 H2891 0.950 1_545 S
C2903 C2899 1.393 . S
C2903 C2902 1.391 . S
H2904 C2912 0.950 . S
H2905 C2917 0.950 1_655 S
H2906 C2914 0.950 . S
H2907 C2916 0.950 1_655 S
H2908 C2918 0.949 . S
H2909 C2920 0.950 1_655 S
H2910 C2922 0.950 . S
H2911 C2923 0.950 . S
C2912 H2904 0.950 . S
C2912 C2913 1.386 . S
C2912 C2914 1.391 . S
C2913 C2912 1.386 . S
C2913 C2917 1.393 . S
C2914 H2906 0.950 . S
C2914 C2912 1.391 . S
C2914 C2915 1.400 . S
C2915 C2914 1.400 . S
C2915 C2916 1.398 . S
C2915 C2921 1.491 1_556 S
C2916 H2907 0.950 1_455 S
C2916 C2915 1.398 . S
C2916 C2917 1.391 . S
C2917 H2905 0.950 1_455 S
C2917 C2913 1.393 . S
C2917 C2916 1.391 . S
C2918 H2908 0.949 . S
C2918 C2919 1.386 1_655 S
C2918 C2920 1.391 1_655 S
C2919 C2918 1.386 1_455 S
C2919 C2923 1.393 . S
C2920 H2909 0.950 1_455 S
C2920 C2918 1.391 1_455 S
C2920 C2921 1.400 . S
C2921 C2915 1.491 1_554 S
C2921 C2920 1.400 . S
C2921 C2922 1.398 . S
C2922 H2910 0.950 . S
C2922 C2921 1.398 . S
C2922 C2923 1.391 . S
C2923 H2911 0.950 . S
C2923 C2919 1.393 . S
C2923 C2922 1.391 . S
H2924 C2932 0.950 . S
H2925 C2937 0.950 . S
H2926 C2934 0.950 . S
H2927 C2936 0.950 . S
H2928 C2938 0.950 . S
H2929 C2940 0.950 . S
H2930 C2942 0.950 . S
H2931 C2943 0.950 . S
C2932 H2924 0.950 . S
C2932 C2933 1.386 . S
C2932 C2934 1.391 . S
C2933 C2932 1.386 . S
C2933 C2937 1.393 . S
C2934 H2926 0.950 . S
C2934 C2932 1.391 . S
C2934 C2935 1.400 . S
C2935 C2934 1.400 . S
C2935 C2936 1.398 . S
C2935 C2941 1.491 1_554 S
C2936 H2927 0.950 . S
C2936 C2935 1.398 . S
C2936 C2937 1.391 . S
C2937 H2925 0.950 . S
C2937 C2933 1.393 . S
C2937 C2936 1.391 . S
C2938 H2928 0.950 . S
C2938 C2939 1.386 . S
C2938 C2940 1.391 . S
C2939 C2938 1.386 . S
C2939 C2943 1.393 . S
C2940 H2929 0.950 . S
C2940 C2938 1.391 . S
C2940 C2941 1.400 . S
C2941 C2935 1.491 1_556 S
C2941 C2940 1.400 . S
C2941 C2942 1.398 . S
C2942 H2930 0.950 . S
C2942 C2941 1.398 . S
C2942 C2943 1.391 . S
C2943 H2931 0.950 . S
C2943 C2939 1.393 . S
C2943 C2942 1.391 . S
H2944 C2952 0.950 . S
H2945 C2957 0.950 . S
H2946 C2954 0.950 . S
H2947 C2956 0.950 . S
H2948 C2958 0.950 . S
H2949 C2960 0.950 . S
H2950 C2962 0.950 . S
H2951 C2963 0.950 . S
C2952 H2944 0.950 . S
C2952 C2953 1.386 . S
C2952 C2954 1.391 . S
C2953 C2952 1.386 . S
C2953 C2957 1.393 . S
C2954 H2946 0.950 . S
C2954 C2952 1.391 . S
C2954 C2955 1.400 . S
C2955 C2954 1.400 . S
C2955 C2956 1.398 . S
C2955 C2961 1.491 1_556 S
C2956 H2947 0.950 . S
C2956 C2955 1.398 . S
C2956 C2957 1.391 . S
C2957 H2945 0.950 . S
C2957 C2953 1.393 . S
C2957 C2956 1.391 . S
C2958 H2948 0.950 . S
C2958 C2959 1.386 . S
C2958 C2960 1.391 . S
C2959 C2958 1.386 . S
C2959 C2963 1.393 . S
C2960 H2949 0.950 . S
C2960 C2958 1.391 . S
C2960 C2961 1.400 . S
C2961 C2955 1.491 1_554 S
C2961 C2960 1.400 . S
C2961 C2962 1.398 . S
C2962 H2950 0.950 . S
C2962 C2961 1.398 . S
C2962 C2963 1.391 . S
C2963 H2951 0.950 . S
C2963 C2959 1.393 . S
C2963 C2962 1.391 . S
H2964 C2972 0.950 . S
H2965 C2977 0.950 . S
H2966 C2974 0.950 . S
H2967 C2976 0.950 . S
H2968 C2978 0.950 . S
H2969 C2980 0.950 . S
H2970 C2982 0.950 . S
H2971 C2983 0.950 . S
C2972 H2964 0.950 . S
C2972 C2973 1.386 . S
C2972 C2974 1.391 . S
C2973 C2972 1.386 . S
C2973 C2977 1.393 . S
C2974 H2966 0.950 . S
C2974 C2972 1.391 . S
C2974 C2975 1.400 . S
C2975 C2974 1.400 . S
C2975 C2976 1.398 . S
C2975 C2981 1.491 . S
C2976 H2967 0.950 . S
C2976 C2975 1.398 . S
C2976 C2977 1.391 . S
C2977 H2965 0.950 . S
C2977 C2973 1.393 . S
C2977 C2976 1.391 . S
C2978 H2968 0.950 . S
C2978 C2979 1.386 . S
C2978 C2980 1.391 . S
C2979 C2978 1.386 . S
C2979 C2983 1.393 . S
C2980 H2969 0.950 . S
C2980 C2978 1.391 . S
C2980 C2981 1.400 . S
C2981 C2975 1.491 . S
C2981 C2980 1.400 . S
C2981 C2982 1.398 . S
C2982 H2970 0.950 . S
C2982 C2981 1.398 . S
C2982 C2983 1.391 . S
C2983 H2971 0.950 . S
C2983 C2979 1.393 . S
C2983 C2982 1.391 . S
H2984 C2992 0.950 . S
H2985 C2997 0.950 . S
H2986 C2994 0.950 . S
H2987 C2996 0.950 . S
H2988 C2998 0.950 . S
H2989 C3000 0.950 . S
H2990 C3002 0.950 . S
H2991 C3003 0.950 . S
C2992 H2984 0.950 . S
C2992 C2993 1.386 . S
C2992 C2994 1.391 . S
C2993 C2992 1.386 . S
C2993 C2997 1.393 . S
C2994 H2986 0.950 . S
C2994 C2992 1.391 . S
C2994 C2995 1.400 . S
C2995 C2994 1.400 . S
C2995 C2996 1.398 . S
C2995 C3001 1.491 . S
C2996 H2987 0.950 . S
C2996 C2995 1.398 . S
C2996 C2997 1.391 . S
C2997 H2985 0.950 . S
C2997 C2993 1.393 . S
C2997 C2996 1.391 . S
C2998 H2988 0.950 . S
C2998 C2999 1.386 . S
C2998 C3000 1.391 . S
C2999 C2998 1.386 . S
C2999 C3003 1.393 . S
C3000 H2989 0.950 . S
C3000 C2998 1.391 . S
C3000 C3001 1.400 . S
C3001 C2995 1.491 . S
C3001 C3000 1.400 . S
C3001 C3002 1.398 . S
C3002 H2990 0.950 . S
C3002 C3001 1.398 . S
C3002 C3003 1.391 . S
C3003 H2991 0.950 . S
C3003 C2999 1.393 . S
C3003 C3002 1.391 . S
H3004 C3012 0.950 . S
H3005 C3017 0.950 . S
H3006 C3014 0.950 . S
H3007 C3016 0.950 . S
H3008 C3018 0.950 . S
H3009 C3020 0.950 . S
H3010 C3022 0.950 . S
H3011 C3023 0.950 . S
C3012 H3004 0.950 . S
C3012 C3013 1.386 . S
C3012 C3014 1.391 . S
C3013 C3012 1.386 . S
C3013 C3017 1.393 1_655 S
C3014 H3006 0.950 . S
C3014 C3012 1.391 . S
C3014 C3015 1.400 . S
C3015 C3014 1.400 . S
C3015 C3016 1.398 1_655 S
C3015 C3021 1.491 . S
C3016 H3007 0.950 . S
C3016 C3015 1.398 1_455 S
C3016 C3017 1.391 . S
C3017 H3005 0.950 . S
C3017 C3013 1.393 1_455 S
C3017 C3016 1.391 . S
C3018 H3008 0.950 . S
C3018 C3019 1.386 1_455 S
C3018 C3020 1.391 . S
C3019 C3018 1.386 1_655 S
C3019 C3023 1.393 . S
C3020 H3009 0.950 . S
C3020 C3018 1.391 . S
C3020 C3021 1.400 1_455 S
C3021 C3015 1.491 . S
C3021 C3020 1.400 1_655 S
C3021 C3022 1.398 . S
C3022 H3010 0.950 . S
C3022 C3021 1.398 . S
C3022 C3023 1.391 . S
C3023 H3011 0.950 . S
C3023 C3019 1.393 . S
C3023 C3022 1.391 . S
H3024 C3032 0.950 . S
H3025 C3037 0.950 . S
H3026 C3034 0.950 . S
H3027 C3036 0.950 . S
H3028 C3038 0.950 . S
H3029 C3040 0.950 . S
H3030 C3042 0.950 . S
H3031 C3043 0.950 . S
C3032 H3024 0.950 . S
C3032 C3033 1.386 . S
C3032 C3034 1.391 . S
C3033 C3032 1.386 . S
C3033 C3037 1.393 . S
C3034 H3026 0.950 . S
C3034 C3032 1.391 . S
C3034 C3035 1.400 . S
C3035 C3034 1.400 . S
C3035 C3036 1.398 . S
C3035 C3041 1.491 . S
C3036 H3027 0.950 . S
C3036 C3035 1.398 . S
C3036 C3037 1.391 . S
C3037 H3025 0.950 . S
C3037 C3033 1.393 . S
C3037 C3036 1.391 . S
C3038 H3028 0.950 . S
C3038 C3039 1.386 . S
C3038 C3040 1.391 . S
C3039 C3038 1.386 . S
C3039 C3043 1.393 . S
C3040 H3029 0.950 . S
C3040 C3038 1.391 . S
C3040 C3041 1.400 . S
C3041 C3035 1.491 . S
C3041 C3040 1.400 . S
C3041 C3042 1.398 . S
C3042 H3030 0.950 . S
C3042 C3041 1.398 . S
C3042 C3043 1.391 . S
C3043 H3031 0.950 . S
C3043 C3039 1.393 . S
C3043 C3042 1.391 . S
H3044 C3052 0.959 . S
H3045 C3057 0.950 . S
H3046 C3054 0.939 1_455 S
H3047 C3056 0.950 . S
H3048 C3058 0.950 . S
H3049 C3060 0.950 . S
H3050 C3062 0.923 1_455 S
H3051 C3063 0.950 1_455 S
C3052 H3044 0.959 . S
C3052 C3053 1.377 1_455 S
C3052 C3054 1.390 1_455 S
C3053 C3052 1.377 1_655 S
C3053 C3057 1.393 . S
C3054 H3046 0.939 1_655 S
C3054 C3052 1.390 1_655 S
C3054 C3055 1.412 . S
C3055 C3054 1.412 . S
C3055 C3056 1.398 . S
C3055 C3061 1.491 . S
C3056 H3047 0.950 . S
C3056 C3055 1.398 . S
C3056 C3057 1.391 . S
C3057 H3045 0.950 . S
C3057 C3053 1.393 . S
C3057 C3056 1.391 . S
C3058 H3048 0.950 . S
C3058 C3059 1.386 . S
C3058 C3060 1.391 . S
C3059 C3058 1.386 . S
C3059 C3063 1.393 . S
C3060 H3049 0.950 . S
C3060 C3058 1.391 . S
C3060 C3061 1.400 . S
C3061 C3055 1.491 . S
C3061 C3060 1.400 . S
C3061 C3062 1.424 . S
C3062 H3050 0.923 1_655 S
C3062 C3061 1.424 . S
C3062 C3063 1.393 . S
C3063 H3051 0.950 1_655 S
C3063 C3059 1.393 . S
C3063 C3062 1.393 . S
H3064 C3072 0.950 . S
H3065 C3077 0.950 . S
H3066 C3074 0.950 . S
H3067 C3076 0.950 . S
H3068 C3078 0.950 . S
H3069 C3080 0.950 . S
H3070 C3082 0.950 . S
H3071 C3083 0.950 . S
C3072 H3064 0.950 . S
C3072 C3073 1.386 . S
C3072 C3074 1.391 . S
C3073 C3072 1.386 . S
C3073 C3077 1.393 . S
C3074 H3066 0.950 . S
C3074 C3072 1.391 . S
C3074 C3075 1.400 . S
C3075 C3074 1.400 . S
C3075 C3076 1.398 . S
C3075 C3081 1.491 . S
C3076 H3067 0.950 . S
C3076 C3075 1.398 . S
C3076 C3077 1.391 . S
C3077 H3065 0.950 . S
C3077 C3073 1.393 . S
C3077 C3076 1.391 . S
C3078 H3068 0.950 . S
C3078 C3079 1.386 . S
C3078 C3080 1.391 . S
C3079 C3078 1.386 . S
C3079 C3083 1.393 . S
C3080 H3069 0.950 . S
C3080 C3078 1.391 . S
C3080 C3081 1.400 . S
C3081 C3075 1.491 . S
C3081 C3080 1.400 . S
C3081 C3082 1.398 . S
C3082 H3070 0.950 . S
C3082 C3081 1.398 . S
C3082 C3083 1.391 . S
C3083 H3071 0.950 . S
C3083 C3079 1.393 . S
C3083 C3082 1.391 . S
H3084 C3092 0.950 . S
H3085 C3097 0.950 . S
H3086 C3094 0.950 . S
H3087 C3096 0.978 . S
H3088 C3098 0.950 1_545 S
H3089 C3100 0.950 1_545 S
H3090 C3102 0.950 . S
H3091 C3103 0.950 . S
C3092 H3084 0.950 . S
C3092 C3093 1.386 . S
C3092 C3094 1.391 . S
C3093 C3092 1.386 . S
C3093 C3097 1.393 . S
C3094 H3086 0.950 . S
C3094 C3092 1.391 . S
C3094 C3095 1.400 . S
C3095 C3094 1.400 . S
C3095 C3096 1.398 . S
C3095 C3101 1.491 . S
C3096 H3087 0.978 . S
C3096 C3095 1.398 . S
C3096 C3097 1.391 . S
C3097 H3085 0.950 . S
C3097 C3093 1.393 . S
C3097 C3096 1.391 . S
C3098 H3088 0.950 1_565 S
C3098 C3099 1.386 . S
C3098 C3100 1.391 . S
C3099 C3098 1.386 . S
C3099 C3103 1.393 . S
C3100 H3089 0.950 1_565 S
C3100 C3098 1.391 . S
C3100 C3101 1.400 . S
C3101 C3095 1.491 . S
C3101 C3100 1.400 . S
C3101 C3102 1.398 . S
C3102 H3090 0.950 . S
C3102 C3101 1.398 . S
C3102 C3103 1.391 . S
C3103 H3091 0.950 . S
C3103 C3099 1.393 . S
C3103 C3102 1.391 . S
H3104 C3112 0.950 . S
H3105 C3117 0.950 . S
H3106 C3114 0.950 . S
H3107 C3116 0.950 . S
H3108 C3118 0.950 . S
H3109 C3120 0.950 . S
H3110 C3122 0.950 . S
H3111 C3123 0.950 . S
C3112 H3104 0.950 . S
C3112 C3113 1.386 . S
C3112 C3114 1.391 . S
C3113 C3112 1.386 . S
C3113 C3117 1.393 . S
C3114 H3106 0.950 . S
C3114 C3112 1.391 . S
C3114 C3115 1.400 . S
C3115 C3114 1.400 . S
C3115 C3116 1.398 . S
C3115 C3121 1.491 . S
C3116 H3107 0.950 . S
C3116 C3115 1.398 . S
C3116 C3117 1.391 . S
C3117 H3105 0.950 . S
C3117 C3113 1.393 . S
C3117 C3116 1.391 . S
C3118 H3108 0.950 . S
C3118 C3119 1.386 . S
C3118 C3120 1.391 . S
C3119 C3118 1.386 . S
C3119 C3123 1.393 . S
C3120 H3109 0.950 . S
C3120 C3118 1.391 . S
C3120 C3121 1.400 . S
C3121 C3115 1.491 . S
C3121 C3120 1.400 . S
C3121 C3122 1.398 . S
C3122 H3110 0.950 . S
C3122 C3121 1.398 . S
C3122 C3123 1.391 . S
C3123 H3111 0.950 . S
C3123 C3119 1.393 . S
C3123 C3122 1.391 . S
H3124 C3132 0.950 . S
H3125 C3137 0.950 . S
H3126 C3134 0.950 . S
H3127 C3136 0.950 . S
H3128 C3138 0.950 . S
H3129 C3140 0.950 . S
H3130 C3142 0.950 . S
H3131 C3143 0.950 . S
C3132 H3124 0.950 . S
C3132 C3133 1.386 . S
C3132 C3134 1.391 . S
C3133 C3132 1.386 . S
C3133 C3137 1.393 . S
C3134 H3126 0.950 . S
C3134 C3132 1.391 . S
C3134 C3135 1.400 . S
C3135 C3134 1.400 . S
C3135 C3136 1.398 . S
C3135 C3141 1.491 . S
C3136 H3127 0.950 . S
C3136 C3135 1.398 . S
C3136 C3137 1.391 . S
C3137 H3125 0.950 . S
C3137 C3133 1.393 . S
C3137 C3136 1.391 . S
C3138 H3128 0.950 . S
C3138 C3139 1.386 . S
C3138 C3140 1.391 . S
C3139 C3138 1.386 . S
C3139 C3143 1.393 . S
C3140 H3129 0.950 . S
C3140 C3138 1.391 . S
C3140 C3141 1.400 . S
C3141 C3135 1.491 . S
C3141 C3140 1.400 . S
C3141 C3142 1.398 . S
C3142 H3130 0.950 . S
C3142 C3141 1.398 . S
C3142 C3143 1.391 . S
C3143 H3131 0.950 . S
C3143 C3139 1.393 . S
C3143 C3142 1.391 . S
H3144 C3152 0.950 . S
H3145 C3157 0.950 . S
H3146 C3154 0.950 . S
H3147 C3156 0.950 . S
H3148 C3158 0.950 . S
H3149 C3160 0.950 . S
H3150 C3162 0.950 . S
H3151 C3163 0.950 . S
C3152 H3144 0.950 . S
C3152 C3153 1.386 . S
C3152 C3154 1.391 . S
C3153 C3152 1.386 . S
C3153 C3157 1.393 . S
C3154 H3146 0.950 . S
C3154 C3152 1.391 . S
C3154 C3155 1.400 . S
C3155 C3154 1.400 . S
C3155 C3156 1.398 . S
C3155 C3161 1.491 . S
C3156 H3147 0.950 . S
C3156 C3155 1.398 . S
C3156 C3157 1.391 . S
C3157 H3145 0.950 . S
C3157 C3153 1.393 . S
C3157 C3156 1.391 . S
C3158 H3148 0.950 . S
C3158 C3159 1.386 . S
C3158 C3160 1.391 . S
C3159 C3158 1.386 . S
C3159 C3163 1.393 . S
C3160 H3149 0.950 . S
C3160 C3158 1.391 . S
C3160 C3161 1.400 . S
C3161 C3155 1.491 . S
C3161 C3160 1.400 . S
C3161 C3162 1.398 . S
C3162 H3150 0.950 . S
C3162 C3161 1.398 . S
C3162 C3163 1.391 . S
C3163 H3151 0.950 . S
C3163 C3159 1.393 . S
C3163 C3162 1.391 . S
H3164 C3172 0.950 . S
H3165 C3177 0.950 . S
H3166 C3174 0.950 . S
H3167 C3176 0.950 . S
H3168 C3178 0.950 . S
H3169 C3180 0.950 . S
H3170 C3182 0.950 . S
H3171 C3183 0.950 . S
C3172 H3164 0.950 . S
C3172 C3173 1.386 . S
C3172 C3174 1.391 . S
C3173 C3172 1.386 . S
C3173 C3177 1.393 . S
C3174 H3166 0.950 . S
C3174 C3172 1.391 . S
C3174 C3175 1.400 . S
C3175 C3174 1.400 . S
C3175 C3176 1.398 . S
C3175 C3181 1.491 . S
C3176 H3167 0.950 . S
C3176 C3175 1.398 . S
C3176 C3177 1.391 . S
C3177 H3165 0.950 . S
C3177 C3173 1.393 . S
C3177 C3176 1.391 . S
C3178 H3168 0.950 . S
C3178 C3179 1.386 . S
C3178 C3180 1.391 . S
C3179 C3178 1.386 . S
C3179 C3183 1.393 . S
C3180 H3169 0.950 . S
C3180 C3178 1.391 . S
C3180 C3181 1.400 . S
C3181 C3175 1.491 . S
C3181 C3180 1.400 . S
C3181 C3182 1.398 . S
C3182 H3170 0.950 . S
C3182 C3181 1.398 . S
C3182 C3183 1.391 . S
C3183 H3171 0.950 . S
C3183 C3179 1.393 . S
C3183 C3182 1.391 . S
H3184 C3192 0.950 . S
H3185 C3197 0.950 . S
H3186 C3194 0.950 . S
H3187 C3196 0.950 . S
H3188 C3198 0.950 . S
H3189 C3200 0.950 . S
H3190 C3202 0.950 . S
H3191 C3203 0.950 . S
C3192 H3184 0.950 . S
C3192 C3193 1.386 . S
C3192 C3194 1.391 . S
C3193 C3192 1.386 . S
C3193 C3197 1.393 . S
C3194 H3186 0.950 . S
C3194 C3192 1.391 . S
C3194 C3195 1.400 . S
C3195 C3194 1.400 . S
C3195 C3196 1.398 . S
C3195 C3201 1.491 . S
C3196 H3187 0.950 . S
C3196 C3195 1.398 . S
C3196 C3197 1.391 . S
C3197 H3185 0.950 . S
C3197 C3193 1.393 . S
C3197 C3196 1.391 . S
C3198 H3188 0.950 . S
C3198 C3199 1.386 . S
C3198 C3200 1.391 . S
C3199 C3198 1.386 . S
C3199 C3203 1.393 . S
C3200 H3189 0.950 . S
C3200 C3198 1.391 . S
C3200 C3201 1.400 . S
C3201 C3195 1.491 . S
C3201 C3200 1.400 . S
C3201 C3202 1.398 . S
C3202 H3190 0.950 . S
C3202 C3201 1.398 . S
C3202 C3203 1.391 . S
C3203 H3191 0.950 . S
C3203 C3199 1.393 . S
C3203 C3202 1.391 . S
H3204 C3212 0.950 . S
H3205 C3217 0.950 . S
H3206 C3214 0.950 . S
H3207 C3216 0.950 . S
H3208 C3218 0.950 . S
H3209 C3220 0.950 . S
H3210 C3222 0.950 . S
H3211 C3223 0.950 . S
C3212 H3204 0.950 . S
C3212 C3213 1.386 . S
C3212 C3214 1.391 . S
C3213 C3212 1.386 . S
C3213 C3217 1.393 . S
C3214 H3206 0.950 . S
C3214 C3212 1.391 . S
C3214 C3215 1.400 . S
C3215 C3214 1.400 . S
C3215 C3216 1.398 . S
C3215 C3221 1.491 . S
C3216 H3207 0.950 . S
C3216 C3215 1.398 . S
C3216 C3217 1.391 . S
C3217 H3205 0.950 . S
C3217 C3213 1.393 . S
C3217 C3216 1.391 . S
C3218 H3208 0.950 . S
C3218 C3219 1.386 . S
C3218 C3220 1.391 . S
C3219 C3218 1.386 . S
C3219 C3223 1.393 . S
C3220 H3209 0.950 . S
C3220 C3218 1.391 . S
C3220 C3221 1.400 . S
C3221 C3215 1.491 . S
C3221 C3220 1.400 . S
C3221 C3222 1.398 . S
C3222 H3210 0.950 . S
C3222 C3221 1.398 . S
C3222 C3223 1.391 . S
C3223 H3211 0.950 . S
C3223 C3219 1.393 . S
C3223 C3222 1.391 . S
H3224 C3232 0.950 . S
H3225 C3237 0.950 . S
H3226 C3234 0.950 . S
H3227 C3236 0.950 . S
H3228 C3238 0.950 . S
H3229 C3240 0.950 . S
H3230 C3242 0.950 . S
H3231 C3243 0.950 . S
C3232 H3224 0.950 . S
C3232 C3233 1.386 . S
C3232 C3234 1.391 . S
C3233 C3232 1.386 . S
C3233 C3237 1.393 . S
C3234 H3226 0.950 . S
C3234 C3232 1.391 . S
C3234 C3235 1.400 . S
C3235 C3234 1.400 . S
C3235 C3236 1.398 . S
C3235 C3241 1.491 . S
C3236 H3227 0.950 . S
C3236 C3235 1.398 . S
C3236 C3237 1.391 . S
C3237 H3225 0.950 . S
C3237 C3233 1.393 . S
C3237 C3236 1.391 . S
C3238 H3228 0.950 . S
C3238 C3239 1.386 . S
C3238 C3240 1.391 . S
C3239 C3238 1.386 . S
C3239 C3243 1.393 . S
C3240 H3229 0.950 . S
C3240 C3238 1.391 . S
C3240 C3241 1.400 . S
C3241 C3235 1.491 . S
C3241 C3240 1.400 . S
C3241 C3242 1.398 . S
C3242 H3230 0.950 . S
C3242 C3241 1.398 . S
C3242 C3243 1.391 . S
C3243 H3231 0.950 . S
C3243 C3239 1.393 . S
C3243 C3242 1.391 . S
H3244 C3252 0.950 . S
H3245 C3257 0.950 . S
H3246 C3254 0.950 . S
H3247 C3256 0.950 . S
H3248 C3258 0.950 . S
H3249 C3260 0.950 . S
H3250 C3262 0.950 . S
H3251 C3263 0.950 . S
C3252 H3244 0.950 . S
C3252 C3253 1.386 . S
C3252 C3254 1.391 . S
C3253 C3252 1.386 . S
C3253 C3257 1.393 . S
C3254 H3246 0.950 . S
C3254 C3252 1.391 . S
C3254 C3255 1.400 . S
C3255 C3254 1.400 . S
C3255 C3256 1.398 . S
C3255 C3261 1.491 . S
C3256 H3247 0.950 . S
C3256 C3255 1.398 . S
C3256 C3257 1.391 . S
C3257 H3245 0.950 . S
C3257 C3253 1.393 . S
C3257 C3256 1.391 . S
C3258 H3248 0.950 . S
C3258 C3259 1.386 . S
C3258 C3260 1.391 . S
C3259 C3258 1.386 . S
C3259 C3263 1.393 . S
C3260 H3249 0.950 . S
C3260 C3258 1.391 . S
C3260 C3261 1.400 . S
C3261 C3255 1.491 . S
C3261 C3260 1.400 . S
C3261 C3262 1.398 . S
C3262 H3250 0.950 . S
C3262 C3261 1.398 . S
C3262 C3263 1.391 . S
C3263 H3251 0.950 . S
C3263 C3259 1.393 . S
C3263 C3262 1.391 . S
H3264 C3272 0.950 . S
H3265 C3277 0.950 . S
H3266 C3274 0.950 . S
H3267 C3276 0.950 . S
H3268 C3278 0.950 . S
H3269 C3280 0.950 . S
H3270 C3282 0.950 . S
H3271 C3283 0.950 . S
C3272 H3264 0.950 . S
C3272 C3273 1.386 . S
C3272 C3274 1.391 . S
C3273 C3272 1.386 . S
C3273 C3277 1.393 . S
C3274 H3266 0.950 . S
C3274 C3272 1.391 . S
C3274 C3275 1.400 . S
C3275 C3274 1.400 . S
C3275 C3276 1.398 . S
C3275 C3281 1.491 . S
C3276 H3267 0.950 . S
C3276 C3275 1.398 . S
C3276 C3277 1.391 . S
C3277 H3265 0.950 . S
C3277 C3273 1.393 . S
C3277 C3276 1.391 . S
C3278 H3268 0.950 . S
C3278 C3279 1.386 . S
C3278 C3280 1.391 . S
C3279 C3278 1.386 . S
C3279 C3283 1.393 . S
C3280 H3269 0.950 . S
C3280 C3278 1.391 . S
C3280 C3281 1.400 . S
C3281 C3275 1.491 . S
C3281 C3280 1.400 . S
C3281 C3282 1.398 . S
C3282 H3270 0.950 . S
C3282 C3281 1.398 . S
C3282 C3283 1.391 . S
C3283 H3271 0.950 . S
C3283 C3279 1.393 . S
C3283 C3282 1.391 . S
H3284 C3292 0.950 . S
H3285 C3297 0.950 . S
H3286 C3294 0.950 . S
H3287 C3296 0.950 . S
H3288 C3298 0.950 . S
H3289 C3300 0.950 . S
H3290 C3302 0.950 . S
H3291 C3303 0.950 . S
C3292 H3284 0.950 . S
C3292 C3293 1.386 . S
C3292 C3294 1.391 . S
C3293 C3292 1.386 . S
C3293 C3297 1.393 . S
C3294 H3286 0.950 . S
C3294 C3292 1.391 . S
C3294 C3295 1.400 . S
C3295 C3294 1.400 . S
C3295 C3296 1.398 . S
C3295 C3301 1.491 . S
C3296 H3287 0.950 . S
C3296 C3295 1.398 . S
C3296 C3297 1.391 . S
C3297 H3285 0.950 . S
C3297 C3293 1.393 . S
C3297 C3296 1.391 . S
C3298 H3288 0.950 . S
C3298 C3299 1.386 . S
C3298 C3300 1.391 . S
C3299 C3298 1.386 . S
C3299 C3303 1.393 . S
C3300 H3289 0.950 . S
C3300 C3298 1.391 . S
C3300 C3301 1.400 . S
C3301 C3295 1.491 . S
C3301 C3300 1.400 . S
C3301 C3302 1.398 . S
C3302 H3290 0.950 . S
C3302 C3301 1.398 . S
C3302 C3303 1.391 . S
C3303 H3291 0.950 . S
C3303 C3299 1.393 . S
C3303 C3302 1.391 . S
H3304 C3312 0.950 . S
H3305 C3317 0.950 . S
H3306 C3314 0.950 . S
H3307 C3316 0.950 . S
H3308 C3318 0.950 . S
H3309 C3320 0.950 . S
H3310 C3322 0.950 . S
H3311 C3323 0.950 . S
C3312 H3304 0.950 . S
C3312 C3313 1.386 . S
C3312 C3314 1.391 . S
C3313 C3312 1.386 . S
C3313 C3317 1.393 . S
C3314 H3306 0.950 . S
C3314 C3312 1.391 . S
C3314 C3315 1.400 . S
C3315 C3314 1.400 . S
C3315 C3316 1.398 . S
C3315 C3321 1.491 . S
C3316 H3307 0.950 . S
C3316 C3315 1.398 . S
C3316 C3317 1.391 . S
C3317 H3305 0.950 . S
C3317 C3313 1.393 . S
C3317 C3316 1.391 . S
C3318 H3308 0.950 . S
C3318 C3319 1.386 . S
C3318 C3320 1.391 . S
C3319 C3318 1.386 . S
C3319 C3323 1.393 . S
C3320 H3309 0.950 . S
C3320 C3318 1.391 . S
C3320 C3321 1.400 . S
C3321 C3315 1.491 . S
C3321 C3320 1.400 . S
C3321 C3322 1.398 . S
C3322 H3310 0.950 . S
C3322 C3321 1.398 . S
C3322 C3323 1.391 . S
C3323 H3311 0.950 . S
C3323 C3319 1.393 . S
C3323 C3322 1.391 . S
H3324 C3332 0.950 . S
H3325 C3337 0.950 . S
H3326 C3334 0.950 . S
H3327 C3336 0.950 . S
H3328 C3338 0.950 . S
H3329 C3340 0.950 . S
H3330 C3342 0.950 . S
H3331 C3343 0.950 . S
C3332 H3324 0.950 . S
C3332 C3333 1.386 . S
C3332 C3334 1.391 . S
C3333 C3332 1.386 . S
C3333 C3337 1.393 . S
C3334 H3326 0.950 . S
C3334 C3332 1.391 . S
C3334 C3335 1.400 . S
C3335 C3334 1.400 . S
C3335 C3336 1.398 . S
C3335 C3341 1.491 . S
C3336 H3327 0.950 . S
C3336 C3335 1.398 . S
C3336 C3337 1.391 . S
C3337 H3325 0.950 . S
C3337 C3333 1.393 . S
C3337 C3336 1.391 . S
C3338 H3328 0.950 . S
C3338 C3339 1.386 . S
C3338 C3340 1.391 . S
C3339 C3338 1.386 . S
C3339 C3343 1.393 . S
C3340 H3329 0.950 . S
C3340 C3338 1.391 . S
C3340 C3341 1.400 . S
C3341 C3335 1.491 . S
C3341 C3340 1.400 . S
C3341 C3342 1.398 . S
C3342 H3330 0.950 . S
C3342 C3341 1.398 . S
C3342 C3343 1.391 . S
C3343 H3331 0.950 . S
C3343 C3339 1.393 . S
C3343 C3342 1.391 . S
H3344 C3352 0.950 . S
H3345 C3357 0.950 . S
H3346 C3354 0.950 . S
H3347 C3356 0.950 . S
H3348 C3358 0.950 . S
H3349 C3360 0.950 . S
H3350 C3362 0.950 . S
H3351 C3363 0.950 . S
C3352 H3344 0.950 . S
C3352 C3353 1.386 . S
C3352 C3354 1.391 . S
C3353 C3352 1.386 . S
C3353 C3357 1.393 . S
C3354 H3346 0.950 . S
C3354 C3352 1.391 . S
C3354 C3355 1.400 . S
C3355 C3354 1.400 . S
C3355 C3356 1.398 . S
C3355 C3361 1.491 . S
C3356 H3347 0.950 . S
C3356 C3355 1.398 . S
C3356 C3357 1.391 . S
C3357 H3345 0.950 . S
C3357 C3353 1.393 . S
C3357 C3356 1.391 . S
C3358 H3348 0.950 . S
C3358 C3359 1.386 . S
C3358 C3360 1.391 . S
C3359 C3358 1.386 . S
C3359 C3363 1.393 . S
C3360 H3349 0.950 . S
C3360 C3358 1.391 . S
C3360 C3361 1.400 . S
C3361 C3355 1.491 . S
C3361 C3360 1.400 . S
C3361 C3362 1.398 . S
C3362 H3350 0.950 . S
C3362 C3361 1.398 . S
C3362 C3363 1.391 . S
C3363 H3351 0.950 . S
C3363 C3359 1.393 . S
C3363 C3362 1.391 . S
H3364 C3372 0.950 . S
H3365 C3377 0.961 . S
H3366 C3374 0.950 . S
H3367 C3376 0.950 . S
H3368 C3378 0.950 . S
H3369 C3380 0.950 . S
H3370 C3382 0.950 . S
H3371 C3383 0.950 . S
C3372 H3364 0.950 . S
C3372 C3373 1.386 . S
C3372 C3374 1.391 . S
C3373 C3372 1.386 . S
C3373 C3377 1.389 1_655 S
C3374 H3366 0.950 . S
C3374 C3372 1.391 . S
C3374 C3375 1.400 . S
C3375 C3374 1.400 . S
C3375 C3376 1.400 1_655 S
C3375 C3381 1.491 . S
C3376 H3367 0.950 . S
C3376 C3375 1.400 1_455 S
C3376 C3377 1.383 . S
C3377 H3365 0.961 . S
C3377 C3373 1.389 1_455 S
C3377 C3376 1.383 . S
C3378 H3368 0.950 . S
C3378 C3379 1.386 1_455 S
C3378 C3380 1.391 . S
C3379 C3378 1.386 1_655 S
C3379 C3383 1.393 . S
C3380 H3369 0.950 . S
C3380 C3378 1.391 . S
C3380 C3381 1.400 1_455 S
C3381 C3375 1.491 . S
C3381 C3380 1.400 1_655 S
C3381 C3382 1.398 . S
C3382 H3370 0.950 . S
C3382 C3381 1.398 . S
C3382 C3383 1.391 . S
C3383 H3371 0.950 . S
C3383 C3379 1.393 . S
C3383 C3382 1.391 . S
H3384 C3392 0.950 . S
H3385 C3397 0.950 . S
H3386 C3394 0.950 . S
H3387 C3396 0.950 . S
H3388 C3398 0.950 . S
H3389 C3400 0.950 . S
H3390 C3402 0.950 . S
H3391 C3403 0.950 . S
C3392 H3384 0.950 . S
C3392 C3393 1.386 . S
C3392 C3394 1.391 . S
C3393 C3392 1.386 . S
C3393 C3397 1.393 . S
C3394 H3386 0.950 . S
C3394 C3392 1.391 . S
C3394 C3395 1.400 . S
C3395 C3394 1.400 . S
C3395 C3396 1.398 . S
C3395 C3401 1.491 . S
C3396 H3387 0.950 . S
C3396 C3395 1.398 . S
C3396 C3397 1.391 . S
C3397 H3385 0.950 . S
C3397 C3393 1.393 . S
C3397 C3396 1.391 . S
C3398 H3388 0.950 . S
C3398 C3399 1.386 . S
C3398 C3400 1.391 . S
C3399 C3398 1.386 . S
C3399 C3403 1.393 . S
C3400 H3389 0.950 . S
C3400 C3398 1.391 . S
C3400 C3401 1.400 . S
C3401 C3395 1.491 . S
C3401 C3400 1.400 . S
C3401 C3402 1.398 . S
C3402 H3390 0.950 . S
C3402 C3401 1.398 . S
C3402 C3403 1.391 . S
C3403 H3391 0.950 . S
C3403 C3399 1.393 . S
C3403 C3402 1.391 . S
H3404 C3412 0.950 . S
H3405 C3417 0.950 . S
H3406 C3414 0.950 . S
H3407 C3416 0.950 . S
H3408 C3418 0.950 . S
H3409 C3420 0.950 . S
H3410 C3422 0.950 . S
H3411 C3423 0.950 . S
C3412 H3404 0.950 . S
C3412 C3413 1.386 . S
C3412 C3414 1.391 . S
C3413 C3412 1.386 . S
C3413 C3417 1.393 . S
C3414 H3406 0.950 . S
C3414 C3412 1.391 . S
C3414 C3415 1.400 . S
C3415 C3414 1.400 . S
C3415 C3416 1.398 . S
C3415 C3421 1.491 . S
C3416 H3407 0.950 . S
C3416 C3415 1.398 . S
C3416 C3417 1.391 . S
C3417 H3405 0.950 . S
C3417 C3413 1.393 . S
C3417 C3416 1.391 . S
C3418 H3408 0.950 . S
C3418 C3419 1.386 . S
C3418 C3420 1.391 . S
C3419 C3418 1.386 . S
C3419 C3423 1.393 . S
C3420 H3409 0.950 . S
C3420 C3418 1.391 . S
C3420 C3421 1.400 . S
C3421 C3415 1.491 . S
C3421 C3420 1.400 . S
C3421 C3422 1.398 . S
C3422 H3410 0.950 . S
C3422 C3421 1.398 . S
C3422 C3423 1.391 . S
C3423 H3411 0.950 . S
C3423 C3419 1.393 . S
C3423 C3422 1.391 . S
H3424 C3432 0.950 . S
H3425 C3437 0.950 . S
H3426 C3434 0.950 . S
H3427 C3436 0.950 . S
H3428 C3438 0.950 . S
H3429 C3440 0.950 . S
H3430 C3442 0.950 . S
H3431 C3443 0.950 . S
C3432 H3424 0.950 . S
C3432 C3433 1.386 . S
C3432 C3434 1.391 . S
C3433 C3432 1.386 . S
C3433 C3437 1.393 . S
C3434 H3426 0.950 . S
C3434 C3432 1.391 . S
C3434 C3435 1.400 . S
C3435 C3434 1.400 . S
C3435 C3436 1.398 . S
C3435 C3441 1.491 . S
C3436 H3427 0.950 . S
C3436 C3435 1.398 . S
C3436 C3437 1.391 . S
C3437 H3425 0.950 . S
C3437 C3433 1.393 . S
C3437 C3436 1.391 . S
C3438 H3428 0.950 . S
C3438 C3439 1.386 . S
C3438 C3440 1.391 . S
C3439 C3438 1.386 . S
C3439 C3443 1.393 . S
C3440 H3429 0.950 . S
C3440 C3438 1.391 . S
C3440 C3441 1.400 . S
C3441 C3435 1.491 . S
C3441 C3440 1.400 . S
C3441 C3442 1.398 . S
C3442 H3430 0.950 . S
C3442 C3441 1.398 . S
C3442 C3443 1.391 . S
C3443 H3431 0.950 . S
C3443 C3439 1.393 . S
C3443 C3442 1.391 . S
H3444 C3452 0.950 . S
H3445 C3457 0.950 . S
H3446 C3454 0.950 . S
H3447 C3456 0.950 . S
H3448 C3458 0.950 . S
H3449 C3460 0.950 . S
H3450 C3462 0.950 . S
H3451 C3463 0.950 . S
C3452 H3444 0.950 . S
C3452 C3453 1.386 . S
C3452 C3454 1.391 . S
C3453 C3452 1.386 . S
C3453 C3457 1.393 . S
C3454 H3446 0.950 . S
C3454 C3452 1.391 . S
C3454 C3455 1.400 . S
C3455 C3454 1.400 . S
C3455 C3456 1.398 . S
C3455 C3461 1.491 . S
C3456 H3447 0.950 . S
C3456 C3455 1.398 . S
C3456 C3457 1.391 . S
C3457 H3445 0.950 . S
C3457 C3453 1.393 . S
C3457 C3456 1.391 . S
C3458 H3448 0.950 . S
C3458 C3459 1.386 . S
C3458 C3460 1.391 . S
C3459 C3458 1.386 . S
C3459 C3463 1.393 . S
C3460 H3449 0.950 . S
C3460 C3458 1.391 . S
C3460 C3461 1.400 . S
C3461 C3455 1.491 . S
C3461 C3460 1.400 . S
C3461 C3462 1.398 . S
C3462 H3450 0.950 . S
C3462 C3461 1.398 . S
C3462 C3463 1.391 . S
C3463 H3451 0.950 . S
C3463 C3459 1.393 . S
C3463 C3462 1.391 . S
H3464 C3472 0.950 . S
H3465 C3477 0.950 . S
H3466 C3474 0.950 . S
H3467 C3476 0.950 . S
H3468 C3478 0.950 . S
H3469 C3480 0.950 . S
H3470 C3482 0.950 . S
H3471 C3483 0.950 . S
C3472 H3464 0.950 . S
C3472 C3473 1.386 . S
C3472 C3474 1.391 . S
C3473 C3472 1.386 . S
C3473 C3477 1.393 . S
C3474 H3466 0.950 . S
C3474 C3472 1.391 . S
C3474 C3475 1.400 . S
C3475 C3474 1.400 . S
C3475 C3476 1.398 . S
C3475 C3481 1.491 . S
C3476 H3467 0.950 . S
C3476 C3475 1.398 . S
C3476 C3477 1.391 . S
C3477 H3465 0.950 . S
C3477 C3473 1.393 . S
C3477 C3476 1.391 . S
C3478 H3468 0.950 . S
C3478 C3479 1.386 . S
C3478 C3480 1.391 . S
C3479 C3478 1.386 . S
C3479 C3483 1.393 . S
C3480 H3469 0.950 . S
C3480 C3478 1.391 . S
C3480 C3481 1.400 . S
C3481 C3475 1.491 . S
C3481 C3480 1.400 . S
C3481 C3482 1.398 . S
C3482 H3470 0.950 . S
C3482 C3481 1.398 . S
C3482 C3483 1.391 . S
C3483 H3471 0.950 . S
C3483 C3479 1.393 . S
C3483 C3482 1.391 . S
H3484 C3492 0.950 . S
H3485 C3497 0.950 . S
H3486 C3494 0.950 . S
H3487 C3496 0.950 . S
H3488 C3498 0.950 . S
H3489 C3500 0.950 . S
H3490 C3502 0.950 . S
H3491 C3503 0.950 . S
C3492 H3484 0.950 . S
C3492 C3493 1.386 . S
C3492 C3494 1.391 . S
C3493 C3492 1.386 . S
C3493 C3497 1.393 . S
C3494 H3486 0.950 . S
C3494 C3492 1.391 . S
C3494 C3495 1.400 . S
C3495 C3494 1.400 . S
C3495 C3496 1.398 . S
C3495 C3501 1.491 . S
C3496 H3487 0.950 . S
C3496 C3495 1.398 . S
C3496 C3497 1.391 . S
C3497 H3485 0.950 . S
C3497 C3493 1.393 . S
C3497 C3496 1.391 . S
C3498 H3488 0.950 . S
C3498 C3499 1.386 . S
C3498 C3500 1.391 . S
C3499 C3498 1.386 . S
C3499 C3503 1.393 . S
C3500 H3489 0.950 . S
C3500 C3498 1.391 . S
C3500 C3501 1.400 . S
C3501 C3495 1.491 . S
C3501 C3500 1.400 . S
C3501 C3502 1.398 . S
C3502 H3490 0.950 . S
C3502 C3501 1.398 . S
C3502 C3503 1.391 . S
C3503 H3491 0.950 . S
C3503 C3499 1.393 . S
C3503 C3502 1.391 . S
H3504 C3512 0.950 . S
H3505 C3517 0.950 . S
H3506 C3514 0.950 . S
H3507 C3516 0.950 . S
H3508 C3518 0.950 . S
H3509 C3520 0.950 . S
H3510 C3522 0.950 . S
H3511 C3523 0.950 . S
C3512 H3504 0.950 . S
C3512 C3513 1.386 . S
C3512 C3514 1.391 . S
C3513 C3512 1.386 . S
C3513 C3517 1.393 . S
C3514 H3506 0.950 . S
C3514 C3512 1.391 . S
C3514 C3515 1.400 . S
C3515 C3514 1.400 . S
C3515 C3516 1.398 . S
C3515 C3521 1.491 . S
C3516 H3507 0.950 . S
C3516 C3515 1.398 . S
C3516 C3517 1.391 . S
C3517 H3505 0.950 . S
C3517 C3513 1.393 . S
C3517 C3516 1.391 . S
C3518 H3508 0.950 . S
C3518 C3519 1.386 . S
C3518 C3520 1.391 . S
C3519 C3518 1.386 . S
C3519 C3523 1.393 . S
C3520 H3509 0.950 . S
C3520 C3518 1.391 . S
C3520 C3521 1.400 . S
C3521 C3515 1.491 . S
C3521 C3520 1.400 . S
C3521 C3522 1.398 . S
C3522 H3510 0.950 . S
C3522 C3521 1.398 . S
C3522 C3523 1.391 . S
C3523 H3511 0.950 . S
C3523 C3519 1.393 . S
C3523 C3522 1.391 . S
H3524 C3532 0.950 . S
H3525 C3537 0.950 . S
H3526 C3534 0.950 . S
H3527 C3536 0.950 . S
H3528 C3538 0.950 . S
H3529 C3540 0.950 . S
H3530 C3542 0.950 . S
H3531 C3543 0.950 . S
C3532 H3524 0.950 . S
C3532 C3533 1.386 1_545 S
C3532 C3534 1.391 . S
C3533 C3532 1.386 1_565 S
C3533 C3537 1.393 . S
C3534 H3526 0.950 . S
C3534 C3532 1.391 . S
C3534 C3535 1.400 1_545 S
C3535 C3534 1.400 1_565 S
C3535 C3536 1.398 . S
C3535 C3541 1.491 . S
C3536 H3527 0.950 . S
C3536 C3535 1.398 . S
C3536 C3537 1.391 . S
C3537 H3525 0.950 . S
C3537 C3533 1.393 . S
C3537 C3536 1.391 . S
C3538 H3528 0.950 . S
C3538 C3539 1.386 . S
C3538 C3540 1.391 . S
C3539 C3538 1.386 . S
C3539 C3543 1.393 1_565 S
C3540 H3529 0.950 . S
C3540 C3538 1.391 . S
C3540 C3541 1.400 . S
C3541 C3535 1.491 . S
C3541 C3540 1.400 . S
C3541 C3542 1.398 1_565 S
C3542 H3530 0.950 . S
C3542 C3541 1.398 1_545 S
C3542 C3543 1.391 . S
C3543 H3531 0.950 . S
C3543 C3539 1.393 1_545 S
C3543 C3542 1.391 . S
H3544 C3552 0.950 . S
H3545 C3557 0.950 . S
H3546 C3554 0.950 . S
H3547 C3556 0.950 . S
H3548 C3558 0.950 . S
H3549 C3560 0.950 . S
H3550 C3562 0.950 . S
H3551 C3563 0.950 . S
C3552 H3544 0.950 . S
C3552 C3553 1.386 . S
C3552 C3554 1.391 . S
C3553 C3552 1.386 . S
C3553 C3557 1.393 . S
C3554 H3546 0.950 . S
C3554 C3552 1.391 . S
C3554 C3555 1.400 . S
C3555 C3554 1.400 . S
C3555 C3556 1.398 . S
C3555 C3561 1.491 . S
C3556 H3547 0.950 . S
C3556 C3555 1.398 . S
C3556 C3557 1.391 . S
C3557 H3545 0.950 . S
C3557 C3553 1.393 . S
C3557 C3556 1.391 . S
C3558 H3548 0.950 . S
C3558 C3559 1.386 . S
C3558 C3560 1.391 . S
C3559 C3558 1.386 . S
C3559 C3563 1.393 . S
C3560 H3549 0.950 . S
C3560 C3558 1.391 . S
C3560 C3561 1.400 . S
C3561 C3555 1.491 . S
C3561 C3560 1.400 . S
C3561 C3562 1.398 . S
C3562 H3550 0.950 . S
C3562 C3561 1.398 . S
C3562 C3563 1.391 . S
C3563 H3551 0.950 . S
C3563 C3559 1.393 . S
C3563 C3562 1.391 . S
C2133 C3 1.501 . S
C2139 C652 1.508 . S
C2153 C534 1.512 . S
C2159 C62 1.497 . S
C2173 C593 1.497 . S
C2179 C121 1.512 . S
C2193 C180 1.504 . S
C2199 C416 1.506 . S
C2213 C239 1.507 . S
C2219 C475 1.502 . S
C2233 C298 1.511 . S
C2239 C357 1.498 . S
C2253 C711 1.511 . S
C2259 C1360 1.498 . S
C2273 C1242 1.512 . S
C2279 C770 1.497 . S
C2293 C829 1.497 . S
C2299 C1301 1.512 . S
C2313 C888 1.509 . S
C2319 C1124 1.500 . S
C2333 C947 1.511 . S
C2339 C1183 1.497 . S
C2353 C1006 1.511 . S
C2359 C1065 1.499 . S
C2373 C1419 1.503 . S
C2379 C2068 1.506 . S
C2393 C1478 1.510 . S
C2399 C1950 1.499 . S
C2413 C2009 1.505 . S
C2419 C1537 1.504 . S
C2433 C1596 1.497 . S
C2439 C1832 1.512 . S
C2453 C1891 1.502 . S
C2459 C1655 1.507 . S
C2473 C1773 1.512 . S
C2479 C1714 1.497 . S
C2493 C5 1.359 . S
C2499 C890 1.360 1_455 S
C2513 C64 1.360 . S
C2519 C949 1.369 . S
C2533 C123 1.368 . S
C2539 C1008 1.378 . S
C2553 C182 1.365 . S
C2559 C1421 1.369 . S
C2573 C1480 1.378 . S
C2579 C241 1.371 . S
C2593 C1539 1.378 . S
C2599 C300 1.371 . S
C2613 C359 1.360 . S
C2619 C1952 1.364 . S
C2633 C2011 1.360 . S
C2639 C418 1.369 . S
C2653 C477 1.369 . S
C2659 C2070 1.364 . S
C2673 C536 1.360 . S
C2679 C1067 1.364 . S
C2693 C595 1.361 . S
C2699 C1126 1.363 . S
C2713 C654 1.360 . S
C2719 C1185 1.364 . S
C2733 C1598 1.378 . S
C2739 C713 1.368 . S
C2753 C772 1.368 . S
C2759 C1657 1.360 . S
C2773 C831 1.362 . S
C2779 C1716 1.361 . S
C2793 C1775 1.361 . S
C2799 C1244 1.373 . S
C2813 C1834 1.367 . S
C2819 C1303 1.377 . S
C2833 C1362 1.361 . S
C2839 C1893 1.372 . S
C2853 C52 1.304 . S
C2859 C288 1.293 . S
C2873 C347 1.307 . S
C2879 C111 1.299 . S
C2893 C229 1.306 . S
C2899 C170 1.295 . S
C2913 C406 1.296 . S
C2919 C642 1.306 . S
C2933 C701 1.300 . S
C2939 C465 1.292 . S
C2953 C524 1.303 . S
C2959 C583 1.306 . S
C2973 C996 1.304 . S
C2979 C760 1.305 . S
C2993 C819 1.305 . S
C2999 C1055 1.305 . S
C3013 C878 1.303 . S
C3019 C937 1.306 . S
C3033 C1350 1.306 . S
C3039 C1114 1.303 . S
C3053 C1409 1.295 . S
C3059 C1173 1.306 . S
C3073 C1291 1.298 . S
C3079 C1232 1.293 . S
C3093 C1468 1.302 . S
C3099 C1704 1.306 . S
C3113 C1527 1.307 . S
C3119 C1763 1.300 . S
C3133 C1586 1.307 . S
C3139 C1645 1.300 . S
C3153 C2058 1.297 . S
C3159 C1822 1.294 . S
C3173 C2117 1.304 . S
C3179 C1881 1.293 . S
C3193 C1999 1.300 . S
C3199 C1940 1.307 . S
C3213 C564 2.076 . S
C3219 C33 2.077 . S
C3233 C623 2.076 . S
C3239 C92 2.077 . S
C3253 C151 2.078 . S
C3259 C682 2.076 . S
C3273 C210 2.079 . S
C3279 C387 2.074 . S
C3293 C446 2.079 . S
C3299 C269 2.075 . S
C3313 C328 2.079 . S
C3319 C505 2.074 . S
C3333 C1272 2.078 . S
C3339 C741 2.075 . S
C3353 C1331 2.079 . S
C3359 C800 2.074 . S
C3373 C859 2.075 . S
C3379 C1390 2.078 . S
C3393 C1095 2.077 . S
C3399 C918 2.076 . S
C3413 C1154 2.075 . S
C3419 C977 2.079 . S
C3433 C1213 2.078 . S
C3439 C1036 2.075 . S
C3453 C1449 2.075 . S
C3459 C1980 2.079 . S
C3473 C2039 2.076 . S
C3479 C1508 2.077 . S
C3493 C1567 2.079 . S
C3499 C2098 2.075 . S
C3513 C1626 2.077 . S
C3519 C1803 2.076 . S
C3533 C1685 2.078 . S
C3539 C1862 2.075 . S
C3553 C1921 2.074 . S
C3559 C1744 2.079 . S
