# Generated by pormake.
# Topology fcl, (5)-cn, num edge types: 1
# Building blocks:
#     Node 0, Type 0, BuildingBlock: BEQFEK_clean_sbu_0, # of connection points: 5
#     Node 1, Type 0, BuildingBlock: BEQFEK_clean_sbu_0, # of connection points: 5
#     Node 2, Type 0, BuildingBlock: BEQFEK_clean_sbu_0, # of connection points: 5
#     Node 3, Type 0, BuildingBlock: BEQFEK_clean_sbu_0, # of connection points: 5
#     Node 4, Type 0, BuildingBlock: BEQFEK_clean_sbu_0, # of connection points: 5
#     Node 5, Type 0, BuildingBlock: BEQFEK_clean_sbu_0, # of connection points: 5
#     Node 6, Type 0, BuildingBlock: BEQFEK_clean_sbu_0, # of connection points: 5
#     Node 7, Type 0, BuildingBlock: BEQFEK_clean_sbu_0, # of connection points: 5
#     Node 8, Type 0, BuildingBlock: BEQFEK_clean_sbu_0, # of connection points: 5
#     Node 9, Type 0, BuildingBlock: BEQFEK_clean_sbu_0, # of connection points: 5
#     Node 10, Type 0, BuildingBlock: BEQFEK_clean_sbu_0, # of connection points: 5
#     Node 11, Type 0, BuildingBlock: BEQFEK_clean_sbu_0, # of connection points: 5
#     Node 12, Type 0, BuildingBlock: BEQFEK_clean_sbu_0, # of connection points: 5
#     Node 13, Type 0, BuildingBlock: BEQFEK_clean_sbu_0, # of connection points: 5
#     Node 14, Type 0, BuildingBlock: BEQFEK_clean_sbu_0, # of connection points: 5
#     Node 15, Type 0, BuildingBlock: BEQFEK_clean_sbu_0, # of connection points: 5
#     Node 16, Type 0, BuildingBlock: BEQFEK_clean_sbu_0, # of connection points: 5
#     Node 17, Type 0, BuildingBlock: BEQFEK_clean_sbu_0, # of connection points: 5
#     Node 18, Type 0, BuildingBlock: BEQFEK_clean_sbu_0, # of connection points: 5
#     Node 19, Type 0, BuildingBlock: BEQFEK_clean_sbu_0, # of connection points: 5
#     Node 20, Type 0, BuildingBlock: BEQFEK_clean_sbu_0, # of connection points: 5
#     Node 21, Type 0, BuildingBlock: BEQFEK_clean_sbu_0, # of connection points: 5
#     Node 22, Type 0, BuildingBlock: BEQFEK_clean_sbu_0, # of connection points: 5
#     Node 23, Type 0, BuildingBlock: BEQFEK_clean_sbu_0, # of connection points: 5
#     Node 24, Type 0, BuildingBlock: BEQFEK_clean_sbu_0, # of connection points: 5
#     Node 25, Type 0, BuildingBlock: BEQFEK_clean_sbu_0, # of connection points: 5
#     Node 26, Type 0, BuildingBlock: BEQFEK_clean_sbu_0, # of connection points: 5
#     Node 27, Type 0, BuildingBlock: BEQFEK_clean_sbu_0, # of connection points: 5
#     Node 28, Type 0, BuildingBlock: BEQFEK_clean_sbu_0, # of connection points: 5
#     Node 29, Type 0, BuildingBlock: BEQFEK_clean_sbu_0, # of connection points: 5
#     Node 30, Type 0, BuildingBlock: BEQFEK_clean_sbu_0, # of connection points: 5
#     Node 31, Type 0, BuildingBlock: BEQFEK_clean_sbu_0, # of connection points: 5
#     Node 32, Type 0, BuildingBlock: BEQFEK_clean_sbu_0, # of connection points: 5
#     Node 33, Type 0, BuildingBlock: BEQFEK_clean_sbu_0, # of connection points: 5
#     Node 34, Type 0, BuildingBlock: BEQFEK_clean_sbu_0, # of connection points: 5
#     Node 35, Type 0, BuildingBlock: BEQFEK_clean_sbu_0, # of connection points: 5
#     Node 36, Type 0, BuildingBlock: BEQFEK_clean_sbu_0, # of connection points: 5
#     Node 37, Type 0, BuildingBlock: BEQFEK_clean_sbu_0, # of connection points: 5
#     Node 38, Type 0, BuildingBlock: BEQFEK_clean_sbu_0, # of connection points: 5
#     Node 39, Type 0, BuildingBlock: BEQFEK_clean_sbu_0, # of connection points: 5
#     Node 40, Type 0, BuildingBlock: BEQFEK_clean_sbu_0, # of connection points: 5
#     Node 41, Type 0, BuildingBlock: BEQFEK_clean_sbu_0, # of connection points: 5
#     Node 42, Type 0, BuildingBlock: BEQFEK_clean_sbu_0, # of connection points: 5
#     Node 43, Type 0, BuildingBlock: BEQFEK_clean_sbu_0, # of connection points: 5
#     Node 44, Type 0, BuildingBlock: BEQFEK_clean_sbu_0, # of connection points: 5
#     Node 45, Type 0, BuildingBlock: BEQFEK_clean_sbu_0, # of connection points: 5
#     Node 46, Type 0, BuildingBlock: BEQFEK_clean_sbu_0, # of connection points: 5
#     Node 47, Type 0, BuildingBlock: BEQFEK_clean_sbu_0, # of connection points: 5
#     Edge 48, Type (0, 0), BuildingBlock: EZIPEK_clean_linker_0, # of connection points: 2
#     Edge 49, Type (0, 0), BuildingBlock: EZIPEK_clean_linker_0, # of connection points: 2
#     Edge 50, Type (0, 0), BuildingBlock: EZIPEK_clean_linker_0, # of connection points: 2
#     Edge 51, Type (0, 0), BuildingBlock: EZIPEK_clean_linker_0, # of connection points: 2
#     Edge 52, Type (0, 0), BuildingBlock: EZIPEK_clean_linker_0, # of connection points: 2
#     Edge 53, Type (0, 0), BuildingBlock: EZIPEK_clean_linker_0, # of connection points: 2
#     Edge 54, Type (0, 0), BuildingBlock: EZIPEK_clean_linker_0, # of connection points: 2
#     Edge 55, Type (0, 0), BuildingBlock: EZIPEK_clean_linker_0, # of connection points: 2
#     Edge 56, Type (0, 0), BuildingBlock: EZIPEK_clean_linker_0, # of connection points: 2
#     Edge 57, Type (0, 0), BuildingBlock: EZIPEK_clean_linker_0, # of connection points: 2
#     Edge 58, Type (0, 0), BuildingBlock: EZIPEK_clean_linker_0, # of connection points: 2
#     Edge 59, Type (0, 0), BuildingBlock: EZIPEK_clean_linker_0, # of connection points: 2
#     Edge 60, Type (0, 0), BuildingBlock: EZIPEK_clean_linker_0, # of connection points: 2
#     Edge 61, Type (0, 0), BuildingBlock: EZIPEK_clean_linker_0, # of connection points: 2
#     Edge 62, Type (0, 0), BuildingBlock: EZIPEK_clean_linker_0, # of connection points: 2
#     Edge 63, Type (0, 0), BuildingBlock: EZIPEK_clean_linker_0, # of connection points: 2
#     Edge 64, Type (0, 0), BuildingBlock: EZIPEK_clean_linker_0, # of connection points: 2
#     Edge 65, Type (0, 0), BuildingBlock: EZIPEK_clean_linker_0, # of connection points: 2
#     Edge 66, Type (0, 0), BuildingBlock: EZIPEK_clean_linker_0, # of connection points: 2
#     Edge 67, Type (0, 0), BuildingBlock: EZIPEK_clean_linker_0, # of connection points: 2
#     Edge 68, Type (0, 0), BuildingBlock: EZIPEK_clean_linker_0, # of connection points: 2
#     Edge 69, Type (0, 0), BuildingBlock: EZIPEK_clean_linker_0, # of connection points: 2
#     Edge 70, Type (0, 0), BuildingBlock: EZIPEK_clean_linker_0, # of connection points: 2
#     Edge 71, Type (0, 0), BuildingBlock: EZIPEK_clean_linker_0, # of connection points: 2
#     Edge 72, Type (0, 0), BuildingBlock: EZIPEK_clean_linker_0, # of connection points: 2
#     Edge 73, Type (0, 0), BuildingBlock: EZIPEK_clean_linker_0, # of connection points: 2
#     Edge 74, Type (0, 0), BuildingBlock: EZIPEK_clean_linker_0, # of connection points: 2
#     Edge 75, Type (0, 0), BuildingBlock: EZIPEK_clean_linker_0, # of connection points: 2
#     Edge 76, Type (0, 0), BuildingBlock: EZIPEK_clean_linker_0, # of connection points: 2
#     Edge 77, Type (0, 0), BuildingBlock: EZIPEK_clean_linker_0, # of connection points: 2
#     Edge 78, Type (0, 0), BuildingBlock: EZIPEK_clean_linker_0, # of connection points: 2
#     Edge 79, Type (0, 0), BuildingBlock: EZIPEK_clean_linker_0, # of connection points: 2
#     Edge 80, Type (0, 0), BuildingBlock: EZIPEK_clean_linker_0, # of connection points: 2
#     Edge 81, Type (0, 0), BuildingBlock: EZIPEK_clean_linker_0, # of connection points: 2
#     Edge 82, Type (0, 0), BuildingBlock: EZIPEK_clean_linker_0, # of connection points: 2
#     Edge 83, Type (0, 0), BuildingBlock: EZIPEK_clean_linker_0, # of connection points: 2
#     Edge 84, Type (0, 0), BuildingBlock: EZIPEK_clean_linker_0, # of connection points: 2
#     Edge 85, Type (0, 0), BuildingBlock: EZIPEK_clean_linker_0, # of connection points: 2
#     Edge 86, Type (0, 0), BuildingBlock: EZIPEK_clean_linker_0, # of connection points: 2
#     Edge 87, Type (0, 0), BuildingBlock: EZIPEK_clean_linker_0, # of connection points: 2
#     Edge 88, Type (0, 0), BuildingBlock: EZIPEK_clean_linker_0, # of connection points: 2
#     Edge 89, Type (0, 0), BuildingBlock: EZIPEK_clean_linker_0, # of connection points: 2
#     Edge 90, Type (0, 0), BuildingBlock: EZIPEK_clean_linker_0, # of connection points: 2
#     Edge 91, Type (0, 0), BuildingBlock: EZIPEK_clean_linker_0, # of connection points: 2
#     Edge 92, Type (0, 0), BuildingBlock: EZIPEK_clean_linker_0, # of connection points: 2
#     Edge 93, Type (0, 0), BuildingBlock: EZIPEK_clean_linker_0, # of connection points: 2
#     Edge 94, Type (0, 0), BuildingBlock: EZIPEK_clean_linker_0, # of connection points: 2
#     Edge 95, Type (0, 0), BuildingBlock: EZIPEK_clean_linker_0, # of connection points: 2
#     Edge 96, Type (0, 0), BuildingBlock: EZIPEK_clean_linker_0, # of connection points: 2
#     Edge 97, Type (0, 0), BuildingBlock: EZIPEK_clean_linker_0, # of connection points: 2
#     Edge 98, Type (0, 0), BuildingBlock: EZIPEK_clean_linker_0, # of connection points: 2
#     Edge 99, Type (0, 0), BuildingBlock: EZIPEK_clean_linker_0, # of connection points: 2
#     Edge 100, Type (0, 0), BuildingBlock: EZIPEK_clean_linker_0, # of connection points: 2
#     Edge 101, Type (0, 0), BuildingBlock: EZIPEK_clean_linker_0, # of connection points: 2
#     Edge 102, Type (0, 0), BuildingBlock: EZIPEK_clean_linker_0, # of connection points: 2
#     Edge 103, Type (0, 0), BuildingBlock: EZIPEK_clean_linker_0, # of connection points: 2
#     Edge 104, Type (0, 0), BuildingBlock: EZIPEK_clean_linker_0, # of connection points: 2
#     Edge 105, Type (0, 0), BuildingBlock: EZIPEK_clean_linker_0, # of connection points: 2
#     Edge 106, Type (0, 0), BuildingBlock: EZIPEK_clean_linker_0, # of connection points: 2
#     Edge 107, Type (0, 0), BuildingBlock: EZIPEK_clean_linker_0, # of connection points: 2
#     Edge 108, Type (0, 0), BuildingBlock: EZIPEK_clean_linker_0, # of connection points: 2
#     Edge 109, Type (0, 0), BuildingBlock: EZIPEK_clean_linker_0, # of connection points: 2
#     Edge 110, Type (0, 0), BuildingBlock: EZIPEK_clean_linker_0, # of connection points: 2
#     Edge 111, Type (0, 0), BuildingBlock: EZIPEK_clean_linker_0, # of connection points: 2
#     Edge 112, Type (0, 0), BuildingBlock: EZIPEK_clean_linker_0, # of connection points: 2
#     Edge 113, Type (0, 0), BuildingBlock: EZIPEK_clean_linker_0, # of connection points: 2
#     Edge 114, Type (0, 0), BuildingBlock: EZIPEK_clean_linker_0, # of connection points: 2
#     Edge 115, Type (0, 0), BuildingBlock: EZIPEK_clean_linker_0, # of connection points: 2
#     Edge 116, Type (0, 0), BuildingBlock: EZIPEK_clean_linker_0, # of connection points: 2
#     Edge 117, Type (0, 0), BuildingBlock: EZIPEK_clean_linker_0, # of connection points: 2
#     Edge 118, Type (0, 0), BuildingBlock: EZIPEK_clean_linker_0, # of connection points: 2
#     Edge 119, Type (0, 0), BuildingBlock: EZIPEK_clean_linker_0, # of connection points: 2
#     Edge 120, Type (0, 0), BuildingBlock: EZIPEK_clean_linker_0, # of connection points: 2
#     Edge 121, Type (0, 0), BuildingBlock: EZIPEK_clean_linker_0, # of connection points: 2
#     Edge 122, Type (0, 0), BuildingBlock: EZIPEK_clean_linker_0, # of connection points: 2
#     Edge 123, Type (0, 0), BuildingBlock: EZIPEK_clean_linker_0, # of connection points: 2
#     Edge 124, Type (0, 0), BuildingBlock: EZIPEK_clean_linker_0, # of connection points: 2
#     Edge 125, Type (0, 0), BuildingBlock: EZIPEK_clean_linker_0, # of connection points: 2
#     Edge 126, Type (0, 0), BuildingBlock: EZIPEK_clean_linker_0, # of connection points: 2
#     Edge 127, Type (0, 0), BuildingBlock: EZIPEK_clean_linker_0, # of connection points: 2
#     Edge 128, Type (0, 0), BuildingBlock: EZIPEK_clean_linker_0, # of connection points: 2
#     Edge 129, Type (0, 0), BuildingBlock: EZIPEK_clean_linker_0, # of connection points: 2
#     Edge 130, Type (0, 0), BuildingBlock: EZIPEK_clean_linker_0, # of connection points: 2
#     Edge 131, Type (0, 0), BuildingBlock: EZIPEK_clean_linker_0, # of connection points: 2
#     Edge 132, Type (0, 0), BuildingBlock: EZIPEK_clean_linker_0, # of connection points: 2
#     Edge 133, Type (0, 0), BuildingBlock: EZIPEK_clean_linker_0, # of connection points: 2
#     Edge 134, Type (0, 0), BuildingBlock: EZIPEK_clean_linker_0, # of connection points: 2
#     Edge 135, Type (0, 0), BuildingBlock: EZIPEK_clean_linker_0, # of connection points: 2
#     Edge 136, Type (0, 0), BuildingBlock: EZIPEK_clean_linker_0, # of connection points: 2
#     Edge 137, Type (0, 0), BuildingBlock: EZIPEK_clean_linker_0, # of connection points: 2
#     Edge 138, Type (0, 0), BuildingBlock: EZIPEK_clean_linker_0, # of connection points: 2
#     Edge 139, Type (0, 0), BuildingBlock: EZIPEK_clean_linker_0, # of connection points: 2
#     Edge 140, Type (0, 0), BuildingBlock: EZIPEK_clean_linker_0, # of connection points: 2
#     Edge 141, Type (0, 0), BuildingBlock: EZIPEK_clean_linker_0, # of connection points: 2
#     Edge 142, Type (0, 0), BuildingBlock: EZIPEK_clean_linker_0, # of connection points: 2
#     Edge 143, Type (0, 0), BuildingBlock: EZIPEK_clean_linker_0, # of connection points: 2
#     Edge 144, Type (0, 0), BuildingBlock: EZIPEK_clean_linker_0, # of connection points: 2
#     Edge 145, Type (0, 0), BuildingBlock: EZIPEK_clean_linker_0, # of connection points: 2
#     Edge 146, Type (0, 0), BuildingBlock: EZIPEK_clean_linker_0, # of connection points: 2
#     Edge 147, Type (0, 0), BuildingBlock: EZIPEK_clean_linker_0, # of connection points: 2
#     Edge 148, Type (0, 0), BuildingBlock: EZIPEK_clean_linker_0, # of connection points: 2
#     Edge 149, Type (0, 0), BuildingBlock: EZIPEK_clean_linker_0, # of connection points: 2
#     Edge 150, Type (0, 0), BuildingBlock: EZIPEK_clean_linker_0, # of connection points: 2
#     Edge 151, Type (0, 0), BuildingBlock: EZIPEK_clean_linker_0, # of connection points: 2
#     Edge 152, Type (0, 0), BuildingBlock: EZIPEK_clean_linker_0, # of connection points: 2
#     Edge 153, Type (0, 0), BuildingBlock: EZIPEK_clean_linker_0, # of connection points: 2
#     Edge 154, Type (0, 0), BuildingBlock: EZIPEK_clean_linker_0, # of connection points: 2
#     Edge 155, Type (0, 0), BuildingBlock: EZIPEK_clean_linker_0, # of connection points: 2
#     Edge 156, Type (0, 0), BuildingBlock: EZIPEK_clean_linker_0, # of connection points: 2
#     Edge 157, Type (0, 0), BuildingBlock: EZIPEK_clean_linker_0, # of connection points: 2
#     Edge 158, Type (0, 0), BuildingBlock: EZIPEK_clean_linker_0, # of connection points: 2
#     Edge 159, Type (0, 0), BuildingBlock: EZIPEK_clean_linker_0, # of connection points: 2
#     Edge 160, Type (0, 0), BuildingBlock: EZIPEK_clean_linker_0, # of connection points: 2
#     Edge 161, Type (0, 0), BuildingBlock: EZIPEK_clean_linker_0, # of connection points: 2
#     Edge 162, Type (0, 0), BuildingBlock: EZIPEK_clean_linker_0, # of connection points: 2
#     Edge 163, Type (0, 0), BuildingBlock: EZIPEK_clean_linker_0, # of connection points: 2
#     Edge 164, Type (0, 0), BuildingBlock: EZIPEK_clean_linker_0, # of connection points: 2
#     Edge 165, Type (0, 0), BuildingBlock: EZIPEK_clean_linker_0, # of connection points: 2
#     Edge 166, Type (0, 0), BuildingBlock: EZIPEK_clean_linker_0, # of connection points: 2
#     Edge 167, Type (0, 0), BuildingBlock: EZIPEK_clean_linker_0, # of connection points: 2
# Relax obj value: 0.521
# Max RMSD: 0.277
# Mean RMSD: 0.277
data_MOF--net-fcl--node1-BEQFEK_clean_sbu_0--edge1-EZIPEK_clean_linker_0
_symmetry_space_group_name_H-M    P1
_symmetry_Int_Tables_number       1
_symmetry_cell_setting            triclinic
loop_
_symmetry_equiv_pos_as_xyz
'x, y, z'
_cell_length_a     50.593949
_cell_length_b     50.655116
_cell_length_c     50.618915
_cell_angle_alpha  90.003295
_cell_angle_beta   89.965795
_cell_angle_gamma 90.035192
loop_
_atom_site_label
_atom_site_type_symbol
_atom_site_fract_x
_atom_site_fract_y
_atom_site_fract_z
_atom_type_partial_charge
Co0 Co 0.04214 0.14351 0.4769 0.0
Co1 Co 0.02587 0.1579 0.41859 0.0
C2 C 0.01905 0.19812 0.4586 0.0
O3 O 0.02852 0.18219 0.4761 0.0
O4 O 0.01541 0.19125 0.43459 0.0
C5 C 0.04601 0.13348 0.53761 0.0
O6 O 0.04466 0.15834 0.54482 0.0
C7 C 1.00241 0.16408 0.36484 0.0
C8 C 0.01162 0.12388 0.3504 0.0
C9 C 0.99677 0.14607 0.34472 0.0
N10 N 0.01845 0.1521 0.38228 0.0
N11 N 0.02471 0.12859 0.37292 0.0
C12 C 0.99312 0.19199 0.36764 0.0
H13 H 0.01056 0.20529 0.36812 0.0
H14 H 0.98269 0.19442 0.38678 0.0
H15 H 0.98003 0.19774 0.35101 0.0
C16 C 1.00369 0.09907 0.46528 0.0
N17 N 0.01821 0.12055 0.45841 0.0
N18 N 0.00855 0.13004 0.43635 0.0
C19 C 0.98646 0.11657 0.4299 0.0
C20 C 0.9827 0.0964 0.44783 0.0
C21 C 0.01037 0.0798 0.48657 0.0
H22 H 0.01507 0.06046 0.47744 0.0
H23 H 0.02776 0.08601 0.49811 0.0
H24 H 0.99281 0.0765 0.49925 0.0
O25 O 0.07792 0.14523 0.46006 0.0
O26 O 0.0648 0.15831 0.4204 0.0
H27 H 0.97402 0.11484 0.38974 0.0
H28 H 0.94739 0.11818 0.41267 0.0
C29 C 0.96795 0.12442 0.40842 0.0
H30 H 0.96864 0.14614 0.40632 0.0
H31 H 0.03621 0.11485 0.3831 0.0
O32 O 0.0454 0.12729 0.51323 0.0
C33 C 0.08311 0.15351 0.43683 0.0
Co34 Co 0.11426 0.79016 0.73139 0.0
Co35 Co 0.10281 0.77224 0.67259 0.0
C36 C 0.06102 0.76665 0.71371 0.0
O37 O 0.07649 0.77557 0.73187 0.0
O38 O 0.06846 0.76372 0.68964 0.0
C39 C 0.12941 0.79084 0.79029 0.0
O40 O 0.10811 0.77799 0.79769 0.0
C41 C 0.09908 0.74584 0.6192 0.0
C42 C 0.13938 0.75673 0.60602 0.0
C43 C 0.11805 0.74093 0.59971 0.0
N44 N 0.10969 0.76266 0.63686 0.0
N45 N 0.13329 0.76975 0.62821 0.0
C46 C 0.07173 0.73478 0.62138 0.0
H47 H 0.05731 0.75129 0.62117 0.0
H48 H 0.0694 0.72454 0.64063 0.0
H49 H 0.06734 0.72106 0.60485 0.0
C50 C 0.15662 0.74901 0.72446 0.0
N51 N 0.13726 0.76486 0.71486 0.0
N52 N 0.12995 0.75565 0.69181 0.0
C53 C 0.14302 0.73296 0.68688 0.0
C54 C 0.16059 0.72803 0.70714 0.0
C55 C 0.16955 0.75229 0.75069 0.0
H56 H 0.17517 0.77323 0.75373 0.0
H57 H 0.15515 0.74645 0.76602 0.0
H58 H 0.18735 0.73961 0.75249 0.0
O59 O 0.11021 0.82479 0.71217 0.0
O60 O 0.10423 0.81105 0.67113 0.0
H61 H 0.14587 0.7189 0.64733 0.0
H62 H 0.14097 0.69328 0.67131 0.0
C63 C 0.13547 0.71378 0.66589 0.0
H64 H 0.11382 0.71478 0.66293 0.0
H65 H 0.14611 0.7821 0.63862 0.0
O66 O 0.13225 0.79763 0.76621 0.0
C67 C 0.10547 0.82961 0.68789 0.0
Co68 Co 0.47182 0.86391 0.98648 0.0
Co69 Co 0.49222 0.85441 0.92837 0.0
C70 C 0.49604 0.81117 0.96759 0.0
O71 O 0.48623 0.82598 0.98586 0.0
O72 O 0.50023 0.81952 0.94405 0.0
C73 C 0.47327 0.88125 0.04306 0.0
O74 O 0.49647 0.86973 0.04469 0.0
C75 C 0.5203 0.85193 0.87561 0.0
C76 C 0.50832 0.89168 0.86195 0.0
C77 C 0.52459 0.87069 0.85584 0.0
N78 N 0.50315 0.86223 0.89316 0.0
N79 N 0.49553 0.88556 0.8843 0.0
C80 C 0.53275 0.82528 0.87833 0.0
H81 H 0.51709 0.80998 0.8771 0.0
H82 H 0.54205 0.82338 0.89808 0.0
H83 H 0.54761 0.82177 0.86257 0.0
C84 C 0.51377 0.90659 0.98309 0.0
N85 N 0.4979 0.88773 0.97236 0.0
N86 N 0.50807 0.88067 0.9496 0.0
C87 C 0.53135 0.89307 0.94618 0.0
C88 C 0.53585 0.90997 0.96704 0.0
C89 C 0.50829 0.92163 0.00788 0.0
H90 H 0.51742 0.91138 0.0249 0.0
H91 H 0.51729 0.9416 0.00674 0.0
H92 H 0.48671 0.92363 0.01093 0.0
O93 O 0.43823 0.86091 0.96576 0.0
O94 O 0.45342 0.85573 0.9252 0.0
H95 H 0.54589 0.89673 0.90705 0.0
H96 H 0.57136 0.89135 0.93121 0.0
C97 C 0.5509 0.88597 0.92543 0.0
H98 H 0.54991 0.86441 0.922 0.0
H99 H 0.48269 0.89806 0.89449 0.0
O100 O 0.46076 0.87914 0.02136 0.0
C101 C 0.43424 0.85684 0.94127 0.0
Co102 Co 0.3975 0.23106 0.22481 0.0
Co103 Co 0.41285 0.24747 0.16652 0.0
C104 C 0.45076 0.25071 0.21451 0.0
O105 O 0.43413 0.24385 0.23223 0.0
O106 O 0.44428 0.25225 0.19021 0.0
C107 C 0.38219 0.2136 0.28108 0.0
O108 O 0.40671 0.20737 0.28685 0.0
C109 C 0.43306 0.29841 0.13569 0.0
C110 C 0.44439 0.26916 0.08046 0.0
C111 C 0.44889 0.30625 0.09876 0.0
N112 N 0.42282 0.26431 0.13438 0.0
N113 N 0.4287 0.24893 0.10583 0.0
C114 C 0.42993 0.31667 0.15848 0.0
H115 H 0.42123 0.30607 0.17556 0.0
H116 H 0.41711 0.33341 0.15255 0.0
H117 H 0.44953 0.32489 0.16381 0.0
C118 C 0.35791 0.27415 0.21467 0.0
N119 N 0.37753 0.25802 0.20642 0.0
N120 N 0.38237 0.2632 0.18141 0.0
C121 C 0.36518 0.28181 0.17291 0.0
C122 C 0.34967 0.28987 0.19389 0.0
C123 C 0.34844 0.27604 0.2424 0.0
H124 H 0.33243 0.29081 0.24473 0.0
H125 H 0.34109 0.2565 0.24892 0.0
H126 H 0.36545 0.28214 0.25468 0.0
O127 O 0.4032 0.19739 0.20308 0.0
O128 O 0.40845 0.20946 0.16112 0.0
H129 H 0.36264 0.2728 0.13201 0.0
H130 H 0.34289 0.30077 0.14192 0.0
C131 C 0.36198 0.29042 0.14494 0.0
H132 H 0.37809 0.30416 0.13962 0.0
H133 H 0.42459 0.2289 0.10318 0.0
O134 O 0.37663 0.22272 0.25824 0.0
C135 C 0.40721 0.19157 0.17873 0.0
Co136 Co 0.0427 0.86574 0.03046 0.0
Co137 Co 0.02041 0.8529 0.08717 0.0
C138 C 0.01735 0.81176 0.04647 0.0
O139 O 0.02801 0.82755 0.02951 0.0
O140 O 0.01211 0.81895 0.07018 0.0
C141 C 0.03792 0.88477 0.97515 0.0
O142 O 0.01404 0.87458 0.97599 0.0
C143 C 0.99224 0.84978 0.13992 0.0
C144 C 1.00363 0.88979 0.15344 0.0
C145 C 0.98781 0.86847 0.15974 0.0
N146 N 0.00917 0.86034 0.1223 0.0
N147 N 0.01634 0.88387 0.13101 0.0
C148 C 0.98018 0.82294 0.13722 0.0
H149 H 0.99615 0.8081 0.13496 0.0
H150 H 0.96802 0.82212 0.119 0.0
H151 H 0.96781 0.81795 0.15464 0.0
C152 C 1.00168 0.90916 0.03592 0.0
N153 N 0.01647 0.88883 0.04532 0.0
N154 N 1.0052 0.88007 0.06695 0.0
C155 C 0.98223 0.89289 0.07081 0.0
C156 C 0.97924 0.91189 0.05158 0.0
C157 C 0.00879 0.92652 0.01314 0.0
H158 H 0.03046 0.92659 0.00997 0.0
H159 H 0.99846 0.91963 0.99512 0.0
H160 H 1.00203 0.94702 0.01697 0.0
O161 O 0.07645 0.86347 0.05156 0.0
O162 O 0.05917 0.85348 0.09045 0.0
H163 H 0.96542 0.89547 0.10924 0.0
H164 H 0.9416 0.89009 0.08354 0.0
C165 C 0.96176 0.8849 0.09043 0.0
H166 H 0.96285 0.86331 0.09367 0.0
H167 H 0.02891 0.89658 0.12073 0.0
O168 O 0.05258 0.88152 0.99532 0.0
C169 C 0.07915 0.85732 0.07582 0.0
Co170 Co 0.39972 0.78789 0.28188 0.0
Co171 Co 0.40876 0.77529 0.34185 0.0
C172 C 0.44984 0.76398 0.29772 0.0
O173 O 0.43517 0.77093 0.27832 0.0
O174 O 0.44151 0.76467 0.32162 0.0
C175 C 0.38077 0.78903 0.22521 0.0
O176 O 0.39552 0.7682 0.22062 0.0
C177 C 0.40701 0.73811 0.3855 0.0
C178 C 0.40294 0.76495 0.41973 0.0
C179 C 0.40089 0.73871 0.41226 0.0
N180 N 0.41067 0.76301 0.37727 0.0
N181 N 0.40909 0.77889 0.39794 0.0
C182 C 0.40773 0.71464 0.36746 0.0
H183 H 0.40528 0.72079 0.3466 0.0
H184 H 0.39255 0.69984 0.37305 0.0
H185 H 0.42736 0.70506 0.36903 0.0
C186 C 0.35633 0.74846 0.29113 0.0
N187 N 0.37588 0.76449 0.29986 0.0
N188 N 0.37724 0.76256 0.32571 0.0
C189 C 0.35735 0.74686 0.33426 0.0
C190 C 0.34425 0.73656 0.31264 0.0
C191 C 0.3499 0.74367 0.26274 0.0
H192 H 0.34127 0.76185 0.25416 0.0
H193 H 0.36826 0.73875 0.25188 0.0
H194 H 0.33549 0.7273 0.26039 0.0
O195 O 0.40759 0.82238 0.30109 0.0
O196 O 0.40925 0.81347 0.34392 0.0
H197 H 0.3267 0.74637 0.36337 0.0
H198 H 0.35303 0.72407 0.36972 0.0
C199 C 0.3485 0.74412 0.3623 0.0
H200 H 0.35777 0.75944 0.37483 0.0
H201 H 0.41031 0.79942 0.39686 0.0
O202 O 0.38103 0.79859 0.24846 0.0
C203 C 0.41079 0.82978 0.32503 0.0
Co204 Co 0.47307 0.14875 0.53188 0.0
Co205 Co 0.49489 0.16 0.58966 0.0
C206 C 0.50042 0.2001 0.54566 0.0
O207 O 0.49009 0.18492 0.52813 0.0
O208 O 0.50384 0.19254 0.56956 0.0
C209 C 0.46736 0.13089 0.47503 0.0
O210 O 0.48818 0.14515 0.46888 0.0
C211 C 0.53197 0.16649 0.63592 0.0
C212 C 0.5111 0.14034 0.66401 0.0
C213 C 0.53422 0.15447 0.66059 0.0
N214 N 0.50883 0.15886 0.62501 0.0
N215 N 0.49625 0.1439 0.64234 0.0
C216 C 0.55134 0.18466 0.6229 0.0
H217 H 0.55157 0.18138 0.60123 0.0
H218 H 0.57143 0.18238 0.63137 0.0
H219 H 0.54484 0.2053 0.62629 0.0
C220 C 0.51253 0.10488 0.53612 0.0
N221 N 0.49795 0.12465 0.54682 0.0
N222 N 0.50676 0.12944 0.57079 0.0
C223 C 0.52708 0.11295 0.57579 0.0
C224 C 0.53181 0.09731 0.554 0.0
C225 C 0.5098 0.09465 0.5086 0.0
H226 H 0.48895 0.0891 0.505 0.0
H227 H 0.51573 0.11026 0.49447 0.0
H228 H 0.52248 0.07708 0.50533 0.0
O229 O 0.44075 0.15448 0.55436 0.0
O230 O 0.45618 0.16152 0.59472 0.0
H231 H 0.53329 0.11341 0.61728 0.0
H232 H 0.5607 0.10021 0.59899 0.0
C233 C 0.54488 0.11532 0.59885 0.0
H234 H 0.55419 0.13498 0.59755 0.0
H235 H 0.47818 0.13468 0.63864 0.0
O236 O 0.45936 0.1315 0.49884 0.0
C237 C 0.43697 0.15977 0.57871 0.0
Co238 Co 0.12017 0.22483 0.78493 0.0
Co239 Co 0.10486 0.24099 0.84283 0.0
C240 C 0.06434 0.24564 0.80248 0.0
O241 O 0.08102 0.23769 0.78487 0.0
O242 O 0.07076 0.24858 0.82674 0.0
C243 C 0.13157 0.21968 0.72462 0.0
O244 O 0.10672 0.21924 0.71717 0.0
C245 C 0.10422 0.26868 0.89549 0.0
C246 C 0.13753 0.24656 0.91317 0.0
C247 C 0.12161 0.26833 0.91679 0.0
N248 N 0.11062 0.24857 0.87932 0.0
N249 N 0.13005 0.23519 0.8905 0.0
C250 C 0.0835 0.28896 0.88977 0.0
H251 H 0.07463 0.28569 0.86999 0.0
H252 H 0.09203 0.30909 0.89125 0.0
H253 H 0.06764 0.28754 0.90483 0.0
C254 C 0.16191 0.26572 0.79557 0.0
N255 N 0.14192 0.24977 0.80353 0.0
N256 N 0.13079 0.26041 0.82435 0.0
C257 C 0.1413 0.28457 0.82846 0.0
C258 C 0.16166 0.28854 0.81074 0.0
C259 C 0.18323 0.25832 0.77654 0.0
H260 H 0.2018 0.25524 0.78779 0.0
H261 H 0.17866 0.23981 0.76594 0.0
H262 H 0.18711 0.27486 0.76275 0.0
O263 O 0.12024 0.18928 0.80193 0.0
O264 O 0.10874 0.20168 0.84186 0.0
H265 H 0.13448 0.30187 0.86626 0.0
H266 H 0.13629 0.32542 0.83998 0.0
C267 C 0.1292 0.30541 0.84545 0.0
H268 H 0.10744 0.30478 0.84321 0.0
H269 H 0.14031 0.22003 0.88122 0.0
O270 O 0.13742 0.22163 0.74902 0.0
C271 C 0.11484 0.18338 0.82577 0.0
Co272 Co 0.48059 0.04378 0.14509 0.0
Co273 Co 0.42198 0.02609 0.15453 0.0
C274 C 0.46115 0.02076 0.19771 0.0
O275 O 0.4797 0.02962 0.18274 0.0
O276 O 0.43733 0.01781 0.18962 0.0
C277 C 0.53735 0.03931 0.13109 0.0
O278 O 0.53688 0.01658 0.14358 0.0
C279 C 0.36883 0.99982 0.15882 0.0
C280 C 0.35606 0.00756 0.1177 0.0
C281 C 0.34947 0.99358 0.14019 0.0
N282 N 0.38667 0.01566 0.14708 0.0
N283 N 0.37832 0.02089 0.12292 0.0
C284 C 0.37093 0.99052 0.1868 0.0
H285 H 0.3707 0.0079 0.20015 0.0
H286 H 0.39016 0.98041 0.18978 0.0
H287 H 0.35438 0.97708 0.19201 0.0
C288 C 0.4763 1.00092 0.10355 0.0
N289 N 0.46579 0.01783 0.12159 0.0
N290 N 0.44256 0.00874 0.12864 0.0
C291 C 0.43847 0.98514 0.11703 0.0
C292 C 0.45945 0.97938 0.10057 0.0
C293 C 0.5021 1.00455 0.08962 0.0
H294 H 0.50645 0.02584 0.08706 0.0
H295 H 0.51808 0.99504 0.10114 0.0
H296 H 0.50152 0.99485 0.06996 0.0
O297 O 0.46125 0.07822 0.14756 0.0
O298 O 0.41995 0.06499 0.15211 0.0
H299 H 0.3991 0.97047 0.11405 0.0
H300 H 0.42317 0.94544 0.12109 0.0
C301 C 0.41744 0.96618 0.12518 0.0
H302 H 0.41384 0.96846 0.14663 0.0
H303 H 0.38889 0.03222 0.10931 0.0
O304 O 0.51621 0.05287 0.13093 0.0
C305 C 0.43688 0.08342 0.15101 0.0
Co306 Co 0.23035 0.23307 0.40014 0.0
Co307 Co 0.24138 0.17298 0.4028 0.0
C308 C 0.24994 0.21362 0.44956 0.0
O309 O 0.24413 0.23451 0.43652 0.0
O310 O 0.2498 0.19065 0.43861 0.0
C311 C 0.23236 0.28758 0.37614 0.0
O312 O 0.2524 0.29386 0.39136 0.0
C313 C 0.27804 0.12771 0.40334 0.0
C314 C 0.25234 0.09706 0.38576 0.0
C315 C 0.27796 0.10209 0.39371 0.0
N316 N 0.25355 0.13758 0.40067 0.0
N317 N 0.23819 0.11895 0.3907 0.0
C318 C 0.30107 0.14286 0.41389 0.0
H319 H 0.29783 0.16438 0.41134 0.0
H320 H 0.3197 0.13654 0.40419 0.0
H321 H 0.30292 0.13876 0.43534 0.0
C322 C 0.27932 0.22659 0.36663 0.0
N323 N 0.25747 0.21729 0.37887 0.0
N324 N 0.25507 0.19219 0.37351 0.0
C325 C 0.2731 0.18544 0.35502 0.0
C326 C 0.28977 0.20692 0.35033 0.0
C327 C 0.29199 0.25244 0.37319 0.0
H328 H 0.28776 0.25768 0.39404 0.0
H329 H 0.31371 0.25152 0.37022 0.0
H330 H 0.28394 0.26805 0.36014 0.0
O331 O 0.19523 0.2127 0.40384 0.0
O332 O 0.20358 0.16993 0.40127 0.0
H333 H 0.2882 0.1573 0.32653 0.0
H334 H 0.26206 0.14495 0.34831 0.0
C335 C 0.2697 0.16214 0.33721 0.0
H336 H 0.2546 0.16716 0.32213 0.0
H337 H 0.21836 0.12166 0.38576 0.0
O338 O 0.21995 0.26608 0.38014 0.0
C339 C 0.18737 0.18868 0.40379 0.0
Co340 Co 0.02948 0.97757 0.65137 0.0
Co341 Co 0.08933 0.99047 0.65222 0.0
C342 C 0.04989 0.99924 0.6996 0.0
O343 O 0.02904 0.99202 0.68724 0.0
O344 O 0.07289 0.99943 0.68859 0.0
C345 C 0.97239 0.97492 0.63161 0.0
O346 O 0.96475 0.99355 0.64797 0.0
C347 C 0.13771 0.02359 0.65556 0.0
C348 C 0.16083 1.00434 0.62381 0.0
C349 C 0.16073 0.0259 0.64058 0.0
N350 N 0.12455 1.00213 0.64713 0.0
N351 N 0.13884 0.9904 0.62871 0.0
C352 C 0.12781 0.04156 0.67683 0.0
H353 H 0.1231 0.02974 0.69469 0.0
H354 H 0.10913 0.05097 0.67025 0.0
H355 H 0.14261 0.05695 0.68183 0.0
C356 C 0.03213 0.02507 0.61667 0.0
N357 N 0.04351 1.00431 0.62895 0.0
N358 N 0.06892 1.00476 0.62431 0.0
C359 C 0.07414 0.02408 0.60664 0.0
C360 C 0.05114 0.03832 0.60177 0.0
C361 C 1.00461 0.03426 0.62222 0.0
H362 H 0.99061 0.02335 0.60938 0.0
H363 H 0.99958 0.03024 0.64316 0.0
H364 H 1.00244 0.05569 0.61824 0.0
O365 O 0.05016 0.94308 0.65587 0.0
O366 O 0.09243 0.95241 0.65051 0.0
H367 H 0.10821 0.00807 0.58742 0.0
H368 H 0.09794 0.03996 0.57493 0.0
C369 C 0.10006 0.02763 0.59293 0.0
H370 H 0.11415 0.03724 0.60632 0.0
H371 H 0.1328 0.97363 0.61837 0.0
O372 O 0.99621 0.96716 0.63276 0.0
C373 C 0.07434 0.93584 0.65514 0.0
Co374 Co 0.28887 0.78061 0.90067 0.0
Co375 Co 0.27247 0.84013 0.90638 0.0
C376 C 0.26549 0.7996 0.95111 0.0
O377 O 0.27391 0.77988 0.93745 0.0
O378 O 0.26399 0.82314 0.94166 0.0
C379 C 0.29273 0.72511 0.87754 0.0
O380 O 0.27461 0.71597 0.89373 0.0
C381 C 0.24526 0.89249 0.91214 0.0
C382 C 0.25579 0.90803 0.87261 0.0
C383 C 0.23997 0.91283 0.89432 0.0
N384 N 0.26218 0.87568 0.90044 0.0
N385 N 0.26911 0.8857 0.87736 0.0
C386 C 0.23413 0.88853 0.93925 0.0
H387 H 0.25058 0.88834 0.95374 0.0
H388 H 0.2243 0.86897 0.94043 0.0
H389 H 0.21998 0.90444 0.94448 0.0
C390 C 0.24308 0.78271 0.86367 0.0
N391 N 0.26224 0.79501 0.87773 0.0
N392 N 0.25667 0.82015 0.87894 0.0
C393 C 0.23451 0.82477 0.86483 0.0
C394 C 0.22672 0.80174 0.85165 0.0
C395 C 0.23427 0.75552 0.87153 0.0
H396 H 0.24045 0.75158 0.89217 0.0
H397 H 0.21245 0.75356 0.87086 0.0
H398 H 0.24338 0.74045 0.85858 0.0
O399 O 0.32258 0.80142 0.90578 0.0
O400 O 0.31086 0.84326 0.90432 0.0
H401 H 0.22139 0.86493 0.8619 0.0
H402 H 0.19505 0.8416 0.86798 0.0
C403 C 0.21596 0.84649 0.87231 0.0
H404 H 0.21742 0.8495 0.89388 0.0
H405 H 0.28162 0.87622 0.86398 0.0
O406 O 0.30179 0.74831 0.88087 0.0
C407 C 0.32853 0.82582 0.90686 0.0
Co408 Co 0.48445 0.97963 0.36023 0.0
Co409 Co 0.42427 0.99101 0.35316 0.0
C410 C 0.46639 1.00072 0.30979 0.0
O411 O 0.48646 0.99425 0.32378 0.0
O412 O 0.44279 1.00015 0.31897 0.0
C413 C 0.54237 0.96971 0.37657 0.0
O414 O 0.55229 0.97058 0.3526 0.0
C415 C 0.37755 0.02493 0.3528 0.0
C416 C 0.34625 0.9957 0.36175 0.0
C417 C 0.3512 0.02251 0.35997 0.0
N418 N 0.38809 1.00066 0.35204 0.0
N419 N 0.36911 0.98325 0.35651 0.0
C420 C 0.39287 0.04982 0.34817 0.0
H421 H 0.41428 0.04657 0.3516 0.0
H422 H 0.38537 0.06613 0.36073 0.0
H423 H 0.39037 0.05582 0.32724 0.0
C424 C 0.47749 0.02296 0.39914 0.0
N425 N 0.46728 1.00476 0.38249 0.0
N426 N 0.44144 0.00682 0.38254 0.0
C427 C 0.43437 0.025 0.4008 0.0
C428 C 0.45692 0.03652 0.41122 0.0
C429 C 0.5064 0.02833 0.40224 0.0
H430 H 0.51497 0.01349 0.41589 0.0
H431 H 0.51651 0.02642 0.38286 0.0
H432 H 0.50997 0.04828 0.41058 0.0
O433 O 0.46635 0.94412 0.35517 0.0
O434 O 0.42354 0.95286 0.35558 0.0
H435 H 0.40581 0.03129 0.43142 0.0
H436 H 0.40039 0.05017 0.40233 0.0
C437 C 0.40674 0.03054 0.40954 0.0
H438 H 0.39335 0.01477 0.40265 0.0
H439 H 0.3721 0.96292 0.35776 0.0
O440 O 0.5177 0.97248 0.38019 0.0
C441 C 0.44234 0.93651 0.35369 0.0
Co442 Co 0.2891 0.23661 0.61204 0.0
Co443 Co 0.27708 0.17619 0.6123 0.0
C444 C 0.26967 0.21282 0.56325 0.0
O445 O 0.27745 0.23402 0.57477 0.0
O446 O 0.26786 0.19062 0.57553 0.0
C447 C 0.28773 0.29287 0.63273 0.0
O448 O 0.26801 0.29925 0.61715 0.0
C449 C 0.24435 0.12769 0.61077 0.0
C450 C 0.26341 0.10577 0.64343 0.0
C451 C 0.24183 0.10532 0.62662 0.0
N452 N 0.26589 0.14104 0.61872 0.0
N453 N 0.27753 0.12745 0.63769 0.0
C454 C 0.22644 0.13687 0.58914 0.0
H455 H 0.23832 0.14086 0.57114 0.0
H456 H 0.21708 0.15579 0.59502 0.0
H457 H 0.21098 0.12199 0.58463 0.0
C458 C 0.23933 0.23335 0.64452 0.0
N459 N 0.26121 0.22265 0.63346 0.0
N460 N 0.26204 0.19754 0.63945 0.0
C461 C 0.24254 0.19221 0.65697 0.0
C462 C 0.227 0.21461 0.66039 0.0
C463 C 0.22815 0.2596 0.63706 0.0
H464 H 0.23312 0.26407 0.61619 0.0
H465 H 0.20635 0.25982 0.63947 0.0
H466 H 0.23655 0.27503 0.65011 0.0
O467 O 0.32406 0.21689 0.61205 0.0
O468 O 0.31542 0.17417 0.613 0.0
H469 H 0.26041 0.16021 0.67799 0.0
H470 H 0.22829 0.17001 0.69051 0.0
C471 C 0.24039 0.16717 0.67242 0.0
H472 H 0.23106 0.15182 0.66028 0.0
H473 H 0.2943 0.13383 0.64785 0.0
O474 O 0.29937 0.27083 0.62967 0.0
C475 C 0.33184 0.19295 0.6116 0.0
Co476 Co 0.0309 0.04379 0.86497 0.0
Co477 Co 0.08852 0.0227 0.85599 0.0
C478 C 0.05043 0.01893 0.81236 0.0
O479 O 0.03216 0.02901 0.82702 0.0
O480 O 0.07372 0.01424 0.8211 0.0
C481 C 0.97361 0.04217 0.87961 0.0
O482 O 0.97278 0.0187 0.8686 0.0
C483 C 0.1414 0.99564 0.85445 0.0
C484 C 0.15326 1.00576 0.89535 0.0
C485 C 0.16027 0.9905 0.87387 0.0
N486 N 0.12336 0.01215 0.86483 0.0
N487 N 0.13115 0.01874 0.88885 0.0
C488 C 0.13985 0.98457 0.82709 0.0
H489 H 0.12062 0.97437 0.82434 0.0
H490 H 0.1564 0.97075 0.82312 0.0
H491 H 0.14049 1.00105 0.81266 0.0
C492 C 0.03336 1.00194 0.9081 0.0
N493 N 0.04423 0.01751 0.88906 0.0
N494 N 0.06698 0.00717 0.8822 0.0
C495 C 0.07038 0.98412 0.89501 0.0
C496 C 0.0495 0.97999 0.91205 0.0
C497 C 0.00804 0.00739 0.92231 0.0
H498 H 1.00465 0.02895 0.92379 0.0
H499 H 0.99143 0.99802 0.91157 0.0
H500 H 0.0086 0.9987 0.94244 0.0
O501 O 0.05185 0.07764 0.86309 0.0
O502 O 0.09165 0.06116 0.85611 0.0
H503 H 0.10925 0.9686 0.89929 0.0
H504 H 0.08457 0.94392 0.89296 0.0
C505 C 0.09098 0.96429 0.88803 0.0
H506 H 0.09501 0.96551 0.86656 0.0
H507 H 0.12034 0.03092 0.9015 0.0
O508 O 0.99538 0.0547 0.87869 0.0
C509 C 0.07637 0.08078 0.85841 0.0
Co510 Co 0.22195 0.78223 0.11665 0.0
Co511 Co 0.24017 0.84047 0.10694 0.0
C512 C 0.24448 0.80202 0.06338 0.0
O513 O 0.23506 0.78361 0.07824 0.0
O514 O 0.24839 0.82553 0.07184 0.0
C515 C 0.22457 0.72477 0.13231 0.0
O516 O 0.2475 0.72289 0.12026 0.0
C517 C 0.26634 0.8937 0.10328 0.0
C518 C 0.25652 0.90691 0.14382 0.0
C519 C 0.27144 0.91338 0.1219 0.0
N520 N 0.25017 0.87583 0.11452 0.0
N521 N 0.24374 0.88441 0.13831 0.0
C522 C 0.277 0.89132 0.0758 0.0
H523 H 0.26026 0.89112 0.06165 0.0
H524 H 0.2875 0.87222 0.07359 0.0
H525 H 0.29047 0.90795 0.07099 0.0
C526 C 0.26452 0.78631 0.15863 0.0
N527 N 0.2484 0.79652 0.13976 0.0
N528 N 0.25749 0.81986 0.13308 0.0
C529 C 0.28038 0.82433 0.14598 0.0
C530 C 0.28554 0.80348 0.16275 0.0
C531 C 0.26063 0.76053 0.17238 0.0
H532 H 0.26982 0.74456 0.16059 0.0
H533 H 0.27041 0.76075 0.19202 0.0
H534 H 0.23927 0.75657 0.17503 0.0
O535 O 0.18774 0.80208 0.11747 0.0
O536 O 0.20123 0.84234 0.1095 0.0
H537 H 0.29352 0.86411 0.14994 0.0
H538 H 0.3198 0.84085 0.14492 0.0
C539 C 0.29923 0.84592 0.13924 0.0
H540 H 0.29842 0.8494 0.11767 0.0
H541 H 0.23187 0.87391 0.15151 0.0
O542 O 0.21247 0.74672 0.13101 0.0
C543 C 0.18248 0.82639 0.11409 0.0
Co544 Co 0.14987 0.48146 0.03566 0.0
Co545 Co 0.1569 0.42141 0.02354 0.0
C546 C 0.20114 0.46364 0.01682 0.0
O547 O 0.18668 0.48368 0.0222 0.0
O548 O 0.19193 0.44002 0.01701 0.0
C549 C 0.13225 0.53864 0.03752 0.0
O550 O 0.14889 0.54418 0.0184 0.0
C551 C 0.15882 0.37352 0.99011 0.0
C552 C 0.14901 0.34327 0.02012 0.0
C553 C 0.15196 0.34716 0.99326 0.0
N554 N 0.15839 0.38503 0.01402 0.0
N555 N 0.1534 0.36662 0.03188 0.0
C556 C 0.16442 0.38778 0.96482 0.0
H557 H 0.15247 0.37954 0.94839 0.0
H558 H 0.18557 0.38504 0.9597 0.0
H559 H 0.16083 0.40927 0.96709 0.0
C560 C 0.11125 0.47509 0.99112 0.0
N561 N 0.12781 0.46487 0.00946 0.0
N562 N 0.12845 0.43909 1.00657 0.0
C563 C 0.11087 0.4321 0.98771 0.0
C564 C 0.10018 0.45465 0.9766 0.0
C565 C 0.10728 0.50391 0.9863 0.0
H566 H 0.09697 0.5127 1.00351 0.0
H567 H 0.12678 0.51361 0.98401 0.0
H568 H 0.09522 0.5075 0.96835 0.0
O569 O 0.15489 0.46227 0.07053 0.0
O570 O 0.1516 0.41985 0.0614 0.0
H571 H 0.08119 0.40306 0.97932 0.0
H572 H 0.11124 0.3988 0.96166 0.0
C573 C 0.10298 0.40448 0.9811 0.0
H574 H 0.10939 0.39087 0.99685 0.0
H575 H 0.15136 0.37022 0.05207 0.0
O576 O 0.13125 0.51491 0.04565 0.0
C577 C 0.15487 0.43822 0.07794 0.0
Co578 Co 0.64893 0.02678 0.97518 0.0
Co579 Co 0.65926 0.08507 0.99334 0.0
C580 C 0.70215 0.0473 0.99926 0.0
O581 O 0.68746 0.02913 0.98904 0.0
O582 O 0.69374 0.07077 1.0034 0.0
C583 C 0.63197 0.97068 0.9812 0.0
O584 O 0.64168 0.97175 1.00524 0.0
C585 C 0.66051 0.13897 0.01815 0.0
C586 C 0.61896 0.1494 0.00922 0.0
C587 C 0.64071 0.15736 0.02365 0.0
N588 N 0.65013 0.12034 1.00231 0.0
N589 N 0.62569 0.12731 0.99634 0.0
C590 C 0.68833 0.13849 0.02816 0.0
H591 H 0.70209 0.13919 0.0111 0.0
H592 H 0.69205 0.11961 0.03864 0.0
H593 H 0.69232 0.15546 0.04146 0.0
C594 C 0.60561 0.03228 0.01612 0.0
N595 N 0.62516 0.04184 1.00037 0.0
N596 N 0.63301 0.06452 0.01006 0.0
C597 C 0.62057 0.06894 0.03314 0.0
C598 C 0.60263 0.04897 0.03773 0.0
C599 C 0.58932 0.00826 0.01069 0.0
H600 H 0.58888 1.00402 0.98922 0.0
H601 H 0.59748 0.99117 0.02161 0.0
H602 H 0.56881 0.01131 0.01788 0.0
O603 O 0.64953 0.04548 0.94053 0.0
O604 O 0.6599 0.08558 0.95431 0.0
H605 H 0.61711 0.10787 0.04861 0.0
H606 H 0.62445 0.08333 0.07309 0.0
C607 C 0.62854 0.08963 0.05249 0.0
H608 H 0.64996 0.09357 0.05028 0.0
H609 H 0.61292 0.11585 0.98492 0.0
O610 O 0.63491 0.99089 0.96659 0.0
C611 C 0.65609 0.06924 0.93573 0.0
Co612 Co 0.23325 0.40501 0.22344 0.0
Co613 Co 0.17332 0.40614 0.24041 0.0
C614 C 0.21091 0.45321 0.24799 0.0
O615 O 0.23119 0.44122 0.23867 0.0
O616 O 0.18826 0.44196 0.25022 0.0
C617 C 0.26892 0.3716 0.1976 0.0
O618 O 0.24717 0.36692 0.18429 0.0
C619 C 0.12492 0.40856 0.27375 0.0
C620 C 0.10367 0.37439 0.25669 0.0
C621 C 0.10304 0.39219 0.27743 0.0
N622 N 0.13835 0.39976 0.25256 0.0
N623 N 0.12504 0.37995 0.24203 0.0
C624 C 0.13354 0.43155 0.2902 0.0
H625 H 0.13613 0.44907 0.27728 0.0
H626 H 0.15311 0.42721 0.2991 0.0
H627 H 0.11895 0.43607 0.30593 0.0
C628 C 0.23391 0.36527 0.26645 0.0
N629 N 0.22068 0.38077 0.24917 0.0
N630 N 0.19523 0.37854 0.2536 0.0
C631 C 0.1915 0.36006 0.27253 0.0
C632 C 0.21576 0.35161 0.28177 0.0
C633 C 0.26322 0.36568 0.27024 0.0
H634 H 0.2711 0.38573 0.2662 0.0
H635 H 0.2686 0.35958 0.2906 0.0
H636 H 0.27252 0.35166 0.25624 0.0
O637 O 0.21207 0.4079 0.18965 0.0
O638 O 0.17007 0.40652 0.20201 0.0
H639 H 0.15402 0.3424 0.26493 0.0
H640 H 0.16735 0.33462 0.29708 0.0
C641 C 0.16533 0.35031 0.28192 0.0
H642 H 0.1544 0.3669 0.2904 0.0
H643 H 0.1315 0.36911 0.22572 0.0
O644 O 0.26911 0.39049 0.21429 0.0
C645 C 0.18749 0.40878 0.18417 0.0
Co646 Co 0.8618 0.98596 0.47449 0.0
Co647 Co 0.85714 0.92604 0.49324 0.0
C648 C 0.81213 0.96615 0.49998 0.0
O649 O 0.82574 0.98556 0.49098 0.0
O650 O 0.822 0.94288 0.50241 0.0
C651 C 0.89334 0.0236 0.4466 0.0
O652 O 0.8933 1.00526 0.42825 0.0
C653 C 0.85839 0.8771 0.52824 0.0
C654 C 0.88243 0.85166 0.50213 0.0
C655 C 0.87137 0.85283 0.52702 0.0
N656 N 0.86228 0.88992 0.50513 0.0
N657 N 0.87618 0.87418 0.48957 0.0
C658 C 0.84403 0.88836 0.55145 0.0
H659 H 0.84077 0.90988 0.54881 0.0
H660 H 0.85527 0.88453 0.56989 0.0
H661 H 0.82459 0.87838 0.55333 0.0
C662 C 0.90247 0.98566 0.51645 0.0
N663 N 0.88586 0.97283 0.49979 0.0
N664 N 0.88558 0.94763 0.50582 0.0
C665 C 0.90308 0.9437 0.52547 0.0
C666 C 0.91377 0.96744 0.53343 0.0
C667 C 0.90522 0.015 0.51826 0.0
H668 H 0.91785 0.02201 0.50179 0.0
H669 H 0.88554 0.02448 0.51652 0.0
H670 H 0.91462 0.02099 0.53714 0.0
O671 O 0.85829 0.96445 0.44079 0.0
O672 O 0.85607 0.92292 0.45447 0.0
H673 H 0.90871 0.90252 0.52293 0.0
H674 H 0.9272 0.91798 0.54905 0.0
C675 C 0.90812 0.91807 0.53826 0.0
H676 H 0.89211 0.91438 0.55269 0.0
H677 H 0.88269 0.87941 0.47072 0.0
O678 O 0.87745 0.02139 0.46603 0.0
C679 C 0.8557 0.93982 0.43598 0.0
Co680 Co 0.78358 0.11514 0.22143 0.0
Co681 Co 0.84192 0.10615 0.24054 0.0
C682 C 0.80358 0.06256 0.24586 0.0
O683 O 0.78506 0.0772 0.23627 0.0
O684 O 0.82708 0.07128 0.24961 0.0
C685 C 0.72627 0.12973 0.22498 0.0
O686 O 0.72597 0.11775 0.248 0.0
C687 C 0.89603 0.10443 0.2653 0.0
C688 C 0.90764 0.14514 0.25427 0.0
C689 C 0.91533 0.12374 0.26928 0.0
N690 N 0.87724 0.1148 0.24965 0.0
N691 N 0.88486 0.13869 0.24247 0.0
C692 C 0.89483 0.07717 0.27664 0.0
H693 H 0.89477 0.06264 0.26023 0.0
H694 H 0.87602 0.07455 0.28762 0.0
H695 H 0.91193 0.07326 0.2898 0.0
C696 C 0.7874 0.15791 0.26348 0.0
N697 N 0.79787 0.13912 0.24737 0.0
N698 N 0.82116 0.13262 0.25672 0.0
C699 C 0.82544 0.14559 0.27958 0.0
C700 C 0.80444 0.16221 0.28461 0.0
C701 C 0.76131 0.17115 0.25975 0.0
H702 H 0.75682 0.17318 0.23842 0.0
H703 H 0.74569 0.15943 0.26965 0.0
H704 H 0.76148 0.19102 0.269 0.0
O705 O 0.80346 0.11342 0.18675 0.0
O706 O 0.84374 0.10641 0.20199 0.0
H707 H 0.86515 0.15008 0.29285 0.0
H708 H 0.84187 0.14463 0.31905 0.0
C709 C 0.84708 0.13908 0.29849 0.0
H710 H 0.851 0.11758 0.29765 0.0
H711 H 0.87355 0.1513 0.23073 0.0
O712 O 0.74774 0.12922 0.21188 0.0
C713 C 0.82791 0.10886 0.18283 0.0
Co714 Co 0.3635 0.52712 0.53889 0.0
Co715 Co 0.35386 0.58472 0.51647 0.0
C716 C 0.31168 0.54333 0.51298 0.0
O717 O 0.32641 0.52568 0.5237 0.0
O718 O 0.31987 0.56679 0.50837 0.0
C719 C 0.37817 0.47043 0.53954 0.0
O720 O 0.36586 0.46899 0.51674 0.0
C721 C 0.3493 0.63266 0.48104 0.0
C722 C 0.37885 0.65761 0.50134 0.0
C723 C 0.36308 0.65639 0.47912 0.0
N724 N 0.35733 0.62013 0.50319 0.0
N725 N 0.37444 0.63561 0.51543 0.0
C726 C 0.32956 0.62184 0.4619 0.0
H727 H 0.32796 0.60008 0.46389 0.0
H728 H 0.33477 0.62736 0.44133 0.0
H729 H 0.30995 0.63059 0.46636 0.0
C730 C 0.40823 0.53009 0.49932 0.0
N731 N 0.38804 0.54093 0.51337 0.0
N732 N 0.38273 0.56428 0.50337 0.0
C733 C 0.39857 0.56838 0.48234 0.0
C734 C 0.41498 0.54697 0.47877 0.0
C735 C 0.42091 0.50403 0.50481 0.0
H736 H 0.42266 0.50095 0.52641 0.0
H737 H 0.4088 0.48806 0.49604 0.0
H738 H 0.44088 0.50308 0.49576 0.0
O739 O 0.35928 0.5492 0.57141 0.0
O740 O 0.35395 0.58953 0.55547 0.0
H741 H 0.40076 0.60932 0.47431 0.0
H742 H 0.40889 0.58901 0.4463 0.0
C743 C 0.39582 0.5908 0.46379 0.0
H744 H 0.3751 0.59129 0.45691 0.0
H745 H 0.38434 0.63039 0.53273 0.0
O746 O 0.37813 0.4926 0.55134 0.0
C747 C 0.35489 0.57372 0.57494 0.0
Co748 Co 0.23152 0.61586 0.291 0.0
Co749 Co 0.17148 0.61187 0.27434 0.0
C750 C 0.21012 0.56593 0.26807 0.0
O751 O 0.23025 0.57906 0.27625 0.0
O752 O 0.18693 0.57608 0.26632 0.0
C753 C 0.26548 0.65256 0.31452 0.0
O754 O 0.24334 0.65729 0.32716 0.0
C755 C 0.12035 0.60648 0.24483 0.0
C756 C 0.10194 0.64385 0.25794 0.0
C757 C 0.09906 0.62337 0.2401 0.0
N758 N 0.13578 0.61761 0.26342 0.0
N759 N 0.12403 0.63932 0.27184 0.0
C760 C 0.12632 0.58057 0.23193 0.0
H761 H 0.12685 0.56493 0.24727 0.0
H762 H 0.14626 0.5813 0.22281 0.0
H763 H 0.11121 0.57549 0.21685 0.0
C764 C 0.23099 0.6541 0.24649 0.0
N765 N 0.21814 0.63912 0.26464 0.0
N766 N 0.19293 0.63839 0.25863 0.0
C767 C 0.1889 0.65336 0.23696 0.0
C768 C 0.2127 0.66379 0.22849 0.0
C769 C 0.26044 0.65561 0.24385 0.0
H770 H 0.26845 0.66929 0.25884 0.0
H771 H 0.26923 0.63584 0.24726 0.0
H772 H 0.26643 0.66303 0.22412 0.0
O773 O 0.21076 0.61185 0.32493 0.0
O774 O 0.16888 0.6141 0.31274 0.0
H775 H 0.14819 0.66294 0.23204 0.0
H776 H 0.16643 0.66224 0.20148 0.0
C777 C 0.16421 0.65283 0.22113 0.0
H778 H 0.15932 0.6319 0.2183 0.0
H779 H 0.13214 0.65209 0.28585 0.0
O780 O 0.26676 0.63226 0.29958 0.0
C781 C 0.18619 0.61108 0.33053 0.0
Co782 Co 0.28231 0.39838 0.79235 0.0
Co783 Co 0.34128 0.40897 0.77581 0.0
C784 C 0.3013 0.4516 0.76985 0.0
O785 O 0.28289 0.43671 0.77928 0.0
O786 O 0.32506 0.4434 0.76653 0.0
C787 C 0.22301 0.38498 0.7996 0.0
O788 O 0.21363 0.40877 0.79536 0.0
C789 C 0.39422 0.41379 0.7495 0.0
C790 C 0.40915 0.37429 0.7607 0.0
C791 C 0.41435 0.39559 0.74443 0.0
N792 N 0.37723 0.40269 0.7667 0.0
N793 N 0.38691 0.37962 0.77403 0.0
C794 C 0.39106 0.44113 0.73874 0.0
H795 H 0.39073 0.45536 0.75542 0.0
H796 H 0.37173 0.44284 0.72851 0.0
H797 H 0.40746 0.44629 0.72509 0.0
C798 C 0.28639 0.3598 0.74852 0.0
N799 N 0.2975 0.37683 0.76588 0.0
N800 N 0.32175 0.38199 0.75829 0.0
C801 C 0.32652 0.36895 0.73548 0.0
C802 C 0.30444 0.3544 0.72866 0.0
C803 C 0.25804 0.35142 0.74892 0.0
H804 H 0.24529 0.36917 0.74777 0.0
H805 H 0.25328 0.33813 0.73214 0.0
H806 H 0.25376 0.34098 0.7677 0.0
O807 O 0.30116 0.39716 0.82697 0.0
O808 O 0.34174 0.40772 0.81484 0.0
H809 H 0.36738 0.36401 0.72662 0.0
H810 H 0.34684 0.366 0.69787 0.0
C811 C 0.34979 0.37379 0.71813 0.0
H812 H 0.353 0.39534 0.71717 0.0
H813 H 0.37717 0.36657 0.78668 0.0
O814 O 0.24774 0.38083 0.79925 0.0
C815 C 0.32492 0.40294 0.8328 0.0
Co816 Co 0.53608 0.64749 0.98129 0.0
Co817 Co 0.52148 0.65719 0.92208 0.0
C818 C 0.51362 0.69859 0.96655 0.0
O819 O 0.52132 0.68372 0.98548 0.0
O820 O 0.51283 0.69045 0.9426 0.0
C821 C 0.53878 0.6278 0.03774 0.0
O822 O 0.51884 0.64324 0.04382 0.0
C823 C 0.48403 0.65687 0.87803 0.0
C824 C 0.51144 0.65294 0.84421 0.0
C825 C 0.48503 0.65125 0.85121 0.0
N826 N 0.50889 0.65986 0.88677 0.0
N827 N 0.52508 0.65847 0.86631 0.0
C828 C 0.46004 0.65818 0.89538 0.0
H829 H 0.46532 0.65455 0.91632 0.0
H830 H 0.44459 0.64415 0.88867 0.0
H831 H 0.45161 0.67835 0.89418 0.0
C832 C 0.49363 0.6065 0.97391 0.0
N833 N 0.5106 0.6249 0.96443 0.0
N834 N 0.50781 0.62622 0.93867 0.0
C835 C 0.49074 0.60717 0.9309 0.0
C836 C 0.48036 0.59484 0.95295 0.0
C837 C 0.48906 0.60097 1.00253 0.0
H838 H 0.50684 0.59129 0.01087 0.0
H839 H 0.48565 0.61981 0.01311 0.0
H840 H 0.47183 0.58774 1.00554 0.0
O841 O 0.57042 0.65362 0.96106 0.0
O842 O 0.55972 0.65573 0.91876 0.0
H843 H 0.5014 0.60749 0.89002 0.0
H844 H 0.4879 0.57681 0.90169 0.0
C845 C 0.48631 0.59862 0.90305 0.0
H846 H 0.46604 0.60378 0.89665 0.0
H847 H 0.54564 0.65936 0.8677 0.0
O848 O 0.54711 0.62821 0.01404 0.0
C849 C 0.57698 0.6565 0.93685 0.0
Co850 Co 0.61703 0.28865 0.2328 0.0
Co851 Co 0.6058 0.26802 0.17535 0.0
C852 C 0.56326 0.26594 0.21598 0.0
O853 O 0.57876 0.27543 0.23384 0.0
O854 O 0.57092 0.26154 0.19222 0.0
C855 C 0.63655 0.292 0.28938 0.0
O856 O 0.62428 0.26983 0.29503 0.0
C857 C 0.60088 0.24069 0.12258 0.0
C858 C 0.64135 0.25018 0.10879 0.0
C859 C 0.61923 0.23548 0.10265 0.0
N860 N 0.61248 0.25678 0.14025 0.0
N861 N 0.63622 0.26301 0.13132 0.0
C862 C 0.57334 0.23024 0.1253 0.0
H863 H 0.55929 0.24705 0.12536 0.0
H864 H 0.5712 0.22003 0.14459 0.0
H865 H 0.56834 0.2166 0.10888 0.0
C866 C 0.65832 0.24524 0.22899 0.0
N867 N 0.63955 0.26139 0.21862 0.0
N868 N 0.6321 0.25149 0.19585 0.0
C869 C 0.64438 0.22822 0.1919 0.0
C870 C 0.66161 0.22348 0.21248 0.0
C871 C 0.67254 0.24978 0.25443 0.0
H872 H 0.67669 0.2711 0.25693 0.0
H873 H 0.66013 0.24274 0.27102 0.0
H874 H 0.69141 0.23861 0.25485 0.0
O875 O 0.61438 0.32178 0.21145 0.0
O876 O 0.60887 0.30638 0.17114 0.0
H877 H 0.64761 0.21342 0.15259 0.0
H878 H 0.64183 0.1883 0.17692 0.0
C879 C 0.63681 0.20881 0.17106 0.0
H880 H 0.61525 0.21013 0.16758 0.0
H881 H 0.64962 0.27486 0.14157 0.0
O882 O 0.63398 0.30132 0.26625 0.0
C883 C 0.61056 0.32565 0.18693 0.0
Co884 Co 0.97715 0.35752 0.48945 0.0
Co885 Co 0.98906 0.35895 0.42917 0.0
C886 C 0.99949 0.31048 0.46647 0.0
O887 O 0.99228 0.32184 0.48792 0.0
O888 O 0.99946 0.3225 0.44402 0.0
C889 C 0.9744 0.37531 0.54741 0.0
O890 O 0.994 0.35978 0.55426 0.0
C891 C 0.02206 0.35845 0.38058 0.0
C892 C 1.00178 0.39033 0.35862 0.0
C893 C 0.02396 0.37435 0.35816 0.0
N894 N 1.00026 0.36562 0.39398 0.0
N895 N 0.98793 0.38413 0.38036 0.0
C896 C 0.04079 0.33753 0.38977 0.0
H897 H 0.02966 0.319 0.39341 0.0
H898 H 0.04964 0.34359 0.40889 0.0
H899 H 0.05662 0.33389 0.37503 0.0
C900 C 0.02388 0.39306 0.48714 0.0
N901 N 1.00306 0.38094 0.47567 0.0
N902 N 1.00293 0.38654 0.45046 0.0
C903 C 0.02197 0.40465 0.4456 0.0
C904 C 0.03661 0.40882 0.46851 0.0
C905 C 0.03355 0.38672 0.5143 0.0
H906 H 0.02981 0.36559 0.51867 0.0
H907 H 0.055 0.39086 0.51629 0.0
H908 H 0.0227 0.39896 0.52887 0.0
O909 O 0.94237 0.35321 0.46953 0.0
O910 O 0.95068 0.35888 0.42705 0.0
H911 H 1.00469 0.42525 0.41303 0.0
H912 H 0.03672 0.43777 0.42307 0.0
C913 C 0.02458 0.41971 0.42036 0.0
H914 H 0.03397 0.40726 0.40532 0.0
H915 H 0.97082 0.39368 0.38675 0.0
O916 O 0.96669 0.37472 0.52352 0.0
C917 C 0.93457 0.35401 0.44557 0.0
Co918 Co 0.89635 0.72479 0.72886 0.0
Co919 Co 0.90862 0.73653 0.66921 0.0
C920 C 0.94915 0.74598 0.71307 0.0
O921 O 0.93391 0.73775 0.73162 0.0
O922 O 0.94146 0.74739 0.68898 0.0
C923 C 0.87798 0.72282 0.78664 0.0
O924 O 0.90099 0.72989 0.79636 0.0
C925 C 0.90972 0.76941 0.62191 0.0
C926 C 0.89851 0.74027 0.59131 0.0
C927 C 0.90131 0.76706 0.59589 0.0
N928 N 0.91008 0.74523 0.63268 0.0
N929 N 0.9042 0.72783 0.6141 0.0
C930 C 0.91543 0.79423 0.637 0.0
H931 H 0.9117 0.79131 0.65841 0.0
H932 H 0.90367 0.81106 0.62937 0.0
H933 H 0.93665 0.7992 0.63458 0.0
C934 C 0.85953 0.76914 0.7195 0.0
N935 N 0.87616 0.75035 0.71044 0.0
N936 N 0.87778 0.75211 0.68463 0.0
C937 C 0.86052 0.77079 0.67639 0.0
C938 C 0.8492 0.78284 0.6982 0.0
C939 C 0.85517 0.77525 0.74807 0.0
H940 H 0.84144 0.76042 0.75655 0.0
H941 H 0.87424 0.77407 0.75881 0.0
H942 H 0.84637 0.79513 0.7508 0.0
O943 O 0.89787 0.68877 0.71141 0.0
O944 O 0.90862 0.6981 0.67008 0.0
H945 H 0.85916 0.75925 0.63571 0.0
H946 H 0.83107 0.7778 0.64681 0.0
C947 C 0.85285 0.77586 0.64837 0.0
H948 H 0.86129 0.79484 0.64156 0.0
H949 H 0.90214 0.70761 0.61743 0.0
O950 O 0.87521 0.71974 0.76189 0.0
C951 C 0.90446 0.68139 0.68821 0.0
Co952 Co 0.54026 0.36671 0.53378 0.0
Co953 Co 0.51983 0.35342 0.59052 0.0
C954 C 0.52035 0.31131 0.55078 0.0
O955 O 0.52992 0.32756 0.53368 0.0
O956 O 0.51463 0.31823 0.57448 0.0
C957 C 0.541 0.38736 0.47842 0.0
O958 O 0.51703 0.3781 0.47469 0.0
C959 C 0.49427 0.351 0.64483 0.0
C960 C 0.50319 0.39262 0.655 0.0
C961 C 0.48945 0.37071 0.66356 0.0
N962 N 0.50923 0.36159 0.62555 0.0
N963 N 0.51511 0.38608 0.63235 0.0
C964 C 0.48453 0.32312 0.64479 0.0
H965 H 0.50176 0.30957 0.64507 0.0
H966 H 0.47353 0.31916 0.62625 0.0
H967 H 0.47177 0.3191 0.66219 0.0
C968 C 0.49435 0.40586 0.5376 0.0
N969 N 0.51127 0.38736 0.54722 0.0
N970 N 0.50157 0.37853 0.56961 0.0
C971 C 0.47767 0.38949 0.57384 0.0
C972 C 0.47233 0.40732 0.55398 0.0
C973 C 0.49884 0.42259 0.51377 0.0
H974 H 0.52024 0.42518 0.51035 0.0
H975 H 0.48938 0.4133 0.49637 0.0
H976 H 0.48956 0.44226 0.51649 0.0
O977 O 0.57282 0.36969 0.5553 0.0
O978 O 0.5582 0.35809 0.59416 0.0
H979 H 0.46247 0.39276 0.61295 0.0
H980 H 0.43803 0.38423 0.58874 0.0
C981 C 0.45883 0.38097 0.59487 0.0
H982 H 0.4618 0.35974 0.59919 0.0
H983 H 0.52614 0.39893 0.62059 0.0
O984 O 0.55292 0.38181 0.49968 0.0
C985 C 0.57716 0.36524 0.57955 0.0
Co986 Co 0.89894 0.28475 0.77844 0.0
Co987 Co 0.90754 0.27015 0.83845 0.0
C988 C 0.95184 0.26367 0.80027 0.0
O989 O 0.93741 0.27222 0.78112 0.0
O990 O 0.94291 0.26097 0.82386 0.0
C991 C 0.86679 0.30755 0.73815 0.0
O992 O 0.86635 0.32769 0.75447 0.0
C993 C 0.91018 0.24713 0.89322 0.0
C994 C 0.86944 0.25778 0.90508 0.0
C995 C 0.891 0.24287 0.91265 0.0
N996 N 0.8995 0.26258 0.87442 0.0
N997 N 0.87562 0.26965 0.88225 0.0
C998 C 0.93787 0.2368 0.89219 0.0
H999 H 0.95181 0.25372 0.89183 0.0
H1000 H 0.94089 0.22564 0.87357 0.0
H1001 H 0.94228 0.22411 0.90952 0.0
C1002 C 0.86013 0.24047 0.78319 0.0
N1003 N 0.87681 0.25853 0.79393 0.0
N1004 N 0.88141 0.25196 0.81857 0.0
C1005 C 0.86841 0.22931 0.82401 0.0
C1006 C 0.85422 0.22146 0.80205 0.0
C1007 C 0.85247 0.23936 0.75469 0.0
H1008 H 0.84012 0.2567 0.74993 0.0
H1009 H 0.87044 0.23987 0.74215 0.0
H1010 H 0.84097 0.22127 0.7501 0.0
O1011 O 0.8984 0.3203 0.79628 0.0
O1012 O 0.90623 0.30899 0.83771 0.0
H1013 H 0.86226 0.22011 0.86466 0.0
H1014 H 0.86787 0.19166 0.84427 0.0
C1015 C 0.87365 0.21253 0.8476 0.0
H1016 H 0.89506 0.21338 0.8519 0.0
H1017 H 0.86274 0.2811 0.87095 0.0
O1018 O 0.88326 0.28892 0.74218 0.0
C1019 C 0.90298 0.32656 0.82021 0.0
Co1020 Co 0.97364 0.64614 0.02667 0.0
Co1021 Co 0.99292 0.65803 0.08459 0.0
C1022 C 0.99837 0.69968 0.04469 0.0
O1023 O 0.98751 0.68462 0.02722 0.0
O1024 O 1.00306 0.69185 0.06827 0.0
C1025 C 0.97636 0.62898 0.96983 0.0
O1026 O 0.99951 0.64064 0.96829 0.0
C1027 C 0.01916 0.66237 0.13786 0.0
C1028 C 1.00583 0.62376 0.15343 0.0
C1029 C 0.02267 0.64459 0.15866 0.0
N1030 N 1.00205 0.65157 0.12058 0.0
N1031 N 0.99355 0.62901 0.13057 0.0
C1032 C 0.03224 0.68858 0.13394 0.0
H1033 H 0.01686 0.70419 0.1336 0.0
H1034 H 0.04229 0.68903 0.11445 0.0
H1035 H 0.04658 0.69284 0.14997 0.0
C1036 C 0.01485 0.60332 0.03217 0.0
N1037 N 0.9992 0.62287 0.04183 0.0
N1038 N 0.00842 0.63001 0.06499 0.0
C1039 C 0.03086 0.61658 0.06987 0.0
C1040 C 0.03571 0.5992 0.04948 0.0
C1041 C 0.0109 0.58911 1.00662 0.0
H1042 H 0.98952 0.58694 1.00241 0.0
H1043 H 0.02068 0.60023 0.99052 0.0
H1044 H 0.02011 0.56924 0.00744 0.0
O1045 O 0.93946 0.64704 0.04647 0.0
O1046 O 0.95398 0.65921 0.08578 0.0
H1047 H 0.04289 0.61463 0.10999 0.0
H1048 H 0.07001 0.6161 0.08709 0.0
C1049 C 0.04978 0.6235 0.09121 0.0
H1050 H 0.05034 0.64528 0.09299 0.0
H1051 H 0.98056 0.6163 0.12083 0.0
O1052 O 0.96383 0.63078 0.99154 0.0
C1053 C 0.93507 0.65468 0.07001 0.0
Co1054 Co 0.61675 0.72102 0.28182 0.0
Co1055 Co 0.60435 0.73993 0.33943 0.0
C1056 C 0.5621 0.74369 0.30096 0.0
O1057 O 0.57767 0.73375 0.28333 0.0
O1058 O 0.56977 0.74861 0.32456 0.0
C1059 C 0.64034 0.72644 0.22917 0.0
O1060 O 0.63407 0.75155 0.2309 0.0
C1061 C 0.60228 0.76412 0.39375 0.0
C1062 C 0.64394 0.75562 0.40414 0.0
C1063 C 0.62187 0.7693 0.41246 0.0
N1064 N 0.61304 0.74906 0.37469 0.0
N1065 N 0.63756 0.74336 0.3816 0.0
C1066 C 0.57431 0.77368 0.39344 0.0
H1067 H 0.56083 0.75639 0.39382 0.0
H1068 H 0.57041 0.78443 0.37474 0.0
H1069 H 0.57009 0.78658 0.41066 0.0
C1070 C 0.65957 0.76366 0.28866 0.0
N1071 N 0.63982 0.74748 0.29722 0.0
N1072 N 0.63033 0.75755 0.31913 0.0
C1073 C 0.64169 0.78119 0.32368 0.0
C1074 C 0.66071 0.78586 0.30474 0.0
C1075 C 0.67966 0.75722 0.26802 0.0
H1076 H 0.67967 0.73587 0.26382 0.0
H1077 H 0.67595 0.76893 0.24991 0.0
H1078 H 0.69963 0.76294 0.27511 0.0
O1079 O 0.61658 0.6868 0.30114 0.0
O1080 O 0.60476 0.70094 0.34066 0.0
H1081 H 0.64383 0.79715 0.36247 0.0
H1082 H 0.63591 0.82102 0.33751 0.0
C1083 C 0.6325 0.80037 0.34402 0.0
H1084 H 0.61114 0.79734 0.34781 0.0
H1085 H 0.65056 0.73245 0.3699 0.0
O1086 O 0.63065 0.71062 0.24601 0.0
C1087 C 0.60959 0.68221 0.32481 0.0
Co1088 Co 0.98242 0.53795 0.64794 0.0
Co1089 Co 0.92355 0.5204 0.65724 0.0
C1090 C 0.96455 0.51396 0.69998 0.0
O1091 O 0.98332 0.52245 0.68504 0.0
O1092 O 0.94066 0.51178 0.69166 0.0
C1093 C 0.04099 0.54674 0.63398 0.0
O1094 O 0.05046 0.54215 0.65769 0.0
C1095 C 0.87132 0.49236 0.66243 0.0
C1096 C 0.85446 0.50603 0.62448 0.0
C1097 C 0.85034 0.48841 0.64491 0.0
N1098 N 0.88769 0.51038 0.6517 0.0
N1099 N 0.8769 0.51909 0.62961 0.0
C1100 C 0.87605 0.47933 0.68855 0.0
H1101 H 0.87617 0.49464 0.70423 0.0
H1102 H 0.89585 0.46993 0.68867 0.0
H1103 H 0.8605 0.46451 0.693 0.0
C1104 C 0.97896 0.49513 0.60778 0.0
N1105 N 0.96749 0.5123 0.62488 0.0
N1106 N 0.94325 0.50447 0.6296 0.0
C1107 C 0.93881 0.48185 0.61627 0.0
C1108 C 0.96107 0.47514 0.60197 0.0
C1109 C 0.00747 0.49559 0.60002 0.0
H1110 H 0.01197 0.51445 0.58985 0.0
H1111 H 0.01984 0.49429 0.61804 0.0
H1112 H 0.01244 0.47894 0.58665 0.0
O1113 O 0.96265 0.5723 0.65112 0.0
O1114 O 0.92134 0.55892 0.65619 0.0
H1115 H 0.89802 0.47211 0.61357 0.0
H1116 H 0.91934 0.44377 0.61349 0.0
C1117 C 0.9164 0.46377 0.62193 0.0
H1118 H 0.91477 0.46215 0.64365 0.0
H1119 H 0.88589 0.53273 0.61702 0.0
O1120 O 0.01627 0.5463 0.62989 0.0
C1121 C 0.93822 0.57728 0.65464 0.0
Co1122 Co 0.72126 0.7348 0.8989 0.0
Co1123 Co 0.74192 0.677 0.90972 0.0
C1124 C 0.74695 0.71807 0.95147 0.0
O1125 O 0.73693 0.73568 0.93612 0.0
O1126 O 0.75045 0.69408 0.94412 0.0
C1127 C 0.72513 0.79015 0.88022 0.0
O1128 O 0.74912 0.78961 0.89013 0.0
C1129 C 0.77093 0.62461 0.91288 0.0
C1130 C 0.75676 0.6091 0.87453 0.0
C1131 C 0.77438 0.60409 0.89473 0.0
N1132 N 0.75289 0.64148 0.90293 0.0
N1133 N 0.74404 0.63152 0.88049 0.0
C1134 C 0.78487 0.62858 0.93864 0.0
H1135 H 0.77013 0.62783 0.95487 0.0
H1136 H 0.79402 0.64848 0.93917 0.0
H1137 H 0.8001 0.61316 0.94193 0.0
C1138 C 0.76052 0.72922 0.85402 0.0
N1139 N 0.74612 0.71958 0.87455 0.0
N1140 N 0.75686 0.69728 0.88215 0.0
C1141 C 0.77922 0.6932 0.86829 0.0
C1142 C 0.78233 0.71306 0.84994 0.0
C1143 C 0.75357 0.75273 0.83763 0.0
H1144 H 0.73192 0.75595 0.83778 0.0
H1145 H 0.76402 0.77038 0.84525 0.0
H1146 H 0.76024 0.74975 0.81694 0.0
O1147 O 0.68774 0.71426 0.90352 0.0
O1148 O 0.70295 0.67374 0.9087 0.0
H1149 H 0.7936 0.654 0.86536 0.0
H1150 H 0.81927 0.67843 0.86794 0.0
C1151 C 0.79925 0.67282 0.87496 0.0
H1152 H 0.79972 0.67035 0.89668 0.0
H1153 H 0.73034 0.64097 0.86834 0.0
O1154 O 0.71077 0.76981 0.88367 0.0
C1155 C 0.68374 0.6898 0.90782 0.0
Co1156 Co 0.53526 0.46913 0.14626 0.0
Co1157 Co 0.59396 0.48858 0.15261 0.0
C1158 C 0.5541 0.49414 0.19689 0.0
O1159 O 0.53495 0.48522 0.18277 0.0
O1160 O 0.57766 0.49668 0.18776 0.0
C1161 C 0.47764 0.46315 0.131 0.0
O1162 O 0.47118 0.48371 0.14544 0.0
C1163 C 0.6449 0.51945 0.15615 0.0
C1164 C 0.66229 0.50524 0.11862 0.0
C1165 C 0.66573 0.52364 0.13847 0.0
N1166 N 0.62926 0.50039 0.14612 0.0
N1167 N 0.64037 0.49146 0.12425 0.0
C1168 C 0.63957 0.53341 0.18166 0.0
H1169 H 0.64026 0.51886 0.19803 0.0
H1170 H 0.61932 0.54181 0.18146 0.0
H1171 H 0.65435 0.5492 0.18535 0.0
C1172 C 0.53662 0.51026 0.10337 0.0
N1173 N 0.54857 0.49441 0.12142 0.0
N1174 N 0.5726 0.5033 0.1255 0.0
C1175 C 0.57618 0.52543 0.11113 0.0
C1176 C 0.55372 0.53061 0.09661 0.0
C1177 C 0.50862 0.5078 0.09445 0.0
H1178 H 0.50477 0.4872 0.08828 0.0
H1179 H 0.49528 0.51302 0.11099 0.0
H1180 H 0.50447 0.52121 0.07761 0.0
O1181 O 0.55662 0.43629 0.15089 0.0
O1182 O 0.59802 0.44997 0.15109 0.0
H1183 H 0.61653 0.53646 0.10705 0.0
H1184 H 0.59423 0.56402 0.10659 0.0
C1185 C 0.59807 0.54444 0.11561 0.0
H1186 H 0.60013 0.54688 0.13721 0.0
H1187 H 0.63197 0.47703 0.11217 0.0
O1188 O 0.50161 0.45586 0.131 0.0
C1189 C 0.58122 0.43149 0.15266 0.0
Co1190 Co 0.78789 0.27688 0.40371 0.0
Co1191 Co 0.77285 0.33648 0.41266 0.0
C1192 C 0.76356 0.29209 0.45399 0.0
O1193 O 0.77207 0.27303 0.43967 0.0
O1194 O 0.76293 0.31596 0.44559 0.0
C1195 C 0.79118 0.2205 0.38282 0.0
O1196 O 0.77159 0.21382 0.3985 0.0
C1197 C 0.73526 0.38074 0.41072 0.0
C1198 C 0.76291 0.4143 0.4064 0.0
C1199 C 0.73648 0.40744 0.40446 0.0
N1200 N 0.76005 0.37193 0.41434 0.0
N1201 N 0.77635 0.39228 0.41269 0.0
C1202 C 0.71117 0.36356 0.41205 0.0
H1203 H 0.71641 0.34255 0.4089 0.0
H1204 H 0.69596 0.37007 0.39768 0.0
H1205 H 0.70246 0.36519 0.4321 0.0
C1206 C 0.74495 0.28377 0.36356 0.0
N1207 N 0.7627 0.29365 0.38096 0.0
N1208 N 0.76035 0.31945 0.38143 0.0
C1209 C 0.74283 0.32678 0.36266 0.0
C1210 C 0.73165 0.30447 0.35155 0.0
C1211 C 0.73919 0.25508 0.35992 0.0
H1212 H 0.73708 0.24557 0.37951 0.0
H1213 H 0.72087 0.25193 0.34829 0.0
H1214 H 0.75586 0.24577 0.34919 0.0
O1215 O 0.82204 0.29734 0.41064 0.0
O1216 O 0.81121 0.33961 0.41303 0.0
H1217 H 0.74055 0.3552 0.33153 0.0
H1218 H 0.71812 0.36088 0.35789 0.0
C1219 C 0.73851 0.35439 0.35333 0.0
H1220 H 0.75344 0.36767 0.36209 0.0
H1221 H 0.79688 0.39083 0.41392 0.0
O1222 O 0.79922 0.2443 0.3837 0.0
C1223 C 0.82846 0.32153 0.41403 0.0
Co1224 Co 0.98007 0.468 0.86492 0.0
Co1225 Co 0.92214 0.48874 0.85461 0.0
C1226 C 0.96184 0.49291 0.81204 0.0
O1227 O 0.97956 0.48204 0.82677 0.0
O1228 O 0.93843 0.49793 0.82036 0.0
C1229 C 0.03773 0.46562 0.88144 0.0
O1230 O 0.04257 0.48754 0.86842 0.0
C1231 C 0.87024 0.51815 0.85153 0.0
C1232 C 0.85531 0.50638 0.8909 0.0
C1233 C 0.85043 0.52333 0.87008 0.0
N1234 N 0.88673 0.49999 0.86187 0.0
N1235 N 0.87705 0.49249 0.88493 0.0
C1236 C 0.87388 0.53044 0.82488 0.0
H1237 H 0.8726 0.51479 0.80959 0.0
H1238 H 0.89392 0.53922 0.82339 0.0
H1239 H 0.85859 0.54566 0.82099 0.0
C1240 C 0.97739 0.51035 0.9067 0.0
N1241 N 0.96627 0.49424 0.88832 0.0
N1242 N 0.94314 0.50397 0.88181 0.0
C1243 C 0.93971 0.52714 0.89443 0.0
C1244 C 0.96102 0.53202 0.9107 0.0
C1245 C 1.00363 0.50615 0.9195 0.0
H1246 H 1.00645 0.4849 0.92377 0.0
H1247 H 0.01948 0.51311 0.90612 0.0
H1248 H 1.00505 0.51754 0.93819 0.0
O1249 O 0.95914 0.43463 0.8632 0.0
O1250 O 0.91928 0.44966 0.85356 0.0
H1251 H 0.90039 0.54137 0.89738 0.0
H1252 H 0.92454 0.56707 0.89326 0.0
C1253 C 0.91907 0.54671 0.8873 0.0
H1254 H 0.91641 0.54617 0.86561 0.0
H1255 H 0.88639 0.47908 0.89748 0.0
O1256 O 0.0145 0.45618 0.88034 0.0
C1257 C 0.93517 0.43057 0.85681 0.0
Co1258 Co 0.79429 0.73419 0.1168 0.0
Co1259 Co 0.77457 0.67687 0.10196 0.0
C1260 C 0.76894 0.71885 0.06249 0.0
O1261 O 0.77843 0.73586 0.07896 0.0
O1262 O 0.7656 0.69456 0.06871 0.0
C1263 C 0.79392 0.79306 0.13013 0.0
O1264 O 0.78052 0.79876 0.10868 0.0
C1265 C 0.7472 0.62409 0.09682 0.0
C1266 C 0.75898 0.6089 0.1361 0.0
C1267 C 0.74273 0.60365 0.11483 0.0
N1268 N 0.76437 0.64115 0.10787 0.0
N1269 N 0.7719 0.63138 0.13087 0.0
C1270 C 0.7351 0.6278 0.07011 0.0
H1271 H 0.751 0.62754 0.055 0.0
H1272 H 0.7255 0.64746 0.06897 0.0
H1273 H 0.72057 0.61198 0.06566 0.0
C1274 C 0.7552 0.72464 0.16074 0.0
N1275 N 0.7699 0.71651 0.13984 0.0
N1276 N 0.75843 0.69572 0.12955 0.0
C1277 C 0.7352 0.69154 0.14183 0.0
C1278 C 0.73239 0.70947 0.16204 0.0
C1279 C 0.76466 0.74237 0.1823 0.0
H1280 H 0.7815 0.75467 0.17594 0.0
H1281 H 0.74807 0.7544 0.19003 0.0
H1282 H 0.77154 0.7299 0.19896 0.0
O1283 O 0.82874 0.71499 0.11306 0.0
O1284 O 0.81352 0.67522 0.10293 0.0
H1285 H 0.7194 0.65284 0.14233 0.0
H1286 H 0.69481 0.67822 0.1391 0.0
C1287 C 0.715 0.67215 0.13304 0.0
H1288 H 0.71589 0.67035 0.11124 0.0
H1289 H 0.78464 0.64109 0.14385 0.0
O1290 O 0.80115 0.76937 0.13448 0.0
C1291 C 0.83265 0.69088 0.10698 0.0
Co1292 Co 0.53311 0.53472 0.36067 0.0
Co1293 Co 0.59341 0.5219 0.35387 0.0
C1294 C 0.55193 0.51484 0.30952 0.0
O1295 O 0.53198 0.52272 0.32303 0.0
O1296 O 0.57516 0.5132 0.3195 0.0
C1297 C 0.47505 0.5424 0.38078 0.0
O1298 O 0.46293 0.54345 0.35787 0.0
C1299 C 0.63574 0.48279 0.35201 0.0
C1300 C 0.66857 0.5054 0.36984 0.0
C1301 C 0.66102 0.48021 0.36235 0.0
N1302 N 0.62836 0.50819 0.35443 0.0
N1303 N 0.64832 0.52171 0.36445 0.0
C1304 C 0.61817 0.46153 0.34138 0.0
H1305 H 0.59997 0.46029 0.35355 0.0
H1306 H 0.62836 0.44213 0.34113 0.0
H1307 H 0.61196 0.46684 0.32104 0.0
C1308 C 0.53859 0.48901 0.39601 0.0
N1309 N 0.54923 0.50802 0.38072 0.0
N1310 N 0.57498 0.50747 0.38302 0.0
C1311 C 0.58151 0.48956 0.40169 0.0
C1312 C 0.55869 0.4767 0.40975 0.0
C1313 C 0.50974 0.48268 0.39742 0.0
H1314 H 0.50048 0.49495 0.41305 0.0
H1315 H 0.50005 0.48714 0.37827 0.0
H1316 H 0.50656 0.46163 0.4026 0.0
O1317 O 0.55266 0.56981 0.36012 0.0
O1318 O 0.59527 0.56039 0.355 0.0
H1319 H 0.60617 0.50533 0.43175 0.0
H1320 H 0.61004 0.47057 0.42705 0.0
C1321 C 0.60704 0.48955 0.41657 0.0
H1322 H 0.62393 0.49415 0.40369 0.0
H1323 H 0.64742 0.54168 0.36941 0.0
O1324 O 0.49999 0.5398 0.38175 0.0
C1325 C 0.57664 0.57709 0.35673 0.0
Co1326 Co 0.7147 0.28169 0.61885 0.0
Co1327 Co 0.73842 0.33799 0.60629 0.0
C1328 C 0.7408 0.29636 0.56538 0.0
O1329 O 0.72942 0.27969 0.58094 0.0
O1330 O 0.74651 0.31994 0.57262 0.0
C1331 C 0.71261 0.22566 0.63839 0.0
O1332 O 0.73551 0.22158 0.62683 0.0
C1333 C 0.76832 0.38952 0.60181 0.0
C1334 C 0.75374 0.40659 0.63935 0.0
C1335 C 0.77196 0.41048 0.61941 0.0
N1336 N 0.74977 0.37339 0.612 0.0
N1337 N 0.74058 0.38432 0.63385 0.0
C1338 C 0.78236 0.38451 0.57626 0.0
H1339 H 0.76773 0.38485 0.55994 0.0
H1340 H 0.79125 0.36449 0.57649 0.0
H1341 H 0.7978 0.39965 0.57251 0.0
C1342 C 0.75548 0.28608 0.66272 0.0
N1343 N 0.74133 0.29579 0.64207 0.0
N1344 N 0.75238 0.31801 0.63453 0.0
C1345 C 0.77438 0.32221 0.64888 0.0
C1346 C 0.77705 0.30242 0.66731 0.0
C1347 C 0.74914 0.26158 0.67779 0.0
H1348 H 0.72747 0.25969 0.6799 0.0
H1349 H 0.7572 0.24426 0.66715 0.0
H1350 H 0.75828 0.26204 0.69771 0.0
O1351 O 0.682 0.3039 0.61617 0.0
O1352 O 0.70012 0.34247 0.60686 0.0
H1353 H 0.78706 0.36213 0.65103 0.0
H1354 H 0.81371 0.33891 0.65197 0.0
C1355 C 0.79417 0.34309 0.64302 0.0
H1356 H 0.79635 0.34436 0.6213 0.0
H1357 H 0.72641 0.37556 0.64602 0.0
O1358 O 0.70176 0.24806 0.63538 0.0
C1359 C 0.67988 0.32824 0.61041 0.0
Co1360 Co 0.64477 0.97846 0.53848 0.0
Co1361 Co 0.65728 0.92031 0.52146 0.0
C1362 C 0.69952 0.9602 0.51841 0.0
O1363 O 0.68376 0.97807 0.52739 0.0
O1364 O 0.69199 0.93646 0.51388 0.0
C1365 C 0.62959 0.03767 0.5461 0.0
O1366 O 0.65316 0.04852 0.54524 0.0
C1367 C 0.66255 0.86669 0.49681 0.0
C1368 C 0.62204 0.85299 0.50619 0.0
C1369 C 0.64425 0.84672 0.4916 0.0
N1370 N 0.65082 0.88451 0.51263 0.0
N1371 N 0.62707 0.87563 0.51888 0.0
C1372 C 0.69034 0.86916 0.48697 0.0
H1373 H 0.70397 0.86958 0.50413 0.0
H1374 H 0.69277 0.88821 0.47641 0.0
H1375 H 0.69567 0.85244 0.47383 0.0
C1376 C 0.60637 0.97344 0.49424 0.0
N1377 N 0.62397 0.963 0.5115 0.0
N1378 N 0.6309 0.93953 0.50317 0.0
C1379 C 0.61894 0.93477 0.47982 0.0
C1380 C 0.60282 0.95588 0.47344 0.0
C1381 C 0.59469 1.00049 0.49637 0.0
H1382 H 0.58562 1.00304 0.51615 0.0
H1383 H 0.61055 0.01544 0.49399 0.0
H1384 H 0.57938 1.00384 0.48103 0.0
O1385 O 0.6434 0.95996 0.57318 0.0
O1386 O 0.65533 0.92 0.56031 0.0
H1387 H 0.6158 0.89456 0.46787 0.0
H1388 H 0.62083 0.91716 0.44094 0.0
C1389 C 0.62626 0.91277 0.46172 0.0
H1390 H 0.64787 0.90966 0.46301 0.0
H1391 H 0.61352 0.88609 0.53037 0.0
O1392 O 0.62698 0.01285 0.54403 0.0
C1393 C 0.65006 0.93634 0.5785 0.0
Co1394 Co 0.14475 0.53116 0.47356 0.0
Co1395 Co 0.15974 0.58864 0.49283 0.0
C1396 C 0.19956 0.54723 0.49712 0.0
O1397 O 0.183 0.53026 0.48773 0.0
O1398 O 0.19349 0.57147 0.50111 0.0
C1399 C 0.13193 0.47271 0.47656 0.0
O1400 O 0.15291 0.46869 0.49127 0.0
C1401 C 0.16295 0.6428 0.51802 0.0
C1402 C 0.12173 0.65405 0.50856 0.0
C1403 C 0.14352 0.66177 0.523 0.0
N1404 N 0.15228 0.62417 0.50232 0.0
N1405 N 0.12806 0.63164 0.4961 0.0
C1406 C 0.19071 0.64193 0.52816 0.0
H1407 H 0.20455 0.64223 0.51114 0.0
H1408 H 0.19408 0.62311 0.53885 0.0
H1409 H 0.19494 0.65898 0.54128 0.0
C1410 C 0.10191 0.54108 0.51414 0.0
N1411 N 0.12241 0.54891 0.49871 0.0
N1412 N 0.13319 0.56965 0.50977 0.0
C1413 C 0.12173 0.57423 0.53329 0.0
C1414 C 0.1014 0.55654 0.53686 0.0
C1415 C 0.08039 0.52273 0.50578 0.0
H1416 H 0.0634 0.53472 0.49887 0.0
H1417 H 0.08661 0.50998 0.48924 0.0
H1418 H 0.07322 0.51106 0.52287 0.0
O1419 O 0.14839 0.54989 0.43891 0.0
O1420 O 0.15782 0.58972 0.45416 0.0
H1421 H 0.12091 0.61238 0.55077 0.0
H1422 H 0.1281 0.58629 0.57361 0.0
C1423 C 0.13169 0.59349 0.55321 0.0
H1424 H 0.15315 0.59673 0.55029 0.0
H1425 H 0.11512 0.62036 0.48468 0.0
O1426 O 0.12739 0.49566 0.46729 0.0
C1427 C 0.15467 0.57395 0.43497 0.0
Co1428 Co 0.73127 0.89567 0.71923 0.0
Co1429 Co 0.67319 0.90515 0.73969 0.0
C1430 C 0.7146 0.94789 0.74391 0.0
O1431 O 0.73297 0.93293 0.7346 0.0
O1432 O 0.69085 0.93957 0.74723 0.0
C1433 C 0.78879 0.87853 0.71089 0.0
O1434 O 0.79739 0.89394 0.72991 0.0
C1435 C 0.62242 0.91065 0.77059 0.0
C1436 C 0.60441 0.873 0.75754 0.0
C1437 C 0.60132 0.89346 0.77531 0.0
N1438 N 0.63788 0.89977 0.75185 0.0
N1439 N 0.62641 0.87783 0.74359 0.0
C1440 C 0.62818 0.93646 0.78378 0.0
H1441 H 0.62767 0.95239 0.76874 0.0
H1442 H 0.64845 0.93622 0.79213 0.0
H1443 H 0.61351 0.94083 0.79951 0.0
C1444 C 0.72924 0.85454 0.76185 0.0
N1445 N 0.71756 0.87232 0.74553 0.0
N1446 N 0.69381 0.8775 0.75459 0.0
C1447 C 0.69011 0.86403 0.77727 0.0
C1448 C 0.71216 0.84891 0.78264 0.0
C1449 C 0.75712 0.84518 0.75935 0.0
H1450 H 0.76048 0.83755 0.73911 0.0
H1451 H 0.77071 0.86198 0.76285 0.0
H1452 H 0.7615 0.82936 0.77388 0.0
O1453 O 0.7093 0.8991 0.68645 0.0
O1454 O 0.66852 0.90395 0.70126 0.0
H1455 H 0.64997 0.86132 0.78949 0.0
H1456 H 0.67295 0.86228 0.81653 0.0
C1457 C 0.66875 0.87007 0.79649 0.0
H1458 H 0.667 0.89179 0.79768 0.0
H1459 H 0.6346 0.8652 0.72952 0.0
O1460 O 0.76422 0.87853 0.70584 0.0
C1461 C 0.68473 0.90243 0.68229 0.0
Co1462 Co 0.36556 0.47596 0.9779 0.0
Co1463 Co 0.35644 0.41682 0.99568 0.0
C1464 C 0.31428 0.46185 0.99986 0.0
O1465 O 0.32918 0.48059 0.99168 0.0
O1466 O 0.32285 0.43811 1.00241 0.0
C1467 C 0.38605 0.52876 0.95482 0.0
O1468 O 0.36513 0.53358 0.94027 0.0
C1469 C 0.3572 0.38107 0.04087 0.0
C1470 C 0.37386 0.34533 0.02263 0.0
C1471 C 0.3695 0.35712 0.04705 0.0
N1472 N 0.3561 0.38368 0.0144 0.0
N1473 N 0.36513 0.36173 1.00365 0.0
C1474 C 0.3439 0.40002 0.05926 0.0
H1475 H 0.35269 0.41995 0.05693 0.0
H1476 H 0.3451 0.39324 0.08009 0.0
H1477 H 0.32278 0.40179 0.05359 0.0
C1478 C 0.40281 0.47187 0.02241 0.0
N1479 N 0.38618 0.46094 1.00473 0.0
N1480 N 0.38712 0.43524 0.00692 0.0
C1481 C 0.40622 0.42877 0.02434 0.0
C1482 C 0.41595 0.45183 0.03562 0.0
C1483 C 0.40562 0.50091 0.02694 0.0
H1484 H 0.42057 0.50886 0.01301 0.0
H1485 H 0.38653 0.51101 0.02313 0.0
H1486 H 0.41239 0.50509 0.04737 0.0
O1487 O 0.36162 0.45284 0.94512 0.0
O1488 O 0.35748 0.41078 0.95748 0.0
H1489 H 0.40817 0.38632 0.02197 0.0
H1490 H 0.43277 0.40338 1.00398 0.0
C1491 C 0.42139 0.40344 0.02273 0.0
H1492 H 0.4357 0.40131 0.03911 0.0
H1493 H 0.36803 0.35912 0.9834 0.0
O1494 O 0.38698 0.5082 0.96917 0.0
C1495 C 0.35866 0.42833 0.93955 0.0
Co1496 Co 0.28073 0.61314 0.72324 0.0
Co1497 Co 0.34046 0.60633 0.73692 0.0
C1498 C 0.29745 0.56289 0.74496 0.0
O1499 O 0.2776 0.57674 0.73758 0.0
O1500 O 0.32103 0.5722 0.74522 0.0
C1501 C 0.22314 0.63152 0.71591 0.0
O1502 O 0.21282 0.60805 0.71989 0.0
C1503 C 0.38248 0.6023 0.77624 0.0
C1504 C 0.41586 0.61967 0.75398 0.0
C1505 C 0.40808 0.61175 0.77899 0.0
N1506 N 0.37516 0.60566 0.75093 0.0
N1507 N 0.39542 0.61535 0.7376 0.0
C1508 C 0.36464 0.59158 0.79723 0.0
H1509 H 0.34669 0.60406 0.79867 0.0
H1510 H 0.37477 0.5907 0.81666 0.0
H1511 H 0.35803 0.57149 0.79147 0.0
C1512 C 0.28617 0.64993 0.76849 0.0
N1513 N 0.29686 0.63437 0.74966 0.0
N1514 N 0.32265 0.6357 0.7513 0.0
C1515 C 0.32925 0.65377 0.7698 0.0
C1516 C 0.30636 0.66266 0.78189 0.0
C1517 C 0.25725 0.65176 0.77426 0.0
H1518 H 0.24761 0.63245 0.77045 0.0
H1519 H 0.25372 0.6579 0.79501 0.0
H1520 H 0.24828 0.66673 0.76102 0.0
O1521 O 0.30116 0.60836 0.68852 0.0
O1522 O 0.34375 0.60878 0.6987 0.0
H1523 H 0.37183 0.65433 0.76645 0.0
H1524 H 0.35546 0.68354 0.75617 0.0
C1525 C 0.35532 0.6676 0.7712 0.0
H1526 H 0.35811 0.67709 0.79075 0.0
H1527 H 0.39468 0.62079 0.71774 0.0
O1528 O 0.24809 0.63443 0.71576 0.0
C1529 C 0.32548 0.60691 0.68165 0.0
Co1530 Co 0.86901 0.03395 0.03902 0.0
Co1531 Co 0.85576 0.09201 0.02234 0.0
C1532 C 0.81431 0.05075 0.01831 0.0
O1533 O 0.83038 0.03288 0.02671 0.0
O1534 O 0.82142 0.07484 0.01499 0.0
C1535 C 0.88394 0.97533 0.04207 0.0
O1536 O 0.86073 0.96661 0.03438 0.0
C1537 C 0.84945 0.14567 0.99743 0.0
C1538 C 0.88991 0.15972 1.00642 0.0
C1539 C 0.86753 0.16584 0.99206 0.0
N1540 N 0.86149 0.12789 0.01307 0.0
N1541 N 0.8852 0.13701 0.01909 0.0
C1542 C 0.82152 0.14306 0.98806 0.0
H1543 H 0.819 0.12397 0.97757 0.0
H1544 H 0.8159 0.15975 0.97501 0.0
H1545 H 0.80816 0.1426 1.00545 0.0
C1546 C 0.90743 0.03993 0.99443 0.0
N1547 N 0.88975 0.0499 0.01194 0.0
N1548 N 0.88229 0.07327 1.00375 0.0
C1549 C 0.89386 0.07832 0.98026 0.0
C1550 C 0.91039 0.05761 0.97362 0.0
C1551 C 0.91947 0.01305 0.99611 0.0
H1552 H 0.92822 0.01008 0.01597 0.0
H1553 H 0.90381 0.99808 0.99305 0.0
H1554 H 0.93502 0.01028 0.98088 0.0
O1555 O 0.86966 0.05313 0.07378 0.0
O1556 O 0.85939 0.0931 0.06099 0.0
H1557 H 0.89621 0.11848 0.96791 0.0
H1558 H 0.89065 0.09566 0.94132 0.0
C1559 C 0.88576 0.10013 0.96222 0.0
H1560 H 0.86416 0.10305 0.96406 0.0
H1561 H 0.89896 0.12666 0.03043 0.0
O1562 O 0.88775 0.99991 0.04524 0.0
C1563 C 0.86517 0.0772 0.0794 0.0
Co1564 Co 0.7323 0.11091 0.78921 0.0
Co1565 Co 0.67213 0.10273 0.77618 0.0
C1566 C 0.71434 0.05999 0.76671 0.0
O1567 O 0.73374 0.07392 0.77512 0.0
O1568 O 0.6908 0.06922 0.76551 0.0
C1569 C 0.79022 0.12728 0.78955 0.0
O1570 O 0.79479 0.11171 0.76932 0.0
C1571 C 0.62774 0.10566 0.73967 0.0
C1572 C 0.59439 0.11191 0.76724 0.0
C1573 C 0.60132 0.11323 0.74077 0.0
N1574 N 0.63636 0.10206 0.76447 0.0
N1575 N 0.61615 0.10487 0.78078 0.0
C1576 C 0.64522 0.10359 0.71579 0.0
H1577 H 0.6663 0.10584 0.72129 0.0
H1578 H 0.63963 0.1182 0.70046 0.0
H1579 H 0.64297 0.08361 0.70712 0.0
C1580 C 0.72495 0.15118 0.74645 0.0
N1581 N 0.71542 0.13375 0.76433 0.0
N1582 N 0.6895 0.13362 0.7629 0.0
C1583 C 0.6818 0.15264 0.7458 0.0
C1584 C 0.70392 0.16347 0.73384 0.0
C1585 C 0.75358 0.15485 0.74022 0.0
H1586 H 0.76351 0.16417 0.75737 0.0
H1587 H 0.76277 0.13533 0.73658 0.0
H1588 H 0.75645 0.16766 0.72266 0.0
O1589 O 0.71311 0.10772 0.82432 0.0
O1590 O 0.67073 0.10207 0.81461 0.0
H1591 H 0.6537 0.1842 0.74475 0.0
H1592 H 0.6468 0.15815 0.72241 0.0
C1593 C 0.65411 0.16243 0.74257 0.0
H1594 H 0.64106 0.15394 0.75789 0.0
H1595 H 0.61763 0.10398 0.80132 0.0
O1596 O 0.76675 0.12829 0.79853 0.0
C1597 C 0.68923 0.10352 0.83141 0.0
Co1598 Co 0.77978 0.9005 0.28862 0.0
Co1599 Co 0.84045 0.90338 0.27641 0.0
C1600 C 0.80148 0.9499 0.26718 0.0
O1601 O 0.78097 0.93759 0.27563 0.0
O1602 O 0.82437 0.93889 0.26579 0.0
C1603 C 0.72076 0.88351 0.29259 0.0
O1604 O 0.71057 0.90632 0.28565 0.0
C1605 C 0.88843 0.90204 0.24293 0.0
C1606 C 0.91459 0.87831 0.26863 0.0
C1607 C 0.91262 0.88885 0.24347 0.0
N1608 N 0.87651 0.89863 0.26642 0.0
N1609 N 0.89256 0.88501 0.28186 0.0
C1610 C 0.87597 0.91625 0.22023 0.0
H1611 H 0.87002 0.93632 0.2267 0.0
H1612 H 0.85767 0.90575 0.21427 0.0
H1613 H 0.88965 0.91775 0.20315 0.0
C1614 C 0.78391 0.86788 0.24091 0.0
N1615 N 0.79512 0.87961 0.26198 0.0
N1616 N 0.82049 0.87482 0.26203 0.0
C1617 C 0.82594 0.85768 0.24225 0.0
C1618 C 0.80297 0.85311 0.22768 0.0
C1619 C 0.7561 0.87306 0.23234 0.0
H1620 H 0.74989 0.8931 0.23867 0.0
H1621 H 0.75407 0.87115 0.21059 0.0
H1622 H 0.74281 0.85852 0.24192 0.0
O1623 O 0.79836 0.90135 0.32429 0.0
O1624 O 0.84098 0.90446 0.31492 0.0
H1625 H 0.84451 0.82255 0.25561 0.0
H1626 H 0.85353 0.83148 0.22275 0.0
C1627 C 0.84928 0.83957 0.24264 0.0
H1628 H 0.86679 0.84937 0.25115 0.0
H1629 H 0.88771 0.87876 0.3009 0.0
O1630 O 0.74568 0.88096 0.29461 0.0
C1631 C 0.82234 0.90431 0.33163 0.0
C1632 C 0.02479 0.09274 0.55635 0.0
C1633 C 0.04529 0.11179 0.55762 0.0
C1634 C 0.06569 0.08563 0.59299 0.0
C1635 C 0.04849 0.06408 0.58719 0.0
N1636 N 0.01235 0.04726 0.56065 0.0
N1637 N 0.08695 0.12526 0.57649 0.0
C1638 C 0.02824 0.0677 0.56815 0.0
C1639 C 0.06619 0.10804 0.5759 0.0
N1640 N 1.00143 0.09806 0.5442 0.0
N1641 N 0.08046 0.08547 0.61555 0.0
H1642 H 0.08789 0.142 0.56455 0.0
H1643 H 0.10404 0.12176 0.58744 0.0
H1644 H 0.09132 0.10176 0.62189 0.0
H1645 H 0.07935 0.07035 0.62948 0.0
H1646 H 0.9968 0.11633 0.53585 0.0
H1647 H 0.9968 0.11633 0.53585 0.0
H1648 H 0.99735 0.04958 0.54667 0.0
H1649 H 0.01539 0.02788 0.56686 0.0
C1650 C 0.19359 0.7737 0.82481 0.0
C1651 C 0.20335 0.79865 0.83263 0.0
C1652 C 0.16507 0.81895 0.8104 0.0
C1653 C 0.15281 0.79381 0.80817 0.0
N1654 N 0.15528 0.74675 0.81718 0.0
N1655 N 0.20647 0.84246 0.81445 0.0
C1656 C 0.16681 0.77109 0.81697 0.0
C1657 C 0.19141 0.82086 0.82026 0.0
N1658 N 0.21089 0.75391 0.81915 0.0
N1659 N 0.1513 0.84116 0.80375 0.0
H1660 H 0.22684 0.8427 0.81759 0.0
H1661 H 0.19963 0.85835 0.80332 0.0
H1662 H 0.13184 0.84051 0.79696 0.0
H1663 H 0.15827 0.86016 0.8075 0.0
H1664 H 0.20499 0.73593 0.81101 0.0
H1665 H 0.23121 0.75741 0.81853 0.0
H1666 H 0.16477 0.73031 0.82521 0.0
H1667 H 0.1359 0.74328 0.81126 0.0
C1668 C 0.44586 0.94717 0.06548 0.0
C1669 C 0.46342 0.95377 0.08628 0.0
C1670 C 0.48172 0.90861 0.08467 0.0
C1671 C 0.46583 0.90308 0.06215 0.0
N1672 N 0.42339 0.91202 0.04236 0.0
N1673 N 0.49753 0.94068 0.11684 0.0
C1674 C 0.4451 0.92088 0.05572 0.0
C1675 C 0.48122 0.93442 0.09624 0.0
N1676 N 0.43022 0.96624 0.05453 0.0
N1677 N 0.49503 0.88838 0.09655 0.0
H1678 H 0.49627 0.95843 0.12716 0.0
H1679 H 0.51317 0.92893 0.12309 0.0
H1680 H 0.4923 0.86875 0.09094 0.0
H1681 H 0.50596 0.89021 0.11384 0.0
H1682 H 0.41912 0.96319 0.03746 0.0
H1683 H 0.43032 0.98581 0.06095 0.0
H1684 H 0.40677 0.92364 0.03886 0.0
H1685 H 0.4202 0.89203 0.03863 0.0
C1686 C 0.31918 0.23066 0.31712 0.0
C1687 C 0.31423 0.20822 0.33317 0.0
C1688 C 0.3551 0.18831 0.31545 0.0
C1689 C 0.36087 0.21198 0.30159 0.0
N1690 N 0.3529 0.25903 0.30094 0.0
N1691 N 0.33395 0.1701 0.35417 0.0
C1692 C 0.3444 0.23411 0.30588 0.0
C1693 C 0.33404 0.18818 0.33425 0.0
N1694 N 0.30002 0.24884 0.3122 0.0
N1695 N 0.36908 0.16583 0.31047 0.0
H1696 H 0.32029 0.17078 0.3695 0.0
H1697 H 0.3492 0.15656 0.35701 0.0
H1698 H 0.38443 0.16502 0.29674 0.0
H1699 H 0.36382 0.14758 0.31844 0.0
H1700 H 0.30357 0.26554 0.3006 0.0
H1701 H 0.2804 0.24569 0.31749 0.0
H1702 H 0.37235 0.26333 0.29555 0.0
H1703 H 0.37235 0.26333 0.29555 0.0
C1704 C 0.02735 0.93574 0.92019 0.0
C1705 C 0.04545 0.95562 0.92839 0.0
C1706 C 0.06502 0.92451 0.96004 0.0
C1707 C 0.04434 0.90614 0.95514 0.0
N1708 N 0.0136 0.88973 0.92289 0.0
N1709 N 0.07926 0.9701 0.95857 0.0
C1710 C 0.02744 0.91054 0.93309 0.0
C1711 C 0.06358 0.95029 0.94905 0.0
N1712 N 0.01018 0.94091 0.9 0.0
N1713 N 0.08737 0.91665 0.97294 0.0
H1714 H 0.07865 0.98933 0.95119 0.0
H1715 H 0.09085 0.96808 0.97546 0.0
H1716 H 0.09129 0.89689 0.9771 0.0
H1717 H 0.10386 0.92874 0.97539 0.0
H1718 H 0.99442 0.92876 0.89489 0.0
H1719 H 0.0108 0.95825 0.88894 0.0
H1720 H 1.00193 0.89065 0.90602 0.0
H1721 H 0.01644 0.87043 0.92948 0.0
C1722 C 0.33958 0.81573 0.21369 0.0
C1723 C 0.35919 0.79707 0.20606 0.0
C1724 C 0.33118 0.78393 0.16839 0.0
C1725 C 0.31026 0.79966 0.17852 0.0
N1726 N 0.29349 0.82868 0.21225 0.0
N1727 N 0.37817 0.77437 0.16883 0.0
C1728 C 0.31422 0.81508 0.20154 0.0
C1729 C 0.35628 0.78403 0.18133 0.0
N1730 N 0.34601 0.83585 0.23048 0.0
N1731 N 0.32706 0.76876 0.14644 0.0
H1732 H 0.39725 0.77807 0.17567 0.0
H1733 H 0.37799 0.76631 0.14992 0.0
H1734 H 0.30957 0.76924 0.13557 0.0
H1735 H 0.34022 0.75436 0.13997 0.0
H1736 H 0.33314 0.85117 0.23525 0.0
H1737 H 0.36544 0.83968 0.23617 0.0
H1738 H 0.29436 0.83781 0.23067 0.0
H1739 H 0.27464 0.82875 0.20389 0.0
C1740 C 0.4507 0.06133 0.45378 0.0
C1741 C 0.45804 0.06155 0.42683 0.0
C1742 C 0.46474 0.10972 0.42931 0.0
C1743 C 0.45814 0.10913 0.45667 0.0
N1744 N 0.43074 0.08654 0.48883 0.0
N1745 N 0.46569 0.08669 0.38709 0.0
C1746 C 0.44684 0.08562 0.4672 0.0
C1747 C 0.46324 0.08601 0.414 0.0
N1748 N 0.44766 0.0379 0.4668 0.0
N1749 N 0.47161 0.13311 0.4178 0.0
H1750 H 0.46465 0.06986 0.37529 0.0
H1751 H 0.46688 0.10401 0.37612 0.0
H1752 H 0.46809 0.15125 0.4269 0.0
H1753 H 0.48049 0.13462 0.39931 0.0
H1754 H 0.44488 0.0368 0.48718 0.0
H1755 H 0.45029 0.01965 0.45761 0.0
H1756 H 0.42095 0.06998 0.49619 0.0
H1757 H 0.42349 0.1042 0.49647 0.0
C1758 C 0.19731 0.23771 0.69366 0.0
C1759 C 0.20127 0.21704 0.67513 0.0
C1760 C 0.15758 0.19894 0.68692 0.0
C1761 C 0.15348 0.22017 0.70478 0.0
N1762 N 0.16671 0.26437 0.71751 0.0
N1763 N 0.18043 0.18415 0.6476 0.0
C1764 C 0.17228 0.24093 0.70564 0.0
C1765 C 0.18002 0.19939 0.66981 0.0
N1766 N 0.21744 0.25432 0.7004 0.0
N1767 N 0.14079 0.17784 0.68686 0.0
H1768 H 0.19578 0.18487 0.63387 0.0
H1769 H 0.16409 0.17332 0.64129 0.0
H1770 H 0.12417 0.1767 0.69898 0.0
H1771 H 0.1446 0.16065 0.6762 0.0
H1772 H 0.21496 0.26964 0.71398 0.0
H1773 H 0.23677 0.2516 0.69388 0.0
H1774 H 0.1484 0.26892 0.72587 0.0
H1775 H 0.1484 0.26892 0.72587 0.0
C1776 C 0.55513 0.06658 0.09302 0.0
C1777 C 0.55855 0.04525 0.1109 0.0
C1778 C 0.59327 0.02723 0.08182 0.0
C1779 C 0.58625 0.046 0.06212 0.0
N1780 N 0.55841 0.0819 0.0479 0.0
N1781 N 0.58952 0.01345 0.12771 0.0
C1782 C 0.56663 0.06524 0.06748 0.0
C1783 C 0.58003 0.02763 0.10681 0.0
N1784 N 0.54298 0.0892 0.10127 0.0
N1785 N 0.61265 0.00914 0.0767 0.0
H1786 H 0.583 0.0167 0.14698 0.0
H1787 H 0.60603 1.00127 0.12691 0.0
H1788 H 0.62417 0.00952 0.05964 0.0
H1789 H 0.61655 0.9929 0.08864 0.0
H1790 H 0.54175 0.10618 0.08973 0.0
H1791 H 0.53792 0.09236 0.12099 0.0
H1792 H 0.54222 0.09444 0.04995 0.0
H1793 H 0.56611 0.08136 0.02878 0.0
C1794 C 0.22184 0.33127 0.35444 0.0
C1795 C 0.22674 0.30373 0.35197 0.0
C1796 C 0.22398 0.30781 0.30342 0.0
C1797 C 0.22059 0.33537 0.3059 0.0
N1798 N 0.21908 0.37427 0.3332 0.0
N1799 N 0.23224 0.26588 0.32241 0.0
C1800 C 0.22027 0.34737 0.33129 0.0
C1801 C 0.22761 0.29208 0.32624 0.0
N1802 N 0.21723 0.34176 0.37891 0.0
N1803 N 0.22414 0.29631 0.27898 0.0
H1804 H 0.23588 0.25222 0.33733 0.0
H1805 H 0.23588 0.25222 0.33733 0.0
H1806 H 0.22175 0.30698 0.26151 0.0
H1807 H 0.22661 0.27604 0.27622 0.0
H1808 H 0.21081 0.36101 0.38209 0.0
H1809 H 0.2175 0.33049 0.39615 0.0
H1810 H 0.22172 0.38461 0.35076 0.0
H1811 H 0.21735 0.3866 0.31678 0.0
C1812 C 0.92842 0.97472 0.60717 0.0
C1813 C 0.95581 0.96834 0.60763 0.0
C1814 C 0.95565 0.96415 0.55925 0.0
C1815 C 0.92874 0.97154 0.55853 0.0
N1816 N 0.88903 0.9846 0.58129 0.0
N1817 N 0.98964 0.94312 0.58495 0.0
C1818 C 0.91495 0.97703 0.5824 0.0
C1819 C 0.96797 0.95917 0.58393 0.0
N1820 N 0.91488 0.97595 0.63052 0.0
N1821 N 0.96951 0.96173 0.5362 0.0
H1822 H 0.99608 0.93429 0.60236 0.0
H1823 H 0.99818 0.93465 0.56824 0.0
H1824 H 0.96101 0.96515 0.51773 0.0
H1825 H 0.98992 0.959 0.53565 0.0
H1826 H 0.89466 0.97911 0.63214 0.0
H1827 H 0.92351 0.9707 0.64848 0.0
H1828 H 0.87827 0.99142 0.5974 0.0
H1829 H 0.8784 0.9856 0.5637 0.0
C1830 C 0.30538 0.68271 0.85473 0.0
C1831 C 0.29928 0.71001 0.85286 0.0
C1832 C 0.30203 0.70675 0.80421 0.0
C1833 C 0.30442 0.67905 0.80628 0.0
N1834 N 0.30609 0.63988 0.83327 0.0
N1835 N 0.28882 0.74757 0.82473 0.0
C1836 C 0.30551 0.6668 0.83149 0.0
C1837 C 0.2971 0.72202 0.82732 0.0
N1838 N 0.31214 0.67217 0.87865 0.0
N1839 N 0.30476 0.71861 0.78008 0.0
H1840 H 0.28547 0.76022 0.84044 0.0
H1841 H 0.28321 0.75585 0.80676 0.0
H1842 H 0.30735 0.70801 0.76259 0.0
H1843 H 0.30669 0.73893 0.77763 0.0
H1844 H 0.31938 0.65307 0.88098 0.0
H1845 H 0.31317 0.68341 0.89589 0.0
H1846 H 0.30385 0.62967 0.85098 0.0
H1847 H 0.30676 0.62756 0.81678 0.0
C1848 C 0.56606 0.94255 0.44263 0.0
C1849 C 0.58768 0.9595 0.44833 0.0
C1850 C 0.58013 0.98312 0.40667 0.0
C1851 C 0.55944 0.96526 0.40015 0.0
N1852 N 0.53673 0.92439 0.40939 0.0
N1853 N 0.6174 0.9941 0.43402 0.0
C1854 C 0.55353 0.94395 0.41746 0.0
C1855 C 0.59538 0.97907 0.42978 0.0
N1856 N 0.55678 0.92578 0.46167 0.0
N1857 N 0.58563 1.00465 0.39152 0.0
H1858 H 0.63007 0.99122 0.45 0.0
H1859 H 0.62353 0.00871 0.42082 0.0
H1860 H 0.5751 0.00998 0.37463 0.0
H1861 H 0.5751 0.00998 0.37463 0.0
H1862 H 0.53931 0.91507 0.45979 0.0
H1863 H 0.56523 0.92429 0.4804 0.0
H1864 H 0.53376 0.90696 0.41989 0.0
H1865 H 0.52775 0.92429 0.39084 0.0
C1866 C 0.29506 0.33665 0.65578 0.0
C1867 C 0.29292 0.3087 0.65721 0.0
C1868 C 0.30116 0.31096 0.70515 0.0
C1869 C 0.30021 0.33882 0.70402 0.0
N1870 N 0.29199 0.37845 0.67902 0.0
N1871 N 0.28782 0.26997 0.68515 0.0
C1872 C 0.29585 0.35176 0.67954 0.0
C1873 C 0.29443 0.29599 0.68239 0.0
N1874 N 0.29756 0.34873 0.63177 0.0
N1875 N 0.30884 0.29867 0.72794 0.0
H1876 H 0.2812 0.2582 0.66973 0.0
H1877 H 0.28592 0.26071 0.70342 0.0
H1878 H 0.31336 0.30888 0.74526 0.0
H1879 H 0.31302 0.27855 0.72897 0.0
H1880 H 0.30183 0.36873 0.62961 0.0
H1881 H 0.2981 0.33831 0.61401 0.0
H1882 H 0.286 0.38863 0.66218 0.0
H1883 H 0.29261 0.39015 0.69598 0.0
C1884 C 0.92987 0.0347 0.9038 0.0
C1885 C 0.95278 0.0504 0.89945 0.0
C1886 C 0.94606 0.07214 0.94227 0.0
C1887 C 0.92508 0.05449 0.94811 0.0
N1888 N 0.89523 0.02017 0.93392 0.0
N1889 N 0.97143 0.09341 0.9079 0.0
C1890 C 0.91638 0.03613 0.92865 0.0
C1891 C 0.95765 0.07196 0.91672 0.0
N1892 N 0.91961 0.02055 0.88324 0.0
N1893 N 0.95563 0.08858 0.96143 0.0
H1894 H 0.97668 0.09568 0.8881 0.0
H1895 H 0.97386 0.11057 0.91898 0.0
H1896 H 0.94792 0.08925 0.98053 0.0
H1897 H 0.97278 0.09974 0.95905 0.0
H1898 H 0.90228 0.00955 0.88418 0.0
H1899 H 0.92671 0.02255 0.864 0.0
H1900 H 0.88973 1.00417 0.92228 0.0
H1901 H 0.88349 0.02228 0.95071 0.0
C1902 C 0.20389 0.7032 0.20028 0.0
C1903 C 0.21677 0.6786 0.20323 0.0
C1904 C 0.23011 0.68054 0.15639 0.0
C1905 C 0.21709 0.70536 0.1538 0.0
N1906 N 0.17948 0.73024 0.16981 0.0
N1907 N 0.23578 0.64035 0.18212 0.0
C1908 C 0.20028 0.71379 0.17466 0.0
C1909 C 0.22821 0.66622 0.18072 0.0
N1910 N 0.19473 0.71646 0.22192 0.0
N1911 N 0.24332 0.6701 0.13534 0.0
H1912 H 0.2342 0.62915 0.19932 0.0
H1913 H 0.24172 0.62933 0.16581 0.0
H1914 H 0.24074 0.67709 0.11614 0.0
H1915 H 0.25653 0.65441 0.1369 0.0
H1916 H 0.1871 0.73555 0.22077 0.0
H1917 H 0.1972 0.70946 0.24116 0.0
H1918 H 0.16587 0.73557 0.18434 0.0
H1919 H 0.17325 0.73475 0.15071 0.0
C1920 C 0.0901 0.54925 0.06282 0.0
C1921 C 0.11014 0.55741 0.04483 0.0
C1922 C 0.08168 0.59427 0.03068 0.0
C1923 C 0.06052 0.58364 0.0458 0.0
N1924 N 0.04362 0.54966 0.07444 0.0
N1925 N 0.12898 0.59519 0.0229 0.0
C1926 C 0.06451 0.56077 0.06139 0.0
C1927 C 0.10709 0.58204 0.03169 0.0
N1928 N 0.09629 0.53251 0.08305 0.0
N1929 N 0.07749 0.61603 0.01528 0.0
H1930 H 0.14808 0.58903 0.02748 0.0
H1931 H 0.12854 0.61408 0.01482 0.0
H1932 H 0.05967 0.62634 0.01502 0.0
H1933 H 0.091 0.62282 1.00133 0.0
H1934 H 0.08311 0.5274 0.09801 0.0
H1935 H 0.11572 0.52706 0.08724 0.0
H1936 H 0.04462 0.53134 0.08372 0.0
H1937 H 0.0246 0.55759 0.07388 0.0
C1938 C 0.59383 0.95518 0.9525 0.0
C1939 C 0.61088 0.95062 0.97431 0.0
C1940 C 0.57961 0.91684 0.99063 0.0
C1941 C 0.56078 0.9253 0.97151 0.0
N1942 N 0.54893 0.95499 0.93625 0.0
N1943 N 0.62487 0.91925 0.00702 0.0
C1944 C 0.56763 0.9452 0.95307 0.0
C1945 C 0.60508 0.92925 0.99163 0.0
N1946 N 0.60334 0.96686 0.93011 0.0
N1947 N 0.57325 0.89679 0.00757 0.0
H1948 H 0.64447 0.92526 1.00486 0.0
H1949 H 0.6229 0.90316 0.0196 0.0
H1950 H 0.55585 0.8859 1.00605 0.0
H1951 H 0.58458 0.89133 0.02379 0.0
H1952 H 0.59223 0.9689 0.91291 0.0
H1953 H 0.62344 0.97045 0.92727 0.0
H1954 H 0.55222 0.97137 0.92423 0.0
H1955 H 0.52937 0.94843 0.93624 0.0
C1956 C 0.30231 0.30418 0.19845 0.0
C1957 C 0.32916 0.31104 0.19443 0.0
C1958 C 0.31682 0.35787 0.19171 0.0
C1959 C 0.29015 0.35122 0.19746 0.0
N1960 N 0.2591 0.31833 0.21304 0.0
N1961 N 0.36246 0.34485 0.18873 0.0
C1962 C 0.28331 0.32442 0.20262 0.0
C1963 C 0.33651 0.33796 0.19159 0.0
N1964 N 0.29474 0.27828 0.19741 0.0
N1965 N 0.32422 0.3831 0.18607 0.0
H1966 H 0.37785 0.3312 0.1894 0.0
H1967 H 0.36853 0.36443 0.18648 0.0
H1968 H 0.31118 0.39903 0.18516 0.0
H1969 H 0.31118 0.39903 0.18516 0.0
H1970 H 0.27505 0.27227 0.19719 0.0
H1971 H 0.30803 0.26286 0.19423 0.0
H1972 H 0.25417 0.29958 0.21991 0.0
H1973 H 0.2449 0.33248 0.21771 0.0
C1974 C 0.93443 0.08667 0.45615 0.0
C1975 C 0.96001 0.07753 0.4491 0.0
C1976 C 0.94235 0.03266 0.44499 0.0
C1977 C 0.9161 0.04242 0.44812 0.0
N1978 N 0.88773 0.08031 0.45637 0.0
N1979 N 0.98734 0.04249 0.43202 0.0
C1980 C 0.91228 0.06967 0.45367 0.0
C1981 C 0.9637 0.05071 0.44216 0.0
N1982 N 0.93093 0.11195 0.46486 0.0
N1983 N 0.9473 1.00618 0.44662 0.0
H1984 H 1.00343 0.05511 0.42943 0.0
H1985 H 0.99011 0.02376 0.42396 0.0
H1986 H 0.93278 0.99228 0.45113 0.0
H1987 H 0.96635 0.99838 0.44695 0.0
H1988 H 0.9124 0.11936 0.47011 0.0
H1989 H 0.94659 0.12506 0.4677 0.0
H1990 H 0.87017 0.06977 0.45398 0.0
H1991 H 0.87017 0.06977 0.45398 0.0
C1992 C 0.70972 0.16793 0.19691 0.0
C1993 C 0.70545 0.15013 0.21818 0.0
C1994 C 0.66997 0.17931 0.23464 0.0
C1995 C 0.67772 0.19892 0.21605 0.0
N1996 N 0.70703 0.21294 0.1812 0.0
N1997 N 0.67318 0.13354 0.24887 0.0
C1998 C 0.69813 0.19346 0.19764 0.0
C1999 C 0.68324 0.15434 0.23492 0.0
N2000 N 0.72275 0.15961 0.17479 0.0
N2001 N 0.64989 0.18451 0.25194 0.0
H2002 H 0.67985 0.11427 0.24605 0.0
H2003 H 0.65616 0.13439 0.26036 0.0
H2004 H 0.63841 0.20155 0.25101 0.0
H2005 H 0.64532 0.17267 0.2681 0.0
H2006 H 0.72467 0.17108 0.15781 0.0
H2007 H 0.72782 0.13987 0.17183 0.0
H2008 H 0.72376 0.21087 0.16936 0.0
H2009 H 0.69928 0.23202 0.18127 0.0
C2010 C 0.40295 0.42735 0.53112 0.0
C2011 C 0.39833 0.4498 0.54732 0.0
C2012 C 0.44119 0.44288 0.56906 0.0
C2013 C 0.44727 0.42261 0.55071 0.0
N2014 N 0.43403 0.39484 0.51433 0.0
N2015 N 0.40675 0.46817 0.59043 0.0
C2016 C 0.42813 0.41459 0.53176 0.0
C2017 C 0.41563 0.45452 0.56892 0.0
N2018 N 0.38239 0.41662 0.5173 0.0
N2019 N 0.46018 0.45171 0.58611 0.0
H2020 H 0.38698 0.47358 0.59257 0.0
H2021 H 0.4177 0.47049 0.60769 0.0
H2022 H 0.47922 0.44385 0.58674 0.0
H2023 H 0.45781 0.46841 0.59789 0.0
H2024 H 0.38365 0.39925 0.50641 0.0
H2025 H 0.36297 0.42301 0.51985 0.0
H2026 H 0.4225 0.39032 0.49793 0.0
H2027 H 0.45138 0.38379 0.51532 0.0
C2028 C 0.2972 0.72094 0.30836 0.0
C2029 C 0.32419 0.71496 0.3126 0.0
C2030 C 0.31298 0.66818 0.31898 0.0
C2031 C 0.28604 0.67373 0.31337 0.0
N2032 N 0.25377 0.70486 0.29656 0.0
N2033 N 0.3583 0.6825 0.3204 0.0
C2034 C 0.27845 0.70002 0.3065 0.0
C2035 C 0.33216 0.68851 0.3173 0.0
N2036 N 0.28933 0.74671 0.30684 0.0
N2037 N 0.32112 0.64365 0.32637 0.0
H2038 H 0.37334 0.69645 0.31852 0.0
H2039 H 0.36489 0.66332 0.32405 0.0
H2040 H 0.30854 0.62752 0.3289 0.0
H2041 H 0.30854 0.62752 0.3289 0.0
H2042 H 0.2696 0.75255 0.30709 0.0
H2043 H 0.30256 0.76251 0.30755 0.0
H2044 H 0.24816 0.72291 0.2885 0.0
H2045 H 0.23968 0.69018 0.29345 0.0
C2046 C 0.19539 0.32093 0.82771 0.0
C2047 C 0.17754 0.31318 0.80751 0.0
C2048 C 0.18828 0.35328 0.78249 0.0
C2049 C 0.20528 0.36176 0.8032 0.0
N2050 N 0.22108 0.35613 0.84775 0.0
N2051 N 0.15518 0.32319 0.76648 0.0
C2052 C 0.20773 0.34622 0.82645 0.0
C2053 C 0.17342 0.32974 0.78528 0.0
N2054 N 0.2013 0.30366 0.84762 0.0
N2055 N 0.18597 0.36697 0.75945 0.0
H2056 H 0.14307 0.30658 0.76779 0.0
H2057 H 0.1517 0.33489 0.74987 0.0
H2058 H 0.19633 0.38423 0.75505 0.0
H2059 H 0.19633 0.38423 0.75505 0.0
H2060 H 0.21621 0.30686 0.8614 0.0
H2061 H 0.19281 0.28495 0.84907 0.0
H2062 H 0.2213 0.34714 0.86623 0.0
H2063 H 0.22991 0.37475 0.8477 0.0
C2064 C 0.53495 0.57682 0.09348 0.0
C2065 C 0.54869 0.55546 0.08147 0.0
C2066 C 0.56379 0.58504 0.0462 0.0
C2067 C 0.54681 0.6053 0.05572 0.0
N2068 N 0.52728 0.62414 0.09476 0.0
N2069 N 0.57367 0.53831 0.04482 0.0
C2070 C 0.53522 0.60223 0.08116 0.0
C2071 C 0.56233 0.55935 0.05736 0.0
N2072 N 0.52169 0.57283 0.11668 0.0
N2073 N 0.58332 0.59097 0.02851 0.0
H2074 H 0.57298 0.51915 0.05239 0.0
H2075 H 0.58144 0.53943 0.02578 0.0
H2076 H 0.58805 0.61035 0.02343 0.0
H2077 H 0.59752 0.57742 0.02235 0.0
H2078 H 0.50862 0.58642 0.12484 0.0
H2079 H 0.52237 0.55511 0.1271 0.0
H2080 H 0.52024 0.62384 0.11407 0.0
H2081 H 0.53135 0.6432 0.08815 0.0
C2082 C 0.68162 0.3135 0.29611 0.0
C2083 C 0.65841 0.30192 0.30717 0.0
C2084 C 0.68213 0.29798 0.34957 0.0
C2085 C 0.70636 0.30345 0.33636 0.0
N2086 N 0.72942 0.31365 0.296 0.0
N2087 N 0.63526 0.28795 0.34635 0.0
C2088 C 0.70616 0.31038 0.30932 0.0
C2089 C 0.65831 0.29561 0.33457 0.0
N2090 N 0.68021 0.32906 0.27413 0.0
N2091 N 0.68176 0.29596 0.37652 0.0
H2092 H 0.61692 0.29032 0.33725 0.0
H2093 H 0.63426 0.27932 0.36499 0.0
H2094 H 0.69869 0.29756 0.38813 0.0
H2095 H 0.66453 0.29467 0.38767 0.0
H2096 H 0.69654 0.33895 0.26639 0.0
H2097 H 0.6624 0.33596 0.26652 0.0
H2098 H 0.7303 0.31603 0.27556 0.0
H2099 H 0.74784 0.31159 0.30503 0.0
C2100 C 0.97831 0.42818 0.60133 0.0
C2101 C 0.96527 0.44933 0.58822 0.0
C2102 C 0.94983 0.41857 0.55415 0.0
C2103 C 0.96637 0.39842 0.56461 0.0
N2104 N 0.98528 0.3808 0.60447 0.0
N2105 N 0.94093 0.46537 0.55065 0.0
C2106 C 0.97775 0.40229 0.59002 0.0
C2107 C 0.95171 0.44468 0.5642 0.0
N2108 N 0.99121 0.43285 0.62459 0.0
N2109 N 0.93038 0.41225 0.53654 0.0
H2110 H 0.94193 0.48483 0.55736 0.0
H2111 H 0.93331 0.46355 0.53161 0.0
H2112 H 0.92546 0.39274 0.53212 0.0
H2113 H 0.91645 0.42576 0.52972 0.0
H2114 H 1.0038 0.41934 0.63359 0.0
H2115 H 0.99066 0.45098 0.6343 0.0
H2116 H 0.99222 0.38169 0.62378 0.0
H2117 H 0.98102 0.36156 0.5985 0.0
C2118 C 0.82378 0.73816 0.8374 0.0
C2119 C 0.8059 0.71707 0.83258 0.0
C2120 C 0.83754 0.69779 0.80126 0.0
C2121 C 0.85406 0.72036 0.80379 0.0
N2122 N 0.85941 0.76494 0.82016 0.0
N2123 N 0.79358 0.67941 0.80625 0.0
C2124 C 0.84625 0.74138 0.82073 0.0
C2125 C 0.81213 0.6977 0.81333 0.0
N2126 N 0.82011 0.75446 0.85859 0.0
N2127 N 0.84657 0.67591 0.78828 0.0
H2128 H 0.77466 0.67895 0.81447 0.0
H2129 H 0.79604 0.66642 0.79049 0.0
H2130 H 0.86547 0.67475 0.78011 0.0
H2131 H 0.83647 0.65799 0.78808 0.0
H2132 H 0.83413 0.76827 0.86464 0.0
H2133 H 0.80429 0.75258 0.87165 0.0
H2134 H 0.85265 0.78174 0.82994 0.0
H2135 H 0.87556 0.7686 0.80794 0.0
C2136 C 0.55317 0.42771 0.41582 0.0
C2137 C 0.55668 0.45312 0.42711 0.0
C2138 C 0.5604 0.43319 0.47091 0.0
C2139 C 0.55154 0.40846 0.46046 0.0
N2140 N 0.54149 0.38169 0.42238 0.0
N2141 N 0.55983 0.48068 0.46568 0.0
C2142 C 0.54858 0.40561 0.43267 0.0
C2143 C 0.55928 0.45602 0.45471 0.0
N2144 N 0.55485 0.42462 0.38903 0.0
N2145 N 0.57069 0.43522 0.4958 0.0
H2146 H 0.55912 0.49795 0.45447 0.0
H2147 H 0.55844 0.48395 0.48597 0.0
H2148 H 0.57407 0.41942 0.50836 0.0
H2149 H 0.57941 0.45247 0.50285 0.0
H2150 H 0.55524 0.40633 0.37967 0.0
H2151 H 0.55793 0.44037 0.37611 0.0
H2152 H 0.53542 0.37903 0.40291 0.0
H2153 H 0.54107 0.36445 0.43364 0.0
C2154 C 0.82475 0.29218 0.67699 0.0
C2155 C 0.79929 0.29935 0.68639 0.0
C2156 C 0.81766 0.30572 0.73064 0.0
C2157 C 0.84373 0.30327 0.72024 0.0
N2158 N 0.87224 0.29594 0.68277 0.0
N2159 N 0.77175 0.31563 0.72166 0.0
C2160 C 0.84735 0.29665 0.69324 0.0
C2161 C 0.79578 0.30677 0.71311 0.0
N2162 N 0.82725 0.28114 0.65249 0.0
N2163 N 0.81359 0.30559 0.75735 0.0
H2164 H 0.755 0.31604 0.70966 0.0
H2165 H 0.76893 0.32435 0.7401 0.0
H2166 H 0.82878 0.30293 0.77101 0.0
H2167 H 0.79486 0.3048 0.76587 0.0
H2168 H 0.84487 0.27325 0.64538 0.0
H2169 H 0.81105 0.27771 0.6402 0.0
H2170 H 0.87599 0.29403 0.66263 0.0
H2171 H 0.88918 0.29946 0.69394 0.0
C2172 C 0.94835 0.56365 0.94657 0.0
C2173 C 0.96571 0.55718 0.92557 0.0
C2174 C 0.98466 0.60208 0.92785 0.0
C2175 C 0.96883 0.60745 0.95046 0.0
N2176 N 0.92618 0.59873 0.96997 0.0
N2177 N 0.9998 0.57039 0.89496 0.0
C2178 C 0.94787 0.5898 0.95663 0.0
C2179 C 0.98375 0.57647 0.91582 0.0
N2180 N 0.93254 0.54459 0.95735 0.0
N2181 N 0.99829 0.62232 0.9163 0.0
H2182 H 0.99819 0.55287 0.8843 0.0
H2183 H 0.01555 0.58204 0.88877 0.0
H2184 H 0.99576 0.6419 0.92213 0.0
H2185 H 0.00931 0.62062 0.89905 0.0
H2186 H 0.92152 0.54756 0.97449 0.0
H2187 H 0.93245 0.52509 0.95071 0.0
H2188 H 0.90941 0.58724 0.97326 0.0
H2189 H 0.92318 0.61872 0.97389 0.0
C2190 C 0.66372 0.73039 0.1855 0.0
C2191 C 0.66227 0.71813 0.21077 0.0
C2192 C 0.70605 0.69792 0.20247 0.0
C2193 C 0.70865 0.71297 0.17915 0.0
N2194 N 0.69119 0.7455 0.14919 0.0
N2195 N 0.68382 0.6878 0.24225 0.0
C2196 C 0.68781 0.72975 0.17086 0.0
C2197 C 0.68352 0.7011 0.21885 0.0
N2198 N 0.6415 0.74135 0.17477 0.0
N2199 N 0.72562 0.68074 0.20969 0.0
H2200 H 0.66922 0.68831 0.25671 0.0
H2201 H 0.66922 0.68831 0.25671 0.0
H2202 H 0.74279 0.67794 0.19861 0.0
H2203 H 0.72455 0.66911 0.22667 0.0
H2204 H 0.64048 0.74836 0.15546 0.0
H2205 H 0.62311 0.7406 0.1841 0.0
H2206 H 0.67807 0.76043 0.14394 0.0
H2207 H 0.70821 0.7451 0.13755 0.0
C2208 C 0.09005 0.5317 0.57848 0.0
C2209 C 0.0854 0.55342 0.56143 0.0
C2210 C 0.05568 0.5729 0.59456 0.0
C2211 C 0.05855 0.55004 0.61059 0.0
N2212 N 0.07816 0.50648 0.61631 0.0
N2213 N 0.06121 0.59309 0.55138 0.0
C2214 C 0.07553 0.52926 0.60226 0.0
C2215 C 0.06753 0.57364 0.569 0.0
N2216 N 0.1086 0.5131 0.57224 0.0
N2217 N 0.04243 0.59434 0.60426 0.0
H2218 H 0.06936 0.5941 0.53246 0.0
H2219 H 0.0463 0.60688 0.55454 0.0
H2220 H 0.03405 0.59469 0.6231 0.0
H2221 H 0.04189 0.61259 0.59483 0.0
H2222 H 0.11246 0.49683 0.58429 0.0
H2223 H 0.1207 0.51436 0.55562 0.0
H2224 H 0.06804 0.50227 0.63376 0.0
H2225 H 0.06804 0.50227 0.63376 0.0
C2226 C 0.70021 0.81239 0.81365 0.0
C2227 C 0.71683 0.83415 0.80787 0.0
C2228 C 0.73474 0.83186 0.85316 0.0
C2229 C 0.71828 0.80961 0.85851 0.0
N2230 N 0.67592 0.79013 0.84801 0.0
N2231 N 0.74529 0.86872 0.82411 0.0
C2232 C 0.69815 0.80319 0.84003 0.0
C2233 C 0.73296 0.84503 0.82817 0.0
N2234 N 0.68618 0.80049 0.79391 0.0
N2235 N 0.75123 0.84112 0.87239 0.0
H2236 H 0.74428 0.879 0.80631 0.0
H2237 H 0.75509 0.87922 0.83881 0.0
H2238 H 0.749 0.8359 0.89219 0.0
H2239 H 0.76668 0.85424 0.86886 0.0
H2240 H 0.67562 0.78304 0.79676 0.0
H2241 H 0.68728 0.80657 0.77424 0.0
H2242 H 0.65997 0.78651 0.8355 0.0
H2243 H 0.67157 0.78698 0.86789 0.0
C2244 C 0.43236 0.46049 0.10905 0.0
C2245 C 0.45967 0.45384 0.10906 0.0
C2246 C 0.45808 0.44672 0.06118 0.0
C2247 C 0.43107 0.45371 0.06082 0.0
N2248 N 0.39069 0.46126 0.08517 0.0
N2249 N 0.49241 0.42657 0.08713 0.0
C2250 C 0.41763 0.45898 0.085 0.0
C2251 C 0.47081 0.44267 0.08576 0.0
N2252 N 0.42032 0.4674 0.13218 0.0
N2253 N 0.47174 0.44403 0.03806 0.0
H2254 H 0.4994 0.41904 0.10497 0.0
H2255 H 0.50024 0.41697 0.07068 0.0
H2256 H 0.46304 0.44698 0.01961 0.0
H2257 H 0.49216 0.44132 0.03747 0.0
H2258 H 0.40185 0.47637 0.13324 0.0
H2259 H 0.42898 0.46384 0.15054 0.0
H2260 H 0.37936 0.46223 0.1023 0.0
H2261 H 0.3792 0.46027 0.06813 0.0
C2262 C 0.81542 0.21284 0.33911 0.0
C2263 C 0.79897 0.20298 0.35975 0.0
C2264 C 0.78658 0.16551 0.33111 0.0
C2265 C 0.8002 0.1774 0.30964 0.0
N2266 N 0.82523 0.21381 0.2922 0.0
N2267 N 0.78051 0.1634 0.37859 0.0
C2268 C 0.81395 0.20147 0.3134 0.0
C2269 C 0.78759 0.17746 0.35667 0.0
N2270 N 0.83455 0.23105 0.3447 0.0
N2271 N 0.77247 0.14285 0.32704 0.0
H2272 H 0.78504 0.16976 0.39764 0.0
H2273 H 0.77395 0.14393 0.3781 0.0
H2274 H 0.77204 0.13303 0.30894 0.0
H2275 H 0.75956 0.13488 0.34092 0.0
H2276 H 0.84838 0.2376 0.33093 0.0
H2277 H 0.83947 0.23631 0.36399 0.0
H2278 H 0.83292 0.23287 0.29304 0.0
H2279 H 0.82462 0.206 0.27313 0.0
C2280 C 0.08317 0.46496 0.90341 0.0
C2281 C 0.05629 0.45659 0.90307 0.0
C2282 C 0.05854 0.44744 0.95059 0.0
C2283 C 0.08507 0.45613 0.95129 0.0
N2284 N 0.12484 0.46707 0.92734 0.0
N2285 N 0.02553 0.42622 0.92379 0.0
C2286 C 0.09809 0.46317 0.92736 0.0
C2287 C 0.046 0.44367 0.92585 0.0
N2288 N 0.09465 0.47383 0.88066 0.0
N2289 N 0.04507 0.44301 0.97355 0.0
H2290 H 0.01887 0.41912 0.90567 0.0
H2291 H 0.01846 0.41539 0.93982 0.0
H2292 H 0.05359 0.44566 0.99214 0.0
H2293 H 0.02484 0.43908 0.97398 0.0
H2294 H 0.11258 0.4839 0.88007 0.0
H2295 H 0.08608 0.47085 0.86216 0.0
H2296 H 0.13604 0.46968 0.91029 0.0
H2297 H 0.13638 0.4658 0.94435 0.0
C2298 C 0.81665 0.82858 0.15714 0.0
C2299 C 0.7945 0.812 0.15269 0.0
C2300 C 0.77884 0.82075 0.19769 0.0
C2301 C 0.8002 0.83834 0.20201 0.0
N2302 N 0.83446 0.86475 0.18364 0.0
N2303 N 0.75049 0.79925 0.16685 0.0
C2304 C 0.81779 0.84385 0.1809 0.0
C2305 C 0.7743 0.81058 0.17209 0.0
N2306 N 0.83671 0.82927 0.13912 0.0
N2307 N 0.76308 0.81288 0.2181 0.0
H2308 H 0.74523 0.79155 0.14846 0.0
H2309 H 0.74523 0.79155 0.14846 0.0
H2310 H 0.76724 0.81754 0.23773 0.0
H2311 H 0.74716 0.80003 0.2154 0.0
H2312 H 0.85478 0.83846 0.14269 0.0
H2313 H 0.83576 0.81918 0.12116 0.0
H2314 H 0.84657 0.87202 0.16862 0.0
H2315 H 0.84657 0.87202 0.16862 0.0
C2316 C 0.45475 0.55928 0.45167 0.0
C2317 C 0.43252 0.54259 0.45533 0.0
C2318 C 0.43982 0.52368 0.41125 0.0
C2319 C 0.45999 0.54263 0.40622 0.0
N2320 N 0.4838 0.58137 0.42064 0.0
N2321 N 0.40302 0.50936 0.43772 0.0
C2322 C 0.46686 0.56109 0.42628 0.0
C2323 C 0.42487 0.52496 0.43492 0.0
N2324 N 0.4644 0.57327 0.47264 0.0
N2325 N 0.43442 0.50376 0.39401 0.0
H2326 H 0.39074 0.50995 0.45424 0.0
H2327 H 0.39678 0.49635 0.42298 0.0
H2328 H 0.44492 0.50028 0.37661 0.0
H2329 H 0.44492 0.50028 0.37661 0.0
H2330 H 0.48209 0.58378 0.47206 0.0
H2331 H 0.456 0.57225 0.49145 0.0
H2332 H 0.48737 0.59703 0.43349 0.0
H2333 H 0.49236 0.58406 0.40209 0.0
C2334 C 0.69607 0.20524 0.70812 0.0
C2335 C 0.70422 0.17857 0.70847 0.0
C2336 C 0.7116 0.18049 0.66037 0.0
C2337 C 0.70364 0.20743 0.66029 0.0
N2338 N 0.6749 0.23897 0.68219 0.0
N2339 N 0.7129 0.13866 0.68387 0.0
C2340 C 0.69169 0.21793 0.68352 0.0
C2341 C 0.70999 0.16549 0.68424 0.0
N2342 N 0.69294 0.21876 0.73124 0.0
N2343 N 0.72013 0.16908 0.63746 0.0
H2344 H 0.71159 0.12699 0.70078 0.0
H2345 H 0.71447 0.1276 0.66661 0.0
H2346 H 0.71756 0.17803 0.61907 0.0
H2347 H 0.72985 0.15099 0.63669 0.0
H2348 H 0.68951 0.23905 0.73185 0.0
H2349 H 0.69624 0.21018 0.74969 0.0
H2350 H 0.66482 0.24621 0.69863 0.0
H2351 H 0.66748 0.24616 0.66442 0.0
C2352 C 0.55983 0.05809 0.56528 0.0
C2353 C 0.55601 0.08096 0.54964 0.0
C2354 C 0.59991 0.07452 0.5299 0.0
C2355 C 0.60507 0.05385 0.54816 0.0
N2356 N 0.59147 0.02963 0.58696 0.0
N2357 N 0.57477 0.11409 0.52077 0.0
C2358 C 0.58539 0.04659 0.56686 0.0
C2359 C 0.57668 0.09008 0.53292 0.0
N2360 N 0.53896 0.04735 0.57865 0.0
N2361 N 0.61642 0.07861 0.50892 0.0
H2362 H 0.55839 0.1264 0.52271 0.0
H2363 H 0.59049 0.12282 0.51073 0.0
H2364 H 0.63318 0.06721 0.50538 0.0
H2365 H 0.61196 0.09157 0.49357 0.0
H2366 H 0.53997 0.02924 0.58836 0.0
H2367 H 0.51996 0.05532 0.57789 0.0
H2368 H 0.57869 0.02567 0.60261 0.0
H2369 H 0.61032 0.02173 0.5896 0.0
C2370 C 0.06573 0.44185 0.4925 0.0
C2371 C 0.06221 0.42369 0.47144 0.0
C2372 C 0.10633 0.43577 0.45451 0.0
C2373 C 0.11003 0.45296 0.47628 0.0
N2374 N 0.09554 0.46543 0.52024 0.0
N2375 N 0.0837 0.39691 0.43823 0.0
C2376 C 0.09077 0.45354 0.49663 0.0
C2377 C 0.08381 0.41877 0.454 0.0
N2378 N 0.04512 0.44867 0.50852 0.0
N2379 N 0.12417 0.43568 0.43427 0.0
H2380 H 0.10008 0.391 0.42724 0.0
H2381 H 0.06853 0.38298 0.43859 0.0
H2382 H 0.1414 0.44702 0.43462 0.0
H2383 H 0.12096 0.42558 0.41661 0.0
H2384 H 0.04728 0.462 0.52411 0.0
H2385 H 0.02575 0.44255 0.50506 0.0
H2386 H 0.11355 0.47413 0.52527 0.0
H2387 H 0.11355 0.47413 0.52527 0.0
C2388 C 0.83368 0.85667 0.70473 0.0
C2389 C 0.80594 0.85645 0.7004 0.0
C2390 C 0.80745 0.80885 0.69149 0.0
C2391 C 0.83452 0.80839 0.69844 0.0
N2392 N 0.87456 0.83172 0.70962 0.0
N2393 N 0.77182 0.83535 0.67438 0.0
C2394 C 0.84807 0.83236 0.70424 0.0
C2395 C 0.79426 0.83345 0.68923 0.0
N2396 N 0.84637 0.88039 0.70706 0.0
N2397 N 0.79401 0.78574 0.68776 0.0
H2398 H 0.7642 0.85343 0.66819 0.0
H2399 H 0.76352 0.81935 0.66444 0.0
H2400 H 0.803 0.76726 0.68911 0.0
H2401 H 0.77354 0.78494 0.6856 0.0
H2402 H 0.86668 0.88264 0.70915 0.0
H2403 H 0.83666 0.89828 0.70394 0.0
H2404 H 0.88533 0.8477 0.71671 0.0
H2405 H 0.88597 0.81468 0.7078 0.0
C2406 C 0.43452 0.5353 0.94527 0.0
C2407 C 0.40987 0.54613 0.95342 0.0
C2408 C 0.43117 0.58937 0.95934 0.0
C2409 C 0.45619 0.57786 0.95375 0.0
N2410 N 0.48236 0.53914 0.94521 0.0
N2411 N 0.38558 0.58236 0.97247 0.0
C2412 C 0.45805 0.55059 0.94783 0.0
C2413 C 0.4084 0.57291 0.96154 0.0
N2414 N 0.43528 0.5108 0.93398 0.0
N2415 N 0.429 0.61615 0.96188 0.0
H2416 H 0.36853 0.57095 0.97452 0.0
H2417 H 0.3842 0.60075 0.98158 0.0
H2418 H 0.44515 0.62891 0.96078 0.0
H2419 H 0.41094 0.62595 0.96295 0.0
H2420 H 0.45212 0.50294 0.92514 0.0
H2421 H 0.41844 0.49926 0.93108 0.0
H2422 H 0.48519 0.51884 0.94375 0.0
H2423 H 0.49995 0.54982 0.94667 0.0
C2424 C 0.19743 0.69824 0.69172 0.0
C2425 C 0.17708 0.70365 0.71029 0.0
C2426 C 0.18726 0.66217 0.73324 0.0
C2427 C 0.20616 0.65558 0.71343 0.0
N2428 N 0.22511 0.66526 0.67075 0.0
N2429 N 0.15045 0.68881 0.74713 0.0
C2430 C 0.21014 0.67311 0.69183 0.0
C2431 C 0.17134 0.68502 0.73044 0.0
N2432 N 0.20522 0.71746 0.67443 0.0
N2433 N 0.18412 0.6474 0.7555 0.0
H2434 H 0.13716 0.70439 0.74515 0.0
H2435 H 0.14575 0.67551 0.76217 0.0
H2436 H 0.19549 0.63091 0.76024 0.0
H2437 H 0.19549 0.63091 0.76024 0.0
H2438 H 0.2218 0.71578 0.66235 0.0
H2439 H 0.19661 0.73616 0.6739 0.0
H2440 H 0.22648 0.67596 0.65323 0.0
H2441 H 0.23403 0.64674 0.66962 0.0
C2442 C 0.94886 0.94759 0.06769 0.0
C2443 C 0.95549 0.92897 0.04784 0.0
C2444 C 0.91516 0.94074 0.02353 0.0
C2445 C 0.90719 0.95738 0.04476 0.0
N2446 N 0.91407 0.97207 0.08958 0.0
N2447 N 0.94205 0.90366 0.00973 0.0
C2448 C 0.92341 0.9595 0.06757 0.0
C2449 C 0.93784 0.92436 0.02654 0.0
N2450 N 0.96713 0.95432 0.0864 0.0
N2451 N 0.90201 0.94137 0.99996 0.0
H2452 H 0.95821 0.89102 0.01129 0.0
H2453 H 0.92823 0.8976 0.99573 0.0
H2454 H 0.88555 0.95319 0.99647 0.0
H2455 H 0.90895 0.93199 0.98301 0.0
H2456 H 0.96442 0.9697 0.09978 0.0
H2457 H 0.98608 0.94621 0.08691 0.0
H2458 H 0.92392 0.97201 0.10764 0.0
H2459 H 0.89514 0.98018 0.09063 0.0
C2460 C 0.80234 0.16866 0.81531 0.0
C2461 C 0.80999 0.14826 0.79761 0.0
C2462 C 0.84939 0.17439 0.78555 0.0
C2463 C 0.83877 0.1964 0.79943 0.0
N2464 N 0.80376 0.21523 0.82569 0.0
N2465 N 0.84722 0.12722 0.77685 0.0
C2466 C 0.81491 0.19368 0.81386 0.0
C2467 C 0.83538 0.14983 0.78558 0.0
N2468 N 0.78496 0.16341 0.83529 0.0
N2469 N 0.87282 0.17701 0.77235 0.0
H2470 H 0.83936 0.10858 0.78069 0.0
H2471 H 0.86628 0.12632 0.76919 0.0
H2472 H 0.88452 0.19392 0.77349 0.0
H2473 H 0.88016 0.16307 0.75916 0.0
H2474 H 0.7802 0.17701 0.84998 0.0
H2475 H 0.77875 0.14428 0.83972 0.0
H2476 H 0.78488 0.21496 0.83394 0.0
H2477 H 0.81224 0.234 0.82507 0.0
C2478 C 0.69502 0.81838 0.32058 0.0
C2479 C 0.67637 0.81071 0.30112 0.0
C2480 C 0.68692 0.85065 0.27552 0.0
C2481 C 0.70384 0.85952 0.29615 0.0
N2482 N 0.71964 0.85414 0.34078 0.0
N2483 N 0.65039 0.8224 0.26289 0.0
C2484 C 0.70666 0.84399 0.31939 0.0
C2485 C 0.67114 0.82764 0.27937 0.0
N2486 N 0.70221 0.80089 0.33983 0.0
N2487 N 0.68673 0.86336 0.2517 0.0
H2488 H 0.63812 0.806 0.26508 0.0
H2489 H 0.64382 0.83559 0.24854 0.0
H2490 H 0.69795 0.88014 0.24773 0.0
H2491 H 0.67727 0.85585 0.23504 0.0
H2492 H 0.71772 0.80427 0.35293 0.0
H2493 H 0.6943 0.78192 0.3412 0.0
H2494 H 0.72005 0.84492 0.35916 0.0
H2495 H 0.72772 0.8731 0.34098 0.0
C2496 C 0.03539 0.2449 0.45651 0.0
C2497 C 0.01568 0.22663 0.46484 0.0
C2498 C 0.98554 0.26331 0.4745 0.0
C2499 C 1.00559 0.28168 0.46715 0.0
N2500 N 0.05101 0.29029 0.45584 0.0
N2501 N 0.97423 0.21818 0.48643 0.0
C2502 C 0.03096 0.27254 0.45953 0.0
C2503 C 0.99152 0.23581 0.47549 0.0
N2504 N 0.05808 0.23577 0.445 0.0
N2505 N 0.96029 0.27194 0.47885 0.0
H2506 H 0.97794 0.19793 0.48696 0.0
H2507 H 0.95747 0.22376 0.49697 0.0
H2508 H 0.95477 0.29173 0.47762 0.0
H2509 H 0.94424 0.25932 0.48138 0.0
H2510 H 0.07176 0.24789 0.43554 0.0
H2511 H 0.06262 0.21574 0.44355 0.0
H2512 H 0.07064 0.2849 0.4529 0.0
H2513 H 0.04842 0.31062 0.45793 0.0
C2514 C 0.01437 0.78356 0.71548 0.0
C2515 C 0.03248 0.76251 0.71964 0.0
C2516 C 0.99561 0.73131 0.72397 0.0
C2517 C 0.97743 0.75215 0.71884 0.0
N2518 N 0.96865 0.79862 0.71493 0.0
N2519 N 0.04079 0.71814 0.73399 0.0
C2520 C 0.98661 0.77849 0.71624 0.0
C2521 C 0.02317 0.73695 0.72596 0.0
N2522 N 0.02387 0.80826 0.71011 0.0
N2523 N 0.98668 0.70589 0.72534 0.0
H2524 H 0.06105 0.72183 0.73539 0.0
H2525 H 0.0353 0.69978 0.74141 0.0
H2526 H 0.96672 0.70106 0.72428 0.0
H2527 H 0.99897 0.68944 0.72591 0.0
H2528 H 0.01225 0.82387 0.70356 0.0
H2529 H 0.04389 0.813 0.71148 0.0
H2530 H 0.97366 0.81853 0.71515 0.0
H2531 H 0.94828 0.7954 0.71559 0.0
C2532 C 0.47834 0.76487 0.97182 0.0
C2533 C 0.50024 0.7825 0.97266 0.0
C2534 C 0.53084 0.74483 0.97222 0.0
C2535 C 0.50895 0.7272 0.97153 0.0
N2536 N 0.46221 0.71973 0.97557 0.0
N2537 N 0.54676 0.78968 0.97894 0.0
C2538 C 0.48278 0.73705 0.97294 0.0
C2539 C 0.52634 0.77254 0.97457 0.0
N2540 N 0.45338 0.77471 0.96862 0.0
N2541 N 0.55592 0.73516 0.96938 0.0
H2542 H 0.54395 0.81002 0.98067 0.0
H2543 H 0.56599 0.78373 0.9831 0.0
H2544 H 0.56013 0.71502 0.9683 0.0
H2545 H 0.57248 0.747 0.96645 0.0
H2546 H 0.43693 0.76308 0.9645 0.0
H2547 H 0.44922 0.79488 0.96858 0.0
H2548 H 0.44282 0.72547 0.97928 0.0
H2549 H 0.46493 0.69931 0.97615 0.0
C2550 C 0.52406 0.23724 0.22637 0.0
C2551 C 0.53456 0.26276 0.22173 0.0
C2552 C 0.48949 0.28106 0.22037 0.0
C2553 C 0.47907 0.2551 0.2213 0.0
N2554 N 0.48595 0.20809 0.22421 0.0
N2555 N 0.52784 0.3092 0.21375 0.0
C2556 C 0.49621 0.23308 0.22448 0.0
C2557 C 0.51741 0.28483 0.21897 0.0
N2558 N 0.54082 0.21705 0.23266 0.0
N2559 N 0.47255 0.30207 0.22098 0.0
H2560 H 0.54813 0.31292 0.21364 0.0
H2561 H 0.51661 0.32547 0.2082 0.0
H2562 H 0.45207 0.29977 0.22199 0.0
H2563 H 0.47864 0.32162 0.2227 0.0
H2564 H 0.5345 0.19845 0.2387 0.0
H2565 H 0.56125 0.21963 0.23398 0.0
H2566 H 0.49742 0.19108 0.22316 0.0
H2567 H 0.46569 0.20429 0.22355 0.0
C2568 C 0.02679 0.73818 0.03084 0.0
C2569 C 1.00192 0.7284 0.03921 0.0
C2570 C 0.98557 0.77394 0.04341 0.0
C2571 C 0.01154 0.78367 0.03934 0.0
N2572 N 0.05767 0.77486 0.03055 0.0
N2573 N 0.95796 0.73679 0.05564 0.0
C2574 C 0.03233 0.76579 0.03292 0.0
C2575 C 0.98128 0.74625 0.04579 0.0
N2576 N 0.04515 0.72099 0.02105 0.0
N2577 N 0.96493 0.79129 0.04475 0.0
H2578 H 0.954 0.71669 0.05758 0.0
H2579 H 0.94333 0.74878 0.06372 0.0
H2580 H 0.96746 0.81164 0.04267 0.0
H2581 H 0.94519 0.78546 0.04523 0.0
H2582 H 0.06275 0.72696 0.01221 0.0
H2583 H 0.04166 0.70072 0.01971 0.0
H2584 H 0.07407 0.76253 0.02927 0.0
H2585 H 0.06266 0.79478 0.03156 0.0
C2586 C 0.51516 0.72836 0.30676 0.0
C2587 C 0.5333 0.74657 0.29536 0.0
C2588 C 0.4963 0.7752 0.28244 0.0
C2589 C 0.4781 0.75661 0.29326 0.0
N2590 N 0.46984 0.71279 0.30965 0.0
N2591 N 0.54112 0.78423 0.26751 0.0
C2592 C 0.48748 0.7323 0.30347 0.0
C2593 C 0.5238 0.76886 0.28139 0.0
N2594 N 0.52435 0.70774 0.32156 0.0
N2595 N 0.48773 0.79969 0.275 0.0
H2596 H 0.5614 0.78053 0.26705 0.0
H2597 H 0.53518 0.79919 0.25471 0.0
H2598 H 0.46801 0.80551 0.27584 0.0
H2599 H 0.50044 0.81507 0.26998 0.0
H2600 H 0.5122 0.69567 0.33298 0.0
H2601 H 0.5444 0.7037 0.32394 0.0
H2602 H 0.4754 0.69369 0.3148 0.0
H2603 H 0.44949 0.71498 0.30707 0.0
C2604 C 0.49448 0.274 0.53063 0.0
C2605 C 0.51754 0.28295 0.54371 0.0
C2606 C 0.533 0.23718 0.54775 0.0
C2607 C 0.50787 0.228 0.5393 0.0
N2608 N 0.46429 0.23787 0.52218 0.0
N2609 N 0.55929 0.27358 0.56457 0.0
C2610 C 0.48867 0.24642 0.53001 0.0
C2611 C 0.53711 0.26467 0.55197 0.0
N2612 N 0.47808 0.29194 0.51889 0.0
N2613 N 0.55304 0.21944 0.55129 0.0
H2614 H 0.5636 0.29361 0.56681 0.0
H2615 H 0.57273 0.26123 0.57402 0.0
H2616 H 0.55067 0.1993 0.54757 0.0
H2617 H 0.57249 0.2248 0.5553 0.0
H2618 H 0.46242 0.28672 0.50661 0.0
H2619 H 0.48149 0.31225 0.5196 0.0
H2620 H 0.44829 0.25041 0.5191 0.0
H2621 H 0.45944 0.21809 0.51976 0.0
C2622 C 0.99838 0.28036 0.80509 0.0
C2623 C 0.98085 0.26032 0.79617 0.0
C2624 C 0.01881 0.23143 0.78676 0.0
C2625 C 0.03631 0.25169 0.79542 0.0
N2626 N 0.04319 0.29752 0.80577 0.0
N2627 N 0.97424 0.21916 0.7734 0.0
C2628 C 0.02614 0.27685 0.80227 0.0
C2629 C 0.99108 0.23669 0.78513 0.0
N2630 N 0.98855 0.3024 0.81721 0.0
N2631 N 0.02838 0.2067 0.7818 0.0
H2632 H 0.95385 0.22214 0.77263 0.0
H2633 H 0.9806 0.20283 0.76265 0.0
H2634 H 0.04842 0.20204 0.7826 0.0
H2635 H 0.01635 0.19034 0.77855 0.0
H2636 H 1.00032 0.31622 0.82687 0.0
H2637 H 0.96838 0.30596 0.81937 0.0
H2638 H 0.03704 0.31696 0.80835 0.0
H2639 H 0.06359 0.29559 0.80338 0.0
C2640 C 0.46927 0.03695 0.24402 0.0
C2641 C 0.46676 0.01549 0.22606 0.0
C2642 C 0.46709 0.98416 0.26309 0.0
C2643 C 0.4697 1.00561 0.28102 0.0
N2644 N 0.47836 0.05158 0.28892 0.0
N2645 N 0.46817 0.9688 0.21756 0.0
C2646 C 0.4725 0.03177 0.27154 0.0
C2647 C 0.46719 0.98909 0.23536 0.0
N2648 N 0.46718 0.06229 0.23492 0.0
N2649 N 0.46366 0.95914 0.27267 0.0
H2650 H 0.4682 0.97185 0.19717 0.0
H2651 H 0.47107 0.94915 0.22278 0.0
H2652 H 0.46496 0.95455 0.29272 0.0
H2653 H 0.45824 0.94309 0.26103 0.0
H2654 H 0.46571 0.07872 0.24717 0.0
H2655 H 0.46518 0.06692 0.21494 0.0
H2656 H 0.48324 0.07071 0.28318 0.0
H2657 H 0.48046 0.04833 0.30917 0.0
C2658 C 0.28216 0.20028 0.5166 0.0
C2659 C 0.26465 0.21356 0.53416 0.0
C2660 C 0.23769 0.22785 0.49627 0.0
C2661 C 0.25589 0.21555 0.47856 0.0
N2662 N 0.29852 0.19554 0.47173 0.0
N2663 N 0.22798 0.24316 0.54072 0.0
C2664 C 0.27894 0.2032 0.48873 0.0
C2665 C 0.24321 0.22843 0.52394 0.0
N2666 N 0.302 0.18484 0.52649 0.0
N2667 N 0.21434 0.23777 0.487 0.0
H2668 H 0.22999 0.24257 0.56122 0.0
H2669 H 0.21443 0.25723 0.53433 0.0
H2670 H 0.20947 0.23876 0.46708 0.0
H2671 H 0.19876 0.24345 0.49917 0.0
H2672 H 0.31321 0.17205 0.51494 0.0
H2673 H 0.3063 0.18343 0.54656 0.0
H2674 H 0.317 0.18889 0.47785 0.0
H2675 H 0.2974 0.19841 0.45136 0.0
C2676 C 0.03892 0.02888 0.73811 0.0
C2677 C 0.04778 1.00412 0.72853 0.0
C2678 C 0.05083 0.98752 0.77412 0.0
C2679 C 0.04542 0.01325 0.78382 0.0
N2680 N 0.03533 0.05909 0.7751 0.0
N2681 N 0.06244 0.95962 0.73689 0.0
C2682 C 0.03934 0.03405 0.76585 0.0
C2683 C 0.05374 0.98334 0.74642 0.0
N2684 N 0.02989 0.04739 0.72064 0.0
N2685 N 0.05222 0.96689 0.7915 0.0
H2686 H 0.06299 0.95514 0.7168 0.0
H2687 H 0.07039 0.9448 0.7487 0.0
H2688 H 0.0494 0.96924 0.8118 0.0
H2689 H 0.05365 0.9472 0.78582 0.0
H2690 H 0.0203 0.06466 0.72632 0.0
H2691 H 0.03025 0.0446 0.70022 0.0
H2692 H 0.03452 0.07568 0.76301 0.0
H2693 H 0.03424 0.06372 0.7951 0.0
C2694 C 0.28158 0.80031 0.99803 0.0
C2695 C 0.26057 0.79604 0.9799 0.0
C2696 C 0.22913 0.79265 0.01679 0.0
C2697 C 0.25021 0.79667 0.03497 0.0
N2698 N 0.29693 0.79881 0.04351 0.0
N2699 N 0.21563 0.78305 0.97164 0.0
C2700 C 0.2766 0.7988 0.02572 0.0
C2701 C 0.23474 0.79049 0.98921 0.0
N2702 N 0.30618 0.80666 0.98875 0.0
N2703 N 0.20361 0.79244 0.02571 0.0
H2704 H 0.21911 0.78176 0.95136 0.0
H2705 H 0.19708 0.77613 0.97724 0.0
H2706 H 0.19866 0.79375 0.04567 0.0
H2707 H 0.1872 0.79273 0.01332 0.0
H2708 H 0.32152 0.81332 1.00071 0.0
H2709 H 0.31094 0.80669 0.96869 0.0
H2710 H 0.31677 0.79775 0.03819 0.0
H2711 H 0.29388 0.79751 0.06387 0.0
C2712 C 0.24071 0.47758 0.98984 0.0
C2713 C 0.23022 0.46719 0.01363 0.0
C2714 C 0.27532 0.46024 0.0306 0.0
C2715 C 0.28573 0.46706 1.00548 0.0
N2716 N 0.27846 0.48203 0.96066 0.0
N2717 N 0.23688 0.44984 0.05744 0.0
C2718 C 0.26851 0.47616 0.98508 0.0
C2719 C 0.24739 0.45897 0.03428 0.0
N2720 N 0.22404 0.48881 0.97181 0.0
N2721 N 0.29229 0.45597 0.0512 0.0
H2722 H 0.2168 0.4512 0.06189 0.0
H2723 H 0.24776 0.44019 0.07196 0.0
H2724 H 0.31276 0.4576 0.04929 0.0
H2725 H 0.2863 0.45311 0.07066 0.0
H2726 H 0.23043 0.49948 0.95544 0.0
H2727 H 0.20357 0.48921 0.97423 0.0
H2728 H 0.2668 0.48518 0.94403 0.0
H2729 H 0.29855 0.48238 0.95634 0.0
C2730 C 0.74862 0.05232 0.98272 0.0
C2731 C 0.73105 0.04281 1.00247 0.0
C2732 C 0.7687 0.03484 0.03209 0.0
C2733 C 0.78628 0.04394 0.01206 0.0
N2734 N 0.7936 0.05416 0.9662 0.0
N2735 N 0.72438 0.01989 0.04351 0.0
C2736 C 0.77637 0.05033 0.98667 0.0
C2737 C 0.74117 0.03219 0.0263 0.0
N2738 N 0.73882 0.0644 0.96065 0.0
N2739 N 0.7779 0.03048 0.05709 0.0
H2740 H 0.70414 0.0182 0.03993 0.0
H2741 H 0.73076 0.00949 0.06006 0.0
H2742 H 0.79774 0.03235 0.06227 0.0
H2743 H 0.76564 0.02683 0.07321 0.0
H2744 H 0.75058 0.07446 0.94708 0.0
H2745 H 0.71866 0.06615 0.95687 0.0
H2746 H 0.7876 0.0564 0.94664 0.0
H2747 H 0.81403 0.05236 0.96838 0.0
C2748 C 0.2103 0.49143 0.2798 0.0
C2749 C 0.21281 0.48202 0.25353 0.0
C2750 C 0.21779 0.52765 0.23743 0.0
C2751 C 0.21286 0.53711 0.26329 0.0
N2752 N 0.2025 0.52868 0.30903 0.0
N2753 N 0.21542 0.49095 0.20673 0.0
C2754 C 0.20868 0.51916 0.2845 0.0
C2755 C 0.21583 0.50006 0.23217 0.0
N2756 N 0.21021 0.47382 0.30029 0.0
N2757 N 0.22464 0.54507 0.21796 0.0
H2758 H 0.21402 0.47098 0.20192 0.0
H2759 H 0.21437 0.50321 0.19026 0.0
H2760 H 0.22574 0.56541 0.22111 0.0
H2761 H 0.23128 0.53934 0.19936 0.0
H2762 H 0.21115 0.47929 0.32008 0.0
H2763 H 0.21124 0.45344 0.29747 0.0
H2764 H 0.196 0.51689 0.32457 0.0
H2765 H 0.20245 0.54877 0.31356 0.0
C2766 C 0.73769 0.98087 0.49404 0.0
C2767 C 0.72823 0.96609 0.51581 0.0
C2768 C 0.77393 0.95937 0.53097 0.0
C2769 C 0.78354 0.96999 0.50685 0.0
N2770 N 0.77399 0.99035 0.46448 0.0
N2771 N 0.73701 0.94065 0.55514 0.0
C2772 C 0.76533 0.98109 0.48832 0.0
C2773 C 0.74628 0.95528 0.5344 0.0
N2774 N 0.72022 0.99459 0.4787 0.0
N2775 N 0.79127 0.95403 0.55097 0.0
H2776 H 0.71693 0.93837 0.55922 0.0
H2777 H 0.74915 0.92951 0.56744 0.0
H2778 H 0.81149 0.95785 0.54944 0.0
H2779 H 0.78545 0.94856 0.56992 0.0
H2780 H 0.72598 0.00824 0.46443 0.0
H2781 H 0.69983 0.99402 0.48172 0.0
H2782 H 0.76141 0.99481 0.44883 0.0
H2783 H 0.79377 0.99228 0.4594 0.0
C2784 C 0.78871 0.98847 0.23818 0.0
C2785 C 0.79954 0.97886 0.26216 0.0
C2786 C 0.80574 0.02453 0.27755 0.0
C2787 C 0.79853 0.03412 0.25221 0.0
N2788 N 0.78541 0.02483 0.20721 0.0
N2789 N 0.82056 0.98756 0.30407 0.0
C2790 C 0.79025 0.01603 0.23227 0.0
C2791 C 0.80863 0.99687 0.2817 0.0
N2792 N 0.77701 0.97124 0.221 0.0
N2793 N 0.80904 0.04196 0.29792 0.0
H2794 H 0.82247 0.96751 0.30828 0.0
H2795 H 0.83032 0.99962 0.31757 0.0
H2796 H 0.80631 0.06226 0.29572 0.0
H2797 H 0.81174 0.0362 0.31748 0.0
H2798 H 0.76613 0.97723 0.20462 0.0
H2799 H 0.77648 0.9509 0.22425 0.0
H2800 H 0.78269 0.01231 0.19113 0.0
H2801 H 0.78593 0.04467 0.20189 0.0
C2802 C 0.24498 0.53818 0.47902 0.0
C2803 C 0.22767 0.53965 0.50112 0.0
C2804 C 0.26567 0.53915 0.53125 0.0
C2805 C 0.28302 0.53803 0.50914 0.0
N2806 N 0.28965 0.53086 0.4627 0.0
N2807 N 0.22069 0.53547 0.54787 0.0
C2808 C 0.27275 0.53566 0.48322 0.0
C2809 C 0.23782 0.53809 0.52714 0.0
N2810 N 0.235 0.54066 0.45404 0.0
N2811 N 0.27577 0.54278 0.55605 0.0
H2812 H 0.20023 0.53468 0.5453 0.0
H2813 H 0.22666 0.53172 0.56719 0.0
H2814 H 0.29598 0.54309 0.56004 0.0
H2815 H 0.26423 0.54711 0.57252 0.0
H2816 H 0.24666 0.54315 0.43728 0.0
H2817 H 0.2148 0.54165 0.4501 0.0
H2818 H 0.28345 0.52648 0.4436 0.0
H2819 H 0.31003 0.52903 0.46534 0.0
C2820 C 0.29918 0.48805 0.73633 0.0
C2821 C 0.29552 0.47964 0.76282 0.0
C2822 C 0.28674 0.52563 0.77613 0.0
C2823 C 0.29394 0.53424 0.75048 0.0
N2824 N 0.30776 0.52421 0.70601 0.0
N2825 N 0.28774 0.49042 0.80861 0.0
C2826 C 0.30019 0.51556 0.73047 0.0
C2827 C 0.28939 0.49839 0.78287 0.0
N2828 N 0.30102 0.46961 0.71667 0.0
N2829 N 0.27746 0.54357 0.79404 0.0
H2830 H 0.28948 0.47076 0.81433 0.0
H2831 H 0.28646 0.50336 0.82453 0.0
H2832 H 0.27592 0.56368 0.78983 0.0
H2833 H 0.26931 0.53837 0.81219 0.0
H2834 H 0.30121 0.47423 0.69664 0.0
H2835 H 0.29998 0.44935 0.72029 0.0
H2836 H 0.3159 0.51201 0.6916 0.0
H2837 H 0.30716 0.54404 0.70047 0.0
C2838 C 0.95902 0.48229 0.73747 0.0
C2839 C 0.96981 0.50638 0.7281 0.0
C2840 C 0.98202 0.51798 0.77389 0.0
C2841 C 0.96693 0.49634 0.78325 0.0
N2842 N 0.93896 0.45879 0.77391 0.0
N2843 N 0.9908 0.54826 0.73788 0.0
C2844 C 0.95497 0.47865 0.76502 0.0
C2845 C 0.98157 0.52436 0.74637 0.0
N2846 N 0.95316 0.4626 0.71994 0.0
N2847 N 0.99649 0.53264 0.79133 0.0
H2848 H 0.99165 0.55374 0.71811 0.0
H2849 H 0.99617 0.56348 0.75062 0.0
H2850 H 0.99648 0.52899 0.81161 0.0
H2851 H 0.01012 0.54693 0.78553 0.0
H2852 H 0.94753 0.44367 0.72569 0.0
H2853 H 0.95677 0.46433 0.69971 0.0
H2854 H 0.92727 0.44729 0.76147 0.0
H2855 H 0.93571 0.45502 0.79388 0.0
C2856 C 0.73078 0.71765 0.99836 0.0
C2857 C 0.7509 0.72439 0.97996 0.0
C2858 C 0.781 0.7353 0.01654 0.0
C2859 C 0.7615 0.72662 0.03493 0.0
N2860 N 0.71589 0.71707 0.04407 0.0
N2861 N 0.79246 0.74539 0.97081 0.0
C2862 C 0.73572 0.7202 0.02596 0.0
C2863 C 0.77515 0.73519 0.98888 0.0
N2864 N 0.70715 0.7081 0.98934 0.0
N2865 N 0.8055 0.74241 0.02536 0.0
H2866 H 0.78873 0.74515 0.95054 0.0
H2867 H 0.80949 0.75578 0.97578 0.0
H2868 H 0.80991 0.74486 0.04528 0.0
H2869 H 0.82174 0.74534 0.0131 0.0
H2870 H 0.69287 0.69954 1.0014 0.0
H2871 H 0.70215 0.70785 0.96936 0.0
H2872 H 0.6961 0.71446 0.03915 0.0
H2873 H 0.71896 0.71954 0.06432 0.0
C2874 C 0.54024 0.48093 0.24322 0.0
C2875 C 0.54961 0.50056 0.22533 0.0
C2876 C 0.55996 0.52958 0.26275 0.0
C2877 C 0.54923 0.51062 0.28052 0.0
N2878 N 0.52467 0.4705 0.28744 0.0
N2879 N 0.56222 0.54577 0.21771 0.0
C2880 C 0.53769 0.48712 0.27062 0.0
C2881 C 0.55758 0.52558 0.23503 0.0
N2882 N 0.53561 0.4558 0.23448 0.0
N2883 N 0.57314 0.55113 0.2723 0.0
H2884 H 0.56006 0.54368 0.19732 0.0
H2885 H 0.56553 0.56519 0.22362 0.0
H2886 H 0.57504 0.55515 0.29239 0.0
H2887 H 0.58399 0.56394 0.2604 0.0
H2888 H 0.53168 0.44002 0.24707 0.0
H2889 H 0.538 0.45001 0.21488 0.0
H2890 H 0.51341 0.45452 0.28102 0.0
H2891 H 0.52335 0.47392 0.30772 0.0
C2892 C 0.73162 0.284 0.49132 0.0
C2893 C 0.75798 0.28754 0.48253 0.0
C2894 C 0.77326 0.28881 0.52869 0.0
C2895 C 0.74661 0.28908 0.53739 0.0
N2896 N 0.70003 0.28764 0.52729 0.0
N2897 N 0.80418 0.29384 0.49232 0.0
C2898 C 0.72565 0.28639 0.51882 0.0
C2899 C 0.77894 0.28975 0.5011 0.0
N2900 N 0.71235 0.27828 0.47328 0.0
N2901 N 0.79311 0.28724 0.54694 0.0
H2902 H 0.80933 0.29338 0.47236 0.0
H2903 H 0.81984 0.29906 0.50458 0.0
H2904 H 0.78946 0.2863 0.56722 0.0
H2905 H 0.81292 0.28451 0.54211 0.0
H2906 H 0.69314 0.27295 0.47836 0.0
H2907 H 0.71622 0.27674 0.45308 0.0
H2908 H 0.68388 0.28922 0.51467 0.0
H2909 H 0.69481 0.28851 0.54719 0.0
C2910 C 0.73079 0.99441 0.73275 0.0
C2911 C 0.72021 0.97601 0.75132 0.0
C2912 C 0.7073 0.01272 0.78032 0.0
C2913 C 0.71808 0.03113 0.76201 0.0
N2914 N 0.74487 0.03946 0.7236 0.0
N2915 N 0.70624 0.96749 0.79597 0.0
C2916 C 0.73156 0.02191 0.73922 0.0
C2917 C 0.71091 0.9852 0.77611 0.0
N2918 N 0.73864 0.98603 0.70833 0.0
N2919 N 0.69299 0.02144 0.80151 0.0
H2920 H 0.70962 0.94728 0.79381 0.0
H2921 H 0.70187 0.97301 0.81531 0.0
H2922 H 0.69045 0.04134 0.80599 0.0
H2923 H 0.68197 0.00897 0.81363 0.0
H2924 H 0.74298 0.99878 0.69279 0.0
H2925 H 0.73944 0.96626 0.70287 0.0
H2926 H 0.75754 0.0338 0.70841 0.0
H2927 H 0.74483 0.05976 0.7271 0.0
C2928 C 0.93048 0.12979 0.31588 0.0
C2929 C 0.93697 0.12574 0.28893 0.0
C2930 C 0.98266 0.1397 0.29794 0.0
C2931 C 0.97549 0.14544 0.32447 0.0
N2932 N 0.94037 0.15251 0.35625 0.0
N2933 N 0.96873 0.12782 0.25355 0.0
C2934 C 0.9488 0.14249 0.33269 0.0
C2935 C 0.963 0.131 0.27977 0.0
N2936 N 0.90691 0.12121 0.32584 0.0
N2937 N 0.00847 0.14232 0.29033 0.0
H2938 H 0.95548 0.11926 0.24027 0.0
H2939 H 0.98616 0.13427 0.24473 0.0
H2940 H 0.02276 0.15092 0.30247 0.0
H2941 H 0.01596 0.13542 0.27247 0.0
H2942 H 0.90275 0.12038 0.34599 0.0
H2943 H 0.89247 0.1122 0.31458 0.0
H2944 H 0.92053 0.15382 0.36161 0.0
H2945 H 0.95247 0.16254 0.36919 0.0
C2946 C 0.12462 0.69355 0.58706 0.0
C2947 C 0.12012 0.72006 0.57916 0.0
C2948 C 0.13524 0.70897 0.53429 0.0
C2949 C 0.14168 0.6831 0.54302 0.0
N2950 N 0.14828 0.65307 0.57956 0.0
N2951 N 0.12175 0.75362 0.54553 0.0
C2952 C 0.13823 0.67615 0.56994 0.0
C2953 C 0.12559 0.7279 0.55276 0.0
N2954 N 0.11528 0.68446 0.61066 0.0
N2955 N 0.13808 0.71519 0.50816 0.0
H2956 H 0.11248 0.7673 0.55786 0.0
H2957 H 0.12831 0.76167 0.52779 0.0
H2958 H 0.14725 0.70255 0.4947 0.0
H2959 H 0.13079 0.73238 0.49959 0.0
H2960 H 0.1152 0.66459 0.61594 0.0
H2961 H 0.10466 0.69598 0.6237 0.0
H2962 H 0.1493 0.64866 0.59963 0.0
H2963 H 0.15833 0.63952 0.56806 0.0
C2964 C 0.53695 0.87747 0.80877 0.0
C2965 C 0.54527 0.87262 0.83507 0.0
C2966 C 0.59043 0.88586 0.82326 0.0
C2967 C 0.58181 0.89206 0.79728 0.0
N2968 N 0.54614 0.89855 0.76666 0.0
N2969 N 0.57982 0.87382 0.86794 0.0
C2970 C 0.55477 0.88926 0.79049 0.0
C2971 C 0.572 0.87701 0.84237 0.0
N2972 N 0.51209 0.87007 0.80121 0.0
N2973 N 0.61653 0.88741 0.82968 0.0
H2974 H 0.56887 0.86331 0.88159 0.0
H2975 H 0.59714 0.88178 0.87573 0.0
H2976 H 0.62986 0.89833 0.81879 0.0
H2977 H 0.62494 0.87795 0.8459 0.0
H2978 H 0.50539 0.87079 0.78178 0.0
H2979 H 0.49894 0.86075 0.8141 0.0
H2980 H 0.52632 0.89934 0.76122 0.0
H2981 H 0.55875 0.90791 0.75327 0.0
C2982 C 0.38491 0.32207 0.07843 0.0
C2983 C 0.3857 0.34921 0.07058 0.0
C2984 C 0.43251 0.35145 0.08404 0.0
C2985 C 0.43131 0.3243 0.0871 0.0
N2986 N 0.4117 0.28636 0.10103 0.0
N2987 N 0.40689 0.39128 0.08027 0.0
C2988 C 0.4085 0.31059 0.08843 0.0
C2989 C 0.40852 0.36464 0.07764 0.0
N2990 N 0.36238 0.30774 0.07524 0.0
N2991 N 0.45605 0.36415 0.08687 0.0
H2992 H 0.38961 0.40168 0.07738 0.0
H2993 H 0.42211 0.40265 0.08812 0.0
H2994 H 0.47318 0.35385 0.09202 0.0
H2995 H 0.45871 0.38403 0.08245 0.0
H2996 H 0.36127 0.28753 0.07884 0.0
H2997 H 0.34491 0.31654 0.06869 0.0
H2998 H 0.39387 0.27558 0.10164 0.0
H2999 H 0.45159 0.27409 0.11579 0.0
C3000 C 0.95893 0.88745 0.2256 0.0
C3001 C 0.93151 0.88307 0.22164 0.0
C3002 C 0.94076 0.8674 0.1768 0.0
C3003 C 0.96832 0.86928 0.1817 0.0
N3004 N 1.00339 0.87459 0.21351 0.0
N3005 N 0.89783 0.861 0.19583 0.0
C3006 C 0.9773 0.8772 0.20705 0.0
C3007 C 0.92285 0.87068 0.19799 0.0
N3008 N 0.96746 0.90238 0.2464 0.0
N3009 N 0.93121 0.86406 0.15182 0.0
H3010 H 0.88391 0.86294 0.21067 0.0
H3011 H 0.89186 0.84886 0.1803 0.0
H3012 H 0.9432 0.86191 0.1354 0.0
H3013 H 0.91121 0.86584 0.14717 0.0
H3014 H 0.98708 0.90819 0.24872 0.0
H3015 H 0.95457 0.91138 0.25973 0.0
H3016 H 0.01061 0.87793 0.23249 0.0
H3017 H 0.0172 0.86627 0.20065 0.0
C3018 C 0.3879 0.67058 0.43943 0.0
C3019 C 0.36631 0.67481 0.45658 0.0
C3020 C 0.36367 0.72019 0.44041 0.0
C3021 C 0.38892 0.7171 0.42811 0.0
N3022 N 0.42762 0.68985 0.42181 0.0
N3023 N 0.33382 0.70438 0.47451 0.0
C3024 C 0.40183 0.69242 0.42933 0.0
C3025 C 0.35415 0.69988 0.45736 0.0
N3026 N 0.39434 0.6457 0.43183 0.0
N3027 N 0.34829 0.74171 0.43519 0.0
H3028 H 0.32555 0.68935 0.48596 0.0
H3029 H 0.3262 0.72314 0.47818 0.0
H3030 H 0.35368 0.75648 0.42197 0.0
H3031 H 0.3289 0.74347 0.44189 0.0
H3032 H 0.40936 0.6416 0.41832 0.0
H3033 H 0.38139 0.63024 0.43549 0.0
H3034 H 0.43814 0.67232 0.42429 0.0
H3035 H 0.43912 0.7059 0.4159 0.0
C3036 C 0.57389 0.12874 0.67317 0.0
C3037 C 0.55748 0.15073 0.67807 0.0
C3038 C 0.57466 0.15198 0.7232 0.0
C3039 C 0.58577 0.12628 0.71954 0.0
N3040 N 0.58982 0.08793 0.6914 0.0
N3041 N 0.54136 0.18326 0.70861 0.0
C3042 C 0.58358 0.11394 0.69461 0.0
C3043 C 0.55765 0.16244 0.7034 0.0
N3044 N 0.58136 0.12278 0.64813 0.0
N3045 N 0.58105 0.16691 0.74473 0.0
H3046 H 0.52998 0.19221 0.69392 0.0
H3047 H 0.53835 0.19066 0.72758 0.0
H3048 H 0.59452 0.16095 0.75904 0.0
H3049 H 0.57517 0.18651 0.74685 0.0
H3050 H 0.59432 0.1074 0.64366 0.0
H3051 H 0.57833 0.13628 0.63303 0.0
H3052 H 0.58668 0.07796 0.67364 0.0
H3053 H 0.59529 0.07584 0.70716 0.0
C3054 C 0.15361 0.30242 0.93316 0.0
C3055 C 0.12829 0.29023 0.93493 0.0
C3056 C 0.11708 0.3189 0.97203 0.0
C3057 C 0.14363 0.32826 0.97259 0.0
N3058 N 0.18839 0.3254 0.95649 0.0
N3059 N 0.08752 0.28376 0.95874 0.0
C3060 C 0.16223 0.31916 0.95384 0.0
C3061 C 0.11037 0.2977 0.95502 0.0
N3062 N 0.1693 0.29853 0.9115 0.0
N3063 N 0.09805 0.33066 0.98715 0.0
H3064 H 0.08209 0.2678 0.94692 0.0
H3065 H 0.07516 0.28651 0.97498 0.0
H3066 H 0.10187 0.34631 0.99989 0.0
H3067 H 0.07798 0.32652 0.98518 0.0
H3068 H 0.18644 0.30937 0.90796 0.0
H3069 H 0.1641 0.28636 0.89578 0.0
H3070 H 0.20322 0.31688 0.94503 0.0
H3071 H 0.19564 0.33716 0.97177 0.0
C3072 C 0.28337 0.96095 0.12711 0.0
C3073 C 0.29174 0.93455 0.12268 0.0
C3074 C 0.33637 0.94599 0.13751 0.0
C3075 C 0.32873 0.97283 0.13992 0.0
N3076 N 0.29533 0.00647 0.13658 0.0
N3077 N 0.3278 0.90354 0.11811 0.0
C3078 C 0.30224 0.98044 0.13464 0.0
C3079 C 0.31868 0.92758 0.12616 0.0
N3080 N 0.25723 0.96721 0.12428 0.0
N3081 N 0.36036 0.93766 0.14657 0.0
H3082 H 0.31591 0.88927 0.10968 0.0
H3083 H 0.34778 0.89875 0.11696 0.0
H3084 H 0.37409 0.95009 0.15512 0.0
H3085 H 0.36555 0.91786 0.14845 0.0
H3086 H 0.24897 0.98506 0.13019 0.0
H3087 H 0.24342 0.954 0.11651 0.0
H3088 H 0.27743 0.01414 0.13002 0.0
H3089 H 0.30806 0.02075 0.14428 0.0
C3090 C 0.30617 0.06314 0.40461 0.0
C3091 C 0.30052 0.08458 0.38771 0.0
C3092 C 0.32664 0.06454 0.35239 0.0
C3093 C 0.33365 0.04375 0.36965 0.0
N3094 N 0.33496 0.02641 0.41432 0.0
N3095 N 0.31166 0.10952 0.34884 0.0
C3096 C 0.32486 0.04391 0.39643 0.0
C3097 C 0.31281 0.08649 0.36264 0.0
N3098 N 0.29328 0.06089 0.42824 0.0
N3099 N 0.33211 0.06283 0.32599 0.0
H3100 H 0.30303 0.12625 0.35688 0.0
H3101 H 0.32209 0.11291 0.33141 0.0
H3102 H 0.34147 0.04655 0.31752 0.0
H3103 H 0.32506 0.07632 0.31216 0.0
H3104 H 0.29397 0.04397 0.43992 0.0
H3105 H 0.28066 0.07549 0.43548 0.0
H3106 H 0.33149 0.0277 0.43456 0.0
H3107 H 0.34867 0.01191 0.40948 0.0
C3108 C 0.17356 0.07388 0.63431 0.0
C3109 C 0.18081 0.04727 0.63939 0.0
C3110 C 0.22689 0.05844 0.6299 0.0
C3111 C 0.22016 0.08558 0.62853 0.0
N3112 N 0.18699 0.11921 0.63667 0.0
N3113 N 0.21565 0.01602 0.64854 0.0
C3114 C 0.19351 0.09339 0.63278 0.0
C3115 C 0.2079 0.0401 0.63919 0.0
N3116 N 0.14792 0.08074 0.62965 0.0
N3117 N 0.25111 0.04997 0.6215 0.0
H3118 H 0.20241 1.00253 0.6568 0.0
H3119 H 0.23543 0.01078 0.65088 0.0
H3120 H 0.26508 0.06264 0.61315 0.0
H3121 H 0.25606 0.03006 0.62001 0.0
H3122 H 0.14249 0.09931 0.6226 0.0
H3123 H 0.13233 0.06754 0.63049 0.0
H3124 H 0.16834 0.12507 0.64318 0.0
H3125 H 0.20056 0.13447 0.63587 0.0
C3126 C 0.17387 0.94312 0.87851 0.0
C3127 C 0.18112 0.97004 0.87565 0.0
C3128 C 0.22619 0.95978 0.8905 0.0
C3129 C 0.21872 0.93297 0.89367 0.0
N3130 N 0.1839 0.90037 0.89658 0.0
N3131 N 0.21457 1.00375 0.87496 0.0
C3132 C 0.19216 0.925 0.88936 0.0
C3133 C 0.20745 0.97831 0.88068 0.0
N3134 N 0.14976 0.93444 0.87004 0.0
N3135 N 0.25106 0.96744 0.89784 0.0
H3136 H 0.2014 0.01731 0.86675 0.0
H3137 H 0.2337 0.01108 0.87636 0.0
H3138 H 0.26467 0.95431 0.90605 0.0
H3139 H 0.25775 0.98684 0.89784 0.0
H3140 H 0.14481 0.91461 0.86791 0.0
H3141 H 0.13541 0.94673 0.8624 0.0
H3142 H 0.16416 0.89463 0.89739 0.0
H3143 H 0.19622 0.88634 0.90471 0.0
C3144 C 0.62395 0.22315 0.05521 0.0
C3145 C 0.61983 0.21501 0.08174 0.0
C3146 C 0.63645 0.17094 0.07107 0.0
C3147 C 0.63883 0.17829 0.0441 0.0
N3148 N 0.63383 0.21093 0.00986 0.0
N3149 N 0.61625 0.17934 0.11327 0.0
C3150 C 0.63226 0.20434 0.03602 0.0
C3151 C 0.62418 0.18837 0.08912 0.0
N3152 N 0.62027 0.24906 0.0486 0.0
N3153 N 0.64652 0.14758 0.07992 0.0
H3154 H 0.60725 0.19113 0.1273 0.0
H3155 H 0.61582 0.15942 0.11835 0.0
H3156 H 0.65594 0.13412 0.06783 0.0
H3157 H 0.64834 0.14279 0.09984 0.0
H3158 H 0.62597 0.25726 0.03064 0.0
H3159 H 0.61206 0.26274 0.06167 0.0
H3160 H 0.62631 0.22833 1.00195 0.0
H3161 H 0.64211 0.19841 0.99573 0.0
C3162 C 0.05634 0.38817 0.29244 0.0
C3163 C 0.08341 0.39064 0.29928 0.0
C3164 C 0.07173 0.38341 0.34574 0.0
C3165 C 0.0454 0.3771 0.33822 0.0
N3166 N 0.01464 0.36752 0.30306 0.0
N3167 N 0.11732 0.38492 0.33274 0.0
C3168 C 0.03831 0.37771 0.31113 0.0
C3169 C 0.09129 0.38673 0.32598 0.0
N3170 N 0.04768 0.39647 0.26827 0.0
N3171 N 0.07821 0.38748 0.37157 0.0
H3172 H 0.13269 0.38807 0.31967 0.0
H3173 H 0.12363 0.37834 0.35121 0.0
H3174 H 0.06516 0.38472 0.38705 0.0
H3175 H 0.09618 0.39572 0.37739 0.0
H3176 H 0.02774 0.39719 0.26317 0.0
H3177 H 0.06015 0.40546 0.25451 0.0
H3178 H 0.00957 0.3654 0.28322 0.0
H3179 H 1.00143 0.35842 0.31602 0.0
C3180 C 0.90169 0.83233 0.56028 0.0
C3181 C 0.8765 0.83288 0.54802 0.0
C3182 C 0.86603 0.79063 0.56917 0.0
C3183 C 0.89272 0.78873 0.57816 0.0
N3184 N 0.93735 0.80537 0.57663 0.0
N3185 N 0.83537 0.81104 0.53843 0.0
C3186 C 0.91097 0.80886 0.572 0.0
C3187 C 0.8588 0.81158 0.55182 0.0
N3188 N 0.91637 0.8547 0.56185 0.0
N3189 N 0.84733 0.77319 0.57783 0.0
H3190 H 0.82896 0.82666 0.52662 0.0
H3191 H 0.82313 0.79451 0.53777 0.0
H3192 H 0.85142 0.7575 0.59041 0.0
H3193 H 0.8272 0.77555 0.57425 0.0
H3194 H 0.93385 0.85622 0.57263 0.0
H3195 H 0.90861 0.87244 0.55572 0.0
H3196 H 0.95172 0.81866 0.57019 0.0
H3197 H 0.94513 0.78796 0.58442 0.0
C3198 C 0.05256 0.62758 0.22463 0.0
C3199 C 0.07963 0.62451 0.21803 0.0
C3200 C 0.07006 0.63834 0.17252 0.0
C3201 C 0.04329 0.64305 0.17957 0.0
N3202 N 0.01005 0.64672 0.21331 0.0
N3203 N 0.11445 0.62837 0.18554 0.0
C3204 C 0.03487 0.63897 0.20598 0.0
C3205 C 0.08836 0.63006 0.19192 0.0
N3206 N 0.04374 0.61888 0.24863 0.0
N3207 N 0.07807 0.6405 0.14689 0.0
H3208 H 0.12752 0.61678 0.19599 0.0
H3209 H 0.12293 0.63795 0.16941 0.0
H3210 H 0.06739 0.65058 0.1328 0.0
H3211 H 0.09536 0.63208 0.13953 0.0
H3212 H 0.02388 0.61827 0.25398 0.0
H3213 H 0.05622 0.60978 0.26229 0.0
H3214 H 1.00331 0.64658 0.23274 0.0
H3215 H 0.997 0.65577 0.20015 0.0
C3216 C 0.47927 0.37938 0.71096 0.0
C3217 C 0.46998 0.37255 0.68537 0.0
C3218 C 0.42608 0.38929 0.69666 0.0
C3219 C 0.43447 0.39397 0.72303 0.0
N3220 N 0.46894 0.39318 0.75577 0.0
N3221 N 0.43292 0.36552 0.65609 0.0
C3222 C 0.46114 0.38896 0.73026 0.0
C3223 C 0.44291 0.37568 0.67899 0.0
N3224 N 0.50561 0.377 0.71655 0.0
N3225 N 0.4024 0.39865 0.68786 0.0
H3226 H 0.44426 0.35568 0.64223 0.0
H3227 H 0.41275 0.36426 0.65212 0.0
H3228 H 0.38984 0.40982 0.69937 0.0
H3229 H 0.39671 0.39842 0.66809 0.0
H3230 H 0.51449 0.38455 0.73347 0.0
H3231 H 0.51889 0.36795 0.70361 0.0
H3232 H 0.48697 0.38698 0.76345 0.0
H3233 H 0.45682 0.40246 0.76965 0.0
C3234 C 0.44003 0.65313 0.8307 0.0
C3235 C 0.46385 0.63916 0.83497 0.0
C3236 C 0.44789 0.60325 0.80654 0.0
C3237 C 0.42388 0.61705 0.80304 0.0
N3238 N 0.39379 0.64988 0.81992 0.0
N3239 N 0.48753 0.59755 0.83242 0.0
C3240 C 0.41883 0.64027 0.8178 0.0
C3241 C 0.46695 0.61315 0.82459 0.0
N3242 N 0.43805 0.67913 0.83765 0.0
N3243 N 0.45272 0.58098 0.79208 0.0
H3244 H 0.50212 0.60371 0.84548 0.0
H3245 H 0.48892 0.57758 0.82776 0.0
H3246 H 0.43834 0.57216 0.78021 0.0
H3247 H 0.47121 0.57201 0.79095 0.0
H3248 H 0.42194 0.69087 0.83251 0.0
H3249 H 0.4536 0.68966 0.84611 0.0
H3250 H 0.38878 0.66556 0.83226 0.0
H3251 H 0.37761 0.64001 0.81209 0.0
C3252 C 0.87185 0.17888 0.94466 0.0
C3253 C 0.8681 0.18659 0.97133 0.0
C3254 C 0.88275 0.23153 0.96 0.0
C3255 C 0.88899 0.22283 0.93403 0.0
N3256 N 0.89549 0.18602 0.9042 0.0
N3257 N 0.87048 0.22003 1.00499 0.0
C3258 C 0.8854 0.1959 0.92716 0.0
C3259 C 0.87363 0.21297 0.97911 0.0
N3260 N 0.86208 0.15547 0.93558 0.0
N3261 N 0.88544 0.25766 0.96622 0.0
H3262 H 0.86173 0.20753 0.01887 0.0
H3263 H 0.87717 0.23777 0.01292 0.0
H3264 H 0.89431 0.27122 0.95347 0.0
H3265 H 0.87826 0.26609 0.98354 0.0
H3266 H 0.86149 0.15044 0.91563 0.0
H3267 H 0.8516 0.1424 0.94721 0.0
H3268 H 0.89618 0.16592 0.89986 0.0
H3269 H 0.90619 0.19717 0.89091 0.0
C3270 C 0.63949 0.83358 0.44427 0.0
C3271 C 0.64353 0.82596 0.47093 0.0
C3272 C 0.62991 0.78072 0.45974 0.0
C3273 C 0.62344 0.78927 0.43381 0.0
N3274 N 0.61618 0.82566 0.40372 0.0
N3275 N 0.64185 0.79255 0.5047 0.0
C3276 C 0.62633 0.81622 0.42683 0.0
C3277 C 0.63857 0.7995 0.47881 0.0
N3278 N 0.64878 0.85715 0.43511 0.0
N3279 N 0.628 0.75451 0.46593 0.0
H3280 H 0.65029 0.80526 0.51857 0.0
H3281 H 0.63555 0.77467 0.51264 0.0
H3282 H 0.61962 0.7407 0.45313 0.0
H3283 H 0.63542 0.74629 0.48324 0.0
H3284 H 0.64904 0.86226 0.41517 0.0
H3285 H 0.65932 0.87025 0.44664 0.0
H3286 H 0.61493 0.84571 0.39928 0.0
H3287 H 0.60617 0.81404 0.39025 0.0
C3288 C 0.83817 0.4407 0.63759 0.0
C3289 C 0.83021 0.46706 0.64297 0.0
C3290 C 0.78597 0.45705 0.62574 0.0
C3291 C 0.79345 0.43036 0.62189 0.0
N3292 N 0.82654 0.39622 0.62628 0.0
N3293 N 0.79527 0.49888 0.64722 0.0
C3294 C 0.81954 0.42213 0.62815 0.0
C3295 C 0.80364 0.47474 0.63854 0.0
N3296 N 0.86388 0.43331 0.64046 0.0
N3297 N 0.76206 0.46555 0.61649 0.0
H3298 H 0.80773 0.51185 0.65733 0.0
H3299 H 0.77562 0.50495 0.64681 0.0
H3300 H 0.7491 0.45309 0.60637 0.0
H3301 H 0.75622 0.48525 0.61648 0.0
H3302 H 0.87208 0.41673 0.63146 0.0
H3303 H 0.87705 0.44365 0.65204 0.0
H3304 H 0.84293 0.3881 0.63571 0.0
H3305 H 0.81593 0.38268 0.61539 0.0
C3306 C 0.83947 0.57146 0.87659 0.0
C3307 C 0.83077 0.54515 0.87212 0.0
C3308 C 0.78682 0.55686 0.88919 0.0
C3309 C 0.79514 0.58341 0.8924 0.0
N3310 N 0.82925 0.61643 0.88781 0.0
N3311 N 0.7951 0.51394 0.86943 0.0
C3312 C 0.82148 0.59072 0.88599 0.0
C3313 C 0.80406 0.53824 0.87707 0.0
N3314 N 0.8653 0.57808 0.87282 0.0
N3315 N 0.76256 0.54942 0.89848 0.0
H3316 H 0.8072 0.50028 0.85984 0.0
H3317 H 0.77534 0.50827 0.87021 0.0
H3318 H 0.7499 0.56258 0.90806 0.0
H3319 H 0.756 0.52995 0.89902 0.0
H3320 H 0.87419 0.59478 0.88092 0.0
H3321 H 0.87796 0.56685 0.86146 0.0
H3322 H 0.84589 0.62412 0.87843 0.0
H3323 H 0.81892 0.63027 0.89867 0.0
C3324 C 0.67671 0.57136 0.12955 0.0
C3325 C 0.68531 0.54548 0.13616 0.0
C3326 C 0.73008 0.55667 0.12106 0.0
C3327 C 0.72188 0.58298 0.11615 0.0
N3328 N 0.6873 0.61584 0.11695 0.0
N3329 N 0.72098 0.51486 0.1427 0.0
C3330 C 0.69514 0.59033 0.12041 0.0
C3331 C 0.7123 0.53857 0.13318 0.0
N3332 N 0.65065 0.57783 0.13112 0.0
N3333 N 0.75484 0.54895 0.11349 0.0
H3334 H 0.70844 0.50162 0.15235 0.0
H3335 H 0.74079 0.50941 0.14339 0.0
H3336 H 0.76792 0.56173 0.10393 0.0
H3337 H 0.76145 0.52952 0.11426 0.0
H3338 H 0.64219 0.59381 0.12131 0.0
H3339 H 0.63744 0.56729 0.1425 0.0
H3340 H 0.66996 0.62368 0.12479 0.0
H3341 H 0.69826 0.62944 0.10641 0.0
C3342 C 0.7194 0.4338 0.36566 0.0
C3343 C 0.71562 0.42367 0.3917 0.0
C3344 C 0.6709 0.44174 0.39182 0.0
C3345 C 0.67666 0.45622 0.36855 0.0
N3346 N 0.70649 0.46634 0.33298 0.0
N3347 N 0.68896 0.42187 0.43122 0.0
C3348 C 0.70091 0.45217 0.35527 0.0
C3349 C 0.6916 0.42852 0.40519 0.0
N3350 N 0.74009 0.42541 0.35047 0.0
N3351 N 0.64564 0.44017 0.40098 0.0
H3352 H 0.70415 0.41323 0.44213 0.0
H3353 H 0.67272 0.42741 0.44262 0.0
H3354 H 0.62981 0.44817 0.39072 0.0
H3355 H 0.64008 0.42807 0.41669 0.0
H3356 H 0.74196 0.42989 0.33048 0.0
H3357 H 0.75421 0.41202 0.35696 0.0
H3358 H 0.72519 0.46703 0.32437 0.0
H3359 H 0.69255 0.47843 0.32377 0.0
C3360 C 0.12119 0.15286 0.40472 0.0
C3361 C 0.11049 0.16139 0.42927 0.0
C3362 C 0.1506 0.18745 0.43728 0.0
C3363 C 0.15985 0.18153 0.41145 0.0
N3364 N 0.15218 0.1614 0.36906 0.0
N3365 N 0.11268 0.19227 0.46578 0.0
C3366 C 0.14457 0.16503 0.39471 0.0
C3367 C 0.12451 0.18022 0.4447 0.0
N3368 N 0.1095 0.13248 0.39143 0.0
N3369 N 0.1672 0.19857 0.45542 0.0
H3370 H 0.09338 0.18838 0.4718 0.0
H3371 H 0.12119 0.2082 0.47569 0.0
H3372 H 0.18689 0.20287 0.45133 0.0
H3373 H 0.16225 0.20074 0.4753 0.0
H3374 H 0.11771 0.12366 0.37476 0.0
H3375 H 0.09286 0.12261 0.39858 0.0
H3376 H 0.14059 0.15172 0.35509 0.0
H3377 H 0.16905 0.17024 0.36112 0.0
C3378 C 0.06953 0.88613 0.65238 0.0
C3379 C 0.08224 0.90854 0.66326 0.0
C3380 C 0.11264 0.87912 0.68737 0.0
C3381 C 0.09782 0.85684 0.67918 0.0
N3382 N 0.05742 0.84055 0.65895 0.0
N3383 N 0.11176 0.92578 0.69689 0.0
C3384 C 0.07495 0.86069 0.66304 0.0
C3385 C 0.10267 0.90491 0.68237 0.0
N3386 N 0.05288 0.88888 0.63132 0.0
N3387 N 0.13671 0.87584 0.69914 0.0
H3388 H 0.1043 0.94486 0.69521 0.0
H3389 H 0.12462 0.92355 0.71282 0.0
H3390 H 0.1452 0.85735 0.70229 0.0
H3391 H 0.14945 0.89153 0.70311 0.0
H3392 H 0.04525 0.87281 0.62094 0.0
H3393 H 0.0489 0.90704 0.62249 0.0
H3394 H 0.03924 0.84326 0.64966 0.0
H3395 H 0.05935 0.8219 0.66735 0.0
C3396 C 0.35909 0.85381 0.93493 0.0
C3397 C 0.35571 0.83429 0.91486 0.0
C3398 C 0.40362 0.82732 0.91479 0.0
C3399 C 0.40722 0.84965 0.93164 0.0
N3400 N 0.38772 0.8877 0.95271 0.0
N3401 N 0.37601 0.80682 0.88159 0.0
C3402 C 0.38475 0.86401 0.94015 0.0
C3403 C 0.37836 0.82238 0.9035 0.0
N3404 N 0.33826 0.8615 0.95032 0.0
N3405 N 0.42369 0.80969 0.91083 0.0
H3406 H 0.358 0.80347 0.87215 0.0
H3407 H 0.39232 0.79969 0.87122 0.0
H3408 H 0.4419 0.8109 0.92033 0.0
H3409 H 0.42106 0.79198 0.90067 0.0
H3410 H 0.34048 0.87383 0.96666 0.0
H3411 H 0.3195 0.85312 0.94906 0.0
H3412 H 0.3718 0.89999 0.95712 0.0
H3413 H 0.40612 0.89636 0.95603 0.0
C3414 C 0.41015 0.11609 0.17821 0.0
C3415 C 0.42832 0.11109 0.15719 0.0
C3416 C 0.43528 0.1588 0.15321 0.0
C3417 C 0.41393 0.16379 0.17098 0.0
N3418 N 0.377 0.1459 0.19538 0.0
N3419 N 0.45309 0.12893 0.12049 0.0
C3420 C 0.40007 0.14205 0.18192 0.0
C3421 C 0.43928 0.13282 0.14334 0.0
N3422 N 0.40381 0.09672 0.19591 0.0
N3423 N 0.453 0.17823 0.14706 0.0
H3424 H 0.45543 0.11036 0.11189 0.0
H3425 H 0.45951 0.14449 0.10861 0.0
H3426 H 0.45285 0.19683 0.15584 0.0
H3427 H 0.46998 0.17468 0.13593 0.0
H3428 H 0.39241 0.10032 0.2127 0.0
H3429 H 0.41261 0.07814 0.19597 0.0
H3430 H 0.36511 0.13031 0.20173 0.0
H3431 H 0.36828 0.16442 0.19753 0.0
C3432 C 0.12497 0.86978 0.09165 0.0
C3433 C 0.10554 0.85019 0.08684 0.0
C3434 C 0.1331 0.81737 0.10978 0.0
C3435 C 0.15421 0.83578 0.11094 0.0
N3436 N 0.1646 0.88199 0.11573 0.0
N3437 N 0.09241 0.80433 0.08843 0.0
C3438 C 0.14865 0.86282 0.10539 0.0
C3439 C 0.10991 0.82375 0.09527 0.0
N3440 N 0.12094 0.89496 0.08285 0.0
N3441 N 0.13404 0.79485 0.1246 0.0
H3442 H 0.07531 0.8079 0.07752 0.0
H3443 H 0.09616 0.78432 0.09133 0.0
H3444 H 0.14865 0.79159 0.13873 0.0
H3445 H 0.11832 0.78164 0.12613 0.0
H3446 H 0.13554 0.90945 0.08285 0.0
H3447 H 0.10343 0.90092 0.07377 0.0
H3448 H 0.16087 0.90212 0.1141 0.0
H3449 H 0.17947 0.87774 0.12934 0.0
C3450 C 0.44723 0.88688 0.35809 0.0
C3451 C 0.43563 0.909 0.34552 0.0
C3452 C 0.40646 0.87931 0.32039 0.0
C3453 C 0.41967 0.85718 0.33118 0.0
N3454 N 0.45834 0.84067 0.35407 0.0
N3455 N 0.41023 0.92521 0.30827 0.0
C3456 C 0.44174 0.86115 0.34825 0.0
C3457 C 0.41699 0.90494 0.32477 0.0
N3458 N 0.46272 0.89017 0.37994 0.0
N3459 N 0.38337 0.87615 0.30677 0.0
H3460 H 0.41874 0.94393 0.30936 0.0
H3461 H 0.39863 0.92254 0.29147 0.0
H3462 H 0.37451 0.85781 0.30377 0.0
H3463 H 0.37169 0.89202 0.30082 0.0
H3464 H 0.46945 0.87439 0.39131 0.0
H3465 H 0.46669 0.90859 0.38822 0.0
H3466 H 0.47594 0.84316 0.36446 0.0
H3467 H 0.4563 0.82191 0.34584 0.0
C3468 C 0.39779 0.15632 0.60976 0.0
C3469 C 0.41028 0.16849 0.58777 0.0
C3470 C 0.37144 0.19679 0.58148 0.0
C3471 C 0.3598 0.18635 0.60485 0.0
N3472 N 0.36425 0.1596 0.64397 0.0
N3473 N 0.41201 0.20577 0.55805 0.0
C3474 C 0.37371 0.16709 0.61982 0.0
C3475 C 0.398 0.19033 0.57521 0.0
N3476 N 0.40842 0.13396 0.62046 0.0
N3477 N 0.35689 0.21166 0.56426 0.0
H3478 H 0.4319 0.20257 0.55383 0.0
H3479 H 0.40476 0.22347 0.55046 0.0
H3480 H 0.33706 0.21631 0.5671 0.0
H3481 H 0.36381 0.21706 0.54562 0.0
H3482 H 0.39885 0.12262 0.63473 0.0
H3483 H 0.4258 0.12541 0.61342 0.0
H3484 H 0.37469 0.14754 0.65695 0.0
H3485 H 0.34707 0.16755 0.65214 0.0
C3486 C 0.10755 0.14922 0.8618 0.0
C3487 C 0.11147 0.15495 0.83454 0.0
C3488 C 0.09427 0.11097 0.82344 0.0
C3489 C 0.08704 0.10695 0.85035 0.0
N3490 N 0.08549 0.12269 0.89515 0.0
N3491 N 0.12145 0.13511 0.79235 0.0
C3492 C 0.09329 0.12624 0.86955 0.0
C3493 C 0.10846 0.13412 0.816 0.0
N3494 N 0.12023 0.16421 0.88022 0.0
N3495 N 0.08691 0.09291 0.80476 0.0
H3496 H 0.13576 0.14928 0.78815 0.0
H3497 H 0.12155 0.11971 0.77874 0.0
H3498 H 0.07724 0.07534 0.80937 0.0
H3499 H 0.08842 0.09628 0.78452 0.0
H3500 H 0.11987 0.16036 0.90042 0.0
H3501 H 0.1346 0.1778 0.87462 0.0
H3502 H 0.08691 0.13736 0.90949 0.0
H3503 H 0.07569 0.10573 0.90156 0.0
C3504 C 0.18725 0.40109 0.13507 0.0
C3505 C 0.17878 0.41604 0.15705 0.0
C3506 C 0.1519 0.44381 0.12759 0.0
C3507 C 0.16293 0.43086 0.10533 0.0
N3508 N 0.19726 0.40173 0.08856 0.0
N3509 N 0.15791 0.45584 0.17342 0.0
C3510 C 0.18233 0.41073 0.10921 0.0
C3511 C 0.16243 0.4386 0.15313 0.0
N3512 N 0.19928 0.37724 0.13874 0.0
N3513 N 0.1308 0.46036 0.1246 0.0
H3514 H 0.16605 0.45355 0.19219 0.0
H3515 H 0.1484 0.47389 0.17083 0.0
H3516 H 0.12195 0.46404 0.10638 0.0
H3517 H 0.12043 0.46825 0.14054 0.0
H3518 H 0.20352 0.36436 0.12325 0.0
H3519 H 0.2023 0.36911 0.15742 0.0
H3520 H 0.21327 0.38904 0.09108 0.0
H3521 H 0.19597 0.40918 0.06944 0.0
C3522 C 0.65191 0.09968 0.89661 0.0
C3523 C 0.66388 0.0773 0.90851 0.0
C3524 C 0.6936 0.07281 0.87028 0.0
C3525 C 0.68284 0.09626 0.8592 0.0
N3526 N 0.65494 0.13447 0.86368 0.0
N3527 N 0.69968 0.04561 0.90901 0.0
C3528 C 0.66287 0.11039 0.87294 0.0
C3529 C 0.68566 0.06467 0.89598 0.0
N3530 N 0.6295 0.11013 0.90749 0.0
N3531 N 0.71052 0.05745 0.85586 0.0
H3532 H 0.69459 0.03836 0.92757 0.0
H3533 H 0.71782 0.03846 0.90241 0.0
H3534 H 0.71785 0.06273 0.83739 0.0
H3535 H 0.71582 0.03835 0.86133 0.0
H3536 H 0.61822 0.12474 0.89846 0.0
H3537 H 0.6208 0.10252 0.92457 0.0
H3538 H 0.64238 0.14705 0.874 0.0
H3539 H 0.66292 0.14299 0.84668 0.0
C3540 C 0.81626 0.93335 0.37194 0.0
C3541 C 0.82896 0.91156 0.35952 0.0
C3542 C 0.8614 0.91046 0.39588 0.0
C3543 C 0.84728 0.9307 0.40918 0.0
N3544 N 0.80653 0.95519 0.41317 0.0
N3545 N 0.86041 0.87594 0.3626 0.0
C3546 C 0.82335 0.94036 0.39817 0.0
C3547 C 0.85063 0.8991 0.37239 0.0
N3548 N 0.79839 0.94846 0.35846 0.0
N3549 N 0.88547 0.90262 0.40523 0.0
H3550 H 0.85243 0.86666 0.34601 0.0
H3551 H 0.87452 0.8646 0.37236 0.0
H3552 H 0.89402 0.91071 0.42214 0.0
H3553 H 0.89797 0.88988 0.39498 0.0
H3554 H 0.79111 0.96625 0.36582 0.0
H3555 H 0.79276 0.94496 0.33901 0.0
H3556 H 0.78759 0.96041 0.40698 0.0
H3557 H 0.81021 0.95959 0.43291 0.0
C3558 C 0.84298 0.12071 0.13673 0.0
C3559 C 0.83801 0.10129 0.15622 0.0
C3560 C 0.86052 0.068 0.12878 0.0
C3561 C 0.8621 0.08641 0.10771 0.0
N3562 N 0.86749 0.13255 0.09727 0.0
N3563 N 0.83952 0.05565 0.16993 0.0
C3564 C 0.85684 0.11354 0.11321 0.0
C3565 C 0.8462 0.07474 0.15202 0.0
N3566 N 0.83417 0.14592 0.14053 0.0
N3567 N 0.87483 0.04516 0.12778 0.0
H3568 H 0.82917 0.05964 0.18729 0.0
H3569 H 0.84206 0.03554 0.16643 0.0
H3570 H 0.889 0.04164 0.11325 0.0
H3571 H 0.87603 0.03184 0.1434 0.0
H3572 H 0.83444 0.16034 0.12588 0.0
H3573 H 0.82467 0.15189 0.15783 0.0
H3574 H 0.86612 0.1527 0.10103 0.0
H3575 H 0.881 0.12807 0.08236 0.0
C3576 C 0.3527 0.5794 0.64999 0.0
C3577 C 0.33301 0.59916 0.65406 0.0
C3578 C 0.32557 0.60009 0.60614 0.0
C3579 C 0.34806 0.58358 0.60201 0.0
N3580 N 0.38678 0.56305 0.62079 0.0
N3581 N 0.30473 0.63231 0.63472 0.0
C3582 C 0.36281 0.57497 0.62418 0.0
C3583 C 0.32065 0.61075 0.63175 0.0
N3584 N 0.36067 0.56351 0.67031 0.0
N3585 N 0.30783 0.60434 0.58624 0.0
H3586 H 0.30135 0.64129 0.65295 0.0
H3587 H 0.29725 0.64289 0.61872 0.0
H3588 H 0.3092 0.59543 0.56775 0.0
H3589 H 0.28997 0.61418 0.58917 0.0
H3590 H 0.37323 0.54743 0.66755 0.0
H3591 H 0.35223 0.56404 0.68908 0.0
H3592 H 0.39926 0.55856 0.63655 0.0
H3593 H 0.39546 0.56045 0.60228 0.0
C3594 C 0.18976 0.61222 0.38029 0.0
C3595 C 0.17732 0.60233 0.35731 0.0
C3596 C 0.14724 0.57648 0.38549 0.0
C3597 C 0.16225 0.58341 0.40805 0.0
N3598 N 0.20359 0.60152 0.42449 0.0
N3599 N 0.14908 0.5682 0.33866 0.0
C3600 C 0.18518 0.59952 0.40484 0.0
C3601 C 0.15734 0.58255 0.35999 0.0
N3602 N 0.20539 0.63414 0.37899 0.0
N3603 N 0.12309 0.56473 0.38816 0.0
H3604 H 0.15738 0.56992 0.31991 0.0
H3605 H 0.13632 0.55212 0.34038 0.0
H3606 H 0.11445 0.56093 0.40648 0.0
H3607 H 0.1105 0.56149 0.37218 0.0
H3608 H 0.21318 0.64325 0.39575 0.0
H3609 H 0.20779 0.64496 0.36165 0.0
H3610 H 0.22152 0.61136 0.42194 0.0
H3611 H 0.20274 0.59059 0.44191 0.0
C3612 C 0.32453 0.42809 0.90396 0.0
C3613 C 0.35018 0.4208 0.91248 0.0
C3614 C 0.3567 0.39668 0.87088 0.0
C3615 C 0.3327 0.40747 0.8609 0.0
N3616 N 0.29672 0.43858 0.86686 0.0
N3617 N 0.3918 0.39966 0.90359 0.0
C3618 C 0.31732 0.42449 0.87715 0.0
C3619 C 0.36661 0.40544 0.89582 0.0
N3620 N 0.30653 0.43757 0.92171 0.0
N3621 N 0.36947 0.37737 0.85702 0.0
H3622 H 0.39936 0.40546 0.92187 0.0
H3623 H 0.40573 0.39091 0.89124 0.0
H3624 H 0.36224 0.36979 0.83927 0.0
H3625 H 0.38569 0.36705 0.8643 0.0
H3626 H 0.28669 0.44059 0.91703 0.0
H3627 H 0.31066 0.43952 0.94179 0.0
H3628 H 0.28698 0.45337 0.87737 0.0
H3629 H 0.29104 0.43772 0.84714 0.0
C3630 C 0.63422 0.69026 0.90101 0.0
C3631 C 0.65653 0.68015 0.9146 0.0
C3632 C 0.62675 0.65139 0.94033 0.0
C3633 C 0.6045 0.66442 0.92948 0.0
N3634 N 0.58834 0.70236 0.90512 0.0
N3635 N 0.67249 0.65585 0.95287 0.0
C3636 C 0.60855 0.68558 0.91136 0.0
C3637 C 0.65246 0.66194 0.93582 0.0
N3638 N 0.63727 0.70368 0.87781 0.0
N3639 N 0.62361 0.62861 0.95443 0.0
H3640 H 0.69117 0.66439 0.95205 0.0
H3641 H 0.66954 0.64469 0.96992 0.0
H3642 H 0.60524 0.61978 0.9575 0.0
H3643 H 0.63952 0.61707 0.96057 0.0
H3644 H 0.62129 0.70944 0.86616 0.0
H3645 H 0.65557 0.70624 0.86867 0.0
H3646 H 0.59113 0.71931 0.89375 0.0
H3647 H 0.56974 0.70142 0.91394 0.0
C3648 C 0.57849 0.38196 0.14808 0.0
C3649 C 0.59029 0.40438 0.15996 0.0
C3650 C 0.61905 0.37485 0.18568 0.0
C3651 C 0.60432 0.3527 0.17696 0.0
N3652 N 0.56438 0.33713 0.15529 0.0
N3653 N 0.61696 0.42121 0.19616 0.0
C3654 C 0.5825 0.3567 0.15955 0.0
C3655 C 0.60937 0.40066 0.18039 0.0
N3656 N 0.56376 0.38457 0.12562 0.0
N3657 N 0.64247 0.37144 0.19863 0.0
H3658 H 0.60871 0.44001 0.19505 0.0
H3659 H 0.62901 0.41869 0.21267 0.0
H3660 H 0.65074 0.3529 0.20201 0.0
H3661 H 0.65498 0.38713 0.2033 0.0
H3662 H 0.55664 0.36838 0.11507 0.0
H3663 H 0.56125 0.40258 0.11596 0.0
H3664 H 0.54703 0.34018 0.14462 0.0
H3665 H 0.5647 0.31904 0.16505 0.0
C3666 C 0.90396 0.32495 0.41902 0.0
C3667 C 0.90731 0.34514 0.43838 0.0
C3668 C 0.85932 0.34563 0.44504 0.0
C3669 C 0.85579 0.32888 0.42263 0.0
N3670 N 0.8754 0.30622 0.38553 0.0
N3671 N 0.8874 0.37761 0.46696 0.0
C3672 C 0.8783 0.31951 0.40884 0.0
C3673 C 0.88476 0.3563 0.45063 0.0
N3674 N 0.92503 0.30993 0.41128 0.0
N3675 N 0.83872 0.35032 0.4619 0.0
H3676 H 0.90561 0.38626 0.47122 0.0
H3677 H 0.87129 0.38819 0.47421 0.0
H3678 H 0.82015 0.34169 0.4597 0.0
H3679 H 0.84095 0.36026 0.47978 0.0
H3680 H 0.92311 0.29342 0.39914 0.0
H3681 H 0.94386 0.31192 0.4194 0.0
H3682 H 0.89132 0.30135 0.37341 0.0
H3683 H 0.85704 0.30243 0.377 0.0
C3684 C 0.90018 0.64217 0.65814 0.0
C3685 C 0.9102 0.65312 0.68202 0.0
C3686 C 0.9366 0.61297 0.68883 0.0
C3687 C 0.92964 0.604 0.66318 0.0
N3688 N 0.9062 0.61067 0.62241 0.0
N3689 N 0.94102 0.64985 0.71858 0.0
C3690 C 0.91172 0.61875 0.64757 0.0
C3691 C 0.92909 0.63871 0.69708 0.0
N3692 N 0.87901 0.65378 0.64605 0.0
N3693 N 0.94941 0.59644 0.70592 0.0
H3694 H 0.9358 0.66806 0.72641 0.0
H3695 H 0.95757 0.64169 0.72771 0.0
H3696 H 0.95497 0.57728 0.70093 0.0
H3697 H 0.95219 0.60075 0.72585 0.0
H3698 H 0.86921 0.64558 0.62994 0.0
H3699 H 0.86952 0.67033 0.65384 0.0
H3700 H 0.89546 0.62194 0.60898 0.0
H3701 H 0.91425 0.59356 0.61422 0.0
C3702 C 0.62665 0.36484 0.57223 0.0
C3703 C 0.60502 0.3635 0.58992 0.0
C3704 C 0.63388 0.34288 0.62328 0.0
C3705 C 0.6538 0.33995 0.60376 0.0
N3706 N 0.66789 0.34544 0.55835 0.0
N3707 N 0.59267 0.36408 0.63586 0.0
C3708 C 0.64995 0.35042 0.57795 0.0
C3709 C 0.60987 0.35612 0.61663 0.0
N3710 N 0.62579 0.38156 0.55109 0.0
N3711 N 0.63778 0.33279 0.64801 0.0
H3712 H 0.57719 0.3771 0.63195 0.0
H3713 H 0.59561 0.36097 0.65596 0.0
H3714 H 0.6556 0.32429 0.65391 0.0
H3715 H 0.62299 0.33143 0.66224 0.0
H3716 H 0.64187 0.38485 0.53865 0.0
H3717 H 0.61058 0.39521 0.54854 0.0
H3718 H 0.66446 0.35007 0.53859 0.0
H3719 H 0.68499 0.33434 0.56122 0.0
C3720 C 0.93205 0.36677 0.81661 0.0
C3721 C 0.90929 0.35439 0.82754 0.0
C3722 C 0.90506 0.39077 0.85965 0.0
C3723 C 0.92686 0.40381 0.84768 0.0
N3724 N 0.95759 0.40671 0.81112 0.0
N3725 N 0.8717 0.35628 0.85661 0.0
C3726 C 0.93936 0.3925 0.82516 0.0
C3727 C 0.89509 0.36693 0.84828 0.0
N3728 N 0.94766 0.3535 0.79898 0.0
N3729 N 0.89451 0.40073 0.88243 0.0
H3730 H 0.86382 0.33907 0.84845 0.0
H3731 H 0.85899 0.36557 0.86984 0.0
H3732 H 0.90147 0.418 0.89127 0.0
H3733 H 0.88041 0.39092 0.89373 0.0
H3734 H 0.9664 0.35996 0.79339 0.0
H3735 H 0.94311 0.33493 0.79143 0.0
H3736 H 0.96454 0.401 0.79261 0.0
H3737 H 0.96418 0.4254 0.81661 0.0
C3738 C 0.86786 0.68896 0.07239 0.0
C3739 C 0.85922 0.68208 0.09816 0.0
C3740 C 0.8977 0.6529 0.10301 0.0
C3741 C 0.90788 0.66226 0.07851 0.0
N3742 N 0.90458 0.69356 0.04238 0.0
N3743 N 0.86662 0.65933 0.13917 0.0
C3744 C 0.89346 0.68139 0.0638 0.0
C3745 C 0.87437 0.66453 0.11383 0.0
N3746 N 0.85118 0.70194 0.05559 0.0
N3747 N 0.90983 0.63223 0.11541 0.0
H3748 H 0.84948 0.66733 0.1474 0.0
H3749 H 0.87809 0.64885 0.15262 0.0
H3750 H 0.92642 0.62279 0.10762 0.0
H3751 H 0.90214 0.62283 0.13201 0.0
H3752 H 0.8552 0.70466 0.03559 0.0
H3753 H 0.83218 0.70775 0.06099 0.0
H3754 H 0.89619 0.70996 0.03323 0.0
H3755 H 0.92328 0.68914 0.03506 0.0
C3756 C 0.61377 0.64258 0.35471 0.0
C3757 C 0.60158 0.65506 0.33276 0.0
C3758 C 0.57184 0.61703 0.32743 0.0
C3759 C 0.58297 0.60514 0.35034 0.0
N3760 N 0.61127 0.60845 0.3884 0.0
N3761 N 0.56517 0.65675 0.30185 0.0
C3762 C 0.60304 0.61849 0.36473 0.0
C3763 C 0.57956 0.64301 0.32014 0.0
N3764 N 0.63609 0.65338 0.36542 0.0
N3765 N 0.55483 0.60315 0.31166 0.0
H3766 H 0.57009 0.67562 0.29532 0.0
H3767 H 0.5469 0.6504 0.2948 0.0
H3768 H 0.54774 0.5844 0.31614 0.0
H3769 H 0.54927 0.6094 0.29286 0.0
H3770 H 0.64756 0.64401 0.37968 0.0
H3771 H 0.64444 0.67089 0.35845 0.0
H3772 H 0.62398 0.61834 0.40118 0.0
H3773 H 0.60344 0.59116 0.39643 0.0
C3774 C 0.64589 0.90571 0.61756 0.0
C3775 C 0.657 0.92878 0.60603 0.0
C3776 C 0.68406 0.93549 0.64561 0.0
C3777 C 0.6755 0.91079 0.65572 0.0
N3778 N 0.6499 0.87107 0.65062 0.0
N3779 N 0.69134 0.96217 0.60687 0.0
C3780 C 0.65676 0.89553 0.64153 0.0
C3781 C 0.67731 0.9428 0.61946 0.0
N3782 N 0.62453 0.89398 0.60592 0.0
N3783 N 0.69774 0.95263 0.66139 0.0
H3784 H 0.68788 0.968 0.58745 0.0
H3785 H 0.70832 0.97067 0.61486 0.0
H3786 H 0.70236 0.94851 0.68101 0.0
H3787 H 0.70195 0.97201 0.6559 0.0
H3788 H 0.61391 0.8786 0.6145 0.0
H3789 H 0.61597 0.90119 0.58862 0.0
H3790 H 0.63841 0.85778 0.63993 0.0
H3791 H 0.65744 0.86323 0.66813 0.0
loop_
_geom_bond_atom_site_label_1
_geom_bond_atom_site_label_2
_geom_bond_distance
_geom_bond_site_symmetry_2
_ccdc_geom_bond_type
Co0 O3 1.970 . S
Co0 N17 1.989 . S
Co0 O25 1.967 . S
Co0 O32 1.920 . S
Co1 O4 1.966 . S
Co1 N10 2.022 1_455 S
Co1 N18 1.987 1_455 S
Co1 O26 1.941 . S
C2 O3 1.258 . S
C2 O4 1.263 . S
O3 Co0 1.970 . S
O3 C2 1.258 . S
O4 Co1 1.966 . S
O4 C2 1.263 . S
C5 O6 1.235 . S
C5 O32 1.289 . S
O6 C5 1.235 . S
C7 C9 1.400 . S
C7 N10 1.351 . S
C7 C12 1.501 . S
C8 C9 1.387 . S
C8 N11 1.341 . S
C9 C7 1.400 . S
C9 C8 1.387 . S
N10 Co1 2.022 1_655 S
N10 C7 1.351 . S
N10 N11 1.365 . S
N11 C8 1.341 . S
N11 N10 1.365 . S
N11 H31 0.862 1_655 S
C12 C7 1.501 . S
C12 H13 0.961 . S
C12 H14 0.961 . S
C12 H15 0.960 . S
H13 C12 0.961 . S
H14 C12 0.961 . S
H15 C12 0.960 . S
C16 N17 1.342 . S
C16 C20 1.401 1_455 S
C16 C21 1.499 . S
N17 Co0 1.989 . S
N17 C16 1.342 . S
N17 N18 1.380 1_455 S
N18 Co1 1.987 1_655 S
N18 N17 1.380 1_655 S
N18 C19 1.356 . S
C19 N18 1.356 . S
C19 C20 1.396 . S
C19 C29 1.510 . S
C20 C16 1.401 1_655 S
C20 C19 1.396 . S
C21 C16 1.499 . S
C21 H22 0.959 . S
C21 H23 0.970 . S
C21 H24 0.961 . S
H22 C21 0.959 . S
H23 C21 0.970 . S
H24 C21 0.961 . S
O25 Co0 1.967 . S
O25 C33 1.258 . S
O26 Co1 1.941 . S
O26 C33 1.266 . S
H27 C29 0.959 . S
H28 C29 0.961 . S
C29 C19 1.510 . S
C29 H27 0.959 . S
C29 H28 0.961 . S
C29 H30 0.960 . S
H30 C29 0.960 . S
H31 N11 0.862 1_455 S
O32 Co0 1.920 . S
O32 C5 1.289 . S
C33 O25 1.258 . S
C33 O26 1.266 . S
Co34 O37 1.970 . S
Co34 N51 1.989 . S
Co34 O59 1.967 . S
Co34 O66 1.920 . S
Co35 O38 1.966 . S
Co35 N44 2.022 . S
Co35 N52 1.993 . S
Co35 O60 1.941 . S
C36 O37 1.258 . S
C36 O38 1.263 . S
O37 Co34 1.970 . S
O37 C36 1.258 . S
O38 Co35 1.966 . S
O38 C36 1.263 . S
C39 O40 1.235 . S
C39 O66 1.289 . S
O40 C39 1.235 . S
C41 C43 1.400 . S
C41 N44 1.351 . S
C41 C46 1.501 . S
C42 C43 1.387 . S
C42 N45 1.341 . S
C43 C41 1.400 . S
C43 C42 1.387 . S
N44 Co35 2.022 . S
N44 C41 1.351 . S
N44 N45 1.365 . S
N45 C42 1.341 . S
N45 N44 1.365 . S
N45 H65 0.862 . S
C46 C41 1.501 . S
C46 H47 0.961 . S
C46 H48 0.961 . S
C46 H49 0.960 . S
H47 C46 0.961 . S
H48 C46 0.961 . S
H49 C46 0.960 . S
C50 N51 1.342 . S
C50 C54 1.401 . S
C50 C55 1.499 . S
N51 Co34 1.989 . S
N51 C50 1.342 . S
N51 N52 1.388 . S
N52 Co35 1.993 . S
N52 N51 1.388 . S
N52 C53 1.346 . S
C53 N52 1.346 . S
C53 C54 1.396 . S
C53 C63 1.510 . S
C54 C50 1.401 . S
C54 C53 1.396 . S
C55 C50 1.499 . S
C55 H56 0.959 . S
C55 H57 0.960 . S
C55 H58 0.961 . S
H56 C55 0.959 . S
H57 C55 0.960 . S
H58 C55 0.961 . S
O59 Co34 1.967 . S
O59 C67 1.258 . S
O60 Co35 1.941 . S
O60 C67 1.266 . S
H61 C63 0.959 . S
H62 C63 0.961 . S
C63 C53 1.510 . S
C63 H61 0.959 . S
C63 H62 0.961 . S
C63 H64 0.960 . S
H64 C63 0.960 . S
H65 N45 0.862 . S
O66 Co34 1.920 . S
O66 C39 1.289 . S
C67 O59 1.258 . S
C67 O60 1.266 . S
Co68 O71 1.970 . S
Co68 N85 1.989 . S
Co68 O93 1.967 . S
Co68 O100 1.920 . S
Co69 O72 1.966 . S
Co69 N78 2.022 . S
Co69 N86 1.993 . S
Co69 O94 1.941 . S
C70 O71 1.258 . S
C70 O72 1.263 . S
O71 Co68 1.970 . S
O71 C70 1.258 . S
O72 Co69 1.966 . S
O72 C70 1.263 . S
C73 O74 1.235 . S
C73 O100 1.289 1_554 S
O74 C73 1.235 . S
C75 C77 1.400 . S
C75 N78 1.351 . S
C75 C80 1.501 . S
C76 C77 1.387 . S
C76 N79 1.341 . S
C77 C75 1.400 . S
C77 C76 1.387 . S
N78 Co69 2.022 . S
N78 C75 1.351 . S
N78 N79 1.365 . S
N79 C76 1.341 . S
N79 N78 1.365 . S
N79 H99 0.862 . S
C80 C75 1.501 . S
C80 H81 0.961 . S
C80 H82 0.961 . S
C80 H83 0.960 . S
H81 C80 0.961 . S
H82 C80 0.961 . S
H83 C80 0.960 . S
C84 N85 1.342 . S
C84 C88 1.401 . S
C84 C89 1.499 . S
N85 Co68 1.989 . S
N85 C84 1.342 . S
N85 N86 1.388 . S
N86 Co69 1.993 . S
N86 N85 1.388 . S
N86 C87 1.346 . S
C87 N86 1.346 . S
C87 C88 1.396 . S
C87 C97 1.510 . S
C88 C84 1.401 . S
C88 C87 1.396 . S
C89 C84 1.499 . S
C89 H90 0.959 . S
C89 H91 0.960 . S
C89 H92 0.961 . S
H90 C89 0.959 . S
H91 C89 0.960 . S
H92 C89 0.961 . S
O93 Co68 1.967 . S
O93 C101 1.258 . S
O94 Co69 1.941 . S
O94 C101 1.266 . S
H95 C97 0.959 . S
H96 C97 0.961 . S
C97 C87 1.510 . S
C97 H95 0.959 . S
C97 H96 0.961 . S
C97 H98 0.960 . S
H98 C97 0.960 . S
H99 N79 0.862 . S
O100 Co68 1.920 . S
O100 C73 1.289 1_556 S
C101 O93 1.258 . S
C101 O94 1.266 . S
Co102 O105 1.970 . S
Co102 N119 1.989 . S
Co102 O127 1.967 . S
Co102 O134 1.920 . S
Co103 O106 1.966 . S
Co103 N112 2.022 . S
Co103 N120 1.993 . S
Co103 O128 1.941 . S
C104 O105 1.258 . S
C104 O106 1.263 . S
O105 Co102 1.970 . S
O105 C104 1.258 . S
O106 Co103 1.966 . S
O106 C104 1.263 . S
C107 O108 1.235 . S
C107 O134 1.289 . S
O108 C107 1.235 . S
C109 C111 1.400 . S
C109 N112 1.351 . S
C109 C114 1.501 . S
C110 C111 1.387 . S
C110 N113 1.341 . S
C111 C109 1.400 . S
C111 C110 1.387 . S
N112 Co103 2.022 . S
N112 C109 1.351 . S
N112 N113 1.365 . S
N113 C110 1.341 . S
N113 N112 1.365 . S
N113 H133 0.862 . S
C114 C109 1.501 . S
C114 H115 0.961 . S
C114 H116 0.961 . S
C114 H117 0.960 . S
H115 C114 0.961 . S
H116 C114 0.961 . S
H117 C114 0.960 . S
C118 N119 1.342 . S
C118 C122 1.401 . S
C118 C123 1.499 . S
N119 Co102 1.989 . S
N119 C118 1.342 . S
N119 N120 1.388 . S
N120 Co103 1.993 . S
N120 N119 1.388 . S
N120 C121 1.346 . S
C121 N120 1.346 . S
C121 C122 1.396 . S
C121 C131 1.510 . S
C122 C118 1.401 . S
C122 C121 1.396 . S
C123 C118 1.499 . S
C123 H124 0.959 . S
C123 H125 0.960 . S
C123 H126 0.961 . S
H124 C123 0.959 . S
H125 C123 0.960 . S
H126 C123 0.961 . S
O127 Co102 1.967 . S
O127 C135 1.258 . S
O128 Co103 1.941 . S
O128 C135 1.266 . S
H129 C131 0.959 . S
H130 C131 0.961 . S
C131 C121 1.510 . S
C131 H129 0.959 . S
C131 H130 0.961 . S
C131 H132 0.960 . S
H132 C131 0.960 . S
H133 N113 0.862 . S
O134 Co102 1.920 . S
O134 C107 1.289 . S
C135 O127 1.258 . S
C135 O128 1.266 . S
Co136 O139 1.970 . S
Co136 N153 1.989 . S
Co136 O161 1.967 . S
Co136 O168 1.920 . S
Co137 O140 1.966 . S
Co137 N146 2.022 1_455 S
Co137 N154 1.987 1_455 S
Co137 O162 1.941 . S
C138 O139 1.258 . S
C138 O140 1.263 . S
O139 Co136 1.970 . S
O139 C138 1.258 . S
O140 Co137 1.966 . S
O140 C138 1.263 . S
C141 O142 1.235 . S
C141 O168 1.289 1_556 S
O142 C141 1.235 . S
C143 C145 1.400 . S
C143 N146 1.351 . S
C143 C148 1.501 . S
C144 C145 1.387 . S
C144 N147 1.341 . S
C145 C143 1.400 . S
C145 C144 1.387 . S
N146 Co137 2.022 1_655 S
N146 C143 1.351 . S
N146 N147 1.365 . S
N147 C144 1.341 . S
N147 N146 1.365 . S
N147 H167 0.862 1_655 S
C148 C143 1.501 . S
C148 H149 0.961 . S
C148 H150 0.961 . S
C148 H151 0.960 . S
H149 C148 0.961 . S
H150 C148 0.961 . S
H151 C148 0.960 . S
C152 N153 1.342 . S
C152 C156 1.401 1_455 S
C152 C157 1.499 . S
N153 Co136 1.989 . S
N153 C152 1.342 . S
N153 N154 1.380 1_455 S
N154 Co137 1.987 1_655 S
N154 N153 1.380 1_655 S
N154 C155 1.356 . S
C155 N154 1.356 . S
C155 C156 1.396 . S
C155 C165 1.510 . S
C156 C152 1.401 1_655 S
C156 C155 1.396 . S
C157 C152 1.499 . S
C157 H158 0.959 . S
C157 H159 0.970 . S
C157 H160 0.961 . S
H158 C157 0.959 . S
H159 C157 0.970 . S
H160 C157 0.961 . S
O161 Co136 1.967 . S
O161 C169 1.258 . S
O162 Co137 1.941 . S
O162 C169 1.266 . S
H163 C165 0.959 . S
H164 C165 0.961 . S
C165 C155 1.510 . S
C165 H163 0.959 . S
C165 H164 0.961 . S
C165 H166 0.960 . S
H166 C165 0.960 . S
H167 N147 0.862 1_455 S
O168 Co136 1.920 . S
O168 C141 1.289 1_554 S
C169 O161 1.258 . S
C169 O162 1.266 . S
Co170 O173 1.970 . S
Co170 N187 1.989 . S
Co170 O195 1.967 . S
Co170 O202 1.920 . S
Co171 O174 1.966 . S
Co171 N180 2.022 . S
Co171 N188 1.993 . S
Co171 O196 1.941 . S
C172 O173 1.258 . S
C172 O174 1.263 . S
O173 Co170 1.970 . S
O173 C172 1.258 . S
O174 Co171 1.966 . S
O174 C172 1.263 . S
C175 O176 1.235 . S
C175 O202 1.289 . S
O176 C175 1.235 . S
C177 C179 1.400 . S
C177 N180 1.351 . S
C177 C182 1.501 . S
C178 C179 1.387 . S
C178 N181 1.341 . S
C179 C177 1.400 . S
C179 C178 1.387 . S
N180 Co171 2.022 . S
N180 C177 1.351 . S
N180 N181 1.365 . S
N181 C178 1.341 . S
N181 N180 1.365 . S
N181 H201 0.862 . S
C182 C177 1.501 . S
C182 H183 0.961 . S
C182 H184 0.961 . S
C182 H185 0.960 . S
H183 C182 0.961 . S
H184 C182 0.961 . S
H185 C182 0.960 . S
C186 N187 1.342 . S
C186 C190 1.401 . S
C186 C191 1.499 . S
N187 Co170 1.989 . S
N187 C186 1.342 . S
N187 N188 1.388 . S
N188 Co171 1.993 . S
N188 N187 1.388 . S
N188 C189 1.346 . S
C189 N188 1.346 . S
C189 C190 1.396 . S
C189 C199 1.510 . S
C190 C186 1.401 . S
C190 C189 1.396 . S
C191 C186 1.499 . S
C191 H192 0.959 . S
C191 H193 0.960 . S
C191 H194 0.961 . S
H192 C191 0.959 . S
H193 C191 0.960 . S
H194 C191 0.961 . S
O195 Co170 1.967 . S
O195 C203 1.258 . S
O196 Co171 1.941 . S
O196 C203 1.266 . S
H197 C199 0.959 . S
H198 C199 0.961 . S
C199 C189 1.510 . S
C199 H197 0.959 . S
C199 H198 0.961 . S
C199 H200 0.960 . S
H200 C199 0.960 . S
H201 N181 0.862 . S
O202 Co170 1.920 . S
O202 C175 1.289 . S
C203 O195 1.258 . S
C203 O196 1.266 . S
Co204 O207 1.970 . S
Co204 N221 1.989 . S
Co204 O229 1.967 . S
Co204 O236 1.920 . S
Co205 O208 1.966 . S
Co205 N214 2.022 . S
Co205 N222 1.993 . S
Co205 O230 1.941 . S
C206 O207 1.258 . S
C206 O208 1.263 . S
O207 Co204 1.970 . S
O207 C206 1.258 . S
O208 Co205 1.966 . S
O208 C206 1.263 . S
C209 O210 1.235 . S
C209 O236 1.289 . S
O210 C209 1.235 . S
C211 C213 1.400 . S
C211 N214 1.351 . S
C211 C216 1.501 . S
C212 C213 1.387 . S
C212 N215 1.341 . S
C213 C211 1.400 . S
C213 C212 1.387 . S
N214 Co205 2.022 . S
N214 C211 1.351 . S
N214 N215 1.365 . S
N215 C212 1.341 . S
N215 N214 1.365 . S
N215 H235 0.862 . S
C216 C211 1.501 . S
C216 H217 0.961 . S
C216 H218 0.961 . S
C216 H219 0.960 . S
H217 C216 0.961 . S
H218 C216 0.961 . S
H219 C216 0.960 . S
C220 N221 1.342 . S
C220 C224 1.401 . S
C220 C225 1.499 . S
N221 Co204 1.989 . S
N221 C220 1.342 . S
N221 N222 1.388 . S
N222 Co205 1.993 . S
N222 N221 1.388 . S
N222 C223 1.346 . S
C223 N222 1.346 . S
C223 C224 1.396 . S
C223 C233 1.510 . S
C224 C220 1.401 . S
C224 C223 1.396 . S
C225 C220 1.499 . S
C225 H226 0.959 . S
C225 H227 0.960 . S
C225 H228 0.961 . S
H226 C225 0.959 . S
H227 C225 0.960 . S
H228 C225 0.961 . S
O229 Co204 1.967 . S
O229 C237 1.258 . S
O230 Co205 1.941 . S
O230 C237 1.266 . S
H231 C233 0.959 . S
H232 C233 0.961 . S
C233 C223 1.510 . S
C233 H231 0.959 . S
C233 H232 0.961 . S
C233 H234 0.960 . S
H234 C233 0.960 . S
H235 N215 0.862 . S
O236 Co204 1.920 . S
O236 C209 1.289 . S
C237 O229 1.258 . S
C237 O230 1.266 . S
Co238 O241 1.970 . S
Co238 N255 1.989 . S
Co238 O263 1.967 . S
Co238 O270 1.920 . S
Co239 O242 1.966 . S
Co239 N248 2.022 . S
Co239 N256 1.993 . S
Co239 O264 1.941 . S
C240 O241 1.258 . S
C240 O242 1.263 . S
O241 Co238 1.970 . S
O241 C240 1.258 . S
O242 Co239 1.966 . S
O242 C240 1.263 . S
C243 O244 1.235 . S
C243 O270 1.289 . S
O244 C243 1.235 . S
C245 C247 1.400 . S
C245 N248 1.351 . S
C245 C250 1.501 . S
C246 C247 1.387 . S
C246 N249 1.341 . S
C247 C245 1.400 . S
C247 C246 1.387 . S
N248 Co239 2.022 . S
N248 C245 1.351 . S
N248 N249 1.365 . S
N249 C246 1.341 . S
N249 N248 1.365 . S
N249 H269 0.862 . S
C250 C245 1.501 . S
C250 H251 0.961 . S
C250 H252 0.961 . S
C250 H253 0.960 . S
H251 C250 0.961 . S
H252 C250 0.961 . S
H253 C250 0.960 . S
C254 N255 1.342 . S
C254 C258 1.401 . S
C254 C259 1.499 . S
N255 Co238 1.989 . S
N255 C254 1.342 . S
N255 N256 1.388 . S
N256 Co239 1.993 . S
N256 N255 1.388 . S
N256 C257 1.346 . S
C257 N256 1.346 . S
C257 C258 1.396 . S
C257 C267 1.510 . S
C258 C254 1.401 . S
C258 C257 1.396 . S
C259 C254 1.499 . S
C259 H260 0.959 . S
C259 H261 0.960 . S
C259 H262 0.961 . S
H260 C259 0.959 . S
H261 C259 0.960 . S
H262 C259 0.961 . S
O263 Co238 1.967 . S
O263 C271 1.258 . S
O264 Co239 1.941 . S
O264 C271 1.266 . S
H265 C267 0.959 . S
H266 C267 0.961 . S
C267 C257 1.510 . S
C267 H265 0.959 . S
C267 H266 0.961 . S
C267 H268 0.960 . S
H268 C267 0.960 . S
H269 N249 0.862 . S
O270 Co238 1.920 . S
O270 C243 1.289 . S
C271 O263 1.258 . S
C271 O264 1.266 . S
Co272 O275 1.970 . S
Co272 N289 1.989 . S
Co272 O297 1.967 . S
Co272 O304 1.920 . S
Co273 O276 1.966 . S
Co273 N282 2.022 1_545 S
Co273 N290 1.987 1_545 S
Co273 O298 1.941 . S
C274 O275 1.258 . S
C274 O276 1.263 . S
O275 Co272 1.970 . S
O275 C274 1.258 . S
O276 Co273 1.966 . S
O276 C274 1.263 . S
C277 O278 1.235 . S
C277 O304 1.289 . S
O278 C277 1.235 . S
C279 C281 1.400 . S
C279 N282 1.351 . S
C279 C284 1.501 . S
C280 C281 1.387 . S
C280 N283 1.341 . S
C281 C279 1.400 . S
C281 C280 1.387 . S
N282 Co273 2.022 1_565 S
N282 C279 1.351 . S
N282 N283 1.365 . S
N283 C280 1.341 . S
N283 N282 1.365 . S
N283 H303 0.862 1_565 S
C284 C279 1.501 . S
C284 H285 0.961 . S
C284 H286 0.961 . S
C284 H287 0.960 . S
H285 C284 0.961 . S
H286 C284 0.961 . S
H287 C284 0.960 . S
C288 N289 1.342 . S
C288 C292 1.401 1_545 S
C288 C293 1.499 . S
N289 Co272 1.989 . S
N289 C288 1.342 . S
N289 N290 1.380 1_545 S
N290 Co273 1.987 1_565 S
N290 N289 1.380 1_565 S
N290 C291 1.356 . S
C291 N290 1.356 . S
C291 C292 1.396 . S
C291 C301 1.510 . S
C292 C288 1.401 1_565 S
C292 C291 1.396 . S
C293 C288 1.499 . S
C293 H294 0.959 . S
C293 H295 0.970 . S
C293 H296 0.961 . S
H294 C293 0.959 . S
H295 C293 0.970 . S
H296 C293 0.961 . S
O297 Co272 1.967 . S
O297 C305 1.258 . S
O298 Co273 1.941 . S
O298 C305 1.266 . S
H299 C301 0.959 . S
H300 C301 0.961 . S
C301 C291 1.510 . S
C301 H299 0.959 . S
C301 H300 0.961 . S
C301 H302 0.960 . S
H302 C301 0.960 . S
H303 N283 0.862 1_545 S
O304 Co272 1.920 . S
O304 C277 1.289 . S
C305 O297 1.258 . S
C305 O298 1.266 . S
Co306 O309 1.970 . S
Co306 N323 1.989 . S
Co306 O331 1.967 . S
Co306 O338 1.920 . S
Co307 O310 1.966 . S
Co307 N316 2.022 . S
Co307 N324 1.993 . S
Co307 O332 1.941 . S
C308 O309 1.258 . S
C308 O310 1.263 . S
O309 Co306 1.970 . S
O309 C308 1.258 . S
O310 Co307 1.966 . S
O310 C308 1.263 . S
C311 O312 1.235 . S
C311 O338 1.289 . S
O312 C311 1.235 . S
C313 C315 1.400 . S
C313 N316 1.351 . S
C313 C318 1.501 . S
C314 C315 1.387 . S
C314 N317 1.341 . S
C315 C313 1.400 . S
C315 C314 1.387 . S
N316 Co307 2.022 . S
N316 C313 1.351 . S
N316 N317 1.365 . S
N317 C314 1.341 . S
N317 N316 1.365 . S
N317 H337 0.862 . S
C318 C313 1.501 . S
C318 H319 0.961 . S
C318 H320 0.961 . S
C318 H321 0.960 . S
H319 C318 0.961 . S
H320 C318 0.961 . S
H321 C318 0.960 . S
C322 N323 1.342 . S
C322 C326 1.401 . S
C322 C327 1.499 . S
N323 Co306 1.989 . S
N323 C322 1.342 . S
N323 N324 1.388 . S
N324 Co307 1.993 . S
N324 N323 1.388 . S
N324 C325 1.346 . S
C325 N324 1.346 . S
C325 C326 1.396 . S
C325 C335 1.510 . S
C326 C322 1.401 . S
C326 C325 1.396 . S
C327 C322 1.499 . S
C327 H328 0.959 . S
C327 H329 0.960 . S
C327 H330 0.961 . S
H328 C327 0.959 . S
H329 C327 0.960 . S
H330 C327 0.961 . S
O331 Co306 1.967 . S
O331 C339 1.258 . S
O332 Co307 1.941 . S
O332 C339 1.266 . S
H333 C335 0.959 . S
H334 C335 0.961 . S
C335 C325 1.510 . S
C335 H333 0.959 . S
C335 H334 0.961 . S
C335 H336 0.960 . S
H336 C335 0.960 . S
H337 N317 0.862 . S
O338 Co306 1.920 . S
O338 C311 1.289 . S
C339 O331 1.258 . S
C339 O332 1.266 . S
Co340 O343 1.970 . S
Co340 N357 1.989 . S
Co340 O365 1.967 . S
Co340 O372 1.920 . S
Co341 O344 1.966 . S
Co341 N350 2.022 1_565 S
Co341 N358 1.987 1_565 S
Co341 O366 1.941 . S
C342 O343 1.258 . S
C342 O344 1.263 . S
O343 Co340 1.970 . S
O343 C342 1.258 . S
O344 Co341 1.966 . S
O344 C342 1.263 . S
C345 O346 1.235 . S
C345 O372 1.289 1_655 S
O346 C345 1.235 . S
C347 C349 1.400 . S
C347 N350 1.351 . S
C347 C352 1.501 . S
C348 C349 1.387 . S
C348 N351 1.341 . S
C349 C347 1.400 . S
C349 C348 1.387 . S
N350 Co341 2.022 1_545 S
N350 C347 1.351 . S
N350 N351 1.365 . S
N351 C348 1.341 . S
N351 N350 1.365 . S
N351 H371 0.862 1_545 S
C352 C347 1.501 . S
C352 H353 0.961 . S
C352 H354 0.961 . S
C352 H355 0.960 . S
H353 C352 0.961 . S
H354 C352 0.961 . S
H355 C352 0.960 . S
C356 N357 1.342 . S
C356 C360 1.401 1_565 S
C356 C361 1.499 . S
N357 Co340 1.989 . S
N357 C356 1.342 . S
N357 N358 1.380 1_565 S
N358 Co341 1.987 1_545 S
N358 N357 1.380 1_545 S
N358 C359 1.356 . S
C359 N358 1.356 . S
C359 C360 1.396 . S
C359 C369 1.510 . S
C360 C356 1.401 1_545 S
C360 C359 1.396 . S
C361 C356 1.499 . S
C361 H362 0.959 . S
C361 H363 0.970 . S
C361 H364 0.961 . S
H362 C361 0.959 . S
H363 C361 0.970 . S
H364 C361 0.961 . S
O365 Co340 1.967 . S
O365 C373 1.258 . S
O366 Co341 1.941 . S
O366 C373 1.266 . S
H367 C369 0.959 . S
H368 C369 0.961 . S
C369 C359 1.510 . S
C369 H367 0.959 . S
C369 H368 0.961 . S
C369 H370 0.960 . S
H370 C369 0.960 . S
H371 N351 0.862 1_565 S
O372 Co340 1.920 . S
O372 C345 1.289 1_455 S
C373 O365 1.258 . S
C373 O366 1.266 . S
Co374 O377 1.970 . S
Co374 N391 1.989 . S
Co374 O399 1.967 . S
Co374 O406 1.920 . S
Co375 O378 1.966 . S
Co375 N384 2.022 . S
Co375 N392 1.993 . S
Co375 O400 1.941 . S
C376 O377 1.258 . S
C376 O378 1.263 . S
O377 Co374 1.970 . S
O377 C376 1.258 . S
O378 Co375 1.966 . S
O378 C376 1.263 . S
C379 O380 1.235 . S
C379 O406 1.289 . S
O380 C379 1.235 . S
C381 C383 1.400 . S
C381 N384 1.351 . S
C381 C386 1.501 . S
C382 C383 1.387 . S
C382 N385 1.341 . S
C383 C381 1.400 . S
C383 C382 1.387 . S
N384 Co375 2.022 . S
N384 C381 1.351 . S
N384 N385 1.365 . S
N385 C382 1.341 . S
N385 N384 1.365 . S
N385 H405 0.862 . S
C386 C381 1.501 . S
C386 H387 0.961 . S
C386 H388 0.961 . S
C386 H389 0.960 . S
H387 C386 0.961 . S
H388 C386 0.961 . S
H389 C386 0.960 . S
C390 N391 1.342 . S
C390 C394 1.401 . S
C390 C395 1.499 . S
N391 Co374 1.989 . S
N391 C390 1.342 . S
N391 N392 1.388 . S
N392 Co375 1.993 . S
N392 N391 1.388 . S
N392 C393 1.346 . S
C393 N392 1.346 . S
C393 C394 1.396 . S
C393 C403 1.510 . S
C394 C390 1.401 . S
C394 C393 1.396 . S
C395 C390 1.499 . S
C395 H396 0.959 . S
C395 H397 0.960 . S
C395 H398 0.961 . S
H396 C395 0.959 . S
H397 C395 0.960 . S
H398 C395 0.961 . S
O399 Co374 1.967 . S
O399 C407 1.258 . S
O400 Co375 1.941 . S
O400 C407 1.266 . S
H401 C403 0.959 . S
H402 C403 0.961 . S
C403 C393 1.510 . S
C403 H401 0.959 . S
C403 H402 0.961 . S
C403 H404 0.960 . S
H404 C403 0.960 . S
H405 N385 0.862 . S
O406 Co374 1.920 . S
O406 C379 1.289 . S
C407 O399 1.258 . S
C407 O400 1.266 . S
Co408 O411 1.970 . S
Co408 N425 1.989 . S
Co408 O433 1.967 . S
Co408 O440 1.920 . S
Co409 O412 1.966 . S
Co409 N418 2.022 1_565 S
Co409 N426 1.987 1_565 S
Co409 O434 1.941 . S
C410 O411 1.258 . S
C410 O412 1.263 . S
O411 Co408 1.970 . S
O411 C410 1.258 . S
O412 Co409 1.966 . S
O412 C410 1.263 . S
C413 O414 1.235 . S
C413 O440 1.289 . S
O414 C413 1.235 . S
C415 C417 1.400 . S
C415 N418 1.351 . S
C415 C420 1.501 . S
C416 C417 1.387 . S
C416 N419 1.341 . S
C417 C415 1.400 . S
C417 C416 1.387 . S
N418 Co409 2.022 1_545 S
N418 C415 1.351 . S
N418 N419 1.365 . S
N419 C416 1.341 . S
N419 N418 1.365 . S
N419 H439 0.862 1_545 S
C420 C415 1.501 . S
C420 H421 0.961 . S
C420 H422 0.961 . S
C420 H423 0.960 . S
H421 C420 0.961 . S
H422 C420 0.961 . S
H423 C420 0.960 . S
C424 N425 1.342 . S
C424 C428 1.401 1_565 S
C424 C429 1.499 . S
N425 Co408 1.989 . S
N425 C424 1.342 . S
N425 N426 1.380 1_565 S
N426 Co409 1.987 1_545 S
N426 N425 1.380 1_545 S
N426 C427 1.356 . S
C427 N426 1.356 . S
C427 C428 1.396 . S
C427 C437 1.510 . S
C428 C424 1.401 1_545 S
C428 C427 1.396 . S
C429 C424 1.499 . S
C429 H430 0.959 . S
C429 H431 0.970 . S
C429 H432 0.961 . S
H430 C429 0.959 . S
H431 C429 0.970 . S
H432 C429 0.961 . S
O433 Co408 1.967 . S
O433 C441 1.258 . S
O434 Co409 1.941 . S
O434 C441 1.266 . S
H435 C437 0.959 . S
H436 C437 0.961 . S
C437 C427 1.510 . S
C437 H435 0.959 . S
C437 H436 0.961 . S
C437 H438 0.960 . S
H438 C437 0.960 . S
H439 N419 0.862 1_565 S
O440 Co408 1.920 . S
O440 C413 1.289 . S
C441 O433 1.258 . S
C441 O434 1.266 . S
Co442 O445 1.970 . S
Co442 N459 1.989 . S
Co442 O467 1.967 . S
Co442 O474 1.920 . S
Co443 O446 1.966 . S
Co443 N452 2.022 . S
Co443 N460 1.993 . S
Co443 O468 1.941 . S
C444 O445 1.258 . S
C444 O446 1.263 . S
O445 Co442 1.970 . S
O445 C444 1.258 . S
O446 Co443 1.966 . S
O446 C444 1.263 . S
C447 O448 1.235 . S
C447 O474 1.289 . S
O448 C447 1.235 . S
C449 C451 1.400 . S
C449 N452 1.351 . S
C449 C454 1.501 . S
C450 C451 1.387 . S
C450 N453 1.341 . S
C451 C449 1.400 . S
C451 C450 1.387 . S
N452 Co443 2.022 . S
N452 C449 1.351 . S
N452 N453 1.365 . S
N453 C450 1.341 . S
N453 N452 1.365 . S
N453 H473 0.862 . S
C454 C449 1.501 . S
C454 H455 0.961 . S
C454 H456 0.961 . S
C454 H457 0.960 . S
H455 C454 0.961 . S
H456 C454 0.961 . S
H457 C454 0.960 . S
C458 N459 1.342 . S
C458 C462 1.401 . S
C458 C463 1.499 . S
N459 Co442 1.989 . S
N459 C458 1.342 . S
N459 N460 1.388 . S
N460 Co443 1.993 . S
N460 N459 1.388 . S
N460 C461 1.346 . S
C461 N460 1.346 . S
C461 C462 1.396 . S
C461 C471 1.510 . S
C462 C458 1.401 . S
C462 C461 1.396 . S
C463 C458 1.499 . S
C463 H464 0.959 . S
C463 H465 0.960 . S
C463 H466 0.961 . S
H464 C463 0.959 . S
H465 C463 0.960 . S
H466 C463 0.961 . S
O467 Co442 1.967 . S
O467 C475 1.258 . S
O468 Co443 1.941 . S
O468 C475 1.266 . S
H469 C471 0.959 . S
H470 C471 0.961 . S
C471 C461 1.510 . S
C471 H469 0.959 . S
C471 H470 0.961 . S
C471 H472 0.960 . S
H472 C471 0.960 . S
H473 N453 0.862 . S
O474 Co442 1.920 . S
O474 C447 1.289 . S
C475 O467 1.258 . S
C475 O468 1.266 . S
Co476 O479 1.970 . S
Co476 N493 1.989 . S
Co476 O501 1.967 . S
Co476 O508 1.920 . S
Co477 O480 1.966 . S
Co477 N486 2.022 1_545 S
Co477 N494 1.987 1_545 S
Co477 O502 1.941 . S
C478 O479 1.258 . S
C478 O480 1.263 . S
O479 Co476 1.970 . S
O479 C478 1.258 . S
O480 Co477 1.966 . S
O480 C478 1.263 . S
C481 O482 1.235 . S
C481 O508 1.289 1_655 S
O482 C481 1.235 . S
C483 C485 1.400 . S
C483 N486 1.351 . S
C483 C488 1.501 . S
C484 C485 1.387 . S
C484 N487 1.341 . S
C485 C483 1.400 . S
C485 C484 1.387 . S
N486 Co477 2.022 1_565 S
N486 C483 1.351 . S
N486 N487 1.365 . S
N487 C484 1.341 . S
N487 N486 1.365 . S
N487 H507 0.862 1_565 S
C488 C483 1.501 . S
C488 H489 0.961 . S
C488 H490 0.961 . S
C488 H491 0.960 . S
H489 C488 0.961 . S
H490 C488 0.961 . S
H491 C488 0.960 . S
C492 N493 1.342 . S
C492 C496 1.401 1_545 S
C492 C497 1.499 . S
N493 Co476 1.989 . S
N493 C492 1.342 . S
N493 N494 1.380 1_545 S
N494 Co477 1.987 1_565 S
N494 N493 1.380 1_565 S
N494 C495 1.356 . S
C495 N494 1.356 . S
C495 C496 1.396 . S
C495 C505 1.510 . S
C496 C492 1.401 1_565 S
C496 C495 1.396 . S
C497 C492 1.499 . S
C497 H498 0.959 . S
C497 H499 0.970 . S
C497 H500 0.961 . S
H498 C497 0.959 . S
H499 C497 0.970 . S
H500 C497 0.961 . S
O501 Co476 1.967 . S
O501 C509 1.258 . S
O502 Co477 1.941 . S
O502 C509 1.266 . S
H503 C505 0.959 . S
H504 C505 0.961 . S
C505 C495 1.510 . S
C505 H503 0.959 . S
C505 H504 0.961 . S
C505 H506 0.960 . S
H506 C505 0.960 . S
H507 N487 0.862 1_545 S
O508 Co476 1.920 . S
O508 C481 1.289 1_455 S
C509 O501 1.258 . S
C509 O502 1.266 . S
Co510 O513 1.970 . S
Co510 N527 1.989 . S
Co510 O535 1.967 . S
Co510 O542 1.920 . S
Co511 O514 1.966 . S
Co511 N520 2.022 . S
Co511 N528 1.993 . S
Co511 O536 1.941 . S
C512 O513 1.258 . S
C512 O514 1.263 . S
O513 Co510 1.970 . S
O513 C512 1.258 . S
O514 Co511 1.966 . S
O514 C512 1.263 . S
C515 O516 1.235 . S
C515 O542 1.289 . S
O516 C515 1.235 . S
C517 C519 1.400 . S
C517 N520 1.351 . S
C517 C522 1.501 . S
C518 C519 1.387 . S
C518 N521 1.341 . S
C519 C517 1.400 . S
C519 C518 1.387 . S
N520 Co511 2.022 . S
N520 C517 1.351 . S
N520 N521 1.365 . S
N521 C518 1.341 . S
N521 N520 1.365 . S
N521 H541 0.862 . S
C522 C517 1.501 . S
C522 H523 0.961 . S
C522 H524 0.961 . S
C522 H525 0.960 . S
H523 C522 0.961 . S
H524 C522 0.961 . S
H525 C522 0.960 . S
C526 N527 1.342 . S
C526 C530 1.401 . S
C526 C531 1.499 . S
N527 Co510 1.989 . S
N527 C526 1.342 . S
N527 N528 1.388 . S
N528 Co511 1.993 . S
N528 N527 1.388 . S
N528 C529 1.346 . S
C529 N528 1.346 . S
C529 C530 1.396 . S
C529 C539 1.510 . S
C530 C526 1.401 . S
C530 C529 1.396 . S
C531 C526 1.499 . S
C531 H532 0.959 . S
C531 H533 0.960 . S
C531 H534 0.961 . S
H532 C531 0.959 . S
H533 C531 0.960 . S
H534 C531 0.961 . S
O535 Co510 1.967 . S
O535 C543 1.258 . S
O536 Co511 1.941 . S
O536 C543 1.266 . S
H537 C539 0.959 . S
H538 C539 0.961 . S
C539 C529 1.510 . S
C539 H537 0.959 . S
C539 H538 0.961 . S
C539 H540 0.960 . S
H540 C539 0.960 . S
H541 N521 0.862 . S
O542 Co510 1.920 . S
O542 C515 1.289 . S
C543 O535 1.258 . S
C543 O536 1.266 . S
Co544 O547 1.970 . S
Co544 N561 1.989 . S
Co544 O569 1.967 . S
Co544 O576 1.920 . S
Co545 O548 1.966 . S
Co545 N554 2.022 1_554 S
Co545 N562 1.987 1_554 S
Co545 O570 1.941 . S
C546 O547 1.258 . S
C546 O548 1.263 . S
O547 Co544 1.970 . S
O547 C546 1.258 . S
O548 Co545 1.966 . S
O548 C546 1.263 . S
C549 O550 1.235 . S
C549 O576 1.289 . S
O550 C549 1.235 . S
C551 C553 1.400 . S
C551 N554 1.351 . S
C551 C556 1.501 . S
C552 C553 1.387 . S
C552 N555 1.341 . S
C553 C551 1.400 . S
C553 C552 1.387 . S
N554 Co545 2.022 1_556 S
N554 C551 1.351 . S
N554 N555 1.365 . S
N555 C552 1.341 . S
N555 N554 1.365 . S
N555 H575 0.862 1_556 S
C556 C551 1.501 . S
C556 H557 0.961 . S
C556 H558 0.961 . S
C556 H559 0.960 . S
H557 C556 0.961 . S
H558 C556 0.961 . S
H559 C556 0.960 . S
C560 N561 1.342 . S
C560 C564 1.401 1_554 S
C560 C565 1.499 . S
N561 Co544 1.989 . S
N561 C560 1.342 . S
N561 N562 1.380 1_554 S
N562 Co545 1.987 1_556 S
N562 N561 1.380 1_556 S
N562 C563 1.356 . S
C563 N562 1.356 . S
C563 C564 1.396 . S
C563 C573 1.510 . S
C564 C560 1.401 1_556 S
C564 C563 1.396 . S
C565 C560 1.499 . S
C565 H566 0.959 . S
C565 H567 0.970 . S
C565 H568 0.961 . S
H566 C565 0.959 . S
H567 C565 0.970 . S
H568 C565 0.961 . S
O569 Co544 1.967 . S
O569 C577 1.258 . S
O570 Co545 1.941 . S
O570 C577 1.266 . S
H571 C573 0.959 . S
H572 C573 0.961 . S
C573 C563 1.510 . S
C573 H571 0.959 . S
C573 H572 0.961 . S
C573 H574 0.960 . S
H574 C573 0.960 . S
H575 N555 0.862 1_554 S
O576 Co544 1.920 . S
O576 C549 1.289 . S
C577 O569 1.258 . S
C577 O570 1.266 . S
Co578 O581 1.970 . S
Co578 N595 1.989 . S
Co578 O603 1.967 . S
Co578 O610 1.920 . S
Co579 O582 1.966 . S
Co579 N588 2.022 1_556 S
Co579 N596 1.987 1_556 S
Co579 O604 1.941 . S
C580 O581 1.258 . S
C580 O582 1.263 . S
O581 Co578 1.970 . S
O581 C580 1.258 . S
O582 Co579 1.966 . S
O582 C580 1.263 . S
C583 O584 1.235 . S
C583 O610 1.289 1_565 S
O584 C583 1.235 . S
C585 C587 1.400 . S
C585 N588 1.351 . S
C585 C590 1.501 . S
C586 C587 1.387 . S
C586 N589 1.341 . S
C587 C585 1.400 . S
C587 C586 1.387 . S
N588 Co579 2.022 1_554 S
N588 C585 1.351 . S
N588 N589 1.365 . S
N589 C586 1.341 . S
N589 N588 1.365 . S
N589 H609 0.862 1_554 S
C590 C585 1.501 . S
C590 H591 0.961 . S
C590 H592 0.961 . S
C590 H593 0.960 . S
H591 C590 0.961 . S
H592 C590 0.961 . S
H593 C590 0.960 . S
C594 N595 1.342 . S
C594 C598 1.401 1_556 S
C594 C599 1.499 . S
N595 Co578 1.989 . S
N595 C594 1.342 . S
N595 N596 1.380 1_556 S
N596 Co579 1.987 1_554 S
N596 N595 1.380 1_554 S
N596 C597 1.356 . S
C597 N596 1.356 . S
C597 C598 1.396 . S
C597 C607 1.510 . S
C598 C594 1.401 1_554 S
C598 C597 1.396 . S
C599 C594 1.499 . S
C599 H600 0.959 . S
C599 H601 0.970 . S
C599 H602 0.961 . S
H600 C599 0.959 . S
H601 C599 0.970 . S
H602 C599 0.961 . S
O603 Co578 1.967 . S
O603 C611 1.258 . S
O604 Co579 1.941 . S
O604 C611 1.266 . S
H605 C607 0.959 . S
H606 C607 0.961 . S
C607 C597 1.510 . S
C607 H605 0.959 . S
C607 H606 0.961 . S
C607 H608 0.960 . S
H608 C607 0.960 . S
H609 N589 0.862 1_556 S
O610 Co578 1.920 . S
O610 C583 1.289 1_545 S
C611 O603 1.258 . S
C611 O604 1.266 . S
Co612 O615 1.970 . S
Co612 N629 1.989 . S
Co612 O637 1.967 . S
Co612 O644 1.920 . S
Co613 O616 1.966 . S
Co613 N622 2.022 . S
Co613 N630 1.993 . S
Co613 O638 1.941 . S
C614 O615 1.258 . S
C614 O616 1.263 . S
O615 Co612 1.970 . S
O615 C614 1.258 . S
O616 Co613 1.966 . S
O616 C614 1.263 . S
C617 O618 1.235 . S
C617 O644 1.289 . S
O618 C617 1.235 . S
C619 C621 1.400 . S
C619 N622 1.351 . S
C619 C624 1.501 . S
C620 C621 1.387 . S
C620 N623 1.341 . S
C621 C619 1.400 . S
C621 C620 1.387 . S
N622 Co613 2.022 . S
N622 C619 1.351 . S
N622 N623 1.365 . S
N623 C620 1.341 . S
N623 N622 1.365 . S
N623 H643 0.862 . S
C624 C619 1.501 . S
C624 H625 0.961 . S
C624 H626 0.961 . S
C624 H627 0.960 . S
H625 C624 0.961 . S
H626 C624 0.961 . S
H627 C624 0.960 . S
C628 N629 1.342 . S
C628 C632 1.401 . S
C628 C633 1.499 . S
N629 Co612 1.989 . S
N629 C628 1.342 . S
N629 N630 1.388 . S
N630 Co613 1.993 . S
N630 N629 1.388 . S
N630 C631 1.346 . S
C631 N630 1.346 . S
C631 C632 1.396 . S
C631 C641 1.510 . S
C632 C628 1.401 . S
C632 C631 1.396 . S
C633 C628 1.499 . S
C633 H634 0.959 . S
C633 H635 0.960 . S
C633 H636 0.961 . S
H634 C633 0.959 . S
H635 C633 0.960 . S
H636 C633 0.961 . S
O637 Co612 1.967 . S
O637 C645 1.258 . S
O638 Co613 1.941 . S
O638 C645 1.266 . S
H639 C641 0.959 . S
H640 C641 0.961 . S
C641 C631 1.510 . S
C641 H639 0.959 . S
C641 H640 0.961 . S
C641 H642 0.960 . S
H642 C641 0.960 . S
H643 N623 0.862 . S
O644 Co612 1.920 . S
O644 C617 1.289 . S
C645 O637 1.258 . S
C645 O638 1.266 . S
Co646 O649 1.970 . S
Co646 N663 1.989 . S
Co646 O671 1.967 . S
Co646 O678 1.920 . S
Co647 O650 1.966 . S
Co647 N656 2.022 . S
Co647 N664 1.993 . S
Co647 O672 1.941 . S
C648 O649 1.258 . S
C648 O650 1.263 . S
O649 Co646 1.970 . S
O649 C648 1.258 . S
O650 Co647 1.966 . S
O650 C648 1.263 . S
C651 O652 1.235 . S
C651 O678 1.289 1_545 S
O652 C651 1.235 . S
C653 C655 1.400 . S
C653 N656 1.351 . S
C653 C658 1.501 . S
C654 C655 1.387 . S
C654 N657 1.341 . S
C655 C653 1.400 . S
C655 C654 1.387 . S
N656 Co647 2.022 . S
N656 C653 1.351 . S
N656 N657 1.365 . S
N657 C654 1.341 . S
N657 N656 1.365 . S
N657 H677 0.862 . S
C658 C653 1.501 . S
C658 H659 0.961 . S
C658 H660 0.961 . S
C658 H661 0.960 . S
H659 C658 0.961 . S
H660 C658 0.961 . S
H661 C658 0.960 . S
C662 N663 1.342 . S
C662 C666 1.401 . S
C662 C667 1.499 . S
N663 Co646 1.989 . S
N663 C662 1.342 . S
N663 N664 1.388 . S
N664 Co647 1.993 . S
N664 N663 1.388 . S
N664 C665 1.346 . S
C665 N664 1.346 . S
C665 C666 1.396 . S
C665 C675 1.510 . S
C666 C662 1.401 . S
C666 C665 1.396 . S
C667 C662 1.499 . S
C667 H668 0.959 . S
C667 H669 0.960 . S
C667 H670 0.961 . S
H668 C667 0.959 . S
H669 C667 0.960 . S
H670 C667 0.961 . S
O671 Co646 1.967 . S
O671 C679 1.258 . S
O672 Co647 1.941 . S
O672 C679 1.266 . S
H673 C675 0.959 . S
H674 C675 0.961 . S
C675 C665 1.510 . S
C675 H673 0.959 . S
C675 H674 0.961 . S
C675 H676 0.960 . S
H676 C675 0.960 . S
H677 N657 0.862 . S
O678 Co646 1.920 . S
O678 C651 1.289 1_565 S
C679 O671 1.258 . S
C679 O672 1.266 . S
Co680 O683 1.970 . S
Co680 N697 1.989 . S
Co680 O705 1.967 . S
Co680 O712 1.920 . S
Co681 O684 1.966 . S
Co681 N690 2.022 . S
Co681 N698 1.993 . S
Co681 O706 1.941 . S
C682 O683 1.258 . S
C682 O684 1.263 . S
O683 Co680 1.970 . S
O683 C682 1.258 . S
O684 Co681 1.966 . S
O684 C682 1.263 . S
C685 O686 1.235 . S
C685 O712 1.289 . S
O686 C685 1.235 . S
C687 C689 1.400 . S
C687 N690 1.351 . S
C687 C692 1.501 . S
C688 C689 1.387 . S
C688 N691 1.341 . S
C689 C687 1.400 . S
C689 C688 1.387 . S
N690 Co681 2.022 . S
N690 C687 1.351 . S
N690 N691 1.365 . S
N691 C688 1.341 . S
N691 N690 1.365 . S
N691 H711 0.862 . S
C692 C687 1.501 . S
C692 H693 0.961 . S
C692 H694 0.961 . S
C692 H695 0.960 . S
H693 C692 0.961 . S
H694 C692 0.961 . S
H695 C692 0.960 . S
C696 N697 1.342 . S
C696 C700 1.401 . S
C696 C701 1.499 . S
N697 Co680 1.989 . S
N697 C696 1.342 . S
N697 N698 1.388 . S
N698 Co681 1.993 . S
N698 N697 1.388 . S
N698 C699 1.346 . S
C699 N698 1.346 . S
C699 C700 1.396 . S
C699 C709 1.510 . S
C700 C696 1.401 . S
C700 C699 1.396 . S
C701 C696 1.499 . S
C701 H702 0.959 . S
C701 H703 0.960 . S
C701 H704 0.961 . S
H702 C701 0.959 . S
H703 C701 0.960 . S
H704 C701 0.961 . S
O705 Co680 1.967 . S
O705 C713 1.258 . S
O706 Co681 1.941 . S
O706 C713 1.266 . S
H707 C709 0.959 . S
H708 C709 0.961 . S
C709 C699 1.510 . S
C709 H707 0.959 . S
C709 H708 0.961 . S
C709 H710 0.960 . S
H710 C709 0.960 . S
H711 N691 0.862 . S
O712 Co680 1.920 . S
O712 C685 1.289 . S
C713 O705 1.258 . S
C713 O706 1.266 . S
Co714 O717 1.970 . S
Co714 N731 1.989 . S
Co714 O739 1.967 . S
Co714 O746 1.920 . S
Co715 O718 1.966 . S
Co715 N724 2.022 . S
Co715 N732 1.993 . S
Co715 O740 1.941 . S
C716 O717 1.258 . S
C716 O718 1.263 . S
O717 Co714 1.970 . S
O717 C716 1.258 . S
O718 Co715 1.966 . S
O718 C716 1.263 . S
C719 O720 1.235 . S
C719 O746 1.289 . S
O720 C719 1.235 . S
C721 C723 1.400 . S
C721 N724 1.351 . S
C721 C726 1.501 . S
C722 C723 1.387 . S
C722 N725 1.341 . S
C723 C721 1.400 . S
C723 C722 1.387 . S
N724 Co715 2.022 . S
N724 C721 1.351 . S
N724 N725 1.365 . S
N725 C722 1.341 . S
N725 N724 1.365 . S
N725 H745 0.862 . S
C726 C721 1.501 . S
C726 H727 0.961 . S
C726 H728 0.961 . S
C726 H729 0.960 . S
H727 C726 0.961 . S
H728 C726 0.961 . S
H729 C726 0.960 . S
C730 N731 1.342 . S
C730 C734 1.401 . S
C730 C735 1.499 . S
N731 Co714 1.989 . S
N731 C730 1.342 . S
N731 N732 1.388 . S
N732 Co715 1.993 . S
N732 N731 1.388 . S
N732 C733 1.346 . S
C733 N732 1.346 . S
C733 C734 1.396 . S
C733 C743 1.510 . S
C734 C730 1.401 . S
C734 C733 1.396 . S
C735 C730 1.499 . S
C735 H736 0.959 . S
C735 H737 0.960 . S
C735 H738 0.961 . S
H736 C735 0.959 . S
H737 C735 0.960 . S
H738 C735 0.961 . S
O739 Co714 1.967 . S
O739 C747 1.258 . S
O740 Co715 1.941 . S
O740 C747 1.266 . S
H741 C743 0.959 . S
H742 C743 0.961 . S
C743 C733 1.510 . S
C743 H741 0.959 . S
C743 H742 0.961 . S
C743 H744 0.960 . S
H744 C743 0.960 . S
H745 N725 0.862 . S
O746 Co714 1.920 . S
O746 C719 1.289 . S
C747 O739 1.258 . S
C747 O740 1.266 . S
Co748 O751 1.970 . S
Co748 N765 1.989 . S
Co748 O773 1.967 . S
Co748 O780 1.920 . S
Co749 O752 1.966 . S
Co749 N758 2.022 . S
Co749 N766 1.993 . S
Co749 O774 1.941 . S
C750 O751 1.258 . S
C750 O752 1.263 . S
O751 Co748 1.970 . S
O751 C750 1.258 . S
O752 Co749 1.966 . S
O752 C750 1.263 . S
C753 O754 1.235 . S
C753 O780 1.289 . S
O754 C753 1.235 . S
C755 C757 1.400 . S
C755 N758 1.351 . S
C755 C760 1.501 . S
C756 C757 1.387 . S
C756 N759 1.341 . S
C757 C755 1.400 . S
C757 C756 1.387 . S
N758 Co749 2.022 . S
N758 C755 1.351 . S
N758 N759 1.365 . S
N759 C756 1.341 . S
N759 N758 1.365 . S
N759 H779 0.862 . S
C760 C755 1.501 . S
C760 H761 0.961 . S
C760 H762 0.961 . S
C760 H763 0.960 . S
H761 C760 0.961 . S
H762 C760 0.961 . S
H763 C760 0.960 . S
C764 N765 1.342 . S
C764 C768 1.401 . S
C764 C769 1.499 . S
N765 Co748 1.989 . S
N765 C764 1.342 . S
N765 N766 1.388 . S
N766 Co749 1.993 . S
N766 N765 1.388 . S
N766 C767 1.346 . S
C767 N766 1.346 . S
C767 C768 1.396 . S
C767 C777 1.510 . S
C768 C764 1.401 . S
C768 C767 1.396 . S
C769 C764 1.499 . S
C769 H770 0.959 . S
C769 H771 0.960 . S
C769 H772 0.961 . S
H770 C769 0.959 . S
H771 C769 0.960 . S
H772 C769 0.961 . S
O773 Co748 1.967 . S
O773 C781 1.258 . S
O774 Co749 1.941 . S
O774 C781 1.266 . S
H775 C777 0.959 . S
H776 C777 0.961 . S
C777 C767 1.510 . S
C777 H775 0.959 . S
C777 H776 0.961 . S
C777 H778 0.960 . S
H778 C777 0.960 . S
H779 N759 0.862 . S
O780 Co748 1.920 . S
O780 C753 1.289 . S
C781 O773 1.258 . S
C781 O774 1.266 . S
Co782 O785 1.970 . S
Co782 N799 1.989 . S
Co782 O807 1.967 . S
Co782 O814 1.920 . S
Co783 O786 1.966 . S
Co783 N792 2.022 . S
Co783 N800 1.993 . S
Co783 O808 1.941 . S
C784 O785 1.258 . S
C784 O786 1.263 . S
O785 Co782 1.970 . S
O785 C784 1.258 . S
O786 Co783 1.966 . S
O786 C784 1.263 . S
C787 O788 1.235 . S
C787 O814 1.289 . S
O788 C787 1.235 . S
C789 C791 1.400 . S
C789 N792 1.351 . S
C789 C794 1.501 . S
C790 C791 1.387 . S
C790 N793 1.341 . S
C791 C789 1.400 . S
C791 C790 1.387 . S
N792 Co783 2.022 . S
N792 C789 1.351 . S
N792 N793 1.365 . S
N793 C790 1.341 . S
N793 N792 1.365 . S
N793 H813 0.862 . S
C794 C789 1.501 . S
C794 H795 0.961 . S
C794 H796 0.961 . S
C794 H797 0.960 . S
H795 C794 0.961 . S
H796 C794 0.961 . S
H797 C794 0.960 . S
C798 N799 1.342 . S
C798 C802 1.401 . S
C798 C803 1.499 . S
N799 Co782 1.989 . S
N799 C798 1.342 . S
N799 N800 1.388 . S
N800 Co783 1.993 . S
N800 N799 1.388 . S
N800 C801 1.346 . S
C801 N800 1.346 . S
C801 C802 1.396 . S
C801 C811 1.510 . S
C802 C798 1.401 . S
C802 C801 1.396 . S
C803 C798 1.499 . S
C803 H804 0.959 . S
C803 H805 0.960 . S
C803 H806 0.961 . S
H804 C803 0.959 . S
H805 C803 0.960 . S
H806 C803 0.961 . S
O807 Co782 1.967 . S
O807 C815 1.258 . S
O808 Co783 1.941 . S
O808 C815 1.266 . S
H809 C811 0.959 . S
H810 C811 0.961 . S
C811 C801 1.510 . S
C811 H809 0.959 . S
C811 H810 0.961 . S
C811 H812 0.960 . S
H812 C811 0.960 . S
H813 N793 0.862 . S
O814 Co782 1.920 . S
O814 C787 1.289 . S
C815 O807 1.258 . S
C815 O808 1.266 . S
Co816 O819 1.970 . S
Co816 N833 1.989 . S
Co816 O841 1.967 . S
Co816 O848 1.920 . S
Co817 O820 1.966 . S
Co817 N826 2.022 . S
Co817 N834 1.993 . S
Co817 O842 1.941 . S
C818 O819 1.258 . S
C818 O820 1.263 . S
O819 Co816 1.970 . S
O819 C818 1.258 . S
O820 Co817 1.966 . S
O820 C818 1.263 . S
C821 O822 1.235 . S
C821 O848 1.289 1_554 S
O822 C821 1.235 . S
C823 C825 1.400 . S
C823 N826 1.351 . S
C823 C828 1.501 . S
C824 C825 1.387 . S
C824 N827 1.341 . S
C825 C823 1.400 . S
C825 C824 1.387 . S
N826 Co817 2.022 . S
N826 C823 1.351 . S
N826 N827 1.365 . S
N827 C824 1.341 . S
N827 N826 1.365 . S
N827 H847 0.862 . S
C828 C823 1.501 . S
C828 H829 0.961 . S
C828 H830 0.961 . S
C828 H831 0.960 . S
H829 C828 0.961 . S
H830 C828 0.961 . S
H831 C828 0.960 . S
C832 N833 1.342 . S
C832 C836 1.401 . S
C832 C837 1.499 . S
N833 Co816 1.989 . S
N833 C832 1.342 . S
N833 N834 1.388 . S
N834 Co817 1.993 . S
N834 N833 1.388 . S
N834 C835 1.346 . S
C835 N834 1.346 . S
C835 C836 1.396 . S
C835 C845 1.510 . S
C836 C832 1.401 . S
C836 C835 1.396 . S
C837 C832 1.499 . S
C837 H838 0.959 . S
C837 H839 0.960 . S
C837 H840 0.961 . S
H838 C837 0.959 . S
H839 C837 0.960 . S
H840 C837 0.961 . S
O841 Co816 1.967 . S
O841 C849 1.258 . S
O842 Co817 1.941 . S
O842 C849 1.266 . S
H843 C845 0.959 . S
H844 C845 0.961 . S
C845 C835 1.510 . S
C845 H843 0.959 . S
C845 H844 0.961 . S
C845 H846 0.960 . S
H846 C845 0.960 . S
H847 N827 0.862 . S
O848 Co816 1.920 . S
O848 C821 1.289 1_556 S
C849 O841 1.258 . S
C849 O842 1.266 . S
Co850 O853 1.970 . S
Co850 N867 1.989 . S
Co850 O875 1.967 . S
Co850 O882 1.920 . S
Co851 O854 1.966 . S
Co851 N860 2.022 . S
Co851 N868 1.993 . S
Co851 O876 1.941 . S
C852 O853 1.258 . S
C852 O854 1.263 . S
O853 Co850 1.970 . S
O853 C852 1.258 . S
O854 Co851 1.966 . S
O854 C852 1.263 . S
C855 O856 1.235 . S
C855 O882 1.289 . S
O856 C855 1.235 . S
C857 C859 1.400 . S
C857 N860 1.351 . S
C857 C862 1.501 . S
C858 C859 1.387 . S
C858 N861 1.341 . S
C859 C857 1.400 . S
C859 C858 1.387 . S
N860 Co851 2.022 . S
N860 C857 1.351 . S
N860 N861 1.365 . S
N861 C858 1.341 . S
N861 N860 1.365 . S
N861 H881 0.862 . S
C862 C857 1.501 . S
C862 H863 0.961 . S
C862 H864 0.961 . S
C862 H865 0.960 . S
H863 C862 0.961 . S
H864 C862 0.961 . S
H865 C862 0.960 . S
C866 N867 1.342 . S
C866 C870 1.401 . S
C866 C871 1.499 . S
N867 Co850 1.989 . S
N867 C866 1.342 . S
N867 N868 1.388 . S
N868 Co851 1.993 . S
N868 N867 1.388 . S
N868 C869 1.346 . S
C869 N868 1.346 . S
C869 C870 1.396 . S
C869 C879 1.510 . S
C870 C866 1.401 . S
C870 C869 1.396 . S
C871 C866 1.499 . S
C871 H872 0.959 . S
C871 H873 0.960 . S
C871 H874 0.961 . S
H872 C871 0.959 . S
H873 C871 0.960 . S
H874 C871 0.961 . S
O875 Co850 1.967 . S
O875 C883 1.258 . S
O876 Co851 1.941 . S
O876 C883 1.266 . S
H877 C879 0.959 . S
H878 C879 0.961 . S
C879 C869 1.510 . S
C879 H877 0.959 . S
C879 H878 0.961 . S
C879 H880 0.960 . S
H880 C879 0.960 . S
H881 N861 0.862 . S
O882 Co850 1.920 . S
O882 C855 1.289 . S
C883 O875 1.258 . S
C883 O876 1.266 . S
Co884 O887 1.970 . S
Co884 N901 1.989 . S
Co884 O909 1.967 . S
Co884 O916 1.920 . S
Co885 O888 1.966 . S
Co885 N894 2.022 1_655 S
Co885 N902 1.987 1_655 S
Co885 O910 1.941 . S
C886 O887 1.258 . S
C886 O888 1.263 . S
O887 Co884 1.970 . S
O887 C886 1.258 . S
O888 Co885 1.966 . S
O888 C886 1.263 . S
C889 O890 1.235 . S
C889 O916 1.289 . S
O890 C889 1.235 . S
C891 C893 1.400 . S
C891 N894 1.351 . S
C891 C896 1.501 . S
C892 C893 1.387 . S
C892 N895 1.341 . S
C893 C891 1.400 . S
C893 C892 1.387 . S
N894 Co885 2.022 1_455 S
N894 C891 1.351 . S
N894 N895 1.365 . S
N895 C892 1.341 . S
N895 N894 1.365 . S
N895 H915 0.862 1_455 S
C896 C891 1.501 . S
C896 H897 0.961 . S
C896 H898 0.961 . S
C896 H899 0.960 . S
H897 C896 0.961 . S
H898 C896 0.961 . S
H899 C896 0.960 . S
C900 N901 1.342 . S
C900 C904 1.401 1_655 S
C900 C905 1.499 . S
N901 Co884 1.989 . S
N901 C900 1.342 . S
N901 N902 1.380 1_655 S
N902 Co885 1.987 1_455 S
N902 N901 1.380 1_455 S
N902 C903 1.356 . S
C903 N902 1.356 . S
C903 C904 1.396 . S
C903 C913 1.510 . S
C904 C900 1.401 1_455 S
C904 C903 1.396 . S
C905 C900 1.499 . S
C905 H906 0.959 . S
C905 H907 0.970 . S
C905 H908 0.961 . S
H906 C905 0.959 . S
H907 C905 0.970 . S
H908 C905 0.961 . S
O909 Co884 1.967 . S
O909 C917 1.258 . S
O910 Co885 1.941 . S
O910 C917 1.266 . S
H911 C913 0.959 . S
H912 C913 0.961 . S
C913 C903 1.510 . S
C913 H911 0.959 . S
C913 H912 0.961 . S
C913 H914 0.960 . S
H914 C913 0.960 . S
H915 N895 0.862 1_655 S
O916 Co884 1.920 . S
O916 C889 1.289 . S
C917 O909 1.258 . S
C917 O910 1.266 . S
Co918 O921 1.970 . S
Co918 N935 1.989 . S
Co918 O943 1.967 . S
Co918 O950 1.920 . S
Co919 O922 1.966 . S
Co919 N928 2.022 . S
Co919 N936 1.993 . S
Co919 O944 1.941 . S
C920 O921 1.258 . S
C920 O922 1.263 . S
O921 Co918 1.970 . S
O921 C920 1.258 . S
O922 Co919 1.966 . S
O922 C920 1.263 . S
C923 O924 1.235 . S
C923 O950 1.289 . S
O924 C923 1.235 . S
C925 C927 1.400 . S
C925 N928 1.351 . S
C925 C930 1.501 . S
C926 C927 1.387 . S
C926 N929 1.341 . S
C927 C925 1.400 . S
C927 C926 1.387 . S
N928 Co919 2.022 . S
N928 C925 1.351 . S
N928 N929 1.365 . S
N929 C926 1.341 . S
N929 N928 1.365 . S
N929 H949 0.862 . S
C930 C925 1.501 . S
C930 H931 0.961 . S
C930 H932 0.961 . S
C930 H933 0.960 . S
H931 C930 0.961 . S
H932 C930 0.961 . S
H933 C930 0.960 . S
C934 N935 1.342 . S
C934 C938 1.401 . S
C934 C939 1.499 . S
N935 Co918 1.989 . S
N935 C934 1.342 . S
N935 N936 1.388 . S
N936 Co919 1.993 . S
N936 N935 1.388 . S
N936 C937 1.346 . S
C937 N936 1.346 . S
C937 C938 1.396 . S
C937 C947 1.510 . S
C938 C934 1.401 . S
C938 C937 1.396 . S
C939 C934 1.499 . S
C939 H940 0.959 . S
C939 H941 0.960 . S
C939 H942 0.961 . S
H940 C939 0.959 . S
H941 C939 0.960 . S
H942 C939 0.961 . S
O943 Co918 1.967 . S
O943 C951 1.258 . S
O944 Co919 1.941 . S
O944 C951 1.266 . S
H945 C947 0.959 . S
H946 C947 0.961 . S
C947 C937 1.510 . S
C947 H945 0.959 . S
C947 H946 0.961 . S
C947 H948 0.960 . S
H948 C947 0.960 . S
H949 N929 0.862 . S
O950 Co918 1.920 . S
O950 C923 1.289 . S
C951 O943 1.258 . S
C951 O944 1.266 . S
Co952 O955 1.970 . S
Co952 N969 1.989 . S
Co952 O977 1.967 . S
Co952 O984 1.920 . S
Co953 O956 1.966 . S
Co953 N962 2.022 . S
Co953 N970 1.993 . S
Co953 O978 1.941 . S
C954 O955 1.258 . S
C954 O956 1.263 . S
O955 Co952 1.970 . S
O955 C954 1.258 . S
O956 Co953 1.966 . S
O956 C954 1.263 . S
C957 O958 1.235 . S
C957 O984 1.289 . S
O958 C957 1.235 . S
C959 C961 1.400 . S
C959 N962 1.351 . S
C959 C964 1.501 . S
C960 C961 1.387 . S
C960 N963 1.341 . S
C961 C959 1.400 . S
C961 C960 1.387 . S
N962 Co953 2.022 . S
N962 C959 1.351 . S
N962 N963 1.365 . S
N963 C960 1.341 . S
N963 N962 1.365 . S
N963 H983 0.862 . S
C964 C959 1.501 . S
C964 H965 0.961 . S
C964 H966 0.961 . S
C964 H967 0.960 . S
H965 C964 0.961 . S
H966 C964 0.961 . S
H967 C964 0.960 . S
C968 N969 1.342 . S
C968 C972 1.401 . S
C968 C973 1.499 . S
N969 Co952 1.989 . S
N969 C968 1.342 . S
N969 N970 1.388 . S
N970 Co953 1.993 . S
N970 N969 1.388 . S
N970 C971 1.346 . S
C971 N970 1.346 . S
C971 C972 1.396 . S
C971 C981 1.510 . S
C972 C968 1.401 . S
C972 C971 1.396 . S
C973 C968 1.499 . S
C973 H974 0.959 . S
C973 H975 0.960 . S
C973 H976 0.961 . S
H974 C973 0.959 . S
H975 C973 0.960 . S
H976 C973 0.961 . S
O977 Co952 1.967 . S
O977 C985 1.258 . S
O978 Co953 1.941 . S
O978 C985 1.266 . S
H979 C981 0.959 . S
H980 C981 0.961 . S
C981 C971 1.510 . S
C981 H979 0.959 . S
C981 H980 0.961 . S
C981 H982 0.960 . S
H982 C981 0.960 . S
H983 N963 0.862 . S
O984 Co952 1.920 . S
O984 C957 1.289 . S
C985 O977 1.258 . S
C985 O978 1.266 . S
Co986 O989 1.970 . S
Co986 N1003 1.989 . S
Co986 O1011 1.967 . S
Co986 O1018 1.920 . S
Co987 O990 1.966 . S
Co987 N996 2.022 . S
Co987 N1004 1.993 . S
Co987 O1012 1.941 . S
C988 O989 1.258 . S
C988 O990 1.263 . S
O989 Co986 1.970 . S
O989 C988 1.258 . S
O990 Co987 1.966 . S
O990 C988 1.263 . S
C991 O992 1.235 . S
C991 O1018 1.289 . S
O992 C991 1.235 . S
C993 C995 1.400 . S
C993 N996 1.351 . S
C993 C998 1.501 . S
C994 C995 1.387 . S
C994 N997 1.341 . S
C995 C993 1.400 . S
C995 C994 1.387 . S
N996 Co987 2.022 . S
N996 C993 1.351 . S
N996 N997 1.365 . S
N997 C994 1.341 . S
N997 N996 1.365 . S
N997 H1017 0.862 . S
C998 C993 1.501 . S
C998 H999 0.961 . S
C998 H1000 0.961 . S
C998 H1001 0.960 . S
H999 C998 0.961 . S
H1000 C998 0.961 . S
H1001 C998 0.960 . S
C1002 N1003 1.342 . S
C1002 C1006 1.401 . S
C1002 C1007 1.499 . S
N1003 Co986 1.989 . S
N1003 C1002 1.342 . S
N1003 N1004 1.388 . S
N1004 Co987 1.993 . S
N1004 N1003 1.388 . S
N1004 C1005 1.346 . S
C1005 N1004 1.346 . S
C1005 C1006 1.396 . S
C1005 C1015 1.510 . S
C1006 C1002 1.401 . S
C1006 C1005 1.396 . S
C1007 C1002 1.499 . S
C1007 H1008 0.959 . S
C1007 H1009 0.960 . S
C1007 H1010 0.961 . S
H1008 C1007 0.959 . S
H1009 C1007 0.960 . S
H1010 C1007 0.961 . S
O1011 Co986 1.967 . S
O1011 C1019 1.258 . S
O1012 Co987 1.941 . S
O1012 C1019 1.266 . S
H1013 C1015 0.959 . S
H1014 C1015 0.961 . S
C1015 C1005 1.510 . S
C1015 H1013 0.959 . S
C1015 H1014 0.961 . S
C1015 H1016 0.960 . S
H1016 C1015 0.960 . S
H1017 N997 0.862 . S
O1018 Co986 1.920 . S
O1018 C991 1.289 . S
C1019 O1011 1.258 . S
C1019 O1012 1.266 . S
Co1020 O1023 1.970 . S
Co1020 N1037 1.989 . S
Co1020 O1045 1.967 . S
Co1020 O1052 1.920 . S
Co1021 O1024 1.966 . S
Co1021 N1030 2.022 1_655 S
Co1021 N1038 1.987 1_655 S
Co1021 O1046 1.941 . S
C1022 O1023 1.258 . S
C1022 O1024 1.263 . S
O1023 Co1020 1.970 . S
O1023 C1022 1.258 . S
O1024 Co1021 1.966 . S
O1024 C1022 1.263 . S
C1025 O1026 1.235 . S
C1025 O1052 1.289 1_556 S
O1026 C1025 1.235 . S
C1027 C1029 1.400 . S
C1027 N1030 1.351 . S
C1027 C1032 1.501 . S
C1028 C1029 1.387 . S
C1028 N1031 1.341 . S
C1029 C1027 1.400 . S
C1029 C1028 1.387 . S
N1030 Co1021 2.022 1_455 S
N1030 C1027 1.351 . S
N1030 N1031 1.365 . S
N1031 C1028 1.341 . S
N1031 N1030 1.365 . S
N1031 H1051 0.862 1_455 S
C1032 C1027 1.501 . S
C1032 H1033 0.961 . S
C1032 H1034 0.961 . S
C1032 H1035 0.960 . S
H1033 C1032 0.961 . S
H1034 C1032 0.961 . S
H1035 C1032 0.960 . S
C1036 N1037 1.342 . S
C1036 C1040 1.401 1_655 S
C1036 C1041 1.499 . S
N1037 Co1020 1.989 . S
N1037 C1036 1.342 . S
N1037 N1038 1.380 1_655 S
N1038 Co1021 1.987 1_455 S
N1038 N1037 1.380 1_455 S
N1038 C1039 1.356 . S
C1039 N1038 1.356 . S
C1039 C1040 1.396 . S
C1039 C1049 1.510 . S
C1040 C1036 1.401 1_455 S
C1040 C1039 1.396 . S
C1041 C1036 1.499 . S
C1041 H1042 0.959 . S
C1041 H1043 0.970 . S
C1041 H1044 0.961 . S
H1042 C1041 0.959 . S
H1043 C1041 0.970 . S
H1044 C1041 0.961 . S
O1045 Co1020 1.967 . S
O1045 C1053 1.258 . S
O1046 Co1021 1.941 . S
O1046 C1053 1.266 . S
H1047 C1049 0.959 . S
H1048 C1049 0.961 . S
C1049 C1039 1.510 . S
C1049 H1047 0.959 . S
C1049 H1048 0.961 . S
C1049 H1050 0.960 . S
H1050 C1049 0.960 . S
H1051 N1031 0.862 1_655 S
O1052 Co1020 1.920 . S
O1052 C1025 1.289 1_554 S
C1053 O1045 1.258 . S
C1053 O1046 1.266 . S
Co1054 O1057 1.970 . S
Co1054 N1071 1.989 . S
Co1054 O1079 1.967 . S
Co1054 O1086 1.920 . S
Co1055 O1058 1.966 . S
Co1055 N1064 2.022 . S
Co1055 N1072 1.993 . S
Co1055 O1080 1.941 . S
C1056 O1057 1.258 . S
C1056 O1058 1.263 . S
O1057 Co1054 1.970 . S
O1057 C1056 1.258 . S
O1058 Co1055 1.966 . S
O1058 C1056 1.263 . S
C1059 O1060 1.235 . S
C1059 O1086 1.289 . S
O1060 C1059 1.235 . S
C1061 C1063 1.400 . S
C1061 N1064 1.351 . S
C1061 C1066 1.501 . S
C1062 C1063 1.387 . S
C1062 N1065 1.341 . S
C1063 C1061 1.400 . S
C1063 C1062 1.387 . S
N1064 Co1055 2.022 . S
N1064 C1061 1.351 . S
N1064 N1065 1.365 . S
N1065 C1062 1.341 . S
N1065 N1064 1.365 . S
N1065 H1085 0.862 . S
C1066 C1061 1.501 . S
C1066 H1067 0.961 . S
C1066 H1068 0.961 . S
C1066 H1069 0.960 . S
H1067 C1066 0.961 . S
H1068 C1066 0.961 . S
H1069 C1066 0.960 . S
C1070 N1071 1.342 . S
C1070 C1074 1.401 . S
C1070 C1075 1.499 . S
N1071 Co1054 1.989 . S
N1071 C1070 1.342 . S
N1071 N1072 1.388 . S
N1072 Co1055 1.993 . S
N1072 N1071 1.388 . S
N1072 C1073 1.346 . S
C1073 N1072 1.346 . S
C1073 C1074 1.396 . S
C1073 C1083 1.510 . S
C1074 C1070 1.401 . S
C1074 C1073 1.396 . S
C1075 C1070 1.499 . S
C1075 H1076 0.959 . S
C1075 H1077 0.960 . S
C1075 H1078 0.961 . S
H1076 C1075 0.959 . S
H1077 C1075 0.960 . S
H1078 C1075 0.961 . S
O1079 Co1054 1.967 . S
O1079 C1087 1.258 . S
O1080 Co1055 1.941 . S
O1080 C1087 1.266 . S
H1081 C1083 0.959 . S
H1082 C1083 0.961 . S
C1083 C1073 1.510 . S
C1083 H1081 0.959 . S
C1083 H1082 0.961 . S
C1083 H1084 0.960 . S
H1084 C1083 0.960 . S
H1085 N1065 0.862 . S
O1086 Co1054 1.920 . S
O1086 C1059 1.289 . S
C1087 O1079 1.258 . S
C1087 O1080 1.266 . S
Co1088 O1091 1.970 . S
Co1088 N1105 1.989 . S
Co1088 O1113 1.967 . S
Co1088 O1120 1.920 . S
Co1089 O1092 1.966 . S
Co1089 N1098 2.022 . S
Co1089 N1106 1.993 . S
Co1089 O1114 1.941 . S
C1090 O1091 1.258 . S
C1090 O1092 1.263 . S
O1091 Co1088 1.970 . S
O1091 C1090 1.258 . S
O1092 Co1089 1.966 . S
O1092 C1090 1.263 . S
C1093 O1094 1.235 . S
C1093 O1120 1.289 1_455 S
O1094 C1093 1.235 . S
C1095 C1097 1.400 . S
C1095 N1098 1.351 . S
C1095 C1100 1.501 . S
C1096 C1097 1.387 . S
C1096 N1099 1.341 . S
C1097 C1095 1.400 . S
C1097 C1096 1.387 . S
N1098 Co1089 2.022 . S
N1098 C1095 1.351 . S
N1098 N1099 1.365 . S
N1099 C1096 1.341 . S
N1099 N1098 1.365 . S
N1099 H1119 0.862 . S
C1100 C1095 1.501 . S
C1100 H1101 0.961 . S
C1100 H1102 0.961 . S
C1100 H1103 0.960 . S
H1101 C1100 0.961 . S
H1102 C1100 0.961 . S
H1103 C1100 0.960 . S
C1104 N1105 1.342 . S
C1104 C1108 1.401 . S
C1104 C1109 1.499 . S
N1105 Co1088 1.989 . S
N1105 C1104 1.342 . S
N1105 N1106 1.388 . S
N1106 Co1089 1.993 . S
N1106 N1105 1.388 . S
N1106 C1107 1.346 . S
C1107 N1106 1.346 . S
C1107 C1108 1.396 . S
C1107 C1117 1.510 . S
C1108 C1104 1.401 . S
C1108 C1107 1.396 . S
C1109 C1104 1.499 . S
C1109 H1110 0.959 . S
C1109 H1111 0.960 . S
C1109 H1112 0.961 . S
H1110 C1109 0.959 . S
H1111 C1109 0.960 . S
H1112 C1109 0.961 . S
O1113 Co1088 1.967 . S
O1113 C1121 1.258 . S
O1114 Co1089 1.941 . S
O1114 C1121 1.266 . S
H1115 C1117 0.959 . S
H1116 C1117 0.961 . S
C1117 C1107 1.510 . S
C1117 H1115 0.959 . S
C1117 H1116 0.961 . S
C1117 H1118 0.960 . S
H1118 C1117 0.960 . S
H1119 N1099 0.862 . S
O1120 Co1088 1.920 . S
O1120 C1093 1.289 1_655 S
C1121 O1113 1.258 . S
C1121 O1114 1.266 . S
Co1122 O1125 1.970 . S
Co1122 N1139 1.989 . S
Co1122 O1147 1.967 . S
Co1122 O1154 1.920 . S
Co1123 O1126 1.966 . S
Co1123 N1132 2.022 . S
Co1123 N1140 1.993 . S
Co1123 O1148 1.941 . S
C1124 O1125 1.258 . S
C1124 O1126 1.263 . S
O1125 Co1122 1.970 . S
O1125 C1124 1.258 . S
O1126 Co1123 1.966 . S
O1126 C1124 1.263 . S
C1127 O1128 1.235 . S
C1127 O1154 1.289 . S
O1128 C1127 1.235 . S
C1129 C1131 1.400 . S
C1129 N1132 1.351 . S
C1129 C1134 1.501 . S
C1130 C1131 1.387 . S
C1130 N1133 1.341 . S
C1131 C1129 1.400 . S
C1131 C1130 1.387 . S
N1132 Co1123 2.022 . S
N1132 C1129 1.351 . S
N1132 N1133 1.365 . S
N1133 C1130 1.341 . S
N1133 N1132 1.365 . S
N1133 H1153 0.862 . S
C1134 C1129 1.501 . S
C1134 H1135 0.961 . S
C1134 H1136 0.961 . S
C1134 H1137 0.960 . S
H1135 C1134 0.961 . S
H1136 C1134 0.961 . S
H1137 C1134 0.960 . S
C1138 N1139 1.342 . S
C1138 C1142 1.401 . S
C1138 C1143 1.499 . S
N1139 Co1122 1.989 . S
N1139 C1138 1.342 . S
N1139 N1140 1.388 . S
N1140 Co1123 1.993 . S
N1140 N1139 1.388 . S
N1140 C1141 1.346 . S
C1141 N1140 1.346 . S
C1141 C1142 1.396 . S
C1141 C1151 1.510 . S
C1142 C1138 1.401 . S
C1142 C1141 1.396 . S
C1143 C1138 1.499 . S
C1143 H1144 0.959 . S
C1143 H1145 0.960 . S
C1143 H1146 0.961 . S
H1144 C1143 0.959 . S
H1145 C1143 0.960 . S
H1146 C1143 0.961 . S
O1147 Co1122 1.967 . S
O1147 C1155 1.258 . S
O1148 Co1123 1.941 . S
O1148 C1155 1.266 . S
H1149 C1151 0.959 . S
H1150 C1151 0.961 . S
C1151 C1141 1.510 . S
C1151 H1149 0.959 . S
C1151 H1150 0.961 . S
C1151 H1152 0.960 . S
H1152 C1151 0.960 . S
H1153 N1133 0.862 . S
O1154 Co1122 1.920 . S
O1154 C1127 1.289 . S
C1155 O1147 1.258 . S
C1155 O1148 1.266 . S
Co1156 O1159 1.970 . S
Co1156 N1173 1.989 . S
Co1156 O1181 1.967 . S
Co1156 O1188 1.920 . S
Co1157 O1160 1.966 . S
Co1157 N1166 2.022 . S
Co1157 N1174 1.993 . S
Co1157 O1182 1.941 . S
C1158 O1159 1.258 . S
C1158 O1160 1.263 . S
O1159 Co1156 1.970 . S
O1159 C1158 1.258 . S
O1160 Co1157 1.966 . S
O1160 C1158 1.263 . S
C1161 O1162 1.235 . S
C1161 O1188 1.289 . S
O1162 C1161 1.235 . S
C1163 C1165 1.400 . S
C1163 N1166 1.351 . S
C1163 C1168 1.501 . S
C1164 C1165 1.387 . S
C1164 N1167 1.341 . S
C1165 C1163 1.400 . S
C1165 C1164 1.387 . S
N1166 Co1157 2.022 . S
N1166 C1163 1.351 . S
N1166 N1167 1.365 . S
N1167 C1164 1.341 . S
N1167 N1166 1.365 . S
N1167 H1187 0.862 . S
C1168 C1163 1.501 . S
C1168 H1169 0.961 . S
C1168 H1170 0.961 . S
C1168 H1171 0.960 . S
H1169 C1168 0.961 . S
H1170 C1168 0.961 . S
H1171 C1168 0.960 . S
C1172 N1173 1.342 . S
C1172 C1176 1.401 . S
C1172 C1177 1.499 . S
N1173 Co1156 1.989 . S
N1173 C1172 1.342 . S
N1173 N1174 1.388 . S
N1174 Co1157 1.993 . S
N1174 N1173 1.388 . S
N1174 C1175 1.346 . S
C1175 N1174 1.346 . S
C1175 C1176 1.396 . S
C1175 C1185 1.510 . S
C1176 C1172 1.401 . S
C1176 C1175 1.396 . S
C1177 C1172 1.499 . S
C1177 H1178 0.959 . S
C1177 H1179 0.960 . S
C1177 H1180 0.961 . S
H1178 C1177 0.959 . S
H1179 C1177 0.960 . S
H1180 C1177 0.961 . S
O1181 Co1156 1.967 . S
O1181 C1189 1.258 . S
O1182 Co1157 1.941 . S
O1182 C1189 1.266 . S
H1183 C1185 0.959 . S
H1184 C1185 0.961 . S
C1185 C1175 1.510 . S
C1185 H1183 0.959 . S
C1185 H1184 0.961 . S
C1185 H1186 0.960 . S
H1186 C1185 0.960 . S
H1187 N1167 0.862 . S
O1188 Co1156 1.920 . S
O1188 C1161 1.289 . S
C1189 O1181 1.258 . S
C1189 O1182 1.266 . S
Co1190 O1193 1.970 . S
Co1190 N1207 1.989 . S
Co1190 O1215 1.967 . S
Co1190 O1222 1.920 . S
Co1191 O1194 1.966 . S
Co1191 N1200 2.022 . S
Co1191 N1208 1.993 . S
Co1191 O1216 1.941 . S
C1192 O1193 1.258 . S
C1192 O1194 1.263 . S
O1193 Co1190 1.970 . S
O1193 C1192 1.258 . S
O1194 Co1191 1.966 . S
O1194 C1192 1.263 . S
C1195 O1196 1.235 . S
C1195 O1222 1.289 . S
O1196 C1195 1.235 . S
C1197 C1199 1.400 . S
C1197 N1200 1.351 . S
C1197 C1202 1.501 . S
C1198 C1199 1.387 . S
C1198 N1201 1.341 . S
C1199 C1197 1.400 . S
C1199 C1198 1.387 . S
N1200 Co1191 2.022 . S
N1200 C1197 1.351 . S
N1200 N1201 1.365 . S
N1201 C1198 1.341 . S
N1201 N1200 1.365 . S
N1201 H1221 0.862 . S
C1202 C1197 1.501 . S
C1202 H1203 0.961 . S
C1202 H1204 0.961 . S
C1202 H1205 0.960 . S
H1203 C1202 0.961 . S
H1204 C1202 0.961 . S
H1205 C1202 0.960 . S
C1206 N1207 1.342 . S
C1206 C1210 1.401 . S
C1206 C1211 1.499 . S
N1207 Co1190 1.989 . S
N1207 C1206 1.342 . S
N1207 N1208 1.388 . S
N1208 Co1191 1.993 . S
N1208 N1207 1.388 . S
N1208 C1209 1.346 . S
C1209 N1208 1.346 . S
C1209 C1210 1.396 . S
C1209 C1219 1.510 . S
C1210 C1206 1.401 . S
C1210 C1209 1.396 . S
C1211 C1206 1.499 . S
C1211 H1212 0.959 . S
C1211 H1213 0.960 . S
C1211 H1214 0.961 . S
H1212 C1211 0.959 . S
H1213 C1211 0.960 . S
H1214 C1211 0.961 . S
O1215 Co1190 1.967 . S
O1215 C1223 1.258 . S
O1216 Co1191 1.941 . S
O1216 C1223 1.266 . S
H1217 C1219 0.959 . S
H1218 C1219 0.961 . S
C1219 C1209 1.510 . S
C1219 H1217 0.959 . S
C1219 H1218 0.961 . S
C1219 H1220 0.960 . S
H1220 C1219 0.960 . S
H1221 N1201 0.862 . S
O1222 Co1190 1.920 . S
O1222 C1195 1.289 . S
C1223 O1215 1.258 . S
C1223 O1216 1.266 . S
Co1224 O1227 1.970 . S
Co1224 N1241 1.989 . S
Co1224 O1249 1.967 . S
Co1224 O1256 1.920 . S
Co1225 O1228 1.966 . S
Co1225 N1234 2.022 . S
Co1225 N1242 1.993 . S
Co1225 O1250 1.941 . S
C1226 O1227 1.258 . S
C1226 O1228 1.263 . S
O1227 Co1224 1.970 . S
O1227 C1226 1.258 . S
O1228 Co1225 1.966 . S
O1228 C1226 1.263 . S
C1229 O1230 1.235 . S
C1229 O1256 1.289 1_455 S
O1230 C1229 1.235 . S
C1231 C1233 1.400 . S
C1231 N1234 1.351 . S
C1231 C1236 1.501 . S
C1232 C1233 1.387 . S
C1232 N1235 1.341 . S
C1233 C1231 1.400 . S
C1233 C1232 1.387 . S
N1234 Co1225 2.022 . S
N1234 C1231 1.351 . S
N1234 N1235 1.365 . S
N1235 C1232 1.341 . S
N1235 N1234 1.365 . S
N1235 H1255 0.862 . S
C1236 C1231 1.501 . S
C1236 H1237 0.961 . S
C1236 H1238 0.961 . S
C1236 H1239 0.960 . S
H1237 C1236 0.961 . S
H1238 C1236 0.961 . S
H1239 C1236 0.960 . S
C1240 N1241 1.342 . S
C1240 C1244 1.401 . S
C1240 C1245 1.499 . S
N1241 Co1224 1.989 . S
N1241 C1240 1.342 . S
N1241 N1242 1.388 . S
N1242 Co1225 1.993 . S
N1242 N1241 1.388 . S
N1242 C1243 1.346 . S
C1243 N1242 1.346 . S
C1243 C1244 1.396 . S
C1243 C1253 1.510 . S
C1244 C1240 1.401 . S
C1244 C1243 1.396 . S
C1245 C1240 1.499 . S
C1245 H1246 0.959 . S
C1245 H1247 0.960 . S
C1245 H1248 0.961 . S
H1246 C1245 0.959 . S
H1247 C1245 0.960 . S
H1248 C1245 0.961 . S
O1249 Co1224 1.967 . S
O1249 C1257 1.258 . S
O1250 Co1225 1.941 . S
O1250 C1257 1.266 . S
H1251 C1253 0.959 . S
H1252 C1253 0.961 . S
C1253 C1243 1.510 . S
C1253 H1251 0.959 . S
C1253 H1252 0.961 . S
C1253 H1254 0.960 . S
H1254 C1253 0.960 . S
H1255 N1235 0.862 . S
O1256 Co1224 1.920 . S
O1256 C1229 1.289 1_655 S
C1257 O1249 1.258 . S
C1257 O1250 1.266 . S
Co1258 O1261 1.970 . S
Co1258 N1275 1.989 . S
Co1258 O1283 1.967 . S
Co1258 O1290 1.920 . S
Co1259 O1262 1.966 . S
Co1259 N1268 2.022 . S
Co1259 N1276 1.993 . S
Co1259 O1284 1.941 . S
C1260 O1261 1.258 . S
C1260 O1262 1.263 . S
O1261 Co1258 1.970 . S
O1261 C1260 1.258 . S
O1262 Co1259 1.966 . S
O1262 C1260 1.263 . S
C1263 O1264 1.235 . S
C1263 O1290 1.289 . S
O1264 C1263 1.235 . S
C1265 C1267 1.400 . S
C1265 N1268 1.351 . S
C1265 C1270 1.501 . S
C1266 C1267 1.387 . S
C1266 N1269 1.341 . S
C1267 C1265 1.400 . S
C1267 C1266 1.387 . S
N1268 Co1259 2.022 . S
N1268 C1265 1.351 . S
N1268 N1269 1.365 . S
N1269 C1266 1.341 . S
N1269 N1268 1.365 . S
N1269 H1289 0.862 . S
C1270 C1265 1.501 . S
C1270 H1271 0.961 . S
C1270 H1272 0.961 . S
C1270 H1273 0.960 . S
H1271 C1270 0.961 . S
H1272 C1270 0.961 . S
H1273 C1270 0.960 . S
C1274 N1275 1.342 . S
C1274 C1278 1.401 . S
C1274 C1279 1.499 . S
N1275 Co1258 1.989 . S
N1275 C1274 1.342 . S
N1275 N1276 1.388 . S
N1276 Co1259 1.993 . S
N1276 N1275 1.388 . S
N1276 C1277 1.346 . S
C1277 N1276 1.346 . S
C1277 C1278 1.396 . S
C1277 C1287 1.510 . S
C1278 C1274 1.401 . S
C1278 C1277 1.396 . S
C1279 C1274 1.499 . S
C1279 H1280 0.959 . S
C1279 H1281 0.960 . S
C1279 H1282 0.961 . S
H1280 C1279 0.959 . S
H1281 C1279 0.960 . S
H1282 C1279 0.961 . S
O1283 Co1258 1.967 . S
O1283 C1291 1.258 . S
O1284 Co1259 1.941 . S
O1284 C1291 1.266 . S
H1285 C1287 0.959 . S
H1286 C1287 0.961 . S
C1287 C1277 1.510 . S
C1287 H1285 0.959 . S
C1287 H1286 0.961 . S
C1287 H1288 0.960 . S
H1288 C1287 0.960 . S
H1289 N1269 0.862 . S
O1290 Co1258 1.920 . S
O1290 C1263 1.289 . S
C1291 O1283 1.258 . S
C1291 O1284 1.266 . S
Co1292 O1295 1.970 . S
Co1292 N1309 1.989 . S
Co1292 O1317 1.967 . S
Co1292 O1324 1.920 . S
Co1293 O1296 1.966 . S
Co1293 N1302 2.022 . S
Co1293 N1310 1.993 . S
Co1293 O1318 1.941 . S
C1294 O1295 1.258 . S
C1294 O1296 1.263 . S
O1295 Co1292 1.970 . S
O1295 C1294 1.258 . S
O1296 Co1293 1.966 . S
O1296 C1294 1.263 . S
C1297 O1298 1.235 . S
C1297 O1324 1.289 . S
O1298 C1297 1.235 . S
C1299 C1301 1.400 . S
C1299 N1302 1.351 . S
C1299 C1304 1.501 . S
C1300 C1301 1.387 . S
C1300 N1303 1.341 . S
C1301 C1299 1.400 . S
C1301 C1300 1.387 . S
N1302 Co1293 2.022 . S
N1302 C1299 1.351 . S
N1302 N1303 1.365 . S
N1303 C1300 1.341 . S
N1303 N1302 1.365 . S
N1303 H1323 0.862 . S
C1304 C1299 1.501 . S
C1304 H1305 0.961 . S
C1304 H1306 0.961 . S
C1304 H1307 0.960 . S
H1305 C1304 0.961 . S
H1306 C1304 0.961 . S
H1307 C1304 0.960 . S
C1308 N1309 1.342 . S
C1308 C1312 1.401 . S
C1308 C1313 1.499 . S
N1309 Co1292 1.989 . S
N1309 C1308 1.342 . S
N1309 N1310 1.388 . S
N1310 Co1293 1.993 . S
N1310 N1309 1.388 . S
N1310 C1311 1.346 . S
C1311 N1310 1.346 . S
C1311 C1312 1.396 . S
C1311 C1321 1.510 . S
C1312 C1308 1.401 . S
C1312 C1311 1.396 . S
C1313 C1308 1.499 . S
C1313 H1314 0.959 . S
C1313 H1315 0.960 . S
C1313 H1316 0.961 . S
H1314 C1313 0.959 . S
H1315 C1313 0.960 . S
H1316 C1313 0.961 . S
O1317 Co1292 1.967 . S
O1317 C1325 1.258 . S
O1318 Co1293 1.941 . S
O1318 C1325 1.266 . S
H1319 C1321 0.959 . S
H1320 C1321 0.961 . S
C1321 C1311 1.510 . S
C1321 H1319 0.959 . S
C1321 H1320 0.961 . S
C1321 H1322 0.960 . S
H1322 C1321 0.960 . S
H1323 N1303 0.862 . S
O1324 Co1292 1.920 . S
O1324 C1297 1.289 . S
C1325 O1317 1.258 . S
C1325 O1318 1.266 . S
Co1326 O1329 1.970 . S
Co1326 N1343 1.989 . S
Co1326 O1351 1.967 . S
Co1326 O1358 1.920 . S
Co1327 O1330 1.966 . S
Co1327 N1336 2.022 . S
Co1327 N1344 1.993 . S
Co1327 O1352 1.941 . S
C1328 O1329 1.258 . S
C1328 O1330 1.263 . S
O1329 Co1326 1.970 . S
O1329 C1328 1.258 . S
O1330 Co1327 1.966 . S
O1330 C1328 1.263 . S
C1331 O1332 1.235 . S
C1331 O1358 1.289 . S
O1332 C1331 1.235 . S
C1333 C1335 1.400 . S
C1333 N1336 1.351 . S
C1333 C1338 1.501 . S
C1334 C1335 1.387 . S
C1334 N1337 1.341 . S
C1335 C1333 1.400 . S
C1335 C1334 1.387 . S
N1336 Co1327 2.022 . S
N1336 C1333 1.351 . S
N1336 N1337 1.365 . S
N1337 C1334 1.341 . S
N1337 N1336 1.365 . S
N1337 H1357 0.862 . S
C1338 C1333 1.501 . S
C1338 H1339 0.961 . S
C1338 H1340 0.961 . S
C1338 H1341 0.960 . S
H1339 C1338 0.961 . S
H1340 C1338 0.961 . S
H1341 C1338 0.960 . S
C1342 N1343 1.342 . S
C1342 C1346 1.401 . S
C1342 C1347 1.499 . S
N1343 Co1326 1.989 . S
N1343 C1342 1.342 . S
N1343 N1344 1.388 . S
N1344 Co1327 1.993 . S
N1344 N1343 1.388 . S
N1344 C1345 1.346 . S
C1345 N1344 1.346 . S
C1345 C1346 1.396 . S
C1345 C1355 1.510 . S
C1346 C1342 1.401 . S
C1346 C1345 1.396 . S
C1347 C1342 1.499 . S
C1347 H1348 0.959 . S
C1347 H1349 0.960 . S
C1347 H1350 0.961 . S
H1348 C1347 0.959 . S
H1349 C1347 0.960 . S
H1350 C1347 0.961 . S
O1351 Co1326 1.967 . S
O1351 C1359 1.258 . S
O1352 Co1327 1.941 . S
O1352 C1359 1.266 . S
H1353 C1355 0.959 . S
H1354 C1355 0.961 . S
C1355 C1345 1.510 . S
C1355 H1353 0.959 . S
C1355 H1354 0.961 . S
C1355 H1356 0.960 . S
H1356 C1355 0.960 . S
H1357 N1337 0.862 . S
O1358 Co1326 1.920 . S
O1358 C1331 1.289 . S
C1359 O1351 1.258 . S
C1359 O1352 1.266 . S
Co1360 O1363 1.970 . S
Co1360 N1377 1.989 . S
Co1360 O1385 1.967 . S
Co1360 O1392 1.920 . S
Co1361 O1364 1.966 . S
Co1361 N1370 2.022 . S
Co1361 N1378 1.993 . S
Co1361 O1386 1.941 . S
C1362 O1363 1.258 . S
C1362 O1364 1.263 . S
O1363 Co1360 1.970 . S
O1363 C1362 1.258 . S
O1364 Co1361 1.966 . S
O1364 C1362 1.263 . S
C1365 O1366 1.235 . S
C1365 O1392 1.289 1_545 S
O1366 C1365 1.235 . S
C1367 C1369 1.400 . S
C1367 N1370 1.351 . S
C1367 C1372 1.501 . S
C1368 C1369 1.387 . S
C1368 N1371 1.341 . S
C1369 C1367 1.400 . S
C1369 C1368 1.387 . S
N1370 Co1361 2.022 . S
N1370 C1367 1.351 . S
N1370 N1371 1.365 . S
N1371 C1368 1.341 . S
N1371 N1370 1.365 . S
N1371 H1391 0.862 . S
C1372 C1367 1.501 . S
C1372 H1373 0.961 . S
C1372 H1374 0.961 . S
C1372 H1375 0.960 . S
H1373 C1372 0.961 . S
H1374 C1372 0.961 . S
H1375 C1372 0.960 . S
C1376 N1377 1.342 . S
C1376 C1380 1.401 . S
C1376 C1381 1.499 . S
N1377 Co1360 1.989 . S
N1377 C1376 1.342 . S
N1377 N1378 1.388 . S
N1378 Co1361 1.993 . S
N1378 N1377 1.388 . S
N1378 C1379 1.346 . S
C1379 N1378 1.346 . S
C1379 C1380 1.396 . S
C1379 C1389 1.510 . S
C1380 C1376 1.401 . S
C1380 C1379 1.396 . S
C1381 C1376 1.499 . S
C1381 H1382 0.959 . S
C1381 H1383 0.960 . S
C1381 H1384 0.961 . S
H1382 C1381 0.959 . S
H1383 C1381 0.960 . S
H1384 C1381 0.961 . S
O1385 Co1360 1.967 . S
O1385 C1393 1.258 . S
O1386 Co1361 1.941 . S
O1386 C1393 1.266 . S
H1387 C1389 0.959 . S
H1388 C1389 0.961 . S
C1389 C1379 1.510 . S
C1389 H1387 0.959 . S
C1389 H1388 0.961 . S
C1389 H1390 0.960 . S
H1390 C1389 0.960 . S
H1391 N1371 0.862 . S
O1392 Co1360 1.920 . S
O1392 C1365 1.289 1_565 S
C1393 O1385 1.258 . S
C1393 O1386 1.266 . S
Co1394 O1397 1.970 . S
Co1394 N1411 1.989 . S
Co1394 O1419 1.967 . S
Co1394 O1426 1.920 . S
Co1395 O1398 1.966 . S
Co1395 N1404 2.022 . S
Co1395 N1412 1.993 . S
Co1395 O1420 1.941 . S
C1396 O1397 1.258 . S
C1396 O1398 1.263 . S
O1397 Co1394 1.970 . S
O1397 C1396 1.258 . S
O1398 Co1395 1.966 . S
O1398 C1396 1.263 . S
C1399 O1400 1.235 . S
C1399 O1426 1.289 . S
O1400 C1399 1.235 . S
C1401 C1403 1.400 . S
C1401 N1404 1.351 . S
C1401 C1406 1.501 . S
C1402 C1403 1.387 . S
C1402 N1405 1.341 . S
C1403 C1401 1.400 . S
C1403 C1402 1.387 . S
N1404 Co1395 2.022 . S
N1404 C1401 1.351 . S
N1404 N1405 1.365 . S
N1405 C1402 1.341 . S
N1405 N1404 1.365 . S
N1405 H1425 0.862 . S
C1406 C1401 1.501 . S
C1406 H1407 0.961 . S
C1406 H1408 0.961 . S
C1406 H1409 0.960 . S
H1407 C1406 0.961 . S
H1408 C1406 0.961 . S
H1409 C1406 0.960 . S
C1410 N1411 1.342 . S
C1410 C1414 1.401 . S
C1410 C1415 1.499 . S
N1411 Co1394 1.989 . S
N1411 C1410 1.342 . S
N1411 N1412 1.388 . S
N1412 Co1395 1.993 . S
N1412 N1411 1.388 . S
N1412 C1413 1.346 . S
C1413 N1412 1.346 . S
C1413 C1414 1.396 . S
C1413 C1423 1.510 . S
C1414 C1410 1.401 . S
C1414 C1413 1.396 . S
C1415 C1410 1.499 . S
C1415 H1416 0.959 . S
C1415 H1417 0.960 . S
C1415 H1418 0.961 . S
H1416 C1415 0.959 . S
H1417 C1415 0.960 . S
H1418 C1415 0.961 . S
O1419 Co1394 1.967 . S
O1419 C1427 1.258 . S
O1420 Co1395 1.941 . S
O1420 C1427 1.266 . S
H1421 C1423 0.959 . S
H1422 C1423 0.961 . S
C1423 C1413 1.510 . S
C1423 H1421 0.959 . S
C1423 H1422 0.961 . S
C1423 H1424 0.960 . S
H1424 C1423 0.960 . S
H1425 N1405 0.862 . S
O1426 Co1394 1.920 . S
O1426 C1399 1.289 . S
C1427 O1419 1.258 . S
C1427 O1420 1.266 . S
Co1428 O1431 1.970 . S
Co1428 N1445 1.989 . S
Co1428 O1453 1.967 . S
Co1428 O1460 1.920 . S
Co1429 O1432 1.966 . S
Co1429 N1438 2.022 . S
Co1429 N1446 1.993 . S
Co1429 O1454 1.941 . S
C1430 O1431 1.258 . S
C1430 O1432 1.263 . S
O1431 Co1428 1.970 . S
O1431 C1430 1.258 . S
O1432 Co1429 1.966 . S
O1432 C1430 1.263 . S
C1433 O1434 1.235 . S
C1433 O1460 1.289 . S
O1434 C1433 1.235 . S
C1435 C1437 1.400 . S
C1435 N1438 1.351 . S
C1435 C1440 1.501 . S
C1436 C1437 1.387 . S
C1436 N1439 1.341 . S
C1437 C1435 1.400 . S
C1437 C1436 1.387 . S
N1438 Co1429 2.022 . S
N1438 C1435 1.351 . S
N1438 N1439 1.365 . S
N1439 C1436 1.341 . S
N1439 N1438 1.365 . S
N1439 H1459 0.862 . S
C1440 C1435 1.501 . S
C1440 H1441 0.961 . S
C1440 H1442 0.961 . S
C1440 H1443 0.960 . S
H1441 C1440 0.961 . S
H1442 C1440 0.961 . S
H1443 C1440 0.960 . S
C1444 N1445 1.342 . S
C1444 C1448 1.401 . S
C1444 C1449 1.499 . S
N1445 Co1428 1.989 . S
N1445 C1444 1.342 . S
N1445 N1446 1.388 . S
N1446 Co1429 1.993 . S
N1446 N1445 1.388 . S
N1446 C1447 1.346 . S
C1447 N1446 1.346 . S
C1447 C1448 1.396 . S
C1447 C1457 1.510 . S
C1448 C1444 1.401 . S
C1448 C1447 1.396 . S
C1449 C1444 1.499 . S
C1449 H1450 0.959 . S
C1449 H1451 0.960 . S
C1449 H1452 0.961 . S
H1450 C1449 0.959 . S
H1451 C1449 0.960 . S
H1452 C1449 0.961 . S
O1453 Co1428 1.967 . S
O1453 C1461 1.258 . S
O1454 Co1429 1.941 . S
O1454 C1461 1.266 . S
H1455 C1457 0.959 . S
H1456 C1457 0.961 . S
C1457 C1447 1.510 . S
C1457 H1455 0.959 . S
C1457 H1456 0.961 . S
C1457 H1458 0.960 . S
H1458 C1457 0.960 . S
H1459 N1439 0.862 . S
O1460 Co1428 1.920 . S
O1460 C1433 1.289 . S
C1461 O1453 1.258 . S
C1461 O1454 1.266 . S
Co1462 O1465 1.970 . S
Co1462 N1479 1.989 . S
Co1462 O1487 1.967 . S
Co1462 O1494 1.920 . S
Co1463 O1466 1.966 . S
Co1463 N1472 2.022 1_556 S
Co1463 N1480 1.987 1_556 S
Co1463 O1488 1.941 . S
C1464 O1465 1.258 . S
C1464 O1466 1.263 . S
O1465 Co1462 1.970 . S
O1465 C1464 1.258 . S
O1466 Co1463 1.966 . S
O1466 C1464 1.263 . S
C1467 O1468 1.235 . S
C1467 O1494 1.289 . S
O1468 C1467 1.235 . S
C1469 C1471 1.400 . S
C1469 N1472 1.351 . S
C1469 C1474 1.501 . S
C1470 C1471 1.387 . S
C1470 N1473 1.341 . S
C1471 C1469 1.400 . S
C1471 C1470 1.387 . S
N1472 Co1463 2.022 1_554 S
N1472 C1469 1.351 . S
N1472 N1473 1.365 . S
N1473 C1470 1.341 . S
N1473 N1472 1.365 . S
N1473 H1493 0.862 1_554 S
C1474 C1469 1.501 . S
C1474 H1475 0.961 . S
C1474 H1476 0.961 . S
C1474 H1477 0.960 . S
H1475 C1474 0.961 . S
H1476 C1474 0.961 . S
H1477 C1474 0.960 . S
C1478 N1479 1.342 . S
C1478 C1482 1.401 1_556 S
C1478 C1483 1.499 . S
N1479 Co1462 1.989 . S
N1479 C1478 1.342 . S
N1479 N1480 1.380 1_556 S
N1480 Co1463 1.987 1_554 S
N1480 N1479 1.380 1_554 S
N1480 C1481 1.356 . S
C1481 N1480 1.356 . S
C1481 C1482 1.396 . S
C1481 C1491 1.510 . S
C1482 C1478 1.401 1_554 S
C1482 C1481 1.396 . S
C1483 C1478 1.499 . S
C1483 H1484 0.959 . S
C1483 H1485 0.970 . S
C1483 H1486 0.961 . S
H1484 C1483 0.959 . S
H1485 C1483 0.970 . S
H1486 C1483 0.961 . S
O1487 Co1462 1.967 . S
O1487 C1495 1.258 . S
O1488 Co1463 1.941 . S
O1488 C1495 1.266 . S
H1489 C1491 0.959 . S
H1490 C1491 0.961 . S
C1491 C1481 1.510 . S
C1491 H1489 0.959 . S
C1491 H1490 0.961 . S
C1491 H1492 0.960 . S
H1492 C1491 0.960 . S
H1493 N1473 0.862 1_556 S
O1494 Co1462 1.920 . S
O1494 C1467 1.289 . S
C1495 O1487 1.258 . S
C1495 O1488 1.266 . S
Co1496 O1499 1.970 . S
Co1496 N1513 1.989 . S
Co1496 O1521 1.967 . S
Co1496 O1528 1.920 . S
Co1497 O1500 1.966 . S
Co1497 N1506 2.022 . S
Co1497 N1514 1.993 . S
Co1497 O1522 1.941 . S
C1498 O1499 1.258 . S
C1498 O1500 1.263 . S
O1499 Co1496 1.970 . S
O1499 C1498 1.258 . S
O1500 Co1497 1.966 . S
O1500 C1498 1.263 . S
C1501 O1502 1.235 . S
C1501 O1528 1.289 . S
O1502 C1501 1.235 . S
C1503 C1505 1.400 . S
C1503 N1506 1.351 . S
C1503 C1508 1.501 . S
C1504 C1505 1.387 . S
C1504 N1507 1.341 . S
C1505 C1503 1.400 . S
C1505 C1504 1.387 . S
N1506 Co1497 2.022 . S
N1506 C1503 1.351 . S
N1506 N1507 1.365 . S
N1507 C1504 1.341 . S
N1507 N1506 1.365 . S
N1507 H1527 0.862 . S
C1508 C1503 1.501 . S
C1508 H1509 0.961 . S
C1508 H1510 0.961 . S
C1508 H1511 0.960 . S
H1509 C1508 0.961 . S
H1510 C1508 0.961 . S
H1511 C1508 0.960 . S
C1512 N1513 1.342 . S
C1512 C1516 1.401 . S
C1512 C1517 1.499 . S
N1513 Co1496 1.989 . S
N1513 C1512 1.342 . S
N1513 N1514 1.388 . S
N1514 Co1497 1.993 . S
N1514 N1513 1.388 . S
N1514 C1515 1.346 . S
C1515 N1514 1.346 . S
C1515 C1516 1.396 . S
C1515 C1525 1.510 . S
C1516 C1512 1.401 . S
C1516 C1515 1.396 . S
C1517 C1512 1.499 . S
C1517 H1518 0.959 . S
C1517 H1519 0.960 . S
C1517 H1520 0.961 . S
H1518 C1517 0.959 . S
H1519 C1517 0.960 . S
H1520 C1517 0.961 . S
O1521 Co1496 1.967 . S
O1521 C1529 1.258 . S
O1522 Co1497 1.941 . S
O1522 C1529 1.266 . S
H1523 C1525 0.959 . S
H1524 C1525 0.961 . S
C1525 C1515 1.510 . S
C1525 H1523 0.959 . S
C1525 H1524 0.961 . S
C1525 H1526 0.960 . S
H1526 C1525 0.960 . S
H1527 N1507 0.862 . S
O1528 Co1496 1.920 . S
O1528 C1501 1.289 . S
C1529 O1521 1.258 . S
C1529 O1522 1.266 . S
Co1530 O1533 1.970 . S
Co1530 N1547 1.989 . S
Co1530 O1555 1.967 . S
Co1530 O1562 1.920 . S
Co1531 O1534 1.966 . S
Co1531 N1540 2.022 1_554 S
Co1531 N1548 1.987 1_554 S
Co1531 O1556 1.941 . S
C1532 O1533 1.258 . S
C1532 O1534 1.263 . S
O1533 Co1530 1.970 . S
O1533 C1532 1.258 . S
O1534 Co1531 1.966 . S
O1534 C1532 1.263 . S
C1535 O1536 1.235 . S
C1535 O1562 1.289 1_565 S
O1536 C1535 1.235 . S
C1537 C1539 1.400 . S
C1537 N1540 1.351 . S
C1537 C1542 1.501 . S
C1538 C1539 1.387 . S
C1538 N1541 1.341 . S
C1539 C1537 1.400 . S
C1539 C1538 1.387 . S
N1540 Co1531 2.022 1_556 S
N1540 C1537 1.351 . S
N1540 N1541 1.365 . S
N1541 C1538 1.341 . S
N1541 N1540 1.365 . S
N1541 H1561 0.862 1_556 S
C1542 C1537 1.501 . S
C1542 H1543 0.961 . S
C1542 H1544 0.961 . S
C1542 H1545 0.960 . S
H1543 C1542 0.961 . S
H1544 C1542 0.961 . S
H1545 C1542 0.960 . S
C1546 N1547 1.342 . S
C1546 C1550 1.401 1_554 S
C1546 C1551 1.499 . S
N1547 Co1530 1.989 . S
N1547 C1546 1.342 . S
N1547 N1548 1.380 1_554 S
N1548 Co1531 1.987 1_556 S
N1548 N1547 1.380 1_556 S
N1548 C1549 1.356 . S
C1549 N1548 1.356 . S
C1549 C1550 1.396 . S
C1549 C1559 1.510 . S
C1550 C1546 1.401 1_556 S
C1550 C1549 1.396 . S
C1551 C1546 1.499 . S
C1551 H1552 0.959 . S
C1551 H1553 0.970 . S
C1551 H1554 0.961 . S
H1552 C1551 0.959 . S
H1553 C1551 0.970 . S
H1554 C1551 0.961 . S
O1555 Co1530 1.967 . S
O1555 C1563 1.258 . S
O1556 Co1531 1.941 . S
O1556 C1563 1.266 . S
H1557 C1559 0.959 . S
H1558 C1559 0.961 . S
C1559 C1549 1.510 . S
C1559 H1557 0.959 . S
C1559 H1558 0.961 . S
C1559 H1560 0.960 . S
H1560 C1559 0.960 . S
H1561 N1541 0.862 1_554 S
O1562 Co1530 1.920 . S
O1562 C1535 1.289 1_545 S
C1563 O1555 1.258 . S
C1563 O1556 1.266 . S
Co1564 O1567 1.970 . S
Co1564 N1581 1.989 . S
Co1564 O1589 1.967 . S
Co1564 O1596 1.920 . S
Co1565 O1568 1.966 . S
Co1565 N1574 2.022 . S
Co1565 N1582 1.993 . S
Co1565 O1590 1.941 . S
C1566 O1567 1.258 . S
C1566 O1568 1.263 . S
O1567 Co1564 1.970 . S
O1567 C1566 1.258 . S
O1568 Co1565 1.966 . S
O1568 C1566 1.263 . S
C1569 O1570 1.235 . S
C1569 O1596 1.289 . S
O1570 C1569 1.235 . S
C1571 C1573 1.400 . S
C1571 N1574 1.351 . S
C1571 C1576 1.501 . S
C1572 C1573 1.387 . S
C1572 N1575 1.341 . S
C1573 C1571 1.400 . S
C1573 C1572 1.387 . S
N1574 Co1565 2.022 . S
N1574 C1571 1.351 . S
N1574 N1575 1.365 . S
N1575 C1572 1.341 . S
N1575 N1574 1.365 . S
N1575 H1595 0.862 . S
C1576 C1571 1.501 . S
C1576 H1577 0.961 . S
C1576 H1578 0.961 . S
C1576 H1579 0.960 . S
H1577 C1576 0.961 . S
H1578 C1576 0.961 . S
H1579 C1576 0.960 . S
C1580 N1581 1.342 . S
C1580 C1584 1.401 . S
C1580 C1585 1.499 . S
N1581 Co1564 1.989 . S
N1581 C1580 1.342 . S
N1581 N1582 1.388 . S
N1582 Co1565 1.993 . S
N1582 N1581 1.388 . S
N1582 C1583 1.346 . S
C1583 N1582 1.346 . S
C1583 C1584 1.396 . S
C1583 C1593 1.510 . S
C1584 C1580 1.401 . S
C1584 C1583 1.396 . S
C1585 C1580 1.499 . S
C1585 H1586 0.959 . S
C1585 H1587 0.960 . S
C1585 H1588 0.961 . S
H1586 C1585 0.959 . S
H1587 C1585 0.960 . S
H1588 C1585 0.961 . S
O1589 Co1564 1.967 . S
O1589 C1597 1.258 . S
O1590 Co1565 1.941 . S
O1590 C1597 1.266 . S
H1591 C1593 0.959 . S
H1592 C1593 0.961 . S
C1593 C1583 1.510 . S
C1593 H1591 0.959 . S
C1593 H1592 0.961 . S
C1593 H1594 0.960 . S
H1594 C1593 0.960 . S
H1595 N1575 0.862 . S
O1596 Co1564 1.920 . S
O1596 C1569 1.289 . S
C1597 O1589 1.258 . S
C1597 O1590 1.266 . S
Co1598 O1601 1.970 . S
Co1598 N1615 1.989 . S
Co1598 O1623 1.967 . S
Co1598 O1630 1.920 . S
Co1599 O1602 1.966 . S
Co1599 N1608 2.022 . S
Co1599 N1616 1.993 . S
Co1599 O1624 1.941 . S
C1600 O1601 1.258 . S
C1600 O1602 1.263 . S
O1601 Co1598 1.970 . S
O1601 C1600 1.258 . S
O1602 Co1599 1.966 . S
O1602 C1600 1.263 . S
C1603 O1604 1.235 . S
C1603 O1630 1.289 . S
O1604 C1603 1.235 . S
C1605 C1607 1.400 . S
C1605 N1608 1.351 . S
C1605 C1610 1.501 . S
C1606 C1607 1.387 . S
C1606 N1609 1.341 . S
C1607 C1605 1.400 . S
C1607 C1606 1.387 . S
N1608 Co1599 2.022 . S
N1608 C1605 1.351 . S
N1608 N1609 1.365 . S
N1609 C1606 1.341 . S
N1609 N1608 1.365 . S
N1609 H1629 0.862 . S
C1610 C1605 1.501 . S
C1610 H1611 0.961 . S
C1610 H1612 0.961 . S
C1610 H1613 0.960 . S
H1611 C1610 0.961 . S
H1612 C1610 0.961 . S
H1613 C1610 0.960 . S
C1614 N1615 1.342 . S
C1614 C1618 1.401 . S
C1614 C1619 1.499 . S
N1615 Co1598 1.989 . S
N1615 C1614 1.342 . S
N1615 N1616 1.388 . S
N1616 Co1599 1.993 . S
N1616 N1615 1.388 . S
N1616 C1617 1.346 . S
C1617 N1616 1.346 . S
C1617 C1618 1.396 . S
C1617 C1627 1.510 . S
C1618 C1614 1.401 . S
C1618 C1617 1.396 . S
C1619 C1614 1.499 . S
C1619 H1620 0.959 . S
C1619 H1621 0.960 . S
C1619 H1622 0.961 . S
H1620 C1619 0.959 . S
H1621 C1619 0.960 . S
H1622 C1619 0.961 . S
O1623 Co1598 1.967 . S
O1623 C1631 1.258 . S
O1624 Co1599 1.941 . S
O1624 C1631 1.266 . S
H1625 C1627 0.959 . S
H1626 C1627 0.961 . S
C1627 C1617 1.510 . S
C1627 H1625 0.959 . S
C1627 H1626 0.961 . S
C1627 H1628 0.960 . S
H1628 C1627 0.960 . S
H1629 N1609 0.862 . S
O1630 Co1598 1.920 . S
O1630 C1603 1.289 . S
C1631 O1623 1.258 . S
C1631 O1624 1.266 . S
C1632 C1633 1.363 . S
C1632 C1638 1.379 . S
C1632 N1640 1.356 . S
C1633 C1632 1.363 . S
C1633 C1639 1.363 . S
C1634 C1635 1.363 . S
C1634 C1639 1.379 . S
C1634 N1641 1.356 . S
C1635 C1634 1.363 . S
C1635 C1638 1.363 . S
N1636 C1638 1.356 . S
N1636 H1648 0.984 . S
N1636 H1649 0.985 . S
N1637 C1639 1.356 . S
N1637 H1642 0.984 . S
N1637 H1643 0.985 . S
C1638 C1632 1.379 . S
C1638 C1635 1.363 . S
C1638 N1636 1.356 . S
C1639 C1633 1.363 . S
C1639 C1634 1.379 . S
C1639 N1637 1.356 . S
N1640 C1632 1.356 . S
N1640 H1646 0.984 . S
N1640 H1647 0.984 . S
N1641 C1634 1.356 . S
N1641 H1644 0.984 . S
N1641 H1645 0.985 . S
H1642 N1637 0.984 . S
H1643 N1637 0.985 . S
H1644 N1641 0.984 . S
H1645 N1641 0.985 . S
H1646 N1640 0.984 . S
H1647 N1640 0.984 . S
H1648 N1636 0.984 . S
H1649 N1636 0.985 . S
C1650 C1651 1.363 . S
C1650 C1656 1.379 . S
C1650 N1658 1.356 . S
C1651 C1650 1.363 . S
C1651 C1657 1.363 . S
C1652 C1653 1.363 . S
C1652 C1657 1.379 . S
C1652 N1659 1.356 . S
C1653 C1652 1.363 . S
C1653 C1656 1.363 . S
N1654 C1656 1.356 . S
N1654 H1666 0.984 . S
N1654 H1667 0.985 . S
N1655 C1657 1.356 . S
N1655 H1660 0.984 . S
N1655 H1661 0.985 . S
C1656 C1650 1.379 . S
C1656 C1653 1.363 . S
C1656 N1654 1.356 . S
C1657 C1651 1.363 . S
C1657 C1652 1.379 . S
C1657 N1655 1.356 . S
N1658 C1650 1.356 . S
N1658 H1664 0.984 . S
N1658 H1665 0.984 . S
N1659 C1652 1.356 . S
N1659 H1662 0.984 . S
N1659 H1663 0.985 . S
H1660 N1655 0.984 . S
H1661 N1655 0.985 . S
H1662 N1659 0.984 . S
H1663 N1659 0.985 . S
H1664 N1658 0.984 . S
H1665 N1658 0.984 . S
H1666 N1654 0.984 . S
H1667 N1654 0.985 . S
C1668 C1669 1.363 . S
C1668 C1674 1.379 . S
C1668 N1676 1.356 . S
C1669 C1668 1.363 . S
C1669 C1675 1.363 . S
C1670 C1671 1.363 . S
C1670 C1675 1.379 . S
C1670 N1677 1.356 . S
C1671 C1670 1.363 . S
C1671 C1674 1.363 . S
N1672 C1674 1.356 1_556 S
N1672 H1684 0.984 . S
N1672 H1685 0.985 . S
N1673 C1675 1.356 . S
N1673 H1678 0.984 . S
N1673 H1679 0.985 . S
C1674 C1668 1.379 . S
C1674 C1671 1.363 . S
C1674 N1672 1.356 1_554 S
C1675 C1669 1.363 . S
C1675 C1670 1.379 . S
C1675 N1673 1.356 . S
N1676 C1668 1.356 . S
N1676 H1682 0.984 1_554 S
N1676 H1683 0.984 . S
N1677 C1670 1.356 . S
N1677 H1680 0.984 . S
N1677 H1681 0.985 . S
H1678 N1673 0.984 . S
H1679 N1673 0.985 . S
H1680 N1677 0.984 . S
H1681 N1677 0.985 . S
H1682 N1676 0.984 1_556 S
H1683 N1676 0.984 . S
H1684 N1672 0.984 . S
H1685 N1672 0.985 . S
C1686 C1687 1.363 . S
C1686 C1692 1.379 . S
C1686 N1694 1.356 . S
C1687 C1686 1.363 . S
C1687 C1693 1.363 . S
C1688 C1689 1.363 . S
C1688 C1693 1.379 . S
C1688 N1695 1.356 . S
C1689 C1688 1.363 . S
C1689 C1692 1.363 . S
N1690 C1692 1.356 . S
N1690 H1702 0.984 . S
N1690 H1703 0.985 . S
N1691 C1693 1.356 . S
N1691 H1696 0.984 . S
N1691 H1697 0.985 . S
C1692 C1686 1.379 . S
C1692 C1689 1.363 . S
C1692 N1690 1.356 . S
C1693 C1687 1.363 . S
C1693 C1688 1.379 . S
C1693 N1691 1.356 . S
N1694 C1686 1.356 . S
N1694 H1700 0.984 . S
N1694 H1701 0.984 . S
N1695 C1688 1.356 . S
N1695 H1698 0.984 . S
N1695 H1699 0.985 . S
H1696 N1691 0.984 . S
H1697 N1691 0.985 . S
H1698 N1695 0.984 . S
H1699 N1695 0.985 . S
H1700 N1694 0.984 . S
H1701 N1694 0.984 . S
H1702 N1690 0.984 . S
H1703 N1690 0.985 . S
C1704 C1705 1.363 . S
C1704 C1710 1.379 . S
C1704 N1712 1.356 . S
C1705 C1704 1.363 . S
C1705 C1711 1.363 . S
C1706 C1707 1.363 . S
C1706 C1711 1.379 . S
C1706 N1713 1.356 1_556 S
C1707 C1706 1.363 . S
C1707 C1710 1.363 . S
N1708 C1710 1.356 . S
N1708 H1720 0.984 . S
N1708 H1721 0.985 . S
N1709 C1711 1.356 . S
N1709 H1714 0.984 . S
N1709 H1715 1.017 . S
C1710 C1704 1.379 . S
C1710 C1707 1.363 . S
C1710 N1708 1.356 . S
C1711 C1705 1.363 . S
C1711 C1706 1.379 . S
C1711 N1709 1.356 . S
N1712 C1704 1.356 . S
N1712 H1718 0.984 . S
N1712 H1719 0.984 . S
N1713 C1706 1.356 1_554 S
N1713 H1716 0.984 . S
N1713 H1717 0.985 . S
H1714 N1709 0.984 . S
H1715 N1709 1.017 . S
H1716 N1713 0.984 . S
H1717 N1713 0.985 . S
H1718 N1712 0.984 . S
H1719 N1712 0.984 . S
H1720 N1708 0.984 . S
H1721 N1708 0.985 . S
C1722 C1723 1.363 . S
C1722 C1728 1.379 . S
C1722 N1730 1.356 . S
C1723 C1722 1.363 . S
C1723 C1729 1.363 . S
C1724 C1725 1.363 . S
C1724 C1729 1.379 . S
C1724 N1731 1.356 . S
C1725 C1724 1.363 . S
C1725 C1728 1.363 . S
N1726 C1728 1.356 . S
N1726 H1738 0.984 . S
N1726 H1739 0.985 . S
N1727 C1729 1.356 . S
N1727 H1732 0.984 . S
N1727 H1733 0.985 . S
C1728 C1722 1.379 . S
C1728 C1725 1.363 . S
C1728 N1726 1.356 . S
C1729 C1723 1.363 . S
C1729 C1724 1.379 . S
C1729 N1727 1.356 . S
N1730 C1722 1.356 . S
N1730 H1736 0.984 . S
N1730 H1737 0.984 . S
N1731 C1724 1.356 . S
N1731 H1734 0.984 . S
N1731 H1735 0.985 . S
H1732 N1727 0.984 . S
H1733 N1727 0.985 . S
H1734 N1731 0.984 . S
H1735 N1731 0.985 . S
H1736 N1730 0.984 . S
H1737 N1730 0.984 . S
H1738 N1726 0.984 . S
H1739 N1726 0.985 . S
C1740 C1741 1.363 . S
C1740 C1746 1.379 . S
C1740 N1748 1.356 . S
C1741 C1740 1.363 . S
C1741 C1747 1.363 . S
C1742 C1743 1.363 . S
C1742 C1747 1.379 . S
C1742 N1749 1.356 . S
C1743 C1742 1.363 . S
C1743 C1746 1.363 . S
N1744 C1746 1.356 . S
N1744 H1756 0.984 . S
N1744 H1757 0.985 . S
N1745 C1747 1.356 . S
N1745 H1750 0.984 . S
N1745 H1751 0.985 . S
C1746 C1740 1.379 . S
C1746 C1743 1.363 . S
C1746 N1744 1.356 . S
C1747 C1741 1.363 . S
C1747 C1742 1.379 . S
C1747 N1745 1.356 . S
N1748 C1740 1.356 . S
N1748 H1754 0.984 . S
N1748 H1755 0.984 . S
N1749 C1742 1.356 . S
N1749 H1752 0.984 . S
N1749 H1753 0.985 . S
H1750 N1745 0.984 . S
H1751 N1745 0.985 . S
H1752 N1749 0.984 . S
H1753 N1749 0.985 . S
H1754 N1748 0.984 . S
H1755 N1748 0.984 . S
H1756 N1744 0.984 . S
H1757 N1744 0.985 . S
C1758 C1759 1.363 . S
C1758 C1764 1.379 . S
C1758 N1766 1.356 . S
C1759 C1758 1.363 . S
C1759 C1765 1.363 . S
C1760 C1761 1.363 . S
C1760 C1765 1.379 . S
C1760 N1767 1.356 . S
C1761 C1760 1.363 . S
C1761 C1764 1.363 . S
N1762 C1764 1.356 . S
N1762 H1774 0.984 . S
N1762 H1775 0.985 . S
N1763 C1765 1.356 . S
N1763 H1768 0.984 . S
N1763 H1769 0.985 . S
C1764 C1758 1.379 . S
C1764 C1761 1.363 . S
C1764 N1762 1.356 . S
C1765 C1759 1.363 . S
C1765 C1760 1.379 . S
C1765 N1763 1.356 . S
N1766 C1758 1.356 . S
N1766 H1772 0.984 . S
N1766 H1773 0.984 . S
N1767 C1760 1.356 . S
N1767 H1770 0.984 . S
N1767 H1771 0.985 . S
H1768 N1763 0.984 . S
H1769 N1763 0.985 . S
H1770 N1767 0.984 . S
H1771 N1767 0.985 . S
H1772 N1766 0.984 . S
H1773 N1766 0.984 . S
H1774 N1762 0.984 . S
H1775 N1762 0.985 . S
C1776 C1777 1.363 . S
C1776 C1782 1.379 . S
C1776 N1784 1.356 . S
C1777 C1776 1.363 . S
C1777 C1783 1.363 . S
C1778 C1779 1.363 . S
C1778 C1783 1.379 . S
C1778 N1785 1.356 . S
C1779 C1778 1.363 . S
C1779 C1782 1.363 . S
N1780 C1782 1.356 . S
N1780 H1792 0.984 . S
N1780 H1793 0.985 . S
N1781 C1783 1.356 . S
N1781 H1786 0.984 . S
N1781 H1787 0.985 . S
C1782 C1776 1.379 . S
C1782 C1779 1.363 . S
C1782 N1780 1.356 . S
C1783 C1777 1.363 . S
C1783 C1778 1.379 . S
C1783 N1781 1.356 . S
N1784 C1776 1.356 . S
N1784 H1790 0.984 . S
N1784 H1791 0.984 . S
N1785 C1778 1.356 . S
N1785 H1788 0.984 . S
N1785 H1789 0.985 . S
H1786 N1781 0.984 . S
H1787 N1781 0.985 . S
H1788 N1785 0.984 . S
H1789 N1785 0.985 . S
H1790 N1784 0.984 . S
H1791 N1784 0.984 . S
H1792 N1780 0.984 . S
H1793 N1780 0.985 . S
C1794 C1795 1.363 . S
C1794 C1800 1.379 . S
C1794 N1802 1.356 . S
C1795 C1794 1.363 . S
C1795 C1801 1.363 . S
C1796 C1797 1.363 . S
C1796 C1801 1.379 . S
C1796 N1803 1.356 . S
C1797 C1796 1.363 . S
C1797 C1800 1.363 . S
N1798 C1800 1.356 . S
N1798 H1810 0.984 . S
N1798 H1811 0.985 . S
N1799 C1801 1.356 . S
N1799 H1804 0.984 . S
N1799 H1805 0.985 . S
C1800 C1794 1.379 . S
C1800 C1797 1.363 . S
C1800 N1798 1.356 . S
C1801 C1795 1.363 . S
C1801 C1796 1.379 . S
C1801 N1799 1.356 . S
N1802 C1794 1.356 . S
N1802 H1808 0.984 . S
N1802 H1809 0.984 . S
N1803 C1796 1.356 . S
N1803 H1806 0.984 . S
N1803 H1807 0.985 . S
H1804 N1799 0.984 . S
H1805 N1799 0.985 . S
H1806 N1803 0.984 . S
H1807 N1803 0.985 . S
H1808 N1802 0.984 . S
H1809 N1802 0.984 . S
H1810 N1798 0.984 . S
H1811 N1798 0.985 . S
C1812 C1813 1.363 . S
C1812 C1818 1.379 . S
C1812 N1820 1.356 . S
C1813 C1812 1.363 . S
C1813 C1819 1.363 . S
C1814 C1815 1.363 . S
C1814 C1819 1.379 . S
C1814 N1821 1.356 . S
C1815 C1814 1.363 . S
C1815 C1818 1.363 . S
N1816 C1818 1.356 . S
N1816 H1828 0.984 . S
N1816 H1829 0.985 . S
N1817 C1819 1.356 . S
N1817 H1822 0.984 . S
N1817 H1823 0.985 . S
C1818 C1812 1.379 . S
C1818 C1815 1.363 . S
C1818 N1816 1.356 . S
C1819 C1813 1.363 . S
C1819 C1814 1.379 . S
C1819 N1817 1.356 . S
N1820 C1812 1.356 . S
N1820 H1826 0.984 . S
N1820 H1827 0.984 . S
N1821 C1814 1.356 . S
N1821 H1824 0.984 . S
N1821 H1825 0.985 . S
H1822 N1817 0.984 . S
H1823 N1817 0.985 . S
H1824 N1821 0.984 . S
H1825 N1821 0.985 . S
H1826 N1820 0.984 . S
H1827 N1820 0.984 . S
H1828 N1816 0.984 . S
H1829 N1816 0.985 . S
C1830 C1831 1.363 . S
C1830 C1836 1.379 . S
C1830 N1838 1.356 . S
C1831 C1830 1.363 . S
C1831 C1837 1.363 . S
C1832 C1833 1.363 . S
C1832 C1837 1.379 . S
C1832 N1839 1.356 . S
C1833 C1832 1.363 . S
C1833 C1836 1.363 . S
N1834 C1836 1.356 . S
N1834 H1846 0.984 . S
N1834 H1847 0.985 . S
N1835 C1837 1.356 . S
N1835 H1840 0.984 . S
N1835 H1841 0.985 . S
C1836 C1830 1.379 . S
C1836 C1833 1.363 . S
C1836 N1834 1.356 . S
C1837 C1831 1.363 . S
C1837 C1832 1.379 . S
C1837 N1835 1.356 . S
N1838 C1830 1.356 . S
N1838 H1844 0.984 . S
N1838 H1845 0.984 . S
N1839 C1832 1.356 . S
N1839 H1842 0.984 . S
N1839 H1843 0.985 . S
H1840 N1835 0.984 . S
H1841 N1835 0.985 . S
H1842 N1839 0.984 . S
H1843 N1839 0.985 . S
H1844 N1838 0.984 . S
H1845 N1838 0.984 . S
H1846 N1834 0.984 . S
H1847 N1834 0.985 . S
C1848 C1849 1.363 . S
C1848 C1854 1.379 . S
C1848 N1856 1.356 . S
C1849 C1848 1.363 . S
C1849 C1855 1.363 . S
C1850 C1851 1.363 . S
C1850 C1855 1.379 . S
C1850 N1857 1.356 . S
C1851 C1850 1.363 . S
C1851 C1854 1.363 . S
N1852 C1854 1.356 . S
N1852 H1864 0.984 . S
N1852 H1865 0.985 . S
N1853 C1855 1.356 . S
N1853 H1858 0.984 . S
N1853 H1859 0.985 . S
C1854 C1848 1.379 . S
C1854 C1851 1.363 . S
C1854 N1852 1.356 . S
C1855 C1849 1.363 . S
C1855 C1850 1.379 . S
C1855 N1853 1.356 . S
N1856 C1848 1.356 . S
N1856 H1862 0.984 . S
N1856 H1863 0.984 . S
N1857 C1850 1.356 . S
N1857 H1860 0.984 . S
N1857 H1861 0.985 . S
H1858 N1853 0.984 . S
H1859 N1853 0.985 . S
H1860 N1857 0.984 . S
H1861 N1857 0.985 . S
H1862 N1856 0.984 . S
H1863 N1856 0.984 . S
H1864 N1852 0.984 . S
H1865 N1852 0.985 . S
C1866 C1867 1.363 . S
C1866 C1872 1.379 . S
C1866 N1874 1.356 . S
C1867 C1866 1.363 . S
C1867 C1873 1.363 . S
C1868 C1869 1.363 . S
C1868 C1873 1.379 . S
C1868 N1875 1.356 . S
C1869 C1868 1.363 . S
C1869 C1872 1.363 . S
N1870 C1872 1.356 . S
N1870 H1882 0.984 . S
N1870 H1883 0.985 . S
N1871 C1873 1.356 . S
N1871 H1876 0.984 . S
N1871 H1877 0.985 . S
C1872 C1866 1.379 . S
C1872 C1869 1.363 . S
C1872 N1870 1.356 . S
C1873 C1867 1.363 . S
C1873 C1868 1.379 . S
C1873 N1871 1.356 . S
N1874 C1866 1.356 . S
N1874 H1880 0.984 . S
N1874 H1881 0.984 . S
N1875 C1868 1.356 . S
N1875 H1878 0.984 . S
N1875 H1879 0.985 . S
H1876 N1871 0.984 . S
H1877 N1871 0.985 . S
H1878 N1875 0.984 . S
H1879 N1875 0.985 . S
H1880 N1874 0.984 . S
H1881 N1874 0.984 . S
H1882 N1870 0.984 . S
H1883 N1870 0.985 . S
C1884 C1885 1.363 . S
C1884 C1890 1.379 . S
C1884 N1892 1.356 . S
C1885 C1884 1.363 . S
C1885 C1891 1.363 . S
C1886 C1887 1.363 . S
C1886 C1891 1.379 . S
C1886 N1893 1.356 . S
C1887 C1886 1.363 . S
C1887 C1890 1.363 . S
N1888 C1890 1.356 . S
N1888 H1900 0.984 . S
N1888 H1901 0.985 . S
N1889 C1891 1.356 . S
N1889 H1894 0.984 . S
N1889 H1895 0.985 . S
C1890 C1884 1.379 . S
C1890 C1887 1.363 . S
C1890 N1888 1.356 . S
C1891 C1885 1.363 . S
C1891 C1886 1.379 . S
C1891 N1889 1.356 . S
N1892 C1884 1.356 . S
N1892 H1898 0.984 . S
N1892 H1899 0.984 . S
N1893 C1886 1.356 . S
N1893 H1896 0.984 . S
N1893 H1897 0.985 . S
H1894 N1889 0.984 . S
H1895 N1889 0.985 . S
H1896 N1893 0.984 . S
H1897 N1893 0.985 . S
H1898 N1892 0.984 . S
H1899 N1892 0.984 . S
H1900 N1888 0.984 . S
H1901 N1888 0.985 . S
C1902 C1903 1.363 . S
C1902 C1908 1.379 . S
C1902 N1910 1.356 . S
C1903 C1902 1.363 . S
C1903 C1909 1.363 . S
C1904 C1905 1.363 . S
C1904 C1909 1.379 . S
C1904 N1911 1.356 . S
C1905 C1904 1.363 . S
C1905 C1908 1.363 . S
N1906 C1908 1.356 . S
N1906 H1918 0.984 . S
N1906 H1919 0.985 . S
N1907 C1909 1.356 . S
N1907 H1912 0.984 . S
N1907 H1913 0.985 . S
C1908 C1902 1.379 . S
C1908 C1905 1.363 . S
C1908 N1906 1.356 . S
C1909 C1903 1.363 . S
C1909 C1904 1.379 . S
C1909 N1907 1.356 . S
N1910 C1902 1.356 . S
N1910 H1916 0.984 . S
N1910 H1917 0.984 . S
N1911 C1904 1.356 . S
N1911 H1914 0.984 . S
N1911 H1915 0.985 . S
H1912 N1907 0.984 . S
H1913 N1907 0.985 . S
H1914 N1911 0.984 . S
H1915 N1911 0.985 . S
H1916 N1910 0.984 . S
H1917 N1910 0.984 . S
H1918 N1906 0.984 . S
H1919 N1906 0.985 . S
C1920 C1921 1.363 . S
C1920 C1926 1.379 . S
C1920 N1928 1.356 . S
C1921 C1920 1.363 . S
C1921 C1927 1.363 . S
C1922 C1923 1.363 . S
C1922 C1927 1.379 . S
C1922 N1929 1.356 . S
C1923 C1922 1.363 . S
C1923 C1926 1.363 . S
N1924 C1926 1.356 . S
N1924 H1936 0.984 . S
N1924 H1937 0.985 . S
N1925 C1927 1.356 . S
N1925 H1930 0.984 . S
N1925 H1931 0.985 . S
C1926 C1920 1.379 . S
C1926 C1923 1.363 . S
C1926 N1924 1.356 . S
C1927 C1921 1.363 . S
C1927 C1922 1.379 . S
C1927 N1925 1.356 . S
N1928 C1920 1.356 . S
N1928 H1934 0.984 . S
N1928 H1935 0.984 . S
N1929 C1922 1.356 . S
N1929 H1932 0.984 . S
N1929 H1933 0.985 . S
H1930 N1925 0.984 . S
H1931 N1925 0.985 . S
H1932 N1929 0.984 . S
H1933 N1929 0.985 . S
H1934 N1928 0.984 . S
H1935 N1928 0.984 . S
H1936 N1924 0.984 . S
H1937 N1924 0.985 . S
C1938 C1939 1.363 . S
C1938 C1944 1.379 . S
C1938 N1946 1.356 . S
C1939 C1938 1.363 . S
C1939 C1945 1.363 . S
C1940 C1941 1.363 . S
C1940 C1945 1.379 . S
C1940 N1947 1.356 . S
C1941 C1940 1.363 . S
C1941 C1944 1.363 . S
N1942 C1944 1.356 . S
N1942 H1954 0.984 . S
N1942 H1955 0.985 . S
N1943 C1945 1.356 . S
N1943 H1948 0.984 . S
N1943 H1949 0.985 . S
C1944 C1938 1.379 . S
C1944 C1941 1.363 . S
C1944 N1942 1.356 . S
C1945 C1939 1.363 . S
C1945 C1940 1.379 . S
C1945 N1943 1.356 . S
N1946 C1938 1.356 . S
N1946 H1952 0.984 . S
N1946 H1953 0.984 . S
N1947 C1940 1.356 . S
N1947 H1950 0.984 . S
N1947 H1951 0.985 . S
H1948 N1943 0.984 . S
H1949 N1943 0.985 . S
H1950 N1947 0.984 . S
H1951 N1947 0.985 . S
H1952 N1946 0.984 . S
H1953 N1946 0.984 . S
H1954 N1942 0.984 . S
H1955 N1942 0.985 . S
C1956 C1957 1.363 . S
C1956 C1962 1.379 . S
C1956 N1964 1.356 . S
C1957 C1956 1.363 . S
C1957 C1963 1.363 . S
C1958 C1959 1.363 . S
C1958 C1963 1.379 . S
C1958 N1965 1.356 . S
C1959 C1958 1.363 . S
C1959 C1962 1.363 . S
N1960 C1962 1.356 . S
N1960 H1972 0.984 . S
N1960 H1973 0.985 . S
N1961 C1963 1.356 . S
N1961 H1966 0.984 . S
N1961 H1967 0.985 . S
C1962 C1956 1.379 . S
C1962 C1959 1.363 . S
C1962 N1960 1.356 . S
C1963 C1957 1.363 . S
C1963 C1958 1.379 . S
C1963 N1961 1.356 . S
N1964 C1956 1.356 . S
N1964 H1970 0.984 . S
N1964 H1971 0.984 . S
N1965 C1958 1.356 . S
N1965 H1968 0.984 . S
N1965 H1969 0.985 . S
H1966 N1961 0.984 . S
H1967 N1961 0.985 . S
H1968 N1965 0.984 . S
H1969 N1965 0.985 . S
H1970 N1964 0.984 . S
H1971 N1964 0.984 . S
H1972 N1960 0.984 . S
H1973 N1960 0.985 . S
C1974 C1975 1.363 . S
C1974 C1980 1.379 . S
C1974 N1982 1.356 . S
C1975 C1974 1.363 . S
C1975 C1981 1.363 . S
C1976 C1977 1.363 . S
C1976 C1981 1.379 . S
C1976 N1983 1.356 . S
C1977 C1976 1.363 . S
C1977 C1980 1.363 . S
N1978 C1980 1.356 . S
N1978 H1990 0.984 . S
N1978 H1991 0.985 . S
N1979 C1981 1.356 . S
N1979 H1984 0.984 . S
N1979 H1985 0.985 . S
C1980 C1974 1.379 . S
C1980 C1977 1.363 . S
C1980 N1978 1.356 . S
C1981 C1975 1.363 . S
C1981 C1976 1.379 . S
C1981 N1979 1.356 . S
N1982 C1974 1.356 . S
N1982 H1988 0.984 . S
N1982 H1989 0.984 . S
N1983 C1976 1.356 . S
N1983 H1986 0.984 . S
N1983 H1987 0.985 . S
H1984 N1979 0.984 . S
H1985 N1979 0.985 . S
H1986 N1983 0.984 . S
H1987 N1983 0.985 . S
H1988 N1982 0.984 . S
H1989 N1982 0.984 . S
H1990 N1978 0.984 . S
H1991 N1978 0.985 . S
C1992 C1993 1.363 . S
C1992 C1998 1.379 . S
C1992 N2000 1.356 . S
C1993 C1992 1.363 . S
C1993 C1999 1.363 . S
C1994 C1995 1.363 . S
C1994 C1999 1.379 . S
C1994 N2001 1.356 . S
C1995 C1994 1.363 . S
C1995 C1998 1.363 . S
N1996 C1998 1.356 . S
N1996 H2008 0.984 . S
N1996 H2009 0.985 . S
N1997 C1999 1.356 . S
N1997 H2002 0.984 . S
N1997 H2003 0.985 . S
C1998 C1992 1.379 . S
C1998 C1995 1.363 . S
C1998 N1996 1.356 . S
C1999 C1993 1.363 . S
C1999 C1994 1.379 . S
C1999 N1997 1.356 . S
N2000 C1992 1.356 . S
N2000 H2006 0.984 . S
N2000 H2007 0.984 . S
N2001 C1994 1.356 . S
N2001 H2004 0.984 . S
N2001 H2005 0.985 . S
H2002 N1997 0.984 . S
H2003 N1997 0.985 . S
H2004 N2001 0.984 . S
H2005 N2001 0.985 . S
H2006 N2000 0.984 . S
H2007 N2000 0.984 . S
H2008 N1996 0.984 . S
H2009 N1996 0.985 . S
C2010 C2011 1.363 . S
C2010 C2016 1.379 . S
C2010 N2018 1.356 . S
C2011 C2010 1.363 . S
C2011 C2017 1.363 . S
C2012 C2013 1.363 . S
C2012 C2017 1.379 . S
C2012 N2019 1.356 . S
C2013 C2012 1.363 . S
C2013 C2016 1.363 . S
N2014 C2016 1.356 . S
N2014 H2026 0.984 . S
N2014 H2027 0.985 . S
N2015 C2017 1.356 . S
N2015 H2020 0.984 . S
N2015 H2021 0.985 . S
C2016 C2010 1.379 . S
C2016 C2013 1.363 . S
C2016 N2014 1.356 . S
C2017 C2011 1.363 . S
C2017 C2012 1.379 . S
C2017 N2015 1.356 . S
N2018 C2010 1.356 . S
N2018 H2024 0.984 . S
N2018 H2025 0.984 . S
N2019 C2012 1.356 . S
N2019 H2022 0.984 . S
N2019 H2023 0.985 . S
H2020 N2015 0.984 . S
H2021 N2015 0.985 . S
H2022 N2019 0.984 . S
H2023 N2019 0.985 . S
H2024 N2018 0.984 . S
H2025 N2018 0.984 . S
H2026 N2014 0.984 . S
H2027 N2014 0.985 . S
C2028 C2029 1.363 . S
C2028 C2034 1.379 . S
C2028 N2036 1.356 . S
C2029 C2028 1.363 . S
C2029 C2035 1.363 . S
C2030 C2031 1.363 . S
C2030 C2035 1.379 . S
C2030 N2037 1.356 . S
C2031 C2030 1.363 . S
C2031 C2034 1.363 . S
N2032 C2034 1.356 . S
N2032 H2044 0.984 . S
N2032 H2045 0.985 . S
N2033 C2035 1.356 . S
N2033 H2038 0.984 . S
N2033 H2039 0.985 . S
C2034 C2028 1.379 . S
C2034 C2031 1.363 . S
C2034 N2032 1.356 . S
C2035 C2029 1.363 . S
C2035 C2030 1.379 . S
C2035 N2033 1.356 . S
N2036 C2028 1.356 . S
N2036 H2042 0.984 . S
N2036 H2043 0.984 . S
N2037 C2030 1.356 . S
N2037 H2040 0.984 . S
N2037 H2041 0.985 . S
H2038 N2033 0.984 . S
H2039 N2033 0.985 . S
H2040 N2037 0.984 . S
H2041 N2037 0.985 . S
H2042 N2036 0.984 . S
H2043 N2036 0.984 . S
H2044 N2032 0.984 . S
H2045 N2032 0.985 . S
C2046 C2047 1.363 . S
C2046 C2052 1.379 . S
C2046 N2054 1.356 . S
C2047 C2046 1.363 . S
C2047 C2053 1.363 . S
C2048 C2049 1.363 . S
C2048 C2053 1.379 . S
C2048 N2055 1.356 . S
C2049 C2048 1.363 . S
C2049 C2052 1.363 . S
N2050 C2052 1.356 . S
N2050 H2062 0.984 . S
N2050 H2063 0.985 . S
N2051 C2053 1.356 . S
N2051 H2056 0.984 . S
N2051 H2057 0.985 . S
C2052 C2046 1.379 . S
C2052 C2049 1.363 . S
C2052 N2050 1.356 . S
C2053 C2047 1.363 . S
C2053 C2048 1.379 . S
C2053 N2051 1.356 . S
N2054 C2046 1.356 . S
N2054 H2060 0.984 . S
N2054 H2061 0.984 . S
N2055 C2048 1.356 . S
N2055 H2058 0.984 . S
N2055 H2059 0.985 . S
H2056 N2051 0.984 . S
H2057 N2051 0.985 . S
H2058 N2055 0.984 . S
H2059 N2055 0.985 . S
H2060 N2054 0.984 . S
H2061 N2054 0.984 . S
H2062 N2050 0.984 . S
H2063 N2050 0.985 . S
C2064 C2065 1.363 . S
C2064 C2070 1.379 . S
C2064 N2072 1.356 . S
C2065 C2064 1.363 . S
C2065 C2071 1.363 . S
C2066 C2067 1.363 . S
C2066 C2071 1.379 . S
C2066 N2073 1.356 . S
C2067 C2066 1.363 . S
C2067 C2070 1.363 . S
N2068 C2070 1.356 . S
N2068 H2080 0.984 . S
N2068 H2081 0.985 . S
N2069 C2071 1.356 . S
N2069 H2074 0.984 . S
N2069 H2075 0.985 . S
C2070 C2064 1.379 . S
C2070 C2067 1.363 . S
C2070 N2068 1.356 . S
C2071 C2065 1.363 . S
C2071 C2066 1.379 . S
C2071 N2069 1.356 . S
N2072 C2064 1.356 . S
N2072 H2078 0.984 . S
N2072 H2079 0.984 . S
N2073 C2066 1.356 . S
N2073 H2076 0.984 . S
N2073 H2077 0.985 1_554 S
H2074 N2069 0.984 . S
H2075 N2069 0.985 . S
H2076 N2073 0.984 . S
H2077 N2073 0.985 1_556 S
H2078 N2072 0.984 . S
H2079 N2072 0.984 . S
H2080 N2068 0.984 . S
H2081 N2068 0.985 . S
C2082 C2083 1.363 . S
C2082 C2088 1.379 . S
C2082 N2090 1.356 . S
C2083 C2082 1.363 . S
C2083 C2089 1.363 . S
C2084 C2085 1.363 . S
C2084 C2089 1.379 . S
C2084 N2091 1.356 . S
C2085 C2084 1.363 . S
C2085 C2088 1.363 . S
N2086 C2088 1.356 . S
N2086 H2098 0.984 . S
N2086 H2099 0.985 . S
N2087 C2089 1.356 . S
N2087 H2092 0.984 . S
N2087 H2093 0.985 . S
C2088 C2082 1.379 . S
C2088 C2085 1.363 . S
C2088 N2086 1.356 . S
C2089 C2083 1.363 . S
C2089 C2084 1.379 . S
C2089 N2087 1.356 . S
N2090 C2082 1.356 . S
N2090 H2096 0.984 . S
N2090 H2097 0.984 . S
N2091 C2084 1.356 . S
N2091 H2094 0.984 . S
N2091 H2095 0.985 . S
H2092 N2087 0.984 . S
H2093 N2087 0.985 . S
H2094 N2091 0.984 . S
H2095 N2091 0.985 . S
H2096 N2090 0.984 . S
H2097 N2090 0.984 . S
H2098 N2086 0.984 . S
H2099 N2086 0.985 . S
C2100 C2101 1.363 . S
C2100 C2106 1.379 . S
C2100 N2108 1.356 . S
C2101 C2100 1.363 . S
C2101 C2107 1.363 . S
C2102 C2103 1.363 . S
C2102 C2107 1.379 . S
C2102 N2109 1.356 . S
C2103 C2102 1.363 . S
C2103 C2106 1.363 . S
N2104 C2106 1.356 . S
N2104 H2116 0.984 . S
N2104 H2117 0.985 . S
N2105 C2107 1.356 . S
N2105 H2110 0.984 . S
N2105 H2111 0.985 . S
C2106 C2100 1.379 . S
C2106 C2103 1.363 . S
C2106 N2104 1.356 . S
C2107 C2101 1.363 . S
C2107 C2102 1.379 . S
C2107 N2105 1.356 . S
N2108 C2100 1.356 . S
N2108 H2114 0.984 . S
N2108 H2115 0.984 . S
N2109 C2102 1.356 . S
N2109 H2112 0.984 . S
N2109 H2113 0.985 . S
H2110 N2105 0.984 . S
H2111 N2105 0.985 . S
H2112 N2109 0.984 . S
H2113 N2109 0.985 . S
H2114 N2108 0.984 . S
H2115 N2108 0.984 . S
H2116 N2104 0.984 . S
H2117 N2104 0.985 . S
C2118 C2119 1.363 . S
C2118 C2124 1.379 . S
C2118 N2126 1.356 . S
C2119 C2118 1.363 . S
C2119 C2125 1.363 . S
C2120 C2121 1.363 . S
C2120 C2125 1.379 . S
C2120 N2127 1.356 . S
C2121 C2120 1.363 . S
C2121 C2124 1.363 . S
N2122 C2124 1.356 . S
N2122 H2134 0.984 . S
N2122 H2135 0.985 . S
N2123 C2125 1.356 . S
N2123 H2128 0.984 . S
N2123 H2129 0.985 . S
C2124 C2118 1.379 . S
C2124 C2121 1.363 . S
C2124 N2122 1.356 . S
C2125 C2119 1.363 . S
C2125 C2120 1.379 . S
C2125 N2123 1.356 . S
N2126 C2118 1.356 . S
N2126 H2132 0.984 . S
N2126 H2133 0.984 . S
N2127 C2120 1.356 . S
N2127 H2130 0.984 . S
N2127 H2131 0.985 . S
H2128 N2123 0.984 . S
H2129 N2123 0.985 . S
H2130 N2127 0.984 . S
H2131 N2127 0.985 . S
H2132 N2126 0.984 . S
H2133 N2126 0.984 . S
H2134 N2122 0.984 . S
H2135 N2122 0.985 . S
C2136 C2137 1.363 . S
C2136 C2142 1.379 . S
C2136 N2144 1.356 . S
C2137 C2136 1.363 . S
C2137 C2143 1.363 . S
C2138 C2139 1.363 . S
C2138 C2143 1.379 . S
C2138 N2145 1.356 . S
C2139 C2138 1.363 . S
C2139 C2142 1.363 . S
N2140 C2142 1.356 . S
N2140 H2152 0.984 . S
N2140 H2153 0.985 . S
N2141 C2143 1.356 . S
N2141 H2146 0.984 . S
N2141 H2147 0.985 . S
C2142 C2136 1.379 . S
C2142 C2139 1.363 . S
C2142 N2140 1.356 . S
C2143 C2137 1.363 . S
C2143 C2138 1.379 . S
C2143 N2141 1.356 . S
N2144 C2136 1.356 . S
N2144 H2150 0.984 . S
N2144 H2151 0.984 . S
N2145 C2138 1.356 . S
N2145 H2148 0.984 . S
N2145 H2149 0.985 . S
H2146 N2141 0.984 . S
H2147 N2141 0.985 . S
H2148 N2145 0.984 . S
H2149 N2145 0.985 . S
H2150 N2144 0.984 . S
H2151 N2144 0.984 . S
H2152 N2140 0.984 . S
H2153 N2140 0.985 . S
C2154 C2155 1.363 . S
C2154 C2160 1.379 . S
C2154 N2162 1.356 . S
C2155 C2154 1.363 . S
C2155 C2161 1.363 . S
C2156 C2157 1.363 . S
C2156 C2161 1.379 . S
C2156 N2163 1.356 . S
C2157 C2156 1.363 . S
C2157 C2160 1.363 . S
N2158 C2160 1.356 . S
N2158 H2170 0.984 . S
N2158 H2171 0.985 . S
N2159 C2161 1.356 . S
N2159 H2164 0.984 . S
N2159 H2165 0.985 . S
C2160 C2154 1.379 . S
C2160 C2157 1.363 . S
C2160 N2158 1.356 . S
C2161 C2155 1.363 . S
C2161 C2156 1.379 . S
C2161 N2159 1.356 . S
N2162 C2154 1.356 . S
N2162 H2168 0.984 . S
N2162 H2169 0.984 . S
N2163 C2156 1.356 . S
N2163 H2166 0.984 . S
N2163 H2167 0.985 . S
H2164 N2159 0.984 . S
H2165 N2159 0.985 . S
H2166 N2163 0.984 . S
H2167 N2163 0.985 . S
H2168 N2162 0.984 . S
H2169 N2162 0.984 . S
H2170 N2158 0.984 . S
H2171 N2158 0.985 . S
C2172 C2173 1.363 . S
C2172 C2178 1.379 . S
C2172 N2180 1.356 . S
C2173 C2172 1.363 . S
C2173 C2179 1.363 . S
C2174 C2175 1.363 . S
C2174 C2179 1.379 . S
C2174 N2181 1.356 . S
C2175 C2174 1.363 . S
C2175 C2178 1.363 . S
N2176 C2178 1.356 . S
N2176 H2188 0.984 . S
N2176 H2189 0.985 . S
N2177 C2179 1.356 . S
N2177 H2182 0.984 . S
N2177 H2183 1.025 . S
C2178 C2172 1.379 . S
C2178 C2175 1.363 . S
C2178 N2176 1.356 . S
C2179 C2173 1.363 . S
C2179 C2174 1.379 . S
C2179 N2177 1.356 . S
N2180 C2172 1.356 . S
N2180 H2186 0.984 . S
N2180 H2187 0.984 . S
N2181 C2174 1.356 . S
N2181 H2184 0.984 . S
N2181 H2185 0.985 1_655 S
H2182 N2177 0.984 . S
H2183 N2177 1.025 . S
H2184 N2181 0.984 . S
H2185 N2181 0.985 1_455 S
H2186 N2180 0.984 . S
H2187 N2180 0.984 . S
H2188 N2176 0.984 . S
H2189 N2176 0.985 . S
C2190 C2191 1.363 . S
C2190 C2196 1.379 . S
C2190 N2198 1.356 . S
C2191 C2190 1.363 . S
C2191 C2197 1.363 . S
C2192 C2193 1.363 . S
C2192 C2197 1.379 . S
C2192 N2199 1.356 . S
C2193 C2192 1.363 . S
C2193 C2196 1.363 . S
N2194 C2196 1.356 . S
N2194 H2206 0.984 . S
N2194 H2207 0.985 . S
N2195 C2197 1.356 . S
N2195 H2200 0.984 . S
N2195 H2201 0.985 . S
C2196 C2190 1.379 . S
C2196 C2193 1.363 . S
C2196 N2194 1.356 . S
C2197 C2191 1.363 . S
C2197 C2192 1.379 . S
C2197 N2195 1.356 . S
N2198 C2190 1.356 . S
N2198 H2204 0.984 . S
N2198 H2205 0.984 . S
N2199 C2192 1.356 . S
N2199 H2202 0.984 . S
N2199 H2203 0.985 . S
H2200 N2195 0.984 . S
H2201 N2195 0.985 . S
H2202 N2199 0.984 . S
H2203 N2199 0.985 . S
H2204 N2198 0.984 . S
H2205 N2198 0.984 . S
H2206 N2194 0.984 . S
H2207 N2194 0.985 . S
C2208 C2209 1.363 . S
C2208 C2214 1.379 . S
C2208 N2216 1.356 . S
C2209 C2208 1.363 . S
C2209 C2215 1.363 . S
C2210 C2211 1.363 . S
C2210 C2215 1.379 . S
C2210 N2217 1.356 . S
C2211 C2210 1.363 . S
C2211 C2214 1.363 . S
N2212 C2214 1.356 . S
N2212 H2224 0.983 . S
N2212 H2225 0.985 . S
N2213 C2215 1.356 . S
N2213 H2218 0.984 . S
N2213 H2219 0.985 . S
C2214 C2208 1.379 . S
C2214 C2211 1.363 . S
C2214 N2212 1.356 . S
C2215 C2209 1.363 . S
C2215 C2210 1.379 . S
C2215 N2213 1.356 . S
N2216 C2208 1.356 . S
N2216 H2222 0.984 . S
N2216 H2223 0.984 . S
N2217 C2210 1.356 . S
N2217 H2220 0.984 . S
N2217 H2221 0.985 . S
H2218 N2213 0.984 . S
H2219 N2213 0.985 . S
H2220 N2217 0.984 . S
H2221 N2217 0.985 . S
H2222 N2216 0.984 . S
H2223 N2216 0.984 . S
H2224 N2212 0.983 . S
H2225 N2212 0.985 . S
C2226 C2227 1.363 . S
C2226 C2232 1.379 . S
C2226 N2234 1.356 . S
C2227 C2226 1.363 . S
C2227 C2233 1.363 . S
C2228 C2229 1.363 . S
C2228 C2233 1.379 . S
C2228 N2235 1.356 . S
C2229 C2228 1.363 . S
C2229 C2232 1.363 . S
N2230 C2232 1.356 . S
N2230 H2242 0.984 . S
N2230 H2243 0.985 . S
N2231 C2233 1.356 . S
N2231 H2236 0.984 . S
N2231 H2237 0.985 . S
C2232 C2226 1.379 . S
C2232 C2229 1.363 . S
C2232 N2230 1.356 . S
C2233 C2227 1.363 . S
C2233 C2228 1.379 . S
C2233 N2231 1.356 . S
N2234 C2226 1.356 . S
N2234 H2240 0.984 . S
N2234 H2241 0.984 . S
N2235 C2228 1.356 . S
N2235 H2238 0.984 . S
N2235 H2239 0.985 . S
H2236 N2231 0.984 . S
H2237 N2231 0.985 . S
H2238 N2235 0.984 . S
H2239 N2235 0.985 . S
H2240 N2234 0.984 . S
H2241 N2234 0.984 . S
H2242 N2230 0.984 . S
H2243 N2230 0.985 . S
C2244 C2245 1.363 . S
C2244 C2250 1.379 . S
C2244 N2252 1.356 . S
C2245 C2244 1.363 . S
C2245 C2251 1.363 . S
C2246 C2247 1.363 . S
C2246 C2251 1.379 . S
C2246 N2253 1.356 . S
C2247 C2246 1.363 . S
C2247 C2250 1.363 . S
N2248 C2250 1.356 . S
N2248 H2260 0.984 . S
N2248 H2261 0.985 . S
N2249 C2251 1.356 . S
N2249 H2254 0.984 . S
N2249 H2255 0.985 . S
C2250 C2244 1.379 . S
C2250 C2247 1.363 . S
C2250 N2248 1.356 . S
C2251 C2245 1.363 . S
C2251 C2246 1.379 . S
C2251 N2249 1.356 . S
N2252 C2244 1.356 . S
N2252 H2258 0.984 . S
N2252 H2259 0.984 . S
N2253 C2246 1.356 . S
N2253 H2256 0.984 . S
N2253 H2257 0.985 . S
H2254 N2249 0.984 . S
H2255 N2249 0.985 . S
H2256 N2253 0.984 . S
H2257 N2253 0.985 . S
H2258 N2252 0.984 . S
H2259 N2252 0.984 . S
H2260 N2248 0.984 . S
H2261 N2248 0.985 . S
C2262 C2263 1.363 . S
C2262 C2268 1.379 . S
C2262 N2270 1.356 . S
C2263 C2262 1.363 . S
C2263 C2269 1.363 . S
C2264 C2265 1.363 . S
C2264 C2269 1.379 . S
C2264 N2271 1.356 . S
C2265 C2264 1.363 . S
C2265 C2268 1.363 . S
N2266 C2268 1.356 . S
N2266 H2278 0.984 . S
N2266 H2279 0.985 . S
N2267 C2269 1.356 . S
N2267 H2272 0.984 . S
N2267 H2273 0.985 . S
C2268 C2262 1.379 . S
C2268 C2265 1.363 . S
C2268 N2266 1.356 . S
C2269 C2263 1.363 . S
C2269 C2264 1.379 . S
C2269 N2267 1.356 . S
N2270 C2262 1.356 . S
N2270 H2276 0.984 . S
N2270 H2277 0.984 . S
N2271 C2264 1.356 . S
N2271 H2274 0.984 . S
N2271 H2275 0.985 . S
H2272 N2267 0.984 . S
H2273 N2267 0.985 . S
H2274 N2271 0.984 . S
H2275 N2271 0.985 . S
H2276 N2270 0.984 . S
H2277 N2270 0.984 . S
H2278 N2266 0.984 . S
H2279 N2266 0.985 . S
C2280 C2281 1.363 . S
C2280 C2286 1.379 . S
C2280 N2288 1.356 . S
C2281 C2280 1.363 . S
C2281 C2287 1.363 . S
C2282 C2283 1.363 . S
C2282 C2287 1.379 . S
C2282 N2289 1.356 . S
C2283 C2282 1.363 . S
C2283 C2286 1.363 . S
N2284 C2286 1.356 . S
N2284 H2296 0.984 . S
N2284 H2297 0.985 . S
N2285 C2287 1.356 . S
N2285 H2290 0.984 . S
N2285 H2291 0.985 . S
C2286 C2280 1.379 . S
C2286 C2283 1.363 . S
C2286 N2284 1.356 . S
C2287 C2281 1.363 . S
C2287 C2282 1.379 . S
C2287 N2285 1.356 . S
N2288 C2280 1.356 . S
N2288 H2294 0.984 . S
N2288 H2295 0.984 . S
N2289 C2282 1.356 . S
N2289 H2292 0.984 . S
N2289 H2293 0.985 . S
H2290 N2285 0.984 . S
H2291 N2285 0.985 . S
H2292 N2289 0.984 . S
H2293 N2289 0.985 . S
H2294 N2288 0.984 . S
H2295 N2288 0.984 . S
H2296 N2284 0.984 . S
H2297 N2284 0.985 . S
C2298 C2299 1.363 . S
C2298 C2304 1.379 . S
C2298 N2306 1.356 . S
C2299 C2298 1.363 . S
C2299 C2305 1.363 . S
C2300 C2301 1.363 . S
C2300 C2305 1.379 . S
C2300 N2307 1.356 . S
C2301 C2300 1.363 . S
C2301 C2304 1.363 . S
N2302 C2304 1.356 . S
N2302 H2314 0.984 . S
N2302 H2315 0.985 . S
N2303 C2305 1.356 . S
N2303 H2308 0.984 . S
N2303 H2309 0.985 . S
C2304 C2298 1.379 . S
C2304 C2301 1.363 . S
C2304 N2302 1.356 . S
C2305 C2299 1.363 . S
C2305 C2300 1.379 . S
C2305 N2303 1.356 . S
N2306 C2298 1.356 . S
N2306 H2312 0.984 . S
N2306 H2313 0.984 . S
N2307 C2300 1.356 . S
N2307 H2310 0.984 . S
N2307 H2311 0.985 . S
H2308 N2303 0.984 . S
H2309 N2303 0.985 . S
H2310 N2307 0.984 . S
H2311 N2307 0.985 . S
H2312 N2306 0.984 . S
H2313 N2306 0.984 . S
H2314 N2302 0.984 . S
H2315 N2302 0.985 . S
C2316 C2317 1.363 . S
C2316 C2322 1.379 . S
C2316 N2324 1.356 . S
C2317 C2316 1.363 . S
C2317 C2323 1.363 . S
C2318 C2319 1.363 . S
C2318 C2323 1.379 . S
C2318 N2325 1.356 . S
C2319 C2318 1.363 . S
C2319 C2322 1.363 . S
N2320 C2322 1.356 . S
N2320 H2332 0.984 . S
N2320 H2333 0.985 . S
N2321 C2323 1.356 . S
N2321 H2326 0.984 . S
N2321 H2327 0.985 . S
C2322 C2316 1.379 . S
C2322 C2319 1.363 . S
C2322 N2320 1.356 . S
C2323 C2317 1.363 . S
C2323 C2318 1.379 . S
C2323 N2321 1.356 . S
N2324 C2316 1.356 . S
N2324 H2330 0.984 . S
N2324 H2331 0.984 . S
N2325 C2318 1.356 . S
N2325 H2328 0.984 . S
N2325 H2329 0.985 . S
H2326 N2321 0.984 . S
H2327 N2321 0.985 . S
H2328 N2325 0.984 . S
H2329 N2325 0.985 . S
H2330 N2324 0.984 . S
H2331 N2324 0.984 . S
H2332 N2320 0.984 . S
H2333 N2320 0.985 . S
C2334 C2335 1.363 . S
C2334 C2340 1.379 . S
C2334 N2342 1.356 . S
C2335 C2334 1.363 . S
C2335 C2341 1.363 . S
C2336 C2337 1.363 . S
C2336 C2341 1.379 . S
C2336 N2343 1.356 . S
C2337 C2336 1.363 . S
C2337 C2340 1.363 . S
N2338 C2340 1.356 . S
N2338 H2350 0.984 . S
N2338 H2351 0.985 . S
N2339 C2341 1.356 . S
N2339 H2344 0.984 . S
N2339 H2345 0.985 . S
C2340 C2334 1.379 . S
C2340 C2337 1.363 . S
C2340 N2338 1.356 . S
C2341 C2335 1.363 . S
C2341 C2336 1.379 . S
C2341 N2339 1.356 . S
N2342 C2334 1.356 . S
N2342 H2348 0.984 . S
N2342 H2349 0.984 . S
N2343 C2336 1.356 . S
N2343 H2346 0.984 . S
N2343 H2347 0.985 . S
H2344 N2339 0.984 . S
H2345 N2339 0.985 . S
H2346 N2343 0.984 . S
H2347 N2343 0.985 . S
H2348 N2342 0.984 . S
H2349 N2342 0.984 . S
H2350 N2338 0.984 . S
H2351 N2338 0.985 . S
C2352 C2353 1.363 . S
C2352 C2358 1.379 . S
C2352 N2360 1.356 . S
C2353 C2352 1.363 . S
C2353 C2359 1.363 . S
C2354 C2355 1.363 . S
C2354 C2359 1.379 . S
C2354 N2361 1.356 . S
C2355 C2354 1.363 . S
C2355 C2358 1.363 . S
N2356 C2358 1.356 . S
N2356 H2368 0.984 . S
N2356 H2369 0.985 . S
N2357 C2359 1.356 . S
N2357 H2362 0.984 . S
N2357 H2363 0.985 . S
C2358 C2352 1.379 . S
C2358 C2355 1.363 . S
C2358 N2356 1.356 . S
C2359 C2353 1.363 . S
C2359 C2354 1.379 . S
C2359 N2357 1.356 . S
N2360 C2352 1.356 . S
N2360 H2366 0.984 . S
N2360 H2367 0.984 . S
N2361 C2354 1.356 . S
N2361 H2364 0.984 . S
N2361 H2365 0.985 . S
H2362 N2357 0.984 . S
H2363 N2357 0.985 . S
H2364 N2361 0.984 . S
H2365 N2361 0.985 . S
H2366 N2360 0.984 . S
H2367 N2360 0.984 . S
H2368 N2356 0.984 . S
H2369 N2356 0.985 . S
C2370 C2371 1.363 . S
C2370 C2376 1.379 . S
C2370 N2378 1.356 . S
C2371 C2370 1.363 . S
C2371 C2377 1.363 . S
C2372 C2373 1.363 . S
C2372 C2377 1.379 . S
C2372 N2379 1.356 . S
C2373 C2372 1.363 . S
C2373 C2376 1.363 . S
N2374 C2376 1.356 . S
N2374 H2386 0.984 . S
N2374 H2387 0.985 . S
N2375 C2377 1.356 . S
N2375 H2380 0.984 . S
N2375 H2381 0.985 . S
C2376 C2370 1.379 . S
C2376 C2373 1.363 . S
C2376 N2374 1.356 . S
C2377 C2371 1.363 . S
C2377 C2372 1.379 . S
C2377 N2375 1.356 . S
N2378 C2370 1.356 . S
N2378 H2384 0.984 . S
N2378 H2385 0.984 . S
N2379 C2372 1.356 . S
N2379 H2382 0.984 . S
N2379 H2383 0.985 . S
H2380 N2375 0.984 . S
H2381 N2375 0.985 . S
H2382 N2379 0.984 . S
H2383 N2379 0.985 . S
H2384 N2378 0.984 . S
H2385 N2378 0.984 . S
H2386 N2374 0.984 . S
H2387 N2374 0.985 . S
C2388 C2389 1.363 . S
C2388 C2394 1.379 . S
C2388 N2396 1.356 . S
C2389 C2388 1.363 . S
C2389 C2395 1.363 . S
C2390 C2391 1.363 . S
C2390 C2395 1.379 . S
C2390 N2397 1.356 . S
C2391 C2390 1.363 . S
C2391 C2394 1.363 . S
N2392 C2394 1.356 . S
N2392 H2404 0.984 . S
N2392 H2405 0.985 . S
N2393 C2395 1.356 . S
N2393 H2398 0.984 . S
N2393 H2399 0.985 . S
C2394 C2388 1.379 . S
C2394 C2391 1.363 . S
C2394 N2392 1.356 . S
C2395 C2389 1.363 . S
C2395 C2390 1.379 . S
C2395 N2393 1.356 . S
N2396 C2388 1.356 . S
N2396 H2402 0.984 . S
N2396 H2403 0.984 . S
N2397 C2390 1.356 . S
N2397 H2400 0.984 . S
N2397 H2401 0.985 . S
H2398 N2393 0.984 . S
H2399 N2393 0.985 . S
H2400 N2397 0.984 . S
H2401 N2397 0.985 . S
H2402 N2396 0.984 . S
H2403 N2396 0.984 . S
H2404 N2392 0.984 . S
H2405 N2392 0.985 . S
C2406 C2407 1.363 . S
C2406 C2412 1.379 . S
C2406 N2414 1.356 . S
C2407 C2406 1.363 . S
C2407 C2413 1.363 . S
C2408 C2409 1.363 . S
C2408 C2413 1.379 . S
C2408 N2415 1.356 . S
C2409 C2408 1.363 . S
C2409 C2412 1.363 . S
N2410 C2412 1.356 . S
N2410 H2422 0.984 . S
N2410 H2423 0.985 . S
N2411 C2413 1.356 . S
N2411 H2416 0.984 . S
N2411 H2417 0.985 1_556 S
C2412 C2406 1.379 . S
C2412 C2409 1.363 . S
C2412 N2410 1.356 . S
C2413 C2407 1.363 . S
C2413 C2408 1.379 . S
C2413 N2411 1.356 . S
N2414 C2406 1.356 . S
N2414 H2420 0.984 . S
N2414 H2421 0.984 . S
N2415 C2408 1.356 . S
N2415 H2418 0.984 . S
N2415 H2419 0.941 1_556 S
H2416 N2411 0.984 . S
H2417 N2411 0.985 1_554 S
H2418 N2415 0.984 . S
H2419 N2415 0.941 1_554 S
H2420 N2414 0.984 . S
H2421 N2414 0.984 . S
H2422 N2410 0.984 . S
H2423 N2410 0.985 . S
C2424 C2425 1.363 . S
C2424 C2430 1.379 . S
C2424 N2432 1.356 . S
C2425 C2424 1.363 . S
C2425 C2431 1.363 . S
C2426 C2427 1.363 . S
C2426 C2431 1.379 . S
C2426 N2433 1.356 . S
C2427 C2426 1.363 . S
C2427 C2430 1.363 . S
N2428 C2430 1.356 . S
N2428 H2440 0.984 . S
N2428 H2441 0.985 . S
N2429 C2431 1.356 . S
N2429 H2434 0.984 . S
N2429 H2435 0.985 . S
C2430 C2424 1.379 . S
C2430 C2427 1.363 . S
C2430 N2428 1.356 . S
C2431 C2425 1.363 . S
C2431 C2426 1.379 . S
C2431 N2429 1.356 . S
N2432 C2424 1.356 . S
N2432 H2438 0.984 . S
N2432 H2439 0.984 . S
N2433 C2426 1.356 . S
N2433 H2436 0.984 . S
N2433 H2437 0.985 . S
H2434 N2429 0.984 . S
H2435 N2429 0.985 . S
H2436 N2433 0.984 . S
H2437 N2433 0.985 . S
H2438 N2432 0.984 . S
H2439 N2432 0.984 . S
H2440 N2428 0.984 . S
H2441 N2428 0.985 . S
C2442 C2443 1.363 . S
C2442 C2448 1.379 . S
C2442 N2450 1.356 . S
C2443 C2442 1.363 . S
C2443 C2449 1.363 . S
C2444 C2445 1.363 . S
C2444 C2449 1.379 . S
C2444 N2451 1.356 . S
C2445 C2444 1.363 . S
C2445 C2448 1.363 . S
N2446 C2448 1.356 . S
N2446 H2458 0.984 . S
N2446 H2459 0.985 . S
N2447 C2449 1.356 . S
N2447 H2452 0.984 . S
N2447 H2453 0.985 . S
C2448 C2442 1.379 . S
C2448 C2445 1.363 . S
C2448 N2446 1.356 . S
C2449 C2443 1.363 . S
C2449 C2444 1.379 . S
C2449 N2447 1.356 . S
N2450 C2442 1.356 . S
N2450 H2456 0.984 . S
N2450 H2457 0.984 . S
N2451 C2444 1.356 . S
N2451 H2454 0.984 . S
N2451 H2455 0.985 . S
H2452 N2447 0.984 . S
H2453 N2447 0.985 . S
H2454 N2451 0.984 . S
H2455 N2451 0.985 . S
H2456 N2450 0.984 . S
H2457 N2450 0.984 . S
H2458 N2446 0.984 . S
H2459 N2446 0.985 . S
C2460 C2461 1.363 . S
C2460 C2466 1.379 . S
C2460 N2468 1.356 . S
C2461 C2460 1.363 . S
C2461 C2467 1.363 . S
C2462 C2463 1.363 . S
C2462 C2467 1.379 . S
C2462 N2469 1.356 . S
C2463 C2462 1.363 . S
C2463 C2466 1.363 . S
N2464 C2466 1.356 . S
N2464 H2476 0.984 . S
N2464 H2477 0.985 . S
N2465 C2467 1.356 . S
N2465 H2470 0.984 . S
N2465 H2471 0.985 . S
C2466 C2460 1.379 . S
C2466 C2463 1.363 . S
C2466 N2464 1.356 . S
C2467 C2461 1.363 . S
C2467 C2462 1.379 . S
C2467 N2465 1.356 . S
N2468 C2460 1.356 . S
N2468 H2474 0.984 . S
N2468 H2475 0.984 . S
N2469 C2462 1.356 . S
N2469 H2472 0.984 . S
N2469 H2473 0.985 . S
H2470 N2465 0.984 . S
H2471 N2465 0.985 . S
H2472 N2469 0.984 . S
H2473 N2469 0.985 . S
H2474 N2468 0.984 . S
H2475 N2468 0.984 . S
H2476 N2464 0.984 . S
H2477 N2464 0.985 . S
C2478 C2479 1.363 . S
C2478 C2484 1.379 . S
C2478 N2486 1.356 . S
C2479 C2478 1.363 . S
C2479 C2485 1.363 . S
C2480 C2481 1.363 . S
C2480 C2485 1.379 . S
C2480 N2487 1.356 . S
C2481 C2480 1.363 . S
C2481 C2484 1.363 . S
N2482 C2484 1.356 . S
N2482 H2494 0.984 . S
N2482 H2495 0.985 . S
N2483 C2485 1.356 . S
N2483 H2488 0.984 . S
N2483 H2489 0.985 . S
C2484 C2478 1.379 . S
C2484 C2481 1.363 . S
C2484 N2482 1.356 . S
C2485 C2479 1.363 . S
C2485 C2480 1.379 . S
C2485 N2483 1.356 . S
N2486 C2478 1.356 . S
N2486 H2492 0.984 . S
N2486 H2493 0.984 . S
N2487 C2480 1.356 . S
N2487 H2490 0.984 . S
N2487 H2491 0.985 . S
H2488 N2483 0.984 . S
H2489 N2483 0.985 . S
H2490 N2487 0.984 . S
H2491 N2487 0.985 . S
H2492 N2486 0.984 . S
H2493 N2486 0.984 . S
H2494 N2482 0.984 . S
H2495 N2482 0.985 . S
C2496 C2497 1.363 . S
C2496 C2502 1.379 . S
C2496 N2504 1.356 . S
C2497 C2496 1.363 . S
C2497 C2503 1.363 1_455 S
C2498 C2499 1.363 . S
C2498 C2503 1.379 . S
C2498 N2505 1.356 . S
C2499 C2498 1.363 . S
C2499 C2502 1.363 1_655 S
N2500 C2502 1.356 . S
N2500 H2512 0.984 . S
N2500 H2513 0.985 . S
N2501 C2503 1.356 . S
N2501 H2506 0.984 . S
N2501 H2507 0.985 . S
C2502 C2496 1.379 . S
C2502 C2499 1.363 1_455 S
C2502 N2500 1.356 . S
C2503 C2497 1.363 1_655 S
C2503 C2498 1.379 . S
C2503 N2501 1.356 . S
N2504 C2496 1.356 . S
N2504 H2510 0.984 . S
N2504 H2511 0.984 . S
N2505 C2498 1.356 . S
N2505 H2508 0.984 . S
N2505 H2509 0.985 . S
H2506 N2501 0.984 . S
H2507 N2501 0.985 . S
H2508 N2505 0.984 . S
H2509 N2505 0.985 . S
H2510 N2504 0.984 . S
H2511 N2504 0.984 . S
H2512 N2500 0.984 . S
H2513 N2500 0.985 . S
C2514 C2515 1.363 . S
C2514 C2520 1.379 1_455 S
C2514 N2522 1.356 . S
C2515 C2514 1.363 . S
C2515 C2521 1.363 . S
C2516 C2517 1.363 . S
C2516 C2521 1.379 1_655 S
C2516 N2523 1.356 . S
C2517 C2516 1.363 . S
C2517 C2520 1.363 . S
N2518 C2520 1.356 . S
N2518 H2530 0.984 . S
N2518 H2531 0.985 . S
N2519 C2521 1.356 . S
N2519 H2524 0.984 . S
N2519 H2525 0.985 . S
C2520 C2514 1.379 1_655 S
C2520 C2517 1.363 . S
C2520 N2518 1.356 . S
C2521 C2515 1.363 . S
C2521 C2516 1.379 1_455 S
C2521 N2519 1.356 . S
N2522 C2514 1.356 . S
N2522 H2528 0.984 . S
N2522 H2529 0.984 . S
N2523 C2516 1.356 . S
N2523 H2526 0.984 . S
N2523 H2527 0.985 . S
H2524 N2519 0.984 . S
H2525 N2519 0.985 . S
H2526 N2523 0.984 . S
H2527 N2523 0.985 . S
H2528 N2522 0.984 . S
H2529 N2522 0.984 . S
H2530 N2518 0.984 . S
H2531 N2518 0.985 . S
C2532 C2533 1.363 . S
C2532 C2538 1.379 . S
C2532 N2540 1.356 . S
C2533 C2532 1.363 . S
C2533 C2539 1.363 . S
C2534 C2535 1.363 . S
C2534 C2539 1.379 . S
C2534 N2541 1.356 . S
C2535 C2534 1.363 . S
C2535 C2538 1.363 . S
N2536 C2538 1.356 . S
N2536 H2548 0.984 . S
N2536 H2549 0.985 . S
N2537 C2539 1.356 . S
N2537 H2542 0.984 . S
N2537 H2543 0.985 . S
C2538 C2532 1.379 . S
C2538 C2535 1.363 . S
C2538 N2536 1.356 . S
C2539 C2533 1.363 . S
C2539 C2534 1.379 . S
C2539 N2537 1.356 . S
N2540 C2532 1.356 . S
N2540 H2546 0.984 . S
N2540 H2547 0.984 . S
N2541 C2534 1.356 . S
N2541 H2544 0.984 . S
N2541 H2545 0.985 . S
H2542 N2537 0.984 . S
H2543 N2537 0.985 . S
H2544 N2541 0.984 . S
H2545 N2541 0.985 . S
H2546 N2540 0.984 . S
H2547 N2540 0.984 . S
H2548 N2536 0.984 . S
H2549 N2536 0.985 . S
C2550 C2551 1.363 . S
C2550 C2556 1.379 . S
C2550 N2558 1.356 . S
C2551 C2550 1.363 . S
C2551 C2557 1.363 . S
C2552 C2553 1.363 . S
C2552 C2557 1.379 . S
C2552 N2559 1.356 . S
C2553 C2552 1.363 . S
C2553 C2556 1.363 . S
N2554 C2556 1.356 . S
N2554 H2566 0.984 . S
N2554 H2567 0.985 . S
N2555 C2557 1.356 . S
N2555 H2560 0.984 . S
N2555 H2561 0.985 . S
C2556 C2550 1.379 . S
C2556 C2553 1.363 . S
C2556 N2554 1.356 . S
C2557 C2551 1.363 . S
C2557 C2552 1.379 . S
C2557 N2555 1.356 . S
N2558 C2550 1.356 . S
N2558 H2564 0.984 . S
N2558 H2565 0.984 . S
N2559 C2552 1.356 . S
N2559 H2562 0.984 . S
N2559 H2563 0.985 . S
H2560 N2555 0.984 . S
H2561 N2555 0.985 . S
H2562 N2559 0.984 . S
H2563 N2559 0.985 . S
H2564 N2558 0.984 . S
H2565 N2558 0.984 . S
H2566 N2554 0.984 . S
H2567 N2554 0.985 . S
C2568 C2569 1.363 1_455 S
C2568 C2574 1.379 . S
C2568 N2576 1.356 . S
C2569 C2568 1.363 1_655 S
C2569 C2575 1.363 . S
C2570 C2571 1.363 1_655 S
C2570 C2575 1.379 . S
C2570 N2577 1.356 . S
C2571 C2570 1.363 1_455 S
C2571 C2574 1.363 . S
N2572 C2574 1.356 . S
N2572 H2584 0.984 . S
N2572 H2585 0.985 . S
N2573 C2575 1.356 . S
N2573 H2578 0.984 . S
N2573 H2579 0.985 . S
C2574 C2568 1.379 . S
C2574 C2571 1.363 . S
C2574 N2572 1.356 . S
C2575 C2569 1.363 . S
C2575 C2570 1.379 . S
C2575 N2573 1.356 . S
N2576 C2568 1.356 . S
N2576 H2582 0.984 . S
N2576 H2583 0.984 . S
N2577 C2570 1.356 . S
N2577 H2580 0.984 . S
N2577 H2581 0.985 . S
H2578 N2573 0.984 . S
H2579 N2573 0.985 . S
H2580 N2577 0.984 . S
H2581 N2577 0.985 . S
H2582 N2576 0.984 . S
H2583 N2576 0.984 . S
H2584 N2572 0.984 . S
H2585 N2572 0.985 . S
C2586 C2587 1.363 . S
C2586 C2592 1.379 . S
C2586 N2594 1.356 . S
C2587 C2586 1.363 . S
C2587 C2593 1.363 . S
C2588 C2589 1.363 . S
C2588 C2593 1.379 . S
C2588 N2595 1.356 . S
C2589 C2588 1.363 . S
C2589 C2592 1.363 . S
N2590 C2592 1.356 . S
N2590 H2602 0.984 . S
N2590 H2603 0.985 . S
N2591 C2593 1.356 . S
N2591 H2596 0.984 . S
N2591 H2597 0.985 . S
C2592 C2586 1.379 . S
C2592 C2589 1.363 . S
C2592 N2590 1.356 . S
C2593 C2587 1.363 . S
C2593 C2588 1.379 . S
C2593 N2591 1.356 . S
N2594 C2586 1.356 . S
N2594 H2600 0.984 . S
N2594 H2601 0.984 . S
N2595 C2588 1.356 . S
N2595 H2598 0.984 . S
N2595 H2599 0.985 . S
H2596 N2591 0.984 . S
H2597 N2591 0.985 . S
H2598 N2595 0.984 . S
H2599 N2595 0.985 . S
H2600 N2594 0.984 . S
H2601 N2594 0.984 . S
H2602 N2590 0.984 . S
H2603 N2590 0.985 . S
C2604 C2605 1.363 . S
C2604 C2610 1.379 . S
C2604 N2612 1.356 . S
C2605 C2604 1.363 . S
C2605 C2611 1.363 . S
C2606 C2607 1.363 . S
C2606 C2611 1.379 . S
C2606 N2613 1.356 . S
C2607 C2606 1.363 . S
C2607 C2610 1.363 . S
N2608 C2610 1.356 . S
N2608 H2620 0.984 . S
N2608 H2621 0.985 . S
N2609 C2611 1.356 . S
N2609 H2614 0.984 . S
N2609 H2615 0.985 . S
C2610 C2604 1.379 . S
C2610 C2607 1.363 . S
C2610 N2608 1.356 . S
C2611 C2605 1.363 . S
C2611 C2606 1.379 . S
C2611 N2609 1.356 . S
N2612 C2604 1.356 . S
N2612 H2618 0.984 . S
N2612 H2619 0.984 . S
N2613 C2606 1.356 . S
N2613 H2616 0.984 . S
N2613 H2617 0.985 . S
H2614 N2609 0.984 . S
H2615 N2609 0.985 . S
H2616 N2613 0.984 . S
H2617 N2613 0.985 . S
H2618 N2612 0.984 . S
H2619 N2612 0.984 . S
H2620 N2608 0.984 . S
H2621 N2608 0.985 . S
C2622 C2623 1.363 . S
C2622 C2628 1.379 1_655 S
C2622 N2630 1.356 . S
C2623 C2622 1.363 . S
C2623 C2629 1.363 . S
C2624 C2625 1.363 . S
C2624 C2629 1.379 1_455 S
C2624 N2631 1.356 . S
C2625 C2624 1.363 . S
C2625 C2628 1.363 . S
N2626 C2628 1.356 . S
N2626 H2638 0.984 . S
N2626 H2639 0.985 . S
N2627 C2629 1.356 . S
N2627 H2632 0.984 . S
N2627 H2633 0.985 . S
C2628 C2622 1.379 1_455 S
C2628 C2625 1.363 . S
C2628 N2626 1.356 . S
C2629 C2623 1.363 . S
C2629 C2624 1.379 1_655 S
C2629 N2627 1.356 . S
N2630 C2622 1.356 . S
N2630 H2636 0.984 . S
N2630 H2637 0.984 . S
N2631 C2624 1.356 . S
N2631 H2634 0.984 . S
N2631 H2635 0.985 . S
H2632 N2627 0.984 . S
H2633 N2627 0.985 . S
H2634 N2631 0.984 . S
H2635 N2631 0.985 . S
H2636 N2630 0.984 . S
H2637 N2630 0.984 . S
H2638 N2626 0.984 . S
H2639 N2626 0.985 . S
C2640 C2641 1.363 . S
C2640 C2646 1.379 . S
C2640 N2648 1.356 . S
C2641 C2640 1.363 . S
C2641 C2647 1.363 1_545 S
C2642 C2643 1.363 . S
C2642 C2647 1.379 . S
C2642 N2649 1.356 . S
C2643 C2642 1.363 . S
C2643 C2646 1.363 1_565 S
N2644 C2646 1.356 . S
N2644 H2656 0.984 . S
N2644 H2657 0.985 . S
N2645 C2647 1.356 . S
N2645 H2650 0.984 . S
N2645 H2651 0.985 . S
C2646 C2640 1.379 . S
C2646 C2643 1.363 1_545 S
C2646 N2644 1.356 . S
C2647 C2641 1.363 1_565 S
C2647 C2642 1.379 . S
C2647 N2645 1.356 . S
N2648 C2640 1.356 . S
N2648 H2654 0.984 . S
N2648 H2655 0.984 . S
N2649 C2642 1.356 . S
N2649 H2652 0.984 . S
N2649 H2653 0.985 . S
H2650 N2645 0.984 . S
H2651 N2645 0.985 . S
H2652 N2649 0.984 . S
H2653 N2649 0.985 . S
H2654 N2648 0.984 . S
H2655 N2648 0.984 . S
H2656 N2644 0.984 . S
H2657 N2644 0.985 . S
C2658 C2659 1.363 . S
C2658 C2664 1.379 . S
C2658 N2666 1.356 . S
C2659 C2658 1.363 . S
C2659 C2665 1.363 . S
C2660 C2661 1.363 . S
C2660 C2665 1.379 . S
C2660 N2667 1.356 . S
C2661 C2660 1.363 . S
C2661 C2664 1.363 . S
N2662 C2664 1.356 . S
N2662 H2674 0.984 . S
N2662 H2675 0.985 . S
N2663 C2665 1.356 . S
N2663 H2668 0.984 . S
N2663 H2669 0.985 . S
C2664 C2658 1.379 . S
C2664 C2661 1.363 . S
C2664 N2662 1.356 . S
C2665 C2659 1.363 . S
C2665 C2660 1.379 . S
C2665 N2663 1.356 . S
N2666 C2658 1.356 . S
N2666 H2672 0.984 . S
N2666 H2673 0.984 . S
N2667 C2660 1.356 . S
N2667 H2670 0.984 . S
N2667 H2671 0.985 . S
H2668 N2663 0.984 . S
H2669 N2663 0.985 . S
H2670 N2667 0.984 . S
H2671 N2667 0.985 . S
H2672 N2666 0.984 . S
H2673 N2666 0.984 . S
H2674 N2662 0.984 . S
H2675 N2662 0.985 . S
C2676 C2677 1.363 1_545 S
C2676 C2682 1.379 . S
C2676 N2684 1.356 . S
C2677 C2676 1.363 1_565 S
C2677 C2683 1.363 . S
C2678 C2679 1.363 1_565 S
C2678 C2683 1.379 . S
C2678 N2685 1.356 . S
C2679 C2678 1.363 1_545 S
C2679 C2682 1.363 . S
N2680 C2682 1.356 . S
N2680 H2692 0.984 . S
N2680 H2693 0.985 . S
N2681 C2683 1.356 . S
N2681 H2686 0.984 . S
N2681 H2687 0.985 . S
C2682 C2676 1.379 . S
C2682 C2679 1.363 . S
C2682 N2680 1.356 . S
C2683 C2677 1.363 . S
C2683 C2678 1.379 . S
C2683 N2681 1.356 . S
N2684 C2676 1.356 . S
N2684 H2690 0.984 . S
N2684 H2691 0.984 . S
N2685 C2678 1.356 . S
N2685 H2688 0.984 . S
N2685 H2689 0.985 . S
H2686 N2681 0.984 . S
H2687 N2681 0.985 . S
H2688 N2685 0.984 . S
H2689 N2685 0.985 . S
H2690 N2684 0.984 . S
H2691 N2684 0.984 . S
H2692 N2680 0.984 . S
H2693 N2680 0.985 . S
C2694 C2695 1.363 . S
C2694 C2700 1.379 1_556 S
C2694 N2702 1.356 . S
C2695 C2694 1.363 . S
C2695 C2701 1.363 . S
C2696 C2697 1.363 . S
C2696 C2701 1.379 1_554 S
C2696 N2703 1.356 . S
C2697 C2696 1.363 . S
C2697 C2700 1.363 . S
N2698 C2700 1.356 . S
N2698 H2710 0.984 . S
N2698 H2711 0.985 . S
N2699 C2701 1.356 . S
N2699 H2704 0.984 . S
N2699 H2705 0.985 . S
C2700 C2694 1.379 1_554 S
C2700 C2697 1.363 . S
C2700 N2698 1.356 . S
C2701 C2695 1.363 . S
C2701 C2696 1.379 1_556 S
C2701 N2699 1.356 . S
N2702 C2694 1.356 . S
N2702 H2708 0.984 . S
N2702 H2709 0.984 . S
N2703 C2696 1.356 . S
N2703 H2706 0.984 . S
N2703 H2707 0.985 . S
H2704 N2699 0.984 . S
H2705 N2699 0.985 . S
H2706 N2703 0.984 . S
H2707 N2703 0.985 . S
H2708 N2702 0.984 . S
H2709 N2702 0.984 . S
H2710 N2698 0.984 . S
H2711 N2698 0.985 . S
C2712 C2713 1.363 1_556 S
C2712 C2718 1.379 . S
C2712 N2720 1.356 . S
C2713 C2712 1.363 1_554 S
C2713 C2719 1.363 . S
C2714 C2715 1.363 1_554 S
C2714 C2719 1.379 . S
C2714 N2721 1.356 . S
C2715 C2714 1.363 1_556 S
C2715 C2718 1.363 . S
N2716 C2718 1.356 . S
N2716 H2728 0.984 . S
N2716 H2729 0.985 . S
N2717 C2719 1.356 . S
N2717 H2722 0.984 . S
N2717 H2723 0.985 . S
C2718 C2712 1.379 . S
C2718 C2715 1.363 . S
C2718 N2716 1.356 . S
C2719 C2713 1.363 . S
C2719 C2714 1.379 . S
C2719 N2717 1.356 . S
N2720 C2712 1.356 . S
N2720 H2726 0.984 . S
N2720 H2727 0.984 . S
N2721 C2714 1.356 . S
N2721 H2724 0.984 . S
N2721 H2725 0.985 . S
H2722 N2717 0.984 . S
H2723 N2717 0.985 . S
H2724 N2721 0.984 . S
H2725 N2721 0.985 . S
H2726 N2720 0.984 . S
H2727 N2720 0.984 . S
H2728 N2716 0.984 . S
H2729 N2716 0.985 . S
C2730 C2731 1.363 . S
C2730 C2736 1.379 . S
C2730 N2738 1.356 . S
C2731 C2730 1.363 . S
C2731 C2737 1.363 1_556 S
C2732 C2733 1.363 . S
C2732 C2737 1.379 . S
C2732 N2739 1.356 . S
C2733 C2732 1.363 . S
C2733 C2736 1.363 1_554 S
N2734 C2736 1.356 . S
N2734 H2746 0.984 . S
N2734 H2747 0.985 . S
N2735 C2737 1.356 . S
N2735 H2740 0.984 . S
N2735 H2741 0.985 . S
C2736 C2730 1.379 . S
C2736 C2733 1.363 1_556 S
C2736 N2734 1.356 . S
C2737 C2731 1.363 1_554 S
C2737 C2732 1.379 . S
C2737 N2735 1.356 . S
N2738 C2730 1.356 . S
N2738 H2744 0.984 . S
N2738 H2745 0.984 . S
N2739 C2732 1.356 . S
N2739 H2742 0.984 . S
N2739 H2743 0.985 . S
H2740 N2735 0.984 . S
H2741 N2735 0.985 . S
H2742 N2739 0.984 . S
H2743 N2739 0.985 . S
H2744 N2738 0.984 . S
H2745 N2738 0.984 . S
H2746 N2734 0.984 . S
H2747 N2734 0.985 . S
C2748 C2749 1.363 . S
C2748 C2754 1.379 . S
C2748 N2756 1.356 . S
C2749 C2748 1.363 . S
C2749 C2755 1.363 . S
C2750 C2751 1.363 . S
C2750 C2755 1.379 . S
C2750 N2757 1.356 . S
C2751 C2750 1.363 . S
C2751 C2754 1.363 . S
N2752 C2754 1.356 . S
N2752 H2764 0.984 . S
N2752 H2765 0.985 . S
N2753 C2755 1.356 . S
N2753 H2758 0.984 . S
N2753 H2759 0.985 . S
C2754 C2748 1.379 . S
C2754 C2751 1.363 . S
C2754 N2752 1.356 . S
C2755 C2749 1.363 . S
C2755 C2750 1.379 . S
C2755 N2753 1.356 . S
N2756 C2748 1.356 . S
N2756 H2762 0.984 . S
N2756 H2763 0.984 . S
N2757 C2750 1.356 . S
N2757 H2760 0.984 . S
N2757 H2761 0.985 . S
H2758 N2753 0.984 . S
H2759 N2753 0.985 . S
H2760 N2757 0.984 . S
H2761 N2757 0.985 . S
H2762 N2756 0.984 . S
H2763 N2756 0.984 . S
H2764 N2752 0.984 . S
H2765 N2752 0.985 . S
C2766 C2767 1.363 . S
C2766 C2772 1.379 . S
C2766 N2774 1.356 . S
C2767 C2766 1.363 . S
C2767 C2773 1.363 . S
C2768 C2769 1.363 . S
C2768 C2773 1.379 . S
C2768 N2775 1.356 . S
C2769 C2768 1.363 . S
C2769 C2772 1.363 . S
N2770 C2772 1.356 . S
N2770 H2782 0.984 . S
N2770 H2783 0.985 . S
N2771 C2773 1.356 . S
N2771 H2776 0.984 . S
N2771 H2777 0.985 . S
C2772 C2766 1.379 . S
C2772 C2769 1.363 . S
C2772 N2770 1.356 . S
C2773 C2767 1.363 . S
C2773 C2768 1.379 . S
C2773 N2771 1.356 . S
N2774 C2766 1.356 . S
N2774 H2780 0.984 . S
N2774 H2781 0.984 . S
N2775 C2768 1.356 . S
N2775 H2778 0.984 . S
N2775 H2779 0.985 . S
H2776 N2771 0.984 . S
H2777 N2771 0.985 . S
H2778 N2775 0.984 . S
H2779 N2775 0.985 . S
H2780 N2774 0.984 . S
H2781 N2774 0.984 . S
H2782 N2770 0.984 . S
H2783 N2770 0.985 . S
C2784 C2785 1.363 . S
C2784 C2790 1.379 1_565 S
C2784 N2792 1.356 . S
C2785 C2784 1.363 . S
C2785 C2791 1.363 . S
C2786 C2787 1.363 . S
C2786 C2791 1.379 1_545 S
C2786 N2793 1.356 . S
C2787 C2786 1.363 . S
C2787 C2790 1.363 . S
N2788 C2790 1.356 . S
N2788 H2800 0.984 . S
N2788 H2801 0.985 . S
N2789 C2791 1.356 . S
N2789 H2794 0.984 . S
N2789 H2795 0.985 . S
C2790 C2784 1.379 1_545 S
C2790 C2787 1.363 . S
C2790 N2788 1.356 . S
C2791 C2785 1.363 . S
C2791 C2786 1.379 1_565 S
C2791 N2789 1.356 . S
N2792 C2784 1.356 . S
N2792 H2798 0.984 . S
N2792 H2799 0.984 . S
N2793 C2786 1.356 . S
N2793 H2796 0.984 . S
N2793 H2797 0.985 . S
H2794 N2789 0.984 . S
H2795 N2789 0.985 . S
H2796 N2793 0.984 . S
H2797 N2793 0.985 . S
H2798 N2792 0.984 . S
H2799 N2792 0.984 . S
H2800 N2788 0.984 . S
H2801 N2788 0.985 . S
C2802 C2803 1.363 . S
C2802 C2808 1.379 . S
C2802 N2810 1.356 . S
C2803 C2802 1.363 . S
C2803 C2809 1.363 . S
C2804 C2805 1.363 . S
C2804 C2809 1.379 . S
C2804 N2811 1.356 . S
C2805 C2804 1.363 . S
C2805 C2808 1.363 . S
N2806 C2808 1.356 . S
N2806 H2818 0.984 . S
N2806 H2819 0.985 . S
N2807 C2809 1.356 . S
N2807 H2812 0.984 . S
N2807 H2813 0.985 . S
C2808 C2802 1.379 . S
C2808 C2805 1.363 . S
C2808 N2806 1.356 . S
C2809 C2803 1.363 . S
C2809 C2804 1.379 . S
C2809 N2807 1.356 . S
N2810 C2802 1.356 . S
N2810 H2816 0.984 . S
N2810 H2817 0.984 . S
N2811 C2804 1.356 . S
N2811 H2814 0.984 . S
N2811 H2815 0.985 . S
H2812 N2807 0.984 . S
H2813 N2807 0.985 . S
H2814 N2811 0.984 . S
H2815 N2811 0.985 . S
H2816 N2810 0.984 . S
H2817 N2810 0.984 . S
H2818 N2806 0.984 . S
H2819 N2806 0.985 . S
C2820 C2821 1.363 . S
C2820 C2826 1.379 . S
C2820 N2828 1.356 . S
C2821 C2820 1.363 . S
C2821 C2827 1.363 . S
C2822 C2823 1.363 . S
C2822 C2827 1.379 . S
C2822 N2829 1.356 . S
C2823 C2822 1.363 . S
C2823 C2826 1.363 . S
N2824 C2826 1.356 . S
N2824 H2836 0.984 . S
N2824 H2837 0.985 . S
N2825 C2827 1.356 . S
N2825 H2830 0.984 . S
N2825 H2831 0.985 . S
C2826 C2820 1.379 . S
C2826 C2823 1.363 . S
C2826 N2824 1.356 . S
C2827 C2821 1.363 . S
C2827 C2822 1.379 . S
C2827 N2825 1.356 . S
N2828 C2820 1.356 . S
N2828 H2834 0.984 . S
N2828 H2835 0.984 . S
N2829 C2822 1.356 . S
N2829 H2832 0.984 . S
N2829 H2833 0.985 . S
H2830 N2825 0.984 . S
H2831 N2825 0.985 . S
H2832 N2829 0.984 . S
H2833 N2829 0.985 . S
H2834 N2828 0.984 . S
H2835 N2828 0.984 . S
H2836 N2824 0.984 . S
H2837 N2824 0.985 . S
C2838 C2839 1.363 . S
C2838 C2844 1.379 . S
C2838 N2846 1.356 . S
C2839 C2838 1.363 . S
C2839 C2845 1.363 . S
C2840 C2841 1.363 . S
C2840 C2845 1.379 . S
C2840 N2847 1.356 . S
C2841 C2840 1.363 . S
C2841 C2844 1.363 . S
N2842 C2844 1.356 . S
N2842 H2854 0.984 . S
N2842 H2855 0.985 . S
N2843 C2845 1.356 . S
N2843 H2848 0.984 . S
N2843 H2849 0.985 . S
C2844 C2838 1.379 . S
C2844 C2841 1.363 . S
C2844 N2842 1.356 . S
C2845 C2839 1.363 . S
C2845 C2840 1.379 . S
C2845 N2843 1.356 . S
N2846 C2838 1.356 . S
N2846 H2852 0.984 . S
N2846 H2853 0.984 . S
N2847 C2840 1.356 . S
N2847 H2850 0.984 . S
N2847 H2851 0.985 . S
H2848 N2843 0.984 . S
H2849 N2843 0.985 . S
H2850 N2847 0.984 . S
H2851 N2847 0.985 . S
H2852 N2846 0.984 . S
H2853 N2846 0.984 . S
H2854 N2842 0.984 . S
H2855 N2842 0.985 . S
C2856 C2857 1.363 . S
C2856 C2862 1.379 1_556 S
C2856 N2864 1.356 . S
C2857 C2856 1.363 . S
C2857 C2863 1.363 . S
C2858 C2859 1.363 . S
C2858 C2863 1.379 1_554 S
C2858 N2865 1.356 . S
C2859 C2858 1.363 . S
C2859 C2862 1.363 . S
N2860 C2862 1.356 . S
N2860 H2872 0.984 . S
N2860 H2873 0.985 . S
N2861 C2863 1.356 . S
N2861 H2866 0.984 . S
N2861 H2867 0.985 . S
C2862 C2856 1.379 1_554 S
C2862 C2859 1.363 . S
C2862 N2860 1.356 . S
C2863 C2857 1.363 . S
C2863 C2858 1.379 1_556 S
C2863 N2861 1.356 . S
N2864 C2856 1.356 . S
N2864 H2870 0.984 . S
N2864 H2871 0.984 . S
N2865 C2858 1.356 . S
N2865 H2868 0.984 . S
N2865 H2869 0.985 . S
H2866 N2861 0.984 . S
H2867 N2861 0.985 . S
H2868 N2865 0.984 . S
H2869 N2865 0.985 . S
H2870 N2864 0.984 . S
H2871 N2864 0.984 . S
H2872 N2860 0.984 . S
H2873 N2860 0.985 . S
C2874 C2875 1.363 . S
C2874 C2880 1.379 . S
C2874 N2882 1.356 . S
C2875 C2874 1.363 . S
C2875 C2881 1.363 . S
C2876 C2877 1.363 . S
C2876 C2881 1.379 . S
C2876 N2883 1.356 . S
C2877 C2876 1.363 . S
C2877 C2880 1.363 . S
N2878 C2880 1.356 . S
N2878 H2890 0.984 . S
N2878 H2891 0.985 . S
N2879 C2881 1.356 . S
N2879 H2884 0.984 . S
N2879 H2885 0.985 . S
C2880 C2874 1.379 . S
C2880 C2877 1.363 . S
C2880 N2878 1.356 . S
C2881 C2875 1.363 . S
C2881 C2876 1.379 . S
C2881 N2879 1.356 . S
N2882 C2874 1.356 . S
N2882 H2888 0.984 . S
N2882 H2889 0.984 . S
N2883 C2876 1.356 . S
N2883 H2886 0.984 . S
N2883 H2887 0.985 . S
H2884 N2879 0.984 . S
H2885 N2879 0.985 . S
H2886 N2883 0.984 . S
H2887 N2883 0.985 . S
H2888 N2882 0.984 . S
H2889 N2882 0.984 . S
H2890 N2878 0.984 . S
H2891 N2878 0.985 . S
C2892 C2893 1.363 . S
C2892 C2898 1.379 . S
C2892 N2900 1.356 . S
C2893 C2892 1.363 . S
C2893 C2899 1.363 . S
C2894 C2895 1.363 . S
C2894 C2899 1.379 . S
C2894 N2901 1.356 . S
C2895 C2894 1.363 . S
C2895 C2898 1.363 . S
N2896 C2898 1.356 . S
N2896 H2908 0.984 . S
N2896 H2909 0.985 . S
N2897 C2899 1.356 . S
N2897 H2902 0.984 . S
N2897 H2903 0.985 . S
C2898 C2892 1.379 . S
C2898 C2895 1.363 . S
C2898 N2896 1.356 . S
C2899 C2893 1.363 . S
C2899 C2894 1.379 . S
C2899 N2897 1.356 . S
N2900 C2892 1.356 . S
N2900 H2906 0.984 . S
N2900 H2907 0.984 . S
N2901 C2894 1.356 . S
N2901 H2904 0.984 . S
N2901 H2905 0.985 . S
H2902 N2897 0.984 . S
H2903 N2897 0.985 . S
H2904 N2901 0.984 . S
H2905 N2901 0.985 . S
H2906 N2900 0.984 . S
H2907 N2900 0.984 . S
H2908 N2896 0.984 . S
H2909 N2896 0.985 . S
C2910 C2911 1.363 . S
C2910 C2916 1.379 1_565 S
C2910 N2918 1.356 . S
C2911 C2910 1.363 . S
C2911 C2917 1.363 . S
C2912 C2913 1.363 . S
C2912 C2917 1.379 1_545 S
C2912 N2919 1.356 . S
C2913 C2912 1.363 . S
C2913 C2916 1.363 . S
N2914 C2916 1.356 . S
N2914 H2926 0.984 . S
N2914 H2927 0.985 . S
N2915 C2917 1.356 . S
N2915 H2920 0.984 . S
N2915 H2921 0.985 . S
C2916 C2910 1.379 1_545 S
C2916 C2913 1.363 . S
C2916 N2914 1.356 . S
C2917 C2911 1.363 . S
C2917 C2912 1.379 1_565 S
C2917 N2915 1.356 . S
N2918 C2910 1.356 . S
N2918 H2924 0.984 . S
N2918 H2925 0.984 . S
N2919 C2912 1.356 . S
N2919 H2922 0.984 . S
N2919 H2923 0.985 . S
H2920 N2915 0.984 . S
H2921 N2915 0.985 . S
H2922 N2919 0.984 . S
H2923 N2919 0.985 . S
H2924 N2918 0.984 . S
H2925 N2918 0.984 . S
H2926 N2914 0.984 . S
H2927 N2914 0.985 . S
C2928 C2929 1.363 . S
C2928 C2934 1.379 . S
C2928 N2936 1.356 . S
C2929 C2928 1.363 . S
C2929 C2935 1.363 . S
C2930 C2931 1.363 . S
C2930 C2935 1.379 . S
C2930 N2937 1.356 . S
C2931 C2930 1.363 . S
C2931 C2934 1.363 . S
N2932 C2934 1.356 . S
N2932 H2944 0.984 . S
N2932 H2945 0.985 . S
N2933 C2935 1.356 . S
N2933 H2938 0.984 . S
N2933 H2939 0.985 . S
C2934 C2928 1.379 . S
C2934 C2931 1.363 . S
C2934 N2932 1.356 . S
C2935 C2929 1.363 . S
C2935 C2930 1.379 . S
C2935 N2933 1.356 . S
N2936 C2928 1.356 . S
N2936 H2942 0.984 . S
N2936 H2943 0.984 . S
N2937 C2930 1.356 . S
N2937 H2940 0.984 . S
N2937 H2941 0.985 . S
H2938 N2933 0.984 . S
H2939 N2933 0.985 . S
H2940 N2937 0.984 . S
H2941 N2937 0.985 . S
H2942 N2936 0.984 . S
H2943 N2936 0.984 . S
H2944 N2932 0.984 . S
H2945 N2932 0.985 . S
C2946 C2947 1.363 . S
C2946 C2952 1.379 . S
C2946 N2954 1.356 . S
C2947 C2946 1.363 . S
C2947 C2953 1.363 . S
C2948 C2949 1.363 . S
C2948 C2953 1.379 . S
C2948 N2955 1.356 . S
C2949 C2948 1.363 . S
C2949 C2952 1.363 . S
N2950 C2952 1.356 . S
N2950 H2962 0.984 . S
N2950 H2963 0.985 . S
N2951 C2953 1.356 . S
N2951 H2956 0.984 . S
N2951 H2957 0.985 . S
C2952 C2946 1.379 . S
C2952 C2949 1.363 . S
C2952 N2950 1.356 . S
C2953 C2947 1.363 . S
C2953 C2948 1.379 . S
C2953 N2951 1.356 . S
N2954 C2946 1.356 . S
N2954 H2960 0.984 . S
N2954 H2961 0.984 . S
N2955 C2948 1.356 . S
N2955 H2958 0.984 . S
N2955 H2959 0.985 . S
H2956 N2951 0.984 . S
H2957 N2951 0.985 . S
H2958 N2955 0.984 . S
H2959 N2955 0.985 . S
H2960 N2954 0.984 . S
H2961 N2954 0.984 . S
H2962 N2950 0.984 . S
H2963 N2950 0.985 . S
C2964 C2965 1.363 . S
C2964 C2970 1.379 . S
C2964 N2972 1.356 . S
C2965 C2964 1.363 . S
C2965 C2971 1.363 . S
C2966 C2967 1.363 . S
C2966 C2971 1.379 . S
C2966 N2973 1.356 . S
C2967 C2966 1.363 . S
C2967 C2970 1.363 . S
N2968 C2970 1.356 . S
N2968 H2980 0.984 . S
N2968 H2981 0.985 . S
N2969 C2971 1.356 . S
N2969 H2974 0.984 . S
N2969 H2975 0.985 . S
C2970 C2964 1.379 . S
C2970 C2967 1.363 . S
C2970 N2968 1.356 . S
C2971 C2965 1.363 . S
C2971 C2966 1.379 . S
C2971 N2969 1.356 . S
N2972 C2964 1.356 . S
N2972 H2978 0.984 . S
N2972 H2979 0.984 . S
N2973 C2966 1.356 . S
N2973 H2976 0.984 . S
N2973 H2977 0.985 . S
H2974 N2969 0.984 . S
H2975 N2969 0.985 . S
H2976 N2973 0.984 . S
H2977 N2973 0.985 . S
H2978 N2972 0.984 . S
H2979 N2972 0.984 . S
H2980 N2968 0.984 . S
H2981 N2968 0.985 . S
C2982 C2983 1.363 . S
C2982 C2988 1.379 . S
C2982 N2990 1.356 . S
C2983 C2982 1.363 . S
C2983 C2989 1.363 . S
C2984 C2985 1.363 . S
C2984 C2989 1.379 . S
C2984 N2991 1.356 . S
C2985 C2984 1.363 . S
C2985 C2988 1.363 . S
N2986 C2988 1.356 . S
N2986 H2998 0.984 . S
N2986 H2999 0.985 . S
N2987 C2989 1.356 . S
N2987 H2992 0.984 . S
N2987 H2993 0.985 . S
C2988 C2982 1.379 . S
C2988 C2985 1.363 . S
C2988 N2986 1.356 . S
C2989 C2983 1.363 . S
C2989 C2984 1.379 . S
C2989 N2987 1.356 . S
N2990 C2982 1.356 . S
N2990 H2996 0.984 . S
N2990 H2997 0.984 . S
N2991 C2984 1.356 . S
N2991 H2994 0.984 . S
N2991 H2995 0.985 . S
H2992 N2987 0.984 . S
H2993 N2987 0.985 . S
H2994 N2991 0.984 . S
H2995 N2991 0.985 . S
H2996 N2990 0.984 . S
H2997 N2990 0.984 . S
H2998 N2986 0.984 . S
H2999 N2986 0.985 . S
C3000 C3001 1.363 . S
C3000 C3006 1.379 . S
C3000 N3008 1.356 . S
C3001 C3000 1.363 . S
C3001 C3007 1.363 . S
C3002 C3003 1.363 . S
C3002 C3007 1.379 . S
C3002 N3009 1.356 . S
C3003 C3002 1.363 . S
C3003 C3006 1.363 . S
N3004 C3006 1.356 . S
N3004 H3016 0.984 . S
N3004 H3017 0.985 . S
N3005 C3007 1.356 . S
N3005 H3010 0.984 . S
N3005 H3011 0.985 . S
C3006 C3000 1.379 . S
C3006 C3003 1.363 . S
C3006 N3004 1.356 . S
C3007 C3001 1.363 . S
C3007 C3002 1.379 . S
C3007 N3005 1.356 . S
N3008 C3000 1.356 . S
N3008 H3014 0.984 . S
N3008 H3015 0.984 . S
N3009 C3002 1.356 . S
N3009 H3012 0.984 . S
N3009 H3013 0.985 . S
H3010 N3005 0.984 . S
H3011 N3005 0.985 . S
H3012 N3009 0.984 . S
H3013 N3009 0.985 . S
H3014 N3008 0.984 . S
H3015 N3008 0.984 . S
H3016 N3004 0.984 . S
H3017 N3004 0.985 . S
C3018 C3019 1.363 . S
C3018 C3024 1.379 . S
C3018 N3026 1.356 . S
C3019 C3018 1.363 . S
C3019 C3025 1.363 . S
C3020 C3021 1.363 . S
C3020 C3025 1.379 . S
C3020 N3027 1.356 . S
C3021 C3020 1.363 . S
C3021 C3024 1.363 . S
N3022 C3024 1.356 . S
N3022 H3034 0.984 . S
N3022 H3035 0.985 . S
N3023 C3025 1.356 . S
N3023 H3028 0.984 . S
N3023 H3029 0.985 . S
C3024 C3018 1.379 . S
C3024 C3021 1.363 . S
C3024 N3022 1.356 . S
C3025 C3019 1.363 . S
C3025 C3020 1.379 . S
C3025 N3023 1.356 . S
N3026 C3018 1.356 . S
N3026 H3032 0.984 . S
N3026 H3033 0.984 . S
N3027 C3020 1.356 . S
N3027 H3030 0.984 . S
N3027 H3031 0.985 . S
H3028 N3023 0.984 . S
H3029 N3023 0.985 . S
H3030 N3027 0.984 . S
H3031 N3027 0.985 . S
H3032 N3026 0.984 . S
H3033 N3026 0.984 . S
H3034 N3022 0.984 . S
H3035 N3022 0.985 . S
C3036 C3037 1.363 . S
C3036 C3042 1.379 . S
C3036 N3044 1.356 . S
C3037 C3036 1.363 . S
C3037 C3043 1.363 . S
C3038 C3039 1.363 . S
C3038 C3043 1.379 . S
C3038 N3045 1.356 . S
C3039 C3038 1.363 . S
C3039 C3042 1.363 . S
N3040 C3042 1.356 . S
N3040 H3052 0.984 . S
N3040 H3053 0.985 . S
N3041 C3043 1.356 . S
N3041 H3046 0.984 . S
N3041 H3047 0.985 . S
C3042 C3036 1.379 . S
C3042 C3039 1.363 . S
C3042 N3040 1.356 . S
C3043 C3037 1.363 . S
C3043 C3038 1.379 . S
C3043 N3041 1.356 . S
N3044 C3036 1.356 . S
N3044 H3050 0.984 . S
N3044 H3051 0.984 . S
N3045 C3038 1.356 . S
N3045 H3048 0.984 . S
N3045 H3049 0.985 . S
H3046 N3041 0.984 . S
H3047 N3041 0.985 . S
H3048 N3045 0.984 . S
H3049 N3045 0.985 . S
H3050 N3044 0.984 . S
H3051 N3044 0.984 . S
H3052 N3040 0.984 . S
H3053 N3040 0.985 . S
C3054 C3055 1.363 . S
C3054 C3060 1.379 . S
C3054 N3062 1.356 . S
C3055 C3054 1.363 . S
C3055 C3061 1.363 . S
C3056 C3057 1.363 . S
C3056 C3061 1.379 . S
C3056 N3063 1.356 . S
C3057 C3056 1.363 . S
C3057 C3060 1.363 . S
N3058 C3060 1.356 . S
N3058 H3070 0.984 . S
N3058 H3071 0.985 . S
N3059 C3061 1.356 . S
N3059 H3064 0.984 . S
N3059 H3065 0.985 . S
C3060 C3054 1.379 . S
C3060 C3057 1.363 . S
C3060 N3058 1.356 . S
C3061 C3055 1.363 . S
C3061 C3056 1.379 . S
C3061 N3059 1.356 . S
N3062 C3054 1.356 . S
N3062 H3068 0.984 . S
N3062 H3069 0.984 . S
N3063 C3056 1.356 . S
N3063 H3066 0.984 . S
N3063 H3067 0.985 . S
H3064 N3059 0.984 . S
H3065 N3059 0.985 . S
H3066 N3063 0.984 . S
H3067 N3063 0.985 . S
H3068 N3062 0.984 . S
H3069 N3062 0.984 . S
H3070 N3058 0.984 . S
H3071 N3058 0.985 . S
C3072 C3073 1.363 . S
C3072 C3078 1.379 . S
C3072 N3080 1.356 . S
C3073 C3072 1.363 . S
C3073 C3079 1.363 . S
C3074 C3075 1.363 . S
C3074 C3079 1.379 . S
C3074 N3081 1.356 . S
C3075 C3074 1.363 . S
C3075 C3078 1.363 . S
N3076 C3078 1.356 . S
N3076 H3088 0.984 . S
N3076 H3089 0.985 . S
N3077 C3079 1.356 . S
N3077 H3082 0.984 . S
N3077 H3083 0.985 . S
C3078 C3072 1.379 . S
C3078 C3075 1.363 . S
C3078 N3076 1.356 . S
C3079 C3073 1.363 . S
C3079 C3074 1.379 . S
C3079 N3077 1.356 . S
N3080 C3072 1.356 . S
N3080 H3086 0.984 . S
N3080 H3087 0.984 . S
N3081 C3074 1.356 . S
N3081 H3084 0.984 . S
N3081 H3085 0.985 . S
H3082 N3077 0.984 . S
H3083 N3077 0.985 . S
H3084 N3081 0.984 . S
H3085 N3081 0.985 . S
H3086 N3080 0.984 . S
H3087 N3080 0.984 . S
H3088 N3076 0.984 . S
H3089 N3076 0.985 . S
C3090 C3091 1.363 . S
C3090 C3096 1.379 . S
C3090 N3098 1.356 . S
C3091 C3090 1.363 . S
C3091 C3097 1.363 . S
C3092 C3093 1.363 . S
C3092 C3097 1.379 . S
C3092 N3099 1.356 . S
C3093 C3092 1.363 . S
C3093 C3096 1.363 . S
N3094 C3096 1.356 . S
N3094 H3106 0.984 . S
N3094 H3107 0.985 . S
N3095 C3097 1.356 . S
N3095 H3100 0.984 . S
N3095 H3101 0.985 . S
C3096 C3090 1.379 . S
C3096 C3093 1.363 . S
C3096 N3094 1.356 . S
C3097 C3091 1.363 . S
C3097 C3092 1.379 . S
C3097 N3095 1.356 . S
N3098 C3090 1.356 . S
N3098 H3104 0.984 . S
N3098 H3105 0.984 . S
N3099 C3092 1.356 . S
N3099 H3102 0.984 . S
N3099 H3103 0.985 . S
H3100 N3095 0.984 . S
H3101 N3095 0.985 . S
H3102 N3099 0.984 . S
H3103 N3099 0.985 . S
H3104 N3098 0.984 . S
H3105 N3098 0.984 . S
H3106 N3094 0.984 . S
H3107 N3094 0.985 . S
C3108 C3109 1.363 . S
C3108 C3114 1.379 . S
C3108 N3116 1.356 . S
C3109 C3108 1.363 . S
C3109 C3115 1.363 . S
C3110 C3111 1.363 . S
C3110 C3115 1.379 . S
C3110 N3117 1.356 . S
C3111 C3110 1.363 . S
C3111 C3114 1.363 . S
N3112 C3114 1.356 . S
N3112 H3124 0.984 . S
N3112 H3125 0.985 . S
N3113 C3115 1.356 . S
N3113 H3118 0.984 . S
N3113 H3119 0.985 . S
C3114 C3108 1.379 . S
C3114 C3111 1.363 . S
C3114 N3112 1.356 . S
C3115 C3109 1.363 . S
C3115 C3110 1.379 . S
C3115 N3113 1.356 . S
N3116 C3108 1.356 . S
N3116 H3122 0.984 . S
N3116 H3123 0.984 . S
N3117 C3110 1.356 . S
N3117 H3120 0.984 . S
N3117 H3121 0.985 . S
H3118 N3113 0.984 . S
H3119 N3113 0.985 . S
H3120 N3117 0.984 . S
H3121 N3117 0.985 . S
H3122 N3116 0.984 . S
H3123 N3116 0.984 . S
H3124 N3112 0.984 . S
H3125 N3112 0.985 . S
C3126 C3127 1.363 . S
C3126 C3132 1.379 . S
C3126 N3134 1.356 . S
C3127 C3126 1.363 . S
C3127 C3133 1.363 . S
C3128 C3129 1.363 . S
C3128 C3133 1.379 . S
C3128 N3135 1.356 . S
C3129 C3128 1.363 . S
C3129 C3132 1.363 . S
N3130 C3132 1.356 . S
N3130 H3142 0.984 . S
N3130 H3143 0.985 . S
N3131 C3133 1.356 . S
N3131 H3136 0.984 . S
N3131 H3137 0.985 . S
C3132 C3126 1.379 . S
C3132 C3129 1.363 . S
C3132 N3130 1.356 . S
C3133 C3127 1.363 . S
C3133 C3128 1.379 . S
C3133 N3131 1.356 . S
N3134 C3126 1.356 . S
N3134 H3140 0.984 . S
N3134 H3141 0.984 . S
N3135 C3128 1.356 . S
N3135 H3138 0.984 . S
N3135 H3139 0.985 . S
H3136 N3131 0.984 . S
H3137 N3131 0.985 . S
H3138 N3135 0.984 . S
H3139 N3135 0.985 . S
H3140 N3134 0.984 . S
H3141 N3134 0.984 . S
H3142 N3130 0.984 . S
H3143 N3130 0.985 . S
C3144 C3145 1.363 . S
C3144 C3150 1.379 . S
C3144 N3152 1.356 . S
C3145 C3144 1.363 . S
C3145 C3151 1.363 . S
C3146 C3147 1.363 . S
C3146 C3151 1.379 . S
C3146 N3153 1.356 . S
C3147 C3146 1.363 . S
C3147 C3150 1.363 . S
N3148 C3150 1.356 . S
N3148 H3160 0.984 . S
N3148 H3161 0.985 . S
N3149 C3151 1.356 . S
N3149 H3154 0.984 . S
N3149 H3155 0.985 . S
C3150 C3144 1.379 . S
C3150 C3147 1.363 . S
C3150 N3148 1.356 . S
C3151 C3145 1.363 . S
C3151 C3146 1.379 . S
C3151 N3149 1.356 . S
N3152 C3144 1.356 . S
N3152 H3158 0.984 . S
N3152 H3159 0.984 . S
N3153 C3146 1.356 . S
N3153 H3156 0.984 . S
N3153 H3157 0.985 . S
H3154 N3149 0.984 . S
H3155 N3149 0.985 . S
H3156 N3153 0.984 . S
H3157 N3153 0.985 . S
H3158 N3152 0.984 . S
H3159 N3152 0.984 . S
H3160 N3148 0.984 . S
H3161 N3148 0.985 . S
C3162 C3163 1.363 . S
C3162 C3168 1.379 . S
C3162 N3170 1.356 . S
C3163 C3162 1.363 . S
C3163 C3169 1.363 . S
C3164 C3165 1.363 . S
C3164 C3169 1.379 . S
C3164 N3171 1.356 . S
C3165 C3164 1.363 . S
C3165 C3168 1.363 . S
N3166 C3168 1.356 . S
N3166 H3178 0.984 . S
N3166 H3179 0.985 . S
N3167 C3169 1.356 . S
N3167 H3172 0.984 . S
N3167 H3173 0.985 . S
C3168 C3162 1.379 . S
C3168 C3165 1.363 . S
C3168 N3166 1.356 . S
C3169 C3163 1.363 . S
C3169 C3164 1.379 . S
C3169 N3167 1.356 . S
N3170 C3162 1.356 . S
N3170 H3176 0.984 . S
N3170 H3177 0.984 . S
N3171 C3164 1.356 . S
N3171 H3174 0.984 . S
N3171 H3175 0.985 . S
H3172 N3167 0.984 . S
H3173 N3167 0.985 . S
H3174 N3171 0.984 . S
H3175 N3171 0.985 . S
H3176 N3170 0.984 . S
H3177 N3170 0.984 . S
H3178 N3166 0.984 . S
H3179 N3166 0.985 . S
C3180 C3181 1.363 . S
C3180 C3186 1.379 . S
C3180 N3188 1.356 . S
C3181 C3180 1.363 . S
C3181 C3187 1.363 . S
C3182 C3183 1.363 . S
C3182 C3187 1.379 . S
C3182 N3189 1.356 . S
C3183 C3182 1.363 . S
C3183 C3186 1.363 . S
N3184 C3186 1.356 . S
N3184 H3196 0.984 . S
N3184 H3197 0.985 . S
N3185 C3187 1.356 . S
N3185 H3190 0.984 . S
N3185 H3191 0.985 . S
C3186 C3180 1.379 . S
C3186 C3183 1.363 . S
C3186 N3184 1.356 . S
C3187 C3181 1.363 . S
C3187 C3182 1.379 . S
C3187 N3185 1.356 . S
N3188 C3180 1.356 . S
N3188 H3194 0.984 . S
N3188 H3195 0.984 . S
N3189 C3182 1.356 . S
N3189 H3192 0.984 . S
N3189 H3193 0.985 . S
H3190 N3185 0.984 . S
H3191 N3185 0.985 . S
H3192 N3189 0.984 . S
H3193 N3189 0.985 . S
H3194 N3188 0.984 . S
H3195 N3188 0.984 . S
H3196 N3184 0.984 . S
H3197 N3184 0.985 . S
C3198 C3199 1.363 . S
C3198 C3204 1.379 . S
C3198 N3206 1.356 . S
C3199 C3198 1.363 . S
C3199 C3205 1.363 . S
C3200 C3201 1.363 . S
C3200 C3205 1.379 . S
C3200 N3207 1.356 . S
C3201 C3200 1.363 . S
C3201 C3204 1.363 . S
N3202 C3204 1.356 . S
N3202 H3214 0.984 . S
N3202 H3215 0.985 . S
N3203 C3205 1.356 . S
N3203 H3208 0.984 . S
N3203 H3209 0.985 . S
C3204 C3198 1.379 . S
C3204 C3201 1.363 . S
C3204 N3202 1.356 . S
C3205 C3199 1.363 . S
C3205 C3200 1.379 . S
C3205 N3203 1.356 . S
N3206 C3198 1.356 . S
N3206 H3212 0.984 . S
N3206 H3213 0.984 . S
N3207 C3200 1.356 . S
N3207 H3210 0.984 . S
N3207 H3211 0.985 . S
H3208 N3203 0.984 . S
H3209 N3203 0.985 . S
H3210 N3207 0.984 . S
H3211 N3207 0.985 . S
H3212 N3206 0.984 . S
H3213 N3206 0.984 . S
H3214 N3202 0.984 . S
H3215 N3202 0.985 . S
C3216 C3217 1.363 . S
C3216 C3222 1.379 . S
C3216 N3224 1.356 . S
C3217 C3216 1.363 . S
C3217 C3223 1.363 . S
C3218 C3219 1.363 . S
C3218 C3223 1.379 . S
C3218 N3225 1.356 . S
C3219 C3218 1.363 . S
C3219 C3222 1.363 . S
N3220 C3222 1.356 . S
N3220 H3232 0.984 . S
N3220 H3233 0.985 . S
N3221 C3223 1.356 . S
N3221 H3226 0.984 . S
N3221 H3227 0.985 . S
C3222 C3216 1.379 . S
C3222 C3219 1.363 . S
C3222 N3220 1.356 . S
C3223 C3217 1.363 . S
C3223 C3218 1.379 . S
C3223 N3221 1.356 . S
N3224 C3216 1.356 . S
N3224 H3230 0.984 . S
N3224 H3231 0.984 . S
N3225 C3218 1.356 . S
N3225 H3228 0.984 . S
N3225 H3229 0.985 . S
H3226 N3221 0.984 . S
H3227 N3221 0.985 . S
H3228 N3225 0.984 . S
H3229 N3225 0.985 . S
H3230 N3224 0.984 . S
H3231 N3224 0.984 . S
H3232 N3220 0.984 . S
H3233 N3220 0.985 . S
C3234 C3235 1.363 . S
C3234 C3240 1.379 . S
C3234 N3242 1.356 . S
C3235 C3234 1.363 . S
C3235 C3241 1.363 . S
C3236 C3237 1.363 . S
C3236 C3241 1.379 . S
C3236 N3243 1.356 . S
C3237 C3236 1.363 . S
C3237 C3240 1.363 . S
N3238 C3240 1.356 . S
N3238 H3250 0.984 . S
N3238 H3251 0.985 . S
N3239 C3241 1.356 . S
N3239 H3244 0.984 . S
N3239 H3245 0.985 . S
C3240 C3234 1.379 . S
C3240 C3237 1.363 . S
C3240 N3238 1.356 . S
C3241 C3235 1.363 . S
C3241 C3236 1.379 . S
C3241 N3239 1.356 . S
N3242 C3234 1.356 . S
N3242 H3248 0.984 . S
N3242 H3249 0.984 . S
N3243 C3236 1.356 . S
N3243 H3246 0.984 . S
N3243 H3247 0.985 . S
H3244 N3239 0.984 . S
H3245 N3239 0.985 . S
H3246 N3243 0.984 . S
H3247 N3243 0.985 . S
H3248 N3242 0.984 . S
H3249 N3242 0.984 . S
H3250 N3238 0.984 . S
H3251 N3238 0.985 . S
C3252 C3253 1.363 . S
C3252 C3258 1.379 . S
C3252 N3260 1.356 . S
C3253 C3252 1.363 . S
C3253 C3259 1.363 . S
C3254 C3255 1.363 . S
C3254 C3259 1.379 . S
C3254 N3261 1.356 . S
C3255 C3254 1.363 . S
C3255 C3258 1.363 . S
N3256 C3258 1.356 . S
N3256 H3268 0.984 . S
N3256 H3269 0.985 . S
N3257 C3259 1.356 . S
N3257 H3262 0.984 . S
N3257 H3263 0.985 . S
C3258 C3252 1.379 . S
C3258 C3255 1.363 . S
C3258 N3256 1.356 . S
C3259 C3253 1.363 . S
C3259 C3254 1.379 . S
C3259 N3257 1.356 . S
N3260 C3252 1.356 . S
N3260 H3266 0.984 . S
N3260 H3267 0.984 . S
N3261 C3254 1.356 . S
N3261 H3264 0.984 . S
N3261 H3265 0.985 . S
H3262 N3257 0.984 . S
H3263 N3257 0.985 . S
H3264 N3261 0.984 . S
H3265 N3261 0.985 . S
H3266 N3260 0.984 . S
H3267 N3260 0.984 . S
H3268 N3256 0.984 . S
H3269 N3256 0.985 . S
C3270 C3271 1.363 . S
C3270 C3276 1.379 . S
C3270 N3278 1.356 . S
C3271 C3270 1.363 . S
C3271 C3277 1.363 . S
C3272 C3273 1.363 . S
C3272 C3277 1.379 . S
C3272 N3279 1.356 . S
C3273 C3272 1.363 . S
C3273 C3276 1.363 . S
N3274 C3276 1.356 . S
N3274 H3286 0.984 . S
N3274 H3287 0.985 . S
N3275 C3277 1.356 . S
N3275 H3280 0.984 . S
N3275 H3281 0.985 . S
C3276 C3270 1.379 . S
C3276 C3273 1.363 . S
C3276 N3274 1.356 . S
C3277 C3271 1.363 . S
C3277 C3272 1.379 . S
C3277 N3275 1.356 . S
N3278 C3270 1.356 . S
N3278 H3284 0.984 . S
N3278 H3285 0.984 . S
N3279 C3272 1.356 . S
N3279 H3282 0.984 . S
N3279 H3283 0.985 . S
H3280 N3275 0.984 . S
H3281 N3275 0.985 . S
H3282 N3279 0.984 . S
H3283 N3279 0.985 . S
H3284 N3278 0.984 . S
H3285 N3278 0.984 . S
H3286 N3274 0.984 . S
H3287 N3274 0.985 . S
C3288 C3289 1.363 . S
C3288 C3294 1.379 . S
C3288 N3296 1.356 . S
C3289 C3288 1.363 . S
C3289 C3295 1.363 . S
C3290 C3291 1.363 . S
C3290 C3295 1.379 . S
C3290 N3297 1.356 . S
C3291 C3290 1.363 . S
C3291 C3294 1.363 . S
N3292 C3294 1.356 . S
N3292 H3304 0.984 . S
N3292 H3305 0.985 . S
N3293 C3295 1.356 . S
N3293 H3298 0.984 . S
N3293 H3299 0.985 . S
C3294 C3288 1.379 . S
C3294 C3291 1.363 . S
C3294 N3292 1.356 . S
C3295 C3289 1.363 . S
C3295 C3290 1.379 . S
C3295 N3293 1.356 . S
N3296 C3288 1.356 . S
N3296 H3302 0.984 . S
N3296 H3303 0.984 . S
N3297 C3290 1.356 . S
N3297 H3300 0.984 . S
N3297 H3301 0.985 . S
H3298 N3293 0.984 . S
H3299 N3293 0.985 . S
H3300 N3297 0.984 . S
H3301 N3297 0.985 . S
H3302 N3296 0.984 . S
H3303 N3296 0.984 . S
H3304 N3292 0.984 . S
H3305 N3292 0.985 . S
C3306 C3307 1.363 . S
C3306 C3312 1.379 . S
C3306 N3314 1.356 . S
C3307 C3306 1.363 . S
C3307 C3313 1.363 . S
C3308 C3309 1.363 . S
C3308 C3313 1.379 . S
C3308 N3315 1.356 . S
C3309 C3308 1.363 . S
C3309 C3312 1.363 . S
N3310 C3312 1.356 . S
N3310 H3322 0.984 . S
N3310 H3323 0.985 . S
N3311 C3313 1.356 . S
N3311 H3316 0.984 . S
N3311 H3317 0.985 . S
C3312 C3306 1.379 . S
C3312 C3309 1.363 . S
C3312 N3310 1.356 . S
C3313 C3307 1.363 . S
C3313 C3308 1.379 . S
C3313 N3311 1.356 . S
N3314 C3306 1.356 . S
N3314 H3320 0.984 . S
N3314 H3321 0.984 . S
N3315 C3308 1.356 . S
N3315 H3318 0.984 . S
N3315 H3319 0.985 . S
H3316 N3311 0.984 . S
H3317 N3311 0.985 . S
H3318 N3315 0.984 . S
H3319 N3315 0.985 . S
H3320 N3314 0.984 . S
H3321 N3314 0.984 . S
H3322 N3310 0.984 . S
H3323 N3310 0.985 . S
C3324 C3325 1.363 . S
C3324 C3330 1.379 . S
C3324 N3332 1.356 . S
C3325 C3324 1.363 . S
C3325 C3331 1.363 . S
C3326 C3327 1.363 . S
C3326 C3331 1.379 . S
C3326 N3333 1.356 . S
C3327 C3326 1.363 . S
C3327 C3330 1.363 . S
N3328 C3330 1.356 . S
N3328 H3340 0.984 . S
N3328 H3341 0.985 . S
N3329 C3331 1.356 . S
N3329 H3334 0.984 . S
N3329 H3335 0.985 . S
C3330 C3324 1.379 . S
C3330 C3327 1.363 . S
C3330 N3328 1.356 . S
C3331 C3325 1.363 . S
C3331 C3326 1.379 . S
C3331 N3329 1.356 . S
N3332 C3324 1.356 . S
N3332 H3338 0.984 . S
N3332 H3339 0.984 . S
N3333 C3326 1.356 . S
N3333 H3336 0.984 . S
N3333 H3337 0.985 . S
H3334 N3329 0.984 . S
H3335 N3329 0.985 . S
H3336 N3333 0.984 . S
H3337 N3333 0.985 . S
H3338 N3332 0.984 . S
H3339 N3332 0.984 . S
H3340 N3328 0.984 . S
H3341 N3328 0.985 . S
C3342 C3343 1.363 . S
C3342 C3348 1.379 . S
C3342 N3350 1.356 . S
C3343 C3342 1.363 . S
C3343 C3349 1.363 . S
C3344 C3345 1.363 . S
C3344 C3349 1.379 . S
C3344 N3351 1.356 . S
C3345 C3344 1.363 . S
C3345 C3348 1.363 . S
N3346 C3348 1.356 . S
N3346 H3358 0.984 . S
N3346 H3359 0.985 . S
N3347 C3349 1.356 . S
N3347 H3352 0.984 . S
N3347 H3353 0.985 . S
C3348 C3342 1.379 . S
C3348 C3345 1.363 . S
C3348 N3346 1.356 . S
C3349 C3343 1.363 . S
C3349 C3344 1.379 . S
C3349 N3347 1.356 . S
N3350 C3342 1.356 . S
N3350 H3356 0.984 . S
N3350 H3357 0.984 . S
N3351 C3344 1.356 . S
N3351 H3354 0.984 . S
N3351 H3355 0.985 . S
H3352 N3347 0.984 . S
H3353 N3347 0.985 . S
H3354 N3351 0.984 . S
H3355 N3351 0.985 . S
H3356 N3350 0.984 . S
H3357 N3350 0.984 . S
H3358 N3346 0.984 . S
H3359 N3346 0.985 . S
C3360 C3361 1.363 . S
C3360 C3366 1.379 . S
C3360 N3368 1.356 . S
C3361 C3360 1.363 . S
C3361 C3367 1.363 . S
C3362 C3363 1.363 . S
C3362 C3367 1.379 . S
C3362 N3369 1.356 . S
C3363 C3362 1.363 . S
C3363 C3366 1.363 . S
N3364 C3366 1.356 . S
N3364 H3376 0.984 . S
N3364 H3377 0.985 . S
N3365 C3367 1.356 . S
N3365 H3370 0.984 . S
N3365 H3371 0.985 . S
C3366 C3360 1.379 . S
C3366 C3363 1.363 . S
C3366 N3364 1.356 . S
C3367 C3361 1.363 . S
C3367 C3362 1.379 . S
C3367 N3365 1.356 . S
N3368 C3360 1.356 . S
N3368 H3374 0.984 . S
N3368 H3375 0.984 . S
N3369 C3362 1.356 . S
N3369 H3372 0.984 . S
N3369 H3373 0.985 . S
H3370 N3365 0.984 . S
H3371 N3365 0.985 . S
H3372 N3369 0.984 . S
H3373 N3369 0.985 . S
H3374 N3368 0.984 . S
H3375 N3368 0.984 . S
H3376 N3364 0.984 . S
H3377 N3364 0.985 . S
C3378 C3379 1.363 . S
C3378 C3384 1.379 . S
C3378 N3386 1.356 . S
C3379 C3378 1.363 . S
C3379 C3385 1.363 . S
C3380 C3381 1.363 . S
C3380 C3385 1.379 . S
C3380 N3387 1.356 . S
C3381 C3380 1.363 . S
C3381 C3384 1.363 . S
N3382 C3384 1.356 . S
N3382 H3394 0.984 . S
N3382 H3395 0.985 . S
N3383 C3385 1.356 . S
N3383 H3388 0.984 . S
N3383 H3389 0.985 . S
C3384 C3378 1.379 . S
C3384 C3381 1.363 . S
C3384 N3382 1.356 . S
C3385 C3379 1.363 . S
C3385 C3380 1.379 . S
C3385 N3383 1.356 . S
N3386 C3378 1.356 . S
N3386 H3392 0.984 . S
N3386 H3393 0.984 . S
N3387 C3380 1.356 . S
N3387 H3390 0.984 . S
N3387 H3391 0.985 . S
H3388 N3383 0.984 . S
H3389 N3383 0.985 . S
H3390 N3387 0.984 . S
H3391 N3387 0.985 . S
H3392 N3386 0.984 . S
H3393 N3386 0.984 . S
H3394 N3382 0.984 . S
H3395 N3382 0.985 . S
C3396 C3397 1.363 . S
C3396 C3402 1.379 . S
C3396 N3404 1.356 . S
C3397 C3396 1.363 . S
C3397 C3403 1.363 . S
C3398 C3399 1.363 . S
C3398 C3403 1.379 . S
C3398 N3405 1.356 . S
C3399 C3398 1.363 . S
C3399 C3402 1.363 . S
N3400 C3402 1.356 . S
N3400 H3412 0.984 . S
N3400 H3413 0.985 . S
N3401 C3403 1.356 . S
N3401 H3406 0.984 . S
N3401 H3407 0.985 . S
C3402 C3396 1.379 . S
C3402 C3399 1.363 . S
C3402 N3400 1.356 . S
C3403 C3397 1.363 . S
C3403 C3398 1.379 . S
C3403 N3401 1.356 . S
N3404 C3396 1.356 . S
N3404 H3410 0.984 . S
N3404 H3411 0.984 . S
N3405 C3398 1.356 . S
N3405 H3408 0.984 . S
N3405 H3409 0.985 . S
H3406 N3401 0.984 . S
H3407 N3401 0.985 . S
H3408 N3405 0.984 . S
H3409 N3405 0.985 . S
H3410 N3404 0.984 . S
H3411 N3404 0.984 . S
H3412 N3400 0.984 . S
H3413 N3400 0.985 . S
C3414 C3415 1.363 . S
C3414 C3420 1.379 . S
C3414 N3422 1.356 . S
C3415 C3414 1.363 . S
C3415 C3421 1.363 . S
C3416 C3417 1.363 . S
C3416 C3421 1.379 . S
C3416 N3423 1.356 . S
C3417 C3416 1.363 . S
C3417 C3420 1.363 . S
N3418 C3420 1.356 . S
N3418 H3430 0.984 . S
N3418 H3431 0.985 . S
N3419 C3421 1.356 . S
N3419 H3424 0.984 . S
N3419 H3425 0.985 . S
C3420 C3414 1.379 . S
C3420 C3417 1.363 . S
C3420 N3418 1.356 . S
C3421 C3415 1.363 . S
C3421 C3416 1.379 . S
C3421 N3419 1.356 . S
N3422 C3414 1.356 . S
N3422 H3428 0.984 . S
N3422 H3429 0.984 . S
N3423 C3416 1.356 . S
N3423 H3426 0.984 . S
N3423 H3427 0.985 . S
H3424 N3419 0.984 . S
H3425 N3419 0.985 . S
H3426 N3423 0.984 . S
H3427 N3423 0.985 . S
H3428 N3422 0.984 . S
H3429 N3422 0.984 . S
H3430 N3418 0.984 . S
H3431 N3418 0.985 . S
C3432 C3433 1.363 . S
C3432 C3438 1.379 . S
C3432 N3440 1.356 . S
C3433 C3432 1.363 . S
C3433 C3439 1.363 . S
C3434 C3435 1.363 . S
C3434 C3439 1.379 . S
C3434 N3441 1.356 . S
C3435 C3434 1.363 . S
C3435 C3438 1.363 . S
N3436 C3438 1.356 . S
N3436 H3448 0.984 . S
N3436 H3449 0.985 . S
N3437 C3439 1.356 . S
N3437 H3442 0.984 . S
N3437 H3443 0.985 . S
C3438 C3432 1.379 . S
C3438 C3435 1.363 . S
C3438 N3436 1.356 . S
C3439 C3433 1.363 . S
C3439 C3434 1.379 . S
C3439 N3437 1.356 . S
N3440 C3432 1.356 . S
N3440 H3446 0.984 . S
N3440 H3447 0.984 . S
N3441 C3434 1.356 . S
N3441 H3444 0.984 . S
N3441 H3445 0.985 . S
H3442 N3437 0.984 . S
H3443 N3437 0.985 . S
H3444 N3441 0.984 . S
H3445 N3441 0.985 . S
H3446 N3440 0.984 . S
H3447 N3440 0.984 . S
H3448 N3436 0.984 . S
H3449 N3436 0.985 . S
C3450 C3451 1.363 . S
C3450 C3456 1.379 . S
C3450 N3458 1.356 . S
C3451 C3450 1.363 . S
C3451 C3457 1.363 . S
C3452 C3453 1.363 . S
C3452 C3457 1.379 . S
C3452 N3459 1.356 . S
C3453 C3452 1.363 . S
C3453 C3456 1.363 . S
N3454 C3456 1.356 . S
N3454 H3466 0.984 . S
N3454 H3467 0.985 . S
N3455 C3457 1.356 . S
N3455 H3460 0.984 . S
N3455 H3461 0.985 . S
C3456 C3450 1.379 . S
C3456 C3453 1.363 . S
C3456 N3454 1.356 . S
C3457 C3451 1.363 . S
C3457 C3452 1.379 . S
C3457 N3455 1.356 . S
N3458 C3450 1.356 . S
N3458 H3464 0.984 . S
N3458 H3465 0.984 . S
N3459 C3452 1.356 . S
N3459 H3462 0.984 . S
N3459 H3463 0.985 . S
H3460 N3455 0.984 . S
H3461 N3455 0.985 . S
H3462 N3459 0.984 . S
H3463 N3459 0.985 . S
H3464 N3458 0.984 . S
H3465 N3458 0.984 . S
H3466 N3454 0.984 . S
H3467 N3454 0.985 . S
C3468 C3469 1.363 . S
C3468 C3474 1.379 . S
C3468 N3476 1.356 . S
C3469 C3468 1.363 . S
C3469 C3475 1.363 . S
C3470 C3471 1.363 . S
C3470 C3475 1.379 . S
C3470 N3477 1.356 . S
C3471 C3470 1.363 . S
C3471 C3474 1.363 . S
N3472 C3474 1.356 . S
N3472 H3484 0.984 . S
N3472 H3485 0.985 . S
N3473 C3475 1.356 . S
N3473 H3478 0.984 . S
N3473 H3479 0.985 . S
C3474 C3468 1.379 . S
C3474 C3471 1.363 . S
C3474 N3472 1.356 . S
C3475 C3469 1.363 . S
C3475 C3470 1.379 . S
C3475 N3473 1.356 . S
N3476 C3468 1.356 . S
N3476 H3482 0.984 . S
N3476 H3483 0.984 . S
N3477 C3470 1.356 . S
N3477 H3480 0.984 . S
N3477 H3481 0.985 . S
H3478 N3473 0.984 . S
H3479 N3473 0.985 . S
H3480 N3477 0.984 . S
H3481 N3477 0.985 . S
H3482 N3476 0.984 . S
H3483 N3476 0.984 . S
H3484 N3472 0.984 . S
H3485 N3472 0.985 . S
C3486 C3487 1.363 . S
C3486 C3492 1.379 . S
C3486 N3494 1.356 . S
C3487 C3486 1.363 . S
C3487 C3493 1.363 . S
C3488 C3489 1.363 . S
C3488 C3493 1.379 . S
C3488 N3495 1.356 . S
C3489 C3488 1.363 . S
C3489 C3492 1.363 . S
N3490 C3492 1.356 . S
N3490 H3502 0.984 . S
N3490 H3503 0.985 . S
N3491 C3493 1.356 . S
N3491 H3496 0.984 . S
N3491 H3497 0.985 . S
C3492 C3486 1.379 . S
C3492 C3489 1.363 . S
C3492 N3490 1.356 . S
C3493 C3487 1.363 . S
C3493 C3488 1.379 . S
C3493 N3491 1.356 . S
N3494 C3486 1.356 . S
N3494 H3500 0.984 . S
N3494 H3501 0.984 . S
N3495 C3488 1.356 . S
N3495 H3498 0.984 . S
N3495 H3499 0.985 . S
H3496 N3491 0.984 . S
H3497 N3491 0.985 . S
H3498 N3495 0.984 . S
H3499 N3495 0.985 . S
H3500 N3494 0.984 . S
H3501 N3494 0.984 . S
H3502 N3490 0.984 . S
H3503 N3490 0.985 . S
C3504 C3505 1.363 . S
C3504 C3510 1.379 . S
C3504 N3512 1.356 . S
C3505 C3504 1.363 . S
C3505 C3511 1.363 . S
C3506 C3507 1.363 . S
C3506 C3511 1.379 . S
C3506 N3513 1.356 . S
C3507 C3506 1.363 . S
C3507 C3510 1.363 . S
N3508 C3510 1.356 . S
N3508 H3520 0.984 . S
N3508 H3521 0.985 . S
N3509 C3511 1.356 . S
N3509 H3514 0.984 . S
N3509 H3515 0.985 . S
C3510 C3504 1.379 . S
C3510 C3507 1.363 . S
C3510 N3508 1.356 . S
C3511 C3505 1.363 . S
C3511 C3506 1.379 . S
C3511 N3509 1.356 . S
N3512 C3504 1.356 . S
N3512 H3518 0.984 . S
N3512 H3519 0.984 . S
N3513 C3506 1.356 . S
N3513 H3516 0.984 . S
N3513 H3517 0.985 . S
H3514 N3509 0.984 . S
H3515 N3509 0.985 . S
H3516 N3513 0.984 . S
H3517 N3513 0.985 . S
H3518 N3512 0.984 . S
H3519 N3512 0.984 . S
H3520 N3508 0.984 . S
H3521 N3508 0.985 . S
C3522 C3523 1.363 . S
C3522 C3528 1.379 . S
C3522 N3530 1.356 . S
C3523 C3522 1.363 . S
C3523 C3529 1.363 . S
C3524 C3525 1.363 . S
C3524 C3529 1.379 . S
C3524 N3531 1.356 . S
C3525 C3524 1.363 . S
C3525 C3528 1.363 . S
N3526 C3528 1.356 . S
N3526 H3538 0.984 . S
N3526 H3539 0.985 . S
N3527 C3529 1.356 . S
N3527 H3532 0.984 . S
N3527 H3533 0.985 . S
C3528 C3522 1.379 . S
C3528 C3525 1.363 . S
C3528 N3526 1.356 . S
C3529 C3523 1.363 . S
C3529 C3524 1.379 . S
C3529 N3527 1.356 . S
N3530 C3522 1.356 . S
N3530 H3536 0.984 . S
N3530 H3537 0.984 . S
N3531 C3524 1.356 . S
N3531 H3534 0.984 . S
N3531 H3535 0.985 . S
H3532 N3527 0.984 . S
H3533 N3527 0.985 . S
H3534 N3531 0.984 . S
H3535 N3531 0.985 . S
H3536 N3530 0.984 . S
H3537 N3530 0.984 . S
H3538 N3526 0.984 . S
H3539 N3526 0.985 . S
C3540 C3541 1.363 . S
C3540 C3546 1.379 . S
C3540 N3548 1.356 . S
C3541 C3540 1.363 . S
C3541 C3547 1.363 . S
C3542 C3543 1.363 . S
C3542 C3547 1.379 . S
C3542 N3549 1.356 . S
C3543 C3542 1.363 . S
C3543 C3546 1.363 . S
N3544 C3546 1.356 . S
N3544 H3556 0.984 . S
N3544 H3557 0.985 . S
N3545 C3547 1.356 . S
N3545 H3550 0.984 . S
N3545 H3551 0.985 . S
C3546 C3540 1.379 . S
C3546 C3543 1.363 . S
C3546 N3544 1.356 . S
C3547 C3541 1.363 . S
C3547 C3542 1.379 . S
C3547 N3545 1.356 . S
N3548 C3540 1.356 . S
N3548 H3554 0.984 . S
N3548 H3555 0.984 . S
N3549 C3542 1.356 . S
N3549 H3552 0.984 . S
N3549 H3553 0.985 . S
H3550 N3545 0.984 . S
H3551 N3545 0.985 . S
H3552 N3549 0.984 . S
H3553 N3549 0.985 . S
H3554 N3548 0.984 . S
H3555 N3548 0.984 . S
H3556 N3544 0.984 . S
H3557 N3544 0.985 . S
C3558 C3559 1.363 . S
C3558 C3564 1.379 . S
C3558 N3566 1.356 . S
C3559 C3558 1.363 . S
C3559 C3565 1.363 . S
C3560 C3561 1.363 . S
C3560 C3565 1.379 . S
C3560 N3567 1.356 . S
C3561 C3560 1.363 . S
C3561 C3564 1.363 . S
N3562 C3564 1.356 . S
N3562 H3574 0.984 . S
N3562 H3575 0.985 . S
N3563 C3565 1.356 . S
N3563 H3568 0.984 . S
N3563 H3569 0.985 . S
C3564 C3558 1.379 . S
C3564 C3561 1.363 . S
C3564 N3562 1.356 . S
C3565 C3559 1.363 . S
C3565 C3560 1.379 . S
C3565 N3563 1.356 . S
N3566 C3558 1.356 . S
N3566 H3572 0.984 . S
N3566 H3573 0.984 . S
N3567 C3560 1.356 . S
N3567 H3570 0.984 . S
N3567 H3571 0.985 . S
H3568 N3563 0.984 . S
H3569 N3563 0.985 . S
H3570 N3567 0.984 . S
H3571 N3567 0.985 . S
H3572 N3566 0.984 . S
H3573 N3566 0.984 . S
H3574 N3562 0.984 . S
H3575 N3562 0.985 . S
C3576 C3577 1.363 . S
C3576 C3582 1.379 . S
C3576 N3584 1.356 . S
C3577 C3576 1.363 . S
C3577 C3583 1.363 . S
C3578 C3579 1.363 . S
C3578 C3583 1.379 . S
C3578 N3585 1.356 . S
C3579 C3578 1.363 . S
C3579 C3582 1.363 . S
N3580 C3582 1.356 . S
N3580 H3592 0.984 . S
N3580 H3593 0.985 . S
N3581 C3583 1.356 . S
N3581 H3586 0.984 . S
N3581 H3587 0.985 . S
C3582 C3576 1.379 . S
C3582 C3579 1.363 . S
C3582 N3580 1.356 . S
C3583 C3577 1.363 . S
C3583 C3578 1.379 . S
C3583 N3581 1.356 . S
N3584 C3576 1.356 . S
N3584 H3590 0.984 . S
N3584 H3591 0.984 . S
N3585 C3578 1.356 . S
N3585 H3588 0.984 . S
N3585 H3589 0.985 . S
H3586 N3581 0.984 . S
H3587 N3581 0.985 . S
H3588 N3585 0.984 . S
H3589 N3585 0.985 . S
H3590 N3584 0.984 . S
H3591 N3584 0.984 . S
H3592 N3580 0.984 . S
H3593 N3580 0.985 . S
C3594 C3595 1.363 . S
C3594 C3600 1.379 . S
C3594 N3602 1.356 . S
C3595 C3594 1.363 . S
C3595 C3601 1.363 . S
C3596 C3597 1.363 . S
C3596 C3601 1.379 . S
C3596 N3603 1.356 . S
C3597 C3596 1.363 . S
C3597 C3600 1.363 . S
N3598 C3600 1.356 . S
N3598 H3610 0.984 . S
N3598 H3611 0.985 . S
N3599 C3601 1.356 . S
N3599 H3604 0.984 . S
N3599 H3605 0.985 . S
C3600 C3594 1.379 . S
C3600 C3597 1.363 . S
C3600 N3598 1.356 . S
C3601 C3595 1.363 . S
C3601 C3596 1.379 . S
C3601 N3599 1.356 . S
N3602 C3594 1.356 . S
N3602 H3608 0.984 . S
N3602 H3609 0.984 . S
N3603 C3596 1.356 . S
N3603 H3606 0.984 . S
N3603 H3607 0.985 . S
H3604 N3599 0.984 . S
H3605 N3599 0.985 . S
H3606 N3603 0.984 . S
H3607 N3603 0.985 . S
H3608 N3602 0.984 . S
H3609 N3602 0.984 . S
H3610 N3598 0.984 . S
H3611 N3598 0.985 . S
C3612 C3613 1.363 . S
C3612 C3618 1.379 . S
C3612 N3620 1.356 . S
C3613 C3612 1.363 . S
C3613 C3619 1.363 . S
C3614 C3615 1.363 . S
C3614 C3619 1.379 . S
C3614 N3621 1.356 . S
C3615 C3614 1.363 . S
C3615 C3618 1.363 . S
N3616 C3618 1.356 . S
N3616 H3628 0.984 . S
N3616 H3629 0.985 . S
N3617 C3619 1.356 . S
N3617 H3622 0.984 . S
N3617 H3623 0.985 . S
C3618 C3612 1.379 . S
C3618 C3615 1.363 . S
C3618 N3616 1.356 . S
C3619 C3613 1.363 . S
C3619 C3614 1.379 . S
C3619 N3617 1.356 . S
N3620 C3612 1.356 . S
N3620 H3626 0.984 . S
N3620 H3627 0.984 . S
N3621 C3614 1.356 . S
N3621 H3624 0.984 . S
N3621 H3625 0.985 . S
H3622 N3617 0.984 . S
H3623 N3617 0.985 . S
H3624 N3621 0.984 . S
H3625 N3621 0.985 . S
H3626 N3620 0.984 . S
H3627 N3620 0.984 . S
H3628 N3616 0.984 . S
H3629 N3616 0.985 . S
C3630 C3631 1.363 . S
C3630 C3636 1.379 . S
C3630 N3638 1.356 . S
C3631 C3630 1.363 . S
C3631 C3637 1.363 . S
C3632 C3633 1.363 . S
C3632 C3637 1.379 . S
C3632 N3639 1.356 . S
C3633 C3632 1.363 . S
C3633 C3636 1.363 . S
N3634 C3636 1.356 . S
N3634 H3646 0.984 . S
N3634 H3647 0.985 . S
N3635 C3637 1.356 . S
N3635 H3640 0.984 . S
N3635 H3641 0.985 . S
C3636 C3630 1.379 . S
C3636 C3633 1.363 . S
C3636 N3634 1.356 . S
C3637 C3631 1.363 . S
C3637 C3632 1.379 . S
C3637 N3635 1.356 . S
N3638 C3630 1.356 . S
N3638 H3644 0.984 . S
N3638 H3645 0.984 . S
N3639 C3632 1.356 . S
N3639 H3642 0.984 . S
N3639 H3643 0.985 . S
H3640 N3635 0.984 . S
H3641 N3635 0.985 . S
H3642 N3639 0.984 . S
H3643 N3639 0.985 . S
H3644 N3638 0.984 . S
H3645 N3638 0.984 . S
H3646 N3634 0.984 . S
H3647 N3634 0.985 . S
C3648 C3649 1.363 . S
C3648 C3654 1.379 . S
C3648 N3656 1.356 . S
C3649 C3648 1.363 . S
C3649 C3655 1.363 . S
C3650 C3651 1.363 . S
C3650 C3655 1.379 . S
C3650 N3657 1.356 . S
C3651 C3650 1.363 . S
C3651 C3654 1.363 . S
N3652 C3654 1.356 . S
N3652 H3664 0.984 . S
N3652 H3665 0.985 . S
N3653 C3655 1.356 . S
N3653 H3658 0.984 . S
N3653 H3659 0.985 . S
C3654 C3648 1.379 . S
C3654 C3651 1.363 . S
C3654 N3652 1.356 . S
C3655 C3649 1.363 . S
C3655 C3650 1.379 . S
C3655 N3653 1.356 . S
N3656 C3648 1.356 . S
N3656 H3662 0.984 . S
N3656 H3663 0.984 . S
N3657 C3650 1.356 . S
N3657 H3660 0.984 . S
N3657 H3661 0.985 . S
H3658 N3653 0.984 . S
H3659 N3653 0.985 . S
H3660 N3657 0.984 . S
H3661 N3657 0.985 . S
H3662 N3656 0.984 . S
H3663 N3656 0.984 . S
H3664 N3652 0.984 . S
H3665 N3652 0.985 . S
C3666 C3667 1.363 . S
C3666 C3672 1.379 . S
C3666 N3674 1.356 . S
C3667 C3666 1.363 . S
C3667 C3673 1.363 . S
C3668 C3669 1.363 . S
C3668 C3673 1.379 . S
C3668 N3675 1.356 . S
C3669 C3668 1.363 . S
C3669 C3672 1.363 . S
N3670 C3672 1.356 . S
N3670 H3682 0.984 . S
N3670 H3683 0.985 . S
N3671 C3673 1.356 . S
N3671 H3676 0.984 . S
N3671 H3677 0.985 . S
C3672 C3666 1.379 . S
C3672 C3669 1.363 . S
C3672 N3670 1.356 . S
C3673 C3667 1.363 . S
C3673 C3668 1.379 . S
C3673 N3671 1.356 . S
N3674 C3666 1.356 . S
N3674 H3680 0.984 . S
N3674 H3681 0.984 . S
N3675 C3668 1.356 . S
N3675 H3678 0.984 . S
N3675 H3679 0.985 . S
H3676 N3671 0.984 . S
H3677 N3671 0.985 . S
H3678 N3675 0.984 . S
H3679 N3675 0.985 . S
H3680 N3674 0.984 . S
H3681 N3674 0.984 . S
H3682 N3670 0.984 . S
H3683 N3670 0.985 . S
C3684 C3685 1.363 . S
C3684 C3690 1.379 . S
C3684 N3692 1.356 . S
C3685 C3684 1.363 . S
C3685 C3691 1.363 . S
C3686 C3687 1.363 . S
C3686 C3691 1.379 . S
C3686 N3693 1.356 . S
C3687 C3686 1.363 . S
C3687 C3690 1.363 . S
N3688 C3690 1.356 . S
N3688 H3700 0.984 . S
N3688 H3701 0.985 . S
N3689 C3691 1.356 . S
N3689 H3694 0.984 . S
N3689 H3695 0.985 . S
C3690 C3684 1.379 . S
C3690 C3687 1.363 . S
C3690 N3688 1.356 . S
C3691 C3685 1.363 . S
C3691 C3686 1.379 . S
C3691 N3689 1.356 . S
N3692 C3684 1.356 . S
N3692 H3698 0.984 . S
N3692 H3699 0.984 . S
N3693 C3686 1.356 . S
N3693 H3696 0.984 . S
N3693 H3697 0.985 . S
H3694 N3689 0.984 . S
H3695 N3689 0.985 . S
H3696 N3693 0.984 . S
H3697 N3693 0.985 . S
H3698 N3692 0.984 . S
H3699 N3692 0.984 . S
H3700 N3688 0.984 . S
H3701 N3688 0.985 . S
C3702 C3703 1.363 . S
C3702 C3708 1.379 . S
C3702 N3710 1.356 . S
C3703 C3702 1.363 . S
C3703 C3709 1.363 . S
C3704 C3705 1.363 . S
C3704 C3709 1.379 . S
C3704 N3711 1.356 . S
C3705 C3704 1.363 . S
C3705 C3708 1.363 . S
N3706 C3708 1.356 . S
N3706 H3718 0.984 . S
N3706 H3719 0.985 . S
N3707 C3709 1.356 . S
N3707 H3712 0.984 . S
N3707 H3713 0.985 . S
C3708 C3702 1.379 . S
C3708 C3705 1.363 . S
C3708 N3706 1.356 . S
C3709 C3703 1.363 . S
C3709 C3704 1.379 . S
C3709 N3707 1.356 . S
N3710 C3702 1.356 . S
N3710 H3716 0.984 . S
N3710 H3717 0.984 . S
N3711 C3704 1.356 . S
N3711 H3714 0.984 . S
N3711 H3715 0.985 . S
H3712 N3707 0.984 . S
H3713 N3707 0.985 . S
H3714 N3711 0.984 . S
H3715 N3711 0.985 . S
H3716 N3710 0.984 . S
H3717 N3710 0.984 . S
H3718 N3706 0.984 . S
H3719 N3706 0.985 . S
C3720 C3721 1.363 . S
C3720 C3726 1.379 . S
C3720 N3728 1.356 . S
C3721 C3720 1.363 . S
C3721 C3727 1.363 . S
C3722 C3723 1.363 . S
C3722 C3727 1.379 . S
C3722 N3729 1.356 . S
C3723 C3722 1.363 . S
C3723 C3726 1.363 . S
N3724 C3726 1.356 . S
N3724 H3736 0.984 . S
N3724 H3737 0.985 . S
N3725 C3727 1.356 . S
N3725 H3730 0.984 . S
N3725 H3731 0.985 . S
C3726 C3720 1.379 . S
C3726 C3723 1.363 . S
C3726 N3724 1.356 . S
C3727 C3721 1.363 . S
C3727 C3722 1.379 . S
C3727 N3725 1.356 . S
N3728 C3720 1.356 . S
N3728 H3734 0.984 . S
N3728 H3735 0.984 . S
N3729 C3722 1.356 . S
N3729 H3732 0.984 . S
N3729 H3733 0.985 . S
H3730 N3725 0.984 . S
H3731 N3725 0.985 . S
H3732 N3729 0.984 . S
H3733 N3729 0.985 . S
H3734 N3728 0.984 . S
H3735 N3728 0.984 . S
H3736 N3724 0.984 . S
H3737 N3724 0.985 . S
C3738 C3739 1.363 . S
C3738 C3744 1.379 . S
C3738 N3746 1.356 . S
C3739 C3738 1.363 . S
C3739 C3745 1.363 . S
C3740 C3741 1.363 . S
C3740 C3745 1.379 . S
C3740 N3747 1.356 . S
C3741 C3740 1.363 . S
C3741 C3744 1.363 . S
N3742 C3744 1.356 . S
N3742 H3754 0.984 . S
N3742 H3755 0.985 . S
N3743 C3745 1.356 . S
N3743 H3748 0.984 . S
N3743 H3749 0.985 . S
C3744 C3738 1.379 . S
C3744 C3741 1.363 . S
C3744 N3742 1.356 . S
C3745 C3739 1.363 . S
C3745 C3740 1.379 . S
C3745 N3743 1.356 . S
N3746 C3738 1.356 . S
N3746 H3752 0.984 . S
N3746 H3753 0.984 . S
N3747 C3740 1.356 . S
N3747 H3750 0.984 . S
N3747 H3751 0.985 . S
H3748 N3743 0.984 . S
H3749 N3743 0.985 . S
H3750 N3747 0.984 . S
H3751 N3747 0.985 . S
H3752 N3746 0.984 . S
H3753 N3746 0.984 . S
H3754 N3742 0.984 . S
H3755 N3742 0.985 . S
C3756 C3757 1.363 . S
C3756 C3762 1.379 . S
C3756 N3764 1.356 . S
C3757 C3756 1.363 . S
C3757 C3763 1.363 . S
C3758 C3759 1.363 . S
C3758 C3763 1.379 . S
C3758 N3765 1.356 . S
C3759 C3758 1.363 . S
C3759 C3762 1.363 . S
N3760 C3762 1.356 . S
N3760 H3772 0.984 . S
N3760 H3773 0.985 . S
N3761 C3763 1.356 . S
N3761 H3766 0.984 . S
N3761 H3767 0.985 . S
C3762 C3756 1.379 . S
C3762 C3759 1.363 . S
C3762 N3760 1.356 . S
C3763 C3757 1.363 . S
C3763 C3758 1.379 . S
C3763 N3761 1.356 . S
N3764 C3756 1.356 . S
N3764 H3770 0.984 . S
N3764 H3771 0.984 . S
N3765 C3758 1.356 . S
N3765 H3768 0.984 . S
N3765 H3769 0.985 . S
H3766 N3761 0.984 . S
H3767 N3761 0.985 . S
H3768 N3765 0.984 . S
H3769 N3765 0.985 . S
H3770 N3764 0.984 . S
H3771 N3764 0.984 . S
H3772 N3760 0.984 . S
H3773 N3760 0.985 . S
C3774 C3775 1.363 . S
C3774 C3780 1.379 . S
C3774 N3782 1.356 . S
C3775 C3774 1.363 . S
C3775 C3781 1.363 . S
C3776 C3777 1.363 . S
C3776 C3781 1.379 . S
C3776 N3783 1.356 . S
C3777 C3776 1.363 . S
C3777 C3780 1.363 . S
N3778 C3780 1.356 . S
N3778 H3790 0.984 . S
N3778 H3791 0.985 . S
N3779 C3781 1.356 . S
N3779 H3784 0.984 . S
N3779 H3785 0.985 . S
C3780 C3774 1.379 . S
C3780 C3777 1.363 . S
C3780 N3778 1.356 . S
C3781 C3775 1.363 . S
C3781 C3776 1.379 . S
C3781 N3779 1.356 . S
N3782 C3774 1.356 . S
N3782 H3788 0.984 . S
N3782 H3789 0.984 . S
N3783 C3776 1.356 . S
N3783 H3786 0.984 . S
N3783 H3787 0.985 . S
H3784 N3779 0.984 . S
H3785 N3779 0.985 . S
H3786 N3783 0.984 . S
H3787 N3783 0.985 . S
H3788 N3782 0.984 . S
H3789 N3782 0.984 . S
H3790 N3778 0.984 . S
H3791 N3778 0.985 . S
C1633 C5 1.773 . S
C1635 C360 1.873 . S
C1651 C394 1.873 . S
C1653 C39 1.773 . S
C1669 C292 1.873 . S
C1671 C73 1.773 . S
C1687 C326 1.873 . S
C1689 C107 1.773 . S
C1705 C496 1.873 . S
C1707 C141 1.773 . S
C1723 C175 1.773 . S
C1725 C530 1.873 . S
C1741 C428 1.873 . S
C1743 C209 1.773 . S
C1759 C462 1.873 . S
C1761 C243 1.773 . S
C1777 C277 1.773 . S
C1779 C598 1.873 . S
C1795 C311 1.773 . S
C1797 C632 1.873 . S
C1813 C345 1.773 . S
C1815 C666 1.873 . S
C1831 C379 1.773 . S
C1833 C1516 1.873 . S
C1849 C1380 1.873 . S
C1851 C413 1.773 . S
C1867 C447 1.773 . S
C1869 C802 1.873 . S
C1885 C481 1.773 . S
C1887 C1550 1.873 . S
C1903 C768 1.873 . S
C1905 C515 1.773 . S
C1921 C549 1.773 . S
C1923 C1040 1.873 . S
C1939 C583 1.773 . S
C1941 C88 1.873 . S
C1957 C122 1.873 . S
C1959 C617 1.773 . S
C1975 C20 1.873 . S
C1977 C651 1.773 . S
C1993 C685 1.773 . S
C1995 C870 1.873 . S
C2011 C719 1.773 . S
C2013 C972 1.873 . S
C2029 C190 1.873 . S
C2031 C753 1.773 . S
C2047 C258 1.873 . S
C2049 C787 1.773 . S
C2065 C1176 1.873 . S
C2067 C821 1.773 . S
C2083 C855 1.773 . S
C2085 C1210 1.873 . S
C2101 C1108 1.873 . S
C2103 C889 1.773 . S
C2119 C1142 1.873 . S
C2121 C923 1.773 . S
C2137 C1312 1.873 . S
C2139 C957 1.773 . S
C2155 C1346 1.873 . S
C2157 C991 1.773 . S
C2173 C1244 1.873 . S
C2175 C1025 1.773 . S
C2191 C1059 1.773 . S
C2193 C1278 1.873 . S
C2209 C1414 1.873 . S
C2211 C1093 1.773 . S
C2227 C1448 1.873 . S
C2229 C1127 1.773 . S
C2245 C1161 1.773 . S
C2247 C1482 1.873 . S
C2263 C1195 1.773 . S
C2265 C700 1.873 . S
C2281 C1229 1.773 . S
C2283 C564 1.873 . S
C2299 C1263 1.773 . S
C2301 C1618 1.873 . S
C2317 C734 1.873 . S
C2319 C1297 1.773 . S
C2335 C1584 1.873 . S
C2337 C1331 1.773 . S
C2353 C224 1.873 . S
C2355 C1365 1.773 . S
C2371 C904 1.873 . S
C2373 C1399 1.773 . S
C2389 C1433 1.773 . S
C2391 C938 1.873 . S
C2407 C1467 1.773 . S
C2409 C836 1.873 . S
C2425 C54 1.873 . S
C2427 C1501 1.773 . S
C2443 C156 1.873 . S
C2445 C1535 1.773 . S
C2461 C1569 1.773 . S
C2463 C1006 1.873 . S
C2479 C1074 1.873 . S
C2481 C1603 1.773 . S
C2497 C2 2.235 . S
C2499 C886 2.235 . S
C2515 C36 2.235 . S
C2517 C920 2.235 . S
C2533 C70 2.235 . S
C2535 C818 2.235 . S
C2551 C852 2.235 . S
C2553 C104 2.235 . S
C2569 C1022 2.235 . S
C2571 C138 2.235 . S
C2587 C1056 2.235 . S
C2589 C172 2.235 . S
C2605 C954 2.235 . S
C2607 C206 2.235 . S
C2623 C988 2.235 . S
C2625 C240 2.235 . S
C2641 C274 2.235 . S
C2643 C410 2.235 . S
C2659 C444 2.235 . S
C2661 C308 2.235 . S
C2677 C342 2.235 . S
C2679 C478 2.235 . S
C2695 C376 2.235 . S
C2697 C512 2.235 . S
C2713 C546 2.235 . S
C2715 C1464 2.235 . S
C2731 C580 2.235 . S
C2733 C1532 2.235 . S
C2749 C614 2.235 . S
C2751 C750 2.235 . S
C2767 C1362 2.235 . S
C2769 C648 2.235 . S
C2785 C1600 2.235 . S
C2787 C682 2.235 . S
C2803 C1396 2.235 . S
C2805 C716 2.235 . S
C2821 C784 2.235 . S
C2823 C1498 2.235 . S
C2839 C1090 2.235 . S
C2841 C1226 2.235 . S
C2857 C1124 2.235 . S
C2859 C1260 2.235 . S
C2875 C1158 2.235 . S
C2877 C1294 2.235 . S
C2893 C1192 2.235 . S
C2895 C1328 2.235 . S
C2911 C1430 2.235 . S
C2913 C1566 2.235 . S
C2929 C689 0.981 . S
C2931 C9 0.981 . S
C2947 C43 0.981 . S
C2949 C1403 0.981 . S
C2965 C77 0.981 . S
C2967 C1437 0.981 . S
C2983 C1471 0.981 . S
C2985 C111 0.981 . S
C3001 C1607 0.981 . S
C3003 C145 0.981 . S
C3019 C723 0.981 . S
C3021 C179 0.981 . S
C3037 C213 0.981 . S
C3039 C1573 0.981 . S
C3055 C247 0.981 . S
C3057 C553 0.981 . S
C3073 C519 0.981 . S
C3075 C281 0.981 . S
C3091 C315 0.981 . S
C3093 C417 0.981 . S
C3109 C349 0.981 . S
C3111 C451 0.981 . S
C3127 C485 0.981 . S
C3129 C383 0.981 . S
C3145 C859 0.981 . S
C3147 C587 0.981 . S
C3163 C621 0.981 . S
C3165 C893 0.981 . S
C3181 C655 0.981 . S
C3183 C927 0.981 . S
C3199 C757 0.981 . S
C3201 C1029 0.981 . S
C3217 C961 0.981 . S
C3219 C791 0.981 . S
C3235 C825 0.981 . S
C3237 C1505 0.981 . S
C3253 C1539 0.981 . S
C3255 C995 0.981 . S
C3271 C1369 0.981 . S
C3273 C1063 0.981 . S
C3289 C1097 0.981 . S
C3291 C1335 0.981 . S
C3307 C1233 0.981 . S
C3309 C1131 0.981 . S
C3325 C1165 0.981 . S
C3327 C1267 0.981 . S
C3343 C1199 0.981 . S
C3345 C1301 0.981 . S
C3361 C33 1.640 . S
C3363 C339 1.640 . S
C3379 C373 1.640 . S
C3381 C67 1.640 . S
C3397 C407 1.640 . S
C3399 C101 1.640 . S
C3415 C305 1.640 . S
C3417 C135 1.640 . S
C3433 C169 1.640 . S
C3435 C543 1.640 . S
C3451 C441 1.640 . S
C3453 C203 1.640 . S
C3469 C237 1.639 . S
C3471 C475 1.639 . S
C3487 C271 1.640 . S
C3489 C509 1.640 . S
C3505 C645 1.640 . S
C3507 C577 1.640 . S
C3523 C611 1.640 . S
C3525 C1597 1.640 . S
C3541 C1631 1.640 . S
C3543 C679 1.640 . S
C3559 C713 1.640 . S
C3561 C1563 1.640 . S
C3577 C1529 1.639 . S
C3579 C747 1.639 . S
C3595 C781 1.639 . S
C3597 C1427 1.639 . S
C3613 C1495 1.640 . S
C3615 C815 1.640 . S
C3631 C1155 1.639 . S
C3633 C849 1.639 . S
C3649 C1189 1.639 . S
C3651 C883 1.639 . S
C3667 C917 1.640 . S
C3669 C1223 1.640 . S
C3685 C951 1.639 . S
C3687 C1121 1.639 . S
C3703 C985 1.639 . S
C3705 C1359 1.639 . S
C3721 C1019 1.640 . S
C3723 C1257 1.640 . S
C3739 C1291 1.640 . S
C3741 C1053 1.640 . S
C3757 C1087 1.639 . S
C3759 C1325 1.639 . S
C3775 C1393 1.639 . S
C3777 C1461 1.639 . S
