# Generated by pormake.
# Topology swd, (7)-cn, num edge types: 1
# Building blocks:
#     Node 0, Type 0, BuildingBlock: HICVOG_clean_sbu_0, # of connection points: 7
#     Node 1, Type 0, BuildingBlock: HICVOG_clean_sbu_0, # of connection points: 7
#     Node 2, Type 0, BuildingBlock: HICVOG_clean_sbu_0, # of connection points: 7
#     Node 3, Type 0, BuildingBlock: HICVOG_clean_sbu_0, # of connection points: 7
#     Node 4, Type 0, BuildingBlock: HICVOG_clean_sbu_0, # of connection points: 7
#     Node 5, Type 0, BuildingBlock: HICVOG_clean_sbu_0, # of connection points: 7
#     Node 6, Type 0, BuildingBlock: HICVOG_clean_sbu_0, # of connection points: 7
#     Node 7, Type 0, BuildingBlock: HICVOG_clean_sbu_0, # of connection points: 7
#     Node 8, Type 0, BuildingBlock: HICVOG_clean_sbu_0, # of connection points: 7
#     Node 9, Type 0, BuildingBlock: HICVOG_clean_sbu_0, # of connection points: 7
#     Node 10, Type 0, BuildingBlock: HICVOG_clean_sbu_0, # of connection points: 7
#     Node 11, Type 0, BuildingBlock: HICVOG_clean_sbu_0, # of connection points: 7
#     Node 12, Type 0, BuildingBlock: HICVOG_clean_sbu_0, # of connection points: 7
#     Node 13, Type 0, BuildingBlock: HICVOG_clean_sbu_0, # of connection points: 7
#     Node 14, Type 0, BuildingBlock: HICVOG_clean_sbu_0, # of connection points: 7
#     Node 15, Type 0, BuildingBlock: HICVOG_clean_sbu_0, # of connection points: 7
#     Node 16, Type 0, BuildingBlock: HICVOG_clean_sbu_0, # of connection points: 7
#     Node 17, Type 0, BuildingBlock: HICVOG_clean_sbu_0, # of connection points: 7
#     Edge 18, Type (0, 0), BuildingBlock: EZIPEK_clean_linker_0, # of connection points: 2
#     Edge 19, Type (0, 0), BuildingBlock: EZIPEK_clean_linker_0, # of connection points: 2
#     Edge 20, Type (0, 0), BuildingBlock: EZIPEK_clean_linker_0, # of connection points: 2
#     Edge 21, Type (0, 0), BuildingBlock: EZIPEK_clean_linker_0, # of connection points: 2
#     Edge 22, Type (0, 0), BuildingBlock: EZIPEK_clean_linker_0, # of connection points: 2
#     Edge 23, Type (0, 0), BuildingBlock: EZIPEK_clean_linker_0, # of connection points: 2
#     Edge 24, Type (0, 0), BuildingBlock: EZIPEK_clean_linker_0, # of connection points: 2
#     Edge 25, Type (0, 0), BuildingBlock: EZIPEK_clean_linker_0, # of connection points: 2
#     Edge 26, Type (0, 0), BuildingBlock: EZIPEK_clean_linker_0, # of connection points: 2
#     Edge 27, Type (0, 0), BuildingBlock: EZIPEK_clean_linker_0, # of connection points: 2
#     Edge 28, Type (0, 0), BuildingBlock: EZIPEK_clean_linker_0, # of connection points: 2
#     Edge 29, Type (0, 0), BuildingBlock: EZIPEK_clean_linker_0, # of connection points: 2
#     Edge 30, Type (0, 0), BuildingBlock: EZIPEK_clean_linker_0, # of connection points: 2
#     Edge 31, Type (0, 0), BuildingBlock: EZIPEK_clean_linker_0, # of connection points: 2
#     Edge 32, Type (0, 0), BuildingBlock: EZIPEK_clean_linker_0, # of connection points: 2
#     Edge 33, Type (0, 0), BuildingBlock: EZIPEK_clean_linker_0, # of connection points: 2
#     Edge 34, Type (0, 0), BuildingBlock: EZIPEK_clean_linker_0, # of connection points: 2
#     Edge 35, Type (0, 0), BuildingBlock: EZIPEK_clean_linker_0, # of connection points: 2
#     Edge 36, Type (0, 0), BuildingBlock: EZIPEK_clean_linker_0, # of connection points: 2
#     Edge 37, Type (0, 0), BuildingBlock: EZIPEK_clean_linker_0, # of connection points: 2
#     Edge 38, Type (0, 0), BuildingBlock: EZIPEK_clean_linker_0, # of connection points: 2
#     Edge 39, Type (0, 0), BuildingBlock: EZIPEK_clean_linker_0, # of connection points: 2
#     Edge 40, Type (0, 0), BuildingBlock: EZIPEK_clean_linker_0, # of connection points: 2
#     Edge 41, Type (0, 0), BuildingBlock: EZIPEK_clean_linker_0, # of connection points: 2
#     Edge 42, Type (0, 0), BuildingBlock: EZIPEK_clean_linker_0, # of connection points: 2
#     Edge 43, Type (0, 0), BuildingBlock: EZIPEK_clean_linker_0, # of connection points: 2
#     Edge 44, Type (0, 0), BuildingBlock: EZIPEK_clean_linker_0, # of connection points: 2
#     Edge 45, Type (0, 0), BuildingBlock: EZIPEK_clean_linker_0, # of connection points: 2
#     Edge 46, Type (0, 0), BuildingBlock: EZIPEK_clean_linker_0, # of connection points: 2
#     Edge 47, Type (0, 0), BuildingBlock: EZIPEK_clean_linker_0, # of connection points: 2
#     Edge 48, Type (0, 0), BuildingBlock: EZIPEK_clean_linker_0, # of connection points: 2
#     Edge 49, Type (0, 0), BuildingBlock: EZIPEK_clean_linker_0, # of connection points: 2
#     Edge 50, Type (0, 0), BuildingBlock: EZIPEK_clean_linker_0, # of connection points: 2
#     Edge 51, Type (0, 0), BuildingBlock: EZIPEK_clean_linker_0, # of connection points: 2
#     Edge 52, Type (0, 0), BuildingBlock: EZIPEK_clean_linker_0, # of connection points: 2
#     Edge 53, Type (0, 0), BuildingBlock: EZIPEK_clean_linker_0, # of connection points: 2
#     Edge 54, Type (0, 0), BuildingBlock: EZIPEK_clean_linker_0, # of connection points: 2
#     Edge 55, Type (0, 0), BuildingBlock: EZIPEK_clean_linker_0, # of connection points: 2
#     Edge 56, Type (0, 0), BuildingBlock: EZIPEK_clean_linker_0, # of connection points: 2
#     Edge 57, Type (0, 0), BuildingBlock: EZIPEK_clean_linker_0, # of connection points: 2
#     Edge 58, Type (0, 0), BuildingBlock: EZIPEK_clean_linker_0, # of connection points: 2
#     Edge 59, Type (0, 0), BuildingBlock: EZIPEK_clean_linker_0, # of connection points: 2
#     Edge 60, Type (0, 0), BuildingBlock: EZIPEK_clean_linker_0, # of connection points: 2
#     Edge 61, Type (0, 0), BuildingBlock: EZIPEK_clean_linker_0, # of connection points: 2
#     Edge 62, Type (0, 0), BuildingBlock: EZIPEK_clean_linker_0, # of connection points: 2
#     Edge 63, Type (0, 0), BuildingBlock: EZIPEK_clean_linker_0, # of connection points: 2
#     Edge 64, Type (0, 0), BuildingBlock: EZIPEK_clean_linker_0, # of connection points: 2
#     Edge 65, Type (0, 0), BuildingBlock: EZIPEK_clean_linker_0, # of connection points: 2
#     Edge 66, Type (0, 0), BuildingBlock: EZIPEK_clean_linker_0, # of connection points: 2
#     Edge 67, Type (0, 0), BuildingBlock: EZIPEK_clean_linker_0, # of connection points: 2
#     Edge 68, Type (0, 0), BuildingBlock: EZIPEK_clean_linker_0, # of connection points: 2
#     Edge 69, Type (0, 0), BuildingBlock: EZIPEK_clean_linker_0, # of connection points: 2
#     Edge 70, Type (0, 0), BuildingBlock: EZIPEK_clean_linker_0, # of connection points: 2
#     Edge 71, Type (0, 0), BuildingBlock: EZIPEK_clean_linker_0, # of connection points: 2
#     Edge 72, Type (0, 0), BuildingBlock: EZIPEK_clean_linker_0, # of connection points: 2
#     Edge 73, Type (0, 0), BuildingBlock: EZIPEK_clean_linker_0, # of connection points: 2
#     Edge 74, Type (0, 0), BuildingBlock: EZIPEK_clean_linker_0, # of connection points: 2
#     Edge 75, Type (0, 0), BuildingBlock: EZIPEK_clean_linker_0, # of connection points: 2
#     Edge 76, Type (0, 0), BuildingBlock: EZIPEK_clean_linker_0, # of connection points: 2
#     Edge 77, Type (0, 0), BuildingBlock: EZIPEK_clean_linker_0, # of connection points: 2
#     Edge 78, Type (0, 0), BuildingBlock: EZIPEK_clean_linker_0, # of connection points: 2
#     Edge 79, Type (0, 0), BuildingBlock: EZIPEK_clean_linker_0, # of connection points: 2
#     Edge 80, Type (0, 0), BuildingBlock: EZIPEK_clean_linker_0, # of connection points: 2
# Relax obj value: 0.470
# Max RMSD: 0.326
# Mean RMSD: 0.324
data_MOF--net-swd--node1-HICVOG_clean_sbu_0--edge1-EZIPEK_clean_linker_0
_symmetry_space_group_name_H-M    P1
_symmetry_Int_Tables_number       1
_symmetry_cell_setting            triclinic
loop_
_symmetry_equiv_pos_as_xyz
'x, y, z'
_cell_length_a     38.894786
_cell_length_b     38.958136
_cell_length_c     24.276293
_cell_angle_alpha  90.175757
_cell_angle_beta   89.709555
_cell_angle_gamma 120.16617
loop_
_atom_site_label
_atom_site_type_symbol
_atom_site_fract_x
_atom_site_fract_y
_atom_site_fract_z
_atom_type_partial_charge
Zn0 Zn 0.22283 0.16114 0.33472 0.0
C1 C 0.20231 0.07687 0.45041 0.0
N2 N 0.19923 0.1023 0.48443 0.0
C3 C 0.20744 0.13356 0.45227 0.0
N4 N 0.21458 0.12766 0.39978 0.0
N5 N 0.21149 0.0921 0.39836 0.0
C6 C 0.18369 0.99915 0.28864 0.0
O7 O 0.19853 0.01923 0.24294 0.0
O8 O 0.24589 0.22052 0.34706 0.0
Zn9 Zn 0.23399 0.07599 0.33951 0.0
N10 N 0.17095 0.14246 0.30046 0.0
C11 C 0.11511 0.09114 0.2534 0.0
C12 C 0.1533 0.10663 0.2748 0.0
C13 C 0.15173 0.16361 0.3055 0.0
N14 N 0.09574 0.11182 0.25914 0.0
C15 C 0.11272 0.14768 0.28498 0.0
O16 O 0.23929 0.09884 0.26103 0.0
C17 C 0.26396 0.13506 0.25047 0.0
O18 O 0.26393 0.16176 0.28072 0.0
H19 H 0.16855 0.08998 0.27166 0.0
H20 H 0.1661 0.19192 0.32661 0.0
C21 C 0.31241 0.08398 0.3511 0.0
C22 C 0.35281 0.10561 0.36501 0.0
C23 C 0.34385 0.15568 0.40529 0.0
C24 C 0.30412 0.13509 0.38957 0.0
N25 N 0.28884 0.09933 0.36338 0.0
N26 N 0.36755 0.1407 0.39213 0.0
H27 H 0.30028 0.05613 0.329 0.0
C28 C 0.28304 0.24358 0.35403 0.0
O29 O 0.30535 0.22797 0.365 0.0
O30 O 0.19891 0.01555 0.33467 0.0
H31 H 0.28612 0.14832 0.39747 0.0
H32 H 0.10074 0.06258 0.23297 0.0
H33 H 0.35603 0.1839 0.42635 0.0
Zn34 Zn 0.91903 0.17328 0.36551 0.0
C35 C 0.86731 0.08187 0.46803 0.0
N36 N 0.89854 0.10641 0.4997 0.0
C37 C 0.92061 0.13728 0.46668 0.0
N38 N 0.90356 0.13119 0.41627 0.0
N39 N 0.86969 0.09671 0.41706 0.0
C40 C 0.75321 0.04201 0.35225 0.0
O41 O 0.76714 0.07897 0.33698 0.0
O42 O 0.97899 0.1976 0.35086 0.0
Zn43 Zn 0.83763 0.06757 0.3518 0.0
N44 N 0.90145 0.20505 0.40359 0.0
C45 C 0.85191 0.20737 0.45954 0.0
C46 C 0.86958 0.18661 0.43844 0.0
C47 C 0.91516 0.24286 0.38746 0.0
N48 N 0.86525 0.2451 0.44259 0.0
C49 C 0.89625 0.26305 0.40678 0.0
O50 O 0.83905 0.10177 0.28814 0.0
C51 C 0.85935 0.13662 0.26873 0.0
O52 O 0.88964 0.16356 0.2935 0.0
H53 H 0.85712 0.15575 0.44906 0.0
H54 H 0.93892 0.25614 0.35728 0.0
C55 C 0.83806 0.996 0.32163 0.0
C56 C 0.85767 0.97432 0.31367 0.0
C57 C 0.91946 0.03482 0.30939 0.0
C58 C 0.90005 0.05599 0.31959 0.0
N59 N 0.86 0.0362 0.32652 0.0
N60 N 0.89794 0.99461 0.30723 0.0
H61 H 0.80607 0.98111 0.32633 0.0
C62 C 0.98914 0.18421 0.30963 0.0
O63 O 0.96072 0.15805 0.27791 0.0
O64 O 0.77751 0.03035 0.36513 0.0
H65 H 0.91674 0.08789 0.32361 0.0
H66 H 0.82686 0.19314 0.48751 0.0
H67 H 0.95143 0.05012 0.30435 0.0
Zn68 Zn 0.93443 0.76752 0.33406 0.0
C69 C 0.8774 0.79408 0.45564 0.0
N70 N 0.90753 0.79791 0.48653 0.0
C71 C 0.92816 0.78794 0.45195 0.0
N72 N 0.91251 0.77932 0.40092 0.0
N73 N 0.88013 0.7825 0.40328 0.0
C74 C 0.83449 0.82262 0.33041 0.0
O75 O 0.87253 0.83415 0.32927 0.0
O76 O 0.9742 0.7499 0.35101 0.0
Zn77 Zn 0.8373 0.75451 0.35173 0.0
N78 N 0.96139 0.81403 0.2859 0.0
C79 C 0.9576 0.86184 0.22941 0.0
C80 C 0.93899 0.82612 0.25846 0.0
C81 C 0.00189 0.83528 0.28265 0.0
N82 N 0.99782 0.88505 0.23144 0.0
C83 C 0.02066 0.87298 0.25801 0.0
O84 O 0.84533 0.73629 0.27523 0.0
C85 C 0.86299 0.71732 0.26195 0.0
O86 O 0.89392 0.7229 0.28702 0.0
H87 H 0.90697 0.80862 0.26014 0.0
H88 H 0.01929 0.82478 0.30375 0.0
C89 C 0.76734 0.68215 0.37369 0.0
C90 C 0.7458 0.6429 0.39188 0.0
C91 C 0.80271 0.64993 0.43668 0.0
C92 C 0.82462 0.68867 0.41685 0.0
N93 N 0.80623 0.70412 0.38642 0.0
N94 N 0.76374 0.6276 0.4232 0.0
H95 H 0.75392 0.69457 0.34741 0.0
C96 C 0.96098 0.71303 0.35805 0.0
O97 O 0.92244 0.68886 0.36239 0.0
O98 O 0.80959 0.78635 0.34053 0.0
H99 H 0.85608 0.70591 0.42505 0.0
H100 H 0.9401 0.87201 0.20784 0.0
H101 H 0.81681 0.63735 0.46117 0.0
Zn102 Zn 0.16702 0.23141 0.66454 0.0
C103 C 0.08278 0.21322 0.54962 0.0
N104 N 0.10685 0.20642 0.5175 0.0
C105 C 0.13805 0.21481 0.54989 0.0
N106 N 0.13368 0.22598 0.60065 0.0
N107 N 0.0993 0.22551 0.60054 0.0
C108 C 0.01147 0.19314 0.70106 0.0
O109 O 0.03608 0.19852 0.74132 0.0
O110 O 0.22583 0.2532 0.64584 0.0
Zn111 Zn 0.08442 0.25149 0.65442 0.0
N112 N 0.14718 0.17918 0.69661 0.0
C113 C 0.0956 0.12553 0.74687 0.0
C114 C 0.11188 0.16327 0.72378 0.0
C115 C 0.16729 0.15896 0.69201 0.0
N116 N 0.11535 0.10517 0.74197 0.0
C117 C 0.1508 0.12067 0.71495 0.0
O118 O 0.10941 0.26566 0.73093 0.0
C119 C 0.14431 0.27739 0.74872 0.0
O120 O 0.16768 0.26826 0.72455 0.0
H121 H 0.09654 0.17987 0.72731 0.0
H122 H 0.19547 0.17225 0.67034 0.0
C123 C 0.09439 0.32847 0.64554 0.0
C124 C 0.11565 0.36888 0.63246 0.0
C125 C 0.16025 0.3588 0.578 0.0
C126 C 0.13971 0.31872 0.59223 0.0
N127 N 0.10684 0.30425 0.62523 0.0
N128 N 0.14804 0.38322 0.59894 0.0
H129 H 0.0693 0.31666 0.67364 0.0
C130 C 0.2508 0.28928 0.65732 0.0
O131 O 0.23793 0.31292 0.67377 0.0
O132 O 0.02422 0.21674 0.66012 0.0
H133 H 0.15061 0.29968 0.57793 0.0
H134 H 0.06742 0.11246 0.76847 0.0
H135 H 0.1863 0.3706 0.55179 0.0
Zn136 Zn 0.76318 0.83865 0.66312 0.0
C137 C 0.79718 0.92737 0.55643 0.0
N138 N 0.80813 0.90606 0.52485 0.0
C139 C 0.80165 0.87555 0.55699 0.0
N140 N 0.78838 0.87913 0.60774 0.0
N141 N 0.78561 0.91178 0.60708 0.0
C142 C 0.71845 0.96421 0.65764 0.0
O143 O 0.69311 0.92584 0.65865 0.0
O144 O 0.79806 0.81424 0.67803 0.0
Zn145 Zn 0.77597 0.93753 0.67104 0.0
N146 N 0.71141 0.80556 0.63237 0.0
C147 C 0.65633 0.80256 0.585 0.0
C148 C 0.69595 0.82362 0.60117 0.0
C149 C 0.68836 0.76769 0.64957 0.0
N150 N 0.63312 0.76474 0.6026 0.0
C151 C 0.6482 0.74702 0.63479 0.0
O152 O 0.73562 0.89945 0.72668 0.0
C153 C 0.72935 0.86852 0.75259 0.0
O154 O 0.74648 0.84923 0.73859 0.0
H155 H 0.71377 0.85441 0.58976 0.0
H156 H 0.7007 0.75456 0.67654 0.0
C157 C 0.85015 0.00824 0.6937 0.0
C158 C 0.88602 0.0314 0.72201 0.0
C159 C 0.87217 0.97559 0.77699 0.0
C160 C 0.8365 0.95276 0.74904 0.0
N161 N 0.82617 0.96945 0.70806 0.0
N162 N 0.89612 0.01424 0.76278 0.0
H163 H 0.84151 0.02081 0.66053 0.0
C164 C 0.83269 0.83997 0.69472 0.0
O165 O 0.84168 0.87721 0.69851 0.0
O166 O 0.75555 0.9761 0.656 0.0
H167 H 0.81716 0.92198 0.75984 0.0
H168 H 0.64383 0.81651 0.56001 0.0
H169 H 0.88086 0.96268 0.8096 0.0
Zn170 Zn 0.16282 0.91995 0.65461 0.0
C171 C 0.07642 0.86198 0.54637 0.0
N172 N 0.09814 0.89444 0.51533 0.0
C173 C 0.12651 0.91964 0.5493 0.0
N174 N 0.12158 0.90339 0.60047 0.0
N175 N 0.08989 0.86709 0.59892 0.0
C176 C 0.03805 0.74808 0.65576 0.0
O177 O 0.0759 0.76024 0.6631 0.0
O178 O 0.18895 0.97988 0.66273 0.0
Zn179 Zn 0.0664 0.83283 0.66576 0.0
N180 N 0.19646 0.9024 0.6227 0.0
C181 C 0.20291 0.85254 0.57428 0.0
C182 C 0.17956 0.86808 0.59288 0.0
C183 C 0.23548 0.9213 0.63556 0.0
N184 N 0.2419 0.87105 0.58808 0.0
C185 C 0.25859 0.90494 0.61853 0.0
O186 O 0.10672 0.83141 0.71638 0.0
C187 C 0.13615 0.85755 0.74342 0.0
O188 O 0.15271 0.89426 0.73113 0.0
H189 H 0.14811 0.85238 0.58437 0.0
H190 H 0.24788 0.94773 0.66096 0.0
C191 C 0.99852 0.82996 0.72215 0.0
C192 C 0.97627 0.84766 0.73997 0.0
C193 C 0.03659 0.91034 0.74095 0.0
C194 C 0.05746 0.89293 0.71969 0.0
N195 N 0.03799 0.85332 0.70973 0.0
N196 N 0.99676 0.88766 0.7491 0.0
H197 H 0.98517 0.79874 0.71464 0.0
C198 C 0.18308 0.99476 0.70605 0.0
O199 O 0.16141 0.97033 0.74552 0.0
O200 O 0.02707 0.77373 0.65039 0.0
H201 H 0.08857 0.91096 0.70904 0.0
H202 H 0.18992 0.8254 0.55044 0.0
H203 H 0.05154 0.94197 0.74857 0.0
Zn204 Zn 0.89802 0.49369 0.68486 0.0
C205 C 0.87744 0.40692 0.79778 0.0
N206 N 0.86971 0.42989 0.83056 0.0
C207 C 0.87895 0.46185 0.79922 0.0
N208 N 0.89179 0.45902 0.74859 0.0
N209 N 0.89054 0.42427 0.74746 0.0
C210 C 0.85894 0.3427 0.64076 0.0
O211 O 0.85712 0.37226 0.61803 0.0
O212 O 0.92244 0.55322 0.7027 0.0
Zn213 Zn 0.91975 0.41039 0.69655 0.0
N214 N 0.84498 0.47453 0.65766 0.0
C215 C 0.78209 0.41721 0.6413 0.0
C216 C 0.82255 0.43459 0.65181 0.0
C217 C 0.82881 0.49827 0.65217 0.0
N218 N 0.76551 0.44054 0.6386 0.0
C219 C 0.78752 0.4807 0.64457 0.0
O220 O 0.94327 0.44247 0.62573 0.0
C221 C 0.94865 0.47417 0.60294 0.0
O222 O 0.93361 0.49386 0.62291 0.0
H223 H 0.83581 0.41642 0.65788 0.0
H224 H 0.84743 0.53008 0.65651 0.0
C225 C 0.99344 0.41514 0.71812 0.0
C226 C 0.03296 0.43547 0.7361 0.0
C227 C 0.01898 0.476 0.79344 0.0
C228 C 0.98023 0.45715 0.77344 0.0
N229 N 0.96803 0.42669 0.73664 0.0
N230 N 0.04482 0.4653 0.7735 0.0
H231 H 0.98382 0.39257 0.68644 0.0
C232 C 0.93636 0.57672 0.66144 0.0
O233 O 0.93227 0.56139 0.612 0.0
O234 O 0.88612 0.35104 0.67629 0.0
H235 H 0.96074 0.46792 0.78602 0.0
H236 H 0.76377 0.38535 0.63706 0.0
H237 H 0.02893 0.50011 0.82271 0.0
Zn238 Zn 0.58729 0.49893 0.68464 0.0
C239 C 0.52714 0.40911 0.78611 0.0
N240 N 0.55805 0.43015 0.81982 0.0
C241 C 0.58471 0.4592 0.78789 0.0
N242 N 0.57071 0.45561 0.73561 0.0
N243 N 0.53463 0.42366 0.73413 0.0
C244 C 0.42075 0.37359 0.68321 0.0
O245 O 0.43461 0.41193 0.68789 0.0
O246 O 0.64743 0.52734 0.67474 0.0
Zn247 Zn 0.50342 0.40192 0.66541 0.0
N248 N 0.56701 0.52989 0.71753 0.0
C249 C 0.51426 0.53276 0.76377 0.0
C250 C 0.53246 0.51142 0.74708 0.0
C251 C 0.58365 0.56846 0.70331 0.0
N252 N 0.53038 0.57123 0.74824 0.0
C253 C 0.56458 0.58943 0.71822 0.0
O254 O 0.50038 0.44265 0.61893 0.0
C255 C 0.52645 0.47342 0.59408 0.0
O256 O 0.56295 0.4909 0.60787 0.0
H257 H 0.51852 0.48022 0.75658 0.0
H258 H 0.61019 0.58193 0.67788 0.0
C259 C 0.50985 0.33813 0.61201 0.0
C260 C 0.53217 0.32184 0.59079 0.0
C261 C 0.58474 0.38665 0.57034 0.0
C262 C 0.56393 0.40275 0.59624 0.0
N263 N 0.52741 0.37827 0.61824 0.0
N264 N 0.56907 0.34668 0.57006 0.0
H265 H 0.4803 0.31898 0.62821 0.0
C266 C 0.66026 0.50337 0.66743 0.0
O267 O 0.635 0.46507 0.66944 0.0
O268 O 0.44504 0.36094 0.67785 0.0
H269 H 0.5773 0.43446 0.60022 0.0
H270 H 0.48686 0.51852 0.78726 0.0
H271 H 0.61406 0.40584 0.55336 0.0
Zn272 Zn 0.61053 0.10997 0.66795 0.0
C273 C 0.55217 0.14038 0.78737 0.0
N274 N 0.58313 0.14455 0.81625 0.0
C275 C 0.60212 0.13214 0.78328 0.0
N276 N 0.5861 0.12298 0.73264 0.0
N277 N 0.55403 0.1273 0.73458 0.0
C278 C 0.50707 0.16389 0.6154 0.0
O279 O 0.52844 0.15836 0.57826 0.0
O280 O 0.64583 0.08651 0.68911 0.0
Zn281 Zn 0.51558 0.10385 0.67392 0.0
N282 N 0.64514 0.15886 0.62553 0.0
C283 C 0.6543 0.22005 0.59179 0.0
C284 C 0.62961 0.18215 0.61277 0.0
C285 C 0.68461 0.17172 0.61654 0.0
N286 N 0.6939 0.23381 0.58661 0.0
C287 C 0.71061 0.21124 0.59887 0.0
O288 O 0.52906 0.08979 0.59811 0.0
C289 C 0.54318 0.06732 0.58702 0.0
O290 O 0.57127 0.06893 0.61526 0.0
H291 H 0.59856 0.1718 0.62084 0.0
H292 H 0.69513 0.15175 0.62611 0.0
C293 C 0.44231 0.02911 0.67995 0.0
C294 C 0.41924 0.98907 0.69466 0.0
C295 C 0.47197 0.99416 0.74876 0.0
C296 C 0.49504 0.03388 0.73378 0.0
N297 N 0.47978 0.05052 0.69957 0.0
N298 N 0.43461 0.97253 0.72866 0.0
H299 H 0.431 0.04289 0.65237 0.0
C300 C 0.63346 0.04948 0.68446 0.0
O301 O 0.59583 0.0249 0.6736 0.0
O302 O 0.49443 0.14134 0.65747 0.0
H303 H 0.52527 0.0508 0.74815 0.0
H304 H 0.64239 0.23909 0.58184 0.0
H305 H 0.48383 0.98048 0.7755 0.0
Zn306 Zn 0.74155 0.56783 0.99509 0.0
C307 C 0.79686 0.53563 0.88527 0.0
N308 N 0.76444 0.52518 0.85452 0.0
C309 C 0.74075 0.53168 0.8877 0.0
N310 N 0.75772 0.54438 0.93816 0.0
N311 N 0.79321 0.5472 0.9362 0.0
C312 C 0.91462 0.6164 0.99076 0.0
O313 O 0.9025 0.6394 0.01238 0.0
O314 O 0.68183 0.53304 0.01133 0.0
Zn315 Zn 0.82992 0.55804 0.99792 0.0
N316 N 0.76017 0.62001 0.96662 0.0
C317 C 0.81403 0.67713 0.92451 0.0
C318 C 0.79426 0.63668 0.93592 0.0
C319 C 0.7454 0.64232 0.98688 0.0
N320 N 0.80004 0.69976 0.94644 0.0
C321 C 0.76636 0.68332 0.9776 0.0
O322 O 0.83058 0.59639 0.05543 0.0
C323 C 0.80549 0.6011 0.08319 0.0
O324 O 0.76879 0.58318 0.07041 0.0
H325 H 0.807 0.61922 0.92186 0.0
H326 H 0.71935 0.62875 0.01323 0.0
C327 C 0.82937 0.48528 0.02282 0.0
C328 C 0.8161 0.44943 0.05134 0.0
C329 C 0.77096 0.46142 0.10219 0.0
C330 C 0.7841 0.49692 0.07386 0.0
N331 N 0.81307 0.50825 0.03501 0.0
N332 N 0.78708 0.43845 0.09014 0.0
H333 H 0.85191 0.49453 0.99102 0.0
C334 C 0.67126 0.49742 0.02483 0.0
O335 O 0.69793 0.4862 0.02307 0.0
O336 O 0.88895 0.5811 0.97625 0.0
H337 H 0.77119 0.51524 0.08256 0.0
H338 H 0.84111 0.6907 0.90032 0.0
H339 H 0.74787 0.452 0.13317 0.0
Zn340 Zn 0.43346 0.26989 1.00508 0.0
C341 C 0.47712 0.22338 0.89019 0.0
N342 N 0.48018 0.25274 0.85842 0.0
C343 C 0.46516 0.2703 0.89057 0.0
N344 N 0.45416 0.25353 0.94093 0.0
N345 N 0.46129 0.22357 0.94062 0.0
C346 C 0.48324 0.15307 0.0534 0.0
O347 O 0.46028 0.1496 0.09535 0.0
O348 O 0.41136 0.30707 0.98918 0.0
Zn349 Zn 0.43445 0.17829 0.98947 0.0
N350 N 0.47699 0.29911 0.05849 0.0
C351 C 0.52309 0.2981 0.12116 0.0
C352 C 0.48962 0.27816 0.08814 0.0
C353 C 0.49583 0.33961 0.06256 0.0
N354 N 0.54347 0.33836 0.1217 0.0
C355 C 0.5314 0.36067 0.09346 0.0
O356 O 0.4106 0.18355 0.06433 0.0
C357 C 0.3859 0.19543 0.07366 0.0
O358 O 0.38693 0.22292 0.04417 0.0
H359 H 0.47444 0.24627 0.08505 0.0
H360 H 0.48397 0.35445 0.03897 0.0
C361 C 0.36368 0.10399 0.96133 0.0
C362 C 0.32697 0.08153 0.9347 0.0
C363 C 0.34229 0.13515 0.87531 0.0
C364 C 0.37771 0.15813 0.90358 0.0
N365 N 0.38825 0.14212 0.94565 0.0
N366 N 0.3173 0.09749 0.89205 0.0
H367 H 0.37167 0.0919 0.99579 0.0
C368 C 0.37546 0.29428 0.97478 0.0
O369 O 0.35373 0.25721 0.95869 0.0
O370 O 0.47528 0.16103 0.0058 0.0
H371 H 0.39555 0.18894 0.89282 0.0
H372 H 0.5338 0.28177 0.14451 0.0
H373 H 0.33395 0.14771 0.84181 0.0
Zn374 Zn 0.72924 0.16418 0.00977 0.0
C375 C 0.7904 0.24668 0.8889 0.0
N376 N 0.76165 0.2202 0.85631 0.0
C377 C 0.73961 0.18943 0.88996 0.0
N378 N 0.75332 0.19648 0.94219 0.0
N379 N 0.78603 0.23198 0.94119 0.0
C380 C 0.84997 0.32274 0.03923 0.0
O381 O 0.83397 0.30113 0.08346 0.0
O382 O 0.68908 0.10606 0.99472 0.0
Zn383 Zn 0.82762 0.24665 0.99432 0.0
N384 N 0.70323 0.18626 0.05623 0.0
C385 C 0.71046 0.23819 0.11571 0.0
C386 C 0.72717 0.2208 0.08311 0.0
C387 C 0.66281 0.16845 0.06084 0.0
N388 N 0.67036 0.22203 0.11676 0.0
C389 C 0.6458 0.18805 0.08879 0.0
O390 O 0.81663 0.22305 0.07214 0.0
C391 C 0.79921 0.18638 0.08506 0.0
O392 O 0.76892 0.16063 0.05898 0.0
H393 H 0.75899 0.23496 0.07887 0.0
H394 H 0.64408 0.14056 0.04019 0.0
C395 C 0.89542 0.23849 0.98219 0.0
C396 C 0.91585 0.21893 0.96715 0.0
C397 C 0.85952 0.17068 0.91899 0.0
C398 C 0.83884 0.18976 0.9349 0.0
N399 N 0.85745 0.22359 0.96567 0.0
N400 N 0.89761 0.18553 0.93579 0.0
H401 H 0.9091 0.26469 0.00807 0.0
C402 C 0.70255 0.08252 0.98843 0.0
O403 O 0.74113 0.0973 0.98392 0.0
O404 O 0.85573 0.30675 0.99712 0.0
H405 H 0.80809 0.17724 0.9234 0.0
H406 H 0.72928 0.26545 0.1378 0.0
H407 H 0.84519 0.1439 0.89442 0.0
Zn408 Zn 0.56251 0.82808 0.01169 0.0
C409 C 0.54612 0.74651 0.12945 0.0
N410 N 0.53787 0.76938 0.16164 0.0
C411 C 0.54566 0.80053 0.12933 0.0
N412 N 0.5582 0.79725 0.07853 0.0
N413 N 0.55793 0.76304 0.0787 0.0
C414 C 0.52602 0.67548 0.97467 0.0
O415 O 0.52891 0.70261 0.93993 0.0
O416 O 0.58412 0.88744 0.02516 0.0
Zn417 Zn 0.58472 0.74695 0.02822 0.0
N418 N 0.509 0.80491 0.98526 0.0
C419 C 0.44788 0.74513 0.97063 0.0
C420 C 0.48864 0.76478 0.98007 0.0
C421 C 0.49061 0.82656 0.97971 0.0
N422 N 0.42905 0.76643 0.96801 0.0
C423 C 0.44912 0.80673 0.973 0.0
O424 O 0.60638 0.77533 0.95522 0.0
C425 C 0.61182 0.80641 0.93061 0.0
O426 O 0.59759 0.82716 0.94946 0.0
H427 H 0.50385 0.74823 0.9852 0.0
H428 H 0.50769 0.85854 0.98364 0.0
C429 C 0.65597 0.7477 0.05316 0.0
C430 C 0.69489 0.76531 0.07277 0.0
C431 C 0.68659 0.81359 0.1202 0.0
C432 C 0.6484 0.79718 0.09857 0.0
N433 N 0.63358 0.76401 0.06635 0.0
N434 N 0.70937 0.79765 0.10612 0.0
H435 H 0.64439 0.72282 0.0249 0.0
C436 C 0.61982 0.91218 0.01095 0.0
O437 O 0.64313 0.89905 0.99358 0.0
O438 O 0.54904 0.68712 0.01626 0.0
H439 H 0.63118 0.81137 0.1068 0.0
H440 H 0.43113 0.71313 0.96692 0.0
H441 H 0.69854 0.83964 0.14622 0.0
Zn442 Zn 0.25409 0.83535 0.01712 0.0
C443 C 0.19766 0.74663 0.12403 0.0
N444 N 0.22896 0.77 0.15618 0.0
C445 C 0.25327 0.8001 0.12325 0.0
N446 N 0.23714 0.7947 0.07206 0.0
N447 N 0.20238 0.76089 0.07234 0.0
C448 C 0.08468 0.70475 0.01748 0.0
O449 O 0.09763 0.74308 0.01776 0.0
O450 O 0.31357 0.86096 1.00457 0.0
Zn451 Zn 0.1695 0.73225 0.0069 0.0
N452 N 0.23676 0.86988 0.04545 0.0
C453 C 0.18379 0.87653 0.08339 0.0
C454 C 0.20204 0.85401 0.07446 0.0
C455 C 0.25411 0.90723 0.02552 0.0
N456 N 0.20018 0.91336 0.06108 0.0
C457 C 0.23498 0.92927 0.03236 0.0
O458 O 0.1687 0.76884 0.94797 0.0
C459 C 0.19294 0.80109 0.92391 0.0
O460 O 0.22788 0.82379 0.94198 0.0
H461 H 0.18768 0.82358 0.0884 0.0
H462 H 0.28089 0.91838 1.00086 0.0
C463 C 0.17072 0.66011 0.97977 0.0
C464 C 0.18625 0.63812 0.95433 0.0
C465 C 0.23843 0.69792 0.91621 0.0
C466 C 0.2228 0.71941 0.94119 0.0
N467 N 0.18982 0.70037 0.97334 0.0
N468 N 0.21988 0.65797 0.92328 0.0
H469 H 0.14381 0.64537 1.0043 0.0
C470 C 0.32297 0.83481 0.99352 0.0
O471 O 0.29481 0.7974 0.99292 0.0
O472 O 0.11002 0.69319 0.01969 0.0
H473 H 0.23646 0.75098 0.93445 0.0
H474 H 0.15601 0.86424 0.10584 0.0
H475 H 0.26488 0.71282 0.89083 0.0
Zn476 Zn 0.16374 0.41942 0.02033 0.0
C477 C 0.25206 0.45511 0.12749 0.0
N478 N 0.22752 0.46221 0.15861 0.0
C479 C 0.19799 0.45553 0.12428 0.0
N480 N 0.20495 0.44545 0.07345 0.0
N481 N 0.23886 0.44497 0.07537 0.0
C482 C 0.29044 0.37955 0.01546 0.0
O483 O 0.25255 0.35722 1.00387 0.0
O484 O 0.13857 0.45403 0.00837 0.0
Zn485 Zn 0.26878 0.44075 0.01147 0.0
N486 N 0.13086 0.36878 0.05438 0.0
C487 C 0.12853 0.31431 0.10244 0.0
C488 C 0.14916 0.35392 0.08623 0.0
C489 C 0.09299 0.34536 0.03734 0.0
N490 N 0.09097 0.29055 0.08416 0.0
C491 C 0.07284 0.30511 0.05177 0.0
O492 O 0.2338 0.406 0.949 0.0
C493 C 0.2001 0.39354 0.92666 0.0
O494 O 0.17416 0.40052 0.94741 0.0
H495 H 0.17996 0.37207 0.09754 0.0
H496 H 0.07974 0.35731 0.0099 0.0
C497 C 0.34275 0.51341 0.98378 0.0
C498 C 0.36469 0.55222 0.96228 0.0
C499 C 0.30433 0.54911 0.93701 0.0
C500 C 0.28274 0.511 0.95902 0.0
N501 N 0.30221 0.49384 0.9819 0.0
N502 N 0.34466 0.56882 0.93923 0.0
H503 H 0.35769 0.49929 1.00245 0.0
C504 C 0.151 0.47811 0.96789 0.0
O505 O 0.1769 0.47693 0.93416 0.0
O506 O 0.3042 0.41625 0.02668 0.0
H507 H 0.25063 0.49504 0.95803 0.0
H508 H 0.14273 0.30218 0.12766 0.0
H509 H 0.28915 0.56304 0.91858 0.0
Zn510 Zn 0.41515 0.91831 0.31812 0.0
C511 C 0.46882 0.87954 0.21581 0.0
N512 N 0.43683 0.86908 0.18403 0.0
C513 C 0.41354 0.87775 0.21485 0.0
N514 N 0.43057 0.89192 0.26501 0.0
N515 N 0.46525 0.89293 0.26542 0.0
C516 C 0.58338 0.95767 0.31559 0.0
O517 O 0.57017 0.98275 0.31339 0.0
O518 O 0.3551 0.8847 0.32849 0.0
Zn519 Zn 0.4991 0.90121 0.33003 0.0
N520 N 0.43411 0.96913 0.28502 0.0
C521 C 0.48716 0.02494 0.23957 0.0
C522 C 0.46869 0.98526 0.25556 0.0
C523 C 0.41753 0.99107 0.29957 0.0
N524 N 0.47124 0.04735 0.25566 0.0
C525 C 0.43691 0.03131 0.28542 0.0
O526 O 0.50166 0.94183 0.38501 0.0
C527 C 0.47797 0.95049 0.40922 0.0
O528 O 0.44222 0.93647 0.39328 0.0
H529 H 0.48258 0.96795 0.24596 0.0
H530 H 0.39095 0.97791 0.3249 0.0
C531 C 0.49559 0.82828 0.36286 0.0
C532 C 0.48333 0.79468 0.39727 0.0
C533 C 0.43318 0.80656 0.43466 0.0
C534 C 0.44745 0.84089 0.40353 0.0
N535 N 0.47838 0.85118 0.36858 0.0
N536 N 0.45136 0.78469 0.43079 0.0
H537 H 0.5179 0.83664 0.33135 0.0
C538 C 0.34182 0.86288 0.3712 0.0
O539 O 0.36771 0.86532 0.40779 0.0
O540 O 0.55819 0.92057 0.31613 0.0
H541 H 0.43415 0.85937 0.40707 0.0
H542 H 0.51466 0.03817 0.21633 0.0
H543 H 0.4082 0.79755 0.46232 0.0
Zn544 Zn 0.10709 0.60628 0.33572 0.0
C545 C 0.12346 0.54073 0.21587 0.0
N546 N 0.13038 0.57198 0.18491 0.0
C547 C 0.12272 0.59469 0.21889 0.0
N548 N 0.11208 0.57886 0.26967 0.0
N549 N 0.11213 0.54477 0.26771 0.0
C550 C 0.16113 0.508 0.33664 0.0
O551 O 0.17022 0.54493 0.32877 0.0
O552 O 0.08338 0.64169 0.31987 0.0
Zn553 Zn 0.0884 0.50389 0.32253 0.0
N554 N 0.15972 0.64016 0.36619 0.0
C555 C 0.21328 0.64409 0.41815 0.0
C556 C 0.17565 0.62173 0.39495 0.0
C557 C 0.17967 0.68047 0.36048 0.0
N558 N 0.23339 0.68415 0.41209 0.0
C559 C 0.2178 0.70321 0.38376 0.0
O560 O 0.0716 0.51316 0.39847 0.0
C561 C 0.06208 0.53703 0.42001 0.0
O562 O 0.07199 0.57025 0.39783 0.0
H563 H 0.15896 0.58988 0.4001 0.0
H564 H 0.16616 0.69461 0.33805 0.0
C565 C 0.01374 0.43351 0.3134 0.0
C566 C 0.97265 0.41365 0.30474 0.0
C567 C 0.9792 0.46782 0.25288 0.0
C568 C 0.01977 0.48844 0.26398 0.0
N569 N 0.03632 0.47065 0.29348 0.0
N570 N 0.95632 0.43108 0.27442 0.0
H571 H 0.02717 0.42095 0.33941 0.0
C572 C 0.04742 0.62958 0.33381 0.0
O573 O 0.02503 0.59308 0.35146 0.0
O574 O 0.12467 0.48076 0.3345 0.0
H575 H 0.03751 0.51883 0.25053 0.0
H576 H 0.22635 0.62978 0.4411 0.0
H577 H 0.96574 0.48153 0.22938 0.0
Zn578 Zn 0.49365 0.58787 0.32668 0.0
C579 C 0.40531 0.53095 0.21989 0.0
N580 N 0.42715 0.56269 0.18773 0.0
C581 C 0.45787 0.58709 0.21956 0.0
N582 N 0.45427 0.57067 0.27026 0.0
N583 N 0.42116 0.53542 0.27032 0.0
C584 C 0.37574 0.41332 0.32054 0.0
O585 O 0.41157 0.42569 0.33965 0.0
O586 O 0.51737 0.6474 0.33944 0.0
Zn587 Zn 0.39922 0.49665 0.33147 0.0
N588 N 0.52823 0.56965 0.3009 0.0
C589 C 0.53406 0.51763 0.25806 0.0
C590 C 0.51173 0.53549 0.2707 0.0
C591 C 0.56591 0.58631 0.31964 0.0
N592 N 0.57144 0.53368 0.27811 0.0
C593 C 0.58774 0.56741 0.30891 0.0
O594 O 0.44173 0.49833 0.38087 0.0
C595 C 0.46792 0.52553 0.41095 0.0
O596 O 0.47893 0.56188 0.40235 0.0
H597 H 0.48116 0.52153 0.25759 0.0
H598 H 0.57789 0.61274 0.34499 0.0
C599 C 0.32957 0.50261 0.35985 0.0
C600 C 0.30081 0.50052 0.39728 0.0
C601 C 0.34019 0.50055 0.47152 0.0
C602 C 0.36838 0.50233 0.4344 0.0
N603 N 0.36293 0.50373 0.3793 0.0
N604 N 0.30713 0.49962 0.4522 0.0
H605 H 0.32464 0.50166 0.31605 0.0
C606 C 0.49124 0.65784 0.34468 0.0
O607 O 0.45357 0.63088 0.33867 0.0
O608 O 0.36535 0.43853 0.30776 0.0
H609 H 0.39347 0.50074 0.44965 0.0
H610 H 0.52137 0.49056 0.23411 0.0
H611 H 0.34419 0.49923 0.51537 0.0
C612 C 0.3108 0.12461 0.18456 0.0
C613 C 0.29307 0.14735 0.20235 0.0
C614 C 0.34232 0.20278 0.14569 0.0
C615 C 0.35587 0.17855 0.12079 0.0
N616 N 0.34654 0.11225 0.11248 0.0
N617 N 0.28478 0.20346 0.18171 0.0
C618 C 0.33831 0.13826 0.13906 0.0
C619 C 0.30662 0.18498 0.17728 0.0
N620 N 0.30277 0.09061 0.2115 0.0
N621 N 0.36442 0.24319 0.14185 0.0
H622 H 0.25618 0.18963 0.19849 0.0
H623 H 0.29295 0.23037 0.1625 0.0
H624 H 0.39328 0.25799 0.12597 0.0
H625 H 0.35621 0.26197 0.16097 0.0
H626 H 0.31805 0.07547 0.20407 0.0
H627 H 0.28384 0.07907 0.24506 0.0
H628 H 0.33229 0.08203 0.12121 0.0
H629 H 0.36397 0.11919 0.07734 0.0
C630 C 0.8478 0.13821 0.16687 0.0
C631 C 0.84313 0.14816 0.22145 0.0
C632 C 0.81028 0.18376 0.1869 0.0
C633 C 0.81397 0.17295 0.1322 0.0
N634 N 0.82878 0.13304 0.07088 0.0
N635 N 0.81162 0.17172 0.28469 0.0
C636 C 0.83029 0.14791 0.12247 0.0
C637 C 0.82206 0.16856 0.23183 0.0
N638 N 0.87012 0.12065 0.1573 0.0
N639 N 0.7953 0.2084 0.19604 0.0
H640 H 0.82029 0.16174 0.31883 0.0
H641 H 0.79184 0.18145 0.29463 0.0
H642 H 0.78422 0.21833 0.16474 0.0
H643 H 0.79568 0.22076 0.23426 0.0
H644 H 0.87858 0.11668 0.11813 0.0
H645 H 0.88273 0.1126 0.18896 0.0
H646 H 0.83553 0.11084 0.06256 0.0
H647 H 0.81887 0.1414 0.03643 0.0
C648 C 0.85278 0.70035 0.16059 0.0
C649 C 0.84734 0.68755 0.21622 0.0
C650 C 0.8122 0.61783 0.18493 0.0
C651 C 0.8201 0.63067 0.1293 0.0
N652 N 0.85392 0.68433 0.06421 0.0
N653 N 0.8287 0.63429 0.28131 0.0
C654 C 0.84242 0.67201 0.11723 0.0
C655 C 0.8291 0.64631 0.22835 0.0
N656 N 0.86744 0.73962 0.14903 0.0
N657 N 0.7882 0.5784 0.19643 0.0
H658 H 0.83877 0.65377 0.31468 0.0
H659 H 0.82038 0.60524 0.29188 0.0
H660 H 0.77667 0.55656 0.16598 0.0
H661 H 0.77745 0.56763 0.23576 0.0
H662 H 0.86755 0.75025 0.10969 0.0
H663 H 0.87685 0.76144 0.1794 0.0
H664 H 0.87403 0.71362 0.05351 0.0
H665 H 0.84537 0.6649 0.03088 0.0
C666 C 0.18679 0.34772 0.78283 0.0
C667 C 0.16001 0.30689 0.79471 0.0
C668 C 0.16503 0.3228 0.89344 0.0
C669 C 0.1879 0.36399 0.881 0.0
N670 N 0.21915 0.41636 0.81427 0.0
N671 N 0.12078 0.25575 0.86057 0.0
C672 C 0.19872 0.37663 0.82579 0.0
C673 C 0.14831 0.29451 0.84986 0.0
N674 N 0.20064 0.35892 0.73026 0.0
N675 N 0.16057 0.3106 0.94708 0.0
H676 H 0.10918 0.23396 0.83002 0.0
H677 H 0.1075 0.24568 0.89898 0.0
H678 H 0.17189 0.33032 0.98013 0.0
H679 H 0.14814 0.28101 0.95877 0.0
H680 H 0.22391 0.387 0.71991 0.0
H681 H 0.18974 0.33963 0.69675 0.0
H682 H 0.22422 0.42794 0.77456 0.0
H683 H 0.22897 0.43811 0.84486 0.0
C684 C 0.65803 0.83601 0.78607 0.0
C685 C 0.69925 0.85312 0.79834 0.0
C686 C 0.68285 0.84338 0.89728 0.0
C687 C 0.64158 0.82276 0.88467 0.0
N688 N 0.58948 0.79555 0.81725 0.0
N689 N 0.75077 0.86945 0.86529 0.0
C690 C 0.62906 0.81817 0.82907 0.0
C691 C 0.71158 0.85562 0.85389 0.0
N692 N 0.64648 0.83685 0.73323 0.0
N693 N 0.69468 0.85276 0.95085 0.0
H694 H 0.77287 0.88024 0.83505 0.0
H695 H 0.7611 0.86786 0.90413 0.0
H696 H 0.67476 0.84385 0.98387 0.0
H697 H 0.72402 0.87188 0.96243 0.0
H698 H 0.61764 0.82931 0.72252 0.0
H699 H 0.6662 0.84713 0.70003 0.0
H700 H 0.57845 0.78698 0.77753 0.0
H701 H 0.56763 0.78277 0.84775 0.0
C702 C 0.18786 0.81111 0.82228 0.0
C703 C 0.17851 0.81542 0.87744 0.0
C704 C 0.14542 0.8515 0.8451 0.0
C705 C 0.15189 0.84429 0.78971 0.0
N706 N 0.17497 0.81305 0.72498 0.0
N707 N 0.14456 0.83552 0.94193 0.0
C708 C 0.17184 0.82283 0.77817 0.0
C709 C 0.15616 0.83442 0.88897 0.0
N710 N 0.2127 0.79649 0.81209 0.0
N711 N 0.12923 0.87491 0.85581 0.0
H712 H 0.15282 0.82453 0.97531 0.0
H713 H 0.12462 0.84485 0.95263 0.0
H714 H 0.11919 0.88627 0.82496 0.0
H715 H 0.12814 0.88537 0.8949 0.0
H716 H 0.22462 0.79697 0.77341 0.0
H717 H 0.22378 0.78636 0.84322 0.0
H718 H 0.18481 0.79354 0.7142 0.0
H719 H 0.16558 0.8227 0.69133 0.0
C720 C 0.04692 0.52753 0.52241 0.0
C721 C 0.03327 0.5229 0.46734 0.0
C722 C 0.96384 0.48568 0.50084 0.0
C723 C 0.97752 0.49156 0.55598 0.0
N724 N 0.03153 0.52674 0.61967 0.0
N725 N 0.9788 0.50458 0.40463 0.0
C726 C 0.01895 0.51504 0.56688 0.0
C727 C 0.99171 0.5043 0.45682 0.0
N728 N 0.0866 0.54327 0.53227 0.0
N729 N 0.92429 0.46121 0.49038 0.0
H730 H 0.99793 0.51579 0.37085 0.0
H731 H 0.94939 0.49568 0.39524 0.0
H732 H 0.90312 0.44778 0.52161 0.0
H733 H 0.91284 0.45186 0.451 0.0
H734 H 0.09805 0.54335 0.57099 0.0
H735 H 0.10789 0.55381 0.50087 0.0
H736 H 0.06081 0.5474 0.6297 0.0
H737 H 0.01212 0.51786 0.6533 0.0
C738 C 0.52234 0.4833 0.49262 0.0
C739 C 0.51338 0.4887 0.54744 0.0
C740 C 0.47828 0.52217 0.51329 0.0
C741 C 0.48432 0.51378 0.45818 0.0
N742 N 0.5065 0.48008 0.39593 0.0
N743 N 0.47654 0.50648 0.6102 0.0
C744 C 0.50448 0.49227 0.44809 0.0
C745 C 0.48947 0.5061 0.55782 0.0
N746 N 0.54821 0.46984 0.48287 0.0
N747 N 0.46189 0.54545 0.52348 0.0
H748 H 0.48578 0.49722 0.64446 0.0
H749 H 0.45491 0.51392 0.61941 0.0
H750 H 0.45099 0.55599 0.49278 0.0
H751 H 0.46155 0.55667 0.56235 0.0
H752 H 0.55995 0.47016 0.4441 0.0
H753 H 0.56049 0.46116 0.51414 0.0
H754 H 0.51619 0.46012 0.38712 0.0
H755 H 0.49623 0.48782 0.36142 0.0
C756 C 0.50513 0.99613 0.55363 0.0
C757 C 0.52576 0.03751 0.54126 0.0
C758 C 0.51663 0.02152 0.44216 0.0
C759 C 0.49361 0.98035 0.45482 0.0
N760 N 0.46095 0.92857 0.52219 0.0
N761 N 0.54747 0.08984 0.47403 0.0
C762 C 0.48642 0.96772 0.51049 0.0
C763 C 0.53023 0.05024 0.48556 0.0
N764 N 0.50356 0.98381 0.60674 0.0
N765 N 0.52638 0.03315 0.38852 0.0
H766 H 0.56015 0.11187 0.5041 0.0
H767 H 0.54715 0.1009 0.43517 0.0
H768 H 0.51594 0.01329 0.35559 0.0
H769 H 0.54676 0.06206 0.37661 0.0
H770 H 0.49336 0.95442 0.61771 0.0
H771 H 0.51452 0.00324 0.64002 0.0
H772 H 0.4505 0.91794 0.56165 0.0
H773 H 0.44771 0.90688 0.49175 0.0
C774 C 0.20835 0.01747 0.48403 0.0
C775 C 0.18466 0.03408 0.4681 0.0
C776 C 0.12954 0.98255 0.52305 0.0
C777 C 0.15092 0.96256 0.53257 0.0
N778 N 0.20838 0.95721 0.50904 0.0
N779 N 0.1185 0.02331 0.45922 0.0
C780 C 0.18978 0.97892 0.50932 0.0
C781 C 0.14398 0.01382 0.48385 0.0
N782 N 0.2485 0.03873 0.4768 0.0
N783 N 0.0948 0.97117 0.55077 0.0
H784 H 0.12766 0.0427 0.42595 0.0
H785 H 0.08788 0.00783 0.46608 0.0
H786 H 0.08362 0.94865 0.58032 0.0
H787 H 0.07966 0.98688 0.54855 0.0
H788 H 0.26758 0.02954 0.49207 0.0
H789 H 0.26266 0.06706 0.4597 0.0
H790 H 0.23526 0.96631 0.48867 0.0
H791 H 0.19484 0.92854 0.52477 0.0
C792 C 0.02003 0.21861 0.528 0.0
C793 C 0.03955 0.19613 0.53294 0.0
C794 C 0.98801 0.14616 0.47312 0.0
C795 C 0.96401 0.16353 0.47892 0.0
N796 N 0.95585 0.21471 0.52278 0.0
N797 N 0.03061 0.13044 0.52422 0.0
C798 C 0.97943 0.19927 0.51004 0.0
C799 C 0.02004 0.15745 0.50957 0.0
N800 N 0.04058 0.2585 0.53578 0.0
N801 N 0.98057 0.11897 0.43282 0.0
H802 H 0.04907 0.13595 0.55766 0.0
H803 H 0.01597 0.10126 0.50975 0.0
H804 H 0.95942 0.1129 0.40247 0.0
H805 H 0.99889 0.10694 0.42591 0.0
H806 H 0.02805 0.2764 0.52979 0.0
H807 H 0.07128 0.27351 0.53967 0.0
H808 H 0.96528 0.2393 0.54853 0.0
H809 H 0.92611 0.20077 0.51121 0.0
C810 C 0.86027 0.86962 0.52921 0.0
C811 C 0.8188 0.84986 0.53981 0.0
C812 C 0.81394 0.7905 0.49507 0.0
C813 C 0.85392 0.81294 0.47581 0.0
N814 N 0.91239 0.8777 0.46662 0.0
N815 N 0.75475 0.79266 0.52088 0.0
C816 C 0.87603 0.85378 0.49017 0.0
C817 C 0.7951 0.81051 0.51939 0.0
N818 N 0.88501 0.90307 0.55809 0.0
N819 N 0.79449 0.75016 0.49305 0.0
H820 H 0.74049 0.80744 0.53523 0.0
H821 H 0.73615 0.76523 0.50252 0.0
H822 H 0.80864 0.73497 0.47998 0.0
H823 H 0.76638 0.73234 0.5103 0.0
H824 H 0.9159 0.91741 0.55494 0.0
H825 H 0.87449 0.91277 0.59064 0.0
H826 H 0.9283 0.90836 0.47246 0.0
H827 H 0.92449 0.86747 0.43673 0.0
C828 C 0.80358 0.01945 0.49409 0.0
C829 C 0.84482 0.03949 0.48208 0.0
C830 C 0.85298 0.9923 0.53613 0.0
C831 C 0.81155 0.9689 0.54249 0.0
N832 N 0.74587 0.95681 0.52199 0.0
N833 N 0.90392 0.03476 0.47263 0.0
C834 C 0.78609 0.98131 0.51961 0.0
C835 C 0.86798 0.02252 0.49698 0.0
N836 N 0.78179 0.03704 0.48235 0.0
N837 N 0.87792 0.98539 0.56731 0.0
H838 H 0.91323 0.05407 0.43923 0.0
H839 H 0.92099 0.02151 0.48025 0.0
H840 H 0.8673 0.96562 0.60034 0.0
H841 H 0.90879 0.00282 0.56468 0.0
H842 H 0.75164 0.02425 0.49141 0.0
H843 H 0.79455 0.06526 0.46478 0.0
H844 H 0.72585 0.96275 0.50185 0.0
H845 H 0.73286 0.92961 0.54256 0.0
C846 C 0.00339 0.80965 0.55296 0.0
C847 C 0.03971 0.8283 0.52342 0.0
C848 C 0.00178 0.81684 0.44091 0.0
C849 C 0.96601 0.79169 0.46923 0.0
N850 N 0.93671 0.75391 0.55229 0.0
N851 N 0.07031 0.83447 0.43387 0.0
C852 C 0.96874 0.78263 0.52466 0.0
C853 C 0.03758 0.82457 0.46536 0.0
N854 N 0.99906 0.82544 0.60035 0.0
N855 N 0.00323 0.8413 0.40023 0.0
H856 H 0.09723 0.84035 0.45134 0.0
H857 H 0.06871 0.83315 0.39089 0.0
H858 H 0.97828 0.84231 0.38718 0.0
H859 H 0.0305 0.86416 0.38568 0.0
H860 H 0.97109 0.81491 0.61815 0.0
H861 H 0.02085 0.85343 0.6134 0.0
H862 H 0.93887 0.74785 0.59359 0.0
H863 H 0.91017 0.73463 0.53219 0.0
C864 C 0.20202 0.21969 0.51675 0.0
C865 C 0.16256 0.19706 0.53679 0.0
C866 C 0.15263 0.141 0.4835 0.0
C867 C 0.19317 0.16033 0.46939 0.0
N868 N 0.25914 0.21629 0.48244 0.0
N869 N 0.10934 0.13185 0.55938 0.0
C870 C 0.21907 0.19939 0.48898 0.0
C871 C 0.14088 0.15612 0.52698 0.0
N872 N 0.22255 0.2598 0.5236 0.0
N873 N 0.12549 0.10846 0.45522 0.0
H874 H 0.10329 0.14251 0.59552 0.0
H875 H 0.09324 0.10111 0.55391 0.0
H876 H 0.13325 0.10065 0.418 0.0
H877 H 0.09512 0.09407 0.46413 0.0
H878 H 0.25097 0.27793 0.50759 0.0
H879 H 0.2101 0.27466 0.54393 0.0
H880 H 0.2794 0.2436 0.49967 0.0
H881 H 0.27175 0.20146 0.46253 0.0
C882 C 0.85787 0.30915 0.86524 0.0
C883 C 0.81566 0.28907 0.86882 0.0
C884 C 0.81769 0.33938 0.80561 0.0
C885 C 0.85934 0.36361 0.81186 0.0
N886 N 0.91804 0.3733 0.85908 0.0
N887 N 0.75639 0.29262 0.85066 0.0
C888 C 0.87919 0.34917 0.84546 0.0
C889 C 0.79591 0.3066 0.84156 0.0
N890 N 0.87754 0.28935 0.87583 0.0
N891 N 0.79887 0.34697 0.7643 0.0
H892 H 0.73978 0.27038 0.87933 0.0
H893 H 0.74161 0.30646 0.8346 0.0
H894 H 0.81472 0.36854 0.73455 0.0
H895 H 0.76877 0.3285 0.75565 0.0
H896 H 0.90822 0.30213 0.87087 0.0
H897 H 0.86207 0.25876 0.88072 0.0
H898 H 0.93273 0.36476 0.88687 0.0
H899 H 0.93411 0.4027 0.84614 0.0
C900 C 0.67566 0.47414 0.86117 0.0
C901 C 0.69806 0.51545 0.87163 0.0
C902 C 0.64479 0.52175 0.82679 0.0
C903 C 0.62695 0.48198 0.80727 0.0
N904 N 0.63174 0.42282 0.79813 0.0
N905 N 0.70665 0.58005 0.853 0.0
C906 C 0.64472 0.45917 0.82167 0.0
C907 C 0.6834 0.53983 0.85133 0.0
N908 N 0.68304 0.44887 0.89068 0.0
N909 N 0.62449 0.54173 0.82455 0.0
H910 H 0.73567 0.59378 0.86738 0.0
H911 H 0.69849 0.59907 0.83468 0.0
H912 H 0.59532 0.5282 0.81083 0.0
H913 H 0.63509 0.56973 0.84203 0.0
H914 H 0.66592 0.41807 0.8874 0.0
H915 H 0.70251 0.45898 0.9239 0.0
H916 H 0.64587 0.40642 0.80431 0.0
H917 H 0.60962 0.41117 0.76808 0.0
C918 C 0.47327 0.17292 0.81856 0.0
C919 C 0.48935 0.19464 0.86857 0.0
C920 C 0.53307 0.16647 0.87248 0.0
C921 C 0.52373 0.15169 0.81719 0.0
N922 N 0.46711 0.1203 0.75892 0.0
N923 N 0.54334 0.21952 0.9332 0.0
C924 C 0.48906 0.14966 0.79507 0.0
C925 C 0.52154 0.19337 0.89277 0.0
N926 N 0.44349 0.17512 0.79232 0.0
N927 N 0.5484 0.15106 0.90881 0.0
H928 H 0.53689 0.24059 0.94899 0.0
H929 H 0.57019 0.22251 0.94635 0.0
H930 H 0.54826 0.12469 0.9008 0.0
H931 H 0.554 0.16001 0.9499 0.0
H932 H 0.43441 0.16461 0.75242 0.0
H933 H 0.42936 0.18941 0.80919 0.0
H934 H 0.43897 0.11332 0.74529 0.0
H935 H 0.47532 0.09955 0.7497 0.0
C936 C 0.48515 0.37356 0.86451 0.0
C937 C 0.49188 0.37309 0.80736 0.0
C938 C 0.45193 0.30151 0.81288 0.0
C939 C 0.46112 0.30331 0.86931 0.0
N940 N 0.50257 0.34758 0.94093 0.0
N941 N 0.49186 0.33119 0.73387 0.0
C942 C 0.48043 0.34088 0.89496 0.0
C943 C 0.47632 0.3356 0.7815 0.0
N944 N 0.49071 0.40705 0.8902 0.0
N945 N 0.42615 0.26644 0.78832 0.0
H946 H 0.51703 0.35473 0.71648 0.0
H947 H 0.48384 0.30312 0.71838 0.0
H948 H 0.40898 0.24075 0.81147 0.0
H949 H 0.42 0.26471 0.74624 0.0
H950 H 0.48636 0.40749 0.93258 0.0
H951 H 0.49579 0.43211 0.86795 0.0
H952 H 0.52155 0.37636 0.95511 0.0
H953 H 0.50625 0.32552 0.9592 0.0
C954 C 0.63155 0.11773 0.86242 0.0
C955 C 0.63425 0.12676 0.80563 0.0
C956 C 0.70347 0.14666 0.81262 0.0
C957 C 0.70305 0.15488 0.86918 0.0
N958 N 0.66135 0.16035 0.93874 0.0
N959 N 0.6815 0.16921 0.73751 0.0
C960 C 0.6655 0.14192 0.89395 0.0
C961 C 0.67229 0.14458 0.78119 0.0
N962 N 0.59608 0.0928 0.88693 0.0
N963 N 0.73605 0.14908 0.78807 0.0
H964 H 0.66148 0.17713 0.72237 0.0
H965 H 0.71089 0.18696 0.72464 0.0
H966 H 0.76051 0.15322 0.81103 0.0
H967 H 0.73585 0.1429 0.74619 0.0
H968 H 0.59396 0.08763 0.92935 0.0
H969 H 0.57043 0.07574 0.8637 0.0
H970 H 0.63329 0.15456 0.95185 0.0
H971 H 0.68531 0.18537 0.95581 0.0
C972 C 0.86257 0.54448 0.85216 0.0
C973 C 0.82297 0.51992 0.87085 0.0
C974 C 0.81928 0.46392 0.82301 0.0
C975 C 0.86048 0.48575 0.81238 0.0
N976 N 0.92341 0.54607 0.82404 0.0
N977 N 0.76979 0.4538 0.89024 0.0
C978 C 0.88302 0.52606 0.82887 0.0
C979 C 0.80336 0.47874 0.86153 0.0
N980 N 0.88005 0.58474 0.8554 0.0
N981 N 0.79552 0.42892 0.79666 0.0
H982 H 0.76096 0.46393 0.92423 0.0
H983 H 0.75478 0.42305 0.88531 0.0
H984 H 0.80652 0.41888 0.76524 0.0
H985 H 0.76466 0.41318 0.80114 0.0
H986 H 0.90768 0.60394 0.83778 0.0
H987 H 0.8657 0.59856 0.87339 0.0
H988 H 0.94137 0.57445 0.84011 0.0
H989 H 0.93871 0.5331 0.80643 0.0
C990 C 0.52616 0.64701 0.19172 0.0
C991 C 0.48461 0.62973 0.20189 0.0
C992 C 0.48579 0.68095 0.14252 0.0
C993 C 0.52767 0.70321 0.1431 0.0
N994 N 0.58809 0.70904 0.1792 0.0
N995 N 0.42869 0.64039 0.19881 0.0
C996 C 0.5482 0.68681 0.17096 0.0
C997 C 0.46569 0.65001 0.18108 0.0
N998 N 0.5441 0.62503 0.1977 0.0
N999 N 0.46505 0.68866 0.10438 0.0
H1000 H 0.4155 0.62134 0.23198 0.0
H1001 H 0.41449 0.65568 0.18605 0.0
H1002 H 0.4795 0.70863 0.07229 0.0
H1003 H 0.43419 0.67153 0.10082 0.0
H1004 H 0.57389 0.63576 0.18764 0.0
H1005 H 0.5275 0.59472 0.20506 0.0
H1006 H 0.60369 0.69903 0.2027 0.0
H1007 H 0.60431 0.73858 0.16706 0.0
C1008 C 0.31458 0.86506 0.15732 0.0
C1009 C 0.29677 0.82506 0.13857 0.0
C1010 C 0.34872 0.81954 0.18755 0.0
C1011 C 0.37044 0.8608 0.19857 0.0
N1012 N 0.377 0.92452 0.17928 0.0
N1013 N 0.30766 0.77059 0.12054 0.0
C1014 C 0.35423 0.88426 0.17942 0.0
C1015 C 0.31731 0.80437 0.14893 0.0
N1016 N 0.29356 0.88433 0.15611 0.0
N1017 N 0.35763 0.79447 0.21466 0.0
H1018 H 0.28839 0.76198 0.08721 0.0
H1019 H 0.32322 0.75537 0.12464 0.0
H1020 H 0.37776 0.80442 0.24714 0.0
H1021 H 0.34107 0.76369 0.21007 0.0
H1022 H 0.30413 0.91244 0.1732 0.0
H1023 H 0.26419 0.87032 0.14287 0.0
H1024 H 0.36752 0.94284 0.1621 0.0
H1025 H 0.40676 0.93879 0.19055 0.0
C1026 C 0.19219 0.51527 0.13931 0.0
C1027 C 0.17251 0.47349 0.13744 0.0
C1028 C 0.11601 0.47336 0.18458 0.0
C1029 C 0.13995 0.51453 0.19719 0.0
N1030 N 0.20693 0.57011 0.19895 0.0
N1031 N 0.11634 0.41195 0.16851 0.0
C1032 C 0.17995 0.53405 0.17829 0.0
C1033 C 0.13452 0.45208 0.16324 0.0
N1034 N 0.22228 0.53723 0.10333 0.0
N1035 N 0.0758 0.45515 0.18884 0.0
H1036 H 0.1297 0.39609 0.15482 0.0
H1037 H 0.08996 0.39551 0.19064 0.0
H1038 H 0.06177 0.47135 0.1968 0.0
H1039 H 0.05701 0.42576 0.17695 0.0
H1040 H 0.23629 0.56813 0.10169 0.0
H1041 H 0.2289 0.52391 0.07079 0.0
H1042 H 0.23692 0.58473 0.18777 0.0
H1043 H 0.20004 0.58153 0.23324 0.0
C1044 C 0.17989 0.65697 0.19214 0.0
C1045 C 0.13933 0.63689 0.20576 0.0
C1046 C 0.13354 0.69008 0.16149 0.0
C1047 C 0.17227 0.7048 0.13935 0.0
N1048 N 0.22513 0.69183 0.11837 0.0
N1049 N 0.07542 0.63221 0.20012 0.0
C1050 C 0.19301 0.68459 0.14953 0.0
C1051 C 0.11521 0.65279 0.18957 0.0
N1052 N 0.20574 0.64987 0.22051 0.0
N1053 N 0.11487 0.71156 0.15605 0.0
H1054 H 0.0619 0.60476 0.22006 0.0
H1055 H 0.05609 0.64191 0.188 0.0
H1056 H 0.12753 0.73806 0.13376 0.0
H1057 H 0.08797 0.70388 0.17537 0.0
H1058 H 0.23625 0.66501 0.21251 0.0
H1059 H 0.19683 0.63354 0.25703 0.0
H1060 H 0.24076 0.67684 0.12419 0.0
H1061 H 0.23136 0.70797 0.08188 0.0
C1062 C 0.34848 0.46687 0.18385 0.0
C1063 C 0.36319 0.50507 0.20724 0.0
C1064 C 0.31257 0.51211 0.16112 0.0
C1065 C 0.29362 0.47209 0.14447 0.0
N1066 N 0.28969 0.4084 0.1493 0.0
N1067 N 0.34907 0.55609 0.23506 0.0
C1068 C 0.31034 0.44827 0.15847 0.0
C1069 C 0.34157 0.52488 0.2018 0.0
N1070 N 0.37098 0.44908 0.18455 0.0
N1071 N 0.30356 0.53811 0.13701 0.0
H1072 H 0.36867 0.5641 0.26816 0.0
H1073 H 0.33227 0.57017 0.23368 0.0
H1074 H 0.28579 0.53008 0.10204 0.0
H1075 H 0.31831 0.5683 0.14664 0.0
H1076 H 0.36287 0.42266 0.16369 0.0
H1077 H 0.39865 0.46211 0.2039 0.0
H1078 H 0.29921 0.38946 0.164 0.0
H1079 H 0.26198 0.39443 0.13005 0.0
C1080 C 0.53259 0.88635 0.17867 0.0
C1081 C 0.49476 0.86319 0.20382 0.0
C1082 C 0.48816 0.80407 0.16226 0.0
C1083 C 0.528 0.82513 0.14397 0.0
N1084 N 0.59093 0.88615 0.14234 0.0
N1085 N 0.44456 0.79891 0.23605 0.0
C1086 C 0.55131 0.86647 0.15422 0.0
C1087 C 0.47538 0.82159 0.20138 0.0
N1088 N 0.55012 0.92669 0.17779 0.0
N1089 N 0.46219 0.76783 0.1408 0.0
H1090 H 0.43691 0.81163 0.26823 0.0
H1091 H 0.43071 0.768 0.23695 0.0
H1092 H 0.47003 0.75697 0.10671 0.0
H1093 H 0.4321 0.75221 0.15141 0.0
H1094 H 0.57605 0.94488 0.15568 0.0
H1095 H 0.53742 0.94152 0.19754 0.0
H1096 H 0.60972 0.91603 0.15147 0.0
H1097 H 0.60506 0.87183 0.12527 0.0
C1098 C 0.07857 0.17616 0.34349 0.0
C1099 C 0.08912 0.16833 0.29079 0.0
C1100 C 0.0432 0.18667 0.24825 0.0
C1101 C 0.03066 0.19125 0.30158 0.0
N1102 N 0.0542 0.21319 0.39383 0.0
N1103 N 0.09064 0.17794 0.19271 0.0
C1104 C 0.05391 0.19332 0.34743 0.0
C1105 C 0.07433 0.17744 0.24291 0.0
N1106 N 0.08949 0.16479 0.39015 0.0
N1107 N 0.0253 0.19138 0.20293 0.0
H1108 H 0.11407 0.17233 0.18812 0.0
H1109 H 0.08356 0.18712 0.15644 0.0
H1110 H 0.00624 0.20291 0.20573 0.0
H1111 H 0.02904 0.18385 0.16308 0.0
H1112 H 0.07791 0.16535 0.42863 0.0
H1113 H 0.10653 0.15108 0.38986 0.0
H1114 H 0.07412 0.21874 0.42576 0.0
H1115 H 0.03959 0.22937 0.39651 0.0
C1116 C 0.80587 0.86548 0.35723 0.0
C1117 C 0.82254 0.8522 0.31623 0.0
C1118 C 0.84328 0.91284 0.26321 0.0
C1119 C 0.83663 0.93018 0.31049 0.0
N1120 N 0.8037 0.92135 0.39841 0.0
N1121 N 0.84974 0.85857 0.22534 0.0
C1122 C 0.81467 0.90578 0.35591 0.0
C1123 C 0.83813 0.8742 0.26706 0.0
N1124 N 0.78424 0.84036 0.399 0.0
N1125 N 0.85424 0.93352 0.21478 0.0
H1126 H 0.84368 0.82924 0.22606 0.0
H1127 H 0.866 0.87457 0.19105 0.0
H1128 H 0.85704 0.96151 0.21094 0.0
H1129 H 0.85695 0.92181 0.17752 0.0
H1130 H 0.77199 0.84778 0.43179 0.0
H1131 H 0.7766 0.81062 0.39926 0.0
H1132 H 0.7826 0.90439 0.42791 0.0
H1133 H 0.81479 0.95157 0.40396 0.0
C1134 C 0.09479 0.89951 0.24655 0.0
C1135 C 0.06301 0.90268 0.27014 0.0
C1136 C 0.11049 0.96823 0.30741 0.0
C1137 C 0.14263 0.96429 0.28689 0.0
N1138 N 0.16603 0.92409 0.24376 0.0
N1139 N 0.04141 0.93527 0.33492 0.0
C1140 C 0.13493 0.92916 0.25859 0.0
C1141 C 0.07117 0.93553 0.30432 0.0
N1142 N 0.08663 0.86915 0.21094 0.0
N1143 N 0.11693 0.00408 0.32636 0.0
H1144 H 0.01207 0.91188 0.33427 0.0
H1145 H 0.04665 0.95636 0.36521 0.0
H1146 H 0.14496 0.02936 0.32891 0.0
H1147 H 0.09394 0.00976 0.3347 0.0
H1148 H 0.10823 0.86729 0.18777 0.0
H1149 H 0.05769 0.847 0.2016 0.0
H1150 H 0.16259 0.89779 0.22749 0.0
H1151 H 0.19556 0.94534 0.25192 0.0
C1152 C 0.18292 0.08602 0.76073 0.0
C1153 C 0.17097 0.0967 0.71151 0.0
C1154 C 0.19145 0.05619 0.65895 0.0
C1155 C 0.19196 0.037 0.70798 0.0
N1156 N 0.20035 0.04117 0.80626 0.0
N1157 N 0.16185 0.08943 0.61291 0.0
C1158 C 0.19178 0.05457 0.75931 0.0
C1159 C 0.17534 0.08169 0.66024 0.0
N1160 N 0.18614 0.1063 0.80827 0.0
N1161 N 0.20805 0.05188 0.6118 0.0
H1162 H 0.15009 0.10813 0.61162 0.0
H1163 H 0.15905 0.07415 0.57637 0.0
H1164 H 0.22444 0.03741 0.61096 0.0
H1165 H 0.21118 0.06832 0.57647 0.0
H1166 H 0.19691 0.10197 0.84515 0.0
H1167 H 0.18069 0.12993 0.80974 0.0
H1168 H 0.19652 0.04895 0.84589 0.0
H1169 H 0.21183 0.02203 0.80502 0.0
C1170 C 0.9506 0.08162 0.67988 0.0
C1171 C 0.91462 0.07318 0.70631 0.0
C1172 C 0.93845 0.14474 0.7132 0.0
C1173 C 0.97634 0.15283 0.69456 0.0
N1174 N 0.01955 0.12963 0.66091 0.0
N1175 N 0.87374 0.09592 0.74967 0.0
C1176 C 0.98251 0.12145 0.67728 0.0
C1177 C 0.90805 0.10454 0.7226 0.0
N1178 N 0.95408 0.05141 0.65688 0.0
N1179 N 0.9318 0.17557 0.72215 0.0
H1180 H 0.85076 0.06694 0.7566 0.0
H1181 H 0.8688 0.11724 0.76806 0.0
H1182 H 0.95382 0.2051 0.71586 0.0
H1183 H 0.904 0.17195 0.7313 0.0
H1184 H 0.97762 0.05589 0.63146 0.0
H1185 H 0.93168 0.02173 0.65943 0.0
H1186 H 0.0276 0.10806 0.65562 0.0
H1187 H 0.04311 0.15844 0.655 0.0
C1188 C 0.91449 0.8422 0.78201 0.0
C1189 C 0.9313 0.82684 0.74409 0.0
C1190 C 0.87607 0.80908 0.68074 0.0
C1191 C 0.86197 0.82893 0.71503 0.0
N1192 N 0.85885 0.85142 0.80653 0.0
N1193 N 0.90943 0.77127 0.68205 0.0
C1194 C 0.87828 0.84122 0.76863 0.0
C1195 C 0.90696 0.80301 0.70023 0.0
N1196 N 0.93402 0.85854 0.8301 0.0
N1197 N 0.86108 0.79682 0.62915 0.0
H1198 H 0.92508 0.76056 0.70367 0.0
H1199 H 0.89001 0.75149 0.65275 0.0
H1200 H 0.83805 0.80008 0.61334 0.0
H1201 H 0.87361 0.78582 0.60112 0.0
H1202 H 0.92663 0.87462 0.85714 0.0
H1203 H 0.9585 0.85618 0.84219 0.0
H1204 H 0.86751 0.85819 0.84745 0.0
H1205 H 0.83172 0.84967 0.79814 0.0
C1206 C 0.70816 0.50193 0.60103 0.0
C1207 C 0.70188 0.51659 0.65117 0.0
C1208 C 0.76411 0.52502 0.6882 0.0
C1209 C 0.76626 0.50352 0.64198 0.0
N1210 N 0.75146 0.48689 0.54633 0.0
N1211 N 0.72894 0.55469 0.73338 0.0
C1212 C 0.74197 0.49735 0.59544 0.0
C1213 C 0.73228 0.53332 0.69118 0.0
N1214 N 0.68045 0.49049 0.56021 0.0
N1215 N 0.79108 0.53586 0.72988 0.0
H1216 H 0.70628 0.56157 0.73456 0.0
H1217 H 0.74926 0.5676 0.76519 0.0
H1218 H 0.81131 0.52601 0.73333 0.0
H1219 H 0.79446 0.55562 0.76097 0.0
H1220 H 0.68035 0.47521 0.52493 0.0
H1221 H 0.65669 0.49579 0.56267 0.0
H1222 H 0.73667 0.48427 0.50959 0.0
H1223 H 0.77678 0.48433 0.54157 0.0
C1224 C 0.53559 0.27051 0.64811 0.0
C1225 C 0.52009 0.27968 0.60114 0.0
C1226 C 0.48742 0.20988 0.57199 0.0
C1227 C 0.50722 0.20204 0.61487 0.0
N1228 N 0.55387 0.22585 0.69046 0.0
N1229 N 0.48222 0.25933 0.51732 0.0
C1230 C 0.53178 0.23241 0.65267 0.0
C1231 C 0.4959 0.24959 0.56299 0.0
N1232 N 0.55417 0.2984 0.68843 0.0
N1233 N 0.46019 0.17914 0.54048 0.0
H1234 H 0.48699 0.28786 0.51063 0.0
H1235 H 0.46801 0.23996 0.48473 0.0
H1236 H 0.45344 0.14987 0.54646 0.0
H1237 H 0.44204 0.18187 0.51158 0.0
H1238 H 0.56139 0.29199 0.72682 0.0
H1239 H 0.55952 0.32737 0.68551 0.0
H1240 H 0.576 0.24819 0.71435 0.0
H1241 H 0.55262 0.1987 0.69528 0.0
C1242 C 0.81497 0.29393 0.56864 0.0
C1243 C 0.82864 0.30104 0.62416 0.0
C1244 C 0.77738 0.23245 0.64444 0.0
C1245 C 0.75566 0.23169 0.59734 0.0
N1246 N 0.75896 0.25786 0.50683 0.0
N1247 N 0.8214 0.27331 0.71617 0.0
C1248 C 0.77649 0.26109 0.55659 0.0
C1249 C 0.80979 0.2692 0.66248 0.0
N1250 N 0.83916 0.31794 0.52758 0.0
N1251 N 0.77113 0.19806 0.66757 0.0
H1252 H 0.8453 0.29877 0.73235 0.0
H1253 H 0.80519 0.25142 0.74548 0.0
H1254 H 0.75335 0.17068 0.64892 0.0
H1255 H 0.78913 0.19769 0.69902 0.0
H1256 H 0.83219 0.31255 0.48592 0.0
H1257 H 0.86825 0.34062 0.53504 0.0
H1258 H 0.77014 0.28046 0.47756 0.0
H1259 H 0.73239 0.23244 0.49595 0.0
C1260 C 0.80476 0.38694 0.00696 0.0
C1261 C 0.83025 0.42146 0.03754 0.0
C1262 C 0.87482 0.39516 0.05536 0.0
C1263 C 0.84619 0.35843 0.03201 0.0
N1264 N 0.78192 0.31765 0.98982 0.0
N1265 N 0.88944 0.45941 0.0915 0.0
C1266 C 0.81094 0.35405 0.00799 0.0
C1267 C 0.86567 0.42616 0.06127 0.0
N1268 N 0.77431 0.38555 0.9773 0.0
N1269 N 0.9106 0.40015 0.07184 0.0
H1270 H 0.88412 0.48303 0.09514 0.0
H1271 H 0.91328 0.46294 0.11508 0.0
H1272 H 0.91769 0.37771 0.06811 0.0
H1273 H 0.93425 0.4271 0.08511 0.0
H1274 H 0.75762 0.36332 0.94883 0.0
H1275 H 0.76791 0.40852 0.97774 0.0
H1276 H 0.75361 0.31145 0.97832 0.0
H1277 H 0.78482 0.29251 0.99018 0.0
C1278 C 0.59568 0.45819 0.02251 0.0
C1279 C 0.63183 0.47039 0.05096 0.0
C1280 C 0.59397 0.42276 0.12482 0.0
C1281 C 0.56005 0.40532 0.09026 0.0
N1282 N 0.52487 0.42869 0.03523 0.0
N1283 N 0.66455 0.47024 0.13516 0.0
C1284 C 0.55924 0.4291 0.04687 0.0
C1285 C 0.6306 0.45481 0.10446 0.0
N1286 N 0.59581 0.47288 0.97152 0.0
N1287 N 0.58993 0.41029 0.17819 0.0
H1288 H 0.69067 0.49606 0.12399 0.0
H1289 H 0.66723 0.45739 0.17117 0.0
H1290 H 0.56217 0.38993 0.19464 0.0
H1291 H 0.6124 0.42276 0.20744 0.0
H1292 H 0.5702 0.46168 0.94756 0.0
H1293 H 0.62175 0.49414 0.95195 0.0
H1294 H 0.52376 0.44855 0.00759 0.0
H1295 H 0.4998 0.41362 0.0604 0.0
C1296 C 0.59587 0.20691 0.05919 0.0
C1297 C 0.60347 0.17729 0.0798 0.0
C1298 C 0.53129 0.12974 0.07996 0.0
C1299 C 0.52419 0.16073 0.06433 0.0
N1300 N 0.54987 0.23124 0.05677 0.0
N1301 N 0.57773 0.11215 0.11948 0.0
C1302 C 0.55653 0.20006 0.05959 0.0
C1303 C 0.57096 0.13898 0.09278 0.0
N1304 N 0.62584 0.24093 0.03622 0.0
N1305 N 0.50031 0.09157 0.08196 0.0
H1306 H 0.6061 0.11842 0.131 0.0
H1307 H 0.55509 0.08515 0.13455 0.0
H1308 H 0.47103 0.0842 0.0741 0.0
H1309 H 0.50397 0.06711 0.08766 0.0
H1310 H 0.62101 0.26199 0.01692 0.0
H1311 H 0.65459 0.24597 0.03035 0.0
H1312 H 0.57264 0.26077 0.05919 0.0
H1313 H 0.52144 0.22758 0.05661 0.0
C1314 C 0.39482 0.8614 0.0172 0.0
C1315 C 0.36387 0.84457 0.97785 0.0
C1316 C 0.401 0.82042 0.92445 0.0
C1317 C 0.42594 0.82763 0.97057 0.0
N1318 N 0.45232 0.86189 0.05684 0.0
N1319 N 0.34028 0.81511 0.88887 0.0
C1320 C 0.42522 0.85103 0.01532 0.0
C1321 C 0.3684 0.82701 0.92923 0.0
N1322 N 0.3933 0.8847 0.05817 0.0
N1323 N 0.40908 0.80778 0.87606 0.0
H1324 H 0.31785 0.82239 0.88982 0.0
H1325 H 0.33847 0.79742 0.85555 0.0
H1326 H 0.43366 0.80398 0.87129 0.0
H1327 H 0.39398 0.80466 0.83945 0.0
H1328 H 0.41384 0.89722 0.0898 0.0
H1329 H 0.37214 0.89358 0.05885 0.0
H1330 H 0.45847 0.8845 0.08463 0.0
H1331 H 0.46981 0.84905 0.06324 0.0
C1332 C 0.14686 0.53043 0.91153 0.0
C1333 C 0.1436 0.51237 0.96356 0.0
C1334 C 0.16021 0.57451 0.00987 0.0
C1335 C 0.16643 0.59382 0.95824 0.0
N1336 N 0.15283 0.58701 0.86082 0.0
N1337 N 0.12368 0.51212 0.05777 0.0
C1338 C 0.15562 0.57069 0.90916 0.0
C1339 C 0.14275 0.53263 0.0115 0.0
N1340 N 0.1414 0.50887 0.86461 0.0
N1341 N 0.17327 0.59592 0.05736 0.0
H1342 H 0.10705 0.48123 0.05887 0.0
H1343 H 0.11903 0.52598 0.0914 0.0
H1344 H 0.18779 0.62674 0.05837 0.0
H1345 H 0.1733 0.58294 0.09477 0.0
H1346 H 0.14807 0.5211 0.82525 0.0
H1347 H 0.13032 0.47828 0.86559 0.0
H1348 H 0.14217 0.57107 0.82435 0.0
H1349 H 0.15775 0.61588 0.85844 0.0
C1350 C 0.47031 0.61309 0.01802 0.0
C1351 C 0.49087 0.63406 0.97011 0.0
C1352 C 0.4318 0.58868 0.91564 0.0
C1353 C 0.40897 0.5761 0.96501 0.0
N1354 N 0.40679 0.58051 0.06405 0.0
N1355 N 0.4946 0.63495 0.87115 0.0
C1356 C 0.42832 0.5889 0.01648 0.0
C1357 C 0.47262 0.61945 0.91802 0.0
N1358 N 0.49061 0.61414 0.0641 0.0
N1359 N 0.41448 0.57078 0.86695 0.0
H1360 H 0.52543 0.65357 0.87223 0.0
H1361 H 0.48269 0.62953 0.83169 0.0
H1362 H 0.38497 0.54782 0.86459 0.0
H1363 H 0.42976 0.5763 0.82977 0.0
H1364 H 0.47639 0.59565 0.09759 0.0
H1365 H 0.52151 0.62792 0.0651 0.0
H1366 H 0.41987 0.59442 0.10095 0.0
H1367 H 0.37588 0.56347 0.06568 0.0
C1368 C 0.48401 0.69918 0.41799 0.0
C1369 C 0.50123 0.69739 0.36711 0.0
C1370 C 0.52735 0.76884 0.35478 0.0
C1371 C 0.50055 0.7672 0.39595 0.0
N1372 N 0.47896 0.74137 0.48732 0.0
N1373 N 0.54442 0.73203 0.29045 0.0
C1374 C 0.48638 0.7354 0.43416 0.0
C1375 C 0.52495 0.73282 0.33681 0.0
N1376 N 0.46487 0.66614 0.45042 0.0
N1377 N 0.55871 0.80461 0.33956 0.0
H1378 H 0.54497 0.70672 0.27811 0.0
H1379 H 0.55874 0.75605 0.26368 0.0
H1380 H 0.56596 0.83036 0.36175 0.0
H1381 H 0.58083 0.80771 0.31222 0.0
H1382 H 0.44711 0.66401 0.48397 0.0
H1383 H 0.46579 0.64025 0.44263 0.0
H1384 H 0.47139 0.72049 0.51854 0.0
H1385 H 0.48593 0.76943 0.50164 0.0
C1386 C 0.27969 0.80847 0.32669 0.0
C1387 C 0.29982 0.82884 0.37494 0.0
C1388 C 0.25256 0.7705 0.42898 0.0
C1389 C 0.24131 0.74742 0.3799 0.0
N1390 N 0.24744 0.74515 0.28094 0.0
N1391 N 0.2984 0.83312 0.47366 0.0
C1392 C 0.25517 0.76663 0.32831 0.0
C1393 C 0.28376 0.81105 0.42682 0.0
N1394 N 0.28207 0.8289 0.28012 0.0
N1395 N 0.23298 0.75371 0.4771 0.0
H1396 H 0.31754 0.86382 0.47234 0.0
H1397 H 0.29184 0.82136 0.51327 0.0
H1398 H 0.20946 0.72447 0.47921 0.0
H1399 H 0.23755 0.76932 0.51374 0.0
H1400 H 0.26442 0.81491 0.24596 0.0
H1401 H 0.29597 0.85977 0.2793 0.0
H1402 H 0.26161 0.75802 0.24384 0.0
H1403 H 0.23027 0.71437 0.27992 0.0
C1404 C 0.23558 0.47095 0.34494 0.0
C1405 C 0.2646 0.50114 0.37943 0.0
C1406 C 0.21927 0.52622 0.39667 0.0
C1407 C 0.1932 0.50069 0.3555 0.0
N1408 N 0.17816 0.45055 0.2863 0.0
N1409 N 0.28714 0.56313 0.42775 0.0
C1410 C 0.20166 0.47337 0.32846 0.0
C1411 C 0.25731 0.5304 0.4023 0.0
N1412 N 0.23937 0.43918 0.32991 0.0
N1413 N 0.20713 0.54551 0.43189 0.0
H1414 H 0.3162 0.5685 0.43042 0.0
H1415 H 0.28403 0.587 0.44054 0.0
H1416 H 0.17835 0.54109 0.43136 0.0
H1417 H 0.22388 0.56182 0.46567 0.0
H1418 H 0.21727 0.41454 0.30922 0.0
H1419 H 0.26296 0.43562 0.34258 0.0
H1420 H 0.18543 0.43346 0.26101 0.0
H1421 H 0.15248 0.45054 0.2745 0.0
C1422 C 0.39254 0.07307 0.38383 0.0
C1423 C 0.37999 0.0923 0.34654 0.0
C1424 C 0.40901 0.07584 0.26911 0.0
C1425 C 0.42171 0.05654 0.30632 0.0
N1426 N 0.43734 0.04809 0.39974 0.0
N1427 N 0.38787 0.12415 0.25866 0.0
C1428 C 0.41727 0.0588 0.36408 0.0
C1429 C 0.39205 0.0977 0.29066 0.0
N1430 N 0.37981 0.0673 0.43738 0.0
N1431 N 0.41091 0.07147 0.21346 0.0
H1432 H 0.37575 0.14095 0.27364 0.0
H1433 H 0.39973 0.13203 0.21906 0.0
H1434 H 0.42258 0.05509 0.19569 0.0
H1435 H 0.39791 0.08144 0.18502 0.0
H1436 H 0.38443 0.04945 0.4647 0.0
H1437 H 0.36227 0.07823 0.45354 0.0
H1438 H 0.43787 0.05232 0.44218 0.0
H1439 H 0.45683 0.03875 0.3863 0.0
C1440 C 0.92426 0.34114 0.3 0.0
C1441 C 0.94695 0.37565 0.33208 0.0
C1442 C 0.92993 0.33634 0.41641 0.0
C1443 C 0.9077 0.30201 0.38407 0.0
N1444 N 0.87295 0.27196 0.29996 0.0
N1445 N 0.96235 0.40777 0.42109 0.0
C1446 C 0.9012 0.3046 0.32733 0.0
C1447 C 0.94677 0.37378 0.39055 0.0
N1448 N 0.92661 0.3428 0.24373 0.0
N1449 N 0.93666 0.33309 0.47087 0.0
H1450 H 0.9748 0.43569 0.40304 0.0
H1451 H 0.95972 0.40814 0.46377 0.0
H1452 H 0.92385 0.30598 0.49155 0.0
H1453 H 0.95676 0.35697 0.49481 0.0
H1454 H 0.9141 0.31767 0.21871 0.0
H1455 H 0.94378 0.36906 0.22189 0.0
H1456 H 0.86465 0.27271 0.25947 0.0
H1457 H 0.85496 0.24509 0.32002 0.0
C1458 C 0.66027 0.59548 0.29439 0.0
C1459 C 0.62787 0.58335 0.33124 0.0
C1460 C 0.67296 0.6074 0.40985 0.0
C1461 C 0.70494 0.61773 0.37303 0.0
N1462 N 0.72871 0.61232 0.28336 0.0
N1463 N 0.60201 0.56911 0.42434 0.0
C1464 C 0.6984 0.6086 0.31621 0.0
C1465 C 0.63376 0.58659 0.38919 0.0
N1466 N 0.65511 0.59671 0.23887 0.0
N1467 N 0.68008 0.619 0.4638 0.0
H1468 H 0.5728 0.5537 0.41057 0.0
H1469 H 0.60468 0.56692 0.46668 0.0
H1470 H 0.70855 0.63372 0.48069 0.0
H1471 H 0.65806 0.61649 0.49086 0.0
H1472 H 0.67866 0.60944 0.2109 0.0
H1473 H 0.62772 0.58854 0.22103 0.0
H1474 H 0.72481 0.60261 0.24262 0.0
H1475 H 0.75696 0.62145 0.29875 0.0
C1476 C 0.10604 0.39975 0.71581 0.0
C1477 C 0.10402 0.3957 0.65777 0.0
C1478 C 0.06797 0.43145 0.65274 0.0
C1479 C 0.06216 0.42707 0.71062 0.0
N1480 N 0.07447 0.40589 0.79818 0.0
N1481 N 0.08267 0.40679 0.56973 0.0
C1482 C 0.08149 0.41162 0.74278 0.0
C1483 C 0.08554 0.41197 0.62559 0.0
N1484 N 0.13138 0.39205 0.74473 0.0
N1485 N 0.05678 0.45434 0.62413 0.0
H1486 H 0.09569 0.39302 0.54817 0.0
H1487 H 0.06522 0.41388 0.54519 0.0
H1488 H 0.04452 0.46959 0.6436 0.0
H1489 H 0.06327 0.46133 0.58258 0.0
H1490 H 0.1366 0.39753 0.78676 0.0
H1491 H 0.1503 0.38425 0.725 0.0
H1492 H 0.08439 0.39054 0.82227 0.0
H1493 H 0.05626 0.41386 0.81965 0.0
C1494 C 0.5819 0.63591 0.63974 0.0
C1495 C 0.57991 0.62985 0.69751 0.0
C1496 C 0.61378 0.70119 0.71297 0.0
C1497 C 0.62197 0.70692 0.65569 0.0
N1498 N 0.61727 0.6802 0.56431 0.0
N1499 N 0.59592 0.6561 0.79002 0.0
C1500 C 0.60662 0.67447 0.61876 0.0
C1501 C 0.5959 0.66229 0.7346 0.0
N1502 N 0.55976 0.60481 0.60519 0.0
N1503 N 0.62263 0.73288 0.74633 0.0
H1504 H 0.58301 0.62791 0.80759 0.0
H1505 H 0.61126 0.67892 0.81829 0.0
H1506 H 0.63554 0.7618 0.73139 0.0
H1507 H 0.61384 0.73011 0.78744 0.0
H1508 H 0.55711 0.60804 0.5631 0.0
H1509 H 0.54086 0.5762 0.61972 0.0
H1510 H 0.61059 0.657 0.53702 0.0
H1511 H 0.63559 0.70817 0.54716 0.0
C1512 C 0.37096 0.95848 0.61733 0.0
C1513 C 0.37829 0.96499 0.67471 0.0
C1514 C 0.30753 0.92374 0.6941 0.0
C1515 C 0.29988 0.92273 0.63694 0.0
N1516 N 0.32354 0.94242 0.54375 0.0
N1517 N 0.35334 0.95911 0.76774 0.0
C1518 C 0.33136 0.94074 0.59823 0.0
C1519 C 0.34656 0.94887 0.71328 0.0
N1520 N 0.40166 0.96827 0.58139 0.0
N1521 N 0.27762 0.90015 0.72981 0.0
H1522 H 0.38146 0.97858 0.78352 0.0
H1523 H 0.33058 0.95127 0.79641 0.0
H1524 H 0.24866 0.88067 0.71684 0.0
H1525 H 0.28237 0.8969 0.7712 0.0
H1526 H 0.39762 0.96051 0.53984 0.0
H1527 H 0.43106 0.98086 0.59418 0.0
H1528 H 0.34554 0.95913 0.51485 0.0
H1529 H 0.29479 0.92967 0.52806 0.0
C1530 C 0.67905 0.98511 0.71775 0.0
C1531 C 0.70358 0.99224 0.67045 0.0
C1532 C 0.68888 0.04355 0.63945 0.0
C1533 C 0.66166 0.03403 0.68402 0.0
N1534 N 0.63167 0.99758 0.76716 0.0
N1535 N 0.74271 0.03787 0.59845 0.0
C1536 C 0.65736 0.00558 0.72398 0.0
C1537 C 0.71203 0.02458 0.63524 0.0
N1538 N 0.6785 0.96041 0.75817 0.0
N1539 N 0.6903 0.06825 0.59845 0.0
H1540 H 0.7601 0.02472 0.59368 0.0
H1541 H 0.75354 0.06434 0.57668 0.0
H1542 H 0.67369 0.08248 0.59915 0.0
H1543 H 0.70543 0.07217 0.56139 0.0
H1544 H 0.66358 0.95544 0.79555 0.0
H1545 H 0.69609 0.9472 0.75658 0.0
H1546 H 0.62318 0.97428 0.79471 0.0
H1547 H 0.61766 0.01401 0.77481 0.0
C1548 C 0.98868 0.64117 0.70632 0.0
C1549 C 0.95792 0.62102 0.66696 0.0
C1550 C 0.97952 0.68452 0.61969 0.0
C1551 C 0.00833 0.70487 0.66107 0.0
N1552 N 0.03116 0.70337 0.75292 0.0
N1553 N 0.91674 0.62625 0.59711 0.0
C1554 C 0.00996 0.68345 0.70734 0.0
C1555 C 0.95102 0.64361 0.62711 0.0
N1556 N 0.99974 0.62055 0.74032 0.0
N1557 N 0.9806 0.70339 0.57184 0.0
H1558 H 0.8942 0.59696 0.60347 0.0
H1559 H 0.90882 0.64222 0.57081 0.0
H1560 H 0.00204 0.73282 0.56386 0.0
H1561 H 0.96268 0.68868 0.5381 0.0
H1562 H 0.02467 0.63438 0.76561 0.0
H1563 H 0.98688 0.58982 0.73941 0.0
H1564 H 0.03026 0.68906 0.78955 0.0
H1565 H 0.04589 0.73424 0.75623 0.0
C1566 C 0.31901 0.3355 0.61995 0.0
C1567 C 0.29434 0.30472 0.65712 0.0
C1568 C 0.35321 0.31673 0.70993 0.0
C1569 C 0.37774 0.34699 0.67212 0.0
N1570 N 0.38537 0.37775 0.58337 0.0
N1571 N 0.28804 0.26063 0.7312 0.0
C1572 C 0.36101 0.35402 0.62464 0.0
C1573 C 0.31156 0.2933 0.69973 0.0
N1574 N 0.30231 0.34799 0.5812 0.0
N1575 N 0.36933 0.31208 0.75726 0.0
H1576 H 0.25729 0.24369 0.72667 0.0
H1577 H 0.29925 0.24842 0.75894 0.0
H1578 H 0.39956 0.32904 0.76611 0.0
H1579 H 0.35259 0.29369 0.78961 0.0
H1580 H 0.31858 0.3734 0.55739 0.0
H1581 H 0.27171 0.33439 0.57518 0.0
H1582 H 0.37498 0.38091 0.54536 0.0
H1583 H 0.41629 0.39126 0.58493 0.0
C1584 C 0.99874 0.64816 0.29772 0.0
C1585 C 0.03059 0.65634 0.33374 0.0
C1586 C 0.01848 0.70392 0.38488 0.0
C1587 C 0.98726 0.69623 0.34798 0.0
N1588 N 0.95518 0.66996 0.26069 0.0
N1589 N 0.07573 0.69695 0.40538 0.0
C1590 C 0.97969 0.67105 0.30174 0.0
C1591 C 0.04231 0.68615 0.375 0.0
N1592 N 0.98587 0.61772 0.2606 0.0
N1593 N 0.02384 0.7263 0.43098 0.0
H1594 H 0.093 0.68355 0.40103 0.0
H1595 H 0.08812 0.72119 0.43199 0.0
H1596 H 0.00673 0.73944 0.4395 0.0
H1597 H 0.04308 0.72954 0.4628 0.0
H1598 H 0.95976 0.60718 0.23806 0.0
H1599 H 0.99988 0.60114 0.25483 0.0
H1600 H 0.95167 0.65531 0.22338 0.0
H1601 H 0.94143 0.68706 0.26141 0.0
C1602 C 0.33341 0.30298 0.29952 0.0
C1603 C 0.3023 0.28673 0.33964 0.0
C1604 C 0.31539 0.35402 0.36129 0.0
C1605 C 0.34657 0.37001 0.32155 0.0
N1606 N 0.37895 0.35979 0.24401 0.0
N1607 N 0.25719 0.29609 0.3981 0.0
C1608 C 0.35367 0.34443 0.28808 0.0
C1609 C 0.29101 0.31199 0.3668 0.0
N1610 N 0.34394 0.27887 0.27229 0.0
N1611 N 0.31067 0.37889 0.39641 0.0
H1612 H 0.23943 0.26582 0.40556 0.0
H1613 H 0.24499 0.31268 0.41336 0.0
H1614 H 0.32742 0.40974 0.39369 0.0
H1615 H 0.29217 0.36907 0.4309 0.0
H1616 H 0.3707 0.28962 0.25099 0.0
H1617 H 0.32677 0.24801 0.2726 0.0
H1618 H 0.38239 0.34247 0.21419 0.0
H1619 H 0.39385 0.38999 0.23437 0.0
C1620 C 0.64198 0.99829 0.3772 0.0
C1621 C 0.62607 0.97306 0.33047 0.0
C1622 C 0.69309 0.98547 0.30674 0.0
C1623 C 0.70939 0.01407 0.34987 0.0
N1624 N 0.70008 0.04903 0.42519 0.0
N1625 N 0.6344 0.93401 0.26028 0.0
C1626 C 0.68394 0.0205 0.38516 0.0
C1627 C 0.65099 0.96384 0.2983 0.0
N1628 N 0.61664 0.99915 0.4158 0.0
N1629 N 0.71811 0.98126 0.27113 0.0
H1630 H 0.60408 0.91838 0.25204 0.0
H1631 H 0.64993 0.92244 0.2399 0.0
H1632 H 0.74885 0.99587 0.27624 0.0
H1633 H 0.70898 0.96516 0.23459 0.0
H1634 H 0.62581 0.01374 0.45346 0.0
H1635 H 0.58579 0.98166 0.413 0.0
H1636 H 0.68401 0.05915 0.44751 0.0
H1637 H 0.73037 0.06438 0.43425 0.0
C1638 C 0.73042 0.72787 0.08569 0.0
C1639 C 0.72099 0.75138 0.05192 0.0
C1640 C 0.74315 0.73206 0.96976 0.0
C1641 C 0.7533 0.7089 1.00343 0.0
N1642 N 0.76694 0.69318 0.09415 0.0
N1643 N 0.7291 0.78579 0.96631 0.0
C1644 C 0.75028 0.70951 0.06178 0.0
C1645 C 0.73114 0.75689 0.99533 0.0
N1646 N 0.71876 0.72158 0.13971 0.0
N1647 N 0.74249 0.72853 0.91363 0.0
H1648 H 0.72102 0.80491 0.98481 0.0
H1649 H 0.73931 0.79341 0.92595 0.0
H1650 H 0.74981 0.70956 0.89297 0.0
H1651 H 0.73114 0.74166 0.88769 0.0
H1652 H 0.72052 0.70072 0.16447 0.0
H1653 H 0.70496 0.73549 0.15896 0.0
H1654 H 0.7691 0.69626 0.13683 0.0
H1655 H 0.78187 0.67957 0.07782 0.0
C1656 C 0.26103 0.00273 0.03561 0.0
C1657 C 0.25108 0.96801 1.0048 0.0
C1658 C 0.2869 0.00784 0.92463 0.0
C1659 C 0.29735 0.04239 0.95582 0.0
N1660 N 0.28115 0.07235 0.03106 0.0
N1661 N 0.24111 0.9374 0.91514 0.0
C1662 C 0.28006 0.03974 0.00821 0.0
C1663 C 0.25962 0.97053 0.94751 0.0
N1664 N 0.25466 0.00092 0.09122 0.0
N1665 N 0.3041 0.01046 0.87442 0.0
H1666 H 0.21967 0.90987 0.93066 0.0
H1667 H 0.24375 0.93813 0.87236 0.0
H1668 H 0.32427 0.03745 0.85618 0.0
H1669 H 0.3005 0.98574 0.85276 0.0
H1670 H 0.2647 0.02606 0.11588 0.0
H1671 H 0.24217 0.9746 0.11367 0.0
H1672 H 0.26545 0.071 0.06669 0.0
H1673 H 0.29463 0.09993 0.01148 0.0
C1674 C 0.96247 0.23278 0.04421 0.0
C1675 C 0.95643 0.23405 0.98697 0.0
C1676 C 0.02781 0.27327 0.97178 0.0
C1677 C 0.03313 0.27815 0.02971 0.0
N1678 N 0.00532 0.26559 0.12173 0.0
N1679 N 0.98238 0.25715 0.89561 0.0
C1680 C 1.0005 0.25832 0.06632 0.0
C1681 C 0.98884 0.25431 0.95031 0.0
N1682 N 0.93175 0.20699 0.0771 0.0
N1683 N 0.05993 0.2861 0.93755 0.0
H1684 H 0.95413 0.24302 0.87806 0.0
H1685 H 0.0048 0.2757 0.86833 0.0
H1686 H 0.08896 0.29974 0.95213 0.0
H1687 H 0.05765 0.27988 0.89553 0.0
H1688 H 0.93509 0.20211 0.11839 0.0
H1689 H 0.90373 0.18748 0.06124 0.0
H1690 H 0.98165 0.25512 0.14945 0.0
H1691 H 0.03267 0.28487 0.13975 0.0
C1692 C 0.32607 0.3051 0.02881 0.0
C1693 C 0.35594 0.31825 0.98719 0.0
C1694 C 0.34545 0.37436 0.96676 0.0
C1695 C 0.31666 0.36188 0.00987 0.0
N1696 N 0.28422 0.31943 0.08763 0.0
N1697 N 0.39647 0.36677 0.9192 0.0
C1698 C 0.30832 0.32837 0.04238 0.0
C1699 C 0.36666 0.35362 0.95746 0.0
N1700 N 0.31373 0.26969 0.05476 0.0
N1701 N 0.35059 0.40431 0.93227 0.0
H1702 H 0.40966 0.35025 0.90766 0.0
H1703 H 0.40936 0.39458 0.90064 0.0
H1704 H 0.33584 0.42022 0.93742 0.0
H1705 H 0.36749 0.41197 0.89631 0.0
H1706 H 0.28745 0.25513 0.07742 0.0
H1707 H 0.3281 0.25334 0.05081 0.0
H1708 H 0.28081 0.29863 0.1172 0.0
H1709 H 0.27002 0.33518 0.09825 0.0
C1710 C 0.66692 0.9801 0.04787 0.0
C1711 C 0.63554 0.95572 0.01143 0.0
C1712 C 0.64568 0.01505 0.96149 0.0
C1713 C 0.67662 0.03925 0.99855 0.0
N1714 N 0.70887 0.04586 0.08574 0.0
N1715 N 0.59013 0.94969 0.9396 0.0
C1716 C 0.68482 0.02205 0.04445 0.0
C1717 C 0.62305 0.97319 0.97054 0.0
N1718 N 0.6805 0.96323 0.08477 0.0
N1719 N 0.63949 0.0318 0.91598 0.0
H1720 H 0.57394 0.91887 0.94321 0.0
H1721 H 0.57707 0.96077 0.91312 0.0
H1722 H 0.65578 0.06218 0.90803 0.0
H1723 H 0.62024 0.0156 0.88422 0.0
H1724 H 0.70636 0.97945 0.10767 0.0
H1725 H 0.66737 0.93264 0.09006 0.0
H1726 H 0.7128 0.03499 0.12288 0.0
H1727 H 0.72175 0.07669 0.08539 0.0
C1728 C 0.97655 0.61759 0.02397 0.0
C1729 C 0.95831 0.63196 0.98724 0.0
C1730 C 0.02436 0.68579 0.9592 0.0
C1731 C 0.04191 0.67636 1.0036 0.0
N1732 N 0.03491 0.63184 0.0773 0.0
N1733 N 0.96446 0.67931 0.91876 0.0
C1734 C 0.01821 0.64133 0.03499 0.0
C1735 C 0.9822 0.66581 0.95427 0.0
N1736 N 0.95396 0.58159 0.04904 0.0
N1737 N 0.04815 0.71267 0.92022 0.0
H1738 H 0.93394 0.66386 0.91116 0.0
H1739 H 0.97964 0.70666 0.89889 0.0
H1740 H 0.07906 0.72584 0.9203 0.0
H1741 H 0.03735 0.71864 0.88456 0.0
H1742 H 0.96576 0.56727 0.07157 0.0
H1743 H 0.92335 0.56414 0.04362 0.0
H1744 H 0.01865 0.60942 0.10568 0.0
H1745 H 0.06511 0.64779 0.08616 0.0
loop_
_geom_bond_atom_site_label_1
_geom_bond_atom_site_label_2
_geom_bond_distance
_geom_bond_site_symmetry_2
_ccdc_geom_bond_type
Zn0 N4 2.020 . S
Zn0 O8 2.019 . S
Zn0 N10 2.119 . S
Zn0 O18 1.975 . S
C1 N2 1.334 . S
C1 N5 1.336 . S
N2 C1 1.334 . S
N2 C3 1.334 . S
C3 N2 1.334 . S
C3 N4 1.336 . S
N4 Zn0 2.020 . S
N4 C3 1.336 . S
N4 N5 1.354 . S
N5 C1 1.336 . S
N5 N4 1.354 . S
N5 Zn9 2.020 . S
C6 O7 1.244 . S
C6 O30 1.257 . S
O7 C6 1.244 . S
O8 Zn0 2.019 . S
O8 C28 1.257 . S
Zn9 N5 2.020 . S
Zn9 O16 1.975 . S
Zn9 N25 2.119 . S
Zn9 O30 2.019 . S
N10 Zn0 2.119 . S
N10 C12 1.334 . S
N10 C13 1.328 . S
C11 C12 1.391 . S
C11 N14 1.329 . S
C11 H32 0.930 . S
C12 N10 1.334 . S
C12 C11 1.391 . S
C12 H19 0.930 . S
C13 N10 1.328 . S
C13 C15 1.392 . S
C13 H20 0.930 . S
N14 C11 1.329 . S
N14 C15 1.331 . S
C15 C13 1.392 . S
C15 N14 1.331 . S
O16 Zn9 1.975 . S
O16 C17 1.252 . S
C17 O16 1.252 . S
C17 O18 1.252 . S
O18 Zn0 1.975 . S
O18 C17 1.252 . S
H19 C12 0.930 . S
H20 C13 0.930 . S
C21 C22 1.392 . S
C21 N25 1.328 . S
C21 H27 0.930 . S
C22 C21 1.392 . S
C22 N26 1.331 . S
C23 C24 1.391 . S
C23 N26 1.329 . S
C23 H33 0.930 . S
C24 C23 1.391 . S
C24 N25 1.334 . S
C24 H31 0.930 . S
N25 Zn9 2.119 . S
N25 C21 1.328 . S
N25 C24 1.334 . S
N26 C22 1.331 . S
N26 C23 1.329 . S
H27 C21 0.930 . S
C28 O8 1.257 . S
C28 O29 1.244 . S
O29 C28 1.244 . S
O30 C6 1.257 . S
O30 Zn9 2.019 . S
H31 C24 0.930 . S
H32 C11 0.930 . S
H33 C23 0.930 . S
Zn34 N38 2.020 . S
Zn34 O42 2.019 . S
Zn34 N44 2.119 . S
Zn34 O52 1.975 . S
C35 N36 1.334 . S
C35 N39 1.336 . S
N36 C35 1.334 . S
N36 C37 1.334 . S
C37 N36 1.334 . S
C37 N38 1.336 . S
N38 Zn34 2.020 . S
N38 C37 1.336 . S
N38 N39 1.354 . S
N39 C35 1.336 . S
N39 N38 1.354 . S
N39 Zn43 2.020 . S
C40 O41 1.244 . S
C40 O64 1.257 . S
O41 C40 1.244 . S
O42 Zn34 2.019 . S
O42 C62 1.257 . S
Zn43 N39 2.020 . S
Zn43 O50 1.975 . S
Zn43 N59 2.119 . S
Zn43 O64 2.019 . S
N44 Zn34 2.119 . S
N44 C46 1.334 . S
N44 C47 1.328 . S
C45 C46 1.391 . S
C45 N48 1.329 . S
C45 H66 0.930 . S
C46 N44 1.334 . S
C46 C45 1.391 . S
C46 H53 0.930 . S
C47 N44 1.328 . S
C47 C49 1.392 . S
C47 H54 0.930 . S
N48 C45 1.329 . S
N48 C49 1.331 . S
C49 C47 1.392 . S
C49 N48 1.331 . S
O50 Zn43 1.975 . S
O50 C51 1.252 . S
C51 O50 1.252 . S
C51 O52 1.252 . S
O52 Zn34 1.975 . S
O52 C51 1.252 . S
H53 C46 0.930 . S
H54 C47 0.930 . S
C55 C56 1.392 . S
C55 N59 1.328 1_565 S
C55 H61 0.930 . S
C56 C55 1.392 . S
C56 N60 1.331 . S
C57 C58 1.391 1_565 S
C57 N60 1.329 . S
C57 H67 0.930 1_565 S
C58 C57 1.391 1_545 S
C58 N59 1.334 . S
C58 H65 0.930 . S
N59 Zn43 2.119 . S
N59 C55 1.328 1_545 S
N59 C58 1.334 . S
N60 C56 1.331 . S
N60 C57 1.329 . S
H61 C55 0.930 . S
C62 O42 1.257 . S
C62 O63 1.244 . S
O63 C62 1.244 . S
O64 C40 1.257 . S
O64 Zn43 2.019 . S
H65 C58 0.930 . S
H66 C45 0.930 . S
H67 C57 0.930 1_545 S
Zn68 N72 2.020 . S
Zn68 O76 2.019 . S
Zn68 N78 2.119 . S
Zn68 O86 1.975 . S
C69 N70 1.334 . S
C69 N73 1.336 . S
N70 C69 1.334 . S
N70 C71 1.334 . S
C71 N70 1.334 . S
C71 N72 1.336 . S
N72 Zn68 2.020 . S
N72 C71 1.336 . S
N72 N73 1.354 . S
N73 C69 1.336 . S
N73 N72 1.354 . S
N73 Zn77 2.020 . S
C74 O75 1.244 . S
C74 O98 1.257 . S
O75 C74 1.244 . S
O76 Zn68 2.019 . S
O76 C96 1.257 . S
Zn77 N73 2.020 . S
Zn77 O84 1.975 . S
Zn77 N93 2.119 . S
Zn77 O98 2.019 . S
N78 Zn68 2.119 . S
N78 C80 1.334 . S
N78 C81 1.328 1_655 S
C79 C80 1.391 1_455 S
C79 N82 1.329 . S
C79 H100 0.930 1_455 S
C80 N78 1.334 . S
C80 C79 1.391 1_655 S
C80 H87 0.930 . S
C81 N78 1.328 1_455 S
C81 C83 1.392 . S
C81 H88 0.930 . S
N82 C79 1.329 . S
N82 C83 1.331 . S
C83 C81 1.392 . S
C83 N82 1.331 . S
O84 Zn77 1.975 . S
O84 C85 1.252 . S
C85 O84 1.252 . S
C85 O86 1.252 . S
O86 Zn68 1.975 . S
O86 C85 1.252 . S
H87 C80 0.930 . S
H88 C81 0.930 . S
C89 C90 1.392 . S
C89 N93 1.328 . S
C89 H95 0.930 . S
C90 C89 1.392 . S
C90 N94 1.331 . S
C91 C92 1.391 . S
C91 N94 1.329 . S
C91 H101 0.930 . S
C92 C91 1.391 . S
C92 N93 1.334 . S
C92 H99 0.930 . S
N93 Zn77 2.119 . S
N93 C89 1.328 . S
N93 C92 1.334 . S
N94 C90 1.331 . S
N94 C91 1.329 . S
H95 C89 0.930 . S
C96 O76 1.257 . S
C96 O97 1.244 . S
O97 C96 1.244 . S
O98 C74 1.257 . S
O98 Zn77 2.019 . S
H99 C92 0.930 . S
H100 C79 0.930 1_655 S
H101 C91 0.930 . S
Zn102 N106 2.020 . S
Zn102 O110 2.019 . S
Zn102 N112 2.119 . S
Zn102 O120 1.975 . S
C103 N104 1.334 . S
C103 N107 1.336 . S
N104 C103 1.334 . S
N104 C105 1.334 . S
C105 N104 1.334 . S
C105 N106 1.336 . S
N106 Zn102 2.020 . S
N106 C105 1.336 . S
N106 N107 1.354 . S
N107 C103 1.336 . S
N107 N106 1.354 . S
N107 Zn111 2.020 . S
C108 O109 1.244 . S
C108 O132 1.257 . S
O109 C108 1.244 . S
O110 Zn102 2.019 . S
O110 C130 1.257 . S
Zn111 N107 2.020 . S
Zn111 O118 1.975 . S
Zn111 N127 2.119 . S
Zn111 O132 2.019 . S
N112 Zn102 2.119 . S
N112 C114 1.334 . S
N112 C115 1.328 . S
C113 C114 1.391 . S
C113 N116 1.329 . S
C113 H134 0.930 . S
C114 N112 1.334 . S
C114 C113 1.391 . S
C114 H121 0.930 . S
C115 N112 1.328 . S
C115 C117 1.392 . S
C115 H122 0.930 . S
N116 C113 1.329 . S
N116 C117 1.331 . S
C117 C115 1.392 . S
C117 N116 1.331 . S
O118 Zn111 1.975 . S
O118 C119 1.252 . S
C119 O118 1.252 . S
C119 O120 1.252 . S
O120 Zn102 1.975 . S
O120 C119 1.252 . S
H121 C114 0.930 . S
H122 C115 0.930 . S
C123 C124 1.392 . S
C123 N127 1.328 . S
C123 H129 0.930 . S
C124 C123 1.392 . S
C124 N128 1.331 . S
C125 C126 1.391 . S
C125 N128 1.329 . S
C125 H135 0.930 . S
C126 C125 1.391 . S
C126 N127 1.334 . S
C126 H133 0.930 . S
N127 Zn111 2.119 . S
N127 C123 1.328 . S
N127 C126 1.334 . S
N128 C124 1.331 . S
N128 C125 1.329 . S
H129 C123 0.930 . S
C130 O110 1.257 . S
C130 O131 1.244 . S
O131 C130 1.244 . S
O132 C108 1.257 . S
O132 Zn111 2.019 . S
H133 C126 0.930 . S
H134 C113 0.930 . S
H135 C125 0.930 . S
Zn136 N140 2.020 . S
Zn136 O144 2.019 . S
Zn136 N146 2.119 . S
Zn136 O154 1.975 . S
C137 N138 1.334 . S
C137 N141 1.336 . S
N138 C137 1.334 . S
N138 C139 1.334 . S
C139 N138 1.334 . S
C139 N140 1.336 . S
N140 Zn136 2.020 . S
N140 C139 1.336 . S
N140 N141 1.354 . S
N141 C137 1.336 . S
N141 N140 1.354 . S
N141 Zn145 2.020 . S
C142 O143 1.244 . S
C142 O166 1.257 . S
O143 C142 1.244 . S
O144 Zn136 2.019 . S
O144 C164 1.257 . S
Zn145 N141 2.020 . S
Zn145 O152 1.975 . S
Zn145 N161 2.119 . S
Zn145 O166 2.019 . S
N146 Zn136 2.119 . S
N146 C148 1.334 . S
N146 C149 1.328 . S
C147 C148 1.391 . S
C147 N150 1.329 . S
C147 H168 0.930 . S
C148 N146 1.334 . S
C148 C147 1.391 . S
C148 H155 0.930 . S
C149 N146 1.328 . S
C149 C151 1.392 . S
C149 H156 0.930 . S
N150 C147 1.329 . S
N150 C151 1.331 . S
C151 C149 1.392 . S
C151 N150 1.331 . S
O152 Zn145 1.975 . S
O152 C153 1.252 . S
C153 O152 1.252 . S
C153 O154 1.252 . S
O154 Zn136 1.975 . S
O154 C153 1.252 . S
H155 C148 0.930 . S
H156 C149 0.930 . S
C157 C158 1.392 . S
C157 N161 1.328 1_545 S
C157 H163 0.930 . S
C158 C157 1.392 . S
C158 N162 1.331 . S
C159 C160 1.391 1_545 S
C159 N162 1.329 . S
C159 H169 0.930 1_545 S
C160 C159 1.391 1_565 S
C160 N161 1.334 . S
C160 H167 0.930 . S
N161 Zn145 2.119 . S
N161 C157 1.328 1_565 S
N161 C160 1.334 . S
N162 C158 1.331 . S
N162 C159 1.329 . S
H163 C157 0.930 . S
C164 O144 1.257 . S
C164 O165 1.244 . S
O165 C164 1.244 . S
O166 C142 1.257 . S
O166 Zn145 2.019 . S
H167 C160 0.930 . S
H168 C147 0.930 . S
H169 C159 0.930 1_565 S
Zn170 N174 2.020 . S
Zn170 O178 2.019 . S
Zn170 N180 2.119 . S
Zn170 O188 1.975 . S
C171 N172 1.334 . S
C171 N175 1.336 . S
N172 C171 1.334 . S
N172 C173 1.334 . S
C173 N172 1.334 . S
C173 N174 1.336 . S
N174 Zn170 2.020 . S
N174 C173 1.336 . S
N174 N175 1.354 . S
N175 C171 1.336 . S
N175 N174 1.354 . S
N175 Zn179 2.020 . S
C176 O177 1.244 . S
C176 O200 1.257 . S
O177 C176 1.244 . S
O178 Zn170 2.019 . S
O178 C198 1.257 . S
Zn179 N175 2.020 . S
Zn179 O186 1.975 . S
Zn179 N195 2.119 . S
Zn179 O200 2.019 . S
N180 Zn170 2.119 . S
N180 C182 1.334 . S
N180 C183 1.328 . S
C181 C182 1.391 . S
C181 N184 1.329 . S
C181 H202 0.930 . S
C182 N180 1.334 . S
C182 C181 1.391 . S
C182 H189 0.930 . S
C183 N180 1.328 . S
C183 C185 1.392 . S
C183 H190 0.930 . S
N184 C181 1.329 . S
N184 C185 1.331 . S
C185 C183 1.392 . S
C185 N184 1.331 . S
O186 Zn179 1.975 . S
O186 C187 1.252 . S
C187 O186 1.252 . S
C187 O188 1.252 . S
O188 Zn170 1.975 . S
O188 C187 1.252 . S
H189 C182 0.930 . S
H190 C183 0.930 . S
C191 C192 1.392 . S
C191 N195 1.328 1_655 S
C191 H197 0.930 . S
C192 C191 1.392 . S
C192 N196 1.331 . S
C193 C194 1.391 1_655 S
C193 N196 1.329 . S
C193 H203 0.930 1_655 S
C194 C193 1.391 1_455 S
C194 N195 1.334 . S
C194 H201 0.930 . S
N195 Zn179 2.119 . S
N195 C191 1.328 1_455 S
N195 C194 1.334 . S
N196 C192 1.331 . S
N196 C193 1.329 . S
H197 C191 0.930 . S
C198 O178 1.257 . S
C198 O199 1.244 . S
O199 C198 1.244 . S
O200 C176 1.257 . S
O200 Zn179 2.019 . S
H201 C194 0.930 . S
H202 C181 0.930 . S
H203 C193 0.930 1_455 S
Zn204 N208 2.020 . S
Zn204 O212 2.019 . S
Zn204 N214 2.119 . S
Zn204 O222 1.975 . S
C205 N206 1.334 . S
C205 N209 1.336 . S
N206 C205 1.334 . S
N206 C207 1.334 . S
C207 N206 1.334 . S
C207 N208 1.336 . S
N208 Zn204 2.020 . S
N208 C207 1.336 . S
N208 N209 1.354 . S
N209 C205 1.336 . S
N209 N208 1.354 . S
N209 Zn213 2.020 . S
C210 O211 1.244 . S
C210 O234 1.257 . S
O211 C210 1.244 . S
O212 Zn204 2.019 . S
O212 C232 1.257 . S
Zn213 N209 2.020 . S
Zn213 O220 1.975 . S
Zn213 N229 2.119 . S
Zn213 O234 2.019 . S
N214 Zn204 2.119 . S
N214 C216 1.334 . S
N214 C217 1.328 . S
C215 C216 1.391 . S
C215 N218 1.329 . S
C215 H236 0.930 . S
C216 N214 1.334 . S
C216 C215 1.391 . S
C216 H223 0.930 . S
C217 N214 1.328 . S
C217 C219 1.392 . S
C217 H224 0.930 . S
N218 C215 1.329 . S
N218 C219 1.331 . S
C219 C217 1.392 . S
C219 N218 1.331 . S
O220 Zn213 1.975 . S
O220 C221 1.252 . S
C221 O220 1.252 . S
C221 O222 1.252 . S
O222 Zn204 1.975 . S
O222 C221 1.252 . S
H223 C216 0.930 . S
H224 C217 0.930 . S
C225 C226 1.392 1_655 S
C225 N229 1.328 . S
C225 H231 0.930 . S
C226 C225 1.392 1_455 S
C226 N230 1.331 . S
C227 C228 1.391 1_455 S
C227 N230 1.329 . S
C227 H237 0.930 . S
C228 C227 1.391 1_655 S
C228 N229 1.334 . S
C228 H235 0.930 . S
N229 Zn213 2.119 . S
N229 C225 1.328 . S
N229 C228 1.334 . S
N230 C226 1.331 . S
N230 C227 1.329 . S
H231 C225 0.930 . S
C232 O212 1.257 . S
C232 O233 1.244 . S
O233 C232 1.244 . S
O234 C210 1.257 . S
O234 Zn213 2.019 . S
H235 C228 0.930 . S
H236 C215 0.930 . S
H237 C227 0.930 . S
Zn238 N242 2.020 . S
Zn238 O246 2.019 . S
Zn238 N248 2.119 . S
Zn238 O256 1.975 . S
C239 N240 1.334 . S
C239 N243 1.336 . S
N240 C239 1.334 . S
N240 C241 1.334 . S
C241 N240 1.334 . S
C241 N242 1.336 . S
N242 Zn238 2.020 . S
N242 C241 1.336 . S
N242 N243 1.354 . S
N243 C239 1.336 . S
N243 N242 1.354 . S
N243 Zn247 2.020 . S
C244 O245 1.244 . S
C244 O268 1.257 . S
O245 C244 1.244 . S
O246 Zn238 2.019 . S
O246 C266 1.257 . S
Zn247 N243 2.020 . S
Zn247 O254 1.975 . S
Zn247 N263 2.119 . S
Zn247 O268 2.019 . S
N248 Zn238 2.119 . S
N248 C250 1.334 . S
N248 C251 1.328 . S
C249 C250 1.391 . S
C249 N252 1.329 . S
C249 H270 0.930 . S
C250 N248 1.334 . S
C250 C249 1.391 . S
C250 H257 0.930 . S
C251 N248 1.328 . S
C251 C253 1.392 . S
C251 H258 0.930 . S
N252 C249 1.329 . S
N252 C253 1.331 . S
C253 C251 1.392 . S
C253 N252 1.331 . S
O254 Zn247 1.975 . S
O254 C255 1.252 . S
C255 O254 1.252 . S
C255 O256 1.252 . S
O256 Zn238 1.975 . S
O256 C255 1.252 . S
H257 C250 0.930 . S
H258 C251 0.930 . S
C259 C260 1.392 . S
C259 N263 1.328 . S
C259 H265 0.930 . S
C260 C259 1.392 . S
C260 N264 1.331 . S
C261 C262 1.391 . S
C261 N264 1.329 . S
C261 H271 0.930 . S
C262 C261 1.391 . S
C262 N263 1.334 . S
C262 H269 0.930 . S
N263 Zn247 2.119 . S
N263 C259 1.328 . S
N263 C262 1.334 . S
N264 C260 1.331 . S
N264 C261 1.329 . S
H265 C259 0.930 . S
C266 O246 1.257 . S
C266 O267 1.244 . S
O267 C266 1.244 . S
O268 C244 1.257 . S
O268 Zn247 2.019 . S
H269 C262 0.930 . S
H270 C249 0.930 . S
H271 C261 0.930 . S
Zn272 N276 2.020 . S
Zn272 O280 2.019 . S
Zn272 N282 2.119 . S
Zn272 O290 1.975 . S
C273 N274 1.334 . S
C273 N277 1.336 . S
N274 C273 1.334 . S
N274 C275 1.334 . S
C275 N274 1.334 . S
C275 N276 1.336 . S
N276 Zn272 2.020 . S
N276 C275 1.336 . S
N276 N277 1.354 . S
N277 C273 1.336 . S
N277 N276 1.354 . S
N277 Zn281 2.020 . S
C278 O279 1.244 . S
C278 O302 1.257 . S
O279 C278 1.244 . S
O280 Zn272 2.019 . S
O280 C300 1.257 . S
Zn281 N277 2.020 . S
Zn281 O288 1.975 . S
Zn281 N297 2.119 . S
Zn281 O302 2.019 . S
N282 Zn272 2.119 . S
N282 C284 1.334 . S
N282 C285 1.328 . S
C283 C284 1.391 . S
C283 N286 1.329 . S
C283 H304 0.930 . S
C284 N282 1.334 . S
C284 C283 1.391 . S
C284 H291 0.930 . S
C285 N282 1.328 . S
C285 C287 1.392 . S
C285 H292 0.930 . S
N286 C283 1.329 . S
N286 C287 1.331 . S
C287 C285 1.392 . S
C287 N286 1.331 . S
O288 Zn281 1.975 . S
O288 C289 1.252 . S
C289 O288 1.252 . S
C289 O290 1.252 . S
O290 Zn272 1.975 . S
O290 C289 1.252 . S
H291 C284 0.930 . S
H292 C285 0.930 . S
C293 C294 1.392 1_545 S
C293 N297 1.328 . S
C293 H299 0.930 . S
C294 C293 1.392 1_565 S
C294 N298 1.331 . S
C295 C296 1.391 1_565 S
C295 N298 1.329 . S
C295 H305 0.930 . S
C296 C295 1.391 1_545 S
C296 N297 1.334 . S
C296 H303 0.930 . S
N297 Zn281 2.119 . S
N297 C293 1.328 . S
N297 C296 1.334 . S
N298 C294 1.331 . S
N298 C295 1.329 . S
H299 C293 0.930 . S
C300 O280 1.257 . S
C300 O301 1.244 . S
O301 C300 1.244 . S
O302 C278 1.257 . S
O302 Zn281 2.019 . S
H303 C296 0.930 . S
H304 C283 0.930 . S
H305 C295 0.930 . S
Zn306 N310 2.020 1_554 S
Zn306 O314 2.019 . S
Zn306 N316 2.119 1_554 S
Zn306 O324 1.975 . S
C307 N308 1.334 . S
C307 N311 1.336 . S
N308 C307 1.334 . S
N308 C309 1.334 . S
C309 N308 1.334 . S
C309 N310 1.336 . S
N310 Zn306 2.020 1_556 S
N310 C309 1.336 . S
N310 N311 1.354 . S
N311 C307 1.336 . S
N311 N310 1.354 . S
N311 Zn315 2.020 1_556 S
C312 O313 1.244 . S
C312 O336 1.257 1_556 S
O313 C312 1.244 . S
O314 Zn306 2.019 . S
O314 C334 1.257 . S
Zn315 N311 2.020 1_554 S
Zn315 O322 1.975 . S
Zn315 N331 2.119 . S
Zn315 O336 2.019 . S
N316 Zn306 2.119 1_556 S
N316 C318 1.334 . S
N316 C319 1.328 . S
C317 C318 1.391 . S
C317 N320 1.329 . S
C317 H338 0.930 . S
C318 N316 1.334 . S
C318 C317 1.391 . S
C318 H325 0.930 . S
C319 N316 1.328 . S
C319 C321 1.392 . S
C319 H326 0.930 1_556 S
N320 C317 1.329 . S
N320 C321 1.331 . S
C321 C319 1.392 . S
C321 N320 1.331 . S
O322 Zn315 1.975 . S
O322 C323 1.252 . S
C323 O322 1.252 . S
C323 O324 1.252 . S
O324 Zn306 1.975 . S
O324 C323 1.252 . S
H325 C318 0.930 . S
H326 C319 0.930 1_554 S
C327 C328 1.392 . S
C327 N331 1.328 . S
C327 H333 0.930 . S
C328 C327 1.392 . S
C328 N332 1.331 . S
C329 C330 1.391 . S
C329 N332 1.329 . S
C329 H339 0.930 . S
C330 C329 1.391 . S
C330 N331 1.334 . S
C330 H337 0.930 . S
N331 Zn315 2.119 . S
N331 C327 1.328 . S
N331 C330 1.334 . S
N332 C328 1.331 . S
N332 C329 1.329 . S
H333 C327 0.930 . S
C334 O314 1.257 . S
C334 O335 1.244 . S
O335 C334 1.244 . S
O336 C312 1.257 1_554 S
O336 Zn315 2.019 . S
H337 C330 0.930 . S
H338 C317 0.930 . S
H339 C329 0.930 . S
Zn340 N344 2.020 1_554 S
Zn340 O348 2.019 . S
Zn340 N350 2.119 . S
Zn340 O358 1.975 . S
C341 N342 1.334 . S
C341 N345 1.336 . S
N342 C341 1.334 . S
N342 C343 1.334 . S
C343 N342 1.334 . S
C343 N344 1.336 . S
N344 Zn340 2.020 1_556 S
N344 C343 1.336 . S
N344 N345 1.354 . S
N345 C341 1.336 . S
N345 N344 1.354 . S
N345 Zn349 2.020 1_556 S
C346 O347 1.244 . S
C346 O370 1.257 . S
O347 C346 1.244 . S
O348 Zn340 2.019 . S
O348 C368 1.257 1_554 S
Zn349 N345 2.020 1_554 S
Zn349 O356 1.975 . S
Zn349 N365 2.119 1_554 S
Zn349 O370 2.019 . S
N350 Zn340 2.119 . S
N350 C352 1.334 . S
N350 C353 1.328 . S
C351 C352 1.391 . S
C351 N354 1.329 . S
C351 H372 0.930 . S
C352 N350 1.334 . S
C352 C351 1.391 . S
C352 H359 0.930 . S
C353 N350 1.328 . S
C353 C355 1.392 . S
C353 H360 0.930 . S
N354 C351 1.329 . S
N354 C355 1.331 . S
C355 C353 1.392 . S
C355 N354 1.331 . S
O356 Zn349 1.975 . S
O356 C357 1.252 . S
C357 O356 1.252 . S
C357 O358 1.252 . S
O358 Zn340 1.975 . S
O358 C357 1.252 . S
H359 C352 0.930 . S
H360 C353 0.930 . S
C361 C362 1.392 . S
C361 N365 1.328 . S
C361 H367 0.930 1_556 S
C362 C361 1.392 . S
C362 N366 1.331 . S
C363 C364 1.391 . S
C363 N366 1.329 . S
C363 H373 0.930 . S
C364 C363 1.391 . S
C364 N365 1.334 . S
C364 H371 0.930 . S
N365 Zn349 2.119 1_556 S
N365 C361 1.328 . S
N365 C364 1.334 . S
N366 C362 1.331 . S
N366 C363 1.329 . S
H367 C361 0.930 1_554 S
C368 O348 1.257 1_556 S
C368 O369 1.244 . S
O369 C368 1.244 . S
O370 C346 1.257 . S
O370 Zn349 2.019 . S
H371 C364 0.930 . S
H372 C351 0.930 . S
H373 C363 0.930 . S
Zn374 N378 2.020 1_554 S
Zn374 O382 2.019 . S
Zn374 N384 2.119 . S
Zn374 O392 1.975 . S
C375 N376 1.334 . S
C375 N379 1.336 . S
N376 C375 1.334 . S
N376 C377 1.334 . S
C377 N376 1.334 . S
C377 N378 1.336 . S
N378 Zn374 2.020 1_556 S
N378 C377 1.336 . S
N378 N379 1.354 . S
N379 C375 1.336 . S
N379 N378 1.354 . S
N379 Zn383 2.020 1_556 S
C380 O381 1.244 . S
C380 O404 1.257 . S
O381 C380 1.244 . S
O382 Zn374 2.019 . S
O382 C402 1.257 1_554 S
Zn383 N379 2.020 1_554 S
Zn383 O390 1.975 . S
Zn383 N399 2.119 1_554 S
Zn383 O404 2.019 . S
N384 Zn374 2.119 . S
N384 C386 1.334 . S
N384 C387 1.328 . S
C385 C386 1.391 . S
C385 N388 1.329 . S
C385 H406 0.930 . S
C386 N384 1.334 . S
C386 C385 1.391 . S
C386 H393 0.930 . S
C387 N384 1.328 . S
C387 C389 1.392 . S
C387 H394 0.930 . S
N388 C385 1.329 . S
N388 C389 1.331 . S
C389 C387 1.392 . S
C389 N388 1.331 . S
O390 Zn383 1.975 . S
O390 C391 1.252 . S
C391 O390 1.252 . S
C391 O392 1.252 . S
O392 Zn374 1.975 . S
O392 C391 1.252 . S
H393 C386 0.930 . S
H394 C387 0.930 . S
C395 C396 1.392 . S
C395 N399 1.328 . S
C395 H401 0.930 1_556 S
C396 C395 1.392 . S
C396 N400 1.331 . S
C397 C398 1.391 . S
C397 N400 1.329 . S
C397 H407 0.930 . S
C398 C397 1.391 . S
C398 N399 1.334 . S
C398 H405 0.930 . S
N399 Zn383 2.119 1_556 S
N399 C395 1.328 . S
N399 C398 1.334 . S
N400 C396 1.331 . S
N400 C397 1.329 . S
H401 C395 0.930 1_554 S
C402 O382 1.257 1_556 S
C402 O403 1.244 . S
O403 C402 1.244 . S
O404 C380 1.257 . S
O404 Zn383 2.019 . S
H405 C398 0.930 . S
H406 C385 0.930 . S
H407 C397 0.930 . S
Zn408 N412 2.020 1_556 S
Zn408 O416 2.019 . S
Zn408 N418 2.119 . S
Zn408 O426 1.975 . S
C409 N410 1.334 . S
C409 N413 1.336 . S
N410 C409 1.334 . S
N410 C411 1.334 . S
C411 N410 1.334 . S
C411 N412 1.336 . S
N412 Zn408 2.020 1_554 S
N412 C411 1.336 . S
N412 N413 1.354 . S
N413 C409 1.336 . S
N413 N412 1.354 . S
N413 Zn417 2.020 1_554 S
C414 O415 1.244 . S
C414 O438 1.257 . S
O415 C414 1.244 . S
O416 Zn408 2.019 . S
O416 C436 1.257 1_556 S
Zn417 N413 2.020 1_556 S
Zn417 O424 1.975 . S
Zn417 N433 2.119 1_556 S
Zn417 O438 2.019 . S
N418 Zn408 2.119 . S
N418 C420 1.334 . S
N418 C421 1.328 . S
C419 C420 1.391 . S
C419 N422 1.329 . S
C419 H440 0.930 . S
C420 N418 1.334 . S
C420 C419 1.391 . S
C420 H427 0.930 . S
C421 N418 1.328 . S
C421 C423 1.392 . S
C421 H428 0.930 . S
N422 C419 1.329 . S
N422 C423 1.331 . S
C423 C421 1.392 . S
C423 N422 1.331 . S
O424 Zn417 1.975 . S
O424 C425 1.252 . S
C425 O424 1.252 . S
C425 O426 1.252 . S
O426 Zn408 1.975 . S
O426 C425 1.252 . S
H427 C420 0.930 . S
H428 C421 0.930 . S
C429 C430 1.392 . S
C429 N433 1.328 . S
C429 H435 0.930 1_554 S
C430 C429 1.392 . S
C430 N434 1.331 . S
C431 C432 1.391 . S
C431 N434 1.329 . S
C431 H441 0.930 . S
C432 C431 1.391 . S
C432 N433 1.334 . S
C432 H439 0.930 . S
N433 Zn417 2.119 1_554 S
N433 C429 1.328 . S
N433 C432 1.334 . S
N434 C430 1.331 . S
N434 C431 1.329 . S
H435 C429 0.930 1_556 S
C436 O416 1.257 1_554 S
C436 O437 1.244 . S
O437 C436 1.244 . S
O438 C414 1.257 . S
O438 Zn417 2.019 . S
H439 C432 0.930 . S
H440 C419 0.930 . S
H441 C431 0.930 . S
Zn442 N446 2.020 1_556 S
Zn442 O450 2.019 . S
Zn442 N452 2.119 1_556 S
Zn442 O460 1.975 . S
C443 N444 1.334 . S
C443 N447 1.336 . S
N444 C443 1.334 . S
N444 C445 1.334 . S
C445 N444 1.334 . S
C445 N446 1.336 . S
N446 Zn442 2.020 1_554 S
N446 C445 1.336 . S
N446 N447 1.354 . S
N447 C443 1.336 . S
N447 N446 1.354 . S
N447 Zn451 2.020 1_554 S
C448 O449 1.244 . S
C448 O472 1.257 1_554 S
O449 C448 1.244 . S
O450 Zn442 2.019 . S
O450 C470 1.257 . S
Zn451 N447 2.020 1_556 S
Zn451 O458 1.975 . S
Zn451 N467 2.119 . S
Zn451 O472 2.019 . S
N452 Zn442 2.119 1_554 S
N452 C454 1.334 . S
N452 C455 1.328 . S
C453 C454 1.391 . S
C453 N456 1.329 . S
C453 H474 0.930 . S
C454 N452 1.334 . S
C454 C453 1.391 . S
C454 H461 0.930 . S
C455 N452 1.328 . S
C455 C457 1.392 . S
C455 H462 0.930 1_554 S
N456 C453 1.329 . S
N456 C457 1.331 . S
C457 C455 1.392 . S
C457 N456 1.331 . S
O458 Zn451 1.975 . S
O458 C459 1.252 . S
C459 O458 1.252 . S
C459 O460 1.252 . S
O460 Zn442 1.975 . S
O460 C459 1.252 . S
H461 C454 0.930 . S
H462 C455 0.930 1_556 S
C463 C464 1.392 . S
C463 N467 1.328 . S
C463 H469 0.930 . S
C464 C463 1.392 . S
C464 N468 1.331 . S
C465 C466 1.391 . S
C465 N468 1.329 . S
C465 H475 0.930 . S
C466 C465 1.391 . S
C466 N467 1.334 . S
C466 H473 0.930 . S
N467 Zn451 2.119 . S
N467 C463 1.328 . S
N467 C466 1.334 . S
N468 C464 1.331 . S
N468 C465 1.329 . S
H469 C463 0.930 . S
C470 O450 1.257 . S
C470 O471 1.244 . S
O471 C470 1.244 . S
O472 C448 1.257 1_556 S
O472 Zn451 2.019 . S
H473 C466 0.930 . S
H474 C453 0.930 . S
H475 C465 0.930 . S
Zn476 N480 2.020 1_556 S
Zn476 O484 2.019 . S
Zn476 N486 2.119 1_556 S
Zn476 O494 1.975 . S
C477 N478 1.334 . S
C477 N481 1.336 . S
N478 C477 1.334 . S
N478 C479 1.334 . S
C479 N478 1.334 . S
C479 N480 1.336 . S
N480 Zn476 2.020 1_554 S
N480 C479 1.336 . S
N480 N481 1.354 . S
N481 C477 1.336 . S
N481 N480 1.354 . S
N481 Zn485 2.020 1_554 S
C482 O483 1.244 . S
C482 O506 1.257 1_554 S
O483 C482 1.244 . S
O484 Zn476 2.019 . S
O484 C504 1.257 . S
Zn485 N481 2.020 1_556 S
Zn485 O492 1.975 . S
Zn485 N501 2.119 . S
Zn485 O506 2.019 . S
N486 Zn476 2.119 1_554 S
N486 C488 1.334 . S
N486 C489 1.328 . S
C487 C488 1.391 . S
C487 N490 1.329 . S
C487 H508 0.930 . S
C488 N486 1.334 . S
C488 C487 1.391 . S
C488 H495 0.930 . S
C489 N486 1.328 . S
C489 C491 1.392 . S
C489 H496 0.930 1_554 S
N490 C487 1.329 . S
N490 C491 1.331 . S
C491 C489 1.392 . S
C491 N490 1.331 . S
O492 Zn485 1.975 . S
O492 C493 1.252 . S
C493 O492 1.252 . S
C493 O494 1.252 . S
O494 Zn476 1.975 . S
O494 C493 1.252 . S
H495 C488 0.930 . S
H496 C489 0.930 1_556 S
C497 C498 1.392 . S
C497 N501 1.328 . S
C497 H503 0.930 . S
C498 C497 1.392 . S
C498 N502 1.331 . S
C499 C500 1.391 . S
C499 N502 1.329 . S
C499 H509 0.930 . S
C500 C499 1.391 . S
C500 N501 1.334 . S
C500 H507 0.930 . S
N501 Zn485 2.119 . S
N501 C497 1.328 . S
N501 C500 1.334 . S
N502 C498 1.331 . S
N502 C499 1.329 . S
H503 C497 0.930 . S
C504 O484 1.257 . S
C504 O505 1.244 . S
O505 C504 1.244 . S
O506 C482 1.257 1_556 S
O506 Zn485 2.019 . S
H507 C500 0.930 . S
H508 C487 0.930 . S
H509 C499 0.930 . S
Zn510 N514 2.020 . S
Zn510 O518 2.019 . S
Zn510 N520 2.119 . S
Zn510 O528 1.975 . S
C511 N512 1.334 . S
C511 N515 1.336 . S
N512 C511 1.334 . S
N512 C513 1.334 . S
C513 N512 1.334 . S
C513 N514 1.336 . S
N514 Zn510 2.020 . S
N514 C513 1.336 . S
N514 N515 1.354 . S
N515 C511 1.336 . S
N515 N514 1.354 . S
N515 Zn519 2.020 . S
C516 O517 1.244 . S
C516 O540 1.257 . S
O517 C516 1.244 . S
O518 Zn510 2.019 . S
O518 C538 1.257 . S
Zn519 N515 2.020 . S
Zn519 O526 1.975 . S
Zn519 N535 2.119 . S
Zn519 O540 2.019 . S
N520 Zn510 2.119 . S
N520 C522 1.334 . S
N520 C523 1.328 . S
C521 C522 1.391 1_545 S
C521 N524 1.329 . S
C521 H542 0.930 . S
C522 N520 1.334 . S
C522 C521 1.391 1_565 S
C522 H529 0.930 . S
C523 N520 1.328 . S
C523 C525 1.392 1_565 S
C523 H530 0.930 . S
N524 C521 1.329 . S
N524 C525 1.331 . S
C525 C523 1.392 1_545 S
C525 N524 1.331 . S
O526 Zn519 1.975 . S
O526 C527 1.252 . S
C527 O526 1.252 . S
C527 O528 1.252 . S
O528 Zn510 1.975 . S
O528 C527 1.252 . S
H529 C522 0.930 . S
H530 C523 0.930 . S
C531 C532 1.392 . S
C531 N535 1.328 . S
C531 H537 0.930 . S
C532 C531 1.392 . S
C532 N536 1.331 . S
C533 C534 1.391 . S
C533 N536 1.329 . S
C533 H543 0.930 . S
C534 C533 1.391 . S
C534 N535 1.334 . S
C534 H541 0.930 . S
N535 Zn519 2.119 . S
N535 C531 1.328 . S
N535 C534 1.334 . S
N536 C532 1.331 . S
N536 C533 1.329 . S
H537 C531 0.930 . S
C538 O518 1.257 . S
C538 O539 1.244 . S
O539 C538 1.244 . S
O540 C516 1.257 . S
O540 Zn519 2.019 . S
H541 C534 0.930 . S
H542 C521 0.930 . S
H543 C533 0.930 . S
Zn544 N548 2.020 . S
Zn544 O552 2.019 . S
Zn544 N554 2.119 . S
Zn544 O562 1.975 . S
C545 N546 1.334 . S
C545 N549 1.336 . S
N546 C545 1.334 . S
N546 C547 1.334 . S
C547 N546 1.334 . S
C547 N548 1.336 . S
N548 Zn544 2.020 . S
N548 C547 1.336 . S
N548 N549 1.354 . S
N549 C545 1.336 . S
N549 N548 1.354 . S
N549 Zn553 2.020 . S
C550 O551 1.244 . S
C550 O574 1.257 . S
O551 C550 1.244 . S
O552 Zn544 2.019 . S
O552 C572 1.257 . S
Zn553 N549 2.020 . S
Zn553 O560 1.975 . S
Zn553 N569 2.119 . S
Zn553 O574 2.019 . S
N554 Zn544 2.119 . S
N554 C556 1.334 . S
N554 C557 1.328 . S
C555 C556 1.391 . S
C555 N558 1.329 . S
C555 H576 0.930 . S
C556 N554 1.334 . S
C556 C555 1.391 . S
C556 H563 0.930 . S
C557 N554 1.328 . S
C557 C559 1.392 . S
C557 H564 0.930 . S
N558 C555 1.329 . S
N558 C559 1.331 . S
C559 C557 1.392 . S
C559 N558 1.331 . S
O560 Zn553 1.975 . S
O560 C561 1.252 . S
C561 O560 1.252 . S
C561 O562 1.252 . S
O562 Zn544 1.975 . S
O562 C561 1.252 . S
H563 C556 0.930 . S
H564 C557 0.930 . S
C565 C566 1.392 1_455 S
C565 N569 1.328 . S
C565 H571 0.930 . S
C566 C565 1.392 1_655 S
C566 N570 1.331 . S
C567 C568 1.391 1_655 S
C567 N570 1.329 . S
C567 H577 0.930 . S
C568 C567 1.391 1_455 S
C568 N569 1.334 . S
C568 H575 0.930 . S
N569 Zn553 2.119 . S
N569 C565 1.328 . S
N569 C568 1.334 . S
N570 C566 1.331 . S
N570 C567 1.329 . S
H571 C565 0.930 . S
C572 O552 1.257 . S
C572 O573 1.244 . S
O573 C572 1.244 . S
O574 C550 1.257 . S
O574 Zn553 2.019 . S
H575 C568 0.930 . S
H576 C555 0.930 . S
H577 C567 0.930 . S
Zn578 N582 2.020 . S
Zn578 O586 2.019 . S
Zn578 N588 2.119 . S
Zn578 O596 1.975 . S
C579 N580 1.334 . S
C579 N583 1.336 . S
N580 C579 1.334 . S
N580 C581 1.334 . S
C581 N580 1.334 . S
C581 N582 1.336 . S
N582 Zn578 2.020 . S
N582 C581 1.336 . S
N582 N583 1.354 . S
N583 C579 1.336 . S
N583 N582 1.354 . S
N583 Zn587 2.020 . S
C584 O585 1.244 . S
C584 O608 1.257 . S
O585 C584 1.244 . S
O586 Zn578 2.019 . S
O586 C606 1.257 . S
Zn587 N583 2.020 . S
Zn587 O594 1.975 . S
Zn587 N603 2.119 . S
Zn587 O608 2.019 . S
N588 Zn578 2.119 . S
N588 C590 1.334 . S
N588 C591 1.328 . S
C589 C590 1.391 . S
C589 N592 1.329 . S
C589 H610 0.930 . S
C590 N588 1.334 . S
C590 C589 1.391 . S
C590 H597 0.930 . S
C591 N588 1.328 . S
C591 C593 1.392 . S
C591 H598 0.930 . S
N592 C589 1.329 . S
N592 C593 1.331 . S
C593 C591 1.392 . S
C593 N592 1.331 . S
O594 Zn587 1.975 . S
O594 C595 1.252 . S
C595 O594 1.252 . S
C595 O596 1.252 . S
O596 Zn578 1.975 . S
O596 C595 1.252 . S
H597 C590 0.930 . S
H598 C591 0.930 . S
C599 C600 1.392 . S
C599 N603 1.328 . S
C599 H605 0.930 . S
C600 C599 1.392 . S
C600 N604 1.331 . S
C601 C602 1.391 . S
C601 N604 1.329 . S
C601 H611 0.930 . S
C602 C601 1.391 . S
C602 N603 1.334 . S
C602 H609 0.930 . S
N603 Zn587 2.119 . S
N603 C599 1.328 . S
N603 C602 1.334 . S
N604 C600 1.331 . S
N604 C601 1.329 . S
H605 C599 0.930 . S
C606 O586 1.257 . S
C606 O607 1.244 . S
O607 C606 1.244 . S
O608 C584 1.257 . S
O608 Zn587 2.019 . S
H609 C602 0.930 . S
H610 C589 0.930 . S
H611 C601 0.930 . S
C612 C613 1.363 . S
C612 C618 1.379 . S
C612 N620 1.356 . S
C613 C612 1.363 . S
C613 C619 1.363 . S
C614 C615 1.363 . S
C614 C619 1.379 . S
C614 N621 1.356 . S
C615 C614 1.363 . S
C615 C618 1.363 . S
N616 C618 1.356 . S
N616 H628 0.984 . S
N616 H629 0.985 . S
N617 C619 1.356 . S
N617 H622 0.984 . S
N617 H623 0.985 . S
C618 C612 1.379 . S
C618 C615 1.363 . S
C618 N616 1.356 . S
C619 C613 1.363 . S
C619 C614 1.379 . S
C619 N617 1.356 . S
N620 C612 1.356 . S
N620 H626 0.984 . S
N620 H627 0.984 . S
N621 C614 1.356 . S
N621 H624 0.984 . S
N621 H625 0.985 . S
H622 N617 0.984 . S
H623 N617 0.985 . S
H624 N621 0.984 . S
H625 N621 0.985 . S
H626 N620 0.984 . S
H627 N620 0.984 . S
H628 N616 0.984 . S
H629 N616 0.985 . S
C630 C631 1.363 . S
C630 C636 1.379 . S
C630 N638 1.356 . S
C631 C630 1.363 . S
C631 C637 1.363 . S
C632 C633 1.363 . S
C632 C637 1.379 . S
C632 N639 1.356 . S
C633 C632 1.363 . S
C633 C636 1.363 . S
N634 C636 1.356 . S
N634 H646 0.984 . S
N634 H647 0.985 . S
N635 C637 1.356 . S
N635 H640 0.984 . S
N635 H641 0.985 . S
C636 C630 1.379 . S
C636 C633 1.363 . S
C636 N634 1.356 . S
C637 C631 1.363 . S
C637 C632 1.379 . S
C637 N635 1.356 . S
N638 C630 1.356 . S
N638 H644 0.984 . S
N638 H645 0.984 . S
N639 C632 1.356 . S
N639 H642 0.984 . S
N639 H643 0.985 . S
H640 N635 0.984 . S
H641 N635 0.985 . S
H642 N639 0.984 . S
H643 N639 0.985 . S
H644 N638 0.984 . S
H645 N638 0.984 . S
H646 N634 0.984 . S
H647 N634 0.985 . S
C648 C649 1.363 . S
C648 C654 1.379 . S
C648 N656 1.356 . S
C649 C648 1.363 . S
C649 C655 1.363 . S
C650 C651 1.363 . S
C650 C655 1.379 . S
C650 N657 1.356 . S
C651 C650 1.363 . S
C651 C654 1.363 . S
N652 C654 1.356 . S
N652 H664 0.984 . S
N652 H665 0.985 . S
N653 C655 1.356 . S
N653 H658 0.984 . S
N653 H659 0.985 . S
C654 C648 1.379 . S
C654 C651 1.363 . S
C654 N652 1.356 . S
C655 C649 1.363 . S
C655 C650 1.379 . S
C655 N653 1.356 . S
N656 C648 1.356 . S
N656 H662 0.984 . S
N656 H663 0.984 . S
N657 C650 1.356 . S
N657 H660 0.984 . S
N657 H661 0.985 . S
H658 N653 0.984 . S
H659 N653 0.985 . S
H660 N657 0.984 . S
H661 N657 0.985 . S
H662 N656 0.984 . S
H663 N656 0.984 . S
H664 N652 0.984 . S
H665 N652 0.985 . S
C666 C667 1.363 . S
C666 C672 1.379 . S
C666 N674 1.356 . S
C667 C666 1.363 . S
C667 C673 1.363 . S
C668 C669 1.363 . S
C668 C673 1.379 . S
C668 N675 1.356 . S
C669 C668 1.363 . S
C669 C672 1.363 . S
N670 C672 1.356 . S
N670 H682 0.984 . S
N670 H683 0.985 . S
N671 C673 1.356 . S
N671 H676 0.984 . S
N671 H677 0.985 . S
C672 C666 1.379 . S
C672 C669 1.363 . S
C672 N670 1.356 . S
C673 C667 1.363 . S
C673 C668 1.379 . S
C673 N671 1.356 . S
N674 C666 1.356 . S
N674 H680 0.984 . S
N674 H681 0.984 . S
N675 C668 1.356 . S
N675 H678 0.984 . S
N675 H679 0.985 . S
H676 N671 0.984 . S
H677 N671 0.985 . S
H678 N675 0.984 . S
H679 N675 0.985 . S
H680 N674 0.984 . S
H681 N674 0.984 . S
H682 N670 0.984 . S
H683 N670 0.985 . S
C684 C685 1.363 . S
C684 C690 1.379 . S
C684 N692 1.356 . S
C685 C684 1.363 . S
C685 C691 1.363 . S
C686 C687 1.363 . S
C686 C691 1.379 . S
C686 N693 1.356 . S
C687 C686 1.363 . S
C687 C690 1.363 . S
N688 C690 1.356 . S
N688 H700 0.984 . S
N688 H701 0.985 . S
N689 C691 1.356 . S
N689 H694 0.984 . S
N689 H695 0.985 . S
C690 C684 1.379 . S
C690 C687 1.363 . S
C690 N688 1.356 . S
C691 C685 1.363 . S
C691 C686 1.379 . S
C691 N689 1.356 . S
N692 C684 1.356 . S
N692 H698 0.984 . S
N692 H699 0.984 . S
N693 C686 1.356 . S
N693 H696 0.984 . S
N693 H697 0.985 . S
H694 N689 0.984 . S
H695 N689 0.985 . S
H696 N693 0.984 . S
H697 N693 0.985 . S
H698 N692 0.984 . S
H699 N692 0.984 . S
H700 N688 0.984 . S
H701 N688 0.985 . S
C702 C703 1.363 . S
C702 C708 1.379 . S
C702 N710 1.356 . S
C703 C702 1.363 . S
C703 C709 1.363 . S
C704 C705 1.363 . S
C704 C709 1.379 . S
C704 N711 1.356 . S
C705 C704 1.363 . S
C705 C708 1.363 . S
N706 C708 1.356 . S
N706 H718 0.984 . S
N706 H719 0.985 . S
N707 C709 1.356 . S
N707 H712 0.984 . S
N707 H713 0.985 . S
C708 C702 1.379 . S
C708 C705 1.363 . S
C708 N706 1.356 . S
C709 C703 1.363 . S
C709 C704 1.379 . S
C709 N707 1.356 . S
N710 C702 1.356 . S
N710 H716 0.984 . S
N710 H717 0.984 . S
N711 C704 1.356 . S
N711 H714 0.984 . S
N711 H715 0.985 . S
H712 N707 0.984 . S
H713 N707 0.985 . S
H714 N711 0.984 . S
H715 N711 0.985 . S
H716 N710 0.984 . S
H717 N710 0.984 . S
H718 N706 0.984 . S
H719 N706 0.985 . S
C720 C721 1.363 . S
C720 C726 1.379 1_455 S
C720 N728 1.356 . S
C721 C720 1.363 . S
C721 C727 1.363 . S
C722 C723 1.363 . S
C722 C727 1.379 1_655 S
C722 N729 1.356 . S
C723 C722 1.363 . S
C723 C726 1.363 . S
N724 C726 1.356 . S
N724 H736 0.984 . S
N724 H737 0.985 . S
N725 C727 1.356 . S
N725 H730 0.984 . S
N725 H731 0.985 . S
C726 C720 1.379 1_655 S
C726 C723 1.363 . S
C726 N724 1.356 . S
C727 C721 1.363 . S
C727 C722 1.379 1_455 S
C727 N725 1.356 . S
N728 C720 1.356 . S
N728 H734 0.984 . S
N728 H735 0.984 . S
N729 C722 1.356 . S
N729 H732 0.984 . S
N729 H733 0.985 . S
H730 N725 0.984 . S
H731 N725 0.985 . S
H732 N729 0.984 . S
H733 N729 0.985 . S
H734 N728 0.984 . S
H735 N728 0.984 . S
H736 N724 0.984 . S
H737 N724 0.985 . S
C738 C739 1.363 . S
C738 C744 1.379 . S
C738 N746 1.356 . S
C739 C738 1.363 . S
C739 C745 1.363 . S
C740 C741 1.363 . S
C740 C745 1.379 . S
C740 N747 1.356 . S
C741 C740 1.363 . S
C741 C744 1.363 . S
N742 C744 1.356 . S
N742 H754 0.984 . S
N742 H755 0.985 . S
N743 C745 1.356 . S
N743 H748 0.984 . S
N743 H749 0.985 . S
C744 C738 1.379 . S
C744 C741 1.363 . S
C744 N742 1.356 . S
C745 C739 1.363 . S
C745 C740 1.379 . S
C745 N743 1.356 . S
N746 C738 1.356 . S
N746 H752 0.984 . S
N746 H753 0.984 . S
N747 C740 1.356 . S
N747 H750 0.984 . S
N747 H751 0.985 . S
H748 N743 0.984 . S
H749 N743 0.985 . S
H750 N747 0.984 . S
H751 N747 0.985 . S
H752 N746 0.984 . S
H753 N746 0.984 . S
H754 N742 0.984 . S
H755 N742 0.985 . S
C756 C757 1.363 . S
C756 C762 1.379 1_545 S
C756 N764 1.356 . S
C757 C756 1.363 . S
C757 C763 1.363 . S
C758 C759 1.363 . S
C758 C763 1.379 1_565 S
C758 N765 1.356 . S
C759 C758 1.363 . S
C759 C762 1.363 . S
N760 C762 1.356 . S
N760 H772 0.984 . S
N760 H773 0.985 . S
N761 C763 1.356 . S
N761 H766 0.984 . S
N761 H767 0.985 . S
C762 C756 1.379 1_565 S
C762 C759 1.363 . S
C762 N760 1.356 . S
C763 C757 1.363 . S
C763 C758 1.379 1_545 S
C763 N761 1.356 . S
N764 C756 1.356 . S
N764 H770 0.984 . S
N764 H771 0.984 . S
N765 C758 1.356 . S
N765 H768 0.984 . S
N765 H769 0.985 . S
H766 N761 0.984 . S
H767 N761 0.985 . S
H768 N765 0.984 . S
H769 N765 0.985 . S
H770 N764 0.984 . S
H771 N764 0.984 . S
H772 N760 0.984 . S
H773 N760 0.985 . S
C774 C775 1.393 . S
C774 C780 1.358 1_545 S
C774 N782 1.357 . S
C775 C774 1.393 . S
C775 C781 1.363 . S
C776 C777 1.393 . S
C776 C781 1.358 1_565 S
C776 N783 1.357 . S
C777 C776 1.393 . S
C777 C780 1.363 . S
N778 C780 1.356 . S
N778 H790 0.984 . S
N778 H791 0.985 . S
N779 C781 1.356 . S
N779 H784 0.984 . S
N779 H785 0.985 . S
C780 C774 1.358 1_565 S
C780 C777 1.363 . S
C780 N778 1.356 . S
C781 C775 1.363 . S
C781 C776 1.358 1_545 S
C781 N779 1.356 . S
N782 C774 1.357 . S
N782 H788 0.984 1_545 S
N782 H789 0.984 . S
N783 C776 1.357 . S
N783 H786 0.984 . S
N783 H787 0.985 1_565 S
H784 N779 0.984 . S
H785 N779 0.985 . S
H786 N783 0.984 . S
H787 N783 0.985 1_545 S
H788 N782 0.984 1_565 S
H789 N782 0.984 . S
H790 N778 0.984 . S
H791 N778 0.985 . S
C792 C793 1.363 . S
C792 C798 1.379 1_455 S
C792 N800 1.356 . S
C793 C792 1.363 . S
C793 C799 1.363 . S
C794 C795 1.363 . S
C794 C799 1.379 1_655 S
C794 N801 1.356 . S
C795 C794 1.363 . S
C795 C798 1.363 . S
N796 C798 1.356 . S
N796 H808 0.984 . S
N796 H809 0.985 . S
N797 C799 1.356 . S
N797 H802 0.984 . S
N797 H803 0.985 . S
C798 C792 1.379 1_655 S
C798 C795 1.363 . S
C798 N796 1.356 . S
C799 C793 1.363 . S
C799 C794 1.379 1_455 S
C799 N797 1.356 . S
N800 C792 1.356 . S
N800 H806 0.984 . S
N800 H807 0.984 . S
N801 C794 1.356 . S
N801 H804 0.984 . S
N801 H805 0.985 . S
H802 N797 0.984 . S
H803 N797 0.985 . S
H804 N801 0.984 . S
H805 N801 0.985 . S
H806 N800 0.984 . S
H807 N800 0.984 . S
H808 N796 0.984 . S
H809 N796 0.985 . S
C810 C811 1.363 . S
C810 C816 1.379 . S
C810 N818 1.356 . S
C811 C810 1.363 . S
C811 C817 1.363 . S
C812 C813 1.363 . S
C812 C817 1.379 . S
C812 N819 1.356 . S
C813 C812 1.363 . S
C813 C816 1.363 . S
N814 C816 1.356 . S
N814 H826 0.984 . S
N814 H827 0.985 . S
N815 C817 1.356 . S
N815 H820 0.984 . S
N815 H821 0.985 . S
C816 C810 1.379 . S
C816 C813 1.363 . S
C816 N814 1.356 . S
C817 C811 1.363 . S
C817 C812 1.379 . S
C817 N815 1.356 . S
N818 C810 1.356 . S
N818 H824 0.984 . S
N818 H825 0.984 . S
N819 C812 1.356 . S
N819 H822 0.984 . S
N819 H823 0.985 . S
H820 N815 0.984 . S
H821 N815 0.985 . S
H822 N819 0.984 . S
H823 N819 0.985 . S
H824 N818 0.984 . S
H825 N818 0.984 . S
H826 N814 0.984 . S
H827 N814 0.985 . S
C828 C829 1.363 . S
C828 C834 1.379 1_545 S
C828 N836 1.356 . S
C829 C828 1.363 . S
C829 C835 1.363 . S
C830 C831 1.363 . S
C830 C835 1.379 1_565 S
C830 N837 1.356 . S
C831 C830 1.363 . S
C831 C834 1.363 . S
N832 C834 1.356 . S
N832 H844 0.984 . S
N832 H845 0.985 . S
N833 C835 1.356 . S
N833 H838 0.984 . S
N833 H839 0.985 . S
C834 C828 1.379 1_565 S
C834 C831 1.363 . S
C834 N832 1.356 . S
C835 C829 1.363 . S
C835 C830 1.379 1_545 S
C835 N833 1.356 . S
N836 C828 1.356 . S
N836 H842 0.984 1_545 S
N836 H843 0.984 . S
N837 C830 1.356 . S
N837 H840 0.984 . S
N837 H841 0.985 1_565 S
H838 N833 0.984 . S
H839 N833 0.985 . S
H840 N837 0.984 . S
H841 N837 0.985 1_545 S
H842 N836 0.984 1_565 S
H843 N836 0.984 . S
H844 N832 0.984 . S
H845 N832 0.985 . S
C846 C847 1.363 1_655 S
C846 C852 1.379 . S
C846 N854 1.356 1_655 S
C847 C846 1.363 1_455 S
C847 C853 1.363 . S
C848 C849 1.363 1_455 S
C848 C853 1.379 . S
C848 N855 1.356 1_455 S
C849 C848 1.363 1_655 S
C849 C852 1.363 . S
N850 C852 1.356 . S
N850 H862 0.984 . S
N850 H863 0.985 . S
N851 C853 1.356 . S
N851 H856 0.984 . S
N851 H857 0.985 . S
C852 C846 1.379 . S
C852 C849 1.363 . S
C852 N850 1.356 . S
C853 C847 1.363 . S
C853 C848 1.379 . S
C853 N851 1.356 . S
N854 C846 1.356 1_455 S
N854 H860 0.984 1_455 S
N854 H861 0.984 . S
N855 C848 1.356 1_655 S
N855 H858 0.984 . S
N855 H859 0.985 1_655 S
H856 N851 0.984 . S
H857 N851 0.985 . S
H858 N855 0.984 . S
H859 N855 0.985 1_455 S
H860 N854 0.984 1_655 S
H861 N854 0.984 . S
H862 N850 0.984 . S
H863 N850 0.985 . S
C864 C865 1.363 . S
C864 C870 1.379 . S
C864 N872 1.356 . S
C865 C864 1.363 . S
C865 C871 1.363 . S
C866 C867 1.363 . S
C866 C871 1.379 . S
C866 N873 1.356 . S
C867 C866 1.363 . S
C867 C870 1.363 . S
N868 C870 1.356 . S
N868 H880 0.984 . S
N868 H881 0.985 . S
N869 C871 1.356 . S
N869 H874 0.984 . S
N869 H875 0.985 . S
C870 C864 1.379 . S
C870 C867 1.363 . S
C870 N868 1.356 . S
C871 C865 1.363 . S
C871 C866 1.379 . S
C871 N869 1.356 . S
N872 C864 1.356 . S
N872 H878 0.984 . S
N872 H879 0.984 . S
N873 C866 1.356 . S
N873 H876 0.984 . S
N873 H877 0.985 . S
H874 N869 0.984 . S
H875 N869 0.985 . S
H876 N873 0.984 . S
H877 N873 0.985 . S
H878 N872 0.984 . S
H879 N872 0.984 . S
H880 N868 0.984 . S
H881 N868 0.985 . S
C882 C883 1.363 . S
C882 C888 1.379 . S
C882 N890 1.356 . S
C883 C882 1.363 . S
C883 C889 1.363 . S
C884 C885 1.363 . S
C884 C889 1.379 . S
C884 N891 1.356 . S
C885 C884 1.363 . S
C885 C888 1.363 . S
N886 C888 1.356 . S
N886 H898 0.984 . S
N886 H899 0.985 . S
N887 C889 1.356 . S
N887 H892 0.984 . S
N887 H893 0.985 . S
C888 C882 1.379 . S
C888 C885 1.363 . S
C888 N886 1.356 . S
C889 C883 1.363 . S
C889 C884 1.379 . S
C889 N887 1.356 . S
N890 C882 1.356 . S
N890 H896 0.984 . S
N890 H897 0.984 . S
N891 C884 1.356 . S
N891 H894 0.984 . S
N891 H895 0.985 . S
H892 N887 0.984 . S
H893 N887 0.985 . S
H894 N891 0.984 . S
H895 N891 0.985 . S
H896 N890 0.984 . S
H897 N890 0.984 . S
H898 N886 0.984 . S
H899 N886 0.985 . S
C900 C901 1.363 . S
C900 C906 1.379 . S
C900 N908 1.356 . S
C901 C900 1.363 . S
C901 C907 1.363 . S
C902 C903 1.363 . S
C902 C907 1.379 . S
C902 N909 1.356 . S
C903 C902 1.363 . S
C903 C906 1.363 . S
N904 C906 1.356 . S
N904 H916 0.984 . S
N904 H917 0.985 . S
N905 C907 1.356 . S
N905 H910 0.984 . S
N905 H911 0.985 . S
C906 C900 1.379 . S
C906 C903 1.363 . S
C906 N904 1.356 . S
C907 C901 1.363 . S
C907 C902 1.379 . S
C907 N905 1.356 . S
N908 C900 1.356 . S
N908 H914 0.984 . S
N908 H915 0.984 . S
N909 C902 1.356 . S
N909 H912 0.984 . S
N909 H913 0.985 . S
H910 N905 0.984 . S
H911 N905 0.985 . S
H912 N909 0.984 . S
H913 N909 0.985 . S
H914 N908 0.984 . S
H915 N908 0.984 . S
H916 N904 0.984 . S
H917 N904 0.985 . S
C918 C919 1.363 . S
C918 C924 1.379 . S
C918 N926 1.356 . S
C919 C918 1.363 . S
C919 C925 1.363 . S
C920 C921 1.363 . S
C920 C925 1.379 . S
C920 N927 1.356 . S
C921 C920 1.363 . S
C921 C924 1.363 . S
N922 C924 1.356 . S
N922 H934 0.984 . S
N922 H935 0.985 . S
N923 C925 1.356 . S
N923 H928 0.984 . S
N923 H929 0.985 . S
C924 C918 1.379 . S
C924 C921 1.363 . S
C924 N922 1.356 . S
C925 C919 1.363 . S
C925 C920 1.379 . S
C925 N923 1.356 . S
N926 C918 1.356 . S
N926 H932 0.984 . S
N926 H933 0.984 . S
N927 C920 1.356 . S
N927 H930 0.984 . S
N927 H931 0.985 . S
H928 N923 0.984 . S
H929 N923 0.985 . S
H930 N927 0.984 . S
H931 N927 0.985 . S
H932 N926 0.984 . S
H933 N926 0.984 . S
H934 N922 0.984 . S
H935 N922 0.985 . S
C936 C937 1.363 . S
C936 C942 1.379 . S
C936 N944 1.356 . S
C937 C936 1.363 . S
C937 C943 1.363 . S
C938 C939 1.363 . S
C938 C943 1.379 . S
C938 N945 1.356 . S
C939 C938 1.363 . S
C939 C942 1.363 . S
N940 C942 1.356 . S
N940 H952 0.984 . S
N940 H953 0.985 . S
N941 C943 1.356 . S
N941 H946 0.984 . S
N941 H947 0.985 . S
C942 C936 1.379 . S
C942 C939 1.363 . S
C942 N940 1.356 . S
C943 C937 1.363 . S
C943 C938 1.379 . S
C943 N941 1.356 . S
N944 C936 1.356 . S
N944 H950 0.984 . S
N944 H951 0.984 . S
N945 C938 1.356 . S
N945 H948 0.984 . S
N945 H949 0.985 . S
H946 N941 0.984 . S
H947 N941 0.985 . S
H948 N945 0.984 . S
H949 N945 0.985 . S
H950 N944 0.984 . S
H951 N944 0.984 . S
H952 N940 0.984 . S
H953 N940 0.985 . S
C954 C955 1.363 . S
C954 C960 1.379 . S
C954 N962 1.356 . S
C955 C954 1.363 . S
C955 C961 1.363 . S
C956 C957 1.363 . S
C956 C961 1.379 . S
C956 N963 1.356 . S
C957 C956 1.363 . S
C957 C960 1.363 . S
N958 C960 1.356 . S
N958 H970 0.984 . S
N958 H971 0.985 . S
N959 C961 1.356 . S
N959 H964 0.984 . S
N959 H965 0.985 . S
C960 C954 1.379 . S
C960 C957 1.363 . S
C960 N958 1.356 . S
C961 C955 1.363 . S
C961 C956 1.379 . S
C961 N959 1.356 . S
N962 C954 1.356 . S
N962 H968 0.984 . S
N962 H969 0.984 . S
N963 C956 1.356 . S
N963 H966 0.984 . S
N963 H967 0.985 . S
H964 N959 0.984 . S
H965 N959 0.985 . S
H966 N963 0.984 . S
H967 N963 0.985 . S
H968 N962 0.984 . S
H969 N962 0.984 . S
H970 N958 0.984 . S
H971 N958 0.985 . S
C972 C973 1.363 . S
C972 C978 1.379 . S
C972 N980 1.356 . S
C973 C972 1.363 . S
C973 C979 1.363 . S
C974 C975 1.363 . S
C974 C979 1.379 . S
C974 N981 1.356 . S
C975 C974 1.363 . S
C975 C978 1.363 . S
N976 C978 1.356 . S
N976 H988 0.984 . S
N976 H989 0.985 . S
N977 C979 1.356 . S
N977 H982 0.984 . S
N977 H983 0.985 . S
C978 C972 1.379 . S
C978 C975 1.363 . S
C978 N976 1.356 . S
C979 C973 1.363 . S
C979 C974 1.379 . S
C979 N977 1.356 . S
N980 C972 1.356 . S
N980 H986 0.984 . S
N980 H987 0.984 . S
N981 C974 1.356 . S
N981 H984 0.984 . S
N981 H985 0.985 . S
H982 N977 0.984 . S
H983 N977 0.985 . S
H984 N981 0.984 . S
H985 N981 0.985 . S
H986 N980 0.984 . S
H987 N980 0.984 . S
H988 N976 0.984 . S
H989 N976 0.985 . S
C990 C991 1.363 . S
C990 C996 1.379 . S
C990 N998 1.356 . S
C991 C990 1.363 . S
C991 C997 1.363 . S
C992 C993 1.363 . S
C992 C997 1.379 . S
C992 N999 1.356 . S
C993 C992 1.363 . S
C993 C996 1.363 . S
N994 C996 1.356 . S
N994 H1006 0.984 . S
N994 H1007 0.985 . S
N995 C997 1.356 . S
N995 H1000 0.984 . S
N995 H1001 0.985 . S
C996 C990 1.379 . S
C996 C993 1.363 . S
C996 N994 1.356 . S
C997 C991 1.363 . S
C997 C992 1.379 . S
C997 N995 1.356 . S
N998 C990 1.356 . S
N998 H1004 0.984 . S
N998 H1005 0.984 . S
N999 C992 1.356 . S
N999 H1002 0.984 . S
N999 H1003 0.985 . S
H1000 N995 0.984 . S
H1001 N995 0.985 . S
H1002 N999 0.984 . S
H1003 N999 0.985 . S
H1004 N998 0.984 . S
H1005 N998 0.984 . S
H1006 N994 0.984 . S
H1007 N994 0.985 . S
C1008 C1009 1.363 . S
C1008 C1014 1.379 . S
C1008 N1016 1.356 . S
C1009 C1008 1.363 . S
C1009 C1015 1.363 . S
C1010 C1011 1.363 . S
C1010 C1015 1.379 . S
C1010 N1017 1.356 . S
C1011 C1010 1.363 . S
C1011 C1014 1.363 . S
N1012 C1014 1.356 . S
N1012 H1024 0.984 . S
N1012 H1025 0.985 . S
N1013 C1015 1.356 . S
N1013 H1018 0.984 . S
N1013 H1019 0.985 . S
C1014 C1008 1.379 . S
C1014 C1011 1.363 . S
C1014 N1012 1.356 . S
C1015 C1009 1.363 . S
C1015 C1010 1.379 . S
C1015 N1013 1.356 . S
N1016 C1008 1.356 . S
N1016 H1022 0.984 . S
N1016 H1023 0.984 . S
N1017 C1010 1.356 . S
N1017 H1020 0.984 . S
N1017 H1021 0.985 . S
H1018 N1013 0.984 . S
H1019 N1013 0.985 . S
H1020 N1017 0.984 . S
H1021 N1017 0.985 . S
H1022 N1016 0.984 . S
H1023 N1016 0.984 . S
H1024 N1012 0.984 . S
H1025 N1012 0.985 . S
C1026 C1027 1.363 . S
C1026 C1032 1.379 . S
C1026 N1034 1.356 . S
C1027 C1026 1.363 . S
C1027 C1033 1.363 . S
C1028 C1029 1.363 . S
C1028 C1033 1.379 . S
C1028 N1035 1.356 . S
C1029 C1028 1.363 . S
C1029 C1032 1.363 . S
N1030 C1032 1.356 . S
N1030 H1042 0.984 . S
N1030 H1043 0.985 . S
N1031 C1033 1.356 . S
N1031 H1036 0.984 . S
N1031 H1037 0.985 . S
C1032 C1026 1.379 . S
C1032 C1029 1.363 . S
C1032 N1030 1.356 . S
C1033 C1027 1.363 . S
C1033 C1028 1.379 . S
C1033 N1031 1.356 . S
N1034 C1026 1.356 . S
N1034 H1040 0.984 . S
N1034 H1041 0.984 . S
N1035 C1028 1.356 . S
N1035 H1038 0.984 . S
N1035 H1039 0.985 . S
H1036 N1031 0.984 . S
H1037 N1031 0.985 . S
H1038 N1035 0.984 . S
H1039 N1035 0.985 . S
H1040 N1034 0.984 . S
H1041 N1034 0.984 . S
H1042 N1030 0.984 . S
H1043 N1030 0.985 . S
C1044 C1045 1.363 . S
C1044 C1050 1.379 . S
C1044 N1052 1.356 . S
C1045 C1044 1.363 . S
C1045 C1051 1.363 . S
C1046 C1047 1.363 . S
C1046 C1051 1.379 . S
C1046 N1053 1.356 . S
C1047 C1046 1.363 . S
C1047 C1050 1.363 . S
N1048 C1050 1.356 . S
N1048 H1060 0.984 . S
N1048 H1061 0.985 . S
N1049 C1051 1.356 . S
N1049 H1054 0.984 . S
N1049 H1055 0.985 . S
C1050 C1044 1.379 . S
C1050 C1047 1.363 . S
C1050 N1048 1.356 . S
C1051 C1045 1.363 . S
C1051 C1046 1.379 . S
C1051 N1049 1.356 . S
N1052 C1044 1.356 . S
N1052 H1058 0.984 . S
N1052 H1059 0.984 . S
N1053 C1046 1.356 . S
N1053 H1056 0.984 . S
N1053 H1057 0.985 . S
H1054 N1049 0.984 . S
H1055 N1049 0.985 . S
H1056 N1053 0.984 . S
H1057 N1053 0.985 . S
H1058 N1052 0.984 . S
H1059 N1052 0.984 . S
H1060 N1048 0.984 . S
H1061 N1048 0.985 . S
C1062 C1063 1.363 . S
C1062 C1068 1.379 . S
C1062 N1070 1.356 . S
C1063 C1062 1.363 . S
C1063 C1069 1.363 . S
C1064 C1065 1.363 . S
C1064 C1069 1.379 . S
C1064 N1071 1.356 . S
C1065 C1064 1.363 . S
C1065 C1068 1.363 . S
N1066 C1068 1.356 . S
N1066 H1078 0.984 . S
N1066 H1079 0.985 . S
N1067 C1069 1.356 . S
N1067 H1072 0.984 . S
N1067 H1073 0.985 . S
C1068 C1062 1.379 . S
C1068 C1065 1.363 . S
C1068 N1066 1.356 . S
C1069 C1063 1.363 . S
C1069 C1064 1.379 . S
C1069 N1067 1.356 . S
N1070 C1062 1.356 . S
N1070 H1076 0.984 . S
N1070 H1077 0.984 . S
N1071 C1064 1.356 . S
N1071 H1074 0.984 . S
N1071 H1075 0.985 . S
H1072 N1067 0.984 . S
H1073 N1067 0.985 . S
H1074 N1071 0.984 . S
H1075 N1071 0.985 . S
H1076 N1070 0.984 . S
H1077 N1070 0.984 . S
H1078 N1066 0.984 . S
H1079 N1066 0.985 . S
C1080 C1081 1.363 . S
C1080 C1086 1.379 . S
C1080 N1088 1.356 . S
C1081 C1080 1.363 . S
C1081 C1087 1.363 . S
C1082 C1083 1.363 . S
C1082 C1087 1.379 . S
C1082 N1089 1.356 . S
C1083 C1082 1.363 . S
C1083 C1086 1.363 . S
N1084 C1086 1.356 . S
N1084 H1096 0.984 . S
N1084 H1097 0.985 . S
N1085 C1087 1.356 . S
N1085 H1090 0.984 . S
N1085 H1091 0.985 . S
C1086 C1080 1.379 . S
C1086 C1083 1.363 . S
C1086 N1084 1.356 . S
C1087 C1081 1.363 . S
C1087 C1082 1.379 . S
C1087 N1085 1.356 . S
N1088 C1080 1.356 . S
N1088 H1094 0.984 . S
N1088 H1095 0.984 . S
N1089 C1082 1.356 . S
N1089 H1092 0.984 . S
N1089 H1093 0.985 . S
H1090 N1085 0.984 . S
H1091 N1085 0.985 . S
H1092 N1089 0.984 . S
H1093 N1089 0.985 . S
H1094 N1088 0.984 . S
H1095 N1088 0.984 . S
H1096 N1084 0.984 . S
H1097 N1084 0.985 . S
C1098 C1099 1.363 . S
C1098 C1104 1.379 . S
C1098 N1106 1.356 . S
C1099 C1098 1.363 . S
C1099 C1105 1.363 . S
C1100 C1101 1.363 . S
C1100 C1105 1.379 . S
C1100 N1107 1.356 . S
C1101 C1100 1.363 . S
C1101 C1104 1.363 . S
N1102 C1104 1.356 . S
N1102 H1114 0.984 . S
N1102 H1115 0.985 . S
N1103 C1105 1.356 . S
N1103 H1108 0.984 . S
N1103 H1109 0.985 . S
C1104 C1098 1.379 . S
C1104 C1101 1.363 . S
C1104 N1102 1.356 . S
C1105 C1099 1.363 . S
C1105 C1100 1.379 . S
C1105 N1103 1.356 . S
N1106 C1098 1.356 . S
N1106 H1112 0.984 . S
N1106 H1113 0.984 . S
N1107 C1100 1.356 . S
N1107 H1110 0.984 1_455 S
N1107 H1111 0.985 . S
H1108 N1103 0.984 . S
H1109 N1103 0.985 . S
H1110 N1107 0.984 1_655 S
H1111 N1107 0.985 . S
H1112 N1106 0.984 . S
H1113 N1106 0.984 . S
H1114 N1102 0.984 . S
H1115 N1102 0.985 . S
C1116 C1117 1.363 . S
C1116 C1122 1.379 . S
C1116 N1124 1.356 . S
C1117 C1116 1.363 . S
C1117 C1123 1.363 . S
C1118 C1119 1.363 . S
C1118 C1123 1.379 . S
C1118 N1125 1.356 . S
C1119 C1118 1.363 . S
C1119 C1122 1.363 . S
N1120 C1122 1.356 . S
N1120 H1132 0.984 . S
N1120 H1133 0.985 . S
N1121 C1123 1.356 . S
N1121 H1126 0.984 . S
N1121 H1127 0.985 . S
C1122 C1116 1.379 . S
C1122 C1119 1.363 . S
C1122 N1120 1.356 . S
C1123 C1117 1.363 . S
C1123 C1118 1.379 . S
C1123 N1121 1.356 . S
N1124 C1116 1.356 . S
N1124 H1130 0.984 . S
N1124 H1131 0.984 . S
N1125 C1118 1.356 . S
N1125 H1128 0.984 . S
N1125 H1129 0.985 . S
H1126 N1121 0.984 . S
H1127 N1121 0.985 . S
H1128 N1125 0.984 . S
H1129 N1125 0.985 . S
H1130 N1124 0.984 . S
H1131 N1124 0.984 . S
H1132 N1120 0.984 . S
H1133 N1120 0.985 . S
C1134 C1135 1.363 . S
C1134 C1140 1.379 . S
C1134 N1142 1.356 . S
C1135 C1134 1.363 . S
C1135 C1141 1.363 . S
C1136 C1137 1.363 . S
C1136 C1141 1.379 . S
C1136 N1143 1.356 . S
C1137 C1136 1.363 . S
C1137 C1140 1.363 . S
N1138 C1140 1.356 . S
N1138 H1150 0.984 . S
N1138 H1151 0.985 . S
N1139 C1141 1.356 . S
N1139 H1144 0.984 . S
N1139 H1145 0.985 . S
C1140 C1134 1.379 . S
C1140 C1137 1.363 . S
C1140 N1138 1.356 . S
C1141 C1135 1.363 . S
C1141 C1136 1.379 . S
C1141 N1139 1.356 . S
N1142 C1134 1.356 . S
N1142 H1148 0.984 . S
N1142 H1149 0.984 . S
N1143 C1136 1.356 . S
N1143 H1146 0.974 1_565 S
N1143 H1147 0.985 . S
H1144 N1139 0.984 . S
H1145 N1139 0.985 . S
H1146 N1143 0.974 1_545 S
H1147 N1143 0.985 . S
H1148 N1142 0.984 . S
H1149 N1142 0.984 . S
H1150 N1138 0.984 . S
H1151 N1138 0.985 . S
C1152 C1153 1.363 . S
C1152 C1158 1.379 . S
C1152 N1160 1.356 . S
C1153 C1152 1.363 . S
C1153 C1159 1.363 . S
C1154 C1155 1.363 . S
C1154 C1159 1.379 . S
C1154 N1161 1.356 . S
C1155 C1154 1.363 . S
C1155 C1158 1.363 . S
N1156 C1158 1.356 . S
N1156 H1168 0.984 . S
N1156 H1169 0.985 . S
N1157 C1159 1.356 . S
N1157 H1162 0.984 . S
N1157 H1163 0.985 . S
C1158 C1152 1.379 . S
C1158 C1155 1.363 . S
C1158 N1156 1.356 . S
C1159 C1153 1.363 . S
C1159 C1154 1.379 . S
C1159 N1157 1.356 . S
N1160 C1152 1.356 . S
N1160 H1166 0.984 . S
N1160 H1167 0.984 . S
N1161 C1154 1.356 . S
N1161 H1164 1.006 . S
N1161 H1165 0.985 . S
H1162 N1157 0.984 . S
H1163 N1157 0.985 . S
H1164 N1161 1.006 . S
H1165 N1161 0.985 . S
H1166 N1160 0.984 . S
H1167 N1160 0.984 . S
H1168 N1156 0.984 . S
H1169 N1156 0.985 . S
C1170 C1171 1.363 . S
C1170 C1176 1.379 . S
C1170 N1178 1.356 . S
C1171 C1170 1.363 . S
C1171 C1177 1.363 . S
C1172 C1173 1.363 . S
C1172 C1177 1.379 . S
C1172 N1179 1.356 . S
C1173 C1172 1.363 . S
C1173 C1176 1.363 . S
N1174 C1176 1.356 . S
N1174 H1186 0.984 . S
N1174 H1187 0.985 1_655 S
N1175 C1177 1.356 . S
N1175 H1180 0.984 . S
N1175 H1181 0.985 . S
C1176 C1170 1.379 . S
C1176 C1173 1.363 . S
C1176 N1174 1.356 . S
C1177 C1171 1.363 . S
C1177 C1172 1.379 . S
C1177 N1175 1.356 . S
N1178 C1170 1.356 . S
N1178 H1184 0.984 . S
N1178 H1185 0.984 . S
N1179 C1172 1.356 . S
N1179 H1182 0.984 . S
N1179 H1183 0.985 . S
H1180 N1175 0.984 . S
H1181 N1175 0.985 . S
H1182 N1179 0.984 . S
H1183 N1179 0.985 . S
H1184 N1178 0.984 . S
H1185 N1178 0.984 . S
H1186 N1174 0.984 . S
H1187 N1174 0.985 1_455 S
C1188 C1189 1.363 . S
C1188 C1194 1.379 . S
C1188 N1196 1.356 . S
C1189 C1188 1.363 . S
C1189 C1195 1.363 . S
C1190 C1191 1.363 . S
C1190 C1195 1.379 . S
C1190 N1197 1.356 . S
C1191 C1190 1.363 . S
C1191 C1194 1.363 . S
N1192 C1194 1.356 . S
N1192 H1204 0.984 . S
N1192 H1205 0.985 . S
N1193 C1195 1.356 . S
N1193 H1198 0.984 . S
N1193 H1199 0.985 . S
C1194 C1188 1.379 . S
C1194 C1191 1.363 . S
C1194 N1192 1.356 . S
C1195 C1189 1.363 . S
C1195 C1190 1.379 . S
C1195 N1193 1.356 . S
N1196 C1188 1.356 . S
N1196 H1202 0.984 . S
N1196 H1203 0.984 . S
N1197 C1190 1.356 . S
N1197 H1200 0.984 . S
N1197 H1201 0.985 . S
H1198 N1193 0.984 . S
H1199 N1193 0.985 . S
H1200 N1197 0.984 . S
H1201 N1197 0.985 . S
H1202 N1196 0.984 . S
H1203 N1196 0.984 . S
H1204 N1192 0.984 . S
H1205 N1192 0.985 . S
C1206 C1207 1.363 . S
C1206 C1212 1.379 . S
C1206 N1214 1.356 . S
C1207 C1206 1.363 . S
C1207 C1213 1.363 . S
C1208 C1209 1.363 . S
C1208 C1213 1.379 . S
C1208 N1215 1.356 . S
C1209 C1208 1.363 . S
C1209 C1212 1.363 . S
N1210 C1212 1.356 . S
N1210 H1222 0.984 . S
N1210 H1223 0.985 . S
N1211 C1213 1.356 . S
N1211 H1216 0.984 . S
N1211 H1217 0.985 . S
C1212 C1206 1.379 . S
C1212 C1209 1.363 . S
C1212 N1210 1.356 . S
C1213 C1207 1.363 . S
C1213 C1208 1.379 . S
C1213 N1211 1.356 . S
N1214 C1206 1.356 . S
N1214 H1220 0.984 . S
N1214 H1221 0.984 . S
N1215 C1208 1.356 . S
N1215 H1218 0.984 . S
N1215 H1219 0.985 . S
H1216 N1211 0.984 . S
H1217 N1211 0.985 . S
H1218 N1215 0.984 . S
H1219 N1215 0.985 . S
H1220 N1214 0.984 . S
H1221 N1214 0.984 . S
H1222 N1210 0.984 . S
H1223 N1210 0.985 . S
C1224 C1225 1.363 . S
C1224 C1230 1.379 . S
C1224 N1232 1.356 . S
C1225 C1224 1.363 . S
C1225 C1231 1.363 . S
C1226 C1227 1.363 . S
C1226 C1231 1.379 . S
C1226 N1233 1.356 . S
C1227 C1226 1.363 . S
C1227 C1230 1.363 . S
N1228 C1230 1.356 . S
N1228 H1240 0.984 . S
N1228 H1241 0.985 . S
N1229 C1231 1.356 . S
N1229 H1234 0.984 . S
N1229 H1235 0.985 . S
C1230 C1224 1.379 . S
C1230 C1227 1.363 . S
C1230 N1228 1.356 . S
C1231 C1225 1.363 . S
C1231 C1226 1.379 . S
C1231 N1229 1.356 . S
N1232 C1224 1.356 . S
N1232 H1238 0.984 . S
N1232 H1239 0.984 . S
N1233 C1226 1.356 . S
N1233 H1236 0.984 . S
N1233 H1237 0.985 . S
H1234 N1229 0.984 . S
H1235 N1229 0.985 . S
H1236 N1233 0.984 . S
H1237 N1233 0.985 . S
H1238 N1232 0.984 . S
H1239 N1232 0.984 . S
H1240 N1228 0.984 . S
H1241 N1228 0.985 . S
C1242 C1243 1.363 . S
C1242 C1248 1.379 . S
C1242 N1250 1.356 . S
C1243 C1242 1.363 . S
C1243 C1249 1.363 . S
C1244 C1245 1.363 . S
C1244 C1249 1.379 . S
C1244 N1251 1.356 . S
C1245 C1244 1.363 . S
C1245 C1248 1.363 . S
N1246 C1248 1.356 . S
N1246 H1258 0.984 . S
N1246 H1259 0.985 . S
N1247 C1249 1.356 . S
N1247 H1252 0.984 . S
N1247 H1253 0.985 . S
C1248 C1242 1.379 . S
C1248 C1245 1.363 . S
C1248 N1246 1.356 . S
C1249 C1243 1.363 . S
C1249 C1244 1.379 . S
C1249 N1247 1.356 . S
N1250 C1242 1.356 . S
N1250 H1256 0.984 . S
N1250 H1257 0.984 . S
N1251 C1244 1.356 . S
N1251 H1254 0.984 . S
N1251 H1255 0.985 . S
H1252 N1247 0.984 . S
H1253 N1247 0.985 . S
H1254 N1251 0.984 . S
H1255 N1251 0.985 . S
H1256 N1250 0.984 . S
H1257 N1250 0.984 . S
H1258 N1246 0.984 . S
H1259 N1246 0.985 . S
C1260 C1261 1.363 . S
C1260 C1266 1.379 . S
C1260 N1268 1.356 1_554 S
C1261 C1260 1.363 . S
C1261 C1267 1.363 . S
C1262 C1263 1.363 . S
C1262 C1267 1.379 . S
C1262 N1269 1.356 . S
C1263 C1262 1.363 . S
C1263 C1266 1.363 . S
N1264 C1266 1.356 1_556 S
N1264 H1276 0.984 . S
N1264 H1277 0.985 . S
N1265 C1267 1.356 . S
N1265 H1270 0.984 . S
N1265 H1271 0.985 . S
C1266 C1260 1.379 . S
C1266 C1263 1.363 . S
C1266 N1264 1.356 1_554 S
C1267 C1261 1.363 . S
C1267 C1262 1.379 . S
C1267 N1265 1.356 . S
N1268 C1260 1.356 1_556 S
N1268 H1274 0.984 . S
N1268 H1275 0.984 1_556 S
N1269 C1262 1.356 . S
N1269 H1272 0.984 . S
N1269 H1273 0.985 . S
H1270 N1265 0.984 . S
H1271 N1265 0.985 . S
H1272 N1269 0.984 . S
H1273 N1269 0.985 . S
H1274 N1268 0.984 . S
H1275 N1268 0.984 1_554 S
H1276 N1264 0.984 . S
H1277 N1264 0.985 . S
C1278 C1279 1.363 . S
C1278 C1284 1.379 . S
C1278 N1286 1.356 1_554 S
C1279 C1278 1.363 . S
C1279 C1285 1.363 . S
C1280 C1281 1.363 . S
C1280 C1285 1.379 . S
C1280 N1287 1.356 . S
C1281 C1280 1.363 . S
C1281 C1284 1.363 . S
N1282 C1284 1.356 . S
N1282 H1294 0.984 1_554 S
N1282 H1295 0.985 . S
N1283 C1285 1.356 . S
N1283 H1288 0.984 . S
N1283 H1289 0.985 . S
C1284 C1278 1.379 . S
C1284 C1281 1.363 . S
C1284 N1282 1.356 . S
C1285 C1279 1.363 . S
C1285 C1280 1.379 . S
C1285 N1283 1.356 . S
N1286 C1278 1.356 1_556 S
N1286 H1292 0.984 . S
N1286 H1293 0.984 . S
N1287 C1280 1.356 . S
N1287 H1290 0.984 . S
N1287 H1291 0.985 . S
H1288 N1283 0.984 . S
H1289 N1283 0.985 . S
H1290 N1287 0.984 . S
H1291 N1287 0.985 . S
H1292 N1286 0.984 . S
H1293 N1286 0.984 . S
H1294 N1282 0.984 1_556 S
H1295 N1282 0.985 . S
C1296 C1297 1.363 . S
C1296 C1302 1.379 . S
C1296 N1304 1.356 1_554 S
C1297 C1296 1.363 . S
C1297 C1303 1.363 . S
C1298 C1299 1.363 . S
C1298 C1303 1.379 . S
C1298 N1305 1.356 . S
C1299 C1298 1.363 . S
C1299 C1302 1.363 . S
N1300 C1302 1.356 1_556 S
N1300 H1312 0.984 . S
N1300 H1313 0.985 . S
N1301 C1303 1.356 . S
N1301 H1306 0.984 . S
N1301 H1307 0.985 . S
C1302 C1296 1.379 . S
C1302 C1299 1.363 . S
C1302 N1300 1.356 1_554 S
C1303 C1297 1.363 . S
C1303 C1298 1.379 . S
C1303 N1301 1.356 . S
N1304 C1296 1.356 1_556 S
N1304 H1310 0.984 . S
N1304 H1311 0.984 1_556 S
N1305 C1298 1.356 . S
N1305 H1308 0.984 . S
N1305 H1309 0.985 . S
H1306 N1301 0.984 . S
H1307 N1301 0.985 . S
H1308 N1305 0.984 . S
H1309 N1305 0.985 . S
H1310 N1304 0.984 . S
H1311 N1304 0.984 1_554 S
H1312 N1300 0.984 . S
H1313 N1300 0.985 . S
C1314 C1315 1.363 . S
C1314 C1320 1.379 . S
C1314 N1322 1.356 . S
C1315 C1314 1.363 . S
C1315 C1321 1.363 . S
C1316 C1317 1.363 . S
C1316 C1321 1.379 . S
C1316 N1323 1.356 . S
C1317 C1316 1.363 . S
C1317 C1320 1.363 . S
N1318 C1320 1.356 . S
N1318 H1330 0.984 . S
N1318 H1331 0.985 . S
N1319 C1321 1.356 . S
N1319 H1324 0.984 . S
N1319 H1325 0.985 . S
C1320 C1314 1.379 . S
C1320 C1317 1.363 . S
C1320 N1318 1.356 . S
C1321 C1315 1.363 . S
C1321 C1316 1.379 . S
C1321 N1319 1.356 . S
N1322 C1314 1.356 . S
N1322 H1328 0.984 1_556 S
N1322 H1329 0.984 . S
N1323 C1316 1.356 . S
N1323 H1326 0.984 . S
N1323 H1327 0.985 . S
H1324 N1319 0.984 . S
H1325 N1319 0.985 . S
H1326 N1323 0.984 . S
H1327 N1323 0.985 . S
H1328 N1322 0.984 1_554 S
H1329 N1322 0.984 . S
H1330 N1318 0.984 . S
H1331 N1318 0.985 . S
C1332 C1333 1.363 . S
C1332 C1338 1.379 . S
C1332 N1340 1.356 . S
C1333 C1332 1.363 . S
C1333 C1339 1.363 . S
C1334 C1335 1.363 . S
C1334 C1339 1.379 . S
C1334 N1341 1.356 1_556 S
C1335 C1334 1.363 . S
C1335 C1338 1.363 . S
N1336 C1338 1.356 . S
N1336 H1348 0.984 . S
N1336 H1349 0.985 . S
N1337 C1339 1.356 1_554 S
N1337 H1342 0.984 . S
N1337 H1343 0.985 . S
C1338 C1332 1.379 . S
C1338 C1335 1.363 . S
C1338 N1336 1.356 . S
C1339 C1333 1.363 . S
C1339 C1334 1.379 . S
C1339 N1337 1.356 1_556 S
N1340 C1332 1.356 . S
N1340 H1346 0.984 . S
N1340 H1347 0.984 . S
N1341 C1334 1.356 1_554 S
N1341 H1344 0.984 1_554 S
N1341 H1345 0.985 . S
H1342 N1337 0.984 . S
H1343 N1337 0.985 . S
H1344 N1341 0.984 1_556 S
H1345 N1341 0.985 . S
H1346 N1340 0.984 . S
H1347 N1340 0.984 . S
H1348 N1336 0.984 . S
H1349 N1336 0.985 . S
C1350 C1351 1.363 . S
C1350 C1356 1.379 . S
C1350 N1358 1.356 1_556 S
C1351 C1350 1.363 . S
C1351 C1357 1.363 . S
C1352 C1353 1.363 . S
C1352 C1357 1.379 . S
C1352 N1359 1.356 . S
C1353 C1352 1.363 . S
C1353 C1356 1.363 . S
N1354 C1356 1.356 . S
N1354 H1366 0.984 1_556 S
N1354 H1367 0.985 . S
N1355 C1357 1.356 . S
N1355 H1360 0.984 . S
N1355 H1361 0.985 . S
C1356 C1350 1.379 . S
C1356 C1353 1.363 . S
C1356 N1354 1.356 . S
C1357 C1351 1.363 . S
C1357 C1352 1.379 . S
C1357 N1355 1.356 . S
N1358 C1350 1.356 1_554 S
N1358 H1364 0.984 . S
N1358 H1365 0.986 . S
N1359 C1352 1.356 . S
N1359 H1362 0.984 . S
N1359 H1363 0.985 . S
H1360 N1355 0.984 . S
H1361 N1355 0.985 . S
H1362 N1359 0.984 . S
H1363 N1359 0.985 . S
H1364 N1358 0.984 . S
H1365 N1358 0.986 . S
H1366 N1354 0.984 1_554 S
H1367 N1354 0.985 . S
C1368 C1369 1.363 . S
C1368 C1374 1.379 . S
C1368 N1376 1.356 . S
C1369 C1368 1.363 . S
C1369 C1375 1.363 . S
C1370 C1371 1.363 . S
C1370 C1375 1.379 . S
C1370 N1377 1.356 . S
C1371 C1370 1.363 . S
C1371 C1374 1.363 . S
N1372 C1374 1.356 . S
N1372 H1384 0.984 . S
N1372 H1385 0.985 . S
N1373 C1375 1.356 . S
N1373 H1378 0.984 . S
N1373 H1379 0.985 . S
C1374 C1368 1.379 . S
C1374 C1371 1.363 . S
C1374 N1372 1.356 . S
C1375 C1369 1.363 . S
C1375 C1370 1.379 . S
C1375 N1373 1.356 . S
N1376 C1368 1.356 . S
N1376 H1382 0.984 . S
N1376 H1383 0.984 . S
N1377 C1370 1.356 . S
N1377 H1380 0.984 . S
N1377 H1381 0.985 . S
H1378 N1373 0.984 . S
H1379 N1373 0.985 . S
H1380 N1377 0.984 . S
H1381 N1377 0.985 . S
H1382 N1376 0.984 . S
H1383 N1376 0.984 . S
H1384 N1372 0.984 . S
H1385 N1372 0.985 . S
C1386 C1387 1.363 . S
C1386 C1392 1.379 . S
C1386 N1394 1.356 . S
C1387 C1386 1.363 . S
C1387 C1393 1.363 . S
C1388 C1389 1.363 . S
C1388 C1393 1.379 . S
C1388 N1395 1.356 . S
C1389 C1388 1.363 . S
C1389 C1392 1.363 . S
N1390 C1392 1.356 . S
N1390 H1402 0.984 . S
N1390 H1403 0.985 . S
N1391 C1393 1.356 . S
N1391 H1396 0.984 . S
N1391 H1397 0.985 . S
C1392 C1386 1.379 . S
C1392 C1389 1.363 . S
C1392 N1390 1.356 . S
C1393 C1387 1.363 . S
C1393 C1388 1.379 . S
C1393 N1391 1.356 . S
N1394 C1386 1.356 . S
N1394 H1400 0.984 . S
N1394 H1401 0.984 . S
N1395 C1388 1.356 . S
N1395 H1398 0.984 . S
N1395 H1399 0.985 . S
H1396 N1391 0.984 . S
H1397 N1391 0.985 . S
H1398 N1395 0.984 . S
H1399 N1395 0.985 . S
H1400 N1394 0.984 . S
H1401 N1394 0.984 . S
H1402 N1390 0.984 . S
H1403 N1390 0.985 . S
C1404 C1405 1.363 . S
C1404 C1410 1.379 . S
C1404 N1412 1.356 . S
C1405 C1404 1.363 . S
C1405 C1411 1.363 . S
C1406 C1407 1.363 . S
C1406 C1411 1.379 . S
C1406 N1413 1.356 . S
C1407 C1406 1.363 . S
C1407 C1410 1.363 . S
N1408 C1410 1.356 . S
N1408 H1420 0.984 . S
N1408 H1421 0.985 . S
N1409 C1411 1.356 . S
N1409 H1414 0.984 . S
N1409 H1415 0.985 . S
C1410 C1404 1.379 . S
C1410 C1407 1.363 . S
C1410 N1408 1.356 . S
C1411 C1405 1.363 . S
C1411 C1406 1.379 . S
C1411 N1409 1.356 . S
N1412 C1404 1.356 . S
N1412 H1418 0.984 . S
N1412 H1419 0.984 . S
N1413 C1406 1.356 . S
N1413 H1416 0.984 . S
N1413 H1417 0.985 . S
H1414 N1409 0.984 . S
H1415 N1409 0.985 . S
H1416 N1413 0.984 . S
H1417 N1413 0.985 . S
H1418 N1412 0.984 . S
H1419 N1412 0.984 . S
H1420 N1408 0.984 . S
H1421 N1408 0.985 . S
C1422 C1423 1.363 . S
C1422 C1428 1.379 . S
C1422 N1430 1.356 . S
C1423 C1422 1.363 . S
C1423 C1429 1.363 . S
C1424 C1425 1.363 . S
C1424 C1429 1.379 . S
C1424 N1431 1.356 1_545 S
C1425 C1424 1.363 . S
C1425 C1428 1.363 . S
N1426 C1428 1.356 . S
N1426 H1438 0.984 . S
N1426 H1439 0.985 . S
N1427 C1429 1.356 . S
N1427 H1432 0.984 . S
N1427 H1433 0.985 . S
C1428 C1422 1.379 . S
C1428 C1425 1.363 . S
C1428 N1426 1.356 . S
C1429 C1423 1.363 . S
C1429 C1424 1.379 . S
C1429 N1427 1.356 . S
N1430 C1422 1.356 . S
N1430 H1436 0.984 . S
N1430 H1437 0.984 . S
N1431 C1424 1.356 1_565 S
N1431 H1434 0.984 . S
N1431 H1435 0.985 . S
H1432 N1427 0.984 . S
H1433 N1427 0.985 . S
H1434 N1431 0.984 . S
H1435 N1431 0.985 . S
H1436 N1430 0.984 . S
H1437 N1430 0.984 . S
H1438 N1426 0.984 . S
H1439 N1426 0.985 . S
C1440 C1441 1.363 . S
C1440 C1446 1.379 . S
C1440 N1448 1.356 . S
C1441 C1440 1.363 . S
C1441 C1447 1.363 . S
C1442 C1443 1.363 . S
C1442 C1447 1.379 . S
C1442 N1449 1.356 . S
C1443 C1442 1.363 . S
C1443 C1446 1.363 . S
N1444 C1446 1.356 . S
N1444 H1456 0.984 . S
N1444 H1457 0.985 . S
N1445 C1447 1.356 1_455 S
N1445 H1450 0.984 . S
N1445 H1451 0.985 . S
C1446 C1440 1.379 . S
C1446 C1443 1.363 . S
C1446 N1444 1.356 . S
C1447 C1441 1.363 . S
C1447 C1442 1.379 . S
C1447 N1445 1.356 1_655 S
N1448 C1440 1.356 . S
N1448 H1454 0.984 . S
N1448 H1455 0.984 . S
N1449 C1442 1.356 . S
N1449 H1452 0.984 . S
N1449 H1453 0.985 . S
H1450 N1445 0.984 . S
H1451 N1445 0.985 . S
H1452 N1449 0.984 . S
H1453 N1449 0.985 . S
H1454 N1448 0.984 . S
H1455 N1448 0.984 . S
H1456 N1444 0.984 . S
H1457 N1444 0.985 . S
C1458 C1459 1.363 . S
C1458 C1464 1.379 . S
C1458 N1466 1.356 . S
C1459 C1458 1.363 . S
C1459 C1465 1.363 . S
C1460 C1461 1.363 . S
C1460 C1465 1.379 . S
C1460 N1467 1.356 . S
C1461 C1460 1.363 . S
C1461 C1464 1.363 . S
N1462 C1464 1.356 . S
N1462 H1474 0.984 . S
N1462 H1475 0.985 . S
N1463 C1465 1.356 . S
N1463 H1468 0.984 . S
N1463 H1469 0.985 . S
C1464 C1458 1.379 . S
C1464 C1461 1.363 . S
C1464 N1462 1.356 . S
C1465 C1459 1.363 . S
C1465 C1460 1.379 . S
C1465 N1463 1.356 . S
N1466 C1458 1.356 . S
N1466 H1472 0.984 . S
N1466 H1473 0.984 . S
N1467 C1460 1.356 . S
N1467 H1470 0.984 . S
N1467 H1471 0.985 . S
H1468 N1463 0.984 . S
H1469 N1463 0.985 . S
H1470 N1467 0.984 . S
H1471 N1467 0.985 . S
H1472 N1466 0.984 . S
H1473 N1466 0.984 . S
H1474 N1462 0.984 . S
H1475 N1462 0.985 . S
C1476 C1477 1.363 . S
C1476 C1482 1.379 . S
C1476 N1484 1.356 . S
C1477 C1476 1.363 . S
C1477 C1483 1.363 . S
C1478 C1479 1.363 . S
C1478 C1483 1.379 . S
C1478 N1485 1.356 . S
C1479 C1478 1.363 . S
C1479 C1482 1.363 . S
N1480 C1482 1.356 1_655 S
N1480 H1492 0.984 . S
N1480 H1493 0.985 . S
N1481 C1483 1.356 . S
N1481 H1486 0.984 . S
N1481 H1487 0.985 . S
C1482 C1476 1.379 . S
C1482 C1479 1.363 . S
C1482 N1480 1.356 1_455 S
C1483 C1477 1.363 . S
C1483 C1478 1.379 . S
C1483 N1481 1.356 . S
N1484 C1476 1.356 . S
N1484 H1490 0.984 . S
N1484 H1491 0.984 . S
N1485 C1478 1.356 . S
N1485 H1488 0.984 . S
N1485 H1489 0.985 . S
H1486 N1481 0.984 . S
H1487 N1481 0.985 . S
H1488 N1485 0.984 . S
H1489 N1485 0.985 . S
H1490 N1484 0.984 . S
H1491 N1484 0.984 . S
H1492 N1480 0.984 . S
H1493 N1480 0.985 . S
C1494 C1495 1.363 . S
C1494 C1500 1.379 . S
C1494 N1502 1.356 . S
C1495 C1494 1.363 . S
C1495 C1501 1.363 . S
C1496 C1497 1.363 . S
C1496 C1501 1.379 . S
C1496 N1503 1.356 . S
C1497 C1496 1.363 . S
C1497 C1500 1.363 . S
N1498 C1500 1.356 . S
N1498 H1510 0.984 . S
N1498 H1511 0.985 . S
N1499 C1501 1.356 . S
N1499 H1504 0.984 . S
N1499 H1505 0.985 . S
C1500 C1494 1.379 . S
C1500 C1497 1.363 . S
C1500 N1498 1.356 . S
C1501 C1495 1.363 . S
C1501 C1496 1.379 . S
C1501 N1499 1.356 . S
N1502 C1494 1.356 . S
N1502 H1508 0.984 . S
N1502 H1509 0.984 . S
N1503 C1496 1.356 . S
N1503 H1506 0.984 . S
N1503 H1507 0.985 . S
H1504 N1499 0.984 . S
H1505 N1499 0.985 . S
H1506 N1503 0.984 . S
H1507 N1503 0.985 . S
H1508 N1502 0.984 . S
H1509 N1502 0.984 . S
H1510 N1498 0.984 . S
H1511 N1498 0.985 . S
C1512 C1513 1.363 . S
C1512 C1518 1.379 . S
C1512 N1520 1.356 1_565 S
C1513 C1512 1.363 . S
C1513 C1519 1.363 . S
C1514 C1515 1.363 . S
C1514 C1519 1.379 . S
C1514 N1521 1.356 . S
C1515 C1514 1.363 . S
C1515 C1518 1.363 . S
N1516 C1518 1.356 . S
N1516 H1528 0.984 . S
N1516 H1529 0.985 . S
N1517 C1519 1.356 . S
N1517 H1522 0.984 . S
N1517 H1523 0.985 . S
C1518 C1512 1.379 . S
C1518 C1515 1.363 . S
C1518 N1516 1.356 . S
C1519 C1513 1.363 . S
C1519 C1514 1.379 . S
C1519 N1517 1.356 . S
N1520 C1512 1.356 1_545 S
N1520 H1526 0.984 . S
N1520 H1527 0.984 . S
N1521 C1514 1.356 . S
N1521 H1524 0.984 . S
N1521 H1525 0.985 . S
H1522 N1517 0.984 . S
H1523 N1517 0.985 . S
H1524 N1521 0.984 . S
H1525 N1521 0.985 . S
H1526 N1520 0.984 . S
H1527 N1520 0.984 . S
H1528 N1516 0.984 . S
H1529 N1516 0.985 . S
C1530 C1531 1.363 . S
C1530 C1536 1.379 . S
C1530 N1538 1.356 . S
C1531 C1530 1.363 . S
C1531 C1537 1.363 . S
C1532 C1533 1.363 . S
C1532 C1537 1.379 1_545 S
C1532 N1539 1.356 . S
C1533 C1532 1.363 . S
C1533 C1536 1.363 1_545 S
N1534 C1536 1.356 1_545 S
N1534 H1546 0.984 . S
N1534 H1547 0.985 . S
N1535 C1537 1.356 . S
N1535 H1540 0.984 . S
N1535 H1541 0.985 . S
C1536 C1530 1.379 . S
C1536 C1533 1.363 1_565 S
C1536 N1534 1.356 1_565 S
C1537 C1531 1.363 . S
C1537 C1532 1.379 1_565 S
C1537 N1535 1.356 . S
N1538 C1530 1.356 . S
N1538 H1544 0.984 . S
N1538 H1545 0.984 . S
N1539 C1532 1.356 . S
N1539 H1542 0.984 . S
N1539 H1543 0.985 . S
H1540 N1535 0.984 . S
H1541 N1535 0.985 . S
H1542 N1539 0.984 . S
H1543 N1539 0.985 . S
H1544 N1538 0.984 . S
H1545 N1538 0.984 . S
H1546 N1534 0.984 . S
H1547 N1534 0.985 . S
C1548 C1549 1.363 . S
C1548 C1554 1.379 1_655 S
C1548 N1556 1.356 . S
C1549 C1548 1.363 . S
C1549 C1555 1.363 1_655 S
C1550 C1551 1.363 . S
C1550 C1555 1.379 . S
C1550 N1557 1.356 . S
C1551 C1550 1.363 . S
C1551 C1554 1.363 . S
N1552 C1554 1.356 . S
N1552 H1564 0.984 1_455 S
N1552 H1565 0.985 . S
N1553 C1555 1.356 . S
N1553 H1558 0.984 1_455 S
N1553 H1559 0.985 . S
C1554 C1548 1.379 1_455 S
C1554 C1551 1.363 . S
C1554 N1552 1.356 . S
C1555 C1549 1.363 1_455 S
C1555 C1550 1.379 . S
C1555 N1553 1.356 . S
N1556 C1548 1.356 . S
N1556 H1562 0.984 . S
N1556 H1563 0.984 . S
N1557 C1550 1.356 . S
N1557 H1560 0.984 . S
N1557 H1561 0.985 . S
H1558 N1553 0.984 1_655 S
H1559 N1553 0.985 . S
H1560 N1557 0.984 . S
H1561 N1557 0.985 . S
H1562 N1556 0.984 . S
H1563 N1556 0.984 . S
H1564 N1552 0.984 1_655 S
H1565 N1552 0.985 . S
C1566 C1567 1.363 . S
C1566 C1572 1.379 . S
C1566 N1574 1.356 . S
C1567 C1566 1.363 . S
C1567 C1573 1.363 . S
C1568 C1569 1.363 . S
C1568 C1573 1.379 . S
C1568 N1575 1.356 . S
C1569 C1568 1.363 . S
C1569 C1572 1.363 . S
N1570 C1572 1.356 . S
N1570 H1582 0.984 . S
N1570 H1583 0.985 . S
N1571 C1573 1.356 . S
N1571 H1576 0.984 . S
N1571 H1577 0.985 . S
C1572 C1566 1.379 . S
C1572 C1569 1.363 . S
C1572 N1570 1.356 . S
C1573 C1567 1.363 . S
C1573 C1568 1.379 . S
C1573 N1571 1.356 . S
N1574 C1566 1.356 . S
N1574 H1580 0.984 . S
N1574 H1581 0.984 . S
N1575 C1568 1.356 . S
N1575 H1578 0.984 . S
N1575 H1579 0.985 . S
H1576 N1571 0.984 . S
H1577 N1571 0.985 . S
H1578 N1575 0.984 . S
H1579 N1575 0.985 . S
H1580 N1574 0.984 . S
H1581 N1574 0.984 . S
H1582 N1570 0.984 . S
H1583 N1570 0.985 . S
C1584 C1585 1.363 . S
C1584 C1590 1.379 1_455 S
C1584 N1592 1.356 . S
C1585 C1584 1.363 . S
C1585 C1591 1.363 1_455 S
C1586 C1587 1.363 . S
C1586 C1591 1.379 . S
C1586 N1593 1.356 . S
C1587 C1586 1.363 . S
C1587 C1590 1.363 . S
N1588 C1590 1.356 . S
N1588 H1600 0.984 1_655 S
N1588 H1601 0.985 . S
N1589 C1591 1.356 . S
N1589 H1594 0.984 1_655 S
N1589 H1595 0.985 . S
C1590 C1584 1.379 1_655 S
C1590 C1587 1.363 . S
C1590 N1588 1.356 . S
C1591 C1585 1.363 1_655 S
C1591 C1586 1.379 . S
C1591 N1589 1.356 . S
N1592 C1584 1.356 . S
N1592 H1598 0.984 . S
N1592 H1599 0.984 . S
N1593 C1586 1.356 . S
N1593 H1596 0.984 . S
N1593 H1597 0.985 . S
H1594 N1589 0.984 1_455 S
H1595 N1589 0.985 . S
H1596 N1593 0.984 . S
H1597 N1593 0.985 . S
H1598 N1592 0.984 . S
H1599 N1592 0.984 . S
H1600 N1588 0.984 1_455 S
H1601 N1588 0.985 . S
C1602 C1603 1.363 . S
C1602 C1608 1.379 . S
C1602 N1610 1.356 . S
C1603 C1602 1.363 . S
C1603 C1609 1.363 . S
C1604 C1605 1.363 . S
C1604 C1609 1.379 . S
C1604 N1611 1.356 . S
C1605 C1604 1.363 . S
C1605 C1608 1.363 . S
N1606 C1608 1.356 . S
N1606 H1618 0.984 . S
N1606 H1619 0.985 . S
N1607 C1609 1.356 . S
N1607 H1612 0.984 . S
N1607 H1613 0.985 . S
C1608 C1602 1.379 . S
C1608 C1605 1.363 . S
C1608 N1606 1.356 . S
C1609 C1603 1.363 . S
C1609 C1604 1.379 . S
C1609 N1607 1.356 . S
N1610 C1602 1.356 . S
N1610 H1616 0.984 . S
N1610 H1617 0.984 . S
N1611 C1604 1.356 . S
N1611 H1614 0.984 . S
N1611 H1615 0.985 . S
H1612 N1607 0.984 . S
H1613 N1607 0.985 . S
H1614 N1611 0.984 . S
H1615 N1611 0.985 . S
H1616 N1610 0.984 . S
H1617 N1610 0.984 . S
H1618 N1606 0.984 . S
H1619 N1606 0.985 . S
C1620 C1621 1.363 1_545 S
C1620 C1626 1.379 . S
C1620 N1628 1.356 . S
C1621 C1620 1.363 1_565 S
C1621 C1627 1.363 . S
C1622 C1623 1.350 1_565 S
C1622 C1627 1.379 . S
C1622 N1629 1.353 . S
C1623 C1622 1.350 1_545 S
C1623 C1626 1.363 . S
N1624 C1626 1.356 . S
N1624 H1636 0.984 . S
N1624 H1637 0.985 . S
N1625 C1627 1.356 . S
N1625 H1630 0.984 . S
N1625 H1631 0.985 . S
C1626 C1620 1.379 . S
C1626 C1623 1.363 . S
C1626 N1624 1.356 . S
C1627 C1621 1.363 . S
C1627 C1622 1.379 . S
C1627 N1625 1.356 . S
N1628 C1620 1.356 . S
N1628 H1634 0.984 . S
N1628 H1635 0.984 1_545 S
N1629 C1622 1.353 . S
N1629 H1632 0.979 1_565 S
N1629 H1633 1.004 . S
H1630 N1625 0.984 . S
H1631 N1625 0.985 . S
H1632 N1629 0.979 1_545 S
H1633 N1629 1.004 . S
H1634 N1628 0.984 . S
H1635 N1628 0.984 1_565 S
H1636 N1624 0.984 . S
H1637 N1624 0.985 . S
C1638 C1639 1.363 . S
C1638 C1644 1.379 . S
C1638 N1646 1.356 . S
C1639 C1638 1.363 . S
C1639 C1645 1.363 1_554 S
C1640 C1641 1.363 . S
C1640 C1645 1.379 . S
C1640 N1647 1.356 . S
C1641 C1640 1.363 . S
C1641 C1644 1.363 1_556 S
N1642 C1644 1.356 . S
N1642 H1654 0.984 . S
N1642 H1655 0.985 . S
N1643 C1645 1.356 . S
N1643 H1648 0.984 . S
N1643 H1649 0.985 . S
C1644 C1638 1.379 . S
C1644 C1641 1.363 1_554 S
C1644 N1642 1.356 . S
C1645 C1639 1.363 1_556 S
C1645 C1640 1.379 . S
C1645 N1643 1.356 . S
N1646 C1638 1.356 . S
N1646 H1652 0.984 . S
N1646 H1653 0.984 . S
N1647 C1640 1.356 . S
N1647 H1650 0.984 . S
N1647 H1651 0.985 . S
H1648 N1643 0.984 . S
H1649 N1643 0.985 . S
H1650 N1647 0.984 . S
H1651 N1647 0.985 . S
H1652 N1646 0.984 . S
H1653 N1646 0.984 . S
H1654 N1642 0.984 . S
H1655 N1642 0.985 . S
C1656 C1657 1.363 . S
C1656 C1662 1.379 1_565 S
C1656 N1664 1.356 . S
C1657 C1656 1.363 . S
C1657 C1663 1.363 1_554 S
C1658 C1659 1.363 . S
C1658 C1663 1.379 1_545 S
C1658 N1665 1.356 . S
C1659 C1658 1.363 . S
C1659 C1662 1.363 1_556 S
N1660 C1662 1.356 . S
N1660 H1672 0.984 . S
N1660 H1673 0.985 . S
N1661 C1663 1.356 . S
N1661 H1666 0.984 . S
N1661 H1667 0.985 . S
C1662 C1656 1.379 1_545 S
C1662 C1659 1.363 1_554 S
C1662 N1660 1.356 . S
C1663 C1657 1.363 1_556 S
C1663 C1658 1.379 1_565 S
C1663 N1661 1.356 . S
N1664 C1656 1.356 . S
N1664 H1670 0.984 . S
N1664 H1671 0.984 . S
N1665 C1658 1.356 . S
N1665 H1668 0.984 . S
N1665 H1669 0.985 . S
H1666 N1661 0.984 . S
H1667 N1661 0.985 . S
H1668 N1665 0.984 . S
H1669 N1665 0.985 . S
H1670 N1664 0.984 . S
H1671 N1664 0.984 . S
H1672 N1660 0.984 . S
H1673 N1660 0.985 . S
C1674 C1675 1.363 1_554 S
C1674 C1680 1.379 1_655 S
C1674 N1682 1.356 . S
C1675 C1674 1.363 1_556 S
C1675 C1681 1.363 . S
C1676 C1677 1.363 1_556 S
C1676 C1681 1.379 1_455 S
C1676 N1683 1.356 . S
C1677 C1676 1.363 1_554 S
C1677 C1680 1.363 . S
N1678 C1680 1.356 . S
N1678 H1690 0.984 . S
N1678 H1691 0.985 . S
N1679 C1681 1.356 . S
N1679 H1684 0.984 . S
N1679 H1685 0.985 . S
C1680 C1674 1.379 1_455 S
C1680 C1677 1.363 . S
C1680 N1678 1.356 . S
C1681 C1675 1.363 . S
C1681 C1676 1.379 1_655 S
C1681 N1679 1.356 . S
N1682 C1674 1.356 . S
N1682 H1688 0.984 . S
N1682 H1689 0.984 . S
N1683 C1676 1.356 . S
N1683 H1686 0.984 . S
N1683 H1687 0.985 . S
H1684 N1679 0.984 . S
H1685 N1679 0.985 . S
H1686 N1683 0.984 . S
H1687 N1683 0.985 . S
H1688 N1682 0.984 . S
H1689 N1682 0.984 . S
H1690 N1678 0.984 . S
H1691 N1678 0.985 . S
C1692 C1693 1.363 1_554 S
C1692 C1698 1.379 . S
C1692 N1700 1.356 . S
C1693 C1692 1.363 1_556 S
C1693 C1699 1.363 . S
C1694 C1695 1.363 1_556 S
C1694 C1699 1.379 . S
C1694 N1701 1.356 . S
C1695 C1694 1.363 1_554 S
C1695 C1698 1.363 . S
N1696 C1698 1.356 . S
N1696 H1708 0.984 . S
N1696 H1709 0.985 . S
N1697 C1699 1.356 . S
N1697 H1702 0.984 . S
N1697 H1703 0.985 . S
C1698 C1692 1.379 . S
C1698 C1695 1.363 . S
C1698 N1696 1.356 . S
C1699 C1693 1.363 . S
C1699 C1694 1.379 . S
C1699 N1697 1.356 . S
N1700 C1692 1.356 . S
N1700 H1706 0.984 . S
N1700 H1707 0.984 . S
N1701 C1694 1.356 . S
N1701 H1704 0.984 . S
N1701 H1705 0.985 . S
H1702 N1697 0.984 . S
H1703 N1697 0.985 . S
H1704 N1701 0.984 . S
H1705 N1701 0.985 . S
H1706 N1700 0.984 . S
H1707 N1700 0.984 . S
H1708 N1696 0.984 . S
H1709 N1696 0.985 . S
C1710 C1711 1.363 . S
C1710 C1716 1.379 1_565 S
C1710 N1718 1.356 . S
C1711 C1710 1.363 . S
C1711 C1717 1.363 1_554 S
C1712 C1713 1.363 . S
C1712 C1717 1.379 1_545 S
C1712 N1719 1.356 . S
C1713 C1712 1.363 . S
C1713 C1716 1.363 1_556 S
N1714 C1716 1.356 . S
N1714 H1726 0.984 . S
N1714 H1727 0.985 . S
N1715 C1717 1.356 . S
N1715 H1720 0.984 . S
N1715 H1721 0.985 . S
C1716 C1710 1.379 1_545 S
C1716 C1713 1.363 1_554 S
C1716 N1714 1.356 . S
C1717 C1711 1.363 1_556 S
C1717 C1712 1.379 1_565 S
C1717 N1715 1.356 . S
N1718 C1710 1.356 . S
N1718 H1724 0.984 . S
N1718 H1725 0.984 . S
N1719 C1712 1.356 . S
N1719 H1722 0.984 . S
N1719 H1723 0.985 . S
H1720 N1715 0.984 . S
H1721 N1715 0.985 . S
H1722 N1719 0.984 . S
H1723 N1719 0.985 . S
H1724 N1718 0.984 . S
H1725 N1718 0.984 . S
H1726 N1714 0.984 . S
H1727 N1714 0.985 . S
C1728 C1729 1.363 1_554 S
C1728 C1734 1.379 1_655 S
C1728 N1736 1.356 . S
C1729 C1728 1.363 1_556 S
C1729 C1735 1.363 . S
C1730 C1731 1.363 1_556 S
C1730 C1735 1.379 1_455 S
C1730 N1737 1.356 . S
C1731 C1730 1.363 1_554 S
C1731 C1734 1.363 . S
N1732 C1734 1.356 . S
N1732 H1744 0.984 . S
N1732 H1745 0.985 . S
N1733 C1735 1.356 . S
N1733 H1738 0.984 . S
N1733 H1739 0.985 . S
C1734 C1728 1.379 1_455 S
C1734 C1731 1.363 . S
C1734 N1732 1.356 . S
C1735 C1729 1.363 . S
C1735 C1730 1.379 1_655 S
C1735 N1733 1.356 . S
N1736 C1728 1.356 . S
N1736 H1742 0.984 . S
N1736 H1743 0.984 . S
N1737 C1730 1.356 . S
N1737 H1740 0.984 . S
N1737 H1741 0.985 . S
H1738 N1733 0.984 . S
H1739 N1733 0.985 . S
H1740 N1737 0.984 . S
H1741 N1737 0.985 . S
H1742 N1736 0.984 . S
H1743 N1736 0.984 . S
H1744 N1732 0.984 . S
H1745 N1732 0.985 . S
C613 C17 1.705 . S
C615 C357 1.702 . S
C631 C51 1.705 . S
C633 C391 1.702 . S
C649 C85 1.705 . S
C651 C323 1.702 . S
C667 C119 1.705 . S
C669 C493 1.702 . S
C685 C153 1.705 . S
C687 C425 1.702 . S
C703 C459 1.700 . S
C705 C187 1.707 . S
C721 C561 1.565 . S
C723 C221 1.565 . S
C739 C255 1.565 . S
C741 C595 1.565 . S
C757 C289 1.565 . S
C759 C527 1.565 . S
C775 C1 2.177 . S
C777 C173 2.177 . S
C793 C103 2.177 . S
C795 C37 2.177 . S
C811 C139 2.177 . S
C813 C69 2.177 . S
C829 C35 1.674 . S
C831 C137 1.674 . S
C847 C171 1.674 . S
C849 C71 1.674 . S
C865 C105 1.674 . S
C867 C3 1.674 . S
C883 C375 2.130 . S
C885 C205 2.131 . S
C901 C309 2.130 . S
C903 C241 2.131 . S
C919 C341 2.130 . S
C921 C273 2.131 . S
C937 C239 1.624 . S
C939 C343 1.616 . S
C955 C275 1.624 . S
C957 C377 1.616 . S
C973 C307 1.617 . S
C975 C207 1.623 . S
C991 C581 2.133 . S
C993 C409 2.129 . S
C1009 C445 2.130 . S
C1011 C513 2.131 . S
C1027 C479 2.130 . S
C1029 C545 2.131 . S
C1045 C547 1.624 . S
C1047 C443 1.616 . S
C1063 C579 1.624 . S
C1065 C477 1.616 . S
C1081 C511 1.624 . S
C1083 C411 1.616 . S
C1099 C15 1.415 . S
C1101 C62 1.635 1_455 S
C1117 C74 1.635 . S
C1119 C56 1.415 . S
C1135 C83 1.416 . S
C1137 C6 1.635 1_565 S
C1153 C117 1.415 . S
C1155 C198 1.635 1_545 S
C1171 C158 1.416 . S
C1173 C108 1.635 1_655 S
C1189 C192 1.415 . S
C1191 C164 1.635 . S
C1207 C266 1.638 . S
C1209 C219 1.418 . S
C1225 C260 1.418 . S
C1227 C278 1.638 . S
C1243 C210 1.639 . S
C1245 C287 1.418 . S
C1261 C328 1.398 . S
C1263 C380 1.617 . S
C1279 C334 1.617 . S
C1281 C355 1.398 . S
C1297 C389 1.398 . S
C1299 C346 1.617 . S
C1315 C470 1.617 . S
C1317 C423 1.398 . S
C1333 C504 1.617 . S
C1335 C464 1.398 . S
C1351 C414 1.617 . S
C1353 C498 1.398 . S
C1369 C606 1.638 . S
C1371 C532 1.418 . S
C1387 C538 1.639 . S
C1389 C559 1.418 . S
C1405 C600 1.418 . S
C1407 C550 1.638 . S
C1423 C22 0.827 . S
C1425 C525 0.827 . S
C1441 C566 0.827 . S
C1443 C49 0.827 . S
C1459 C593 0.827 . S
C1461 C90 0.827 . S
C1477 C124 0.827 . S
C1479 C226 0.827 . S
C1495 C253 0.827 . S
C1497 C151 0.827 . S
C1513 C294 0.827 . S
C1515 C185 0.827 . S
C1531 C142 1.213 . S
C1533 C300 1.213 . S
C1549 C232 1.213 . S
C1551 C176 1.213 . S
C1567 C130 1.213 . S
C1569 C244 1.213 . S
C1585 C572 1.213 . S
C1587 C96 1.213 . S
C1603 C28 1.213 . S
C1605 C584 1.213 . S
C1621 C516 1.213 . S
C1623 C40 1.213 . S
C1639 C430 0.844 . S
C1641 C321 0.844 . S
C1657 C457 0.845 . S
C1659 C362 0.845 . S
C1675 C396 0.845 . S
C1677 C491 0.845 . S
C1693 C368 1.212 . S
C1695 C482 1.212 . S
C1711 C436 1.213 . S
C1713 C402 1.213 . S
C1729 C312 1.213 . S
C1731 C448 1.213 . S
