# Generated by pormake.
# Topology unb, (4)-cn, num edge types: 1
# Building blocks:
#     Node 0, Type 0, BuildingBlock: NAHDIM_clean_sbu_0, # of connection points: 4
#     Node 1, Type 0, BuildingBlock: NAHDIM_clean_sbu_0, # of connection points: 4
#     Node 2, Type 0, BuildingBlock: NAHDIM_clean_sbu_0, # of connection points: 4
#     Node 3, Type 0, BuildingBlock: NAHDIM_clean_sbu_0, # of connection points: 4
#     Node 4, Type 0, BuildingBlock: NAHDIM_clean_sbu_0, # of connection points: 4
#     Node 5, Type 0, BuildingBlock: NAHDIM_clean_sbu_0, # of connection points: 4
#     Node 6, Type 0, BuildingBlock: NAHDIM_clean_sbu_0, # of connection points: 4
#     Node 7, Type 0, BuildingBlock: NAHDIM_clean_sbu_0, # of connection points: 4
#     Node 8, Type 0, BuildingBlock: NAHDIM_clean_sbu_0, # of connection points: 4
#     Node 9, Type 0, BuildingBlock: NAHDIM_clean_sbu_0, # of connection points: 4
#     Node 10, Type 0, BuildingBlock: NAHDIM_clean_sbu_0, # of connection points: 4
#     Node 11, Type 0, BuildingBlock: NAHDIM_clean_sbu_0, # of connection points: 4
#     Node 12, Type 0, BuildingBlock: NAHDIM_clean_sbu_0, # of connection points: 4
#     Node 13, Type 0, BuildingBlock: NAHDIM_clean_sbu_0, # of connection points: 4
#     Node 14, Type 0, BuildingBlock: NAHDIM_clean_sbu_0, # of connection points: 4
#     Node 15, Type 0, BuildingBlock: NAHDIM_clean_sbu_0, # of connection points: 4
#     Node 16, Type 0, BuildingBlock: NAHDIM_clean_sbu_0, # of connection points: 4
#     Node 17, Type 0, BuildingBlock: NAHDIM_clean_sbu_0, # of connection points: 4
#     Edge 18, Type (0, 0), BuildingBlock: MIFKUJ_clean_linker_0, # of connection points: 2
#     Edge 19, Type (0, 0), BuildingBlock: MIFKUJ_clean_linker_0, # of connection points: 2
#     Edge 20, Type (0, 0), BuildingBlock: MIFKUJ_clean_linker_0, # of connection points: 2
#     Edge 21, Type (0, 0), BuildingBlock: MIFKUJ_clean_linker_0, # of connection points: 2
#     Edge 22, Type (0, 0), BuildingBlock: MIFKUJ_clean_linker_0, # of connection points: 2
#     Edge 23, Type (0, 0), BuildingBlock: MIFKUJ_clean_linker_0, # of connection points: 2
#     Edge 24, Type (0, 0), BuildingBlock: MIFKUJ_clean_linker_0, # of connection points: 2
#     Edge 25, Type (0, 0), BuildingBlock: MIFKUJ_clean_linker_0, # of connection points: 2
#     Edge 26, Type (0, 0), BuildingBlock: MIFKUJ_clean_linker_0, # of connection points: 2
#     Edge 27, Type (0, 0), BuildingBlock: MIFKUJ_clean_linker_0, # of connection points: 2
#     Edge 28, Type (0, 0), BuildingBlock: MIFKUJ_clean_linker_0, # of connection points: 2
#     Edge 29, Type (0, 0), BuildingBlock: MIFKUJ_clean_linker_0, # of connection points: 2
#     Edge 30, Type (0, 0), BuildingBlock: MIFKUJ_clean_linker_0, # of connection points: 2
#     Edge 31, Type (0, 0), BuildingBlock: MIFKUJ_clean_linker_0, # of connection points: 2
#     Edge 32, Type (0, 0), BuildingBlock: MIFKUJ_clean_linker_0, # of connection points: 2
#     Edge 33, Type (0, 0), BuildingBlock: MIFKUJ_clean_linker_0, # of connection points: 2
#     Edge 34, Type (0, 0), BuildingBlock: MIFKUJ_clean_linker_0, # of connection points: 2
#     Edge 35, Type (0, 0), BuildingBlock: MIFKUJ_clean_linker_0, # of connection points: 2
#     Edge 36, Type (0, 0), BuildingBlock: MIFKUJ_clean_linker_0, # of connection points: 2
#     Edge 37, Type (0, 0), BuildingBlock: MIFKUJ_clean_linker_0, # of connection points: 2
#     Edge 38, Type (0, 0), BuildingBlock: MIFKUJ_clean_linker_0, # of connection points: 2
#     Edge 39, Type (0, 0), BuildingBlock: MIFKUJ_clean_linker_0, # of connection points: 2
#     Edge 40, Type (0, 0), BuildingBlock: MIFKUJ_clean_linker_0, # of connection points: 2
#     Edge 41, Type (0, 0), BuildingBlock: MIFKUJ_clean_linker_0, # of connection points: 2
#     Edge 42, Type (0, 0), BuildingBlock: MIFKUJ_clean_linker_0, # of connection points: 2
#     Edge 43, Type (0, 0), BuildingBlock: MIFKUJ_clean_linker_0, # of connection points: 2
#     Edge 44, Type (0, 0), BuildingBlock: MIFKUJ_clean_linker_0, # of connection points: 2
#     Edge 45, Type (0, 0), BuildingBlock: MIFKUJ_clean_linker_0, # of connection points: 2
#     Edge 46, Type (0, 0), BuildingBlock: MIFKUJ_clean_linker_0, # of connection points: 2
#     Edge 47, Type (0, 0), BuildingBlock: MIFKUJ_clean_linker_0, # of connection points: 2
#     Edge 48, Type (0, 0), BuildingBlock: MIFKUJ_clean_linker_0, # of connection points: 2
#     Edge 49, Type (0, 0), BuildingBlock: MIFKUJ_clean_linker_0, # of connection points: 2
#     Edge 50, Type (0, 0), BuildingBlock: MIFKUJ_clean_linker_0, # of connection points: 2
#     Edge 51, Type (0, 0), BuildingBlock: MIFKUJ_clean_linker_0, # of connection points: 2
#     Edge 52, Type (0, 0), BuildingBlock: MIFKUJ_clean_linker_0, # of connection points: 2
#     Edge 53, Type (0, 0), BuildingBlock: MIFKUJ_clean_linker_0, # of connection points: 2
# Relax obj value: 0.066
# Max RMSD: 0.064
# Mean RMSD: 0.064
data_MOF--net-unb--node1-NAHDIM_clean_sbu_0--edge1-MIFKUJ_clean_linker_0
_symmetry_space_group_name_H-M    P1
_symmetry_Int_Tables_number       1
_symmetry_cell_setting            triclinic
loop_
_symmetry_equiv_pos_as_xyz
'x, y, z'
_cell_length_a     83.914118
_cell_length_b     83.92256
_cell_length_c     33.139398
_cell_angle_alpha  90.009113
_cell_angle_beta   89.988409
_cell_angle_gamma 120.00154
loop_
_atom_site_label
_atom_site_type_symbol
_atom_site_fract_x
_atom_site_fract_y
_atom_site_fract_z
_atom_type_partial_charge
C0 C 0.13405 0.26837 0.16871 0.0
O1 O 0.12042 0.25145 0.1736 0.0
O2 O 0.14454 0.24366 0.07521 0.0
Zn3 Zn 0.13208 0.25865 0.08297 0.0
O4 O 0.10427 0.24331 0.08067 0.0
C5 C 0.13306 0.2716 0.00192 0.0
O6 O 0.11957 0.25468 0.99645 0.0
O7 O 0.1408 0.27378 0.13373 0.0
C8 C 0.09587 0.22791 0.06247 0.0
O9 O 0.10543 0.22099 0.04658 0.0
C10 C 0.14041 0.22834 0.09134 0.0
O11 O 0.12674 0.22077 0.11723 0.0
O12 O 0.14039 0.27647 0.03661 0.0
C13 C 0.72868 0.865 0.17029 0.0
O14 O 0.74619 0.87654 0.17711 0.0
O15 O 0.75492 0.89539 0.0804 0.0
Zn16 Zn 0.73924 0.86778 0.08453 0.0
O17 O 0.75401 0.85481 0.07949 0.0
C18 C 0.72873 0.86333 0.00141 0.0
O19 O 0.74663 0.8714 0.99647 0.0
O20 O 0.72328 0.85977 0.13439 0.0
C21 C 0.76947 0.86189 0.06156 0.0
O22 O 0.77696 0.87885 0.04809 0.0
C23 C 0.77023 0.90603 0.0973 0.0
O24 O 0.77739 0.89917 0.12233 0.0
O25 O 0.72216 0.86012 0.03694 0.0
C26 C 0.1229 0.84944 0.15086 0.0
O27 O 0.10733 0.83764 0.13348 0.0
O28 O 0.09875 0.85861 0.07405 0.0
Zn29 Zn 0.12635 0.87085 0.07991 0.0
O30 O 0.13835 0.89841 0.07281 0.0
C31 C 0.12661 0.85412 0.00397 0.0
O32 O 0.11032 0.85262 0.00035 0.0
O33 O 0.13324 0.8648 0.13378 0.0
C34 C 0.1379 0.90474 0.03822 0.0
O35 O 0.12907 0.89317 0.00878 0.0
C36 C 0.0895 0.86684 0.07536 0.0
O37 O 0.09794 0.88454 0.08329 0.0
O38 O 0.13595 0.86125 0.03582 0.0
C39 C 0.28099 0.15449 0.8418 0.0
O40 O 0.2774 0.16634 0.85956 0.0
O41 O 0.24662 0.14386 0.91961 0.0
Zn42 Zn 0.26298 0.13267 0.91272 0.0
O43 O 0.24819 0.10508 0.92029 0.0
C44 C 0.28859 0.15927 0.96976 0.0
O45 O 0.28374 0.17024 0.95222 0.0
O46 O 0.27583 0.13904 0.85861 0.0
C47 C 0.24482 0.09882 0.95614 0.0
O48 O 0.25101 0.11045 0.98648 0.0
C49 C 0.22955 0.13439 0.92772 0.0
O50 O 0.22164 0.11638 0.92905 0.0
O51 O 0.28195 0.14289 0.95694 0.0
C52 C 0.86993 0.13463 0.83801 0.0
O53 O 0.88507 0.13382 0.8336 0.0
O54 O 0.86106 0.09809 0.92956 0.0
Zn55 Zn 0.87187 0.12546 0.92251 0.0
O56 O 0.89957 0.13819 0.92306 0.0
C57 C 0.871 0.13677 0.00452 0.0
O58 O 0.88515 0.13428 0.00904 0.0
O59 O 0.86222 0.13135 0.87239 0.0
C60 C 0.90917 0.15527 0.93088 0.0
O61 O 0.90085 0.16488 0.93572 0.0
C62 C 0.8694 0.09214 0.95156 0.0
O63 O 0.88555 0.10394 0.96666 0.0
O64 O 0.86336 0.13409 0.97014 0.0
C65 C 0.85977 0.72675 0.82945 0.0
O66 O 0.86141 0.74306 0.8249 0.0
O67 O 0.89514 0.75298 0.9235 0.0
Zn68 Zn 0.86773 0.73707 0.91465 0.0
O69 O 0.85553 0.75255 0.9148 0.0
C70 C 0.85972 0.72576 0.99715 0.0
O71 O 0.86893 0.74363 0.00309 0.0
O72 O 0.86212 0.72184 0.86416 0.0
C73 C 0.83885 0.7455 0.92585 0.0
O74 O 0.82939 0.72779 0.93367 0.0
C75 C 0.90213 0.76944 0.93618 0.0
O76 O 0.89143 0.77653 0.94153 0.0
O77 O 0.85753 0.7196 0.96135 0.0
C78 C 0.80228 0.59859 0.49818 0.0
O79 O 0.80009 0.58204 0.50233 0.0
O80 O 0.80479 0.57341 0.4071 0.0
Zn81 Zn 0.7921 0.58838 0.41322 0.0
O82 O 0.76467 0.5716 0.41018 0.0
C83 C 0.79339 0.60009 0.33118 0.0
O84 O 0.78258 0.58235 0.32522 0.0
O85 O 0.7995 0.60358 0.46397 0.0
C86 C 0.75462 0.57857 0.40243 0.0
O87 O 0.76231 0.59656 0.3999 0.0
C88 C 0.81951 0.5797 0.38648 0.0
O89 O 0.82691 0.59642 0.37163 0.0
O90 O 0.79924 0.60589 0.36656 0.0
C91 C 0.38865 0.20563 0.47649 0.0
O92 O 0.39193 0.22062 0.45709 0.0
O93 O 0.42621 0.22877 0.40336 0.0
Zn94 Zn 0.40799 0.20168 0.40843 0.0
O95 O 0.42184 0.18781 0.40188 0.0
C96 C 0.38678 0.20693 0.346 0.0
O97 O 0.3943 0.2236 0.36118 0.0
O98 O 0.39442 0.19547 0.46165 0.0
C99 C 0.41728 0.17543 0.37506 0.0
O100 O 0.40271 0.17089 0.35268 0.0
C101 C 0.43626 0.23344 0.37195 0.0
O102 O 0.43484 0.2205 0.34736 0.0
O103 O 0.39004 0.19515 0.36234 0.0
C104 C 0.79922 0.19196 0.50672 0.0
O105 O 0.78454 0.19364 0.51049 0.0
O106 O 0.77125 0.19052 0.41914 0.0
Zn107 Zn 0.79892 0.2017 0.42156 0.0
O108 O 0.81218 0.22929 0.41429 0.0
C109 C 0.79686 0.18469 0.34397 0.0
O110 O 0.78077 0.18372 0.34159 0.0
O111 O 0.80713 0.1949 0.47262 0.0
C112 C 0.81021 0.2357 0.38107 0.0
O113 O 0.79906 0.22425 0.35366 0.0
C114 C 0.76307 0.19983 0.41862 0.0
O115 O 0.77269 0.21776 0.42334 0.0
O116 O 0.80668 0.19154 0.37533 0.0
C117 C 0.93976 0.47576 0.17129 0.0
O118 O 0.92572 0.47858 0.17037 0.0
O119 O 0.91167 0.4747 0.25544 0.0
Zn120 Zn 0.92803 0.46339 0.25436 0.0
O121 O 0.9131 0.43585 0.26203 0.0
C122 C 0.94008 0.47224 0.33672 0.0
O123 O 0.92231 0.46271 0.34368 0.0
O124 O 0.94289 0.46934 0.20314 0.0
C125 C 0.9199 0.42751 0.2812 0.0
O126 O 0.9369 0.43691 0.29445 0.0
C127 C 0.89647 0.46691 0.27448 0.0
O128 O 0.89083 0.4507 0.29087 0.0
O129 O 0.94584 0.47442 0.30056 0.0
C130 C 0.53071 0.46701 0.15891 0.0
O131 O 0.54547 0.46553 0.15429 0.0
O132 O 0.52196 0.43173 0.25312 0.0
Zn133 Zn 0.53307 0.45894 0.24406 0.0
O134 O 0.56088 0.47244 0.24563 0.0
C135 C 0.53087 0.46811 0.32593 0.0
O136 O 0.54298 0.4627 0.33055 0.0
O137 O 0.52339 0.46449 0.1936 0.0
C138 C 0.56984 0.46497 0.25874 0.0
O139 O 0.56087 0.44751 0.26891 0.0
C140 C 0.52248 0.41992 0.23001 0.0
O141 O 0.53101 0.42518 0.19516 0.0
O142 O 0.52468 0.46799 0.29087 0.0
C143 C 0.53129 0.06209 0.1735 0.0
O144 O 0.52828 0.07602 0.17341 0.0
O145 O 0.56975 0.08826 0.26754 0.0
Zn146 Zn 0.54248 0.0726 0.2576 0.0
O147 O 0.52942 0.08742 0.26015 0.0
C148 C 0.53648 0.05926 0.33876 0.0
O149 O 0.54712 0.07687 0.34622 0.0
O150 O 0.53751 0.05863 0.20524 0.0
C151 C 0.53486 0.10124 0.28342 0.0
O152 O 0.54997 0.10678 0.30451 0.0
C153 C 0.58025 0.10454 0.2549 0.0
O154 O 0.57348 0.11242 0.2317 0.0
O155 O 0.53244 0.05391 0.30242 0.0
C156 C 0.47667 0.93621 0.83818 0.0
O157 O 0.47969 0.92228 0.83889 0.0
O158 O 0.47296 0.90596 0.75666 0.0
Zn159 Zn 0.46331 0.9238 0.75589 0.0
O160 O 0.43588 0.91111 0.74556 0.0
C161 C 0.48084 0.93676 0.67811 0.0
O162 O 0.47948 0.92049 0.67631 0.0
O163 O 0.46969 0.93899 0.80681 0.0
C164 C 0.4294 0.90224 0.71286 0.0
O165 O 0.44054 0.90074 0.68731 0.0
C166 C 0.46292 0.88856 0.75425 0.0
O167 O 0.44494 0.88103 0.75455 0.0
O168 O 0.4753 0.94127 0.70951 0.0
C169 C 0.06503 0.52821 0.83546 0.0
O170 O 0.07904 0.52533 0.836 0.0
O171 O 0.09361 0.56954 0.74943 0.0
Zn172 Zn 0.07742 0.542 0.7535 0.0
O173 O 0.09244 0.52931 0.74967 0.0
C174 C 0.06626 0.53656 0.67045 0.0
O175 O 0.0841 0.5443 0.6647 0.0
O176 O 0.06215 0.53519 0.80423 0.0
C177 C 0.08516 0.51327 0.73447 0.0
O178 O 0.06774 0.50494 0.72393 0.0
C179 C 0.10923 0.57702 0.73214 0.0
O180 O 0.11567 0.56659 0.71881 0.0
O181 O 0.06008 0.53408 0.70628 0.0
C182 C 0.46099 0.52599 0.82854 0.0
O183 O 0.447 0.52876 0.83285 0.0
O184 O 0.43279 0.52382 0.73956 0.0
Zn185 Zn 0.46039 0.53484 0.74266 0.0
O186 O 0.47385 0.56246 0.73539 0.0
C187 C 0.45831 0.5174 0.66573 0.0
O188 O 0.44244 0.51688 0.6627 0.0
O189 O 0.46831 0.52797 0.794 0.0
C190 C 0.47413 0.56895 0.70053 0.0
O191 O 0.4651 0.55754 0.67098 0.0
C192 C 0.42484 0.53325 0.73567 0.0
O193 O 0.43468 0.55128 0.73733 0.0
O194 O 0.46809 0.52428 0.69713 0.0
C195 C 0.5994 0.80037 0.49997 0.0
O196 O 0.58247 0.78668 0.4958 0.0
O197 O 0.57114 0.80525 0.59125 0.0
Zn198 Zn 0.59094 0.79823 0.58676 0.0
O199 O 0.57942 0.77051 0.59209 0.0
C200 C 0.60619 0.81676 0.66389 0.0
O201 O 0.59012 0.81559 0.66875 0.0
O202 O 0.60519 0.8071 0.53482 0.0
C203 C 0.581 0.76348 0.62483 0.0
O204 O 0.59066 0.77439 0.65454 0.0
C205 C 0.5579 0.79624 0.61565 0.0
O206 O 0.55697 0.78211 0.63484 0.0
O207 O 0.60946 0.81066 0.63168 0.0
C208 C 0.17991 0.79726 0.51359 0.0
O209 O 0.16781 0.78321 0.53493 0.0
O210 O 0.19398 0.77324 0.58658 0.0
Zn211 Zn 0.20424 0.80061 0.57919 0.0
O212 O 0.2319 0.81333 0.58244 0.0
C213 C 0.20141 0.80957 0.66068 0.0
O214 O 0.21363 0.80428 0.66515 0.0
O215 O 0.19637 0.80655 0.52634 0.0
C216 C 0.24115 0.83007 0.59335 0.0
O217 O 0.23254 0.83927 0.60016 0.0
C218 C 0.17914 0.76383 0.60636 0.0
O219 O 0.17013 0.77188 0.61937 0.0
O220 O 0.19527 0.80953 0.62559 0.0
C221 C 0.20194 0.3976 0.49802 0.0
O222 O 0.21558 0.41451 0.49304 0.0
O223 O 0.2313 0.42328 0.58572 0.0
Zn224 Zn 0.20361 0.40767 0.58345 0.0
O225 O 0.19122 0.42284 0.59022 0.0
C226 C 0.20518 0.39352 0.66208 0.0
O227 O 0.2211 0.40883 0.66438 0.0
O228 O 0.19505 0.39231 0.53294 0.0
C229 C 0.19542 0.43347 0.6206 0.0
O230 O 0.2084 0.43501 0.64517 0.0
C231 C 0.24052 0.44053 0.57955 0.0
O232 O 0.23199 0.44925 0.56773 0.0
O233 O 0.19552 0.39011 0.6303 0.0
H234 H 0.17492 0.36147 0.49947 0.0
H235 H 0.16367 0.33968 0.44348 0.0
H236 H 0.20167 0.38208 0.36294 0.0
H237 H 0.21295 0.40411 0.41889 0.0
H238 H 0.16757 0.36216 0.32966 0.0
H239 H 0.21068 0.34951 0.39657 0.0
H240 H 0.22445 0.3423 0.45441 0.0
H241 H 0.1739 0.29163 0.47348 0.0
H242 H 0.15973 0.29867 0.41606 0.0
H243 H 0.1612 0.30445 0.16752 0.0
H244 H 0.17251 0.32614 0.22366 0.0
H245 H 0.13447 0.28368 0.30401 0.0
H246 H 0.12313 0.26173 0.2479 0.0
H247 H 0.16857 0.3036 0.33743 0.0
H248 H 0.12546 0.31625 0.27053 0.0
H249 H 0.11169 0.32346 0.21267 0.0
H250 H 0.16224 0.37413 0.1936 0.0
H251 H 0.17641 0.3671 0.25104 0.0
C252 C 0.1809 0.36621 0.46987 0.0
C253 C 0.1949 0.38454 0.46371 0.0
C254 C 0.1745 0.35369 0.43791 0.0
C255 C 0.18199 0.35919 0.39915 0.0
C256 C 0.19574 0.37754 0.39267 0.0
C257 C 0.20219 0.3901 0.42469 0.0
C258 C 0.1754 0.34576 0.36542 0.0
C259 C 0.16803 0.34948 0.3311 0.0
C260 C 0.17559 0.329 0.36776 0.0
C261 C 0.18409 0.32471 0.40225 0.0
C262 C 0.20245 0.3369 0.4133 0.0
C263 C 0.21034 0.33283 0.44597 0.0
C264 C 0.20004 0.31654 0.46767 0.0
C265 C 0.18185 0.30426 0.45668 0.0
C266 C 0.17389 0.30827 0.42405 0.0
C267 C 0.15522 0.29967 0.19711 0.0
C268 C 0.14118 0.28135 0.20317 0.0
C269 C 0.16167 0.31213 0.22916 0.0
C270 C 0.15417 0.3066 0.2679 0.0
C271 C 0.14041 0.28824 0.27429 0.0
C272 C 0.13391 0.27574 0.24218 0.0
C273 C 0.16074 0.32001 0.30167 0.0
C274 C 0.16811 0.31628 0.336 0.0
C275 C 0.16055 0.33676 0.29934 0.0
C276 C 0.15205 0.34105 0.26485 0.0
C277 C 0.13369 0.32886 0.2538 0.0
C278 C 0.1258 0.33292 0.22111 0.0
C279 C 0.1361 0.34922 0.1994 0.0
C280 C 0.15429 0.3615 0.21041 0.0
C281 C 0.16225 0.35749 0.24305 0.0
H282 H 0.12996 0.35234 0.17411 0.0
H283 H 0.20618 0.31341 0.49296 0.0
H284 H 0.59163 0.79045 0.4204 0.0
H285 H 0.61302 0.80161 0.36333 0.0
H286 H 0.65722 0.83703 0.44343 0.0
H287 H 0.63592 0.8263 0.50029 0.0
H288 H 0.65907 0.85484 0.3765 0.0
H289 H 0.65192 0.79572 0.40864 0.0
H290 H 0.6347 0.76225 0.42079 0.0
H291 H 0.61294 0.75318 0.30041 0.0
H292 H 0.62986 0.78663 0.28772 0.0
H293 H 0.73512 0.87396 0.25047 0.0
H294 H 0.71264 0.86306 0.30544 0.0
H295 H 0.66933 0.83014 0.22115 0.0
H296 H 0.69169 0.84078 0.16614 0.0
H297 H 0.66648 0.81105 0.28881 0.0
H298 H 0.67454 0.87045 0.25654 0.0
H299 H 0.6922 0.90394 0.24482 0.0
H300 H 0.71277 0.91248 0.3662 0.0
H301 H 0.69542 0.87901 0.37848 0.0
C302 C 0.60589 0.80066 0.42583 0.0
C303 C 0.61207 0.80742 0.46495 0.0
C304 C 0.61812 0.80696 0.3932 0.0
C305 C 0.6368 0.81998 0.39916 0.0
C306 C 0.64289 0.82698 0.43806 0.0
C307 C 0.63068 0.82078 0.47059 0.0
C308 C 0.65008 0.8263 0.36505 0.0
C309 C 0.66083 0.84526 0.35763 0.0
C310 C 0.65213 0.81381 0.33985 0.0
C311 C 0.642 0.79369 0.34738 0.0
C312 C 0.64335 0.7866 0.38486 0.0
C313 C 0.63367 0.76763 0.39183 0.0
C314 C 0.62269 0.7556 0.36143 0.0
C315 C 0.62142 0.76251 0.32395 0.0
C316 C 0.63107 0.78148 0.31684 0.0
C317 C 0.72082 0.86439 0.24361 0.0
C318 C 0.71521 0.85829 0.20387 0.0
C319 C 0.70797 0.85823 0.27505 0.0
C320 C 0.68927 0.84594 0.26732 0.0
C321 C 0.68368 0.83964 0.2278 0.0
C322 C 0.69649 0.84579 0.19637 0.0
C323 C 0.67552 0.83958 0.30044 0.0
C324 C 0.66468 0.82061 0.30765 0.0
C325 C 0.67343 0.85206 0.32554 0.0
C326 C 0.68381 0.8722 0.31829 0.0
C327 C 0.68294 0.87946 0.28063 0.0
C328 C 0.69288 0.89844 0.27391 0.0
C329 C 0.70364 0.91033 0.30472 0.0
C330 C 0.70445 0.90326 0.34235 0.0
C331 C 0.69455 0.88428 0.34922 0.0
H332 H 0.71133 0.92502 0.29945 0.0
H333 H 0.61521 0.74091 0.36688 0.0
H334 H 0.20079 0.82696 0.46504 0.0
H335 H 0.19117 0.83595 0.40357 0.0
H336 H 0.13681 0.78867 0.41519 0.0
H337 H 0.14632 0.77949 0.47651 0.0
H338 H 0.14952 0.79324 0.33796 0.0
H339 H 0.14457 0.83075 0.44142 0.0
H340 H 0.1557 0.85284 0.4979 0.0
H341 H 0.19775 0.89363 0.42184 0.0
H342 H 0.18702 0.87168 0.36503 0.0
H343 H 0.10292 0.81908 0.19805 0.0
H344 H 0.11277 0.81055 0.2597 0.0
H345 H 0.16584 0.85988 0.25119 0.0
H346 H 0.15593 0.86875 0.18998 0.0
H347 H 0.15418 0.8544 0.32677 0.0
H348 H 0.15949 0.81738 0.22338 0.0
H349 H 0.14894 0.79544 0.16662 0.0
H350 H 0.10707 0.75397 0.24181 0.0
H351 H 0.11721 0.77575 0.29891 0.0
C352 C 0.18679 0.81844 0.4545 0.0
C353 C 0.1743 0.80253 0.47579 0.0
C354 C 0.1813 0.82365 0.41944 0.0
C355 C 0.16322 0.81309 0.40505 0.0
C356 C 0.15082 0.79704 0.42581 0.0
C357 C 0.15628 0.79184 0.46093 0.0
C358 C 0.1572 0.81876 0.36834 0.0
C359 C 0.15031 0.80652 0.33567 0.0
C360 C 0.15868 0.83627 0.36502 0.0
C361 C 0.1651 0.84951 0.39909 0.0
C362 C 0.15628 0.84438 0.43683 0.0
C363 C 0.1625 0.85689 0.46888 0.0
C364 C 0.17745 0.87461 0.46349 0.0
C365 C 0.18618 0.87988 0.42599 0.0
C366 C 0.18003 0.86742 0.39384 0.0
C367 C 0.11668 0.82815 0.20931 0.0
C368 C 0.12867 0.84456 0.18896 0.0
C369 C 0.12233 0.8232 0.24449 0.0
C370 C 0.14016 0.83442 0.25974 0.0
C371 C 0.15204 0.85098 0.23993 0.0
C372 C 0.14636 0.85601 0.20489 0.0
C373 C 0.14644 0.82886 0.2963 0.0
C374 C 0.15339 0.84112 0.32897 0.0
C375 C 0.1451 0.8114 0.29955 0.0
C376 C 0.139 0.79825 0.2653 0.0
C377 C 0.14794 0.80362 0.22773 0.0
C378 C 0.14205 0.79121 0.19551 0.0
C379 C 0.12731 0.77334 0.20058 0.0
C380 C 0.11847 0.76783 0.23792 0.0
C381 C 0.12429 0.78019 0.27023 0.0
H382 H 0.12277 0.76375 0.1756 0.0
H383 H 0.18225 0.88427 0.48834 0.0
H384 H 0.3754 0.22487 0.5175 0.0
H385 H 0.35727 0.21597 0.57962 0.0
H386 H 0.35954 0.16578 0.58405 0.0
H387 H 0.37757 0.17449 0.52169 0.0
H388 H 0.32502 0.1595 0.5985 0.0
H389 H 0.38595 0.20103 0.64667 0.0
H390 H 0.41561 0.23009 0.64928 0.0
H391 H 0.38761 0.25958 0.67906 0.0
H392 H 0.35774 0.23072 0.67608 0.0
H393 H 0.29276 0.13418 0.79975 0.0
H394 H 0.31093 0.14273 0.73771 0.0
H395 H 0.31106 0.19418 0.73473 0.0
H396 H 0.29318 0.18589 0.79718 0.0
H397 H 0.34452 0.19967 0.71953 0.0
H398 H 0.28363 0.15842 0.67089 0.0
H399 H 0.25384 0.1295 0.66797 0.0
H400 H 0.28153 0.09965 0.63867 0.0
H401 H 0.31152 0.12837 0.64196 0.0
C402 C 0.3721 0.21195 0.53171 0.0
C403 C 0.37798 0.20041 0.51464 0.0
C404 C 0.36178 0.20692 0.56732 0.0
C405 C 0.35718 0.19028 0.58669 0.0
C406 C 0.36295 0.17868 0.56963 0.0
C407 C 0.37331 0.18373 0.53406 0.0
C408 C 0.34614 0.18486 0.62442 0.0
C409 C 0.3294 0.16815 0.62518 0.0
C410 C 0.35164 0.19637 0.65888 0.0
C411 C 0.36959 0.21374 0.66075 0.0
C412 C 0.3861 0.21373 0.65344 0.0
C413 C 0.40296 0.23016 0.65505 0.0
C414 C 0.40349 0.24668 0.66423 0.0
C415 C 0.38717 0.24679 0.6719 0.0
C416 C 0.37028 0.23039 0.67029 0.0
C417 C 0.29658 0.14729 0.78583 0.0
C418 C 0.29147 0.15934 0.80342 0.0
C419 C 0.30692 0.15213 0.75024 0.0
C420 C 0.31221 0.16903 0.73128 0.0
C421 C 0.30713 0.18107 0.74879 0.0
C422 C 0.29685 0.17628 0.78445 0.0
C423 C 0.32334 0.17431 0.69363 0.0
C424 C 0.34012 0.191 0.69288 0.0
C425 C 0.31785 0.16281 0.65914 0.0
C426 C 0.29983 0.14552 0.65707 0.0
C427 C 0.28338 0.14567 0.66414 0.0
C428 C 0.26645 0.12931 0.66236 0.0
C429 C 0.2658 0.11274 0.65325 0.0
C430 C 0.28206 0.11249 0.64579 0.0
C431 C 0.29902 0.12881 0.64757 0.0
H432 H 0.25268 0.10009 0.65187 0.0
H433 H 0.41656 0.25938 0.66547 0.0
H434 H 0.78608 0.18472 0.5843 0.0
H435 H 0.79774 0.17479 0.64093 0.0
H436 H 0.84012 0.17644 0.56439 0.0
H437 H 0.82848 0.18616 0.50764 0.0
H438 H 0.82395 0.14541 0.60855 0.0
H439 H 0.85013 0.21015 0.63306 0.0
H440 H 0.84969 0.23904 0.64308 0.0
H441 H 0.81491 0.21597 0.74683 0.0
H442 H 0.81493 0.18683 0.7371 0.0
H443 H 0.88222 0.14177 0.75986 0.0
H444 H 0.86962 0.15107 0.70396 0.0
H445 H 0.82748 0.14862 0.78256 0.0
H446 H 0.84004 0.13948 0.83865 0.0
H447 H 0.84297 0.17971 0.7379 0.0
H448 H 0.81717 0.1151 0.71394 0.0
H449 H 0.81767 0.08624 0.70393 0.0
H450 H 0.85176 0.10907 0.59911 0.0
H451 H 0.85168 0.13818 0.60884 0.0
C452 C 0.79791 0.18301 0.57954 0.0
C453 C 0.80636 0.18627 0.54144 0.0
C454 C 0.80459 0.17739 0.61197 0.0
C455 C 0.8199 0.17501 0.60696 0.0
C456 C 0.8283 0.17817 0.56894 0.0
C457 C 0.82165 0.1838 0.53655 0.0
C458 C 0.8271 0.16903 0.64115 0.0
C459 C 0.82832 0.15304 0.63666 0.0
C460 C 0.83241 0.17874 0.67816 0.0
C461 C 0.83238 0.19624 0.68409 0.0
C462 C 0.84226 0.21118 0.65781 0.0
C463 C 0.84211 0.22762 0.66347 0.0
C464 C 0.83223 0.22932 0.6955 0.0
C465 C 0.82253 0.21462 0.72199 0.0
C466 C 0.82261 0.19814 0.71644 0.0
C467 C 0.87024 0.14315 0.76525 0.0
C468 C 0.86212 0.13984 0.80373 0.0
C469 C 0.86301 0.14841 0.73322 0.0
C470 C 0.84752 0.1504 0.73902 0.0
C471 C 0.83944 0.14717 0.77741 0.0
C472 C 0.84661 0.14187 0.8094 0.0
C473 C 0.83988 0.15613 0.70524 0.0
C474 C 0.83857 0.17207 0.70981 0.0
C475 C 0.8345 0.14638 0.6683 0.0
C476 C 0.83457 0.12889 0.66237 0.0
C477 C 0.82491 0.11403 0.68896 0.0
C478 C 0.82509 0.09761 0.6833 0.0
C479 C 0.83478 0.09584 0.65097 0.0
C480 C 0.84428 0.11047 0.62418 0.0
C481 C 0.84416 0.12693 0.62973 0.0
H482 H 0.8349 0.08312 0.64663 0.0
H483 H 0.83214 0.24206 0.69984 0.0
H484 H 0.85417 0.7327 0.75071 0.0
H485 H 0.8448 0.71095 0.69449 0.0
H486 H 0.84401 0.66986 0.77399 0.0
H487 H 0.85367 0.69157 0.8301 0.0
H488 H 0.85972 0.67018 0.70384 0.0
H489 H 0.80411 0.66861 0.74561 0.0
H490 H 0.78441 0.68177 0.76212 0.0
H491 H 0.79084 0.70293 0.6416 0.0
H492 H 0.8108 0.69009 0.62452 0.0
H493 H 0.8087 0.59253 0.5763 0.0
H494 H 0.81871 0.61424 0.63272 0.0
H495 H 0.81962 0.65572 0.55432 0.0
H496 H 0.80933 0.63407 0.49809 0.0
H497 H 0.80381 0.65503 0.62431 0.0
H498 H 0.85946 0.65657 0.58259 0.0
H499 H 0.87911 0.64333 0.56619 0.0
H500 H 0.87251 0.62212 0.6867 0.0
H501 H 0.8526 0.63503 0.70366 0.0
C502 C 0.85205 0.71905 0.75622 0.0
C503 C 0.85459 0.71386 0.79496 0.0
C504 C 0.84662 0.70661 0.72408 0.0
C505 C 0.84347 0.68868 0.73015 0.0
C506 C 0.84633 0.68359 0.76861 0.0
C507 C 0.85181 0.69603 0.80069 0.0
C508 C 0.83707 0.67517 0.69654 0.0
C509 C 0.84736 0.66669 0.68676 0.0
C510 C 0.82115 0.67087 0.67376 0.0
C511 C 0.80909 0.67854 0.68391 0.0
C512 C 0.80144 0.67619 0.72272 0.0
C513 C 0.79021 0.68357 0.73216 0.0
C514 C 0.78642 0.69322 0.70296 0.0
C515 C 0.79381 0.69547 0.66421 0.0
C516 C 0.80507 0.68813 0.65462 0.0
C517 C 0.81102 0.60627 0.57108 0.0
C518 C 0.80825 0.61156 0.53265 0.0
C519 C 0.81683 0.61869 0.60332 0.0
C520 C 0.82011 0.63669 0.59764 0.0
C521 C 0.81717 0.64192 0.55942 0.0
C522 C 0.81133 0.62952 0.52726 0.0
C523 C 0.82648 0.65007 0.6315 0.0
C524 C 0.81616 0.65851 0.64136 0.0
C525 C 0.84237 0.65432 0.65436 0.0
C526 C 0.85439 0.64661 0.64426 0.0
C527 C 0.86208 0.64896 0.6055 0.0
C528 C 0.87329 0.64154 0.59612 0.0
C529 C 0.87702 0.63185 0.62535 0.0
C530 C 0.86959 0.62961 0.66407 0.0
C531 C 0.85835 0.63698 0.67359 0.0
H532 H 0.8857 0.62612 0.61803 0.0
H533 H 0.77772 0.69893 0.71033 0.0
H534 H 0.93758 0.49016 0.09866 0.0
H535 H 0.95876 0.49869 0.04153 0.0
H536 H 0.99128 0.48061 0.10703 0.0
H537 H 0.97033 0.47224 0.16441 0.0
H538 H 0.01276 0.51345 0.07228 0.0
H539 H 0.963 0.45476 0.03085 0.0
H540 H 0.9307 0.43169 0.01636 0.0
H541 H 0.92824 0.46725 0.9265 0.0
H542 H 0.96047 0.49066 0.94085 0.0
H543 H 0.06703 0.51317 0.90735 0.0
H544 H 0.04571 0.50415 0.96434 0.0
H545 H 0.01316 0.52247 0.89978 0.0
H546 H 0.03425 0.53134 0.84257 0.0
H547 H 0.99171 0.48935 0.93408 0.0
H548 H 0.04141 0.54808 0.97581 0.0
H549 H 0.07372 0.57116 0.99032 0.0
H550 H 0.07626 0.53544 0.07966 0.0
H551 H 0.04403 0.51204 0.06528 0.0
C552 C 0.94919 0.48793 0.10088 0.0
C553 C 0.95223 0.48049 0.13611 0.0
C554 C 0.96126 0.49276 0.06813 0.0
C555 C 0.97652 0.49015 0.06989 0.0
C556 C 0.97959 0.48275 0.10502 0.0
C557 C 0.96756 0.47792 0.13775 0.0
C558 C 0.98949 0.49541 0.03541 0.0
C559 C 0.0082 0.50798 0.04217 0.0
C560 C 0.98347 0.4886 0.99595 0.0
C561 C 0.96409 0.47454 0.98722 0.0
C562 C 0.95553 0.45773 0.00824 0.0
C563 C 0.93724 0.44458 0.0 0.0
C564 C 0.92741 0.44802 0.9706 0.0
C565 C 0.93586 0.46461 0.9493 0.0
C566 C 0.95415 0.47782 0.95745 0.0
C567 C 0.05536 0.51532 0.9053 0.0
C568 C 0.05238 0.52301 0.87042 0.0
C569 C 0.04322 0.51021 0.93796 0.0
C570 C 0.02792 0.51278 0.93644 0.0
C571 C 0.02487 0.52036 0.9016 0.0
C572 C 0.03699 0.52549 0.86898 0.0
C573 C 0.01497 0.50738 0.97096 0.0
C574 C 0.99627 0.4948 0.96421 0.0
C575 C 0.02099 0.51417 0.01043 0.0
C576 C 0.04036 0.52823 0.01916 0.0
C577 C 0.04891 0.54509 0.99831 0.0
C578 C 0.0672 0.55824 0.00655 0.0
C579 C 0.07705 0.55475 0.03581 0.0
C580 C 0.06862 0.53811 0.05696 0.0
C581 C 0.05034 0.52491 0.0488 0.0
H582 H 0.09121 0.56495 0.04216 0.0
H583 H 0.91325 0.43782 0.96427 0.0
H584 H 0.54205 0.4725 0.08002 0.0
H585 H 0.52989 0.48233 0.02422 0.0
H586 H 0.49025 0.48391 0.10457 0.0
H587 H 0.50204 0.47374 0.16023 0.0
H588 H 0.47447 0.46867 0.03493 0.0
H589 H 0.5295 0.52349 0.07555 0.0
H590 H 0.56252 0.54259 0.09135 0.0
H591 H 0.57634 0.53555 0.97041 0.0
H592 H 0.54338 0.5162 0.95403 0.0
H593 H 0.44911 0.52067 0.90714 0.0
H594 H 0.46073 0.51065 0.96375 0.0
H595 H 0.50017 0.50791 0.88482 0.0
H596 H 0.4889 0.51816 0.82841 0.0
H597 H 0.51591 0.52398 0.95444 0.0
H598 H 0.46069 0.46892 0.91422 0.0
H599 H 0.42762 0.44997 0.89874 0.0
H600 H 0.41413 0.45775 0.01942 0.0
H601 H 0.44714 0.47696 0.03547 0.0
C602 C 0.53071 0.47489 0.08579 0.0
C603 C 0.52308 0.47241 0.12463 0.0
C604 C 0.52383 0.48059 0.0539 0.0
C605 C 0.50932 0.48411 0.06033 0.0
C606 C 0.50146 0.48131 0.0989 0.0
C607 C 0.50827 0.47553 0.13072 0.0
C608 C 0.50234 0.49079 0.02698 0.0
C609 C 0.4835 0.4809 0.01767 0.0
C610 C 0.51415 0.50656 0.00396 0.0
C611 C 0.53398 0.51825 0.01369 0.0
C612 C 0.53958 0.5259 0.05241 0.0
C613 C 0.55829 0.53679 0.06145 0.0
C614 C 0.57152 0.54024 0.03193 0.0
C615 C 0.56607 0.53285 0.99326 0.0
C616 C 0.54738 0.52193 0.98407 0.0
C617 C 0.46027 0.51795 0.90185 0.0
C618 C 0.46803 0.52017 0.86321 0.0
C619 C 0.46685 0.51215 0.9342 0.0
C620 C 0.48119 0.50833 0.92842 0.0
C621 C 0.4891 0.51076 0.89 0.0
C622 C 0.48258 0.51659 0.85773 0.0
C623 C 0.48806 0.50183 0.96229 0.0
C624 C 0.50688 0.51176 0.97173 0.0
C625 C 0.47623 0.48612 0.98547 0.0
C626 C 0.45638 0.47453 0.97591 0.0
C627 C 0.45067 0.46671 0.93736 0.0
C628 C 0.43194 0.4559 0.9285 0.0
C629 C 0.41878 0.4527 0.95804 0.0
C630 C 0.42434 0.46026 0.99655 0.0
C631 C 0.44305 0.47109 0.00556 0.0
H632 H 0.40428 0.44433 0.95112 0.0
H633 H 0.58599 0.54868 0.03899 0.0
H634 H 0.51741 0.0651 0.10084 0.0
H635 H 0.50853 0.04413 0.04325 0.0
H636 H 0.52529 0.01036 0.10803 0.0
H637 H 0.53449 0.03138 0.1654 0.0
H638 H 0.53651 0.01464 0.03132 0.0
H639 H 0.47981 0.99801 0.10009 0.0
H640 H 0.45618 0.00356 0.13039 0.0
H641 H 0.44739 0.02181 0.01581 0.0
H642 H 0.47117 0.0166 0.98494 0.0
H643 H 0.49152 0.93425 0.91037 0.0
H644 H 0.50099 0.95592 0.9667 0.0
H645 H 0.48369 0.98896 0.9007 0.0
H646 H 0.47389 0.96722 0.84457 0.0
H647 H 0.4729 0.98539 0.97739 0.0
H648 H 0.52933 0.0017 0.90837 0.0
H649 H 0.55295 0.99614 0.87801 0.0
H650 H 0.56227 0.97855 0.99288 0.0
H651 H 0.53851 0.98377 0.02382 0.0
C652 C 0.51929 0.05326 0.10279 0.0
C653 C 0.52658 0.04988 0.13783 0.0
C654 C 0.51412 0.04123 0.0699 0.0
C655 C 0.516 0.02552 0.07153 0.0
C656 C 0.52367 0.02236 0.10611 0.0
C657 C 0.52888 0.03439 0.13894 0.0
C658 C 0.50986 0.01227 0.03741 0.0
C659 C 0.52254 0.00807 0.01985 0.0
C660 C 0.49174 0.004 0.02184 0.0
C661 C 0.4774 0.00709 0.04031 0.0
C662 C 0.47294 0.00334 0.08143 0.0
C663 C 0.4595 0.0064 0.09869 0.0
C664 C 0.45032 0.01308 0.07506 0.0
C665 C 0.45453 0.01666 0.03409 0.0
C666 C 0.46798 0.01365 0.01669 0.0
C667 C 0.48969 0.9461 0.90785 0.0
C668 C 0.482 0.94902 0.87288 0.0
C669 C 0.4952 0.95853 0.94002 0.0
C670 C 0.49329 0.97422 0.93771 0.0
C671 C 0.48533 0.97699 0.90313 0.0
C672 C 0.47977 0.96455 0.87102 0.0
C673 C 0.49954 0.98773 0.97133 0.0
C674 C 0.48688 0.99198 0.98882 0.0
C675 C 0.51768 0.99605 0.98682 0.0
C676 C 0.53201 0.99295 0.96831 0.0
C677 C 0.53631 0.99651 0.92708 0.0
C678 C 0.54974 0.99345 0.90979 0.0
C679 C 0.55907 0.98695 0.93348 0.0
C680 C 0.55501 0.98356 0.97455 0.0
C681 C 0.54158 0.98658 0.99199 0.0
H682 H 0.56946 0.98459 0.92003 0.0
H683 H 0.43992 0.01544 0.08848 0.0
H684 H 0.11881 0.26651 0.92587 0.0
H685 H 0.13131 0.28746 0.86848 0.0
H686 H 0.17601 0.32675 0.94269 0.0
H687 H 0.16341 0.30602 0.00049 0.0
H688 H 0.16298 0.3436 0.8965 0.0
H689 H 0.18243 0.29947 0.87638 0.0
H690 H 0.1786 0.26846 0.87019 0.0
H691 H 0.14335 0.25745 0.76757 0.0
H692 H 0.14676 0.28832 0.7735 0.0
H693 H 0.22093 0.39804 0.73646 0.0
H694 H 0.20884 0.37727 0.79431 0.0
H695 H 0.16169 0.33939 0.72405 0.0
H696 H 0.1737 0.36001 0.66591 0.0
H697 H 0.17649 0.32203 0.76839 0.0
H698 H 0.1577 0.36715 0.7901 0.0
H699 H 0.16292 0.39867 0.79693 0.0
H700 H 0.19874 0.4083 0.89779 0.0
H701 H 0.19396 0.37692 0.89118 0.0
C702 C 0.13128 0.27963 0.93003 0.0
C703 C 0.14019 0.28456 0.96765 0.0
C704 C 0.13844 0.29155 0.89716 0.0
C705 C 0.15475 0.30853 0.90118 0.0
C706 C 0.16343 0.31368 0.93893 0.0
C707 C 0.15623 0.30181 0.97189 0.0
C708 C 0.16281 0.32085 0.86592 0.0
C709 C 0.16615 0.33895 0.86867 0.0
C710 C 0.16671 0.31469 0.82944 0.0
C711 C 0.16471 0.29615 0.82563 0.0
C712 C 0.17375 0.29039 0.85268 0.0
C713 C 0.17167 0.27284 0.84919 0.0
C714 C 0.1607 0.26097 0.81857 0.0
C715 C 0.15183 0.26665 0.79131 0.0
C716 C 0.15384 0.28418 0.79469 0.0
C717 C 0.20802 0.38526 0.73323 0.0
C718 C 0.19823 0.3807 0.69665 0.0
C719 C 0.20111 0.37345 0.76636 0.0
C720 C 0.18429 0.35691 0.76351 0.0
C721 C 0.17469 0.35212 0.72681 0.0
C722 C 0.18155 0.36394 0.6937 0.0
C723 C 0.17656 0.3447 0.79898 0.0
C724 C 0.1733 0.32664 0.79626 0.0
C725 C 0.17291 0.35095 0.8356 0.0
C726 C 0.17561 0.36975 0.83989 0.0
C727 C 0.16679 0.37604 0.81356 0.0
C728 C 0.16965 0.39387 0.81742 0.0
C729 C 0.18119 0.4055 0.84771 0.0
C730 C 0.18983 0.39929 0.87431 0.0
C731 C 0.18704 0.38148 0.87054 0.0
H732 H 0.18343 0.41931 0.85063 0.0
H733 H 0.15911 0.2474 0.81591 0.0
H734 H 0.64246 0.8264 0.66061 0.0
H735 H 0.6642 0.83571 0.71674 0.0
H736 H 0.62197 0.83089 0.79853 0.0
H737 H 0.60039 0.82225 0.74236 0.0
H738 H 0.65307 0.85986 0.8173 0.0
H739 H 0.63389 0.79669 0.78896 0.0
H740 H 0.62867 0.77037 0.7465 0.0
H741 H 0.68654 0.79649 0.72119 0.0
H742 H 0.69206 0.8231 0.76305 0.0
H743 H 0.69187 0.85141 0.00092 0.0
H744 H 0.67188 0.84456 0.94209 0.0
H745 H 0.71776 0.8577 0.86332 0.0
H746 H 0.73788 0.8646 0.92195 0.0
H747 H 0.68577 0.82525 0.84234 0.0
H748 H 0.70434 0.88816 0.87426 0.0
H749 H 0.70858 0.91352 0.91883 0.0
H750 H 0.65034 0.88631 0.94026 0.0
H751 H 0.64578 0.86064 0.89625 0.0
C752 C 0.63786 0.82745 0.69052 0.0
C753 C 0.61969 0.82348 0.69715 0.0
C754 C 0.65026 0.83268 0.7226 0.0
C755 C 0.64461 0.83364 0.76198 0.0
C756 C 0.62663 0.8302 0.76842 0.0
C757 C 0.6143 0.82523 0.73628 0.0
C758 C 0.65728 0.83787 0.79666 0.0
C759 C 0.66005 0.85214 0.82299 0.0
C760 C 0.66664 0.82801 0.80376 0.0
C761 C 0.66336 0.81197 0.77881 0.0
C762 C 0.64548 0.79688 0.77411 0.0
C763 C 0.64247 0.7819 0.75019 0.0
C764 C 0.65726 0.78178 0.73108 0.0
C765 C 0.67509 0.79662 0.73596 0.0
C766 C 0.67818 0.81164 0.7598 0.0
C767 C 0.69771 0.8528 0.9711 0.0
C768 C 0.71647 0.85862 0.96605 0.0
C769 C 0.68629 0.84895 0.93755 0.0
C770 C 0.69342 0.85081 0.89845 0.0
C771 C 0.71204 0.85624 0.89331 0.0
C772 C 0.7235 0.86022 0.92682 0.0
C773 C 0.68144 0.84712 0.86288 0.0
C774 C 0.67881 0.83296 0.83646 0.0
C775 C 0.67204 0.85692 0.85599 0.0
C776 C 0.67475 0.8724 0.88225 0.0
C777 C 0.69245 0.88751 0.88873 0.0
C778 C 0.69491 0.90196 0.91384 0.0
C779 C 0.67974 0.90151 0.93244 0.0
C780 C 0.66208 0.88663 0.92587 0.0
C781 C 0.65955 0.87214 0.90081 0.0
H782 H 0.68167 0.9127 0.95188 0.0
H783 H 0.6549 0.77017 0.71257 0.0
H784 H 0.11198 0.84258 0.92895 0.0
H785 H 0.12523 0.8346 0.8724 0.0
H786 H 0.17182 0.84482 0.94601 0.0
H787 H 0.15884 0.8533 0.00265 0.0
H788 H 0.18303 0.85991 0.8742 0.0
H789 H 0.13792 0.80069 0.92218 0.0
H790 H 0.10726 0.77633 0.94437 0.0
H791 H 0.08495 0.77642 0.82783 0.0
H792 H 0.11544 0.80097 0.80509 0.0
H793 H 0.21537 0.81642 0.73714 0.0
H794 H 0.20311 0.82397 0.79654 0.0
H795 H 0.15927 0.82172 0.72435 0.0
H796 H 0.17147 0.81424 0.6647 0.0
H797 H 0.14732 0.80192 0.79701 0.0
H798 H 0.1932 0.86207 0.75063 0.0
H799 H 0.22433 0.88583 0.72955 0.0
H800 H 0.24574 0.88293 0.8453 0.0
H801 H 0.21475 0.85894 0.86688 0.0
C802 C 0.125 0.84304 0.93327 0.0
C803 C 0.13434 0.84854 0.97035 0.0
C804 C 0.13252 0.83839 0.90091 0.0
C805 C 0.1494 0.83887 0.90511 0.0
C806 C 0.15876 0.84432 0.94212 0.0
C807 C 0.15129 0.84911 0.97448 0.0
C808 C 0.15747 0.83417 0.87044 0.0
C809 C 0.17532 0.84709 0.85775 0.0
C810 C 0.14731 0.81758 0.84852 0.0
C811 C 0.12894 0.80279 0.86205 0.0
C812 C 0.12645 0.79562 0.90138 0.0
C813 C 0.1091 0.78176 0.91404 0.0
C814 C 0.09416 0.77486 0.88756 0.0
C815 C 0.09654 0.78179 0.84832 0.0
C816 C 0.11385 0.79566 0.83552 0.0
C817 C 0.20316 0.8176 0.73385 0.0
C818 C 0.19439 0.81476 0.69624 0.0
C819 C 0.19622 0.82196 0.76778 0.0
C820 C 0.18035 0.82346 0.76471 0.0
C821 C 0.17154 0.82061 0.72725 0.0
C822 C 0.17858 0.81643 0.69321 0.0
C823 C 0.17274 0.8277 0.80075 0.0
C824 C 0.155 0.81469 0.81366 0.0
C825 C 0.18307 0.8441 0.82309 0.0
C826 C 0.20169 0.85856 0.81021 0.0
C827 C 0.20457 0.86637 0.77147 0.0
C828 C 0.22219 0.87991 0.75945 0.0
C829 C 0.23701 0.88585 0.78603 0.0
C830 C 0.23424 0.8783 0.82472 0.0
C831 C 0.21666 0.86474 0.83687 0.0
H832 H 0.25064 0.89633 0.77667 0.0
H833 H 0.08074 0.76413 0.89742 0.0
H834 H 0.38086 0.23005 0.29822 0.0
H835 H 0.36483 0.22297 0.23345 0.0
H836 H 0.35251 0.16666 0.24316 0.0
H837 H 0.36874 0.17367 0.30766 0.0
H838 H 0.3656 0.18053 0.16958 0.0
H839 H 0.31942 0.17832 0.25948 0.0
H840 H 0.30712 0.19033 0.3114 0.0
H841 H 0.31732 0.23552 0.23404 0.0
H842 H 0.32991 0.22389 0.18184 0.0
H843 H 0.29753 0.13865 0.01848 0.0
H844 H 0.31518 0.14811 0.08104 0.0
H845 H 0.32408 0.20305 0.06616 0.0
H846 H 0.30605 0.19357 0.00382 0.0
H847 H 0.31384 0.1915 0.14114 0.0
H848 H 0.35893 0.19328 0.05014 0.0
H849 H 0.37138 0.1815 0.99807 0.0
H850 H 0.36369 0.13764 0.07699 0.0
H851 H 0.35095 0.14901 0.12937 0.0
C852 C 0.37459 0.21611 0.28679 0.0
C853 C 0.37602 0.2024 0.30818 0.0
C854 C 0.36541 0.21209 0.24976 0.0
C855 C 0.35736 0.19425 0.23362 0.0
C856 C 0.35864 0.18052 0.25506 0.0
C857 C 0.36786 0.18454 0.29201 0.0
C858 C 0.34797 0.18996 0.19391 0.0
C859 C 0.35413 0.18271 0.16348 0.0
C860 C 0.33339 0.19336 0.18562 0.0
C861 C 0.32578 0.20033 0.21693 0.0
C862 C 0.31917 0.19089 0.25367 0.0
C863 C 0.31212 0.19762 0.28312 0.0
C864 C 0.31149 0.21371 0.27607 0.0
C865 C 0.31785 0.22307 0.23949 0.0
C866 C 0.32492 0.21641 0.20995 0.0
C867 C 0.30338 0.1528 0.02826 0.0
C868 C 0.30041 0.16537 0.00611 0.0
C869 C 0.31353 0.15821 0.06401 0.0
C870 C 0.32113 0.17635 0.07809 0.0
C871 C 0.31835 0.18899 0.05583 0.0
C872 C 0.3081 0.18356 0.02014 0.0
C873 C 0.33135 0.18188 0.11685 0.0
C874 C 0.32536 0.18939 0.14712 0.0
C875 C 0.34613 0.17877 0.12496 0.0
C876 C 0.35384 0.17192 0.09355 0.0
C877 C 0.35976 0.18105 0.05629 0.0
C878 C 0.3669 0.17445 0.02673 0.0
C879 C 0.36829 0.15881 0.03418 0.0
C880 C 0.36259 0.14974 0.07125 0.0
C881 C 0.35543 0.15627 0.1009 0.0
H882 H 0.37382 0.15373 0.01126 0.0
H883 H 0.30602 0.21889 0.2989 0.0
H884 H 0.83992 0.13952 0.0073 0.0
H885 H 0.82741 0.14756 0.06529 0.0
H886 H 0.87305 0.15447 0.13817 0.0
H887 H 0.88547 0.14604 0.08048 0.0
H888 H 0.84158 0.13544 0.178 0.0
H889 H 0.87061 0.19169 0.10265 0.0
H890 H 0.87738 0.21137 0.04255 0.0
H891 H 0.8207 0.19723 0.03573 0.0
H892 H 0.81354 0.17726 0.0955 0.0
H893 H 0.82868 0.18329 0.3405 0.0
H894 H 0.8409 0.17463 0.28288 0.0
H895 H 0.79342 0.16411 0.21232 0.0
H896 H 0.78111 0.17285 0.26974 0.0
H897 H 0.82579 0.18501 0.17158 0.0
H898 H 0.79708 0.1288 0.24779 0.0
H899 H 0.79078 0.10954 0.30844 0.0
H900 H 0.84765 0.12427 0.3143 0.0
H901 H 0.85434 0.14384 0.25396 0.0
C902 C 0.84735 0.14282 0.03561 0.0
C903 C 0.86371 0.14218 0.03928 0.0
C904 C 0.84021 0.14749 0.0687 0.0
C905 C 0.84941 0.15183 0.10593 0.0
C906 C 0.86574 0.15118 0.1097 0.0
C907 C 0.87284 0.14641 0.07667 0.0
C908 C 0.8418 0.1567 0.14114 0.0
C909 C 0.83838 0.14646 0.17679 0.0
C910 C 0.83724 0.1708 0.13923 0.0
C911 C 0.84151 0.18284 0.10333 0.0
C912 C 0.85956 0.19266 0.08815 0.0
C913 C 0.86348 0.20389 0.05418 0.0
C914 C 0.84947 0.20551 0.03527 0.0
C915 C 0.83153 0.19594 0.05037 0.0
C916 C 0.82754 0.18468 0.08432 0.0
C917 C 0.82078 0.17905 0.3128 0.0
C918 C 0.80391 0.17874 0.3097 0.0
C919 C 0.82776 0.17405 0.27996 0.0
C920 C 0.81799 0.16862 0.24347 0.0
C921 C 0.80115 0.16826 0.24027 0.0
C922 C 0.79412 0.17319 0.27315 0.0
C923 C 0.82559 0.16375 0.20833 0.0
C924 C 0.82901 0.174 0.17273 0.0
C925 C 0.83024 0.14973 0.21035 0.0
C926 C 0.82624 0.13793 0.24658 0.0
C927 C 0.80827 0.12806 0.2622 0.0
C928 C 0.80462 0.11706 0.29649 0.0
C929 C 0.81881 0.11572 0.31527 0.0
C930 C 0.83667 0.12534 0.29974 0.0
C931 C 0.8404 0.13637 0.26548 0.0
H932 H 0.81596 0.10719 0.34181 0.0
H933 H 0.85253 0.21422 0.00897 0.0
H934 H 0.86514 0.73405 0.0775 0.0
H935 H 0.85275 0.71271 0.13439 0.0
H936 H 0.82437 0.6673 0.05184 0.0
H937 H 0.83667 0.68852 0.99472 0.0
H938 H 0.8026 0.66585 0.11692 0.0
H939 H 0.86284 0.67404 0.0931 0.0
H940 H 0.89647 0.69197 0.08368 0.0
H941 H 0.90277 0.71527 0.20199 0.0
H942 H 0.86913 0.69766 0.21189 0.0
H943 H 0.78358 0.59241 0.25178 0.0
H944 H 0.79376 0.61407 0.19537 0.0
H945 H 0.82585 0.65891 0.27712 0.0
H946 H 0.81599 0.63735 0.33355 0.0
H947 H 0.84546 0.66086 0.21234 0.0
H948 H 0.78569 0.65266 0.23755 0.0
H949 H 0.75209 0.6353 0.24768 0.0
H950 H 0.74471 0.61265 0.12845 0.0
H951 H 0.77833 0.62968 0.11778 0.0
C952 C 0.85623 0.71954 0.07142 0.0
C953 C 0.85197 0.71296 0.03161 0.0
C954 C 0.84919 0.70737 0.10395 0.0
C955 C 0.83777 0.68844 0.09722 0.0
C956 C 0.83317 0.68187 0.05759 0.0
C957 C 0.84029 0.69401 0.02503 0.0
C958 C 0.83097 0.67543 0.13155 0.0
C959 C 0.81193 0.66456 0.13756 0.0
C960 C 0.84321 0.67413 0.15888 0.0
C961 C 0.86345 0.68468 0.15306 0.0
C962 C 0.87138 0.6831 0.11697 0.0
C963 C 0.89045 0.69319 0.11157 0.0
C964 C 0.90175 0.7048 0.14217 0.0
C965 C 0.894 0.7063 0.17829 0.0
C966 C 0.87493 0.69626 0.18382 0.0
C967 C 0.79276 0.60689 0.25778 0.0
C968 C 0.79901 0.61316 0.29712 0.0
C969 C 0.79849 0.61926 0.22553 0.0
C970 C 0.81045 0.63812 0.23212 0.0
C971 C 0.81662 0.64441 0.27139 0.0
C972 C 0.81093 0.63207 0.3036 0.0
C973 C 0.81704 0.65125 0.19793 0.0
C974 C 0.83608 0.66214 0.19184 0.0
C975 C 0.80478 0.65261 0.1707 0.0
C976 C 0.78455 0.64232 0.17701 0.0
C977 C 0.77692 0.64386 0.2136 0.0
C978 C 0.75787 0.63411 0.21942 0.0
C979 C 0.74628 0.62288 0.18873 0.0
C980 C 0.75372 0.62137 0.15218 0.0
C981 C 0.77277 0.63107 0.14622 0.0
H982 H 0.73153 0.61538 0.19326 0.0
H983 H 0.91651 0.71259 0.13794 0.0
H984 H 0.97767 0.49188 0.33288 0.0
H985 H 0.99935 0.50359 0.38918 0.0
H986 H 0.95408 0.48115 0.47341 0.0
H987 H 0.93228 0.46958 0.4173 0.0
H988 H 0.98033 0.5157 0.49424 0.0
H989 H 0.97794 0.45929 0.45601 0.0
H990 H 0.97986 0.43755 0.40892 0.0
H991 H 0.03622 0.47728 0.3832 0.0
H992 H 0.03455 0.49936 0.42972 0.0
H993 H 0.02868 0.51894 0.67201 0.0
H994 H 0.00769 0.50891 0.61449 0.0
H995 H 0.05392 0.53074 0.53286 0.0
H996 H 0.07504 0.54056 0.59026 0.0
H997 H 0.02763 0.49715 0.50982 0.0
H998 H 0.03027 0.5534 0.549 0.0
H999 H 0.02835 0.57518 0.59593 0.0
H1000 H 0.97165 0.53594 0.61977 0.0
H1001 H 0.9733 0.51381 0.57338 0.0
C1002 C 0.97231 0.48947 0.36337 0.0
C1003 C 0.95324 0.47973 0.37064 0.0
C1004 C 0.98473 0.49611 0.3955 0.0
C1005 C 0.97831 0.49304 0.43545 0.0
C1006 C 0.9593 0.48364 0.44279 0.0
C1007 C 0.94687 0.47699 0.41068 0.0
C1008 C 0.99143 0.49953 0.46964 0.0
C1009 C 0.99054 0.51148 0.49796 0.0
C1010 C 0.005 0.49434 0.47386 0.0
C1011 C 0.00606 0.48104 0.44604 0.0
C1012 C 0.9907 0.46344 0.44007 0.0
C1013 C 0.99175 0.45105 0.41352 0.0
C1014 C 0.00814 0.45605 0.393 0.0
C1015 C 0.02353 0.47344 0.39907 0.0
C1016 C 0.02254 0.48589 0.42555 0.0
C1017 C 0.0344 0.52165 0.64183 0.0
C1018 C 0.05353 0.5306 0.63569 0.0
C1019 C 0.02238 0.51597 0.60899 0.0
C1020 C 0.02926 0.51929 0.56941 0.0
C1021 C 0.04834 0.52809 0.56318 0.0
C1022 C 0.06038 0.53372 0.59602 0.0
C1023 C 0.01652 0.51331 0.53453 0.0
C1024 C 0.01747 0.50143 0.50607 0.0
C1025 C 0.00301 0.51858 0.53018 0.0
C1026 C 0.00196 0.53188 0.55799 0.0
C1027 C 0.01743 0.54936 0.56449 0.0
C1028 C 0.01638 0.56178 0.59095 0.0
C1029 C -0.0001 0.55693 0.6109 0.0
C1030 C 0.98441 0.53967 0.60434 0.0
C1031 C 0.98539 0.52719 0.57793 0.0
H1032 H 0.99912 0.56657 0.63137 0.0
H1033 H 0.00892 0.44644 0.37246 0.0
H1034 H 0.48815 0.51254 0.66549 0.0
H1035 H 0.50041 0.50346 0.60868 0.0
H1036 H 0.45688 0.49958 0.53255 0.0
H1037 H 0.44424 0.50815 0.58953 0.0
H1038 H 0.46228 0.47175 0.51838 0.0
H1039 H 0.5009 0.53725 0.52944 0.0
H1040 H 0.52131 0.56655 0.56401 0.0
H1041 H 0.55993 0.54837 0.58858 0.0
H1042 H 0.53962 0.51884 0.55462 0.0
H1043 H 0.50269 0.47555 0.3282 0.0
H1044 H 0.49053 0.4834 0.38722 0.0
H1045 H 0.53105 0.48073 0.46252 0.0
H1046 H 0.54336 0.47289 0.40361 0.0
H1047 H 0.5275 0.51145 0.47771 0.0
H1048 H 0.48854 0.44598 0.46418 0.0
H1049 H 0.46798 0.4172 0.42803 0.0
H1050 H 0.4298 0.43618 0.40605 0.0
H1051 H 0.45027 0.46521 0.44159 0.0
C1052 C 0.48115 0.50968 0.63669 0.0
C1053 C 0.46529 0.51116 0.63191 0.0
C1054 C 0.48821 0.50457 0.60421 0.0
C1055 C 0.47974 0.50116 0.5662 0.0
C1056 C 0.46366 0.5022 0.5616 0.0
C1057 C 0.45648 0.50713 0.59418 0.0
C1058 C 0.48773 0.49667 0.5311 0.0
C1059 C 0.47648 0.48056 0.50921 0.0
C1060 C 0.50636 0.50797 0.5196 0.0
C1061 C 0.51865 0.52576 0.53984 0.0
C1062 C 0.51368 0.53944 0.54247 0.0
C1063 C 0.52524 0.5561 0.56192 0.0
C1064 C 0.54188 0.5593 0.57857 0.0
C1065 C 0.54703 0.54587 0.57571 0.0
C1066 C 0.5355 0.52917 0.55634 0.0
C1067 C 0.50907 0.47669 0.35727 0.0
C1068 C 0.52394 0.47353 0.36129 0.0
C1069 C 0.50205 0.4811 0.39096 0.0
C1070 C 0.50978 0.48244 0.42921 0.0
C1071 C 0.52488 0.4797 0.43322 0.0
C1072 C 0.53185 0.47518 0.39956 0.0
C1073 C 0.50203 0.48662 0.46505 0.0
C1074 C 0.51332 0.50266 0.48702 0.0
C1075 C 0.48341 0.47534 0.47642 0.0
C1076 C 0.47103 0.45784 0.45522 0.0
C1077 C 0.47583 0.44408 0.45136 0.0
C1078 C 0.46418 0.42771 0.43103 0.0
C1079 C 0.44762 0.42488 0.41466 0.0
C1080 C 0.44265 0.4384 0.4187 0.0
C1081 C 0.45426 0.45481 0.43897 0.0
H1082 H 0.43862 0.41219 0.39894 0.0
H1083 H 0.55082 0.57221 0.59362 0.0
H1084 H 0.49095 0.97312 0.67536 0.0
H1085 H 0.49986 0.99301 0.61604 0.0
H1086 H 0.49336 0.948 0.54134 0.0
H1087 H 0.48506 0.92821 0.60083 0.0
H1088 H 0.52253 0.978 0.51868 0.0
H1089 H 0.46036 0.96142 0.54515 0.0
H1090 H 0.43394 0.95736 0.58562 0.0
H1091 H 0.4607 0.01563 0.60592 0.0
H1092 H 0.48747 0.02003 0.56615 0.0
H1093 H 0.52075 0.02181 0.33451 0.0
H1094 H 0.5105 -1e-05 0.39088 0.0
H1095 H 0.52634 0.04468 0.47488 0.0
H1096 H 0.53675 0.06658 0.41892 0.0
H1097 H 0.491 0.01342 0.48965 0.0
H1098 H 0.55396 0.02859 0.46368 0.0
H1099 H 0.5792 0.03134 0.42067 0.0
H1100 H 0.54849 0.97342 0.39546 0.0
H1101 H 0.52294 0.97037 0.43791 0.0
C1102 C 0.49151 0.96749 0.64633 0.0
C1103 C 0.48722 0.94908 0.6427 0.0
C1104 C 0.49649 0.97883 0.6124 0.0
C1105 C 0.4969 0.97189 0.57408 0.0
C1106 C 0.49307 0.95364 0.57056 0.0
C1107 C 0.48832 0.94234 0.60459 0.0
C1108 C 0.50129 0.98367 0.53773 0.0
C1109 C 0.51543 0.98551 0.51205 0.0
C1110 C 0.49212 0.9936 0.52915 0.0
C1111 C 0.476 0.99103 0.55295 0.0
C1112 C 0.46068 0.97336 0.55849 0.0
C1113 C 0.44563 0.971 0.58127 0.0
C1114 C 0.44565 0.98622 0.59838 0.0
C1115 C 0.46071 0.00385 0.59268 0.0
C1116 C 0.47583 0.00629 0.57 0.0
C1117 C 0.52197 0.02697 0.36497 0.0
C1118 C 0.52963 0.04591 0.37233 0.0
C1119 C 0.51616 0.01451 0.39708 0.0
C1120 C 0.51778 0.02079 0.43693 0.0
C1121 C 0.525 0.03961 0.44429 0.0
C1122 C 0.53101 0.05209 0.4123 0.0
C1123 C 0.51231 0.00783 0.47119 0.0
C1124 C 0.49798 0.00578 0.49634 0.0
C1125 C 0.52107 0.99748 0.4789 0.0
C1126 C 0.53647 0.99929 0.45361 0.0
C1127 C 0.55253 0.01647 0.44869 0.0
C1128 C 0.5669 0.01808 0.42447 0.0
C1129 C 0.56543 0.00257 0.40525 0.0
C1130 C 0.5496 0.98542 0.41032 0.0
C1131 C 0.53518 0.98374 0.43447 0.0
H1132 H 0.57657 0.00384 0.38651 0.0
H1133 H 0.43397 0.98436 0.616 0.0
H1134 H 0.17294 0.24251 0.05087 0.0
H1135 H 0.18731 0.22589 0.02277 0.0
H1136 H 0.14324 0.175 0.0705 0.0
H1137 H 0.12906 0.19171 0.09994 0.0
H1138 H 0.17473 0.17583 0.07944 0.0
H1139 H 0.14479 0.18704 0.9695 0.0
H1140 H 0.13698 0.20571 0.92506 0.0
H1141 H 0.19349 0.23777 0.88852 0.0
H1142 H 0.2017 0.21944 0.93318 0.0
H1143 H 0.19452 0.11844 0.95752 0.0
H1144 H 0.17857 0.1339 0.98384 0.0
H1145 H 0.22509 0.18657 0.95259 0.0
H1146 H 0.2412 0.17124 0.92613 0.0
H1147 H 0.19117 0.18371 0.93405 0.0
H1148 H 0.22065 0.17236 0.04669 0.0
H1149 H 0.22764 0.15294 0.09069 0.0
H1150 H 0.17039 0.11993 0.12085 0.0
H1151 H 0.16303 0.13901 0.07655 0.0
C1152 C 0.16636 0.22779 0.05566 0.0
C1153 C 0.14979 0.21839 0.07738 0.0
C1154 C 0.17453 0.21829 0.03934 0.0
C1155 C 0.16612 0.19912 0.04364 0.0
C1156 C 0.14992 0.18977 0.06656 0.0
C1157 C 0.14183 0.19933 0.08339 0.0
C1158 C 0.1742 0.18888 0.02387 0.0
C1159 C 0.17805 0.17735 0.04752 0.0
C1160 C 0.17879 0.19105 0.98228 0.0
C1161 C 0.17388 0.20196 0.95497 0.0
C1162 C 0.15557 0.19814 0.95217 0.0
C1163 C 0.15107 0.20865 0.92693 0.0
C1164 C 0.16473 0.22294 0.90406 0.0
C1165 C 0.18292 0.22671 0.90628 0.0
C1166 C 0.1875 0.21625 0.93153 0.0
C1167 C 0.20131 0.13331 0.95581 0.0
C1168 C 0.2192 0.14362 0.93995 0.0
C1169 C 0.19218 0.14211 0.97101 0.0
C1170 C 0.20075 0.16137 0.97059 0.0
C1171 C 0.21827 0.17168 0.95326 0.0
C1172 C 0.22747 0.1629 0.93825 0.0
C1173 C 0.19175 0.17081 0.98971 0.0
C1174 C 0.18774 0.18217 0.96591 0.0
C1175 C 0.18684 0.16836 0.03104 0.0
C1176 C 0.19127 0.15699 0.05799 0.0
C1177 C 0.20954 0.16087 0.06247 0.0
C1178 C 0.21357 0.14994 0.0875 0.0
C1179 C 0.19946 0.13518 0.10847 0.0
C1180 C 0.1813 0.13135 0.10455 0.0
C1181 C 0.17719 0.14223 0.07951 0.0
H1182 H 0.20261 0.12673 0.12783 0.0
H1183 H 0.16122 0.23107 0.88456 0.0
H1184 H 0.8824 0.07579 0.00286 0.0
H1185 H 0.86618 0.04421 0.02781 0.0
H1186 H 0.81949 0.0325 0.95303 0.0
H1187 H 0.83551 0.06422 0.92838 0.0
H1188 H 0.80894 0.02061 0.02839 0.0
H1189 H 0.84824 0.01565 0.92993 0.0
H1190 H 0.87773 0.02414 0.89668 0.0
H1191 H 0.89796 0.01351 0.00648 0.0
H1192 H 0.86866 0.00518 0.04056 0.0
H1193 H 0.75949 0.92382 0.04456 0.0
H1194 H 0.77709 0.95557 0.02158 0.0
H1195 H 0.82196 0.96468 0.09981 0.0
H1196 H 0.80448 0.93265 0.12266 0.0
H1197 H 0.83406 0.97822 0.02514 0.0
H1198 H 0.79447 0.98248 0.12314 0.0
H1199 H 0.76493 0.97389 0.15625 0.0
H1200 H 0.74525 0.98586 0.04729 0.0
H1201 H 0.77459 0.99429 0.01333 0.0
C1202 C 0.86876 0.06646 0.99134 0.0
C1203 C 0.86024 0.07255 0.96364 0.0
C1204 C 0.85952 0.04837 0.00558 0.0
C1205 C 0.84166 0.03595 0.99212 0.0
C1206 C 0.83326 0.04187 0.96387 0.0
C1207 C 0.84247 0.05999 0.94968 0.0
C1208 C 0.83143 0.01702 0.00882 0.0
C1209 C 0.81432 0.01125 0.02716 0.0
C1210 C 0.83871 0.00502 0.00837 0.0
C1211 C 0.85632 0.00997 0.9879 0.0
C1212 C 0.85903 0.01526 0.94708 0.0
C1213 C 0.8757 0.02002 0.92807 0.0
C1214 C 0.88972 0.01941 0.94949 0.0
C1215 C 0.88709 0.01399 0.98994 0.0
C1216 C 0.87045 0.00924 0.00911 0.0
C1217 C 0.77305 0.93256 0.0572 0.0
C1218 C 0.78057 0.92568 0.08555 0.0
C1219 C 0.78307 0.95077 0.04408 0.0
C1220 C 0.80077 0.96256 0.05927 0.0
C1221 C 0.80831 0.9558 0.08776 0.0
C1222 C 0.79827 0.93753 0.1009 0.0
C1223 C 0.81151 0.98177 0.04437 0.0
C1224 C 0.82872 0.98761 0.02645 0.0
C1225 C 0.80432 0.99385 0.04519 0.0
C1226 C 0.78668 0.98887 0.06559 0.0
C1227 C 0.78379 0.98315 0.10614 0.0
C1228 C 0.76709 0.97833 0.12508 0.0
C1229 C 0.75321 0.97929 0.10386 0.0
C1230 C 0.75601 0.98511 0.06368 0.0
C1231 C 0.77269 0.98993 0.04458 0.0
H1232 H 0.74029 0.97555 0.11857 0.0
H1233 H 0.90262 0.0231 0.93471 0.0
H1234 H 0.92148 0.80515 0.96177 0.0
H1235 H 0.9533 0.82195 0.98544 0.0
H1236 H 0.95903 0.77453 0.96154 0.0
H1237 H 0.92715 0.75755 0.938 0.0
H1238 H 0.97185 0.78902 0.03621 0.0
H1239 H 0.97905 0.81129 0.90017 0.0
H1240 H 0.97261 0.82519 0.84138 0.0
H1241 H 0.98874 0.87456 0.90918 0.0
H1242 H 0.99503 0.86085 0.96859 0.0
H1243 H 0.06868 0.8308 0.05302 0.0
H1244 H 0.0367 0.81473 0.03072 0.0
H1245 H 0.03346 0.86383 0.0507 0.0
H1246 H 0.06564 0.88017 0.07246 0.0
H1247 H 0.01911 0.84886 0.97911 0.0
H1248 H 0.01241 0.82701 0.1148 0.0
H1249 H 0.01876 0.81323 0.17394 0.0
H1250 H 0.00151 0.76325 0.10767 0.0
H1251 H 0.99529 0.77683 0.04792 0.0
C1252 C 0.92953 0.79832 0.96123 0.0
C1253 C 0.92177 0.78 0.94796 0.0
C1254 C 0.94775 0.80797 0.97468 0.0
C1255 C 0.95856 0.79952 0.97505 0.0
C1256 C 0.95091 0.7813 0.96151 0.0
C1257 C 0.93271 0.77165 0.9479 0.0
C1258 C 0.97768 0.80952 0.99065 0.0
C1259 C 0.98227 0.80198 0.02339 0.0
C1260 C 0.99109 0.82669 0.97465 0.0
C1261 C 0.98733 0.83497 0.93896 0.0
C1262 C 0.98107 0.82505 0.90266 0.0
C1263 C 0.97748 0.83291 0.8692 0.0
C1264 C 0.98021 0.85073 0.87158 0.0
C1265 C 0.9866 0.86075 0.9074 0.0
C1266 C 0.9902 0.85295 0.94096 0.0
C1267 C 0.06115 0.83817 0.05304 0.0
C1268 C 0.06973 0.85678 0.0646 0.0
C1269 C 0.04282 0.82893 0.04038 0.0
C1270 C 0.03262 0.83802 0.03939 0.0
C1271 C 0.04107 0.85655 0.05126 0.0
C1272 C 0.05945 0.86584 0.06385 0.0
C1273 C 0.01333 0.82834 0.02462 0.0
C1274 C 0.0087 0.83593 0.99203 0.0
C1275 C 0.99985 0.81123 0.04084 0.0
C1276 C 0.00355 0.80301 0.07675 0.0
C1277 C 0.01011 0.81314 0.11273 0.0
C1278 C 0.01366 0.80535 0.14638 0.0
C1279 C 0.01058 0.78739 0.14453 0.0
C1280 C 0.0039 0.77717 0.10905 0.0
C1281 C 0.00035 0.78489 0.07529 0.0
H1282 H 0.01334 0.78139 0.17062 0.0
H1283 H 0.97743 0.85679 0.84564 0.0
H1284 H 0.85449 0.78256 0.91288 0.0
H1285 H 0.84276 0.80263 0.93448 0.0
H1286 H 0.7941 0.75571 0.98233 0.0
H1287 H 0.80551 0.7355 0.96002 0.0
H1288 H 0.78538 0.7786 0.94617 0.0
H1289 H 0.8304 0.7842 0.04354 0.0
H1290 H 0.8609 0.79007 0.0659 0.0
H1291 H 0.88582 0.8451 0.01921 0.0
H1292 H 0.85549 0.83946 0.99603 0.0
H1293 H 0.75549 0.82516 0.07617 0.0
H1294 H 0.76775 0.80577 0.0528 0.0
H1295 H 0.81425 0.85317 -0.00012 0.0
H1296 H 0.80219 0.8727 0.02337 0.0
H1297 H 0.82431 0.8305 0.03782 0.0
H1298 H 0.77898 0.82485 0.94147 0.0
H1299 H 0.74836 0.81883 0.91964 0.0
H1300 H 0.72388 0.76366 0.96532 0.0
H1301 H 0.75433 0.76944 0.98799 0.0
C1302 C 0.84119 0.77648 0.92758 0.0
C1303 C 0.83099 0.75744 0.93499 0.0
C1304 C 0.83456 0.78799 0.94012 0.0
C1305 C 0.81772 0.78072 0.96074 0.0
C1306 C 0.80717 0.76163 0.96664 0.0
C1307 C 0.81373 0.7501 0.95389 0.0
C1308 C 0.81134 0.79301 0.97732 0.0
C1309 C 0.79381 0.78981 0.96657 0.0
C1310 C 0.82248 0.80786 0.00338 0.0
C1311 C 0.8407 0.81135 0.01771 0.0
C1312 C 0.8424 0.79751 0.03781 0.0
C1313 C 0.85966 0.8008 0.05065 0.0
C1314 C 0.8753 0.81793 0.04389 0.0
C1315 C 0.8737 0.83183 0.02438 0.0
C1316 C 0.85648 0.8286 0.01141 0.0
C1317 C 0.76843 0.83151 0.05997 0.0
C1318 C 0.77779 0.85046 0.05136 0.0
C1319 C 0.77537 0.82039 0.04647 0.0
C1320 C 0.79175 0.828 0.02406 0.0
C1321 C 0.80154 0.84702 0.01697 0.0
C1322 C 0.7946 0.85815 0.03037 0.0
C1323 C 0.79834 0.81602 0.00679 0.0
C1324 C 0.8159 0.81929 0.01739 0.0
C1325 C 0.78722 0.80121 0.9807 0.0
C1326 C 0.76891 0.79764 0.96677 0.0
C1327 C 0.76705 0.81148 0.94713 0.0
C1328 C 0.74973 0.8081 0.93457 0.0
C1329 C 0.73418 0.79089 0.94118 0.0
C1330 C 0.73593 0.77699 0.96027 0.0
C1331 C 0.75322 0.78031 0.97296 0.0
H1332 H 0.72078 0.7883 0.93143 0.0
H1333 H 0.88865 0.82045 0.05384 0.0
H1334 H 0.14202 0.92217 0.96622 0.0
H1335 H 0.15964 0.95514 0.95253 0.0
H1336 H 0.17409 0.96578 0.07845 0.0
H1337 H 0.15639 0.93272 0.09255 0.0
H1338 H 0.16396 0.98978 0.04559 0.0
H1339 H 0.20478 0.96692 0.0135 0.0
H1340 H 0.21389 0.94644 0.98001 0.0
H1341 H 0.20666 0.96474 0.86401 0.0
H1342 H 0.19725 0.98514 0.89683 0.0
H1343 H 0.23729 0.08133 0.02892 0.0
H1344 H 0.21855 0.04844 0.04224 0.0
H1345 H 0.20797 0.03804 0.91479 0.0
H1346 H 0.22706 0.07101 0.90107 0.0
H1347 H 0.21568 0.01376 0.94787 0.0
H1348 H 0.17527 0.03687 0.97892 0.0
H1349 H 0.16585 0.05727 0.0116 0.0
H1350 H 0.17165 0.03845 0.12822 0.0
H1351 H 0.18138 0.01813 0.09624 0.0
C1352 C 0.14886 0.93149 0.9911 0.0
C1353 C 0.14788 0.9248 0.03047 0.0
C1354 C 0.15899 0.95034 0.98316 0.0
C1355 C 0.16834 0.96288 0.01439 0.0
C1356 C 0.167 0.95631 0.05392 0.0
C1357 C 0.15693 0.93743 0.06189 0.0
C1358 C 0.17976 0.9828 0.00558 0.0
C1359 C 0.17542 0.99508 0.02463 0.0
C1360 C 0.19439 0.98961 0.97743 0.0
C1361 C 0.20014 0.97742 0.95763 0.0
C1362 C 0.20499 0.96646 0.98085 0.0
C1363 C 0.21023 0.95489 0.96199 0.0
C1364 C 0.2108 0.95425 0.91991 0.0
C1365 C 0.20618 0.96523 0.89661 0.0
C1366 C 0.20091 0.97681 0.91532 0.0
C1367 C 0.23098 0.07208 0.00366 0.0
C1368 C 0.23361 0.07881 0.96392 0.0
C1369 C 0.2202 0.05326 0.01137 0.0
C1370 C 0.21162 0.04079 0.97958 0.0
C1371 C 0.21441 0.04743 0.9398 0.0
C1372 C 0.2253 0.06627 0.93202 0.0
C1373 C 0.19992 0.02081 0.9879 0.0
C1374 C 0.2042 0.0085 0.96877 0.0
C1375 C 0.18517 0.01398 0.01585 0.0
C1376 C 0.17922 0.02611 0.03518 0.0
C1377 C 0.17468 0.03719 0.01154 0.0
C1378 C 0.16926 0.04872 0.02994 0.0
C1379 C 0.1682 0.04919 0.07196 0.0
C1380 C 0.1725 0.03809 0.09567 0.0
C1381 C 0.17795 0.02655 0.07742 0.0
H1382 H 0.164 0.05813 0.08615 0.0
H1383 H 0.21487 0.94528 0.90536 0.0
H1384 H 0.93065 0.13944 0.92263 0.0
H1385 H 0.96251 0.15192 0.94441 0.0
H1386 H 0.96433 0.20194 0.98265 0.0
H1387 H 0.93258 0.18973 0.96015 0.0
H1388 H 0.99603 0.20942 0.94749 0.0
H1389 H 0.95681 0.16825 0.05035 0.0
H1390 H 0.93195 0.13883 0.07709 0.0
H1391 H 0.96111 0.11156 0.03867 0.0
H1392 H 0.98602 0.14078 0.01113 0.0
H1393 H 0.07331 0.24216 0.07648 0.0
H1394 H 0.04138 0.22947 0.0547 0.0
H1395 H 0.04147 0.18174 0.00677 0.0
H1396 H 0.07341 0.1943 0.02843 0.0
H1397 H 0.00891 0.17316 0.04725 0.0
H1398 H 0.04825 0.21481 0.94462 0.0
H1399 H 0.07313 0.24449 0.91907 0.0
H1400 H 0.04361 0.27122 0.95864 0.0
H1401 H 0.01869 0.24172 0.98509 0.0
C1402 C 0.93788 0.15319 0.93524 0.0
C1403 C 0.92902 0.16354 0.93996 0.0
C1404 C 0.95607 0.16026 0.94787 0.0
C1405 C 0.96568 0.17772 0.9659 0.0
C1406 C 0.95715 0.1884 0.969 0.0
C1407 C 0.93898 0.18138 0.95615 0.0
C1408 C 0.98437 0.18456 0.98283 0.0
C1409 C 0.99879 0.2016 0.96967 0.0
C1410 C 0.98804 0.17421 0.01133 0.0
C1411 C 0.97319 0.15667 0.02834 0.0
C1412 C 0.95786 0.15595 0.04737 0.0
C1413 C 0.94377 0.13932 0.06269 0.0
C1414 C 0.94493 0.12332 0.05949 0.0
C1415 C 0.96022 0.12395 0.04107 0.0
C1416 C 0.97433 0.14055 0.02563 0.0
C1417 C 0.06647 0.22885 0.06181 0.0
C1418 C 0.07594 0.2193 0.0539 0.0
C1419 C 0.04826 0.22166 0.04923 0.0
C1420 C 0.03918 0.2048 0.02865 0.0
C1421 C 0.04827 0.19481 0.02249 0.0
C1422 C 0.06653 0.20204 0.03481 0.0
C1423 C 0.02051 0.19799 0.0119 0.0
C1424 C 0.00611 0.18097 0.0251 0.0
C1425 C 0.01685 0.20839 0.9836 0.0
C1426 C 0.03169 0.22609 0.96721 0.0
C1427 C 0.04713 0.22704 0.94816 0.0
C1428 C 0.06123 0.24383 0.93348 0.0
C1429 C 0.05997 0.25974 0.93732 0.0
C1430 C 0.04458 0.25888 0.95574 0.0
C1431 C 0.03046 0.24213 0.97057 0.0
H1432 H 0.0709 0.27272 0.92594 0.0
H1433 H 0.934 0.11045 0.07135 0.0
H1434 H 0.81008 0.54585 0.41764 0.0
H1435 H 0.82223 0.52582 0.39805 0.0
H1436 H 0.85857 0.56657 0.31251 0.0
H1437 H 0.84659 0.58667 0.33192 0.0
H1438 H 0.83986 0.5315 0.27988 0.0
H1439 H 0.87586 0.56159 0.39742 0.0
H1440 H 0.88102 0.57177 0.46839 0.0
H1441 H 0.85131 0.51553 0.5079 0.0
H1442 H 0.84574 0.50501 0.43709 0.0
H1443 H 0.90268 0.49939 0.24115 0.0
H1444 H 0.88785 0.51717 0.2591 0.0
H1445 H 0.85305 0.47513 0.34407 0.0
H1446 H 0.86774 0.45724 0.32628 0.0
H1447 H 0.86978 0.50979 0.37728 0.0
H1448 H 0.83471 0.47959 0.25974 0.0
H1449 H 0.8296 0.46939 0.1888 0.0
H1450 H 0.85746 0.52564 0.1492 0.0
H1451 H 0.86298 0.53619 0.21997 0.0
C1452 C 0.82073 0.55059 0.39483 0.0
C1453 C 0.8274 0.56787 0.37641 0.0
C1454 C 0.82767 0.53914 0.38371 0.0
C1455 C 0.84132 0.54475 0.35388 0.0
C1456 C 0.84801 0.56198 0.33553 0.0
C1457 C 0.84121 0.57349 0.34685 0.0
C1458 C 0.84854 0.53258 0.34148 0.0
C1459 C 0.8466 0.52691 0.30104 0.0
C1460 C 0.8569 0.52625 0.36935 0.0
C1461 C 0.8602 0.53252 0.41195 0.0
C1462 C 0.87027 0.55139 0.42123 0.0
C1463 C 0.8733 0.55723 0.46143 0.0
C1464 C 0.86645 0.54431 0.49263 0.0
C1465 C 0.85658 0.52552 0.48369 0.0
C1466 C 0.85349 0.51962 0.44353 0.0
C1467 C 0.89173 0.49382 0.26332 0.0
C1468 C 0.88641 0.47691 0.28232 0.0
C1469 C 0.88324 0.50398 0.27348 0.0
C1470 C 0.86933 0.49744 0.30287 0.0
C1471 C 0.86377 0.48042 0.32135 0.0
C1472 C 0.87214 0.47018 0.31098 0.0
C1473 C 0.86118 0.50876 0.31561 0.0
C1474 C 0.86296 0.51429 0.35613 0.0
C1475 C 0.85268 0.51495 0.2878 0.0
C1476 C 0.84942 0.50868 0.24518 0.0
C1477 C 0.8399 0.48979 0.23592 0.0
C1478 C 0.8369 0.48394 0.19573 0.0
C1479 C 0.84324 0.49686 0.16451 0.0
C1480 C 0.85257 0.51565 0.17342 0.0
C1481 C 0.85563 0.52157 0.21357 0.0
H1482 H 0.84089 0.4923 0.13341 0.0
H1483 H 0.86882 0.54885 0.52374 0.0
H1484 H 0.50357 0.40505 0.29977 0.0
H1485 H 0.49046 0.37349 0.32356 0.0
H1486 H 0.50938 0.35929 0.21571 0.0
H1487 H 0.52241 0.39096 0.19122 0.0
H1488 H 0.4743 0.33325 0.23504 0.0
H1489 H 0.53218 0.3658 0.30393 0.0
H1490 H 0.55601 0.39068 0.3455 0.0
H1491 H 0.51809 0.3751 0.4445 0.0
H1492 H 0.49394 0.35028 0.40333 0.0
H1493 H 0.45858 0.24745 0.30619 0.0
H1494 H 0.47481 0.27932 0.28303 0.0
H1495 H 0.45579 0.29563 0.38756 0.0
H1496 H 0.43957 0.26371 0.41124 0.0
H1497 H 0.49189 0.3205 0.3691 0.0
H1498 H 0.43385 0.2889 0.30044 0.0
H1499 H 0.40968 0.26392 0.25968 0.0
H1500 H 0.44746 0.27786 0.16083 0.0
H1501 H 0.47197 0.30272 0.20129 0.0
C1502 C 0.50496 0.39525 0.28097 0.0
C1503 C 0.51414 0.40057 0.24362 0.0
C1504 C 0.49751 0.37721 0.29476 0.0
C1505 C 0.49919 0.36411 0.27172 0.0
C1506 C 0.50801 0.36923 0.23404 0.0
C1507 C 0.51547 0.38732 0.22013 0.0
C1508 C 0.49165 0.34508 0.28711 0.0
C1509 C 0.47837 0.33043 0.26403 0.0
C1510 C 0.49664 0.34146 0.32543 0.0
C1511 C 0.5112 0.35627 0.35041 0.0
C1512 C 0.52888 0.36775 0.33448 0.0
C1513 C 0.54245 0.38184 0.35798 0.0
C1514 C 0.53855 0.3845 0.39759 0.0
C1515 C 0.52108 0.37304 0.41381 0.0
C1516 C 0.50746 0.35894 0.39041 0.0
C1517 C 0.45798 0.25782 0.32454 0.0
C1518 C 0.44765 0.25301 0.36041 0.0
C1519 C 0.46723 0.27602 0.31116 0.0
C1520 C 0.46625 0.28977 0.33325 0.0
C1521 C 0.45666 0.2852 0.37001 0.0
C1522 C 0.44738 0.26695 0.38346 0.0
C1523 C 0.47455 0.30872 0.31703 0.0
C1524 C 0.48792 0.32334 0.33999 0.0
C1525 C 0.4696 0.31232 0.27868 0.0
C1526 C 0.4548 0.29756 0.25405 0.0
C1527 C 0.43705 0.28655 0.27011 0.0
C1528 C 0.42328 0.27242 0.24706 0.0
C1529 C 0.42704 0.26928 0.20772 0.0
C1530 C 0.44457 0.28029 0.19133 0.0
C1531 C 0.45841 0.29441 0.2143 0.0
H1532 H 0.41637 0.25833 0.18992 0.0
H1533 H 0.54907 0.39541 0.41573 0.0
H1534 H 0.60441 0.14159 0.24903 0.0
H1535 H 0.63526 0.15885 0.27819 0.0
H1536 H 0.63038 0.10829 0.32281 0.0
H1537 H 0.59942 0.09105 0.29478 0.0
H1538 H 0.6435 0.13306 0.3796 0.0
H1539 H 0.6576 0.13181 0.23968 0.0
H1540 H 0.65635 0.13656 0.16657 0.0
H1541 H 0.67906 0.19452 0.186 0.0
H1542 H 0.68023 0.19008 0.25933 0.0
H1543 H 0.7381 0.16301 0.41672 0.0
H1544 H 0.70652 0.14812 0.39122 0.0
H1545 H 0.71217 0.20125 0.36788 0.0
H1546 H 0.74373 0.21629 0.39368 0.0
H1547 H 0.6987 0.17688 0.3017 0.0
H1548 H 0.68601 0.1775 0.44256 0.0
H1549 H 0.68784 0.17194 0.51502 0.0
H1550 H 0.66301 0.11395 0.49261 0.0
H1551 H 0.66127 0.11919 0.41989 0.0
C1552 C 0.60998 0.13414 0.26473 0.0
C1553 C 0.59946 0.11495 0.26957 0.0
C1554 C 0.62764 0.14402 0.28133 0.0
C1555 C 0.63522 0.13487 0.3025 0.0
C1556 C 0.62482 0.11568 0.30677 0.0
C1557 C 0.60714 0.10583 0.29056 0.0
C1558 C 0.65377 0.14523 0.32121 0.0
C1559 C 0.65559 0.14248 0.36239 0.0
C1560 C 0.6695 0.15787 0.29909 0.0
C1561 C 0.66881 0.16058 0.25503 0.0
C1562 C 0.66219 0.14555 0.22839 0.0
C1563 C 0.66152 0.14819 0.18692 0.0
C1564 C 0.66757 0.16582 0.17167 0.0
C1565 C 0.67435 0.18087 0.19787 0.0
C1566 C 0.67503 0.1783 0.23938 0.0
C1567 C 0.73255 0.17154 0.40666 0.0
C1568 C 0.74341 0.19083 0.40724 0.0
C1569 C 0.71451 0.163 0.39215 0.0
C1570 C 0.70704 0.1736 0.37772 0.0
C1571 C 0.71771 0.19285 0.37889 0.0
C1572 C 0.73569 0.20141 0.39386 0.0
C1573 C 0.68837 0.16451 0.3598 0.0
C1574 C 0.68655 0.16753 0.31884 0.0
C1575 C 0.67267 0.15196 0.38198 0.0
C1576 C 0.67367 0.14876 0.42571 0.0
C1577 C 0.68109 0.16357 0.45302 0.0
C1578 C 0.68207 0.16048 0.49416 0.0
C1579 C 0.67559 0.14261 0.5084 0.0
C1580 C 0.66805 0.12779 0.48153 0.0
C1581 C 0.66704 0.13081 0.44036 0.0
H1582 H 0.67636 0.14024 0.54026 0.0
H1583 H 0.66704 0.16784 0.13954 0.0
H1584 H 0.54048 0.12793 0.33794 0.0
H1585 H 0.52047 0.14058 0.35229 0.0
H1586 H 0.48339 0.107 0.25811 0.0
H1587 H 0.50338 0.09421 0.24343 0.0
H1588 H 0.48964 0.14297 0.25841 0.0
H1589 H 0.47263 0.09339 0.35203 0.0
H1590 H 0.47817 0.0758 0.40424 0.0
H1591 H 0.49931 0.12225 0.48415 0.0
H1592 H 0.49414 0.14023 0.43214 0.0
H1593 H 0.4125 0.15044 0.31669 0.0
H1594 H 0.43267 0.13815 0.30063 0.0
H1595 H 0.46881 0.16955 0.39819 0.0
H1596 H 0.4486 0.18185 0.41474 0.0
H1597 H 0.46302 0.13461 0.39581 0.0
H1598 H 0.48019 0.18427 0.30286 0.0
H1599 H 0.47505 0.2022 0.2508 0.0
H1600 H 0.45407 0.15611 0.16989 0.0
H1601 H 0.45884 0.1378 0.22172 0.0
C1602 C 0.52815 0.12331 0.32 0.0
C1603 C 0.52346 0.10996 0.28969 0.0
C1604 C 0.5167 0.13052 0.32838 0.0
C1605 C 0.50034 0.12454 0.30662 0.0
C1606 C 0.49593 0.11173 0.27533 0.0
C1607 C 0.50735 0.10442 0.26706 0.0
C1608 C 0.48763 0.13133 0.31736 0.0
C1609 C 0.4836 0.14093 0.28826 0.0
C1610 C 0.48013 0.12902 0.35662 0.0
C1611 C 0.48317 0.11822 0.38803 0.0
C1612 C 0.4786 0.09991 0.3806 0.0
C1613 C 0.48165 0.08986 0.41018 0.0
C1614 C 0.48913 0.09792 0.44745 0.0
C1615 C 0.49354 0.11603 0.45525 0.0
C1616 C 0.49054 0.12616 0.42574 0.0
C1617 C 0.42468 0.15468 0.33492 0.0
C1618 C 0.42898 0.16719 0.36692 0.0
C1619 C 0.43624 0.1477 0.32555 0.0
C1620 C 0.45237 0.15313 0.34786 0.0
C1621 C 0.45646 0.16523 0.3805 0.0
C1622 C 0.44491 0.17226 0.38988 0.0
C1623 C 0.46501 0.14628 0.33688 0.0
C1624 C 0.46904 0.13665 0.36595 0.0
C1625 C 0.47254 0.14861 0.29762 0.0
C1626 C 0.46969 0.1596 0.26634 0.0
C1627 C 0.47433 0.1779 0.27409 0.0
C1628 C 0.47151 0.18814 0.2446 0.0
C1629 C 0.46419 0.18028 0.2071 0.0
C1630 C 0.45972 0.16217 0.19898 0.0
C1631 C 0.46249 0.15186 0.22839 0.0
H1632 H 0.46202 0.18824 0.18429 0.0
H1633 H 0.49148 0.09011 0.47031 0.0
H1634 H 0.80522 0.25396 0.31875 0.0
H1635 H 0.82348 0.28662 0.30249 0.0
H1636 H 0.85763 0.29521 0.40682 0.0
H1637 H 0.83903 0.26256 0.42398 0.0
H1638 H 0.85091 0.32246 0.4001 0.0
H1639 H 0.87185 0.29225 0.31035 0.0
H1640 H 0.86907 0.26958 0.25941 0.0
H1641 H 0.84611 0.29146 0.17508 0.0
H1642 H 0.84851 0.31412 0.22575 0.0
H1643 H 0.92706 0.40779 0.33632 0.0
H1644 H 0.90781 0.37524 0.35347 0.0
H1645 H 0.868 0.36979 0.26425 0.0
H1646 H 0.88706 0.40246 0.24718 0.0
H1647 H 0.87781 0.34128 0.26309 0.0
H1648 H 0.85783 0.37209 0.35565 0.0
H1649 H 0.8624 0.39512 0.40738 0.0
H1650 H 0.88594 0.37223 0.48747 0.0
H1651 H 0.88177 0.34922 0.43593 0.0
C1652 C 0.81657 0.2628 0.33836 0.0
C1653 C 0.82076 0.25565 0.37252 0.0
C1654 C 0.82706 0.28146 0.3289 0.0
C1655 C 0.84216 0.29332 0.35297 0.0
C1656 C 0.84608 0.28632 0.38771 0.0
C1657 C 0.83546 0.26765 0.39745 0.0
C1658 C 0.85391 0.31296 0.34168 0.0
C1659 C 0.85697 0.32654 0.3703 0.0
C1660 C 0.86164 0.31834 0.30259 0.0
C1661 C 0.86019 0.30476 0.272 0.0
C1662 C 0.86608 0.29214 0.28105 0.0
C1663 C 0.86459 0.27931 0.25221 0.0
C1664 C 0.85737 0.27905 0.21407 0.0
C1665 C 0.85167 0.29166 0.20466 0.0
C1666 C 0.8531 0.30451 0.23342 0.0
C1667 C 0.91424 0.39966 0.3202 0.0
C1668 C 0.90855 0.40769 0.29042 0.0
C1669 C 0.90325 0.3811 0.33016 0.0
C1670 C 0.88647 0.3702 0.31027 0.0
C1671 C 0.88091 0.37803 0.27993 0.0
C1672 C 0.89178 0.39668 0.27032 0.0
C1673 C 0.87469 0.35063 0.32143 0.0
C1674 C 0.87168 0.33711 0.29282 0.0
C1675 C 0.86724 0.34531 0.36065 0.0
C1676 C 0.86965 0.35906 0.39177 0.0
C1677 C 0.86413 0.37207 0.38415 0.0
C1678 C 0.86662 0.3851 0.41347 0.0
C1679 C 0.8745 0.38517 0.45065 0.0
C1680 C 0.87986 0.37218 0.45863 0.0
C1681 C 0.87742 0.35913 0.42939 0.0
H1682 H 0.87642 0.39527 0.47331 0.0
H1683 H 0.85623 0.26911 0.19178 0.0
H1684 H 0.59299 0.45343 0.28694 0.0
H1685 H 0.62477 0.47253 0.30953 0.0
H1686 H 0.62333 0.52137 0.27514 0.0
H1687 H 0.59163 0.50235 0.25179 0.0
H1688 H 0.65612 0.52456 0.2568 0.0
H1689 H 0.6164 0.50698 0.37248 0.0
H1690 H 0.59204 0.4852 0.41823 0.0
H1691 H 0.62372 0.45906 0.44387 0.0
H1692 H 0.64816 0.48052 0.39777 0.0
H1693 H 0.73067 0.58921 0.37485 0.0
H1694 H 0.69939 0.56951 0.34992 0.0
H1695 H 0.70302 0.52133 0.37896 0.0
H1696 H 0.73436 0.54093 0.40416 0.0
H1697 H 0.66939 0.51765 0.3997 0.0
H1698 H 0.70949 0.53597 0.28465 0.0
H1699 H 0.73393 0.55828 0.23981 0.0
H1700 H 0.70152 0.5836 0.21373 0.0
H1701 H 0.67701 0.56163 0.25901 0.0
C1702 C 0.59949 0.46822 0.2837 0.0
C1703 C 0.58971 0.47637 0.26791 0.0
C1704 C 0.61764 0.47912 0.2968 0.0
C1705 C 0.62629 0.49839 0.29475 0.0
C1706 C 0.61689 0.50653 0.27718 0.0
C1707 C 0.59875 0.49563 0.2639 0.0
C1708 C 0.64483 0.51005 0.31256 0.0
C1709 C 0.65896 0.52319 0.28815 0.0
C1710 C 0.64862 0.50806 0.35333 0.0
C1711 C 0.63403 0.49524 0.38136 0.0
C1712 C 0.61811 0.49651 0.38765 0.0
C1713 C 0.6043 0.48423 0.41368 0.0
C1714 C 0.60631 0.47072 0.43387 0.0
C1715 C 0.62217 0.46951 0.42816 0.0
C1716 C 0.63601 0.48173 0.40211 0.0
C1717 C 0.72478 0.57442 0.37636 0.0
C1718 C 0.73506 0.56664 0.39126 0.0
C1719 C 0.70693 0.56319 0.36192 0.0
C1720 C 0.69902 0.54399 0.36205 0.0
C1721 C 0.70893 0.53614 0.37845 0.0
C1722 C 0.72683 0.54736 0.39278 0.0
C1723 C 0.68063 0.53213 0.34395 0.0
C1724 C 0.66653 0.51898 0.36833 0.0
C1725 C 0.67687 0.53417 0.30322 0.0
C1726 C 0.69148 0.54725 0.27552 0.0
C1727 C 0.70763 0.54638 0.2696 0.0
C1728 C 0.72149 0.55896 0.24408 0.0
C1729 C 0.7193 0.57237 0.224 0.0
C1730 C 0.70322 0.57322 0.22934 0.0
C1731 C 0.68932 0.56069 0.25492 0.0
H1732 H 0.73004 0.58207 0.20421 0.0
H1733 H 0.5956 0.46123 0.454 0.0
H1734 H 0.55014 0.81978 0.57413 0.0
H1735 H 0.53226 0.83371 0.59808 0.0
H1736 H 0.5218 0.80398 0.71034 0.0
H1737 H 0.53867 0.78932 0.68567 0.0
H1738 H 0.49322 0.8049 0.69346 0.0
H1739 H 0.55677 0.85093 0.69786 0.0
H1740 H 0.58816 0.87058 0.67138 0.0
H1741 H 0.5678 0.89476 0.58638 0.0
H1742 H 0.53624 0.87506 0.61202 0.0
H1743 H 0.49762 0.89596 0.77308 0.0
H1744 H 0.51251 0.8785 0.75284 0.0
H1745 H 0.46286 0.83931 0.69115 0.0
H1746 H 0.44767 0.8561 0.71341 0.0
H1747 H 0.52195 0.87277 0.68555 0.0
H1748 H 0.4593 0.79816 0.68112 0.0
H1749 H 0.43045 0.77895 0.71846 0.0
H1750 H 0.45339 0.81284 0.8235 0.0
H1751 H 0.48245 0.83211 0.78698 0.0
C1752 C 0.5438 0.81607 0.60368 0.0
C1753 C 0.54585 0.80352 0.62806 0.0
C1754 C 0.5337 0.82413 0.61751 0.0
C1755 C 0.526 0.82024 0.65646 0.0
C1756 C 0.52758 0.80725 0.68022 0.0
C1757 C 0.53727 0.79888 0.66606 0.0
C1758 C 0.51679 0.83006 0.67317 0.0
C1759 C 0.49951 0.81975 0.69169 0.0
C1760 C 0.52516 0.84948 0.672 0.0
C1761 C 0.54413 0.86139 0.65659 0.0
C1762 C 0.55898 0.86035 0.67334 0.0
C1763 C 0.5768 0.8715 0.65851 0.0
C1764 C 0.57997 0.88387 0.62715 0.0
C1765 C 0.56532 0.88515 0.61063 0.0
C1766 C 0.54747 0.874 0.62531 0.0
C1767 C 0.48982 0.88342 0.75583 0.0
C1768 C 0.47146 0.87729 0.74511 0.0
C1769 C 0.49835 0.8735 0.74405 0.0
C1770 C 0.48881 0.85745 0.72068 0.0
C1771 C 0.47042 0.85133 0.71005 0.0
C1772 C 0.46175 0.86098 0.72268 0.0
C1773 C 0.49834 0.84763 0.70588 0.0
C1774 C 0.51566 0.85793 0.68747 0.0
C1775 C 0.49037 0.82828 0.70883 0.0
C1776 C 0.47298 0.81668 0.73114 0.0
C1777 C 0.45821 0.80147 0.71222 0.0
C1778 C 0.44181 0.79058 0.73324 0.0
C1779 C 0.44007 0.79471 0.77328 0.0
C1780 C 0.45474 0.8097 0.79244 0.0
C1781 C 0.47116 0.82063 0.77157 0.0
H1782 H 0.42737 0.78627 0.78949 0.0
H1783 H 0.59378 0.8925 0.6157 0.0
H1784 H 0.19453 0.74279 0.58567 0.0
H1785 H 0.18474 0.71134 0.60758 0.0
H1786 H 0.13976 0.70976 0.67402 0.0
H1787 H 0.14946 0.74111 0.65257 0.0
H1788 H 0.15837 0.69731 0.71895 0.0
H1789 H 0.13212 0.68727 0.58553 0.0
H1790 H 0.13278 0.69149 0.51179 0.0
H1791 H 0.17048 0.67124 0.49949 0.0
H1792 H 0.17024 0.66714 0.57327 0.0
H1793 H 0.09935 0.6023 0.75408 0.0
H1794 H 0.1139 0.63453 0.7339 0.0
H1795 H 0.15568 0.62923 0.66945 0.0
H1796 H 0.14107 0.59684 0.68914 0.0
H1797 H 0.14162 0.64569 0.62374 0.0
H1798 H 0.16618 0.65356 0.75667 0.0
H1799 H 0.16545 0.6492 0.83035 0.0
H1800 H 0.13127 0.67351 0.84388 0.0
H1801 H 0.13157 0.67778 0.77018 0.0
C1802 C 0.18248 0.7357 0.60472 0.0
C1803 C 0.17277 0.74446 0.61734 0.0
C1804 C 0.17689 0.71773 0.61717 0.0
C1805 C 0.16149 0.70821 0.64235 0.0
C1806 C 0.15172 0.71688 0.65471 0.0
C1807 C 0.15725 0.73479 0.64222 0.0
C1808 C 0.15562 0.6893 0.65646 0.0
C1809 C 0.15454 0.68597 0.69816 0.0
C1810 C 0.15118 0.67465 0.6293 0.0
C1811 C 0.15133 0.6771 0.58495 0.0
C1812 C 0.14068 0.68388 0.56714 0.0
C1813 C 0.14095 0.68621 0.52533 0.0
C1814 C 0.15171 0.68169 0.50098 0.0
C1815 C 0.16218 0.67477 0.51839 0.0
C1816 C 0.16198 0.67243 0.5602 0.0
C1817 C 0.11175 0.60801 0.736 0.0
C1818 C 0.11904 0.59698 0.72319 0.0
C1819 C 0.1201 0.62648 0.72459 0.0
C1820 C 0.13596 0.63433 0.70038 0.0
C1821 C 0.14346 0.62345 0.68815 0.0
C1822 C 0.13513 0.60496 0.69958 0.0
C1823 C 0.14409 0.65362 0.68628 0.0
C1824 C 0.14562 0.65704 0.64458 0.0
C1825 C 0.14897 0.66837 0.71345 0.0
C1826 C 0.14877 0.66585 0.75783 0.0
C1827 C 0.15838 0.65784 0.77531 0.0
C1828 C 0.15807 0.65541 0.81709 0.0
C1829 C 0.14829 0.66104 0.84177 0.0
C1830 C 0.13883 0.66914 0.82472 0.0
C1831 C 0.13909 0.67159 0.78294 0.0
H1832 H 0.14807 0.65915 0.87411 0.0
H1833 H 0.1519 0.6835 0.46862 0.0
H1834 H 0.40463 0.54943 0.71496 0.0
H1835 H 0.37335 0.5344 0.68803 0.0
H1836 H 0.36934 0.48142 0.70222 0.0
H1837 H 0.40073 0.49634 0.72848 0.0
H1838 H 0.35825 0.48459 0.62912 0.0
H1839 H 0.34606 0.49569 0.76475 0.0
H1840 H 0.34985 0.5143 0.82538 0.0
H1841 H 0.33423 0.54795 0.75761 0.0
H1842 H 0.33058 0.52968 0.6964 0.0
H1843 H 0.26217 0.4265 0.60354 0.0
H1844 H 0.29377 0.4434 0.62816 0.0
H1845 H 0.29522 0.49476 0.60602 0.0
H1846 H 0.26344 0.47791 0.58157 0.0
H1847 H 0.30789 0.49366 0.68096 0.0
H1848 H 0.31899 0.48164 0.54582 0.0
H1849 H 0.31494 0.46269 0.48565 0.0
H1850 H 0.33244 0.43046 0.55305 0.0
H1851 H 0.33636 0.44906 0.61381 0.0
C1852 C 0.39702 0.53456 0.71287 0.0
C1853 C 0.4052 0.52409 0.72383 0.0
C1854 C 0.37911 0.52598 0.69752 0.0
C1855 C 0.36896 0.50677 0.69324 0.0
C1856 C 0.37693 0.49626 0.70513 0.0
C1857 C 0.39485 0.50482 0.72033 0.0
C1858 C 0.35036 0.49765 0.67467 0.0
C1859 C 0.34717 0.48638 0.64081 0.0
C1860 C 0.33606 0.50043 0.68913 0.0
C1861 C 0.33824 0.51143 0.72589 0.0
C1862 C 0.34358 0.50716 0.76269 0.0
C1863 C 0.34567 0.51762 0.79717 0.0
C1864 C 0.34233 0.53233 0.79532 0.0
C1865 C 0.33684 0.53657 0.75899 0.0
C1866 C 0.33475 0.52615 0.7244 0.0
C1867 C 0.26925 0.4414 0.60343 0.0
C1868 C 0.26027 0.45086 0.59056 0.0
C1869 C 0.28735 0.45105 0.61744 0.0
C1870 C 0.29689 0.47034 0.61872 0.0
C1871 C 0.28809 0.47986 0.60527 0.0
C1872 C 0.26997 0.47021 0.59111 0.0
C1873 C 0.31576 0.48047 0.63572 0.0
C1874 C 0.31901 0.49194 0.66922 0.0
C1875 C 0.33011 0.47784 0.621 0.0
C1876 C 0.32781 0.46665 0.58447 0.0
C1877 C 0.32183 0.47042 0.54791 0.0
C1878 C 0.31959 0.45975 0.51367 0.0
C1879 C 0.32339 0.44535 0.51555 0.0
C1880 C 0.32949 0.44161 0.55165 0.0
C1881 C 0.33174 0.45222 0.58598 0.0
H1882 H 0.32165 0.43711 0.48901 0.0
H1883 H 0.34395 0.54042 0.82205 0.0
H1884 H 0.20381 0.46029 0.67676 0.0
H1885 H 0.18559 0.47444 0.69576 0.0
H1886 H 0.14501 0.44188 0.60593 0.0
H1887 H 0.16346 0.42803 0.58595 0.0
H1888 H 0.14999 0.47527 0.60629 0.0
H1889 H 0.13855 0.43021 0.70731 0.0
H1890 H 0.14619 0.41418 0.75951 0.0
H1891 H 0.17258 0.46362 0.83032 0.0
H1892 H 0.1653 0.48003 0.77825 0.0
H1893 H 0.07592 0.48326 0.68724 0.0
H1894 H 0.09532 0.4704 0.66821 0.0
H1895 H 0.13939 0.511 0.74155 0.0
H1896 H 0.12011 0.52414 0.76053 0.0
H1897 H 0.13271 0.47395 0.75002 0.0
H1898 H 0.14249 0.51829 0.64632 0.0
H1899 H 0.13247 0.53238 0.59427 0.0
H1900 H 0.10649 0.48154 0.52826 0.0
H1901 H 0.11613 0.46705 0.58029 0.0
C1902 C 0.19106 0.45622 0.66085 0.0
C1903 C 0.18501 0.44294 0.63003 0.0
C1904 C 0.18061 0.46425 0.6719 0.0
C1905 C 0.16373 0.45895 0.65285 0.0
C1906 C 0.15794 0.44613 0.62118 0.0
C1907 C 0.16849 0.43821 0.60981 0.0
C1908 C 0.15202 0.4666 0.66635 0.0
C1909 C 0.14605 0.47477 0.63764 0.0
C1910 C 0.14705 0.46618 0.70738 0.0
C1911 C 0.15154 0.4564 0.73868 0.0
C1912 C 0.14613 0.43771 0.73385 0.0
C1913 C 0.15037 0.42855 0.76344 0.0
C1914 C 0.1599 0.43789 0.79817 0.0
C1915 C 0.16521 0.45641 0.80338 0.0
C1916 C 0.16102 0.46565 0.77385 0.0
C1917 C 0.08969 0.4894 0.69961 0.0
C1918 C 0.09651 0.50476 0.72531 0.0
C1919 C 0.10077 0.48206 0.68856 0.0
C1920 C 0.11881 0.48986 0.70322 0.0
C1921 C 0.1255 0.50483 0.72988 0.0
C1922 C 0.11449 0.51233 0.7406 0.0
C1923 C 0.13079 0.48258 0.68998 0.0
C1924 C 0.13675 0.47447 0.71873 0.0
C1925 C 0.13551 0.48278 0.64894 0.0
C1926 C 0.12988 0.49154 0.61741 0.0
C1927 C 0.13452 0.51007 0.62088 0.0
C1928 C 0.12893 0.51814 0.59135 0.0
C1929 C 0.11881 0.50785 0.55803 0.0
C1930 C 0.11431 0.48949 0.55411 0.0
C1931 C 0.11985 0.48134 0.5836 0.0
H1932 H 0.11449 0.51412 0.5352 0.0
H1933 H 0.16311 0.43076 0.82111 0.0
H1934 H 0.49543 0.59647 0.75374 0.0
H1935 H 0.51363 0.62947 0.73987 0.0
H1936 H 0.49504 0.61974 0.61624 0.0
H1937 H 0.47705 0.58676 0.62965 0.0
H1938 H 0.53125 0.64305 0.61992 0.0
H1939 H 0.47751 0.63748 0.68391 0.0
H1940 H 0.45398 0.62824 0.73714 0.0
H1941 H 0.49576 0.66161 0.82312 0.0
H1942 H 0.51959 0.67086 0.7705 0.0
H1943 H 0.55957 0.73655 0.57039 0.0
H1944 H 0.54171 0.70332 0.58242 0.0
H1945 H 0.5617 0.71164 0.70489 0.0
H1946 H 0.57949 0.74476 0.69328 0.0
H1947 H 0.52453 0.68906 0.70092 0.0
H1948 H 0.57827 0.69449 0.63604 0.0
H1949 H 0.6015 0.70376 0.58213 0.0
H1950 H 0.55919 0.67071 0.49684 0.0
H1951 H 0.53566 0.66144 0.55016 0.0
C1952 C 0.49516 0.60136 0.72365 0.0
C1953 C 0.48476 0.58899 0.69283 0.0
C1954 C 0.50553 0.62023 0.71579 0.0
C1955 C 0.50557 0.62708 0.67709 0.0
C1956 C 0.49522 0.61475 0.6463 0.0
C1957 C 0.48489 0.5959 0.6541 0.0
C1958 C 0.51656 0.64709 0.66852 0.0
C1959 C 0.52961 0.6531 0.63728 0.0
C1960 C 0.51466 0.66021 0.69165 0.0
C1961 C 0.50036 0.65471 0.72335 0.0
C1962 C 0.4817 0.64273 0.71425 0.0
C1963 C 0.46831 0.63751 0.74429 0.0
C1964 C 0.47338 0.6443 0.78351 0.0
C1965 C 0.49186 0.65635 0.79274 0.0
C1966 C 0.50531 0.66159 0.76281 0.0
C1967 C 0.56026 0.73129 0.59979 0.0
C1968 C 0.57095 0.7433 0.63088 0.0
C1969 C 0.55009 0.71231 0.60658 0.0
C1970 C 0.55044 0.70503 0.64452 0.0
C1971 C 0.56121 0.71698 0.67544 0.0
C1972 C 0.57142 0.73591 0.66866 0.0
C1973 C 0.53925 0.68501 0.65246 0.0
C1974 C 0.52615 0.679 0.68357 0.0
C1975 C 0.54106 0.6719 0.6291 0.0
C1976 C 0.55518 0.67743 0.59701 0.0
C1977 C 0.5739 0.68932 0.60572 0.0
C1978 C 0.58712 0.69455 0.57528 0.0
C1979 C 0.58182 0.68787 0.53606 0.0
C1980 C 0.56328 0.6759 0.52722 0.0
C1981 C 0.54999 0.67065 0.55754 0.0
H1982 H 0.59208 0.69193 0.51254 0.0
H1983 H 0.46299 0.64024 0.80673 0.0
H1984 H 0.26394 0.81655 0.57528 0.0
H1985 H 0.29607 0.82922 0.59522 0.0
H1986 H 0.29515 0.87475 0.65343 0.0
H1987 H 0.26318 0.86245 0.63256 0.0
H1988 H 0.32671 0.88665 0.61613 0.0
H1989 H 0.2907 0.8375 0.70761 0.0
H1990 H 0.26766 0.80592 0.72767 0.0
H1991 H 0.29908 0.78502 0.66892 0.0
H1992 H 0.32219 0.81647 0.648 0.0
H1993 H 0.40497 0.91175 0.743 0.0
H1994 H 0.37285 0.89959 0.72242 0.0
H1995 H 0.37731 0.86225 0.63999 0.0
H1996 H 0.40949 0.87457 0.65971 0.0
H1997 H 0.34416 0.84652 0.69137 0.0
H1998 H 0.37962 0.89638 0.59862 0.0
H1999 H 0.40272 0.92829 0.58115 0.0
H2000 H 0.3721 0.94821 0.64699 0.0
H2001 H 0.34888 0.91635 0.66519 0.0
C2002 C 0.27062 0.82934 0.59204 0.0
C2003 C 0.26098 0.83843 0.60256 0.0
C2004 C 0.28896 0.83652 0.60362 0.0
C2005 C 0.29791 0.85275 0.62656 0.0
C2006 C 0.28851 0.86218 0.6359 0.0
C2007 C 0.27022 0.85511 0.62396 0.0
C2008 C 0.31694 0.85967 0.6415 0.0
C2009 C 0.33043 0.87792 0.63303 0.0
C2010 C 0.32191 0.84825 0.6632 0.0
C2011 C 0.30809 0.82932 0.67591 0.0
C2012 C 0.29263 0.82616 0.69871 0.0
C2013 C 0.27957 0.80828 0.71027 0.0
C2014 C 0.28188 0.79347 0.69949 0.0
C2015 C 0.29729 0.79651 0.67721 0.0
C2016 C 0.31039 0.81435 0.66551 0.0
C2017 C 0.39905 0.90085 0.72074 0.0
C2018 C 0.40972 0.89413 0.70284 0.0
C2019 C 0.38076 0.89398 0.70895 0.0
C2020 C 0.37282 0.88011 0.67962 0.0
C2021 C 0.38325 0.87297 0.66267 0.0
C2022 C 0.40161 0.88006 0.67387 0.0
C2023 C 0.35376 0.87335 0.66576 0.0
C2024 C 0.34033 0.85518 0.67453 0.0
C2025 C 0.3488 0.88488 0.64476 0.0
C2026 C 0.36264 0.90402 0.63364 0.0
C2027 C 0.3779 0.90758 0.60967 0.0
C2028 C 0.391 0.92565 0.59957 0.0
C2029 C 0.38893 0.94029 0.6131 0.0
C2030 C 0.37371 0.93686 0.6366 0.0
C2031 C 0.36056 0.9188 0.64677 0.0
H2032 H 0.39909 0.95428 0.60526 0.0
H2033 H 0.27175 0.77964 0.70847 0.0
loop_
_geom_bond_atom_site_label_1
_geom_bond_atom_site_label_2
_geom_bond_distance
_geom_bond_site_symmetry_2
_ccdc_geom_bond_type
C0 O1 1.160 . S
C0 O7 1.185 . S
O1 C0 1.160 . S
O2 Zn3 1.899 . S
O2 C10 1.284 . S
Zn3 O2 1.899 . S
Zn3 O4 2.032 . S
Zn3 O7 2.086 . S
Zn3 O12 1.977 . S
O4 Zn3 2.032 . S
O4 C8 1.278 . S
C5 O6 1.203 . S
C5 O12 1.267 1_556 S
O6 C5 1.203 . S
O7 C0 1.185 . S
O7 Zn3 2.086 . S
C8 O4 1.278 . S
C8 O9 1.211 . S
O9 C8 1.211 . S
C10 O2 1.284 . S
C10 O11 1.273 . S
O11 C10 1.273 . S
O12 Zn3 1.977 . S
O12 C5 1.267 1_554 S
C13 O14 1.160 . S
C13 O20 1.185 . S
O14 C13 1.160 . S
O15 Zn16 1.899 . S
O15 C23 1.284 . S
Zn16 O15 1.899 . S
Zn16 O17 2.032 . S
Zn16 O20 2.086 . S
Zn16 O25 1.977 . S
O17 Zn16 2.032 . S
O17 C21 1.278 . S
C18 O19 1.203 . S
C18 O25 1.267 1_556 S
O19 C18 1.203 . S
O20 C13 1.185 . S
O20 Zn16 2.086 . S
C21 O17 1.278 . S
C21 O22 1.211 . S
O22 C21 1.211 . S
C23 O15 1.284 . S
C23 O24 1.273 . S
O24 C23 1.273 . S
O25 Zn16 1.977 . S
O25 C18 1.267 1_554 S
C26 O27 1.160 . S
C26 O33 1.185 . S
O27 C26 1.160 . S
O28 Zn29 1.899 . S
O28 C36 1.284 . S
Zn29 O28 1.899 . S
Zn29 O30 2.032 . S
Zn29 O33 2.086 . S
Zn29 O38 1.977 . S
O30 Zn29 2.032 . S
O30 C34 1.278 . S
C31 O32 1.203 . S
C31 O38 1.267 1_556 S
O32 C31 1.203 . S
O33 C26 1.185 . S
O33 Zn29 2.086 . S
C34 O30 1.278 . S
C34 O35 1.211 . S
O35 C34 1.211 . S
C36 O28 1.284 . S
C36 O37 1.273 . S
O37 C36 1.273 . S
O38 Zn29 1.977 . S
O38 C31 1.267 1_554 S
C39 O40 1.160 . S
C39 O46 1.185 . S
O40 C39 1.160 . S
O41 Zn42 1.899 . S
O41 C49 1.284 . S
Zn42 O41 1.899 . S
Zn42 O43 2.032 . S
Zn42 O46 2.086 . S
Zn42 O51 1.977 . S
O43 Zn42 2.032 . S
O43 C47 1.278 . S
C44 O45 1.203 . S
C44 O51 1.267 1_554 S
O45 C44 1.203 . S
O46 C39 1.185 . S
O46 Zn42 2.086 . S
C47 O43 1.278 . S
C47 O48 1.211 . S
O48 C47 1.211 . S
C49 O41 1.284 . S
C49 O50 1.273 . S
O50 C49 1.273 . S
O51 Zn42 1.977 . S
O51 C44 1.267 1_556 S
C52 O53 1.160 . S
C52 O59 1.185 . S
O53 C52 1.160 . S
O54 Zn55 1.899 . S
O54 C62 1.284 . S
Zn55 O54 1.899 . S
Zn55 O56 2.032 . S
Zn55 O59 2.086 . S
Zn55 O64 1.977 . S
O56 Zn55 2.032 . S
O56 C60 1.278 . S
C57 O58 1.203 . S
C57 O64 1.267 1_554 S
O58 C57 1.203 . S
O59 C52 1.185 . S
O59 Zn55 2.086 . S
C60 O56 1.278 . S
C60 O61 1.211 . S
O61 C60 1.211 . S
C62 O54 1.284 . S
C62 O63 1.273 . S
O63 C62 1.273 . S
O64 Zn55 1.977 . S
O64 C57 1.267 1_556 S
C65 O66 1.160 . S
C65 O72 1.185 . S
O66 C65 1.160 . S
O67 Zn68 1.899 . S
O67 C75 1.284 . S
Zn68 O67 1.899 . S
Zn68 O69 2.032 . S
Zn68 O72 2.086 . S
Zn68 O77 1.977 . S
O69 Zn68 2.032 . S
O69 C73 1.278 . S
C70 O71 1.203 . S
C70 O77 1.267 1_554 S
O71 C70 1.203 . S
O72 C65 1.185 . S
O72 Zn68 2.086 . S
C73 O69 1.278 . S
C73 O74 1.211 . S
O74 C73 1.211 . S
C75 O67 1.284 . S
C75 O76 1.273 . S
O76 C75 1.273 . S
O77 Zn68 1.977 . S
O77 C70 1.267 1_556 S
C78 O79 1.160 . S
C78 O85 1.185 . S
O79 C78 1.160 . S
O80 Zn81 1.899 . S
O80 C88 1.284 . S
Zn81 O80 1.899 . S
Zn81 O82 2.032 . S
Zn81 O85 2.086 . S
Zn81 O90 1.977 . S
O82 Zn81 2.032 . S
O82 C86 1.278 . S
C83 O84 1.203 . S
C83 O90 1.267 . S
O84 C83 1.203 . S
O85 C78 1.185 . S
O85 Zn81 2.086 . S
C86 O82 1.278 . S
C86 O87 1.211 . S
O87 C86 1.211 . S
C88 O80 1.284 . S
C88 O89 1.273 . S
O89 C88 1.273 . S
O90 Zn81 1.977 . S
O90 C83 1.267 . S
C91 O92 1.160 . S
C91 O98 1.185 . S
O92 C91 1.160 . S
O93 Zn94 1.899 . S
O93 C101 1.284 . S
Zn94 O93 1.899 . S
Zn94 O95 2.032 . S
Zn94 O98 2.086 . S
Zn94 O103 1.977 . S
O95 Zn94 2.032 . S
O95 C99 1.278 . S
C96 O97 1.203 . S
C96 O103 1.267 . S
O97 C96 1.203 . S
O98 C91 1.185 . S
O98 Zn94 2.086 . S
C99 O95 1.278 . S
C99 O100 1.211 . S
O100 C99 1.211 . S
C101 O93 1.284 . S
C101 O102 1.273 . S
O102 C101 1.273 . S
O103 Zn94 1.977 . S
O103 C96 1.267 . S
C104 O105 1.160 . S
C104 O111 1.185 . S
O105 C104 1.160 . S
O106 Zn107 1.899 . S
O106 C114 1.284 . S
Zn107 O106 1.899 . S
Zn107 O108 2.032 . S
Zn107 O111 2.086 . S
Zn107 O116 1.977 . S
O108 Zn107 2.032 . S
O108 C112 1.278 . S
C109 O110 1.203 . S
C109 O116 1.267 . S
O110 C109 1.203 . S
O111 C104 1.185 . S
O111 Zn107 2.086 . S
C112 O108 1.278 . S
C112 O113 1.211 . S
O113 C112 1.211 . S
C114 O106 1.284 . S
C114 O115 1.273 . S
O115 C114 1.273 . S
O116 Zn107 1.977 . S
O116 C109 1.267 . S
C117 O118 1.160 . S
C117 O124 1.185 . S
O118 C117 1.160 . S
O119 Zn120 1.899 . S
O119 C127 1.284 . S
Zn120 O119 1.899 . S
Zn120 O121 2.032 . S
Zn120 O124 2.086 . S
Zn120 O129 1.977 . S
O121 Zn120 2.032 . S
O121 C125 1.278 . S
C122 O123 1.203 . S
C122 O129 1.267 . S
O123 C122 1.203 . S
O124 C117 1.185 . S
O124 Zn120 2.086 . S
C125 O121 1.278 . S
C125 O126 1.211 . S
O126 C125 1.211 . S
C127 O119 1.284 . S
C127 O128 1.273 . S
O128 C127 1.273 . S
O129 Zn120 1.977 . S
O129 C122 1.267 . S
C130 O131 1.160 . S
C130 O137 1.185 . S
O131 C130 1.160 . S
O132 Zn133 1.899 . S
O132 C140 1.284 . S
Zn133 O132 1.899 . S
Zn133 O134 2.032 . S
Zn133 O137 2.086 . S
Zn133 O142 1.977 . S
O134 Zn133 2.032 . S
O134 C138 1.278 . S
C135 O136 1.203 . S
C135 O142 1.267 . S
O136 C135 1.203 . S
O137 C130 1.185 . S
O137 Zn133 2.086 . S
C138 O134 1.278 . S
C138 O139 1.211 . S
O139 C138 1.211 . S
C140 O132 1.284 . S
C140 O141 1.273 . S
O141 C140 1.273 . S
O142 Zn133 1.977 . S
O142 C135 1.267 . S
C143 O144 1.160 . S
C143 O150 1.185 . S
O144 C143 1.160 . S
O145 Zn146 1.899 . S
O145 C153 1.284 . S
Zn146 O145 1.899 . S
Zn146 O147 2.032 . S
Zn146 O150 2.086 . S
Zn146 O155 1.977 . S
O147 Zn146 2.032 . S
O147 C151 1.278 . S
C148 O149 1.203 . S
C148 O155 1.267 . S
O149 C148 1.203 . S
O150 C143 1.185 . S
O150 Zn146 2.086 . S
C151 O147 1.278 . S
C151 O152 1.211 . S
O152 C151 1.211 . S
C153 O145 1.284 . S
C153 O154 1.273 . S
O154 C153 1.273 . S
O155 Zn146 1.977 . S
O155 C148 1.267 . S
C156 O157 1.160 . S
C156 O163 1.185 . S
O157 C156 1.160 . S
O158 Zn159 1.899 . S
O158 C166 1.284 . S
Zn159 O158 1.899 . S
Zn159 O160 2.032 . S
Zn159 O163 2.086 . S
Zn159 O168 1.977 . S
O160 Zn159 2.032 . S
O160 C164 1.278 . S
C161 O162 1.203 . S
C161 O168 1.267 . S
O162 C161 1.203 . S
O163 C156 1.185 . S
O163 Zn159 2.086 . S
C164 O160 1.278 . S
C164 O165 1.211 . S
O165 C164 1.211 . S
C166 O158 1.284 . S
C166 O167 1.273 . S
O167 C166 1.273 . S
O168 Zn159 1.977 . S
O168 C161 1.267 . S
C169 O170 1.160 . S
C169 O176 1.185 . S
O170 C169 1.160 . S
O171 Zn172 1.899 . S
O171 C179 1.284 . S
Zn172 O171 1.899 . S
Zn172 O173 2.032 . S
Zn172 O176 2.086 . S
Zn172 O181 1.977 . S
O173 Zn172 2.032 . S
O173 C177 1.278 . S
C174 O175 1.203 . S
C174 O181 1.267 . S
O175 C174 1.203 . S
O176 C169 1.185 . S
O176 Zn172 2.086 . S
C177 O173 1.278 . S
C177 O178 1.211 . S
O178 C177 1.211 . S
C179 O171 1.284 . S
C179 O180 1.273 . S
O180 C179 1.273 . S
O181 Zn172 1.977 . S
O181 C174 1.267 . S
C182 O183 1.160 . S
C182 O189 1.185 . S
O183 C182 1.160 . S
O184 Zn185 1.899 . S
O184 C192 1.284 . S
Zn185 O184 1.899 . S
Zn185 O186 2.032 . S
Zn185 O189 2.086 . S
Zn185 O194 1.977 . S
O186 Zn185 2.032 . S
O186 C190 1.278 . S
C187 O188 1.203 . S
C187 O194 1.267 . S
O188 C187 1.203 . S
O189 C182 1.185 . S
O189 Zn185 2.086 . S
C190 O186 1.278 . S
C190 O191 1.211 . S
O191 C190 1.211 . S
C192 O184 1.284 . S
C192 O193 1.273 . S
O193 C192 1.273 . S
O194 Zn185 1.977 . S
O194 C187 1.267 . S
C195 O196 1.160 . S
C195 O202 1.185 . S
O196 C195 1.160 . S
O197 Zn198 1.899 . S
O197 C205 1.284 . S
Zn198 O197 1.899 . S
Zn198 O199 2.032 . S
Zn198 O202 2.086 . S
Zn198 O207 1.977 . S
O199 Zn198 2.032 . S
O199 C203 1.278 . S
C200 O201 1.203 . S
C200 O207 1.267 . S
O201 C200 1.203 . S
O202 C195 1.185 . S
O202 Zn198 2.086 . S
C203 O199 1.278 . S
C203 O204 1.211 . S
O204 C203 1.211 . S
C205 O197 1.284 . S
C205 O206 1.273 . S
O206 C205 1.273 . S
O207 Zn198 1.977 . S
O207 C200 1.267 . S
C208 O209 1.160 . S
C208 O215 1.185 . S
O209 C208 1.160 . S
O210 Zn211 1.899 . S
O210 C218 1.284 . S
Zn211 O210 1.899 . S
Zn211 O212 2.032 . S
Zn211 O215 2.086 . S
Zn211 O220 1.977 . S
O212 Zn211 2.032 . S
O212 C216 1.278 . S
C213 O214 1.203 . S
C213 O220 1.267 . S
O214 C213 1.203 . S
O215 C208 1.185 . S
O215 Zn211 2.086 . S
C216 O212 1.278 . S
C216 O217 1.211 . S
O217 C216 1.211 . S
C218 O210 1.284 . S
C218 O219 1.273 . S
O219 C218 1.273 . S
O220 Zn211 1.977 . S
O220 C213 1.267 . S
C221 O222 1.160 . S
C221 O228 1.185 . S
O222 C221 1.160 . S
O223 Zn224 1.899 . S
O223 C231 1.284 . S
Zn224 O223 1.899 . S
Zn224 O225 2.032 . S
Zn224 O228 2.086 . S
Zn224 O233 1.977 . S
O225 Zn224 2.032 . S
O225 C229 1.278 . S
C226 O227 1.203 . S
C226 O233 1.267 . S
O227 C226 1.203 . S
O228 C221 1.185 . S
O228 Zn224 2.086 . S
C229 O225 1.278 . S
C229 O230 1.211 . S
O230 C229 1.211 . S
C231 O223 1.284 . S
C231 O232 1.273 . S
O232 C231 1.273 . S
O233 Zn224 1.977 . S
O233 C226 1.267 . S
H234 C252 0.951 . S
H235 C254 0.951 . S
H236 C256 0.950 . S
H237 C257 0.950 . S
H238 C259 0.950 . S
H239 C262 0.950 . S
H240 C263 0.950 . S
H241 C265 0.950 . S
H242 C266 0.950 . S
H243 C267 0.951 . S
H244 C269 0.951 . S
H245 C271 0.950 . S
H246 C272 0.950 . S
H247 C274 0.950 . S
H248 C277 0.950 . S
H249 C278 0.950 . S
H250 C280 0.950 . S
H251 C281 0.950 . S
C252 H234 0.951 . S
C252 C253 1.366 . S
C252 C254 1.388 . S
C253 C252 1.366 . S
C253 C257 1.385 . S
C254 H235 0.951 . S
C254 C252 1.388 . S
C254 C255 1.366 . S
C255 C254 1.366 . S
C255 C256 1.414 . S
C255 C258 1.499 . S
C256 H236 0.950 . S
C256 C255 1.414 . S
C256 C257 1.374 . S
C257 H237 0.950 . S
C257 C253 1.385 . S
C257 C256 1.374 . S
C258 C255 1.499 . S
C258 C259 1.373 . S
C258 C260 1.389 . S
C259 H238 0.950 . S
C259 C258 1.373 . S
C259 C275 1.377 . S
C260 C258 1.389 . S
C260 C261 1.524 . S
C260 C274 1.377 . S
C261 C260 1.524 . S
C261 C262 1.397 . S
C261 C266 1.363 . S
C262 H239 0.950 . S
C262 C261 1.397 . S
C262 C263 1.334 . S
C263 H240 0.950 . S
C263 C262 1.334 . S
C263 C264 1.287 . S
C264 C263 1.287 . S
C264 C265 1.524 . S
C264 H283 0.913 . S
C265 H241 0.950 . S
C265 C264 1.524 . S
C265 C266 1.415 . S
C266 H242 0.950 . S
C266 C261 1.363 . S
C266 C265 1.415 . S
C267 H243 0.951 . S
C267 C268 1.366 . S
C267 C269 1.388 . S
C268 C267 1.366 . S
C268 C272 1.385 . S
C269 H244 0.951 . S
C269 C267 1.388 . S
C269 C270 1.366 . S
C270 C269 1.366 . S
C270 C271 1.414 . S
C270 C273 1.499 . S
C271 H245 0.950 . S
C271 C270 1.414 . S
C271 C272 1.374 . S
C272 H246 0.950 . S
C272 C268 1.385 . S
C272 C271 1.374 . S
C273 C270 1.499 . S
C273 C274 1.373 . S
C273 C275 1.389 . S
C274 H247 0.950 . S
C274 C260 1.377 . S
C274 C273 1.373 . S
C275 C259 1.377 . S
C275 C273 1.389 . S
C275 C276 1.524 . S
C276 C275 1.524 . S
C276 C277 1.397 . S
C276 C281 1.363 . S
C277 H248 0.950 . S
C277 C276 1.397 . S
C277 C278 1.334 . S
C278 H249 0.950 . S
C278 C277 1.334 . S
C278 C279 1.287 . S
C279 C278 1.287 . S
C279 C280 1.524 . S
C279 H282 0.999 . S
C280 H250 0.950 . S
C280 C279 1.524 . S
C280 C281 1.415 . S
C281 H251 0.950 . S
C281 C276 1.363 . S
C281 C280 1.415 . S
H282 C279 0.999 . S
H283 C264 0.913 . S
H284 C302 0.951 . S
H285 C304 0.951 . S
H286 C306 0.950 . S
H287 C307 0.950 . S
H288 C309 0.950 . S
H289 C312 0.950 . S
H290 C313 0.950 . S
H291 C315 0.950 . S
H292 C316 0.950 . S
H293 C317 0.951 . S
H294 C319 0.951 . S
H295 C321 0.950 . S
H296 C322 0.950 . S
H297 C324 0.950 . S
H298 C327 0.950 . S
H299 C328 0.950 . S
H300 C330 0.950 . S
H301 C331 0.950 . S
C302 H284 0.951 . S
C302 C303 1.366 . S
C302 C304 1.388 . S
C303 C302 1.366 . S
C303 C307 1.385 . S
C304 H285 0.951 . S
C304 C302 1.388 . S
C304 C305 1.366 . S
C305 C304 1.366 . S
C305 C306 1.414 . S
C305 C308 1.499 . S
C306 H286 0.950 . S
C306 C305 1.414 . S
C306 C307 1.374 . S
C307 H287 0.950 . S
C307 C303 1.385 . S
C307 C306 1.374 . S
C308 C305 1.499 . S
C308 C309 1.373 . S
C308 C310 1.389 . S
C309 H288 0.950 . S
C309 C308 1.373 . S
C309 C325 1.377 . S
C310 C308 1.389 . S
C310 C311 1.524 . S
C310 C324 1.377 . S
C311 C310 1.524 . S
C311 C312 1.397 . S
C311 C316 1.363 . S
C312 H289 0.950 . S
C312 C311 1.397 . S
C312 C313 1.334 . S
C313 H290 0.950 . S
C313 C312 1.334 . S
C313 C314 1.287 . S
C314 C313 1.287 . S
C314 C315 1.524 . S
C314 H333 0.913 . S
C315 H291 0.950 . S
C315 C314 1.524 . S
C315 C316 1.415 . S
C316 H292 0.950 . S
C316 C311 1.363 . S
C316 C315 1.415 . S
C317 H293 0.951 . S
C317 C318 1.366 . S
C317 C319 1.388 . S
C318 C317 1.366 . S
C318 C322 1.385 . S
C319 H294 0.951 . S
C319 C317 1.388 . S
C319 C320 1.366 . S
C320 C319 1.366 . S
C320 C321 1.414 . S
C320 C323 1.499 . S
C321 H295 0.950 . S
C321 C320 1.414 . S
C321 C322 1.374 . S
C322 H296 0.950 . S
C322 C318 1.385 . S
C322 C321 1.374 . S
C323 C320 1.499 . S
C323 C324 1.373 . S
C323 C325 1.389 . S
C324 H297 0.950 . S
C324 C310 1.377 . S
C324 C323 1.373 . S
C325 C309 1.377 . S
C325 C323 1.389 . S
C325 C326 1.524 . S
C326 C325 1.524 . S
C326 C327 1.397 . S
C326 C331 1.363 . S
C327 H298 0.950 . S
C327 C326 1.397 . S
C327 C328 1.334 . S
C328 H299 0.950 . S
C328 C327 1.334 . S
C328 C329 1.287 . S
C329 C328 1.287 . S
C329 C330 1.524 . S
C329 H332 0.999 . S
C330 H300 0.950 . S
C330 C329 1.524 . S
C330 C331 1.415 . S
C331 H301 0.950 . S
C331 C326 1.363 . S
C331 C330 1.415 . S
H332 C329 0.999 . S
H333 C314 0.913 . S
H334 C352 0.951 . S
H335 C354 0.951 . S
H336 C356 0.950 . S
H337 C357 0.950 . S
H338 C359 0.950 . S
H339 C362 0.950 . S
H340 C363 0.950 . S
H341 C365 0.950 . S
H342 C366 0.950 . S
H343 C367 0.951 . S
H344 C369 0.951 . S
H345 C371 0.950 . S
H346 C372 0.950 . S
H347 C374 0.950 . S
H348 C377 0.950 . S
H349 C378 0.950 . S
H350 C380 0.950 . S
H351 C381 0.950 . S
C352 H334 0.951 . S
C352 C353 1.366 . S
C352 C354 1.388 . S
C353 C352 1.366 . S
C353 C357 1.385 . S
C354 H335 0.951 . S
C354 C352 1.388 . S
C354 C355 1.366 . S
C355 C354 1.366 . S
C355 C356 1.414 . S
C355 C358 1.499 . S
C356 H336 0.950 . S
C356 C355 1.414 . S
C356 C357 1.374 . S
C357 H337 0.950 . S
C357 C353 1.385 . S
C357 C356 1.374 . S
C358 C355 1.499 . S
C358 C359 1.373 . S
C358 C360 1.389 . S
C359 H338 0.950 . S
C359 C358 1.373 . S
C359 C375 1.377 . S
C360 C358 1.389 . S
C360 C361 1.524 . S
C360 C374 1.377 . S
C361 C360 1.524 . S
C361 C362 1.397 . S
C361 C366 1.363 . S
C362 H339 0.950 . S
C362 C361 1.397 . S
C362 C363 1.334 . S
C363 H340 0.950 . S
C363 C362 1.334 . S
C363 C364 1.287 . S
C364 C363 1.287 . S
C364 C365 1.524 . S
C364 H383 0.913 . S
C365 H341 0.950 . S
C365 C364 1.524 . S
C365 C366 1.415 . S
C366 H342 0.950 . S
C366 C361 1.363 . S
C366 C365 1.415 . S
C367 H343 0.951 . S
C367 C368 1.366 . S
C367 C369 1.388 . S
C368 C367 1.366 . S
C368 C372 1.385 . S
C369 H344 0.951 . S
C369 C367 1.388 . S
C369 C370 1.366 . S
C370 C369 1.366 . S
C370 C371 1.414 . S
C370 C373 1.499 . S
C371 H345 0.950 . S
C371 C370 1.414 . S
C371 C372 1.374 . S
C372 H346 0.950 . S
C372 C368 1.385 . S
C372 C371 1.374 . S
C373 C370 1.499 . S
C373 C374 1.373 . S
C373 C375 1.389 . S
C374 H347 0.950 . S
C374 C360 1.377 . S
C374 C373 1.373 . S
C375 C359 1.377 . S
C375 C373 1.389 . S
C375 C376 1.524 . S
C376 C375 1.524 . S
C376 C377 1.397 . S
C376 C381 1.363 . S
C377 H348 0.950 . S
C377 C376 1.397 . S
C377 C378 1.334 . S
C378 H349 0.950 . S
C378 C377 1.334 . S
C378 C379 1.287 . S
C379 C378 1.287 . S
C379 C380 1.524 . S
C379 H382 0.999 . S
C380 H350 0.950 . S
C380 C379 1.524 . S
C380 C381 1.415 . S
C381 H351 0.950 . S
C381 C376 1.363 . S
C381 C380 1.415 . S
H382 C379 0.999 . S
H383 C364 0.913 . S
H384 C402 0.951 . S
H385 C404 0.951 . S
H386 C406 0.950 . S
H387 C407 0.950 . S
H388 C409 0.950 . S
H389 C412 0.950 . S
H390 C413 0.950 . S
H391 C415 0.950 . S
H392 C416 0.950 . S
H393 C417 0.951 . S
H394 C419 0.951 . S
H395 C421 0.950 . S
H396 C422 0.950 . S
H397 C424 0.950 . S
H398 C427 0.950 . S
H399 C428 0.950 . S
H400 C430 0.950 . S
H401 C431 0.950 . S
C402 H384 0.951 . S
C402 C403 1.366 . S
C402 C404 1.388 . S
C403 C402 1.366 . S
C403 C407 1.385 . S
C404 H385 0.951 . S
C404 C402 1.388 . S
C404 C405 1.366 . S
C405 C404 1.366 . S
C405 C406 1.414 . S
C405 C408 1.499 . S
C406 H386 0.950 . S
C406 C405 1.414 . S
C406 C407 1.374 . S
C407 H387 0.950 . S
C407 C403 1.385 . S
C407 C406 1.374 . S
C408 C405 1.499 . S
C408 C409 1.373 . S
C408 C410 1.389 . S
C409 H388 0.950 . S
C409 C408 1.373 . S
C409 C425 1.377 . S
C410 C408 1.389 . S
C410 C411 1.524 . S
C410 C424 1.377 . S
C411 C410 1.524 . S
C411 C412 1.397 . S
C411 C416 1.363 . S
C412 H389 0.950 . S
C412 C411 1.397 . S
C412 C413 1.334 . S
C413 H390 0.950 . S
C413 C412 1.334 . S
C413 C414 1.287 . S
C414 C413 1.287 . S
C414 C415 1.524 . S
C414 H433 0.913 . S
C415 H391 0.950 . S
C415 C414 1.524 . S
C415 C416 1.415 . S
C416 H392 0.950 . S
C416 C411 1.363 . S
C416 C415 1.415 . S
C417 H393 0.951 . S
C417 C418 1.366 . S
C417 C419 1.388 . S
C418 C417 1.366 . S
C418 C422 1.385 . S
C419 H394 0.951 . S
C419 C417 1.388 . S
C419 C420 1.366 . S
C420 C419 1.366 . S
C420 C421 1.414 . S
C420 C423 1.499 . S
C421 H395 0.950 . S
C421 C420 1.414 . S
C421 C422 1.374 . S
C422 H396 0.950 . S
C422 C418 1.385 . S
C422 C421 1.374 . S
C423 C420 1.499 . S
C423 C424 1.373 . S
C423 C425 1.389 . S
C424 H397 0.950 . S
C424 C410 1.377 . S
C424 C423 1.373 . S
C425 C409 1.377 . S
C425 C423 1.389 . S
C425 C426 1.524 . S
C426 C425 1.524 . S
C426 C427 1.397 . S
C426 C431 1.363 . S
C427 H398 0.950 . S
C427 C426 1.397 . S
C427 C428 1.334 . S
C428 H399 0.950 . S
C428 C427 1.334 . S
C428 C429 1.287 . S
C429 C428 1.287 . S
C429 C430 1.524 . S
C429 H432 0.999 . S
C430 H400 0.950 . S
C430 C429 1.524 . S
C430 C431 1.415 . S
C431 H401 0.950 . S
C431 C426 1.363 . S
C431 C430 1.415 . S
H432 C429 0.999 . S
H433 C414 0.913 . S
H434 C452 0.951 . S
H435 C454 0.951 . S
H436 C456 0.950 . S
H437 C457 0.950 . S
H438 C459 0.950 . S
H439 C462 0.950 . S
H440 C463 0.950 . S
H441 C465 0.950 . S
H442 C466 0.950 . S
H443 C467 0.951 . S
H444 C469 0.951 . S
H445 C471 0.950 . S
H446 C472 0.950 . S
H447 C474 0.950 . S
H448 C477 0.950 . S
H449 C478 0.950 . S
H450 C480 0.950 . S
H451 C481 0.950 . S
C452 H434 0.951 . S
C452 C453 1.366 . S
C452 C454 1.388 . S
C453 C452 1.366 . S
C453 C457 1.385 . S
C454 H435 0.951 . S
C454 C452 1.388 . S
C454 C455 1.366 . S
C455 C454 1.366 . S
C455 C456 1.414 . S
C455 C458 1.499 . S
C456 H436 0.950 . S
C456 C455 1.414 . S
C456 C457 1.374 . S
C457 H437 0.950 . S
C457 C453 1.385 . S
C457 C456 1.374 . S
C458 C455 1.499 . S
C458 C459 1.373 . S
C458 C460 1.389 . S
C459 H438 0.950 . S
C459 C458 1.373 . S
C459 C475 1.377 . S
C460 C458 1.389 . S
C460 C461 1.524 . S
C460 C474 1.377 . S
C461 C460 1.524 . S
C461 C462 1.397 . S
C461 C466 1.363 . S
C462 H439 0.950 . S
C462 C461 1.397 . S
C462 C463 1.334 . S
C463 H440 0.950 . S
C463 C462 1.334 . S
C463 C464 1.287 . S
C464 C463 1.287 . S
C464 C465 1.524 . S
C464 H483 0.913 . S
C465 H441 0.950 . S
C465 C464 1.524 . S
C465 C466 1.415 . S
C466 H442 0.950 . S
C466 C461 1.363 . S
C466 C465 1.415 . S
C467 H443 0.951 . S
C467 C468 1.366 . S
C467 C469 1.388 . S
C468 C467 1.366 . S
C468 C472 1.385 . S
C469 H444 0.951 . S
C469 C467 1.388 . S
C469 C470 1.366 . S
C470 C469 1.366 . S
C470 C471 1.414 . S
C470 C473 1.499 . S
C471 H445 0.950 . S
C471 C470 1.414 . S
C471 C472 1.374 . S
C472 H446 0.950 . S
C472 C468 1.385 . S
C472 C471 1.374 . S
C473 C470 1.499 . S
C473 C474 1.373 . S
C473 C475 1.389 . S
C474 H447 0.950 . S
C474 C460 1.377 . S
C474 C473 1.373 . S
C475 C459 1.377 . S
C475 C473 1.389 . S
C475 C476 1.524 . S
C476 C475 1.524 . S
C476 C477 1.397 . S
C476 C481 1.363 . S
C477 H448 0.950 . S
C477 C476 1.397 . S
C477 C478 1.334 . S
C478 H449 0.950 . S
C478 C477 1.334 . S
C478 C479 1.287 . S
C479 C478 1.287 . S
C479 C480 1.524 . S
C479 H482 0.999 . S
C480 H450 0.950 . S
C480 C479 1.524 . S
C480 C481 1.415 . S
C481 H451 0.950 . S
C481 C476 1.363 . S
C481 C480 1.415 . S
H482 C479 0.999 . S
H483 C464 0.913 . S
H484 C502 0.951 . S
H485 C504 0.951 . S
H486 C506 0.950 . S
H487 C507 0.950 . S
H488 C509 0.950 . S
H489 C512 0.950 . S
H490 C513 0.950 . S
H491 C515 0.950 . S
H492 C516 0.950 . S
H493 C517 0.951 . S
H494 C519 0.951 . S
H495 C521 0.950 . S
H496 C522 0.950 . S
H497 C524 0.950 . S
H498 C527 0.950 . S
H499 C528 0.950 . S
H500 C530 0.950 . S
H501 C531 0.950 . S
C502 H484 0.951 . S
C502 C503 1.366 . S
C502 C504 1.388 . S
C503 C502 1.366 . S
C503 C507 1.385 . S
C504 H485 0.951 . S
C504 C502 1.388 . S
C504 C505 1.366 . S
C505 C504 1.366 . S
C505 C506 1.414 . S
C505 C508 1.499 . S
C506 H486 0.950 . S
C506 C505 1.414 . S
C506 C507 1.374 . S
C507 H487 0.950 . S
C507 C503 1.385 . S
C507 C506 1.374 . S
C508 C505 1.499 . S
C508 C509 1.373 . S
C508 C510 1.389 . S
C509 H488 0.950 . S
C509 C508 1.373 . S
C509 C525 1.377 . S
C510 C508 1.389 . S
C510 C511 1.524 . S
C510 C524 1.377 . S
C511 C510 1.524 . S
C511 C512 1.397 . S
C511 C516 1.363 . S
C512 H489 0.950 . S
C512 C511 1.397 . S
C512 C513 1.334 . S
C513 H490 0.950 . S
C513 C512 1.334 . S
C513 C514 1.287 . S
C514 C513 1.287 . S
C514 C515 1.524 . S
C514 H533 0.913 . S
C515 H491 0.950 . S
C515 C514 1.524 . S
C515 C516 1.415 . S
C516 H492 0.950 . S
C516 C511 1.363 . S
C516 C515 1.415 . S
C517 H493 0.951 . S
C517 C518 1.366 . S
C517 C519 1.388 . S
C518 C517 1.366 . S
C518 C522 1.385 . S
C519 H494 0.951 . S
C519 C517 1.388 . S
C519 C520 1.366 . S
C520 C519 1.366 . S
C520 C521 1.414 . S
C520 C523 1.499 . S
C521 H495 0.950 . S
C521 C520 1.414 . S
C521 C522 1.374 . S
C522 H496 0.950 . S
C522 C518 1.385 . S
C522 C521 1.374 . S
C523 C520 1.499 . S
C523 C524 1.373 . S
C523 C525 1.389 . S
C524 H497 0.950 . S
C524 C510 1.377 . S
C524 C523 1.373 . S
C525 C509 1.377 . S
C525 C523 1.389 . S
C525 C526 1.524 . S
C526 C525 1.524 . S
C526 C527 1.397 . S
C526 C531 1.363 . S
C527 H498 0.950 . S
C527 C526 1.397 . S
C527 C528 1.334 . S
C528 H499 0.950 . S
C528 C527 1.334 . S
C528 C529 1.287 . S
C529 C528 1.287 . S
C529 C530 1.524 . S
C529 H532 0.999 . S
C530 H500 0.950 . S
C530 C529 1.524 . S
C530 C531 1.415 . S
C531 H501 0.950 . S
C531 C526 1.363 . S
C531 C530 1.415 . S
H532 C529 0.999 . S
H533 C514 0.913 . S
H534 C552 0.951 . S
H535 C554 0.951 . S
H536 C556 0.950 . S
H537 C557 0.950 . S
H538 C559 0.950 . S
H539 C562 0.950 . S
H540 C563 0.950 . S
H541 C565 0.950 . S
H542 C566 0.950 . S
H543 C567 0.951 . S
H544 C569 0.951 . S
H545 C571 0.950 . S
H546 C572 0.950 . S
H547 C574 0.950 . S
H548 C577 0.950 . S
H549 C578 0.950 . S
H550 C580 0.950 . S
H551 C581 0.950 . S
C552 H534 0.951 . S
C552 C553 1.366 . S
C552 C554 1.388 . S
C553 C552 1.366 . S
C553 C557 1.385 . S
C554 H535 0.951 . S
C554 C552 1.388 . S
C554 C555 1.366 . S
C555 C554 1.366 . S
C555 C556 1.414 . S
C555 C558 1.499 . S
C556 H536 0.950 . S
C556 C555 1.414 . S
C556 C557 1.374 . S
C557 H537 0.950 . S
C557 C553 1.385 . S
C557 C556 1.374 . S
C558 C555 1.499 . S
C558 C559 1.373 1_655 S
C558 C560 1.389 1_554 S
C559 H538 0.950 . S
C559 C558 1.373 1_455 S
C559 C575 1.377 . S
C560 C558 1.389 1_556 S
C560 C561 1.524 . S
C560 C574 1.377 . S
C561 C560 1.524 . S
C561 C562 1.397 1_556 S
C561 C566 1.363 . S
C562 H539 0.950 . S
C562 C561 1.397 1_554 S
C562 C563 1.334 . S
C563 H540 0.950 . S
C563 C562 1.334 . S
C563 C564 1.287 1_554 S
C564 C563 1.287 1_556 S
C564 C565 1.524 . S
C564 H583 0.913 . S
C565 H541 0.950 . S
C565 C564 1.524 . S
C565 C566 1.415 . S
C566 H542 0.950 . S
C566 C561 1.363 . S
C566 C565 1.415 . S
C567 H543 0.951 . S
C567 C568 1.366 . S
C567 C569 1.388 . S
C568 C567 1.366 . S
C568 C572 1.385 . S
C569 H544 0.951 . S
C569 C567 1.388 . S
C569 C570 1.366 . S
C570 C569 1.366 . S
C570 C571 1.414 . S
C570 C573 1.499 . S
C571 H545 0.950 . S
C571 C570 1.414 . S
C571 C572 1.374 . S
C572 H546 0.950 . S
C572 C568 1.385 . S
C572 C571 1.374 . S
C573 C570 1.499 . S
C573 C574 1.373 1_455 S
C573 C575 1.389 1_556 S
C574 H547 0.950 . S
C574 C560 1.377 . S
C574 C573 1.373 1_655 S
C575 C559 1.377 . S
C575 C573 1.389 1_554 S
C575 C576 1.524 . S
C576 C575 1.524 . S
C576 C577 1.397 1_554 S
C576 C581 1.363 . S
C577 H548 0.950 . S
C577 C576 1.397 1_556 S
C577 C578 1.334 . S
C578 H549 0.950 . S
C578 C577 1.334 . S
C578 C579 1.287 1_556 S
C579 C578 1.287 1_554 S
C579 C580 1.524 . S
C579 H582 0.999 . S
C580 H550 0.950 . S
C580 C579 1.524 . S
C580 C581 1.415 . S
C581 H551 0.950 . S
C581 C576 1.363 . S
C581 C580 1.415 . S
H582 C579 0.999 . S
H583 C564 0.913 . S
H584 C602 0.951 . S
H585 C604 0.951 . S
H586 C606 0.950 . S
H587 C607 0.950 . S
H588 C609 0.950 . S
H589 C612 0.950 . S
H590 C613 0.950 . S
H591 C615 0.950 . S
H592 C616 0.950 . S
H593 C617 0.951 . S
H594 C619 0.951 . S
H595 C621 0.950 . S
H596 C622 0.950 . S
H597 C624 0.950 . S
H598 C627 0.950 . S
H599 C628 0.950 . S
H600 C630 0.950 . S
H601 C631 0.950 . S
C602 H584 0.951 . S
C602 C603 1.366 . S
C602 C604 1.388 . S
C603 C602 1.366 . S
C603 C607 1.385 . S
C604 H585 0.951 . S
C604 C602 1.388 . S
C604 C605 1.366 . S
C605 C604 1.366 . S
C605 C606 1.414 . S
C605 C608 1.499 . S
C606 H586 0.950 . S
C606 C605 1.414 . S
C606 C607 1.374 . S
C607 H587 0.950 . S
C607 C603 1.385 . S
C607 C606 1.374 . S
C608 C605 1.499 . S
C608 C609 1.373 . S
C608 C610 1.389 . S
C609 H588 0.950 . S
C609 C608 1.373 . S
C609 C625 1.377 1_554 S
C610 C608 1.389 . S
C610 C611 1.524 . S
C610 C624 1.377 1_554 S
C611 C610 1.524 . S
C611 C612 1.397 . S
C611 C616 1.363 1_554 S
C612 H589 0.950 . S
C612 C611 1.397 . S
C612 C613 1.334 . S
C613 H590 0.950 . S
C613 C612 1.334 . S
C613 C614 1.287 . S
C614 C613 1.287 . S
C614 C615 1.524 1_554 S
C614 H633 0.913 . S
C615 H591 0.950 . S
C615 C614 1.524 1_556 S
C615 C616 1.415 . S
C616 H592 0.950 . S
C616 C611 1.363 1_556 S
C616 C615 1.415 . S
C617 H593 0.951 . S
C617 C618 1.366 . S
C617 C619 1.388 . S
C618 C617 1.366 . S
C618 C622 1.385 . S
C619 H594 0.951 . S
C619 C617 1.388 . S
C619 C620 1.366 . S
C620 C619 1.366 . S
C620 C621 1.414 . S
C620 C623 1.499 . S
C621 H595 0.950 . S
C621 C620 1.414 . S
C621 C622 1.374 . S
C622 H596 0.950 . S
C622 C618 1.385 . S
C622 C621 1.374 . S
C623 C620 1.499 . S
C623 C624 1.373 . S
C623 C625 1.389 . S
C624 H597 0.950 . S
C624 C610 1.377 1_556 S
C624 C623 1.373 . S
C625 C609 1.377 1_556 S
C625 C623 1.389 . S
C625 C626 1.524 . S
C626 C625 1.524 . S
C626 C627 1.397 . S
C626 C631 1.363 1_556 S
C627 H598 0.950 . S
C627 C626 1.397 . S
C627 C628 1.334 . S
C628 H599 0.950 . S
C628 C627 1.334 . S
C628 C629 1.287 . S
C629 C628 1.287 . S
C629 C630 1.524 1_556 S
C629 H632 0.999 . S
C630 H600 0.950 . S
C630 C629 1.524 1_554 S
C630 C631 1.415 . S
C631 H601 0.950 . S
C631 C626 1.363 1_554 S
C631 C630 1.415 . S
H632 C629 0.999 . S
H633 C614 0.913 . S
H634 C652 0.951 . S
H635 C654 0.951 . S
H636 C656 0.950 . S
H637 C657 0.950 . S
H638 C659 0.950 . S
H639 C662 0.950 1_565 S
H640 C663 0.950 . S
H641 C665 0.950 . S
H642 C666 0.950 1_556 S
H643 C667 0.951 . S
H644 C669 0.951 . S
H645 C671 0.950 . S
H646 C672 0.950 . S
H647 C674 0.950 . S
H648 C677 0.950 1_545 S
H649 C678 0.950 . S
H650 C680 0.950 . S
H651 C681 0.950 1_554 S
C652 H634 0.951 . S
C652 C653 1.366 . S
C652 C654 1.388 . S
C653 C652 1.366 . S
C653 C657 1.385 . S
C654 H635 0.951 . S
C654 C652 1.388 . S
C654 C655 1.366 . S
C655 C654 1.366 . S
C655 C656 1.414 . S
C655 C658 1.499 . S
C656 H636 0.950 . S
C656 C655 1.414 . S
C656 C657 1.374 . S
C657 H637 0.950 . S
C657 C653 1.385 . S
C657 C656 1.374 . S
C658 C655 1.499 . S
C658 C659 1.373 . S
C658 C660 1.389 . S
C659 H638 0.950 . S
C659 C658 1.373 . S
C659 C675 1.377 1_544 S
C660 C658 1.389 . S
C660 C661 1.524 . S
C660 C674 1.377 1_544 S
C661 C660 1.524 . S
C661 C662 1.397 . S
C661 C666 1.363 . S
C662 H639 0.950 1_545 S
C662 C661 1.397 . S
C662 C663 1.334 . S
C663 H640 0.950 . S
C663 C662 1.334 . S
C663 C664 1.287 . S
C664 C663 1.287 . S
C664 C665 1.524 . S
C664 H683 0.913 . S
C665 H641 0.950 . S
C665 C664 1.524 . S
C665 C666 1.415 . S
C666 H642 0.950 1_554 S
C666 C661 1.363 . S
C666 C665 1.415 . S
C667 H643 0.951 . S
C667 C668 1.366 . S
C667 C669 1.388 . S
C668 C667 1.366 . S
C668 C672 1.385 . S
C669 H644 0.951 . S
C669 C667 1.388 . S
C669 C670 1.366 . S
C670 C669 1.366 . S
C670 C671 1.414 . S
C670 C673 1.499 . S
C671 H645 0.950 . S
C671 C670 1.414 . S
C671 C672 1.374 . S
C672 H646 0.950 . S
C672 C668 1.385 . S
C672 C671 1.374 . S
C673 C670 1.499 . S
C673 C674 1.373 . S
C673 C675 1.389 . S
C674 H647 0.950 . S
C674 C660 1.377 1_566 S
C674 C673 1.373 . S
C675 C659 1.377 1_566 S
C675 C673 1.389 . S
C675 C676 1.524 . S
C676 C675 1.524 . S
C676 C677 1.397 . S
C676 C681 1.363 . S
C677 H648 0.950 1_565 S
C677 C676 1.397 . S
C677 C678 1.334 . S
C678 H649 0.950 . S
C678 C677 1.334 . S
C678 C679 1.287 . S
C679 C678 1.287 . S
C679 C680 1.524 . S
C679 H682 0.999 . S
C680 H650 0.950 . S
C680 C679 1.524 . S
C680 C681 1.415 . S
C681 H651 0.950 1_556 S
C681 C676 1.363 . S
C681 C680 1.415 . S
H682 C679 0.999 . S
H683 C664 0.913 . S
H684 C702 0.951 . S
H685 C704 0.951 . S
H686 C706 0.950 . S
H687 C707 0.950 . S
H688 C709 0.950 . S
H689 C712 0.950 . S
H690 C713 0.950 . S
H691 C715 0.950 . S
H692 C716 0.950 . S
H693 C717 0.951 . S
H694 C719 0.951 . S
H695 C721 0.950 . S
H696 C722 0.950 . S
H697 C724 0.950 . S
H698 C727 0.950 . S
H699 C728 0.950 . S
H700 C730 0.950 . S
H701 C731 0.950 . S
C702 H684 0.951 . S
C702 C703 1.366 . S
C702 C704 1.388 . S
C703 C702 1.366 . S
C703 C707 1.385 . S
C704 H685 0.951 . S
C704 C702 1.388 . S
C704 C705 1.366 . S
C705 C704 1.366 . S
C705 C706 1.414 . S
C705 C708 1.499 . S
C706 H686 0.950 . S
C706 C705 1.414 . S
C706 C707 1.374 . S
C707 H687 0.950 . S
C707 C703 1.385 . S
C707 C706 1.374 . S
C708 C705 1.499 . S
C708 C709 1.373 . S
C708 C710 1.389 . S
C709 H688 0.950 . S
C709 C708 1.373 . S
C709 C725 1.377 . S
C710 C708 1.389 . S
C710 C711 1.524 . S
C710 C724 1.377 . S
C711 C710 1.524 . S
C711 C712 1.397 . S
C711 C716 1.363 . S
C712 H689 0.950 . S
C712 C711 1.397 . S
C712 C713 1.334 . S
C713 H690 0.950 . S
C713 C712 1.334 . S
C713 C714 1.287 . S
C714 C713 1.287 . S
C714 C715 1.524 . S
C714 H733 0.913 . S
C715 H691 0.950 . S
C715 C714 1.524 . S
C715 C716 1.415 . S
C716 H692 0.950 . S
C716 C711 1.363 . S
C716 C715 1.415 . S
C717 H693 0.951 . S
C717 C718 1.366 . S
C717 C719 1.388 . S
C718 C717 1.366 . S
C718 C722 1.385 . S
C719 H694 0.951 . S
C719 C717 1.388 . S
C719 C720 1.366 . S
C720 C719 1.366 . S
C720 C721 1.414 . S
C720 C723 1.499 . S
C721 H695 0.950 . S
C721 C720 1.414 . S
C721 C722 1.374 . S
C722 H696 0.950 . S
C722 C718 1.385 . S
C722 C721 1.374 . S
C723 C720 1.499 . S
C723 C724 1.373 . S
C723 C725 1.389 . S
C724 H697 0.950 . S
C724 C710 1.377 . S
C724 C723 1.373 . S
C725 C709 1.377 . S
C725 C723 1.389 . S
C725 C726 1.524 . S
C726 C725 1.524 . S
C726 C727 1.397 . S
C726 C731 1.363 . S
C727 H698 0.950 . S
C727 C726 1.397 . S
C727 C728 1.334 . S
C728 H699 0.950 . S
C728 C727 1.334 . S
C728 C729 1.287 . S
C729 C728 1.287 . S
C729 C730 1.524 . S
C729 H732 0.999 . S
C730 H700 0.950 . S
C730 C729 1.524 . S
C730 C731 1.415 . S
C731 H701 0.950 . S
C731 C726 1.363 . S
C731 C730 1.415 . S
H732 C729 0.999 . S
H733 C714 0.913 . S
H734 C752 0.951 . S
H735 C754 0.951 . S
H736 C756 0.950 . S
H737 C757 0.950 . S
H738 C759 0.950 . S
H739 C762 0.950 . S
H740 C763 0.950 . S
H741 C765 0.950 . S
H742 C766 0.950 . S
H743 C767 0.951 1_554 S
H744 C769 0.951 . S
H745 C771 0.950 . S
H746 C772 0.950 . S
H747 C774 0.950 . S
H748 C777 0.950 . S
H749 C778 0.950 . S
H750 C780 0.950 . S
H751 C781 0.950 . S
C752 H734 0.951 . S
C752 C753 1.366 . S
C752 C754 1.388 . S
C753 C752 1.366 . S
C753 C757 1.385 . S
C754 H735 0.951 . S
C754 C752 1.388 . S
C754 C755 1.366 . S
C755 C754 1.366 . S
C755 C756 1.414 . S
C755 C758 1.499 . S
C756 H736 0.950 . S
C756 C755 1.414 . S
C756 C757 1.374 . S
C757 H737 0.950 . S
C757 C753 1.385 . S
C757 C756 1.374 . S
C758 C755 1.499 . S
C758 C759 1.373 . S
C758 C760 1.389 . S
C759 H738 0.950 . S
C759 C758 1.373 . S
C759 C775 1.377 . S
C760 C758 1.389 . S
C760 C761 1.524 . S
C760 C774 1.377 . S
C761 C760 1.524 . S
C761 C762 1.397 . S
C761 C766 1.363 . S
C762 H739 0.950 . S
C762 C761 1.397 . S
C762 C763 1.334 . S
C763 H740 0.950 . S
C763 C762 1.334 . S
C763 C764 1.287 . S
C764 C763 1.287 . S
C764 C765 1.524 . S
C764 H783 0.913 . S
C765 H741 0.950 . S
C765 C764 1.524 . S
C765 C766 1.415 . S
C766 H742 0.950 . S
C766 C761 1.363 . S
C766 C765 1.415 . S
C767 H743 0.951 1_556 S
C767 C768 1.366 . S
C767 C769 1.388 . S
C768 C767 1.366 . S
C768 C772 1.385 . S
C769 H744 0.951 . S
C769 C767 1.388 . S
C769 C770 1.366 . S
C770 C769 1.366 . S
C770 C771 1.414 . S
C770 C773 1.499 . S
C771 H745 0.950 . S
C771 C770 1.414 . S
C771 C772 1.374 . S
C772 H746 0.950 . S
C772 C768 1.385 . S
C772 C771 1.374 . S
C773 C770 1.499 . S
C773 C774 1.373 . S
C773 C775 1.389 . S
C774 H747 0.950 . S
C774 C760 1.377 . S
C774 C773 1.373 . S
C775 C759 1.377 . S
C775 C773 1.389 . S
C775 C776 1.524 . S
C776 C775 1.524 . S
C776 C777 1.397 . S
C776 C781 1.363 . S
C777 H748 0.950 . S
C777 C776 1.397 . S
C777 C778 1.334 . S
C778 H749 0.950 . S
C778 C777 1.334 . S
C778 C779 1.287 . S
C779 C778 1.287 . S
C779 C780 1.524 . S
C779 H782 0.999 . S
C780 H750 0.950 . S
C780 C779 1.524 . S
C780 C781 1.415 . S
C781 H751 0.950 . S
C781 C776 1.363 . S
C781 C780 1.415 . S
H782 C779 0.999 . S
H783 C764 0.913 . S
H784 C802 0.951 . S
H785 C804 0.951 . S
H786 C806 0.950 . S
H787 C807 0.950 . S
H788 C809 0.950 . S
H789 C812 0.950 . S
H790 C813 0.950 . S
H791 C815 0.950 . S
H792 C816 0.950 . S
H793 C817 0.951 . S
H794 C819 0.951 . S
H795 C821 0.950 . S
H796 C822 0.950 . S
H797 C824 0.950 . S
H798 C827 0.950 . S
H799 C828 0.950 . S
H800 C830 0.950 . S
H801 C831 0.950 . S
C802 H784 0.951 . S
C802 C803 1.366 . S
C802 C804 1.388 . S
C803 C802 1.366 . S
C803 C807 1.385 . S
C804 H785 0.951 . S
C804 C802 1.388 . S
C804 C805 1.366 . S
C805 C804 1.366 . S
C805 C806 1.414 . S
C805 C808 1.499 . S
C806 H786 0.950 . S
C806 C805 1.414 . S
C806 C807 1.374 . S
C807 H787 0.950 . S
C807 C803 1.385 . S
C807 C806 1.374 . S
C808 C805 1.499 . S
C808 C809 1.373 . S
C808 C810 1.389 . S
C809 H788 0.950 . S
C809 C808 1.373 . S
C809 C825 1.377 . S
C810 C808 1.389 . S
C810 C811 1.524 . S
C810 C824 1.377 . S
C811 C810 1.524 . S
C811 C812 1.397 . S
C811 C816 1.363 . S
C812 H789 0.950 . S
C812 C811 1.397 . S
C812 C813 1.334 . S
C813 H790 0.950 . S
C813 C812 1.334 . S
C813 C814 1.287 . S
C814 C813 1.287 . S
C814 C815 1.524 . S
C814 H833 0.913 . S
C815 H791 0.950 . S
C815 C814 1.524 . S
C815 C816 1.415 . S
C816 H792 0.950 . S
C816 C811 1.363 . S
C816 C815 1.415 . S
C817 H793 0.951 . S
C817 C818 1.366 . S
C817 C819 1.388 . S
C818 C817 1.366 . S
C818 C822 1.385 . S
C819 H794 0.951 . S
C819 C817 1.388 . S
C819 C820 1.366 . S
C820 C819 1.366 . S
C820 C821 1.414 . S
C820 C823 1.499 . S
C821 H795 0.950 . S
C821 C820 1.414 . S
C821 C822 1.374 . S
C822 H796 0.950 . S
C822 C818 1.385 . S
C822 C821 1.374 . S
C823 C820 1.499 . S
C823 C824 1.373 . S
C823 C825 1.389 . S
C824 H797 0.950 . S
C824 C810 1.377 . S
C824 C823 1.373 . S
C825 C809 1.377 . S
C825 C823 1.389 . S
C825 C826 1.524 . S
C826 C825 1.524 . S
C826 C827 1.397 . S
C826 C831 1.363 . S
C827 H798 0.950 . S
C827 C826 1.397 . S
C827 C828 1.334 . S
C828 H799 0.950 . S
C828 C827 1.334 . S
C828 C829 1.287 . S
C829 C828 1.287 . S
C829 C830 1.524 . S
C829 H832 0.999 . S
C830 H800 0.950 . S
C830 C829 1.524 . S
C830 C831 1.415 . S
C831 H801 0.950 . S
C831 C826 1.363 . S
C831 C830 1.415 . S
H832 C829 0.999 . S
H833 C814 0.913 . S
H834 C852 0.951 . S
H835 C854 0.951 . S
H836 C856 0.950 . S
H837 C857 0.950 . S
H838 C859 0.950 . S
H839 C862 0.950 . S
H840 C863 0.950 . S
H841 C865 0.950 . S
H842 C866 0.950 . S
H843 C867 0.951 . S
H844 C869 0.951 . S
H845 C871 0.950 . S
H846 C872 0.950 . S
H847 C874 0.950 . S
H848 C877 0.950 . S
H849 C878 0.950 . S
H850 C880 0.950 . S
H851 C881 0.950 . S
C852 H834 0.951 . S
C852 C853 1.366 . S
C852 C854 1.388 . S
C853 C852 1.366 . S
C853 C857 1.385 . S
C854 H835 0.951 . S
C854 C852 1.388 . S
C854 C855 1.366 . S
C855 C854 1.366 . S
C855 C856 1.414 . S
C855 C858 1.499 . S
C856 H836 0.950 . S
C856 C855 1.414 . S
C856 C857 1.374 . S
C857 H837 0.950 . S
C857 C853 1.385 . S
C857 C856 1.374 . S
C858 C855 1.499 . S
C858 C859 1.373 . S
C858 C860 1.389 . S
C859 H838 0.950 . S
C859 C858 1.373 . S
C859 C875 1.377 . S
C860 C858 1.389 . S
C860 C861 1.524 . S
C860 C874 1.377 . S
C861 C860 1.524 . S
C861 C862 1.397 . S
C861 C866 1.363 . S
C862 H839 0.950 . S
C862 C861 1.397 . S
C862 C863 1.334 . S
C863 H840 0.950 . S
C863 C862 1.334 . S
C863 C864 1.287 . S
C864 C863 1.287 . S
C864 C865 1.524 . S
C864 H883 0.913 . S
C865 H841 0.950 . S
C865 C864 1.524 . S
C865 C866 1.415 . S
C866 H842 0.950 . S
C866 C861 1.363 . S
C866 C865 1.415 . S
C867 H843 0.951 . S
C867 C868 1.366 . S
C867 C869 1.388 . S
C868 C867 1.366 . S
C868 C872 1.385 . S
C869 H844 0.951 . S
C869 C867 1.388 . S
C869 C870 1.366 . S
C870 C869 1.366 . S
C870 C871 1.414 . S
C870 C873 1.499 . S
C871 H845 0.950 . S
C871 C870 1.414 . S
C871 C872 1.374 . S
C872 H846 0.950 . S
C872 C868 1.385 . S
C872 C871 1.374 . S
C873 C870 1.499 . S
C873 C874 1.373 . S
C873 C875 1.389 . S
C874 H847 0.950 . S
C874 C860 1.377 . S
C874 C873 1.373 . S
C875 C859 1.377 . S
C875 C873 1.389 . S
C875 C876 1.524 . S
C876 C875 1.524 . S
C876 C877 1.397 . S
C876 C881 1.363 . S
C877 H848 0.950 . S
C877 C876 1.397 . S
C877 C878 1.334 . S
C878 H849 0.950 . S
C878 C877 1.334 . S
C878 C879 1.287 . S
C879 C878 1.287 . S
C879 C880 1.524 . S
C879 H882 0.999 . S
C880 H850 0.950 . S
C880 C879 1.524 . S
C880 C881 1.415 . S
C881 H851 0.950 . S
C881 C876 1.363 . S
C881 C880 1.415 . S
H882 C879 0.999 . S
H883 C864 0.913 . S
H884 C902 0.951 . S
H885 C904 0.951 . S
H886 C906 0.950 . S
H887 C907 0.950 . S
H888 C909 0.950 . S
H889 C912 0.950 . S
H890 C913 0.950 . S
H891 C915 0.950 . S
H892 C916 0.950 . S
H893 C917 0.951 . S
H894 C919 0.951 . S
H895 C921 0.950 . S
H896 C922 0.950 . S
H897 C924 0.950 . S
H898 C927 0.950 . S
H899 C928 0.950 . S
H900 C930 0.950 . S
H901 C931 0.950 . S
C902 H884 0.951 . S
C902 C903 1.366 . S
C902 C904 1.388 . S
C903 C902 1.366 . S
C903 C907 1.385 . S
C904 H885 0.951 . S
C904 C902 1.388 . S
C904 C905 1.366 . S
C905 C904 1.366 . S
C905 C906 1.414 . S
C905 C908 1.499 . S
C906 H886 0.950 . S
C906 C905 1.414 . S
C906 C907 1.374 . S
C907 H887 0.950 . S
C907 C903 1.385 . S
C907 C906 1.374 . S
C908 C905 1.499 . S
C908 C909 1.373 . S
C908 C910 1.389 . S
C909 H888 0.950 . S
C909 C908 1.373 . S
C909 C925 1.377 . S
C910 C908 1.389 . S
C910 C911 1.524 . S
C910 C924 1.377 . S
C911 C910 1.524 . S
C911 C912 1.397 . S
C911 C916 1.363 . S
C912 H889 0.950 . S
C912 C911 1.397 . S
C912 C913 1.334 . S
C913 H890 0.950 . S
C913 C912 1.334 . S
C913 C914 1.287 . S
C914 C913 1.287 . S
C914 C915 1.524 . S
C914 H933 0.913 . S
C915 H891 0.950 . S
C915 C914 1.524 . S
C915 C916 1.415 . S
C916 H892 0.950 . S
C916 C911 1.363 . S
C916 C915 1.415 . S
C917 H893 0.951 . S
C917 C918 1.366 . S
C917 C919 1.388 . S
C918 C917 1.366 . S
C918 C922 1.385 . S
C919 H894 0.951 . S
C919 C917 1.388 . S
C919 C920 1.366 . S
C920 C919 1.366 . S
C920 C921 1.414 . S
C920 C923 1.499 . S
C921 H895 0.950 . S
C921 C920 1.414 . S
C921 C922 1.374 . S
C922 H896 0.950 . S
C922 C918 1.385 . S
C922 C921 1.374 . S
C923 C920 1.499 . S
C923 C924 1.373 . S
C923 C925 1.389 . S
C924 H897 0.950 . S
C924 C910 1.377 . S
C924 C923 1.373 . S
C925 C909 1.377 . S
C925 C923 1.389 . S
C925 C926 1.524 . S
C926 C925 1.524 . S
C926 C927 1.397 . S
C926 C931 1.363 . S
C927 H898 0.950 . S
C927 C926 1.397 . S
C927 C928 1.334 . S
C928 H899 0.950 . S
C928 C927 1.334 . S
C928 C929 1.287 . S
C929 C928 1.287 . S
C929 C930 1.524 . S
C929 H932 0.999 . S
C930 H900 0.950 . S
C930 C929 1.524 . S
C930 C931 1.415 . S
C931 H901 0.950 . S
C931 C926 1.363 . S
C931 C930 1.415 . S
H932 C929 0.999 . S
H933 C914 0.913 . S
H934 C952 0.951 . S
H935 C954 0.951 . S
H936 C956 0.950 . S
H937 C957 0.951 1_556 S
H938 C959 0.950 . S
H939 C962 0.950 . S
H940 C963 0.950 . S
H941 C965 0.950 . S
H942 C966 0.950 . S
H943 C967 0.951 . S
H944 C969 0.951 . S
H945 C971 0.950 . S
H946 C972 0.950 . S
H947 C974 0.950 . S
H948 C977 0.950 . S
H949 C978 0.950 . S
H950 C980 0.950 . S
H951 C981 0.950 . S
C952 H934 0.951 . S
C952 C953 1.366 . S
C952 C954 1.388 . S
C953 C952 1.366 . S
C953 C957 1.385 . S
C954 H935 0.951 . S
C954 C952 1.388 . S
C954 C955 1.366 . S
C955 C954 1.366 . S
C955 C956 1.414 . S
C955 C958 1.499 . S
C956 H936 0.950 . S
C956 C955 1.414 . S
C956 C957 1.374 . S
C957 H937 0.951 1_554 S
C957 C953 1.385 . S
C957 C956 1.374 . S
C958 C955 1.499 . S
C958 C959 1.373 . S
C958 C960 1.389 . S
C959 H938 0.950 . S
C959 C958 1.373 . S
C959 C975 1.377 . S
C960 C958 1.389 . S
C960 C961 1.524 . S
C960 C974 1.377 . S
C961 C960 1.524 . S
C961 C962 1.397 . S
C961 C966 1.363 . S
C962 H939 0.950 . S
C962 C961 1.397 . S
C962 C963 1.334 . S
C963 H940 0.950 . S
C963 C962 1.334 . S
C963 C964 1.287 . S
C964 C963 1.287 . S
C964 C965 1.524 . S
C964 H983 0.913 . S
C965 H941 0.950 . S
C965 C964 1.524 . S
C965 C966 1.415 . S
C966 H942 0.950 . S
C966 C961 1.363 . S
C966 C965 1.415 . S
C967 H943 0.951 . S
C967 C968 1.366 . S
C967 C969 1.388 . S
C968 C967 1.366 . S
C968 C972 1.385 . S
C969 H944 0.951 . S
C969 C967 1.388 . S
C969 C970 1.366 . S
C970 C969 1.366 . S
C970 C971 1.414 . S
C970 C973 1.499 . S
C971 H945 0.950 . S
C971 C970 1.414 . S
C971 C972 1.374 . S
C972 H946 0.950 . S
C972 C968 1.385 . S
C972 C971 1.374 . S
C973 C970 1.499 . S
C973 C974 1.373 . S
C973 C975 1.389 . S
C974 H947 0.950 . S
C974 C960 1.377 . S
C974 C973 1.373 . S
C975 C959 1.377 . S
C975 C973 1.389 . S
C975 C976 1.524 . S
C976 C975 1.524 . S
C976 C977 1.397 . S
C976 C981 1.363 . S
C977 H948 0.950 . S
C977 C976 1.397 . S
C977 C978 1.334 . S
C978 H949 0.950 . S
C978 C977 1.334 . S
C978 C979 1.287 . S
C979 C978 1.287 . S
C979 C980 1.524 . S
C979 H982 0.999 . S
C980 H950 0.950 . S
C980 C979 1.524 . S
C980 C981 1.415 . S
C981 H951 0.950 . S
C981 C976 1.363 . S
C981 C980 1.415 . S
H982 C979 0.999 . S
H983 C964 0.913 . S
H984 C1002 0.951 . S
H985 C1004 0.951 . S
H986 C1006 0.950 . S
H987 C1007 0.950 . S
H988 C1009 0.950 . S
H989 C1012 0.950 1_655 S
H990 C1013 0.950 . S
H991 C1015 0.950 . S
H992 C1016 0.950 . S
H993 C1017 0.951 . S
H994 C1019 0.951 . S
H995 C1021 0.950 . S
H996 C1022 0.950 . S
H997 C1024 0.950 . S
H998 C1027 0.950 1_455 S
H999 C1028 0.950 . S
H1000 C1030 0.950 . S
H1001 C1031 0.950 . S
C1002 H984 0.951 . S
C1002 C1003 1.366 . S
C1002 C1004 1.388 . S
C1003 C1002 1.366 . S
C1003 C1007 1.385 . S
C1004 H985 0.951 . S
C1004 C1002 1.388 . S
C1004 C1005 1.366 . S
C1005 C1004 1.366 . S
C1005 C1006 1.414 . S
C1005 C1008 1.499 . S
C1006 H986 0.950 . S
C1006 C1005 1.414 . S
C1006 C1007 1.374 . S
C1007 H987 0.950 . S
C1007 C1003 1.385 . S
C1007 C1006 1.374 . S
C1008 C1005 1.499 . S
C1008 C1009 1.373 . S
C1008 C1010 1.389 1_655 S
C1009 H988 0.950 . S
C1009 C1008 1.373 . S
C1009 C1025 1.377 . S
C1010 C1008 1.389 1_455 S
C1010 C1011 1.524 . S
C1010 C1024 1.377 . S
C1011 C1010 1.524 . S
C1011 C1012 1.397 . S
C1011 C1016 1.363 . S
C1012 H989 0.950 1_455 S
C1012 C1011 1.397 . S
C1012 C1013 1.334 . S
C1013 H990 0.950 . S
C1013 C1012 1.334 . S
C1013 C1014 1.287 . S
C1014 C1013 1.287 . S
C1014 C1015 1.524 . S
C1014 H1033 0.913 . S
C1015 H991 0.950 . S
C1015 C1014 1.524 . S
C1015 C1016 1.415 . S
C1016 H992 0.950 . S
C1016 C1011 1.363 . S
C1016 C1015 1.415 . S
C1017 H993 0.951 . S
C1017 C1018 1.366 . S
C1017 C1019 1.388 . S
C1018 C1017 1.366 . S
C1018 C1022 1.385 . S
C1019 H994 0.951 . S
C1019 C1017 1.388 . S
C1019 C1020 1.366 . S
C1020 C1019 1.366 . S
C1020 C1021 1.414 . S
C1020 C1023 1.499 . S
C1021 H995 0.950 . S
C1021 C1020 1.414 . S
C1021 C1022 1.374 . S
C1022 H996 0.950 . S
C1022 C1018 1.385 . S
C1022 C1021 1.374 . S
C1023 C1020 1.499 . S
C1023 C1024 1.373 . S
C1023 C1025 1.389 1_455 S
C1024 H997 0.950 . S
C1024 C1010 1.377 . S
C1024 C1023 1.373 . S
C1025 C1009 1.377 . S
C1025 C1023 1.389 1_655 S
C1025 C1026 1.524 . S
C1026 C1025 1.524 . S
C1026 C1027 1.397 . S
C1026 C1031 1.363 . S
C1027 H998 0.950 1_655 S
C1027 C1026 1.397 . S
C1027 C1028 1.334 . S
C1028 H999 0.950 . S
C1028 C1027 1.334 . S
C1028 C1029 1.287 . S
C1029 C1028 1.287 . S
C1029 C1030 1.524 . S
C1029 H1032 0.999 . S
C1030 H1000 0.950 . S
C1030 C1029 1.524 . S
C1030 C1031 1.415 . S
C1031 H1001 0.950 . S
C1031 C1026 1.363 . S
C1031 C1030 1.415 . S
H1032 C1029 0.999 . S
H1033 C1014 0.913 . S
H1034 C1052 0.951 . S
H1035 C1054 0.951 . S
H1036 C1056 0.950 . S
H1037 C1057 0.950 . S
H1038 C1059 0.950 . S
H1039 C1062 0.950 . S
H1040 C1063 0.950 . S
H1041 C1065 0.950 . S
H1042 C1066 0.950 . S
H1043 C1067 0.951 . S
H1044 C1069 0.951 . S
H1045 C1071 0.950 . S
H1046 C1072 0.950 . S
H1047 C1074 0.950 . S
H1048 C1077 0.950 . S
H1049 C1078 0.950 . S
H1050 C1080 0.950 . S
H1051 C1081 0.950 . S
C1052 H1034 0.951 . S
C1052 C1053 1.366 . S
C1052 C1054 1.388 . S
C1053 C1052 1.366 . S
C1053 C1057 1.385 . S
C1054 H1035 0.951 . S
C1054 C1052 1.388 . S
C1054 C1055 1.366 . S
C1055 C1054 1.366 . S
C1055 C1056 1.414 . S
C1055 C1058 1.499 . S
C1056 H1036 0.950 . S
C1056 C1055 1.414 . S
C1056 C1057 1.374 . S
C1057 H1037 0.950 . S
C1057 C1053 1.385 . S
C1057 C1056 1.374 . S
C1058 C1055 1.499 . S
C1058 C1059 1.373 . S
C1058 C1060 1.389 . S
C1059 H1038 0.950 . S
C1059 C1058 1.373 . S
C1059 C1075 1.377 . S
C1060 C1058 1.389 . S
C1060 C1061 1.524 . S
C1060 C1074 1.377 . S
C1061 C1060 1.524 . S
C1061 C1062 1.397 . S
C1061 C1066 1.363 . S
C1062 H1039 0.950 . S
C1062 C1061 1.397 . S
C1062 C1063 1.334 . S
C1063 H1040 0.950 . S
C1063 C1062 1.334 . S
C1063 C1064 1.287 . S
C1064 C1063 1.287 . S
C1064 C1065 1.524 . S
C1064 H1083 0.913 . S
C1065 H1041 0.950 . S
C1065 C1064 1.524 . S
C1065 C1066 1.415 . S
C1066 H1042 0.950 . S
C1066 C1061 1.363 . S
C1066 C1065 1.415 . S
C1067 H1043 0.951 . S
C1067 C1068 1.366 . S
C1067 C1069 1.388 . S
C1068 C1067 1.366 . S
C1068 C1072 1.385 . S
C1069 H1044 0.951 . S
C1069 C1067 1.388 . S
C1069 C1070 1.366 . S
C1070 C1069 1.366 . S
C1070 C1071 1.414 . S
C1070 C1073 1.499 . S
C1071 H1045 0.950 . S
C1071 C1070 1.414 . S
C1071 C1072 1.374 . S
C1072 H1046 0.950 . S
C1072 C1068 1.385 . S
C1072 C1071 1.374 . S
C1073 C1070 1.499 . S
C1073 C1074 1.373 . S
C1073 C1075 1.389 . S
C1074 H1047 0.950 . S
C1074 C1060 1.377 . S
C1074 C1073 1.373 . S
C1075 C1059 1.377 . S
C1075 C1073 1.389 . S
C1075 C1076 1.524 . S
C1076 C1075 1.524 . S
C1076 C1077 1.397 . S
C1076 C1081 1.363 . S
C1077 H1048 0.950 . S
C1077 C1076 1.397 . S
C1077 C1078 1.334 . S
C1078 H1049 0.950 . S
C1078 C1077 1.334 . S
C1078 C1079 1.287 . S
C1079 C1078 1.287 . S
C1079 C1080 1.524 . S
C1079 H1082 0.999 . S
C1080 H1050 0.950 . S
C1080 C1079 1.524 . S
C1080 C1081 1.415 . S
C1081 H1051 0.950 . S
C1081 C1076 1.363 . S
C1081 C1080 1.415 . S
H1082 C1079 0.999 . S
H1083 C1064 0.913 . S
H1084 C1102 0.951 . S
H1085 C1104 0.951 . S
H1086 C1106 0.950 . S
H1087 C1107 0.950 . S
H1088 C1109 0.950 . S
H1089 C1112 0.969 . S
H1090 C1113 0.950 . S
H1091 C1115 0.950 . S
H1092 C1116 0.950 . S
H1093 C1117 0.951 . S
H1094 C1119 0.951 . S
H1095 C1121 0.950 . S
H1096 C1122 0.950 . S
H1097 C1124 0.950 . S
H1098 C1127 0.969 . S
H1099 C1128 0.950 . S
H1100 C1130 0.950 . S
H1101 C1131 0.950 . S
C1102 H1084 0.951 . S
C1102 C1103 1.366 . S
C1102 C1104 1.388 . S
C1103 C1102 1.366 . S
C1103 C1107 1.385 . S
C1104 H1085 0.951 . S
C1104 C1102 1.388 . S
C1104 C1105 1.366 . S
C1105 C1104 1.366 . S
C1105 C1106 1.414 . S
C1105 C1108 1.499 . S
C1106 H1086 0.950 . S
C1106 C1105 1.414 . S
C1106 C1107 1.374 . S
C1107 H1087 0.950 . S
C1107 C1103 1.385 . S
C1107 C1106 1.374 . S
C1108 C1105 1.499 . S
C1108 C1109 1.373 . S
C1108 C1110 1.389 1_565 S
C1109 H1088 0.950 . S
C1109 C1108 1.373 . S
C1109 C1125 1.377 . S
C1110 C1108 1.389 1_545 S
C1110 C1111 1.524 . S
C1110 C1124 1.377 . S
C1111 C1110 1.524 . S
C1111 C1112 1.397 . S
C1111 C1116 1.363 . S
C1112 H1089 0.969 . S
C1112 C1111 1.397 . S
C1112 C1113 1.334 . S
C1113 H1090 0.950 . S
C1113 C1112 1.334 . S
C1113 C1114 1.287 . S
C1114 C1113 1.287 . S
C1114 C1115 1.524 . S
C1114 H1133 0.913 . S
C1115 H1091 0.950 . S
C1115 C1114 1.524 . S
C1115 C1116 1.415 . S
C1116 H1092 0.950 . S
C1116 C1111 1.363 . S
C1116 C1115 1.415 . S
C1117 H1093 0.951 . S
C1117 C1118 1.366 . S
C1117 C1119 1.388 . S
C1118 C1117 1.366 . S
C1118 C1122 1.385 . S
C1119 H1094 0.951 . S
C1119 C1117 1.388 . S
C1119 C1120 1.366 . S
C1120 C1119 1.366 . S
C1120 C1121 1.414 . S
C1120 C1123 1.499 . S
C1121 H1095 0.950 . S
C1121 C1120 1.414 . S
C1121 C1122 1.374 . S
C1122 H1096 0.950 . S
C1122 C1118 1.385 . S
C1122 C1121 1.374 . S
C1123 C1120 1.499 . S
C1123 C1124 1.373 . S
C1123 C1125 1.389 1_545 S
C1124 H1097 0.950 . S
C1124 C1110 1.377 . S
C1124 C1123 1.373 . S
C1125 C1109 1.377 . S
C1125 C1123 1.389 1_565 S
C1125 C1126 1.524 . S
C1126 C1125 1.524 . S
C1126 C1127 1.397 . S
C1126 C1131 1.363 . S
C1127 H1098 0.969 . S
C1127 C1126 1.397 . S
C1127 C1128 1.334 . S
C1128 H1099 0.950 . S
C1128 C1127 1.334 . S
C1128 C1129 1.287 . S
C1129 C1128 1.287 . S
C1129 C1130 1.524 . S
C1129 H1132 0.999 . S
C1130 H1100 0.950 . S
C1130 C1129 1.524 . S
C1130 C1131 1.415 . S
C1131 H1101 0.950 . S
C1131 C1126 1.363 . S
C1131 C1130 1.415 . S
H1132 C1129 0.999 . S
H1133 C1114 0.913 . S
H1134 C1152 0.951 . S
H1135 C1154 0.951 . S
H1136 C1156 0.950 . S
H1137 C1157 0.950 . S
H1138 C1159 0.950 . S
H1139 C1162 0.950 . S
H1140 C1163 0.950 . S
H1141 C1165 0.950 . S
H1142 C1166 0.950 . S
H1143 C1167 0.951 . S
H1144 C1169 0.951 . S
H1145 C1171 0.950 . S
H1146 C1172 0.950 . S
H1147 C1174 0.950 . S
H1148 C1177 0.950 . S
H1149 C1178 0.950 . S
H1150 C1180 0.950 . S
H1151 C1181 0.950 . S
C1152 H1134 0.951 . S
C1152 C1153 1.366 . S
C1152 C1154 1.388 . S
C1153 C1152 1.366 . S
C1153 C1157 1.385 . S
C1154 H1135 0.951 . S
C1154 C1152 1.388 . S
C1154 C1155 1.366 . S
C1155 C1154 1.366 . S
C1155 C1156 1.414 . S
C1155 C1158 1.499 . S
C1156 H1136 0.950 . S
C1156 C1155 1.414 . S
C1156 C1157 1.374 . S
C1157 H1137 0.950 . S
C1157 C1153 1.385 . S
C1157 C1156 1.374 . S
C1158 C1155 1.499 . S
C1158 C1159 1.373 . S
C1158 C1160 1.389 1_554 S
C1159 H1138 0.950 . S
C1159 C1158 1.373 . S
C1159 C1175 1.377 . S
C1160 C1158 1.389 1_556 S
C1160 C1161 1.524 . S
C1160 C1174 1.377 . S
C1161 C1160 1.524 . S
C1161 C1162 1.397 . S
C1161 C1166 1.363 . S
C1162 H1139 0.950 . S
C1162 C1161 1.397 . S
C1162 C1163 1.334 . S
C1163 H1140 0.950 . S
C1163 C1162 1.334 . S
C1163 C1164 1.287 . S
C1164 C1163 1.287 . S
C1164 C1165 1.524 . S
C1164 H1183 0.913 . S
C1165 H1141 0.950 . S
C1165 C1164 1.524 . S
C1165 C1166 1.415 . S
C1166 H1142 0.950 . S
C1166 C1161 1.363 . S
C1166 C1165 1.415 . S
C1167 H1143 0.951 . S
C1167 C1168 1.366 . S
C1167 C1169 1.388 . S
C1168 C1167 1.366 . S
C1168 C1172 1.385 . S
C1169 H1144 0.951 . S
C1169 C1167 1.388 . S
C1169 C1170 1.366 . S
C1170 C1169 1.366 . S
C1170 C1171 1.414 . S
C1170 C1173 1.499 . S
C1171 H1145 0.950 . S
C1171 C1170 1.414 . S
C1171 C1172 1.374 . S
C1172 H1146 0.950 . S
C1172 C1168 1.385 . S
C1172 C1171 1.374 . S
C1173 C1170 1.499 . S
C1173 C1174 1.373 . S
C1173 C1175 1.389 1_556 S
C1174 H1147 0.950 . S
C1174 C1160 1.377 . S
C1174 C1173 1.373 . S
C1175 C1159 1.377 . S
C1175 C1173 1.389 1_554 S
C1175 C1176 1.524 . S
C1176 C1175 1.524 . S
C1176 C1177 1.397 . S
C1176 C1181 1.363 . S
C1177 H1148 0.950 . S
C1177 C1176 1.397 . S
C1177 C1178 1.334 . S
C1178 H1149 0.950 . S
C1178 C1177 1.334 . S
C1178 C1179 1.287 . S
C1179 C1178 1.287 . S
C1179 C1180 1.524 . S
C1179 H1182 0.999 . S
C1180 H1150 0.950 . S
C1180 C1179 1.524 . S
C1180 C1181 1.415 . S
C1181 H1151 0.950 . S
C1181 C1176 1.363 . S
C1181 C1180 1.415 . S
H1182 C1179 0.999 . S
H1183 C1164 0.913 . S
H1184 C1202 0.951 1_554 S
H1185 C1204 0.951 . S
H1186 C1206 0.950 . S
H1187 C1207 0.950 . S
H1188 C1209 0.950 . S
H1189 C1212 0.950 . S
H1190 C1213 0.950 . S
H1191 C1215 0.950 . S
H1192 C1216 0.950 . S
H1193 C1217 0.951 1_556 S
H1194 C1219 0.951 . S
H1195 C1221 0.950 . S
H1196 C1222 0.950 . S
H1197 C1224 0.950 . S
H1198 C1227 0.950 . S
H1199 C1228 0.950 . S
H1200 C1230 0.950 . S
H1201 C1231 0.950 . S
C1202 H1184 0.951 1_556 S
C1202 C1203 1.366 . S
C1202 C1204 1.388 1_556 S
C1203 C1202 1.366 . S
C1203 C1207 1.385 . S
C1204 H1185 0.951 . S
C1204 C1202 1.388 1_554 S
C1204 C1205 1.366 1_554 S
C1205 C1204 1.366 1_556 S
C1205 C1206 1.414 . S
C1205 C1208 1.499 . S
C1206 H1186 0.950 . S
C1206 C1205 1.414 . S
C1206 C1207 1.374 . S
C1207 H1187 0.950 . S
C1207 C1203 1.385 . S
C1207 C1206 1.374 . S
C1208 C1205 1.499 . S
C1208 C1209 1.373 . S
C1208 C1210 1.391 . S
C1209 H1188 0.950 . S
C1209 C1208 1.373 . S
C1209 C1225 1.375 1_546 S
C1210 C1208 1.391 . S
C1210 C1211 1.525 . S
C1210 C1224 1.375 1_546 S
C1211 C1210 1.525 . S
C1211 C1212 1.397 . S
C1211 C1216 1.363 1_556 S
C1212 H1189 0.950 . S
C1212 C1211 1.397 . S
C1212 C1213 1.334 . S
C1213 H1190 0.950 . S
C1213 C1212 1.334 . S
C1213 C1214 1.287 . S
C1214 C1213 1.287 . S
C1214 C1215 1.524 1_556 S
C1214 H1233 0.913 . S
C1215 H1191 0.950 . S
C1215 C1214 1.524 1_554 S
C1215 C1216 1.415 . S
C1216 H1192 0.950 . S
C1216 C1211 1.363 1_554 S
C1216 C1215 1.415 . S
C1217 H1193 0.951 1_554 S
C1217 C1218 1.366 . S
C1217 C1219 1.388 1_554 S
C1218 C1217 1.366 . S
C1218 C1222 1.385 . S
C1219 H1194 0.951 . S
C1219 C1217 1.388 1_556 S
C1219 C1220 1.366 1_556 S
C1220 C1219 1.366 1_554 S
C1220 C1221 1.414 . S
C1220 C1223 1.499 . S
C1221 H1195 0.950 . S
C1221 C1220 1.414 . S
C1221 C1222 1.374 . S
C1222 H1196 0.950 . S
C1222 C1218 1.385 . S
C1222 C1221 1.374 . S
C1223 C1220 1.499 . S
C1223 C1224 1.373 . S
C1223 C1225 1.390 . S
C1224 H1197 0.950 . S
C1224 C1210 1.375 1_564 S
C1224 C1223 1.373 . S
C1225 C1209 1.375 1_564 S
C1225 C1223 1.390 . S
C1225 C1226 1.525 . S
C1226 C1225 1.525 . S
C1226 C1227 1.397 . S
C1226 C1231 1.363 1_554 S
C1227 H1198 0.950 . S
C1227 C1226 1.397 . S
C1227 C1228 1.334 . S
C1228 H1199 0.950 . S
C1228 C1227 1.334 . S
C1228 C1229 1.287 . S
C1229 C1228 1.287 . S
C1229 C1230 1.524 1_554 S
C1229 H1232 0.999 . S
C1230 H1200 0.950 . S
C1230 C1229 1.524 1_556 S
C1230 C1231 1.415 . S
C1231 H1201 0.950 . S
C1231 C1226 1.363 1_556 S
C1231 C1230 1.415 . S
H1232 C1229 0.999 . S
H1233 C1214 0.913 . S
H1234 C1252 0.951 . S
H1235 C1254 0.951 . S
H1236 C1256 0.950 . S
H1237 C1257 0.950 . S
H1238 C1259 0.950 . S
H1239 C1262 0.950 . S
H1240 C1263 0.950 . S
H1241 C1265 0.950 . S
H1242 C1266 0.950 1_455 S
H1243 C1267 0.951 . S
H1244 C1269 0.951 . S
H1245 C1271 0.950 . S
H1246 C1272 0.950 . S
H1247 C1274 0.950 . S
H1248 C1277 0.950 . S
H1249 C1278 0.950 . S
H1250 C1280 0.950 . S
H1251 C1281 0.950 1_655 S
C1252 H1234 0.951 . S
C1252 C1253 1.366 . S
C1252 C1254 1.388 . S
C1253 C1252 1.366 . S
C1253 C1257 1.385 . S
C1254 H1235 0.951 . S
C1254 C1252 1.388 . S
C1254 C1255 1.366 . S
C1255 C1254 1.366 . S
C1255 C1256 1.414 . S
C1255 C1258 1.499 . S
C1256 H1236 0.950 . S
C1256 C1255 1.414 . S
C1256 C1257 1.374 . S
C1257 H1237 0.950 . S
C1257 C1253 1.385 . S
C1257 C1256 1.374 . S
C1258 C1255 1.499 . S
C1258 C1259 1.373 1_556 S
C1258 C1260 1.389 . S
C1259 H1238 0.950 . S
C1259 C1258 1.373 1_554 S
C1259 C1275 1.377 1_655 S
C1260 C1258 1.389 . S
C1260 C1261 1.524 . S
C1260 C1274 1.377 1_655 S
C1261 C1260 1.524 . S
C1261 C1262 1.397 . S
C1261 C1266 1.363 . S
C1262 H1239 0.950 . S
C1262 C1261 1.397 . S
C1262 C1263 1.334 . S
C1263 H1240 0.950 . S
C1263 C1262 1.334 . S
C1263 C1264 1.287 . S
C1264 C1263 1.287 . S
C1264 C1265 1.524 . S
C1264 H1283 0.913 . S
C1265 H1241 0.950 . S
C1265 C1264 1.524 . S
C1265 C1266 1.415 . S
C1266 H1242 0.950 1_655 S
C1266 C1261 1.363 . S
C1266 C1265 1.415 . S
C1267 H1243 0.951 . S
C1267 C1268 1.366 . S
C1267 C1269 1.388 . S
C1268 C1267 1.366 . S
C1268 C1272 1.385 . S
C1269 H1244 0.951 . S
C1269 C1267 1.388 . S
C1269 C1270 1.366 . S
C1270 C1269 1.366 . S
C1270 C1271 1.414 . S
C1270 C1273 1.499 . S
C1271 H1245 0.950 . S
C1271 C1270 1.414 . S
C1271 C1272 1.374 . S
C1272 H1246 0.950 . S
C1272 C1268 1.385 . S
C1272 C1271 1.374 . S
C1273 C1270 1.499 . S
C1273 C1274 1.373 1_554 S
C1273 C1275 1.389 . S
C1274 H1247 0.950 . S
C1274 C1260 1.377 1_455 S
C1274 C1273 1.373 1_556 S
C1275 C1259 1.377 1_455 S
C1275 C1273 1.389 . S
C1275 C1276 1.524 . S
C1276 C1275 1.524 . S
C1276 C1277 1.397 . S
C1276 C1281 1.363 . S
C1277 H1248 0.950 . S
C1277 C1276 1.397 . S
C1277 C1278 1.334 . S
C1278 H1249 0.950 . S
C1278 C1277 1.334 . S
C1278 C1279 1.287 . S
C1279 C1278 1.287 . S
C1279 C1280 1.524 . S
C1279 H1282 0.999 . S
C1280 H1250 0.950 . S
C1280 C1279 1.524 . S
C1280 C1281 1.415 . S
C1281 H1251 0.950 1_455 S
C1281 C1276 1.363 . S
C1281 C1280 1.415 . S
H1282 C1279 0.999 . S
H1283 C1264 0.913 . S
H1284 C1302 0.951 . S
H1285 C1304 0.951 . S
H1286 C1306 0.950 1_554 S
H1287 C1307 0.950 1_554 S
H1288 C1309 0.950 . S
H1289 C1312 0.950 . S
H1290 C1313 0.950 . S
H1291 C1315 0.950 . S
H1292 C1316 0.950 . S
H1293 C1317 0.951 . S
H1294 C1319 0.951 . S
H1295 C1321 0.950 1_556 S
H1296 C1322 0.950 1_556 S
H1297 C1324 0.950 . S
H1298 C1327 0.950 . S
H1299 C1328 0.950 . S
H1300 C1330 0.950 . S
H1301 C1331 0.950 . S
C1302 H1284 0.951 . S
C1302 C1303 1.366 . S
C1302 C1304 1.388 . S
C1303 C1302 1.366 . S
C1303 C1307 1.385 . S
C1304 H1285 0.951 . S
C1304 C1302 1.388 . S
C1304 C1305 1.366 . S
C1305 C1304 1.366 . S
C1305 C1306 1.414 . S
C1305 C1308 1.499 . S
C1306 H1286 0.950 1_556 S
C1306 C1305 1.414 . S
C1306 C1307 1.374 . S
C1307 H1287 0.950 1_556 S
C1307 C1303 1.385 . S
C1307 C1306 1.374 . S
C1308 C1305 1.499 . S
C1308 C1309 1.373 . S
C1308 C1310 1.389 . S
C1309 H1288 0.950 . S
C1309 C1308 1.373 . S
C1309 C1325 1.377 1_556 S
C1310 C1308 1.389 . S
C1310 C1311 1.524 . S
C1310 C1324 1.377 1_556 S
C1311 C1310 1.524 . S
C1311 C1312 1.397 1_556 S
C1311 C1316 1.363 . S
C1312 H1289 0.950 . S
C1312 C1311 1.397 1_554 S
C1312 C1313 1.334 . S
C1313 H1290 0.950 . S
C1313 C1312 1.334 . S
C1313 C1314 1.287 . S
C1314 C1313 1.287 . S
C1314 C1315 1.524 1_554 S
C1314 H1333 0.913 . S
C1315 H1291 0.950 . S
C1315 C1314 1.524 1_556 S
C1315 C1316 1.415 . S
C1316 H1292 0.950 . S
C1316 C1311 1.363 . S
C1316 C1315 1.415 . S
C1317 H1293 0.951 . S
C1317 C1318 1.366 . S
C1317 C1319 1.388 . S
C1318 C1317 1.366 . S
C1318 C1322 1.385 . S
C1319 H1294 0.951 . S
C1319 C1317 1.388 . S
C1319 C1320 1.366 . S
C1320 C1319 1.366 . S
C1320 C1321 1.414 . S
C1320 C1323 1.499 . S
C1321 H1295 0.950 1_554 S
C1321 C1320 1.414 . S
C1321 C1322 1.374 . S
C1322 H1296 0.950 1_554 S
C1322 C1318 1.385 . S
C1322 C1321 1.374 . S
C1323 C1320 1.499 . S
C1323 C1324 1.373 . S
C1323 C1325 1.389 . S
C1324 H1297 0.950 . S
C1324 C1310 1.377 1_554 S
C1324 C1323 1.373 . S
C1325 C1309 1.377 1_554 S
C1325 C1323 1.389 . S
C1325 C1326 1.524 . S
C1326 C1325 1.524 . S
C1326 C1327 1.397 1_554 S
C1326 C1331 1.363 . S
C1327 H1298 0.950 . S
C1327 C1326 1.397 1_556 S
C1327 C1328 1.334 . S
C1328 H1299 0.950 . S
C1328 C1327 1.334 . S
C1328 C1329 1.287 . S
C1329 C1328 1.287 . S
C1329 C1330 1.524 1_556 S
C1329 H1332 0.999 . S
C1330 H1300 0.950 . S
C1330 C1329 1.524 1_554 S
C1330 C1331 1.415 . S
C1331 H1301 0.950 . S
C1331 C1326 1.363 . S
C1331 C1330 1.415 . S
H1332 C1329 0.999 . S
H1333 C1314 0.913 . S
H1334 C1352 0.951 1_556 S
H1335 C1354 0.951 . S
H1336 C1356 0.950 . S
H1337 C1357 0.950 . S
H1338 C1359 0.950 . S
H1339 C1362 0.950 1_554 S
H1340 C1363 0.950 . S
H1341 C1365 0.950 . S
H1342 C1366 0.950 . S
H1343 C1367 0.951 1_554 S
H1344 C1369 0.951 . S
H1345 C1371 0.950 . S
H1346 C1372 0.950 . S
H1347 C1374 0.950 . S
H1348 C1377 0.950 1_556 S
H1349 C1378 0.950 . S
H1350 C1380 0.950 . S
H1351 C1381 0.950 . S
C1352 H1334 0.951 1_554 S
C1352 C1353 1.366 . S
C1352 C1354 1.388 1_554 S
C1353 C1352 1.366 . S
C1353 C1357 1.385 . S
C1354 H1335 0.951 . S
C1354 C1352 1.388 1_556 S
C1354 C1355 1.366 1_556 S
C1355 C1354 1.366 1_554 S
C1355 C1356 1.414 . S
C1355 C1358 1.499 . S
C1356 H1336 0.950 . S
C1356 C1355 1.414 . S
C1356 C1357 1.374 . S
C1357 H1337 0.950 . S
C1357 C1353 1.385 . S
C1357 C1356 1.374 . S
C1358 C1355 1.499 . S
C1358 C1359 1.373 . S
C1358 C1360 1.389 1_554 S
C1359 H1338 0.950 . S
C1359 C1358 1.373 . S
C1359 C1375 1.377 1_565 S
C1360 C1358 1.389 1_556 S
C1360 C1361 1.524 . S
C1360 C1374 1.377 1_565 S
C1361 C1360 1.524 . S
C1361 C1362 1.397 . S
C1361 C1366 1.363 . S
C1362 H1339 0.950 1_556 S
C1362 C1361 1.397 . S
C1362 C1363 1.334 . S
C1363 H1340 0.950 . S
C1363 C1362 1.334 . S
C1363 C1364 1.287 . S
C1364 C1363 1.287 . S
C1364 C1365 1.524 . S
C1364 H1383 0.913 . S
C1365 H1341 0.950 . S
C1365 C1364 1.524 . S
C1365 C1366 1.415 . S
C1366 H1342 0.950 . S
C1366 C1361 1.363 . S
C1366 C1365 1.415 . S
C1367 H1343 0.951 1_556 S
C1367 C1368 1.366 . S
C1367 C1369 1.388 1_556 S
C1368 C1367 1.366 . S
C1368 C1372 1.385 . S
C1369 H1344 0.951 . S
C1369 C1367 1.388 1_554 S
C1369 C1370 1.366 1_554 S
C1370 C1369 1.366 1_556 S
C1370 C1371 1.414 . S
C1370 C1373 1.499 . S
C1371 H1345 0.950 . S
C1371 C1370 1.414 . S
C1371 C1372 1.374 . S
C1372 H1346 0.950 . S
C1372 C1368 1.385 . S
C1372 C1371 1.374 . S
C1373 C1370 1.499 . S
C1373 C1374 1.373 . S
C1373 C1375 1.389 1_556 S
C1374 H1347 0.950 . S
C1374 C1360 1.377 1_545 S
C1374 C1373 1.373 . S
C1375 C1359 1.377 1_545 S
C1375 C1373 1.389 1_554 S
C1375 C1376 1.524 . S
C1376 C1375 1.524 . S
C1376 C1377 1.397 . S
C1376 C1381 1.363 . S
C1377 H1348 0.950 1_554 S
C1377 C1376 1.397 . S
C1377 C1378 1.334 . S
C1378 H1349 0.950 . S
C1378 C1377 1.334 . S
C1378 C1379 1.287 . S
C1379 C1378 1.287 . S
C1379 C1380 1.524 . S
C1379 H1382 0.999 . S
C1380 H1350 0.950 . S
C1380 C1379 1.524 . S
C1380 C1381 1.415 . S
C1381 H1351 0.950 . S
C1381 C1376 1.363 . S
C1381 C1380 1.415 . S
H1382 C1379 0.999 . S
H1383 C1364 0.913 . S
H1384 C1402 0.951 . S
H1385 C1404 0.951 . S
H1386 C1406 0.950 . S
H1387 C1407 0.950 . S
H1388 C1409 0.950 . S
H1389 C1412 0.950 . S
H1390 C1413 0.950 . S
H1391 C1415 0.950 . S
H1392 C1416 0.950 . S
H1393 C1417 0.951 . S
H1394 C1419 0.951 . S
H1395 C1421 0.950 . S
H1396 C1422 0.950 . S
H1397 C1424 0.950 . S
H1398 C1427 0.950 . S
H1399 C1428 0.950 . S
H1400 C1430 0.950 . S
H1401 C1431 0.950 . S
C1402 H1384 0.951 . S
C1402 C1403 1.366 . S
C1402 C1404 1.388 . S
C1403 C1402 1.366 . S
C1403 C1407 1.385 . S
C1404 H1385 0.951 . S
C1404 C1402 1.388 . S
C1404 C1405 1.366 . S
C1405 C1404 1.366 . S
C1405 C1406 1.414 . S
C1405 C1408 1.499 . S
C1406 H1386 0.950 . S
C1406 C1405 1.414 . S
C1406 C1407 1.374 . S
C1407 H1387 0.950 . S
C1407 C1403 1.385 . S
C1407 C1406 1.374 . S
C1408 C1405 1.499 . S
C1408 C1409 1.373 . S
C1408 C1410 1.389 1_556 S
C1409 H1388 0.950 . S
C1409 C1408 1.373 . S
C1409 C1425 1.377 1_655 S
C1410 C1408 1.389 1_554 S
C1410 C1411 1.524 . S
C1410 C1424 1.377 1_655 S
C1411 C1410 1.524 . S
C1411 C1412 1.397 . S
C1411 C1416 1.363 . S
C1412 H1389 0.950 . S
C1412 C1411 1.397 . S
C1412 C1413 1.334 . S
C1413 H1390 0.950 . S
C1413 C1412 1.334 . S
C1413 C1414 1.287 . S
C1414 C1413 1.287 . S
C1414 C1415 1.524 . S
C1414 H1433 0.913 . S
C1415 H1391 0.950 . S
C1415 C1414 1.524 . S
C1415 C1416 1.415 . S
C1416 H1392 0.950 . S
C1416 C1411 1.363 . S
C1416 C1415 1.415 . S
C1417 H1393 0.951 . S
C1417 C1418 1.366 . S
C1417 C1419 1.388 . S
C1418 C1417 1.366 . S
C1418 C1422 1.385 . S
C1419 H1394 0.951 . S
C1419 C1417 1.388 . S
C1419 C1420 1.366 . S
C1420 C1419 1.366 . S
C1420 C1421 1.414 . S
C1420 C1423 1.499 . S
C1421 H1395 0.950 . S
C1421 C1420 1.414 . S
C1421 C1422 1.374 . S
C1422 H1396 0.950 . S
C1422 C1418 1.385 . S
C1422 C1421 1.374 . S
C1423 C1420 1.499 . S
C1423 C1424 1.373 . S
C1423 C1425 1.389 1_554 S
C1424 H1397 0.950 . S
C1424 C1410 1.377 1_455 S
C1424 C1423 1.373 . S
C1425 C1409 1.377 1_455 S
C1425 C1423 1.389 1_556 S
C1425 C1426 1.524 . S
C1426 C1425 1.524 . S
C1426 C1427 1.397 . S
C1426 C1431 1.363 . S
C1427 H1398 0.950 . S
C1427 C1426 1.397 . S
C1427 C1428 1.334 . S
C1428 H1399 0.950 . S
C1428 C1427 1.334 . S
C1428 C1429 1.287 . S
C1429 C1428 1.287 . S
C1429 C1430 1.524 . S
C1429 H1432 0.999 . S
C1430 H1400 0.950 . S
C1430 C1429 1.524 . S
C1430 C1431 1.415 . S
C1431 H1401 0.950 . S
C1431 C1426 1.363 . S
C1431 C1430 1.415 . S
H1432 C1429 0.999 . S
H1433 C1414 0.913 . S
H1434 C1452 0.951 . S
H1435 C1454 0.951 . S
H1436 C1456 0.950 . S
H1437 C1457 0.950 . S
H1438 C1459 0.950 . S
H1439 C1462 0.950 . S
H1440 C1463 0.950 . S
H1441 C1465 0.950 . S
H1442 C1466 0.950 . S
H1443 C1467 0.951 . S
H1444 C1469 0.951 . S
H1445 C1471 0.950 . S
H1446 C1472 0.950 . S
H1447 C1474 0.950 . S
H1448 C1477 0.950 . S
H1449 C1478 0.950 . S
H1450 C1480 0.950 . S
H1451 C1481 0.950 . S
C1452 H1434 0.951 . S
C1452 C1453 1.366 . S
C1452 C1454 1.388 . S
C1453 C1452 1.366 . S
C1453 C1457 1.385 . S
C1454 H1435 0.951 . S
C1454 C1452 1.388 . S
C1454 C1455 1.366 . S
C1455 C1454 1.366 . S
C1455 C1456 1.414 . S
C1455 C1458 1.499 . S
C1456 H1436 0.950 . S
C1456 C1455 1.414 . S
C1456 C1457 1.374 . S
C1457 H1437 0.950 . S
C1457 C1453 1.385 . S
C1457 C1456 1.374 . S
C1458 C1455 1.499 . S
C1458 C1459 1.373 . S
C1458 C1460 1.389 . S
C1459 H1438 0.950 . S
C1459 C1458 1.373 . S
C1459 C1475 1.377 . S
C1460 C1458 1.389 . S
C1460 C1461 1.524 . S
C1460 C1474 1.377 . S
C1461 C1460 1.524 . S
C1461 C1462 1.397 . S
C1461 C1466 1.363 . S
C1462 H1439 0.950 . S
C1462 C1461 1.397 . S
C1462 C1463 1.334 . S
C1463 H1440 0.950 . S
C1463 C1462 1.334 . S
C1463 C1464 1.287 . S
C1464 C1463 1.287 . S
C1464 C1465 1.524 . S
C1464 H1483 0.913 . S
C1465 H1441 0.950 . S
C1465 C1464 1.524 . S
C1465 C1466 1.415 . S
C1466 H1442 0.950 . S
C1466 C1461 1.363 . S
C1466 C1465 1.415 . S
C1467 H1443 0.951 . S
C1467 C1468 1.366 . S
C1467 C1469 1.388 . S
C1468 C1467 1.366 . S
C1468 C1472 1.385 . S
C1469 H1444 0.951 . S
C1469 C1467 1.388 . S
C1469 C1470 1.366 . S
C1470 C1469 1.366 . S
C1470 C1471 1.414 . S
C1470 C1473 1.499 . S
C1471 H1445 0.950 . S
C1471 C1470 1.414 . S
C1471 C1472 1.374 . S
C1472 H1446 0.950 . S
C1472 C1468 1.385 . S
C1472 C1471 1.374 . S
C1473 C1470 1.499 . S
C1473 C1474 1.373 . S
C1473 C1475 1.389 . S
C1474 H1447 0.950 . S
C1474 C1460 1.377 . S
C1474 C1473 1.373 . S
C1475 C1459 1.377 . S
C1475 C1473 1.389 . S
C1475 C1476 1.524 . S
C1476 C1475 1.524 . S
C1476 C1477 1.397 . S
C1476 C1481 1.363 . S
C1477 H1448 0.950 . S
C1477 C1476 1.397 . S
C1477 C1478 1.334 . S
C1478 H1449 0.950 . S
C1478 C1477 1.334 . S
C1478 C1479 1.287 . S
C1479 C1478 1.287 . S
C1479 C1480 1.524 . S
C1479 H1482 0.999 . S
C1480 H1450 0.950 . S
C1480 C1479 1.524 . S
C1480 C1481 1.415 . S
C1481 H1451 0.950 . S
C1481 C1476 1.363 . S
C1481 C1480 1.415 . S
H1482 C1479 0.999 . S
H1483 C1464 0.913 . S
H1484 C1502 0.951 . S
H1485 C1504 0.951 . S
H1486 C1506 0.950 . S
H1487 C1507 0.950 . S
H1488 C1509 0.950 . S
H1489 C1512 0.950 . S
H1490 C1513 0.950 . S
H1491 C1515 0.950 . S
H1492 C1516 0.950 . S
H1493 C1517 0.951 . S
H1494 C1519 0.951 . S
H1495 C1521 0.950 . S
H1496 C1522 0.950 . S
H1497 C1524 0.950 . S
H1498 C1527 0.950 . S
H1499 C1528 0.950 . S
H1500 C1530 0.950 . S
H1501 C1531 0.950 . S
C1502 H1484 0.951 . S
C1502 C1503 1.366 . S
C1502 C1504 1.388 . S
C1503 C1502 1.366 . S
C1503 C1507 1.385 . S
C1504 H1485 0.951 . S
C1504 C1502 1.388 . S
C1504 C1505 1.366 . S
C1505 C1504 1.366 . S
C1505 C1506 1.414 . S
C1505 C1508 1.499 . S
C1506 H1486 0.950 . S
C1506 C1505 1.414 . S
C1506 C1507 1.374 . S
C1507 H1487 0.950 . S
C1507 C1503 1.385 . S
C1507 C1506 1.374 . S
C1508 C1505 1.499 . S
C1508 C1509 1.373 . S
C1508 C1510 1.389 . S
C1509 H1488 0.950 . S
C1509 C1508 1.373 . S
C1509 C1525 1.377 . S
C1510 C1508 1.389 . S
C1510 C1511 1.524 . S
C1510 C1524 1.377 . S
C1511 C1510 1.524 . S
C1511 C1512 1.397 . S
C1511 C1516 1.363 . S
C1512 H1489 0.950 . S
C1512 C1511 1.397 . S
C1512 C1513 1.334 . S
C1513 H1490 0.950 . S
C1513 C1512 1.334 . S
C1513 C1514 1.287 . S
C1514 C1513 1.287 . S
C1514 C1515 1.524 . S
C1514 H1533 0.913 . S
C1515 H1491 0.950 . S
C1515 C1514 1.524 . S
C1515 C1516 1.415 . S
C1516 H1492 0.950 . S
C1516 C1511 1.363 . S
C1516 C1515 1.415 . S
C1517 H1493 0.951 . S
C1517 C1518 1.366 . S
C1517 C1519 1.388 . S
C1518 C1517 1.366 . S
C1518 C1522 1.385 . S
C1519 H1494 0.951 . S
C1519 C1517 1.388 . S
C1519 C1520 1.366 . S
C1520 C1519 1.366 . S
C1520 C1521 1.414 . S
C1520 C1523 1.499 . S
C1521 H1495 0.950 . S
C1521 C1520 1.414 . S
C1521 C1522 1.374 . S
C1522 H1496 0.950 . S
C1522 C1518 1.385 . S
C1522 C1521 1.374 . S
C1523 C1520 1.499 . S
C1523 C1524 1.373 . S
C1523 C1525 1.389 . S
C1524 H1497 0.950 . S
C1524 C1510 1.377 . S
C1524 C1523 1.373 . S
C1525 C1509 1.377 . S
C1525 C1523 1.389 . S
C1525 C1526 1.524 . S
C1526 C1525 1.524 . S
C1526 C1527 1.397 . S
C1526 C1531 1.363 . S
C1527 H1498 0.950 . S
C1527 C1526 1.397 . S
C1527 C1528 1.334 . S
C1528 H1499 0.950 . S
C1528 C1527 1.334 . S
C1528 C1529 1.287 . S
C1529 C1528 1.287 . S
C1529 C1530 1.524 . S
C1529 H1532 0.999 . S
C1530 H1500 0.950 . S
C1530 C1529 1.524 . S
C1530 C1531 1.415 . S
C1531 H1501 0.950 . S
C1531 C1526 1.363 . S
C1531 C1530 1.415 . S
H1532 C1529 0.999 . S
H1533 C1514 0.913 . S
H1534 C1552 0.951 . S
H1535 C1554 0.951 . S
H1536 C1556 0.950 . S
H1537 C1557 0.950 . S
H1538 C1559 0.950 . S
H1539 C1562 0.950 . S
H1540 C1563 0.950 . S
H1541 C1565 0.950 . S
H1542 C1566 0.950 . S
H1543 C1567 0.951 . S
H1544 C1569 0.951 . S
H1545 C1571 0.950 . S
H1546 C1572 0.950 . S
H1547 C1574 0.950 . S
H1548 C1577 0.950 . S
H1549 C1578 0.950 . S
H1550 C1580 0.950 . S
H1551 C1581 0.950 . S
C1552 H1534 0.951 . S
C1552 C1553 1.366 . S
C1552 C1554 1.388 . S
C1553 C1552 1.366 . S
C1553 C1557 1.385 . S
C1554 H1535 0.951 . S
C1554 C1552 1.388 . S
C1554 C1555 1.366 . S
C1555 C1554 1.366 . S
C1555 C1556 1.414 . S
C1555 C1558 1.499 . S
C1556 H1536 0.950 . S
C1556 C1555 1.414 . S
C1556 C1557 1.374 . S
C1557 H1537 0.950 . S
C1557 C1553 1.385 . S
C1557 C1556 1.374 . S
C1558 C1555 1.499 . S
C1558 C1559 1.373 . S
C1558 C1560 1.389 . S
C1559 H1538 0.950 . S
C1559 C1558 1.373 . S
C1559 C1575 1.377 . S
C1560 C1558 1.389 . S
C1560 C1561 1.524 . S
C1560 C1574 1.377 . S
C1561 C1560 1.524 . S
C1561 C1562 1.397 . S
C1561 C1566 1.363 . S
C1562 H1539 0.950 . S
C1562 C1561 1.397 . S
C1562 C1563 1.334 . S
C1563 H1540 0.950 . S
C1563 C1562 1.334 . S
C1563 C1564 1.287 . S
C1564 C1563 1.287 . S
C1564 C1565 1.524 . S
C1564 H1583 0.913 . S
C1565 H1541 0.950 . S
C1565 C1564 1.524 . S
C1565 C1566 1.415 . S
C1566 H1542 0.950 . S
C1566 C1561 1.363 . S
C1566 C1565 1.415 . S
C1567 H1543 0.951 . S
C1567 C1568 1.366 . S
C1567 C1569 1.388 . S
C1568 C1567 1.366 . S
C1568 C1572 1.385 . S
C1569 H1544 0.951 . S
C1569 C1567 1.388 . S
C1569 C1570 1.366 . S
C1570 C1569 1.366 . S
C1570 C1571 1.414 . S
C1570 C1573 1.499 . S
C1571 H1545 0.950 . S
C1571 C1570 1.414 . S
C1571 C1572 1.374 . S
C1572 H1546 0.950 . S
C1572 C1568 1.385 . S
C1572 C1571 1.374 . S
C1573 C1570 1.499 . S
C1573 C1574 1.373 . S
C1573 C1575 1.389 . S
C1574 H1547 0.950 . S
C1574 C1560 1.377 . S
C1574 C1573 1.373 . S
C1575 C1559 1.377 . S
C1575 C1573 1.389 . S
C1575 C1576 1.524 . S
C1576 C1575 1.524 . S
C1576 C1577 1.397 . S
C1576 C1581 1.363 . S
C1577 H1548 0.950 . S
C1577 C1576 1.397 . S
C1577 C1578 1.334 . S
C1578 H1549 0.950 . S
C1578 C1577 1.334 . S
C1578 C1579 1.287 . S
C1579 C1578 1.287 . S
C1579 C1580 1.524 . S
C1579 H1582 0.999 . S
C1580 H1550 0.950 . S
C1580 C1579 1.524 . S
C1580 C1581 1.415 . S
C1581 H1551 0.950 . S
C1581 C1576 1.363 . S
C1581 C1580 1.415 . S
H1582 C1579 0.999 . S
H1583 C1564 0.913 . S
H1584 C1602 0.951 . S
H1585 C1604 0.951 . S
H1586 C1606 0.950 . S
H1587 C1607 0.950 . S
H1588 C1609 0.950 . S
H1589 C1612 0.950 . S
H1590 C1613 0.950 . S
H1591 C1615 0.950 . S
H1592 C1616 0.950 . S
H1593 C1617 0.951 . S
H1594 C1619 0.951 . S
H1595 C1621 0.950 . S
H1596 C1622 0.950 . S
H1597 C1624 0.950 . S
H1598 C1627 0.950 . S
H1599 C1628 0.950 . S
H1600 C1630 0.950 . S
H1601 C1631 0.950 . S
C1602 H1584 0.951 . S
C1602 C1603 1.366 . S
C1602 C1604 1.388 . S
C1603 C1602 1.366 . S
C1603 C1607 1.385 . S
C1604 H1585 0.951 . S
C1604 C1602 1.388 . S
C1604 C1605 1.366 . S
C1605 C1604 1.366 . S
C1605 C1606 1.414 . S
C1605 C1608 1.499 . S
C1606 H1586 0.950 . S
C1606 C1605 1.414 . S
C1606 C1607 1.374 . S
C1607 H1587 0.950 . S
C1607 C1603 1.385 . S
C1607 C1606 1.374 . S
C1608 C1605 1.499 . S
C1608 C1609 1.373 . S
C1608 C1610 1.389 . S
C1609 H1588 0.950 . S
C1609 C1608 1.373 . S
C1609 C1625 1.377 . S
C1610 C1608 1.389 . S
C1610 C1611 1.524 . S
C1610 C1624 1.377 . S
C1611 C1610 1.524 . S
C1611 C1612 1.397 . S
C1611 C1616 1.363 . S
C1612 H1589 0.950 . S
C1612 C1611 1.397 . S
C1612 C1613 1.334 . S
C1613 H1590 0.950 . S
C1613 C1612 1.334 . S
C1613 C1614 1.287 . S
C1614 C1613 1.287 . S
C1614 C1615 1.524 . S
C1614 H1633 0.913 . S
C1615 H1591 0.950 . S
C1615 C1614 1.524 . S
C1615 C1616 1.415 . S
C1616 H1592 0.950 . S
C1616 C1611 1.363 . S
C1616 C1615 1.415 . S
C1617 H1593 0.951 . S
C1617 C1618 1.366 . S
C1617 C1619 1.388 . S
C1618 C1617 1.366 . S
C1618 C1622 1.385 . S
C1619 H1594 0.951 . S
C1619 C1617 1.388 . S
C1619 C1620 1.366 . S
C1620 C1619 1.366 . S
C1620 C1621 1.414 . S
C1620 C1623 1.499 . S
C1621 H1595 0.950 . S
C1621 C1620 1.414 . S
C1621 C1622 1.374 . S
C1622 H1596 0.950 . S
C1622 C1618 1.385 . S
C1622 C1621 1.374 . S
C1623 C1620 1.499 . S
C1623 C1624 1.373 . S
C1623 C1625 1.389 . S
C1624 H1597 0.950 . S
C1624 C1610 1.377 . S
C1624 C1623 1.373 . S
C1625 C1609 1.377 . S
C1625 C1623 1.389 . S
C1625 C1626 1.524 . S
C1626 C1625 1.524 . S
C1626 C1627 1.397 . S
C1626 C1631 1.363 . S
C1627 H1598 0.950 . S
C1627 C1626 1.397 . S
C1627 C1628 1.334 . S
C1628 H1599 0.950 . S
C1628 C1627 1.334 . S
C1628 C1629 1.287 . S
C1629 C1628 1.287 . S
C1629 C1630 1.524 . S
C1629 H1632 0.999 . S
C1630 H1600 0.950 . S
C1630 C1629 1.524 . S
C1630 C1631 1.415 . S
C1631 H1601 0.950 . S
C1631 C1626 1.363 . S
C1631 C1630 1.415 . S
H1632 C1629 0.999 . S
H1633 C1614 0.913 . S
H1634 C1652 0.951 . S
H1635 C1654 0.951 . S
H1636 C1656 0.950 . S
H1637 C1657 0.950 . S
H1638 C1659 0.950 . S
H1639 C1662 0.950 . S
H1640 C1663 0.950 . S
H1641 C1665 0.950 . S
H1642 C1666 0.950 . S
H1643 C1667 0.951 . S
H1644 C1669 0.951 . S
H1645 C1671 0.950 . S
H1646 C1672 0.950 . S
H1647 C1674 0.950 . S
H1648 C1677 0.950 . S
H1649 C1678 0.950 . S
H1650 C1680 0.950 . S
H1651 C1681 0.950 . S
C1652 H1634 0.951 . S
C1652 C1653 1.366 . S
C1652 C1654 1.388 . S
C1653 C1652 1.366 . S
C1653 C1657 1.385 . S
C1654 H1635 0.951 . S
C1654 C1652 1.388 . S
C1654 C1655 1.366 . S
C1655 C1654 1.366 . S
C1655 C1656 1.414 . S
C1655 C1658 1.499 . S
C1656 H1636 0.950 . S
C1656 C1655 1.414 . S
C1656 C1657 1.374 . S
C1657 H1637 0.950 . S
C1657 C1653 1.385 . S
C1657 C1656 1.374 . S
C1658 C1655 1.499 . S
C1658 C1659 1.373 . S
C1658 C1660 1.389 . S
C1659 H1638 0.950 . S
C1659 C1658 1.373 . S
C1659 C1675 1.377 . S
C1660 C1658 1.389 . S
C1660 C1661 1.524 . S
C1660 C1674 1.377 . S
C1661 C1660 1.524 . S
C1661 C1662 1.397 . S
C1661 C1666 1.363 . S
C1662 H1639 0.950 . S
C1662 C1661 1.397 . S
C1662 C1663 1.334 . S
C1663 H1640 0.950 . S
C1663 C1662 1.334 . S
C1663 C1664 1.287 . S
C1664 C1663 1.287 . S
C1664 C1665 1.524 . S
C1664 H1683 0.913 . S
C1665 H1641 0.950 . S
C1665 C1664 1.524 . S
C1665 C1666 1.415 . S
C1666 H1642 0.950 . S
C1666 C1661 1.363 . S
C1666 C1665 1.415 . S
C1667 H1643 0.951 . S
C1667 C1668 1.366 . S
C1667 C1669 1.388 . S
C1668 C1667 1.366 . S
C1668 C1672 1.385 . S
C1669 H1644 0.951 . S
C1669 C1667 1.388 . S
C1669 C1670 1.366 . S
C1670 C1669 1.366 . S
C1670 C1671 1.414 . S
C1670 C1673 1.499 . S
C1671 H1645 0.950 . S
C1671 C1670 1.414 . S
C1671 C1672 1.374 . S
C1672 H1646 0.950 . S
C1672 C1668 1.385 . S
C1672 C1671 1.374 . S
C1673 C1670 1.499 . S
C1673 C1674 1.373 . S
C1673 C1675 1.389 . S
C1674 H1647 0.950 . S
C1674 C1660 1.377 . S
C1674 C1673 1.373 . S
C1675 C1659 1.377 . S
C1675 C1673 1.389 . S
C1675 C1676 1.524 . S
C1676 C1675 1.524 . S
C1676 C1677 1.397 . S
C1676 C1681 1.363 . S
C1677 H1648 0.950 . S
C1677 C1676 1.397 . S
C1677 C1678 1.334 . S
C1678 H1649 0.950 . S
C1678 C1677 1.334 . S
C1678 C1679 1.287 . S
C1679 C1678 1.287 . S
C1679 C1680 1.524 . S
C1679 H1682 0.999 . S
C1680 H1650 0.950 . S
C1680 C1679 1.524 . S
C1680 C1681 1.415 . S
C1681 H1651 0.950 . S
C1681 C1676 1.363 . S
C1681 C1680 1.415 . S
H1682 C1679 0.999 . S
H1683 C1664 0.913 . S
H1684 C1702 0.951 . S
H1685 C1704 0.951 . S
H1686 C1706 0.950 . S
H1687 C1707 0.950 . S
H1688 C1709 0.950 . S
H1689 C1712 0.950 . S
H1690 C1713 0.950 . S
H1691 C1715 0.950 . S
H1692 C1716 0.950 . S
H1693 C1717 0.951 . S
H1694 C1719 0.951 . S
H1695 C1721 0.950 . S
H1696 C1722 0.950 . S
H1697 C1724 0.950 . S
H1698 C1727 0.950 . S
H1699 C1728 0.950 . S
H1700 C1730 0.950 . S
H1701 C1731 0.950 . S
C1702 H1684 0.951 . S
C1702 C1703 1.366 . S
C1702 C1704 1.388 . S
C1703 C1702 1.366 . S
C1703 C1707 1.385 . S
C1704 H1685 0.951 . S
C1704 C1702 1.388 . S
C1704 C1705 1.366 . S
C1705 C1704 1.366 . S
C1705 C1706 1.414 . S
C1705 C1708 1.499 . S
C1706 H1686 0.950 . S
C1706 C1705 1.414 . S
C1706 C1707 1.374 . S
C1707 H1687 0.950 . S
C1707 C1703 1.385 . S
C1707 C1706 1.374 . S
C1708 C1705 1.499 . S
C1708 C1709 1.373 . S
C1708 C1710 1.389 . S
C1709 H1688 0.950 . S
C1709 C1708 1.373 . S
C1709 C1725 1.377 . S
C1710 C1708 1.389 . S
C1710 C1711 1.524 . S
C1710 C1724 1.377 . S
C1711 C1710 1.524 . S
C1711 C1712 1.397 . S
C1711 C1716 1.363 . S
C1712 H1689 0.950 . S
C1712 C1711 1.397 . S
C1712 C1713 1.334 . S
C1713 H1690 0.950 . S
C1713 C1712 1.334 . S
C1713 C1714 1.287 . S
C1714 C1713 1.287 . S
C1714 C1715 1.524 . S
C1714 H1733 0.913 . S
C1715 H1691 0.950 . S
C1715 C1714 1.524 . S
C1715 C1716 1.415 . S
C1716 H1692 0.950 . S
C1716 C1711 1.363 . S
C1716 C1715 1.415 . S
C1717 H1693 0.951 . S
C1717 C1718 1.366 . S
C1717 C1719 1.388 . S
C1718 C1717 1.366 . S
C1718 C1722 1.385 . S
C1719 H1694 0.951 . S
C1719 C1717 1.388 . S
C1719 C1720 1.366 . S
C1720 C1719 1.366 . S
C1720 C1721 1.414 . S
C1720 C1723 1.499 . S
C1721 H1695 0.950 . S
C1721 C1720 1.414 . S
C1721 C1722 1.374 . S
C1722 H1696 0.950 . S
C1722 C1718 1.385 . S
C1722 C1721 1.374 . S
C1723 C1720 1.499 . S
C1723 C1724 1.373 . S
C1723 C1725 1.389 . S
C1724 H1697 0.950 . S
C1724 C1710 1.377 . S
C1724 C1723 1.373 . S
C1725 C1709 1.377 . S
C1725 C1723 1.389 . S
C1725 C1726 1.524 . S
C1726 C1725 1.524 . S
C1726 C1727 1.397 . S
C1726 C1731 1.363 . S
C1727 H1698 0.950 . S
C1727 C1726 1.397 . S
C1727 C1728 1.334 . S
C1728 H1699 0.950 . S
C1728 C1727 1.334 . S
C1728 C1729 1.287 . S
C1729 C1728 1.287 . S
C1729 C1730 1.524 . S
C1729 H1732 0.999 . S
C1730 H1700 0.950 . S
C1730 C1729 1.524 . S
C1730 C1731 1.415 . S
C1731 H1701 0.950 . S
C1731 C1726 1.363 . S
C1731 C1730 1.415 . S
H1732 C1729 0.999 . S
H1733 C1714 0.913 . S
H1734 C1752 0.951 . S
H1735 C1754 0.951 . S
H1736 C1756 0.950 . S
H1737 C1757 0.950 . S
H1738 C1759 0.950 . S
H1739 C1762 0.950 . S
H1740 C1763 0.950 . S
H1741 C1765 0.950 . S
H1742 C1766 0.950 . S
H1743 C1767 0.951 . S
H1744 C1769 0.951 . S
H1745 C1771 0.950 . S
H1746 C1772 0.950 . S
H1747 C1774 0.950 . S
H1748 C1777 0.950 . S
H1749 C1778 0.950 . S
H1750 C1780 0.950 . S
H1751 C1781 0.950 . S
C1752 H1734 0.951 . S
C1752 C1753 1.366 . S
C1752 C1754 1.388 . S
C1753 C1752 1.366 . S
C1753 C1757 1.385 . S
C1754 H1735 0.951 . S
C1754 C1752 1.388 . S
C1754 C1755 1.366 . S
C1755 C1754 1.366 . S
C1755 C1756 1.414 . S
C1755 C1758 1.499 . S
C1756 H1736 0.950 . S
C1756 C1755 1.414 . S
C1756 C1757 1.374 . S
C1757 H1737 0.950 . S
C1757 C1753 1.385 . S
C1757 C1756 1.374 . S
C1758 C1755 1.499 . S
C1758 C1759 1.373 . S
C1758 C1760 1.389 . S
C1759 H1738 0.950 . S
C1759 C1758 1.373 . S
C1759 C1775 1.377 . S
C1760 C1758 1.389 . S
C1760 C1761 1.524 . S
C1760 C1774 1.377 . S
C1761 C1760 1.524 . S
C1761 C1762 1.397 . S
C1761 C1766 1.363 . S
C1762 H1739 0.950 . S
C1762 C1761 1.397 . S
C1762 C1763 1.334 . S
C1763 H1740 0.950 . S
C1763 C1762 1.334 . S
C1763 C1764 1.287 . S
C1764 C1763 1.287 . S
C1764 C1765 1.524 . S
C1764 H1783 0.913 . S
C1765 H1741 0.950 . S
C1765 C1764 1.524 . S
C1765 C1766 1.415 . S
C1766 H1742 0.950 . S
C1766 C1761 1.363 . S
C1766 C1765 1.415 . S
C1767 H1743 0.951 . S
C1767 C1768 1.366 . S
C1767 C1769 1.388 . S
C1768 C1767 1.366 . S
C1768 C1772 1.385 . S
C1769 H1744 0.951 . S
C1769 C1767 1.388 . S
C1769 C1770 1.366 . S
C1770 C1769 1.366 . S
C1770 C1771 1.414 . S
C1770 C1773 1.499 . S
C1771 H1745 0.950 . S
C1771 C1770 1.414 . S
C1771 C1772 1.374 . S
C1772 H1746 0.950 . S
C1772 C1768 1.385 . S
C1772 C1771 1.374 . S
C1773 C1770 1.499 . S
C1773 C1774 1.373 . S
C1773 C1775 1.389 . S
C1774 H1747 0.950 . S
C1774 C1760 1.377 . S
C1774 C1773 1.373 . S
C1775 C1759 1.377 . S
C1775 C1773 1.389 . S
C1775 C1776 1.524 . S
C1776 C1775 1.524 . S
C1776 C1777 1.397 . S
C1776 C1781 1.363 . S
C1777 H1748 0.950 . S
C1777 C1776 1.397 . S
C1777 C1778 1.334 . S
C1778 H1749 0.950 . S
C1778 C1777 1.334 . S
C1778 C1779 1.287 . S
C1779 C1778 1.287 . S
C1779 C1780 1.524 . S
C1779 H1782 0.999 . S
C1780 H1750 0.950 . S
C1780 C1779 1.524 . S
C1780 C1781 1.415 . S
C1781 H1751 0.950 . S
C1781 C1776 1.363 . S
C1781 C1780 1.415 . S
H1782 C1779 0.999 . S
H1783 C1764 0.913 . S
H1784 C1802 0.951 . S
H1785 C1804 0.951 . S
H1786 C1806 0.950 . S
H1787 C1807 0.950 . S
H1788 C1809 0.950 . S
H1789 C1812 0.950 . S
H1790 C1813 0.950 . S
H1791 C1815 0.950 . S
H1792 C1816 0.950 . S
H1793 C1817 0.951 . S
H1794 C1819 0.951 . S
H1795 C1821 0.950 . S
H1796 C1822 0.950 . S
H1797 C1824 0.950 . S
H1798 C1827 0.950 . S
H1799 C1828 0.950 . S
H1800 C1830 0.950 . S
H1801 C1831 0.950 . S
C1802 H1784 0.951 . S
C1802 C1803 1.366 . S
C1802 C1804 1.388 . S
C1803 C1802 1.366 . S
C1803 C1807 1.385 . S
C1804 H1785 0.951 . S
C1804 C1802 1.388 . S
C1804 C1805 1.366 . S
C1805 C1804 1.366 . S
C1805 C1806 1.414 . S
C1805 C1808 1.499 . S
C1806 H1786 0.950 . S
C1806 C1805 1.414 . S
C1806 C1807 1.374 . S
C1807 H1787 0.950 . S
C1807 C1803 1.385 . S
C1807 C1806 1.374 . S
C1808 C1805 1.499 . S
C1808 C1809 1.373 . S
C1808 C1810 1.389 . S
C1809 H1788 0.950 . S
C1809 C1808 1.373 . S
C1809 C1825 1.377 . S
C1810 C1808 1.389 . S
C1810 C1811 1.524 . S
C1810 C1824 1.377 . S
C1811 C1810 1.524 . S
C1811 C1812 1.397 . S
C1811 C1816 1.363 . S
C1812 H1789 0.950 . S
C1812 C1811 1.397 . S
C1812 C1813 1.334 . S
C1813 H1790 0.950 . S
C1813 C1812 1.334 . S
C1813 C1814 1.287 . S
C1814 C1813 1.287 . S
C1814 C1815 1.524 . S
C1814 H1833 0.913 . S
C1815 H1791 0.950 . S
C1815 C1814 1.524 . S
C1815 C1816 1.415 . S
C1816 H1792 0.950 . S
C1816 C1811 1.363 . S
C1816 C1815 1.415 . S
C1817 H1793 0.951 . S
C1817 C1818 1.366 . S
C1817 C1819 1.388 . S
C1818 C1817 1.366 . S
C1818 C1822 1.385 . S
C1819 H1794 0.951 . S
C1819 C1817 1.388 . S
C1819 C1820 1.366 . S
C1820 C1819 1.366 . S
C1820 C1821 1.414 . S
C1820 C1823 1.499 . S
C1821 H1795 0.950 . S
C1821 C1820 1.414 . S
C1821 C1822 1.374 . S
C1822 H1796 0.950 . S
C1822 C1818 1.385 . S
C1822 C1821 1.374 . S
C1823 C1820 1.499 . S
C1823 C1824 1.373 . S
C1823 C1825 1.389 . S
C1824 H1797 0.950 . S
C1824 C1810 1.377 . S
C1824 C1823 1.373 . S
C1825 C1809 1.377 . S
C1825 C1823 1.389 . S
C1825 C1826 1.524 . S
C1826 C1825 1.524 . S
C1826 C1827 1.397 . S
C1826 C1831 1.363 . S
C1827 H1798 0.950 . S
C1827 C1826 1.397 . S
C1827 C1828 1.334 . S
C1828 H1799 0.950 . S
C1828 C1827 1.334 . S
C1828 C1829 1.287 . S
C1829 C1828 1.287 . S
C1829 C1830 1.524 . S
C1829 H1832 0.999 . S
C1830 H1800 0.950 . S
C1830 C1829 1.524 . S
C1830 C1831 1.415 . S
C1831 H1801 0.950 . S
C1831 C1826 1.363 . S
C1831 C1830 1.415 . S
H1832 C1829 0.999 . S
H1833 C1814 0.913 . S
H1834 C1852 0.951 . S
H1835 C1854 0.951 . S
H1836 C1856 0.950 . S
H1837 C1857 0.950 . S
H1838 C1859 0.950 . S
H1839 C1862 0.950 . S
H1840 C1863 0.950 . S
H1841 C1865 0.950 . S
H1842 C1866 0.950 . S
H1843 C1867 0.951 . S
H1844 C1869 0.951 . S
H1845 C1871 0.950 . S
H1846 C1872 0.950 . S
H1847 C1874 0.950 . S
H1848 C1877 0.950 . S
H1849 C1878 0.950 . S
H1850 C1880 0.950 . S
H1851 C1881 0.950 . S
C1852 H1834 0.951 . S
C1852 C1853 1.366 . S
C1852 C1854 1.388 . S
C1853 C1852 1.366 . S
C1853 C1857 1.385 . S
C1854 H1835 0.951 . S
C1854 C1852 1.388 . S
C1854 C1855 1.366 . S
C1855 C1854 1.366 . S
C1855 C1856 1.414 . S
C1855 C1858 1.499 . S
C1856 H1836 0.950 . S
C1856 C1855 1.414 . S
C1856 C1857 1.374 . S
C1857 H1837 0.950 . S
C1857 C1853 1.385 . S
C1857 C1856 1.374 . S
C1858 C1855 1.499 . S
C1858 C1859 1.373 . S
C1858 C1860 1.389 . S
C1859 H1838 0.950 . S
C1859 C1858 1.373 . S
C1859 C1875 1.377 . S
C1860 C1858 1.389 . S
C1860 C1861 1.524 . S
C1860 C1874 1.377 . S
C1861 C1860 1.524 . S
C1861 C1862 1.397 . S
C1861 C1866 1.363 . S
C1862 H1839 0.950 . S
C1862 C1861 1.397 . S
C1862 C1863 1.334 . S
C1863 H1840 0.950 . S
C1863 C1862 1.334 . S
C1863 C1864 1.287 . S
C1864 C1863 1.287 . S
C1864 C1865 1.524 . S
C1864 H1883 0.913 . S
C1865 H1841 0.950 . S
C1865 C1864 1.524 . S
C1865 C1866 1.415 . S
C1866 H1842 0.950 . S
C1866 C1861 1.363 . S
C1866 C1865 1.415 . S
C1867 H1843 0.951 . S
C1867 C1868 1.366 . S
C1867 C1869 1.388 . S
C1868 C1867 1.366 . S
C1868 C1872 1.385 . S
C1869 H1844 0.951 . S
C1869 C1867 1.388 . S
C1869 C1870 1.366 . S
C1870 C1869 1.366 . S
C1870 C1871 1.414 . S
C1870 C1873 1.499 . S
C1871 H1845 0.950 . S
C1871 C1870 1.414 . S
C1871 C1872 1.374 . S
C1872 H1846 0.950 . S
C1872 C1868 1.385 . S
C1872 C1871 1.374 . S
C1873 C1870 1.499 . S
C1873 C1874 1.373 . S
C1873 C1875 1.389 . S
C1874 H1847 0.950 . S
C1874 C1860 1.377 . S
C1874 C1873 1.373 . S
C1875 C1859 1.377 . S
C1875 C1873 1.389 . S
C1875 C1876 1.524 . S
C1876 C1875 1.524 . S
C1876 C1877 1.397 . S
C1876 C1881 1.363 . S
C1877 H1848 0.950 . S
C1877 C1876 1.397 . S
C1877 C1878 1.334 . S
C1878 H1849 0.950 . S
C1878 C1877 1.334 . S
C1878 C1879 1.287 . S
C1879 C1878 1.287 . S
C1879 C1880 1.524 . S
C1879 H1882 0.999 . S
C1880 H1850 0.950 . S
C1880 C1879 1.524 . S
C1880 C1881 1.415 . S
C1881 H1851 0.950 . S
C1881 C1876 1.363 . S
C1881 C1880 1.415 . S
H1882 C1879 0.999 . S
H1883 C1864 0.913 . S
H1884 C1902 0.951 . S
H1885 C1904 0.951 . S
H1886 C1906 0.950 . S
H1887 C1907 0.950 . S
H1888 C1909 0.950 . S
H1889 C1912 0.950 . S
H1890 C1913 0.950 . S
H1891 C1915 0.950 . S
H1892 C1916 0.950 . S
H1893 C1917 0.951 . S
H1894 C1919 0.951 . S
H1895 C1921 0.950 . S
H1896 C1922 0.950 . S
H1897 C1924 0.950 . S
H1898 C1927 0.950 . S
H1899 C1928 0.950 . S
H1900 C1930 0.950 . S
H1901 C1931 0.950 . S
C1902 H1884 0.951 . S
C1902 C1903 1.366 . S
C1902 C1904 1.388 . S
C1903 C1902 1.366 . S
C1903 C1907 1.385 . S
C1904 H1885 0.951 . S
C1904 C1902 1.388 . S
C1904 C1905 1.366 . S
C1905 C1904 1.366 . S
C1905 C1906 1.414 . S
C1905 C1908 1.499 . S
C1906 H1886 0.950 . S
C1906 C1905 1.414 . S
C1906 C1907 1.374 . S
C1907 H1887 0.950 . S
C1907 C1903 1.385 . S
C1907 C1906 1.374 . S
C1908 C1905 1.499 . S
C1908 C1909 1.373 . S
C1908 C1910 1.389 . S
C1909 H1888 0.950 . S
C1909 C1908 1.373 . S
C1909 C1925 1.377 . S
C1910 C1908 1.389 . S
C1910 C1911 1.524 . S
C1910 C1924 1.377 . S
C1911 C1910 1.524 . S
C1911 C1912 1.397 . S
C1911 C1916 1.363 . S
C1912 H1889 0.950 . S
C1912 C1911 1.397 . S
C1912 C1913 1.334 . S
C1913 H1890 0.950 . S
C1913 C1912 1.334 . S
C1913 C1914 1.287 . S
C1914 C1913 1.287 . S
C1914 C1915 1.524 . S
C1914 H1933 0.913 . S
C1915 H1891 0.950 . S
C1915 C1914 1.524 . S
C1915 C1916 1.415 . S
C1916 H1892 0.950 . S
C1916 C1911 1.363 . S
C1916 C1915 1.415 . S
C1917 H1893 0.951 . S
C1917 C1918 1.366 . S
C1917 C1919 1.388 . S
C1918 C1917 1.366 . S
C1918 C1922 1.385 . S
C1919 H1894 0.951 . S
C1919 C1917 1.388 . S
C1919 C1920 1.366 . S
C1920 C1919 1.366 . S
C1920 C1921 1.414 . S
C1920 C1923 1.499 . S
C1921 H1895 0.950 . S
C1921 C1920 1.414 . S
C1921 C1922 1.374 . S
C1922 H1896 0.950 . S
C1922 C1918 1.385 . S
C1922 C1921 1.374 . S
C1923 C1920 1.499 . S
C1923 C1924 1.373 . S
C1923 C1925 1.389 . S
C1924 H1897 0.950 . S
C1924 C1910 1.377 . S
C1924 C1923 1.373 . S
C1925 C1909 1.377 . S
C1925 C1923 1.389 . S
C1925 C1926 1.524 . S
C1926 C1925 1.524 . S
C1926 C1927 1.397 . S
C1926 C1931 1.363 . S
C1927 H1898 0.950 . S
C1927 C1926 1.397 . S
C1927 C1928 1.334 . S
C1928 H1899 0.950 . S
C1928 C1927 1.334 . S
C1928 C1929 1.287 . S
C1929 C1928 1.287 . S
C1929 C1930 1.524 . S
C1929 H1932 0.999 . S
C1930 H1900 0.950 . S
C1930 C1929 1.524 . S
C1930 C1931 1.415 . S
C1931 H1901 0.950 . S
C1931 C1926 1.363 . S
C1931 C1930 1.415 . S
H1932 C1929 0.999 . S
H1933 C1914 0.913 . S
H1934 C1952 0.951 . S
H1935 C1954 0.951 . S
H1936 C1956 0.950 . S
H1937 C1957 0.950 . S
H1938 C1959 0.950 . S
H1939 C1962 0.950 . S
H1940 C1963 0.950 . S
H1941 C1965 0.950 . S
H1942 C1966 0.950 . S
H1943 C1967 0.951 . S
H1944 C1969 0.951 . S
H1945 C1971 0.950 . S
H1946 C1972 0.950 . S
H1947 C1974 0.950 . S
H1948 C1977 0.950 . S
H1949 C1978 0.950 . S
H1950 C1980 0.950 . S
H1951 C1981 0.950 . S
C1952 H1934 0.951 . S
C1952 C1953 1.366 . S
C1952 C1954 1.388 . S
C1953 C1952 1.366 . S
C1953 C1957 1.385 . S
C1954 H1935 0.951 . S
C1954 C1952 1.388 . S
C1954 C1955 1.366 . S
C1955 C1954 1.366 . S
C1955 C1956 1.414 . S
C1955 C1958 1.499 . S
C1956 H1936 0.950 . S
C1956 C1955 1.414 . S
C1956 C1957 1.374 . S
C1957 H1937 0.950 . S
C1957 C1953 1.385 . S
C1957 C1956 1.374 . S
C1958 C1955 1.499 . S
C1958 C1959 1.373 . S
C1958 C1960 1.389 . S
C1959 H1938 0.950 . S
C1959 C1958 1.373 . S
C1959 C1975 1.377 . S
C1960 C1958 1.389 . S
C1960 C1961 1.524 . S
C1960 C1974 1.377 . S
C1961 C1960 1.524 . S
C1961 C1962 1.397 . S
C1961 C1966 1.363 . S
C1962 H1939 0.950 . S
C1962 C1961 1.397 . S
C1962 C1963 1.334 . S
C1963 H1940 0.950 . S
C1963 C1962 1.334 . S
C1963 C1964 1.287 . S
C1964 C1963 1.287 . S
C1964 C1965 1.524 . S
C1964 H1983 0.913 . S
C1965 H1941 0.950 . S
C1965 C1964 1.524 . S
C1965 C1966 1.415 . S
C1966 H1942 0.950 . S
C1966 C1961 1.363 . S
C1966 C1965 1.415 . S
C1967 H1943 0.951 . S
C1967 C1968 1.366 . S
C1967 C1969 1.388 . S
C1968 C1967 1.366 . S
C1968 C1972 1.385 . S
C1969 H1944 0.951 . S
C1969 C1967 1.388 . S
C1969 C1970 1.366 . S
C1970 C1969 1.366 . S
C1970 C1971 1.414 . S
C1970 C1973 1.499 . S
C1971 H1945 0.950 . S
C1971 C1970 1.414 . S
C1971 C1972 1.374 . S
C1972 H1946 0.950 . S
C1972 C1968 1.385 . S
C1972 C1971 1.374 . S
C1973 C1970 1.499 . S
C1973 C1974 1.373 . S
C1973 C1975 1.389 . S
C1974 H1947 0.950 . S
C1974 C1960 1.377 . S
C1974 C1973 1.373 . S
C1975 C1959 1.377 . S
C1975 C1973 1.389 . S
C1975 C1976 1.524 . S
C1976 C1975 1.524 . S
C1976 C1977 1.397 . S
C1976 C1981 1.363 . S
C1977 H1948 0.950 . S
C1977 C1976 1.397 . S
C1977 C1978 1.334 . S
C1978 H1949 0.950 . S
C1978 C1977 1.334 . S
C1978 C1979 1.287 . S
C1979 C1978 1.287 . S
C1979 C1980 1.524 . S
C1979 H1982 0.999 . S
C1980 H1950 0.950 . S
C1980 C1979 1.524 . S
C1980 C1981 1.415 . S
C1981 H1951 0.950 . S
C1981 C1976 1.363 . S
C1981 C1980 1.415 . S
H1982 C1979 0.999 . S
H1983 C1964 0.913 . S
H1984 C2002 0.951 . S
H1985 C2004 0.951 . S
H1986 C2006 0.950 . S
H1987 C2007 0.950 . S
H1988 C2009 0.950 . S
H1989 C2012 0.950 . S
H1990 C2013 0.950 . S
H1991 C2015 0.950 . S
H1992 C2016 0.950 . S
H1993 C2017 0.951 . S
H1994 C2019 0.951 . S
H1995 C2021 0.950 . S
H1996 C2022 0.950 . S
H1997 C2024 0.950 . S
H1998 C2027 0.950 . S
H1999 C2028 0.950 . S
H2000 C2030 0.950 . S
H2001 C2031 0.950 . S
C2002 H1984 0.951 . S
C2002 C2003 1.366 . S
C2002 C2004 1.388 . S
C2003 C2002 1.366 . S
C2003 C2007 1.385 . S
C2004 H1985 0.951 . S
C2004 C2002 1.388 . S
C2004 C2005 1.366 . S
C2005 C2004 1.366 . S
C2005 C2006 1.414 . S
C2005 C2008 1.499 . S
C2006 H1986 0.950 . S
C2006 C2005 1.414 . S
C2006 C2007 1.374 . S
C2007 H1987 0.950 . S
C2007 C2003 1.385 . S
C2007 C2006 1.374 . S
C2008 C2005 1.499 . S
C2008 C2009 1.373 . S
C2008 C2010 1.389 . S
C2009 H1988 0.950 . S
C2009 C2008 1.373 . S
C2009 C2025 1.377 . S
C2010 C2008 1.389 . S
C2010 C2011 1.524 . S
C2010 C2024 1.377 . S
C2011 C2010 1.524 . S
C2011 C2012 1.397 . S
C2011 C2016 1.363 . S
C2012 H1989 0.950 . S
C2012 C2011 1.397 . S
C2012 C2013 1.334 . S
C2013 H1990 0.950 . S
C2013 C2012 1.334 . S
C2013 C2014 1.287 . S
C2014 C2013 1.287 . S
C2014 C2015 1.524 . S
C2014 H2033 0.913 . S
C2015 H1991 0.950 . S
C2015 C2014 1.524 . S
C2015 C2016 1.415 . S
C2016 H1992 0.950 . S
C2016 C2011 1.363 . S
C2016 C2015 1.415 . S
C2017 H1993 0.951 . S
C2017 C2018 1.366 . S
C2017 C2019 1.388 . S
C2018 C2017 1.366 . S
C2018 C2022 1.385 . S
C2019 H1994 0.951 . S
C2019 C2017 1.388 . S
C2019 C2020 1.366 . S
C2020 C2019 1.366 . S
C2020 C2021 1.414 . S
C2020 C2023 1.499 . S
C2021 H1995 0.950 . S
C2021 C2020 1.414 . S
C2021 C2022 1.374 . S
C2022 H1996 0.950 . S
C2022 C2018 1.385 . S
C2022 C2021 1.374 . S
C2023 C2020 1.499 . S
C2023 C2024 1.373 . S
C2023 C2025 1.389 . S
C2024 H1997 0.950 . S
C2024 C2010 1.377 . S
C2024 C2023 1.373 . S
C2025 C2009 1.377 . S
C2025 C2023 1.389 . S
C2025 C2026 1.524 . S
C2026 C2025 1.524 . S
C2026 C2027 1.397 . S
C2026 C2031 1.363 . S
C2027 H1998 0.950 . S
C2027 C2026 1.397 . S
C2027 C2028 1.334 . S
C2028 H1999 0.950 . S
C2028 C2027 1.334 . S
C2028 C2029 1.287 . S
C2029 C2028 1.287 . S
C2029 C2030 1.524 . S
C2029 H2032 0.999 . S
C2030 H2000 0.950 . S
C2030 C2029 1.524 . S
C2030 C2031 1.415 . S
C2031 H2001 0.950 . S
C2031 C2026 1.363 . S
C2031 C2030 1.415 . S
H2032 C2029 0.999 . S
H2033 C2014 0.913 . S
C253 C221 1.918 . S
C268 C0 1.917 . S
C303 C195 1.917 . S
C318 C13 1.918 . S
C353 C208 1.917 . S
C368 C26 1.918 . S
C403 C91 1.918 . S
C418 C39 1.917 . S
C453 C104 1.917 . S
C468 C52 1.918 . S
C503 C65 1.917 . S
C518 C78 1.918 . S
C553 C117 1.917 . S
C568 C169 1.918 . S
C603 C130 1.917 . S
C618 C182 1.918 . S
C653 C143 1.917 . S
C668 C156 1.918 . S
C703 C5 0.682 . S
C718 C226 0.681 . S
C753 C200 0.680 . S
C768 C18 0.681 . S
C803 C31 0.681 . S
C818 C213 0.680 . S
C853 C96 0.681 . S
C868 C44 0.680 . S
C903 C57 0.680 . S
C918 C109 0.681 . S
C953 C70 0.681 . S
C968 C83 0.681 . S
C1003 C122 0.680 . S
C1018 C174 0.681 . S
C1053 C187 0.680 . S
C1068 C135 0.681 . S
C1103 C161 0.680 . S
C1118 C148 0.681 . S
C1153 C10 1.449 . S
C1168 C49 1.450 . S
C1203 C62 1.450 . S
C1218 C23 1.449 . S
C1253 C75 1.449 . S
C1268 C36 1.449 . S
C1303 C73 1.407 . S
C1318 C21 1.407 . S
C1353 C34 1.407 . S
C1368 C47 1.407 . S
C1403 C60 1.407 . S
C1418 C8 1.408 . S
C1453 C88 1.449 . S
C1468 C127 1.449 . S
C1503 C140 1.450 . S
C1518 C101 1.450 . S
C1553 C153 1.449 . S
C1568 C114 1.449 . S
C1603 C151 1.407 . S
C1618 C99 1.407 . S
C1653 C112 1.407 . S
C1668 C125 1.407 . S
C1703 C138 1.407 . S
C1718 C86 1.408 . S
C1753 C205 1.449 . S
C1768 C166 1.450 . S
C1803 C218 1.449 . S
C1818 C179 1.450 . S
C1853 C192 1.449 . S
C1868 C231 1.449 . S
C1903 C229 1.408 . S
C1918 C177 1.407 . S
C1953 C190 1.407 . S
C1968 C203 1.407 . S
C2003 C216 1.407 . S
C2018 C164 1.408 . S
