# Generated by pormake.
# Topology wji, (4)-cn, num edge types: 1
# Building blocks:
#     Node 0, Type 0, BuildingBlock: AZAVOO_clean_sbu_0, # of connection points: 4
#     Node 1, Type 0, BuildingBlock: AZAVOO_clean_sbu_0, # of connection points: 4
#     Node 2, Type 0, BuildingBlock: AZAVOO_clean_sbu_0, # of connection points: 4
#     Node 3, Type 0, BuildingBlock: AZAVOO_clean_sbu_0, # of connection points: 4
#     Node 4, Type 0, BuildingBlock: AZAVOO_clean_sbu_0, # of connection points: 4
#     Node 5, Type 0, BuildingBlock: AZAVOO_clean_sbu_0, # of connection points: 4
#     Node 6, Type 0, BuildingBlock: AZAVOO_clean_sbu_0, # of connection points: 4
#     Node 7, Type 0, BuildingBlock: AZAVOO_clean_sbu_0, # of connection points: 4
#     Node 8, Type 0, BuildingBlock: AZAVOO_clean_sbu_0, # of connection points: 4
#     Node 9, Type 0, BuildingBlock: AZAVOO_clean_sbu_0, # of connection points: 4
#     Node 10, Type 0, BuildingBlock: AZAVOO_clean_sbu_0, # of connection points: 4
#     Node 11, Type 0, BuildingBlock: AZAVOO_clean_sbu_0, # of connection points: 4
#     Edge 12, Type (0, 0), BuildingBlock: XIVTED_clean_linker_0, # of connection points: 2
#     Edge 13, Type (0, 0), BuildingBlock: XIVTED_clean_linker_0, # of connection points: 2
#     Edge 14, Type (0, 0), BuildingBlock: XIVTED_clean_linker_0, # of connection points: 2
#     Edge 15, Type (0, 0), BuildingBlock: XIVTED_clean_linker_0, # of connection points: 2
#     Edge 16, Type (0, 0), BuildingBlock: XIVTED_clean_linker_0, # of connection points: 2
#     Edge 17, Type (0, 0), BuildingBlock: XIVTED_clean_linker_0, # of connection points: 2
#     Edge 18, Type (0, 0), BuildingBlock: XIVTED_clean_linker_0, # of connection points: 2
#     Edge 19, Type (0, 0), BuildingBlock: XIVTED_clean_linker_0, # of connection points: 2
#     Edge 20, Type (0, 0), BuildingBlock: XIVTED_clean_linker_0, # of connection points: 2
#     Edge 21, Type (0, 0), BuildingBlock: XIVTED_clean_linker_0, # of connection points: 2
#     Edge 22, Type (0, 0), BuildingBlock: XIVTED_clean_linker_0, # of connection points: 2
#     Edge 23, Type (0, 0), BuildingBlock: XIVTED_clean_linker_0, # of connection points: 2
#     Edge 24, Type (0, 0), BuildingBlock: XIVTED_clean_linker_0, # of connection points: 2
#     Edge 25, Type (0, 0), BuildingBlock: XIVTED_clean_linker_0, # of connection points: 2
#     Edge 26, Type (0, 0), BuildingBlock: XIVTED_clean_linker_0, # of connection points: 2
#     Edge 27, Type (0, 0), BuildingBlock: XIVTED_clean_linker_0, # of connection points: 2
#     Edge 28, Type (0, 0), BuildingBlock: XIVTED_clean_linker_0, # of connection points: 2
#     Edge 29, Type (0, 0), BuildingBlock: XIVTED_clean_linker_0, # of connection points: 2
#     Edge 30, Type (0, 0), BuildingBlock: XIVTED_clean_linker_0, # of connection points: 2
#     Edge 31, Type (0, 0), BuildingBlock: XIVTED_clean_linker_0, # of connection points: 2
#     Edge 32, Type (0, 0), BuildingBlock: XIVTED_clean_linker_0, # of connection points: 2
#     Edge 33, Type (0, 0), BuildingBlock: XIVTED_clean_linker_0, # of connection points: 2
#     Edge 34, Type (0, 0), BuildingBlock: XIVTED_clean_linker_0, # of connection points: 2
#     Edge 35, Type (0, 0), BuildingBlock: XIVTED_clean_linker_0, # of connection points: 2
# Relax obj value: 0.176
# Max RMSD: 0.105
# Mean RMSD: 0.105
data_MOF--net-wji--node1-AZAVOO_clean_sbu_0--edge1-XIVTED_clean_linker_0
_symmetry_space_group_name_H-M    P1
_symmetry_Int_Tables_number       1
_symmetry_cell_setting            triclinic
loop_
_symmetry_equiv_pos_as_xyz
'x, y, z'
_cell_length_a     58.374935
_cell_length_b     58.367345
_cell_length_c     21.81096
_cell_angle_alpha  89.970979
_cell_angle_beta   90.034759
_cell_angle_gamma 120.00067
loop_
_atom_site_label
_atom_site_type_symbol
_atom_site_fract_x
_atom_site_fract_y
_atom_site_fract_z
_atom_type_partial_charge
Mg0 Mg 0.40621 0.31279 0.37131 0.0
O1 O 0.38863 0.32639 0.44728 0.0
O2 O 0.3839 0.35965 0.41122 0.0
Mg3 Mg 0.39735 0.36636 0.31055 0.0
C4 C 0.38189 0.34394 0.45442 0.0
C5 C 0.42176 0.273 0.4239 0.0
O6 O 0.42331 0.26947 0.36489 0.0
O7 O 0.44623 0.35002 0.38659 0.0
O8 O 0.44031 0.38113 0.34121 0.0
O9 O 0.36554 0.28388 0.33628 0.0
O10 O 0.38943 0.32556 0.30623 0.0
C11 C 0.45495 0.37379 0.36856 0.0
C12 C 0.36746 0.30353 0.30463 0.0
O13 O 0.4155 0.28989 0.44145 0.0
Mg14 Mg 0.09592 0.41207 0.54859 0.0
O15 O 0.06588 0.39256 0.62697 0.0
O16 O 0.02544 0.37991 0.59077 0.0
Mg17 Mg 0.0297 0.3923 0.48999 0.0
C18 C 0.04089 0.38187 0.63448 0.0
C19 C 0.15227 0.43186 0.59804 0.0
O20 O 0.1557 0.4299 0.53915 0.0
O21 O 0.09295 0.44943 0.56032 0.0
O22 O 0.05255 0.43549 0.52189 0.0
O23 O 0.08902 0.37236 0.51642 0.0
O24 O 0.06665 0.39154 0.48478 0.0
C25 C 0.07406 0.4535 0.54584 0.0
C26 C 0.06998 0.37143 0.4841 0.0
O27 O 0.12953 0.42637 0.61713 0.0
Mg28 Mg 0.68532 0.09222 0.70568 0.0
O29 O 0.67185 0.06041 0.77993 0.0
O30 O 0.64054 0.02197 0.7411 0.0
Mg31 Mg 0.63489 0.02928 0.63999 0.0
C32 C 0.65517 0.03578 0.78562 0.0
C33 C 0.72551 0.14605 0.76229 0.0
O34 O 0.73235 0.15022 0.7042 0.0
O35 O 0.64672 0.09275 0.71807 0.0
O36 O 0.61767 0.05546 0.66991 0.0
O37 O 0.71603 0.0825 0.67316 0.0
O38 O 0.67487 0.06373 0.63878 0.0
C39 C 0.62347 0.07691 0.69802 0.0
C40 C 0.69742 0.06487 0.63908 0.0
O41 O 0.70612 0.12386 0.77815 0.0
Mg42 Mg 0.59083 0.68608 0.88752 0.0
O43 O 0.60855 0.67383 0.96672 0.0
O44 O 0.6211 0.64601 0.9304 0.0
Mg45 Mg 0.61057 0.6397 0.8283 0.0
C46 C 0.61865 0.65902 0.97448 0.0
C47 C 0.56947 0.72136 0.93836 0.0
O48 O 0.57055 0.72668 0.87954 0.0
O49 O 0.55283 0.64583 0.89496 0.0
O50 O 0.567 0.61967 0.85595 0.0
O51 O 0.63155 0.71879 0.85931 0.0
O52 O 0.6119 0.67771 0.82463 0.0
C53 C 0.54874 0.62301 0.87885 0.0
C54 C 0.63242 0.70085 0.82622 0.0
O55 O 0.57605 0.70477 0.95644 0.0
Mg56 Mg 0.90349 0.5876 0.04067 0.0
O57 O 0.93514 0.6062 0.11523 0.0
O58 O 0.97255 0.60962 0.07948 0.0
Mg59 Mg 0.9647 0.59375 0.98038 0.0
C60 C 0.95936 0.61271 0.12219 0.0
C61 C 0.85713 0.59084 0.09105 0.0
O62 O 0.86153 0.60193 0.03665 0.0
O63 O 0.89951 0.54727 0.06183 0.0
O64 O 0.93602 0.5519 0.01617 0.0
O65 O 0.91662 0.62777 0.00016 0.0
O66 O 0.93173 0.60139 0.97181 0.0
C67 C 0.91424 0.538 0.04484 0.0
C68 C 0.9323 0.62358 0.96619 0.0
O69 O 0.87162 0.58163 0.10916 0.0
Mg70 Mg 0.31355 0.90255 0.2014 0.0
O71 O 0.32409 0.93378 0.27666 0.0
O72 O 0.35153 0.97382 0.23801 0.0
Mg73 Mg 0.35955 0.968 0.13818 0.0
C74 C 0.33819 0.95886 0.28252 0.0
C75 C 0.27748 0.84697 0.25617 0.0
O76 O 0.27224 0.84217 0.19744 0.0
O77 O 0.35408 0.90614 0.21499 0.0
O78 O 0.3803 0.94613 0.17421 0.0
O79 O 0.28057 0.90877 0.16727 0.0
O80 O 0.32203 0.93072 0.13482 0.0
C81 C 0.37699 0.92506 0.20025 0.0
C82 C 0.29855 0.9273 0.13366 0.0
O83 O 0.29447 0.87019 0.27308 0.0
Mg84 Mg 0.68329 0.58448 0.4708 0.0
O85 O 0.66919 0.60301 0.39869 0.0
O86 O 0.63617 0.60756 0.43625 0.0
Mg87 Mg 0.62941 0.59164 0.5354 0.0
C88 C 0.65188 0.61007 0.39267 0.0
C89 C 0.72248 0.59713 0.36376 0.0
O90 O 0.72271 0.61966 0.36909 0.0
O91 O 0.64636 0.54441 0.45148 0.0
O92 O 0.61518 0.5497 0.49871 0.0
O93 O 0.71119 0.62466 0.5099 0.0
O94 O 0.67 0.59871 0.54091 0.0
C95 C 0.62252 0.53553 0.4693 0.0
C96 C 0.69177 0.62084 0.54516 0.0
O97 O 0.70754 0.57796 0.39861 0.0
Mg98 Mg 0.09823 0.68642 0.62346 0.0
O99 O 0.06765 0.67512 0.54599 0.0
O100 O 0.02727 0.64845 0.58375 0.0
Mg101 Mg 0.03221 0.64139 0.68503 0.0
C102 C 0.04261 0.66114 0.5392 0.0
C103 C 0.15345 0.72385 0.57093 0.0
O104 O 0.15659 0.73076 0.62899 0.0
O105 O 0.09472 0.64565 0.61393 0.0
O106 O 0.05436 0.62036 0.65375 0.0
O107 O 0.0914 0.71962 0.65345 0.0
O108 O 0.06972 0.67861 0.68867 0.0
C109 C 0.07551 0.62304 0.62963 0.0
C110 C 0.07295 0.702 0.68785 0.0
O111 O 0.13122 0.70504 0.55323 0.0
Mg112 Mg 0.41158 0.09376 0.78547 0.0
O113 O 0.39261 0.06276 0.70946 0.0
O114 O 0.38531 0.02391 0.74619 0.0
Mg115 Mg 0.39864 0.02997 0.8469 0.0
C116 C 0.38439 0.03812 0.70269 0.0
C117 C 0.42294 0.14737 0.73377 0.0
O118 O 0.41818 0.14944 0.79178 0.0
O119 O 0.45044 0.09396 0.77048 0.0
O120 O 0.44196 0.05618 0.8166 0.0
O121 O 0.37144 0.08424 0.81983 0.0
O122 O 0.39338 0.0645 0.85076 0.0
C123 C 0.45768 0.07778 0.78912 0.0
C124 C 0.37214 0.06594 0.85186 0.0
O125 O 0.42244 0.12645 0.7157 0.0
Mg126 Mg 0.3155 0.41478 0.95657 0.0
O127 O 0.32495 0.39399 0.87931 0.0
O128 O 0.35178 0.38022 0.91604 0.0
Mg129 Mg 0.36035 0.39314 0.01639 0.0
C130 C 0.33854 0.38252 0.87221 0.0
C131 C 0.2799 0.43541 0.9053 0.0
O132 O 0.2747 0.43418 0.9642 0.0
O133 O 0.35646 0.45119 0.94365 0.0
O134 O 0.38188 0.4361 0.98274 0.0
O135 O 0.28186 0.37586 0.99017 0.0
O136 O 0.32341 0.39393 0.02126 0.0
C137 C 0.37913 0.45445 0.95805 0.0
C138 C 0.29964 0.37438 0.02258 0.0
O139 O 0.29684 0.42936 0.88694 0.0
Mg140 Mg 0.90264 0.31236 0.13363 0.0
O141 O 0.93428 0.32617 0.05884 0.0
O142 O 0.97245 0.35846 0.09648 0.0
Mg143 Mg 0.96514 0.36446 0.19735 0.0
C144 C 0.95874 0.34332 0.05252 0.0
C145 C 0.84896 0.27094 0.07768 0.0
O146 O 0.8448 0.26428 0.13587 0.0
O147 O 0.90071 0.35016 0.12015 0.0
O148 O 0.93782 0.38033 0.16696 0.0
O149 O 0.91358 0.28267 0.16727 0.0
O150 O 0.9315 0.32398 0.20019 0.0
C151 C 0.91606 0.37369 0.13927 0.0
C152 C 0.93101 0.30173 0.20074 0.0
O153 O 0.87098 0.29054 0.06171 0.0
Mg154 Mg 0.58542 0.90252 0.29283 0.0
O155 O 0.6058 0.93258 0.21499 0.0
O156 O 0.61972 0.97321 0.25164 0.0
Mg157 Mg 0.60729 0.96905 0.35235 0.0
C158 C 0.61725 0.95764 0.20778 0.0
C159 C 0.56658 0.84681 0.24194 0.0
O160 O 0.57032 0.8438 0.30012 0.0
O161 O 0.54899 0.90711 0.28106 0.0
O162 O 0.56408 0.9476 0.32016 0.0
O163 O 0.62454 0.90787 0.32477 0.0
O164 O 0.60665 0.93136 0.35702 0.0
C165 C 0.54566 0.92644 0.29582 0.0
C166 C 0.62624 0.92718 0.35733 0.0
O167 O 0.57038 0.86911 0.22369 0.0
H168 H 0.27639 0.36123 0.13412 0.0
H169 H 0.34477 0.27501 0.20142 0.0
H170 H 0.31251 0.33691 0.99605 0.0
H171 H 0.3408 0.32934 0.32859 0.0
H172 H 0.31576 0.2818 0.13085 0.0
H173 H 0.28214 0.33305 0.20894 0.0
C174 C 0.28438 0.34895 0.11903 0.0
C175 C 0.29392 0.35112 0.05923 0.0
C176 C 0.32059 0.29155 0.17507 0.0
C177 C 0.30108 0.3196 0.14406 0.0
C178 C 0.33696 0.2876 0.21525 0.0
C179 C 0.34508 0.30178 0.2703 0.0
C180 C 0.31227 0.3096 0.19075 0.0
C181 C 0.33492 0.31818 0.28622 0.0
C182 C 0.28789 0.33313 0.1617 0.0
C183 C 0.30478 0.33547 0.04188 0.0
N184 N 0.3192 0.32186 0.24631 0.0
N185 N 0.30843 0.32059 0.08441 0.0
H186 H 0.01994 0.33487 0.51516 0.0
H187 H 0.98234 0.32068 0.1707 0.0
H188 H 0.07769 0.35725 0.37129 0.0
H189 H 0.92495 0.27881 0.31214 0.0
H190 H 0.01766 0.32691 0.24116 0.0
H191 H 0.98519 0.30657 0.44278 0.0
C192 C 0.02535 0.33287 0.46877 0.0
C193 C 0.05153 0.34809 0.44886 0.0
C194 C 0.99732 0.31566 0.25648 0.0
C195 C 0.012 0.31698 0.36513 0.0
C196 C 0.97723 0.31207 0.21616 0.0
C197 C 0.95094 0.29918 0.23603 0.0
C198 C 0.99101 0.30703 0.31756 0.0
C199 C 0.94511 0.28872 0.29539 0.0
C200 C 0.00554 0.3169 0.42727 0.0
C201 C 0.05765 0.34549 0.38818 0.0
N202 N 0.96508 0.29334 0.33464 0.0
N203 N 0.03791 0.3307 0.34796 0.0
H204 H 0.66381 0.97674 0.32564 0.0
H205 H 0.68002 0.01392 0.67019 0.0
H206 H 0.64047 0.91884 0.46958 0.0
H207 H 0.72028 0.07125 0.5276 0.0
H208 H 0.67382 0.97867 0.59973 0.0
H209 H 0.69318 0.0111 0.39747 0.0
C210 C 0.66579 0.97118 0.37192 0.0
C211 C 0.64997 0.94511 0.39206 0.0
C212 C 0.68476 0.99899 0.58415 0.0
C213 C 0.68235 0.98425 0.4752 0.0
C214 C 0.68836 0.01906 0.6245 0.0
C215 C 0.7007 0.0453 0.60427 0.0
C216 C 0.69281 0.00526 0.52271 0.0
C217 C 0.71079 0.05114 0.54461 0.0
C218 C 0.68239 0.99078 0.41311 0.0
C219 C 0.65263 0.9388 0.45254 0.0
N220 N 0.70614 0.03118 0.50536 0.0
N221 N 0.66806 0.95837 0.49251 0.0
H222 H 0.71339 0.67461 0.52951 0.0
H223 H 0.65178 0.7249 0.71659 0.0
H224 H 0.67481 0.61178 0.66174 0.0
H225 H 0.66488 0.68313 0.86257 0.0
H226 H 0.67751 0.71329 0.64748 0.0
H227 H 0.71082 0.70539 0.60329 0.0
C228 C 0.70484 0.66749 0.5744 0.0
C229 C 0.69391 0.64069 0.58968 0.0
C230 C 0.67597 0.70782 0.69537 0.0
C231 C 0.69123 0.67534 0.6735 0.0
C232 C 0.6614 0.71459 0.73487 0.0
C233 C 0.6564 0.70496 0.79511 0.0
C234 C 0.68493 0.69091 0.71653 0.0
C235 C 0.66846 0.69095 0.81636 0.0
C236 C 0.70327 0.68493 0.61615 0.0
C237 C 0.68307 0.63226 0.64811 0.0
N238 N 0.68155 0.68367 0.77664 0.0
N239 N 0.682 0.64951 0.68785 0.0
H240 H 0.02628 0.69445 0.64479 0.0
H241 H 0.93427 0.61435 0.84641 0.0
H242 H 0.07524 0.71682 0.80623 0.0
H243 H 0.97015 0.67571 0.98273 0.0
H244 H 0.9666 0.6437 0.77146 0.0
H245 H 0.98767 0.68271 0.70962 0.0
C246 C 0.02904 0.69809 0.69369 0.0
C247 C 0.05378 0.70662 0.72055 0.0
C248 C 0.96699 0.6512 0.81709 0.0
C249 C 0.00986 0.69194 0.7948 0.0
C250 C 0.94873 0.63432 0.85998 0.0
C251 C 0.9497 0.64279 0.92034 0.0
C252 C 0.98686 0.67653 0.83519 0.0
C253 C 0.96883 0.66868 0.93621 0.0
C254 C 0.007 0.69098 0.7307 0.0
C255 C 0.05637 0.71044 0.78413 0.0
N256 N 0.98724 0.68452 0.89413 0.0
N257 N 0.03452 0.70255 0.81947 0.0
H258 H 0.34118 0.0145 0.82134 0.0
H259 H 0.30982 0.97684 0.16361 0.0
H260 H 0.35217 0.07183 0.95934 0.0
H261 H 0.27885 0.91917 0.01858 0.0
H262 H 0.31716 0.01143 0.08974 0.0
H263 H 0.31064 0.9791 0.88948 0.0
C264 C 0.33645 0.01957 0.86549 0.0
C265 C 0.34901 0.04588 0.88518 0.0
C266 C 0.30786 0.9911 0.07422 0.0
C267 C 0.31502 0.00568 0.96429 0.0
C268 C 0.30349 0.97138 0.11653 0.0
C269 C 0.29357 0.94529 0.0968 0.0
C270 C 0.30306 0.98466 0.01163 0.0
C271 C 0.2863 0.93913 0.03531 0.0
C272 C 0.31907 0.99942 0.90449 0.0
C273 C 0.34264 0.05165 0.94279 0.0
N274 N 0.29173 0.95879 0.9945 0.0
N275 N 0.32648 0.03162 0.98104 0.0
H276 H 0.61365 0.50998 0.35929 0.0
H277 H 0.48465 0.37831 0.46974 0.0
H278 H 0.58463 0.49965 0.5448 0.0
H279 H 0.48807 0.41521 0.29596 0.0
H280 H 0.5291 0.41516 0.49401 0.0
H281 H 0.57493 0.46704 0.33213 0.0
C282 C 0.59947 0.49835 0.39449 0.0
C283 C 0.60209 0.50824 0.45419 0.0
C284 C 0.52017 0.41485 0.45024 0.0
C285 C 0.55845 0.45945 0.42395 0.0
C286 C 0.49496 0.3939 0.43632 0.0
C287 C 0.48269 0.39396 0.38109 0.0
C288 C 0.53333 0.4355 0.40787 0.0
C289 C 0.49679 0.41465 0.33936 0.0
C290 C 0.57742 0.47406 0.37896 0.0
C291 C 0.58312 0.49267 0.49816 0.0
N292 N 0.52142 0.43463 0.35357 0.0
N293 N 0.56205 0.46898 0.4822 0.0
H294 H 0.11869 0.50109 0.57426 0.0
H295 H 0.03494 0.57233 0.63584 0.0
H296 H 0.03441 0.46509 0.54596 0.0
H297 H 0.1187 0.61799 0.59771 0.0
H298 H 0.03607 0.53209 0.61661 0.0
H299 H 0.12067 0.54353 0.59492 0.0
C300 C 0.10067 0.50207 0.57242 0.0
C301 C 0.07635 0.47948 0.55834 0.0
C302 C 0.05425 0.55087 0.61228 0.0
C303 C 0.07849 0.52759 0.58226 0.0
C304 C 0.05368 0.57396 0.62354 0.0
C305 C 0.07678 0.5987 0.61826 0.0
C306 C 0.07812 0.55223 0.59592 0.0
C307 C 0.1004 0.59934 0.60199 0.0
C308 C 0.10185 0.52627 0.58393 0.0
C309 C 0.05363 0.48191 0.55635 0.0
N310 N 0.10051 0.57636 0.59151 0.0
N311 N 0.05527 0.50542 0.56846 0.0
H312 H 0.48968 0.07047 0.86735 0.0
H313 H 0.58375 0.06882 0.62001 0.0
H314 H 0.48718 0.09761 0.68488 0.0
H315 H 0.61435 0.09796 0.80084 0.0
H316 H 0.54578 0.07467 0.64201 0.0
H317 H 0.53328 0.07587 0.84482 0.0
C318 C 0.49848 0.07781 0.82274 0.0
C319 C 0.48495 0.0836 0.77779 0.0
C320 C 0.56102 0.08013 0.67645 0.0
C321 C 0.53423 0.08916 0.75147 0.0
C322 C 0.58254 0.07667 0.66414 0.0
C323 C 0.60208 0.08288 0.70881 0.0
C324 C 0.55863 0.08901 0.73451 0.0
C325 C 0.5997 0.09305 0.76519 0.0
C326 C 0.52332 0.08099 0.8101 0.0
C327 C 0.49713 0.09307 0.72075 0.0
N328 N 0.57802 0.09531 0.77699 0.0
N329 N 0.52093 0.09506 0.70868 0.0
H330 H 0.50152 0.61979 0.91299 0.0
H331 H 0.42944 0.4635 0.95275 0.0
H332 H 0.53614 0.57168 0.86662 0.0
H333 H 0.38422 0.50327 0.93352 0.0
H334 H 0.46963 0.50494 0.93266 0.0
H335 H 0.45894 0.57905 0.93066 0.0
C336 C 0.5002 0.60078 0.90642 0.0
C337 C 0.5225 0.5992 0.88847 0.0
C338 C 0.45095 0.50469 0.93259 0.0
C339 C 0.47423 0.5529 0.90894 0.0
C340 C 0.42793 0.481 0.94438 0.0
C341 C 0.40337 0.47987 0.94486 0.0
C342 C 0.44965 0.52769 0.92168 0.0
C343 C 0.40276 0.50326 0.9333 0.0
C344 C 0.47593 0.57762 0.91628 0.0
C345 C 0.51962 0.57403 0.88041 0.0
N346 N 0.42566 0.52637 0.92246 0.0
N347 N 0.49606 0.552 0.89104 0.0
H348 H 0.89087 0.3793 0.03941 0.0
H349 H 0.89802 0.51252 0.15508 0.0
H350 H 0.92565 0.41517 0.21313 0.0
H351 H 0.91423 0.50156 0.96791 0.0
H352 H 0.89276 0.46901 0.18094 0.0
H353 H 0.88415 0.41686 0.01707 0.0
C354 C 0.89663 0.39483 0.07322 0.0
C355 C 0.90908 0.39438 0.12785 0.0
C356 C 0.89697 0.47603 0.13404 0.0
C357 C 0.90098 0.43675 0.10327 0.0
C358 C 0.8998 0.50064 0.11928 0.0
C359 C 0.90667 0.51049 0.05945 0.0
C360 C 0.90037 0.46109 0.0882 0.0
C361 C 0.90908 0.4946 0.01465 0.0
C362 C 0.89287 0.41618 0.0604 0.0
C363 C 0.91628 0.415 0.17013 0.0
N364 N 0.90592 0.47063 0.0299 0.0
N365 N 0.91212 0.43539 0.15699 0.0
H366 H 0.38064 0.8811 0.23154 0.0
H367 H 0.53519 0.96691 0.29968 0.0
H368 H 0.42788 0.96547 0.20311 0.0
H369 H 0.49781 0.88304 0.26357 0.0
H370 H 0.49366 0.96531 0.27812 0.0
H371 H 0.42133 0.88009 0.25579 0.0
C372 C 0.39947 0.89935 0.23045 0.0
C373 C 0.40085 0.9234 0.21513 0.0
C374 C 0.49448 0.94722 0.27479 0.0
C375 C 0.44708 0.92236 0.24321 0.0
C376 C 0.51822 0.94807 0.28736 0.0
C377 C 0.52008 0.92507 0.28327 0.0
C378 C 0.47218 0.92317 0.25838 0.0
C379 C 0.49729 0.90128 0.26694 0.0
C380 C 0.42261 0.89872 0.24403 0.0
C381 C 0.42578 0.94644 0.21427 0.0
N382 N 0.47418 0.9009 0.25519 0.0
N383 N 0.4478 0.94534 0.22837 0.0
H384 H 0.32232 0.39265 0.76238 0.0
H385 H 0.38159 0.31949 0.56206 0.0
H386 H 0.35997 0.35175 0.84028 0.0
H387 H 0.3603 0.37468 0.4862 0.0
H388 H 0.36786 0.32603 0.66313 0.0
H389 H 0.33003 0.38092 0.6599 0.0
C390 C 0.33194 0.38096 0.75808 0.0
C391 C 0.34067 0.37334 0.81018 0.0
C392 C 0.3661 0.33663 0.62432 0.0
C393 C 0.3496 0.35992 0.69283 0.0
C394 C 0.37388 0.33287 0.56647 0.0
C395 C 0.37229 0.3467 0.51541 0.0
C396 C 0.35646 0.35422 0.63135 0.0
C397 C 0.36208 0.36374 0.52421 0.0
C398 C 0.33645 0.37439 0.69948 0.0
C399 C 0.35307 0.35824 0.80154 0.0
N400 N 0.35462 0.36706 0.58105 0.0
N401 N 0.35723 0.35212 0.74405 0.0
H402 H 0.93472 0.31943 0.94444 0.0
H403 H 0.06728 0.39209 0.74436 0.0
H404 H 0.01121 0.37397 0.02118 0.0
H405 H 0.98869 0.35179 0.66671 0.0
H406 H 0.04784 0.38059 0.84698 0.0
H407 H 0.95507 0.32622 0.8435 0.0
C408 C 0.95583 0.33273 0.94026 0.0
C409 C 0.97122 0.34629 0.99156 0.0
C410 C 0.03488 0.37415 0.80742 0.0
C411 C 0.99468 0.35411 0.87563 0.0
C412 C 0.04596 0.3806 0.74876 0.0
C413 C 0.0296 0.37305 0.69668 0.0
C414 C 0.00726 0.35987 0.81413 0.0
C415 C 0.0021 0.35822 0.70542 0.0
C416 C 0.96742 0.33664 0.88245 0.0
C417 C 0.99851 0.36323 0.98299 0.0
N418 N 0.99182 0.3522 0.76293 0.0
N419 N 0.00935 0.3667 0.92613 0.0
H420 H 0.64858 0.00975 0.176 0.0
H421 H 0.6249 0.98318 0.81624 0.0
H422 H 0.60649 0.93134 0.09777 0.0
H423 H 0.67819 0.05976 0.89437 0.0
H424 H 0.61821 0.96361 0.91848 0.0
H425 H 0.66009 0.02825 0.07286 0.0
C426 C 0.64189 0.99638 0.13719 0.0
C427 C 0.62639 0.96892 0.14572 0.0
C428 C 0.6315 0.98467 0.91312 0.0
C429 C 0.63937 0.99007 0.02715 0.0
C430 C 0.6353 0.99588 0.85473 0.0
C431 C 0.65202 0.02322 0.84655 0.0
C432 C 0.64434 0.00091 0.96385 0.0
C433 C 0.66505 0.03862 0.89828 0.0
C434 C 0.64851 0.00698 0.07822 0.0
C435 C 0.61845 0.95262 0.09351 0.0
N436 N 0.66078 0.02729 0.95464 0.0
N437 N 0.62482 0.96346 0.03648 0.0
H438 H 0.60622 0.67318 0.08434 0.0
H439 H 0.67785 0.61266 0.28612 0.0
H440 H 0.64825 0.63651 0.00785 0.0
H441 H 0.62028 0.6309 0.36075 0.0
H442 H 0.67202 0.62729 0.18568 0.0
H443 H 0.61609 0.66379 0.18738 0.0
C444 C 0.61774 0.6634 0.08911 0.0
C445 C 0.62629 0.6555 0.03718 0.0
C446 C 0.66071 0.62818 0.22403 0.0
C447 C 0.63762 0.64471 0.15508 0.0
C448 C 0.66407 0.61989 0.28162 0.0
C449 C 0.64941 0.62037 0.33221 0.0
C450 C 0.64268 0.63723 0.21662 0.0
C451 C 0.6319 0.63001 0.32313 0.0
C452 C 0.62324 0.65793 0.14799 0.0
C453 C 0.64107 0.64281 0.04638 0.0
N454 N 0.62899 0.63801 0.26644 0.0
N455 N 0.64622 0.63779 0.10408 0.0
H456 H 0.06867 0.67545 0.42879 0.0
H457 H 0.93595 0.61526 0.22894 0.0
H458 H 0.99033 0.63924 0.50722 0.0
H459 H 0.01172 0.63365 0.1539 0.0
H460 H 0.95656 0.62991 0.32946 0.0
H461 H 0.049 0.66631 0.32632 0.0
C462 C 0.04735 0.66583 0.42458 0.0
C463 C 0.03114 0.65797 0.4769 0.0
C464 C 0.9687 0.63084 0.29096 0.0
C465 C 0.00852 0.64743 0.3595 0.0
C466 C 0.95697 0.62254 0.23337 0.0
C467 C 0.97207 0.62305 0.18268 0.0
C468 C 0.99581 0.63993 0.29814 0.0
C469 C -0.00076 0.63273 0.19159 0.0
C470 C 0.03615 0.66051 0.36599 0.0
C471 C 0.00363 0.64551 0.46835 0.0
N472 N 0.01021 0.64074 0.24818 0.0
N473 N 0.99321 0.64059 0.41086 0.0
H474 H 0.36168 0.01148 0.31262 0.0
H475 H 0.35933 0.98543 0.67228 0.0
H476 H 0.32141 0.93342 0.39313 0.0
H477 H 0.38636 0.06279 0.59413 0.0
H478 H 0.34484 0.96597 0.57055 0.0
H479 H 0.37016 0.03064 0.41535 0.0
C480 C 0.35441 0.99834 0.35182 0.0
C481 C 0.34095 0.97076 0.34407 0.0
C482 C 0.35378 0.98718 0.57574 0.0
C483 C 0.35086 0.99264 0.46204 0.0
C484 C 0.36215 0.99834 0.63384 0.0
C485 C 0.37425 0.02584 0.64187 0.0
C486 C 0.35775 0.00363 0.52507 0.0
C487 C 0.37719 0.04151 0.59027 0.0
C488 C 0.35926 0.00932 0.41053 0.0
C489 C 0.33191 0.95478 0.39673 0.0
N490 N 0.3692 0.03021 0.53407 0.0
N491 N 0.33725 0.96595 0.45343 0.0
H492 H 0.43261 0.23313 0.40241 0.0
H493 H 0.42293 0.19344 0.75663 0.0
H494 H 0.41971 0.27509 0.54903 0.0
H495 H 0.43134 0.14857 0.60984 0.0
H496 H 0.42583 0.22588 0.68181 0.0
H497 H 0.43623 0.20428 0.47829 0.0
C498 C 0.43069 0.23639 0.45055 0.0
C499 C 0.42566 0.25645 0.46935 0.0
C500 C 0.42719 0.20902 0.66596 0.0
C501 C 0.42973 0.22346 0.55642 0.0
C502 C 0.42557 0.19049 0.7087 0.0
C503 C 0.4267 0.16814 0.68944 0.0
C504 C 0.42994 0.2052 0.60342 0.0
C505 C 0.43023 0.16543 0.62673 0.0
C506 C 0.43274 0.21989 0.49386 0.0
C507 C 0.42345 0.25979 0.53238 0.0
N508 N 0.43158 0.18366 0.58592 0.0
N509 N 0.42538 0.24339 0.5736 0.0
H510 H 0.23919 0.44476 0.92823 0.0
H511 H 0.20183 0.44005 0.57383 0.0
H512 H 0.28468 0.43824 0.78018 0.0
H513 H 0.15186 0.43755 0.72262 0.0
H514 H 0.23563 0.44597 0.64829 0.0
H515 H 0.21042 0.44882 0.853 0.0
C516 C 0.2433 0.44444 0.87992 0.0
C517 C 0.2642 0.44084 0.86049 0.0
C518 C 0.21735 0.44433 0.66461 0.0
C519 C 0.23126 0.44537 0.77414 0.0
C520 C 0.19804 0.44098 0.62211 0.0
C521 C 0.17385 0.438 0.64206 0.0
C522 C 0.21245 0.44471 0.72753 0.0
C523 C 0.17012 0.43952 0.70519 0.0
C524 C 0.22682 0.44671 0.83698 0.0
C525 C 0.26866 0.44074 0.79727 0.0
N526 N 0.18914 0.44258 0.74569 0.0
N527 N 0.2522 0.44275 0.75636 0.0
H528 H 0.85186 0.2785 0.95335 0.0
H529 H 0.71773 0.14313 0.88655 0.0
H530 H 0.80077 0.22644 0.09525 0.0
H531 H 0.76951 0.1946 0.74477 0.0
H532 H 0.74605 0.17517 0.96358 0.0
H533 H 0.82011 0.24978 0.87635 0.0
C534 C 0.83388 0.26111 0.96838 0.0
C535 C 0.82906 0.25476 0.03088 0.0
C536 C 0.75114 0.17953 0.91561 0.0
C537 C 0.79264 0.22173 0.94285 0.0
C538 C 0.73496 0.16125 0.87155 0.0
C539 C 0.74137 0.1661 0.80909 0.0
C540 C 0.77394 0.20283 0.89714 0.0
C541 C 0.76388 0.18996 0.7924 0.0
C542 C 0.81576 0.24471 0.92434 0.0
C543 C 0.80538 0.23204 0.0476 0.0
N544 N 0.77944 0.20736 0.83618 0.0
N545 N 0.78813 0.21626 0.00382 0.0
H546 H 0.55865 0.8468 0.11807 0.0
H547 H 0.56534 0.7151 0.063 0.0
H548 H 0.56189 0.7985 0.26406 0.0
H549 H 0.55952 0.76181 0.91671 0.0
H550 H 0.55947 0.74293 0.13745 0.0
H551 H 0.55426 0.81348 0.04398 0.0
C552 C 0.55818 0.82907 0.13463 0.0
C553 C 0.56095 0.82558 0.19733 0.0
C554 C 0.55924 0.74697 0.08906 0.0
C555 C 0.5561 0.78743 0.1127 0.0
C556 C 0.5626 0.73108 0.04648 0.0
C557 C 0.56323 0.73632 0.98351 0.0
C558 C 0.55663 0.76838 0.06861 0.0
C559 C 0.55938 0.75717 0.96481 0.0
C560 C 0.55569 0.81005 0.09227 0.0
C561 C 0.56003 0.80213 0.21615 0.0
N562 N 0.5565 0.77259 0.00721 0.0
N563 N 0.55794 0.78408 0.17395 0.0
H564 H 0.74966 0.63011 0.26902 0.0
H565 H 0.83699 0.56327 0.19834 0.0
H566 H 0.73688 0.55906 0.3605 0.0
H567 H 0.82973 0.6168 0.07376 0.0
H568 H 0.80274 0.56336 0.26331 0.0
H569 H 0.78157 0.62749 0.20136 0.0
C570 C 0.7535 0.6139 0.27472 0.0
C571 C 0.74064 0.5948 0.32048 0.0
C572 C 0.80861 0.57496 0.22156 0.0
C573 C 0.77731 0.59181 0.24358 0.0
C574 C 0.82819 0.57499 0.18464 0.0
C575 C 0.83623 0.59007 0.13062 0.0
C576 C 0.79732 0.59039 0.20464 0.0
C577 C 0.82412 0.60485 0.11493 0.0
C578 C 0.77167 0.61238 0.236 0.0
C579 C 0.74632 0.57416 0.32567 0.0
N580 N 0.80542 0.60477 0.15194 0.0
N581 N 0.76442 0.57332 0.28796 0.0
H582 H 0.20198 0.76728 0.59239 0.0
H583 H 0.23722 0.79634 0.23623 0.0
H584 H 0.15293 0.71606 0.44689 0.0
H585 H 0.28247 0.85063 0.38119 0.0
H586 H 0.2093 0.76405 0.31335 0.0
H587 H 0.23473 0.79527 0.51627 0.0
C588 C 0.19818 0.76177 0.54449 0.0
C589 C 0.17454 0.73943 0.52595 0.0
C590 C 0.22546 0.78295 0.32829 0.0
C591 C 0.21195 0.77147 0.4385 0.0
C592 C 0.24144 0.8014 0.28427 0.0
C593 C 0.26206 0.82634 0.30225 0.0
C594 C 0.2301 0.78948 0.39077 0.0
C595 C 0.26667 0.83173 0.36519 0.0
C596 C 0.2169 0.7778 0.50102 0.0
C597 C 0.17079 0.73321 0.46324 0.0
N598 N 0.2507 0.81353 0.40715 0.0
N599 N 0.18921 0.74926 0.42174 0.0
loop_
_geom_bond_atom_site_label_1
_geom_bond_atom_site_label_2
_geom_bond_distance
_geom_bond_site_symmetry_2
_ccdc_geom_bond_type
Mg0 O1 2.028 . S
Mg0 O7 1.986 . S
Mg0 O9 2.114 . S
Mg0 O10 2.251 . S
Mg0 O13 2.010 . S
O1 Mg0 2.028 . S
O1 C4 1.250 . S
O2 Mg3 2.028 . S
O2 C4 1.248 . S
Mg3 O2 2.028 . S
Mg3 O8 2.032 . S
Mg3 O10 2.079 . S
C4 O1 1.250 . S
C4 O2 1.248 . S
C5 O6 1.264 . S
C5 O13 1.249 . S
O6 C5 1.264 . S
O7 Mg0 1.986 . S
O7 C11 1.246 . S
O8 Mg3 2.032 . S
O8 C11 1.259 . S
O9 Mg0 2.114 . S
O9 C12 1.252 . S
O10 Mg0 2.251 . S
O10 Mg3 2.079 . S
O10 C12 1.273 . S
C11 O7 1.246 . S
C11 O8 1.259 . S
C12 O9 1.252 . S
C12 O10 1.273 . S
O13 Mg0 2.010 . S
O13 C5 1.249 . S
Mg14 O15 2.028 . S
Mg14 O21 1.986 . S
Mg14 O23 2.114 . S
Mg14 O24 2.251 . S
Mg14 O27 2.010 . S
O15 Mg14 2.028 . S
O15 C18 1.250 . S
O16 Mg17 2.028 . S
O16 C18 1.248 . S
Mg17 O16 2.028 . S
Mg17 O22 2.032 . S
Mg17 O24 2.079 . S
C18 O15 1.250 . S
C18 O16 1.248 . S
C19 O20 1.264 . S
C19 O27 1.249 . S
O20 C19 1.264 . S
O21 Mg14 1.986 . S
O21 C25 1.246 . S
O22 Mg17 2.032 . S
O22 C25 1.259 . S
O23 Mg14 2.114 . S
O23 C26 1.252 . S
O24 Mg14 2.251 . S
O24 Mg17 2.079 . S
O24 C26 1.273 . S
C25 O21 1.246 . S
C25 O22 1.259 . S
C26 O23 1.252 . S
C26 O24 1.273 . S
O27 Mg14 2.010 . S
O27 C19 1.249 . S
Mg28 O29 2.028 . S
Mg28 O35 1.986 . S
Mg28 O37 2.114 . S
Mg28 O38 2.251 . S
Mg28 O41 2.010 . S
O29 Mg28 2.028 . S
O29 C32 1.250 . S
O30 Mg31 2.028 . S
O30 C32 1.248 . S
Mg31 O30 2.028 . S
Mg31 O36 2.032 . S
Mg31 O38 2.079 . S
C32 O29 1.250 . S
C32 O30 1.248 . S
C33 O34 1.264 . S
C33 O41 1.249 . S
O34 C33 1.264 . S
O35 Mg28 1.986 . S
O35 C39 1.246 . S
O36 Mg31 2.032 . S
O36 C39 1.259 . S
O37 Mg28 2.114 . S
O37 C40 1.252 . S
O38 Mg28 2.251 . S
O38 Mg31 2.079 . S
O38 C40 1.273 . S
C39 O35 1.246 . S
C39 O36 1.259 . S
C40 O37 1.252 . S
C40 O38 1.273 . S
O41 Mg28 2.010 . S
O41 C33 1.249 . S
Mg42 O43 2.028 . S
Mg42 O49 1.986 . S
Mg42 O51 2.114 . S
Mg42 O52 2.251 . S
Mg42 O55 2.010 . S
O43 Mg42 2.028 . S
O43 C46 1.250 1_556 S
O44 Mg45 2.028 . S
O44 C46 1.248 1_556 S
Mg45 O44 2.028 . S
Mg45 O50 2.032 . S
Mg45 O52 2.079 . S
C46 O43 1.250 1_554 S
C46 O44 1.248 1_554 S
C47 O48 1.264 . S
C47 O55 1.249 . S
O48 C47 1.264 . S
O49 Mg42 1.986 . S
O49 C53 1.246 . S
O50 Mg45 2.032 . S
O50 C53 1.259 . S
O51 Mg42 2.114 . S
O51 C54 1.252 . S
O52 Mg42 2.251 . S
O52 Mg45 2.079 . S
O52 C54 1.273 . S
C53 O49 1.246 . S
C53 O50 1.259 . S
C54 O51 1.252 . S
C54 O52 1.273 . S
O55 Mg42 2.010 . S
O55 C47 1.249 . S
Mg56 O57 2.028 . S
Mg56 O63 1.986 . S
Mg56 O65 2.114 . S
Mg56 O66 2.251 . S
Mg56 O69 2.010 . S
O57 Mg56 2.028 . S
O57 C60 1.250 . S
O58 Mg59 2.028 . S
O58 C60 1.248 . S
Mg59 O58 2.028 . S
Mg59 O64 2.032 . S
Mg59 O66 2.079 . S
C60 O57 1.250 . S
C60 O58 1.248 . S
C61 O62 1.264 . S
C61 O69 1.249 . S
O62 C61 1.264 . S
O63 Mg56 1.986 . S
O63 C67 1.246 . S
O64 Mg59 2.032 . S
O64 C67 1.259 . S
O65 Mg56 2.114 . S
O65 C68 1.252 1_554 S
O66 Mg56 2.251 . S
O66 Mg59 2.079 . S
O66 C68 1.273 1_554 S
C67 O63 1.246 . S
C67 O64 1.259 . S
C68 O65 1.252 1_556 S
C68 O66 1.273 1_556 S
O69 Mg56 2.010 . S
O69 C61 1.249 . S
Mg70 O71 2.028 . S
Mg70 O77 1.986 . S
Mg70 O79 2.114 . S
Mg70 O80 2.251 . S
Mg70 O83 2.010 . S
O71 Mg70 2.028 . S
O71 C74 1.250 . S
O72 Mg73 2.028 . S
O72 C74 1.248 . S
Mg73 O72 2.028 . S
Mg73 O78 2.032 . S
Mg73 O80 2.079 . S
C74 O71 1.250 . S
C74 O72 1.248 . S
C75 O76 1.264 . S
C75 O83 1.249 . S
O76 C75 1.264 . S
O77 Mg70 1.986 . S
O77 C81 1.246 . S
O78 Mg73 2.032 . S
O78 C81 1.259 . S
O79 Mg70 2.114 . S
O79 C82 1.252 . S
O80 Mg70 2.251 . S
O80 Mg73 2.079 . S
O80 C82 1.273 . S
C81 O77 1.246 . S
C81 O78 1.259 . S
C82 O79 1.252 . S
C82 O80 1.273 . S
O83 Mg70 2.010 . S
O83 C75 1.249 . S
Mg84 O85 2.028 . S
Mg84 O91 1.986 . S
Mg84 O93 2.114 . S
Mg84 O94 2.251 . S
Mg84 O97 2.010 . S
O85 Mg84 2.028 . S
O85 C88 1.250 . S
O86 Mg87 2.028 . S
O86 C88 1.248 . S
Mg87 O86 2.028 . S
Mg87 O92 2.032 . S
Mg87 O94 2.079 . S
C88 O85 1.250 . S
C88 O86 1.248 . S
C89 O90 1.264 . S
C89 O97 1.249 . S
O90 C89 1.264 . S
O91 Mg84 1.986 . S
O91 C95 1.246 . S
O92 Mg87 2.032 . S
O92 C95 1.259 . S
O93 Mg84 2.114 . S
O93 C96 1.252 . S
O94 Mg84 2.251 . S
O94 Mg87 2.079 . S
O94 C96 1.273 . S
C95 O91 1.246 . S
C95 O92 1.259 . S
C96 O93 1.252 . S
C96 O94 1.273 . S
O97 Mg84 2.010 . S
O97 C89 1.249 . S
Mg98 O99 2.028 . S
Mg98 O105 1.986 . S
Mg98 O107 2.114 . S
Mg98 O108 2.251 . S
Mg98 O111 2.010 . S
O99 Mg98 2.028 . S
O99 C102 1.250 . S
O100 Mg101 2.028 . S
O100 C102 1.248 . S
Mg101 O100 2.028 . S
Mg101 O106 2.032 . S
Mg101 O108 2.079 . S
C102 O99 1.250 . S
C102 O100 1.248 . S
C103 O104 1.264 . S
C103 O111 1.249 . S
O104 C103 1.264 . S
O105 Mg98 1.986 . S
O105 C109 1.246 . S
O106 Mg101 2.032 . S
O106 C109 1.259 . S
O107 Mg98 2.114 . S
O107 C110 1.252 . S
O108 Mg98 2.251 . S
O108 Mg101 2.079 . S
O108 C110 1.273 . S
C109 O105 1.246 . S
C109 O106 1.259 . S
C110 O107 1.252 . S
C110 O108 1.273 . S
O111 Mg98 2.010 . S
O111 C103 1.249 . S
Mg112 O113 2.028 . S
Mg112 O119 1.986 . S
Mg112 O121 2.114 . S
Mg112 O122 2.251 . S
Mg112 O125 2.010 . S
O113 Mg112 2.028 . S
O113 C116 1.250 . S
O114 Mg115 2.028 . S
O114 C116 1.248 . S
Mg115 O114 2.028 . S
Mg115 O120 2.032 . S
Mg115 O122 2.079 . S
C116 O113 1.250 . S
C116 O114 1.248 . S
C117 O118 1.264 . S
C117 O125 1.249 . S
O118 C117 1.264 . S
O119 Mg112 1.986 . S
O119 C123 1.246 . S
O120 Mg115 2.032 . S
O120 C123 1.259 . S
O121 Mg112 2.114 . S
O121 C124 1.252 . S
O122 Mg112 2.251 . S
O122 Mg115 2.079 . S
O122 C124 1.273 . S
C123 O119 1.246 . S
C123 O120 1.259 . S
C124 O121 1.252 . S
C124 O122 1.273 . S
O125 Mg112 2.010 . S
O125 C117 1.249 . S
Mg126 O127 2.028 . S
Mg126 O133 1.986 . S
Mg126 O135 2.114 . S
Mg126 O136 2.251 . S
Mg126 O139 2.010 . S
O127 Mg126 2.028 . S
O127 C130 1.250 . S
O128 Mg129 2.028 . S
O128 C130 1.248 . S
Mg129 O128 2.028 . S
Mg129 O134 2.032 . S
Mg129 O136 2.079 . S
C130 O127 1.250 . S
C130 O128 1.248 . S
C131 O132 1.264 . S
C131 O139 1.249 . S
O132 C131 1.264 . S
O133 Mg126 1.986 . S
O133 C137 1.246 . S
O134 Mg129 2.032 . S
O134 C137 1.259 . S
O135 Mg126 2.114 . S
O135 C138 1.252 1_556 S
O136 Mg126 2.251 . S
O136 Mg129 2.079 . S
O136 C138 1.273 1_556 S
C137 O133 1.246 . S
C137 O134 1.259 . S
C138 O135 1.252 1_554 S
C138 O136 1.273 1_554 S
O139 Mg126 2.010 . S
O139 C131 1.249 . S
Mg140 O141 2.028 . S
Mg140 O147 1.986 . S
Mg140 O149 2.114 . S
Mg140 O150 2.251 . S
Mg140 O153 2.010 . S
O141 Mg140 2.028 . S
O141 C144 1.250 1_554 S
O142 Mg143 2.028 . S
O142 C144 1.248 1_554 S
Mg143 O142 2.028 . S
Mg143 O148 2.032 . S
Mg143 O150 2.079 . S
C144 O141 1.250 1_556 S
C144 O142 1.248 1_556 S
C145 O146 1.264 . S
C145 O153 1.249 . S
O146 C145 1.264 . S
O147 Mg140 1.986 . S
O147 C151 1.246 . S
O148 Mg143 2.032 . S
O148 C151 1.259 . S
O149 Mg140 2.114 . S
O149 C152 1.252 . S
O150 Mg140 2.251 . S
O150 Mg143 2.079 . S
O150 C152 1.273 . S
C151 O147 1.246 . S
C151 O148 1.259 . S
C152 O149 1.252 . S
C152 O150 1.273 . S
O153 Mg140 2.010 . S
O153 C145 1.249 . S
Mg154 O155 2.028 . S
Mg154 O161 1.986 . S
Mg154 O163 2.114 . S
Mg154 O164 2.251 . S
Mg154 O167 2.010 . S
O155 Mg154 2.028 . S
O155 C158 1.250 . S
O156 Mg157 2.028 . S
O156 C158 1.248 . S
Mg157 O156 2.028 . S
Mg157 O162 2.032 . S
Mg157 O164 2.079 . S
C158 O155 1.250 . S
C158 O156 1.248 . S
C159 O160 1.264 . S
C159 O167 1.249 . S
O160 C159 1.264 . S
O161 Mg154 1.986 . S
O161 C165 1.246 . S
O162 Mg157 2.032 . S
O162 C165 1.259 . S
O163 Mg154 2.114 . S
O163 C166 1.252 . S
O164 Mg154 2.251 . S
O164 Mg157 2.079 . S
O164 C166 1.273 . S
C165 O161 1.246 . S
C165 O162 1.259 . S
C166 O163 1.252 . S
C166 O164 1.273 . S
O167 Mg154 2.010 . S
O167 C159 1.249 . S
H168 C174 0.930 . S
H169 C178 0.930 . S
H170 C183 0.935 . S
H171 C181 0.929 . S
H172 C176 0.929 . S
H173 C182 0.929 . S
C174 H168 0.930 . S
C174 C175 1.367 . S
C174 C182 1.378 . S
C175 C174 1.367 . S
C175 C183 1.433 . S
C176 H172 0.929 . S
C176 C178 1.378 . S
C176 C180 1.350 . S
C177 C180 1.463 . S
C177 C182 1.350 . S
C177 N185 1.427 . S
C178 H169 0.930 . S
C178 C176 1.378 . S
C178 C179 1.367 . S
C179 C178 1.367 . S
C179 C181 1.433 . S
C180 C176 1.350 . S
C180 C177 1.463 . S
C180 N184 1.427 . S
C181 H171 0.929 . S
C181 C179 1.433 . S
C181 N184 1.384 . S
C182 H173 0.929 . S
C182 C174 1.378 . S
C182 C177 1.350 . S
C183 H170 0.935 . S
C183 C175 1.433 . S
C183 N185 1.384 . S
N184 C180 1.427 . S
N184 C181 1.384 . S
N185 C177 1.427 . S
N185 C183 1.384 . S
H186 C192 0.930 . S
H187 C196 0.930 . S
H188 C201 0.929 . S
H189 C199 0.929 . S
H190 C194 0.929 1_455 S
H191 C200 0.929 1_655 S
C192 H186 0.930 . S
C192 C193 1.367 . S
C192 C200 1.378 . S
C193 C192 1.367 . S
C193 C201 1.433 . S
C194 H190 0.929 1_655 S
C194 C196 1.378 . S
C194 C198 1.350 . S
C195 C198 1.463 1_455 S
C195 C200 1.350 . S
C195 N203 1.427 . S
C196 H187 0.930 . S
C196 C194 1.378 . S
C196 C197 1.367 . S
C197 C196 1.367 . S
C197 C199 1.433 . S
C198 C194 1.350 . S
C198 C195 1.463 1_655 S
C198 N202 1.427 . S
C199 H189 0.929 . S
C199 C197 1.433 . S
C199 N202 1.384 . S
C200 H191 0.929 1_455 S
C200 C192 1.378 . S
C200 C195 1.350 . S
C201 H188 0.929 . S
C201 C193 1.433 . S
C201 N203 1.384 . S
N202 C198 1.427 . S
N202 C199 1.384 . S
N203 C195 1.427 . S
N203 C201 1.384 . S
H204 C210 0.930 . S
H205 C214 0.930 . S
H206 C219 0.929 . S
H207 C217 0.929 . S
H208 C212 0.929 1_565 S
H209 C218 0.929 1_545 S
C210 H204 0.930 . S
C210 C211 1.367 . S
C210 C218 1.378 . S
C211 C210 1.367 . S
C211 C219 1.433 . S
C212 H208 0.929 1_545 S
C212 C214 1.378 . S
C212 C216 1.350 . S
C213 C216 1.463 1_565 S
C213 C218 1.350 . S
C213 N221 1.427 . S
C214 H205 0.930 . S
C214 C212 1.378 . S
C214 C215 1.367 . S
C215 C214 1.367 . S
C215 C217 1.433 . S
C216 C212 1.350 . S
C216 C213 1.463 1_545 S
C216 N220 1.427 . S
C217 H207 0.929 . S
C217 C215 1.433 . S
C217 N220 1.384 . S
C218 H209 0.929 1_565 S
C218 C210 1.378 . S
C218 C213 1.350 . S
C219 H206 0.929 . S
C219 C211 1.433 . S
C219 N221 1.384 . S
N220 C216 1.427 . S
N220 C217 1.384 . S
N221 C213 1.427 . S
N221 C219 1.384 . S
H222 C228 0.930 . S
H223 C232 0.930 . S
H224 C237 0.929 . S
H225 C235 0.929 . S
H226 C230 0.929 . S
H227 C236 0.929 . S
C228 H222 0.930 . S
C228 C229 1.367 . S
C228 C236 1.378 . S
C229 C228 1.367 . S
C229 C237 1.433 . S
C230 H226 0.929 . S
C230 C232 1.378 . S
C230 C234 1.350 . S
C231 C234 1.463 . S
C231 C236 1.350 . S
C231 N239 1.427 . S
C232 H223 0.930 . S
C232 C230 1.378 . S
C232 C233 1.367 . S
C233 C232 1.367 . S
C233 C235 1.433 . S
C234 C230 1.350 . S
C234 C231 1.463 . S
C234 N238 1.427 . S
C235 H225 0.929 . S
C235 C233 1.433 . S
C235 N238 1.384 . S
C236 H227 0.929 . S
C236 C228 1.378 . S
C236 C231 1.350 . S
C237 H224 0.929 . S
C237 C229 1.433 . S
C237 N239 1.384 . S
N238 C234 1.427 . S
N238 C235 1.384 . S
N239 C231 1.427 . S
N239 C237 1.384 . S
H240 C246 0.930 . S
H241 C250 0.930 . S
H242 C255 0.929 . S
H243 C253 0.929 . S
H244 C248 0.926 . S
H245 C254 0.927 . S
C246 H240 0.930 . S
C246 C247 1.367 . S
C246 C254 1.378 . S
C247 C246 1.367 . S
C247 C255 1.433 . S
C248 H244 0.926 . S
C248 C250 1.378 . S
C248 C252 1.350 . S
C249 C252 1.463 1_455 S
C249 C254 1.350 . S
C249 N257 1.427 . S
C250 H241 0.930 . S
C250 C248 1.378 . S
C250 C251 1.367 . S
C251 C250 1.367 . S
C251 C253 1.433 . S
C252 C248 1.350 . S
C252 C249 1.463 1_655 S
C252 N256 1.427 . S
C253 H243 0.929 . S
C253 C251 1.433 . S
C253 N256 1.384 . S
C254 H245 0.927 . S
C254 C246 1.378 . S
C254 C249 1.350 . S
C255 H242 0.929 . S
C255 C247 1.433 . S
C255 N257 1.384 . S
N256 C252 1.427 . S
N256 C253 1.384 . S
N257 C249 1.427 . S
N257 C255 1.384 . S
H258 C264 0.930 . S
H259 C268 0.930 . S
H260 C273 0.929 . S
H261 C271 0.929 . S
H262 C266 0.929 1_545 S
H263 C272 0.929 1_565 S
C264 H258 0.930 . S
C264 C265 1.367 . S
C264 C272 1.378 . S
C265 C264 1.367 . S
C265 C273 1.433 . S
C266 H262 0.929 1_565 S
C266 C268 1.378 . S
C266 C270 1.350 . S
C267 C270 1.463 1_546 S
C267 C272 1.350 . S
C267 N275 1.427 . S
C268 H259 0.930 . S
C268 C266 1.378 . S
C268 C269 1.367 . S
C269 C268 1.367 . S
C269 C271 1.433 . S
C270 C266 1.350 . S
C270 C267 1.463 1_564 S
C270 N274 1.427 . S
C271 H261 0.929 . S
C271 C269 1.433 . S
C271 N274 1.384 . S
C272 H263 0.929 1_545 S
C272 C264 1.378 . S
C272 C267 1.350 . S
C273 H260 0.929 . S
C273 C265 1.433 . S
C273 N275 1.384 . S
N274 C270 1.427 . S
N274 C271 1.384 . S
N275 C267 1.427 . S
N275 C273 1.384 . S
H276 C282 0.930 . S
H277 C286 0.930 . S
H278 C291 0.929 . S
H279 C289 0.929 . S
H280 C284 0.929 . S
H281 C290 0.929 . S
C282 H276 0.930 . S
C282 C283 1.367 . S
C282 C290 1.378 . S
C283 C282 1.367 . S
C283 C291 1.433 . S
C284 H280 0.929 . S
C284 C286 1.378 . S
C284 C288 1.350 . S
C285 C288 1.463 . S
C285 C290 1.350 . S
C285 N293 1.427 . S
C286 H277 0.930 . S
C286 C284 1.378 . S
C286 C287 1.367 . S
C287 C286 1.367 . S
C287 C289 1.433 . S
C288 C284 1.350 . S
C288 C285 1.463 . S
C288 N292 1.427 . S
C289 H279 0.929 . S
C289 C287 1.433 . S
C289 N292 1.384 . S
C290 H281 0.929 . S
C290 C282 1.378 . S
C290 C285 1.350 . S
C291 H278 0.929 . S
C291 C283 1.433 . S
C291 N293 1.384 . S
N292 C288 1.427 . S
N292 C289 1.384 . S
N293 C285 1.427 . S
N293 C291 1.384 . S
H294 C300 0.930 . S
H295 C304 0.930 . S
H296 C309 0.929 . S
H297 C307 0.929 . S
H298 C302 0.929 . S
H299 C308 0.929 . S
C300 H294 0.930 . S
C300 C301 1.367 . S
C300 C308 1.378 . S
C301 C300 1.367 . S
C301 C309 1.433 . S
C302 H298 0.929 . S
C302 C304 1.378 . S
C302 C306 1.350 . S
C303 C306 1.463 . S
C303 C308 1.350 . S
C303 N311 1.427 . S
C304 H295 0.930 . S
C304 C302 1.378 . S
C304 C305 1.367 . S
C305 C304 1.367 . S
C305 C307 1.433 . S
C306 C302 1.350 . S
C306 C303 1.463 . S
C306 N310 1.427 . S
C307 H297 0.929 . S
C307 C305 1.433 . S
C307 N310 1.384 . S
C308 H299 0.929 . S
C308 C300 1.378 . S
C308 C303 1.350 . S
C309 H296 0.929 . S
C309 C301 1.433 . S
C309 N311 1.384 . S
N310 C306 1.427 . S
N310 C307 1.384 . S
N311 C303 1.427 . S
N311 C309 1.384 . S
H312 C318 0.930 . S
H313 C322 0.930 . S
H314 C327 0.929 . S
H315 C325 0.929 . S
H316 C320 0.929 . S
H317 C326 0.929 . S
C318 H312 0.930 . S
C318 C319 1.367 . S
C318 C326 1.378 . S
C319 C318 1.367 . S
C319 C327 1.433 . S
C320 H316 0.929 . S
C320 C322 1.378 . S
C320 C324 1.350 . S
C321 C324 1.463 . S
C321 C326 1.350 . S
C321 N329 1.427 . S
C322 H313 0.930 . S
C322 C320 1.378 . S
C322 C323 1.367 . S
C323 C322 1.367 . S
C323 C325 1.433 . S
C324 C320 1.350 . S
C324 C321 1.463 . S
C324 N328 1.427 . S
C325 H315 0.929 . S
C325 C323 1.433 . S
C325 N328 1.384 . S
C326 H317 0.929 . S
C326 C318 1.378 . S
C326 C321 1.350 . S
C327 H314 0.929 . S
C327 C319 1.433 . S
C327 N329 1.384 . S
N328 C324 1.427 . S
N328 C325 1.384 . S
N329 C321 1.427 . S
N329 C327 1.384 . S
H330 C336 0.930 . S
H331 C340 0.930 . S
H332 C345 0.929 . S
H333 C343 0.929 . S
H334 C338 0.929 . S
H335 C344 0.929 . S
C336 H330 0.930 . S
C336 C337 1.367 . S
C336 C344 1.378 . S
C337 C336 1.367 . S
C337 C345 1.433 . S
C338 H334 0.929 . S
C338 C340 1.378 . S
C338 C342 1.350 . S
C339 C342 1.463 . S
C339 C344 1.350 . S
C339 N347 1.427 . S
C340 H331 0.930 . S
C340 C338 1.378 . S
C340 C341 1.367 . S
C341 C340 1.367 . S
C341 C343 1.433 . S
C342 C338 1.350 . S
C342 C339 1.463 . S
C342 N346 1.427 . S
C343 H333 0.929 . S
C343 C341 1.433 . S
C343 N346 1.384 . S
C344 H335 0.929 . S
C344 C336 1.378 . S
C344 C339 1.350 . S
C345 H332 0.929 . S
C345 C337 1.433 . S
C345 N347 1.384 . S
N346 C342 1.427 . S
N346 C343 1.384 . S
N347 C339 1.427 . S
N347 C345 1.384 . S
H348 C354 0.930 1_556 S
H349 C358 0.930 . S
H350 C363 0.929 . S
H351 C361 0.929 1_556 S
H352 C356 0.929 . S
H353 C362 0.929 1_556 S
C354 H348 0.930 1_554 S
C354 C355 1.367 . S
C354 C362 1.378 . S
C355 C354 1.367 . S
C355 C363 1.433 . S
C356 H352 0.929 . S
C356 C358 1.378 . S
C356 C360 1.350 . S
C357 C360 1.463 . S
C357 C362 1.350 . S
C357 N365 1.427 . S
C358 H349 0.930 . S
C358 C356 1.378 . S
C358 C359 1.367 . S
C359 C358 1.367 . S
C359 C361 1.433 . S
C360 C356 1.350 . S
C360 C357 1.463 . S
C360 N364 1.427 . S
C361 H351 0.929 1_554 S
C361 C359 1.433 . S
C361 N364 1.384 . S
C362 H353 0.929 1_554 S
C362 C354 1.378 . S
C362 C357 1.350 . S
C363 H350 0.929 . S
C363 C355 1.433 . S
C363 N365 1.384 . S
N364 C360 1.427 . S
N364 C361 1.384 . S
N365 C357 1.427 . S
N365 C363 1.384 . S
H366 C372 0.930 . S
H367 C376 0.930 . S
H368 C381 0.929 . S
H369 C379 0.929 . S
H370 C374 0.929 . S
H371 C380 0.929 . S
C372 H366 0.930 . S
C372 C373 1.367 . S
C372 C380 1.378 . S
C373 C372 1.367 . S
C373 C381 1.433 . S
C374 H370 0.929 . S
C374 C376 1.378 . S
C374 C378 1.350 . S
C375 C378 1.463 . S
C375 C380 1.350 . S
C375 N383 1.427 . S
C376 H367 0.930 . S
C376 C374 1.378 . S
C376 C377 1.367 . S
C377 C376 1.367 . S
C377 C379 1.433 . S
C378 C374 1.350 . S
C378 C375 1.463 . S
C378 N382 1.427 . S
C379 H369 0.929 . S
C379 C377 1.433 . S
C379 N382 1.384 . S
C380 H371 0.929 . S
C380 C372 1.378 . S
C380 C375 1.350 . S
C381 H368 0.929 . S
C381 C373 1.433 . S
C381 N383 1.384 . S
N382 C378 1.427 . S
N382 C379 1.384 . S
N383 C375 1.427 . S
N383 C381 1.384 . S
H384 C390 0.930 . S
H385 C394 0.930 . S
H386 C399 0.929 . S
H387 C397 0.929 . S
H388 C392 0.929 . S
H389 C398 0.929 . S
C390 H384 0.930 . S
C390 C391 1.367 . S
C390 C398 1.378 . S
C391 C390 1.367 . S
C391 C399 1.433 . S
C392 H388 0.929 . S
C392 C394 1.378 . S
C392 C396 1.350 . S
C393 C396 1.463 . S
C393 C398 1.350 . S
C393 N401 1.427 . S
C394 H385 0.930 . S
C394 C392 1.378 . S
C394 C395 1.367 . S
C395 C394 1.367 . S
C395 C397 1.433 . S
C396 C392 1.350 . S
C396 C393 1.463 . S
C396 N400 1.427 . S
C397 H387 0.929 . S
C397 C395 1.433 . S
C397 N400 1.384 . S
C398 H389 0.929 . S
C398 C390 1.378 . S
C398 C393 1.350 . S
C399 H386 0.929 . S
C399 C391 1.433 . S
C399 N401 1.384 . S
N400 C396 1.427 . S
N400 C397 1.384 . S
N401 C393 1.427 . S
N401 C399 1.384 . S
H402 C408 0.930 . S
H403 C412 0.930 . S
H404 C417 0.929 . S
H405 C415 0.929 . S
H406 C410 0.929 . S
H407 C416 0.929 . S
C408 H402 0.930 . S
C408 C409 1.367 . S
C408 C416 1.378 . S
C409 C408 1.367 . S
C409 C417 1.433 . S
C410 H406 0.929 . S
C410 C412 1.378 . S
C410 C414 1.350 . S
C411 C414 1.463 1_655 S
C411 C416 1.350 . S
C411 N419 1.427 . S
C412 H403 0.930 . S
C412 C410 1.378 . S
C412 C413 1.367 . S
C413 C412 1.367 . S
C413 C415 1.433 . S
C414 C410 1.350 . S
C414 C411 1.463 1_455 S
C414 N418 1.427 . S
C415 H405 0.929 . S
C415 C413 1.433 . S
C415 N418 1.384 . S
C416 H407 0.929 . S
C416 C408 1.378 . S
C416 C411 1.350 . S
C417 H404 0.929 . S
C417 C409 1.433 . S
C417 N419 1.384 . S
N418 C414 1.427 . S
N418 C415 1.384 . S
N419 C411 1.427 . S
N419 C417 1.384 . S
H420 C426 0.930 . S
H421 C430 0.930 . S
H422 C435 0.929 . S
H423 C433 0.929 . S
H424 C428 0.929 1_565 S
H425 C434 0.929 1_545 S
C426 H420 0.930 . S
C426 C427 1.367 . S
C426 C434 1.378 . S
C427 C426 1.367 . S
C427 C435 1.433 . S
C428 H424 0.929 1_545 S
C428 C430 1.378 . S
C428 C432 1.350 . S
C429 C432 1.463 1_564 S
C429 C434 1.350 . S
C429 N437 1.427 . S
C430 H421 0.930 . S
C430 C428 1.378 . S
C430 C431 1.367 . S
C431 C430 1.367 . S
C431 C433 1.433 . S
C432 C428 1.350 . S
C432 C429 1.463 1_546 S
C432 N436 1.427 . S
C433 H423 0.929 . S
C433 C431 1.433 . S
C433 N436 1.384 . S
C434 H425 0.929 1_565 S
C434 C426 1.378 . S
C434 C429 1.350 . S
C435 H422 0.929 . S
C435 C427 1.433 . S
C435 N437 1.384 . S
N436 C432 1.427 . S
N436 C433 1.384 . S
N437 C429 1.427 . S
N437 C435 1.384 . S
H438 C444 0.930 . S
H439 C448 0.930 . S
H440 C453 0.929 . S
H441 C451 0.929 . S
H442 C446 0.929 . S
H443 C452 0.929 . S
C444 H438 0.930 . S
C444 C445 1.367 . S
C444 C452 1.378 . S
C445 C444 1.367 . S
C445 C453 1.433 . S
C446 H442 0.929 . S
C446 C448 1.378 . S
C446 C450 1.350 . S
C447 C450 1.463 . S
C447 C452 1.350 . S
C447 N455 1.427 . S
C448 H439 0.930 . S
C448 C446 1.378 . S
C448 C449 1.367 . S
C449 C448 1.367 . S
C449 C451 1.433 . S
C450 C446 1.350 . S
C450 C447 1.463 . S
C450 N454 1.427 . S
C451 H441 0.929 . S
C451 C449 1.433 . S
C451 N454 1.384 . S
C452 H443 0.929 . S
C452 C444 1.378 . S
C452 C447 1.350 . S
C453 H440 0.929 . S
C453 C445 1.433 . S
C453 N455 1.384 . S
N454 C450 1.427 . S
N454 C451 1.384 . S
N455 C447 1.427 . S
N455 C453 1.384 . S
H456 C462 0.930 . S
H457 C466 0.930 . S
H458 C471 0.929 . S
H459 C469 0.929 . S
H460 C464 0.929 . S
H461 C470 0.929 . S
C462 H456 0.930 . S
C462 C463 1.367 . S
C462 C470 1.378 . S
C463 C462 1.367 . S
C463 C471 1.433 . S
C464 H460 0.929 . S
C464 C466 1.378 . S
C464 C468 1.350 . S
C465 C468 1.463 1_455 S
C465 C470 1.350 . S
C465 N473 1.440 . S
C466 H457 0.930 . S
C466 C464 1.378 . S
C466 C467 1.367 . S
C467 C466 1.367 . S
C467 C469 1.433 . S
C468 C464 1.350 . S
C468 C465 1.463 1_655 S
C468 N472 1.439 . S
C469 H459 0.929 . S
C469 C467 1.433 . S
C469 N472 1.397 . S
C470 H461 0.929 . S
C470 C462 1.378 . S
C470 C465 1.350 . S
C471 H458 0.929 . S
C471 C463 1.433 . S
C471 N473 1.397 . S
N472 C468 1.439 . S
N472 C469 1.397 . S
N473 C465 1.440 . S
N473 C471 1.397 . S
H474 C480 0.930 . S
H475 C484 0.930 . S
H476 C489 0.929 . S
H477 C487 0.929 . S
H478 C482 0.929 . S
H479 C488 0.929 . S
C480 H474 0.930 . S
C480 C481 1.367 . S
C480 C488 1.378 . S
C481 C480 1.367 . S
C481 C489 1.433 . S
C482 H478 0.929 . S
C482 C484 1.378 . S
C482 C486 1.350 . S
C483 C486 1.463 1_565 S
C483 C488 1.350 . S
C483 N491 1.427 . S
C484 H475 0.930 . S
C484 C482 1.378 . S
C484 C485 1.367 . S
C485 C484 1.367 . S
C485 C487 1.433 . S
C486 C482 1.350 . S
C486 C483 1.463 1_545 S
C486 N490 1.427 . S
C487 H477 0.929 . S
C487 C485 1.433 . S
C487 N490 1.384 . S
C488 H479 0.929 . S
C488 C480 1.378 . S
C488 C483 1.350 . S
C489 H476 0.929 . S
C489 C481 1.433 . S
C489 N491 1.384 . S
N490 C486 1.427 . S
N490 C487 1.384 . S
N491 C483 1.427 . S
N491 C489 1.384 . S
H492 C498 0.930 . S
H493 C502 0.930 . S
H494 C507 0.929 . S
H495 C505 0.929 . S
H496 C500 0.929 . S
H497 C506 0.929 . S
C498 H492 0.930 . S
C498 C499 1.367 . S
C498 C506 1.378 . S
C499 C498 1.367 . S
C499 C507 1.433 . S
C500 H496 0.929 . S
C500 C502 1.378 . S
C500 C504 1.350 . S
C501 C504 1.463 . S
C501 C506 1.350 . S
C501 N509 1.427 . S
C502 H493 0.930 . S
C502 C500 1.378 . S
C502 C503 1.367 . S
C503 C502 1.367 . S
C503 C505 1.433 . S
C504 C500 1.350 . S
C504 C501 1.463 . S
C504 N508 1.427 . S
C505 H495 0.929 . S
C505 C503 1.433 . S
C505 N508 1.384 . S
C506 H497 0.929 . S
C506 C498 1.378 . S
C506 C501 1.350 . S
C507 H494 0.929 . S
C507 C499 1.433 . S
C507 N509 1.384 . S
N508 C504 1.427 . S
N508 C505 1.384 . S
N509 C501 1.427 . S
N509 C507 1.384 . S
H510 C516 0.930 . S
H511 C520 0.930 . S
H512 C525 0.929 . S
H513 C523 0.929 . S
H514 C518 0.929 . S
H515 C524 0.929 . S
C516 H510 0.930 . S
C516 C517 1.367 . S
C516 C524 1.378 . S
C517 C516 1.367 . S
C517 C525 1.433 . S
C518 H514 0.929 . S
C518 C520 1.378 . S
C518 C522 1.350 . S
C519 C522 1.463 . S
C519 C524 1.350 . S
C519 N527 1.427 . S
C520 H511 0.930 . S
C520 C518 1.378 . S
C520 C521 1.367 . S
C521 C520 1.367 . S
C521 C523 1.433 . S
C522 C518 1.350 . S
C522 C519 1.463 . S
C522 N526 1.427 . S
C523 H513 0.929 . S
C523 C521 1.433 . S
C523 N526 1.384 . S
C524 H515 0.929 . S
C524 C516 1.378 . S
C524 C519 1.350 . S
C525 H512 0.929 . S
C525 C517 1.433 . S
C525 N527 1.384 . S
N526 C522 1.427 . S
N526 C523 1.384 . S
N527 C519 1.427 . S
N527 C525 1.384 . S
H528 C534 0.930 . S
H529 C538 0.930 . S
H530 C543 0.929 . S
H531 C541 0.929 . S
H532 C536 0.929 . S
H533 C542 0.929 . S
C534 H528 0.930 . S
C534 C535 1.367 1_556 S
C534 C542 1.378 . S
C535 C534 1.367 1_554 S
C535 C543 1.433 . S
C536 H532 0.929 . S
C536 C538 1.378 . S
C536 C540 1.350 . S
C537 C540 1.463 . S
C537 C542 1.350 . S
C537 N545 1.445 . S
C538 H529 0.930 . S
C538 C536 1.378 . S
C538 C539 1.367 . S
C539 C538 1.367 . S
C539 C541 1.433 . S
C540 C536 1.350 . S
C540 C537 1.463 . S
C540 N544 1.427 . S
C541 H531 0.929 . S
C541 C539 1.433 . S
C541 N544 1.384 . S
C542 H533 0.929 . S
C542 C534 1.378 . S
C542 C537 1.350 . S
C543 H530 0.929 . S
C543 C535 1.433 . S
C543 N545 1.373 1_554 S
N544 C540 1.427 . S
N544 C541 1.384 . S
N545 C537 1.445 . S
N545 C543 1.373 1_556 S
H546 C552 0.930 . S
H547 C556 0.930 . S
H548 C561 0.929 . S
H549 C559 0.929 . S
H550 C554 0.929 . S
H551 C560 0.929 . S
C552 H546 0.930 . S
C552 C553 1.367 . S
C552 C560 1.378 . S
C553 C552 1.367 . S
C553 C561 1.433 . S
C554 H550 0.929 . S
C554 C556 1.378 . S
C554 C558 1.350 . S
C555 C558 1.463 . S
C555 C560 1.350 . S
C555 N563 1.427 . S
C556 H547 0.930 . S
C556 C554 1.378 . S
C556 C557 1.367 1_554 S
C557 C556 1.367 1_556 S
C557 C559 1.433 . S
C558 C554 1.350 . S
C558 C555 1.463 . S
C558 N562 1.427 . S
C559 H549 0.929 . S
C559 C557 1.433 . S
C559 N562 1.384 1_556 S
C560 H551 0.929 . S
C560 C552 1.378 . S
C560 C555 1.350 . S
C561 H548 0.929 . S
C561 C553 1.433 . S
C561 N563 1.384 . S
N562 C558 1.427 . S
N562 C559 1.384 1_554 S
N563 C555 1.427 . S
N563 C561 1.384 . S
H564 C570 0.930 . S
H565 C574 0.930 . S
H566 C579 0.929 . S
H567 C577 0.929 . S
H568 C572 0.929 . S
H569 C578 0.929 . S
C570 H564 0.930 . S
C570 C571 1.367 . S
C570 C578 1.378 . S
C571 C570 1.367 . S
C571 C579 1.433 . S
C572 H568 0.929 . S
C572 C574 1.378 . S
C572 C576 1.350 . S
C573 C576 1.463 . S
C573 C578 1.350 . S
C573 N581 1.427 . S
C574 H565 0.930 . S
C574 C572 1.378 . S
C574 C575 1.367 . S
C575 C574 1.367 . S
C575 C577 1.433 . S
C576 C572 1.350 . S
C576 C573 1.463 . S
C576 N580 1.427 . S
C577 H567 0.929 . S
C577 C575 1.433 . S
C577 N580 1.384 . S
C578 H569 0.929 . S
C578 C570 1.378 . S
C578 C573 1.350 . S
C579 H566 0.929 . S
C579 C571 1.433 . S
C579 N581 1.384 . S
N580 C576 1.427 . S
N580 C577 1.384 . S
N581 C573 1.427 . S
N581 C579 1.384 . S
H582 C588 0.930 . S
H583 C592 0.930 . S
H584 C597 0.929 . S
H585 C595 0.929 . S
H586 C590 0.929 . S
H587 C596 0.929 . S
C588 H582 0.930 . S
C588 C589 1.367 . S
C588 C596 1.378 . S
C589 C588 1.367 . S
C589 C597 1.433 . S
C590 H586 0.929 . S
C590 C592 1.378 . S
C590 C594 1.350 . S
C591 C594 1.463 . S
C591 C596 1.350 . S
C591 N599 1.427 . S
C592 H583 0.930 . S
C592 C590 1.378 . S
C592 C593 1.367 . S
C593 C592 1.367 . S
C593 C595 1.433 . S
C594 C590 1.350 . S
C594 C591 1.463 . S
C594 N598 1.427 . S
C595 H585 0.929 . S
C595 C593 1.433 . S
C595 N598 1.384 . S
C596 H587 0.929 . S
C596 C588 1.378 . S
C596 C591 1.350 . S
C597 H584 0.929 . S
C597 C589 1.433 . S
C597 N599 1.384 . S
N598 C594 1.427 . S
N598 C595 1.384 . S
N599 C591 1.427 . S
N599 C597 1.384 . S
C175 C138 1.290 . S
C179 C12 1.295 . S
C193 C26 1.285 . S
C197 C152 1.291 . S
C211 C166 1.285 . S
C215 C40 1.289 . S
C229 C96 1.295 . S
C233 C54 1.287 . S
C247 C110 1.293 . S
C251 C68 1.284 . S
C265 C124 1.284 . S
C269 C82 1.292 . S
C283 C95 1.469 . S
C287 C11 1.463 . S
C301 C25 1.472 . S
C305 C109 1.458 . S
C319 C123 1.465 . S
C323 C39 1.463 . S
C337 C53 1.472 . S
C341 C137 1.459 . S
C355 C151 1.465 . S
C359 C67 1.467 . S
C373 C81 1.472 . S
C377 C165 1.458 . S
C391 C130 1.035 . S
C395 C4 1.044 . S
C409 C144 1.033 . S
C413 C18 1.044 . S
C427 C158 1.032 . S
C431 C32 1.023 . S
C445 C46 1.044 . S
C449 C88 1.028 . S
C463 C102 1.036 . S
C467 C60 1.043 . S
C481 C74 1.024 . S
C485 C116 1.039 . S
C499 C5 1.243 . S
C503 C117 1.251 . S
C517 C131 1.244 . S
C521 C19 1.255 . S
C535 C145 1.265 . S
C539 C33 1.267 . S
C553 C159 1.256 . S
C557 C47 1.268 . S
C571 C89 1.266 . S
C575 C61 1.251 . S
C589 C103 1.257 . S
C593 C75 1.244 . S
