# Generated by pormake.
# Topology wns, (7)-cn, num edge types: 1
# Building blocks:
#     Node 0, Type 0, BuildingBlock: NUHQUE_clean_sbu_2, # of connection points: 7
#     Node 1, Type 0, BuildingBlock: NUHQUE_clean_sbu_2, # of connection points: 7
#     Node 2, Type 0, BuildingBlock: NUHQUE_clean_sbu_2, # of connection points: 7
#     Node 3, Type 0, BuildingBlock: NUHQUE_clean_sbu_2, # of connection points: 7
#     Node 4, Type 0, BuildingBlock: NUHQUE_clean_sbu_2, # of connection points: 7
#     Node 5, Type 0, BuildingBlock: NUHQUE_clean_sbu_2, # of connection points: 7
#     Node 6, Type 0, BuildingBlock: NUHQUE_clean_sbu_2, # of connection points: 7
#     Node 7, Type 0, BuildingBlock: NUHQUE_clean_sbu_2, # of connection points: 7
#     Node 8, Type 0, BuildingBlock: NUHQUE_clean_sbu_2, # of connection points: 7
#     Node 9, Type 0, BuildingBlock: NUHQUE_clean_sbu_2, # of connection points: 7
#     Node 10, Type 0, BuildingBlock: NUHQUE_clean_sbu_2, # of connection points: 7
#     Node 11, Type 0, BuildingBlock: NUHQUE_clean_sbu_2, # of connection points: 7
#     Edge 12, Type (0, 0), BuildingBlock: KIFKEQ_clean_linker_1, # of connection points: 2
#     Edge 13, Type (0, 0), BuildingBlock: KIFKEQ_clean_linker_1, # of connection points: 2
#     Edge 14, Type (0, 0), BuildingBlock: KIFKEQ_clean_linker_1, # of connection points: 2
#     Edge 15, Type (0, 0), BuildingBlock: KIFKEQ_clean_linker_1, # of connection points: 2
#     Edge 16, Type (0, 0), BuildingBlock: KIFKEQ_clean_linker_1, # of connection points: 2
#     Edge 17, Type (0, 0), BuildingBlock: KIFKEQ_clean_linker_1, # of connection points: 2
#     Edge 18, Type (0, 0), BuildingBlock: KIFKEQ_clean_linker_1, # of connection points: 2
#     Edge 19, Type (0, 0), BuildingBlock: KIFKEQ_clean_linker_1, # of connection points: 2
#     Edge 20, Type (0, 0), BuildingBlock: KIFKEQ_clean_linker_1, # of connection points: 2
#     Edge 21, Type (0, 0), BuildingBlock: KIFKEQ_clean_linker_1, # of connection points: 2
#     Edge 22, Type (0, 0), BuildingBlock: KIFKEQ_clean_linker_1, # of connection points: 2
#     Edge 23, Type (0, 0), BuildingBlock: KIFKEQ_clean_linker_1, # of connection points: 2
#     Edge 24, Type (0, 0), BuildingBlock: KIFKEQ_clean_linker_1, # of connection points: 2
#     Edge 25, Type (0, 0), BuildingBlock: KIFKEQ_clean_linker_1, # of connection points: 2
#     Edge 26, Type (0, 0), BuildingBlock: KIFKEQ_clean_linker_1, # of connection points: 2
#     Edge 27, Type (0, 0), BuildingBlock: KIFKEQ_clean_linker_1, # of connection points: 2
#     Edge 28, Type (0, 0), BuildingBlock: KIFKEQ_clean_linker_1, # of connection points: 2
#     Edge 29, Type (0, 0), BuildingBlock: KIFKEQ_clean_linker_1, # of connection points: 2
#     Edge 30, Type (0, 0), BuildingBlock: KIFKEQ_clean_linker_1, # of connection points: 2
#     Edge 31, Type (0, 0), BuildingBlock: KIFKEQ_clean_linker_1, # of connection points: 2
#     Edge 32, Type (0, 0), BuildingBlock: KIFKEQ_clean_linker_1, # of connection points: 2
#     Edge 33, Type (0, 0), BuildingBlock: KIFKEQ_clean_linker_1, # of connection points: 2
#     Edge 34, Type (0, 0), BuildingBlock: KIFKEQ_clean_linker_1, # of connection points: 2
#     Edge 35, Type (0, 0), BuildingBlock: KIFKEQ_clean_linker_1, # of connection points: 2
#     Edge 36, Type (0, 0), BuildingBlock: KIFKEQ_clean_linker_1, # of connection points: 2
#     Edge 37, Type (0, 0), BuildingBlock: KIFKEQ_clean_linker_1, # of connection points: 2
#     Edge 38, Type (0, 0), BuildingBlock: KIFKEQ_clean_linker_1, # of connection points: 2
#     Edge 39, Type (0, 0), BuildingBlock: KIFKEQ_clean_linker_1, # of connection points: 2
#     Edge 40, Type (0, 0), BuildingBlock: KIFKEQ_clean_linker_1, # of connection points: 2
#     Edge 41, Type (0, 0), BuildingBlock: KIFKEQ_clean_linker_1, # of connection points: 2
#     Edge 42, Type (0, 0), BuildingBlock: KIFKEQ_clean_linker_1, # of connection points: 2
#     Edge 43, Type (0, 0), BuildingBlock: KIFKEQ_clean_linker_1, # of connection points: 2
#     Edge 44, Type (0, 0), BuildingBlock: KIFKEQ_clean_linker_1, # of connection points: 2
#     Edge 45, Type (0, 0), BuildingBlock: KIFKEQ_clean_linker_1, # of connection points: 2
#     Edge 46, Type (0, 0), BuildingBlock: KIFKEQ_clean_linker_1, # of connection points: 2
#     Edge 47, Type (0, 0), BuildingBlock: KIFKEQ_clean_linker_1, # of connection points: 2
#     Edge 48, Type (0, 0), BuildingBlock: KIFKEQ_clean_linker_1, # of connection points: 2
#     Edge 49, Type (0, 0), BuildingBlock: KIFKEQ_clean_linker_1, # of connection points: 2
#     Edge 50, Type (0, 0), BuildingBlock: KIFKEQ_clean_linker_1, # of connection points: 2
#     Edge 51, Type (0, 0), BuildingBlock: KIFKEQ_clean_linker_1, # of connection points: 2
#     Edge 52, Type (0, 0), BuildingBlock: KIFKEQ_clean_linker_1, # of connection points: 2
#     Edge 53, Type (0, 0), BuildingBlock: KIFKEQ_clean_linker_1, # of connection points: 2
# Relax obj value: 0.184
# Max RMSD: 0.260
# Mean RMSD: 0.260
data_MOF--net-wns--node1-NUHQUE_clean_sbu_2--edge1-KIFKEQ_clean_linker_1
_symmetry_space_group_name_H-M    P1
_symmetry_Int_Tables_number       1
_symmetry_cell_setting            triclinic
loop_
_symmetry_equiv_pos_as_xyz
'x, y, z'
_cell_length_a     48.655086
_cell_length_b     48.77587
_cell_length_c     36.478103
_cell_angle_alpha  90.018305
_cell_angle_beta   90.047548
_cell_angle_gamma 119.72865
loop_
_atom_site_label
_atom_site_type_symbol
_atom_site_fract_x
_atom_site_fract_y
_atom_site_fract_z
_atom_type_partial_charge
O0 O 0.4807 0.25411 0.95302 0.0
Tb1 Tb 0.481 0.24647 0.01193 0.0
Eu2 Eu 0.43911 0.24303 0.09916 0.0
C3 C 0.45429 0.24088 0.93379 0.0
O4 O 0.42716 0.22478 0.95096 0.0
C5 C 0.42982 0.18578 0.048 0.0
O6 O 0.43857 0.24386 0.16104 0.0
C7 C 0.39443 0.25326 0.07554 0.0
C8 C 0.46388 0.25006 0.18027 0.0
O9 O 0.48996 0.25606 0.16299 0.0
C10 C 0.50081 0.30154 0.0643 0.0
C11 C 0.38105 0.27438 0.08188 0.0
C12 C 0.36807 0.28248 0.05198 0.0
C13 C 0.35241 0.29975 0.05775 0.0
C14 C 0.35073 0.30977 0.09315 0.0
C15 C 0.36235 0.30116 0.12359 0.0
C16 C 0.37811 0.28383 0.11771 0.0
O17 O 0.43536 0.20493 0.02029 0.0
O18 O 0.43415 0.1961 0.08203 0.0
O19 O 0.51953 0.23884 0.99396 0.0
O20 O 0.51339 0.24225 0.05094 0.0
C21 C 0.53058 0.23843 0.02626 0.0
O22 O 0.48848 0.28508 0.09444 0.0
O23 O 0.48739 0.29085 0.03226 0.0
O24 O 0.39061 0.23342 0.10198 0.0
O25 O 0.42223 0.2652 0.05951 0.0
H26 H 0.36907 0.27434 0.02462 0.0
H27 H 0.3395 0.324 0.09692 0.0
H28 H 0.38693 0.27666 0.14095 0.0
O29 O 0.80535 0.27832 0.96951 0.0
Tb30 Tb 0.78807 0.27268 0.02544 0.0
Eu31 Eu 0.76732 0.18762 0.08975 0.0
C32 C 0.80721 0.25562 0.95226 0.0
O33 O 0.8003 0.22955 0.97 0.0
C34 C 0.8285 0.24605 0.05461 0.0
O35 O 0.77707 0.19837 0.14975 0.0
C36 C 0.74501 0.12738 0.08038 0.0
C37 C 0.78348 0.22567 0.1639 0.0
O38 O 0.78366 0.24749 0.14263 0.0
C39 C 0.72731 0.21867 0.05878 0.0
C40 C 0.71976 0.09555 0.09138 0.0
C41 C 0.70633 0.07184 0.06448 0.0
C42 C 0.68461 0.04056 0.0742 0.0
C43 C 0.6761 0.03317 0.11109 0.0
C44 C 0.68984 0.05621 0.13849 0.0
C45 C 0.71162 0.08751 0.12852 0.0
O46 O 0.81453 0.26186 0.06479 0.0
O47 O 0.81445 0.21548 0.06075 0.0
O48 O 0.76235 0.29877 0.03104 0.0
O49 O 0.80944 0.31895 0.05147 0.0
C50 C 0.78531 0.32328 0.04727 0.0
O51 O 0.72933 0.20184 0.08589 0.0
O52 O 0.74684 0.22602 0.03095 0.0
O53 O 0.76611 0.14424 0.10538 0.0
O54 O 0.73754 0.14429 0.05873 0.0
H55 H 0.71344 0.07756 0.03607 0.0
H56 H 0.66037 1.00881 0.11886 0.0
H57 H 0.72275 0.10528 0.1497 0.0
O58 O 0.76055 0.56195 0.97625 0.0
Tb59 Tb 0.76496 0.54762 0.03132 0.0
Eu60 Eu 0.84932 0.6133 0.10212 0.0
C61 C 0.78483 0.58514 0.95939 0.0
O62 O 0.8114 0.60185 0.97753 0.0
C63 C 0.79084 0.61186 0.06673 0.0
O64 O 0.84059 0.6106 0.16264 0.0
C65 C 0.90907 0.64955 0.0895 0.0
C66 C 0.81437 0.58792 0.17688 0.0
O67 O 0.79294 0.56635 0.15526 0.0
C68 C 0.819 0.54311 0.06781 0.0
C69 C 0.93982 0.65209 0.09828 0.0
C70 C 0.96119 0.65777 0.06967 0.0
C71 C 0.99163 0.66279 0.07703 0.0
C72 C 1.00036 0.6614 0.11337 0.0
C73 C 0.97948 0.65625 0.14235 0.0
C74 C 0.94912 0.6515 0.13473 0.0
O75 O 0.78053 0.58219 0.07427 0.0
O76 O 0.81972 0.63213 0.07682 0.0
O77 O 0.74001 0.4962 0.0347 0.0
O78 O 0.71918 0.52187 0.05806 0.0
C79 C 0.71558 0.49392 0.05226 0.0
O80 O 0.8346 0.56131 0.09595 0.0
O81 O 0.81244 0.55527 0.03927 0.0
O82 O 0.89402 0.65418 0.11657 0.0
O83 O 0.89031 0.62678 0.06699 0.0
H84 H 0.95438 0.65911 0.0417 0.0
H85 H 0.02429 0.66658 0.11942 0.0
H86 H 0.93314 0.64799 0.1572 0.0
O87 O 0.24991 0.46558 0.55101 0.0
Tb88 Tb 0.25351 0.47077 0.49184 0.0
Eu89 Eu 0.25501 0.43567 0.40858 0.0
C90 C 0.27329 0.46934 0.57239 0.0
O91 O 0.30086 0.47681 0.55795 0.0
C92 C 0.19407 0.41453 0.45922 0.0
O93 O 0.25268 0.43835 0.34701 0.0
C94 C 0.26985 0.39243 0.42558 0.0
C95 C 0.27555 0.44102 0.32547 0.0
O96 O 0.30144 0.44371 0.34013 0.0
C97 C 0.31273 0.49709 0.44454 0.0
C98 C 0.29293 0.38164 0.4167 0.0
C99 C 0.30391 0.36915 0.44455 0.0
C100 C 0.32264 0.35536 0.43554 0.0
C101 C 0.33151 0.35559 0.39897 0.0
C102 C 0.32048 0.36722 0.37107 0.0
C103 C 0.30102 0.37998 0.37988 0.0
O104 O 0.21342 0.4233 0.48731 0.0
O105 O 0.20529 0.42377 0.42594 0.0
O106 O 0.25265 0.51372 0.50599 0.0
O107 O 0.23704 0.49412 0.45289 0.0
C108 C 0.24162 0.51716 0.47489 0.0
O109 O 0.29598 0.48596 0.41421 0.0
O110 O 0.30115 0.48284 0.47599 0.0
O111 O 0.24995 0.38944 0.39947 0.0
O112 O 0.27958 0.41849 0.44474 0.0
H113 H 0.29658 0.36868 0.47269 0.0
H114 H 0.34575 0.3449 0.39183 0.0
H115 H 0.29149 0.38768 0.35789 0.0
O116 O 0.54872 0.77572 0.54648 0.0
Tb117 Tb 0.54759 0.7753 0.48713 0.0
Eu118 Eu 0.59324 0.82356 0.41013 0.0
C119 C 0.57291 0.79734 0.56508 0.0
O120 O 0.59666 0.82037 0.54742 0.0
C121 C 0.6066 0.77356 0.45547 0.0
O122 O 0.59547 0.82626 0.34843 0.0
C123 C 0.63372 0.87948 0.43531 0.0
C124 C 0.57106 0.80718 0.32811 0.0
O125 O 0.54473 0.78637 0.34413 0.0
C126 C 0.52982 0.81642 0.44241 0.0
C127 C 0.64208 0.91312 0.43098 0.0
C128 C 0.65357 0.93385 0.46134 0.0
C129 C 0.66336 0.96611 0.45701 0.0
C130 C 0.66179 0.97748 0.42236 0.0
C131 C 0.6527 0.95799 0.39126 0.0
C132 C 0.64192 0.92552 0.39597 0.0
O133 O 0.59283 0.77685 0.48483 0.0
O134 O 0.60497 0.78483 0.42312 0.0
O135 O 0.50199 0.73427 0.50004 0.0
O136 O 0.52192 0.73639 0.44764 0.0
C137 C 0.4979 0.71942 0.46916 0.0
O138 O 0.54251 0.81379 0.41175 0.0
O139 O 0.54262 0.81582 0.47378 0.0
O140 O 0.63894 0.86626 0.4068 0.0
O141 O 0.60732 0.86023 0.45253 0.0
H142 H 0.65556 0.9251 0.48795 0.0
H143 H 0.6694 1.00237 0.41947 0.0
H144 H 0.6349 0.91016 0.37222 0.0
O145 O 0.24375 0.76491 0.54945 0.0
Tb146 Tb 0.24952 0.76659 0.49042 0.0
Eu147 Eu 0.21591 0.76875 0.40865 0.0
C148 C 0.22052 0.76728 0.56464 0.0
O149 O 0.19976 0.76939 0.54353 0.0
C150 C 0.2601 0.82841 0.45695 0.0
O151 O 0.21076 0.76792 0.34693 0.0
C152 C 0.16246 0.75894 0.43681 0.0
C153 C 0.2233 0.75564 0.32504 0.0
O154 O 0.23947 0.74324 0.33926 0.0
C155 C 0.21522 0.70807 0.44227 0.0
C156 C 0.12821 0.73696 0.43132 0.0
C157 C 0.10698 0.72851 0.46105 0.0
C158 C 0.07421 0.70945 0.45519 0.0
C159 C 0.06287 0.69859 0.4198 0.0
C160 C 0.08359 0.70693 0.39001 0.0
C161 C 0.11625 0.72603 0.39588 0.0
O162 O 0.24665 0.80929 0.48473 0.0
O163 O 0.25716 0.81677 0.42371 0.0
O164 O 0.2936 0.76834 0.50612 0.0
O165 O 0.28829 0.77946 0.45116 0.0
C166 C 0.30728 0.77678 0.47428 0.0
O167 O 0.2225 0.72572 0.41254 0.0
O168 O 0.21343 0.71968 0.47408 0.0
O169 O 0.17709 0.77864 0.40984 0.0
O170 O 0.17932 0.74739 0.45114 0.0
H171 H 0.11581 0.73732 0.48833 0.0
H172 H 0.03755 0.68441 0.41525 0.0
H173 H 0.13227 0.73273 0.37273 0.0
O174 O 0.55536 0.79857 0.03349 0.0
Tb175 Tb 0.53976 0.77758 0.97968 0.0
Eu176 Eu 0.60084 0.77136 0.91798 0.0
C177 C 0.57561 0.79437 0.05316 0.0
O178 O 0.58935 0.7796 0.0386 0.0
C179 C 0.60019 0.83234 0.94937 0.0
O180 O 0.59668 0.7824 0.85914 0.0
C181 C 0.64225 0.75288 0.92394 0.0
C182 C 0.58818 0.76008 0.83436 0.0
O183 O 0.58202 0.73182 0.84484 0.0
C184 C 0.53581 0.71919 0.94958 0.0
C185 C 0.64793 0.72733 0.91132 0.0
C186 C 0.65718 0.71203 0.93706 0.0
C187 C 0.66525 0.68939 0.92574 0.0
C188 C 0.66344 0.6818 0.88843 0.0
C189 C 0.65474 0.69712 0.86232 0.0
C190 C 0.64689 0.71986 0.87384 0.0
O191 O 0.56945 0.81718 0.94491 0.0
O192 O 0.61611 0.81698 0.94941 0.0
O193 O 0.49474 0.76872 1.00228 0.0
O194 O 0.4984 0.76442 0.94478 0.0
C195 C 0.47969 0.76263 0.97128 0.0
O196 O 0.55151 0.72877 0.91871 0.0
O197 O 0.54711 0.73766 0.9781 0.0
O198 O 0.64391 0.77318 0.8991 0.0
O199 O 0.61947 0.74538 0.94802 0.0
H200 H 0.65888 0.71836 0.9658 0.0
H201 H 0.67115 0.66555 0.87926 0.0
H202 H 0.64076 0.73216 0.85353 0.0
O203 O 0.22037 0.74932 0.02876 0.0
Tb204 Tb 0.24336 0.75465 0.97602 0.0
Eu205 Eu 0.25784 0.83099 0.91411 0.0
C206 C 0.22771 0.7739 0.04986 0.0
O207 O 0.24594 0.80236 0.03668 0.0
C208 C 0.19431 0.76797 0.94154 0.0
O209 O 0.25322 0.82106 0.8535 0.0
C210 C 0.27672 0.89012 0.92647 0.0
C211 C 0.22554 0.80408 0.83763 0.0
O212 O 0.19969 0.79281 0.85752 0.0
C213 C 0.30292 0.80932 0.94785 0.0
C214 C 0.30292 0.92211 0.91781 0.0
C215 C 0.31801 0.94371 0.94657 0.0
C216 C 0.34211 0.97462 0.9391 0.0
C217 C 0.35087 0.98394 0.90263 0.0
C218 C 0.33547 0.96313 0.87355 0.0
C219 C 0.31163 0.93208 0.88128 0.0
O220 O 0.2083 0.75115 0.93704 0.0
O221 O 0.21042 0.79916 0.94146 0.0
O222 O 0.25139 0.71778 0.99872 0.0
O223 O 0.25341 0.72399 0.9411 0.0
C224 C 0.25537 0.70722 0.96765 0.0
O225 O 0.29892 0.82184 0.918 0.0
O226 O 0.28233 0.80209 0.97415 0.0
O227 O 0.25753 0.87391 0.89949 0.0
O228 O 0.28305 0.87273 0.94875 0.0
H229 H 0.31076 0.9366 0.97468 0.0
H230 H 0.36849 1.00822 0.89675 0.0
H231 H 0.29967 0.91593 0.85882 0.0
O232 O 0.26936 0.45584 0.02953 0.0
Tb233 Tb 0.26575 0.47323 0.97585 0.0
Eu234 Eu 0.18958 0.41601 0.91629 0.0
C235 C 0.24476 0.44133 0.05137 0.0
O236 O 0.21659 0.43412 0.03904 0.0
C237 C 0.24925 0.40862 0.94408 0.0
O238 O 0.2024 0.41912 0.85656 0.0
C239 C 0.129 0.37868 0.92539 0.0
C240 C 0.23019 0.44116 0.84475 0.0
O241 O 0.2507 0.46119 0.8684 0.0
C242 C 0.21415 0.48441 0.948 0.0
C243 C 0.09694 0.37395 0.91741 0.0
C244 C 0.07498 0.36552 0.94636 0.0
C245 C 0.04372 0.35833 0.93932 0.0
C246 C 0.03449 0.35972 0.90346 0.0
C247 C 0.05498 0.36551 0.87378 0.0
C248 C 0.08661 0.37355 0.88103 0.0
O249 O 0.26831 0.43911 0.94017 0.0
O250 O 0.21811 0.39622 0.94416 0.0
O251 O 0.30614 0.51529 0.99845 0.0
O252 O 0.29744 0.51358 0.94128 0.0
C253 C 0.31623 0.53046 0.96774 0.0
O254 O 0.20194 0.46728 0.91842 0.0
O255 O 0.22087 0.47186 0.97577 0.0
O256 O 0.14518 0.37636 0.89789 0.0
O257 O 0.14682 0.40052 0.94938 0.0
H258 H 0.08184 0.36346 0.97405 0.0
H259 H 1.01026 0.35412 0.89859 0.0
H260 H 0.10262 0.37781 0.85838 0.0
O261 O 0.79394 0.55072 0.46792 0.0
Tb262 Tb 0.79522 0.54799 0.52693 0.0
Eu263 Eu 0.79664 0.60542 0.60077 0.0
C264 C 0.797 0.57615 0.45184 0.0
O265 O 0.801 0.60017 0.47205 0.0
C266 C 0.85914 0.60792 0.55734 0.0
O267 O 0.79708 0.61035 0.66237 0.0
C268 C 0.78035 0.64401 0.5713 0.0
C269 C 0.79385 0.58706 0.68346 0.0
O270 O 0.79153 0.56164 0.66806 0.0
C271 C 0.74252 0.5411 0.57415 0.0
C272 C 0.7543 0.65146 0.5742 0.0
C273 C 0.74285 0.65929 0.54254 0.0
C274 C 0.71879 0.66724 0.5456 0.0
C275 C 0.70672 0.66777 0.5802 0.0
C276 C 0.71878 0.66164 0.61209 0.0
C277 C 0.74207 0.65272 0.60884 0.0
O278 O 0.84337 0.58641 0.53193 0.0
O279 O 0.84633 0.61554 0.58491 0.0
O280 O 0.78088 0.49893 0.51475 0.0
O281 O 0.80223 0.51791 0.56631 0.0
C282 C 0.79039 0.49288 0.54546 0.0
O283 O 0.75499 0.55574 0.60492 0.0
O284 O 0.75712 0.55508 0.54407 0.0
O285 O 0.79907 0.65104 0.59997 0.0
O286 O 0.77367 0.61691 0.55623 0.0
H287 H 0.75267 0.65936 0.51586 0.0
H288 H 0.68819 0.67392 0.58226 0.0
H289 H 0.75155 0.64791 0.63336 0.0
O290 O 0.48691 0.27128 0.47513 0.0
Tb291 Tb 0.4993 0.2702 0.53217 0.0
Eu292 Eu 0.44146 0.19211 0.5797 0.0
C293 C 0.4665 0.24591 0.45711 0.0
O294 O 0.45111 0.21888 0.47455 0.0
C295 C 0.432 0.25024 0.55478 0.0
O296 O 0.43975 0.1994 0.64069 0.0
C297 C 0.40574 0.13224 0.56467 0.0
C298 C 0.46034 0.22575 0.65706 0.0
O299 O 0.4823 0.24866 0.63732 0.0
C300 C 0.51339 0.21757 0.55363 0.0
C301 C 0.39926 0.09985 0.57373 0.0
C302 C 0.39236 0.07769 0.54523 0.0
C303 C 0.38349 0.04616 0.55341 0.0
C304 C 0.38106 0.03692 0.59014 0.0
C305 C 0.38601 0.05794 0.61888 0.0
C306 C 0.39601 0.08969 0.61054 0.0
O307 O 0.46143 0.26874 0.56463 0.0
O308 O 0.42116 0.21971 0.55093 0.0
O309 O 0.53373 0.31844 0.51739 0.0
O310 O 0.54163 0.29903 0.56575 0.0
C311 C 0.55261 0.32407 0.54507 0.0
O312 O 0.49353 0.20532 0.58132 0.0
O313 O 0.5064 0.22996 0.52574 0.0
O314 O 0.39926 0.14727 0.59009 0.0
O315 O 0.43133 0.1509 0.54576 0.0
H316 H 0.39335 0.08482 0.5169 0.0
H317 H 0.37378 0.01252 0.59639 0.0
H318 H 0.39968 0.10604 0.63261 0.0
O319 O 0.79084 0.25016 0.4564 0.0
Tb320 Tb 0.78493 0.24152 0.51487 0.0
Eu321 Eu 0.82876 0.24711 0.59479 0.0
C322 C 0.81143 0.2459 0.43759 0.0
O323 O 0.82981 0.2375 0.45484 0.0
C324 C 0.78552 0.18426 0.5492 0.0
O325 O 0.83342 0.25082 0.65642 0.0
C326 C 0.88448 0.2631 0.56753 0.0
C327 C 0.81248 0.2539 0.67613 0.0
O328 O 0.78898 0.25469 0.65935 0.0
C329 C 0.81825 0.30157 0.56114 0.0
C330 C 0.91819 0.28705 0.57456 0.0
C331 C 0.94111 0.29644 0.54638 0.0
C332 C 0.97341 0.31727 0.55412 0.0
C333 C 0.98253 0.32853 0.58991 0.0
C334 C 0.96034 0.31871 0.61833 0.0
C335 C 0.92818 0.29832 0.61045 0.0
O336 O 0.79361 0.20208 0.51982 0.0
O337 O 0.78988 0.19698 0.58203 0.0
O338 O 0.73653 0.22687 0.49811 0.0
O339 O 0.74808 0.23538 0.5546 0.0
C340 C 0.72551 0.22724 0.53043 0.0
O341 O 0.81595 0.2859 0.59143 0.0
O342 O 0.81919 0.28975 0.52913 0.0
O343 O 0.87052 0.24183 0.59333 0.0
O344 O 0.8659 0.27292 0.55375 0.0
H345 H 0.93403 0.28695 0.51897 0.0
H346 H 1.00747 0.34351 0.59611 0.0
H347 H 0.91105 0.29047 0.63256 0.0
H348 H 0.40468 0.01301 0.9529 0.0
H349 H 0.31184 0.99143 0.98975 0.0
H350 H 0.42828 0.06197 0.98824 0.0
H351 H 0.33543 0.04073 0.02494 0.0
H352 H 0.3948 0.13355 0.09147 0.0
H353 H 0.37506 0.07794 0.07469 0.0
H354 H 0.4212 0.10776 0.96953 0.0
H355 H 0.44039 0.16245 0.98586 0.0
C356 C 0.38946 0.01834 0.96951 0.0
C357 C 0.35648 0.99875 0.9683 0.0
C358 C 0.40291 0.04635 0.98962 0.0
C359 C 0.38361 0.0554 0.00872 0.0
C360 C 0.35086 0.03428 0.01054 0.0
C361 C 0.33737 1.00608 0.99043 0.0
C362 C 0.40086 0.12805 0.06496 0.0
C363 C 0.4189 0.15226 0.03985 0.0
C364 C 0.38957 0.09634 0.05538 0.0
C365 C 0.39689 0.08858 0.02098 0.0
C366 C 0.41561 0.11297 0.99647 0.0
C367 C 0.42632 0.14434 0.0057 0.0
H368 H 0.87242 0.22685 0.0576 0.0
H369 H 0.85942 0.30385 0.02132 0.0
H370 H 0.92732 0.25543 0.0379 0.0
H371 H 0.9138 0.33178 0.99924 0.0
H372 H 1.01793 0.38687 0.98006 0.0
H373 H 0.96729 0.3604 0.01252 0.0
H374 H 0.95939 0.27001 0.98744 0.0
H375 H 1.01065 0.29688 0.95739 0.0
C376 C 0.88121 0.24975 0.04486 0.0
C377 C 0.86151 0.26301 0.04084 0.0
C378 C 0.91279 0.2662 0.03339 0.0
C379 C 0.92542 0.29612 0.01676 0.0
C380 C 0.90546 0.30922 0.01261 0.0
C381 C 0.87404 0.29303 0.02485 0.0
C382 C 1.00581 0.36143 0.98305 0.0
C383 C 0.0184 0.34389 0.96712 0.0
C384 C 0.97644 0.34611 1.00091 0.0
C385 C 0.95865 0.31284 1.00233 0.0
C386 C 0.97226 0.29556 0.98768 0.0
C387 C 1.0018 0.31092 0.97048 0.0
H388 H 0.72744 0.57853 0.05427 0.0
H389 H 0.81076 0.6681 0.03179 0.0
H390 H 0.69472 0.59629 0.0234 0.0
H391 H 0.77814 0.6858 1.00021 0.0
H392 H 0.70978 0.72073 0.97866 0.0
H393 H 0.73895 0.701 0.01387 0.0
H394 H 0.68326 0.60912 0.96396 0.0
H395 H 0.65311 0.62846 0.93018 0.0
C396 C 0.73884 0.60178 0.04206 0.0
C397 C 0.77166 0.62181 0.04518 0.0
C398 C 0.72007 0.61203 0.02448 0.0
C399 C 0.73376 0.64256 0.00958 0.0
C400 C 0.76675 0.66238 0.01208 0.0
C401 C 0.78549 0.65215 0.02985 0.0
C402 C 0.70317 0.69609 0.97602 0.0
C403 C 0.67924 0.67617 0.95154 0.0
C404 C 0.72025 0.68493 0.99569 0.0
C405 C 0.71381 0.65365 0.99122 0.0
C406 C 0.6888 0.63332 0.96813 0.0
C407 C 0.67164 0.64444 0.94861 0.0
H408 H 0.14517 0.40978 0.41638 0.0
H409 H 0.16429 0.37735 0.51824 0.0
H410 H 0.08849 0.38263 0.43146 0.0
H411 H 0.10805 0.35006 0.5329 0.0
H412 H 1.00375 0.28454 0.54026 0.0
H413 H 0.05569 0.30485 0.51139 0.0
H414 H 0.05495 0.39008 0.48147 0.0
H415 H 1.00302 0.36966 0.5108 0.0
C416 C 0.13727 0.39647 0.44166 0.0
C417 C 0.15933 0.39577 0.4661 0.0
C418 C 0.10483 0.38107 0.45038 0.0
C419 C 0.09367 0.36403 0.48332 0.0
C420 C 0.11569 0.36259 0.5071 0.0
C421 C 0.14803 0.37842 0.49876 0.0
C422 C 1.01416 0.30704 0.5262 0.0
C423 C 0.9991 0.32525 0.52708 0.0
C424 C 0.04408 0.31888 0.51009 0.0
C425 C 0.05964 0.34922 0.49436 0.0
C426 C 0.04355 0.36653 0.49303 0.0
C427 C 1.01373 0.3548 0.50959 0.0
H428 H 0.66059 0.63523 0.51491 0.0
H429 H 0.74835 0.72341 0.50937 0.0
H430 H 0.6334 0.65933 0.48371 0.0
H431 H 0.72115 0.74778 0.47813 0.0
H432 H 0.65597 0.77741 0.41396 0.0
H433 H 0.68509 0.74868 0.42408 0.0
H434 H 0.62466 0.70064 0.51624 0.0
H435 H 0.59627 0.72925 0.5067 0.0
C436 C 0.67436 0.65933 0.50525 0.0
C437 C 0.70659 0.67739 0.51424 0.0
C438 C 0.65875 0.67327 0.48783 0.0
C439 C 0.67503 0.7056 0.47908 0.0
C440 C 0.708 0.7228 0.48441 0.0
C441 C 0.72365 0.70881 0.50203 0.0
C442 C 0.64887 0.76054 0.43619 0.0
C443 C 0.62392 0.75577 0.45965 0.0
C444 C 0.66554 0.74416 0.44198 0.0
C445 C 0.65693 0.72213 0.47069 0.0
C446 C 0.63157 0.71702 0.4935 0.0
C447 C 0.61547 0.73371 0.48823 0.0
H448 H 0.28713 0.85575 0.52178 0.0
H449 H 0.27957 0.87869 0.40919 0.0
H450 H 0.3213 0.91142 0.53538 0.0
H451 H 0.31369 0.93523 0.42337 0.0
H452 H 0.33638 0.02838 0.5022 0.0
H453 H 0.30863 0.97679 0.47137 0.0
H454 H 0.37834 0.95447 0.51256 0.0
H455 H 0.4061 1.00585 0.54281 0.0
C456 C 0.29264 0.8727 0.49988 0.0
C457 C 0.28055 0.86271 0.46436 0.0
C458 C 0.31244 0.90463 0.50767 0.0
C459 C 0.32039 0.92764 0.48037 0.0
C460 C 0.308 0.91793 0.44488 0.0
C461 C 0.28857 0.88565 0.4368 0.0
C462 C 0.34654 0.01303 0.50315 0.0
C463 C 0.37331 0.02104 0.52503 0.0
C464 C 0.33056 0.98344 0.48572 0.0
C465 C 0.34108 0.96147 0.49013 0.0
C466 C 0.36953 0.97081 0.50904 0.0
C467 C 0.38553 1.00029 0.52614 0.0
H468 H 0.65925 0.86958 0.9792 0.0
H469 H 0.57603 0.87177 0.94191 0.0
H470 H 0.68105 0.92339 1.0027 0.0
H471 H 0.59796 0.9254 0.96473 0.0
H472 H 0.62385 0.99404 0.06322 0.0
H473 H 0.60565 0.94621 0.02688 0.0
H474 H 0.70101 0.98 0.98812 0.0
H475 H 0.71931 0.02785 0.02522 0.0
C476 C 0.64591 0.88172 0.97539 0.0
C477 C 0.61572 0.86622 0.95921 0.0
C478 C 0.65844 0.9126 0.98869 0.0
C479 C 0.64103 0.92851 0.98594 0.0
C480 C 0.61168 0.91357 0.96789 0.0
C481 C 0.59916 0.88282 0.95475 0.0
C482 C 0.6408 0.99147 0.04641 0.0
C483 C 0.67295 0.01458 0.04703 0.0
C484 C 0.63039 0.96416 0.02545 0.0
C485 C 0.65193 0.95925 0.0047 0.0
C486 C 0.68393 0.983 0.00408 0.0
C487 C 0.69432 0.01052 0.02493 0.0
H488 H 0.15287 0.70478 0.93735 0.0
H489 H 0.15951 0.79319 0.96958 0.0
H490 H 0.09934 0.67621 0.96167 0.0
H491 H 0.10614 0.76448 0.9946 0.0
H492 H 1.00423 0.707 0.02411 0.0
H493 H 0.04955 0.73038 0.98273 0.0
H494 H 0.07978 0.66658 0.02426 0.0
H495 H 0.03395 0.64255 0.0646 0.0
C496 C 0.14282 0.71816 0.94936 0.0
C497 C 0.16061 0.75123 0.9521 0.0
C498 C 0.11216 0.70174 0.96332 0.0
C499 C 0.09867 0.71805 0.98039 0.0
C500 C 0.11578 0.75124 0.98129 0.0
C501 C 0.14646 0.7677 0.96717 0.0
C502 C 0.02004 0.69734 0.02354 0.0
C503 C 1.01574 0.6731 0.04773 0.0
C504 C 0.04616 0.71098 1.00017 0.0
C505 C 0.06839 0.70056 1.00052 0.0
C506 C 0.06297 0.675 0.0231 0.0
C507 C 0.03689 0.6614 0.04645 0.0
H508 H 0.28983 0.27924 0.05447 0.0
H509 H 0.37714 0.33646 0.99649 0.0
H510 H 0.26395 0.30187 0.01867 0.0
H511 H 0.35096 0.35863 0.95909 0.0
H512 H 0.31164 0.4278 0.95564 0.0
H513 H 0.33513 0.3961 0.97303 0.0
H514 H 0.24362 0.31166 0.96482 0.0
H515 H 0.21973 0.34382 0.94864 0.0
C516 C 0.3031 0.29581 0.03287 0.0
C517 C 0.33547 0.30627 0.0283 0.0
C518 C 0.28824 0.3088 0.01219 0.0
C519 C 0.30541 0.33257 0.98627 0.0
C520 C 0.33717 0.34089 0.97938 0.0
C521 C 0.35211 0.32791 1.00034 0.0
C522 C 0.29644 0.40244 0.95714 0.0
C523 C 0.26363 0.38844 0.95118 0.0
C524 C 0.31008 0.38412 0.96677 0.0
C525 C 0.29139 0.35118 0.97046 0.0
C526 C 0.25874 0.33699 0.96282 0.0
C527 C 0.24501 0.35542 0.95345 0.0
H528 H 0.90274 0.66899 0.57713 0.0
H529 H 0.89475 0.58458 0.52861 0.0
H530 H 0.95967 0.69736 0.5632 0.0
H531 H 0.95087 0.61255 0.51479 0.0
H532 H 0.05409 0.66139 0.50428 0.0
H533 H 1.00479 0.63868 0.53955 0.0
H534 H 0.99008 0.71502 0.5045 0.0
H535 H 0.03949 0.73765 0.46974 0.0
C536 C 0.9132 0.65637 0.56415 0.0
C537 C 0.89416 0.62463 0.55366 0.0
C538 C 0.94573 0.67262 0.55602 0.0
C539 C 0.9599 0.65724 0.53791 0.0
C540 C 0.94099 0.62509 0.52919 0.0
C541 C 0.90863 0.6091 0.53679 0.0
C542 C 0.04092 0.67391 0.5055 0.0
C543 C 0.05063 0.70139 0.48476 0.0
C544 C 1.01253 0.66078 0.52529 0.0
C545 C 0.99325 0.67482 0.52451 0.0
C546 C 1.00441 0.70373 0.50604 0.0
C547 C 0.03273 0.71676 0.48617 0.0
H548 H 0.36846 0.2204 0.53822 0.0
H549 H 0.451 0.31299 0.5473 0.0
H550 H 0.33739 0.24435 0.51774 0.0
H551 H 0.42049 0.33682 0.52552 0.0
H552 H 0.35772 0.37713 0.49907 0.0
H553 H 0.38073 0.35061 0.53451 0.0
H554 H 0.3316 0.26828 0.46519 0.0
H555 H 0.30807 0.29429 0.43135 0.0
C556 C 0.38 0.24586 0.5359 0.0
C557 C 0.41232 0.26465 0.54423 0.0
C558 C 0.3622 0.25968 0.52397 0.0
C559 C 0.37631 0.29269 0.51963 0.0
C560 C 0.40847 0.31145 0.52898 0.0
C561 C 0.42614 0.29766 0.54122 0.0
C562 C 0.35117 0.35301 0.49237 0.0
C563 C 0.33119 0.33781 0.46243 0.0
C564 C 0.36468 0.3379 0.51225 0.0
C565 C 0.3585 0.30729 0.50255 0.0
C566 C 0.33685 0.29158 0.47398 0.0
C567 C 0.32339 0.30658 0.45435 0.0
H568 H 0.63985 0.99722 0.4967 0.0
H569 H 0.7242 0.9911 0.47922 0.0
H570 H 0.67135 0.04833 0.52732 0.0
H571 H 0.75587 0.04245 0.50912 0.0
H572 H 0.79372 0.15215 0.49329 0.0
H573 H 0.7647 0.09547 0.4814 0.0
H574 H 0.71154 0.08064 0.58115 0.0
H575 H 0.74138 0.13771 0.59366 0.0
C576 C 0.66491 1.00614 0.50102 0.0
C577 C 0.67952 0.98995 0.48627 0.0
C578 C 0.68299 0.0355 0.51829 0.0
C579 C 0.71614 0.04954 0.52034 0.0
C580 C 0.73041 0.03227 0.50784 0.0
C581 C 0.71226 1.0027 0.49117 0.0
C582 C 0.77622 0.1368 0.51304 0.0
C583 C 0.76988 0.14944 0.54443 0.0
C584 C 0.75971 0.10427 0.50633 0.0
C585 C 0.7359 0.08353 0.53041 0.0
C586 C 0.72981 0.09604 0.56217 0.0
C587 C 0.74696 0.12865 0.56938 0.0
H588 H 0.30861 0.30002 0.14742 0.0
H589 H 0.40101 0.32013 0.18498 0.0
H590 H 0.29972 0.31941 0.20424 0.0
H591 H 0.39071 0.3367 0.24423 0.0
H592 H 0.37695 0.39237 0.33517 0.0
H593 H 0.38731 0.37632 0.27561 0.0
H594 H 0.28724 0.3096 0.2642 0.0
H595 H 0.27722 0.32754 0.32222 0.0
C596 C 0.32712 0.30848 0.16797 0.0
C597 C 0.35596 0.30924 0.16101 0.0
C598 C 0.32169 0.31912 0.20116 0.0
C599 C 0.34443 0.32988 0.22929 0.0
C600 C 0.37283 0.32935 0.22306 0.0
C601 C 0.37858 0.3193 0.18925 0.0
C602 C 0.35723 0.37495 0.31915 0.0
C603 C 0.32624 0.36164 0.3327 0.0
C604 C 0.36314 0.36525 0.28534 0.0
C605 C 0.33823 0.34138 0.26475 0.0
C606 C 0.30712 0.3285 0.27846 0.0
C607 C 0.30121 0.33875 0.31179 0.0
H608 H 0.73351 0.066 0.19091 0.0
H609 H 0.63287 0.02195 0.17289 0.0
H610 H 0.72419 0.04173 0.2512 0.0
H611 H 0.62315 0.99876 0.23414 0.0
H612 H 0.61584 0.93407 0.32888 0.0
H613 H 0.6247 0.959 0.26871 0.0
H614 H 0.70817 0.04104 0.31047 0.0
H615 H 0.70103 0.01522 0.3688 0.0
C616 C 0.70936 0.05188 0.20043 0.0
C617 C 0.68394 0.04606 0.1774 0.0
C618 C 0.70389 0.03785 0.23507 0.0
C619 C 0.67281 0.01803 0.24785 0.0
C620 C 0.64738 0.01324 0.22514 0.0
C621 C 0.6529 0.02688 0.19023 0.0
C622 C 0.63628 0.95725 0.32501 0.0
C623 C 0.65739 0.97266 0.3541 0.0
C624 C 0.64115 0.97183 0.29059 0.0
C625 C 0.66713 1.00228 0.28447 0.0
C626 C 0.68814 0.01751 0.31363 0.0
C627 C 0.68361 1.0028 0.34761 0.0
H628 H 1.00675 0.62517 0.17468 0.0
H629 H 0.97983 0.69584 0.19501 0.0
H630 H 0.03266 0.63607 0.23489 0.0
H631 H 1.00619 0.70712 0.25482 0.0
H632 H 0.09416 0.74528 0.33132 0.0
H633 H 0.0671 0.73082 0.27188 0.0
H634 H 1.01579 0.63315 0.3053 0.0
H635 H 0.04249 0.6477 0.36505 0.0
C636 C 1.00604 0.64269 0.19231 0.0
C637 C 0.99118 0.65955 0.18046 0.0
C638 C 0.02084 0.64893 0.22659 0.0
C639 C 0.02162 0.67262 0.24918 0.0
C640 C 1.00612 0.68894 0.23769 0.0
C641 C 0.99079 0.68227 0.20375 0.0
C642 C 0.07747 0.72069 0.32569 0.0
C643 C 0.07041 0.69756 0.35259 0.0
C644 C 0.0618 0.71248 0.29193 0.0
C645 C 0.03922 0.68094 0.28428 0.0
C646 C 0.03311 0.65762 0.31061 0.0
C647 C 0.04834 0.66591 0.34465 0.0
H648 H 0.70677 0.62615 0.67492 0.0
H649 H 0.70674 0.70867 0.63182 0.0
H650 H 0.68866 0.63471 0.73398 0.0
H651 H 0.68653 0.71578 0.6895 0.0
H652 H 0.68794 0.74138 0.81056 0.0
H653 H 0.70263 0.7325 0.74977 0.0
H654 H 0.64416 0.63168 0.76488 0.0
H655 H 0.6305 0.64082 0.82635 0.0
C656 C 0.70279 0.646 0.67795 0.0
C657 C 0.70797 0.66651 0.64846 0.0
C658 C 0.69192 0.65065 0.71164 0.0
C659 C 0.68585 0.67583 0.71652 0.0
C660 C 0.69118 0.69633 0.68699 0.0
C661 C 0.70236 0.69192 0.65362 0.0
C662 C 0.67765 0.71739 0.80046 0.0
C663 C 0.65808 0.6918 0.82303 0.0
C664 C 0.68611 0.71222 0.76563 0.0
C665 C 0.67488 0.6813 0.75246 0.0
C666 C 0.65388 0.65575 0.77443 0.0
C667 C 0.64571 0.66095 0.80941 0.0
H668 H 0.4184 0.08481 0.68301 0.0
H669 H 0.33515 1.00278 0.64115 0.0
H670 H 0.40579 0.06207 0.74466 0.0
H671 H 0.32381 0.97932 0.70154 0.0
H672 H 0.29373 0.95714 0.82007 0.0
H673 H 0.30557 0.98186 0.75982 0.0
H674 H 0.40567 0.0213 0.78072 0.0
H675 H 0.3936 0.99736 0.84159 0.0
C676 C 0.39747 0.06199 0.68693 0.0
C677 C 0.3781 0.04546 0.657 0.0
C678 C 0.39043 0.04872 0.72217 0.0
C679 C 0.36388 0.01864 0.72818 0.0
C680 C 0.34425 1.00259 0.69827 0.0
C681 C 0.35108 0.0159 0.66335 0.0
C682 C 0.31822 0.97071 0.81151 0.0
C683 C 0.34272 0.97515 0.83538 0.0
C684 C 0.32508 0.98499 0.77697 0.0
C685 C 0.35665 1.00373 0.76524 0.0
C686 C 0.38113 1.00761 0.78899 0.0
C687 C 0.37424 0.99361 0.82371 0.0
H688 H 0.94804 0.27815 0.67481 0.0
H689 H 0.99976 0.37711 0.64741 0.0
H690 H 0.97223 0.28975 0.73521 0.0
H691 H 0.02291 0.38935 0.70888 0.0
H692 H 0.08303 0.39753 0.80956 0.0
H693 H 0.05993 0.38665 0.74804 0.0
H694 H 0.97294 0.31026 0.79166 0.0
H695 H 0.99676 0.31901 0.8514 0.0
C696 C 0.96395 0.30255 0.68222 0.0
C697 C 0.97177 0.32675 0.65664 0.0
C698 C 0.97791 0.30932 0.71693 0.0
C699 C 0.99961 0.34062 0.72733 0.0
C700 C 1.00681 0.36494 0.70183 0.0
C701 C 0.99325 0.35803 0.66677 0.0
C702 C 0.05914 0.37817 0.8058 0.0
C703 C 0.04172 0.35956 0.83578 0.0
C704 C 0.04566 0.37218 0.77058 0.0
C705 C 1.01438 0.34757 0.7646 0.0
C706 C 0.99718 0.32908 0.79469 0.0
C707 C 1.01076 0.33462 0.82944 0.0
H708 H 0.56192 0.24484 0.09124 0.0
H709 H 0.56368 0.22541 0.97617 0.0
H710 H 0.61035 0.242 0.10067 0.0
H711 H 0.61108 0.22148 0.98549 0.0
H712 H 0.71193 0.24594 1.0027 0.0
H713 H 0.66563 0.25222 0.99694 0.0
H714 H 0.63219 0.20758 0.10234 0.0
H715 H 0.67951 0.20267 0.10884 0.0
C716 C 0.57252 0.23969 0.06805 0.0
C717 C 0.55905 0.23542 0.03296 0.0
C718 C 0.60022 0.23793 0.07342 0.0
C719 C 0.61499 0.23174 0.04381 0.0
C720 C 0.60101 0.22702 0.00887 0.0
C721 C 0.57357 0.22898 0.00353 0.0
C722 C 0.69498 0.23784 0.02494 0.0
C723 C 0.69963 0.22385 0.05629 0.0
C724 C 0.6681 0.2411 0.02144 0.0
C725 C 0.64472 0.23007 0.04895 0.0
C726 C 0.64968 0.21663 0.08068 0.0
C727 C 0.6768 0.21362 0.08432 0.0
H728 H 0.74215 0.34091 0.02714 0.0
H729 H 0.83002 0.37314 0.08572 0.0
H730 H 0.74677 0.39296 0.03515 0.0
H731 H 0.83466 0.42493 0.09376 0.0
H732 H 0.79659 0.50161 0.01042 0.0
H733 H 0.78424 0.4467 0.00951 0.0
H734 H 0.80967 0.4532 0.12389 0.0
H735 H 0.82168 0.50815 0.12502 0.0
C736 C 0.76217 0.35898 0.04218 0.0
C737 C 0.7858 0.35312 0.05568 0.0
C738 C 0.76492 0.38877 0.04658 0.0
C739 C 0.79115 0.41307 0.06495 0.0
C740 C 0.81403 0.40665 0.07978 0.0
C741 C 0.81145 0.37704 0.07504 0.0
C742 C 0.79907 0.49122 0.03557 0.0
C743 C 0.80996 0.50926 0.06785 0.0
C744 C 0.79188 0.4597 0.03505 0.0
C745 C 0.79591 0.44559 0.06665 0.0
C746 C 0.8065 0.46349 0.09905 0.0
C747 C 0.81335 0.49495 0.09969 0.0
H748 H 0.6657 0.48655 0.09302 0.0
H749 H 0.69948 0.43471 0.02913 0.0
H750 H 0.61422 0.43874 0.09948 0.0
H751 H 0.64782 0.38688 0.03535 0.0
H752 H 0.54065 0.32998 0.00691 0.0
H753 H 0.59416 0.37479 0.0086 0.0
H754 H 0.58695 0.38205 0.12575 0.0
H755 H 0.53309 0.33671 0.12428 0.0
C756 C 0.66222 0.46478 0.08086 0.0
C757 C 0.68635 0.46426 0.06031 0.0
C758 C 0.63285 0.43746 0.08468 0.0
C759 C 0.62703 0.40928 0.06762 0.0
C760 C 0.65166 0.40845 0.04842 0.0
C761 C 0.68118 0.4357 0.045 0.0
C762 C 0.5503 0.34116 0.03307 0.0
C763 C 0.53255 0.32992 0.06547 0.0
C764 C 0.5811 0.3666 0.03404 0.0
C765 C 0.59473 0.38163 0.06734 0.0
C766 C 0.57692 0.37079 0.09974 0.0
C767 C 0.54616 0.34494 0.09886 0.0
H768 H 0.19071 0.6629 0.49513 0.0
H769 H 0.23538 0.68202 0.38878 0.0
H770 H 0.19433 0.61513 0.49987 0.0
H771 H 0.23949 0.634 0.39385 0.0
H772 H 0.24868 0.56341 0.52135 0.0
H773 H 0.23914 0.60703 0.50993 0.0
H774 H 0.21109 0.5746 0.39877 0.0
H775 H 0.22107 0.53056 0.41033 0.0
C776 C 0.20106 0.65676 0.47253 0.0
C777 C 0.2131 0.67657 0.44176 0.0
C778 C 0.2033 0.62939 0.47535 0.0
C779 C 0.2178 0.621 0.4476 0.0
C780 C 0.22818 0.63974 0.41574 0.0
C781 C 0.22584 0.66728 0.41284 0.0
C782 C 0.2404 0.56545 0.49445 0.0
C783 C 0.23548 0.54344 0.46681 0.0
C784 C 0.23472 0.59041 0.48795 0.0
C785 C 0.22395 0.59419 0.45354 0.0
C786 C 0.21941 0.57241 0.42555 0.0
C787 C 0.22498 0.54715 0.4322 0.0
H788 H 0.44816 0.6846 0.51375 0.0
H789 H 0.48688 0.68133 0.40853 0.0
H790 H 0.40526 0.63083 0.50529 0.0
H791 H 0.44368 0.6267 0.40007 0.0
H792 H 0.33991 0.53969 0.38788 0.0
H793 H 0.3853 0.59334 0.39128 0.0
H794 H 0.39852 0.57832 0.50505 0.0
H795 H 0.35326 0.52532 0.50189 0.0
C796 C 0.44748 0.67235 0.48869 0.0
C797 C 0.47104 0.68721 0.46189 0.0
C798 C 0.42295 0.64133 0.48395 0.0
C799 C 0.42116 0.6241 0.45224 0.0
C800 C 0.44427 0.63924 0.42482 0.0
C801 C 0.46904 0.67049 0.42966 0.0
C802 C 0.35276 0.54772 0.41349 0.0
C803 C 0.34264 0.52816 0.4447 0.0
C804 C 0.37885 0.5785 0.41541 0.0
C805 C 0.39534 0.59044 0.4486 0.0
C806 C 0.386 0.57028 0.47924 0.0
C807 C 0.36007 0.53968 0.47734 0.0
H808 H 0.5047 0.83349 0.49834 0.0
H809 H 0.48477 0.79676 0.38789 0.0
H810 H 0.45154 0.82571 0.50335 0.0
H811 H 0.43079 0.7881 0.39325 0.0
H812 H 0.34613 0.76865 0.52054 0.0
H813 H 0.40014 0.78027 0.50989 0.0
H814 H 0.39654 0.81177 0.40018 0.0
H815 H 0.34168 0.79926 0.41081 0.0
C816 C 0.48897 0.82388 0.47498 0.0
C817 C 0.49888 0.81545 0.44285 0.0
C818 C 0.45835 0.8192 0.47795 0.0
C819 C 0.43659 0.80562 0.44901 0.0
C820 C 0.44694 0.79863 0.41607 0.0
C821 C 0.47785 0.80356 0.41299 0.0
C822 C 0.35681 0.778 0.49411 0.0
C823 C 0.33977 0.7832 0.46658 0.0
C824 C 0.38791 0.78491 0.48805 0.0
C825 C 0.40296 0.79743 0.45433 0.0
C826 C 0.38566 0.80208 0.42642 0.0
C827 C 0.35433 0.79504 0.43252 0.0
H828 H 0.3076 0.77205 1.00004 0.0
H829 H 0.34896 0.81929 0.8979 0.0
H830 H 0.34464 0.75251 1.00276 0.0
H831 H 0.38784 0.80169 0.90196 0.0
H832 H 0.44657 0.75433 0.90776 0.0
H833 H 0.39954 0.7598 0.89985 0.0
H834 H 0.39811 0.77434 0.01669 0.0
H835 H 0.44374 0.76745 0.02445 0.0
C836 C 0.32458 0.7782 0.97805 0.0
C837 C 0.32526 0.79711 0.94866 0.0
C838 C 0.34607 0.76722 0.97979 0.0
C839 C 0.36952 0.77575 0.9528 0.0
C840 C 0.36984 0.79423 0.92297 0.0
C841 C 0.34778 0.80464 0.92082 0.0
C842 C 0.43559 0.75794 0.93171 0.0
C843 C 0.44875 0.76064 0.96666 0.0
C844 C 0.4089 0.7614 0.92719 0.0
C845 C 0.39515 0.76784 0.95756 0.0
C846 C 0.40763 0.76895 0.99269 0.0
C847 C 0.43398 0.76518 0.99718 0.0
H848 H 0.25246 0.66768 0.02158 0.0
H849 H 0.25907 0.67938 0.90409 0.0
H850 H 0.24555 0.61508 0.01499 0.0
H851 H 0.25328 0.62682 0.89727 0.0
H852 H 0.19814 0.51728 0.89974 0.0
H853 H 0.21264 0.57286 0.90294 0.0
H854 H 0.26881 0.58433 0.99964 0.0
H855 H 0.25316 0.5287 0.99733 0.0
C856 C 0.25313 0.6592 0.99432 0.0
C857 C 0.25613 0.67751 0.96334 0.0
C858 C 0.24932 0.62903 0.99049 0.0
C859 C 0.24867 0.61647 0.95554 0.0
C860 C 0.25308 0.63546 0.92456 0.0
C861 C 0.25672 0.66568 0.92843 0.0
C862 C 0.21365 0.53175 0.92159 0.0
C863 C 0.22418 0.51848 0.94849 0.0
C864 C 0.22222 0.56371 0.92328 0.0
C865 C 0.24178 0.58318 0.95172 0.0
C866 C 0.25317 0.57001 0.97781 0.0
C867 C 0.24428 0.53805 0.97639 0.0
H868 H 0.34262 0.5646 0.90505 0.0
H869 H 0.35836 0.56309 0.0213 0.0
H870 H 0.3948 0.61195 0.89884 0.0
H871 H 0.41044 0.60923 0.01516 0.0
H872 H 0.49157 0.7066 1.00235 0.0
H873 H 0.43729 0.66382 0.00442 0.0
H874 H 0.45041 0.62855 0.90101 0.0
H875 H 0.50477 0.67266 0.89814 0.0
C876 C 0.35718 0.57451 0.92924 0.0
C877 C 0.34647 0.56028 0.96365 0.0
C878 C 0.38716 0.60144 0.92568 0.0
C879 C 0.40696 0.61452 0.95649 0.0
C880 C 0.39578 0.60032 0.99091 0.0
C881 C 0.3659 0.57368 0.99444 0.0
C882 C 0.48295 0.68983 0.97992 0.0
C883 C 0.50262 0.69292 0.95018 0.0
C884 C 0.45174 0.66512 0.9812 0.0
C885 C 0.43943 0.64237 0.95313 0.0
C886 C 0.45894 0.64576 0.92297 0.0
C887 C 0.49019 0.67088 0.92144 0.0
H888 H 0.76499 0.43992 0.5038 0.0
H889 H 0.81884 0.48 0.60278 0.0
H890 H 0.77193 0.39406 0.51045 0.0
H891 H 0.82631 0.43402 0.60928 0.0
H892 H 0.82457 0.34003 0.50376 0.0
H893 H 0.81683 0.38548 0.50334 0.0
H894 H 0.79945 0.37574 0.61995 0.0
H895 H 0.80763 0.33002 0.62055 0.0
C896 C 0.77812 0.43878 0.52719 0.0
C897 C 0.79157 0.46363 0.55262 0.0
C898 C 0.78232 0.4126 0.53087 0.0
C899 C 0.80018 0.4106 0.56004 0.0
C900 C 0.81242 0.43481 0.58651 0.0
C901 C 0.80818 0.46114 0.58279 0.0
C902 C 0.81932 0.34758 0.52946 0.0
C903 C 0.81655 0.33116 0.56216 0.0
C904 C 0.81462 0.37357 0.52914 0.0
C905 C 0.80696 0.38396 0.56149 0.0
C906 C 0.80532 0.36834 0.59455 0.0
C907 C 0.81 0.34214 0.59488 0.0
H908 H 0.575 0.37605 0.50263 0.0
H909 H 0.59475 0.34153 0.60252 0.0
H910 H 0.6216 0.42726 0.5123 0.0
H911 H 0.64233 0.39329 0.61208 0.0
H912 H 0.70425 0.5041 0.63037 0.0
H913 H 0.65909 0.45022 0.62549 0.0
H914 H 0.67841 0.44929 0.51009 0.0
H915 H 0.72239 0.5027 0.51464 0.0
C916 C 0.58949 0.37939 0.52662 0.0
C917 C 0.58138 0.35477 0.55171 0.0
C918 C 0.61633 0.40875 0.53209 0.0
C919 C 0.63592 0.4143 0.56276 0.0
C920 C 0.62764 0.38976 0.58825 0.0
C921 C 0.60059 0.36015 0.5827 0.0
C922 C 0.69884 0.49222 0.60408 0.0
C923 C 0.71663 0.50783 0.57283 0.0
C924 C 0.67314 0.46135 0.60132 0.0
C925 C 0.66489 0.44566 0.56728 0.0
C926 C 0.68363 0.46093 0.53654 0.0
C927 C 0.70899 0.4916 0.53922 0.0
H928 H 0.7002 0.23564 0.59429 0.0
H929 H 0.67754 0.2067 0.48139 0.0
H930 H 0.64797 0.23128 0.60206 0.0
H931 H 0.62567 0.20178 0.48915 0.0
H932 H 0.55712 0.23863 0.49884 0.0
H933 H 0.60692 0.23885 0.49607 0.0
H934 H 0.58918 0.19519 0.60285 0.0
H935 H 0.5388 0.19533 0.60596 0.0
C936 C 0.68392 0.22793 0.57134 0.0
C937 C 0.69307 0.22178 0.53714 0.0
C938 C 0.65397 0.22533 0.57579 0.0
C939 C 0.63268 0.21659 0.54609 0.0
C940 C 0.6416 0.20924 0.51242 0.0
C941 C 0.67135 0.21188 0.50801 0.0
C942 C 0.56354 0.22889 0.52181 0.0
C943 C 0.54362 0.21672 0.55254 0.0
C944 C 0.59221 0.22888 0.5201 0.0
C945 C 0.60205 0.21671 0.54904 0.0
C946 C 0.5824 0.20483 0.5801 0.0
C947 C 0.55343 0.20473 0.58178 0.0
H948 H 0.49833 0.27737 0.69941 0.0
H949 H 0.4197 0.18211 0.70628 0.0
H950 H 0.4966 0.28292 0.76573 0.0
H951 H 0.41841 0.18741 0.77256 0.0
H952 H 0.40419 0.21588 0.88619 0.0
H953 H 0.40545 0.21372 0.81954 0.0
H954 H 0.50767 0.26443 0.82224 0.0
H955 H 0.5064 0.26718 0.88896 0.0
C956 C 0.4807 0.25757 0.71504 0.0
C957 C 0.45913 0.2293 0.69743 0.0
C958 C 0.47982 0.26071 0.75315 0.0
C959 C 0.45735 0.23564 0.77465 0.0
C960 C 0.43573 0.20741 0.75693 0.0
C961 C 0.43659 0.20429 0.71885 0.0
C962 C 0.42697 0.22681 0.8726 0.0
C963 C 0.4552 0.24164 0.89303 0.0
C964 C 0.42769 0.22536 0.83431 0.0
C965 C 0.45666 0.23866 0.81537 0.0
C966 C 0.48491 0.25417 0.83578 0.0
C967 C 0.48419 0.25565 0.87412 0.0
H968 H 0.85186 0.24365 0.72095 0.0
H969 H 0.77863 0.26924 0.72307 0.0
H970 H 0.8545 0.24614 0.78803 0.0
H971 H 0.78132 0.27171 0.78972 0.0
H972 H 0.81409 0.30263 0.90595 0.0
H973 H 0.81867 0.30409 0.83937 0.0
H974 H 0.81882 0.21567 0.84104 0.0
H975 H 0.81431 0.21415 0.90785 0.0
C976 C 0.83644 0.24992 0.73568 0.0
C977 C 0.81497 0.25616 0.71666 0.0
C978 C 0.83787 0.25122 0.77407 0.0
C979 C 0.81819 0.25921 0.79415 0.0
C980 C 0.79708 0.26587 0.77504 0.0
C981 C 0.7954 0.26423 0.73681 0.0
C982 C 0.81545 0.28364 0.89225 0.0
C983 C 0.81352 0.25811 0.91226 0.0
C984 C 0.81791 0.28442 0.85404 0.0
C985 C 0.81878 0.25984 0.83492 0.0
C986 C 0.81834 0.23502 0.85501 0.0
C987 C 0.8156 0.2341 0.89327 0.0
H988 H 0.82957 0.63161 0.91575 0.0
H989 H 0.73763 0.54741 0.91185 0.0
H990 H 0.83048 0.63387 0.84875 0.0
H991 H 0.73868 0.54974 0.84507 0.0
H992 H 0.77609 0.5391 0.73254 0.0
H993 H 0.77209 0.5411 0.7989 0.0
H994 H 0.80264 0.64054 0.79275 0.0
H995 H 0.80654 0.63858 0.72589 0.0
C996 C 0.80937 0.61385 0.90067 0.0
C997 C 0.78366 0.58916 0.91919 0.0
C998 C 0.80987 0.61523 0.86229 0.0
C999 C 0.78481 0.59177 0.84166 0.0
C1000 C 0.75853 0.56789 0.86023 0.0
C1001 C 0.75788 0.56669 0.89853 0.0
C1002 C 0.78195 0.56143 0.74522 0.0
C1003 C 0.79169 0.5887 0.72388 0.0
C1004 C 0.77942 0.5625 0.78327 0.0
C1005 C 0.78687 0.59093 0.80104 0.0
C1006 C 0.79683 0.61832 0.77981 0.0
C1007 C 0.79898 0.61716 0.74156 0.0
H1008 H 0.31551 0.47474 0.62591 0.0
H1009 H 0.21905 0.45396 0.60976 0.0
H1010 H 0.30596 0.46683 0.69191 0.0
H1011 H 0.20978 0.44668 0.67534 0.0
H1012 H 0.19282 0.40413 0.78881 0.0
H1013 H 0.2043 0.4101 0.72341 0.0
H1014 H 0.29593 0.49122 0.74526 0.0
H1015 H 0.28469 0.4849 0.81087 0.0
C1016 C 0.29233 0.46857 0.6364 0.0
C1017 C 0.26805 0.46492 0.6125 0.0
C1018 C 0.2869 0.46419 0.67422 0.0
C1019 C 0.25705 0.45596 0.68891 0.0
C1020 C 0.23288 0.45244 0.66494 0.0
C1021 C 0.23829 0.45685 0.62728 0.0
C1022 C 0.21549 0.42316 0.77974 0.0
C1023 C 0.23776 0.44412 0.80509 0.0
C1024 C 0.22201 0.42669 0.74219 0.0
C1025 C 0.25096 0.45129 0.72904 0.0
C1026 C 0.27352 0.47186 0.75446 0.0
C1027 C 0.26698 0.46834 0.79207 0.0
H1028 H 0.61987 0.83623 0.61269 0.0
H1029 H 0.52892 0.75075 0.60847 0.0
H1030 H 0.62333 0.82813 0.67829 0.0
H1031 H 0.5323 0.74295 0.67382 0.0
H1032 H 0.56864 0.71836 0.77738 0.0
H1033 H 0.56471 0.72886 0.71291 0.0
H1034 H 0.59806 0.82692 0.73813 0.0
H1035 H 0.60233 0.81652 0.80282 0.0
C1036 C 0.60051 0.81591 0.62577 0.0
C1037 C 0.57423 0.79405 0.60529 0.0
C1038 C 0.60244 0.81134 0.66336 0.0
C1039 C 0.5782 0.78476 0.68113 0.0
C1040 C 0.5516 0.76338 0.66079 0.0
C1041 C 0.5496 0.76799 0.62334 0.0
C1042 C 0.57511 0.74217 0.76925 0.0
C1043 C 0.58573 0.76659 0.79525 0.0
C1044 C 0.57269 0.74814 0.73231 0.0
C1045 C 0.58093 0.77869 0.72047 0.0
C1046 C 0.59176 0.80319 0.74641 0.0
C1047 C 0.59404 0.79718 0.78346 0.0
H1048 H 0.17256 0.76867 0.79592 0.0
H1049 H 0.27446 0.82478 0.78907 0.0
H1050 H 0.17002 0.75763 0.73031 0.0
H1051 H 0.27185 0.81426 0.72361 0.0
H1052 H 0.25995 0.76404 0.61561 0.0
H1053 H 0.2599 0.77124 0.68164 0.0
H1054 H 0.17859 0.78418 0.67117 0.0
H1055 H 0.17824 0.77633 0.60506 0.0
C1056 C 0.1944 0.77874 0.78043 0.0
C1057 C 0.22372 0.79757 0.79777 0.0
C1058 C 0.19292 0.77252 0.7428 0.0
C1059 C 0.22074 0.78495 0.72172 0.0
C1060 C 0.25001 0.80386 0.73912 0.0
C1061 C 0.25148 0.81007 0.77666 0.0
C1062 C 0.24192 0.76821 0.62736 0.0
C1063 C 0.21919 0.76976 0.605 0.0
C1064 C 0.24202 0.77254 0.66523 0.0
C1065 C 0.21942 0.77857 0.68168 0.0
C1066 C 0.19618 0.77933 0.65943 0.0
C1067 C 0.19608 0.77498 0.6215 0.0
H1068 H 0.54215 0.81474 0.09388 0.0
H1069 H 0.6165 0.79095 0.10234 0.0
H1070 H 0.54284 0.82087 0.16023 0.0
H1071 H 0.61718 0.79729 0.16893 0.0
H1072 H 0.62457 0.83762 0.28616 0.0
H1073 H 0.62831 0.83838 0.21921 0.0
H1074 H 0.52667 0.78088 0.21176 0.0
H1075 H 0.52287 0.77988 0.27847 0.0
C1076 C 0.55897 0.81124 0.10979 0.0
C1077 C 0.57911 0.80209 0.09279 0.0
C1078 C 0.5592 0.81459 0.14784 0.0
C1079 C 0.57983 0.80925 0.16974 0.0
C1080 C 0.60109 0.80165 0.15268 0.0
C1081 C 0.60062 0.79794 0.11458 0.0
C1082 C 0.60302 0.82525 0.27021 0.0
C1083 C 0.57341 0.80862 0.28761 0.0
C1084 C 0.60521 0.82561 0.23193 0.0
C1085 C 0.57779 0.80977 0.21031 0.0
C1086 C 0.54818 0.79358 0.22772 0.0
C1087 C 0.54603 0.79285 0.26594 0.0
H1088 H 0.23725 0.81903 0.10078 0.0
H1089 H 0.2021 0.7189 0.08924 0.0
H1090 H 0.23254 0.81302 0.16728 0.0
H1091 H 0.19732 0.71295 0.15574 0.0
H1092 H 0.24047 0.72688 0.27267 0.0
H1093 H 0.23678 0.72974 0.20627 0.0
H1094 H 0.19467 0.78897 0.21926 0.0
H1095 H 0.19842 0.78621 0.28587 0.0
C1096 C 0.22802 0.79565 0.11236 0.0
C1097 C 0.22027 0.7695 0.08963 0.0
C1098 C 0.22522 0.79219 0.15051 0.0
C1099 C 0.21486 0.76255 0.16684 0.0
C1100 C 0.20581 0.73618 0.14403 0.0
C1101 C 0.20834 0.73958 0.10587 0.0
C1102 C 0.23028 0.7404 0.26144 0.0
C1103 C 0.21988 0.75643 0.28465 0.0
C1104 C 0.22794 0.74184 0.22334 0.0
C1105 C 0.21539 0.75955 0.20744 0.0
C1106 C 0.20467 0.77532 0.23064 0.0
C1107 C 0.20673 0.77364 0.26881 0.0
H1108 H 0.19938 0.40968 0.10342 0.0
H1109 H 0.30069 0.4639 0.08869 0.0
H1110 H 0.2069 0.40744 0.16916 0.0
H1111 H 0.30823 0.46261 0.15451 0.0
H1112 H 0.31246 0.43495 0.27295 0.0
H1113 H 0.30471 0.43162 0.20664 0.0
H1114 H 0.22204 0.44187 0.22044 0.0
H1115 H 0.22923 0.44416 0.28655 0.0
C1116 C 0.22328 0.421 0.11417 0.0
C1117 C 0.24941 0.43709 0.09075 0.0
C1118 C 0.22761 0.41996 0.15197 0.0
C1119 C 0.25818 0.4352 0.16739 0.0
C1120 C 0.28435 0.45035 0.14373 0.0
C1121 C 0.28001 0.4512 0.10589 0.0
C1122 C 0.29266 0.43653 0.26178 0.0
C1123 C 0.2715 0.43987 0.28508 0.0
C1124 C 0.28825 0.43471 0.22371 0.0
C1125 C 0.26266 0.43636 0.208 0.0
C1126 C 0.24163 0.43986 0.23144 0.0
C1127 C 0.24592 0.44145 0.26944 0.0
H1128 H 0.78505 0.52911 0.40312 0.0
H1129 H 0.80854 0.62689 0.40916 0.0
H1130 H 0.7871 0.53226 0.33649 0.0
H1131 H 0.81025 0.62986 0.34229 0.0
H1132 H 0.85197 0.63138 0.22775 0.0
H1133 H 0.84541 0.62856 0.29402 0.0
H1134 H 0.75928 0.53892 0.28316 0.0
H1135 H 0.76597 0.54152 0.21664 0.0
C1136 C 0.79044 0.55123 0.39023 0.0
C1137 C 0.79682 0.57782 0.41142 0.0
C1138 C 0.79138 0.55294 0.35204 0.0
C1139 C 0.79886 0.5813 0.3342 0.0
C1140 C 0.80473 0.60777 0.35535 0.0
C1141 C 0.80363 0.60602 0.3936 0.0
C1142 C 0.83155 0.6111 0.23942 0.0
C1143 C 0.80955 0.58659 0.21695 0.0
C1144 C 0.82769 0.60963 0.27739 0.0
C1145 C 0.80183 0.58355 0.29375 0.0
C1146 C 0.7796 0.55919 0.27129 0.0
C1147 C 0.78336 0.56074 0.23322 0.0
H1148 H 0.50221 0.29556 0.41175 0.0
H1149 H 0.42406 0.19974 0.41104 0.0
H1150 H 0.50028 0.29701 0.34508 0.0
H1151 H 0.42218 0.20133 0.34406 0.0
H1152 H 0.4121 0.2296 0.225 0.0
H1153 H 0.41099 0.22912 0.29208 0.0
H1154 H 0.51256 0.26997 0.29442 0.0
H1155 H 0.51376 0.27042 0.2276 0.0
C1156 C 0.48442 0.27487 0.39743 0.0
C1157 C 0.46338 0.24745 0.41679 0.0
C1158 C 0.48346 0.27567 0.35917 0.0
C1159 C 0.46125 0.24921 0.3393 0.0
C1160 C 0.43947 0.22214 0.35864 0.0
C1161 C 0.44064 0.2212 0.39699 0.0
C1162 C 0.4342 0.23853 0.23984 0.0
C1163 C 0.46303 0.25005 0.22093 0.0
C1164 C 0.43352 0.23811 0.27824 0.0
C1165 C 0.46169 0.24959 0.29852 0.0
C1166 C 0.4905 0.2613 0.27958 0.0
C1167 C 0.49115 0.26139 0.24126 0.0
H1168 H 0.77797 0.26457 0.39414 0.0
H1169 H 0.84512 0.23103 0.38938 0.0
H1170 H 0.77409 0.26243 0.3275 0.0
H1171 H 0.84146 0.22927 0.32261 0.0
H1172 H 0.78954 0.18711 0.21332 0.0
H1173 H 0.79965 0.19551 0.27878 0.0
H1174 H 0.80368 0.28575 0.27003 0.0
H1175 H 0.7932 0.27723 0.20422 0.0
C1176 C 0.79221 0.25711 0.37887 0.0
C1177 C 0.81165 0.2477 0.39709 0.0
C1178 C 0.79011 0.25608 0.34064 0.0
C1179 C 0.8073 0.24548 0.31982 0.0
C1180 C 0.82759 0.23713 0.33797 0.0
C1181 C 0.82981 0.2383 0.37621 0.0
C1182 C 0.79267 0.20882 0.22523 0.0
C1183 C 0.79044 0.23146 0.20355 0.0
C1184 C 0.79873 0.21374 0.26275 0.0
C1185 C 0.80259 0.24134 0.27955 0.0
C1186 C 0.8006 0.26414 0.25787 0.0
C1187 C 0.7947 0.2593 0.22019 0.0
loop_
_geom_bond_atom_site_label_1
_geom_bond_atom_site_label_2
_geom_bond_distance
_geom_bond_site_symmetry_2
_ccdc_geom_bond_type
O0 Tb1 2.292 1_556 S
O0 C3 1.255 . S
Tb1 O0 2.292 1_554 S
Tb1 O17 2.326 . S
Tb1 O19 2.500 . S
Tb1 O20 2.473 . S
Tb1 O23 2.324 . S
Eu2 O6 2.292 . S
Eu2 C7 2.852 . S
Eu2 O18 2.324 . S
Eu2 O22 2.326 . S
Eu2 O24 2.500 . S
Eu2 O25 2.473 . S
C3 O0 1.255 . S
C3 O4 1.247 . S
O4 C3 1.247 . S
C5 O17 1.242 . S
C5 O18 1.258 . S
O6 Eu2 2.292 . S
O6 C8 1.255 . S
C7 Eu2 2.852 . S
C7 C11 1.503 . S
C7 O24 1.273 . S
C7 O25 1.257 . S
C8 O6 1.255 . S
C8 O9 1.247 . S
O9 C8 1.247 . S
C10 O22 1.242 . S
C10 O23 1.258 . S
C11 C7 1.503 . S
C11 C12 1.379 . S
C11 C16 1.392 . S
C12 C11 1.379 . S
C12 C13 1.404 . S
C12 H26 0.929 . S
C13 C12 1.404 . S
C13 C14 1.389 . S
C14 C13 1.389 . S
C14 C15 1.399 . S
C14 H27 0.931 . S
C15 C14 1.399 . S
C15 C16 1.390 . S
C16 C11 1.392 . S
C16 C15 1.390 . S
C16 H28 0.929 . S
O17 Tb1 2.326 . S
O17 C5 1.242 . S
O18 Eu2 2.324 . S
O18 C5 1.258 . S
O19 Tb1 2.500 . S
O19 C21 1.273 . S
O20 Tb1 2.473 . S
O20 C21 1.257 . S
C21 O19 1.273 . S
C21 O20 1.257 . S
O22 Eu2 2.326 . S
O22 C10 1.242 . S
O23 Tb1 2.324 . S
O23 C10 1.258 . S
O24 Eu2 2.500 . S
O24 C7 1.273 . S
O25 Eu2 2.473 . S
O25 C7 1.257 . S
H26 C12 0.929 . S
H27 C14 0.931 . S
H28 C16 0.929 . S
O29 Tb30 2.292 1_556 S
O29 C32 1.255 . S
Tb30 O29 2.292 1_554 S
Tb30 O46 2.326 . S
Tb30 O48 2.500 . S
Tb30 O49 2.473 . S
Tb30 O52 2.324 . S
Eu31 O35 2.292 . S
Eu31 C36 2.852 . S
Eu31 O47 2.324 . S
Eu31 O51 2.326 . S
Eu31 O53 2.500 . S
Eu31 O54 2.473 . S
C32 O29 1.255 . S
C32 O33 1.247 . S
O33 C32 1.247 . S
C34 O46 1.242 . S
C34 O47 1.258 . S
O35 Eu31 2.292 . S
O35 C37 1.255 . S
C36 Eu31 2.852 . S
C36 C40 1.503 . S
C36 O53 1.273 . S
C36 O54 1.257 . S
C37 O35 1.255 . S
C37 O38 1.247 . S
O38 C37 1.247 . S
C39 O51 1.242 . S
C39 O52 1.258 . S
C40 C36 1.503 . S
C40 C41 1.379 . S
C40 C45 1.392 . S
C41 C40 1.379 . S
C41 C42 1.404 . S
C41 H55 0.929 . S
C42 C41 1.404 . S
C42 C43 1.389 . S
C43 C42 1.389 . S
C43 C44 1.399 . S
C43 H56 0.931 . S
C44 C43 1.399 . S
C44 C45 1.390 . S
C45 C40 1.392 . S
C45 C44 1.390 . S
C45 H57 0.929 . S
O46 Tb30 2.326 . S
O46 C34 1.242 . S
O47 Eu31 2.324 . S
O47 C34 1.258 . S
O48 Tb30 2.500 . S
O48 C50 1.273 . S
O49 Tb30 2.473 . S
O49 C50 1.257 . S
C50 O48 1.273 . S
C50 O49 1.257 . S
O51 Eu31 2.326 . S
O51 C39 1.242 . S
O52 Tb30 2.324 . S
O52 C39 1.258 . S
O53 Eu31 2.500 . S
O53 C36 1.273 . S
O54 Eu31 2.473 . S
O54 C36 1.257 . S
H55 C41 0.929 . S
H56 C43 0.931 . S
H57 C45 0.929 . S
O58 Tb59 2.292 1_556 S
O58 C61 1.255 . S
Tb59 O58 2.292 1_554 S
Tb59 O75 2.326 . S
Tb59 O77 2.500 . S
Tb59 O78 2.473 . S
Tb59 O81 2.324 . S
Eu60 O64 2.292 . S
Eu60 C65 2.852 . S
Eu60 O76 2.324 . S
Eu60 O80 2.326 . S
Eu60 O82 2.500 . S
Eu60 O83 2.473 . S
C61 O58 1.255 . S
C61 O62 1.247 . S
O62 C61 1.247 . S
C63 O75 1.242 . S
C63 O76 1.258 . S
O64 Eu60 2.292 . S
O64 C66 1.255 . S
C65 Eu60 2.852 . S
C65 C69 1.503 . S
C65 O82 1.273 . S
C65 O83 1.257 . S
C66 O64 1.255 . S
C66 O67 1.247 . S
O67 C66 1.247 . S
C68 O80 1.242 . S
C68 O81 1.258 . S
C69 C65 1.503 . S
C69 C70 1.379 . S
C69 C74 1.392 . S
C70 C69 1.379 . S
C70 C71 1.404 . S
C70 H84 0.929 . S
C71 C70 1.404 . S
C71 C72 1.389 . S
C72 C71 1.389 . S
C72 C73 1.399 . S
C72 H85 0.931 . S
C73 C72 1.399 . S
C73 C74 1.390 . S
C74 C69 1.392 . S
C74 C73 1.390 . S
C74 H86 0.929 . S
O75 Tb59 2.326 . S
O75 C63 1.242 . S
O76 Eu60 2.324 . S
O76 C63 1.258 . S
O77 Tb59 2.500 . S
O77 C79 1.273 . S
O78 Tb59 2.473 . S
O78 C79 1.257 . S
C79 O77 1.273 . S
C79 O78 1.257 . S
O80 Eu60 2.326 . S
O80 C68 1.242 . S
O81 Tb59 2.324 . S
O81 C68 1.258 . S
O82 Eu60 2.500 . S
O82 C65 1.273 . S
O83 Eu60 2.473 . S
O83 C65 1.257 . S
H84 C70 0.929 . S
H85 C72 0.931 . S
H86 C74 0.929 . S
O87 Tb88 2.292 . S
O87 C90 1.255 . S
Tb88 O87 2.292 . S
Tb88 O104 2.326 . S
Tb88 O106 2.500 . S
Tb88 O107 2.473 . S
Tb88 O110 2.324 . S
Eu89 O93 2.292 . S
Eu89 C94 2.852 . S
Eu89 O105 2.324 . S
Eu89 O109 2.326 . S
Eu89 O111 2.500 . S
Eu89 O112 2.473 . S
C90 O87 1.255 . S
C90 O91 1.247 . S
O91 C90 1.247 . S
C92 O104 1.242 . S
C92 O105 1.258 . S
O93 Eu89 2.292 . S
O93 C95 1.255 . S
C94 Eu89 2.852 . S
C94 C98 1.503 . S
C94 O111 1.273 . S
C94 O112 1.257 . S
C95 O93 1.255 . S
C95 O96 1.247 . S
O96 C95 1.247 . S
C97 O109 1.242 . S
C97 O110 1.258 . S
C98 C94 1.503 . S
C98 C99 1.379 . S
C98 C103 1.392 . S
C99 C98 1.379 . S
C99 C100 1.404 . S
C99 H113 0.929 . S
C100 C99 1.404 . S
C100 C101 1.389 . S
C101 C100 1.389 . S
C101 C102 1.399 . S
C101 H114 0.931 . S
C102 C101 1.399 . S
C102 C103 1.390 . S
C103 C98 1.392 . S
C103 C102 1.390 . S
C103 H115 0.929 . S
O104 Tb88 2.326 . S
O104 C92 1.242 . S
O105 Eu89 2.324 . S
O105 C92 1.258 . S
O106 Tb88 2.500 . S
O106 C108 1.273 . S
O107 Tb88 2.473 . S
O107 C108 1.257 . S
C108 O106 1.273 . S
C108 O107 1.257 . S
O109 Eu89 2.326 . S
O109 C97 1.242 . S
O110 Tb88 2.324 . S
O110 C97 1.258 . S
O111 Eu89 2.500 . S
O111 C94 1.273 . S
O112 Eu89 2.473 . S
O112 C94 1.257 . S
H113 C99 0.929 . S
H114 C101 0.931 . S
H115 C103 0.929 . S
O116 Tb117 2.292 . S
O116 C119 1.255 . S
Tb117 O116 2.292 . S
Tb117 O133 2.326 . S
Tb117 O135 2.500 . S
Tb117 O136 2.473 . S
Tb117 O139 2.324 . S
Eu118 O122 2.292 . S
Eu118 C123 2.852 . S
Eu118 O134 2.324 . S
Eu118 O138 2.326 . S
Eu118 O140 2.500 . S
Eu118 O141 2.473 . S
C119 O116 1.255 . S
C119 O120 1.247 . S
O120 C119 1.247 . S
C121 O133 1.242 . S
C121 O134 1.258 . S
O122 Eu118 2.292 . S
O122 C124 1.255 . S
C123 Eu118 2.852 . S
C123 C127 1.503 . S
C123 O140 1.273 . S
C123 O141 1.257 . S
C124 O122 1.255 . S
C124 O125 1.247 . S
O125 C124 1.247 . S
C126 O138 1.242 . S
C126 O139 1.258 . S
C127 C123 1.503 . S
C127 C128 1.379 . S
C127 C132 1.392 . S
C128 C127 1.379 . S
C128 C129 1.404 . S
C128 H142 0.929 . S
C129 C128 1.404 . S
C129 C130 1.389 . S
C130 C129 1.389 . S
C130 C131 1.399 . S
C130 H143 0.931 . S
C131 C130 1.399 . S
C131 C132 1.390 . S
C132 C127 1.392 . S
C132 C131 1.390 . S
C132 H144 0.929 . S
O133 Tb117 2.326 . S
O133 C121 1.242 . S
O134 Eu118 2.324 . S
O134 C121 1.258 . S
O135 Tb117 2.500 . S
O135 C137 1.273 . S
O136 Tb117 2.473 . S
O136 C137 1.257 . S
C137 O135 1.273 . S
C137 O136 1.257 . S
O138 Eu118 2.326 . S
O138 C126 1.242 . S
O139 Tb117 2.324 . S
O139 C126 1.258 . S
O140 Eu118 2.500 . S
O140 C123 1.273 . S
O141 Eu118 2.473 . S
O141 C123 1.257 . S
H142 C128 0.929 . S
H143 C130 0.931 . S
H144 C132 0.929 . S
O145 Tb146 2.292 . S
O145 C148 1.255 . S
Tb146 O145 2.292 . S
Tb146 O162 2.326 . S
Tb146 O164 2.500 . S
Tb146 O165 2.473 . S
Tb146 O168 2.324 . S
Eu147 O151 2.292 . S
Eu147 C152 2.852 . S
Eu147 O163 2.324 . S
Eu147 O167 2.326 . S
Eu147 O169 2.500 . S
Eu147 O170 2.473 . S
C148 O145 1.255 . S
C148 O149 1.247 . S
O149 C148 1.247 . S
C150 O162 1.242 . S
C150 O163 1.258 . S
O151 Eu147 2.292 . S
O151 C153 1.255 . S
C152 Eu147 2.852 . S
C152 C156 1.503 . S
C152 O169 1.273 . S
C152 O170 1.257 . S
C153 O151 1.255 . S
C153 O154 1.247 . S
O154 C153 1.247 . S
C155 O167 1.242 . S
C155 O168 1.258 . S
C156 C152 1.503 . S
C156 C157 1.379 . S
C156 C161 1.392 . S
C157 C156 1.379 . S
C157 C158 1.404 . S
C157 H171 0.929 . S
C158 C157 1.404 . S
C158 C159 1.389 . S
C159 C158 1.389 . S
C159 C160 1.399 . S
C159 H172 0.931 . S
C160 C159 1.399 . S
C160 C161 1.390 . S
C161 C156 1.392 . S
C161 C160 1.390 . S
C161 H173 0.929 . S
O162 Tb146 2.326 . S
O162 C150 1.242 . S
O163 Eu147 2.324 . S
O163 C150 1.258 . S
O164 Tb146 2.500 . S
O164 C166 1.273 . S
O165 Tb146 2.473 . S
O165 C166 1.257 . S
C166 O164 1.273 . S
C166 O165 1.257 . S
O167 Eu147 2.326 . S
O167 C155 1.242 . S
O168 Tb146 2.324 . S
O168 C155 1.258 . S
O169 Eu147 2.500 . S
O169 C152 1.273 . S
O170 Eu147 2.473 . S
O170 C152 1.257 . S
H171 C157 0.929 . S
H172 C159 0.931 . S
H173 C161 0.929 . S
O174 Tb175 2.292 1_554 S
O174 C177 1.255 . S
Tb175 O174 2.292 1_556 S
Tb175 O191 2.326 . S
Tb175 O193 2.500 . S
Tb175 O194 2.473 . S
Tb175 O197 2.324 . S
Eu176 O180 2.292 . S
Eu176 C181 2.852 . S
Eu176 O192 2.324 . S
Eu176 O196 2.326 . S
Eu176 O198 2.500 . S
Eu176 O199 2.473 . S
C177 O174 1.255 . S
C177 O178 1.247 . S
O178 C177 1.247 . S
C179 O191 1.242 . S
C179 O192 1.258 . S
O180 Eu176 2.292 . S
O180 C182 1.255 . S
C181 Eu176 2.852 . S
C181 C185 1.503 . S
C181 O198 1.273 . S
C181 O199 1.257 . S
C182 O180 1.255 . S
C182 O183 1.247 . S
O183 C182 1.247 . S
C184 O196 1.242 . S
C184 O197 1.258 . S
C185 C181 1.503 . S
C185 C186 1.379 . S
C185 C190 1.392 . S
C186 C185 1.379 . S
C186 C187 1.404 . S
C186 H200 0.929 . S
C187 C186 1.404 . S
C187 C188 1.389 . S
C188 C187 1.389 . S
C188 C189 1.399 . S
C188 H201 0.931 . S
C189 C188 1.399 . S
C189 C190 1.390 . S
C190 C185 1.392 . S
C190 C189 1.390 . S
C190 H202 0.929 . S
O191 Tb175 2.326 . S
O191 C179 1.242 . S
O192 Eu176 2.324 . S
O192 C179 1.258 . S
O193 Tb175 2.500 . S
O193 C195 1.273 . S
O194 Tb175 2.473 . S
O194 C195 1.257 . S
C195 O193 1.273 . S
C195 O194 1.257 . S
O196 Eu176 2.326 . S
O196 C184 1.242 . S
O197 Tb175 2.324 . S
O197 C184 1.258 . S
O198 Eu176 2.500 . S
O198 C181 1.273 . S
O199 Eu176 2.473 . S
O199 C181 1.257 . S
H200 C186 0.929 . S
H201 C188 0.931 . S
H202 C190 0.929 . S
O203 Tb204 2.292 1_554 S
O203 C206 1.255 . S
Tb204 O203 2.292 1_556 S
Tb204 O220 2.326 . S
Tb204 O222 2.500 . S
Tb204 O223 2.473 . S
Tb204 O226 2.324 . S
Eu205 O209 2.292 . S
Eu205 C210 2.852 . S
Eu205 O221 2.324 . S
Eu205 O225 2.326 . S
Eu205 O227 2.500 . S
Eu205 O228 2.473 . S
C206 O203 1.255 . S
C206 O207 1.247 . S
O207 C206 1.247 . S
C208 O220 1.242 . S
C208 O221 1.258 . S
O209 Eu205 2.292 . S
O209 C211 1.255 . S
C210 Eu205 2.852 . S
C210 C214 1.503 . S
C210 O227 1.273 . S
C210 O228 1.257 . S
C211 O209 1.255 . S
C211 O212 1.247 . S
O212 C211 1.247 . S
C213 O225 1.242 . S
C213 O226 1.258 . S
C214 C210 1.503 . S
C214 C215 1.379 . S
C214 C219 1.392 . S
C215 C214 1.379 . S
C215 C216 1.404 . S
C215 H229 0.929 . S
C216 C215 1.404 . S
C216 C217 1.389 . S
C217 C216 1.389 . S
C217 C218 1.399 . S
C217 H230 0.931 . S
C218 C217 1.399 . S
C218 C219 1.390 . S
C219 C214 1.392 . S
C219 C218 1.390 . S
C219 H231 0.929 . S
O220 Tb204 2.326 . S
O220 C208 1.242 . S
O221 Eu205 2.324 . S
O221 C208 1.258 . S
O222 Tb204 2.500 . S
O222 C224 1.273 . S
O223 Tb204 2.473 . S
O223 C224 1.257 . S
C224 O222 1.273 . S
C224 O223 1.257 . S
O225 Eu205 2.326 . S
O225 C213 1.242 . S
O226 Tb204 2.324 . S
O226 C213 1.258 . S
O227 Eu205 2.500 . S
O227 C210 1.273 . S
O228 Eu205 2.473 . S
O228 C210 1.257 . S
H229 C215 0.929 . S
H230 C217 0.931 . S
H231 C219 0.929 . S
O232 Tb233 2.292 1_554 S
O232 C235 1.255 . S
Tb233 O232 2.292 1_556 S
Tb233 O249 2.326 . S
Tb233 O251 2.500 . S
Tb233 O252 2.473 . S
Tb233 O255 2.324 . S
Eu234 O238 2.292 . S
Eu234 C239 2.852 . S
Eu234 O250 2.324 . S
Eu234 O254 2.326 . S
Eu234 O256 2.500 . S
Eu234 O257 2.473 . S
C235 O232 1.255 . S
C235 O236 1.247 . S
O236 C235 1.247 . S
C237 O249 1.242 . S
C237 O250 1.258 . S
O238 Eu234 2.292 . S
O238 C240 1.255 . S
C239 Eu234 2.852 . S
C239 C243 1.503 . S
C239 O256 1.273 . S
C239 O257 1.257 . S
C240 O238 1.255 . S
C240 O241 1.247 . S
O241 C240 1.247 . S
C242 O254 1.242 . S
C242 O255 1.258 . S
C243 C239 1.503 . S
C243 C244 1.379 . S
C243 C248 1.392 . S
C244 C243 1.379 . S
C244 C245 1.404 . S
C244 H258 0.929 . S
C245 C244 1.404 . S
C245 C246 1.389 . S
C246 C245 1.389 . S
C246 C247 1.399 . S
C246 H259 0.931 . S
C247 C246 1.399 . S
C247 C248 1.390 . S
C248 C243 1.392 . S
C248 C247 1.390 . S
C248 H260 0.929 . S
O249 Tb233 2.326 . S
O249 C237 1.242 . S
O250 Eu234 2.324 . S
O250 C237 1.258 . S
O251 Tb233 2.500 . S
O251 C253 1.273 . S
O252 Tb233 2.473 . S
O252 C253 1.257 . S
C253 O251 1.273 . S
C253 O252 1.257 . S
O254 Eu234 2.326 . S
O254 C242 1.242 . S
O255 Tb233 2.324 . S
O255 C242 1.258 . S
O256 Eu234 2.500 . S
O256 C239 1.273 . S
O257 Eu234 2.473 . S
O257 C239 1.257 . S
H258 C244 0.929 . S
H259 C246 0.931 . S
H260 C248 0.929 . S
O261 Tb262 2.292 . S
O261 C264 1.255 . S
Tb262 O261 2.292 . S
Tb262 O278 2.326 . S
Tb262 O280 2.500 . S
Tb262 O281 2.473 . S
Tb262 O284 2.324 . S
Eu263 O267 2.292 . S
Eu263 C268 2.852 . S
Eu263 O279 2.324 . S
Eu263 O283 2.326 . S
Eu263 O285 2.500 . S
Eu263 O286 2.473 . S
C264 O261 1.255 . S
C264 O265 1.247 . S
O265 C264 1.247 . S
C266 O278 1.242 . S
C266 O279 1.258 . S
O267 Eu263 2.292 . S
O267 C269 1.255 . S
C268 Eu263 2.852 . S
C268 C272 1.503 . S
C268 O285 1.273 . S
C268 O286 1.257 . S
C269 O267 1.255 . S
C269 O270 1.247 . S
O270 C269 1.247 . S
C271 O283 1.242 . S
C271 O284 1.258 . S
C272 C268 1.503 . S
C272 C273 1.379 . S
C272 C277 1.392 . S
C273 C272 1.379 . S
C273 C274 1.404 . S
C273 H287 0.929 . S
C274 C273 1.404 . S
C274 C275 1.389 . S
C275 C274 1.389 . S
C275 C276 1.399 . S
C275 H288 0.931 . S
C276 C275 1.399 . S
C276 C277 1.390 . S
C277 C272 1.392 . S
C277 C276 1.390 . S
C277 H289 0.929 . S
O278 Tb262 2.326 . S
O278 C266 1.242 . S
O279 Eu263 2.324 . S
O279 C266 1.258 . S
O280 Tb262 2.500 . S
O280 C282 1.273 . S
O281 Tb262 2.473 . S
O281 C282 1.257 . S
C282 O280 1.273 . S
C282 O281 1.257 . S
O283 Eu263 2.326 . S
O283 C271 1.242 . S
O284 Tb262 2.324 . S
O284 C271 1.258 . S
O285 Eu263 2.500 . S
O285 C268 1.273 . S
O286 Eu263 2.473 . S
O286 C268 1.257 . S
H287 C273 0.929 . S
H288 C275 0.931 . S
H289 C277 0.929 . S
O290 Tb291 2.292 . S
O290 C293 1.255 . S
Tb291 O290 2.292 . S
Tb291 O307 2.326 . S
Tb291 O309 2.500 . S
Tb291 O310 2.473 . S
Tb291 O313 2.324 . S
Eu292 O296 2.292 . S
Eu292 C297 2.852 . S
Eu292 O308 2.324 . S
Eu292 O312 2.326 . S
Eu292 O314 2.500 . S
Eu292 O315 2.473 . S
C293 O290 1.255 . S
C293 O294 1.247 . S
O294 C293 1.247 . S
C295 O307 1.242 . S
C295 O308 1.258 . S
O296 Eu292 2.292 . S
O296 C298 1.255 . S
C297 Eu292 2.852 . S
C297 C301 1.503 . S
C297 O314 1.273 . S
C297 O315 1.257 . S
C298 O296 1.255 . S
C298 O299 1.247 . S
O299 C298 1.247 . S
C300 O312 1.242 . S
C300 O313 1.258 . S
C301 C297 1.503 . S
C301 C302 1.379 . S
C301 C306 1.392 . S
C302 C301 1.379 . S
C302 C303 1.404 . S
C302 H316 0.929 . S
C303 C302 1.404 . S
C303 C304 1.389 . S
C304 C303 1.389 . S
C304 C305 1.399 . S
C304 H317 0.931 . S
C305 C304 1.399 . S
C305 C306 1.390 . S
C306 C301 1.392 . S
C306 C305 1.390 . S
C306 H318 0.929 . S
O307 Tb291 2.326 . S
O307 C295 1.242 . S
O308 Eu292 2.324 . S
O308 C295 1.258 . S
O309 Tb291 2.500 . S
O309 C311 1.273 . S
O310 Tb291 2.473 . S
O310 C311 1.257 . S
C311 O309 1.273 . S
C311 O310 1.257 . S
O312 Eu292 2.326 . S
O312 C300 1.242 . S
O313 Tb291 2.324 . S
O313 C300 1.258 . S
O314 Eu292 2.500 . S
O314 C297 1.273 . S
O315 Eu292 2.473 . S
O315 C297 1.257 . S
H316 C302 0.929 . S
H317 C304 0.931 . S
H318 C306 0.929 . S
O319 Tb320 2.292 . S
O319 C322 1.255 . S
Tb320 O319 2.292 . S
Tb320 O336 2.326 . S
Tb320 O338 2.500 . S
Tb320 O339 2.473 . S
Tb320 O342 2.324 . S
Eu321 O325 2.292 . S
Eu321 C326 2.852 . S
Eu321 O337 2.324 . S
Eu321 O341 2.326 . S
Eu321 O343 2.500 . S
Eu321 O344 2.473 . S
C322 O319 1.255 . S
C322 O323 1.247 . S
O323 C322 1.247 . S
C324 O336 1.242 . S
C324 O337 1.258 . S
O325 Eu321 2.292 . S
O325 C327 1.255 . S
C326 Eu321 2.852 . S
C326 C330 1.503 . S
C326 O343 1.273 . S
C326 O344 1.257 . S
C327 O325 1.255 . S
C327 O328 1.247 . S
O328 C327 1.247 . S
C329 O341 1.242 . S
C329 O342 1.258 . S
C330 C326 1.503 . S
C330 C331 1.379 . S
C330 C335 1.392 . S
C331 C330 1.379 . S
C331 C332 1.404 . S
C331 H345 0.929 . S
C332 C331 1.404 . S
C332 C333 1.389 . S
C333 C332 1.389 . S
C333 C334 1.399 . S
C333 H346 0.931 . S
C334 C333 1.399 . S
C334 C335 1.390 . S
C335 C330 1.392 . S
C335 C334 1.390 . S
C335 H347 0.929 . S
O336 Tb320 2.326 . S
O336 C324 1.242 . S
O337 Eu321 2.324 . S
O337 C324 1.258 . S
O338 Tb320 2.500 . S
O338 C340 1.273 . S
O339 Tb320 2.473 . S
O339 C340 1.257 . S
C340 O338 1.273 . S
C340 O339 1.257 . S
O341 Eu321 2.326 . S
O341 C329 1.242 . S
O342 Tb320 2.324 . S
O342 C329 1.258 . S
O343 Eu321 2.500 . S
O343 C326 1.273 . S
O344 Eu321 2.473 . S
O344 C326 1.257 . S
H345 C331 0.929 . S
H346 C333 0.931 . S
H347 C335 0.929 . S
H348 C356 0.950 . S
H349 C361 0.950 . S
H350 C358 0.950 . S
H351 C360 0.950 . S
H352 C362 0.950 . S
H353 C364 0.950 . S
H354 C366 0.950 . S
H355 C367 0.950 . S
C356 H348 0.950 . S
C356 C357 1.386 . S
C356 C358 1.391 1_565 S
C357 C356 1.386 . S
C357 C361 1.393 . S
C358 H350 0.950 . S
C358 C356 1.391 1_545 S
C358 C359 1.400 . S
C359 C358 1.400 . S
C359 C360 1.398 . S
C359 C365 1.491 1_556 S
C360 H351 0.950 . S
C360 C359 1.398 . S
C360 C361 1.391 1_545 S
C361 H349 0.950 . S
C361 C357 1.393 . S
C361 C360 1.391 1_565 S
C362 H352 0.950 . S
C362 C363 1.386 . S
C362 C364 1.391 . S
C363 C362 1.386 . S
C363 C367 1.393 . S
C364 H353 0.950 . S
C364 C362 1.391 . S
C364 C365 1.400 . S
C365 C359 1.491 1_554 S
C365 C364 1.400 . S
C365 C366 1.398 . S
C366 H354 0.950 . S
C366 C365 1.398 . S
C366 C367 1.391 . S
C367 H355 0.950 . S
C367 C363 1.393 . S
C367 C366 1.391 . S
H368 C376 0.950 . S
H369 C381 0.950 . S
H370 C378 0.950 1_556 S
H371 C380 0.950 . S
H372 C382 0.950 . S
H373 C384 0.950 1_554 S
H374 C386 0.950 . S
H375 C387 0.950 . S
C376 H368 0.950 . S
C376 C377 1.386 . S
C376 C378 1.391 . S
C377 C376 1.386 . S
C377 C381 1.393 . S
C378 H370 0.950 1_554 S
C378 C376 1.391 . S
C378 C379 1.400 . S
C379 C378 1.400 . S
C379 C380 1.398 . S
C379 C385 1.491 1_554 S
C380 H371 0.950 . S
C380 C379 1.398 . S
C380 C381 1.391 . S
C381 H369 0.950 . S
C381 C377 1.393 . S
C381 C380 1.391 . S
C382 H372 0.950 . S
C382 C383 1.386 . S
C382 C384 1.391 1_455 S
C383 C382 1.386 . S
C383 C387 1.393 . S
C384 H373 0.950 1_556 S
C384 C382 1.391 1_655 S
C384 C385 1.400 . S
C385 C379 1.491 1_556 S
C385 C384 1.400 . S
C385 C386 1.398 . S
C386 H374 0.950 . S
C386 C385 1.398 . S
C386 C387 1.391 1_655 S
C387 H375 0.950 . S
C387 C383 1.393 . S
C387 C386 1.391 1_455 S
H388 C396 0.950 . S
H389 C401 0.943 1_556 S
H390 C398 0.950 . S
H391 C400 0.950 . S
H392 C402 0.950 . S
H393 C404 0.950 . S
H394 C406 0.950 . S
H395 C407 0.954 . S
C396 H388 0.950 . S
C396 C397 1.386 . S
C396 C398 1.391 . S
C397 C396 1.386 . S
C397 C401 1.393 . S
C398 H390 0.950 . S
C398 C396 1.391 . S
C398 C399 1.400 . S
C399 C398 1.400 . S
C399 C400 1.398 1_554 S
C399 C405 1.491 1_554 S
C400 H391 0.950 . S
C400 C399 1.398 1_556 S
C400 C401 1.391 1_556 S
C401 H389 0.943 1_554 S
C401 C397 1.393 . S
C401 C400 1.391 1_554 S
C402 H392 0.950 . S
C402 C403 1.386 . S
C402 C404 1.391 . S
C403 C402 1.386 . S
C403 C407 1.393 . S
C404 H393 0.950 . S
C404 C402 1.391 . S
C404 C405 1.400 . S
C405 C399 1.491 1_556 S
C405 C404 1.400 . S
C405 C406 1.398 1_556 S
C406 H394 0.950 . S
C406 C405 1.398 1_554 S
C406 C407 1.391 1_554 S
C407 H395 0.954 . S
C407 C403 1.393 . S
C407 C406 1.391 1_556 S
H408 C416 0.950 . S
H409 C421 0.950 . S
H410 C418 0.950 . S
H411 C420 0.950 . S
H412 C422 0.950 1_655 S
H413 C424 0.950 . S
H414 C426 0.950 . S
H415 C427 0.950 . S
C416 H408 0.950 . S
C416 C417 1.386 . S
C416 C418 1.391 . S
C417 C416 1.386 . S
C417 C421 1.393 . S
C418 H410 0.950 . S
C418 C416 1.391 . S
C418 C419 1.400 . S
C419 C418 1.400 . S
C419 C420 1.398 . S
C419 C425 1.491 . S
C420 H411 0.950 . S
C420 C419 1.398 . S
C420 C421 1.391 . S
C421 H409 0.950 . S
C421 C417 1.393 . S
C421 C420 1.391 . S
C422 H412 0.950 1_455 S
C422 C423 1.386 1_455 S
C422 C424 1.391 . S
C423 C422 1.386 1_655 S
C423 C427 1.393 . S
C424 H413 0.950 . S
C424 C422 1.391 . S
C424 C425 1.400 . S
C425 C419 1.491 . S
C425 C424 1.400 . S
C425 C426 1.398 . S
C426 H414 0.950 . S
C426 C425 1.398 . S
C426 C427 1.391 1_455 S
C427 H415 0.950 . S
C427 C423 1.393 . S
C427 C426 1.391 1_655 S
H428 C436 0.950 . S
H429 C441 0.950 . S
H430 C438 0.950 . S
H431 C440 0.950 . S
H432 C442 0.950 . S
H433 C444 0.950 . S
H434 C446 0.950 . S
H435 C447 0.950 . S
C436 H428 0.950 . S
C436 C437 1.386 . S
C436 C438 1.391 . S
C437 C436 1.386 . S
C437 C441 1.393 . S
C438 H430 0.950 . S
C438 C436 1.391 . S
C438 C439 1.400 . S
C439 C438 1.400 . S
C439 C440 1.398 . S
C439 C445 1.491 . S
C440 H431 0.950 . S
C440 C439 1.398 . S
C440 C441 1.391 . S
C441 H429 0.950 . S
C441 C437 1.393 . S
C441 C440 1.391 . S
C442 H432 0.950 . S
C442 C443 1.386 . S
C442 C444 1.391 . S
C443 C442 1.386 . S
C443 C447 1.393 . S
C444 H433 0.950 . S
C444 C442 1.391 . S
C444 C445 1.400 . S
C445 C439 1.491 . S
C445 C444 1.400 . S
C445 C446 1.398 . S
C446 H434 0.950 . S
C446 C445 1.398 . S
C446 C447 1.391 . S
C447 H435 0.950 . S
C447 C443 1.393 . S
C447 C446 1.391 . S
H448 C456 0.950 . S
H449 C461 0.950 . S
H450 C458 0.950 . S
H451 C460 0.950 . S
H452 C462 0.950 . S
H453 C464 0.950 . S
H454 C466 0.950 . S
H455 C467 0.950 . S
C456 H448 0.950 . S
C456 C457 1.386 . S
C456 C458 1.391 . S
C457 C456 1.386 . S
C457 C461 1.393 . S
C458 H450 0.950 . S
C458 C456 1.391 . S
C458 C459 1.400 . S
C459 C458 1.400 . S
C459 C460 1.398 . S
C459 C465 1.491 . S
C460 H451 0.950 . S
C460 C459 1.398 . S
C460 C461 1.391 . S
C461 H449 0.950 . S
C461 C457 1.393 . S
C461 C460 1.391 . S
C462 H452 0.950 . S
C462 C463 1.386 . S
C462 C464 1.391 1_545 S
C463 C462 1.386 . S
C463 C467 1.393 . S
C464 H453 0.950 . S
C464 C462 1.391 1_565 S
C464 C465 1.400 . S
C465 C459 1.491 . S
C465 C464 1.400 . S
C465 C466 1.398 . S
C466 H454 0.950 . S
C466 C465 1.398 . S
C466 C467 1.391 1_565 S
C467 H455 0.950 . S
C467 C463 1.393 . S
C467 C466 1.391 1_545 S
H468 C476 0.950 1_554 S
H469 C481 0.950 . S
H470 C478 0.950 . S
H471 C480 0.950 . S
H472 C482 0.950 1_556 S
H473 C484 0.950 . S
H474 C486 0.950 . S
H475 C487 0.950 1_545 S
C476 H468 0.950 1_556 S
C476 C477 1.386 . S
C476 C478 1.391 1_556 S
C477 C476 1.386 . S
C477 C481 1.393 . S
C478 H470 0.950 . S
C478 C476 1.391 1_554 S
C478 C479 1.400 1_554 S
C479 C478 1.400 1_556 S
C479 C480 1.398 . S
C479 C485 1.491 1_556 S
C480 H471 0.950 . S
C480 C479 1.398 . S
C480 C481 1.391 . S
C481 H469 0.950 . S
C481 C477 1.393 . S
C481 C480 1.391 . S
C482 H472 0.950 1_554 S
C482 C483 1.386 . S
C482 C484 1.391 1_544 S
C483 C482 1.386 . S
C483 C487 1.393 1_545 S
C484 H473 0.950 . S
C484 C482 1.391 1_566 S
C484 C485 1.400 1_556 S
C485 C479 1.491 1_554 S
C485 C484 1.400 1_554 S
C485 C486 1.398 . S
C486 H474 0.950 . S
C486 C485 1.398 . S
C486 C487 1.391 . S
C487 H475 0.950 1_565 S
C487 C483 1.393 1_565 S
C487 C486 1.391 . S
H488 C496 0.950 . S
H489 C501 0.950 . S
H490 C498 0.950 . S
H491 C500 0.950 . S
H492 C502 0.979 . S
H493 C504 0.950 . S
H494 C506 0.950 . S
H495 C507 0.950 . S
C496 H488 0.950 . S
C496 C497 1.386 . S
C496 C498 1.391 . S
C497 C496 1.386 . S
C497 C501 1.393 . S
C498 H490 0.950 . S
C498 C496 1.391 . S
C498 C499 1.400 . S
C499 C498 1.400 . S
C499 C500 1.398 1_556 S
C499 C505 1.491 1_556 S
C500 H491 0.950 . S
C500 C499 1.398 1_554 S
C500 C501 1.391 1_554 S
C501 H489 0.950 . S
C501 C497 1.393 . S
C501 C500 1.391 1_556 S
C502 H492 0.979 . S
C502 C503 1.390 . S
C502 C504 1.359 1_655 S
C503 C502 1.390 . S
C503 C507 1.393 . S
C504 H493 0.950 . S
C504 C502 1.359 1_455 S
C504 C505 1.400 . S
C505 C499 1.491 1_554 S
C505 C504 1.400 . S
C505 C506 1.398 1_554 S
C506 H494 0.950 . S
C506 C505 1.398 1_556 S
C506 C507 1.391 1_456 S
C507 H495 0.950 . S
C507 C503 1.393 . S
C507 C506 1.391 1_654 S
H508 C516 0.950 . S
H509 C521 0.950 . S
H510 C518 0.950 . S
H511 C520 0.950 1_556 S
H512 C522 0.950 . S
H513 C524 0.950 . S
H514 C526 0.950 1_554 S
H515 C527 0.950 . S
C516 H508 0.950 . S
C516 C517 1.386 . S
C516 C518 1.391 . S
C517 C516 1.386 . S
C517 C521 1.393 . S
C518 H510 0.950 . S
C518 C516 1.391 . S
C518 C519 1.400 . S
C519 C518 1.400 . S
C519 C520 1.398 . S
C519 C525 1.491 1_554 S
C520 H511 0.950 1_554 S
C520 C519 1.398 . S
C520 C521 1.391 . S
C521 H509 0.950 . S
C521 C517 1.393 . S
C521 C520 1.391 . S
C522 H512 0.950 . S
C522 C523 1.386 . S
C522 C524 1.391 . S
C523 C522 1.386 . S
C523 C527 1.393 . S
C524 H513 0.950 . S
C524 C522 1.391 . S
C524 C525 1.400 . S
C525 C519 1.491 1_556 S
C525 C524 1.400 . S
C525 C526 1.398 . S
C526 H514 0.950 1_556 S
C526 C525 1.398 . S
C526 C527 1.391 . S
C527 H515 0.950 . S
C527 C523 1.393 . S
C527 C526 1.391 . S
H528 C536 0.950 . S
H529 C541 0.950 . S
H530 C538 0.950 . S
H531 C540 0.950 . S
H532 C542 0.970 . S
H533 C544 0.950 . S
H534 C546 0.950 . S
H535 C547 0.950 . S
C536 H528 0.950 . S
C536 C537 1.386 . S
C536 C538 1.391 . S
C537 C536 1.386 . S
C537 C541 1.393 . S
C538 H530 0.950 . S
C538 C536 1.391 . S
C538 C539 1.400 . S
C539 C538 1.400 . S
C539 C540 1.398 . S
C539 C545 1.491 . S
C540 H531 0.950 . S
C540 C539 1.398 . S
C540 C541 1.391 . S
C541 H529 0.950 . S
C541 C537 1.393 . S
C541 C540 1.391 . S
C542 H532 0.970 . S
C542 C543 1.387 . S
C542 C544 1.370 1_455 S
C543 C542 1.387 . S
C543 C547 1.393 . S
C544 H533 0.950 . S
C544 C542 1.370 1_655 S
C544 C545 1.400 . S
C545 C539 1.491 . S
C545 C544 1.400 . S
C545 C546 1.398 . S
C546 H534 0.950 . S
C546 C545 1.398 . S
C546 C547 1.391 1_655 S
C547 H535 0.950 . S
C547 C543 1.393 . S
C547 C546 1.391 1_455 S
H548 C556 0.950 . S
H549 C561 0.950 . S
H550 C558 0.950 . S
H551 C560 0.950 . S
H552 C562 0.950 . S
H553 C564 0.950 . S
H554 C566 0.950 . S
H555 C567 0.950 . S
C556 H548 0.950 . S
C556 C557 1.386 . S
C556 C558 1.391 . S
C557 C556 1.386 . S
C557 C561 1.393 . S
C558 H550 0.950 . S
C558 C556 1.391 . S
C558 C559 1.400 . S
C559 C558 1.400 . S
C559 C560 1.398 . S
C559 C565 1.491 . S
C560 H551 0.950 . S
C560 C559 1.398 . S
C560 C561 1.391 . S
C561 H549 0.950 . S
C561 C557 1.393 . S
C561 C560 1.391 . S
C562 H552 0.950 . S
C562 C563 1.386 . S
C562 C564 1.391 . S
C563 C562 1.386 . S
C563 C567 1.393 . S
C564 H553 0.950 . S
C564 C562 1.391 . S
C564 C565 1.400 . S
C565 C559 1.491 . S
C565 C564 1.400 . S
C565 C566 1.398 . S
C566 H554 0.950 . S
C566 C565 1.398 . S
C566 C567 1.391 . S
C567 H555 0.950 . S
C567 C563 1.393 . S
C567 C566 1.391 . S
H568 C576 0.950 . S
H569 C581 0.950 1_565 S
H570 C578 0.950 . S
H571 C580 0.950 . S
H572 C582 0.950 . S
H573 C584 0.950 . S
H574 C586 0.950 . S
H575 C587 0.950 . S
C576 H568 0.950 . S
C576 C577 1.386 . S
C576 C578 1.391 1_565 S
C577 C576 1.386 . S
C577 C581 1.393 1_565 S
C578 H570 0.950 . S
C578 C576 1.391 1_545 S
C578 C579 1.400 . S
C579 C578 1.400 . S
C579 C580 1.398 . S
C579 C585 1.491 . S
C580 H571 0.950 . S
C580 C579 1.398 . S
C580 C581 1.391 . S
C581 H569 0.950 1_545 S
C581 C577 1.393 1_545 S
C581 C580 1.391 . S
C582 H572 0.950 . S
C582 C583 1.386 . S
C582 C584 1.391 . S
C583 C582 1.386 . S
C583 C587 1.393 . S
C584 H573 0.950 . S
C584 C582 1.391 . S
C584 C585 1.400 . S
C585 C579 1.491 . S
C585 C584 1.400 . S
C585 C586 1.398 . S
C586 H574 0.950 . S
C586 C585 1.398 . S
C586 C587 1.391 . S
C587 H575 0.950 . S
C587 C583 1.393 . S
C587 C586 1.391 . S
H588 C596 0.950 . S
H589 C601 0.950 . S
H590 C598 0.950 . S
H591 C600 0.950 . S
H592 C602 0.950 . S
H593 C604 0.950 . S
H594 C606 0.950 . S
H595 C607 0.950 . S
C596 H588 0.950 . S
C596 C597 1.386 . S
C596 C598 1.391 . S
C597 C596 1.386 . S
C597 C601 1.393 . S
C598 H590 0.950 . S
C598 C596 1.391 . S
C598 C599 1.400 . S
C599 C598 1.400 . S
C599 C600 1.398 . S
C599 C605 1.491 . S
C600 H591 0.950 . S
C600 C599 1.398 . S
C600 C601 1.391 . S
C601 H589 0.950 . S
C601 C597 1.393 . S
C601 C600 1.391 . S
C602 H592 0.950 . S
C602 C603 1.386 . S
C602 C604 1.391 . S
C603 C602 1.386 . S
C603 C607 1.393 . S
C604 H593 0.950 . S
C604 C602 1.391 . S
C604 C605 1.400 . S
C605 C599 1.491 . S
C605 C604 1.400 . S
C605 C606 1.398 . S
C606 H594 0.950 . S
C606 C605 1.398 . S
C606 C607 1.391 . S
C607 H595 0.950 . S
C607 C603 1.393 . S
C607 C606 1.391 . S
H608 C616 0.950 . S
H609 C621 0.950 1_565 S
H610 C618 0.950 . S
H611 C620 0.950 . S
H612 C622 0.950 . S
H613 C624 0.950 . S
H614 C626 0.950 . S
H615 C627 0.950 1_545 S
C616 H608 0.950 . S
C616 C617 1.386 . S
C616 C618 1.391 . S
C617 C616 1.386 . S
C617 C621 1.393 . S
C618 H610 0.950 . S
C618 C616 1.391 . S
C618 C619 1.400 . S
C619 C618 1.400 . S
C619 C620 1.398 1_545 S
C619 C625 1.491 1_545 S
C620 H611 0.950 . S
C620 C619 1.398 1_565 S
C620 C621 1.391 1_565 S
C621 H609 0.950 1_545 S
C621 C617 1.393 . S
C621 C620 1.391 1_545 S
C622 H612 0.950 . S
C622 C623 1.386 . S
C622 C624 1.391 . S
C623 C622 1.386 . S
C623 C627 1.393 . S
C624 H613 0.950 . S
C624 C622 1.391 . S
C624 C625 1.400 . S
C625 C619 1.491 1_565 S
C625 C624 1.400 . S
C625 C626 1.398 1_565 S
C626 H614 0.950 . S
C626 C625 1.398 1_545 S
C626 C627 1.391 1_545 S
C627 H615 0.950 1_565 S
C627 C623 1.393 . S
C627 C626 1.391 1_565 S
H628 C636 0.950 . S
H629 C641 0.950 . S
H630 C638 0.950 . S
H631 C640 0.950 . S
H632 C642 0.950 . S
H633 C644 0.950 . S
H634 C646 0.950 . S
H635 C647 0.950 . S
C636 H628 0.950 . S
C636 C637 1.386 . S
C636 C638 1.391 . S
C637 C636 1.386 . S
C637 C641 1.393 . S
C638 H630 0.950 . S
C638 C636 1.391 . S
C638 C639 1.400 . S
C639 C638 1.400 . S
C639 C640 1.398 . S
C639 C645 1.491 1_655 S
C640 H631 0.950 . S
C640 C639 1.398 . S
C640 C641 1.391 . S
C641 H629 0.950 . S
C641 C637 1.393 . S
C641 C640 1.391 . S
C642 H632 0.950 . S
C642 C643 1.386 . S
C642 C644 1.391 . S
C643 C642 1.386 . S
C643 C647 1.393 . S
C644 H633 0.950 . S
C644 C642 1.391 . S
C644 C645 1.400 . S
C645 C639 1.491 1_455 S
C645 C644 1.400 . S
C645 C646 1.398 . S
C646 H634 0.950 . S
C646 C645 1.398 . S
C646 C647 1.391 . S
C647 H635 0.950 . S
C647 C643 1.393 . S
C647 C646 1.391 . S
H648 C656 0.950 . S
H649 C661 0.950 . S
H650 C658 0.950 . S
H651 C660 0.950 . S
H652 C662 0.950 . S
H653 C664 0.950 . S
H654 C666 0.950 . S
H655 C667 0.950 . S
C656 H648 0.950 . S
C656 C657 1.386 . S
C656 C658 1.391 . S
C657 C656 1.386 . S
C657 C661 1.393 . S
C658 H650 0.950 . S
C658 C656 1.391 . S
C658 C659 1.400 . S
C659 C658 1.400 . S
C659 C660 1.398 . S
C659 C665 1.491 . S
C660 H651 0.950 . S
C660 C659 1.398 . S
C660 C661 1.391 . S
C661 H649 0.950 . S
C661 C657 1.393 . S
C661 C660 1.391 . S
C662 H652 0.950 . S
C662 C663 1.386 . S
C662 C664 1.391 . S
C663 C662 1.386 . S
C663 C667 1.393 . S
C664 H653 0.950 . S
C664 C662 1.391 . S
C664 C665 1.400 . S
C665 C659 1.491 . S
C665 C664 1.400 . S
C665 C666 1.398 . S
C666 H654 0.950 . S
C666 C665 1.398 . S
C666 C667 1.391 . S
C667 H655 0.950 . S
C667 C663 1.393 . S
C667 C666 1.391 . S
H668 C676 0.950 . S
H669 C681 0.950 . S
H670 C678 0.950 . S
H671 C680 0.950 . S
H672 C682 0.950 . S
H673 C684 0.950 . S
H674 C686 0.950 . S
H675 C687 0.950 . S
C676 H668 0.950 . S
C676 C677 1.386 . S
C676 C678 1.391 . S
C677 C676 1.386 . S
C677 C681 1.393 . S
C678 H670 0.950 . S
C678 C676 1.391 . S
C678 C679 1.400 . S
C679 C678 1.400 . S
C679 C680 1.398 1_545 S
C679 C685 1.491 1_545 S
C680 H671 0.950 . S
C680 C679 1.398 1_565 S
C680 C681 1.391 1_565 S
C681 H669 0.950 . S
C681 C677 1.393 . S
C681 C680 1.391 1_545 S
C682 H672 0.950 . S
C682 C683 1.386 . S
C682 C684 1.391 . S
C683 C682 1.386 . S
C683 C687 1.393 . S
C684 H673 0.950 . S
C684 C682 1.391 . S
C684 C685 1.400 . S
C685 C679 1.491 1_565 S
C685 C684 1.400 . S
C685 C686 1.398 1_565 S
C686 H674 0.950 . S
C686 C685 1.398 1_545 S
C686 C687 1.391 1_545 S
C687 H675 0.950 . S
C687 C683 1.393 . S
C687 C686 1.391 1_565 S
H688 C696 0.950 . S
H689 C701 0.950 . S
H690 C698 0.950 . S
H691 C700 0.950 . S
H692 C702 0.950 . S
H693 C704 0.950 . S
H694 C706 0.950 . S
H695 C707 0.950 . S
C696 H688 0.950 . S
C696 C697 1.386 . S
C696 C698 1.391 . S
C697 C696 1.386 . S
C697 C701 1.393 . S
C698 H690 0.950 . S
C698 C696 1.391 . S
C698 C699 1.400 . S
C699 C698 1.400 . S
C699 C700 1.398 1_655 S
C699 C705 1.491 1_655 S
C700 H691 0.950 . S
C700 C699 1.398 1_455 S
C700 C701 1.391 1_455 S
C701 H689 0.950 . S
C701 C697 1.393 . S
C701 C700 1.391 1_655 S
C702 H692 0.950 . S
C702 C703 1.386 . S
C702 C704 1.391 . S
C703 C702 1.386 . S
C703 C707 1.393 . S
C704 H693 0.950 . S
C704 C702 1.391 . S
C704 C705 1.400 . S
C705 C699 1.491 1_455 S
C705 C704 1.400 . S
C705 C706 1.398 1_455 S
C706 H694 0.950 . S
C706 C705 1.398 1_655 S
C706 C707 1.391 1_655 S
C707 H695 0.950 . S
C707 C703 1.393 . S
C707 C706 1.391 1_455 S
H708 C716 0.950 . S
H709 C721 0.950 . S
H710 C718 0.950 . S
H711 C720 0.950 . S
H712 C722 0.950 . S
H713 C724 0.950 . S
H714 C726 0.950 . S
H715 C727 0.950 . S
C716 H708 0.950 . S
C716 C717 1.386 . S
C716 C718 1.391 . S
C717 C716 1.386 . S
C717 C721 1.393 . S
C718 H710 0.950 . S
C718 C716 1.391 . S
C718 C719 1.400 . S
C719 C718 1.400 . S
C719 C720 1.398 . S
C719 C725 1.491 . S
C720 H711 0.950 . S
C720 C719 1.398 . S
C720 C721 1.391 . S
C721 H709 0.950 . S
C721 C717 1.393 . S
C721 C720 1.391 . S
C722 H712 0.950 . S
C722 C723 1.386 . S
C722 C724 1.391 . S
C723 C722 1.386 . S
C723 C727 1.393 . S
C724 H713 0.950 . S
C724 C722 1.391 . S
C724 C725 1.400 . S
C725 C719 1.491 . S
C725 C724 1.400 . S
C725 C726 1.398 . S
C726 H714 0.950 . S
C726 C725 1.398 . S
C726 C727 1.391 . S
C727 H715 0.950 . S
C727 C723 1.393 . S
C727 C726 1.391 . S
H728 C736 0.950 . S
H729 C741 0.950 . S
H730 C738 0.950 . S
H731 C740 0.950 . S
H732 C742 0.950 . S
H733 C744 0.950 . S
H734 C746 0.950 . S
H735 C747 0.950 . S
C736 H728 0.950 . S
C736 C737 1.386 . S
C736 C738 1.391 . S
C737 C736 1.386 . S
C737 C741 1.393 . S
C738 H730 0.950 . S
C738 C736 1.391 . S
C738 C739 1.400 . S
C739 C738 1.400 . S
C739 C740 1.398 . S
C739 C745 1.491 . S
C740 H731 0.950 . S
C740 C739 1.398 . S
C740 C741 1.391 . S
C741 H729 0.950 . S
C741 C737 1.393 . S
C741 C740 1.391 . S
C742 H732 0.950 . S
C742 C743 1.386 . S
C742 C744 1.391 . S
C743 C742 1.386 . S
C743 C747 1.393 . S
C744 H733 0.950 . S
C744 C742 1.391 . S
C744 C745 1.400 . S
C745 C739 1.491 . S
C745 C744 1.400 . S
C745 C746 1.398 . S
C746 H734 0.950 . S
C746 C745 1.398 . S
C746 C747 1.391 . S
C747 H735 0.950 . S
C747 C743 1.393 . S
C747 C746 1.391 . S
H748 C756 0.950 . S
H749 C761 0.950 . S
H750 C758 0.950 . S
H751 C760 0.950 . S
H752 C762 0.950 . S
H753 C764 0.950 . S
H754 C766 0.950 . S
H755 C767 0.950 . S
C756 H748 0.950 . S
C756 C757 1.386 . S
C756 C758 1.391 . S
C757 C756 1.386 . S
C757 C761 1.393 . S
C758 H750 0.950 . S
C758 C756 1.391 . S
C758 C759 1.400 . S
C759 C758 1.400 . S
C759 C760 1.398 . S
C759 C765 1.491 . S
C760 H751 0.950 . S
C760 C759 1.398 . S
C760 C761 1.391 . S
C761 H749 0.950 . S
C761 C757 1.393 . S
C761 C760 1.391 . S
C762 H752 0.950 . S
C762 C763 1.386 . S
C762 C764 1.391 . S
C763 C762 1.386 . S
C763 C767 1.393 . S
C764 H753 0.950 . S
C764 C762 1.391 . S
C764 C765 1.400 . S
C765 C759 1.491 . S
C765 C764 1.400 . S
C765 C766 1.398 . S
C766 H754 0.950 . S
C766 C765 1.398 . S
C766 C767 1.391 . S
C767 H755 0.950 . S
C767 C763 1.393 . S
C767 C766 1.391 . S
H768 C776 0.950 . S
H769 C781 0.950 . S
H770 C778 0.950 . S
H771 C780 0.950 . S
H772 C782 0.950 . S
H773 C784 0.950 . S
H774 C786 0.950 . S
H775 C787 0.950 . S
C776 H768 0.950 . S
C776 C777 1.386 . S
C776 C778 1.391 . S
C777 C776 1.386 . S
C777 C781 1.393 . S
C778 H770 0.950 . S
C778 C776 1.391 . S
C778 C779 1.400 . S
C779 C778 1.400 . S
C779 C780 1.398 . S
C779 C785 1.491 . S
C780 H771 0.950 . S
C780 C779 1.398 . S
C780 C781 1.391 . S
C781 H769 0.950 . S
C781 C777 1.393 . S
C781 C780 1.391 . S
C782 H772 0.950 . S
C782 C783 1.386 . S
C782 C784 1.391 . S
C783 C782 1.386 . S
C783 C787 1.393 . S
C784 H773 0.950 . S
C784 C782 1.391 . S
C784 C785 1.400 . S
C785 C779 1.491 . S
C785 C784 1.400 . S
C785 C786 1.398 . S
C786 H774 0.950 . S
C786 C785 1.398 . S
C786 C787 1.391 . S
C787 H775 0.950 . S
C787 C783 1.393 . S
C787 C786 1.391 . S
H788 C796 0.950 . S
H789 C801 0.950 . S
H790 C798 0.950 . S
H791 C800 0.950 . S
H792 C802 0.950 . S
H793 C804 0.950 . S
H794 C806 0.950 . S
H795 C807 0.950 . S
C796 H788 0.950 . S
C796 C797 1.386 . S
C796 C798 1.391 . S
C797 C796 1.386 . S
C797 C801 1.393 . S
C798 H790 0.950 . S
C798 C796 1.391 . S
C798 C799 1.400 . S
C799 C798 1.400 . S
C799 C800 1.398 . S
C799 C805 1.491 . S
C800 H791 0.950 . S
C800 C799 1.398 . S
C800 C801 1.391 . S
C801 H789 0.950 . S
C801 C797 1.393 . S
C801 C800 1.391 . S
C802 H792 0.950 . S
C802 C803 1.386 . S
C802 C804 1.391 . S
C803 C802 1.386 . S
C803 C807 1.393 . S
C804 H793 0.950 . S
C804 C802 1.391 . S
C804 C805 1.400 . S
C805 C799 1.491 . S
C805 C804 1.400 . S
C805 C806 1.398 . S
C806 H794 0.950 . S
C806 C805 1.398 . S
C806 C807 1.391 . S
C807 H795 0.950 . S
C807 C803 1.393 . S
C807 C806 1.391 . S
H808 C816 0.950 . S
H809 C821 0.950 . S
H810 C818 0.950 . S
H811 C820 0.950 . S
H812 C822 0.950 . S
H813 C824 0.950 . S
H814 C826 0.950 . S
H815 C827 0.950 . S
C816 H808 0.950 . S
C816 C817 1.386 . S
C816 C818 1.391 . S
C817 C816 1.386 . S
C817 C821 1.393 . S
C818 H810 0.950 . S
C818 C816 1.391 . S
C818 C819 1.400 . S
C819 C818 1.400 . S
C819 C820 1.398 . S
C819 C825 1.491 . S
C820 H811 0.950 . S
C820 C819 1.398 . S
C820 C821 1.391 . S
C821 H809 0.950 . S
C821 C817 1.393 . S
C821 C820 1.391 . S
C822 H812 0.950 . S
C822 C823 1.386 . S
C822 C824 1.391 . S
C823 C822 1.386 . S
C823 C827 1.393 . S
C824 H813 0.950 . S
C824 C822 1.391 . S
C824 C825 1.400 . S
C825 C819 1.491 . S
C825 C824 1.400 . S
C825 C826 1.398 . S
C826 H814 0.950 . S
C826 C825 1.398 . S
C826 C827 1.391 . S
C827 H815 0.950 . S
C827 C823 1.393 . S
C827 C826 1.391 . S
H828 C836 0.950 . S
H829 C841 0.950 . S
H830 C838 0.950 . S
H831 C840 0.950 . S
H832 C842 0.950 . S
H833 C844 0.950 . S
H834 C846 0.950 . S
H835 C847 0.950 . S
C836 H828 0.950 . S
C836 C837 1.386 . S
C836 C838 1.391 . S
C837 C836 1.386 . S
C837 C841 1.393 . S
C838 H830 0.950 . S
C838 C836 1.391 . S
C838 C839 1.400 . S
C839 C838 1.400 . S
C839 C840 1.398 . S
C839 C845 1.491 . S
C840 H831 0.950 . S
C840 C839 1.398 . S
C840 C841 1.391 . S
C841 H829 0.950 . S
C841 C837 1.393 . S
C841 C840 1.391 . S
C842 H832 0.950 . S
C842 C843 1.386 . S
C842 C844 1.391 . S
C843 C842 1.386 . S
C843 C847 1.393 . S
C844 H833 0.950 . S
C844 C842 1.391 . S
C844 C845 1.400 . S
C845 C839 1.491 . S
C845 C844 1.400 . S
C845 C846 1.398 . S
C846 H834 0.950 . S
C846 C845 1.398 . S
C846 C847 1.391 . S
C847 H835 0.950 . S
C847 C843 1.393 . S
C847 C846 1.391 . S
H848 C856 0.950 . S
H849 C861 0.950 . S
H850 C858 0.950 . S
H851 C860 0.950 . S
H852 C862 0.950 . S
H853 C864 0.950 . S
H854 C866 0.950 . S
H855 C867 0.950 . S
C856 H848 0.950 . S
C856 C857 1.386 . S
C856 C858 1.391 . S
C857 C856 1.386 . S
C857 C861 1.393 . S
C858 H850 0.950 . S
C858 C856 1.391 . S
C858 C859 1.400 . S
C859 C858 1.400 . S
C859 C860 1.398 . S
C859 C865 1.491 . S
C860 H851 0.950 . S
C860 C859 1.398 . S
C860 C861 1.391 . S
C861 H849 0.950 . S
C861 C857 1.393 . S
C861 C860 1.391 . S
C862 H852 0.950 . S
C862 C863 1.386 . S
C862 C864 1.391 . S
C863 C862 1.386 . S
C863 C867 1.393 . S
C864 H853 0.950 . S
C864 C862 1.391 . S
C864 C865 1.400 . S
C865 C859 1.491 . S
C865 C864 1.400 . S
C865 C866 1.398 . S
C866 H854 0.950 . S
C866 C865 1.398 . S
C866 C867 1.391 . S
C867 H855 0.950 . S
C867 C863 1.393 . S
C867 C866 1.391 . S
H868 C876 0.950 . S
H869 C881 0.950 . S
H870 C878 0.950 . S
H871 C880 0.950 . S
H872 C882 0.950 . S
H873 C884 0.950 . S
H874 C886 0.950 . S
H875 C887 0.950 . S
C876 H868 0.950 . S
C876 C877 1.386 . S
C876 C878 1.391 . S
C877 C876 1.386 . S
C877 C881 1.393 . S
C878 H870 0.950 . S
C878 C876 1.391 . S
C878 C879 1.400 . S
C879 C878 1.400 . S
C879 C880 1.398 . S
C879 C885 1.491 . S
C880 H871 0.950 . S
C880 C879 1.398 . S
C880 C881 1.391 . S
C881 H869 0.950 . S
C881 C877 1.393 . S
C881 C880 1.391 . S
C882 H872 0.950 . S
C882 C883 1.386 . S
C882 C884 1.391 . S
C883 C882 1.386 . S
C883 C887 1.393 . S
C884 H873 0.950 . S
C884 C882 1.391 . S
C884 C885 1.400 . S
C885 C879 1.491 . S
C885 C884 1.400 . S
C885 C886 1.398 . S
C886 H874 0.950 . S
C886 C885 1.398 . S
C886 C887 1.391 . S
C887 H875 0.950 . S
C887 C883 1.393 . S
C887 C886 1.391 . S
H888 C896 0.950 . S
H889 C901 0.950 . S
H890 C898 0.950 . S
H891 C900 0.950 . S
H892 C902 0.950 . S
H893 C904 0.950 . S
H894 C906 0.950 . S
H895 C907 0.950 . S
C896 H888 0.950 . S
C896 C897 1.386 . S
C896 C898 1.391 . S
C897 C896 1.386 . S
C897 C901 1.393 . S
C898 H890 0.950 . S
C898 C896 1.391 . S
C898 C899 1.400 . S
C899 C898 1.400 . S
C899 C900 1.398 . S
C899 C905 1.491 . S
C900 H891 0.950 . S
C900 C899 1.398 . S
C900 C901 1.391 . S
C901 H889 0.950 . S
C901 C897 1.393 . S
C901 C900 1.391 . S
C902 H892 0.950 . S
C902 C903 1.386 . S
C902 C904 1.391 . S
C903 C902 1.386 . S
C903 C907 1.393 . S
C904 H893 0.950 . S
C904 C902 1.391 . S
C904 C905 1.400 . S
C905 C899 1.491 . S
C905 C904 1.400 . S
C905 C906 1.398 . S
C906 H894 0.950 . S
C906 C905 1.398 . S
C906 C907 1.391 . S
C907 H895 0.950 . S
C907 C903 1.393 . S
C907 C906 1.391 . S
H908 C916 0.950 . S
H909 C921 0.950 . S
H910 C918 0.950 . S
H911 C920 0.950 . S
H912 C922 0.950 . S
H913 C924 0.950 . S
H914 C926 0.950 . S
H915 C927 0.950 . S
C916 H908 0.950 . S
C916 C917 1.386 . S
C916 C918 1.391 . S
C917 C916 1.386 . S
C917 C921 1.393 . S
C918 H910 0.950 . S
C918 C916 1.391 . S
C918 C919 1.400 . S
C919 C918 1.400 . S
C919 C920 1.398 . S
C919 C925 1.491 . S
C920 H911 0.950 . S
C920 C919 1.398 . S
C920 C921 1.391 . S
C921 H909 0.950 . S
C921 C917 1.393 . S
C921 C920 1.391 . S
C922 H912 0.950 . S
C922 C923 1.386 . S
C922 C924 1.391 . S
C923 C922 1.386 . S
C923 C927 1.393 . S
C924 H913 0.950 . S
C924 C922 1.391 . S
C924 C925 1.400 . S
C925 C919 1.491 . S
C925 C924 1.400 . S
C925 C926 1.398 . S
C926 H914 0.950 . S
C926 C925 1.398 . S
C926 C927 1.391 . S
C927 H915 0.950 . S
C927 C923 1.393 . S
C927 C926 1.391 . S
H928 C936 0.950 . S
H929 C941 0.950 . S
H930 C938 0.950 . S
H931 C940 0.950 . S
H932 C942 0.950 . S
H933 C944 0.950 . S
H934 C946 0.950 . S
H935 C947 0.950 . S
C936 H928 0.950 . S
C936 C937 1.386 . S
C936 C938 1.391 . S
C937 C936 1.386 . S
C937 C941 1.393 . S
C938 H930 0.950 . S
C938 C936 1.391 . S
C938 C939 1.400 . S
C939 C938 1.400 . S
C939 C940 1.398 . S
C939 C945 1.491 . S
C940 H931 0.950 . S
C940 C939 1.398 . S
C940 C941 1.391 . S
C941 H929 0.950 . S
C941 C937 1.393 . S
C941 C940 1.391 . S
C942 H932 0.950 . S
C942 C943 1.386 . S
C942 C944 1.391 . S
C943 C942 1.386 . S
C943 C947 1.393 . S
C944 H933 0.950 . S
C944 C942 1.391 . S
C944 C945 1.400 . S
C945 C939 1.491 . S
C945 C944 1.400 . S
C945 C946 1.398 . S
C946 H934 0.950 . S
C946 C945 1.398 . S
C946 C947 1.391 . S
C947 H935 0.950 . S
C947 C943 1.393 . S
C947 C946 1.391 . S
H948 C956 0.950 . S
H949 C961 0.950 . S
H950 C958 0.950 . S
H951 C960 0.950 . S
H952 C962 0.950 . S
H953 C964 0.950 . S
H954 C966 0.950 . S
H955 C967 0.950 . S
C956 H948 0.950 . S
C956 C957 1.386 . S
C956 C958 1.391 . S
C957 C956 1.386 . S
C957 C961 1.393 . S
C958 H950 0.950 . S
C958 C956 1.391 . S
C958 C959 1.400 . S
C959 C958 1.400 . S
C959 C960 1.398 . S
C959 C965 1.491 . S
C960 H951 0.950 . S
C960 C959 1.398 . S
C960 C961 1.391 . S
C961 H949 0.950 . S
C961 C957 1.393 . S
C961 C960 1.391 . S
C962 H952 0.950 . S
C962 C963 1.386 . S
C962 C964 1.391 . S
C963 C962 1.386 . S
C963 C967 1.393 . S
C964 H953 0.950 . S
C964 C962 1.391 . S
C964 C965 1.400 . S
C965 C959 1.491 . S
C965 C964 1.400 . S
C965 C966 1.398 . S
C966 H954 0.950 . S
C966 C965 1.398 . S
C966 C967 1.391 . S
C967 H955 0.950 . S
C967 C963 1.393 . S
C967 C966 1.391 . S
H968 C976 0.950 . S
H969 C981 0.950 . S
H970 C978 0.950 . S
H971 C980 0.950 . S
H972 C982 0.950 . S
H973 C984 0.950 . S
H974 C986 0.950 . S
H975 C987 0.950 . S
C976 H968 0.950 . S
C976 C977 1.386 . S
C976 C978 1.391 . S
C977 C976 1.386 . S
C977 C981 1.393 . S
C978 H970 0.950 . S
C978 C976 1.391 . S
C978 C979 1.400 . S
C979 C978 1.400 . S
C979 C980 1.398 . S
C979 C985 1.491 . S
C980 H971 0.950 . S
C980 C979 1.398 . S
C980 C981 1.391 . S
C981 H969 0.950 . S
C981 C977 1.393 . S
C981 C980 1.391 . S
C982 H972 0.950 . S
C982 C983 1.386 . S
C982 C984 1.391 . S
C983 C982 1.386 . S
C983 C987 1.393 . S
C984 H973 0.950 . S
C984 C982 1.391 . S
C984 C985 1.400 . S
C985 C979 1.491 . S
C985 C984 1.400 . S
C985 C986 1.398 . S
C986 H974 0.950 . S
C986 C985 1.398 . S
C986 C987 1.391 . S
C987 H975 0.950 . S
C987 C983 1.393 . S
C987 C986 1.391 . S
H988 C996 0.950 . S
H989 C1001 0.950 . S
H990 C998 0.950 . S
H991 C1000 0.950 . S
H992 C1002 0.950 . S
H993 C1004 0.950 . S
H994 C1006 0.950 . S
H995 C1007 0.950 . S
C996 H988 0.950 . S
C996 C997 1.386 . S
C996 C998 1.391 . S
C997 C996 1.386 . S
C997 C1001 1.393 . S
C998 H990 0.950 . S
C998 C996 1.391 . S
C998 C999 1.400 . S
C999 C998 1.400 . S
C999 C1000 1.398 . S
C999 C1005 1.491 . S
C1000 H991 0.950 . S
C1000 C999 1.398 . S
C1000 C1001 1.391 . S
C1001 H989 0.950 . S
C1001 C997 1.393 . S
C1001 C1000 1.391 . S
C1002 H992 0.950 . S
C1002 C1003 1.386 . S
C1002 C1004 1.391 . S
C1003 C1002 1.386 . S
C1003 C1007 1.393 . S
C1004 H993 0.950 . S
C1004 C1002 1.391 . S
C1004 C1005 1.400 . S
C1005 C999 1.491 . S
C1005 C1004 1.400 . S
C1005 C1006 1.398 . S
C1006 H994 0.950 . S
C1006 C1005 1.398 . S
C1006 C1007 1.391 . S
C1007 H995 0.950 . S
C1007 C1003 1.393 . S
C1007 C1006 1.391 . S
H1008 C1016 0.950 . S
H1009 C1021 0.950 . S
H1010 C1018 0.950 . S
H1011 C1020 0.950 . S
H1012 C1022 0.950 . S
H1013 C1024 0.950 . S
H1014 C1026 0.950 . S
H1015 C1027 0.950 . S
C1016 H1008 0.950 . S
C1016 C1017 1.386 . S
C1016 C1018 1.391 . S
C1017 C1016 1.386 . S
C1017 C1021 1.393 . S
C1018 H1010 0.950 . S
C1018 C1016 1.391 . S
C1018 C1019 1.400 . S
C1019 C1018 1.400 . S
C1019 C1020 1.398 . S
C1019 C1025 1.491 . S
C1020 H1011 0.950 . S
C1020 C1019 1.398 . S
C1020 C1021 1.391 . S
C1021 H1009 0.950 . S
C1021 C1017 1.393 . S
C1021 C1020 1.391 . S
C1022 H1012 0.950 . S
C1022 C1023 1.386 . S
C1022 C1024 1.391 . S
C1023 C1022 1.386 . S
C1023 C1027 1.393 . S
C1024 H1013 0.950 . S
C1024 C1022 1.391 . S
C1024 C1025 1.400 . S
C1025 C1019 1.491 . S
C1025 C1024 1.400 . S
C1025 C1026 1.398 . S
C1026 H1014 0.950 . S
C1026 C1025 1.398 . S
C1026 C1027 1.391 . S
C1027 H1015 0.950 . S
C1027 C1023 1.393 . S
C1027 C1026 1.391 . S
H1028 C1036 0.950 . S
H1029 C1041 0.950 . S
H1030 C1038 0.950 . S
H1031 C1040 0.950 . S
H1032 C1042 0.950 . S
H1033 C1044 0.950 . S
H1034 C1046 0.950 . S
H1035 C1047 0.950 . S
C1036 H1028 0.950 . S
C1036 C1037 1.386 . S
C1036 C1038 1.391 . S
C1037 C1036 1.386 . S
C1037 C1041 1.393 . S
C1038 H1030 0.950 . S
C1038 C1036 1.391 . S
C1038 C1039 1.400 . S
C1039 C1038 1.400 . S
C1039 C1040 1.398 . S
C1039 C1045 1.491 . S
C1040 H1031 0.950 . S
C1040 C1039 1.398 . S
C1040 C1041 1.391 . S
C1041 H1029 0.950 . S
C1041 C1037 1.393 . S
C1041 C1040 1.391 . S
C1042 H1032 0.950 . S
C1042 C1043 1.386 . S
C1042 C1044 1.391 . S
C1043 C1042 1.386 . S
C1043 C1047 1.393 . S
C1044 H1033 0.950 . S
C1044 C1042 1.391 . S
C1044 C1045 1.400 . S
C1045 C1039 1.491 . S
C1045 C1044 1.400 . S
C1045 C1046 1.398 . S
C1046 H1034 0.950 . S
C1046 C1045 1.398 . S
C1046 C1047 1.391 . S
C1047 H1035 0.950 . S
C1047 C1043 1.393 . S
C1047 C1046 1.391 . S
H1048 C1056 0.950 . S
H1049 C1061 0.950 . S
H1050 C1058 0.950 . S
H1051 C1060 0.950 . S
H1052 C1062 0.950 . S
H1053 C1064 0.950 . S
H1054 C1066 0.950 . S
H1055 C1067 0.950 . S
C1056 H1048 0.950 . S
C1056 C1057 1.386 . S
C1056 C1058 1.391 . S
C1057 C1056 1.386 . S
C1057 C1061 1.393 . S
C1058 H1050 0.950 . S
C1058 C1056 1.391 . S
C1058 C1059 1.400 . S
C1059 C1058 1.400 . S
C1059 C1060 1.398 . S
C1059 C1065 1.491 . S
C1060 H1051 0.950 . S
C1060 C1059 1.398 . S
C1060 C1061 1.391 . S
C1061 H1049 0.950 . S
C1061 C1057 1.393 . S
C1061 C1060 1.391 . S
C1062 H1052 0.950 . S
C1062 C1063 1.386 . S
C1062 C1064 1.391 . S
C1063 C1062 1.386 . S
C1063 C1067 1.393 . S
C1064 H1053 0.950 . S
C1064 C1062 1.391 . S
C1064 C1065 1.400 . S
C1065 C1059 1.491 . S
C1065 C1064 1.400 . S
C1065 C1066 1.398 . S
C1066 H1054 0.950 . S
C1066 C1065 1.398 . S
C1066 C1067 1.391 . S
C1067 H1055 0.950 . S
C1067 C1063 1.393 . S
C1067 C1066 1.391 . S
H1068 C1076 0.950 . S
H1069 C1081 0.950 . S
H1070 C1078 0.950 . S
H1071 C1080 0.950 . S
H1072 C1082 0.950 . S
H1073 C1084 0.950 . S
H1074 C1086 0.950 . S
H1075 C1087 0.950 . S
C1076 H1068 0.950 . S
C1076 C1077 1.386 . S
C1076 C1078 1.391 . S
C1077 C1076 1.386 . S
C1077 C1081 1.393 . S
C1078 H1070 0.950 . S
C1078 C1076 1.391 . S
C1078 C1079 1.400 . S
C1079 C1078 1.400 . S
C1079 C1080 1.398 . S
C1079 C1085 1.491 . S
C1080 H1071 0.950 . S
C1080 C1079 1.398 . S
C1080 C1081 1.391 . S
C1081 H1069 0.950 . S
C1081 C1077 1.393 . S
C1081 C1080 1.391 . S
C1082 H1072 0.950 . S
C1082 C1083 1.386 . S
C1082 C1084 1.391 . S
C1083 C1082 1.386 . S
C1083 C1087 1.393 . S
C1084 H1073 0.950 . S
C1084 C1082 1.391 . S
C1084 C1085 1.400 . S
C1085 C1079 1.491 . S
C1085 C1084 1.400 . S
C1085 C1086 1.398 . S
C1086 H1074 0.950 . S
C1086 C1085 1.398 . S
C1086 C1087 1.391 . S
C1087 H1075 0.950 . S
C1087 C1083 1.393 . S
C1087 C1086 1.391 . S
H1088 C1096 0.950 . S
H1089 C1101 0.950 . S
H1090 C1098 0.950 . S
H1091 C1100 0.950 . S
H1092 C1102 0.950 . S
H1093 C1104 0.950 . S
H1094 C1106 0.950 . S
H1095 C1107 0.950 . S
C1096 H1088 0.950 . S
C1096 C1097 1.386 . S
C1096 C1098 1.391 . S
C1097 C1096 1.386 . S
C1097 C1101 1.393 . S
C1098 H1090 0.950 . S
C1098 C1096 1.391 . S
C1098 C1099 1.400 . S
C1099 C1098 1.400 . S
C1099 C1100 1.398 . S
C1099 C1105 1.491 . S
C1100 H1091 0.950 . S
C1100 C1099 1.398 . S
C1100 C1101 1.391 . S
C1101 H1089 0.950 . S
C1101 C1097 1.393 . S
C1101 C1100 1.391 . S
C1102 H1092 0.950 . S
C1102 C1103 1.386 . S
C1102 C1104 1.391 . S
C1103 C1102 1.386 . S
C1103 C1107 1.393 . S
C1104 H1093 0.950 . S
C1104 C1102 1.391 . S
C1104 C1105 1.400 . S
C1105 C1099 1.491 . S
C1105 C1104 1.400 . S
C1105 C1106 1.398 . S
C1106 H1094 0.950 . S
C1106 C1105 1.398 . S
C1106 C1107 1.391 . S
C1107 H1095 0.950 . S
C1107 C1103 1.393 . S
C1107 C1106 1.391 . S
H1108 C1116 0.950 . S
H1109 C1121 0.950 . S
H1110 C1118 0.950 . S
H1111 C1120 0.950 . S
H1112 C1122 0.950 . S
H1113 C1124 0.950 . S
H1114 C1126 0.950 . S
H1115 C1127 0.950 . S
C1116 H1108 0.950 . S
C1116 C1117 1.386 . S
C1116 C1118 1.391 . S
C1117 C1116 1.386 . S
C1117 C1121 1.393 . S
C1118 H1110 0.950 . S
C1118 C1116 1.391 . S
C1118 C1119 1.400 . S
C1119 C1118 1.400 . S
C1119 C1120 1.398 . S
C1119 C1125 1.491 . S
C1120 H1111 0.950 . S
C1120 C1119 1.398 . S
C1120 C1121 1.391 . S
C1121 H1109 0.950 . S
C1121 C1117 1.393 . S
C1121 C1120 1.391 . S
C1122 H1112 0.950 . S
C1122 C1123 1.386 . S
C1122 C1124 1.391 . S
C1123 C1122 1.386 . S
C1123 C1127 1.393 . S
C1124 H1113 0.950 . S
C1124 C1122 1.391 . S
C1124 C1125 1.400 . S
C1125 C1119 1.491 . S
C1125 C1124 1.400 . S
C1125 C1126 1.398 . S
C1126 H1114 0.950 . S
C1126 C1125 1.398 . S
C1126 C1127 1.391 . S
C1127 H1115 0.950 . S
C1127 C1123 1.393 . S
C1127 C1126 1.391 . S
H1128 C1136 0.950 . S
H1129 C1141 0.950 . S
H1130 C1138 0.950 . S
H1131 C1140 0.950 . S
H1132 C1142 0.950 . S
H1133 C1144 0.950 . S
H1134 C1146 0.950 . S
H1135 C1147 0.950 . S
C1136 H1128 0.950 . S
C1136 C1137 1.386 . S
C1136 C1138 1.391 . S
C1137 C1136 1.386 . S
C1137 C1141 1.393 . S
C1138 H1130 0.950 . S
C1138 C1136 1.391 . S
C1138 C1139 1.400 . S
C1139 C1138 1.400 . S
C1139 C1140 1.398 . S
C1139 C1145 1.491 . S
C1140 H1131 0.950 . S
C1140 C1139 1.398 . S
C1140 C1141 1.391 . S
C1141 H1129 0.950 . S
C1141 C1137 1.393 . S
C1141 C1140 1.391 . S
C1142 H1132 0.950 . S
C1142 C1143 1.386 . S
C1142 C1144 1.391 . S
C1143 C1142 1.386 . S
C1143 C1147 1.393 . S
C1144 H1133 0.950 . S
C1144 C1142 1.391 . S
C1144 C1145 1.400 . S
C1145 C1139 1.491 . S
C1145 C1144 1.400 . S
C1145 C1146 1.398 . S
C1146 H1134 0.950 . S
C1146 C1145 1.398 . S
C1146 C1147 1.391 . S
C1147 H1135 0.950 . S
C1147 C1143 1.393 . S
C1147 C1146 1.391 . S
H1148 C1156 0.950 . S
H1149 C1161 0.950 . S
H1150 C1158 0.950 . S
H1151 C1160 0.950 . S
H1152 C1162 0.950 . S
H1153 C1164 0.950 . S
H1154 C1166 0.950 . S
H1155 C1167 0.950 . S
C1156 H1148 0.950 . S
C1156 C1157 1.386 . S
C1156 C1158 1.391 . S
C1157 C1156 1.386 . S
C1157 C1161 1.393 . S
C1158 H1150 0.950 . S
C1158 C1156 1.391 . S
C1158 C1159 1.400 . S
C1159 C1158 1.400 . S
C1159 C1160 1.398 . S
C1159 C1165 1.491 . S
C1160 H1151 0.950 . S
C1160 C1159 1.398 . S
C1160 C1161 1.391 . S
C1161 H1149 0.950 . S
C1161 C1157 1.393 . S
C1161 C1160 1.391 . S
C1162 H1152 0.950 . S
C1162 C1163 1.386 . S
C1162 C1164 1.391 . S
C1163 C1162 1.386 . S
C1163 C1167 1.393 . S
C1164 H1153 0.950 . S
C1164 C1162 1.391 . S
C1164 C1165 1.400 . S
C1165 C1159 1.491 . S
C1165 C1164 1.400 . S
C1165 C1166 1.398 . S
C1166 H1154 0.950 . S
C1166 C1165 1.398 . S
C1166 C1167 1.391 . S
C1167 H1155 0.950 . S
C1167 C1163 1.393 . S
C1167 C1166 1.391 . S
H1168 C1176 0.950 . S
H1169 C1181 0.950 . S
H1170 C1178 0.950 . S
H1171 C1180 0.950 . S
H1172 C1182 0.950 . S
H1173 C1184 0.950 . S
H1174 C1186 0.950 . S
H1175 C1187 0.950 . S
C1176 H1168 0.950 . S
C1176 C1177 1.386 . S
C1176 C1178 1.391 . S
C1177 C1176 1.386 . S
C1177 C1181 1.393 . S
C1178 H1170 0.950 . S
C1178 C1176 1.391 . S
C1178 C1179 1.400 . S
C1179 C1178 1.400 . S
C1179 C1180 1.398 . S
C1179 C1185 1.491 . S
C1180 H1171 0.950 . S
C1180 C1179 1.398 . S
C1180 C1181 1.391 . S
C1181 H1169 0.950 . S
C1181 C1177 1.393 . S
C1181 C1180 1.391 . S
C1182 H1172 0.950 . S
C1182 C1183 1.386 . S
C1182 C1184 1.391 . S
C1183 C1182 1.386 . S
C1183 C1187 1.393 . S
C1184 H1173 0.950 . S
C1184 C1182 1.391 . S
C1184 C1185 1.400 . S
C1185 C1179 1.491 . S
C1185 C1184 1.400 . S
C1185 C1186 1.398 . S
C1186 H1174 0.950 . S
C1186 C1185 1.398 . S
C1186 C1187 1.391 . S
C1187 H1175 0.950 . S
C1187 C1183 1.393 . S
C1187 C1186 1.391 . S
C357 C216 2.437 . S
C363 C5 2.640 . S
C377 C34 2.648 . S
C383 C245 2.460 . S
C397 C63 2.642 . S
C403 C187 2.440 . S
C417 C92 2.645 . S
C423 C332 2.444 . S
C437 C274 2.437 . S
C443 C121 2.640 . S
C457 C150 2.640 . S
C463 C303 2.437 . S
C477 C179 2.642 . S
C483 C42 2.439 . S
C497 C208 2.648 . S
C503 C71 2.460 . S
C517 C13 2.438 . S
C523 C237 2.641 . S
C537 C266 2.640 . S
C543 C158 2.437 . S
C557 C295 2.640 . S
C563 C100 2.440 . S
C577 C129 2.455 . S
C583 C324 2.645 . S
C597 C15 1.418 . S
C603 C102 1.432 . S
C617 C44 1.435 . S
C623 C131 1.418 . S
C637 C73 1.433 . S
C643 C160 1.438 . S
C657 C276 1.418 . S
C663 C189 1.436 . S
C677 C305 1.418 . S
C683 C218 1.433 . S
C697 C334 1.428 . S
C703 C247 1.440 . S
C717 C21 1.723 . S
C723 C39 1.571 . S
C737 C50 1.716 . S
C743 C68 1.543 . S
C757 C79 1.728 . S
C763 C10 1.546 . S
C777 C155 1.573 . S
C783 C108 1.722 . S
C797 C137 1.707 . S
C803 C97 1.578 . S
C817 C126 1.574 . S
C823 C166 1.721 . S
C837 C213 1.576 . S
C843 C195 1.719 . S
C857 C224 1.726 . S
C863 C242 1.564 . S
C877 C253 1.708 . S
C883 C184 1.557 . S
C897 C282 1.719 . S
C903 C329 1.577 . S
C917 C311 1.726 . S
C923 C271 1.564 . S
C937 C340 1.708 . S
C943 C300 1.556 . S
C957 C298 1.097 . S
C963 C3 1.160 . S
C977 C327 1.131 . S
C983 C32 1.146 . S
C997 C61 1.154 . S
C1003 C269 1.138 . S
C1017 C90 1.152 . S
C1023 C240 1.098 . S
C1037 C119 1.143 . S
C1043 C182 1.118 . S
C1057 C211 1.113 . S
C1063 C148 1.144 . S
C1077 C177 1.150 . S
C1083 C124 1.136 . S
C1097 C206 1.164 . S
C1103 C153 1.100 . S
C1117 C235 1.168 . S
C1123 C95 1.111 . S
C1137 C264 1.144 . S
C1143 C66 1.127 . S
C1157 C293 1.152 . S
C1163 C8 1.137 . S
C1177 C322 1.155 . S
C1183 C37 1.138 . S
