# Generated by pormake.
# Topology uml, (4)-cn, num edge types: 1
# Building blocks:
#     Node 0, Type 0, BuildingBlock: CEKHIL_clean_sbu_0, # of connection points: 4
#     Node 1, Type 0, BuildingBlock: CEKHIL_clean_sbu_0, # of connection points: 4
#     Node 2, Type 0, BuildingBlock: CEKHIL_clean_sbu_0, # of connection points: 4
#     Node 3, Type 0, BuildingBlock: CEKHIL_clean_sbu_0, # of connection points: 4
#     Node 4, Type 0, BuildingBlock: CEKHIL_clean_sbu_0, # of connection points: 4
#     Node 5, Type 0, BuildingBlock: CEKHIL_clean_sbu_0, # of connection points: 4
#     Node 6, Type 0, BuildingBlock: CEKHIL_clean_sbu_0, # of connection points: 4
#     Node 7, Type 0, BuildingBlock: CEKHIL_clean_sbu_0, # of connection points: 4
#     Node 8, Type 0, BuildingBlock: CEKHIL_clean_sbu_0, # of connection points: 4
#     Node 9, Type 0, BuildingBlock: CEKHIL_clean_sbu_0, # of connection points: 4
#     Node 10, Type 0, BuildingBlock: CEKHIL_clean_sbu_0, # of connection points: 4
#     Node 11, Type 0, BuildingBlock: CEKHIL_clean_sbu_0, # of connection points: 4
#     Node 12, Type 0, BuildingBlock: CEKHIL_clean_sbu_0, # of connection points: 4
#     Node 13, Type 0, BuildingBlock: CEKHIL_clean_sbu_0, # of connection points: 4
#     Node 14, Type 0, BuildingBlock: CEKHIL_clean_sbu_0, # of connection points: 4
#     Node 15, Type 0, BuildingBlock: CEKHIL_clean_sbu_0, # of connection points: 4
#     Node 16, Type 0, BuildingBlock: CEKHIL_clean_sbu_0, # of connection points: 4
#     Node 17, Type 0, BuildingBlock: CEKHIL_clean_sbu_0, # of connection points: 4
#     Node 18, Type 0, BuildingBlock: CEKHIL_clean_sbu_0, # of connection points: 4
#     Node 19, Type 0, BuildingBlock: CEKHIL_clean_sbu_0, # of connection points: 4
#     Node 20, Type 0, BuildingBlock: CEKHIL_clean_sbu_0, # of connection points: 4
#     Node 21, Type 0, BuildingBlock: CEKHIL_clean_sbu_0, # of connection points: 4
#     Node 22, Type 0, BuildingBlock: CEKHIL_clean_sbu_0, # of connection points: 4
#     Node 23, Type 0, BuildingBlock: CEKHIL_clean_sbu_0, # of connection points: 4
#     Node 24, Type 0, BuildingBlock: CEKHIL_clean_sbu_0, # of connection points: 4
#     Node 25, Type 0, BuildingBlock: CEKHIL_clean_sbu_0, # of connection points: 4
#     Node 26, Type 0, BuildingBlock: CEKHIL_clean_sbu_0, # of connection points: 4
#     Node 27, Type 0, BuildingBlock: CEKHIL_clean_sbu_0, # of connection points: 4
#     Node 28, Type 0, BuildingBlock: CEKHIL_clean_sbu_0, # of connection points: 4
#     Node 29, Type 0, BuildingBlock: CEKHIL_clean_sbu_0, # of connection points: 4
#     Node 30, Type 0, BuildingBlock: CEKHIL_clean_sbu_0, # of connection points: 4
#     Node 31, Type 0, BuildingBlock: CEKHIL_clean_sbu_0, # of connection points: 4
#     Node 32, Type 0, BuildingBlock: CEKHIL_clean_sbu_0, # of connection points: 4
#     Node 33, Type 0, BuildingBlock: CEKHIL_clean_sbu_0, # of connection points: 4
#     Node 34, Type 0, BuildingBlock: CEKHIL_clean_sbu_0, # of connection points: 4
#     Node 35, Type 0, BuildingBlock: CEKHIL_clean_sbu_0, # of connection points: 4
#     Edge 36, Type (0, 0), BuildingBlock: XIVTED_clean_linker_0, # of connection points: 2
#     Edge 37, Type (0, 0), BuildingBlock: XIVTED_clean_linker_0, # of connection points: 2
#     Edge 38, Type (0, 0), BuildingBlock: XIVTED_clean_linker_0, # of connection points: 2
#     Edge 39, Type (0, 0), BuildingBlock: XIVTED_clean_linker_0, # of connection points: 2
#     Edge 40, Type (0, 0), BuildingBlock: XIVTED_clean_linker_0, # of connection points: 2
#     Edge 41, Type (0, 0), BuildingBlock: XIVTED_clean_linker_0, # of connection points: 2
#     Edge 42, Type (0, 0), BuildingBlock: XIVTED_clean_linker_0, # of connection points: 2
#     Edge 43, Type (0, 0), BuildingBlock: XIVTED_clean_linker_0, # of connection points: 2
#     Edge 44, Type (0, 0), BuildingBlock: XIVTED_clean_linker_0, # of connection points: 2
#     Edge 45, Type (0, 0), BuildingBlock: XIVTED_clean_linker_0, # of connection points: 2
#     Edge 46, Type (0, 0), BuildingBlock: XIVTED_clean_linker_0, # of connection points: 2
#     Edge 47, Type (0, 0), BuildingBlock: XIVTED_clean_linker_0, # of connection points: 2
#     Edge 48, Type (0, 0), BuildingBlock: XIVTED_clean_linker_0, # of connection points: 2
#     Edge 49, Type (0, 0), BuildingBlock: XIVTED_clean_linker_0, # of connection points: 2
#     Edge 50, Type (0, 0), BuildingBlock: XIVTED_clean_linker_0, # of connection points: 2
#     Edge 51, Type (0, 0), BuildingBlock: XIVTED_clean_linker_0, # of connection points: 2
#     Edge 52, Type (0, 0), BuildingBlock: XIVTED_clean_linker_0, # of connection points: 2
#     Edge 53, Type (0, 0), BuildingBlock: XIVTED_clean_linker_0, # of connection points: 2
#     Edge 54, Type (0, 0), BuildingBlock: XIVTED_clean_linker_0, # of connection points: 2
#     Edge 55, Type (0, 0), BuildingBlock: XIVTED_clean_linker_0, # of connection points: 2
#     Edge 56, Type (0, 0), BuildingBlock: XIVTED_clean_linker_0, # of connection points: 2
#     Edge 57, Type (0, 0), BuildingBlock: XIVTED_clean_linker_0, # of connection points: 2
#     Edge 58, Type (0, 0), BuildingBlock: XIVTED_clean_linker_0, # of connection points: 2
#     Edge 59, Type (0, 0), BuildingBlock: XIVTED_clean_linker_0, # of connection points: 2
#     Edge 60, Type (0, 0), BuildingBlock: XIVTED_clean_linker_0, # of connection points: 2
#     Edge 61, Type (0, 0), BuildingBlock: XIVTED_clean_linker_0, # of connection points: 2
#     Edge 62, Type (0, 0), BuildingBlock: XIVTED_clean_linker_0, # of connection points: 2
#     Edge 63, Type (0, 0), BuildingBlock: XIVTED_clean_linker_0, # of connection points: 2
#     Edge 64, Type (0, 0), BuildingBlock: XIVTED_clean_linker_0, # of connection points: 2
#     Edge 65, Type (0, 0), BuildingBlock: XIVTED_clean_linker_0, # of connection points: 2
#     Edge 66, Type (0, 0), BuildingBlock: XIVTED_clean_linker_0, # of connection points: 2
#     Edge 67, Type (0, 0), BuildingBlock: XIVTED_clean_linker_0, # of connection points: 2
#     Edge 68, Type (0, 0), BuildingBlock: XIVTED_clean_linker_0, # of connection points: 2
#     Edge 69, Type (0, 0), BuildingBlock: XIVTED_clean_linker_0, # of connection points: 2
#     Edge 70, Type (0, 0), BuildingBlock: XIVTED_clean_linker_0, # of connection points: 2
#     Edge 71, Type (0, 0), BuildingBlock: XIVTED_clean_linker_0, # of connection points: 2
#     Edge 72, Type (0, 0), BuildingBlock: XIVTED_clean_linker_0, # of connection points: 2
#     Edge 73, Type (0, 0), BuildingBlock: XIVTED_clean_linker_0, # of connection points: 2
#     Edge 74, Type (0, 0), BuildingBlock: XIVTED_clean_linker_0, # of connection points: 2
#     Edge 75, Type (0, 0), BuildingBlock: XIVTED_clean_linker_0, # of connection points: 2
#     Edge 76, Type (0, 0), BuildingBlock: XIVTED_clean_linker_0, # of connection points: 2
#     Edge 77, Type (0, 0), BuildingBlock: XIVTED_clean_linker_0, # of connection points: 2
#     Edge 78, Type (0, 0), BuildingBlock: XIVTED_clean_linker_0, # of connection points: 2
#     Edge 79, Type (0, 0), BuildingBlock: XIVTED_clean_linker_0, # of connection points: 2
#     Edge 80, Type (0, 0), BuildingBlock: XIVTED_clean_linker_0, # of connection points: 2
#     Edge 81, Type (0, 0), BuildingBlock: XIVTED_clean_linker_0, # of connection points: 2
#     Edge 82, Type (0, 0), BuildingBlock: XIVTED_clean_linker_0, # of connection points: 2
#     Edge 83, Type (0, 0), BuildingBlock: XIVTED_clean_linker_0, # of connection points: 2
#     Edge 84, Type (0, 0), BuildingBlock: XIVTED_clean_linker_0, # of connection points: 2
#     Edge 85, Type (0, 0), BuildingBlock: XIVTED_clean_linker_0, # of connection points: 2
#     Edge 86, Type (0, 0), BuildingBlock: XIVTED_clean_linker_0, # of connection points: 2
#     Edge 87, Type (0, 0), BuildingBlock: XIVTED_clean_linker_0, # of connection points: 2
#     Edge 88, Type (0, 0), BuildingBlock: XIVTED_clean_linker_0, # of connection points: 2
#     Edge 89, Type (0, 0), BuildingBlock: XIVTED_clean_linker_0, # of connection points: 2
#     Edge 90, Type (0, 0), BuildingBlock: XIVTED_clean_linker_0, # of connection points: 2
#     Edge 91, Type (0, 0), BuildingBlock: XIVTED_clean_linker_0, # of connection points: 2
#     Edge 92, Type (0, 0), BuildingBlock: XIVTED_clean_linker_0, # of connection points: 2
#     Edge 93, Type (0, 0), BuildingBlock: XIVTED_clean_linker_0, # of connection points: 2
#     Edge 94, Type (0, 0), BuildingBlock: XIVTED_clean_linker_0, # of connection points: 2
#     Edge 95, Type (0, 0), BuildingBlock: XIVTED_clean_linker_0, # of connection points: 2
#     Edge 96, Type (0, 0), BuildingBlock: XIVTED_clean_linker_0, # of connection points: 2
#     Edge 97, Type (0, 0), BuildingBlock: XIVTED_clean_linker_0, # of connection points: 2
#     Edge 98, Type (0, 0), BuildingBlock: XIVTED_clean_linker_0, # of connection points: 2
#     Edge 99, Type (0, 0), BuildingBlock: XIVTED_clean_linker_0, # of connection points: 2
#     Edge 100, Type (0, 0), BuildingBlock: XIVTED_clean_linker_0, # of connection points: 2
#     Edge 101, Type (0, 0), BuildingBlock: XIVTED_clean_linker_0, # of connection points: 2
#     Edge 102, Type (0, 0), BuildingBlock: XIVTED_clean_linker_0, # of connection points: 2
#     Edge 103, Type (0, 0), BuildingBlock: XIVTED_clean_linker_0, # of connection points: 2
#     Edge 104, Type (0, 0), BuildingBlock: XIVTED_clean_linker_0, # of connection points: 2
#     Edge 105, Type (0, 0), BuildingBlock: XIVTED_clean_linker_0, # of connection points: 2
#     Edge 106, Type (0, 0), BuildingBlock: XIVTED_clean_linker_0, # of connection points: 2
#     Edge 107, Type (0, 0), BuildingBlock: XIVTED_clean_linker_0, # of connection points: 2
# Relax obj value: 0.147
# Max RMSD: 0.486
# Mean RMSD: 0.264
data_MOF--net-uml--node1-CEKHIL_clean_sbu_0--edge1-XIVTED_clean_linker_0
_symmetry_space_group_name_H-M    P1
_symmetry_Int_Tables_number       1
_symmetry_cell_setting            triclinic
loop_
_symmetry_equiv_pos_as_xyz
'x, y, z'
_cell_length_a     92.614944
_cell_length_b     90.29202
_cell_length_c     27.740121
_cell_angle_alpha  90.084321
_cell_angle_beta   90.024717
_cell_angle_gamma 116.0964
loop_
_atom_site_label
_atom_site_type_symbol
_atom_site_fract_x
_atom_site_fract_y
_atom_site_fract_z
_atom_type_partial_charge
Co0 Co 0.35582 0.09843 0.17336 0.0
O1 O 0.37066 0.08898 0.1723 0.0
O2 O 0.37505 0.11302 0.13942 0.0
C3 C 0.3495 0.09371 0.25192 0.0
O4 O 0.34375 0.11245 0.1698 0.0
Co5 Co 0.31976 0.07672 0.19614 0.0
O6 O 0.31886 0.09825 0.19979 0.0
C7 C 0.33193 0.07571 0.09856 0.0
C8 C 0.38027 0.10215 0.14934 0.0
C9 C 0.33009 0.11148 0.18333 0.0
O10 O 0.34576 0.08722 0.11054 0.0
O11 O 0.32037 0.06897 0.12861 0.0
O12 O 0.36257 0.10633 0.23874 0.0
O13 O 0.34163 0.08353 0.21795 0.0
Co14 Co 0.88285 0.27399 0.16417 0.0
O15 O 0.87712 0.27008 0.23103 0.0
O16 O 0.89786 0.26795 0.19729 0.0
C17 C 0.88091 0.29786 0.15782 0.0
O18 O 0.89248 0.27736 0.09628 0.0
Co19 Co 0.85727 0.27347 0.09102 0.0
O20 O 0.87586 0.28223 0.04637 0.0
C21 C 0.85487 0.24216 0.12946 0.0
C22 C 0.88942 0.26691 0.23571 0.0
C23 C 0.88903 0.28147 0.05487 0.0
O24 O 0.86861 0.25021 0.14971 0.0
O25 O 0.84753 0.24921 0.10685 0.0
O26 O 0.89373 0.29754 0.17564 0.0
O27 O 0.86901 0.28359 0.1494 0.0
Co28 Co 0.71796 0.6315 0.17308 0.0
O29 O 0.69739 0.61292 0.17591 0.0
O30 O 0.71773 0.61387 0.13195 0.0
C31 C 0.72028 0.63644 0.25237 0.0
O32 O 0.74132 0.64906 0.16493 0.0
Co33 Co 0.71935 0.66508 0.20116 0.0
O34 O 0.74276 0.67179 0.20244 0.0
C35 C 0.70743 0.65209 0.10565 0.0
C36 C 0.70275 0.60577 0.14516 0.0
C37 C 0.74945 0.66379 0.18186 0.0
O38 O 0.71069 0.64004 0.11577 0.0
O39 O 0.70942 0.66359 0.13566 0.0
O40 O 0.7241 0.6254 0.23387 0.0
O41 O 0.71346 0.6427 0.22341 0.0
Co42 Co 0.08733 0.35621 0.33071 0.0
O43 O 0.08158 0.37402 0.32416 0.0
O44 O 0.10358 0.37575 0.3609 0.0
C45 C 0.08193 0.34761 0.25428 0.0
O46 O 0.0976 0.34073 0.3421 0.0
Co47 Co 0.06206 0.31995 0.3168 0.0
O48 O 0.08102 0.31518 0.31679 0.0
C49 C 0.06256 0.33711 0.40765 0.0
C50 C 0.09481 0.38293 0.34708 0.0
C51 C 0.09459 0.32569 0.33265 0.0
O52 O 0.07539 0.34955 0.3936 0.0
O53 O 0.05477 0.32446 0.38108 0.0
O54 O 0.09558 0.35992 0.26527 0.0
O55 O 0.07155 0.34184 0.28874 0.0
Co56 Co 0.62419 0.75097 0.31917 0.0
O57 O 0.62235 0.75475 0.25191 0.0
O58 O 0.6421 0.75055 0.28445 0.0
C59 C 0.59846 0.73233 0.32889 0.0
O60 O 0.62956 0.74583 0.38692 0.0
Co61 Co 0.60484 0.76033 0.3945 0.0
O62 O 0.61088 0.74648 0.43762 0.0
C63 C 0.63428 0.78641 0.35266 0.0
C64 C 0.63544 0.75307 0.24601 0.0
C65 C 0.62257 0.74309 0.42837 0.0
O66 O 0.63689 0.7753 0.33064 0.0
O67 O 0.62162 0.78312 0.37772 0.0
O68 O 0.60899 0.72802 0.31092 0.0
O69 O 0.6034 0.74798 0.33603 0.0
Co70 Co 0.24452 0.91168 0.31453 0.0
O71 O 0.26734 0.91941 0.31505 0.0
O72 O 0.25015 0.89565 0.34654 0.0
C73 C 0.24303 0.91778 0.23657 0.0
O74 O 0.21981 0.89983 0.31699 0.0
Co75 Co 0.23171 0.93778 0.29507 0.0
O76 O 0.21125 0.91765 0.28591 0.0
C77 C 0.24445 0.93617 0.39103 0.0
C78 C 0.26499 0.90587 0.33673 0.0
C79 C 0.20853 0.90331 0.30096 0.0
O80 O 0.24544 0.92291 0.37847 0.0
O81 O 0.24057 0.94475 0.36162 0.0
O82 O 0.2437 0.90415 0.24799 0.0
O83 O 0.24501 0.92782 0.27185 0.0
Co84 Co 0.64867 0.91077 0.82164 0.0
O85 O 0.64558 0.90895 0.75312 0.0
O86 O 0.66933 0.91932 0.7892 0.0
C87 C 0.63114 0.92115 0.83661 0.0
O88 O 0.65622 0.91517 0.89194 0.0
Co89 Co 0.61992 0.89051 0.88974 0.0
O90 O 0.63437 0.90537 0.93982 0.0
C91 C 0.63673 0.874 0.83842 0.0
C92 C 0.6611 0.91568 0.7492 0.0
C93 C 0.64948 0.91361 0.93362 0.0
O94 O 0.64762 0.88802 0.82409 0.0
O95 O 0.6241 0.87236 0.86129 0.0
O96 O 0.64564 0.93085 0.82247 0.0
O97 O 0.6274 0.90562 0.83627 0.0
Co98 Co 0.10714 0.75601 0.79737 0.0
O99 O 0.11171 0.75668 0.72949 0.0
O100 O 0.09162 0.76046 0.76104 0.0
C101 C 0.10973 0.73291 0.81395 0.0
O102 O 0.09848 0.75571 0.86558 0.0
Co103 Co 0.13353 0.75991 0.87227 0.0
O104 O 0.11565 0.75345 0.91916 0.0
C105 C 0.13492 0.78934 0.82267 0.0
C106 C 0.0994 0.7597 0.72275 0.0
C107 C 0.10239 0.75382 0.90904 0.0
O108 O 0.1213 0.78037 0.80277 0.0
O109 O 0.14241 0.78338 0.84918 0.0
O110 O 0.09647 0.73202 0.79557 0.0
O111 O 0.12146 0.74756 0.81689 0.0
Co112 Co 0.24073 0.38585 0.85671 0.0
O113 O 0.24168 0.39004 0.7887 0.0
O114 O 0.23523 0.36558 0.82161 0.0
C115 C 0.26435 0.40702 0.8763 0.0
O116 O 0.23922 0.37717 0.92541 0.0
Co117 Co 0.2379 0.41084 0.92712 0.0
O118 O 0.24253 0.39775 0.97664 0.0
C119 C 0.20878 0.38732 0.87725 0.0
C120 C 0.23755 0.37444 0.78283 0.0
C121 C 0.2412 0.38333 0.96825 0.0
O122 O 0.2173 0.38095 0.85768 0.0
O123 O 0.21483 0.40004 0.90465 0.0
O124 O 0.26377 0.39342 0.85915 0.0
O125 O 0.25092 0.40829 0.87574 0.0
Co126 Co 0.87884 0.64045 0.70783 0.0
O127 O 0.8788 0.63673 0.77589 0.0
O128 O 0.88232 0.66037 0.74254 0.0
C129 C 0.89496 0.62905 0.68634 0.0
O130 O 0.88023 0.64867 0.63849 0.0
Co131 Co 0.86359 0.61016 0.63949 0.0
O132 O 0.87455 0.62697 0.58916 0.0
C133 C 0.84248 0.62053 0.69409 0.0
C134 C 0.88134 0.65194 0.78152 0.0
C135 C 0.8795 0.64241 0.59614 0.0
O136 O 0.85499 0.63312 0.70921 0.0
O137 O 0.84325 0.60916 0.66814 0.0
O138 O 0.90103 0.64402 0.70304 0.0
O139 O 0.87949 0.62085 0.68934 0.0
Co140 Co 0.39187 0.27573 0.68151 0.0
O141 O 0.39633 0.27604 0.74943 0.0
O142 O 0.373 0.27247 0.71821 0.0
C143 C 0.41426 0.29811 0.66082 0.0
O144 O 0.38305 0.2752 0.6134 0.0
Co145 Co 0.41347 0.26878 0.60868 0.0
O146 O 0.40082 0.27407 0.55996 0.0
C147 C 0.38898 0.24107 0.66149 0.0
C148 C 0.38156 0.2735 0.7564 0.0
C149 C 0.38798 0.27534 0.5698 0.0
O150 O 0.38431 0.25127 0.67994 0.0
O151 O 0.40118 0.24557 0.63358 0.0
O152 O 0.40215 0.29957 0.67987 0.0
O153 O 0.41329 0.28333 0.66029 0.0
Co154 Co 0.73582 0.11911 0.65754 0.0
O155 O 0.73549 0.12321 0.72537 0.0
O156 O 0.74672 0.1084 0.69318 0.0
C157 C 0.70948 0.11215 0.64492 0.0
O158 O 0.73786 0.11188 0.5887 0.0
Co159 Co 0.72923 0.14121 0.58524 0.0
O160 O 0.7268 0.12361 0.53862 0.0
C161 C 0.76122 0.15369 0.63058 0.0
C162 C 0.74316 0.11434 0.73179 0.0
C163 C 0.73275 0.11353 0.54665 0.0
O164 O 0.75679 0.13957 0.65078 0.0
O165 O 0.75166 0.1573 0.60513 0.0
O166 O 0.71417 0.1015 0.66108 0.0
O167 O 0.72066 0.12713 0.64104 0.0
Co168 Co 0.02537 0.43623 0.51384 0.0
O169 O 0.0413 0.42818 0.51315 0.0
O170 O 0.04409 0.45155 0.47906 0.0
C171 C 0.01933 0.43154 0.59259 0.0
O172 O 0.0118 0.44875 0.50966 0.0
Co173 Co 0.98988 0.41237 0.53694 0.0
O174 O 0.98722 0.43298 0.53977 0.0
C175 C 0.00241 0.41219 0.43942 0.0
C176 C 0.05018 0.44139 0.48914 0.0
C177 C 0.9977 0.44662 0.52298 0.0
O178 O 0.01578 0.42438 0.45144 0.0
O179 O 0.99096 0.40483 0.4694 0.0
O180 O 0.03185 0.44468 0.57893 0.0
O181 O 0.01193 0.42095 0.559 0.0
Co182 Co 0.54567 0.60906 0.49674 0.0
O183 O 0.54098 0.60714 0.56444 0.0
O184 O 0.56077 0.60334 0.53057 0.0
C185 C 0.54388 0.63285 0.48604 0.0
O186 O 0.5545 0.61067 0.4283 0.0
Co187 Co 0.51972 0.60744 0.42341 0.0
O188 O 0.53817 0.61587 0.37818 0.0
C189 C 0.51735 0.57674 0.46672 0.0
C190 C 0.55314 0.60377 0.56952 0.0
C191 C 0.55113 0.61466 0.38666 0.0
O192 O 0.53099 0.58508 0.48723 0.0
O193 O 0.51015 0.58341 0.44179 0.0
O194 O 0.55692 0.63284 0.5032 0.0
O195 O 0.53183 0.6185 0.48042 0.0
Co196 Co 0.3859 0.97148 0.49429 0.0
O197 O 0.36376 0.95601 0.49194 0.0
O198 O 0.38326 0.95212 0.45658 0.0
C199 C 0.38637 0.97661 0.57328 0.0
O200 O 0.41052 0.98549 0.49328 0.0
Co201 Co 0.39264 0.00747 0.51899 0.0
O202 O 0.41442 0.00922 0.53029 0.0
C203 C 0.38257 0.99545 0.42118 0.0
C204 C 0.36797 0.94667 0.46605 0.0
C205 C 0.41976 -0.00054 0.51333 0.0
O206 O 0.38323 0.98205 0.43337 0.0
O207 O 0.38516 0.00724 0.45079 0.0
O208 O 0.38779 0.96371 0.55803 0.0
O209 O 0.38279 0.98474 0.54083 0.0
Co210 Co 0.73974 0.67166 0.67917 0.0
O211 O 0.73526 0.68996 0.66534 0.0
O212 O 0.75586 0.69133 0.70922 0.0
C213 C 0.73599 0.66199 0.60352 0.0
O214 O 0.74878 0.65573 0.69852 0.0
Co215 Co 0.71409 0.63595 0.66781 0.0
O216 O 0.73255 0.63039 0.67139 0.0
C217 C 0.71339 0.65456 0.75418 0.0
C218 C 0.74804 0.69882 0.6902 0.0
C219 C 0.74579 0.64067 0.6897 0.0
O220 O 0.72637 0.66667 0.73952 0.0
O221 O 0.70601 0.64131 0.72964 0.0
O222 O 0.74967 0.67381 0.61669 0.0
O223 O 0.72455 0.65715 0.63518 0.0
Co224 Co 0.29758 0.08724 0.66078 0.0
O225 O 0.29571 0.09057 0.59324 0.0
O226 O 0.31543 0.08648 0.62655 0.0
C227 C 0.2718 0.06882 0.67105 0.0
O228 O 0.303 0.08258 0.72898 0.0
Co229 Co 0.27848 0.09726 0.73509 0.0
O230 O 0.28433 0.08349 0.77917 0.0
C231 C 0.30796 0.12294 0.69213 0.0
C232 C 0.3088 0.08885 0.5878 0.0
C233 C 0.29605 0.0801 0.77045 0.0
O234 O 0.31042 0.11163 0.67075 0.0
O235 O 0.29539 0.1199 0.71738 0.0
O236 O 0.28226 0.06427 0.65384 0.0
O237 O 0.27685 0.08453 0.67727 0.0
Co238 Co 0.91427 0.24127 0.65172 0.0
O239 O 0.93687 0.2477 0.65056 0.0
O240 O 0.91913 0.2254 0.68751 0.0
C241 C 0.91223 0.24548 0.57267 0.0
O242 O 0.88964 0.23072 0.65689 0.0
Co243 Co 0.9029 0.26791 0.62708 0.0
O244 O 0.8817 0.24842 0.62199 0.0
C245 C 0.91593 0.26787 0.72365 0.0
C246 C 0.93405 0.23467 0.67567 0.0
C247 C 0.87857 0.23436 0.64017 0.0
O248 O 0.91662 0.25431 0.71306 0.0
O249 O 0.91193 0.27599 0.69296 0.0
O250 O 0.91196 0.23173 0.58745 0.0
O251 O 0.91535 0.25674 0.60516 0.0
Co252 Co 0.32125 0.24777 0.16066 0.0
O253 O 0.31841 0.24575 0.09213 0.0
O254 O 0.34205 0.25639 0.12894 0.0
C255 C 0.30346 0.25795 0.17402 0.0
O256 O 0.32852 0.25236 0.23113 0.0
Co257 Co 0.29226 0.22763 0.22827 0.0
O258 O 0.30638 0.24311 0.27781 0.0
C259 C 0.30931 0.21108 0.17834 0.0
C260 C 0.33395 0.25259 0.0887 0.0
C261 C 0.32154 0.2512 0.27221 0.0
O262 O 0.3203 0.22507 0.16412 0.0
O263 O 0.29659 0.20949 0.20054 0.0
O264 O 0.31799 0.26775 0.16038 0.0
O265 O 0.29993 0.24247 0.17431 0.0
Co266 Co 0.77858 0.08625 0.13794 0.0
O267 O 0.78248 0.08685 0.06951 0.0
O268 O 0.76307 0.09121 0.10353 0.0
C269 C 0.78064 0.06279 0.15319 0.0
O270 O 0.77062 0.08618 0.207 0.0
Co271 Co 0.8053 0.0893 0.21061 0.0
O272 O 0.78801 0.0837 0.25926 0.0
C273 C 0.80744 0.11897 0.1607 0.0
C274 C 0.77034 0.09027 0.06432 0.0
C275 C 0.77482 0.08435 0.25018 0.0
O276 O 0.79338 0.11046 0.14287 0.0
O277 O 0.81488 0.11261 0.18587 0.0
O278 O 0.76736 0.06228 0.13615 0.0
O279 O 0.79264 0.07726 0.15565 0.0
Co280 Co 0.90068 0.71344 0.18606 0.0
O281 O 0.90276 0.71745 0.11795 0.0
O282 O 0.89386 0.69278 0.1516 0.0
C283 C 0.92491 0.73316 0.20762 0.0
O284 O 0.89759 0.70495 0.25542 0.0
Co285 Co 0.89933 0.74007 0.25268 0.0
O286 O 0.9022 0.72646 0.30437 0.0
C287 C 0.87015 0.71842 0.19994 0.0
C288 C 0.89725 0.70164 0.1125 0.0
C289 C 0.89964 0.71153 0.29775 0.0
O290 O 0.87791 0.71069 0.18377 0.0
O291 O 0.87677 0.73136 0.22624 0.0
O292 O 0.92328 0.719 0.19168 0.0
O293 O 0.91229 0.73585 0.20429 0.0
Co294 Co 0.54869 0.97334 0.04764 0.0
O295 O 0.54736 0.96927 0.11565 0.0
O296 O 0.5524 0.99333 0.08221 0.0
C297 C 0.56436 0.96119 0.02885 0.0
O298 O 0.55148 0.98187 0.97835 0.0
Co299 Co 0.53343 0.94335 0.97824 0.0
O300 O 0.54564 0.96013 0.92908 0.0
C301 C 0.5125 0.95531 0.02696 0.0
C302 C 0.55044 0.98463 0.1212 0.0
C303 C 0.55103 0.9756 0.93617 0.0
O304 O 0.52507 0.96709 0.04512 0.0
O305 O 0.51304 0.9438 0.00115 0.0
O306 O 0.57062 0.97604 0.04645 0.0
O307 O 0.54882 0.95343 0.02981 0.0
Co308 Co 0.05118 0.6083 0.00583 0.0
O309 O 0.05553 0.60888 0.07379 0.0
O310 O 0.03198 0.60431 0.04224 0.0
C311 C 0.07318 0.63118 0.98567 0.0
O312 O 0.04258 0.60734 0.93708 0.0
Co313 Co 0.07393 0.60227 0.93511 0.0
O314 O 0.06149 0.60755 0.88568 0.0
C315 C 0.04992 0.57417 0.98779 0.0
C316 C 0.04061 0.60575 0.0806 0.0
C317 C 0.04819 0.60806 0.89405 0.0
O318 O 0.0445 0.58396 0.00478 0.0
O319 O 0.06241 0.5791 0.96093 0.0
O320 O 0.06071 0.63215 0.00387 0.0
O321 O 0.07274 0.61663 0.98569 0.0
Co322 Co 0.40321 0.45598 0.98404 0.0
O323 O 0.4035 0.45989 0.05235 0.0
O324 O 0.4131 0.44398 0.01786 0.0
C325 C 0.37733 0.45106 0.97273 0.0
O326 O 0.40436 0.44852 0.91485 0.0
Co327 Co 0.39782 0.47915 0.91203 0.0
O328 O 0.39511 0.4618 0.86419 0.0
C329 C 0.42975 0.48985 0.95716 0.0
C330 C 0.41025 0.45008 0.05727 0.0
C331 C 0.39999 0.45087 0.87244 0.0
O332 O 0.42488 0.47556 0.97676 0.0
O333 O 0.42046 0.49412 0.93269 0.0
O334 O 0.38094 0.43955 0.98824 0.0
O335 O 0.38929 0.46553 0.96858 0.0
Co336 Co 0.68116 0.76 0.8307 0.0
O337 O 0.69572 0.75024 0.8303 0.0
O338 O 0.70047 0.7742 0.79612 0.0
C339 C 0.67492 0.75578 0.90942 0.0
O340 O 0.66922 0.77418 0.82653 0.0
Co341 Co 0.64509 0.73834 0.85369 0.0
O342 O 0.64438 0.75995 0.85703 0.0
C343 C 0.65716 0.7371 0.75627 0.0
C344 C 0.70543 0.76317 0.80666 0.0
C345 C 0.65555 0.77317 0.8403 0.0
O346 O 0.67098 0.74859 0.76828 0.0
O347 O 0.64556 0.73042 0.78625 0.0
O348 O 0.68806 0.76821 0.89573 0.0
O349 O 0.66696 0.74542 0.87589 0.0
Co350 Co 0.20926 0.94466 0.82947 0.0
O351 O 0.20436 0.94288 0.89697 0.0
O352 O 0.22378 0.93825 0.86377 0.0
C353 C 0.20852 0.96893 0.8182 0.0
O354 O 0.2182 0.94598 0.76137 0.0
Co355 Co 0.18369 0.94361 0.75591 0.0
O356 O 0.20215 0.95143 0.71078 0.0
C357 C 0.18045 0.91265 0.79913 0.0
C358 C 0.21615 0.93895 0.90244 0.0
C359 C 0.21497 0.95001 0.71961 0.0
O360 O 0.19405 0.92085 0.81993 0.0
O361 O 0.17352 0.91948 0.7737 0.0
O362 O 0.22121 0.96832 0.83597 0.0
O363 O 0.19606 0.95486 0.8125 0.0
Co364 Co 0.05438 0.30315 0.83654 0.0
O365 O 0.03213 0.28798 0.83444 0.0
O366 O 0.05146 0.28335 0.80081 0.0
C367 C 0.05486 0.30908 0.91499 0.0
O368 O 0.07904 0.31668 0.83551 0.0
Co369 Co 0.0621 0.33965 0.85888 0.0
O370 O 0.08346 0.34058 0.87255 0.0
C371 C 0.05183 0.32697 0.76154 0.0
C372 C 0.0362 0.27822 0.81002 0.0
C373 C 0.08845 0.33047 0.85603 0.0
O374 O 0.05206 0.31342 0.77453 0.0
O375 O 0.0547 0.33899 0.79049 0.0
O376 O 0.05599 0.29587 0.9013 0.0
O377 O 0.05157 0.31705 0.8814 0.0
Co378 Co 0.41839 0.01934 0.99249 0.0
O379 O 0.41418 0.03812 0.98518 0.0
O380 O 0.43516 0.03814 0.02404 0.0
C381 C 0.41329 0.0112 0.91556 0.0
O382 O 0.42708 0.00261 0.00519 0.0
Co383 Co 0.39173 0.98397 0.97711 0.0
O384 O 0.40964 0.97755 0.97872 0.0
C385 C 0.39246 0.00137 0.06766 0.0
C386 C 0.42732 0.04623 0.00941 0.0
C387 C 0.42329 0.98738 0.99581 0.0
O388 O 0.4058 0.01328 0.05433 0.0
O389 O 0.38435 0.9889 0.04081 0.0
O390 O 0.42725 0.02272 0.92793 0.0
O391 O 0.4025 0.00585 0.94909 0.0
Co392 Co 0.96569 0.4194 0.00166 0.0
O393 O 0.9632 0.42244 0.93431 0.0
O394 O 0.98396 0.41997 0.96639 0.0
C395 C 0.94048 0.39972 0.01286 0.0
O396 O 0.97185 0.41532 0.06962 0.0
Co397 Co 0.94562 0.42783 0.07669 0.0
O398 O 0.95261 0.4148 0.1201 0.0
C399 C 0.97392 0.45473 0.03245 0.0
C400 C 0.97676 0.42175 0.92807 0.0
C401 C 0.96486 0.41233 0.1111 0.0
O402 O 0.97724 0.44394 0.01136 0.0
O403 O 0.96125 0.45092 0.05794 0.0
O404 O 0.95148 0.39606 0.99508 0.0
O405 O 0.94462 0.41527 0.01902 0.0
Co406 Co 0.58315 0.57793 0.98127 0.0
O407 O 0.60593 0.58538 0.9824 0.0
O408 O 0.58837 0.56163 0.01305 0.0
C409 C 0.58192 0.58422 0.90323 0.0
O410 O 0.55848 0.56625 0.98321 0.0
Co411 Co 0.57053 0.60415 0.96157 0.0
O412 O 0.55 0.58412 0.95213 0.0
C413 C 0.5827 0.60217 0.05819 0.0
C414 C 0.6033 0.57167 0.0036 0.0
C415 C 0.54725 0.56977 0.96717 0.0
O416 O 0.58393 0.58904 0.04544 0.0
O417 O 0.5789 0.61079 0.02874 0.0
O418 O 0.58244 0.57052 0.91464 0.0
O419 O 0.58389 0.59423 0.9386 0.0
Co420 Co 0.98 0.57794 0.48504 0.0
O421 O 0.97661 0.57555 0.41669 0.0
O422 O 0.00053 0.58685 0.45168 0.0
C423 C 0.96203 0.58776 0.49993 0.0
O424 O 0.98776 0.58296 0.55508 0.0
Co425 Co 0.95169 0.55726 0.55402 0.0
O426 O 0.96599 0.57268 0.60332 0.0
C427 C 0.96958 0.54148 0.50498 0.0
C428 C 0.99211 0.58272 0.41205 0.0
C429 C 0.98104 0.58131 0.59684 0.0
O430 O 0.97979 0.55557 0.48884 0.0
O431 O 0.95689 0.53942 0.52823 0.0
O432 O 0.97634 0.59762 0.48483 0.0
O433 O 0.95863 0.5723 0.50029 0.0
Co434 Co 0.44311 0.42035 0.46485 0.0
O435 O 0.4474 0.42102 0.39679 0.0
O436 O 0.42755 0.42499 0.42918 0.0
C437 C 0.44567 0.39717 0.48061 0.0
O438 O 0.43481 0.42013 0.53361 0.0
Co439 Co 0.4698 0.42392 0.53842 0.0
O440 O 0.45208 0.41741 0.5859 0.0
C441 C 0.47126 0.45346 0.48934 0.0
C442 C 0.43518 0.42421 0.39056 0.0
C443 C 0.43888 0.41805 0.57672 0.0
O444 O 0.45747 0.44465 0.47016 0.0
O445 O 0.4788 0.44737 0.51514 0.0
O446 O 0.43232 0.39633 0.46306 0.0
O447 O 0.45742 0.41179 0.48329 0.0
Co448 Co 0.57054 0.04574 0.52589 0.0
O449 O 0.57222 0.04974 0.45784 0.0
O450 O 0.56305 0.02502 0.49142 0.0
C451 C 0.59517 0.06497 0.54627 0.0
O452 O 0.56782 0.0373 0.59526 0.0
Co453 Co 0.57031 0.07269 0.59315 0.0
O454 O 0.57365 0.05913 0.64399 0.0
C455 C 0.54044 0.05128 0.54297 0.0
C456 C 0.56637 0.0339 0.45236 0.0
C457 C 0.57062 0.04407 0.63742 0.0
O458 O 0.54791 0.04349 0.5252 0.0
O459 O 0.54742 0.0641 0.56958 0.0
O460 O 0.59301 0.05069 0.52986 0.0
O461 O 0.58279 0.06813 0.54386 0.0
Co462 Co 0.22409 0.31532 0.37726 0.0
O463 O 0.22277 0.31182 0.44546 0.0
O464 O 0.22923 0.33594 0.41031 0.0
C465 C 0.23815 0.30127 0.35978 0.0
O466 O 0.2271 0.32326 0.30737 0.0
Co467 Co 0.20711 0.28496 0.30978 0.0
O468 O 0.22048 0.30088 0.26014 0.0
C469 C 0.18781 0.29901 0.35843 0.0
C470 C 0.22681 0.32744 0.44991 0.0
C471 C 0.22654 0.31647 0.26599 0.0
O472 O 0.20081 0.31061 0.37514 0.0
O473 O 0.18755 0.28687 0.33391 0.0
O474 O 0.24546 0.31628 0.37593 0.0
O475 O 0.22262 0.29466 0.36112 0.0
Co476 Co 0.71937 0.93883 0.34224 0.0
O477 O 0.72337 0.93888 0.41032 0.0
O478 O 0.70029 0.93565 0.37805 0.0
C479 C 0.74209 0.96113 0.32329 0.0
O480 O 0.71113 0.93861 0.27342 0.0
Co481 Co 0.74152 0.93193 0.27122 0.0
O482 O 0.72965 0.93804 0.22186 0.0
C483 C 0.71639 0.90416 0.3222 0.0
C484 C 0.70863 0.93649 0.41665 0.0
C485 C 0.71666 0.93917 0.23037 0.0
O486 O 0.71162 0.91434 0.34011 0.0
O487 O 0.72887 0.90869 0.29543 0.0
O488 O 0.7299 0.9627 0.34131 0.0
O489 O 0.74091 0.94628 0.32268 0.0
Co490 Co 0.06517 0.78871 0.31628 0.0
O491 O 0.06524 0.79231 0.38456 0.0
O492 O 0.07594 0.77745 0.34951 0.0
C493 C 0.03891 0.78235 0.30513 0.0
O494 O 0.06667 0.78181 0.24673 0.0
Co495 Co 0.05876 0.81156 0.24626 0.0
O496 O 0.05573 0.79411 0.1984 0.0
C497 C 0.09097 0.82316 0.2898 0.0
C498 C 0.07269 0.78315 0.38912 0.0
C499 C 0.06143 0.78377 0.20524 0.0
O500 O 0.08635 0.80894 0.30957 0.0
O501 O 0.08147 0.82712 0.26524 0.0
O502 O 0.04338 0.77139 0.32007 0.0
O503 O 0.05028 0.79725 0.30169 0.0
H504 H 0.33952 0.0947 0.56291 0.0
H505 H 0.31906 0.07462 0.2845 0.0
H506 H 0.29283 0.08325 0.50257 0.0
H507 H 0.36652 0.1085 0.33278 0.0
H508 H 0.30931 0.07273 0.3674 0.0
H509 H 0.34981 0.09511 0.48092 0.0
C510 C 0.33145 0.09223 0.53246 0.0
C511 C 0.31535 0.08903 0.53932 0.0
C512 C 0.32187 0.08053 0.35975 0.0
C513 C 0.32688 0.0892 0.4463 0.0
C514 C 0.32744 0.08157 0.3126 0.0
C515 C 0.34358 0.09181 0.30188 0.0
C516 C 0.33259 0.08956 0.39645 0.0
C517 C 0.35395 0.10056 0.3396 0.0
C518 C 0.33732 0.09251 0.48588 0.0
C519 C 0.30537 0.0859 0.49877 0.0
N520 N 0.34829 0.09919 0.38537 0.0
N521 N 0.31127 0.08597 0.45399 0.0
H522 H 0.8918 0.22257 0.51027 0.0
H523 H 0.91926 0.27646 0.27483 0.0
H524 H 0.92551 0.27394 0.52074 0.0
H525 H 0.86877 0.24767 0.30395 0.0
H526 H 0.92538 0.27091 0.3575 0.0
H527 H 0.88657 0.227 0.42583 0.0
C528 C 0.89815 0.23473 0.49461 0.0
C529 C 0.90902 0.24795 0.52218 0.0
C530 C 0.913 0.26574 0.34536 0.0
C531 C 0.9035 0.2529 0.4262 0.0
C532 C 0.90953 0.26878 0.29841 0.0
C533 C 0.89351 0.26252 0.28303 0.0
C534 C 0.90038 0.25596 0.37609 0.0
C535 C 0.88126 0.25276 0.31482 0.0
C536 C 0.89515 0.23723 0.44675 0.0
C537 C 0.91695 0.2635 0.50054 0.0
N538 N 0.88495 0.24964 0.35988 0.0
N539 N 0.91415 0.26554 0.45346 0.0
H540 H 0.75813 0.66156 0.54018 0.0
H541 H 0.70403 0.64882 0.30923 0.0
H542 H 0.70784 0.64988 0.55281 0.0
H543 H 0.74172 0.63302 0.31251 0.0
H544 H 0.70722 0.65371 0.39664 0.0
H545 H 0.75416 0.65495 0.45406 0.0
C546 C 0.74623 0.65746 0.52479 0.0
C547 C 0.73327 0.65621 0.55334 0.0
C548 C 0.71475 0.64916 0.37804 0.0
C549 C 0.72878 0.6491 0.45523 0.0
C550 C 0.71305 0.64653 0.32832 0.0
C551 C 0.72263 0.64051 0.30395 0.0
C552 C 0.72636 0.64611 0.40296 0.0
C553 C 0.73407 0.6376 0.33017 0.0
C554 C 0.74399 0.6537 0.47584 0.0
C555 C 0.71809 0.65087 0.53189 0.0
N556 N 0.73571 0.64055 0.37831 0.0
N557 N 0.71628 0.64771 0.48377 0.0
H558 H 0.06353 0.34029 0.94916 0.0
H559 H 0.05989 0.3172 0.22504 0.0
H560 H 0.05358 0.29101 0.99431 0.0
H561 H 0.09501 0.36409 0.17142 0.0
H562 H 0.05282 0.30763 0.14166 0.0
H563 H 0.07041 0.34973 0.03275 0.0
C564 C 0.0627 0.33147 0.97669 0.0
C565 C 0.0581 0.3149 0.96504 0.0
C566 C 0.0621 0.31998 0.14835 0.0
C567 C 0.06563 0.32548 0.05995 0.0
C568 C 0.0661 0.32544 0.19568 0.0
C569 C 0.07806 0.3414 0.20478 0.0
C570 C 0.06983 0.33075 0.11023 0.0
C571 C 0.0858 0.35164 0.16569 0.0
C572 C 0.06669 0.33686 0.02412 0.0
C573 C 0.05719 0.30392 0.00193 0.0
N574 N 0.08143 0.34619 0.11991 0.0
N575 N 0.06083 0.30939 0.04796 0.0
H576 H 0.66595 0.75838 0.22031 0.0
H577 H 0.64441 0.73745 0.94286 0.0
H578 H 0.61934 0.74791 0.16109 0.0
H579 H 0.6923 0.77067 0.98952 0.0
H580 H 0.63494 0.73627 0.0259 0.0
H581 H 0.67588 0.75833 0.13812 0.0
C582 C 0.65783 0.75605 0.19006 0.0
C583 C 0.64185 0.75324 0.19731 0.0
C584 C 0.64753 0.74377 0.01786 0.0
C585 C 0.65297 0.75285 0.10405 0.0
C586 C 0.65294 0.74439 0.97063 0.0
C587 C 0.66912 0.75425 0.95943 0.0
C588 C 0.65845 0.75281 0.05411 0.0
C589 C 0.67968 0.76302 0.99673 0.0
C590 C 0.66349 0.75605 0.14336 0.0
C591 C 0.63179 0.75027 0.157 0.0
N592 N 0.67418 0.76205 0.04256 0.0
N593 N 0.63748 0.75004 0.11209 0.0
H594 H 0.23454 0.94169 0.20736 0.0
H595 H 0.23493 0.92353 0.92631 0.0
H596 H 0.24368 0.90174 0.15355 0.0
H597 H 0.20768 0.94716 0.98854 0.0
H598 H 0.24196 0.91837 0.00797 0.0
H599 H 0.22842 0.94698 0.12532 0.0
C600 C 0.23529 0.93405 0.17825 0.0
C601 C 0.23954 0.92121 0.18717 0.0
C602 C 0.23443 0.92466 0.00354 0.0
C603 C 0.23272 0.9273 0.09335 0.0
C604 C 0.23048 0.92765 0.95711 0.0
C605 C 0.22069 0.93574 0.95081 0.0
C606 C 0.22878 0.93008 0.04361 0.0
C607 C 0.21519 0.94081 0.99182 0.0
C608 C 0.23176 0.93705 0.13151 0.0
C609 C 0.24036 0.91171 0.14813 0.0
N610 N 0.21938 0.93798 0.03647 0.0
N611 N 0.23704 0.91498 0.10274 0.0
H612 H 0.69327 0.92821 0.72642 0.0
H613 H 0.67745 0.92845 0.4419 0.0
H614 H 0.64622 0.91123 0.66212 0.0
H615 H 0.72396 0.93943 0.50287 0.0
H616 H 0.66613 0.92384 0.52322 0.0
H617 H 0.70515 0.93398 0.64544 0.0
C618 C 0.68545 0.9257 0.69535 0.0
C619 C 0.66874 0.9192 0.70104 0.0
C620 C 0.67882 0.92729 0.51884 0.0
C621 C 0.68219 0.92583 0.60853 0.0
C622 C 0.68529 0.92997 0.4724 0.0
C623 C 0.70166 0.9343 0.46558 0.0
C624 C 0.6888 0.92901 0.55881 0.0
C625 C 0.71126 0.93607 0.50645 0.0
C626 C 0.69222 0.92899 0.64916 0.0
C627 C 0.65917 0.91619 0.65951 0.0
N628 N 0.70469 0.93341 0.55129 0.0
N629 N 0.66602 0.91955 0.61515 0.0
H630 H 0.09073 0.76675 0.41259 0.0
H631 H 0.07681 0.77018 0.69706 0.0
H632 H 0.06383 0.79056 0.47604 0.0
H633 H 0.11156 0.75559 0.63672 0.0
H634 H 0.07012 0.77547 0.61551 0.0
H635 H 0.09692 0.76044 0.49389 0.0
C636 C 0.08614 0.77065 0.44355 0.0
C637 C 0.0768 0.77923 0.43752 0.0
C638 C 0.0792 0.7711 0.62011 0.0
C639 C 0.08369 0.77197 0.53041 0.0
C640 C 0.08298 0.76803 0.66666 0.0
C641 C 0.09478 0.76247 0.67371 0.0
C642 C 0.08719 0.76848 0.58027 0.0
C643 C 0.10242 0.75992 0.63296 0.0
C644 C 0.08967 0.76706 0.48991 0.0
C645 C 0.07113 0.78397 0.47892 0.0
N646 N 0.09849 0.76292 0.58802 0.0
N647 N 0.07463 0.78024 0.52349 0.0
H648 H 0.23487 0.35974 0.47342 0.0
H649 H 0.22923 0.34234 0.75798 0.0
H650 H 0.22242 0.31198 0.53649 0.0
H651 H 0.2417 0.39034 0.69665 0.0
H652 H 0.22656 0.33101 0.67659 0.0
H653 H 0.23739 0.37134 0.55472 0.0
C654 C 0.23267 0.35171 0.50431 0.0
C655 C 0.22844 0.33489 0.49821 0.0
C656 C 0.22987 0.34402 0.68092 0.0
C657 C 0.23127 0.348 0.59103 0.0
C658 C 0.23139 0.35048 0.72739 0.0
C659 C 0.2357 0.36729 0.73406 0.0
C660 C 0.23269 0.35446 0.64085 0.0
C661 C 0.23836 0.37729 0.69314 0.0
C662 C 0.2341 0.35832 0.55067 0.0
C663 C 0.22572 0.32503 0.53945 0.0
N664 N 0.23682 0.37073 0.64828 0.0
N665 N 0.22718 0.33172 0.58403 0.0
H666 H 0.87793 0.6362 0.86751 0.0
H667 H 0.90195 0.71758 0.0264 0.0
H668 H 0.88885 0.68395 0.80681 0.0
H669 H 0.88679 0.66908 0.08742 0.0
H670 H 0.8977 0.70557 0.94585 0.0
H671 H 0.8815 0.64809 0.94811 0.0
C672 C 0.88106 0.64921 0.87112 0.0
C673 C 0.88312 0.65912 0.83032 0.0
C674 C 0.89528 0.69753 0.97679 0.0
C675 C 0.88728 0.67282 0.92276 0.0
C676 C 0.89774 0.70438 0.02287 0.0
C677 C 0.89474 0.69431 0.06375 0.0
C678 C 0.88984 0.68047 0.97136 0.0
C679 C 0.88926 0.6773 0.05691 0.0
C680 C 0.88309 0.65598 0.91724 0.0
C681 C 0.88714 0.67587 0.83727 0.0
N682 N 0.88701 0.67091 0.01156 0.0
N683 N 0.88914 0.68221 0.88264 0.0
H684 H 0.36622 0.26533 0.06658 0.0
H685 H 0.3505 0.2655 0.78213 0.0
H686 H 0.31925 0.24789 0.00139 0.0
H687 H 0.39707 0.27641 0.84248 0.0
H688 H 0.33927 0.26087 0.8634 0.0
H689 H 0.37824 0.27113 0.9857 0.0
C690 C 0.35845 0.26272 0.03535 0.0
C691 C 0.34171 0.25609 0.04074 0.0
C692 C 0.35196 0.2643 0.85894 0.0
C693 C 0.35532 0.26276 0.94846 0.0
C694 C 0.35838 0.26699 0.8125 0.0
C695 C 0.37473 0.27131 0.8055 0.0
C696 C 0.36196 0.26599 0.8988 0.0
C697 C 0.38438 0.27305 0.84624 0.0
C698 C 0.36531 0.26602 0.98925 0.0
C699 C 0.33221 0.25296 0.99905 0.0
N700 N 0.37785 0.27038 0.89117 0.0
N701 N 0.33914 0.25634 0.95483 0.0
H702 H 0.7369 0.12578 0.81613 0.0
H703 H 0.7458 0.09821 0.0418 0.0
H704 H 0.7585 0.09559 0.76028 0.0
H705 H 0.78347 0.08912 0.97674 0.0
H706 H 0.73823 0.10377 0.96211 0.0
H707 H 0.74274 0.12019 0.89749 0.0
C708 C 0.74277 0.11783 0.821 0.0
C709 C 0.74711 0.11104 0.78118 0.0
C710 C 0.74834 0.10087 0.96512 0.0
C711 C 0.75345 0.10411 0.87516 0.0
C712 C 0.75256 0.09751 0.01074 0.0
C713 C 0.76538 0.09335 0.01604 0.0
C714 C 0.7571 0.10019 0.92437 0.0
C715 C 0.77357 0.09241 0.97438 0.0
C716 C 0.74594 0.11446 0.86776 0.0
C717 C 0.75487 0.10101 0.78991 0.0
N718 N 0.76929 0.0958 0.93032 0.0
N719 N 0.75783 0.09787 0.83601 0.0
H720 H 0.96022 0.41508 0.84375 0.0
H721 H 0.03611 0.44737 0.67275 0.0
H722 H 0.00792 0.43004 0.9012 0.0
H723 H 0.98953 0.41078 0.62647 0.0
H724 H 0.02611 0.4442 0.75577 0.0
H725 H 0.97081 0.41656 0.76239 0.0
C726 C 0.97295 0.41871 0.83919 0.0
C727 C 0.98324 0.42248 0.87916 0.0
C728 C 0.01814 0.43681 0.72741 0.0
C729 C 0.99542 0.42432 0.78622 0.0
C730 C 0.02379 0.43866 0.68011 0.0
C731 C 0.01359 0.42934 0.6428 0.0
C732 C 0.00211 0.42584 0.73714 0.0
C733 C 0.99778 0.41818 0.65422 0.0
C734 C 0.97894 0.41945 0.7928 0.0
C735 C -0.0004 0.427 0.87125 0.0
N736 N 0.99245 0.41686 0.70037 0.0
N737 N 0.00525 0.42797 0.8255 0.0
H738 H 0.57269 0.58917 0.5929 0.0
H739 H 0.57328 0.60804 0.87391 0.0
H740 H 0.54486 0.61203 0.65587 0.0
H741 H 0.58263 0.56822 0.82021 0.0
H742 H 0.56683 0.61307 0.79192 0.0
H743 H 0.58038 0.58459 0.67437 0.0
C744 C 0.56825 0.59325 0.62382 0.0
C745 C 0.5581 0.60093 0.61778 0.0
C746 C 0.5703 0.60324 0.79812 0.0
C747 C 0.56694 0.59595 0.71038 0.0
C748 C 0.57403 0.6004 0.84483 0.0
C749 C 0.57841 0.58764 0.85379 0.0
C750 C 0.57121 0.59343 0.76003 0.0
C751 C 0.57921 0.57812 0.81478 0.0
C752 C 0.57258 0.5906 0.67014 0.0
C753 C 0.55264 0.60597 0.65895 0.0
N754 N 0.57569 0.58124 0.76944 0.0
N755 N 0.5572 0.60347 0.70349 0.0
H756 H 0.42791 0.02845 0.83517 0.0
H757 H 0.38314 0.95687 0.64995 0.0
H758 H 0.38976 0.98224 0.88189 0.0
H759 H 0.39587 0.00743 0.6119 0.0
H760 H 0.38923 0.96522 0.73437 0.0
H761 H 0.42036 0.02018 0.75117 0.0
C762 C 0.41804 0.01651 0.82766 0.0
C763 C 0.40942 0.00595 0.86522 0.0
C764 C 0.39059 0.97443 0.70749 0.0
C765 C 0.40089 0.9965 0.76994 0.0
C766 C 0.38719 0.96973 0.65947 0.0
C767 C 0.38907 0.98153 0.62416 0.0
C768 C 0.3963 0.9911 0.71991 0.0
C769 C 0.39427 0.99799 0.63821 0.0
C770 C 0.41367 0.0119 0.77993 0.0
C771 C 0.39665 0.9907 0.85378 0.0
N772 N 0.39794 0.00237 0.68514 0.0
N773 N 0.39283 0.98632 0.80695 0.0
H774 H 0.57121 0.04997 0.3665 0.0
H775 H 0.54538 0.96848 0.207 0.0
H776 H 0.55508 0.00127 0.42708 0.0
H777 H 0.55886 0.01681 0.14663 0.0
H778 H 0.54869 0.98023 0.2877 0.0
H779 H 0.56669 0.03803 0.28588 0.0
C780 C 0.56671 0.03673 0.36285 0.0
C781 C 0.56355 0.02658 0.40361 0.0
C782 C 0.55088 0.98828 0.25688 0.0
C783 C 0.55833 0.01282 0.31115 0.0
C784 C 0.549 0.98159 0.21071 0.0
C785 C 0.5519 0.99171 0.16999 0.0
C786 C 0.55575 0.00525 0.26251 0.0
C787 C 0.55652 0.00857 0.17703 0.0
C788 C 0.56411 0.02993 0.31673 0.0
C789 C 0.5577 0.00954 0.39664 0.0
N790 N 0.55836 0.01483 0.22246 0.0
N791 N 0.55531 0.00319 0.35124 0.0
H792 H 0.97664 0.57683 0.32562 0.0
H793 H 0.0566 0.61008 0.16618 0.0
H794 H 0.02424 0.59671 0.38757 0.0
H795 H 0.00917 0.59571 0.10725 0.0
H796 H 0.04513 0.60482 0.24724 0.0
H797 H 0.98846 0.58299 0.24548 0.0
C798 C 0.98962 0.58248 0.32241 0.0
C799 C 0.99947 0.58625 0.36349 0.0
C800 C 0.03723 0.60288 0.21663 0.0
C801 C 0.01313 0.59338 0.2713 0.0
C802 C 0.04376 0.60587 0.17028 0.0
C803 C 0.03381 0.60332 0.12983 0.0
C804 C 0.0206 0.59718 0.22266 0.0
C805 C 0.01729 0.59787 0.13737 0.0
C806 C 0.99636 0.58603 0.27649 0.0
C807 C 0.01619 0.59359 0.35692 0.0
N808 N 0.0112 0.59493 0.18286 0.0
N809 N 0.02251 0.59689 0.31164 0.0
H810 H 0.42693 0.43232 0.08085 0.0
H811 H 0.41333 0.43584 0.36555 0.0
H812 H 0.40192 0.4581 0.14437 0.0
H813 H 0.44675 0.41959 0.30418 0.0
H814 H 0.40699 0.44177 0.28415 0.0
H815 H 0.43251 0.42537 0.16202 0.0
C816 C 0.42262 0.43652 0.11181 0.0
C817 C 0.41399 0.44585 0.10579 0.0
C818 C 0.41569 0.43688 0.28853 0.0
C819 C 0.4202 0.43785 0.19868 0.0
C820 C 0.41927 0.43344 0.33497 0.0
C821 C 0.43061 0.42725 0.34169 0.0
C822 C 0.42342 0.43399 0.24848 0.0
C823 C 0.43796 0.42441 0.30072 0.0
C824 C 0.42581 0.43257 0.15813 0.0
C825 C 0.40868 0.45095 0.14725 0.0
N826 N 0.43424 0.42779 0.25594 0.0
N827 N 0.41183 0.44685 0.19183 0.0
H828 H 0.28756 0.1791 0.19332 0.0
H829 H 0.35091 0.1424 0.15198 0.0
H830 H 0.33659 0.20884 0.14843 0.0
H831 H 0.3024 0.11413 0.20358 0.0
H832 H 0.34556 0.1665 0.14479 0.0
H833 H 0.29238 0.15476 0.19031 0.0
C834 C 0.29934 0.18052 0.18254 0.0
C835 C 0.31175 0.1961 0.17163 0.0
C836 C 0.3361 0.155 0.15756 0.0
C837 C 0.31737 0.16816 0.16839 0.0
C838 C 0.33914 0.14123 0.16177 0.0
C839 C 0.32711 0.1262 0.17865 0.0
C840 C 0.32093 0.15372 0.17027 0.0
C841 C 0.31208 0.12544 0.19063 0.0
C842 C 0.30208 0.16658 0.18088 0.0
C843 C 0.3267 0.1971 0.15737 0.0
N844 N 0.30944 0.13901 0.18628 0.0
N845 N 0.32913 0.18331 0.15654 0.0
H846 H 0.83656 0.14195 0.19469 0.0
H847 H 0.8264 0.21947 0.0896 0.0
H848 H 0.79557 0.13737 0.1103 0.0
H849 H 0.8667 0.22315 0.17594 0.0
H850 H 0.81504 0.18938 0.09499 0.0
H851 H 0.84808 0.1718 0.18569 0.0
C852 C 0.83 0.14718 0.17408 0.0
C853 C 0.81503 0.13707 0.1534 0.0
C854 C 0.82637 0.19682 0.11267 0.0
C855 C 0.82816 0.17136 0.14312 0.0
C856 C 0.83286 0.214 0.10967 0.0
C857 C 0.84754 0.22392 0.13231 0.0
C858 C 0.83463 0.18952 0.13849 0.0
C859 C 0.85536 0.21609 0.15779 0.0
C860 C 0.83658 0.16427 0.16902 0.0
C861 C 0.80712 0.14464 0.12704 0.0
N862 N 0.84882 0.1994 0.16015 0.0
N863 N 0.81376 0.16132 0.12279 0.0
H864 H 0.8514 0.68961 0.15224 0.0
H865 H 0.76937 0.69564 0.20582 0.0
H866 H 0.84856 0.73037 0.2262 0.0
H867 H 0.77048 0.65143 0.15028 0.0
H868 H 0.79848 0.70932 0.20524 0.0
H869 H 0.82219 0.67653 0.14317 0.0
C870 C 0.84469 0.69592 0.16625 0.0
C871 C 0.85256 0.71116 0.19032 0.0
C872 C 0.79243 0.69665 0.19304 0.0
C873 C 0.81896 0.69609 0.17997 0.0
C874 C 0.7757 0.68874 0.19331 0.0
C875 C 0.76731 0.67221 0.17839 0.0
C876 C 0.80107 0.68808 0.17774 0.0
C877 C 0.77638 0.66414 0.16222 0.0
C878 C 0.82797 0.68837 0.16113 0.0
C879 C 0.84312 0.71865 0.20756 0.0
N880 N 0.79278 0.67214 0.16253 0.0
N881 N 0.82686 0.71102 0.20217 0.0
H882 H 0.09463 0.29627 0.30776 0.0
H883 H 0.18322 0.32245 0.40998 0.0
H884 H 0.12357 0.34282 0.37767 0.0
H885 H 0.15806 0.27974 0.31938 0.0
H886 H 0.15961 0.32769 0.40917 0.0
H887 H 0.11614 0.28801 0.32117 0.0
C888 C 0.10547 0.30474 0.32607 0.0
C889 C 0.10733 0.32033 0.34128 0.0
C890 C 0.1592 0.31709 0.38976 0.0
C891 C 0.13192 0.31088 0.35694 0.0
C892 C 0.17268 0.31404 0.39031 0.0
C893 C 0.17275 0.30075 0.36411 0.0
C894 C 0.14565 0.3068 0.36283 0.0
C895 C 0.15863 0.29021 0.33978 0.0
C896 C 0.11773 0.3 0.33371 0.0
C897 C 0.12163 0.33074 0.36493 0.0
N898 N 0.14569 0.29356 0.33934 0.0
N899 N 0.13338 0.32584 0.37191 0.0
H900 H 0.63523 0.81353 0.40012 0.0
H901 H 0.71739 0.8773 0.27747 0.0
H902 H 0.66196 0.79883 0.29886 0.0
H903 H 0.69166 0.89045 0.38616 0.0
H904 H 0.69793 0.84832 0.28648 0.0
H905 H 0.65622 0.84179 0.39591 0.0
C906 C 0.64548 0.81622 0.3769 0.0
C907 C 0.64676 0.80373 0.34975 0.0
C908 C 0.69665 0.85757 0.30855 0.0
C909 C 0.67097 0.83616 0.3449 0.0
C910 C 0.7078 0.8741 0.30359 0.0
C911 C 0.70611 0.88638 0.33075 0.0
C912 C 0.68373 0.85332 0.34084 0.0
C913 C 0.69339 0.88148 0.364 0.0
C914 C 0.65752 0.83238 0.37465 0.0
C915 C 0.66042 0.80802 0.32047 0.0
N916 N 0.68267 0.8654 0.36782 0.0
N917 N 0.67196 0.82387 0.31874 0.0
H918 H 0.19482 0.87173 0.33991 0.0
H919 H 0.10597 0.85461 0.25366 0.0
H920 H 0.18307 0.90595 0.25969 0.0
H921 H 0.11552 0.81907 0.33472 0.0
H922 H 0.13447 0.87352 0.25698 0.0
H923 H 0.16614 0.85199 0.339 0.0
C924 C 0.1863 0.87509 0.32204 0.0
C925 C 0.19146 0.89061 0.30007 0.0
C926 C 0.13037 0.8616 0.27418 0.0
C927 C 0.15869 0.86816 0.29902 0.0
C928 C 0.11402 0.85077 0.27237 0.0
C929 C 0.10823 0.83515 0.29386 0.0
C930 C 0.14116 0.85686 0.2976 0.0
C931 C 0.11938 0.83096 0.31758 0.0
C932 C 0.16993 0.86385 0.32164 0.0
C933 C 0.17979 0.89425 0.27748 0.0
N934 N 0.13529 0.84172 0.31871 0.0
N935 N 0.16408 0.88318 0.27763 0.0
H936 H 0.66369 0.87191 0.80453 0.0
H937 H 0.62769 0.77544 0.86036 0.0
H938 H 0.61545 0.84199 0.85573 0.0
H939 H 0.67625 0.80434 0.81002 0.0
H940 H 0.62274 0.79963 0.85395 0.0
H941 H 0.66814 0.84715 0.80048 0.0
C942 C 0.65399 0.86015 0.81448 0.0
C943 C 0.63922 0.85908 0.83098 0.0
C944 C 0.63448 0.80071 0.84417 0.0
C945 C 0.64428 0.83078 0.82664 0.0
C946 C 0.63734 0.78687 0.84793 0.0
C947 C 0.65246 0.78784 0.83597 0.0
C948 C 0.64681 0.81571 0.82848 0.0
C949 C 0.66443 0.80302 0.8198 0.0
C950 C 0.65656 0.84603 0.81229 0.0
C951 C 0.62709 0.84349 0.84328 0.0
N952 N 0.66137 0.8164 0.81671 0.0
N953 N 0.62993 0.83001 0.84111 0.0
H954 H 0.19064 0.89437 0.8557 0.0
H955 H 0.12316 0.8069 0.76773 0.0
H956 H 0.15356 0.8893 0.75331 0.0
H957 H 0.16214 0.81323 0.86402 0.0
H958 H 0.13374 0.83685 0.76214 0.0
H959 H 0.1797 0.86457 0.86018 0.0
C960 C 0.18014 0.88701 0.83416 0.0
C961 C 0.17306 0.89444 0.80385 0.0
C962 C 0.13999 0.83167 0.78436 0.0
C963 C 0.16045 0.86005 0.80886 0.0
C964 C 0.13399 0.81455 0.78755 0.0
C965 C 0.14175 0.80747 0.81651 0.0
C966 C 0.15384 0.84181 0.81037 0.0
C967 C 0.15573 0.81806 0.84124 0.0
C968 C 0.17391 0.86993 0.83673 0.0
C969 C 0.15942 0.88414 0.77715 0.0
N970 N 0.16128 0.83467 0.8377 0.0
N971 N 0.15358 0.86745 0.78018 0.0
H972 H 0.10723 0.34777 0.92991 0.0
H973 H 0.19134 0.36229 0.81372 0.0
H974 H 0.10958 0.3255 0.79429 0.0
H975 H 0.18559 0.39227 0.9265 0.0
H976 H 0.162 0.3466 0.80901 0.0
H977 H 0.13638 0.36104 0.93398 0.0
C978 C 0.11393 0.34553 0.90107 0.0
C979 C 0.10594 0.33565 0.86138 0.0
C980 C 0.1672 0.35666 0.83457 0.0
C981 C 0.1396 0.35112 0.86557 0.0
C982 C 0.18395 0.36567 0.83729 0.0
C983 C 0.19103 0.37869 0.87063 0.0
C984 C 0.15745 0.36054 0.8658 0.0
C985 C 0.18078 0.38244 0.90013 0.0
C986 C 0.13062 0.35322 0.90332 0.0
C987 C 0.11526 0.33301 0.82553 0.0
N988 N 0.16458 0.37337 0.89719 0.0
N989 N 0.13167 0.34086 0.82822 0.0
H990 H 0.77283 0.65658 0.74441 0.0
H991 H 0.81301 0.59942 0.65663 0.0
H992 H 0.74767 0.61268 0.65859 0.0
H993 H 0.83571 0.64082 0.75353 0.0
H994 H 0.7879 0.60199 0.66395 0.0
H995 H 0.7949 0.64913 0.75474 0.0
C996 C 0.77189 0.6453 0.72797 0.0
C997 C 0.75845 0.63535 0.70008 0.0
C998 C 0.79833 0.61036 0.68407 0.0
C999 C 0.7838 0.62677 0.71154 0.0
C1000 C 0.81268 0.60888 0.68 0.0
C1001 C 0.8266 0.6201 0.70382 0.0
C1002 C 0.79795 0.62318 0.712 0.0
C1003 C 0.82539 0.63205 0.73381 0.0
C1004 C 0.7845 0.64102 0.73401 0.0
C1005 C 0.75784 0.62077 0.68018 0.0
N1006 N 0.81139 0.63339 0.73655 0.0
N1007 N 0.77044 0.61702 0.68579 0.0
H1008 H 0.36562 0.22756 0.72971 0.0
H1009 H 0.33513 0.13488 0.63604 0.0
H1010 H 0.38893 0.21408 0.6145 0.0
H1011 H 0.30969 0.15038 0.73963 0.0
H1012 H 0.35606 0.16324 0.63158 0.0
H1013 H 0.34661 0.19876 0.73873 0.0
C1014 C 0.36684 0.21853 0.70645 0.0
C1015 C 0.37885 0.22332 0.67089 0.0
C1016 C 0.3459 0.16042 0.65528 0.0
C1017 C 0.35688 0.19014 0.68099 0.0
C1018 C 0.33391 0.14422 0.65787 0.0
C1019 C 0.32055 0.14018 0.68824 0.0
C1020 C 0.34459 0.1727 0.68338 0.0
C1021 C 0.31969 0.15286 0.71557 0.0
C1022 C 0.35591 0.20204 0.7116 0.0
C1023 C 0.37987 0.21097 0.64231 0.0
N1024 N 0.33154 0.16851 0.7125 0.0
N1025 N 0.36893 0.19494 0.64774 0.0
H1026 H 0.77569 0.18547 0.59646 0.0
H1027 H 0.86498 0.20259 0.67716 0.0
H1028 H 0.78599 0.14996 0.67504 0.0
H1029 H 0.85267 0.23809 0.6064 0.0
H1030 H 0.83632 0.18298 0.67749 0.0
H1031 H 0.80407 0.20487 0.60088 0.0
C1032 C 0.78388 0.18174 0.61484 0.0
C1033 C 0.77835 0.16599 0.63529 0.0
C1034 C 0.83996 0.1951 0.66203 0.0
C1035 C 0.81109 0.18824 0.64026 0.0
C1036 C 0.85632 0.20629 0.66179 0.0
C1037 C 0.86135 0.22207 0.64172 0.0
C1038 C 0.82857 0.1997 0.64195 0.0
C1039 C 0.84951 0.22613 0.62233 0.0
C1040 C 0.80014 0.19285 0.61733 0.0
C1041 C 0.78964 0.16195 0.65869 0.0
N1042 N 0.83378 0.21506 0.62289 0.0
N1043 N 0.80546 0.17296 0.66036 0.0
H1044 H 0.96894 0.44674 0.54473 0.0
H1045 H 0.99702 0.54084 0.46953 0.0
H1046 H 0.01612 0.47778 0.48794 0.0
H1047 H 0.95043 0.50937 0.52929 0.0
H1048 H 0.00368 0.51747 0.47013 0.0
H1049 H 0.96159 0.46929 0.53465 0.0
C1050 C 0.97779 0.4583 0.53016 0.0
C1051 C 0.99322 0.46035 0.51738 0.0
C1052 C 0.99197 0.51569 0.4828 0.0
C1053 C 0.9848 0.4863 0.50558 0.0
C1054 C 0.98812 0.52901 0.48231 0.0
C1055 C 0.97319 0.52714 0.49983 0.0
C1056 C 0.9808 0.50041 0.5009 0.0
C1057 C 0.96215 0.51148 0.51584 0.0
C1058 C 0.97355 0.47119 0.5243 0.0
C1059 C 0.00411 0.47563 0.49848 0.0
N1060 N 0.96622 0.49878 0.51626 0.0
N1061 N -0.0003 0.48805 0.49326 0.0
H1062 H 0.45939 0.47128 0.43617 0.0
H1063 H 0.52845 0.55843 0.51997 0.0
H1064 H 0.49902 0.47707 0.52896 0.0
H1065 H 0.48996 0.55347 0.42334 0.0
H1066 H 0.51746 0.52858 0.52411 0.0
H1067 H 0.47027 0.50122 0.43066 0.0
C1068 C 0.47042 0.47881 0.45523 0.0
C1069 C 0.47827 0.47158 0.48321 0.0
C1070 C 0.51138 0.53399 0.50201 0.0
C1071 C 0.49073 0.50593 0.47715 0.0
C1072 C 0.51764 0.55109 0.49964 0.0
C1073 C 0.51015 0.55855 0.47109 0.0
C1074 C 0.4975 0.52416 0.47569 0.0
C1075 C 0.49614 0.5483 0.44581 0.0
C1076 C 0.4766 0.49593 0.4521 0.0
C1077 C 0.49253 0.48203 0.50698 0.0
N1078 N 0.49029 0.53161 0.44864 0.0
N1079 N 0.49826 0.49866 0.5035 0.0
H1080 H 0.51893 0.06115 0.58287 0.0
H1081 H 0.44006 0.98988 0.46142 0.0
H1082 H 0.52143 0.02501 0.48543 0.0
H1083 H 0.43997 0.02255 0.57512 0.0
H1084 H 0.46971 0.00257 0.46618 0.0
H1085 H 0.48975 0.04779 0.57507 0.0
C1086 C 0.51339 0.0505 0.55949 0.0
C1087 C 0.52275 0.04423 0.53496 0.0
C1088 C 0.4631 0.00687 0.49007 0.0
C1089 C 0.48909 0.02863 0.52614 0.0
C1090 C 0.4462 -0.00044 0.48754 0.0
C1091 C 0.43746 0.00525 0.51745 0.0
C1092 C 0.47121 0.01991 0.52272 0.0
C1093 C 0.4461 0.01788 0.55064 0.0
C1094 C 0.49666 0.04277 0.55524 0.0
C1095 C 0.51475 0.03029 0.50523 0.0
N1096 N 0.46237 0.02477 0.55211 0.0
N1097 N 0.4984 0.02294 0.50174 0.0
H1098 H 0.45059 0.00194 0.05016 0.0
H1099 H 0.48393 0.9374 0.97941 0.0
H1100 H 0.42302 0.95824 0.96586 0.0
H1101 H 0.50603 0.97602 0.08533 0.0
H1102 H 0.46061 0.9434 0.97753 0.0
H1103 H 0.47046 0.99172 0.06558 0.0
C1104 C 0.4487 0.99017 0.03488 0.0
C1105 C 0.43517 0.98101 0.00631 0.0
C1106 C 0.47048 0.95038 0.00166 0.0
C1107 C 0.45795 0.96918 0.02391 0.0
C1108 C 0.48377 0.94692 0.00292 0.0
C1109 C 0.4971 0.95641 0.03196 0.0
C1110 C 0.47059 0.96346 0.02942 0.0
C1111 C 0.49618 0.96856 0.06174 0.0
C1112 C 0.46002 0.98428 0.04397 0.0
C1113 C 0.4333 0.96575 0.98796 0.0
N1114 N 0.48327 0.97187 0.0592 0.0
N1115 N 0.44465 0.96038 0.99669 0.0
H1116 H 0.05263 0.54767 0.94645 0.0
H1117 H 0.97321 0.48162 0.07676 0.0
H1118 H 0.0254 0.55997 0.05221 0.0
H1119 H 0.00128 0.46807 0.97728 0.0
H1120 H 0.9927 0.51043 0.06883 0.0
H1121 H 0.0347 0.51837 0.95892 0.0
C1122 C 0.04303 0.54424 0.9726 0.0
C1123 C 0.04047 0.55635 0.99798 0.0
C1124 C 0.99462 0.50116 0.04878 0.0
C1125 C 0.01985 0.5229 0.01207 0.0
C1126 C 0.98344 0.48468 0.05318 0.0
C1127 C 0.98554 0.47235 0.0276 0.0
C1128 C 0.00801 0.50542 0.01844 0.0
C1129 C 0.99913 0.47712 0.99774 0.0
C1130 C 0.03275 0.52752 0.97956 0.0
C1131 C 0.02778 0.55114 0.03138 0.0
N1132 N 0.00981 0.49327 0.9939 0.0
N1133 N 0.01793 0.53486 0.03719 0.0
H1134 H 0.44474 0.52146 0.92293 0.0
H1135 H 0.53372 0.53812 0.00542 0.0
H1136 H 0.45435 0.48526 1.00026 0.0
H1137 H 0.52167 0.57251 0.92713 0.0
H1138 H 0.50505 0.51834 0.00493 0.0
H1139 H 0.4732 0.54026 0.92607 0.0
C1140 C 0.45281 0.51744 0.94077 0.0
C1141 C 0.44704 0.50168 0.96125 0.0
C1142 C 0.50877 0.53024 0.98791 0.0
C1143 C 0.47996 0.5233 0.9648 0.0
C1144 C 0.52513 0.54151 0.98806 0.0
C1145 C 0.5302 0.55708 0.96649 0.0
C1146 C 0.49747 0.53459 0.96596 0.0
C1147 C 0.51847 0.56076 0.94456 0.0
C1148 C 0.46914 0.52822 0.94249 0.0
C1149 C 0.45821 0.49728 0.98393 0.0
N1150 N 0.50277 0.54967 0.94496 0.0
N1151 N 0.47414 0.50801 0.98499 0.0
H1152 H 0.42278 0.06961 0.95943 0.0
H1153 H 0.40039 0.09304 0.1978 0.0
H1154 H 0.44104 0.06114 0.09419 0.0
H1155 H 0.39563 0.11492 0.06447 0.0
H1156 H 0.42228 0.0886 0.16295 0.0
H1157 H 0.42056 0.09318 0.9951 0.0
C1158 C 0.42683 0.0731 0.99618 0.0
C1159 C 0.4316 0.06321 0.02455 0.0
C1160 C 0.41685 0.09482 0.14152 0.0
C1161 C 0.42853 0.08968 0.06616 0.0
C1162 C 0.40429 0.09729 0.16143 0.0
C1163 C 0.396 0.10389 0.13331 0.0
C1164 C 0.4206 0.09835 0.09253 0.0
C1165 C 0.40162 0.10951 0.08688 0.0
C1166 C 0.42558 0.08658 0.01662 0.0
C1167 C 0.43701 0.06834 0.07152 0.0
N1168 N 0.41328 0.10612 0.06726 0.0
N1169 N 0.43481 0.08093 0.09151 0.0
H1170 H 0.89602 0.32738 0.20233 0.0
H1171 H 0.92373 0.36991 0.97112 0.0
H1172 H 0.8674 0.30425 0.077 0.0
H1173 H 0.92228 0.39963 0.09108 0.0
H1174 H 0.90163 0.34597 0.00701 0.0
H1175 H 0.90399 0.35432 0.16504 0.0
C1176 C 0.89107 0.32803 0.16743 0.0
C1177 C 0.88142 0.31362 0.14201 0.0
C1178 C 0.90582 0.35783 0.02482 0.0
C1179 C 0.89087 0.34424 0.09872 0.0
C1180 C 0.9185 0.37144 0.00458 0.0
C1181 C 0.92502 0.3866 0.02885 0.0
C1182 C 0.90009 0.35929 0.07048 0.0
C1183 C 0.91775 0.38804 0.07177 0.0
C1184 C 0.89556 0.3434 0.14628 0.0
C1185 C 0.87519 0.31508 0.09719 0.0
N1186 N 0.90599 0.37437 0.09222 0.0
N1187 N 0.88052 0.33014 0.07601 0.0
H1188 H 0.67764 0.57962 0.18435 0.0
H1189 H 0.6306 0.58035 0.95241 0.0
H1190 H 0.70016 0.59969 0.04847 0.0
H1191 H 0.60746 0.55587 0.08351 0.0
H1192 H 0.65569 0.58069 0.98017 0.0
H1193 H 0.65231 0.56362 0.14246 0.0
C1194 C 0.67741 0.58004 0.14532 0.0
C1195 C 0.69092 0.59113 0.1198 0.0
C1196 C 0.6451 0.5749 0.00262 0.0
C1197 C 0.66181 0.57347 0.07183 0.0
C1198 C 0.63076 0.57474 0.98679 0.0
C1199 C 0.61706 0.56833 0.01618 0.0
C1200 C 0.6459 0.56902 0.04887 0.0
C1201 C 0.61782 0.56102 0.05999 0.0
C1202 C 0.66288 0.57104 0.12143 0.0
C1203 C 0.69 0.59129 0.06945 0.0
N1204 N 0.63215 0.56193 0.07561 0.0
N1205 N 0.67554 0.583 0.04719 0.0
H1206 H 0.07224 0.43467 0.5358 0.0
H1207 H 0.08783 0.40466 0.29667 0.0
H1208 H 0.06314 0.45233 0.40041 0.0
H1209 H 0.10972 0.39956 0.42876 0.0
H1210 H 0.08609 0.4288 0.32991 0.0
H1211 H 0.09305 0.42919 0.49744 0.0
C1212 C 0.07504 0.43788 0.49819 0.0
C1213 C 0.0658 0.44354 0.47074 0.0
C1214 C 0.09175 0.42278 0.35129 0.0
C1215 C 0.08904 0.43669 0.42608 0.0
C1216 C 0.0927 0.40896 0.33229 0.0
C1217 C 0.09848 0.39992 0.36072 0.0
C1218 C 0.09605 0.42713 0.39965 0.0
C1219 C 0.10492 0.40609 0.40613 0.0
C1220 C 0.08693 0.43477 0.47621 0.0
C1221 C 0.06993 0.44773 0.42248 0.0
N1222 N 0.10306 0.41905 0.42491 0.0
N1223 N 0.08094 0.4437 0.40115 0.0
H1224 H 0.5807 0.7024 0.28916 0.0
H1225 H 0.55999 0.66321 0.52506 0.0
H1226 H 0.58109 0.73337 0.40802 0.0
H1227 H 0.52827 0.63756 0.40767 0.0
H1228 H 0.56601 0.68942 0.48552 0.0
H1229 H 0.55946 0.67879 0.32911 0.0
C1230 C 0.576 0.70428 0.32319 0.0
C1231 C 0.58293 0.71968 0.34615 0.0
C1232 C 0.55733 0.6781 0.4691 0.0
C1233 C 0.55906 0.69276 0.39244 0.0
C1234 C 0.55399 0.66316 0.49146 0.0
C1235 C 0.54398 0.64827 0.46882 0.0
C1236 C 0.5511 0.67805 0.42301 0.0
C1237 C 0.53635 0.6488 0.42567 0.0
C1238 C 0.56382 0.69085 0.34581 0.0
C1239 C 0.57633 0.72158 0.38982 0.0
N1240 N 0.54053 0.66348 0.4031 0.0
N1241 N 0.56512 0.70809 0.41261 0.0
H1242 H 0.29128 0.91272 0.28227 0.0
H1243 H 0.34309 0.92287 0.51312 0.0
H1244 H 0.27089 0.89345 0.42108 0.0
H1245 H 0.36309 0.93755 0.37128 0.0
H1246 H 0.31704 0.90531 0.47714 0.0
H1247 H 0.31724 0.91519 0.30985 0.0
C1248 C 0.29222 0.90861 0.31832 0.0
C1249 C 0.27902 0.90305 0.34971 0.0
C1250 C 0.3272 0.9119 0.45364 0.0
C1251 C 0.30888 0.90634 0.38219 0.0
C1252 C 0.34212 0.9218 0.47421 0.0
C1253 C 0.35519 0.93166 0.44503 0.0
C1254 C 0.32524 0.91222 0.40354 0.0
C1255 C 0.35332 0.93003 0.39495 0.0
C1256 C 0.30707 0.91005 0.33411 0.0
C1257 C 0.28081 0.89782 0.39586 0.0
N1258 N 0.33848 0.92085 0.37575 0.0
N1259 N 0.2956 0.89996 0.41116 0.0
H1260 H 0.59645 0.9774 0.01086 0.0
H1261 H 0.59982 0.90352 0.8617 0.0
H1262 H 0.55474 0.9313 0.98417 0.0
H1263 H 0.63871 0.9527 0.86554 0.0
H1264 H 0.58325 0.91316 0.90817 0.0
H1265 H 0.61246 0.96805 0.96084 0.0
C1266 C 0.59068 0.96525 0.9947 0.0
C1267 C 0.57425 0.95507 0.00165 0.0
C1268 C 0.59536 0.92188 0.89855 0.0
C1269 C 0.59248 0.94436 0.94413 0.0
C1270 C 0.60482 0.9164 0.87201 0.0
C1271 C 0.62065 0.92735 0.85999 0.0
C1272 C 0.60186 0.93839 0.91352 0.0
C1273 C 0.62654 0.94388 0.87406 0.0
C1274 C 0.59981 0.95997 0.9659 0.0
C1275 C 0.56738 0.9395 0.97975 0.0
N1276 N 0.61716 0.94889 0.90049 0.0
N1277 N 0.57655 0.93459 0.95192 0.0
H1278 H 0.12715 0.73142 0.89206 0.0
H1279 H 0.08778 0.63323 0.89805 0.0
H1280 H 0.09379 0.70118 0.78359 0.0
H1281 H 0.08685 0.66229 0.02035 0.0
H1282 H 0.10205 0.65879 0.8517 0.0
H1283 H 0.12403 0.70626 0.93432 0.0
C1284 C 0.1195 0.71951 0.87654 0.0
C1285 C 0.11045 0.71828 0.8349 0.0
C1286 C 0.09915 0.65948 0.8892 0.0
C1287 C 0.10737 0.68976 0.88172 0.0
C1288 C 0.09103 0.64496 0.9156 0.0
C1289 C 0.08586 0.64574 0.96258 0.0
C1290 C 0.10253 0.67472 0.91083 0.0
C1291 C 0.0905 0.66125 0.98391 0.0
C1292 C 0.11778 0.70523 0.90054 0.0
C1293 C 0.10077 0.70258 0.81607 0.0
N1294 N 0.09849 0.67518 0.95774 0.0
N1295 N 0.09941 0.68888 0.83978 0.0
H1296 H 0.36588 0.46872 0.91637 0.0
H1297 H 0.2745 0.40436 0.96555 0.0
H1298 H 0.35045 0.42584 0.00761 0.0
H1299 H 0.28834 0.43492 0.83882 0.0
H1300 H 0.30206 0.41823 0.99504 0.0
H1301 H 0.33745 0.46164 0.89914 0.0
C1302 C 0.35653 0.45793 0.93305 0.0
C1303 C 0.36048 0.44774 0.96305 0.0
C1304 C 0.29904 0.42223 0.96132 0.0
C1305 C 0.32819 0.43983 0.94445 0.0
C1306 C 0.28323 0.41448 0.94488 0.0
C1307 C 0.27912 0.41876 0.90025 0.0
C1308 C 0.31094 0.43413 0.93243 0.0
C1309 C 0.29105 0.43154 0.87393 0.0
C1310 C 0.34036 0.45391 0.92324 0.0
C1311 C 0.34795 0.43392 0.98382 0.0
N1312 N 0.30654 0.43868 0.89013 0.0
N1313 N 0.33241 0.4304 0.97416 0.0
H1314 H 0.92667 0.64586 0.66351 0.0
H1315 H 0.93123 0.56975 0.53015 0.0
H1316 H 0.8857 0.59845 0.64686 0.0
H1317 H 0.96881 0.6196 0.52284 0.0
H1318 H 0.91455 0.57973 0.5749 0.0
H1319 H 0.94268 0.63604 0.61512 0.0
C1320 C 0.92106 0.63334 0.64984 0.0
C1321 C 0.90486 0.62291 0.65923 0.0
C1322 C 0.9264 0.5885 0.56322 0.0
C1323 C 0.92308 0.61164 0.60368 0.0
C1324 C 0.93591 0.58283 0.53768 0.0
C1325 C 0.95141 0.59389 0.52297 0.0
C1326 C 0.9325 0.60533 0.57445 0.0
C1327 C 0.95691 0.61067 0.53353 0.0
C1328 C 0.93019 0.62778 0.622 0.0
C1329 C 0.89818 0.60686 0.64048 0.0
N1330 N 0.94749 0.61589 0.55898 0.0
N1331 N 0.90735 0.60168 0.61361 0.0
H1332 H 0.42839 0.36517 0.45377 0.0
H1333 H 0.42943 0.3292 0.69484 0.0
H1334 H 0.46495 0.39599 0.55388 0.0
H1335 H 0.42696 0.29954 0.57048 0.0
H1336 H 0.44316 0.35406 0.64614 0.0
H1337 H 0.4273 0.34073 0.4951 0.0
C1338 C 0.43634 0.36676 0.48404 0.0
C1339 C 0.4466 0.38256 0.50096 0.0
C1340 C 0.44003 0.34212 0.62984 0.0
C1341 C 0.44525 0.35481 0.54853 0.0
C1342 C 0.43223 0.32796 0.65756 0.0
C1343 C 0.42685 0.31235 0.6363 0.0
C1344 C 0.44182 0.34056 0.5802 0.0
C1345 C 0.43068 0.31135 0.58793 0.0
C1346 C 0.43583 0.35285 0.50725 0.0
C1347 C 0.45677 0.38401 0.54003 0.0
N1348 N 0.43744 0.3253 0.56085 0.0
N1349 N 0.45552 0.37028 0.56346 0.0
H1350 H 0.61657 0.09728 0.52819 0.0
H1351 H 0.68433 0.08422 0.6746 0.0
H1352 H 0.60846 0.05564 0.6187 0.0
H1353 H 0.69525 0.12893 0.59521 0.0
H1354 H 0.656 0.07522 0.65892 0.0
H1355 H 0.64461 0.11101 0.55754 0.0
C1356 C 0.62057 0.09131 0.55537 0.0
C1357 C 0.6103 0.07537 0.57127 0.0
C1358 C 0.66448 0.08705 0.64491 0.0
C1359 C 0.64214 0.09066 0.60396 0.0
C1360 C 0.68075 0.09218 0.65372 0.0
C1361 C 0.69222 0.10729 0.63582 0.0
C1362 C 0.65943 0.09694 0.61726 0.0
C1363 C 0.68677 0.11715 0.60951 0.0
C1364 C 0.63657 0.09903 0.57171 0.0
C1365 C 0.61605 0.06794 0.60561 0.0
N1366 N 0.67073 0.11172 0.60052 0.0
N1367 N 0.63156 0.07557 0.62045 0.0
H1368 H 0.72667 0.75697 0.85924 0.0
H1369 H 0.74281 0.72014 0.63226 0.0
H1370 H 0.71881 0.7712 0.71717 0.0
H1371 H 0.76224 0.71678 0.77079 0.0
H1372 H 0.74168 0.74538 0.65825 0.0
H1373 H 0.74711 0.74966 0.82675 0.0
C1374 C 0.72969 0.75904 0.82132 0.0
C1375 C 0.72092 0.7643 0.79047 0.0
C1376 C 0.74666 0.73947 0.68265 0.0
C1377 C 0.74369 0.7553 0.75257 0.0
C1378 C 0.74727 0.72503 0.66779 0.0
C1379 C 0.75215 0.71619 0.70008 0.0
C1380 C 0.75043 0.74472 0.73066 0.0
C1381 C 0.75811 0.72313 0.74522 0.0
C1382 C 0.74136 0.75487 0.80268 0.0
C1383 C 0.72527 0.76698 0.74186 0.0
N1384 N 0.75661 0.73676 0.75982 0.0
N1385 N 0.73603 0.76193 0.72398 0.0
H1386 H 0.22381 0.9985 0.862 0.0
H1387 H 0.25376 0.03931 0.62924 0.0
H1388 H 0.19589 0.97539 0.73555 0.0
H1389 H 0.25386 0.07008 0.74833 0.0
H1390 H 0.23074 0.01623 0.6649 0.0
H1391 H 0.23275 0.02537 0.82345 0.0
C1392 C 0.2192 0.99917 0.82655 0.0
C1393 C 0.20948 0.98475 0.80127 0.0
C1394 C 0.23548 0.02816 0.68255 0.0
C1395 C 0.22005 0.01528 0.75649 0.0
C1396 C 0.24868 0.04127 0.66243 0.0
C1397 C 0.25589 0.05644 0.68659 0.0
C1398 C 0.22989 0.03009 0.72799 0.0
C1399 C 0.24879 0.05846 0.72912 0.0
C1400 C 0.22426 0.01449 0.80464 0.0
C1401 C 0.20372 0.98621 0.75569 0.0
N1402 N 0.23647 0.04523 0.74948 0.0
N1403 N 0.20959 0.00121 0.73385 0.0
H1404 H 0.01099 0.25564 0.85907 0.0
H1405 H 0.96019 0.23918 0.62311 0.0
H1406 H 0.03159 0.26706 0.71693 0.0
H1407 H 0.93937 0.22424 0.76405 0.0
H1408 H 0.98598 0.24223 0.65417 0.0
H1409 H 0.98517 0.23704 0.82382 0.0
C1410 C 0.01019 0.25368 0.82041 0.0
C1411 C 0.02335 0.2629 0.79074 0.0
C1412 C 0.97573 0.23788 0.67823 0.0
C1413 C 0.99367 0.24222 0.74989 0.0
C1414 C 0.96098 0.23609 0.66044 0.0
C1415 C 0.94774 0.23165 0.69129 0.0
C1416 C 0.97739 0.23564 0.72762 0.0
C1417 C 0.94934 0.22772 0.73917 0.0
C1418 C 0.9954 0.24316 0.80023 0.0
C1419 C 0.02172 0.26008 0.74098 0.0
N1420 N 0.96404 0.23021 0.75623 0.0
N1421 N 0.007 0.2503 0.72196 0.0
H1422 H 0.27279 0.23952 0.20322 0.0
H1423 H 0.22554 0.27185 0.31205 0.0
H1424 H 0.30961 0.28976 0.19686 0.0
H1425 H 0.27051 0.31374 0.34533 0.0
H1426 H 0.2399 0.26071 0.26178 0.0
H1427 H 0.25584 0.24866 0.24844 0.0
C1428 C 0.27719 0.25257 0.21062 0.0
C1429 C 0.29262 0.26392 0.19628 0.0
C1430 C 0.24675 0.27212 0.2809 0.0
C1431 C 0.27303 0.27463 0.24718 0.0
C1432 C 0.2385 0.27855 0.30944 0.0
C1433 C 0.24687 0.29366 0.33311 0.0
C1434 C 0.26355 0.2808 0.27659 0.0
C1435 C 0.26362 0.30197 0.32792 0.0
C1436 C 0.2674 0.25783 0.23618 0.0
C1437 C 0.29775 0.28063 0.2071 0.0
N1438 N 0.27142 0.29543 0.30009 0.0
N1439 N 0.28799 0.28549 0.2323 0.0
H1440 H 0.75662 0.96261 0.23592 0.0
H1441 H 0.79833 0.06081 0.22989 0.0
H1442 H 0.75682 0.99214 0.35835 0.0
H1443 H 0.76394 0.03114 0.12282 0.0
H1444 H 0.79489 0.03546 0.27155 0.0
H1445 H 0.77154 0.98803 0.18957 0.0
C1446 C 0.76026 0.9744 0.2535 0.0
C1447 C 0.75519 0.97538 0.30047 0.0
C1448 C 0.78849 0.03459 0.23816 0.0
C1449 C 0.77261 0.00419 0.24877 0.0
C1450 C 0.79039 0.04898 0.2145 0.0
C1451 C 0.78114 0.04798 0.17351 0.0
C1452 C 0.7777 0.01922 0.21961 0.0
C1453 C 0.77108 0.03237 0.15484 0.0
C1454 C 0.76875 0.98884 0.22711 0.0
C1455 C 0.76037 0.99096 0.3219 0.0
N1456 N 0.76954 0.01855 0.17821 0.0
N1457 N 0.7687 0.0048 0.29573 0.0
H1458 H 0.02531 0.79955 0.25478 0.0
H1459 H 0.93696 0.72568 0.28682 0.0
H1460 H 0.01337 0.75479 0.33505 0.0
H1461 H 0.94696 0.76454 0.18357 0.0
H1462 H 0.96437 0.74007 0.3172 0.0
H1463 H 0.99642 0.79025 0.23814 0.0
C1464 C 0.01663 0.78787 0.26918 0.0
C1465 C 0.02174 0.77784 0.29592 0.0
C1466 C 0.9606 0.74567 0.28839 0.0
C1467 C 0.98889 0.76731 0.27776 0.0
C1468 C 0.94489 0.73752 0.27144 0.0
C1469 C 0.93976 0.74403 0.233 0.0
C1470 C 0.97145 0.76029 0.26597 0.0
C1471 C 0.9505 0.75928 0.21374 0.0
C1472 C 0.00019 0.78259 0.2597 0.0
C1473 C 0.01003 0.76285 0.31379 0.0
N1474 N 0.966 0.76683 0.22996 0.0
N1475 N 0.99425 0.75808 0.30436 0.0
H1476 H 0.30448 0.05184 0.05836 0.0
H1477 H 0.32753 0.0876 0.79115 0.0
H1478 H 0.35127 0.09 0.01998 0.0
H1479 H 0.27917 0.06031 0.84411 0.0
H1480 H 0.33784 0.08268 0.86825 0.0
H1481 H 0.29684 0.04885 0.97359 0.0
C1482 C 0.31328 0.05942 0.03212 0.0
C1483 C 0.32846 0.07145 0.04669 0.0
C1484 C 0.32497 0.07752 0.86252 0.0
C1485 C 0.31966 0.06811 0.94918 0.0
C1486 C 0.3191 0.08021 0.81849 0.0
C1487 C 0.30249 0.0745 0.81161 0.0
C1488 C 0.31412 0.06888 0.89939 0.0
C1489 C 0.29207 0.06511 0.84826 0.0
C1490 C 0.30886 0.05772 0.98362 0.0
C1491 C 0.33936 0.08072 0.01064 0.0
N1492 N 0.29805 0.06271 0.89063 0.0
N1493 N 0.33467 0.07903 0.96362 0.0
H1494 H 0.90675 0.26471 0.03274 0.0
H1495 H 0.91683 0.29647 0.76055 0.0
H1496 H 0.89493 0.30306 0.98106 0.0
H1497 H 0.92001 0.25205 0.80367 0.0
H1498 H 0.91577 0.30318 0.84516 0.0
H1499 H 0.91853 0.26423 0.95367 0.0
C1500 C 0.90708 0.27337 0.00526 0.0
C1501 C 0.89971 0.28381 0.01312 0.0
C1502 C 0.9169 0.29206 0.83618 0.0
C1503 C 0.91295 0.28323 0.92287 0.0
C1504 C 0.91753 0.28821 0.78774 0.0
C1505 C 0.91818 0.27348 0.77471 0.0
C1506 C 0.91683 0.28109 0.87212 0.0
C1507 C 0.91929 0.26343 0.81185 0.0
C1508 C 0.91366 0.27299 0.96005 0.0
C1509 C 0.90032 0.29467 0.97621 0.0
N1510 N 0.91833 0.26729 0.85884 0.0
N1511 N 0.90664 0.29398 0.93261 0.0
H1512 H 0.69026 0.62652 0.04558 0.0
H1513 H 0.72306 0.68159 0.81353 0.0
H1514 H 0.71399 0.67967 0.05113 0.0
H1515 H 0.69103 0.62953 0.80827 0.0
H1516 H 0.71715 0.68177 0.89921 0.0
H1517 H 0.68739 0.62781 0.95854 0.0
C1518 C 0.69459 0.6385 0.02848 0.0
C1519 C 0.70254 0.65302 0.05547 0.0
C1520 C 0.7112 0.67036 0.87916 0.0
C1521 C 0.69963 0.6546 0.9555 0.0
C1522 C 0.7146 0.67023 0.83016 0.0
C1523 C 0.70775 0.65544 0.80368 0.0
C1524 C 0.70104 0.65557 0.90211 0.0
C1525 C 0.69672 0.64118 0.82719 0.0
C1526 C 0.69296 0.63923 0.97872 0.0
C1527 C 0.70781 0.66819 0.0316 0.0
N1528 N 0.69393 0.64155 0.87518 0.0
N1529 N 0.70656 0.66859 0.98276 0.0
H1530 H 0.03692 0.30267 0.69506 0.0
H1531 H 0.07325 0.36256 0.473 0.0
H1532 H 0.06102 0.35564 0.71009 0.0
H1533 H 0.04014 0.31104 0.45808 0.0
H1534 H 0.06729 0.36081 0.55912 0.0
H1535 H 0.03622 0.30584 0.60799 0.0
C1536 C 0.04191 0.31499 0.68005 0.0
C1537 C 0.04922 0.32892 0.70984 0.0
C1538 C 0.06116 0.34995 0.53687 0.0
C1539 C 0.04863 0.33263 0.60995 0.0
C1540 C 0.06458 0.35092 0.48766 0.0
C1541 C 0.05736 0.33686 0.45826 0.0
C1542 C 0.05059 0.33476 0.55699 0.0
C1543 C 0.0461 0.32217 0.47929 0.0
C1544 C 0.04147 0.3168 0.63028 0.0
C1545 C 0.05532 0.34458 0.68845 0.0
N1546 N 0.04325 0.32146 0.52745 0.0
N1547 N 0.05512 0.34601 0.63968 0.0
H1548 H 0.62956 0.71364 0.7154 0.0
H1549 H 0.65397 0.75042 0.44983 0.0
H1550 H 0.67687 0.75103 0.67824 0.0
H1551 H 0.60536 0.72249 0.50005 0.0
H1552 H 0.6639 0.7449 0.52676 0.0
H1553 H 0.62222 0.71085 0.63037 0.0
C1554 C 0.63852 0.72109 0.68939 0.0
C1555 C 0.65377 0.73286 0.70436 0.0
C1556 C 0.65107 0.73972 0.52046 0.0
C1557 C 0.64532 0.72977 0.60657 0.0
C1558 C 0.64541 0.74277 0.47651 0.0
C1559 C 0.62884 0.73707 0.46898 0.0
C1560 C 0.64004 0.73078 0.55662 0.0
C1561 C 0.61825 0.72731 0.50476 0.0
C1562 C 0.63429 0.7195 0.64073 0.0
C1563 C 0.6649 0.74196 0.6686 0.0
N1564 N 0.62402 0.7246 0.54711 0.0
N1565 N 0.66038 0.74041 0.62144 0.0
H1566 H 0.22313 0.97272 0.64838 0.0
H1567 H 0.24673 0.91862 0.46952 0.0
H1568 H 0.23039 0.93108 0.69612 0.0
H1569 H 0.24602 0.96461 0.43081 0.0
H1570 H 0.24472 0.92478 0.55455 0.0
H1571 H 0.23555 0.9721 0.57146 0.0
C1572 C 0.22766 0.96363 0.64285 0.0
C1573 C 0.22563 0.95185 0.67831 0.0
C1574 C 0.24528 0.93364 0.52745 0.0
C1575 C 0.23946 0.9507 0.58972 0.0
C1576 C 0.24645 0.93014 0.47883 0.0
C1577 C 0.24621 0.94094 0.44272 0.0
C1578 C 0.24381 0.94801 0.53999 0.0
C1579 C 0.24593 0.95573 0.45715 0.0
C1580 C 0.23473 0.96324 0.59888 0.0
C1581 C 0.23176 0.94038 0.66957 0.0
N1582 N 0.24451 0.95869 0.50447 0.0
N1583 N 0.23811 0.93986 0.62566 0.0
H1584 H 0.72749 0.94829 0.13864 0.0
H1585 H 0.63939 0.91455 0.02597 0.0
H1586 H 0.68434 0.93123 0.22457 0.0
H1587 H 0.68255 0.92901 0.94105 0.0
H1588 H 0.65582 0.92398 0.09842 0.0
H1589 H 0.71147 0.94499 0.06627 0.0
C1590 C 0.71463 0.944 0.1424 0.0
C1591 C 0.70722 0.9398 0.18784 0.0
C1592 C 0.66172 0.92521 0.06394 0.0
C1593 C 0.68873 0.93587 0.10457 0.0
C1594 C 0.65234 0.9198 0.02237 0.0
C1595 C 0.65956 0.92077 0.97711 0.0
C1596 C 0.67849 0.93165 0.06056 0.0
C1597 C 0.67641 0.92789 0.97503 0.0
C1598 C 0.70548 0.94211 0.10092 0.0
C1599 C 0.69056 0.93456 0.19036 0.0
N1600 N 0.68528 0.93292 0.01617 0.0
N1601 N 0.68184 0.93254 0.14921 0.0
H1602 H 0.04577 0.77868 0.1188 0.0
H1603 H 0.07724 0.76231 0.90935 0.0
H1604 H 0.08161 0.76898 0.19326 0.0
H1605 H 0.10432 0.74565 0.00304 0.0
H1606 H 0.06381 0.76658 0.97942 0.0
H1607 H 0.05161 0.76792 0.04508 0.0
C1608 C 0.05489 0.77423 0.11962 0.0
C1609 C 0.06339 0.77501 0.16225 0.0
C1610 C 0.07239 0.76165 0.9851 0.0
C1611 C 0.07068 0.76306 0.07672 0.0
C1612 C 0.08011 0.7592 0.94464 0.0
C1613 C 0.09208 0.75379 0.95013 0.0
C1614 C 0.07662 0.7586 0.03162 0.0
C1615 C 0.09532 0.75005 0.99692 0.0
C1616 C 0.05836 0.76817 0.07708 0.0
C1617 C 0.07481 0.76873 0.16126 0.0
N1618 N 0.08779 0.7527 0.03568 0.0
N1619 N 0.07825 0.76323 0.11908 0.0
H1620 H 0.23415 0.30791 0.17856 0.0
H1621 H 0.23515 0.35067 0.96991 0.0
H1622 H 0.23158 0.34861 0.25354 0.0
H1623 H 0.24784 0.3931 0.0624 0.0
H1624 H 0.23373 0.3341 0.0404 0.0
H1625 H 0.24021 0.32369 0.10432 0.0
C1626 C 0.23481 0.32019 0.17934 0.0
C1627 C 0.23205 0.32682 0.22226 0.0
C1628 C 0.23722 0.34709 0.04546 0.0
C1629 C 0.23846 0.34487 0.13645 0.0
C1630 C 0.23789 0.35656 0.00497 0.0
C1631 C 0.24153 0.37329 0.01009 0.0
C1632 C 0.24031 0.35444 0.09152 0.0
C1633 C 0.24487 0.38022 0.05658 0.0
C1634 C 0.23812 0.32917 0.1366 0.0
C1635 C 0.23348 0.34294 0.22127 0.0
N1636 N 0.24406 0.37075 0.0954 0.0
N1637 N 0.23644 0.35135 0.17893 0.0
H1638 H 0.88946 0.67601 0.59165 0.0
H1639 H 0.89254 0.67856 0.30262 0.0
H1640 H 0.87997 0.63355 0.50195 0.0
H1641 H 0.90371 0.72141 0.39221 0.0
H1642 H 0.88896 0.66206 0.37546 0.0
H1643 H 0.89576 0.6931 0.51909 0.0
C1644 C 0.88875 0.67027 0.55684 0.0
C1645 C 0.88406 0.65327 0.55309 0.0
C1646 C 0.89226 0.67509 0.37911 0.0
C1647 C 0.89123 0.67277 0.46979 0.0
C1648 C 0.89433 0.68453 0.33748 0.0
C1649 C 0.89833 0.7014 0.3411 0.0
C1650 C 0.89418 0.68255 0.42475 0.0
C1651 C 0.90052 0.70844 0.38743 0.0
C1652 C 0.89235 0.68004 0.51538 0.0
C1653 C 0.88342 0.64657 0.50684 0.0
N1654 N 0.89835 0.69898 0.42731 0.0
N1655 N 0.88689 0.6563 0.46714 0.0
H1656 H 0.35612 0.26924 0.5693 0.0
H1657 H 0.3114 0.25754 0.35898 0.0
H1658 H 0.39705 0.28206 0.47558 0.0
H1659 H 0.35402 0.26155 0.28545 0.0
H1660 H 0.32673 0.26664 0.43304 0.0
H1661 H 0.3393 0.266 0.49897 0.0
C1662 C 0.36163 0.27171 0.53394 0.0
C1663 C 0.37799 0.27575 0.52846 0.0
C1664 C 0.33282 0.26543 0.40119 0.0
C1665 C 0.35879 0.2722 0.44689 0.0
C1666 C 0.32403 0.26031 0.35847 0.0
C1667 C 0.33134 0.25848 0.31596 0.0
C1668 C 0.34908 0.26854 0.40181 0.0
C1669 C 0.34782 0.26265 0.31735 0.0
C1670 C 0.35199 0.26988 0.49338 0.0
C1671 C 0.38444 0.2787 0.48164 0.0
N1672 N 0.35607 0.2673 0.35966 0.0
N1673 N 0.37482 0.27672 0.44284 0.0
H1674 H 0.7165 0.10663 0.46111 0.0
H1675 H 0.74913 0.092 0.25153 0.0
H1676 H 0.75457 0.10069 0.53514 0.0
H1677 H 0.77802 0.07755 0.34479 0.0
H1678 H 0.73578 0.09616 0.32196 0.0
H1679 H 0.72298 0.0962 0.38776 0.0
C1680 C 0.72625 0.10308 0.4619 0.0
C1681 C 0.73516 0.1048 0.50429 0.0
C1682 C 0.74474 0.09172 0.32749 0.0
C1683 C 0.74322 0.09333 0.41909 0.0
C1684 C 0.75244 0.08937 0.28682 0.0
C1685 C 0.76485 0.08455 0.29199 0.0
C1686 C 0.7494 0.08915 0.37396 0.0
C1687 C 0.76865 0.08143 0.33884 0.0
C1688 C 0.7301 0.09724 0.41955 0.0
C1689 C 0.74742 0.09966 0.50331 0.0
N1690 N 0.76109 0.08394 0.37781 0.0
N1691 N 0.75121 0.09438 0.46127 0.0
H1692 H 0.9486 0.39047 0.18117 0.0
H1693 H 0.0221 0.42661 0.36168 0.0
H1694 H 0.99665 0.42296 0.13513 0.0
H1695 H 0.97543 0.38788 0.39821 0.0
H1696 H 0.01443 0.42276 0.27656 0.0
H1697 H 0.95933 0.38645 0.25767 0.0
C1698 C 0.96148 0.39651 0.18694 0.0
C1699 C 0.97176 0.40716 0.15206 0.0
C1700 C 0.00598 0.41491 0.30315 0.0
C1701 C 0.98416 0.40301 0.24025 0.0
C1702 C 0.01036 0.41709 0.35188 0.0
C1703 C 0.99929 0.40779 0.38751 0.0
C1704 C 0.9904 0.40343 0.28994 0.0
C1705 C 0.9843 0.39555 0.37232 0.0
C1706 C 0.96763 0.39424 0.23068 0.0
C1707 C 0.98835 0.41463 0.16116 0.0
N1708 N 0.98023 0.39392 0.32489 0.0
N1709 N 0.99403 0.41268 0.20486 0.0
H1710 H 0.58443 0.58432 0.13681 0.0
H1711 H 0.55842 0.63691 0.31428 0.0
H1712 H 0.58373 0.63033 0.09833 0.0
H1713 H 0.56732 0.59643 0.36361 0.0
H1714 H 0.57105 0.63652 0.23756 0.0
H1715 H 0.58157 0.59005 0.22172 0.0
C1716 C 0.58398 0.59576 0.14616 0.0
C1717 C 0.58401 0.6067 0.11009 0.0
C1718 C 0.57053 0.62787 0.26528 0.0
C1719 C 0.58061 0.61325 0.2072 0.0
C1720 C 0.56333 0.62813 0.30914 0.0
C1721 C 0.56174 0.61662 0.34507 0.0
C1722 C 0.57586 0.61573 0.25667 0.0
C1723 C 0.56836 0.60553 0.33674 0.0
C1724 C 0.58232 0.59901 0.19471 0.0
C1725 C 0.58347 0.62136 0.12459 0.0
N1726 N 0.57485 0.60513 0.29295 0.0
N1727 N 0.58157 0.62407 0.1718 0.0
H1728 H 0.39183 0.02417 0.36969 0.0
H1729 H 0.36871 0.97617 0.11752 0.0
H1730 H 0.36717 0.97121 0.35514 0.0
H1731 H 0.40384 0.02698 0.13247 0.0
H1732 H 0.36269 0.97563 0.20337 0.0
H1733 H 0.39089 0.02664 0.28178 0.0
C1734 C 0.38594 0.01309 0.34813 0.0
C1735 C 0.37978 0.99746 0.36964 0.0
C1736 C 0.37158 0.98695 0.18769 0.0
C1737 C 0.37868 0.00019 0.26945 0.0
C1738 C 0.375 0.98729 0.1386 0.0
C1739 C 0.387 0.00156 0.11779 0.0
C1740 C 0.38016 0.00098 0.21621 0.0
C1741 C 0.39467 0.01562 0.14705 0.0
C1742 C 0.38549 0.01451 0.29801 0.0
C1743 C 0.3723 0.9835 0.33998 0.0
N1744 N 0.39123 0.01492 0.19486 0.0
N1745 N 0.37208 0.9852 0.29143 0.0
H1746 H 0.56138 0.00924 0.93139 0.0
H1747 H 0.56334 0.01105 0.64256 0.0
H1748 H 0.55234 0.96672 0.84252 0.0
H1749 H 0.57572 0.05428 0.73148 0.0
H1750 H 0.56035 0.99478 0.71557 0.0
H1751 H 0.56785 0.02624 0.85861 0.0
C1752 C 0.56085 0.00349 0.89674 0.0
C1753 C 0.55616 0.98648 0.89323 0.0
C1754 C 0.5638 0.00785 0.71902 0.0
C1755 C 0.56348 0.00584 0.80971 0.0
C1756 C 0.56551 0.01715 0.6773 0.0
C1757 C 0.56966 0.03405 0.68071 0.0
C1758 C 0.56621 0.01549 0.76451 0.0
C1759 C 0.57238 0.04127 0.72688 0.0
C1760 C 0.56453 0.01319 0.85515 0.0
C1761 C 0.55575 0.97974 0.84718 0.0
N1762 N 0.57051 0.03195 0.76684 0.0
N1763 N 0.55925 0.9894 0.80734 0.0
H1764 H 0.97084 0.58234 0.68895 0.0
H1765 H 0.05894 0.61723 0.80229 0.0
H1766 H 0.01411 0.59715 0.60436 0.0
H1767 H 0.01567 0.59925 0.88791 0.0
H1768 H 0.0429 0.61363 0.72983 0.0
H1769 H 0.98719 0.59192 0.7615 0.0
C1770 C 0.9838 0.58771 0.68544 0.0
C1771 C 0.99107 0.58872 0.64024 0.0
C1772 C 0.03689 0.6106 0.76442 0.0
C1773 C 0.00992 0.59976 0.72383 0.0
C1774 C 0.04604 0.61266 0.80597 0.0
C1775 C 0.03862 0.6083 0.85138 0.0
C1776 C 0.02011 0.60406 0.76794 0.0
C1777 C 0.0219 0.6027 0.85374 0.0
C1778 C 0.99313 0.5932 0.72707 0.0
C1779 C 0.00794 0.596 0.63828 0.0
N1780 N 0.01318 0.60055 0.81253 0.0
N1781 N 0.01676 0.6011 0.6795 0.0
H1782 H 0.41461 0.42789 0.58011 0.0
H1783 H 0.4149 0.43035 0.86872 0.0
H1784 H 0.44077 0.4089 0.66962 0.0
H1785 H 0.3899 0.45074 0.77944 0.0
H1786 H 0.42116 0.4187 0.79647 0.0
H1787 H 0.40204 0.43249 0.65266 0.0
C1788 C 0.4175 0.4244 0.61483 0.0
C1789 C 0.42896 0.41821 0.61867 0.0
C1790 C 0.41416 0.42558 0.79278 0.0
C1791 C 0.41474 0.42362 0.70202 0.0
C1792 C 0.41053 0.4322 0.83412 0.0
C1793 C 0.40204 0.44176 0.8303 0.0
C1794 C 0.40928 0.42853 0.74719 0.0
C1795 C 0.39667 0.44367 0.78429 0.0
C1796 C 0.41038 0.42712 0.65633 0.0
C1797 C 0.43221 0.41394 0.66481 0.0
N1798 N 0.40051 0.43728 0.74463 0.0
N1799 N 0.42529 0.41689 0.70457 0.0
loop_
_geom_bond_atom_site_label_1
_geom_bond_atom_site_label_2
_geom_bond_distance
_geom_bond_site_symmetry_2
_ccdc_geom_bond_type
Co0 O1 2.216 . S
Co0 O2 2.091 . S
Co0 O4 2.004 . S
Co0 O10 2.021 . S
Co0 O12 2.137 . S
Co0 O13 2.244 . S
O1 Co0 2.216 . S
O1 C8 1.247 . S
O2 Co0 2.091 . S
O2 C8 1.261 . S
C3 O12 1.247 . S
C3 O13 1.272 . S
O4 Co0 2.004 . S
O4 C9 1.259 . S
Co5 O6 2.061 . S
Co5 O11 2.052 . S
Co5 O13 2.135 . S
O6 Co5 2.061 . S
O6 C9 1.235 . S
C7 O10 1.238 . S
C7 O11 1.241 . S
C8 O1 1.247 . S
C8 O2 1.261 . S
C9 O4 1.259 . S
C9 O6 1.235 . S
O10 Co0 2.021 . S
O10 C7 1.238 . S
O11 Co5 2.052 . S
O11 C7 1.241 . S
O12 Co0 2.137 . S
O12 C3 1.247 . S
O13 Co0 2.244 . S
O13 C3 1.272 . S
O13 Co5 2.135 . S
Co14 O15 2.216 . S
Co14 O16 2.091 . S
Co14 O18 2.004 . S
Co14 O24 2.021 . S
Co14 O26 2.137 . S
Co14 O27 2.244 . S
O15 Co14 2.216 . S
O15 C22 1.247 . S
O16 Co14 2.091 . S
O16 C22 1.261 . S
C17 O26 1.247 . S
C17 O27 1.272 . S
O18 Co14 2.004 . S
O18 C23 1.259 . S
Co19 O20 2.061 . S
Co19 O25 2.052 . S
Co19 O27 2.135 . S
O20 Co19 2.061 . S
O20 C23 1.235 . S
C21 O24 1.238 . S
C21 O25 1.241 . S
C22 O15 1.247 . S
C22 O16 1.261 . S
C23 O18 1.259 . S
C23 O20 1.235 . S
O24 Co14 2.021 . S
O24 C21 1.238 . S
O25 Co19 2.052 . S
O25 C21 1.241 . S
O26 Co14 2.137 . S
O26 C17 1.247 . S
O27 Co14 2.244 . S
O27 C17 1.272 . S
O27 Co19 2.135 . S
Co28 O29 2.216 . S
Co28 O30 2.091 . S
Co28 O32 2.004 . S
Co28 O38 2.021 . S
Co28 O40 2.137 . S
Co28 O41 2.244 . S
O29 Co28 2.216 . S
O29 C36 1.247 . S
O30 Co28 2.091 . S
O30 C36 1.261 . S
C31 O40 1.247 . S
C31 O41 1.272 . S
O32 Co28 2.004 . S
O32 C37 1.259 . S
Co33 O34 2.061 . S
Co33 O39 2.052 . S
Co33 O41 2.135 . S
O34 Co33 2.061 . S
O34 C37 1.235 . S
C35 O38 1.238 . S
C35 O39 1.241 . S
C36 O29 1.247 . S
C36 O30 1.261 . S
C37 O32 1.259 . S
C37 O34 1.235 . S
O38 Co28 2.021 . S
O38 C35 1.238 . S
O39 Co33 2.052 . S
O39 C35 1.241 . S
O40 Co28 2.137 . S
O40 C31 1.247 . S
O41 Co28 2.244 . S
O41 C31 1.272 . S
O41 Co33 2.135 . S
Co42 O43 2.216 . S
Co42 O44 2.091 . S
Co42 O46 2.004 . S
Co42 O52 2.021 . S
Co42 O54 2.137 . S
Co42 O55 2.244 . S
O43 Co42 2.216 . S
O43 C50 1.247 . S
O44 Co42 2.091 . S
O44 C50 1.261 . S
C45 O54 1.247 . S
C45 O55 1.272 . S
O46 Co42 2.004 . S
O46 C51 1.259 . S
Co47 O48 2.061 . S
Co47 O53 2.052 . S
Co47 O55 2.135 . S
O48 Co47 2.061 . S
O48 C51 1.235 . S
C49 O52 1.238 . S
C49 O53 1.241 . S
C50 O43 1.247 . S
C50 O44 1.261 . S
C51 O46 1.259 . S
C51 O48 1.235 . S
O52 Co42 2.021 . S
O52 C49 1.238 . S
O53 Co47 2.052 . S
O53 C49 1.241 . S
O54 Co42 2.137 . S
O54 C45 1.247 . S
O55 Co42 2.244 . S
O55 C45 1.272 . S
O55 Co47 2.135 . S
Co56 O57 2.216 . S
Co56 O58 2.091 . S
Co56 O60 2.004 . S
Co56 O66 2.021 . S
Co56 O68 2.137 . S
Co56 O69 2.244 . S
O57 Co56 2.216 . S
O57 C64 1.247 . S
O58 Co56 2.091 . S
O58 C64 1.261 . S
C59 O68 1.247 . S
C59 O69 1.272 . S
O60 Co56 2.004 . S
O60 C65 1.259 . S
Co61 O62 2.061 . S
Co61 O67 2.052 . S
Co61 O69 2.135 . S
O62 Co61 2.061 . S
O62 C65 1.235 . S
C63 O66 1.238 . S
C63 O67 1.241 . S
C64 O57 1.247 . S
C64 O58 1.261 . S
C65 O60 1.259 . S
C65 O62 1.235 . S
O66 Co56 2.021 . S
O66 C63 1.238 . S
O67 Co61 2.052 . S
O67 C63 1.241 . S
O68 Co56 2.137 . S
O68 C59 1.247 . S
O69 Co56 2.244 . S
O69 C59 1.272 . S
O69 Co61 2.135 . S
Co70 O71 2.216 . S
Co70 O72 2.091 . S
Co70 O74 2.004 . S
Co70 O80 2.021 . S
Co70 O82 2.137 . S
Co70 O83 2.244 . S
O71 Co70 2.216 . S
O71 C78 1.247 . S
O72 Co70 2.091 . S
O72 C78 1.261 . S
C73 O82 1.247 . S
C73 O83 1.272 . S
O74 Co70 2.004 . S
O74 C79 1.259 . S
Co75 O76 2.061 . S
Co75 O81 2.052 . S
Co75 O83 2.135 . S
O76 Co75 2.061 . S
O76 C79 1.235 . S
C77 O80 1.238 . S
C77 O81 1.241 . S
C78 O71 1.247 . S
C78 O72 1.261 . S
C79 O74 1.259 . S
C79 O76 1.235 . S
O80 Co70 2.021 . S
O80 C77 1.238 . S
O81 Co75 2.052 . S
O81 C77 1.241 . S
O82 Co70 2.137 . S
O82 C73 1.247 . S
O83 Co70 2.244 . S
O83 C73 1.272 . S
O83 Co75 2.135 . S
Co84 O85 2.216 . S
Co84 O86 2.091 . S
Co84 O88 2.004 . S
Co84 O94 2.021 . S
Co84 O96 2.137 . S
Co84 O97 2.244 . S
O85 Co84 2.216 . S
O85 C92 1.247 . S
O86 Co84 2.091 . S
O86 C92 1.261 . S
C87 O96 1.247 . S
C87 O97 1.272 . S
O88 Co84 2.004 . S
O88 C93 1.259 . S
Co89 O90 2.061 . S
Co89 O95 2.052 . S
Co89 O97 2.135 . S
O90 Co89 2.061 . S
O90 C93 1.235 . S
C91 O94 1.238 . S
C91 O95 1.241 . S
C92 O85 1.247 . S
C92 O86 1.261 . S
C93 O88 1.259 . S
C93 O90 1.235 . S
O94 Co84 2.021 . S
O94 C91 1.238 . S
O95 Co89 2.052 . S
O95 C91 1.241 . S
O96 Co84 2.137 . S
O96 C87 1.247 . S
O97 Co84 2.244 . S
O97 C87 1.272 . S
O97 Co89 2.135 . S
Co98 O99 2.216 . S
Co98 O100 2.091 . S
Co98 O102 2.004 . S
Co98 O108 2.021 . S
Co98 O110 2.137 . S
Co98 O111 2.244 . S
O99 Co98 2.216 . S
O99 C106 1.247 . S
O100 Co98 2.091 . S
O100 C106 1.261 . S
C101 O110 1.247 . S
C101 O111 1.272 . S
O102 Co98 2.004 . S
O102 C107 1.259 . S
Co103 O104 2.061 . S
Co103 O109 2.052 . S
Co103 O111 2.135 . S
O104 Co103 2.061 . S
O104 C107 1.235 . S
C105 O108 1.238 . S
C105 O109 1.241 . S
C106 O99 1.247 . S
C106 O100 1.261 . S
C107 O102 1.259 . S
C107 O104 1.235 . S
O108 Co98 2.021 . S
O108 C105 1.238 . S
O109 Co103 2.052 . S
O109 C105 1.241 . S
O110 Co98 2.137 . S
O110 C101 1.247 . S
O111 Co98 2.244 . S
O111 C101 1.272 . S
O111 Co103 2.135 . S
Co112 O113 2.216 . S
Co112 O114 2.091 . S
Co112 O116 2.004 . S
Co112 O122 2.021 . S
Co112 O124 2.137 . S
Co112 O125 2.244 . S
O113 Co112 2.216 . S
O113 C120 1.247 . S
O114 Co112 2.091 . S
O114 C120 1.261 . S
C115 O124 1.247 . S
C115 O125 1.272 . S
O116 Co112 2.004 . S
O116 C121 1.259 . S
Co117 O118 2.061 . S
Co117 O123 2.052 . S
Co117 O125 2.135 . S
O118 Co117 2.061 . S
O118 C121 1.235 . S
C119 O122 1.238 . S
C119 O123 1.241 . S
C120 O113 1.247 . S
C120 O114 1.261 . S
C121 O116 1.259 . S
C121 O118 1.235 . S
O122 Co112 2.021 . S
O122 C119 1.238 . S
O123 Co117 2.052 . S
O123 C119 1.241 . S
O124 Co112 2.137 . S
O124 C115 1.247 . S
O125 Co112 2.244 . S
O125 C115 1.272 . S
O125 Co117 2.135 . S
Co126 O127 2.216 . S
Co126 O128 2.091 . S
Co126 O130 2.004 . S
Co126 O136 2.021 . S
Co126 O138 2.137 . S
Co126 O139 2.244 . S
O127 Co126 2.216 . S
O127 C134 1.247 . S
O128 Co126 2.091 . S
O128 C134 1.261 . S
C129 O138 1.247 . S
C129 O139 1.272 . S
O130 Co126 2.004 . S
O130 C135 1.259 . S
Co131 O132 2.061 . S
Co131 O137 2.052 . S
Co131 O139 2.135 . S
O132 Co131 2.061 . S
O132 C135 1.235 . S
C133 O136 1.238 . S
C133 O137 1.241 . S
C134 O127 1.247 . S
C134 O128 1.261 . S
C135 O130 1.259 . S
C135 O132 1.235 . S
O136 Co126 2.021 . S
O136 C133 1.238 . S
O137 Co131 2.052 . S
O137 C133 1.241 . S
O138 Co126 2.137 . S
O138 C129 1.247 . S
O139 Co126 2.244 . S
O139 C129 1.272 . S
O139 Co131 2.135 . S
Co140 O141 2.216 . S
Co140 O142 2.091 . S
Co140 O144 2.004 . S
Co140 O150 2.021 . S
Co140 O152 2.137 . S
Co140 O153 2.244 . S
O141 Co140 2.216 . S
O141 C148 1.247 . S
O142 Co140 2.091 . S
O142 C148 1.261 . S
C143 O152 1.247 . S
C143 O153 1.272 . S
O144 Co140 2.004 . S
O144 C149 1.259 . S
Co145 O146 2.061 . S
Co145 O151 2.052 . S
Co145 O153 2.135 . S
O146 Co145 2.061 . S
O146 C149 1.235 . S
C147 O150 1.238 . S
C147 O151 1.241 . S
C148 O141 1.247 . S
C148 O142 1.261 . S
C149 O144 1.259 . S
C149 O146 1.235 . S
O150 Co140 2.021 . S
O150 C147 1.238 . S
O151 Co145 2.052 . S
O151 C147 1.241 . S
O152 Co140 2.137 . S
O152 C143 1.247 . S
O153 Co140 2.244 . S
O153 C143 1.272 . S
O153 Co145 2.135 . S
Co154 O155 2.216 . S
Co154 O156 2.091 . S
Co154 O158 2.004 . S
Co154 O164 2.021 . S
Co154 O166 2.137 . S
Co154 O167 2.244 . S
O155 Co154 2.216 . S
O155 C162 1.247 . S
O156 Co154 2.091 . S
O156 C162 1.261 . S
C157 O166 1.247 . S
C157 O167 1.272 . S
O158 Co154 2.004 . S
O158 C163 1.259 . S
Co159 O160 2.061 . S
Co159 O165 2.052 . S
Co159 O167 2.135 . S
O160 Co159 2.061 . S
O160 C163 1.235 . S
C161 O164 1.238 . S
C161 O165 1.241 . S
C162 O155 1.247 . S
C162 O156 1.261 . S
C163 O158 1.259 . S
C163 O160 1.235 . S
O164 Co154 2.021 . S
O164 C161 1.238 . S
O165 Co159 2.052 . S
O165 C161 1.241 . S
O166 Co154 2.137 . S
O166 C157 1.247 . S
O167 Co154 2.244 . S
O167 C157 1.272 . S
O167 Co159 2.135 . S
Co168 O169 2.216 . S
Co168 O170 2.091 . S
Co168 O172 2.004 . S
Co168 O178 2.021 1_455 S
Co168 O180 2.137 . S
Co168 O181 2.244 1_455 S
O169 Co168 2.216 . S
O169 C176 1.247 . S
O170 Co168 2.091 . S
O170 C176 1.261 . S
C171 O180 1.247 1_655 S
C171 O181 1.272 . S
O172 Co168 2.004 . S
O172 C177 1.259 . S
Co173 O174 2.061 . S
Co173 O179 2.052 . S
Co173 O181 2.135 . S
O174 Co173 2.061 . S
O174 C177 1.235 1_655 S
C175 O178 1.238 . S
C175 O179 1.241 . S
C176 O169 1.247 . S
C176 O170 1.261 . S
C177 O172 1.259 . S
C177 O174 1.235 1_455 S
O178 Co168 2.021 1_655 S
O178 C175 1.238 . S
O179 Co173 2.052 . S
O179 C175 1.241 . S
O180 Co168 2.137 . S
O180 C171 1.247 1_455 S
O181 Co168 2.244 1_655 S
O181 C171 1.272 . S
O181 Co173 2.135 . S
Co182 O183 2.216 . S
Co182 O184 2.091 . S
Co182 O186 2.004 . S
Co182 O192 2.021 . S
Co182 O194 2.137 . S
Co182 O195 2.244 . S
O183 Co182 2.216 . S
O183 C190 1.247 . S
O184 Co182 2.091 . S
O184 C190 1.261 . S
C185 O194 1.247 . S
C185 O195 1.272 . S
O186 Co182 2.004 . S
O186 C191 1.259 . S
Co187 O188 2.061 . S
Co187 O193 2.052 . S
Co187 O195 2.135 . S
O188 Co187 2.061 . S
O188 C191 1.235 . S
C189 O192 1.238 . S
C189 O193 1.241 . S
C190 O183 1.247 . S
C190 O184 1.261 . S
C191 O186 1.259 . S
C191 O188 1.235 . S
O192 Co182 2.021 . S
O192 C189 1.238 . S
O193 Co187 2.052 . S
O193 C189 1.241 . S
O194 Co182 2.137 . S
O194 C185 1.247 . S
O195 Co182 2.244 . S
O195 C185 1.272 . S
O195 Co187 2.135 . S
Co196 O197 2.216 . S
Co196 O198 2.091 . S
Co196 O200 2.004 . S
Co196 O206 2.021 . S
Co196 O208 2.137 . S
Co196 O209 2.244 . S
O197 Co196 2.216 . S
O197 C204 1.247 . S
O198 Co196 2.091 . S
O198 C204 1.261 . S
C199 O208 1.247 . S
C199 O209 1.272 . S
O200 Co196 2.004 . S
O200 C205 1.259 . S
Co201 O202 2.061 . S
Co201 O207 2.052 . S
Co201 O209 2.135 . S
O202 Co201 2.061 . S
O202 C205 1.235 . S
C203 O206 1.238 . S
C203 O207 1.241 . S
C204 O197 1.247 . S
C204 O198 1.261 . S
C205 O200 1.259 . S
C205 O202 1.235 . S
O206 Co196 2.021 . S
O206 C203 1.238 . S
O207 Co201 2.052 . S
O207 C203 1.241 . S
O208 Co196 2.137 . S
O208 C199 1.247 . S
O209 Co196 2.244 . S
O209 C199 1.272 . S
O209 Co201 2.135 . S
Co210 O211 2.216 . S
Co210 O212 2.091 . S
Co210 O214 2.004 . S
Co210 O220 2.021 . S
Co210 O222 2.137 . S
Co210 O223 2.244 . S
O211 Co210 2.216 . S
O211 C218 1.247 . S
O212 Co210 2.091 . S
O212 C218 1.261 . S
C213 O222 1.247 . S
C213 O223 1.272 . S
O214 Co210 2.004 . S
O214 C219 1.259 . S
Co215 O216 2.061 . S
Co215 O221 2.052 . S
Co215 O223 2.135 . S
O216 Co215 2.061 . S
O216 C219 1.235 . S
C217 O220 1.238 . S
C217 O221 1.241 . S
C218 O211 1.247 . S
C218 O212 1.261 . S
C219 O214 1.259 . S
C219 O216 1.235 . S
O220 Co210 2.021 . S
O220 C217 1.238 . S
O221 Co215 2.052 . S
O221 C217 1.241 . S
O222 Co210 2.137 . S
O222 C213 1.247 . S
O223 Co210 2.244 . S
O223 C213 1.272 . S
O223 Co215 2.135 . S
Co224 O225 2.216 . S
Co224 O226 2.091 . S
Co224 O228 2.004 . S
Co224 O234 2.021 . S
Co224 O236 2.137 . S
Co224 O237 2.244 . S
O225 Co224 2.216 . S
O225 C232 1.247 . S
O226 Co224 2.091 . S
O226 C232 1.261 . S
C227 O236 1.247 . S
C227 O237 1.272 . S
O228 Co224 2.004 . S
O228 C233 1.259 . S
Co229 O230 2.061 . S
Co229 O235 2.052 . S
Co229 O237 2.135 . S
O230 Co229 2.061 . S
O230 C233 1.235 . S
C231 O234 1.238 . S
C231 O235 1.241 . S
C232 O225 1.247 . S
C232 O226 1.261 . S
C233 O228 1.259 . S
C233 O230 1.235 . S
O234 Co224 2.021 . S
O234 C231 1.238 . S
O235 Co229 2.052 . S
O235 C231 1.241 . S
O236 Co224 2.137 . S
O236 C227 1.247 . S
O237 Co224 2.244 . S
O237 C227 1.272 . S
O237 Co229 2.135 . S
Co238 O239 2.216 . S
Co238 O240 2.091 . S
Co238 O242 2.004 . S
Co238 O248 2.021 . S
Co238 O250 2.137 . S
Co238 O251 2.244 . S
O239 Co238 2.216 . S
O239 C246 1.247 . S
O240 Co238 2.091 . S
O240 C246 1.261 . S
C241 O250 1.247 . S
C241 O251 1.272 . S
O242 Co238 2.004 . S
O242 C247 1.259 . S
Co243 O244 2.061 . S
Co243 O249 2.052 . S
Co243 O251 2.135 . S
O244 Co243 2.061 . S
O244 C247 1.235 . S
C245 O248 1.238 . S
C245 O249 1.241 . S
C246 O239 1.247 . S
C246 O240 1.261 . S
C247 O242 1.259 . S
C247 O244 1.235 . S
O248 Co238 2.021 . S
O248 C245 1.238 . S
O249 Co243 2.052 . S
O249 C245 1.241 . S
O250 Co238 2.137 . S
O250 C241 1.247 . S
O251 Co238 2.244 . S
O251 C241 1.272 . S
O251 Co243 2.135 . S
Co252 O253 2.216 . S
Co252 O254 2.091 . S
Co252 O256 2.004 . S
Co252 O262 2.021 . S
Co252 O264 2.137 . S
Co252 O265 2.244 . S
O253 Co252 2.216 . S
O253 C260 1.247 . S
O254 Co252 2.091 . S
O254 C260 1.261 . S
C255 O264 1.247 . S
C255 O265 1.272 . S
O256 Co252 2.004 . S
O256 C261 1.259 . S
Co257 O258 2.061 . S
Co257 O263 2.052 . S
Co257 O265 2.135 . S
O258 Co257 2.061 . S
O258 C261 1.235 . S
C259 O262 1.238 . S
C259 O263 1.241 . S
C260 O253 1.247 . S
C260 O254 1.261 . S
C261 O256 1.259 . S
C261 O258 1.235 . S
O262 Co252 2.021 . S
O262 C259 1.238 . S
O263 Co257 2.052 . S
O263 C259 1.241 . S
O264 Co252 2.137 . S
O264 C255 1.247 . S
O265 Co252 2.244 . S
O265 C255 1.272 . S
O265 Co257 2.135 . S
Co266 O267 2.216 . S
Co266 O268 2.091 . S
Co266 O270 2.004 . S
Co266 O276 2.021 . S
Co266 O278 2.137 . S
Co266 O279 2.244 . S
O267 Co266 2.216 . S
O267 C274 1.247 . S
O268 Co266 2.091 . S
O268 C274 1.261 . S
C269 O278 1.247 . S
C269 O279 1.272 . S
O270 Co266 2.004 . S
O270 C275 1.259 . S
Co271 O272 2.061 . S
Co271 O277 2.052 . S
Co271 O279 2.135 . S
O272 Co271 2.061 . S
O272 C275 1.235 . S
C273 O276 1.238 . S
C273 O277 1.241 . S
C274 O267 1.247 . S
C274 O268 1.261 . S
C275 O270 1.259 . S
C275 O272 1.235 . S
O276 Co266 2.021 . S
O276 C273 1.238 . S
O277 Co271 2.052 . S
O277 C273 1.241 . S
O278 Co266 2.137 . S
O278 C269 1.247 . S
O279 Co266 2.244 . S
O279 C269 1.272 . S
O279 Co271 2.135 . S
Co280 O281 2.216 . S
Co280 O282 2.091 . S
Co280 O284 2.004 . S
Co280 O290 2.021 . S
Co280 O292 2.137 . S
Co280 O293 2.244 . S
O281 Co280 2.216 . S
O281 C288 1.247 . S
O282 Co280 2.091 . S
O282 C288 1.261 . S
C283 O292 1.247 . S
C283 O293 1.272 . S
O284 Co280 2.004 . S
O284 C289 1.259 . S
Co285 O286 2.061 . S
Co285 O291 2.052 . S
Co285 O293 2.135 . S
O286 Co285 2.061 . S
O286 C289 1.235 . S
C287 O290 1.238 . S
C287 O291 1.241 . S
C288 O281 1.247 . S
C288 O282 1.261 . S
C289 O284 1.259 . S
C289 O286 1.235 . S
O290 Co280 2.021 . S
O290 C287 1.238 . S
O291 Co285 2.052 . S
O291 C287 1.241 . S
O292 Co280 2.137 . S
O292 C283 1.247 . S
O293 Co280 2.244 . S
O293 C283 1.272 . S
O293 Co285 2.135 . S
Co294 O295 2.216 1_545 S
Co294 O296 2.091 . S
Co294 O298 2.004 1_554 S
Co294 O304 2.021 . S
Co294 O306 2.137 1_545 S
Co294 O307 2.244 1_544 S
O295 Co294 2.216 1_565 S
O295 C302 1.247 1_565 S
O296 Co294 2.091 . S
O296 C302 1.261 . S
C297 O306 1.247 1_556 S
C297 O307 1.272 . S
O298 Co294 2.004 1_556 S
O298 C303 1.259 . S
Co299 O300 2.061 . S
Co299 O305 2.052 . S
Co299 O307 2.135 . S
O300 Co299 2.061 . S
O300 C303 1.235 1_565 S
C301 O304 1.238 1_566 S
C301 O305 1.241 . S
C302 O295 1.247 1_545 S
C302 O296 1.261 . S
C303 O298 1.259 . S
C303 O300 1.235 1_545 S
O304 Co294 2.021 . S
O304 C301 1.238 1_544 S
O305 Co299 2.052 . S
O305 C301 1.241 . S
O306 Co294 2.137 1_565 S
O306 C297 1.247 1_554 S
O307 Co294 2.244 1_566 S
O307 C297 1.272 . S
O307 Co299 2.135 . S
Co308 O309 2.216 . S
Co308 O310 2.091 . S
Co308 O312 2.004 1_554 S
Co308 O318 2.021 . S
Co308 O320 2.137 . S
Co308 O321 2.244 1_554 S
O309 Co308 2.216 . S
O309 C316 1.247 . S
O310 Co308 2.091 . S
O310 C316 1.261 . S
C311 O320 1.247 1_556 S
C311 O321 1.272 . S
O312 Co308 2.004 1_556 S
O312 C317 1.259 . S
Co313 O314 2.061 . S
Co313 O319 2.052 . S
Co313 O321 2.135 . S
O314 Co313 2.061 . S
O314 C317 1.235 . S
C315 O318 1.238 1_556 S
C315 O319 1.241 . S
C316 O309 1.247 . S
C316 O310 1.261 . S
C317 O312 1.259 . S
C317 O314 1.235 . S
O318 Co308 2.021 . S
O318 C315 1.238 1_554 S
O319 Co313 2.052 . S
O319 C315 1.241 . S
O320 Co308 2.137 . S
O320 C311 1.247 1_554 S
O321 Co308 2.244 1_556 S
O321 C311 1.272 . S
O321 Co313 2.135 . S
Co322 O323 2.216 . S
Co322 O324 2.091 . S
Co322 O326 2.004 1_554 S
Co322 O332 2.021 . S
Co322 O334 2.137 . S
Co322 O335 2.244 1_554 S
O323 Co322 2.216 . S
O323 C330 1.247 . S
O324 Co322 2.091 . S
O324 C330 1.261 . S
C325 O334 1.247 1_556 S
C325 O335 1.272 . S
O326 Co322 2.004 1_556 S
O326 C331 1.259 . S
Co327 O328 2.061 . S
Co327 O333 2.052 . S
Co327 O335 2.135 . S
O328 Co327 2.061 . S
O328 C331 1.235 . S
C329 O332 1.238 1_556 S
C329 O333 1.241 . S
C330 O323 1.247 . S
C330 O324 1.261 . S
C331 O326 1.259 . S
C331 O328 1.235 . S
O332 Co322 2.021 . S
O332 C329 1.238 1_554 S
O333 Co327 2.052 . S
O333 C329 1.241 . S
O334 Co322 2.137 . S
O334 C325 1.247 1_554 S
O335 Co322 2.244 1_556 S
O335 C325 1.272 . S
O335 Co327 2.135 . S
Co336 O337 2.216 . S
Co336 O338 2.091 . S
Co336 O340 2.004 . S
Co336 O346 2.021 . S
Co336 O348 2.137 . S
Co336 O349 2.244 . S
O337 Co336 2.216 . S
O337 C344 1.247 . S
O338 Co336 2.091 . S
O338 C344 1.261 . S
C339 O348 1.247 . S
C339 O349 1.272 . S
O340 Co336 2.004 . S
O340 C345 1.259 . S
Co341 O342 2.061 . S
Co341 O347 2.052 . S
Co341 O349 2.135 . S
O342 Co341 2.061 . S
O342 C345 1.235 . S
C343 O346 1.238 . S
C343 O347 1.241 . S
C344 O337 1.247 . S
C344 O338 1.261 . S
C345 O340 1.259 . S
C345 O342 1.235 . S
O346 Co336 2.021 . S
O346 C343 1.238 . S
O347 Co341 2.052 . S
O347 C343 1.241 . S
O348 Co336 2.137 . S
O348 C339 1.247 . S
O349 Co336 2.244 . S
O349 C339 1.272 . S
O349 Co341 2.135 . S
Co350 O351 2.216 . S
Co350 O352 2.091 . S
Co350 O354 2.004 . S
Co350 O360 2.021 . S
Co350 O362 2.137 . S
Co350 O363 2.244 . S
O351 Co350 2.216 . S
O351 C358 1.247 . S
O352 Co350 2.091 . S
O352 C358 1.261 . S
C353 O362 1.247 . S
C353 O363 1.272 . S
O354 Co350 2.004 . S
O354 C359 1.259 . S
Co355 O356 2.061 . S
Co355 O361 2.052 . S
Co355 O363 2.135 . S
O356 Co355 2.061 . S
O356 C359 1.235 . S
C357 O360 1.238 . S
C357 O361 1.241 . S
C358 O351 1.247 . S
C358 O352 1.261 . S
C359 O354 1.259 . S
C359 O356 1.235 . S
O360 Co350 2.021 . S
O360 C357 1.238 . S
O361 Co355 2.052 . S
O361 C357 1.241 . S
O362 Co350 2.137 . S
O362 C353 1.247 . S
O363 Co350 2.244 . S
O363 C353 1.272 . S
O363 Co355 2.135 . S
Co364 O365 2.216 . S
Co364 O366 2.091 . S
Co364 O368 2.004 . S
Co364 O374 2.021 . S
Co364 O376 2.137 . S
Co364 O377 2.244 . S
O365 Co364 2.216 . S
O365 C372 1.247 . S
O366 Co364 2.091 . S
O366 C372 1.261 . S
C367 O376 1.247 . S
C367 O377 1.272 . S
O368 Co364 2.004 . S
O368 C373 1.259 . S
Co369 O370 2.061 . S
Co369 O375 2.052 . S
Co369 O377 2.135 . S
O370 Co369 2.061 . S
O370 C373 1.235 . S
C371 O374 1.238 . S
C371 O375 1.241 . S
C372 O365 1.247 . S
C372 O366 1.261 . S
C373 O368 1.259 . S
C373 O370 1.235 . S
O374 Co364 2.021 . S
O374 C371 1.238 . S
O375 Co369 2.052 . S
O375 C371 1.241 . S
O376 Co364 2.137 . S
O376 C367 1.247 . S
O377 Co364 2.244 . S
O377 C367 1.272 . S
O377 Co369 2.135 . S
Co378 O379 2.216 1_556 S
Co378 O380 2.091 1_556 S
Co378 O382 2.004 . S
Co378 O388 2.021 1_546 S
Co378 O390 2.137 . S
Co378 O391 2.244 1_545 S
O379 Co378 2.216 1_554 S
O379 C386 1.247 . S
O380 Co378 2.091 1_554 S
O380 C386 1.261 . S
C381 O390 1.247 1_565 S
C381 O391 1.272 . S
O382 Co378 2.004 . S
O382 C387 1.259 . S
Co383 O384 2.061 . S
Co383 O389 2.052 1_556 S
Co383 O391 2.135 . S
O384 Co383 2.061 . S
O384 C387 1.235 1_565 S
C385 O388 1.238 . S
C385 O389 1.241 . S
C386 O379 1.247 . S
C386 O380 1.261 . S
C387 O382 1.259 . S
C387 O384 1.235 1_545 S
O388 Co378 2.021 1_564 S
O388 C385 1.238 . S
O389 Co383 2.052 1_554 S
O389 C385 1.241 . S
O390 Co378 2.137 . S
O390 C381 1.247 1_545 S
O391 Co378 2.244 1_565 S
O391 C381 1.272 . S
O391 Co383 2.135 . S
Co392 O393 2.216 . S
Co392 O394 2.091 . S
Co392 O396 2.004 1_556 S
Co392 O402 2.021 . S
Co392 O404 2.137 . S
Co392 O405 2.244 1_556 S
O393 Co392 2.216 . S
O393 C400 1.247 . S
O394 Co392 2.091 . S
O394 C400 1.261 . S
C395 O404 1.247 1_554 S
C395 O405 1.272 . S
O396 Co392 2.004 1_554 S
O396 C401 1.259 . S
Co397 O398 2.061 . S
Co397 O403 2.052 . S
Co397 O405 2.135 . S
O398 Co397 2.061 . S
O398 C401 1.235 . S
C399 O402 1.238 1_554 S
C399 O403 1.241 . S
C400 O393 1.247 . S
C400 O394 1.261 . S
C401 O396 1.259 . S
C401 O398 1.235 . S
O402 Co392 2.021 . S
O402 C399 1.238 1_556 S
O403 Co397 2.052 . S
O403 C399 1.241 . S
O404 Co392 2.137 . S
O404 C395 1.247 1_556 S
O405 Co392 2.244 1_554 S
O405 C395 1.272 . S
O405 Co397 2.135 . S
Co406 O407 2.216 1_556 S
Co406 O408 2.091 1_556 S
Co406 O410 2.004 . S
Co406 O416 2.021 1_556 S
Co406 O418 2.137 . S
Co406 O419 2.244 . S
O407 Co406 2.216 1_554 S
O407 C414 1.247 . S
O408 Co406 2.091 1_554 S
O408 C414 1.261 . S
C409 O418 1.247 . S
C409 O419 1.272 . S
O410 Co406 2.004 . S
O410 C415 1.259 . S
Co411 O412 2.061 . S
Co411 O417 2.052 1_556 S
Co411 O419 2.135 . S
O412 Co411 2.061 . S
O412 C415 1.235 . S
C413 O416 1.238 . S
C413 O417 1.241 . S
C414 O407 1.247 . S
C414 O408 1.261 . S
C415 O410 1.259 . S
C415 O412 1.235 . S
O416 Co406 2.021 1_554 S
O416 C413 1.238 . S
O417 Co411 2.052 1_554 S
O417 C413 1.241 . S
O418 Co406 2.137 . S
O418 C409 1.247 . S
O419 Co406 2.244 . S
O419 C409 1.272 . S
O419 Co411 2.135 . S
Co420 O421 2.216 1_455 S
Co420 O422 2.091 . S
Co420 O424 2.004 . S
Co420 O430 2.021 . S
Co420 O432 2.137 1_455 S
Co420 O433 2.244 1_455 S
O421 Co420 2.216 1_655 S
O421 C428 1.247 1_655 S
O422 Co420 2.091 . S
O422 C428 1.261 . S
C423 O432 1.247 . S
C423 O433 1.272 . S
O424 Co420 2.004 . S
O424 C429 1.259 . S
Co425 O426 2.061 . S
Co425 O431 2.052 . S
Co425 O433 2.135 . S
O426 Co425 2.061 . S
O426 C429 1.235 1_655 S
C427 O430 1.238 1_655 S
C427 O431 1.241 . S
C428 O421 1.247 1_455 S
C428 O422 1.261 . S
C429 O424 1.259 . S
C429 O426 1.235 1_455 S
O430 Co420 2.021 . S
O430 C427 1.238 1_455 S
O431 Co425 2.052 . S
O431 C427 1.241 . S
O432 Co420 2.137 1_655 S
O432 C423 1.247 . S
O433 Co420 2.244 1_655 S
O433 C423 1.272 . S
O433 Co425 2.135 . S
Co434 O435 2.216 . S
Co434 O436 2.091 . S
Co434 O438 2.004 . S
Co434 O444 2.021 . S
Co434 O446 2.137 . S
Co434 O447 2.244 . S
O435 Co434 2.216 . S
O435 C442 1.247 . S
O436 Co434 2.091 . S
O436 C442 1.261 . S
C437 O446 1.247 . S
C437 O447 1.272 . S
O438 Co434 2.004 . S
O438 C443 1.259 . S
Co439 O440 2.061 . S
Co439 O445 2.052 . S
Co439 O447 2.135 . S
O440 Co439 2.061 . S
O440 C443 1.235 . S
C441 O444 1.238 . S
C441 O445 1.241 . S
C442 O435 1.247 . S
C442 O436 1.261 . S
C443 O438 1.259 . S
C443 O440 1.235 . S
O444 Co434 2.021 . S
O444 C441 1.238 . S
O445 Co439 2.052 . S
O445 C441 1.241 . S
O446 Co434 2.137 . S
O446 C437 1.247 . S
O447 Co434 2.244 . S
O447 C437 1.272 . S
O447 Co439 2.135 . S
Co448 O449 2.216 . S
Co448 O450 2.091 . S
Co448 O452 2.004 . S
Co448 O458 2.021 . S
Co448 O460 2.137 . S
Co448 O461 2.244 . S
O449 Co448 2.216 . S
O449 C456 1.247 . S
O450 Co448 2.091 . S
O450 C456 1.261 . S
C451 O460 1.247 . S
C451 O461 1.272 . S
O452 Co448 2.004 . S
O452 C457 1.259 . S
Co453 O454 2.061 . S
Co453 O459 2.052 . S
Co453 O461 2.135 . S
O454 Co453 2.061 . S
O454 C457 1.235 . S
C455 O458 1.238 . S
C455 O459 1.241 . S
C456 O449 1.247 . S
C456 O450 1.261 . S
C457 O452 1.259 . S
C457 O454 1.235 . S
O458 Co448 2.021 . S
O458 C455 1.238 . S
O459 Co453 2.052 . S
O459 C455 1.241 . S
O460 Co448 2.137 . S
O460 C451 1.247 . S
O461 Co448 2.244 . S
O461 C451 1.272 . S
O461 Co453 2.135 . S
Co462 O463 2.216 . S
Co462 O464 2.091 . S
Co462 O466 2.004 . S
Co462 O472 2.021 . S
Co462 O474 2.137 . S
Co462 O475 2.244 . S
O463 Co462 2.216 . S
O463 C470 1.247 . S
O464 Co462 2.091 . S
O464 C470 1.261 . S
C465 O474 1.247 . S
C465 O475 1.272 . S
O466 Co462 2.004 . S
O466 C471 1.259 . S
Co467 O468 2.061 . S
Co467 O473 2.052 . S
Co467 O475 2.135 . S
O468 Co467 2.061 . S
O468 C471 1.235 . S
C469 O472 1.238 . S
C469 O473 1.241 . S
C470 O463 1.247 . S
C470 O464 1.261 . S
C471 O466 1.259 . S
C471 O468 1.235 . S
O472 Co462 2.021 . S
O472 C469 1.238 . S
O473 Co467 2.052 . S
O473 C469 1.241 . S
O474 Co462 2.137 . S
O474 C465 1.247 . S
O475 Co462 2.244 . S
O475 C465 1.272 . S
O475 Co467 2.135 . S
Co476 O477 2.216 . S
Co476 O478 2.091 . S
Co476 O480 2.004 . S
Co476 O486 2.021 . S
Co476 O488 2.137 . S
Co476 O489 2.244 . S
O477 Co476 2.216 . S
O477 C484 1.247 . S
O478 Co476 2.091 . S
O478 C484 1.261 . S
C479 O488 1.247 . S
C479 O489 1.272 . S
O480 Co476 2.004 . S
O480 C485 1.259 . S
Co481 O482 2.061 . S
Co481 O487 2.052 . S
Co481 O489 2.135 . S
O482 Co481 2.061 . S
O482 C485 1.235 . S
C483 O486 1.238 . S
C483 O487 1.241 . S
C484 O477 1.247 . S
C484 O478 1.261 . S
C485 O480 1.259 . S
C485 O482 1.235 . S
O486 Co476 2.021 . S
O486 C483 1.238 . S
O487 Co481 2.052 . S
O487 C483 1.241 . S
O488 Co476 2.137 . S
O488 C479 1.247 . S
O489 Co476 2.244 . S
O489 C479 1.272 . S
O489 Co481 2.135 . S
Co490 O491 2.216 . S
Co490 O492 2.091 . S
Co490 O494 2.004 . S
Co490 O500 2.021 . S
Co490 O502 2.137 . S
Co490 O503 2.244 . S
O491 Co490 2.216 . S
O491 C498 1.247 . S
O492 Co490 2.091 . S
O492 C498 1.261 . S
C493 O502 1.247 . S
C493 O503 1.272 . S
O494 Co490 2.004 . S
O494 C499 1.259 . S
Co495 O496 2.061 . S
Co495 O501 2.052 . S
Co495 O503 2.135 . S
O496 Co495 2.061 . S
O496 C499 1.235 . S
C497 O500 1.238 . S
C497 O501 1.241 . S
C498 O491 1.247 . S
C498 O492 1.261 . S
C499 O494 1.259 . S
C499 O496 1.235 . S
O500 Co490 2.021 . S
O500 C497 1.238 . S
O501 Co495 2.052 . S
O501 C497 1.241 . S
O502 Co490 2.137 . S
O502 C493 1.247 . S
O503 Co490 2.244 . S
O503 C493 1.272 . S
O503 Co495 2.135 . S
H504 C510 0.930 . S
H505 C514 0.930 . S
H506 C519 0.929 . S
H507 C517 0.929 . S
H508 C512 0.929 . S
H509 C518 0.929 . S
C510 H504 0.930 . S
C510 C511 1.367 . S
C510 C518 1.378 . S
C511 C510 1.367 . S
C511 C519 1.433 . S
C512 H508 0.929 . S
C512 C514 1.378 . S
C512 C516 1.350 . S
C513 C516 1.463 . S
C513 C518 1.350 . S
C513 N521 1.427 . S
C514 H505 0.930 . S
C514 C512 1.378 . S
C514 C515 1.367 . S
C515 C514 1.367 . S
C515 C517 1.433 . S
C516 C512 1.350 . S
C516 C513 1.463 . S
C516 N520 1.427 . S
C517 H507 0.929 . S
C517 C515 1.433 . S
C517 N520 1.384 . S
C518 H509 0.929 . S
C518 C510 1.378 . S
C518 C513 1.350 . S
C519 H506 0.929 . S
C519 C511 1.433 . S
C519 N521 1.384 . S
N520 C516 1.427 . S
N520 C517 1.384 . S
N521 C513 1.427 . S
N521 C519 1.384 . S
H522 C528 0.930 . S
H523 C532 0.930 . S
H524 C537 0.929 . S
H525 C535 0.929 . S
H526 C530 0.929 . S
H527 C536 0.929 . S
C528 H522 0.930 . S
C528 C529 1.367 . S
C528 C536 1.378 . S
C529 C528 1.367 . S
C529 C537 1.433 . S
C530 H526 0.929 . S
C530 C532 1.378 . S
C530 C534 1.350 . S
C531 C534 1.463 . S
C531 C536 1.350 . S
C531 N539 1.427 . S
C532 H523 0.930 . S
C532 C530 1.378 . S
C532 C533 1.367 . S
C533 C532 1.367 . S
C533 C535 1.433 . S
C534 C530 1.350 . S
C534 C531 1.463 . S
C534 N538 1.427 . S
C535 H525 0.929 . S
C535 C533 1.433 . S
C535 N538 1.384 . S
C536 H527 0.929 . S
C536 C528 1.378 . S
C536 C531 1.350 . S
C537 H524 0.929 . S
C537 C529 1.433 . S
C537 N539 1.384 . S
N538 C534 1.427 . S
N538 C535 1.384 . S
N539 C531 1.427 . S
N539 C537 1.384 . S
H540 C546 0.930 . S
H541 C550 0.930 . S
H542 C555 0.929 . S
H543 C553 0.929 . S
H544 C548 0.929 . S
H545 C554 0.929 . S
C546 H540 0.930 . S
C546 C547 1.367 . S
C546 C554 1.378 . S
C547 C546 1.367 . S
C547 C555 1.433 . S
C548 H544 0.929 . S
C548 C550 1.378 . S
C548 C552 1.350 . S
C549 C552 1.463 . S
C549 C554 1.350 . S
C549 N557 1.427 . S
C550 H541 0.930 . S
C550 C548 1.378 . S
C550 C551 1.367 . S
C551 C550 1.367 . S
C551 C553 1.433 . S
C552 C548 1.350 . S
C552 C549 1.463 . S
C552 N556 1.427 . S
C553 H543 0.929 . S
C553 C551 1.433 . S
C553 N556 1.384 . S
C554 H545 0.929 . S
C554 C546 1.378 . S
C554 C549 1.350 . S
C555 H542 0.929 . S
C555 C547 1.433 . S
C555 N557 1.384 . S
N556 C552 1.427 . S
N556 C553 1.384 . S
N557 C549 1.427 . S
N557 C555 1.384 . S
H558 C564 0.930 . S
H559 C568 0.930 . S
H560 C573 0.929 . S
H561 C571 0.929 . S
H562 C566 0.929 . S
H563 C572 0.929 . S
C564 H558 0.930 . S
C564 C565 1.367 . S
C564 C572 1.378 1_556 S
C565 C564 1.367 . S
C565 C573 1.433 . S
C566 H562 0.929 . S
C566 C568 1.378 . S
C566 C570 1.350 . S
C567 C570 1.463 . S
C567 C572 1.350 . S
C567 N575 1.427 . S
C568 H559 0.930 . S
C568 C566 1.378 . S
C568 C569 1.367 . S
C569 C568 1.367 . S
C569 C571 1.433 . S
C570 C566 1.350 . S
C570 C567 1.463 . S
C570 N574 1.427 . S
C571 H561 0.929 . S
C571 C569 1.433 . S
C571 N574 1.384 . S
C572 H563 0.929 . S
C572 C564 1.378 1_554 S
C572 C567 1.350 . S
C573 H560 0.929 . S
C573 C565 1.433 . S
C573 N575 1.384 1_556 S
N574 C570 1.427 . S
N574 C571 1.384 . S
N575 C567 1.427 . S
N575 C573 1.384 1_554 S
H576 C582 0.930 . S
H577 C586 0.930 . S
H578 C591 0.929 . S
H579 C589 0.929 . S
H580 C584 0.929 . S
H581 C590 0.929 . S
C582 H576 0.930 . S
C582 C583 1.367 . S
C582 C590 1.378 . S
C583 C582 1.367 . S
C583 C591 1.433 . S
C584 H580 0.929 . S
C584 C586 1.378 1_554 S
C584 C588 1.350 . S
C585 C588 1.463 . S
C585 C590 1.350 . S
C585 N593 1.427 . S
C586 H577 0.930 . S
C586 C584 1.378 1_556 S
C586 C587 1.367 . S
C587 C586 1.367 . S
C587 C589 1.433 . S
C588 C584 1.350 . S
C588 C585 1.463 . S
C588 N592 1.427 . S
C589 H579 0.929 . S
C589 C587 1.433 . S
C589 N592 1.384 1_556 S
C590 H581 0.929 . S
C590 C582 1.378 . S
C590 C585 1.350 . S
C591 H578 0.929 . S
C591 C583 1.433 . S
C591 N593 1.384 . S
N592 C588 1.427 . S
N592 C589 1.384 1_554 S
N593 C585 1.427 . S
N593 C591 1.384 . S
H594 C600 0.930 . S
H595 C604 0.930 . S
H596 C609 0.929 . S
H597 C607 0.929 . S
H598 C602 0.929 . S
H599 C608 0.929 . S
C600 H594 0.930 . S
C600 C601 1.367 . S
C600 C608 1.378 . S
C601 C600 1.367 . S
C601 C609 1.433 . S
C602 H598 0.929 . S
C602 C604 1.378 1_554 S
C602 C606 1.350 . S
C603 C606 1.463 . S
C603 C608 1.350 . S
C603 N611 1.427 . S
C604 H595 0.930 . S
C604 C602 1.378 1_556 S
C604 C605 1.367 . S
C605 C604 1.367 . S
C605 C607 1.433 . S
C606 C602 1.350 . S
C606 C603 1.463 . S
C606 N610 1.427 . S
C607 H597 0.929 . S
C607 C605 1.433 . S
C607 N610 1.384 1_556 S
C608 H599 0.929 . S
C608 C600 1.378 . S
C608 C603 1.350 . S
C609 H596 0.929 . S
C609 C601 1.433 . S
C609 N611 1.384 . S
N610 C606 1.427 . S
N610 C607 1.384 1_554 S
N611 C603 1.427 . S
N611 C609 1.384 . S
H612 C618 0.930 . S
H613 C622 0.930 . S
H614 C627 0.929 . S
H615 C625 0.929 . S
H616 C620 0.929 . S
H617 C626 0.929 . S
C618 H612 0.930 . S
C618 C619 1.367 . S
C618 C626 1.378 . S
C619 C618 1.367 . S
C619 C627 1.433 . S
C620 H616 0.929 . S
C620 C622 1.378 . S
C620 C624 1.350 . S
C621 C624 1.463 . S
C621 C626 1.350 . S
C621 N629 1.427 . S
C622 H613 0.930 . S
C622 C620 1.378 . S
C622 C623 1.367 . S
C623 C622 1.367 . S
C623 C625 1.433 . S
C624 C620 1.350 . S
C624 C621 1.463 . S
C624 N628 1.427 . S
C625 H615 0.929 . S
C625 C623 1.433 . S
C625 N628 1.384 . S
C626 H617 0.929 . S
C626 C618 1.378 . S
C626 C621 1.350 . S
C627 H614 0.929 . S
C627 C619 1.433 . S
C627 N629 1.384 . S
N628 C624 1.427 . S
N628 C625 1.384 . S
N629 C621 1.427 . S
N629 C627 1.384 . S
H630 C636 0.930 . S
H631 C640 0.930 . S
H632 C645 0.929 . S
H633 C643 0.929 . S
H634 C638 0.929 . S
H635 C644 0.929 . S
C636 H630 0.930 . S
C636 C637 1.367 . S
C636 C644 1.378 . S
C637 C636 1.367 . S
C637 C645 1.433 . S
C638 H634 0.929 . S
C638 C640 1.378 . S
C638 C642 1.350 . S
C639 C642 1.463 . S
C639 C644 1.350 . S
C639 N647 1.427 . S
C640 H631 0.930 . S
C640 C638 1.378 . S
C640 C641 1.367 . S
C641 C640 1.367 . S
C641 C643 1.433 . S
C642 C638 1.350 . S
C642 C639 1.463 . S
C642 N646 1.427 . S
C643 H633 0.929 . S
C643 C641 1.433 . S
C643 N646 1.384 . S
C644 H635 0.929 . S
C644 C636 1.378 . S
C644 C639 1.350 . S
C645 H632 0.929 . S
C645 C637 1.433 . S
C645 N647 1.384 . S
N646 C642 1.427 . S
N646 C643 1.384 . S
N647 C639 1.427 . S
N647 C645 1.384 . S
H648 C654 0.930 . S
H649 C658 0.930 . S
H650 C663 0.929 . S
H651 C661 0.929 . S
H652 C656 0.929 . S
H653 C662 0.929 . S
C654 H648 0.930 . S
C654 C655 1.367 . S
C654 C662 1.378 . S
C655 C654 1.367 . S
C655 C663 1.433 . S
C656 H652 0.929 . S
C656 C658 1.378 . S
C656 C660 1.350 . S
C657 C660 1.463 . S
C657 C662 1.350 . S
C657 N665 1.427 . S
C658 H649 0.930 . S
C658 C656 1.378 . S
C658 C659 1.367 . S
C659 C658 1.367 . S
C659 C661 1.433 . S
C660 C656 1.350 . S
C660 C657 1.463 . S
C660 N664 1.427 . S
C661 H651 0.929 . S
C661 C659 1.433 . S
C661 N664 1.384 . S
C662 H653 0.929 . S
C662 C654 1.378 . S
C662 C657 1.350 . S
C663 H650 0.929 . S
C663 C655 1.433 . S
C663 N665 1.384 . S
N664 C660 1.427 . S
N664 C661 1.384 . S
N665 C657 1.427 . S
N665 C663 1.384 . S
H666 C672 0.930 . S
H667 C676 0.936 . S
H668 C681 0.929 . S
H669 C679 0.929 . S
H670 C674 0.929 . S
H671 C680 0.929 . S
C672 H666 0.930 . S
C672 C673 1.367 . S
C672 C680 1.378 . S
C673 C672 1.367 . S
C673 C681 1.433 . S
C674 H670 0.929 . S
C674 C676 1.363 1_556 S
C674 C678 1.350 . S
C675 C678 1.463 . S
C675 C680 1.350 . S
C675 N683 1.427 . S
C676 H667 0.936 . S
C676 C674 1.363 1_554 S
C676 C677 1.376 . S
C677 C676 1.376 . S
C677 C679 1.433 . S
C678 C674 1.350 . S
C678 C675 1.463 . S
C678 N682 1.427 . S
C679 H669 0.929 . S
C679 C677 1.433 . S
C679 N682 1.384 1_554 S
C680 H671 0.929 . S
C680 C672 1.378 . S
C680 C675 1.350 . S
C681 H668 0.929 . S
C681 C673 1.433 . S
C681 N683 1.384 . S
N682 C678 1.427 . S
N682 C679 1.384 1_556 S
N683 C675 1.427 . S
N683 C681 1.384 . S
H684 C690 0.930 . S
H685 C694 0.930 . S
H686 C699 0.929 . S
H687 C697 0.929 . S
H688 C692 0.929 . S
H689 C698 0.929 . S
C690 H684 0.930 . S
C690 C691 1.367 . S
C690 C698 1.378 1_554 S
C691 C690 1.367 . S
C691 C699 1.433 . S
C692 H688 0.929 . S
C692 C694 1.378 . S
C692 C696 1.350 . S
C693 C696 1.463 . S
C693 C698 1.350 . S
C693 N701 1.427 . S
C694 H685 0.930 . S
C694 C692 1.378 . S
C694 C695 1.367 . S
C695 C694 1.367 . S
C695 C697 1.433 . S
C696 C692 1.350 . S
C696 C693 1.463 . S
C696 N700 1.427 . S
C697 H687 0.929 . S
C697 C695 1.433 . S
C697 N700 1.384 . S
C698 H689 0.929 . S
C698 C690 1.378 1_556 S
C698 C693 1.350 . S
C699 H686 0.929 . S
C699 C691 1.433 . S
C699 N701 1.384 1_554 S
N700 C696 1.427 . S
N700 C697 1.384 . S
N701 C693 1.427 . S
N701 C699 1.384 1_556 S
H702 C708 0.930 . S
H703 C712 0.930 . S
H704 C717 0.929 . S
H705 C715 0.929 . S
H706 C710 0.929 . S
H707 C716 0.929 . S
C708 H702 0.930 . S
C708 C709 1.367 . S
C708 C716 1.378 . S
C709 C708 1.367 . S
C709 C717 1.433 . S
C710 H706 0.929 . S
C710 C712 1.378 1_556 S
C710 C714 1.350 . S
C711 C714 1.463 . S
C711 C716 1.350 . S
C711 N719 1.427 . S
C712 H703 0.930 . S
C712 C710 1.378 1_554 S
C712 C713 1.367 . S
C713 C712 1.367 . S
C713 C715 1.433 . S
C714 C710 1.350 . S
C714 C711 1.463 . S
C714 N718 1.427 . S
C715 H705 0.929 . S
C715 C713 1.433 . S
C715 N718 1.384 1_554 S
C716 H707 0.929 . S
C716 C708 1.378 . S
C716 C711 1.350 . S
C717 H704 0.929 . S
C717 C709 1.433 . S
C717 N719 1.384 . S
N718 C714 1.427 . S
N718 C715 1.384 1_556 S
N719 C711 1.427 . S
N719 C717 1.384 . S
H720 C726 0.930 . S
H721 C730 0.930 1_455 S
H722 C735 0.929 . S
H723 C733 0.929 . S
H724 C728 0.927 1_455 S
H725 C734 0.929 . S
C726 H720 0.930 . S
C726 C727 1.367 . S
C726 C734 1.378 . S
C727 C726 1.367 . S
C727 C735 1.433 . S
C728 H724 0.927 1_655 S
C728 C730 1.378 . S
C728 C732 1.350 . S
C729 C732 1.463 . S
C729 C734 1.350 . S
C729 N737 1.427 . S
C730 H721 0.930 1_655 S
C730 C728 1.378 . S
C730 C731 1.367 . S
C731 C730 1.367 . S
C731 C733 1.433 . S
C732 C728 1.350 . S
C732 C729 1.463 . S
C732 N736 1.427 . S
C733 H723 0.929 . S
C733 C731 1.433 . S
C733 N736 1.384 . S
C734 H725 0.929 . S
C734 C726 1.378 . S
C734 C729 1.350 . S
C735 H722 0.929 . S
C735 C727 1.433 . S
C735 N737 1.384 . S
N736 C732 1.427 . S
N736 C733 1.384 . S
N737 C729 1.427 . S
N737 C735 1.384 . S
H738 C744 0.930 . S
H739 C748 0.930 . S
H740 C753 0.929 . S
H741 C751 0.929 . S
H742 C746 0.929 . S
H743 C752 0.929 . S
C744 H738 0.930 . S
C744 C745 1.367 . S
C744 C752 1.378 . S
C745 C744 1.367 . S
C745 C753 1.433 . S
C746 H742 0.929 . S
C746 C748 1.378 . S
C746 C750 1.350 . S
C747 C750 1.463 . S
C747 C752 1.350 . S
C747 N755 1.427 . S
C748 H739 0.930 . S
C748 C746 1.378 . S
C748 C749 1.367 . S
C749 C748 1.367 . S
C749 C751 1.433 . S
C750 C746 1.350 . S
C750 C747 1.463 . S
C750 N754 1.427 . S
C751 H741 0.929 . S
C751 C749 1.433 . S
C751 N754 1.384 . S
C752 H743 0.929 . S
C752 C744 1.378 . S
C752 C747 1.350 . S
C753 H740 0.929 . S
C753 C745 1.433 . S
C753 N755 1.384 . S
N754 C750 1.427 . S
N754 C751 1.384 . S
N755 C747 1.427 . S
N755 C753 1.384 . S
H756 C762 0.930 1_545 S
H757 C766 0.930 . S
H758 C771 0.929 . S
H759 C769 0.929 . S
H760 C764 0.929 . S
H761 C770 0.926 . S
C762 H756 0.930 1_565 S
C762 C763 1.367 . S
C762 C770 1.378 . S
C763 C762 1.367 . S
C763 C771 1.433 . S
C764 H760 0.929 . S
C764 C766 1.378 . S
C764 C768 1.350 . S
C765 C768 1.463 . S
C765 C770 1.350 . S
C765 N773 1.427 . S
C766 H757 0.930 . S
C766 C764 1.378 . S
C766 C767 1.367 . S
C767 C766 1.367 . S
C767 C769 1.433 . S
C768 C764 1.350 . S
C768 C765 1.463 . S
C768 N772 1.427 . S
C769 H759 0.929 . S
C769 C767 1.433 . S
C769 N772 1.384 . S
C770 H761 0.926 . S
C770 C762 1.378 . S
C770 C765 1.350 . S
C771 H758 0.929 . S
C771 C763 1.433 . S
C771 N773 1.384 . S
N772 C768 1.427 . S
N772 C769 1.384 . S
N773 C765 1.427 . S
N773 C771 1.384 . S
H774 C780 0.930 . S
H775 C784 0.930 1_565 S
H776 C789 0.929 . S
H777 C787 0.929 . S
H778 C782 0.929 1_565 S
H779 C788 0.929 . S
C780 H774 0.930 . S
C780 C781 1.367 . S
C780 C788 1.378 . S
C781 C780 1.367 . S
C781 C789 1.433 . S
C782 H778 0.929 1_545 S
C782 C784 1.378 . S
C782 C786 1.350 . S
C783 C786 1.463 . S
C783 C788 1.350 . S
C783 N791 1.427 . S
C784 H775 0.930 1_545 S
C784 C782 1.378 . S
C784 C785 1.367 . S
C785 C784 1.367 . S
C785 C787 1.433 . S
C786 C782 1.350 . S
C786 C783 1.463 . S
C786 N790 1.427 . S
C787 H777 0.929 . S
C787 C785 1.433 . S
C787 N790 1.384 . S
C788 H779 0.929 . S
C788 C780 1.378 . S
C788 C783 1.350 . S
C789 H776 0.929 . S
C789 C781 1.433 . S
C789 N791 1.384 . S
N790 C786 1.427 . S
N790 C787 1.384 . S
N791 C783 1.427 . S
N791 C789 1.384 . S
H792 C798 0.930 1_655 S
H793 C802 0.930 . S
H794 C807 0.929 . S
H795 C805 0.929 . S
H796 C800 0.929 . S
H797 C806 0.929 1_655 S
C798 H792 0.930 1_455 S
C798 C799 1.367 . S
C798 C806 1.378 . S
C799 C798 1.367 . S
C799 C807 1.433 . S
C800 H796 0.929 . S
C800 C802 1.378 . S
C800 C804 1.350 . S
C801 C804 1.463 . S
C801 C806 1.350 . S
C801 N809 1.427 . S
C802 H793 0.930 . S
C802 C800 1.378 . S
C802 C803 1.367 . S
C803 C802 1.367 . S
C803 C805 1.433 . S
C804 C800 1.350 . S
C804 C801 1.463 . S
C804 N808 1.427 . S
C805 H795 0.929 . S
C805 C803 1.433 . S
C805 N808 1.384 . S
C806 H797 0.929 1_455 S
C806 C798 1.378 . S
C806 C801 1.350 . S
C807 H794 0.929 . S
C807 C799 1.433 . S
C807 N809 1.384 . S
N808 C804 1.427 . S
N808 C805 1.384 . S
N809 C801 1.427 . S
N809 C807 1.384 . S
H810 C816 0.930 . S
H811 C820 0.930 . S
H812 C825 0.929 . S
H813 C823 0.929 . S
H814 C818 0.929 . S
H815 C824 0.929 . S
C816 H810 0.930 . S
C816 C817 1.367 . S
C816 C824 1.378 . S
C817 C816 1.367 . S
C817 C825 1.433 . S
C818 H814 0.929 . S
C818 C820 1.378 . S
C818 C822 1.350 . S
C819 C822 1.463 . S
C819 C824 1.350 . S
C819 N827 1.427 . S
C820 H811 0.930 . S
C820 C818 1.378 . S
C820 C821 1.367 . S
C821 C820 1.367 . S
C821 C823 1.433 . S
C822 C818 1.350 . S
C822 C819 1.463 . S
C822 N826 1.427 . S
C823 H813 0.929 . S
C823 C821 1.433 . S
C823 N826 1.384 . S
C824 H815 0.929 . S
C824 C816 1.378 . S
C824 C819 1.350 . S
C825 H812 0.929 . S
C825 C817 1.433 . S
C825 N827 1.384 . S
N826 C822 1.427 . S
N826 C823 1.384 . S
N827 C819 1.427 . S
N827 C825 1.384 . S
H828 C834 0.930 . S
H829 C838 0.930 . S
H830 C843 0.929 . S
H831 C841 0.929 . S
H832 C836 0.929 . S
H833 C842 0.929 . S
C834 H828 0.930 . S
C834 C835 1.367 . S
C834 C842 1.378 . S
C835 C834 1.367 . S
C835 C843 1.433 . S
C836 H832 0.929 . S
C836 C838 1.378 . S
C836 C840 1.350 . S
C837 C840 1.463 . S
C837 C842 1.350 . S
C837 N845 1.427 . S
C838 H829 0.930 . S
C838 C836 1.378 . S
C838 C839 1.367 . S
C839 C838 1.367 . S
C839 C841 1.433 . S
C840 C836 1.350 . S
C840 C837 1.463 . S
C840 N844 1.427 . S
C841 H831 0.929 . S
C841 C839 1.433 . S
C841 N844 1.384 . S
C842 H833 0.929 . S
C842 C834 1.378 . S
C842 C837 1.350 . S
C843 H830 0.929 . S
C843 C835 1.433 . S
C843 N845 1.384 . S
N844 C840 1.427 . S
N844 C841 1.384 . S
N845 C837 1.427 . S
N845 C843 1.384 . S
H846 C852 0.930 . S
H847 C856 0.930 . S
H848 C861 0.929 . S
H849 C859 0.929 . S
H850 C854 0.929 . S
H851 C860 0.929 . S
C852 H846 0.930 . S
C852 C853 1.367 . S
C852 C860 1.378 . S
C853 C852 1.367 . S
C853 C861 1.433 . S
C854 H850 0.929 . S
C854 C856 1.378 . S
C854 C858 1.350 . S
C855 C858 1.463 . S
C855 C860 1.350 . S
C855 N863 1.427 . S
C856 H847 0.930 . S
C856 C854 1.378 . S
C856 C857 1.367 . S
C857 C856 1.367 . S
C857 C859 1.433 . S
C858 C854 1.350 . S
C858 C855 1.463 . S
C858 N862 1.427 . S
C859 H849 0.929 . S
C859 C857 1.433 . S
C859 N862 1.384 . S
C860 H851 0.929 . S
C860 C852 1.378 . S
C860 C855 1.350 . S
C861 H848 0.929 . S
C861 C853 1.433 . S
C861 N863 1.384 . S
N862 C858 1.427 . S
N862 C859 1.384 . S
N863 C855 1.427 . S
N863 C861 1.384 . S
H864 C870 0.930 . S
H865 C874 0.930 . S
H866 C879 0.929 . S
H867 C877 0.929 . S
H868 C872 0.929 . S
H869 C878 0.929 . S
C870 H864 0.930 . S
C870 C871 1.367 . S
C870 C878 1.378 . S
C871 C870 1.367 . S
C871 C879 1.433 . S
C872 H868 0.929 . S
C872 C874 1.378 . S
C872 C876 1.350 . S
C873 C876 1.463 . S
C873 C878 1.350 . S
C873 N881 1.427 . S
C874 H865 0.930 . S
C874 C872 1.378 . S
C874 C875 1.367 . S
C875 C874 1.367 . S
C875 C877 1.433 . S
C876 C872 1.350 . S
C876 C873 1.463 . S
C876 N880 1.427 . S
C877 H867 0.929 . S
C877 C875 1.433 . S
C877 N880 1.384 . S
C878 H869 0.929 . S
C878 C870 1.378 . S
C878 C873 1.350 . S
C879 H866 0.929 . S
C879 C871 1.433 . S
C879 N881 1.384 . S
N880 C876 1.427 . S
N880 C877 1.384 . S
N881 C873 1.427 . S
N881 C879 1.384 . S
H882 C888 0.930 . S
H883 C892 0.930 . S
H884 C897 0.929 . S
H885 C895 0.929 . S
H886 C890 0.929 . S
H887 C896 0.929 . S
C888 H882 0.930 . S
C888 C889 1.367 . S
C888 C896 1.378 . S
C889 C888 1.367 . S
C889 C897 1.433 . S
C890 H886 0.929 . S
C890 C892 1.378 . S
C890 C894 1.350 . S
C891 C894 1.463 . S
C891 C896 1.350 . S
C891 N899 1.427 . S
C892 H883 0.930 . S
C892 C890 1.378 . S
C892 C893 1.367 . S
C893 C892 1.367 . S
C893 C895 1.433 . S
C894 C890 1.350 . S
C894 C891 1.463 . S
C894 N898 1.427 . S
C895 H885 0.929 . S
C895 C893 1.433 . S
C895 N898 1.384 . S
C896 H887 0.929 . S
C896 C888 1.378 . S
C896 C891 1.350 . S
C897 H884 0.929 . S
C897 C889 1.433 . S
C897 N899 1.384 . S
N898 C894 1.427 . S
N898 C895 1.384 . S
N899 C891 1.427 . S
N899 C897 1.384 . S
H900 C906 0.930 . S
H901 C910 0.930 . S
H902 C915 0.929 . S
H903 C913 0.929 . S
H904 C908 0.929 . S
H905 C914 0.929 . S
C906 H900 0.930 . S
C906 C907 1.367 . S
C906 C914 1.378 . S
C907 C906 1.367 . S
C907 C915 1.433 . S
C908 H904 0.929 . S
C908 C910 1.378 . S
C908 C912 1.350 . S
C909 C912 1.463 . S
C909 C914 1.350 . S
C909 N917 1.427 . S
C910 H901 0.930 . S
C910 C908 1.378 . S
C910 C911 1.367 . S
C911 C910 1.367 . S
C911 C913 1.433 . S
C912 C908 1.350 . S
C912 C909 1.463 . S
C912 N916 1.427 . S
C913 H903 0.929 . S
C913 C911 1.433 . S
C913 N916 1.384 . S
C914 H905 0.929 . S
C914 C906 1.378 . S
C914 C909 1.350 . S
C915 H902 0.929 . S
C915 C907 1.433 . S
C915 N917 1.384 . S
N916 C912 1.427 . S
N916 C913 1.384 . S
N917 C909 1.427 . S
N917 C915 1.384 . S
H918 C924 0.930 . S
H919 C928 0.930 . S
H920 C933 0.929 . S
H921 C931 0.929 . S
H922 C926 0.929 . S
H923 C932 0.929 . S
C924 H918 0.930 . S
C924 C925 1.367 . S
C924 C932 1.378 . S
C925 C924 1.367 . S
C925 C933 1.433 . S
C926 H922 0.929 . S
C926 C928 1.378 . S
C926 C930 1.350 . S
C927 C930 1.463 . S
C927 C932 1.350 . S
C927 N935 1.427 . S
C928 H919 0.930 . S
C928 C926 1.378 . S
C928 C929 1.367 . S
C929 C928 1.367 . S
C929 C931 1.433 . S
C930 C926 1.350 . S
C930 C927 1.463 . S
C930 N934 1.427 . S
C931 H921 0.929 . S
C931 C929 1.433 . S
C931 N934 1.384 . S
C932 H923 0.929 . S
C932 C924 1.378 . S
C932 C927 1.350 . S
C933 H920 0.929 . S
C933 C925 1.433 . S
C933 N935 1.384 . S
N934 C930 1.427 . S
N934 C931 1.384 . S
N935 C927 1.427 . S
N935 C933 1.384 . S
H936 C942 0.930 . S
H937 C946 0.930 . S
H938 C951 0.929 . S
H939 C949 0.929 . S
H940 C944 0.929 . S
H941 C950 0.929 . S
C942 H936 0.930 . S
C942 C943 1.367 . S
C942 C950 1.378 . S
C943 C942 1.367 . S
C943 C951 1.433 . S
C944 H940 0.929 . S
C944 C946 1.378 . S
C944 C948 1.350 . S
C945 C948 1.463 . S
C945 C950 1.350 . S
C945 N953 1.427 . S
C946 H937 0.930 . S
C946 C944 1.378 . S
C946 C947 1.367 . S
C947 C946 1.367 . S
C947 C949 1.433 . S
C948 C944 1.350 . S
C948 C945 1.463 . S
C948 N952 1.427 . S
C949 H939 0.929 . S
C949 C947 1.433 . S
C949 N952 1.384 . S
C950 H941 0.929 . S
C950 C942 1.378 . S
C950 C945 1.350 . S
C951 H938 0.929 . S
C951 C943 1.433 . S
C951 N953 1.384 . S
N952 C948 1.427 . S
N952 C949 1.384 . S
N953 C945 1.427 . S
N953 C951 1.384 . S
H954 C960 0.930 . S
H955 C964 0.930 . S
H956 C969 0.929 . S
H957 C967 0.929 . S
H958 C962 0.929 . S
H959 C968 0.929 . S
C960 H954 0.930 . S
C960 C961 1.367 . S
C960 C968 1.378 . S
C961 C960 1.367 . S
C961 C969 1.433 . S
C962 H958 0.929 . S
C962 C964 1.378 . S
C962 C966 1.350 . S
C963 C966 1.463 . S
C963 C968 1.350 . S
C963 N971 1.427 . S
C964 H955 0.930 . S
C964 C962 1.378 . S
C964 C965 1.367 . S
C965 C964 1.367 . S
C965 C967 1.433 . S
C966 C962 1.350 . S
C966 C963 1.463 . S
C966 N970 1.427 . S
C967 H957 0.929 . S
C967 C965 1.433 . S
C967 N970 1.384 . S
C968 H959 0.929 . S
C968 C960 1.378 . S
C968 C963 1.350 . S
C969 H956 0.929 . S
C969 C961 1.433 . S
C969 N971 1.384 . S
N970 C966 1.427 . S
N970 C967 1.384 . S
N971 C963 1.427 . S
N971 C969 1.384 . S
H972 C978 0.930 . S
H973 C982 0.930 . S
H974 C987 0.929 . S
H975 C985 0.929 . S
H976 C980 0.929 . S
H977 C986 0.929 . S
C978 H972 0.930 . S
C978 C979 1.367 . S
C978 C986 1.378 . S
C979 C978 1.367 . S
C979 C987 1.433 . S
C980 H976 0.929 . S
C980 C982 1.378 . S
C980 C984 1.350 . S
C981 C984 1.463 . S
C981 C986 1.350 . S
C981 N989 1.427 . S
C982 H973 0.930 . S
C982 C980 1.378 . S
C982 C983 1.367 . S
C983 C982 1.367 . S
C983 C985 1.433 . S
C984 C980 1.350 . S
C984 C981 1.463 . S
C984 N988 1.427 . S
C985 H975 0.929 . S
C985 C983 1.433 . S
C985 N988 1.384 . S
C986 H977 0.929 . S
C986 C978 1.378 . S
C986 C981 1.350 . S
C987 H974 0.929 . S
C987 C979 1.433 . S
C987 N989 1.384 . S
N988 C984 1.427 . S
N988 C985 1.384 . S
N989 C981 1.427 . S
N989 C987 1.384 . S
H990 C996 0.930 . S
H991 C1000 0.930 . S
H992 C1005 0.929 . S
H993 C1003 0.929 . S
H994 C998 0.929 . S
H995 C1004 0.929 . S
C996 H990 0.930 . S
C996 C997 1.367 . S
C996 C1004 1.378 . S
C997 C996 1.367 . S
C997 C1005 1.433 . S
C998 H994 0.929 . S
C998 C1000 1.378 . S
C998 C1002 1.350 . S
C999 C1002 1.463 . S
C999 C1004 1.350 . S
C999 N1007 1.427 . S
C1000 H991 0.930 . S
C1000 C998 1.378 . S
C1000 C1001 1.367 . S
C1001 C1000 1.367 . S
C1001 C1003 1.433 . S
C1002 C998 1.350 . S
C1002 C999 1.463 . S
C1002 N1006 1.427 . S
C1003 H993 0.929 . S
C1003 C1001 1.433 . S
C1003 N1006 1.384 . S
C1004 H995 0.929 . S
C1004 C996 1.378 . S
C1004 C999 1.350 . S
C1005 H992 0.929 . S
C1005 C997 1.433 . S
C1005 N1007 1.384 . S
N1006 C1002 1.427 . S
N1006 C1003 1.384 . S
N1007 C999 1.427 . S
N1007 C1005 1.384 . S
H1008 C1014 0.930 . S
H1009 C1018 0.930 . S
H1010 C1023 0.929 . S
H1011 C1021 0.929 . S
H1012 C1016 0.929 . S
H1013 C1022 0.929 . S
C1014 H1008 0.930 . S
C1014 C1015 1.367 . S
C1014 C1022 1.378 . S
C1015 C1014 1.367 . S
C1015 C1023 1.433 . S
C1016 H1012 0.929 . S
C1016 C1018 1.378 . S
C1016 C1020 1.350 . S
C1017 C1020 1.463 . S
C1017 C1022 1.350 . S
C1017 N1025 1.427 . S
C1018 H1009 0.930 . S
C1018 C1016 1.378 . S
C1018 C1019 1.367 . S
C1019 C1018 1.367 . S
C1019 C1021 1.433 . S
C1020 C1016 1.350 . S
C1020 C1017 1.463 . S
C1020 N1024 1.427 . S
C1021 H1011 0.929 . S
C1021 C1019 1.433 . S
C1021 N1024 1.384 . S
C1022 H1013 0.929 . S
C1022 C1014 1.378 . S
C1022 C1017 1.350 . S
C1023 H1010 0.929 . S
C1023 C1015 1.433 . S
C1023 N1025 1.384 . S
N1024 C1020 1.427 . S
N1024 C1021 1.384 . S
N1025 C1017 1.427 . S
N1025 C1023 1.384 . S
H1026 C1032 0.930 . S
H1027 C1036 0.930 . S
H1028 C1041 0.929 . S
H1029 C1039 0.929 . S
H1030 C1034 0.929 . S
H1031 C1040 0.929 . S
C1032 H1026 0.930 . S
C1032 C1033 1.367 . S
C1032 C1040 1.378 . S
C1033 C1032 1.367 . S
C1033 C1041 1.433 . S
C1034 H1030 0.929 . S
C1034 C1036 1.378 . S
C1034 C1038 1.350 . S
C1035 C1038 1.463 . S
C1035 C1040 1.350 . S
C1035 N1043 1.427 . S
C1036 H1027 0.930 . S
C1036 C1034 1.378 . S
C1036 C1037 1.367 . S
C1037 C1036 1.367 . S
C1037 C1039 1.433 . S
C1038 C1034 1.350 . S
C1038 C1035 1.463 . S
C1038 N1042 1.427 . S
C1039 H1029 0.929 . S
C1039 C1037 1.433 . S
C1039 N1042 1.384 . S
C1040 H1031 0.929 . S
C1040 C1032 1.378 . S
C1040 C1035 1.350 . S
C1041 H1028 0.929 . S
C1041 C1033 1.433 . S
C1041 N1043 1.384 . S
N1042 C1038 1.427 . S
N1042 C1039 1.384 . S
N1043 C1035 1.427 . S
N1043 C1041 1.384 . S
H1044 C1050 0.937 1_655 S
H1045 C1054 0.961 1_455 S
H1046 C1059 0.929 . S
H1047 C1057 0.929 . S
H1048 C1052 0.929 . S
H1049 C1058 0.929 . S
C1050 H1044 0.937 1_455 S
C1050 C1051 1.389 . S
C1050 C1058 1.352 1_455 S
C1051 C1050 1.389 . S
C1051 C1059 1.433 . S
C1052 H1048 0.929 . S
C1052 C1054 1.336 1_455 S
C1052 C1056 1.350 1_455 S
C1053 C1056 1.419 1_455 S
C1053 C1058 1.361 1_455 S
C1053 N1061 1.464 . S
C1054 H1045 0.961 1_655 S
C1054 C1052 1.336 1_655 S
C1054 C1055 1.403 . S
C1055 C1054 1.403 . S
C1055 C1057 1.433 . S
C1056 C1052 1.350 1_655 S
C1056 C1053 1.419 1_655 S
C1056 N1060 1.427 . S
C1057 H1047 0.929 . S
C1057 C1055 1.433 . S
C1057 N1060 1.384 . S
C1058 H1049 0.929 . S
C1058 C1050 1.352 1_655 S
C1058 C1053 1.361 1_655 S
C1059 H1046 0.929 . S
C1059 C1051 1.433 . S
C1059 N1061 1.384 . S
N1060 C1056 1.427 . S
N1060 C1057 1.384 . S
N1061 C1053 1.464 . S
N1061 C1059 1.384 . S
H1062 C1068 0.930 . S
H1063 C1072 0.930 . S
H1064 C1077 0.929 . S
H1065 C1075 0.929 . S
H1066 C1070 0.929 . S
H1067 C1076 0.929 . S
C1068 H1062 0.930 . S
C1068 C1069 1.367 . S
C1068 C1076 1.378 . S
C1069 C1068 1.367 . S
C1069 C1077 1.433 . S
C1070 H1066 0.929 . S
C1070 C1072 1.378 . S
C1070 C1074 1.350 . S
C1071 C1074 1.463 . S
C1071 C1076 1.350 . S
C1071 N1079 1.427 . S
C1072 H1063 0.930 . S
C1072 C1070 1.378 . S
C1072 C1073 1.367 . S
C1073 C1072 1.367 . S
C1073 C1075 1.433 . S
C1074 C1070 1.350 . S
C1074 C1071 1.463 . S
C1074 N1078 1.427 . S
C1075 H1065 0.929 . S
C1075 C1073 1.433 . S
C1075 N1078 1.384 . S
C1076 H1067 0.929 . S
C1076 C1068 1.378 . S
C1076 C1071 1.350 . S
C1077 H1064 0.929 . S
C1077 C1069 1.433 . S
C1077 N1079 1.384 . S
N1078 C1074 1.427 . S
N1078 C1075 1.384 . S
N1079 C1071 1.427 . S
N1079 C1077 1.384 . S
H1080 C1086 0.930 . S
H1081 C1090 0.930 . S
H1082 C1095 0.929 . S
H1083 C1093 0.929 . S
H1084 C1088 0.929 . S
H1085 C1094 0.929 . S
C1086 H1080 0.930 . S
C1086 C1087 1.367 . S
C1086 C1094 1.378 . S
C1087 C1086 1.367 . S
C1087 C1095 1.433 . S
C1088 H1084 0.929 . S
C1088 C1090 1.378 . S
C1088 C1092 1.350 . S
C1089 C1092 1.463 1_545 S
C1089 C1094 1.350 . S
C1089 N1097 1.427 . S
C1090 H1081 0.930 . S
C1090 C1088 1.378 . S
C1090 C1091 1.367 . S
C1091 C1090 1.367 . S
C1091 C1093 1.433 . S
C1092 C1088 1.350 . S
C1092 C1089 1.463 1_565 S
C1092 N1096 1.427 . S
C1093 H1083 0.929 . S
C1093 C1091 1.433 . S
C1093 N1096 1.384 . S
C1094 H1085 0.929 . S
C1094 C1086 1.378 . S
C1094 C1089 1.350 . S
C1095 H1082 0.929 . S
C1095 C1087 1.433 . S
C1095 N1097 1.384 . S
N1096 C1092 1.427 . S
N1096 C1093 1.384 . S
N1097 C1089 1.427 . S
N1097 C1095 1.384 . S
H1098 C1104 0.930 . S
H1099 C1108 0.932 1_545 S
H1100 C1113 0.929 . S
H1101 C1111 0.929 . S
H1102 C1106 0.952 . S
H1103 C1112 0.929 . S
C1104 H1098 0.930 . S
C1104 C1105 1.367 1_564 S
C1104 C1112 1.378 . S
C1105 C1104 1.367 1_546 S
C1105 C1113 1.433 . S
C1106 H1102 0.952 . S
C1106 C1108 1.354 1_545 S
C1106 C1110 1.352 1_545 S
C1107 C1110 1.492 . S
C1107 C1112 1.333 1_556 S
C1107 N1115 1.419 1_565 S
C1108 H1099 0.932 1_565 S
C1108 C1106 1.354 1_565 S
C1108 C1109 1.367 1_556 S
C1109 C1108 1.367 1_554 S
C1109 C1111 1.433 . S
C1110 C1106 1.352 1_565 S
C1110 C1107 1.492 . S
C1110 N1114 1.427 1_556 S
C1111 H1101 0.929 . S
C1111 C1109 1.433 . S
C1111 N1114 1.384 . S
C1112 H1103 0.929 . S
C1112 C1104 1.378 . S
C1112 C1107 1.333 1_554 S
C1113 H1100 0.929 . S
C1113 C1105 1.433 . S
C1113 N1115 1.384 . S
N1114 C1110 1.427 1_554 S
N1114 C1111 1.384 . S
N1115 C1107 1.419 1_545 S
N1115 C1113 1.384 . S
H1116 C1122 0.930 . S
H1117 C1126 0.930 . S
H1118 C1131 0.929 . S
H1119 C1129 0.929 . S
H1120 C1124 0.929 . S
H1121 C1130 0.929 . S
C1122 H1116 0.930 . S
C1122 C1123 1.367 1_556 S
C1122 C1130 1.378 . S
C1123 C1122 1.367 1_554 S
C1123 C1131 1.433 . S
C1124 H1120 0.929 . S
C1124 C1126 1.378 . S
C1124 C1128 1.350 1_554 S
C1125 C1128 1.462 1_454 S
C1125 C1130 1.349 1_554 S
C1125 N1133 1.428 . S
C1126 H1117 0.930 . S
C1126 C1124 1.378 . S
C1126 C1127 1.367 1_554 S
C1127 C1126 1.367 1_556 S
C1127 C1129 1.433 . S
C1128 C1124 1.350 1_556 S
C1128 C1125 1.462 1_656 S
C1128 N1132 1.427 . S
C1129 H1119 0.929 . S
C1129 C1127 1.433 . S
C1129 N1132 1.384 . S
C1130 H1121 0.929 . S
C1130 C1122 1.378 . S
C1130 C1125 1.349 1_556 S
C1131 H1118 0.929 . S
C1131 C1123 1.433 . S
C1131 N1133 1.384 . S
N1132 C1128 1.427 . S
N1132 C1129 1.384 . S
N1133 C1125 1.428 . S
N1133 C1131 1.384 . S
H1134 C1140 0.930 . S
H1135 C1144 0.930 . S
H1136 C1149 0.929 . S
H1137 C1147 0.929 . S
H1138 C1142 0.929 . S
H1139 C1148 0.929 . S
C1140 H1134 0.930 . S
C1140 C1141 1.367 1_556 S
C1140 C1148 1.378 . S
C1141 C1140 1.367 1_554 S
C1141 C1149 1.433 . S
C1142 H1138 0.929 . S
C1142 C1144 1.378 . S
C1142 C1146 1.339 1_554 S
C1143 C1146 1.463 . S
C1143 C1148 1.350 . S
C1143 N1151 1.427 1_556 S
C1144 H1135 0.930 . S
C1144 C1142 1.378 . S
C1144 C1145 1.367 1_554 S
C1145 C1144 1.367 1_556 S
C1145 C1147 1.433 . S
C1146 C1142 1.339 1_556 S
C1146 C1143 1.463 . S
C1146 N1150 1.439 . S
C1147 H1137 0.929 . S
C1147 C1145 1.433 . S
C1147 N1150 1.384 . S
C1148 H1139 0.929 . S
C1148 C1140 1.378 . S
C1148 C1143 1.350 . S
C1149 H1136 0.929 . S
C1149 C1141 1.433 . S
C1149 N1151 1.384 . S
N1150 C1146 1.439 . S
N1150 C1147 1.384 . S
N1151 C1143 1.427 1_554 S
N1151 C1149 1.384 . S
H1152 C1158 0.930 . S
H1153 C1162 0.930 . S
H1154 C1167 0.929 . S
H1155 C1165 0.929 . S
H1156 C1160 0.929 . S
H1157 C1166 0.929 1_556 S
C1158 H1152 0.930 . S
C1158 C1159 1.367 1_556 S
C1158 C1166 1.378 1_556 S
C1159 C1158 1.367 1_554 S
C1159 C1167 1.433 . S
C1160 H1156 0.929 . S
C1160 C1162 1.378 . S
C1160 C1164 1.350 . S
C1161 C1164 1.463 . S
C1161 C1166 1.350 . S
C1161 N1169 1.427 . S
C1162 H1153 0.930 . S
C1162 C1160 1.378 . S
C1162 C1163 1.367 . S
C1163 C1162 1.367 . S
C1163 C1165 1.433 . S
C1164 C1160 1.350 . S
C1164 C1161 1.463 . S
C1164 N1168 1.427 . S
C1165 H1155 0.929 . S
C1165 C1163 1.433 . S
C1165 N1168 1.384 . S
C1166 H1157 0.929 1_554 S
C1166 C1158 1.378 1_554 S
C1166 C1161 1.350 . S
C1167 H1154 0.929 . S
C1167 C1159 1.433 . S
C1167 N1169 1.384 . S
N1168 C1164 1.427 . S
N1168 C1165 1.384 . S
N1169 C1161 1.427 . S
N1169 C1167 1.384 . S
H1170 C1176 0.930 . S
H1171 C1180 0.930 . S
H1172 C1185 0.929 . S
H1173 C1183 0.929 . S
H1174 C1178 0.929 . S
H1175 C1184 0.929 . S
C1176 H1170 0.930 . S
C1176 C1177 1.367 . S
C1176 C1184 1.378 . S
C1177 C1176 1.367 . S
C1177 C1185 1.433 . S
C1178 H1174 0.929 . S
C1178 C1180 1.378 1_554 S
C1178 C1182 1.350 . S
C1179 C1182 1.463 . S
C1179 C1184 1.350 . S
C1179 N1187 1.427 . S
C1180 H1171 0.930 . S
C1180 C1178 1.378 1_556 S
C1180 C1181 1.367 1_556 S
C1181 C1180 1.367 1_554 S
C1181 C1183 1.433 . S
C1182 C1178 1.350 . S
C1182 C1179 1.463 . S
C1182 N1186 1.427 . S
C1183 H1173 0.929 . S
C1183 C1181 1.433 . S
C1183 N1186 1.384 . S
C1184 H1175 0.929 . S
C1184 C1176 1.378 . S
C1184 C1179 1.350 . S
C1185 H1172 0.929 . S
C1185 C1177 1.433 . S
C1185 N1187 1.384 . S
N1186 C1182 1.427 . S
N1186 C1183 1.384 . S
N1187 C1179 1.427 . S
N1187 C1185 1.384 . S
H1188 C1194 0.930 . S
H1189 C1198 0.930 1_556 S
H1190 C1203 0.929 . S
H1191 C1201 0.929 . S
H1192 C1196 0.929 . S
H1193 C1202 0.929 . S
C1194 H1188 0.930 . S
C1194 C1195 1.367 . S
C1194 C1202 1.378 . S
C1195 C1194 1.367 . S
C1195 C1203 1.433 . S
C1196 H1192 0.929 . S
C1196 C1198 1.378 . S
C1196 C1200 1.350 . S
C1197 C1200 1.463 . S
C1197 C1202 1.350 . S
C1197 N1205 1.427 . S
C1198 H1189 0.930 1_554 S
C1198 C1196 1.378 . S
C1198 C1199 1.367 . S
C1199 C1198 1.367 . S
C1199 C1201 1.433 . S
C1200 C1196 1.350 . S
C1200 C1197 1.463 . S
C1200 N1204 1.427 . S
C1201 H1191 0.929 . S
C1201 C1199 1.433 . S
C1201 N1204 1.384 . S
C1202 H1193 0.929 . S
C1202 C1194 1.378 . S
C1202 C1197 1.350 . S
C1203 H1190 0.929 . S
C1203 C1195 1.433 . S
C1203 N1205 1.384 . S
N1204 C1200 1.427 . S
N1204 C1201 1.384 . S
N1205 C1197 1.427 . S
N1205 C1203 1.384 . S
H1206 C1212 0.930 . S
H1207 C1216 0.930 . S
H1208 C1221 0.929 . S
H1209 C1219 0.929 . S
H1210 C1214 0.929 . S
H1211 C1220 0.929 . S
C1212 H1206 0.930 . S
C1212 C1213 1.367 . S
C1212 C1220 1.378 . S
C1213 C1212 1.367 . S
C1213 C1221 1.433 . S
C1214 H1210 0.929 . S
C1214 C1216 1.378 . S
C1214 C1218 1.350 . S
C1215 C1218 1.463 . S
C1215 C1220 1.350 . S
C1215 N1223 1.427 . S
C1216 H1207 0.930 . S
C1216 C1214 1.378 . S
C1216 C1217 1.367 . S
C1217 C1216 1.367 . S
C1217 C1219 1.433 . S
C1218 C1214 1.350 . S
C1218 C1215 1.463 . S
C1218 N1222 1.427 . S
C1219 H1209 0.929 . S
C1219 C1217 1.433 . S
C1219 N1222 1.384 . S
C1220 H1211 0.929 . S
C1220 C1212 1.378 . S
C1220 C1215 1.350 . S
C1221 H1208 0.929 . S
C1221 C1213 1.433 . S
C1221 N1223 1.384 . S
N1222 C1218 1.427 . S
N1222 C1219 1.384 . S
N1223 C1215 1.427 . S
N1223 C1221 1.384 . S
H1224 C1230 0.930 . S
H1225 C1234 0.930 . S
H1226 C1239 0.929 . S
H1227 C1237 0.929 . S
H1228 C1232 0.929 . S
H1229 C1238 0.929 . S
C1230 H1224 0.930 . S
C1230 C1231 1.367 . S
C1230 C1238 1.378 . S
C1231 C1230 1.367 . S
C1231 C1239 1.433 . S
C1232 H1228 0.929 . S
C1232 C1234 1.378 . S
C1232 C1236 1.350 . S
C1233 C1236 1.463 . S
C1233 C1238 1.350 . S
C1233 N1241 1.427 . S
C1234 H1225 0.930 . S
C1234 C1232 1.378 . S
C1234 C1235 1.367 . S
C1235 C1234 1.367 . S
C1235 C1237 1.433 . S
C1236 C1232 1.350 . S
C1236 C1233 1.463 . S
C1236 N1240 1.427 . S
C1237 H1227 0.929 . S
C1237 C1235 1.433 . S
C1237 N1240 1.384 . S
C1238 H1229 0.929 . S
C1238 C1230 1.378 . S
C1238 C1233 1.350 . S
C1239 H1226 0.929 . S
C1239 C1231 1.433 . S
C1239 N1241 1.384 . S
N1240 C1236 1.427 . S
N1240 C1237 1.384 . S
N1241 C1233 1.427 . S
N1241 C1239 1.384 . S
H1242 C1248 0.930 . S
H1243 C1252 0.930 . S
H1244 C1257 0.929 . S
H1245 C1255 0.929 . S
H1246 C1250 0.929 . S
H1247 C1256 0.929 . S
C1248 H1242 0.930 . S
C1248 C1249 1.367 . S
C1248 C1256 1.378 . S
C1249 C1248 1.367 . S
C1249 C1257 1.433 . S
C1250 H1246 0.929 . S
C1250 C1252 1.378 . S
C1250 C1254 1.350 . S
C1251 C1254 1.463 . S
C1251 C1256 1.350 . S
C1251 N1259 1.427 . S
C1252 H1243 0.930 . S
C1252 C1250 1.378 . S
C1252 C1253 1.367 . S
C1253 C1252 1.367 . S
C1253 C1255 1.433 . S
C1254 C1250 1.350 . S
C1254 C1251 1.463 . S
C1254 N1258 1.427 . S
C1255 H1245 0.929 . S
C1255 C1253 1.433 . S
C1255 N1258 1.384 . S
C1256 H1247 0.929 . S
C1256 C1248 1.378 . S
C1256 C1251 1.350 . S
C1257 H1244 0.929 . S
C1257 C1249 1.433 . S
C1257 N1259 1.384 . S
N1258 C1254 1.427 . S
N1258 C1255 1.384 . S
N1259 C1251 1.427 . S
N1259 C1257 1.384 . S
H1260 C1266 0.930 . S
H1261 C1270 0.930 . S
H1262 C1275 0.929 . S
H1263 C1273 0.929 . S
H1264 C1268 0.929 . S
H1265 C1274 0.929 . S
C1266 H1260 0.930 . S
C1266 C1267 1.367 . S
C1266 C1274 1.378 . S
C1267 C1266 1.367 . S
C1267 C1275 1.433 . S
C1268 H1264 0.929 . S
C1268 C1270 1.378 . S
C1268 C1272 1.350 . S
C1269 C1272 1.463 . S
C1269 C1274 1.350 . S
C1269 N1277 1.427 . S
C1270 H1261 0.930 . S
C1270 C1268 1.378 . S
C1270 C1271 1.367 . S
C1271 C1270 1.367 . S
C1271 C1273 1.433 . S
C1272 C1268 1.350 . S
C1272 C1269 1.463 . S
C1272 N1276 1.427 . S
C1273 H1263 0.929 . S
C1273 C1271 1.433 . S
C1273 N1276 1.384 . S
C1274 H1265 0.929 . S
C1274 C1266 1.378 . S
C1274 C1269 1.350 . S
C1275 H1262 0.929 . S
C1275 C1267 1.433 . S
C1275 N1277 1.384 . S
N1276 C1272 1.427 . S
N1276 C1273 1.384 . S
N1277 C1269 1.427 . S
N1277 C1275 1.384 . S
H1278 C1284 0.930 . S
H1279 C1288 0.930 . S
H1280 C1293 0.929 . S
H1281 C1291 0.929 . S
H1282 C1286 0.929 . S
H1283 C1292 0.929 . S
C1284 H1278 0.930 . S
C1284 C1285 1.367 . S
C1284 C1292 1.378 . S
C1285 C1284 1.367 . S
C1285 C1293 1.433 . S
C1286 H1282 0.929 . S
C1286 C1288 1.378 . S
C1286 C1290 1.350 . S
C1287 C1290 1.463 . S
C1287 C1292 1.350 . S
C1287 N1295 1.427 . S
C1288 H1279 0.930 . S
C1288 C1286 1.378 . S
C1288 C1289 1.367 . S
C1289 C1288 1.367 . S
C1289 C1291 1.433 1_556 S
C1290 C1286 1.350 . S
C1290 C1287 1.463 . S
C1290 N1294 1.427 . S
C1291 H1281 0.929 . S
C1291 C1289 1.433 1_554 S
C1291 N1294 1.384 1_554 S
C1292 H1283 0.929 . S
C1292 C1284 1.378 . S
C1292 C1287 1.350 . S
C1293 H1280 0.929 . S
C1293 C1285 1.433 . S
C1293 N1295 1.384 . S
N1294 C1290 1.427 . S
N1294 C1291 1.384 1_556 S
N1295 C1287 1.427 . S
N1295 C1293 1.384 . S
H1296 C1302 0.930 . S
H1297 C1306 0.930 . S
H1298 C1311 0.929 . S
H1299 C1309 0.929 . S
H1300 C1304 0.929 . S
H1301 C1310 0.929 . S
C1302 H1296 0.930 . S
C1302 C1303 1.367 . S
C1302 C1310 1.378 . S
C1303 C1302 1.367 . S
C1303 C1311 1.433 1_556 S
C1304 H1300 0.929 . S
C1304 C1306 1.378 . S
C1304 C1308 1.350 . S
C1305 C1308 1.463 . S
C1305 C1310 1.350 . S
C1305 N1313 1.427 . S
C1306 H1297 0.930 . S
C1306 C1304 1.378 . S
C1306 C1307 1.367 . S
C1307 C1306 1.367 . S
C1307 C1309 1.433 . S
C1308 C1304 1.350 . S
C1308 C1305 1.463 . S
C1308 N1312 1.427 . S
C1309 H1299 0.929 . S
C1309 C1307 1.433 . S
C1309 N1312 1.384 . S
C1310 H1301 0.929 . S
C1310 C1302 1.378 . S
C1310 C1305 1.350 . S
C1311 H1298 0.929 . S
C1311 C1303 1.433 1_554 S
C1311 N1313 1.384 1_554 S
N1312 C1308 1.427 . S
N1312 C1309 1.384 . S
N1313 C1305 1.427 . S
N1313 C1311 1.384 1_556 S
H1314 C1320 0.930 . S
H1315 C1324 0.930 . S
H1316 C1329 0.929 . S
H1317 C1327 0.929 . S
H1318 C1322 0.929 . S
H1319 C1328 0.929 . S
C1320 H1314 0.930 . S
C1320 C1321 1.367 . S
C1320 C1328 1.378 . S
C1321 C1320 1.367 . S
C1321 C1329 1.433 . S
C1322 H1318 0.929 . S
C1322 C1324 1.378 . S
C1322 C1326 1.350 . S
C1323 C1326 1.463 . S
C1323 C1328 1.350 . S
C1323 N1331 1.427 . S
C1324 H1315 0.930 . S
C1324 C1322 1.378 . S
C1324 C1325 1.367 . S
C1325 C1324 1.367 . S
C1325 C1327 1.433 . S
C1326 C1322 1.350 . S
C1326 C1323 1.463 . S
C1326 N1330 1.427 . S
C1327 H1317 0.929 . S
C1327 C1325 1.433 . S
C1327 N1330 1.384 . S
C1328 H1319 0.929 . S
C1328 C1320 1.378 . S
C1328 C1323 1.350 . S
C1329 H1316 0.929 . S
C1329 C1321 1.433 . S
C1329 N1331 1.384 . S
N1330 C1326 1.427 . S
N1330 C1327 1.384 . S
N1331 C1323 1.427 . S
N1331 C1329 1.384 . S
H1332 C1338 0.930 . S
H1333 C1342 0.930 . S
H1334 C1347 0.929 . S
H1335 C1345 0.929 . S
H1336 C1340 0.929 . S
H1337 C1346 0.929 . S
C1338 H1332 0.930 . S
C1338 C1339 1.367 . S
C1338 C1346 1.378 . S
C1339 C1338 1.367 . S
C1339 C1347 1.433 . S
C1340 H1336 0.929 . S
C1340 C1342 1.378 . S
C1340 C1344 1.350 . S
C1341 C1344 1.463 . S
C1341 C1346 1.350 . S
C1341 N1349 1.427 . S
C1342 H1333 0.930 . S
C1342 C1340 1.378 . S
C1342 C1343 1.367 . S
C1343 C1342 1.367 . S
C1343 C1345 1.433 . S
C1344 C1340 1.350 . S
C1344 C1341 1.463 . S
C1344 N1348 1.427 . S
C1345 H1335 0.929 . S
C1345 C1343 1.433 . S
C1345 N1348 1.384 . S
C1346 H1337 0.929 . S
C1346 C1338 1.378 . S
C1346 C1341 1.350 . S
C1347 H1334 0.929 . S
C1347 C1339 1.433 . S
C1347 N1349 1.384 . S
N1348 C1344 1.427 . S
N1348 C1345 1.384 . S
N1349 C1341 1.427 . S
N1349 C1347 1.384 . S
H1350 C1356 0.930 . S
H1351 C1360 0.930 . S
H1352 C1365 0.929 . S
H1353 C1363 0.929 . S
H1354 C1358 0.929 . S
H1355 C1364 0.929 . S
C1356 H1350 0.930 . S
C1356 C1357 1.367 . S
C1356 C1364 1.378 . S
C1357 C1356 1.367 . S
C1357 C1365 1.433 . S
C1358 H1354 0.929 . S
C1358 C1360 1.378 . S
C1358 C1362 1.350 . S
C1359 C1362 1.463 . S
C1359 C1364 1.350 . S
C1359 N1367 1.427 . S
C1360 H1351 0.930 . S
C1360 C1358 1.378 . S
C1360 C1361 1.367 . S
C1361 C1360 1.367 . S
C1361 C1363 1.433 . S
C1362 C1358 1.350 . S
C1362 C1359 1.463 . S
C1362 N1366 1.427 . S
C1363 H1353 0.929 . S
C1363 C1361 1.433 . S
C1363 N1366 1.384 . S
C1364 H1355 0.929 . S
C1364 C1356 1.378 . S
C1364 C1359 1.350 . S
C1365 H1352 0.929 . S
C1365 C1357 1.433 . S
C1365 N1367 1.384 . S
N1366 C1362 1.427 . S
N1366 C1363 1.384 . S
N1367 C1359 1.427 . S
N1367 C1365 1.384 . S
H1368 C1374 0.930 . S
H1369 C1378 0.930 . S
H1370 C1383 0.929 . S
H1371 C1381 0.929 . S
H1372 C1376 0.929 . S
H1373 C1382 0.929 . S
C1374 H1368 0.930 . S
C1374 C1375 1.367 . S
C1374 C1382 1.378 . S
C1375 C1374 1.367 . S
C1375 C1383 1.433 . S
C1376 H1372 0.929 . S
C1376 C1378 1.378 . S
C1376 C1380 1.350 . S
C1377 C1380 1.463 . S
C1377 C1382 1.350 . S
C1377 N1385 1.427 . S
C1378 H1369 0.930 . S
C1378 C1376 1.378 . S
C1378 C1379 1.367 . S
C1379 C1378 1.367 . S
C1379 C1381 1.433 . S
C1380 C1376 1.350 . S
C1380 C1377 1.463 . S
C1380 N1384 1.427 . S
C1381 H1371 0.929 . S
C1381 C1379 1.433 . S
C1381 N1384 1.384 . S
C1382 H1373 0.929 . S
C1382 C1374 1.378 . S
C1382 C1377 1.350 . S
C1383 H1370 0.929 . S
C1383 C1375 1.433 . S
C1383 N1385 1.384 . S
N1384 C1380 1.427 . S
N1384 C1381 1.384 . S
N1385 C1377 1.427 . S
N1385 C1383 1.384 . S
H1386 C1392 0.930 . S
H1387 C1396 0.930 . S
H1388 C1401 0.929 . S
H1389 C1399 0.929 . S
H1390 C1394 0.929 . S
H1391 C1400 0.929 . S
C1392 H1386 0.930 . S
C1392 C1393 1.367 . S
C1392 C1400 1.378 1_565 S
C1393 C1392 1.367 . S
C1393 C1401 1.433 . S
C1394 H1390 0.929 . S
C1394 C1396 1.378 . S
C1394 C1398 1.350 . S
C1395 C1398 1.463 . S
C1395 C1400 1.350 . S
C1395 N1403 1.427 1_545 S
C1396 H1387 0.930 . S
C1396 C1394 1.378 . S
C1396 C1397 1.367 . S
C1397 C1396 1.367 . S
C1397 C1399 1.433 . S
C1398 C1394 1.350 . S
C1398 C1395 1.463 . S
C1398 N1402 1.427 . S
C1399 H1389 0.929 . S
C1399 C1397 1.433 . S
C1399 N1402 1.384 . S
C1400 H1391 0.929 . S
C1400 C1392 1.378 1_545 S
C1400 C1395 1.350 . S
C1401 H1388 0.929 . S
C1401 C1393 1.433 . S
C1401 N1403 1.384 . S
N1402 C1398 1.427 . S
N1402 C1399 1.384 . S
N1403 C1395 1.427 1_565 S
N1403 C1401 1.384 . S
H1404 C1410 0.930 . S
H1405 C1414 0.930 . S
H1406 C1419 0.929 . S
H1407 C1417 0.929 . S
H1408 C1412 0.929 . S
H1409 C1418 0.929 . S
C1410 H1404 0.930 . S
C1410 C1411 1.367 . S
C1410 C1418 1.378 1_455 S
C1411 C1410 1.367 . S
C1411 C1419 1.433 . S
C1412 H1408 0.929 . S
C1412 C1414 1.378 . S
C1412 C1416 1.350 . S
C1413 C1416 1.463 . S
C1413 C1418 1.350 . S
C1413 N1421 1.427 1_655 S
C1414 H1405 0.930 . S
C1414 C1412 1.378 . S
C1414 C1415 1.367 . S
C1415 C1414 1.367 . S
C1415 C1417 1.433 . S
C1416 C1412 1.350 . S
C1416 C1413 1.463 . S
C1416 N1420 1.427 . S
C1417 H1407 0.929 . S
C1417 C1415 1.433 . S
C1417 N1420 1.384 . S
C1418 H1409 0.929 . S
C1418 C1410 1.378 1_655 S
C1418 C1413 1.350 . S
C1419 H1406 0.929 . S
C1419 C1411 1.433 . S
C1419 N1421 1.384 . S
N1420 C1416 1.427 . S
N1420 C1417 1.384 . S
N1421 C1413 1.427 1_455 S
N1421 C1419 1.384 . S
H1422 C1428 0.930 . S
H1423 C1432 0.930 . S
H1424 C1437 0.929 . S
H1425 C1435 0.929 . S
H1426 C1430 0.929 . S
H1427 C1436 0.929 . S
C1428 H1422 0.930 . S
C1428 C1429 1.367 . S
C1428 C1436 1.378 . S
C1429 C1428 1.367 . S
C1429 C1437 1.433 . S
C1430 H1426 0.929 . S
C1430 C1432 1.378 . S
C1430 C1434 1.350 . S
C1431 C1434 1.463 . S
C1431 C1436 1.350 . S
C1431 N1439 1.427 . S
C1432 H1423 0.930 . S
C1432 C1430 1.378 . S
C1432 C1433 1.367 . S
C1433 C1432 1.367 . S
C1433 C1435 1.433 . S
C1434 C1430 1.350 . S
C1434 C1431 1.463 . S
C1434 N1438 1.427 . S
C1435 H1425 0.929 . S
C1435 C1433 1.433 . S
C1435 N1438 1.384 . S
C1436 H1427 0.929 . S
C1436 C1428 1.378 . S
C1436 C1431 1.350 . S
C1437 H1424 0.929 . S
C1437 C1429 1.433 . S
C1437 N1439 1.384 . S
N1438 C1434 1.427 . S
N1438 C1435 1.384 . S
N1439 C1431 1.427 . S
N1439 C1437 1.384 . S
H1440 C1446 0.930 . S
H1441 C1450 0.930 . S
H1442 C1455 0.929 . S
H1443 C1453 0.929 . S
H1444 C1448 0.929 . S
H1445 C1454 0.929 . S
C1446 H1440 0.930 . S
C1446 C1447 1.367 . S
C1446 C1454 1.378 . S
C1447 C1446 1.367 . S
C1447 C1455 1.433 . S
C1448 H1444 0.929 . S
C1448 C1450 1.378 . S
C1448 C1452 1.350 . S
C1449 C1452 1.463 . S
C1449 C1454 1.350 1_545 S
C1449 N1457 1.427 . S
C1450 H1441 0.930 . S
C1450 C1448 1.378 . S
C1450 C1451 1.367 . S
C1451 C1450 1.367 . S
C1451 C1453 1.433 . S
C1452 C1448 1.350 . S
C1452 C1449 1.463 . S
C1452 N1456 1.427 . S
C1453 H1443 0.929 . S
C1453 C1451 1.433 . S
C1453 N1456 1.384 . S
C1454 H1445 0.929 . S
C1454 C1446 1.378 . S
C1454 C1449 1.350 1_565 S
C1455 H1442 0.929 . S
C1455 C1447 1.433 . S
C1455 N1457 1.384 1_565 S
N1456 C1452 1.427 . S
N1456 C1453 1.384 . S
N1457 C1449 1.427 . S
N1457 C1455 1.384 1_545 S
H1458 C1464 0.930 . S
H1459 C1468 0.930 . S
H1460 C1473 0.929 . S
H1461 C1471 0.929 . S
H1462 C1466 0.929 . S
H1463 C1472 0.929 . S
C1464 H1458 0.930 . S
C1464 C1465 1.367 . S
C1464 C1472 1.378 . S
C1465 C1464 1.367 . S
C1465 C1473 1.433 . S
C1466 H1462 0.929 . S
C1466 C1468 1.378 . S
C1466 C1470 1.350 . S
C1467 C1470 1.463 . S
C1467 C1472 1.350 1_655 S
C1467 N1475 1.427 . S
C1468 H1459 0.930 . S
C1468 C1466 1.378 . S
C1468 C1469 1.367 . S
C1469 C1468 1.367 . S
C1469 C1471 1.433 . S
C1470 C1466 1.350 . S
C1470 C1467 1.463 . S
C1470 N1474 1.427 . S
C1471 H1461 0.929 . S
C1471 C1469 1.433 . S
C1471 N1474 1.384 . S
C1472 H1463 0.929 . S
C1472 C1464 1.378 . S
C1472 C1467 1.350 1_455 S
C1473 H1460 0.929 . S
C1473 C1465 1.433 . S
C1473 N1475 1.384 1_455 S
N1474 C1470 1.427 . S
N1474 C1471 1.384 . S
N1475 C1467 1.427 . S
N1475 C1473 1.384 1_655 S
H1476 C1482 0.938 . S
H1477 C1486 0.930 . S
H1478 C1491 0.929 . S
H1479 C1489 0.929 . S
H1480 C1484 0.929 . S
H1481 C1490 0.929 . S
C1482 H1476 0.938 . S
C1482 C1483 1.376 . S
C1482 C1490 1.361 1_554 S
C1483 C1482 1.376 . S
C1483 C1491 1.433 . S
C1484 H1480 0.929 . S
C1484 C1486 1.378 . S
C1484 C1488 1.350 . S
C1485 C1488 1.463 . S
C1485 C1490 1.350 . S
C1485 N1493 1.427 . S
C1486 H1477 0.930 . S
C1486 C1484 1.378 . S
C1486 C1487 1.367 . S
C1487 C1486 1.367 . S
C1487 C1489 1.433 . S
C1488 C1484 1.350 . S
C1488 C1485 1.463 . S
C1488 N1492 1.427 . S
C1489 H1479 0.929 . S
C1489 C1487 1.433 . S
C1489 N1492 1.384 . S
C1490 H1481 0.929 . S
C1490 C1482 1.361 1_556 S
C1490 C1485 1.350 . S
C1491 H1478 0.929 . S
C1491 C1483 1.433 . S
C1491 N1493 1.384 1_554 S
N1492 C1488 1.427 . S
N1492 C1489 1.384 . S
N1493 C1485 1.427 . S
N1493 C1491 1.384 1_556 S
H1494 C1500 0.930 . S
H1495 C1504 0.930 . S
H1496 C1509 0.929 . S
H1497 C1507 0.929 . S
H1498 C1502 0.929 . S
H1499 C1508 0.929 . S
C1500 H1494 0.930 . S
C1500 C1501 1.367 . S
C1500 C1508 1.378 1_554 S
C1501 C1500 1.367 . S
C1501 C1509 1.433 . S
C1502 H1498 0.929 . S
C1502 C1504 1.378 . S
C1502 C1506 1.350 . S
C1503 C1506 1.463 . S
C1503 C1508 1.350 . S
C1503 N1511 1.427 . S
C1504 H1495 0.930 . S
C1504 C1502 1.378 . S
C1504 C1505 1.367 . S
C1505 C1504 1.367 . S
C1505 C1507 1.433 . S
C1506 C1502 1.350 . S
C1506 C1503 1.463 . S
C1506 N1510 1.427 . S
C1507 H1497 0.929 . S
C1507 C1505 1.433 . S
C1507 N1510 1.384 . S
C1508 H1499 0.929 . S
C1508 C1500 1.378 1_556 S
C1508 C1503 1.350 . S
C1509 H1496 0.929 . S
C1509 C1501 1.433 . S
C1509 N1511 1.384 1_554 S
N1510 C1506 1.427 . S
N1510 C1507 1.384 . S
N1511 C1503 1.427 . S
N1511 C1509 1.384 1_556 S
H1512 C1518 0.930 . S
H1513 C1522 0.930 . S
H1514 C1527 0.929 . S
H1515 C1525 0.929 . S
H1516 C1520 0.929 . S
H1517 C1526 0.929 . S
C1518 H1512 0.930 . S
C1518 C1519 1.367 . S
C1518 C1526 1.378 1_554 S
C1519 C1518 1.367 . S
C1519 C1527 1.433 . S
C1520 H1516 0.929 . S
C1520 C1522 1.378 . S
C1520 C1524 1.350 . S
C1521 C1524 1.463 . S
C1521 C1526 1.350 . S
C1521 N1529 1.427 . S
C1522 H1513 0.930 . S
C1522 C1520 1.378 . S
C1522 C1523 1.367 . S
C1523 C1522 1.367 . S
C1523 C1525 1.433 . S
C1524 C1520 1.350 . S
C1524 C1521 1.463 . S
C1524 N1528 1.427 . S
C1525 H1515 0.929 . S
C1525 C1523 1.433 . S
C1525 N1528 1.384 . S
C1526 H1517 0.929 . S
C1526 C1518 1.378 1_556 S
C1526 C1521 1.350 . S
C1527 H1514 0.929 . S
C1527 C1519 1.433 . S
C1527 N1529 1.384 1_554 S
N1528 C1524 1.427 . S
N1528 C1525 1.384 . S
N1529 C1521 1.427 . S
N1529 C1527 1.384 1_556 S
H1530 C1536 0.930 . S
H1531 C1540 0.930 . S
H1532 C1545 0.929 . S
H1533 C1543 0.929 . S
H1534 C1538 0.929 . S
H1535 C1544 0.929 . S
C1536 H1530 0.930 . S
C1536 C1537 1.367 . S
C1536 C1544 1.378 . S
C1537 C1536 1.367 . S
C1537 C1545 1.433 . S
C1538 H1534 0.929 . S
C1538 C1540 1.378 . S
C1538 C1542 1.350 . S
C1539 C1542 1.463 . S
C1539 C1544 1.350 . S
C1539 N1547 1.427 . S
C1540 H1531 0.930 . S
C1540 C1538 1.378 . S
C1540 C1541 1.367 . S
C1541 C1540 1.367 . S
C1541 C1543 1.433 . S
C1542 C1538 1.350 . S
C1542 C1539 1.463 . S
C1542 N1546 1.427 . S
C1543 H1533 0.929 . S
C1543 C1541 1.433 . S
C1543 N1546 1.384 . S
C1544 H1535 0.929 . S
C1544 C1536 1.378 . S
C1544 C1539 1.350 . S
C1545 H1532 0.929 . S
C1545 C1537 1.433 . S
C1545 N1547 1.384 . S
N1546 C1542 1.427 . S
N1546 C1543 1.384 . S
N1547 C1539 1.427 . S
N1547 C1545 1.384 . S
H1548 C1554 0.930 . S
H1549 C1558 0.930 . S
H1550 C1563 0.929 . S
H1551 C1561 0.929 . S
H1552 C1556 0.929 . S
H1553 C1562 0.929 . S
C1554 H1548 0.930 . S
C1554 C1555 1.367 . S
C1554 C1562 1.378 . S
C1555 C1554 1.367 . S
C1555 C1563 1.433 . S
C1556 H1552 0.929 . S
C1556 C1558 1.378 . S
C1556 C1560 1.350 . S
C1557 C1560 1.463 . S
C1557 C1562 1.350 . S
C1557 N1565 1.427 . S
C1558 H1549 0.930 . S
C1558 C1556 1.378 . S
C1558 C1559 1.367 . S
C1559 C1558 1.367 . S
C1559 C1561 1.433 . S
C1560 C1556 1.350 . S
C1560 C1557 1.463 . S
C1560 N1564 1.427 . S
C1561 H1551 0.929 . S
C1561 C1559 1.433 . S
C1561 N1564 1.384 . S
C1562 H1553 0.929 . S
C1562 C1554 1.378 . S
C1562 C1557 1.350 . S
C1563 H1550 0.929 . S
C1563 C1555 1.433 . S
C1563 N1565 1.384 . S
N1564 C1560 1.427 . S
N1564 C1561 1.384 . S
N1565 C1557 1.427 . S
N1565 C1563 1.384 . S
H1566 C1572 0.930 . S
H1567 C1576 0.930 . S
H1568 C1581 0.929 . S
H1569 C1579 0.929 . S
H1570 C1574 0.929 . S
H1571 C1580 0.929 . S
C1572 H1566 0.930 . S
C1572 C1573 1.367 . S
C1572 C1580 1.378 . S
C1573 C1572 1.367 . S
C1573 C1581 1.433 . S
C1574 H1570 0.929 . S
C1574 C1576 1.378 . S
C1574 C1578 1.350 . S
C1575 C1578 1.463 . S
C1575 C1580 1.350 . S
C1575 N1583 1.427 . S
C1576 H1567 0.930 . S
C1576 C1574 1.378 . S
C1576 C1577 1.367 . S
C1577 C1576 1.367 . S
C1577 C1579 1.433 . S
C1578 C1574 1.350 . S
C1578 C1575 1.463 . S
C1578 N1582 1.427 . S
C1579 H1569 0.929 . S
C1579 C1577 1.433 . S
C1579 N1582 1.384 . S
C1580 H1571 0.929 . S
C1580 C1572 1.378 . S
C1580 C1575 1.350 . S
C1581 H1568 0.929 . S
C1581 C1573 1.433 . S
C1581 N1583 1.384 . S
N1582 C1578 1.427 . S
N1582 C1579 1.384 . S
N1583 C1575 1.427 . S
N1583 C1581 1.384 . S
H1584 C1590 0.930 . S
H1585 C1594 0.930 . S
H1586 C1599 0.929 . S
H1587 C1597 0.929 . S
H1588 C1592 0.929 . S
H1589 C1598 0.929 . S
C1590 H1584 0.930 . S
C1590 C1591 1.367 . S
C1590 C1598 1.378 . S
C1591 C1590 1.367 . S
C1591 C1599 1.433 . S
C1592 H1588 0.929 . S
C1592 C1594 1.378 1_554 S
C1592 C1596 1.350 . S
C1593 C1596 1.463 . S
C1593 C1598 1.350 . S
C1593 N1601 1.427 . S
C1594 H1585 0.930 . S
C1594 C1592 1.378 1_556 S
C1594 C1595 1.367 . S
C1595 C1594 1.367 . S
C1595 C1597 1.433 . S
C1596 C1592 1.350 . S
C1596 C1593 1.463 . S
C1596 N1600 1.427 . S
C1597 H1587 0.929 . S
C1597 C1595 1.433 . S
C1597 N1600 1.384 1_556 S
C1598 H1589 0.929 . S
C1598 C1590 1.378 . S
C1598 C1593 1.350 . S
C1599 H1586 0.929 . S
C1599 C1591 1.433 . S
C1599 N1601 1.384 . S
N1600 C1596 1.427 . S
N1600 C1597 1.384 1_554 S
N1601 C1593 1.427 . S
N1601 C1599 1.384 . S
H1602 C1608 0.930 . S
H1603 C1612 0.930 . S
H1604 C1617 0.929 . S
H1605 C1615 0.929 . S
H1606 C1610 0.929 . S
H1607 C1616 0.929 . S
C1608 H1602 0.930 . S
C1608 C1609 1.367 . S
C1608 C1616 1.378 . S
C1609 C1608 1.367 . S
C1609 C1617 1.433 . S
C1610 H1606 0.929 . S
C1610 C1612 1.378 1_554 S
C1610 C1614 1.350 . S
C1611 C1614 1.463 . S
C1611 C1616 1.350 . S
C1611 N1619 1.427 . S
C1612 H1603 0.930 . S
C1612 C1610 1.378 1_556 S
C1612 C1613 1.367 . S
C1613 C1612 1.367 . S
C1613 C1615 1.433 . S
C1614 C1610 1.350 . S
C1614 C1611 1.463 . S
C1614 N1618 1.427 . S
C1615 H1605 0.929 . S
C1615 C1613 1.433 . S
C1615 N1618 1.384 1_556 S
C1616 H1607 0.929 . S
C1616 C1608 1.378 . S
C1616 C1611 1.350 . S
C1617 H1604 0.929 . S
C1617 C1609 1.433 . S
C1617 N1619 1.384 . S
N1618 C1614 1.427 . S
N1618 C1615 1.384 1_554 S
N1619 C1611 1.427 . S
N1619 C1617 1.384 . S
H1620 C1626 0.930 . S
H1621 C1630 0.930 . S
H1622 C1635 0.929 . S
H1623 C1633 0.929 . S
H1624 C1628 0.929 . S
H1625 C1634 0.929 . S
C1626 H1620 0.930 . S
C1626 C1627 1.367 . S
C1626 C1634 1.378 . S
C1627 C1626 1.367 . S
C1627 C1635 1.433 . S
C1628 H1624 0.929 . S
C1628 C1630 1.378 . S
C1628 C1632 1.350 . S
C1629 C1632 1.463 . S
C1629 C1634 1.350 . S
C1629 N1637 1.427 . S
C1630 H1621 0.930 . S
C1630 C1628 1.378 . S
C1630 C1631 1.367 1_554 S
C1631 C1630 1.367 1_556 S
C1631 C1633 1.433 . S
C1632 C1628 1.350 . S
C1632 C1629 1.463 . S
C1632 N1636 1.427 . S
C1633 H1623 0.929 . S
C1633 C1631 1.433 . S
C1633 N1636 1.384 1_556 S
C1634 H1625 0.929 . S
C1634 C1626 1.378 . S
C1634 C1629 1.350 . S
C1635 H1622 0.929 . S
C1635 C1627 1.433 . S
C1635 N1637 1.384 . S
N1636 C1632 1.427 . S
N1636 C1633 1.384 1_554 S
N1637 C1629 1.427 . S
N1637 C1635 1.384 . S
H1638 C1644 0.930 . S
H1639 C1648 0.930 . S
H1640 C1653 0.929 . S
H1641 C1651 0.929 . S
H1642 C1646 0.929 . S
H1643 C1652 0.929 . S
C1644 H1638 0.930 . S
C1644 C1645 1.367 . S
C1644 C1652 1.378 . S
C1645 C1644 1.367 . S
C1645 C1653 1.433 . S
C1646 H1642 0.929 . S
C1646 C1648 1.378 . S
C1646 C1650 1.350 . S
C1647 C1650 1.463 . S
C1647 C1652 1.350 . S
C1647 N1655 1.427 . S
C1648 H1639 0.930 . S
C1648 C1646 1.378 . S
C1648 C1649 1.367 . S
C1649 C1648 1.367 . S
C1649 C1651 1.433 . S
C1650 C1646 1.350 . S
C1650 C1647 1.463 . S
C1650 N1654 1.427 . S
C1651 H1641 0.929 . S
C1651 C1649 1.433 . S
C1651 N1654 1.384 . S
C1652 H1643 0.929 . S
C1652 C1644 1.378 . S
C1652 C1647 1.350 . S
C1653 H1640 0.929 . S
C1653 C1645 1.433 . S
C1653 N1655 1.384 . S
N1654 C1650 1.427 . S
N1654 C1651 1.384 . S
N1655 C1647 1.427 . S
N1655 C1653 1.384 . S
H1656 C1662 0.930 . S
H1657 C1666 0.930 . S
H1658 C1671 0.929 . S
H1659 C1669 0.929 . S
H1660 C1664 0.929 . S
H1661 C1670 0.929 . S
C1662 H1656 0.930 . S
C1662 C1663 1.367 . S
C1662 C1670 1.378 . S
C1663 C1662 1.367 . S
C1663 C1671 1.433 . S
C1664 H1660 0.929 . S
C1664 C1666 1.378 . S
C1664 C1668 1.350 . S
C1665 C1668 1.463 . S
C1665 C1670 1.350 . S
C1665 N1673 1.427 . S
C1666 H1657 0.930 . S
C1666 C1664 1.378 . S
C1666 C1667 1.367 . S
C1667 C1666 1.367 . S
C1667 C1669 1.433 . S
C1668 C1664 1.350 . S
C1668 C1665 1.463 . S
C1668 N1672 1.427 . S
C1669 H1659 0.929 . S
C1669 C1667 1.433 . S
C1669 N1672 1.384 . S
C1670 H1661 0.929 . S
C1670 C1662 1.378 . S
C1670 C1665 1.350 . S
C1671 H1658 0.929 . S
C1671 C1663 1.433 . S
C1671 N1673 1.384 . S
N1672 C1668 1.427 . S
N1672 C1669 1.384 . S
N1673 C1665 1.427 . S
N1673 C1671 1.384 . S
H1674 C1680 0.930 . S
H1675 C1684 0.930 . S
H1676 C1689 0.929 . S
H1677 C1687 0.929 . S
H1678 C1682 0.929 . S
H1679 C1688 0.929 . S
C1680 H1674 0.930 . S
C1680 C1681 1.367 . S
C1680 C1688 1.378 . S
C1681 C1680 1.367 . S
C1681 C1689 1.433 . S
C1682 H1678 0.929 . S
C1682 C1684 1.378 . S
C1682 C1686 1.350 . S
C1683 C1686 1.463 . S
C1683 C1688 1.350 . S
C1683 N1691 1.427 . S
C1684 H1675 0.930 . S
C1684 C1682 1.378 . S
C1684 C1685 1.367 . S
C1685 C1684 1.367 . S
C1685 C1687 1.433 . S
C1686 C1682 1.350 . S
C1686 C1683 1.463 . S
C1686 N1690 1.427 . S
C1687 H1677 0.929 . S
C1687 C1685 1.433 . S
C1687 N1690 1.384 . S
C1688 H1679 0.929 . S
C1688 C1680 1.378 . S
C1688 C1683 1.350 . S
C1689 H1676 0.929 . S
C1689 C1681 1.433 . S
C1689 N1691 1.384 . S
N1690 C1686 1.427 . S
N1690 C1687 1.384 . S
N1691 C1683 1.427 . S
N1691 C1689 1.384 . S
H1692 C1698 0.930 . S
H1693 C1702 0.930 . S
H1694 C1707 0.929 . S
H1695 C1705 0.929 . S
H1696 C1700 0.929 . S
H1697 C1706 0.929 . S
C1698 H1692 0.930 . S
C1698 C1699 1.367 . S
C1698 C1706 1.378 . S
C1699 C1698 1.367 . S
C1699 C1707 1.433 . S
C1700 H1696 0.929 . S
C1700 C1702 1.378 . S
C1700 C1704 1.350 . S
C1701 C1704 1.463 . S
C1701 C1706 1.350 . S
C1701 N1709 1.427 . S
C1702 H1693 0.930 . S
C1702 C1700 1.378 . S
C1702 C1703 1.367 . S
C1703 C1702 1.367 . S
C1703 C1705 1.433 . S
C1704 C1700 1.350 . S
C1704 C1701 1.463 . S
C1704 N1708 1.427 . S
C1705 H1695 0.929 . S
C1705 C1703 1.433 . S
C1705 N1708 1.384 . S
C1706 H1697 0.929 . S
C1706 C1698 1.378 . S
C1706 C1701 1.350 . S
C1707 H1694 0.929 . S
C1707 C1699 1.433 . S
C1707 N1709 1.384 . S
N1708 C1704 1.427 . S
N1708 C1705 1.384 . S
N1709 C1701 1.427 . S
N1709 C1707 1.384 . S
H1710 C1716 0.930 . S
H1711 C1720 0.930 . S
H1712 C1725 0.929 . S
H1713 C1723 0.929 . S
H1714 C1718 0.929 . S
H1715 C1724 0.929 . S
C1716 H1710 0.930 . S
C1716 C1717 1.367 . S
C1716 C1724 1.378 . S
C1717 C1716 1.367 . S
C1717 C1725 1.433 . S
C1718 H1714 0.929 . S
C1718 C1720 1.378 . S
C1718 C1722 1.350 . S
C1719 C1722 1.463 . S
C1719 C1724 1.350 . S
C1719 N1727 1.427 . S
C1720 H1711 0.930 . S
C1720 C1718 1.378 . S
C1720 C1721 1.367 . S
C1721 C1720 1.367 . S
C1721 C1723 1.433 . S
C1722 C1718 1.350 . S
C1722 C1719 1.463 . S
C1722 N1726 1.427 . S
C1723 H1713 0.929 . S
C1723 C1721 1.433 . S
C1723 N1726 1.384 . S
C1724 H1715 0.929 . S
C1724 C1716 1.378 . S
C1724 C1719 1.350 . S
C1725 H1712 0.929 . S
C1725 C1717 1.433 . S
C1725 N1727 1.384 . S
N1726 C1722 1.427 . S
N1726 C1723 1.384 . S
N1727 C1719 1.427 . S
N1727 C1725 1.384 . S
H1728 C1734 0.940 . S
H1729 C1738 0.930 . S
H1730 C1743 0.929 . S
H1731 C1741 0.929 1_545 S
H1732 C1736 0.929 . S
H1733 C1742 0.886 1_545 S
C1734 H1728 0.940 . S
C1734 C1735 1.367 . S
C1734 C1742 1.378 . S
C1735 C1734 1.367 . S
C1735 C1743 1.433 . S
C1736 H1732 0.929 . S
C1736 C1738 1.378 . S
C1736 C1740 1.350 . S
C1737 C1740 1.463 . S
C1737 C1742 1.350 . S
C1737 N1745 1.427 . S
C1738 H1729 0.930 . S
C1738 C1736 1.378 . S
C1738 C1739 1.367 . S
C1739 C1738 1.367 . S
C1739 C1741 1.433 . S
C1740 C1736 1.350 . S
C1740 C1737 1.463 . S
C1740 N1744 1.427 . S
C1741 H1731 0.929 1_565 S
C1741 C1739 1.433 . S
C1741 N1744 1.384 . S
C1742 H1733 0.886 1_565 S
C1742 C1734 1.378 . S
C1742 C1737 1.350 . S
C1743 H1730 0.929 . S
C1743 C1735 1.433 . S
C1743 N1745 1.384 . S
N1744 C1740 1.427 . S
N1744 C1741 1.384 . S
N1745 C1737 1.427 . S
N1745 C1743 1.384 . S
H1746 C1752 0.930 . S
H1747 C1756 0.930 . S
H1748 C1761 0.929 1_565 S
H1749 C1759 0.929 . S
H1750 C1754 0.967 . S
H1751 C1760 0.929 . S
C1752 H1746 0.930 . S
C1752 C1753 1.367 . S
C1752 C1760 1.378 . S
C1753 C1752 1.367 . S
C1753 C1761 1.433 . S
C1754 H1750 0.967 . S
C1754 C1756 1.378 . S
C1754 C1758 1.350 . S
C1755 C1758 1.463 . S
C1755 C1760 1.350 . S
C1755 N1763 1.427 . S
C1756 H1747 0.930 . S
C1756 C1754 1.378 . S
C1756 C1757 1.367 . S
C1757 C1756 1.367 . S
C1757 C1759 1.433 . S
C1758 C1754 1.350 . S
C1758 C1755 1.463 . S
C1758 N1762 1.427 . S
C1759 H1749 0.929 . S
C1759 C1757 1.433 . S
C1759 N1762 1.384 . S
C1760 H1751 0.929 . S
C1760 C1752 1.378 . S
C1760 C1755 1.350 . S
C1761 H1748 0.929 1_545 S
C1761 C1753 1.433 . S
C1761 N1763 1.384 . S
N1762 C1758 1.427 . S
N1762 C1759 1.384 . S
N1763 C1755 1.427 . S
N1763 C1761 1.384 . S
H1764 C1770 0.930 . S
H1765 C1774 0.930 . S
H1766 C1779 0.929 . S
H1767 C1777 0.929 . S
H1768 C1772 0.929 . S
H1769 C1778 0.929 . S
C1770 H1764 0.930 . S
C1770 C1771 1.367 . S
C1770 C1778 1.378 . S
C1771 C1770 1.367 . S
C1771 C1779 1.433 . S
C1772 H1768 0.929 . S
C1772 C1774 1.378 . S
C1772 C1776 1.350 . S
C1773 C1776 1.463 . S
C1773 C1778 1.350 . S
C1773 N1781 1.427 . S
C1774 H1765 0.930 . S
C1774 C1772 1.378 . S
C1774 C1775 1.367 . S
C1775 C1774 1.367 . S
C1775 C1777 1.433 . S
C1776 C1772 1.350 . S
C1776 C1773 1.463 . S
C1776 N1780 1.427 . S
C1777 H1767 0.929 . S
C1777 C1775 1.433 . S
C1777 N1780 1.384 . S
C1778 H1769 0.929 . S
C1778 C1770 1.378 . S
C1778 C1773 1.350 . S
C1779 H1766 0.929 . S
C1779 C1771 1.433 . S
C1779 N1781 1.384 . S
N1780 C1776 1.427 . S
N1780 C1777 1.384 . S
N1781 C1773 1.427 . S
N1781 C1779 1.384 . S
H1782 C1788 0.930 . S
H1783 C1792 0.930 . S
H1784 C1797 0.929 . S
H1785 C1795 0.929 . S
H1786 C1790 0.929 . S
H1787 C1796 0.929 . S
C1788 H1782 0.930 . S
C1788 C1789 1.367 . S
C1788 C1796 1.378 . S
C1789 C1788 1.367 . S
C1789 C1797 1.433 . S
C1790 H1786 0.929 . S
C1790 C1792 1.378 . S
C1790 C1794 1.350 . S
C1791 C1794 1.463 . S
C1791 C1796 1.350 . S
C1791 N1799 1.427 . S
C1792 H1783 0.930 . S
C1792 C1790 1.378 . S
C1792 C1793 1.367 . S
C1793 C1792 1.367 . S
C1793 C1795 1.433 . S
C1794 C1790 1.350 . S
C1794 C1791 1.463 . S
C1794 N1798 1.427 . S
C1795 H1785 0.929 . S
C1795 C1793 1.433 . S
C1795 N1798 1.384 . S
C1796 H1787 0.929 . S
C1796 C1788 1.378 . S
C1796 C1791 1.350 . S
C1797 H1784 0.929 . S
C1797 C1789 1.433 . S
C1797 N1799 1.384 . S
N1798 C1794 1.427 . S
N1798 C1795 1.384 . S
N1799 C1791 1.427 . S
N1799 C1797 1.384 . S
C511 C232 1.579 . S
C515 C3 1.556 . S
C529 C241 1.462 . S
C533 C22 1.486 . S
C547 C213 1.630 . S
C551 C31 1.644 . S
C565 C367 1.731 . S
C569 C45 1.728 . S
C583 C64 1.506 . S
C587 C339 1.472 . S
C601 C73 1.444 . S
C605 C358 1.461 . S
C619 C92 1.354 . S
C623 C484 1.358 . S
C637 C498 1.321 . S
C641 C106 1.320 . S
C655 C470 1.662 . S
C659 C120 1.678 . S
C673 C134 1.343 . S
C677 C288 1.347 . S
C691 C260 1.311 . S
C695 C148 1.314 . S
C709 C162 1.279 . S
C713 C274 1.284 . S
C727 C400 1.475 . S
C731 C171 1.442 . S
C745 C190 1.406 . S
C749 C409 1.394 . S
C763 C381 1.537 . S
C767 C199 1.541 . S
C781 C456 1.264 . S
C785 C302 1.261 . S
C799 C428 1.262 . S
C803 C316 1.269 . S
C817 C330 1.259 . S
C821 C442 1.247 . S
C835 C259 1.170 . S
C839 C9 1.170 . S
C853 C273 1.427 . S
C857 C21 1.422 . S
C871 C287 2.202 . S
C875 C37 1.995 . S
C889 C51 1.250 . S
C893 C469 1.285 . S
C907 C63 2.161 . S
C911 C483 2.126 . S
C925 C79 1.354 . S
C929 C497 1.389 . S
C943 C91 1.179 . S
C947 C345 1.156 . S
C961 C357 1.427 . S
C965 C105 1.432 . S
C979 C373 1.349 . S
C983 C119 1.493 . S
C997 C219 1.196 . S
C1001 C133 1.194 . S
C1015 C147 2.136 . S
C1019 C231 2.184 . S
C1033 C161 1.387 . S
C1037 C247 1.352 . S
C1051 C177 1.171 . S
C1055 C427 1.226 . S
C1069 C441 1.300 . S
C1073 C189 1.300 . S
C1087 C455 1.861 . S
C1091 C205 1.662 . S
C1105 C387 1.190 . S
C1109 C301 1.215 1_554 S
C1123 C315 1.851 1_554 S
C1127 C399 1.876 1_556 S
C1141 C329 1.721 1_554 S
C1145 C415 1.700 . S
C1159 C386 1.507 . S
C1163 C8 1.501 . S
C1177 C17 1.435 . S
C1181 C395 1.372 . S
C1195 C36 1.573 . S
C1199 C414 1.661 . S
C1213 C176 1.452 . S
C1217 C50 1.444 . S
C1231 C59 1.354 . S
C1235 C185 1.488 . S
C1249 C78 1.577 . S
C1253 C204 1.506 . S
C1267 C297 1.458 . S
C1271 C87 1.487 . S
C1285 C101 1.549 . S
C1289 C311 1.422 . S
C1303 C325 1.367 . S
C1307 C115 1.520 . S
C1321 C129 1.459 . S
C1325 C423 1.445 . S
C1339 C437 1.899 . S
C1343 C143 1.672 . S
C1357 C451 1.259 . S
C1361 C157 1.312 . S
C1375 C344 1.597 . S
C1379 C218 1.597 . S
C1393 C353 1.483 . S
C1397 C227 1.381 . S
C1411 C372 1.395 . S
C1415 C246 1.428 . S
C1429 C255 1.428 . S
C1433 C465 1.401 . S
C1447 C479 1.550 . S
C1451 C269 1.754 . S
C1465 C493 1.581 . S
C1469 C283 1.411 . S
C1483 C7 0.969 . S
C1487 C233 0.946 . S
C1501 C23 0.901 . S
C1505 C245 0.938 . S
C1519 C35 1.027 . S
C1523 C217 1.025 . S
C1537 C371 1.197 . S
C1541 C49 1.193 . S
C1555 C343 0.924 . S
C1559 C65 0.913 . S
C1573 C359 0.910 . S
C1577 C77 0.928 . S
C1591 C485 0.735 . S
C1595 C93 0.734 . S
C1609 C499 0.811 . S
C1613 C107 0.802 . S
C1627 C471 1.102 . S
C1631 C121 1.100 . S
C1645 C135 0.807 . S
C1649 C289 0.804 . S
C1663 C149 0.794 . S
C1667 C261 0.797 . S
C1681 C163 0.810 . S
C1685 C275 0.801 . S
C1699 C401 0.945 . S
C1703 C175 0.986 . S
C1717 C413 0.982 . S
C1721 C191 0.939 . S
C1735 C203 1.135 . S
C1739 C385 1.134 . S
C1753 C303 0.890 . S
C1757 C457 0.899 . S
C1771 C429 0.807 . S
C1775 C317 0.809 . S
C1789 C443 0.812 . S
C1793 C331 0.816 . S
