# Generated by pormake.
# Topology wgd, (5)-cn, num edge types: 1
# Building blocks:
#     Node 0, Type 0, BuildingBlock: BEQFEK_clean_sbu_0, # of connection points: 5
#     Node 1, Type 0, BuildingBlock: BEQFEK_clean_sbu_0, # of connection points: 5
#     Node 2, Type 0, BuildingBlock: BEQFEK_clean_sbu_0, # of connection points: 5
#     Node 3, Type 0, BuildingBlock: BEQFEK_clean_sbu_0, # of connection points: 5
#     Node 4, Type 0, BuildingBlock: BEQFEK_clean_sbu_0, # of connection points: 5
#     Node 5, Type 0, BuildingBlock: BEQFEK_clean_sbu_0, # of connection points: 5
#     Node 6, Type 0, BuildingBlock: BEQFEK_clean_sbu_0, # of connection points: 5
#     Node 7, Type 0, BuildingBlock: BEQFEK_clean_sbu_0, # of connection points: 5
#     Node 8, Type 0, BuildingBlock: BEQFEK_clean_sbu_0, # of connection points: 5
#     Node 9, Type 0, BuildingBlock: BEQFEK_clean_sbu_0, # of connection points: 5
#     Node 10, Type 0, BuildingBlock: BEQFEK_clean_sbu_0, # of connection points: 5
#     Node 11, Type 0, BuildingBlock: BEQFEK_clean_sbu_0, # of connection points: 5
#     Node 12, Type 0, BuildingBlock: BEQFEK_clean_sbu_0, # of connection points: 5
#     Node 13, Type 0, BuildingBlock: BEQFEK_clean_sbu_0, # of connection points: 5
#     Node 14, Type 0, BuildingBlock: BEQFEK_clean_sbu_0, # of connection points: 5
#     Node 15, Type 0, BuildingBlock: BEQFEK_clean_sbu_0, # of connection points: 5
#     Node 16, Type 0, BuildingBlock: BEQFEK_clean_sbu_0, # of connection points: 5
#     Node 17, Type 0, BuildingBlock: BEQFEK_clean_sbu_0, # of connection points: 5
#     Node 18, Type 0, BuildingBlock: BEQFEK_clean_sbu_0, # of connection points: 5
#     Node 19, Type 0, BuildingBlock: BEQFEK_clean_sbu_0, # of connection points: 5
#     Node 20, Type 0, BuildingBlock: BEQFEK_clean_sbu_0, # of connection points: 5
#     Node 21, Type 0, BuildingBlock: BEQFEK_clean_sbu_0, # of connection points: 5
#     Node 22, Type 0, BuildingBlock: BEQFEK_clean_sbu_0, # of connection points: 5
#     Node 23, Type 0, BuildingBlock: BEQFEK_clean_sbu_0, # of connection points: 5
#     Node 24, Type 0, BuildingBlock: BEQFEK_clean_sbu_0, # of connection points: 5
#     Node 25, Type 0, BuildingBlock: BEQFEK_clean_sbu_0, # of connection points: 5
#     Node 26, Type 0, BuildingBlock: BEQFEK_clean_sbu_0, # of connection points: 5
#     Node 27, Type 0, BuildingBlock: BEQFEK_clean_sbu_0, # of connection points: 5
#     Node 28, Type 0, BuildingBlock: BEQFEK_clean_sbu_0, # of connection points: 5
#     Node 29, Type 0, BuildingBlock: BEQFEK_clean_sbu_0, # of connection points: 5
#     Node 30, Type 0, BuildingBlock: BEQFEK_clean_sbu_0, # of connection points: 5
#     Node 31, Type 0, BuildingBlock: BEQFEK_clean_sbu_0, # of connection points: 5
#     Edge 32, Type (0, 0), BuildingBlock: CIFDUS_clean_linker_0, # of connection points: 2
#     Edge 33, Type (0, 0), BuildingBlock: CIFDUS_clean_linker_0, # of connection points: 2
#     Edge 34, Type (0, 0), BuildingBlock: CIFDUS_clean_linker_0, # of connection points: 2
#     Edge 35, Type (0, 0), BuildingBlock: CIFDUS_clean_linker_0, # of connection points: 2
#     Edge 36, Type (0, 0), BuildingBlock: CIFDUS_clean_linker_0, # of connection points: 2
#     Edge 37, Type (0, 0), BuildingBlock: CIFDUS_clean_linker_0, # of connection points: 2
#     Edge 38, Type (0, 0), BuildingBlock: CIFDUS_clean_linker_0, # of connection points: 2
#     Edge 39, Type (0, 0), BuildingBlock: CIFDUS_clean_linker_0, # of connection points: 2
#     Edge 40, Type (0, 0), BuildingBlock: CIFDUS_clean_linker_0, # of connection points: 2
#     Edge 41, Type (0, 0), BuildingBlock: CIFDUS_clean_linker_0, # of connection points: 2
#     Edge 42, Type (0, 0), BuildingBlock: CIFDUS_clean_linker_0, # of connection points: 2
#     Edge 43, Type (0, 0), BuildingBlock: CIFDUS_clean_linker_0, # of connection points: 2
#     Edge 44, Type (0, 0), BuildingBlock: CIFDUS_clean_linker_0, # of connection points: 2
#     Edge 45, Type (0, 0), BuildingBlock: CIFDUS_clean_linker_0, # of connection points: 2
#     Edge 46, Type (0, 0), BuildingBlock: CIFDUS_clean_linker_0, # of connection points: 2
#     Edge 47, Type (0, 0), BuildingBlock: CIFDUS_clean_linker_0, # of connection points: 2
#     Edge 48, Type (0, 0), BuildingBlock: CIFDUS_clean_linker_0, # of connection points: 2
#     Edge 49, Type (0, 0), BuildingBlock: CIFDUS_clean_linker_0, # of connection points: 2
#     Edge 50, Type (0, 0), BuildingBlock: CIFDUS_clean_linker_0, # of connection points: 2
#     Edge 51, Type (0, 0), BuildingBlock: CIFDUS_clean_linker_0, # of connection points: 2
#     Edge 52, Type (0, 0), BuildingBlock: CIFDUS_clean_linker_0, # of connection points: 2
#     Edge 53, Type (0, 0), BuildingBlock: CIFDUS_clean_linker_0, # of connection points: 2
#     Edge 54, Type (0, 0), BuildingBlock: CIFDUS_clean_linker_0, # of connection points: 2
#     Edge 55, Type (0, 0), BuildingBlock: CIFDUS_clean_linker_0, # of connection points: 2
#     Edge 56, Type (0, 0), BuildingBlock: CIFDUS_clean_linker_0, # of connection points: 2
#     Edge 57, Type (0, 0), BuildingBlock: CIFDUS_clean_linker_0, # of connection points: 2
#     Edge 58, Type (0, 0), BuildingBlock: CIFDUS_clean_linker_0, # of connection points: 2
#     Edge 59, Type (0, 0), BuildingBlock: CIFDUS_clean_linker_0, # of connection points: 2
#     Edge 60, Type (0, 0), BuildingBlock: CIFDUS_clean_linker_0, # of connection points: 2
#     Edge 61, Type (0, 0), BuildingBlock: CIFDUS_clean_linker_0, # of connection points: 2
#     Edge 62, Type (0, 0), BuildingBlock: CIFDUS_clean_linker_0, # of connection points: 2
#     Edge 63, Type (0, 0), BuildingBlock: CIFDUS_clean_linker_0, # of connection points: 2
#     Edge 64, Type (0, 0), BuildingBlock: CIFDUS_clean_linker_0, # of connection points: 2
#     Edge 65, Type (0, 0), BuildingBlock: CIFDUS_clean_linker_0, # of connection points: 2
#     Edge 66, Type (0, 0), BuildingBlock: CIFDUS_clean_linker_0, # of connection points: 2
#     Edge 67, Type (0, 0), BuildingBlock: CIFDUS_clean_linker_0, # of connection points: 2
#     Edge 68, Type (0, 0), BuildingBlock: CIFDUS_clean_linker_0, # of connection points: 2
#     Edge 69, Type (0, 0), BuildingBlock: CIFDUS_clean_linker_0, # of connection points: 2
#     Edge 70, Type (0, 0), BuildingBlock: CIFDUS_clean_linker_0, # of connection points: 2
#     Edge 71, Type (0, 0), BuildingBlock: CIFDUS_clean_linker_0, # of connection points: 2
#     Edge 72, Type (0, 0), BuildingBlock: CIFDUS_clean_linker_0, # of connection points: 2
#     Edge 73, Type (0, 0), BuildingBlock: CIFDUS_clean_linker_0, # of connection points: 2
#     Edge 74, Type (0, 0), BuildingBlock: CIFDUS_clean_linker_0, # of connection points: 2
#     Edge 75, Type (0, 0), BuildingBlock: CIFDUS_clean_linker_0, # of connection points: 2
#     Edge 76, Type (0, 0), BuildingBlock: CIFDUS_clean_linker_0, # of connection points: 2
#     Edge 77, Type (0, 0), BuildingBlock: CIFDUS_clean_linker_0, # of connection points: 2
#     Edge 78, Type (0, 0), BuildingBlock: CIFDUS_clean_linker_0, # of connection points: 2
#     Edge 79, Type (0, 0), BuildingBlock: CIFDUS_clean_linker_0, # of connection points: 2
#     Edge 80, Type (0, 0), BuildingBlock: CIFDUS_clean_linker_0, # of connection points: 2
#     Edge 81, Type (0, 0), BuildingBlock: CIFDUS_clean_linker_0, # of connection points: 2
#     Edge 82, Type (0, 0), BuildingBlock: CIFDUS_clean_linker_0, # of connection points: 2
#     Edge 83, Type (0, 0), BuildingBlock: CIFDUS_clean_linker_0, # of connection points: 2
#     Edge 84, Type (0, 0), BuildingBlock: CIFDUS_clean_linker_0, # of connection points: 2
#     Edge 85, Type (0, 0), BuildingBlock: CIFDUS_clean_linker_0, # of connection points: 2
#     Edge 86, Type (0, 0), BuildingBlock: CIFDUS_clean_linker_0, # of connection points: 2
#     Edge 87, Type (0, 0), BuildingBlock: CIFDUS_clean_linker_0, # of connection points: 2
#     Edge 88, Type (0, 0), BuildingBlock: CIFDUS_clean_linker_0, # of connection points: 2
#     Edge 89, Type (0, 0), BuildingBlock: CIFDUS_clean_linker_0, # of connection points: 2
#     Edge 90, Type (0, 0), BuildingBlock: CIFDUS_clean_linker_0, # of connection points: 2
#     Edge 91, Type (0, 0), BuildingBlock: CIFDUS_clean_linker_0, # of connection points: 2
#     Edge 92, Type (0, 0), BuildingBlock: CIFDUS_clean_linker_0, # of connection points: 2
#     Edge 93, Type (0, 0), BuildingBlock: CIFDUS_clean_linker_0, # of connection points: 2
#     Edge 94, Type (0, 0), BuildingBlock: CIFDUS_clean_linker_0, # of connection points: 2
#     Edge 95, Type (0, 0), BuildingBlock: CIFDUS_clean_linker_0, # of connection points: 2
#     Edge 96, Type (0, 0), BuildingBlock: CIFDUS_clean_linker_0, # of connection points: 2
#     Edge 97, Type (0, 0), BuildingBlock: CIFDUS_clean_linker_0, # of connection points: 2
#     Edge 98, Type (0, 0), BuildingBlock: CIFDUS_clean_linker_0, # of connection points: 2
#     Edge 99, Type (0, 0), BuildingBlock: CIFDUS_clean_linker_0, # of connection points: 2
#     Edge 100, Type (0, 0), BuildingBlock: CIFDUS_clean_linker_0, # of connection points: 2
#     Edge 101, Type (0, 0), BuildingBlock: CIFDUS_clean_linker_0, # of connection points: 2
#     Edge 102, Type (0, 0), BuildingBlock: CIFDUS_clean_linker_0, # of connection points: 2
#     Edge 103, Type (0, 0), BuildingBlock: CIFDUS_clean_linker_0, # of connection points: 2
#     Edge 104, Type (0, 0), BuildingBlock: CIFDUS_clean_linker_0, # of connection points: 2
#     Edge 105, Type (0, 0), BuildingBlock: CIFDUS_clean_linker_0, # of connection points: 2
#     Edge 106, Type (0, 0), BuildingBlock: CIFDUS_clean_linker_0, # of connection points: 2
#     Edge 107, Type (0, 0), BuildingBlock: CIFDUS_clean_linker_0, # of connection points: 2
#     Edge 108, Type (0, 0), BuildingBlock: CIFDUS_clean_linker_0, # of connection points: 2
#     Edge 109, Type (0, 0), BuildingBlock: CIFDUS_clean_linker_0, # of connection points: 2
#     Edge 110, Type (0, 0), BuildingBlock: CIFDUS_clean_linker_0, # of connection points: 2
#     Edge 111, Type (0, 0), BuildingBlock: CIFDUS_clean_linker_0, # of connection points: 2
# Relax obj value: 0.296
# Max RMSD: 0.233
# Mean RMSD: 0.233
data_MOF--net-wgd--node1-BEQFEK_clean_sbu_0--edge1-CIFDUS_clean_linker_0
_symmetry_space_group_name_H-M    P1
_symmetry_Int_Tables_number       1
_symmetry_cell_setting            triclinic
loop_
_symmetry_equiv_pos_as_xyz
'x, y, z'
_cell_length_a     88.55534
_cell_length_b     88.54677
_cell_length_c     16.535405
_cell_angle_alpha  90.045405
_cell_angle_beta   89.955916
_cell_angle_gamma 90.002503
loop_
_atom_site_label
_atom_site_type_symbol
_atom_site_fract_x
_atom_site_fract_y
_atom_site_fract_z
_atom_type_partial_charge
Co0 Co 0.17814 0.17707 0.13434 0.0
Co1 Co 0.19719 0.17415 0.97676 0.0
C2 C 0.18201 0.20353 0.0305 0.0
O3 O 0.17538 0.19765 0.09099 0.0
O4 O 0.19066 0.1957 0.98544 0.0
C5 C 0.1749 0.18514 0.28741 0.0
O6 O 0.18255 0.19607 0.25262 0.0
C7 C 0.19616 0.17546 0.80273 0.0
C8 C 0.21908 0.16859 0.76497 0.0
C9 C 0.20518 0.17325 0.73553 0.0
N10 N 0.20422 0.17205 0.86894 0.0
N11 N 0.21791 0.16788 0.84619 0.0
C12 C 0.18055 0.18196 0.8048 0.0
H13 H 0.18057 0.19324 0.7755 0.0
H14 H 0.17636 0.18296 0.86775 0.0
H15 H 0.17268 0.17465 0.77047 0.0
C16 C 0.16086 0.1521 0.05613 0.0
N17 N 0.17221 0.16222 0.05865 0.0
N18 N 0.18094 0.16034 0.99491 0.0
C19 C 0.17574 0.14853 0.95156 0.0
C20 C 0.16276 0.14305 0.98823 0.0
C21 C 0.14881 0.15091 0.11913 0.0
H22 H 0.15374 0.1459 0.17466 0.0
H23 H 0.14464 0.16236 0.13491 0.0
H24 H 0.13931 0.14371 0.09835 0.0
O25 O 0.19966 0.17409 0.16314 0.0
O26 O 0.21387 0.17067 0.05468 0.0
H27 H 0.19538 0.14409 0.87876 0.0
H28 H 0.18045 0.13043 0.8672 0.0
C29 C 0.18297 0.14257 0.8761 0.0
H30 H 0.17846 0.14876 0.82316 0.0
H31 H 0.22652 0.16486 0.88607 0.0
O32 O 0.1688 0.17518 0.24252 0.0
C33 C 0.21246 0.17155 0.13119 0.0
Co34 Co 0.07474 0.92996 0.37036 0.0
Co35 Co 0.07131 0.94545 0.20268 0.0
C36 C 0.0453 0.9295 0.28608 0.0
O37 O 0.05354 0.92561 0.34535 0.0
O38 O 0.05071 0.93719 0.22767 0.0
C39 C 0.06993 0.91452 0.51945 0.0
O40 O 0.05768 0.90935 0.48432 0.0
C41 C 0.06759 0.94291 0.0294 0.0
C42 C 0.07721 0.96442 0.98547 0.0
C43 C 0.07179 0.95053 0.95942 0.0
N44 N 0.07083 0.95174 0.09314 0.0
N45 N 0.07618 0.96474 0.06662 0.0
C46 C 0.06242 0.92687 0.03757 0.0
H47 H 0.06422 0.92273 0.10013 0.0
H48 H 0.06846 0.91942 0.99435 0.0
H49 H 0.05017 0.92628 0.02409 0.0
C50 C 0.09748 0.91188 0.28038 0.0
N51 N 0.08751 0.92331 0.28604 0.0
N52 N 0.08705 0.93064 0.21687 0.0
C53 C 0.09744 0.92456 0.16647 0.0
C54 C 0.10411 0.91222 0.20419 0.0
C55 C 0.1003 0.90073 0.34655 0.0
H56 H 0.10297 0.90686 0.4033 0.0
H57 H 0.08986 0.89409 0.35733 0.0
H58 H 0.10974 0.89298 0.33138 0.0
O59 O 0.07698 0.95201 0.38988 0.0
O60 O 0.07501 0.96343 0.27134 0.0
H61 H 0.09807 0.94228 0.07758 0.0
H62 H 0.11286 0.92873 0.06757 0.0
C63 C 0.10078 0.93014 0.08286 0.0
H64 H 0.09423 0.92351 0.03827 0.0
H65 H 0.08002 0.97343 0.10401 0.0
O66 O 0.07975 0.92132 0.47687 0.0
C67 C 0.07691 0.96401 0.34757 0.0
Co68 Co 0.32492 0.81933 0.61844 0.0
Co69 Co 0.30758 0.823 0.45576 0.0
C70 C 0.32089 0.79305 0.51211 0.0
O71 O 0.32697 0.79871 0.57483 0.0
O72 O 0.31306 0.80116 0.46437 0.0
C73 C 0.33398 0.80933 0.77171 0.0
O74 O 0.33151 0.79607 0.73865 0.0
C75 C 0.30949 0.82093 0.28259 0.0
C76 C 0.2903 0.83464 0.23924 0.0
C77 C 0.30278 0.82649 0.21296 0.0
N78 N 0.30146 0.82567 0.34664 0.0
N79 N 0.28985 0.83366 0.32056 0.0
C80 C 0.3243 0.81287 0.28986 0.0
H81 H 0.32931 0.81473 0.3505 0.0
H82 H 0.33236 0.81678 0.24288 0.0
H83 H 0.32243 0.80056 0.2819 0.0
C84 C 0.34435 0.84296 0.54492 0.0
N85 N 0.33222 0.83379 0.54445 0.0
N86 N 0.32449 0.83596 0.47753 0.0
C87 C 0.33126 0.84699 0.43428 0.0
C88 C 0.34417 0.85166 0.47505 0.0
C89 C 0.35574 0.84335 0.61161 0.0
H90 H 0.34988 0.84506 0.6702 0.0
H91 H 0.3616 0.83228 0.61454 0.0
H92 H 0.36415 0.85249 0.60265 0.0
O93 O 0.30349 0.8233 0.64367 0.0
O94 O 0.29052 0.8272 0.53122 0.0
H95 H 0.31345 0.85279 0.35196 0.0
H96 H 0.33033 0.86376 0.33852 0.0
C97 C 0.32594 0.8524 0.35333 0.0
H98 H 0.33003 0.84456 0.3059 0.0
H99 H 0.28201 0.83895 0.35828 0.0
O100 O 0.33408 0.82099 0.72686 0.0
C101 C 0.29115 0.82638 0.60811 0.0
Co102 Co 0.43135 0.06844 0.84811 0.0
Co103 Co 0.42938 0.05234 0.68017 0.0
C104 C 0.45876 0.06487 0.7452 0.0
O105 O 0.45245 0.07005 0.80879 0.0
O106 O 0.4512 0.05773 0.69165 0.0
C107 C 0.43967 0.07959 0.00364 0.0
O108 O 0.45355 0.07928 0.97573 0.0
C109 C 0.43272 0.04815 0.50515 0.0
C110 C 0.41002 0.0398 0.47282 0.0
C111 C 0.4233 0.04532 0.43953 0.0
N112 N 0.425 0.04533 0.57347 0.0
N113 N 0.41164 0.03982 0.55371 0.0
C114 C 0.44885 0.0531 0.50424 0.0
H115 H 0.45517 0.0465 0.54987 0.0
H116 H 0.44955 0.06523 0.5207 0.0
H117 H 0.45417 0.05115 0.44438 0.0
C118 C 0.40889 0.0887 0.77259 0.0
N119 N 0.41771 0.0763 0.77182 0.0
N120 N 0.41725 0.07002 0.69976 0.0
C121 C 0.40843 0.0786 0.65144 0.0
C122 C 0.40267 0.09058 0.69617 0.0
C123 C 0.40665 0.09851 0.84532 0.0
H124 H 0.40491 0.09136 0.89953 0.0
H125 H 0.41698 0.10537 0.85524 0.0
H126 H 0.39681 0.10613 0.83793 0.0
O127 O 0.42702 0.04723 0.87193 0.0
O128 O 0.42467 0.03524 0.75551 0.0
H129 H 0.39932 0.06752 0.54751 0.0
H130 H 0.40325 0.08723 0.53181 0.0
C131 C 0.40731 0.07678 0.56162 0.0
H132 H 0.41855 0.0741 0.53638 0.0
H133 H 0.40321 0.03717 0.59547 0.0
O134 O 0.42872 0.07758 0.95536 0.0
C135 C 0.42453 0.0352 0.8325 0.0
Co136 Co 0.17573 0.82532 0.81148 0.0
Co137 Co 0.19373 0.82587 0.97396 0.0
C138 C 0.17756 0.79781 0.91005 0.0
O139 O 0.17202 0.80447 0.84874 0.0
O140 O 0.18599 0.80486 0.95982 0.0
C141 C 0.1639 0.81767 0.65818 0.0
O142 O 0.163 0.80416 0.6905 0.0
C143 C 0.19114 0.82371 0.14723 0.0
C144 C 0.21225 0.83395 0.19225 0.0
C145 C 0.1985 0.82806 0.21759 0.0
N146 N 0.20001 0.82705 0.08382 0.0
N147 N 0.21275 0.83292 0.11096 0.0
C148 C 0.17521 0.81824 0.13861 0.0
H149 H 0.17095 0.8203 0.07655 0.0
H150 H 0.16769 0.82392 0.18294 0.0
H151 H 0.17488 0.80589 0.14994 0.0
C152 C 0.15899 0.85025 0.89392 0.0
N153 N 0.16997 0.83971 0.89043 0.0
N154 N 0.17839 0.84071 0.9558 0.0
C155 C 0.17343 0.85237 0.00111 0.0
C156 C 0.16089 0.85864 0.96414 0.0
C157 C 0.14724 0.85239 0.83021 0.0
H158 H 0.1523 0.85861 0.77864 0.0
H159 H 0.1434 0.84123 0.80748 0.0
H160 H 0.13749 0.85895 0.85369 0.0
O161 O 0.1975 0.82752 0.78638 0.0
O162 O 0.211 0.82895 0.89887 0.0
H163 H 0.19286 0.85578 0.07673 0.0
H164 H 0.17825 0.86974 0.08942 0.0
C165 C 0.1805 0.85759 0.07849 0.0
H166 H 0.17557 0.8512 0.1297 0.0
H167 H 0.22145 0.83685 0.07396 0.0
O168 O 0.16674 0.82891 0.70363 0.0
C169 C 0.21015 0.82899 0.8219 0.0
Co170 Co 0.4294 0.93329 0.14188 0.0
Co171 Co 0.42706 0.95113 0.30263 0.0
C172 C 0.45626 0.93652 0.24528 0.0
O173 O 0.45006 0.93051 0.18391 0.0
O174 O 0.44869 0.94482 0.29349 0.0
C175 C 0.4376 0.93007 0.98996 0.0
O176 O 0.4484 0.93785 0.02503 0.0
C177 C 0.42881 0.95087 0.47606 0.0
C178 C 0.41994 0.97324 0.51181 0.0
C179 C 0.42577 0.95988 0.54226 0.0
N180 N 0.42473 0.95839 0.40931 0.0
N181 N 0.41941 0.97176 0.43071 0.0
C182 C 0.43661 0.93586 0.47514 0.0
H183 H 0.44861 0.93743 0.49263 0.0
H184 H 0.43606 0.93067 0.41416 0.0
H185 H 0.4314 0.92805 0.51939 0.0
C186 C 0.40498 0.91519 0.21893 0.0
N187 N 0.41488 0.92674 0.21769 0.0
N188 N 0.41336 0.93477 0.28423 0.0
C189 C 0.40203 0.92885 0.32874 0.0
C190 C 0.39648 0.91617 0.28935 0.0
C191 C 0.40361 0.90372 0.15299 0.0
H192 H 0.40103 0.90954 0.09522 0.0
H193 H 0.41461 0.89788 0.14524 0.0
H194 H 0.39464 0.89532 0.16622 0.0
O195 O 0.42605 0.95487 0.11367 0.0
O196 O 0.42334 0.96792 0.22669 0.0
H197 H 0.39728 0.94746 0.40829 0.0
H198 H 0.38519 0.93132 0.42304 0.0
C199 C 0.39685 0.93495 0.40858 0.0
H200 H 0.40435 0.93064 0.45692 0.0
H201 H 0.4156 0.97992 0.39003 0.0
O202 O 0.42763 0.9239 0.03439 0.0
C203 C 0.4237 0.9673 0.14987 0.0
Co204 Co 0.3256 0.17997 0.35217 0.0
Co205 Co 0.30779 0.17617 0.5141 0.0
C206 C 0.32119 0.20619 0.45839 0.0
O207 O 0.32742 0.20066 0.39565 0.0
O208 O 0.31336 0.19795 0.50563 0.0
C209 C 0.33463 0.18967 0.19827 0.0
O210 O 0.33209 0.20298 0.23066 0.0
C211 C 0.31015 0.17776 0.68725 0.0
C212 C 0.29051 0.16482 0.73159 0.0
C213 C 0.30335 0.17244 0.75724 0.0
N214 N 0.30181 0.17343 0.62359 0.0
N215 N 0.28995 0.16587 0.65028 0.0
C216 C 0.32525 0.18526 0.67926 0.0
H217 H 0.32389 0.1976 0.68849 0.0
H218 H 0.33 0.18342 0.61799 0.0
H219 H 0.33326 0.18088 0.72519 0.0
C220 C 0.34443 0.15583 0.42553 0.0
N221 N 0.33268 0.1655 0.42646 0.0
N222 N 0.32465 0.16326 0.4924 0.0
C223 C 0.33084 0.15176 0.53437 0.0
C224 C 0.34362 0.14685 0.49399 0.0
C225 C 0.35585 0.15498 0.35914 0.0
H226 H 0.35078 0.14905 0.30661 0.0
H227 H 0.35895 0.16655 0.33933 0.0
H228 H 0.36608 0.14873 0.37878 0.0
O229 O 0.30424 0.17588 0.32676 0.0
O230 O 0.29083 0.17202 0.43795 0.0
H231 H 0.31201 0.1453 0.60859 0.0
H232 H 0.32848 0.13345 0.61982 0.0
C233 C 0.32452 0.14521 0.61063 0.0
H234 H 0.32837 0.15204 0.66288 0.0
H235 H 0.28181 0.16096 0.61299 0.0
O236 O 0.33479 0.17811 0.24374 0.0
C237 C 0.29178 0.17278 0.36111 0.0
Co238 Co 0.07298 0.0707 0.61271 0.0
Co239 Co 0.07118 0.05515 0.78055 0.0
C240 C 0.04421 0.07051 0.70348 0.0
O241 O 0.05189 0.07464 0.64246 0.0
O242 O 0.05023 0.06286 0.76019 0.0
C243 C 0.0669 0.08553 0.46329 0.0
O244 O 0.05418 0.08954 0.49802 0.0
C245 C 0.06793 0.05756 0.95356 0.0
C246 C 0.07884 0.03667 -0.00257 0.0
C247 C 0.0726 0.05022 0.02339 0.0
N248 N 0.07159 0.0489 0.88987 0.0
N249 N 0.07777 0.03626 0.9163 0.0
C250 C 0.06189 0.0733 0.94546 0.0
H251 H 0.06371 0.07762 0.88328 0.0
H252 H 0.06735 0.08101 0.9895 0.0
H253 H 0.04957 0.07318 0.95764 0.0
C254 C 0.09604 0.0892 0.69679 0.0
N255 N 0.08621 0.07762 0.69394 0.0
N256 N 0.08631 0.07044 0.76357 0.0
C257 C 0.09685 0.07686 0.81175 0.0
C258 C 0.10313 0.08915 0.7717 0.0
C259 C 0.09838 0.10013 0.62901 0.0
H260 H 0.08769 0.10633 0.61778 0.0
H261 H 0.10756 0.10827 0.64251 0.0
H262 H 0.1012 0.09382 0.57301 0.0
O263 O 0.07564 0.04873 0.59226 0.0
O264 O 0.07496 0.03728 0.71114 0.0
H265 H 0.11244 0.07414 0.91148 0.0
H266 H 0.09339 0.0779 0.93967 0.0
C267 C 0.10055 0.07173 0.89576 0.0
H268 H 0.09872 0.05944 0.90171 0.0
H269 H 0.08203 0.02778 0.87884 0.0
O270 O 0.07722 0.07956 0.50599 0.0
C271 C 0.07629 0.03675 0.63454 0.0
Co272 Co 0.81445 0.82078 0.91846 0.0
Co273 Co 0.79836 0.82297 0.08491 0.0
C274 C 0.81123 0.79365 0.01992 0.0
O275 O 0.8166 0.79988 0.95684 0.0
O276 O 0.80382 0.80127 0.07182 0.0
C277 C 0.83342 0.82218 0.75605 0.0
O278 O 0.84768 0.82064 0.77612 0.0
C279 C 0.79933 0.81956 0.25817 0.0
C280 C 0.78111 0.83463 0.30113 0.0
C281 C 0.79279 0.82544 0.32739 0.0
N282 N 0.79215 0.82534 0.19387 0.0
N283 N 0.7811 0.83415 0.21966 0.0
C284 C 0.81196 0.80834 0.2519 0.0
H285 H 0.80738 0.79759 0.22784 0.0
H286 H 0.82056 0.81243 0.2083 0.0
H287 H 0.81727 0.80589 0.31104 0.0
C288 C 0.83473 0.84353 0.99464 0.0
N289 N 0.82238 0.83465 0.99434 0.0
N290 N 0.81538 0.83591 0.06432 0.0
C291 C 0.823 0.84588 0.11091 0.0
C292 C 0.8356 0.85089 0.06859 0.0
C293 C 0.84555 0.84478 0.92559 0.0
H294 H 0.83917 0.84631 0.86852 0.0
H295 H 0.85214 0.83416 0.92107 0.0
H296 H 0.85342 0.85442 0.93368 0.0
O297 O 0.79294 0.82506 0.89595 0.0
O298 O 0.78102 0.82758 0.01277 0.0
H299 H 0.8067 0.85139 0.20223 0.0
H300 H 0.82493 0.85977 0.21893 0.0
C301 C 0.81903 0.84958 0.19673 0.0
H302 H 0.82239 0.84005 0.23607 0.0
H303 H 0.77392 0.84024 0.18174 0.0
O304 O 0.82321 0.82209 0.80986 0.0
C305 C 0.78093 0.82761 0.93578 0.0
Co306 Co 0.92814 0.07203 0.62154 0.0
Co307 Co 0.9252 0.05315 0.7812 0.0
C308 C 0.95452 0.06836 0.72638 0.0
O309 O 0.94872 0.07475 0.66487 0.0
O310 O 0.94664 0.05986 0.77198 0.0
C311 C 0.93724 0.08106 0.46676 0.0
O312 O 0.95061 0.07893 0.499 0.0
C313 C 0.92699 0.0555 0.95486 0.0
C314 C 0.91536 0.03511 -0.00043 0.0
C315 C 0.9222 0.0484 0.02517 0.0
N316 N 0.92309 0.04691 0.89119 0.0
N317 N 0.91634 0.0346 0.91819 0.0
C318 C 0.93354 0.07104 0.94671 0.0
H319 H 0.93144 0.07562 0.88539 0.0
H320 H 0.92864 0.07879 0.99253 0.0
H321 H 0.94593 0.07045 0.95603 0.0
C322 C 0.90331 0.08945 0.69969 0.0
N323 N 0.91334 0.07801 0.69733 0.0
N324 N 0.91138 0.06935 0.76119 0.0
C325 C 0.89961 0.07468 0.80442 0.0
C326 C 0.89425 0.08766 0.76755 0.0
C327 C 0.90228 0.10153 0.63687 0.0
H328 H 0.89686 0.09677 0.58199 0.0
H329 H 0.91379 0.10531 0.61969 0.0
H330 H 0.89549 0.11126 0.65854 0.0
O331 O 0.92518 0.05059 0.5947 0.0
O332 O 0.92177 0.03629 0.70302 0.0
H333 H 0.89469 0.05524 0.87739 0.0
H334 H 0.88172 0.07068 0.8912 0.0
C335 C 0.89371 0.06769 0.88058 0.0
H336 H 0.90031 0.07193 0.93274 0.0
H337 H 0.91188 0.02617 0.88108 0.0
O338 O 0.9257 0.08108 0.51264 0.0
C339 C 0.92261 0.03778 0.62638 0.0
Co340 Co 0.67321 0.18008 0.30631 0.0
Co341 Co 0.68997 0.18145 0.47027 0.0
C342 C 0.67479 0.20882 0.39976 0.0
O343 O 0.66934 0.20112 0.34177 0.0
O344 O 0.68336 0.20272 0.4522 0.0
C345 C 0.66662 0.18752 0.1526 0.0
O346 O 0.67153 0.20026 0.18351 0.0
C347 C 0.69304 0.18808 0.64063 0.0
C348 C 0.70791 0.16967 0.68317 0.0
C349 C 0.69936 0.18183 0.70912 0.0
N350 N 0.69762 0.17999 0.5766 0.0
N351 N 0.70679 0.16921 0.60196 0.0
C352 C 0.68094 0.19991 0.63731 0.0
H353 H 0.68617 0.21088 0.62132 0.0
H354 H 0.67249 0.19699 0.59038 0.0
H355 H 0.67509 0.20116 0.69626 0.0
C356 C 0.65607 0.15582 0.38967 0.0
N357 N 0.66707 0.16631 0.38662 0.0
N358 N 0.67355 0.16741 0.45789 0.0
C359 C 0.66655 0.15789 0.50956 0.0
C360 C 0.6553 0.1501 0.46795 0.0
C361 C 0.64672 0.15134 0.31826 0.0
H362 H 0.6374 0.15959 0.31067 0.0
H363 H 0.64186 0.13988 0.32627 0.0
H364 H 0.65371 0.15153 0.26262 0.0
O365 O 0.69479 0.17752 0.27981 0.0
O366 O 0.70706 0.17694 0.39597 0.0
H367 H 0.66045 0.15152 0.6325 0.0
H368 H 0.66972 0.16925 0.62232 0.0
C369 C 0.6694 0.15758 0.59885 0.0
H370 H 0.68045 0.15213 0.61075 0.0
H371 H 0.71154 0.16101 0.56441 0.0
O372 O 0.66381 0.17663 0.2003 0.0
C373 C 0.70702 0.17619 0.31914 0.0
Co374 Co 0.575 0.93045 0.11927 0.0
Co375 Co 0.57318 0.94648 0.28505 0.0
C376 C 0.54584 0.93224 0.2063 0.0
O377 O 0.55352 0.92711 0.14736 0.0
O378 O 0.55207 0.9401 0.2614 0.0
C379 C 0.56927 0.91764 0.96676 0.0
O380 O 0.55535 0.91712 0.99409 0.0
C381 C 0.56631 0.94487 0.4531 0.0
C382 C 0.58001 0.96307 0.50769 0.0
C383 C 0.57036 0.95122 0.52595 0.0
N384 N 0.57316 0.95258 0.39396 0.0
N385 N 0.58112 0.96366 0.42644 0.0
C386 C 0.55782 0.93043 0.44019 0.0
H387 H 0.56195 0.92459 0.38504 0.0
H388 H 0.559 0.92277 0.49291 0.0
H389 H 0.54567 0.93305 0.43209 0.0
C390 C 0.59832 0.9125 0.20363 0.0
N391 N 0.58786 0.92352 0.20146 0.0
N392 N 0.58727 0.9303 0.27219 0.0
C393 C 0.59745 0.92375 0.32182 0.0
C394 C 0.6047 0.91227 0.28003 0.0
C395 C 0.60199 0.9024 0.13384 0.0
H396 H 0.60717 0.90923 0.08486 0.0
H397 H 0.59142 0.89742 0.10964 0.0
H398 H 0.60989 0.89326 0.15166 0.0
O399 O 0.57838 0.95225 0.09739 0.0
O400 O 0.5784 0.96395 0.2158 0.0
H401 H 0.60162 0.94104 0.40967 0.0
H402 H 0.61119 0.92344 0.43001 0.0
C403 C 0.60062 0.92859 0.40685 0.0
H404 H 0.59117 0.925 0.44637 0.0
H405 H 0.58791 0.97108 0.39353 0.0
O406 O 0.57985 0.92093 0.01534 0.0
C407 C 0.5797 0.96426 0.13915 0.0
Co408 Co 0.82483 0.17823 0.15404 0.0
Co409 Co 0.80832 0.17955 0.98801 0.0
C410 C 0.82436 0.20662 0.06091 0.0
O411 O 0.82896 0.19913 0.12157 0.0
O412 O 0.81621 0.20046 0.00663 0.0
C413 C 0.83871 0.1849 0.30497 0.0
O414 O 0.84183 0.19793 0.27099 0.0
C415 C 0.81065 0.18271 0.81495 0.0
C416 C 0.78971 0.17196 0.77074 0.0
C417 C 0.80329 0.17815 0.74493 0.0
N418 N 0.80196 0.17908 0.87859 0.0
N419 N 0.78929 0.17299 0.85194 0.0
C420 C 0.82644 0.1886 0.82318 0.0
H421 H 0.82643 0.20095 0.81181 0.0
H422 H 0.83079 0.18663 0.88515 0.0
H423 H 0.83409 0.18316 0.7787 0.0
C424 C 0.84266 0.15473 0.06899 0.0
N425 N 0.83115 0.16464 0.0731 0.0
N426 N 0.82357 0.16437 0.00472 0.0
C427 C 0.82963 0.15366 0.95625 0.0
C428 C 0.84213 0.14744 0.99461 0.0
C429 C 0.85403 0.15258 0.13483 0.0
H430 H 0.84809 0.15056 0.19292 0.0
H431 H 0.86074 0.16308 0.14164 0.0
H432 H 0.86168 0.14295 0.12187 0.0
O433 O 0.80294 0.17599 0.17618 0.0
O434 O 0.79065 0.1761 0.05964 0.0
H435 H 0.81173 0.15178 0.86906 0.0
H436 H 0.82624 0.13794 0.85743 0.0
C437 C 0.82404 0.14987 0.87317 0.0
H438 H 0.83002 0.15691 0.82805 0.0
H439 H 0.78078 0.16875 0.88927 0.0
O440 O 0.83372 0.17419 0.26128 0.0
C441 C 0.79067 0.17519 0.1365 0.0
Co442 Co 0.57791 0.06994 0.86837 0.0
Co443 Co 0.57511 0.05395 0.70246 0.0
C444 C 0.54839 0.06859 0.78572 0.0
O445 O 0.55633 0.0736 0.8439 0.0
O446 O 0.55433 0.06073 0.72966 0.0
C447 C 0.57318 0.08351 0.0207 0.0
O448 O 0.55938 0.08529 0.99338 0.0
C449 C 0.56777 0.05606 0.53486 0.0
C450 C 0.58076 0.0375 0.47864 0.0
C451 C 0.57158 0.04976 0.46136 0.0
N452 N 0.57437 0.04795 0.59329 0.0
N453 N 0.58187 0.03665 0.5598 0.0
C454 C 0.55988 0.0708 0.54906 0.0
H455 H 0.56398 0.07616 0.60556 0.0
H456 H 0.56166 0.07866 0.49769 0.0
H457 H 0.54758 0.06868 0.55514 0.0
C458 C 0.60076 0.0879 0.77939 0.0
N459 N 0.59048 0.07672 0.78399 0.0
N460 N 0.5895 0.06989 0.71352 0.0
C461 C 0.59925 0.07653 0.66174 0.0
C462 C 0.6066 0.08816 0.70163 0.0
C463 C 0.60446 0.09836 0.84757 0.0
H464 H 0.6103 0.09191 0.89584 0.0
H465 H 0.59385 0.10292 0.87375 0.0
H466 H 0.6118 0.10779 0.82738 0.0
O467 O 0.58083 0.04804 0.88917 0.0
O468 O 0.5802 0.03634 0.77082 0.0
H469 H 0.60229 0.05921 0.5725 0.0
H470 H 0.61273 0.07632 0.5526 0.0
C471 C 0.60194 0.07169 0.5762 0.0
H472 H 0.59264 0.07592 0.53754 0.0
H473 H 0.58844 0.02893 0.59194 0.0
O474 O 0.58343 0.07921 0.97217 0.0
C475 C 0.58169 0.03599 0.84737 0.0
Co476 Co 0.67863 0.82103 0.63694 0.0
Co477 Co 0.69539 0.8223 0.47275 0.0
C478 C 0.68177 0.79339 0.53587 0.0
O479 O 0.6761 0.80016 0.59662 0.0
O480 O 0.68986 0.80047 0.48463 0.0
C481 C 0.67506 0.81309 0.79006 0.0
O482 O 0.68246 0.80183 0.7567 0.0
C483 C 0.69957 0.81731 0.30092 0.0
C484 C 0.71312 0.83711 0.26402 0.0
C485 C 0.70585 0.8244 0.23481 0.0
N486 N 0.70299 0.82537 0.36703 0.0
N487 N 0.71135 0.83705 0.34498 0.0
C488 C 0.68888 0.8042 0.30011 0.0
H489 H 0.69496 0.79398 0.32097 0.0
H490 H 0.67935 0.80635 0.34216 0.0
H491 H 0.68437 0.80201 0.23861 0.0
C492 C 0.65969 0.84452 0.56001 0.0
N493 N 0.67152 0.83499 0.56039 0.0
N494 N 0.67814 0.83516 0.48917 0.0
C495 C 0.67046 0.84465 0.44025 0.0
C496 C 0.65854 0.85098 0.48363 0.0
C497 C 0.64985 0.84737 0.63202 0.0
H498 H 0.64149 0.83808 0.63733 0.0
H499 H 0.64378 0.85828 0.62661 0.0
H500 H 0.65679 0.84747 0.68781 0.0
O501 O 0.69993 0.82488 0.66362 0.0
O502 O 0.71225 0.82714 0.54828 0.0
H503 H 0.66414 0.85211 0.31963 0.0
H504 H 0.67482 0.835 0.32396 0.0
C505 C 0.67347 0.8463 0.35153 0.0
H506 H 0.68407 0.85274 0.3426 0.0
H507 H 0.7152 0.84536 0.3847 0.0
O508 O 0.66932 0.82303 0.74401 0.0
C509 C 0.71208 0.82731 0.6252 0.0
Co510 Co 0.92933 0.92549 0.39156 0.0
Co511 Co 0.92529 0.94389 0.23168 0.0
C512 C 0.95537 0.93003 0.28673 0.0
O513 O 0.95002 0.9233 0.34847 0.0
O514 O 0.94698 0.93818 0.24204 0.0
C515 C 0.9268 0.90688 0.55586 0.0
O516 O 0.92734 0.89251 0.53638 0.0
C517 C 0.92576 0.94025 0.05762 0.0
C518 C 0.91687 0.96186 0.0113 0.0
C519 C 0.92191 0.94772 0.98676 0.0
N520 N 0.92283 0.94939 0.12074 0.0
N521 N 0.91757 0.96233 0.09275 0.0
C522 C 0.93255 0.92482 0.06581 0.0
H523 H 0.9235 0.91618 0.06286 0.0
H524 H 0.9407 0.92265 0.0161 0.0
H525 H 0.93827 0.92348 0.12471 0.0
C526 C 0.90415 0.9076 0.3187 0.0
N527 N 0.91442 0.91884 0.31771 0.0
N528 N 0.912 0.92743 0.25406 0.0
C529 C 0.89971 0.9223 0.21455 0.0
C530 C 0.89449 0.90947 0.25341 0.0
C531 C 0.90316 0.89587 0.38334 0.0
H532 H 0.90073 0.90145 0.44201 0.0
H533 H 0.91422 0.89007 0.38869 0.0
H534 H 0.89419 0.88746 0.3703 0.0
O535 O 0.92566 0.94697 0.41644 0.0
O536 O 0.92134 0.96093 0.30774 0.0
H537 H 0.89459 0.94213 0.14474 0.0
H538 H 0.88049 0.92752 0.13866 0.0
C539 C 0.89278 0.92977 0.14224 0.0
H540 H 0.898 0.9252 0.08644 0.0
H541 H 0.91435 0.97141 0.12914 0.0
O542 O 0.92756 0.91693 0.50132 0.0
C543 C 0.92249 0.95962 0.38434 0.0
Co544 Co 0.68433 0.67744 0.58603 0.0
Co545 Co 0.70184 0.67482 0.4248 0.0
C546 C 0.68743 0.70416 0.48168 0.0
O547 O 0.68141 0.69794 0.54293 0.0
O548 O 0.69573 0.6966 0.43344 0.0
C549 C 0.68107 0.68595 0.73769 0.0
O550 O 0.68896 0.69667 0.70259 0.0
C551 C 0.70127 0.67604 0.25135 0.0
C552 C 0.72393 0.66792 0.21579 0.0
C553 C 0.7104 0.67331 0.18525 0.0
N554 N 0.70892 0.67224 0.31814 0.0
N555 N 0.72245 0.66732 0.29684 0.0
C556 C 0.68606 0.68344 0.25205 0.0
H557 H 0.68144 0.68399 0.31431 0.0
H558 H 0.67806 0.67706 0.21356 0.0
H559 H 0.68702 0.69501 0.2268 0.0
C560 C 0.66657 0.6524 0.51433 0.0
N561 N 0.67773 0.66271 0.51223 0.0
N562 N 0.68554 0.66108 0.44505 0.0
C563 C 0.67983 0.6493 0.40321 0.0
C564 C 0.66755 0.64352 0.44533 0.0
C565 C 0.6557 0.6508 0.58303 0.0
H566 H 0.66206 0.64815 0.63905 0.0
H567 H 0.64984 0.66173 0.59299 0.0
H568 H 0.64728 0.64177 0.5716 0.0
O569 O 0.70594 0.6742 0.61308 0.0
O570 O 0.7188 0.67113 0.49966 0.0
H571 H 0.6984 0.64436 0.32389 0.0
H572 H 0.68236 0.63199 0.31132 0.0
C573 C 0.6859 0.64376 0.32402 0.0
H574 H 0.6815 0.65099 0.27475 0.0
H575 H 0.73074 0.66387 0.33762 0.0
O576 O 0.67498 0.67592 0.69345 0.0
C577 C 0.71831 0.67169 0.57645 0.0
Co578 Co 0.5698 0.4351 0.81943 0.0
Co579 Co 0.57268 0.45311 0.65941 0.0
C580 C 0.54303 0.4395 0.71672 0.0
O581 O 0.54913 0.43313 0.77728 0.0
O582 O 0.55076 0.44776 0.66908 0.0
C583 C 0.5614 0.43263 0.97153 0.0
O584 O 0.55106 0.44092 0.9358 0.0
C585 C 0.56976 0.45351 0.48651 0.0
C586 C 0.5814 0.4745 0.4497 0.0
C587 C 0.57372 0.46205 0.41999 0.0
N588 N 0.57508 0.4604 0.55278 0.0
N589 N 0.582 0.47297 0.53078 0.0
C590 C 0.56018 0.43956 0.48848 0.0
H591 H 0.56266 0.43283 0.54345 0.0
H592 H 0.56193 0.4325 0.43399 0.0
H593 H 0.54812 0.44295 0.49026 0.0
C594 C 0.59256 0.41553 0.73934 0.0
N595 N 0.58385 0.42796 0.74291 0.0
N596 N 0.58552 0.43582 0.67593 0.0
C597 C 0.59572 0.42876 0.62827 0.0
C598 C 0.60037 0.41556 0.66646 0.0
C599 C 0.59304 0.40372 0.80391 0.0
H600 H 0.59319 0.40917 0.8643 0.0
H601 H 0.58268 0.39671 0.79997 0.0
H602 H 0.6031 0.39633 0.79718 0.0
O603 O 0.5742 0.45636 0.84717 0.0
O604 O 0.57743 0.46975 0.73598 0.0
H605 H 0.60091 0.44636 0.54343 0.0
H606 H 0.61082 0.42899 0.52466 0.0
C607 C 0.59998 0.4339 0.54501 0.0
H608 H 0.59118 0.43023 0.50169 0.0
H609 H 0.58708 0.48051 0.57097 0.0
O610 O 0.57106 0.42585 0.92762 0.0
C611 C 0.57714 0.46881 0.81271 0.0
Co612 Co 0.82571 0.32216 0.14377 0.0
Co613 Co 0.8088 0.32634 0.98038 0.0
C614 C 0.82176 0.29619 0.03539 0.0
O615 O 0.82766 0.30168 0.09903 0.0
O616 O 0.8141 0.30444 0.98751 0.0
C617 C 0.83454 0.31192 0.29675 0.0
O618 O 0.83168 0.29872 0.2638 0.0
C619 C 0.81085 0.3246 0.80742 0.0
C620 C 0.79191 0.33867 0.76419 0.0
C621 C 0.80425 0.33031 0.73792 0.0
N622 N 0.80287 0.3294 0.87146 0.0
N623 N 0.79142 0.33764 0.84548 0.0
C624 C 0.82551 0.31625 0.81458 0.0
H625 H 0.8306 0.31809 0.87505 0.0
H626 H 0.8336 0.31995 0.76729 0.0
H627 H 0.82339 0.30398 0.80711 0.0
C628 C 0.84571 0.34539 0.07271 0.0
N629 N 0.83334 0.33658 0.07112 0.0
N630 N 0.82581 0.33903 0.00386 0.0
C631 C 0.83295 0.34995 0.96154 0.0
C632 C 0.84589 0.35418 0.00328 0.0
C633 C 0.85702 0.3453 0.13983 0.0
H634 H 0.85122 0.34789 0.1977 0.0
H635 H 0.86194 0.33382 0.14531 0.0
H636 H 0.86615 0.35367 0.12966 0.0
O637 O 0.80429 0.32632 0.1684 0.0
O638 O 0.79167 0.3305 0.05506 0.0
H639 H 0.81548 0.35633 0.87834 0.0
H640 H 0.83265 0.36702 0.86758 0.0
C641 C 0.82796 0.3557 0.88069 0.0
H642 H 0.83202 0.34792 0.83288 0.0
H643 H 0.78365 0.343 0.88326 0.0
O644 O 0.83489 0.32356 0.25194 0.0
C645 C 0.79209 0.32957 0.13192 0.0
Co646 Co 0.92758 0.5693 0.36809 0.0
Co647 Co 0.92495 0.55073 0.20879 0.0
C648 C 0.95382 0.56687 0.26068 0.0
O649 O 0.9479 0.57289 0.32295 0.0
O650 O 0.94619 0.55816 0.21501 0.0
C651 C 0.93569 0.57266 0.52084 0.0
O652 O 0.94679 0.56525 0.48605 0.0
C653 C 0.92584 0.55146 0.03474 0.0
C654 C 0.91928 0.52834 -0.00116 0.0
C655 C 0.92368 0.54223 0.96829 0.0
N656 N 0.92264 0.54351 0.1016 0.0
N657 N 0.91865 0.5297 0.08 0.0
C658 C 0.9322 0.56714 0.0356 0.0
H659 H 0.93265 0.57169 0.09801 0.0
H660 H 0.92516 0.57477 -0.00166 0.0
H661 H 0.94372 0.56701 0.00905 0.0
C662 C 0.90188 0.58588 0.29419 0.0
N663 N 0.91232 0.57483 0.29442 0.0
N664 N 0.91059 0.56638 0.22956 0.0
C665 C 0.89859 0.57147 0.18746 0.0
C666 C 0.8928 0.58408 0.22647 0.0
C667 C 0.90058 0.59767 0.35856 0.0
H668 H 0.8982 0.59211 0.41732 0.0
H669 H 0.91154 0.60365 0.36464 0.0
H670 H 0.89148 0.60591 0.34498 0.0
O671 O 0.92548 0.54769 0.39673 0.0
O672 O 0.92266 0.53388 0.28626 0.0
H673 H 0.89456 0.55227 0.11087 0.0
H674 H 0.88087 0.5672 0.10026 0.0
C675 C 0.89298 0.56468 0.11015 0.0
H676 H 0.89939 0.56952 0.05877 0.0
H677 H 0.91584 0.52113 0.12062 0.0
O678 O 0.92563 0.57857 0.47603 0.0
C679 C 0.92353 0.53496 0.36287 0.0
Co680 Co 0.67641 0.32511 0.32765 0.0
Co681 Co 0.69395 0.32752 0.49056 0.0
C682 C 0.67907 0.29842 0.43207 0.0
O683 O 0.67332 0.30447 0.36948 0.0
O684 O 0.68722 0.30609 0.48049 0.0
C685 C 0.66598 0.31612 0.17436 0.0
O686 O 0.66702 0.30261 0.20665 0.0
C687 C 0.69144 0.32584 0.66348 0.0
C688 C 0.71178 0.33763 0.70806 0.0
C689 C 0.69851 0.33075 0.73353 0.0
N690 N 0.70004 0.32972 0.59996 0.0
N691 N 0.71232 0.33656 0.62678 0.0
C692 C 0.67594 0.31924 0.65525 0.0
H693 H 0.67136 0.32131 0.59386 0.0
H694 H 0.66815 0.32411 0.70097 0.0
H695 H 0.67656 0.30684 0.66461 0.0
C696 C 0.65883 0.35018 0.40164 0.0
N697 N 0.66998 0.33983 0.40261 0.0
N698 N 0.67801 0.34151 0.46896 0.0
C699 C 0.67251 0.35337 0.51096 0.0
C700 C 0.66011 0.35913 0.47021 0.0
C701 C 0.64763 0.35174 0.33458 0.0
H702 H 0.65345 0.35631 0.28042 0.0
H703 H 0.64311 0.34044 0.31835 0.0
H704 H 0.63824 0.35942 0.3515 0.0
O705 O 0.69809 0.32802 0.30263 0.0
O706 O 0.71117 0.33089 0.41576 0.0
H707 H 0.69139 0.35829 0.58803 0.0
H708 H 0.67564 0.37097 0.60063 0.0
C709 C 0.67891 0.35909 0.58903 0.0
H710 H 0.67448 0.35216 0.63955 0.0
H711 H 0.72072 0.34102 0.58956 0.0
O712 O 0.66728 0.32764 0.2197 0.0
C713 C 0.71055 0.33034 0.33881 0.0
Co714 Co 0.9325 0.43625 0.68597 0.0
Co715 Co 0.93081 0.45377 0.85049 0.0
C716 C 0.95991 0.43973 0.78367 0.0
O717 O 0.9535 0.43372 0.72264 0.0
O718 O 0.95245 0.44771 0.8342 0.0
C719 C 0.93898 0.42396 0.5293 0.0
O720 O 0.95298 0.42294 0.55468 0.0
C721 C 0.93449 0.45523 0.02652 0.0
C722 C 0.9145 0.46858 0.06177 0.0
C723 C 0.92588 0.45954 0.09323 0.0
N724 N 0.9279 0.46066 0.95926 0.0
N725 N 0.91629 0.46908 0.981 0.0
C726 C 0.94896 0.44649 0.02556 0.0
H727 H 0.9566 0.4512 0.97919 0.0
H728 H 0.9466 0.43452 0.01015 0.0
H729 H 0.95489 0.44723 0.08446 0.0
C730 C 0.90889 0.41781 0.76334 0.0
N731 N 0.91871 0.42942 0.76381 0.0
N732 N 0.91755 0.43686 0.83249 0.0
C733 C 0.90673 0.43018 0.87773 0.0
C734 C 0.90091 0.41798 0.83536 0.0
C735 C 0.90692 0.4072 0.69374 0.0
H736 H 0.90226 0.41352 0.6415 0.0
H737 H 0.9181 0.40268 0.67536 0.0
H738 H 0.8992 0.39776 0.70897 0.0
O739 O 0.92917 0.45769 0.66208 0.0
O740 O 0.92628 0.47079 0.77489 0.0
H741 H 0.89765 0.44644 0.95981 0.0
H742 H 0.89376 0.4272 0.98806 0.0
C743 C 0.90234 0.43485 0.96144 0.0
H744 H 0.91242 0.43465 0.00082 0.0
H745 H 0.90891 0.47424 0.94034 0.0
O746 O 0.9286 0.42724 0.57927 0.0
C747 C 0.92668 0.47012 0.69796 0.0
Co748 Co 0.82016 0.67683 0.87748 0.0
Co749 Co 0.80344 0.67621 0.04299 0.0
C750 C 0.81829 0.70449 0.97574 0.0
O751 O 0.82343 0.69763 0.91408 0.0
O752 O 0.81031 0.69759 0.02818 0.0
C753 C 0.83244 0.68494 0.72554 0.0
O754 O 0.83371 0.69834 0.75893 0.0
C755 C 0.8054 0.67886 0.21608 0.0
C756 C 0.78495 0.66704 0.25926 0.0
C757 C 0.79811 0.67399 0.28571 0.0
N758 N 0.79705 0.67477 0.15204 0.0
N759 N 0.78469 0.66797 0.17799 0.0
C760 C 0.82085 0.68562 0.20862 0.0
H761 H 0.82551 0.68371 0.14716 0.0
H762 H 0.82865 0.68074 0.2541 0.0
H763 H 0.82011 0.69798 0.21885 0.0
C764 C 0.83877 0.65342 0.95677 0.0
N765 N 0.82695 0.66296 0.95533 0.0
N766 N 0.81942 0.66192 0.02375 0.0
C767 C 0.82595 0.65115 0.06982 0.0
C768 C 0.83858 0.64561 0.02948 0.0
C769 C 0.85003 0.65204 0.8897 0.0
H770 H 0.84402 0.64967 0.83223 0.0
H771 H 0.85602 0.66296 0.88239 0.0
H772 H 0.85833 0.64291 0.90141 0.0
O773 O 0.79846 0.67382 0.85485 0.0
O774 O 0.78597 0.67244 0.9706 0.0
H775 H 0.80829 0.64767 0.15701 0.0
H776 H 0.82392 0.63493 0.16725 0.0
C777 C 0.82071 0.64669 0.15258 0.0
H778 H 0.82609 0.65411 0.19814 0.0
H779 H 0.77646 0.66335 0.14021 0.0
O780 O 0.82918 0.67368 0.76985 0.0
C781 C 0.78618 0.67214 0.89363 0.0
Co782 Co 0.57241 0.56692 0.14322 0.0
Co783 Co 0.57678 0.54925 0.30321 0.0
C784 C 0.54662 0.56281 0.25236 0.0
O785 O 0.55209 0.56907 0.18969 0.0
O786 O 0.55483 0.55469 0.29822 0.0
C787 C 0.56353 0.56943 0.99095 0.0
O788 O 0.5533 0.56093 0.02615 0.0
C789 C 0.57517 0.54971 0.47644 0.0
C790 C 0.58498 0.52782 0.51325 0.0
C791 C 0.57839 0.54089 0.54302 0.0
N792 N 0.57983 0.54235 0.41012 0.0
N793 N 0.58575 0.52929 0.43218 0.0
C794 C 0.5664 0.56418 0.47448 0.0
H795 H 0.55425 0.56164 0.48389 0.0
H796 H 0.56782 0.56992 0.41537 0.0
H797 H 0.57005 0.5719 0.52342 0.0
C798 C 0.59597 0.58648 0.21493 0.0
N799 N 0.58714 0.57412 0.21534 0.0
N800 N 0.58953 0.56639 0.28205 0.0
C801 C 0.60035 0.57346 0.3255 0.0
C802 C 0.60464 0.58653 0.28483 0.0
C803 C 0.59585 0.59804 0.14906 0.0
H804 H 0.585 0.60431 0.15115 0.0
H805 H 0.60537 0.60611 0.1552 0.0
H806 H 0.59655 0.59233 0.08945 0.0
O807 O 0.57636 0.54556 0.11586 0.0
O808 O 0.58069 0.53235 0.22667 0.0
H809 H 0.61702 0.573 0.42139 0.0
H810 H 0.59775 0.57256 0.4538 0.0
C811 C 0.6057 0.56842 0.407 0.0
H812 H 0.60615 0.55592 0.4096 0.0
H813 H 0.58998 0.52125 0.39191 0.0
O814 O 0.57314 0.57617 0.03522 0.0
C815 C 0.57958 0.53315 0.15008 0.0
Co816 Co 0.32038 0.32557 0.35572 0.0
Co817 Co 0.30595 0.32243 0.52594 0.0
C818 C 0.32074 0.29608 0.44097 0.0
O819 O 0.32448 0.30419 0.38064 0.0
O820 O 0.31348 0.30168 0.50048 0.0
C821 C 0.33604 0.32154 0.20527 0.0
O822 O 0.3421 0.30945 0.23759 0.0
C823 C 0.30579 0.31652 0.69972 0.0
C824 C 0.28796 0.33218 0.7414 0.0
C825 C 0.29899 0.32233 0.76866 0.0
N826 N 0.29942 0.32309 0.635 0.0
N827 N 0.28854 0.33217 0.66014 0.0
C828 C 0.3179 0.30475 0.69439 0.0
H829 H 0.31444 0.29593 0.65069 0.0
H830 H 0.32848 0.30992 0.67154 0.0
H831 H 0.31997 0.29924 0.75352 0.0
C832 C 0.33898 0.34839 0.44008 0.0
N833 N 0.32762 0.3383 0.43813 0.0
N834 N 0.32148 0.33726 0.51036 0.0
C835 C 0.32871 0.34688 0.56071 0.0
C836 C 0.34008 0.35419 0.51787 0.0
C837 C 0.34861 0.35219 0.36853 0.0
H838 H 0.35548 0.34218 0.35191 0.0
H839 H 0.35616 0.36191 0.38101 0.0
H840 H 0.34127 0.35492 0.31621 0.0
O841 O 0.29847 0.32825 0.33793 0.0
O842 O 0.28787 0.32666 0.4586 0.0
H843 H 0.33242 0.35709 0.6788 0.0
H844 H 0.32855 0.33727 0.67904 0.0
C845 C 0.32566 0.3481 0.64956 0.0
H846 H 0.31352 0.35043 0.65963 0.0
H847 H 0.282 0.33889 0.62197 0.0
O848 O 0.32864 0.33064 0.24941 0.0
C849 C 0.28679 0.32851 0.38255 0.0
Co850 Co 0.42909 0.57058 0.13742 0.0
Co851 Co 0.42913 0.55423 0.30363 0.0
C852 C 0.45713 0.56904 0.23341 0.0
O853 O 0.44998 0.57392 0.17219 0.0
O854 O 0.45051 0.56116 0.28731 0.0
C855 C 0.43676 0.58365 0.9863 0.0
O856 O 0.45007 0.58557 0.01979 0.0
C857 C 0.43177 0.5564 0.47658 0.0
C858 C 0.4201 0.5359 0.52008 0.0
C859 C 0.42688 0.54916 0.54628 0.0
N860 N 0.42784 0.54793 0.41272 0.0
N861 N 0.42114 0.53553 0.43886 0.0
C862 C 0.43836 0.57193 0.46883 0.0
H863 H 0.43653 0.57644 0.40706 0.0
H864 H 0.43327 0.57974 0.51371 0.0
H865 H 0.4507 0.57135 0.47984 0.0
C866 C 0.40572 0.58914 0.21758 0.0
N867 N 0.41544 0.57747 0.21618 0.0
N868 N 0.41465 0.57007 0.28502 0.0
C869 C 0.40381 0.5765 0.33126 0.0
C870 C 0.398 0.58893 0.29061 0.0
C871 C 0.40403 0.60023 0.15001 0.0
H872 H 0.40105 0.59408 0.09373 0.0
H873 H 0.415 0.60595 0.13943 0.0
H874 H 0.39518 0.60875 0.1632 0.0
O875 O 0.42601 0.54884 0.11516 0.0
O876 O 0.4252 0.53669 0.23205 0.0
H877 H 0.40052 0.55884 0.41861 0.0
H878 H 0.38758 0.57434 0.42851 0.0
C879 C 0.39939 0.57125 0.41404 0.0
H880 H 0.40672 0.57675 0.45959 0.0
H881 H 0.41662 0.52722 0.4012 0.0
O882 O 0.4257 0.57966 0.03032 0.0
C883 C 0.42454 0.53666 0.15514 0.0
Co884 Co 0.18183 0.68019 0.90566 0.0
Co885 Co 0.19874 0.6824 0.07494 0.0
C886 C 0.18474 0.70962 -0.00244 0.0
O887 O 0.18009 0.70187 0.93752 0.0
O888 O 0.19211 0.70347 0.0549 0.0
C889 C 0.16405 0.67702 0.74236 0.0
O890 O 0.15005 0.67478 0.71884 0.0
C891 C 0.20328 0.68995 0.24602 0.0
C892 C 0.21086 0.66826 0.29654 0.0
C893 C 0.20528 0.6823 0.31892 0.0
N894 N 0.2065 0.68059 0.18424 0.0
N895 N 0.21169 0.66784 0.21507 0.0
C896 C 0.19857 0.70601 0.23455 0.0
H897 H 0.20592 0.71123 0.18801 0.0
H898 H 0.18672 0.70642 0.21288 0.0
H899 H 0.19967 0.71259 0.2914 0.0
C900 C 0.16568 0.65611 0.99361 0.0
N901 N 0.1761 0.6672 0.99128 0.0
N902 N 0.18189 0.66904 0.0638 0.0
C903 C 0.17463 0.65973 0.11563 0.0
C904 C 0.16431 0.65102 0.07271 0.0
C905 C 0.15804 0.64983 0.92019 0.0
H906 H 0.16599 0.6498 0.86833 0.0
H907 H 0.14823 0.65706 0.90459 0.0
H908 H 0.15402 0.63812 0.93063 0.0
O909 O 0.20289 0.6762 0.87429 0.0
O910 O 0.21488 0.67735 0.99289 0.0
H911 H 0.18544 0.65277 0.22485 0.0
H912 H 0.1656 0.65647 0.23571 0.0
C913 C 0.17613 0.66032 0.20568 0.0
H914 H 0.17847 0.67201 0.22551 0.0
H915 H 0.21438 0.65833 0.18067 0.0
O916 O 0.16672 0.67715 0.81792 0.0
C917 C 0.21499 0.67548 0.91604 0.0
Co918 Co 0.07584 0.43248 0.62197 0.0
Co919 Co 0.07754 0.44947 0.7845 0.0
C920 C 0.04896 0.43394 0.72652 0.0
O921 O 0.05549 0.42853 0.66454 0.0
O922 O 0.05606 0.44243 0.77579 0.0
C923 C 0.06741 0.42869 0.47098 0.0
O924 O 0.05638 0.43614 0.50623 0.0
C925 C 0.07604 0.44906 0.95759 0.0
C926 C 0.08411 0.47177 0.99278 0.0
C927 C 0.07872 0.45825 0.02343 0.0
N928 N 0.07987 0.45667 0.89076 0.0
N929 N 0.08474 0.47023 0.91177 0.0
C930 C 0.06867 0.43383 0.95698 0.0
H931 H 0.06924 0.42869 0.89588 0.0
H932 H 0.07422 0.42616 0.00069 0.0
H933 H 0.05668 0.43503 0.97544 0.0
C934 C 0.10076 0.41478 0.69547 0.0
N935 N 0.09061 0.4261 0.69609 0.0
N936 N 0.09183 0.43371 0.76415 0.0
C937 C 0.10324 0.42775 0.80785 0.0
C938 C 0.10913 0.41551 0.76618 0.0
C939 C 0.10222 0.40352 0.62851 0.0
H940 H 0.10602 0.40942 0.57289 0.0
H941 H 0.091 0.39851 0.61555 0.0
H942 H 0.11041 0.39448 0.64383 0.0
O943 O 0.07825 0.45434 0.59527 0.0
O944 O 0.08066 0.46661 0.71088 0.0
H945 H 0.10756 0.4459 0.89102 0.0
H946 H 0.1201 0.42992 0.90155 0.0
C947 C 0.10831 0.43341 0.88869 0.0
H948 H 0.10096 0.42857 0.93634 0.0
H949 H 0.08823 0.47849 0.87084 0.0
O950 O 0.07779 0.42316 0.51495 0.0
C951 C 0.08023 0.46657 0.6341 0.0
Co952 Co 0.32069 0.67539 0.64049 0.0
Co953 Co 0.30468 0.67678 0.47368 0.0
C954 C 0.32158 0.70349 0.54452 0.0
O955 O 0.32567 0.69607 0.60646 0.0
O956 O 0.31342 0.69742 0.48998 0.0
C957 C 0.33479 0.6816 0.79113 0.0
O958 O 0.33807 0.69466 0.75788 0.0
C959 C 0.3074 0.67885 0.30098 0.0
C960 C 0.28585 0.66935 0.25679 0.0
C961 C 0.2998 0.67467 0.23112 0.0
N962 N 0.29845 0.67593 0.3645 0.0
N963 N 0.28546 0.67052 0.33795 0.0
C964 C 0.32352 0.68375 0.30927 0.0
H965 H 0.3277 0.68161 0.37141 0.0
H966 H 0.33082 0.67776 0.26511 0.0
H967 H 0.32429 0.69606 0.29749 0.0
C968 C 0.33704 0.65025 0.56112 0.0
N969 N 0.32652 0.66122 0.56173 0.0
N970 N 0.31904 0.661 0.49305 0.0
C971 C 0.32415 0.64935 0.44795 0.0
C972 C 0.33584 0.64233 0.48909 0.0
C973 C 0.34784 0.64741 0.62887 0.0
H974 H 0.34147 0.6432 0.68208 0.0
H975 H 0.35332 0.65818 0.64668 0.0
H976 H 0.35656 0.63897 0.61184 0.0
O977 O 0.29867 0.674 0.66257 0.0
O978 O 0.28687 0.67442 0.54455 0.0
H979 H 0.30584 0.64717 0.36352 0.0
H980 H 0.32009 0.63275 0.3546 0.0
C981 C 0.31812 0.6449 0.36681 0.0
H982 H 0.32403 0.65142 0.31917 0.0
H983 H 0.27666 0.66696 0.37533 0.0
O984 O 0.32949 0.6711 0.74714 0.0
C985 C 0.28654 0.67364 0.6214 0.0
Co986 Co 0.07281 0.5716 0.36574 0.0
Co987 Co 0.0703 0.55667 0.19629 0.0
C988 C 0.04346 0.57088 0.28044 0.0
O989 O 0.05136 0.57514 0.34051 0.0
O990 O 0.04936 0.56354 0.22203 0.0
C991 C 0.06858 0.58707 0.51638 0.0
O992 O 0.05615 0.59256 0.48478 0.0
C993 C 0.06494 0.55711 0.02229 0.0
C994 C 0.07968 0.53852 0.98047 0.0
C995 C 0.07049 0.55012 0.95328 0.0
N996 N 0.07101 0.55026 0.08701 0.0
N997 N 0.07956 0.53898 0.06177 0.0
C998 C 0.05379 0.5698 0.02768 0.0
H999 H 0.0451 0.5671 0.07352 0.0
H1000 H 0.05963 0.58026 0.0474 0.0
H1001 H 0.04801 0.57178 0.96919 0.0
C1002 C 0.09521 0.59057 0.28172 0.0
N1003 N 0.08539 0.57899 0.28352 0.0
N1004 N 0.08459 0.57273 0.21147 0.0
C1005 C 0.09405 0.58019 0.16134 0.0
C1006 C 0.101 0.59174 0.20414 0.0
C1007 C 0.09813 0.60084 0.35184 0.0
H1008 H 0.10425 0.59449 0.39943 0.0
H1009 H 0.08721 0.6046 0.37799 0.0
H1010 H 0.10491 0.61084 0.33387 0.0
O1011 O 0.07604 0.54983 0.38357 0.0
O1012 O 0.07507 0.53872 0.264 0.0
H1013 H 0.09778 0.56395 0.06725 0.0
H1014 H 0.10712 0.5818 0.05115 0.0
C1015 C 0.0967 0.57634 0.07436 0.0
H1016 H 0.08703 0.58032 0.03774 0.0
H1017 H 0.08584 0.53201 0.09995 0.0
O1018 O 0.07785 0.58001 0.47178 0.0
C1019 C 0.07678 0.538 0.34028 0.0
Co1020 Co 0.17897 0.3232 0.13198 0.0
Co1021 Co 0.19427 0.31996 0.96476 0.0
C1022 C 0.17998 0.29342 0.05106 0.0
O1023 O 0.17542 0.30159 0.10939 0.0
O1024 O 0.18754 0.29911 0.9931 0.0
C1025 C 0.16466 0.31877 0.2833 0.0
O1026 O 0.16212 0.30513 0.25521 0.0
C1027 C 0.19217 0.31232 0.79719 0.0
C1028 C 0.2103 0.32584 0.74065 0.0
C1029 C 0.19828 0.31634 0.72353 0.0
N1030 N 0.20015 0.31916 0.85545 0.0
N1031 N 0.21122 0.32695 0.82176 0.0
C1032 C 0.17767 0.30404 0.81186 0.0
H1033 H 0.17215 0.30822 0.86782 0.0
H1034 H 0.16979 0.30537 0.76021 0.0
H1035 H 0.18016 0.29184 0.81948 0.0
C1036 C 0.16023 0.34533 0.04327 0.0
N1037 N 0.17169 0.33537 0.04738 0.0
N1038 N 0.17839 0.33448 0.97656 0.0
C1039 C 0.17157 0.3442 0.92528 0.0
C1040 C 0.15977 0.35129 0.96575 0.0
C1041 C 0.15013 0.34908 0.11298 0.0
H1042 H 0.15708 0.35321 0.1642 0.0
H1043 H 0.14427 0.33867 0.1334 0.0
H1044 H 0.14168 0.35782 0.09688 0.0
O1045 O 0.20091 0.32652 0.15096 0.0
O1046 O 0.21204 0.32531 0.0312 0.0
H1047 H 0.18813 0.34701 0.83193 0.0
H1048 H 0.17044 0.35629 0.8112 0.0
C1049 C 0.17571 0.34613 0.83807 0.0
H1050 H 0.17175 0.33618 0.80344 0.0
H1051 H 0.21877 0.33374 0.85375 0.0
O1052 O 0.16982 0.32878 0.23591 0.0
C1053 C 0.21274 0.32724 0.10739 0.0
Co1054 Co 0.42649 0.43283 0.86504 0.0
Co1055 Co 0.42562 0.44936 0.69956 0.0
C1056 C 0.45382 0.43389 0.76336 0.0
O1057 O 0.44708 0.42894 0.82584 0.0
O1058 O 0.4469 0.44201 0.71168 0.0
C1059 C 0.43464 0.42072 0.01686 0.0
O1060 O 0.44813 0.41994 0.98405 0.0
C1061 C 0.42735 0.44688 0.52693 0.0
C1062 C 0.41614 0.46761 0.48322 0.0
C1063 C 0.4226 0.45417 0.45729 0.0
N1064 N 0.42375 0.45553 0.59065 0.0
N1065 N 0.41727 0.46803 0.56443 0.0
C1066 C 0.43353 0.43119 0.53475 0.0
H1067 H 0.43148 0.42669 0.59636 0.0
H1068 H 0.42833 0.42354 0.48949 0.0
H1069 H 0.44591 0.43146 0.5244 0.0
C1070 C 0.40161 0.41535 0.7907 0.0
N1071 N 0.41203 0.42641 0.78941 0.0
N1072 N 0.41101 0.43389 0.72091 0.0
C1073 C 0.39947 0.42808 0.67755 0.0
C1074 C 0.39329 0.41609 0.71993 0.0
C1075 C 0.39973 0.40437 0.85859 0.0
H1076 H 0.39496 0.41037 0.91172 0.0
H1077 H 0.41094 0.39986 0.87641 0.0
H1078 H 0.39209 0.39495 0.84158 0.0
O1079 O 0.42417 0.45468 0.88823 0.0
O1080 O 0.42255 0.46693 0.77187 0.0
H1081 H 0.3953 0.44633 0.59502 0.0
H1082 H 0.38219 0.43078 0.5867 0.0
C1083 C 0.39416 0.43388 0.5975 0.0
H1084 H 0.40103 0.42876 0.54866 0.0
H1085 H 0.41306 0.47652 0.60203 0.0
O1086 O 0.42337 0.42378 0.97232 0.0
C1087 C 0.42258 0.46691 0.84887 0.0
H1088 H 0.18872 0.27235 0.94009 0.0
H1089 H 0.16501 0.27724 0.167 0.0
H1090 H 0.16244 0.24991 0.17705 0.0
H1091 H 0.16856 0.22457 0.12695 0.0
H1092 H 0.19275 0.21962 0.90159 0.0
H1093 H 0.19334 0.247 0.88534 0.0
C1094 C 0.18287 0.26747 0.99145 0.0
C1095 C 0.17721 0.27689 0.05304 0.0
C1096 C 0.18155 0.25169 -0.0026 0.0
C1097 C 0.16958 0.27031 0.11886 0.0
C1098 C 0.16811 0.25465 0.12478 0.0
C1099 C 0.1738 0.22944 0.0737 0.0
C1100 C 0.18071 0.22001 0.016 0.0
C1101 C 0.17429 0.24522 0.0652 0.0
C1102 C 0.18744 0.22658 0.94737 0.0
C1103 C 0.1878 0.24226 0.93802 0.0
H1104 H 0.02329 0.93872 0.18156 0.0
H1105 H 0.03036 0.91259 0.39872 0.0
H1106 H 0.00322 0.90949 0.41478 0.0
H1107 H 0.9774 0.91594 0.37397 0.0
H1108 H 0.97026 0.94238 0.15797 0.0
H1109 H 0.99741 0.94347 0.13477 0.0
C1110 C 0.01892 0.93218 0.23186 0.0
C1111 C 0.02891 0.92606 0.28924 0.0
C1112 C 0.00323 0.93057 0.24149 0.0
C1113 C 0.02299 0.91757 0.35386 0.0
C1114 C 0.00742 0.91579 0.36329 0.0
C1115 C 0.98175 0.92181 0.32133 0.0
C1116 C 0.97176 0.92921 0.2685 0.0
C1117 C 0.99743 0.92253 0.30855 0.0
C1118 C 0.97766 0.93669 0.20028 0.0
C1119 C 0.99321 0.93734 0.18684 0.0
H1120 H 0.33586 0.77223 0.60273 0.0
H1121 H 0.30805 0.77665 0.38961 0.0
H1122 H 0.30699 0.74922 0.37626 0.0
H1123 H 0.31197 0.724 0.43245 0.0
H1124 H 0.33939 0.71981 0.64722 0.0
H1125 H 0.34268 0.74709 0.65173 0.0
C1126 C 0.32969 0.76723 0.55276 0.0
C1127 C 0.32188 0.77653 0.49798 0.0
C1128 C 0.32897 0.75145 0.54589 0.0
C1129 C 0.31407 0.7698 0.43319 0.0
C1130 C 0.31343 0.75409 0.42552 0.0
C1131 C 0.31883 0.72902 0.47966 0.0
C1132 C 0.32524 0.71982 0.53999 0.0
C1133 C 0.32053 0.7448 0.48268 0.0
C1134 C 0.33418 0.72657 0.60038 0.0
C1135 C 0.33606 0.7422 0.60317 0.0
H1136 H 0.47876 0.07761 0.8507 0.0
H1137 H 0.4763 0.05535 0.61863 0.0
H1138 H 0.50368 0.05553 0.6085 0.0
H1139 H 0.52837 0.06035 0.66928 0.0
H1140 H 0.53108 0.08224 0.90229 0.0
H1141 H 0.50358 0.08394 0.90771 0.0
C1142 C 0.48418 0.07291 0.79749 0.0
C1143 C 0.47537 0.06634 0.73585 0.0
C1144 C 0.50002 0.07291 0.79231 0.0
C1145 C 0.48268 0.06039 0.6673 0.0
C1146 C 0.4984 0.06047 0.66142 0.0
C1147 C 0.52299 0.06562 0.72104 0.0
C1148 C 0.53183 0.07103 0.78556 0.0
C1149 C 0.50718 0.06644 0.72421 0.0
C1150 C 0.5246 0.07792 0.85182 0.0
C1151 C 0.50885 0.07887 0.85512 0.0
H1152 H 0.17105 0.72705 0.88253 0.0
H1153 H 0.19319 0.72977 0.11462 0.0
H1154 H 0.19176 0.75714 0.1109 0.0
H1155 H 0.18605 0.78041 0.03757 0.0
H1156 H 0.16419 0.77801 0.80457 0.0
H1157 H 0.16351 0.7505 0.81362 0.0
C1158 C 0.17544 0.7336 0.93273 0.0
C1159 C 0.1824 0.72624 -0.00162 0.0
C1160 C 0.17468 0.74947 0.93 0.0
C1161 C 0.1879 0.735 0.06297 0.0
C1162 C 0.18709 0.75073 0.06093 0.0
C1163 C 0.181 0.77391 0.98898 0.0
C1164 C 0.17534 0.78131 0.92011 0.0
C1165 C 0.18079 0.75809 0.99405 0.0
C1166 C 0.1687 0.77265 0.85824 0.0
C1167 C 0.16835 0.75689 0.86317 0.0
H1168 H 0.52583 0.94205 0.32026 0.0
H1169 H 0.52848 0.91701 0.09638 0.0
H1170 H 0.50103 0.91508 0.0925 0.0
H1171 H 0.47627 0.9221 0.14683 0.0
H1172 H 0.47353 0.94754 0.36934 0.0
H1173 H 0.50102 0.94753 0.37973 0.0
C1174 C 0.52044 0.93604 0.27093 0.0
C1175 C 0.52927 0.92982 0.20831 0.0
C1176 C 0.50461 0.93508 0.26857 0.0
C1177 C 0.52202 0.922 0.14519 0.0
C1178 C 0.5063 0.92089 0.14281 0.0
C1179 C 0.48165 0.92751 0.19819 0.0
C1180 C 0.4728 0.93494 0.25677 0.0
C1181 C 0.49747 0.92764 0.20333 0.0
C1182 C 0.48002 0.94182 0.32299 0.0
C1183 C 0.49576 0.94185 0.32895 0.0
H1184 H 0.33421 0.22769 0.36337 0.0
H1185 H 0.30983 0.22184 0.58752 0.0
H1186 H 0.3085 0.24916 0.60485 0.0
H1187 H 0.31242 0.27467 0.55101 0.0
H1188 H 0.33646 0.28046 0.32574 0.0
H1189 H 0.33978 0.25322 0.31475 0.0
C1190 C 0.32875 0.23236 0.41654 0.0
C1191 C 0.322 0.22268 0.47352 0.0
C1192 C 0.32785 0.2481 0.42577 0.0
C1193 C 0.31503 0.22899 0.54223 0.0
C1194 C 0.31424 0.24463 0.55222 0.0
C1195 C 0.31856 0.27002 0.49999 0.0
C1196 C 0.32406 0.27966 0.43906 0.0
C1197 C 0.32032 0.2543 0.4935 0.0
C1198 C 0.33199 0.27336 0.3734 0.0
C1199 C 0.3339 0.25775 0.36692 0.0
H1200 H 0.97544 0.08302 0.63458 0.0
H1201 H 0.97065 0.05665 0.85269 0.0
H1202 H 0.99802 0.05609 0.86884 0.0
H1203 H 0.02337 0.06111 0.81447 0.0
H1204 H 0.02798 0.08709 0.59482 0.0
H1205 H 1.00068 0.08985 0.58663 0.0
C1206 C 0.98034 0.0773 0.68625 0.0
C1207 C 0.97096 0.06974 0.74167 0.0
C1208 C 0.99611 0.07684 0.69474 0.0
C1209 C 0.97757 0.06246 0.80853 0.0
C1210 C 0.99325 0.0621 0.81785 0.0
C1211 C 0.01843 0.06753 0.76531 0.0
C1212 C 0.02777 0.0737 0.70485 0.0
C1213 C 0.00264 0.06894 0.76026 0.0
C1214 C 0.02112 0.08207 0.64189 0.0
C1215 C 0.00547 0.08365 0.637 0.0
H1216 H 0.80613 0.72375 0.08707 0.0
H1217 H 0.83555 0.72248 0.87864 0.0
H1218 H 0.8368 0.74994 0.87778 0.0
H1219 H 0.82792 0.7743 0.92863 0.0
H1220 H 0.79811 0.77577 0.13533 0.0
H1221 H 0.79879 0.74828 0.14462 0.0
C1222 C 0.81297 0.72946 0.04204 0.0
C1223 C 0.82057 0.72102 0.98242 0.0
C1224 C 0.81351 0.74532 0.04111 0.0
C1225 C 0.82945 0.72864 0.92483 0.0
C1226 C 0.83017 0.74438 0.92414 0.0
C1227 C 0.82165 0.76864 0.97618 0.0
C1228 C 0.81286 0.77712 0.03062 0.0
C1229 C 0.82196 0.75283 0.98075 0.0
C1230 C 0.80495 0.76956 0.09234 0.0
C1231 C 0.80529 0.75382 0.09762 0.0
H1232 H 0.66383 0.27818 0.33829 0.0
H1233 H 0.69069 0.28149 0.55554 0.0
H1234 H 0.69076 0.25406 0.56804 0.0
H1235 H 0.68516 0.22912 0.51082 0.0
H1236 H 0.65842 0.22582 0.29319 0.0
H1237 H 0.65634 0.25324 0.2878 0.0
C1238 C 0.66956 0.27294 0.38896 0.0
C1239 C 0.6774 0.28193 0.44523 0.0
C1240 C 0.66969 0.25713 0.3955 0.0
C1241 C 0.68465 0.27489 0.51083 0.0
C1242 C 0.68474 0.25917 0.51802 0.0
C1243 C 0.67869 0.23435 0.46283 0.0
C1244 C 0.67207 0.22535 0.40224 0.0
C1245 C 0.6776 0.25017 0.45967 0.0
C1246 C 0.66372 0.23241 0.34053 0.0
C1247 C 0.66253 0.24813 0.33723 0.0
H1248 H 0.81366 0.22719 0.95211 0.0
H1249 H 0.84222 0.22305 0.16264 0.0
H1250 H 0.84493 0.25037 0.16888 0.0
H1251 H 0.83742 0.27545 0.12261 0.0
H1252 H 0.80853 0.27988 0.91366 0.0
H1253 H 0.8079 0.25246 0.89852 0.0
C1254 C 0.82063 0.23224 -0.00123 0.0
C1255 C 0.82754 0.22304 0.05746 0.0
C1256 C 0.82202 0.24804 0.00276 0.0
C1257 C 0.83662 0.22981 0.11714 0.0
C1258 C 0.83818 0.24547 0.1209 0.0
C1259 C 0.83109 0.27046 0.0732 0.0
C1260 C 0.82287 0.27974 0.02011 0.0
C1261 C 0.83063 0.25469 0.0653 0.0
C1262 C 0.81488 0.27303 0.95592 0.0
C1263 C 0.81447 0.25733 0.94725 0.0
H1264 H 0.67065 0.72348 0.57249 0.0
H1265 H 0.701 0.72222 0.3681 0.0
H1266 H 0.70113 0.74981 0.36322 0.0
H1267 H 0.69438 0.77425 0.42464 0.0
H1268 H 0.66424 0.77517 0.63015 0.0
H1269 H 0.66233 0.74776 0.62664 0.0
C1270 C 0.67718 0.7292 0.52617 0.0
C1271 C 0.68593 0.72074 0.47132 0.0
C1272 C 0.67736 0.74504 0.52431 0.0
C1273 C 0.69421 0.72841 0.41142 0.0
C1274 C 0.69434 0.7442 0.40874 0.0
C1275 C 0.68722 0.76849 0.46796 0.0
C1276 C 0.67956 0.77683 0.52788 0.0
C1277 C 0.68623 0.75264 0.46607 0.0
C1278 C 0.67037 0.7691 0.58362 0.0
C1279 C 0.66925 0.75339 0.58176 0.0
H1280 H 0.47313 0.44623 0.65262 0.0
H1281 H 0.47162 0.41565 0.85592 0.0
H1282 H 0.49904 0.41377 0.85473 0.0
H1283 H 0.52346 0.42248 0.80444 0.0
H1284 H 0.52531 0.45348 0.60321 0.0
H1285 H 0.49776 0.45338 0.59488 0.0
C1286 C 0.47877 0.439 0.696 0.0
C1287 C 0.47028 0.43125 0.75489 0.0
C1288 C 0.49463 0.43812 0.69586 0.0
C1289 C 0.47783 0.42187 0.81037 0.0
C1290 C 0.49354 0.42079 0.80988 0.0
C1291 C 0.51788 0.42912 0.75815 0.0
C1292 C 0.52648 0.43812 0.70523 0.0
C1293 C 0.50206 0.42915 0.75425 0.0
C1294 C 0.519 0.44652 0.64518 0.0
C1295 C 0.50323 0.4465 0.64044 0.0
H1296 H 0.02264 0.56188 0.16883 0.0
H1297 H 0.02702 0.58594 0.39496 0.0
H1298 H 0.99965 0.58807 0.40472 0.0
H1299 H 0.97448 0.58121 0.35547 0.0
H1300 H 0.97005 0.5567 0.13081 0.0
H1301 H 0.99742 0.55684 0.11389 0.0
C1302 C 0.01764 0.56776 0.21981 0.0
C1303 C 0.02693 0.5736 0.28141 0.0
C1304 C 0.00185 0.56881 0.22564 0.0
C1305 C 0.02019 0.58122 0.34685 0.0
C1306 C 0.00451 0.58245 0.35262 0.0
C1307 C 0.97946 0.57608 0.30218 0.0
C1308 C 0.97019 0.56881 0.24504 0.0
C1309 C 0.99523 0.57599 0.2933 0.0
C1310 C 0.97689 0.56226 0.17623 0.0
C1311 C 0.99256 0.56231 0.1665 0.0
H1312 H 0.03007 0.44682 0.83751 0.0
H1313 H 0.03079 0.4153 0.63802 0.0
H1314 H 0.00337 0.41338 0.64271 0.0
H1315 H 0.97909 0.42227 0.69518 0.0
H1316 H 0.97823 0.45443 0.89156 0.0
H1317 H 0.00573 0.4543 0.89672 0.0
C1318 C 0.02426 0.43937 0.79573 0.0
C1319 C 0.03252 0.43135 0.73698 0.0
C1320 C 0.00841 0.43848 0.79779 0.0
C1321 C 0.02476 0.42172 0.68352 0.0
C1322 C 0.00904 0.42062 0.68598 0.0
C1323 C 0.98488 0.42915 0.73972 0.0
C1324 C 0.97653 0.43838 0.79263 0.0
C1325 C 1.00074 0.42922 0.74154 0.0
C1326 C 0.98429 0.44715 0.85021 0.0
C1327 C 1.00007 0.44715 0.85297 0.0
H1328 H 0.47744 0.55611 0.33687 0.0
H1329 H 0.47406 0.58763 0.13841 0.0
H1330 H 0.50145 0.58934 0.13132 0.0
H1331 H 0.52628 0.58025 0.1727 0.0
H1332 H 0.53003 0.54845 0.36947 0.0
H1333 H 0.50262 0.54863 0.38627 0.0
C1334 C 0.48268 0.56351 0.29282 0.0
C1335 C 0.47366 0.57156 0.23757 0.0
C1336 C 0.49853 0.56432 0.28821 0.0
C1337 C 0.48068 0.58115 0.18111 0.0
C1338 C 0.49638 0.58214 0.17688 0.0
C1339 C 0.52115 0.57345 0.21983 0.0
C1340 C 0.53022 0.5642 0.26895 0.0
C1341 C 0.5054 0.57349 0.2287 0.0
C1342 C 0.52334 0.5556 0.3303 0.0
C1343 C 0.50764 0.55567 0.33989 0.0
H1344 H 0.19795 0.1954 0.37749 0.0
H1345 H 0.15785 0.16783 0.39086 0.0
H1346 H 0.16368 0.16169 0.53228 0.0
H1347 H 0.18081 0.1636 0.64998 0.0
H1348 H 0.22152 0.19008 0.63114 0.0
H1349 H 0.21506 0.19688 0.49208 0.0
C1350 C 0.19032 0.18821 0.41148 0.0
C1351 C 0.17734 0.18226 0.37432 0.0
C1352 C 0.19402 0.18437 0.49101 0.0
C1353 C 0.16782 0.17265 0.41861 0.0
C1354 C 0.1712 0.1691 0.49912 0.0
C1355 C 0.1881 0.17106 0.61566 0.0
C1356 C 0.20144 0.17663 0.65075 0.0
C1357 C 0.18434 0.17482 0.53568 0.0
C1358 C 0.21117 0.18574 0.60502 0.0
C1359 C 0.20744 0.18969 0.52593 0.0
H1360 H 0.08987 0.93115 0.60638 0.0
H1361 H 0.04962 0.90399 0.63095 0.0
H1362 H 0.04654 0.91277 0.77014 0.0
H1363 H 0.05386 0.93014 0.87939 0.0
H1364 H 0.09405 0.95731 0.85302 0.0
H1365 H 0.09812 0.94704 0.71813 0.0
C1366 C 0.08057 0.92689 0.64245 0.0
C1367 C 0.06994 0.91699 0.60795 0.0
C1368 C 0.07859 0.93233 0.72129 0.0
C1369 C 0.05797 0.91163 0.65589 0.0
C1370 C 0.05611 0.91676 0.73525 0.0
C1371 C 0.0637 0.93355 0.84507 0.0
C1372 C 0.07373 0.94434 0.87688 0.0
C1373 C 0.06612 0.92743 0.76777 0.0
C1374 C 0.08609 0.94908 0.82992 0.0
C1375 C 0.08853 0.94311 0.75302 0.0
H1376 H 0.32396 0.83416 0.85142 0.0
H1377 H 0.33817 0.78806 0.8884 0.0
H1378 H 0.32979 0.7893 0.0292 0.0
H1379 H 0.31646 0.80276 0.13756 0.0
H1380 H 0.30173 0.84864 0.09957 0.0
H1381 H 0.31177 0.84801 0.96188 0.0
C1382 C 0.32557 0.8245 0.89076 0.0
C1383 C 0.33178 0.81106 0.85974 0.0
C1384 C 0.32026 0.82512 0.97064 0.0
C1385 C 0.33349 0.79855 0.91109 0.0
C1386 C 0.32859 0.79921 0.99132 0.0
C1387 C 0.31575 0.81274 0.09987 0.0
C1388 C 0.3086 0.82581 0.12917 0.0
C1389 C 0.32165 0.81232 0.02113 0.0
C1390 C 0.30719 0.83843 0.0783 0.0
C1391 C 0.31303 0.83812 -0.00015 0.0
H1392 H 0.42053 0.05926 0.06638 0.0
H1393 H 0.45368 0.09267 0.13313 0.0
H1394 H 0.45116 0.08535 0.27575 0.0
H1395 H 0.43967 0.06921 0.37922 0.0
H1396 H 0.40925 0.03345 0.30836 0.0
H1397 H 0.4099 0.04254 0.16911 0.0
C1398 C 0.42702 0.06511 0.11238 0.0
C1399 C 0.43708 0.07667 0.09005 0.0
C1400 C 0.42606 0.06034 0.19286 0.0
C1401 C 0.44575 0.08387 0.14954 0.0
C1402 C 0.44437 0.07962 0.23067 0.0
C1403 C 0.43379 0.06283 0.33325 0.0
C1404 C 0.42497 0.05017 0.35417 0.0
C1405 C 0.43475 0.06768 0.25269 0.0
C1406 C 0.41641 0.04299 0.29381 0.0
C1407 C 0.41679 0.04816 0.21416 0.0
H1408 H 0.17887 0.83994 0.57874 0.0
H1409 H 0.15542 0.7978 0.54068 0.0
H1410 H 0.16399 0.7973 0.40012 0.0
H1411 H 0.18001 0.80765 0.29244 0.0
H1412 H 0.20377 0.84956 0.33133 0.0
H1413 H 0.19368 0.85101 0.46862 0.0
C1414 C 0.17532 0.83082 0.53926 0.0
C1415 C 0.16645 0.81895 0.57005 0.0
C1416 C 0.18068 0.83035 0.4594 0.0
C1417 C 0.16219 0.8071 0.51833 0.0
C1418 C 0.16719 0.80674 0.43818 0.0
C1419 C 0.18268 0.8173 0.33005 0.0
C1420 C 0.19242 0.82861 0.30106 0.0
C1421 C 0.17673 0.81812 0.40867 0.0
C1422 C 0.19631 0.84068 0.3522 0.0
C1423 C 0.19045 0.84159 0.43048 0.0
H1424 H 0.44745 0.9534 0.90085 0.0
H1425 H 0.42069 0.91274 0.88644 0.0
H1426 H 0.41446 0.91855 0.74518 0.0
H1427 H 0.41619 0.93569 0.62781 0.0
H1428 H 0.44205 0.97678 0.64666 0.0
H1429 H 0.44878 0.97053 0.78623 0.0
C1430 C 0.44044 0.94564 0.8666 0.0
C1431 C 0.43474 0.93251 0.90329 0.0
C1432 C 0.43659 0.94929 0.78712 0.0
C1433 C 0.42532 0.92283 0.85888 0.0
C1434 C 0.42172 0.92619 0.77854 0.0
C1435 C 0.42347 0.94312 0.66241 0.0
C1436 C 0.42895 0.95647 0.62731 0.0
C1437 C 0.42722 0.93945 0.74232 0.0
C1438 C 0.43783 0.9664 0.67299 0.0
C1439 C 0.44174 0.96278 0.75225 0.0
H1440 H 0.31785 0.19584 0.83128 0.0
H1441 H 0.30154 0.15059 0.87209 0.0
H1442 H 0.31143 0.15123 0.01006 0.0
H1443 H 0.32391 0.16498 0.12006 0.0
H1444 H 0.33957 0.21052 0.08027 0.0
H1445 H 0.3314 0.20916 0.93918 0.0
C1446 C 0.31677 0.18599 0.8696 0.0
C1447 C 0.30921 0.17308 0.84099 0.0
C1448 C 0.32255 0.18642 0.94856 0.0
C1449 C 0.30732 0.16066 0.89276 0.0
C1450 C 0.31307 0.16097 0.97139 0.0
C1451 C 0.32588 0.17448 0.08002 0.0
C1452 C 0.33247 0.18779 0.11029 0.0
C1453 C 0.32068 0.17381 -5e-05 0.0
C1454 C 0.33462 0.20012 0.05813 0.0
C1455 C 0.32984 0.19939 0.97773 0.0
H1456 H 0.08843 0.07089 0.37697 0.0
H1457 H 0.046 0.09444 0.35117 0.0
H1458 H 0.04396 0.08556 0.21164 0.0
H1459 H 0.05293 0.06894 0.10263 0.0
H1460 H 0.09523 0.04528 0.13024 0.0
H1461 H 0.09821 0.05583 0.26543 0.0
C1462 C 0.07885 0.07435 0.34057 0.0
C1463 C 0.06733 0.08323 0.37478 0.0
C1464 C 0.0775 0.06881 0.26161 0.0
C1465 C 0.05502 0.08758 0.32643 0.0
C1466 C 0.05377 0.08239 0.24689 0.0
C1467 C 0.06297 0.06637 0.13735 0.0
C1468 C 0.07393 0.05649 0.10592 0.0
C1469 C 0.06473 0.07265 0.21471 0.0
C1470 C 0.08658 0.0528 0.15319 0.0
C1471 C 0.08838 0.05894 0.2302 0.0
H1472 H 0.80508 0.81894 0.69912 0.0
H1473 H 0.85087 0.82746 0.62139 0.0
H1474 H 0.84221 0.82936 0.48091 0.0
H1475 H 0.82145 0.82904 0.38153 0.0
H1476 H 0.77597 0.81984 0.4608 0.0
H1477 H 0.78475 0.81785 0.6008 0.0
C1478 C 0.81323 0.82124 0.65168 0.0
C1479 C 0.82862 0.82312 0.67069 0.0
C1480 C 0.80821 0.8222 0.5718 0.0
C1481 C 0.83898 0.82595 0.60826 0.0
C1482 C 0.83403 0.82707 0.52812 0.0
C1483 C 0.81353 0.82633 0.42942 0.0
C1484 C 0.79817 0.82417 0.41124 0.0
C1485 C 0.81866 0.82522 0.50936 0.0
C1486 C 0.78786 0.82136 0.47377 0.0
C1487 C 0.79286 0.82027 0.5535 0.0
H1488 H 0.94445 0.06474 0.09914 0.0
H1489 H 0.90067 0.04489 0.14095 0.0
H1490 H 0.90063 0.05476 0.27906 0.0
H1491 H 0.91341 0.06832 0.38915 0.0
H1492 H 0.95753 0.08752 0.3482 0.0
H1493 H 0.95674 0.07925 0.20707 0.0
C1494 C 0.93474 0.06287 0.13765 0.0
C1495 C 0.92245 0.05432 0.10915 0.0
C1496 C 0.93477 0.06865 0.21682 0.0
C1497 C 0.91026 0.05145 0.16137 0.0
C1498 C 0.91018 0.05718 0.24016 0.0
C1499 C 0.92268 0.07104 0.34879 0.0
C1500 C 0.93544 0.07869 0.37876 0.0
C1501 C 0.92238 0.06578 0.26858 0.0
C1502 C 0.94754 0.08176 0.32627 0.0
C1503 C 0.94715 0.07692 0.24583 0.0
H1504 H 0.67801 0.207 0.04334 0.0
H1505 H 0.66182 0.16123 0.06844 0.0
H1506 H 0.6713 0.1552 0.9332 0.0
H1507 H 0.68552 0.16269 0.81116 0.0
H1508 H 0.70195 0.2083 0.78896 0.0
H1509 H 0.69145 0.2146 0.92182 0.0
C1510 C 0.67635 0.19574 0.01909 0.0
C1511 C 0.6693 0.18455 0.06607 0.0
C1512 C 0.68226 0.19225 0.94303 0.0
C1513 C 0.6672 0.17005 0.03338 0.0
C1514 C 0.67276 0.16655 0.95652 0.0
C1515 C 0.68696 0.1739 0.83648 0.0
C1516 C 0.69466 0.185 0.7922 0.0
C1517 C 0.68064 0.17747 0.91179 0.0
C1518 C 0.69622 0.19962 0.82347 0.0
C1519 C 0.69011 0.20322 0.89865 0.0
H1520 H 0.54824 0.9224 0.85086 0.0
H1521 H 0.59637 0.91873 0.88819 0.0
H1522 H 0.60096 0.9292 0.75386 0.0
H1523 H 0.59129 0.94164 0.63142 0.0
H1524 H 0.54328 0.94544 0.59489 0.0
H1525 H 0.53858 0.93297 0.72474 0.0
C1526 C 0.55974 0.92356 0.82908 0.0
C1527 C 0.57195 0.91996 0.87973 0.0
C1528 C 0.5623 0.93003 0.75315 0.0
C1529 C 0.58678 0.92151 0.85039 0.0
C1530 C 0.58942 0.92763 0.77402 0.0
C1531 C 0.57984 0.93984 0.65274 0.0
C1532 C 0.56761 0.94466 0.60573 0.0
C1533 C 0.57728 0.93243 0.72623 0.0
C1534 C 0.55279 0.94196 0.63166 0.0
C1535 C 0.55013 0.93475 0.70519 0.0
H1536 H 0.82376 0.16326 0.3892 0.0
H1537 H 0.84742 0.20555 0.41874 0.0
H1538 H 0.83851 0.20727 0.55836 0.0
H1539 H 0.82199 0.19799 0.66688 0.0
H1540 H 0.79826 0.1558 0.63609 0.0
H1541 H 0.80872 0.15318 0.50034 0.0
C1542 C 0.82726 0.17272 0.42649 0.0
C1543 C 0.83621 0.1843 0.39335 0.0
C1544 C 0.82173 0.17387 0.50567 0.0
C1545 C 0.84053 0.19649 0.44269 0.0
C1546 C 0.83533 0.19755 0.52231 0.0
C1547 C 0.81938 0.18805 0.63134 0.0
C1548 C 0.80952 0.17701 0.66209 0.0
C1549 C 0.8256 0.18651 0.55366 0.0
C1550 C 0.80578 0.16451 0.61373 0.0
C1551 C 0.81186 0.16292 0.53637 0.0
H1552 H 0.59319 0.05799 0.35627 0.0
H1553 H 0.54502 0.05781 0.39277 0.0
H1554 H 0.54132 0.07068 0.2631 0.0
H1555 H 0.5518 0.08042 0.1367 0.0
H1556 H 0.60008 0.0804 0.09944 0.0
H1557 H 0.60382 0.06968 0.23395 0.0
C1558 C 0.58191 0.06069 0.33507 0.0
C1559 C 0.56934 0.05676 0.38207 0.0
C1560 C 0.57994 0.06827 0.26159 0.0
C1561 C 0.55478 0.06061 0.35617 0.0
C1562 C 0.5527 0.06803 0.28267 0.0
C1563 C 0.56317 0.07841 0.15856 0.0
C1564 C 0.57563 0.08103 0.10783 0.0
C1565 C 0.5652 0.0718 0.23464 0.0
C1566 C 0.59029 0.07838 0.13726 0.0
C1567 C 0.59243 0.07211 0.21375 0.0
H1568 H 0.69259 0.79737 0.89324 0.0
H1569 H 0.66385 0.83669 0.87935 0.0
H1570 H 0.67172 0.84423 0.01537 0.0
H1571 H 0.68745 0.83994 0.13648 0.0
H1572 H 0.716 0.80063 0.14858 0.0
H1573 H 0.70788 0.79294 0.01301 0.0
C1574 C 0.68787 0.8075 0.92007 0.0
C1575 C 0.67763 0.81645 0.87628 0.0
C1576 C 0.69273 0.81194 -0.00317 0.0
C1577 C 0.67169 0.82957 0.91205 0.0
C1578 C 0.6763 0.83396 0.98938 0.0
C1579 C 0.69203 0.82985 0.10831 0.0
C1580 C 0.70249 0.82095 0.15037 0.0
C1581 C 0.687 0.82536 0.03166 0.0
C1582 C 0.70813 0.80769 0.11563 0.0
C1583 C 0.70338 0.80325 0.03891 0.0
H1584 H 0.91694 0.9191 0.92851 0.0
H1585 H 0.92847 0.96431 0.85329 0.0
H1586 H 0.93083 0.95566 0.71351 0.0
H1587 H 0.93035 0.93525 0.61412 0.0
H1588 H 0.91992 0.88974 0.68934 0.0
H1589 H 0.91701 0.89845 0.82914 0.0
C1590 C 0.92042 0.927 0.8823 0.0
C1591 C 0.92301 0.94227 0.90206 0.0
C1592 C 0.92202 0.92188 0.80231 0.0
C1593 C 0.92655 0.95248 0.83994 0.0
C1594 C 0.92796 0.94753 0.76008 0.0
C1595 C 0.92741 0.92719 0.6609 0.0
C1596 C 0.92532 0.91184 0.64115 0.0
C1597 C 0.92583 0.93225 0.74078 0.0
C1598 C 0.92164 0.90159 0.70285 0.0
C1599 C 0.91992 0.90658 0.7827 0.0
H1600 H 0.6862 0.66407 0.0988 0.0
H1601 H 0.72738 0.68985 0.08236 0.0
H1602 H 0.72118 0.69701 0.94338 0.0
H1603 H 0.70417 0.69589 0.82817 0.0
H1604 H 0.66348 0.66916 0.8402 0.0
H1605 H 0.6691 0.66273 0.98135 0.0
C1606 C 0.69365 0.67144 0.06491 0.0
C1607 C 0.70704 0.67674 0.10046 0.0
C1608 C 0.69003 0.67542 0.98531 0.0
C1609 C 0.717 0.68574 0.05563 0.0
C1610 C 0.71341 0.68989 0.97671 0.0
C1611 C 0.69636 0.68886 0.86193 0.0
C1612 C 0.68329 0.68319 0.82455 0.0
C1613 C 0.69992 0.68486 0.9413 0.0
C1614 C 0.67352 0.67376 0.86831 0.0
C1615 C 0.67678 0.67003 0.94857 0.0
H1616 H 0.55264 0.45654 0.05979 0.0
H1617 H 0.57708 0.41449 0.07652 0.0
H1618 H 0.58315 0.42 0.21839 0.0
H1619 H 0.58188 0.4372 0.33601 0.0
H1620 H 0.55859 0.47974 0.31448 0.0
H1621 H 0.55185 0.47375 0.17443 0.0
C1622 C 0.5591 0.44843 0.09465 0.0
C1623 C 0.5642 0.43498 0.0584 0.0
C1624 C 0.56288 0.45188 0.17454 0.0
C1625 C 0.57292 0.42482 0.10366 0.0
C1626 C 0.57644 0.42801 0.18438 0.0
C1627 C 0.57523 0.44505 0.30044 0.0
C1628 C 0.57044 0.45873 0.33494 0.0
C1629 C 0.57154 0.44155 0.22016 0.0
C1630 C 0.56225 0.4691 0.28856 0.0
C1631 C 0.55835 0.46565 0.20902 0.0
H1632 H 0.81708 0.30612 0.6629 0.0
H1633 H 0.80389 0.35245 0.62442 0.0
H1634 H 0.81386 0.35142 0.4866 0.0
H1635 H 0.8255 0.3371 0.3763 0.0
H1636 H 0.83808 0.29054 0.41357 0.0
H1637 H 0.82986 0.29215 0.55456 0.0
C1638 C 0.81669 0.31609 0.62503 0.0
C1639 C 0.81 0.32942 0.65416 0.0
C1640 C 0.82252 0.31544 0.54625 0.0
C1641 C 0.80899 0.34205 0.60319 0.0
C1642 C 0.81479 0.34151 0.52471 0.0
C1643 C 0.82679 0.3274 0.41571 0.0
C1644 C 0.83248 0.31374 0.38477 0.0
C1645 C 0.82155 0.32825 0.49562 0.0
C1646 C 0.8338 0.3012 0.43622 0.0
C1647 C 0.82898 0.30207 0.51653 0.0
H1648 H 0.91351 0.56618 0.88171 0.0
H1649 H 0.94078 0.52597 0.8644 0.0
H1650 H 0.94769 0.53251 0.72547 0.0
H1651 H 0.94609 0.54961 0.61064 0.0
H1652 H 0.91798 0.58936 0.62365 0.0
H1653 H 0.91159 0.58331 0.76442 0.0
C1654 C 0.92116 0.55902 0.84777 0.0
C1655 C 0.92696 0.54583 0.88326 0.0
C1656 C 0.92502 0.56284 0.76807 0.0
C1657 C 0.93629 0.53623 0.83797 0.0
C1658 C 0.94031 0.54001 0.75901 0.0
C1659 C 0.93875 0.55713 0.64451 0.0
C1660 C 0.93272 0.57008 0.60746 0.0
C1661 C 0.93482 0.55333 0.72382 0.0
C1662 C 0.92288 0.57943 0.65141 0.0
C1663 C 0.91918 0.57592 0.73152 0.0
H1664 H 0.68246 0.30842 0.80776 0.0
H1665 H 0.70155 0.35262 0.84756 0.0
H1666 H 0.69149 0.35281 0.98523 0.0
H1667 H 0.67814 0.34002 0.09531 0.0
H1668 H 0.65962 0.29551 0.05673 0.0
H1669 H 0.66793 0.29616 0.9157 0.0
C1670 C 0.68412 0.31824 0.8458 0.0
C1671 C 0.69252 0.3306 0.81705 0.0
C1672 C 0.67823 0.3183 0.9246 0.0
C1673 C 0.69512 0.34296 0.8684 0.0
C1674 C 0.68928 0.34313 0.94685 0.0
C1675 C 0.67559 0.3306 0.05561 0.0
C1676 C 0.66819 0.31776 0.08628 0.0
C1677 C 0.68086 0.33084 0.97562 0.0
C1678 C 0.66524 0.30554 0.03438 0.0
C1679 C 0.6701 0.30586 0.954 0.0
H1680 H 0.93812 0.43299 0.1529 0.0
H1681 H 0.91309 0.47267 0.22511 0.0
H1682 H 0.91253 0.46344 0.36388 0.0
H1683 H 0.92169 0.44594 0.46698 0.0
H1684 H 0.95055 0.40881 0.39913 0.0
H1685 H 0.94804 0.41585 0.2561 0.0
C1686 C 0.93333 0.44021 0.19885 0.0
C1687 C 0.92642 0.45404 0.17821 0.0
C1688 C 0.93393 0.43539 0.2796 0.0
C1689 C 0.91889 0.46221 0.23902 0.0
C1690 C 0.91861 0.457 0.31861 0.0
C1691 C 0.92723 0.43923 0.42071 0.0
C1692 C 0.93611 0.42674 0.44293 0.0
C1693 C 0.92642 0.44383 0.33985 0.0
C1694 C 0.94355 0.41837 0.38292 0.0
C1695 C 0.94217 0.42245 0.30151 0.0
H1696 H 0.81515 0.6954 0.36233 0.0
H1697 H 0.7939 0.65205 0.39786 0.0
H1698 H 0.80415 0.65078 0.53463 0.0
H1699 H 0.8186 0.66221 0.64447 0.0
H1700 H 0.83974 0.70567 0.60981 0.0
H1701 H 0.83082 0.70623 0.46997 0.0
C1702 C 0.81307 0.6855 0.39908 0.0
C1703 C 0.80402 0.6737 0.3693 0.0
C1704 C 0.81919 0.68474 0.47716 0.0
C1705 C 0.80084 0.66129 0.41937 0.0
C1706 C 0.80681 0.66049 0.49729 0.0
C1707 C 0.82156 0.67167 0.60597 0.0
C1708 C 0.82985 0.68388 0.63751 0.0
C1709 C 0.81601 0.67214 0.52671 0.0
C1710 C 0.83341 0.69612 0.5869 0.0
C1711 C 0.8282 0.69651 0.50722 0.0
H1712 H 0.58649 0.5653 0.63086 0.0
H1713 H 0.56183 0.52341 0.64361 0.0
H1714 H 0.55393 0.52932 0.782 0.0
H1715 H 0.5543 0.5462 0.8984 0.0
H1716 H 0.57996 0.58762 0.88981 0.0
H1717 H 0.58694 0.58232 0.74906 0.0
C1718 C 0.57925 0.5576 0.66399 0.0
C1719 C 0.57447 0.5441 0.62752 0.0
C1720 C 0.57486 0.56106 0.74331 0.0
C1721 C 0.56554 0.53388 0.67107 0.0
C1722 C 0.56096 0.53732 0.74965 0.0
C1723 C 0.56121 0.55424 0.86547 0.0
C1724 C 0.56645 0.5674 0.9039 0.0
C1725 C 0.56553 0.55088 0.78613 0.0
C1726 C 0.5757 0.57748 0.86104 0.0
C1727 C 0.57975 0.57441 0.78095 0.0
H1728 H 0.32774 0.32087 0.82754 0.0
H1729 H 0.28093 0.32186 0.9004 0.0
H1730 H 0.28852 0.32204 0.04238 0.0
H1731 H 0.30828 0.32245 0.14468 0.0
H1732 H 0.35507 0.31954 0.07482 0.0
H1733 H 0.34767 0.31923 0.93129 0.0
C1734 C 0.31918 0.32057 0.87436 0.0
C1735 C 0.30376 0.32092 0.85367 0.0
C1736 C 0.32363 0.32052 0.95573 0.0
C1737 C 0.29284 0.32141 0.91509 0.0
C1738 C 0.29716 0.32156 0.99604 0.0
C1739 C 0.31685 0.32183 0.09783 0.0
C1740 C 0.33218 0.32135 0.11918 0.0
C1741 C 0.31249 0.32126 0.01682 0.0
C1742 C 0.34322 0.32011 0.05889 0.0
C1743 C 0.33898 0.31991 0.97733 0.0
H1744 H 0.44794 0.56653 0.62338 0.0
H1745 H 0.40468 0.54499 0.65706 0.0
H1746 H 0.40304 0.55537 0.79351 0.0
H1747 H 0.41418 0.56985 0.90386 0.0
H1748 H 0.45758 0.59126 0.87132 0.0
H1749 H 0.45842 0.58238 0.7314 0.0
C1750 C 0.43798 0.56441 0.65967 0.0
C1751 C 0.42633 0.55522 0.62954 0.0
C1752 C 0.43702 0.57059 0.73762 0.0
C1753 C 0.41382 0.55202 0.67892 0.0
C1754 C 0.41281 0.55806 0.75665 0.0
C1755 C 0.4237 0.57287 0.86584 0.0
C1756 C 0.43582 0.5812 0.89809 0.0
C1757 C 0.42434 0.56734 0.78657 0.0
C1758 C 0.4481 0.58488 0.84795 0.0
C1759 C 0.44866 0.57969 0.76821 0.0
H1760 H 0.16098 0.69385 0.60991 0.0
H1761 H 0.19259 0.66499 0.73277 0.0
H1762 H 0.20922 0.66529 0.6137 0.0
H1763 H 0.2134 0.67201 0.46905 0.0
H1764 H 0.17931 0.69838 0.34675 0.0
H1765 H 0.16553 0.70134 0.47101 0.0
C1766 C 0.17173 0.68796 0.61134 0.0
C1767 C 0.17571 0.6796 0.68009 0.0
C1768 C 0.18094 0.68793 0.54248 0.0
C1769 C 0.18953 0.67186 0.6812 0.0
C1770 C 0.19894 0.67192 0.61275 0.0
C1771 C 0.20313 0.67867 0.47015 0.0
C1772 C 0.19794 0.68556 0.39831 0.0
C1773 C 0.1946 0.67967 0.54219 0.0
C1774 C 0.18432 0.69375 0.40076 0.0
C1775 C 0.17612 0.69519 0.47212 0.0
H1776 H 0.08888 0.43448 0.10962 0.0
H1777 H 0.06168 0.47473 0.12635 0.0
H1778 H 0.05484 0.46835 0.26567 0.0
H1779 H 0.05659 0.45139 0.3808 0.0
H1780 H 0.0847 0.41163 0.36829 0.0
H1781 H 0.09086 0.41745 0.227 0.0
C1782 C 0.08128 0.44168 0.14372 0.0
C1783 C 0.07548 0.45485 0.10826 0.0
C1784 C 0.07746 0.43793 0.22334 0.0
C1785 C 0.06617 0.46451 0.15315 0.0
C1786 C 0.0622 0.46081 0.23221 0.0
C1787 C 0.06386 0.44382 0.3469 0.0
C1788 C 0.07001 0.43096 0.38411 0.0
C1789 C 0.06771 0.44751 0.2675 0.0
C1790 C 0.07974 0.4215 0.34023 0.0
C1791 C 0.08332 0.42488 0.25993 0.0
H1792 H 0.31912 0.69399 0.15459 0.0
H1793 H 0.29374 0.65287 0.1206 0.0
H1794 H 0.30396 0.65031 0.9842 0.0
H1795 H 0.31929 0.66019 0.87378 0.0
H1796 H 0.34442 0.70155 0.90627 0.0
H1797 H 0.33582 0.70306 0.04653 0.0
C1798 C 0.31612 0.68427 0.11822 0.0
C1799 C 0.30588 0.67351 0.14816 0.0
C1800 C 0.32217 0.68278 0.04025 0.0
C1801 C 0.30158 0.66133 0.09879 0.0
C1802 C 0.30752 0.65978 0.02112 0.0
C1803 C 0.32317 0.66939 0.91182 0.0
C1804 C 0.33245 0.68078 0.87945 0.0
C1805 C 0.31778 0.67047 0.99122 0.0
C1806 C 0.33727 0.69264 0.9297 0.0
C1807 C 0.33224 0.69359 0.00964 0.0
H1808 H 0.0697 0.57889 0.89394 0.0
H1809 H 0.06947 0.53203 0.82157 0.0
H1810 H 0.0692 0.53956 0.67952 0.0
H1811 H 0.06937 0.55932 0.57686 0.0
H1812 H 0.06753 0.60616 0.64681 0.0
H1813 H 0.0679 0.5988 0.79038 0.0
C1814 C 0.06905 0.57031 0.84732 0.0
C1815 C 0.06915 0.5549 0.86818 0.0
C1816 C 0.06869 0.57473 0.76595 0.0
C1817 C 0.06922 0.54395 0.80682 0.0
C1818 C 0.0691 0.54824 0.7258 0.0
C1819 C 0.06911 0.5679 0.62377 0.0
C1820 C 0.06871 0.58323 0.60243 0.0
C1821 C 0.06894 0.56357 0.70489 0.0
C1822 C 0.068 0.59431 0.66276 0.0
C1823 C 0.0682 0.59009 0.74434 0.0
H1824 H 0.16757 0.29713 0.39774 0.0
H1825 H 0.16751 0.34548 0.36389 0.0
H1826 H 0.17808 0.34896 0.49896 0.0
H1827 H 0.18979 0.33811 0.6204 0.0
H1828 H 0.19023 0.28985 0.65335 0.0
H1829 H 0.17731 0.2864 0.5236 0.0
C1830 C 0.16951 0.30845 0.42058 0.0
C1831 C 0.16691 0.32103 0.3707 0.0
C1832 C 0.17607 0.31034 0.4969 0.0
C1833 C 0.1695 0.33562 0.40117 0.0
C1834 C 0.17569 0.33762 0.47795 0.0
C1835 C 0.18713 0.32686 0.59848 0.0
C1836 C 0.19114 0.31421 0.64447 0.0
C1837 C 0.17954 0.32503 0.52493 0.0
C1838 C 0.18735 0.29968 0.61756 0.0
C1839 C 0.1799 0.29774 0.54401 0.0
H1840 H 0.41152 0.43394 0.09759 0.0
H1841 H 0.45519 0.41332 0.1332 0.0
H1842 H 0.4553 0.42185 0.27386 0.0
H1843 H 0.44408 0.43719 0.38181 0.0
H1844 H 0.40067 0.45819 0.3449 0.0
H1845 H 0.39969 0.44801 0.20767 0.0
C1846 C 0.42093 0.43101 0.13646 0.0
C1847 C 0.43333 0.42299 0.10501 0.0
C1848 C 0.42116 0.43638 0.21611 0.0
C1849 C 0.4455 0.41945 0.15607 0.0
C1850 C 0.44563 0.42444 0.23622 0.0
C1851 C 0.43424 0.43923 0.34456 0.0
C1852 C 0.42234 0.4482 0.37392 0.0
C1853 C 0.43369 0.43323 0.26616 0.0
C1854 C 0.40998 0.45132 0.32352 0.0
C1855 C 0.40935 0.44541 0.24539 0.0
H1856 H 0.26203 0.17177 0.40618 0.0
H1857 H 0.29132 0.16903 0.19769 0.0
H1858 H 0.26953 0.16762 0.1087 0.0
H1859 H 0.24212 0.16857 0.08846 0.0
H1860 H 0.21273 0.17174 0.29633 0.0
H1861 H 0.23448 0.17153 0.3862 0.0
C1862 C 0.26364 0.17071 0.3414 0.0
C1863 C 0.27832 0.17061 0.30901 0.0
C1864 C 0.251 0.17007 0.28991 0.0
C1865 C 0.28017 0.16926 0.22464 0.0
C1866 C 0.2677 0.16844 0.17338 0.0
C1867 C 0.24046 0.16909 0.15339 0.0
C1868 C 0.22579 0.17027 0.18515 0.0
C1869 C 0.25305 0.16907 0.20514 0.0
C1870 C 0.22389 0.17091 0.26975 0.0
C1871 C 0.23634 0.17079 0.32151 0.0
H1872 H 0.07775 0.03145 0.47234 0.0
H1873 H 0.07838 0.00866 0.70323 0.0
H1874 H 0.07944 0.98426 0.63461 0.0
H1875 H 0.07896 0.96937 0.50952 0.0
H1876 H 0.07778 0.99214 0.27865 0.0
H1877 H 0.07826 0.01657 0.34718 0.0
C1878 C 0.07822 0.02117 0.50788 0.0
C1879 C 0.07791 0.02195 0.59303 0.0
C1880 C 0.07868 0.00715 0.46805 0.0
C1881 C 0.07855 0.00845 0.63774 0.0
C1882 C 0.07914 0.99447 0.59851 0.0
C1883 C 0.07891 0.97965 0.47394 0.0
C1884 C 0.07826 0.97886 0.38885 0.0
C1885 C 0.07902 0.99368 0.51373 0.0
C1886 C 0.07823 0.99236 0.34411 0.0
C1887 C 0.07848 0.00636 0.38328 0.0
H1888 H 0.26185 0.82946 0.55802 0.0
H1889 H 0.28957 0.82781 0.77268 0.0
H1890 H 0.26718 0.82922 0.85754 0.0
H1891 H 0.23958 0.82959 0.87179 0.0
H1892 H 0.2118 0.83093 0.65731 0.0
H1893 H 0.23426 0.83106 0.5724 0.0
C1894 C 0.263 0.82954 0.62331 0.0
C1895 C 0.27741 0.82843 0.65849 0.0
C1896 C 0.25002 0.83023 0.67231 0.0
C1897 C 0.27865 0.82855 0.74348 0.0
C1898 C 0.26582 0.82935 0.79239 0.0
C1899 C 0.23843 0.83003 0.80654 0.0
C1900 C 0.22398 0.83015 0.77139 0.0
C1901 C 0.25143 0.82998 0.75756 0.0
C1902 C 0.22275 0.83074 0.68646 0.0
C1903 C 0.23561 0.83081 0.63754 0.0
H1904 H 0.4221 0.96982 0.9854 0.0
H1905 H 0.422 0.99634 0.20496 0.0
H1906 H 0.42151 0.01945 0.12542 0.0
H1907 H 0.42205 0.03221 0.99506 0.0
H1908 H 0.42255 0.0061 0.77431 0.0
H1909 H 0.42152 0.98274 0.85337 0.0
C1910 C 0.42181 0.98065 0.016 0.0
C1911 C 0.42214 0.9813 0.10131 0.0
C1912 C 0.4215 0.99398 0.96983 0.0
C1913 C 0.42173 0.99546 0.13963 0.0
C1914 C 0.42144 0.00871 0.09415 0.0
C1915 C 0.42185 0.02144 0.96378 0.0
C1916 C 0.42246 0.02096 0.87863 0.0
C1917 C 0.42146 0.00811 0.00941 0.0
C1918 C 0.42209 0.00684 0.83965 0.0
C1919 C 0.42158 0.99347 0.88487 0.0
H1920 H 0.77748 0.83208 0.7741 0.0
H1921 H 0.75206 0.82737 0.99574 0.0
H1922 H 0.72849 0.82771 0.919 0.0
H1923 H 0.71528 0.82761 0.78883 0.0
H1924 H 0.7407 0.83211 0.56698 0.0
H1925 H 0.76409 0.8339 0.64459 0.0
C1926 C 0.76679 0.83126 0.8059 0.0
C1927 C 0.76658 0.82957 0.89069 0.0
C1928 C 0.75329 0.83136 0.76139 0.0
C1929 C 0.75259 0.82867 0.93067 0.0
C1930 C 0.7391 0.8288 0.88676 0.0
C1931 C 0.72592 0.82905 0.75716 0.0
C1932 C 0.72621 0.82957 0.67188 0.0
C1933 C 0.73934 0.82986 0.80203 0.0
C1934 C 0.74012 0.83156 0.63235 0.0
C1935 C 0.75352 0.83252 0.67671 0.0
H1936 H 0.92013 0.00784 0.66572 0.0
H1937 H 0.92151 0.03824 0.46162 0.0
H1938 H 0.92068 0.01698 0.36876 0.0
H1939 H 0.92101 0.98959 0.34435 0.0
H1940 H 0.91984 0.95921 0.54842 0.0
H1941 H 0.91905 0.9805 0.64118 0.0
C1942 C 0.92013 0.00981 0.60099 0.0
C1943 C 0.92101 0.02464 0.57122 0.0
C1944 C 0.91975 0.99749 0.54726 0.0
C1945 C 0.92096 0.02696 0.48681 0.0
C1946 C 0.92048 0.01479 0.43324 0.0
C1947 C 0.92043 0.98763 0.40902 0.0
C1948 C 0.92064 0.9728 0.43896 0.0
C1949 C 0.92009 0.99998 0.46267 0.0
C1950 C 0.91987 0.9705 0.52326 0.0
C1951 C 0.9194 0.98268 0.57671 0.0
H1952 H 0.73563 0.17398 0.37982 0.0
H1953 H 0.71074 0.17474 0.15528 0.0
H1954 H 0.73427 0.17381 0.07913 0.0
H1955 H 0.762 0.17403 0.07559 0.0
H1956 H 0.78687 0.17344 0.3002 0.0
H1957 H 0.76333 0.17299 0.37624 0.0
C1958 C 0.73533 0.17384 0.31426 0.0
C1959 C 0.72139 0.17451 0.27368 0.0
C1960 C 0.74894 0.17339 0.27045 0.0
C1961 C 0.72128 0.17427 0.18848 0.0
C1962 C 0.73475 0.17377 0.14463 0.0
C1963 C 0.76228 0.17371 0.14113 0.0
C1964 C 0.77624 0.17387 0.18177 0.0
C1965 C 0.74866 0.17352 0.18491 0.0
C1966 C 0.77633 0.17339 0.26694 0.0
C1967 C 0.76285 0.17314 0.31074 0.0
H1968 H 0.58371 0.03115 0.00963 0.0
H1969 H 0.58324 0.00771 0.78042 0.0
H1970 H 0.58351 0.98348 0.85081 0.0
H1971 H 0.58225 0.969 0.97696 0.0
H1972 H 0.58214 0.99247 0.20611 0.0
H1973 H 0.5838 0.01665 0.13579 0.0
C1974 C 0.5838 0.02076 0.97482 0.0
C1975 C 0.58335 0.0213 0.88966 0.0
C1976 C 0.58377 0.00686 0.01565 0.0
C1977 C 0.58353 0.00768 0.8459 0.0
C1978 C 0.58365 0.9938 0.88614 0.0
C1979 C 0.5827 0.97938 0.01176 0.0
C1980 C 0.58196 0.97887 0.09688 0.0
C1981 C 0.58351 0.99326 0.97096 0.0
C1982 C 0.58263 0.99248 0.14066 0.0
C1983 C 0.58356 0.00633 0.10046 0.0
H1984 H 0.78327 0.6689 0.73111 0.0
H1985 H 0.75707 0.67186 0.95107 0.0
H1986 H 0.73375 0.6712 0.872 0.0
H1987 H 0.72093 0.67129 0.74051 0.0
H1988 H 0.74727 0.66853 0.52088 0.0
H1989 H 0.77047 0.66763 0.60037 0.0
C1990 C 0.77248 0.66933 0.7621 0.0
C1991 C 0.77196 0.67054 0.84706 0.0
C1992 C 0.75915 0.66909 0.71638 0.0
C1993 C 0.75783 0.67096 0.88586 0.0
C1994 C 0.74449 0.67065 0.84067 0.0
C1995 C 0.73173 0.6704 0.70983 0.0
C1996 C 0.73233 0.67008 0.62462 0.0
C1997 C 0.74503 0.66995 0.75587 0.0
C1998 C 0.74644 0.66884 0.58622 0.0
C1999 C 0.75973 0.66835 0.63165 0.0
H2000 H 0.57975 0.46974 0.97643 0.0
H2001 H 0.57993 0.49837 0.76486 0.0
H2002 H 0.58185 0.52069 0.85142 0.0
H2003 H 0.58149 0.53208 0.98631 0.0
H2004 H 0.5812 0.5035 0.198 0.0
H2005 H 0.58141 0.48109 0.11137 0.0
C2006 C 0.58026 0.48085 0.94892 0.0
C2007 C 0.57955 0.48235 0.86405 0.0
C2008 C 0.5812 0.49363 -0.00109 0.0
C2009 C 0.58039 0.49685 0.82982 0.0
C2010 C 0.5814 0.50963 0.87928 0.0
C2011 C 0.58155 0.52096 0.01382 0.0
C2012 C 0.58119 0.5195 0.09875 0.0
C2013 C 0.58151 0.50815 0.96382 0.0
C2014 C 0.58144 0.50498 0.13299 0.0
C2015 C 0.58147 0.49216 0.08348 0.0
H2016 H 0.73976 0.33225 0.39098 0.0
H2017 H 0.71257 0.33179 0.17421 0.0
H2018 H 0.73526 0.33247 0.09111 0.0
H2019 H 0.76291 0.33175 0.07919 0.0
H2020 H 0.79006 0.33174 0.29609 0.0
H2021 H 0.76738 0.3328 0.37905 0.0
C2022 C 0.73878 0.33242 0.32561 0.0
C2023 C 0.72445 0.33186 0.28927 0.0
C2024 C 0.75191 0.33268 0.27774 0.0
C2025 C 0.72344 0.33211 0.20422 0.0
C2026 C 0.73643 0.3325 0.15636 0.0
C2027 C 0.76387 0.33214 0.14454 0.0
C2028 C 0.7782 0.33157 0.18102 0.0
C2029 C 0.75074 0.33257 0.19238 0.0
C2030 C 0.7792 0.33206 0.26603 0.0
C2031 C 0.76621 0.33266 0.3138 0.0
H2032 H 0.92827 0.47182 0.53473 0.0
H2033 H 0.92089 0.49934 0.74699 0.0
H2034 H 0.91858 0.52178 0.66114 0.0
H2035 H 0.91958 0.53357 0.52616 0.0
H2036 H 0.92719 0.50567 0.31552 0.0
H2037 H 0.92901 0.48342 0.40159 0.0
C2038 C 0.92609 0.48269 0.56274 0.0
C2039 C 0.92474 0.48384 0.64748 0.0
C2040 C 0.92492 0.49547 0.51338 0.0
C2041 C 0.92197 0.49809 0.68208 0.0
C2042 C 0.92068 0.51092 0.63302 0.0
C2043 C 0.92142 0.52258 0.49887 0.0
C2044 C 0.92319 0.52129 0.41428 0.0
C2045 C 0.92223 0.50974 0.54862 0.0
C2046 C 0.92561 0.50698 0.38012 0.0
C2047 C 0.9266 0.49422 0.42929 0.0
H2048 H 0.28054 0.33155 0.22215 0.0
H2049 H 0.25906 0.32879 0.45634 0.0
H2050 H 0.23426 0.32911 0.39185 0.0
H2051 H 0.21874 0.32861 0.26892 0.0
H2052 H 0.24031 0.33081 0.03481 0.0
H2053 H 0.26498 0.33246 0.09977 0.0
C2054 C 0.27045 0.33114 0.25938 0.0
C2055 C 0.27172 0.33004 0.34414 0.0
C2056 C 0.25622 0.33117 0.22191 0.0
C2057 C 0.25847 0.32958 0.39106 0.0
C2058 C 0.24426 0.32973 0.35419 0.0
C2059 C 0.22882 0.32956 0.23193 0.0
C2060 C 0.22763 0.32947 0.14692 0.0
C2061 C 0.24302 0.33028 0.26963 0.0
C2062 C 0.24085 0.33075 0.10026 0.0
C2063 C 0.25499 0.33166 0.13737 0.0
H2064 H 0.42158 0.47063 0.01218 0.0
H2065 H 0.42102 0.49566 0.78799 0.0
H2066 H 0.42082 0.51937 0.86349 0.0
H2067 H 0.42206 0.53294 0.9924 0.0
H2068 H 0.42295 0.50794 0.21665 0.0
H2069 H 0.42168 0.48422 0.14136 0.0
C2070 C 0.42134 0.48125 0.97959 0.0
C2071 C 0.42142 0.48132 0.89432 0.0
C2072 C 0.42133 0.49484 0.02333 0.0
C2073 C 0.421 0.49523 0.85345 0.0
C2074 C 0.42092 0.50881 0.89661 0.0
C2075 C 0.4219 0.52233 0.0251 0.0
C2076 C 0.4227 0.52226 0.11025 0.0
C2077 C 0.42127 0.50874 0.98148 0.0
C2078 C 0.42239 0.50836 0.15125 0.0
C2079 C 0.42169 0.49478 0.10821 0.0
H2080 H 0.21982 0.67587 0.75385 0.0
H2081 H 0.24309 0.67076 0.98146 0.0
H2082 H 0.26721 0.66912 0.90997 0.0
H2083 H 0.28173 0.67019 0.7833 0.0
H2084 H 0.25824 0.67563 0.55621 0.0
H2085 H 0.23416 0.67611 0.62737 0.0
C2086 C 0.2301 0.6742 0.788 0.0
C2087 C 0.22957 0.6734 0.87304 0.0
C2088 C 0.24392 0.67339 0.74662 0.0
C2089 C 0.24312 0.67142 0.91605 0.0
C2090 C 0.25693 0.67049 0.87519 0.0
C2091 C 0.27134 0.67137 0.74917 0.0
C2092 C 0.27185 0.67292 0.66434 0.0
C2093 C 0.25747 0.67163 0.79054 0.0
C2094 C 0.25824 0.67439 0.62137 0.0
C2095 C 0.24442 0.67466 0.66209 0.0
H2096 H 0.0825 0.53306 0.49926 0.0
H2097 H 0.07546 0.50961 0.27326 0.0
H2098 H 0.0766 0.48537 0.34389 0.0
H2099 H 0.07818 0.47097 0.47094 0.0
H2100 H 0.08497 0.49476 0.69633 0.0
H2101 H 0.08545 0.51873 0.62421 0.0
C2102 C 0.08131 0.52267 0.46505 0.0
C2103 C 0.07879 0.52321 0.38099 0.0
C2104 C 0.08185 0.50882 0.50599 0.0
C2105 C 0.07738 0.50957 0.33794 0.0
C2106 C 0.07798 0.4957 0.37835 0.0
C2107 C 0.07985 0.48138 0.50436 0.0
C2108 C 0.08144 0.48102 0.5892 0.0
C2109 C 0.07998 0.4952 0.46256 0.0
C2110 C 0.08363 0.49466 0.63122 0.0
C2111 C 0.08388 0.5084 0.59003 0.0
H2112 H 0.13473 0.14624 0.92659 0.0
H2113 H 0.16902 0.11315 0.97793 0.0
H2114 H 0.15388 0.09351 0.91201 0.0
H2115 H 0.13121 0.08601 0.83561 0.0
H2116 H 0.09656 0.11892 0.78714 0.0
H2117 H 0.11163 0.13853 0.85364 0.0
C2118 C 0.13871 0.13466 0.92414 0.0
C2119 C 0.15284 0.13101 0.95707 0.0
C2120 C 0.13001 0.12352 0.88538 0.0
C2121 C 0.15809 0.11609 0.95303 0.0
C2122 C 0.1495 0.10492 0.91504 0.0
C2123 C 0.12693 0.09745 0.84054 0.0
C2124 C 0.1128 0.10105 0.80727 0.0
C2125 C 0.13551 0.10854 0.8803 0.0
C2126 C 0.10749 0.11596 0.81202 0.0
C2127 C 0.11603 0.12712 0.85055 0.0
H2128 H 0.13347 0.85547 0.0333 0.0
H2129 H 0.16736 0.88849 0.97361 0.0
H2130 H 0.15316 0.90802 0.0464 0.0
H2131 H 0.13157 0.91535 0.13189 0.0
H2132 H 0.09727 0.88252 0.18871 0.0
H2133 H 0.11135 0.86307 0.11501 0.0
C2134 C 0.13752 0.86703 0.03524 0.0
C2135 C 0.15125 0.87071 -0.00231 0.0
C2136 C 0.12941 0.87808 0.07821 0.0
C2137 C 0.15667 0.88557 0.00148 0.0
C2138 C 0.14864 0.89665 0.04359 0.0
C2139 C 0.1271 0.90399 0.12708 0.0
C2140 C 0.11337 0.90036 0.16492 0.0
C2141 C 0.13507 0.893 0.08294 0.0
C2142 C 0.1079 0.8855 0.16046 0.0
C2143 C 0.11586 0.87444 0.11773 0.0
H2144 H 0.34074 0.88107 0.43401 0.0
H2145 H 0.37384 0.84556 0.44944 0.0
H2146 H 0.39303 0.86226 0.39076 0.0
H2147 H 0.4002 0.88698 0.33263 0.0
H2148 H 0.36683 0.92218 0.3143 0.0
H2149 H 0.34776 0.90555 0.37434 0.0
C2150 C 0.35215 0.87702 0.42395 0.0
C2151 C 0.35592 0.86215 0.44519 0.0
C2152 C 0.36297 0.88657 0.38881 0.0
C2153 C 0.37076 0.85703 0.43366 0.0
C2154 C 0.38167 0.86652 0.39962 0.0
C2155 C 0.38869 0.89087 0.34125 0.0
C2156 C 0.38481 0.90568 0.31935 0.0
C2157 C 0.37787 0.88128 0.37629 0.0
C2158 C 0.36997 0.91078 0.33105 0.0
C2159 C 0.35912 0.90131 0.36551 0.0
H2160 H 0.37717 0.08798 0.60762 0.0
H2161 H 0.40674 0.12096 0.71558 0.0
H2162 H 0.39131 0.14142 0.66002 0.0
H2163 H 0.36932 0.14989 0.57972 0.0
H2164 H 0.34022 0.11686 0.46927 0.0
H2165 H 0.35572 0.09637 0.5247 0.0
C2166 C 0.38023 0.09966 0.61867 0.0
C2167 C 0.39298 0.103 0.66597 0.0
C2168 C 0.37151 0.1113 0.58503 0.0
C2169 C 0.39681 0.11814 0.68048 0.0
C2170 C 0.38809 0.12983 0.64805 0.0
C2171 C 0.36658 0.13818 0.56717 0.0
C2172 C 0.35389 0.13473 0.51997 0.0
C2173 C 0.37545 0.12654 0.59996 0.0
C2174 C 0.35013 0.11963 0.5047 0.0
C2175 C 0.35891 0.10797 0.5368 0.0
H2176 H 0.83432 0.87918 0.1311 0.0
H2177 H 0.86518 0.84301 0.07588 0.0
H2178 H 0.88619 0.85769 0.13163 0.0
H2179 H 0.89576 0.88098 0.19598 0.0
H2180 H 0.86477 0.91686 0.25392 0.0
H2181 H 0.8437 0.90205 0.19954 0.0
C2182 C 0.84564 0.87451 0.13212 0.0
C2183 C 0.84826 0.86007 0.10001 0.0
C2184 C 0.85756 0.88291 0.16547 0.0
C2185 C 0.86298 0.85417 0.10001 0.0
C2186 C 0.87494 0.8625 0.13231 0.0
C2187 C 0.88434 0.8854 0.19737 0.0
C2188 C 0.88169 0.89989 0.22849 0.0
C2189 C 0.87237 0.87687 0.16543 0.0
C2190 C 0.86695 0.90568 0.22988 0.0
C2191 C 0.85496 0.89726 0.19862 0.0
H2192 H 0.83845 0.11945 0.93046 0.0
H2193 H 0.87191 0.15372 0.97584 0.0
H2194 H 0.89101 0.13861 0.90536 0.0
H2195 H 0.89808 0.11559 0.82961 0.0
H2196 H 0.8643 0.08189 0.77971 0.0
H2197 H 0.8452 0.09705 0.84999 0.0
C2198 C 0.84988 0.12367 0.92383 0.0
C2199 C 0.85379 0.13769 0.95743 0.0
C2200 C 0.86063 0.11513 0.8813 0.0
C2201 C 0.86872 0.14288 0.95077 0.0
C2202 C 0.87958 0.13432 0.90987 0.0
C2203 C 0.88646 0.11177 0.83314 0.0
C2204 C 0.88246 0.09779 0.79949 0.0
C2205 C 0.87564 0.12048 0.87434 0.0
C2206 C 0.86749 0.09272 0.80502 0.0
C2207 C 0.85665 0.10131 0.8456 0.0
H2208 H 0.66107 0.12673 0.56983 0.0
H2209 H 0.62484 0.14884 0.44223 0.0
H2210 H 0.60665 0.13123 0.50096 0.0
H2211 H 0.60091 0.10998 0.59252 0.0
H2212 H 0.63663 0.08985 0.7321 0.0
H2213 H 0.65517 0.10657 0.66735 0.0
C2214 C 0.64917 0.1278 0.55565 0.0
C2215 C 0.64433 0.13905 0.50156 0.0
C2216 C 0.63869 0.11812 0.5928 0.0
C2217 C 0.62891 0.14011 0.48249 0.0
C2218 C 0.61847 0.13015 0.51681 0.0
C2219 C 0.61276 0.10939 0.6088 0.0
C2220 C 0.61754 0.09884 0.66661 0.0
C2221 C 0.62321 0.11921 0.57253 0.0
C2222 C 0.63283 0.09803 0.68785 0.0
C2223 C 0.64337 0.1075 0.65064 0.0
H2224 H 0.60083 0.88779 0.37431 0.0
H2225 H 0.63483 0.91437 0.25456 0.0
H2226 H 0.65472 0.89809 0.31007 0.0
H2227 H 0.66231 0.87638 0.39385 0.0
H2228 H 0.62808 0.84861 0.50467 0.0
H2229 H 0.60838 0.86539 0.45339 0.0
C2230 C 0.61262 0.8899 0.36041 0.0
C2231 C 0.61652 0.90212 0.31078 0.0
C2232 C 0.62389 0.88039 0.39162 0.0
C2233 C 0.63172 0.90491 0.29261 0.0
C2234 C 0.64303 0.89566 0.32445 0.0
C2235 C 0.65052 0.87395 0.40607 0.0
C2236 C 0.64665 0.86133 0.45326 0.0
C2237 C 0.63924 0.88337 0.3741 0.0
C2238 C 0.63136 0.85841 0.46966 0.0
C2239 C 0.62008 0.86792 0.43973 0.0
H2240 H 0.63423 0.58461 0.32571 0.0
H2241 H 0.59704 0.61581 0.3098 0.0
H2242 H 0.6131 0.63624 0.36078 0.0
H2243 H 0.63788 0.64522 0.40922 0.0
H2244 H 0.67504 0.61402 0.4255 0.0
H2245 H 0.65887 0.59348 0.37653 0.0
C2246 C 0.62967 0.59587 0.33423 0.0
C2247 C 0.61453 0.59877 0.31467 0.0
C2248 C 0.63895 0.60749 0.36388 0.0
C2249 C 0.60872 0.61341 0.32435 0.0
C2250 C 0.61787 0.62504 0.35375 0.0
C2251 C 0.64232 0.63387 0.40247 0.0
C2252 C 0.65754 0.63103 0.42043 0.0
C2253 C 0.63299 0.62221 0.37375 0.0
C2254 C 0.66333 0.61638 0.41141 0.0
C2255 C 0.65411 0.60468 0.38344 0.0
H2256 H 0.6312 0.35715 0.52101 0.0
H2257 H 0.66742 0.38875 0.48188 0.0
H2258 H 0.65226 0.40909 0.5414 0.0
H2259 H 0.62904 0.41756 0.60967 0.0
H2260 H 0.59255 0.38614 0.64656 0.0
H2261 H 0.60753 0.3659 0.58501 0.0
C2262 C 0.6356 0.36857 0.52465 0.0
C2263 C 0.65029 0.3716 0.49719 0.0
C2264 C 0.62688 0.3801 0.55976 0.0
C2265 C 0.65608 0.3863 0.50265 0.0
C2266 C 0.64746 0.39786 0.53698 0.0
C2267 C 0.62434 0.40631 0.60323 0.0
C2268 C 0.60972 0.40331 0.63185 0.0
C2269 C 0.63292 0.39485 0.56656 0.0
C2270 C 0.60384 0.38864 0.62518 0.0
C2271 C 0.61234 0.37712 0.58952 0.0
H2272 H 0.90324 0.38814 0.86762 0.0
H2273 H 0.87176 0.42519 0.86494 0.0
H2274 H 0.85188 0.40879 0.91894 0.0
H2275 H 0.84364 0.38395 0.96922 0.0
H2276 H 0.87509 0.34687 0.97311 0.0
H2277 H 0.89495 0.36319 0.91791 0.0
C2278 C 0.89196 0.39249 0.87822 0.0
C2279 C 0.8888 0.40771 0.86204 0.0
C2280 C 0.88071 0.38305 0.91039 0.0
C2281 C 0.87429 0.41342 0.87677 0.0
C2282 C 0.86299 0.40409 0.90787 0.0
C2283 C 0.85486 0.3795 0.95762 0.0
C2284 C 0.85799 0.36431 0.97457 0.0
C2285 C 0.8661 0.38891 0.92537 0.0
C2286 C 0.87254 0.3586 0.96062 0.0
C2287 C 0.88383 0.36789 0.92869 0.0
H2288 H 0.89566 0.61289 0.17607 0.0
H2289 H 0.86309 0.57732 0.20926 0.0
H2290 H 0.84336 0.59306 0.14844 0.0
H2291 H 0.83564 0.61677 0.08234 0.0
H2292 H 0.8681 0.65252 0.0511 0.0
H2293 H 0.88777 0.63685 0.1127 0.0
C2294 C 0.88418 0.60873 0.17063 0.0
C2295 C 0.8807 0.59408 0.19686 0.0
C2296 C 0.873 0.61779 0.13494 0.0
C2297 C 0.86591 0.58862 0.18919 0.0
C2298 C 0.85469 0.59758 0.15427 0.0
C2299 C 0.847 0.62112 0.08981 0.0
C2300 C 0.85048 0.63574 0.06292 0.0
C2301 C 0.85814 0.61213 0.12631 0.0
C2302 C 0.86526 0.64122 0.07115 0.0
C2303 C 0.87645 0.63232 0.10679 0.0
H2304 H 0.33597 0.38065 0.59751 0.0
H2305 H 0.37045 0.35034 0.51111 0.0
H2306 H 0.39008 0.36664 0.56837 0.0
H2307 H 0.39739 0.38959 0.64354 0.0
H2308 H 0.36299 0.41988 0.73033 0.0
H2309 H 0.34326 0.40346 0.67401 0.0
C2310 C 0.3478 0.37765 0.59169 0.0
C2311 C 0.35184 0.36438 0.55044 0.0
C2312 C 0.35896 0.38699 0.62549 0.0
C2313 C 0.36715 0.36059 0.54224 0.0
C2314 C 0.37834 0.36985 0.57533 0.0
C2315 C 0.38554 0.39243 0.65052 0.0
C2316 C 0.38148 0.40571 0.69133 0.0
C2317 C 0.37437 0.38304 0.61728 0.0
C2318 C 0.36621 0.40956 0.69961 0.0
C2319 C 0.355 0.40024 0.66716 0.0
H2320 H 0.36899 0.58571 0.34058 0.0
H2321 H 0.4047 0.61839 0.31523 0.0
H2322 H 0.38879 0.63781 0.3777 0.0
H2323 H 0.36469 0.64539 0.44063 0.0
H2324 H 0.32892 0.61279 0.46553 0.0
H2325 H 0.3449 0.59327 0.40389 0.0
C2326 C 0.37325 0.59708 0.34924 0.0
C2327 C 0.38794 0.60069 0.32399 0.0
C2328 C 0.36408 0.60809 0.38579 0.0
C2329 C 0.39335 0.61547 0.33406 0.0
C2330 C 0.38431 0.62651 0.37014 0.0
C2331 C 0.36053 0.63395 0.43308 0.0
C2332 C 0.34581 0.63036 0.45774 0.0
C2333 C 0.36969 0.62293 0.39665 0.0
C2334 C 0.34032 0.61565 0.44712 0.0
C2335 C 0.3494 0.60456 0.41169 0.0
H2336 H 0.13008 0.59711 0.24449 0.0
H2337 H 0.09404 0.6127 0.09117 0.0
H2338 H 0.11032 0.63275 0.03765 0.0
H2339 H 0.13475 0.64599 0.03634 0.0
H2340 H 0.17152 0.62891 0.18056 0.0
H2341 H 0.15502 0.60948 0.23706 0.0
C2342 C 0.12588 0.60495 0.19938 0.0
C2343 C 0.11097 0.60363 0.17182 0.0
C2344 C 0.1354 0.61619 0.16783 0.0
C2345 C 0.10554 0.61364 0.11295 0.0
C2346 C 0.11482 0.62506 0.08254 0.0
C2347 C 0.1392 0.63788 0.07919 0.0
C2348 C 0.1543 0.63896 0.10463 0.0
C2349 C 0.12977 0.62645 0.10955 0.0
C2350 C 0.15985 0.6285 0.1612 0.0
C2351 C 0.15046 0.61732 0.1931 0.0
H2352 H 0.16477 0.37883 0.89987 0.0
H2353 H 0.12954 0.34695 0.95539 0.0
H2354 H 0.11068 0.36377 0.89501 0.0
H2355 H 0.10427 0.3877 0.82663 0.0
H2356 H 0.13938 0.41983 0.77379 0.0
H2357 H 0.15837 0.40276 0.83151 0.0
C2358 C 0.15295 0.37562 0.89832 0.0
C2359 C 0.14846 0.36174 0.9315 0.0
C2360 C 0.14224 0.38533 0.86345 0.0
C2361 C 0.13316 0.35765 0.93027 0.0
C2362 C 0.12242 0.36722 0.89552 0.0
C2363 C 0.11612 0.39081 0.82729 0.0
C2364 C 0.12059 0.40481 0.7957 0.0
C2365 C 0.12684 0.38107 0.86177 0.0
C2366 C 0.13585 0.40898 0.79744 0.0
C2367 C 0.14663 0.39928 0.83065 0.0
loop_
_geom_bond_atom_site_label_1
_geom_bond_atom_site_label_2
_geom_bond_distance
_geom_bond_site_symmetry_2
_ccdc_geom_bond_type
Co0 O3 1.970 . S
Co0 N17 1.989 . S
Co0 O25 1.967 . S
Co0 O32 1.920 . S
Co1 O4 1.966 . S
Co1 N10 2.022 . S
Co1 N18 1.993 . S
Co1 O26 1.941 . S
C2 O3 1.258 . S
C2 O4 1.263 1_554 S
O3 Co0 1.970 . S
O3 C2 1.258 . S
O4 Co1 1.966 . S
O4 C2 1.263 1_556 S
C5 O6 1.235 . S
C5 O32 1.289 . S
O6 C5 1.235 . S
C7 C9 1.400 . S
C7 N10 1.351 . S
C7 C12 1.501 . S
C8 C9 1.387 . S
C8 N11 1.341 . S
C9 C7 1.400 . S
C9 C8 1.387 . S
N10 Co1 2.022 . S
N10 C7 1.351 . S
N10 N11 1.365 . S
N11 C8 1.341 . S
N11 N10 1.365 . S
N11 H31 0.862 . S
C12 C7 1.501 . S
C12 H13 0.961 . S
C12 H14 0.961 . S
C12 H15 0.960 . S
H13 C12 0.961 . S
H14 C12 0.961 . S
H15 C12 0.960 . S
C16 N17 1.342 . S
C16 C20 1.401 1_554 S
C16 C21 1.499 . S
N17 Co0 1.989 . S
N17 C16 1.342 . S
N17 N18 1.388 1_554 S
N18 Co1 1.993 . S
N18 N17 1.388 1_556 S
N18 C19 1.346 . S
C19 N18 1.346 . S
C19 C20 1.396 . S
C19 C29 1.510 . S
C20 C16 1.401 1_556 S
C20 C19 1.396 . S
C21 C16 1.499 . S
C21 H22 0.959 . S
C21 H23 0.960 . S
C21 H24 0.961 . S
H22 C21 0.959 . S
H23 C21 0.960 . S
H24 C21 0.961 . S
O25 Co0 1.967 . S
O25 C33 1.258 . S
O26 Co1 1.941 . S
O26 C33 1.266 1_556 S
H27 C29 0.959 . S
H28 C29 0.961 . S
C29 C19 1.510 . S
C29 H27 0.959 . S
C29 H28 0.961 . S
C29 H30 0.960 . S
H30 C29 0.960 . S
H31 N11 0.862 . S
O32 Co0 1.920 . S
O32 C5 1.289 . S
C33 O25 1.258 . S
C33 O26 1.266 1_554 S
Co34 O37 1.970 . S
Co34 N51 1.989 . S
Co34 O59 1.967 . S
Co34 O66 1.920 . S
Co35 O38 1.966 . S
Co35 N44 2.022 . S
Co35 N52 1.993 . S
Co35 O60 1.941 . S
C36 O37 1.258 . S
C36 O38 1.263 . S
O37 Co34 1.970 . S
O37 C36 1.258 . S
O38 Co35 1.966 . S
O38 C36 1.263 . S
C39 O40 1.235 . S
C39 O66 1.289 . S
O40 C39 1.235 . S
C41 C43 1.400 1_554 S
C41 N44 1.351 . S
C41 C46 1.501 . S
C42 C43 1.387 . S
C42 N45 1.341 1_556 S
C43 C41 1.400 1_556 S
C43 C42 1.387 . S
N44 Co35 2.022 . S
N44 C41 1.351 . S
N44 N45 1.365 . S
N45 C42 1.341 1_554 S
N45 N44 1.365 . S
N45 H65 0.862 . S
C46 C41 1.501 . S
C46 H47 0.961 . S
C46 H48 0.961 . S
C46 H49 0.960 . S
H47 C46 0.961 . S
H48 C46 0.961 . S
H49 C46 0.960 . S
C50 N51 1.342 . S
C50 C54 1.401 . S
C50 C55 1.499 . S
N51 Co34 1.989 . S
N51 C50 1.342 . S
N51 N52 1.388 . S
N52 Co35 1.993 . S
N52 N51 1.388 . S
N52 C53 1.346 . S
C53 N52 1.346 . S
C53 C54 1.396 . S
C53 C63 1.510 . S
C54 C50 1.401 . S
C54 C53 1.396 . S
C55 C50 1.499 . S
C55 H56 0.959 . S
C55 H57 0.960 . S
C55 H58 0.961 . S
H56 C55 0.959 . S
H57 C55 0.960 . S
H58 C55 0.961 . S
O59 Co34 1.967 . S
O59 C67 1.258 . S
O60 Co35 1.941 . S
O60 C67 1.266 . S
H61 C63 0.959 . S
H62 C63 0.961 . S
C63 C53 1.510 . S
C63 H61 0.959 . S
C63 H62 0.961 . S
C63 H64 0.960 . S
H64 C63 0.960 . S
H65 N45 0.862 . S
O66 Co34 1.920 . S
O66 C39 1.289 . S
C67 O59 1.258 . S
C67 O60 1.266 . S
Co68 O71 1.970 . S
Co68 N85 1.989 . S
Co68 O93 1.967 . S
Co68 O100 1.920 . S
Co69 O72 1.966 . S
Co69 N78 2.022 . S
Co69 N86 1.993 . S
Co69 O94 1.941 . S
C70 O71 1.258 . S
C70 O72 1.263 . S
O71 Co68 1.970 . S
O71 C70 1.258 . S
O72 Co69 1.966 . S
O72 C70 1.263 . S
C73 O74 1.235 . S
C73 O100 1.289 . S
O74 C73 1.235 . S
C75 C77 1.400 . S
C75 N78 1.351 . S
C75 C80 1.501 . S
C76 C77 1.387 . S
C76 N79 1.341 . S
C77 C75 1.400 . S
C77 C76 1.387 . S
N78 Co69 2.022 . S
N78 C75 1.351 . S
N78 N79 1.365 . S
N79 C76 1.341 . S
N79 N78 1.365 . S
N79 H99 0.862 . S
C80 C75 1.501 . S
C80 H81 0.961 . S
C80 H82 0.961 . S
C80 H83 0.960 . S
H81 C80 0.961 . S
H82 C80 0.961 . S
H83 C80 0.960 . S
C84 N85 1.342 . S
C84 C88 1.401 . S
C84 C89 1.499 . S
N85 Co68 1.989 . S
N85 C84 1.342 . S
N85 N86 1.388 . S
N86 Co69 1.993 . S
N86 N85 1.388 . S
N86 C87 1.346 . S
C87 N86 1.346 . S
C87 C88 1.396 . S
C87 C97 1.510 . S
C88 C84 1.401 . S
C88 C87 1.396 . S
C89 C84 1.499 . S
C89 H90 0.959 . S
C89 H91 0.960 . S
C89 H92 0.961 . S
H90 C89 0.959 . S
H91 C89 0.960 . S
H92 C89 0.961 . S
O93 Co68 1.967 . S
O93 C101 1.258 . S
O94 Co69 1.941 . S
O94 C101 1.266 . S
H95 C97 0.959 . S
H96 C97 0.961 . S
C97 C87 1.510 . S
C97 H95 0.959 . S
C97 H96 0.961 . S
C97 H98 0.960 . S
H98 C97 0.960 . S
H99 N79 0.862 . S
O100 Co68 1.920 . S
O100 C73 1.289 . S
C101 O93 1.258 . S
C101 O94 1.266 . S
Co102 O105 1.970 . S
Co102 N119 1.989 . S
Co102 O127 1.967 . S
Co102 O134 1.920 . S
Co103 O106 1.966 . S
Co103 N112 2.022 . S
Co103 N120 1.993 . S
Co103 O128 1.941 . S
C104 O105 1.258 . S
C104 O106 1.263 . S
O105 Co102 1.970 . S
O105 C104 1.258 . S
O106 Co103 1.966 . S
O106 C104 1.263 . S
C107 O108 1.235 1_554 S
C107 O134 1.289 1_554 S
O108 C107 1.235 1_556 S
C109 C111 1.400 . S
C109 N112 1.351 . S
C109 C114 1.501 . S
C110 C111 1.387 . S
C110 N113 1.341 . S
C111 C109 1.400 . S
C111 C110 1.387 . S
N112 Co103 2.022 . S
N112 C109 1.351 . S
N112 N113 1.365 . S
N113 C110 1.341 . S
N113 N112 1.365 . S
N113 H133 0.862 . S
C114 C109 1.501 . S
C114 H115 0.961 . S
C114 H116 0.961 . S
C114 H117 0.960 . S
H115 C114 0.961 . S
H116 C114 0.961 . S
H117 C114 0.960 . S
C118 N119 1.342 . S
C118 C122 1.401 . S
C118 C123 1.499 . S
N119 Co102 1.989 . S
N119 C118 1.342 . S
N119 N120 1.388 . S
N120 Co103 1.993 . S
N120 N119 1.388 . S
N120 C121 1.346 . S
C121 N120 1.346 . S
C121 C122 1.396 . S
C121 C131 1.510 . S
C122 C118 1.401 . S
C122 C121 1.396 . S
C123 C118 1.499 . S
C123 H124 0.959 . S
C123 H125 0.960 . S
C123 H126 0.961 . S
H124 C123 0.959 . S
H125 C123 0.960 . S
H126 C123 0.961 . S
O127 Co102 1.967 . S
O127 C135 1.258 . S
O128 Co103 1.941 . S
O128 C135 1.266 . S
H129 C131 0.959 . S
H130 C131 0.961 . S
C131 C121 1.510 . S
C131 H129 0.959 . S
C131 H130 0.961 . S
C131 H132 0.960 . S
H132 C131 0.960 . S
H133 N113 0.862 . S
O134 Co102 1.920 . S
O134 C107 1.289 1_556 S
C135 O127 1.258 . S
C135 O128 1.266 . S
Co136 O139 1.970 . S
Co136 N153 1.989 . S
Co136 O161 1.967 . S
Co136 O168 1.920 . S
Co137 O140 1.966 . S
Co137 N146 2.022 . S
Co137 N154 1.993 . S
Co137 O162 1.941 . S
C138 O139 1.258 . S
C138 O140 1.263 1_556 S
O139 Co136 1.970 . S
O139 C138 1.258 . S
O140 Co137 1.966 . S
O140 C138 1.263 1_554 S
C141 O142 1.235 . S
C141 O168 1.289 . S
O142 C141 1.235 . S
C143 C145 1.400 . S
C143 N146 1.351 . S
C143 C148 1.501 . S
C144 C145 1.387 . S
C144 N147 1.341 . S
C145 C143 1.400 . S
C145 C144 1.387 . S
N146 Co137 2.022 . S
N146 C143 1.351 . S
N146 N147 1.365 . S
N147 C144 1.341 . S
N147 N146 1.365 . S
N147 H167 0.862 . S
C148 C143 1.501 . S
C148 H149 0.961 . S
C148 H150 0.961 . S
C148 H151 0.960 . S
H149 C148 0.961 . S
H150 C148 0.961 . S
H151 C148 0.960 . S
C152 N153 1.342 . S
C152 C156 1.401 1_556 S
C152 C157 1.499 . S
N153 Co136 1.989 . S
N153 C152 1.342 . S
N153 N154 1.388 1_556 S
N154 Co137 1.993 . S
N154 N153 1.388 1_554 S
N154 C155 1.346 . S
C155 N154 1.346 . S
C155 C156 1.396 . S
C155 C165 1.510 . S
C156 C152 1.401 1_554 S
C156 C155 1.396 . S
C157 C152 1.499 . S
C157 H158 0.959 . S
C157 H159 0.960 . S
C157 H160 0.961 . S
H158 C157 0.959 . S
H159 C157 0.960 . S
H160 C157 0.961 . S
O161 Co136 1.967 . S
O161 C169 1.258 . S
O162 Co137 1.941 . S
O162 C169 1.266 1_554 S
H163 C165 0.959 . S
H164 C165 0.961 . S
C165 C155 1.510 . S
C165 H163 0.959 . S
C165 H164 0.961 . S
C165 H166 0.960 . S
H166 C165 0.960 . S
H167 N147 0.862 . S
O168 Co136 1.920 . S
O168 C141 1.289 . S
C169 O161 1.258 . S
C169 O162 1.266 1_556 S
Co170 O173 1.970 . S
Co170 N187 1.989 . S
Co170 O195 1.967 . S
Co170 O202 1.920 . S
Co171 O174 1.966 . S
Co171 N180 2.022 . S
Co171 N188 1.993 . S
Co171 O196 1.941 . S
C172 O173 1.258 . S
C172 O174 1.263 . S
O173 Co170 1.970 . S
O173 C172 1.258 . S
O174 Co171 1.966 . S
O174 C172 1.263 . S
C175 O176 1.235 1_556 S
C175 O202 1.289 1_556 S
O176 C175 1.235 1_554 S
C177 C179 1.400 . S
C177 N180 1.351 . S
C177 C182 1.501 . S
C178 C179 1.387 . S
C178 N181 1.341 . S
C179 C177 1.400 . S
C179 C178 1.387 . S
N180 Co171 2.022 . S
N180 C177 1.351 . S
N180 N181 1.365 . S
N181 C178 1.341 . S
N181 N180 1.365 . S
N181 H201 0.862 . S
C182 C177 1.501 . S
C182 H183 0.961 . S
C182 H184 0.961 . S
C182 H185 0.960 . S
H183 C182 0.961 . S
H184 C182 0.961 . S
H185 C182 0.960 . S
C186 N187 1.342 . S
C186 C190 1.401 . S
C186 C191 1.499 . S
N187 Co170 1.989 . S
N187 C186 1.342 . S
N187 N188 1.388 . S
N188 Co171 1.993 . S
N188 N187 1.388 . S
N188 C189 1.346 . S
C189 N188 1.346 . S
C189 C190 1.396 . S
C189 C199 1.510 . S
C190 C186 1.401 . S
C190 C189 1.396 . S
C191 C186 1.499 . S
C191 H192 0.959 . S
C191 H193 0.960 . S
C191 H194 0.961 . S
H192 C191 0.959 . S
H193 C191 0.960 . S
H194 C191 0.961 . S
O195 Co170 1.967 . S
O195 C203 1.258 . S
O196 Co171 1.941 . S
O196 C203 1.266 . S
H197 C199 0.959 . S
H198 C199 0.961 . S
C199 C189 1.510 . S
C199 H197 0.959 . S
C199 H198 0.961 . S
C199 H200 0.960 . S
H200 C199 0.960 . S
H201 N181 0.862 . S
O202 Co170 1.920 . S
O202 C175 1.289 1_554 S
C203 O195 1.258 . S
C203 O196 1.266 . S
Co204 O207 1.970 . S
Co204 N221 1.989 . S
Co204 O229 1.967 . S
Co204 O236 1.920 . S
Co205 O208 1.966 . S
Co205 N214 2.022 . S
Co205 N222 1.993 . S
Co205 O230 1.941 . S
C206 O207 1.258 . S
C206 O208 1.263 . S
O207 Co204 1.970 . S
O207 C206 1.258 . S
O208 Co205 1.966 . S
O208 C206 1.263 . S
C209 O210 1.235 . S
C209 O236 1.289 . S
O210 C209 1.235 . S
C211 C213 1.400 . S
C211 N214 1.351 . S
C211 C216 1.501 . S
C212 C213 1.387 . S
C212 N215 1.341 . S
C213 C211 1.400 . S
C213 C212 1.387 . S
N214 Co205 2.022 . S
N214 C211 1.351 . S
N214 N215 1.365 . S
N215 C212 1.341 . S
N215 N214 1.365 . S
N215 H235 0.862 . S
C216 C211 1.501 . S
C216 H217 0.961 . S
C216 H218 0.961 . S
C216 H219 0.960 . S
H217 C216 0.961 . S
H218 C216 0.961 . S
H219 C216 0.960 . S
C220 N221 1.342 . S
C220 C224 1.401 . S
C220 C225 1.499 . S
N221 Co204 1.989 . S
N221 C220 1.342 . S
N221 N222 1.388 . S
N222 Co205 1.993 . S
N222 N221 1.388 . S
N222 C223 1.346 . S
C223 N222 1.346 . S
C223 C224 1.396 . S
C223 C233 1.510 . S
C224 C220 1.401 . S
C224 C223 1.396 . S
C225 C220 1.499 . S
C225 H226 0.959 . S
C225 H227 0.960 . S
C225 H228 0.961 . S
H226 C225 0.959 . S
H227 C225 0.960 . S
H228 C225 0.961 . S
O229 Co204 1.967 . S
O229 C237 1.258 . S
O230 Co205 1.941 . S
O230 C237 1.266 . S
H231 C233 0.959 . S
H232 C233 0.961 . S
C233 C223 1.510 . S
C233 H231 0.959 . S
C233 H232 0.961 . S
C233 H234 0.960 . S
H234 C233 0.960 . S
H235 N215 0.862 . S
O236 Co204 1.920 . S
O236 C209 1.289 . S
C237 O229 1.258 . S
C237 O230 1.266 . S
Co238 O241 1.970 . S
Co238 N255 1.989 . S
Co238 O263 1.967 . S
Co238 O270 1.920 . S
Co239 O242 1.966 . S
Co239 N248 2.022 . S
Co239 N256 1.993 . S
Co239 O264 1.941 . S
C240 O241 1.258 . S
C240 O242 1.263 . S
O241 Co238 1.970 . S
O241 C240 1.258 . S
O242 Co239 1.966 . S
O242 C240 1.263 . S
C243 O244 1.235 . S
C243 O270 1.289 . S
O244 C243 1.235 . S
C245 C247 1.400 1_556 S
C245 N248 1.351 . S
C245 C250 1.501 . S
C246 C247 1.387 . S
C246 N249 1.341 1_554 S
C247 C245 1.400 1_554 S
C247 C246 1.387 . S
N248 Co239 2.022 . S
N248 C245 1.351 . S
N248 N249 1.365 . S
N249 C246 1.341 1_556 S
N249 N248 1.365 . S
N249 H269 0.862 . S
C250 C245 1.501 . S
C250 H251 0.961 . S
C250 H252 0.961 . S
C250 H253 0.960 . S
H251 C250 0.961 . S
H252 C250 0.961 . S
H253 C250 0.960 . S
C254 N255 1.342 . S
C254 C258 1.401 . S
C254 C259 1.499 . S
N255 Co238 1.989 . S
N255 C254 1.342 . S
N255 N256 1.388 . S
N256 Co239 1.993 . S
N256 N255 1.388 . S
N256 C257 1.346 . S
C257 N256 1.346 . S
C257 C258 1.396 . S
C257 C267 1.510 . S
C258 C254 1.401 . S
C258 C257 1.396 . S
C259 C254 1.499 . S
C259 H260 0.959 . S
C259 H261 0.960 . S
C259 H262 0.961 . S
H260 C259 0.959 . S
H261 C259 0.960 . S
H262 C259 0.961 . S
O263 Co238 1.967 . S
O263 C271 1.258 . S
O264 Co239 1.941 . S
O264 C271 1.266 . S
H265 C267 0.959 . S
H266 C267 0.961 . S
C267 C257 1.510 . S
C267 H265 0.959 . S
C267 H266 0.961 . S
C267 H268 0.960 . S
H268 C267 0.960 . S
H269 N249 0.862 . S
O270 Co238 1.920 . S
O270 C243 1.289 . S
C271 O263 1.258 . S
C271 O264 1.266 . S
Co272 O275 1.970 . S
Co272 N289 1.989 . S
Co272 O297 1.967 . S
Co272 O304 1.920 . S
Co273 O276 1.966 . S
Co273 N282 2.022 . S
Co273 N290 1.993 . S
Co273 O298 1.941 . S
C274 O275 1.258 . S
C274 O276 1.263 1_556 S
O275 Co272 1.970 . S
O275 C274 1.258 . S
O276 Co273 1.966 . S
O276 C274 1.263 1_554 S
C277 O278 1.235 . S
C277 O304 1.289 . S
O278 C277 1.235 . S
C279 C281 1.400 . S
C279 N282 1.351 . S
C279 C284 1.501 . S
C280 C281 1.387 . S
C280 N283 1.341 . S
C281 C279 1.400 . S
C281 C280 1.387 . S
N282 Co273 2.022 . S
N282 C279 1.351 . S
N282 N283 1.365 . S
N283 C280 1.341 . S
N283 N282 1.365 . S
N283 H303 0.862 . S
C284 C279 1.501 . S
C284 H285 0.961 . S
C284 H286 0.961 . S
C284 H287 0.960 . S
H285 C284 0.961 . S
H286 C284 0.961 . S
H287 C284 0.960 . S
C288 N289 1.342 . S
C288 C292 1.401 1_556 S
C288 C293 1.499 . S
N289 Co272 1.989 . S
N289 C288 1.342 . S
N289 N290 1.388 1_556 S
N290 Co273 1.993 . S
N290 N289 1.388 1_554 S
N290 C291 1.346 . S
C291 N290 1.346 . S
C291 C292 1.396 . S
C291 C301 1.510 . S
C292 C288 1.401 1_554 S
C292 C291 1.396 . S
C293 C288 1.499 . S
C293 H294 0.959 . S
C293 H295 0.960 . S
C293 H296 0.961 . S
H294 C293 0.959 . S
H295 C293 0.960 . S
H296 C293 0.961 . S
O297 Co272 1.967 . S
O297 C305 1.258 . S
O298 Co273 1.941 . S
O298 C305 1.266 1_554 S
H299 C301 0.959 . S
H300 C301 0.961 . S
C301 C291 1.510 . S
C301 H299 0.959 . S
C301 H300 0.961 . S
C301 H302 0.960 . S
H302 C301 0.960 . S
H303 N283 0.862 . S
O304 Co272 1.920 . S
O304 C277 1.289 . S
C305 O297 1.258 . S
C305 O298 1.266 1_556 S
Co306 O309 1.970 . S
Co306 N323 1.989 . S
Co306 O331 1.967 . S
Co306 O338 1.920 . S
Co307 O310 1.966 . S
Co307 N316 2.022 . S
Co307 N324 1.993 . S
Co307 O332 1.941 . S
C308 O309 1.258 . S
C308 O310 1.263 . S
O309 Co306 1.970 . S
O309 C308 1.258 . S
O310 Co307 1.966 . S
O310 C308 1.263 . S
C311 O312 1.235 . S
C311 O338 1.289 . S
O312 C311 1.235 . S
C313 C315 1.400 1_556 S
C313 N316 1.351 . S
C313 C318 1.501 . S
C314 C315 1.387 . S
C314 N317 1.341 1_554 S
C315 C313 1.400 1_554 S
C315 C314 1.387 . S
N316 Co307 2.022 . S
N316 C313 1.351 . S
N316 N317 1.365 . S
N317 C314 1.341 1_556 S
N317 N316 1.365 . S
N317 H337 0.862 . S
C318 C313 1.501 . S
C318 H319 0.961 . S
C318 H320 0.961 . S
C318 H321 0.960 . S
H319 C318 0.961 . S
H320 C318 0.961 . S
H321 C318 0.960 . S
C322 N323 1.342 . S
C322 C326 1.401 . S
C322 C327 1.499 . S
N323 Co306 1.989 . S
N323 C322 1.342 . S
N323 N324 1.388 . S
N324 Co307 1.993 . S
N324 N323 1.388 . S
N324 C325 1.346 . S
C325 N324 1.346 . S
C325 C326 1.396 . S
C325 C335 1.510 . S
C326 C322 1.401 . S
C326 C325 1.396 . S
C327 C322 1.499 . S
C327 H328 0.959 . S
C327 H329 0.960 . S
C327 H330 0.961 . S
H328 C327 0.959 . S
H329 C327 0.960 . S
H330 C327 0.961 . S
O331 Co306 1.967 . S
O331 C339 1.258 . S
O332 Co307 1.941 . S
O332 C339 1.266 . S
H333 C335 0.959 . S
H334 C335 0.961 . S
C335 C325 1.510 . S
C335 H333 0.959 . S
C335 H334 0.961 . S
C335 H336 0.960 . S
H336 C335 0.960 . S
H337 N317 0.862 . S
O338 Co306 1.920 . S
O338 C311 1.289 . S
C339 O331 1.258 . S
C339 O332 1.266 . S
Co340 O343 1.970 . S
Co340 N357 1.989 . S
Co340 O365 1.967 . S
Co340 O372 1.920 . S
Co341 O344 1.966 . S
Co341 N350 2.022 . S
Co341 N358 1.993 . S
Co341 O366 1.941 . S
C342 O343 1.258 . S
C342 O344 1.263 . S
O343 Co340 1.970 . S
O343 C342 1.258 . S
O344 Co341 1.966 . S
O344 C342 1.263 . S
C345 O346 1.235 . S
C345 O372 1.289 . S
O346 C345 1.235 . S
C347 C349 1.400 . S
C347 N350 1.351 . S
C347 C352 1.501 . S
C348 C349 1.387 . S
C348 N351 1.341 . S
C349 C347 1.400 . S
C349 C348 1.387 . S
N350 Co341 2.022 . S
N350 C347 1.351 . S
N350 N351 1.365 . S
N351 C348 1.341 . S
N351 N350 1.365 . S
N351 H371 0.862 . S
C352 C347 1.501 . S
C352 H353 0.961 . S
C352 H354 0.961 . S
C352 H355 0.960 . S
H353 C352 0.961 . S
H354 C352 0.961 . S
H355 C352 0.960 . S
C356 N357 1.342 . S
C356 C360 1.401 . S
C356 C361 1.499 . S
N357 Co340 1.989 . S
N357 C356 1.342 . S
N357 N358 1.388 . S
N358 Co341 1.993 . S
N358 N357 1.388 . S
N358 C359 1.346 . S
C359 N358 1.346 . S
C359 C360 1.396 . S
C359 C369 1.510 . S
C360 C356 1.401 . S
C360 C359 1.396 . S
C361 C356 1.499 . S
C361 H362 0.959 . S
C361 H363 0.960 . S
C361 H364 0.961 . S
H362 C361 0.959 . S
H363 C361 0.960 . S
H364 C361 0.961 . S
O365 Co340 1.967 . S
O365 C373 1.258 . S
O366 Co341 1.941 . S
O366 C373 1.266 . S
H367 C369 0.959 . S
H368 C369 0.961 . S
C369 C359 1.510 . S
C369 H367 0.959 . S
C369 H368 0.961 . S
C369 H370 0.960 . S
H370 C369 0.960 . S
H371 N351 0.862 . S
O372 Co340 1.920 . S
O372 C345 1.289 . S
C373 O365 1.258 . S
C373 O366 1.266 . S
Co374 O377 1.970 . S
Co374 N391 1.989 . S
Co374 O399 1.967 . S
Co374 O406 1.920 . S
Co375 O378 1.966 . S
Co375 N384 2.022 . S
Co375 N392 1.993 . S
Co375 O400 1.941 . S
C376 O377 1.258 . S
C376 O378 1.263 . S
O377 Co374 1.970 . S
O377 C376 1.258 . S
O378 Co375 1.966 . S
O378 C376 1.263 . S
C379 O380 1.235 1_556 S
C379 O406 1.289 1_556 S
O380 C379 1.235 1_554 S
C381 C383 1.400 . S
C381 N384 1.351 . S
C381 C386 1.501 . S
C382 C383 1.387 . S
C382 N385 1.341 . S
C383 C381 1.400 . S
C383 C382 1.387 . S
N384 Co375 2.022 . S
N384 C381 1.351 . S
N384 N385 1.365 . S
N385 C382 1.341 . S
N385 N384 1.365 . S
N385 H405 0.862 . S
C386 C381 1.501 . S
C386 H387 0.961 . S
C386 H388 0.961 . S
C386 H389 0.960 . S
H387 C386 0.961 . S
H388 C386 0.961 . S
H389 C386 0.960 . S
C390 N391 1.342 . S
C390 C394 1.401 . S
C390 C395 1.499 . S
N391 Co374 1.989 . S
N391 C390 1.342 . S
N391 N392 1.388 . S
N392 Co375 1.993 . S
N392 N391 1.388 . S
N392 C393 1.346 . S
C393 N392 1.346 . S
C393 C394 1.396 . S
C393 C403 1.510 . S
C394 C390 1.401 . S
C394 C393 1.396 . S
C395 C390 1.499 . S
C395 H396 0.959 . S
C395 H397 0.960 . S
C395 H398 0.961 . S
H396 C395 0.959 . S
H397 C395 0.960 . S
H398 C395 0.961 . S
O399 Co374 1.967 . S
O399 C407 1.258 . S
O400 Co375 1.941 . S
O400 C407 1.266 . S
H401 C403 0.959 . S
H402 C403 0.961 . S
C403 C393 1.510 . S
C403 H401 0.959 . S
C403 H402 0.961 . S
C403 H404 0.960 . S
H404 C403 0.960 . S
H405 N385 0.862 . S
O406 Co374 1.920 . S
O406 C379 1.289 1_554 S
C407 O399 1.258 . S
C407 O400 1.266 . S
Co408 O411 1.970 . S
Co408 N425 1.989 . S
Co408 O433 1.967 . S
Co408 O440 1.920 . S
Co409 O412 1.966 . S
Co409 N418 2.022 . S
Co409 N426 1.993 . S
Co409 O434 1.941 . S
C410 O411 1.258 . S
C410 O412 1.263 1_554 S
O411 Co408 1.970 . S
O411 C410 1.258 . S
O412 Co409 1.966 . S
O412 C410 1.263 1_556 S
C413 O414 1.235 . S
C413 O440 1.289 . S
O414 C413 1.235 . S
C415 C417 1.400 . S
C415 N418 1.351 . S
C415 C420 1.501 . S
C416 C417 1.387 . S
C416 N419 1.341 . S
C417 C415 1.400 . S
C417 C416 1.387 . S
N418 Co409 2.022 . S
N418 C415 1.351 . S
N418 N419 1.365 . S
N419 C416 1.341 . S
N419 N418 1.365 . S
N419 H439 0.862 . S
C420 C415 1.501 . S
C420 H421 0.961 . S
C420 H422 0.961 . S
C420 H423 0.960 . S
H421 C420 0.961 . S
H422 C420 0.961 . S
H423 C420 0.960 . S
C424 N425 1.342 . S
C424 C428 1.401 1_554 S
C424 C429 1.499 . S
N425 Co408 1.989 . S
N425 C424 1.342 . S
N425 N426 1.388 1_554 S
N426 Co409 1.993 . S
N426 N425 1.388 1_556 S
N426 C427 1.346 . S
C427 N426 1.346 . S
C427 C428 1.396 . S
C427 C437 1.510 . S
C428 C424 1.401 1_556 S
C428 C427 1.396 . S
C429 C424 1.499 . S
C429 H430 0.959 . S
C429 H431 0.960 . S
C429 H432 0.961 . S
H430 C429 0.959 . S
H431 C429 0.960 . S
H432 C429 0.961 . S
O433 Co408 1.967 . S
O433 C441 1.258 . S
O434 Co409 1.941 . S
O434 C441 1.266 1_556 S
H435 C437 0.959 . S
H436 C437 0.961 . S
C437 C427 1.510 . S
C437 H435 0.959 . S
C437 H436 0.961 . S
C437 H438 0.960 . S
H438 C437 0.960 . S
H439 N419 0.862 . S
O440 Co408 1.920 . S
O440 C413 1.289 . S
C441 O433 1.258 . S
C441 O434 1.266 1_554 S
Co442 O445 1.970 . S
Co442 N459 1.989 . S
Co442 O467 1.967 . S
Co442 O474 1.920 . S
Co443 O446 1.966 . S
Co443 N452 2.022 . S
Co443 N460 1.993 . S
Co443 O468 1.941 . S
C444 O445 1.258 . S
C444 O446 1.263 . S
O445 Co442 1.970 . S
O445 C444 1.258 . S
O446 Co443 1.966 . S
O446 C444 1.263 . S
C447 O448 1.235 1_554 S
C447 O474 1.289 1_554 S
O448 C447 1.235 1_556 S
C449 C451 1.400 . S
C449 N452 1.351 . S
C449 C454 1.501 . S
C450 C451 1.387 . S
C450 N453 1.341 . S
C451 C449 1.400 . S
C451 C450 1.387 . S
N452 Co443 2.022 . S
N452 C449 1.351 . S
N452 N453 1.365 . S
N453 C450 1.341 . S
N453 N452 1.365 . S
N453 H473 0.862 . S
C454 C449 1.501 . S
C454 H455 0.961 . S
C454 H456 0.961 . S
C454 H457 0.960 . S
H455 C454 0.961 . S
H456 C454 0.961 . S
H457 C454 0.960 . S
C458 N459 1.342 . S
C458 C462 1.401 . S
C458 C463 1.499 . S
N459 Co442 1.989 . S
N459 C458 1.342 . S
N459 N460 1.388 . S
N460 Co443 1.993 . S
N460 N459 1.388 . S
N460 C461 1.346 . S
C461 N460 1.346 . S
C461 C462 1.396 . S
C461 C471 1.510 . S
C462 C458 1.401 . S
C462 C461 1.396 . S
C463 C458 1.499 . S
C463 H464 0.959 . S
C463 H465 0.960 . S
C463 H466 0.961 . S
H464 C463 0.959 . S
H465 C463 0.960 . S
H466 C463 0.961 . S
O467 Co442 1.967 . S
O467 C475 1.258 . S
O468 Co443 1.941 . S
O468 C475 1.266 . S
H469 C471 0.959 . S
H470 C471 0.961 . S
C471 C461 1.510 . S
C471 H469 0.959 . S
C471 H470 0.961 . S
C471 H472 0.960 . S
H472 C471 0.960 . S
H473 N453 0.862 . S
O474 Co442 1.920 . S
O474 C447 1.289 1_556 S
C475 O467 1.258 . S
C475 O468 1.266 . S
Co476 O479 1.970 . S
Co476 N493 1.989 . S
Co476 O501 1.967 . S
Co476 O508 1.920 . S
Co477 O480 1.966 . S
Co477 N486 2.022 . S
Co477 N494 1.993 . S
Co477 O502 1.941 . S
C478 O479 1.258 . S
C478 O480 1.263 . S
O479 Co476 1.970 . S
O479 C478 1.258 . S
O480 Co477 1.966 . S
O480 C478 1.263 . S
C481 O482 1.235 . S
C481 O508 1.289 . S
O482 C481 1.235 . S
C483 C485 1.400 . S
C483 N486 1.351 . S
C483 C488 1.501 . S
C484 C485 1.387 . S
C484 N487 1.341 . S
C485 C483 1.400 . S
C485 C484 1.387 . S
N486 Co477 2.022 . S
N486 C483 1.351 . S
N486 N487 1.365 . S
N487 C484 1.341 . S
N487 N486 1.365 . S
N487 H507 0.862 . S
C488 C483 1.501 . S
C488 H489 0.961 . S
C488 H490 0.961 . S
C488 H491 0.960 . S
H489 C488 0.961 . S
H490 C488 0.961 . S
H491 C488 0.960 . S
C492 N493 1.342 . S
C492 C496 1.401 . S
C492 C497 1.499 . S
N493 Co476 1.989 . S
N493 C492 1.342 . S
N493 N494 1.388 . S
N494 Co477 1.993 . S
N494 N493 1.388 . S
N494 C495 1.346 . S
C495 N494 1.346 . S
C495 C496 1.396 . S
C495 C505 1.510 . S
C496 C492 1.401 . S
C496 C495 1.396 . S
C497 C492 1.499 . S
C497 H498 0.959 . S
C497 H499 0.960 . S
C497 H500 0.961 . S
H498 C497 0.959 . S
H499 C497 0.960 . S
H500 C497 0.961 . S
O501 Co476 1.967 . S
O501 C509 1.258 . S
O502 Co477 1.941 . S
O502 C509 1.266 . S
H503 C505 0.959 . S
H504 C505 0.961 . S
C505 C495 1.510 . S
C505 H503 0.959 . S
C505 H504 0.961 . S
C505 H506 0.960 . S
H506 C505 0.960 . S
H507 N487 0.862 . S
O508 Co476 1.920 . S
O508 C481 1.289 . S
C509 O501 1.258 . S
C509 O502 1.266 . S
Co510 O513 1.970 . S
Co510 N527 1.989 . S
Co510 O535 1.967 . S
Co510 O542 1.920 . S
Co511 O514 1.966 . S
Co511 N520 2.022 . S
Co511 N528 1.993 . S
Co511 O536 1.941 . S
C512 O513 1.258 . S
C512 O514 1.263 . S
O513 Co510 1.970 . S
O513 C512 1.258 . S
O514 Co511 1.966 . S
O514 C512 1.263 . S
C515 O516 1.235 . S
C515 O542 1.289 . S
O516 C515 1.235 . S
C517 C519 1.400 1_554 S
C517 N520 1.351 . S
C517 C522 1.501 . S
C518 C519 1.387 . S
C518 N521 1.341 1_556 S
C519 C517 1.400 1_556 S
C519 C518 1.387 . S
N520 Co511 2.022 . S
N520 C517 1.351 . S
N520 N521 1.365 . S
N521 C518 1.341 1_554 S
N521 N520 1.365 . S
N521 H541 0.862 . S
C522 C517 1.501 . S
C522 H523 0.961 . S
C522 H524 0.961 . S
C522 H525 0.960 . S
H523 C522 0.961 . S
H524 C522 0.961 . S
H525 C522 0.960 . S
C526 N527 1.342 . S
C526 C530 1.401 . S
C526 C531 1.499 . S
N527 Co510 1.989 . S
N527 C526 1.342 . S
N527 N528 1.388 . S
N528 Co511 1.993 . S
N528 N527 1.388 . S
N528 C529 1.346 . S
C529 N528 1.346 . S
C529 C530 1.396 . S
C529 C539 1.510 . S
C530 C526 1.401 . S
C530 C529 1.396 . S
C531 C526 1.499 . S
C531 H532 0.959 . S
C531 H533 0.960 . S
C531 H534 0.961 . S
H532 C531 0.959 . S
H533 C531 0.960 . S
H534 C531 0.961 . S
O535 Co510 1.967 . S
O535 C543 1.258 . S
O536 Co511 1.941 . S
O536 C543 1.266 . S
H537 C539 0.959 . S
H538 C539 0.961 . S
C539 C529 1.510 . S
C539 H537 0.959 . S
C539 H538 0.961 . S
C539 H540 0.960 . S
H540 C539 0.960 . S
H541 N521 0.862 . S
O542 Co510 1.920 . S
O542 C515 1.289 . S
C543 O535 1.258 . S
C543 O536 1.266 . S
Co544 O547 1.970 . S
Co544 N561 1.989 . S
Co544 O569 1.967 . S
Co544 O576 1.920 . S
Co545 O548 1.966 . S
Co545 N554 2.022 . S
Co545 N562 1.993 . S
Co545 O570 1.941 . S
C546 O547 1.258 . S
C546 O548 1.263 . S
O547 Co544 1.970 . S
O547 C546 1.258 . S
O548 Co545 1.966 . S
O548 C546 1.263 . S
C549 O550 1.235 . S
C549 O576 1.289 . S
O550 C549 1.235 . S
C551 C553 1.400 . S
C551 N554 1.351 . S
C551 C556 1.501 . S
C552 C553 1.387 . S
C552 N555 1.341 . S
C553 C551 1.400 . S
C553 C552 1.387 . S
N554 Co545 2.022 . S
N554 C551 1.351 . S
N554 N555 1.365 . S
N555 C552 1.341 . S
N555 N554 1.365 . S
N555 H575 0.862 . S
C556 C551 1.501 . S
C556 H557 0.961 . S
C556 H558 0.961 . S
C556 H559 0.960 . S
H557 C556 0.961 . S
H558 C556 0.961 . S
H559 C556 0.960 . S
C560 N561 1.342 . S
C560 C564 1.401 . S
C560 C565 1.499 . S
N561 Co544 1.989 . S
N561 C560 1.342 . S
N561 N562 1.388 . S
N562 Co545 1.993 . S
N562 N561 1.388 . S
N562 C563 1.346 . S
C563 N562 1.346 . S
C563 C564 1.396 . S
C563 C573 1.510 . S
C564 C560 1.401 . S
C564 C563 1.396 . S
C565 C560 1.499 . S
C565 H566 0.959 . S
C565 H567 0.960 . S
C565 H568 0.961 . S
H566 C565 0.959 . S
H567 C565 0.960 . S
H568 C565 0.961 . S
O569 Co544 1.967 . S
O569 C577 1.258 . S
O570 Co545 1.941 . S
O570 C577 1.266 . S
H571 C573 0.959 . S
H572 C573 0.961 . S
C573 C563 1.510 . S
C573 H571 0.959 . S
C573 H572 0.961 . S
C573 H574 0.960 . S
H574 C573 0.960 . S
H575 N555 0.862 . S
O576 Co544 1.920 . S
O576 C549 1.289 . S
C577 O569 1.258 . S
C577 O570 1.266 . S
Co578 O581 1.970 . S
Co578 N595 1.989 . S
Co578 O603 1.967 . S
Co578 O610 1.920 . S
Co579 O582 1.966 . S
Co579 N588 2.022 . S
Co579 N596 1.993 . S
Co579 O604 1.941 . S
C580 O581 1.258 . S
C580 O582 1.263 . S
O581 Co578 1.970 . S
O581 C580 1.258 . S
O582 Co579 1.966 . S
O582 C580 1.263 . S
C583 O584 1.235 1_554 S
C583 O610 1.289 1_554 S
O584 C583 1.235 1_556 S
C585 C587 1.400 . S
C585 N588 1.351 . S
C585 C590 1.501 . S
C586 C587 1.387 . S
C586 N589 1.341 . S
C587 C585 1.400 . S
C587 C586 1.387 . S
N588 Co579 2.022 . S
N588 C585 1.351 . S
N588 N589 1.365 . S
N589 C586 1.341 . S
N589 N588 1.365 . S
N589 H609 0.862 . S
C590 C585 1.501 . S
C590 H591 0.961 . S
C590 H592 0.961 . S
C590 H593 0.960 . S
H591 C590 0.961 . S
H592 C590 0.961 . S
H593 C590 0.960 . S
C594 N595 1.342 . S
C594 C598 1.401 . S
C594 C599 1.499 . S
N595 Co578 1.989 . S
N595 C594 1.342 . S
N595 N596 1.388 . S
N596 Co579 1.993 . S
N596 N595 1.388 . S
N596 C597 1.346 . S
C597 N596 1.346 . S
C597 C598 1.396 . S
C597 C607 1.510 . S
C598 C594 1.401 . S
C598 C597 1.396 . S
C599 C594 1.499 . S
C599 H600 0.959 . S
C599 H601 0.960 . S
C599 H602 0.961 . S
H600 C599 0.959 . S
H601 C599 0.960 . S
H602 C599 0.961 . S
O603 Co578 1.967 . S
O603 C611 1.258 . S
O604 Co579 1.941 . S
O604 C611 1.266 . S
H605 C607 0.959 . S
H606 C607 0.961 . S
C607 C597 1.510 . S
C607 H605 0.959 . S
C607 H606 0.961 . S
C607 H608 0.960 . S
H608 C607 0.960 . S
H609 N589 0.862 . S
O610 Co578 1.920 . S
O610 C583 1.289 1_556 S
C611 O603 1.258 . S
C611 O604 1.266 . S
Co612 O615 1.970 . S
Co612 N629 1.989 . S
Co612 O637 1.967 . S
Co612 O644 1.920 . S
Co613 O616 1.966 . S
Co613 N622 2.022 . S
Co613 N630 1.993 . S
Co613 O638 1.941 . S
C614 O615 1.258 . S
C614 O616 1.263 1_554 S
O615 Co612 1.970 . S
O615 C614 1.258 . S
O616 Co613 1.966 . S
O616 C614 1.263 1_556 S
C617 O618 1.235 . S
C617 O644 1.289 . S
O618 C617 1.235 . S
C619 C621 1.400 . S
C619 N622 1.351 . S
C619 C624 1.501 . S
C620 C621 1.387 . S
C620 N623 1.341 . S
C621 C619 1.400 . S
C621 C620 1.387 . S
N622 Co613 2.022 . S
N622 C619 1.351 . S
N622 N623 1.365 . S
N623 C620 1.341 . S
N623 N622 1.365 . S
N623 H643 0.862 . S
C624 C619 1.501 . S
C624 H625 0.961 . S
C624 H626 0.961 . S
C624 H627 0.960 . S
H625 C624 0.961 . S
H626 C624 0.961 . S
H627 C624 0.960 . S
C628 N629 1.342 . S
C628 C632 1.401 1_554 S
C628 C633 1.499 . S
N629 Co612 1.989 . S
N629 C628 1.342 . S
N629 N630 1.388 1_554 S
N630 Co613 1.993 . S
N630 N629 1.388 1_556 S
N630 C631 1.346 . S
C631 N630 1.346 . S
C631 C632 1.396 . S
C631 C641 1.510 . S
C632 C628 1.401 1_556 S
C632 C631 1.396 . S
C633 C628 1.499 . S
C633 H634 0.959 . S
C633 H635 0.960 . S
C633 H636 0.961 . S
H634 C633 0.959 . S
H635 C633 0.960 . S
H636 C633 0.961 . S
O637 Co612 1.967 . S
O637 C645 1.258 . S
O638 Co613 1.941 . S
O638 C645 1.266 1_556 S
H639 C641 0.959 . S
H640 C641 0.961 . S
C641 C631 1.510 . S
C641 H639 0.959 . S
C641 H640 0.961 . S
C641 H642 0.960 . S
H642 C641 0.960 . S
H643 N623 0.862 . S
O644 Co612 1.920 . S
O644 C617 1.289 . S
C645 O637 1.258 . S
C645 O638 1.266 1_554 S
Co646 O649 1.970 . S
Co646 N663 1.989 . S
Co646 O671 1.967 . S
Co646 O678 1.920 . S
Co647 O650 1.966 . S
Co647 N656 2.022 . S
Co647 N664 1.993 . S
Co647 O672 1.941 . S
C648 O649 1.258 . S
C648 O650 1.263 . S
O649 Co646 1.970 . S
O649 C648 1.258 . S
O650 Co647 1.966 . S
O650 C648 1.263 . S
C651 O652 1.235 . S
C651 O678 1.289 . S
O652 C651 1.235 . S
C653 C655 1.400 1_554 S
C653 N656 1.351 . S
C653 C658 1.501 . S
C654 C655 1.387 . S
C654 N657 1.341 1_556 S
C655 C653 1.400 1_556 S
C655 C654 1.387 . S
N656 Co647 2.022 . S
N656 C653 1.351 . S
N656 N657 1.365 . S
N657 C654 1.341 1_554 S
N657 N656 1.365 . S
N657 H677 0.862 . S
C658 C653 1.501 . S
C658 H659 0.961 . S
C658 H660 0.961 . S
C658 H661 0.960 . S
H659 C658 0.961 . S
H660 C658 0.961 . S
H661 C658 0.960 . S
C662 N663 1.342 . S
C662 C666 1.401 . S
C662 C667 1.499 . S
N663 Co646 1.989 . S
N663 C662 1.342 . S
N663 N664 1.388 . S
N664 Co647 1.993 . S
N664 N663 1.388 . S
N664 C665 1.346 . S
C665 N664 1.346 . S
C665 C666 1.396 . S
C665 C675 1.510 . S
C666 C662 1.401 . S
C666 C665 1.396 . S
C667 C662 1.499 . S
C667 H668 0.959 . S
C667 H669 0.960 . S
C667 H670 0.961 . S
H668 C667 0.959 . S
H669 C667 0.960 . S
H670 C667 0.961 . S
O671 Co646 1.967 . S
O671 C679 1.258 . S
O672 Co647 1.941 . S
O672 C679 1.266 . S
H673 C675 0.959 . S
H674 C675 0.961 . S
C675 C665 1.510 . S
C675 H673 0.959 . S
C675 H674 0.961 . S
C675 H676 0.960 . S
H676 C675 0.960 . S
H677 N657 0.862 . S
O678 Co646 1.920 . S
O678 C651 1.289 . S
C679 O671 1.258 . S
C679 O672 1.266 . S
Co680 O683 1.970 . S
Co680 N697 1.989 . S
Co680 O705 1.967 . S
Co680 O712 1.920 . S
Co681 O684 1.966 . S
Co681 N690 2.022 . S
Co681 N698 1.993 . S
Co681 O706 1.941 . S
C682 O683 1.258 . S
C682 O684 1.263 . S
O683 Co680 1.970 . S
O683 C682 1.258 . S
O684 Co681 1.966 . S
O684 C682 1.263 . S
C685 O686 1.235 . S
C685 O712 1.289 . S
O686 C685 1.235 . S
C687 C689 1.400 . S
C687 N690 1.351 . S
C687 C692 1.501 . S
C688 C689 1.387 . S
C688 N691 1.341 . S
C689 C687 1.400 . S
C689 C688 1.387 . S
N690 Co681 2.022 . S
N690 C687 1.351 . S
N690 N691 1.365 . S
N691 C688 1.341 . S
N691 N690 1.365 . S
N691 H711 0.862 . S
C692 C687 1.501 . S
C692 H693 0.961 . S
C692 H694 0.961 . S
C692 H695 0.960 . S
H693 C692 0.961 . S
H694 C692 0.961 . S
H695 C692 0.960 . S
C696 N697 1.342 . S
C696 C700 1.401 . S
C696 C701 1.499 . S
N697 Co680 1.989 . S
N697 C696 1.342 . S
N697 N698 1.388 . S
N698 Co681 1.993 . S
N698 N697 1.388 . S
N698 C699 1.346 . S
C699 N698 1.346 . S
C699 C700 1.396 . S
C699 C709 1.510 . S
C700 C696 1.401 . S
C700 C699 1.396 . S
C701 C696 1.499 . S
C701 H702 0.959 . S
C701 H703 0.960 . S
C701 H704 0.961 . S
H702 C701 0.959 . S
H703 C701 0.960 . S
H704 C701 0.961 . S
O705 Co680 1.967 . S
O705 C713 1.258 . S
O706 Co681 1.941 . S
O706 C713 1.266 . S
H707 C709 0.959 . S
H708 C709 0.961 . S
C709 C699 1.510 . S
C709 H707 0.959 . S
C709 H708 0.961 . S
C709 H710 0.960 . S
H710 C709 0.960 . S
H711 N691 0.862 . S
O712 Co680 1.920 . S
O712 C685 1.289 . S
C713 O705 1.258 . S
C713 O706 1.266 . S
Co714 O717 1.970 . S
Co714 N731 1.989 . S
Co714 O739 1.967 . S
Co714 O746 1.920 . S
Co715 O718 1.966 . S
Co715 N724 2.022 . S
Co715 N732 1.993 . S
Co715 O740 1.941 . S
C716 O717 1.258 . S
C716 O718 1.263 . S
O717 Co714 1.970 . S
O717 C716 1.258 . S
O718 Co715 1.966 . S
O718 C716 1.263 . S
C719 O720 1.235 . S
C719 O746 1.289 . S
O720 C719 1.235 . S
C721 C723 1.400 1_556 S
C721 N724 1.351 . S
C721 C726 1.501 . S
C722 C723 1.387 . S
C722 N725 1.341 1_554 S
C723 C721 1.400 1_554 S
C723 C722 1.387 . S
N724 Co715 2.022 . S
N724 C721 1.351 . S
N724 N725 1.365 . S
N725 C722 1.341 1_556 S
N725 N724 1.365 . S
N725 H745 0.862 . S
C726 C721 1.501 . S
C726 H727 0.961 . S
C726 H728 0.961 . S
C726 H729 0.960 . S
H727 C726 0.961 . S
H728 C726 0.961 . S
H729 C726 0.960 . S
C730 N731 1.342 . S
C730 C734 1.401 . S
C730 C735 1.499 . S
N731 Co714 1.989 . S
N731 C730 1.342 . S
N731 N732 1.388 . S
N732 Co715 1.993 . S
N732 N731 1.388 . S
N732 C733 1.346 . S
C733 N732 1.346 . S
C733 C734 1.396 . S
C733 C743 1.510 . S
C734 C730 1.401 . S
C734 C733 1.396 . S
C735 C730 1.499 . S
C735 H736 0.959 . S
C735 H737 0.960 . S
C735 H738 0.961 . S
H736 C735 0.959 . S
H737 C735 0.960 . S
H738 C735 0.961 . S
O739 Co714 1.967 . S
O739 C747 1.258 . S
O740 Co715 1.941 . S
O740 C747 1.266 . S
H741 C743 0.959 . S
H742 C743 0.961 . S
C743 C733 1.510 . S
C743 H741 0.959 . S
C743 H742 0.961 . S
C743 H744 0.960 . S
H744 C743 0.960 . S
H745 N725 0.862 . S
O746 Co714 1.920 . S
O746 C719 1.289 . S
C747 O739 1.258 . S
C747 O740 1.266 . S
Co748 O751 1.970 . S
Co748 N765 1.989 . S
Co748 O773 1.967 . S
Co748 O780 1.920 . S
Co749 O752 1.966 . S
Co749 N758 2.022 . S
Co749 N766 1.993 . S
Co749 O774 1.941 . S
C750 O751 1.258 . S
C750 O752 1.263 1_556 S
O751 Co748 1.970 . S
O751 C750 1.258 . S
O752 Co749 1.966 . S
O752 C750 1.263 1_554 S
C753 O754 1.235 . S
C753 O780 1.289 . S
O754 C753 1.235 . S
C755 C757 1.400 . S
C755 N758 1.351 . S
C755 C760 1.501 . S
C756 C757 1.387 . S
C756 N759 1.341 . S
C757 C755 1.400 . S
C757 C756 1.387 . S
N758 Co749 2.022 . S
N758 C755 1.351 . S
N758 N759 1.365 . S
N759 C756 1.341 . S
N759 N758 1.365 . S
N759 H779 0.862 . S
C760 C755 1.501 . S
C760 H761 0.961 . S
C760 H762 0.961 . S
C760 H763 0.960 . S
H761 C760 0.961 . S
H762 C760 0.961 . S
H763 C760 0.960 . S
C764 N765 1.342 . S
C764 C768 1.401 1_556 S
C764 C769 1.499 . S
N765 Co748 1.989 . S
N765 C764 1.342 . S
N765 N766 1.388 1_556 S
N766 Co749 1.993 . S
N766 N765 1.388 1_554 S
N766 C767 1.346 . S
C767 N766 1.346 . S
C767 C768 1.396 . S
C767 C777 1.510 . S
C768 C764 1.401 1_554 S
C768 C767 1.396 . S
C769 C764 1.499 . S
C769 H770 0.959 . S
C769 H771 0.960 . S
C769 H772 0.961 . S
H770 C769 0.959 . S
H771 C769 0.960 . S
H772 C769 0.961 . S
O773 Co748 1.967 . S
O773 C781 1.258 . S
O774 Co749 1.941 . S
O774 C781 1.266 1_554 S
H775 C777 0.959 . S
H776 C777 0.961 . S
C777 C767 1.510 . S
C777 H775 0.959 . S
C777 H776 0.961 . S
C777 H778 0.960 . S
H778 C777 0.960 . S
H779 N759 0.862 . S
O780 Co748 1.920 . S
O780 C753 1.289 . S
C781 O773 1.258 . S
C781 O774 1.266 1_556 S
Co782 O785 1.970 . S
Co782 N799 1.989 . S
Co782 O807 1.967 . S
Co782 O814 1.920 . S
Co783 O786 1.966 . S
Co783 N792 2.022 . S
Co783 N800 1.993 . S
Co783 O808 1.941 . S
C784 O785 1.258 . S
C784 O786 1.263 . S
O785 Co782 1.970 . S
O785 C784 1.258 . S
O786 Co783 1.966 . S
O786 C784 1.263 . S
C787 O788 1.235 1_556 S
C787 O814 1.289 1_556 S
O788 C787 1.235 1_554 S
C789 C791 1.400 . S
C789 N792 1.351 . S
C789 C794 1.501 . S
C790 C791 1.387 . S
C790 N793 1.341 . S
C791 C789 1.400 . S
C791 C790 1.387 . S
N792 Co783 2.022 . S
N792 C789 1.351 . S
N792 N793 1.365 . S
N793 C790 1.341 . S
N793 N792 1.365 . S
N793 H813 0.862 . S
C794 C789 1.501 . S
C794 H795 0.961 . S
C794 H796 0.961 . S
C794 H797 0.960 . S
H795 C794 0.961 . S
H796 C794 0.961 . S
H797 C794 0.960 . S
C798 N799 1.342 . S
C798 C802 1.401 . S
C798 C803 1.499 . S
N799 Co782 1.989 . S
N799 C798 1.342 . S
N799 N800 1.388 . S
N800 Co783 1.993 . S
N800 N799 1.388 . S
N800 C801 1.346 . S
C801 N800 1.346 . S
C801 C802 1.396 . S
C801 C811 1.510 . S
C802 C798 1.401 . S
C802 C801 1.396 . S
C803 C798 1.499 . S
C803 H804 0.959 . S
C803 H805 0.960 . S
C803 H806 0.961 . S
H804 C803 0.959 . S
H805 C803 0.960 . S
H806 C803 0.961 . S
O807 Co782 1.967 . S
O807 C815 1.258 . S
O808 Co783 1.941 . S
O808 C815 1.266 . S
H809 C811 0.959 . S
H810 C811 0.961 . S
C811 C801 1.510 . S
C811 H809 0.959 . S
C811 H810 0.961 . S
C811 H812 0.960 . S
H812 C811 0.960 . S
H813 N793 0.862 . S
O814 Co782 1.920 . S
O814 C787 1.289 1_554 S
C815 O807 1.258 . S
C815 O808 1.266 . S
Co816 O819 1.970 . S
Co816 N833 1.989 . S
Co816 O841 1.967 . S
Co816 O848 1.920 . S
Co817 O820 1.966 . S
Co817 N826 2.022 . S
Co817 N834 1.993 . S
Co817 O842 1.941 . S
C818 O819 1.258 . S
C818 O820 1.263 . S
O819 Co816 1.970 . S
O819 C818 1.258 . S
O820 Co817 1.966 . S
O820 C818 1.263 . S
C821 O822 1.235 . S
C821 O848 1.289 . S
O822 C821 1.235 . S
C823 C825 1.400 . S
C823 N826 1.351 . S
C823 C828 1.501 . S
C824 C825 1.387 . S
C824 N827 1.341 . S
C825 C823 1.400 . S
C825 C824 1.387 . S
N826 Co817 2.022 . S
N826 C823 1.351 . S
N826 N827 1.365 . S
N827 C824 1.341 . S
N827 N826 1.365 . S
N827 H847 0.862 . S
C828 C823 1.501 . S
C828 H829 0.961 . S
C828 H830 0.961 . S
C828 H831 0.960 . S
H829 C828 0.961 . S
H830 C828 0.961 . S
H831 C828 0.960 . S
C832 N833 1.342 . S
C832 C836 1.401 . S
C832 C837 1.499 . S
N833 Co816 1.989 . S
N833 C832 1.342 . S
N833 N834 1.388 . S
N834 Co817 1.993 . S
N834 N833 1.388 . S
N834 C835 1.346 . S
C835 N834 1.346 . S
C835 C836 1.396 . S
C835 C845 1.510 . S
C836 C832 1.401 . S
C836 C835 1.396 . S
C837 C832 1.499 . S
C837 H838 0.959 . S
C837 H839 0.960 . S
C837 H840 0.961 . S
H838 C837 0.959 . S
H839 C837 0.960 . S
H840 C837 0.961 . S
O841 Co816 1.967 . S
O841 C849 1.258 . S
O842 Co817 1.941 . S
O842 C849 1.266 . S
H843 C845 0.959 . S
H844 C845 0.961 . S
C845 C835 1.510 . S
C845 H843 0.959 . S
C845 H844 0.961 . S
C845 H846 0.960 . S
H846 C845 0.960 . S
H847 N827 0.862 . S
O848 Co816 1.920 . S
O848 C821 1.289 . S
C849 O841 1.258 . S
C849 O842 1.266 . S
Co850 O853 1.970 . S
Co850 N867 1.989 . S
Co850 O875 1.967 . S
Co850 O882 1.920 . S
Co851 O854 1.966 . S
Co851 N860 2.022 . S
Co851 N868 1.993 . S
Co851 O876 1.941 . S
C852 O853 1.258 . S
C852 O854 1.263 . S
O853 Co850 1.970 . S
O853 C852 1.258 . S
O854 Co851 1.966 . S
O854 C852 1.263 . S
C855 O856 1.235 1_556 S
C855 O882 1.289 1_556 S
O856 C855 1.235 1_554 S
C857 C859 1.400 . S
C857 N860 1.351 . S
C857 C862 1.501 . S
C858 C859 1.387 . S
C858 N861 1.341 . S
C859 C857 1.400 . S
C859 C858 1.387 . S
N860 Co851 2.022 . S
N860 C857 1.351 . S
N860 N861 1.365 . S
N861 C858 1.341 . S
N861 N860 1.365 . S
N861 H881 0.862 . S
C862 C857 1.501 . S
C862 H863 0.961 . S
C862 H864 0.961 . S
C862 H865 0.960 . S
H863 C862 0.961 . S
H864 C862 0.961 . S
H865 C862 0.960 . S
C866 N867 1.342 . S
C866 C870 1.401 . S
C866 C871 1.499 . S
N867 Co850 1.989 . S
N867 C866 1.342 . S
N867 N868 1.388 . S
N868 Co851 1.993 . S
N868 N867 1.388 . S
N868 C869 1.346 . S
C869 N868 1.346 . S
C869 C870 1.396 . S
C869 C879 1.510 . S
C870 C866 1.401 . S
C870 C869 1.396 . S
C871 C866 1.499 . S
C871 H872 0.959 . S
C871 H873 0.960 . S
C871 H874 0.961 . S
H872 C871 0.959 . S
H873 C871 0.960 . S
H874 C871 0.961 . S
O875 Co850 1.967 . S
O875 C883 1.258 . S
O876 Co851 1.941 . S
O876 C883 1.266 . S
H877 C879 0.959 . S
H878 C879 0.961 . S
C879 C869 1.510 . S
C879 H877 0.959 . S
C879 H878 0.961 . S
C879 H880 0.960 . S
H880 C879 0.960 . S
H881 N861 0.862 . S
O882 Co850 1.920 . S
O882 C855 1.289 1_554 S
C883 O875 1.258 . S
C883 O876 1.266 . S
Co884 O887 1.970 . S
Co884 N901 1.989 . S
Co884 O909 1.967 . S
Co884 O916 1.920 . S
Co885 O888 1.966 . S
Co885 N894 2.022 . S
Co885 N902 1.993 . S
Co885 O910 1.941 . S
C886 O887 1.258 . S
C886 O888 1.263 1_556 S
O887 Co884 1.970 . S
O887 C886 1.258 . S
O888 Co885 1.966 . S
O888 C886 1.263 1_554 S
C889 O890 1.235 . S
C889 O916 1.289 . S
O890 C889 1.235 . S
C891 C893 1.400 . S
C891 N894 1.351 . S
C891 C896 1.501 . S
C892 C893 1.387 . S
C892 N895 1.341 . S
C893 C891 1.400 . S
C893 C892 1.387 . S
N894 Co885 2.022 . S
N894 C891 1.351 . S
N894 N895 1.365 . S
N895 C892 1.341 . S
N895 N894 1.365 . S
N895 H915 0.862 . S
C896 C891 1.501 . S
C896 H897 0.961 . S
C896 H898 0.961 . S
C896 H899 0.960 . S
H897 C896 0.961 . S
H898 C896 0.961 . S
H899 C896 0.960 . S
C900 N901 1.342 . S
C900 C904 1.401 1_556 S
C900 C905 1.499 . S
N901 Co884 1.989 . S
N901 C900 1.342 . S
N901 N902 1.388 1_556 S
N902 Co885 1.993 . S
N902 N901 1.388 1_554 S
N902 C903 1.346 . S
C903 N902 1.346 . S
C903 C904 1.396 . S
C903 C913 1.510 . S
C904 C900 1.401 1_554 S
C904 C903 1.396 . S
C905 C900 1.499 . S
C905 H906 0.959 . S
C905 H907 0.960 . S
C905 H908 0.961 . S
H906 C905 0.959 . S
H907 C905 0.960 . S
H908 C905 0.961 . S
O909 Co884 1.967 . S
O909 C917 1.258 . S
O910 Co885 1.941 . S
O910 C917 1.266 1_554 S
H911 C913 0.959 . S
H912 C913 0.961 . S
C913 C903 1.510 . S
C913 H911 0.959 . S
C913 H912 0.961 . S
C913 H914 0.960 . S
H914 C913 0.960 . S
H915 N895 0.862 . S
O916 Co884 1.920 . S
O916 C889 1.289 . S
C917 O909 1.258 . S
C917 O910 1.266 1_556 S
Co918 O921 1.970 . S
Co918 N935 1.989 . S
Co918 O943 1.967 . S
Co918 O950 1.920 . S
Co919 O922 1.966 . S
Co919 N928 2.022 . S
Co919 N936 1.993 . S
Co919 O944 1.941 . S
C920 O921 1.258 . S
C920 O922 1.263 . S
O921 Co918 1.970 . S
O921 C920 1.258 . S
O922 Co919 1.966 . S
O922 C920 1.263 . S
C923 O924 1.235 . S
C923 O950 1.289 . S
O924 C923 1.235 . S
C925 C927 1.400 1_556 S
C925 N928 1.351 . S
C925 C930 1.501 . S
C926 C927 1.387 . S
C926 N929 1.341 1_554 S
C927 C925 1.400 1_554 S
C927 C926 1.387 . S
N928 Co919 2.022 . S
N928 C925 1.351 . S
N928 N929 1.365 . S
N929 C926 1.341 1_556 S
N929 N928 1.365 . S
N929 H949 0.862 . S
C930 C925 1.501 . S
C930 H931 0.961 . S
C930 H932 0.961 . S
C930 H933 0.960 . S
H931 C930 0.961 . S
H932 C930 0.961 . S
H933 C930 0.960 . S
C934 N935 1.342 . S
C934 C938 1.401 . S
C934 C939 1.499 . S
N935 Co918 1.989 . S
N935 C934 1.342 . S
N935 N936 1.388 . S
N936 Co919 1.993 . S
N936 N935 1.388 . S
N936 C937 1.346 . S
C937 N936 1.346 . S
C937 C938 1.396 . S
C937 C947 1.510 . S
C938 C934 1.401 . S
C938 C937 1.396 . S
C939 C934 1.499 . S
C939 H940 0.959 . S
C939 H941 0.960 . S
C939 H942 0.961 . S
H940 C939 0.959 . S
H941 C939 0.960 . S
H942 C939 0.961 . S
O943 Co918 1.967 . S
O943 C951 1.258 . S
O944 Co919 1.941 . S
O944 C951 1.266 . S
H945 C947 0.959 . S
H946 C947 0.961 . S
C947 C937 1.510 . S
C947 H945 0.959 . S
C947 H946 0.961 . S
C947 H948 0.960 . S
H948 C947 0.960 . S
H949 N929 0.862 . S
O950 Co918 1.920 . S
O950 C923 1.289 . S
C951 O943 1.258 . S
C951 O944 1.266 . S
Co952 O955 1.970 . S
Co952 N969 1.989 . S
Co952 O977 1.967 . S
Co952 O984 1.920 . S
Co953 O956 1.966 . S
Co953 N962 2.022 . S
Co953 N970 1.993 . S
Co953 O978 1.941 . S
C954 O955 1.258 . S
C954 O956 1.263 . S
O955 Co952 1.970 . S
O955 C954 1.258 . S
O956 Co953 1.966 . S
O956 C954 1.263 . S
C957 O958 1.235 . S
C957 O984 1.289 . S
O958 C957 1.235 . S
C959 C961 1.400 . S
C959 N962 1.351 . S
C959 C964 1.501 . S
C960 C961 1.387 . S
C960 N963 1.341 . S
C961 C959 1.400 . S
C961 C960 1.387 . S
N962 Co953 2.022 . S
N962 C959 1.351 . S
N962 N963 1.365 . S
N963 C960 1.341 . S
N963 N962 1.365 . S
N963 H983 0.862 . S
C964 C959 1.501 . S
C964 H965 0.961 . S
C964 H966 0.961 . S
C964 H967 0.960 . S
H965 C964 0.961 . S
H966 C964 0.961 . S
H967 C964 0.960 . S
C968 N969 1.342 . S
C968 C972 1.401 . S
C968 C973 1.499 . S
N969 Co952 1.989 . S
N969 C968 1.342 . S
N969 N970 1.388 . S
N970 Co953 1.993 . S
N970 N969 1.388 . S
N970 C971 1.346 . S
C971 N970 1.346 . S
C971 C972 1.396 . S
C971 C981 1.510 . S
C972 C968 1.401 . S
C972 C971 1.396 . S
C973 C968 1.499 . S
C973 H974 0.959 . S
C973 H975 0.960 . S
C973 H976 0.961 . S
H974 C973 0.959 . S
H975 C973 0.960 . S
H976 C973 0.961 . S
O977 Co952 1.967 . S
O977 C985 1.258 . S
O978 Co953 1.941 . S
O978 C985 1.266 . S
H979 C981 0.959 . S
H980 C981 0.961 . S
C981 C971 1.510 . S
C981 H979 0.959 . S
C981 H980 0.961 . S
C981 H982 0.960 . S
H982 C981 0.960 . S
H983 N963 0.862 . S
O984 Co952 1.920 . S
O984 C957 1.289 . S
C985 O977 1.258 . S
C985 O978 1.266 . S
Co986 O989 1.970 . S
Co986 N1003 1.989 . S
Co986 O1011 1.967 . S
Co986 O1018 1.920 . S
Co987 O990 1.966 . S
Co987 N996 2.022 . S
Co987 N1004 1.993 . S
Co987 O1012 1.941 . S
C988 O989 1.258 . S
C988 O990 1.263 . S
O989 Co986 1.970 . S
O989 C988 1.258 . S
O990 Co987 1.966 . S
O990 C988 1.263 . S
C991 O992 1.235 . S
C991 O1018 1.289 . S
O992 C991 1.235 . S
C993 C995 1.400 1_554 S
C993 N996 1.351 . S
C993 C998 1.501 . S
C994 C995 1.387 . S
C994 N997 1.341 1_556 S
C995 C993 1.400 1_556 S
C995 C994 1.387 . S
N996 Co987 2.022 . S
N996 C993 1.351 . S
N996 N997 1.365 . S
N997 C994 1.341 1_554 S
N997 N996 1.365 . S
N997 H1017 0.862 . S
C998 C993 1.501 . S
C998 H999 0.961 . S
C998 H1000 0.961 . S
C998 H1001 0.960 . S
H999 C998 0.961 . S
H1000 C998 0.961 . S
H1001 C998 0.960 . S
C1002 N1003 1.342 . S
C1002 C1006 1.401 . S
C1002 C1007 1.499 . S
N1003 Co986 1.989 . S
N1003 C1002 1.342 . S
N1003 N1004 1.388 . S
N1004 Co987 1.993 . S
N1004 N1003 1.388 . S
N1004 C1005 1.346 . S
C1005 N1004 1.346 . S
C1005 C1006 1.396 . S
C1005 C1015 1.510 . S
C1006 C1002 1.401 . S
C1006 C1005 1.396 . S
C1007 C1002 1.499 . S
C1007 H1008 0.959 . S
C1007 H1009 0.960 . S
C1007 H1010 0.961 . S
H1008 C1007 0.959 . S
H1009 C1007 0.960 . S
H1010 C1007 0.961 . S
O1011 Co986 1.967 . S
O1011 C1019 1.258 . S
O1012 Co987 1.941 . S
O1012 C1019 1.266 . S
H1013 C1015 0.959 . S
H1014 C1015 0.961 . S
C1015 C1005 1.510 . S
C1015 H1013 0.959 . S
C1015 H1014 0.961 . S
C1015 H1016 0.960 . S
H1016 C1015 0.960 . S
H1017 N997 0.862 . S
O1018 Co986 1.920 . S
O1018 C991 1.289 . S
C1019 O1011 1.258 . S
C1019 O1012 1.266 . S
Co1020 O1023 1.970 . S
Co1020 N1037 1.989 . S
Co1020 O1045 1.967 . S
Co1020 O1052 1.920 . S
Co1021 O1024 1.966 . S
Co1021 N1030 2.022 . S
Co1021 N1038 1.993 . S
Co1021 O1046 1.941 . S
C1022 O1023 1.258 . S
C1022 O1024 1.263 1_554 S
O1023 Co1020 1.970 . S
O1023 C1022 1.258 . S
O1024 Co1021 1.966 . S
O1024 C1022 1.263 1_556 S
C1025 O1026 1.235 . S
C1025 O1052 1.289 . S
O1026 C1025 1.235 . S
C1027 C1029 1.400 . S
C1027 N1030 1.351 . S
C1027 C1032 1.501 . S
C1028 C1029 1.387 . S
C1028 N1031 1.341 . S
C1029 C1027 1.400 . S
C1029 C1028 1.387 . S
N1030 Co1021 2.022 . S
N1030 C1027 1.351 . S
N1030 N1031 1.365 . S
N1031 C1028 1.341 . S
N1031 N1030 1.365 . S
N1031 H1051 0.862 . S
C1032 C1027 1.501 . S
C1032 H1033 0.961 . S
C1032 H1034 0.961 . S
C1032 H1035 0.960 . S
H1033 C1032 0.961 . S
H1034 C1032 0.961 . S
H1035 C1032 0.960 . S
C1036 N1037 1.342 . S
C1036 C1040 1.401 1_554 S
C1036 C1041 1.499 . S
N1037 Co1020 1.989 . S
N1037 C1036 1.342 . S
N1037 N1038 1.388 1_554 S
N1038 Co1021 1.993 . S
N1038 N1037 1.388 1_556 S
N1038 C1039 1.346 . S
C1039 N1038 1.346 . S
C1039 C1040 1.396 . S
C1039 C1049 1.510 . S
C1040 C1036 1.401 1_556 S
C1040 C1039 1.396 . S
C1041 C1036 1.499 . S
C1041 H1042 0.959 . S
C1041 H1043 0.960 . S
C1041 H1044 0.961 . S
H1042 C1041 0.959 . S
H1043 C1041 0.960 . S
H1044 C1041 0.961 . S
O1045 Co1020 1.967 . S
O1045 C1053 1.258 . S
O1046 Co1021 1.941 . S
O1046 C1053 1.266 1_556 S
H1047 C1049 0.959 . S
H1048 C1049 0.961 . S
C1049 C1039 1.510 . S
C1049 H1047 0.959 . S
C1049 H1048 0.961 . S
C1049 H1050 0.960 . S
H1050 C1049 0.960 . S
H1051 N1031 0.862 . S
O1052 Co1020 1.920 . S
O1052 C1025 1.289 . S
C1053 O1045 1.258 . S
C1053 O1046 1.266 1_554 S
Co1054 O1057 1.970 . S
Co1054 N1071 1.989 . S
Co1054 O1079 1.967 . S
Co1054 O1086 1.920 . S
Co1055 O1058 1.966 . S
Co1055 N1064 2.022 . S
Co1055 N1072 1.993 . S
Co1055 O1080 1.941 . S
C1056 O1057 1.258 . S
C1056 O1058 1.263 . S
O1057 Co1054 1.970 . S
O1057 C1056 1.258 . S
O1058 Co1055 1.966 . S
O1058 C1056 1.263 . S
C1059 O1060 1.235 1_554 S
C1059 O1086 1.289 1_554 S
O1060 C1059 1.235 1_556 S
C1061 C1063 1.400 . S
C1061 N1064 1.351 . S
C1061 C1066 1.501 . S
C1062 C1063 1.387 . S
C1062 N1065 1.341 . S
C1063 C1061 1.400 . S
C1063 C1062 1.387 . S
N1064 Co1055 2.022 . S
N1064 C1061 1.351 . S
N1064 N1065 1.365 . S
N1065 C1062 1.341 . S
N1065 N1064 1.365 . S
N1065 H1085 0.862 . S
C1066 C1061 1.501 . S
C1066 H1067 0.961 . S
C1066 H1068 0.961 . S
C1066 H1069 0.960 . S
H1067 C1066 0.961 . S
H1068 C1066 0.961 . S
H1069 C1066 0.960 . S
C1070 N1071 1.342 . S
C1070 C1074 1.401 . S
C1070 C1075 1.499 . S
N1071 Co1054 1.989 . S
N1071 C1070 1.342 . S
N1071 N1072 1.388 . S
N1072 Co1055 1.993 . S
N1072 N1071 1.388 . S
N1072 C1073 1.346 . S
C1073 N1072 1.346 . S
C1073 C1074 1.396 . S
C1073 C1083 1.510 . S
C1074 C1070 1.401 . S
C1074 C1073 1.396 . S
C1075 C1070 1.499 . S
C1075 H1076 0.959 . S
C1075 H1077 0.960 . S
C1075 H1078 0.961 . S
H1076 C1075 0.959 . S
H1077 C1075 0.960 . S
H1078 C1075 0.961 . S
O1079 Co1054 1.967 . S
O1079 C1087 1.258 . S
O1080 Co1055 1.941 . S
O1080 C1087 1.266 . S
H1081 C1083 0.959 . S
H1082 C1083 0.961 . S
C1083 C1073 1.510 . S
C1083 H1081 0.959 . S
C1083 H1082 0.961 . S
C1083 H1084 0.960 . S
H1084 C1083 0.960 . S
H1085 N1065 0.862 . S
O1086 Co1054 1.920 . S
O1086 C1059 1.289 1_556 S
C1087 O1079 1.258 . S
C1087 O1080 1.266 . S
H1088 C1094 0.930 . S
H1089 C1097 0.930 . S
H1090 C1098 0.930 . S
H1091 C1099 0.930 1_556 S
H1092 C1102 0.930 . S
H1093 C1103 0.930 . S
C1094 H1088 0.930 . S
C1094 C1095 1.355 . S
C1094 C1096 1.415 . S
C1095 C1094 1.355 . S
C1095 C1097 1.419 1_554 S
C1096 C1094 1.415 . S
C1096 C1101 1.425 . S
C1096 C1103 1.409 . S
C1097 H1089 0.930 . S
C1097 C1095 1.419 1_556 S
C1097 C1098 1.362 . S
C1098 H1090 0.930 . S
C1098 C1097 1.362 . S
C1098 C1101 1.409 1_556 S
C1099 H1091 0.930 1_554 S
C1099 C1100 1.355 . S
C1099 C1101 1.415 . S
C1100 C1099 1.355 . S
C1100 C1102 1.419 . S
C1101 C1096 1.425 . S
C1101 C1098 1.409 1_554 S
C1101 C1099 1.415 . S
C1102 H1092 0.930 . S
C1102 C1100 1.419 . S
C1102 C1103 1.362 . S
C1103 H1093 0.930 . S
C1103 C1096 1.409 . S
C1103 C1102 1.362 . S
H1104 C1110 0.930 . S
H1105 C1113 0.930 . S
H1106 C1114 0.930 . S
H1107 C1115 0.930 . S
H1108 C1118 0.930 . S
H1109 C1119 0.930 . S
C1110 H1104 0.930 . S
C1110 C1111 1.355 . S
C1110 C1112 1.415 . S
C1111 C1110 1.355 . S
C1111 C1113 1.419 . S
C1112 C1110 1.415 . S
C1112 C1117 1.425 1_455 S
C1112 C1119 1.409 1_455 S
C1113 H1105 0.930 . S
C1113 C1111 1.419 . S
C1113 C1114 1.362 . S
C1114 H1106 0.930 . S
C1114 C1113 1.362 . S
C1114 C1117 1.409 1_455 S
C1115 H1107 0.930 . S
C1115 C1116 1.355 . S
C1115 C1117 1.415 . S
C1116 C1115 1.355 . S
C1116 C1118 1.419 . S
C1117 C1112 1.425 1_655 S
C1117 C1114 1.409 1_655 S
C1117 C1115 1.415 . S
C1118 H1108 0.930 . S
C1118 C1116 1.419 . S
C1118 C1119 1.362 . S
C1119 H1109 0.930 . S
C1119 C1112 1.409 1_655 S
C1119 C1118 1.362 . S
H1120 C1126 0.930 . S
H1121 C1129 0.930 . S
H1122 C1130 0.930 . S
H1123 C1131 0.930 . S
H1124 C1134 0.930 . S
H1125 C1135 0.930 . S
C1126 H1120 0.930 . S
C1126 C1127 1.355 . S
C1126 C1128 1.415 . S
C1127 C1126 1.355 . S
C1127 C1129 1.419 . S
C1128 C1126 1.415 . S
C1128 C1133 1.425 . S
C1128 C1135 1.409 . S
C1129 H1121 0.930 . S
C1129 C1127 1.419 . S
C1129 C1130 1.362 . S
C1130 H1122 0.930 . S
C1130 C1129 1.362 . S
C1130 C1133 1.409 . S
C1131 H1123 0.930 . S
C1131 C1132 1.355 . S
C1131 C1133 1.415 . S
C1132 C1131 1.355 . S
C1132 C1134 1.419 . S
C1133 C1128 1.425 . S
C1133 C1130 1.409 . S
C1133 C1131 1.415 . S
C1134 H1124 0.930 . S
C1134 C1132 1.419 . S
C1134 C1135 1.362 . S
C1135 H1125 0.930 . S
C1135 C1128 1.409 . S
C1135 C1134 1.362 . S
H1136 C1142 0.930 . S
H1137 C1145 0.930 . S
H1138 C1146 0.930 . S
H1139 C1147 0.930 . S
H1140 C1150 0.930 . S
H1141 C1151 0.930 . S
C1142 H1136 0.930 . S
C1142 C1143 1.355 . S
C1142 C1144 1.415 . S
C1143 C1142 1.355 . S
C1143 C1145 1.419 . S
C1144 C1142 1.415 . S
C1144 C1149 1.425 . S
C1144 C1151 1.409 . S
C1145 H1137 0.930 . S
C1145 C1143 1.419 . S
C1145 C1146 1.362 . S
C1146 H1138 0.930 . S
C1146 C1145 1.362 . S
C1146 C1149 1.409 . S
C1147 H1139 0.930 . S
C1147 C1148 1.355 . S
C1147 C1149 1.415 . S
C1148 C1147 1.355 . S
C1148 C1150 1.419 . S
C1149 C1144 1.425 . S
C1149 C1146 1.409 . S
C1149 C1147 1.415 . S
C1150 H1140 0.930 . S
C1150 C1148 1.419 . S
C1150 C1151 1.362 . S
C1151 H1141 0.930 . S
C1151 C1144 1.409 . S
C1151 C1150 1.362 . S
H1152 C1158 0.930 . S
H1153 C1161 0.930 . S
H1154 C1162 0.930 . S
H1155 C1163 0.930 . S
H1156 C1166 0.930 . S
H1157 C1167 0.930 . S
C1158 H1152 0.930 . S
C1158 C1159 1.355 . S
C1158 C1160 1.415 . S
C1159 C1158 1.355 . S
C1159 C1161 1.419 . S
C1160 C1158 1.415 . S
C1160 C1165 1.425 . S
C1160 C1167 1.409 . S
C1161 H1153 0.930 . S
C1161 C1159 1.419 . S
C1161 C1162 1.362 . S
C1162 H1154 0.930 . S
C1162 C1161 1.362 . S
C1162 C1165 1.409 . S
C1163 H1155 0.930 . S
C1163 C1164 1.355 . S
C1163 C1165 1.415 . S
C1164 C1163 1.355 . S
C1164 C1166 1.419 . S
C1165 C1160 1.425 . S
C1165 C1162 1.409 . S
C1165 C1163 1.415 . S
C1166 H1156 0.930 . S
C1166 C1164 1.419 . S
C1166 C1167 1.362 . S
C1167 H1157 0.930 . S
C1167 C1160 1.409 . S
C1167 C1166 1.362 . S
H1168 C1174 0.930 . S
H1169 C1177 0.930 . S
H1170 C1178 0.930 . S
H1171 C1179 0.930 . S
H1172 C1182 0.930 . S
H1173 C1183 0.930 . S
C1174 H1168 0.930 . S
C1174 C1175 1.355 . S
C1174 C1176 1.415 . S
C1175 C1174 1.355 . S
C1175 C1177 1.419 . S
C1176 C1174 1.415 . S
C1176 C1181 1.425 . S
C1176 C1183 1.409 . S
C1177 H1169 0.930 . S
C1177 C1175 1.419 . S
C1177 C1178 1.362 . S
C1178 H1170 0.930 . S
C1178 C1177 1.362 . S
C1178 C1181 1.409 . S
C1179 H1171 0.930 . S
C1179 C1180 1.355 . S
C1179 C1181 1.415 . S
C1180 C1179 1.355 . S
C1180 C1182 1.419 . S
C1181 C1176 1.425 . S
C1181 C1178 1.409 . S
C1181 C1179 1.415 . S
C1182 H1172 0.930 . S
C1182 C1180 1.419 . S
C1182 C1183 1.362 . S
C1183 H1173 0.930 . S
C1183 C1176 1.409 . S
C1183 C1182 1.362 . S
H1184 C1190 0.930 . S
H1185 C1193 0.930 . S
H1186 C1194 0.930 . S
H1187 C1195 0.930 . S
H1188 C1198 0.930 . S
H1189 C1199 0.930 . S
C1190 H1184 0.930 . S
C1190 C1191 1.355 . S
C1190 C1192 1.415 . S
C1191 C1190 1.355 . S
C1191 C1193 1.419 . S
C1192 C1190 1.415 . S
C1192 C1197 1.425 . S
C1192 C1199 1.409 . S
C1193 H1185 0.930 . S
C1193 C1191 1.419 . S
C1193 C1194 1.362 . S
C1194 H1186 0.930 . S
C1194 C1193 1.362 . S
C1194 C1197 1.409 . S
C1195 H1187 0.930 . S
C1195 C1196 1.355 . S
C1195 C1197 1.415 . S
C1196 C1195 1.355 . S
C1196 C1198 1.419 . S
C1197 C1192 1.425 . S
C1197 C1194 1.409 . S
C1197 C1195 1.415 . S
C1198 H1188 0.930 . S
C1198 C1196 1.419 . S
C1198 C1199 1.362 . S
C1199 H1189 0.930 . S
C1199 C1192 1.409 . S
C1199 C1198 1.362 . S
H1200 C1206 0.930 . S
H1201 C1209 0.930 . S
H1202 C1210 0.930 . S
H1203 C1211 0.930 . S
H1204 C1214 0.930 . S
H1205 C1215 0.930 . S
C1206 H1200 0.930 . S
C1206 C1207 1.355 . S
C1206 C1208 1.415 . S
C1207 C1206 1.355 . S
C1207 C1209 1.419 . S
C1208 C1206 1.415 . S
C1208 C1213 1.425 1_655 S
C1208 C1215 1.409 1_655 S
C1209 H1201 0.930 . S
C1209 C1207 1.419 . S
C1209 C1210 1.362 . S
C1210 H1202 0.930 . S
C1210 C1209 1.362 . S
C1210 C1213 1.409 1_655 S
C1211 H1203 0.930 . S
C1211 C1212 1.355 . S
C1211 C1213 1.415 . S
C1212 C1211 1.355 . S
C1212 C1214 1.419 . S
C1213 C1208 1.425 1_455 S
C1213 C1210 1.409 1_455 S
C1213 C1211 1.415 . S
C1214 H1204 0.930 . S
C1214 C1212 1.419 . S
C1214 C1215 1.362 . S
C1215 H1205 0.930 . S
C1215 C1208 1.409 1_455 S
C1215 C1214 1.362 . S
H1216 C1222 0.930 . S
H1217 C1225 0.930 . S
H1218 C1226 0.930 . S
H1219 C1227 0.930 . S
H1220 C1230 0.930 . S
H1221 C1231 0.930 . S
C1222 H1216 0.930 . S
C1222 C1223 1.355 1_554 S
C1222 C1224 1.415 . S
C1223 C1222 1.355 1_556 S
C1223 C1225 1.419 . S
C1224 C1222 1.415 . S
C1224 C1229 1.425 1_554 S
C1224 C1231 1.409 . S
C1225 H1217 0.930 . S
C1225 C1223 1.419 . S
C1225 C1226 1.362 . S
C1226 H1218 0.930 . S
C1226 C1225 1.362 . S
C1226 C1229 1.409 . S
C1227 H1219 0.930 . S
C1227 C1228 1.355 . S
C1227 C1229 1.415 . S
C1228 C1227 1.355 . S
C1228 C1230 1.419 1_556 S
C1229 C1224 1.425 1_556 S
C1229 C1226 1.409 . S
C1229 C1227 1.415 . S
C1230 H1220 0.930 . S
C1230 C1228 1.419 1_554 S
C1230 C1231 1.362 . S
C1231 H1221 0.930 . S
C1231 C1224 1.409 . S
C1231 C1230 1.362 . S
H1232 C1238 0.930 . S
H1233 C1241 0.930 . S
H1234 C1242 0.930 . S
H1235 C1243 0.930 . S
H1236 C1246 0.930 . S
H1237 C1247 0.930 . S
C1238 H1232 0.930 . S
C1238 C1239 1.355 . S
C1238 C1240 1.415 . S
C1239 C1238 1.355 . S
C1239 C1241 1.419 . S
C1240 C1238 1.415 . S
C1240 C1245 1.425 . S
C1240 C1247 1.409 . S
C1241 H1233 0.930 . S
C1241 C1239 1.419 . S
C1241 C1242 1.362 . S
C1242 H1234 0.930 . S
C1242 C1241 1.362 . S
C1242 C1245 1.409 . S
C1243 H1235 0.930 . S
C1243 C1244 1.355 . S
C1243 C1245 1.415 . S
C1244 C1243 1.355 . S
C1244 C1246 1.419 . S
C1245 C1240 1.425 . S
C1245 C1242 1.409 . S
C1245 C1243 1.415 . S
C1246 H1236 0.930 . S
C1246 C1244 1.419 . S
C1246 C1247 1.362 . S
C1247 H1237 0.930 . S
C1247 C1240 1.409 . S
C1247 C1246 1.362 . S
H1248 C1254 0.930 . S
H1249 C1257 0.930 . S
H1250 C1258 0.930 . S
H1251 C1259 0.930 . S
H1252 C1262 0.930 . S
H1253 C1263 0.930 . S
C1254 H1248 0.930 . S
C1254 C1255 1.355 1_556 S
C1254 C1256 1.415 . S
C1255 C1254 1.355 1_554 S
C1255 C1257 1.419 . S
C1256 C1254 1.415 . S
C1256 C1261 1.425 1_556 S
C1256 C1263 1.409 . S
C1257 H1249 0.930 . S
C1257 C1255 1.419 . S
C1257 C1258 1.362 . S
C1258 H1250 0.930 . S
C1258 C1257 1.362 . S
C1258 C1261 1.409 . S
C1259 H1251 0.930 . S
C1259 C1260 1.355 . S
C1259 C1261 1.415 . S
C1260 C1259 1.355 . S
C1260 C1262 1.419 1_554 S
C1261 C1256 1.425 1_554 S
C1261 C1258 1.409 . S
C1261 C1259 1.415 . S
C1262 H1252 0.930 . S
C1262 C1260 1.419 1_556 S
C1262 C1263 1.362 . S
C1263 H1253 0.930 . S
C1263 C1256 1.409 . S
C1263 C1262 1.362 . S
H1264 C1270 0.930 . S
H1265 C1273 0.930 . S
H1266 C1274 0.930 . S
H1267 C1275 0.930 . S
H1268 C1278 0.930 . S
H1269 C1279 0.930 . S
C1270 H1264 0.930 . S
C1270 C1271 1.355 . S
C1270 C1272 1.415 . S
C1271 C1270 1.355 . S
C1271 C1273 1.419 . S
C1272 C1270 1.415 . S
C1272 C1277 1.425 . S
C1272 C1279 1.409 . S
C1273 H1265 0.930 . S
C1273 C1271 1.419 . S
C1273 C1274 1.362 . S
C1274 H1266 0.930 . S
C1274 C1273 1.362 . S
C1274 C1277 1.409 . S
C1275 H1267 0.930 . S
C1275 C1276 1.355 . S
C1275 C1277 1.415 . S
C1276 C1275 1.355 . S
C1276 C1278 1.419 . S
C1277 C1272 1.425 . S
C1277 C1274 1.409 . S
C1277 C1275 1.415 . S
C1278 H1268 0.930 . S
C1278 C1276 1.419 . S
C1278 C1279 1.362 . S
C1279 H1269 0.930 . S
C1279 C1272 1.409 . S
C1279 C1278 1.362 . S
H1280 C1286 0.930 . S
H1281 C1289 0.930 . S
H1282 C1290 0.930 . S
H1283 C1291 0.930 . S
H1284 C1294 0.930 . S
H1285 C1295 0.930 . S
C1286 H1280 0.930 . S
C1286 C1287 1.355 . S
C1286 C1288 1.415 . S
C1287 C1286 1.355 . S
C1287 C1289 1.419 . S
C1288 C1286 1.415 . S
C1288 C1293 1.425 . S
C1288 C1295 1.409 . S
C1289 H1281 0.930 . S
C1289 C1287 1.419 . S
C1289 C1290 1.362 . S
C1290 H1282 0.930 . S
C1290 C1289 1.362 . S
C1290 C1293 1.409 . S
C1291 H1283 0.930 . S
C1291 C1292 1.355 . S
C1291 C1293 1.415 . S
C1292 C1291 1.355 . S
C1292 C1294 1.419 . S
C1293 C1288 1.425 . S
C1293 C1290 1.409 . S
C1293 C1291 1.415 . S
C1294 H1284 0.930 . S
C1294 C1292 1.419 . S
C1294 C1295 1.362 . S
C1295 H1285 0.930 . S
C1295 C1288 1.409 . S
C1295 C1294 1.362 . S
H1296 C1302 0.930 . S
H1297 C1305 0.930 . S
H1298 C1306 0.930 . S
H1299 C1307 0.930 . S
H1300 C1310 0.930 . S
H1301 C1311 0.930 . S
C1302 H1296 0.930 . S
C1302 C1303 1.355 . S
C1302 C1304 1.415 . S
C1303 C1302 1.355 . S
C1303 C1305 1.419 . S
C1304 C1302 1.415 . S
C1304 C1309 1.425 1_455 S
C1304 C1311 1.409 1_455 S
C1305 H1297 0.930 . S
C1305 C1303 1.419 . S
C1305 C1306 1.362 . S
C1306 H1298 0.930 . S
C1306 C1305 1.362 . S
C1306 C1309 1.409 1_455 S
C1307 H1299 0.930 . S
C1307 C1308 1.355 . S
C1307 C1309 1.415 . S
C1308 C1307 1.355 . S
C1308 C1310 1.419 . S
C1309 C1304 1.425 1_655 S
C1309 C1306 1.409 1_655 S
C1309 C1307 1.415 . S
C1310 H1300 0.930 . S
C1310 C1308 1.419 . S
C1310 C1311 1.362 . S
C1311 H1301 0.930 . S
C1311 C1304 1.409 1_655 S
C1311 C1310 1.362 . S
H1312 C1318 0.930 . S
H1313 C1321 0.930 . S
H1314 C1322 0.930 . S
H1315 C1323 0.930 . S
H1316 C1326 0.930 . S
H1317 C1327 0.930 . S
C1318 H1312 0.930 . S
C1318 C1319 1.355 . S
C1318 C1320 1.415 . S
C1319 C1318 1.355 . S
C1319 C1321 1.419 . S
C1320 C1318 1.415 . S
C1320 C1325 1.425 1_455 S
C1320 C1327 1.409 1_455 S
C1321 H1313 0.930 . S
C1321 C1319 1.419 . S
C1321 C1322 1.362 . S
C1322 H1314 0.930 . S
C1322 C1321 1.362 . S
C1322 C1325 1.409 1_455 S
C1323 H1315 0.930 . S
C1323 C1324 1.355 . S
C1323 C1325 1.415 . S
C1324 C1323 1.355 . S
C1324 C1326 1.419 . S
C1325 C1320 1.425 1_655 S
C1325 C1322 1.409 1_655 S
C1325 C1323 1.415 . S
C1326 H1316 0.930 . S
C1326 C1324 1.419 . S
C1326 C1327 1.362 . S
C1327 H1317 0.930 . S
C1327 C1320 1.409 1_655 S
C1327 C1326 1.362 . S
H1328 C1334 0.930 . S
H1329 C1337 0.930 . S
H1330 C1338 0.930 . S
H1331 C1339 0.930 . S
H1332 C1342 0.930 . S
H1333 C1343 0.930 . S
C1334 H1328 0.930 . S
C1334 C1335 1.355 . S
C1334 C1336 1.415 . S
C1335 C1334 1.355 . S
C1335 C1337 1.419 . S
C1336 C1334 1.415 . S
C1336 C1341 1.425 . S
C1336 C1343 1.409 . S
C1337 H1329 0.930 . S
C1337 C1335 1.419 . S
C1337 C1338 1.362 . S
C1338 H1330 0.930 . S
C1338 C1337 1.362 . S
C1338 C1341 1.409 . S
C1339 H1331 0.930 . S
C1339 C1340 1.355 . S
C1339 C1341 1.415 . S
C1340 C1339 1.355 . S
C1340 C1342 1.419 . S
C1341 C1336 1.425 . S
C1341 C1338 1.409 . S
C1341 C1339 1.415 . S
C1342 H1332 0.930 . S
C1342 C1340 1.419 . S
C1342 C1343 1.362 . S
C1343 H1333 0.930 . S
C1343 C1336 1.409 . S
C1343 C1342 1.362 . S
H1344 C1350 0.930 . S
H1345 C1353 0.930 . S
H1346 C1354 0.930 . S
H1347 C1355 0.930 . S
H1348 C1358 0.930 . S
H1349 C1359 0.930 . S
C1350 H1344 0.930 . S
C1350 C1351 1.355 . S
C1350 C1352 1.415 . S
C1351 C1350 1.355 . S
C1351 C1353 1.419 . S
C1352 C1350 1.415 . S
C1352 C1357 1.425 . S
C1352 C1359 1.409 . S
C1353 H1345 0.930 . S
C1353 C1351 1.419 . S
C1353 C1354 1.362 . S
C1354 H1346 0.930 . S
C1354 C1353 1.362 . S
C1354 C1357 1.409 . S
C1355 H1347 0.930 . S
C1355 C1356 1.355 . S
C1355 C1357 1.415 . S
C1356 C1355 1.355 . S
C1356 C1358 1.419 . S
C1357 C1352 1.425 . S
C1357 C1354 1.409 . S
C1357 C1355 1.415 . S
C1358 H1348 0.930 . S
C1358 C1356 1.419 . S
C1358 C1359 1.362 . S
C1359 H1349 0.930 . S
C1359 C1352 1.409 . S
C1359 C1358 1.362 . S
H1360 C1366 0.930 . S
H1361 C1369 0.930 . S
H1362 C1370 0.930 . S
H1363 C1371 0.930 . S
H1364 C1374 0.930 . S
H1365 C1375 0.930 . S
C1366 H1360 0.930 . S
C1366 C1367 1.355 . S
C1366 C1368 1.415 . S
C1367 C1366 1.355 . S
C1367 C1369 1.419 . S
C1368 C1366 1.415 . S
C1368 C1373 1.425 . S
C1368 C1375 1.409 . S
C1369 H1361 0.930 . S
C1369 C1367 1.419 . S
C1369 C1370 1.362 . S
C1370 H1362 0.930 . S
C1370 C1369 1.362 . S
C1370 C1373 1.409 . S
C1371 H1363 0.930 . S
C1371 C1372 1.355 . S
C1371 C1373 1.415 . S
C1372 C1371 1.355 . S
C1372 C1374 1.419 . S
C1373 C1368 1.425 . S
C1373 C1370 1.409 . S
C1373 C1371 1.415 . S
C1374 H1364 0.930 . S
C1374 C1372 1.419 . S
C1374 C1375 1.362 . S
C1375 H1365 0.930 . S
C1375 C1368 1.409 . S
C1375 C1374 1.362 . S
H1376 C1382 0.930 . S
H1377 C1385 0.930 . S
H1378 C1386 0.930 . S
H1379 C1387 0.930 . S
H1380 C1390 0.930 . S
H1381 C1391 0.930 . S
C1382 H1376 0.930 . S
C1382 C1383 1.355 . S
C1382 C1384 1.415 . S
C1383 C1382 1.355 . S
C1383 C1385 1.419 . S
C1384 C1382 1.415 . S
C1384 C1389 1.425 . S
C1384 C1391 1.409 1_556 S
C1385 H1377 0.930 . S
C1385 C1383 1.419 . S
C1385 C1386 1.362 . S
C1386 H1378 0.930 . S
C1386 C1385 1.362 . S
C1386 C1389 1.409 . S
C1387 H1379 0.930 . S
C1387 C1388 1.355 . S
C1387 C1389 1.415 1_554 S
C1388 C1387 1.355 . S
C1388 C1390 1.419 . S
C1389 C1384 1.425 . S
C1389 C1386 1.409 . S
C1389 C1387 1.415 1_556 S
C1390 H1380 0.930 . S
C1390 C1388 1.419 . S
C1390 C1391 1.362 . S
C1391 H1381 0.930 . S
C1391 C1384 1.409 1_554 S
C1391 C1390 1.362 . S
H1392 C1398 0.930 . S
H1393 C1401 0.930 . S
H1394 C1402 0.930 . S
H1395 C1403 0.930 . S
H1396 C1406 0.930 . S
H1397 C1407 0.930 . S
C1398 H1392 0.930 . S
C1398 C1399 1.355 . S
C1398 C1400 1.415 . S
C1399 C1398 1.355 . S
C1399 C1401 1.419 . S
C1400 C1398 1.415 . S
C1400 C1405 1.425 . S
C1400 C1407 1.409 . S
C1401 H1393 0.930 . S
C1401 C1399 1.419 . S
C1401 C1402 1.362 . S
C1402 H1394 0.930 . S
C1402 C1401 1.362 . S
C1402 C1405 1.409 . S
C1403 H1395 0.930 . S
C1403 C1404 1.355 . S
C1403 C1405 1.415 . S
C1404 C1403 1.355 . S
C1404 C1406 1.419 . S
C1405 C1400 1.425 . S
C1405 C1402 1.409 . S
C1405 C1403 1.415 . S
C1406 H1396 0.930 . S
C1406 C1404 1.419 . S
C1406 C1407 1.362 . S
C1407 H1397 0.930 . S
C1407 C1400 1.409 . S
C1407 C1406 1.362 . S
H1408 C1414 0.930 . S
H1409 C1417 0.930 . S
H1410 C1418 0.930 . S
H1411 C1419 0.930 . S
H1412 C1422 0.930 . S
H1413 C1423 0.930 . S
C1414 H1408 0.930 . S
C1414 C1415 1.355 . S
C1414 C1416 1.415 . S
C1415 C1414 1.355 . S
C1415 C1417 1.419 . S
C1416 C1414 1.415 . S
C1416 C1421 1.425 . S
C1416 C1423 1.409 . S
C1417 H1409 0.930 . S
C1417 C1415 1.419 . S
C1417 C1418 1.362 . S
C1418 H1410 0.930 . S
C1418 C1417 1.362 . S
C1418 C1421 1.409 . S
C1419 H1411 0.930 . S
C1419 C1420 1.355 . S
C1419 C1421 1.415 . S
C1420 C1419 1.355 . S
C1420 C1422 1.419 . S
C1421 C1416 1.425 . S
C1421 C1418 1.409 . S
C1421 C1419 1.415 . S
C1422 H1412 0.930 . S
C1422 C1420 1.419 . S
C1422 C1423 1.362 . S
C1423 H1413 0.930 . S
C1423 C1416 1.409 . S
C1423 C1422 1.362 . S
H1424 C1430 0.930 . S
H1425 C1433 0.930 . S
H1426 C1434 0.930 . S
H1427 C1435 0.930 . S
H1428 C1438 0.930 . S
H1429 C1439 0.930 . S
C1430 H1424 0.930 . S
C1430 C1431 1.355 . S
C1430 C1432 1.415 . S
C1431 C1430 1.355 . S
C1431 C1433 1.419 . S
C1432 C1430 1.415 . S
C1432 C1437 1.425 . S
C1432 C1439 1.409 . S
C1433 H1425 0.930 . S
C1433 C1431 1.419 . S
C1433 C1434 1.362 . S
C1434 H1426 0.930 . S
C1434 C1433 1.362 . S
C1434 C1437 1.409 . S
C1435 H1427 0.930 . S
C1435 C1436 1.355 . S
C1435 C1437 1.415 . S
C1436 C1435 1.355 . S
C1436 C1438 1.419 . S
C1437 C1432 1.425 . S
C1437 C1434 1.409 . S
C1437 C1435 1.415 . S
C1438 H1428 0.930 . S
C1438 C1436 1.419 . S
C1438 C1439 1.362 . S
C1439 H1429 0.930 . S
C1439 C1432 1.409 . S
C1439 C1438 1.362 . S
H1440 C1446 0.930 . S
H1441 C1449 0.930 . S
H1442 C1450 0.930 . S
H1443 C1451 0.930 . S
H1444 C1454 0.930 . S
H1445 C1455 0.930 . S
C1446 H1440 0.930 . S
C1446 C1447 1.355 . S
C1446 C1448 1.415 1_556 S
C1447 C1446 1.355 . S
C1447 C1449 1.419 . S
C1448 C1446 1.415 1_554 S
C1448 C1453 1.425 . S
C1448 C1455 1.409 . S
C1449 H1441 0.930 . S
C1449 C1447 1.419 . S
C1449 C1450 1.362 . S
C1450 H1442 0.930 . S
C1450 C1449 1.362 . S
C1450 C1453 1.409 1_556 S
C1451 H1443 0.930 . S
C1451 C1452 1.355 . S
C1451 C1453 1.415 . S
C1452 C1451 1.355 . S
C1452 C1454 1.419 . S
C1453 C1448 1.425 . S
C1453 C1450 1.409 1_554 S
C1453 C1451 1.415 . S
C1454 H1444 0.930 . S
C1454 C1452 1.419 . S
C1454 C1455 1.362 . S
C1455 H1445 0.930 . S
C1455 C1448 1.409 . S
C1455 C1454 1.362 . S
H1456 C1462 0.930 . S
H1457 C1465 0.930 . S
H1458 C1466 0.930 . S
H1459 C1467 0.930 . S
H1460 C1470 0.930 . S
H1461 C1471 0.930 . S
C1462 H1456 0.930 . S
C1462 C1463 1.355 . S
C1462 C1464 1.415 . S
C1463 C1462 1.355 . S
C1463 C1465 1.419 . S
C1464 C1462 1.415 . S
C1464 C1469 1.425 . S
C1464 C1471 1.409 . S
C1465 H1457 0.930 . S
C1465 C1463 1.419 . S
C1465 C1466 1.362 . S
C1466 H1458 0.930 . S
C1466 C1465 1.362 . S
C1466 C1469 1.409 . S
C1467 H1459 0.930 . S
C1467 C1468 1.355 . S
C1467 C1469 1.415 . S
C1468 C1467 1.355 . S
C1468 C1470 1.419 . S
C1469 C1464 1.425 . S
C1469 C1466 1.409 . S
C1469 C1467 1.415 . S
C1470 H1460 0.930 . S
C1470 C1468 1.419 . S
C1470 C1471 1.362 . S
C1471 H1461 0.930 . S
C1471 C1464 1.409 . S
C1471 C1470 1.362 . S
H1472 C1478 0.930 . S
H1473 C1481 0.930 . S
H1474 C1482 0.930 . S
H1475 C1483 0.930 . S
H1476 C1486 0.930 . S
H1477 C1487 0.930 . S
C1478 H1472 0.930 . S
C1478 C1479 1.355 . S
C1478 C1480 1.415 . S
C1479 C1478 1.355 . S
C1479 C1481 1.419 . S
C1480 C1478 1.415 . S
C1480 C1485 1.425 . S
C1480 C1487 1.409 . S
C1481 H1473 0.930 . S
C1481 C1479 1.419 . S
C1481 C1482 1.362 . S
C1482 H1474 0.930 . S
C1482 C1481 1.362 . S
C1482 C1485 1.409 . S
C1483 H1475 0.930 . S
C1483 C1484 1.355 . S
C1483 C1485 1.415 . S
C1484 C1483 1.355 . S
C1484 C1486 1.419 . S
C1485 C1480 1.425 . S
C1485 C1482 1.409 . S
C1485 C1483 1.415 . S
C1486 H1476 0.930 . S
C1486 C1484 1.419 . S
C1486 C1487 1.362 . S
C1487 H1477 0.930 . S
C1487 C1480 1.409 . S
C1487 C1486 1.362 . S
H1488 C1494 0.930 . S
H1489 C1497 0.930 . S
H1490 C1498 0.930 . S
H1491 C1499 0.930 . S
H1492 C1502 0.930 . S
H1493 C1503 0.930 . S
C1494 H1488 0.930 . S
C1494 C1495 1.355 . S
C1494 C1496 1.415 . S
C1495 C1494 1.355 . S
C1495 C1497 1.419 . S
C1496 C1494 1.415 . S
C1496 C1501 1.425 . S
C1496 C1503 1.409 . S
C1497 H1489 0.930 . S
C1497 C1495 1.419 . S
C1497 C1498 1.362 . S
C1498 H1490 0.930 . S
C1498 C1497 1.362 . S
C1498 C1501 1.409 . S
C1499 H1491 0.930 . S
C1499 C1500 1.355 . S
C1499 C1501 1.415 . S
C1500 C1499 1.355 . S
C1500 C1502 1.419 . S
C1501 C1496 1.425 . S
C1501 C1498 1.409 . S
C1501 C1499 1.415 . S
C1502 H1492 0.930 . S
C1502 C1500 1.419 . S
C1502 C1503 1.362 . S
C1503 H1493 0.930 . S
C1503 C1496 1.409 . S
C1503 C1502 1.362 . S
H1504 C1510 0.930 . S
H1505 C1513 0.930 . S
H1506 C1514 0.930 . S
H1507 C1515 0.930 . S
H1508 C1518 0.930 . S
H1509 C1519 0.930 . S
C1510 H1504 0.930 . S
C1510 C1511 1.355 . S
C1510 C1512 1.415 . S
C1511 C1510 1.355 . S
C1511 C1513 1.419 . S
C1512 C1510 1.415 . S
C1512 C1517 1.425 . S
C1512 C1519 1.409 1_554 S
C1513 H1505 0.930 . S
C1513 C1511 1.419 . S
C1513 C1514 1.362 . S
C1514 H1506 0.930 . S
C1514 C1513 1.362 . S
C1514 C1517 1.409 . S
C1515 H1507 0.930 . S
C1515 C1516 1.355 . S
C1515 C1517 1.415 1_556 S
C1516 C1515 1.355 . S
C1516 C1518 1.419 . S
C1517 C1512 1.425 . S
C1517 C1514 1.409 . S
C1517 C1515 1.415 1_554 S
C1518 H1508 0.930 . S
C1518 C1516 1.419 . S
C1518 C1519 1.362 . S
C1519 H1509 0.930 . S
C1519 C1512 1.409 1_556 S
C1519 C1518 1.362 . S
H1520 C1526 0.930 . S
H1521 C1529 0.930 . S
H1522 C1530 0.930 . S
H1523 C1531 0.930 . S
H1524 C1534 0.930 . S
H1525 C1535 0.930 . S
C1526 H1520 0.930 . S
C1526 C1527 1.355 . S
C1526 C1528 1.415 . S
C1527 C1526 1.355 . S
C1527 C1529 1.419 . S
C1528 C1526 1.415 . S
C1528 C1533 1.425 . S
C1528 C1535 1.409 . S
C1529 H1521 0.930 . S
C1529 C1527 1.419 . S
C1529 C1530 1.362 . S
C1530 H1522 0.930 . S
C1530 C1529 1.362 . S
C1530 C1533 1.409 . S
C1531 H1523 0.930 . S
C1531 C1532 1.355 . S
C1531 C1533 1.415 . S
C1532 C1531 1.355 . S
C1532 C1534 1.419 . S
C1533 C1528 1.425 . S
C1533 C1530 1.409 . S
C1533 C1531 1.415 . S
C1534 H1524 0.930 . S
C1534 C1532 1.419 . S
C1534 C1535 1.362 . S
C1535 H1525 0.930 . S
C1535 C1528 1.409 . S
C1535 C1534 1.362 . S
H1536 C1542 0.930 . S
H1537 C1545 0.930 . S
H1538 C1546 0.930 . S
H1539 C1547 0.930 . S
H1540 C1550 0.930 . S
H1541 C1551 0.930 . S
C1542 H1536 0.930 . S
C1542 C1543 1.355 . S
C1542 C1544 1.415 . S
C1543 C1542 1.355 . S
C1543 C1545 1.419 . S
C1544 C1542 1.415 . S
C1544 C1549 1.425 . S
C1544 C1551 1.409 . S
C1545 H1537 0.930 . S
C1545 C1543 1.419 . S
C1545 C1546 1.362 . S
C1546 H1538 0.930 . S
C1546 C1545 1.362 . S
C1546 C1549 1.409 . S
C1547 H1539 0.930 . S
C1547 C1548 1.355 . S
C1547 C1549 1.415 . S
C1548 C1547 1.355 . S
C1548 C1550 1.419 . S
C1549 C1544 1.425 . S
C1549 C1546 1.409 . S
C1549 C1547 1.415 . S
C1550 H1540 0.930 . S
C1550 C1548 1.419 . S
C1550 C1551 1.362 . S
C1551 H1541 0.930 . S
C1551 C1544 1.409 . S
C1551 C1550 1.362 . S
H1552 C1558 0.930 . S
H1553 C1561 0.930 . S
H1554 C1562 0.930 . S
H1555 C1563 0.930 . S
H1556 C1566 0.930 . S
H1557 C1567 0.930 . S
C1558 H1552 0.930 . S
C1558 C1559 1.355 . S
C1558 C1560 1.415 . S
C1559 C1558 1.355 . S
C1559 C1561 1.419 . S
C1560 C1558 1.415 . S
C1560 C1565 1.425 . S
C1560 C1567 1.409 . S
C1561 H1553 0.930 . S
C1561 C1559 1.419 . S
C1561 C1562 1.362 . S
C1562 H1554 0.930 . S
C1562 C1561 1.362 . S
C1562 C1565 1.409 . S
C1563 H1555 0.930 . S
C1563 C1564 1.355 . S
C1563 C1565 1.415 . S
C1564 C1563 1.355 . S
C1564 C1566 1.419 . S
C1565 C1560 1.425 . S
C1565 C1562 1.409 . S
C1565 C1563 1.415 . S
C1566 H1556 0.930 . S
C1566 C1564 1.419 . S
C1566 C1567 1.362 . S
C1567 H1557 0.930 . S
C1567 C1560 1.409 . S
C1567 C1566 1.362 . S
H1568 C1574 0.930 . S
H1569 C1577 0.930 . S
H1570 C1578 0.930 . S
H1571 C1579 0.930 . S
H1572 C1582 0.930 . S
H1573 C1583 0.930 . S
C1574 H1568 0.930 . S
C1574 C1575 1.355 . S
C1574 C1576 1.415 . S
C1575 C1574 1.355 . S
C1575 C1577 1.419 . S
C1576 C1574 1.415 . S
C1576 C1581 1.425 . S
C1576 C1583 1.409 1_556 S
C1577 H1569 0.930 . S
C1577 C1575 1.419 . S
C1577 C1578 1.362 . S
C1578 H1570 0.930 . S
C1578 C1577 1.362 . S
C1578 C1581 1.409 . S
C1579 H1571 0.930 . S
C1579 C1580 1.355 . S
C1579 C1581 1.415 1_554 S
C1580 C1579 1.355 . S
C1580 C1582 1.419 . S
C1581 C1576 1.425 . S
C1581 C1578 1.409 . S
C1581 C1579 1.415 1_556 S
C1582 H1572 0.930 . S
C1582 C1580 1.419 . S
C1582 C1583 1.362 . S
C1583 H1573 0.930 . S
C1583 C1576 1.409 1_554 S
C1583 C1582 1.362 . S
H1584 C1590 0.930 . S
H1585 C1593 0.930 . S
H1586 C1594 0.930 . S
H1587 C1595 0.930 . S
H1588 C1598 0.930 . S
H1589 C1599 0.930 . S
C1590 H1584 0.930 . S
C1590 C1591 1.355 . S
C1590 C1592 1.415 . S
C1591 C1590 1.355 . S
C1591 C1593 1.419 . S
C1592 C1590 1.415 . S
C1592 C1597 1.425 . S
C1592 C1599 1.409 . S
C1593 H1585 0.930 . S
C1593 C1591 1.419 . S
C1593 C1594 1.362 . S
C1594 H1586 0.930 . S
C1594 C1593 1.362 . S
C1594 C1597 1.409 . S
C1595 H1587 0.930 . S
C1595 C1596 1.355 . S
C1595 C1597 1.415 . S
C1596 C1595 1.355 . S
C1596 C1598 1.419 . S
C1597 C1592 1.425 . S
C1597 C1594 1.409 . S
C1597 C1595 1.415 . S
C1598 H1588 0.930 . S
C1598 C1596 1.419 . S
C1598 C1599 1.362 . S
C1599 H1589 0.930 . S
C1599 C1592 1.409 . S
C1599 C1598 1.362 . S
H1600 C1606 0.930 . S
H1601 C1609 0.930 . S
H1602 C1610 0.930 . S
H1603 C1611 0.930 . S
H1604 C1614 0.930 . S
H1605 C1615 0.930 1_554 S
C1606 H1600 0.930 . S
C1606 C1607 1.355 . S
C1606 C1608 1.415 . S
C1607 C1606 1.355 . S
C1607 C1609 1.419 . S
C1608 C1606 1.415 . S
C1608 C1613 1.425 1_554 S
C1608 C1615 1.409 1_554 S
C1609 H1601 0.930 . S
C1609 C1607 1.419 . S
C1609 C1610 1.362 1_554 S
C1610 H1602 0.930 . S
C1610 C1609 1.362 1_556 S
C1610 C1613 1.409 . S
C1611 H1603 0.930 . S
C1611 C1612 1.355 . S
C1611 C1613 1.415 . S
C1612 C1611 1.355 . S
C1612 C1614 1.419 . S
C1613 C1608 1.425 1_556 S
C1613 C1610 1.409 . S
C1613 C1611 1.415 . S
C1614 H1604 0.930 . S
C1614 C1612 1.419 . S
C1614 C1615 1.362 . S
C1615 H1605 0.930 1_556 S
C1615 C1608 1.409 1_556 S
C1615 C1614 1.362 . S
H1616 C1622 0.930 . S
H1617 C1625 0.930 . S
H1618 C1626 0.930 . S
H1619 C1627 0.930 . S
H1620 C1630 0.930 . S
H1621 C1631 0.930 . S
C1622 H1616 0.930 . S
C1622 C1623 1.355 . S
C1622 C1624 1.415 . S
C1623 C1622 1.355 . S
C1623 C1625 1.419 . S
C1624 C1622 1.415 . S
C1624 C1629 1.425 . S
C1624 C1631 1.409 . S
C1625 H1617 0.930 . S
C1625 C1623 1.419 . S
C1625 C1626 1.362 . S
C1626 H1618 0.930 . S
C1626 C1625 1.362 . S
C1626 C1629 1.409 . S
C1627 H1619 0.930 . S
C1627 C1628 1.355 . S
C1627 C1629 1.415 . S
C1628 C1627 1.355 . S
C1628 C1630 1.419 . S
C1629 C1624 1.425 . S
C1629 C1626 1.409 . S
C1629 C1627 1.415 . S
C1630 H1620 0.930 . S
C1630 C1628 1.419 . S
C1630 C1631 1.362 . S
C1631 H1621 0.930 . S
C1631 C1624 1.409 . S
C1631 C1630 1.362 . S
H1632 C1638 0.930 . S
H1633 C1641 0.930 . S
H1634 C1642 0.930 . S
H1635 C1643 0.930 . S
H1636 C1646 0.930 . S
H1637 C1647 0.930 . S
C1638 H1632 0.930 . S
C1638 C1639 1.355 . S
C1638 C1640 1.415 . S
C1639 C1638 1.355 . S
C1639 C1641 1.419 . S
C1640 C1638 1.415 . S
C1640 C1645 1.425 . S
C1640 C1647 1.409 . S
C1641 H1633 0.930 . S
C1641 C1639 1.419 . S
C1641 C1642 1.362 . S
C1642 H1634 0.930 . S
C1642 C1641 1.362 . S
C1642 C1645 1.409 . S
C1643 H1635 0.930 . S
C1643 C1644 1.355 . S
C1643 C1645 1.415 . S
C1644 C1643 1.355 . S
C1644 C1646 1.419 . S
C1645 C1640 1.425 . S
C1645 C1642 1.409 . S
C1645 C1643 1.415 . S
C1646 H1636 0.930 . S
C1646 C1644 1.419 . S
C1646 C1647 1.362 . S
C1647 H1637 0.930 . S
C1647 C1640 1.409 . S
C1647 C1646 1.362 . S
H1648 C1654 0.930 . S
H1649 C1657 0.930 . S
H1650 C1658 0.930 . S
H1651 C1659 0.930 . S
H1652 C1662 0.930 . S
H1653 C1663 0.930 . S
C1654 H1648 0.930 . S
C1654 C1655 1.355 . S
C1654 C1656 1.415 . S
C1655 C1654 1.355 . S
C1655 C1657 1.419 . S
C1656 C1654 1.415 . S
C1656 C1661 1.425 . S
C1656 C1663 1.409 . S
C1657 H1649 0.930 . S
C1657 C1655 1.419 . S
C1657 C1658 1.362 . S
C1658 H1650 0.930 . S
C1658 C1657 1.362 . S
C1658 C1661 1.409 . S
C1659 H1651 0.930 . S
C1659 C1660 1.355 . S
C1659 C1661 1.415 . S
C1660 C1659 1.355 . S
C1660 C1662 1.419 . S
C1661 C1656 1.425 . S
C1661 C1658 1.409 . S
C1661 C1659 1.415 . S
C1662 H1652 0.930 . S
C1662 C1660 1.419 . S
C1662 C1663 1.362 . S
C1663 H1653 0.930 . S
C1663 C1656 1.409 . S
C1663 C1662 1.362 . S
H1664 C1670 0.930 . S
H1665 C1673 0.930 . S
H1666 C1674 0.930 . S
H1667 C1675 0.930 . S
H1668 C1678 0.930 . S
H1669 C1679 0.930 . S
C1670 H1664 0.930 . S
C1670 C1671 1.355 . S
C1670 C1672 1.415 1_556 S
C1671 C1670 1.355 . S
C1671 C1673 1.419 . S
C1672 C1670 1.415 1_554 S
C1672 C1677 1.425 . S
C1672 C1679 1.409 . S
C1673 H1665 0.930 . S
C1673 C1671 1.419 . S
C1673 C1674 1.362 . S
C1674 H1666 0.930 . S
C1674 C1673 1.362 . S
C1674 C1677 1.409 1_556 S
C1675 H1667 0.930 . S
C1675 C1676 1.355 . S
C1675 C1677 1.415 . S
C1676 C1675 1.355 . S
C1676 C1678 1.419 . S
C1677 C1672 1.425 . S
C1677 C1674 1.409 1_554 S
C1677 C1675 1.415 . S
C1678 H1668 0.930 . S
C1678 C1676 1.419 . S
C1678 C1679 1.362 . S
C1679 H1669 0.930 . S
C1679 C1672 1.409 . S
C1679 C1678 1.362 . S
H1680 C1686 0.930 . S
H1681 C1689 0.930 . S
H1682 C1690 0.930 . S
H1683 C1691 0.930 . S
H1684 C1694 0.930 . S
H1685 C1695 0.930 . S
C1686 H1680 0.930 . S
C1686 C1687 1.355 . S
C1686 C1688 1.415 . S
C1687 C1686 1.355 . S
C1687 C1689 1.419 . S
C1688 C1686 1.415 . S
C1688 C1693 1.425 . S
C1688 C1695 1.409 . S
C1689 H1681 0.930 . S
C1689 C1687 1.419 . S
C1689 C1690 1.362 . S
C1690 H1682 0.930 . S
C1690 C1689 1.362 . S
C1690 C1693 1.409 . S
C1691 H1683 0.930 . S
C1691 C1692 1.355 . S
C1691 C1693 1.415 . S
C1692 C1691 1.355 . S
C1692 C1694 1.419 . S
C1693 C1688 1.425 . S
C1693 C1690 1.409 . S
C1693 C1691 1.415 . S
C1694 H1684 0.930 . S
C1694 C1692 1.419 . S
C1694 C1695 1.362 . S
C1695 H1685 0.930 . S
C1695 C1688 1.409 . S
C1695 C1694 1.362 . S
H1696 C1702 0.930 . S
H1697 C1705 0.930 . S
H1698 C1706 0.930 . S
H1699 C1707 0.930 . S
H1700 C1710 0.930 . S
H1701 C1711 0.930 . S
C1702 H1696 0.930 . S
C1702 C1703 1.355 . S
C1702 C1704 1.415 . S
C1703 C1702 1.355 . S
C1703 C1705 1.419 . S
C1704 C1702 1.415 . S
C1704 C1709 1.425 . S
C1704 C1711 1.409 . S
C1705 H1697 0.930 . S
C1705 C1703 1.419 . S
C1705 C1706 1.362 . S
C1706 H1698 0.930 . S
C1706 C1705 1.362 . S
C1706 C1709 1.409 . S
C1707 H1699 0.930 . S
C1707 C1708 1.355 . S
C1707 C1709 1.415 . S
C1708 C1707 1.355 . S
C1708 C1710 1.419 . S
C1709 C1704 1.425 . S
C1709 C1706 1.409 . S
C1709 C1707 1.415 . S
C1710 H1700 0.930 . S
C1710 C1708 1.419 . S
C1710 C1711 1.362 . S
C1711 H1701 0.930 . S
C1711 C1704 1.409 . S
C1711 C1710 1.362 . S
H1712 C1718 0.930 . S
H1713 C1721 0.930 . S
H1714 C1722 0.930 . S
H1715 C1723 0.930 . S
H1716 C1726 0.930 . S
H1717 C1727 0.930 . S
C1718 H1712 0.930 . S
C1718 C1719 1.355 . S
C1718 C1720 1.415 . S
C1719 C1718 1.355 . S
C1719 C1721 1.419 . S
C1720 C1718 1.415 . S
C1720 C1725 1.425 . S
C1720 C1727 1.409 . S
C1721 H1713 0.930 . S
C1721 C1719 1.419 . S
C1721 C1722 1.362 . S
C1722 H1714 0.930 . S
C1722 C1721 1.362 . S
C1722 C1725 1.409 . S
C1723 H1715 0.930 . S
C1723 C1724 1.355 . S
C1723 C1725 1.415 . S
C1724 C1723 1.355 . S
C1724 C1726 1.419 . S
C1725 C1720 1.425 . S
C1725 C1722 1.409 . S
C1725 C1723 1.415 . S
C1726 H1716 0.930 . S
C1726 C1724 1.419 . S
C1726 C1727 1.362 . S
C1727 H1717 0.930 . S
C1727 C1720 1.409 . S
C1727 C1726 1.362 . S
H1728 C1734 0.930 . S
H1729 C1737 0.930 . S
H1730 C1738 0.930 . S
H1731 C1739 0.930 . S
H1732 C1742 0.930 . S
H1733 C1743 0.930 1_556 S
C1734 H1728 0.930 . S
C1734 C1735 1.355 . S
C1734 C1736 1.415 . S
C1735 C1734 1.355 . S
C1735 C1737 1.419 . S
C1736 C1734 1.415 . S
C1736 C1741 1.425 1_556 S
C1736 C1743 1.409 1_556 S
C1737 H1729 0.930 . S
C1737 C1735 1.419 . S
C1737 C1738 1.362 1_556 S
C1738 H1730 0.930 . S
C1738 C1737 1.362 1_554 S
C1738 C1741 1.409 . S
C1739 H1731 0.930 . S
C1739 C1740 1.355 . S
C1739 C1741 1.415 . S
C1740 C1739 1.355 . S
C1740 C1742 1.419 . S
C1741 C1736 1.425 1_554 S
C1741 C1738 1.409 . S
C1741 C1739 1.415 . S
C1742 H1732 0.930 . S
C1742 C1740 1.419 . S
C1742 C1743 1.362 . S
C1743 H1733 0.930 1_554 S
C1743 C1736 1.409 1_554 S
C1743 C1742 1.362 . S
H1744 C1750 0.930 . S
H1745 C1753 0.930 . S
H1746 C1754 0.930 . S
H1747 C1755 0.930 . S
H1748 C1758 0.930 . S
H1749 C1759 0.930 . S
C1750 H1744 0.930 . S
C1750 C1751 1.355 . S
C1750 C1752 1.415 . S
C1751 C1750 1.355 . S
C1751 C1753 1.419 . S
C1752 C1750 1.415 . S
C1752 C1757 1.425 . S
C1752 C1759 1.409 . S
C1753 H1745 0.930 . S
C1753 C1751 1.419 . S
C1753 C1754 1.362 . S
C1754 H1746 0.930 . S
C1754 C1753 1.362 . S
C1754 C1757 1.409 . S
C1755 H1747 0.930 . S
C1755 C1756 1.355 . S
C1755 C1757 1.415 . S
C1756 C1755 1.355 . S
C1756 C1758 1.419 . S
C1757 C1752 1.425 . S
C1757 C1754 1.409 . S
C1757 C1755 1.415 . S
C1758 H1748 0.930 . S
C1758 C1756 1.419 . S
C1758 C1759 1.362 . S
C1759 H1749 0.930 . S
C1759 C1752 1.409 . S
C1759 C1758 1.362 . S
H1760 C1766 0.930 . S
H1761 C1769 0.930 . S
H1762 C1770 0.930 . S
H1763 C1771 0.930 . S
H1764 C1774 0.930 . S
H1765 C1775 0.930 . S
C1766 H1760 0.930 . S
C1766 C1767 1.355 . S
C1766 C1768 1.415 . S
C1767 C1766 1.355 . S
C1767 C1769 1.419 . S
C1768 C1766 1.415 . S
C1768 C1773 1.425 . S
C1768 C1775 1.409 . S
C1769 H1761 0.930 . S
C1769 C1767 1.419 . S
C1769 C1770 1.362 . S
C1770 H1762 0.930 . S
C1770 C1769 1.362 . S
C1770 C1773 1.409 . S
C1771 H1763 0.930 . S
C1771 C1772 1.355 . S
C1771 C1773 1.415 . S
C1772 C1771 1.355 . S
C1772 C1774 1.419 . S
C1773 C1768 1.425 . S
C1773 C1770 1.409 . S
C1773 C1771 1.415 . S
C1774 H1764 0.930 . S
C1774 C1772 1.419 . S
C1774 C1775 1.362 . S
C1775 H1765 0.930 . S
C1775 C1768 1.409 . S
C1775 C1774 1.362 . S
H1776 C1782 0.930 . S
H1777 C1785 0.930 . S
H1778 C1786 0.930 . S
H1779 C1787 0.930 . S
H1780 C1790 0.930 . S
H1781 C1791 0.930 . S
C1782 H1776 0.930 . S
C1782 C1783 1.355 . S
C1782 C1784 1.415 . S
C1783 C1782 1.355 . S
C1783 C1785 1.419 . S
C1784 C1782 1.415 . S
C1784 C1789 1.425 . S
C1784 C1791 1.409 . S
C1785 H1777 0.930 . S
C1785 C1783 1.419 . S
C1785 C1786 1.362 . S
C1786 H1778 0.930 . S
C1786 C1785 1.362 . S
C1786 C1789 1.409 . S
C1787 H1779 0.930 . S
C1787 C1788 1.355 . S
C1787 C1789 1.415 . S
C1788 C1787 1.355 . S
C1788 C1790 1.419 . S
C1789 C1784 1.425 . S
C1789 C1786 1.409 . S
C1789 C1787 1.415 . S
C1790 H1780 0.930 . S
C1790 C1788 1.419 . S
C1790 C1791 1.362 . S
C1791 H1781 0.930 . S
C1791 C1784 1.409 . S
C1791 C1790 1.362 . S
H1792 C1798 0.930 . S
H1793 C1801 0.930 . S
H1794 C1802 0.930 . S
H1795 C1803 0.930 . S
H1796 C1806 0.930 . S
H1797 C1807 0.930 . S
C1798 H1792 0.930 . S
C1798 C1799 1.355 . S
C1798 C1800 1.415 1_554 S
C1799 C1798 1.355 . S
C1799 C1801 1.419 . S
C1800 C1798 1.415 1_556 S
C1800 C1805 1.425 . S
C1800 C1807 1.409 . S
C1801 H1793 0.930 . S
C1801 C1799 1.419 . S
C1801 C1802 1.362 . S
C1802 H1794 0.930 . S
C1802 C1801 1.362 . S
C1802 C1805 1.409 1_554 S
C1803 H1795 0.930 . S
C1803 C1804 1.355 . S
C1803 C1805 1.415 . S
C1804 C1803 1.355 . S
C1804 C1806 1.419 . S
C1805 C1800 1.425 . S
C1805 C1802 1.409 1_556 S
C1805 C1803 1.415 . S
C1806 H1796 0.930 . S
C1806 C1804 1.419 . S
C1806 C1807 1.362 . S
C1807 H1797 0.930 . S
C1807 C1800 1.409 . S
C1807 C1806 1.362 . S
H1808 C1814 0.930 . S
H1809 C1817 0.930 . S
H1810 C1818 0.930 . S
H1811 C1819 0.930 . S
H1812 C1822 0.930 . S
H1813 C1823 0.930 . S
C1814 H1808 0.930 . S
C1814 C1815 1.355 . S
C1814 C1816 1.415 . S
C1815 C1814 1.355 . S
C1815 C1817 1.419 . S
C1816 C1814 1.415 . S
C1816 C1821 1.425 . S
C1816 C1823 1.409 . S
C1817 H1809 0.930 . S
C1817 C1815 1.419 . S
C1817 C1818 1.362 . S
C1818 H1810 0.930 . S
C1818 C1817 1.362 . S
C1818 C1821 1.409 . S
C1819 H1811 0.930 . S
C1819 C1820 1.355 . S
C1819 C1821 1.415 . S
C1820 C1819 1.355 . S
C1820 C1822 1.419 . S
C1821 C1816 1.425 . S
C1821 C1818 1.409 . S
C1821 C1819 1.415 . S
C1822 H1812 0.930 . S
C1822 C1820 1.419 . S
C1822 C1823 1.362 . S
C1823 H1813 0.930 . S
C1823 C1816 1.409 . S
C1823 C1822 1.362 . S
H1824 C1830 0.930 . S
H1825 C1833 0.930 . S
H1826 C1834 0.930 . S
H1827 C1835 0.930 . S
H1828 C1838 0.930 . S
H1829 C1839 0.930 . S
C1830 H1824 0.930 . S
C1830 C1831 1.355 . S
C1830 C1832 1.415 . S
C1831 C1830 1.355 . S
C1831 C1833 1.419 . S
C1832 C1830 1.415 . S
C1832 C1837 1.425 . S
C1832 C1839 1.409 . S
C1833 H1825 0.930 . S
C1833 C1831 1.419 . S
C1833 C1834 1.362 . S
C1834 H1826 0.930 . S
C1834 C1833 1.362 . S
C1834 C1837 1.409 . S
C1835 H1827 0.930 . S
C1835 C1836 1.355 . S
C1835 C1837 1.415 . S
C1836 C1835 1.355 . S
C1836 C1838 1.419 . S
C1837 C1832 1.425 . S
C1837 C1834 1.409 . S
C1837 C1835 1.415 . S
C1838 H1828 0.930 . S
C1838 C1836 1.419 . S
C1838 C1839 1.362 . S
C1839 H1829 0.930 . S
C1839 C1832 1.409 . S
C1839 C1838 1.362 . S
H1840 C1846 0.930 . S
H1841 C1849 0.930 . S
H1842 C1850 0.930 . S
H1843 C1851 0.930 . S
H1844 C1854 0.930 . S
H1845 C1855 0.930 . S
C1846 H1840 0.930 . S
C1846 C1847 1.355 . S
C1846 C1848 1.415 . S
C1847 C1846 1.355 . S
C1847 C1849 1.419 . S
C1848 C1846 1.415 . S
C1848 C1853 1.425 . S
C1848 C1855 1.409 . S
C1849 H1841 0.930 . S
C1849 C1847 1.419 . S
C1849 C1850 1.362 . S
C1850 H1842 0.930 . S
C1850 C1849 1.362 . S
C1850 C1853 1.409 . S
C1851 H1843 0.930 . S
C1851 C1852 1.355 . S
C1851 C1853 1.415 . S
C1852 C1851 1.355 . S
C1852 C1854 1.419 . S
C1853 C1848 1.425 . S
C1853 C1850 1.409 . S
C1853 C1851 1.415 . S
C1854 H1844 0.930 . S
C1854 C1852 1.419 . S
C1854 C1855 1.362 . S
C1855 H1845 0.930 . S
C1855 C1848 1.409 . S
C1855 C1854 1.362 . S
H1856 C1862 0.930 . S
H1857 C1865 0.930 . S
H1858 C1866 0.930 . S
H1859 C1867 0.930 . S
H1860 C1870 0.930 . S
H1861 C1871 0.930 . S
C1862 H1856 0.930 . S
C1862 C1863 1.355 . S
C1862 C1864 1.415 . S
C1863 C1862 1.355 . S
C1863 C1865 1.419 . S
C1864 C1862 1.415 . S
C1864 C1869 1.425 . S
C1864 C1871 1.409 . S
C1865 H1857 0.930 . S
C1865 C1863 1.419 . S
C1865 C1866 1.362 . S
C1866 H1858 0.930 . S
C1866 C1865 1.362 . S
C1866 C1869 1.409 . S
C1867 H1859 0.930 . S
C1867 C1868 1.355 . S
C1867 C1869 1.415 . S
C1868 C1867 1.355 . S
C1868 C1870 1.419 . S
C1869 C1864 1.425 . S
C1869 C1866 1.409 . S
C1869 C1867 1.415 . S
C1870 H1860 0.930 . S
C1870 C1868 1.419 . S
C1870 C1871 1.362 . S
C1871 H1861 0.930 . S
C1871 C1864 1.409 . S
C1871 C1870 1.362 . S
H1872 C1878 0.930 . S
H1873 C1881 0.930 . S
H1874 C1882 0.930 . S
H1875 C1883 0.930 . S
H1876 C1886 0.930 . S
H1877 C1887 0.930 . S
C1878 H1872 0.930 . S
C1878 C1879 1.355 . S
C1878 C1880 1.415 . S
C1879 C1878 1.355 . S
C1879 C1881 1.419 . S
C1880 C1878 1.415 . S
C1880 C1885 1.425 1_545 S
C1880 C1887 1.409 . S
C1881 H1873 0.930 . S
C1881 C1879 1.419 . S
C1881 C1882 1.362 1_545 S
C1882 H1874 0.930 . S
C1882 C1881 1.362 1_565 S
C1882 C1885 1.409 . S
C1883 H1875 0.930 . S
C1883 C1884 1.355 . S
C1883 C1885 1.415 . S
C1884 C1883 1.355 . S
C1884 C1886 1.419 . S
C1885 C1880 1.425 1_565 S
C1885 C1882 1.409 . S
C1885 C1883 1.415 . S
C1886 H1876 0.930 . S
C1886 C1884 1.419 . S
C1886 C1887 1.362 1_565 S
C1887 H1877 0.930 . S
C1887 C1880 1.409 . S
C1887 C1886 1.362 1_545 S
H1888 C1894 0.930 . S
H1889 C1897 0.930 . S
H1890 C1898 0.930 . S
H1891 C1899 0.930 . S
H1892 C1902 0.930 . S
H1893 C1903 0.930 . S
C1894 H1888 0.930 . S
C1894 C1895 1.355 . S
C1894 C1896 1.415 . S
C1895 C1894 1.355 . S
C1895 C1897 1.419 . S
C1896 C1894 1.415 . S
C1896 C1901 1.425 . S
C1896 C1903 1.409 . S
C1897 H1889 0.930 . S
C1897 C1895 1.419 . S
C1897 C1898 1.362 . S
C1898 H1890 0.930 . S
C1898 C1897 1.362 . S
C1898 C1901 1.409 . S
C1899 H1891 0.930 . S
C1899 C1900 1.355 . S
C1899 C1901 1.415 . S
C1900 C1899 1.355 . S
C1900 C1902 1.419 . S
C1901 C1896 1.425 . S
C1901 C1898 1.409 . S
C1901 C1899 1.415 . S
C1902 H1892 0.930 . S
C1902 C1900 1.419 . S
C1902 C1903 1.362 . S
C1903 H1893 0.930 . S
C1903 C1896 1.409 . S
C1903 C1902 1.362 . S
H1904 C1910 0.930 . S
H1905 C1913 0.930 . S
H1906 C1914 0.934 . S
H1907 C1915 0.930 . S
H1908 C1918 0.930 . S
H1909 C1919 0.934 . S
C1910 H1904 0.930 . S
C1910 C1911 1.355 . S
C1910 C1912 1.415 . S
C1911 C1910 1.355 . S
C1911 C1913 1.419 . S
C1912 C1910 1.415 . S
C1912 C1917 1.425 1_564 S
C1912 C1919 1.409 1_564 S
C1913 H1905 0.930 . S
C1913 C1911 1.419 . S
C1913 C1914 1.362 . S
C1914 H1906 0.934 . S
C1914 C1913 1.362 . S
C1914 C1917 1.409 1_564 S
C1915 H1907 0.930 . S
C1915 C1916 1.355 . S
C1915 C1917 1.415 . S
C1916 C1915 1.355 . S
C1916 C1918 1.419 . S
C1917 C1912 1.425 1_546 S
C1917 C1914 1.409 1_546 S
C1917 C1915 1.415 . S
C1918 H1908 0.930 . S
C1918 C1916 1.419 . S
C1918 C1919 1.362 . S
C1919 H1909 0.934 . S
C1919 C1912 1.409 1_546 S
C1919 C1918 1.362 . S
H1920 C1926 0.930 . S
H1921 C1929 0.930 . S
H1922 C1930 0.930 . S
H1923 C1931 0.930 . S
H1924 C1934 0.930 . S
H1925 C1935 0.930 . S
C1926 H1920 0.930 . S
C1926 C1927 1.355 . S
C1926 C1928 1.415 . S
C1927 C1926 1.355 . S
C1927 C1929 1.419 . S
C1928 C1926 1.415 . S
C1928 C1933 1.425 . S
C1928 C1935 1.409 . S
C1929 H1921 0.930 . S
C1929 C1927 1.419 . S
C1929 C1930 1.362 . S
C1930 H1922 0.930 . S
C1930 C1929 1.362 . S
C1930 C1933 1.409 . S
C1931 H1923 0.930 . S
C1931 C1932 1.355 . S
C1931 C1933 1.415 . S
C1932 C1931 1.355 . S
C1932 C1934 1.419 . S
C1933 C1928 1.425 . S
C1933 C1930 1.409 . S
C1933 C1931 1.415 . S
C1934 H1924 0.930 . S
C1934 C1932 1.419 . S
C1934 C1935 1.362 . S
C1935 H1925 0.930 . S
C1935 C1928 1.409 . S
C1935 C1934 1.362 . S
H1936 C1942 0.930 . S
H1937 C1945 0.930 . S
H1938 C1946 0.930 . S
H1939 C1947 0.930 . S
H1940 C1950 0.930 . S
H1941 C1951 0.930 . S
C1942 H1936 0.930 . S
C1942 C1943 1.355 . S
C1942 C1944 1.415 1_545 S
C1943 C1942 1.355 . S
C1943 C1945 1.419 . S
C1944 C1942 1.415 1_565 S
C1944 C1949 1.425 1_565 S
C1944 C1951 1.409 . S
C1945 H1937 0.930 . S
C1945 C1943 1.419 . S
C1945 C1946 1.362 . S
C1946 H1938 0.930 . S
C1946 C1945 1.362 . S
C1946 C1949 1.409 . S
C1947 H1939 0.930 . S
C1947 C1948 1.355 . S
C1947 C1949 1.415 1_565 S
C1948 C1947 1.355 . S
C1948 C1950 1.419 . S
C1949 C1944 1.425 1_545 S
C1949 C1946 1.409 . S
C1949 C1947 1.415 1_545 S
C1950 H1940 0.930 . S
C1950 C1948 1.419 . S
C1950 C1951 1.362 . S
C1951 H1941 0.930 . S
C1951 C1944 1.409 . S
C1951 C1950 1.362 . S
H1952 C1958 0.930 . S
H1953 C1961 0.930 . S
H1954 C1962 0.930 . S
H1955 C1963 0.930 . S
H1956 C1966 0.930 . S
H1957 C1967 0.930 . S
C1958 H1952 0.930 . S
C1958 C1959 1.355 . S
C1958 C1960 1.415 . S
C1959 C1958 1.355 . S
C1959 C1961 1.419 . S
C1960 C1958 1.415 . S
C1960 C1965 1.425 . S
C1960 C1967 1.409 . S
C1961 H1953 0.930 . S
C1961 C1959 1.419 . S
C1961 C1962 1.362 . S
C1962 H1954 0.930 . S
C1962 C1961 1.362 . S
C1962 C1965 1.409 . S
C1963 H1955 0.930 . S
C1963 C1964 1.355 . S
C1963 C1965 1.415 . S
C1964 C1963 1.355 . S
C1964 C1966 1.419 . S
C1965 C1960 1.425 . S
C1965 C1962 1.409 . S
C1965 C1963 1.415 . S
C1966 H1956 0.930 . S
C1966 C1964 1.419 . S
C1966 C1967 1.362 . S
C1967 H1957 0.930 . S
C1967 C1960 1.409 . S
C1967 C1966 1.362 . S
H1968 C1974 0.930 . S
H1969 C1977 0.930 . S
H1970 C1978 0.930 . S
H1971 C1979 0.930 . S
H1972 C1982 0.930 . S
H1973 C1983 0.930 . S
C1974 H1968 0.930 . S
C1974 C1975 1.355 . S
C1974 C1976 1.415 1_556 S
C1975 C1974 1.355 . S
C1975 C1977 1.417 1_545 S
C1976 C1974 1.415 1_554 S
C1976 C1981 1.425 1_544 S
C1976 C1983 1.409 . S
C1977 H1969 0.930 . S
C1977 C1975 1.417 1_565 S
C1977 C1978 1.364 . S
C1978 H1970 0.930 . S
C1978 C1977 1.364 . S
C1978 C1981 1.409 . S
C1979 H1971 0.930 . S
C1979 C1980 1.355 . S
C1979 C1981 1.415 1_554 S
C1980 C1979 1.355 . S
C1980 C1982 1.417 1_565 S
C1981 C1976 1.425 1_566 S
C1981 C1978 1.409 . S
C1981 C1979 1.415 1_556 S
C1982 H1972 0.930 . S
C1982 C1980 1.417 1_545 S
C1982 C1983 1.364 . S
C1983 H1973 0.930 . S
C1983 C1976 1.409 . S
C1983 C1982 1.364 . S
H1984 C1990 0.930 . S
H1985 C1993 0.930 . S
H1986 C1994 0.930 . S
H1987 C1995 0.930 . S
H1988 C1998 0.930 . S
H1989 C1999 0.930 . S
C1990 H1984 0.930 . S
C1990 C1991 1.355 . S
C1990 C1992 1.415 . S
C1991 C1990 1.355 . S
C1991 C1993 1.419 . S
C1992 C1990 1.415 . S
C1992 C1997 1.425 . S
C1992 C1999 1.409 . S
C1993 H1985 0.930 . S
C1993 C1991 1.419 . S
C1993 C1994 1.362 . S
C1994 H1986 0.930 . S
C1994 C1993 1.362 . S
C1994 C1997 1.409 . S
C1995 H1987 0.930 . S
C1995 C1996 1.355 . S
C1995 C1997 1.415 . S
C1996 C1995 1.355 . S
C1996 C1998 1.419 . S
C1997 C1992 1.425 . S
C1997 C1994 1.409 . S
C1997 C1995 1.415 . S
C1998 H1988 0.930 . S
C1998 C1996 1.419 . S
C1998 C1999 1.362 . S
C1999 H1989 0.930 . S
C1999 C1992 1.409 . S
C1999 C1998 1.362 . S
H2000 C2006 0.930 . S
H2001 C2009 0.930 . S
H2002 C2010 0.930 . S
H2003 C2011 0.930 . S
H2004 C2014 0.930 . S
H2005 C2015 0.930 . S
C2006 H2000 0.930 . S
C2006 C2007 1.355 . S
C2006 C2008 1.415 1_556 S
C2007 C2006 1.355 . S
C2007 C2009 1.419 . S
C2008 C2006 1.415 1_554 S
C2008 C2013 1.425 1_554 S
C2008 C2015 1.409 . S
C2009 H2001 0.930 . S
C2009 C2007 1.419 . S
C2009 C2010 1.362 . S
C2010 H2002 0.930 . S
C2010 C2009 1.362 . S
C2010 C2013 1.409 . S
C2011 H2003 0.930 . S
C2011 C2012 1.355 . S
C2011 C2013 1.415 1_554 S
C2012 C2011 1.355 . S
C2012 C2014 1.419 . S
C2013 C2008 1.425 1_556 S
C2013 C2010 1.409 . S
C2013 C2011 1.415 1_556 S
C2014 H2004 0.930 . S
C2014 C2012 1.419 . S
C2014 C2015 1.362 . S
C2015 H2005 0.930 . S
C2015 C2008 1.409 . S
C2015 C2014 1.362 . S
H2016 C2022 0.930 . S
H2017 C2025 0.930 . S
H2018 C2026 0.930 . S
H2019 C2027 0.930 . S
H2020 C2030 0.930 . S
H2021 C2031 0.930 . S
C2022 H2016 0.930 . S
C2022 C2023 1.355 . S
C2022 C2024 1.415 . S
C2023 C2022 1.355 . S
C2023 C2025 1.419 . S
C2024 C2022 1.415 . S
C2024 C2029 1.425 . S
C2024 C2031 1.409 . S
C2025 H2017 0.930 . S
C2025 C2023 1.419 . S
C2025 C2026 1.362 . S
C2026 H2018 0.930 . S
C2026 C2025 1.362 . S
C2026 C2029 1.409 . S
C2027 H2019 0.930 . S
C2027 C2028 1.355 . S
C2027 C2029 1.415 . S
C2028 C2027 1.355 . S
C2028 C2030 1.419 . S
C2029 C2024 1.425 . S
C2029 C2026 1.409 . S
C2029 C2027 1.415 . S
C2030 H2020 0.930 . S
C2030 C2028 1.419 . S
C2030 C2031 1.362 . S
C2031 H2021 0.930 . S
C2031 C2024 1.409 . S
C2031 C2030 1.362 . S
H2032 C2038 0.930 . S
H2033 C2041 0.930 . S
H2034 C2042 0.930 . S
H2035 C2043 0.930 . S
H2036 C2046 0.930 . S
H2037 C2047 0.930 . S
C2038 H2032 0.930 . S
C2038 C2039 1.355 . S
C2038 C2040 1.415 . S
C2039 C2038 1.355 . S
C2039 C2041 1.419 . S
C2040 C2038 1.415 . S
C2040 C2045 1.425 . S
C2040 C2047 1.409 . S
C2041 H2033 0.930 . S
C2041 C2039 1.419 . S
C2041 C2042 1.362 . S
C2042 H2034 0.930 . S
C2042 C2041 1.362 . S
C2042 C2045 1.409 . S
C2043 H2035 0.930 . S
C2043 C2044 1.355 . S
C2043 C2045 1.415 . S
C2044 C2043 1.355 . S
C2044 C2046 1.419 . S
C2045 C2040 1.425 . S
C2045 C2042 1.409 . S
C2045 C2043 1.415 . S
C2046 H2036 0.930 . S
C2046 C2044 1.419 . S
C2046 C2047 1.362 . S
C2047 H2037 0.930 . S
C2047 C2040 1.409 . S
C2047 C2046 1.362 . S
H2048 C2054 0.930 . S
H2049 C2057 0.930 . S
H2050 C2058 0.930 . S
H2051 C2059 0.930 . S
H2052 C2062 0.930 . S
H2053 C2063 0.930 . S
C2054 H2048 0.930 . S
C2054 C2055 1.355 . S
C2054 C2056 1.415 . S
C2055 C2054 1.355 . S
C2055 C2057 1.419 . S
C2056 C2054 1.415 . S
C2056 C2061 1.425 . S
C2056 C2063 1.409 . S
C2057 H2049 0.930 . S
C2057 C2055 1.419 . S
C2057 C2058 1.362 . S
C2058 H2050 0.930 . S
C2058 C2057 1.362 . S
C2058 C2061 1.409 . S
C2059 H2051 0.930 . S
C2059 C2060 1.355 . S
C2059 C2061 1.415 . S
C2060 C2059 1.355 . S
C2060 C2062 1.419 . S
C2061 C2056 1.425 . S
C2061 C2058 1.409 . S
C2061 C2059 1.415 . S
C2062 H2052 0.930 . S
C2062 C2060 1.419 . S
C2062 C2063 1.362 . S
C2063 H2053 0.930 . S
C2063 C2056 1.409 . S
C2063 C2062 1.362 . S
H2064 C2070 0.930 . S
H2065 C2073 0.930 . S
H2066 C2074 0.930 . S
H2067 C2075 0.930 . S
H2068 C2078 0.930 . S
H2069 C2079 0.930 . S
C2070 H2064 0.930 . S
C2070 C2071 1.355 . S
C2070 C2072 1.415 1_556 S
C2071 C2070 1.355 . S
C2071 C2073 1.419 . S
C2072 C2070 1.415 1_554 S
C2072 C2077 1.425 1_554 S
C2072 C2079 1.409 . S
C2073 H2065 0.930 . S
C2073 C2071 1.419 . S
C2073 C2074 1.362 . S
C2074 H2066 0.930 . S
C2074 C2073 1.362 . S
C2074 C2077 1.409 . S
C2075 H2067 0.930 . S
C2075 C2076 1.355 . S
C2075 C2077 1.415 1_554 S
C2076 C2075 1.355 . S
C2076 C2078 1.419 . S
C2077 C2072 1.425 1_556 S
C2077 C2074 1.409 . S
C2077 C2075 1.415 1_556 S
C2078 H2068 0.930 . S
C2078 C2076 1.419 . S
C2078 C2079 1.362 . S
C2079 H2069 0.930 . S
C2079 C2072 1.409 . S
C2079 C2078 1.362 . S
H2080 C2086 0.930 . S
H2081 C2089 0.930 . S
H2082 C2090 0.930 . S
H2083 C2091 0.930 . S
H2084 C2094 0.930 . S
H2085 C2095 0.930 . S
C2086 H2080 0.930 . S
C2086 C2087 1.355 . S
C2086 C2088 1.415 . S
C2087 C2086 1.355 . S
C2087 C2089 1.419 . S
C2088 C2086 1.415 . S
C2088 C2093 1.425 . S
C2088 C2095 1.409 . S
C2089 H2081 0.930 . S
C2089 C2087 1.419 . S
C2089 C2090 1.362 . S
C2090 H2082 0.930 . S
C2090 C2089 1.362 . S
C2090 C2093 1.409 . S
C2091 H2083 0.930 . S
C2091 C2092 1.355 . S
C2091 C2093 1.415 . S
C2092 C2091 1.355 . S
C2092 C2094 1.419 . S
C2093 C2088 1.425 . S
C2093 C2090 1.409 . S
C2093 C2091 1.415 . S
C2094 H2084 0.930 . S
C2094 C2092 1.419 . S
C2094 C2095 1.362 . S
C2095 H2085 0.930 . S
C2095 C2088 1.409 . S
C2095 C2094 1.362 . S
H2096 C2102 0.930 . S
H2097 C2105 0.930 . S
H2098 C2106 0.930 . S
H2099 C2107 0.930 . S
H2100 C2110 0.930 . S
H2101 C2111 0.930 . S
C2102 H2096 0.930 . S
C2102 C2103 1.355 . S
C2102 C2104 1.415 . S
C2103 C2102 1.355 . S
C2103 C2105 1.419 . S
C2104 C2102 1.415 . S
C2104 C2109 1.425 . S
C2104 C2111 1.409 . S
C2105 H2097 0.930 . S
C2105 C2103 1.419 . S
C2105 C2106 1.362 . S
C2106 H2098 0.930 . S
C2106 C2105 1.362 . S
C2106 C2109 1.409 . S
C2107 H2099 0.930 . S
C2107 C2108 1.355 . S
C2107 C2109 1.415 . S
C2108 C2107 1.355 . S
C2108 C2110 1.419 . S
C2109 C2104 1.425 . S
C2109 C2106 1.409 . S
C2109 C2107 1.415 . S
C2110 H2100 0.930 . S
C2110 C2108 1.419 . S
C2110 C2111 1.362 . S
C2111 H2101 0.930 . S
C2111 C2104 1.409 . S
C2111 C2110 1.362 . S
H2112 C2118 0.930 1_554 S
H2113 C2121 0.930 . S
H2114 C2122 0.930 . S
H2115 C2123 0.930 . S
H2116 C2126 0.930 . S
H2117 C2127 0.930 . S
C2118 H2112 0.930 1_556 S
C2118 C2119 1.355 . S
C2118 C2120 1.415 . S
C2119 C2118 1.355 . S
C2119 C2121 1.419 . S
C2120 C2118 1.415 . S
C2120 C2125 1.425 . S
C2120 C2127 1.409 . S
C2121 H2113 0.930 . S
C2121 C2119 1.419 . S
C2121 C2122 1.362 . S
C2122 H2114 0.930 . S
C2122 C2121 1.362 . S
C2122 C2125 1.409 . S
C2123 H2115 0.930 . S
C2123 C2124 1.355 . S
C2123 C2125 1.415 . S
C2124 C2123 1.355 . S
C2124 C2126 1.419 . S
C2125 C2120 1.425 . S
C2125 C2122 1.409 . S
C2125 C2123 1.415 . S
C2126 H2116 0.930 . S
C2126 C2124 1.419 . S
C2126 C2127 1.362 . S
C2127 H2117 0.930 . S
C2127 C2120 1.409 . S
C2127 C2126 1.362 . S
H2128 C2134 0.930 . S
H2129 C2137 0.930 1_556 S
H2130 C2138 0.930 . S
H2131 C2139 0.930 . S
H2132 C2142 0.930 . S
H2133 C2143 0.930 . S
C2134 H2128 0.930 . S
C2134 C2135 1.355 . S
C2134 C2136 1.415 . S
C2135 C2134 1.355 . S
C2135 C2137 1.419 . S
C2136 C2134 1.415 . S
C2136 C2141 1.425 . S
C2136 C2143 1.409 . S
C2137 H2129 0.930 1_554 S
C2137 C2135 1.419 . S
C2137 C2138 1.362 . S
C2138 H2130 0.930 . S
C2138 C2137 1.362 . S
C2138 C2141 1.409 . S
C2139 H2131 0.930 . S
C2139 C2140 1.355 . S
C2139 C2141 1.415 . S
C2140 C2139 1.355 . S
C2140 C2142 1.419 . S
C2141 C2136 1.425 . S
C2141 C2138 1.409 . S
C2141 C2139 1.415 . S
C2142 H2132 0.930 . S
C2142 C2140 1.419 . S
C2142 C2143 1.362 . S
C2143 H2133 0.930 . S
C2143 C2136 1.409 . S
C2143 C2142 1.362 . S
H2144 C2150 0.930 . S
H2145 C2153 0.930 . S
H2146 C2154 0.930 . S
H2147 C2155 0.930 . S
H2148 C2158 0.930 . S
H2149 C2159 0.930 . S
C2150 H2144 0.930 . S
C2150 C2151 1.355 . S
C2150 C2152 1.415 . S
C2151 C2150 1.355 . S
C2151 C2153 1.419 . S
C2152 C2150 1.415 . S
C2152 C2157 1.425 . S
C2152 C2159 1.409 . S
C2153 H2145 0.930 . S
C2153 C2151 1.419 . S
C2153 C2154 1.362 . S
C2154 H2146 0.930 . S
C2154 C2153 1.362 . S
C2154 C2157 1.409 . S
C2155 H2147 0.930 . S
C2155 C2156 1.355 . S
C2155 C2157 1.415 . S
C2156 C2155 1.355 . S
C2156 C2158 1.419 . S
C2157 C2152 1.425 . S
C2157 C2154 1.409 . S
C2157 C2155 1.415 . S
C2158 H2148 0.930 . S
C2158 C2156 1.419 . S
C2158 C2159 1.362 . S
C2159 H2149 0.930 . S
C2159 C2152 1.409 . S
C2159 C2158 1.362 . S
H2160 C2166 0.930 . S
H2161 C2169 0.930 . S
H2162 C2170 0.930 . S
H2163 C2171 0.930 . S
H2164 C2174 0.930 . S
H2165 C2175 0.930 . S
C2166 H2160 0.930 . S
C2166 C2167 1.355 . S
C2166 C2168 1.415 . S
C2167 C2166 1.355 . S
C2167 C2169 1.419 . S
C2168 C2166 1.415 . S
C2168 C2173 1.425 . S
C2168 C2175 1.409 . S
C2169 H2161 0.930 . S
C2169 C2167 1.419 . S
C2169 C2170 1.362 . S
C2170 H2162 0.930 . S
C2170 C2169 1.362 . S
C2170 C2173 1.409 . S
C2171 H2163 0.930 . S
C2171 C2172 1.355 . S
C2171 C2173 1.415 . S
C2172 C2171 1.355 . S
C2172 C2174 1.419 . S
C2173 C2168 1.425 . S
C2173 C2170 1.409 . S
C2173 C2171 1.415 . S
C2174 H2164 0.930 . S
C2174 C2172 1.419 . S
C2174 C2175 1.362 . S
C2175 H2165 0.930 . S
C2175 C2168 1.409 . S
C2175 C2174 1.362 . S
H2176 C2182 0.930 . S
H2177 C2185 0.930 . S
H2178 C2186 0.930 . S
H2179 C2187 0.930 . S
H2180 C2190 0.930 . S
H2181 C2191 0.930 . S
C2182 H2176 0.930 . S
C2182 C2183 1.355 . S
C2182 C2184 1.415 . S
C2183 C2182 1.355 . S
C2183 C2185 1.419 . S
C2184 C2182 1.415 . S
C2184 C2189 1.425 . S
C2184 C2191 1.409 . S
C2185 H2177 0.930 . S
C2185 C2183 1.419 . S
C2185 C2186 1.362 . S
C2186 H2178 0.930 . S
C2186 C2185 1.362 . S
C2186 C2189 1.409 . S
C2187 H2179 0.930 . S
C2187 C2188 1.355 . S
C2187 C2189 1.415 . S
C2188 C2187 1.355 . S
C2188 C2190 1.419 . S
C2189 C2184 1.425 . S
C2189 C2186 1.409 . S
C2189 C2187 1.415 . S
C2190 H2180 0.930 . S
C2190 C2188 1.419 . S
C2190 C2191 1.362 . S
C2191 H2181 0.930 . S
C2191 C2184 1.409 . S
C2191 C2190 1.362 . S
H2192 C2198 0.930 . S
H2193 C2201 0.930 . S
H2194 C2202 0.930 . S
H2195 C2203 0.930 . S
H2196 C2206 0.930 . S
H2197 C2207 0.930 . S
C2198 H2192 0.930 . S
C2198 C2199 1.355 . S
C2198 C2200 1.415 . S
C2199 C2198 1.355 . S
C2199 C2201 1.419 . S
C2200 C2198 1.415 . S
C2200 C2205 1.425 . S
C2200 C2207 1.409 . S
C2201 H2193 0.930 . S
C2201 C2199 1.419 . S
C2201 C2202 1.362 . S
C2202 H2194 0.930 . S
C2202 C2201 1.362 . S
C2202 C2205 1.409 . S
C2203 H2195 0.930 . S
C2203 C2204 1.355 . S
C2203 C2205 1.415 . S
C2204 C2203 1.355 . S
C2204 C2206 1.419 . S
C2205 C2200 1.425 . S
C2205 C2202 1.409 . S
C2205 C2203 1.415 . S
C2206 H2196 0.930 . S
C2206 C2204 1.419 . S
C2206 C2207 1.362 . S
C2207 H2197 0.930 . S
C2207 C2200 1.409 . S
C2207 C2206 1.362 . S
H2208 C2214 0.930 . S
H2209 C2217 0.930 . S
H2210 C2218 0.930 . S
H2211 C2219 0.930 . S
H2212 C2222 0.930 . S
H2213 C2223 0.930 . S
C2214 H2208 0.930 . S
C2214 C2215 1.355 . S
C2214 C2216 1.415 . S
C2215 C2214 1.355 . S
C2215 C2217 1.419 . S
C2216 C2214 1.415 . S
C2216 C2221 1.425 . S
C2216 C2223 1.409 . S
C2217 H2209 0.930 . S
C2217 C2215 1.419 . S
C2217 C2218 1.362 . S
C2218 H2210 0.930 . S
C2218 C2217 1.362 . S
C2218 C2221 1.409 . S
C2219 H2211 0.930 . S
C2219 C2220 1.355 . S
C2219 C2221 1.415 . S
C2220 C2219 1.355 . S
C2220 C2222 1.419 . S
C2221 C2216 1.425 . S
C2221 C2218 1.409 . S
C2221 C2219 1.415 . S
C2222 H2212 0.930 . S
C2222 C2220 1.419 . S
C2222 C2223 1.362 . S
C2223 H2213 0.930 . S
C2223 C2216 1.409 . S
C2223 C2222 1.362 . S
H2224 C2230 0.930 . S
H2225 C2233 0.930 . S
H2226 C2234 0.930 . S
H2227 C2235 0.930 . S
H2228 C2238 0.930 . S
H2229 C2239 0.930 . S
C2230 H2224 0.930 . S
C2230 C2231 1.355 . S
C2230 C2232 1.415 . S
C2231 C2230 1.355 . S
C2231 C2233 1.419 . S
C2232 C2230 1.415 . S
C2232 C2237 1.425 . S
C2232 C2239 1.409 . S
C2233 H2225 0.930 . S
C2233 C2231 1.419 . S
C2233 C2234 1.362 . S
C2234 H2226 0.930 . S
C2234 C2233 1.362 . S
C2234 C2237 1.409 . S
C2235 H2227 0.930 . S
C2235 C2236 1.355 . S
C2235 C2237 1.415 . S
C2236 C2235 1.355 . S
C2236 C2238 1.419 . S
C2237 C2232 1.425 . S
C2237 C2234 1.409 . S
C2237 C2235 1.415 . S
C2238 H2228 0.930 . S
C2238 C2236 1.419 . S
C2238 C2239 1.362 . S
C2239 H2229 0.930 . S
C2239 C2232 1.409 . S
C2239 C2238 1.362 . S
H2240 C2246 0.930 . S
H2241 C2249 0.930 . S
H2242 C2250 0.930 . S
H2243 C2251 0.930 . S
H2244 C2254 0.930 . S
H2245 C2255 0.930 . S
C2246 H2240 0.930 . S
C2246 C2247 1.355 . S
C2246 C2248 1.415 . S
C2247 C2246 1.355 . S
C2247 C2249 1.419 . S
C2248 C2246 1.415 . S
C2248 C2253 1.425 . S
C2248 C2255 1.409 . S
C2249 H2241 0.930 . S
C2249 C2247 1.419 . S
C2249 C2250 1.362 . S
C2250 H2242 0.930 . S
C2250 C2249 1.362 . S
C2250 C2253 1.409 . S
C2251 H2243 0.930 . S
C2251 C2252 1.355 . S
C2251 C2253 1.415 . S
C2252 C2251 1.355 . S
C2252 C2254 1.419 . S
C2253 C2248 1.425 . S
C2253 C2250 1.409 . S
C2253 C2251 1.415 . S
C2254 H2244 0.930 . S
C2254 C2252 1.419 . S
C2254 C2255 1.362 . S
C2255 H2245 0.930 . S
C2255 C2248 1.409 . S
C2255 C2254 1.362 . S
H2256 C2262 0.930 . S
H2257 C2265 0.930 . S
H2258 C2266 0.930 . S
H2259 C2267 0.930 . S
H2260 C2270 0.930 . S
H2261 C2271 0.930 . S
C2262 H2256 0.930 . S
C2262 C2263 1.355 . S
C2262 C2264 1.415 . S
C2263 C2262 1.355 . S
C2263 C2265 1.419 . S
C2264 C2262 1.415 . S
C2264 C2269 1.425 . S
C2264 C2271 1.409 . S
C2265 H2257 0.930 . S
C2265 C2263 1.419 . S
C2265 C2266 1.362 . S
C2266 H2258 0.930 . S
C2266 C2265 1.362 . S
C2266 C2269 1.409 . S
C2267 H2259 0.930 . S
C2267 C2268 1.355 . S
C2267 C2269 1.415 . S
C2268 C2267 1.355 . S
C2268 C2270 1.419 . S
C2269 C2264 1.425 . S
C2269 C2266 1.409 . S
C2269 C2267 1.415 . S
C2270 H2260 0.930 . S
C2270 C2268 1.419 . S
C2270 C2271 1.362 . S
C2271 H2261 0.930 . S
C2271 C2264 1.409 . S
C2271 C2270 1.362 . S
H2272 C2278 0.930 . S
H2273 C2281 0.930 . S
H2274 C2282 0.930 . S
H2275 C2283 0.930 . S
H2276 C2286 0.930 . S
H2277 C2287 0.930 . S
C2278 H2272 0.930 . S
C2278 C2279 1.355 . S
C2278 C2280 1.415 . S
C2279 C2278 1.355 . S
C2279 C2281 1.419 . S
C2280 C2278 1.415 . S
C2280 C2285 1.425 . S
C2280 C2287 1.409 . S
C2281 H2273 0.930 . S
C2281 C2279 1.419 . S
C2281 C2282 1.362 . S
C2282 H2274 0.930 . S
C2282 C2281 1.362 . S
C2282 C2285 1.409 . S
C2283 H2275 0.930 . S
C2283 C2284 1.355 . S
C2283 C2285 1.415 . S
C2284 C2283 1.355 . S
C2284 C2286 1.419 . S
C2285 C2280 1.425 . S
C2285 C2282 1.409 . S
C2285 C2283 1.415 . S
C2286 H2276 0.930 . S
C2286 C2284 1.419 . S
C2286 C2287 1.362 . S
C2287 H2277 0.930 . S
C2287 C2280 1.409 . S
C2287 C2286 1.362 . S
H2288 C2294 0.930 . S
H2289 C2297 0.930 . S
H2290 C2298 0.930 . S
H2291 C2299 0.930 . S
H2292 C2302 0.930 1_556 S
H2293 C2303 0.930 . S
C2294 H2288 0.930 . S
C2294 C2295 1.355 . S
C2294 C2296 1.415 . S
C2295 C2294 1.355 . S
C2295 C2297 1.419 . S
C2296 C2294 1.415 . S
C2296 C2301 1.425 . S
C2296 C2303 1.409 . S
C2297 H2289 0.930 . S
C2297 C2295 1.419 . S
C2297 C2298 1.362 . S
C2298 H2290 0.930 . S
C2298 C2297 1.362 . S
C2298 C2301 1.409 . S
C2299 H2291 0.930 . S
C2299 C2300 1.355 . S
C2299 C2301 1.415 . S
C2300 C2299 1.355 . S
C2300 C2302 1.419 . S
C2301 C2296 1.425 . S
C2301 C2298 1.409 . S
C2301 C2299 1.415 . S
C2302 H2292 0.930 1_554 S
C2302 C2300 1.419 . S
C2302 C2303 1.362 . S
C2303 H2293 0.930 . S
C2303 C2296 1.409 . S
C2303 C2302 1.362 . S
H2304 C2310 0.930 . S
H2305 C2313 0.930 . S
H2306 C2314 0.930 . S
H2307 C2315 0.930 . S
H2308 C2318 0.930 . S
H2309 C2319 0.930 . S
C2310 H2304 0.930 . S
C2310 C2311 1.355 . S
C2310 C2312 1.415 . S
C2311 C2310 1.355 . S
C2311 C2313 1.419 . S
C2312 C2310 1.415 . S
C2312 C2317 1.425 . S
C2312 C2319 1.409 . S
C2313 H2305 0.930 . S
C2313 C2311 1.419 . S
C2313 C2314 1.362 . S
C2314 H2306 0.930 . S
C2314 C2313 1.362 . S
C2314 C2317 1.409 . S
C2315 H2307 0.930 . S
C2315 C2316 1.355 . S
C2315 C2317 1.415 . S
C2316 C2315 1.355 . S
C2316 C2318 1.419 . S
C2317 C2312 1.425 . S
C2317 C2314 1.409 . S
C2317 C2315 1.415 . S
C2318 H2308 0.930 . S
C2318 C2316 1.419 . S
C2318 C2319 1.362 . S
C2319 H2309 0.930 . S
C2319 C2312 1.409 . S
C2319 C2318 1.362 . S
H2320 C2326 0.930 . S
H2321 C2329 0.930 . S
H2322 C2330 0.930 . S
H2323 C2331 0.930 . S
H2324 C2334 0.930 . S
H2325 C2335 0.930 . S
C2326 H2320 0.930 . S
C2326 C2327 1.355 . S
C2326 C2328 1.415 . S
C2327 C2326 1.355 . S
C2327 C2329 1.419 . S
C2328 C2326 1.415 . S
C2328 C2333 1.425 . S
C2328 C2335 1.409 . S
C2329 H2321 0.930 . S
C2329 C2327 1.419 . S
C2329 C2330 1.362 . S
C2330 H2322 0.930 . S
C2330 C2329 1.362 . S
C2330 C2333 1.409 . S
C2331 H2323 0.930 . S
C2331 C2332 1.355 . S
C2331 C2333 1.415 . S
C2332 C2331 1.355 . S
C2332 C2334 1.419 . S
C2333 C2328 1.425 . S
C2333 C2330 1.409 . S
C2333 C2331 1.415 . S
C2334 H2324 0.930 . S
C2334 C2332 1.419 . S
C2334 C2335 1.362 . S
C2335 H2325 0.930 . S
C2335 C2328 1.409 . S
C2335 C2334 1.362 . S
H2336 C2342 0.930 . S
H2337 C2345 0.930 . S
H2338 C2346 0.930 . S
H2339 C2347 0.930 1_556 S
H2340 C2350 0.930 . S
H2341 C2351 0.930 . S
C2342 H2336 0.930 . S
C2342 C2343 1.355 . S
C2342 C2344 1.415 . S
C2343 C2342 1.355 . S
C2343 C2345 1.419 . S
C2344 C2342 1.415 . S
C2344 C2349 1.425 . S
C2344 C2351 1.409 . S
C2345 H2337 0.930 . S
C2345 C2343 1.419 . S
C2345 C2346 1.362 . S
C2346 H2338 0.930 . S
C2346 C2345 1.362 . S
C2346 C2349 1.409 . S
C2347 H2339 0.930 1_554 S
C2347 C2348 1.355 . S
C2347 C2349 1.415 . S
C2348 C2347 1.355 . S
C2348 C2350 1.419 . S
C2349 C2344 1.425 . S
C2349 C2346 1.409 . S
C2349 C2347 1.415 . S
C2350 H2340 0.930 . S
C2350 C2348 1.419 . S
C2350 C2351 1.362 . S
C2351 H2341 0.930 . S
C2351 C2344 1.409 . S
C2351 C2350 1.362 . S
H2352 C2358 0.930 . S
H2353 C2361 0.930 . S
H2354 C2362 0.930 . S
H2355 C2363 0.930 . S
H2356 C2366 0.930 . S
H2357 C2367 0.930 . S
C2358 H2352 0.930 . S
C2358 C2359 1.355 . S
C2358 C2360 1.415 . S
C2359 C2358 1.355 . S
C2359 C2361 1.419 . S
C2360 C2358 1.415 . S
C2360 C2365 1.425 . S
C2360 C2367 1.409 . S
C2361 H2353 0.930 . S
C2361 C2359 1.419 . S
C2361 C2362 1.362 . S
C2362 H2354 0.930 . S
C2362 C2361 1.362 . S
C2362 C2365 1.409 . S
C2363 H2355 0.930 . S
C2363 C2364 1.355 . S
C2363 C2365 1.415 . S
C2364 C2363 1.355 . S
C2364 C2366 1.419 . S
C2365 C2360 1.425 . S
C2365 C2362 1.409 . S
C2365 C2363 1.415 . S
C2366 H2356 0.930 . S
C2366 C2364 1.419 . S
C2366 C2367 1.362 . S
C2367 H2357 0.930 . S
C2367 C2360 1.409 . S
C2367 C2366 1.362 . S
C1095 C1022 1.716 . S
C1100 C2 1.714 . S
C1111 C36 1.712 . S
C1116 C512 1.718 . S
C1127 C70 1.717 . S
C1132 C954 1.713 . S
C1143 C104 1.716 . S
C1148 C444 1.715 . S
C1159 C886 1.716 . S
C1164 C138 1.714 . S
C1175 C376 1.713 . S
C1180 C172 1.717 . S
C1191 C206 1.717 . S
C1196 C818 1.713 . S
C1207 C308 1.718 . S
C1212 C240 1.712 . S
C1223 C750 1.714 . S
C1228 C274 1.716 . S
C1239 C682 1.717 . S
C1244 C342 1.713 . S
C1255 C410 1.712 . S
C1260 C614 1.718 . S
C1271 C546 1.717 . S
C1276 C478 1.713 . S
C1287 C1056 1.712 . S
C1292 C580 1.718 . S
C1303 C988 1.713 . S
C1308 C648 1.717 . S
C1319 C920 1.715 . S
C1324 C716 1.715 . S
C1335 C852 1.714 . S
C1340 C784 1.716 . S
C1351 C5 1.075 . S
C1356 C9 1.130 . S
C1367 C39 1.121 . S
C1372 C43 1.083 . S
C1383 C73 1.064 . S
C1388 C77 1.102 . S
C1399 C107 1.135 . S
C1404 C111 1.094 . S
C1415 C141 1.129 . S
C1420 C145 1.088 . S
C1431 C175 1.142 . S
C1436 C179 1.105 . S
C1447 C213 1.122 . S
C1452 C209 1.069 . S
C1463 C243 1.079 . S
C1468 C247 1.081 . S
C1479 C277 1.144 . S
C1484 C281 1.112 . S
C1495 C315 1.094 . S
C1500 C311 1.066 . S
C1511 C345 1.067 . S
C1516 C349 1.119 . S
C1527 C379 1.110 . S
C1532 C383 1.146 . S
C1543 C413 1.067 . S
C1548 C417 1.118 . S
C1559 C451 1.144 . S
C1564 C447 1.099 . S
C1575 C481 1.093 . S
C1580 C485 1.142 . S
C1591 C519 1.138 . S
C1596 C515 1.136 . S
C1607 C553 1.125 . S
C1612 C549 1.144 . S
C1623 C583 1.089 . S
C1628 C587 1.140 . S
C1639 C621 1.077 . S
C1644 C617 1.094 . S
C1655 C655 1.146 . S
C1660 C651 1.110 . S
C1671 C689 1.079 . S
C1676 C685 1.083 . S
C1687 C723 1.080 . S
C1692 C719 1.116 . S
C1703 C757 1.077 . S
C1708 C753 1.093 . S
C1719 C791 1.097 . S
C1724 C787 1.138 . S
C1735 C825 1.111 . S
C1740 C821 1.144 . S
C1751 C859 1.077 . S
C1756 C855 1.092 . S
C1767 C889 1.093 . S
C1772 C893 1.142 . S
C1783 C927 1.141 . S
C1788 C923 1.133 . S
C1799 C961 1.080 . S
C1804 C957 1.080 . S
C1815 C995 1.123 . S
C1820 C991 1.145 . S
C1831 C1025 1.137 . S
C1836 C1029 1.138 . S
C1847 C1059 1.069 . S
C1852 C1063 1.089 . S
C1863 C237 1.394 . S
C1868 C33 1.376 . S
C1879 C271 1.404 . S
C1884 C67 1.431 . S
C1895 C101 1.373 . S
C1900 C169 1.383 . S
C1911 C203 1.393 . S
C1916 C135 1.420 . S
C1927 C305 1.454 . S
C1932 C509 1.439 . S
C1943 C339 1.388 . S
C1948 C543 1.413 . S
C1959 C373 1.377 . S
C1964 C441 1.397 . S
C1975 C475 1.456 . S
C1980 C407 1.445 . S
C1991 C781 1.438 . S
C1996 C577 1.454 . S
C2007 C611 1.453 . S
C2012 C815 1.455 . S
C2023 C713 1.392 . S
C2028 C645 1.375 . S
C2039 C747 1.447 . S
C2044 C679 1.456 . S
C2055 C849 1.428 . S
C2060 C1053 1.401 . S
C2071 C1087 1.443 . S
C2076 C883 1.419 . S
C2087 C917 1.443 . S
C2092 C985 1.419 . S
C2103 C1019 1.452 . S
C2108 C951 1.433 . S
C2119 C20 1.665 . S
C2124 C258 1.654 . S
C2135 C156 1.704 . S
C2140 C54 1.686 . S
C2151 C88 1.661 . S
C2156 C190 1.687 . S
C2167 C122 1.670 . S
C2172 C224 1.696 . S
C2183 C292 1.674 . S
C2188 C530 1.699 . S
C2199 C428 1.682 . S
C2204 C326 1.703 . S
C2215 C360 1.654 . S
C2220 C462 1.664 . S
C2231 C394 1.655 . S
C2236 C496 1.661 . S
C2247 C802 1.658 . S
C2252 C564 1.657 . S
C2263 C700 1.681 . S
C2268 C598 1.657 . S
C2279 C734 1.700 . S
C2284 C632 1.675 . S
C2295 C666 1.704 . S
C2300 C768 1.684 . S
C2311 C836 1.654 . S
C2316 C1074 1.668 . S
C2327 C870 1.683 . S
C2332 C972 1.704 . S
C2343 C1006 1.658 . S
C2348 C904 1.683 . S
C2359 C1040 1.669 . S
C2364 C938 1.695 . S
