# Generated by pormake.
# Topology fcn, (5)-cn, num edge types: 1
# Building blocks:
#     Node 0, Type 0, BuildingBlock: BEQFEK_clean_sbu_0, # of connection points: 5
#     Node 1, Type 0, BuildingBlock: BEQFEK_clean_sbu_0, # of connection points: 5
#     Node 2, Type 0, BuildingBlock: BEQFEK_clean_sbu_0, # of connection points: 5
#     Node 3, Type 0, BuildingBlock: BEQFEK_clean_sbu_0, # of connection points: 5
#     Node 4, Type 0, BuildingBlock: BEQFEK_clean_sbu_0, # of connection points: 5
#     Node 5, Type 0, BuildingBlock: BEQFEK_clean_sbu_0, # of connection points: 5
#     Node 6, Type 0, BuildingBlock: BEQFEK_clean_sbu_0, # of connection points: 5
#     Node 7, Type 0, BuildingBlock: BEQFEK_clean_sbu_0, # of connection points: 5
#     Node 8, Type 0, BuildingBlock: BEQFEK_clean_sbu_0, # of connection points: 5
#     Node 9, Type 0, BuildingBlock: BEQFEK_clean_sbu_0, # of connection points: 5
#     Node 10, Type 0, BuildingBlock: BEQFEK_clean_sbu_0, # of connection points: 5
#     Node 11, Type 0, BuildingBlock: BEQFEK_clean_sbu_0, # of connection points: 5
#     Node 12, Type 0, BuildingBlock: BEQFEK_clean_sbu_0, # of connection points: 5
#     Node 13, Type 0, BuildingBlock: BEQFEK_clean_sbu_0, # of connection points: 5
#     Node 14, Type 0, BuildingBlock: BEQFEK_clean_sbu_0, # of connection points: 5
#     Node 15, Type 0, BuildingBlock: BEQFEK_clean_sbu_0, # of connection points: 5
#     Node 16, Type 0, BuildingBlock: BEQFEK_clean_sbu_0, # of connection points: 5
#     Node 17, Type 0, BuildingBlock: BEQFEK_clean_sbu_0, # of connection points: 5
#     Node 18, Type 0, BuildingBlock: BEQFEK_clean_sbu_0, # of connection points: 5
#     Node 19, Type 0, BuildingBlock: BEQFEK_clean_sbu_0, # of connection points: 5
#     Node 20, Type 0, BuildingBlock: BEQFEK_clean_sbu_0, # of connection points: 5
#     Node 21, Type 0, BuildingBlock: BEQFEK_clean_sbu_0, # of connection points: 5
#     Node 22, Type 0, BuildingBlock: BEQFEK_clean_sbu_0, # of connection points: 5
#     Node 23, Type 0, BuildingBlock: BEQFEK_clean_sbu_0, # of connection points: 5
#     Node 24, Type 0, BuildingBlock: BEQFEK_clean_sbu_0, # of connection points: 5
#     Node 25, Type 0, BuildingBlock: BEQFEK_clean_sbu_0, # of connection points: 5
#     Node 26, Type 0, BuildingBlock: BEQFEK_clean_sbu_0, # of connection points: 5
#     Node 27, Type 0, BuildingBlock: BEQFEK_clean_sbu_0, # of connection points: 5
#     Node 28, Type 0, BuildingBlock: BEQFEK_clean_sbu_0, # of connection points: 5
#     Node 29, Type 0, BuildingBlock: BEQFEK_clean_sbu_0, # of connection points: 5
#     Node 30, Type 0, BuildingBlock: BEQFEK_clean_sbu_0, # of connection points: 5
#     Node 31, Type 0, BuildingBlock: BEQFEK_clean_sbu_0, # of connection points: 5
#     Node 32, Type 0, BuildingBlock: BEQFEK_clean_sbu_0, # of connection points: 5
#     Node 33, Type 0, BuildingBlock: BEQFEK_clean_sbu_0, # of connection points: 5
#     Node 34, Type 0, BuildingBlock: BEQFEK_clean_sbu_0, # of connection points: 5
#     Node 35, Type 0, BuildingBlock: BEQFEK_clean_sbu_0, # of connection points: 5
#     Node 36, Type 0, BuildingBlock: BEQFEK_clean_sbu_0, # of connection points: 5
#     Node 37, Type 0, BuildingBlock: BEQFEK_clean_sbu_0, # of connection points: 5
#     Node 38, Type 0, BuildingBlock: BEQFEK_clean_sbu_0, # of connection points: 5
#     Node 39, Type 0, BuildingBlock: BEQFEK_clean_sbu_0, # of connection points: 5
#     Node 40, Type 0, BuildingBlock: BEQFEK_clean_sbu_0, # of connection points: 5
#     Node 41, Type 0, BuildingBlock: BEQFEK_clean_sbu_0, # of connection points: 5
#     Node 42, Type 0, BuildingBlock: BEQFEK_clean_sbu_0, # of connection points: 5
#     Node 43, Type 0, BuildingBlock: BEQFEK_clean_sbu_0, # of connection points: 5
#     Node 44, Type 0, BuildingBlock: BEQFEK_clean_sbu_0, # of connection points: 5
#     Node 45, Type 0, BuildingBlock: BEQFEK_clean_sbu_0, # of connection points: 5
#     Node 46, Type 0, BuildingBlock: BEQFEK_clean_sbu_0, # of connection points: 5
#     Node 47, Type 0, BuildingBlock: BEQFEK_clean_sbu_0, # of connection points: 5
#     Edge 48, Type (0, 0), BuildingBlock: KIFKEQ_clean_linker_1, # of connection points: 2
#     Edge 49, Type (0, 0), BuildingBlock: KIFKEQ_clean_linker_1, # of connection points: 2
#     Edge 50, Type (0, 0), BuildingBlock: KIFKEQ_clean_linker_1, # of connection points: 2
#     Edge 51, Type (0, 0), BuildingBlock: KIFKEQ_clean_linker_1, # of connection points: 2
#     Edge 52, Type (0, 0), BuildingBlock: KIFKEQ_clean_linker_1, # of connection points: 2
#     Edge 53, Type (0, 0), BuildingBlock: KIFKEQ_clean_linker_1, # of connection points: 2
#     Edge 54, Type (0, 0), BuildingBlock: KIFKEQ_clean_linker_1, # of connection points: 2
#     Edge 55, Type (0, 0), BuildingBlock: KIFKEQ_clean_linker_1, # of connection points: 2
#     Edge 56, Type (0, 0), BuildingBlock: KIFKEQ_clean_linker_1, # of connection points: 2
#     Edge 57, Type (0, 0), BuildingBlock: KIFKEQ_clean_linker_1, # of connection points: 2
#     Edge 58, Type (0, 0), BuildingBlock: KIFKEQ_clean_linker_1, # of connection points: 2
#     Edge 59, Type (0, 0), BuildingBlock: KIFKEQ_clean_linker_1, # of connection points: 2
#     Edge 60, Type (0, 0), BuildingBlock: KIFKEQ_clean_linker_1, # of connection points: 2
#     Edge 61, Type (0, 0), BuildingBlock: KIFKEQ_clean_linker_1, # of connection points: 2
#     Edge 62, Type (0, 0), BuildingBlock: KIFKEQ_clean_linker_1, # of connection points: 2
#     Edge 63, Type (0, 0), BuildingBlock: KIFKEQ_clean_linker_1, # of connection points: 2
#     Edge 64, Type (0, 0), BuildingBlock: KIFKEQ_clean_linker_1, # of connection points: 2
#     Edge 65, Type (0, 0), BuildingBlock: KIFKEQ_clean_linker_1, # of connection points: 2
#     Edge 66, Type (0, 0), BuildingBlock: KIFKEQ_clean_linker_1, # of connection points: 2
#     Edge 67, Type (0, 0), BuildingBlock: KIFKEQ_clean_linker_1, # of connection points: 2
#     Edge 68, Type (0, 0), BuildingBlock: KIFKEQ_clean_linker_1, # of connection points: 2
#     Edge 69, Type (0, 0), BuildingBlock: KIFKEQ_clean_linker_1, # of connection points: 2
#     Edge 70, Type (0, 0), BuildingBlock: KIFKEQ_clean_linker_1, # of connection points: 2
#     Edge 71, Type (0, 0), BuildingBlock: KIFKEQ_clean_linker_1, # of connection points: 2
#     Edge 72, Type (0, 0), BuildingBlock: KIFKEQ_clean_linker_1, # of connection points: 2
#     Edge 73, Type (0, 0), BuildingBlock: KIFKEQ_clean_linker_1, # of connection points: 2
#     Edge 74, Type (0, 0), BuildingBlock: KIFKEQ_clean_linker_1, # of connection points: 2
#     Edge 75, Type (0, 0), BuildingBlock: KIFKEQ_clean_linker_1, # of connection points: 2
#     Edge 76, Type (0, 0), BuildingBlock: KIFKEQ_clean_linker_1, # of connection points: 2
#     Edge 77, Type (0, 0), BuildingBlock: KIFKEQ_clean_linker_1, # of connection points: 2
#     Edge 78, Type (0, 0), BuildingBlock: KIFKEQ_clean_linker_1, # of connection points: 2
#     Edge 79, Type (0, 0), BuildingBlock: KIFKEQ_clean_linker_1, # of connection points: 2
#     Edge 80, Type (0, 0), BuildingBlock: KIFKEQ_clean_linker_1, # of connection points: 2
#     Edge 81, Type (0, 0), BuildingBlock: KIFKEQ_clean_linker_1, # of connection points: 2
#     Edge 82, Type (0, 0), BuildingBlock: KIFKEQ_clean_linker_1, # of connection points: 2
#     Edge 83, Type (0, 0), BuildingBlock: KIFKEQ_clean_linker_1, # of connection points: 2
#     Edge 84, Type (0, 0), BuildingBlock: KIFKEQ_clean_linker_1, # of connection points: 2
#     Edge 85, Type (0, 0), BuildingBlock: KIFKEQ_clean_linker_1, # of connection points: 2
#     Edge 86, Type (0, 0), BuildingBlock: KIFKEQ_clean_linker_1, # of connection points: 2
#     Edge 87, Type (0, 0), BuildingBlock: KIFKEQ_clean_linker_1, # of connection points: 2
#     Edge 88, Type (0, 0), BuildingBlock: KIFKEQ_clean_linker_1, # of connection points: 2
#     Edge 89, Type (0, 0), BuildingBlock: KIFKEQ_clean_linker_1, # of connection points: 2
#     Edge 90, Type (0, 0), BuildingBlock: KIFKEQ_clean_linker_1, # of connection points: 2
#     Edge 91, Type (0, 0), BuildingBlock: KIFKEQ_clean_linker_1, # of connection points: 2
#     Edge 92, Type (0, 0), BuildingBlock: KIFKEQ_clean_linker_1, # of connection points: 2
#     Edge 93, Type (0, 0), BuildingBlock: KIFKEQ_clean_linker_1, # of connection points: 2
#     Edge 94, Type (0, 0), BuildingBlock: KIFKEQ_clean_linker_1, # of connection points: 2
#     Edge 95, Type (0, 0), BuildingBlock: KIFKEQ_clean_linker_1, # of connection points: 2
#     Edge 96, Type (0, 0), BuildingBlock: KIFKEQ_clean_linker_1, # of connection points: 2
#     Edge 97, Type (0, 0), BuildingBlock: KIFKEQ_clean_linker_1, # of connection points: 2
#     Edge 98, Type (0, 0), BuildingBlock: KIFKEQ_clean_linker_1, # of connection points: 2
#     Edge 99, Type (0, 0), BuildingBlock: KIFKEQ_clean_linker_1, # of connection points: 2
#     Edge 100, Type (0, 0), BuildingBlock: KIFKEQ_clean_linker_1, # of connection points: 2
#     Edge 101, Type (0, 0), BuildingBlock: KIFKEQ_clean_linker_1, # of connection points: 2
#     Edge 102, Type (0, 0), BuildingBlock: KIFKEQ_clean_linker_1, # of connection points: 2
#     Edge 103, Type (0, 0), BuildingBlock: KIFKEQ_clean_linker_1, # of connection points: 2
#     Edge 104, Type (0, 0), BuildingBlock: KIFKEQ_clean_linker_1, # of connection points: 2
#     Edge 105, Type (0, 0), BuildingBlock: KIFKEQ_clean_linker_1, # of connection points: 2
#     Edge 106, Type (0, 0), BuildingBlock: KIFKEQ_clean_linker_1, # of connection points: 2
#     Edge 107, Type (0, 0), BuildingBlock: KIFKEQ_clean_linker_1, # of connection points: 2
#     Edge 108, Type (0, 0), BuildingBlock: KIFKEQ_clean_linker_1, # of connection points: 2
#     Edge 109, Type (0, 0), BuildingBlock: KIFKEQ_clean_linker_1, # of connection points: 2
#     Edge 110, Type (0, 0), BuildingBlock: KIFKEQ_clean_linker_1, # of connection points: 2
#     Edge 111, Type (0, 0), BuildingBlock: KIFKEQ_clean_linker_1, # of connection points: 2
#     Edge 112, Type (0, 0), BuildingBlock: KIFKEQ_clean_linker_1, # of connection points: 2
#     Edge 113, Type (0, 0), BuildingBlock: KIFKEQ_clean_linker_1, # of connection points: 2
#     Edge 114, Type (0, 0), BuildingBlock: KIFKEQ_clean_linker_1, # of connection points: 2
#     Edge 115, Type (0, 0), BuildingBlock: KIFKEQ_clean_linker_1, # of connection points: 2
#     Edge 116, Type (0, 0), BuildingBlock: KIFKEQ_clean_linker_1, # of connection points: 2
#     Edge 117, Type (0, 0), BuildingBlock: KIFKEQ_clean_linker_1, # of connection points: 2
#     Edge 118, Type (0, 0), BuildingBlock: KIFKEQ_clean_linker_1, # of connection points: 2
#     Edge 119, Type (0, 0), BuildingBlock: KIFKEQ_clean_linker_1, # of connection points: 2
#     Edge 120, Type (0, 0), BuildingBlock: KIFKEQ_clean_linker_1, # of connection points: 2
#     Edge 121, Type (0, 0), BuildingBlock: KIFKEQ_clean_linker_1, # of connection points: 2
#     Edge 122, Type (0, 0), BuildingBlock: KIFKEQ_clean_linker_1, # of connection points: 2
#     Edge 123, Type (0, 0), BuildingBlock: KIFKEQ_clean_linker_1, # of connection points: 2
#     Edge 124, Type (0, 0), BuildingBlock: KIFKEQ_clean_linker_1, # of connection points: 2
#     Edge 125, Type (0, 0), BuildingBlock: KIFKEQ_clean_linker_1, # of connection points: 2
#     Edge 126, Type (0, 0), BuildingBlock: KIFKEQ_clean_linker_1, # of connection points: 2
#     Edge 127, Type (0, 0), BuildingBlock: KIFKEQ_clean_linker_1, # of connection points: 2
#     Edge 128, Type (0, 0), BuildingBlock: KIFKEQ_clean_linker_1, # of connection points: 2
#     Edge 129, Type (0, 0), BuildingBlock: KIFKEQ_clean_linker_1, # of connection points: 2
#     Edge 130, Type (0, 0), BuildingBlock: KIFKEQ_clean_linker_1, # of connection points: 2
#     Edge 131, Type (0, 0), BuildingBlock: KIFKEQ_clean_linker_1, # of connection points: 2
#     Edge 132, Type (0, 0), BuildingBlock: KIFKEQ_clean_linker_1, # of connection points: 2
#     Edge 133, Type (0, 0), BuildingBlock: KIFKEQ_clean_linker_1, # of connection points: 2
#     Edge 134, Type (0, 0), BuildingBlock: KIFKEQ_clean_linker_1, # of connection points: 2
#     Edge 135, Type (0, 0), BuildingBlock: KIFKEQ_clean_linker_1, # of connection points: 2
#     Edge 136, Type (0, 0), BuildingBlock: KIFKEQ_clean_linker_1, # of connection points: 2
#     Edge 137, Type (0, 0), BuildingBlock: KIFKEQ_clean_linker_1, # of connection points: 2
#     Edge 138, Type (0, 0), BuildingBlock: KIFKEQ_clean_linker_1, # of connection points: 2
#     Edge 139, Type (0, 0), BuildingBlock: KIFKEQ_clean_linker_1, # of connection points: 2
#     Edge 140, Type (0, 0), BuildingBlock: KIFKEQ_clean_linker_1, # of connection points: 2
#     Edge 141, Type (0, 0), BuildingBlock: KIFKEQ_clean_linker_1, # of connection points: 2
#     Edge 142, Type (0, 0), BuildingBlock: KIFKEQ_clean_linker_1, # of connection points: 2
#     Edge 143, Type (0, 0), BuildingBlock: KIFKEQ_clean_linker_1, # of connection points: 2
#     Edge 144, Type (0, 0), BuildingBlock: KIFKEQ_clean_linker_1, # of connection points: 2
#     Edge 145, Type (0, 0), BuildingBlock: KIFKEQ_clean_linker_1, # of connection points: 2
#     Edge 146, Type (0, 0), BuildingBlock: KIFKEQ_clean_linker_1, # of connection points: 2
#     Edge 147, Type (0, 0), BuildingBlock: KIFKEQ_clean_linker_1, # of connection points: 2
#     Edge 148, Type (0, 0), BuildingBlock: KIFKEQ_clean_linker_1, # of connection points: 2
#     Edge 149, Type (0, 0), BuildingBlock: KIFKEQ_clean_linker_1, # of connection points: 2
#     Edge 150, Type (0, 0), BuildingBlock: KIFKEQ_clean_linker_1, # of connection points: 2
#     Edge 151, Type (0, 0), BuildingBlock: KIFKEQ_clean_linker_1, # of connection points: 2
#     Edge 152, Type (0, 0), BuildingBlock: KIFKEQ_clean_linker_1, # of connection points: 2
#     Edge 153, Type (0, 0), BuildingBlock: KIFKEQ_clean_linker_1, # of connection points: 2
#     Edge 154, Type (0, 0), BuildingBlock: KIFKEQ_clean_linker_1, # of connection points: 2
#     Edge 155, Type (0, 0), BuildingBlock: KIFKEQ_clean_linker_1, # of connection points: 2
#     Edge 156, Type (0, 0), BuildingBlock: KIFKEQ_clean_linker_1, # of connection points: 2
#     Edge 157, Type (0, 0), BuildingBlock: KIFKEQ_clean_linker_1, # of connection points: 2
#     Edge 158, Type (0, 0), BuildingBlock: KIFKEQ_clean_linker_1, # of connection points: 2
#     Edge 159, Type (0, 0), BuildingBlock: KIFKEQ_clean_linker_1, # of connection points: 2
#     Edge 160, Type (0, 0), BuildingBlock: KIFKEQ_clean_linker_1, # of connection points: 2
#     Edge 161, Type (0, 0), BuildingBlock: KIFKEQ_clean_linker_1, # of connection points: 2
#     Edge 162, Type (0, 0), BuildingBlock: KIFKEQ_clean_linker_1, # of connection points: 2
#     Edge 163, Type (0, 0), BuildingBlock: KIFKEQ_clean_linker_1, # of connection points: 2
#     Edge 164, Type (0, 0), BuildingBlock: KIFKEQ_clean_linker_1, # of connection points: 2
#     Edge 165, Type (0, 0), BuildingBlock: KIFKEQ_clean_linker_1, # of connection points: 2
#     Edge 166, Type (0, 0), BuildingBlock: KIFKEQ_clean_linker_1, # of connection points: 2
#     Edge 167, Type (0, 0), BuildingBlock: KIFKEQ_clean_linker_1, # of connection points: 2
# Relax obj value: 0.491
# Max RMSD: 0.190
# Mean RMSD: 0.190
data_MOF--net-fcn--node1-BEQFEK_clean_sbu_0--edge1-KIFKEQ_clean_linker_1
_symmetry_space_group_name_H-M    P1
_symmetry_Int_Tables_number       1
_symmetry_cell_setting            triclinic
loop_
_symmetry_equiv_pos_as_xyz
'x, y, z'
_cell_length_a     73.960705
_cell_length_b     73.933899
_cell_length_c     73.959077
_cell_angle_alpha  90.012915
_cell_angle_beta   90.013564
_cell_angle_gamma 89.993884
loop_
_atom_site_label
_atom_site_type_symbol
_atom_site_fract_x
_atom_site_fract_y
_atom_site_fract_z
_atom_type_partial_charge
Co0 Co 0.0734 0.18042 0.30188 0.0
Co1 Co 0.1023 0.15781 0.28078 0.0
C2 C 0.10023 0.15692 0.32125 0.0
O3 O 0.0868 0.16775 0.32196 0.0
O4 O 0.10706 0.15212 0.30622 0.0
C5 C 0.05677 0.20991 0.32345 0.0
O6 O 0.0727 0.21337 0.33051 0.0
C7 C 0.13846 0.14567 0.26935 0.0
C8 C 0.13241 0.13383 0.24258 0.0
C9 C 0.14642 0.13761 0.25442 0.0
N10 N 0.12055 0.14672 0.2664 0.0
N11 N 0.117 0.13934 0.25051 0.0
C12 C 0.14782 0.15379 0.28534 0.0
H13 H 0.13902 0.16397 0.29199 0.0
H14 H 0.16076 0.16015 0.28116 0.0
H15 H 0.15095 0.14292 0.29519 0.0
C16 C 0.0903 0.21002 0.27953 0.0
N17 N 0.08963 0.19288 0.28588 0.0
N18 N 0.10192 0.18317 0.27738 0.0
C19 C 0.11089 0.19377 0.26563 0.0
C20 C 0.104 0.21118 0.26671 0.0
C21 C 0.07736 0.22467 0.28474 0.0
H22 H 0.06332 0.21942 0.28435 0.0
H23 H 0.08036 0.22906 0.29875 0.0
H24 H 0.07854 0.2366 0.27572 0.0
O25 O 0.05858 0.1632 0.2874 0.0
O26 O 0.0792 0.14759 0.27233 0.0
H27 H 0.11772 0.17511 0.24459 0.0
H28 H 0.12749 0.19705 0.24148 0.0
C29 C 0.12387 0.18674 0.25173 0.0
H30 H 0.13639 0.18213 0.25854 0.0
H31 H 0.10411 0.1386 0.24482 0.0
O32 O 0.05508 0.19723 0.31198 0.0
C33 C 0.06276 0.15109 0.2759 0.0
Co34 Co 0.0692 0.82451 0.55215 0.0
Co35 Co 0.09731 0.85005 0.53325 0.0
C36 C 0.09198 0.84926 0.57383 0.0
O37 O 0.07992 0.83693 0.57379 0.0
O38 O 0.09925 0.85472 0.55926 0.0
C39 C 0.03764 0.80768 0.57119 0.0
O40 O 0.03534 0.82241 0.58086 0.0
C41 C 0.11043 0.88621 0.52346 0.0
C42 C 0.13432 0.87982 0.50671 0.0
C43 C 0.12457 0.89408 0.51396 0.0
N44 N 0.11175 0.86814 0.52182 0.0
N45 N 0.12604 0.86441 0.51177 0.0
C46 C 0.09676 0.89555 0.53511 0.0
H47 H 0.08968 0.88571 0.54393 0.0
H48 H 0.08655 0.90231 0.52647 0.0
H49 H 0.10345 0.90609 0.54344 0.0
C50 C 0.04446 0.84385 0.52658 0.0
N51 N 0.06069 0.84148 0.53457 0.0
N52 N 0.07279 0.85143 0.52607 0.0
C53 C 0.06478 0.86009 0.51223 0.0
C54 C 0.04649 0.85585 0.51222 0.0
C55 C 0.02759 0.83422 0.53218 0.0
H56 H 0.02891 0.81963 0.52895 0.0
H57 H 0.02583 0.83554 0.547 0.0
H58 H 0.01549 0.8398 0.52528 0.0
O59 O 0.08692 0.80836 0.53997 0.0
O60 O 0.10708 0.82608 0.52662 0.0
H61 H 0.08867 0.86396 0.49605 0.0
H62 H 0.06783 0.86852 0.48437 0.0
C63 C 0.07492 0.8697 0.49754 0.0
H64 H 0.07604 0.88425 0.50098 0.0
H65 H 0.13033 0.85134 0.50862 0.0
O66 O 0.05009 0.80706 0.55936 0.0
C67 C 0.10096 0.81041 0.53022 0.0
Co68 Co 0.42922 0.81988 0.79973 0.0
Co69 Co 0.39715 0.83944 0.78011 0.0
C70 C 0.40277 0.843 0.81999 0.0
O71 O 0.41679 0.83296 0.82009 0.0
O72 O 0.39425 0.84657 0.8055 0.0
C73 C 0.44799 0.79224 0.82139 0.0
O74 O 0.43232 0.78867 0.82894 0.0
C75 C 0.36 0.85125 0.77192 0.0
C76 C 0.36251 0.85863 0.74306 0.0
C77 C 0.35026 0.85746 0.75716 0.0
N78 N 0.37723 0.84873 0.76671 0.0
N79 N 0.37869 0.85344 0.74953 0.0
C80 C 0.35287 0.84643 0.79022 0.0
H81 H 0.36057 0.83485 0.79587 0.0
H82 H 0.33827 0.84304 0.78958 0.0
H83 H 0.35467 0.85818 0.79939 0.0
C84 C 0.413 0.78848 0.77943 0.0
N85 N 0.41255 0.80567 0.78564 0.0
N86 N 0.39863 0.81399 0.77827 0.0
C87 C 0.38957 0.80237 0.7676 0.0
C88 C 0.39833 0.78576 0.76794 0.0
C89 C 0.42801 0.77543 0.78314 0.0
H90 H 0.44124 0.78231 0.78155 0.0
H91 H 0.42689 0.77062 0.79728 0.0
H92 H 0.42738 0.76349 0.77408 0.0
O93 O 0.44177 0.83725 0.78354 0.0
O94 O 0.41892 0.84997 0.76882 0.0
H95 H 0.38024 0.81776 0.74503 0.0
H96 H 0.36881 0.79654 0.74743 0.0
C97 C 0.37475 0.80801 0.75498 0.0
H98 H 0.36386 0.81472 0.76278 0.0
H99 H 0.39066 0.85269 0.7421 0.0
O100 O 0.44903 0.80451 0.80941 0.0
C101 C 0.43579 0.84799 0.77151 0.0
Co102 Co 0.43187 0.17657 0.05211 0.0
Co103 Co 0.41238 0.14525 0.03111 0.0
C104 C 0.41069 0.14803 0.0715 0.0
O105 O 0.42018 0.16243 0.07219 0.0
O106 O 0.40671 0.14053 0.05654 0.0
C107 C 0.45946 0.1951 0.07416 0.0
O108 O 0.46355 0.17928 0.08114 0.0
C109 C 0.39942 0.1087 0.02128 0.0
C110 C 0.39364 0.11224 0.99218 0.0
C111 C 0.39336 0.09965 0.00602 0.0
N112 N 0.40315 0.12591 0.01664 0.0
N113 N 0.39946 0.12795 0.99928 0.0
C114 C 0.40283 0.10092 0.03961 0.0
H115 H 0.41549 0.10665 0.04527 0.0
H116 H 0.40383 0.08595 0.0391 0.0
H117 H 0.39151 0.10472 0.0487 0.0
C118 C 0.46275 0.16274 0.02977 0.0
N119 N 0.44584 0.1613 0.0365 0.0
N120 N 0.43773 0.14754 0.0286 0.0
C121 C 0.44942 0.13936 0.01731 0.0
C122 C 0.46563 0.14874 0.01755 0.0
C123 C 0.47512 0.17834 0.03336 0.0
H124 H 0.46742 0.1912 0.03274 0.0
H125 H 0.48082 0.17696 0.04716 0.0
H126 H 0.48647 0.17875 0.02356 0.0
O127 O 0.41376 0.18957 0.03732 0.0
O128 O 0.40057 0.16755 0.02189 0.0
H129 H 0.43569 0.13015 0.99363 0.0
H130 H 0.45642 0.11825 0.99819 0.0
C131 C 0.44435 0.12452 0.0045 0.0
H132 H 0.43668 0.11393 0.0118 0.0
H133 H 0.40118 0.14005 0.9922 0.0
O134 O 0.44704 0.1962 0.06234 0.0
C135 C 0.40247 0.18428 0.02548 0.0
Co136 Co 0.0749 0.8179 0.19818 0.0
Co137 Co 0.10244 0.84367 0.21754 0.0
C138 C 0.1011 0.8399 0.177 0.0
O139 O 0.08806 0.82862 0.17703 0.0
O140 O 0.10731 0.84646 0.19163 0.0
C141 C 0.05816 0.78717 0.17832 0.0
O142 O 0.07377 0.78381 0.17054 0.0
C143 C 0.13871 0.85659 0.22759 0.0
C144 C 0.13208 0.87875 0.24653 0.0
C145 C 0.14638 0.87022 0.23797 0.0
N146 N 0.12068 0.85706 0.22994 0.0
N147 N 0.11683 0.87028 0.24134 0.0
C148 C 0.14814 0.84438 0.2145 0.0
H149 H 0.13825 0.83637 0.20657 0.0
H150 H 0.15709 0.83493 0.22194 0.0
H151 H 0.15676 0.85252 0.20529 0.0
C152 C 0.09141 0.79171 0.22411 0.0
N153 N 0.09108 0.80789 0.2157 0.0
N154 N 0.10261 0.81882 0.2238 0.0
C155 C 0.11073 0.8099 0.23743 0.0
C156 C 0.10404 0.79239 0.23799 0.0
C157 C 0.07852 0.77663 0.22021 0.0
H158 H 0.06444 0.78175 0.221 0.0
H159 H 0.08084 0.77167 0.20625 0.0
H160 H 0.08027 0.76521 0.22979 0.0
O161 O 0.05961 0.83596 0.21066 0.0
O162 O 0.07882 0.85436 0.22447 0.0
H163 H 0.11638 0.83177 0.25563 0.0
H164 H 0.12446 0.81003 0.26339 0.0
C165 C 0.12248 0.81875 0.25135 0.0
H166 H 0.13589 0.82163 0.24533 0.0
H167 H 0.10374 0.87383 0.24523 0.0
O168 O 0.05687 0.79997 0.1897 0.0
C169 C 0.06273 0.84948 0.22082 0.0
Co170 Co 0.43141 0.8227 0.44812 0.0
Co171 Co 0.40741 0.85139 0.46793 0.0
C172 C 0.40819 0.8483 0.4274 0.0
O173 O 0.41923 0.83503 0.42712 0.0
O174 O 0.40287 0.8552 0.4422 0.0
C175 C 0.46057 0.80508 0.42673 0.0
O176 O 0.4628 0.82018 0.41764 0.0
C177 C 0.39559 0.88805 0.47786 0.0
C178 C 0.3744 0.88213 0.49808 0.0
C179 C 0.38282 0.8961 0.48892 0.0
N180 N 0.3948 0.87006 0.48038 0.0
N181 N 0.38212 0.86663 0.4925 0.0
C182 C 0.4073 0.89713 0.46411 0.0
H183 H 0.41638 0.8872 0.45745 0.0
H184 H 0.4155 0.90786 0.47064 0.0
H185 H 0.39863 0.90373 0.45379 0.0
C186 C 0.46 0.84164 0.47008 0.0
N187 N 0.44289 0.83988 0.4639 0.0
N188 N 0.43254 0.85172 0.47232 0.0
C189 C 0.44262 0.86125 0.48407 0.0
C190 C 0.46039 0.85544 0.48284 0.0
C191 C 0.47541 0.82985 0.46442 0.0
H192 H 0.47175 0.81545 0.46652 0.0
H193 H 0.47799 0.83185 0.44979 0.0
H194 H 0.48793 0.83305 0.47204 0.0
O195 O 0.41408 0.80791 0.4626 0.0
O196 O 0.39745 0.8284 0.47673 0.0
H197 H 0.42162 0.86896 0.50264 0.0
H198 H 0.44402 0.87494 0.50997 0.0
C199 C 0.43501 0.87383 0.49803 0.0
H200 H 0.43344 0.88748 0.49204 0.0
H201 H 0.37851 0.85367 0.49675 0.0
O202 O 0.44886 0.80431 0.43927 0.0
C203 C 0.40154 0.81199 0.47366 0.0
Co204 Co 0.42668 0.18323 0.69903 0.0
Co205 Co 0.39756 0.15909 0.71819 0.0
C206 C 0.40107 0.16071 0.67758 0.0
O207 O 0.41442 0.17167 0.67762 0.0
O208 O 0.39399 0.15507 0.69221 0.0
C209 C 0.44751 0.21006 0.67722 0.0
O210 O 0.43639 0.20762 0.66359 0.0
C211 C 0.3608 0.14669 0.72694 0.0
C212 C 0.36522 0.1329 0.75307 0.0
C213 C 0.35195 0.13772 0.74078 0.0
N214 N 0.37854 0.1472 0.73088 0.0
N215 N 0.38112 0.13868 0.74638 0.0
C216 C 0.35237 0.15605 0.71113 0.0
H217 H 0.36167 0.16642 0.70556 0.0
H218 H 0.3394 0.16245 0.71516 0.0
H219 H 0.34941 0.1459 0.70048 0.0
C220 C 0.40788 0.2115 0.72107 0.0
N221 N 0.40946 0.19445 0.71473 0.0
N222 N 0.39746 0.18415 0.72291 0.0
C223 C 0.38795 0.19421 0.7347 0.0
C224 C 0.39406 0.21195 0.73381 0.0
C225 C 0.4199 0.2268 0.7156 0.0
H226 H 0.42027 0.22773 0.70063 0.0
H227 H 0.41515 0.23986 0.72128 0.0
H228 H 0.43386 0.22407 0.72038 0.0
O229 O 0.44108 0.16524 0.71306 0.0
O230 O 0.42043 0.14861 0.72698 0.0
H231 H 0.37213 0.19601 0.75948 0.0
H232 H 0.36232 0.18273 0.74154 0.0
C233 C 0.37515 0.18644 0.74836 0.0
H234 H 0.38111 0.1741 0.75437 0.0
H235 H 0.39367 0.13733 0.75269 0.0
O236 O 0.44507 0.2014 0.69186 0.0
C237 C 0.43688 0.15252 0.72387 0.0
Co238 Co 0.06659 0.17819 0.94828 0.0
Co239 Co 0.08779 0.1479 0.96896 0.0
C240 C 0.08957 0.15074 0.92878 0.0
O241 O 0.07932 0.16464 0.92835 0.0
O242 O 0.09389 0.14323 0.94363 0.0
C243 C 0.03772 0.1956 0.92673 0.0
O244 O 0.03334 0.17956 0.92046 0.0
C245 C 0.10035 0.11165 0.98022 0.0
C246 C 0.10881 0.11715 0.00835 0.0
C247 C 0.10727 0.1035 0.99563 0.0
N248 N 0.09786 0.12933 0.98373 0.0
N249 N 0.10318 0.13255 0.00049 0.0
C250 C 0.0947 0.10258 0.96306 0.0
H251 H 0.08399 0.11056 0.9562 0.0
H252 H 0.08973 0.08868 0.9658 0.0
H253 H 0.10656 0.10161 0.95393 0.0
C254 C 0.03644 0.16278 0.97047 0.0
N255 N 0.05338 0.16222 0.9637 0.0
N256 N 0.06228 0.14899 0.97164 0.0
C257 C 0.05111 0.1403 0.98307 0.0
C258 C 0.03437 0.14872 0.98275 0.0
C259 C 0.02328 0.17776 0.96703 0.0
H260 H 0.03042 0.19095 0.96705 0.0
H261 H 0.01705 0.17578 0.95354 0.0
H262 H 0.01233 0.17795 0.97729 0.0
O263 O 0.0836 0.19209 0.96352 0.0
O264 O 0.0989 0.17068 0.97783 0.0
H265 H 0.06677 0.13191 0.00586 0.0
H266 H 0.04552 0.1202 0.00373 0.0
C267 C 0.05705 0.12599 0.9961 0.0
H268 H 0.06387 0.11494 0.98863 0.0
H269 H 0.10254 0.1452 0.0067 0.0
O270 O 0.0507 0.19713 0.93787 0.0
C271 C 0.09565 0.18729 0.97479 0.0
Co272 Co 0.30213 0.07212 0.18075 0.0
Co273 Co 0.28426 0.0979 0.15215 0.0
C274 C 0.32474 0.09302 0.15545 0.0
O275 O 0.32413 0.0823 0.16891 0.0
O276 O 0.31049 0.09918 0.14808 0.0
C277 C 0.32209 0.05494 0.21119 0.0
O278 O 0.33328 0.06872 0.21159 0.0
C279 C 0.27613 0.13445 0.13888 0.0
C280 C 0.25819 0.12875 0.11567 0.0
C281 C 0.26631 0.1427 0.12519 0.0
N282 N 0.27379 0.11645 0.13758 0.0
N283 N 0.2631 0.11314 0.12364 0.0
C284 C 0.28857 0.14334 0.15213 0.0
H285 H 0.29744 0.13316 0.1587 0.0
H286 H 0.28058 0.15028 0.16273 0.0
H287 H 0.29689 0.15372 0.14517 0.0
C288 C 0.27931 0.09417 0.20554 0.0
N289 N 0.28654 0.09077 0.18916 0.0
N290 N 0.2784 0.10093 0.17699 0.0
C291 C 0.2654 0.1107 0.18516 0.0
C292 C 0.26574 0.10703 0.20358 0.0
C293 C 0.28464 0.08447 0.22246 0.0
H294 H 0.27975 0.0703 0.22178 0.0
H295 H 0.29958 0.08414 0.22354 0.0
H296 H 0.27895 0.09114 0.23464 0.0
O297 O 0.28807 0.05637 0.1639 0.0
O298 O 0.27504 0.0744 0.14377 0.0
H299 H 0.24876 0.11466 0.16156 0.0
H300 H 0.23768 0.11968 0.18259 0.0
C301 C 0.2507 0.12051 0.1752 0.0
H302 H 0.25435 0.13499 0.1739 0.0
H303 H 0.25921 0.10021 0.11953 0.0
O304 O 0.30893 0.0549 0.20014 0.0
C305 C 0.27789 0.05871 0.1502 0.0
Co306 Co 0.17792 0.05119 0.43223 0.0
Co307 Co 0.14673 0.03061 0.41209 0.0
C308 C 0.15017 0.0709 0.4099 0.0
O309 O 0.16424 0.07133 0.41991 0.0
O310 O 0.14247 0.05605 0.40588 0.0
C311 C 0.19629 0.07224 0.46089 0.0
O312 O 0.18039 0.07869 0.46552 0.0
C313 C 0.11009 0.02042 0.39971 0.0
C314 C 0.11442 0.99187 0.392 0.0
C315 C 0.10134 0.00522 0.39306 0.0
N316 N 0.12757 0.01621 0.40249 0.0
N317 N 0.13009 0.99918 0.39764 0.0
C318 C 0.10175 0.03815 0.40467 0.0
H319 H 0.10953 0.04467 0.41572 0.0
H320 H 0.08747 0.0363 0.4089 0.0
H321 H 0.10198 0.04714 0.39267 0.0
C322 C 0.16376 0.0283 0.46254 0.0
N323 N 0.1623 0.03562 0.44587 0.0
N324 N 0.14853 0.02799 0.43751 0.0
C325 C 0.1404 0.01627 0.4488 0.0
C326 C 0.1498 0.01595 0.46501 0.0
C327 C 0.1795 0.03127 0.47491 0.0
H328 H 0.19227 0.03111 0.46705 0.0
H329 H 0.17813 0.04471 0.48139 0.0
H330 H 0.18009 0.02086 0.4857 0.0
O331 O 0.19112 0.03623 0.41442 0.0
O332 O 0.16914 0.02116 0.40076 0.0
H333 H 0.13151 0.99321 0.43384 0.0
H334 H 0.11985 0.99626 0.45498 0.0
C335 C 0.12579 0.00341 0.44322 0.0
H336 H 0.11491 0.01091 0.43617 0.0
H337 H 0.14246 0.99245 0.39852 0.0
O338 O 0.19746 0.06122 0.44776 0.0
C339 C 0.18587 0.02449 0.403 0.0
Co340 Co 0.19781 0.92746 0.68309 0.0
Co341 Co 0.21806 0.89959 0.65826 0.0
C342 C 0.17754 0.90172 0.65923 0.0
O343 O 0.17726 0.91479 0.67051 0.0
O344 O 0.19235 0.89505 0.65356 0.0
C345 C 0.17687 0.94355 0.71352 0.0
O346 O 0.16945 0.92772 0.71667 0.0
C347 C 0.22822 0.86375 0.64392 0.0
C348 C 0.255 0.86951 0.63203 0.0
C349 C 0.24268 0.85575 0.6351 0.0
N350 N 0.23183 0.88146 0.64602 0.0
N351 N 0.24775 0.88484 0.63864 0.0
C352 C 0.21201 0.85445 0.65163 0.0
H353 H 0.20612 0.86257 0.6628 0.0
H354 H 0.21567 0.84078 0.65662 0.0
H355 H 0.20173 0.85286 0.64083 0.0
C356 C 0.22034 0.90868 0.71117 0.0
N357 N 0.21391 0.91052 0.69417 0.0
N358 N 0.22229 0.89889 0.68358 0.0
C359 C 0.23406 0.88917 0.69347 0.0
C360 C 0.23311 0.8949 0.71131 0.0
C361 C 0.21503 0.92045 0.72674 0.0
H362 H 0.21572 0.93487 0.72265 0.0
H363 H 0.2009 0.91734 0.73059 0.0
H364 H 0.2238 0.91817 0.73869 0.0
O365 O 0.21217 0.94275 0.66633 0.0
O366 O 0.22611 0.92319 0.64839 0.0
H367 H 0.25468 0.88303 0.67415 0.0
H368 H 0.25792 0.872 0.6955 0.0
C369 C 0.24762 0.87636 0.68554 0.0
H370 H 0.24051 0.86424 0.68032 0.0
H371 H 0.2539 0.89755 0.63856 0.0
O372 O 0.18831 0.94527 0.70081 0.0
C373 C 0.22291 0.93936 0.65332 0.0
Co374 Co 0.31983 0.95052 0.92682 0.0
Co375 Co 0.35017 0.97024 0.9047 0.0
C376 C 0.34656 0.92998 0.90422 0.0
O377 O 0.33271 0.92991 0.91452 0.0
O378 O 0.35434 0.94457 0.89954 0.0
C379 C 0.30175 0.92928 0.95558 0.0
O380 O 0.3173 0.92135 0.95887 0.0
C381 C 0.38688 0.97994 0.89262 0.0
C382 C 0.38235 0.00747 0.88188 0.0
C383 C 0.39564 0.99467 0.88504 0.0
N384 N 0.36919 0.98392 0.89398 0.0
N385 N 0.36654 1.00027 0.88725 0.0
C386 C 0.3953 0.96304 0.89989 0.0
H387 H 0.38707 0.95758 0.91119 0.0
H388 H 0.40932 0.96565 0.90456 0.0
H389 H 0.39576 0.95275 0.88898 0.0
C390 C 0.33708 0.97233 0.95663 0.0
N391 N 0.33639 0.96604 0.93948 0.0
N392 N 0.34925 0.97394 0.93001 0.0
C393 C 0.35863 0.9852 0.94079 0.0
C394 C 0.35138 0.98447 0.95806 0.0
C395 C 0.32379 0.96754 0.97109 0.0
H396 H 0.30983 0.96873 0.96572 0.0
H397 H 0.32599 0.9533 0.97521 0.0
H398 H 0.32533 0.9763 0.98317 0.0
O399 O 0.30606 0.96519 0.90903 0.0
O400 O 0.32756 0.97921 0.89363 0.0
H401 H 0.36699 0.00617 0.92273 0.0
H402 H 0.37717 0.00782 0.94464 0.0
C403 C 0.37265 0.99821 0.93408 0.0
H404 H 0.38453 0.99055 0.92911 0.0
H405 H 0.354 0.00674 0.88686 0.0
O406 O 0.30072 0.94121 0.94326 0.0
C407 C 0.31092 0.97623 0.89676 0.0
Co408 Co 0.30151 0.92825 0.31999 0.0
Co409 Co 0.28056 0.89731 0.33978 0.0
C410 C 0.32078 0.89983 0.34194 0.0
O411 O 0.32135 0.91402 0.3321 0.0
O412 O 0.30583 0.89236 0.346 0.0
C413 C 0.32292 0.94582 0.2914 0.0
O414 O 0.32841 0.92963 0.28656 0.0
C415 C 0.26914 0.86094 0.35175 0.0
C416 C 0.24086 0.86632 0.35976 0.0
C417 C 0.25366 0.85273 0.3584 0.0
N418 N 0.2656 0.87861 0.34924 0.0
N419 N 0.24874 0.88175 0.35427 0.0
C420 C 0.28645 0.85196 0.34642 0.0
H421 H 0.29338 0.85989 0.33573 0.0
H422 H 0.2839 0.83799 0.34155 0.0
H423 H 0.29542 0.8512 0.35842 0.0
C424 C 0.27876 0.91438 0.28932 0.0
N425 N 0.2858 0.91297 0.30612 0.0
N426 N 0.27805 0.89924 0.31439 0.0
C427 C 0.26653 0.89104 0.30292 0.0
C428 C 0.26652 0.90035 0.28667 0.0
C429 C 0.28192 0.93005 0.27692 0.0
H430 H 0.28245 0.94281 0.28479 0.0
H431 H 0.29508 0.9282 0.27 0.0
H432 H 0.27121 0.93103 0.26645 0.0
O433 O 0.28668 0.94176 0.33773 0.0
O434 O 0.27151 0.91978 0.35121 0.0
H435 H 0.24352 0.88192 0.31781 0.0
H436 H 0.24647 0.87061 0.29646 0.0
C437 C 0.25367 0.87635 0.30829 0.0
H438 H 0.26119 0.86536 0.31514 0.0
H439 H 0.24251 0.89439 0.35359 0.0
O440 O 0.31216 0.94751 0.30467 0.0
C441 C 0.2749 0.93651 0.34909 0.0
Co442 Co 0.32342 0.05189 0.57116 0.0
Co443 Co 0.35167 0.03219 0.59603 0.0
C444 C 0.34939 0.07284 0.59378 0.0
O445 O 0.33627 0.07299 0.58257 0.0
O446 O 0.35585 0.05809 0.59978 0.0
C447 C 0.30602 0.07197 0.54078 0.0
O448 O 0.32141 0.08022 0.53753 0.0
C449 C 0.38836 0.02275 0.60842 0.0
C450 C 0.38244 0.00248 0.62955 0.0
C451 C 0.39643 0.01195 0.62148 0.0
N452 N 0.37041 0.01977 0.60877 0.0
N453 N 0.367 0.00757 0.62137 0.0
C454 C 0.39731 0.03676 0.59689 0.0
H455 H 0.38714 0.04468 0.58923 0.0
H456 H 0.40654 0.03013 0.58712 0.0
H457 H 0.40556 0.04589 0.60549 0.0
C458 C 0.34084 0.02779 0.54379 0.0
N459 N 0.34009 0.03529 0.5604 0.0
N460 N 0.3519 0.02708 0.57094 0.0
C461 C 0.3606 0.01429 0.56135 0.0
C462 C 0.35405 0.01445 0.54379 0.0
C463 C 0.32787 0.03192 0.52883 0.0
H464 H 0.31381 0.03082 0.53392 0.0
H465 H 0.33005 0.04601 0.52422 0.0
H466 H 0.32973 0.02266 0.51716 0.0
O467 O 0.3086 0.03819 0.58883 0.0
O468 O 0.32831 0.02419 0.60654 0.0
H469 H 0.36705 0.99524 0.58225 0.0
H470 H 0.37538 0.98894 0.56014 0.0
C471 C 0.37294 0.00043 0.56948 0.0
H472 H 0.3861 0.00684 0.57264 0.0
H473 H 0.35406 0.00304 0.62472 0.0
O474 O 0.30504 0.06042 0.55347 0.0
C475 C 0.31209 0.02757 0.6019 0.0
Co476 Co 0.19704 0.07769 0.81656 0.0
Co477 Co 0.2168 0.10595 0.84125 0.0
C478 C 0.1763 0.10259 0.84068 0.0
O479 O 0.17616 0.0896 0.82931 0.0
O480 O 0.19102 0.1096 0.84615 0.0
C481 C 0.17735 0.04797 0.80065 0.0
O482 O 0.17012 0.0464 0.8168 0.0
C483 C 0.22607 0.14191 0.85552 0.0
C484 C 0.25265 0.13668 0.86812 0.0
C485 C 0.24016 0.15018 0.86465 0.0
N486 N 0.23004 0.12426 0.85365 0.0
N487 N 0.24584 0.12118 0.86144 0.0
C488 C 0.20988 0.15087 0.84739 0.0
H489 H 0.20412 0.1424 0.83642 0.0
H490 H 0.21353 0.16441 0.84204 0.0
H491 H 0.19951 0.15275 0.85806 0.0
C492 C 0.21896 0.09701 0.78863 0.0
N493 N 0.21259 0.09525 0.80563 0.0
N494 N 0.22095 0.10694 0.81613 0.0
C495 C 0.23292 0.11643 0.80626 0.0
C496 C 0.23199 0.11058 0.78842 0.0
C497 C 0.21351 0.08512 0.77321 0.0
H498 H 0.19855 0.08425 0.77258 0.0
H499 H 0.21874 0.09033 0.76015 0.0
H500 H 0.21883 0.07128 0.77554 0.0
O501 O 0.21156 0.06232 0.83335 0.0
O502 O 0.22552 0.08257 0.8505 0.0
H503 H 0.25774 0.13231 0.80474 0.0
H504 H 0.24029 0.14119 0.81927 0.0
C505 C 0.24691 0.12865 0.81439 0.0
H506 H 0.25329 0.1218 0.82608 0.0
H507 H 0.25219 0.10859 0.86176 0.0
O508 O 0.18834 0.06083 0.79759 0.0
C509 C 0.22255 0.06622 0.84603 0.0
Co510 Co 0.17667 0.94727 0.0688 0.0
Co511 Co 0.14998 0.96559 0.09629 0.0
C512 C 0.1518 0.9251 0.09117 0.0
O513 O 0.1645 0.9255 0.0795 0.0
O514 O 0.14564 0.93951 0.09824 0.0
C515 C 0.1936 0.92813 0.03756 0.0
O516 O 0.17881 0.91853 0.03544 0.0
C517 C 0.11368 0.97552 0.10918 0.0
C518 C 0.12008 0.99316 0.13244 0.0
C519 C 0.10584 0.98563 0.12289 0.0
N520 N 0.13175 0.97709 0.1105 0.0
N521 N 0.13547 0.98763 0.12445 0.0
C522 C 0.10427 0.96344 0.09594 0.0
H523 H 0.1142 0.95606 0.08746 0.0
H524 H 0.0953 0.97154 0.08708 0.0
H525 H 0.09564 0.95365 0.10335 0.0
C526 C 0.1569 0.97195 0.04346 0.0
N527 N 0.15945 0.9644 0.05988 0.0
N528 N 0.14889 0.97259 0.07168 0.0
C529 C 0.13956 0.98573 0.06325 0.0
C530 C 0.14404 0.98557 0.04504 0.0
C531 C 0.16698 0.96653 0.0268 0.0
H532 H 0.16536 0.95179 0.02462 0.0
H533 H 0.16202 0.97385 0.01468 0.0
H534 H 0.1816 0.96932 0.02872 0.0
O535 O 0.19229 0.95979 0.08674 0.0
O536 O 0.17367 0.97252 0.10646 0.0
H537 H 0.12885 0.01289 0.0653 0.0
H538 H 0.11444 0.99534 0.07387 0.0
C539 C 0.12867 0.99991 0.07282 0.0
H540 H 0.13411 0.0023 0.08656 0.0
H541 H 0.14854 0.99094 0.12862 0.0
O542 O 0.19435 0.94008 0.0499 0.0
C543 C 0.18959 0.96936 0.10078 0.0
Co544 Co 0.18233 0.29899 0.07257 0.0
Co545 Co 0.16023 0.27928 0.10288 0.0
C546 C 0.15914 0.31943 0.09884 0.0
O547 O 0.16959 0.31941 0.08513 0.0
O548 O 0.15457 0.30491 0.10679 0.0
C549 C 0.21129 0.32046 0.05565 0.0
O550 O 0.21474 0.32722 0.07171 0.0
C551 C 0.14677 0.27073 0.13933 0.0
C552 C 0.13854 0.24217 0.1361 0.0
C553 C 0.13971 0.25606 0.1486 0.0
N554 N 0.1497 0.26571 0.12209 0.0
N555 N 0.14451 0.2487 0.1202 0.0
C556 C 0.15204 0.28871 0.14695 0.0
H557 H 0.16453 0.29367 0.14026 0.0
H558 H 0.1542 0.2879 0.16178 0.0
H559 H 0.14107 0.29858 0.14421 0.0
C560 C 0.21163 0.27623 0.08847 0.0
N561 N 0.19494 0.2836 0.08902 0.0
N562 N 0.18571 0.27589 0.10216 0.0
C563 C 0.19645 0.26395 0.11077 0.0
C564 C 0.2132 0.26368 0.10236 0.0
C565 C 0.22492 0.27938 0.07355 0.0
H566 H 0.21793 0.27871 0.06029 0.0
H567 H 0.23078 0.2931 0.07505 0.0
H568 H 0.2361 0.26938 0.07387 0.0
O569 O 0.16523 0.28385 0.05883 0.0
O570 O 0.14918 0.27004 0.08006 0.0
H571 H 0.18045 0.24122 0.11857 0.0
H572 H 0.2013 0.24327 0.131 0.0
C573 C 0.18997 0.25095 0.12485 0.0
H574 H 0.18278 0.25842 0.13566 0.0
H575 H 0.14546 0.24143 0.10815 0.0
O576 O 0.19874 0.30887 0.05383 0.0
C577 C 0.15286 0.27286 0.06348 0.0
Co578 Co 0.68089 0.20043 0.92672 0.0
Co579 Co 0.65637 0.22087 0.89886 0.0
C580 C 0.65778 0.18025 0.9004 0.0
O581 O 0.66886 0.17982 0.91364 0.0
O582 O 0.6521 0.19515 0.89395 0.0
C583 C 0.7098 0.17843 0.94402 0.0
O584 O 0.71183 0.16936 0.92888 0.0
C585 C 0.64457 0.23149 0.86247 0.0
C586 C 0.63024 0.25712 0.86799 0.0
C587 C 0.63565 0.24571 0.85416 0.0
N588 N 0.64451 0.2344 0.88041 0.0
N589 N 0.63565 0.24959 0.88364 0.0
C590 C 0.65457 0.2164 0.85345 0.0
H591 H 0.66458 0.21032 0.86284 0.0
H592 H 0.66151 0.22138 0.84111 0.0
H593 H 0.64477 0.20584 0.8493 0.0
C594 C 0.70917 0.2231 0.90855 0.0
N595 N 0.69213 0.21674 0.91018 0.0
N596 N 0.6816 0.22553 0.8988 0.0
C597 C 0.69154 0.23769 0.88963 0.0
C598 C 0.70938 0.2364 0.89527 0.0
C599 C 0.72469 0.21706 0.92001 0.0
H600 H 0.72135 0.21921 0.93448 0.0
H601 H 0.7269 0.20237 0.91794 0.0
H602 H 0.73731 0.22442 0.9166 0.0
O603 O 0.66361 0.2145 0.94178 0.0
O604 O 0.6458 0.22854 0.92218 0.0
H605 H 0.67121 0.25748 0.88369 0.0
H606 H 0.69318 0.26336 0.87535 0.0
C607 C 0.6837 0.25197 0.87756 0.0
H608 H 0.68032 0.2459 0.86427 0.0
H609 H 0.63387 0.25515 0.89649 0.0
O610 O 0.69833 0.19119 0.94488 0.0
C611 C 0.65052 0.22513 0.93836 0.0
Co612 Co 0.05197 0.42732 0.18001 0.0
Co613 Co 0.03274 0.40387 0.15035 0.0
C614 C 0.07303 0.40467 0.15384 0.0
O615 O 0.07283 0.41534 0.16741 0.0
O616 O 0.05857 0.39936 0.14622 0.0
C617 C 0.07267 0.45682 0.19757 0.0
O618 O 0.08072 0.45993 0.18205 0.0
C619 C 0.02293 0.39129 0.11383 0.0
C620 C 0.99619 0.37898 0.11894 0.0
C621 C 0.00843 0.38296 0.10536 0.0
N622 N 0.01934 0.3923 0.13162 0.0
N623 N 0.00348 0.38461 0.13462 0.0
C624 C 0.03912 0.39963 0.10504 0.0
H625 H 0.04457 0.41071 0.11357 0.0
H626 H 0.03564 0.40486 0.09141 0.0
H627 H 0.04975 0.38915 0.10349 0.0
C628 C 0.02927 0.45607 0.1622 0.0
N629 N 0.03602 0.43911 0.16325 0.0
N630 N 0.02819 0.42908 0.15076 0.0
C631 C 0.01644 0.43929 0.14134 0.0
C632 C 0.01684 0.45678 0.14811 0.0
C633 C 0.03403 0.47103 0.17495 0.0
H634 H 0.03272 0.46621 0.1891 0.0
H635 H 0.04831 0.475 0.17271 0.0
H636 H 0.02534 0.48309 0.17288 0.0
O637 O 0.03797 0.40939 0.19426 0.0
O638 O 0.02426 0.39305 0.17324 0.0
H639 H 0.99633 0.41996 0.13368 0.0
H640 H 0.99287 0.4418 0.12382 0.0
C641 C 0.0033 0.43183 0.12782 0.0
H642 H 0.01075 0.42746 0.11557 0.0
H643 H 0.99735 0.3838 0.1473 0.0
O644 O 0.06087 0.4444 0.19872 0.0
C645 C 0.0273 0.39667 0.18978 0.0
Co646 Co 0.81623 0.80242 0.42519 0.0
Co647 Co 0.83649 0.78191 0.39407 0.0
C648 C 0.83845 0.82225 0.39755 0.0
O649 O 0.82842 0.82265 0.4116 0.0
O650 O 0.84255 0.80742 0.38987 0.0
C651 C 0.78729 0.82322 0.44321 0.0
O652 O 0.78258 0.82927 0.42719 0.0
C653 C 0.84976 0.77245 0.35761 0.0
C654 C 0.85684 0.74365 0.36125 0.0
C655 C 0.85652 0.75747 0.34862 0.0
N656 N 0.84624 0.76772 0.37482 0.0
N657 N 0.85069 0.75053 0.37693 0.0
C658 C 0.84558 0.79058 0.34972 0.0
H659 H 0.83376 0.79665 0.35668 0.0
H660 H 0.84282 0.78951 0.33501 0.0
H661 H 0.85744 0.79955 0.35169 0.0
C662 C 0.78616 0.7791 0.41122 0.0
N663 N 0.8027 0.78668 0.4096 0.0
N664 N 0.81108 0.7791 0.39582 0.0
C665 C 0.79989 0.76718 0.38781 0.0
C666 C 0.78376 0.76663 0.39733 0.0
C667 C 0.77392 0.78187 0.42708 0.0
H668 H 0.78193 0.78198 0.43977 0.0
H669 H 0.76709 0.79515 0.42571 0.0
H670 H 0.76337 0.77122 0.42787 0.0
O671 O 0.83413 0.78763 0.43844 0.0
O672 O 0.84783 0.77248 0.41653 0.0
H673 H 0.81457 0.74389 0.37907 0.0
H674 H 0.79374 0.74747 0.36701 0.0
C675 C 0.80554 0.75433 0.37322 0.0
H676 H 0.81297 0.76175 0.36254 0.0
H677 H 0.84929 0.74342 0.38903 0.0
O678 O 0.8006 0.81245 0.44462 0.0
C679 C 0.84559 0.7759 0.43325 0.0
Co680 Co 0.94861 0.06978 0.17773 0.0
Co681 Co 0.968 0.09264 0.14786 0.0
C682 C 0.92752 0.09118 0.15075 0.0
O683 O 0.92749 0.08073 0.16448 0.0
O684 O 0.94221 0.09658 0.14368 0.0
C685 C 0.9283 0.04025 0.19551 0.0
O686 O 0.92079 0.03661 0.17983 0.0
C687 C 0.97717 0.10414 0.11094 0.0
C688 C 0.9977 0.12519 0.11633 0.0
C689 C 0.98787 0.11708 0.10263 0.0
N690 N 0.9805 0.10461 0.12881 0.0
N691 N 0.99288 0.11713 0.13191 0.0
C692 C 0.96289 0.09272 0.1023 0.0
H693 H 0.95612 0.08403 0.11249 0.0
H694 H 0.96904 0.08404 0.09174 0.0
H695 H 0.95278 0.10157 0.0956 0.0
C696 C 0.97309 0.04147 0.16202 0.0
N697 N 0.96521 0.05794 0.16161 0.0
N698 N 0.97298 0.06763 0.14883 0.0
C699 C 0.98574 0.05762 0.14057 0.0
C700 C 0.98617 0.04066 0.14854 0.0
C701 C 0.96948 0.0275 0.17619 0.0
H702 H 0.97025 0.0338 0.18979 0.0
H703 H 0.95561 0.02213 0.17435 0.0
H704 H 0.97921 0.0161 0.17535 0.0
O705 O 0.96218 0.08826 0.19178 0.0
O706 O 0.97636 0.10392 0.17057 0.0
H707 H 0.00489 0.07788 0.13269 0.0
H708 H 0.01029 0.05547 0.12457 0.0
C709 C 0.99913 0.0651 0.12735 0.0
H710 H 0.99212 0.06816 0.11447 0.0
H711 H 0.99764 0.12058 0.14474 0.0
O712 O 0.93977 0.05298 0.1967 0.0
C713 C 0.97305 0.10076 0.18715 0.0
Co714 Co 0.32025 0.69973 0.57329 0.0
Co715 Co 0.34326 0.7191 0.60321 0.0
C716 C 0.34116 0.67858 0.60049 0.0
O717 O 0.33091 0.67858 0.58662 0.0
O718 O 0.3467 0.69319 0.60765 0.0
C719 C 0.29136 0.67906 0.55492 0.0
O720 O 0.28825 0.67068 0.57027 0.0
C721 C 0.35658 0.7272 0.63984 0.0
C722 C 0.36815 0.75452 0.63622 0.0
C723 C 0.36513 0.74114 0.64895 0.0
N724 N 0.3546 0.73209 0.62244 0.0
N725 N 0.36177 0.74834 0.62033 0.0
C726 C 0.34949 0.71 0.64771 0.0
H727 H 0.33667 0.70614 0.64091 0.0
H728 H 0.34725 0.71133 0.66249 0.0
H729 H 0.35951 0.69908 0.64535 0.0
C730 C 0.2916 0.72347 0.5898 0.0
N731 N 0.30838 0.71626 0.58944 0.0
N732 N 0.31823 0.72416 0.60201 0.0
C733 C 0.30809 0.7364 0.61085 0.0
C734 C 0.29081 0.73634 0.60352 0.0
C735 C 0.27694 0.71871 0.57671 0.0
H736 H 0.28195 0.72054 0.56269 0.0
H737 H 0.27331 0.70427 0.57845 0.0
H738 H 0.26465 0.72706 0.57883 0.0
O739 O 0.33898 0.71314 0.55947 0.0
O740 O 0.35489 0.72722 0.58059 0.0
H741 H 0.32707 0.75699 0.6179 0.0
H742 H 0.30561 0.75977 0.62873 0.0
C743 C 0.31566 0.74964 0.62421 0.0
H744 H 0.32083 0.74222 0.63616 0.0
H745 H 0.36198 0.75537 0.60809 0.0
O746 O 0.30354 0.69115 0.55414 0.0
C747 C 0.35166 0.72384 0.56404 0.0
Co748 Co 0.053 0.5689 0.32332 0.0
Co749 Co 0.03468 0.59432 0.35181 0.0
C750 C 0.07508 0.59008 0.34941 0.0
O751 O 0.07471 0.57926 0.33598 0.0
O752 O 0.06065 0.59653 0.35614 0.0
C753 C 0.07278 0.53876 0.30567 0.0
O754 O 0.08211 0.53651 0.32061 0.0
C755 C 0.02484 0.60648 0.38842 0.0
C756 C 0.00699 0.62967 0.38231 0.0
C757 C 0.01482 0.62017 0.39639 0.0
N758 N 0.02298 0.60782 0.37038 0.0
N759 N 0.01227 0.62169 0.36684 0.0
C760 C 0.03714 0.59333 0.39764 0.0
H761 H 0.04406 0.58457 0.38761 0.0
H762 H 0.02929 0.58477 0.40711 0.0
H763 H 0.04732 0.60084 0.40572 0.0
C764 C 0.0286 0.54211 0.34173 0.0
N765 N 0.0361 0.55869 0.3402 0.0
N766 N 0.0281 0.56967 0.35174 0.0
C767 C 0.01518 0.56059 0.36073 0.0
C768 C 0.01523 0.54274 0.35494 0.0
C769 C 0.03378 0.52622 0.33034 0.0
H770 H 0.03109 0.52935 0.31592 0.0
H771 H 0.04847 0.52369 0.33183 0.0
H772 H 0.02629 0.51384 0.3343 0.0
O773 O 0.04017 0.58741 0.30846 0.0
O774 O 0.02724 0.60519 0.32877 0.0
H775 H 0.99842 0.58331 0.36777 0.0
H776 H 0.98841 0.5617 0.37258 0.0
C777 C 0.00127 0.56941 0.37255 0.0
H778 H 0.00643 0.57004 0.38661 0.0
H779 H 0.00879 0.6259 0.35383 0.0
O780 O 0.06059 0.55085 0.30495 0.0
C781 C 0.03018 0.60087 0.31241 0.0
Co782 Co 0.4511 0.42708 0.82182 0.0
Co783 Co 0.46695 0.40016 0.8506 0.0
C784 C 0.42683 0.40546 0.84517 0.0
O785 O 0.42836 0.41711 0.83256 0.0
O786 O 0.44052 0.39825 0.85263 0.0
C787 C 0.4324 0.45674 0.8023 0.0
O788 O 0.41989 0.45662 0.81491 0.0
C789 C 0.47438 0.38809 0.88782 0.0
C790 C 0.49115 0.36383 0.88298 0.0
C791 C 0.48337 0.37412 0.89655 0.0
N792 N 0.47682 0.38616 0.8699 0.0
N793 N 0.48684 0.37162 0.86712 0.0
C794 C 0.46251 0.40218 0.89619 0.0
H795 H 0.45439 0.4092 0.8857 0.0
H796 H 0.47094 0.41232 0.90331 0.0
H797 H 0.45346 0.39585 0.90635 0.0
C798 C 0.47508 0.45244 0.8422 0.0
N799 N 0.46709 0.43618 0.84006 0.0
N800 N 0.47436 0.42463 0.85151 0.0
C801 C 0.48756 0.43298 0.86086 0.0
C802 C 0.4883 0.45099 0.85552 0.0
C803 C 0.47055 0.46878 0.83118 0.0
H804 H 0.45566 0.47023 0.83027 0.0
H805 H 0.47636 0.48125 0.83719 0.0
H806 H 0.47589 0.46699 0.81728 0.0
O807 O 0.46405 0.4082 0.80746 0.0
O808 O 0.47559 0.3895 0.82785 0.0
H809 H 0.51466 0.42994 0.87147 0.0
H810 H 0.49679 0.42319 0.88647 0.0
C811 C 0.50126 0.42322 0.87218 0.0
H812 H 0.50283 0.40908 0.8675 0.0
H813 H 0.4906 0.36691 0.85436 0.0
O814 O 0.44577 0.446 0.80348 0.0
C815 C 0.4734 0.39429 0.81148 0.0
Co816 Co 0.57368 0.67961 0.80232 0.0
Co817 Co 0.60258 0.65355 0.78537 0.0
C818 C 0.59665 0.65638 0.82559 0.0
O819 O 0.58426 0.6683 0.82451 0.0
O820 O 0.6042 0.64983 0.81163 0.0
C821 C 0.55575 0.7098 0.82166 0.0
O822 O 0.57032 0.71146 0.83169 0.0
C823 C 0.6398 0.64159 0.77771 0.0
C824 C 0.63494 0.61836 0.75953 0.0
C825 C 0.6485 0.62804 0.76807 0.0
N826 N 0.6219 0.64 0.77492 0.0
N827 N 0.6191 0.62609 0.76404 0.0
C828 C 0.64816 0.65487 0.79048 0.0
H829 H 0.6376 0.66203 0.79838 0.0
H830 H 0.65613 0.66496 0.78279 0.0
H831 H 0.65759 0.64775 0.79975 0.0
C832 C 0.59397 0.70614 0.77943 0.0
N833 N 0.59198 0.68962 0.78694 0.0
N834 N 0.6037 0.67846 0.77946 0.0
C835 C 0.61315 0.68736 0.76671 0.0
C836 C 0.60755 0.7053 0.76644 0.0
C837 C 0.5824 0.7221 0.78398 0.0
H838 H 0.58274 0.72438 0.79878 0.0
H839 H 0.58712 0.73455 0.77707 0.0
H840 H 0.5682 0.71923 0.78006 0.0
O841 O 0.55936 0.66161 0.78812 0.0
O842 O 0.5799 0.64366 0.77569 0.0
H843 H 0.62464 0.68567 0.73981 0.0
H844 H 0.63887 0.67761 0.75778 0.0
C845 C 0.62474 0.67821 0.75282 0.0
H846 H 0.61986 0.66429 0.75027 0.0
H847 H 0.60635 0.62174 0.75986 0.0
O848 O 0.55528 0.69797 0.8092 0.0
C849 C 0.56351 0.64835 0.77793 0.0
Co850 Co 0.56698 0.3223 0.05299 0.0
Co851 Co 0.5888 0.35177 0.03174 0.0
C852 C 0.59002 0.34969 0.07219 0.0
O853 O 0.57955 0.33597 0.07292 0.0
O854 O 0.59456 0.35671 0.05716 0.0
C855 C 0.53814 0.30498 0.07484 0.0
O856 O 0.53415 0.3209 0.08166 0.0
C857 C 0.60175 0.38794 0.02116 0.0
C858 C 0.61083 0.38301 0.99313 0.0
C859 C 0.60914 0.39636 0.00616 0.0
N860 N 0.59917 0.37038 0.01721 0.0
N861 N 0.60483 0.36749 0.0005 0.0
C862 C 0.59583 0.39672 0.03838 0.0
H863 H 0.58471 0.38889 0.04469 0.0
H864 H 0.59133 0.41083 0.03587 0.0
H865 H 0.60746 0.39714 0.04784 0.0
C866 C 0.53729 0.33743 0.03003 0.0
N867 N 0.55416 0.33804 0.03699 0.0
N868 N 0.56333 0.35083 0.02864 0.0
C869 C 0.55243 0.35914 0.01665 0.0
C870 C 0.53558 0.35094 0.01708 0.0
C871 C 0.52384 0.32288 0.0341 0.0
H872 H 0.53059 0.30948 0.03375 0.0
H873 H 0.51838 0.32501 0.04789 0.0
H874 H 0.51241 0.32303 0.02438 0.0
O875 O 0.58419 0.30802 0.03834 0.0
O876 O 0.59985 0.32872 0.02335 0.0
H877 H 0.56864 0.36628 0.99383 0.0
H878 H 0.54746 0.37827 0.99493 0.0
C879 C 0.55878 0.37275 0.00308 0.0
H880 H 0.56557 0.38407 0.01016 0.0
H881 H 0.60425 0.35497 0.994 0.0
O882 O 0.5508 0.30358 0.06333 0.0
C883 C 0.59637 0.31225 0.02698 0.0
Co884 Co 0.92538 0.31621 0.30231 0.0
Co885 Co 0.89831 0.34322 0.28413 0.0
C886 C 0.90124 0.3394 0.32452 0.0
O887 O 0.91392 0.32772 0.32407 0.0
O888 O 0.89463 0.34604 0.31013 0.0
C889 C 0.95359 0.29829 0.322 0.0
O890 O 0.95463 0.3138 0.33061 0.0
C891 C 0.86223 0.3567 0.27459 0.0
C892 C 0.86883 0.37945 0.25636 0.0
C893 C 0.85454 0.3704 0.26436 0.0
N894 N 0.88028 0.35756 0.27263 0.0
N895 N 0.88414 0.3712 0.26175 0.0
C896 C 0.85275 0.34395 0.2871 0.0
H897 H 0.86263 0.33544 0.29453 0.0
H898 H 0.8435 0.33507 0.27935 0.0
H899 H 0.84441 0.35176 0.29684 0.0
C900 C 0.90485 0.29046 0.27882 0.0
N901 N 0.90749 0.30705 0.28597 0.0
N902 N 0.8966 0.31859 0.27788 0.0
C903 C 0.88699 0.30986 0.26514 0.0
C904 C 0.89164 0.29168 0.2655 0.0
C905 C 0.91542 0.27404 0.28408 0.0
H906 H 0.91623 0.27314 0.29903 0.0
H907 H 0.90916 0.26152 0.27864 0.0
H908 H 0.9294 0.27528 0.27877 0.0
O909 O 0.94141 0.33344 0.28896 0.0
O910 O 0.92193 0.35235 0.27624 0.0
H911 H 0.8813 0.33284 0.2482 0.0
H912 H 0.87587 0.31141 0.2381 0.0
C913 C 0.87589 0.31916 0.25095 0.0
H914 H 0.86174 0.32034 0.25572 0.0
H915 H 0.89723 0.37499 0.25812 0.0
O916 O 0.94154 0.29621 0.30991 0.0
C917 C 0.93807 0.34703 0.27891 0.0
Co918 Co 0.9283 0.6797 0.54917 0.0
Co919 Co 0.90612 0.64915 0.52993 0.0
C920 C 0.90632 0.65325 0.57034 0.0
O921 O 0.91676 0.66699 0.57027 0.0
O922 O 0.90133 0.64574 0.55572 0.0
C923 C 0.95726 0.69821 0.56973 0.0
O924 O 0.96086 0.68273 0.57766 0.0
C925 C 0.89508 0.61188 0.52111 0.0
C926 C 0.8749 0.61678 0.49962 0.0
C927 C 0.8827 0.60329 0.50997 0.0
N928 N 0.89461 0.62971 0.51751 0.0
N929 N 0.88259 0.63251 0.50458 0.0
C930 C 0.90599 0.60353 0.53594 0.0
H931 H 0.9145 0.61385 0.54276 0.0
H932 H 0.91479 0.59276 0.53033 0.0
H933 H 0.89679 0.59712 0.54591 0.0
C934 C 0.95752 0.66308 0.5265 0.0
N935 N 0.94072 0.66303 0.53361 0.0
N936 N 0.93131 0.65 0.52588 0.0
C937 C 0.94182 0.64125 0.5139 0.0
C938 C 0.95883 0.64912 0.51398 0.0
C939 C 0.9714 0.67731 0.53022 0.0
H940 H 0.96518 0.69091 0.52893 0.0
H941 H 0.97634 0.67576 0.54428 0.0
H942 H 0.98311 0.67622 0.5209 0.0
O943 O 0.91032 0.69323 0.53446 0.0
O944 O 0.89515 0.67156 0.52042 0.0
H945 H 0.92223 0.63266 0.49434 0.0
H946 H 0.94486 0.62467 0.48981 0.0
C947 C 0.93488 0.62762 0.50061 0.0
H948 H 0.93178 0.61486 0.50783 0.0
H949 H 0.87927 0.64523 0.49946 0.0
O950 O 0.94475 0.69905 0.55799 0.0
C951 C 0.89824 0.68824 0.52326 0.0
Co952 Co 0.57809 0.319 0.69669 0.0
Co953 Co 0.60376 0.3469 0.71569 0.0
C954 C 0.59827 0.34592 0.67525 0.0
O955 O 0.58789 0.33218 0.6752 0.0
O956 O 0.60445 0.35254 0.68983 0.0
C957 C 0.54772 0.30227 0.68049 0.0
O958 O 0.54377 0.31922 0.67691 0.0
C959 C 0.63993 0.36085 0.72403 0.0
C960 C 0.63375 0.38357 0.74244 0.0
C961 C 0.64787 0.37464 0.73397 0.0
N962 N 0.62195 0.36153 0.72662 0.0
N963 N 0.61834 0.37516 0.73761 0.0
C964 C 0.64905 0.34812 0.71122 0.0
H965 H 0.63901 0.34172 0.70208 0.0
H966 H 0.65603 0.33734 0.71893 0.0
H967 H 0.65941 0.35545 0.70319 0.0
C968 C 0.60015 0.2936 0.71876 0.0
N969 N 0.59708 0.31017 0.71178 0.0
N970 N 0.60739 0.322 0.72021 0.0
C971 C 0.61688 0.31348 0.73319 0.0
C972 C 0.61287 0.29511 0.73254 0.0
C973 C 0.58995 0.27701 0.7133 0.0
H974 H 0.58884 0.27645 0.69835 0.0
H975 H 0.59671 0.26457 0.71828 0.0
H976 H 0.57606 0.27769 0.71894 0.0
O977 O 0.56174 0.33481 0.71168 0.0
O978 O 0.58033 0.35372 0.72578 0.0
H979 H 0.62536 0.31547 0.76117 0.0
H980 H 0.64085 0.3247 0.74492 0.0
C981 C 0.62634 0.32313 0.74832 0.0
H982 H 0.62033 0.33667 0.75051 0.0
H983 H 0.60534 0.37883 0.74168 0.0
O984 O 0.56252 0.29869 0.68847 0.0
C985 C 0.5645 0.34767 0.72286 0.0
Co986 Co 0.92915 0.32308 0.95015 0.0
Co987 Co 0.90454 0.35175 0.96919 0.0
C988 C 0.90684 0.34857 0.9286 0.0
O989 O 0.91793 0.33535 0.92867 0.0
O990 O 0.90095 0.35537 0.94323 0.0
C991 C 0.95801 0.30494 0.92903 0.0
O992 O 0.95957 0.31962 0.91916 0.0
C993 C 0.89285 0.3887 0.97795 0.0
C994 C 0.87019 0.38347 0.99671 0.0
C995 C 0.87937 0.39717 0.98786 0.0
N996 N 0.89166 0.37078 0.98083 0.0
N997 N 0.87814 0.36776 0.99212 0.0
C998 C 0.90555 0.39725 0.96474 0.0
H999 H 0.91311 0.3868 0.95708 0.0
H1000 H 0.91537 0.40591 0.97206 0.0
H1001 H 0.89789 0.40605 0.95529 0.0
C1002 C 0.95694 0.34172 0.97316 0.0
N1003 N 0.9401 0.34024 0.96627 0.0
N1004 N 0.92948 0.35191 0.97456 0.0
C1005 C 0.93906 0.36093 0.98711 0.0
C1006 C 0.95687 0.35501 0.9865 0.0
C1007 C 0.97252 0.33011 0.96756 0.0
H1008 H 0.97415 0.33089 0.95268 0.0
H1009 H 0.9853 0.33443 0.97411 0.0
H1010 H 0.9696 0.31582 0.97112 0.0
O1011 O 0.91118 0.30847 0.96406 0.0
O1012 O 0.8941 0.32887 0.97779 0.0
H1013 H 0.91694 0.36799 0.00461 0.0
H1014 H 0.93885 0.37287 0.01389 0.0
C1015 C 0.93073 0.37279 0.00129 0.0
H1016 H 0.92986 0.38683 0.99611 0.0
H1017 H 0.87405 0.35493 0.99634 0.0
O1018 O 0.94678 0.30456 0.94203 0.0
C1019 C 0.8983 0.31248 0.97475 0.0
Co1020 Co 0.92954 0.68055 0.19887 0.0
Co1021 Co 0.90047 0.65819 0.22009 0.0
C1022 C 0.9024 0.65757 0.17955 0.0
O1023 O 0.91595 0.66826 0.1788 0.0
O1024 O 0.89561 0.65273 0.1946 0.0
C1025 C 0.94778 0.70888 0.17676 0.0
O1026 O 0.93246 0.71221 0.16841 0.0
C1027 C 0.86413 0.6464 0.23156 0.0
C1028 C 0.8701 0.63482 0.25846 0.0
C1029 C 0.85612 0.63856 0.24659 0.0
N1030 N 0.88206 0.64736 0.2345 0.0
N1031 N 0.88554 0.64014 0.25048 0.0
C1032 C 0.85483 0.65437 0.21548 0.0
H1033 H 0.86364 0.66449 0.20878 0.0
H1034 H 0.84187 0.66075 0.21955 0.0
H1035 H 0.85176 0.64341 0.2057 0.0
C1036 C 0.91251 0.71045 0.22066 0.0
N1037 N 0.91345 0.69314 0.21483 0.0
N1038 N 0.90119 0.68354 0.22349 0.0
C1039 C 0.89202 0.69435 0.23487 0.0
C1040 C 0.89869 0.71179 0.23332 0.0
C1041 C 0.92509 0.72516 0.21483 0.0
H1042 H 0.92251 0.72836 0.20042 0.0
H1043 H 0.92318 0.73763 0.22297 0.0
H1044 H 0.93928 0.72044 0.21606 0.0
O1045 O 0.94403 0.66293 0.21309 0.0
O1046 O 0.92343 0.64754 0.22838 0.0
H1047 H 0.87521 0.69811 0.25877 0.0
H1048 H 0.86624 0.68321 0.24172 0.0
C1049 C 0.87876 0.68765 0.24866 0.0
H1050 H 0.88461 0.67596 0.25595 0.0
H1051 H 0.89843 0.63938 0.25619 0.0
O1052 O 0.94838 0.69691 0.18907 0.0
C1053 C 0.93986 0.65081 0.22455 0.0
Co1054 Co 0.56777 0.67687 0.44615 0.0
Co1055 Co 0.58655 0.64537 0.46733 0.0
C1056 C 0.58882 0.64794 0.42698 0.0
O1057 O 0.57951 0.66246 0.42612 0.0
O1058 O 0.59245 0.64045 0.44201 0.0
C1059 C 0.53985 0.69537 0.42466 0.0
O1060 O 0.53503 0.67937 0.4186 0.0
C1061 C 0.59885 0.60875 0.47718 0.0
C1062 C 0.60545 0.61234 0.5061 0.0
C1063 C 0.60522 0.5997 0.4923 0.0
N1064 N 0.59548 0.62601 0.48184 0.0
N1065 N 0.59961 0.62809 0.49911 0.0
C1066 C 0.5949 0.60093 0.45897 0.0
H1067 H 0.58261 0.60735 0.45323 0.0
H1068 H 0.59295 0.58607 0.45974 0.0
H1069 H 0.60645 0.60381 0.44983 0.0
C1070 C 0.53672 0.66404 0.46903 0.0
N1071 N 0.55344 0.662 0.46194 0.0
N1072 N 0.56125 0.64806 0.46982 0.0
C1073 C 0.54955 0.64036 0.48143 0.0
C1074 C 0.53364 0.65026 0.48145 0.0
C1075 C 0.52484 0.68008 0.4657 0.0
H1076 H 0.53308 0.69262 0.46558 0.0
H1077 H 0.5183 0.6786 0.45229 0.0
H1078 H 0.51407 0.68123 0.47608 0.0
O1079 O 0.586 0.68971 0.461 0.0
O1080 O 0.59865 0.66745 0.47653 0.0
H1081 H 0.56339 0.63115 0.50504 0.0
H1082 H 0.54233 0.6197 0.50092 0.0
C1083 C 0.55445 0.62558 0.49437 0.0
H1084 H 0.56177 0.61471 0.4871 0.0
H1085 H 0.59827 0.64024 0.50615 0.0
O1086 O 0.55291 0.69664 0.43574 0.0
C1087 C 0.59709 0.68421 0.47293 0.0
Co1088 Co 0.80472 0.57601 0.68451 0.0
Co1089 Co 0.7834 0.60556 0.66278 0.0
C1090 C 0.82386 0.60331 0.66143 0.0
O1091 O 0.82461 0.58962 0.67191 0.0
O1092 O 0.80884 0.61038 0.65693 0.0
C1093 C 0.82669 0.558 0.71299 0.0
O1094 O 0.83388 0.5737 0.71719 0.0
C1095 C 0.773 0.64166 0.64932 0.0
C1096 C 0.74457 0.63705 0.64139 0.0
C1097 C 0.75789 0.65018 0.64226 0.0
N1098 N 0.76883 0.62424 0.65249 0.0
N1099 N 0.75187 0.62155 0.64752 0.0
C1100 C 0.79062 0.65024 0.65427 0.0
H1101 H 0.79687 0.64299 0.66582 0.0
H1102 H 0.78872 0.66471 0.65777 0.0
H1103 H 0.79985 0.64942 0.64248 0.0
C1104 C 0.78192 0.59112 0.71428 0.0
N1105 N 0.78879 0.59175 0.69739 0.0
N1106 N 0.78043 0.60458 0.68828 0.0
C1107 C 0.76854 0.61292 0.69926 0.0
C1108 C 0.76901 0.60467 0.71609 0.0
C1109 C 0.78601 0.57651 0.72766 0.0
H1110 H 0.78536 0.56312 0.72091 0.0
H1111 H 0.79993 0.57843 0.73288 0.0
H1112 H 0.77648 0.57679 0.73925 0.0
O1113 O 0.79008 0.56188 0.66726 0.0
O1114 O 0.77494 0.58252 0.65167 0.0
H1115 H 0.74534 0.62015 0.68366 0.0
H1116 H 0.74738 0.63256 0.70452 0.0
C1117 C 0.75504 0.62666 0.69305 0.0
H1118 H 0.76209 0.6377 0.68578 0.0
H1119 H 0.74517 0.60918 0.64863 0.0
O1120 O 0.81498 0.55706 0.70047 0.0
C1121 C 0.77867 0.56607 0.65511 0.0
Co1122 Co 0.67905 0.54982 0.93175 0.0
Co1123 Co 0.65118 0.52988 0.90668 0.0
C1124 C 0.65293 0.57033 0.90861 0.0
O1125 O 0.66624 0.57052 0.9196 0.0
O1126 O 0.64612 0.55563 0.90282 0.0
C1127 C 0.69614 0.5712 0.96142 0.0
O1128 O 0.68094 0.58008 0.96377 0.0
C1129 C 0.61523 0.51874 0.89345 0.0
C1130 C 0.6218 0.49286 0.88001 0.0
C1131 C 0.60756 0.50415 0.88451 0.0
N1132 N 0.63321 0.5161 0.89431 0.0
N1133 N 0.63706 0.50077 0.88596 0.0
C1134 C 0.60558 0.53403 0.90251 0.0
H1135 H 0.61399 0.53973 0.91356 0.0
H1136 H 0.59236 0.52945 0.90795 0.0
H1137 H 0.60301 0.54484 0.89242 0.0
C1138 C 0.66037 0.52695 0.95955 0.0
N1139 N 0.66224 0.53347 0.94259 0.0
N1140 N 0.65085 0.52494 0.93186 0.0
C1141 C 0.64139 0.51283 0.94159 0.0
C1142 C 0.6469 0.51385 0.95949 0.0
C1143 C 0.67175 0.53268 0.97525 0.0
H1144 H 0.66956 0.54729 0.97782 0.0
H1145 H 0.66834 0.525 0.98767 0.0
H1146 H 0.68624 0.53071 0.9719 0.0
O1147 O 0.69426 0.53586 0.91462 0.0
O1148 O 0.67468 0.52247 0.89631 0.0
H1149 H 0.62613 0.48769 0.94298 0.0
H1150 H 0.61618 0.50539 0.92954 0.0
C1151 C 0.62909 0.49889 0.93349 0.0
H1152 H 0.63548 0.49302 0.9213 0.0
H1153 H 0.65006 0.49536 0.88491 0.0
O1154 O 0.69707 0.55883 0.94952 0.0
C1155 C 0.69085 0.52555 0.90128 0.0
Co1156 Co 0.70019 0.42745 0.17821 0.0
Co1157 Co 0.71972 0.39701 0.15597 0.0
C1158 C 0.67928 0.40082 0.15607 0.0
O1159 O 0.6792 0.41454 0.16656 0.0
O1160 O 0.69398 0.39345 0.15111 0.0
C1161 C 0.68037 0.44562 0.20799 0.0
O1162 O 0.67334 0.42988 0.21227 0.0
C1163 C 0.72867 0.3599 0.14425 0.0
C1164 C 0.75049 0.36527 0.12455 0.0
C1165 C 0.73994 0.3516 0.13176 0.0
N1166 N 0.73238 0.37772 0.14437 0.0
N1167 N 0.74553 0.38078 0.13266 0.0
C1168 C 0.71363 0.35133 0.15468 0.0
H1169 H 0.70655 0.36149 0.16315 0.0
H1170 H 0.71911 0.34051 0.1635 0.0
H1171 H 0.70393 0.34494 0.14516 0.0
C1172 C 0.72346 0.41125 0.20723 0.0
N1173 N 0.71601 0.41093 0.19057 0.0
N1174 N 0.72369 0.39786 0.18117 0.0
C1175 C 0.7359 0.3893 0.19159 0.0
C1176 C 0.73609 0.39739 0.20849 0.0
C1177 C 0.72016 0.42579 0.22091 0.0
H1178 H 0.72059 0.43923 0.21427 0.0
H1179 H 0.70653 0.4239 0.22684 0.0
H1180 H 0.73024 0.42536 0.23202 0.0
O1181 O 0.7148 0.44111 0.16028 0.0
O1182 O 0.72908 0.41957 0.14514 0.0
H1183 H 0.75586 0.38108 0.17229 0.0
H1184 H 0.7596 0.37219 0.19474 0.0
C1185 C 0.74915 0.37568 0.18456 0.0
H1186 H 0.74181 0.36319 0.18074 0.0
H1187 H 0.75075 0.39357 0.12978 0.0
O1188 O 0.69126 0.44674 0.19475 0.0
C1189 C 0.72609 0.43622 0.14825 0.0
Co1190 Co 0.82418 0.44571 0.43278 0.0
Co1191 Co 0.85307 0.46648 0.40986 0.0
C1192 C 0.85165 0.42605 0.41031 0.0
O1193 O 0.83806 0.42562 0.42094 0.0
O1194 O 0.85843 0.44094 0.405 0.0
C1195 C 0.80762 0.4245 0.46243 0.0
O1196 O 0.82372 0.41818 0.46652 0.0
C1197 C 0.88886 0.47784 0.3964 0.0
C1198 C 0.88278 0.50535 0.3864 0.0
C1199 C 0.89667 0.49299 0.3886 0.0
N1200 N 0.87113 0.48113 0.39875 0.0
N1201 N 0.86756 0.4975 0.39251 0.0
C1202 C 0.89833 0.46125 0.40303 0.0
H1203 H 0.89053 0.45485 0.41414 0.0
H1204 H 0.91216 0.46461 0.4078 0.0
H1205 H 0.89951 0.45148 0.39171 0.0
C1206 C 0.83955 0.46965 0.46157 0.0
N1207 N 0.83983 0.46232 0.44485 0.0
N1208 N 0.8524 0.47047 0.43523 0.0
C1209 C 0.8609 0.48272 0.44568 0.0
C1210 C 0.85309 0.48262 0.4627 0.0
C1211 C 0.8253 0.46589 0.47541 0.0
H1212 H 0.8118 0.46565 0.46888 0.0
H1213 H 0.82781 0.4524 0.48145 0.0
H1214 H 0.82543 0.47613 0.48638 0.0
O1215 O 0.80947 0.45944 0.41523 0.0
O1216 O 0.82977 0.4741 0.39881 0.0
H1217 H 0.86803 0.50493 0.42863 0.0
H1218 H 0.87999 0.50463 0.44987 0.0
C1219 C 0.87449 0.49607 0.43884 0.0
H1220 H 0.88583 0.48875 0.43234 0.0
H1221 H 0.85479 0.50349 0.39287 0.0
O1222 O 0.80586 0.43559 0.44944 0.0
C1223 C 0.8134 0.47039 0.40258 0.0
Co1224 Co 0.80443 0.42807 0.81721 0.0
Co1225 Co 0.7832 0.39843 0.83884 0.0
C1226 C 0.82366 0.40035 0.83975 0.0
O1227 O 0.82436 0.41418 0.82943 0.0
O1228 O 0.80865 0.39334 0.84436 0.0
C1229 C 0.82634 0.44609 0.78875 0.0
O1230 O 0.83341 0.43035 0.7845 0.0
C1231 C 0.77244 0.36218 0.8516 0.0
C1232 C 0.74441 0.36723 0.8606 0.0
C1233 C 0.75736 0.35381 0.8589 0.0
N1234 N 0.76859 0.37979 0.84909 0.0
N1235 N 0.75188 0.38274 0.8547 0.0
C1236 C 0.78964 0.35335 0.84572 0.0
H1237 H 0.79597 0.36113 0.83457 0.0
H1238 H 0.78711 0.33923 0.84127 0.0
H1239 H 0.79911 0.35298 0.85735 0.0
C1240 C 0.78126 0.4134 0.78751 0.0
N1241 N 0.78831 0.41256 0.80433 0.0
N1242 N 0.77996 0.39969 0.81339 0.0
C1243 C 0.76788 0.39157 0.80246 0.0
C1244 C 0.76825 0.39996 0.78571 0.0
C1245 C 0.78525 0.42814 0.77425 0.0
H1246 H 0.78478 0.44145 0.78117 0.0
H1247 H 0.79909 0.42621 0.76884 0.0
H1248 H 0.77557 0.42805 0.76279 0.0
O1249 O 0.78999 0.44214 0.83469 0.0
O1250 O 0.77495 0.42139 0.85021 0.0
H1251 H 0.74501 0.38425 0.8185 0.0
H1252 H 0.7463 0.37238 0.79725 0.0
C1253 C 0.75434 0.37786 0.80866 0.0
H1254 H 0.76142 0.36653 0.81544 0.0
H1255 H 0.74545 0.39528 0.85415 0.0
O1256 O 0.81467 0.44708 0.80131 0.0
C1257 C 0.77867 0.43786 0.84688 0.0
Co1258 Co 0.82425 0.55223 0.06899 0.0
Co1259 Co 0.85544 0.5312 0.08873 0.0
C1260 C 0.85195 0.57146 0.09165 0.0
O1261 O 0.83791 0.57205 0.08161 0.0
O1262 O 0.85963 0.55654 0.0955 0.0
C1263 C 0.8058 0.5739 0.04087 0.0
O1264 O 0.82166 0.58049 0.03632 0.0
C1265 C 0.89194 0.52073 0.10161 0.0
C1266 C 0.8878 0.49171 0.10738 0.0
C1267 C 0.9007 0.50527 0.10759 0.0
N1268 N 0.87461 0.51649 0.09799 0.0
N1269 N 0.87221 0.49917 0.10169 0.0
C1270 C 0.90017 0.53886 0.09814 0.0
H1271 H 0.89306 0.5457 0.08683 0.0
H1272 H 0.91478 0.53758 0.09494 0.0
H1273 H 0.89874 0.54727 0.11048 0.0
C1274 C 0.83871 0.53039 0.0381 0.0
N1275 N 0.83995 0.53709 0.05504 0.0
N1276 N 0.85373 0.52932 0.06323 0.0
C1277 C 0.86212 0.51816 0.05155 0.0
C1278 C 0.85285 0.51833 0.03527 0.0
C1279 C 0.82303 0.53363 0.02572 0.0
H1280 H 0.81021 0.53324 0.03349 0.0
H1281 H 0.82441 0.54723 0.01957 0.0
H1282 H 0.82254 0.52351 0.01465 0.0
O1283 O 0.81107 0.53692 0.08645 0.0
O1284 O 0.83297 0.52142 0.09976 0.0
H1285 H 0.87123 0.49445 0.06531 0.0
H1286 H 0.8833 0.49906 0.0447 0.0
C1287 C 0.87692 0.50534 0.05673 0.0
H1288 H 0.88744 0.51265 0.06449 0.0
H1289 H 0.85998 0.49235 0.1 0.0
O1290 O 0.8047 0.56257 0.05373 0.0
C1291 C 0.81625 0.52488 0.09758 0.0
Co1292 Co 0.70085 0.57214 0.32038 0.0
Co1293 Co 0.71805 0.5985 0.34897 0.0
C1294 C 0.67768 0.59285 0.34555 0.0
O1295 O 0.67856 0.58206 0.33215 0.0
O1296 O 0.69177 0.59931 0.35295 0.0
C1297 C 0.68175 0.55459 0.28942 0.0
O1298 O 0.67067 0.56845 0.28848 0.0
C1299 C 0.72524 0.63528 0.36225 0.0
C1300 C 0.74345 0.63007 0.38535 0.0
C1301 C 0.73488 0.6438 0.37592 0.0
N1302 N 0.72811 0.61736 0.36348 0.0
N1303 N 0.73897 0.61434 0.37735 0.0
C1304 C 0.71248 0.64381 0.34906 0.0
H1305 H 0.70339 0.63347 0.34307 0.0
H1306 H 0.72024 0.65026 0.33798 0.0
H1307 H 0.70441 0.6545 0.35584 0.0
C1308 C 0.72349 0.59445 0.29562 0.0
N1309 N 0.71613 0.59107 0.31195 0.0
N1310 N 0.72396 0.60149 0.32411 0.0
C1311 C 0.7369 0.6114 0.31601 0.0
C1312 C 0.73685 0.60754 0.29762 0.0
C1313 C 0.7185 0.58453 0.27872 0.0
H1314 H 0.70358 0.58415 0.27739 0.0
H1315 H 0.72436 0.59107 0.26656 0.0
H1316 H 0.72343 0.57038 0.27965 0.0
O1317 O 0.71532 0.55681 0.33733 0.0
O1318 O 0.72776 0.57526 0.35748 0.0
H1319 H 0.75332 0.61568 0.33969 0.0
H1320 H 0.76439 0.62104 0.31875 0.0
C1321 C 0.75131 0.62153 0.32606 0.0
H1322 H 0.74729 0.63591 0.32742 0.0
H1323 H 0.74325 0.60152 0.38142 0.0
O1324 O 0.69447 0.5546 0.30098 0.0
C1325 C 0.72539 0.55947 0.35106 0.0
Co1326 Co 0.68164 0.45187 0.56989 0.0
Co1327 Co 0.65322 0.47317 0.59291 0.0
C1328 C 0.65415 0.43259 0.5923 0.0
O1329 O 0.66789 0.43169 0.58191 0.0
O1330 O 0.64765 0.44768 0.5974 0.0
C1331 C 0.699 0.42876 0.54215 0.0
O1332 O 0.68369 0.41997 0.54021 0.0
C1333 C 0.61691 0.48458 0.60436 0.0
C1334 C 0.62267 0.51113 0.61682 0.0
C1335 C 0.60875 0.49941 0.61242 0.0
N1336 N 0.63485 0.48748 0.60393 0.0
N1337 N 0.63822 0.50324 0.61167 0.0
C1338 C 0.60776 0.46878 0.59566 0.0
H1339 H 0.61656 0.46281 0.58507 0.0
H1340 H 0.59464 0.47291 0.58966 0.0
H1341 H 0.60508 0.45835 0.6061 0.0
C1342 C 0.66406 0.47348 0.54032 0.0
N1343 N 0.66558 0.46801 0.55768 0.0
N1344 N 0.6539 0.4771 0.56762 0.0
C1345 C 0.64456 0.48848 0.55695 0.0
C1346 C 0.65046 0.4864 0.5393 0.0
C1347 C 0.67569 0.46682 0.5252 0.0
H1348 H 0.67303 0.45223 0.52302 0.0
H1349 H 0.67296 0.47425 0.51245 0.0
H1350 H 0.69014 0.46835 0.52895 0.0
O1351 O 0.69642 0.4662 0.58719 0.0
O1352 O 0.6763 0.48068 0.60401 0.0
H1353 H 0.62864 0.51297 0.55349 0.0
H1354 H 0.61873 0.49583 0.56766 0.0
C1355 C 0.63159 0.50248 0.56378 0.0
H1356 H 0.63735 0.50926 0.57582 0.0
H1357 H 0.6511 0.50888 0.61287 0.0
O1358 O 0.7 0.44188 0.55319 0.0
C1359 C 0.69261 0.47711 0.59993 0.0
Co1360 Co 0.67925 0.79947 0.57104 0.0
Co1361 Co 0.65685 0.7798 0.60127 0.0
C1362 C 0.65548 0.81998 0.59674 0.0
O1363 O 0.66612 0.81994 0.58315 0.0
O1364 O 0.65094 0.80549 0.60479 0.0
C1365 C 0.70753 0.82138 0.55271 0.0
O1366 O 0.71014 0.83022 0.5679 0.0
C1367 C 0.64475 0.7699 0.63802 0.0
C1368 C 0.634 0.74242 0.63323 0.0
C1369 C 0.63723 0.75505 0.64667 0.0
N1370 N 0.64604 0.76611 0.62027 0.0
N1371 N 0.63928 0.7498 0.61748 0.0
C1372 C 0.65209 0.78668 0.6466 0.0
H1373 H 0.66276 0.79274 0.63797 0.0
H1374 H 0.65759 0.78368 0.66024 0.0
H1375 H 0.64096 0.79664 0.6481 0.0
C1376 C 0.70909 0.77876 0.58923 0.0
N1377 N 0.69185 0.78472 0.58822 0.0
N1378 N 0.68228 0.7767 0.60094 0.0
C1379 C 0.69308 0.7656 0.61049 0.0
C1380 C 0.71048 0.76664 0.60353 0.0
C1381 C 0.72362 0.78373 0.57608 0.0
H1382 H 0.71872 0.78148 0.56208 0.0
H1383 H 0.72679 0.7983 0.57759 0.0
H1384 H 0.73616 0.77583 0.5784 0.0
O1385 O 0.66228 0.78393 0.55721 0.0
O1386 O 0.64658 0.77004 0.57858 0.0
H1387 H 0.67489 0.74451 0.61823 0.0
H1388 H 0.69675 0.74244 0.62839 0.0
C1389 C 0.68627 0.75224 0.62412 0.0
H1390 H 0.68134 0.7596 0.63621 0.0
H1391 H 0.63886 0.74345 0.60489 0.0
O1392 O 0.69584 0.80879 0.55207 0.0
C1393 C 0.65017 0.77268 0.56197 0.0
Co1394 Co 0.18001 0.6974 0.42898 0.0
Co1395 Co 0.15267 0.71651 0.40283 0.0
C1396 C 0.15758 0.67594 0.40363 0.0
O1397 O 0.16928 0.67596 0.41629 0.0
O1398 O 0.1505 0.69053 0.39793 0.0
C1399 C 0.21106 0.67775 0.44572 0.0
O1400 O 0.21338 0.66842 0.43079 0.0
C1401 C 0.14025 0.72707 0.36665 0.0
C1402 C 0.1172 0.74501 0.37295 0.0
C1403 C 0.12685 0.73753 0.35877 0.0
N1404 N 0.13868 0.72841 0.38472 0.0
N1405 N 0.12484 0.73911 0.38839 0.0
C1406 C 0.15345 0.71495 0.35726 0.0
H1407 H 0.16218 0.70785 0.36718 0.0
H1408 H 0.16204 0.72292 0.34793 0.0
H1409 H 0.14597 0.70489 0.349 0.0
C1410 C 0.20566 0.72193 0.40946 0.0
N1411 N 0.18912 0.7147 0.4121 0.0
N1412 N 0.17736 0.72325 0.40178 0.0
C1413 C 0.18596 0.73631 0.3925 0.0
C1414 C 0.20421 0.73569 0.39675 0.0
C1415 C 0.22234 0.71604 0.41926 0.0
H1416 H 0.22054 0.71838 0.43397 0.0
H1417 H 0.22435 0.70134 0.41715 0.0
H1418 H 0.23449 0.72339 0.41445 0.0
O1419 O 0.16231 0.70992 0.44488 0.0
O1420 O 0.14264 0.72328 0.42664 0.0
H1421 H 0.16293 0.75334 0.38728 0.0
H1422 H 0.18438 0.76361 0.38215 0.0
C1423 C 0.17662 0.75077 0.3818 0.0
H1424 H 0.1755 0.74642 0.36751 0.0
H1425 H 0.12055 0.74232 0.40144 0.0
O1426 O 0.19875 0.68971 0.44654 0.0
C1427 C 0.14843 0.71979 0.44246 0.0
Co1428 Co 0.55194 0.93204 0.67777 0.0
Co1429 Co 0.53202 0.91438 0.64478 0.0
C1430 C 0.5717 0.90972 0.65005 0.0
O1431 O 0.57193 0.91912 0.66453 0.0
O1432 O 0.55717 0.90685 0.64134 0.0
C1433 C 0.5728 0.96016 0.69637 0.0
O1434 O 0.57836 0.96514 0.68026 0.0
C1435 C 0.52294 0.90269 0.60768 0.0
C1436 C 0.49358 0.89774 0.61034 0.0
C1437 C 0.50772 0.89738 0.59808 0.0
N1438 N 0.51795 0.90611 0.62484 0.0
N1439 N 0.50044 0.90291 0.62636 0.0
C1440 C 0.54159 0.90574 0.6005 0.0
H1441 H 0.54799 0.91734 0.60756 0.0
H1442 H 0.54133 0.90832 0.58571 0.0
H1443 H 0.54989 0.89352 0.60312 0.0
C1444 C 0.53021 0.96362 0.6643 0.0
N1445 N 0.53751 0.94701 0.6621 0.0
N1446 N 0.53072 0.93978 0.64731 0.0
C1447 C 0.51979 0.95185 0.63918 0.0
C1448 C 0.51887 0.96731 0.64974 0.0
C1449 C 0.53191 0.97462 0.68121 0.0
H1450 H 0.53199 0.96563 0.69322 0.0
H1451 H 0.54487 0.98215 0.68084 0.0
H1452 H 0.52079 0.98461 0.68246 0.0
O1453 O 0.53596 0.91434 0.68981 0.0
O1454 O 0.52082 0.90313 0.66644 0.0
H1455 H 0.49626 0.9393 0.62806 0.0
H1456 H 0.50255 0.95999 0.61696 0.0
C1457 C 0.50788 0.94754 0.62338 0.0
H1458 H 0.5156 0.9398 0.61315 0.0
H1459 H 0.49311 0.90455 0.63831 0.0
O1460 O 0.5622 0.94671 0.69785 0.0
C1461 C 0.52372 0.90413 0.68337 0.0
Co1462 Co 0.32051 0.30108 0.9293 0.0
Co1463 Co 0.34204 0.28128 0.89869 0.0
C1464 C 0.34287 0.32161 0.90264 0.0
O1465 O 0.33273 0.32176 0.91659 0.0
O1466 O 0.34737 0.30697 0.89485 0.0
C1467 C 0.29276 0.32301 0.94791 0.0
O1468 O 0.29011 0.33174 0.93267 0.0
C1469 C 0.3538 0.2727 0.86168 0.0
C1470 C 0.36432 0.24492 0.86507 0.0
C1471 C 0.36131 0.2583 0.85233 0.0
N1472 N 0.35235 0.268 0.87918 0.0
N1473 N 0.35892 0.25149 0.88116 0.0
C1474 C 0.3468 0.29005 0.85398 0.0
H1475 H 0.33507 0.2949 0.86198 0.0
H1476 H 0.34284 0.28833 0.83961 0.0
H1477 H 0.35761 0.30043 0.85475 0.0
C1478 C 0.29022 0.28008 0.91213 0.0
N1479 N 0.30746 0.2861 0.91263 0.0
N1480 N 0.31671 0.27798 0.89975 0.0
C1481 C 0.30572 0.26675 0.89059 0.0
C1482 C 0.28851 0.26778 0.898 0.0
C1483 C 0.276 0.28521 0.92556 0.0
H1484 H 0.27291 0.2998 0.92407 0.0
H1485 H 0.26335 0.27741 0.92353 0.0
H1486 H 0.28116 0.28296 0.93947 0.0
O1487 O 0.33805 0.28572 0.9427 0.0
O1488 O 0.35306 0.27156 0.921 0.0
H1489 H 0.30171 0.24369 0.87258 0.0
H1490 H 0.31741 0.26065 0.86485 0.0
C1491 C 0.31232 0.25333 0.8769 0.0
H1492 H 0.32359 0.24542 0.88278 0.0
H1493 H 0.35928 0.24452 0.89342 0.0
O1494 O 0.30436 0.31035 0.94857 0.0
C1495 C 0.34996 0.27435 0.93768 0.0
Co1496 Co 0.45092 0.57006 0.67424 0.0
Co1497 Co 0.46687 0.59901 0.64752 0.0
C1498 C 0.4267 0.59457 0.65417 0.0
O1499 O 0.42814 0.58123 0.66497 0.0
O1500 O 0.44046 0.60227 0.64734 0.0
C1501 C 0.43102 0.54615 0.69881 0.0
O1502 O 0.41687 0.55641 0.69562 0.0
C1503 C 0.47346 0.613 0.61086 0.0
C1504 C 0.49081 0.63668 0.6164 0.0
C1505 C 0.48259 0.62713 0.60253 0.0
N1506 N 0.47628 0.6141 0.62879 0.0
N1507 N 0.48662 0.62832 0.63201 0.0
C1508 C 0.46122 0.59942 0.60217 0.0
H1509 H 0.45206 0.59332 0.61236 0.0
H1510 H 0.4694 0.58847 0.59603 0.0
H1511 H 0.45322 0.6059 0.59124 0.0
C1512 C 0.47382 0.54608 0.65161 0.0
N1513 N 0.46599 0.56222 0.65485 0.0
N1514 N 0.47335 0.57448 0.64423 0.0
C1515 C 0.48655 0.56668 0.6344 0.0
C1516 C 0.48713 0.54834 0.63852 0.0
C1517 C 0.46942 0.52917 0.66179 0.0
H1518 H 0.47561 0.52987 0.67544 0.0
H1519 H 0.45456 0.52802 0.66348 0.0
H1520 H 0.47458 0.51701 0.65465 0.0
O1521 O 0.46492 0.58741 0.68973 0.0
O1522 O 0.47699 0.60716 0.67062 0.0
H1523 H 0.50205 0.59096 0.62992 0.0
H1524 H 0.51406 0.5704 0.62516 0.0
C1525 C 0.50069 0.57714 0.62431 0.0
H1526 H 0.49685 0.57806 0.60986 0.0
H1527 H 0.49077 0.63236 0.64488 0.0
O1528 O 0.44582 0.5494 0.69068 0.0
C1529 C 0.47492 0.6011 0.68659 0.0
Co1530 Co 0.81809 0.19585 0.07121 0.0
Co1531 Co 0.83833 0.21667 0.102 0.0
C1532 C 0.8401 0.17638 0.09937 0.0
O1533 O 0.83012 0.17583 0.08528 0.0
O1534 O 0.84432 0.19131 0.10679 0.0
C1535 C 0.78926 0.17471 0.05342 0.0
O1536 O 0.78449 0.1688 0.06948 0.0
C1537 C 0.85016 0.22776 0.1385 0.0
C1538 C 0.85879 0.25591 0.13336 0.0
C1539 C 0.85696 0.24309 0.14688 0.0
N1540 N 0.84801 0.23139 0.12081 0.0
N1541 N 0.85343 0.24816 0.11781 0.0
C1542 C 0.84428 0.21055 0.14734 0.0
H1543 H 0.83369 0.20379 0.13913 0.0
H1544 H 0.83908 0.21322 0.16116 0.0
H1545 H 0.8561 0.20138 0.14846 0.0
C1546 C 0.78772 0.21886 0.08537 0.0
N1547 N 0.80449 0.2117 0.08661 0.0
N1548 N 0.81295 0.21942 0.10026 0.0
C1549 C 0.80165 0.23104 0.10853 0.0
C1550 C 0.7853 0.23113 0.09941 0.0
C1551 C 0.77515 0.21578 0.06982 0.0
H1552 H 0.78288 0.21539 0.05698 0.0
H1553 H 0.76833 0.20254 0.07161 0.0
H1554 H 0.76462 0.22644 0.06907 0.0
O1555 O 0.83598 0.21044 0.05764 0.0
O1556 O 0.8497 0.22565 0.07947 0.0
H1557 H 0.81705 0.25377 0.11755 0.0
H1558 H 0.79556 0.25144 0.12875 0.0
C1559 C 0.80725 0.24391 0.12314 0.0
H1560 H 0.81384 0.23632 0.13423 0.0
H1561 H 0.85305 0.25446 0.10519 0.0
O1562 O 0.80252 0.18552 0.05195 0.0
C1563 C 0.84748 0.22215 0.06277 0.0
Co1564 Co 0.55128 0.0713 0.82284 0.0
Co1565 Co 0.53262 0.09616 0.85166 0.0
C1566 C 0.57314 0.0935 0.84827 0.0
O1567 O 0.57293 0.08247 0.835 0.0
O1568 O 0.5586 0.09945 0.8552 0.0
C1569 C 0.57155 0.04157 0.80493 0.0
O1570 O 0.58119 0.03964 0.81973 0.0
C1571 C 0.52397 0.10818 0.88858 0.0
C1572 C 0.50519 0.1308 0.88319 0.0
C1573 C 0.51404 0.12171 0.89695 0.0
N1574 N 0.52109 0.10923 0.87066 0.0
N1575 N 0.5098 0.12273 0.86754 0.0
C1576 C 0.53717 0.09552 0.89724 0.0
H1577 H 0.54472 0.08777 0.88685 0.0
H1578 H 0.52987 0.08588 0.90609 0.0
H1579 H 0.54672 0.10327 0.90585 0.0
C1580 C 0.52801 0.0438 0.84166 0.0
N1581 N 0.5351 0.06056 0.84012 0.0
N1582 N 0.52702 0.07127 0.85186 0.0
C1583 C 0.51447 0.06183 0.861 0.0
C1584 C 0.51483 0.04402 0.85508 0.0
C1585 C 0.53329 0.02814 0.83 0.0
H1586 H 0.53022 0.03135 0.81567 0.0
H1587 H 0.54806 0.0259 0.83116 0.0
H1588 H 0.52616 0.01556 0.83399 0.0
O1589 O 0.53746 0.0894 0.80824 0.0
O1590 O 0.52409 0.10662 0.82878 0.0
H1591 H 0.49715 0.08407 0.86816 0.0
H1592 H 0.48789 0.06223 0.87339 0.0
C1593 C 0.50052 0.07031 0.87302 0.0
H1594 H 0.50594 0.07129 0.88696 0.0
H1595 H 0.50556 0.12672 0.85469 0.0
O1596 O 0.55908 0.05339 0.80436 0.0
C1597 C 0.52696 0.10242 0.81236 0.0
Co1598 Co 0.94871 0.92991 0.32143 0.0
Co1599 Co 0.96945 0.9045 0.34826 0.0
C1600 C 0.92884 0.9057 0.34706 0.0
O1601 O 0.92826 0.91731 0.33428 0.0
O1602 O 0.94381 0.89988 0.3532 0.0
C1603 C 0.92735 0.95996 0.30464 0.0
O1604 O 0.91865 0.96265 0.31989 0.0
C1605 C 0.98077 0.89107 0.38393 0.0
C1606 C 0.00643 0.8773 0.37722 0.0
C1607 C 0.99525 0.8819 0.39152 0.0
N1608 N 0.98335 0.89194 0.36596 0.0
N1609 N 0.99854 0.8834 0.36201 0.0
C1610 C 0.96575 0.90044 0.3937 0.0
H1611 H 0.9594 0.91083 0.38493 0.0
H1612 H 0.97088 0.90681 0.40629 0.0
H1613 H 0.95536 0.89032 0.39753 0.0
C1614 C 0.97153 0.95764 0.34039 0.0
N1615 N 0.96519 0.94064 0.3382 0.0
N1616 N 0.97402 0.92975 0.34921 0.0
C1617 C 0.98615 0.93942 0.35872 0.0
C1618 C 0.98483 0.95743 0.35366 0.0
C1619 C 0.96547 0.97354 0.32947 0.0
H1620 H 0.96704 0.97048 0.31487 0.0
H1621 H 0.95093 0.97604 0.33211 0.0
H1622 H 0.97322 0.98592 0.33291 0.0
O1623 O 0.96263 0.9132 0.30567 0.0
O1624 O 0.97693 0.89482 0.32452 0.0
H1625 H 0.00612 0.9191 0.36405 0.0
H1626 H 0.01161 0.94078 0.3734 0.0
C1627 C 0.00037 0.93125 0.37063 0.0
H1628 H 0.99419 0.92724 0.38367 0.0
H1629 H 0.00387 0.88232 0.34899 0.0
O1630 O 0.93945 0.9478 0.30371 0.0
C1631 C 0.97334 0.90005 0.30855 0.0
H1632 H 0.06715 0.12942 0.24639 0.0
H1633 H 0.02587 0.15335 0.28022 0.0
H1634 H 0.04395 0.11838 0.22588 0.0
H1635 H 0.00256 0.14201 0.25954 0.0
H1636 H 0.96926 0.09899 0.22408 0.0
H1637 H 0.99 0.11106 0.24692 0.0
H1638 H 0.02209 0.13553 0.2048 0.0
H1639 H 0.00149 0.12372 0.18203 0.0
C1640 C 0.05312 0.13213 0.24962 0.0
C1641 C 0.0484 0.14239 0.26493 0.0
C1642 C 0.03985 0.12591 0.23777 0.0
C1643 C 0.02151 0.12959 0.241 0.0
C1644 C 0.01663 0.13905 0.25673 0.0
C1645 C 0.02997 0.14551 0.26854 0.0
C1646 C 0.98057 0.1072 0.21971 0.0
C1647 C 0.98378 0.11025 0.20119 0.0
C1648 C 0.99241 0.1141 0.2328 0.0
C1649 C 0.00776 0.12396 0.22757 0.0
C1650 C 0.0105 0.12771 0.20916 0.0
C1651 C 0.9986 0.12103 0.19613 0.0
H1652 H 0.16422 0.72671 0.47508 0.0
H1653 H 0.1148 0.73504 0.44499 0.0
H1654 H 0.15306 0.74671 0.49892 0.0
H1655 H 0.10355 0.7547 0.46912 0.0
H1656 H 0.08478 0.77787 0.52383 0.0
H1657 H 0.09586 0.75335 0.50463 0.0
H1658 H 0.14584 0.78229 0.49645 0.0
H1659 H 0.13468 0.80709 0.51533 0.0
C1660 C 0.1508 0.73244 0.47375 0.0
C1661 C 0.1404 0.72934 0.45811 0.0
C1662 C 0.1445 0.74395 0.48735 0.0
C1663 C 0.12751 0.75224 0.48578 0.0
C1664 C 0.11667 0.74837 0.47067 0.0
C1665 C 0.12312 0.73716 0.45687 0.0
C1666 C 0.09828 0.77888 0.51823 0.0
C1667 C 0.10885 0.79446 0.52106 0.0
C1668 C 0.10454 0.76489 0.50717 0.0
C1669 C 0.12164 0.766 0.49907 0.0
C1670 C 0.13263 0.78109 0.50266 0.0
C1671 C 0.12623 0.79527 0.51341 0.0
H1672 H 0.53195 0.88733 0.71522 0.0
H1673 H 0.48751 0.90066 0.67992 0.0
H1674 H 0.511 0.87323 0.7364 0.0
H1675 H 0.46633 0.88829 0.70159 0.0
H1676 H 0.43195 0.8519 0.73543 0.0
H1677 H 0.45361 0.86387 0.71401 0.0
H1678 H 0.48983 0.87691 0.7582 0.0
H1679 H 0.46858 0.86318 0.77936 0.0
C1680 C 0.51764 0.88728 0.71209 0.0
C1681 C 0.51133 0.89483 0.69588 0.0
C1682 C 0.50553 0.87942 0.72434 0.0
C1683 C 0.48676 0.87952 0.72093 0.0
C1684 C 0.4806 0.88733 0.70466 0.0
C1685 C 0.49275 0.89458 0.69218 0.0
C1686 C 0.44455 0.85742 0.74051 0.0
C1687 C 0.44858 0.85676 0.75901 0.0
C1688 C 0.45701 0.86444 0.72822 0.0
C1689 C 0.47363 0.87163 0.73418 0.0
C1690 C 0.47745 0.87122 0.75288 0.0
C1691 C 0.46519 0.86356 0.76511 0.0
H1692 H 0.38224 0.17849 0.99506 0.0
H1693 H 0.40143 0.22105 0.03028 0.0
H1694 H 0.36988 0.20111 0.97455 0.0
H1695 H 0.38907 0.24366 0.00962 0.0
H1696 H 0.34786 0.27673 0.97468 0.0
H1697 H 0.35965 0.25526 0.99687 0.0
H1698 H 0.38375 0.224 0.95386 0.0
H1699 H 0.37201 0.2453 0.93169 0.0
C1700 C 0.38363 0.19264 0.99857 0.0
C1701 C 0.39292 0.19793 0.0143 0.0
C1702 C 0.37669 0.20561 0.98671 0.0
C1703 C 0.37873 0.22416 0.99036 0.0
C1704 C 0.38728 0.22947 0.00647 0.0
C1705 C 0.39437 0.21649 0.01828 0.0
C1706 C 0.35585 0.2654 0.96996 0.0
C1707 C 0.35892 0.26273 0.95137 0.0
C1708 C 0.3626 0.25312 0.98269 0.0
C1709 C 0.3724 0.23783 0.97708 0.0
C1710 C 0.37595 0.23548 0.95856 0.0
C1711 C 0.36936 0.24781 0.94587 0.0
H1712 H 0.02922 0.83539 0.22687 0.0
H1713 H 0.06179 0.88292 0.23681 0.0
H1714 H 0.00551 0.84759 0.24636 0.0
H1715 H 0.03772 0.89526 0.25595 0.0
H1716 H 0.98142 0.9159 0.27625 0.0
H1717 H 0.00162 0.90434 0.2527 0.0
H1718 H 0.00827 0.85474 0.28268 0.0
H1719 H 0.9885 0.86642 0.30652 0.0
C1720 C 0.03116 0.84863 0.23285 0.0
C1721 C 0.04742 0.85819 0.23033 0.0
C1722 C 0.01761 0.85552 0.24407 0.0
C1723 C 0.01987 0.87229 0.25262 0.0
C1724 C 0.03568 0.88232 0.24939 0.0
C1725 C 0.04943 0.87525 0.23849 0.0
C1726 C 0.98695 0.90241 0.27768 0.0
C1727 C 0.98338 0.89204 0.29323 0.0
C1728 C 0.99857 0.89588 0.26426 0.0
C1729 C 0.00644 0.87871 0.26596 0.0
C1730 C 0.00225 0.868 0.28106 0.0
C1731 C 0.99098 0.87469 0.29469 0.0
H1732 H 0.35071 0.71884 0.52723 0.0
H1733 H 0.37404 0.75281 0.56874 0.0
H1734 H 0.36286 0.73907 0.504 0.0
H1735 H 0.38592 0.77292 0.54555 0.0
H1736 H 0.37893 0.81654 0.5024 0.0
H1737 H 0.36822 0.79364 0.52339 0.0
H1738 H 0.39409 0.75203 0.49171 0.0
H1739 H 0.40515 0.77506 0.47056 0.0
C1740 C 0.35864 0.73042 0.5314 0.0
C1741 C 0.36127 0.73427 0.54987 0.0
C1742 C 0.36559 0.74196 0.5181 0.0
C1743 C 0.37506 0.75766 0.52304 0.0
C1744 C 0.37842 0.76103 0.54142 0.0
C1745 C 0.3717 0.74942 0.55468 0.0
C1746 C 0.38222 0.80252 0.4997 0.0
C1747 C 0.39302 0.79767 0.48482 0.0
C1748 C 0.37617 0.78942 0.51183 0.0
C1749 C 0.38058 0.77114 0.5093 0.0
C1750 C 0.39058 0.76607 0.49397 0.0
C1751 C 0.39688 0.77925 0.48189 0.0
H1752 H 0.4325 0.13047 0.7531 0.0
H1753 H 0.47374 0.15441 0.71926 0.0
H1754 H 0.45579 0.11902 0.77334 0.0
H1755 H 0.49711 0.1426 0.73961 0.0
H1756 H 0.53008 0.09899 0.77541 0.0
H1757 H 0.50921 0.11066 0.75241 0.0
H1758 H 0.47813 0.13715 0.79407 0.0
H1759 H 0.49887 0.12586 0.81695 0.0
C1760 C 0.44653 0.13306 0.74979 0.0
C1761 C 0.45122 0.14349 0.7346 0.0
C1762 C 0.45985 0.12658 0.76147 0.0
C1763 C 0.47819 0.13014 0.75813 0.0
C1764 C 0.48304 0.13971 0.74247 0.0
C1765 C 0.46966 0.14646 0.73087 0.0
C1766 C 0.51896 0.10755 0.77963 0.0
C1767 C 0.51611 0.11139 0.79806 0.0
C1768 C 0.50705 0.11421 0.76646 0.0
C1769 C 0.49196 0.12455 0.77155 0.0
C1770 C 0.48953 0.12897 0.78984 0.0
C1771 C 0.50152 0.12258 0.80292 0.0
H1772 H 0.08296 0.22074 0.98369 0.0
H1773 H 0.12857 0.18503 0.99146 0.0
H1774 H 0.09643 0.24249 0.00473 0.0
H1775 H 0.14224 0.20715 0.01205 0.0
H1776 H 0.16578 0.26443 0.03006 0.0
H1777 H 0.15216 0.24439 0.00755 0.0
H1778 H 0.10587 0.23677 0.04215 0.0
H1779 H 0.11969 0.25642 0.06507 0.0
C1780 C 0.096 0.21769 0.98962 0.0
C1781 C 0.10475 0.2012 0.9859 0.0
C1782 C 0.1036 0.23007 0.00172 0.0
C1783 C 0.12028 0.22639 0.00994 0.0
C1784 C 0.12936 0.21024 0.00579 0.0
C1785 C 0.12155 0.19763 0.99404 0.0
C1786 C 0.15261 0.25864 0.03283 0.0
C1787 C 0.14377 0.26201 0.04934 0.0
C1788 C 0.14491 0.24713 0.01998 0.0
C1789 C 0.12804 0.23914 0.0232 0.0
C1790 C 0.11889 0.24289 0.03941 0.0
C1791 C 0.12679 0.25407 0.05248 0.0
H1792 H 0.26961 0.02686 0.16696 0.0
H1793 H 0.26333 0.0555 0.11642 0.0
H1794 H 0.25007 0.00266 0.15563 0.0
H1795 H 0.24414 0.0311 0.10504 0.0
H1796 H 0.22271 0.97617 0.08601 0.0
H1797 H 0.24634 0.99587 0.09805 0.0
H1798 H 0.21511 0.00385 0.14666 0.0
H1799 H 0.19121 0.98443 0.13455 0.0
C1800 C 0.26435 0.02782 0.15332 0.0
C1801 C 0.26795 0.04311 0.14258 0.0
C1802 C 0.25313 0.01402 0.14691 0.0
C1803 C 0.24565 0.01506 0.1295 0.0
C1804 C 0.24987 0.02993 0.11847 0.0
C1805 C 0.26078 0.04391 0.12501 0.0
C1806 C 0.221 0.98183 0.09942 0.0
C1807 C 0.20504 0.97881 0.10931 0.0
C1808 C 0.2345 0.99317 0.10623 0.0
C1809 C 0.23247 0.00139 0.12321 0.0
C1810 C 0.21701 0.99757 0.13356 0.0
C1811 C 0.20333 0.98651 0.1266 0.0
H1812 H 0.22275 0.02845 0.40301 0.0
H1813 H 0.17991 0.99467 0.38194 0.0
H1814 H 0.24519 0.00766 0.39055 0.0
H1815 H 0.20235 0.97404 0.36948 0.0
H1816 H 0.27819 0.97349 0.34861 0.0
H1817 H 0.25707 0.99569 0.361 0.0
H1818 H 0.22455 0.95245 0.38293 0.0
H1819 H 0.24549 0.93028 0.37057 0.0
C1820 C 0.2181 0.01674 0.39554 0.0
C1821 C 0.19951 0.0132 0.39356 0.0
C1822 C 0.23097 0.00485 0.38839 0.0
C1823 C 0.22552 0.98911 0.37925 0.0
C1824 C 0.20696 0.9859 0.37675 0.0
C1825 C 0.1941 0.99783 0.38376 0.0
C1826 C 0.26666 0.96872 0.35626 0.0
C1827 C 0.26352 0.95008 0.35851 0.0
C1828 C 0.25458 0.98144 0.36336 0.0
C1829 C 0.23904 0.97579 0.3727 0.0
C1830 C 0.23624 0.9572 0.37549 0.0
C1831 C 0.24835 0.9445 0.36854 0.0
H1832 H 0.3116 0.01135 0.6352 0.0
H1833 H 0.2789 0.02028 0.58759 0.0
H1834 H 0.28796 0.99169 0.6476 0.0
H1835 H 0.25563 1.00024 0.59982 0.0
H1836 H 0.23858 0.94039 0.61984 0.0
H1837 H 0.25859 0.96387 0.60774 0.0
H1838 H 0.25176 0.99506 0.65655 0.0
H1839 H 0.23134 0.97192 0.66851 0.0
C1840 C 0.29931 0.00929 0.6275 0.0
C1841 C 0.2971 0.0174 0.61045 0.0
C1842 C 0.28581 0.99809 0.63459 0.0
C1843 C 0.27007 0.99446 0.62459 0.0
C1844 C 0.26768 0.00283 0.60774 0.0
C1845 C 0.28096 0.01436 0.60083 0.0
C1846 C 0.2411 0.9524 0.62785 0.0
C1847 C 0.23335 0.95433 0.64509 0.0
C1848 C 0.25251 0.96581 0.62093 0.0
C1849 C 0.2567 0.98117 0.63128 0.0
C1850 C 0.24873 0.98329 0.64836 0.0
C1851 C 0.23698 0.9701 0.65511 0.0
H1852 H 0.21921 0.02933 0.84218 0.0
H1853 H 0.2512 0.07042 0.86884 0.0
H1854 H 0.23988 0.00603 0.85361 0.0
H1855 H 0.2717 0.04726 0.87995 0.0
H1856 H 0.3165 0.00559 0.87513 0.0
H1857 H 0.2939 0.02622 0.86301 0.0
H1858 H 0.25134 0.99289 0.88494 0.0
H1859 H 0.27399 0.97212 0.89732 0.0
C1860 C 0.23049 0.03338 0.8506 0.0
C1861 C 0.23358 0.05177 0.8545 0.0
C1862 C 0.24228 0.02005 0.85713 0.0
C1863 C 0.25749 0.02492 0.86741 0.0
C1864 C 0.26023 0.04318 0.87179 0.0
C1865 C 0.24837 0.05643 0.86551 0.0
C1866 C 0.30234 0.00245 0.8772 0.0
C1867 C 0.29708 0.98725 0.88733 0.0
C1868 C 0.28941 0.01435 0.87034 0.0
C1869 C 0.27091 0.01124 0.87326 0.0
C1870 C 0.26553 0.99557 0.88253 0.0
C1871 C 0.27851 0.98373 0.88962 0.0
H1872 H 0.62906 0.31353 0.00963 0.0
H1873 H 0.58357 0.27838 0.02011 0.0
H1874 H 0.6422 0.2904 0.98982 0.0
H1875 H 0.5965 0.25561 0.99989 0.0
H1876 H 0.61663 0.23986 0.93926 0.0
H1877 H 0.60387 0.25949 0.96273 0.0
H1878 H 0.6527 0.25389 0.99412 0.0
H1879 H 0.66531 0.23381 0.971 0.0
C1880 C 0.62197 0.30083 0.00785 0.0
C1881 C 0.60532 0.29776 0.01646 0.0
C1882 C 0.6295 0.28763 0.99657 0.0
C1883 C 0.62028 0.27133 0.99338 0.0
C1884 C 0.60381 0.26811 0.00217 0.0
C1885 C 0.5965 0.2811 0.01379 0.0
C1886 C 0.6245 0.24256 0.95131 0.0
C1887 C 0.64193 0.23526 0.95332 0.0
C1888 C 0.61721 0.25375 0.96471 0.0
C1889 C 0.62739 0.25818 0.98011 0.0
C1890 C 0.64466 0.25065 0.98231 0.0
C1891 C 0.65178 0.2391 0.96914 0.0
H1892 H 0.0324 0.39738 0.22658 0.0
H1893 H 0.99787 0.37498 0.18503 0.0
H1894 H 0.01212 0.38521 0.24983 0.0
H1895 H 0.97769 0.36319 0.20821 0.0
H1896 H 0.93467 0.37189 0.25195 0.0
H1897 H 0.95795 0.38262 0.23143 0.0
H1898 H 0.99825 0.35234 0.26077 0.0
H1899 H 0.97478 0.34115 0.28143 0.0
C1900 C 0.02067 0.38968 0.22241 0.0
C1901 C 0.01669 0.38727 0.20394 0.0
C1902 C 0.00913 0.38271 0.23571 0.0
C1903 C 0.9933 0.3735 0.23073 0.0
C1904 C 0.98974 0.37043 0.21235 0.0
C1905 C 0.00136 0.37712 0.19909 0.0
C1906 C 0.94848 0.36763 0.25427 0.0
C1907 C 0.95281 0.35552 0.2683 0.0
C1908 C 0.96179 0.37371 0.24242 0.0
C1909 C 0.97978 0.36808 0.24442 0.0
C1910 C 0.98441 0.35679 0.25897 0.0
C1911 C 0.97099 0.35043 0.27075 0.0
H1912 H 0.87568 0.68227 0.49462 0.0
H1913 H 0.90043 0.72525 0.52561 0.0
H1914 H 0.86381 0.70443 0.4734 0.0
H1915 H 0.88846 0.74745 0.50422 0.0
H1916 H 0.84644 0.78078 0.47 0.0
H1917 H 0.85875 0.76019 0.49271 0.0
H1918 H 0.87802 0.72496 0.45034 0.0
H1919 H 0.86575 0.74542 0.42762 0.0
C1920 C 0.87843 0.69645 0.49706 0.0
C1921 C 0.8891 0.70195 0.51181 0.0
C1922 C 0.87175 0.70913 0.48477 0.0
C1923 C 0.87544 0.72763 0.48701 0.0
C1924 C 0.88542 0.73327 0.50216 0.0
C1925 C 0.89226 0.72054 0.5144 0.0
C1926 C 0.8535 0.76876 0.46551 0.0
C1927 C 0.85502 0.76472 0.44697 0.0
C1928 C 0.86056 0.75699 0.47854 0.0
C1929 C 0.86913 0.74086 0.4733 0.0
C1930 C 0.87121 0.73715 0.45478 0.0
C1931 C 0.86431 0.74897 0.44176 0.0
H1932 H 0.00383 0.62631 0.31664 0.0
H1933 H 0.03254 0.59613 0.27556 0.0
H1934 H 0.98311 0.63767 0.2938 0.0
H1935 H 0.01169 0.60789 0.25259 0.0
H1936 H 0.97656 0.65152 0.21865 0.0
H1937 H 0.00029 0.63996 0.23874 0.0
H1938 H 0.95951 0.61888 0.27471 0.0
H1939 H 0.93587 0.63008 0.25476 0.0
C1940 C 0.00596 0.62233 0.30271 0.0
C1941 C 0.01978 0.61014 0.29799 0.0
C1942 C 0.99399 0.62878 0.28966 0.0
C1943 C 0.99568 0.62341 0.27154 0.0
C1944 C 0.01012 0.61216 0.26652 0.0
C1945 C 0.02202 0.60547 0.27966 0.0
C1946 C 0.97267 0.64417 0.2307 0.0
C1947 C 0.9543 0.64183 0.23515 0.0
C1948 C 0.98625 0.63757 0.24215 0.0
C1949 C 0.98166 0.6288 0.25834 0.0
C1950 C 0.96336 0.62584 0.26241 0.0
C1951 C 0.94984 0.63216 0.25089 0.0
H1952 H 0.49968 0.3688 0.81588 0.0
H1953 H 0.47074 0.3985 0.77462 0.0
H1954 H 0.52011 0.35693 0.79297 0.0
H1955 H 0.49125 0.38622 0.75162 0.0
H1956 H 0.52786 0.34256 0.71821 0.0
H1957 H 0.50351 0.35247 0.73858 0.0
H1958 H 0.54292 0.37793 0.77323 0.0
H1959 H 0.56705 0.36853 0.75303 0.0
C1960 C 0.4974 0.37251 0.8019 0.0
C1961 C 0.48367 0.38478 0.79713 0.0
C1962 C 0.50915 0.36573 0.78881 0.0
C1963 C 0.50728 0.37082 0.77063 0.0
C1964 C 0.49289 0.3821 0.76558 0.0
C1965 C 0.48123 0.38914 0.77875 0.0
C1966 C 0.53127 0.35044 0.73007 0.0
C1967 C 0.54941 0.35471 0.734 0.0
C1968 C 0.51736 0.35609 0.74167 0.0
C1969 C 0.52146 0.36574 0.75751 0.0
C1970 C 0.53948 0.37032 0.76119 0.0
C1971 C 0.55327 0.365 0.74953 0.0
H1972 H 0.47141 0.59583 0.72326 0.0
H1973 H 0.50348 0.62411 0.68338 0.0
H1974 H 0.49185 0.60661 0.74711 0.0
H1975 H 0.52383 0.63445 0.70708 0.0
H1976 H 0.56831 0.62568 0.74927 0.0
H1977 H 0.54543 0.61451 0.7284 0.0
H1978 H 0.50361 0.63966 0.76033 0.0
H1979 H 0.52658 0.65126 0.78128 0.0
C1980 C 0.48266 0.60445 0.7196 0.0
C1981 C 0.48584 0.60904 0.7014 0.0
C1982 C 0.4943 0.61061 0.73324 0.0
C1983 C 0.50946 0.62115 0.72883 0.0
C1984 C 0.51232 0.62616 0.71076 0.0
C1985 C 0.50058 0.62031 0.69723 0.0
C1986 C 0.55425 0.62867 0.75207 0.0
C1987 C 0.5493 0.6395 0.7669 0.0
C1988 C 0.54117 0.62232 0.74005 0.0
C1989 C 0.52285 0.62641 0.74272 0.0
C1990 C 0.51769 0.63637 0.75803 0.0
C1991 C 0.53084 0.643 0.76996 0.0
H1992 H 0.84837 0.21745 0.02593 0.0
H1993 H 0.8676 0.25256 0.06857 0.0
H1994 H 0.86045 0.23842 0.00335 0.0
H1995 H 0.87949 0.27339 0.04603 0.0
H1996 H 0.87448 0.31668 0.0026 0.0
H1997 H 0.86323 0.29358 0.0231 0.0
H1998 H 0.89094 0.25242 0.99238 0.0
H1999 H 0.90245 0.27562 0.97173 0.0
C2000 C 0.85537 0.22948 0.0305 0.0
C2001 C 0.8569 0.23337 0.04908 0.0
C2002 C 0.86229 0.24145 0.01757 0.0
C2003 C 0.87065 0.25763 0.02297 0.0
C2004 C 0.87283 0.26114 0.0415 0.0
C2005 C 0.86613 0.24912 0.05441 0.0
C2006 C 0.87805 0.30271 1.0 0.0
C2007 C 0.88948 0.29805 0.98554 0.0
C2008 C 0.8717 0.2895 0.01187 0.0
C2009 C 0.87645 0.27127 0.00948 0.0
C2010 C 0.88712 0.2664 0.99454 0.0
C2011 C 0.89368 0.27969 0.98273 0.0
H2012 H 0.61737 0.67781 0.50317 0.0
H2013 H 0.59854 0.72104 0.46858 0.0
H2014 H 0.63001 0.70001 0.52396 0.0
H2015 H 0.61121 0.74324 0.48953 0.0
H2016 H 0.65277 0.77533 0.52504 0.0
H2017 H 0.64089 0.75427 0.50249 0.0
H2018 H 0.61617 0.72275 0.54494 0.0
H2019 H 0.62798 0.74365 0.56747 0.0
C2020 C 0.61611 0.69203 0.49985 0.0
C2021 C 0.60684 0.69762 0.48422 0.0
C2022 C 0.62322 0.70474 0.51187 0.0
C2023 C 0.62137 0.72335 0.50849 0.0
C2024 C 0.61285 0.72898 0.49247 0.0
C2025 C 0.60558 0.71625 0.4805 0.0
C2026 C 0.64464 0.76402 0.52956 0.0
C2027 C 0.64139 0.76117 0.54809 0.0
C2028 C 0.63784 0.75197 0.51663 0.0
C2029 C 0.62781 0.73675 0.52198 0.0
C2030 C 0.62414 0.7342 0.54044 0.0
C2031 C 0.63078 0.74629 0.55334 0.0
H2032 H 0.69253 0.49211 0.63368 0.0
H2033 H 0.72545 0.48607 0.5858 0.0
H2034 H 0.71532 0.51234 0.64671 0.0
H2035 H 0.74789 0.50677 0.59868 0.0
H2036 H 0.76122 0.56724 0.62244 0.0
H2037 H 0.74206 0.54368 0.60905 0.0
H2038 H 0.75284 0.50886 0.65457 0.0
H2039 H 0.77241 0.53204 0.66774 0.0
C2040 C 0.70471 0.49493 0.62605 0.0
C2041 C 0.70725 0.48746 0.60877 0.0
C2042 C 0.7177 0.50648 0.6335 0.0
C2043 C 0.73322 0.51109 0.6236 0.0
C2044 C 0.73598 0.50339 0.60649 0.0
C2045 C 0.72321 0.49148 0.59923 0.0
C2046 C 0.75971 0.55446 0.62944 0.0
C2047 C 0.76835 0.55148 0.6461 0.0
C2048 C 0.74882 0.54101 0.62178 0.0
C2049 C 0.74605 0.52457 0.63086 0.0
C2050 C 0.75483 0.52147 0.64736 0.0
C2051 C 0.76606 0.53471 0.65481 0.0
H2052 H 0.7724 0.47199 0.83452 0.0
H2053 H 0.761 0.43634 0.87941 0.0
H2054 H 0.7524 0.49485 0.84758 0.0
H2055 H 0.74139 0.45957 0.89268 0.0
H2056 H 0.72314 0.51613 0.91635 0.0
H2057 H 0.74607 0.49583 0.90375 0.0
H2058 H 0.71521 0.49147 0.85446 0.0
H2059 H 0.69193 0.51133 0.86719 0.0
C2060 C 0.76592 0.46917 0.84735 0.0
C2061 C 0.76827 0.45236 0.85595 0.0
C2062 C 0.75443 0.48222 0.85473 0.0
C2063 C 0.74543 0.47889 0.87107 0.0
C2064 C 0.7483 0.46242 0.88009 0.0
C2065 C 0.75946 0.44917 0.87249 0.0
C2066 C 0.72137 0.51107 0.90272 0.0
C2067 C 0.70575 0.51533 0.89273 0.0
C2068 C 0.73442 0.49938 0.89561 0.0
C2069 C 0.7323 0.49214 0.87821 0.0
C2070 C 0.71711 0.49698 0.8679 0.0
C2071 C 0.70383 0.50831 0.87517 0.0
H2072 H 0.72365 0.4732 0.15081 0.0
H2073 H 0.75481 0.43054 0.12572 0.0
H2074 H 0.74509 0.49555 0.13928 0.0
H2075 H 0.77609 0.45287 0.11426 0.0
H2076 H 0.82183 0.49391 0.11701 0.0
H2077 H 0.79907 0.47316 0.12872 0.0
H2078 H 0.75676 0.50881 0.11008 0.0
H2079 H 0.7795 0.52969 0.09836 0.0
C2080 C 0.7349 0.46859 0.14265 0.0
C2081 C 0.73753 0.45004 0.13928 0.0
C2082 C 0.74717 0.48141 0.13606 0.0
C2083 C 0.7624 0.47592 0.12611 0.0
C2084 C 0.76466 0.45747 0.12218 0.0
C2085 C 0.75235 0.44469 0.12862 0.0
C2086 C 0.8077 0.49748 0.11559 0.0
C2087 C 0.80252 0.51344 0.10666 0.0
C2088 C 0.79466 0.48549 0.12216 0.0
C2089 C 0.77614 0.48925 0.12009 0.0
C2090 C 0.77093 0.50557 0.11187 0.0
C2091 C 0.78398 0.5175 0.10515 0.0
H2092 H 0.81454 0.48817 0.3701 0.0
H2093 H 0.77912 0.47594 0.41494 0.0
H2094 H 0.79121 0.50786 0.3572 0.0
H2095 H 0.75612 0.49595 0.40222 0.0
H2096 H 0.73878 0.5562 0.3853 0.0
H2097 H 0.75851 0.53233 0.39698 0.0
H2098 H 0.75611 0.50494 0.34553 0.0
H2099 H 0.73595 0.52853 0.33391 0.0
C2100 C 0.80173 0.48949 0.37707 0.0
C2101 C 0.79868 0.4805 0.39353 0.0
C2102 C 0.7884 0.5007 0.36967 0.0
C2103 C 0.77197 0.50341 0.3788 0.0
C2104 C 0.76872 0.49409 0.39498 0.0
C2105 C 0.78186 0.48258 0.40218 0.0
C2106 C 0.74223 0.54495 0.37657 0.0
C2107 C 0.7358 0.54421 0.35871 0.0
C2108 C 0.75347 0.5313 0.38327 0.0
C2109 C 0.7588 0.51689 0.3721 0.0
C2110 C 0.75218 0.51597 0.35435 0.0
C2111 C 0.74058 0.52939 0.34778 0.0
H2112 H 0.15194 0.23043 0.17145 0.0
H2113 H 0.11784 0.27772 0.16912 0.0
H2114 H 0.14345 0.22577 0.20302 0.0
H2115 H 0.10882 0.27272 0.20081 0.0
H2116 H 0.08143 0.22654 0.24203 0.0
H2117 H 0.09091 0.24298 0.21487 0.0
H2118 H 0.1458 0.24384 0.23463 0.0
H2119 H 0.13622 0.22777 0.26194 0.0
C2120 C 0.14276 0.23992 0.17782 0.0
C2121 C 0.13556 0.25444 0.168 0.0
C2122 C 0.13801 0.23735 0.19587 0.0
C2123 C 0.12562 0.249 0.20433 0.0
C2124 C 0.11851 0.26367 0.19458 0.0
C2125 C 0.12366 0.26653 0.17656 0.0
C2126 C 0.09531 0.23111 0.24097 0.0
C2127 C 0.10815 0.22594 0.25395 0.0
C2128 C 0.10074 0.24044 0.22543 0.0
C2129 C 0.1191 0.24446 0.22266 0.0
C2130 C 0.13158 0.24083 0.23649 0.0
C2131 C 0.12611 0.23175 0.2521 0.0
H2132 H 0.02703 0.88944 0.40774 0.0
H2133 H 0.97354 0.86876 0.4185 0.0
H2134 H 0.03535 0.88459 0.43932 0.0
H2135 H 0.98206 0.86346 0.45026 0.0
H2136 H 0.0246 0.8335 0.49246 0.0
H2137 H 0.00843 0.84134 0.46461 0.0
H2138 H 0.02396 0.89719 0.47137 0.0
H2139 H 0.03961 0.88947 0.49947 0.0
C2140 C 0.01705 0.88392 0.41693 0.0
C2141 C 0.99966 0.87952 0.4108 0.0
C2142 C 0.02175 0.88126 0.43498 0.0
C2143 C 0.00927 0.87379 0.44717 0.0
C2144 C 0.99184 0.86934 0.44108 0.0
C2145 C 0.98698 0.87241 0.42303 0.0
C2146 C 0.02388 0.84755 0.48839 0.0
C2147 C 0.03337 0.8609 0.49801 0.0
C2148 C 0.01471 0.85201 0.47244 0.0
C2149 C 0.01514 0.86982 0.46585 0.0
C2150 C 0.02355 0.88335 0.47617 0.0
C2151 C 0.03247 0.87894 0.49219 0.0
H2152 H 0.38855 0.72065 0.66869 0.0
H2153 H 0.35104 0.76515 0.67249 0.0
H2154 H 0.39764 0.72564 0.7004 0.0
H2155 H 0.35951 0.76968 0.70418 0.0
H2156 H 0.42138 0.77491 0.74146 0.0
H2157 H 0.41297 0.75841 0.714 0.0
H2158 H 0.35977 0.74899 0.73596 0.0
H2159 H 0.36844 0.76491 0.76373 0.0
C2160 C 0.38202 0.7312 0.67648 0.0
C2161 C 0.36916 0.74257 0.66835 0.0
C2162 C 0.38717 0.73403 0.6945 0.0
C2163 C 0.3791 0.74789 0.70466 0.0
C2164 C 0.36572 0.75873 0.69666 0.0
C2165 C 0.36095 0.75623 0.67858 0.0
C2166 C 0.40825 0.76845 0.7408 0.0
C2167 C 0.3955 0.77116 0.7546 0.0
C2168 C 0.40341 0.7591 0.72508 0.0
C2169 C 0.3857 0.75262 0.72291 0.0
C2170 C 0.37351 0.75388 0.7374 0.0
C2171 C 0.37847 0.76289 0.75325 0.0
H2172 H 0.46871 0.17136 0.98918 0.0
H2173 H 0.49189 0.12342 0.01281 0.0
H2174 H 0.48487 0.16557 0.96115 0.0
H2175 H 0.50892 0.11781 0.98496 0.0
H2176 H 0.50727 0.0988 0.92502 0.0
H2177 H 0.50054 0.10697 0.95617 0.0
H2178 H 0.51106 0.16315 0.94365 0.0
H2179 H 0.51705 0.15485 0.91227 0.0
C2180 C 0.47795 0.15999 0.98855 0.0
C2181 C 0.47922 0.14787 0.00303 0.0
C2182 C 0.48726 0.15662 0.97249 0.0
C2183 C 0.49812 0.14107 0.97064 0.0
C2184 C 0.50042 0.12971 0.98576 0.0
C2185 C 0.49092 0.13302 0.00178 0.0
C2186 C 0.50864 0.1128 0.92909 0.0
C2187 C 0.51274 0.1262 0.91633 0.0
C2188 C 0.50479 0.11754 0.94698 0.0
C2189 C 0.50514 0.13578 0.9525 0.0
C2190 C 0.51029 0.14902 0.93985 0.0
C2191 C 0.51383 0.1443 0.92191 0.0
H2192 H 0.15109 0.75008 0.33419 0.0
H2193 H 0.09533 0.73427 0.3403 0.0
H2194 H 0.14503 0.76007 0.30345 0.0
H2195 H 0.08922 0.74341 0.30916 0.0
H2196 H 0.08013 0.78627 0.26488 0.0
H2197 H 0.08555 0.77006 0.29303 0.0
H2198 H 0.13825 0.75385 0.27336 0.0
H2199 H 0.13295 0.77112 0.24563 0.0
C2200 C 0.13766 0.74816 0.32866 0.0
C2201 C 0.12371 0.74126 0.33945 0.0
C2202 C 0.13413 0.75388 0.311 0.0
C2203 C 0.11658 0.75262 0.30368 0.0
C2204 C 0.10281 0.74495 0.31438 0.0
C2205 C 0.1063 0.73956 0.33216 0.0
C2206 C 0.09268 0.77888 0.26654 0.0
C2207 C 0.1061 0.77974 0.25322 0.0
C2208 C 0.09582 0.76951 0.28262 0.0
C2209 C 0.11242 0.76064 0.28563 0.0
C2210 C 0.12546 0.76079 0.27174 0.0
C2211 C 0.1224 0.77045 0.25577 0.0
H2212 H 0.47368 0.88921 0.48664 0.0
H2213 H 0.47921 0.83482 0.5069 0.0
H2214 H 0.49047 0.90072 0.51268 0.0
H2215 H 0.49606 0.84628 0.53304 0.0
H2216 H 0.52881 0.87463 0.57778 0.0
H2217 H 0.52308 0.86472 0.54653 0.0
H2218 H 0.47655 0.89995 0.54418 0.0
H2219 H 0.48214 0.90955 0.57518 0.0
C2220 C 0.47917 0.87969 0.49633 0.0
C2221 C 0.47518 0.8612 0.49491 0.0
C2222 C 0.48867 0.88625 0.51124 0.0
C2223 C 0.49431 0.87441 0.52498 0.0
C2224 C 0.49195 0.85568 0.52259 0.0
C2225 C 0.48237 0.84911 0.50764 0.0
C2226 C 0.51763 0.88049 0.57036 0.0
C2227 C 0.50593 0.89289 0.57875 0.0
C2228 C 0.51432 0.87478 0.55258 0.0
C2229 C 0.49949 0.8817 0.54291 0.0
C2230 C 0.48827 0.89461 0.55118 0.0
C2231 C 0.49136 0.90002 0.56895 0.0
H2232 H 0.34968 0.23103 0.83116 0.0
H2233 H 0.37994 0.28089 0.82973 0.0
H2234 H 0.3566 0.22579 0.79932 0.0
H2235 H 0.3874 0.27536 0.79772 0.0
H2236 H 0.41634 0.23039 0.75664 0.0
H2237 H 0.40687 0.24708 0.78365 0.0
H2238 H 0.35111 0.24175 0.76733 0.0
H2239 H 0.36062 0.22542 0.74017 0.0
C2240 C 0.35765 0.24095 0.8239 0.0
C2241 C 0.36426 0.25635 0.83275 0.0
C2242 C 0.3615 0.23804 0.8057 0.0
C2243 C 0.3724 0.25027 0.79609 0.0
C2244 C 0.37886 0.26585 0.80485 0.0
C2245 C 0.37458 0.269 0.82305 0.0
C2246 C 0.40216 0.23359 0.75841 0.0
C2247 C 0.38915 0.22654 0.74652 0.0
C2248 C 0.39674 0.24308 0.77385 0.0
C2249 C 0.37827 0.24546 0.7776 0.0
C2250 C 0.36542 0.23998 0.76474 0.0
C2251 C 0.37084 0.23071 0.74923 0.0
H2252 H 0.0088 0.12262 0.98679 0.0
H2253 H 0.03076 0.17048 0.01168 0.0
H2254 H 0.99197 0.11583 0.01448 0.0
H2255 H 0.01489 0.1635 0.03957 0.0
H2256 H 0.98396 0.15059 0.08847 0.0
H2257 H 0.98918 0.15993 0.05726 0.0
H2258 H 0.00042 0.10433 0.04282 0.0
H2259 H 0.99425 0.0951 0.07381 0.0
C2260 C 0.00954 0.13193 0.99807 0.0
C2261 C 0.02082 0.14712 0.99722 0.0
C2262 C 0.00016 0.12795 0.01401 0.0
C2263 C 0.00222 0.13895 0.02944 0.0
C2264 C 0.01267 0.15482 0.028 0.0
C2265 C 0.02182 0.15887 0.01202 0.0
C2266 C 0.98716 0.14039 0.07844 0.0
C2267 C 0.98867 0.12216 0.08341 0.0
C2268 C 0.99026 0.14572 0.06059 0.0
C2269 C 0.99546 0.13296 0.04746 0.0
C2270 C 0.99616 0.11455 0.05239 0.0
C2271 C 0.99268 0.10921 0.07018 0.0
H2272 H 0.24535 0.08601 0.22613 0.0
H2273 H 0.25474 0.14133 0.21011 0.0
H2274 H 0.21811 0.09537 0.24245 0.0
H2275 H 0.22729 0.15063 0.22604 0.0
H2276 H 0.16357 0.14637 0.22347 0.0
H2277 H 0.19506 0.1407 0.21548 0.0
H2278 H 0.2043 0.11696 0.26801 0.0
H2279 H 0.17261 0.12297 0.27616 0.0
C2280 C 0.24196 0.10025 0.22668 0.0
C2281 C 0.25204 0.11297 0.21685 0.0
C2282 C 0.22636 0.10559 0.23596 0.0
C2283 C 0.22057 0.12368 0.23531 0.0
C2284 C 0.23143 0.13658 0.22661 0.0
C2285 C 0.24709 0.13128 0.21754 0.0
C2286 C 0.17239 0.14015 0.23338 0.0
C2287 C 0.16577 0.13516 0.25042 0.0
C2288 C 0.19041 0.13704 0.22888 0.0
C2289 C 0.20209 0.12853 0.2412 0.0
C2290 C 0.19554 0.12363 0.25834 0.0
C2291 C 0.17751 0.12713 0.26301 0.0
H2292 H 0.10133 0.92167 0.50592 0.0
H2293 H 0.15762 0.90993 0.51571 0.0
H2294 H 0.10899 0.95277 0.49854 0.0
H2295 H 0.16539 0.94127 0.50886 0.0
H2296 H 0.17258 0.98755 0.46702 0.0
H2297 H 0.16723 0.95903 0.48256 0.0
H2298 H 0.11939 0.98171 0.50743 0.0
H2299 H 0.12457 0.01006 0.4911 0.0
C2300 C 0.11528 0.92592 0.50711 0.0
C2301 C 0.12886 0.91344 0.51155 0.0
C2302 C 0.11972 0.9438 0.50287 0.0
C2303 C 0.13785 0.94963 0.50307 0.0
C2304 C 0.15133 0.93724 0.50826 0.0
C2305 C 0.14689 0.9193 0.51227 0.0
C2306 C 0.16128 0.98654 0.47628 0.0
C2307 C 0.14904 0.0009 0.47805 0.0
C2308 C 0.15816 0.97021 0.48522 0.0
C2309 C 0.14274 0.96793 0.49617 0.0
C2310 C 0.1312 0.98285 0.49886 0.0
C2311 C 0.13426 0.99915 0.48976 0.0
H2312 H 0.32769 0.84468 0.73158 0.0
H2313 H 0.32922 0.87869 0.77897 0.0
H2314 H 0.29617 0.85293 0.72655 0.0
H2315 H 0.29751 0.88738 0.77369 0.0
H2316 H 0.23777 0.86144 0.72537 0.0
H2317 H 0.26441 0.85081 0.74191 0.0
H2318 H 0.28394 0.90571 0.74561 0.0
H2319 H 0.25741 0.91625 0.72883 0.0
C2320 C 0.32113 0.85373 0.74106 0.0
C2321 C 0.33074 0.86104 0.75565 0.0
C2322 C 0.30308 0.85834 0.73829 0.0
C2323 C 0.2944 0.87068 0.74983 0.0
C2324 C 0.3039 0.87775 0.7647 0.0
C2325 C 0.32194 0.87277 0.76773 0.0
C2326 C 0.24743 0.87126 0.73038 0.0
C2327 C 0.2457 0.88959 0.72583 0.0
C2328 C 0.26265 0.8652 0.73975 0.0
C2329 C 0.27626 0.87744 0.74484 0.0
C2330 C 0.27356 0.89603 0.74195 0.0
C2331 C 0.2584 0.90207 0.7324 0.0
H2332 H 0.36905 0.08035 0.02614 0.0
H2333 H 0.40571 0.07616 0.98098 0.0
H2334 H 0.35826 0.04939 0.0202 0.0
H2335 H 0.3954 0.04529 0.97536 0.0
H2336 H 0.38354 0.98709 0.97528 0.0
H2337 H 0.39449 0.01349 0.99199 0.0
H2338 H 0.34097 0.03669 0.99034 0.0
H2339 H 0.33014 0.01038 0.97332 0.0
C2340 C 0.37506 0.07263 0.01524 0.0
C2341 C 0.38821 0.08049 0.00402 0.0
C2342 C 0.36888 0.05502 0.01183 0.0
C2343 C 0.37615 0.04495 0.99746 0.0
C2344 C 0.38978 0.05267 0.98671 0.0
C2345 C 0.39559 0.07033 0.98983 0.0
C2346 C 0.374 0.9975 0.97918 0.0
C2347 C 0.35607 0.99684 0.97302 0.0
C2348 C 0.38026 0.01261 0.98862 0.0
C2349 C 0.3686 0.02716 0.99224 0.0
C2350 C 0.35019 0.02558 0.9878 0.0
C2351 C 0.34397 0.01053 0.97814 0.0
H2352 H 0.26222 0.87532 0.26009 0.0
H2353 H 0.23742 0.92214 0.2843 0.0
H2354 H 0.23434 0.86908 0.24335 0.0
H2355 H 0.20935 0.91569 0.26841 0.0
H2356 H 0.16059 0.90394 0.23599 0.0
H2357 H 0.19164 0.91315 0.24232 0.0
H2358 H 0.20599 0.85723 0.25184 0.0
H2359 H 0.17515 0.84816 0.24481 0.0
C2360 C 0.25092 0.88455 0.26135 0.0
C2361 C 0.25187 0.89928 0.27323 0.0
C2362 C 0.23487 0.88087 0.25202 0.0
C2363 C 0.21943 0.89171 0.25468 0.0
C2364 C 0.22093 0.90715 0.26575 0.0
C2365 C 0.23701 0.9109 0.27489 0.0
C2366 C 0.17054 0.89365 0.2391 0.0
C2367 C 0.16557 0.87535 0.23977 0.0
C2368 C 0.1883 0.8989 0.24282 0.0
C2369 C 0.20139 0.88598 0.24773 0.0
C2370 C 0.19646 0.86757 0.24776 0.0
C2371 C 0.17874 0.86231 0.24374 0.0
H2372 H 0.38279 0.00957 0.52148 0.0
H2373 H 0.3317 0.98646 0.53713 0.0
H2374 H 0.38947 0.98276 0.50325 0.0
H2375 H 0.33854 0.95922 0.52 0.0
H2376 H 0.35048 0.91275 0.48492 0.0
H2377 H 0.34276 0.94375 0.49321 0.0
H2378 H 0.39843 0.95313 0.50871 0.0
H2379 H 0.40609 0.9225 0.49931 0.0
C2380 C 0.37289 0.99881 0.52068 0.0
C2381 C 0.3567 0.99996 0.53043 0.0
C2382 C 0.37675 0.98336 0.51047 0.0
C2383 C 0.36465 0.96863 0.51021 0.0
C2384 C 0.34809 0.9703 0.51949 0.0
C2385 C 0.34413 0.98586 0.52941 0.0
C2386 C 0.36106 0.92169 0.48969 0.0
C2387 C 0.37885 0.91542 0.49141 0.0
C2388 C 0.35666 0.93939 0.49461 0.0
C2389 C 0.36988 0.951 0.50192 0.0
C2390 C 0.38789 0.94481 0.50289 0.0
C2391 C 0.39234 0.92722 0.49756 0.0
H2392 H 0.24042 0.14384 0.77547 0.0
H2393 H 0.25378 0.08731 0.76992 0.0
H2394 H 0.26818 0.15197 0.75935 0.0
H2395 H 0.28122 0.09543 0.75326 0.0
H2396 H 0.32744 0.12225 0.71782 0.0
H2397 H 0.29523 0.1163 0.72402 0.0
H2398 H 0.3006 0.1425 0.7759 0.0
H2399 H 0.33267 0.14784 0.76999 0.0
C2400 C 0.24892 0.13317 0.7701 0.0
C2401 C 0.24516 0.115 0.77407 0.0
C2402 C 0.26475 0.13781 0.76093 0.0
C2403 C 0.27679 0.1243 0.75524 0.0
C2404 C 0.27203 0.10605 0.75744 0.0
C2405 C 0.25633 0.10141 0.7669 0.0
C2406 C 0.32158 0.12689 0.73041 0.0
C2407 C 0.33238 0.13546 0.74348 0.0
C2408 C 0.30327 0.12349 0.73394 0.0
C2409 C 0.29552 0.12914 0.75032 0.0
C2410 C 0.30625 0.13825 0.76306 0.0
C2411 C 0.32456 0.14119 0.75976 0.0
H2412 H 0.10951 0.99394 0.03657 0.0
H2413 H 0.16476 0.00765 0.02389 0.0
H2414 H 0.09908 0.02093 0.02057 0.0
H2415 H 0.15433 0.03461 0.00765 0.0
H2416 H 0.12568 0.07951 0.97415 0.0
H2417 H 0.13372 0.04809 0.98161 0.0
H2418 H 0.10535 0.05313 0.03239 0.0
H2419 H 0.09759 0.08432 0.02507 0.0
C2420 C 0.11935 0.00246 0.02982 0.0
C2421 C 0.1379 0.99887 0.03149 0.0
C2422 C 0.11341 0.01787 0.02074 0.0
C2423 C 0.12593 0.02991 0.01309 0.0
C2424 C 0.14441 0.02547 0.01335 0.0
C2425 C 0.15037 0.01005 0.02257 0.0
C2426 C 0.12094 0.07372 0.98673 0.0
C2427 C 0.11096 0.08421 0.99903 0.0
C2428 C 0.12561 0.05585 0.99102 0.0
C2429 C 0.12 0.04819 0.00748 0.0
C2430 C 0.1096 0.05861 0.01948 0.0
C2431 C 0.10528 0.07647 0.01537 0.0
H2432 H 0.25794 0.16921 0.14943 0.0
H2433 H 0.26774 0.15973 0.09274 0.0
H2434 H 0.24904 0.20018 0.14284 0.0
H2435 H 0.25961 0.191 0.08604 0.0
H2436 H 0.21635 0.23551 0.07944 0.0
H2437 H 0.2328 0.20747 0.0845 0.0
H2438 H 0.25559 0.22984 0.13355 0.0
H2439 H 0.23823 0.25763 0.12868 0.0
C2440 C 0.25883 0.17399 0.13563 0.0
C2441 C 0.26363 0.16215 0.1216 0.0
C2442 C 0.25372 0.19179 0.13179 0.0
C2443 C 0.25347 0.19819 0.11385 0.0
C2444 C 0.25924 0.1865 0.09996 0.0
C2445 C 0.26404 0.16862 0.10378 0.0
C2446 C 0.22527 0.23451 0.09103 0.0
C2447 C 0.22621 0.24862 0.10362 0.0
C2448 C 0.23477 0.21846 0.09395 0.0
C2449 C 0.24553 0.21624 0.10952 0.0
C2450 C 0.24721 0.2309 0.12159 0.0
C2451 C 0.2375 0.2469 0.11873 0.0
H2452 H 0.72835 0.25922 0.91713 0.0
H2453 H 0.7222 0.24246 0.86162 0.0
H2454 H 0.7449 0.28618 0.90716 0.0
H2455 H 0.73841 0.2695 0.85161 0.0
H2456 H 0.72896 0.33319 0.84896 0.0
H2457 H 0.72294 0.30175 0.85707 0.0
H2458 H 0.77303 0.29968 0.88698 0.0
H2459 H 0.7793 0.33125 0.87841 0.0
C2460 C 0.73128 0.26091 0.90288 0.0
C2461 C 0.72401 0.24892 0.89009 0.0
C2462 C 0.74067 0.27633 0.89717 0.0
C2463 C 0.74268 0.27994 0.87863 0.0
C2464 C 0.73692 0.26702 0.86597 0.0
C2465 C 0.72775 0.25155 0.87168 0.0
C2466 C 0.73879 0.32593 0.85705 0.0
C2467 C 0.75461 0.33451 0.86299 0.0
C2468 C 0.73543 0.30795 0.86158 0.0
C2469 C 0.74763 0.29831 0.87249 0.0
C2470 C 0.76352 0.30684 0.87843 0.0
C2471 C 0.76711 0.32479 0.8735 0.0
H2472 H 0.99156 0.47291 0.16951 0.0
H2473 H 0.01283 0.47233 0.11524 0.0
H2474 H 0.96499 0.48968 0.15892 0.0
H2475 H 0.98615 0.48875 0.10456 0.0
H2476 H 0.92305 0.47896 0.09574 0.0
H2477 H 0.954 0.4728 0.10544 0.0
H2478 H 0.95229 0.51915 0.1409 0.0
H2479 H 0.92123 0.52561 0.13076 0.0
C2480 C 0.9909 0.47709 0.15549 0.0
C2481 C 0.00412 0.47136 0.14314 0.0
C2482 C 0.9757 0.4866 0.14941 0.0
C2483 C 0.97348 0.49029 0.1309 0.0
C2484 C 0.98753 0.48597 0.11888 0.0
C2485 C 0.00279 0.47669 0.12498 0.0
C2486 C 0.92941 0.488 0.10537 0.0
C2487 C 0.91989 0.50279 0.11245 0.0
C2488 C 0.94712 0.48457 0.11083 0.0
C2489 C 0.95554 0.49561 0.1238 0.0
C2490 C 0.9461 0.51054 0.13079 0.0
C2491 C 0.92844 0.51425 0.12497 0.0
H2492 H 0.74096 0.67102 0.35172 0.0
H2493 H 0.73425 0.66038 0.40865 0.0
H2494 H 0.74861 0.70231 0.35837 0.0
H2495 H 0.74122 0.69192 0.41544 0.0
H2496 H 0.78291 0.73832 0.42028 0.0
H2497 H 0.76737 0.70966 0.41585 0.0
H2498 H 0.74082 0.7315 0.36849 0.0
H2499 H 0.75721 0.75998 0.37272 0.0
C2500 C 0.74048 0.67556 0.36562 0.0
C2501 C 0.7369 0.66333 0.37967 0.0
C2502 C 0.74487 0.69355 0.36948 0.0
C2503 C 0.74564 0.69974 0.38749 0.0
C2504 C 0.74113 0.68761 0.40145 0.0
C2505 C 0.73702 0.66957 0.39758 0.0
C2506 C 0.77332 0.73708 0.40926 0.0
C2507 C 0.77107 0.75126 0.39691 0.0
C2508 C 0.76436 0.72066 0.40668 0.0
C2509 C 0.75286 0.71811 0.3917 0.0
C2510 C 0.7498 0.73283 0.37998 0.0
C2511 C 0.75895 0.74921 0.38249 0.0
H2512 H 0.0137 0.03471 0.1718 0.0
H2513 H 0.99222 0.01798 0.12032 0.0
H2514 H 0.04146 0.01804 0.16582 0.0
H2515 H 0.0196 0.00033 0.11449 0.0
H2516 H 0.08007 0.99711 0.09927 0.0
H2517 H 0.0494 0.00668 0.10628 0.0
H2518 H 0.0575 0.99125 0.16214 0.0
H2519 H 0.08852 0.98248 0.15505 0.0
C2520 C 0.01475 0.02684 0.15948 0.0
C2521 C 0.00093 0.02743 0.14655 0.0
C2522 C 0.03063 0.01723 0.15601 0.0
C2523 C 0.03294 0.00785 0.13957 0.0
C2524 C 0.01851 0.00765 0.12712 0.0
C2525 C 0.00273 0.01752 0.13051 0.0
C2526 C 0.07509 0.99532 0.11291 0.0
C2527 C 0.08653 0.9889 0.12659 0.0
C2528 C 0.05747 0.00081 0.117 0.0
C2529 C 0.05085 0.99983 0.13484 0.0
C2530 C 0.06217 0.99257 0.14833 0.0
C2531 C 0.07989 0.9874 0.14428 0.0
H2532 H 0.27602 0.76056 0.58002 0.0
H2533 H 0.27463 0.7432 0.63567 0.0
H2534 H 0.25955 0.78818 0.58824 0.0
H2535 H 0.25875 0.77109 0.64398 0.0
H2536 H 0.22026 0.83213 0.61747 0.0
H2537 H 0.22689 0.80045 0.60935 0.0
H2538 H 0.2785 0.80454 0.63622 0.0
H2539 H 0.27221 0.83613 0.64375 0.0
C2540 C 0.27151 0.76231 0.59385 0.0
C2541 C 0.2766 0.74988 0.60727 0.0
C2542 C 0.26218 0.7781 0.59854 0.0
C2543 C 0.25804 0.78167 0.61672 0.0
C2544 C 0.26178 0.76853 0.62987 0.0
C2545 C 0.27081 0.75263 0.62513 0.0
C2546 C 0.2329 0.82611 0.62176 0.0
C2547 C 0.24575 0.83643 0.63124 0.0
C2548 C 0.23668 0.80811 0.6171 0.0
C2549 C 0.2531 0.80017 0.62234 0.0
C2550 C 0.26567 0.81039 0.63222 0.0
C2551 C 0.26212 0.82842 0.63644 0.0
H2552 H 0.91561 0.52269 0.39803 0.0
H2553 H 0.9208 0.47149 0.37049 0.0
H2554 H 0.94697 0.52989 0.39071 0.0
H2555 H 0.95231 0.47893 0.36272 0.0
H2556 H 0.99288 0.52336 0.33281 0.0
H2557 H 0.96563 0.50691 0.34212 0.0
H2558 H 0.97946 0.51584 0.3981 0.0
H2559 H 0.00686 0.53185 0.3888 0.0
C2560 C 0.92355 0.51294 0.39051 0.0
C2561 C 0.91592 0.49653 0.38488 0.0
C2562 C 0.94149 0.51699 0.38643 0.0
C2563 C 0.95203 0.50487 0.3763 0.0
C2564 C 0.94444 0.4884 0.37065 0.0
C2565 C 0.92652 0.48415 0.37513 0.0
C2566 C 0.99049 0.52106 0.34707 0.0
C2567 C 0.00184 0.52887 0.36013 0.0
C2568 C 0.9749 0.51173 0.35239 0.0
C2569 C 0.97044 0.51033 0.3708 0.0
C2570 C 0.9826 0.51686 0.38383 0.0
C2571 C 0.99823 0.52596 0.37852 0.0
H2572 H 0.50949 0.47182 0.83343 0.0
H2573 H 0.49932 0.45931 0.88951 0.0
H2574 H 0.53666 0.48864 0.84214 0.0
H2575 H 0.52684 0.47553 0.89812 0.0
H2576 H 0.59113 0.47285 0.89343 0.0
H2577 H 0.5598 0.46409 0.88783 0.0
H2578 H 0.54933 0.51627 0.86385 0.0
H2579 H 0.58083 0.52528 0.86997 0.0
C2580 C 0.51271 0.47319 0.84765 0.0
C2581 C 0.50238 0.46422 0.86082 0.0
C2582 C 0.52828 0.48275 0.85261 0.0
C2583 C 0.53384 0.48322 0.87077 0.0
C2584 C 0.52285 0.47526 0.88403 0.0
C2585 C 0.50717 0.46598 0.8791 0.0
C2586 C 0.58207 0.48252 0.88718 0.0
C2587 C 0.58828 0.49972 0.88214 0.0
C2588 C 0.56415 0.47757 0.88408 0.0
C2589 C 0.5522 0.48956 0.87551 0.0
C2590 C 0.55833 0.50685 0.87055 0.0
C2591 C 0.57624 0.512 0.87409 0.0
H2592 H 0.5852 0.72466 0.74423 0.0
H2593 H 0.6414 0.71555 0.75697 0.0
H2594 H 0.59406 0.74122 0.71697 0.0
H2595 H 0.65025 0.73166 0.72945 0.0
H2596 H 0.64864 0.72596 0.66542 0.0
H2597 H 0.64273 0.71866 0.69704 0.0
H2598 H 0.61381 0.76899 0.70339 0.0
H2599 H 0.6202 0.77654 0.67157 0.0
C2600 C 0.59944 0.72682 0.74157 0.0
C2601 C 0.61265 0.71885 0.75264 0.0
C2602 C 0.6045 0.73623 0.72595 0.0
C2603 C 0.62281 0.73756 0.7211 0.0
C2604 C 0.63603 0.73073 0.73289 0.0
C2605 C 0.63099 0.72156 0.74859 0.0
C2606 C 0.64127 0.73559 0.67365 0.0
C2607 C 0.63489 0.75179 0.66618 0.0
C2608 C 0.638 0.73148 0.69175 0.0
C2609 C 0.62791 0.74333 0.70263 0.0
C2610 C 0.62169 0.75971 0.69525 0.0
C2611 C 0.62538 0.76403 0.67716 0.0
H2612 H 0.51118 0.37785 0.01131 0.0
H2613 H 0.53069 0.3274 0.98967 0.0
H2614 H 0.49355 0.38297 0.98374 0.0
H2615 H 0.51395 0.33266 0.96184 0.0
H2616 H 0.49251 0.3983 0.92286 0.0
H2617 H 0.50068 0.39163 0.95401 0.0
H2618 H 0.48715 0.33535 0.94542 0.0
H2619 H 0.47974 0.34209 0.91399 0.0
C2620 C 0.51128 0.36767 0.00076 0.0
C2621 C 0.52204 0.35218 0.00252 0.0
C2622 C 0.50142 0.37067 0.98489 0.0
C2623 C 0.50243 0.35835 0.97039 0.0
C2624 C 0.51253 0.34235 0.97272 0.0
C2625 C 0.52218 0.33929 0.98865 0.0
C2626 C 0.49079 0.38463 0.92781 0.0
C2627 C 0.48541 0.37072 0.91609 0.0
C2628 C 0.49548 0.38075 0.94571 0.0
C2629 C 0.49472 0.36289 0.95231 0.0
C2630 C 0.48829 0.34919 0.94076 0.0
C2631 C 0.48392 0.35303 0.92279 0.0
H2632 H 0.85726 0.28278 0.25687 0.0
H2633 H 0.91277 0.27056 0.24378 0.0
H2634 H 0.84729 0.26688 0.22966 0.0
H2635 H 0.90279 0.25441 0.21661 0.0
H2636 H 0.87495 0.22133 0.17091 0.0
H2637 H 0.8824 0.22839 0.20256 0.0
H2638 H 0.85416 0.27927 0.19765 0.0
H2639 H 0.84699 0.27236 0.16623 0.0
C2640 C 0.86725 0.27614 0.24846 0.0
C2641 C 0.88574 0.27796 0.25225 0.0
C2642 C 0.86157 0.26711 0.23291 0.0
C2643 C 0.8743 0.25965 0.22097 0.0
C2644 C 0.89271 0.25997 0.22567 0.0
C2645 C 0.89842 0.26915 0.24121 0.0
C2646 C 0.87011 0.23385 0.17678 0.0
C2647 C 0.86034 0.2463 0.16626 0.0
C2648 C 0.87443 0.2379 0.19478 0.0
C2649 C 0.86868 0.25427 0.20254 0.0
C2650 C 0.8585 0.26642 0.19209 0.0
C2651 C 0.85452 0.26255 0.17409 0.0
H2652 H 0.98128 0.62041 0.50952 0.0
H2653 H 0.96631 0.67171 0.48632 0.0
H2654 H 0.99978 0.61364 0.48292 0.0
H2655 H 0.98382 0.66481 0.45935 0.0
H2656 H 0.01939 0.65233 0.41328 0.0
H2657 H 0.01091 0.66015 0.4442 0.0
H2658 H 0.99392 0.60486 0.45315 0.0
H2659 H 0.00331 0.59708 0.42259 0.0
C2660 C 0.98233 0.63037 0.49882 0.0
C2661 C 0.97265 0.64661 0.49988 0.0
C2662 C 0.99269 0.62645 0.4835 0.0
C2663 C 0.9932 0.63856 0.4688 0.0
C2664 C 0.9841 0.65523 0.47042 0.0
C2665 C 0.974 0.65923 0.48585 0.0
C2666 C 0.01424 0.64183 0.4221 0.0
C2667 C 0.01212 0.62411 0.41571 0.0
C2668 C 0.00923 0.6463 0.43975 0.0
C2669 C 0.0015 0.63321 0.45122 0.0
C2670 C 0.0001 0.61527 0.44493 0.0
C2671 C 0.00546 0.61075 0.42738 0.0
H2672 H 0.62353 0.22332 0.82729 0.0
H2673 H 0.64402 0.27703 0.83741 0.0
H2674 H 0.6194 0.231 0.79515 0.0
H2675 H 0.64035 0.28451 0.80545 0.0
H2676 H 0.64638 0.28771 0.7454 0.0
H2677 H 0.65366 0.27225 0.77375 0.0
H2678 H 0.59763 0.25728 0.78 0.0
H2679 H 0.59022 0.27328 0.752 0.0
C2680 C 0.62742 0.23662 0.82255 0.0
C2681 C 0.6341 0.24961 0.83469 0.0
C2682 C 0.62502 0.241 0.80427 0.0
C2683 C 0.62975 0.25826 0.79789 0.0
C2684 C 0.63685 0.27103 0.81001 0.0
C2685 C 0.63882 0.26681 0.82827 0.0
C2686 C 0.63573 0.28066 0.75259 0.0
C2687 C 0.61775 0.28174 0.7466 0.0
C2688 C 0.63989 0.27187 0.76876 0.0
C2689 C 0.62616 0.26373 0.77902 0.0
C2690 C 0.60845 0.26335 0.7722 0.0
C2691 C 0.60423 0.27242 0.75614 0.0
H2692 H 0.96824 0.3886 0.99562 0.0
H2693 H 0.9767 0.33214 0.00769 0.0
H2694 H 0.98503 0.39697 0.02288 0.0
H2695 H 0.99395 0.34052 0.03471 0.0
H2696 H 0.03004 0.36671 0.08007 0.0
H2697 H 0.02236 0.36065 0.04819 0.0
H2698 H 0.9715 0.38838 0.0554 0.0
H2699 H 0.97889 0.39389 0.08708 0.0
C2700 C 0.97429 0.37802 0.00377 0.0
C2701 C 0.97112 0.35976 0.99969 0.0
C2702 C 0.98386 0.3828 0.01931 0.0
C2703 C 0.99063 0.36937 0.03088 0.0
C2704 C 0.98897 0.35111 0.02589 0.0
C2705 C 0.97917 0.34632 0.01042 0.0
C2706 C 0.01736 0.37167 0.07466 0.0
C2707 C 0.005 0.38072 0.08588 0.0
C2708 C 0.01298 0.36819 0.05654 0.0
C2709 C 0.99643 0.3742 0.04939 0.0
C2710 C 0.98444 0.38382 0.06053 0.0
C2711 C 0.9886 0.38687 0.07865 0.0
H2712 H 0.91999 0.7285 0.25825 0.0
H2713 H 0.86608 0.72798 0.23608 0.0
H2714 H 0.90894 0.74511 0.28473 0.0
H2715 H 0.85495 0.74429 0.26262 0.0
H2716 H 0.84594 0.73143 0.32535 0.0
H2717 H 0.85611 0.7267 0.2943 0.0
H2718 H 0.88986 0.7742 0.29796 0.0
H2719 H 0.87921 0.77923 0.32911 0.0
C2720 C 0.90598 0.73276 0.25864 0.0
C2721 C 0.89382 0.72699 0.24527 0.0
C2722 C 0.89964 0.74217 0.2738 0.0
C2723 C 0.88107 0.74572 0.27575 0.0
C2724 C 0.86931 0.74162 0.26142 0.0
C2725 C 0.87567 0.73242 0.24623 0.0
C2726 C 0.85529 0.74102 0.31941 0.0
C2727 C 0.86173 0.75572 0.32948 0.0
C2728 C 0.86101 0.73841 0.30164 0.0
C2729 C 0.87361 0.75022 0.29374 0.0
C2730 C 0.88001 0.76504 0.30375 0.0
C2731 C 0.87391 0.76791 0.32146 0.0
H2732 H 0.50668 0.62581 0.48681 0.0
H2733 H 0.53168 0.67315 0.50978 0.0
H2734 H 0.48948 0.62124 0.51474 0.0
H2735 H 0.51529 0.66839 0.5379 0.0
H2736 H 0.48149 0.6601 0.58644 0.0
H2737 H 0.48872 0.66748 0.5551 0.0
H2738 H 0.49697 0.61066 0.54388 0.0
H2739 H 0.48911 0.60341 0.57495 0.0
C2740 C 0.50806 0.63549 0.49772 0.0
C2741 C 0.52027 0.64991 0.49622 0.0
C2742 C 0.49845 0.63278 0.5138 0.0
C2743 C 0.50111 0.6443 0.52874 0.0
C2744 C 0.51261 0.65936 0.52669 0.0
C2745 C 0.52205 0.66213 0.51058 0.0
C2746 C 0.48449 0.6492 0.57711 0.0
C2747 C 0.48458 0.63118 0.58306 0.0
C2748 C 0.48874 0.65341 0.55918 0.0
C2749 C 0.4936 0.6397 0.54689 0.0
C2750 C 0.49298 0.62159 0.55277 0.0
C2751 C 0.48846 0.61738 0.57064 0.0
H2752 H 0.66557 0.59576 0.77111 0.0
H2753 H 0.67511 0.65217 0.75983 0.0
H2754 H 0.69699 0.58888 0.7638 0.0
H2755 H 0.70624 0.64537 0.75169 0.0
H2756 H 0.74138 0.58133 0.72045 0.0
H2757 H 0.71354 0.58656 0.73715 0.0
H2758 H 0.73585 0.63626 0.75859 0.0
H2759 H 0.76342 0.6312 0.74096 0.0
C2760 C 0.67452 0.60671 0.76728 0.0
C2761 C 0.66802 0.62449 0.76617 0.0
C2762 C 0.69249 0.60278 0.76296 0.0
C2763 C 0.70422 0.61651 0.75693 0.0
C2764 C 0.6978 0.63446 0.75657 0.0
C2765 C 0.67991 0.63841 0.76123 0.0
C2766 C 0.74044 0.59307 0.72918 0.0
C2767 C 0.75443 0.60582 0.7296 0.0
C2768 C 0.72451 0.59611 0.73881 0.0
C2769 C 0.72229 0.61194 0.74919 0.0
C2770 C 0.7369 0.6241 0.75049 0.0
C2771 C 0.75278 0.62113 0.74064 0.0
H2772 H 0.66837 0.49051 0.97824 0.0
H2773 H 0.6131 0.50808 0.97213 0.0
H2774 H 0.65799 0.46353 0.99448 0.0
H2775 H 0.60269 0.48098 0.988 0.0
H2776 H 0.59947 0.41731 0.9779 0.0
H2777 H 0.60785 0.44875 0.97222 0.0
H2778 H 0.63756 0.4501 0.02244 0.0
H2779 H 0.62873 0.41855 0.02837 0.0
C2780 C 0.65408 0.48898 0.98111 0.0
C2781 C 0.64147 0.50121 0.97393 0.0
C2782 C 0.64815 0.47355 0.99032 0.0
C2783 C 0.62956 0.47016 0.99224 0.0
C2784 C 0.61709 0.4833 0.98658 0.0
C2785 C 0.62302 0.49879 0.9776 0.0
C2786 C 0.60757 0.42442 0.98783 0.0
C2787 C 0.61339 0.41565 0.00358 0.0
C2788 C 0.61225 0.4424 0.98467 0.0
C2789 C 0.62318 0.45183 0.997 0.0
C2790 C 0.62899 0.44311 0.01284 0.0
C2791 C 0.62392 0.42516 0.01622 0.0
H2792 H 0.82819 0.34707 0.25374 0.0
H2793 H 0.83795 0.40296 0.26721 0.0
H2794 H 0.79762 0.35457 0.24424 0.0
H2795 H 0.80702 0.41056 0.25847 0.0
H2796 H 0.7642 0.41998 0.21395 0.0
H2797 H 0.79153 0.41382 0.23122 0.0
H2798 H 0.76795 0.3638 0.25041 0.0
H2799 H 0.74097 0.36979 0.23219 0.0
C2800 C 0.82351 0.36086 0.25531 0.0
C2801 C 0.83528 0.37443 0.26133 0.0
C2802 C 0.80595 0.36521 0.24986 0.0
C2803 C 0.79977 0.38323 0.25048 0.0
C2804 C 0.81138 0.39661 0.25745 0.0
C2805 C 0.82904 0.39228 0.26258 0.0
C2806 C 0.76478 0.40793 0.22226 0.0
C2807 C 0.75061 0.39539 0.22194 0.0
C2808 C 0.7804 0.40437 0.23223 0.0
C2809 C 0.78208 0.38821 0.2422 0.0
C2810 C 0.7673 0.37619 0.24265 0.0
C2811 C 0.75177 0.37967 0.23244 0.0
H2812 H 0.84939 0.58851 0.51309 0.0
H2813 H 0.90531 0.5749 0.50396 0.0
H2814 H 0.84069 0.55721 0.50733 0.0
H2815 H 0.89675 0.54382 0.49715 0.0
H2816 H 0.83122 0.51153 0.46581 0.0
H2817 H 0.83779 0.53961 0.48158 0.0
H2818 H 0.88567 0.51521 0.50482 0.0
H2819 H 0.87932 0.48736 0.48803 0.0
C2820 C 0.85982 0.57868 0.51003 0.0
C2821 C 0.87798 0.58398 0.50901 0.0
C2822 C 0.85487 0.56079 0.50659 0.0
C2823 C 0.86795 0.54792 0.5015 0.0
C2824 C 0.88628 0.55317 0.5013 0.0
C2825 C 0.89124 0.57101 0.50514 0.0
C2826 C 0.84282 0.51209 0.47475 0.0
C2827 C 0.85471 0.49742 0.47591 0.0
C2828 C 0.84663 0.52817 0.48386 0.0
C2829 C 0.86239 0.52984 0.49445 0.0
C2830 C 0.87361 0.51457 0.49654 0.0
C2831 C 0.86989 0.49855 0.48718 0.0
H2832 H 0.67546 0.35128 0.74112 0.0
H2833 H 0.66359 0.40776 0.73271 0.0
H2834 H 0.70638 0.35887 0.74928 0.0
H2835 H 0.69482 0.4155 0.74005 0.0
H2836 H 0.73988 0.42261 0.78282 0.0
H2837 H 0.71191 0.41722 0.76638 0.0
H2838 H 0.73544 0.36931 0.74231 0.0
H2839 H 0.76314 0.37447 0.75971 0.0
C2840 C 0.67969 0.36528 0.74038 0.0
C2841 C 0.66721 0.37894 0.73622 0.0
C2842 C 0.69747 0.36969 0.74505 0.0
C2843 C 0.7032 0.38786 0.74545 0.0
C2844 C 0.69085 0.4014 0.74028 0.0
C2845 C 0.67299 0.397 0.73596 0.0
C2846 C 0.73916 0.41126 0.77358 0.0
C2847 C 0.75354 0.39901 0.77234 0.0
C2848 C 0.72315 0.40813 0.76409 0.0
C2849 C 0.72125 0.39271 0.75305 0.0
C2850 C 0.73624 0.38112 0.75093 0.0
C2851 C 0.75219 0.38416 0.76065 0.0
H2852 H 0.84632 0.41262 0.98474 0.0
H2853 H 0.90242 0.42518 0.99443 0.0
H2854 H 0.83819 0.4441 0.99045 0.0
H2855 H 0.89441 0.45644 0.00091 0.0
H2856 H 0.87816 0.51327 0.00906 0.0
H2857 H 0.88367 0.48524 0.99227 0.0
H2858 H 0.83591 0.46176 0.01657 0.0
H2859 H 0.83023 0.48994 0.03251 0.0
C2860 C 0.85692 0.42223 0.98789 0.0
C2861 C 0.87498 0.41657 0.98905 0.0
C2862 C 0.85229 0.44023 0.99126 0.0
C2863 C 0.86559 0.45287 0.99632 0.0
C2864 C 0.8838 0.44726 0.99672 0.0
C2865 C 0.88845 0.4293 0.99304 0.0
C2866 C 0.86855 0.50226 0.01014 0.0
C2867 C 0.85372 0.50365 0.02184 0.0
C2868 C 0.8718 0.48614 0.00077 0.0
C2869 C 0.86039 0.47108 0.00321 0.0
C2870 C 0.84488 0.47305 0.01408 0.0
C2871 C 0.84157 0.4892 0.02326 0.0
H2872 H 0.75768 0.58655 0.27542 0.0
H2873 H 0.74765 0.64191 0.29095 0.0
H2874 H 0.78484 0.59605 0.25908 0.0
H2875 H 0.77506 0.65135 0.27503 0.0
H2876 H 0.83891 0.64773 0.2774 0.0
H2877 H 0.80747 0.64194 0.28552 0.0
H2878 H 0.79832 0.6175 0.23329 0.0
H2879 H 0.82995 0.62364 0.225 0.0
C2880 C 0.76092 0.60081 0.27476 0.0
C2881 C 0.75065 0.61352 0.28445 0.0
C2882 C 0.77648 0.60624 0.26548 0.0
C2883 C 0.78207 0.62439 0.26597 0.0
C2884 C 0.77107 0.63726 0.27457 0.0
C2885 C 0.75543 0.63187 0.28364 0.0
C2886 C 0.83011 0.64134 0.26757 0.0
C2887 C 0.83675 0.63617 0.25059 0.0
C2888 C 0.81212 0.63816 0.27215 0.0
C2889 C 0.80048 0.6294 0.25996 0.0
C2890 C 0.80704 0.62436 0.24285 0.0
C2891 C 0.82503 0.62793 0.23811 0.0
H2892 H 0.61702 0.48826 0.52485 0.0
H2893 H 0.67065 0.51067 0.52043 0.0
H2894 H 0.6048 0.51398 0.50805 0.0
H2895 H 0.65848 0.53642 0.50347 0.0
H2896 H 0.62786 0.58012 0.47054 0.0
H2897 H 0.63884 0.54914 0.47582 0.0
H2898 H 0.60546 0.54573 0.52359 0.0
H2899 H 0.59487 0.57656 0.51852 0.0
C2900 C 0.62627 0.49828 0.51948 0.0
C2901 C 0.6447 0.49765 0.52391 0.0
C2902 C 0.61929 0.51302 0.51001 0.0
C2903 C 0.63068 0.52726 0.50474 0.0
C2904 C 0.64944 0.52556 0.50732 0.0
C2905 C 0.65642 0.51083 0.51695 0.0
C2906 C 0.62267 0.57253 0.48194 0.0
C2907 C 0.61048 0.58057 0.49411 0.0
C2908 C 0.62897 0.55492 0.48497 0.0
C2909 C 0.62282 0.54503 0.49997 0.0
C2910 C 0.61017 0.55294 0.51173 0.0
C2911 C 0.60421 0.57059 0.50894 0.0
H2912 H 0.731 0.67232 0.65315 0.0
H2913 H 0.77924 0.67096 0.62038 0.0
H2914 H 0.72553 0.70358 0.6439 0.0
H2915 H 0.77343 0.70228 0.61061 0.0
H2916 H 0.72696 0.7628 0.63597 0.0
H2917 H 0.74334 0.73591 0.64624 0.0
H2918 H 0.74318 0.71502 0.59177 0.0
H2919 H 0.72637 0.74172 0.58161 0.0
C2920 C 0.7405 0.67882 0.64408 0.0
C2921 C 0.75555 0.66938 0.63751 0.0
C2922 C 0.73746 0.69669 0.6389 0.0
C2923 C 0.74918 0.70531 0.6267 0.0
C2924 C 0.76434 0.69592 0.62016 0.0
C2925 C 0.76765 0.67811 0.62575 0.0
C2926 C 0.73113 0.7528 0.6261 0.0
C2927 C 0.72539 0.75418 0.60807 0.0
C2928 C 0.74039 0.73743 0.63197 0.0
C2929 C 0.74432 0.72341 0.61979 0.0
C2930 C 0.74038 0.72574 0.60136 0.0
C2931 C 0.73086 0.74102 0.59554 0.0
H2932 H 0.21266 0.74334 0.3621 0.0
H2933 H 0.22584 0.75765 0.41708 0.0
H2934 H 0.22884 0.77001 0.35121 0.0
H2935 H 0.2422 0.78436 0.4062 0.0
H2936 H 0.22436 0.83328 0.34883 0.0
H2937 H 0.21718 0.80217 0.35695 0.0
H2938 H 0.26793 0.79773 0.38551 0.0
H2939 H 0.27522 0.82908 0.37715 0.0
C2940 C 0.21957 0.75191 0.37178 0.0
C2941 C 0.21799 0.74861 0.39038 0.0
C2942 C 0.22875 0.76715 0.36558 0.0
C2943 C 0.23654 0.77932 0.37789 0.0
C2944 C 0.23639 0.77512 0.39643 0.0
C2945 C 0.2271 0.75985 0.40266 0.0
C2946 C 0.23409 0.82558 0.35663 0.0
C2947 C 0.25037 0.83346 0.36227 0.0
C2948 C 0.23006 0.80775 0.36116 0.0
C2949 C 0.2421 0.79752 0.37171 0.0
C2950 C 0.2585 0.80533 0.37727 0.0
C2951 C 0.26269 0.82316 0.37241 0.0
H2952 H 0.48935 0.96663 0.67107 0.0
H2953 H 0.51336 0.99528 0.62642 0.0
H2954 H 0.46055 0.98139 0.66529 0.0
H2955 H 0.48463 0.01081 0.62084 0.0
H2956 H 0.42562 0.0077 0.59926 0.0
H2957 H 0.45672 0.00157 0.60811 0.0
H2958 H 0.44167 0.00686 0.66437 0.0
H2959 H 0.41042 0.01238 0.65535 0.0
C2960 C 0.48858 0.97674 0.6605 0.0
C2961 C 0.50349 0.98 0.64928 0.0
C2962 C 0.47206 0.98523 0.65712 0.0
C2963 C 0.47013 0.99723 0.64245 0.0
C2964 C 0.48552 0.00143 0.63204 0.0
C2965 C 0.50203 0.99278 0.63536 0.0
C2966 C 0.42909 0.00805 0.61347 0.0
C2967 C 0.41568 0.01062 0.62662 0.0
C2968 C 0.44695 0.00454 0.6186 0.0
C2969 C 0.4518 0.00365 0.637 0.0
C2970 C 0.43843 0.00711 0.6501 0.0
C2971 C 0.42054 0.01036 0.64495 0.0
H2972 H 0.27145 0.26281 0.86597 0.0
H2973 H 0.27303 0.2436 0.921 0.0
H2974 H 0.25481 0.23561 0.85695 0.0
H2975 H 0.25584 0.21669 0.91209 0.0
H2976 H 0.21742 0.173 0.88279 0.0
H2977 H 0.22345 0.2047 0.89127 0.0
H2978 H 0.27453 0.20228 0.86321 0.0
H2979 H 0.26885 0.17064 0.85537 0.0
C2980 C 0.26743 0.25318 0.87626 0.0
C2981 C 0.27355 0.25514 0.89411 0.0
C2982 C 0.25798 0.23767 0.8711 0.0
C2983 C 0.25417 0.22415 0.88386 0.0
C2984 C 0.25851 0.22707 0.9021 0.0
C2985 C 0.26826 0.24246 0.9072 0.0
C2986 C 0.2298 0.17941 0.87831 0.0
C2987 C 0.24272 0.16954 0.86847 0.0
C2988 C 0.23322 0.19742 0.88314 0.0
C2989 C 0.24933 0.20583 0.87769 0.0
C2990 C 0.26191 0.19608 0.86735 0.0
C2991 C 0.25873 0.17803 0.86297 0.0
H2992 H 0.59175 0.53041 0.60334 0.0
H2993 H 0.58222 0.47749 0.62604 0.0
H2994 H 0.55997 0.53815 0.60783 0.0
H2995 H 0.55027 0.48541 0.63092 0.0
H2996 H 0.49965 0.54186 0.60465 0.0
H2997 H 0.52794 0.52673 0.59649 0.0
H2998 H 0.53578 0.51132 0.65221 0.0
H2999 H 0.50788 0.52698 0.66048 0.0
C3000 C 0.58277 0.52041 0.60918 0.0
C3001 C 0.58932 0.50337 0.61431 0.0
C3002 C 0.5646 0.52477 0.61161 0.0
C3003 C 0.55271 0.5123 0.61958 0.0
C3004 C 0.5592 0.49518 0.62465 0.0
C3005 C 0.57738 0.49065 0.62182 0.0
C3006 C 0.50723 0.53488 0.61505 0.0
C3007 C 0.50165 0.53564 0.63318 0.0
C3008 C 0.52336 0.52625 0.6104 0.0
C3009 C 0.53401 0.51799 0.62376 0.0
C3010 C 0.52769 0.51745 0.64166 0.0
C3011 C 0.51168 0.52634 0.64636 0.0
H3012 H 0.73788 0.33839 0.0977 0.0
H3013 H 0.7443 0.322 0.15326 0.0
H3014 H 0.74302 0.30733 0.08781 0.0
H3015 H 0.7504 0.29111 0.14354 0.0
H3016 H 0.78365 0.26071 0.07825 0.0
H3017 H 0.76829 0.28892 0.08518 0.0
H3018 H 0.74207 0.2633 0.1308 0.0
H3019 H 0.75839 0.23526 0.12412 0.0
C3020 C 0.74021 0.32802 0.10779 0.0
C3021 C 0.74064 0.33247 0.12621 0.0
C3022 C 0.74328 0.31025 0.10215 0.0
C3023 C 0.74737 0.29663 0.11481 0.0
C3024 C 0.74701 0.30106 0.13336 0.0
C3025 C 0.74356 0.3188 0.13899 0.0
C3026 C 0.7741 0.26102 0.08936 0.0
C3027 C 0.77201 0.24592 0.10058 0.0
C3028 C 0.76525 0.27719 0.09339 0.0
C3029 C 0.754 0.27856 0.10872 0.0
C3030 C 0.75088 0.2629 0.11912 0.0
C3031 C 0.75996 0.24676 0.11517 0.0
H3032 H 0.415 0.02333 0.89651 0.0
H3033 H 0.41996 0.97291 0.86755 0.0
H3034 H 0.44672 0.03007 0.89042 0.0
H3035 H 0.45187 0.97991 0.86096 0.0
H3036 H 0.50634 0.03246 0.88874 0.0
H3037 H 0.479 0.01606 0.89758 0.0
H3038 H 0.46564 0.00799 0.84135 0.0
H3039 H 0.49279 0.02479 0.83252 0.0
C3040 C 0.423 0.01362 0.88899 0.0
C3041 C 0.41517 0.99762 0.88251 0.0
C3042 C 0.44113 0.0174 0.88561 0.0
C3043 C 0.45171 0.00543 0.87534 0.0
C3044 C 0.44397 0.98927 0.86901 0.0
C3045 C 0.42583 0.98526 0.87279 0.0
C3046 C 0.49784 0.02665 0.87831 0.0
C3047 C 0.50154 0.02993 0.85999 0.0
C3048 C 0.48224 0.01732 0.88335 0.0
C3049 C 0.47021 0.01093 0.87013 0.0
C3050 C 0.4748 0.01267 0.85178 0.0
C3051 C 0.49034 0.02222 0.84673 0.0
H3052 H 0.00803 0.97697 0.33275 0.0
H3053 H 0.99018 0.96947 0.38773 0.0
H3054 H 0.03462 0.99352 0.34365 0.0
H3055 H 0.01679 0.98579 0.39867 0.0
H3056 H 0.07935 0.02701 0.37268 0.0
H3057 H 0.04795 0.02079 0.36356 0.0
H3058 H 0.04889 0.97148 0.39481 0.0
H3059 H 0.08011 0.97749 0.40355 0.0
C3060 C 0.0094 0.9796 0.34709 0.0
C3061 C 0.99721 0.97196 0.35946 0.0
C3062 C 0.02461 0.98899 0.35334 0.0
C3063 C 0.02782 0.99068 0.372 0.0
C3064 C 0.01467 0.98454 0.38423 0.0
C3065 C 0.99944 0.97531 0.37799 0.0
C3066 C 0.07266 0.01504 0.37781 0.0
C3067 C 0.08202 0.00273 0.38885 0.0
C3068 C 0.05479 0.01147 0.37255 0.0
C3069 C 0.04599 0.99578 0.37866 0.0
C3070 C 0.05526 0.98383 0.39016 0.0
C3071 C 0.07314 0.98718 0.39505 0.0
H3072 H 0.1153 0.07729 0.40052 0.0
H3073 H 0.16802 0.10232 0.40128 0.0
H3074 H 0.10352 0.10224 0.38269 0.0
H3075 H 0.15612 0.1276 0.38339 0.0
H3076 H 0.13439 0.14439 0.32574 0.0
H3077 H 0.14658 0.12762 0.35119 0.0
H3078 H 0.09641 0.13503 0.38015 0.0
H3079 H 0.08408 0.15192 0.35439 0.0
C3080 C 0.12431 0.08832 0.39713 0.0
C3081 C 0.14267 0.08769 0.40201 0.0
C3082 C 0.11749 0.10274 0.38707 0.0
C3083 C 0.1289 0.11685 0.38151 0.0
C3084 C 0.14703 0.11682 0.38736 0.0
C3085 C 0.15383 0.10241 0.39765 0.0
C3086 C 0.12602 0.1427 0.33763 0.0
C3087 C 0.10816 0.14922 0.33794 0.0
C3088 C 0.1331 0.13325 0.35232 0.0
C3089 C 0.12245 0.12993 0.36767 0.0
C3090 C 0.1049 0.13729 0.36843 0.0
C3091 C 0.09785 0.14699 0.35373 0.0
H3092 H 0.145 0.91862 0.65317 0.0
H3093 H 0.17186 0.86692 0.64947 0.0
H3094 H 0.11895 0.90607 0.63683 0.0
H3095 H 0.14611 0.85447 0.63331 0.0
H3096 H 0.09664 0.83338 0.6071 0.0
H3097 H 0.11313 0.84635 0.63287 0.0
H3098 H 0.11802 0.89697 0.60414 0.0
H3099 H 0.10181 0.88408 0.57864 0.0
C3100 C 0.14515 0.9045 0.64926 0.0
C3101 C 0.16056 0.89383 0.65226 0.0
C3102 C 0.13029 0.89733 0.6399 0.0
C3103 C 0.13051 0.8793 0.63373 0.0
C3104 C 0.1454 0.86833 0.63802 0.0
C3105 C 0.16027 0.87554 0.64708 0.0
C3106 C 0.10081 0.84742 0.60659 0.0
C3107 C 0.09821 0.85766 0.59083 0.0
C3108 C 0.11027 0.85482 0.62127 0.0
C3109 C 0.11696 0.87266 0.62048 0.0
C3110 C 0.11293 0.88328 0.60528 0.0
C3111 C 0.10378 0.87583 0.59059 0.0
H3112 H 0.37039 0.83713 0.83582 0.0
H3113 H 0.41955 0.86789 0.84104 0.0
H3114 H 0.35677 0.85434 0.86042 0.0
H3115 H 0.4057 0.8863 0.86452 0.0
H3116 H 0.38038 0.91695 0.90872 0.0
H3117 H 0.39452 0.89204 0.89245 0.0
H3118 H 0.34377 0.88172 0.86506 0.0
H3119 H 0.32955 0.90562 0.88265 0.0
C3120 C 0.37832 0.84748 0.8425 0.0
C3121 C 0.39601 0.85115 0.83679 0.0
C3122 C 0.37046 0.85758 0.85641 0.0
C3123 C 0.37989 0.87207 0.86445 0.0
C3124 C 0.39796 0.87515 0.85907 0.0
C3125 C 0.40598 0.86465 0.84552 0.0
C3126 C 0.37222 0.90887 0.89962 0.0
C3127 C 0.35391 0.913 0.89697 0.0
C3128 C 0.38035 0.89476 0.89004 0.0
C3129 C 0.37052 0.8849 0.87703 0.0
C3130 C 0.35188 0.88865 0.87507 0.0
C3131 C 0.34364 0.90242 0.8851 0.0
H3132 H 0.39588 0.16413 0.10147 0.0
H3133 H 0.4103 0.11233 0.07881 0.0
H3134 H 0.37882 0.14877 0.12545 0.0
H3135 H 0.39383 0.09703 0.10282 0.0
H3136 H 0.33586 0.08324 0.12247 0.0
H3137 H 0.36102 0.0957 0.10541 0.0
H3138 H 0.37705 0.12731 0.15191 0.0
H3139 H 0.35152 0.11454 0.16908 0.0
C3140 C 0.39586 0.14949 0.10198 0.0
C3141 C 0.404 0.13937 0.08813 0.0
C3142 C 0.38618 0.14068 0.11571 0.0
C3143 C 0.3847 0.12168 0.1158 0.0
C3144 C 0.39437 0.11167 0.10288 0.0
C3145 C 0.40378 0.12042 0.08913 0.0
C3146 C 0.34512 0.09241 0.12919 0.0
C3147 C 0.34204 0.09778 0.14706 0.0
C3148 C 0.35955 0.09955 0.11946 0.0
C3149 C 0.3711 0.11246 0.12733 0.0
C3150 C 0.36837 0.1174 0.14551 0.0
C3151 C 0.35395 0.11 0.15537 0.0
H3152 H 0.08485 0.84381 0.14385 0.0
H3153 H 0.13573 0.85048 0.1717 0.0
H3154 H 0.09729 0.85983 0.11757 0.0
H3155 H 0.14809 0.86624 0.14566 0.0
H3156 H 0.1689 0.89253 0.09624 0.0
H3157 H 0.15673 0.86635 0.11267 0.0
H3158 H 0.10492 0.89303 0.11653 0.0
H3159 H 0.11702 0.91896 0.10039 0.0
C3160 C 0.0988 0.84823 0.14415 0.0
C3161 C 0.10923 0.84619 0.15988 0.0
C3162 C 0.10591 0.85741 0.12916 0.0
C3163 C 0.12364 0.86436 0.1296 0.0
C3164 C 0.13447 0.86092 0.1448 0.0
C3165 C 0.12731 0.85205 0.15981 0.0
C3166 C 0.15479 0.89249 0.10015 0.0
C3167 C 0.14396 0.90782 0.09731 0.0
C3168 C 0.14784 0.87758 0.10958 0.0
C3169 C 0.1299 0.87769 0.11597 0.0
C3170 C 0.11871 0.89242 0.11166 0.0
C3171 C 0.12571 0.90736 0.10256 0.0
H3172 H 0.3259 0.8651 0.35268 0.0
H3173 H 0.35357 0.9163 0.34791 0.0
H3174 H 0.35145 0.85262 0.36907 0.0
H3175 H 0.37945 0.90366 0.36434 0.0
H3176 H 0.39844 0.88308 0.42189 0.0
H3177 H 0.38129 0.8954 0.39677 0.0
H3178 H 0.3839 0.84374 0.36959 0.0
H3179 H 0.40124 0.83129 0.39504 0.0
C3180 C 0.33759 0.87362 0.35489 0.0
C3181 C 0.33757 0.8918 0.34932 0.0
C3182 C 0.35236 0.86637 0.3641 0.0
C3183 C 0.36745 0.87717 0.36809 0.0
C3184 C 0.36793 0.89506 0.36156 0.0
C3185 C 0.35315 0.90229 0.35214 0.0
C3186 C 0.39569 0.87442 0.41039 0.0
C3187 C 0.40092 0.85614 0.41052 0.0
C3188 C 0.386 0.88155 0.39589 0.0
C3189 C 0.38113 0.87053 0.38123 0.0
C3190 C 0.38737 0.85252 0.38079 0.0
C3191 C 0.39733 0.84541 0.39528 0.0
H3192 H 0.38385 0.0776 0.60514 0.0
H3193 H 0.33363 0.10638 0.59742 0.0
H3194 H 0.39656 0.10357 0.62063 0.0
H3195 H 0.34649 0.13269 0.61308 0.0
H3196 H 0.36607 0.15261 0.671 0.0
H3197 H 0.35384 0.13552 0.64577 0.0
H3198 H 0.40634 0.13573 0.62019 0.0
H3199 H 0.41867 0.15297 0.64577 0.0
C3200 C 0.37562 0.08965 0.60647 0.0
C3201 C 0.35762 0.08985 0.60035 0.0
C3202 C 0.38301 0.10464 0.61517 0.0
C3203 C 0.37253 0.12018 0.61816 0.0
C3204 C 0.35486 0.12084 0.61105 0.0
C3205 C 0.3475 0.10583 0.60207 0.0
C3206 C 0.37493 0.14935 0.65981 0.0
C3207 C 0.39338 0.15381 0.66047 0.0
C3208 C 0.36786 0.13972 0.64523 0.0
C3209 C 0.37914 0.13413 0.63104 0.0
C3210 C 0.39736 0.13975 0.63103 0.0
C3211 C 0.4044 0.14965 0.6456 0.0
H3212 H 0.09504 0.16773 0.89618 0.0
H3213 H 0.1013 0.11639 0.92331 0.0
H3214 H 0.11184 0.15586 0.87018 0.0
H3215 H 0.11804 0.10466 0.89762 0.0
H3216 H 0.14448 0.08467 0.84752 0.0
H3217 H 0.11873 0.0962 0.86503 0.0
H3218 H 0.14455 0.14851 0.86835 0.0
H3219 H 0.16993 0.13708 0.85097 0.0
C3220 C 0.09967 0.15384 0.89645 0.0
C3221 C 0.09716 0.14311 0.91191 0.0
C3222 C 0.1093 0.14705 0.8816 0.0
C3223 C 0.11635 0.12935 0.8819 0.0
C3224 C 0.11267 0.11827 0.89686 0.0
C3225 C 0.10326 0.12509 0.9117 0.0
C3226 C 0.14436 0.09873 0.85163 0.0
C3227 C 0.15931 0.1099 0.84819 0.0
C3228 C 0.1297 0.10532 0.86169 0.0
C3229 C 0.12967 0.12324 0.86817 0.0
C3230 C 0.14403 0.13471 0.86346 0.0
C3231 C 0.1587 0.12809 0.85367 0.0
H3232 H 0.1356 0.34162 0.0817 0.0
H3233 H 0.16473 0.33459 0.13163 0.0
H3234 H 0.11767 0.36556 0.09537 0.0
H3235 H 0.14805 0.35963 0.14512 0.0
H3236 H 0.09643 0.38246 0.17115 0.0
H3237 H 0.12044 0.36475 0.15736 0.0
H3238 H 0.11237 0.39345 0.10692 0.0
H3239 H 0.08728 0.40988 0.1206 0.0
C3240 C 0.13861 0.3458 0.09542 0.0
C3241 C 0.15147 0.33642 0.10565 0.0
C3242 C 0.1284 0.35961 0.10334 0.0
C3243 C 0.13114 0.36461 0.12157 0.0
C3244 C 0.14507 0.35594 0.13128 0.0
C3245 C 0.15486 0.34176 0.12351 0.0
C3246 C 0.10016 0.38519 0.15724 0.0
C3247 C 0.09016 0.39747 0.1469 0.0
C3248 C 0.11401 0.37509 0.14925 0.0
C3249 C 0.1184 0.37736 0.1308 0.0
C3250 C 0.10914 0.3908 0.12094 0.0
C3251 C 0.09494 0.40047 0.12881 0.0
H3252 H 0.57948 0.10171 0.88327 0.0
H3253 H 0.60525 0.10056 0.83092 0.0
H3254 H 0.60487 0.11845 0.89564 0.0
H3255 H 0.63095 0.11752 0.84339 0.0
H3256 H 0.64648 0.17565 0.86588 0.0
H3257 H 0.63073 0.14986 0.85308 0.0
H3258 H 0.63765 0.12068 0.9032 0.0
H3259 H 0.65357 0.14679 0.91614 0.0
C3260 C 0.59084 0.10469 0.87451 0.0
C3261 C 0.5903 0.1001 0.85607 0.0
C3262 C 0.60549 0.11414 0.88165 0.0
C3263 C 0.61987 0.11944 0.87047 0.0
C3264 C 0.61997 0.11371 0.85229 0.0
C3265 C 0.60533 0.10396 0.84517 0.0
C3266 C 0.64494 0.16363 0.8741 0.0
C3267 C 0.65096 0.16336 0.89213 0.0
C3268 C 0.6361 0.14873 0.86666 0.0
C3269 C 0.63287 0.13324 0.87713 0.0
C3270 C 0.63987 0.1325 0.89484 0.0
C3271 C 0.64899 0.1474 0.90224 0.0
H3272 H 0.92478 0.89219 0.38086 0.0
H3273 H 0.89503 0.90275 0.33173 0.0
H3274 H 0.8989 0.87636 0.39333 0.0
H3275 H 0.86882 0.88676 0.34436 0.0
H3276 H 0.84633 0.82938 0.36248 0.0
H3277 H 0.86474 0.85391 0.35067 0.0
H3278 H 0.86708 0.87779 0.40393 0.0
H3279 H 0.84865 0.85291 0.41583 0.0
C3280 C 0.91257 0.89136 0.37281 0.0
C3281 C 0.91204 0.89847 0.35519 0.0
C3282 C 0.89764 0.88245 0.38007 0.0
C3283 C 0.88181 0.88025 0.36984 0.0
C3284 C 0.8809 0.88817 0.35253 0.0
C3285 C 0.89585 0.89735 0.34532 0.0
C3286 C 0.85052 0.84001 0.37162 0.0
C3287 C 0.84638 0.83905 0.39014 0.0
C3288 C 0.8609 0.85421 0.3648 0.0
C3289 C 0.86752 0.86772 0.37638 0.0
C3290 C 0.8623 0.86746 0.39471 0.0
C3291 C 0.8517 0.85329 0.40151 0.0
H3292 H 0.84691 0.14391 0.08256 0.0
H3293 H 0.85025 0.17098 0.13419 0.0
H3294 H 0.86392 0.11831 0.09504 0.0
H3295 H 0.86721 0.14574 0.14652 0.0
H3296 H 0.89481 0.09685 0.1675 0.0
H3297 H 0.86884 0.11332 0.15499 0.0
H3298 H 0.89627 0.11733 0.10359 0.0
H3299 H 0.92189 0.10098 0.11595 0.0
C3300 C 0.85092 0.14423 0.09664 0.0
C3301 C 0.84757 0.15959 0.1073 0.0
C3302 C 0.86069 0.12962 0.10378 0.0
C3303 C 0.86702 0.13005 0.12174 0.0
C3304 C 0.86243 0.14486 0.1327 0.0
C3305 C 0.85288 0.15946 0.12555 0.0
C3306 C 0.89502 0.10086 0.15342 0.0
C3307 C 0.91046 0.09791 0.14279 0.0
C3308 C 0.88022 0.11034 0.14627 0.0
C3309 C 0.88056 0.11674 0.12833 0.0
C3310 C 0.89546 0.11247 0.11738 0.0
C3311 C 0.91025 0.10325 0.12455 0.0
H3312 H 0.34023 0.67045 0.63596 0.0
H3313 H 0.35573 0.64872 0.58412 0.0
H3314 H 0.3562 0.646 0.65118 0.0
H3315 H 0.3724 0.62443 0.59934 0.0
H3316 H 0.40066 0.581 0.63184 0.0
H3317 H 0.37471 0.59785 0.61957 0.0
H3318 H 0.38847 0.64318 0.65386 0.0
H3319 H 0.41398 0.62635 0.66593 0.0
C3320 C 0.34681 0.66018 0.62784 0.0
C3321 C 0.34703 0.66154 0.60893 0.0
C3322 C 0.356 0.64621 0.63654 0.0
C3323 C 0.36593 0.6335 0.6265 0.0
C3324 C 0.36483 0.63396 0.60748 0.0
C3325 C 0.35534 0.64787 0.59874 0.0
C3326 C 0.3976 0.59432 0.63711 0.0
C3327 C 0.40899 0.60238 0.64997 0.0
C3328 C 0.38293 0.60402 0.62999 0.0
C3329 C 0.37948 0.62185 0.63574 0.0
C3330 C 0.39046 0.62939 0.64935 0.0
C3331 C 0.4051 0.61979 0.65628 0.0
H3332 H 0.14711 0.67152 0.36891 0.0
H3333 H 0.15472 0.64209 0.41875 0.0
H3334 H 0.13235 0.64543 0.35554 0.0
H3335 H 0.13972 0.61568 0.40526 0.0
H3336 H 0.08131 0.59716 0.38467 0.0
H3337 H 0.10684 0.61333 0.39754 0.0
H3338 H 0.13325 0.61314 0.34545 0.0
H3339 H 0.10744 0.59674 0.33249 0.0
C3340 C 0.14594 0.65928 0.37689 0.0
C3341 C 0.15176 0.65891 0.39498 0.0
C3342 C 0.13767 0.64424 0.36913 0.0
C3343 C 0.1348 0.62851 0.37935 0.0
C3344 C 0.14171 0.62768 0.39709 0.0
C3345 C 0.15029 0.64274 0.40481 0.0
C3346 C 0.0928 0.60013 0.37606 0.0
C3347 C 0.09232 0.59598 0.35753 0.0
C3348 C 0.10751 0.60925 0.38349 0.0
C3349 C 0.122 0.61465 0.37249 0.0
C3350 C 0.12219 0.60923 0.35422 0.0
C3351 C 0.10749 0.59981 0.34681 0.0
H3352 H 0.3385 0.33269 0.86823 0.0
H3353 H 0.36261 0.34814 0.91898 0.0
H3354 H 0.35384 0.3576 0.85312 0.0
H3355 H 0.37916 0.37234 0.9038 0.0
H3356 H 0.40763 0.41594 0.87459 0.0
H3357 H 0.38242 0.39952 0.88834 0.0
H3358 H 0.38298 0.36202 0.84337 0.0
H3359 H 0.40728 0.37915 0.82945 0.0
C3360 C 0.34696 0.34166 0.87616 0.0
C3361 C 0.34948 0.33859 0.89469 0.0
C3362 C 0.35593 0.35582 0.8675 0.0
C3363 C 0.36815 0.36684 0.87706 0.0
C3364 C 0.36977 0.36434 0.89593 0.0
C3365 C 0.36036 0.35043 0.90468 0.0
C3366 C 0.40171 0.40463 0.86739 0.0
C3367 C 0.40902 0.39892 0.85087 0.0
C3368 C 0.38749 0.39501 0.87537 0.0
C3369 C 0.38067 0.37923 0.86716 0.0
C3370 C 0.38749 0.37423 0.85005 0.0
C3371 C 0.40147 0.38402 0.84199 0.0
H3372 H 0.61775 0.5794 0.91084 0.0
H3373 H 0.66927 0.59886 0.89183 0.0
H3374 H 0.6025 0.60435 0.89569 0.0
H3375 H 0.65406 0.62323 0.87547 0.0
H3376 H 0.62392 0.66725 0.84769 0.0
H3377 H 0.637 0.64987 0.8727 0.0
H3378 H 0.59522 0.60946 0.86577 0.0
H3379 H 0.58199 0.62731 0.8416 0.0
C3380 C 0.6258 0.58926 0.90357 0.0
C3381 C 0.64461 0.58728 0.90239 0.0
C3382 C 0.61708 0.60345 0.89472 0.0
C3383 C 0.62692 0.61565 0.88393 0.0
C3384 C 0.64596 0.61426 0.88373 0.0
C3385 C 0.65474 0.60027 0.89303 0.0
C3386 C 0.61724 0.655 0.85214 0.0
C3387 C 0.60182 0.64869 0.8431 0.0
C3388 C 0.62484 0.64489 0.86624 0.0
C3389 C 0.61731 0.62812 0.87128 0.0
C3390 C 0.60129 0.62241 0.86266 0.0
C3391 C 0.59364 0.63261 0.84875 0.0
H3392 H 0.64648 0.41766 0.15079 0.0
H3393 H 0.67368 0.36624 0.14539 0.0
H3394 H 0.62024 0.40526 0.13468 0.0
H3395 H 0.6478 0.35401 0.1294 0.0
H3396 H 0.59783 0.33277 0.10433 0.0
H3397 H 0.61554 0.34526 0.12945 0.0
H3398 H 0.61741 0.39697 0.10233 0.0
H3399 H 0.5997 0.38462 0.0776 0.0
C3400 C 0.6467 0.40365 0.14652 0.0
C3401 C 0.66223 0.39302 0.14907 0.0
C3402 C 0.63173 0.39656 0.13727 0.0
C3403 C 0.63198 0.37867 0.13068 0.0
C3404 C 0.64704 0.36775 0.13442 0.0
C3405 C 0.66199 0.37486 0.14342 0.0
C3406 C 0.60167 0.34691 0.10401 0.0
C3407 C 0.59772 0.35763 0.08885 0.0
C3408 C 0.61185 0.35404 0.11833 0.0
C3409 C 0.61802 0.37207 0.1178 0.0
C3410 C 0.61279 0.3831 0.10327 0.0
C3411 C 0.60283 0.37594 0.08895 0.0
H3412 H 0.86656 0.34847 0.33121 0.0
H3413 H 0.91905 0.3454 0.35655 0.0
H3414 H 0.85486 0.36509 0.35701 0.0
H3415 H 0.90728 0.36229 0.38264 0.0
H3416 H 0.88612 0.42095 0.39886 0.0
H3417 H 0.89834 0.39502 0.38283 0.0
H3418 H 0.84777 0.36669 0.38999 0.0
H3419 H 0.83543 0.39291 0.40611 0.0
C3420 C 0.87548 0.351 0.34256 0.0
C3421 C 0.89377 0.34591 0.34182 0.0
C3422 C 0.86873 0.36037 0.35743 0.0
C3423 C 0.88017 0.3651 0.37181 0.0
C3424 C 0.89819 0.35889 0.37167 0.0
C3425 C 0.90491 0.3492 0.35682 0.0
C3426 C 0.87769 0.40909 0.39729 0.0
C3427 C 0.85969 0.4091 0.4034 0.0
C3428 C 0.88479 0.39411 0.38831 0.0
C3429 C 0.874 0.37884 0.38507 0.0
C3430 C 0.85636 0.37834 0.39222 0.0
C3431 C 0.8493 0.39332 0.40145 0.0
H3432 H 0.82966 0.63826 0.65205 0.0
H3433 H 0.85553 0.58595 0.65287 0.0
H3434 H 0.85411 0.65029 0.63374 0.0
H3435 H 0.88038 0.5981 0.63458 0.0
H3436 H 0.89491 0.61891 0.57609 0.0
H3437 H 0.87941 0.60694 0.60237 0.0
H3438 H 0.88649 0.65799 0.62991 0.0
H3439 H 0.9021 0.67014 0.60326 0.0
C3440 C 0.84078 0.62941 0.64856 0.0
C3441 C 0.8405 0.61107 0.65353 0.0
C3442 C 0.85494 0.63638 0.63825 0.0
C3443 C 0.86911 0.62511 0.63255 0.0
C3444 C 0.86952 0.60706 0.63863 0.0
C3445 C 0.85537 0.60011 0.64915 0.0
C3446 C 0.89343 0.62754 0.58784 0.0
C3447 C 0.89944 0.64559 0.5875 0.0
C3448 C 0.88472 0.62058 0.60302 0.0
C3449 C 0.88165 0.63152 0.61822 0.0
C3450 C 0.88857 0.64928 0.61832 0.0
C3451 C 0.89752 0.65622 0.60311 0.0
H3452 H 0.61819 0.42776 0.59494 0.0
H3453 H 0.66898 0.4004 0.60365 0.0
H3454 H 0.60228 0.40358 0.61054 0.0
H3455 H 0.653 0.37616 0.61984 0.0
H3456 H 0.61614 0.33281 0.64553 0.0
H3457 H 0.62882 0.35107 0.62067 0.0
H3458 H 0.60387 0.39876 0.64348 0.0
H3459 H 0.59158 0.3807 0.66799 0.0
C3460 C 0.62591 0.41639 0.6 0.0
C3461 C 0.64482 0.41609 0.59848 0.0
C3462 C 0.6168 0.40253 0.60889 0.0
C3463 C 0.62642 0.38817 0.61673 0.0
C3464 C 0.64523 0.38705 0.61389 0.0
C3465 C 0.65438 0.40092 0.60471 0.0
C3466 C 0.61301 0.34711 0.64478 0.0
C3467 C 0.60277 0.35543 0.65843 0.0
C3468 C 0.62038 0.35755 0.63073 0.0
C3469 C 0.61727 0.37632 0.63008 0.0
C3470 C 0.60628 0.3843 0.64337 0.0
C3471 C 0.59924 0.374 0.65744 0.0
H3472 H 0.89642 0.38318 0.92313 0.0
H3473 H 0.90227 0.33201 0.89558 0.0
H3474 H 0.88079 0.39562 0.89711 0.0
H3475 H 0.88646 0.34459 0.86922 0.0
H3476 H 0.82905 0.36534 0.84916 0.0
H3477 H 0.85392 0.35284 0.86658 0.0
H3478 H 0.88114 0.4045 0.86477 0.0
H3479 H 0.85591 0.41713 0.84732 0.0
C3480 C 0.89465 0.37468 0.91132 0.0
C3481 C 0.90029 0.35652 0.91148 0.0
C3482 C 0.88586 0.3819 0.89631 0.0
C3483 C 0.8823 0.37108 0.88112 0.0
C3484 C 0.88893 0.35321 0.8808 0.0
C3485 C 0.898 0.34602 0.89583 0.0
C3486 C 0.84046 0.37397 0.85222 0.0
C3487 C 0.84037 0.39231 0.84724 0.0
C3488 C 0.85485 0.36673 0.86202 0.0
C3489 C 0.86945 0.37771 0.86719 0.0
C3490 C 0.86998 0.39576 0.8611 0.0
C3491 C 0.85559 0.40298 0.85108 0.0
H3492 H 0.83428 0.60308 0.09985 0.0
H3493 H 0.88677 0.57756 0.1014 0.0
H3494 H 0.84629 0.62854 0.11739 0.0
H3495 H 0.89865 0.60269 0.1189 0.0
H3496 H 0.91847 0.6524 0.14644 0.0
H3497 H 0.90596 0.63552 0.12076 0.0
H3498 H 0.85568 0.62888 0.1497 0.0
H3499 H 0.86803 0.64564 0.17508 0.0
C3500 C 0.84844 0.60308 0.10361 0.0
C3501 C 0.8595 0.58818 0.09959 0.0
C3502 C 0.8553 0.61761 0.11367 0.0
C3503 C 0.87339 0.61756 0.11962 0.0
C3504 C 0.88471 0.60324 0.11442 0.0
C3505 C 0.87783 0.58871 0.10458 0.0
C3506 C 0.90463 0.64766 0.1471 0.0
C3507 C 0.89434 0.65005 0.16287 0.0
C3508 C 0.89749 0.63797 0.13245 0.0
C3509 C 0.87987 0.63079 0.13326 0.0
C3510 C 0.86922 0.63436 0.14855 0.0
C3511 C 0.87639 0.6438 0.1632 0.0
H3512 H 0.60412 0.66395 0.39713 0.0
H3513 H 0.58989 0.61217 0.41992 0.0
H3514 H 0.62218 0.64859 0.37385 0.0
H3515 H 0.60754 0.59689 0.39673 0.0
H3516 H 0.66653 0.58422 0.3789 0.0
H3517 H 0.64088 0.59671 0.39528 0.0
H3518 H 0.62457 0.62618 0.34753 0.0
H3519 H 0.65051 0.61331 0.33101 0.0
C3520 C 0.60438 0.6493 0.39679 0.0
C3521 C 0.59597 0.63923 0.41051 0.0
C3522 C 0.61467 0.6405 0.38348 0.0
C3523 C 0.61654 0.62154 0.3837 0.0
C3524 C 0.60667 0.61152 0.39644 0.0
C3525 C 0.59659 0.62026 0.40973 0.0
C3526 C 0.65713 0.59291 0.37177 0.0
C3527 C 0.66022 0.59761 0.3537 0.0
C3528 C 0.64243 0.60009 0.38111 0.0
C3529 C 0.63063 0.61239 0.37267 0.0
C3530 C 0.63344 0.61672 0.35435 0.0
C3531 C 0.64809 0.60925 0.34487 0.0
H3532 H 0.6607 0.8352 0.62957 0.0
H3533 H 0.63225 0.84227 0.57926 0.0
H3534 H 0.64441 0.86072 0.64261 0.0
H3535 H 0.61465 0.8667 0.59248 0.0
H3536 H 0.58594 0.91287 0.61654 0.0
H3537 H 0.61015 0.89488 0.60334 0.0
H3538 H 0.6171 0.86741 0.65462 0.0
H3539 H 0.59402 0.8867 0.66794 0.0
C3540 C 0.65103 0.84245 0.62128 0.0
C3541 C 0.64776 0.83701 0.60342 0.0
C3542 C 0.64144 0.85691 0.6288 0.0
C3543 C 0.62785 0.86581 0.61883 0.0
C3544 C 0.62515 0.86061 0.60064 0.0
C3545 C 0.63516 0.8465 0.59298 0.0
C3546 C 0.59313 0.90333 0.62503 0.0
C3547 C 0.5883 0.90117 0.64322 0.0
C3548 C 0.60684 0.89277 0.61743 0.0
C3549 C 0.61553 0.87926 0.62768 0.0
C3550 C 0.61109 0.87775 0.6462 0.0
C3551 C 0.59777 0.88877 0.65393 0.0
H3552 H 0.9589 0.26762 0.30217 0.0
H3553 H 0.97983 0.29699 0.34814 0.0
H3554 H 0.98331 0.24589 0.30486 0.0
H3555 H 0.00399 0.27472 0.35134 0.0
H3556 H 0.05696 0.24505 0.33522 0.0
H3557 H 0.03123 0.26567 0.33688 0.0
H3558 H 0.99541 0.22197 0.32179 0.0
H3559 H 0.02119 0.20171 0.31938 0.0
C3560 C 0.96854 0.26926 0.31308 0.0
C3561 C 0.96745 0.2841 0.32489 0.0
C3562 C 0.98253 0.25669 0.31472 0.0
C3563 C 0.9957 0.25848 0.32835 0.0
C3564 C 0.99428 0.27305 0.34051 0.0
C3565 C 0.98035 0.28575 0.33876 0.0
C3566 C 0.04354 0.23984 0.3325 0.0
C3567 C 0.04111 0.22183 0.32699 0.0
C3568 C 0.02875 0.25163 0.33351 0.0
C3569 C 0.01119 0.24558 0.32924 0.0
C3570 C 0.00874 0.22727 0.32471 0.0
C3571 C 0.02352 0.21559 0.32345 0.0
H3572 H 0.04469 0.77304 0.56105 0.0
H3573 H 0.00404 0.80608 0.58692 0.0
H3574 H 0.02507 0.74672 0.5636 0.0
H3575 H 0.98422 0.77956 0.58929 0.0
H3576 H 0.94876 0.73332 0.56244 0.0
H3577 H 0.96808 0.75989 0.56553 0.0
H3578 H 0.01055 0.72648 0.5876 0.0
H3579 H 0.99114 0.6998 0.58466 0.0
C3580 C 0.03158 0.77467 0.56737 0.0
C3581 C 0.02587 0.79167 0.57371 0.0
C3582 C 0.02041 0.75954 0.56895 0.0
C3583 C 0.00315 0.76108 0.57668 0.0
C3584 C 0.99747 0.77802 0.58324 0.0
C3585 C 0.00881 0.79316 0.58193 0.0
C3586 C 0.96215 0.73166 0.56815 0.0
C3587 C 0.96848 0.71444 0.57321 0.0
C3588 C 0.97315 0.7469 0.57003 0.0
C3589 C 0.99082 0.74524 0.57676 0.0
C3590 C 0.997 0.72811 0.58228 0.0
C3591 C 0.98588 0.71287 0.58066 0.0
H3592 H 0.55461 0.74276 0.83867 0.0
H3593 H 0.52114 0.7039 0.81067 0.0
H3594 H 0.52852 0.76307 0.84145 0.0
H3595 H 0.4952 0.72402 0.81366 0.0
H3596 H 0.44882 0.75811 0.8357 0.0
H3597 H 0.47507 0.73809 0.83832 0.0
H3598 H 0.50951 0.7805 0.8178 0.0
H3599 H 0.48334 0.80043 0.81498 0.0
C3600 C 0.54168 0.73848 0.8333 0.0
C3601 C 0.53995 0.72179 0.82437 0.0
C3602 C 0.52679 0.75011 0.83485 0.0
C3603 C 0.50985 0.74507 0.82782 0.0
C3604 C 0.50804 0.72817 0.81937 0.0
C3605 C 0.52294 0.71672 0.81754 0.0
C3606 C 0.46203 0.76324 0.83201 0.0
C3607 C 0.464 0.7808 0.82504 0.0
C3608 C 0.47702 0.75176 0.83344 0.0
C3609 C 0.4943 0.75774 0.82822 0.0
C3610 C 0.49638 0.77558 0.82205 0.0
C3611 C 0.48138 0.78694 0.82034 0.0
H3612 H 0.50427 0.30377 0.08994 0.0
H3613 H 0.5468 0.26972 0.06883 0.0
H3614 H 0.48487 0.27715 0.09344 0.0
H3615 H 0.52749 0.2433 0.0723 0.0
H3616 H 0.49249 0.19686 0.09091 0.0
H3617 H 0.51159 0.22362 0.09479 0.0
H3618 H 0.47001 0.2568 0.0707 0.0
H3619 H 0.45098 0.23021 0.06686 0.0
C3620 C 0.50957 0.2906 0.08632 0.0
C3621 C 0.52701 0.28887 0.07898 0.0
C3622 C 0.49845 0.27539 0.08825 0.0
C3623 C 0.50465 0.25815 0.08311 0.0
C3624 C 0.52238 0.25635 0.07656 0.0
C3625 C 0.53339 0.27154 0.07445 0.0
C3626 C 0.48733 0.20991 0.08671 0.0
C3627 C 0.47029 0.21139 0.07845 0.0
C3628 C 0.49829 0.22521 0.08887 0.0
C3629 C 0.49231 0.2423 0.083 0.0
C3630 C 0.47493 0.24387 0.07552 0.0
C3631 C 0.46408 0.22859 0.07319 0.0
H3632 H 0.98256 0.70015 0.1849 0.0
H3633 H 0.95008 0.74215 0.1605 0.0
H3634 H 0.00937 0.71904 0.18192 0.0
H3635 H 0.97707 0.76115 0.15758 0.0
H3636 H 0.02301 0.79551 0.18521 0.0
H3637 H 0.99652 0.77638 0.18132 0.0
H3638 H 0.03015 0.73409 0.15919 0.0
H3639 H 0.05686 0.75336 0.16302 0.0
C3640 C 0.98119 0.71335 0.1787 0.0
C3641 C 0.96418 0.71973 0.17306 0.0
C3642 C 0.99659 0.72411 0.17687 0.0
C3643 C 0.99531 0.74158 0.16955 0.0
C3644 C 0.97841 0.74776 0.16336 0.0
C3645 C 0.963 0.73687 0.16496 0.0
C3646 C 0.02478 0.7822 0.17935 0.0
C3647 C 0.04206 0.77588 0.17455 0.0
C3648 C 0.00955 0.77131 0.17697 0.0
C3649 C 0.01126 0.75376 0.16994 0.0
C3650 C 0.02847 0.74756 0.16471 0.0
C3651 C 0.04373 0.75858 0.16686 0.0
H3652 H 0.54931 0.73066 0.42964 0.0
H3653 H 0.50543 0.69685 0.41104 0.0
H3654 H 0.53003 0.75728 0.4269 0.0
H3655 H 0.48611 0.72358 0.40834 0.0
H3656 H 0.45375 0.77029 0.43651 0.0
H3657 H 0.47304 0.74393 0.43248 0.0
H3658 H 0.51246 0.77689 0.40478 0.0
H3659 H 0.49301 0.80346 0.40874 0.0
C3660 C 0.53562 0.72894 0.42471 0.0
C3661 C 0.52885 0.71163 0.42069 0.0
C3662 C 0.52463 0.74422 0.42303 0.0
C3663 C 0.50655 0.7425 0.41749 0.0
C3664 C 0.49997 0.72528 0.41277 0.0
C3665 C 0.51105 0.71 0.41423 0.0
C3666 C 0.46646 0.77193 0.42941 0.0
C3667 C 0.47191 0.78899 0.42303 0.0
C3668 C 0.47744 0.75677 0.42697 0.0
C3669 C 0.49424 0.75834 0.41828 0.0
C3670 C 0.49959 0.77532 0.41158 0.0
C3671 C 0.48844 0.7905 0.41379 0.0
H3672 H 0.51438 0.30565 0.66482 0.0
H3673 H 0.55038 0.26624 0.68864 0.0
H3674 H 0.49085 0.28269 0.66237 0.0
H3675 H 0.52692 0.24322 0.68589 0.0
H3676 H 0.47344 0.2165 0.70259 0.0
H3677 H 0.49828 0.23788 0.70126 0.0
H3678 H 0.48158 0.2542 0.64773 0.0
H3679 H 0.45635 0.23279 0.64912 0.0
C3680 C 0.51738 0.29203 0.66929 0.0
C3681 C 0.53422 0.28784 0.67709 0.0
C3682 C 0.5039 0.27884 0.66779 0.0
C3683 C 0.50694 0.26116 0.67408 0.0
C3684 C 0.52405 0.25679 0.68119 0.0
C3685 C 0.53753 0.26997 0.68267 0.0
C3686 C 0.47503 0.22457 0.69047 0.0
C3687 C 0.46285 0.22293 0.67595 0.0
C3688 C 0.48941 0.23675 0.68966 0.0
C3689 C 0.49201 0.24768 0.67435 0.0
C3690 C 0.47988 0.24603 0.65977 0.0
C3691 C 0.46547 0.23373 0.66054 0.0
H3692 H 0.04712 0.231 0.93056 0.0
H3693 H 0.00283 0.19653 0.91431 0.0
H3694 H 0.0276 0.25745 0.92791 0.0
H3695 H 0.98324 0.22311 0.91175 0.0
H3696 H 0.95194 0.27049 0.94038 0.0
H3697 H 0.97115 0.24408 0.93623 0.0
H3698 H 0.00903 0.27631 0.90568 0.0
H3699 H 0.98964 0.30292 0.90972 0.0
C3700 C 0.03328 0.2291 0.92616 0.0
C3701 C 0.02647 0.21167 0.92277 0.0
C3702 C 0.02214 0.24427 0.92453 0.0
C3703 C 0.00389 0.24232 0.9197 0.0
C3704 C 0.99724 0.22497 0.91562 0.0
C3705 C 0.00847 0.20979 0.91699 0.0
C3706 C 0.96429 0.27196 0.93265 0.0
C3707 C 0.96934 0.28883 0.92547 0.0
C3708 C 0.97521 0.25677 0.93014 0.0
C3709 C 0.99155 0.25812 0.92059 0.0
C3710 C 0.9965 0.27491 0.91313 0.0
C3711 C 0.9854 0.2901 0.91541 0.0
H3712 H 0.34219 0.05257 0.24236 0.0
H3713 H 0.30826 0.0212 0.20658 0.0
H3714 H 0.3457 0.02604 0.26203 0.0
H3715 H 0.31194 0.9949 0.22599 0.0
H3716 H 0.33424 0.94668 0.25618 0.0
H3717 H 0.33684 0.97329 0.23668 0.0
H3718 H 0.32328 0.00779 0.28178 0.0
H3719 H 0.32055 0.98126 0.30124 0.0
C3720 C 0.33562 0.04002 0.23863 0.0
C3721 C 0.32487 0.03901 0.22299 0.0
C3722 C 0.33761 0.02488 0.24987 0.0
C3723 C 0.32919 0.0084 0.24545 0.0
C3724 C 0.31879 0.00734 0.22961 0.0
C3725 C 0.31655 0.02248 0.21859 0.0
C3726 C 0.33215 0.95996 0.262 0.0
C3727 C 0.32705 0.96187 0.2802 0.0
C3728 C 0.33355 0.97517 0.25083 0.0
C3729 C 0.33017 0.99257 0.25772 0.0
C3730 C 0.32608 0.99455 0.27614 0.0
C3731 C 0.32441 0.97935 0.28724 0.0
H3732 H 0.19787 0.08659 0.49503 0.0
H3733 H 0.23152 0.06599 0.45195 0.0
H3734 H 0.22455 0.08942 0.5144 0.0
H3735 H 0.25807 0.06883 0.47128 0.0
H3736 H 0.30448 0.08806 0.50734 0.0
H3737 H 0.27793 0.0912 0.48774 0.0
H3738 H 0.24475 0.06615 0.52872 0.0
H3739 H 0.2711 0.06299 0.5482 0.0
C3740 C 0.21097 0.08293 0.4896 0.0
C3741 C 0.21255 0.07595 0.472 0.0
C3742 C 0.22622 0.08447 0.50072 0.0
C3743 C 0.24339 0.07928 0.49438 0.0
C3744 C 0.24507 0.07309 0.4765 0.0
C3745 C 0.22982 0.07135 0.46548 0.0
C3746 C 0.29147 0.08341 0.51222 0.0
C3747 C 0.28992 0.07519 0.52928 0.0
C3748 C 0.27631 0.08514 0.50098 0.0
C3749 C 0.25926 0.07894 0.50671 0.0
C3750 C 0.25764 0.07126 0.524 0.0
C3751 C 0.27279 0.06932 0.5351 0.0
H3752 H 0.17971 0.97914 0.70499 0.0
H3753 H 0.1663 0.94327 0.74902 0.0
H3754 H 0.17691 0.00503 0.72503 0.0
H3755 H 0.16441 0.96914 0.76948 0.0
H3756 H 0.15253 0.0204 0.80088 0.0
H3757 H 0.14958 0.99578 0.77906 0.0
H3758 H 0.1937 0.01833 0.74802 0.0
H3759 H 0.196 0.04318 0.76924 0.0
C3760 C 0.17614 0.97681 0.719 0.0
C3761 C 0.17335 0.95918 0.72548 0.0
C3762 C 0.17467 0.99166 0.73056 0.0
C3763 C 0.17075 0.98925 0.74902 0.0
C3764 C 0.16728 0.9716 0.75534 0.0
C3765 C 0.16844 0.95673 0.74364 0.0
C3766 C 0.16141 0.02018 0.78924 0.0
C3767 C 0.17449 0.03376 0.7868 0.0
C3768 C 0.15983 0.00598 0.7768 0.0
C3769 C 0.17141 0.00494 0.76172 0.0
C3770 C 0.18426 0.01877 0.7592 0.0
C3771 C 0.18568 0.03303 0.77148 0.0
H3772 H 0.2665 0.93638 0.9476 0.0
H3773 H 0.30076 0.91434 0.98947 0.0
H3774 H 0.24027 0.9333 0.96736 0.0
H3775 H 0.27442 0.91142 0.00934 0.0
H3776 H 0.22836 0.93823 0.0441 0.0
H3777 H 0.25439 0.93551 0.02411 0.0
H3778 H 0.22093 0.90959 0.9839 0.0
H3779 H 0.19473 0.91213 0.00408 0.0
C3780 C 0.2684 0.9307 0.96096 0.0
C3781 C 0.28572 0.9257 0.96702 0.0
C3782 C 0.25335 0.92883 0.97222 0.0
C3783 C 0.25532 0.92216 0.98988 0.0
C3784 C 0.27255 0.91669 0.9958 0.0
C3785 C 0.28759 0.91829 0.98441 0.0
C3786 C 0.22654 0.93181 0.03105 0.0
C3787 C 0.20945 0.92547 0.02562 0.0
C3788 C 0.2415 0.93013 0.01967 0.0
C3789 C 0.23969 0.9223 0.00248 0.0
C3790 C 0.22267 0.91572 0.99709 0.0
C3791 C 0.20771 0.91713 0.00864 0.0
H3792 H 0.29997 0.31381 0.98278 0.0
H3793 H 0.2599 0.34012 0.94937 0.0
H3794 H 0.28021 0.31679 0.00895 0.0
H3795 H 0.24001 0.34303 0.97571 0.0
H3796 H 0.20349 0.31513 0.02008 0.0
H3797 H 0.22342 0.31933 0.99419 0.0
H3798 H 0.26517 0.33969 0.02957 0.0
H3799 H 0.24514 0.33554 0.05561 0.0
C3800 C 0.28702 0.32043 0.98107 0.0
C3801 C 0.28143 0.32662 0.96398 0.0
C3802 C 0.27576 0.32226 0.9961 0.0
C3803 C 0.25857 0.33012 0.99436 0.0
C3804 C 0.25318 0.33683 0.9774 0.0
C3805 C 0.26457 0.33523 0.96236 0.0
C3806 C 0.21684 0.32072 0.02233 0.0
C3807 C 0.2228 0.32488 0.0399 0.0
C3808 C 0.2282 0.32326 0.00748 0.0
C3809 C 0.24585 0.32981 0.00987 0.0
C3810 C 0.25164 0.33453 0.02736 0.0
C3811 C 0.24017 0.33222 0.04224 0.0
H3812 H 0.75449 0.16198 0.05221 0.0
H3813 H 0.79872 0.179 0.01808 0.0
H3814 H 0.73499 0.15954 0.02558 0.0
H3815 H 0.77928 0.17655 0.99158 0.0
H3816 H 0.74171 0.15948 0.9456 0.0
H3817 H 0.76106 0.15495 0.97215 0.0
H3818 H 0.7225 0.18381 0.00514 0.0
H3819 H 0.70331 0.18839 0.97882 0.0
C3820 C 0.76014 0.16488 0.03902 0.0
C3821 C 0.77809 0.17083 0.03726 0.0
C3822 C 0.74896 0.16357 0.02379 0.0
C3823 C 0.7556 0.16794 0.00651 0.0
C3824 C 0.77382 0.17295 0.00468 0.0
C3825 C 0.78491 0.17447 0.01989 0.0
C3826 C 0.73731 0.16467 0.95857 0.0
C3827 C 0.72105 0.1744 0.96009 0.0
C3828 C 0.74839 0.16212 0.97373 0.0
C3829 C 0.74326 0.16899 0.99072 0.0
C3830 C 0.72671 0.17816 0.9923 0.0
C3831 C 0.7158 0.18092 0.97716 0.0
H3832 H 0.06571 0.44897 0.23284 0.0
H3833 H 0.08724 0.4909 0.19834 0.0
H3834 H 0.06869 0.46887 0.25897 0.0
H3835 H 0.09008 0.51093 0.2246 0.0
H3836 H 0.06294 0.54545 0.27085 0.0
H3837 H 0.06602 0.52559 0.24474 0.0
H3838 H 0.09229 0.48557 0.27814 0.0
H3839 H 0.08937 0.50559 0.30442 0.0
C3840 C 0.07126 0.46239 0.23087 0.0
C3841 C 0.07615 0.46842 0.21351 0.0
C3842 C 0.07308 0.47373 0.24586 0.0
C3843 C 0.07959 0.49144 0.24381 0.0
C3844 C 0.08494 0.49734 0.22654 0.0
C3845 C 0.08339 0.48588 0.21154 0.0
C3846 C 0.06952 0.53248 0.27263 0.0
C3847 C 0.07582 0.52703 0.28973 0.0
C3848 C 0.07141 0.52118 0.25763 0.0
C3849 C 0.07941 0.50406 0.25941 0.0
C3850 C 0.08602 0.4987 0.27642 0.0
C3851 C 0.08439 0.51016 0.29142 0.0
H3852 H 0.70054 0.81154 0.51794 0.0
H3853 H 0.73992 0.83941 0.55089 0.0
H3854 H 0.71984 0.81532 0.49154 0.0
H3855 H 0.75935 0.84314 0.52431 0.0
H3856 H 0.79641 0.81825 0.47859 0.0
H3857 H 0.77692 0.82095 0.50502 0.0
H3858 H 0.73311 0.83903 0.47093 0.0
H3859 H 0.75266 0.83636 0.44437 0.0
C3860 C 0.71326 0.81863 0.51952 0.0
C3861 C 0.71875 0.82509 0.53654 0.0
C3862 C 0.72425 0.82092 0.50435 0.0
C3863 C 0.7411 0.82954 0.50585 0.0
C3864 C 0.74645 0.83637 0.52278 0.0
C3865 C 0.73531 0.83429 0.53797 0.0
C3866 C 0.7827 0.82305 0.47673 0.0
C3867 C 0.77604 0.82698 0.45936 0.0
C3868 C 0.77157 0.8247 0.49191 0.0
C3869 C 0.75347 0.83013 0.49004 0.0
C3870 C 0.74698 0.83468 0.47275 0.0
C3871 C 0.75819 0.83324 0.45756 0.0
H3872 H 0.91292 0.00652 0.19675 0.0
H3873 H 0.9354 0.04843 0.23072 0.0
H3874 H 0.90948 0.98701 0.22329 0.0
H3875 H 0.9319 0.02901 0.2571 0.0
H3876 H 0.91146 0.9935 0.30327 0.0
H3877 H 0.90852 0.01321 0.27676 0.0
H3878 H 0.93271 0.97186 0.24338 0.0
H3879 H 0.93573 0.95231 0.26968 0.0
C3880 C 0.91688 0.01166 0.20989 0.0
C3881 C 0.92456 0.02895 0.21162 0.0
C3882 C 0.91497 0.00048 0.22505 0.0
C3883 C 0.92044 0.00649 0.24225 0.0
C3884 C 0.92739 0.02407 0.24406 0.0
C3885 C 0.92953 0.03513 0.22891 0.0
C3886 C 0.91592 0.98857 0.29022 0.0
C3887 C 0.92394 0.97142 0.28859 0.0
C3888 C 0.9143 0.99986 0.27509 0.0
C3889 C 0.92038 0.99406 0.25801 0.0
C3890 C 0.92773 0.97664 0.2563 0.0
C3891 C 0.92959 0.9655 0.27142 0.0
H3892 H 0.25795 0.66313 0.55333 0.0
H3893 H 0.29947 0.68704 0.51991 0.0
H3894 H 0.23852 0.65989 0.52668 0.0
H3895 H 0.28016 0.68365 0.4934 0.0
H3896 H 0.24481 0.66233 0.44702 0.0
H3897 H 0.26463 0.65967 0.4735 0.0
H3898 H 0.22329 0.68386 0.50686 0.0
H3899 H 0.20366 0.68668 0.48058 0.0
C3900 C 0.26302 0.66744 0.54028 0.0
C3901 C 0.28016 0.67546 0.53874 0.0
C3902 C 0.2519 0.66564 0.52507 0.0
C3903 C 0.25785 0.67153 0.50799 0.0
C3904 C 0.27528 0.67884 0.50635 0.0
C3905 C 0.28627 0.6809 0.52157 0.0
C3906 C 0.23993 0.66689 0.46005 0.0
C3907 C 0.22274 0.67482 0.4617 0.0
C3908 C 0.25127 0.66542 0.47516 0.0
C3909 C 0.24546 0.67153 0.49222 0.0
C3910 C 0.22805 0.67886 0.49393 0.0
C3911 C 0.21687 0.68061 0.47883 0.0
H3912 H 0.40959 0.4857 0.79768 0.0
H3913 H 0.45241 0.4559 0.77139 0.0
H3914 H 0.40864 0.5067 0.7722 0.0
H3915 H 0.45099 0.47631 0.74575 0.0
H3916 H 0.45939 0.52748 0.71316 0.0
H3917 H 0.45899 0.50593 0.73787 0.0
H3918 H 0.40082 0.51069 0.74117 0.0
H3919 H 0.40135 0.53298 0.71679 0.0
C3920 C 0.41868 0.48353 0.7864 0.0
C3921 C 0.43118 0.46922 0.78666 0.0
C3922 C 0.41805 0.4955 0.77172 0.0
C3923 C 0.42982 0.49332 0.75689 0.0
C3924 C 0.442 0.47871 0.75705 0.0
C3925 C 0.44275 0.46691 0.77176 0.0
C3926 C 0.44648 0.52388 0.71906 0.0
C3927 C 0.4304 0.53199 0.71299 0.0
C3928 C 0.44623 0.5114 0.73322 0.0
C3929 C 0.42986 0.50646 0.74157 0.0
C3930 C 0.41371 0.51435 0.73527 0.0
C3931 C 0.41399 0.52702 0.72119 0.0
H3932 H 0.82001 0.52308 0.70351 0.0
H3933 H 0.8425 0.55565 0.74649 0.0
H3934 H 0.8236 0.49608 0.72197 0.0
H3935 H 0.84613 0.52845 0.76504 0.0
H3936 H 0.81964 0.48103 0.79819 0.0
H3937 H 0.82341 0.50803 0.77977 0.0
H3938 H 0.84617 0.47562 0.73686 0.0
H3939 H 0.84236 0.44842 0.75537 0.0
C3940 C 0.82594 0.52445 0.71683 0.0
C3941 C 0.83084 0.54154 0.7236 0.0
C3942 C 0.82814 0.50893 0.72735 0.0
C3943 C 0.83512 0.51014 0.74496 0.0
C3944 C 0.84061 0.52714 0.75154 0.0
C3945 C 0.8386 0.54269 0.7409 0.0
C3946 C 0.82566 0.47966 0.78491 0.0
C3947 C 0.83056 0.46255 0.77817 0.0
C3948 C 0.82796 0.49517 0.77442 0.0
C3949 C 0.83506 0.49395 0.75686 0.0
C3950 C 0.84056 0.47694 0.75032 0.0
C3951 C 0.83844 0.46139 0.76093 0.0
H3952 H 0.7706 0.56826 0.05018 0.0
H3953 H 0.80417 0.58774 0.00654 0.0
H3954 H 0.74398 0.57079 0.0309 0.0
H3955 H 0.77743 0.59022 0.9872 0.0
H3956 H 0.73103 0.56186 0.95451 0.0
H3957 H 0.75735 0.56598 0.97384 0.0
H3958 H 0.7241 0.59287 0.01358 0.0
H3959 H 0.69757 0.58883 0.99408 0.0
C3960 C 0.77226 0.57333 0.03654 0.0
C3961 C 0.78952 0.57768 0.02984 0.0
C3962 C 0.75698 0.57489 0.02554 0.0
C3963 C 0.75863 0.58062 0.00752 0.0
C3964 C 0.77578 0.58563 0.00101 0.0
C3965 C 0.79107 0.5843 0.0121 0.0
C3966 C 0.72931 0.5688 0.9673 0.0
C3967 C 0.71218 0.57493 0.97282 0.0
C3968 C 0.74444 0.57129 0.9783 0.0
C3969 C 0.74279 0.57978 0.9952 0.0
C3970 C 0.72574 0.58623 0.00063 0.0
C3971 C 0.71059 0.58396 0.98946 0.0
H3972 H 0.66306 0.55242 0.2574 0.0
H3973 H 0.69525 0.52072 0.29444 0.0
H3974 H 0.66025 0.52602 0.23746 0.0
H3975 H 0.69222 0.49448 0.27473 0.0
H3976 H 0.66895 0.44668 0.2432 0.0
H3977 H 0.6672 0.47322 0.26295 0.0
H3978 H 0.6833 0.50746 0.21853 0.0
H3979 H 0.68527 0.481 0.19884 0.0
C3980 C 0.6694 0.53982 0.26134 0.0
C3981 C 0.67944 0.53868 0.27744 0.0
C3982 C 0.66783 0.52475 0.24993 0.0
C3983 C 0.67594 0.50819 0.25462 0.0
C3984 C 0.68565 0.507 0.27088 0.0
C3985 C 0.6875 0.52209 0.28208 0.0
C3986 C 0.67187 0.4599 0.23759 0.0
C3987 C 0.67734 0.46174 0.2195 0.0
C3988 C 0.67095 0.47506 0.24891 0.0
C3989 C 0.67516 0.49238 0.24227 0.0
C3990 C 0.67985 0.4943 0.22398 0.0
C3991 C 0.68108 0.47913 0.21275 0.0
H3992 H 0.7722 0.42846 0.45342 0.0
H3993 H 0.80705 0.41159 0.49717 0.0
H3994 H 0.74597 0.42566 0.47311 0.0
H3995 H 0.78064 0.4088 0.51697 0.0
H3996 H 0.73393 0.43808 0.54878 0.0
H3997 H 0.7602 0.43298 0.52968 0.0
H3998 H 0.7269 0.404 0.49144 0.0
H3999 H 0.7004 0.4091 0.51069 0.0
C4000 C 0.77422 0.42388 0.46719 0.0
C4001 C 0.79171 0.42041 0.47381 0.0
C4002 C 0.75917 0.42214 0.47842 0.0
C4003 C 0.76127 0.41708 0.49659 0.0
C4004 C 0.77866 0.41285 0.50303 0.0
C4005 C 0.79375 0.41437 0.4917 0.0
C4006 C 0.7322 0.43045 0.5364 0.0
C4007 C 0.71505 0.42412 0.53116 0.0
C4008 C 0.74731 0.42738 0.52554 0.0
C4009 C 0.74561 0.41808 0.50908 0.0
C4010 C 0.72857 0.41128 0.50405 0.0
C4011 C 0.71344 0.41415 0.51507 0.0
H4012 H 0.56836 0.95107 0.73187 0.0
H4013 H 0.58534 0.99498 0.69729 0.0
H4014 H 0.57084 0.97083 0.75819 0.0
H4015 H 0.58775 0.01476 0.72368 0.0
H4016 H 0.56018 0.04734 0.77041 0.0
H4017 H 0.56361 0.02754 0.74433 0.0
H4018 H 0.59306 0.98925 0.77712 0.0
H4019 H 0.58972 0.00922 0.80339 0.0
C4020 C 0.57287 0.96487 0.72991 0.0
C4021 C 0.57654 0.97149 0.71247 0.0
C4022 C 0.57438 0.97615 0.74501 0.0
C4023 C 0.57939 0.99436 0.74298 0.0
C4024 C 0.58372 0.00081 0.72562 0.0
C4025 C 0.58243 0.98946 0.71053 0.0
C4026 C 0.56751 0.03477 0.77208 0.0
C4027 C 0.57461 0.02981 0.789 0.0
C4028 C 0.5696 0.02349 0.75708 0.0
C4029 C 0.57865 0.00687 0.75867 0.0
C4030 C 0.58597 0.00197 0.77553 0.0
C4031 C 0.58411 0.01341 0.79053 0.0
loop_
_geom_bond_atom_site_label_1
_geom_bond_atom_site_label_2
_geom_bond_distance
_geom_bond_site_symmetry_2
_ccdc_geom_bond_type
Co0 O3 1.970 . S
Co0 N17 1.989 . S
Co0 O25 1.967 . S
Co0 O32 1.920 . S
Co1 O4 1.966 . S
Co1 N10 2.022 . S
Co1 N18 1.993 . S
Co1 O26 1.941 . S
C2 O3 1.258 . S
C2 O4 1.263 . S
O3 Co0 1.970 . S
O3 C2 1.258 . S
O4 Co1 1.966 . S
O4 C2 1.263 . S
C5 O6 1.235 . S
C5 O32 1.289 . S
O6 C5 1.235 . S
C7 C9 1.400 . S
C7 N10 1.351 . S
C7 C12 1.501 . S
C8 C9 1.387 . S
C8 N11 1.341 . S
C9 C7 1.400 . S
C9 C8 1.387 . S
N10 Co1 2.022 . S
N10 C7 1.351 . S
N10 N11 1.365 . S
N11 C8 1.341 . S
N11 N10 1.365 . S
N11 H31 0.862 . S
C12 C7 1.501 . S
C12 H13 0.961 . S
C12 H14 0.961 . S
C12 H15 0.960 . S
H13 C12 0.961 . S
H14 C12 0.961 . S
H15 C12 0.960 . S
C16 N17 1.342 . S
C16 C20 1.401 . S
C16 C21 1.499 . S
N17 Co0 1.989 . S
N17 C16 1.342 . S
N17 N18 1.388 . S
N18 Co1 1.993 . S
N18 N17 1.388 . S
N18 C19 1.346 . S
C19 N18 1.346 . S
C19 C20 1.396 . S
C19 C29 1.510 . S
C20 C16 1.401 . S
C20 C19 1.396 . S
C21 C16 1.499 . S
C21 H22 0.959 . S
C21 H23 0.960 . S
C21 H24 0.961 . S
H22 C21 0.959 . S
H23 C21 0.960 . S
H24 C21 0.961 . S
O25 Co0 1.967 . S
O25 C33 1.258 . S
O26 Co1 1.941 . S
O26 C33 1.266 . S
H27 C29 0.959 . S
H28 C29 0.961 . S
C29 C19 1.510 . S
C29 H27 0.959 . S
C29 H28 0.961 . S
C29 H30 0.960 . S
H30 C29 0.960 . S
H31 N11 0.862 . S
O32 Co0 1.920 . S
O32 C5 1.289 . S
C33 O25 1.258 . S
C33 O26 1.266 . S
Co34 O37 1.970 . S
Co34 N51 1.989 . S
Co34 O59 1.967 . S
Co34 O66 1.920 . S
Co35 O38 1.966 . S
Co35 N44 2.022 . S
Co35 N52 1.993 . S
Co35 O60 1.941 . S
C36 O37 1.258 . S
C36 O38 1.263 . S
O37 Co34 1.970 . S
O37 C36 1.258 . S
O38 Co35 1.966 . S
O38 C36 1.263 . S
C39 O40 1.235 . S
C39 O66 1.289 . S
O40 C39 1.235 . S
C41 C43 1.400 . S
C41 N44 1.351 . S
C41 C46 1.501 . S
C42 C43 1.387 . S
C42 N45 1.341 . S
C43 C41 1.400 . S
C43 C42 1.387 . S
N44 Co35 2.022 . S
N44 C41 1.351 . S
N44 N45 1.365 . S
N45 C42 1.341 . S
N45 N44 1.365 . S
N45 H65 0.862 . S
C46 C41 1.501 . S
C46 H47 0.961 . S
C46 H48 0.961 . S
C46 H49 0.960 . S
H47 C46 0.961 . S
H48 C46 0.961 . S
H49 C46 0.960 . S
C50 N51 1.342 . S
C50 C54 1.401 . S
C50 C55 1.499 . S
N51 Co34 1.989 . S
N51 C50 1.342 . S
N51 N52 1.388 . S
N52 Co35 1.993 . S
N52 N51 1.388 . S
N52 C53 1.346 . S
C53 N52 1.346 . S
C53 C54 1.396 . S
C53 C63 1.510 . S
C54 C50 1.401 . S
C54 C53 1.396 . S
C55 C50 1.499 . S
C55 H56 0.959 . S
C55 H57 0.960 . S
C55 H58 0.961 . S
H56 C55 0.959 . S
H57 C55 0.960 . S
H58 C55 0.961 . S
O59 Co34 1.967 . S
O59 C67 1.258 . S
O60 Co35 1.941 . S
O60 C67 1.266 . S
H61 C63 0.959 . S
H62 C63 0.961 . S
C63 C53 1.510 . S
C63 H61 0.959 . S
C63 H62 0.961 . S
C63 H64 0.960 . S
H64 C63 0.960 . S
H65 N45 0.862 . S
O66 Co34 1.920 . S
O66 C39 1.289 . S
C67 O59 1.258 . S
C67 O60 1.266 . S
Co68 O71 1.970 . S
Co68 N85 1.989 . S
Co68 O93 1.967 . S
Co68 O100 1.920 . S
Co69 O72 1.966 . S
Co69 N78 2.022 . S
Co69 N86 1.993 . S
Co69 O94 1.941 . S
C70 O71 1.258 . S
C70 O72 1.263 . S
O71 Co68 1.970 . S
O71 C70 1.258 . S
O72 Co69 1.966 . S
O72 C70 1.263 . S
C73 O74 1.235 . S
C73 O100 1.289 . S
O74 C73 1.235 . S
C75 C77 1.400 . S
C75 N78 1.351 . S
C75 C80 1.501 . S
C76 C77 1.387 . S
C76 N79 1.341 . S
C77 C75 1.400 . S
C77 C76 1.387 . S
N78 Co69 2.022 . S
N78 C75 1.351 . S
N78 N79 1.365 . S
N79 C76 1.341 . S
N79 N78 1.365 . S
N79 H99 0.862 . S
C80 C75 1.501 . S
C80 H81 0.961 . S
C80 H82 0.961 . S
C80 H83 0.960 . S
H81 C80 0.961 . S
H82 C80 0.961 . S
H83 C80 0.960 . S
C84 N85 1.342 . S
C84 C88 1.401 . S
C84 C89 1.499 . S
N85 Co68 1.989 . S
N85 C84 1.342 . S
N85 N86 1.388 . S
N86 Co69 1.993 . S
N86 N85 1.388 . S
N86 C87 1.346 . S
C87 N86 1.346 . S
C87 C88 1.396 . S
C87 C97 1.510 . S
C88 C84 1.401 . S
C88 C87 1.396 . S
C89 C84 1.499 . S
C89 H90 0.959 . S
C89 H91 0.960 . S
C89 H92 0.961 . S
H90 C89 0.959 . S
H91 C89 0.960 . S
H92 C89 0.961 . S
O93 Co68 1.967 . S
O93 C101 1.258 . S
O94 Co69 1.941 . S
O94 C101 1.266 . S
H95 C97 0.959 . S
H96 C97 0.961 . S
C97 C87 1.510 . S
C97 H95 0.959 . S
C97 H96 0.961 . S
C97 H98 0.960 . S
H98 C97 0.960 . S
H99 N79 0.862 . S
O100 Co68 1.920 . S
O100 C73 1.289 . S
C101 O93 1.258 . S
C101 O94 1.266 . S
Co102 O105 1.970 . S
Co102 N119 1.989 . S
Co102 O127 1.967 . S
Co102 O134 1.920 . S
Co103 O106 1.966 . S
Co103 N112 2.022 . S
Co103 N120 1.993 . S
Co103 O128 1.941 . S
C104 O105 1.258 . S
C104 O106 1.263 . S
O105 Co102 1.970 . S
O105 C104 1.258 . S
O106 Co103 1.966 . S
O106 C104 1.263 . S
C107 O108 1.235 . S
C107 O134 1.289 . S
O108 C107 1.235 . S
C109 C111 1.400 . S
C109 N112 1.351 . S
C109 C114 1.501 . S
C110 C111 1.387 . S
C110 N113 1.341 . S
C111 C109 1.400 . S
C111 C110 1.387 . S
N112 Co103 2.022 . S
N112 C109 1.351 . S
N112 N113 1.365 . S
N113 C110 1.341 . S
N113 N112 1.365 . S
N113 H133 0.898 . S
C114 C109 1.501 . S
C114 H115 0.961 . S
C114 H116 0.961 . S
C114 H117 0.960 . S
H115 C114 0.961 . S
H116 C114 0.961 . S
H117 C114 0.960 . S
C118 N119 1.342 . S
C118 C122 1.401 . S
C118 C123 1.499 . S
N119 Co102 1.989 . S
N119 C118 1.342 . S
N119 N120 1.388 . S
N120 Co103 1.993 . S
N120 N119 1.388 . S
N120 C121 1.346 . S
C121 N120 1.346 . S
C121 C122 1.396 . S
C121 C131 1.510 . S
C122 C118 1.401 . S
C122 C121 1.396 . S
C123 C118 1.499 . S
C123 H124 0.959 . S
C123 H125 0.960 . S
C123 H126 0.961 . S
H124 C123 0.959 . S
H125 C123 0.960 . S
H126 C123 0.961 . S
O127 Co102 1.967 . S
O127 C135 1.258 . S
O128 Co103 1.941 . S
O128 C135 1.266 . S
H129 C131 0.966 . S
H130 C131 0.961 . S
C131 C121 1.510 . S
C131 H129 0.966 . S
C131 H130 0.961 . S
C131 H132 0.960 . S
H132 C131 0.960 . S
H133 N113 0.898 . S
O134 Co102 1.920 . S
O134 C107 1.289 . S
C135 O127 1.258 . S
C135 O128 1.266 . S
Co136 O139 1.970 . S
Co136 N153 1.989 . S
Co136 O161 1.967 . S
Co136 O168 1.920 . S
Co137 O140 1.966 . S
Co137 N146 2.022 . S
Co137 N154 1.993 . S
Co137 O162 1.941 . S
C138 O139 1.258 . S
C138 O140 1.263 . S
O139 Co136 1.970 . S
O139 C138 1.258 . S
O140 Co137 1.966 . S
O140 C138 1.263 . S
C141 O142 1.235 . S
C141 O168 1.289 . S
O142 C141 1.235 . S
C143 C145 1.400 . S
C143 N146 1.351 . S
C143 C148 1.501 . S
C144 C145 1.387 . S
C144 N147 1.341 . S
C145 C143 1.400 . S
C145 C144 1.387 . S
N146 Co137 2.022 . S
N146 C143 1.351 . S
N146 N147 1.365 . S
N147 C144 1.341 . S
N147 N146 1.365 . S
N147 H167 0.862 . S
C148 C143 1.501 . S
C148 H149 0.961 . S
C148 H150 0.961 . S
C148 H151 0.960 . S
H149 C148 0.961 . S
H150 C148 0.961 . S
H151 C148 0.960 . S
C152 N153 1.342 . S
C152 C156 1.401 . S
C152 C157 1.499 . S
N153 Co136 1.989 . S
N153 C152 1.342 . S
N153 N154 1.388 . S
N154 Co137 1.993 . S
N154 N153 1.388 . S
N154 C155 1.346 . S
C155 N154 1.346 . S
C155 C156 1.396 . S
C155 C165 1.510 . S
C156 C152 1.401 . S
C156 C155 1.396 . S
C157 C152 1.499 . S
C157 H158 0.959 . S
C157 H159 0.960 . S
C157 H160 0.961 . S
H158 C157 0.959 . S
H159 C157 0.960 . S
H160 C157 0.961 . S
O161 Co136 1.967 . S
O161 C169 1.258 . S
O162 Co137 1.941 . S
O162 C169 1.266 . S
H163 C165 0.959 . S
H164 C165 0.961 . S
C165 C155 1.510 . S
C165 H163 0.959 . S
C165 H164 0.961 . S
C165 H166 0.960 . S
H166 C165 0.960 . S
H167 N147 0.862 . S
O168 Co136 1.920 . S
O168 C141 1.289 . S
C169 O161 1.258 . S
C169 O162 1.266 . S
Co170 O173 1.970 . S
Co170 N187 1.989 . S
Co170 O195 1.967 . S
Co170 O202 1.920 . S
Co171 O174 1.966 . S
Co171 N180 2.022 . S
Co171 N188 1.993 . S
Co171 O196 1.941 . S
C172 O173 1.258 . S
C172 O174 1.263 . S
O173 Co170 1.970 . S
O173 C172 1.258 . S
O174 Co171 1.966 . S
O174 C172 1.263 . S
C175 O176 1.235 . S
C175 O202 1.289 . S
O176 C175 1.235 . S
C177 C179 1.400 . S
C177 N180 1.351 . S
C177 C182 1.501 . S
C178 C179 1.387 . S
C178 N181 1.341 . S
C179 C177 1.400 . S
C179 C178 1.387 . S
N180 Co171 2.022 . S
N180 C177 1.351 . S
N180 N181 1.365 . S
N181 C178 1.341 . S
N181 N180 1.365 . S
N181 H201 0.862 . S
C182 C177 1.501 . S
C182 H183 0.961 . S
C182 H184 0.961 . S
C182 H185 0.960 . S
H183 C182 0.961 . S
H184 C182 0.961 . S
H185 C182 0.960 . S
C186 N187 1.342 . S
C186 C190 1.401 . S
C186 C191 1.499 . S
N187 Co170 1.989 . S
N187 C186 1.342 . S
N187 N188 1.388 . S
N188 Co171 1.993 . S
N188 N187 1.388 . S
N188 C189 1.346 . S
C189 N188 1.346 . S
C189 C190 1.396 . S
C189 C199 1.510 . S
C190 C186 1.401 . S
C190 C189 1.396 . S
C191 C186 1.499 . S
C191 H192 0.959 . S
C191 H193 0.960 . S
C191 H194 0.961 . S
H192 C191 0.959 . S
H193 C191 0.960 . S
H194 C191 0.961 . S
O195 Co170 1.967 . S
O195 C203 1.258 . S
O196 Co171 1.941 . S
O196 C203 1.266 . S
H197 C199 0.959 . S
H198 C199 0.961 . S
C199 C189 1.510 . S
C199 H197 0.959 . S
C199 H198 0.961 . S
C199 H200 0.960 . S
H200 C199 0.960 . S
H201 N181 0.862 . S
O202 Co170 1.920 . S
O202 C175 1.289 . S
C203 O195 1.258 . S
C203 O196 1.266 . S
Co204 O207 1.970 . S
Co204 N221 1.989 . S
Co204 O229 1.967 . S
Co204 O236 1.920 . S
Co205 O208 1.966 . S
Co205 N214 2.022 . S
Co205 N222 1.993 . S
Co205 O230 1.941 . S
C206 O207 1.258 . S
C206 O208 1.263 . S
O207 Co204 1.970 . S
O207 C206 1.258 . S
O208 Co205 1.966 . S
O208 C206 1.263 . S
C209 O210 1.235 . S
C209 O236 1.289 . S
O210 C209 1.235 . S
C211 C213 1.400 . S
C211 N214 1.351 . S
C211 C216 1.501 . S
C212 C213 1.387 . S
C212 N215 1.341 . S
C213 C211 1.400 . S
C213 C212 1.387 . S
N214 Co205 2.022 . S
N214 C211 1.351 . S
N214 N215 1.365 . S
N215 C212 1.341 . S
N215 N214 1.365 . S
N215 H235 0.862 . S
C216 C211 1.501 . S
C216 H217 0.961 . S
C216 H218 0.961 . S
C216 H219 0.960 . S
H217 C216 0.961 . S
H218 C216 0.961 . S
H219 C216 0.960 . S
C220 N221 1.342 . S
C220 C224 1.401 . S
C220 C225 1.499 . S
N221 Co204 1.989 . S
N221 C220 1.342 . S
N221 N222 1.388 . S
N222 Co205 1.993 . S
N222 N221 1.388 . S
N222 C223 1.346 . S
C223 N222 1.346 . S
C223 C224 1.396 . S
C223 C233 1.510 . S
C224 C220 1.401 . S
C224 C223 1.396 . S
C225 C220 1.499 . S
C225 H226 0.959 . S
C225 H227 0.960 . S
C225 H228 0.961 . S
H226 C225 0.959 . S
H227 C225 0.960 . S
H228 C225 0.961 . S
O229 Co204 1.967 . S
O229 C237 1.258 . S
O230 Co205 1.941 . S
O230 C237 1.266 . S
H231 C233 0.959 . S
H232 C233 0.961 . S
C233 C223 1.510 . S
C233 H231 0.959 . S
C233 H232 0.961 . S
C233 H234 0.960 . S
H234 C233 0.960 . S
H235 N215 0.862 . S
O236 Co204 1.920 . S
O236 C209 1.289 . S
C237 O229 1.258 . S
C237 O230 1.266 . S
Co238 O241 1.970 . S
Co238 N255 1.989 . S
Co238 O263 1.967 . S
Co238 O270 1.920 . S
Co239 O242 1.966 . S
Co239 N248 2.022 . S
Co239 N256 1.993 . S
Co239 O264 1.941 . S
C240 O241 1.258 . S
C240 O242 1.263 . S
O241 Co238 1.970 . S
O241 C240 1.258 . S
O242 Co239 1.966 . S
O242 C240 1.263 . S
C243 O244 1.235 . S
C243 O270 1.289 . S
O244 C243 1.235 . S
C245 C247 1.400 . S
C245 N248 1.351 . S
C245 C250 1.501 . S
C246 C247 1.387 . S
C246 N249 1.341 . S
C247 C245 1.400 . S
C247 C246 1.387 . S
N248 Co239 2.022 . S
N248 C245 1.351 . S
N248 N249 1.365 . S
N249 C246 1.341 . S
N249 N248 1.365 . S
N249 H269 0.898 . S
C250 C245 1.501 . S
C250 H251 0.961 . S
C250 H252 0.961 . S
C250 H253 0.960 . S
H251 C250 0.961 . S
H252 C250 0.961 . S
H253 C250 0.960 . S
C254 N255 1.342 . S
C254 C258 1.401 . S
C254 C259 1.499 . S
N255 Co238 1.989 . S
N255 C254 1.342 . S
N255 N256 1.388 . S
N256 Co239 1.993 . S
N256 N255 1.388 . S
N256 C257 1.346 . S
C257 N256 1.346 . S
C257 C258 1.396 . S
C257 C267 1.510 . S
C258 C254 1.401 . S
C258 C257 1.396 . S
C259 C254 1.499 . S
C259 H260 0.959 . S
C259 H261 0.960 . S
C259 H262 0.961 . S
H260 C259 0.959 . S
H261 C259 0.960 . S
H262 C259 0.961 . S
O263 Co238 1.967 . S
O263 C271 1.258 . S
O264 Co239 1.941 . S
O264 C271 1.266 . S
H265 C267 0.966 . S
H266 C267 0.961 . S
C267 C257 1.510 . S
C267 H265 0.966 . S
C267 H266 0.961 . S
C267 H268 0.960 . S
H268 C267 0.960 . S
H269 N249 0.898 . S
O270 Co238 1.920 . S
O270 C243 1.289 . S
C271 O263 1.258 . S
C271 O264 1.266 . S
Co272 O275 1.970 . S
Co272 N289 1.989 . S
Co272 O297 1.967 . S
Co272 O304 1.920 . S
Co273 O276 1.966 . S
Co273 N282 2.022 . S
Co273 N290 1.993 . S
Co273 O298 1.941 . S
C274 O275 1.258 . S
C274 O276 1.263 . S
O275 Co272 1.970 . S
O275 C274 1.258 . S
O276 Co273 1.966 . S
O276 C274 1.263 . S
C277 O278 1.235 . S
C277 O304 1.289 . S
O278 C277 1.235 . S
C279 C281 1.400 . S
C279 N282 1.351 . S
C279 C284 1.501 . S
C280 C281 1.387 . S
C280 N283 1.341 . S
C281 C279 1.400 . S
C281 C280 1.387 . S
N282 Co273 2.022 . S
N282 C279 1.351 . S
N282 N283 1.365 . S
N283 C280 1.341 . S
N283 N282 1.365 . S
N283 H303 0.862 . S
C284 C279 1.501 . S
C284 H285 0.961 . S
C284 H286 0.961 . S
C284 H287 0.960 . S
H285 C284 0.961 . S
H286 C284 0.961 . S
H287 C284 0.960 . S
C288 N289 1.342 . S
C288 C292 1.401 . S
C288 C293 1.499 . S
N289 Co272 1.989 . S
N289 C288 1.342 . S
N289 N290 1.388 . S
N290 Co273 1.993 . S
N290 N289 1.388 . S
N290 C291 1.346 . S
C291 N290 1.346 . S
C291 C292 1.396 . S
C291 C301 1.510 . S
C292 C288 1.401 . S
C292 C291 1.396 . S
C293 C288 1.499 . S
C293 H294 0.959 . S
C293 H295 0.960 . S
C293 H296 0.961 . S
H294 C293 0.959 . S
H295 C293 0.960 . S
H296 C293 0.961 . S
O297 Co272 1.967 . S
O297 C305 1.258 . S
O298 Co273 1.941 . S
O298 C305 1.266 . S
H299 C301 0.959 . S
H300 C301 0.961 . S
C301 C291 1.510 . S
C301 H299 0.959 . S
C301 H300 0.961 . S
C301 H302 0.960 . S
H302 C301 0.960 . S
H303 N283 0.862 . S
O304 Co272 1.920 . S
O304 C277 1.289 . S
C305 O297 1.258 . S
C305 O298 1.266 . S
Co306 O309 1.970 . S
Co306 N323 1.989 . S
Co306 O331 1.967 . S
Co306 O338 1.920 . S
Co307 O310 1.966 . S
Co307 N316 2.022 . S
Co307 N324 1.993 . S
Co307 O332 1.941 . S
C308 O309 1.258 . S
C308 O310 1.263 . S
O309 Co306 1.970 . S
O309 C308 1.258 . S
O310 Co307 1.966 . S
O310 C308 1.263 . S
C311 O312 1.235 . S
C311 O338 1.289 . S
O312 C311 1.235 . S
C313 C315 1.400 . S
C313 N316 1.351 . S
C313 C318 1.501 . S
C314 C315 1.387 . S
C314 N317 1.341 . S
C315 C313 1.400 . S
C315 C314 1.387 . S
N316 Co307 2.022 . S
N316 C313 1.351 . S
N316 N317 1.365 . S
N317 C314 1.341 . S
N317 N316 1.365 . S
N317 H337 0.898 . S
C318 C313 1.501 . S
C318 H319 0.961 . S
C318 H320 0.961 . S
C318 H321 0.960 . S
H319 C318 0.961 . S
H320 C318 0.961 . S
H321 C318 0.960 . S
C322 N323 1.342 . S
C322 C326 1.401 . S
C322 C327 1.499 . S
N323 Co306 1.989 . S
N323 C322 1.342 . S
N323 N324 1.388 . S
N324 Co307 1.993 . S
N324 N323 1.388 . S
N324 C325 1.346 . S
C325 N324 1.346 . S
C325 C326 1.396 . S
C325 C335 1.510 . S
C326 C322 1.401 . S
C326 C325 1.396 . S
C327 C322 1.499 . S
C327 H328 0.959 . S
C327 H329 0.960 . S
C327 H330 0.961 . S
H328 C327 0.959 . S
H329 C327 0.960 . S
H330 C327 0.961 . S
O331 Co306 1.967 . S
O331 C339 1.258 . S
O332 Co307 1.941 . S
O332 C339 1.266 . S
H333 C335 0.966 . S
H334 C335 0.961 . S
C335 C325 1.510 . S
C335 H333 0.966 . S
C335 H334 0.961 . S
C335 H336 0.960 . S
H336 C335 0.960 . S
H337 N317 0.898 . S
O338 Co306 1.920 . S
O338 C311 1.289 . S
C339 O331 1.258 . S
C339 O332 1.266 . S
Co340 O343 1.970 . S
Co340 N357 1.989 . S
Co340 O365 1.967 . S
Co340 O372 1.920 . S
Co341 O344 1.966 . S
Co341 N350 2.022 . S
Co341 N358 1.993 . S
Co341 O366 1.941 . S
C342 O343 1.258 . S
C342 O344 1.263 . S
O343 Co340 1.970 . S
O343 C342 1.258 . S
O344 Co341 1.966 . S
O344 C342 1.263 . S
C345 O346 1.235 . S
C345 O372 1.289 . S
O346 C345 1.235 . S
C347 C349 1.400 . S
C347 N350 1.351 . S
C347 C352 1.501 . S
C348 C349 1.387 . S
C348 N351 1.341 . S
C349 C347 1.400 . S
C349 C348 1.387 . S
N350 Co341 2.022 . S
N350 C347 1.351 . S
N350 N351 1.365 . S
N351 C348 1.341 . S
N351 N350 1.365 . S
N351 H371 0.862 . S
C352 C347 1.501 . S
C352 H353 0.961 . S
C352 H354 0.961 . S
C352 H355 0.960 . S
H353 C352 0.961 . S
H354 C352 0.961 . S
H355 C352 0.960 . S
C356 N357 1.342 . S
C356 C360 1.401 . S
C356 C361 1.499 . S
N357 Co340 1.989 . S
N357 C356 1.342 . S
N357 N358 1.388 . S
N358 Co341 1.993 . S
N358 N357 1.388 . S
N358 C359 1.346 . S
C359 N358 1.346 . S
C359 C360 1.396 . S
C359 C369 1.510 . S
C360 C356 1.401 . S
C360 C359 1.396 . S
C361 C356 1.499 . S
C361 H362 0.959 . S
C361 H363 0.960 . S
C361 H364 0.961 . S
H362 C361 0.959 . S
H363 C361 0.960 . S
H364 C361 0.961 . S
O365 Co340 1.967 . S
O365 C373 1.258 . S
O366 Co341 1.941 . S
O366 C373 1.266 . S
H367 C369 0.959 . S
H368 C369 0.961 . S
C369 C359 1.510 . S
C369 H367 0.959 . S
C369 H368 0.961 . S
C369 H370 0.960 . S
H370 C369 0.960 . S
H371 N351 0.862 . S
O372 Co340 1.920 . S
O372 C345 1.289 . S
C373 O365 1.258 . S
C373 O366 1.266 . S
Co374 O377 1.970 . S
Co374 N391 1.989 . S
Co374 O399 1.967 . S
Co374 O406 1.920 . S
Co375 O378 1.966 . S
Co375 N384 2.022 . S
Co375 N392 1.993 . S
Co375 O400 1.941 . S
C376 O377 1.258 . S
C376 O378 1.263 . S
O377 Co374 1.970 . S
O377 C376 1.258 . S
O378 Co375 1.966 . S
O378 C376 1.263 . S
C379 O380 1.235 . S
C379 O406 1.289 . S
O380 C379 1.235 . S
C381 C383 1.400 . S
C381 N384 1.351 . S
C381 C386 1.501 . S
C382 C383 1.387 . S
C382 N385 1.341 . S
C383 C381 1.400 . S
C383 C382 1.387 . S
N384 Co375 2.022 . S
N384 C381 1.351 . S
N384 N385 1.365 . S
N385 C382 1.341 . S
N385 N384 1.365 . S
N385 H405 0.898 . S
C386 C381 1.501 . S
C386 H387 0.961 . S
C386 H388 0.961 . S
C386 H389 0.960 . S
H387 C386 0.961 . S
H388 C386 0.961 . S
H389 C386 0.960 . S
C390 N391 1.342 . S
C390 C394 1.401 . S
C390 C395 1.499 . S
N391 Co374 1.989 . S
N391 C390 1.342 . S
N391 N392 1.388 . S
N392 Co375 1.993 . S
N392 N391 1.388 . S
N392 C393 1.346 . S
C393 N392 1.346 . S
C393 C394 1.396 . S
C393 C403 1.510 . S
C394 C390 1.401 . S
C394 C393 1.396 . S
C395 C390 1.499 . S
C395 H396 0.959 . S
C395 H397 0.960 . S
C395 H398 0.961 . S
H396 C395 0.959 . S
H397 C395 0.960 . S
H398 C395 0.961 . S
O399 Co374 1.967 . S
O399 C407 1.258 . S
O400 Co375 1.941 . S
O400 C407 1.266 . S
H401 C403 0.966 . S
H402 C403 0.961 . S
C403 C393 1.510 . S
C403 H401 0.966 . S
C403 H402 0.961 . S
C403 H404 0.960 . S
H404 C403 0.960 . S
H405 N385 0.898 . S
O406 Co374 1.920 . S
O406 C379 1.289 . S
C407 O399 1.258 . S
C407 O400 1.266 . S
Co408 O411 1.970 . S
Co408 N425 1.989 . S
Co408 O433 1.967 . S
Co408 O440 1.920 . S
Co409 O412 1.966 . S
Co409 N418 2.022 . S
Co409 N426 1.993 . S
Co409 O434 1.941 . S
C410 O411 1.258 . S
C410 O412 1.263 . S
O411 Co408 1.970 . S
O411 C410 1.258 . S
O412 Co409 1.966 . S
O412 C410 1.263 . S
C413 O414 1.235 . S
C413 O440 1.289 . S
O414 C413 1.235 . S
C415 C417 1.400 . S
C415 N418 1.351 . S
C415 C420 1.501 . S
C416 C417 1.387 . S
C416 N419 1.341 . S
C417 C415 1.400 . S
C417 C416 1.387 . S
N418 Co409 2.022 . S
N418 C415 1.351 . S
N418 N419 1.365 . S
N419 C416 1.341 . S
N419 N418 1.365 . S
N419 H439 0.862 . S
C420 C415 1.501 . S
C420 H421 0.961 . S
C420 H422 0.961 . S
C420 H423 0.960 . S
H421 C420 0.961 . S
H422 C420 0.961 . S
H423 C420 0.960 . S
C424 N425 1.342 . S
C424 C428 1.401 . S
C424 C429 1.499 . S
N425 Co408 1.989 . S
N425 C424 1.342 . S
N425 N426 1.388 . S
N426 Co409 1.993 . S
N426 N425 1.388 . S
N426 C427 1.346 . S
C427 N426 1.346 . S
C427 C428 1.396 . S
C427 C437 1.510 . S
C428 C424 1.401 . S
C428 C427 1.396 . S
C429 C424 1.499 . S
C429 H430 0.959 . S
C429 H431 0.960 . S
C429 H432 0.961 . S
H430 C429 0.959 . S
H431 C429 0.960 . S
H432 C429 0.961 . S
O433 Co408 1.967 . S
O433 C441 1.258 . S
O434 Co409 1.941 . S
O434 C441 1.266 . S
H435 C437 0.959 . S
H436 C437 0.961 . S
C437 C427 1.510 . S
C437 H435 0.959 . S
C437 H436 0.961 . S
C437 H438 0.960 . S
H438 C437 0.960 . S
H439 N419 0.862 . S
O440 Co408 1.920 . S
O440 C413 1.289 . S
C441 O433 1.258 . S
C441 O434 1.266 . S
Co442 O445 1.970 . S
Co442 N459 1.989 . S
Co442 O467 1.967 . S
Co442 O474 1.920 . S
Co443 O446 1.966 . S
Co443 N452 2.022 . S
Co443 N460 1.993 . S
Co443 O468 1.941 . S
C444 O445 1.258 . S
C444 O446 1.263 . S
O445 Co442 1.970 . S
O445 C444 1.258 . S
O446 Co443 1.966 . S
O446 C444 1.263 . S
C447 O448 1.235 . S
C447 O474 1.289 . S
O448 C447 1.235 . S
C449 C451 1.400 . S
C449 N452 1.351 . S
C449 C454 1.501 . S
C450 C451 1.387 . S
C450 N453 1.341 . S
C451 C449 1.400 . S
C451 C450 1.387 . S
N452 Co443 2.022 . S
N452 C449 1.351 . S
N452 N453 1.365 . S
N453 C450 1.341 . S
N453 N452 1.365 . S
N453 H473 0.898 . S
C454 C449 1.501 . S
C454 H455 0.961 . S
C454 H456 0.961 . S
C454 H457 0.960 . S
H455 C454 0.961 . S
H456 C454 0.961 . S
H457 C454 0.960 . S
C458 N459 1.342 . S
C458 C462 1.401 . S
C458 C463 1.499 . S
N459 Co442 1.989 . S
N459 C458 1.342 . S
N459 N460 1.388 . S
N460 Co443 1.993 . S
N460 N459 1.388 . S
N460 C461 1.346 . S
C461 N460 1.346 . S
C461 C462 1.396 . S
C461 C471 1.510 . S
C462 C458 1.401 . S
C462 C461 1.396 . S
C463 C458 1.499 . S
C463 H464 0.959 . S
C463 H465 0.960 . S
C463 H466 0.961 . S
H464 C463 0.959 . S
H465 C463 0.960 . S
H466 C463 0.961 . S
O467 Co442 1.967 . S
O467 C475 1.258 . S
O468 Co443 1.941 . S
O468 C475 1.266 . S
H469 C471 0.966 . S
H470 C471 0.961 . S
C471 C461 1.510 . S
C471 H469 0.966 . S
C471 H470 0.961 . S
C471 H472 0.960 . S
H472 C471 0.960 . S
H473 N453 0.898 . S
O474 Co442 1.920 . S
O474 C447 1.289 . S
C475 O467 1.258 . S
C475 O468 1.266 . S
Co476 O479 1.970 . S
Co476 N493 1.989 . S
Co476 O501 1.967 . S
Co476 O508 1.920 . S
Co477 O480 1.966 . S
Co477 N486 2.022 . S
Co477 N494 1.993 . S
Co477 O502 1.941 . S
C478 O479 1.258 . S
C478 O480 1.263 . S
O479 Co476 1.970 . S
O479 C478 1.258 . S
O480 Co477 1.966 . S
O480 C478 1.263 . S
C481 O482 1.235 . S
C481 O508 1.289 . S
O482 C481 1.235 . S
C483 C485 1.400 . S
C483 N486 1.351 . S
C483 C488 1.501 . S
C484 C485 1.387 . S
C484 N487 1.341 . S
C485 C483 1.400 . S
C485 C484 1.387 . S
N486 Co477 2.022 . S
N486 C483 1.351 . S
N486 N487 1.365 . S
N487 C484 1.341 . S
N487 N486 1.365 . S
N487 H507 0.862 . S
C488 C483 1.501 . S
C488 H489 0.961 . S
C488 H490 0.961 . S
C488 H491 0.960 . S
H489 C488 0.961 . S
H490 C488 0.961 . S
H491 C488 0.960 . S
C492 N493 1.342 . S
C492 C496 1.401 . S
C492 C497 1.499 . S
N493 Co476 1.989 . S
N493 C492 1.342 . S
N493 N494 1.388 . S
N494 Co477 1.993 . S
N494 N493 1.388 . S
N494 C495 1.346 . S
C495 N494 1.346 . S
C495 C496 1.396 . S
C495 C505 1.510 . S
C496 C492 1.401 . S
C496 C495 1.396 . S
C497 C492 1.499 . S
C497 H498 0.959 . S
C497 H499 0.960 . S
C497 H500 0.961 . S
H498 C497 0.959 . S
H499 C497 0.960 . S
H500 C497 0.961 . S
O501 Co476 1.967 . S
O501 C509 1.258 . S
O502 Co477 1.941 . S
O502 C509 1.266 . S
H503 C505 0.959 . S
H504 C505 0.961 . S
C505 C495 1.510 . S
C505 H503 0.959 . S
C505 H504 0.961 . S
C505 H506 0.960 . S
H506 C505 0.960 . S
H507 N487 0.862 . S
O508 Co476 1.920 . S
O508 C481 1.289 . S
C509 O501 1.258 . S
C509 O502 1.266 . S
Co510 O513 1.970 . S
Co510 N527 1.989 . S
Co510 O535 1.967 . S
Co510 O542 1.920 . S
Co511 O514 1.966 . S
Co511 N520 2.022 . S
Co511 N528 1.993 . S
Co511 O536 1.941 . S
C512 O513 1.258 . S
C512 O514 1.263 . S
O513 Co510 1.970 . S
O513 C512 1.258 . S
O514 Co511 1.966 . S
O514 C512 1.263 . S
C515 O516 1.235 . S
C515 O542 1.289 . S
O516 C515 1.235 . S
C517 C519 1.400 . S
C517 N520 1.351 . S
C517 C522 1.501 . S
C518 C519 1.387 . S
C518 N521 1.341 . S
C519 C517 1.400 . S
C519 C518 1.387 . S
N520 Co511 2.022 . S
N520 C517 1.351 . S
N520 N521 1.365 . S
N521 C518 1.341 . S
N521 N520 1.365 . S
N521 H541 0.898 . S
C522 C517 1.501 . S
C522 H523 0.961 . S
C522 H524 0.961 . S
C522 H525 0.960 . S
H523 C522 0.961 . S
H524 C522 0.961 . S
H525 C522 0.960 . S
C526 N527 1.342 . S
C526 C530 1.401 . S
C526 C531 1.499 . S
N527 Co510 1.989 . S
N527 C526 1.342 . S
N527 N528 1.388 . S
N528 Co511 1.993 . S
N528 N527 1.388 . S
N528 C529 1.346 . S
C529 N528 1.346 . S
C529 C530 1.396 . S
C529 C539 1.510 . S
C530 C526 1.401 . S
C530 C529 1.396 . S
C531 C526 1.499 . S
C531 H532 0.959 . S
C531 H533 0.960 . S
C531 H534 0.961 . S
H532 C531 0.959 . S
H533 C531 0.960 . S
H534 C531 0.961 . S
O535 Co510 1.967 . S
O535 C543 1.258 . S
O536 Co511 1.941 . S
O536 C543 1.266 . S
H537 C539 0.966 . S
H538 C539 0.961 . S
C539 C529 1.510 . S
C539 H537 0.966 . S
C539 H538 0.961 . S
C539 H540 0.960 . S
H540 C539 0.960 . S
H541 N521 0.898 . S
O542 Co510 1.920 . S
O542 C515 1.289 . S
C543 O535 1.258 . S
C543 O536 1.266 . S
Co544 O547 1.970 . S
Co544 N561 1.989 . S
Co544 O569 1.967 . S
Co544 O576 1.920 . S
Co545 O548 1.966 . S
Co545 N554 2.022 . S
Co545 N562 1.993 . S
Co545 O570 1.941 . S
C546 O547 1.258 . S
C546 O548 1.263 . S
O547 Co544 1.970 . S
O547 C546 1.258 . S
O548 Co545 1.966 . S
O548 C546 1.263 . S
C549 O550 1.235 . S
C549 O576 1.289 . S
O550 C549 1.235 . S
C551 C553 1.400 . S
C551 N554 1.351 . S
C551 C556 1.501 . S
C552 C553 1.387 . S
C552 N555 1.341 . S
C553 C551 1.400 . S
C553 C552 1.387 . S
N554 Co545 2.022 . S
N554 C551 1.351 . S
N554 N555 1.365 . S
N555 C552 1.341 . S
N555 N554 1.365 . S
N555 H575 0.862 . S
C556 C551 1.501 . S
C556 H557 0.961 . S
C556 H558 0.961 . S
C556 H559 0.960 . S
H557 C556 0.961 . S
H558 C556 0.961 . S
H559 C556 0.960 . S
C560 N561 1.342 . S
C560 C564 1.401 . S
C560 C565 1.499 . S
N561 Co544 1.989 . S
N561 C560 1.342 . S
N561 N562 1.388 . S
N562 Co545 1.993 . S
N562 N561 1.388 . S
N562 C563 1.346 . S
C563 N562 1.346 . S
C563 C564 1.396 . S
C563 C573 1.510 . S
C564 C560 1.401 . S
C564 C563 1.396 . S
C565 C560 1.499 . S
C565 H566 0.959 . S
C565 H567 0.960 . S
C565 H568 0.961 . S
H566 C565 0.959 . S
H567 C565 0.960 . S
H568 C565 0.961 . S
O569 Co544 1.967 . S
O569 C577 1.258 . S
O570 Co545 1.941 . S
O570 C577 1.266 . S
H571 C573 0.959 . S
H572 C573 0.961 . S
C573 C563 1.510 . S
C573 H571 0.959 . S
C573 H572 0.961 . S
C573 H574 0.960 . S
H574 C573 0.960 . S
H575 N555 0.862 . S
O576 Co544 1.920 . S
O576 C549 1.289 . S
C577 O569 1.258 . S
C577 O570 1.266 . S
Co578 O581 1.970 . S
Co578 N595 1.989 . S
Co578 O603 1.967 . S
Co578 O610 1.920 . S
Co579 O582 1.966 . S
Co579 N588 2.022 . S
Co579 N596 1.993 . S
Co579 O604 1.941 . S
C580 O581 1.258 . S
C580 O582 1.263 . S
O581 Co578 1.970 . S
O581 C580 1.258 . S
O582 Co579 1.966 . S
O582 C580 1.263 . S
C583 O584 1.235 . S
C583 O610 1.289 . S
O584 C583 1.235 . S
C585 C587 1.400 . S
C585 N588 1.351 . S
C585 C590 1.501 . S
C586 C587 1.387 . S
C586 N589 1.341 . S
C587 C585 1.400 . S
C587 C586 1.387 . S
N588 Co579 2.022 . S
N588 C585 1.351 . S
N588 N589 1.365 . S
N589 C586 1.341 . S
N589 N588 1.365 . S
N589 H609 0.862 . S
C590 C585 1.501 . S
C590 H591 0.961 . S
C590 H592 0.961 . S
C590 H593 0.960 . S
H591 C590 0.961 . S
H592 C590 0.961 . S
H593 C590 0.960 . S
C594 N595 1.342 . S
C594 C598 1.401 . S
C594 C599 1.499 . S
N595 Co578 1.989 . S
N595 C594 1.342 . S
N595 N596 1.388 . S
N596 Co579 1.993 . S
N596 N595 1.388 . S
N596 C597 1.346 . S
C597 N596 1.346 . S
C597 C598 1.396 . S
C597 C607 1.510 . S
C598 C594 1.401 . S
C598 C597 1.396 . S
C599 C594 1.499 . S
C599 H600 0.959 . S
C599 H601 0.960 . S
C599 H602 0.961 . S
H600 C599 0.959 . S
H601 C599 0.960 . S
H602 C599 0.961 . S
O603 Co578 1.967 . S
O603 C611 1.258 . S
O604 Co579 1.941 . S
O604 C611 1.266 . S
H605 C607 0.959 . S
H606 C607 0.961 . S
C607 C597 1.510 . S
C607 H605 0.959 . S
C607 H606 0.961 . S
C607 H608 0.960 . S
H608 C607 0.960 . S
H609 N589 0.862 . S
O610 Co578 1.920 . S
O610 C583 1.289 . S
C611 O603 1.258 . S
C611 O604 1.266 . S
Co612 O615 1.970 . S
Co612 N629 1.989 . S
Co612 O637 1.967 . S
Co612 O644 1.920 . S
Co613 O616 1.966 . S
Co613 N622 2.022 . S
Co613 N630 1.993 . S
Co613 O638 1.941 . S
C614 O615 1.258 . S
C614 O616 1.263 . S
O615 Co612 1.970 . S
O615 C614 1.258 . S
O616 Co613 1.966 . S
O616 C614 1.263 . S
C617 O618 1.235 . S
C617 O644 1.289 . S
O618 C617 1.235 . S
C619 C621 1.400 . S
C619 N622 1.351 . S
C619 C624 1.501 . S
C620 C621 1.387 . S
C620 N623 1.341 . S
C621 C619 1.400 . S
C621 C620 1.387 . S
N622 Co613 2.022 . S
N622 C619 1.351 . S
N622 N623 1.365 . S
N623 C620 1.341 . S
N623 N622 1.365 . S
N623 H643 0.898 . S
C624 C619 1.501 . S
C624 H625 0.961 . S
C624 H626 0.961 . S
C624 H627 0.960 . S
H625 C624 0.961 . S
H626 C624 0.961 . S
H627 C624 0.960 . S
C628 N629 1.342 . S
C628 C632 1.401 . S
C628 C633 1.499 . S
N629 Co612 1.989 . S
N629 C628 1.342 . S
N629 N630 1.388 . S
N630 Co613 1.993 . S
N630 N629 1.388 . S
N630 C631 1.346 . S
C631 N630 1.346 . S
C631 C632 1.396 . S
C631 C641 1.510 . S
C632 C628 1.401 . S
C632 C631 1.396 . S
C633 C628 1.499 . S
C633 H634 0.959 . S
C633 H635 0.960 . S
C633 H636 0.961 . S
H634 C633 0.959 . S
H635 C633 0.960 . S
H636 C633 0.961 . S
O637 Co612 1.967 . S
O637 C645 1.258 . S
O638 Co613 1.941 . S
O638 C645 1.266 . S
H639 C641 0.966 . S
H640 C641 0.961 . S
C641 C631 1.510 . S
C641 H639 0.966 . S
C641 H640 0.961 . S
C641 H642 0.960 . S
H642 C641 0.960 . S
H643 N623 0.898 . S
O644 Co612 1.920 . S
O644 C617 1.289 . S
C645 O637 1.258 . S
C645 O638 1.266 . S
Co646 O649 1.970 . S
Co646 N663 1.989 . S
Co646 O671 1.967 . S
Co646 O678 1.920 . S
Co647 O650 1.966 . S
Co647 N656 2.022 . S
Co647 N664 1.993 . S
Co647 O672 1.941 . S
C648 O649 1.258 . S
C648 O650 1.263 . S
O649 Co646 1.970 . S
O649 C648 1.258 . S
O650 Co647 1.966 . S
O650 C648 1.263 . S
C651 O652 1.235 . S
C651 O678 1.289 . S
O652 C651 1.235 . S
C653 C655 1.400 . S
C653 N656 1.351 . S
C653 C658 1.501 . S
C654 C655 1.387 . S
C654 N657 1.341 . S
C655 C653 1.400 . S
C655 C654 1.387 . S
N656 Co647 2.022 . S
N656 C653 1.351 . S
N656 N657 1.365 . S
N657 C654 1.341 . S
N657 N656 1.365 . S
N657 H677 0.862 . S
C658 C653 1.501 . S
C658 H659 0.961 . S
C658 H660 0.961 . S
C658 H661 0.960 . S
H659 C658 0.961 . S
H660 C658 0.961 . S
H661 C658 0.960 . S
C662 N663 1.342 . S
C662 C666 1.401 . S
C662 C667 1.499 . S
N663 Co646 1.989 . S
N663 C662 1.342 . S
N663 N664 1.388 . S
N664 Co647 1.993 . S
N664 N663 1.388 . S
N664 C665 1.346 . S
C665 N664 1.346 . S
C665 C666 1.396 . S
C665 C675 1.510 . S
C666 C662 1.401 . S
C666 C665 1.396 . S
C667 C662 1.499 . S
C667 H668 0.959 . S
C667 H669 0.960 . S
C667 H670 0.961 . S
H668 C667 0.959 . S
H669 C667 0.960 . S
H670 C667 0.961 . S
O671 Co646 1.967 . S
O671 C679 1.258 . S
O672 Co647 1.941 . S
O672 C679 1.266 . S
H673 C675 0.959 . S
H674 C675 0.961 . S
C675 C665 1.510 . S
C675 H673 0.959 . S
C675 H674 0.961 . S
C675 H676 0.960 . S
H676 C675 0.960 . S
H677 N657 0.862 . S
O678 Co646 1.920 . S
O678 C651 1.289 . S
C679 O671 1.258 . S
C679 O672 1.266 . S
Co680 O683 1.970 . S
Co680 N697 1.989 . S
Co680 O705 1.967 . S
Co680 O712 1.920 . S
Co681 O684 1.966 . S
Co681 N690 2.022 . S
Co681 N698 1.993 . S
Co681 O706 1.941 . S
C682 O683 1.258 . S
C682 O684 1.263 . S
O683 Co680 1.970 . S
O683 C682 1.258 . S
O684 Co681 1.966 . S
O684 C682 1.263 . S
C685 O686 1.235 . S
C685 O712 1.289 . S
O686 C685 1.235 . S
C687 C689 1.400 . S
C687 N690 1.351 . S
C687 C692 1.501 . S
C688 C689 1.387 . S
C688 N691 1.341 . S
C689 C687 1.400 . S
C689 C688 1.387 . S
N690 Co681 2.022 . S
N690 C687 1.351 . S
N690 N691 1.365 . S
N691 C688 1.341 . S
N691 N690 1.365 . S
N691 H711 0.898 . S
C692 C687 1.501 . S
C692 H693 0.961 . S
C692 H694 0.961 . S
C692 H695 0.960 . S
H693 C692 0.961 . S
H694 C692 0.961 . S
H695 C692 0.960 . S
C696 N697 1.342 . S
C696 C700 1.401 . S
C696 C701 1.499 . S
N697 Co680 1.989 . S
N697 C696 1.342 . S
N697 N698 1.388 . S
N698 Co681 1.993 . S
N698 N697 1.388 . S
N698 C699 1.346 . S
C699 N698 1.346 . S
C699 C700 1.396 . S
C699 C709 1.510 . S
C700 C696 1.401 . S
C700 C699 1.396 . S
C701 C696 1.499 . S
C701 H702 0.959 . S
C701 H703 0.960 . S
C701 H704 0.961 . S
H702 C701 0.959 . S
H703 C701 0.960 . S
H704 C701 0.961 . S
O705 Co680 1.967 . S
O705 C713 1.258 . S
O706 Co681 1.941 . S
O706 C713 1.266 . S
H707 C709 0.966 . S
H708 C709 0.961 . S
C709 C699 1.510 . S
C709 H707 0.966 . S
C709 H708 0.961 . S
C709 H710 0.960 . S
H710 C709 0.960 . S
H711 N691 0.898 . S
O712 Co680 1.920 . S
O712 C685 1.289 . S
C713 O705 1.258 . S
C713 O706 1.266 . S
Co714 O717 1.970 . S
Co714 N731 1.989 . S
Co714 O739 1.967 . S
Co714 O746 1.920 . S
Co715 O718 1.966 . S
Co715 N724 2.022 . S
Co715 N732 1.993 . S
Co715 O740 1.941 . S
C716 O717 1.258 . S
C716 O718 1.263 . S
O717 Co714 1.970 . S
O717 C716 1.258 . S
O718 Co715 1.966 . S
O718 C716 1.263 . S
C719 O720 1.235 . S
C719 O746 1.289 . S
O720 C719 1.235 . S
C721 C723 1.400 . S
C721 N724 1.351 . S
C721 C726 1.501 . S
C722 C723 1.387 . S
C722 N725 1.341 . S
C723 C721 1.400 . S
C723 C722 1.387 . S
N724 Co715 2.022 . S
N724 C721 1.351 . S
N724 N725 1.365 . S
N725 C722 1.341 . S
N725 N724 1.365 . S
N725 H745 0.862 . S
C726 C721 1.501 . S
C726 H727 0.961 . S
C726 H728 0.961 . S
C726 H729 0.960 . S
H727 C726 0.961 . S
H728 C726 0.961 . S
H729 C726 0.960 . S
C730 N731 1.342 . S
C730 C734 1.401 . S
C730 C735 1.499 . S
N731 Co714 1.989 . S
N731 C730 1.342 . S
N731 N732 1.388 . S
N732 Co715 1.993 . S
N732 N731 1.388 . S
N732 C733 1.346 . S
C733 N732 1.346 . S
C733 C734 1.396 . S
C733 C743 1.510 . S
C734 C730 1.401 . S
C734 C733 1.396 . S
C735 C730 1.499 . S
C735 H736 0.959 . S
C735 H737 0.960 . S
C735 H738 0.961 . S
H736 C735 0.959 . S
H737 C735 0.960 . S
H738 C735 0.961 . S
O739 Co714 1.967 . S
O739 C747 1.258 . S
O740 Co715 1.941 . S
O740 C747 1.266 . S
H741 C743 0.959 . S
H742 C743 0.961 . S
C743 C733 1.510 . S
C743 H741 0.959 . S
C743 H742 0.961 . S
C743 H744 0.960 . S
H744 C743 0.960 . S
H745 N725 0.862 . S
O746 Co714 1.920 . S
O746 C719 1.289 . S
C747 O739 1.258 . S
C747 O740 1.266 . S
Co748 O751 1.970 . S
Co748 N765 1.989 . S
Co748 O773 1.967 . S
Co748 O780 1.920 . S
Co749 O752 1.966 . S
Co749 N758 2.022 . S
Co749 N766 1.993 . S
Co749 O774 1.941 . S
C750 O751 1.258 . S
C750 O752 1.263 . S
O751 Co748 1.970 . S
O751 C750 1.258 . S
O752 Co749 1.966 . S
O752 C750 1.263 . S
C753 O754 1.235 . S
C753 O780 1.289 . S
O754 C753 1.235 . S
C755 C757 1.400 . S
C755 N758 1.351 . S
C755 C760 1.501 . S
C756 C757 1.387 . S
C756 N759 1.341 . S
C757 C755 1.400 . S
C757 C756 1.387 . S
N758 Co749 2.022 . S
N758 C755 1.351 . S
N758 N759 1.365 . S
N759 C756 1.341 . S
N759 N758 1.365 . S
N759 H779 0.898 . S
C760 C755 1.501 . S
C760 H761 0.961 . S
C760 H762 0.961 . S
C760 H763 0.960 . S
H761 C760 0.961 . S
H762 C760 0.961 . S
H763 C760 0.960 . S
C764 N765 1.342 . S
C764 C768 1.401 . S
C764 C769 1.499 . S
N765 Co748 1.989 . S
N765 C764 1.342 . S
N765 N766 1.388 . S
N766 Co749 1.993 . S
N766 N765 1.388 . S
N766 C767 1.346 . S
C767 N766 1.346 . S
C767 C768 1.396 . S
C767 C777 1.510 . S
C768 C764 1.401 . S
C768 C767 1.396 . S
C769 C764 1.499 . S
C769 H770 0.959 . S
C769 H771 0.960 . S
C769 H772 0.961 . S
H770 C769 0.959 . S
H771 C769 0.960 . S
H772 C769 0.961 . S
O773 Co748 1.967 . S
O773 C781 1.258 . S
O774 Co749 1.941 . S
O774 C781 1.266 . S
H775 C777 0.966 . S
H776 C777 0.961 . S
C777 C767 1.510 . S
C777 H775 0.966 . S
C777 H776 0.961 . S
C777 H778 0.960 . S
H778 C777 0.960 . S
H779 N759 0.898 . S
O780 Co748 1.920 . S
O780 C753 1.289 . S
C781 O773 1.258 . S
C781 O774 1.266 . S
Co782 O785 1.970 . S
Co782 N799 1.989 . S
Co782 O807 1.967 . S
Co782 O814 1.920 . S
Co783 O786 1.966 . S
Co783 N792 2.022 . S
Co783 N800 1.993 . S
Co783 O808 1.941 . S
C784 O785 1.258 . S
C784 O786 1.263 . S
O785 Co782 1.970 . S
O785 C784 1.258 . S
O786 Co783 1.966 . S
O786 C784 1.263 . S
C787 O788 1.235 . S
C787 O814 1.289 . S
O788 C787 1.235 . S
C789 C791 1.400 . S
C789 N792 1.351 . S
C789 C794 1.501 . S
C790 C791 1.387 . S
C790 N793 1.341 . S
C791 C789 1.400 . S
C791 C790 1.387 . S
N792 Co783 2.022 . S
N792 C789 1.351 . S
N792 N793 1.365 . S
N793 C790 1.341 . S
N793 N792 1.365 . S
N793 H813 0.862 . S
C794 C789 1.501 . S
C794 H795 0.961 . S
C794 H796 0.961 . S
C794 H797 0.960 . S
H795 C794 0.961 . S
H796 C794 0.961 . S
H797 C794 0.960 . S
C798 N799 1.342 . S
C798 C802 1.401 . S
C798 C803 1.499 . S
N799 Co782 1.989 . S
N799 C798 1.342 . S
N799 N800 1.388 . S
N800 Co783 1.993 . S
N800 N799 1.388 . S
N800 C801 1.346 . S
C801 N800 1.346 . S
C801 C802 1.396 . S
C801 C811 1.510 . S
C802 C798 1.401 . S
C802 C801 1.396 . S
C803 C798 1.499 . S
C803 H804 0.959 . S
C803 H805 0.960 . S
C803 H806 0.961 . S
H804 C803 0.959 . S
H805 C803 0.960 . S
H806 C803 0.961 . S
O807 Co782 1.967 . S
O807 C815 1.258 . S
O808 Co783 1.941 . S
O808 C815 1.266 . S
H809 C811 0.959 . S
H810 C811 0.961 . S
C811 C801 1.510 . S
C811 H809 0.959 . S
C811 H810 0.961 . S
C811 H812 0.960 . S
H812 C811 0.960 . S
H813 N793 0.862 . S
O814 Co782 1.920 . S
O814 C787 1.289 . S
C815 O807 1.258 . S
C815 O808 1.266 . S
Co816 O819 1.970 . S
Co816 N833 1.989 . S
Co816 O841 1.967 . S
Co816 O848 1.920 . S
Co817 O820 1.966 . S
Co817 N826 2.022 . S
Co817 N834 1.993 . S
Co817 O842 1.941 . S
C818 O819 1.258 . S
C818 O820 1.263 . S
O819 Co816 1.970 . S
O819 C818 1.258 . S
O820 Co817 1.966 . S
O820 C818 1.263 . S
C821 O822 1.235 . S
C821 O848 1.289 . S
O822 C821 1.235 . S
C823 C825 1.400 . S
C823 N826 1.351 . S
C823 C828 1.501 . S
C824 C825 1.387 . S
C824 N827 1.341 . S
C825 C823 1.400 . S
C825 C824 1.387 . S
N826 Co817 2.022 . S
N826 C823 1.351 . S
N826 N827 1.365 . S
N827 C824 1.341 . S
N827 N826 1.365 . S
N827 H847 0.862 . S
C828 C823 1.501 . S
C828 H829 0.961 . S
C828 H830 0.961 . S
C828 H831 0.960 . S
H829 C828 0.961 . S
H830 C828 0.961 . S
H831 C828 0.960 . S
C832 N833 1.342 . S
C832 C836 1.401 . S
C832 C837 1.499 . S
N833 Co816 1.989 . S
N833 C832 1.342 . S
N833 N834 1.388 . S
N834 Co817 1.993 . S
N834 N833 1.388 . S
N834 C835 1.346 . S
C835 N834 1.346 . S
C835 C836 1.396 . S
C835 C845 1.510 . S
C836 C832 1.401 . S
C836 C835 1.396 . S
C837 C832 1.499 . S
C837 H838 0.959 . S
C837 H839 0.960 . S
C837 H840 0.961 . S
H838 C837 0.959 . S
H839 C837 0.960 . S
H840 C837 0.961 . S
O841 Co816 1.967 . S
O841 C849 1.258 . S
O842 Co817 1.941 . S
O842 C849 1.266 . S
H843 C845 0.959 . S
H844 C845 0.961 . S
C845 C835 1.510 . S
C845 H843 0.959 . S
C845 H844 0.961 . S
C845 H846 0.960 . S
H846 C845 0.960 . S
H847 N827 0.862 . S
O848 Co816 1.920 . S
O848 C821 1.289 . S
C849 O841 1.258 . S
C849 O842 1.266 . S
Co850 O853 1.970 . S
Co850 N867 1.989 . S
Co850 O875 1.967 . S
Co850 O882 1.920 . S
Co851 O854 1.966 . S
Co851 N860 2.022 . S
Co851 N868 1.993 . S
Co851 O876 1.941 . S
C852 O853 1.258 . S
C852 O854 1.263 . S
O853 Co850 1.970 . S
O853 C852 1.258 . S
O854 Co851 1.966 . S
O854 C852 1.263 . S
C855 O856 1.235 . S
C855 O882 1.289 . S
O856 C855 1.235 . S
C857 C859 1.400 . S
C857 N860 1.351 . S
C857 C862 1.501 . S
C858 C859 1.387 . S
C858 N861 1.341 . S
C859 C857 1.400 . S
C859 C858 1.387 . S
N860 Co851 2.022 . S
N860 C857 1.351 . S
N860 N861 1.365 . S
N861 C858 1.341 . S
N861 N860 1.365 . S
N861 H881 0.898 . S
C862 C857 1.501 . S
C862 H863 0.961 . S
C862 H864 0.961 . S
C862 H865 0.960 . S
H863 C862 0.961 . S
H864 C862 0.961 . S
H865 C862 0.960 . S
C866 N867 1.342 . S
C866 C870 1.401 . S
C866 C871 1.499 . S
N867 Co850 1.989 . S
N867 C866 1.342 . S
N867 N868 1.388 . S
N868 Co851 1.993 . S
N868 N867 1.388 . S
N868 C869 1.346 . S
C869 N868 1.346 . S
C869 C870 1.396 . S
C869 C879 1.510 . S
C870 C866 1.401 . S
C870 C869 1.396 . S
C871 C866 1.499 . S
C871 H872 0.959 . S
C871 H873 0.960 . S
C871 H874 0.961 . S
H872 C871 0.959 . S
H873 C871 0.960 . S
H874 C871 0.961 . S
O875 Co850 1.967 . S
O875 C883 1.258 . S
O876 Co851 1.941 . S
O876 C883 1.266 . S
H877 C879 0.966 . S
H878 C879 0.961 . S
C879 C869 1.510 . S
C879 H877 0.966 . S
C879 H878 0.961 . S
C879 H880 0.960 . S
H880 C879 0.960 . S
H881 N861 0.898 . S
O882 Co850 1.920 . S
O882 C855 1.289 . S
C883 O875 1.258 . S
C883 O876 1.266 . S
Co884 O887 1.970 . S
Co884 N901 1.989 . S
Co884 O909 1.967 . S
Co884 O916 1.920 . S
Co885 O888 1.966 . S
Co885 N894 2.022 . S
Co885 N902 1.993 . S
Co885 O910 1.941 . S
C886 O887 1.258 . S
C886 O888 1.263 . S
O887 Co884 1.970 . S
O887 C886 1.258 . S
O888 Co885 1.966 . S
O888 C886 1.263 . S
C889 O890 1.235 . S
C889 O916 1.289 . S
O890 C889 1.235 . S
C891 C893 1.400 . S
C891 N894 1.351 . S
C891 C896 1.501 . S
C892 C893 1.387 . S
C892 N895 1.341 . S
C893 C891 1.400 . S
C893 C892 1.387 . S
N894 Co885 2.022 . S
N894 C891 1.351 . S
N894 N895 1.365 . S
N895 C892 1.341 . S
N895 N894 1.365 . S
N895 H915 0.862 . S
C896 C891 1.501 . S
C896 H897 0.961 . S
C896 H898 0.961 . S
C896 H899 0.960 . S
H897 C896 0.961 . S
H898 C896 0.961 . S
H899 C896 0.960 . S
C900 N901 1.342 . S
C900 C904 1.401 . S
C900 C905 1.499 . S
N901 Co884 1.989 . S
N901 C900 1.342 . S
N901 N902 1.388 . S
N902 Co885 1.993 . S
N902 N901 1.388 . S
N902 C903 1.346 . S
C903 N902 1.346 . S
C903 C904 1.396 . S
C903 C913 1.510 . S
C904 C900 1.401 . S
C904 C903 1.396 . S
C905 C900 1.499 . S
C905 H906 0.959 . S
C905 H907 0.960 . S
C905 H908 0.961 . S
H906 C905 0.959 . S
H907 C905 0.960 . S
H908 C905 0.961 . S
O909 Co884 1.967 . S
O909 C917 1.258 . S
O910 Co885 1.941 . S
O910 C917 1.266 . S
H911 C913 0.959 . S
H912 C913 0.961 . S
C913 C903 1.510 . S
C913 H911 0.959 . S
C913 H912 0.961 . S
C913 H914 0.960 . S
H914 C913 0.960 . S
H915 N895 0.862 . S
O916 Co884 1.920 . S
O916 C889 1.289 . S
C917 O909 1.258 . S
C917 O910 1.266 . S
Co918 O921 1.970 . S
Co918 N935 1.989 . S
Co918 O943 1.967 . S
Co918 O950 1.920 . S
Co919 O922 1.966 . S
Co919 N928 2.022 . S
Co919 N936 1.993 . S
Co919 O944 1.941 . S
C920 O921 1.258 . S
C920 O922 1.263 . S
O921 Co918 1.970 . S
O921 C920 1.258 . S
O922 Co919 1.966 . S
O922 C920 1.263 . S
C923 O924 1.235 . S
C923 O950 1.289 . S
O924 C923 1.235 . S
C925 C927 1.400 . S
C925 N928 1.351 . S
C925 C930 1.501 . S
C926 C927 1.387 . S
C926 N929 1.341 . S
C927 C925 1.400 . S
C927 C926 1.387 . S
N928 Co919 2.022 . S
N928 C925 1.351 . S
N928 N929 1.365 . S
N929 C926 1.341 . S
N929 N928 1.365 . S
N929 H949 0.862 . S
C930 C925 1.501 . S
C930 H931 0.961 . S
C930 H932 0.961 . S
C930 H933 0.960 . S
H931 C930 0.961 . S
H932 C930 0.961 . S
H933 C930 0.960 . S
C934 N935 1.342 . S
C934 C938 1.401 . S
C934 C939 1.499 . S
N935 Co918 1.989 . S
N935 C934 1.342 . S
N935 N936 1.388 . S
N936 Co919 1.993 . S
N936 N935 1.388 . S
N936 C937 1.346 . S
C937 N936 1.346 . S
C937 C938 1.396 . S
C937 C947 1.510 . S
C938 C934 1.401 . S
C938 C937 1.396 . S
C939 C934 1.499 . S
C939 H940 0.959 . S
C939 H941 0.960 . S
C939 H942 0.961 . S
H940 C939 0.959 . S
H941 C939 0.960 . S
H942 C939 0.961 . S
O943 Co918 1.967 . S
O943 C951 1.258 . S
O944 Co919 1.941 . S
O944 C951 1.266 . S
H945 C947 0.959 . S
H946 C947 0.961 . S
C947 C937 1.510 . S
C947 H945 0.959 . S
C947 H946 0.961 . S
C947 H948 0.960 . S
H948 C947 0.960 . S
H949 N929 0.862 . S
O950 Co918 1.920 . S
O950 C923 1.289 . S
C951 O943 1.258 . S
C951 O944 1.266 . S
Co952 O955 1.970 . S
Co952 N969 1.989 . S
Co952 O977 1.967 . S
Co952 O984 1.920 . S
Co953 O956 1.966 . S
Co953 N962 2.022 . S
Co953 N970 1.993 . S
Co953 O978 1.941 . S
C954 O955 1.258 . S
C954 O956 1.263 . S
O955 Co952 1.970 . S
O955 C954 1.258 . S
O956 Co953 1.966 . S
O956 C954 1.263 . S
C957 O958 1.235 . S
C957 O984 1.289 . S
O958 C957 1.235 . S
C959 C961 1.400 . S
C959 N962 1.351 . S
C959 C964 1.501 . S
C960 C961 1.387 . S
C960 N963 1.341 . S
C961 C959 1.400 . S
C961 C960 1.387 . S
N962 Co953 2.022 . S
N962 C959 1.351 . S
N962 N963 1.365 . S
N963 C960 1.341 . S
N963 N962 1.365 . S
N963 H983 0.862 . S
C964 C959 1.501 . S
C964 H965 0.961 . S
C964 H966 0.961 . S
C964 H967 0.960 . S
H965 C964 0.961 . S
H966 C964 0.961 . S
H967 C964 0.960 . S
C968 N969 1.342 . S
C968 C972 1.401 . S
C968 C973 1.499 . S
N969 Co952 1.989 . S
N969 C968 1.342 . S
N969 N970 1.388 . S
N970 Co953 1.993 . S
N970 N969 1.388 . S
N970 C971 1.346 . S
C971 N970 1.346 . S
C971 C972 1.396 . S
C971 C981 1.510 . S
C972 C968 1.401 . S
C972 C971 1.396 . S
C973 C968 1.499 . S
C973 H974 0.959 . S
C973 H975 0.960 . S
C973 H976 0.961 . S
H974 C973 0.959 . S
H975 C973 0.960 . S
H976 C973 0.961 . S
O977 Co952 1.967 . S
O977 C985 1.258 . S
O978 Co953 1.941 . S
O978 C985 1.266 . S
H979 C981 0.959 . S
H980 C981 0.961 . S
C981 C971 1.510 . S
C981 H979 0.959 . S
C981 H980 0.961 . S
C981 H982 0.960 . S
H982 C981 0.960 . S
H983 N963 0.862 . S
O984 Co952 1.920 . S
O984 C957 1.289 . S
C985 O977 1.258 . S
C985 O978 1.266 . S
Co986 O989 1.970 . S
Co986 N1003 1.989 . S
Co986 O1011 1.967 . S
Co986 O1018 1.920 . S
Co987 O990 1.966 . S
Co987 N996 2.022 . S
Co987 N1004 1.993 . S
Co987 O1012 1.941 . S
C988 O989 1.258 . S
C988 O990 1.263 . S
O989 Co986 1.970 . S
O989 C988 1.258 . S
O990 Co987 1.966 . S
O990 C988 1.263 . S
C991 O992 1.235 . S
C991 O1018 1.289 . S
O992 C991 1.235 . S
C993 C995 1.400 . S
C993 N996 1.351 . S
C993 C998 1.501 . S
C994 C995 1.387 . S
C994 N997 1.341 . S
C995 C993 1.400 . S
C995 C994 1.387 . S
N996 Co987 2.022 . S
N996 C993 1.351 . S
N996 N997 1.365 . S
N997 C994 1.341 . S
N997 N996 1.365 . S
N997 H1017 0.898 . S
C998 C993 1.501 . S
C998 H999 0.961 . S
C998 H1000 0.961 . S
C998 H1001 0.960 . S
H999 C998 0.961 . S
H1000 C998 0.961 . S
H1001 C998 0.960 . S
C1002 N1003 1.342 . S
C1002 C1006 1.401 . S
C1002 C1007 1.499 . S
N1003 Co986 1.989 . S
N1003 C1002 1.342 . S
N1003 N1004 1.388 . S
N1004 Co987 1.993 . S
N1004 N1003 1.388 . S
N1004 C1005 1.346 . S
C1005 N1004 1.346 . S
C1005 C1006 1.396 . S
C1005 C1015 1.510 . S
C1006 C1002 1.401 . S
C1006 C1005 1.396 . S
C1007 C1002 1.499 . S
C1007 H1008 0.959 . S
C1007 H1009 0.960 . S
C1007 H1010 0.961 . S
H1008 C1007 0.959 . S
H1009 C1007 0.960 . S
H1010 C1007 0.961 . S
O1011 Co986 1.967 . S
O1011 C1019 1.258 . S
O1012 Co987 1.941 . S
O1012 C1019 1.266 . S
H1013 C1015 0.966 . S
H1014 C1015 0.961 . S
C1015 C1005 1.510 . S
C1015 H1013 0.966 . S
C1015 H1014 0.961 . S
C1015 H1016 0.960 . S
H1016 C1015 0.960 . S
H1017 N997 0.898 . S
O1018 Co986 1.920 . S
O1018 C991 1.289 . S
C1019 O1011 1.258 . S
C1019 O1012 1.266 . S
Co1020 O1023 1.970 . S
Co1020 N1037 1.989 . S
Co1020 O1045 1.967 . S
Co1020 O1052 1.920 . S
Co1021 O1024 1.966 . S
Co1021 N1030 2.022 . S
Co1021 N1038 1.993 . S
Co1021 O1046 1.941 . S
C1022 O1023 1.258 . S
C1022 O1024 1.263 . S
O1023 Co1020 1.970 . S
O1023 C1022 1.258 . S
O1024 Co1021 1.966 . S
O1024 C1022 1.263 . S
C1025 O1026 1.235 . S
C1025 O1052 1.289 . S
O1026 C1025 1.235 . S
C1027 C1029 1.400 . S
C1027 N1030 1.351 . S
C1027 C1032 1.501 . S
C1028 C1029 1.387 . S
C1028 N1031 1.341 . S
C1029 C1027 1.400 . S
C1029 C1028 1.387 . S
N1030 Co1021 2.022 . S
N1030 C1027 1.351 . S
N1030 N1031 1.365 . S
N1031 C1028 1.341 . S
N1031 N1030 1.365 . S
N1031 H1051 0.862 . S
C1032 C1027 1.501 . S
C1032 H1033 0.961 . S
C1032 H1034 0.961 . S
C1032 H1035 0.960 . S
H1033 C1032 0.961 . S
H1034 C1032 0.961 . S
H1035 C1032 0.960 . S
C1036 N1037 1.342 . S
C1036 C1040 1.401 . S
C1036 C1041 1.499 . S
N1037 Co1020 1.989 . S
N1037 C1036 1.342 . S
N1037 N1038 1.388 . S
N1038 Co1021 1.993 . S
N1038 N1037 1.388 . S
N1038 C1039 1.346 . S
C1039 N1038 1.346 . S
C1039 C1040 1.396 . S
C1039 C1049 1.510 . S
C1040 C1036 1.401 . S
C1040 C1039 1.396 . S
C1041 C1036 1.499 . S
C1041 H1042 0.959 . S
C1041 H1043 0.960 . S
C1041 H1044 0.961 . S
H1042 C1041 0.959 . S
H1043 C1041 0.960 . S
H1044 C1041 0.961 . S
O1045 Co1020 1.967 . S
O1045 C1053 1.258 . S
O1046 Co1021 1.941 . S
O1046 C1053 1.266 . S
H1047 C1049 0.959 . S
H1048 C1049 0.961 . S
C1049 C1039 1.510 . S
C1049 H1047 0.959 . S
C1049 H1048 0.961 . S
C1049 H1050 0.960 . S
H1050 C1049 0.960 . S
H1051 N1031 0.862 . S
O1052 Co1020 1.920 . S
O1052 C1025 1.289 . S
C1053 O1045 1.258 . S
C1053 O1046 1.266 . S
Co1054 O1057 1.970 . S
Co1054 N1071 1.989 . S
Co1054 O1079 1.967 . S
Co1054 O1086 1.920 . S
Co1055 O1058 1.966 . S
Co1055 N1064 2.022 . S
Co1055 N1072 1.993 . S
Co1055 O1080 1.941 . S
C1056 O1057 1.258 . S
C1056 O1058 1.263 . S
O1057 Co1054 1.970 . S
O1057 C1056 1.258 . S
O1058 Co1055 1.966 . S
O1058 C1056 1.263 . S
C1059 O1060 1.235 . S
C1059 O1086 1.289 . S
O1060 C1059 1.235 . S
C1061 C1063 1.400 . S
C1061 N1064 1.351 . S
C1061 C1066 1.501 . S
C1062 C1063 1.387 . S
C1062 N1065 1.341 . S
C1063 C1061 1.400 . S
C1063 C1062 1.387 . S
N1064 Co1055 2.022 . S
N1064 C1061 1.351 . S
N1064 N1065 1.365 . S
N1065 C1062 1.341 . S
N1065 N1064 1.365 . S
N1065 H1085 0.862 . S
C1066 C1061 1.501 . S
C1066 H1067 0.961 . S
C1066 H1068 0.961 . S
C1066 H1069 0.960 . S
H1067 C1066 0.961 . S
H1068 C1066 0.961 . S
H1069 C1066 0.960 . S
C1070 N1071 1.342 . S
C1070 C1074 1.401 . S
C1070 C1075 1.499 . S
N1071 Co1054 1.989 . S
N1071 C1070 1.342 . S
N1071 N1072 1.388 . S
N1072 Co1055 1.993 . S
N1072 N1071 1.388 . S
N1072 C1073 1.346 . S
C1073 N1072 1.346 . S
C1073 C1074 1.396 . S
C1073 C1083 1.510 . S
C1074 C1070 1.401 . S
C1074 C1073 1.396 . S
C1075 C1070 1.499 . S
C1075 H1076 0.959 . S
C1075 H1077 0.960 . S
C1075 H1078 0.961 . S
H1076 C1075 0.959 . S
H1077 C1075 0.960 . S
H1078 C1075 0.961 . S
O1079 Co1054 1.967 . S
O1079 C1087 1.258 . S
O1080 Co1055 1.941 . S
O1080 C1087 1.266 . S
H1081 C1083 0.959 . S
H1082 C1083 0.961 . S
C1083 C1073 1.510 . S
C1083 H1081 0.959 . S
C1083 H1082 0.961 . S
C1083 H1084 0.960 . S
H1084 C1083 0.960 . S
H1085 N1065 0.862 . S
O1086 Co1054 1.920 . S
O1086 C1059 1.289 . S
C1087 O1079 1.258 . S
C1087 O1080 1.266 . S
Co1088 O1091 1.970 . S
Co1088 N1105 1.989 . S
Co1088 O1113 1.967 . S
Co1088 O1120 1.920 . S
Co1089 O1092 1.966 . S
Co1089 N1098 2.022 . S
Co1089 N1106 1.993 . S
Co1089 O1114 1.941 . S
C1090 O1091 1.258 . S
C1090 O1092 1.263 . S
O1091 Co1088 1.970 . S
O1091 C1090 1.258 . S
O1092 Co1089 1.966 . S
O1092 C1090 1.263 . S
C1093 O1094 1.235 . S
C1093 O1120 1.289 . S
O1094 C1093 1.235 . S
C1095 C1097 1.400 . S
C1095 N1098 1.351 . S
C1095 C1100 1.501 . S
C1096 C1097 1.387 . S
C1096 N1099 1.341 . S
C1097 C1095 1.400 . S
C1097 C1096 1.387 . S
N1098 Co1089 2.022 . S
N1098 C1095 1.351 . S
N1098 N1099 1.365 . S
N1099 C1096 1.341 . S
N1099 N1098 1.365 . S
N1099 H1119 0.862 . S
C1100 C1095 1.501 . S
C1100 H1101 0.961 . S
C1100 H1102 0.961 . S
C1100 H1103 0.960 . S
H1101 C1100 0.961 . S
H1102 C1100 0.961 . S
H1103 C1100 0.960 . S
C1104 N1105 1.342 . S
C1104 C1108 1.401 . S
C1104 C1109 1.499 . S
N1105 Co1088 1.989 . S
N1105 C1104 1.342 . S
N1105 N1106 1.388 . S
N1106 Co1089 1.993 . S
N1106 N1105 1.388 . S
N1106 C1107 1.346 . S
C1107 N1106 1.346 . S
C1107 C1108 1.396 . S
C1107 C1117 1.510 . S
C1108 C1104 1.401 . S
C1108 C1107 1.396 . S
C1109 C1104 1.499 . S
C1109 H1110 0.959 . S
C1109 H1111 0.960 . S
C1109 H1112 0.961 . S
H1110 C1109 0.959 . S
H1111 C1109 0.960 . S
H1112 C1109 0.961 . S
O1113 Co1088 1.967 . S
O1113 C1121 1.258 . S
O1114 Co1089 1.941 . S
O1114 C1121 1.266 . S
H1115 C1117 0.959 . S
H1116 C1117 0.961 . S
C1117 C1107 1.510 . S
C1117 H1115 0.959 . S
C1117 H1116 0.961 . S
C1117 H1118 0.960 . S
H1118 C1117 0.960 . S
H1119 N1099 0.862 . S
O1120 Co1088 1.920 . S
O1120 C1093 1.289 . S
C1121 O1113 1.258 . S
C1121 O1114 1.266 . S
Co1122 O1125 1.970 . S
Co1122 N1139 1.989 . S
Co1122 O1147 1.967 . S
Co1122 O1154 1.920 . S
Co1123 O1126 1.966 . S
Co1123 N1132 2.022 . S
Co1123 N1140 1.993 . S
Co1123 O1148 1.941 . S
C1124 O1125 1.258 . S
C1124 O1126 1.263 . S
O1125 Co1122 1.970 . S
O1125 C1124 1.258 . S
O1126 Co1123 1.966 . S
O1126 C1124 1.263 . S
C1127 O1128 1.235 . S
C1127 O1154 1.289 . S
O1128 C1127 1.235 . S
C1129 C1131 1.400 . S
C1129 N1132 1.351 . S
C1129 C1134 1.501 . S
C1130 C1131 1.387 . S
C1130 N1133 1.341 . S
C1131 C1129 1.400 . S
C1131 C1130 1.387 . S
N1132 Co1123 2.022 . S
N1132 C1129 1.351 . S
N1132 N1133 1.365 . S
N1133 C1130 1.341 . S
N1133 N1132 1.365 . S
N1133 H1153 0.862 . S
C1134 C1129 1.501 . S
C1134 H1135 0.961 . S
C1134 H1136 0.961 . S
C1134 H1137 0.960 . S
H1135 C1134 0.961 . S
H1136 C1134 0.961 . S
H1137 C1134 0.960 . S
C1138 N1139 1.342 . S
C1138 C1142 1.401 . S
C1138 C1143 1.499 . S
N1139 Co1122 1.989 . S
N1139 C1138 1.342 . S
N1139 N1140 1.388 . S
N1140 Co1123 1.993 . S
N1140 N1139 1.388 . S
N1140 C1141 1.346 . S
C1141 N1140 1.346 . S
C1141 C1142 1.396 . S
C1141 C1151 1.510 . S
C1142 C1138 1.401 . S
C1142 C1141 1.396 . S
C1143 C1138 1.499 . S
C1143 H1144 0.959 . S
C1143 H1145 0.960 . S
C1143 H1146 0.961 . S
H1144 C1143 0.959 . S
H1145 C1143 0.960 . S
H1146 C1143 0.961 . S
O1147 Co1122 1.967 . S
O1147 C1155 1.258 . S
O1148 Co1123 1.941 . S
O1148 C1155 1.266 . S
H1149 C1151 0.959 . S
H1150 C1151 0.961 . S
C1151 C1141 1.510 . S
C1151 H1149 0.959 . S
C1151 H1150 0.961 . S
C1151 H1152 0.960 . S
H1152 C1151 0.960 . S
H1153 N1133 0.862 . S
O1154 Co1122 1.920 . S
O1154 C1127 1.289 . S
C1155 O1147 1.258 . S
C1155 O1148 1.266 . S
Co1156 O1159 1.970 . S
Co1156 N1173 1.989 . S
Co1156 O1181 1.967 . S
Co1156 O1188 1.920 . S
Co1157 O1160 1.966 . S
Co1157 N1166 2.022 . S
Co1157 N1174 1.993 . S
Co1157 O1182 1.941 . S
C1158 O1159 1.258 . S
C1158 O1160 1.263 . S
O1159 Co1156 1.970 . S
O1159 C1158 1.258 . S
O1160 Co1157 1.966 . S
O1160 C1158 1.263 . S
C1161 O1162 1.235 . S
C1161 O1188 1.289 . S
O1162 C1161 1.235 . S
C1163 C1165 1.400 . S
C1163 N1166 1.351 . S
C1163 C1168 1.501 . S
C1164 C1165 1.387 . S
C1164 N1167 1.341 . S
C1165 C1163 1.400 . S
C1165 C1164 1.387 . S
N1166 Co1157 2.022 . S
N1166 C1163 1.351 . S
N1166 N1167 1.365 . S
N1167 C1164 1.341 . S
N1167 N1166 1.365 . S
N1167 H1187 0.862 . S
C1168 C1163 1.501 . S
C1168 H1169 0.961 . S
C1168 H1170 0.961 . S
C1168 H1171 0.960 . S
H1169 C1168 0.961 . S
H1170 C1168 0.961 . S
H1171 C1168 0.960 . S
C1172 N1173 1.342 . S
C1172 C1176 1.401 . S
C1172 C1177 1.499 . S
N1173 Co1156 1.989 . S
N1173 C1172 1.342 . S
N1173 N1174 1.388 . S
N1174 Co1157 1.993 . S
N1174 N1173 1.388 . S
N1174 C1175 1.346 . S
C1175 N1174 1.346 . S
C1175 C1176 1.396 . S
C1175 C1185 1.510 . S
C1176 C1172 1.401 . S
C1176 C1175 1.396 . S
C1177 C1172 1.499 . S
C1177 H1178 0.959 . S
C1177 H1179 0.960 . S
C1177 H1180 0.961 . S
H1178 C1177 0.959 . S
H1179 C1177 0.960 . S
H1180 C1177 0.961 . S
O1181 Co1156 1.967 . S
O1181 C1189 1.258 . S
O1182 Co1157 1.941 . S
O1182 C1189 1.266 . S
H1183 C1185 0.959 . S
H1184 C1185 0.961 . S
C1185 C1175 1.510 . S
C1185 H1183 0.959 . S
C1185 H1184 0.961 . S
C1185 H1186 0.960 . S
H1186 C1185 0.960 . S
H1187 N1167 0.862 . S
O1188 Co1156 1.920 . S
O1188 C1161 1.289 . S
C1189 O1181 1.258 . S
C1189 O1182 1.266 . S
Co1190 O1193 1.970 . S
Co1190 N1207 1.989 . S
Co1190 O1215 1.967 . S
Co1190 O1222 1.920 . S
Co1191 O1194 1.966 . S
Co1191 N1200 2.022 . S
Co1191 N1208 1.993 . S
Co1191 O1216 1.941 . S
C1192 O1193 1.258 . S
C1192 O1194 1.263 . S
O1193 Co1190 1.970 . S
O1193 C1192 1.258 . S
O1194 Co1191 1.966 . S
O1194 C1192 1.263 . S
C1195 O1196 1.235 . S
C1195 O1222 1.289 . S
O1196 C1195 1.235 . S
C1197 C1199 1.400 . S
C1197 N1200 1.351 . S
C1197 C1202 1.501 . S
C1198 C1199 1.387 . S
C1198 N1201 1.341 . S
C1199 C1197 1.400 . S
C1199 C1198 1.387 . S
N1200 Co1191 2.022 . S
N1200 C1197 1.351 . S
N1200 N1201 1.365 . S
N1201 C1198 1.341 . S
N1201 N1200 1.365 . S
N1201 H1221 0.862 . S
C1202 C1197 1.501 . S
C1202 H1203 0.961 . S
C1202 H1204 0.961 . S
C1202 H1205 0.960 . S
H1203 C1202 0.961 . S
H1204 C1202 0.961 . S
H1205 C1202 0.960 . S
C1206 N1207 1.342 . S
C1206 C1210 1.401 . S
C1206 C1211 1.499 . S
N1207 Co1190 1.989 . S
N1207 C1206 1.342 . S
N1207 N1208 1.388 . S
N1208 Co1191 1.993 . S
N1208 N1207 1.388 . S
N1208 C1209 1.346 . S
C1209 N1208 1.346 . S
C1209 C1210 1.396 . S
C1209 C1219 1.510 . S
C1210 C1206 1.401 . S
C1210 C1209 1.396 . S
C1211 C1206 1.499 . S
C1211 H1212 0.959 . S
C1211 H1213 0.960 . S
C1211 H1214 0.961 . S
H1212 C1211 0.959 . S
H1213 C1211 0.960 . S
H1214 C1211 0.961 . S
O1215 Co1190 1.967 . S
O1215 C1223 1.258 . S
O1216 Co1191 1.941 . S
O1216 C1223 1.266 . S
H1217 C1219 0.959 . S
H1218 C1219 0.961 . S
C1219 C1209 1.510 . S
C1219 H1217 0.959 . S
C1219 H1218 0.961 . S
C1219 H1220 0.960 . S
H1220 C1219 0.960 . S
H1221 N1201 0.862 . S
O1222 Co1190 1.920 . S
O1222 C1195 1.289 . S
C1223 O1215 1.258 . S
C1223 O1216 1.266 . S
Co1224 O1227 1.970 . S
Co1224 N1241 1.989 . S
Co1224 O1249 1.967 . S
Co1224 O1256 1.920 . S
Co1225 O1228 1.966 . S
Co1225 N1234 2.022 . S
Co1225 N1242 1.993 . S
Co1225 O1250 1.941 . S
C1226 O1227 1.258 . S
C1226 O1228 1.263 . S
O1227 Co1224 1.970 . S
O1227 C1226 1.258 . S
O1228 Co1225 1.966 . S
O1228 C1226 1.263 . S
C1229 O1230 1.235 . S
C1229 O1256 1.289 . S
O1230 C1229 1.235 . S
C1231 C1233 1.400 . S
C1231 N1234 1.351 . S
C1231 C1236 1.501 . S
C1232 C1233 1.387 . S
C1232 N1235 1.341 . S
C1233 C1231 1.400 . S
C1233 C1232 1.387 . S
N1234 Co1225 2.022 . S
N1234 C1231 1.351 . S
N1234 N1235 1.365 . S
N1235 C1232 1.341 . S
N1235 N1234 1.365 . S
N1235 H1255 0.862 . S
C1236 C1231 1.501 . S
C1236 H1237 0.961 . S
C1236 H1238 0.961 . S
C1236 H1239 0.960 . S
H1237 C1236 0.961 . S
H1238 C1236 0.961 . S
H1239 C1236 0.960 . S
C1240 N1241 1.342 . S
C1240 C1244 1.401 . S
C1240 C1245 1.499 . S
N1241 Co1224 1.989 . S
N1241 C1240 1.342 . S
N1241 N1242 1.388 . S
N1242 Co1225 1.993 . S
N1242 N1241 1.388 . S
N1242 C1243 1.346 . S
C1243 N1242 1.346 . S
C1243 C1244 1.396 . S
C1243 C1253 1.510 . S
C1244 C1240 1.401 . S
C1244 C1243 1.396 . S
C1245 C1240 1.499 . S
C1245 H1246 0.959 . S
C1245 H1247 0.960 . S
C1245 H1248 0.961 . S
H1246 C1245 0.959 . S
H1247 C1245 0.960 . S
H1248 C1245 0.961 . S
O1249 Co1224 1.967 . S
O1249 C1257 1.258 . S
O1250 Co1225 1.941 . S
O1250 C1257 1.266 . S
H1251 C1253 0.959 . S
H1252 C1253 0.961 . S
C1253 C1243 1.510 . S
C1253 H1251 0.959 . S
C1253 H1252 0.961 . S
C1253 H1254 0.960 . S
H1254 C1253 0.960 . S
H1255 N1235 0.862 . S
O1256 Co1224 1.920 . S
O1256 C1229 1.289 . S
C1257 O1249 1.258 . S
C1257 O1250 1.266 . S
Co1258 O1261 1.970 . S
Co1258 N1275 1.989 . S
Co1258 O1283 1.967 . S
Co1258 O1290 1.920 . S
Co1259 O1262 1.966 . S
Co1259 N1268 2.022 . S
Co1259 N1276 1.993 . S
Co1259 O1284 1.941 . S
C1260 O1261 1.258 . S
C1260 O1262 1.263 . S
O1261 Co1258 1.970 . S
O1261 C1260 1.258 . S
O1262 Co1259 1.966 . S
O1262 C1260 1.263 . S
C1263 O1264 1.235 . S
C1263 O1290 1.289 . S
O1264 C1263 1.235 . S
C1265 C1267 1.400 . S
C1265 N1268 1.351 . S
C1265 C1270 1.501 . S
C1266 C1267 1.387 . S
C1266 N1269 1.341 . S
C1267 C1265 1.400 . S
C1267 C1266 1.387 . S
N1268 Co1259 2.022 . S
N1268 C1265 1.351 . S
N1268 N1269 1.365 . S
N1269 C1266 1.341 . S
N1269 N1268 1.365 . S
N1269 H1289 0.862 . S
C1270 C1265 1.501 . S
C1270 H1271 0.961 . S
C1270 H1272 0.961 . S
C1270 H1273 0.960 . S
H1271 C1270 0.961 . S
H1272 C1270 0.961 . S
H1273 C1270 0.960 . S
C1274 N1275 1.342 . S
C1274 C1278 1.401 . S
C1274 C1279 1.499 . S
N1275 Co1258 1.989 . S
N1275 C1274 1.342 . S
N1275 N1276 1.388 . S
N1276 Co1259 1.993 . S
N1276 N1275 1.388 . S
N1276 C1277 1.346 . S
C1277 N1276 1.346 . S
C1277 C1278 1.396 . S
C1277 C1287 1.510 . S
C1278 C1274 1.401 . S
C1278 C1277 1.396 . S
C1279 C1274 1.499 . S
C1279 H1280 0.959 . S
C1279 H1281 0.960 . S
C1279 H1282 0.961 . S
H1280 C1279 0.959 . S
H1281 C1279 0.960 . S
H1282 C1279 0.961 . S
O1283 Co1258 1.967 . S
O1283 C1291 1.258 . S
O1284 Co1259 1.941 . S
O1284 C1291 1.266 . S
H1285 C1287 0.959 . S
H1286 C1287 0.961 . S
C1287 C1277 1.510 . S
C1287 H1285 0.959 . S
C1287 H1286 0.961 . S
C1287 H1288 0.960 . S
H1288 C1287 0.960 . S
H1289 N1269 0.862 . S
O1290 Co1258 1.920 . S
O1290 C1263 1.289 . S
C1291 O1283 1.258 . S
C1291 O1284 1.266 . S
Co1292 O1295 1.970 . S
Co1292 N1309 1.989 . S
Co1292 O1317 1.967 . S
Co1292 O1324 1.920 . S
Co1293 O1296 1.966 . S
Co1293 N1302 2.022 . S
Co1293 N1310 1.993 . S
Co1293 O1318 1.941 . S
C1294 O1295 1.258 . S
C1294 O1296 1.263 . S
O1295 Co1292 1.970 . S
O1295 C1294 1.258 . S
O1296 Co1293 1.966 . S
O1296 C1294 1.263 . S
C1297 O1298 1.235 . S
C1297 O1324 1.289 . S
O1298 C1297 1.235 . S
C1299 C1301 1.400 . S
C1299 N1302 1.351 . S
C1299 C1304 1.501 . S
C1300 C1301 1.387 . S
C1300 N1303 1.341 . S
C1301 C1299 1.400 . S
C1301 C1300 1.387 . S
N1302 Co1293 2.022 . S
N1302 C1299 1.351 . S
N1302 N1303 1.365 . S
N1303 C1300 1.341 . S
N1303 N1302 1.365 . S
N1303 H1323 0.862 . S
C1304 C1299 1.501 . S
C1304 H1305 0.961 . S
C1304 H1306 0.961 . S
C1304 H1307 0.960 . S
H1305 C1304 0.961 . S
H1306 C1304 0.961 . S
H1307 C1304 0.960 . S
C1308 N1309 1.342 . S
C1308 C1312 1.401 . S
C1308 C1313 1.499 . S
N1309 Co1292 1.989 . S
N1309 C1308 1.342 . S
N1309 N1310 1.388 . S
N1310 Co1293 1.993 . S
N1310 N1309 1.388 . S
N1310 C1311 1.346 . S
C1311 N1310 1.346 . S
C1311 C1312 1.396 . S
C1311 C1321 1.510 . S
C1312 C1308 1.401 . S
C1312 C1311 1.396 . S
C1313 C1308 1.499 . S
C1313 H1314 0.959 . S
C1313 H1315 0.960 . S
C1313 H1316 0.961 . S
H1314 C1313 0.959 . S
H1315 C1313 0.960 . S
H1316 C1313 0.961 . S
O1317 Co1292 1.967 . S
O1317 C1325 1.258 . S
O1318 Co1293 1.941 . S
O1318 C1325 1.266 . S
H1319 C1321 0.959 . S
H1320 C1321 0.961 . S
C1321 C1311 1.510 . S
C1321 H1319 0.959 . S
C1321 H1320 0.961 . S
C1321 H1322 0.960 . S
H1322 C1321 0.960 . S
H1323 N1303 0.862 . S
O1324 Co1292 1.920 . S
O1324 C1297 1.289 . S
C1325 O1317 1.258 . S
C1325 O1318 1.266 . S
Co1326 O1329 1.970 . S
Co1326 N1343 1.989 . S
Co1326 O1351 1.967 . S
Co1326 O1358 1.920 . S
Co1327 O1330 1.966 . S
Co1327 N1336 2.022 . S
Co1327 N1344 1.993 . S
Co1327 O1352 1.941 . S
C1328 O1329 1.258 . S
C1328 O1330 1.263 . S
O1329 Co1326 1.970 . S
O1329 C1328 1.258 . S
O1330 Co1327 1.966 . S
O1330 C1328 1.263 . S
C1331 O1332 1.235 . S
C1331 O1358 1.289 . S
O1332 C1331 1.235 . S
C1333 C1335 1.400 . S
C1333 N1336 1.351 . S
C1333 C1338 1.501 . S
C1334 C1335 1.387 . S
C1334 N1337 1.341 . S
C1335 C1333 1.400 . S
C1335 C1334 1.387 . S
N1336 Co1327 2.022 . S
N1336 C1333 1.351 . S
N1336 N1337 1.365 . S
N1337 C1334 1.341 . S
N1337 N1336 1.365 . S
N1337 H1357 0.862 . S
C1338 C1333 1.501 . S
C1338 H1339 0.961 . S
C1338 H1340 0.961 . S
C1338 H1341 0.960 . S
H1339 C1338 0.961 . S
H1340 C1338 0.961 . S
H1341 C1338 0.960 . S
C1342 N1343 1.342 . S
C1342 C1346 1.401 . S
C1342 C1347 1.499 . S
N1343 Co1326 1.989 . S
N1343 C1342 1.342 . S
N1343 N1344 1.388 . S
N1344 Co1327 1.993 . S
N1344 N1343 1.388 . S
N1344 C1345 1.346 . S
C1345 N1344 1.346 . S
C1345 C1346 1.396 . S
C1345 C1355 1.510 . S
C1346 C1342 1.401 . S
C1346 C1345 1.396 . S
C1347 C1342 1.499 . S
C1347 H1348 0.959 . S
C1347 H1349 0.960 . S
C1347 H1350 0.961 . S
H1348 C1347 0.959 . S
H1349 C1347 0.960 . S
H1350 C1347 0.961 . S
O1351 Co1326 1.967 . S
O1351 C1359 1.258 . S
O1352 Co1327 1.941 . S
O1352 C1359 1.266 . S
H1353 C1355 0.959 . S
H1354 C1355 0.961 . S
C1355 C1345 1.510 . S
C1355 H1353 0.959 . S
C1355 H1354 0.961 . S
C1355 H1356 0.960 . S
H1356 C1355 0.960 . S
H1357 N1337 0.862 . S
O1358 Co1326 1.920 . S
O1358 C1331 1.289 . S
C1359 O1351 1.258 . S
C1359 O1352 1.266 . S
Co1360 O1363 1.970 . S
Co1360 N1377 1.989 . S
Co1360 O1385 1.967 . S
Co1360 O1392 1.920 . S
Co1361 O1364 1.966 . S
Co1361 N1370 2.022 . S
Co1361 N1378 1.993 . S
Co1361 O1386 1.941 . S
C1362 O1363 1.258 . S
C1362 O1364 1.263 . S
O1363 Co1360 1.970 . S
O1363 C1362 1.258 . S
O1364 Co1361 1.966 . S
O1364 C1362 1.263 . S
C1365 O1366 1.235 . S
C1365 O1392 1.289 . S
O1366 C1365 1.235 . S
C1367 C1369 1.400 . S
C1367 N1370 1.351 . S
C1367 C1372 1.501 . S
C1368 C1369 1.387 . S
C1368 N1371 1.341 . S
C1369 C1367 1.400 . S
C1369 C1368 1.387 . S
N1370 Co1361 2.022 . S
N1370 C1367 1.351 . S
N1370 N1371 1.365 . S
N1371 C1368 1.341 . S
N1371 N1370 1.365 . S
N1371 H1391 0.862 . S
C1372 C1367 1.501 . S
C1372 H1373 0.961 . S
C1372 H1374 0.961 . S
C1372 H1375 0.960 . S
H1373 C1372 0.961 . S
H1374 C1372 0.961 . S
H1375 C1372 0.960 . S
C1376 N1377 1.342 . S
C1376 C1380 1.401 . S
C1376 C1381 1.499 . S
N1377 Co1360 1.989 . S
N1377 C1376 1.342 . S
N1377 N1378 1.388 . S
N1378 Co1361 1.993 . S
N1378 N1377 1.388 . S
N1378 C1379 1.346 . S
C1379 N1378 1.346 . S
C1379 C1380 1.396 . S
C1379 C1389 1.510 . S
C1380 C1376 1.401 . S
C1380 C1379 1.396 . S
C1381 C1376 1.499 . S
C1381 H1382 0.959 . S
C1381 H1383 0.960 . S
C1381 H1384 0.961 . S
H1382 C1381 0.959 . S
H1383 C1381 0.960 . S
H1384 C1381 0.961 . S
O1385 Co1360 1.967 . S
O1385 C1393 1.258 . S
O1386 Co1361 1.941 . S
O1386 C1393 1.266 . S
H1387 C1389 0.959 . S
H1388 C1389 0.961 . S
C1389 C1379 1.510 . S
C1389 H1387 0.959 . S
C1389 H1388 0.961 . S
C1389 H1390 0.960 . S
H1390 C1389 0.960 . S
H1391 N1371 0.862 . S
O1392 Co1360 1.920 . S
O1392 C1365 1.289 . S
C1393 O1385 1.258 . S
C1393 O1386 1.266 . S
Co1394 O1397 1.970 . S
Co1394 N1411 1.989 . S
Co1394 O1419 1.967 . S
Co1394 O1426 1.920 . S
Co1395 O1398 1.966 . S
Co1395 N1404 2.022 . S
Co1395 N1412 1.993 . S
Co1395 O1420 1.941 . S
C1396 O1397 1.258 . S
C1396 O1398 1.263 . S
O1397 Co1394 1.970 . S
O1397 C1396 1.258 . S
O1398 Co1395 1.966 . S
O1398 C1396 1.263 . S
C1399 O1400 1.235 . S
C1399 O1426 1.289 . S
O1400 C1399 1.235 . S
C1401 C1403 1.400 . S
C1401 N1404 1.351 . S
C1401 C1406 1.501 . S
C1402 C1403 1.387 . S
C1402 N1405 1.341 . S
C1403 C1401 1.400 . S
C1403 C1402 1.387 . S
N1404 Co1395 2.022 . S
N1404 C1401 1.351 . S
N1404 N1405 1.365 . S
N1405 C1402 1.341 . S
N1405 N1404 1.365 . S
N1405 H1425 0.862 . S
C1406 C1401 1.501 . S
C1406 H1407 0.961 . S
C1406 H1408 0.961 . S
C1406 H1409 0.960 . S
H1407 C1406 0.961 . S
H1408 C1406 0.961 . S
H1409 C1406 0.960 . S
C1410 N1411 1.342 . S
C1410 C1414 1.401 . S
C1410 C1415 1.499 . S
N1411 Co1394 1.989 . S
N1411 C1410 1.342 . S
N1411 N1412 1.388 . S
N1412 Co1395 1.993 . S
N1412 N1411 1.388 . S
N1412 C1413 1.346 . S
C1413 N1412 1.346 . S
C1413 C1414 1.396 . S
C1413 C1423 1.510 . S
C1414 C1410 1.401 . S
C1414 C1413 1.396 . S
C1415 C1410 1.499 . S
C1415 H1416 0.959 . S
C1415 H1417 0.960 . S
C1415 H1418 0.961 . S
H1416 C1415 0.959 . S
H1417 C1415 0.960 . S
H1418 C1415 0.961 . S
O1419 Co1394 1.967 . S
O1419 C1427 1.258 . S
O1420 Co1395 1.941 . S
O1420 C1427 1.266 . S
H1421 C1423 0.959 . S
H1422 C1423 0.961 . S
C1423 C1413 1.510 . S
C1423 H1421 0.959 . S
C1423 H1422 0.961 . S
C1423 H1424 0.960 . S
H1424 C1423 0.960 . S
H1425 N1405 0.862 . S
O1426 Co1394 1.920 . S
O1426 C1399 1.289 . S
C1427 O1419 1.258 . S
C1427 O1420 1.266 . S
Co1428 O1431 1.970 . S
Co1428 N1445 1.989 . S
Co1428 O1453 1.967 . S
Co1428 O1460 1.920 . S
Co1429 O1432 1.966 . S
Co1429 N1438 2.022 . S
Co1429 N1446 1.993 . S
Co1429 O1454 1.941 . S
C1430 O1431 1.258 . S
C1430 O1432 1.263 . S
O1431 Co1428 1.970 . S
O1431 C1430 1.258 . S
O1432 Co1429 1.966 . S
O1432 C1430 1.263 . S
C1433 O1434 1.235 . S
C1433 O1460 1.289 . S
O1434 C1433 1.235 . S
C1435 C1437 1.400 . S
C1435 N1438 1.351 . S
C1435 C1440 1.501 . S
C1436 C1437 1.387 . S
C1436 N1439 1.341 . S
C1437 C1435 1.400 . S
C1437 C1436 1.387 . S
N1438 Co1429 2.022 . S
N1438 C1435 1.351 . S
N1438 N1439 1.365 . S
N1439 C1436 1.341 . S
N1439 N1438 1.365 . S
N1439 H1459 0.862 . S
C1440 C1435 1.501 . S
C1440 H1441 0.961 . S
C1440 H1442 0.961 . S
C1440 H1443 0.960 . S
H1441 C1440 0.961 . S
H1442 C1440 0.961 . S
H1443 C1440 0.960 . S
C1444 N1445 1.342 . S
C1444 C1448 1.401 . S
C1444 C1449 1.499 . S
N1445 Co1428 1.989 . S
N1445 C1444 1.342 . S
N1445 N1446 1.388 . S
N1446 Co1429 1.993 . S
N1446 N1445 1.388 . S
N1446 C1447 1.346 . S
C1447 N1446 1.346 . S
C1447 C1448 1.396 . S
C1447 C1457 1.510 . S
C1448 C1444 1.401 . S
C1448 C1447 1.396 . S
C1449 C1444 1.499 . S
C1449 H1450 0.959 . S
C1449 H1451 0.960 . S
C1449 H1452 0.961 . S
H1450 C1449 0.959 . S
H1451 C1449 0.960 . S
H1452 C1449 0.961 . S
O1453 Co1428 1.967 . S
O1453 C1461 1.258 . S
O1454 Co1429 1.941 . S
O1454 C1461 1.266 . S
H1455 C1457 0.959 . S
H1456 C1457 0.961 . S
C1457 C1447 1.510 . S
C1457 H1455 0.959 . S
C1457 H1456 0.961 . S
C1457 H1458 0.960 . S
H1458 C1457 0.960 . S
H1459 N1439 0.862 . S
O1460 Co1428 1.920 . S
O1460 C1433 1.289 . S
C1461 O1453 1.258 . S
C1461 O1454 1.266 . S
Co1462 O1465 1.970 . S
Co1462 N1479 1.989 . S
Co1462 O1487 1.967 . S
Co1462 O1494 1.920 . S
Co1463 O1466 1.966 . S
Co1463 N1472 2.022 . S
Co1463 N1480 1.993 . S
Co1463 O1488 1.941 . S
C1464 O1465 1.258 . S
C1464 O1466 1.263 . S
O1465 Co1462 1.970 . S
O1465 C1464 1.258 . S
O1466 Co1463 1.966 . S
O1466 C1464 1.263 . S
C1467 O1468 1.235 . S
C1467 O1494 1.289 . S
O1468 C1467 1.235 . S
C1469 C1471 1.400 . S
C1469 N1472 1.351 . S
C1469 C1474 1.501 . S
C1470 C1471 1.387 . S
C1470 N1473 1.341 . S
C1471 C1469 1.400 . S
C1471 C1470 1.387 . S
N1472 Co1463 2.022 . S
N1472 C1469 1.351 . S
N1472 N1473 1.365 . S
N1473 C1470 1.341 . S
N1473 N1472 1.365 . S
N1473 H1493 0.862 . S
C1474 C1469 1.501 . S
C1474 H1475 0.961 . S
C1474 H1476 0.961 . S
C1474 H1477 0.960 . S
H1475 C1474 0.961 . S
H1476 C1474 0.961 . S
H1477 C1474 0.960 . S
C1478 N1479 1.342 . S
C1478 C1482 1.401 . S
C1478 C1483 1.499 . S
N1479 Co1462 1.989 . S
N1479 C1478 1.342 . S
N1479 N1480 1.388 . S
N1480 Co1463 1.993 . S
N1480 N1479 1.388 . S
N1480 C1481 1.346 . S
C1481 N1480 1.346 . S
C1481 C1482 1.396 . S
C1481 C1491 1.510 . S
C1482 C1478 1.401 . S
C1482 C1481 1.396 . S
C1483 C1478 1.499 . S
C1483 H1484 0.959 . S
C1483 H1485 0.960 . S
C1483 H1486 0.961 . S
H1484 C1483 0.959 . S
H1485 C1483 0.960 . S
H1486 C1483 0.961 . S
O1487 Co1462 1.967 . S
O1487 C1495 1.258 . S
O1488 Co1463 1.941 . S
O1488 C1495 1.266 . S
H1489 C1491 0.959 . S
H1490 C1491 0.961 . S
C1491 C1481 1.510 . S
C1491 H1489 0.959 . S
C1491 H1490 0.961 . S
C1491 H1492 0.960 . S
H1492 C1491 0.960 . S
H1493 N1473 0.862 . S
O1494 Co1462 1.920 . S
O1494 C1467 1.289 . S
C1495 O1487 1.258 . S
C1495 O1488 1.266 . S
Co1496 O1499 1.970 . S
Co1496 N1513 1.989 . S
Co1496 O1521 1.967 . S
Co1496 O1528 1.920 . S
Co1497 O1500 1.966 . S
Co1497 N1506 2.022 . S
Co1497 N1514 1.993 . S
Co1497 O1522 1.941 . S
C1498 O1499 1.258 . S
C1498 O1500 1.263 . S
O1499 Co1496 1.970 . S
O1499 C1498 1.258 . S
O1500 Co1497 1.966 . S
O1500 C1498 1.263 . S
C1501 O1502 1.235 . S
C1501 O1528 1.289 . S
O1502 C1501 1.235 . S
C1503 C1505 1.400 . S
C1503 N1506 1.351 . S
C1503 C1508 1.501 . S
C1504 C1505 1.387 . S
C1504 N1507 1.341 . S
C1505 C1503 1.400 . S
C1505 C1504 1.387 . S
N1506 Co1497 2.022 . S
N1506 C1503 1.351 . S
N1506 N1507 1.365 . S
N1507 C1504 1.341 . S
N1507 N1506 1.365 . S
N1507 H1527 0.862 . S
C1508 C1503 1.501 . S
C1508 H1509 0.961 . S
C1508 H1510 0.961 . S
C1508 H1511 0.960 . S
H1509 C1508 0.961 . S
H1510 C1508 0.961 . S
H1511 C1508 0.960 . S
C1512 N1513 1.342 . S
C1512 C1516 1.401 . S
C1512 C1517 1.499 . S
N1513 Co1496 1.989 . S
N1513 C1512 1.342 . S
N1513 N1514 1.388 . S
N1514 Co1497 1.993 . S
N1514 N1513 1.388 . S
N1514 C1515 1.346 . S
C1515 N1514 1.346 . S
C1515 C1516 1.396 . S
C1515 C1525 1.510 . S
C1516 C1512 1.401 . S
C1516 C1515 1.396 . S
C1517 C1512 1.499 . S
C1517 H1518 0.959 . S
C1517 H1519 0.960 . S
C1517 H1520 0.961 . S
H1518 C1517 0.959 . S
H1519 C1517 0.960 . S
H1520 C1517 0.961 . S
O1521 Co1496 1.967 . S
O1521 C1529 1.258 . S
O1522 Co1497 1.941 . S
O1522 C1529 1.266 . S
H1523 C1525 0.959 . S
H1524 C1525 0.961 . S
C1525 C1515 1.510 . S
C1525 H1523 0.959 . S
C1525 H1524 0.961 . S
C1525 H1526 0.960 . S
H1526 C1525 0.960 . S
H1527 N1507 0.862 . S
O1528 Co1496 1.920 . S
O1528 C1501 1.289 . S
C1529 O1521 1.258 . S
C1529 O1522 1.266 . S
Co1530 O1533 1.970 . S
Co1530 N1547 1.989 . S
Co1530 O1555 1.967 . S
Co1530 O1562 1.920 . S
Co1531 O1534 1.966 . S
Co1531 N1540 2.022 . S
Co1531 N1548 1.993 . S
Co1531 O1556 1.941 . S
C1532 O1533 1.258 . S
C1532 O1534 1.263 . S
O1533 Co1530 1.970 . S
O1533 C1532 1.258 . S
O1534 Co1531 1.966 . S
O1534 C1532 1.263 . S
C1535 O1536 1.235 . S
C1535 O1562 1.289 . S
O1536 C1535 1.235 . S
C1537 C1539 1.400 . S
C1537 N1540 1.351 . S
C1537 C1542 1.501 . S
C1538 C1539 1.387 . S
C1538 N1541 1.341 . S
C1539 C1537 1.400 . S
C1539 C1538 1.387 . S
N1540 Co1531 2.022 . S
N1540 C1537 1.351 . S
N1540 N1541 1.365 . S
N1541 C1538 1.341 . S
N1541 N1540 1.365 . S
N1541 H1561 0.862 . S
C1542 C1537 1.501 . S
C1542 H1543 0.961 . S
C1542 H1544 0.961 . S
C1542 H1545 0.960 . S
H1543 C1542 0.961 . S
H1544 C1542 0.961 . S
H1545 C1542 0.960 . S
C1546 N1547 1.342 . S
C1546 C1550 1.401 . S
C1546 C1551 1.499 . S
N1547 Co1530 1.989 . S
N1547 C1546 1.342 . S
N1547 N1548 1.388 . S
N1548 Co1531 1.993 . S
N1548 N1547 1.388 . S
N1548 C1549 1.346 . S
C1549 N1548 1.346 . S
C1549 C1550 1.396 . S
C1549 C1559 1.510 . S
C1550 C1546 1.401 . S
C1550 C1549 1.396 . S
C1551 C1546 1.499 . S
C1551 H1552 0.959 . S
C1551 H1553 0.960 . S
C1551 H1554 0.961 . S
H1552 C1551 0.959 . S
H1553 C1551 0.960 . S
H1554 C1551 0.961 . S
O1555 Co1530 1.967 . S
O1555 C1563 1.258 . S
O1556 Co1531 1.941 . S
O1556 C1563 1.266 . S
H1557 C1559 0.959 . S
H1558 C1559 0.961 . S
C1559 C1549 1.510 . S
C1559 H1557 0.959 . S
C1559 H1558 0.961 . S
C1559 H1560 0.960 . S
H1560 C1559 0.960 . S
H1561 N1541 0.862 . S
O1562 Co1530 1.920 . S
O1562 C1535 1.289 . S
C1563 O1555 1.258 . S
C1563 O1556 1.266 . S
Co1564 O1567 1.970 . S
Co1564 N1581 1.989 . S
Co1564 O1589 1.967 . S
Co1564 O1596 1.920 . S
Co1565 O1568 1.966 . S
Co1565 N1574 2.022 . S
Co1565 N1582 1.993 . S
Co1565 O1590 1.941 . S
C1566 O1567 1.258 . S
C1566 O1568 1.263 . S
O1567 Co1564 1.970 . S
O1567 C1566 1.258 . S
O1568 Co1565 1.966 . S
O1568 C1566 1.263 . S
C1569 O1570 1.235 . S
C1569 O1596 1.289 . S
O1570 C1569 1.235 . S
C1571 C1573 1.400 . S
C1571 N1574 1.351 . S
C1571 C1576 1.501 . S
C1572 C1573 1.387 . S
C1572 N1575 1.341 . S
C1573 C1571 1.400 . S
C1573 C1572 1.387 . S
N1574 Co1565 2.022 . S
N1574 C1571 1.351 . S
N1574 N1575 1.365 . S
N1575 C1572 1.341 . S
N1575 N1574 1.365 . S
N1575 H1595 0.862 . S
C1576 C1571 1.501 . S
C1576 H1577 0.961 . S
C1576 H1578 0.961 . S
C1576 H1579 0.960 . S
H1577 C1576 0.961 . S
H1578 C1576 0.961 . S
H1579 C1576 0.960 . S
C1580 N1581 1.342 . S
C1580 C1584 1.401 . S
C1580 C1585 1.499 . S
N1581 Co1564 1.989 . S
N1581 C1580 1.342 . S
N1581 N1582 1.388 . S
N1582 Co1565 1.993 . S
N1582 N1581 1.388 . S
N1582 C1583 1.346 . S
C1583 N1582 1.346 . S
C1583 C1584 1.396 . S
C1583 C1593 1.510 . S
C1584 C1580 1.401 . S
C1584 C1583 1.396 . S
C1585 C1580 1.499 . S
C1585 H1586 0.959 . S
C1585 H1587 0.960 . S
C1585 H1588 0.961 . S
H1586 C1585 0.959 . S
H1587 C1585 0.960 . S
H1588 C1585 0.961 . S
O1589 Co1564 1.967 . S
O1589 C1597 1.258 . S
O1590 Co1565 1.941 . S
O1590 C1597 1.266 . S
H1591 C1593 0.959 . S
H1592 C1593 0.961 . S
C1593 C1583 1.510 . S
C1593 H1591 0.959 . S
C1593 H1592 0.961 . S
C1593 H1594 0.960 . S
H1594 C1593 0.960 . S
H1595 N1575 0.862 . S
O1596 Co1564 1.920 . S
O1596 C1569 1.289 . S
C1597 O1589 1.258 . S
C1597 O1590 1.266 . S
Co1598 O1601 1.970 . S
Co1598 N1615 1.989 . S
Co1598 O1623 1.967 . S
Co1598 O1630 1.920 . S
Co1599 O1602 1.966 . S
Co1599 N1608 2.022 . S
Co1599 N1616 1.993 . S
Co1599 O1624 1.941 . S
C1600 O1601 1.258 . S
C1600 O1602 1.263 . S
O1601 Co1598 1.970 . S
O1601 C1600 1.258 . S
O1602 Co1599 1.966 . S
O1602 C1600 1.263 . S
C1603 O1604 1.235 . S
C1603 O1630 1.289 . S
O1604 C1603 1.235 . S
C1605 C1607 1.400 . S
C1605 N1608 1.351 . S
C1605 C1610 1.501 . S
C1606 C1607 1.387 . S
C1606 N1609 1.341 . S
C1607 C1605 1.400 . S
C1607 C1606 1.387 . S
N1608 Co1599 2.022 . S
N1608 C1605 1.351 . S
N1608 N1609 1.365 . S
N1609 C1606 1.341 . S
N1609 N1608 1.365 . S
N1609 H1629 0.898 . S
C1610 C1605 1.501 . S
C1610 H1611 0.961 . S
C1610 H1612 0.961 . S
C1610 H1613 0.960 . S
H1611 C1610 0.961 . S
H1612 C1610 0.961 . S
H1613 C1610 0.960 . S
C1614 N1615 1.342 . S
C1614 C1618 1.401 . S
C1614 C1619 1.499 . S
N1615 Co1598 1.989 . S
N1615 C1614 1.342 . S
N1615 N1616 1.388 . S
N1616 Co1599 1.993 . S
N1616 N1615 1.388 . S
N1616 C1617 1.346 . S
C1617 N1616 1.346 . S
C1617 C1618 1.396 . S
C1617 C1627 1.510 . S
C1618 C1614 1.401 . S
C1618 C1617 1.396 . S
C1619 C1614 1.499 . S
C1619 H1620 0.959 . S
C1619 H1621 0.960 . S
C1619 H1622 0.961 . S
H1620 C1619 0.959 . S
H1621 C1619 0.960 . S
H1622 C1619 0.961 . S
O1623 Co1598 1.967 . S
O1623 C1631 1.258 . S
O1624 Co1599 1.941 . S
O1624 C1631 1.266 . S
H1625 C1627 0.966 . S
H1626 C1627 0.961 . S
C1627 C1617 1.510 . S
C1627 H1625 0.966 . S
C1627 H1626 0.961 . S
C1627 H1628 0.960 . S
H1628 C1627 0.960 . S
H1629 N1609 0.898 . S
O1630 Co1598 1.920 . S
O1630 C1603 1.289 . S
C1631 O1623 1.258 . S
C1631 O1624 1.266 . S
H1632 C1640 0.950 . S
H1633 C1645 0.950 . S
H1634 C1642 0.950 . S
H1635 C1644 0.950 . S
H1636 C1646 0.950 . S
H1637 C1648 0.950 . S
H1638 C1650 0.950 . S
H1639 C1651 0.950 . S
C1640 H1632 0.950 . S
C1640 C1641 1.386 . S
C1640 C1642 1.391 . S
C1641 C1640 1.386 . S
C1641 C1645 1.393 . S
C1642 H1634 0.950 . S
C1642 C1640 1.391 . S
C1642 C1643 1.400 . S
C1643 C1642 1.400 . S
C1643 C1644 1.398 . S
C1643 C1649 1.491 . S
C1644 H1635 0.950 . S
C1644 C1643 1.398 . S
C1644 C1645 1.391 . S
C1645 H1633 0.950 . S
C1645 C1641 1.393 . S
C1645 C1644 1.391 . S
C1646 H1636 0.950 . S
C1646 C1647 1.386 . S
C1646 C1648 1.391 . S
C1647 C1646 1.386 . S
C1647 C1651 1.393 1_655 S
C1648 H1637 0.950 . S
C1648 C1646 1.391 . S
C1648 C1649 1.400 1_655 S
C1649 C1643 1.491 . S
C1649 C1648 1.400 1_455 S
C1649 C1650 1.398 . S
C1650 H1638 0.950 . S
C1650 C1649 1.398 . S
C1650 C1651 1.391 . S
C1651 H1639 0.950 . S
C1651 C1647 1.393 1_455 S
C1651 C1650 1.391 . S
H1652 C1660 0.950 . S
H1653 C1665 0.950 . S
H1654 C1662 0.950 . S
H1655 C1664 0.950 . S
H1656 C1666 0.950 . S
H1657 C1668 0.950 . S
H1658 C1670 0.950 . S
H1659 C1671 0.950 . S
C1660 H1652 0.950 . S
C1660 C1661 1.386 . S
C1660 C1662 1.391 . S
C1661 C1660 1.386 . S
C1661 C1665 1.393 . S
C1662 H1654 0.950 . S
C1662 C1660 1.391 . S
C1662 C1663 1.400 . S
C1663 C1662 1.400 . S
C1663 C1664 1.398 . S
C1663 C1669 1.491 . S
C1664 H1655 0.950 . S
C1664 C1663 1.398 . S
C1664 C1665 1.391 . S
C1665 H1653 0.950 . S
C1665 C1661 1.393 . S
C1665 C1664 1.391 . S
C1666 H1656 0.950 . S
C1666 C1667 1.386 . S
C1666 C1668 1.391 . S
C1667 C1666 1.386 . S
C1667 C1671 1.393 . S
C1668 H1657 0.950 . S
C1668 C1666 1.391 . S
C1668 C1669 1.400 . S
C1669 C1663 1.491 . S
C1669 C1668 1.400 . S
C1669 C1670 1.398 . S
C1670 H1658 0.950 . S
C1670 C1669 1.398 . S
C1670 C1671 1.391 . S
C1671 H1659 0.950 . S
C1671 C1667 1.393 . S
C1671 C1670 1.391 . S
H1672 C1680 0.950 . S
H1673 C1685 0.950 . S
H1674 C1682 0.950 . S
H1675 C1684 0.950 . S
H1676 C1686 0.950 . S
H1677 C1688 0.950 . S
H1678 C1690 0.950 . S
H1679 C1691 0.950 . S
C1680 H1672 0.950 . S
C1680 C1681 1.386 . S
C1680 C1682 1.391 . S
C1681 C1680 1.386 . S
C1681 C1685 1.393 . S
C1682 H1674 0.950 . S
C1682 C1680 1.391 . S
C1682 C1683 1.400 . S
C1683 C1682 1.400 . S
C1683 C1684 1.398 . S
C1683 C1689 1.491 . S
C1684 H1675 0.950 . S
C1684 C1683 1.398 . S
C1684 C1685 1.391 . S
C1685 H1673 0.950 . S
C1685 C1681 1.393 . S
C1685 C1684 1.391 . S
C1686 H1676 0.950 . S
C1686 C1687 1.386 . S
C1686 C1688 1.391 . S
C1687 C1686 1.386 . S
C1687 C1691 1.393 . S
C1688 H1677 0.950 . S
C1688 C1686 1.391 . S
C1688 C1689 1.400 . S
C1689 C1683 1.491 . S
C1689 C1688 1.400 . S
C1689 C1690 1.398 . S
C1690 H1678 0.950 . S
C1690 C1689 1.398 . S
C1690 C1691 1.391 . S
C1691 H1679 0.950 . S
C1691 C1687 1.393 . S
C1691 C1690 1.391 . S
H1692 C1700 0.950 . S
H1693 C1705 0.950 . S
H1694 C1702 0.950 . S
H1695 C1704 0.950 . S
H1696 C1706 0.950 . S
H1697 C1708 0.950 . S
H1698 C1710 0.950 . S
H1699 C1711 0.950 . S
C1700 H1692 0.950 . S
C1700 C1701 1.386 1_556 S
C1700 C1702 1.391 . S
C1701 C1700 1.386 1_554 S
C1701 C1705 1.393 . S
C1702 H1694 0.950 . S
C1702 C1700 1.391 . S
C1702 C1703 1.400 . S
C1703 C1702 1.400 . S
C1703 C1704 1.398 1_556 S
C1703 C1709 1.491 . S
C1704 H1695 0.950 . S
C1704 C1703 1.398 1_554 S
C1704 C1705 1.391 . S
C1705 H1693 0.950 . S
C1705 C1701 1.393 . S
C1705 C1704 1.391 . S
C1706 H1696 0.950 . S
C1706 C1707 1.386 . S
C1706 C1708 1.391 . S
C1707 C1706 1.386 . S
C1707 C1711 1.393 . S
C1708 H1697 0.950 . S
C1708 C1706 1.391 . S
C1708 C1709 1.400 . S
C1709 C1703 1.491 . S
C1709 C1708 1.400 . S
C1709 C1710 1.398 . S
C1710 H1698 0.950 . S
C1710 C1709 1.398 . S
C1710 C1711 1.391 . S
C1711 H1699 0.950 . S
C1711 C1707 1.393 . S
C1711 C1710 1.391 . S
H1712 C1720 0.950 . S
H1713 C1725 0.950 . S
H1714 C1722 0.950 . S
H1715 C1724 0.950 . S
H1716 C1726 0.950 . S
H1717 C1728 0.950 . S
H1718 C1730 0.950 . S
H1719 C1731 0.950 . S
C1720 H1712 0.950 . S
C1720 C1721 1.386 . S
C1720 C1722 1.391 . S
C1721 C1720 1.386 . S
C1721 C1725 1.393 . S
C1722 H1714 0.950 . S
C1722 C1720 1.391 . S
C1722 C1723 1.400 . S
C1723 C1722 1.400 . S
C1723 C1724 1.398 . S
C1723 C1729 1.491 . S
C1724 H1715 0.950 . S
C1724 C1723 1.398 . S
C1724 C1725 1.391 . S
C1725 H1713 0.950 . S
C1725 C1721 1.393 . S
C1725 C1724 1.391 . S
C1726 H1716 0.950 . S
C1726 C1727 1.386 . S
C1726 C1728 1.391 1_655 S
C1727 C1726 1.386 . S
C1727 C1731 1.393 . S
C1728 H1717 0.950 . S
C1728 C1726 1.391 1_455 S
C1728 C1729 1.400 . S
C1729 C1723 1.491 . S
C1729 C1728 1.400 . S
C1729 C1730 1.398 . S
C1730 H1718 0.950 . S
C1730 C1729 1.398 . S
C1730 C1731 1.391 1_455 S
C1731 H1719 0.950 . S
C1731 C1727 1.393 . S
C1731 C1730 1.391 1_655 S
H1732 C1740 0.950 . S
H1733 C1745 0.950 . S
H1734 C1742 0.950 . S
H1735 C1744 0.950 . S
H1736 C1746 0.950 . S
H1737 C1748 0.950 . S
H1738 C1750 0.950 . S
H1739 C1751 0.950 . S
C1740 H1732 0.950 . S
C1740 C1741 1.386 . S
C1740 C1742 1.391 . S
C1741 C1740 1.386 . S
C1741 C1745 1.393 . S
C1742 H1734 0.950 . S
C1742 C1740 1.391 . S
C1742 C1743 1.400 . S
C1743 C1742 1.400 . S
C1743 C1744 1.398 . S
C1743 C1749 1.491 . S
C1744 H1735 0.950 . S
C1744 C1743 1.398 . S
C1744 C1745 1.391 . S
C1745 H1733 0.950 . S
C1745 C1741 1.393 . S
C1745 C1744 1.391 . S
C1746 H1736 0.950 . S
C1746 C1747 1.386 . S
C1746 C1748 1.391 . S
C1747 C1746 1.386 . S
C1747 C1751 1.393 . S
C1748 H1737 0.950 . S
C1748 C1746 1.391 . S
C1748 C1749 1.400 . S
C1749 C1743 1.491 . S
C1749 C1748 1.400 . S
C1749 C1750 1.398 . S
C1750 H1738 0.950 . S
C1750 C1749 1.398 . S
C1750 C1751 1.391 . S
C1751 H1739 0.950 . S
C1751 C1747 1.393 . S
C1751 C1750 1.391 . S
H1752 C1760 0.950 . S
H1753 C1765 0.950 . S
H1754 C1762 0.950 . S
H1755 C1764 0.950 . S
H1756 C1766 0.950 . S
H1757 C1768 0.950 . S
H1758 C1770 0.950 . S
H1759 C1771 0.950 . S
C1760 H1752 0.950 . S
C1760 C1761 1.386 . S
C1760 C1762 1.391 . S
C1761 C1760 1.386 . S
C1761 C1765 1.393 . S
C1762 H1754 0.950 . S
C1762 C1760 1.391 . S
C1762 C1763 1.400 . S
C1763 C1762 1.400 . S
C1763 C1764 1.398 . S
C1763 C1769 1.491 . S
C1764 H1755 0.950 . S
C1764 C1763 1.398 . S
C1764 C1765 1.391 . S
C1765 H1753 0.950 . S
C1765 C1761 1.393 . S
C1765 C1764 1.391 . S
C1766 H1756 0.950 . S
C1766 C1767 1.386 . S
C1766 C1768 1.391 . S
C1767 C1766 1.386 . S
C1767 C1771 1.393 . S
C1768 H1757 0.950 . S
C1768 C1766 1.391 . S
C1768 C1769 1.400 . S
C1769 C1763 1.491 . S
C1769 C1768 1.400 . S
C1769 C1770 1.398 . S
C1770 H1758 0.950 . S
C1770 C1769 1.398 . S
C1770 C1771 1.391 . S
C1771 H1759 0.950 . S
C1771 C1767 1.393 . S
C1771 C1770 1.391 . S
H1772 C1780 0.950 . S
H1773 C1785 0.950 . S
H1774 C1782 0.950 . S
H1775 C1784 0.950 . S
H1776 C1786 0.950 . S
H1777 C1788 0.950 . S
H1778 C1790 0.950 . S
H1779 C1791 0.950 . S
C1780 H1772 0.950 . S
C1780 C1781 1.386 . S
C1780 C1782 1.391 1_556 S
C1781 C1780 1.386 . S
C1781 C1785 1.393 . S
C1782 H1774 0.950 . S
C1782 C1780 1.391 1_554 S
C1782 C1783 1.400 . S
C1783 C1782 1.400 . S
C1783 C1784 1.398 . S
C1783 C1789 1.491 . S
C1784 H1775 0.950 . S
C1784 C1783 1.398 . S
C1784 C1785 1.391 1_554 S
C1785 H1773 0.950 . S
C1785 C1781 1.393 . S
C1785 C1784 1.391 1_556 S
C1786 H1776 0.950 . S
C1786 C1787 1.386 . S
C1786 C1788 1.391 . S
C1787 C1786 1.386 . S
C1787 C1791 1.393 . S
C1788 H1777 0.950 . S
C1788 C1786 1.391 . S
C1788 C1789 1.400 . S
C1789 C1783 1.491 . S
C1789 C1788 1.400 . S
C1789 C1790 1.398 . S
C1790 H1778 0.950 . S
C1790 C1789 1.398 . S
C1790 C1791 1.391 . S
C1791 H1779 0.950 . S
C1791 C1787 1.393 . S
C1791 C1790 1.391 . S
H1792 C1800 0.950 . S
H1793 C1805 0.950 . S
H1794 C1802 0.950 . S
H1795 C1804 0.950 . S
H1796 C1806 0.950 . S
H1797 C1808 0.950 . S
H1798 C1810 0.950 . S
H1799 C1811 0.950 . S
C1800 H1792 0.950 . S
C1800 C1801 1.386 . S
C1800 C1802 1.391 . S
C1801 C1800 1.386 . S
C1801 C1805 1.393 . S
C1802 H1794 0.950 . S
C1802 C1800 1.391 . S
C1802 C1803 1.400 . S
C1803 C1802 1.400 . S
C1803 C1804 1.398 . S
C1803 C1809 1.491 . S
C1804 H1795 0.950 . S
C1804 C1803 1.398 . S
C1804 C1805 1.391 . S
C1805 H1793 0.950 . S
C1805 C1801 1.393 . S
C1805 C1804 1.391 . S
C1806 H1796 0.950 . S
C1806 C1807 1.386 . S
C1806 C1808 1.391 1_565 S
C1807 C1806 1.386 . S
C1807 C1811 1.393 . S
C1808 H1797 0.950 . S
C1808 C1806 1.391 1_545 S
C1808 C1809 1.400 . S
C1809 C1803 1.491 . S
C1809 C1808 1.400 . S
C1809 C1810 1.398 . S
C1810 H1798 0.950 . S
C1810 C1809 1.398 . S
C1810 C1811 1.391 1_545 S
C1811 H1799 0.950 . S
C1811 C1807 1.393 . S
C1811 C1810 1.391 1_565 S
H1812 C1820 0.950 . S
H1813 C1825 0.953 . S
H1814 C1822 0.950 . S
H1815 C1824 0.950 . S
H1816 C1826 0.950 . S
H1817 C1828 0.950 . S
H1818 C1830 0.950 . S
H1819 C1831 0.950 . S
C1820 H1812 0.950 . S
C1820 C1821 1.386 . S
C1820 C1822 1.391 1_545 S
C1821 C1820 1.386 . S
C1821 C1825 1.400 . S
C1822 H1814 0.950 . S
C1822 C1820 1.391 1_565 S
C1822 C1823 1.400 . S
C1823 C1822 1.400 . S
C1823 C1824 1.398 . S
C1823 C1829 1.491 . S
C1824 H1815 0.950 . S
C1824 C1823 1.398 . S
C1824 C1825 1.380 1_565 S
C1825 H1813 0.953 . S
C1825 C1821 1.400 . S
C1825 C1824 1.380 1_545 S
C1826 H1816 0.950 . S
C1826 C1827 1.386 . S
C1826 C1828 1.391 . S
C1827 C1826 1.386 . S
C1827 C1831 1.393 . S
C1828 H1817 0.950 . S
C1828 C1826 1.391 . S
C1828 C1829 1.400 . S
C1829 C1823 1.491 . S
C1829 C1828 1.400 . S
C1829 C1830 1.398 . S
C1830 H1818 0.950 . S
C1830 C1829 1.398 . S
C1830 C1831 1.391 . S
C1831 H1819 0.950 . S
C1831 C1827 1.393 . S
C1831 C1830 1.391 . S
H1832 C1840 0.950 . S
H1833 C1845 0.950 . S
H1834 C1842 0.950 . S
H1835 C1844 0.950 . S
H1836 C1846 0.950 . S
H1837 C1848 0.950 . S
H1838 C1850 0.950 . S
H1839 C1851 0.950 . S
C1840 H1832 0.950 . S
C1840 C1841 1.386 . S
C1840 C1842 1.391 1_545 S
C1841 C1840 1.386 . S
C1841 C1845 1.393 . S
C1842 H1834 0.950 . S
C1842 C1840 1.391 1_565 S
C1842 C1843 1.400 . S
C1843 C1842 1.400 . S
C1843 C1844 1.398 . S
C1843 C1849 1.491 . S
C1844 H1835 0.950 . S
C1844 C1843 1.398 . S
C1844 C1845 1.391 1_565 S
C1845 H1833 0.950 . S
C1845 C1841 1.393 . S
C1845 C1844 1.391 1_545 S
C1846 H1836 0.950 . S
C1846 C1847 1.386 . S
C1846 C1848 1.391 . S
C1847 C1846 1.386 . S
C1847 C1851 1.393 . S
C1848 H1837 0.950 . S
C1848 C1846 1.391 . S
C1848 C1849 1.400 . S
C1849 C1843 1.491 . S
C1849 C1848 1.400 . S
C1849 C1850 1.398 . S
C1850 H1838 0.950 . S
C1850 C1849 1.398 . S
C1850 C1851 1.391 . S
C1851 H1839 0.950 . S
C1851 C1847 1.393 . S
C1851 C1850 1.391 . S
H1852 C1860 0.950 . S
H1853 C1865 0.950 . S
H1854 C1862 0.950 . S
H1855 C1864 0.950 . S
H1856 C1866 0.950 . S
H1857 C1868 0.950 . S
H1858 C1870 0.957 . S
H1859 C1871 0.950 . S
C1860 H1852 0.950 . S
C1860 C1861 1.386 . S
C1860 C1862 1.391 . S
C1861 C1860 1.386 . S
C1861 C1865 1.393 . S
C1862 H1854 0.950 . S
C1862 C1860 1.391 . S
C1862 C1863 1.400 . S
C1863 C1862 1.400 . S
C1863 C1864 1.398 . S
C1863 C1869 1.491 . S
C1864 H1855 0.950 . S
C1864 C1863 1.398 . S
C1864 C1865 1.391 . S
C1865 H1853 0.950 . S
C1865 C1861 1.393 . S
C1865 C1864 1.391 . S
C1866 H1856 0.950 . S
C1866 C1867 1.386 1_545 S
C1866 C1868 1.391 . S
C1867 C1866 1.386 1_565 S
C1867 C1871 1.393 . S
C1868 H1857 0.950 . S
C1868 C1866 1.391 . S
C1868 C1869 1.400 . S
C1869 C1863 1.491 . S
C1869 C1868 1.400 . S
C1869 C1870 1.372 1_545 S
C1870 H1858 0.957 . S
C1870 C1869 1.372 1_565 S
C1870 C1871 1.411 . S
C1871 H1859 0.950 . S
C1871 C1867 1.393 . S
C1871 C1870 1.411 . S
H1872 C1880 0.950 . S
H1873 C1885 0.950 . S
H1874 C1882 0.950 . S
H1875 C1884 0.950 . S
H1876 C1886 0.950 . S
H1877 C1888 0.950 . S
H1878 C1890 0.950 . S
H1879 C1891 0.950 . S
C1880 H1872 0.950 . S
C1880 C1881 1.386 . S
C1880 C1882 1.391 1_554 S
C1881 C1880 1.386 . S
C1881 C1885 1.393 . S
C1882 H1874 0.950 . S
C1882 C1880 1.391 1_556 S
C1882 C1883 1.400 . S
C1883 C1882 1.400 . S
C1883 C1884 1.398 . S
C1883 C1889 1.491 . S
C1884 H1875 0.950 . S
C1884 C1883 1.398 . S
C1884 C1885 1.391 1_556 S
C1885 H1873 0.950 . S
C1885 C1881 1.393 . S
C1885 C1884 1.391 1_554 S
C1886 H1876 0.950 . S
C1886 C1887 1.386 . S
C1886 C1888 1.391 . S
C1887 C1886 1.386 . S
C1887 C1891 1.393 . S
C1888 H1877 0.950 . S
C1888 C1886 1.391 . S
C1888 C1889 1.400 . S
C1889 C1883 1.491 . S
C1889 C1888 1.400 . S
C1889 C1890 1.398 . S
C1890 H1878 0.950 . S
C1890 C1889 1.398 . S
C1890 C1891 1.391 . S
C1891 H1879 0.950 . S
C1891 C1887 1.393 . S
C1891 C1890 1.391 . S
H1892 C1900 0.950 . S
H1893 C1905 0.950 . S
H1894 C1902 0.950 . S
H1895 C1904 0.950 . S
H1896 C1906 0.950 . S
H1897 C1908 0.950 . S
H1898 C1910 0.950 . S
H1899 C1911 0.950 . S
C1900 H1892 0.950 . S
C1900 C1901 1.386 . S
C1900 C1902 1.391 . S
C1901 C1900 1.386 . S
C1901 C1905 1.393 1_455 S
C1902 H1894 0.950 . S
C1902 C1900 1.391 . S
C1902 C1903 1.400 1_455 S
C1903 C1902 1.400 1_655 S
C1903 C1904 1.398 . S
C1903 C1909 1.491 . S
C1904 H1895 0.950 . S
C1904 C1903 1.398 . S
C1904 C1905 1.391 . S
C1905 H1893 0.950 . S
C1905 C1901 1.393 1_655 S
C1905 C1904 1.391 . S
C1906 H1896 0.950 . S
C1906 C1907 1.386 . S
C1906 C1908 1.391 . S
C1907 C1906 1.386 . S
C1907 C1911 1.393 . S
C1908 H1897 0.950 . S
C1908 C1906 1.391 . S
C1908 C1909 1.400 . S
C1909 C1903 1.491 . S
C1909 C1908 1.400 . S
C1909 C1910 1.398 . S
C1910 H1898 0.950 . S
C1910 C1909 1.398 . S
C1910 C1911 1.391 . S
C1911 H1899 0.950 . S
C1911 C1907 1.393 . S
C1911 C1910 1.391 . S
H1912 C1920 0.950 . S
H1913 C1925 0.950 . S
H1914 C1922 0.950 . S
H1915 C1924 0.950 . S
H1916 C1926 0.950 . S
H1917 C1928 0.950 . S
H1918 C1930 0.950 . S
H1919 C1931 0.950 . S
C1920 H1912 0.950 . S
C1920 C1921 1.386 . S
C1920 C1922 1.391 . S
C1921 C1920 1.386 . S
C1921 C1925 1.393 . S
C1922 H1914 0.950 . S
C1922 C1920 1.391 . S
C1922 C1923 1.400 . S
C1923 C1922 1.400 . S
C1923 C1924 1.398 . S
C1923 C1929 1.491 . S
C1924 H1915 0.950 . S
C1924 C1923 1.398 . S
C1924 C1925 1.391 . S
C1925 H1913 0.950 . S
C1925 C1921 1.393 . S
C1925 C1924 1.391 . S
C1926 H1916 0.950 . S
C1926 C1927 1.386 . S
C1926 C1928 1.391 . S
C1927 C1926 1.386 . S
C1927 C1931 1.393 . S
C1928 H1917 0.950 . S
C1928 C1926 1.391 . S
C1928 C1929 1.400 . S
C1929 C1923 1.491 . S
C1929 C1928 1.400 . S
C1929 C1930 1.398 . S
C1930 H1918 0.950 . S
C1930 C1929 1.398 . S
C1930 C1931 1.391 . S
C1931 H1919 0.950 . S
C1931 C1927 1.393 . S
C1931 C1930 1.391 . S
H1932 C1940 0.950 . S
H1933 C1945 0.950 . S
H1934 C1942 0.950 . S
H1935 C1944 0.955 . S
H1936 C1946 0.950 . S
H1937 C1948 0.950 . S
H1938 C1950 0.950 . S
H1939 C1951 0.950 . S
C1940 H1932 0.950 . S
C1940 C1941 1.386 1_655 S
C1940 C1942 1.391 . S
C1941 C1940 1.386 1_455 S
C1941 C1945 1.393 . S
C1942 H1934 0.950 . S
C1942 C1940 1.391 . S
C1942 C1943 1.400 . S
C1943 C1942 1.400 . S
C1943 C1944 1.378 1_655 S
C1943 C1949 1.491 . S
C1944 H1935 0.955 . S
C1944 C1943 1.378 1_455 S
C1944 C1945 1.406 . S
C1945 H1933 0.950 . S
C1945 C1941 1.393 . S
C1945 C1944 1.406 . S
C1946 H1936 0.950 . S
C1946 C1947 1.386 . S
C1946 C1948 1.391 . S
C1947 C1946 1.386 . S
C1947 C1951 1.393 . S
C1948 H1937 0.950 . S
C1948 C1946 1.391 . S
C1948 C1949 1.400 . S
C1949 C1943 1.491 . S
C1949 C1948 1.400 . S
C1949 C1950 1.398 . S
C1950 H1938 0.950 . S
C1950 C1949 1.398 . S
C1950 C1951 1.391 . S
C1951 H1939 0.950 . S
C1951 C1947 1.393 . S
C1951 C1950 1.391 . S
H1952 C1960 0.950 . S
H1953 C1965 0.950 . S
H1954 C1962 0.950 . S
H1955 C1964 0.950 . S
H1956 C1966 0.950 . S
H1957 C1968 0.950 . S
H1958 C1970 0.950 . S
H1959 C1971 0.950 . S
C1960 H1952 0.950 . S
C1960 C1961 1.386 . S
C1960 C1962 1.391 . S
C1961 C1960 1.386 . S
C1961 C1965 1.393 . S
C1962 H1954 0.950 . S
C1962 C1960 1.391 . S
C1962 C1963 1.400 . S
C1963 C1962 1.400 . S
C1963 C1964 1.398 . S
C1963 C1969 1.491 . S
C1964 H1955 0.950 . S
C1964 C1963 1.398 . S
C1964 C1965 1.391 . S
C1965 H1953 0.950 . S
C1965 C1961 1.393 . S
C1965 C1964 1.391 . S
C1966 H1956 0.950 . S
C1966 C1967 1.386 . S
C1966 C1968 1.391 . S
C1967 C1966 1.386 . S
C1967 C1971 1.393 . S
C1968 H1957 0.950 . S
C1968 C1966 1.391 . S
C1968 C1969 1.400 . S
C1969 C1963 1.491 . S
C1969 C1968 1.400 . S
C1969 C1970 1.398 . S
C1970 H1958 0.950 . S
C1970 C1969 1.398 . S
C1970 C1971 1.391 . S
C1971 H1959 0.950 . S
C1971 C1967 1.393 . S
C1971 C1970 1.391 . S
H1972 C1980 0.950 . S
H1973 C1985 0.950 . S
H1974 C1982 0.950 . S
H1975 C1984 0.950 . S
H1976 C1986 0.950 . S
H1977 C1988 0.950 . S
H1978 C1990 0.950 . S
H1979 C1991 0.950 . S
C1980 H1972 0.950 . S
C1980 C1981 1.386 . S
C1980 C1982 1.391 . S
C1981 C1980 1.386 . S
C1981 C1985 1.393 . S
C1982 H1974 0.950 . S
C1982 C1980 1.391 . S
C1982 C1983 1.400 . S
C1983 C1982 1.400 . S
C1983 C1984 1.398 . S
C1983 C1989 1.491 . S
C1984 H1975 0.950 . S
C1984 C1983 1.398 . S
C1984 C1985 1.391 . S
C1985 H1973 0.950 . S
C1985 C1981 1.393 . S
C1985 C1984 1.391 . S
C1986 H1976 0.950 . S
C1986 C1987 1.386 . S
C1986 C1988 1.391 . S
C1987 C1986 1.386 . S
C1987 C1991 1.393 . S
C1988 H1977 0.950 . S
C1988 C1986 1.391 . S
C1988 C1989 1.400 . S
C1989 C1983 1.491 . S
C1989 C1988 1.400 . S
C1989 C1990 1.398 . S
C1990 H1978 0.950 . S
C1990 C1989 1.398 . S
C1990 C1991 1.391 . S
C1991 H1979 0.950 . S
C1991 C1987 1.393 . S
C1991 C1990 1.391 . S
H1992 C2000 0.950 . S
H1993 C2005 0.950 . S
H1994 C2002 0.950 . S
H1995 C2004 0.950 . S
H1996 C2006 0.950 . S
H1997 C2008 0.950 . S
H1998 C2010 0.950 . S
H1999 C2011 0.950 . S
C2000 H1992 0.950 . S
C2000 C2001 1.386 . S
C2000 C2002 1.391 . S
C2001 C2000 1.386 . S
C2001 C2005 1.393 . S
C2002 H1994 0.950 . S
C2002 C2000 1.391 . S
C2002 C2003 1.400 . S
C2003 C2002 1.400 . S
C2003 C2004 1.398 . S
C2003 C2009 1.491 . S
C2004 H1995 0.950 . S
C2004 C2003 1.398 . S
C2004 C2005 1.391 . S
C2005 H1993 0.950 . S
C2005 C2001 1.393 . S
C2005 C2004 1.391 . S
C2006 H1996 0.950 . S
C2006 C2007 1.386 1_554 S
C2006 C2008 1.391 . S
C2007 C2006 1.386 1_556 S
C2007 C2011 1.393 . S
C2008 H1997 0.950 . S
C2008 C2006 1.391 . S
C2008 C2009 1.400 . S
C2009 C2003 1.491 . S
C2009 C2008 1.400 . S
C2009 C2010 1.398 . S
C2010 H1998 0.950 . S
C2010 C2009 1.398 . S
C2010 C2011 1.391 1_554 S
C2011 H1999 0.950 . S
C2011 C2007 1.393 . S
C2011 C2010 1.391 1_556 S
H2012 C2020 0.950 . S
H2013 C2025 0.950 . S
H2014 C2022 0.950 . S
H2015 C2024 0.950 . S
H2016 C2026 0.950 . S
H2017 C2028 0.950 . S
H2018 C2030 0.950 . S
H2019 C2031 0.950 . S
C2020 H2012 0.950 . S
C2020 C2021 1.386 . S
C2020 C2022 1.391 . S
C2021 C2020 1.386 . S
C2021 C2025 1.393 . S
C2022 H2014 0.950 . S
C2022 C2020 1.391 . S
C2022 C2023 1.400 . S
C2023 C2022 1.400 . S
C2023 C2024 1.398 . S
C2023 C2029 1.491 . S
C2024 H2015 0.950 . S
C2024 C2023 1.398 . S
C2024 C2025 1.391 . S
C2025 H2013 0.950 . S
C2025 C2021 1.393 . S
C2025 C2024 1.391 . S
C2026 H2016 0.950 . S
C2026 C2027 1.386 . S
C2026 C2028 1.391 . S
C2027 C2026 1.386 . S
C2027 C2031 1.393 . S
C2028 H2017 0.950 . S
C2028 C2026 1.391 . S
C2028 C2029 1.400 . S
C2029 C2023 1.491 . S
C2029 C2028 1.400 . S
C2029 C2030 1.398 . S
C2030 H2018 0.950 . S
C2030 C2029 1.398 . S
C2030 C2031 1.391 . S
C2031 H2019 0.950 . S
C2031 C2027 1.393 . S
C2031 C2030 1.391 . S
H2032 C2040 0.950 . S
H2033 C2045 0.950 . S
H2034 C2042 0.950 . S
H2035 C2044 0.950 . S
H2036 C2046 0.950 . S
H2037 C2048 0.950 . S
H2038 C2050 0.950 . S
H2039 C2051 0.950 . S
C2040 H2032 0.950 . S
C2040 C2041 1.386 . S
C2040 C2042 1.391 . S
C2041 C2040 1.386 . S
C2041 C2045 1.393 . S
C2042 H2034 0.950 . S
C2042 C2040 1.391 . S
C2042 C2043 1.400 . S
C2043 C2042 1.400 . S
C2043 C2044 1.398 . S
C2043 C2049 1.491 . S
C2044 H2035 0.950 . S
C2044 C2043 1.398 . S
C2044 C2045 1.391 . S
C2045 H2033 0.950 . S
C2045 C2041 1.393 . S
C2045 C2044 1.391 . S
C2046 H2036 0.950 . S
C2046 C2047 1.386 . S
C2046 C2048 1.391 . S
C2047 C2046 1.386 . S
C2047 C2051 1.393 . S
C2048 H2037 0.950 . S
C2048 C2046 1.391 . S
C2048 C2049 1.400 . S
C2049 C2043 1.491 . S
C2049 C2048 1.400 . S
C2049 C2050 1.398 . S
C2050 H2038 0.950 . S
C2050 C2049 1.398 . S
C2050 C2051 1.391 . S
C2051 H2039 0.950 . S
C2051 C2047 1.393 . S
C2051 C2050 1.391 . S
H2052 C2060 0.950 . S
H2053 C2065 0.950 . S
H2054 C2062 0.950 . S
H2055 C2064 0.950 . S
H2056 C2066 0.950 . S
H2057 C2068 0.950 . S
H2058 C2070 0.950 . S
H2059 C2071 0.950 . S
C2060 H2052 0.950 . S
C2060 C2061 1.386 . S
C2060 C2062 1.391 . S
C2061 C2060 1.386 . S
C2061 C2065 1.393 . S
C2062 H2054 0.950 . S
C2062 C2060 1.391 . S
C2062 C2063 1.400 . S
C2063 C2062 1.400 . S
C2063 C2064 1.398 . S
C2063 C2069 1.491 . S
C2064 H2055 0.950 . S
C2064 C2063 1.398 . S
C2064 C2065 1.391 . S
C2065 H2053 0.950 . S
C2065 C2061 1.393 . S
C2065 C2064 1.391 . S
C2066 H2056 0.950 . S
C2066 C2067 1.386 . S
C2066 C2068 1.391 . S
C2067 C2066 1.386 . S
C2067 C2071 1.393 . S
C2068 H2057 0.950 . S
C2068 C2066 1.391 . S
C2068 C2069 1.400 . S
C2069 C2063 1.491 . S
C2069 C2068 1.400 . S
C2069 C2070 1.398 . S
C2070 H2058 0.950 . S
C2070 C2069 1.398 . S
C2070 C2071 1.391 . S
C2071 H2059 0.950 . S
C2071 C2067 1.393 . S
C2071 C2070 1.391 . S
H2072 C2080 0.950 . S
H2073 C2085 0.950 . S
H2074 C2082 0.950 . S
H2075 C2084 0.950 . S
H2076 C2086 0.950 . S
H2077 C2088 0.950 . S
H2078 C2090 0.950 . S
H2079 C2091 0.950 . S
C2080 H2072 0.950 . S
C2080 C2081 1.386 . S
C2080 C2082 1.391 . S
C2081 C2080 1.386 . S
C2081 C2085 1.393 . S
C2082 H2074 0.950 . S
C2082 C2080 1.391 . S
C2082 C2083 1.400 . S
C2083 C2082 1.400 . S
C2083 C2084 1.398 . S
C2083 C2089 1.491 . S
C2084 H2075 0.950 . S
C2084 C2083 1.398 . S
C2084 C2085 1.391 . S
C2085 H2073 0.950 . S
C2085 C2081 1.393 . S
C2085 C2084 1.391 . S
C2086 H2076 0.950 . S
C2086 C2087 1.386 . S
C2086 C2088 1.391 . S
C2087 C2086 1.386 . S
C2087 C2091 1.393 . S
C2088 H2077 0.950 . S
C2088 C2086 1.391 . S
C2088 C2089 1.400 . S
C2089 C2083 1.491 . S
C2089 C2088 1.400 . S
C2089 C2090 1.398 . S
C2090 H2078 0.950 . S
C2090 C2089 1.398 . S
C2090 C2091 1.391 . S
C2091 H2079 0.950 . S
C2091 C2087 1.393 . S
C2091 C2090 1.391 . S
H2092 C2100 0.950 . S
H2093 C2105 0.950 . S
H2094 C2102 0.950 . S
H2095 C2104 0.950 . S
H2096 C2106 0.950 . S
H2097 C2108 0.950 . S
H2098 C2110 0.950 . S
H2099 C2111 0.950 . S
C2100 H2092 0.950 . S
C2100 C2101 1.386 . S
C2100 C2102 1.391 . S
C2101 C2100 1.386 . S
C2101 C2105 1.393 . S
C2102 H2094 0.950 . S
C2102 C2100 1.391 . S
C2102 C2103 1.400 . S
C2103 C2102 1.400 . S
C2103 C2104 1.398 . S
C2103 C2109 1.491 . S
C2104 H2095 0.950 . S
C2104 C2103 1.398 . S
C2104 C2105 1.391 . S
C2105 H2093 0.950 . S
C2105 C2101 1.393 . S
C2105 C2104 1.391 . S
C2106 H2096 0.950 . S
C2106 C2107 1.386 . S
C2106 C2108 1.391 . S
C2107 C2106 1.386 . S
C2107 C2111 1.393 . S
C2108 H2097 0.950 . S
C2108 C2106 1.391 . S
C2108 C2109 1.400 . S
C2109 C2103 1.491 . S
C2109 C2108 1.400 . S
C2109 C2110 1.398 . S
C2110 H2098 0.950 . S
C2110 C2109 1.398 . S
C2110 C2111 1.391 . S
C2111 H2099 0.950 . S
C2111 C2107 1.393 . S
C2111 C2110 1.391 . S
H2112 C2120 0.950 . S
H2113 C2125 0.950 . S
H2114 C2122 0.950 . S
H2115 C2124 0.950 . S
H2116 C2126 0.950 . S
H2117 C2128 0.950 . S
H2118 C2130 0.950 . S
H2119 C2131 0.950 . S
C2120 H2112 0.950 . S
C2120 C2121 1.386 . S
C2120 C2122 1.391 . S
C2121 C2120 1.386 . S
C2121 C2125 1.393 . S
C2122 H2114 0.950 . S
C2122 C2120 1.391 . S
C2122 C2123 1.400 . S
C2123 C2122 1.400 . S
C2123 C2124 1.398 . S
C2123 C2129 1.491 . S
C2124 H2115 0.950 . S
C2124 C2123 1.398 . S
C2124 C2125 1.391 . S
C2125 H2113 0.950 . S
C2125 C2121 1.393 . S
C2125 C2124 1.391 . S
C2126 H2116 0.950 . S
C2126 C2127 1.386 . S
C2126 C2128 1.391 . S
C2127 C2126 1.386 . S
C2127 C2131 1.393 . S
C2128 H2117 0.950 . S
C2128 C2126 1.391 . S
C2128 C2129 1.400 . S
C2129 C2123 1.491 . S
C2129 C2128 1.400 . S
C2129 C2130 1.398 . S
C2130 H2118 0.950 . S
C2130 C2129 1.398 . S
C2130 C2131 1.391 . S
C2131 H2119 0.950 . S
C2131 C2127 1.393 . S
C2131 C2130 1.391 . S
H2132 C2140 0.950 . S
H2133 C2145 0.950 . S
H2134 C2142 0.950 . S
H2135 C2144 0.961 . S
H2136 C2146 0.950 . S
H2137 C2148 0.950 . S
H2138 C2150 0.930 1_655 S
H2139 C2151 0.950 . S
C2140 H2132 0.950 . S
C2140 C2141 1.386 . S
C2140 C2142 1.391 . S
C2141 C2140 1.386 . S
C2141 C2145 1.393 . S
C2142 H2134 0.950 . S
C2142 C2140 1.391 . S
C2142 C2143 1.400 . S
C2143 C2142 1.400 . S
C2143 C2144 1.398 . S
C2143 C2149 1.491 1_655 S
C2144 H2135 0.961 . S
C2144 C2143 1.398 . S
C2144 C2145 1.391 . S
C2145 H2133 0.950 . S
C2145 C2141 1.393 . S
C2145 C2144 1.391 . S
C2146 H2136 0.950 . S
C2146 C2147 1.386 . S
C2146 C2148 1.391 . S
C2147 C2146 1.386 . S
C2147 C2151 1.393 . S
C2148 H2137 0.950 . S
C2148 C2146 1.391 . S
C2148 C2149 1.400 . S
C2149 C2143 1.491 1_455 S
C2149 C2148 1.400 . S
C2149 C2150 1.401 . S
C2150 H2138 0.930 1_455 S
C2150 C2149 1.401 . S
C2150 C2151 1.409 . S
C2151 H2139 0.950 . S
C2151 C2147 1.393 . S
C2151 C2150 1.409 . S
H2152 C2160 0.950 . S
H2153 C2165 0.950 . S
H2154 C2162 0.950 . S
H2155 C2164 0.950 . S
H2156 C2166 0.950 . S
H2157 C2168 0.950 . S
H2158 C2170 0.950 . S
H2159 C2171 0.950 . S
C2160 H2152 0.950 . S
C2160 C2161 1.386 . S
C2160 C2162 1.391 . S
C2161 C2160 1.386 . S
C2161 C2165 1.393 . S
C2162 H2154 0.950 . S
C2162 C2160 1.391 . S
C2162 C2163 1.400 . S
C2163 C2162 1.400 . S
C2163 C2164 1.398 . S
C2163 C2169 1.491 . S
C2164 H2155 0.950 . S
C2164 C2163 1.398 . S
C2164 C2165 1.391 . S
C2165 H2153 0.950 . S
C2165 C2161 1.393 . S
C2165 C2164 1.391 . S
C2166 H2156 0.950 . S
C2166 C2167 1.386 . S
C2166 C2168 1.391 . S
C2167 C2166 1.386 . S
C2167 C2171 1.393 . S
C2168 H2157 0.950 . S
C2168 C2166 1.391 . S
C2168 C2169 1.400 . S
C2169 C2163 1.491 . S
C2169 C2168 1.400 . S
C2169 C2170 1.398 . S
C2170 H2158 0.950 . S
C2170 C2169 1.398 . S
C2170 C2171 1.391 . S
C2171 H2159 0.950 . S
C2171 C2167 1.393 . S
C2171 C2170 1.391 . S
H2172 C2180 0.950 . S
H2173 C2185 0.950 . S
H2174 C2182 0.950 . S
H2175 C2184 0.950 . S
H2176 C2186 0.950 . S
H2177 C2188 0.950 . S
H2178 C2190 0.950 . S
H2179 C2191 0.950 . S
C2180 H2172 0.950 . S
C2180 C2181 1.386 1_556 S
C2180 C2182 1.391 . S
C2181 C2180 1.386 1_554 S
C2181 C2185 1.393 . S
C2182 H2174 0.950 . S
C2182 C2180 1.391 . S
C2182 C2183 1.400 . S
C2183 C2182 1.400 . S
C2183 C2184 1.398 . S
C2183 C2189 1.491 . S
C2184 H2175 0.950 . S
C2184 C2183 1.398 . S
C2184 C2185 1.391 1_556 S
C2185 H2173 0.950 . S
C2185 C2181 1.393 . S
C2185 C2184 1.391 1_554 S
C2186 H2176 0.950 . S
C2186 C2187 1.386 . S
C2186 C2188 1.391 . S
C2187 C2186 1.386 . S
C2187 C2191 1.393 . S
C2188 H2177 0.950 . S
C2188 C2186 1.391 . S
C2188 C2189 1.400 . S
C2189 C2183 1.491 . S
C2189 C2188 1.400 . S
C2189 C2190 1.398 . S
C2190 H2178 0.950 . S
C2190 C2189 1.398 . S
C2190 C2191 1.391 . S
C2191 H2179 0.950 . S
C2191 C2187 1.393 . S
C2191 C2190 1.391 . S
H2192 C2200 0.950 . S
H2193 C2205 0.950 . S
H2194 C2202 0.950 . S
H2195 C2204 0.950 . S
H2196 C2206 0.950 . S
H2197 C2208 0.950 . S
H2198 C2210 0.950 . S
H2199 C2211 0.950 . S
C2200 H2192 0.950 . S
C2200 C2201 1.386 . S
C2200 C2202 1.391 . S
C2201 C2200 1.386 . S
C2201 C2205 1.393 . S
C2202 H2194 0.950 . S
C2202 C2200 1.391 . S
C2202 C2203 1.400 . S
C2203 C2202 1.400 . S
C2203 C2204 1.398 . S
C2203 C2209 1.491 . S
C2204 H2195 0.950 . S
C2204 C2203 1.398 . S
C2204 C2205 1.391 . S
C2205 H2193 0.950 . S
C2205 C2201 1.393 . S
C2205 C2204 1.391 . S
C2206 H2196 0.950 . S
C2206 C2207 1.386 . S
C2206 C2208 1.391 . S
C2207 C2206 1.386 . S
C2207 C2211 1.393 . S
C2208 H2197 0.950 . S
C2208 C2206 1.391 . S
C2208 C2209 1.400 . S
C2209 C2203 1.491 . S
C2209 C2208 1.400 . S
C2209 C2210 1.398 . S
C2210 H2198 0.950 . S
C2210 C2209 1.398 . S
C2210 C2211 1.391 . S
C2211 H2199 0.950 . S
C2211 C2207 1.393 . S
C2211 C2210 1.391 . S
H2212 C2220 0.950 . S
H2213 C2225 0.950 . S
H2214 C2222 0.950 . S
H2215 C2224 0.950 . S
H2216 C2226 0.950 . S
H2217 C2228 0.950 . S
H2218 C2230 0.950 . S
H2219 C2231 0.950 . S
C2220 H2212 0.950 . S
C2220 C2221 1.386 . S
C2220 C2222 1.391 . S
C2221 C2220 1.386 . S
C2221 C2225 1.393 . S
C2222 H2214 0.950 . S
C2222 C2220 1.391 . S
C2222 C2223 1.400 . S
C2223 C2222 1.400 . S
C2223 C2224 1.398 . S
C2223 C2229 1.491 . S
C2224 H2215 0.950 . S
C2224 C2223 1.398 . S
C2224 C2225 1.391 . S
C2225 H2213 0.950 . S
C2225 C2221 1.393 . S
C2225 C2224 1.391 . S
C2226 H2216 0.950 . S
C2226 C2227 1.386 . S
C2226 C2228 1.391 . S
C2227 C2226 1.386 . S
C2227 C2231 1.393 . S
C2228 H2217 0.950 . S
C2228 C2226 1.391 . S
C2228 C2229 1.400 . S
C2229 C2223 1.491 . S
C2229 C2228 1.400 . S
C2229 C2230 1.398 . S
C2230 H2218 0.950 . S
C2230 C2229 1.398 . S
C2230 C2231 1.391 . S
C2231 H2219 0.950 . S
C2231 C2227 1.393 . S
C2231 C2230 1.391 . S
H2232 C2240 0.950 . S
H2233 C2245 0.950 . S
H2234 C2242 0.950 . S
H2235 C2244 0.950 . S
H2236 C2246 0.950 . S
H2237 C2248 0.950 . S
H2238 C2250 0.950 . S
H2239 C2251 0.950 . S
C2240 H2232 0.950 . S
C2240 C2241 1.386 . S
C2240 C2242 1.391 . S
C2241 C2240 1.386 . S
C2241 C2245 1.393 . S
C2242 H2234 0.950 . S
C2242 C2240 1.391 . S
C2242 C2243 1.400 . S
C2243 C2242 1.400 . S
C2243 C2244 1.398 . S
C2243 C2249 1.491 . S
C2244 H2235 0.950 . S
C2244 C2243 1.398 . S
C2244 C2245 1.391 . S
C2245 H2233 0.950 . S
C2245 C2241 1.393 . S
C2245 C2244 1.391 . S
C2246 H2236 0.950 . S
C2246 C2247 1.386 . S
C2246 C2248 1.391 . S
C2247 C2246 1.386 . S
C2247 C2251 1.393 . S
C2248 H2237 0.950 . S
C2248 C2246 1.391 . S
C2248 C2249 1.400 . S
C2249 C2243 1.491 . S
C2249 C2248 1.400 . S
C2249 C2250 1.398 . S
C2250 H2238 0.950 . S
C2250 C2249 1.398 . S
C2250 C2251 1.391 . S
C2251 H2239 0.950 . S
C2251 C2247 1.393 . S
C2251 C2250 1.391 . S
H2252 C2260 0.950 . S
H2253 C2265 0.950 . S
H2254 C2262 0.950 1_655 S
H2255 C2264 0.950 . S
H2256 C2266 0.950 . S
H2257 C2268 0.950 . S
H2258 C2270 0.950 . S
H2259 C2271 0.950 . S
C2260 H2252 0.950 . S
C2260 C2261 1.386 . S
C2260 C2262 1.391 1_556 S
C2261 C2260 1.386 . S
C2261 C2265 1.393 1_556 S
C2262 H2254 0.950 1_455 S
C2262 C2260 1.391 1_554 S
C2262 C2263 1.400 . S
C2263 C2262 1.400 . S
C2263 C2264 1.398 . S
C2263 C2269 1.491 1_455 S
C2264 H2255 0.950 . S
C2264 C2263 1.398 . S
C2264 C2265 1.391 . S
C2265 H2253 0.950 . S
C2265 C2261 1.393 1_554 S
C2265 C2264 1.391 . S
C2266 H2256 0.950 . S
C2266 C2267 1.386 . S
C2266 C2268 1.391 . S
C2267 C2266 1.386 . S
C2267 C2271 1.393 . S
C2268 H2257 0.950 . S
C2268 C2266 1.391 . S
C2268 C2269 1.400 . S
C2269 C2263 1.491 1_655 S
C2269 C2268 1.400 . S
C2269 C2270 1.398 . S
C2270 H2258 0.950 . S
C2270 C2269 1.398 . S
C2270 C2271 1.391 . S
C2271 H2259 0.950 . S
C2271 C2267 1.393 . S
C2271 C2270 1.391 . S
H2272 C2280 0.950 . S
H2273 C2285 0.950 . S
H2274 C2282 0.950 . S
H2275 C2284 0.950 . S
H2276 C2286 0.950 . S
H2277 C2288 0.950 . S
H2278 C2290 0.950 . S
H2279 C2291 0.950 . S
C2280 H2272 0.950 . S
C2280 C2281 1.386 . S
C2280 C2282 1.391 . S
C2281 C2280 1.386 . S
C2281 C2285 1.393 . S
C2282 H2274 0.950 . S
C2282 C2280 1.391 . S
C2282 C2283 1.400 . S
C2283 C2282 1.400 . S
C2283 C2284 1.398 . S
C2283 C2289 1.491 . S
C2284 H2275 0.950 . S
C2284 C2283 1.398 . S
C2284 C2285 1.391 . S
C2285 H2273 0.950 . S
C2285 C2281 1.393 . S
C2285 C2284 1.391 . S
C2286 H2276 0.950 . S
C2286 C2287 1.386 . S
C2286 C2288 1.391 . S
C2287 C2286 1.386 . S
C2287 C2291 1.393 . S
C2288 H2277 0.950 . S
C2288 C2286 1.391 . S
C2288 C2289 1.400 . S
C2289 C2283 1.491 . S
C2289 C2288 1.400 . S
C2289 C2290 1.398 . S
C2290 H2278 0.950 . S
C2290 C2289 1.398 . S
C2290 C2291 1.391 . S
C2291 H2279 0.950 . S
C2291 C2287 1.393 . S
C2291 C2290 1.391 . S
H2292 C2300 0.950 . S
H2293 C2305 0.950 . S
H2294 C2302 0.950 . S
H2295 C2304 0.950 . S
H2296 C2306 0.950 . S
H2297 C2308 0.950 . S
H2298 C2310 0.950 . S
H2299 C2311 0.950 . S
C2300 H2292 0.950 . S
C2300 C2301 1.386 . S
C2300 C2302 1.391 . S
C2301 C2300 1.386 . S
C2301 C2305 1.393 . S
C2302 H2294 0.950 . S
C2302 C2300 1.391 . S
C2302 C2303 1.400 . S
C2303 C2302 1.400 . S
C2303 C2304 1.398 . S
C2303 C2309 1.491 . S
C2304 H2295 0.950 . S
C2304 C2303 1.398 . S
C2304 C2305 1.391 . S
C2305 H2293 0.950 . S
C2305 C2301 1.393 . S
C2305 C2304 1.391 . S
C2306 H2296 0.950 . S
C2306 C2307 1.386 1_565 S
C2306 C2308 1.391 . S
C2307 C2306 1.386 1_545 S
C2307 C2311 1.393 . S
C2308 H2297 0.950 . S
C2308 C2306 1.391 . S
C2308 C2309 1.400 . S
C2309 C2303 1.491 . S
C2309 C2308 1.400 . S
C2309 C2310 1.398 . S
C2310 H2298 0.950 . S
C2310 C2309 1.398 . S
C2310 C2311 1.391 1_565 S
C2311 H2299 0.950 . S
C2311 C2307 1.393 . S
C2311 C2310 1.391 1_545 S
H2312 C2320 0.950 . S
H2313 C2325 0.950 . S
H2314 C2322 0.950 . S
H2315 C2324 0.950 . S
H2316 C2326 0.950 . S
H2317 C2328 0.950 . S
H2318 C2330 0.950 . S
H2319 C2331 0.950 . S
C2320 H2312 0.950 . S
C2320 C2321 1.386 . S
C2320 C2322 1.391 . S
C2321 C2320 1.386 . S
C2321 C2325 1.393 . S
C2322 H2314 0.950 . S
C2322 C2320 1.391 . S
C2322 C2323 1.400 . S
C2323 C2322 1.400 . S
C2323 C2324 1.398 . S
C2323 C2329 1.491 . S
C2324 H2315 0.950 . S
C2324 C2323 1.398 . S
C2324 C2325 1.391 . S
C2325 H2313 0.950 . S
C2325 C2321 1.393 . S
C2325 C2324 1.391 . S
C2326 H2316 0.950 . S
C2326 C2327 1.386 . S
C2326 C2328 1.391 . S
C2327 C2326 1.386 . S
C2327 C2331 1.393 . S
C2328 H2317 0.950 . S
C2328 C2326 1.391 . S
C2328 C2329 1.400 . S
C2329 C2323 1.491 . S
C2329 C2328 1.400 . S
C2329 C2330 1.398 . S
C2330 H2318 0.950 . S
C2330 C2329 1.398 . S
C2330 C2331 1.391 . S
C2331 H2319 0.950 . S
C2331 C2327 1.393 . S
C2331 C2330 1.391 . S
H2332 C2340 0.950 . S
H2333 C2345 0.950 . S
H2334 C2342 0.950 . S
H2335 C2344 0.950 . S
H2336 C2346 0.950 . S
H2337 C2348 0.950 1_554 S
H2338 C2350 0.950 . S
H2339 C2351 0.950 . S
C2340 H2332 0.950 . S
C2340 C2341 1.386 . S
C2340 C2342 1.391 . S
C2341 C2340 1.386 . S
C2341 C2345 1.393 . S
C2342 H2334 0.950 . S
C2342 C2340 1.391 . S
C2342 C2343 1.400 . S
C2343 C2342 1.400 . S
C2343 C2344 1.398 . S
C2343 C2349 1.491 1_554 S
C2344 H2335 0.950 . S
C2344 C2343 1.398 . S
C2344 C2345 1.391 . S
C2345 H2333 0.950 . S
C2345 C2341 1.393 . S
C2345 C2344 1.391 . S
C2346 H2336 0.950 . S
C2346 C2347 1.386 . S
C2346 C2348 1.391 1_565 S
C2347 C2346 1.386 . S
C2347 C2351 1.393 1_565 S
C2348 H2337 0.950 1_556 S
C2348 C2346 1.391 1_545 S
C2348 C2349 1.400 . S
C2349 C2343 1.491 1_556 S
C2349 C2348 1.400 . S
C2349 C2350 1.398 . S
C2350 H2338 0.950 . S
C2350 C2349 1.398 . S
C2350 C2351 1.391 . S
C2351 H2339 0.950 . S
C2351 C2347 1.393 1_545 S
C2351 C2350 1.391 . S
H2352 C2360 0.950 . S
H2353 C2365 0.950 . S
H2354 C2362 0.950 . S
H2355 C2364 0.950 . S
H2356 C2366 0.950 . S
H2357 C2368 0.950 . S
H2358 C2370 0.950 . S
H2359 C2371 0.950 . S
C2360 H2352 0.950 . S
C2360 C2361 1.386 . S
C2360 C2362 1.391 . S
C2361 C2360 1.386 . S
C2361 C2365 1.393 . S
C2362 H2354 0.950 . S
C2362 C2360 1.391 . S
C2362 C2363 1.400 . S
C2363 C2362 1.400 . S
C2363 C2364 1.398 . S
C2363 C2369 1.491 . S
C2364 H2355 0.950 . S
C2364 C2363 1.398 . S
C2364 C2365 1.391 . S
C2365 H2353 0.950 . S
C2365 C2361 1.393 . S
C2365 C2364 1.391 . S
C2366 H2356 0.950 . S
C2366 C2367 1.386 . S
C2366 C2368 1.391 . S
C2367 C2366 1.386 . S
C2367 C2371 1.393 . S
C2368 H2357 0.950 . S
C2368 C2366 1.391 . S
C2368 C2369 1.400 . S
C2369 C2363 1.491 . S
C2369 C2368 1.400 . S
C2369 C2370 1.398 . S
C2370 H2358 0.950 . S
C2370 C2369 1.398 . S
C2370 C2371 1.391 . S
C2371 H2359 0.950 . S
C2371 C2367 1.393 . S
C2371 C2370 1.391 . S
H2372 C2380 0.950 . S
H2373 C2385 0.950 . S
H2374 C2382 0.950 . S
H2375 C2384 0.950 . S
H2376 C2386 0.950 . S
H2377 C2388 0.950 . S
H2378 C2390 0.950 . S
H2379 C2391 0.950 . S
C2380 H2372 0.950 . S
C2380 C2381 1.386 . S
C2380 C2382 1.391 1_545 S
C2381 C2380 1.386 . S
C2381 C2385 1.393 1_545 S
C2382 H2374 0.950 . S
C2382 C2380 1.391 1_565 S
C2382 C2383 1.400 . S
C2383 C2382 1.400 . S
C2383 C2384 1.398 . S
C2383 C2389 1.491 . S
C2384 H2375 0.950 . S
C2384 C2383 1.398 . S
C2384 C2385 1.391 . S
C2385 H2373 0.950 . S
C2385 C2381 1.393 1_565 S
C2385 C2384 1.391 . S
C2386 H2376 0.950 . S
C2386 C2387 1.386 . S
C2386 C2388 1.391 . S
C2387 C2386 1.386 . S
C2387 C2391 1.393 . S
C2388 H2377 0.950 . S
C2388 C2386 1.391 . S
C2388 C2389 1.400 . S
C2389 C2383 1.491 . S
C2389 C2388 1.400 . S
C2389 C2390 1.398 . S
C2390 H2378 0.950 . S
C2390 C2389 1.398 . S
C2390 C2391 1.391 . S
C2391 H2379 0.950 . S
C2391 C2387 1.393 . S
C2391 C2390 1.391 . S
H2392 C2400 0.950 . S
H2393 C2405 0.950 . S
H2394 C2402 0.950 . S
H2395 C2404 0.950 . S
H2396 C2406 0.950 . S
H2397 C2408 0.950 . S
H2398 C2410 0.950 . S
H2399 C2411 0.950 . S
C2400 H2392 0.950 . S
C2400 C2401 1.386 . S
C2400 C2402 1.391 . S
C2401 C2400 1.386 . S
C2401 C2405 1.393 . S
C2402 H2394 0.950 . S
C2402 C2400 1.391 . S
C2402 C2403 1.400 . S
C2403 C2402 1.400 . S
C2403 C2404 1.398 . S
C2403 C2409 1.491 . S
C2404 H2395 0.950 . S
C2404 C2403 1.398 . S
C2404 C2405 1.391 . S
C2405 H2393 0.950 . S
C2405 C2401 1.393 . S
C2405 C2404 1.391 . S
C2406 H2396 0.950 . S
C2406 C2407 1.386 . S
C2406 C2408 1.391 . S
C2407 C2406 1.386 . S
C2407 C2411 1.393 . S
C2408 H2397 0.950 . S
C2408 C2406 1.391 . S
C2408 C2409 1.400 . S
C2409 C2403 1.491 . S
C2409 C2408 1.400 . S
C2409 C2410 1.398 . S
C2410 H2398 0.950 . S
C2410 C2409 1.398 . S
C2410 C2411 1.391 . S
C2411 H2399 0.950 . S
C2411 C2407 1.393 . S
C2411 C2410 1.391 . S
H2412 C2420 0.950 . S
H2413 C2425 0.950 1_565 S
H2414 C2422 0.950 . S
H2415 C2424 0.950 1_556 S
H2416 C2426 0.950 . S
H2417 C2428 0.950 . S
H2418 C2430 0.950 . S
H2419 C2431 0.950 . S
C2420 H2412 0.950 . S
C2420 C2421 1.386 . S
C2420 C2422 1.391 1_565 S
C2421 C2420 1.386 . S
C2421 C2425 1.393 1_565 S
C2422 H2414 0.950 . S
C2422 C2420 1.391 1_545 S
C2422 C2423 1.400 . S
C2423 C2422 1.400 . S
C2423 C2424 1.398 . S
C2423 C2429 1.491 1_554 S
C2424 H2415 0.950 1_554 S
C2424 C2423 1.398 . S
C2424 C2425 1.391 . S
C2425 H2413 0.950 1_545 S
C2425 C2421 1.393 1_545 S
C2425 C2424 1.391 . S
C2426 H2416 0.950 . S
C2426 C2427 1.386 . S
C2426 C2428 1.391 . S
C2427 C2426 1.386 . S
C2427 C2431 1.393 . S
C2428 H2417 0.950 . S
C2428 C2426 1.391 . S
C2428 C2429 1.400 . S
C2429 C2423 1.491 1_556 S
C2429 C2428 1.400 . S
C2429 C2430 1.398 . S
C2430 H2418 0.950 . S
C2430 C2429 1.398 . S
C2430 C2431 1.391 . S
C2431 H2419 0.950 . S
C2431 C2427 1.393 . S
C2431 C2430 1.391 . S
H2432 C2440 0.950 . S
H2433 C2445 0.950 . S
H2434 C2442 0.950 . S
H2435 C2444 0.950 . S
H2436 C2446 0.950 . S
H2437 C2448 0.950 . S
H2438 C2450 0.950 . S
H2439 C2451 0.950 . S
C2440 H2432 0.950 . S
C2440 C2441 1.386 . S
C2440 C2442 1.391 . S
C2441 C2440 1.386 . S
C2441 C2445 1.393 . S
C2442 H2434 0.950 . S
C2442 C2440 1.391 . S
C2442 C2443 1.400 . S
C2443 C2442 1.400 . S
C2443 C2444 1.398 . S
C2443 C2449 1.491 . S
C2444 H2435 0.950 . S
C2444 C2443 1.398 . S
C2444 C2445 1.391 . S
C2445 H2433 0.950 . S
C2445 C2441 1.393 . S
C2445 C2444 1.391 . S
C2446 H2436 0.950 . S
C2446 C2447 1.386 . S
C2446 C2448 1.391 . S
C2447 C2446 1.386 . S
C2447 C2451 1.393 . S
C2448 H2437 0.950 . S
C2448 C2446 1.391 . S
C2448 C2449 1.400 . S
C2449 C2443 1.491 . S
C2449 C2448 1.400 . S
C2449 C2450 1.398 . S
C2450 H2438 0.950 . S
C2450 C2449 1.398 . S
C2450 C2451 1.391 . S
C2451 H2439 0.950 . S
C2451 C2447 1.393 . S
C2451 C2450 1.391 . S
H2452 C2460 0.950 . S
H2453 C2465 0.950 . S
H2454 C2462 0.950 . S
H2455 C2464 0.950 . S
H2456 C2466 0.950 . S
H2457 C2468 0.950 . S
H2458 C2470 0.950 . S
H2459 C2471 0.950 . S
C2460 H2452 0.950 . S
C2460 C2461 1.386 . S
C2460 C2462 1.391 . S
C2461 C2460 1.386 . S
C2461 C2465 1.393 . S
C2462 H2454 0.950 . S
C2462 C2460 1.391 . S
C2462 C2463 1.400 . S
C2463 C2462 1.400 . S
C2463 C2464 1.398 . S
C2463 C2469 1.491 . S
C2464 H2455 0.950 . S
C2464 C2463 1.398 . S
C2464 C2465 1.391 . S
C2465 H2453 0.950 . S
C2465 C2461 1.393 . S
C2465 C2464 1.391 . S
C2466 H2456 0.950 . S
C2466 C2467 1.386 . S
C2466 C2468 1.391 . S
C2467 C2466 1.386 . S
C2467 C2471 1.393 . S
C2468 H2457 0.950 . S
C2468 C2466 1.391 . S
C2468 C2469 1.400 . S
C2469 C2463 1.491 . S
C2469 C2468 1.400 . S
C2469 C2470 1.398 . S
C2470 H2458 0.950 . S
C2470 C2469 1.398 . S
C2470 C2471 1.391 . S
C2471 H2459 0.950 . S
C2471 C2467 1.393 . S
C2471 C2470 1.391 . S
H2472 C2480 0.945 1_455 S
H2473 C2485 0.950 . S
H2474 C2482 0.950 . S
H2475 C2484 0.950 . S
H2476 C2486 0.950 . S
H2477 C2488 0.950 . S
H2478 C2490 0.950 . S
H2479 C2491 0.950 . S
C2480 H2472 0.945 1_655 S
C2480 C2481 1.386 1_655 S
C2480 C2482 1.391 . S
C2481 C2480 1.386 1_455 S
C2481 C2485 1.393 . S
C2482 H2474 0.950 . S
C2482 C2480 1.391 . S
C2482 C2483 1.400 . S
C2483 C2482 1.400 . S
C2483 C2484 1.398 . S
C2483 C2489 1.491 . S
C2484 H2475 0.950 . S
C2484 C2483 1.398 . S
C2484 C2485 1.391 1_655 S
C2485 H2473 0.950 . S
C2485 C2481 1.393 . S
C2485 C2484 1.391 1_455 S
C2486 H2476 0.950 . S
C2486 C2487 1.386 . S
C2486 C2488 1.391 . S
C2487 C2486 1.386 . S
C2487 C2491 1.393 . S
C2488 H2477 0.950 . S
C2488 C2486 1.391 . S
C2488 C2489 1.400 . S
C2489 C2483 1.491 . S
C2489 C2488 1.400 . S
C2489 C2490 1.398 . S
C2490 H2478 0.950 . S
C2490 C2489 1.398 . S
C2490 C2491 1.391 . S
C2491 H2479 0.950 . S
C2491 C2487 1.393 . S
C2491 C2490 1.391 . S
H2492 C2500 0.950 . S
H2493 C2505 0.950 . S
H2494 C2502 0.950 . S
H2495 C2504 0.950 . S
H2496 C2506 0.950 . S
H2497 C2508 0.950 . S
H2498 C2510 0.950 . S
H2499 C2511 0.950 . S
C2500 H2492 0.950 . S
C2500 C2501 1.386 . S
C2500 C2502 1.391 . S
C2501 C2500 1.386 . S
C2501 C2505 1.393 . S
C2502 H2494 0.950 . S
C2502 C2500 1.391 . S
C2502 C2503 1.400 . S
C2503 C2502 1.400 . S
C2503 C2504 1.398 . S
C2503 C2509 1.491 . S
C2504 H2495 0.950 . S
C2504 C2503 1.398 . S
C2504 C2505 1.391 . S
C2505 H2493 0.950 . S
C2505 C2501 1.393 . S
C2505 C2504 1.391 . S
C2506 H2496 0.950 . S
C2506 C2507 1.386 . S
C2506 C2508 1.391 . S
C2507 C2506 1.386 . S
C2507 C2511 1.393 . S
C2508 H2497 0.950 . S
C2508 C2506 1.391 . S
C2508 C2509 1.400 . S
C2509 C2503 1.491 . S
C2509 C2508 1.400 . S
C2509 C2510 1.398 . S
C2510 H2498 0.950 . S
C2510 C2509 1.398 . S
C2510 C2511 1.391 . S
C2511 H2499 0.950 . S
C2511 C2507 1.393 . S
C2511 C2510 1.391 . S
H2512 C2520 0.950 . S
H2513 C2525 0.950 . S
H2514 C2522 0.950 . S
H2515 C2524 0.950 1_565 S
H2516 C2526 0.950 . S
H2517 C2528 0.950 . S
H2518 C2530 0.950 . S
H2519 C2531 0.950 . S
C2520 H2512 0.950 . S
C2520 C2521 1.386 1_455 S
C2520 C2522 1.391 . S
C2521 C2520 1.386 1_655 S
C2521 C2525 1.393 . S
C2522 H2514 0.950 . S
C2522 C2520 1.391 . S
C2522 C2523 1.400 . S
C2523 C2522 1.400 . S
C2523 C2524 1.398 . S
C2523 C2529 1.491 1_545 S
C2524 H2515 0.950 1_545 S
C2524 C2523 1.398 . S
C2524 C2525 1.391 1_455 S
C2525 H2513 0.950 . S
C2525 C2521 1.393 . S
C2525 C2524 1.391 1_655 S
C2526 H2516 0.950 . S
C2526 C2527 1.386 . S
C2526 C2528 1.391 . S
C2527 C2526 1.386 . S
C2527 C2531 1.393 . S
C2528 H2517 0.950 . S
C2528 C2526 1.391 . S
C2528 C2529 1.400 . S
C2529 C2523 1.491 1_565 S
C2529 C2528 1.400 . S
C2529 C2530 1.398 . S
C2530 H2518 0.950 . S
C2530 C2529 1.398 . S
C2530 C2531 1.391 . S
C2531 H2519 0.950 . S
C2531 C2527 1.393 . S
C2531 C2530 1.391 . S
H2532 C2540 0.950 . S
H2533 C2545 0.950 . S
H2534 C2542 0.950 . S
H2535 C2544 0.950 . S
H2536 C2546 0.950 . S
H2537 C2548 0.950 . S
H2538 C2550 0.950 . S
H2539 C2551 0.950 . S
C2540 H2532 0.950 . S
C2540 C2541 1.386 . S
C2540 C2542 1.391 . S
C2541 C2540 1.386 . S
C2541 C2545 1.393 . S
C2542 H2534 0.950 . S
C2542 C2540 1.391 . S
C2542 C2543 1.400 . S
C2543 C2542 1.400 . S
C2543 C2544 1.398 . S
C2543 C2549 1.491 . S
C2544 H2535 0.950 . S
C2544 C2543 1.398 . S
C2544 C2545 1.391 . S
C2545 H2533 0.950 . S
C2545 C2541 1.393 . S
C2545 C2544 1.391 . S
C2546 H2536 0.950 . S
C2546 C2547 1.386 . S
C2546 C2548 1.391 . S
C2547 C2546 1.386 . S
C2547 C2551 1.393 . S
C2548 H2537 0.950 . S
C2548 C2546 1.391 . S
C2548 C2549 1.400 . S
C2549 C2543 1.491 . S
C2549 C2548 1.400 . S
C2549 C2550 1.398 . S
C2550 H2538 0.950 . S
C2550 C2549 1.398 . S
C2550 C2551 1.391 . S
C2551 H2539 0.950 . S
C2551 C2547 1.393 . S
C2551 C2550 1.391 . S
H2552 C2560 0.950 . S
H2553 C2565 0.950 . S
H2554 C2562 0.950 . S
H2555 C2564 0.950 . S
H2556 C2566 0.950 . S
H2557 C2568 0.950 . S
H2558 C2570 0.950 . S
H2559 C2571 0.950 . S
C2560 H2552 0.950 . S
C2560 C2561 1.386 . S
C2560 C2562 1.391 . S
C2561 C2560 1.386 . S
C2561 C2565 1.393 . S
C2562 H2554 0.950 . S
C2562 C2560 1.391 . S
C2562 C2563 1.400 . S
C2563 C2562 1.400 . S
C2563 C2564 1.398 . S
C2563 C2569 1.491 . S
C2564 H2555 0.950 . S
C2564 C2563 1.398 . S
C2564 C2565 1.391 . S
C2565 H2553 0.950 . S
C2565 C2561 1.393 . S
C2565 C2564 1.391 . S
C2566 H2556 0.950 . S
C2566 C2567 1.386 1_655 S
C2566 C2568 1.391 . S
C2567 C2566 1.386 1_455 S
C2567 C2571 1.393 . S
C2568 H2557 0.950 . S
C2568 C2566 1.391 . S
C2568 C2569 1.400 . S
C2569 C2563 1.491 . S
C2569 C2568 1.400 . S
C2569 C2570 1.398 . S
C2570 H2558 0.950 . S
C2570 C2569 1.398 . S
C2570 C2571 1.391 1_655 S
C2571 H2559 0.950 . S
C2571 C2567 1.393 . S
C2571 C2570 1.391 1_455 S
H2572 C2580 0.950 . S
H2573 C2585 0.950 . S
H2574 C2582 0.950 . S
H2575 C2584 0.950 . S
H2576 C2586 0.950 . S
H2577 C2588 0.950 . S
H2578 C2590 0.950 . S
H2579 C2591 0.950 . S
C2580 H2572 0.950 . S
C2580 C2581 1.386 . S
C2580 C2582 1.391 . S
C2581 C2580 1.386 . S
C2581 C2585 1.393 . S
C2582 H2574 0.950 . S
C2582 C2580 1.391 . S
C2582 C2583 1.400 . S
C2583 C2582 1.400 . S
C2583 C2584 1.398 . S
C2583 C2589 1.491 . S
C2584 H2575 0.950 . S
C2584 C2583 1.398 . S
C2584 C2585 1.391 . S
C2585 H2573 0.950 . S
C2585 C2581 1.393 . S
C2585 C2584 1.391 . S
C2586 H2576 0.950 . S
C2586 C2587 1.386 . S
C2586 C2588 1.391 . S
C2587 C2586 1.386 . S
C2587 C2591 1.393 . S
C2588 H2577 0.950 . S
C2588 C2586 1.391 . S
C2588 C2589 1.400 . S
C2589 C2583 1.491 . S
C2589 C2588 1.400 . S
C2589 C2590 1.398 . S
C2590 H2578 0.950 . S
C2590 C2589 1.398 . S
C2590 C2591 1.391 . S
C2591 H2579 0.950 . S
C2591 C2587 1.393 . S
C2591 C2590 1.391 . S
H2592 C2600 0.950 . S
H2593 C2605 0.950 . S
H2594 C2602 0.950 . S
H2595 C2604 0.950 . S
H2596 C2606 0.950 . S
H2597 C2608 0.950 . S
H2598 C2610 0.950 . S
H2599 C2611 0.950 . S
C2600 H2592 0.950 . S
C2600 C2601 1.386 . S
C2600 C2602 1.391 . S
C2601 C2600 1.386 . S
C2601 C2605 1.393 . S
C2602 H2594 0.950 . S
C2602 C2600 1.391 . S
C2602 C2603 1.400 . S
C2603 C2602 1.400 . S
C2603 C2604 1.398 . S
C2603 C2609 1.491 . S
C2604 H2595 0.950 . S
C2604 C2603 1.398 . S
C2604 C2605 1.391 . S
C2605 H2593 0.950 . S
C2605 C2601 1.393 . S
C2605 C2604 1.391 . S
C2606 H2596 0.950 . S
C2606 C2607 1.386 . S
C2606 C2608 1.391 . S
C2607 C2606 1.386 . S
C2607 C2611 1.393 . S
C2608 H2597 0.950 . S
C2608 C2606 1.391 . S
C2608 C2609 1.400 . S
C2609 C2603 1.491 . S
C2609 C2608 1.400 . S
C2609 C2610 1.398 . S
C2610 H2598 0.950 . S
C2610 C2609 1.398 . S
C2610 C2611 1.391 . S
C2611 H2599 0.950 . S
C2611 C2607 1.393 . S
C2611 C2610 1.391 . S
H2612 C2620 0.950 . S
H2613 C2625 0.950 1_554 S
H2614 C2622 0.950 . S
H2615 C2624 0.950 . S
H2616 C2626 0.950 . S
H2617 C2628 0.950 . S
H2618 C2630 0.950 . S
H2619 C2631 0.950 . S
C2620 H2612 0.950 . S
C2620 C2621 1.386 . S
C2620 C2622 1.391 1_554 S
C2621 C2620 1.386 . S
C2621 C2625 1.393 1_554 S
C2622 H2614 0.950 . S
C2622 C2620 1.391 1_556 S
C2622 C2623 1.400 . S
C2623 C2622 1.400 . S
C2623 C2624 1.398 . S
C2623 C2629 1.491 . S
C2624 H2615 0.950 . S
C2624 C2623 1.398 . S
C2624 C2625 1.391 . S
C2625 H2613 0.950 1_556 S
C2625 C2621 1.393 1_556 S
C2625 C2624 1.391 . S
C2626 H2616 0.950 . S
C2626 C2627 1.386 . S
C2626 C2628 1.391 . S
C2627 C2626 1.386 . S
C2627 C2631 1.393 . S
C2628 H2617 0.950 . S
C2628 C2626 1.391 . S
C2628 C2629 1.400 . S
C2629 C2623 1.491 . S
C2629 C2628 1.400 . S
C2629 C2630 1.398 . S
C2630 H2618 0.950 . S
C2630 C2629 1.398 . S
C2630 C2631 1.391 . S
C2631 H2619 0.950 . S
C2631 C2627 1.393 . S
C2631 C2630 1.391 . S
H2632 C2640 0.950 . S
H2633 C2645 0.950 . S
H2634 C2642 0.950 . S
H2635 C2644 0.950 . S
H2636 C2646 0.950 . S
H2637 C2648 0.950 . S
H2638 C2650 0.950 . S
H2639 C2651 0.950 . S
C2640 H2632 0.950 . S
C2640 C2641 1.386 . S
C2640 C2642 1.391 . S
C2641 C2640 1.386 . S
C2641 C2645 1.393 . S
C2642 H2634 0.950 . S
C2642 C2640 1.391 . S
C2642 C2643 1.400 . S
C2643 C2642 1.400 . S
C2643 C2644 1.398 . S
C2643 C2649 1.491 . S
C2644 H2635 0.950 . S
C2644 C2643 1.398 . S
C2644 C2645 1.391 . S
C2645 H2633 0.950 . S
C2645 C2641 1.393 . S
C2645 C2644 1.391 . S
C2646 H2636 0.950 . S
C2646 C2647 1.386 . S
C2646 C2648 1.391 . S
C2647 C2646 1.386 . S
C2647 C2651 1.393 . S
C2648 H2637 0.950 . S
C2648 C2646 1.391 . S
C2648 C2649 1.400 . S
C2649 C2643 1.491 . S
C2649 C2648 1.400 . S
C2649 C2650 1.398 . S
C2650 H2638 0.950 . S
C2650 C2649 1.398 . S
C2650 C2651 1.391 . S
C2651 H2639 0.950 . S
C2651 C2647 1.393 . S
C2651 C2650 1.391 . S
H2652 C2660 0.950 . S
H2653 C2665 0.950 . S
H2654 C2662 0.950 . S
H2655 C2664 0.950 . S
H2656 C2666 0.950 . S
H2657 C2668 0.950 1_655 S
H2658 C2670 0.950 . S
H2659 C2671 0.950 . S
C2660 H2652 0.950 . S
C2660 C2661 1.386 . S
C2660 C2662 1.391 1_655 S
C2661 C2660 1.386 . S
C2661 C2665 1.393 . S
C2662 H2654 0.950 . S
C2662 C2660 1.391 1_455 S
C2662 C2663 1.400 1_455 S
C2663 C2662 1.400 1_655 S
C2663 C2664 1.398 . S
C2663 C2669 1.491 1_655 S
C2664 H2655 0.950 . S
C2664 C2663 1.398 . S
C2664 C2665 1.391 . S
C2665 H2653 0.950 . S
C2665 C2661 1.393 . S
C2665 C2664 1.391 . S
C2666 H2656 0.950 . S
C2666 C2667 1.386 . S
C2666 C2668 1.391 . S
C2667 C2666 1.386 . S
C2667 C2671 1.393 . S
C2668 H2657 0.950 1_455 S
C2668 C2666 1.391 . S
C2668 C2669 1.400 . S
C2669 C2663 1.491 1_455 S
C2669 C2668 1.400 . S
C2669 C2670 1.398 . S
C2670 H2658 0.950 . S
C2670 C2669 1.398 . S
C2670 C2671 1.391 . S
C2671 H2659 0.950 . S
C2671 C2667 1.393 . S
C2671 C2670 1.391 . S
H2672 C2680 0.950 . S
H2673 C2685 0.950 . S
H2674 C2682 0.950 . S
H2675 C2684 0.950 . S
H2676 C2686 0.950 . S
H2677 C2688 0.950 . S
H2678 C2690 0.950 . S
H2679 C2691 0.950 . S
C2680 H2672 0.950 . S
C2680 C2681 1.386 . S
C2680 C2682 1.391 . S
C2681 C2680 1.386 . S
C2681 C2685 1.393 . S
C2682 H2674 0.950 . S
C2682 C2680 1.391 . S
C2682 C2683 1.400 . S
C2683 C2682 1.400 . S
C2683 C2684 1.398 . S
C2683 C2689 1.491 . S
C2684 H2675 0.950 . S
C2684 C2683 1.398 . S
C2684 C2685 1.391 . S
C2685 H2673 0.950 . S
C2685 C2681 1.393 . S
C2685 C2684 1.391 . S
C2686 H2676 0.950 . S
C2686 C2687 1.386 . S
C2686 C2688 1.391 . S
C2687 C2686 1.386 . S
C2687 C2691 1.393 . S
C2688 H2677 0.950 . S
C2688 C2686 1.391 . S
C2688 C2689 1.400 . S
C2689 C2683 1.491 . S
C2689 C2688 1.400 . S
C2689 C2690 1.398 . S
C2690 H2678 0.950 . S
C2690 C2689 1.398 . S
C2690 C2691 1.391 . S
C2691 H2679 0.950 . S
C2691 C2687 1.393 . S
C2691 C2690 1.391 . S
H2692 C2700 0.950 . S
H2693 C2705 0.945 1_556 S
H2694 C2702 0.950 . S
H2695 C2704 0.950 1_455 S
H2696 C2706 0.950 . S
H2697 C2708 0.950 . S
H2698 C2710 0.950 . S
H2699 C2711 0.950 . S
C2700 H2692 0.950 . S
C2700 C2701 1.386 . S
C2700 C2702 1.391 1_556 S
C2701 C2700 1.386 . S
C2701 C2705 1.393 1_556 S
C2702 H2694 0.950 . S
C2702 C2700 1.391 1_554 S
C2702 C2703 1.400 . S
C2703 C2702 1.400 . S
C2703 C2704 1.398 . S
C2703 C2709 1.491 1_655 S
C2704 H2695 0.950 1_655 S
C2704 C2703 1.398 . S
C2704 C2705 1.391 . S
C2705 H2693 0.945 1_554 S
C2705 C2701 1.393 1_554 S
C2705 C2704 1.391 . S
C2706 H2696 0.950 . S
C2706 C2707 1.386 . S
C2706 C2708 1.391 . S
C2707 C2706 1.386 . S
C2707 C2711 1.393 . S
C2708 H2697 0.950 . S
C2708 C2706 1.391 . S
C2708 C2709 1.400 . S
C2709 C2703 1.491 1_455 S
C2709 C2708 1.400 . S
C2709 C2710 1.398 . S
C2710 H2698 0.950 . S
C2710 C2709 1.398 . S
C2710 C2711 1.391 . S
C2711 H2699 0.950 . S
C2711 C2707 1.393 . S
C2711 C2710 1.391 . S
H2712 C2720 0.950 . S
H2713 C2725 0.950 . S
H2714 C2722 0.950 . S
H2715 C2724 0.950 . S
H2716 C2726 0.950 . S
H2717 C2728 0.950 . S
H2718 C2730 0.950 . S
H2719 C2731 0.950 . S
C2720 H2712 0.950 . S
C2720 C2721 1.386 . S
C2720 C2722 1.391 . S
C2721 C2720 1.386 . S
C2721 C2725 1.393 . S
C2722 H2714 0.950 . S
C2722 C2720 1.391 . S
C2722 C2723 1.400 . S
C2723 C2722 1.400 . S
C2723 C2724 1.398 . S
C2723 C2729 1.491 . S
C2724 H2715 0.950 . S
C2724 C2723 1.398 . S
C2724 C2725 1.391 . S
C2725 H2713 0.950 . S
C2725 C2721 1.393 . S
C2725 C2724 1.391 . S
C2726 H2716 0.950 . S
C2726 C2727 1.386 . S
C2726 C2728 1.391 . S
C2727 C2726 1.386 . S
C2727 C2731 1.393 . S
C2728 H2717 0.950 . S
C2728 C2726 1.391 . S
C2728 C2729 1.400 . S
C2729 C2723 1.491 . S
C2729 C2728 1.400 . S
C2729 C2730 1.398 . S
C2730 H2718 0.950 . S
C2730 C2729 1.398 . S
C2730 C2731 1.391 . S
C2731 H2719 0.950 . S
C2731 C2727 1.393 . S
C2731 C2730 1.391 . S
H2732 C2740 0.950 . S
H2733 C2745 0.950 . S
H2734 C2742 0.950 . S
H2735 C2744 0.950 . S
H2736 C2746 0.950 . S
H2737 C2748 0.950 . S
H2738 C2750 0.950 . S
H2739 C2751 0.950 . S
C2740 H2732 0.950 . S
C2740 C2741 1.386 . S
C2740 C2742 1.391 . S
C2741 C2740 1.386 . S
C2741 C2745 1.393 . S
C2742 H2734 0.950 . S
C2742 C2740 1.391 . S
C2742 C2743 1.400 . S
C2743 C2742 1.400 . S
C2743 C2744 1.398 . S
C2743 C2749 1.491 . S
C2744 H2735 0.950 . S
C2744 C2743 1.398 . S
C2744 C2745 1.391 . S
C2745 H2733 0.950 . S
C2745 C2741 1.393 . S
C2745 C2744 1.391 . S
C2746 H2736 0.950 . S
C2746 C2747 1.386 . S
C2746 C2748 1.391 . S
C2747 C2746 1.386 . S
C2747 C2751 1.393 . S
C2748 H2737 0.950 . S
C2748 C2746 1.391 . S
C2748 C2749 1.400 . S
C2749 C2743 1.491 . S
C2749 C2748 1.400 . S
C2749 C2750 1.398 . S
C2750 H2738 0.950 . S
C2750 C2749 1.398 . S
C2750 C2751 1.391 . S
C2751 H2739 0.950 . S
C2751 C2747 1.393 . S
C2751 C2750 1.391 . S
H2752 C2760 0.950 . S
H2753 C2765 0.950 . S
H2754 C2762 0.950 . S
H2755 C2764 0.950 . S
H2756 C2766 0.950 . S
H2757 C2768 0.950 . S
H2758 C2770 0.950 . S
H2759 C2771 0.950 . S
C2760 H2752 0.950 . S
C2760 C2761 1.386 . S
C2760 C2762 1.391 . S
C2761 C2760 1.386 . S
C2761 C2765 1.393 . S
C2762 H2754 0.950 . S
C2762 C2760 1.391 . S
C2762 C2763 1.400 . S
C2763 C2762 1.400 . S
C2763 C2764 1.398 . S
C2763 C2769 1.491 . S
C2764 H2755 0.950 . S
C2764 C2763 1.398 . S
C2764 C2765 1.391 . S
C2765 H2753 0.950 . S
C2765 C2761 1.393 . S
C2765 C2764 1.391 . S
C2766 H2756 0.950 . S
C2766 C2767 1.386 . S
C2766 C2768 1.391 . S
C2767 C2766 1.386 . S
C2767 C2771 1.393 . S
C2768 H2757 0.950 . S
C2768 C2766 1.391 . S
C2768 C2769 1.400 . S
C2769 C2763 1.491 . S
C2769 C2768 1.400 . S
C2769 C2770 1.398 . S
C2770 H2758 0.950 . S
C2770 C2769 1.398 . S
C2770 C2771 1.391 . S
C2771 H2759 0.950 . S
C2771 C2767 1.393 . S
C2771 C2770 1.391 . S
H2772 C2780 0.950 . S
H2773 C2785 0.950 . S
H2774 C2782 0.950 . S
H2775 C2784 0.950 . S
H2776 C2786 0.950 . S
H2777 C2788 0.950 1_556 S
H2778 C2790 0.950 . S
H2779 C2791 0.950 . S
C2780 H2772 0.950 . S
C2780 C2781 1.386 . S
C2780 C2782 1.391 1_556 S
C2781 C2780 1.386 . S
C2781 C2785 1.393 . S
C2782 H2774 0.950 . S
C2782 C2780 1.391 1_554 S
C2782 C2783 1.400 1_554 S
C2783 C2782 1.400 1_556 S
C2783 C2784 1.398 . S
C2783 C2789 1.491 1_556 S
C2784 H2775 0.950 . S
C2784 C2783 1.398 . S
C2784 C2785 1.391 . S
C2785 H2773 0.950 . S
C2785 C2781 1.393 . S
C2785 C2784 1.391 . S
C2786 H2776 0.950 . S
C2786 C2787 1.386 . S
C2786 C2788 1.391 . S
C2787 C2786 1.386 . S
C2787 C2791 1.393 . S
C2788 H2777 0.950 1_554 S
C2788 C2786 1.391 . S
C2788 C2789 1.400 . S
C2789 C2783 1.491 1_554 S
C2789 C2788 1.400 . S
C2789 C2790 1.398 . S
C2790 H2778 0.950 . S
C2790 C2789 1.398 . S
C2790 C2791 1.391 . S
C2791 H2779 0.950 . S
C2791 C2787 1.393 . S
C2791 C2790 1.391 . S
H2792 C2800 0.950 . S
H2793 C2805 0.950 . S
H2794 C2802 0.950 . S
H2795 C2804 0.950 . S
H2796 C2806 0.950 . S
H2797 C2808 0.950 . S
H2798 C2810 0.950 . S
H2799 C2811 0.950 . S
C2800 H2792 0.950 . S
C2800 C2801 1.386 . S
C2800 C2802 1.391 . S
C2801 C2800 1.386 . S
C2801 C2805 1.393 . S
C2802 H2794 0.950 . S
C2802 C2800 1.391 . S
C2802 C2803 1.400 . S
C2803 C2802 1.400 . S
C2803 C2804 1.398 . S
C2803 C2809 1.491 . S
C2804 H2795 0.950 . S
C2804 C2803 1.398 . S
C2804 C2805 1.391 . S
C2805 H2793 0.950 . S
C2805 C2801 1.393 . S
C2805 C2804 1.391 . S
C2806 H2796 0.950 . S
C2806 C2807 1.386 . S
C2806 C2808 1.391 . S
C2807 C2806 1.386 . S
C2807 C2811 1.393 . S
C2808 H2797 0.950 . S
C2808 C2806 1.391 . S
C2808 C2809 1.400 . S
C2809 C2803 1.491 . S
C2809 C2808 1.400 . S
C2809 C2810 1.398 . S
C2810 H2798 0.950 . S
C2810 C2809 1.398 . S
C2810 C2811 1.391 . S
C2811 H2799 0.950 . S
C2811 C2807 1.393 . S
C2811 C2810 1.391 . S
H2812 C2820 0.950 . S
H2813 C2825 0.950 . S
H2814 C2822 0.950 . S
H2815 C2824 0.950 . S
H2816 C2826 0.950 . S
H2817 C2828 0.950 . S
H2818 C2830 0.950 . S
H2819 C2831 0.950 . S
C2820 H2812 0.950 . S
C2820 C2821 1.386 . S
C2820 C2822 1.391 . S
C2821 C2820 1.386 . S
C2821 C2825 1.393 . S
C2822 H2814 0.950 . S
C2822 C2820 1.391 . S
C2822 C2823 1.400 . S
C2823 C2822 1.400 . S
C2823 C2824 1.398 . S
C2823 C2829 1.491 . S
C2824 H2815 0.950 . S
C2824 C2823 1.398 . S
C2824 C2825 1.391 . S
C2825 H2813 0.950 . S
C2825 C2821 1.393 . S
C2825 C2824 1.391 . S
C2826 H2816 0.950 . S
C2826 C2827 1.386 . S
C2826 C2828 1.391 . S
C2827 C2826 1.386 . S
C2827 C2831 1.393 . S
C2828 H2817 0.950 . S
C2828 C2826 1.391 . S
C2828 C2829 1.400 . S
C2829 C2823 1.491 . S
C2829 C2828 1.400 . S
C2829 C2830 1.398 . S
C2830 H2818 0.950 . S
C2830 C2829 1.398 . S
C2830 C2831 1.391 . S
C2831 H2819 0.950 . S
C2831 C2827 1.393 . S
C2831 C2830 1.391 . S
H2832 C2840 0.950 . S
H2833 C2845 0.950 . S
H2834 C2842 0.950 . S
H2835 C2844 0.950 . S
H2836 C2846 0.950 . S
H2837 C2848 0.950 . S
H2838 C2850 0.950 . S
H2839 C2851 0.950 . S
C2840 H2832 0.950 . S
C2840 C2841 1.386 . S
C2840 C2842 1.391 . S
C2841 C2840 1.386 . S
C2841 C2845 1.393 . S
C2842 H2834 0.950 . S
C2842 C2840 1.391 . S
C2842 C2843 1.400 . S
C2843 C2842 1.400 . S
C2843 C2844 1.398 . S
C2843 C2849 1.491 . S
C2844 H2835 0.950 . S
C2844 C2843 1.398 . S
C2844 C2845 1.391 . S
C2845 H2833 0.950 . S
C2845 C2841 1.393 . S
C2845 C2844 1.391 . S
C2846 H2836 0.950 . S
C2846 C2847 1.386 . S
C2846 C2848 1.391 . S
C2847 C2846 1.386 . S
C2847 C2851 1.393 . S
C2848 H2837 0.950 . S
C2848 C2846 1.391 . S
C2848 C2849 1.400 . S
C2849 C2843 1.491 . S
C2849 C2848 1.400 . S
C2849 C2850 1.398 . S
C2850 H2838 0.950 . S
C2850 C2849 1.398 . S
C2850 C2851 1.391 . S
C2851 H2839 0.950 . S
C2851 C2847 1.393 . S
C2851 C2850 1.391 . S
H2852 C2860 0.950 . S
H2853 C2865 0.950 . S
H2854 C2862 0.950 1_554 S
H2855 C2864 0.950 . S
H2856 C2866 0.953 . S
H2857 C2868 0.950 . S
H2858 C2870 0.950 . S
H2859 C2871 0.950 . S
C2860 H2852 0.950 . S
C2860 C2861 1.386 . S
C2860 C2862 1.391 . S
C2861 C2860 1.386 . S
C2861 C2865 1.393 . S
C2862 H2854 0.950 1_556 S
C2862 C2860 1.391 . S
C2862 C2863 1.400 . S
C2863 C2862 1.400 . S
C2863 C2864 1.398 . S
C2863 C2869 1.491 1_556 S
C2864 H2855 0.950 . S
C2864 C2863 1.398 . S
C2864 C2865 1.391 . S
C2865 H2853 0.950 . S
C2865 C2861 1.393 . S
C2865 C2864 1.391 . S
C2866 H2856 0.953 . S
C2866 C2867 1.386 . S
C2866 C2868 1.391 1_554 S
C2867 C2866 1.386 . S
C2867 C2871 1.393 . S
C2868 H2857 0.950 . S
C2868 C2866 1.391 1_556 S
C2868 C2869 1.400 1_556 S
C2869 C2863 1.491 1_554 S
C2869 C2868 1.400 1_554 S
C2869 C2870 1.398 . S
C2870 H2858 0.950 . S
C2870 C2869 1.398 . S
C2870 C2871 1.391 . S
C2871 H2859 0.950 . S
C2871 C2867 1.393 . S
C2871 C2870 1.391 . S
H2872 C2880 0.950 . S
H2873 C2885 0.950 . S
H2874 C2882 0.950 . S
H2875 C2884 0.950 . S
H2876 C2886 0.950 . S
H2877 C2888 0.950 . S
H2878 C2890 0.950 . S
H2879 C2891 0.950 . S
C2880 H2872 0.950 . S
C2880 C2881 1.386 . S
C2880 C2882 1.391 . S
C2881 C2880 1.386 . S
C2881 C2885 1.393 . S
C2882 H2874 0.950 . S
C2882 C2880 1.391 . S
C2882 C2883 1.400 . S
C2883 C2882 1.400 . S
C2883 C2884 1.398 . S
C2883 C2889 1.491 . S
C2884 H2875 0.950 . S
C2884 C2883 1.398 . S
C2884 C2885 1.391 . S
C2885 H2873 0.950 . S
C2885 C2881 1.393 . S
C2885 C2884 1.391 . S
C2886 H2876 0.950 . S
C2886 C2887 1.386 . S
C2886 C2888 1.391 . S
C2887 C2886 1.386 . S
C2887 C2891 1.393 . S
C2888 H2877 0.950 . S
C2888 C2886 1.391 . S
C2888 C2889 1.400 . S
C2889 C2883 1.491 . S
C2889 C2888 1.400 . S
C2889 C2890 1.398 . S
C2890 H2878 0.950 . S
C2890 C2889 1.398 . S
C2890 C2891 1.391 . S
C2891 H2879 0.950 . S
C2891 C2887 1.393 . S
C2891 C2890 1.391 . S
H2892 C2900 0.950 . S
H2893 C2905 0.950 . S
H2894 C2902 0.950 . S
H2895 C2904 0.950 . S
H2896 C2906 0.950 . S
H2897 C2908 0.950 . S
H2898 C2910 0.950 . S
H2899 C2911 0.950 . S
C2900 H2892 0.950 . S
C2900 C2901 1.386 . S
C2900 C2902 1.391 . S
C2901 C2900 1.386 . S
C2901 C2905 1.393 . S
C2902 H2894 0.950 . S
C2902 C2900 1.391 . S
C2902 C2903 1.400 . S
C2903 C2902 1.400 . S
C2903 C2904 1.398 . S
C2903 C2909 1.491 . S
C2904 H2895 0.950 . S
C2904 C2903 1.398 . S
C2904 C2905 1.391 . S
C2905 H2893 0.950 . S
C2905 C2901 1.393 . S
C2905 C2904 1.391 . S
C2906 H2896 0.950 . S
C2906 C2907 1.386 . S
C2906 C2908 1.391 . S
C2907 C2906 1.386 . S
C2907 C2911 1.393 . S
C2908 H2897 0.950 . S
C2908 C2906 1.391 . S
C2908 C2909 1.400 . S
C2909 C2903 1.491 . S
C2909 C2908 1.400 . S
C2909 C2910 1.398 . S
C2910 H2898 0.950 . S
C2910 C2909 1.398 . S
C2910 C2911 1.391 . S
C2911 H2899 0.950 . S
C2911 C2907 1.393 . S
C2911 C2910 1.391 . S
H2912 C2920 0.950 . S
H2913 C2925 0.950 . S
H2914 C2922 0.950 . S
H2915 C2924 0.950 . S
H2916 C2926 0.950 . S
H2917 C2928 0.950 . S
H2918 C2930 0.950 . S
H2919 C2931 0.950 . S
C2920 H2912 0.950 . S
C2920 C2921 1.386 . S
C2920 C2922 1.391 . S
C2921 C2920 1.386 . S
C2921 C2925 1.393 . S
C2922 H2914 0.950 . S
C2922 C2920 1.391 . S
C2922 C2923 1.400 . S
C2923 C2922 1.400 . S
C2923 C2924 1.398 . S
C2923 C2929 1.491 . S
C2924 H2915 0.950 . S
C2924 C2923 1.398 . S
C2924 C2925 1.391 . S
C2925 H2913 0.950 . S
C2925 C2921 1.393 . S
C2925 C2924 1.391 . S
C2926 H2916 0.950 . S
C2926 C2927 1.386 . S
C2926 C2928 1.391 . S
C2927 C2926 1.386 . S
C2927 C2931 1.393 . S
C2928 H2917 0.950 . S
C2928 C2926 1.391 . S
C2928 C2929 1.400 . S
C2929 C2923 1.491 . S
C2929 C2928 1.400 . S
C2929 C2930 1.398 . S
C2930 H2918 0.950 . S
C2930 C2929 1.398 . S
C2930 C2931 1.391 . S
C2931 H2919 0.950 . S
C2931 C2927 1.393 . S
C2931 C2930 1.391 . S
H2932 C2940 0.950 . S
H2933 C2945 0.950 . S
H2934 C2942 0.950 . S
H2935 C2944 0.950 . S
H2936 C2946 0.950 . S
H2937 C2948 0.950 . S
H2938 C2950 0.950 . S
H2939 C2951 0.950 . S
C2940 H2932 0.950 . S
C2940 C2941 1.386 . S
C2940 C2942 1.391 . S
C2941 C2940 1.386 . S
C2941 C2945 1.393 . S
C2942 H2934 0.950 . S
C2942 C2940 1.391 . S
C2942 C2943 1.400 . S
C2943 C2942 1.400 . S
C2943 C2944 1.398 . S
C2943 C2949 1.491 . S
C2944 H2935 0.950 . S
C2944 C2943 1.398 . S
C2944 C2945 1.391 . S
C2945 H2933 0.950 . S
C2945 C2941 1.393 . S
C2945 C2944 1.391 . S
C2946 H2936 0.950 . S
C2946 C2947 1.386 . S
C2946 C2948 1.391 . S
C2947 C2946 1.386 . S
C2947 C2951 1.393 . S
C2948 H2937 0.950 . S
C2948 C2946 1.391 . S
C2948 C2949 1.400 . S
C2949 C2943 1.491 . S
C2949 C2948 1.400 . S
C2949 C2950 1.398 . S
C2950 H2938 0.950 . S
C2950 C2949 1.398 . S
C2950 C2951 1.391 . S
C2951 H2939 0.950 . S
C2951 C2947 1.393 . S
C2951 C2950 1.391 . S
H2952 C2960 0.950 . S
H2953 C2965 0.950 1_545 S
H2954 C2962 0.950 . S
H2955 C2964 0.950 . S
H2956 C2966 0.950 . S
H2957 C2968 0.950 . S
H2958 C2970 0.941 1_565 S
H2959 C2971 0.950 . S
C2960 H2952 0.950 . S
C2960 C2961 1.386 . S
C2960 C2962 1.391 . S
C2961 C2960 1.386 . S
C2961 C2965 1.393 . S
C2962 H2954 0.950 . S
C2962 C2960 1.391 . S
C2962 C2963 1.400 . S
C2963 C2962 1.400 . S
C2963 C2964 1.398 1_565 S
C2963 C2969 1.491 1_565 S
C2964 H2955 0.950 . S
C2964 C2963 1.398 1_545 S
C2964 C2965 1.391 1_545 S
C2965 H2953 0.950 1_565 S
C2965 C2961 1.393 . S
C2965 C2964 1.391 1_565 S
C2966 H2956 0.950 . S
C2966 C2967 1.386 . S
C2966 C2968 1.391 . S
C2967 C2966 1.386 . S
C2967 C2971 1.393 . S
C2968 H2957 0.950 . S
C2968 C2966 1.391 . S
C2968 C2969 1.400 . S
C2969 C2963 1.491 1_545 S
C2969 C2968 1.400 . S
C2969 C2970 1.402 . S
C2970 H2958 0.941 1_545 S
C2970 C2969 1.402 . S
C2970 C2971 1.395 . S
C2971 H2959 0.950 . S
C2971 C2967 1.393 . S
C2971 C2970 1.395 . S
H2972 C2980 0.950 . S
H2973 C2985 0.950 . S
H2974 C2982 0.950 . S
H2975 C2984 0.950 . S
H2976 C2986 0.950 . S
H2977 C2988 0.950 . S
H2978 C2990 0.950 . S
H2979 C2991 0.950 . S
C2980 H2972 0.950 . S
C2980 C2981 1.386 . S
C2980 C2982 1.391 . S
C2981 C2980 1.386 . S
C2981 C2985 1.393 . S
C2982 H2974 0.950 . S
C2982 C2980 1.391 . S
C2982 C2983 1.400 . S
C2983 C2982 1.400 . S
C2983 C2984 1.398 . S
C2983 C2989 1.491 . S
C2984 H2975 0.950 . S
C2984 C2983 1.398 . S
C2984 C2985 1.391 . S
C2985 H2973 0.950 . S
C2985 C2981 1.393 . S
C2985 C2984 1.391 . S
C2986 H2976 0.950 . S
C2986 C2987 1.386 . S
C2986 C2988 1.391 . S
C2987 C2986 1.386 . S
C2987 C2991 1.393 . S
C2988 H2977 0.950 . S
C2988 C2986 1.391 . S
C2988 C2989 1.400 . S
C2989 C2983 1.491 . S
C2989 C2988 1.400 . S
C2989 C2990 1.398 . S
C2990 H2978 0.950 . S
C2990 C2989 1.398 . S
C2990 C2991 1.391 . S
C2991 H2979 0.950 . S
C2991 C2987 1.393 . S
C2991 C2990 1.391 . S
H2992 C3000 0.950 . S
H2993 C3005 0.950 . S
H2994 C3002 0.950 . S
H2995 C3004 0.950 . S
H2996 C3006 0.950 . S
H2997 C3008 0.950 . S
H2998 C3010 0.950 . S
H2999 C3011 0.950 . S
C3000 H2992 0.950 . S
C3000 C3001 1.386 . S
C3000 C3002 1.391 . S
C3001 C3000 1.386 . S
C3001 C3005 1.393 . S
C3002 H2994 0.950 . S
C3002 C3000 1.391 . S
C3002 C3003 1.400 . S
C3003 C3002 1.400 . S
C3003 C3004 1.398 . S
C3003 C3009 1.491 . S
C3004 H2995 0.950 . S
C3004 C3003 1.398 . S
C3004 C3005 1.391 . S
C3005 H2993 0.950 . S
C3005 C3001 1.393 . S
C3005 C3004 1.391 . S
C3006 H2996 0.950 . S
C3006 C3007 1.386 . S
C3006 C3008 1.391 . S
C3007 C3006 1.386 . S
C3007 C3011 1.393 . S
C3008 H2997 0.950 . S
C3008 C3006 1.391 . S
C3008 C3009 1.400 . S
C3009 C3003 1.491 . S
C3009 C3008 1.400 . S
C3009 C3010 1.398 . S
C3010 H2998 0.950 . S
C3010 C3009 1.398 . S
C3010 C3011 1.391 . S
C3011 H2999 0.950 . S
C3011 C3007 1.393 . S
C3011 C3010 1.391 . S
H3012 C3020 0.950 . S
H3013 C3025 0.950 . S
H3014 C3022 0.950 . S
H3015 C3024 0.950 . S
H3016 C3026 0.950 . S
H3017 C3028 0.950 . S
H3018 C3030 0.950 . S
H3019 C3031 0.950 . S
C3020 H3012 0.950 . S
C3020 C3021 1.386 . S
C3020 C3022 1.391 . S
C3021 C3020 1.386 . S
C3021 C3025 1.393 . S
C3022 H3014 0.950 . S
C3022 C3020 1.391 . S
C3022 C3023 1.400 . S
C3023 C3022 1.400 . S
C3023 C3024 1.398 . S
C3023 C3029 1.491 . S
C3024 H3015 0.950 . S
C3024 C3023 1.398 . S
C3024 C3025 1.391 . S
C3025 H3013 0.950 . S
C3025 C3021 1.393 . S
C3025 C3024 1.391 . S
C3026 H3016 0.950 . S
C3026 C3027 1.386 . S
C3026 C3028 1.391 . S
C3027 C3026 1.386 . S
C3027 C3031 1.393 . S
C3028 H3017 0.950 . S
C3028 C3026 1.391 . S
C3028 C3029 1.400 . S
C3029 C3023 1.491 . S
C3029 C3028 1.400 . S
C3029 C3030 1.398 . S
C3030 H3018 0.950 . S
C3030 C3029 1.398 . S
C3030 C3031 1.391 . S
C3031 H3019 0.950 . S
C3031 C3027 1.393 . S
C3031 C3030 1.391 . S
H3032 C3040 0.942 1_545 S
H3033 C3045 0.950 . S
H3034 C3042 0.950 . S
H3035 C3044 0.950 . S
H3036 C3046 0.943 1_565 S
H3037 C3048 0.950 . S
H3038 C3050 0.950 . S
H3039 C3051 0.950 . S
C3040 H3032 0.942 1_565 S
C3040 C3041 1.386 . S
C3040 C3042 1.391 1_565 S
C3041 C3040 1.386 . S
C3041 C3045 1.393 . S
C3042 H3034 0.950 . S
C3042 C3040 1.391 1_545 S
C3042 C3043 1.400 1_545 S
C3043 C3042 1.400 1_565 S
C3043 C3044 1.398 . S
C3043 C3049 1.491 1_565 S
C3044 H3035 0.950 . S
C3044 C3043 1.398 . S
C3044 C3045 1.391 . S
C3045 H3033 0.950 . S
C3045 C3041 1.393 . S
C3045 C3044 1.391 . S
C3046 H3036 0.943 1_545 S
C3046 C3047 1.398 . S
C3046 C3048 1.386 1_545 S
C3047 C3046 1.398 . S
C3047 C3051 1.393 . S
C3048 H3037 0.950 . S
C3048 C3046 1.386 1_565 S
C3048 C3049 1.400 1_565 S
C3049 C3043 1.491 1_545 S
C3049 C3048 1.400 1_545 S
C3049 C3050 1.398 . S
C3050 H3038 0.950 . S
C3050 C3049 1.398 . S
C3050 C3051 1.391 . S
C3051 H3039 0.950 . S
C3051 C3047 1.393 . S
C3051 C3050 1.391 . S
H3052 C3060 0.950 . S
H3053 C3065 0.954 1_545 S
H3054 C3062 0.950 . S
H3055 C3064 0.950 . S
H3056 C3066 0.950 . S
H3057 C3068 0.950 . S
H3058 C3070 0.950 . S
H3059 C3071 0.930 1_565 S
C3060 H3052 0.950 . S
C3060 C3061 1.386 1_455 S
C3060 C3062 1.391 . S
C3061 C3060 1.386 1_655 S
C3061 C3065 1.386 . S
C3062 H3054 0.950 . S
C3062 C3060 1.391 . S
C3062 C3063 1.400 . S
C3063 C3062 1.400 . S
C3063 C3064 1.398 1_565 S
C3063 C3069 1.491 1_565 S
C3064 H3055 0.950 . S
C3064 C3063 1.398 1_545 S
C3064 C3065 1.394 1_445 S
C3065 H3053 0.954 1_565 S
C3065 C3061 1.386 . S
C3065 C3064 1.394 1_665 S
C3066 H3056 0.950 . S
C3066 C3067 1.386 . S
C3066 C3068 1.391 . S
C3067 C3066 1.386 . S
C3067 C3071 1.393 . S
C3068 H3057 0.950 . S
C3068 C3066 1.391 . S
C3068 C3069 1.400 . S
C3069 C3063 1.491 1_545 S
C3069 C3068 1.400 . S
C3069 C3070 1.398 1_545 S
C3070 H3058 0.950 . S
C3070 C3069 1.398 1_565 S
C3070 C3071 1.391 1_565 S
C3071 H3059 0.930 1_545 S
C3071 C3067 1.393 . S
C3071 C3070 1.391 1_545 S
H3072 C3080 0.950 . S
H3073 C3085 0.950 . S
H3074 C3082 0.950 . S
H3075 C3084 0.950 . S
H3076 C3086 0.950 . S
H3077 C3088 0.950 . S
H3078 C3090 0.950 . S
H3079 C3091 0.950 . S
C3080 H3072 0.950 . S
C3080 C3081 1.386 . S
C3080 C3082 1.391 . S
C3081 C3080 1.386 . S
C3081 C3085 1.393 . S
C3082 H3074 0.950 . S
C3082 C3080 1.391 . S
C3082 C3083 1.400 . S
C3083 C3082 1.400 . S
C3083 C3084 1.398 . S
C3083 C3089 1.491 . S
C3084 H3075 0.950 . S
C3084 C3083 1.398 . S
C3084 C3085 1.391 . S
C3085 H3073 0.950 . S
C3085 C3081 1.393 . S
C3085 C3084 1.391 . S
C3086 H3076 0.950 . S
C3086 C3087 1.386 . S
C3086 C3088 1.391 . S
C3087 C3086 1.386 . S
C3087 C3091 1.393 . S
C3088 H3077 0.950 . S
C3088 C3086 1.391 . S
C3088 C3089 1.400 . S
C3089 C3083 1.491 . S
C3089 C3088 1.400 . S
C3089 C3090 1.398 . S
C3090 H3078 0.950 . S
C3090 C3089 1.398 . S
C3090 C3091 1.391 . S
C3091 H3079 0.950 . S
C3091 C3087 1.393 . S
C3091 C3090 1.391 . S
H3092 C3100 0.950 . S
H3093 C3105 0.950 . S
H3094 C3102 0.950 . S
H3095 C3104 0.950 . S
H3096 C3106 0.950 . S
H3097 C3108 0.950 . S
H3098 C3110 0.950 . S
H3099 C3111 0.950 . S
C3100 H3092 0.950 . S
C3100 C3101 1.386 . S
C3100 C3102 1.391 . S
C3101 C3100 1.386 . S
C3101 C3105 1.393 . S
C3102 H3094 0.950 . S
C3102 C3100 1.391 . S
C3102 C3103 1.400 . S
C3103 C3102 1.400 . S
C3103 C3104 1.398 . S
C3103 C3109 1.491 . S
C3104 H3095 0.950 . S
C3104 C3103 1.398 . S
C3104 C3105 1.391 . S
C3105 H3093 0.950 . S
C3105 C3101 1.393 . S
C3105 C3104 1.391 . S
C3106 H3096 0.950 . S
C3106 C3107 1.386 . S
C3106 C3108 1.391 . S
C3107 C3106 1.386 . S
C3107 C3111 1.393 . S
C3108 H3097 0.950 . S
C3108 C3106 1.391 . S
C3108 C3109 1.400 . S
C3109 C3103 1.491 . S
C3109 C3108 1.400 . S
C3109 C3110 1.398 . S
C3110 H3098 0.950 . S
C3110 C3109 1.398 . S
C3110 C3111 1.391 . S
C3111 H3099 0.950 . S
C3111 C3107 1.393 . S
C3111 C3110 1.391 . S
H3112 C3120 0.950 . S
H3113 C3125 0.950 . S
H3114 C3122 0.950 . S
H3115 C3124 0.950 . S
H3116 C3126 0.950 . S
H3117 C3128 0.950 . S
H3118 C3130 0.950 . S
H3119 C3131 0.950 . S
C3120 H3112 0.950 . S
C3120 C3121 1.386 . S
C3120 C3122 1.391 . S
C3121 C3120 1.386 . S
C3121 C3125 1.393 . S
C3122 H3114 0.950 . S
C3122 C3120 1.391 . S
C3122 C3123 1.400 . S
C3123 C3122 1.400 . S
C3123 C3124 1.398 . S
C3123 C3129 1.491 . S
C3124 H3115 0.950 . S
C3124 C3123 1.398 . S
C3124 C3125 1.391 . S
C3125 H3113 0.950 . S
C3125 C3121 1.393 . S
C3125 C3124 1.391 . S
C3126 H3116 0.950 . S
C3126 C3127 1.386 . S
C3126 C3128 1.391 . S
C3127 C3126 1.386 . S
C3127 C3131 1.393 . S
C3128 H3117 0.950 . S
C3128 C3126 1.391 . S
C3128 C3129 1.400 . S
C3129 C3123 1.491 . S
C3129 C3128 1.400 . S
C3129 C3130 1.398 . S
C3130 H3118 0.950 . S
C3130 C3129 1.398 . S
C3130 C3131 1.391 . S
C3131 H3119 0.950 . S
C3131 C3127 1.393 . S
C3131 C3130 1.391 . S
H3132 C3140 0.950 . S
H3133 C3145 0.950 . S
H3134 C3142 0.950 . S
H3135 C3144 0.950 . S
H3136 C3146 0.950 . S
H3137 C3148 0.950 . S
H3138 C3150 0.950 . S
H3139 C3151 0.950 . S
C3140 H3132 0.950 . S
C3140 C3141 1.386 . S
C3140 C3142 1.391 . S
C3141 C3140 1.386 . S
C3141 C3145 1.393 . S
C3142 H3134 0.950 . S
C3142 C3140 1.391 . S
C3142 C3143 1.400 . S
C3143 C3142 1.400 . S
C3143 C3144 1.398 . S
C3143 C3149 1.491 . S
C3144 H3135 0.950 . S
C3144 C3143 1.398 . S
C3144 C3145 1.391 . S
C3145 H3133 0.950 . S
C3145 C3141 1.393 . S
C3145 C3144 1.391 . S
C3146 H3136 0.950 . S
C3146 C3147 1.386 . S
C3146 C3148 1.391 . S
C3147 C3146 1.386 . S
C3147 C3151 1.393 . S
C3148 H3137 0.950 . S
C3148 C3146 1.391 . S
C3148 C3149 1.400 . S
C3149 C3143 1.491 . S
C3149 C3148 1.400 . S
C3149 C3150 1.398 . S
C3150 H3138 0.950 . S
C3150 C3149 1.398 . S
C3150 C3151 1.391 . S
C3151 H3139 0.950 . S
C3151 C3147 1.393 . S
C3151 C3150 1.391 . S
H3152 C3160 0.950 . S
H3153 C3165 0.950 . S
H3154 C3162 0.950 . S
H3155 C3164 0.950 . S
H3156 C3166 0.950 . S
H3157 C3168 0.950 . S
H3158 C3170 0.950 . S
H3159 C3171 0.950 . S
C3160 H3152 0.950 . S
C3160 C3161 1.386 . S
C3160 C3162 1.391 . S
C3161 C3160 1.386 . S
C3161 C3165 1.393 . S
C3162 H3154 0.950 . S
C3162 C3160 1.391 . S
C3162 C3163 1.400 . S
C3163 C3162 1.400 . S
C3163 C3164 1.398 . S
C3163 C3169 1.491 . S
C3164 H3155 0.950 . S
C3164 C3163 1.398 . S
C3164 C3165 1.391 . S
C3165 H3153 0.950 . S
C3165 C3161 1.393 . S
C3165 C3164 1.391 . S
C3166 H3156 0.950 . S
C3166 C3167 1.386 . S
C3166 C3168 1.391 . S
C3167 C3166 1.386 . S
C3167 C3171 1.393 . S
C3168 H3157 0.950 . S
C3168 C3166 1.391 . S
C3168 C3169 1.400 . S
C3169 C3163 1.491 . S
C3169 C3168 1.400 . S
C3169 C3170 1.398 . S
C3170 H3158 0.950 . S
C3170 C3169 1.398 . S
C3170 C3171 1.391 . S
C3171 H3159 0.950 . S
C3171 C3167 1.393 . S
C3171 C3170 1.391 . S
H3172 C3180 0.950 . S
H3173 C3185 0.950 . S
H3174 C3182 0.950 . S
H3175 C3184 0.950 . S
H3176 C3186 0.950 . S
H3177 C3188 0.950 . S
H3178 C3190 0.950 . S
H3179 C3191 0.950 . S
C3180 H3172 0.950 . S
C3180 C3181 1.386 . S
C3180 C3182 1.391 . S
C3181 C3180 1.386 . S
C3181 C3185 1.393 . S
C3182 H3174 0.950 . S
C3182 C3180 1.391 . S
C3182 C3183 1.400 . S
C3183 C3182 1.400 . S
C3183 C3184 1.398 . S
C3183 C3189 1.491 . S
C3184 H3175 0.950 . S
C3184 C3183 1.398 . S
C3184 C3185 1.391 . S
C3185 H3173 0.950 . S
C3185 C3181 1.393 . S
C3185 C3184 1.391 . S
C3186 H3176 0.950 . S
C3186 C3187 1.386 . S
C3186 C3188 1.391 . S
C3187 C3186 1.386 . S
C3187 C3191 1.393 . S
C3188 H3177 0.950 . S
C3188 C3186 1.391 . S
C3188 C3189 1.400 . S
C3189 C3183 1.491 . S
C3189 C3188 1.400 . S
C3189 C3190 1.398 . S
C3190 H3178 0.950 . S
C3190 C3189 1.398 . S
C3190 C3191 1.391 . S
C3191 H3179 0.950 . S
C3191 C3187 1.393 . S
C3191 C3190 1.391 . S
H3192 C3200 0.950 . S
H3193 C3205 0.950 . S
H3194 C3202 0.950 . S
H3195 C3204 0.950 . S
H3196 C3206 0.950 . S
H3197 C3208 0.950 . S
H3198 C3210 0.950 . S
H3199 C3211 0.950 . S
C3200 H3192 0.950 . S
C3200 C3201 1.386 . S
C3200 C3202 1.391 . S
C3201 C3200 1.386 . S
C3201 C3205 1.393 . S
C3202 H3194 0.950 . S
C3202 C3200 1.391 . S
C3202 C3203 1.400 . S
C3203 C3202 1.400 . S
C3203 C3204 1.398 . S
C3203 C3209 1.491 . S
C3204 H3195 0.950 . S
C3204 C3203 1.398 . S
C3204 C3205 1.391 . S
C3205 H3193 0.950 . S
C3205 C3201 1.393 . S
C3205 C3204 1.391 . S
C3206 H3196 0.950 . S
C3206 C3207 1.386 . S
C3206 C3208 1.391 . S
C3207 C3206 1.386 . S
C3207 C3211 1.393 . S
C3208 H3197 0.950 . S
C3208 C3206 1.391 . S
C3208 C3209 1.400 . S
C3209 C3203 1.491 . S
C3209 C3208 1.400 . S
C3209 C3210 1.398 . S
C3210 H3198 0.950 . S
C3210 C3209 1.398 . S
C3210 C3211 1.391 . S
C3211 H3199 0.950 . S
C3211 C3207 1.393 . S
C3211 C3210 1.391 . S
H3212 C3220 0.950 . S
H3213 C3225 0.950 . S
H3214 C3222 0.950 . S
H3215 C3224 0.950 . S
H3216 C3226 0.950 . S
H3217 C3228 0.950 . S
H3218 C3230 0.950 . S
H3219 C3231 0.950 . S
C3220 H3212 0.950 . S
C3220 C3221 1.386 . S
C3220 C3222 1.391 . S
C3221 C3220 1.386 . S
C3221 C3225 1.393 . S
C3222 H3214 0.950 . S
C3222 C3220 1.391 . S
C3222 C3223 1.400 . S
C3223 C3222 1.400 . S
C3223 C3224 1.398 . S
C3223 C3229 1.491 . S
C3224 H3215 0.950 . S
C3224 C3223 1.398 . S
C3224 C3225 1.391 . S
C3225 H3213 0.950 . S
C3225 C3221 1.393 . S
C3225 C3224 1.391 . S
C3226 H3216 0.950 . S
C3226 C3227 1.386 . S
C3226 C3228 1.391 . S
C3227 C3226 1.386 . S
C3227 C3231 1.393 . S
C3228 H3217 0.950 . S
C3228 C3226 1.391 . S
C3228 C3229 1.400 . S
C3229 C3223 1.491 . S
C3229 C3228 1.400 . S
C3229 C3230 1.398 . S
C3230 H3218 0.950 . S
C3230 C3229 1.398 . S
C3230 C3231 1.391 . S
C3231 H3219 0.950 . S
C3231 C3227 1.393 . S
C3231 C3230 1.391 . S
H3232 C3240 0.950 . S
H3233 C3245 0.950 . S
H3234 C3242 0.950 . S
H3235 C3244 0.950 . S
H3236 C3246 0.950 . S
H3237 C3248 0.950 . S
H3238 C3250 0.950 . S
H3239 C3251 0.950 . S
C3240 H3232 0.950 . S
C3240 C3241 1.386 . S
C3240 C3242 1.391 . S
C3241 C3240 1.386 . S
C3241 C3245 1.393 . S
C3242 H3234 0.950 . S
C3242 C3240 1.391 . S
C3242 C3243 1.400 . S
C3243 C3242 1.400 . S
C3243 C3244 1.398 . S
C3243 C3249 1.491 . S
C3244 H3235 0.950 . S
C3244 C3243 1.398 . S
C3244 C3245 1.391 . S
C3245 H3233 0.950 . S
C3245 C3241 1.393 . S
C3245 C3244 1.391 . S
C3246 H3236 0.950 . S
C3246 C3247 1.386 . S
C3246 C3248 1.391 . S
C3247 C3246 1.386 . S
C3247 C3251 1.393 . S
C3248 H3237 0.950 . S
C3248 C3246 1.391 . S
C3248 C3249 1.400 . S
C3249 C3243 1.491 . S
C3249 C3248 1.400 . S
C3249 C3250 1.398 . S
C3250 H3238 0.950 . S
C3250 C3249 1.398 . S
C3250 C3251 1.391 . S
C3251 H3239 0.950 . S
C3251 C3247 1.393 . S
C3251 C3250 1.391 . S
H3252 C3260 0.950 . S
H3253 C3265 0.950 . S
H3254 C3262 0.950 . S
H3255 C3264 0.950 . S
H3256 C3266 0.950 . S
H3257 C3268 0.950 . S
H3258 C3270 0.950 . S
H3259 C3271 0.950 . S
C3260 H3252 0.950 . S
C3260 C3261 1.386 . S
C3260 C3262 1.391 . S
C3261 C3260 1.386 . S
C3261 C3265 1.393 . S
C3262 H3254 0.950 . S
C3262 C3260 1.391 . S
C3262 C3263 1.400 . S
C3263 C3262 1.400 . S
C3263 C3264 1.398 . S
C3263 C3269 1.491 . S
C3264 H3255 0.950 . S
C3264 C3263 1.398 . S
C3264 C3265 1.391 . S
C3265 H3253 0.950 . S
C3265 C3261 1.393 . S
C3265 C3264 1.391 . S
C3266 H3256 0.950 . S
C3266 C3267 1.386 . S
C3266 C3268 1.391 . S
C3267 C3266 1.386 . S
C3267 C3271 1.393 . S
C3268 H3257 0.950 . S
C3268 C3266 1.391 . S
C3268 C3269 1.400 . S
C3269 C3263 1.491 . S
C3269 C3268 1.400 . S
C3269 C3270 1.398 . S
C3270 H3258 0.950 . S
C3270 C3269 1.398 . S
C3270 C3271 1.391 . S
C3271 H3259 0.950 . S
C3271 C3267 1.393 . S
C3271 C3270 1.391 . S
H3272 C3280 0.950 . S
H3273 C3285 0.950 . S
H3274 C3282 0.950 . S
H3275 C3284 0.950 . S
H3276 C3286 0.950 . S
H3277 C3288 0.950 . S
H3278 C3290 0.950 . S
H3279 C3291 0.950 . S
C3280 H3272 0.950 . S
C3280 C3281 1.386 . S
C3280 C3282 1.391 . S
C3281 C3280 1.386 . S
C3281 C3285 1.393 . S
C3282 H3274 0.950 . S
C3282 C3280 1.391 . S
C3282 C3283 1.400 . S
C3283 C3282 1.400 . S
C3283 C3284 1.398 . S
C3283 C3289 1.491 . S
C3284 H3275 0.950 . S
C3284 C3283 1.398 . S
C3284 C3285 1.391 . S
C3285 H3273 0.950 . S
C3285 C3281 1.393 . S
C3285 C3284 1.391 . S
C3286 H3276 0.950 . S
C3286 C3287 1.386 . S
C3286 C3288 1.391 . S
C3287 C3286 1.386 . S
C3287 C3291 1.393 . S
C3288 H3277 0.950 . S
C3288 C3286 1.391 . S
C3288 C3289 1.400 . S
C3289 C3283 1.491 . S
C3289 C3288 1.400 . S
C3289 C3290 1.398 . S
C3290 H3278 0.950 . S
C3290 C3289 1.398 . S
C3290 C3291 1.391 . S
C3291 H3279 0.950 . S
C3291 C3287 1.393 . S
C3291 C3290 1.391 . S
H3292 C3300 0.950 . S
H3293 C3305 0.950 . S
H3294 C3302 0.950 . S
H3295 C3304 0.950 . S
H3296 C3306 0.950 . S
H3297 C3308 0.950 . S
H3298 C3310 0.950 . S
H3299 C3311 0.950 . S
C3300 H3292 0.950 . S
C3300 C3301 1.386 . S
C3300 C3302 1.391 . S
C3301 C3300 1.386 . S
C3301 C3305 1.393 . S
C3302 H3294 0.950 . S
C3302 C3300 1.391 . S
C3302 C3303 1.400 . S
C3303 C3302 1.400 . S
C3303 C3304 1.398 . S
C3303 C3309 1.491 . S
C3304 H3295 0.950 . S
C3304 C3303 1.398 . S
C3304 C3305 1.391 . S
C3305 H3293 0.950 . S
C3305 C3301 1.393 . S
C3305 C3304 1.391 . S
C3306 H3296 0.950 . S
C3306 C3307 1.386 . S
C3306 C3308 1.391 . S
C3307 C3306 1.386 . S
C3307 C3311 1.393 . S
C3308 H3297 0.950 . S
C3308 C3306 1.391 . S
C3308 C3309 1.400 . S
C3309 C3303 1.491 . S
C3309 C3308 1.400 . S
C3309 C3310 1.398 . S
C3310 H3298 0.950 . S
C3310 C3309 1.398 . S
C3310 C3311 1.391 . S
C3311 H3299 0.950 . S
C3311 C3307 1.393 . S
C3311 C3310 1.391 . S
H3312 C3320 0.950 . S
H3313 C3325 0.950 . S
H3314 C3322 0.950 . S
H3315 C3324 0.950 . S
H3316 C3326 0.950 . S
H3317 C3328 0.950 . S
H3318 C3330 0.950 . S
H3319 C3331 0.950 . S
C3320 H3312 0.950 . S
C3320 C3321 1.386 . S
C3320 C3322 1.391 . S
C3321 C3320 1.386 . S
C3321 C3325 1.393 . S
C3322 H3314 0.950 . S
C3322 C3320 1.391 . S
C3322 C3323 1.400 . S
C3323 C3322 1.400 . S
C3323 C3324 1.398 . S
C3323 C3329 1.491 . S
C3324 H3315 0.950 . S
C3324 C3323 1.398 . S
C3324 C3325 1.391 . S
C3325 H3313 0.950 . S
C3325 C3321 1.393 . S
C3325 C3324 1.391 . S
C3326 H3316 0.950 . S
C3326 C3327 1.386 . S
C3326 C3328 1.391 . S
C3327 C3326 1.386 . S
C3327 C3331 1.393 . S
C3328 H3317 0.950 . S
C3328 C3326 1.391 . S
C3328 C3329 1.400 . S
C3329 C3323 1.491 . S
C3329 C3328 1.400 . S
C3329 C3330 1.398 . S
C3330 H3318 0.950 . S
C3330 C3329 1.398 . S
C3330 C3331 1.391 . S
C3331 H3319 0.950 . S
C3331 C3327 1.393 . S
C3331 C3330 1.391 . S
H3332 C3340 0.950 . S
H3333 C3345 0.950 . S
H3334 C3342 0.950 . S
H3335 C3344 0.950 . S
H3336 C3346 0.950 . S
H3337 C3348 0.950 . S
H3338 C3350 0.950 . S
H3339 C3351 0.950 . S
C3340 H3332 0.950 . S
C3340 C3341 1.386 . S
C3340 C3342 1.391 . S
C3341 C3340 1.386 . S
C3341 C3345 1.393 . S
C3342 H3334 0.950 . S
C3342 C3340 1.391 . S
C3342 C3343 1.400 . S
C3343 C3342 1.400 . S
C3343 C3344 1.398 . S
C3343 C3349 1.491 . S
C3344 H3335 0.950 . S
C3344 C3343 1.398 . S
C3344 C3345 1.391 . S
C3345 H3333 0.950 . S
C3345 C3341 1.393 . S
C3345 C3344 1.391 . S
C3346 H3336 0.950 . S
C3346 C3347 1.386 . S
C3346 C3348 1.391 . S
C3347 C3346 1.386 . S
C3347 C3351 1.393 . S
C3348 H3337 0.950 . S
C3348 C3346 1.391 . S
C3348 C3349 1.400 . S
C3349 C3343 1.491 . S
C3349 C3348 1.400 . S
C3349 C3350 1.398 . S
C3350 H3338 0.950 . S
C3350 C3349 1.398 . S
C3350 C3351 1.391 . S
C3351 H3339 0.950 . S
C3351 C3347 1.393 . S
C3351 C3350 1.391 . S
H3352 C3360 0.950 . S
H3353 C3365 0.950 . S
H3354 C3362 0.950 . S
H3355 C3364 0.950 . S
H3356 C3366 0.950 . S
H3357 C3368 0.950 . S
H3358 C3370 0.950 . S
H3359 C3371 0.950 . S
C3360 H3352 0.950 . S
C3360 C3361 1.386 . S
C3360 C3362 1.391 . S
C3361 C3360 1.386 . S
C3361 C3365 1.393 . S
C3362 H3354 0.950 . S
C3362 C3360 1.391 . S
C3362 C3363 1.400 . S
C3363 C3362 1.400 . S
C3363 C3364 1.398 . S
C3363 C3369 1.491 . S
C3364 H3355 0.950 . S
C3364 C3363 1.398 . S
C3364 C3365 1.391 . S
C3365 H3353 0.950 . S
C3365 C3361 1.393 . S
C3365 C3364 1.391 . S
C3366 H3356 0.950 . S
C3366 C3367 1.386 . S
C3366 C3368 1.391 . S
C3367 C3366 1.386 . S
C3367 C3371 1.393 . S
C3368 H3357 0.950 . S
C3368 C3366 1.391 . S
C3368 C3369 1.400 . S
C3369 C3363 1.491 . S
C3369 C3368 1.400 . S
C3369 C3370 1.398 . S
C3370 H3358 0.950 . S
C3370 C3369 1.398 . S
C3370 C3371 1.391 . S
C3371 H3359 0.950 . S
C3371 C3367 1.393 . S
C3371 C3370 1.391 . S
H3372 C3380 0.950 . S
H3373 C3385 0.950 . S
H3374 C3382 0.950 . S
H3375 C3384 0.950 . S
H3376 C3386 0.950 . S
H3377 C3388 0.950 . S
H3378 C3390 0.950 . S
H3379 C3391 0.950 . S
C3380 H3372 0.950 . S
C3380 C3381 1.386 . S
C3380 C3382 1.391 . S
C3381 C3380 1.386 . S
C3381 C3385 1.393 . S
C3382 H3374 0.950 . S
C3382 C3380 1.391 . S
C3382 C3383 1.400 . S
C3383 C3382 1.400 . S
C3383 C3384 1.398 . S
C3383 C3389 1.491 . S
C3384 H3375 0.950 . S
C3384 C3383 1.398 . S
C3384 C3385 1.391 . S
C3385 H3373 0.950 . S
C3385 C3381 1.393 . S
C3385 C3384 1.391 . S
C3386 H3376 0.950 . S
C3386 C3387 1.386 . S
C3386 C3388 1.391 . S
C3387 C3386 1.386 . S
C3387 C3391 1.393 . S
C3388 H3377 0.950 . S
C3388 C3386 1.391 . S
C3388 C3389 1.400 . S
C3389 C3383 1.491 . S
C3389 C3388 1.400 . S
C3389 C3390 1.398 . S
C3390 H3378 0.950 . S
C3390 C3389 1.398 . S
C3390 C3391 1.391 . S
C3391 H3379 0.950 . S
C3391 C3387 1.393 . S
C3391 C3390 1.391 . S
H3392 C3400 0.950 . S
H3393 C3405 0.950 . S
H3394 C3402 0.950 . S
H3395 C3404 0.950 . S
H3396 C3406 0.950 . S
H3397 C3408 0.950 . S
H3398 C3410 0.950 . S
H3399 C3411 0.950 . S
C3400 H3392 0.950 . S
C3400 C3401 1.386 . S
C3400 C3402 1.391 . S
C3401 C3400 1.386 . S
C3401 C3405 1.393 . S
C3402 H3394 0.950 . S
C3402 C3400 1.391 . S
C3402 C3403 1.400 . S
C3403 C3402 1.400 . S
C3403 C3404 1.398 . S
C3403 C3409 1.491 . S
C3404 H3395 0.950 . S
C3404 C3403 1.398 . S
C3404 C3405 1.391 . S
C3405 H3393 0.950 . S
C3405 C3401 1.393 . S
C3405 C3404 1.391 . S
C3406 H3396 0.950 . S
C3406 C3407 1.386 . S
C3406 C3408 1.391 . S
C3407 C3406 1.386 . S
C3407 C3411 1.393 . S
C3408 H3397 0.950 . S
C3408 C3406 1.391 . S
C3408 C3409 1.400 . S
C3409 C3403 1.491 . S
C3409 C3408 1.400 . S
C3409 C3410 1.398 . S
C3410 H3398 0.950 . S
C3410 C3409 1.398 . S
C3410 C3411 1.391 . S
C3411 H3399 0.950 . S
C3411 C3407 1.393 . S
C3411 C3410 1.391 . S
H3412 C3420 0.950 . S
H3413 C3425 0.950 . S
H3414 C3422 0.950 . S
H3415 C3424 0.950 . S
H3416 C3426 0.950 . S
H3417 C3428 0.950 . S
H3418 C3430 0.950 . S
H3419 C3431 0.950 . S
C3420 H3412 0.950 . S
C3420 C3421 1.386 . S
C3420 C3422 1.391 . S
C3421 C3420 1.386 . S
C3421 C3425 1.393 . S
C3422 H3414 0.950 . S
C3422 C3420 1.391 . S
C3422 C3423 1.400 . S
C3423 C3422 1.400 . S
C3423 C3424 1.398 . S
C3423 C3429 1.491 . S
C3424 H3415 0.950 . S
C3424 C3423 1.398 . S
C3424 C3425 1.391 . S
C3425 H3413 0.950 . S
C3425 C3421 1.393 . S
C3425 C3424 1.391 . S
C3426 H3416 0.950 . S
C3426 C3427 1.386 . S
C3426 C3428 1.391 . S
C3427 C3426 1.386 . S
C3427 C3431 1.393 . S
C3428 H3417 0.950 . S
C3428 C3426 1.391 . S
C3428 C3429 1.400 . S
C3429 C3423 1.491 . S
C3429 C3428 1.400 . S
C3429 C3430 1.398 . S
C3430 H3418 0.950 . S
C3430 C3429 1.398 . S
C3430 C3431 1.391 . S
C3431 H3419 0.950 . S
C3431 C3427 1.393 . S
C3431 C3430 1.391 . S
H3432 C3440 0.950 . S
H3433 C3445 0.950 . S
H3434 C3442 0.950 . S
H3435 C3444 0.950 . S
H3436 C3446 0.950 . S
H3437 C3448 0.950 . S
H3438 C3450 0.950 . S
H3439 C3451 0.950 . S
C3440 H3432 0.950 . S
C3440 C3441 1.386 . S
C3440 C3442 1.391 . S
C3441 C3440 1.386 . S
C3441 C3445 1.393 . S
C3442 H3434 0.950 . S
C3442 C3440 1.391 . S
C3442 C3443 1.400 . S
C3443 C3442 1.400 . S
C3443 C3444 1.398 . S
C3443 C3449 1.491 . S
C3444 H3435 0.950 . S
C3444 C3443 1.398 . S
C3444 C3445 1.391 . S
C3445 H3433 0.950 . S
C3445 C3441 1.393 . S
C3445 C3444 1.391 . S
C3446 H3436 0.950 . S
C3446 C3447 1.386 . S
C3446 C3448 1.391 . S
C3447 C3446 1.386 . S
C3447 C3451 1.393 . S
C3448 H3437 0.950 . S
C3448 C3446 1.391 . S
C3448 C3449 1.400 . S
C3449 C3443 1.491 . S
C3449 C3448 1.400 . S
C3449 C3450 1.398 . S
C3450 H3438 0.950 . S
C3450 C3449 1.398 . S
C3450 C3451 1.391 . S
C3451 H3439 0.950 . S
C3451 C3447 1.393 . S
C3451 C3450 1.391 . S
H3452 C3460 0.950 . S
H3453 C3465 0.950 . S
H3454 C3462 0.950 . S
H3455 C3464 0.950 . S
H3456 C3466 0.950 . S
H3457 C3468 0.950 . S
H3458 C3470 0.950 . S
H3459 C3471 0.950 . S
C3460 H3452 0.950 . S
C3460 C3461 1.386 . S
C3460 C3462 1.391 . S
C3461 C3460 1.386 . S
C3461 C3465 1.393 . S
C3462 H3454 0.950 . S
C3462 C3460 1.391 . S
C3462 C3463 1.400 . S
C3463 C3462 1.400 . S
C3463 C3464 1.398 . S
C3463 C3469 1.491 . S
C3464 H3455 0.950 . S
C3464 C3463 1.398 . S
C3464 C3465 1.391 . S
C3465 H3453 0.950 . S
C3465 C3461 1.393 . S
C3465 C3464 1.391 . S
C3466 H3456 0.950 . S
C3466 C3467 1.386 . S
C3466 C3468 1.391 . S
C3467 C3466 1.386 . S
C3467 C3471 1.393 . S
C3468 H3457 0.950 . S
C3468 C3466 1.391 . S
C3468 C3469 1.400 . S
C3469 C3463 1.491 . S
C3469 C3468 1.400 . S
C3469 C3470 1.398 . S
C3470 H3458 0.950 . S
C3470 C3469 1.398 . S
C3470 C3471 1.391 . S
C3471 H3459 0.950 . S
C3471 C3467 1.393 . S
C3471 C3470 1.391 . S
H3472 C3480 0.950 . S
H3473 C3485 0.950 . S
H3474 C3482 0.950 . S
H3475 C3484 0.950 . S
H3476 C3486 0.950 . S
H3477 C3488 0.950 . S
H3478 C3490 0.950 . S
H3479 C3491 0.950 . S
C3480 H3472 0.950 . S
C3480 C3481 1.386 . S
C3480 C3482 1.391 . S
C3481 C3480 1.386 . S
C3481 C3485 1.393 . S
C3482 H3474 0.950 . S
C3482 C3480 1.391 . S
C3482 C3483 1.400 . S
C3483 C3482 1.400 . S
C3483 C3484 1.398 . S
C3483 C3489 1.491 . S
C3484 H3475 0.950 . S
C3484 C3483 1.398 . S
C3484 C3485 1.391 . S
C3485 H3473 0.950 . S
C3485 C3481 1.393 . S
C3485 C3484 1.391 . S
C3486 H3476 0.950 . S
C3486 C3487 1.386 . S
C3486 C3488 1.391 . S
C3487 C3486 1.386 . S
C3487 C3491 1.393 . S
C3488 H3477 0.950 . S
C3488 C3486 1.391 . S
C3488 C3489 1.400 . S
C3489 C3483 1.491 . S
C3489 C3488 1.400 . S
C3489 C3490 1.398 . S
C3490 H3478 0.950 . S
C3490 C3489 1.398 . S
C3490 C3491 1.391 . S
C3491 H3479 0.950 . S
C3491 C3487 1.393 . S
C3491 C3490 1.391 . S
H3492 C3500 0.950 . S
H3493 C3505 0.950 . S
H3494 C3502 0.950 . S
H3495 C3504 0.950 . S
H3496 C3506 0.950 . S
H3497 C3508 0.950 . S
H3498 C3510 0.950 . S
H3499 C3511 0.950 . S
C3500 H3492 0.950 . S
C3500 C3501 1.386 . S
C3500 C3502 1.391 . S
C3501 C3500 1.386 . S
C3501 C3505 1.393 . S
C3502 H3494 0.950 . S
C3502 C3500 1.391 . S
C3502 C3503 1.400 . S
C3503 C3502 1.400 . S
C3503 C3504 1.398 . S
C3503 C3509 1.491 . S
C3504 H3495 0.950 . S
C3504 C3503 1.398 . S
C3504 C3505 1.391 . S
C3505 H3493 0.950 . S
C3505 C3501 1.393 . S
C3505 C3504 1.391 . S
C3506 H3496 0.950 . S
C3506 C3507 1.386 . S
C3506 C3508 1.391 . S
C3507 C3506 1.386 . S
C3507 C3511 1.393 . S
C3508 H3497 0.950 . S
C3508 C3506 1.391 . S
C3508 C3509 1.400 . S
C3509 C3503 1.491 . S
C3509 C3508 1.400 . S
C3509 C3510 1.398 . S
C3510 H3498 0.950 . S
C3510 C3509 1.398 . S
C3510 C3511 1.391 . S
C3511 H3499 0.950 . S
C3511 C3507 1.393 . S
C3511 C3510 1.391 . S
H3512 C3520 0.950 . S
H3513 C3525 0.950 . S
H3514 C3522 0.950 . S
H3515 C3524 0.950 . S
H3516 C3526 0.950 . S
H3517 C3528 0.950 . S
H3518 C3530 0.950 . S
H3519 C3531 0.950 . S
C3520 H3512 0.950 . S
C3520 C3521 1.386 . S
C3520 C3522 1.391 . S
C3521 C3520 1.386 . S
C3521 C3525 1.393 . S
C3522 H3514 0.950 . S
C3522 C3520 1.391 . S
C3522 C3523 1.400 . S
C3523 C3522 1.400 . S
C3523 C3524 1.398 . S
C3523 C3529 1.491 . S
C3524 H3515 0.950 . S
C3524 C3523 1.398 . S
C3524 C3525 1.391 . S
C3525 H3513 0.950 . S
C3525 C3521 1.393 . S
C3525 C3524 1.391 . S
C3526 H3516 0.950 . S
C3526 C3527 1.386 . S
C3526 C3528 1.391 . S
C3527 C3526 1.386 . S
C3527 C3531 1.393 . S
C3528 H3517 0.950 . S
C3528 C3526 1.391 . S
C3528 C3529 1.400 . S
C3529 C3523 1.491 . S
C3529 C3528 1.400 . S
C3529 C3530 1.398 . S
C3530 H3518 0.950 . S
C3530 C3529 1.398 . S
C3530 C3531 1.391 . S
C3531 H3519 0.950 . S
C3531 C3527 1.393 . S
C3531 C3530 1.391 . S
H3532 C3540 0.950 . S
H3533 C3545 0.950 . S
H3534 C3542 0.950 . S
H3535 C3544 0.950 . S
H3536 C3546 0.950 . S
H3537 C3548 0.950 . S
H3538 C3550 0.950 . S
H3539 C3551 0.950 . S
C3540 H3532 0.950 . S
C3540 C3541 1.386 . S
C3540 C3542 1.391 . S
C3541 C3540 1.386 . S
C3541 C3545 1.393 . S
C3542 H3534 0.950 . S
C3542 C3540 1.391 . S
C3542 C3543 1.400 . S
C3543 C3542 1.400 . S
C3543 C3544 1.398 . S
C3543 C3549 1.491 . S
C3544 H3535 0.950 . S
C3544 C3543 1.398 . S
C3544 C3545 1.391 . S
C3545 H3533 0.950 . S
C3545 C3541 1.393 . S
C3545 C3544 1.391 . S
C3546 H3536 0.950 . S
C3546 C3547 1.386 . S
C3546 C3548 1.391 . S
C3547 C3546 1.386 . S
C3547 C3551 1.393 . S
C3548 H3537 0.950 . S
C3548 C3546 1.391 . S
C3548 C3549 1.400 . S
C3549 C3543 1.491 . S
C3549 C3548 1.400 . S
C3549 C3550 1.398 . S
C3550 H3538 0.950 . S
C3550 C3549 1.398 . S
C3550 C3551 1.391 . S
C3551 H3539 0.950 . S
C3551 C3547 1.393 . S
C3551 C3550 1.391 . S
H3552 C3560 0.950 . S
H3553 C3565 0.950 . S
H3554 C3562 0.950 . S
H3555 C3564 0.950 . S
H3556 C3566 0.950 . S
H3557 C3568 0.950 . S
H3558 C3570 0.950 . S
H3559 C3571 0.950 . S
C3560 H3552 0.950 . S
C3560 C3561 1.386 . S
C3560 C3562 1.391 . S
C3561 C3560 1.386 . S
C3561 C3565 1.393 . S
C3562 H3554 0.950 . S
C3562 C3560 1.391 . S
C3562 C3563 1.400 . S
C3563 C3562 1.400 . S
C3563 C3564 1.398 . S
C3563 C3569 1.491 1_655 S
C3564 H3555 0.950 . S
C3564 C3563 1.398 . S
C3564 C3565 1.391 . S
C3565 H3553 0.950 . S
C3565 C3561 1.393 . S
C3565 C3564 1.391 . S
C3566 H3556 0.950 . S
C3566 C3567 1.386 . S
C3566 C3568 1.391 . S
C3567 C3566 1.386 . S
C3567 C3571 1.393 . S
C3568 H3557 0.950 . S
C3568 C3566 1.391 . S
C3568 C3569 1.400 . S
C3569 C3563 1.491 1_455 S
C3569 C3568 1.400 . S
C3569 C3570 1.398 . S
C3570 H3558 0.950 . S
C3570 C3569 1.398 . S
C3570 C3571 1.391 . S
C3571 H3559 0.950 . S
C3571 C3567 1.393 . S
C3571 C3570 1.391 . S
H3572 C3580 0.950 . S
H3573 C3585 0.950 1_655 S
H3574 C3582 0.950 . S
H3575 C3584 0.950 . S
H3576 C3586 0.950 . S
H3577 C3588 0.950 . S
H3578 C3590 0.950 . S
H3579 C3591 0.950 1_455 S
C3580 H3572 0.950 . S
C3580 C3581 1.386 . S
C3580 C3582 1.391 . S
C3581 C3580 1.386 . S
C3581 C3585 1.393 . S
C3582 H3574 0.950 . S
C3582 C3580 1.391 . S
C3582 C3583 1.400 . S
C3583 C3582 1.400 . S
C3583 C3584 1.398 1_455 S
C3583 C3589 1.491 1_455 S
C3584 H3575 0.950 . S
C3584 C3583 1.398 1_655 S
C3584 C3585 1.391 1_655 S
C3585 H3573 0.950 1_455 S
C3585 C3581 1.393 . S
C3585 C3584 1.391 1_455 S
C3586 H3576 0.950 . S
C3586 C3587 1.386 . S
C3586 C3588 1.391 . S
C3587 C3586 1.386 . S
C3587 C3591 1.393 . S
C3588 H3577 0.950 . S
C3588 C3586 1.391 . S
C3588 C3589 1.400 . S
C3589 C3583 1.491 1_655 S
C3589 C3588 1.400 . S
C3589 C3590 1.398 1_655 S
C3590 H3578 0.950 . S
C3590 C3589 1.398 1_455 S
C3590 C3591 1.391 1_455 S
C3591 H3579 0.950 1_655 S
C3591 C3587 1.393 . S
C3591 C3590 1.391 1_655 S
H3592 C3600 0.950 . S
H3593 C3605 0.950 . S
H3594 C3602 0.950 . S
H3595 C3604 0.950 . S
H3596 C3606 0.950 . S
H3597 C3608 0.950 . S
H3598 C3610 0.950 . S
H3599 C3611 0.950 . S
C3600 H3592 0.950 . S
C3600 C3601 1.386 . S
C3600 C3602 1.391 . S
C3601 C3600 1.386 . S
C3601 C3605 1.393 . S
C3602 H3594 0.950 . S
C3602 C3600 1.391 . S
C3602 C3603 1.400 . S
C3603 C3602 1.400 . S
C3603 C3604 1.398 . S
C3603 C3609 1.491 . S
C3604 H3595 0.950 . S
C3604 C3603 1.398 . S
C3604 C3605 1.391 . S
C3605 H3593 0.950 . S
C3605 C3601 1.393 . S
C3605 C3604 1.391 . S
C3606 H3596 0.950 . S
C3606 C3607 1.386 . S
C3606 C3608 1.391 . S
C3607 C3606 1.386 . S
C3607 C3611 1.393 . S
C3608 H3597 0.950 . S
C3608 C3606 1.391 . S
C3608 C3609 1.400 . S
C3609 C3603 1.491 . S
C3609 C3608 1.400 . S
C3609 C3610 1.398 . S
C3610 H3598 0.950 . S
C3610 C3609 1.398 . S
C3610 C3611 1.391 . S
C3611 H3599 0.950 . S
C3611 C3607 1.393 . S
C3611 C3610 1.391 . S
H3612 C3620 0.950 . S
H3613 C3625 0.950 . S
H3614 C3622 0.950 . S
H3615 C3624 0.950 . S
H3616 C3626 0.950 . S
H3617 C3628 0.950 . S
H3618 C3630 0.950 . S
H3619 C3631 0.950 . S
C3620 H3612 0.950 . S
C3620 C3621 1.386 . S
C3620 C3622 1.391 . S
C3621 C3620 1.386 . S
C3621 C3625 1.393 . S
C3622 H3614 0.950 . S
C3622 C3620 1.391 . S
C3622 C3623 1.400 . S
C3623 C3622 1.400 . S
C3623 C3624 1.398 . S
C3623 C3629 1.491 . S
C3624 H3615 0.950 . S
C3624 C3623 1.398 . S
C3624 C3625 1.391 . S
C3625 H3613 0.950 . S
C3625 C3621 1.393 . S
C3625 C3624 1.391 . S
C3626 H3616 0.950 . S
C3626 C3627 1.386 . S
C3626 C3628 1.391 . S
C3627 C3626 1.386 . S
C3627 C3631 1.393 . S
C3628 H3617 0.950 . S
C3628 C3626 1.391 . S
C3628 C3629 1.400 . S
C3629 C3623 1.491 . S
C3629 C3628 1.400 . S
C3629 C3630 1.398 . S
C3630 H3618 0.950 . S
C3630 C3629 1.398 . S
C3630 C3631 1.391 . S
C3631 H3619 0.950 . S
C3631 C3627 1.393 . S
C3631 C3630 1.391 . S
H3632 C3640 0.950 . S
H3633 C3645 0.950 . S
H3634 C3642 0.950 . S
H3635 C3644 0.950 . S
H3636 C3646 0.950 . S
H3637 C3648 0.950 . S
H3638 C3650 0.950 . S
H3639 C3651 0.950 . S
C3640 H3632 0.950 . S
C3640 C3641 1.386 . S
C3640 C3642 1.391 . S
C3641 C3640 1.386 . S
C3641 C3645 1.393 . S
C3642 H3634 0.950 . S
C3642 C3640 1.391 . S
C3642 C3643 1.400 . S
C3643 C3642 1.400 . S
C3643 C3644 1.398 . S
C3643 C3649 1.491 1_655 S
C3644 H3635 0.950 . S
C3644 C3643 1.398 . S
C3644 C3645 1.391 . S
C3645 H3633 0.950 . S
C3645 C3641 1.393 . S
C3645 C3644 1.391 . S
C3646 H3636 0.950 . S
C3646 C3647 1.386 . S
C3646 C3648 1.391 . S
C3647 C3646 1.386 . S
C3647 C3651 1.393 . S
C3648 H3637 0.950 . S
C3648 C3646 1.391 . S
C3648 C3649 1.400 . S
C3649 C3643 1.491 1_455 S
C3649 C3648 1.400 . S
C3649 C3650 1.398 . S
C3650 H3638 0.950 . S
C3650 C3649 1.398 . S
C3650 C3651 1.391 . S
C3651 H3639 0.950 . S
C3651 C3647 1.393 . S
C3651 C3650 1.391 . S
H3652 C3660 0.950 . S
H3653 C3665 0.950 . S
H3654 C3662 0.950 . S
H3655 C3664 0.950 . S
H3656 C3666 0.950 . S
H3657 C3668 0.950 . S
H3658 C3670 0.950 . S
H3659 C3671 0.950 . S
C3660 H3652 0.950 . S
C3660 C3661 1.386 . S
C3660 C3662 1.391 . S
C3661 C3660 1.386 . S
C3661 C3665 1.393 . S
C3662 H3654 0.950 . S
C3662 C3660 1.391 . S
C3662 C3663 1.400 . S
C3663 C3662 1.400 . S
C3663 C3664 1.398 . S
C3663 C3669 1.491 . S
C3664 H3655 0.950 . S
C3664 C3663 1.398 . S
C3664 C3665 1.391 . S
C3665 H3653 0.950 . S
C3665 C3661 1.393 . S
C3665 C3664 1.391 . S
C3666 H3656 0.950 . S
C3666 C3667 1.386 . S
C3666 C3668 1.391 . S
C3667 C3666 1.386 . S
C3667 C3671 1.393 . S
C3668 H3657 0.950 . S
C3668 C3666 1.391 . S
C3668 C3669 1.400 . S
C3669 C3663 1.491 . S
C3669 C3668 1.400 . S
C3669 C3670 1.398 . S
C3670 H3658 0.950 . S
C3670 C3669 1.398 . S
C3670 C3671 1.391 . S
C3671 H3659 0.950 . S
C3671 C3667 1.393 . S
C3671 C3670 1.391 . S
H3672 C3680 0.950 . S
H3673 C3685 0.950 . S
H3674 C3682 0.950 . S
H3675 C3684 0.950 . S
H3676 C3686 0.950 . S
H3677 C3688 0.950 . S
H3678 C3690 0.950 . S
H3679 C3691 0.950 . S
C3680 H3672 0.950 . S
C3680 C3681 1.386 . S
C3680 C3682 1.391 . S
C3681 C3680 1.386 . S
C3681 C3685 1.393 . S
C3682 H3674 0.950 . S
C3682 C3680 1.391 . S
C3682 C3683 1.400 . S
C3683 C3682 1.400 . S
C3683 C3684 1.398 . S
C3683 C3689 1.491 . S
C3684 H3675 0.950 . S
C3684 C3683 1.398 . S
C3684 C3685 1.391 . S
C3685 H3673 0.950 . S
C3685 C3681 1.393 . S
C3685 C3684 1.391 . S
C3686 H3676 0.950 . S
C3686 C3687 1.386 . S
C3686 C3688 1.391 . S
C3687 C3686 1.386 . S
C3687 C3691 1.393 . S
C3688 H3677 0.950 . S
C3688 C3686 1.391 . S
C3688 C3689 1.400 . S
C3689 C3683 1.491 . S
C3689 C3688 1.400 . S
C3689 C3690 1.398 . S
C3690 H3678 0.950 . S
C3690 C3689 1.398 . S
C3690 C3691 1.391 . S
C3691 H3679 0.950 . S
C3691 C3687 1.393 . S
C3691 C3690 1.391 . S
H3692 C3700 0.950 . S
H3693 C3705 0.950 . S
H3694 C3702 0.950 . S
H3695 C3704 0.950 . S
H3696 C3706 0.950 . S
H3697 C3708 0.950 . S
H3698 C3710 0.950 . S
H3699 C3711 0.950 . S
C3700 H3692 0.950 . S
C3700 C3701 1.386 . S
C3700 C3702 1.391 . S
C3701 C3700 1.386 . S
C3701 C3705 1.393 . S
C3702 H3694 0.950 . S
C3702 C3700 1.391 . S
C3702 C3703 1.400 . S
C3703 C3702 1.400 . S
C3703 C3704 1.398 1_455 S
C3703 C3709 1.491 1_455 S
C3704 H3695 0.950 . S
C3704 C3703 1.398 1_655 S
C3704 C3705 1.391 1_655 S
C3705 H3693 0.950 . S
C3705 C3701 1.393 . S
C3705 C3704 1.391 1_455 S
C3706 H3696 0.950 . S
C3706 C3707 1.386 . S
C3706 C3708 1.391 . S
C3707 C3706 1.386 . S
C3707 C3711 1.393 . S
C3708 H3697 0.950 . S
C3708 C3706 1.391 . S
C3708 C3709 1.400 . S
C3709 C3703 1.491 1_655 S
C3709 C3708 1.400 . S
C3709 C3710 1.398 1_655 S
C3710 H3698 0.950 . S
C3710 C3709 1.398 1_455 S
C3710 C3711 1.391 1_455 S
C3711 H3699 0.950 . S
C3711 C3707 1.393 . S
C3711 C3710 1.391 1_655 S
H3712 C3720 0.950 . S
H3713 C3725 0.950 . S
H3714 C3722 0.950 . S
H3715 C3724 0.973 . S
H3716 C3726 0.950 . S
H3717 C3728 0.950 . S
H3718 C3730 0.973 . S
H3719 C3731 0.950 . S
C3720 H3712 0.950 . S
C3720 C3721 1.386 . S
C3720 C3722 1.391 . S
C3721 C3720 1.386 . S
C3721 C3725 1.393 . S
C3722 H3714 0.950 . S
C3722 C3720 1.391 . S
C3722 C3723 1.400 . S
C3723 C3722 1.400 . S
C3723 C3724 1.398 . S
C3723 C3729 1.491 1_545 S
C3724 H3715 0.973 . S
C3724 C3723 1.398 . S
C3724 C3725 1.391 . S
C3725 H3713 0.950 . S
C3725 C3721 1.393 . S
C3725 C3724 1.391 . S
C3726 H3716 0.950 . S
C3726 C3727 1.386 . S
C3726 C3728 1.391 . S
C3727 C3726 1.386 . S
C3727 C3731 1.393 . S
C3728 H3717 0.950 . S
C3728 C3726 1.391 . S
C3728 C3729 1.400 . S
C3729 C3723 1.491 1_565 S
C3729 C3728 1.400 . S
C3729 C3730 1.398 . S
C3730 H3718 0.973 . S
C3730 C3729 1.398 . S
C3730 C3731 1.391 . S
C3731 H3719 0.950 . S
C3731 C3727 1.393 . S
C3731 C3730 1.391 . S
H3732 C3740 0.950 . S
H3733 C3745 0.950 . S
H3734 C3742 0.950 . S
H3735 C3744 0.950 . S
H3736 C3746 0.950 . S
H3737 C3748 0.950 . S
H3738 C3750 0.950 . S
H3739 C3751 0.950 . S
C3740 H3732 0.950 . S
C3740 C3741 1.386 . S
C3740 C3742 1.391 . S
C3741 C3740 1.386 . S
C3741 C3745 1.393 . S
C3742 H3734 0.950 . S
C3742 C3740 1.391 . S
C3742 C3743 1.400 . S
C3743 C3742 1.400 . S
C3743 C3744 1.398 . S
C3743 C3749 1.491 . S
C3744 H3735 0.950 . S
C3744 C3743 1.398 . S
C3744 C3745 1.391 . S
C3745 H3733 0.950 . S
C3745 C3741 1.393 . S
C3745 C3744 1.391 . S
C3746 H3736 0.950 . S
C3746 C3747 1.386 . S
C3746 C3748 1.391 . S
C3747 C3746 1.386 . S
C3747 C3751 1.393 . S
C3748 H3737 0.950 . S
C3748 C3746 1.391 . S
C3748 C3749 1.400 . S
C3749 C3743 1.491 . S
C3749 C3748 1.400 . S
C3749 C3750 1.398 . S
C3750 H3738 0.950 . S
C3750 C3749 1.398 . S
C3750 C3751 1.391 . S
C3751 H3739 0.950 . S
C3751 C3747 1.393 . S
C3751 C3750 1.391 . S
H3752 C3760 0.950 . S
H3753 C3765 0.950 . S
H3754 C3762 0.950 . S
H3755 C3764 0.950 . S
H3756 C3766 0.950 . S
H3757 C3768 0.950 . S
H3758 C3770 0.950 . S
H3759 C3771 0.950 . S
C3760 H3752 0.950 . S
C3760 C3761 1.386 . S
C3760 C3762 1.391 . S
C3761 C3760 1.386 . S
C3761 C3765 1.393 . S
C3762 H3754 0.950 . S
C3762 C3760 1.391 . S
C3762 C3763 1.400 . S
C3763 C3762 1.400 . S
C3763 C3764 1.398 . S
C3763 C3769 1.491 1_565 S
C3764 H3755 0.950 . S
C3764 C3763 1.398 . S
C3764 C3765 1.391 . S
C3765 H3753 0.950 . S
C3765 C3761 1.393 . S
C3765 C3764 1.391 . S
C3766 H3756 0.950 . S
C3766 C3767 1.386 . S
C3766 C3768 1.391 . S
C3767 C3766 1.386 . S
C3767 C3771 1.393 . S
C3768 H3757 0.950 . S
C3768 C3766 1.391 . S
C3768 C3769 1.400 . S
C3769 C3763 1.491 1_545 S
C3769 C3768 1.400 . S
C3769 C3770 1.398 . S
C3770 H3758 0.950 . S
C3770 C3769 1.398 . S
C3770 C3771 1.391 . S
C3771 H3759 0.950 . S
C3771 C3767 1.393 . S
C3771 C3770 1.391 . S
H3772 C3780 0.950 . S
H3773 C3785 0.950 1_554 S
H3774 C3782 0.950 . S
H3775 C3784 0.950 . S
H3776 C3786 0.950 . S
H3777 C3788 0.950 . S
H3778 C3790 0.950 . S
H3779 C3791 0.950 1_556 S
C3780 H3772 0.950 . S
C3780 C3781 1.386 . S
C3780 C3782 1.391 . S
C3781 C3780 1.386 . S
C3781 C3785 1.393 . S
C3782 H3774 0.950 . S
C3782 C3780 1.391 . S
C3782 C3783 1.400 . S
C3783 C3782 1.400 . S
C3783 C3784 1.398 1_556 S
C3783 C3789 1.491 1_556 S
C3784 H3775 0.950 . S
C3784 C3783 1.398 1_554 S
C3784 C3785 1.391 1_554 S
C3785 H3773 0.950 1_556 S
C3785 C3781 1.393 . S
C3785 C3784 1.391 1_556 S
C3786 H3776 0.950 . S
C3786 C3787 1.386 . S
C3786 C3788 1.391 . S
C3787 C3786 1.386 . S
C3787 C3791 1.393 . S
C3788 H3777 0.950 . S
C3788 C3786 1.391 . S
C3788 C3789 1.400 . S
C3789 C3783 1.491 1_554 S
C3789 C3788 1.400 . S
C3789 C3790 1.398 1_554 S
C3790 H3778 0.950 . S
C3790 C3789 1.398 1_556 S
C3790 C3791 1.391 1_556 S
C3791 H3779 0.950 1_554 S
C3791 C3787 1.393 . S
C3791 C3790 1.391 1_554 S
H3792 C3800 0.950 . S
H3793 C3805 0.950 . S
H3794 C3802 0.950 . S
H3795 C3804 0.950 . S
H3796 C3806 0.950 . S
H3797 C3808 0.950 . S
H3798 C3810 0.950 . S
H3799 C3811 0.950 . S
C3800 H3792 0.950 . S
C3800 C3801 1.386 . S
C3800 C3802 1.391 . S
C3801 C3800 1.386 . S
C3801 C3805 1.393 . S
C3802 H3794 0.950 . S
C3802 C3800 1.391 . S
C3802 C3803 1.400 . S
C3803 C3802 1.400 . S
C3803 C3804 1.398 . S
C3803 C3809 1.491 1_556 S
C3804 H3795 0.950 . S
C3804 C3803 1.398 . S
C3804 C3805 1.391 . S
C3805 H3793 0.950 . S
C3805 C3801 1.393 . S
C3805 C3804 1.391 . S
C3806 H3796 0.950 . S
C3806 C3807 1.386 . S
C3806 C3808 1.391 . S
C3807 C3806 1.386 . S
C3807 C3811 1.393 . S
C3808 H3797 0.950 . S
C3808 C3806 1.391 . S
C3808 C3809 1.400 . S
C3809 C3803 1.491 1_554 S
C3809 C3808 1.400 . S
C3809 C3810 1.398 . S
C3810 H3798 0.950 . S
C3810 C3809 1.398 . S
C3810 C3811 1.391 . S
C3811 H3799 0.950 . S
C3811 C3807 1.393 . S
C3811 C3810 1.391 . S
H3812 C3820 0.950 . S
H3813 C3825 0.950 . S
H3814 C3822 0.950 . S
H3815 C3824 0.976 . S
H3816 C3826 0.950 . S
H3817 C3828 0.950 . S
H3818 C3830 0.976 . S
H3819 C3831 0.950 . S
C3820 H3812 0.950 . S
C3820 C3821 1.386 . S
C3820 C3822 1.391 . S
C3821 C3820 1.386 . S
C3821 C3825 1.393 . S
C3822 H3814 0.950 . S
C3822 C3820 1.391 . S
C3822 C3823 1.400 . S
C3823 C3822 1.400 . S
C3823 C3824 1.398 . S
C3823 C3829 1.491 1_554 S
C3824 H3815 0.976 . S
C3824 C3823 1.398 . S
C3824 C3825 1.391 . S
C3825 H3813 0.950 . S
C3825 C3821 1.393 . S
C3825 C3824 1.391 . S
C3826 H3816 0.950 . S
C3826 C3827 1.386 . S
C3826 C3828 1.391 . S
C3827 C3826 1.386 . S
C3827 C3831 1.393 . S
C3828 H3817 0.950 . S
C3828 C3826 1.391 . S
C3828 C3829 1.400 . S
C3829 C3823 1.491 1_556 S
C3829 C3828 1.400 . S
C3829 C3830 1.398 . S
C3830 H3818 0.976 . S
C3830 C3829 1.398 . S
C3830 C3831 1.391 . S
C3831 H3819 0.950 . S
C3831 C3827 1.393 . S
C3831 C3830 1.391 . S
H3832 C3840 0.950 . S
H3833 C3845 0.950 . S
H3834 C3842 0.950 . S
H3835 C3844 0.950 . S
H3836 C3846 0.950 . S
H3837 C3848 0.950 . S
H3838 C3850 0.950 . S
H3839 C3851 0.950 . S
C3840 H3832 0.950 . S
C3840 C3841 1.386 . S
C3840 C3842 1.391 . S
C3841 C3840 1.386 . S
C3841 C3845 1.393 . S
C3842 H3834 0.950 . S
C3842 C3840 1.391 . S
C3842 C3843 1.400 . S
C3843 C3842 1.400 . S
C3843 C3844 1.398 . S
C3843 C3849 1.491 . S
C3844 H3835 0.950 . S
C3844 C3843 1.398 . S
C3844 C3845 1.391 . S
C3845 H3833 0.950 . S
C3845 C3841 1.393 . S
C3845 C3844 1.391 . S
C3846 H3836 0.950 . S
C3846 C3847 1.386 . S
C3846 C3848 1.391 . S
C3847 C3846 1.386 . S
C3847 C3851 1.393 . S
C3848 H3837 0.950 . S
C3848 C3846 1.391 . S
C3848 C3849 1.400 . S
C3849 C3843 1.491 . S
C3849 C3848 1.400 . S
C3849 C3850 1.398 . S
C3850 H3838 0.950 . S
C3850 C3849 1.398 . S
C3850 C3851 1.391 . S
C3851 H3839 0.950 . S
C3851 C3847 1.393 . S
C3851 C3850 1.391 . S
H3852 C3860 0.950 . S
H3853 C3865 0.950 . S
H3854 C3862 0.950 . S
H3855 C3864 0.950 . S
H3856 C3866 0.950 . S
H3857 C3868 0.950 . S
H3858 C3870 0.950 . S
H3859 C3871 0.950 . S
C3860 H3852 0.950 . S
C3860 C3861 1.386 . S
C3860 C3862 1.391 . S
C3861 C3860 1.386 . S
C3861 C3865 1.393 . S
C3862 H3854 0.950 . S
C3862 C3860 1.391 . S
C3862 C3863 1.400 . S
C3863 C3862 1.400 . S
C3863 C3864 1.398 . S
C3863 C3869 1.491 . S
C3864 H3855 0.950 . S
C3864 C3863 1.398 . S
C3864 C3865 1.391 . S
C3865 H3853 0.950 . S
C3865 C3861 1.393 . S
C3865 C3864 1.391 . S
C3866 H3856 0.950 . S
C3866 C3867 1.386 . S
C3866 C3868 1.391 . S
C3867 C3866 1.386 . S
C3867 C3871 1.393 . S
C3868 H3857 0.950 . S
C3868 C3866 1.391 . S
C3868 C3869 1.400 . S
C3869 C3863 1.491 . S
C3869 C3868 1.400 . S
C3869 C3870 1.398 . S
C3870 H3858 0.950 . S
C3870 C3869 1.398 . S
C3870 C3871 1.391 . S
C3871 H3859 0.950 . S
C3871 C3867 1.393 . S
C3871 C3870 1.391 . S
H3872 C3880 0.950 . S
H3873 C3885 0.950 . S
H3874 C3882 0.950 . S
H3875 C3884 0.950 . S
H3876 C3886 0.950 . S
H3877 C3888 0.950 . S
H3878 C3890 0.950 . S
H3879 C3891 0.950 . S
C3880 H3872 0.950 . S
C3880 C3881 1.386 . S
C3880 C3882 1.391 1_545 S
C3881 C3880 1.386 . S
C3881 C3885 1.393 . S
C3882 H3874 0.950 . S
C3882 C3880 1.391 1_565 S
C3882 C3883 1.400 1_565 S
C3883 C3882 1.400 1_545 S
C3883 C3884 1.398 . S
C3883 C3889 1.491 1_545 S
C3884 H3875 0.950 . S
C3884 C3883 1.398 . S
C3884 C3885 1.391 . S
C3885 H3873 0.950 . S
C3885 C3881 1.393 . S
C3885 C3884 1.391 . S
C3886 H3876 0.950 . S
C3886 C3887 1.386 . S
C3886 C3888 1.391 1_565 S
C3887 C3886 1.386 . S
C3887 C3891 1.393 . S
C3888 H3877 0.950 . S
C3888 C3886 1.391 1_545 S
C3888 C3889 1.400 1_545 S
C3889 C3883 1.491 1_565 S
C3889 C3888 1.400 1_565 S
C3889 C3890 1.398 . S
C3890 H3878 0.950 . S
C3890 C3889 1.398 . S
C3890 C3891 1.391 . S
C3891 H3879 0.950 . S
C3891 C3887 1.393 . S
C3891 C3890 1.391 . S
H3892 C3900 0.950 . S
H3893 C3905 0.950 . S
H3894 C3902 0.950 . S
H3895 C3904 0.950 . S
H3896 C3906 0.950 . S
H3897 C3908 0.950 . S
H3898 C3910 0.950 . S
H3899 C3911 0.950 . S
C3900 H3892 0.950 . S
C3900 C3901 1.386 . S
C3900 C3902 1.391 . S
C3901 C3900 1.386 . S
C3901 C3905 1.393 . S
C3902 H3894 0.950 . S
C3902 C3900 1.391 . S
C3902 C3903 1.400 . S
C3903 C3902 1.400 . S
C3903 C3904 1.398 . S
C3903 C3909 1.491 . S
C3904 H3895 0.950 . S
C3904 C3903 1.398 . S
C3904 C3905 1.391 . S
C3905 H3893 0.950 . S
C3905 C3901 1.393 . S
C3905 C3904 1.391 . S
C3906 H3896 0.950 . S
C3906 C3907 1.386 . S
C3906 C3908 1.391 . S
C3907 C3906 1.386 . S
C3907 C3911 1.393 . S
C3908 H3897 0.950 . S
C3908 C3906 1.391 . S
C3908 C3909 1.400 . S
C3909 C3903 1.491 . S
C3909 C3908 1.400 . S
C3909 C3910 1.398 . S
C3910 H3898 0.950 . S
C3910 C3909 1.398 . S
C3910 C3911 1.391 . S
C3911 H3899 0.950 . S
C3911 C3907 1.393 . S
C3911 C3910 1.391 . S
H3912 C3920 0.950 . S
H3913 C3925 0.950 . S
H3914 C3922 0.950 . S
H3915 C3924 0.950 . S
H3916 C3926 0.950 . S
H3917 C3928 0.950 . S
H3918 C3930 0.950 . S
H3919 C3931 0.950 . S
C3920 H3912 0.950 . S
C3920 C3921 1.386 . S
C3920 C3922 1.391 . S
C3921 C3920 1.386 . S
C3921 C3925 1.393 . S
C3922 H3914 0.950 . S
C3922 C3920 1.391 . S
C3922 C3923 1.400 . S
C3923 C3922 1.400 . S
C3923 C3924 1.398 . S
C3923 C3929 1.491 . S
C3924 H3915 0.950 . S
C3924 C3923 1.398 . S
C3924 C3925 1.391 . S
C3925 H3913 0.950 . S
C3925 C3921 1.393 . S
C3925 C3924 1.391 . S
C3926 H3916 0.950 . S
C3926 C3927 1.386 . S
C3926 C3928 1.391 . S
C3927 C3926 1.386 . S
C3927 C3931 1.393 . S
C3928 H3917 0.950 . S
C3928 C3926 1.391 . S
C3928 C3929 1.400 . S
C3929 C3923 1.491 . S
C3929 C3928 1.400 . S
C3929 C3930 1.398 . S
C3930 H3918 0.950 . S
C3930 C3929 1.398 . S
C3930 C3931 1.391 . S
C3931 H3919 0.950 . S
C3931 C3927 1.393 . S
C3931 C3930 1.391 . S
H3932 C3940 0.950 . S
H3933 C3945 0.950 . S
H3934 C3942 0.950 . S
H3935 C3944 0.950 . S
H3936 C3946 0.950 . S
H3937 C3948 0.950 . S
H3938 C3950 0.950 . S
H3939 C3951 0.950 . S
C3940 H3932 0.950 . S
C3940 C3941 1.386 . S
C3940 C3942 1.391 . S
C3941 C3940 1.386 . S
C3941 C3945 1.393 . S
C3942 H3934 0.950 . S
C3942 C3940 1.391 . S
C3942 C3943 1.400 . S
C3943 C3942 1.400 . S
C3943 C3944 1.398 . S
C3943 C3949 1.491 . S
C3944 H3935 0.950 . S
C3944 C3943 1.398 . S
C3944 C3945 1.391 . S
C3945 H3933 0.950 . S
C3945 C3941 1.393 . S
C3945 C3944 1.391 . S
C3946 H3936 0.950 . S
C3946 C3947 1.386 . S
C3946 C3948 1.391 . S
C3947 C3946 1.386 . S
C3947 C3951 1.393 . S
C3948 H3937 0.950 . S
C3948 C3946 1.391 . S
C3948 C3949 1.400 . S
C3949 C3943 1.491 . S
C3949 C3948 1.400 . S
C3949 C3950 1.398 . S
C3950 H3938 0.950 . S
C3950 C3949 1.398 . S
C3950 C3951 1.391 . S
C3951 H3939 0.950 . S
C3951 C3947 1.393 . S
C3951 C3950 1.391 . S
H3952 C3960 0.950 . S
H3953 C3965 0.950 . S
H3954 C3962 0.950 . S
H3955 C3964 0.935 1_556 S
H3956 C3966 0.950 . S
H3957 C3968 0.950 . S
H3958 C3970 0.935 1_554 S
H3959 C3971 0.950 . S
C3960 H3952 0.950 . S
C3960 C3961 1.386 . S
C3960 C3962 1.391 . S
C3961 C3960 1.386 . S
C3961 C3965 1.393 . S
C3962 H3954 0.950 . S
C3962 C3960 1.391 . S
C3962 C3963 1.400 . S
C3963 C3962 1.400 . S
C3963 C3964 1.403 . S
C3963 C3969 1.491 1_554 S
C3964 H3955 0.935 1_554 S
C3964 C3963 1.403 . S
C3964 C3965 1.401 . S
C3965 H3953 0.950 . S
C3965 C3961 1.393 . S
C3965 C3964 1.401 . S
C3966 H3956 0.950 . S
C3966 C3967 1.386 . S
C3966 C3968 1.391 . S
C3967 C3966 1.386 . S
C3967 C3971 1.393 . S
C3968 H3957 0.950 . S
C3968 C3966 1.391 . S
C3968 C3969 1.400 . S
C3969 C3963 1.491 1_556 S
C3969 C3968 1.400 . S
C3969 C3970 1.403 . S
C3970 H3958 0.935 1_556 S
C3970 C3969 1.403 . S
C3970 C3971 1.401 . S
C3971 H3959 0.950 . S
C3971 C3967 1.393 . S
C3971 C3970 1.401 . S
H3972 C3980 0.950 . S
H3973 C3985 0.950 . S
H3974 C3982 0.950 . S
H3975 C3984 0.950 . S
H3976 C3986 0.950 . S
H3977 C3988 0.950 . S
H3978 C3990 0.950 . S
H3979 C3991 0.950 . S
C3980 H3972 0.950 . S
C3980 C3981 1.386 . S
C3980 C3982 1.391 . S
C3981 C3980 1.386 . S
C3981 C3985 1.393 . S
C3982 H3974 0.950 . S
C3982 C3980 1.391 . S
C3982 C3983 1.400 . S
C3983 C3982 1.400 . S
C3983 C3984 1.398 . S
C3983 C3989 1.491 . S
C3984 H3975 0.950 . S
C3984 C3983 1.398 . S
C3984 C3985 1.391 . S
C3985 H3973 0.950 . S
C3985 C3981 1.393 . S
C3985 C3984 1.391 . S
C3986 H3976 0.950 . S
C3986 C3987 1.386 . S
C3986 C3988 1.391 . S
C3987 C3986 1.386 . S
C3987 C3991 1.393 . S
C3988 H3977 0.950 . S
C3988 C3986 1.391 . S
C3988 C3989 1.400 . S
C3989 C3983 1.491 . S
C3989 C3988 1.400 . S
C3989 C3990 1.398 . S
C3990 H3978 0.950 . S
C3990 C3989 1.398 . S
C3990 C3991 1.391 . S
C3991 H3979 0.950 . S
C3991 C3987 1.393 . S
C3991 C3990 1.391 . S
H3992 C4000 0.950 . S
H3993 C4005 0.950 . S
H3994 C4002 0.950 . S
H3995 C4004 0.950 . S
H3996 C4006 0.950 . S
H3997 C4008 0.950 . S
H3998 C4010 0.950 . S
H3999 C4011 0.950 . S
C4000 H3992 0.950 . S
C4000 C4001 1.386 . S
C4000 C4002 1.391 . S
C4001 C4000 1.386 . S
C4001 C4005 1.393 . S
C4002 H3994 0.950 . S
C4002 C4000 1.391 . S
C4002 C4003 1.400 . S
C4003 C4002 1.400 . S
C4003 C4004 1.398 . S
C4003 C4009 1.491 . S
C4004 H3995 0.950 . S
C4004 C4003 1.398 . S
C4004 C4005 1.391 . S
C4005 H3993 0.950 . S
C4005 C4001 1.393 . S
C4005 C4004 1.391 . S
C4006 H3996 0.950 . S
C4006 C4007 1.386 . S
C4006 C4008 1.391 . S
C4007 C4006 1.386 . S
C4007 C4011 1.393 . S
C4008 H3997 0.950 . S
C4008 C4006 1.391 . S
C4008 C4009 1.400 . S
C4009 C4003 1.491 . S
C4009 C4008 1.400 . S
C4009 C4010 1.398 . S
C4010 H3998 0.950 . S
C4010 C4009 1.398 . S
C4010 C4011 1.391 . S
C4011 H3999 0.950 . S
C4011 C4007 1.393 . S
C4011 C4010 1.391 . S
H4012 C4020 0.950 . S
H4013 C4025 0.950 . S
H4014 C4022 0.950 . S
H4015 C4024 0.950 . S
H4016 C4026 0.950 . S
H4017 C4028 0.950 . S
H4018 C4030 0.950 . S
H4019 C4031 0.950 . S
C4020 H4012 0.950 . S
C4020 C4021 1.386 . S
C4020 C4022 1.391 . S
C4021 C4020 1.386 . S
C4021 C4025 1.393 . S
C4022 H4014 0.950 . S
C4022 C4020 1.391 . S
C4022 C4023 1.400 . S
C4023 C4022 1.400 . S
C4023 C4024 1.398 1_565 S
C4023 C4029 1.491 1_565 S
C4024 H4015 0.950 . S
C4024 C4023 1.398 1_545 S
C4024 C4025 1.391 1_545 S
C4025 H4013 0.950 . S
C4025 C4021 1.393 . S
C4025 C4024 1.391 1_565 S
C4026 H4016 0.950 . S
C4026 C4027 1.386 . S
C4026 C4028 1.391 . S
C4027 C4026 1.386 . S
C4027 C4031 1.393 . S
C4028 H4017 0.950 . S
C4028 C4026 1.391 . S
C4028 C4029 1.400 . S
C4029 C4023 1.491 1_545 S
C4029 C4028 1.400 . S
C4029 C4030 1.398 1_545 S
C4030 H4018 0.950 . S
C4030 C4029 1.398 1_565 S
C4030 C4031 1.391 1_565 S
C4031 H4019 0.950 . S
C4031 C4027 1.393 . S
C4031 C4030 1.391 1_545 S
C1641 C33 2.544 . S
C1647 C713 2.541 . S
C1661 C1427 2.536 . S
C1667 C67 2.541 . S
C1681 C1461 2.539 . S
C1687 C101 2.535 . S
C1701 C135 2.543 . S
C1707 C1495 2.543 . S
C1721 C169 2.538 . S
C1727 C1631 2.544 . S
C1741 C747 2.538 . S
C1747 C203 2.536 . S
C1761 C237 2.543 . S
C1767 C1597 2.543 . S
C1781 C271 2.536 . S
C1787 C577 2.542 . S
C1801 C305 2.538 . S
C1807 C543 2.544 . S
C1821 C339 2.536 . S
C1827 C441 2.541 . S
C1841 C475 2.543 . S
C1847 C373 2.537 . S
C1861 C509 2.537 . S
C1867 C407 2.536 . S
C1881 C883 2.544 . S
C1887 C611 2.538 . S
C1901 C645 2.536 . S
C1907 C917 2.537 . S
C1921 C951 2.544 . S
C1927 C679 2.541 . S
C1941 C781 2.544 . S
C1947 C1053 2.541 . S
C1961 C815 2.543 . S
C1967 C985 2.543 . S
C1981 C1529 2.536 . S
C1987 C849 2.538 . S
C2001 C1563 2.539 . S
C2007 C1019 2.535 . S
C2021 C1087 2.543 . S
C2027 C1393 2.543 . S
C2041 C1359 2.541 . S
C2047 C1121 2.535 . S
C2061 C1257 2.537 . S
C2067 C1155 2.543 . S
C2081 C1189 2.536 . S
C2087 C1291 2.538 . S
C2101 C1223 2.543 . S
C2107 C1325 2.537 . S
C2121 C553 0.939 . S
C2127 C20 0.936 . S
C2141 C1607 0.932 . S
C2147 C54 0.940 . S
C2161 C723 0.905 . S
C2167 C88 0.953 . S
C2181 C122 0.953 . S
C2187 C1573 0.905 . S
C2201 C1403 0.910 . S
C2207 C156 0.951 . S
C2221 C190 0.937 . S
C2227 C1437 0.937 . S
C2241 C1471 0.941 . S
C2247 C224 0.935 . S
C2261 C258 0.937 . S
C2267 C689 0.937 . S
C2281 C292 0.962 . S
C2287 C9 0.886 . S
C2301 C43 0.930 . S
C2307 C326 0.941 . S
C2321 C77 0.935 . S
C2327 C360 0.938 . S
C2341 C111 0.890 . S
C2347 C394 0.960 . S
C2361 C428 0.941 . S
C2367 C145 0.930 . S
C2381 C462 0.943 . S
C2387 C179 0.926 . S
C2401 C496 0.937 . S
C2407 C213 0.937 . S
C2421 C530 0.936 . S
C2427 C247 0.940 . S
C2441 C281 0.934 . S
C2447 C564 0.939 . S
C2461 C598 0.961 . S
C2467 C1233 0.888 . S
C2481 C632 0.962 . S
C2487 C1267 0.886 . S
C2501 C1301 0.933 . S
C2507 C666 0.939 . S
C2521 C700 0.961 . S
C2527 C519 0.887 . S
C2541 C734 0.948 . S
C2547 C349 0.914 . S
C2561 C1199 0.937 . S
C2567 C768 0.937 . S
C2581 C802 0.961 . S
C2587 C1131 0.887 . S
C2601 C836 0.962 . S
C2607 C1369 0.886 . S
C2621 C870 0.958 . S
C2627 C791 0.896 . S
C2641 C904 0.935 . S
C2647 C1539 0.941 . S
C2661 C938 0.939 . S
C2667 C757 0.934 . S
C2681 C587 0.886 . S
C2687 C972 0.962 . S
C2701 C1006 0.935 . S
C2707 C621 0.941 . S
C2721 C1040 0.962 . S
C2727 C655 0.887 . S
C2741 C1074 0.941 . S
C2747 C1505 0.929 . S
C2761 C825 0.892 . S
C2767 C1108 0.959 . S
C2781 C1142 0.960 . S
C2787 C859 0.890 . S
C2801 C893 0.931 . S
C2807 C1176 0.941 . S
C2821 C927 0.889 . S
C2827 C1210 0.960 . S
C2841 C961 0.939 . S
C2847 C1244 0.936 . S
C2861 C995 0.902 . S
C2867 C1278 0.954 . S
C2881 C1312 0.962 . S
C2887 C1029 0.886 . S
C2901 C1346 0.936 . S
C2907 C1063 0.939 . S
C2921 C1097 0.918 . S
C2927 C1380 0.946 . S
C2941 C1414 0.953 . S
C2947 C417 0.904 . S
C2961 C1448 0.955 . S
C2967 C451 0.900 . S
C2981 C1482 0.936 . S
C2987 C485 0.940 . S
C3001 C1335 0.922 . S
C3007 C1516 0.944 . S
C3021 C1165 0.889 . S
C3027 C1550 0.960 . S
C3041 C383 0.921 . S
C3047 C1584 0.945 . S
C3061 C1618 0.948 . S
C3067 C315 0.915 . S
C3081 C308 1.733 . S
C3087 C2 1.733 . S
C3101 C342 1.725 . S
C3107 C36 1.736 . S
C3121 C70 1.736 . S
C3127 C376 1.725 . S
C3141 C104 1.723 . S
C3147 C274 1.735 . S
C3161 C138 1.720 . S
C3167 C512 1.726 . S
C3181 C410 1.725 . S
C3187 C172 1.720 . S
C3201 C444 1.735 . S
C3207 C206 1.729 . S
C3221 C240 1.719 . S
C3227 C478 1.728 . S
C3241 C546 1.719 . S
C3247 C614 1.731 . S
C3261 C1566 1.725 . S
C3267 C580 1.720 . S
C3281 C1600 1.729 . S
C3287 C648 1.719 . S
C3301 C1532 1.725 . S
C3307 C682 1.736 . S
C3321 C716 1.732 . S
C3327 C1498 1.720 . S
C3341 C1396 1.736 . S
C3347 C750 1.727 . S
C3361 C1464 1.734 . S
C3367 C784 1.721 . S
C3381 C1124 1.732 . S
C3387 C818 1.720 . S
C3401 C1158 1.719 . S
C3407 C852 1.728 . S
C3421 C886 1.726 . S
C3427 C1192 1.720 . S
C3441 C1090 1.736 . S
C3447 C920 1.726 . S
C3461 C1328 1.733 . S
C3467 C954 1.720 . S
C3481 C988 1.733 . S
C3487 C1226 1.733 . S
C3501 C1260 1.724 . S
C3507 C1022 1.736 . S
C3521 C1056 1.721 . S
C3527 C1294 1.734 . S
C3541 C1362 1.735 . S
C3547 C1430 1.722 . S
C3561 C889 1.407 . S
C3567 C5 1.410 . S
C3581 C39 1.413 . S
C3587 C923 1.406 . S
C3601 C821 1.405 . S
C3607 C73 1.412 . S
C3621 C855 1.406 . S
C3627 C107 1.412 . S
C3641 C1025 1.412 . S
C3647 C141 1.405 . S
C3661 C1059 1.414 . S
C3667 C175 1.406 . S
C3681 C957 1.412 . S
C3687 C209 1.408 . S
C3701 C243 1.412 . S
C3707 C991 1.408 . S
C3721 C277 1.405 . S
C3727 C413 1.413 . S
C3741 C311 1.406 . S
C3747 C447 1.413 . S
C3761 C345 1.411 . S
C3767 C481 1.406 . S
C3781 C379 1.413 . S
C3787 C515 1.405 . S
C3801 C1467 1.413 . S
C3807 C549 1.406 . S
C3821 C1535 1.405 . S
C3827 C583 1.413 . S
C3841 C617 1.414 . S
C3847 C753 1.405 . S
C3861 C1365 1.413 . S
C3867 C651 1.405 . S
C3881 C685 1.407 . S
C3887 C1603 1.413 . S
C3901 C719 1.406 . S
C3907 C1399 1.411 . S
C3921 C787 1.409 . S
C3927 C1501 1.412 . S
C3941 C1093 1.413 . S
C3947 C1229 1.405 . S
C3961 C1263 1.412 . S
C3967 C1127 1.409 . S
C3981 C1297 1.407 . S
C3987 C1161 1.413 . S
C4001 C1195 1.413 . S
C4007 C1331 1.405 . S
C4021 C1433 1.412 . S
C4027 C1569 1.408 . S
