# Generated by pormake.
# Topology wiq, (6)-cn, num edge types: 1
# Building blocks:
#     Node 0, Type 0, BuildingBlock: OJICUG_clean_sbu_0, # of connection points: 6
#     Node 1, Type 0, BuildingBlock: OJICUG_clean_sbu_0, # of connection points: 6
#     Node 2, Type 0, BuildingBlock: OJICUG_clean_sbu_0, # of connection points: 6
#     Node 3, Type 0, BuildingBlock: OJICUG_clean_sbu_0, # of connection points: 6
#     Node 4, Type 0, BuildingBlock: OJICUG_clean_sbu_0, # of connection points: 6
#     Node 5, Type 0, BuildingBlock: OJICUG_clean_sbu_0, # of connection points: 6
#     Node 6, Type 0, BuildingBlock: OJICUG_clean_sbu_0, # of connection points: 6
#     Node 7, Type 0, BuildingBlock: OJICUG_clean_sbu_0, # of connection points: 6
#     Node 8, Type 0, BuildingBlock: OJICUG_clean_sbu_0, # of connection points: 6
#     Node 9, Type 0, BuildingBlock: OJICUG_clean_sbu_0, # of connection points: 6
#     Node 10, Type 0, BuildingBlock: OJICUG_clean_sbu_0, # of connection points: 6
#     Node 11, Type 0, BuildingBlock: OJICUG_clean_sbu_0, # of connection points: 6
#     Node 12, Type 0, BuildingBlock: OJICUG_clean_sbu_0, # of connection points: 6
#     Node 13, Type 0, BuildingBlock: OJICUG_clean_sbu_0, # of connection points: 6
#     Node 14, Type 0, BuildingBlock: OJICUG_clean_sbu_0, # of connection points: 6
#     Node 15, Type 0, BuildingBlock: OJICUG_clean_sbu_0, # of connection points: 6
#     Node 16, Type 0, BuildingBlock: OJICUG_clean_sbu_0, # of connection points: 6
#     Node 17, Type 0, BuildingBlock: OJICUG_clean_sbu_0, # of connection points: 6
#     Node 18, Type 0, BuildingBlock: OJICUG_clean_sbu_0, # of connection points: 6
#     Node 19, Type 0, BuildingBlock: OJICUG_clean_sbu_0, # of connection points: 6
#     Node 20, Type 0, BuildingBlock: OJICUG_clean_sbu_0, # of connection points: 6
#     Node 21, Type 0, BuildingBlock: OJICUG_clean_sbu_0, # of connection points: 6
#     Node 22, Type 0, BuildingBlock: OJICUG_clean_sbu_0, # of connection points: 6
#     Node 23, Type 0, BuildingBlock: OJICUG_clean_sbu_0, # of connection points: 6
#     Node 24, Type 0, BuildingBlock: OJICUG_clean_sbu_0, # of connection points: 6
#     Node 25, Type 0, BuildingBlock: OJICUG_clean_sbu_0, # of connection points: 6
#     Node 26, Type 0, BuildingBlock: OJICUG_clean_sbu_0, # of connection points: 6
#     Node 27, Type 0, BuildingBlock: OJICUG_clean_sbu_0, # of connection points: 6
#     Node 28, Type 0, BuildingBlock: OJICUG_clean_sbu_0, # of connection points: 6
#     Node 29, Type 0, BuildingBlock: OJICUG_clean_sbu_0, # of connection points: 6
#     Node 30, Type 0, BuildingBlock: OJICUG_clean_sbu_0, # of connection points: 6
#     Node 31, Type 0, BuildingBlock: OJICUG_clean_sbu_0, # of connection points: 6
#     Edge 32, Type (0, 0), BuildingBlock: OJICUG_clean_linker_0, # of connection points: 2
#     Edge 33, Type (0, 0), BuildingBlock: OJICUG_clean_linker_0, # of connection points: 2
#     Edge 34, Type (0, 0), BuildingBlock: OJICUG_clean_linker_0, # of connection points: 2
#     Edge 35, Type (0, 0), BuildingBlock: OJICUG_clean_linker_0, # of connection points: 2
#     Edge 36, Type (0, 0), BuildingBlock: OJICUG_clean_linker_0, # of connection points: 2
#     Edge 37, Type (0, 0), BuildingBlock: OJICUG_clean_linker_0, # of connection points: 2
#     Edge 38, Type (0, 0), BuildingBlock: OJICUG_clean_linker_0, # of connection points: 2
#     Edge 39, Type (0, 0), BuildingBlock: OJICUG_clean_linker_0, # of connection points: 2
#     Edge 40, Type (0, 0), BuildingBlock: OJICUG_clean_linker_0, # of connection points: 2
#     Edge 41, Type (0, 0), BuildingBlock: OJICUG_clean_linker_0, # of connection points: 2
#     Edge 42, Type (0, 0), BuildingBlock: OJICUG_clean_linker_0, # of connection points: 2
#     Edge 43, Type (0, 0), BuildingBlock: OJICUG_clean_linker_0, # of connection points: 2
#     Edge 44, Type (0, 0), BuildingBlock: OJICUG_clean_linker_0, # of connection points: 2
#     Edge 45, Type (0, 0), BuildingBlock: OJICUG_clean_linker_0, # of connection points: 2
#     Edge 46, Type (0, 0), BuildingBlock: OJICUG_clean_linker_0, # of connection points: 2
#     Edge 47, Type (0, 0), BuildingBlock: OJICUG_clean_linker_0, # of connection points: 2
#     Edge 48, Type (0, 0), BuildingBlock: OJICUG_clean_linker_0, # of connection points: 2
#     Edge 49, Type (0, 0), BuildingBlock: OJICUG_clean_linker_0, # of connection points: 2
#     Edge 50, Type (0, 0), BuildingBlock: OJICUG_clean_linker_0, # of connection points: 2
#     Edge 51, Type (0, 0), BuildingBlock: OJICUG_clean_linker_0, # of connection points: 2
#     Edge 52, Type (0, 0), BuildingBlock: OJICUG_clean_linker_0, # of connection points: 2
#     Edge 53, Type (0, 0), BuildingBlock: OJICUG_clean_linker_0, # of connection points: 2
#     Edge 54, Type (0, 0), BuildingBlock: OJICUG_clean_linker_0, # of connection points: 2
#     Edge 55, Type (0, 0), BuildingBlock: OJICUG_clean_linker_0, # of connection points: 2
#     Edge 56, Type (0, 0), BuildingBlock: OJICUG_clean_linker_0, # of connection points: 2
#     Edge 57, Type (0, 0), BuildingBlock: OJICUG_clean_linker_0, # of connection points: 2
#     Edge 58, Type (0, 0), BuildingBlock: OJICUG_clean_linker_0, # of connection points: 2
#     Edge 59, Type (0, 0), BuildingBlock: OJICUG_clean_linker_0, # of connection points: 2
#     Edge 60, Type (0, 0), BuildingBlock: OJICUG_clean_linker_0, # of connection points: 2
#     Edge 61, Type (0, 0), BuildingBlock: OJICUG_clean_linker_0, # of connection points: 2
#     Edge 62, Type (0, 0), BuildingBlock: OJICUG_clean_linker_0, # of connection points: 2
#     Edge 63, Type (0, 0), BuildingBlock: OJICUG_clean_linker_0, # of connection points: 2
#     Edge 64, Type (0, 0), BuildingBlock: OJICUG_clean_linker_0, # of connection points: 2
#     Edge 65, Type (0, 0), BuildingBlock: OJICUG_clean_linker_0, # of connection points: 2
#     Edge 66, Type (0, 0), BuildingBlock: OJICUG_clean_linker_0, # of connection points: 2
#     Edge 67, Type (0, 0), BuildingBlock: OJICUG_clean_linker_0, # of connection points: 2
#     Edge 68, Type (0, 0), BuildingBlock: OJICUG_clean_linker_0, # of connection points: 2
#     Edge 69, Type (0, 0), BuildingBlock: OJICUG_clean_linker_0, # of connection points: 2
#     Edge 70, Type (0, 0), BuildingBlock: OJICUG_clean_linker_0, # of connection points: 2
#     Edge 71, Type (0, 0), BuildingBlock: OJICUG_clean_linker_0, # of connection points: 2
#     Edge 72, Type (0, 0), BuildingBlock: OJICUG_clean_linker_0, # of connection points: 2
#     Edge 73, Type (0, 0), BuildingBlock: OJICUG_clean_linker_0, # of connection points: 2
#     Edge 74, Type (0, 0), BuildingBlock: OJICUG_clean_linker_0, # of connection points: 2
#     Edge 75, Type (0, 0), BuildingBlock: OJICUG_clean_linker_0, # of connection points: 2
#     Edge 76, Type (0, 0), BuildingBlock: OJICUG_clean_linker_0, # of connection points: 2
#     Edge 77, Type (0, 0), BuildingBlock: OJICUG_clean_linker_0, # of connection points: 2
#     Edge 78, Type (0, 0), BuildingBlock: OJICUG_clean_linker_0, # of connection points: 2
#     Edge 79, Type (0, 0), BuildingBlock: OJICUG_clean_linker_0, # of connection points: 2
#     Edge 80, Type (0, 0), BuildingBlock: OJICUG_clean_linker_0, # of connection points: 2
#     Edge 81, Type (0, 0), BuildingBlock: OJICUG_clean_linker_0, # of connection points: 2
#     Edge 82, Type (0, 0), BuildingBlock: OJICUG_clean_linker_0, # of connection points: 2
#     Edge 83, Type (0, 0), BuildingBlock: OJICUG_clean_linker_0, # of connection points: 2
#     Edge 84, Type (0, 0), BuildingBlock: OJICUG_clean_linker_0, # of connection points: 2
#     Edge 85, Type (0, 0), BuildingBlock: OJICUG_clean_linker_0, # of connection points: 2
#     Edge 86, Type (0, 0), BuildingBlock: OJICUG_clean_linker_0, # of connection points: 2
#     Edge 87, Type (0, 0), BuildingBlock: OJICUG_clean_linker_0, # of connection points: 2
#     Edge 88, Type (0, 0), BuildingBlock: OJICUG_clean_linker_0, # of connection points: 2
#     Edge 89, Type (0, 0), BuildingBlock: OJICUG_clean_linker_0, # of connection points: 2
#     Edge 90, Type (0, 0), BuildingBlock: OJICUG_clean_linker_0, # of connection points: 2
#     Edge 91, Type (0, 0), BuildingBlock: OJICUG_clean_linker_0, # of connection points: 2
#     Edge 92, Type (0, 0), BuildingBlock: OJICUG_clean_linker_0, # of connection points: 2
#     Edge 93, Type (0, 0), BuildingBlock: OJICUG_clean_linker_0, # of connection points: 2
#     Edge 94, Type (0, 0), BuildingBlock: OJICUG_clean_linker_0, # of connection points: 2
#     Edge 95, Type (0, 0), BuildingBlock: OJICUG_clean_linker_0, # of connection points: 2
#     Edge 96, Type (0, 0), BuildingBlock: OJICUG_clean_linker_0, # of connection points: 2
#     Edge 97, Type (0, 0), BuildingBlock: OJICUG_clean_linker_0, # of connection points: 2
#     Edge 98, Type (0, 0), BuildingBlock: OJICUG_clean_linker_0, # of connection points: 2
#     Edge 99, Type (0, 0), BuildingBlock: OJICUG_clean_linker_0, # of connection points: 2
#     Edge 100, Type (0, 0), BuildingBlock: OJICUG_clean_linker_0, # of connection points: 2
#     Edge 101, Type (0, 0), BuildingBlock: OJICUG_clean_linker_0, # of connection points: 2
#     Edge 102, Type (0, 0), BuildingBlock: OJICUG_clean_linker_0, # of connection points: 2
#     Edge 103, Type (0, 0), BuildingBlock: OJICUG_clean_linker_0, # of connection points: 2
#     Edge 104, Type (0, 0), BuildingBlock: OJICUG_clean_linker_0, # of connection points: 2
#     Edge 105, Type (0, 0), BuildingBlock: OJICUG_clean_linker_0, # of connection points: 2
#     Edge 106, Type (0, 0), BuildingBlock: OJICUG_clean_linker_0, # of connection points: 2
#     Edge 107, Type (0, 0), BuildingBlock: OJICUG_clean_linker_0, # of connection points: 2
#     Edge 108, Type (0, 0), BuildingBlock: OJICUG_clean_linker_0, # of connection points: 2
#     Edge 109, Type (0, 0), BuildingBlock: OJICUG_clean_linker_0, # of connection points: 2
#     Edge 110, Type (0, 0), BuildingBlock: OJICUG_clean_linker_0, # of connection points: 2
#     Edge 111, Type (0, 0), BuildingBlock: OJICUG_clean_linker_0, # of connection points: 2
#     Edge 112, Type (0, 0), BuildingBlock: OJICUG_clean_linker_0, # of connection points: 2
#     Edge 113, Type (0, 0), BuildingBlock: OJICUG_clean_linker_0, # of connection points: 2
#     Edge 114, Type (0, 0), BuildingBlock: OJICUG_clean_linker_0, # of connection points: 2
#     Edge 115, Type (0, 0), BuildingBlock: OJICUG_clean_linker_0, # of connection points: 2
#     Edge 116, Type (0, 0), BuildingBlock: OJICUG_clean_linker_0, # of connection points: 2
#     Edge 117, Type (0, 0), BuildingBlock: OJICUG_clean_linker_0, # of connection points: 2
#     Edge 118, Type (0, 0), BuildingBlock: OJICUG_clean_linker_0, # of connection points: 2
#     Edge 119, Type (0, 0), BuildingBlock: OJICUG_clean_linker_0, # of connection points: 2
#     Edge 120, Type (0, 0), BuildingBlock: OJICUG_clean_linker_0, # of connection points: 2
#     Edge 121, Type (0, 0), BuildingBlock: OJICUG_clean_linker_0, # of connection points: 2
#     Edge 122, Type (0, 0), BuildingBlock: OJICUG_clean_linker_0, # of connection points: 2
#     Edge 123, Type (0, 0), BuildingBlock: OJICUG_clean_linker_0, # of connection points: 2
#     Edge 124, Type (0, 0), BuildingBlock: OJICUG_clean_linker_0, # of connection points: 2
#     Edge 125, Type (0, 0), BuildingBlock: OJICUG_clean_linker_0, # of connection points: 2
#     Edge 126, Type (0, 0), BuildingBlock: OJICUG_clean_linker_0, # of connection points: 2
#     Edge 127, Type (0, 0), BuildingBlock: OJICUG_clean_linker_0, # of connection points: 2
# Relax obj value: 0.240
# Max RMSD: 0.192
# Mean RMSD: 0.192
data_MOF--net-wiq--node1-OJICUG_clean_sbu_0--edge1-OJICUG_clean_linker_0
_symmetry_space_group_name_H-M    P1
_symmetry_Int_Tables_number       1
_symmetry_cell_setting            triclinic
loop_
_symmetry_equiv_pos_as_xyz
'x, y, z'
_cell_length_a     37.541632
_cell_length_b     37.533588
_cell_length_c     41.996478
_cell_angle_alpha  90.000794
_cell_angle_beta   89.999455
_cell_angle_gamma 90.001301
loop_
_atom_site_label
_atom_site_type_symbol
_atom_site_fract_x
_atom_site_fract_y
_atom_site_fract_z
_atom_type_partial_charge
Sc0 Sc 0.14446 0.19982 0.24603 0.0
Sc1 Sc 0.16369 0.14324 0.3087 0.0
Sc2 Sc 0.09167 0.12569 0.25784 0.0
O3 O 0.13191 0.15677 0.27158 0.0
C4 C 0.06227 0.20552 0.25016 0.0
C5 C 0.15379 0.22429 0.3197 0.0
C6 C 0.08624 0.11586 0.33174 0.0
C7 C 0.21707 0.18289 0.26122 0.0
C8 C 0.11957 0.14807 0.19043 0.0
C9 C 0.15611 0.07115 0.27002 0.0
O10 O 0.09253 0.2206 0.24983 0.0
O11 O 0.15088 0.19294 0.33127 0.0
O12 O 0.07212 0.12229 0.30501 0.0
O13 O 0.1947 0.17561 0.24024 0.0
O14 O 0.10602 0.12519 0.20886 0.0
O15 O 0.17666 0.09271 0.28505 0.0
O16 O 0.13239 0.17728 0.2003 0.0
O17 O 0.21085 0.17234 0.28958 0.0
O18 O 0.1239 0.0784 0.26279 0.0
O19 O 0.15714 0.23001 0.28974 0.0
O20 O 0.0579 0.17177 0.25128 0.0
O21 O 0.11994 0.11789 0.33615 0.0
Sc22 Sc 0.1266 0.8419 0.50806 0.0
Sc23 Sc 0.10867 0.91372 0.55906 0.0
Sc24 Sc 0.05241 0.89458 0.49617 0.0
O25 O 0.09537 0.88203 0.52182 0.0
C26 C 0.10445 0.87003 0.44066 0.0
C27 C 0.18096 0.9064 0.5207 0.0
C28 C 0.0691 0.96717 0.51157 0.0
C29 C 0.13607 0.8362 0.58199 0.0
C30 C 0.04686 0.81236 0.50012 0.0
C31 C 0.02763 0.90363 0.5698 0.0
O32 O 0.12729 0.85647 0.45912 0.0
O33 O 0.15926 0.92688 0.53564 0.0
O34 O 0.07656 0.94488 0.49058 0.0
O35 O 0.1298 0.82217 0.55519 0.0
O36 O 0.03175 0.8426 0.4998 0.0
O37 O 0.05893 0.90072 0.58145 0.0
O38 O 0.08061 0.80804 0.50127 0.0
O39 O 0.13398 0.8699 0.58649 0.0
O40 O 0.02201 0.90706 0.53983 0.0
O41 O 0.17382 0.8742 0.51332 0.0
O42 O 0.07516 0.88271 0.45049 0.0
O43 O 0.0795 0.96089 0.53996 0.0
Sc44 Sc 0.41047 0.87615 0.75785 0.0
Sc45 Sc 0.33837 0.85872 0.80861 0.0
Sc46 Sc 0.35777 0.80196 0.74613 0.0
O47 O 0.37024 0.84508 0.7716 0.0
C48 C 0.38262 0.85367 0.69048 0.0
C49 C 0.346 0.93068 0.7698 0.0
C50 C 0.2851 0.81889 0.76114 0.0
C51 C 0.4158 0.88614 0.83169 0.0
C52 C 0.43994 0.79633 0.75023 0.0
C53 C 0.34829 0.77772 0.81985 0.0
O54 O 0.39608 0.87662 0.7089 0.0
O55 O 0.32539 0.90913 0.78478 0.0
O56 O 0.30752 0.82611 0.74019 0.0
O57 O 0.42999 0.87954 0.80502 0.0
O58 O 0.4097 0.78122 0.75002 0.0
O59 O 0.35118 0.80911 0.83134 0.0
O60 O 0.44427 0.83009 0.75127 0.0
O61 O 0.38207 0.88421 0.83603 0.0
O62 O 0.34501 0.7719 0.7899 0.0
O63 O 0.37827 0.92346 0.76276 0.0
O64 O 0.36991 0.82441 0.70037 0.0
O65 O 0.29127 0.82948 0.78949 0.0
Sc66 Sc 0.37502 0.16003 0.00802 0.0
Sc67 Sc 0.39308 0.08826 0.05902 0.0
Sc68 Sc 0.44921 0.10737 0.99604 0.0
O69 O 0.40629 0.11993 0.02174 0.0
C70 C 0.39703 0.1318 0.94059 0.0
C71 C 0.32074 0.0955 0.02073 0.0
C72 C 0.43267 0.03479 0.01158 0.0
C73 C 0.36566 0.16578 0.08195 0.0
C74 C 0.45471 0.18962 -7e-05 0.0
C75 C 0.47412 0.09846 0.06966 0.0
O76 O 0.37426 0.14545 0.95908 0.0
O77 O 0.34248 0.07504 0.03565 0.0
O78 O 0.42513 0.05703 0.99057 0.0
O79 O 0.37188 0.17979 0.05513 0.0
O80 O 0.46983 0.15938 -0.00045 0.0
O81 O 0.44283 0.10133 0.08134 0.0
O82 O 0.42097 0.19393 0.00118 0.0
O83 O 0.36776 0.13208 0.08645 0.0
O84 O 0.47971 0.09502 0.03968 0.0
O85 O 0.32784 0.12771 0.01334 0.0
O86 O 0.42633 0.1191 0.95037 0.0
O87 O 0.42227 0.04109 0.03996 0.0
Sc88 Sc 0.14427 0.80146 0.25021 0.0
Sc89 Sc 0.16325 0.85754 0.18715 0.0
Sc90 Sc 0.09171 0.87573 0.23834 0.0
O91 O 0.13171 0.84439 0.22452 0.0
C92 C 0.06206 0.79605 0.24654 0.0
C93 C 0.15309 0.77648 0.17662 0.0
C94 C 0.08567 0.88498 0.16442 0.0
C95 C 0.21685 0.8181 0.2346 0.0
C96 C 0.12007 0.85372 0.30569 0.0
C97 C 0.15621 0.92997 0.22533 0.0
O98 O 0.09227 0.78088 0.24674 0.0
O99 O 0.15013 0.80776 0.16492 0.0
O100 O 0.07176 0.87879 0.19128 0.0
O101 O 0.19462 0.82554 0.25565 0.0
O102 O 0.10654 0.87657 0.28721 0.0
O103 O 0.17659 0.90817 0.2104 0.0
O104 O 0.13258 0.82433 0.29589 0.0
O105 O 0.21044 0.8284 0.2062 0.0
O106 O 0.12403 0.92292 0.23282 0.0
O107 O 0.15661 0.77092 0.20659 0.0
O108 O 0.0578 0.82981 0.24538 0.0
O109 O 0.11934 0.88284 0.15981 0.0
Sc110 Sc 0.45073 0.89432 0.49997 0.0
Sc111 Sc 0.39423 0.91357 0.43728 0.0
Sc112 Sc 0.37657 0.8416 0.48814 0.0
O113 O 0.4077 0.88181 0.4744 0.0
C114 C 0.45636 0.81212 0.49588 0.0
C115 C 0.47525 0.90364 0.42632 0.0
C116 C 0.36685 0.83607 0.41425 0.0
C117 C 0.43384 0.96698 0.48482 0.0
C118 C 0.39887 0.86955 0.55552 0.0
C119 C 0.32209 0.90608 0.47583 0.0
O120 O 0.47145 0.84237 0.49615 0.0
O121 O 0.44391 0.90071 0.41474 0.0
O122 O 0.37327 0.82197 0.44099 0.0
O123 O 0.4266 0.94459 0.5058 0.0
O124 O 0.37598 0.85607 0.53707 0.0
O125 O 0.34372 0.92661 0.46087 0.0
O126 O 0.42815 0.88225 0.54568 0.0
O127 O 0.42337 0.96072 0.45644 0.0
O128 O 0.32929 0.87385 0.48307 0.0
O129 O 0.48096 0.90701 0.45628 0.0
O130 O 0.42261 0.80778 0.49481 0.0
O131 O 0.36887 0.86979 0.40982 0.0
Sc132 Sc 0.3571 0.20029 0.75018 0.0
Sc133 Sc 0.33843 0.14435 0.68695 0.0
Sc134 Sc 0.40978 0.1261 0.73831 0.0
O135 O 0.36981 0.15744 0.72444 0.0
C136 C 0.43931 0.2058 0.74679 0.0
C137 C 0.3485 0.22546 0.67661 0.0
C138 C 0.41615 0.11714 0.66438 0.0
C139 C 0.28463 0.18362 0.73431 0.0
C140 C 0.38115 0.14789 0.80562 0.0
C141 C 0.34544 0.07181 0.72494 0.0
O142 O 0.4091 0.22096 0.74691 0.0
O143 O 0.35155 0.19421 0.66485 0.0
O144 O 0.42993 0.12328 0.69131 0.0
O145 O 0.30678 0.17611 0.75541 0.0
O146 O 0.39472 0.12507 0.78713 0.0
O147 O 0.32507 0.09365 0.71005 0.0
O148 O 0.36869 0.17731 0.79585 0.0
O149 O 0.29113 0.17338 0.70591 0.0
O150 O 0.37759 0.07887 0.73252 0.0
O151 O 0.34489 0.23093 0.70659 0.0
O152 O 0.44359 0.17204 0.7456 0.0
O153 O 0.38248 0.11918 0.65968 0.0
Sc154 Sc 0.05109 0.10773 -9e-05 0.0
Sc155 Sc 0.10754 0.08844 0.93718 0.0
Sc156 Sc 0.12526 0.16042 0.98804 0.0
O157 O 0.09411 0.12023 0.97432 0.0
C158 C 0.04548 0.18993 0.99577 0.0
C159 C 0.02653 0.09843 0.92625 0.0
C160 C 0.13495 0.16592 0.91413 0.0
C161 C 0.06796 0.03506 0.98474 0.0
C162 C 0.10298 0.13246 0.05545 0.0
C163 C 0.17968 0.09589 0.97576 0.0
O164 O 0.03038 0.15968 0.99611 0.0
O165 O 0.05786 0.10133 0.91466 0.0
O166 O 0.12858 0.18002 0.94088 0.0
O167 O 0.07524 0.05745 0.0057 0.0
O168 O 0.12584 0.14599 0.03699 0.0
O169 O 0.15805 0.07538 0.96078 0.0
O170 O 0.0737 0.11974 0.04562 0.0
O171 O 0.07839 0.04131 0.95635 0.0
O172 O 0.17251 0.12813 0.983 0.0
O173 O 0.02083 0.09507 0.95621 0.0
O174 O 0.07923 0.19427 0.99466 0.0
O175 O 0.13291 0.1322 0.90971 0.0
Sc176 Sc 0.91038 0.87616 0.73819 0.0
Sc177 Sc 0.83871 0.85812 0.68707 0.0
Sc178 Sc 0.85777 0.80191 0.75001 0.0
O179 O 0.87033 0.84488 0.72436 0.0
C180 C 0.93998 0.79644 0.74619 0.0
C181 C 0.91626 0.88559 0.66426 0.0
C182 C 0.84878 0.77707 0.6764 0.0
C183 C 0.84585 0.93044 0.72545 0.0
C184 C 0.88218 0.85397 0.80555 0.0
C185 C 0.78519 0.81867 0.73457 0.0
O186 O 0.94427 0.8302 0.74505 0.0
O187 O 0.88258 0.88342 0.65968 0.0
O188 O 0.84532 0.77147 0.70636 0.0
O189 O 0.87804 0.92334 0.73291 0.0
O190 O 0.86958 0.82465 0.7957 0.0
O191 O 0.79153 0.82899 0.70616 0.0
O192 O 0.89572 0.87685 0.78711 0.0
O193 O 0.82547 0.90872 0.71043 0.0
O194 O 0.80748 0.82606 0.75558 0.0
O195 O 0.93021 0.8794 0.6911 0.0
O196 O 0.90976 0.78128 0.74642 0.0
O197 O 0.85174 0.80836 0.66473 0.0
Sc198 Sc 0.87621 0.15995 0.48784 0.0
Sc199 Sc 0.8941 0.08796 0.43706 0.0
Sc200 Sc 0.95034 0.10726 0.49994 0.0
O201 O 0.90741 0.11975 0.47423 0.0
C202 C 0.95596 0.18945 0.49588 0.0
C203 C 0.8668 0.16544 0.41392 0.0
C204 C 0.97514 0.09795 0.42635 0.0
C205 C 0.8218 0.09547 0.47533 0.0
C206 C 0.8982 0.13198 0.55532 0.0
C207 C 0.93364 0.03463 0.48468 0.0
O208 O 0.92222 0.19379 0.49467 0.0
O209 O 0.8688 0.13172 0.40953 0.0
O210 O 0.98075 0.09463 0.45633 0.0
O211 O 0.82895 0.12771 0.48256 0.0
O212 O 0.92752 0.11928 0.54558 0.0
O213 O 0.92323 0.04083 0.45628 0.0
O214 O 0.87539 0.14549 0.53679 0.0
O215 O 0.84352 0.0749 0.46052 0.0
O216 O 0.92618 0.05697 0.50563 0.0
O217 O 0.87316 0.17956 0.44067 0.0
O218 O 0.97106 0.15921 0.49623 0.0
O219 O 0.94385 0.10085 0.41467 0.0
Sc220 Sc 0.59163 0.12563 0.23799 0.0
Sc221 Sc 0.6632 0.14381 0.18679 0.0
Sc222 Sc 0.64424 0.19988 0.24986 0.0
O223 O 0.63165 0.15696 0.22417 0.0
C224 C 0.56203 0.20533 0.24618 0.0
C225 C 0.58562 0.11641 0.16404 0.0
C226 C 0.65313 0.22489 0.1763 0.0
C227 C 0.65612 0.07138 0.225 0.0
C228 C 0.61991 0.1477 0.30535 0.0
C229 C 0.71681 0.1832 0.23427 0.0
O230 O 0.55774 0.17157 0.24501 0.0
O231 O 0.61928 0.11858 0.15943 0.0
O232 O 0.65663 0.23042 0.20627 0.0
O233 O 0.62396 0.07845 0.23252 0.0
O234 O 0.63248 0.17704 0.29552 0.0
O235 O 0.71042 0.1729 0.20587 0.0
O236 O 0.60638 0.12483 0.28689 0.0
O237 O 0.67649 0.09316 0.21003 0.0
O238 O 0.69457 0.17578 0.25532 0.0
O239 O 0.57171 0.12253 0.19092 0.0
O240 O 0.59224 0.22049 0.24637 0.0
O241 O 0.65015 0.19363 0.16457 0.0
Sc242 Sc 0.62559 0.84211 0.98787 0.0
Sc243 Sc 0.60782 0.91418 0.93715 0.0
Sc244 Sc 0.55147 0.89482 -7e-05 0.0
O245 O 0.59444 0.88234 0.97426 0.0
C246 C 0.54582 0.81264 0.99575 0.0
C247 C 0.63515 0.83672 0.91396 0.0
C248 C 0.5268 0.90425 0.92633 0.0
C249 C 0.68005 0.90659 0.97554 0.0
C250 C 0.60347 0.86995 0.05536 0.0
C251 C 0.56823 0.96747 0.98478 0.0
O252 O 0.57957 0.80829 0.99459 0.0
O253 O 0.63315 0.87045 0.90959 0.0
O254 O 0.52114 0.90754 0.9563 0.0
O255 O 0.67287 0.87435 0.98273 0.0
O256 O 0.57419 0.8827 0.04558 0.0
O257 O 0.57869 0.9613 0.95639 0.0
O258 O 0.62631 0.85648 0.03685 0.0
O259 O 0.65838 0.92718 0.96068 0.0
O260 O 0.57564 0.94509 0.00572 0.0
O261 O 0.62875 0.82257 0.94069 0.0
O262 O 0.53073 0.84289 0.99611 0.0
O263 O 0.5581 0.90135 0.91468 0.0
Sc264 Sc 0.90982 0.12607 0.75767 0.0
Sc265 Sc 0.83795 0.14383 0.8086 0.0
Sc266 Sc 0.85707 0.20021 0.74575 0.0
O267 O 0.86963 0.15722 0.77139 0.0
C268 C 0.93927 0.20585 0.7497 0.0
C269 C 0.91546 0.1165 0.83157 0.0
C270 C 0.84793 0.22489 0.81939 0.0
C271 C 0.8454 0.0716 0.77017 0.0
C272 C 0.88173 0.14819 0.69025 0.0
C273 C 0.78449 0.18345 0.76117 0.0
O274 O 0.94361 0.1721 0.75089 0.0
O275 O 0.88175 0.11851 0.83602 0.0
O276 O 0.84454 0.23055 0.78943 0.0
O277 O 0.8776 0.07879 0.76287 0.0
O278 O 0.86898 0.17747 0.70005 0.0
O279 O 0.79077 0.17294 0.78952 0.0
O280 O 0.8953 0.12537 0.70873 0.0
O281 O 0.82487 0.09326 0.7851 0.0
O282 O 0.80677 0.17606 0.74014 0.0
O283 O 0.92952 0.12288 0.8048 0.0
O284 O 0.90902 0.22094 0.74938 0.0
O285 O 0.85086 0.19357 0.83102 0.0
Sc286 Sc 0.55207 0.10792 0.49607 0.0
Sc287 Sc 0.60856 0.08892 0.55883 0.0
Sc288 Sc 0.62633 0.16059 0.50764 0.0
O289 O 0.59514 0.12051 0.52156 0.0
C290 C 0.60394 0.13225 0.44037 0.0
C291 C 0.56885 0.03534 0.51153 0.0
C292 C 0.6807 0.09608 0.5202 0.0
C293 C 0.52756 0.0991 0.56979 0.0
C294 C 0.54659 0.19015 0.49989 0.0
C295 C 0.63601 0.1665 0.58154 0.0
O296 O 0.57465 0.11965 0.45028 0.0
O297 O 0.57932 0.04171 0.53989 0.0
O298 O 0.67354 0.12827 0.51279 0.0
O299 O 0.52182 0.09554 0.53985 0.0
O300 O 0.58034 0.19446 0.50093 0.0
O301 O 0.63395 0.13281 0.5861 0.0
O302 O 0.53146 0.15992 0.49967 0.0
O303 O 0.55892 0.10203 0.58132 0.0
O304 O 0.62971 0.18045 0.55471 0.0
O305 O 0.57617 0.0576 0.49048 0.0
O306 O 0.62684 0.14586 0.45875 0.0
O307 O 0.65905 0.07567 0.53528 0.0
Sc308 Sc 0.6445 0.80166 0.24585 0.0
Sc309 Sc 0.6637 0.85821 0.30855 0.0
Sc310 Sc 0.59168 0.87574 0.25773 0.0
O311 O 0.63193 0.84467 0.27144 0.0
C312 C 0.61966 0.8535 0.1903 0.0
C313 C 0.71708 0.81856 0.2611 0.0
C314 C 0.6561 0.93029 0.2699 0.0
C315 C 0.65377 0.77716 0.31953 0.0
C316 C 0.56232 0.79591 0.24999 0.0
C317 C 0.58623 0.88555 0.33161 0.0
O318 O 0.6325 0.82427 0.20012 0.0
O319 O 0.71086 0.82908 0.28946 0.0
O320 O 0.62387 0.92305 0.26271 0.0
O321 O 0.65712 0.77144 0.28957 0.0
O322 O 0.55793 0.82965 0.25115 0.0
O323 O 0.61995 0.88358 0.336 0.0
O324 O 0.59258 0.78086 0.24959 0.0
O325 O 0.65087 0.80851 0.33111 0.0
O326 O 0.57211 0.87907 0.30489 0.0
O327 O 0.69473 0.8259 0.24012 0.0
O328 O 0.60605 0.87631 0.20877 0.0
O329 O 0.67668 0.90872 0.28489 0.0
Sc330 Sc 0.94972 0.89422 0.99622 0.0
Sc331 Sc 0.89333 0.9133 0.05902 0.0
Sc332 Sc 0.87545 0.8416 0.00788 0.0
O333 O 0.90668 0.88167 0.02176 0.0
C334 C 0.89784 0.8698 0.94057 0.0
C335 C 0.93294 0.96682 0.01162 0.0
C336 C 0.82113 0.90614 0.02048 0.0
C337 C 0.97433 0.90316 0.06989 0.0
C338 C 0.95519 0.81199 0.0001 0.0
C339 C 0.86581 0.83576 0.08178 0.0
O340 O 0.92713 0.88241 0.95047 0.0
O341 O 0.92253 0.96049 0.04 0.0
O342 O 0.82826 0.87395 0.01304 0.0
O343 O 0.98002 0.90667 0.03994 0.0
O344 O 0.92144 0.8077 0.00115 0.0
O345 O 0.86795 0.86945 0.08635 0.0
O346 O 0.97033 0.84222 -0.00013 0.0
O347 O 0.943 0.90023 0.08147 0.0
O348 O 0.87208 0.82179 0.05496 0.0
O349 O 0.92561 0.94453 0.9906 0.0
O350 O 0.87492 0.85626 0.95896 0.0
O351 O 0.8428 0.92654 0.03553 0.0
Sc352 Sc 0.6447 0.7003 0.74593 0.0
Sc353 Sc 0.66339 0.64433 0.80914 0.0
Sc354 Sc 0.59201 0.62613 0.75779 0.0
O355 O 0.63199 0.65745 0.77167 0.0
C356 C 0.5625 0.70583 0.74933 0.0
C357 C 0.65331 0.72543 0.81951 0.0
C358 C 0.58567 0.61713 0.83171 0.0
C359 C 0.71717 0.6836 0.76177 0.0
C360 C 0.62065 0.64791 0.69049 0.0
C361 C 0.65634 0.57181 0.77112 0.0
O362 O 0.59272 0.72099 0.74923 0.0
O363 O 0.65026 0.69418 0.83126 0.0
O364 O 0.57187 0.62332 0.80479 0.0
O365 O 0.69501 0.67609 0.74069 0.0
O366 O 0.60708 0.62509 0.70898 0.0
O367 O 0.67674 0.59364 0.786 0.0
O368 O 0.6331 0.67734 0.70026 0.0
O369 O 0.71068 0.67338 0.79017 0.0
O370 O 0.62419 0.57889 0.76358 0.0
O371 O 0.65693 0.73092 0.78954 0.0
O372 O 0.55821 0.67207 0.7505 0.0
O373 O 0.61934 0.61914 0.83639 0.0
Sc374 Sc 0.62518 0.34154 0.00803 0.0
Sc375 Sc 0.60763 0.41364 0.05878 0.0
Sc376 Sc 0.55104 0.39427 0.99618 0.0
O377 O 0.5941 0.38179 0.02172 0.0
C378 C 0.60282 0.36939 0.94062 0.0
C379 C 0.67969 0.40604 0.02012 0.0
C380 C 0.56798 0.46696 0.01121 0.0
C381 C 0.63503 0.33618 0.0819 0.0
C382 C 0.54538 0.31209 0.00042 0.0
C383 C 0.52663 0.40369 0.06985 0.0
O384 O 0.62571 0.3559 0.95907 0.0
O385 O 0.65811 0.42662 0.03509 0.0
O386 O 0.57518 0.44453 0.99026 0.0
O387 O 0.62855 0.32203 0.0552 0.0
O388 O 0.5303 0.34234 0.0001 0.0
O389 O 0.55799 0.40081 0.0814 0.0
O390 O 0.57912 0.30773 0.00148 0.0
O391 O 0.63303 0.36991 0.08628 0.0
O392 O 0.52088 0.40703 0.0399 0.0
O393 O 0.67248 0.37379 0.01296 0.0
O394 O 0.57356 0.38214 0.95046 0.0
O395 O 0.57847 0.46075 0.03959 0.0
Sc396 Sc 0.91016 0.37582 0.25761 0.0
Sc397 Sc 0.83855 0.35771 0.30877 0.0
Sc398 Sc 0.85756 0.30157 0.24575 0.0
O399 O 0.87012 0.34452 0.27142 0.0
C400 C 0.88184 0.35374 0.19025 0.0
C401 C 0.84564 0.43008 0.27048 0.0
C402 C 0.78497 0.31824 0.26132 0.0
C403 C 0.9161 0.38516 0.33154 0.0
C404 C 0.93978 0.29613 0.24953 0.0
C405 C 0.8487 0.27664 0.31936 0.0
O406 O 0.89543 0.37657 0.20871 0.0
O407 O 0.82526 0.40833 0.28547 0.0
O408 O 0.80722 0.32565 0.24027 0.0
O409 O 0.93004 0.37899 0.30468 0.0
O410 O 0.90957 0.28097 0.24925 0.0
O411 O 0.85164 0.30793 0.33104 0.0
O412 O 0.94407 0.32989 0.2507 0.0
O413 O 0.88243 0.383 0.33613 0.0
O414 O 0.84521 0.27106 0.28939 0.0
O415 O 0.87782 0.423 0.26299 0.0
O416 O 0.86926 0.3244 0.20006 0.0
O417 O 0.79136 0.32857 0.28971 0.0
Sc418 Sc 0.87645 0.66036 0.50795 0.0
Sc419 Sc 0.89419 0.58837 0.55878 0.0
Sc420 Sc 0.95062 0.60767 0.49604 0.0
O421 O 0.90761 0.62016 0.52165 0.0
C422 C 0.89869 0.6324 0.44052 0.0
C423 C 0.82204 0.59582 0.52023 0.0
C424 C 0.93379 0.535 0.51121 0.0
C425 C 0.86678 0.66583 0.58186 0.0
C426 C 0.95622 0.68987 0.50019 0.0
C427 C 0.97521 0.59839 0.56969 0.0
O428 O 0.87585 0.64594 0.459 0.0
O429 O 0.84367 0.5753 0.5352 0.0
O430 O 0.9265 0.55738 0.49025 0.0
O431 O 0.87315 0.67995 0.55511 0.0
O432 O 0.97131 0.65963 0.49983 0.0
O433 O 0.94388 0.60127 0.58129 0.0
O434 O 0.92247 0.69422 0.50132 0.0
O435 O 0.86883 0.63212 0.58627 0.0
O436 O 0.98091 0.59504 0.53973 0.0
O437 O 0.8292 0.62807 0.513 0.0
O438 O 0.92797 0.61967 0.45033 0.0
O439 O 0.92336 0.54125 0.5396 0.0
Sc440 Sc 0.64404 0.30195 0.74999 0.0
Sc441 Sc 0.66337 0.3587 0.68748 0.0
Sc442 Sc 0.59132 0.37613 0.7383 0.0
O443 O 0.63154 0.34507 0.72452 0.0
C444 C 0.56187 0.29631 0.74593 0.0
C445 C 0.65348 0.27769 0.67628 0.0
C446 C 0.58591 0.38611 0.66445 0.0
C447 C 0.71668 0.3189 0.73492 0.0
C448 C 0.61919 0.35364 0.80565 0.0
C449 C 0.65577 0.43068 0.72628 0.0
O450 O 0.59211 0.2812 0.74612 0.0
O451 O 0.65056 0.30907 0.66478 0.0
O452 O 0.57176 0.37954 0.69114 0.0
O453 O 0.69429 0.32612 0.75589 0.0
O454 O 0.60574 0.3766 0.78724 0.0
O455 O 0.67636 0.40913 0.71127 0.0
O456 O 0.63192 0.32439 0.79575 0.0
O457 O 0.71049 0.3295 0.70657 0.0
O458 O 0.62352 0.42345 0.73338 0.0
O459 O 0.65679 0.27188 0.70623 0.0
O460 O 0.55753 0.33007 0.74489 0.0
O461 O 0.61963 0.38416 0.66007 0.0
Sc462 Sc 0.94932 0.39464 -0.00027 0.0
Sc463 Sc 0.89309 0.41373 0.93682 0.0
Sc464 Sc 0.87511 0.34198 0.98788 0.0
O465 O 0.90636 0.38208 0.97409 0.0
C466 C 0.95485 0.31242 0.99585 0.0
C467 C 0.97413 0.40365 0.92612 0.0
C468 C 0.86569 0.33619 0.91395 0.0
C469 C 0.93262 0.46721 0.9843 0.0
C470 C 0.89728 0.37014 0.05526 0.0
C471 C 0.82077 0.40647 0.97513 0.0
O472 O 0.96998 0.34266 0.99612 0.0
O473 O 0.94283 0.40071 0.91446 0.0
O474 O 0.87193 0.32219 0.94077 0.0
O475 O 0.92515 0.44493 0.00529 0.0
O476 O 0.8744 0.3566 0.03681 0.0
O477 O 0.8425 0.42692 0.9602 0.0
O478 O 0.92658 0.38278 0.04542 0.0
O479 O 0.92224 0.46092 0.95591 0.0
O480 O 0.82789 0.37427 0.98255 0.0
O481 O 0.97973 0.40711 0.95608 0.0
O482 O 0.9211 0.30811 0.99472 0.0
O483 O 0.86779 0.36988 0.90942 0.0
Sc484 Sc 0.85731 0.69991 0.24999 0.0
Sc485 Sc 0.83808 0.64341 0.18725 0.0
Sc486 Sc 0.91002 0.62574 0.23815 0.0
O487 O 0.86983 0.65687 0.2244 0.0
C488 C 0.93949 0.70553 0.24596 0.0
C489 C 0.84803 0.72446 0.17633 0.0
C490 C 0.91555 0.61601 0.16425 0.0
C491 C 0.7847 0.68306 0.23473 0.0
C492 C 0.88208 0.64805 0.30556 0.0
C493 C 0.84556 0.57126 0.22581 0.0
O494 O 0.90925 0.72064 0.24624 0.0
O495 O 0.85095 0.69312 0.16474 0.0
O496 O 0.92965 0.62242 0.19099 0.0
O497 O 0.80704 0.67573 0.25571 0.0
O498 O 0.89559 0.62516 0.28711 0.0
O499 O 0.82504 0.59288 0.21083 0.0
O500 O 0.86933 0.6773 0.2957 0.0
O501 O 0.79093 0.67254 0.20637 0.0
O502 O 0.87777 0.57846 0.23308 0.0
O503 O 0.84467 0.73016 0.20629 0.0
O504 O 0.94383 0.67178 0.24483 0.0
O505 O 0.88184 0.61805 0.15982 0.0
Sc506 Sc 0.55251 0.60739 0.50012 0.0
Sc507 Sc 0.60858 0.58836 0.43707 0.0
Sc508 Sc 0.62668 0.66008 0.48812 0.0
O509 O 0.5954 0.61998 0.47439 0.0
C510 C 0.54699 0.68964 0.49632 0.0
C511 C 0.52752 0.59849 0.42652 0.0
C512 C 0.63597 0.66591 0.41419 0.0
C513 C 0.56903 0.53483 0.4845 0.0
C514 C 0.60477 0.63177 0.55554 0.0
C515 C 0.68096 0.59557 0.47531 0.0
O516 O 0.53187 0.6594 0.49668 0.0
O517 O 0.5588 0.60141 0.4148 0.0
O518 O 0.62975 0.6799 0.44102 0.0
O519 O 0.57661 0.55705 0.50553 0.0
O520 O 0.62752 0.64543 0.53704 0.0
O521 O 0.6592 0.57512 0.4604 0.0
O522 O 0.57545 0.61909 0.54577 0.0
O523 O 0.57941 0.54116 0.45612 0.0
O524 O 0.67387 0.62777 0.48271 0.0
O525 O 0.52198 0.59506 0.4565 0.0
O526 O 0.58073 0.69395 0.49506 0.0
O527 O 0.63387 0.63222 0.40966 0.0
Sc528 Sc 0.41008 0.3757 0.23845 0.0
Sc529 Sc 0.33817 0.35804 0.18754 0.0
Sc530 Sc 0.35732 0.30157 0.25031 0.0
O531 O 0.36989 0.34457 0.22471 0.0
C532 C 0.43951 0.29591 0.24633 0.0
C533 C 0.41567 0.38541 0.16458 0.0
C534 C 0.34813 0.27699 0.17663 0.0
C535 C 0.34564 0.43018 0.22609 0.0
C536 C 0.38201 0.35351 0.30585 0.0
C537 C 0.28475 0.31838 0.23495 0.0
O538 O 0.44386 0.32965 0.24517 0.0
O539 O 0.38196 0.38342 0.16014 0.0
O540 O 0.34476 0.27129 0.2066 0.0
O541 O 0.37786 0.42299 0.23333 0.0
O542 O 0.36926 0.32423 0.29604 0.0
O543 O 0.291 0.3289 0.20659 0.0
O544 O 0.39557 0.37634 0.28738 0.0
O545 O 0.3251 0.40855 0.21113 0.0
O546 O 0.30705 0.32576 0.25596 0.0
O547 O 0.42975 0.37895 0.19132 0.0
O548 O 0.40926 0.28081 0.24665 0.0
O549 O 0.35106 0.30833 0.16504 0.0
Sc550 Sc 0.37548 0.66053 0.9885 0.0
Sc551 Sc 0.39328 0.58892 0.93724 0.0
Sc552 Sc 0.44976 0.60788 1e-05 0.0
O553 O 0.40668 0.62048 0.97453 0.0
C554 C 0.45523 0.69011 0.99624 0.0
C555 C 0.36581 0.66652 0.9146 0.0
C556 C 0.47427 0.59908 0.92629 0.0
C557 C 0.32112 0.59602 0.97585 0.0
C558 C 0.39794 0.63218 0.05575 0.0
C559 C 0.43296 0.53532 0.98452 0.0
O560 O 0.42147 0.69441 0.99523 0.0
O561 O 0.3679 0.63284 0.91 0.0
O562 O 0.48001 0.59549 0.95623 0.0
O563 O 0.32828 0.6282 0.98333 0.0
O564 O 0.42723 0.61962 0.04581 0.0
O565 O 0.4225 0.54169 0.95617 0.0
O566 O 0.375 0.64575 0.03739 0.0
O567 O 0.34276 0.57564 0.96074 0.0
O568 O 0.42565 0.55757 0.00559 0.0
O569 O 0.37208 0.68043 0.94145 0.0
O570 O 0.47038 0.65988 0.99641 0.0
O571 O 0.44292 0.60205 0.91477 0.0
Sc572 Sc 0.09194 0.62609 0.73827 0.0
Sc573 Sc 0.16381 0.64388 0.68734 0.0
Sc574 Sc 0.14468 0.70023 0.7502 0.0
O575 O 0.13212 0.65725 0.72455 0.0
C576 C 0.06249 0.70586 0.74623 0.0
C577 C 0.0863 0.61653 0.66436 0.0
C578 C 0.15384 0.72494 0.67656 0.0
C579 C 0.15637 0.57163 0.72574 0.0
C580 C 0.12 0.64822 0.80569 0.0
C581 C 0.21726 0.68348 0.7348 0.0
O582 O 0.05814 0.67211 0.74505 0.0
O583 O 0.12 0.61856 0.6599 0.0
O584 O 0.15723 0.73059 0.70653 0.0
O585 O 0.12417 0.57881 0.73305 0.0
O586 O 0.13274 0.6775 0.79589 0.0
O587 O 0.21099 0.67299 0.70643 0.0
O588 O 0.10646 0.62538 0.7872 0.0
O589 O 0.17689 0.5933 0.71081 0.0
O590 O 0.19497 0.67609 0.75581 0.0
O591 O 0.07225 0.6229 0.69113 0.0
O592 O 0.09273 0.72096 0.74654 0.0
O593 O 0.1509 0.69363 0.66492 0.0
Sc594 Sc 0.1263 0.34157 0.48812 0.0
Sc595 Sc 0.10842 0.41322 0.43693 0.0
Sc596 Sc 0.05205 0.3942 0.49976 0.0
O597 O 0.09508 0.38162 0.47421 0.0
C598 C 0.04655 0.31199 0.49597 0.0
C599 C 0.1359 0.33564 0.41422 0.0
C600 C 0.02742 0.40313 0.42609 0.0
C601 C 0.18064 0.40607 0.47544 0.0
C602 C 0.10397 0.36983 0.5554 0.0
C603 C 0.06883 0.46678 0.48431 0.0
O604 O 0.08031 0.30769 0.49492 0.0
O605 O 0.13379 0.36932 0.40964 0.0
O606 O 0.02174 0.40665 0.45604 0.0
O607 O 0.17352 0.37388 0.48287 0.0
O608 O 0.07466 0.3824 0.54551 0.0
O609 O 0.07923 0.46043 0.45594 0.0
O610 O 0.12689 0.3563 0.53701 0.0
O611 O 0.15895 0.42648 0.46041 0.0
O612 O 0.07619 0.44451 0.50535 0.0
O613 O 0.12961 0.32169 0.44105 0.0
O614 O 0.03141 0.34222 0.49615 0.0
O615 O 0.05874 0.40016 0.4145 0.0
Sc616 Sc 0.41025 0.62554 0.25818 0.0
Sc617 Sc 0.33855 0.64366 0.30926 0.0
Sc618 Sc 0.35766 0.6998 0.24629 0.0
O619 O 0.37019 0.65684 0.27196 0.0
C620 C 0.43987 0.70525 0.25019 0.0
C621 C 0.41606 0.61619 0.33214 0.0
C622 C 0.34864 0.72473 0.31986 0.0
C623 C 0.3457 0.57129 0.27095 0.0
C624 C 0.38213 0.64772 0.19079 0.0
C625 C 0.28504 0.6831 0.26172 0.0
O626 O 0.44417 0.67149 0.25135 0.0
O627 O 0.38238 0.6184 0.3367 0.0
O628 O 0.34519 0.73029 0.28989 0.0
O629 O 0.37788 0.57838 0.26347 0.0
O630 O 0.36949 0.67702 0.20063 0.0
O631 O 0.29138 0.67276 0.29012 0.0
O632 O 0.39568 0.62484 0.20923 0.0
O633 O 0.32532 0.59302 0.28595 0.0
O634 O 0.30734 0.67571 0.2407 0.0
O635 O 0.43003 0.62231 0.30528 0.0
O636 O 0.40965 0.72039 0.2499 0.0
O637 O 0.35157 0.69345 0.33156 0.0
Sc638 Sc 0.05139 0.60727 0.99602 0.0
Sc639 Sc 0.10766 0.58789 0.05885 0.0
Sc640 Sc 0.12553 0.65994 0.00813 0.0
O641 O 0.09434 0.61973 0.02172 0.0
C642 C 0.10347 0.63206 0.94063 0.0
C643 C 0.06809 0.53462 0.01121 0.0
C644 C 0.17994 0.59543 0.02054 0.0
C645 C 0.02663 0.59791 0.06962 0.0
C646 C 0.04578 0.68946 0.00019 0.0
C647 C 0.13502 0.66533 0.08205 0.0
O648 O 0.07417 0.61932 0.95037 0.0
O649 O 0.07852 0.54079 0.03961 0.0
O650 O 0.17278 0.62767 0.01332 0.0
O651 O 0.021 0.59461 0.03965 0.0
O652 O 0.07952 0.69379 0.00139 0.0
O653 O 0.13299 0.6316 0.08642 0.0
O654 O 0.03068 0.65922 -0.00021 0.0
O655 O 0.05794 0.60078 0.08128 0.0
O656 O 0.12866 0.67948 0.05531 0.0
O657 O 0.07554 0.55699 0.99028 0.0
O658 O 0.12628 0.64556 0.95916 0.0
O659 O 0.15824 0.57485 0.03537 0.0
Sc660 Sc 0.14398 0.30193 0.74596 0.0
Sc661 Sc 0.16304 0.35818 0.80887 0.0
Sc662 Sc 0.09136 0.37617 0.75776 0.0
O663 O 0.13142 0.34491 0.77159 0.0
C664 C 0.11958 0.35397 0.69041 0.0
C665 C 0.21657 0.31869 0.7614 0.0
C666 C 0.15588 0.43047 0.77046 0.0
C667 C 0.15297 0.27713 0.81958 0.0
C668 C 0.06177 0.29644 0.74978 0.0
C669 C 0.0855 0.38564 0.83168 0.0
O670 O 0.13218 0.32465 0.70026 0.0
O671 O 0.21023 0.32904 0.78979 0.0
O672 O 0.1237 0.42337 0.76303 0.0
O673 O 0.15644 0.27152 0.78961 0.0
O674 O 0.05747 0.3302 0.75091 0.0
O675 O 0.11918 0.3835 0.83625 0.0
O676 O 0.092 0.28129 0.74955 0.0
O677 O 0.15002 0.30843 0.83123 0.0
O678 O 0.07154 0.37941 0.80485 0.0
O679 O 0.19428 0.32607 0.74038 0.0
O680 O 0.10603 0.37685 0.70885 0.0
O681 O 0.17628 0.40876 0.78548 0.0
Sc682 Sc 0.45026 0.39482 0.4962 0.0
Sc683 Sc 0.39387 0.4142 0.55895 0.0
Sc684 Sc 0.37616 0.34207 0.50828 0.0
O685 O 0.40729 0.38234 0.52187 0.0
C686 C 0.39827 0.36989 0.44078 0.0
C687 C 0.43348 0.46747 0.51131 0.0
C688 C 0.32168 0.40654 0.52052 0.0
C689 C 0.4749 0.40428 0.56982 0.0
C690 C 0.45595 0.31263 0.50042 0.0
C691 C 0.36656 0.33675 0.58218 0.0
O692 O 0.42755 0.38267 0.45055 0.0
O693 O 0.42301 0.46131 0.5397 0.0
O694 O 0.32887 0.37428 0.51338 0.0
O695 O 0.48057 0.40756 0.53984 0.0
O696 O 0.42221 0.30827 0.50159 0.0
O697 O 0.36853 0.37049 0.58652 0.0
O698 O 0.47102 0.34289 0.50004 0.0
O699 O 0.44358 0.4014 0.58145 0.0
O700 O 0.37301 0.32258 0.55547 0.0
O701 O 0.42609 0.44507 0.49038 0.0
O702 O 0.37545 0.3564 0.4593 0.0
O703 O 0.34333 0.42716 0.53536 0.0
C704 C 0.16914 0.02905 0.22585 0.0
C705 C 0.16914 0.03612 0.25879 0.0
H706 H 0.16637 0.98925 0.18912 0.0
C707 C 0.17215 0.00748 0.28007 0.0
H708 H 0.16596 0.05068 0.20899 0.0
C709 C 0.17199 0.97232 0.26865 0.0
C710 C 0.16935 0.96523 0.2358 0.0
H711 H 0.17118 0.01212 0.30552 0.0
H712 H 0.17097 0.95061 0.28564 0.0
C713 C 0.16945 0.99392 0.21443 0.0
C714 C 0.28001 0.91983 0.51987 0.0
C715 C 0.28703 0.91915 0.48692 0.0
H716 H 0.24027 0.91766 0.55669 0.0
C717 C 0.25835 0.92148 0.46564 0.0
H718 H 0.30168 0.91714 0.53675 0.0
C719 C 0.22321 0.92138 0.47709 0.0
C720 C 0.21618 0.91944 0.51 0.0
H721 H 0.26295 0.91996 0.44021 0.0
H722 H 0.20149 0.91986 0.46015 0.0
C723 C 0.2449 0.9202 0.53132 0.0
C724 C 0.32888 0.02937 0.76798 0.0
C725 C 0.33237 0.03644 0.73518 0.0
H726 H 0.3292 0.98963 0.80491 0.0
C727 C 0.3333 0.00772 0.71387 0.0
H728 H 0.32913 0.05112 0.78495 0.0
C729 C 0.33378 0.97262 0.72534 0.0
C730 C 0.33294 0.96559 0.75828 0.0
H731 H 0.33706 0.0124 0.68864 0.0
H732 H 0.33773 0.95102 0.70858 0.0
C733 C 0.32891 0.99421 0.77944 0.0
C734 C 0.2568 0.08176 0.03133 0.0
C735 C 0.28554 0.08242 0.01002 0.0
H736 H 0.20002 0.08492 0.03671 0.0
C737 C 0.27853 0.0804 0.97712 0.0
H738 H 0.26142 0.08436 0.05669 0.0
C739 C 0.2434 0.08034 0.96564 0.0
C740 C 0.21471 0.08278 0.9869 0.0
H741 H 0.30027 0.08185 0.96018 0.0
H742 H 0.23883 0.08181 0.9402 0.0
C743 C 0.22169 0.08215 0.01985 0.0
C744 C 0.83115 0.99423 0.71492 0.0
C745 C 0.83266 0.96556 0.73627 0.0
H746 H 0.8334 0.05106 0.7094 0.0
C747 C 0.83115 0.97262 0.76918 0.0
H748 H 0.83332 0.98959 0.68953 0.0
C749 C 0.83078 0.00777 0.7806 0.0
C750 C 0.83239 0.03645 0.75926 0.0
H751 H 0.83321 0.95094 0.78613 0.0
H752 H 0.83268 0.01241 0.80601 0.0
C753 C 0.83125 0.02938 0.72633 0.0
C754 C 0.75787 0.08167 0.46475 0.0
C755 C 0.78659 0.08249 0.48608 0.0
H756 H 0.70109 0.08473 0.45931 0.0
C757 C 0.77955 0.08066 0.51899 0.0
H758 H 0.76251 0.08412 0.43938 0.0
C759 C 0.74441 0.08062 0.53044 0.0
C760 C 0.71573 0.0829 0.50915 0.0
H761 H 0.80127 0.08222 0.53593 0.0
H762 H 0.73981 0.08223 0.55587 0.0
C763 C 0.72275 0.08209 0.47621 0.0
C764 C 0.66943 0.00742 0.2142 0.0
C765 C 0.66928 0.03615 0.23553 0.0
H766 H 0.666 0.95065 0.20883 0.0
C767 C 0.6719 0.02912 0.26839 0.0
H768 H 0.66637 0.01206 0.18888 0.0
C769 C 0.67208 0.99397 0.27986 0.0
C770 C 0.66913 0.9653 0.25862 0.0
H771 H 0.67085 0.05086 0.28535 0.0
H772 H 0.67109 0.98939 0.30531 0.0
C773 C 0.66915 0.97231 0.22567 0.0
C774 C 0.77904 0.92069 0.97665 0.0
C775 C 0.78603 0.91931 0.00958 0.0
H776 H 0.73933 0.91907 0.93977 0.0
C777 C 0.75732 0.92093 0.03088 0.0
H778 H 0.80074 0.91855 0.95974 0.0
C779 C 0.7222 0.92083 0.0194 0.0
C780 C 0.7152 0.91958 0.98647 0.0
H781 H 0.76191 0.91885 0.05628 0.0
H782 H 0.70048 0.91876 0.03631 0.0
C783 C 0.74392 0.92106 0.96517 0.0
C784 C 0.67269 0.52939 0.72801 0.0
C785 C 0.66941 0.53647 0.76082 0.0
H786 H 0.67223 0.48965 0.69109 0.0
C787 C 0.66867 0.50774 0.78214 0.0
H788 H 0.6723 0.55114 0.71104 0.0
C789 C 0.6682 0.47264 0.77068 0.0
C790 C 0.66884 0.46561 0.73774 0.0
H791 H 0.66507 0.51243 0.8074 0.0
H792 H 0.6644 0.45103 0.78746 0.0
C793 C 0.67267 0.49423 0.71655 0.0
C794 C 0.7785 0.42202 0.01858 0.0
C795 C 0.78551 0.41951 0.9857 0.0
H796 H 0.7388 0.42102 0.05552 0.0
C797 C 0.75676 0.41962 0.96439 0.0
H798 H 0.80025 0.42098 0.03552 0.0
C799 C 0.72167 0.41921 0.97588 0.0
C800 C 0.71469 0.4191 0.00884 0.0
H801 H 0.76139 0.41663 0.93907 0.0
H802 H 0.70001 0.41605 0.95906 0.0
C803 C 0.74337 0.42208 0.03006 0.0
C804 C 0.83165 0.49395 0.2812 0.0
C805 C 0.83248 0.46527 0.25983 0.0
H806 H 0.83455 0.55074 0.28671 0.0
C807 C 0.83046 0.47236 0.22694 0.0
H808 H 0.83424 0.48928 0.30656 0.0
C809 C 0.83023 0.50752 0.21554 0.0
C810 C 0.83252 0.53617 0.23686 0.0
H811 H 0.83202 0.45067 0.20996 0.0
H812 H 0.83171 0.51216 0.19011 0.0
C813 C 0.83189 0.5291 0.2698 0.0
C814 C 0.72317 0.58045 0.5189 0.0
C815 C 0.71616 0.58247 0.486 0.0
H816 H 0.76288 0.58181 0.55581 0.0
C817 C 0.74489 0.58176 0.46469 0.0
H818 H 0.70144 0.58194 0.53584 0.0
C819 C 0.78 0.5821 0.47616 0.0
C820 C 0.78699 0.58273 0.50911 0.0
H821 H 0.74027 0.58435 0.43933 0.0
H822 H 0.80168 0.58483 0.45929 0.0
C823 C 0.7583 0.58034 0.53038 0.0
C824 C 0.3319 0.47227 0.27011 0.0
C825 C 0.33259 0.46526 0.23717 0.0
H826 H 0.3342 0.51201 0.30694 0.0
C827 C 0.33037 0.49395 0.21588 0.0
H828 H 0.33451 0.45059 0.28699 0.0
C829 C 0.33059 0.52909 0.22734 0.0
C830 C 0.33255 0.53611 0.26024 0.0
H831 H 0.33189 0.48935 0.19045 0.0
H832 H 0.33219 0.55081 0.21039 0.0
C833 C 0.33166 0.50739 0.28157 0.0
C834 C 0.25739 0.58085 0.96544 0.0
C835 C 0.28604 0.58284 0.98679 0.0
H836 H 0.20055 0.58269 0.95988 0.0
C837 C 0.27896 0.58177 0.01971 0.0
H838 H 0.26203 0.58267 0.94003 0.0
C839 C 0.24382 0.58135 0.03112 0.0
C840 C 0.21515 0.58246 0.00976 0.0
H841 H 0.30061 0.58419 0.03665 0.0
H842 H 0.23915 0.58358 0.0565 0.0
C843 C 0.22223 0.5809 0.97685 0.0
C844 C 0.17069 0.5294 0.76952 0.0
C845 C 0.16938 0.53646 0.73659 0.0
H846 H 0.16874 0.48962 0.80634 0.0
C847 C 0.17079 0.50777 0.71525 0.0
H848 H 0.16868 0.55109 0.78646 0.0
C849 C 0.1704 0.47262 0.72668 0.0
C850 C 0.16907 0.46558 0.7596 0.0
H851 H 0.16875 0.51242 0.68986 0.0
H852 H 0.1682 0.45095 0.70974 0.0
C853 C 0.17077 0.49425 0.78094 0.0
C854 C 0.2227 0.42088 0.51923 0.0
C855 C 0.21575 0.41925 0.48631 0.0
H856 H 0.26237 0.41945 0.55617 0.0
C857 C 0.24449 0.4206 0.46503 0.0
H858 H 0.20097 0.41892 0.53613 0.0
C859 C 0.2796 0.4205 0.47654 0.0
C860 C 0.28656 0.41951 0.50949 0.0
H861 H 0.23993 0.41833 0.43963 0.0
H862 H 0.30133 0.41825 0.45967 0.0
C863 C 0.25781 0.42124 0.53074 0.0
C864 C 0.2572 0.2747 0.27265 0.0
C865 C 0.2641 0.28521 0.24094 0.0
H866 H 0.23847 0.23389 0.30426 0.0
C867 C 0.25754 0.26066 0.21644 0.0
H868 H 0.26243 0.2928 0.2922 0.0
C869 C 0.24466 0.22654 0.22352 0.0
C870 C 0.23775 0.21603 0.25523 0.0
H871 H 0.26339 0.26735 0.1919 0.0
H872 H 0.23942 0.20844 0.20397 0.0
C873 C 0.24432 0.24057 0.27972 0.0
C874 C 0.99152 0.00754 0.46645 0.0
C875 C 0.96679 0.01401 0.49082 0.0
H876 H 0.04385 0.98957 0.45422 0.0
C877 C 0.97711 0.00708 0.52258 0.0
H878 H 0.98498 0.01342 0.44188 0.0
C879 C 0.01122 0.99425 0.52982 0.0
C880 C 0.03594 0.98778 0.50544 0.0
H881 H 0.95888 0.01224 0.54204 0.0
H882 H 0.01775 0.98836 0.55438 0.0
C883 C 0.02562 0.99472 0.47369 0.0
C884 C 0.25778 0.76122 0.77962 0.0
C885 C 0.26438 0.78578 0.75513 0.0
H886 H 0.23961 0.70901 0.79207 0.0
C887 C 0.25746 0.77529 0.72342 0.0
H888 H 0.26365 0.76788 0.80416 0.0
C889 C 0.24453 0.74119 0.71633 0.0
C890 C 0.23794 0.71663 0.74081 0.0
H891 H 0.26271 0.7934 0.70388 0.0
H892 H 0.23866 0.73453 0.69178 0.0
C893 C 0.24485 0.72712 0.77252 0.0
C894 C 0.49059 0.0078 0.02986 0.0
C895 C 0.4659 0.01427 0.00546 0.0
H896 H 0.54292 0.98982 0.04213 0.0
C897 C 0.47628 0.00738 0.97371 0.0
H898 H 0.48401 0.01365 0.05442 0.0
C899 C 0.5104 0.99459 0.9665 0.0
C900 C 0.53508 0.9881 0.9909 0.0
H901 H 0.45807 0.01253 0.95423 0.0
H902 H 0.51697 0.98873 0.94194 0.0
C903 C 0.52471 0.995 0.02265 0.0
C904 C 0.24397 0.7602 0.21647 0.0
C905 C 0.23763 0.78506 0.24076 0.0
H906 H 0.26204 0.70784 0.2044 0.0
C907 C 0.24485 0.77496 0.27252 0.0
H908 H 0.23786 0.76656 0.19191 0.0
C909 C 0.25784 0.74094 0.27985 0.0
C910 C 0.2642 0.71609 0.25556 0.0
H911 H 0.23979 0.79331 0.29193 0.0
H912 H 0.26396 0.73459 0.30441 0.0
C913 C 0.25697 0.72618 0.2238 0.0
C914 C 0.47709 0.99499 0.52264 0.0
C915 C 0.46685 0.98783 0.49091 0.0
H916 H 0.51758 0.01412 0.55441 0.0
C917 C 0.49157 0.99429 0.46653 0.0
H918 H 0.45885 0.98984 0.54211 0.0
C919 C 0.52559 0.00731 0.47375 0.0
C920 C 0.53584 0.01448 0.50549 0.0
H921 H 0.4851 0.98822 0.44199 0.0
H922 H 0.54383 0.01245 0.45428 0.0
C923 C 0.51111 0.00804 0.52986 0.0
C924 C 0.24368 0.26082 0.77954 0.0
C925 C 0.2374 0.28569 0.75525 0.0
H926 H 0.26163 0.20842 0.79162 0.0
C927 C 0.24466 0.2756 0.7235 0.0
H928 H 0.23753 0.26717 0.8041 0.0
C929 C 0.25762 0.24157 0.71617 0.0
C930 C 0.26389 0.21669 0.74046 0.0
H931 H 0.23964 0.29396 0.7041 0.0
H932 H 0.26376 0.23521 0.69162 0.0
C933 C 0.25663 0.22678 0.77222 0.0
C934 C 0.97616 0.9948 0.97378 0.0
C935 C 0.96596 0.98766 0.00553 0.0
H936 H 0.01663 0.01384 0.94196 0.0
C937 C 0.99071 0.9941 0.02988 0.0
H938 H 0.9579 0.98967 0.95433 0.0
C939 C 0.02474 0.00711 0.02262 0.0
C940 C 0.03494 0.01424 0.99087 0.0
H941 H 0.98427 0.98805 0.05443 0.0
H942 H 0.043 0.01226 0.04206 0.0
C943 C 0.01019 0.0078 0.96652 0.0
C944 C 0.74517 0.72672 0.72383 0.0
C945 C 0.73791 0.71667 0.75559 0.0
H946 H 0.76426 0.76707 0.69191 0.0
C947 C 0.74416 0.74159 0.77986 0.0
H948 H 0.74019 0.70833 0.70445 0.0
C949 C 0.7571 0.77561 0.7725 0.0
C950 C 0.76437 0.78566 0.74073 0.0
H951 H 0.73802 0.73526 0.80442 0.0
H952 H 0.76211 0.794 0.79188 0.0
C953 C 0.75811 0.76075 0.71647 0.0
C954 C 0.74487 0.22633 0.27216 0.0
C955 C 0.73763 0.21622 0.24041 0.0
H956 H 0.76398 0.26673 0.30403 0.0
C957 C 0.74396 0.24107 0.21611 0.0
H958 H 0.73981 0.20799 0.29157 0.0
C959 C 0.75694 0.2751 0.22342 0.0
C960 C 0.76418 0.28521 0.25518 0.0
H961 H 0.73783 0.2347 0.19155 0.0
H962 H 0.76199 0.29344 0.20401 0.0
C963 C 0.75785 0.26036 0.27948 0.0
C964 C 0.75691 0.22713 0.72347 0.0
C965 C 0.76383 0.21661 0.75518 0.0
H966 H 0.73812 0.26792 0.69187 0.0
C967 C 0.75724 0.24115 0.77968 0.0
H968 H 0.76215 0.20903 0.70392 0.0
C969 C 0.74432 0.27527 0.77261 0.0
C970 C 0.7374 0.28578 0.7409 0.0
H971 H 0.76311 0.23447 0.80422 0.0
H972 H 0.73907 0.29335 0.79216 0.0
C973 C 0.744 0.26124 0.7164 0.0
C974 C 0.75717 0.72671 0.27247 0.0
C975 C 0.76406 0.71622 0.24075 0.0
H976 H 0.73845 0.7675 0.30411 0.0
C977 C 0.7575 0.74079 0.21627 0.0
H978 H 0.76239 0.70859 0.29201 0.0
C979 C 0.74463 0.77491 0.22337 0.0
C980 C 0.73774 0.7854 0.25509 0.0
H981 H 0.76334 0.73412 0.19173 0.0
H982 H 0.7394 0.79303 0.20383 0.0
C983 C 0.7443 0.76084 0.27957 0.0
C984 C 0.51027 0.49428 0.02951 0.0
C985 C 0.53497 0.48782 0.00512 0.0
H986 H 0.45801 0.51245 0.04177 0.0
C987 C 0.52472 0.49496 0.97339 0.0
H988 H 0.51674 0.48823 0.05405 0.0
C989 C 0.49069 0.508 0.96618 0.0
C990 C 0.46598 0.51446 0.99057 0.0
H991 H 0.54294 0.48979 0.95392 0.0
H992 H 0.48421 0.51407 0.94164 0.0
C993 C 0.47624 0.5073 0.0223 0.0
C994 C 0.0256 0.49476 0.52216 0.0
C995 C 0.03581 0.48761 0.49041 0.0
H996 H 0.98514 0.51379 0.55398 0.0
C997 C 0.01105 0.49406 0.46606 0.0
H998 H 0.04387 0.48962 0.5416 0.0
C999 C 0.97702 0.50706 0.47333 0.0
C1000 C 0.96682 0.51419 0.50508 0.0
H1001 H 0.01749 0.488 0.44151 0.0
H1002 H 0.95875 0.51221 0.45389 0.0
C1003 C 0.99158 0.50775 0.52942 0.0
C1004 C 0.01022 0.50754 0.02943 0.0
C1005 C 0.03495 0.514 0.00506 0.0
H1006 H 0.95787 0.48961 0.04165 0.0
C1007 C 0.02463 0.50707 0.9733 0.0
H1008 H 0.01675 0.51343 0.054 0.0
C1009 C 0.99052 0.49426 0.96606 0.0
C1010 C 0.96579 0.48781 0.99043 0.0
H1011 H 0.04287 0.51223 0.95385 0.0
H1012 H 0.98399 0.48837 0.94149 0.0
C1013 C 0.97611 0.49475 0.02219 0.0
C1014 C 0.52543 0.50743 0.52237 0.0
C1015 C 0.5358 0.51432 0.49062 0.0
H1016 H 0.48474 0.48877 0.55415 0.0
C1017 C 0.51111 0.50783 0.46623 0.0
H1018 H 0.54364 0.51259 0.54185 0.0
C1019 C 0.47699 0.49502 0.47344 0.0
C1020 C 0.46662 0.48812 0.50519 0.0
H1021 H 0.51768 0.51368 0.44166 0.0
H1022 H 0.45879 0.48983 0.45396 0.0
C1023 C 0.49131 0.49463 0.52958 0.0
C1024 C 0.14301 0.2896 0.33299 0.0
C1025 C 0.15343 0.25497 0.34231 0.0
H1026 H 0.12916 0.34277 0.34831 0.0
C1027 C 0.16181 0.24904 0.37441 0.0
H1028 H 0.13646 0.29511 0.30837 0.0
C1029 C 0.15811 0.27611 0.39688 0.0
C1030 C 0.1455 0.31014 0.38825 0.0
H1031 H 0.17057 0.22305 0.38246 0.0
H1032 H 0.1641 0.26982 0.42148 0.0
C1033 C 0.13895 0.31696 0.35581 0.0
C1034 C 0.00274 0.91177 0.62443 0.0
C1035 C 0.9969 0.90323 0.59235 0.0
H1036 H 0.9819 0.91417 0.67148 0.0
C1037 C 0.96235 0.89259 0.58304 0.0
H1038 H 0.02867 0.9207 0.63249 0.0
C1039 C 0.93498 0.88849 0.60585 0.0
C1040 C 0.94172 0.89521 0.63827 0.0
H1041 H 0.95691 0.88591 0.55843 0.0
H1042 H 0.90923 0.87853 0.59835 0.0
C1043 C 0.97567 0.90804 0.64689 0.0
C1044 C 0.35876 0.71239 0.83329 0.0
C1045 C 0.34859 0.74712 0.84255 0.0
H1046 H 0.37231 0.65918 0.84869 0.0
C1047 C 0.34038 0.7532 0.87466 0.0
H1048 H 0.36517 0.70676 0.80866 0.0
C1049 C 0.34399 0.72618 0.89719 0.0
C1050 C 0.35633 0.69203 0.88861 0.0
H1051 H 0.33183 0.77927 0.88268 0.0
H1052 H 0.33813 0.73259 0.92179 0.0
C1053 C 0.36272 0.68507 0.85616 0.0
C1054 C 0.52614 0.09408 0.14672 0.0
C1055 C 0.5601 0.10685 0.13808 0.0
H1056 H 0.47311 0.08147 0.13236 0.0
C1057 C 0.56682 0.11354 0.10564 0.0
H1058 H 0.51992 0.08797 0.17131 0.0
C1059 C 0.53943 0.10947 0.08285 0.0
C1060 C 0.50487 0.09887 0.09219 0.0
H1061 H 0.59258 0.12346 0.09812 0.0
H1062 H 0.54486 0.11612 0.05823 0.0
C1063 C 0.49904 0.09036 0.12429 0.0
C1064 C 0.13769 0.68391 0.14049 0.0
C1065 C 0.14475 0.69062 0.10812 0.0
H1066 H 0.13479 0.70587 0.18789 0.0
C1067 C 0.15796 0.72446 0.09961 0.0
H1068 H 0.12742 0.65825 0.1479 0.0
C1069 C 0.16169 0.7515 0.12209 0.0
C1070 C 0.15276 0.74573 0.1541 0.0
H1071 H 0.16436 0.73063 0.07506 0.0
H1072 H 0.17089 0.77737 0.11412 0.0
C1073 C 0.14178 0.71125 0.16334 0.0
C1074 C 0.54047 0.89263 0.41293 0.0
C1075 C 0.5059 0.90331 0.4037 0.0
H1076 H 0.59351 0.8785 0.39747 0.0
C1077 C 0.49998 0.91194 0.37165 0.0
H1078 H 0.54597 0.88588 0.43752 0.0
C1079 C 0.52698 0.9082 0.34913 0.0
C1080 C 0.56092 0.8953 0.35766 0.0
H1081 H 0.47403 0.92091 0.36368 0.0
H1082 H 0.52069 0.91436 0.32456 0.0
C1083 C 0.56777 0.88853 0.39006 0.0
C1084 C 0.34352 0.27765 0.5997 0.0
C1085 C 0.35679 0.31146 0.60824 0.0
H1086 H 0.33056 0.22473 0.61415 0.0
C1087 C 0.36392 0.3181 0.64062 0.0
H1088 H 0.33706 0.27154 0.57516 0.0
C1089 C 0.35984 0.29072 0.66343 0.0
C1090 C 0.34881 0.25626 0.65415 0.0
H1091 H 0.37424 0.34373 0.64804 0.0
H1092 H 0.36687 0.29603 0.68798 0.0
C1093 C 0.3398 0.25057 0.62215 0.0
C1094 C 0.93398 0.11352 0.89001 0.0
C1095 C 0.94083 0.10683 0.8576 0.0
H1096 H 0.95578 0.1161 0.93748 0.0
C1097 C 0.97479 0.09399 0.84905 0.0
H1098 H 0.90822 0.12348 0.89745 0.0
C1099 C 0.0018 0.09024 0.87157 0.0
C1100 C 0.99587 0.09879 0.90364 0.0
H1101 H 0.98108 0.08788 0.82447 0.0
H1102 H 0.02775 0.08133 0.86357 0.0
C1103 C 0.96128 0.10942 0.91288 0.0
C1104 C 0.84399 0.72505 0.59936 0.0
C1105 C 0.85706 0.69117 0.60791 0.0
H1106 H 0.83118 0.77801 0.61384 0.0
C1107 C 0.86404 0.68445 0.64029 0.0
H1108 H 0.83766 0.73124 0.5748 0.0
C1109 C 0.85997 0.71181 0.66312 0.0
C1110 C 0.84911 0.74632 0.65386 0.0
H1111 H 0.8742 0.65876 0.64772 0.0
H1112 H 0.86687 0.70642 0.68769 0.0
C1113 C 0.84028 0.75211 0.62183 0.0
C1114 C 0.04037 0.10907 0.41303 0.0
C1115 C 0.00586 0.09821 0.4038 0.0
H1116 H 0.09338 0.1233 0.39758 0.0
C1117 C 1.00003 0.08934 0.37178 0.0
H1118 H 0.04578 0.116 0.43759 0.0
C1119 C 0.02706 0.09304 0.34928 0.0
C1120 C 0.06094 0.10613 0.3578 0.0
H1121 H 0.97414 0.08023 0.36381 0.0
H1122 H 0.02085 0.08671 0.32473 0.0
C1123 C 0.06769 0.11312 0.39018 0.0
C1124 C 0.63773 0.31752 0.14031 0.0
C1125 C 0.64484 0.31088 0.10794 0.0
H1126 H 0.6348 0.29545 0.18767 0.0
C1127 C 0.65808 0.27707 0.09938 0.0
H1128 H 0.62743 0.34316 0.14775 0.0
C1129 C 0.6618 0.24998 0.12182 0.0
C1130 C 0.65282 0.25568 0.15382 0.0
H1131 H 0.66451 0.27096 0.07482 0.0
H1132 H 0.67102 0.22413 0.11381 0.0
C1133 C 0.64182 0.29014 0.16311 0.0
C1134 C 0.47491 0.9091 0.84924 0.0
C1135 C 0.44105 0.89597 0.85775 0.0
H1136 H 0.52782 0.92196 0.86378 0.0
C1137 C 0.43428 0.88901 0.89013 0.0
H1138 H 0.48112 0.91542 0.82469 0.0
C1139 C 0.46159 0.8931 0.91299 0.0
C1140 C 0.4961 0.90398 0.90376 0.0
H1141 H 0.4086 0.8788 0.89753 0.0
H1142 H 0.45616 0.88618 0.93755 0.0
C1143 C 0.50193 0.91284 0.87175 0.0
C1144 C 0.86286 0.31754 0.85553 0.0
C1145 C 0.8561 0.31075 0.88794 0.0
H1146 H 0.86556 0.29566 0.8081 0.0
C1147 C 0.8433 0.27677 0.89651 0.0
H1148 H 0.8728 0.34331 0.84807 0.0
C1149 C 0.83964 0.24971 0.87403 0.0
C1150 C 0.84824 0.2556 0.84197 0.0
H1151 H 0.83714 0.27051 0.92109 0.0
H1152 H 0.83073 0.22376 0.88205 0.0
C1153 C 0.85884 0.29018 0.83269 0.0
C1154 C 0.46218 0.10956 0.58311 0.0
C1155 C 0.49693 0.09964 0.59247 0.0
H1156 H 0.40888 0.12301 0.59837 0.0
C1157 C 0.50304 0.09191 0.62468 0.0
H1158 H 0.45652 0.11561 0.55841 0.0
C1159 C 0.47601 0.09568 0.64716 0.0
C1160 C 0.4418 0.10772 0.63846 0.0
H1161 H 0.52913 0.08356 0.6328 0.0
H1162 H 0.48246 0.09014 0.67181 0.0
C1163 C 0.43483 0.11369 0.60595 0.0
C1164 C 0.66191 0.75243 0.37424 0.0
C1165 C 0.65342 0.74649 0.34216 0.0
H1166 H 0.66431 0.73169 0.42132 0.0
C1167 C 0.6429 0.71187 0.33289 0.0
H1168 H 0.67074 0.77841 0.38225 0.0
C1169 C 0.63886 0.68453 0.35575 0.0
C1170 C 0.64552 0.69137 0.38817 0.0
H1171 H 0.63627 0.70635 0.30829 0.0
H1172 H 0.629 0.65873 0.34829 0.0
C1173 C 0.65823 0.72539 0.39674 0.0
C1174 C 0.02612 0.90714 0.1471 0.0
C1175 C 0.06015 0.89456 0.13845 0.0
H1176 H 0.97309 0.91966 0.1327 0.0
C1177 C 0.06698 0.88811 0.106 0.0
H1178 H 0.01981 0.91306 0.17171 0.0
C1179 C 0.03963 0.89225 0.08317 0.0
C1180 C 0.00501 0.90267 0.0925 0.0
H1181 H 0.09279 0.87835 0.09847 0.0
H1182 H 0.04515 0.8858 0.05853 0.0
C1183 C 0.99907 0.91092 0.12463 0.0
C1184 C 0.66188 0.75051 0.87401 0.0
C1185 C 0.65296 0.75623 0.84199 0.0
H1186 H 0.66452 0.77144 0.92102 0.0
C1187 C 0.64199 0.79069 0.83271 0.0
H1188 H 0.67107 0.72465 0.88202 0.0
C1189 C 0.63788 0.81807 0.85552 0.0
C1190 C 0.64492 0.8114 0.88791 0.0
H1191 H 0.63503 0.79603 0.80814 0.0
H1192 H 0.62761 0.84372 0.84809 0.0
C1193 C 0.65813 0.77758 0.89646 0.0
C1194 C 0.50197 0.41176 0.12457 0.0
C1195 C 0.496 0.4033 0.09249 0.0
H1196 H 0.48131 0.414 0.17169 0.0
C1197 C 0.46141 0.3927 0.08325 0.0
H1198 H 0.52794 0.42065 0.13257 0.0
C1199 C 0.43413 0.38855 0.10613 0.0
C1200 C 0.44101 0.39515 0.13855 0.0
H1201 H 0.45587 0.38608 0.05865 0.0
H1202 H 0.40836 0.37861 0.0987 0.0
C1203 C 0.47499 0.40796 0.1471 0.0
C1204 C 0.86405 0.18405 0.35548 0.0
C1205 C 0.85709 0.19078 0.38787 0.0
H1206 H 0.86683 0.20599 0.30807 0.0
C1207 C 0.844 0.22465 0.39641 0.0
H1208 H 0.87422 0.15836 0.34805 0.0
C1209 C 0.84026 0.2517 0.37393 0.0
C1210 C 0.84907 0.2459 0.3419 0.0
H1211 H 0.83769 0.23085 0.42097 0.0
H1212 H 0.83115 0.27759 0.38192 0.0
C1213 C 0.85994 0.21139 0.33264 0.0
C1214 C 0.99996 0.59023 0.62437 0.0
C1215 C 0.00588 0.59877 0.5923 0.0
H1216 H 0.02068 0.58789 0.67146 0.0
C1217 C 0.04046 0.60942 0.58305 0.0
H1218 H 0.97401 0.5813 0.63237 0.0
C1219 C 0.06777 0.61354 0.60592 0.0
C1220 C 0.06093 0.60685 0.63833 0.0
H1221 H 0.04596 0.6161 0.55845 0.0
H1222 H 0.09352 0.62351 0.59847 0.0
C1223 C 0.02697 0.594 0.64688 0.0
C1224 C 0.65794 0.2261 0.59897 0.0
C1225 C 0.64551 0.19198 0.60754 0.0
H1226 H 0.67014 0.27919 0.61349 0.0
C1227 C 0.63903 0.18505 0.63997 0.0
H1228 H 0.66387 0.23249 0.57438 0.0
C1229 C 0.64297 0.21237 0.66284 0.0
C1230 C 0.65321 0.24708 0.65359 0.0
H1231 H 0.62937 0.15917 0.64743 0.0
H1232 H 0.63648 0.20676 0.68746 0.0
C1233 C 0.66152 0.25313 0.62149 0.0
C1234 C 0.99902 0.41183 0.87149 0.0
C1235 C 0.00486 0.40327 0.90357 0.0
H1236 H 0.01988 0.41425 0.82446 0.0
C1237 C 0.03941 0.39262 0.9129 0.0
H1238 H 0.9731 0.42076 0.86344 0.0
C1239 C 0.06678 0.38854 0.89009 0.0
C1240 C 0.06004 0.39527 0.85766 0.0
H1241 H 0.04484 0.38593 0.9375 0.0
H1242 H 0.09252 0.37857 0.89759 0.0
C1243 C 0.0261 0.40811 0.84904 0.0
C1244 C 0.84349 0.7763 0.09918 0.0
C1245 C 0.85621 0.81031 0.10778 0.0
H1246 H 0.83099 0.72326 0.11363 0.0
C1247 C 0.86289 0.81711 0.1402 0.0
H1248 H 0.8374 0.77003 0.0746 0.0
C1249 C 0.85887 0.78975 0.16303 0.0
C1250 C 0.84835 0.75515 0.15374 0.0
H1251 H 0.87277 0.8429 0.14767 0.0
H1252 H 0.86552 0.79524 0.18763 0.0
C1253 C 0.83983 0.74924 0.12166 0.0
C1254 C 0.5025 0.58998 0.37199 0.0
C1255 C 0.49675 0.59881 0.40402 0.0
H1256 H 0.48155 0.58728 0.32499 0.0
C1257 C 0.46225 0.60961 0.41333 0.0
H1258 H 0.52839 0.58092 0.36395 0.0
C1259 C 0.43485 0.61361 0.39054 0.0
C1260 C 0.44151 0.60663 0.35814 0.0
H1261 H 0.45689 0.61651 0.43791 0.0
H1262 H 0.40915 0.62372 0.39801 0.0
C1263 C 0.4754 0.59362 0.34955 0.0
C1264 C 0.34336 0.2252 0.09947 0.0
C1265 C 0.35614 0.1912 0.108 0.0
H1266 H 0.33086 0.27821 0.11399 0.0
C1267 C 0.36294 0.18437 0.1404 0.0
H1268 H 0.33717 0.23148 0.0749 0.0
C1269 C 0.35898 0.21171 0.16326 0.0
C1270 C 0.3484 0.24631 0.15402 0.0
H1271 H 0.37287 0.15859 0.14782 0.0
H1272 H 0.36573 0.2062 0.18784 0.0
C1273 C 0.33975 0.25224 0.12197 0.0
C1274 C 0.49878 0.59191 0.87141 0.0
C1275 C 0.5049 0.59962 0.90362 0.0
H1276 H 0.51935 0.59017 0.82427 0.0
C1277 C 0.53966 0.60951 0.91298 0.0
H1278 H 0.47267 0.58359 0.86328 0.0
C1279 C 0.56701 0.61363 0.89014 0.0
C1280 C 0.56002 0.60771 0.85763 0.0
H1281 H 0.54533 0.61553 0.93768 0.0
H1282 H 0.59296 0.62293 0.89772 0.0
C1283 C 0.5258 0.59569 0.84892 0.0
C1284 C 0.14287 0.79022 0.66325 0.0
C1285 C 0.15354 0.75565 0.65399 0.0
H1286 H 0.12885 0.84332 0.64786 0.0
C1287 C 0.16222 0.74978 0.62194 0.0
H1288 H 0.13609 0.79568 0.68784 0.0
C1289 C 0.15856 0.77684 0.59946 0.0
C1290 C 0.14568 0.81079 0.60801 0.0
H1291 H 0.17117 0.72384 0.61393 0.0
H1292 H 0.16477 0.7706 0.57489 0.0
C1293 C 0.13885 0.81757 0.64042 0.0
C1294 C 0.93478 0.38815 0.38997 0.0
C1295 C 0.94159 0.39472 0.35753 0.0
H1296 H 0.95663 0.38566 0.43742 0.0
C1297 C 0.97561 0.40738 0.34891 0.0
H1298 H 0.90898 0.37832 0.39746 0.0
C1299 C 0.00266 0.41111 0.37139 0.0
C1300 C 0.99674 0.40271 0.40349 0.0
H1301 H 0.9819 0.41341 0.32432 0.0
H1302 H 0.02863 0.41991 0.36334 0.0
C1303 C 0.96213 0.39223 0.4128 0.0
C1304 C 0.34396 0.77686 0.39684 0.0
C1305 C 0.35707 0.81071 0.38824 0.0
H1306 H 0.33108 0.72389 0.38243 0.0
C1307 C 0.36402 0.81737 0.35584 0.0
H1308 H 0.33765 0.77072 0.42141 0.0
C1309 C 0.3599 0.78999 0.33305 0.0
C1310 C 0.34901 0.7555 0.34236 0.0
H1311 H 0.37422 0.84304 0.34838 0.0
H1312 H 0.36679 0.79534 0.30847 0.0
C1313 C 0.3402 0.74977 0.3744 0.0
C1314 C 0.93409 0.61316 0.10581 0.0
C1315 C 0.94087 0.60628 0.1382 0.0
H1316 H 0.95597 0.6159 0.05838 0.0
C1317 C 0.97476 0.59324 0.14673 0.0
H1318 H 0.90839 0.62329 0.09839 0.0
C1319 C 0.00178 0.58948 0.12423 0.0
C1320 C 0.99593 0.59823 0.09219 0.0
H1321 H 0.98099 0.58698 0.1713 0.0
H1322 H 0.02768 0.58041 0.13221 0.0
C1323 C 0.9614 0.60905 0.08295 0.0
C1324 C 0.16141 0.25221 0.87416 0.0
C1325 C 0.15263 0.2464 0.84213 0.0
H1326 H 0.16398 0.23137 0.9212 0.0
C1327 C 0.14182 0.21187 0.83286 0.0
H1328 H 0.17048 0.27812 0.88216 0.0
C1329 C 0.13775 0.18452 0.8557 0.0
C1330 C 0.14467 0.19126 0.88809 0.0
H1331 H 0.13496 0.20646 0.80829 0.0
H1332 H 0.12761 0.15882 0.84826 0.0
C1333 C 0.1577 0.22516 0.89664 0.0
C1334 C 0.56742 0.38906 0.60601 0.0
C1335 C 0.56063 0.39592 0.6384 0.0
H1336 H 0.54556 0.38633 0.55858 0.0
C1337 C 0.52674 0.40897 0.64693 0.0
H1338 H 0.59312 0.37892 0.5986 0.0
C1339 C 0.49973 0.41273 0.62443 0.0
C1340 C 0.50559 0.40398 0.59239 0.0
H1341 H 0.52051 0.41521 0.6715 0.0
H1342 H 0.47382 0.4218 0.63241 0.0
C1343 C 0.54011 0.39317 0.58315 0.0
C1344 C 0.03506 0.26583 0.24956 0.0
C1345 C 0.0309 0.22859 0.24941 0.0
H1346 H 0.00944 0.31649 0.24967 0.0
C1347 C 0.99666 0.2138 0.2488 0.0
H1348 H 0.06119 0.27807 0.25005 0.0
C1349 C 0.96705 0.23587 0.24856 0.0
C1350 C 0.9712 0.27311 0.24896 0.0
H1351 H 0.99265 0.18521 0.24863 0.0
H1352 H 0.94092 0.22361 0.24828 0.0
C1353 C 0.00544 0.28791 0.24934 0.0
C1354 C 0.98658 0.78514 0.49926 0.0
C1355 C 0.02381 0.78096 0.49949 0.0
H1356 H 0.93592 0.75954 0.49929 0.0
C1357 C 0.03859 0.74671 0.49953 0.0
H1358 H 0.97435 0.81127 0.49925 0.0
C1359 C 0.01651 0.71709 0.49956 0.0
C1360 C 0.97928 0.72126 0.49957 0.0
H1361 H 0.06717 0.74269 0.4997 0.0
H1362 H 0.02874 0.69095 0.49979 0.0
C1363 C 0.9645 0.75552 0.49931 0.0
C1364 C 0.46721 0.73606 0.74951 0.0
C1365 C 0.47133 0.7733 0.74935 0.0
H1366 H 0.49287 0.68542 0.74955 0.0
C1367 C 0.50556 0.78812 0.74857 0.0
H1368 H 0.44109 0.72379 0.75011 0.0
C1369 C 0.53519 0.76607 0.74822 0.0
C1370 C 0.53107 0.72883 0.74868 0.0
H1371 H 0.50954 0.81671 0.74836 0.0
H1372 H 0.56131 0.77835 0.74783 0.0
C1373 C 0.49685 0.71401 0.74918 0.0
C1374 C 0.46298 0.25528 -0.00018 0.0
C1375 C 0.47776 0.22102 -0.00062 0.0
H1376 H 0.47285 0.31103 0.00052 0.0
C1377 C 0.51499 0.21685 -0.00109 0.0
H1378 H 0.43441 0.2593 0.0002 0.0
C1379 C 0.53707 0.24646 -0.00089 0.0
C1380 C 0.5223 0.28071 -0.00025 0.0
H1381 H 0.52722 0.19071 -0.00141 0.0
H1382 H 0.56565 0.24243 -0.00113 0.0
C1383 C 0.48507 0.28489 -0.0 0.0
C1384 C 0.00511 0.71376 0.24732 0.0
C1385 C 0.97089 0.72858 0.24676 0.0
H1386 H 0.06086 0.72353 0.24778 0.0
C1387 C 0.96676 0.76582 0.24667 0.0
H1388 H 0.0091 0.68517 0.24745 0.0
C1389 C 0.9964 0.78788 0.24687 0.0
C1390 C 0.03063 0.77305 0.24717 0.0
H1391 H 0.94064 0.77808 0.24622 0.0
H1392 H 0.99242 0.81646 0.24658 0.0
C1393 C 0.03475 0.73581 0.24755 0.0
C1394 C 0.48672 0.71687 0.49732 0.0
C1395 C 0.52395 0.72104 0.49694 0.0
H1396 H 0.43606 0.74247 0.49728 0.0
C1397 C 0.53873 0.75529 0.49665 0.0
H1398 H 0.47448 0.69073 0.49753 0.0
C1399 C 0.51665 0.78491 0.49649 0.0
C1400 C 0.47942 0.78074 0.49661 0.0
H1401 H 0.56731 0.75931 0.49636 0.0
H1402 H 0.52888 0.81105 0.49606 0.0
C1403 C 0.46464 0.74649 0.49714 0.0
C1404 C 0.50496 0.21398 0.74694 0.0
C1405 C 0.47074 0.2288 0.74745 0.0
H1406 H 0.56072 0.22377 0.746 0.0
C1407 C 0.46662 0.26604 0.74796 0.0
H1408 H 0.50894 0.18539 0.74654 0.0
C1409 C 0.49625 0.28809 0.74762 0.0
C1410 C 0.53048 0.27327 0.74681 0.0
H1411 H 0.4405 0.27831 0.74836 0.0
H1412 H 0.49227 0.31668 0.74785 0.0
C1413 C 0.5346 0.23603 0.74662 0.0
C1414 C 0.01512 0.28519 0.99673 0.0
C1415 C 0.97789 0.28102 0.9965 0.0
H1416 H 0.06578 0.25959 0.9967 0.0
C1417 C 0.96311 0.24677 0.99644 0.0
H1418 H 0.02736 0.31133 0.99675 0.0
C1419 C 0.98519 0.21714 0.99641 0.0
C1420 C 0.02242 0.22132 0.99641 0.0
H1421 H 0.93453 0.24275 0.99627 0.0
H1422 H 0.97295 0.19101 0.99618 0.0
C1423 C 0.0372 0.25557 0.99667 0.0
C1424 C 0.03525 0.76615 0.74694 0.0
C1425 C 0.0311 0.72891 0.74691 0.0
H1426 H 0.00962 0.81681 0.74676 0.0
C1427 C 0.99686 0.71411 0.74713 0.0
H1428 H 0.06138 0.7784 0.74675 0.0
C1429 C 0.96724 0.73617 0.74713 0.0
C1430 C 0.97139 0.77341 0.7469 0.0
H1431 H 0.99286 0.68552 0.74714 0.0
H1432 H 0.94111 0.72391 0.74711 0.0
C1433 C 0.00563 0.78822 0.74692 0.0
C1434 C 0.03832 0.24632 0.49671 0.0
C1435 C 0.02352 0.28057 0.49664 0.0
H1436 H 0.02849 0.19056 0.49655 0.0
C1437 C 0.98629 0.28473 0.49677 0.0
H1438 H 0.0669 0.24232 0.49662 0.0
C1439 C 0.96422 0.2551 0.49673 0.0
C1440 C 0.97901 0.22085 0.49657 0.0
H1441 H 0.97404 0.31086 0.4967 0.0
H1442 H 0.93564 0.25911 0.49666 0.0
C1443 C 0.01624 0.21669 0.49669 0.0
C1444 C 0.46674 0.23561 0.24695 0.0
C1445 C 0.47089 0.27285 0.247 0.0
H1446 H 0.49238 0.18495 0.24668 0.0
C1447 C 0.50513 0.28765 0.2473 0.0
H1448 H 0.44061 0.22336 0.24671 0.0
C1449 C 0.53475 0.26559 0.24729 0.0
C1450 C 0.53061 0.22835 0.24696 0.0
H1451 H 0.50913 0.31624 0.24738 0.0
H1452 H 0.56088 0.27785 0.24732 0.0
C1453 C 0.49637 0.21354 0.24692 0.0
C1454 C 0.53756 0.747 0.99697 0.0
C1455 C 0.52277 0.78125 0.99647 0.0
H1456 H 0.52774 0.69124 0.99734 0.0
C1457 C 0.48554 0.78541 0.99638 0.0
H1458 H 0.56614 0.74299 0.99709 0.0
C1459 C 0.46346 0.75578 0.99654 0.0
C1460 C 0.47826 0.72153 0.99681 0.0
H1461 H 0.47329 0.81154 0.99597 0.0
H1462 H 0.43489 0.75978 0.99627 0.0
C1463 C 0.51549 0.71738 0.99714 0.0
C1464 C 0.00489 0.2141 0.74887 0.0
C1465 C 0.97065 0.2289 0.74903 0.0
H1466 H 0.06064 0.22391 0.74895 0.0
C1467 C 0.9665 0.26614 0.74894 0.0
H1468 H 0.0089 0.18552 0.74891 0.0
C1469 C 0.99613 0.28822 0.74897 0.0
C1470 C 0.03037 0.27341 0.74906 0.0
H1471 H 0.94037 0.27839 0.74908 0.0
H1472 H 0.99213 0.3168 0.74909 0.0
C1473 C 0.03452 0.23617 0.74888 0.0
C1474 C 0.51625 0.28543 0.4999 0.0
C1475 C 0.47901 0.28126 0.49972 0.0
H1476 H 0.5669 0.25983 0.50006 0.0
C1477 C 0.46424 0.24701 0.49913 0.0
H1478 H 0.52847 0.31157 0.50039 0.0
C1479 C 0.48632 0.21739 0.49893 0.0
C1480 C 0.52355 0.22156 0.49934 0.0
H1481 H 0.43566 0.24298 0.49893 0.0
H1482 H 0.47408 0.19126 0.49864 0.0
C1483 C 0.53833 0.25581 0.49972 0.0
C1484 C 0.50552 0.71349 0.24952 0.0
C1485 C 0.47127 0.72828 0.2495 0.0
H1486 H 0.56128 0.72336 0.24969 0.0
C1487 C 0.4671 0.76552 0.2492 0.0
H1488 H 0.50954 0.68491 0.24974 0.0
C1489 C 0.49671 0.7876 0.24917 0.0
C1490 C 0.53096 0.77282 0.24942 0.0
H1491 H 0.44097 0.77776 0.2492 0.0
H1492 H 0.49268 0.81618 0.24911 0.0
C1493 C 0.53514 0.73559 0.24947 0.0
C1494 C 0.01545 0.78473 -0.00072 0.0
C1495 C 0.97822 0.78058 -0.00053 0.0
H1496 H 0.0661 0.75912 -0.00067 0.0
C1497 C 0.96342 0.74633 -0.00052 0.0
H1498 H 0.02771 0.81087 -0.00071 0.0
C1499 C 0.9855 0.7167 -0.00049 0.0
C1500 C 0.02273 0.72086 -0.00045 0.0
H1501 H 0.93485 0.74233 -0.00037 0.0
H1502 H 0.97325 0.69057 -0.00029 0.0
C1503 C 0.03752 0.75511 -0.00067 0.0
C1504 C 0.13518 0.15754 0.10223 0.0
C1505 C 0.10981 0.1337 0.08989 0.0
H1506 H 0.1581 0.18088 0.14388 0.0
C1507 C 0.08974 0.11263 0.11085 0.0
H1508 H 0.15111 0.1741 0.08662 0.0
C1509 C 0.09403 0.11628 0.14362 0.0
C1510 C 0.1181 0.14143 0.15597 0.0
H1511 H 0.07025 0.09381 0.10197 0.0
H1512 H 0.0775 0.10033 0.15923 0.0
C1513 C 0.13911 0.16155 0.135 0.0
C1514 C 0.09117 0.88986 0.38528 0.0
C1515 C 0.11121 0.86874 0.40621 0.0
H1516 H 0.07866 0.902 0.33692 0.0
C1517 C 0.13635 0.84469 0.39383 0.0
H1518 H 0.07185 0.90885 0.39419 0.0
C1519 C 0.14002 0.84049 0.36105 0.0
C1520 C 0.11897 0.86062 0.34012 0.0
H1521 H 0.15226 0.82809 0.40942 0.0
H1522 H 0.1588 0.82097 0.35214 0.0
C1523 C 0.0952 0.88602 0.3525 0.0
C1524 C 0.40794 0.88561 0.64368 0.0
C1525 C 0.38403 0.86032 0.65603 0.0
H1526 H 0.43151 0.90829 0.60202 0.0
C1527 C 0.36307 0.84013 0.63507 0.0
H1528 H 0.42442 0.90163 0.65929 0.0
C1529 C 0.3669 0.84423 0.6023 0.0
C1530 C 0.39212 0.86823 0.58996 0.0
H1531 H 0.3442 0.82069 0.64396 0.0
H1532 H 0.35103 0.82761 0.5867 0.0
C1533 C 0.41213 0.88935 0.61091 0.0
C1534 C 0.36124 0.16116 0.861 0.0
C1535 C 0.38223 0.14097 0.84006 0.0
H1536 H 0.34915 0.17368 0.90937 0.0
C1537 C 0.40599 0.11556 0.85243 0.0
H1538 H 0.34247 0.18069 0.85209 0.0
C1539 C 0.4101 0.11178 0.88521 0.0
C1540 C 0.39015 0.13299 0.90615 0.0
H1541 H 0.42247 0.09953 0.83684 0.0
H1542 H 0.42942 0.09279 0.89412 0.0
C1543 C 0.36499 0.15702 0.89378 0.0
C1544 C 0.86584 0.84477 0.89366 0.0
C1545 C 0.89113 0.86862 0.90611 0.0
H1546 H 0.84324 0.82133 0.85191 0.0
C1547 C 0.91134 0.88966 0.88523 0.0
H1548 H 0.84981 0.82824 0.9092 0.0
C1549 C 0.90729 0.88594 0.85244 0.0
C1550 C 0.88334 0.86075 0.84 0.0
H1551 H 0.93078 0.90849 0.89419 0.0
H1552 H 0.92394 0.90185 0.83689 0.0
C1553 C 0.86216 0.84069 0.86087 0.0
C1554 C 0.86603 0.1573 0.60202 0.0
C1555 C 0.8913 0.13332 0.58975 0.0
H1556 H 0.84325 0.18093 0.64361 0.0
C1557 C 0.91128 0.11225 0.61077 0.0
H1558 H 0.85018 0.17387 0.58636 0.0
C1559 C 0.90703 0.11605 0.64353 0.0
C1560 C 0.88309 0.14137 0.65581 0.0
H1561 H 0.9307 0.09331 0.60194 0.0
H1562 H 0.92351 0.1001 0.65918 0.0
C1563 C 0.86214 0.16147 0.63478 0.0
C1564 C 0.63615 0.15699 0.39345 0.0
C1565 C 0.61071 0.13331 0.40591 0.0
H1566 H 0.65895 0.18021 0.3517 0.0
C1567 C 0.59047 0.11229 0.38504 0.0
H1568 H 0.65222 0.1735 0.40899 0.0
C1569 C 0.59461 0.11589 0.35224 0.0
C1570 C 0.6187 0.14094 0.33979 0.0
H1571 H 0.57091 0.09357 0.394 0.0
H1572 H 0.57792 0.10003 0.3367 0.0
C1573 C 0.63993 0.16096 0.36067 0.0
C1574 C 0.63929 0.84024 0.13484 0.0
C1575 C 0.6183 0.86031 0.15585 0.0
H1576 H 0.65137 0.82795 0.08642 0.0
C1577 C 0.59439 0.88565 0.14357 0.0
H1578 H 0.65816 0.82076 0.14367 0.0
C1579 C 0.59023 0.88954 0.11081 0.0
C1580 C 0.61026 0.86852 0.0898 0.0
H1581 H 0.57789 0.90159 0.15922 0.0
H1582 H 0.57084 0.90851 0.10199 0.0
C1583 C 0.63548 0.84448 0.10207 0.0
C1584 C 0.63679 0.65704 0.60233 0.0
C1585 C 0.61167 0.63296 0.58997 0.0
H1586 H 0.65928 0.68076 0.64401 0.0
C1587 C 0.59177 0.61172 0.61091 0.0
H1588 H 0.6526 0.67373 0.58673 0.0
C1589 C 0.59587 0.61551 0.64369 0.0
C1590 C 0.61959 0.64098 0.65606 0.0
H1591 H 0.57247 0.5927 0.60201 0.0
H1592 H 0.57942 0.59946 0.65928 0.0
C1593 C 0.64054 0.66119 0.63511 0.0
C1594 C 0.63868 0.34004 0.86107 0.0
C1595 C 0.61776 0.36026 0.84011 0.0
H1596 H 0.65066 0.32746 0.90944 0.0
C1597 C 0.59382 0.38553 0.85247 0.0
H1598 H 0.65756 0.32061 0.85218 0.0
C1599 C 0.58959 0.38922 0.88523 0.0
C1600 C 0.60958 0.36807 0.90618 0.0
H1601 H 0.57737 0.40157 0.83686 0.0
H1602 H 0.5702 0.40816 0.89412 0.0
C1603 C 0.63481 0.34409 0.89384 0.0
C1604 C 0.91066 0.38991 0.11064 0.0
C1605 C 0.89055 0.36883 0.08972 0.0
H1606 H 0.92328 0.40198 0.15899 0.0
C1607 C 0.86541 0.3448 0.10211 0.0
H1608 H 0.92999 0.40888 0.10172 0.0
C1609 C 0.8618 0.34056 0.13489 0.0
C1610 C 0.88291 0.36065 0.15581 0.0
H1611 H 0.84946 0.32823 0.08653 0.0
H1612 H 0.84301 0.32106 0.14381 0.0
C1613 C 0.90669 0.38603 0.14342 0.0
C1614 C 0.91186 0.61254 0.38512 0.0
C1615 C 0.89184 0.63364 0.40609 0.0
H1616 H 0.92406 0.60022 0.33673 0.0
C1617 C 0.86649 0.65751 0.39376 0.0
H1618 H 0.93133 0.59369 0.39399 0.0
C1619 C 0.86255 0.66153 0.36099 0.0
C1620 C 0.88353 0.64138 0.34001 0.0
H1621 H 0.8506 0.67409 0.40937 0.0
H1622 H 0.84359 0.68089 0.35212 0.0
C1623 C 0.90756 0.6162 0.35235 0.0
C1624 C 0.36627 0.3444 0.39408 0.0
C1625 C 0.39146 0.36847 0.40635 0.0
H1626 H 0.34359 0.32067 0.35249 0.0
C1627 C 0.41142 0.38956 0.38533 0.0
H1628 H 0.35043 0.32782 0.40974 0.0
C1629 C 0.40723 0.3857 0.35257 0.0
C1630 C 0.38336 0.36032 0.34029 0.0
H1631 H 0.43078 0.40855 0.39416 0.0
H1632 H 0.42369 0.40168 0.33692 0.0
C1633 C 0.36243 0.34018 0.36132 0.0
C1634 C 0.36204 0.66091 0.13548 0.0
C1635 C 0.38335 0.64097 0.15634 0.0
H1636 H 0.34962 0.67336 0.08717 0.0
C1637 C 0.40748 0.61597 0.14388 0.0
H1638 H 0.34298 0.68012 0.14446 0.0
C1639 C 0.41157 0.61233 0.11108 0.0
C1640 C 0.39123 0.63327 0.09022 0.0
H1641 H 0.42423 0.60016 0.15941 0.0
H1642 H 0.43115 0.59365 0.1021 0.0
C1643 C 0.36576 0.65691 0.10269 0.0
C1644 C 0.09039 0.61233 0.88517 0.0
C1645 C 0.11036 0.6334 0.9062 0.0
H1646 H 0.07818 0.60016 0.83676 0.0
C1647 C 0.13563 0.65739 0.89393 0.0
H1648 H 0.07096 0.59339 0.894 0.0
C1649 C 0.13954 0.66154 0.86117 0.0
C1650 C 0.11861 0.64142 0.84014 0.0
H1651 H 0.15149 0.67396 0.90959 0.0
H1652 H 0.15844 0.68099 0.85234 0.0
C1653 C 0.09465 0.61612 0.85241 0.0
C1654 C 0.13596 0.3448 0.60231 0.0
C1655 C 0.11068 0.36866 0.58986 0.0
H1656 H 0.15853 0.32134 0.64406 0.0
C1657 C 0.09047 0.3897 0.61074 0.0
H1658 H 0.15199 0.32826 0.58676 0.0
C1659 C 0.0945 0.38597 0.64353 0.0
C1660 C 0.11844 0.36076 0.65597 0.0
H1661 H 0.07104 0.40854 0.60178 0.0
H1662 H 0.07785 0.40188 0.65907 0.0
C1663 C 0.13962 0.34071 0.63509 0.0
loop_
_geom_bond_atom_site_label_1
_geom_bond_atom_site_label_2
_geom_bond_distance
_geom_bond_site_symmetry_2
_ccdc_geom_bond_type
Sc0 O3 2.025 . S
Sc0 O10 2.105 . S
Sc0 O13 2.105 . S
Sc0 O16 2.105 . S
Sc0 O19 2.105 . S
Sc1 O3 2.025 . S
Sc1 O11 2.105 . S
Sc1 O15 2.105 . S
Sc1 O17 2.105 . S
Sc1 O21 2.105 . S
Sc2 O3 2.025 . S
Sc2 O12 2.105 . S
Sc2 O14 2.105 . S
Sc2 O18 2.105 . S
Sc2 O20 2.105 . S
O3 Sc0 2.025 . S
O3 Sc1 2.025 . S
O3 Sc2 2.025 . S
C4 O10 1.268 . S
C4 O20 1.268 . S
C5 O11 1.268 . S
C5 O19 1.268 . S
C6 O12 1.268 . S
C6 O21 1.268 . S
C7 O13 1.268 . S
C7 O17 1.268 . S
C8 O14 1.268 . S
C8 O16 1.268 . S
C9 O15 1.268 . S
C9 O18 1.268 . S
O10 Sc0 2.105 . S
O10 C4 1.268 . S
O11 Sc1 2.105 . S
O11 C5 1.268 . S
O12 Sc2 2.105 . S
O12 C6 1.268 . S
O13 Sc0 2.105 . S
O13 C7 1.268 . S
O14 Sc2 2.105 . S
O14 C8 1.268 . S
O15 Sc1 2.105 . S
O15 C9 1.268 . S
O16 Sc0 2.105 . S
O16 C8 1.268 . S
O17 Sc1 2.105 . S
O17 C7 1.268 . S
O18 Sc2 2.105 . S
O18 C9 1.268 . S
O19 Sc0 2.105 . S
O19 C5 1.268 . S
O20 Sc2 2.105 . S
O20 C4 1.268 . S
O21 Sc1 2.105 . S
O21 C6 1.268 . S
Sc22 O25 2.025 . S
Sc22 O32 2.105 . S
Sc22 O35 2.105 . S
Sc22 O38 2.105 . S
Sc22 O41 2.105 . S
Sc23 O25 2.025 . S
Sc23 O33 2.105 . S
Sc23 O37 2.105 . S
Sc23 O39 2.105 . S
Sc23 O43 2.105 . S
Sc24 O25 2.025 . S
Sc24 O34 2.105 . S
Sc24 O36 2.105 . S
Sc24 O40 2.105 . S
Sc24 O42 2.105 . S
O25 Sc22 2.025 . S
O25 Sc23 2.025 . S
O25 Sc24 2.025 . S
C26 O32 1.268 . S
C26 O42 1.268 . S
C27 O33 1.268 . S
C27 O41 1.268 . S
C28 O34 1.268 . S
C28 O43 1.268 . S
C29 O35 1.268 . S
C29 O39 1.268 . S
C30 O36 1.268 . S
C30 O38 1.268 . S
C31 O37 1.268 . S
C31 O40 1.268 . S
O32 Sc22 2.105 . S
O32 C26 1.268 . S
O33 Sc23 2.105 . S
O33 C27 1.268 . S
O34 Sc24 2.105 . S
O34 C28 1.268 . S
O35 Sc22 2.105 . S
O35 C29 1.268 . S
O36 Sc24 2.105 . S
O36 C30 1.268 . S
O37 Sc23 2.105 . S
O37 C31 1.268 . S
O38 Sc22 2.105 . S
O38 C30 1.268 . S
O39 Sc23 2.105 . S
O39 C29 1.268 . S
O40 Sc24 2.105 . S
O40 C31 1.268 . S
O41 Sc22 2.105 . S
O41 C27 1.268 . S
O42 Sc24 2.105 . S
O42 C26 1.268 . S
O43 Sc23 2.105 . S
O43 C28 1.268 . S
Sc44 O47 2.025 . S
Sc44 O54 2.105 . S
Sc44 O57 2.105 . S
Sc44 O60 2.105 . S
Sc44 O63 2.105 . S
Sc45 O47 2.025 . S
Sc45 O55 2.105 . S
Sc45 O59 2.105 . S
Sc45 O61 2.105 . S
Sc45 O65 2.105 . S
Sc46 O47 2.025 . S
Sc46 O56 2.105 . S
Sc46 O58 2.105 . S
Sc46 O62 2.105 . S
Sc46 O64 2.105 . S
O47 Sc44 2.025 . S
O47 Sc45 2.025 . S
O47 Sc46 2.025 . S
C48 O54 1.268 . S
C48 O64 1.268 . S
C49 O55 1.268 . S
C49 O63 1.268 . S
C50 O56 1.268 . S
C50 O65 1.268 . S
C51 O57 1.268 . S
C51 O61 1.268 . S
C52 O58 1.268 . S
C52 O60 1.268 . S
C53 O59 1.268 . S
C53 O62 1.268 . S
O54 Sc44 2.105 . S
O54 C48 1.268 . S
O55 Sc45 2.105 . S
O55 C49 1.268 . S
O56 Sc46 2.105 . S
O56 C50 1.268 . S
O57 Sc44 2.105 . S
O57 C51 1.268 . S
O58 Sc46 2.105 . S
O58 C52 1.268 . S
O59 Sc45 2.105 . S
O59 C53 1.268 . S
O60 Sc44 2.105 . S
O60 C52 1.268 . S
O61 Sc45 2.105 . S
O61 C51 1.268 . S
O62 Sc46 2.105 . S
O62 C53 1.268 . S
O63 Sc44 2.105 . S
O63 C49 1.268 . S
O64 Sc46 2.105 . S
O64 C48 1.268 . S
O65 Sc45 2.105 . S
O65 C50 1.268 . S
Sc66 O69 2.025 . S
Sc66 O76 2.105 1_554 S
Sc66 O79 2.105 . S
Sc66 O82 2.105 . S
Sc66 O85 2.105 . S
Sc67 O69 2.025 . S
Sc67 O77 2.105 . S
Sc67 O81 2.105 . S
Sc67 O83 2.105 . S
Sc67 O87 2.105 . S
Sc68 O69 2.025 . S
Sc68 O78 2.105 . S
Sc68 O80 2.105 . S
Sc68 O84 2.105 . S
Sc68 O86 2.105 1_554 S
O69 Sc66 2.025 . S
O69 Sc67 2.025 . S
O69 Sc68 2.025 . S
C70 O76 1.268 . S
C70 O86 1.268 . S
C71 O77 1.268 . S
C71 O85 1.268 . S
C72 O78 1.268 . S
C72 O87 1.268 . S
C73 O79 1.268 . S
C73 O83 1.268 . S
C74 O80 1.268 . S
C74 O82 1.268 . S
C75 O81 1.268 . S
C75 O84 1.268 . S
O76 Sc66 2.105 1_556 S
O76 C70 1.268 . S
O77 Sc67 2.105 . S
O77 C71 1.268 . S
O78 Sc68 2.105 . S
O78 C72 1.268 . S
O79 Sc66 2.105 . S
O79 C73 1.268 . S
O80 Sc68 2.105 . S
O80 C74 1.268 . S
O81 Sc67 2.105 . S
O81 C75 1.268 . S
O82 Sc66 2.105 . S
O82 C74 1.268 . S
O83 Sc67 2.105 . S
O83 C73 1.268 . S
O84 Sc68 2.105 . S
O84 C75 1.268 . S
O85 Sc66 2.105 . S
O85 C71 1.268 . S
O86 Sc68 2.105 1_556 S
O86 C70 1.268 . S
O87 Sc67 2.105 . S
O87 C72 1.268 . S
Sc88 O91 2.025 . S
Sc88 O98 2.105 . S
Sc88 O101 2.105 . S
Sc88 O104 2.105 . S
Sc88 O107 2.105 . S
Sc89 O91 2.025 . S
Sc89 O99 2.105 . S
Sc89 O103 2.105 . S
Sc89 O105 2.105 . S
Sc89 O109 2.105 . S
Sc90 O91 2.025 . S
Sc90 O100 2.105 . S
Sc90 O102 2.105 . S
Sc90 O106 2.105 . S
Sc90 O108 2.105 . S
O91 Sc88 2.025 . S
O91 Sc89 2.025 . S
O91 Sc90 2.025 . S
C92 O98 1.268 . S
C92 O108 1.268 . S
C93 O99 1.268 . S
C93 O107 1.268 . S
C94 O100 1.268 . S
C94 O109 1.268 . S
C95 O101 1.268 . S
C95 O105 1.268 . S
C96 O102 1.268 . S
C96 O104 1.268 . S
C97 O103 1.268 . S
C97 O106 1.268 . S
O98 Sc88 2.105 . S
O98 C92 1.268 . S
O99 Sc89 2.105 . S
O99 C93 1.268 . S
O100 Sc90 2.105 . S
O100 C94 1.268 . S
O101 Sc88 2.105 . S
O101 C95 1.268 . S
O102 Sc90 2.105 . S
O102 C96 1.268 . S
O103 Sc89 2.105 . S
O103 C97 1.268 . S
O104 Sc88 2.105 . S
O104 C96 1.268 . S
O105 Sc89 2.105 . S
O105 C95 1.268 . S
O106 Sc90 2.105 . S
O106 C97 1.268 . S
O107 Sc88 2.105 . S
O107 C93 1.268 . S
O108 Sc90 2.105 . S
O108 C92 1.268 . S
O109 Sc89 2.105 . S
O109 C94 1.268 . S
Sc110 O113 2.025 . S
Sc110 O120 2.105 . S
Sc110 O123 2.105 . S
Sc110 O126 2.105 . S
Sc110 O129 2.105 . S
Sc111 O113 2.025 . S
Sc111 O121 2.105 . S
Sc111 O125 2.105 . S
Sc111 O127 2.105 . S
Sc111 O131 2.105 . S
Sc112 O113 2.025 . S
Sc112 O122 2.105 . S
Sc112 O124 2.105 . S
Sc112 O128 2.105 . S
Sc112 O130 2.105 . S
O113 Sc110 2.025 . S
O113 Sc111 2.025 . S
O113 Sc112 2.025 . S
C114 O120 1.268 . S
C114 O130 1.268 . S
C115 O121 1.268 . S
C115 O129 1.268 . S
C116 O122 1.268 . S
C116 O131 1.268 . S
C117 O123 1.268 . S
C117 O127 1.268 . S
C118 O124 1.268 . S
C118 O126 1.268 . S
C119 O125 1.268 . S
C119 O128 1.268 . S
O120 Sc110 2.105 . S
O120 C114 1.268 . S
O121 Sc111 2.105 . S
O121 C115 1.268 . S
O122 Sc112 2.105 . S
O122 C116 1.268 . S
O123 Sc110 2.105 . S
O123 C117 1.268 . S
O124 Sc112 2.105 . S
O124 C118 1.268 . S
O125 Sc111 2.105 . S
O125 C119 1.268 . S
O126 Sc110 2.105 . S
O126 C118 1.268 . S
O127 Sc111 2.105 . S
O127 C117 1.268 . S
O128 Sc112 2.105 . S
O128 C119 1.268 . S
O129 Sc110 2.105 . S
O129 C115 1.268 . S
O130 Sc112 2.105 . S
O130 C114 1.268 . S
O131 Sc111 2.105 . S
O131 C116 1.268 . S
Sc132 O135 2.025 . S
Sc132 O142 2.105 . S
Sc132 O145 2.105 . S
Sc132 O148 2.105 . S
Sc132 O151 2.105 . S
Sc133 O135 2.025 . S
Sc133 O143 2.105 . S
Sc133 O147 2.105 . S
Sc133 O149 2.105 . S
Sc133 O153 2.105 . S
Sc134 O135 2.025 . S
Sc134 O144 2.105 . S
Sc134 O146 2.105 . S
Sc134 O150 2.105 . S
Sc134 O152 2.105 . S
O135 Sc132 2.025 . S
O135 Sc133 2.025 . S
O135 Sc134 2.025 . S
C136 O142 1.268 . S
C136 O152 1.268 . S
C137 O143 1.268 . S
C137 O151 1.268 . S
C138 O144 1.268 . S
C138 O153 1.268 . S
C139 O145 1.268 . S
C139 O149 1.268 . S
C140 O146 1.268 . S
C140 O148 1.268 . S
C141 O147 1.268 . S
C141 O150 1.268 . S
O142 Sc132 2.105 . S
O142 C136 1.268 . S
O143 Sc133 2.105 . S
O143 C137 1.268 . S
O144 Sc134 2.105 . S
O144 C138 1.268 . S
O145 Sc132 2.105 . S
O145 C139 1.268 . S
O146 Sc134 2.105 . S
O146 C140 1.268 . S
O147 Sc133 2.105 . S
O147 C141 1.268 . S
O148 Sc132 2.105 . S
O148 C140 1.268 . S
O149 Sc133 2.105 . S
O149 C139 1.268 . S
O150 Sc134 2.105 . S
O150 C141 1.268 . S
O151 Sc132 2.105 . S
O151 C137 1.268 . S
O152 Sc134 2.105 . S
O152 C136 1.268 . S
O153 Sc133 2.105 . S
O153 C138 1.268 . S
Sc154 O157 2.025 . S
Sc154 O164 2.105 . S
Sc154 O167 2.105 . S
Sc154 O170 2.105 1_556 S
Sc154 O173 2.105 . S
Sc155 O157 2.025 . S
Sc155 O165 2.105 . S
Sc155 O169 2.105 . S
Sc155 O171 2.105 . S
Sc155 O175 2.105 . S
Sc156 O157 2.025 . S
Sc156 O166 2.105 . S
Sc156 O168 2.105 1_556 S
Sc156 O172 2.105 . S
Sc156 O174 2.105 . S
O157 Sc154 2.025 . S
O157 Sc155 2.025 . S
O157 Sc156 2.025 . S
C158 O164 1.268 . S
C158 O174 1.268 . S
C159 O165 1.268 . S
C159 O173 1.268 . S
C160 O166 1.268 . S
C160 O175 1.268 . S
C161 O167 1.268 . S
C161 O171 1.268 . S
C162 O168 1.268 . S
C162 O170 1.268 . S
C163 O169 1.268 . S
C163 O172 1.268 . S
O164 Sc154 2.105 . S
O164 C158 1.268 . S
O165 Sc155 2.105 . S
O165 C159 1.268 . S
O166 Sc156 2.105 . S
O166 C160 1.268 . S
O167 Sc154 2.105 . S
O167 C161 1.268 . S
O168 Sc156 2.105 1_554 S
O168 C162 1.268 . S
O169 Sc155 2.105 . S
O169 C163 1.268 . S
O170 Sc154 2.105 1_554 S
O170 C162 1.268 . S
O171 Sc155 2.105 . S
O171 C161 1.268 . S
O172 Sc156 2.105 . S
O172 C163 1.268 . S
O173 Sc154 2.105 . S
O173 C159 1.268 . S
O174 Sc156 2.105 . S
O174 C158 1.268 . S
O175 Sc155 2.105 . S
O175 C160 1.268 . S
Sc176 O179 2.025 . S
Sc176 O186 2.105 . S
Sc176 O189 2.105 . S
Sc176 O192 2.105 . S
Sc176 O195 2.105 . S
Sc177 O179 2.025 . S
Sc177 O187 2.105 . S
Sc177 O191 2.105 . S
Sc177 O193 2.105 . S
Sc177 O197 2.105 . S
Sc178 O179 2.025 . S
Sc178 O188 2.105 . S
Sc178 O190 2.105 . S
Sc178 O194 2.105 . S
Sc178 O196 2.105 . S
O179 Sc176 2.025 . S
O179 Sc177 2.025 . S
O179 Sc178 2.025 . S
C180 O186 1.268 . S
C180 O196 1.268 . S
C181 O187 1.268 . S
C181 O195 1.268 . S
C182 O188 1.268 . S
C182 O197 1.268 . S
C183 O189 1.268 . S
C183 O193 1.268 . S
C184 O190 1.268 . S
C184 O192 1.268 . S
C185 O191 1.268 . S
C185 O194 1.268 . S
O186 Sc176 2.105 . S
O186 C180 1.268 . S
O187 Sc177 2.105 . S
O187 C181 1.268 . S
O188 Sc178 2.105 . S
O188 C182 1.268 . S
O189 Sc176 2.105 . S
O189 C183 1.268 . S
O190 Sc178 2.105 . S
O190 C184 1.268 . S
O191 Sc177 2.105 . S
O191 C185 1.268 . S
O192 Sc176 2.105 . S
O192 C184 1.268 . S
O193 Sc177 2.105 . S
O193 C183 1.268 . S
O194 Sc178 2.105 . S
O194 C185 1.268 . S
O195 Sc176 2.105 . S
O195 C181 1.268 . S
O196 Sc178 2.105 . S
O196 C180 1.268 . S
O197 Sc177 2.105 . S
O197 C182 1.268 . S
Sc198 O201 2.025 . S
Sc198 O208 2.105 . S
Sc198 O211 2.105 . S
Sc198 O214 2.105 . S
Sc198 O217 2.105 . S
Sc199 O201 2.025 . S
Sc199 O209 2.105 . S
Sc199 O213 2.105 . S
Sc199 O215 2.105 . S
Sc199 O219 2.105 . S
Sc200 O201 2.025 . S
Sc200 O210 2.105 . S
Sc200 O212 2.105 . S
Sc200 O216 2.105 . S
Sc200 O218 2.105 . S
O201 Sc198 2.025 . S
O201 Sc199 2.025 . S
O201 Sc200 2.025 . S
C202 O208 1.268 . S
C202 O218 1.268 . S
C203 O209 1.268 . S
C203 O217 1.268 . S
C204 O210 1.268 . S
C204 O219 1.268 . S
C205 O211 1.268 . S
C205 O215 1.268 . S
C206 O212 1.268 . S
C206 O214 1.268 . S
C207 O213 1.268 . S
C207 O216 1.268 . S
O208 Sc198 2.105 . S
O208 C202 1.268 . S
O209 Sc199 2.105 . S
O209 C203 1.268 . S
O210 Sc200 2.105 . S
O210 C204 1.268 . S
O211 Sc198 2.105 . S
O211 C205 1.268 . S
O212 Sc200 2.105 . S
O212 C206 1.268 . S
O213 Sc199 2.105 . S
O213 C207 1.268 . S
O214 Sc198 2.105 . S
O214 C206 1.268 . S
O215 Sc199 2.105 . S
O215 C205 1.268 . S
O216 Sc200 2.105 . S
O216 C207 1.268 . S
O217 Sc198 2.105 . S
O217 C203 1.268 . S
O218 Sc200 2.105 . S
O218 C202 1.268 . S
O219 Sc199 2.105 . S
O219 C204 1.268 . S
Sc220 O223 2.025 . S
Sc220 O230 2.105 . S
Sc220 O233 2.105 . S
Sc220 O236 2.105 . S
Sc220 O239 2.105 . S
Sc221 O223 2.025 . S
Sc221 O231 2.105 . S
Sc221 O235 2.105 . S
Sc221 O237 2.105 . S
Sc221 O241 2.105 . S
Sc222 O223 2.025 . S
Sc222 O232 2.105 . S
Sc222 O234 2.105 . S
Sc222 O238 2.105 . S
Sc222 O240 2.105 . S
O223 Sc220 2.025 . S
O223 Sc221 2.025 . S
O223 Sc222 2.025 . S
C224 O230 1.268 . S
C224 O240 1.268 . S
C225 O231 1.268 . S
C225 O239 1.268 . S
C226 O232 1.268 . S
C226 O241 1.268 . S
C227 O233 1.268 . S
C227 O237 1.268 . S
C228 O234 1.268 . S
C228 O236 1.268 . S
C229 O235 1.268 . S
C229 O238 1.268 . S
O230 Sc220 2.105 . S
O230 C224 1.268 . S
O231 Sc221 2.105 . S
O231 C225 1.268 . S
O232 Sc222 2.105 . S
O232 C226 1.268 . S
O233 Sc220 2.105 . S
O233 C227 1.268 . S
O234 Sc222 2.105 . S
O234 C228 1.268 . S
O235 Sc221 2.105 . S
O235 C229 1.268 . S
O236 Sc220 2.105 . S
O236 C228 1.268 . S
O237 Sc221 2.105 . S
O237 C227 1.268 . S
O238 Sc222 2.105 . S
O238 C229 1.268 . S
O239 Sc220 2.105 . S
O239 C225 1.268 . S
O240 Sc222 2.105 . S
O240 C224 1.268 . S
O241 Sc221 2.105 . S
O241 C226 1.268 . S
Sc242 O245 2.025 . S
Sc242 O252 2.105 . S
Sc242 O255 2.105 . S
Sc242 O258 2.105 1_556 S
Sc242 O261 2.105 . S
Sc243 O245 2.025 . S
Sc243 O253 2.105 . S
Sc243 O257 2.105 . S
Sc243 O259 2.105 . S
Sc243 O263 2.105 . S
Sc244 O245 2.025 . S
Sc244 O254 2.105 . S
Sc244 O256 2.105 1_556 S
Sc244 O260 2.105 . S
Sc244 O262 2.105 . S
O245 Sc242 2.025 . S
O245 Sc243 2.025 . S
O245 Sc244 2.025 . S
C246 O252 1.268 . S
C246 O262 1.268 . S
C247 O253 1.268 . S
C247 O261 1.268 . S
C248 O254 1.268 . S
C248 O263 1.268 . S
C249 O255 1.268 . S
C249 O259 1.268 . S
C250 O256 1.268 . S
C250 O258 1.268 . S
C251 O257 1.268 . S
C251 O260 1.268 . S
O252 Sc242 2.105 . S
O252 C246 1.268 . S
O253 Sc243 2.105 . S
O253 C247 1.268 . S
O254 Sc244 2.105 . S
O254 C248 1.268 . S
O255 Sc242 2.105 . S
O255 C249 1.268 . S
O256 Sc244 2.105 1_554 S
O256 C250 1.268 . S
O257 Sc243 2.105 . S
O257 C251 1.268 . S
O258 Sc242 2.105 1_554 S
O258 C250 1.268 . S
O259 Sc243 2.105 . S
O259 C249 1.268 . S
O260 Sc244 2.105 . S
O260 C251 1.268 . S
O261 Sc242 2.105 . S
O261 C247 1.268 . S
O262 Sc244 2.105 . S
O262 C246 1.268 . S
O263 Sc243 2.105 . S
O263 C248 1.268 . S
Sc264 O267 2.025 . S
Sc264 O274 2.105 . S
Sc264 O277 2.105 . S
Sc264 O280 2.105 . S
Sc264 O283 2.105 . S
Sc265 O267 2.025 . S
Sc265 O275 2.105 . S
Sc265 O279 2.105 . S
Sc265 O281 2.105 . S
Sc265 O285 2.105 . S
Sc266 O267 2.025 . S
Sc266 O276 2.105 . S
Sc266 O278 2.105 . S
Sc266 O282 2.105 . S
Sc266 O284 2.105 . S
O267 Sc264 2.025 . S
O267 Sc265 2.025 . S
O267 Sc266 2.025 . S
C268 O274 1.268 . S
C268 O284 1.268 . S
C269 O275 1.268 . S
C269 O283 1.268 . S
C270 O276 1.268 . S
C270 O285 1.268 . S
C271 O277 1.268 . S
C271 O281 1.268 . S
C272 O278 1.268 . S
C272 O280 1.268 . S
C273 O279 1.268 . S
C273 O282 1.268 . S
O274 Sc264 2.105 . S
O274 C268 1.268 . S
O275 Sc265 2.105 . S
O275 C269 1.268 . S
O276 Sc266 2.105 . S
O276 C270 1.268 . S
O277 Sc264 2.105 . S
O277 C271 1.268 . S
O278 Sc266 2.105 . S
O278 C272 1.268 . S
O279 Sc265 2.105 . S
O279 C273 1.268 . S
O280 Sc264 2.105 . S
O280 C272 1.268 . S
O281 Sc265 2.105 . S
O281 C271 1.268 . S
O282 Sc266 2.105 . S
O282 C273 1.268 . S
O283 Sc264 2.105 . S
O283 C269 1.268 . S
O284 Sc266 2.105 . S
O284 C268 1.268 . S
O285 Sc265 2.105 . S
O285 C270 1.268 . S
Sc286 O289 2.025 . S
Sc286 O296 2.105 . S
Sc286 O299 2.105 . S
Sc286 O302 2.105 . S
Sc286 O305 2.105 . S
Sc287 O289 2.025 . S
Sc287 O297 2.105 . S
Sc287 O301 2.105 . S
Sc287 O303 2.105 . S
Sc287 O307 2.105 . S
Sc288 O289 2.025 . S
Sc288 O298 2.105 . S
Sc288 O300 2.105 . S
Sc288 O304 2.105 . S
Sc288 O306 2.105 . S
O289 Sc286 2.025 . S
O289 Sc287 2.025 . S
O289 Sc288 2.025 . S
C290 O296 1.268 . S
C290 O306 1.268 . S
C291 O297 1.268 . S
C291 O305 1.268 . S
C292 O298 1.268 . S
C292 O307 1.268 . S
C293 O299 1.268 . S
C293 O303 1.268 . S
C294 O300 1.268 . S
C294 O302 1.268 . S
C295 O301 1.268 . S
C295 O304 1.268 . S
O296 Sc286 2.105 . S
O296 C290 1.268 . S
O297 Sc287 2.105 . S
O297 C291 1.268 . S
O298 Sc288 2.105 . S
O298 C292 1.268 . S
O299 Sc286 2.105 . S
O299 C293 1.268 . S
O300 Sc288 2.105 . S
O300 C294 1.268 . S
O301 Sc287 2.105 . S
O301 C295 1.268 . S
O302 Sc286 2.105 . S
O302 C294 1.268 . S
O303 Sc287 2.105 . S
O303 C293 1.268 . S
O304 Sc288 2.105 . S
O304 C295 1.268 . S
O305 Sc286 2.105 . S
O305 C291 1.268 . S
O306 Sc288 2.105 . S
O306 C290 1.268 . S
O307 Sc287 2.105 . S
O307 C292 1.268 . S
Sc308 O311 2.025 . S
Sc308 O318 2.105 . S
Sc308 O321 2.105 . S
Sc308 O324 2.105 . S
Sc308 O327 2.105 . S
Sc309 O311 2.025 . S
Sc309 O319 2.105 . S
Sc309 O323 2.105 . S
Sc309 O325 2.105 . S
Sc309 O329 2.105 . S
Sc310 O311 2.025 . S
Sc310 O320 2.105 . S
Sc310 O322 2.105 . S
Sc310 O326 2.105 . S
Sc310 O328 2.105 . S
O311 Sc308 2.025 . S
O311 Sc309 2.025 . S
O311 Sc310 2.025 . S
C312 O318 1.268 . S
C312 O328 1.268 . S
C313 O319 1.268 . S
C313 O327 1.268 . S
C314 O320 1.268 . S
C314 O329 1.268 . S
C315 O321 1.268 . S
C315 O325 1.268 . S
C316 O322 1.268 . S
C316 O324 1.268 . S
C317 O323 1.268 . S
C317 O326 1.268 . S
O318 Sc308 2.105 . S
O318 C312 1.268 . S
O319 Sc309 2.105 . S
O319 C313 1.268 . S
O320 Sc310 2.105 . S
O320 C314 1.268 . S
O321 Sc308 2.105 . S
O321 C315 1.268 . S
O322 Sc310 2.105 . S
O322 C316 1.268 . S
O323 Sc309 2.105 . S
O323 C317 1.268 . S
O324 Sc308 2.105 . S
O324 C316 1.268 . S
O325 Sc309 2.105 . S
O325 C315 1.268 . S
O326 Sc310 2.105 . S
O326 C317 1.268 . S
O327 Sc308 2.105 . S
O327 C313 1.268 . S
O328 Sc310 2.105 . S
O328 C312 1.268 . S
O329 Sc309 2.105 . S
O329 C314 1.268 . S
Sc330 O333 2.025 . S
Sc330 O340 2.105 1_554 S
Sc330 O343 2.105 . S
Sc330 O346 2.105 . S
Sc330 O349 2.105 . S
Sc331 O333 2.025 . S
Sc331 O341 2.105 . S
Sc331 O345 2.105 . S
Sc331 O347 2.105 . S
Sc331 O351 2.105 . S
Sc332 O333 2.025 . S
Sc332 O342 2.105 . S
Sc332 O344 2.105 . S
Sc332 O348 2.105 . S
Sc332 O350 2.105 1_554 S
O333 Sc330 2.025 . S
O333 Sc331 2.025 . S
O333 Sc332 2.025 . S
C334 O340 1.268 . S
C334 O350 1.268 . S
C335 O341 1.268 . S
C335 O349 1.268 . S
C336 O342 1.268 . S
C336 O351 1.268 . S
C337 O343 1.268 . S
C337 O347 1.268 . S
C338 O344 1.268 . S
C338 O346 1.268 . S
C339 O345 1.268 . S
C339 O348 1.268 . S
O340 Sc330 2.105 1_556 S
O340 C334 1.268 . S
O341 Sc331 2.105 . S
O341 C335 1.268 . S
O342 Sc332 2.105 . S
O342 C336 1.268 . S
O343 Sc330 2.105 . S
O343 C337 1.268 . S
O344 Sc332 2.105 . S
O344 C338 1.268 . S
O345 Sc331 2.105 . S
O345 C339 1.268 . S
O346 Sc330 2.105 . S
O346 C338 1.268 . S
O347 Sc331 2.105 . S
O347 C337 1.268 . S
O348 Sc332 2.105 . S
O348 C339 1.268 . S
O349 Sc330 2.105 . S
O349 C335 1.268 . S
O350 Sc332 2.105 1_556 S
O350 C334 1.268 . S
O351 Sc331 2.105 . S
O351 C336 1.268 . S
Sc352 O355 2.025 . S
Sc352 O362 2.105 . S
Sc352 O365 2.105 . S
Sc352 O368 2.105 . S
Sc352 O371 2.105 . S
Sc353 O355 2.025 . S
Sc353 O363 2.105 . S
Sc353 O367 2.105 . S
Sc353 O369 2.105 . S
Sc353 O373 2.105 . S
Sc354 O355 2.025 . S
Sc354 O364 2.105 . S
Sc354 O366 2.105 . S
Sc354 O370 2.105 . S
Sc354 O372 2.105 . S
O355 Sc352 2.025 . S
O355 Sc353 2.025 . S
O355 Sc354 2.025 . S
C356 O362 1.268 . S
C356 O372 1.268 . S
C357 O363 1.268 . S
C357 O371 1.268 . S
C358 O364 1.268 . S
C358 O373 1.268 . S
C359 O365 1.268 . S
C359 O369 1.268 . S
C360 O366 1.268 . S
C360 O368 1.268 . S
C361 O367 1.268 . S
C361 O370 1.268 . S
O362 Sc352 2.105 . S
O362 C356 1.268 . S
O363 Sc353 2.105 . S
O363 C357 1.268 . S
O364 Sc354 2.105 . S
O364 C358 1.268 . S
O365 Sc352 2.105 . S
O365 C359 1.268 . S
O366 Sc354 2.105 . S
O366 C360 1.268 . S
O367 Sc353 2.105 . S
O367 C361 1.268 . S
O368 Sc352 2.105 . S
O368 C360 1.268 . S
O369 Sc353 2.105 . S
O369 C359 1.268 . S
O370 Sc354 2.105 . S
O370 C361 1.268 . S
O371 Sc352 2.105 . S
O371 C357 1.268 . S
O372 Sc354 2.105 . S
O372 C356 1.268 . S
O373 Sc353 2.105 . S
O373 C358 1.268 . S
Sc374 O377 2.025 . S
Sc374 O384 2.105 1_554 S
Sc374 O387 2.105 . S
Sc374 O390 2.105 . S
Sc374 O393 2.105 . S
Sc375 O377 2.025 . S
Sc375 O385 2.105 . S
Sc375 O389 2.105 . S
Sc375 O391 2.105 . S
Sc375 O395 2.105 . S
Sc376 O377 2.025 . S
Sc376 O386 2.105 . S
Sc376 O388 2.105 . S
Sc376 O392 2.105 . S
Sc376 O394 2.105 1_554 S
O377 Sc374 2.025 . S
O377 Sc375 2.025 . S
O377 Sc376 2.025 . S
C378 O384 1.268 . S
C378 O394 1.268 . S
C379 O385 1.268 . S
C379 O393 1.268 . S
C380 O386 1.268 . S
C380 O395 1.268 . S
C381 O387 1.268 . S
C381 O391 1.268 . S
C382 O388 1.268 . S
C382 O390 1.268 . S
C383 O389 1.268 . S
C383 O392 1.268 . S
O384 Sc374 2.105 1_556 S
O384 C378 1.268 . S
O385 Sc375 2.105 . S
O385 C379 1.268 . S
O386 Sc376 2.105 . S
O386 C380 1.268 . S
O387 Sc374 2.105 . S
O387 C381 1.268 . S
O388 Sc376 2.105 . S
O388 C382 1.268 . S
O389 Sc375 2.105 . S
O389 C383 1.268 . S
O390 Sc374 2.105 . S
O390 C382 1.268 . S
O391 Sc375 2.105 . S
O391 C381 1.268 . S
O392 Sc376 2.105 . S
O392 C383 1.268 . S
O393 Sc374 2.105 . S
O393 C379 1.268 . S
O394 Sc376 2.105 1_556 S
O394 C378 1.268 . S
O395 Sc375 2.105 . S
O395 C380 1.268 . S
Sc396 O399 2.025 . S
Sc396 O406 2.105 . S
Sc396 O409 2.105 . S
Sc396 O412 2.105 . S
Sc396 O415 2.105 . S
Sc397 O399 2.025 . S
Sc397 O407 2.105 . S
Sc397 O411 2.105 . S
Sc397 O413 2.105 . S
Sc397 O417 2.105 . S
Sc398 O399 2.025 . S
Sc398 O408 2.105 . S
Sc398 O410 2.105 . S
Sc398 O414 2.105 . S
Sc398 O416 2.105 . S
O399 Sc396 2.025 . S
O399 Sc397 2.025 . S
O399 Sc398 2.025 . S
C400 O406 1.268 . S
C400 O416 1.268 . S
C401 O407 1.268 . S
C401 O415 1.268 . S
C402 O408 1.268 . S
C402 O417 1.268 . S
C403 O409 1.268 . S
C403 O413 1.268 . S
C404 O410 1.268 . S
C404 O412 1.268 . S
C405 O411 1.268 . S
C405 O414 1.268 . S
O406 Sc396 2.105 . S
O406 C400 1.268 . S
O407 Sc397 2.105 . S
O407 C401 1.268 . S
O408 Sc398 2.105 . S
O408 C402 1.268 . S
O409 Sc396 2.105 . S
O409 C403 1.268 . S
O410 Sc398 2.105 . S
O410 C404 1.268 . S
O411 Sc397 2.105 . S
O411 C405 1.268 . S
O412 Sc396 2.105 . S
O412 C404 1.268 . S
O413 Sc397 2.105 . S
O413 C403 1.268 . S
O414 Sc398 2.105 . S
O414 C405 1.268 . S
O415 Sc396 2.105 . S
O415 C401 1.268 . S
O416 Sc398 2.105 . S
O416 C400 1.268 . S
O417 Sc397 2.105 . S
O417 C402 1.268 . S
Sc418 O421 2.025 . S
Sc418 O428 2.105 . S
Sc418 O431 2.105 . S
Sc418 O434 2.105 . S
Sc418 O437 2.105 . S
Sc419 O421 2.025 . S
Sc419 O429 2.105 . S
Sc419 O433 2.105 . S
Sc419 O435 2.105 . S
Sc419 O439 2.105 . S
Sc420 O421 2.025 . S
Sc420 O430 2.105 . S
Sc420 O432 2.105 . S
Sc420 O436 2.105 . S
Sc420 O438 2.105 . S
O421 Sc418 2.025 . S
O421 Sc419 2.025 . S
O421 Sc420 2.025 . S
C422 O428 1.268 . S
C422 O438 1.268 . S
C423 O429 1.268 . S
C423 O437 1.268 . S
C424 O430 1.268 . S
C424 O439 1.268 . S
C425 O431 1.268 . S
C425 O435 1.268 . S
C426 O432 1.268 . S
C426 O434 1.268 . S
C427 O433 1.268 . S
C427 O436 1.268 . S
O428 Sc418 2.105 . S
O428 C422 1.268 . S
O429 Sc419 2.105 . S
O429 C423 1.268 . S
O430 Sc420 2.105 . S
O430 C424 1.268 . S
O431 Sc418 2.105 . S
O431 C425 1.268 . S
O432 Sc420 2.105 . S
O432 C426 1.268 . S
O433 Sc419 2.105 . S
O433 C427 1.268 . S
O434 Sc418 2.105 . S
O434 C426 1.268 . S
O435 Sc419 2.105 . S
O435 C425 1.268 . S
O436 Sc420 2.105 . S
O436 C427 1.268 . S
O437 Sc418 2.105 . S
O437 C423 1.268 . S
O438 Sc420 2.105 . S
O438 C422 1.268 . S
O439 Sc419 2.105 . S
O439 C424 1.268 . S
Sc440 O443 2.025 . S
Sc440 O450 2.105 . S
Sc440 O453 2.105 . S
Sc440 O456 2.105 . S
Sc440 O459 2.105 . S
Sc441 O443 2.025 . S
Sc441 O451 2.105 . S
Sc441 O455 2.105 . S
Sc441 O457 2.105 . S
Sc441 O461 2.105 . S
Sc442 O443 2.025 . S
Sc442 O452 2.105 . S
Sc442 O454 2.105 . S
Sc442 O458 2.105 . S
Sc442 O460 2.105 . S
O443 Sc440 2.025 . S
O443 Sc441 2.025 . S
O443 Sc442 2.025 . S
C444 O450 1.268 . S
C444 O460 1.268 . S
C445 O451 1.268 . S
C445 O459 1.268 . S
C446 O452 1.268 . S
C446 O461 1.268 . S
C447 O453 1.268 . S
C447 O457 1.268 . S
C448 O454 1.268 . S
C448 O456 1.268 . S
C449 O455 1.268 . S
C449 O458 1.268 . S
O450 Sc440 2.105 . S
O450 C444 1.268 . S
O451 Sc441 2.105 . S
O451 C445 1.268 . S
O452 Sc442 2.105 . S
O452 C446 1.268 . S
O453 Sc440 2.105 . S
O453 C447 1.268 . S
O454 Sc442 2.105 . S
O454 C448 1.268 . S
O455 Sc441 2.105 . S
O455 C449 1.268 . S
O456 Sc440 2.105 . S
O456 C448 1.268 . S
O457 Sc441 2.105 . S
O457 C447 1.268 . S
O458 Sc442 2.105 . S
O458 C449 1.268 . S
O459 Sc440 2.105 . S
O459 C445 1.268 . S
O460 Sc442 2.105 . S
O460 C444 1.268 . S
O461 Sc441 2.105 . S
O461 C446 1.268 . S
Sc462 O465 2.025 . S
Sc462 O472 2.105 . S
Sc462 O475 2.105 . S
Sc462 O478 2.105 1_556 S
Sc462 O481 2.105 . S
Sc463 O465 2.025 . S
Sc463 O473 2.105 . S
Sc463 O477 2.105 . S
Sc463 O479 2.105 . S
Sc463 O483 2.105 . S
Sc464 O465 2.025 . S
Sc464 O474 2.105 . S
Sc464 O476 2.105 1_556 S
Sc464 O480 2.105 . S
Sc464 O482 2.105 . S
O465 Sc462 2.025 . S
O465 Sc463 2.025 . S
O465 Sc464 2.025 . S
C466 O472 1.268 . S
C466 O482 1.268 . S
C467 O473 1.268 . S
C467 O481 1.268 . S
C468 O474 1.268 . S
C468 O483 1.268 . S
C469 O475 1.268 . S
C469 O479 1.268 . S
C470 O476 1.268 . S
C470 O478 1.268 . S
C471 O477 1.268 . S
C471 O480 1.268 . S
O472 Sc462 2.105 . S
O472 C466 1.268 . S
O473 Sc463 2.105 . S
O473 C467 1.268 . S
O474 Sc464 2.105 . S
O474 C468 1.268 . S
O475 Sc462 2.105 . S
O475 C469 1.268 . S
O476 Sc464 2.105 1_554 S
O476 C470 1.268 . S
O477 Sc463 2.105 . S
O477 C471 1.268 . S
O478 Sc462 2.105 1_554 S
O478 C470 1.268 . S
O479 Sc463 2.105 . S
O479 C469 1.268 . S
O480 Sc464 2.105 . S
O480 C471 1.268 . S
O481 Sc462 2.105 . S
O481 C467 1.268 . S
O482 Sc464 2.105 . S
O482 C466 1.268 . S
O483 Sc463 2.105 . S
O483 C468 1.268 . S
Sc484 O487 2.025 . S
Sc484 O494 2.105 . S
Sc484 O497 2.105 . S
Sc484 O500 2.105 . S
Sc484 O503 2.105 . S
Sc485 O487 2.025 . S
Sc485 O495 2.105 . S
Sc485 O499 2.105 . S
Sc485 O501 2.105 . S
Sc485 O505 2.105 . S
Sc486 O487 2.025 . S
Sc486 O496 2.105 . S
Sc486 O498 2.105 . S
Sc486 O502 2.105 . S
Sc486 O504 2.105 . S
O487 Sc484 2.025 . S
O487 Sc485 2.025 . S
O487 Sc486 2.025 . S
C488 O494 1.268 . S
C488 O504 1.268 . S
C489 O495 1.268 . S
C489 O503 1.268 . S
C490 O496 1.268 . S
C490 O505 1.268 . S
C491 O497 1.268 . S
C491 O501 1.268 . S
C492 O498 1.268 . S
C492 O500 1.268 . S
C493 O499 1.268 . S
C493 O502 1.268 . S
O494 Sc484 2.105 . S
O494 C488 1.268 . S
O495 Sc485 2.105 . S
O495 C489 1.268 . S
O496 Sc486 2.105 . S
O496 C490 1.268 . S
O497 Sc484 2.105 . S
O497 C491 1.268 . S
O498 Sc486 2.105 . S
O498 C492 1.268 . S
O499 Sc485 2.105 . S
O499 C493 1.268 . S
O500 Sc484 2.105 . S
O500 C492 1.268 . S
O501 Sc485 2.105 . S
O501 C491 1.268 . S
O502 Sc486 2.105 . S
O502 C493 1.268 . S
O503 Sc484 2.105 . S
O503 C489 1.268 . S
O504 Sc486 2.105 . S
O504 C488 1.268 . S
O505 Sc485 2.105 . S
O505 C490 1.268 . S
Sc506 O509 2.025 . S
Sc506 O516 2.105 . S
Sc506 O519 2.105 . S
Sc506 O522 2.105 . S
Sc506 O525 2.105 . S
Sc507 O509 2.025 . S
Sc507 O517 2.105 . S
Sc507 O521 2.105 . S
Sc507 O523 2.105 . S
Sc507 O527 2.105 . S
Sc508 O509 2.025 . S
Sc508 O518 2.105 . S
Sc508 O520 2.105 . S
Sc508 O524 2.105 . S
Sc508 O526 2.105 . S
O509 Sc506 2.025 . S
O509 Sc507 2.025 . S
O509 Sc508 2.025 . S
C510 O516 1.268 . S
C510 O526 1.268 . S
C511 O517 1.268 . S
C511 O525 1.268 . S
C512 O518 1.268 . S
C512 O527 1.268 . S
C513 O519 1.268 . S
C513 O523 1.268 . S
C514 O520 1.268 . S
C514 O522 1.268 . S
C515 O521 1.268 . S
C515 O524 1.268 . S
O516 Sc506 2.105 . S
O516 C510 1.268 . S
O517 Sc507 2.105 . S
O517 C511 1.268 . S
O518 Sc508 2.105 . S
O518 C512 1.268 . S
O519 Sc506 2.105 . S
O519 C513 1.268 . S
O520 Sc508 2.105 . S
O520 C514 1.268 . S
O521 Sc507 2.105 . S
O521 C515 1.268 . S
O522 Sc506 2.105 . S
O522 C514 1.268 . S
O523 Sc507 2.105 . S
O523 C513 1.268 . S
O524 Sc508 2.105 . S
O524 C515 1.268 . S
O525 Sc506 2.105 . S
O525 C511 1.268 . S
O526 Sc508 2.105 . S
O526 C510 1.268 . S
O527 Sc507 2.105 . S
O527 C512 1.268 . S
Sc528 O531 2.025 . S
Sc528 O538 2.105 . S
Sc528 O541 2.105 . S
Sc528 O544 2.105 . S
Sc528 O547 2.105 . S
Sc529 O531 2.025 . S
Sc529 O539 2.105 . S
Sc529 O543 2.105 . S
Sc529 O545 2.105 . S
Sc529 O549 2.105 . S
Sc530 O531 2.025 . S
Sc530 O540 2.105 . S
Sc530 O542 2.105 . S
Sc530 O546 2.105 . S
Sc530 O548 2.105 . S
O531 Sc528 2.025 . S
O531 Sc529 2.025 . S
O531 Sc530 2.025 . S
C532 O538 1.268 . S
C532 O548 1.268 . S
C533 O539 1.268 . S
C533 O547 1.268 . S
C534 O540 1.268 . S
C534 O549 1.268 . S
C535 O541 1.268 . S
C535 O545 1.268 . S
C536 O542 1.268 . S
C536 O544 1.268 . S
C537 O543 1.268 . S
C537 O546 1.268 . S
O538 Sc528 2.105 . S
O538 C532 1.268 . S
O539 Sc529 2.105 . S
O539 C533 1.268 . S
O540 Sc530 2.105 . S
O540 C534 1.268 . S
O541 Sc528 2.105 . S
O541 C535 1.268 . S
O542 Sc530 2.105 . S
O542 C536 1.268 . S
O543 Sc529 2.105 . S
O543 C537 1.268 . S
O544 Sc528 2.105 . S
O544 C536 1.268 . S
O545 Sc529 2.105 . S
O545 C535 1.268 . S
O546 Sc530 2.105 . S
O546 C537 1.268 . S
O547 Sc528 2.105 . S
O547 C533 1.268 . S
O548 Sc530 2.105 . S
O548 C532 1.268 . S
O549 Sc529 2.105 . S
O549 C534 1.268 . S
Sc550 O553 2.025 . S
Sc550 O560 2.105 . S
Sc550 O563 2.105 . S
Sc550 O566 2.105 1_556 S
Sc550 O569 2.105 . S
Sc551 O553 2.025 . S
Sc551 O561 2.105 . S
Sc551 O565 2.105 . S
Sc551 O567 2.105 . S
Sc551 O571 2.105 . S
Sc552 O553 2.025 . S
Sc552 O562 2.105 . S
Sc552 O564 2.105 1_556 S
Sc552 O568 2.105 . S
Sc552 O570 2.105 . S
O553 Sc550 2.025 . S
O553 Sc551 2.025 . S
O553 Sc552 2.025 . S
C554 O560 1.268 . S
C554 O570 1.268 . S
C555 O561 1.268 . S
C555 O569 1.268 . S
C556 O562 1.268 . S
C556 O571 1.268 . S
C557 O563 1.268 . S
C557 O567 1.268 . S
C558 O564 1.268 . S
C558 O566 1.268 . S
C559 O565 1.268 . S
C559 O568 1.268 . S
O560 Sc550 2.105 . S
O560 C554 1.268 . S
O561 Sc551 2.105 . S
O561 C555 1.268 . S
O562 Sc552 2.105 . S
O562 C556 1.268 . S
O563 Sc550 2.105 . S
O563 C557 1.268 . S
O564 Sc552 2.105 1_554 S
O564 C558 1.268 . S
O565 Sc551 2.105 . S
O565 C559 1.268 . S
O566 Sc550 2.105 1_554 S
O566 C558 1.268 . S
O567 Sc551 2.105 . S
O567 C557 1.268 . S
O568 Sc552 2.105 . S
O568 C559 1.268 . S
O569 Sc550 2.105 . S
O569 C555 1.268 . S
O570 Sc552 2.105 . S
O570 C554 1.268 . S
O571 Sc551 2.105 . S
O571 C556 1.268 . S
Sc572 O575 2.025 . S
Sc572 O582 2.105 . S
Sc572 O585 2.105 . S
Sc572 O588 2.105 . S
Sc572 O591 2.105 . S
Sc573 O575 2.025 . S
Sc573 O583 2.105 . S
Sc573 O587 2.105 . S
Sc573 O589 2.105 . S
Sc573 O593 2.105 . S
Sc574 O575 2.025 . S
Sc574 O584 2.105 . S
Sc574 O586 2.105 . S
Sc574 O590 2.105 . S
Sc574 O592 2.105 . S
O575 Sc572 2.025 . S
O575 Sc573 2.025 . S
O575 Sc574 2.025 . S
C576 O582 1.268 . S
C576 O592 1.268 . S
C577 O583 1.268 . S
C577 O591 1.268 . S
C578 O584 1.268 . S
C578 O593 1.268 . S
C579 O585 1.268 . S
C579 O589 1.268 . S
C580 O586 1.268 . S
C580 O588 1.268 . S
C581 O587 1.268 . S
C581 O590 1.268 . S
O582 Sc572 2.105 . S
O582 C576 1.268 . S
O583 Sc573 2.105 . S
O583 C577 1.268 . S
O584 Sc574 2.105 . S
O584 C578 1.268 . S
O585 Sc572 2.105 . S
O585 C579 1.268 . S
O586 Sc574 2.105 . S
O586 C580 1.268 . S
O587 Sc573 2.105 . S
O587 C581 1.268 . S
O588 Sc572 2.105 . S
O588 C580 1.268 . S
O589 Sc573 2.105 . S
O589 C579 1.268 . S
O590 Sc574 2.105 . S
O590 C581 1.268 . S
O591 Sc572 2.105 . S
O591 C577 1.268 . S
O592 Sc574 2.105 . S
O592 C576 1.268 . S
O593 Sc573 2.105 . S
O593 C578 1.268 . S
Sc594 O597 2.025 . S
Sc594 O604 2.105 . S
Sc594 O607 2.105 . S
Sc594 O610 2.105 . S
Sc594 O613 2.105 . S
Sc595 O597 2.025 . S
Sc595 O605 2.105 . S
Sc595 O609 2.105 . S
Sc595 O611 2.105 . S
Sc595 O615 2.105 . S
Sc596 O597 2.025 . S
Sc596 O606 2.105 . S
Sc596 O608 2.105 . S
Sc596 O612 2.105 . S
Sc596 O614 2.105 . S
O597 Sc594 2.025 . S
O597 Sc595 2.025 . S
O597 Sc596 2.025 . S
C598 O604 1.268 . S
C598 O614 1.268 . S
C599 O605 1.268 . S
C599 O613 1.268 . S
C600 O606 1.268 . S
C600 O615 1.268 . S
C601 O607 1.268 . S
C601 O611 1.268 . S
C602 O608 1.268 . S
C602 O610 1.268 . S
C603 O609 1.268 . S
C603 O612 1.268 . S
O604 Sc594 2.105 . S
O604 C598 1.268 . S
O605 Sc595 2.105 . S
O605 C599 1.268 . S
O606 Sc596 2.105 . S
O606 C600 1.268 . S
O607 Sc594 2.105 . S
O607 C601 1.268 . S
O608 Sc596 2.105 . S
O608 C602 1.268 . S
O609 Sc595 2.105 . S
O609 C603 1.268 . S
O610 Sc594 2.105 . S
O610 C602 1.268 . S
O611 Sc595 2.105 . S
O611 C601 1.268 . S
O612 Sc596 2.105 . S
O612 C603 1.268 . S
O613 Sc594 2.105 . S
O613 C599 1.268 . S
O614 Sc596 2.105 . S
O614 C598 1.268 . S
O615 Sc595 2.105 . S
O615 C600 1.268 . S
Sc616 O619 2.025 . S
Sc616 O626 2.105 . S
Sc616 O629 2.105 . S
Sc616 O632 2.105 . S
Sc616 O635 2.105 . S
Sc617 O619 2.025 . S
Sc617 O627 2.105 . S
Sc617 O631 2.105 . S
Sc617 O633 2.105 . S
Sc617 O637 2.105 . S
Sc618 O619 2.025 . S
Sc618 O628 2.105 . S
Sc618 O630 2.105 . S
Sc618 O634 2.105 . S
Sc618 O636 2.105 . S
O619 Sc616 2.025 . S
O619 Sc617 2.025 . S
O619 Sc618 2.025 . S
C620 O626 1.268 . S
C620 O636 1.268 . S
C621 O627 1.268 . S
C621 O635 1.268 . S
C622 O628 1.268 . S
C622 O637 1.268 . S
C623 O629 1.268 . S
C623 O633 1.268 . S
C624 O630 1.268 . S
C624 O632 1.268 . S
C625 O631 1.268 . S
C625 O634 1.268 . S
O626 Sc616 2.105 . S
O626 C620 1.268 . S
O627 Sc617 2.105 . S
O627 C621 1.268 . S
O628 Sc618 2.105 . S
O628 C622 1.268 . S
O629 Sc616 2.105 . S
O629 C623 1.268 . S
O630 Sc618 2.105 . S
O630 C624 1.268 . S
O631 Sc617 2.105 . S
O631 C625 1.268 . S
O632 Sc616 2.105 . S
O632 C624 1.268 . S
O633 Sc617 2.105 . S
O633 C623 1.268 . S
O634 Sc618 2.105 . S
O634 C625 1.268 . S
O635 Sc616 2.105 . S
O635 C621 1.268 . S
O636 Sc618 2.105 . S
O636 C620 1.268 . S
O637 Sc617 2.105 . S
O637 C622 1.268 . S
Sc638 O641 2.025 . S
Sc638 O648 2.105 1_554 S
Sc638 O651 2.105 . S
Sc638 O654 2.105 . S
Sc638 O657 2.105 . S
Sc639 O641 2.025 . S
Sc639 O649 2.105 . S
Sc639 O653 2.105 . S
Sc639 O655 2.105 . S
Sc639 O659 2.105 . S
Sc640 O641 2.025 . S
Sc640 O650 2.105 . S
Sc640 O652 2.105 . S
Sc640 O656 2.105 . S
Sc640 O658 2.105 1_554 S
O641 Sc638 2.025 . S
O641 Sc639 2.025 . S
O641 Sc640 2.025 . S
C642 O648 1.268 . S
C642 O658 1.268 . S
C643 O649 1.268 . S
C643 O657 1.268 . S
C644 O650 1.268 . S
C644 O659 1.268 . S
C645 O651 1.268 . S
C645 O655 1.268 . S
C646 O652 1.268 . S
C646 O654 1.268 . S
C647 O653 1.268 . S
C647 O656 1.268 . S
O648 Sc638 2.105 1_556 S
O648 C642 1.268 . S
O649 Sc639 2.105 . S
O649 C643 1.268 . S
O650 Sc640 2.105 . S
O650 C644 1.268 . S
O651 Sc638 2.105 . S
O651 C645 1.268 . S
O652 Sc640 2.105 . S
O652 C646 1.268 . S
O653 Sc639 2.105 . S
O653 C647 1.268 . S
O654 Sc638 2.105 . S
O654 C646 1.268 . S
O655 Sc639 2.105 . S
O655 C645 1.268 . S
O656 Sc640 2.105 . S
O656 C647 1.268 . S
O657 Sc638 2.105 . S
O657 C643 1.268 . S
O658 Sc640 2.105 1_556 S
O658 C642 1.268 . S
O659 Sc639 2.105 . S
O659 C644 1.268 . S
Sc660 O663 2.025 . S
Sc660 O670 2.105 . S
Sc660 O673 2.105 . S
Sc660 O676 2.105 . S
Sc660 O679 2.105 . S
Sc661 O663 2.025 . S
Sc661 O671 2.105 . S
Sc661 O675 2.105 . S
Sc661 O677 2.105 . S
Sc661 O681 2.105 . S
Sc662 O663 2.025 . S
Sc662 O672 2.105 . S
Sc662 O674 2.105 . S
Sc662 O678 2.105 . S
Sc662 O680 2.105 . S
O663 Sc660 2.025 . S
O663 Sc661 2.025 . S
O663 Sc662 2.025 . S
C664 O670 1.268 . S
C664 O680 1.268 . S
C665 O671 1.268 . S
C665 O679 1.268 . S
C666 O672 1.268 . S
C666 O681 1.268 . S
C667 O673 1.268 . S
C667 O677 1.268 . S
C668 O674 1.268 . S
C668 O676 1.268 . S
C669 O675 1.268 . S
C669 O678 1.268 . S
O670 Sc660 2.105 . S
O670 C664 1.268 . S
O671 Sc661 2.105 . S
O671 C665 1.268 . S
O672 Sc662 2.105 . S
O672 C666 1.268 . S
O673 Sc660 2.105 . S
O673 C667 1.268 . S
O674 Sc662 2.105 . S
O674 C668 1.268 . S
O675 Sc661 2.105 . S
O675 C669 1.268 . S
O676 Sc660 2.105 . S
O676 C668 1.268 . S
O677 Sc661 2.105 . S
O677 C667 1.268 . S
O678 Sc662 2.105 . S
O678 C669 1.268 . S
O679 Sc660 2.105 . S
O679 C665 1.268 . S
O680 Sc662 2.105 . S
O680 C664 1.268 . S
O681 Sc661 2.105 . S
O681 C666 1.268 . S
Sc682 O685 2.025 . S
Sc682 O692 2.105 . S
Sc682 O695 2.105 . S
Sc682 O698 2.105 . S
Sc682 O701 2.105 . S
Sc683 O685 2.025 . S
Sc683 O693 2.105 . S
Sc683 O697 2.105 . S
Sc683 O699 2.105 . S
Sc683 O703 2.105 . S
Sc684 O685 2.025 . S
Sc684 O694 2.105 . S
Sc684 O696 2.105 . S
Sc684 O700 2.105 . S
Sc684 O702 2.105 . S
O685 Sc682 2.025 . S
O685 Sc683 2.025 . S
O685 Sc684 2.025 . S
C686 O692 1.268 . S
C686 O702 1.268 . S
C687 O693 1.268 . S
C687 O701 1.268 . S
C688 O694 1.268 . S
C688 O703 1.268 . S
C689 O695 1.268 . S
C689 O699 1.268 . S
C690 O696 1.268 . S
C690 O698 1.268 . S
C691 O697 1.268 . S
C691 O700 1.268 . S
O692 Sc682 2.105 . S
O692 C686 1.268 . S
O693 Sc683 2.105 . S
O693 C687 1.268 . S
O694 Sc684 2.105 . S
O694 C688 1.268 . S
O695 Sc682 2.105 . S
O695 C689 1.268 . S
O696 Sc684 2.105 . S
O696 C690 1.268 . S
O697 Sc683 2.105 . S
O697 C691 1.268 . S
O698 Sc682 2.105 . S
O698 C690 1.268 . S
O699 Sc683 2.105 . S
O699 C689 1.268 . S
O700 Sc684 2.105 . S
O700 C691 1.268 . S
O701 Sc682 2.105 . S
O701 C687 1.268 . S
O702 Sc684 2.105 . S
O702 C686 1.268 . S
O703 Sc683 2.105 . S
O703 C688 1.268 . S
C704 C705 1.387 . S
C704 H708 0.950 . S
C704 C713 1.390 1_545 S
C705 C704 1.387 . S
C705 C707 1.387 . S
H706 C713 0.950 . S
C707 C705 1.387 . S
C707 C709 1.390 1_545 S
C707 H711 0.950 . S
H708 C704 0.950 . S
C709 C707 1.390 1_565 S
C709 C710 1.387 . S
C709 H712 0.950 . S
C710 C709 1.387 . S
C710 C713 1.387 . S
H711 C707 0.950 . S
H712 C709 0.950 . S
C713 C704 1.390 1_565 S
C713 H706 0.950 . S
C713 C710 1.387 . S
C714 C715 1.387 . S
C714 H718 0.950 . S
C714 C723 1.390 . S
C715 C714 1.387 . S
C715 C717 1.387 . S
H716 C723 0.950 . S
C717 C715 1.387 . S
C717 C719 1.390 . S
C717 H721 0.950 . S
H718 C714 0.950 . S
C719 C717 1.390 . S
C719 C720 1.387 . S
C719 H722 0.950 . S
C720 C719 1.387 . S
C720 C723 1.387 . S
H721 C717 0.950 . S
H722 C719 0.950 . S
C723 C714 1.390 . S
C723 H716 0.950 . S
C723 C720 1.387 . S
C724 C725 1.387 . S
C724 H728 0.950 . S
C724 C733 1.390 1_545 S
C725 C724 1.387 . S
C725 C727 1.387 . S
H726 C733 0.950 . S
C727 C725 1.387 . S
C727 C729 1.390 1_545 S
C727 H731 0.950 . S
H728 C724 0.950 . S
C729 C727 1.390 1_565 S
C729 C730 1.387 . S
C729 H732 0.950 . S
C730 C729 1.387 . S
C730 C733 1.387 . S
H731 C727 0.950 . S
H732 C729 0.950 . S
C733 C724 1.390 1_565 S
C733 H726 0.950 . S
C733 C730 1.387 . S
C734 C735 1.387 . S
C734 H738 0.950 . S
C734 C743 1.390 1_554 S
C735 C734 1.387 . S
C735 C737 1.387 . S
H736 C743 0.950 . S
C737 C735 1.387 . S
C737 C739 1.390 1_554 S
C737 H741 0.950 . S
H738 C734 0.950 . S
C739 C737 1.390 1_556 S
C739 C740 1.387 . S
C739 H742 0.950 . S
C740 C739 1.387 . S
C740 C743 1.387 . S
H741 C737 0.950 . S
H742 C739 0.950 . S
C743 C734 1.390 1_556 S
C743 H736 0.950 . S
C743 C740 1.387 . S
C744 C745 1.387 . S
C744 H748 0.950 . S
C744 C753 1.390 1_565 S
C745 C744 1.387 . S
C745 C747 1.387 . S
H746 C753 0.950 . S
C747 C745 1.387 . S
C747 C749 1.390 1_565 S
C747 H751 0.950 . S
H748 C744 0.950 . S
C749 C747 1.390 1_545 S
C749 C750 1.387 . S
C749 H752 0.950 . S
C750 C749 1.387 . S
C750 C753 1.387 . S
H751 C747 0.950 . S
H752 C749 0.950 . S
C753 C744 1.390 1_545 S
C753 H746 0.950 . S
C753 C750 1.387 . S
C754 C755 1.387 . S
C754 H758 0.950 . S
C754 C763 1.390 . S
C755 C754 1.387 . S
C755 C757 1.387 . S
H756 C763 0.950 . S
C757 C755 1.387 . S
C757 C759 1.390 . S
C757 H761 0.950 . S
H758 C754 0.950 . S
C759 C757 1.390 . S
C759 C760 1.387 . S
C759 H762 0.950 . S
C760 C759 1.387 . S
C760 C763 1.387 . S
H761 C757 0.950 . S
H762 C759 0.950 . S
C763 C754 1.390 . S
C763 H756 0.950 . S
C763 C760 1.387 . S
C764 C765 1.387 . S
C764 H768 0.950 . S
C764 C773 1.390 1_545 S
C765 C764 1.387 . S
C765 C767 1.387 . S
H766 C773 0.950 . S
C767 C765 1.387 . S
C767 C769 1.390 1_545 S
C767 H771 0.950 . S
H768 C764 0.950 . S
C769 C767 1.390 1_565 S
C769 C770 1.387 . S
C769 H772 0.950 . S
C770 C769 1.387 . S
C770 C773 1.387 . S
H771 C767 0.950 . S
H772 C769 0.950 . S
C773 C764 1.390 1_565 S
C773 H766 0.950 . S
C773 C770 1.387 . S
C774 C775 1.387 . S
C774 H778 0.950 . S
C774 C783 1.390 1_554 S
C775 C774 1.387 . S
C775 C777 1.387 . S
H776 C783 0.950 . S
C777 C775 1.387 . S
C777 C779 1.390 1_554 S
C777 H781 0.950 . S
H778 C774 0.950 . S
C779 C777 1.390 1_556 S
C779 C780 1.387 . S
C779 H782 0.950 . S
C780 C779 1.387 . S
C780 C783 1.387 . S
H781 C777 0.950 . S
H782 C779 0.950 . S
C783 C774 1.390 1_556 S
C783 H776 0.950 . S
C783 C780 1.387 . S
C784 C785 1.387 . S
C784 H788 0.950 . S
C784 C793 1.390 . S
C785 C784 1.387 . S
C785 C787 1.387 . S
H786 C793 0.950 . S
C787 C785 1.387 . S
C787 C789 1.390 . S
C787 H791 0.950 . S
H788 C784 0.950 . S
C789 C787 1.390 . S
C789 C790 1.387 . S
C789 H792 0.950 . S
C790 C789 1.387 . S
C790 C793 1.387 . S
H791 C787 0.950 . S
H792 C789 0.950 . S
C793 C784 1.390 . S
C793 H786 0.950 . S
C793 C790 1.387 . S
C794 C795 1.387 . S
C794 H798 0.950 . S
C794 C803 1.390 1_556 S
C795 C794 1.387 . S
C795 C797 1.387 . S
H796 C803 0.950 . S
C797 C795 1.387 . S
C797 C799 1.390 1_556 S
C797 H801 0.950 . S
H798 C794 0.950 . S
C799 C797 1.390 1_554 S
C799 C800 1.387 . S
C799 H802 0.950 . S
C800 C799 1.387 . S
C800 C803 1.387 . S
H801 C797 0.950 . S
H802 C799 0.950 . S
C803 C794 1.390 1_554 S
C803 H796 0.950 . S
C803 C800 1.387 . S
C804 C805 1.387 . S
C804 H808 0.950 . S
C804 C813 1.390 . S
C805 C804 1.387 . S
C805 C807 1.387 . S
H806 C813 0.950 . S
C807 C805 1.387 . S
C807 C809 1.390 . S
C807 H811 0.950 . S
H808 C804 0.950 . S
C809 C807 1.390 . S
C809 C810 1.387 . S
C809 H812 0.950 . S
C810 C809 1.387 . S
C810 C813 1.387 . S
H811 C807 0.950 . S
H812 C809 0.950 . S
C813 C804 1.390 . S
C813 H806 0.950 . S
C813 C810 1.387 . S
C814 C815 1.387 . S
C814 H818 0.950 . S
C814 C823 1.390 . S
C815 C814 1.387 . S
C815 C817 1.387 . S
H816 C823 0.950 . S
C817 C815 1.387 . S
C817 C819 1.390 . S
C817 H821 0.950 . S
H818 C814 0.950 . S
C819 C817 1.390 . S
C819 C820 1.387 . S
C819 H822 0.950 . S
C820 C819 1.387 . S
C820 C823 1.387 . S
H821 C817 0.950 . S
H822 C819 0.950 . S
C823 C814 1.390 . S
C823 H816 0.950 . S
C823 C820 1.387 . S
C824 C825 1.387 . S
C824 H828 0.950 . S
C824 C833 1.390 . S
C825 C824 1.387 . S
C825 C827 1.387 . S
H826 C833 0.950 . S
C827 C825 1.387 . S
C827 C829 1.390 . S
C827 H831 0.950 . S
H828 C824 0.950 . S
C829 C827 1.390 . S
C829 C830 1.387 . S
C829 H832 0.950 . S
C830 C829 1.387 . S
C830 C833 1.387 . S
H831 C827 0.950 . S
H832 C829 0.950 . S
C833 C824 1.390 . S
C833 H826 0.950 . S
C833 C830 1.387 . S
C834 C835 1.387 . S
C834 H838 0.950 . S
C834 C843 1.390 1_556 S
C835 C834 1.387 . S
C835 C837 1.387 . S
H836 C843 0.950 . S
C837 C835 1.387 . S
C837 C839 1.390 1_556 S
C837 H841 0.950 . S
H838 C834 0.950 . S
C839 C837 1.390 1_554 S
C839 C840 1.387 . S
C839 H842 0.950 . S
C840 C839 1.387 . S
C840 C843 1.387 . S
H841 C837 0.950 . S
H842 C839 0.950 . S
C843 C834 1.390 1_554 S
C843 H836 0.950 . S
C843 C840 1.387 . S
C844 C845 1.387 . S
C844 H848 0.950 . S
C844 C853 1.390 . S
C845 C844 1.387 . S
C845 C847 1.387 . S
H846 C853 0.950 . S
C847 C845 1.387 . S
C847 C849 1.390 . S
C847 H851 0.950 . S
H848 C844 0.950 . S
C849 C847 1.390 . S
C849 C850 1.387 . S
C849 H852 0.950 . S
C850 C849 1.387 . S
C850 C853 1.387 . S
H851 C847 0.950 . S
H852 C849 0.950 . S
C853 C844 1.390 . S
C853 H846 0.950 . S
C853 C850 1.387 . S
C854 C855 1.387 . S
C854 H858 0.950 . S
C854 C863 1.390 . S
C855 C854 1.387 . S
C855 C857 1.387 . S
H856 C863 0.950 . S
C857 C855 1.387 . S
C857 C859 1.390 . S
C857 H861 0.950 . S
H858 C854 0.950 . S
C859 C857 1.390 . S
C859 C860 1.387 . S
C859 H862 0.950 . S
C860 C859 1.387 . S
C860 C863 1.387 . S
H861 C857 0.950 . S
H862 C859 0.950 . S
C863 C854 1.390 . S
C863 H856 0.950 . S
C863 C860 1.387 . S
C864 C865 1.387 . S
C864 H868 0.950 . S
C864 C873 1.390 . S
C865 C864 1.387 . S
C865 C867 1.387 . S
H866 C873 0.950 . S
C867 C865 1.387 . S
C867 C869 1.390 . S
C867 H871 0.950 . S
H868 C864 0.950 . S
C869 C867 1.390 . S
C869 C870 1.387 . S
C869 H872 0.950 . S
C870 C869 1.387 . S
C870 C873 1.387 . S
H871 C867 0.950 . S
H872 C869 0.950 . S
C873 C864 1.390 . S
C873 H866 0.950 . S
C873 C870 1.387 . S
C874 C875 1.394 . S
C874 H878 0.950 . S
C874 C883 1.383 1_645 S
C875 C874 1.394 . S
C875 C877 1.387 . S
H876 C883 0.950 . S
C877 C875 1.387 . S
C877 C879 1.383 1_645 S
C877 H881 0.950 . S
H878 C874 0.950 . S
C879 C877 1.383 1_465 S
C879 C880 1.394 . S
C879 H882 0.950 . S
C880 C879 1.394 . S
C880 C883 1.387 . S
H881 C877 0.950 . S
H882 C879 0.950 . S
C883 C874 1.383 1_465 S
C883 H876 0.950 . S
C883 C880 1.387 . S
C884 C885 1.387 . S
C884 H888 0.950 . S
C884 C893 1.390 . S
C885 C884 1.387 . S
C885 C887 1.387 . S
H886 C893 0.950 . S
C887 C885 1.387 . S
C887 C889 1.390 . S
C887 H891 0.950 . S
H888 C884 0.950 . S
C889 C887 1.390 . S
C889 C890 1.387 . S
C889 H892 0.950 . S
C890 C889 1.387 . S
C890 C893 1.387 . S
H891 C887 0.950 . S
H892 C889 0.950 . S
C893 C884 1.390 . S
C893 H886 0.950 . S
C893 C890 1.387 . S
C894 C895 1.384 1_565 S
C894 H898 0.950 . S
C894 C903 1.394 . S
C895 C894 1.384 1_545 S
C895 C897 1.387 1_554 S
H896 C903 0.950 . S
C897 C895 1.387 1_556 S
C897 C899 1.394 . S
C897 H901 0.950 . S
H898 C894 0.950 . S
C899 C897 1.394 . S
C899 C900 1.384 1_545 S
C899 H902 0.950 . S
C900 C899 1.384 1_565 S
C900 C903 1.387 1_556 S
H901 C897 0.950 . S
H902 C899 0.950 . S
C903 C894 1.394 . S
C903 H896 0.950 . S
C903 C900 1.387 1_554 S
C904 C905 1.387 . S
C904 H908 0.950 . S
C904 C913 1.390 . S
C905 C904 1.387 . S
C905 C907 1.387 . S
H906 C913 0.950 . S
C907 C905 1.387 . S
C907 C909 1.390 . S
C907 H911 0.950 . S
H908 C904 0.950 . S
C909 C907 1.390 . S
C909 C910 1.387 . S
C909 H912 0.950 . S
C910 C909 1.387 . S
C910 C913 1.387 . S
H911 C907 0.950 . S
H912 C909 0.950 . S
C913 C904 1.390 . S
C913 H906 0.950 . S
C913 C910 1.387 . S
C914 C915 1.387 . S
C914 H918 0.950 . S
C914 C923 1.390 1_565 S
C915 C914 1.387 . S
C915 C917 1.387 . S
H916 C923 0.950 . S
C917 C915 1.387 . S
C917 C919 1.390 1_565 S
C917 H921 0.950 . S
H918 C914 0.950 . S
C919 C917 1.390 1_545 S
C919 C920 1.387 . S
C919 H922 0.950 . S
C920 C919 1.387 . S
C920 C923 1.387 . S
H921 C917 0.950 . S
H922 C919 0.950 . S
C923 C914 1.390 1_545 S
C923 H916 0.950 . S
C923 C920 1.387 . S
C924 C925 1.387 . S
C924 H928 0.950 . S
C924 C933 1.390 . S
C925 C924 1.387 . S
C925 C927 1.387 . S
H926 C933 0.950 . S
C927 C925 1.387 . S
C927 C929 1.390 . S
C927 H931 0.950 . S
H928 C924 0.950 . S
C929 C927 1.390 . S
C929 C930 1.387 . S
C929 H932 0.950 . S
C930 C929 1.387 . S
C930 C933 1.387 . S
H931 C927 0.950 . S
H932 C929 0.950 . S
C933 C924 1.390 . S
C933 H926 0.950 . S
C933 C930 1.387 . S
C934 C935 1.387 1_556 S
C934 H938 0.950 . S
C934 C943 1.390 1_655 S
C935 C934 1.387 1_554 S
C935 C937 1.387 1_565 S
H936 C943 0.950 . S
C937 C935 1.387 1_545 S
C937 C939 1.390 1_655 S
C937 H941 0.950 . S
H938 C934 0.950 . S
C939 C937 1.390 1_455 S
C939 C940 1.387 1_554 S
C939 H942 0.950 . S
C940 C939 1.387 1_556 S
C940 C943 1.387 1_545 S
H941 C937 0.950 . S
H942 C939 0.950 . S
C943 C934 1.390 1_455 S
C943 H936 0.950 . S
C943 C940 1.387 1_565 S
C944 C945 1.387 . S
C944 H948 0.950 . S
C944 C953 1.390 . S
C945 C944 1.387 . S
C945 C947 1.387 . S
H946 C953 0.950 . S
C947 C945 1.387 . S
C947 C949 1.390 . S
C947 H951 0.950 . S
H948 C944 0.950 . S
C949 C947 1.390 . S
C949 C950 1.387 . S
C949 H952 0.950 . S
C950 C949 1.387 . S
C950 C953 1.387 . S
H951 C947 0.950 . S
H952 C949 0.950 . S
C953 C944 1.390 . S
C953 H946 0.950 . S
C953 C950 1.387 . S
C954 C955 1.387 . S
C954 H958 0.950 . S
C954 C963 1.390 . S
C955 C954 1.387 . S
C955 C957 1.387 . S
H956 C963 0.950 . S
C957 C955 1.387 . S
C957 C959 1.390 . S
C957 H961 0.950 . S
H958 C954 0.950 . S
C959 C957 1.390 . S
C959 C960 1.387 . S
C959 H962 0.950 . S
C960 C959 1.387 . S
C960 C963 1.387 . S
H961 C957 0.950 . S
H962 C959 0.950 . S
C963 C954 1.390 . S
C963 H956 0.950 . S
C963 C960 1.387 . S
C964 C965 1.387 . S
C964 H968 0.950 . S
C964 C973 1.390 . S
C965 C964 1.387 . S
C965 C967 1.387 . S
H966 C973 0.950 . S
C967 C965 1.387 . S
C967 C969 1.390 . S
C967 H971 0.950 . S
H968 C964 0.950 . S
C969 C967 1.390 . S
C969 C970 1.387 . S
C969 H972 0.950 . S
C970 C969 1.387 . S
C970 C973 1.387 . S
H971 C967 0.950 . S
H972 C969 0.950 . S
C973 C964 1.390 . S
C973 H966 0.950 . S
C973 C970 1.387 . S
C974 C975 1.387 . S
C974 H978 0.950 . S
C974 C983 1.390 . S
C975 C974 1.387 . S
C975 C977 1.387 . S
H976 C983 0.950 . S
C977 C975 1.387 . S
C977 C979 1.390 . S
C977 H981 0.950 . S
H978 C974 0.950 . S
C979 C977 1.390 . S
C979 C980 1.387 . S
C979 H982 0.950 . S
C980 C979 1.387 . S
C980 C983 1.387 . S
H981 C977 0.950 . S
H982 C979 0.950 . S
C983 C974 1.390 . S
C983 H976 0.950 . S
C983 C980 1.387 . S
C984 C985 1.387 . S
C984 H988 0.950 . S
C984 C993 1.390 . S
C985 C984 1.387 . S
C985 C987 1.387 1_554 S
H986 C993 0.950 . S
C987 C985 1.387 1_556 S
C987 C989 1.390 . S
C987 H991 0.950 . S
H988 C984 0.950 . S
C989 C987 1.390 . S
C989 C990 1.387 . S
C989 H992 0.950 . S
C990 C989 1.387 . S
C990 C993 1.387 1_556 S
H991 C987 0.950 . S
H992 C989 0.950 . S
C993 C984 1.390 . S
C993 H986 0.950 . S
C993 C990 1.387 1_554 S
C994 C995 1.387 . S
C994 H998 0.950 . S
C994 C1003 1.390 1_455 S
C995 C994 1.387 . S
C995 C997 1.387 . S
H996 C1003 0.950 . S
C997 C995 1.387 . S
C997 C999 1.390 1_455 S
C997 H1001 0.950 . S
H998 C994 0.950 . S
C999 C997 1.390 1_655 S
C999 C1000 1.387 . S
C999 H1002 0.950 . S
C1000 C999 1.387 . S
C1000 C1003 1.387 . S
H1001 C997 0.950 . S
H1002 C999 0.950 . S
C1003 C994 1.390 1_655 S
C1003 H996 0.950 . S
C1003 C1000 1.387 . S
C1004 C1005 1.387 . S
C1004 H1008 0.950 . S
C1004 C1013 1.390 1_455 S
C1005 C1004 1.387 . S
C1005 C1007 1.387 1_554 S
H1006 C1013 0.950 . S
C1007 C1005 1.387 1_556 S
C1007 C1009 1.390 1_455 S
C1007 H1011 0.950 . S
H1008 C1004 0.950 . S
C1009 C1007 1.390 1_655 S
C1009 C1010 1.387 . S
C1009 H1012 0.950 . S
C1010 C1009 1.387 . S
C1010 C1013 1.387 1_556 S
H1011 C1007 0.950 . S
H1012 C1009 0.950 . S
C1013 C1004 1.390 1_655 S
C1013 H1006 0.950 . S
C1013 C1010 1.387 1_554 S
C1014 C1015 1.387 . S
C1014 H1018 0.950 . S
C1014 C1023 1.390 . S
C1015 C1014 1.387 . S
C1015 C1017 1.387 . S
H1016 C1023 0.950 . S
C1017 C1015 1.387 . S
C1017 C1019 1.390 . S
C1017 H1021 0.950 . S
H1018 C1014 0.950 . S
C1019 C1017 1.390 . S
C1019 C1020 1.387 . S
C1019 H1022 0.950 . S
C1020 C1019 1.387 . S
C1020 C1023 1.387 . S
H1021 C1017 0.950 . S
H1022 C1019 0.950 . S
C1023 C1014 1.390 . S
C1023 H1016 0.950 . S
C1023 C1020 1.387 . S
C1024 C1025 1.387 . S
C1024 H1028 0.950 . S
C1024 C1033 1.390 . S
C1025 C1024 1.387 . S
C1025 C1027 1.387 . S
H1026 C1033 0.950 . S
C1027 C1025 1.387 . S
C1027 C1029 1.390 . S
C1027 H1031 0.950 . S
H1028 C1024 0.950 . S
C1029 C1027 1.390 . S
C1029 C1030 1.387 . S
C1029 H1032 0.950 . S
C1030 C1029 1.387 . S
C1030 C1033 1.387 . S
H1031 C1027 0.950 . S
H1032 C1029 0.950 . S
C1033 C1024 1.390 . S
C1033 H1026 0.950 . S
C1033 C1030 1.387 . S
C1034 C1035 1.387 . S
C1034 H1038 0.950 . S
C1034 C1043 1.390 . S
C1035 C1034 1.387 . S
C1035 C1037 1.387 . S
H1036 C1043 0.950 . S
C1037 C1035 1.387 . S
C1037 C1039 1.390 . S
C1037 H1041 0.950 . S
H1038 C1034 0.950 . S
C1039 C1037 1.390 . S
C1039 C1040 1.387 . S
C1039 H1042 0.950 . S
C1040 C1039 1.387 . S
C1040 C1043 1.387 . S
H1041 C1037 0.950 . S
H1042 C1039 0.950 . S
C1043 C1034 1.390 . S
C1043 H1036 0.950 . S
C1043 C1040 1.387 . S
C1044 C1045 1.387 . S
C1044 H1048 0.950 . S
C1044 C1053 1.390 . S
C1045 C1044 1.387 . S
C1045 C1047 1.387 . S
H1046 C1053 0.950 . S
C1047 C1045 1.387 . S
C1047 C1049 1.390 . S
C1047 H1051 0.950 . S
H1048 C1044 0.950 . S
C1049 C1047 1.390 . S
C1049 C1050 1.387 . S
C1049 H1052 0.950 . S
C1050 C1049 1.387 . S
C1050 C1053 1.387 . S
H1051 C1047 0.950 . S
H1052 C1049 0.950 . S
C1053 C1044 1.390 . S
C1053 H1046 0.950 . S
C1053 C1050 1.387 . S
C1054 C1055 1.387 . S
C1054 H1058 0.950 . S
C1054 C1063 1.390 . S
C1055 C1054 1.387 . S
C1055 C1057 1.387 . S
H1056 C1063 0.950 . S
C1057 C1055 1.387 . S
C1057 C1059 1.390 . S
C1057 H1061 0.950 . S
H1058 C1054 0.950 . S
C1059 C1057 1.390 . S
C1059 C1060 1.387 . S
C1059 H1062 0.950 . S
C1060 C1059 1.387 . S
C1060 C1063 1.387 . S
H1061 C1057 0.950 . S
H1062 C1059 0.950 . S
C1063 C1054 1.390 . S
C1063 H1056 0.950 . S
C1063 C1060 1.387 . S
C1064 C1065 1.387 . S
C1064 H1068 0.950 . S
C1064 C1073 1.390 . S
C1065 C1064 1.387 . S
C1065 C1067 1.387 . S
H1066 C1073 0.950 . S
C1067 C1065 1.387 . S
C1067 C1069 1.390 . S
C1067 H1071 0.950 . S
H1068 C1064 0.950 . S
C1069 C1067 1.390 . S
C1069 C1070 1.387 . S
C1069 H1072 0.950 . S
C1070 C1069 1.387 . S
C1070 C1073 1.387 . S
H1071 C1067 0.950 . S
H1072 C1069 0.950 . S
C1073 C1064 1.390 . S
C1073 H1066 0.950 . S
C1073 C1070 1.387 . S
C1074 C1075 1.387 . S
C1074 H1078 0.950 . S
C1074 C1083 1.390 . S
C1075 C1074 1.387 . S
C1075 C1077 1.387 . S
H1076 C1083 0.950 . S
C1077 C1075 1.387 . S
C1077 C1079 1.390 . S
C1077 H1081 0.950 . S
H1078 C1074 0.950 . S
C1079 C1077 1.390 . S
C1079 C1080 1.387 . S
C1079 H1082 0.950 . S
C1080 C1079 1.387 . S
C1080 C1083 1.387 . S
H1081 C1077 0.950 . S
H1082 C1079 0.950 . S
C1083 C1074 1.390 . S
C1083 H1076 0.950 . S
C1083 C1080 1.387 . S
C1084 C1085 1.387 . S
C1084 H1088 0.950 . S
C1084 C1093 1.390 . S
C1085 C1084 1.387 . S
C1085 C1087 1.387 . S
H1086 C1093 0.950 . S
C1087 C1085 1.387 . S
C1087 C1089 1.390 . S
C1087 H1091 0.950 . S
H1088 C1084 0.950 . S
C1089 C1087 1.390 . S
C1089 C1090 1.387 . S
C1089 H1092 0.950 . S
C1090 C1089 1.387 . S
C1090 C1093 1.387 . S
H1091 C1087 0.950 . S
H1092 C1089 0.950 . S
C1093 C1084 1.390 . S
C1093 H1086 0.950 . S
C1093 C1090 1.387 . S
C1094 C1095 1.387 . S
C1094 H1098 0.950 . S
C1094 C1103 1.390 . S
C1095 C1094 1.387 . S
C1095 C1097 1.387 . S
H1096 C1103 0.950 . S
C1097 C1095 1.387 . S
C1097 C1099 1.390 . S
C1097 H1101 0.950 . S
H1098 C1094 0.950 . S
C1099 C1097 1.390 . S
C1099 C1100 1.387 . S
C1099 H1102 0.950 . S
C1100 C1099 1.387 . S
C1100 C1103 1.387 . S
H1101 C1097 0.950 . S
H1102 C1099 0.950 . S
C1103 C1094 1.390 . S
C1103 H1096 0.950 . S
C1103 C1100 1.387 . S
C1104 C1105 1.387 . S
C1104 H1108 0.950 . S
C1104 C1113 1.390 . S
C1105 C1104 1.387 . S
C1105 C1107 1.387 . S
H1106 C1113 0.950 . S
C1107 C1105 1.387 . S
C1107 C1109 1.390 . S
C1107 H1111 0.950 . S
H1108 C1104 0.950 . S
C1109 C1107 1.390 . S
C1109 C1110 1.387 . S
C1109 H1112 0.950 . S
C1110 C1109 1.387 . S
C1110 C1113 1.387 . S
H1111 C1107 0.950 . S
H1112 C1109 0.950 . S
C1113 C1104 1.390 . S
C1113 H1106 0.950 . S
C1113 C1110 1.387 . S
C1114 C1115 1.387 . S
C1114 H1118 0.950 . S
C1114 C1123 1.390 . S
C1115 C1114 1.387 . S
C1115 C1117 1.387 . S
H1116 C1123 0.950 . S
C1117 C1115 1.387 . S
C1117 C1119 1.390 . S
C1117 H1121 0.950 . S
H1118 C1114 0.950 . S
C1119 C1117 1.390 . S
C1119 C1120 1.387 . S
C1119 H1122 0.950 . S
C1120 C1119 1.387 . S
C1120 C1123 1.387 . S
H1121 C1117 0.950 . S
H1122 C1119 0.950 . S
C1123 C1114 1.390 . S
C1123 H1116 0.950 . S
C1123 C1120 1.387 . S
C1124 C1125 1.387 . S
C1124 H1128 0.950 . S
C1124 C1133 1.390 . S
C1125 C1124 1.387 . S
C1125 C1127 1.387 . S
H1126 C1133 0.950 . S
C1127 C1125 1.387 . S
C1127 C1129 1.390 . S
C1127 H1131 0.950 . S
H1128 C1124 0.950 . S
C1129 C1127 1.390 . S
C1129 C1130 1.387 . S
C1129 H1132 0.950 . S
C1130 C1129 1.387 . S
C1130 C1133 1.387 . S
H1131 C1127 0.950 . S
H1132 C1129 0.950 . S
C1133 C1124 1.390 . S
C1133 H1126 0.950 . S
C1133 C1130 1.387 . S
C1134 C1135 1.387 . S
C1134 H1138 0.950 . S
C1134 C1143 1.390 . S
C1135 C1134 1.387 . S
C1135 C1137 1.387 . S
H1136 C1143 0.950 . S
C1137 C1135 1.387 . S
C1137 C1139 1.390 . S
C1137 H1141 0.950 . S
H1138 C1134 0.950 . S
C1139 C1137 1.390 . S
C1139 C1140 1.387 . S
C1139 H1142 0.950 . S
C1140 C1139 1.387 . S
C1140 C1143 1.387 . S
H1141 C1137 0.950 . S
H1142 C1139 0.950 . S
C1143 C1134 1.390 . S
C1143 H1136 0.950 . S
C1143 C1140 1.387 . S
C1144 C1145 1.387 . S
C1144 H1148 0.950 . S
C1144 C1153 1.390 . S
C1145 C1144 1.387 . S
C1145 C1147 1.387 . S
H1146 C1153 0.950 . S
C1147 C1145 1.387 . S
C1147 C1149 1.390 . S
C1147 H1151 0.950 . S
H1148 C1144 0.950 . S
C1149 C1147 1.390 . S
C1149 C1150 1.387 . S
C1149 H1152 0.950 . S
C1150 C1149 1.387 . S
C1150 C1153 1.387 . S
H1151 C1147 0.950 . S
H1152 C1149 0.950 . S
C1153 C1144 1.390 . S
C1153 H1146 0.950 . S
C1153 C1150 1.387 . S
C1154 C1155 1.387 . S
C1154 H1158 0.950 . S
C1154 C1163 1.390 . S
C1155 C1154 1.387 . S
C1155 C1157 1.387 . S
H1156 C1163 0.950 . S
C1157 C1155 1.387 . S
C1157 C1159 1.390 . S
C1157 H1161 0.950 . S
H1158 C1154 0.950 . S
C1159 C1157 1.390 . S
C1159 C1160 1.387 . S
C1159 H1162 0.950 . S
C1160 C1159 1.387 . S
C1160 C1163 1.387 . S
H1161 C1157 0.950 . S
H1162 C1159 0.950 . S
C1163 C1154 1.390 . S
C1163 H1156 0.950 . S
C1163 C1160 1.387 . S
C1164 C1165 1.387 . S
C1164 H1168 0.950 . S
C1164 C1173 1.390 . S
C1165 C1164 1.387 . S
C1165 C1167 1.387 . S
H1166 C1173 0.950 . S
C1167 C1165 1.387 . S
C1167 C1169 1.390 . S
C1167 H1171 0.950 . S
H1168 C1164 0.950 . S
C1169 C1167 1.390 . S
C1169 C1170 1.387 . S
C1169 H1172 0.950 . S
C1170 C1169 1.387 . S
C1170 C1173 1.387 . S
H1171 C1167 0.950 . S
H1172 C1169 0.950 . S
C1173 C1164 1.390 . S
C1173 H1166 0.950 . S
C1173 C1170 1.387 . S
C1174 C1175 1.387 . S
C1174 H1178 0.950 . S
C1174 C1183 1.390 . S
C1175 C1174 1.387 . S
C1175 C1177 1.387 . S
H1176 C1183 0.950 . S
C1177 C1175 1.387 . S
C1177 C1179 1.390 . S
C1177 H1181 0.950 . S
H1178 C1174 0.950 . S
C1179 C1177 1.390 . S
C1179 C1180 1.387 . S
C1179 H1182 0.950 . S
C1180 C1179 1.387 . S
C1180 C1183 1.387 . S
H1181 C1177 0.950 . S
H1182 C1179 0.950 . S
C1183 C1174 1.390 . S
C1183 H1176 0.950 . S
C1183 C1180 1.387 . S
C1184 C1185 1.387 . S
C1184 H1188 0.950 . S
C1184 C1193 1.390 . S
C1185 C1184 1.387 . S
C1185 C1187 1.387 . S
H1186 C1193 0.950 . S
C1187 C1185 1.387 . S
C1187 C1189 1.390 . S
C1187 H1191 0.950 . S
H1188 C1184 0.950 . S
C1189 C1187 1.390 . S
C1189 C1190 1.387 . S
C1189 H1192 0.950 . S
C1190 C1189 1.387 . S
C1190 C1193 1.387 . S
H1191 C1187 0.950 . S
H1192 C1189 0.950 . S
C1193 C1184 1.390 . S
C1193 H1186 0.950 . S
C1193 C1190 1.387 . S
C1194 C1195 1.387 . S
C1194 H1198 0.950 . S
C1194 C1203 1.390 . S
C1195 C1194 1.387 . S
C1195 C1197 1.387 . S
H1196 C1203 0.950 . S
C1197 C1195 1.387 . S
C1197 C1199 1.390 . S
C1197 H1201 0.950 . S
H1198 C1194 0.950 . S
C1199 C1197 1.390 . S
C1199 C1200 1.387 . S
C1199 H1202 0.950 . S
C1200 C1199 1.387 . S
C1200 C1203 1.387 . S
H1201 C1197 0.950 . S
H1202 C1199 0.950 . S
C1203 C1194 1.390 . S
C1203 H1196 0.950 . S
C1203 C1200 1.387 . S
C1204 C1205 1.387 . S
C1204 H1208 0.950 . S
C1204 C1213 1.390 . S
C1205 C1204 1.387 . S
C1205 C1207 1.387 . S
H1206 C1213 0.950 . S
C1207 C1205 1.387 . S
C1207 C1209 1.390 . S
C1207 H1211 0.950 . S
H1208 C1204 0.950 . S
C1209 C1207 1.390 . S
C1209 C1210 1.387 . S
C1209 H1212 0.950 . S
C1210 C1209 1.387 . S
C1210 C1213 1.387 . S
H1211 C1207 0.950 . S
H1212 C1209 0.950 . S
C1213 C1204 1.390 . S
C1213 H1206 0.950 . S
C1213 C1210 1.387 . S
C1214 C1215 1.387 . S
C1214 H1218 0.950 . S
C1214 C1223 1.390 . S
C1215 C1214 1.387 . S
C1215 C1217 1.387 . S
H1216 C1223 0.950 . S
C1217 C1215 1.387 . S
C1217 C1219 1.390 . S
C1217 H1221 0.950 . S
H1218 C1214 0.950 . S
C1219 C1217 1.390 . S
C1219 C1220 1.387 . S
C1219 H1222 0.950 . S
C1220 C1219 1.387 . S
C1220 C1223 1.387 . S
H1221 C1217 0.950 . S
H1222 C1219 0.950 . S
C1223 C1214 1.390 . S
C1223 H1216 0.950 . S
C1223 C1220 1.387 . S
C1224 C1225 1.387 . S
C1224 H1228 0.950 . S
C1224 C1233 1.390 . S
C1225 C1224 1.387 . S
C1225 C1227 1.387 . S
H1226 C1233 0.950 . S
C1227 C1225 1.387 . S
C1227 C1229 1.390 . S
C1227 H1231 0.950 . S
H1228 C1224 0.950 . S
C1229 C1227 1.390 . S
C1229 C1230 1.387 . S
C1229 H1232 0.950 . S
C1230 C1229 1.387 . S
C1230 C1233 1.387 . S
H1231 C1227 0.950 . S
H1232 C1229 0.950 . S
C1233 C1224 1.390 . S
C1233 H1226 0.950 . S
C1233 C1230 1.387 . S
C1234 C1235 1.387 1_655 S
C1234 H1238 0.950 . S
C1234 C1243 1.390 1_655 S
C1235 C1234 1.387 1_455 S
C1235 C1237 1.387 . S
H1236 C1243 0.950 . S
C1237 C1235 1.387 . S
C1237 C1239 1.390 . S
C1237 H1241 0.950 . S
H1238 C1234 0.950 . S
C1239 C1237 1.390 . S
C1239 C1240 1.387 . S
C1239 H1242 0.950 . S
C1240 C1239 1.387 . S
C1240 C1243 1.387 . S
H1241 C1237 0.950 . S
H1242 C1239 0.950 . S
C1243 C1234 1.390 1_455 S
C1243 H1236 0.950 . S
C1243 C1240 1.387 . S
C1244 C1245 1.387 . S
C1244 H1248 0.950 . S
C1244 C1253 1.390 . S
C1245 C1244 1.387 . S
C1245 C1247 1.387 . S
H1246 C1253 0.950 . S
C1247 C1245 1.387 . S
C1247 C1249 1.390 . S
C1247 H1251 0.950 . S
H1248 C1244 0.950 . S
C1249 C1247 1.390 . S
C1249 C1250 1.387 . S
C1249 H1252 0.950 . S
C1250 C1249 1.387 . S
C1250 C1253 1.387 . S
H1251 C1247 0.950 . S
H1252 C1249 0.950 . S
C1253 C1244 1.390 . S
C1253 H1246 0.950 . S
C1253 C1250 1.387 . S
C1254 C1255 1.387 . S
C1254 H1258 0.950 . S
C1254 C1263 1.390 . S
C1255 C1254 1.387 . S
C1255 C1257 1.387 . S
H1256 C1263 0.950 . S
C1257 C1255 1.387 . S
C1257 C1259 1.390 . S
C1257 H1261 0.950 . S
H1258 C1254 0.950 . S
C1259 C1257 1.390 . S
C1259 C1260 1.387 . S
C1259 H1262 0.950 . S
C1260 C1259 1.387 . S
C1260 C1263 1.387 . S
H1261 C1257 0.950 . S
H1262 C1259 0.950 . S
C1263 C1254 1.390 . S
C1263 H1256 0.950 . S
C1263 C1260 1.387 . S
C1264 C1265 1.387 . S
C1264 H1268 0.950 . S
C1264 C1273 1.390 . S
C1265 C1264 1.387 . S
C1265 C1267 1.387 . S
H1266 C1273 0.950 . S
C1267 C1265 1.387 . S
C1267 C1269 1.390 . S
C1267 H1271 0.950 . S
H1268 C1264 0.950 . S
C1269 C1267 1.390 . S
C1269 C1270 1.387 . S
C1269 H1272 0.950 . S
C1270 C1269 1.387 . S
C1270 C1273 1.387 . S
H1271 C1267 0.950 . S
H1272 C1269 0.950 . S
C1273 C1264 1.390 . S
C1273 H1266 0.950 . S
C1273 C1270 1.387 . S
C1274 C1275 1.387 . S
C1274 H1278 0.950 . S
C1274 C1283 1.390 . S
C1275 C1274 1.387 . S
C1275 C1277 1.387 . S
H1276 C1283 0.950 . S
C1277 C1275 1.387 . S
C1277 C1279 1.390 . S
C1277 H1281 0.950 . S
H1278 C1274 0.950 . S
C1279 C1277 1.390 . S
C1279 C1280 1.387 . S
C1279 H1282 0.950 . S
C1280 C1279 1.387 . S
C1280 C1283 1.387 . S
H1281 C1277 0.950 . S
H1282 C1279 0.950 . S
C1283 C1274 1.390 . S
C1283 H1276 0.950 . S
C1283 C1280 1.387 . S
C1284 C1285 1.387 . S
C1284 H1288 0.950 . S
C1284 C1293 1.390 . S
C1285 C1284 1.387 . S
C1285 C1287 1.387 . S
H1286 C1293 0.950 . S
C1287 C1285 1.387 . S
C1287 C1289 1.390 . S
C1287 H1291 0.950 . S
H1288 C1284 0.950 . S
C1289 C1287 1.390 . S
C1289 C1290 1.387 . S
C1289 H1292 0.950 . S
C1290 C1289 1.387 . S
C1290 C1293 1.387 . S
H1291 C1287 0.950 . S
H1292 C1289 0.950 . S
C1293 C1284 1.390 . S
C1293 H1286 0.950 . S
C1293 C1290 1.387 . S
C1294 C1295 1.387 . S
C1294 H1298 0.950 . S
C1294 C1303 1.390 . S
C1295 C1294 1.387 . S
C1295 C1297 1.387 . S
H1296 C1303 0.950 . S
C1297 C1295 1.387 . S
C1297 C1299 1.390 . S
C1297 H1301 0.950 . S
H1298 C1294 0.950 . S
C1299 C1297 1.390 . S
C1299 C1300 1.387 . S
C1299 H1302 0.950 1_655 S
C1300 C1299 1.387 . S
C1300 C1303 1.387 . S
H1301 C1297 0.950 . S
H1302 C1299 0.950 1_455 S
C1303 C1294 1.390 . S
C1303 H1296 0.950 . S
C1303 C1300 1.387 . S
C1304 C1305 1.387 . S
C1304 H1308 0.950 . S
C1304 C1313 1.390 . S
C1305 C1304 1.387 . S
C1305 C1307 1.387 . S
H1306 C1313 0.950 . S
C1307 C1305 1.387 . S
C1307 C1309 1.390 . S
C1307 H1311 0.950 . S
H1308 C1304 0.950 . S
C1309 C1307 1.390 . S
C1309 C1310 1.387 . S
C1309 H1312 0.950 . S
C1310 C1309 1.387 . S
C1310 C1313 1.387 . S
H1311 C1307 0.950 . S
H1312 C1309 0.950 . S
C1313 C1304 1.390 . S
C1313 H1306 0.950 . S
C1313 C1310 1.387 . S
C1314 C1315 1.387 . S
C1314 H1318 0.950 . S
C1314 C1323 1.390 . S
C1315 C1314 1.387 . S
C1315 C1317 1.387 . S
H1316 C1323 0.950 . S
C1317 C1315 1.387 . S
C1317 C1319 1.390 . S
C1317 H1321 0.950 . S
H1318 C1314 0.950 . S
C1319 C1317 1.390 . S
C1319 C1320 1.387 . S
C1319 H1322 0.950 . S
C1320 C1319 1.387 . S
C1320 C1323 1.387 . S
H1321 C1317 0.950 . S
H1322 C1319 0.950 . S
C1323 C1314 1.390 . S
C1323 H1316 0.950 . S
C1323 C1320 1.387 . S
C1324 C1325 1.387 . S
C1324 H1328 0.950 . S
C1324 C1333 1.390 . S
C1325 C1324 1.387 . S
C1325 C1327 1.387 . S
H1326 C1333 0.950 . S
C1327 C1325 1.387 . S
C1327 C1329 1.390 . S
C1327 H1331 0.950 . S
H1328 C1324 0.950 . S
C1329 C1327 1.390 . S
C1329 C1330 1.387 . S
C1329 H1332 0.950 . S
C1330 C1329 1.387 . S
C1330 C1333 1.387 . S
H1331 C1327 0.950 . S
H1332 C1329 0.950 . S
C1333 C1324 1.390 . S
C1333 H1326 0.950 . S
C1333 C1330 1.387 . S
C1334 C1335 1.387 . S
C1334 H1338 0.950 . S
C1334 C1343 1.390 . S
C1335 C1334 1.387 . S
C1335 C1337 1.387 . S
H1336 C1343 0.950 . S
C1337 C1335 1.387 . S
C1337 C1339 1.390 . S
C1337 H1341 0.950 . S
H1338 C1334 0.950 . S
C1339 C1337 1.390 . S
C1339 C1340 1.387 . S
C1339 H1342 0.950 . S
C1340 C1339 1.387 . S
C1340 C1343 1.387 . S
H1341 C1337 0.950 . S
H1342 C1339 0.950 . S
C1343 C1334 1.390 . S
C1343 H1336 0.950 . S
C1343 C1340 1.387 . S
C1344 C1345 1.387 . S
C1344 H1348 0.950 . S
C1344 C1353 1.390 1_455 S
C1345 C1344 1.387 . S
C1345 C1347 1.387 . S
H1346 C1353 0.950 . S
C1347 C1345 1.387 . S
C1347 C1349 1.390 1_455 S
C1347 H1351 0.950 . S
H1348 C1344 0.950 . S
C1349 C1347 1.390 1_655 S
C1349 C1350 1.387 . S
C1349 H1352 0.950 . S
C1350 C1349 1.387 . S
C1350 C1353 1.387 . S
H1351 C1347 0.950 . S
H1352 C1349 0.950 . S
C1353 C1344 1.390 1_655 S
C1353 H1346 0.950 . S
C1353 C1350 1.387 . S
C1354 C1355 1.387 . S
C1354 H1358 0.950 . S
C1354 C1363 1.390 1_455 S
C1355 C1354 1.387 . S
C1355 C1357 1.387 . S
H1356 C1363 0.950 . S
C1357 C1355 1.387 . S
C1357 C1359 1.390 1_455 S
C1357 H1361 0.950 . S
H1358 C1354 0.950 . S
C1359 C1357 1.390 1_655 S
C1359 C1360 1.387 . S
C1359 H1362 0.950 . S
C1360 C1359 1.387 . S
C1360 C1363 1.387 . S
H1361 C1357 0.950 . S
H1362 C1359 0.950 . S
C1363 C1354 1.390 1_655 S
C1363 H1356 0.950 . S
C1363 C1360 1.387 . S
C1364 C1365 1.387 . S
C1364 H1368 0.950 . S
C1364 C1373 1.390 . S
C1365 C1364 1.387 . S
C1365 C1367 1.387 . S
H1366 C1373 0.950 . S
C1367 C1365 1.387 . S
C1367 C1369 1.390 . S
C1367 H1371 0.950 . S
H1368 C1364 0.950 . S
C1369 C1367 1.390 . S
C1369 C1370 1.387 . S
C1369 H1372 0.950 . S
C1370 C1369 1.387 . S
C1370 C1373 1.387 . S
H1371 C1367 0.950 . S
H1372 C1369 0.950 . S
C1373 C1364 1.390 . S
C1373 H1366 0.950 . S
C1373 C1370 1.387 . S
C1374 C1375 1.387 1_556 S
C1374 H1378 0.950 . S
C1374 C1383 1.390 . S
C1375 C1374 1.387 1_554 S
C1375 C1377 1.387 . S
H1376 C1383 0.950 . S
C1377 C1375 1.387 . S
C1377 C1379 1.390 . S
C1377 H1381 0.950 . S
H1378 C1374 0.950 . S
C1379 C1377 1.390 . S
C1379 C1380 1.387 . S
C1379 H1382 0.950 . S
C1380 C1379 1.387 . S
C1380 C1383 1.387 1_554 S
H1381 C1377 0.950 . S
H1382 C1379 0.950 . S
C1383 C1374 1.390 . S
C1383 H1376 0.950 . S
C1383 C1380 1.387 1_556 S
C1384 C1385 1.387 . S
C1384 H1388 0.950 . S
C1384 C1393 1.390 1_655 S
C1385 C1384 1.387 . S
C1385 C1387 1.387 . S
H1386 C1393 0.950 . S
C1387 C1385 1.387 . S
C1387 C1389 1.390 1_655 S
C1387 H1391 0.950 . S
H1388 C1384 0.950 . S
C1389 C1387 1.390 1_455 S
C1389 C1390 1.387 . S
C1389 H1392 0.950 . S
C1390 C1389 1.387 . S
C1390 C1393 1.387 . S
H1391 C1387 0.950 . S
H1392 C1389 0.950 . S
C1393 C1384 1.390 1_455 S
C1393 H1386 0.950 . S
C1393 C1390 1.387 . S
C1394 C1395 1.387 . S
C1394 H1398 0.950 . S
C1394 C1403 1.390 . S
C1395 C1394 1.387 . S
C1395 C1397 1.387 . S
H1396 C1403 0.950 . S
C1397 C1395 1.387 . S
C1397 C1399 1.390 . S
C1397 H1401 0.950 . S
H1398 C1394 0.950 . S
C1399 C1397 1.390 . S
C1399 C1400 1.387 . S
C1399 H1402 0.950 . S
C1400 C1399 1.387 . S
C1400 C1403 1.387 . S
H1401 C1397 0.950 . S
H1402 C1399 0.950 . S
C1403 C1394 1.390 . S
C1403 H1396 0.950 . S
C1403 C1400 1.387 . S
C1404 C1405 1.387 . S
C1404 H1408 0.950 . S
C1404 C1413 1.390 . S
C1405 C1404 1.387 . S
C1405 C1407 1.387 . S
H1406 C1413 0.950 . S
C1407 C1405 1.387 . S
C1407 C1409 1.390 . S
C1407 H1411 0.950 . S
H1408 C1404 0.950 . S
C1409 C1407 1.390 . S
C1409 C1410 1.387 . S
C1409 H1412 0.950 . S
C1410 C1409 1.387 . S
C1410 C1413 1.387 . S
H1411 C1407 0.950 . S
H1412 C1409 0.950 . S
C1413 C1404 1.390 . S
C1413 H1406 0.950 . S
C1413 C1410 1.387 . S
C1414 C1415 1.387 1_554 S
C1414 H1418 0.950 . S
C1414 C1423 1.390 1_655 S
C1415 C1414 1.387 1_556 S
C1415 C1417 1.387 . S
H1416 C1423 0.950 . S
C1417 C1415 1.387 . S
C1417 C1419 1.390 1_655 S
C1417 H1421 0.950 . S
H1418 C1414 0.950 . S
C1419 C1417 1.390 1_455 S
C1419 C1420 1.387 . S
C1419 H1422 0.950 . S
C1420 C1419 1.387 . S
C1420 C1423 1.387 1_556 S
H1421 C1417 0.950 . S
H1422 C1419 0.950 . S
C1423 C1414 1.390 1_455 S
C1423 H1416 0.950 . S
C1423 C1420 1.387 1_554 S
C1424 C1425 1.387 . S
C1424 H1428 0.950 . S
C1424 C1433 1.390 1_455 S
C1425 C1424 1.387 . S
C1425 C1427 1.387 . S
H1426 C1433 0.950 . S
C1427 C1425 1.387 . S
C1427 C1429 1.390 1_455 S
C1427 H1431 0.950 . S
H1428 C1424 0.950 . S
C1429 C1427 1.390 1_655 S
C1429 C1430 1.387 . S
C1429 H1432 0.950 . S
C1430 C1429 1.387 . S
C1430 C1433 1.387 . S
H1431 C1427 0.950 . S
H1432 C1429 0.950 . S
C1433 C1424 1.390 1_655 S
C1433 H1426 0.950 . S
C1433 C1430 1.387 . S
C1434 C1435 1.387 . S
C1434 H1438 0.950 . S
C1434 C1443 1.390 1_455 S
C1435 C1434 1.387 . S
C1435 C1437 1.387 . S
H1436 C1443 0.950 . S
C1437 C1435 1.387 . S
C1437 C1439 1.390 1_455 S
C1437 H1441 0.950 . S
H1438 C1434 0.950 . S
C1439 C1437 1.390 1_655 S
C1439 C1440 1.387 . S
C1439 H1442 0.950 . S
C1440 C1439 1.387 . S
C1440 C1443 1.387 . S
H1441 C1437 0.950 . S
H1442 C1439 0.950 . S
C1443 C1434 1.390 1_655 S
C1443 H1436 0.950 . S
C1443 C1440 1.387 . S
C1444 C1445 1.387 . S
C1444 H1448 0.950 . S
C1444 C1453 1.390 . S
C1445 C1444 1.387 . S
C1445 C1447 1.387 . S
H1446 C1453 0.950 . S
C1447 C1445 1.387 . S
C1447 C1449 1.390 . S
C1447 H1451 0.950 . S
H1448 C1444 0.950 . S
C1449 C1447 1.390 . S
C1449 C1450 1.387 . S
C1449 H1452 0.950 . S
C1450 C1449 1.387 . S
C1450 C1453 1.387 . S
H1451 C1447 0.950 . S
H1452 C1449 0.950 . S
C1453 C1444 1.390 . S
C1453 H1446 0.950 . S
C1453 C1450 1.387 . S
C1454 C1455 1.387 1_554 S
C1454 H1458 0.950 . S
C1454 C1463 1.390 . S
C1455 C1454 1.387 1_556 S
C1455 C1457 1.387 . S
H1456 C1463 0.950 . S
C1457 C1455 1.387 . S
C1457 C1459 1.390 . S
C1457 H1461 0.950 . S
H1458 C1454 0.950 . S
C1459 C1457 1.390 . S
C1459 C1460 1.387 . S
C1459 H1462 0.950 . S
C1460 C1459 1.387 . S
C1460 C1463 1.387 1_556 S
H1461 C1457 0.950 . S
H1462 C1459 0.950 . S
C1463 C1454 1.390 . S
C1463 H1456 0.950 . S
C1463 C1460 1.387 1_554 S
C1464 C1465 1.387 . S
C1464 H1468 0.950 . S
C1464 C1473 1.390 1_655 S
C1465 C1464 1.387 . S
C1465 C1467 1.387 . S
H1466 C1473 0.950 . S
C1467 C1465 1.387 . S
C1467 C1469 1.390 1_655 S
C1467 H1471 0.950 . S
H1468 C1464 0.950 . S
C1469 C1467 1.390 1_455 S
C1469 C1470 1.387 . S
C1469 H1472 0.950 . S
C1470 C1469 1.387 . S
C1470 C1473 1.387 . S
H1471 C1467 0.950 . S
H1472 C1469 0.950 . S
C1473 C1464 1.390 1_455 S
C1473 H1466 0.950 . S
C1473 C1470 1.387 . S
C1474 C1475 1.387 . S
C1474 H1478 0.950 . S
C1474 C1483 1.390 . S
C1475 C1474 1.387 . S
C1475 C1477 1.387 . S
H1476 C1483 0.950 . S
C1477 C1475 1.387 . S
C1477 C1479 1.390 . S
C1477 H1481 0.950 . S
H1478 C1474 0.950 . S
C1479 C1477 1.390 . S
C1479 C1480 1.387 . S
C1479 H1482 0.950 . S
C1480 C1479 1.387 . S
C1480 C1483 1.387 . S
H1481 C1477 0.950 . S
H1482 C1479 0.950 . S
C1483 C1474 1.390 . S
C1483 H1476 0.950 . S
C1483 C1480 1.387 . S
C1484 C1485 1.387 . S
C1484 H1488 0.950 . S
C1484 C1493 1.390 . S
C1485 C1484 1.387 . S
C1485 C1487 1.387 . S
H1486 C1493 0.950 . S
C1487 C1485 1.387 . S
C1487 C1489 1.390 . S
C1487 H1491 0.950 . S
H1488 C1484 0.950 . S
C1489 C1487 1.390 . S
C1489 C1490 1.387 . S
C1489 H1492 0.950 . S
C1490 C1489 1.387 . S
C1490 C1493 1.387 . S
H1491 C1487 0.950 . S
H1492 C1489 0.950 . S
C1493 C1484 1.390 . S
C1493 H1486 0.950 . S
C1493 C1490 1.387 . S
C1494 C1495 1.387 1_556 S
C1494 H1498 0.950 . S
C1494 C1503 1.390 1_655 S
C1495 C1494 1.387 1_554 S
C1495 C1497 1.387 . S
H1496 C1503 0.950 . S
C1497 C1495 1.387 . S
C1497 C1499 1.390 1_655 S
C1497 H1501 0.950 . S
H1498 C1494 0.950 . S
C1499 C1497 1.390 1_455 S
C1499 C1500 1.387 . S
C1499 H1502 0.950 . S
C1500 C1499 1.387 . S
C1500 C1503 1.387 1_554 S
H1501 C1497 0.950 . S
H1502 C1499 0.950 . S
C1503 C1494 1.390 1_455 S
C1503 H1496 0.950 . S
C1503 C1500 1.387 1_556 S
C1504 C1505 1.387 . S
C1504 H1508 0.950 . S
C1504 C1513 1.390 . S
C1505 C1504 1.387 . S
C1505 C1507 1.387 . S
H1506 C1513 0.950 . S
C1507 C1505 1.387 . S
C1507 C1509 1.390 . S
C1507 H1511 0.950 . S
H1508 C1504 0.950 . S
C1509 C1507 1.390 . S
C1509 C1510 1.387 . S
C1509 H1512 0.950 . S
C1510 C1509 1.387 . S
C1510 C1513 1.387 . S
H1511 C1507 0.950 . S
H1512 C1509 0.950 . S
C1513 C1504 1.390 . S
C1513 H1506 0.950 . S
C1513 C1510 1.387 . S
C1514 C1515 1.387 . S
C1514 H1518 0.950 . S
C1514 C1523 1.390 . S
C1515 C1514 1.387 . S
C1515 C1517 1.387 . S
H1516 C1523 0.950 . S
C1517 C1515 1.387 . S
C1517 C1519 1.390 . S
C1517 H1521 0.950 . S
H1518 C1514 0.950 . S
C1519 C1517 1.390 . S
C1519 C1520 1.387 . S
C1519 H1522 0.950 . S
C1520 C1519 1.387 . S
C1520 C1523 1.387 . S
H1521 C1517 0.950 . S
H1522 C1519 0.950 . S
C1523 C1514 1.390 . S
C1523 H1516 0.950 . S
C1523 C1520 1.387 . S
C1524 C1525 1.387 . S
C1524 H1528 0.950 . S
C1524 C1533 1.390 . S
C1525 C1524 1.387 . S
C1525 C1527 1.387 . S
H1526 C1533 0.950 . S
C1527 C1525 1.387 . S
C1527 C1529 1.390 . S
C1527 H1531 0.950 . S
H1528 C1524 0.950 . S
C1529 C1527 1.390 . S
C1529 C1530 1.387 . S
C1529 H1532 0.950 . S
C1530 C1529 1.387 . S
C1530 C1533 1.387 . S
H1531 C1527 0.950 . S
H1532 C1529 0.950 . S
C1533 C1524 1.390 . S
C1533 H1526 0.950 . S
C1533 C1530 1.387 . S
C1534 C1535 1.387 . S
C1534 H1538 0.950 . S
C1534 C1543 1.390 . S
C1535 C1534 1.387 . S
C1535 C1537 1.387 . S
H1536 C1543 0.950 . S
C1537 C1535 1.387 . S
C1537 C1539 1.390 . S
C1537 H1541 0.950 . S
H1538 C1534 0.950 . S
C1539 C1537 1.390 . S
C1539 C1540 1.387 . S
C1539 H1542 0.950 . S
C1540 C1539 1.387 . S
C1540 C1543 1.387 . S
H1541 C1537 0.950 . S
H1542 C1539 0.950 . S
C1543 C1534 1.390 . S
C1543 H1536 0.950 . S
C1543 C1540 1.387 . S
C1544 C1545 1.387 . S
C1544 H1548 0.950 . S
C1544 C1553 1.390 . S
C1545 C1544 1.387 . S
C1545 C1547 1.387 . S
H1546 C1553 0.950 . S
C1547 C1545 1.387 . S
C1547 C1549 1.390 . S
C1547 H1551 0.950 . S
H1548 C1544 0.950 . S
C1549 C1547 1.390 . S
C1549 C1550 1.387 . S
C1549 H1552 0.950 . S
C1550 C1549 1.387 . S
C1550 C1553 1.387 . S
H1551 C1547 0.950 . S
H1552 C1549 0.950 . S
C1553 C1544 1.390 . S
C1553 H1546 0.950 . S
C1553 C1550 1.387 . S
C1554 C1555 1.387 . S
C1554 H1558 0.950 . S
C1554 C1563 1.390 . S
C1555 C1554 1.387 . S
C1555 C1557 1.387 . S
H1556 C1563 0.950 . S
C1557 C1555 1.387 . S
C1557 C1559 1.390 . S
C1557 H1561 0.950 . S
H1558 C1554 0.950 . S
C1559 C1557 1.390 . S
C1559 C1560 1.387 . S
C1559 H1562 0.950 . S
C1560 C1559 1.387 . S
C1560 C1563 1.387 . S
H1561 C1557 0.950 . S
H1562 C1559 0.950 . S
C1563 C1554 1.390 . S
C1563 H1556 0.950 . S
C1563 C1560 1.387 . S
C1564 C1565 1.387 . S
C1564 H1568 0.950 . S
C1564 C1573 1.390 . S
C1565 C1564 1.387 . S
C1565 C1567 1.387 . S
H1566 C1573 0.950 . S
C1567 C1565 1.387 . S
C1567 C1569 1.390 . S
C1567 H1571 0.950 . S
H1568 C1564 0.950 . S
C1569 C1567 1.390 . S
C1569 C1570 1.387 . S
C1569 H1572 0.950 . S
C1570 C1569 1.387 . S
C1570 C1573 1.387 . S
H1571 C1567 0.950 . S
H1572 C1569 0.950 . S
C1573 C1564 1.390 . S
C1573 H1566 0.950 . S
C1573 C1570 1.387 . S
C1574 C1575 1.387 . S
C1574 H1578 0.950 . S
C1574 C1583 1.390 . S
C1575 C1574 1.387 . S
C1575 C1577 1.387 . S
H1576 C1583 0.950 . S
C1577 C1575 1.387 . S
C1577 C1579 1.390 . S
C1577 H1581 0.950 . S
H1578 C1574 0.950 . S
C1579 C1577 1.390 . S
C1579 C1580 1.387 . S
C1579 H1582 0.950 . S
C1580 C1579 1.387 . S
C1580 C1583 1.387 . S
H1581 C1577 0.950 . S
H1582 C1579 0.950 . S
C1583 C1574 1.390 . S
C1583 H1576 0.950 . S
C1583 C1580 1.387 . S
C1584 C1585 1.387 . S
C1584 H1588 0.950 . S
C1584 C1593 1.390 . S
C1585 C1584 1.387 . S
C1585 C1587 1.387 . S
H1586 C1593 0.950 . S
C1587 C1585 1.387 . S
C1587 C1589 1.390 . S
C1587 H1591 0.950 . S
H1588 C1584 0.950 . S
C1589 C1587 1.390 . S
C1589 C1590 1.387 . S
C1589 H1592 0.950 . S
C1590 C1589 1.387 . S
C1590 C1593 1.387 . S
H1591 C1587 0.950 . S
H1592 C1589 0.950 . S
C1593 C1584 1.390 . S
C1593 H1586 0.950 . S
C1593 C1590 1.387 . S
C1594 C1595 1.387 . S
C1594 H1598 0.950 . S
C1594 C1603 1.390 . S
C1595 C1594 1.387 . S
C1595 C1597 1.387 . S
H1596 C1603 0.950 . S
C1597 C1595 1.387 . S
C1597 C1599 1.390 . S
C1597 H1601 0.950 . S
H1598 C1594 0.950 . S
C1599 C1597 1.390 . S
C1599 C1600 1.387 . S
C1599 H1602 0.950 . S
C1600 C1599 1.387 . S
C1600 C1603 1.387 . S
H1601 C1597 0.950 . S
H1602 C1599 0.950 . S
C1603 C1594 1.390 . S
C1603 H1596 0.950 . S
C1603 C1600 1.387 . S
C1604 C1605 1.387 . S
C1604 H1608 0.950 . S
C1604 C1613 1.390 . S
C1605 C1604 1.387 . S
C1605 C1607 1.387 . S
H1606 C1613 0.950 . S
C1607 C1605 1.387 . S
C1607 C1609 1.390 . S
C1607 H1611 0.950 . S
H1608 C1604 0.950 . S
C1609 C1607 1.390 . S
C1609 C1610 1.387 . S
C1609 H1612 0.950 . S
C1610 C1609 1.387 . S
C1610 C1613 1.387 . S
H1611 C1607 0.950 . S
H1612 C1609 0.950 . S
C1613 C1604 1.390 . S
C1613 H1606 0.950 . S
C1613 C1610 1.387 . S
C1614 C1615 1.387 . S
C1614 H1618 0.950 . S
C1614 C1623 1.390 . S
C1615 C1614 1.387 . S
C1615 C1617 1.387 . S
H1616 C1623 0.950 . S
C1617 C1615 1.387 . S
C1617 C1619 1.390 . S
C1617 H1621 0.950 . S
H1618 C1614 0.950 . S
C1619 C1617 1.390 . S
C1619 C1620 1.387 . S
C1619 H1622 0.950 . S
C1620 C1619 1.387 . S
C1620 C1623 1.387 . S
H1621 C1617 0.950 . S
H1622 C1619 0.950 . S
C1623 C1614 1.390 . S
C1623 H1616 0.950 . S
C1623 C1620 1.387 . S
C1624 C1625 1.387 . S
C1624 H1628 0.950 . S
C1624 C1633 1.390 . S
C1625 C1624 1.387 . S
C1625 C1627 1.387 . S
H1626 C1633 0.950 . S
C1627 C1625 1.387 . S
C1627 C1629 1.390 . S
C1627 H1631 0.950 . S
H1628 C1624 0.950 . S
C1629 C1627 1.390 . S
C1629 C1630 1.387 . S
C1629 H1632 0.950 . S
C1630 C1629 1.387 . S
C1630 C1633 1.387 . S
H1631 C1627 0.950 . S
H1632 C1629 0.950 . S
C1633 C1624 1.390 . S
C1633 H1626 0.950 . S
C1633 C1630 1.387 . S
C1634 C1635 1.387 . S
C1634 H1638 0.950 . S
C1634 C1643 1.390 . S
C1635 C1634 1.387 . S
C1635 C1637 1.387 . S
H1636 C1643 0.950 . S
C1637 C1635 1.387 . S
C1637 C1639 1.390 . S
C1637 H1641 0.950 . S
H1638 C1634 0.950 . S
C1639 C1637 1.390 . S
C1639 C1640 1.387 . S
C1639 H1642 0.950 . S
C1640 C1639 1.387 . S
C1640 C1643 1.387 . S
H1641 C1637 0.950 . S
H1642 C1639 0.950 . S
C1643 C1634 1.390 . S
C1643 H1636 0.950 . S
C1643 C1640 1.387 . S
C1644 C1645 1.387 . S
C1644 H1648 0.950 . S
C1644 C1653 1.390 . S
C1645 C1644 1.387 . S
C1645 C1647 1.387 . S
H1646 C1653 0.950 . S
C1647 C1645 1.387 . S
C1647 C1649 1.390 . S
C1647 H1651 0.950 . S
H1648 C1644 0.950 . S
C1649 C1647 1.390 . S
C1649 C1650 1.387 . S
C1649 H1652 0.950 . S
C1650 C1649 1.387 . S
C1650 C1653 1.387 . S
H1651 C1647 0.950 . S
H1652 C1649 0.950 . S
C1653 C1644 1.390 . S
C1653 H1646 0.950 . S
C1653 C1650 1.387 . S
C1654 C1655 1.387 . S
C1654 H1658 0.950 . S
C1654 C1663 1.390 . S
C1655 C1654 1.387 . S
C1655 C1657 1.387 . S
H1656 C1663 0.950 . S
C1657 C1655 1.387 . S
C1657 C1659 1.390 . S
C1657 H1661 0.950 . S
H1658 C1654 0.950 . S
C1659 C1657 1.390 . S
C1659 C1660 1.387 . S
C1659 H1662 0.950 . S
C1660 C1659 1.387 . S
C1660 C1663 1.387 . S
H1661 C1657 0.950 . S
H1662 C1659 0.950 . S
C1663 C1654 1.390 . S
C1663 H1656 0.950 . S
C1663 C1660 1.387 . S
C705 C9 1.899 . S
C710 C97 1.899 . S
C715 C119 1.898 . S
C720 C27 1.898 . S
C725 C141 1.898 . S
C730 C49 1.898 . S
C735 C71 1.898 . S
C740 C163 1.898 . S
C745 C183 1.899 . S
C750 C271 1.899 . S
C755 C205 1.899 . S
C760 C292 1.899 . S
C765 C227 1.898 . S
C770 C314 1.898 . S
C775 C336 1.898 . S
C780 C249 1.898 . S
C785 C361 1.898 . S
C790 C449 1.898 . S
C795 C471 1.898 . S
C800 C379 1.898 . S
C805 C401 1.898 . S
C810 C493 1.898 . S
C815 C515 1.898 . S
C820 C423 1.898 . S
C825 C535 1.898 . S
C830 C623 1.898 . S
C835 C557 1.898 . S
C840 C644 1.898 . S
C845 C579 1.899 . S
C850 C666 1.899 . S
C855 C601 1.898 . S
C860 C688 1.898 . S
C865 C537 1.685 . S
C870 C7 1.685 . S
C875 C207 1.689 . S
C880 C28 1.689 . S
C885 C50 1.685 . S
C890 C581 1.685 . S
C895 C72 1.684 . S
C900 C251 1.684 . S
C905 C95 1.685 . S
C910 C625 1.685 . S
C915 C117 1.689 . S
C920 C291 1.689 . S
C925 C665 1.689 . S
C930 C139 1.689 . S
C935 C335 1.684 . S
C940 C161 1.684 . S
C945 C359 1.689 . S
C950 C185 1.689 . S
C955 C229 1.684 . S
C960 C402 1.684 . S
C965 C273 1.685 . S
C970 C447 1.685 . S
C975 C491 1.689 . S
C980 C313 1.689 . S
C985 C380 1.684 . S
C990 C559 1.684 . S
C995 C603 1.684 . S
C1000 C424 1.684 . S
C1005 C643 1.689 . S
C1010 C469 1.689 . S
C1015 C513 1.689 . S
C1020 C687 1.689 . S
C1025 C5 1.167 . S
C1030 C599 1.166 . S
C1035 C31 1.167 1_655 S
C1040 C181 1.166 . S
C1045 C53 1.167 . S
C1050 C555 1.166 . S
C1055 C225 1.166 . S
C1060 C75 1.167 . S
C1065 C647 1.166 . S
C1070 C93 1.167 . S
C1075 C115 1.167 . S
C1080 C317 1.166 . S
C1085 C691 1.166 . S
C1090 C137 1.167 . S
C1095 C269 1.166 . S
C1100 C159 1.167 1_655 S
C1105 C425 1.166 . S
C1110 C182 1.167 . S
C1115 C204 1.167 1_455 S
C1120 C6 1.166 . S
C1125 C381 1.166 . S
C1130 C226 1.167 . S
C1135 C51 1.166 . S
C1140 C248 1.167 . S
C1145 C468 1.166 . S
C1150 C270 1.167 . S
C1155 C293 1.167 . S
C1160 C138 1.166 . S
C1165 C315 1.167 . S
C1170 C512 1.166 . S
C1175 C94 1.166 . S
C1180 C337 1.167 1_455 S
C1185 C357 1.167 . S
C1190 C247 1.166 . S
C1195 C383 1.167 . S
C1200 C533 1.166 . S
C1205 C203 1.166 . S
C1210 C405 1.167 . S
C1215 C427 1.167 1_455 S
C1220 C577 1.166 . S
C1225 C295 1.166 . S
C1230 C445 1.167 . S
C1235 C467 1.167 1_455 S
C1240 C669 1.166 . S
C1245 C339 1.166 . S
C1250 C489 1.167 . S
C1255 C511 1.167 . S
C1260 C621 1.166 . S
C1265 C73 1.166 . S
C1270 C534 1.167 . S
C1275 C556 1.167 . S
C1280 C358 1.166 . S
C1285 C578 1.167 . S
C1290 C29 1.166 . S
C1295 C403 1.166 . S
C1300 C600 1.167 1_655 S
C1305 C116 1.166 . S
C1310 C622 1.167 . S
C1315 C490 1.166 . S
C1320 C645 1.167 1_655 S
C1325 C667 1.167 . S
C1330 C160 1.166 . S
C1335 C446 1.166 . S
C1340 C689 1.167 . S
C1345 C4 0.779 . S
C1350 C404 0.779 . S
C1355 C30 0.779 . S
C1360 C426 0.779 . S
C1365 C52 0.777 . S
C1370 C356 0.777 . S
C1375 C74 0.777 . S
C1380 C382 0.777 . S
C1385 C488 0.779 . S
C1390 C92 0.779 . S
C1395 C510 0.777 . S
C1400 C114 0.777 . S
C1405 C136 0.777 . S
C1410 C444 0.777 . S
C1415 C466 0.777 . S
C1420 C158 0.777 . S
C1425 C576 0.777 . S
C1430 C180 0.777 . S
C1435 C598 0.777 . S
C1440 C202 0.777 . S
C1445 C532 0.777 . S
C1450 C224 0.777 . S
C1455 C246 0.779 . S
C1460 C554 0.779 . S
C1465 C268 0.777 . S
C1470 C668 0.777 . S
C1475 C690 0.777 . S
C1480 C294 0.777 . S
C1485 C620 0.777 . S
C1490 C316 0.777 . S
C1495 C338 0.779 . S
C1500 C646 0.779 . S
C1505 C162 1.699 . S
C1510 C8 1.699 . S
C1515 C26 1.699 . S
C1520 C96 1.701 . S
C1525 C48 1.701 . S
C1530 C118 1.700 . S
C1535 C140 1.699 . S
C1540 C70 1.700 . S
C1545 C334 1.699 . S
C1550 C184 1.701 . S
C1555 C206 1.700 . S
C1560 C272 1.701 . S
C1565 C290 1.699 . S
C1570 C228 1.701 . S
C1575 C312 1.701 . S
C1580 C250 1.701 . S
C1585 C514 1.700 . S
C1590 C360 1.699 . S
C1595 C448 1.699 . S
C1600 C378 1.700 . S
C1605 C470 1.699 . S
C1610 C400 1.700 . S
C1615 C422 1.699 . S
C1620 C492 1.701 . S
C1625 C686 1.701 . S
C1630 C536 1.701 . S
C1635 C624 1.701 . S
C1640 C558 1.700 . S
C1645 C642 1.700 . S
C1650 C580 1.699 . S
C1655 C602 1.700 . S
C1660 C664 1.701 . S
