# Generated by pormake.
# Topology sml, (6)-cn, num edge types: 1
# Building blocks:
#     Node 0, Type 0, BuildingBlock: BETDAH_clean_sbu_0, # of connection points: 6
#     Node 1, Type 0, BuildingBlock: BETDAH_clean_sbu_0, # of connection points: 6
#     Node 2, Type 0, BuildingBlock: BETDAH_clean_sbu_0, # of connection points: 6
#     Node 3, Type 0, BuildingBlock: BETDAH_clean_sbu_0, # of connection points: 6
#     Node 4, Type 0, BuildingBlock: BETDAH_clean_sbu_0, # of connection points: 6
#     Node 5, Type 0, BuildingBlock: BETDAH_clean_sbu_0, # of connection points: 6
#     Edge 6, Type (0, 0), BuildingBlock: MIFKUJ_clean_linker_0, # of connection points: 2
#     Edge 7, Type (0, 0), BuildingBlock: MIFKUJ_clean_linker_0, # of connection points: 2
#     Edge 8, Type (0, 0), BuildingBlock: MIFKUJ_clean_linker_0, # of connection points: 2
#     Edge 9, Type (0, 0), BuildingBlock: MIFKUJ_clean_linker_0, # of connection points: 2
#     Edge 10, Type (0, 0), BuildingBlock: MIFKUJ_clean_linker_0, # of connection points: 2
#     Edge 11, Type (0, 0), BuildingBlock: MIFKUJ_clean_linker_0, # of connection points: 2
#     Edge 12, Type (0, 0), BuildingBlock: MIFKUJ_clean_linker_0, # of connection points: 2
#     Edge 13, Type (0, 0), BuildingBlock: MIFKUJ_clean_linker_0, # of connection points: 2
#     Edge 14, Type (0, 0), BuildingBlock: MIFKUJ_clean_linker_0, # of connection points: 2
#     Edge 15, Type (0, 0), BuildingBlock: MIFKUJ_clean_linker_0, # of connection points: 2
#     Edge 16, Type (0, 0), BuildingBlock: MIFKUJ_clean_linker_0, # of connection points: 2
#     Edge 17, Type (0, 0), BuildingBlock: MIFKUJ_clean_linker_0, # of connection points: 2
#     Edge 18, Type (0, 0), BuildingBlock: MIFKUJ_clean_linker_0, # of connection points: 2
#     Edge 19, Type (0, 0), BuildingBlock: MIFKUJ_clean_linker_0, # of connection points: 2
#     Edge 20, Type (0, 0), BuildingBlock: MIFKUJ_clean_linker_0, # of connection points: 2
#     Edge 21, Type (0, 0), BuildingBlock: MIFKUJ_clean_linker_0, # of connection points: 2
#     Edge 22, Type (0, 0), BuildingBlock: MIFKUJ_clean_linker_0, # of connection points: 2
#     Edge 23, Type (0, 0), BuildingBlock: MIFKUJ_clean_linker_0, # of connection points: 2
# Relax obj value: 0.144
# Max RMSD: 0.194
# Mean RMSD: 0.194
data_MOF--net-sml--node1-BETDAH_clean_sbu_0--edge1-MIFKUJ_clean_linker_0
_symmetry_space_group_name_H-M    P1
_symmetry_Int_Tables_number       1
_symmetry_cell_setting            triclinic
loop_
_symmetry_equiv_pos_as_xyz
'x, y, z'
_cell_length_a     43.26702
_cell_length_b     43.267976
_cell_length_c     29.757624
_cell_angle_alpha  90.027926
_cell_angle_beta   89.921189
_cell_angle_gamma 120.02454
loop_
_atom_site_label
_atom_site_type_symbol
_atom_site_fract_x
_atom_site_fract_y
_atom_site_fract_z
_atom_type_partial_charge
Ho0 Ho 0.22519 0.43641 0.12271 0.0
Ho1 Ho 0.24688 0.40988 0.20915 0.0
C2 C 0.24311 0.3731 0.11543 0.0
C3 C 0.22465 0.46965 0.05063 0.0
C4 C 0.22085 0.46255 1.00186 0.0
C5 C 0.23429 0.49137 0.97185 0.0
C6 C 0.23389 0.4857 0.92549 0.0
C7 C 0.22001 0.45099 0.90809 0.0
C8 C 0.2061 0.42205 0.93835 0.0
C9 C 0.2067 0.42779 0.98483 0.0
C10 C 0.17256 0.37633 0.1612 0.0
C11 C 0.22586 0.47258 0.21747 0.0
C12 C 0.25418 0.39051 0.28892 0.0
C13 C 0.2456 0.39498 0.33595 0.0
C14 C 0.22912 0.36522 0.36454 0.0
C15 C 0.22367 0.36934 0.41011 0.0
C16 C 0.23479 0.4034 0.42817 0.0
C17 C 0.25037 0.43305 0.39913 0.0
C18 C 0.2557 0.42891 0.3536 0.0
C19 C 0.30008 0.45631 0.15536 0.0
O20 O 0.24582 0.40189 0.09611 0.0
O21 O 0.23713 0.36687 0.15914 0.0
O22 O 0.19636 0.45121 0.0759 0.0
O23 O 0.25363 0.47255 0.06833 0.0
O24 O 0.17471 0.38288 0.11834 0.0
O25 O 0.19694 0.40303 0.18121 0.0
O26 O 0.23389 0.45027 0.23792 0.0
O27 O 0.22198 0.47294 0.17337 0.0
O28 O 0.27874 0.4192 0.26862 0.0
O29 O 0.22747 0.37008 0.26242 0.0
O30 O 0.30083 0.43013 0.17556 0.0
O31 O 0.27213 0.45657 0.16568 0.0
H32 H 0.24567 0.51843 0.98435 0.0
H33 H 0.24446 0.50857 0.90325 0.0
H34 H 0.19563 0.39503 0.9262 0.0
H35 H 0.19676 0.40521 0.0075 0.0
H36 H 0.22123 0.33882 0.35185 0.0
H37 H 0.21184 0.34595 0.4315 0.0
H38 H 0.25873 0.45959 0.41168 0.0
H39 H 0.26843 0.45241 0.33247 0.0
Ho40 Ho 0.79745 0.23688 0.46297 0.0
Ho41 Ho 0.7867 0.18858 0.37939 0.0
C42 C 0.78995 0.15822 0.47472 0.0
C43 C 0.79066 0.25955 0.54082 0.0
C44 C 0.78576 0.24712 0.58801 0.0
C45 C 0.7587 0.24709 0.61408 0.0
C46 C 0.75488 0.23756 0.65955 0.0
C47 C 0.7782 0.22797 0.68007 0.0
C48 C 0.80446 0.22673 0.65335 0.0
C49 C 0.80816 0.23613 0.60783 0.0
C50 C 0.85673 0.24989 0.41878 0.0
C51 C 0.79442 0.26795 0.36814 0.0
C52 C 0.79267 0.16454 0.30204 0.0
C53 C 0.79146 0.17216 0.25385 0.0
C54 C 0.81379 0.1677 0.22361 0.0
C55 C 0.81193 0.17284 0.17748 0.0
C56 C 0.78751 0.1824 0.16042 0.0
C57 C 0.76571 0.18769 0.19108 0.0
C58 C 0.76772 0.1827 0.23732 0.0
C59 C 0.72718 0.17696 0.42261 0.0
O60 O 0.78702 0.18471 0.49234 0.0
O61 O 0.79447 0.15565 0.43117 0.0
O62 O 0.82158 0.26931 0.52195 0.0
O63 O 0.76382 0.24114 0.51373 0.0
O64 O 0.85278 0.27465 0.4381 0.0
O65 O 0.83026 0.21947 0.4265 0.0
O66 O 0.79571 0.24068 0.3496 0.0
O67 O 0.79074 0.27049 0.41189 0.0
O68 O 0.76268 0.15143 0.32447 0.0
O69 O 0.82005 0.18845 0.32495 0.0
O70 O 0.73036 0.15163 0.40372 0.0
O71 O 0.7545 0.20666 0.41507 0.0
H72 H 0.74077 0.25496 0.5994 0.0
H73 H 0.73379 0.23797 0.6787 0.0
H74 H 0.82301 0.21966 0.66791 0.0
H75 H 0.82902 0.23546 0.58843 0.0
H76 H 0.83249 0.15986 0.23566 0.0
H77 H 0.82974 0.16932 0.15519 0.0
H78 H 0.74643 0.19482 0.17931 0.0
H79 H 0.75034 0.18654 0.26003 0.0
Ho80 Ho 0.56547 0.78145 0.7729 0.0
Ho81 Ho 0.58338 0.82524 0.86212 0.0
C82 C 0.61833 0.86551 0.77105 0.0
C83 C 0.53876 0.74666 0.69912 0.0
C84 C 0.54908 0.75121 0.65132 0.0
C85 C 0.57378 0.78488 0.63397 0.0
C86 C 0.58105 0.78937 0.58781 0.0
C87 C 0.56381 0.76025 0.5581 0.0
C88 C 0.53991 0.72637 0.57604 0.0
C89 C 0.53257 0.72196 0.62215 0.0
C90 C 0.62861 0.79808 0.81162 0.0
C91 C 0.53087 0.73904 0.865 0.0
C92 C 0.6004 0.85252 0.94192 0.0
C93 C 0.60214 0.84186 0.98845 0.0
C94 C 0.58272 0.80607 1.00213 0.0
C95 C 0.58221 0.79699 0.04742 0.0
C96 C 0.60148 0.82353 0.07979 0.0
C97 C 0.62166 0.85927 0.06551 0.0
C98 C 0.6219 0.86829 0.02033 0.0
C99 C 0.53363 0.82626 0.80863 0.0
O100 O 0.59218 0.83818 0.74963 0.0
O101 O 0.62464 0.8643 0.81434 0.0
O102 O 0.55785 0.73938 0.72669 0.0
O103 O 0.5313 0.7703 0.71541 0.0
O104 O 0.62299 0.79506 0.76859 0.0
O105 O 0.5998 0.78961 0.83158 0.0
O106 O 0.55019 0.76907 0.88769 0.0
O107 O 0.53112 0.73741 0.82061 0.0
O108 O 0.56843 0.83936 0.92469 0.0
O109 O 0.62364 0.85295 0.91329 0.0
O110 O 0.5566 0.85373 0.83141 0.0
O111 O 0.53759 0.80002 0.81671 0.0
H112 H 0.58681 0.80785 0.65597 0.0
H113 H 0.59933 0.81589 0.5753 0.0
H114 H 0.52666 0.70322 0.5544 0.0
H115 H 0.51352 0.69576 0.63494 0.0
H116 H 0.5675 0.78528 0.97795 0.0
H117 H 0.56664 0.76919 0.0571 0.0
H118 H 0.63638 0.88049 0.08947 0.0
H119 H 0.63692 0.89611 0.01045 0.0
Ho120 Ho 0.75073 0.56388 0.13137 0.0
Ho121 Ho 0.8003 0.59625 0.04759 0.0
C122 C 0.83284 0.62995 0.14233 0.0
C123 C 0.7233 0.53546 0.2084 0.0
C124 C 0.73142 0.5426 0.25677 0.0
C125 C 0.76638 0.55729 0.27341 0.0
C126 C 0.77291 0.5624 0.31973 0.0
C127 C 0.74467 0.55314 0.35023 0.0
C128 C 0.70983 0.53888 0.33322 0.0
C129 C 0.70332 0.53363 0.28704 0.0
C130 C 0.74474 0.61402 0.08565 0.0
C131 C 0.71779 0.53097 0.0369 0.0
C132 C 0.82703 0.62233 0.96942 0.0
C133 C 0.81743 0.61234 0.92192 0.0
C134 C 0.78166 0.59265 0.90797 0.0
C135 C 0.77333 0.5839 0.86253 0.0
C136 C 0.80067 0.5944 0.83037 0.0
C137 C 0.83641 0.61365 0.84468 0.0
C138 C 0.84466 0.62259 0.88997 0.0
C139 C 0.80425 0.54419 0.09195 0.0
O140 O 0.80451 0.60247 0.16077 0.0
O141 O 0.83584 0.63612 0.09852 0.0
O142 O 0.71534 0.55693 0.18692 0.0
O143 O 0.74376 0.52721 0.18488 0.0
O144 O 0.71799 0.58694 0.10503 0.0
O145 O 0.7734 0.61432 0.0939 0.0
O146 O 0.74558 0.55907 0.01851 0.0
O147 O 0.71606 0.52384 0.08033 0.0
O148 O 0.83547 0.6019 0.99245 0.0
O149 O 0.80702 0.63155 0.99227 0.0
O150 O 0.83174 0.57106 0.07348 0.0
O151 O 0.77653 0.54554 0.08383 0.0
H152 H 0.78858 0.56461 0.2507 0.0
H153 H 0.8001 0.57382 0.33164 0.0
H154 H 0.68741 0.53103 0.35571 0.0
H155 H 0.67616 0.52216 0.27495 0.0
H156 H 0.76022 0.58444 0.93206 0.0
H157 H 0.74556 0.56888 0.85257 0.0
H158 H 0.85804 0.62245 0.82067 0.0
H159 H 0.87241 0.63774 0.90003 0.0
Ho160 Ho 0.21673 0.79798 0.42778 0.0
Ho161 Ho 0.17365 0.77892 0.51766 0.0
C162 C 0.13573 0.77939 0.42334 0.0
C163 C 0.25002 0.79915 0.3549 0.0
C164 C 0.24215 0.79483 0.3061 0.0
C165 C 0.21328 0.76361 0.28827 0.0
C166 C 0.2068 0.76023 0.24189 0.0
C167 C 0.22887 0.78805 0.21225 0.0
C168 C 0.25765 0.81925 0.23041 0.0
C169 C 0.26426 0.82248 0.27666 0.0
C170 C 0.21326 0.85187 0.46815 0.0
C171 C 0.25531 0.80045 0.52281 0.0
C172 C 0.14019 0.77437 0.59176 0.0
C173 C 0.14825 0.77615 0.64048 0.0
C174 C 0.17669 0.80679 0.66009 0.0
C175 C 0.18355 0.80784 0.70625 0.0
C176 C 0.16226 0.77824 0.73392 0.0
C177 C 0.13396 0.74759 0.71404 0.0
C178 C 0.12699 0.74665 0.66799 0.0
C179 C 0.17754 0.72571 0.47594 0.0
O180 O 0.16246 0.78014 0.40079 0.0
O181 O 0.13566 0.78176 0.46784 0.0
O182 O 0.25285 0.82784 0.37355 0.0
O183 O 0.23295 0.77084 0.38037 0.0
O184 O 0.21645 0.84989 0.42506 0.0
O185 O 0.21638 0.82771 0.48744 0.0
O186 O 0.2284 0.79981 0.54463 0.0
O187 O 0.25507 0.79644 0.47854 0.0
O188 O 0.13674 0.74651 0.57006 0.0
O189 O 0.1577 0.80387 0.56852 0.0
O190 O 0.17837 0.72921 0.51928 0.0
O191 O 0.17336 0.74949 0.45759 0.0
H192 H 0.19583 0.74166 0.31003 0.0
H193 H 0.18475 0.73557 0.22926 0.0
H194 H 0.27487 0.84154 0.209 0.0
H195 H 0.28669 0.8468 0.28951 0.0
H196 H 0.19364 0.83006 0.63989 0.0
H197 H 0.20526 0.83209 0.72031 0.0
H198 H 0.11733 0.72405 0.73395 0.0
H199 H 0.10494 0.72269 0.65379 0.0
Ho200 Ho 0.4375 0.18918 0.809 0.0
Ho201 Ho 0.40106 0.19746 0.72302 0.0
C202 C 0.37575 0.21069 0.81698 0.0
C203 C 0.46742 0.19634 0.88667 0.0
C204 C 0.45874 0.19899 0.9339 0.0
C205 C 0.42518 0.19393 0.94622 0.0
C206 C 0.41727 0.1959 0.99148 0.0
C207 C 0.44265 0.2026 0.02535 0.0
C208 C 0.47622 0.20761 0.01248 0.0
C209 C 0.48417 0.20597 0.96727 0.0
C210 C 0.38136 0.12906 0.77653 0.0
C211 C 0.46662 0.17949 0.71547 0.0
C212 C 0.36708 0.18775 0.64782 0.0
C213 C 0.37321 0.19035 0.59887 0.0
C214 C 0.40397 0.19244 0.5801 0.0
C215 C 0.40869 0.19423 0.53333 0.0
C216 C 0.38272 0.19398 0.50451 0.0
C217 C 0.35209 0.19211 0.52377 0.0
C218 C 0.34742 0.19029 0.5704 0.0
C219 C 0.45639 0.25793 0.75519 0.0
O220 O 0.40531 0.21352 0.83379 0.0
O221 O 0.36436 0.19807 0.77609 0.0
O222 O 0.44732 0.16554 0.86723 0.0
O223 O 0.47397 0.22329 0.8606 0.0
O224 O 0.40889 0.13 0.79512 0.0
O225 O 0.38424 0.15938 0.7784 0.0
O226 O 0.43899 0.17971 0.69616 0.0
O227 O 0.47443 0.18698 0.75851 0.0
O228 O 0.38164 0.21779 0.6702 0.0
O229 O 0.36964 0.16257 0.66884 0.0
O230 O 0.42926 0.25682 0.7351 0.0
O231 O 0.45402 0.22778 0.75383 0.0
H232 H 0.40518 0.1886 0.92087 0.0
H233 H 0.39138 0.19249 0.9998 0.0
H234 H 0.49625 0.2121 0.03739 0.0
H235 H 0.51013 0.20972 0.95841 0.0
H236 H 0.42416 0.1925 0.60156 0.0
H237 H 0.43241 0.19524 0.51976 0.0
H238 H 0.33181 0.19245 0.50282 0.0
H239 H 0.32354 0.1888 0.58429 0.0
H240 H 0.30318 0.18269 0.82145 0.0
H241 H 0.27062 0.19948 0.87478 0.0
H242 H 0.37082 0.2819 0.92879 0.0
H243 H 0.40304 0.26398 0.87774 0.0
H244 H 0.32929 0.24941 0.99462 0.0
H245 H 0.31654 0.29949 0.85384 0.0
H246 H 0.29815 0.29673 0.77477 0.0
H247 H 0.18999 0.22046 0.81027 0.0
H248 H 0.2078 0.22284 0.88957 0.0
H249 H 0.26702 0.38457 0.02929 0.0
H250 H 0.27934 0.34663 0.9818 0.0
H251 H 0.24395 0.26735 0.0869 0.0
H252 H 0.23241 0.30621 0.1359 0.0
H253 H 0.24182 0.28475 0.94584 0.0
H254 H 0.29354 0.22388 0.0766 0.0
H255 H 0.31954 0.23587 0.1528 0.0
H256 H 0.36252 0.34835 0.13287 0.0
H257 H 0.33728 0.33705 0.05636 0.0
C258 C 0.31806 0.20445 0.84469 0.0
C259 C 0.35551 0.22197 0.84576 0.0
C260 C 0.29953 0.21404 0.8751 0.0
C261 C 0.3183 0.24191 0.90601 0.0
C262 C 0.35574 0.25988 0.90598 0.0
C263 C 0.37412 0.2498 0.87655 0.0
C264 C 0.29965 0.25299 0.9386 0.0
C265 C 0.30989 0.25682 0.984 0.0
C266 C 0.27425 0.26256 0.92497 0.0
C267 C 0.26356 0.26101 0.87741 0.0
C268 C 0.28889 0.28199 0.84468 0.0
C269 C 0.27856 0.28055 0.79987 0.0
C270 C 0.24296 0.2583 0.78747 0.0
C271 C 0.21758 0.23756 0.8199 0.0
C272 C 0.22774 0.23904 0.86478 0.0
C273 C 0.26162 0.35903 0.04257 0.0
C274 C 0.24889 0.34854 0.08664 0.0
C275 C 0.26852 0.3372 0.01508 0.0
C276 C 0.26269 0.30414 0.03068 0.0
C277 C 0.24903 0.29295 0.07429 0.0
C278 C 0.24243 0.31514 0.10223 0.0
C279 C 0.27286 0.28288 1.00134 0.0
C280 C 0.26063 0.27662 0.9567 0.0
C281 C 0.29748 0.27233 0.0153 0.0
C282 C 0.31292 0.27953 0.06114 0.0
C283 C 0.30851 0.25115 0.08855 0.0
C284 C 0.32312 0.25783 0.13175 0.0
C285 C 0.34233 0.29281 0.14783 0.0
C286 C 0.34734 0.32124 0.12053 0.0
C287 C 0.33288 0.31471 0.07725 0.0
H288 H 0.35359 0.29792 0.1813 0.0
H289 H 0.23499 0.25726 0.75279 0.0
H290 H 0.1648 0.35449 0.24773 0.0
H291 H 0.10953 0.32093 0.28979 0.0
H292 H 0.04935 0.31101 0.16963 0.0
H293 H 0.10493 0.34225 0.12678 0.0
H294 H 0.06872 0.34361 0.30788 0.0
H295 H 0.96259 0.24721 0.17972 0.0
H296 H 0.95793 0.20787 0.11694 0.0
H297 H 0.04466 0.19841 0.17148 0.0
H298 H 0.04955 0.23731 0.23488 0.0
H299 H 0.90234 0.31206 0.37759 0.0
H300 H 0.95384 0.32478 0.33095 0.0
H301 H 0.93156 0.21651 0.34885 0.0
H302 H 0.87878 0.20325 0.39401 0.0
H303 H 0.95369 0.23705 0.26645 0.0
H304 H -0.00186 0.28667 0.41188 0.0
H305 H 0.00423 0.32207 0.47973 0.0
H306 H 0.04417 0.41692 0.39945 0.0
H307 H 0.03836 0.38207 0.33111 0.0
C308 C 0.13982 0.34389 0.22994 0.0
C309 C 0.13919 0.35077 0.18404 0.0
C310 C 0.10813 0.32498 0.25409 0.0
C311 C 0.07508 0.31344 0.23309 0.0
C312 C 0.07434 0.31892 0.1866 0.0
C313 C 0.10617 0.33698 0.16211 0.0
C314 C 0.04227 0.3 0.26094 0.0
C315 C 0.04374 0.32006 0.29885 0.0
C316 C 0.00954 0.26915 0.24967 0.0
C317 C 0.00662 0.24546 0.21186 0.0
C318 C 0.98057 0.23662 0.17843 0.0
C319 C 0.97791 0.21442 0.1427 0.0
C320 C 0.00106 0.20073 0.14016 0.0
C321 C 0.02684 0.20914 0.1734 0.0
C322 C 0.02961 0.23131 0.2092 0.0
C323 C 0.90841 0.29097 0.37144 0.0
C324 C 0.88703 0.25685 0.38974 0.0
C325 C 0.93786 0.29826 0.34491 0.0
C326 C 0.9471 0.27185 0.33731 0.0
C327 C 0.92506 0.23735 0.35447 0.0
C328 C 0.89509 0.22985 0.38038 0.0
C329 C 0.98045 0.28085 0.3128 0.0
C330 C 0.97895 0.26021 0.27553 0.0
C331 C 0.01356 0.31054 0.32533 0.0
C332 C 0.01762 0.33173 0.3664 0.0
C333 C 0.00815 0.31506 0.40871 0.0
C334 C 0.01162 0.33504 0.44725 0.0
C335 C 0.0246 0.37173 0.44389 0.0
C336 C 0.03421 0.38852 0.402 0.0
C337 C 0.03097 0.3687 0.36338 0.0
H338 H 0.02722 0.38714 0.47375 0.0
H339 H -0.00103 0.18356 0.11246 0.0
H340 H 0.76129 0.08728 0.45628 0.0
H341 H 0.74063 0.03914 0.5118 0.0
H342 H 0.78787 0.11698 0.61801 0.0
H343 H 0.80761 0.16503 0.56296 0.0
H344 H 0.76584 0.01509 0.57842 0.0
H345 H 0.72589 0.09047 0.70491 0.0
H346 H 0.71457 0.141 0.70641 0.0
H347 H 0.68495 0.12394 0.56725 0.0
H348 H 0.69463 0.07246 0.56526 0.0
H349 H 0.68894 0.91432 0.78285 0.0
H350 H 0.72586 0.96712 0.73603 0.0
H351 H 0.6336 0.94382 0.65615 0.0
H352 H 0.59695 0.89069 0.70168 0.0
H353 H 0.68114 0.01995 0.6871 0.0
H354 H 0.67802 0.91959 0.60955 0.0
H355 H 0.68568 0.86688 0.60557 0.0
H356 H 0.7962 0.93177 0.64118 0.0
H357 H 0.78898 0.98481 0.64604 0.0
C358 C 0.76812 0.09403 0.49131 0.0
C359 C 0.78545 0.12972 0.50553 0.0
C360 C 0.75633 0.06657 0.52298 0.0
C361 C 0.76203 0.07461 0.56904 0.0
C362 C 0.78259 0.11027 0.5827 0.0
C363 C 0.79386 0.13764 0.55123 0.0
C364 C 0.74286 0.04614 0.6027 0.0
C365 C 0.74761 0.01635 0.60244 0.0
C366 C 0.71873 0.04766 0.63376 0.0
C367 C 0.71154 0.07788 0.6348 0.0
C368 C 0.71674 0.09735 0.67468 0.0
C369 C 0.71058 0.12615 0.67562 0.0
C370 C 0.69932 0.13585 0.63684 0.0
C371 C 0.69375 0.11647 0.5972 0.0
C372 C 0.69947 0.08739 0.59618 0.0
C373 C 0.67661 0.92074 0.75551 0.0
C374 C 0.64028 0.89849 0.74555 0.0
C375 C 0.69762 0.95073 0.7289 0.0
C376 C 0.68227 0.95913 0.69286 0.0
C377 C 0.64575 0.93767 0.68397 0.0
C378 C 0.62499 0.90731 0.70977 0.0
C379 C 0.70439 0.98929 0.66279 0.0
C380 C 0.7 0.01923 0.66366 0.0
C381 C 0.7284 0.98774 0.63193 0.0
C382 C 0.73286 0.95602 0.62874 0.0
C383 C 0.70386 0.92253 0.61699 0.0
C384 C 0.70813 0.89262 0.61447 0.0
C385 C 0.74138 0.89595 0.62328 0.0
C386 C 0.77044 0.92923 0.63447 0.0
C387 C 0.76628 0.95921 0.6371 0.0
H388 H 0.74465 0.87277 0.6213 0.0
H389 H 0.69476 0.15827 0.63755 0.0
H390 H 0.66227 0.76394 0.77858 0.0
H391 H 0.69522 0.74232 0.8229 0.0
H392 H 0.69196 0.80177 0.93757 0.0
H393 H 0.65726 0.82152 0.89405 0.0
H394 H 0.75221 0.76094 0.87283 0.0
H395 H 0.66931 0.75141 0.02949 0.0
H396 H 0.6119 0.74649 0.05077 0.0
H397 H 0.56806 0.7003 0.9222 0.0
H398 H 0.62508 0.70474 0.90038 0.0
H399 H 0.79556 0.6805 0.05812 0.0
H400 H 0.78733 0.72002 1.00637 0.0
H401 H 0.67786 0.63746 0.98543 0.0
H402 H 0.68564 0.59887 0.0383 0.0
H403 H 0.67958 0.6954 1.00569 0.0
H404 H 0.74425 0.66458 0.89781 0.0
H405 H 0.79492 0.65904 0.86973 0.0
H406 H 0.86598 0.77068 0.89299 0.0
H407 H 0.81554 0.77714 0.92016 0.0
C408 C 0.66953 0.77319 0.81285 0.0
C409 C 0.65679 0.7939 0.83332 0.0
C410 C 0.68842 0.76089 0.83815 0.0
C411 C 0.69517 0.76963 0.88392 0.0
C412 C 0.68622 0.79392 0.90263 0.0
C413 C 0.66652 0.80536 0.87775 0.0
C414 C 0.70627 0.74926 0.91333 0.0
C415 C 0.73651 0.7468 0.90209 0.0
C416 C 0.6855 0.73027 0.95112 0.0
C417 C 0.65156 0.72886 0.96314 0.0
C418 C 0.64743 0.74039 1.00572 0.0
C419 C 0.61496 0.73768 0.01787 0.0
C420 C 0.58637 0.72331 0.98776 0.0
C421 C 0.59024 0.71172 0.94538 0.0
C422 C 0.62266 0.71436 0.93307 0.0
C423 C 0.76987 0.67094 0.04214 0.0
C424 C 0.74101 0.63705 0.05255 0.0
C425 C 0.76528 0.69332 0.01232 0.0
C426 C 0.73197 0.68171 0.99198 0.0
C427 C 0.70371 0.64714 1.00103 0.0
C428 C 0.70809 0.62515 0.03134 0.0
C429 C 0.725 0.70623 0.96473 0.0
C430 C 0.69564 0.70982 0.97676 0.0
C431 C 0.7459 0.72514 0.92706 0.0
C432 C 0.77626 0.72125 0.91144 0.0
C433 C 0.77073 0.68788 0.89721 0.0
C434 C 0.79938 0.68458 0.88139 0.0
C435 C 0.8337 0.71433 0.88011 0.0
C436 C 0.8394 0.74761 0.89417 0.0
C437 C 0.81078 0.75117 0.90951 0.0
H438 H 0.85583 0.71162 0.86798 0.0
H439 H 0.56119 0.72096 0.99746 0.0
H440 H 0.07029 0.76434 0.45601 0.0
H441 H 0.0164 0.74828 0.41229 0.0
H442 H 0.07551 0.76429 0.28935 0.0
H443 H 0.12934 0.78067 0.3324 0.0
H444 H 0.02822 0.7886 0.28247 0.0
H445 H 0.02912 0.68262 0.33397 0.0
H446 H 0.03139 0.64278 0.39149 0.0
H447 H 0.93687 0.63205 0.45366 0.0
H448 H 0.93435 0.67227 0.39681 0.0
H449 H 0.90288 0.67464 0.12069 0.0
H450 H 0.95212 0.70904 0.17257 0.0
H451 H 0.87781 0.6746 0.28355 0.0
H452 H 0.82878 0.63915 0.23214 0.0
H453 H 0.92944 0.66416 0.30323 0.0
H454 H 0.92372 0.76377 0.24404 0.0
H455 H 0.92164 0.8029 0.18536 0.0
H456 H 0.0244 0.8256 0.13674 0.0
H457 H 0.0269 0.78623 0.19475 0.0
C458 C 0.07193 0.76494 0.41967 0.0
C459 C 0.10397 0.77329 0.3977 0.0
C460 C 0.04113 0.75574 0.39479 0.0
C461 C 0.04197 0.75474 0.34765 0.0
C462 C 0.07433 0.7649 0.3257 0.0
C463 C 0.10502 0.774 0.35044 0.0
C464 C 0.00882 0.74027 0.32097 0.0
C465 C 0.00654 0.7614 0.28685 0.0
C466 C 0.98036 0.70504 0.32745 0.0
C467 C 0.98182 0.6808 0.36153 0.0
C468 C 0.009 0.672 0.36014 0.0
C469 C 0.01031 0.64932 0.39257 0.0
C470 C 0.98436 0.63499 0.4263 0.0
C471 C 0.957 0.64324 0.42759 0.0
C472 C 0.95562 0.66597 0.39527 0.0
C473 C 0.89703 0.67489 0.15604 0.0
C474 C 0.86208 0.65406 0.17241 0.0
C475 C 0.92515 0.69473 0.18567 0.0
C476 C 0.91865 0.69471 0.23198 0.0
C477 C 0.8835 0.675 0.24801 0.0
C478 C 0.85551 0.65473 0.21857 0.0
C479 C 0.9487 0.71235 0.26412 0.0
C480 C 0.95056 0.69168 0.29925 0.0
C481 C 0.97671 0.74799 0.25845 0.0
C482 C 0.97538 0.77184 0.22361 0.0
C483 C 0.94577 0.77692 0.22066 0.0
C484 C 0.94453 0.79918 0.18754 0.0
C485 C 0.97284 0.81668 0.1573 0.0
C486 C 0.00249 0.81202 0.16018 0.0
C487 C 0.00385 0.78978 0.19323 0.0
H488 H 0.97182 0.8339 0.13168 0.0
H489 H 0.98541 0.61743 0.45137 0.0
H490 H 0.32172 0.12311 0.73757 0.0
H491 H 0.28141 0.0768 0.68496 0.0
H492 H 0.34048 0.02159 0.70217 0.0
H493 H 0.38113 0.06804 0.7541 0.0
H494 H 0.30142 0.05999 0.60442 0.0
H495 H 0.28042 0.93095 0.69363 0.0
H496 H 0.27359 0.90691 0.77037 0.0
H497 H 0.23774 0.9777 0.8167 0.0
H498 H 0.24356 0.00163 0.74007 0.0
H499 H 0.27336 0.9163 0.4628 0.0
H500 H 0.29071 0.96708 0.5133 0.0
H501 H 0.18691 0.91133 0.57642 0.0
H502 H 0.16991 0.86047 0.52605 0.0
H503 H 0.23621 0.93006 0.63624 0.0
H504 H 0.21641 0.99016 0.5158 0.0
H505 H 0.22097 0.01429 0.43953 0.0
H506 H 0.33414 0.08177 0.45564 0.0
H507 H 0.33047 0.0575 0.53162 0.0
C508 C 0.32586 0.1009 0.73033 0.0
C509 C 0.35472 0.09927 0.7493 0.0
C510 C 0.30288 0.07456 0.70036 0.0
C511 C 0.30801 0.04585 0.68979 0.0
C512 C 0.33594 0.04343 0.71023 0.0
C513 C 0.35912 0.06993 0.73981 0.0
C514 C 0.28573 0.0195 0.65532 0.0
C515 C 0.28688 0.03154 0.61122 0.0
C516 C 0.26633 0.98255 0.66471 0.0
C517 C 0.2628 0.96837 0.71107 0.0
C518 C 0.27095 0.94132 0.72013 0.0
C519 C 0.26724 0.92769 0.76363 0.0
C520 C 0.25538 0.94087 0.79842 0.0
C521 C 0.24708 0.96762 0.78975 0.0
C522 C 0.25062 0.98126 0.74628 0.0
C523 C 0.25402 0.9155 0.48665 0.0
C524 C 0.22057 0.88464 0.49132 0.0
C525 C 0.26384 0.94449 0.51536 0.0
C526 C 0.24008 0.94305 0.54866 0.0
C527 C 0.20571 0.91296 0.55113 0.0
C528 C 0.19607 0.8839 0.52267 0.0
C529 C 0.25284 0.97033 0.58469 0.0
C530 C 0.25014 0.95849 0.62923 0.0
C531 C 0.27072 0.00743 0.57558 0.0
C532 C 0.27315 0.02174 0.52946 0.0
C533 C 0.24235 0.00984 0.50295 0.0
C534 C 0.24478 0.0236 0.45975 0.0
C535 C 0.27783 0.04948 0.44271 0.0
C536 C 0.30856 0.06166 0.46884 0.0
C537 C 0.3063 0.04791 0.512 0.0
H538 H 0.27963 0.06016 0.40931 0.0
H539 H 0.25254 0.93029 0.83208 0.0
H540 H 0.1676 0.39872 0.85585 0.0
H541 H 0.16862 0.38992 0.77474 0.0
H542 H 0.27485 0.48122 0.76727 0.0
H543 H 0.27389 0.49029 0.84822 0.0
H544 H 0.23559 0.48324 0.70064 0.0
H545 H 0.25843 0.39315 0.76135 0.0
H546 H 0.2455 0.3417 0.80971 0.0
H547 H 0.14495 0.27853 0.7432 0.0
H548 H 0.15715 0.32965 0.69468 0.0
H549 H 0.28409 0.45515 0.48345 0.0
H550 H 0.27976 0.46246 0.56414 0.0
H551 H 0.17417 0.36987 0.5655 0.0
H552 H 0.17852 0.36221 0.48457 0.0
H553 H 0.21087 0.36767 0.63505 0.0
H554 H 0.18839 0.4569 0.57308 0.0
H555 H 0.20016 0.50863 0.52606 0.0
H556 H 0.29907 0.57345 0.59519 0.0
H557 H 0.28807 0.52208 0.64245 0.0
C558 C 0.19131 0.41674 0.83701 0.0
C559 C 0.22065 0.44521 0.85867 0.0
C560 C 0.19188 0.41167 0.79056 0.0
C561 C 0.22199 0.43465 0.76474 0.0
C562 C 0.25126 0.46314 0.78629 0.0
C563 C 0.25063 0.46835 0.83265 0.0
C564 C 0.2229 0.4294 0.71522 0.0
C565 C 0.23064 0.45809 0.68638 0.0
C566 C 0.21549 0.39632 0.69629 0.0
C567 C 0.20854 0.36534 0.72472 0.0
C568 C 0.23349 0.36833 0.75719 0.0
C569 C 0.22632 0.33923 0.78459 0.0
C570 C 0.19434 0.30696 0.77968 0.0
C571 C 0.16966 0.30358 0.74703 0.0
C572 C 0.17672 0.33258 0.71952 0.0
C573 C 0.25973 0.43657 0.50074 0.0
C574 C 0.23155 0.40822 0.47734 0.0
C575 C 0.25729 0.44078 0.54702 0.0
C576 C 0.22641 0.41705 0.57105 0.0
C577 C 0.19828 0.38858 0.54784 0.0
C578 C 0.20081 0.3842 0.50153 0.0
C579 C 0.22385 0.42162 0.62045 0.0
C580 C 0.21577 0.39281 0.64928 0.0
C581 C 0.23091 0.4546 0.6394 0.0
C582 C 0.23755 0.48554 0.61104 0.0
C583 C 0.21277 0.48212 0.57804 0.0
C584 C 0.21928 0.51137 0.55138 0.0
C585 C 0.25038 0.54423 0.55749 0.0
C586 C 0.275 0.54796 0.59043 0.0
C587 C 0.26862 0.51881 0.61723 0.0
H588 H 0.25536 0.56683 0.53679 0.0
H589 H 0.18864 0.28458 0.80119 0.0
H590 H 0.79167 0.14154 0.09269 0.0
H591 H 0.78833 0.14844 0.01177 0.0
H592 H 0.7719 0.23761 0.03424 0.0
H593 H 0.77598 0.23144 0.11549 0.0
H594 H 0.72663 0.19156 0.96887 0.0
H595 H 0.8519 0.25286 1.00199 0.0
H596 H 0.90738 0.25935 0.03399 0.0
H597 H 0.89717 0.17359 0.95085 0.0
H598 H 0.84129 0.16623 0.91882 0.0
H599 H 0.76486 0.26286 0.74762 0.0
H600 H 0.76408 0.25327 0.82845 0.0
H601 H 0.78701 0.16829 0.80592 0.0
H602 H 0.78774 0.17764 0.72475 0.0
H603 H 0.82827 0.21166 0.87151 0.0
H604 H 0.70351 0.151 0.83702 0.0
H605 H 0.64871 0.14535 0.8039 0.0
H606 H 0.6579 0.22984 0.88873 0.0
H607 H 0.71311 0.23639 0.9219 0.0
C608 C 0.78776 0.16293 0.08059 0.0
C609 C 0.78448 0.18615 0.11089 0.0
C610 C 0.78564 0.16669 0.03419 0.0
C611 C 0.78019 0.19375 0.01683 0.0
C612 C 0.77606 0.21649 0.04684 0.0
C613 C 0.77832 0.21285 0.09336 0.0
C614 C 0.77956 0.19866 0.96734 0.0
C615 C 0.74901 0.19639 0.94763 0.0
C616 C 0.80845 0.20419 0.93943 0.0
C617 C 0.84221 0.20875 0.95834 0.0
C618 C 0.86133 0.23519 0.99078 0.0
C619 C 0.89287 0.23906 0.00888 0.0
C620 C 0.90574 0.21683 0.99456 0.0
C621 C 0.88714 0.19076 0.96197 0.0
C622 C 0.85554 0.18674 0.9438 0.0
C623 C 0.76919 0.24172 0.75967 0.0
C624 C 0.77623 0.22095 0.72943 0.0
C625 C 0.76883 0.23634 0.80606 0.0
C626 C 0.77517 0.20983 0.82342 0.0
C627 C 0.78214 0.18898 0.7934 0.0
C628 C 0.78264 0.19444 0.74695 0.0
C629 C 0.77528 0.20445 0.87289 0.0
C630 C 0.80579 0.20669 0.89266 0.0
C631 C 0.74633 0.19885 0.90077 0.0
C632 C 0.71263 0.19437 0.88172 0.0
C633 C 0.69395 0.16849 0.84848 0.0
C634 C 0.6628 0.1651 0.82973 0.0
C635 C 0.64985 0.18724 0.84419 0.0
C636 C 0.66796 0.21271 0.87757 0.0
C637 C 0.69917 0.21625 0.8964 0.0
H638 H 0.62579 0.18466 0.82951 0.0
H639 H 0.93016 0.21985 0.00863 0.0
H640 H 0.51445 0.72901 0.4908 0.0
H641 H 0.52372 0.73799 0.40989 0.0
H642 H 0.63539 0.81272 0.43168 0.0
H643 H 0.6265 0.80346 0.51289 0.0
H644 H 0.60646 0.83827 0.37193 0.0
H645 H 0.60895 0.72988 0.3918 0.0
H646 H 0.58712 0.66825 0.41774 0.0
H647 H 0.49271 0.63142 0.33749 0.0
H648 H 0.51372 0.69295 0.31157 0.0
H649 H 0.65556 0.85119 0.14201 0.0
H650 H 0.65133 0.83917 0.22271 0.0
H651 H 0.53912 0.76305 0.20868 0.0
H652 H 0.54301 0.77517 0.12802 0.0
H653 H 0.57098 0.73824 0.2647 0.0
H654 H 0.56687 0.84651 0.24779 0.0
H655 H 0.58802 0.90808 0.22207 0.0
H656 H 0.68491 0.94496 0.29713 0.0
H657 H 0.66454 0.88348 0.32279 0.0
C658 C 0.54115 0.74692 0.4785 0.0
C659 C 0.56976 0.76533 0.50857 0.0
C660 C 0.54637 0.75211 0.43211 0.0
C661 C 0.58033 0.77575 0.41459 0.0
C662 C 0.60894 0.79434 0.44441 0.0
C663 C 0.60377 0.7891 0.49087 0.0
C664 C 0.58566 0.78169 0.36524 0.0
C665 C 0.59928 0.81647 0.34854 0.0
C666 C 0.57549 0.75315 0.33458 0.0
C667 C 0.56277 0.7161 0.35007 0.0
C668 C 0.58339 0.70869 0.37997 0.0
C669 C 0.57118 0.67377 0.39462 0.0
C670 C 0.53851 0.64595 0.37936 0.0
C671 C 0.518 0.653 0.34933 0.0
C672 C 0.53005 0.68789 0.33462 0.0
C673 C 0.62993 0.83197 0.15606 0.0
C674 C 0.59957 0.81437 0.12844 0.0
C675 C 0.62758 0.82507 0.20224 0.0
C676 C 0.5948 0.80056 0.22193 0.0
C677 C 0.5647 0.78208 0.19428 0.0
C678 C 0.56702 0.78896 0.14808 0.0
C679 C 0.59165 0.79478 0.27143 0.0
C680 C 0.57838 0.76005 0.28813 0.0
C681 C 0.60207 0.82334 0.30213 0.0
C682 C 0.61435 0.86033 0.2868 0.0
C683 C 0.59282 0.8677 0.2585 0.0
C684 C 0.60464 0.90259 0.24399 0.0
C685 C 0.63784 0.9304 0.25785 0.0
C686 C 0.65924 0.92338 0.28635 0.0
C687 C 0.64756 0.88852 0.30091 0.0
H688 H 0.64693 0.95739 0.24659 0.0
H689 H 0.52911 0.61893 0.39073 0.0
H690 H 0.82967 0.56753 0.77124 0.0
H691 H 0.81896 0.55815 0.69039 0.0
H692 H 0.74268 0.5945 0.69868 0.0
H693 H 0.75268 0.603 0.77986 0.0
H694 H 0.71895 0.54084 0.6429 0.0
H695 H 0.83144 0.64916 0.66121 0.0
H696 H 0.89304 0.68645 0.68879 0.0
H697 H 0.92499 0.62007 0.61895 0.0
H698 H 0.86343 0.58207 0.59147 0.0
H699 H 0.71567 0.57867 0.41163 0.0
H700 H 0.72441 0.58386 0.49299 0.0
H701 H 0.79696 0.54309 0.48235 0.0
H702 H 0.78845 0.538 0.40079 0.0
H703 H 0.82251 0.59794 0.53908 0.0
H704 H 0.70979 0.49034 0.51957 0.0
H705 H 0.64822 0.45382 0.49154 0.0
H706 H 0.61682 0.51992 0.56314 0.0
H707 H 0.67834 0.55715 0.59111 0.0
C708 C 0.81058 0.57346 0.75579 0.0
C709 C 0.79229 0.58635 0.78182 0.0
C710 C 0.80453 0.56819 0.70952 0.0
C711 C 0.78062 0.57642 0.68804 0.0
C712 C 0.76139 0.58811 0.7143 0.0
C713 C 0.76709 0.59293 0.76073 0.0
C714 C 0.77614 0.5735 0.6382 0.0
C715 C 0.7416 0.55372 0.62025 0.0
C716 C 0.80567 0.58961 0.60838 0.0
C717 C 0.84275 0.61257 0.62465 0.0
C718 C 0.85155 0.64238 0.65199 0.0
C719 C 0.88646 0.66366 0.66757 0.0
C720 C 0.91289 0.65558 0.65573 0.0
C721 C 0.90448 0.62626 0.62816 0.0
C722 C 0.86959 0.60486 0.61255 0.0
C723 C 0.73335 0.57062 0.4266 0.0
C724 C 0.75119 0.5577 0.39964 0.0
C725 C 0.73831 0.57357 0.47319 0.0
C726 C 0.76089 0.56329 0.49405 0.0
C727 C 0.77934 0.55112 0.46713 0.0
C728 C 0.77454 0.54833 0.42045 0.0
C729 C 0.76535 0.56538 0.54385 0.0
C730 C 0.79989 0.58501 0.56177 0.0
C731 C 0.73582 0.54925 0.57361 0.0
C732 C 0.69875 0.52672 0.55711 0.0
C733 C 0.68981 0.49723 0.52909 0.0
C734 C 0.65491 0.47638 0.51325 0.0
C735 C 0.62865 0.48459 0.52546 0.0
C736 C 0.6372 0.51361 0.55366 0.0
C737 C 0.67207 0.53458 0.56956 0.0
H738 H 0.60164 0.46842 0.51315 0.0
H739 H 0.93991 0.67209 0.66783 0.0
H740 H 0.22713 0.80948 0.77736 0.0
H741 H 0.23837 0.81083 0.85796 0.0
H742 H 0.12507 0.7495 0.88298 0.0
H743 H 0.11353 0.74952 0.80275 0.0
H744 H 0.15526 0.80101 0.9425 0.0
H745 H 0.18022 0.71167 0.88554 0.0
H746 H 0.20947 0.68807 0.83623 0.0
H747 H 0.31211 0.76684 0.88646 0.0
H748 H 0.28349 0.79119 0.93568 0.0
H749 H 0.16402 0.75572 0.16872 0.0
H750 H 0.15278 0.75213 0.08804 0.0
H751 H 0.26612 0.81124 0.0626 0.0
H752 H 0.27764 0.81303 0.14306 0.0
H753 H 0.2359 0.76062 1.00313 0.0
H754 H 0.21133 0.85045 0.05935 0.0
H755 H 0.18237 0.87442 0.10855 0.0
H756 H 0.07944 0.79537 0.05944 0.0
H757 H 0.10778 0.77064 0.01032 0.0
C758 C 0.20453 0.7966 0.79996 0.0
C759 C 0.16937 0.77922 0.78324 0.0
C760 C 0.21105 0.79702 0.84613 0.0
C761 C 0.18261 0.77975 0.87668 0.0
C762 C 0.14751 0.76284 0.86018 0.0
C763 C 0.14096 0.76257 0.8141 0.0
C764 C 0.18928 0.77955 0.92585 0.0
C765 C 0.17253 0.79171 0.95575 0.0
C766 C 0.21248 0.76825 0.9433 0.0
C767 C 0.22972 0.75346 0.91398 0.0
C768 C 0.20904 0.72411 0.88584 0.0
C769 C 0.22551 0.71057 0.85795 0.0
C770 C 0.26263 0.726 0.85811 0.0
C771 C 0.28337 0.75493 0.8863 0.0
C772 C 0.26703 0.76859 0.91425 0.0
C773 C 0.18664 0.76749 0.14606 0.0
C774 C 0.2218 0.78494 0.16277 0.0
C775 C 0.18013 0.76583 0.09978 0.0
C776 C 0.20857 0.78208 0.06903 0.0
C777 C 0.24366 0.79872 0.0855 0.0
C778 C 0.25021 0.80008 0.13172 0.0
C779 C 0.20185 0.78206 0.01981 0.0
C780 C 0.21861 0.76989 0.98989 0.0
C781 C 0.17872 0.79344 1.0023 0.0
C782 C 0.16166 0.8085 0.03147 0.0
C783 C 0.18251 0.83805 0.05924 0.0
C784 C 0.16621 0.85179 0.08708 0.0
C785 C 0.12908 0.83637 0.0872 0.0
C786 C 0.10819 0.80725 0.05935 0.0
C787 C 0.12436 0.79339 0.03147 0.0
H788 H 0.1165 0.84703 0.1088 0.0
H789 H 0.2753 0.71548 0.83647 0.0
H790 H 0.33182 0.15767 0.44008 0.0
H791 H 0.33918 0.16114 0.35855 0.0
H792 H 0.45153 0.23626 0.37401 0.0
H793 H 0.4441 0.23413 0.45569 0.0
H794 H 0.42325 0.25629 0.30667 0.0
H795 H 0.42009 0.14698 0.35128 0.0
H796 H 0.39283 0.08851 0.38934 0.0
H797 H 0.29959 0.05039 0.30651 0.0
H798 H 0.32613 0.10881 0.26833 0.0
H799 H 0.48741 0.24549 0.0923 0.0
H800 H 0.47463 0.2443 0.17218 0.0
H801 H 0.36538 0.16262 0.14881 0.0
H802 H 0.37855 0.16192 0.06912 0.0
H803 H 0.38838 0.14581 0.21967 0.0
H804 H 0.39178 0.25222 0.17062 0.0
H805 H 0.41702 0.31058 0.13275 0.0
H806 H 0.50583 0.35469 0.22374 0.0
H807 H 0.48176 0.29633 0.26133 0.0
C808 C 0.35805 0.1753 0.42623 0.0
C809 C 0.38738 0.19562 0.45465 0.0
C810 C 0.36228 0.17699 0.3795 0.0
C811 C 0.39601 0.19866 0.36 0.0
C812 C 0.42526 0.21928 0.38819 0.0
C813 C 0.42103 0.21772 0.43497 0.0
C814 C 0.40097 0.19936 0.31033 0.0
C815 C 0.41602 0.23221 0.28766 0.0
C816 C 0.39043 0.1678 0.28525 0.0
C817 C 0.37499 0.13233 0.30718 0.0
C818 C 0.39374 0.12615 0.34127 0.0
C819 C 0.37842 0.09303 0.36286 0.0
C820 C 0.3445 0.06577 0.35037 0.0
C821 C 0.32588 0.07153 0.31612 0.0
C822 C 0.34106 0.10462 0.29446 0.0
C823 C 0.4607 0.22696 0.10402 0.0
C824 C 0.43411 0.20366 0.07389 0.0
C825 C 0.45328 0.22669 0.14983 0.0
C826 C 0.41887 0.2037 0.16672 0.0
C827 C 0.39213 0.1807 0.13674 0.0
C828 C 0.39964 0.18064 0.09093 0.0
C829 C 0.41117 0.20289 0.21579 0.0
C830 C 0.39552 0.16997 0.23844 0.0
C831 C 0.42082 0.23439 0.24074 0.0
C832 C 0.43508 0.26974 0.21861 0.0
C833 C 0.41683 0.27427 0.18238 0.0
C834 C 0.43092 0.30736 0.16096 0.0
C835 C 0.46295 0.33632 0.17588 0.0
C836 C 0.481 0.33223 0.21223 0.0
C837 C 0.46717 0.29913 0.23357 0.0
H838 H 0.47378 0.36192 0.15927 0.0
H839 H 0.33262 0.04019 0.36724 0.0
H840 H 0.238 0.48526 0.30766 0.0
H841 H 0.23052 0.52793 0.35322 0.0
H842 H 0.19454 0.56005 0.23643 0.0
H843 H 0.2028 0.51806 0.19029 0.0
H844 H 0.24098 0.61669 0.28369 0.0
H845 H 0.1358 0.50408 0.31687 0.0
H846 H 0.10454 0.44089 0.34007 0.0
H847 H 0.15602 0.47026 0.4687 0.0
H848 H 0.18818 0.5337 0.44602 0.0
H849 H 0.16446 0.70878 0.38752 0.0
H850 H 0.17321 0.66513 0.34569 0.0
H851 H 0.20857 0.63755 0.46697 0.0
H852 H 0.19946 0.68112 0.50911 0.0
H853 H 0.16451 0.57882 0.41998 0.0
H854 H 0.26798 0.69143 0.38836 0.0
H855 H 0.3027 0.75421 0.36397 0.0
H856 H 0.25643 0.72489 0.23237 0.0
H857 H 0.22083 0.66199 0.2562 0.0
C858 C 0.22848 0.50135 0.29158 0.0
C859 C 0.22094 0.49816 0.24528 0.0
C860 C 0.22408 0.52566 0.31777 0.0
C861 C 0.21155 0.54686 0.29833 0.0
C862 C 0.20422 0.54392 0.25211 0.0
C863 C 0.20887 0.51981 0.22581 0.0
C864 C 0.20629 0.57235 0.32601 0.0
C865 C 0.22386 0.60836 0.31313 0.0
C866 C 0.18483 0.56156 0.36521 0.0
C867 C 0.16463 0.52362 0.37958 0.0
C868 C 0.14058 0.49707 0.35005 0.0
C869 C 0.12273 0.46122 0.3631 0.0
C870 C 0.1284 0.4516 0.4058 0.0
C871 C 0.15176 0.47783 0.43564 0.0
C872 C 0.16978 0.51373 0.42272 0.0
C873 C 0.17417 0.69344 0.4052 0.0
C874 C 0.18172 0.69852 0.45135 0.0
C875 C 0.1792 0.66856 0.3813 0.0
C876 C 0.19208 0.64849 0.40309 0.0
C877 C 0.19873 0.65286 0.4495 0.0
C878 C 0.19359 0.67774 0.47348 0.0
C879 C 0.19879 0.62315 0.37722 0.0
C880 C 0.1816 0.58718 0.39053 0.0
C881 C 0.22068 0.63399 0.33838 0.0
C882 C 0.24153 0.67197 0.3242 0.0
C883 C 0.26492 0.69839 0.35435 0.0
C884 C 0.28484 0.73399 0.34058 0.0
C885 C 0.28189 0.74348 0.2966 0.0
C886 C 0.2588 0.71745 0.26638 0.0
C887 C 0.23871 0.68182 0.28001 0.0
H888 H 0.29742 0.77104 0.28596 0.0
H889 H 0.11466 0.42382 0.4158 0.0
H890 H 0.67382 0.11466 0.45811 0.0
H891 H 0.62666 0.10789 0.51025 0.0
H892 H 0.66704 0.22138 0.50425 0.0
H893 H 0.71324 0.22807 0.45143 0.0
H894 H 0.65658 0.19483 0.59175 0.0
H895 H 0.59415 0.16764 0.44884 0.0
H896 H 0.57103 0.1337 0.3784 0.0
H897 H 0.51004 0.037 0.45376 0.0
H898 H 0.5332 0.07035 0.52466 0.0
H899 H 0.47527 0.18678 0.62459 0.0
H900 H 0.51801 0.17986 0.5785 0.0
H901 H 0.55503 0.14943 0.69592 0.0
H902 H 0.51314 0.15779 0.74259 0.0
H903 H 0.52706 0.1273 0.55766 0.0
H904 H 0.64634 0.17509 0.67843 0.0
H905 H 0.67229 0.21233 0.74587 0.0
H906 H 0.62186 0.27315 0.71224 0.0
H907 H 0.59645 0.23694 0.64385 0.0
C908 C 0.67227 0.13801 0.46762 0.0
C909 C 0.69737 0.17196 0.45141 0.0
C910 C 0.64546 0.13414 0.49738 0.0
C911 C 0.64369 0.16421 0.51135 0.0
C912 C 0.66829 0.19794 0.49429 0.0
C913 C 0.69464 0.20171 0.4642 0.0
C914 C 0.6165 0.1611 0.54401 0.0
C915 C 0.62818 0.17988 0.58461 0.0
C916 C 0.57961 0.14141 0.53456 0.0
C917 C 0.56574 0.12139 0.49198 0.0
C918 C 0.57607 0.13909 0.45036 0.0
C919 C 0.5629 0.11998 0.41036 0.0
C920 C 0.53917 0.0832 0.4116 0.0
C921 C 0.52849 0.06547 0.45285 0.0
C922 C 0.54161 0.08447 0.49294 0.0
C923 C 0.49236 0.17846 0.64061 0.0
C924 C 0.491 0.17308 0.68725 0.0
C925 C 0.5168 0.17444 0.6142 0.0
C926 C 0.54013 0.16456 0.63374 0.0
C927 C 0.5379 0.15784 0.68016 0.0
C928 C 0.51385 0.16251 0.70676 0.0
C929 C 0.56704 0.16213 0.60517 0.0
C930 C 0.55535 0.14194 0.5654 0.0
C931 C 0.60405 0.18083 0.61532 0.0
C932 C 0.61886 0.20278 0.65647 0.0
C933 C 0.64074 0.19638 0.68544 0.0
C934 C 0.65542 0.21736 0.7238 0.0
C935 C 0.64843 0.24485 0.73359 0.0
C936 C 0.62703 0.25166 0.70478 0.0
C937 C 0.61249 0.23093 0.66618 0.0
H938 H 0.65975 0.261 0.76337 0.0
H939 H 0.52899 0.06845 0.3806 0.0
H940 H 0.35381 0.45145 0.11281 0.0
H941 H 0.39607 0.49351 0.05698 0.0
H942 H 0.34781 0.55941 0.07097 0.0
H943 H 0.30644 0.51828 0.12673 0.0
H944 H 0.35639 0.5458 0.98184 0.0
H945 H 0.42333 0.58314 0.12227 0.0
H946 H 0.45144 0.57399 0.18913 0.0
H947 H 0.51625 0.54878 0.10445 0.0
H948 H 0.48816 0.55737 0.03706 0.0
H949 H 0.51437 0.73307 0.95417 0.0
H950 H 0.47842 0.67879 0.99723 0.0
H951 H 0.45901 0.6156 0.87738 0.0
H952 H 0.4958 0.67007 0.83384 0.0
H953 H 0.48634 0.61967 0.01109 0.0
H954 H 0.36771 0.54409 0.89069 0.0
H955 H 0.33749 0.55553 0.828 0.0
H956 H 0.37408 0.66151 0.87759 0.0
H957 H 0.40388 0.65044 0.94102 0.0
C958 C 0.35253 0.47507 0.10399 0.0
C959 C 0.32674 0.48155 0.12351 0.0
C960 C 0.37647 0.49889 0.07212 0.0
C961 C 0.3747 0.52928 0.05963 0.0
C962 C 0.34925 0.53585 0.07973 0.0
C963 C 0.32571 0.51239 0.11161 0.0
C964 C 0.39946 0.55508 0.02627 0.0
C965 C 0.38492 0.56159 0.98774 0.0
C966 C 0.43655 0.57564 0.03425 0.0
C967 C 0.45332 0.5704 0.07471 0.0
C968 C 0.44333 0.57531 0.11794 0.0
C969 C 0.45931 0.5703 0.15592 0.0
C970 C 0.48552 0.56067 0.15105 0.0
C971 C 0.49588 0.55614 0.10818 0.0
C972 C 0.47995 0.56108 0.07009 0.0
C973 C 0.50286 0.70771 0.9369 0.0
C974 C 0.50825 0.70595 0.89062 0.0
C975 C 0.48233 0.67667 0.96162 0.0
C976 C 0.46623 0.64325 0.94049 0.0
C977 C 0.47127 0.64122 0.89424 0.0
C978 C 0.49216 0.67236 0.86945 0.0
C979 C 0.44313 0.61095 0.96714 0.0
C980 C 0.458 0.60316 1.00434 0.0
C981 C 0.40621 0.58947 0.95821 0.0
C982 C 0.38862 0.59664 0.92009 0.0
C983 C 0.36934 0.56985 0.88816 0.0
C984 C 0.35221 0.57624 0.85256 0.0
C985 C 0.35407 0.60931 0.84865 0.0
C986 C 0.37288 0.63599 0.88049 0.0
C987 C 0.38993 0.62968 0.91624 0.0
H988 H 0.34081 0.61422 0.82106 0.0
H989 H 0.49788 0.55683 0.18049 0.0
H990 H 0.80931 0.33478 0.39246 0.0
H991 H 0.8129 0.38183 0.34378 0.0
H992 H 0.78776 0.31247 0.22879 0.0
H993 H 0.78526 0.26561 0.27709 0.0
H994 H 0.83788 0.37685 0.20731 0.0
H995 H 0.72429 0.32681 0.2809 0.0
H996 H 0.68273 0.30732 0.34521 0.0
H997 H 0.73449 0.41465 0.39575 0.0
H998 H 0.77672 0.4347 0.33207 0.0
H999 H 0.7472 0.48105 0.11604 0.0
H1000 H 0.74694 0.43363 0.16066 0.0
H1001 H 0.86173 0.49552 0.17187 0.0
H1002 H 0.8621 0.54294 0.12622 0.0
H1003 H 0.7658 0.4337 0.24374 0.0
H1004 H 0.89463 0.43827 0.18005 0.0
H1005 H 0.9308 0.45296 0.11085 0.0
H1006 H 0.83842 0.42791 0.03133 0.0
H1007 H 0.80163 0.41263 0.09996 0.0
C1008 C 0.80449 0.3295 0.35681 0.0
C1009 C 0.79668 0.29639 0.33865 0.0
C1010 C 0.80651 0.35641 0.32905 0.0
C1011 C 0.80003 0.35046 0.28278 0.0
C1012 C 0.79282 0.31762 0.26443 0.0
C1013 C 0.79127 0.29083 0.2921 0.0
C1014 C 0.80027 0.3783 0.25362 0.0
C1015 C 0.82214 0.38931 0.21527 0.0
C1016 C 0.77931 0.39415 0.26365 0.0
C1017 C 0.7539 0.38218 0.30195 0.0
C1018 C 0.72699 0.3462 0.30591 0.0
C1019 C 0.70328 0.33506 0.34223 0.0
C1020 C 0.70603 0.35971 0.37461 0.0
C1021 C 0.73244 0.39558 0.37068 0.0
C1022 C 0.75625 0.40685 0.33448 0.0
C1023 C 0.77239 0.48449 0.12794 0.0
C1024 C 0.80469 0.51558 0.11792 0.0
C1025 C 0.7722 0.45743 0.15345 0.0
C1026 C 0.8043 0.46097 0.16942 0.0
C1027 C 0.83669 0.49204 0.15933 0.0
C1028 C 0.8369 0.5191 0.13344 0.0
C1029 C 0.80348 0.43235 0.1975 0.0
C1030 C 0.78161 0.42131 0.23581 0.0
C1031 C 0.82367 0.41582 0.18673 0.0
C1032 C 0.8455 0.42471 0.1452 0.0
C1033 C 0.88204 0.43582 0.14778 0.0
C1034 C 0.90264 0.44425 0.10866 0.0
C1035 C 0.88695 0.4415 0.06674 0.0
C1036 C 0.85058 0.43018 0.06383 0.0
C1037 C 0.82985 0.42168 0.10284 0.0
H1038 H 0.90295 0.44805 0.0365 0.0
H1039 H 0.68765 0.35103 0.40269 0.0
H1040 H 0.26954 0.82191 0.60994 0.0
H1041 H 0.31935 0.82954 0.65566 0.0
H1042 H 0.36181 0.79993 0.54285 0.0
H1043 H 0.31195 0.79274 0.49616 0.0
H1044 H 0.33574 0.78152 0.68036 0.0
H1045 H 0.45361 0.84254 0.55439 0.0
H1046 H 0.47314 0.8813 0.48732 0.0
H1047 H 0.41245 0.92974 0.53058 0.0
H1048 H 0.39296 0.89162 0.59815 0.0
H1049 H 0.47894 0.76804 0.76935 0.0
H1050 H 0.43418 0.76627 0.71787 0.0
H1051 H 0.48229 0.88074 0.72779 0.0
H1052 H 0.528 0.88271 0.77838 0.0
H1053 H 0.46386 0.85881 0.64241 0.0
H1054 H 0.40732 0.82649 0.78706 0.0
H1055 H 0.38785 0.7925 0.85798 0.0
H1056 H 0.32552 0.69536 0.78414 0.0
H1057 H 0.34492 0.72872 0.71271 0.0
C1058 C 0.28949 0.81714 0.59458 0.0
C1059 C 0.2867 0.80656 0.54937 0.0
C1060 C 0.31796 0.8215 0.62088 0.0
C1061 C 0.34429 0.81534 0.6027 0.0
C1062 C 0.34196 0.80522 0.5574 0.0
C1063 C 0.31344 0.80103 0.53081 0.0
C1064 C 0.37327 0.81832 0.63204 0.0
C1065 C 0.36375 0.79838 0.67197 0.0
C1066 C 0.40979 0.84071 0.62143 0.0
C1067 C 0.42152 0.86393 0.58105 0.0
C1068 C 0.44451 0.86153 0.54963 0.0
C1069 C 0.45557 0.88338 0.51153 0.0
C1070 C 0.44394 0.90788 0.50461 0.0
C1071 C 0.42132 0.91065 0.53587 0.0
C1072 C 0.41021 0.88888 0.57404 0.0
C1073 C 0.48017 0.79286 0.76018 0.0
C1074 C 0.50687 0.82553 0.77764 0.0
C1075 C 0.45448 0.79179 0.73103 0.0
C1076 C 0.4547 0.82333 0.71943 0.0
C1077 C 0.48168 0.85611 0.73636 0.0
C1078 C 0.50757 0.85719 0.7654 0.0
C1079 C 0.42623 0.82187 0.69047 0.0
C1080 C 0.43583 0.84192 0.65063 0.0
C1081 C 0.38971 0.80021 0.70162 0.0
C1082 C 0.37787 0.78007 0.74453 0.0
C1083 C 0.38968 0.79784 0.78593 0.0
C1084 C 0.37863 0.7787 0.82621 0.0
C1085 C 0.35561 0.74178 0.82554 0.0
C1086 C 0.34345 0.72394 0.78459 0.0
C1087 C 0.35441 0.74297 0.7442 0.0
H1088 H 0.34706 0.72701 0.85677 0.0
H1089 H 0.45252 0.92476 0.4751 0.0
H1090 H 0.67136 0.46057 0.05233 0.0
H1091 H 0.62626 0.41769 1.00109 0.0
H1092 H 0.653 0.50165 0.90422 0.0
H1093 H 0.69883 0.54453 0.95502 0.0
H1094 H 0.568 0.41079 0.96554 0.0
H1095 H 0.64197 0.46758 0.79909 0.0
H1096 H 0.70363 0.50559 0.77145 0.0
H1097 H 0.74342 0.47013 0.88009 0.0
H1098 H 0.68204 0.43169 0.90808 0.0
H1099 H 0.45368 0.31654 0.782 0.0
H1100 H 0.49792 0.36659 0.8271 0.0
H1101 H 0.56487 0.31898 0.82923 0.0
H1102 H 0.52052 0.26867 0.78449 0.0
H1103 H 0.60246 0.39395 0.81221 0.0
H1104 H 0.51813 0.30785 0.91714 0.0
H1105 H 0.45923 0.26839 0.9509 0.0
H1106 H 0.44314 0.35759 0.9703 0.0
H1107 H 0.50204 0.39778 0.93632 0.0
C1108 C 0.66748 0.46992 0.02022 0.0
C1109 C 0.6889 0.50573 0.00732 0.0
C1110 C 0.64169 0.44542 0.99099 0.0
C1111 C 0.63664 0.45636 0.94856 0.0
C1112 C 0.65701 0.49247 0.93638 0.0
C1113 C 0.68317 0.51691 0.96538 0.0
C1114 C 0.61062 0.42956 0.91696 0.0
C1115 C 0.5755 0.40732 0.93191 0.0
C1116 C 0.6205 0.42488 0.87316 0.0
C1117 C 0.65744 0.44698 0.85583 0.0
C1118 C 0.66387 0.46774 0.81689 0.0
C1119 C 0.69877 0.4894 0.80121 0.0
C1120 C 0.7274 0.49028 0.82403 0.0
C1121 C 0.72121 0.46945 0.86249 0.0
C1122 C 0.68639 0.44775 0.87829 0.0
C1123 C 0.478 0.31697 0.79179 0.0
C1124 C 0.4838 0.28886 0.78004 0.0
C1125 C 0.50313 0.34546 0.81754 0.0
C1126 C 0.53452 0.34633 0.83144 0.0
C1127 C 0.54082 0.31876 0.81861 0.0
C1128 C 0.51548 0.29005 0.79333 0.0
C1129 C 0.56008 0.37516 0.8611 0.0
C1130 C 0.59496 0.39783 0.84566 0.0
C1131 C 0.5502 0.37996 0.90472 0.0
C1132 C 0.51431 0.35575 0.92373 0.0
C1133 C 0.50187 0.31902 0.92808 0.0
C1134 C 0.46854 0.29653 0.94742 0.0
C1135 C 0.44742 0.3104 0.96271 0.0
C1136 C 0.45953 0.34686 0.95845 0.0
C1137 C 0.49291 0.36953 0.9392 0.0
H1138 H 0.42177 0.29292 0.97804 0.0
H1139 H 0.75438 0.50706 0.81189 0.0
loop_
_geom_bond_atom_site_label_1
_geom_bond_atom_site_label_2
_geom_bond_distance
_geom_bond_site_symmetry_2
_ccdc_geom_bond_type
Ho0 C3 2.811 . S
Ho0 O20 2.322 . S
Ho0 O22 2.378 . S
Ho0 O23 2.524 . S
Ho0 O24 2.381 . S
Ho0 O25 2.669 . S
Ho0 O27 2.346 . S
Ho0 O31 2.305 . S
Ho1 C12 2.811 . S
Ho1 O21 2.346 . S
Ho1 O25 2.305 . S
Ho1 O26 2.322 . S
Ho1 O28 2.378 . S
Ho1 O29 2.524 . S
Ho1 O30 2.381 . S
Ho1 O31 2.669 . S
C2 O20 1.259 . S
C2 O21 1.268 . S
C3 Ho0 2.811 . S
C3 C4 1.488 . S
C3 O22 1.215 . S
C3 O23 1.289 . S
C4 C3 1.488 . S
C4 C5 1.348 1_554 S
C4 C9 1.413 1_554 S
C5 C4 1.348 1_556 S
C5 C6 1.442 . S
C5 H32 0.942 . S
C6 C5 1.442 . S
C6 C7 1.381 . S
C6 H33 0.931 . S
C7 C6 1.381 . S
C7 C8 1.321 . S
C8 C7 1.321 . S
C8 C9 1.403 . S
C8 H34 0.934 . S
C9 C4 1.413 1_556 S
C9 C8 1.403 . S
C9 H35 0.930 1_556 S
C10 O24 1.275 . S
C10 O25 1.256 . S
C11 O26 1.259 . S
C11 O27 1.268 . S
C12 Ho1 2.811 . S
C12 C13 1.488 . S
C12 O28 1.215 . S
C12 O29 1.289 . S
C13 C12 1.488 . S
C13 C14 1.348 . S
C13 C18 1.413 . S
C14 C13 1.348 . S
C14 C15 1.442 . S
C14 H36 0.930 . S
C15 C14 1.442 . S
C15 C16 1.381 . S
C15 H37 0.931 . S
C16 C15 1.381 . S
C16 C17 1.321 . S
C17 C16 1.321 . S
C17 C18 1.403 . S
C17 H38 0.934 . S
C18 C13 1.413 . S
C18 C17 1.403 . S
C18 H39 0.930 . S
C19 O30 1.275 . S
C19 O31 1.256 . S
O20 Ho0 2.322 . S
O20 C2 1.259 . S
O21 Ho1 2.346 . S
O21 C2 1.268 . S
O22 Ho0 2.378 . S
O22 C3 1.215 . S
O23 Ho0 2.524 . S
O23 C3 1.289 . S
O24 Ho0 2.381 . S
O24 C10 1.275 . S
O25 Ho0 2.669 . S
O25 Ho1 2.305 . S
O25 C10 1.256 . S
O26 Ho1 2.322 . S
O26 C11 1.259 . S
O27 Ho0 2.346 . S
O27 C11 1.268 . S
O28 Ho1 2.378 . S
O28 C12 1.215 . S
O29 Ho1 2.524 . S
O29 C12 1.289 . S
O30 Ho1 2.381 . S
O30 C19 1.275 . S
O31 Ho0 2.305 . S
O31 Ho1 2.669 . S
O31 C19 1.256 . S
H32 C5 0.942 . S
H33 C6 0.931 . S
H34 C8 0.934 . S
H35 C9 0.930 1_554 S
H36 C14 0.930 . S
H37 C15 0.931 . S
H38 C17 0.934 . S
H39 C18 0.930 . S
Ho40 C43 2.811 . S
Ho40 O60 2.322 . S
Ho40 O62 2.378 . S
Ho40 O63 2.524 . S
Ho40 O64 2.381 . S
Ho40 O65 2.669 . S
Ho40 O67 2.346 . S
Ho40 O71 2.305 . S
Ho41 C52 2.811 . S
Ho41 O61 2.346 . S
Ho41 O65 2.305 . S
Ho41 O66 2.322 . S
Ho41 O68 2.378 . S
Ho41 O69 2.524 . S
Ho41 O70 2.381 . S
Ho41 O71 2.669 . S
C42 O60 1.259 . S
C42 O61 1.268 . S
C43 Ho40 2.811 . S
C43 C44 1.488 . S
C43 O62 1.215 . S
C43 O63 1.289 . S
C44 C43 1.488 . S
C44 C45 1.348 . S
C44 C49 1.413 . S
C45 C44 1.348 . S
C45 C46 1.442 . S
C45 H72 0.930 . S
C46 C45 1.442 . S
C46 C47 1.381 . S
C46 H73 0.931 . S
C47 C46 1.381 . S
C47 C48 1.321 . S
C48 C47 1.321 . S
C48 C49 1.403 . S
C48 H74 0.934 . S
C49 C44 1.413 . S
C49 C48 1.403 . S
C49 H75 0.930 . S
C50 O64 1.275 . S
C50 O65 1.256 . S
C51 O66 1.259 . S
C51 O67 1.268 . S
C52 Ho41 2.811 . S
C52 C53 1.488 . S
C52 O68 1.215 . S
C52 O69 1.289 . S
C53 C52 1.488 . S
C53 C54 1.348 . S
C53 C58 1.413 . S
C54 C53 1.348 . S
C54 C55 1.442 . S
C54 H76 0.930 . S
C55 C54 1.442 . S
C55 C56 1.381 . S
C55 H77 0.931 . S
C56 C55 1.381 . S
C56 C57 1.321 . S
C57 C56 1.321 . S
C57 C58 1.403 . S
C57 H78 0.934 . S
C58 C53 1.413 . S
C58 C57 1.403 . S
C58 H79 0.930 . S
C59 O70 1.275 . S
C59 O71 1.256 . S
O60 Ho40 2.322 . S
O60 C42 1.259 . S
O61 Ho41 2.346 . S
O61 C42 1.268 . S
O62 Ho40 2.378 . S
O62 C43 1.215 . S
O63 Ho40 2.524 . S
O63 C43 1.289 . S
O64 Ho40 2.381 . S
O64 C50 1.275 . S
O65 Ho40 2.669 . S
O65 Ho41 2.305 . S
O65 C50 1.256 . S
O66 Ho41 2.322 . S
O66 C51 1.259 . S
O67 Ho40 2.346 . S
O67 C51 1.268 . S
O68 Ho41 2.378 . S
O68 C52 1.215 . S
O69 Ho41 2.524 . S
O69 C52 1.289 . S
O70 Ho41 2.381 . S
O70 C59 1.275 . S
O71 Ho40 2.305 . S
O71 Ho41 2.669 . S
O71 C59 1.256 . S
H72 C45 0.930 . S
H73 C46 0.931 . S
H74 C48 0.934 . S
H75 C49 0.930 . S
H76 C54 0.930 . S
H77 C55 0.931 . S
H78 C57 0.934 . S
H79 C58 0.930 . S
Ho80 C83 2.811 . S
Ho80 O100 2.322 . S
Ho80 O102 2.378 . S
Ho80 O103 2.524 . S
Ho80 O104 2.381 . S
Ho80 O105 2.669 . S
Ho80 O107 2.346 . S
Ho80 O111 2.305 . S
Ho81 C92 2.811 1_556 S
Ho81 O101 2.346 . S
Ho81 O105 2.305 . S
Ho81 O106 2.322 . S
Ho81 O108 2.378 . S
Ho81 O109 2.524 . S
Ho81 O110 2.381 . S
Ho81 O111 2.669 . S
C82 O100 1.259 . S
C82 O101 1.268 . S
C83 Ho80 2.811 . S
C83 C84 1.488 . S
C83 O102 1.215 . S
C83 O103 1.289 . S
C84 C83 1.488 . S
C84 C85 1.348 . S
C84 C89 1.413 . S
C85 C84 1.348 . S
C85 C86 1.442 . S
C85 H112 0.930 . S
C86 C85 1.442 . S
C86 C87 1.381 . S
C86 H113 0.931 . S
C87 C86 1.381 . S
C87 C88 1.321 . S
C88 C87 1.321 . S
C88 C89 1.403 . S
C88 H114 0.934 . S
C89 C84 1.413 . S
C89 C88 1.403 . S
C89 H115 0.930 . S
C90 O104 1.275 . S
C90 O105 1.256 . S
C91 O106 1.259 . S
C91 O107 1.268 . S
C92 Ho81 2.811 1_554 S
C92 C93 1.488 . S
C92 O108 1.215 1_554 S
C92 O109 1.289 1_554 S
C93 C92 1.488 . S
C93 C94 1.348 . S
C93 C98 1.413 . S
C94 C93 1.348 . S
C94 C95 1.442 . S
C94 H116 0.930 . S
C95 C94 1.442 . S
C95 C96 1.381 . S
C95 H117 0.931 . S
C96 C95 1.381 . S
C96 C97 1.321 . S
C97 C96 1.321 . S
C97 C98 1.403 . S
C97 H118 0.934 . S
C98 C93 1.413 . S
C98 C97 1.403 . S
C98 H119 0.930 . S
C99 O110 1.275 . S
C99 O111 1.256 . S
O100 Ho80 2.322 . S
O100 C82 1.259 . S
O101 Ho81 2.346 . S
O101 C82 1.268 . S
O102 Ho80 2.378 . S
O102 C83 1.215 . S
O103 Ho80 2.524 . S
O103 C83 1.289 . S
O104 Ho80 2.381 . S
O104 C90 1.275 . S
O105 Ho80 2.669 . S
O105 Ho81 2.305 . S
O105 C90 1.256 . S
O106 Ho81 2.322 . S
O106 C91 1.259 . S
O107 Ho80 2.346 . S
O107 C91 1.268 . S
O108 Ho81 2.378 . S
O108 C92 1.215 1_556 S
O109 Ho81 2.524 . S
O109 C92 1.289 1_556 S
O110 Ho81 2.381 . S
O110 C99 1.275 . S
O111 Ho80 2.305 . S
O111 Ho81 2.669 . S
O111 C99 1.256 . S
H112 C85 0.930 . S
H113 C86 0.931 . S
H114 C88 0.934 . S
H115 C89 0.930 . S
H116 C94 0.930 . S
H117 C95 0.931 . S
H118 C97 0.934 . S
H119 C98 0.930 . S
Ho120 C123 2.811 . S
Ho120 O140 2.322 . S
Ho120 O142 2.378 . S
Ho120 O143 2.524 . S
Ho120 O144 2.381 . S
Ho120 O145 2.669 . S
Ho120 O147 2.346 . S
Ho120 O151 2.305 . S
Ho121 C132 2.811 . S
Ho121 O141 2.346 1_556 S
Ho121 O145 2.305 1_556 S
Ho121 O146 2.322 . S
Ho121 O148 2.378 . S
Ho121 O149 2.524 . S
Ho121 O150 2.381 1_556 S
Ho121 O151 2.669 1_556 S
C122 O140 1.259 . S
C122 O141 1.268 . S
C123 Ho120 2.811 . S
C123 C124 1.488 . S
C123 O142 1.215 . S
C123 O143 1.289 . S
C124 C123 1.488 . S
C124 C125 1.348 . S
C124 C129 1.413 . S
C125 C124 1.348 . S
C125 C126 1.442 . S
C125 H152 0.930 . S
C126 C125 1.442 . S
C126 C127 1.381 . S
C126 H153 0.931 . S
C127 C126 1.381 . S
C127 C128 1.321 . S
C128 C127 1.321 . S
C128 C129 1.403 . S
C128 H154 0.934 . S
C129 C124 1.413 . S
C129 C128 1.403 . S
C129 H155 0.930 . S
C130 O144 1.275 . S
C130 O145 1.256 . S
C131 O146 1.259 . S
C131 O147 1.268 1_556 S
C132 Ho121 2.811 . S
C132 C133 1.488 . S
C132 O148 1.215 . S
C132 O149 1.289 . S
C133 C132 1.488 . S
C133 C134 1.348 . S
C133 C138 1.413 . S
C134 C133 1.348 . S
C134 C135 1.442 . S
C134 H156 0.930 . S
C135 C134 1.442 . S
C135 C136 1.381 . S
C135 H157 0.931 . S
C136 C135 1.381 . S
C136 C137 1.321 . S
C137 C136 1.321 . S
C137 C138 1.403 . S
C137 H158 0.934 . S
C138 C133 1.413 . S
C138 C137 1.403 . S
C138 H159 0.930 . S
C139 O150 1.275 . S
C139 O151 1.256 . S
O140 Ho120 2.322 . S
O140 C122 1.259 . S
O141 Ho121 2.346 1_554 S
O141 C122 1.268 . S
O142 Ho120 2.378 . S
O142 C123 1.215 . S
O143 Ho120 2.524 . S
O143 C123 1.289 . S
O144 Ho120 2.381 . S
O144 C130 1.275 . S
O145 Ho120 2.669 . S
O145 Ho121 2.305 1_554 S
O145 C130 1.256 . S
O146 Ho121 2.322 . S
O146 C131 1.259 . S
O147 Ho120 2.346 . S
O147 C131 1.268 1_554 S
O148 Ho121 2.378 . S
O148 C132 1.215 . S
O149 Ho121 2.524 . S
O149 C132 1.289 . S
O150 Ho121 2.381 1_554 S
O150 C139 1.275 . S
O151 Ho120 2.305 . S
O151 Ho121 2.669 1_554 S
O151 C139 1.256 . S
H152 C125 0.930 . S
H153 C126 0.931 . S
H154 C128 0.934 . S
H155 C129 0.930 . S
H156 C134 0.930 . S
H157 C135 0.931 . S
H158 C137 0.934 . S
H159 C138 0.930 . S
Ho160 C163 2.811 . S
Ho160 O180 2.322 . S
Ho160 O182 2.378 . S
Ho160 O183 2.524 . S
Ho160 O184 2.381 . S
Ho160 O185 2.669 . S
Ho160 O187 2.346 . S
Ho160 O191 2.305 . S
Ho161 C172 2.811 . S
Ho161 O181 2.346 . S
Ho161 O185 2.305 . S
Ho161 O186 2.322 . S
Ho161 O188 2.378 . S
Ho161 O189 2.524 . S
Ho161 O190 2.381 . S
Ho161 O191 2.669 . S
C162 O180 1.259 . S
C162 O181 1.268 . S
C163 Ho160 2.811 . S
C163 C164 1.488 . S
C163 O182 1.215 . S
C163 O183 1.289 . S
C164 C163 1.488 . S
C164 C165 1.348 . S
C164 C169 1.413 . S
C165 C164 1.348 . S
C165 C166 1.442 . S
C165 H192 0.930 . S
C166 C165 1.442 . S
C166 C167 1.381 . S
C166 H193 0.931 . S
C167 C166 1.381 . S
C167 C168 1.321 . S
C168 C167 1.321 . S
C168 C169 1.403 . S
C168 H194 0.934 . S
C169 C164 1.413 . S
C169 C168 1.403 . S
C169 H195 0.930 . S
C170 O184 1.275 . S
C170 O185 1.256 . S
C171 O186 1.259 . S
C171 O187 1.268 . S
C172 Ho161 2.811 . S
C172 C173 1.488 . S
C172 O188 1.215 . S
C172 O189 1.289 . S
C173 C172 1.488 . S
C173 C174 1.348 . S
C173 C178 1.413 . S
C174 C173 1.348 . S
C174 C175 1.442 . S
C174 H196 0.930 . S
C175 C174 1.442 . S
C175 C176 1.381 . S
C175 H197 0.931 . S
C176 C175 1.381 . S
C176 C177 1.321 . S
C177 C176 1.321 . S
C177 C178 1.403 . S
C177 H198 0.934 . S
C178 C173 1.413 . S
C178 C177 1.403 . S
C178 H199 0.930 . S
C179 O190 1.275 . S
C179 O191 1.256 . S
O180 Ho160 2.322 . S
O180 C162 1.259 . S
O181 Ho161 2.346 . S
O181 C162 1.268 . S
O182 Ho160 2.378 . S
O182 C163 1.215 . S
O183 Ho160 2.524 . S
O183 C163 1.289 . S
O184 Ho160 2.381 . S
O184 C170 1.275 . S
O185 Ho160 2.669 . S
O185 Ho161 2.305 . S
O185 C170 1.256 . S
O186 Ho161 2.322 . S
O186 C171 1.259 . S
O187 Ho160 2.346 . S
O187 C171 1.268 . S
O188 Ho161 2.378 . S
O188 C172 1.215 . S
O189 Ho161 2.524 . S
O189 C172 1.289 . S
O190 Ho161 2.381 . S
O190 C179 1.275 . S
O191 Ho160 2.305 . S
O191 Ho161 2.669 . S
O191 C179 1.256 . S
H192 C165 0.930 . S
H193 C166 0.931 . S
H194 C168 0.934 . S
H195 C169 0.930 . S
H196 C174 0.930 . S
H197 C175 0.931 . S
H198 C177 0.934 . S
H199 C178 0.930 . S
Ho200 C203 2.811 . S
Ho200 O220 2.322 . S
Ho200 O222 2.378 . S
Ho200 O223 2.524 . S
Ho200 O224 2.381 . S
Ho200 O225 2.669 . S
Ho200 O227 2.346 . S
Ho200 O231 2.305 . S
Ho201 C212 2.811 . S
Ho201 O221 2.346 . S
Ho201 O225 2.305 . S
Ho201 O226 2.322 . S
Ho201 O228 2.378 . S
Ho201 O229 2.524 . S
Ho201 O230 2.381 . S
Ho201 O231 2.669 . S
C202 O220 1.259 . S
C202 O221 1.268 . S
C203 Ho200 2.811 . S
C203 C204 1.488 . S
C203 O222 1.215 . S
C203 O223 1.289 . S
C204 C203 1.488 . S
C204 C205 1.348 . S
C204 C209 1.413 . S
C205 C204 1.348 . S
C205 C206 1.442 . S
C205 H232 0.930 . S
C206 C205 1.442 . S
C206 C207 1.381 . S
C206 H233 0.931 . S
C207 C206 1.381 . S
C207 C208 1.321 . S
C208 C207 1.321 . S
C208 C209 1.403 . S
C208 H234 0.934 . S
C209 C204 1.413 . S
C209 C208 1.403 . S
C209 H235 0.930 . S
C210 O224 1.275 . S
C210 O225 1.256 . S
C211 O226 1.259 . S
C211 O227 1.268 . S
C212 Ho201 2.811 . S
C212 C213 1.488 . S
C212 O228 1.215 . S
C212 O229 1.289 . S
C213 C212 1.488 . S
C213 C214 1.348 . S
C213 C218 1.413 . S
C214 C213 1.348 . S
C214 C215 1.442 . S
C214 H236 0.930 . S
C215 C214 1.442 . S
C215 C216 1.381 . S
C215 H237 0.931 . S
C216 C215 1.381 . S
C216 C217 1.321 . S
C217 C216 1.321 . S
C217 C218 1.403 . S
C217 H238 0.934 . S
C218 C213 1.413 . S
C218 C217 1.403 . S
C218 H239 0.930 . S
C219 O230 1.275 . S
C219 O231 1.256 . S
O220 Ho200 2.322 . S
O220 C202 1.259 . S
O221 Ho201 2.346 . S
O221 C202 1.268 . S
O222 Ho200 2.378 . S
O222 C203 1.215 . S
O223 Ho200 2.524 . S
O223 C203 1.289 . S
O224 Ho200 2.381 . S
O224 C210 1.275 . S
O225 Ho200 2.669 . S
O225 Ho201 2.305 . S
O225 C210 1.256 . S
O226 Ho201 2.322 . S
O226 C211 1.259 . S
O227 Ho200 2.346 . S
O227 C211 1.268 . S
O228 Ho201 2.378 . S
O228 C212 1.215 . S
O229 Ho201 2.524 . S
O229 C212 1.289 . S
O230 Ho201 2.381 . S
O230 C219 1.275 . S
O231 Ho200 2.305 . S
O231 Ho201 2.669 . S
O231 C219 1.256 . S
H232 C205 0.930 . S
H233 C206 0.931 . S
H234 C208 0.934 . S
H235 C209 0.930 . S
H236 C214 0.930 . S
H237 C215 0.931 . S
H238 C217 0.934 . S
H239 C218 0.930 . S
H240 C258 0.951 . S
H241 C260 0.951 . S
H242 C262 0.950 . S
H243 C263 0.950 . S
H244 C265 0.950 . S
H245 C268 0.950 . S
H246 C269 0.950 . S
H247 C271 0.950 . S
H248 C272 0.950 . S
H249 C273 0.951 . S
H250 C275 0.951 . S
H251 C277 0.950 . S
H252 C278 0.950 . S
H253 C280 0.950 . S
H254 C283 0.950 . S
H255 C284 0.950 . S
H256 C286 0.950 . S
H257 C287 0.950 1_556 S
C258 H240 0.951 . S
C258 C259 1.366 . S
C258 C260 1.388 . S
C259 C258 1.366 . S
C259 C263 1.385 . S
C260 H241 0.951 . S
C260 C258 1.388 . S
C260 C261 1.366 . S
C261 C260 1.366 . S
C261 C262 1.414 . S
C261 C264 1.499 . S
C262 H242 0.950 . S
C262 C261 1.414 . S
C262 C263 1.374 . S
C263 H243 0.950 . S
C263 C259 1.385 . S
C263 C262 1.374 . S
C264 C261 1.499 . S
C264 C265 1.373 . S
C264 C266 1.389 . S
C265 H244 0.950 . S
C265 C264 1.373 . S
C265 C281 1.377 . S
C266 C264 1.389 . S
C266 C267 1.524 . S
C266 C280 1.377 . S
C267 C266 1.524 . S
C267 C268 1.397 . S
C267 C272 1.363 . S
C268 H245 0.950 . S
C268 C267 1.397 . S
C268 C269 1.334 . S
C269 H246 0.950 . S
C269 C268 1.334 . S
C269 C270 1.287 . S
C270 C269 1.287 . S
C270 C271 1.524 . S
C270 H289 0.913 . S
C271 H247 0.950 . S
C271 C270 1.524 . S
C271 C272 1.415 . S
C272 H248 0.950 . S
C272 C267 1.363 . S
C272 C271 1.415 . S
C273 H249 0.951 . S
C273 C274 1.366 . S
C273 C275 1.388 . S
C274 C273 1.366 . S
C274 C278 1.385 . S
C275 H250 0.951 . S
C275 C273 1.388 . S
C275 C276 1.366 . S
C276 C275 1.366 . S
C276 C277 1.414 . S
C276 C279 1.499 1_554 S
C277 H251 0.950 . S
C277 C276 1.414 . S
C277 C278 1.374 . S
C278 H252 0.950 . S
C278 C274 1.385 . S
C278 C277 1.374 . S
C279 C276 1.499 1_556 S
C279 C280 1.373 . S
C279 C281 1.389 . S
C280 H253 0.950 . S
C280 C266 1.377 . S
C280 C279 1.373 . S
C281 C265 1.377 . S
C281 C279 1.389 . S
C281 C282 1.524 1_556 S
C282 C281 1.524 1_554 S
C282 C283 1.397 . S
C282 C287 1.363 . S
C283 H254 0.950 . S
C283 C282 1.397 . S
C283 C284 1.334 . S
C284 H255 0.950 . S
C284 C283 1.334 . S
C284 C285 1.287 . S
C285 C284 1.287 . S
C285 C286 1.524 . S
C285 H288 0.999 . S
C286 H256 0.950 . S
C286 C285 1.524 . S
C286 C287 1.415 . S
C287 H257 0.950 1_554 S
C287 C282 1.363 . S
C287 C286 1.415 . S
H288 C285 0.999 . S
H289 C270 0.913 . S
H290 C308 0.951 . S
H291 C310 0.951 . S
H292 C312 0.950 . S
H293 C313 0.950 . S
H294 C315 0.950 . S
H295 C318 0.950 . S
H296 C319 0.950 . S
H297 C321 0.950 . S
H298 C322 0.950 . S
H299 C323 0.951 . S
H300 C325 0.951 . S
H301 C327 0.950 . S
H302 C328 0.950 . S
H303 C330 0.950 . S
H304 C333 0.950 . S
H305 C334 0.950 . S
H306 C336 0.950 . S
H307 C337 0.950 . S
C308 H290 0.951 . S
C308 C309 1.366 . S
C308 C310 1.388 . S
C309 C308 1.366 . S
C309 C313 1.385 . S
C310 H291 0.951 . S
C310 C308 1.388 . S
C310 C311 1.366 . S
C311 C310 1.366 . S
C311 C312 1.414 . S
C311 C314 1.499 . S
C312 H292 0.950 . S
C312 C311 1.414 . S
C312 C313 1.374 . S
C313 H293 0.950 . S
C313 C309 1.385 . S
C313 C312 1.374 . S
C314 C311 1.499 . S
C314 C315 1.373 . S
C314 C316 1.389 . S
C315 H294 0.950 . S
C315 C314 1.373 . S
C315 C331 1.377 1_455 S
C316 C314 1.389 . S
C316 C317 1.524 . S
C316 C330 1.377 1_455 S
C317 C316 1.524 . S
C317 C318 1.397 . S
C317 C322 1.363 . S
C318 H295 0.950 . S
C318 C317 1.397 . S
C318 C319 1.334 . S
C319 H296 0.950 . S
C319 C318 1.334 . S
C319 C320 1.287 . S
C320 C319 1.287 . S
C320 C321 1.524 . S
C320 H339 0.913 . S
C321 H297 0.950 . S
C321 C320 1.524 . S
C321 C322 1.415 . S
C322 H298 0.950 . S
C322 C317 1.363 . S
C322 C321 1.415 . S
C323 H299 0.951 . S
C323 C324 1.366 . S
C323 C325 1.388 . S
C324 C323 1.366 . S
C324 C328 1.385 . S
C325 H300 0.951 . S
C325 C323 1.388 . S
C325 C326 1.366 . S
C326 C325 1.366 . S
C326 C327 1.414 . S
C326 C329 1.499 . S
C327 H301 0.950 . S
C327 C326 1.414 . S
C327 C328 1.374 . S
C328 H302 0.950 . S
C328 C324 1.385 . S
C328 C327 1.374 . S
C329 C326 1.499 . S
C329 C330 1.373 . S
C329 C331 1.389 . S
C330 H303 0.950 . S
C330 C316 1.377 1_655 S
C330 C329 1.373 . S
C331 C315 1.377 1_655 S
C331 C329 1.389 . S
C331 C332 1.524 . S
C332 C331 1.524 . S
C332 C333 1.397 . S
C332 C337 1.363 . S
C333 H304 0.950 . S
C333 C332 1.397 . S
C333 C334 1.334 . S
C334 H305 0.950 . S
C334 C333 1.334 . S
C334 C335 1.287 . S
C335 C334 1.287 . S
C335 C336 1.524 . S
C335 H338 0.999 . S
C336 H306 0.950 . S
C336 C335 1.524 . S
C336 C337 1.415 . S
C337 H307 0.950 . S
C337 C332 1.363 . S
C337 C336 1.415 . S
H338 C335 0.999 . S
H339 C320 0.913 . S
H340 C358 0.951 . S
H341 C360 0.951 . S
H342 C362 0.950 . S
H343 C363 0.950 . S
H344 C365 0.950 . S
H345 C368 0.950 . S
H346 C369 0.950 . S
H347 C371 0.950 . S
H348 C372 0.950 . S
H349 C373 0.951 . S
H350 C375 0.951 . S
H351 C377 0.950 . S
H352 C378 0.950 . S
H353 C380 0.950 . S
H354 C383 0.950 . S
H355 C384 0.950 . S
H356 C386 0.950 . S
H357 C387 0.950 . S
C358 H340 0.951 . S
C358 C359 1.366 . S
C358 C360 1.388 . S
C359 C358 1.366 . S
C359 C363 1.385 . S
C360 H341 0.951 . S
C360 C358 1.388 . S
C360 C361 1.366 . S
C361 C360 1.366 . S
C361 C362 1.414 . S
C361 C364 1.499 . S
C362 H342 0.950 . S
C362 C361 1.414 . S
C362 C363 1.374 . S
C363 H343 0.950 . S
C363 C359 1.385 . S
C363 C362 1.374 . S
C364 C361 1.499 . S
C364 C365 1.373 1_545 S
C364 C366 1.389 . S
C365 H344 0.950 . S
C365 C364 1.373 1_565 S
C365 C381 1.377 . S
C366 C364 1.389 . S
C366 C367 1.524 . S
C366 C380 1.377 . S
C367 C366 1.524 . S
C367 C368 1.397 . S
C367 C372 1.363 . S
C368 H345 0.950 . S
C368 C367 1.397 . S
C368 C369 1.334 . S
C369 H346 0.950 . S
C369 C368 1.334 . S
C369 C370 1.287 . S
C370 C369 1.287 . S
C370 C371 1.524 . S
C370 H389 0.913 . S
C371 H347 0.950 . S
C371 C370 1.524 . S
C371 C372 1.415 . S
C372 H348 0.950 . S
C372 C367 1.363 . S
C372 C371 1.415 . S
C373 H349 0.951 . S
C373 C374 1.366 . S
C373 C375 1.388 . S
C374 C373 1.366 . S
C374 C378 1.385 . S
C375 H350 0.951 . S
C375 C373 1.388 . S
C375 C376 1.366 . S
C376 C375 1.366 . S
C376 C377 1.414 . S
C376 C379 1.499 . S
C377 H351 0.950 . S
C377 C376 1.414 . S
C377 C378 1.374 . S
C378 H352 0.950 . S
C378 C374 1.385 . S
C378 C377 1.374 . S
C379 C376 1.499 . S
C379 C380 1.373 1_565 S
C379 C381 1.389 . S
C380 H353 0.950 . S
C380 C366 1.377 . S
C380 C379 1.373 1_545 S
C381 C365 1.377 . S
C381 C379 1.389 . S
C381 C382 1.524 . S
C382 C381 1.524 . S
C382 C383 1.397 . S
C382 C387 1.363 . S
C383 H354 0.950 . S
C383 C382 1.397 . S
C383 C384 1.334 . S
C384 H355 0.950 . S
C384 C383 1.334 . S
C384 C385 1.287 . S
C385 C384 1.287 . S
C385 C386 1.524 . S
C385 H388 0.999 . S
C386 H356 0.950 . S
C386 C385 1.524 . S
C386 C387 1.415 . S
C387 H357 0.950 . S
C387 C382 1.363 . S
C387 C386 1.415 . S
H388 C385 0.999 . S
H389 C370 0.913 . S
H390 C408 0.951 . S
H391 C410 0.951 . S
H392 C412 0.950 . S
H393 C413 0.950 . S
H394 C415 0.950 . S
H395 C418 0.950 . S
H396 C419 0.950 . S
H397 C421 0.951 . S
H398 C422 0.950 . S
H399 C423 0.955 . S
H400 C425 0.951 . S
H401 C427 0.950 . S
H402 C428 0.950 . S
H403 C430 0.950 . S
H404 C433 0.950 . S
H405 C434 0.950 . S
H406 C436 0.950 . S
H407 C437 0.950 . S
C408 H390 0.951 . S
C408 C409 1.366 . S
C408 C410 1.388 . S
C409 C408 1.366 . S
C409 C413 1.385 . S
C410 H391 0.951 . S
C410 C408 1.388 . S
C410 C411 1.366 . S
C411 C410 1.366 . S
C411 C412 1.414 . S
C411 C414 1.499 . S
C412 H392 0.950 . S
C412 C411 1.414 . S
C412 C413 1.374 . S
C413 H393 0.950 . S
C413 C409 1.385 . S
C413 C412 1.374 . S
C414 C411 1.499 . S
C414 C415 1.373 . S
C414 C416 1.389 . S
C415 H394 0.950 . S
C415 C414 1.373 . S
C415 C431 1.377 . S
C416 C414 1.389 . S
C416 C417 1.524 . S
C416 C430 1.377 . S
C417 C416 1.524 . S
C417 C418 1.397 1_556 S
C417 C422 1.363 . S
C418 H395 0.950 . S
C418 C417 1.397 1_554 S
C418 C419 1.334 . S
C419 H396 0.950 . S
C419 C418 1.334 . S
C419 C420 1.287 . S
C420 C419 1.287 . S
C420 C421 1.516 1_554 S
C420 H439 0.913 . S
C421 H397 0.951 . S
C421 C420 1.516 1_556 S
C421 C422 1.421 . S
C422 H398 0.950 . S
C422 C417 1.363 . S
C422 C421 1.421 . S
C423 H399 0.955 . S
C423 C424 1.364 1_554 S
C423 C425 1.385 1_554 S
C424 C423 1.364 1_556 S
C424 C428 1.385 . S
C425 H400 0.951 . S
C425 C423 1.385 1_556 S
C425 C426 1.366 . S
C426 C425 1.366 . S
C426 C427 1.414 . S
C426 C429 1.499 . S
C427 H401 0.950 . S
C427 C426 1.414 . S
C427 C428 1.374 . S
C428 H402 0.950 . S
C428 C424 1.385 . S
C428 C427 1.374 . S
C429 C426 1.499 . S
C429 C430 1.373 . S
C429 C431 1.389 . S
C430 H403 0.950 . S
C430 C416 1.377 . S
C430 C429 1.373 . S
C431 C415 1.377 . S
C431 C429 1.389 . S
C431 C432 1.524 . S
C432 C431 1.524 . S
C432 C433 1.397 . S
C432 C437 1.363 . S
C433 H404 0.950 . S
C433 C432 1.397 . S
C433 C434 1.334 . S
C434 H405 0.950 . S
C434 C433 1.334 . S
C434 C435 1.287 . S
C435 C434 1.287 . S
C435 C436 1.524 . S
C435 H438 0.999 . S
C436 H406 0.950 . S
C436 C435 1.524 . S
C436 C437 1.415 . S
C437 H407 0.950 . S
C437 C432 1.363 . S
C437 C436 1.415 . S
H438 C435 0.999 . S
H439 C420 0.913 . S
H440 C458 0.951 . S
H441 C460 0.951 . S
H442 C462 0.950 . S
H443 C463 0.950 . S
H444 C465 0.950 . S
H445 C468 0.950 . S
H446 C469 0.950 . S
H447 C471 0.950 . S
H448 C472 0.950 . S
H449 C473 0.951 . S
H450 C475 0.951 . S
H451 C477 0.950 . S
H452 C478 0.950 . S
H453 C480 0.950 . S
H454 C483 0.950 . S
H455 C484 0.950 . S
H456 C486 0.950 . S
H457 C487 0.950 . S
C458 H440 0.951 . S
C458 C459 1.366 . S
C458 C460 1.388 . S
C459 C458 1.366 . S
C459 C463 1.385 . S
C460 H441 0.951 . S
C460 C458 1.388 . S
C460 C461 1.366 . S
C461 C460 1.366 . S
C461 C462 1.414 . S
C461 C464 1.499 . S
C462 H442 0.950 . S
C462 C461 1.414 . S
C462 C463 1.374 . S
C463 H443 0.950 . S
C463 C459 1.385 . S
C463 C462 1.374 . S
C464 C461 1.499 . S
C464 C465 1.373 . S
C464 C466 1.389 1_455 S
C465 H444 0.950 . S
C465 C464 1.373 . S
C465 C481 1.377 . S
C466 C464 1.389 1_655 S
C466 C467 1.524 . S
C466 C480 1.377 . S
C467 C466 1.524 . S
C467 C468 1.397 1_655 S
C467 C472 1.363 . S
C468 H445 0.950 . S
C468 C467 1.397 1_455 S
C468 C469 1.334 . S
C469 H446 0.950 . S
C469 C468 1.334 . S
C469 C470 1.286 1_455 S
C470 C469 1.286 1_655 S
C470 C471 1.525 . S
C470 H489 0.903 1_655 S
C471 H447 0.950 . S
C471 C470 1.525 . S
C471 C472 1.415 . S
C472 H448 0.950 . S
C472 C467 1.363 . S
C472 C471 1.415 . S
C473 H449 0.951 . S
C473 C474 1.366 . S
C473 C475 1.388 . S
C474 C473 1.366 . S
C474 C478 1.385 . S
C475 H450 0.951 . S
C475 C473 1.388 . S
C475 C476 1.366 . S
C476 C475 1.366 . S
C476 C477 1.414 . S
C476 C479 1.499 . S
C477 H451 0.950 . S
C477 C476 1.414 . S
C477 C478 1.374 . S
C478 H452 0.950 . S
C478 C474 1.385 . S
C478 C477 1.374 . S
C479 C476 1.499 . S
C479 C480 1.373 . S
C479 C481 1.389 1_655 S
C480 H453 0.950 . S
C480 C466 1.377 . S
C480 C479 1.373 . S
C481 C465 1.377 . S
C481 C479 1.389 1_455 S
C481 C482 1.524 . S
C482 C481 1.524 . S
C482 C483 1.397 1_455 S
C482 C487 1.363 . S
C483 H454 0.950 . S
C483 C482 1.397 1_655 S
C483 C484 1.334 . S
C484 H455 0.950 . S
C484 C483 1.334 . S
C484 C485 1.286 1_655 S
C485 C484 1.286 1_455 S
C485 C486 1.525 . S
C485 H488 0.999 . S
C486 H456 0.950 . S
C486 C485 1.525 . S
C486 C487 1.415 . S
C487 H457 0.950 . S
C487 C482 1.363 . S
C487 C486 1.415 . S
H488 C485 0.999 . S
H489 C470 0.903 1_455 S
H490 C508 0.951 . S
H491 C510 0.951 . S
H492 C512 0.950 . S
H493 C513 0.950 . S
H494 C515 0.950 . S
H495 C518 0.950 . S
H496 C519 0.950 . S
H497 C521 0.950 1_565 S
H498 C522 0.948 1_565 S
H499 C523 0.951 . S
H500 C525 0.951 . S
H501 C527 0.950 . S
H502 C528 0.950 . S
H503 C530 0.950 . S
H504 C533 0.950 . S
H505 C534 0.950 . S
H506 C536 0.950 1_545 S
H507 C537 0.948 1_545 S
C508 H490 0.951 . S
C508 C509 1.366 . S
C508 C510 1.388 . S
C509 C508 1.366 . S
C509 C513 1.385 . S
C510 H491 0.951 . S
C510 C508 1.388 . S
C510 C511 1.366 . S
C511 C510 1.366 . S
C511 C512 1.414 . S
C511 C514 1.499 . S
C512 H492 0.950 . S
C512 C511 1.414 . S
C512 C513 1.374 . S
C513 H493 0.950 . S
C513 C509 1.385 . S
C513 C512 1.374 . S
C514 C511 1.499 . S
C514 C515 1.373 . S
C514 C516 1.389 . S
C515 H494 0.950 . S
C515 C514 1.373 . S
C515 C531 1.377 1_545 S
C516 C514 1.389 . S
C516 C517 1.524 . S
C516 C530 1.377 1_545 S
C517 C516 1.524 . S
C517 C518 1.397 . S
C517 C522 1.364 . S
C518 H495 0.950 . S
C518 C517 1.397 . S
C518 C519 1.334 . S
C519 H496 0.950 . S
C519 C518 1.334 . S
C519 C520 1.287 . S
C520 C519 1.287 . S
C520 C521 1.524 . S
C520 H539 0.913 . S
C521 H497 0.950 1_545 S
C521 C520 1.524 . S
C521 C522 1.416 . S
C522 H498 0.948 1_545 S
C522 C517 1.364 . S
C522 C521 1.416 . S
C523 H499 0.951 . S
C523 C524 1.366 . S
C523 C525 1.388 . S
C524 C523 1.366 . S
C524 C528 1.385 . S
C525 H500 0.951 . S
C525 C523 1.388 . S
C525 C526 1.366 . S
C526 C525 1.366 . S
C526 C527 1.414 . S
C526 C529 1.499 . S
C527 H501 0.950 . S
C527 C526 1.414 . S
C527 C528 1.374 . S
C528 H502 0.950 . S
C528 C524 1.385 . S
C528 C527 1.374 . S
C529 C526 1.499 . S
C529 C530 1.373 . S
C529 C531 1.389 . S
C530 H503 0.950 . S
C530 C516 1.377 1_565 S
C530 C529 1.373 . S
C531 C515 1.377 1_565 S
C531 C529 1.389 . S
C531 C532 1.524 . S
C532 C531 1.524 . S
C532 C533 1.397 . S
C532 C537 1.364 . S
C533 H504 0.950 . S
C533 C532 1.397 . S
C533 C534 1.334 . S
C534 H505 0.950 . S
C534 C533 1.334 . S
C534 C535 1.287 . S
C535 C534 1.287 . S
C535 C536 1.524 . S
C535 H538 0.999 . S
C536 H506 0.950 1_565 S
C536 C535 1.524 . S
C536 C537 1.416 . S
C537 H507 0.948 1_565 S
C537 C532 1.364 . S
C537 C536 1.416 . S
H538 C535 0.999 . S
H539 C520 0.913 . S
H540 C558 0.951 . S
H541 C560 0.951 . S
H542 C562 0.950 . S
H543 C563 0.950 . S
H544 C565 0.950 . S
H545 C568 0.950 . S
H546 C569 0.950 . S
H547 C571 0.950 . S
H548 C572 0.950 . S
H549 C573 0.951 . S
H550 C575 0.951 . S
H551 C577 0.950 . S
H552 C578 0.950 . S
H553 C580 0.950 . S
H554 C583 0.950 . S
H555 C584 0.950 . S
H556 C586 0.950 . S
H557 C587 0.950 . S
C558 H540 0.951 . S
C558 C559 1.366 . S
C558 C560 1.388 . S
C559 C558 1.366 . S
C559 C563 1.385 . S
C560 H541 0.951 . S
C560 C558 1.388 . S
C560 C561 1.366 . S
C561 C560 1.366 . S
C561 C562 1.414 . S
C561 C564 1.499 . S
C562 H542 0.950 . S
C562 C561 1.414 . S
C562 C563 1.374 . S
C563 H543 0.950 . S
C563 C559 1.385 . S
C563 C562 1.374 . S
C564 C561 1.499 . S
C564 C565 1.373 . S
C564 C566 1.389 . S
C565 H544 0.950 . S
C565 C564 1.373 . S
C565 C581 1.377 . S
C566 C564 1.389 . S
C566 C567 1.524 . S
C566 C580 1.377 . S
C567 C566 1.524 . S
C567 C568 1.397 . S
C567 C572 1.363 . S
C568 H545 0.950 . S
C568 C567 1.397 . S
C568 C569 1.334 . S
C569 H546 0.950 . S
C569 C568 1.334 . S
C569 C570 1.287 . S
C570 C569 1.287 . S
C570 C571 1.524 . S
C570 H589 0.913 . S
C571 H547 0.950 . S
C571 C570 1.524 . S
C571 C572 1.415 . S
C572 H548 0.950 . S
C572 C567 1.363 . S
C572 C571 1.415 . S
C573 H549 0.951 . S
C573 C574 1.366 . S
C573 C575 1.388 . S
C574 C573 1.366 . S
C574 C578 1.385 . S
C575 H550 0.951 . S
C575 C573 1.388 . S
C575 C576 1.366 . S
C576 C575 1.366 . S
C576 C577 1.414 . S
C576 C579 1.499 . S
C577 H551 0.950 . S
C577 C576 1.414 . S
C577 C578 1.374 . S
C578 H552 0.950 . S
C578 C574 1.385 . S
C578 C577 1.374 . S
C579 C576 1.499 . S
C579 C580 1.373 . S
C579 C581 1.389 . S
C580 H553 0.950 . S
C580 C566 1.377 . S
C580 C579 1.373 . S
C581 C565 1.377 . S
C581 C579 1.389 . S
C581 C582 1.524 . S
C582 C581 1.524 . S
C582 C583 1.397 . S
C582 C587 1.363 . S
C583 H554 0.950 . S
C583 C582 1.397 . S
C583 C584 1.334 . S
C584 H555 0.950 . S
C584 C583 1.334 . S
C584 C585 1.287 . S
C585 C584 1.287 . S
C585 C586 1.524 . S
C585 H588 0.999 . S
C586 H556 0.950 . S
C586 C585 1.524 . S
C586 C587 1.415 . S
C587 H557 0.950 . S
C587 C582 1.363 . S
C587 C586 1.415 . S
H588 C585 0.999 . S
H589 C570 0.913 . S
H590 C608 0.951 . S
H591 C610 0.951 . S
H592 C612 0.950 . S
H593 C613 0.950 . S
H594 C615 0.950 . S
H595 C618 0.950 . S
H596 C619 0.950 . S
H597 C621 0.950 . S
H598 C622 0.950 . S
H599 C623 0.951 . S
H600 C625 0.951 . S
H601 C627 0.950 . S
H602 C628 0.950 . S
H603 C630 0.950 . S
H604 C633 0.950 . S
H605 C634 0.950 . S
H606 C636 0.950 . S
H607 C637 0.950 . S
C608 H590 0.951 . S
C608 C609 1.366 . S
C608 C610 1.388 1_554 S
C609 C608 1.366 . S
C609 C613 1.385 . S
C610 H591 0.951 . S
C610 C608 1.388 1_556 S
C610 C611 1.366 . S
C611 C610 1.366 . S
C611 C612 1.414 . S
C611 C614 1.499 . S
C612 H592 0.950 . S
C612 C611 1.414 . S
C612 C613 1.374 1_556 S
C613 H593 0.950 . S
C613 C609 1.385 . S
C613 C612 1.374 1_554 S
C614 C611 1.499 . S
C614 C615 1.373 . S
C614 C616 1.389 . S
C615 H594 0.950 . S
C615 C614 1.373 . S
C615 C631 1.377 . S
C616 C614 1.389 . S
C616 C617 1.524 . S
C616 C630 1.377 . S
C617 C616 1.524 . S
C617 C618 1.397 . S
C617 C622 1.363 . S
C618 H595 0.950 . S
C618 C617 1.397 . S
C618 C619 1.334 . S
C619 H596 0.950 . S
C619 C618 1.334 . S
C619 C620 1.287 . S
C620 C619 1.287 . S
C620 C621 1.524 . S
C620 H639 0.913 . S
C621 H597 0.950 . S
C621 C620 1.524 . S
C621 C622 1.415 . S
C622 H598 0.950 . S
C622 C617 1.363 . S
C622 C621 1.415 . S
C623 H599 0.951 . S
C623 C624 1.366 . S
C623 C625 1.388 . S
C624 C623 1.366 . S
C624 C628 1.385 . S
C625 H600 0.951 . S
C625 C623 1.388 . S
C625 C626 1.366 . S
C626 C625 1.366 . S
C626 C627 1.414 . S
C626 C629 1.499 . S
C627 H601 0.950 . S
C627 C626 1.414 . S
C627 C628 1.374 . S
C628 H602 0.950 . S
C628 C624 1.385 . S
C628 C627 1.374 . S
C629 C626 1.499 . S
C629 C630 1.373 . S
C629 C631 1.389 . S
C630 H603 0.950 . S
C630 C616 1.377 . S
C630 C629 1.373 . S
C631 C615 1.377 . S
C631 C629 1.389 . S
C631 C632 1.524 . S
C632 C631 1.524 . S
C632 C633 1.397 . S
C632 C637 1.363 . S
C633 H604 0.950 . S
C633 C632 1.397 . S
C633 C634 1.334 . S
C634 H605 0.950 . S
C634 C633 1.334 . S
C634 C635 1.287 . S
C635 C634 1.287 . S
C635 C636 1.524 . S
C635 H638 0.999 . S
C636 H606 0.950 . S
C636 C635 1.524 . S
C636 C637 1.415 . S
C637 H607 0.950 . S
C637 C632 1.363 . S
C637 C636 1.415 . S
H638 C635 0.999 . S
H639 C620 0.913 . S
H640 C658 0.951 . S
H641 C660 0.951 . S
H642 C662 0.950 . S
H643 C663 0.950 . S
H644 C665 0.950 . S
H645 C668 0.950 . S
H646 C669 0.950 . S
H647 C671 0.950 . S
H648 C672 0.950 . S
H649 C673 0.951 . S
H650 C675 0.951 . S
H651 C677 0.950 . S
H652 C678 0.950 . S
H653 C680 0.950 . S
H654 C683 0.950 . S
H655 C684 0.950 . S
H656 C686 0.950 . S
H657 C687 0.950 . S
C658 H640 0.951 . S
C658 C659 1.366 . S
C658 C660 1.388 . S
C659 C658 1.366 . S
C659 C663 1.385 . S
C660 H641 0.951 . S
C660 C658 1.388 . S
C660 C661 1.366 . S
C661 C660 1.366 . S
C661 C662 1.414 . S
C661 C664 1.499 . S
C662 H642 0.950 . S
C662 C661 1.414 . S
C662 C663 1.374 . S
C663 H643 0.950 . S
C663 C659 1.385 . S
C663 C662 1.374 . S
C664 C661 1.499 . S
C664 C665 1.373 . S
C664 C666 1.389 . S
C665 H644 0.950 . S
C665 C664 1.373 . S
C665 C681 1.377 . S
C666 C664 1.389 . S
C666 C667 1.524 . S
C666 C680 1.377 . S
C667 C666 1.524 . S
C667 C668 1.397 . S
C667 C672 1.363 . S
C668 H645 0.950 . S
C668 C667 1.397 . S
C668 C669 1.334 . S
C669 H646 0.950 . S
C669 C668 1.334 . S
C669 C670 1.287 . S
C670 C669 1.287 . S
C670 C671 1.524 . S
C670 H689 0.913 . S
C671 H647 0.950 . S
C671 C670 1.524 . S
C671 C672 1.415 . S
C672 H648 0.950 . S
C672 C667 1.363 . S
C672 C671 1.415 . S
C673 H649 0.951 . S
C673 C674 1.366 . S
C673 C675 1.388 . S
C674 C673 1.366 . S
C674 C678 1.385 . S
C675 H650 0.951 . S
C675 C673 1.388 . S
C675 C676 1.366 . S
C676 C675 1.366 . S
C676 C677 1.414 . S
C676 C679 1.499 . S
C677 H651 0.950 . S
C677 C676 1.414 . S
C677 C678 1.374 . S
C678 H652 0.950 . S
C678 C674 1.385 . S
C678 C677 1.374 . S
C679 C676 1.499 . S
C679 C680 1.373 . S
C679 C681 1.389 . S
C680 H653 0.950 . S
C680 C666 1.377 . S
C680 C679 1.373 . S
C681 C665 1.377 . S
C681 C679 1.389 . S
C681 C682 1.524 . S
C682 C681 1.524 . S
C682 C683 1.397 . S
C682 C687 1.363 . S
C683 H654 0.950 . S
C683 C682 1.397 . S
C683 C684 1.334 . S
C684 H655 0.950 . S
C684 C683 1.334 . S
C684 C685 1.287 . S
C685 C684 1.287 . S
C685 C686 1.524 . S
C685 H688 0.999 . S
C686 H656 0.950 . S
C686 C685 1.524 . S
C686 C687 1.415 . S
C687 H657 0.950 . S
C687 C682 1.363 . S
C687 C686 1.415 . S
H688 C685 0.999 . S
H689 C670 0.913 . S
H690 C708 0.951 . S
H691 C710 0.951 . S
H692 C712 0.950 . S
H693 C713 0.950 . S
H694 C715 0.950 . S
H695 C718 0.950 . S
H696 C719 0.950 . S
H697 C721 0.950 . S
H698 C722 0.950 . S
H699 C723 0.951 . S
H700 C725 0.951 . S
H701 C727 0.950 . S
H702 C728 0.950 . S
H703 C730 0.950 . S
H704 C733 0.950 . S
H705 C734 0.950 . S
H706 C736 0.950 . S
H707 C737 0.950 . S
C708 H690 0.951 . S
C708 C709 1.366 . S
C708 C710 1.388 . S
C709 C708 1.366 . S
C709 C713 1.385 . S
C710 H691 0.951 . S
C710 C708 1.388 . S
C710 C711 1.366 . S
C711 C710 1.366 . S
C711 C712 1.414 . S
C711 C714 1.499 . S
C712 H692 0.950 . S
C712 C711 1.414 . S
C712 C713 1.374 . S
C713 H693 0.950 . S
C713 C709 1.385 . S
C713 C712 1.374 . S
C714 C711 1.499 . S
C714 C715 1.373 . S
C714 C716 1.389 . S
C715 H694 0.950 . S
C715 C714 1.373 . S
C715 C731 1.377 . S
C716 C714 1.389 . S
C716 C717 1.524 . S
C716 C730 1.377 . S
C717 C716 1.524 . S
C717 C718 1.397 . S
C717 C722 1.363 . S
C718 H695 0.950 . S
C718 C717 1.397 . S
C718 C719 1.334 . S
C719 H696 0.950 . S
C719 C718 1.334 . S
C719 C720 1.287 . S
C720 C719 1.287 . S
C720 C721 1.524 . S
C720 H739 0.913 . S
C721 H697 0.950 . S
C721 C720 1.524 . S
C721 C722 1.415 . S
C722 H698 0.950 . S
C722 C717 1.363 . S
C722 C721 1.415 . S
C723 H699 0.951 . S
C723 C724 1.366 . S
C723 C725 1.388 . S
C724 C723 1.366 . S
C724 C728 1.385 . S
C725 H700 0.951 . S
C725 C723 1.388 . S
C725 C726 1.366 . S
C726 C725 1.366 . S
C726 C727 1.414 . S
C726 C729 1.499 . S
C727 H701 0.950 . S
C727 C726 1.414 . S
C727 C728 1.374 . S
C728 H702 0.950 . S
C728 C724 1.385 . S
C728 C727 1.374 . S
C729 C726 1.499 . S
C729 C730 1.373 . S
C729 C731 1.389 . S
C730 H703 0.950 . S
C730 C716 1.377 . S
C730 C729 1.373 . S
C731 C715 1.377 . S
C731 C729 1.389 . S
C731 C732 1.524 . S
C732 C731 1.524 . S
C732 C733 1.397 . S
C732 C737 1.363 . S
C733 H704 0.950 . S
C733 C732 1.397 . S
C733 C734 1.334 . S
C734 H705 0.950 . S
C734 C733 1.334 . S
C734 C735 1.287 . S
C735 C734 1.287 . S
C735 C736 1.524 . S
C735 H738 0.999 . S
C736 H706 0.950 . S
C736 C735 1.524 . S
C736 C737 1.415 . S
C737 H707 0.950 . S
C737 C732 1.363 . S
C737 C736 1.415 . S
H738 C735 0.999 . S
H739 C720 0.913 . S
H740 C758 0.951 . S
H741 C760 0.951 . S
H742 C762 0.950 . S
H743 C763 0.950 . S
H744 C765 0.962 . S
H745 C768 0.950 . S
H746 C769 0.950 . S
H747 C771 0.950 . S
H748 C772 0.950 1_554 S
H749 C773 0.951 . S
H750 C775 0.951 . S
H751 C777 0.950 . S
H752 C778 0.950 . S
H753 C780 0.950 . S
H754 C783 0.950 . S
H755 C784 0.950 . S
H756 C786 0.950 . S
H757 C787 0.950 . S
C758 H740 0.951 . S
C758 C759 1.366 . S
C758 C760 1.388 . S
C759 C758 1.366 . S
C759 C763 1.385 . S
C760 H741 0.951 . S
C760 C758 1.388 . S
C760 C761 1.366 . S
C761 C760 1.366 . S
C761 C762 1.414 . S
C761 C764 1.499 . S
C762 H742 0.950 . S
C762 C761 1.414 . S
C762 C763 1.374 . S
C763 H743 0.950 . S
C763 C759 1.385 . S
C763 C762 1.374 . S
C764 C761 1.499 . S
C764 C765 1.373 1_556 S
C764 C766 1.389 1_556 S
C765 H744 0.962 . S
C765 C764 1.373 1_554 S
C765 C781 1.377 . S
C766 C764 1.389 1_554 S
C766 C767 1.524 1_554 S
C766 C780 1.377 . S
C767 C766 1.524 1_556 S
C767 C768 1.397 . S
C767 C772 1.363 . S
C768 H745 0.950 . S
C768 C767 1.397 . S
C768 C769 1.334 . S
C769 H746 0.950 . S
C769 C768 1.334 . S
C769 C770 1.287 . S
C770 C769 1.287 . S
C770 C771 1.524 . S
C770 H789 0.913 . S
C771 H747 0.950 . S
C771 C770 1.524 . S
C771 C772 1.415 . S
C772 H748 0.950 1_556 S
C772 C767 1.363 . S
C772 C771 1.415 . S
C773 H749 0.951 . S
C773 C774 1.366 . S
C773 C775 1.388 . S
C774 C773 1.366 . S
C774 C778 1.385 . S
C775 H750 0.951 . S
C775 C773 1.388 . S
C775 C776 1.366 . S
C776 C775 1.366 . S
C776 C777 1.414 . S
C776 C779 1.499 . S
C777 H751 0.950 . S
C777 C776 1.414 . S
C777 C778 1.374 . S
C778 H752 0.950 . S
C778 C774 1.385 . S
C778 C777 1.374 . S
C779 C776 1.499 . S
C779 C780 1.373 . S
C779 C781 1.389 . S
C780 H753 0.950 . S
C780 C766 1.377 . S
C780 C779 1.373 . S
C781 C765 1.377 . S
C781 C779 1.389 . S
C781 C782 1.524 . S
C782 C781 1.524 . S
C782 C783 1.397 . S
C782 C787 1.363 . S
C783 H754 0.950 . S
C783 C782 1.397 . S
C783 C784 1.334 . S
C784 H755 0.950 . S
C784 C783 1.334 . S
C784 C785 1.287 . S
C785 C784 1.287 . S
C785 C786 1.524 . S
C785 H788 0.999 . S
C786 H756 0.950 . S
C786 C785 1.524 . S
C786 C787 1.415 . S
C787 H757 0.950 . S
C787 C782 1.363 . S
C787 C786 1.415 . S
H788 C785 0.999 . S
H789 C770 0.913 . S
H790 C808 0.951 . S
H791 C810 0.951 . S
H792 C812 0.950 . S
H793 C813 0.950 . S
H794 C815 0.950 . S
H795 C818 0.950 . S
H796 C819 0.950 . S
H797 C821 0.950 . S
H798 C822 0.950 . S
H799 C823 0.951 . S
H800 C825 0.951 . S
H801 C827 0.950 . S
H802 C828 0.950 . S
H803 C830 0.950 . S
H804 C833 0.950 . S
H805 C834 0.950 . S
H806 C836 0.950 . S
H807 C837 0.950 . S
C808 H790 0.951 . S
C808 C809 1.366 . S
C808 C810 1.388 . S
C809 C808 1.366 . S
C809 C813 1.385 . S
C810 H791 0.951 . S
C810 C808 1.388 . S
C810 C811 1.366 . S
C811 C810 1.366 . S
C811 C812 1.414 . S
C811 C814 1.499 . S
C812 H792 0.950 . S
C812 C811 1.414 . S
C812 C813 1.374 . S
C813 H793 0.950 . S
C813 C809 1.385 . S
C813 C812 1.374 . S
C814 C811 1.499 . S
C814 C815 1.373 . S
C814 C816 1.389 . S
C815 H794 0.950 . S
C815 C814 1.373 . S
C815 C831 1.377 . S
C816 C814 1.389 . S
C816 C817 1.524 . S
C816 C830 1.377 . S
C817 C816 1.524 . S
C817 C818 1.397 . S
C817 C822 1.363 . S
C818 H795 0.950 . S
C818 C817 1.397 . S
C818 C819 1.334 . S
C819 H796 0.950 . S
C819 C818 1.334 . S
C819 C820 1.287 . S
C820 C819 1.287 . S
C820 C821 1.524 . S
C820 H839 0.913 . S
C821 H797 0.950 . S
C821 C820 1.524 . S
C821 C822 1.415 . S
C822 H798 0.950 . S
C822 C817 1.363 . S
C822 C821 1.415 . S
C823 H799 0.951 . S
C823 C824 1.366 . S
C823 C825 1.388 . S
C824 C823 1.366 . S
C824 C828 1.385 . S
C825 H800 0.951 . S
C825 C823 1.388 . S
C825 C826 1.366 . S
C826 C825 1.366 . S
C826 C827 1.414 . S
C826 C829 1.499 . S
C827 H801 0.950 . S
C827 C826 1.414 . S
C827 C828 1.374 . S
C828 H802 0.950 . S
C828 C824 1.385 . S
C828 C827 1.374 . S
C829 C826 1.499 . S
C829 C830 1.373 . S
C829 C831 1.389 . S
C830 H803 0.950 . S
C830 C816 1.377 . S
C830 C829 1.373 . S
C831 C815 1.377 . S
C831 C829 1.389 . S
C831 C832 1.524 . S
C832 C831 1.524 . S
C832 C833 1.397 . S
C832 C837 1.363 . S
C833 H804 0.950 . S
C833 C832 1.397 . S
C833 C834 1.334 . S
C834 H805 0.950 . S
C834 C833 1.334 . S
C834 C835 1.287 . S
C835 C834 1.287 . S
C835 C836 1.524 . S
C835 H838 0.999 . S
C836 H806 0.950 . S
C836 C835 1.524 . S
C836 C837 1.415 . S
C837 H807 0.950 . S
C837 C832 1.363 . S
C837 C836 1.415 . S
H838 C835 0.999 . S
H839 C820 0.913 . S
H840 C858 0.951 . S
H841 C860 0.951 . S
H842 C862 0.950 . S
H843 C863 0.950 . S
H844 C865 0.950 . S
H845 C868 0.950 . S
H846 C869 0.950 . S
H847 C871 0.950 . S
H848 C872 0.950 . S
H849 C873 0.951 . S
H850 C875 0.951 . S
H851 C877 0.950 . S
H852 C878 0.950 . S
H853 C880 0.950 . S
H854 C883 0.950 . S
H855 C884 0.950 . S
H856 C886 0.950 . S
H857 C887 0.950 . S
C858 H840 0.951 . S
C858 C859 1.366 . S
C858 C860 1.388 . S
C859 C858 1.366 . S
C859 C863 1.385 . S
C860 H841 0.951 . S
C860 C858 1.388 . S
C860 C861 1.366 . S
C861 C860 1.366 . S
C861 C862 1.414 . S
C861 C864 1.499 . S
C862 H842 0.950 . S
C862 C861 1.414 . S
C862 C863 1.374 . S
C863 H843 0.950 . S
C863 C859 1.385 . S
C863 C862 1.374 . S
C864 C861 1.499 . S
C864 C865 1.373 . S
C864 C866 1.389 . S
C865 H844 0.950 . S
C865 C864 1.373 . S
C865 C881 1.377 . S
C866 C864 1.389 . S
C866 C867 1.524 . S
C866 C880 1.377 . S
C867 C866 1.524 . S
C867 C868 1.397 . S
C867 C872 1.363 . S
C868 H845 0.950 . S
C868 C867 1.397 . S
C868 C869 1.334 . S
C869 H846 0.950 . S
C869 C868 1.334 . S
C869 C870 1.287 . S
C870 C869 1.287 . S
C870 C871 1.524 . S
C870 H889 0.913 . S
C871 H847 0.950 . S
C871 C870 1.524 . S
C871 C872 1.415 . S
C872 H848 0.950 . S
C872 C867 1.363 . S
C872 C871 1.415 . S
C873 H849 0.951 . S
C873 C874 1.366 . S
C873 C875 1.388 . S
C874 C873 1.366 . S
C874 C878 1.385 . S
C875 H850 0.951 . S
C875 C873 1.388 . S
C875 C876 1.366 . S
C876 C875 1.366 . S
C876 C877 1.414 . S
C876 C879 1.499 . S
C877 H851 0.950 . S
C877 C876 1.414 . S
C877 C878 1.374 . S
C878 H852 0.950 . S
C878 C874 1.385 . S
C878 C877 1.374 . S
C879 C876 1.499 . S
C879 C880 1.373 . S
C879 C881 1.389 . S
C880 H853 0.950 . S
C880 C866 1.377 . S
C880 C879 1.373 . S
C881 C865 1.377 . S
C881 C879 1.389 . S
C881 C882 1.524 . S
C882 C881 1.524 . S
C882 C883 1.397 . S
C882 C887 1.363 . S
C883 H854 0.950 . S
C883 C882 1.397 . S
C883 C884 1.334 . S
C884 H855 0.950 . S
C884 C883 1.334 . S
C884 C885 1.287 . S
C885 C884 1.287 . S
C885 C886 1.524 . S
C885 H888 0.999 . S
C886 H856 0.950 . S
C886 C885 1.524 . S
C886 C887 1.415 . S
C887 H857 0.950 . S
C887 C882 1.363 . S
C887 C886 1.415 . S
H888 C885 0.999 . S
H889 C870 0.913 . S
H890 C908 0.951 . S
H891 C910 0.951 . S
H892 C912 0.950 . S
H893 C913 0.950 . S
H894 C915 0.950 . S
H895 C918 0.950 . S
H896 C919 0.950 . S
H897 C921 0.950 . S
H898 C922 0.950 . S
H899 C923 0.951 . S
H900 C925 0.951 . S
H901 C927 0.950 . S
H902 C928 0.950 . S
H903 C930 0.950 . S
H904 C933 0.950 . S
H905 C934 0.950 . S
H906 C936 0.950 . S
H907 C937 0.950 . S
C908 H890 0.951 . S
C908 C909 1.366 . S
C908 C910 1.388 . S
C909 C908 1.366 . S
C909 C913 1.385 . S
C910 H891 0.951 . S
C910 C908 1.388 . S
C910 C911 1.366 . S
C911 C910 1.366 . S
C911 C912 1.414 . S
C911 C914 1.499 . S
C912 H892 0.950 . S
C912 C911 1.414 . S
C912 C913 1.374 . S
C913 H893 0.950 . S
C913 C909 1.385 . S
C913 C912 1.374 . S
C914 C911 1.499 . S
C914 C915 1.373 . S
C914 C916 1.389 . S
C915 H894 0.950 . S
C915 C914 1.373 . S
C915 C931 1.377 . S
C916 C914 1.389 . S
C916 C917 1.524 . S
C916 C930 1.377 . S
C917 C916 1.524 . S
C917 C918 1.397 . S
C917 C922 1.363 . S
C918 H895 0.950 . S
C918 C917 1.397 . S
C918 C919 1.334 . S
C919 H896 0.950 . S
C919 C918 1.334 . S
C919 C920 1.287 . S
C920 C919 1.287 . S
C920 C921 1.524 . S
C920 H939 0.913 . S
C921 H897 0.950 . S
C921 C920 1.524 . S
C921 C922 1.415 . S
C922 H898 0.950 . S
C922 C917 1.363 . S
C922 C921 1.415 . S
C923 H899 0.951 . S
C923 C924 1.366 . S
C923 C925 1.388 . S
C924 C923 1.366 . S
C924 C928 1.385 . S
C925 H900 0.951 . S
C925 C923 1.388 . S
C925 C926 1.366 . S
C926 C925 1.366 . S
C926 C927 1.414 . S
C926 C929 1.499 . S
C927 H901 0.950 . S
C927 C926 1.414 . S
C927 C928 1.374 . S
C928 H902 0.950 . S
C928 C924 1.385 . S
C928 C927 1.374 . S
C929 C926 1.499 . S
C929 C930 1.373 . S
C929 C931 1.389 . S
C930 H903 0.950 . S
C930 C916 1.377 . S
C930 C929 1.373 . S
C931 C915 1.377 . S
C931 C929 1.389 . S
C931 C932 1.524 . S
C932 C931 1.524 . S
C932 C933 1.397 . S
C932 C937 1.363 . S
C933 H904 0.950 . S
C933 C932 1.397 . S
C933 C934 1.334 . S
C934 H905 0.950 . S
C934 C933 1.334 . S
C934 C935 1.287 . S
C935 C934 1.287 . S
C935 C936 1.524 . S
C935 H938 0.999 . S
C936 H906 0.950 . S
C936 C935 1.524 . S
C936 C937 1.415 . S
C937 H907 0.950 . S
C937 C932 1.363 . S
C937 C936 1.415 . S
H938 C935 0.999 . S
H939 C920 0.913 . S
H940 C958 0.951 . S
H941 C960 0.951 . S
H942 C962 0.950 . S
H943 C963 0.950 . S
H944 C965 0.950 . S
H945 C968 0.950 . S
H946 C969 0.950 . S
H947 C971 0.950 . S
H948 C972 0.950 . S
H949 C973 0.951 . S
H950 C975 0.951 . S
H951 C977 0.950 1_554 S
H952 C978 0.950 . S
H953 C980 0.950 . S
H954 C983 0.950 . S
H955 C984 0.950 . S
H956 C986 0.950 . S
H957 C987 0.950 . S
C958 H940 0.951 . S
C958 C959 1.366 . S
C958 C960 1.388 . S
C959 C958 1.366 . S
C959 C963 1.385 . S
C960 H941 0.951 . S
C960 C958 1.388 . S
C960 C961 1.366 . S
C961 C960 1.366 . S
C961 C962 1.414 . S
C961 C964 1.499 . S
C962 H942 0.950 . S
C962 C961 1.414 . S
C962 C963 1.374 . S
C963 H943 0.950 . S
C963 C959 1.385 . S
C963 C962 1.374 . S
C964 C961 1.499 . S
C964 C965 1.373 . S
C964 C966 1.389 . S
C965 H944 0.950 . S
C965 C964 1.373 . S
C965 C981 1.377 . S
C966 C964 1.389 . S
C966 C967 1.524 . S
C966 C980 1.377 . S
C967 C966 1.524 . S
C967 C968 1.397 . S
C967 C972 1.363 . S
C968 H945 0.950 . S
C968 C967 1.397 . S
C968 C969 1.334 . S
C969 H946 0.950 . S
C969 C968 1.334 . S
C969 C970 1.287 . S
C970 C969 1.287 . S
C970 C971 1.524 . S
C970 H989 0.913 . S
C971 H947 0.950 . S
C971 C970 1.524 . S
C971 C972 1.415 . S
C972 H948 0.950 . S
C972 C967 1.363 . S
C972 C971 1.415 . S
C973 H949 0.951 . S
C973 C974 1.366 . S
C973 C975 1.388 . S
C974 C973 1.366 . S
C974 C978 1.385 . S
C975 H950 0.951 . S
C975 C973 1.388 . S
C975 C976 1.366 1_556 S
C976 C975 1.366 1_554 S
C976 C977 1.414 1_554 S
C976 C979 1.499 . S
C977 H951 0.950 1_556 S
C977 C976 1.414 1_556 S
C977 C978 1.374 . S
C978 H952 0.950 . S
C978 C974 1.385 . S
C978 C977 1.374 . S
C979 C976 1.499 . S
C979 C980 1.373 . S
C979 C981 1.389 . S
C980 H953 0.950 . S
C980 C966 1.377 . S
C980 C979 1.373 . S
C981 C965 1.377 . S
C981 C979 1.389 . S
C981 C982 1.524 1_554 S
C982 C981 1.524 1_556 S
C982 C983 1.397 . S
C982 C987 1.363 . S
C983 H954 0.950 . S
C983 C982 1.397 . S
C983 C984 1.334 . S
C984 H955 0.950 . S
C984 C983 1.334 . S
C984 C985 1.287 . S
C985 C984 1.287 . S
C985 C986 1.524 . S
C985 H988 0.999 . S
C986 H956 0.950 . S
C986 C985 1.524 . S
C986 C987 1.415 . S
C987 H957 0.950 . S
C987 C982 1.363 . S
C987 C986 1.415 . S
H988 C985 0.999 . S
H989 C970 0.913 . S
H990 C1008 0.951 . S
H991 C1010 0.951 . S
H992 C1012 0.950 . S
H993 C1013 0.950 . S
H994 C1015 0.950 . S
H995 C1018 0.950 . S
H996 C1019 0.950 . S
H997 C1021 0.950 . S
H998 C1022 0.950 . S
H999 C1023 0.951 . S
H1000 C1025 0.951 . S
H1001 C1027 0.950 . S
H1002 C1028 0.950 . S
H1003 C1030 0.950 . S
H1004 C1033 0.950 . S
H1005 C1034 0.950 . S
H1006 C1036 0.950 1_556 S
H1007 C1037 0.950 . S
C1008 H990 0.951 . S
C1008 C1009 1.366 . S
C1008 C1010 1.388 . S
C1009 C1008 1.366 . S
C1009 C1013 1.385 . S
C1010 H991 0.951 . S
C1010 C1008 1.388 . S
C1010 C1011 1.366 . S
C1011 C1010 1.366 . S
C1011 C1012 1.414 . S
C1011 C1014 1.499 . S
C1012 H992 0.950 . S
C1012 C1011 1.414 . S
C1012 C1013 1.374 . S
C1013 H993 0.950 . S
C1013 C1009 1.385 . S
C1013 C1012 1.374 . S
C1014 C1011 1.499 . S
C1014 C1015 1.373 . S
C1014 C1016 1.389 . S
C1015 H994 0.950 . S
C1015 C1014 1.373 . S
C1015 C1031 1.377 . S
C1016 C1014 1.389 . S
C1016 C1017 1.524 . S
C1016 C1030 1.377 . S
C1017 C1016 1.524 . S
C1017 C1018 1.397 . S
C1017 C1022 1.363 . S
C1018 H995 0.950 . S
C1018 C1017 1.397 . S
C1018 C1019 1.334 . S
C1019 H996 0.950 . S
C1019 C1018 1.334 . S
C1019 C1020 1.287 . S
C1020 C1019 1.287 . S
C1020 C1021 1.524 . S
C1020 H1039 0.913 . S
C1021 H997 0.950 . S
C1021 C1020 1.524 . S
C1021 C1022 1.415 . S
C1022 H998 0.950 . S
C1022 C1017 1.363 . S
C1022 C1021 1.415 . S
C1023 H999 0.951 . S
C1023 C1024 1.366 . S
C1023 C1025 1.388 . S
C1024 C1023 1.366 . S
C1024 C1028 1.385 . S
C1025 H1000 0.951 . S
C1025 C1023 1.388 . S
C1025 C1026 1.366 . S
C1026 C1025 1.366 . S
C1026 C1027 1.414 . S
C1026 C1029 1.499 . S
C1027 H1001 0.950 . S
C1027 C1026 1.414 . S
C1027 C1028 1.374 . S
C1028 H1002 0.950 . S
C1028 C1024 1.385 . S
C1028 C1027 1.374 . S
C1029 C1026 1.499 . S
C1029 C1030 1.373 . S
C1029 C1031 1.389 . S
C1030 H1003 0.950 . S
C1030 C1016 1.377 . S
C1030 C1029 1.373 . S
C1031 C1015 1.377 . S
C1031 C1029 1.389 . S
C1031 C1032 1.524 . S
C1032 C1031 1.524 . S
C1032 C1033 1.397 . S
C1032 C1037 1.363 . S
C1033 H1004 0.950 . S
C1033 C1032 1.397 . S
C1033 C1034 1.334 . S
C1034 H1005 0.950 . S
C1034 C1033 1.334 . S
C1034 C1035 1.287 . S
C1035 C1034 1.287 . S
C1035 C1036 1.524 . S
C1035 H1038 0.999 1_554 S
C1036 H1006 0.950 1_554 S
C1036 C1035 1.524 . S
C1036 C1037 1.415 . S
C1037 H1007 0.950 . S
C1037 C1032 1.363 . S
C1037 C1036 1.415 . S
H1038 C1035 0.999 1_556 S
H1039 C1020 0.913 . S
H1040 C1058 0.951 . S
H1041 C1060 0.951 . S
H1042 C1062 0.950 . S
H1043 C1063 0.950 . S
H1044 C1065 0.950 . S
H1045 C1068 0.950 . S
H1046 C1069 0.950 . S
H1047 C1071 0.950 . S
H1048 C1072 0.950 . S
H1049 C1073 0.951 . S
H1050 C1075 0.951 . S
H1051 C1077 0.950 . S
H1052 C1078 0.950 . S
H1053 C1080 0.950 . S
H1054 C1083 0.950 . S
H1055 C1084 0.950 . S
H1056 C1086 0.950 . S
H1057 C1087 0.950 . S
C1058 H1040 0.951 . S
C1058 C1059 1.366 . S
C1058 C1060 1.388 . S
C1059 C1058 1.366 . S
C1059 C1063 1.385 . S
C1060 H1041 0.951 . S
C1060 C1058 1.388 . S
C1060 C1061 1.366 . S
C1061 C1060 1.366 . S
C1061 C1062 1.414 . S
C1061 C1064 1.499 . S
C1062 H1042 0.950 . S
C1062 C1061 1.414 . S
C1062 C1063 1.374 . S
C1063 H1043 0.950 . S
C1063 C1059 1.385 . S
C1063 C1062 1.374 . S
C1064 C1061 1.499 . S
C1064 C1065 1.373 . S
C1064 C1066 1.389 . S
C1065 H1044 0.950 . S
C1065 C1064 1.373 . S
C1065 C1081 1.377 . S
C1066 C1064 1.389 . S
C1066 C1067 1.524 . S
C1066 C1080 1.377 . S
C1067 C1066 1.524 . S
C1067 C1068 1.397 . S
C1067 C1072 1.363 . S
C1068 H1045 0.950 . S
C1068 C1067 1.397 . S
C1068 C1069 1.334 . S
C1069 H1046 0.950 . S
C1069 C1068 1.334 . S
C1069 C1070 1.287 . S
C1070 C1069 1.287 . S
C1070 C1071 1.524 . S
C1070 H1089 0.913 . S
C1071 H1047 0.950 . S
C1071 C1070 1.524 . S
C1071 C1072 1.415 . S
C1072 H1048 0.950 . S
C1072 C1067 1.363 . S
C1072 C1071 1.415 . S
C1073 H1049 0.951 . S
C1073 C1074 1.366 . S
C1073 C1075 1.388 . S
C1074 C1073 1.366 . S
C1074 C1078 1.385 . S
C1075 H1050 0.951 . S
C1075 C1073 1.388 . S
C1075 C1076 1.366 . S
C1076 C1075 1.366 . S
C1076 C1077 1.414 . S
C1076 C1079 1.499 . S
C1077 H1051 0.950 . S
C1077 C1076 1.414 . S
C1077 C1078 1.374 . S
C1078 H1052 0.950 . S
C1078 C1074 1.385 . S
C1078 C1077 1.374 . S
C1079 C1076 1.499 . S
C1079 C1080 1.373 . S
C1079 C1081 1.389 . S
C1080 H1053 0.950 . S
C1080 C1066 1.377 . S
C1080 C1079 1.373 . S
C1081 C1065 1.377 . S
C1081 C1079 1.389 . S
C1081 C1082 1.524 . S
C1082 C1081 1.524 . S
C1082 C1083 1.397 . S
C1082 C1087 1.363 . S
C1083 H1054 0.950 . S
C1083 C1082 1.397 . S
C1083 C1084 1.334 . S
C1084 H1055 0.950 . S
C1084 C1083 1.334 . S
C1084 C1085 1.287 . S
C1085 C1084 1.287 . S
C1085 C1086 1.524 . S
C1085 H1088 0.999 . S
C1086 H1056 0.950 . S
C1086 C1085 1.524 . S
C1086 C1087 1.415 . S
C1087 H1057 0.950 . S
C1087 C1082 1.363 . S
C1087 C1086 1.415 . S
H1088 C1085 0.999 . S
H1089 C1070 0.913 . S
H1090 C1108 0.951 . S
H1091 C1110 0.951 . S
H1092 C1112 0.950 . S
H1093 C1113 0.950 . S
H1094 C1115 0.950 . S
H1095 C1118 0.950 . S
H1096 C1119 0.950 . S
H1097 C1121 0.950 . S
H1098 C1122 0.950 . S
H1099 C1123 0.951 . S
H1100 C1125 0.951 . S
H1101 C1127 0.950 . S
H1102 C1128 0.950 . S
H1103 C1130 0.950 . S
H1104 C1133 0.950 . S
H1105 C1134 0.950 . S
H1106 C1136 0.950 . S
H1107 C1137 0.950 . S
C1108 H1090 0.951 . S
C1108 C1109 1.366 . S
C1108 C1110 1.388 . S
C1109 C1108 1.366 . S
C1109 C1113 1.385 . S
C1110 H1091 0.951 . S
C1110 C1108 1.388 . S
C1110 C1111 1.366 . S
C1111 C1110 1.366 . S
C1111 C1112 1.414 . S
C1111 C1114 1.499 . S
C1112 H1092 0.950 . S
C1112 C1111 1.414 . S
C1112 C1113 1.374 . S
C1113 H1093 0.950 . S
C1113 C1109 1.385 . S
C1113 C1112 1.374 . S
C1114 C1111 1.499 . S
C1114 C1115 1.373 . S
C1114 C1116 1.389 . S
C1115 H1094 0.950 . S
C1115 C1114 1.373 . S
C1115 C1131 1.377 . S
C1116 C1114 1.389 . S
C1116 C1117 1.524 . S
C1116 C1130 1.377 . S
C1117 C1116 1.524 . S
C1117 C1118 1.397 . S
C1117 C1122 1.363 . S
C1118 H1095 0.950 . S
C1118 C1117 1.397 . S
C1118 C1119 1.334 . S
C1119 H1096 0.950 . S
C1119 C1118 1.334 . S
C1119 C1120 1.287 . S
C1120 C1119 1.287 . S
C1120 C1121 1.524 . S
C1120 H1139 0.913 . S
C1121 H1097 0.950 . S
C1121 C1120 1.524 . S
C1121 C1122 1.415 . S
C1122 H1098 0.950 . S
C1122 C1117 1.363 . S
C1122 C1121 1.415 . S
C1123 H1099 0.951 . S
C1123 C1124 1.366 . S
C1123 C1125 1.388 . S
C1124 C1123 1.366 . S
C1124 C1128 1.385 . S
C1125 H1100 0.951 . S
C1125 C1123 1.388 . S
C1125 C1126 1.366 . S
C1126 C1125 1.366 . S
C1126 C1127 1.414 . S
C1126 C1129 1.499 . S
C1127 H1101 0.950 . S
C1127 C1126 1.414 . S
C1127 C1128 1.374 . S
C1128 H1102 0.950 . S
C1128 C1124 1.385 . S
C1128 C1127 1.374 . S
C1129 C1126 1.499 . S
C1129 C1130 1.373 . S
C1129 C1131 1.389 . S
C1130 H1103 0.950 . S
C1130 C1116 1.377 . S
C1130 C1129 1.373 . S
C1131 C1115 1.377 . S
C1131 C1129 1.389 . S
C1131 C1132 1.524 . S
C1132 C1131 1.524 . S
C1132 C1133 1.397 . S
C1132 C1137 1.363 . S
C1133 H1104 0.950 . S
C1133 C1132 1.397 . S
C1133 C1134 1.334 . S
C1134 H1105 0.950 . S
C1134 C1133 1.334 . S
C1134 C1135 1.287 . S
C1135 C1134 1.287 . S
C1135 C1136 1.524 . S
C1135 H1138 0.999 . S
C1136 H1106 0.950 . S
C1136 C1135 1.524 . S
C1136 C1137 1.415 . S
C1137 H1107 0.950 . S
C1137 C1132 1.363 . S
C1137 C1136 1.415 . S
H1138 C1135 0.999 . S
H1139 C1120 0.913 . S
C259 C202 1.655 . S
C274 C2 1.655 . S
C309 C10 1.400 . S
C324 C50 1.401 . S
C359 C42 1.655 . S
C374 C82 1.655 . S
C409 C90 1.400 . S
C424 C130 1.400 1_556 S
C459 C162 1.655 . S
C474 C122 1.655 . S
C509 C210 1.401 . S
C524 C170 1.400 . S
C559 C7 1.075 . S
C574 C16 1.075 . S
C609 C56 1.076 . S
C624 C47 1.076 . S
C659 C87 1.075 . S
C674 C96 1.075 . S
C709 C136 1.075 . S
C724 C127 1.075 . S
C759 C176 1.075 . S
C774 C167 1.075 . S
C809 C216 1.076 . S
C824 C207 1.076 1_554 S
C859 C11 1.762 . S
C874 C179 1.782 . S
C909 C59 1.782 . S
C924 C211 1.762 . S
C959 C19 1.782 . S
C974 C91 1.762 . S
C1009 C51 1.762 . S
C1024 C139 1.782 . S
C1059 C171 1.762 . S
C1074 C99 1.782 . S
C1109 C131 1.762 . S
C1124 C219 1.781 . S
