# Generated by pormake.
# Topology wlp, (5)-cn, num edge types: 1
# Building blocks:
#     Node 0, Type 0, BuildingBlock: BEQFEK_clean_sbu_0, # of connection points: 5
#     Node 1, Type 0, BuildingBlock: BEQFEK_clean_sbu_0, # of connection points: 5
#     Node 2, Type 0, BuildingBlock: BEQFEK_clean_sbu_0, # of connection points: 5
#     Node 3, Type 0, BuildingBlock: BEQFEK_clean_sbu_0, # of connection points: 5
#     Node 4, Type 0, BuildingBlock: BEQFEK_clean_sbu_0, # of connection points: 5
#     Node 5, Type 0, BuildingBlock: BEQFEK_clean_sbu_0, # of connection points: 5
#     Node 6, Type 0, BuildingBlock: BEQFEK_clean_sbu_0, # of connection points: 5
#     Node 7, Type 0, BuildingBlock: BEQFEK_clean_sbu_0, # of connection points: 5
#     Node 8, Type 0, BuildingBlock: BEQFEK_clean_sbu_0, # of connection points: 5
#     Node 9, Type 0, BuildingBlock: BEQFEK_clean_sbu_0, # of connection points: 5
#     Node 10, Type 0, BuildingBlock: BEQFEK_clean_sbu_0, # of connection points: 5
#     Node 11, Type 0, BuildingBlock: BEQFEK_clean_sbu_0, # of connection points: 5
#     Node 12, Type 0, BuildingBlock: BEQFEK_clean_sbu_0, # of connection points: 5
#     Node 13, Type 0, BuildingBlock: BEQFEK_clean_sbu_0, # of connection points: 5
#     Node 14, Type 0, BuildingBlock: BEQFEK_clean_sbu_0, # of connection points: 5
#     Node 15, Type 0, BuildingBlock: BEQFEK_clean_sbu_0, # of connection points: 5
#     Node 16, Type 0, BuildingBlock: BEQFEK_clean_sbu_0, # of connection points: 5
#     Node 17, Type 0, BuildingBlock: BEQFEK_clean_sbu_0, # of connection points: 5
#     Node 18, Type 0, BuildingBlock: BEQFEK_clean_sbu_0, # of connection points: 5
#     Node 19, Type 0, BuildingBlock: BEQFEK_clean_sbu_0, # of connection points: 5
#     Node 20, Type 0, BuildingBlock: BEQFEK_clean_sbu_0, # of connection points: 5
#     Node 21, Type 0, BuildingBlock: BEQFEK_clean_sbu_0, # of connection points: 5
#     Node 22, Type 0, BuildingBlock: BEQFEK_clean_sbu_0, # of connection points: 5
#     Node 23, Type 0, BuildingBlock: BEQFEK_clean_sbu_0, # of connection points: 5
#     Node 24, Type 0, BuildingBlock: BEQFEK_clean_sbu_0, # of connection points: 5
#     Node 25, Type 0, BuildingBlock: BEQFEK_clean_sbu_0, # of connection points: 5
#     Node 26, Type 0, BuildingBlock: BEQFEK_clean_sbu_0, # of connection points: 5
#     Node 27, Type 0, BuildingBlock: BEQFEK_clean_sbu_0, # of connection points: 5
#     Node 28, Type 0, BuildingBlock: BEQFEK_clean_sbu_0, # of connection points: 5
#     Node 29, Type 0, BuildingBlock: BEQFEK_clean_sbu_0, # of connection points: 5
#     Node 30, Type 0, BuildingBlock: BEQFEK_clean_sbu_0, # of connection points: 5
#     Node 31, Type 0, BuildingBlock: BEQFEK_clean_sbu_0, # of connection points: 5
#     Node 32, Type 0, BuildingBlock: BEQFEK_clean_sbu_0, # of connection points: 5
#     Node 33, Type 0, BuildingBlock: BEQFEK_clean_sbu_0, # of connection points: 5
#     Node 34, Type 0, BuildingBlock: BEQFEK_clean_sbu_0, # of connection points: 5
#     Node 35, Type 0, BuildingBlock: BEQFEK_clean_sbu_0, # of connection points: 5
#     Edge 36, Type (0, 0), BuildingBlock: XIVTED_clean_linker_0, # of connection points: 2
#     Edge 37, Type (0, 0), BuildingBlock: XIVTED_clean_linker_0, # of connection points: 2
#     Edge 38, Type (0, 0), BuildingBlock: XIVTED_clean_linker_0, # of connection points: 2
#     Edge 39, Type (0, 0), BuildingBlock: XIVTED_clean_linker_0, # of connection points: 2
#     Edge 40, Type (0, 0), BuildingBlock: XIVTED_clean_linker_0, # of connection points: 2
#     Edge 41, Type (0, 0), BuildingBlock: XIVTED_clean_linker_0, # of connection points: 2
#     Edge 42, Type (0, 0), BuildingBlock: XIVTED_clean_linker_0, # of connection points: 2
#     Edge 43, Type (0, 0), BuildingBlock: XIVTED_clean_linker_0, # of connection points: 2
#     Edge 44, Type (0, 0), BuildingBlock: XIVTED_clean_linker_0, # of connection points: 2
#     Edge 45, Type (0, 0), BuildingBlock: XIVTED_clean_linker_0, # of connection points: 2
#     Edge 46, Type (0, 0), BuildingBlock: XIVTED_clean_linker_0, # of connection points: 2
#     Edge 47, Type (0, 0), BuildingBlock: XIVTED_clean_linker_0, # of connection points: 2
#     Edge 48, Type (0, 0), BuildingBlock: XIVTED_clean_linker_0, # of connection points: 2
#     Edge 49, Type (0, 0), BuildingBlock: XIVTED_clean_linker_0, # of connection points: 2
#     Edge 50, Type (0, 0), BuildingBlock: XIVTED_clean_linker_0, # of connection points: 2
#     Edge 51, Type (0, 0), BuildingBlock: XIVTED_clean_linker_0, # of connection points: 2
#     Edge 52, Type (0, 0), BuildingBlock: XIVTED_clean_linker_0, # of connection points: 2
#     Edge 53, Type (0, 0), BuildingBlock: XIVTED_clean_linker_0, # of connection points: 2
#     Edge 54, Type (0, 0), BuildingBlock: XIVTED_clean_linker_0, # of connection points: 2
#     Edge 55, Type (0, 0), BuildingBlock: XIVTED_clean_linker_0, # of connection points: 2
#     Edge 56, Type (0, 0), BuildingBlock: XIVTED_clean_linker_0, # of connection points: 2
#     Edge 57, Type (0, 0), BuildingBlock: XIVTED_clean_linker_0, # of connection points: 2
#     Edge 58, Type (0, 0), BuildingBlock: XIVTED_clean_linker_0, # of connection points: 2
#     Edge 59, Type (0, 0), BuildingBlock: XIVTED_clean_linker_0, # of connection points: 2
#     Edge 60, Type (0, 0), BuildingBlock: XIVTED_clean_linker_0, # of connection points: 2
#     Edge 61, Type (0, 0), BuildingBlock: XIVTED_clean_linker_0, # of connection points: 2
#     Edge 62, Type (0, 0), BuildingBlock: XIVTED_clean_linker_0, # of connection points: 2
#     Edge 63, Type (0, 0), BuildingBlock: XIVTED_clean_linker_0, # of connection points: 2
#     Edge 64, Type (0, 0), BuildingBlock: XIVTED_clean_linker_0, # of connection points: 2
#     Edge 65, Type (0, 0), BuildingBlock: XIVTED_clean_linker_0, # of connection points: 2
#     Edge 66, Type (0, 0), BuildingBlock: XIVTED_clean_linker_0, # of connection points: 2
#     Edge 67, Type (0, 0), BuildingBlock: XIVTED_clean_linker_0, # of connection points: 2
#     Edge 68, Type (0, 0), BuildingBlock: XIVTED_clean_linker_0, # of connection points: 2
#     Edge 69, Type (0, 0), BuildingBlock: XIVTED_clean_linker_0, # of connection points: 2
#     Edge 70, Type (0, 0), BuildingBlock: XIVTED_clean_linker_0, # of connection points: 2
#     Edge 71, Type (0, 0), BuildingBlock: XIVTED_clean_linker_0, # of connection points: 2
#     Edge 72, Type (0, 0), BuildingBlock: XIVTED_clean_linker_0, # of connection points: 2
#     Edge 73, Type (0, 0), BuildingBlock: XIVTED_clean_linker_0, # of connection points: 2
#     Edge 74, Type (0, 0), BuildingBlock: XIVTED_clean_linker_0, # of connection points: 2
#     Edge 75, Type (0, 0), BuildingBlock: XIVTED_clean_linker_0, # of connection points: 2
#     Edge 76, Type (0, 0), BuildingBlock: XIVTED_clean_linker_0, # of connection points: 2
#     Edge 77, Type (0, 0), BuildingBlock: XIVTED_clean_linker_0, # of connection points: 2
#     Edge 78, Type (0, 0), BuildingBlock: XIVTED_clean_linker_0, # of connection points: 2
#     Edge 79, Type (0, 0), BuildingBlock: XIVTED_clean_linker_0, # of connection points: 2
#     Edge 80, Type (0, 0), BuildingBlock: XIVTED_clean_linker_0, # of connection points: 2
#     Edge 81, Type (0, 0), BuildingBlock: XIVTED_clean_linker_0, # of connection points: 2
#     Edge 82, Type (0, 0), BuildingBlock: XIVTED_clean_linker_0, # of connection points: 2
#     Edge 83, Type (0, 0), BuildingBlock: XIVTED_clean_linker_0, # of connection points: 2
#     Edge 84, Type (0, 0), BuildingBlock: XIVTED_clean_linker_0, # of connection points: 2
#     Edge 85, Type (0, 0), BuildingBlock: XIVTED_clean_linker_0, # of connection points: 2
#     Edge 86, Type (0, 0), BuildingBlock: XIVTED_clean_linker_0, # of connection points: 2
#     Edge 87, Type (0, 0), BuildingBlock: XIVTED_clean_linker_0, # of connection points: 2
#     Edge 88, Type (0, 0), BuildingBlock: XIVTED_clean_linker_0, # of connection points: 2
#     Edge 89, Type (0, 0), BuildingBlock: XIVTED_clean_linker_0, # of connection points: 2
#     Edge 90, Type (0, 0), BuildingBlock: XIVTED_clean_linker_0, # of connection points: 2
#     Edge 91, Type (0, 0), BuildingBlock: XIVTED_clean_linker_0, # of connection points: 2
#     Edge 92, Type (0, 0), BuildingBlock: XIVTED_clean_linker_0, # of connection points: 2
#     Edge 93, Type (0, 0), BuildingBlock: XIVTED_clean_linker_0, # of connection points: 2
#     Edge 94, Type (0, 0), BuildingBlock: XIVTED_clean_linker_0, # of connection points: 2
#     Edge 95, Type (0, 0), BuildingBlock: XIVTED_clean_linker_0, # of connection points: 2
#     Edge 96, Type (0, 0), BuildingBlock: XIVTED_clean_linker_0, # of connection points: 2
#     Edge 97, Type (0, 0), BuildingBlock: XIVTED_clean_linker_0, # of connection points: 2
#     Edge 98, Type (0, 0), BuildingBlock: XIVTED_clean_linker_0, # of connection points: 2
#     Edge 99, Type (0, 0), BuildingBlock: XIVTED_clean_linker_0, # of connection points: 2
#     Edge 100, Type (0, 0), BuildingBlock: XIVTED_clean_linker_0, # of connection points: 2
#     Edge 101, Type (0, 0), BuildingBlock: XIVTED_clean_linker_0, # of connection points: 2
#     Edge 102, Type (0, 0), BuildingBlock: XIVTED_clean_linker_0, # of connection points: 2
#     Edge 103, Type (0, 0), BuildingBlock: XIVTED_clean_linker_0, # of connection points: 2
#     Edge 104, Type (0, 0), BuildingBlock: XIVTED_clean_linker_0, # of connection points: 2
#     Edge 105, Type (0, 0), BuildingBlock: XIVTED_clean_linker_0, # of connection points: 2
#     Edge 106, Type (0, 0), BuildingBlock: XIVTED_clean_linker_0, # of connection points: 2
#     Edge 107, Type (0, 0), BuildingBlock: XIVTED_clean_linker_0, # of connection points: 2
#     Edge 108, Type (0, 0), BuildingBlock: XIVTED_clean_linker_0, # of connection points: 2
#     Edge 109, Type (0, 0), BuildingBlock: XIVTED_clean_linker_0, # of connection points: 2
#     Edge 110, Type (0, 0), BuildingBlock: XIVTED_clean_linker_0, # of connection points: 2
#     Edge 111, Type (0, 0), BuildingBlock: XIVTED_clean_linker_0, # of connection points: 2
#     Edge 112, Type (0, 0), BuildingBlock: XIVTED_clean_linker_0, # of connection points: 2
#     Edge 113, Type (0, 0), BuildingBlock: XIVTED_clean_linker_0, # of connection points: 2
#     Edge 114, Type (0, 0), BuildingBlock: XIVTED_clean_linker_0, # of connection points: 2
#     Edge 115, Type (0, 0), BuildingBlock: XIVTED_clean_linker_0, # of connection points: 2
#     Edge 116, Type (0, 0), BuildingBlock: XIVTED_clean_linker_0, # of connection points: 2
#     Edge 117, Type (0, 0), BuildingBlock: XIVTED_clean_linker_0, # of connection points: 2
#     Edge 118, Type (0, 0), BuildingBlock: XIVTED_clean_linker_0, # of connection points: 2
#     Edge 119, Type (0, 0), BuildingBlock: XIVTED_clean_linker_0, # of connection points: 2
#     Edge 120, Type (0, 0), BuildingBlock: XIVTED_clean_linker_0, # of connection points: 2
#     Edge 121, Type (0, 0), BuildingBlock: XIVTED_clean_linker_0, # of connection points: 2
#     Edge 122, Type (0, 0), BuildingBlock: XIVTED_clean_linker_0, # of connection points: 2
#     Edge 123, Type (0, 0), BuildingBlock: XIVTED_clean_linker_0, # of connection points: 2
#     Edge 124, Type (0, 0), BuildingBlock: XIVTED_clean_linker_0, # of connection points: 2
#     Edge 125, Type (0, 0), BuildingBlock: XIVTED_clean_linker_0, # of connection points: 2
# Relax obj value: 0.104
# Max RMSD: 0.103
# Mean RMSD: 0.103
data_MOF--net-wlp--node1-BEQFEK_clean_sbu_0--edge1-XIVTED_clean_linker_0
_symmetry_space_group_name_H-M    P1
_symmetry_Int_Tables_number       1
_symmetry_cell_setting            triclinic
loop_
_symmetry_equiv_pos_as_xyz
'x, y, z'
_cell_length_a     109.45592
_cell_length_b     109.46288
_cell_length_c     23.59797
_cell_angle_alpha  90.064685
_cell_angle_beta   90.017904
_cell_angle_gamma 119.97256
loop_
_atom_site_label
_atom_site_type_symbol
_atom_site_fract_x
_atom_site_fract_y
_atom_site_fract_z
_atom_type_partial_charge
Co0 Co 0.27585 0.18179 0.16006 0.0
Co1 Co 0.26925 0.19537 0.05686 0.0
C2 C 0.26216 0.16586 0.04964 0.0
O3 O 0.26749 0.16692 0.09878 0.0
O4 O 0.26116 0.17599 0.02829 0.0
C5 C 0.26354 0.16036 0.24153 0.0
O6 O 0.25299 0.15675 0.20627 0.0
C7 C 0.25584 0.20368 0.96946 0.0
C8 C 0.27077 0.22667 0.96664 0.0
C9 C 0.25801 0.21614 0.9455 0.0
N10 N 0.26673 0.20679 1.00417 0.0
N11 N 0.27576 0.22047 1.00132 0.0
C12 C 0.24295 0.18939 0.96503 0.0
H13 H 0.24201 0.1829 1.0026 0.0
H14 H 0.23333 0.1903 0.96104 0.0
H15 H 0.2438 0.18401 0.92664 0.0
C16 C 0.26033 0.19481 0.21961 0.0
N17 N 0.26533 0.19156 0.17276 0.0
N18 N 0.26213 0.19662 0.12824 0.0
C19 C 0.25494 0.20304 0.14494 0.0
C20 C 0.25365 0.20233 0.20352 0.0
C21 C 0.26255 0.19144 0.27878 0.0
H22 H 0.27295 0.19208 0.28238 0.0
H23 H 0.25424 0.1805 0.28901 0.0
H24 H 0.26187 0.19873 0.30973 0.0
O25 O 0.29583 0.19484 0.13255 0.0
O26 O 0.28974 0.2034 0.05937 0.0
H27 H 0.25739 0.21912 0.08694 0.0
H28 H 0.24113 0.21147 0.12662 0.0
C29 C 0.2488 0.20922 0.10523 0.0
H30 H 0.2432 0.20166 0.07055 0.0
H31 H 0.28501 0.22565 0.02515 0.0
O32 O 0.27526 0.17145 0.23111 0.0
C33 C 0.29909 0.20269 0.08861 0.0
Co34 Co 0.83246 0.09509 0.15182 0.0
Co35 Co 0.81515 0.07427 0.05423 0.0
C36 C 0.8454 0.09599 0.03761 0.0
O37 O 0.84655 0.10044 0.08844 0.0
O38 O 0.83393 0.08558 0.01981 0.0
C39 C 0.85519 0.1062 0.23064 0.0
O40 O 0.85994 0.1006 0.19367 0.0
C41 C 0.8057 0.05097 0.97469 0.0
C42 C 0.78341 0.04522 0.96251 0.0
C43 C 0.79322 0.0412 0.94907 0.0
N44 N 0.80327 0.06017 1.00294 0.0
N45 N 0.79004 0.05689 0.99458 0.0
C46 C 0.81926 0.05077 0.9778 0.0
H47 H 0.82552 0.05684 0.01518 0.0
H48 H 0.81719 0.03977 0.98003 0.0
H49 H 0.82551 0.05574 0.93903 0.0
C50 C 0.82059 0.06701 0.21394 0.0
N51 N 0.82232 0.07489 0.16707 0.0
N52 N 0.81523 0.06631 0.12517 0.0
C53 C 0.80874 0.05286 0.1439 0.0
C54 C 0.81205 0.05274 0.2005 0.0
C55 C 0.82725 0.07301 0.27006 0.0
H56 H 0.82554 0.08189 0.28129 0.0
H57 H 0.83878 0.07721 0.26687 0.0
H58 H 0.82297 0.06492 0.30395 0.0
O59 O 0.81973 0.10274 0.1255 0.0
O60 O 0.80734 0.08669 0.06001 0.0
H61 H 0.79116 0.04286 0.08697 0.0
H62 H 0.79196 0.03105 0.13736 0.0
C63 C 0.79841 0.04033 0.11006 0.0
H64 H 0.80419 0.03747 0.07923 0.0
H65 H 0.78537 0.06223 0.01293 0.0
O66 O 0.84326 0.10526 0.2217 0.0
C67 C 0.81016 0.09779 0.08719 0.0
Co68 Co 0.91908 0.73926 0.15512 0.0
Co69 Co 0.93836 0.74588 0.04917 0.0
C70 C 0.91559 0.75264 0.04692 0.0
O71 O 0.91163 0.74728 0.09612 0.0
O72 O 0.92664 0.75377 0.02429 0.0
C73 C 0.91021 0.75113 0.23992 0.0
O74 O 0.91658 0.76175 0.20457 0.0
C75 C 0.95876 0.75966 0.958 0.0
C76 C 0.9622 0.74224 0.93098 0.0
C77 C 0.96576 0.75599 0.91889 0.0
N78 N 0.95131 0.7485 0.99178 0.0
N79 N 0.95346 0.73816 0.97565 0.0
C80 C 0.95818 0.77302 0.96053 0.0
H81 H 0.9526 0.77332 0.99926 0.0
H82 H 0.96898 0.78229 0.96032 0.0
H83 H 0.9526 0.77371 0.92249 0.0
C84 C 0.9482 0.75545 0.21011 0.0
N85 N 0.93954 0.75012 0.16454 0.0
N86 N 0.94743 0.75313 0.11891 0.0
C87 C 0.96117 0.76047 0.13352 0.0
C88 C 0.96224 0.76235 0.19186 0.0
C89 C 0.9431 0.75415 0.26978 0.0
H90 H 0.93928 0.76171 0.27645 0.0
H91 H 0.95162 0.75656 0.30082 0.0
H92 H 0.93413 0.74336 0.27712 0.0
O93 O 0.9121 0.71925 0.12738 0.0
O94 O 0.92614 0.72543 0.05235 0.0
H95 H 0.9834 0.76886 0.11458 0.0
H96 H 0.97351 0.77259 0.06306 0.0
C97 C 0.97308 0.76455 0.09277 0.0
H98 H 0.97124 0.75519 0.0679 0.0
H99 H 0.94877 0.72823 0.99456 0.0
O100 O 0.9099 0.73961 0.22821 0.0
C101 C 0.91639 0.71602 0.08242 0.0
Co102 Co 0.18442 0.26949 0.45113 0.0
Co103 Co 0.19733 0.26238 0.5548 0.0
C104 C 0.16783 0.25476 0.55926 0.0
O105 O 0.16909 0.2607 0.51131 0.0
O106 O 0.17778 0.25325 0.57925 0.0
C107 C 0.16326 0.25803 0.36671 0.0
O108 O 0.15885 0.24726 0.40138 0.0
C109 C 0.20469 0.2487 0.64348 0.0
C110 C 0.22529 0.26636 0.67152 0.0
C111 C 0.21539 0.25245 0.6825 0.0
N112 N 0.20811 0.25997 0.61079 0.0
N113 N 0.22044 0.27046 0.62747 0.0
C114 C 0.19088 0.23522 0.64049 0.0
H115 H 0.18598 0.23401 0.59816 0.0
H116 H 0.19225 0.22604 0.64932 0.0
H117 H 0.18369 0.23545 0.6731 0.0
C118 C 0.1979 0.25423 0.39228 0.0
N119 N 0.19457 0.25926 0.43883 0.0
N120 N 0.19977 0.25627 0.48351 0.0
C121 C 0.20644 0.2493 0.46735 0.0
C122 C 0.20543 0.2476 0.40894 0.0
C123 C 0.19355 0.25539 0.33337 0.0
H124 H 0.18212 0.24782 0.32829 0.0
H125 H 0.19939 0.25293 0.30119 0.0
H126 H 0.19528 0.26616 0.32631 0.0
O127 O 0.19712 0.2895 0.48103 0.0
O128 O 0.20379 0.28246 0.55693 0.0
H129 H 0.22174 0.25443 0.53309 0.0
H130 H 0.22086 0.24147 0.48395 0.0
C131 C 0.21451 0.24521 0.50689 0.0
H132 H 0.20702 0.23674 0.53548 0.0
H133 H 0.2254 0.28052 0.60953 0.0
O134 O 0.17461 0.26938 0.37879 0.0
C135 C 0.20347 0.29216 0.52889 0.0
Co136 Co 0.74312 0.9166 0.44524 0.0
Co137 Co 0.74991 0.93616 0.55052 0.0
C138 C 0.75659 0.91351 0.55476 0.0
O139 O 0.7511 0.90941 0.50571 0.0
O140 O 0.7579 0.92469 0.57689 0.0
C141 C 0.75501 0.9072 0.36251 0.0
O142 O 0.76561 0.91368 0.398 0.0
C143 C 0.76175 0.95522 0.64755 0.0
C144 C 0.74654 0.96289 0.6546 0.0
C145 C 0.75838 0.96372 0.67947 0.0
N146 N 0.75227 0.94959 0.6055 0.0
N147 N 0.74324 0.95422 0.60983 0.0
C148 C 0.77292 0.95146 0.659 0.0
H149 H 0.77833 0.95171 0.61886 0.0
H150 H 0.78072 0.95859 0.69064 0.0
H151 H 0.76784 0.94052 0.67555 0.0
C152 C 0.75913 0.9456 0.38926 0.0
N153 N 0.75395 0.93698 0.43491 0.0
N154 N 0.75721 0.94489 0.48055 0.0
C155 C 0.76468 0.9586 0.46604 0.0
C156 C 0.76604 0.95967 0.40747 0.0
C157 C 0.75683 0.94048 0.32932 0.0
H158 H 0.7465 0.93064 0.32521 0.0
H159 H 0.76524 0.93812 0.31735 0.0
H160 H 0.75726 0.9486 0.29997 0.0
O161 O 0.72315 0.90979 0.47208 0.0
O162 O 0.72942 0.92387 0.54714 0.0
H163 H 0.76262 0.97256 0.52366 0.0
H164 H 0.7796 0.98022 0.48913 0.0
C165 C 0.77095 0.97044 0.50806 0.0
H166 H 0.77524 0.96745 0.5446 0.0
H167 H 0.7347 0.95129 0.58261 0.0
O168 O 0.74354 0.90709 0.37317 0.0
C169 C 0.71997 0.91414 0.51697 0.0
Co170 Co 0.09785 0.8283 0.44875 0.0
Co171 Co 0.07653 0.81212 0.54617 0.0
C172 C 0.0983 0.84204 0.56178 0.0
O173 O 0.10307 0.84262 0.51186 0.0
O174 O 0.08755 0.83092 0.57973 0.0
C175 C 0.10878 0.85078 0.36971 0.0
O176 O 0.10241 0.85507 0.40499 0.0
C177 C 0.05407 0.80307 0.62992 0.0
C178 C 0.04563 0.78 0.62933 0.0
C179 C 0.04343 0.79047 0.65143 0.0
N180 N 0.06204 0.80012 0.59568 0.0
N181 N 0.05716 0.78638 0.59647 0.0
C182 C 0.05564 0.81741 0.63582 0.0
H183 H 0.06118 0.82402 0.5985 0.0
H184 H 0.0452 0.81665 0.64051 0.0
H185 H 0.062 0.82259 0.67423 0.0
C186 C 0.07 0.81559 0.38364 0.0
N187 N 0.07773 0.81815 0.43173 0.0
N188 N 0.069 0.81201 0.47415 0.0
C189 C 0.0556 0.80555 0.45493 0.0
C190 C 0.05567 0.80737 0.39678 0.0
C191 C 0.07623 0.82034 0.32599 0.0
H192 H 0.08583 0.81943 0.32163 0.0
H193 H 0.07935 0.8316 0.32067 0.0
H194 H 0.06852 0.81407 0.29235 0.0
O195 O 0.10519 0.81551 0.4771 0.0
O196 O 0.08905 0.80429 0.54355 0.0
H197 H 0.04175 0.78826 0.50784 0.0
H198 H 0.03304 0.79598 0.46931 0.0
C199 C 0.04283 0.79828 0.49201 0.0
H200 H 0.04402 0.80513 0.52847 0.0
H201 H 0.06132 0.78131 0.57247 0.0
O202 O 0.10834 0.83912 0.37952 0.0
C203 C 0.10004 0.80645 0.51716 0.0
Co204 Co 0.74188 0.82841 0.94556 0.0
Co205 Co 0.74877 0.81503 0.04849 0.0
C206 C 0.75511 0.84453 0.05507 0.0
O207 O 0.74995 0.84352 0.00565 0.0
O208 O 0.75609 0.83441 0.0765 0.0
C209 C 0.75312 0.84976 0.86358 0.0
O210 O 0.76374 0.85404 0.89907 0.0
C211 C 0.76421 0.80913 0.13384 0.0
C212 C 0.75031 0.78617 0.14605 0.0
C213 C 0.76315 0.79756 0.16164 0.0
N214 N 0.75256 0.80475 0.10235 0.0
N215 N 0.74415 0.79109 0.11062 0.0
C216 C 0.77661 0.82378 0.13252 0.0
H217 H 0.77721 0.82878 0.09096 0.0
H218 H 0.78657 0.82372 0.14069 0.0
H219 H 0.77528 0.83014 0.16604 0.0
C220 C 0.75864 0.81675 0.8863 0.0
N221 N 0.75304 0.81932 0.93301 0.0
N222 N 0.75619 0.81414 0.97731 0.0
C223 C 0.7639 0.80826 0.96056 0.0
C224 C 0.76586 0.80978 0.90238 0.0
C225 C 0.75732 0.82112 0.82766 0.0
H226 H 0.74645 0.81915 0.82069 0.0
H227 H 0.76472 0.8326 0.82294 0.0
H228 H 0.75994 0.81548 0.79514 0.0
O229 O 0.72209 0.81493 0.97417 0.0
O230 O 0.72821 0.80607 0.04635 0.0
H231 H 0.75898 0.79192 0.02105 0.0
H232 H 0.7733 0.79509 0.97538 0.0
C233 C 0.76833 0.80025 0.99882 0.0
H234 H 0.77592 0.80754 0.03063 0.0
H235 H 0.73449 0.78503 0.09019 0.0
O236 O 0.74179 0.83828 0.8741 0.0
C237 C 0.71883 0.8068 0.01727 0.0
Co238 Co 0.18462 0.91498 0.94628 0.0
Co239 Co 0.19922 0.9357 0.04697 0.0
C240 C 0.16987 0.91388 0.05944 0.0
O241 O 0.17047 0.9093 0.01026 0.0
O242 O 0.18024 0.92508 0.07934 0.0
C243 C 0.1649 0.90751 0.85457 0.0
O244 O 0.16409 0.91838 0.8734 0.0
C245 C 0.21094 0.9574 0.13733 0.0
C246 C 0.23362 0.96472 0.12502 0.0
C247 C 0.22435 0.96709 0.15659 0.0
N248 N 0.21235 0.9499 0.09535 0.0
N249 N 0.22589 0.95421 0.08876 0.0
C250 C 0.19705 0.95484 0.15954 0.0
H251 H 0.18898 0.94356 0.15535 0.0
H252 H 0.19354 0.96109 0.13445 0.0
H253 H 0.1979 0.95794 0.20478 0.0
C254 C 0.19796 0.94351 0.88432 0.0
N255 N 0.1947 0.93527 0.93121 0.0
N256 N 0.19951 0.9436 0.97569 0.0
C257 C 0.20529 0.95717 0.95925 0.0
C258 C 0.20457 0.95768 0.90073 0.0
C259 C 0.19507 0.93807 0.82482 0.0
H260 H 0.19346 0.92724 0.82292 0.0
H261 H 0.18547 0.93797 0.80906 0.0
H262 H 0.20393 0.94508 0.79663 0.0
O263 O 0.19747 0.90771 0.97168 0.0
O264 O 0.20658 0.92268 0.04341 0.0
H265 H 0.22246 0.97083 0.01291 0.0
H266 H 0.21427 0.97948 0.97866 0.0
C267 C 0.21221 0.9695 0.99885 0.0
H268 H 0.20543 0.96752 0.0365 0.0
H269 H 0.22987 0.95012 0.05866 0.0
O270 O 0.17329 0.90422 0.87859 0.0
C271 C 0.20556 0.91239 0.01485 0.0
Co272 Co 0.09834 0.27128 0.94879 0.0
Co273 Co 0.07807 0.26176 0.05167 0.0
C274 C 0.10037 0.2553 0.05437 0.0
O275 O 0.10489 0.26232 0.00838 0.0
O276 O 0.08856 0.25254 0.07512 0.0
C277 C 0.10479 0.26036 0.85069 0.0
O278 O 0.09359 0.24876 0.86782 0.0
C279 C 0.05588 0.24775 0.13715 0.0
C280 C 0.04788 0.26275 0.14026 0.0
C281 C 0.04542 0.24983 0.16004 0.0
N282 N 0.06399 0.25889 0.10416 0.0
N283 N 0.05938 0.26795 0.1073 0.0
C284 C 0.05712 0.23477 0.14095 0.0
H285 H 0.06274 0.23388 0.10348 0.0
H286 H 0.04655 0.2252 0.14431 0.0
H287 H 0.06324 0.23545 0.17951 0.0
C288 C 0.0698 0.25751 0.88738 0.0
N289 N 0.0781 0.26102 0.93428 0.0
N290 N 0.06985 0.25628 0.97892 0.0
C291 C 0.05624 0.24931 0.96212 0.0
C292 C 0.05565 0.24993 0.90361 0.0
C293 C 0.07514 0.2623 0.82862 0.0
H294 H 0.08594 0.27157 0.82969 0.0
H295 H 0.0753 0.25358 0.80531 0.0
H296 H 0.06797 0.265 0.80546 0.0
O297 O 0.10478 0.29075 0.98053 0.0
O298 O 0.0914 0.28215 0.05684 0.0
H299 H 0.04182 0.2494 0.023 0.0
H300 H 0.03429 0.23401 0.97807 0.0
C301 C 0.04394 0.24168 1.0012 0.0
H302 H 0.04638 0.23583 0.03316 0.0
H303 H 0.06366 0.27736 0.08448 0.0
O304 O 0.10885 0.27176 0.87836 0.0
C305 C 0.10098 0.29253 0.02964 0.0
Co306 Co 0.83195 0.73999 0.65347 0.0
Co307 Co 0.82186 0.74983 0.54905 0.0
C308 C 0.85049 0.75533 0.54904 0.0
O309 O 0.84778 0.7484 0.59532 0.0
O310 O 0.84162 0.75823 0.52723 0.0
C311 C 0.85201 0.75077 0.73994 0.0
O312 O 0.856 0.76182 0.70713 0.0
C313 C 0.81615 0.76405 0.45668 0.0
C314 C 0.7928 0.75247 0.45747 0.0
C315 C 0.80446 0.76356 0.43228 0.0
N316 N 0.81159 0.75375 0.49549 0.0
N317 N 0.79765 0.74671 0.49508 0.0
C318 C 0.83131 0.77477 0.44709 0.0
H319 H 0.8366 0.77898 0.48843 0.0
H320 H 0.83244 0.78355 0.41999 0.0
H321 H 0.83662 0.76957 0.42629 0.0
C322 C 0.8189 0.75551 0.71268 0.0
N323 N 0.82294 0.75116 0.66605 0.0
N324 N 0.81945 0.75578 0.62099 0.0
C325 C 0.81346 0.7634 0.63711 0.0
C326 C 0.81262 0.76333 0.69573 0.0
C327 C 0.82038 0.75165 0.77201 0.0
H328 H 0.81942 0.74108 0.77281 0.0
H329 H 0.83098 0.75945 0.78824 0.0
H330 H 0.81231 0.75179 0.80011 0.0
O331 O 0.81845 0.72069 0.62123 0.0
O332 O 0.81387 0.7293 0.54431 0.0
H333 H 0.79859 0.76397 0.57994 0.0
H334 H 0.80883 0.78004 0.61923 0.0
C335 C 0.80921 0.77127 0.59729 0.0
H336 H 0.81685 0.7757 0.56196 0.0
H337 H 0.79148 0.73831 0.52207 0.0
O338 O 0.84109 0.73922 0.72604 0.0
C339 C 0.81279 0.71888 0.57222 0.0
Co340 Co 0.27484 0.09436 0.65898 0.0
Co341 Co 0.267 0.07462 0.55434 0.0
C342 C 0.25974 0.09627 0.54983 0.0
O343 O 0.26626 0.1007 0.59703 0.0
O344 O 0.25741 0.0846 0.52859 0.0
C345 C 0.26276 0.10379 0.74091 0.0
O346 O 0.25215 0.09716 0.70558 0.0
C347 C 0.25838 0.0546 0.45795 0.0
C348 C 0.27335 0.04683 0.47181 0.0
C349 C 0.26251 0.04536 0.43702 0.0
N350 N 0.26635 0.06106 0.5036 0.0
N351 N 0.27531 0.05645 0.5113 0.0
C352 C 0.24765 0.05782 0.43391 0.0
H353 H 0.25097 0.06906 0.44082 0.0
H354 H 0.23745 0.05131 0.45596 0.0
H355 H 0.24616 0.05548 0.38785 0.0
C356 C 0.25967 0.06556 0.71703 0.0
N357 N 0.26446 0.07411 0.67103 0.0
N358 N 0.26076 0.06614 0.62551 0.0
C359 C 0.25343 0.05246 0.64048 0.0
C360 C 0.25261 0.05148 0.69909 0.0
C361 C 0.26223 0.07075 0.77685 0.0
H362 H 0.27256 0.08061 0.78029 0.0
H363 H 0.25387 0.07312 0.78954 0.0
H364 H 0.26191 0.06264 0.80603 0.0
O365 O 0.29487 0.10158 0.63132 0.0
O366 O 0.28703 0.08871 0.55355 0.0
H367 H 0.25449 0.03752 0.58525 0.0
H368 H 0.23759 0.03112 0.61865 0.0
C369 C 0.24665 0.04049 0.59915 0.0
H370 H 0.24288 0.04372 0.56155 0.0
H371 H 0.28273 0.05983 0.54399 0.0
O372 O 0.27429 0.10404 0.7303 0.0
C373 C 0.29709 0.0983 0.5819 0.0
Co374 Co 0.9193 0.18214 0.65444 0.0
Co375 Co 0.93947 0.19511 0.5516 0.0
C376 C 0.91691 0.16554 0.54667 0.0
O377 O 0.91256 0.16672 0.59537 0.0
O378 O 0.92802 0.17563 0.52538 0.0
C379 C 0.91143 0.1631 0.74754 0.0
O380 O 0.92159 0.16136 0.72679 0.0
C381 C 0.96007 0.20074 0.46327 0.0
C382 C 0.96495 0.222 0.43512 0.0
C383 C 0.96776 0.21121 0.4243 0.0
N384 N 0.95299 0.20516 0.49581 0.0
N385 N 0.95598 0.21787 0.47906 0.0
C386 C 0.9583 0.18629 0.46637 0.0
H387 H 0.95505 0.18192 0.50968 0.0
H388 H 0.96814 0.18641 0.45445 0.0
H389 H 0.94992 0.1793 0.43618 0.0
C390 C 0.94819 0.19571 0.71428 0.0
N391 N 0.93975 0.19203 0.66774 0.0
N392 N 0.94792 0.19678 0.6228 0.0
C393 C 0.96158 0.20327 0.63872 0.0
C394 C 0.96232 0.20276 0.69725 0.0
C395 C 0.94289 0.19268 0.77394 0.0
H396 H 0.93231 0.19167 0.77678 0.0
H397 H 0.94216 0.18266 0.78783 0.0
H398 H 0.95025 0.20111 0.80307 0.0
O399 O 0.91256 0.19516 0.6244 0.0
O400 O 0.92742 0.20359 0.55198 0.0
H401 H 0.9722 0.21863 0.57382 0.0
H402 H 0.98396 0.21676 0.62133 0.0
C403 C 0.97372 0.21094 0.59884 0.0
H404 H 0.97412 0.20328 0.56922 0.0
H405 H 0.95167 0.2236 0.49691 0.0
O406 O 0.90873 0.17201 0.7244 0.0
C407 C 0.9173 0.20297 0.58044 0.0
Co408 Co 0.94229 0.5163 0.49156 0.0
Co409 Co 0.93653 0.53041 0.38785 0.0
C410 C 0.92939 0.50102 0.37847 0.0
O411 O 0.93438 0.50187 0.42823 0.0
O412 O 0.92846 0.51121 0.35717 0.0
C413 C 0.92937 0.49481 0.57304 0.0
O414 O 0.91887 0.49123 0.53753 0.0
C415 C 0.92719 0.54173 0.2935 0.0
C416 C 0.94156 0.5645 0.3088 0.0
C417 C 0.93069 0.55508 0.27429 0.0
N418 N 0.93551 0.54332 0.33808 0.0
N419 N 0.94414 0.55693 0.34651 0.0
C420 C 0.91662 0.52775 0.26918 0.0
H421 H 0.92021 0.52 0.27492 0.0
H422 H 0.90645 0.52378 0.2918 0.0
H423 H 0.91495 0.52866 0.22335 0.0
C424 C 0.92628 0.52911 0.54907 0.0
N425 N 0.93173 0.52604 0.50315 0.0
N426 N 0.9287 0.53102 0.45799 0.0
C427 C 0.92106 0.53706 0.4731 0.0
C428 C 0.91941 0.53634 0.53153 0.0
C429 C 0.92822 0.52582 0.60873 0.0
H430 H 0.93848 0.52617 0.61326 0.0
H431 H 0.91968 0.51501 0.61931 0.0
H432 H 0.9277 0.53334 0.63886 0.0
O433 O 0.96251 0.52932 0.46761 0.0
O434 O 0.95689 0.53793 0.39344 0.0
H435 H 0.92272 0.55363 0.41988 0.0
H436 H 0.90548 0.54288 0.45041 0.0
C437 C 0.91471 0.54272 0.43185 0.0
H438 H 0.91125 0.53607 0.39322 0.0
H439 H 0.95167 0.56103 0.37877 0.0
O440 O 0.94118 0.50575 0.56238 0.0
C441 C 0.96606 0.53718 0.42375 0.0
Co442 Co 0.49854 0.42806 0.48597 0.0
Co443 Co 0.48093 0.4074 0.38857 0.0
C444 C 0.51124 0.429 0.37138 0.0
O445 O 0.51254 0.43339 0.42234 0.0
O446 O 0.49967 0.41871 0.35374 0.0
C447 C 0.52145 0.43894 0.56342 0.0
O448 O 0.52591 0.4332 0.52583 0.0
C449 C 0.47166 0.38422 0.30888 0.0
C450 C 0.44949 0.37863 0.29454 0.0
C451 C 0.45932 0.37459 0.28194 0.0
N452 N 0.46912 0.39337 0.33693 0.0
N453 N 0.45596 0.39018 0.32738 0.0
C454 C 0.48517 0.38397 0.31331 0.0
H455 H 0.49121 0.38992 0.35129 0.0
H456 H 0.48307 0.37295 0.31536 0.0
H457 H 0.49167 0.38906 0.27519 0.0
C458 C 0.4866 0.39994 0.54775 0.0
N459 N 0.4883 0.40786 0.50104 0.0
N460 N 0.48106 0.39934 0.45924 0.0
C461 C 0.47447 0.38588 0.4779 0.0
C462 C 0.47789 0.3857 0.53433 0.0
C463 C 0.49343 0.40588 0.60367 0.0
H464 H 0.49182 0.4148 0.61538 0.0
H465 H 0.50494 0.41002 0.59989 0.0
H466 H 0.48922 0.39778 0.63751 0.0
O467 O 0.48586 0.43583 0.46031 0.0
O468 O 0.47312 0.41982 0.39513 0.0
H469 H 0.45686 0.37615 0.42095 0.0
H470 H 0.45736 0.36423 0.47173 0.0
C471 C 0.46395 0.37342 0.44423 0.0
H472 H 0.46958 0.37033 0.41355 0.0
H473 H 0.45124 0.39553 0.34523 0.0
O474 O 0.50956 0.43816 0.55555 0.0
C475 C 0.47616 0.43096 0.42253 0.0
Co476 Co 0.58535 0.07249 0.49065 0.0
Co477 Co 0.60512 0.08083 0.38625 0.0
C478 C 0.58349 0.08806 0.38286 0.0
O479 O 0.57899 0.08127 0.42945 0.0
O480 O 0.5952 0.09055 0.36169 0.0
C481 C 0.57633 0.08447 0.57429 0.0
O482 O 0.58328 0.09523 0.54003 0.0
C483 C 0.62543 0.08998 0.29082 0.0
C484 C 0.63337 0.07515 0.30447 0.0
C485 C 0.63491 0.0861 0.27034 0.0
N486 N 0.61879 0.08176 0.3356 0.0
N487 N 0.62349 0.07287 0.34312 0.0
C488 C 0.62221 0.10075 0.26733 0.0
H489 H 0.61097 0.09744 0.27433 0.0
H490 H 0.62875 0.11092 0.28962 0.0
H491 H 0.62452 0.10229 0.22128 0.0
C492 C 0.61414 0.08759 0.54929 0.0
N493 N 0.60559 0.08289 0.50317 0.0
N494 N 0.61356 0.08685 0.45772 0.0
C495 C 0.62724 0.0943 0.47285 0.0
C496 C 0.62823 0.09489 0.5315 0.0
C497 C 0.60896 0.08473 0.60906 0.0
H498 H 0.59901 0.07446 0.61175 0.0
H499 H 0.60678 0.09314 0.62308 0.0
H500 H 0.61701 0.08475 0.63772 0.0
O501 O 0.57824 0.05258 0.46153 0.0
O502 O 0.59101 0.06078 0.38375 0.0
H503 H 0.6424 0.09395 0.41676 0.0
H504 H 0.64839 0.11064 0.45164 0.0
C505 C 0.63915 0.10152 0.43166 0.0
H506 H 0.63574 0.1053 0.39465 0.0
H507 H 0.62004 0.06533 0.37527 0.0
O508 O 0.57566 0.07281 0.56228 0.0
C509 C 0.58147 0.05059 0.41165 0.0
Co510 Co 0.85174 0.60503 0.77781 0.0
Co511 Co 0.86661 0.59988 0.88072 0.0
C512 C 0.83705 0.59246 0.89148 0.0
O513 O 0.83756 0.59719 0.84154 0.0
O514 O 0.84747 0.59185 0.91225 0.0
C515 C 0.8294 0.59233 0.69877 0.0
O516 O 0.82531 0.58211 0.73599 0.0
C517 C 0.87815 0.59013 0.97282 0.0
C518 C 0.90059 0.60672 0.96661 0.0
C519 C 0.89142 0.5946 0.99576 0.0
N520 N 0.87957 0.59916 0.93139 0.0
N521 N 0.89297 0.60908 0.9283 0.0
C522 C 0.86432 0.57793 0.99105 0.0
H523 H 0.86239 0.56835 0.96751 0.0
H524 H 0.8644 0.57596 0.03713 0.0
H525 H 0.85559 0.57994 0.98146 0.0
C526 C 0.86414 0.58879 0.71989 0.0
N527 N 0.86154 0.59453 0.76604 0.0
N528 N 0.86708 0.59189 0.81053 0.0
C529 C 0.87311 0.58427 0.79466 0.0
C530 C 0.87147 0.58196 0.73658 0.0
C531 C 0.85939 0.58956 0.66124 0.0
H532 H 0.84792 0.58199 0.6576 0.0
H533 H 0.86497 0.58682 0.62885 0.0
H534 H 0.86112 0.60029 0.65319 0.0
O535 O 0.86469 0.62537 0.80114 0.0
O536 O 0.8739 0.62016 0.87442 0.0
H537 H 0.89065 0.58986 0.84951 0.0
H538 H 0.88481 0.57347 0.81325 0.0
C539 C 0.88122 0.5802 0.834 0.0
H540 H 0.87454 0.57452 0.87094 0.0
H541 H 0.89694 0.61741 0.89944 0.0
O542 O 0.84093 0.60377 0.70736 0.0
C543 C 0.87282 0.62914 0.8443 0.0
Co544 Co 0.40965 0.24968 0.78036 0.0
Co545 Co 0.41624 0.26908 0.88602 0.0
C546 C 0.42331 0.24672 0.88966 0.0
O547 O 0.41781 0.24262 0.84062 0.0
O548 O 0.42452 0.25784 0.91203 0.0
C549 C 0.42221 0.24136 0.69657 0.0
O550 O 0.43279 0.24829 0.73177 0.0
C551 C 0.4278 0.28809 0.98329 0.0
C552 C 0.41202 0.295 0.99178 0.0
C553 C 0.42408 0.2962 0.01603 0.0
N554 N 0.4183 0.28231 0.94141 0.0
N555 N 0.40893 0.2865 0.94657 0.0
C556 C 0.43936 0.28484 0.99385 0.0
H557 H 0.44446 0.28486 0.95316 0.0
H558 H 0.44735 0.29241 0.0239 0.0
H559 H 0.43471 0.27409 0.0121 0.0
C560 C 0.42533 0.27876 0.72486 0.0
N561 N 0.42022 0.27009 0.7704 0.0
N562 N 0.42342 0.27795 0.81616 0.0
C563 C 0.43076 0.29169 0.80183 0.0
C564 C 0.43213 0.29282 0.74324 0.0
C565 C 0.42305 0.27371 0.66483 0.0
H566 H 0.41285 0.26373 0.66075 0.0
H567 H 0.43163 0.27164 0.65238 0.0
H568 H 0.42322 0.28175 0.63579 0.0
O569 O 0.38959 0.24252 0.80728 0.0
O570 O 0.39579 0.2565 0.88262 0.0
H571 H 0.42851 0.30545 0.85985 0.0
H572 H 0.44551 0.31333 0.8253 0.0
C573 C 0.43693 0.30349 0.84406 0.0
H574 H 0.44128 0.30052 0.88048 0.0
H575 H 0.40029 0.28336 0.91967 0.0
O576 O 0.41041 0.24045 0.70795 0.0
C577 C 0.38638 0.24672 0.85248 0.0
Co578 Co 0.76465 0.16228 0.77815 0.0
Co579 Co 0.74444 0.14757 0.88042 0.0
C580 C 0.76644 0.17719 0.89093 0.0
O581 O 0.77086 0.17664 0.84142 0.0
O582 O 0.75537 0.16677 0.9113 0.0
C583 C 0.7753 0.18478 0.69929 0.0
O584 O 0.76969 0.18945 0.73657 0.0
C585 C 0.72299 0.13648 0.97153 0.0
C586 C 0.71705 0.11397 0.96712 0.0
C587 C 0.71405 0.12331 0.9948 0.0
N588 N 0.73072 0.13483 0.93118 0.0
N589 N 0.7272 0.12141 0.92922 0.0
C590 C 0.72466 0.15041 0.98851 0.0
H591 H 0.71733 0.15245 0.96319 0.0
H592 H 0.72222 0.15044 0.03414 0.0
H593 H 0.73553 0.15902 0.9802 0.0
C594 C 0.73604 0.14998 0.7193 0.0
N595 N 0.74433 0.15247 0.76557 0.0
N596 N 0.7361 0.1469 0.80984 0.0
C597 C 0.72248 0.14092 0.79372 0.0
C598 C 0.72187 0.14265 0.73573 0.0
C599 C 0.74163 0.1549 0.66092 0.0
H600 H 0.74591 0.16646 0.65846 0.0
H601 H 0.73326 0.14968 0.62839 0.0
H602 H 0.7504 0.15285 0.65217 0.0
O603 O 0.77204 0.1494 0.80287 0.0
O604 O 0.75744 0.14031 0.8756 0.0
H605 H 0.71062 0.12359 0.84951 0.0
H606 H 0.69995 0.12897 0.81149 0.0
C607 C 0.71025 0.13285 0.83281 0.0
H608 H 0.71103 0.13967 0.86897 0.0
H609 H 0.73161 0.11729 0.90129 0.0
O610 O 0.77442 0.17287 0.70771 0.0
C611 C 0.76761 0.14137 0.84622 0.0
Co612 Co 0.40975 0.16282 0.28277 0.0
Co613 Co 0.41923 0.15221 0.38668 0.0
C614 C 0.42565 0.18104 0.38782 0.0
O615 O 0.41866 0.17843 0.34166 0.0
O616 O 0.4284 0.17202 0.40933 0.0
C617 C 0.42091 0.18313 0.19715 0.0
O618 O 0.43193 0.18697 0.23005 0.0
C619 C 0.43312 0.14392 0.47278 0.0
C620 C 0.41782 0.12103 0.47649 0.0
C621 C 0.43084 0.13137 0.49609 0.0
N622 N 0.422 0.14103 0.43974 0.0
N623 N 0.41276 0.12742 0.44326 0.0
C624 C 0.44626 0.15803 0.47627 0.0
H625 H 0.44704 0.16466 0.43942 0.0
H626 H 0.45573 0.15681 0.47819 0.0
H627 H 0.44593 0.16343 0.51557 0.0
C628 C 0.42433 0.149 0.22237 0.0
N629 N 0.42029 0.15318 0.26944 0.0
N630 N 0.42467 0.14931 0.31413 0.0
C631 C 0.43172 0.14275 0.29725 0.0
C632 C 0.43165 0.14212 0.2385 0.0
C633 C 0.42068 0.15094 0.16329 0.0
H634 H 0.41024 0.15031 0.16263 0.0
H635 H 0.4287 0.16155 0.14806 0.0
H636 H 0.42059 0.1429 0.13429 0.0
O637 O 0.39028 0.14984 0.31483 0.0
O638 O 0.39891 0.14527 0.39161 0.0
H639 H 0.43111 0.12799 0.35811 0.0
H640 H 0.44663 0.1356 0.31395 0.0
C641 C 0.43904 0.13777 0.33662 0.0
H642 H 0.44493 0.14597 0.3689 0.0
H643 H 0.40333 0.12238 0.42051 0.0
O644 O 0.40928 0.17227 0.21074 0.0
C645 C 0.38853 0.14444 0.36428 0.0
Co646 Co 0.85212 0.24956 0.27923 0.0
Co647 Co 0.8668 0.27007 0.38064 0.0
C648 C 0.83703 0.24741 0.39023 0.0
O649 O 0.83742 0.24301 0.34056 0.0
O650 O 0.84758 0.25837 0.41054 0.0
C651 C 0.82994 0.23862 0.19976 0.0
O652 O 0.82542 0.24453 0.23631 0.0
C653 C 0.87323 0.29173 0.4647 0.0
C654 C 0.8961 0.30033 0.4779 0.0
C655 C 0.88486 0.30211 0.49275 0.0
N656 N 0.87743 0.28421 0.43385 0.0
N657 N 0.89104 0.2892 0.44264 0.0
C658 C 0.85871 0.28983 0.46246 0.0
H659 H 0.85369 0.28528 0.42102 0.0
H660 H 0.85903 0.30001 0.46941 0.0
H661 H 0.85222 0.2824 0.49638 0.0
C662 C 0.86363 0.27786 0.21926 0.0
N663 N 0.86145 0.26981 0.26596 0.0
N664 N 0.86733 0.27824 0.30957 0.0
C665 C 0.87337 0.29179 0.29236 0.0
C666 C 0.87115 0.2921 0.23465 0.0
C667 C 0.85835 0.27201 0.16141 0.0
H668 H 0.84675 0.26751 0.16022 0.0
H669 H 0.86317 0.28025 0.1283 0.0
H670 H 0.86058 0.26337 0.15235 0.0
O671 O 0.86551 0.24297 0.30667 0.0
O672 O 0.87548 0.25823 0.37744 0.0
H673 H 0.89027 0.30268 0.35139 0.0
H674 H 0.88785 0.31421 0.30502 0.0
C675 C 0.88224 0.30427 0.32942 0.0
H676 H 0.87545 0.30536 0.36146 0.0
H677 H 0.89695 0.28535 0.42279 0.0
O678 O 0.84181 0.23942 0.20859 0.0
C679 C 0.87411 0.24785 0.34842 0.0
Co680 Co 0.7646 0.60485 0.28031 0.0
Co681 Co 0.74426 0.59604 0.38333 0.0
C682 C 0.76655 0.58939 0.38724 0.0
O683 O 0.77112 0.59616 0.34078 0.0
O684 O 0.75481 0.58693 0.4079 0.0
C685 C 0.77465 0.59347 0.19863 0.0
O686 O 0.76781 0.58274 0.23311 0.0
C687 C 0.722 0.58221 0.46856 0.0
C688 C 0.71431 0.59744 0.47234 0.0
C689 C 0.71167 0.58443 0.49179 0.0
N690 N 0.73021 0.59335 0.43573 0.0
N691 N 0.72578 0.60255 0.43924 0.0
C692 C 0.72305 0.56911 0.47182 0.0
H693 H 0.72868 0.56824 0.43433 0.0
H694 H 0.71241 0.55961 0.47474 0.0
H695 H 0.72907 0.5696 0.51044 0.0
C696 C 0.73634 0.58994 0.21892 0.0
N697 N 0.74446 0.59426 0.2663 0.0
N698 N 0.7361 0.59027 0.31067 0.0
C699 C 0.72254 0.58326 0.29328 0.0
C700 C 0.72213 0.5829 0.23454 0.0
C701 C 0.74209 0.59306 0.15998 0.0
H702 H 0.7517 0.60363 0.1584 0.0
H703 H 0.74508 0.58513 0.14744 0.0
H704 H 0.73411 0.59254 0.12955 0.0
O705 O 0.771 0.6245 0.31061 0.0
O706 O 0.75759 0.61638 0.38711 0.0
H707 H 0.70862 0.58473 0.353 0.0
H708 H 0.70027 0.5691 0.30939 0.0
C709 C 0.7101 0.57647 0.33221 0.0
H710 H 0.712 0.57042 0.36506 0.0
H711 H 0.73017 0.61199 0.41666 0.0
O712 O 0.77476 0.60495 0.20938 0.0
C713 C 0.76721 0.62657 0.3593 0.0
Co714 Co 0.49818 0.07249 0.99148 0.0
Co715 Co 0.48541 0.07918 0.88591 0.0
C716 C 0.51501 0.08582 0.88375 0.0
O717 O 0.5137 0.08055 0.93305 0.0
O718 O 0.50502 0.08683 0.86122 0.0
C719 C 0.51914 0.08414 0.07525 0.0
O720 O 0.52339 0.0947 0.03957 0.0
C721 C 0.47967 0.09423 0.79762 0.0
C722 C 0.45943 0.0772 0.76366 0.0
C723 C 0.46959 0.0912 0.75637 0.0
N724 N 0.47563 0.08248 0.82806 0.0
N725 N 0.46351 0.07236 0.8078 0.0
C726 C 0.49341 0.10763 0.80523 0.0
H727 H 0.49941 0.10679 0.8414 0.0
H728 H 0.49151 0.11652 0.81327 0.0
H729 H 0.49972 0.11002 0.76579 0.0
C730 C 0.48553 0.08887 0.04718 0.0
N731 N 0.48866 0.08343 1.00139 0.0
N732 N 0.48356 0.0863 0.95607 0.0
C733 C 0.47706 0.09353 0.9712 0.0
C734 C 0.47818 0.0956 0.02944 0.0
C735 C 0.48983 0.08792 0.10645 0.0
H736 H 0.48783 0.0771 0.1147 0.0
H737 H 0.5013 0.09531 0.11124 0.0
H738 H 0.48417 0.09076 0.13808 0.0
O739 O 0.48508 0.05256 0.96255 0.0
O740 O 0.4769 0.0587 0.88824 0.0
H741 H 0.46198 0.08809 0.9042 0.0
H742 H 0.46204 0.10054 0.95402 0.0
C743 C 0.46882 0.09729 0.93125 0.0
H744 H 0.47622 0.10607 0.90368 0.0
H745 H 0.45816 0.06208 0.82345 0.0
O746 O 0.50777 0.0727 0.06436 0.0
C747 C 0.4774 0.04931 0.91798 0.0
Co748 Co 0.94061 0.42818 0.9878 0.0
Co749 Co 0.93039 0.40794 0.88414 0.0
C750 C 0.92521 0.4312 0.88275 0.0
O751 O 0.93222 0.43544 0.92892 0.0
O752 O 0.92213 0.41935 0.86125 0.0
C753 C 0.92987 0.43811 0.07179 0.0
O754 O 0.91894 0.43107 0.03832 0.0
C755 C 0.91653 0.38802 0.79118 0.0
C756 C 0.92764 0.3758 0.79546 0.0
C757 C 0.91696 0.37668 0.76792 0.0
N758 N 0.92646 0.39355 0.8316 0.0
N759 N 0.93321 0.38637 0.83335 0.0
C760 C 0.90625 0.39288 0.77854 0.0
H761 H 0.91196 0.40349 0.75883 0.0
H762 H 0.90152 0.39387 0.81865 0.0
H763 H 0.89779 0.38551 0.74942 0.0
C764 C 0.92495 0.39975 0.04794 0.0
N765 N 0.9293 0.40804 1.00113 0.0
N766 N 0.92444 0.39987 0.9563 0.0
C767 C 0.91664 0.38631 0.97271 0.0
C768 C 0.91687 0.38562 0.03133 0.0
C769 C 0.929 0.40518 0.10709 0.0
H770 H 0.93953 0.41486 0.10743 0.0
H771 H 0.92119 0.40793 0.12376 0.0
H772 H 0.92903 0.39706 0.13511 0.0
O773 O 0.95988 0.43377 0.95549 0.0
O774 O 0.95093 0.42029 0.87944 0.0
H775 H 0.91526 0.37031 0.91656 0.0
H776 H 0.89931 0.36538 0.95525 0.0
C777 C 0.90836 0.37421 0.93318 0.0
H778 H 0.90427 0.37765 0.89731 0.0
H779 H 0.94133 0.38843 0.86179 0.0
O780 O 0.94137 0.43841 0.05958 0.0
C781 C 0.96149 0.42965 0.9067 0.0
Co782 Co 0.58565 0.51483 0.98806 0.0
Co783 Co 0.60565 0.52798 0.88469 0.0
C784 C 0.58301 0.49843 0.87936 0.0
O785 O 0.57882 0.49952 0.92858 0.0
O786 O 0.59403 0.50858 0.85776 0.0
C787 C 0.57774 0.49569 0.08121 0.0
O788 O 0.58786 0.49386 0.06054 0.0
C789 C 0.62614 0.53398 0.79516 0.0
C790 C 0.63116 0.55546 0.76986 0.0
C791 C 0.63387 0.5447 0.75716 0.0
N792 N 0.61913 0.53824 0.82894 0.0
N793 N 0.6222 0.55108 0.81387 0.0
C794 C 0.6243 0.51949 0.79628 0.0
H795 H 0.62099 0.5148 0.83912 0.0
H796 H 0.63414 0.51965 0.78386 0.0
H797 H 0.61594 0.51274 0.76555 0.0
C798 C 0.61461 0.5282 0.04693 0.0
N799 N 0.6061 0.52462 1.00066 0.0
N800 N 0.6142 0.52937 0.9555 0.0
C801 C 0.62788 0.53573 0.97103 0.0
C802 C 0.6287 0.53515 0.02949 0.0
C803 C 0.60943 0.52523 0.10674 0.0
H804 H 0.59887 0.52426 0.10994 0.0
H805 H 0.60869 0.5152 0.12063 0.0
H806 H 0.61687 0.53368 0.13562 0.0
O807 O 0.57893 0.52793 0.95919 0.0
O808 O 0.59371 0.53658 0.88657 0.0
H809 H 0.63864 0.5513 0.90699 0.0
H810 H 0.65027 0.54883 0.95306 0.0
C811 C 0.63997 0.54334 0.93089 0.0
H812 H 0.64006 0.53569 0.90028 0.0
H813 H 0.61797 0.55675 0.83296 0.0
O814 O 0.57513 0.50465 0.05805 0.0
C815 C 0.58364 0.53589 0.91566 0.0
Co816 Co 0.60921 0.8496 0.82278 0.0
Co817 Co 0.6023 0.86299 0.71992 0.0
C818 C 0.59542 0.83343 0.71341 0.0
O819 O 0.6008 0.83449 0.76242 0.0
O820 O 0.5944 0.84356 0.69223 0.0
C821 C 0.59765 0.82844 0.9057 0.0
O822 O 0.58689 0.8244 0.87113 0.0
C823 C 0.58775 0.87014 0.63384 0.0
C824 C 0.60231 0.89312 0.62618 0.0
C825 C 0.58939 0.88222 0.60817 0.0
N826 N 0.59911 0.87382 0.66649 0.0
N827 N 0.60792 0.88749 0.66072 0.0
C828 C 0.57495 0.85573 0.6332 0.0
H829 H 0.57451 0.84984 0.67206 0.0
H830 H 0.5652 0.85642 0.62978 0.0
H831 H 0.5755 0.84985 0.59587 0.0
C832 C 0.59365 0.86249 0.88297 0.0
N833 N 0.59855 0.85922 0.83586 0.0
N834 N 0.59533 0.86434 0.79157 0.0
C835 C 0.58828 0.87087 0.80874 0.0
C836 C 0.58704 0.87009 0.86732 0.0
C837 C 0.59595 0.85911 0.942 0.0
H838 H 0.60652 0.8601 0.94558 0.0
H839 H 0.5879 0.84804 0.95174 0.0
H840 H 0.59497 0.86615 0.97329 0.0
O841 O 0.62903 0.86276 0.79408 0.0
O842 O 0.62284 0.87139 0.7214 0.0
H843 H 0.59117 0.88699 0.75007 0.0
H844 H 0.57527 0.8803 0.79167 0.0
C845 C 0.5824 0.87741 0.76957 0.0
H846 H 0.57627 0.86981 0.73572 0.0
H847 H 0.61745 0.89307 0.68256 0.0
O848 O 0.60915 0.83966 0.89419 0.0
C849 C 0.63223 0.87067 0.75037 0.0
Co850 Co 0.16568 0.76071 0.82148 0.0
Co851 Co 0.1487 0.73991 0.72342 0.0
C852 C 0.17876 0.7621 0.70723 0.0
O853 O 0.17984 0.76635 0.7583 0.0
O854 O 0.16736 0.75172 0.68894 0.0
C855 C 0.18863 0.77199 0.89849 0.0
O856 O 0.19305 0.76616 0.86113 0.0
C857 C 0.14104 0.71813 0.63864 0.0
C858 C 0.11799 0.70939 0.63171 0.0
C859 C 0.12902 0.70768 0.61289 0.0
N860 N 0.13728 0.72561 0.67198 0.0
N861 N 0.12355 0.72054 0.66697 0.0
C862 C 0.15561 0.72017 0.63631 0.0
H863 H 0.16121 0.72465 0.67689 0.0
H864 H 0.15529 0.71006 0.62736 0.0
H865 H 0.16156 0.72772 0.60187 0.0
C866 C 0.15427 0.73255 0.88274 0.0
N867 N 0.15592 0.74051 0.83622 0.0
N868 N 0.14924 0.73198 0.79368 0.0
C869 C 0.14327 0.71847 0.81136 0.0
C870 C 0.14631 0.71829 0.86825 0.0
C871 C 0.16043 0.73849 0.93956 0.0
H872 H 0.17199 0.74272 0.93807 0.0
H873 H 0.15586 0.73034 0.97314 0.0
H874 H 0.15861 0.74735 0.94992 0.0
O875 O 0.15263 0.76797 0.79501 0.0
O876 O 0.14021 0.75175 0.72994 0.0
H877 H 0.12878 0.69599 0.80035 0.0
H878 H 0.14005 0.70488 0.74087 0.0
C879 C 0.13383 0.70592 0.77565 0.0
H880 H 0.12535 0.70737 0.75716 0.0
H881 H 0.11792 0.72435 0.68927 0.0
O882 O 0.17665 0.77102 0.89099 0.0
C883 C 0.14295 0.76284 0.75713 0.0
Co884 Co 0.25291 0.40737 0.81695 0.0
Co885 Co 0.2738 0.41394 0.7166 0.0
C886 C 0.25225 0.42201 0.70653 0.0
O887 O 0.24726 0.41636 0.75462 0.0
O888 O 0.26367 0.42312 0.68796 0.0
C889 C 0.24277 0.4192 0.89778 0.0
O890 O 0.24935 0.42982 0.86255 0.0
C891 C 0.2971 0.42776 0.63692 0.0
C892 C 0.30247 0.41096 0.62389 0.0
C893 C 0.30672 0.42486 0.61109 0.0
N894 N 0.28776 0.41614 0.66476 0.0
N895 N 0.29081 0.40604 0.65582 0.0
C896 C 0.29761 0.44165 0.64058 0.0
H897 H 0.29172 0.44198 0.6783 0.0
H898 H 0.30868 0.45044 0.64253 0.0
H899 H 0.29261 0.44306 0.60213 0.0
C900 C 0.28097 0.4227 0.88023 0.0
N901 N 0.2731 0.41743 0.83251 0.0
N902 N 0.28171 0.42014 0.78947 0.0
C903 C 0.29517 0.4271 0.80816 0.0
C904 C 0.29526 0.42918 0.86612 0.0
C905 C 0.27493 0.42195 0.93779 0.0
H906 H 0.26561 0.41134 0.94455 0.0
H907 H 0.2714 0.42983 0.94049 0.0
H908 H 0.28285 0.42426 0.97155 0.0
O909 O 0.24561 0.3873 0.78766 0.0
O910 O 0.26006 0.39391 0.71406 0.0
H911 H 0.31743 0.43408 0.79795 0.0
H912 H 0.30978 0.43974 0.74385 0.0
C913 C 0.30784 0.43089 0.77211 0.0
H914 H 0.30597 0.4217 0.74611 0.0
H915 H 0.28532 0.39601 0.67381 0.0
O916 O 0.2427 0.40774 0.88726 0.0
C917 C 0.24966 0.3844 0.74117 0.0
Co918 Co 0.51799 0.93699 0.11601 0.0
Co919 Co 0.52819 0.92768 0.22165 0.0
C920 C 0.49932 0.92138 0.21939 0.0
O921 O 0.5021 0.92846 0.17352 0.0
O922 O 0.50824 0.91858 0.24129 0.0
C923 C 0.49725 0.926 0.03156 0.0
O924 O 0.49307 0.91521 0.06598 0.0
C925 C 0.53412 0.913 0.31137 0.0
C926 C 0.55434 0.93037 0.34407 0.0
C927 C 0.54426 0.9164 0.35269 0.0
N928 N 0.53801 0.92455 0.27972 0.0
N929 N 0.55013 0.93486 0.29922 0.0
C930 C 0.52041 0.89953 0.30502 0.0
H931 H 0.51304 0.899 0.33849 0.0
H932 H 0.51567 0.89903 0.26289 0.0
H933 H 0.52194 0.89033 0.31041 0.0
C934 C 0.53141 0.92153 0.05889 0.0
N935 N 0.52752 0.92614 0.10511 0.0
N936 N 0.53156 0.92216 0.15055 0.0
C937 C 0.53805 0.91494 0.13517 0.0
C938 C 0.53813 0.91414 0.07645 0.0
C939 C 0.52833 0.9238 0.99932 0.0
H940 H 0.51697 0.9166 0.9905 0.0
H941 H 0.53459 0.9216 0.96827 0.0
H942 H 0.53049 0.93478 0.99428 0.0
O943 O 0.53098 0.95658 0.14824 0.0
O944 O 0.53531 0.94798 0.22558 0.0
H945 H 0.55133 0.90592 0.15426 0.0
H946 H 0.53671 0.90114 0.20187 0.0
C947 C 0.54494 0.90979 0.17605 0.0
H948 H 0.55195 0.91849 0.20492 0.0
H949 H 0.55537 0.94504 0.28257 0.0
O950 O 0.50864 0.93737 0.04312 0.0
C951 C 0.53631 0.95837 0.19793 0.0
Co952 Co 0.07553 0.58211 0.11248 0.0
Co953 Co 0.08327 0.60202 0.21712 0.0
C954 C 0.08916 0.57884 0.22154 0.0
O955 O 0.08355 0.57482 0.17257 0.0
O956 O 0.09079 0.59015 0.24379 0.0
C957 C 0.08738 0.57361 0.02697 0.0
O958 O 0.0982 0.58078 0.06082 0.0
C959 C 0.09612 0.62181 0.3113 0.0
C960 C 0.08459 0.6336 0.3052 0.0
C961 C 0.09525 0.63297 0.33406 0.0
N962 N 0.08645 0.61615 0.26994 0.0
N963 N 0.07943 0.62305 0.26718 0.0
C964 C 0.10666 0.61735 0.32485 0.0
H965 H 0.11113 0.61583 0.28501 0.0
H966 H 0.11528 0.6252 0.35214 0.0
H967 H 0.10124 0.60706 0.34715 0.0
C968 C 0.09163 0.61091 0.05489 0.0
N969 N 0.08665 0.6024 0.10101 0.0
N970 N 0.09058 0.61042 0.14648 0.0
C971 C 0.0984 0.62406 0.13126 0.0
C972 C 0.09917 0.62498 0.07266 0.0
C973 C 0.08859 0.60574 0.99506 0.0
H974 H 0.07813 0.59601 0.99228 0.0
H975 H 0.09674 0.60321 0.98088 0.0
H976 H 0.08889 0.61394 0.96652 0.0
O977 O 0.05579 0.57578 0.14108 0.0
O978 O 0.06269 0.59018 0.21531 0.0
H979 H 0.0982 0.63941 0.18682 0.0
H980 H 0.11483 0.64524 0.15198 0.0
C981 C 0.1057 0.63606 0.17213 0.0
H982 H 0.10956 0.63274 0.20909 0.0
H983 H 0.07146 0.62087 0.23782 0.0
O984 O 0.07558 0.57252 0.04008 0.0
C985 C 0.05297 0.58042 0.18607 0.0
Co986 Co 0.43154 0.49599 0.11073 0.0
Co987 Co 0.41225 0.48404 0.21693 0.0
C988 C 0.43501 0.51327 0.21855 0.0
O989 O 0.43896 0.51148 0.16987 0.0
O990 O 0.42382 0.50365 0.24139 0.0
C991 C 0.44051 0.51683 0.02694 0.0
O992 O 0.43387 0.52083 0.0621 0.0
C993 C 0.39341 0.47767 0.31379 0.0
C994 C 0.38601 0.45494 0.32506 0.0
C995 C 0.38508 0.46613 0.3475 0.0
N996 N 0.39903 0.47344 0.27306 0.0
N997 N 0.39457 0.45988 0.27991 0.0
C998 C 0.39702 0.49265 0.32235 0.0
H999 H 0.39671 0.49735 0.28109 0.0
H1000 H 0.38986 0.49358 0.35299 0.0
H1001 H 0.40795 0.49875 0.3389 0.0
C1002 C 0.40237 0.48271 0.05554 0.0
N1003 N 0.41112 0.48646 0.101 0.0
N1004 N 0.40332 0.48209 0.14696 0.0
C1005 C 0.38956 0.47566 0.13277 0.0
C1006 C 0.38835 0.4756 0.07419 0.0
C1007 C 0.40732 0.48519 0.99543 0.0
H1008 H 0.4171 0.48458 0.99141 0.0
H1009 H 0.40975 0.49592 0.98267 0.0
H1010 H 0.39908 0.4774 0.96662 0.0
O1011 O 0.43835 0.48288 0.13903 0.0
O1012 O 0.42448 0.47578 0.21469 0.0
H1013 H 0.37608 0.45991 0.19205 0.0
H1014 H 0.36783 0.46844 0.15577 0.0
C1015 C 0.37779 0.47008 0.17499 0.0
H1016 H 0.38063 0.47763 0.21057 0.0
H1017 H 0.39754 0.45405 0.25413 0.0
O1018 O 0.44088 0.50563 0.03806 0.0
C1019 C 0.43408 0.47573 0.18482 0.0
Co1020 Co 0.07531 0.49447 0.61389 0.0
Co1021 Co 0.08495 0.48517 0.72097 0.0
C1022 C 0.0906 0.51383 0.716 0.0
O1023 O 0.08343 0.51068 0.67026 0.0
O1024 O 0.09375 0.50523 0.73848 0.0
C1025 C 0.08623 0.51454 0.52762 0.0
O1026 O 0.09704 0.5188 0.56207 0.0
C1027 C 0.10069 0.48063 0.81009 0.0
C1028 C 0.08378 0.46118 0.84962 0.0
C1029 C 0.09789 0.4713 0.85413 0.0
N1030 N 0.0887 0.47624 0.78084 0.0
N1031 N 0.07865 0.4646 0.80443 0.0
C1032 C 0.11409 0.49412 0.79889 0.0
H1033 H 0.11555 0.50192 0.8321 0.0
H1034 H 0.11373 0.49841 0.75672 0.0
H1035 H 0.12326 0.49244 0.80085 0.0
C1036 C 0.09119 0.48126 0.55887 0.0
N1037 N 0.08652 0.48526 0.60455 0.0
N1038 N 0.0905 0.48142 0.65054 0.0
C1039 C 0.09773 0.47489 0.636 0.0
C1040 C 0.09859 0.47462 0.5773 0.0
C1041 C 0.08901 0.48421 0.49898 0.0
H1042 H 0.07799 0.4819 0.49326 0.0
H1043 H 0.09611 0.49558 0.49014 0.0
H1044 H 0.09139 0.47802 0.46827 0.0
O1045 O 0.05582 0.48119 0.64593 0.0
O1046 O 0.06456 0.47767 0.72487 0.0
H1047 H 0.09427 0.46171 0.70828 0.0
H1048 H 0.10591 0.46097 0.65647 0.0
C1049 C 0.10277 0.46804 0.67759 0.0
H1050 H 0.11194 0.47631 0.7012 0.0
H1051 H 0.06822 0.45914 0.79035 0.0
O1052 O 0.07478 0.50333 0.54003 0.0
C1053 C 0.05411 0.47624 0.69623 0.0
Co1054 Co 0.51921 0.58256 0.61131 0.0
Co1055 Co 0.53231 0.60273 0.71494 0.0
C1056 C 0.50291 0.58007 0.72087 0.0
O1057 O 0.50418 0.57587 0.67187 0.0
O1058 O 0.51288 0.59127 0.74263 0.0
C1059 C 0.49821 0.57362 0.52827 0.0
O1060 O 0.49454 0.58064 0.56291 0.0
C1061 C 0.54036 0.62453 0.80222 0.0
C1062 C 0.56338 0.63276 0.80542 0.0
C1063 C 0.55279 0.63494 0.82613 0.0
N1064 N 0.54357 0.61674 0.76792 0.0
N1065 N 0.55727 0.62149 0.77104 0.0
C1066 C 0.52603 0.62303 0.80631 0.0
H1067 H 0.51953 0.61731 0.76893 0.0
H1068 H 0.52685 0.63354 0.80965 0.0
H1069 H 0.52071 0.61693 0.84497 0.0
C1070 C 0.53216 0.61102 0.55189 0.0
N1071 N 0.52882 0.6028 0.59879 0.0
N1072 N 0.53364 0.61107 0.64343 0.0
C1073 C 0.53998 0.62467 0.62673 0.0
C1074 C 0.53947 0.62521 0.56805 0.0
C1075 C 0.52913 0.60542 0.49264 0.0
H1076 H 0.52981 0.59567 0.4897 0.0
H1077 H 0.51826 0.60279 0.48111 0.0
H1078 H 0.53659 0.61338 0.46219 0.0
O1079 O 0.53233 0.57582 0.6394 0.0
O1080 O 0.54052 0.59038 0.71305 0.0
H1081 H 0.55583 0.63848 0.6853 0.0
H1082 H 0.54804 0.64686 0.64489 0.0
C1083 C 0.54589 0.63699 0.66646 0.0
H1084 H 0.53823 0.63493 0.70074 0.0
H1085 H 0.56252 0.61746 0.7475 0.0
O1086 O 0.50916 0.57283 0.53985 0.0
C1087 C 0.54002 0.58039 0.68383 0.0
Co1088 Co 0.43156 0.93855 0.61164 0.0
Co1089 Co 0.41193 0.93334 0.71563 0.0
C1090 C 0.43419 0.92602 0.72462 0.0
O1091 O 0.43826 0.93078 0.6746 0.0
O1092 O 0.42319 0.92534 0.74595 0.0
C1093 C 0.44048 0.92564 0.53104 0.0
O1094 O 0.43415 0.91537 0.56793 0.0
C1095 C 0.39087 0.92323 0.80828 0.0
C1096 C 0.38505 0.93989 0.80475 0.0
C1097 C 0.38209 0.92757 0.83242 0.0
N1098 N 0.39846 0.9325 0.76754 0.0
N1099 N 0.39502 0.94247 0.76609 0.0
C1100 C 0.39248 0.9109 0.82468 0.0
H1101 H 0.38487 0.90149 0.80017 0.0
H1102 H 0.39038 0.90859 0.87056 0.0
H1103 H 0.40324 0.91298 0.81486 0.0
C1104 C 0.40269 0.92227 0.55506 0.0
N1105 N 0.41119 0.92799 0.60084 0.0
N1106 N 0.40317 0.92535 0.64581 0.0
C1107 C 0.38947 0.91779 0.63061 0.0
C1108 C 0.38859 0.91549 0.5725 0.0
C1109 C 0.40799 0.92305 0.49602 0.0
H1110 H 0.4171 0.93371 0.48797 0.0
H1111 H 0.41166 0.91531 0.4915 0.0
H1112 H 0.39962 0.92053 0.46412 0.0
O1113 O 0.43895 0.9589 0.63507 0.0
O1114 O 0.42478 0.95362 0.70922 0.0
H1115 H 0.37794 0.92352 0.68725 0.0
H1116 H 0.36704 0.90738 0.65003 0.0
C1117 C 0.37744 0.91381 0.67059 0.0
H1118 H 0.37835 0.90785 0.70669 0.0
H1119 H 0.39935 0.95096 0.738 0.0
O1120 O 0.44084 0.93727 0.54045 0.0
C1121 C 0.4347 0.96264 0.67868 0.0
Co1122 Co 0.16592 0.40663 0.31906 0.0
Co1123 Co 0.15516 0.41639 0.21669 0.0
C1124 C 0.18389 0.42251 0.21375 0.0
O1125 O 0.18142 0.41552 0.25977 0.0
O1126 O 0.17485 0.42532 0.1932 0.0
C1127 C 0.18362 0.41738 0.41618 0.0
O1128 O 0.18414 0.42904 0.39906 0.0
C1129 C 0.14793 0.43128 0.13188 0.0
C1130 C 0.12493 0.41668 0.12488 0.0
C1131 C 0.13575 0.42965 0.10709 0.0
N1132 N 0.14439 0.41985 0.16385 0.0
N1133 N 0.13071 0.41103 0.15846 0.0
C1134 C 0.16232 0.4441 0.13078 0.0
H1135 H 0.1683 0.44466 0.16954 0.0
H1136 H 0.16159 0.45383 0.1271 0.0
H1137 H 0.16813 0.44348 0.09342 0.0
C1138 C 0.15143 0.42051 0.38141 0.0
N1139 N 0.15611 0.41703 0.33412 0.0
N1140 N 0.1525 0.4218 0.28982 0.0
C1141 C 0.14585 0.42872 0.30725 0.0
C1142 C 0.14477 0.42806 0.36585 0.0
C1143 C 0.15212 0.41566 0.43992 0.0
H1144 H 0.15353 0.40631 0.43833 0.0
H1145 H 0.16115 0.42432 0.46287 0.0
H1146 H 0.14237 0.41306 0.46377 0.0
O1147 O 0.15277 0.38728 0.2866 0.0
O1148 O 0.14775 0.39593 0.21092 0.0
H1149 H 0.13124 0.42848 0.24648 0.0
H1150 H 0.13881 0.44376 0.29209 0.0
C1151 C 0.14099 0.43628 0.26861 0.0
H1152 H 0.14925 0.44232 0.23684 0.0
H1153 H 0.12522 0.40146 0.17999 0.0
O1154 O 0.176 0.40596 0.38904 0.0
C1155 C 0.147 0.38553 0.23786 0.0
Co1156 Co 0.60787 0.76133 0.32234 0.0
Co1157 Co 0.60143 0.74169 0.21731 0.0
C1158 C 0.59474 0.76459 0.21327 0.0
O1159 O 0.59996 0.76866 0.26264 0.0
O1160 O 0.59372 0.75351 0.19132 0.0
C1161 C 0.59656 0.7715 0.4049 0.0
O1162 O 0.58606 0.76567 0.36862 0.0
C1163 C 0.58694 0.7209 0.12811 0.0
C1164 C 0.6042 0.71767 0.09715 0.0
C1165 C 0.59028 0.71389 0.08775 0.0
N1166 N 0.59845 0.72854 0.16005 0.0
N1167 N 0.6087 0.72652 0.1416 0.0
C1168 C 0.57354 0.72133 0.13336 0.0
H1169 H 0.57255 0.72709 0.09658 0.0
H1170 H 0.57348 0.72671 0.17314 0.0
H1171 H 0.56433 0.71049 0.13278 0.0
C1172 C 0.59148 0.73246 0.3784 0.0
N1173 N 0.59692 0.74092 0.33246 0.0
N1174 N 0.59411 0.73287 0.2874 0.0
C1175 C 0.58689 0.71918 0.30282 0.0
C1176 C 0.58481 0.71835 0.36104 0.0
C1177 C 0.59248 0.73784 0.43748 0.0
H1178 H 0.58556 0.74251 0.44128 0.0
H1179 H 0.58913 0.72932 0.46931 0.0
H1180 H 0.60346 0.7463 0.44625 0.0
O1181 O 0.62785 0.76804 0.295 0.0
O1182 O 0.62191 0.75369 0.22081 0.0
H1183 H 0.57964 0.69707 0.28603 0.0
H1184 H 0.5747 0.70593 0.2342 0.0
C1185 C 0.58321 0.70713 0.26315 0.0
H1186 H 0.59255 0.70934 0.2374 0.0
H1187 H 0.61886 0.73141 0.15863 0.0
O1188 O 0.60767 0.77088 0.39482 0.0
C1189 C 0.63122 0.76355 0.25096 0.0
Co1190 Co 0.25205 0.84845 0.32268 0.0
Co1191 Co 0.27277 0.8626 0.22208 0.0
C1192 C 0.25111 0.83331 0.21028 0.0
O1193 O 0.24651 0.83417 0.25906 0.0
O1194 O 0.26239 0.84353 0.19022 0.0
C1195 C 0.24438 0.82904 0.41573 0.0
O1196 O 0.25544 0.82832 0.39893 0.0
C1197 C 0.29379 0.8747 0.12946 0.0
C1198 C 0.30244 0.89734 0.14909 0.0
C1199 C 0.30376 0.8882 0.11235 0.0
N1200 N 0.28709 0.8759 0.17495 0.0
N1201 N 0.29222 0.88943 0.18603 0.0
C1202 C 0.29012 0.86097 0.1019 0.0
H1203 H 0.27868 0.85344 0.10591 0.0
H1204 H 0.2959 0.85638 0.12356 0.0
H1205 H 0.29299 0.86243 0.05633 0.0
C1206 C 0.2806 0.86219 0.38525 0.0
N1207 N 0.27229 0.85857 0.33834 0.0
N1208 N 0.28056 0.86318 0.29377 0.0
C1209 C 0.29415 0.86931 0.31017 0.0
C1210 C 0.29479 0.86919 0.36881 0.0
C1211 C 0.27522 0.86002 0.44473 0.0
H1212 H 0.26441 0.85847 0.4458 0.0
H1213 H 0.27502 0.85055 0.46256 0.0
H1214 H 0.28236 0.86918 0.47154 0.0
O1215 O 0.24475 0.8612 0.29603 0.0
O1216 O 0.2596 0.86979 0.22395 0.0
H1217 H 0.30986 0.88555 0.25814 0.0
H1218 H 0.31536 0.87414 0.28997 0.0
C1219 C 0.30634 0.87449 0.27008 0.0
H1220 H 0.30314 0.86788 0.23129 0.0
H1221 H 0.28881 0.89325 0.21939 0.0
O1222 O 0.24115 0.8373 0.3902 0.0
C1223 C 0.24935 0.86897 0.25203 0.0
H1224 H 0.24202 0.11018 0.76091 0.0
H1225 H 0.27259 0.1478 0.05965 0.0
H1226 H 0.28002 0.11435 0.83454 0.0
H1227 H 0.24591 0.1568 0.95361 0.0
H1228 H 0.2717 0.13118 0.98786 0.0
H1229 H 0.23999 0.12319 0.84106 0.0
C1230 C 0.24991 0.11375 0.79411 0.0
C1231 C 0.26129 0.11125 0.79072 0.0
C1232 C 0.2659 0.13666 0.98076 0.0
C1233 C 0.25889 0.12606 0.88307 0.0
C1234 C 0.26626 0.14604 0.02196 0.0
C1235 C 0.25934 0.15376 0.0126 0.0
C1236 C 0.2584 0.13482 0.93021 0.0
C1237 C 0.25145 0.15113 0.96256 0.0
C1238 C 0.24873 0.12121 0.83981 0.0
C1239 C 0.27116 0.11614 0.83515 0.0
N1240 N 0.25124 0.14193 0.92322 0.0
N1241 N 0.26973 0.12331 0.87953 0.0
H1242 H 0.91956 0.15245 0.83531 0.0
H1243 H 0.84247 0.09573 0.9229 0.0
H1244 H 0.88331 0.15279 0.76552 0.0
H1245 H 0.87328 0.11633 0.05565 0.0
H1246 H 0.85909 0.11256 0.85476 0.0
H1247 H 0.9043 0.13575 0.90853 0.0
C1248 C 0.90841 0.14906 0.83563 0.0
C1249 C 0.90266 0.15402 0.79451 0.0
C1250 C 0.86224 0.11327 0.89872 0.0
C1251 C 0.88524 0.1347 0.87648 0.0
C1252 C 0.85283 0.10359 0.93769 0.0
C1253 C 0.85645 0.1046 0.99537 0.0
C1254 C 0.87553 0.12388 0.91696 0.0
C1255 C 0.87005 0.11516 0.01169 0.0
C1256 C 0.89977 0.13959 0.87732 0.0
C1257 C 0.88817 0.14931 0.7967 0.0
N1258 N 0.87915 0.1244 0.97258 0.0
N1259 N 0.87992 0.13974 0.83644 0.0
H1260 H 0.84527 0.732 0.82836 0.0
H1261 H 0.92266 0.7705 0.95652 0.0
H1262 H 0.87828 0.77218 0.76716 0.0
H1263 H 0.88681 0.7402 0.05309 0.0
H1264 H 0.90658 0.77105 0.88596 0.0
H1265 H 0.86026 0.73414 0.9097 0.0
C1266 C 0.85563 0.74127 0.83206 0.0
C1267 C 0.86054 0.75188 0.79067 0.0
C1268 C 0.90221 0.76445 0.92303 0.0
C1269 C 0.87773 0.75437 0.88329 0.0
C1270 C 0.91139 0.76418 0.96346 0.0
C1271 C 0.90608 0.75532 0.01088 0.0
C1272 C 0.88759 0.75556 0.92923 0.0
C1273 C 0.89136 0.74728 0.01744 0.0
C1274 C 0.86414 0.74252 0.87862 0.0
C1275 C 0.87403 0.76371 0.79788 0.0
N1276 N 0.88263 0.7474 0.97658 0.0
N1277 N 0.88218 0.76456 0.84284 0.0
H1278 H 0.09489 0.24443 0.75447 0.0
H1279 H 0.16646 0.25009 0.67312 0.0
H1280 H 0.13339 0.27452 0.83788 0.0
H1281 H 0.14311 0.255 0.53591 0.0
H1282 H 0.15047 0.25165 0.7406 0.0
H1283 H 0.10898 0.24186 0.67872 0.0
C1284 C 0.1063 0.25056 0.75655 0.0
C1285 C 0.11303 0.25974 0.80228 0.0
C1286 C 0.14877 0.25218 0.69564 0.0
C1287 C 0.129 0.25648 0.71744 0.0
C1288 C 0.15779 0.25115 0.65684 0.0
C1289 C 0.15623 0.2525 0.59837 0.0
C1290 C 0.13783 0.2542 0.67619 0.0
C1291 C 0.14475 0.25394 0.58047 0.0
C1292 C 0.11426 0.2491 0.71344 0.0
C1293 C 0.12781 0.26742 0.80315 0.0
N1294 N 0.13593 0.25475 0.61933 0.0
N1295 N 0.13531 0.26543 0.76188 0.0
H1296 H 0.73538 0.84279 0.77129 0.0
H1297 H 0.77421 0.92056 0.64614 0.0
H1298 H 0.77421 0.87647 0.84021 0.0
H1299 H 0.74415 0.88472 0.54843 0.0
H1300 H 0.77444 0.9045 0.71738 0.0
H1301 H 0.73801 0.85784 0.68971 0.0
C1302 C 0.74446 0.85331 0.76925 0.0
C1303 C 0.75454 0.85839 0.81289 0.0
C1304 C 0.76796 0.90012 0.67995 0.0
C1305 C 0.7576 0.87565 0.71986 0.0
C1306 C 0.76787 0.9093 0.63913 0.0
C1307 C 0.75915 0.90399 0.59123 0.0
C1308 C 0.75904 0.8855 0.67357 0.0
C1309 C 0.75111 0.88928 0.5845 0.0
C1310 C 0.746 0.86186 0.72254 0.0
C1311 C 0.76614 0.87209 0.80776 0.0
N1312 N 0.75106 0.88055 0.62568 0.0
N1313 N 0.76728 0.88026 0.76249 0.0
H1314 H 0.15569 0.91624 0.76374 0.0
H1315 H 0.09619 0.8403 0.67686 0.0
H1316 H 0.15283 0.87909 0.83974 0.0
H1317 H 0.12018 0.86921 0.54266 0.0
H1318 H 0.11275 0.85689 0.74592 0.0
H1319 H 0.13907 0.90128 0.68938 0.0
C1320 C 0.15158 0.90495 0.76464 0.0
C1321 C 0.15563 0.89885 0.80776 0.0
C1322 C 0.11426 0.85964 0.70138 0.0
C1323 C 0.13646 0.88184 0.72446 0.0
C1324 C 0.10475 0.85026 0.6618 0.0
C1325 C 0.10681 0.85331 0.60354 0.0
C1326 C 0.12575 0.87236 0.68306 0.0
C1327 C 0.11821 0.86641 0.58703 0.0
C1328 C 0.14218 0.89649 0.72229 0.0
C1329 C 0.15005 0.8842 0.80705 0.0
N1330 N 0.12728 0.87551 0.6267 0.0
N1331 N 0.14058 0.87616 0.76656 0.0
H1332 H 0.77565 0.90071 0.34221 0.0
H1333 H 0.74457 0.8625 0.04486 0.0
H1334 H 0.73761 0.89659 0.2692 0.0
H1335 H 0.77133 0.85367 0.15108 0.0
H1336 H 0.74554 0.87927 0.11623 0.0
H1337 H 0.77749 0.8875 0.26241 0.0
C1338 C 0.76771 0.89711 0.30921 0.0
C1339 C 0.75639 0.89969 0.3127 0.0
C1340 C 0.75134 0.87378 0.12346 0.0
C1341 C 0.75854 0.88462 0.22074 0.0
C1342 C 0.75092 0.86432 0.08252 0.0
C1343 C 0.75785 0.85662 0.09205 0.0
C1344 C 0.75891 0.87572 0.1739 0.0
C1345 C 0.76578 0.85932 0.14202 0.0
C1346 C 0.76877 0.88954 0.2637 0.0
C1347 C 0.74645 0.89475 0.2685 0.0
N1348 N 0.76605 0.8686 0.18108 0.0
N1349 N 0.74776 0.88745 0.22431 0.0
H1350 H 0.16157 0.92169 0.15593 0.0
H1351 H 0.11865 0.84347 0.2757 0.0
H1352 H 0.15186 0.88533 0.05298 0.0
H1353 H 0.11626 0.87823 0.35022 0.0
H1354 H 0.13157 0.85864 0.19516 0.0
H1355 H 0.14537 0.90603 0.22845 0.0
C1356 C 0.15584 0.91043 0.1481 0.0
C1357 C 0.15809 0.90484 0.0982 0.0
C1358 C 0.12812 0.8629 0.22902 0.0
C1359 C 0.13979 0.8868 0.1819 0.0
C1360 C 0.12083 0.85427 0.27514 0.0
C1361 C 0.11642 0.8596 0.31996 0.0
C1362 C 0.13121 0.87701 0.22811 0.0
C1363 C 0.11945 0.87366 0.31672 0.0
C1364 C 0.14662 0.90148 0.18964 0.0
C1365 C 0.15039 0.89013 0.09058 0.0
N1366 N 0.12675 0.88189 0.27197 0.0
N1367 N 0.14177 0.88161 0.13233 0.0
H1368 H 0.17033 0.27653 0.27703 0.0
H1369 H 0.09346 0.23633 0.14097 0.0
H1370 H 0.13697 0.23663 0.33888 0.0
H1371 H 0.12931 0.26914 0.05232 0.0
H1372 H 0.10938 0.23603 0.21279 0.0
H1373 H 0.15567 0.27422 0.19437 0.0
C1374 C 0.15996 0.26728 0.27322 0.0
C1375 C 0.15487 0.25681 0.31525 0.0
C1376 C 0.11382 0.24314 0.17718 0.0
C1377 C 0.13803 0.2541 0.22084 0.0
C1378 C 0.10471 0.24327 0.13593 0.0
C1379 C 0.11003 0.25277 0.09042 0.0
C1380 C 0.12836 0.25278 0.1737 0.0
C1381 C 0.12473 0.26157 0.08641 0.0
C1382 C 0.15163 0.26593 0.22588 0.0
C1383 C 0.14136 0.245 0.30778 0.0
N1384 N 0.13336 0.26152 0.12798 0.0
N1385 N 0.1334 0.24404 0.26192 0.0
H1386 H 0.89855 0.7328 0.32987 0.0
H1387 H 0.86315 0.77438 0.46332 0.0
H1388 H 0.9062 0.77309 0.26771 0.0
H1389 H 0.86516 0.74108 0.55282 0.0
H1390 H 0.87949 0.77443 0.39275 0.0
H1391 H 0.88646 0.73555 0.41236 0.0
C1392 C 0.89774 0.74223 0.33362 0.0
C1393 C 0.90332 0.75268 0.29152 0.0
C1394 C 0.87656 0.76726 0.4283 0.0
C1395 C 0.88949 0.75588 0.38567 0.0
C1396 C 0.86727 0.76728 0.4688 0.0
C1397 C 0.86274 0.7577 0.51408 0.0
C1398 C 0.88119 0.75741 0.43232 0.0
C1399 C 0.86841 0.7487 0.51881 0.0
C1400 C 0.8909 0.74383 0.38085 0.0
C1401 C 0.90203 0.76472 0.29887 0.0
N1402 N 0.87714 0.74861 0.47791 0.0
N1403 N 0.89516 0.76592 0.3446 0.0
H1404 H 0.27195 0.125 0.55918 0.0
H1405 H 0.24185 0.13378 0.2623 0.0
H1406 H 0.2427 0.08983 0.45623 0.0
H1407 H 0.28088 0.1663 0.33461 0.0
H1408 H 0.23904 0.11857 0.34268 0.0
H1409 H 0.27193 0.14118 0.48764 0.0
C1410 C 0.26525 0.12065 0.52228 0.0
C1411 C 0.25735 0.10599 0.51369 0.0
C1412 C 0.24819 0.12905 0.34111 0.0
C1413 C 0.25741 0.12451 0.43142 0.0
C1414 C 0.24981 0.13777 0.29523 0.0
C1415 C 0.26169 0.15133 0.29139 0.0
C1416 C 0.25842 0.13393 0.38409 0.0
C1417 C 0.27163 0.15589 0.33555 0.0
C1418 C 0.26538 0.12992 0.48118 0.0
C1419 C 0.24899 0.10103 0.46463 0.0
N1420 N 0.26977 0.14721 0.38009 0.0
N1421 N 0.2493 0.11026 0.42529 0.0
H1422 H 0.84731 0.1154 0.32519 0.0
H1423 H 0.92476 0.15566 0.4554 0.0
H1424 H 0.88236 0.1131 0.25341 0.0
H1425 H 0.88815 0.14853 0.55066 0.0
H1426 H 0.90928 0.1396 0.38215 0.0
H1427 H 0.86189 0.12748 0.40831 0.0
C1428 C 0.85805 0.11742 0.32689 0.0
C1429 C 0.86364 0.11331 0.28199 0.0
C1430 C 0.9046 0.14135 0.41947 0.0
C1431 C 0.88037 0.12711 0.37696 0.0
C1432 C 0.91345 0.15048 0.46148 0.0
C1433 C 0.90776 0.15347 0.50928 0.0
C1434 C 0.88991 0.13533 0.42456 0.0
C1435 C 0.893 0.14647 0.51473 0.0
C1436 C 0.86634 0.12423 0.3745 0.0
C1437 C 0.8776 0.1161 0.2868 0.0
N1438 N 0.88459 0.13792 0.47243 0.0
N1439 N 0.88549 0.12291 0.33307 0.0
H1440 H 0.90922 0.44455 0.09221 0.0
H1441 H 0.94018 0.48327 0.38849 0.0
H1442 H 0.94778 0.44954 0.16348 0.0
H1443 H 0.91349 0.49201 0.28146 0.0
H1444 H 0.93958 0.46674 0.31683 0.0
H1445 H 0.9075 0.45801 0.17123 0.0
C1446 C 0.91731 0.4484 0.12466 0.0
C1447 C 0.92873 0.44597 0.12094 0.0
C1448 C 0.93373 0.47216 0.30946 0.0
C1449 C 0.92669 0.46132 0.2121 0.0
C1450 C 0.93392 0.48148 0.35057 0.0
C1451 C 0.92688 0.48907 0.34099 0.0
C1452 C 0.92625 0.47023 0.25879 0.0
C1453 C 0.9191 0.48643 0.29064 0.0
C1454 C 0.91631 0.45612 0.16972 0.0
C1455 C 0.93886 0.45126 0.16439 0.0
N1456 N 0.91901 0.47726 0.25146 0.0
N1457 N 0.93759 0.45867 0.20827 0.0
H1458 H 0.50814 0.42899 0.25683 0.0
H1459 H 0.58561 0.4847 0.16868 0.0
H1460 H 0.53928 0.44892 0.38898 0.0
H1461 H 0.5497 0.48576 0.09931 0.0
H1462 H 0.5702 0.46809 0.24182 0.0
H1463 H 0.52487 0.44569 0.1886 0.0
C1464 C 0.51859 0.43668 0.27145 0.0
C1465 C 0.52228 0.43754 0.32899 0.0
C1466 C 0.56578 0.47206 0.21071 0.0
C1467 C 0.54148 0.45667 0.2505 0.0
C1468 C 0.57451 0.48149 0.16906 0.0
C1469 C 0.5689 0.48662 0.12808 0.0
C1470 C 0.5513 0.46741 0.20999 0.0
C1471 C 0.55446 0.48214 0.13037 0.0
C1472 C 0.52807 0.44629 0.23245 0.0
C1473 C 0.53599 0.44787 0.34513 0.0
N1474 N 0.54611 0.47261 0.17008 0.0
N1475 N 0.54515 0.45703 0.30598 0.0
H1476 H 0.51245 0.06627 0.16687 0.0
H1477 H 0.59022 0.10619 0.2932 0.0
H1478 H 0.54561 0.10562 0.09976 0.0
H1479 H 0.55464 0.07505 0.38868 0.0
H1480 H 0.57396 0.10634 0.22257 0.0
H1481 H 0.5276 0.06903 0.24835 0.0
C1482 C 0.52288 0.0755 0.16931 0.0
C1483 C 0.52778 0.08568 0.12617 0.0
C1484 C 0.56969 0.09963 0.25942 0.0
C1485 C 0.54517 0.08888 0.21908 0.0
C1486 C 0.57898 0.0996 0.29994 0.0
C1487 C 0.57382 0.09059 0.347 0.0
C1488 C 0.55511 0.09039 0.26524 0.0
C1489 C 0.55911 0.08222 0.35327 0.0
C1490 C 0.53149 0.0771 0.21595 0.0
C1491 C 0.54136 0.09746 0.13181 0.0
N1492 N 0.55029 0.08215 0.3124 0.0
N1493 N 0.5496 0.09867 0.17698 0.0
H1494 H 0.78176 0.57319 0.18102 0.0
H1495 H 0.81854 0.60231 0.88058 0.0
H1496 H 0.78525 0.61062 0.10475 0.0
H1497 H 0.82899 0.57737 0.99058 0.0
H1498 H 0.80212 0.60173 0.95253 0.0
H1499 H 0.79513 0.57123 0.10215 0.0
C1500 C 0.78527 0.58097 0.14751 0.0
C1501 C 0.78244 0.59215 0.14975 0.0
C1502 C 0.80789 0.59625 0.96051 0.0
C1503 C 0.79766 0.58984 0.05882 0.0
C1504 C 0.81716 0.59644 0.91926 0.0
C1505 C 0.8252 0.5899 0.92955 0.0
C1506 C 0.80647 0.58929 0.01208 0.0
C1507 C 0.82306 0.5826 0.98084 0.0
C1508 C 0.79293 0.57985 0.10256 0.0
C1509 C 0.78728 0.6019 0.105 0.0
N1510 N 0.81393 0.58252 0.02017 0.0
N1511 N 0.79464 0.60051 0.06127 0.0
H1512 H 0.40228 0.17648 0.10818 0.0
H1513 H 0.44114 0.25382 0.98043 0.0
H1514 H 0.44242 0.20939 0.17067 0.0
H1515 H 0.41086 0.21794 0.8835 0.0
H1516 H 0.44159 0.23776 0.05127 0.0
H1517 H 0.40459 0.19148 0.02683 0.0
C1518 C 0.41158 0.18682 0.10476 0.0
C1519 C 0.42213 0.1917 0.14651 0.0
C1520 C 0.43501 0.23338 0.01406 0.0
C1521 C 0.42481 0.20891 0.05385 0.0
C1522 C 0.4348 0.24255 0.97348 0.0
C1523 C 0.42597 0.23723 0.9259 0.0
C1524 C 0.42609 0.21876 0.0078 0.0
C1525 C 0.41791 0.22251 0.91929 0.0
C1526 C 0.41293 0.19534 0.05819 0.0
C1527 C 0.434 0.20517 0.13966 0.0
N1528 N 0.41798 0.21379 0.96027 0.0
N1529 N 0.43494 0.21334 0.09466 0.0
H1530 H 0.75879 0.18543 0.98792 0.0
H1531 H 0.8373 0.22919 0.10447 0.0
H1532 H 0.7949 0.19547 0.88311 0.0
H1533 H 0.80239 0.23085 0.18132 0.0
H1534 H 0.82201 0.21624 0.02404 0.0
H1535 H 0.77457 0.20181 0.05985 0.0
C1536 C 0.77002 0.19127 0.97957 0.0
C1537 C 0.77551 0.18904 0.92935 0.0
C1538 C 0.81775 0.21954 0.05839 0.0
C1539 C 0.7937 0.20756 0.01233 0.0
C1540 C 0.82645 0.22685 0.10442 0.0
C1541 C 0.82111 0.23105 0.14988 0.0
C1542 C 0.80357 0.21623 0.05823 0.0
C1543 C 0.80697 0.22782 0.14733 0.0
C1544 C 0.77903 0.20059 0.02076 0.0
C1545 C 0.79018 0.19689 0.92101 0.0
N1546 N 0.79869 0.22051 0.10265 0.0
N1547 N 0.79878 0.20563 0.96245 0.0
H1548 H 0.41273 0.19692 0.37947 0.0
H1549 H 0.44438 0.23738 0.67263 0.0
H1550 H 0.44359 0.19268 0.47827 0.0
H1551 H 0.40448 0.22957 0.60485 0.0
H1552 H 0.44714 0.22514 0.59141 0.0
H1553 H 0.41292 0.21333 0.4506 0.0
C1554 C 0.41982 0.19971 0.4153 0.0
C1555 C 0.42812 0.19333 0.42296 0.0
C1556 C 0.43781 0.22616 0.59414 0.0
C1557 C 0.42824 0.21201 0.50477 0.0
C1558 C 0.43622 0.23317 0.6405 0.0
C1559 C 0.4241 0.23441 0.64591 0.0
C1560 C 0.42731 0.22045 0.55227 0.0
C1561 C 0.41392 0.22875 0.60271 0.0
C1562 C 0.41979 0.20896 0.4562 0.0
C1563 C 0.43698 0.19727 0.47066 0.0
N1564 N 0.41574 0.222 0.55771 0.0
N1565 N 0.43675 0.20628 0.50984 0.0
H1566 H 0.78414 0.17707 0.6034 0.0
H1567 H 0.82916 0.25537 0.48725 0.0
H1568 H 0.78347 0.21245 0.68098 0.0
H1569 H 0.8183 0.21903 0.38235 0.0
H1570 H 0.81261 0.23985 0.5591 0.0
H1571 H 0.79713 0.19218 0.52289 0.0
C1572 C 0.78669 0.18799 0.60348 0.0
C1573 C 0.78277 0.19351 0.6492 0.0
C1574 C 0.81369 0.23528 0.52002 0.0
C1575 C 0.79765 0.21085 0.5574 0.0
C1576 C 0.82311 0.24415 0.47889 0.0
C1577 C 0.82515 0.23851 0.42868 0.0
C1578 C 0.80642 0.22061 0.51153 0.0
C1579 C 0.81703 0.22385 0.42026 0.0
C1580 C 0.79403 0.19658 0.55739 0.0
C1581 C 0.78628 0.20772 0.64679 0.0
N1582 N 0.80819 0.21539 0.46164 0.0
N1583 N 0.79362 0.21592 0.60203 0.0
H1584 H 0.80254 0.57105 0.67818 0.0
H1585 H 0.79529 0.60136 0.37913 0.0
H1586 H 0.83601 0.60913 0.60396 0.0
H1587 H 0.7597 0.57198 0.4795 0.0
H1588 H 0.81117 0.60092 0.45119 0.0
H1589 H 0.78764 0.56828 0.59657 0.0
C1590 C 0.8068 0.57881 0.64459 0.0
C1591 C 0.82053 0.59043 0.64825 0.0
C1592 C 0.79988 0.59442 0.45697 0.0
C1593 C 0.80349 0.58721 0.55421 0.0
C1594 C 0.79079 0.59454 0.41556 0.0
C1595 C 0.7761 0.58675 0.42336 0.0
C1596 C 0.79427 0.58634 0.50625 0.0
C1597 C 0.77093 0.57821 0.47179 0.0
C1598 C 0.79826 0.57721 0.59799 0.0
C1599 C 0.82546 0.6001 0.60321 0.0
N1600 N 0.77999 0.57831 0.51149 0.0
N1601 N 0.81694 0.59828 0.55808 0.0
H1602 H 0.53218 0.07432 0.89293 0.0
H1603 H 0.57106 0.10584 0.59744 0.0
H1604 H 0.52508 0.10281 0.79042 0.0
H1605 H 0.56508 0.06669 0.66602 0.0
H1606 H 0.55839 0.10803 0.67836 0.0
H1607 H 0.54871 0.07495 0.82118 0.0
C1608 C 0.53436 0.08099 0.85611 0.0
C1609 C 0.5272 0.0885 0.84762 0.0
C1610 C 0.5599 0.09899 0.67586 0.0
C1611 C 0.54599 0.08916 0.76532 0.0
C1612 C 0.56716 0.09773 0.62969 0.0
C1613 C 0.56905 0.08599 0.62462 0.0
C1614 C 0.55461 0.08855 0.71792 0.0
C1615 C 0.56375 0.07584 0.66792 0.0
C1616 C 0.54367 0.08121 0.81491 0.0
C1617 C 0.53032 0.09682 0.79866 0.0
N1618 N 0.55677 0.07735 0.71279 0.0
N1619 N 0.53943 0.09688 0.75932 0.0
H1620 H 0.93884 0.46007 0.89005 0.0
H1621 H 0.90705 0.46878 0.59715 0.0
H1622 H 0.90697 0.42508 0.79371 0.0
H1623 H 0.94704 0.50074 0.66481 0.0
H1624 H 0.90413 0.45391 0.67891 0.0
H1625 H 0.9388 0.4763 0.81876 0.0
C1626 C 0.93157 0.4558 0.85474 0.0
C1627 C 0.92295 0.44116 0.84774 0.0
C1628 C 0.91351 0.4642 0.67603 0.0
C1629 C 0.92299 0.4597 0.76575 0.0
C1630 C 0.9152 0.47273 0.62935 0.0
C1631 C 0.92739 0.48601 0.62377 0.0
C1632 C 0.924 0.469 0.71798 0.0
C1633 C 0.93755 0.49053 0.66707 0.0
C1634 C 0.93168 0.46508 0.81374 0.0
C1635 C 0.91385 0.43627 0.80073 0.0
N1636 N 0.93564 0.48204 0.71232 0.0
N1637 N 0.91418 0.4455 0.76141 0.0
H1638 H 0.54875 0.44585 0.58282 0.0
H1639 H 0.55438 0.48078 0.88718 0.0
H1640 H 0.51417 0.44812 0.65976 0.0
H1641 H 0.5904 0.48914 0.78484 0.0
H1642 H 0.53884 0.46468 0.81353 0.0
H1643 H 0.56338 0.45794 0.66503 0.0
C1644 C 0.54419 0.44884 0.6171 0.0
C1645 C 0.53021 0.44606 0.61405 0.0
C1646 C 0.55015 0.46989 0.80766 0.0
C1647 C 0.54697 0.45984 0.70888 0.0
C1648 C 0.55905 0.47896 0.84997 0.0
C1649 C 0.57374 0.48638 0.84211 0.0
C1650 C 0.55599 0.4681 0.75749 0.0
C1651 C 0.57915 0.48371 0.79262 0.0
C1652 C 0.55258 0.45576 0.66408 0.0
C1653 C 0.52492 0.45016 0.66002 0.0
N1654 N 0.57029 0.47487 0.75215 0.0
N1655 N 0.5333 0.45686 0.70554 0.0
H1656 H 0.57842 0.82402 0.61973 0.0
H1657 H 0.61403 0.78148 0.49828 0.0
H1658 H 0.6065 0.81586 0.72029 0.0
H1659 H 0.57631 0.77846 0.42689 0.0
H1660 H 0.61195 0.79445 0.57928 0.0
H1661 H 0.57757 0.80738 0.54849 0.0
C1662 C 0.5842 0.81852 0.62735 0.0
C1663 C 0.59254 0.82135 0.67612 0.0
C1664 C 0.60408 0.79083 0.54603 0.0
C1665 C 0.59193 0.80255 0.5938 0.0
C1666 C 0.60531 0.7835 0.49967 0.0
C1667 C 0.59538 0.77893 0.4555 0.0
C1668 C 0.59297 0.79379 0.54783 0.0
C1669 C 0.58424 0.78178 0.45979 0.0
C1670 C 0.58375 0.80906 0.58653 0.0
C1671 C 0.59986 0.81395 0.68354 0.0
N1672 N 0.58342 0.78912 0.50472 0.0
N1673 N 0.59957 0.80506 0.6424 0.0
H1674 H 0.20661 0.78221 0.72676 0.0
H1675 H 0.21606 0.81819 0.42921 0.0
H1676 H 0.1761 0.76222 0.59254 0.0
H1677 H 0.25199 0.81838 0.50538 0.0
H1678 H 0.20083 0.80121 0.501 0.0
H1679 H 0.22343 0.79872 0.65659 0.0
C1680 C 0.20352 0.78116 0.68263 0.0
C1681 C 0.18992 0.77078 0.66558 0.0
C1682 C 0.21207 0.80504 0.50202 0.0
C1683 C 0.20883 0.78986 0.58618 0.0
C1684 C 0.22076 0.81478 0.46143 0.0
C1685 C 0.23528 0.81963 0.46131 0.0
C1686 C 0.21798 0.80041 0.54367 0.0
C1687 C 0.24081 0.8148 0.50387 0.0
C1688 C 0.21308 0.79058 0.64282 0.0
C1689 C 0.18646 0.76997 0.60778 0.0
N1690 N 0.23216 0.80551 0.54376 0.0
N1691 N 0.19574 0.77952 0.57045 0.0
H1692 H 0.25493 0.42444 0.59166 0.0
H1693 H 0.19057 0.4337 0.51154 0.0
H1694 H 0.22858 0.42422 0.72833 0.0
H1695 H 0.19763 0.40274 0.42787 0.0
H1696 H 0.20749 0.43612 0.58584 0.0
H1697 H 0.23757 0.42322 0.52371 0.0
C1698 C 0.24567 0.42449 0.60757 0.0
C1699 C 0.24322 0.42438 0.66612 0.0
C1700 C 0.20521 0.42874 0.55135 0.0
C1701 C 0.22333 0.42303 0.58789 0.0
C1702 C 0.19562 0.42736 0.50908 0.0
C1703 C 0.19269 0.41796 0.46374 0.0
C1704 C 0.21225 0.42105 0.54691 0.0
C1705 C 0.19951 0.41 0.46235 0.0
C1706 C 0.23571 0.42363 0.56859 0.0
C1707 C 0.2309 0.4243 0.6837 0.0
N1708 N 0.20916 0.4119 0.50283 0.0
N1709 N 0.22138 0.42365 0.64466 0.0
H1710 H 0.48369 0.93461 0.21182 0.0
H1711 H 0.44463 0.90354 0.50763 0.0
H1712 H 0.48736 0.90309 0.30813 0.0
H1713 H 0.45134 0.94283 0.43753 0.0
H1714 H 0.45625 0.90043 0.42514 0.0
H1715 H 0.46745 0.93449 0.28349 0.0
C1716 C 0.4808 0.92738 0.24717 0.0
C1717 C 0.48699 0.9189 0.25409 0.0
C1718 C 0.45513 0.9097 0.42763 0.0
C1719 C 0.46854 0.91887 0.33657 0.0
C1720 C 0.44848 0.9115 0.47476 0.0
C1721 C 0.44712 0.92355 0.47988 0.0
C1722 C 0.46037 0.91995 0.38478 0.0
C1723 C 0.45228 0.93345 0.43566 0.0
C1724 C 0.47165 0.92745 0.2884 0.0
C1725 C 0.48292 0.90986 0.30116 0.0
N1726 N 0.45871 0.93145 0.39002 0.0
N1727 N 0.47405 0.91017 0.34074 0.0
H1728 H 0.06777 0.50783 0.43773 0.0
H1729 H 0.1069 0.58557 0.31241 0.0
H1730 H 0.10761 0.5409 0.50187 0.0
H1731 H 0.07624 0.55 0.21513 0.0
H1732 H 0.10714 0.56931 0.38269 0.0
H1733 H 0.07008 0.52297 0.35679 0.0
C1734 C 0.077 0.51822 0.43474 0.0
C1735 C 0.08747 0.52311 0.47688 0.0
C1736 C 0.10051 0.56503 0.34555 0.0
C1737 C 0.09015 0.54048 0.38472 0.0
C1738 C 0.10042 0.57432 0.30527 0.0
C1739 C 0.09156 0.56916 0.25771 0.0
C1740 C 0.09145 0.55044 0.33904 0.0
C1741 C 0.08332 0.55446 0.2509 0.0
C1742 C 0.07836 0.52683 0.38843 0.0
C1743 C 0.09925 0.53666 0.4706 0.0
N1744 N 0.08329 0.54561 0.29158 0.0
N1745 N 0.1002 0.54489 0.42584 0.0
H1746 H 0.47194 0.56927 0.50435 0.0
H1747 H 0.46376 0.5295 0.20995 0.0
H1748 H 0.5044 0.56201 0.43664 0.0
H1749 H 0.42849 0.5244 0.30977 0.0
H1750 H 0.47988 0.54591 0.2815 0.0
H1751 H 0.45707 0.55701 0.42287 0.0
C1752 C 0.47599 0.56517 0.47219 0.0
C1753 C 0.48942 0.56657 0.47767 0.0
C1754 C 0.46861 0.54135 0.28722 0.0
C1755 C 0.47241 0.5526 0.38375 0.0
C1756 C 0.4594 0.53211 0.24611 0.0
C1757 C 0.44474 0.52551 0.254 0.0
C1758 C 0.46312 0.54415 0.33613 0.0
C1759 C 0.43971 0.52917 0.30209 0.0
C1760 C 0.46747 0.55815 0.42568 0.0
C1761 C 0.49408 0.56105 0.43443 0.0
N1762 N 0.44887 0.53818 0.34141 0.0
N1763 N 0.48558 0.55429 0.38927 0.0
H1764 H 0.076 0.52815 0.71073 0.0
H1765 H 0.11001 0.57086 0.99777 0.0
H1766 H 0.10975 0.52713 0.80114 0.0
H1767 H 0.06872 0.56086 0.93849 0.0
H1768 H 0.11256 0.55891 0.91516 0.0
H1769 H 0.0761 0.54451 0.78206 0.0
C1770 C 0.0837 0.53166 0.74463 0.0
C1771 C 0.09286 0.5262 0.75003 0.0
C1772 C 0.10297 0.55938 0.92003 0.0
C1773 C 0.09288 0.54477 0.83208 0.0
C1774 C 0.10148 0.56621 0.96724 0.0
C1775 C 0.08906 0.56677 0.97548 0.0
C1776 C 0.09201 0.55311 0.88017 0.0
C1777 C 0.07842 0.56058 0.93417 0.0
C1778 C 0.08362 0.54086 0.78569 0.0
C1779 C 0.10247 0.53101 0.79535 0.0
N1780 N 0.08013 0.55398 0.88833 0.0
N1781 N 0.10217 0.53994 0.83473 0.0
H1782 H 0.44644 0.54376 0.00618 0.0
H1783 H 0.48527 0.55153 0.71023 0.0
H1784 H 0.45154 0.51032 0.93417 0.0
H1785 H 0.49335 0.58695 0.81627 0.0
H1786 H 0.46857 0.53559 0.78117 0.0
H1787 H 0.45954 0.55888 0.9266 0.0
C1788 C 0.45023 0.53954 0.97344 0.0
C1789 C 0.44796 0.52575 0.97716 0.0
C1790 C 0.47387 0.54686 0.78845 0.0
C1791 C 0.4629 0.54306 0.88542 0.0
C1792 C 0.48329 0.55599 0.74773 0.0
C1793 C 0.49078 0.57063 0.75734 0.0
C1794 C 0.47174 0.55241 0.83875 0.0
C1795 C 0.48787 0.57576 0.80712 0.0
C1796 C 0.45774 0.54822 0.92805 0.0
C1797 C 0.45314 0.5209 0.93329 0.0
N1798 N 0.47863 0.56667 0.84597 0.0
N1799 N 0.46037 0.52955 0.88919 0.0
H1800 H 0.47005 0.90563 0.01139 0.0
H1801 H 0.46267 0.93642 0.71429 0.0
H1802 H 0.50401 0.94367 0.93903 0.0
H1803 H 0.42723 0.91034 0.82207 0.0
H1804 H 0.47853 0.93566 0.78588 0.0
H1805 H 0.45494 0.90403 0.93233 0.0
C1806 C 0.47438 0.91362 0.97868 0.0
C1807 C 0.48833 0.92487 0.98214 0.0
C1808 C 0.46727 0.92998 0.79343 0.0
C1809 C 0.47101 0.92297 0.89091 0.0
C1810 C 0.45818 0.93027 0.75237 0.0
C1811 C 0.44356 0.92344 0.76217 0.0
C1812 C 0.4617 0.92263 0.84427 0.0
C1813 C 0.4384 0.91579 0.81271 0.0
C1814 C 0.46571 0.9127 0.93359 0.0
C1815 C 0.4933 0.93489 0.93832 0.0
N1816 N 0.44745 0.91561 0.85182 0.0
N1817 N 0.48465 0.93369 0.89444 0.0
H1818 H 0.19943 0.40913 0.21847 0.0
H1819 H 0.23788 0.44077 0.92197 0.0
H1820 H 0.1953 0.44061 0.12396 0.0
H1821 H 0.23169 0.4015 0.99003 0.0
H1822 H 0.22596 0.44339 0.00451 0.0
H1823 H 0.21528 0.40917 0.14503 0.0
C1824 C 0.20213 0.41632 0.18311 0.0
C1825 C 0.19596 0.42485 0.17738 0.0
C1826 C 0.22724 0.43422 1.00156 0.0
C1827 C 0.21396 0.42479 0.0928 0.0
C1828 C 0.23406 0.4327 0.95436 0.0
C1829 C 0.23571 0.42083 0.94869 0.0
C1830 C 0.22209 0.42386 0.04399 0.0
C1831 C 0.23055 0.41076 0.99233 0.0
C1832 C 0.21106 0.4162 0.14085 0.0
C1833 C 0.19976 0.43382 0.13015 0.0
N1834 N 0.22396 0.4125 0.03812 0.0
N1835 N 0.20843 0.43349 0.08963 0.0
H1836 H 0.5776 0.7574 0.12021 0.0
H1837 H 0.61552 0.83528 0.9974 0.0
H1838 H 0.60653 0.7933 0.22053 0.0
H1839 H 0.57656 0.80171 0.92892 0.0
H1840 H 0.61302 0.82013 0.07842 0.0
H1841 H 0.57721 0.77344 0.04918 0.0
C1842 C 0.58366 0.76866 0.12783 0.0
C1843 C 0.5921 0.774 0.17645 0.0
C1844 C 0.60497 0.81615 0.04582 0.0
C1845 C 0.59204 0.79246 0.09437 0.0
C1846 C 0.60644 0.82476 0.99943 0.0
C1847 C 0.59628 0.81974 0.9561 0.0
C1848 C 0.59338 0.80236 0.04842 0.0
C1849 C 0.58467 0.80604 0.96118 0.0
C1850 C 0.58348 0.77782 0.08714 0.0
C1851 C 0.59979 0.78871 0.1839 0.0
N1852 N 0.58362 0.7978 0.00609 0.0
N1853 N 0.59977 0.79743 0.14285 0.0
H1854 H 0.21636 0.78008 0.91436 0.0
H1855 H 0.22272 0.81472 0.21967 0.0
H1856 H 0.18158 0.78115 0.99548 0.0
H1857 H 0.2585 0.82518 0.11207 0.0
H1858 H 0.20715 0.79847 0.14664 0.0
H1859 H 0.23144 0.79298 0.99452 0.0
C1860 C 0.21186 0.78297 0.94914 0.0
C1861 C 0.19767 0.77959 0.9479 0.0
C1862 C 0.21842 0.8042 0.1394 0.0
C1863 C 0.21495 0.79431 0.04035 0.0
C1864 C 0.22735 0.81338 0.18131 0.0
C1865 C 0.24198 0.8214 0.17201 0.0
C1866 C 0.22414 0.80289 0.08805 0.0
C1867 C 0.24731 0.81928 0.12109 0.0
C1868 C 0.2205 0.79036 0.9949 0.0
C1869 C 0.19247 0.78363 0.99438 0.0
N1870 N 0.23841 0.81029 0.08102 0.0
N1871 N 0.2011 0.79077 0.03875 0.0
H1872 H 0.22457 0.2587 0.32193 0.0
H1873 H 0.23342 0.19024 0.28691 0.0
H1874 H 0.20067 0.2207 0.41893 0.0
H1875 H 0.25917 0.22954 0.20019 0.0
H1876 H 0.22115 0.20094 0.33566 0.0
H1877 H 0.23663 0.24776 0.27395 0.0
C1878 C 0.22168 0.24796 0.33233 0.0
C1879 C 0.21153 0.24056 0.37409 0.0
C1880 C 0.22953 0.20725 0.30613 0.0
C1881 C 0.22552 0.22801 0.32039 0.0
C1882 C 0.23661 0.20116 0.27871 0.0
C1883 C 0.24725 0.20897 0.23913 0.0
C1884 C 0.23314 0.22126 0.29389 0.0
C1885 C 0.2509 0.22308 0.22987 0.0
C1886 C 0.22868 0.24175 0.30544 0.0
C1887 C 0.20841 0.22675 0.3868 0.0
N1888 N 0.24383 0.22871 0.25661 0.0
N1889 N 0.21538 0.22094 0.36027 0.0
H1890 H 0.79648 0.04607 0.29852 0.0
H1891 H 0.78502 0.96751 0.31914 0.0
H1892 H 0.81541 0.02998 0.18236 0.0
H1893 H 0.76207 0.98228 0.41926 0.0
H1894 H 0.79712 0.9905 0.27091 0.0
H1895 H 0.78529 0.02332 0.34834 0.0
C1896 C 0.79851 0.03783 0.28431 0.0
C1897 C 0.80698 0.03994 0.23663 0.0
C1898 C 0.78942 0.9887 0.30342 0.0
C1899 C 0.79395 0.01373 0.29244 0.0
C1900 C 0.78244 0.97553 0.33061 0.0
C1901 C 0.77261 0.973 0.37367 0.0
C1902 C 0.78657 0.99944 0.31944 0.0
C1903 C 0.76975 0.98384 0.38703 0.0
C1904 C 0.792 0.02478 0.31226 0.0
C1905 C 0.80901 0.0288 0.21919 0.0
N1906 N 0.77672 0.99655 0.36038 0.0
N1907 N 0.80253 0.01619 0.24687 0.0
H1908 H 0.97094 0.75097 0.27523 0.0
H1909 H 0.04704 0.82036 0.31905 0.0
H1910 H 0.98411 0.78943 0.18265 0.0
H1911 H 0.03525 0.77974 0.39021 0.0
H1912 H 0.02416 0.8097 0.26945 0.0
H1913 H 0.99411 0.76191 0.3217 0.0
C1914 C 0.97865 0.76181 0.26549 0.0
C1915 C 0.97557 0.76935 0.22551 0.0
C1916 C 0.02662 0.8031 0.29561 0.0
C1917 C 1.00229 0.78193 0.27754 0.0
C1918 C 0.03973 0.80917 0.32345 0.0
C1919 C 0.04301 0.80094 0.35903 0.0
C1920 C 0.01671 0.78871 0.3036 0.0
C1921 C 0.0331 0.78649 0.36359 0.0
C1922 C 0.99194 0.76803 0.29149 0.0
C1923 C 0.98606 0.78329 0.21352 0.0
N1924 N 0.02041 0.78089 0.33678 0.0
N1925 N 0.99892 0.78912 0.23931 0.0
H1926 H 0.78602 0.75884 0.68102 0.0
H1927 H 0.79321 0.81598 0.91225 0.0
H1928 H 0.82268 0.78158 0.78697 0.0
H1929 H 0.75554 0.79068 0.81475 0.0
H1930 H 0.80461 0.8044 0.86431 0.0
H1931 H 0.77494 0.7707 0.72837 0.0
C1932 C 0.79171 0.76629 0.71465 0.0
C1933 C 0.80533 0.76927 0.72991 0.0
C1934 C 0.7939 0.80144 0.85294 0.0
C1935 C 0.7927 0.78306 0.78434 0.0
C1936 C 0.78743 0.80813 0.87998 0.0
C1937 C 0.77344 0.80436 0.86712 0.0
C1938 C 0.78635 0.79085 0.81255 0.0
C1939 C 0.76639 0.79405 0.82537 0.0
C1940 C 0.78538 0.77309 0.74163 0.0
C1941 C 0.81215 0.77892 0.77409 0.0
N1942 N 0.77288 0.78763 0.79979 0.0
N1943 N 0.80581 0.78555 0.79949 0.0
H1944 H 0.19676 0.97777 0.90104 0.0
H1945 H 0.25806 0.02988 0.68862 0.0
H1946 H 0.22609 0.96757 0.82291 0.0
H1947 H 0.23273 0.04252 0.78444 0.0
H1948 H 0.24591 0.00678 0.73453 0.0
H1949 H 0.2087 1.0009 0.85437 0.0
C1950 C 0.20559 0.98034 0.87324 0.0
C1951 C 0.21038 0.97071 0.86552 0.0
C1952 C 0.24302 0.01458 0.7459 0.0
C1953 C 0.22427 0.99727 0.81239 0.0
C1954 C 0.24998 0.0278 0.71975 0.0
C1955 C 0.24638 0.03814 0.73262 0.0
C1956 C 0.23223 0.01153 0.78523 0.0
C1957 C 0.23589 0.0349 0.77354 0.0
C1958 C 0.21248 0.99359 0.84696 0.0
C1959 C 0.22193 0.9746 0.8294 0.0
N1960 N 0.22912 0.02185 0.79806 0.0
N1961 N 0.22849 0.98757 0.80437 0.0
H1962 H 0.9835 0.19659 0.68988 0.0
H1963 H 0.03379 0.25498 0.91666 0.0
H1964 H 0.97156 0.2232 0.78028 0.0
H1965 H 0.04753 0.23183 0.81231 0.0
H1966 H 0.0109 0.24327 0.86847 0.0
H1967 H 1.00658 0.20861 0.73692 0.0
C1968 C 0.98568 0.20483 0.72041 0.0
C1969 C 0.97552 0.20877 0.73172 0.0
C1970 C 0.01891 0.24078 0.85568 0.0
C1971 C 1.00207 0.2228 0.78531 0.0
C1972 C 0.03201 0.24751 0.88307 0.0
C1973 C 0.04257 0.24434 0.86858 0.0
C1974 C 0.01623 0.23069 0.81343 0.0
C1975 C 0.03972 0.23463 0.8246 0.0
C1976 C 0.9989 0.21177 0.74694 0.0
C1977 C 0.97895 0.21962 0.77116 0.0
N1978 N 0.0268 0.22807 0.79894 0.0
N1979 N 0.99192 0.22626 0.79639 0.0
H1980 H 0.89962 0.52456 0.61694 0.0
H1981 H 0.89058 0.59295 0.64983 0.0
H1982 H 0.92385 0.56311 0.5234 0.0
H1983 H 0.86617 0.55481 0.7454 0.0
H1984 H 0.90235 0.58184 0.60111 0.0
H1985 H 0.88728 0.53525 0.66519 0.0
C1986 C 0.90244 0.53531 0.607 0.0
C1987 C 0.9127 0.54291 0.56577 0.0
C1988 C 0.89435 0.57582 0.63244 0.0
C1989 C 0.89853 0.55519 0.62011 0.0
C1990 C 0.88754 0.58214 0.65981 0.0
C1991 C 0.87735 0.57477 0.70146 0.0
C1992 C 0.891 0.562 0.64689 0.0
C1993 C 0.87398 0.56085 0.71347 0.0
C1994 C 0.89532 0.54138 0.63416 0.0
C1995 C 0.91586 0.55678 0.55427 0.0
N1996 N 0.88081 0.55495 0.6866 0.0
N1997 N 0.9088 0.56243 0.58099 0.0
H1998 H 0.45094 0.30056 0.65435 0.0
H1999 H 0.46275 0.37924 0.63349 0.0
H2000 H 0.42833 0.31555 0.7555 0.0
H2001 H 0.48075 0.36268 0.51507 0.0
H2002 H 0.45164 0.35657 0.68388 0.0
H2003 H 0.46292 0.32346 0.6055 0.0
C2004 C 0.44841 0.30862 0.66595 0.0
C2005 C 0.43871 0.30616 0.70947 0.0
C2006 C 0.45812 0.35791 0.64716 0.0
C2007 C 0.45254 0.33251 0.65447 0.0
C2008 C 0.46459 0.37092 0.61885 0.0
C2009 C 0.47278 0.37287 0.5704 0.0
C2010 C 0.45985 0.34675 0.62695 0.0
C2011 C 0.47456 0.36161 0.55247 0.0
C2012 C 0.45533 0.32174 0.63838 0.0
C2013 C 0.43592 0.31705 0.72296 0.0
N2014 N 0.46815 0.34906 0.58055 0.0
N2015 N 0.44283 0.32971 0.69593 0.0
H2016 H 0.65046 0.09052 0.5177 0.0
H2017 H 0.70049 0.14855 0.74635 0.0
H2018 H 0.63658 0.11377 0.6208 0.0
H2019 H 0.7132 0.12368 0.6478 0.0
H2020 H 0.67743 0.13673 0.69883 0.0
H2021 H 0.67349 0.10278 0.56419 0.0
C2022 C 0.65225 0.09819 0.55045 0.0
C2023 C 0.64158 0.10118 0.56513 0.0
C2024 C 0.68528 0.13392 0.68716 0.0
C2025 C 0.66812 0.1154 0.61876 0.0
C2026 C 0.69847 0.14073 0.71399 0.0
C2027 C 0.70878 0.13712 0.70083 0.0
C2028 C 0.68231 0.12336 0.64664 0.0
C2029 C 0.70561 0.12688 0.65883 0.0
C2030 C 0.66544 0.10521 0.57698 0.0
C2031 C 0.64447 0.11109 0.60835 0.0
N2032 N 0.69266 0.12033 0.6335 0.0
N2033 N 0.65748 0.1179 0.63338 0.0
H2034 H 0.42654 0.11519 0.24975 0.0
H2035 H 0.48291 0.12235 0.01481 0.0
H2036 H 0.45001 0.15242 0.14793 0.0
H2037 H 0.45953 0.08551 0.11873 0.0
H2038 H 0.47115 0.1336 0.06262 0.0
H2039 H 0.43815 0.10406 0.20071 0.0
C2040 C 0.43409 0.12098 0.21664 0.0
C2041 C 0.43738 0.13479 0.20319 0.0
C2042 C 0.46865 0.1231 0.07538 0.0
C2043 C 0.45086 0.1221 0.14668 0.0
C2044 C 0.47541 0.1167 0.04829 0.0
C2045 C 0.4723 0.10303 0.06321 0.0
C2046 C 0.45859 0.11576 0.11775 0.0
C2047 C 0.46243 0.09615 0.10654 0.0
C2048 C 0.44076 0.11463 0.18872 0.0
C2049 C 0.44713 0.14175 0.15953 0.0
N2050 N 0.45591 0.10255 0.13208 0.0
N2051 N 0.45359 0.13537 0.13312 0.0
H2052 H 0.89953 0.37823 0.12511 0.0
H2053 H 0.88866 0.29984 0.14216 0.0
H2054 H 0.92024 0.36285 0.0148 0.0
H2055 H 0.86635 0.31412 0.24871 0.0
H2056 H 0.90003 0.32277 0.09398 0.0
H2057 H 0.88763 0.35512 0.17275 0.0
C2058 C 0.90169 0.37005 0.11141 0.0
C2059 C 0.91081 0.37243 0.06571 0.0
C2060 C 0.89255 0.32088 0.12755 0.0
C2061 C 0.89712 0.34591 0.11927 0.0
C2062 C 0.88594 0.30771 0.15457 0.0
C2063 C 0.87647 0.30504 0.19913 0.0
C2064 C 0.88974 0.33152 0.1454 0.0
C2065 C 0.87357 0.31575 0.21436 0.0
C2066 C 0.89481 0.35682 0.13819 0.0
C2067 C 0.91315 0.36142 0.04939 0.0
N2068 N 0.88021 0.32851 0.18787 0.0
N2069 N 0.90635 0.34869 0.07587 0.0
H2070 H 0.64962 0.52858 0.02329 0.0
H2071 H 0.70117 0.58939 0.23965 0.0
H2072 H 0.63825 0.55603 0.11048 0.0
H2073 H 0.71334 0.56289 0.1498 0.0
H2074 H 0.67827 0.57751 0.19172 0.0
H2075 H 0.67279 0.54064 0.06977 0.0
C2076 C 0.65195 0.53702 0.05302 0.0
C2077 C 0.64193 0.54118 0.06364 0.0
C2078 C 0.68594 0.57431 0.18203 0.0
C2079 C 0.66857 0.55527 0.11636 0.0
C2080 C 0.69905 0.58115 0.2092 0.0
C2081 C 0.70916 0.57709 0.1988 0.0
C2082 C 0.68279 0.56323 0.14397 0.0
C2083 C 0.70588 0.56638 0.15885 0.0
C2084 C 0.66521 0.54397 0.07923 0.0
C2085 C 0.64555 0.55229 0.10193 0.0
N2086 N 0.69295 0.55975 0.13321 0.0
N2087 N 0.65856 0.55896 0.12671 0.0
H2088 H 0.59375 0.89766 0.86733 0.0
H2089 H 0.53208 0.88676 0.08196 0.0
H2090 H 0.56612 0.85798 0.94806 0.0
H2091 H 0.55887 0.92578 0.99525 0.0
H2092 H 0.54434 0.87602 0.0343 0.0
H2093 H 0.58157 0.90824 0.91625 0.0
C2094 C 0.58517 0.8912 0.89588 0.0
C2095 C 0.58088 0.87689 0.90335 0.0
C2096 C 0.54749 0.88689 0.02527 0.0
C2097 C 0.56674 0.88894 0.95957 0.0
C2098 C 0.54044 0.89301 0.05225 0.0
C2099 C 0.54438 0.90715 0.04219 0.0
C2100 C 0.55867 0.89499 0.98796 0.0
C2101 C 0.55535 0.91479 1.00362 0.0
C2102 C 0.57817 0.89724 0.92365 0.0
C2103 C 0.56978 0.86905 0.94119 0.0
N2104 N 0.56214 0.90865 0.97816 0.0
N2105 N 0.56304 0.87515 0.96758 0.0
H2106 H 0.09472 0.64716 0.0859 0.0
H2107 H 0.1515 0.69658 0.85338 0.0
H2108 H 0.11812 0.63329 0.98381 0.0
H2109 H 0.12904 0.71037 0.96151 0.0
H2110 H 0.13995 0.67362 0.90129 0.0
H2111 H 0.10707 0.6702 0.03991 0.0
C2112 C 0.10245 0.64897 0.05348 0.0
C2113 C 0.10547 0.63831 0.03902 0.0
C2114 C 0.13764 0.68169 0.91508 0.0
C2115 C 0.11978 0.66484 0.98585 0.0
C2116 C 0.14432 0.69483 0.88807 0.0
C2117 C 0.14131 0.70542 0.90388 0.0
C2118 C 0.12776 0.67902 0.95817 0.0
C2119 C 0.13181 0.70257 0.94852 0.0
C2120 C 0.10953 0.66216 0.02727 0.0
C2121 C 0.11543 0.64119 0.99612 0.0
N2122 N 0.12531 0.68963 0.9738 0.0
N2123 N 0.12228 0.65419 0.97126 0.0
H2124 H 0.3167 0.45626 0.85482 0.0
H2125 H 0.36643 0.4487 0.0859 0.0
H2126 H 0.30338 0.41922 0.95727 0.0
H2127 H 0.37962 0.48633 0.9873 0.0
H2128 H 0.34341 0.43778 0.03904 0.0
H2129 H 0.33951 0.46767 0.90393 0.0
C2130 C 0.31852 0.45063 0.88847 0.0
C2131 C 0.30809 0.43682 0.90237 0.0
C2132 C 0.3513 0.44841 0.02741 0.0
C2133 C 0.33435 0.4497 0.95818 0.0
C2134 C 0.36448 0.45466 0.05414 0.0
C2135 C 0.37494 0.4685 0.04087 0.0
C2136 C 0.34847 0.45602 0.98667 0.0
C2137 C 0.37188 0.47563 0.99874 0.0
C2138 C 0.33158 0.45711 0.91622 0.0
C2139 C 0.31104 0.42994 0.9458 0.0
N2140 N 0.35892 0.46935 0.97338 0.0
N2141 N 0.3239 0.43641 0.97189 0.0
H2142 H 0.12572 0.48006 0.58729 0.0
H2143 H 0.11788 0.42312 0.3536 0.0
H2144 H 0.08753 0.45452 0.49299 0.0
H2145 H 0.15476 0.44575 0.45845 0.0
H2146 H 0.10666 0.43451 0.40386 0.0
H2147 H 0.13674 0.46812 0.53932 0.0
C2148 C 0.1197 0.47202 0.55598 0.0
C2149 C 0.10572 0.46838 0.54378 0.0
C2150 C 0.11717 0.43696 0.41628 0.0
C2151 C 0.11824 0.45451 0.48881 0.0
C2152 C 0.12357 0.43042 0.38766 0.0
C2153 C 0.13731 0.43355 0.40166 0.0
C2154 C 0.12455 0.4468 0.45937 0.0
C2155 C 0.14414 0.443 0.44643 0.0
C2156 C 0.12598 0.46515 0.52878 0.0
C2157 C 0.09841 0.45784 0.503 0.0
N2158 N 0.13775 0.44938 0.47334 0.0
N2159 N 0.10473 0.45129 0.47711 0.0
H2160 H 0.52761 0.63299 0.48238 0.0
H2161 H 0.59565 0.71056 0.44982 0.0
H2162 H 0.56653 0.64715 0.57335 0.0
H2163 H 0.55817 0.69588 0.34835 0.0
H2164 H 0.5847 0.68765 0.49818 0.0
H2165 H 0.53833 0.65582 0.4328 0.0
C2166 C 0.53845 0.64084 0.49139 0.0
C2167 C 0.54614 0.63821 0.53239 0.0
C2168 C 0.5788 0.68944 0.4656 0.0
C2169 C 0.55846 0.66444 0.47661 0.0
C2170 C 0.58501 0.70258 0.43846 0.0
C2171 C 0.57776 0.70516 0.39542 0.0
C2172 C 0.56521 0.67873 0.4496 0.0
C2173 C 0.5641 0.69432 0.38149 0.0
C2174 C 0.54455 0.65391 0.46347 0.0
C2175 C 0.56015 0.6488 0.54261 0.0
N2176 N 0.55829 0.68161 0.40833 0.0
N2177 N 0.5658 0.66142 0.51534 0.0
H2178 H 0.30249 0.85816 0.45811 0.0
H2179 H 0.38022 0.92634 0.48583 0.0
H2180 H 0.31716 0.89588 0.35845 0.0
H2181 H 0.36665 0.88842 0.58285 0.0
H2182 H 0.3572 0.91518 0.43815 0.0
H2183 H 0.32553 0.86908 0.50648 0.0
C2184 C 0.31049 0.86879 0.44693 0.0
C2185 C 0.30793 0.87606 0.40387 0.0
C2186 C 0.35925 0.90923 0.46959 0.0
C2187 C 0.33439 0.88859 0.45833 0.0
C2188 C 0.37246 0.91557 0.49636 0.0
C2189 C 0.37538 0.90827 0.53808 0.0
C2190 C 0.34879 0.89546 0.48474 0.0
C2191 C 0.36482 0.89441 0.55084 0.0
C2192 C 0.32369 0.87498 0.47412 0.0
C2193 C 0.31874 0.88979 0.39078 0.0
N2194 N 0.35201 0.88849 0.52457 0.0
N2195 N 0.33144 0.89555 0.41759 0.0
H2196 H 0.22008 0.25923 0.79325 0.0
H2197 H 0.24158 0.20096 0.85532 0.0
H2198 H 0.21406 0.22698 0.67316 0.0
H2199 H 0.25202 0.23698 0.96151 0.0
H2200 H 0.22663 0.20688 0.79739 0.0
H2201 H 0.22656 0.2475 0.86528 0.0
C2202 C 0.21986 0.24948 0.78263 0.0
C2203 C 0.21655 0.24398 0.72774 0.0
C2204 C 0.23205 0.21335 0.83387 0.0
C2205 C 0.22432 0.23076 0.80876 0.0
C2206 C 0.24052 0.20996 0.86687 0.0
C2207 C 0.24808 0.2186 0.91264 0.0
C2208 C 0.2312 0.22542 0.84719 0.0
C2209 C 0.24651 0.23021 0.92585 0.0
C2210 C 0.22357 0.24281 0.82352 0.0
C2211 C 0.21638 0.23138 0.71551 0.0
N2212 N 0.23831 0.23333 0.89305 0.0
N2213 N 0.22046 0.22527 0.75563 0.0
H2214 H 0.76998 0.01565 0.9625 0.0
H2215 H 0.78629 0.98321 0.69108 0.0
H2216 H 0.80903 0.03707 0.86937 0.0
H2217 H 0.74645 0.96419 0.77878 0.0
H2218 H 0.79685 1.00049 0.76794 0.0
H2219 H 0.76325 0.99436 0.9076 0.0
C2220 C 0.77718 0.01579 0.93064 0.0
C2221 C 0.78999 0.02809 0.91985 0.0
C2222 C 0.78589 0.99234 0.77097 0.0
C2223 C 0.78235 1.00389 0.85645 0.0
C2224 C 0.77992 0.98243 0.72748 0.0
C2225 C 0.76555 0.97233 0.7292 0.0
C2226 C 0.77732 0.9921 0.81581 0.0
C2227 C 0.75757 0.97191 0.77617 0.0
C2228 C 0.77338 1.00365 0.8995 0.0
C2229 C 0.79907 0.02774 0.87894 0.0
N2230 N 0.76355 0.98175 0.81747 0.0
N2231 N 0.79498 0.01585 0.84795 0.0
H2232 H 0.01647 0.77043 0.63108 0.0
H2233 H 0.98906 0.78223 0.92537 0.0
H2234 H 0.04212 0.80489 0.74395 0.0
H2235 H 0.96414 0.74827 0.80947 0.0
H2236 H 1.00703 0.79363 0.85185 0.0
H2237 H 0.99583 0.76491 0.68817 0.0
C2238 C 0.01769 0.77687 0.66791 0.0
C2239 C 0.03094 0.788 0.68346 0.0
C2240 C 0.99747 0.78386 0.84203 0.0
C2241 C 1.00748 0.78173 0.7493 0.0
C2242 C 0.98716 0.77746 0.88374 0.0
C2243 C 0.97516 0.76438 0.87293 0.0
C2244 C 0.99572 0.77699 0.78982 0.0
C2245 C 0.97334 0.75834 0.81917 0.0
C2246 C 1.00592 0.77379 0.7003 0.0
C2247 C 0.03202 0.79622 0.73078 0.0
N2248 N 0.9836 0.76463 0.77971 0.0
N2249 N 0.02042 0.79278 0.76272 0.0
H2250 H 0.81308 0.76748 0.3227 0.0
H2251 H 0.77659 0.81325 0.25475 0.0
H2252 H 0.79439 0.78126 0.45004 0.0
H2253 H 0.77371 0.78015 0.14655 0.0
H2254 H 0.79199 0.80935 0.31924 0.0
H2255 H 0.80757 0.78027 0.25065 0.0
C2256 C 0.80818 0.77355 0.33544 0.0
C2257 C 0.80397 0.7733 0.39152 0.0
C2258 C 0.78822 0.8032 0.28065 0.0
C2259 C 0.79786 0.78784 0.31085 0.0
C2260 C 0.77949 0.8054 0.24414 0.0
C2261 C 0.77383 0.79683 0.19627 0.0
C2262 C 0.79139 0.79255 0.26816 0.0
C2263 C 0.77777 0.78677 0.18382 0.0
C2264 C 0.80505 0.78077 0.29466 0.0
C2265 C 0.79762 0.78118 0.40671 0.0
N2266 N 0.78629 0.78484 0.21986 0.0
N2267 N 0.79463 0.78809 0.36634 0.0
H2268 H 0.27686 0.03717 0.36854 0.0
H2269 H 0.21189 0.98295 0.18331 0.0
H2270 H 0.23493 0.02993 0.40087 0.0
H2271 H 0.24746 0.97762 0.22342 0.0
H2272 H 0.22084 1.00269 0.25002 0.0
H2273 H 0.2671 0.01821 0.29878 0.0
C2274 C 0.26562 0.03173 0.36031 0.0
C2275 C 0.25671 0.03524 0.38995 0.0
C2276 C 0.22654 0.99704 0.24447 0.0
C2277 C 0.24551 0.01354 0.31072 0.0
C2278 C 0.22135 0.98565 0.20713 0.0
C2279 C 0.22875 0.97838 0.19903 0.0
C2280 C 0.23936 1.00134 0.27238 0.0
C2281 C 0.24139 0.98289 0.22867 0.0
C2282 C 0.26007 0.0209 0.32075 0.0
C2283 C 0.24222 0.02786 0.37778 0.0
N2284 N 0.24633 0.99413 0.26388 0.0
N2285 N 0.23703 0.01728 0.33893 0.0
H2286 H 0.99017 0.20693 0.43366 0.0
H2287 H 0.01867 0.24279 0.13529 0.0
H2288 H 0.9665 0.21657 0.31369 0.0
H2289 H 0.04342 0.23394 0.25277 0.0
H2290 H 0.99771 0.22826 0.19163 0.0
H2291 H 1.00785 0.21168 0.36037 0.0
C2292 C 0.9885 0.20959 0.39127 0.0
C2293 C 0.97696 0.21136 0.37914 0.0
C2294 C 1.00766 0.22932 0.20495 0.0
C2295 C 0.99713 0.21717 0.2962 0.0
C2296 C 0.01961 0.23765 0.17294 0.0
C2297 C 0.03271 0.23968 0.19031 0.0
C2298 C 0.00891 0.22326 0.25546 0.0
C2299 C 0.03344 0.23263 0.2385 0.0
C2300 C 0.99861 0.21242 0.34967 0.0
C2301 C 0.97537 0.2152 0.32439 0.0
N2302 N 0.02169 0.2249 0.27022 0.0
N2303 N 0.98544 0.21812 0.285 0.0
H2304 H 0.90283 0.54182 0.23972 0.0
H2305 H 0.91316 0.60824 0.06868 0.0
H2306 H 0.9436 0.57856 0.20992 0.0
H2307 H 0.88036 0.56638 0.02172 0.0
H2308 H 0.92236 0.59787 0.13542 0.0
H2309 H 0.89247 0.55081 0.17119 0.0
C2310 C 0.90968 0.55154 0.21772 0.0
C2311 C 0.92418 0.55931 0.22955 0.0
C2312 C 0.91306 0.59098 0.11079 0.0
C2313 C 0.91226 0.56991 0.15404 0.0
C2314 C 0.90777 0.59687 0.0729 0.0
C2315 C 0.89584 0.58818 0.04016 0.0
C2316 C 0.90635 0.57629 0.1162 0.0
C2317 C 0.88929 0.57351 0.04734 0.0
C2318 C 0.90371 0.55674 0.17928 0.0
C2319 C 0.93239 0.57222 0.20192 0.0
N2320 N 0.89463 0.56798 0.08483 0.0
N2321 N 0.92629 0.57717 0.16574 0.0
H2322 H 0.47593 0.37053 0.20572 0.0
H2323 H 0.41229 0.29555 0.11712 0.0
H2324 H 0.43556 0.34922 0.28977 0.0
H2325 H 0.4516 0.31679 0.02589 0.0
H2326 H 0.42274 0.31296 0.19291 0.0
H2327 H 0.46925 0.34908 0.15101 0.0
C2328 C 0.46579 0.36125 0.21342 0.0
C2329 C 0.45623 0.3616 0.25194 0.0
C2330 C 0.42921 0.31371 0.15691 0.0
C2331 C 0.44848 0.33722 0.18943 0.0
C2332 C 0.42325 0.30376 0.11387 0.0
C2333 C 0.43116 0.30483 0.06577 0.0
C2334 C 0.44306 0.32499 0.15085 0.0
C2335 C 0.44527 0.3156 0.06295 0.0
C2336 C 0.46196 0.34904 0.18209 0.0
C2337 C 0.44314 0.34941 0.25977 0.0
N2338 N 0.45074 0.32545 0.10466 0.0
N2339 N 0.43961 0.33774 0.22847 0.0
H2340 H 0.70532 0.10177 0.06893 0.0
H2341 H 0.64995 0.11386 0.23519 0.0
H2342 H 0.69695 0.13469 0.01647 0.0
H2343 H 0.64444 0.07249 0.20435 0.0
H2344 H 0.66925 0.12369 0.16635 0.0
H2345 H 0.68542 0.09302 0.13386 0.0
C2346 C 0.69942 0.10728 0.07158 0.0
C2347 C 0.70296 0.11913 0.03793 0.0
C2348 C 0.66361 0.11244 0.17425 0.0
C2349 C 0.68021 0.10915 0.11185 0.0
C2350 C 0.65248 0.10678 0.21287 0.0
C2351 C 0.6454 0.09228 0.22469 0.0
C2352 C 0.66783 0.10356 0.14888 0.0
C2353 C 0.64963 0.08373 0.19649 0.0
C2354 C 0.68805 0.10225 0.10841 0.0
C2355 C 0.69493 0.12584 0.04298 0.0
N2356 N 0.66066 0.08952 0.16026 0.0
N2357 N 0.68389 0.12076 0.07954 0.0
H2358 H 0.4375 0.11142 0.47072 0.0
H2359 H 0.47312 0.11762 0.76875 0.0
H2360 H 0.44686 0.14501 0.58907 0.0
H2361 H 0.46448 0.08526 0.64505 0.0
H2362 H 0.46822 0.13073 0.69706 0.0
H2363 H 0.45184 0.10464 0.5266 0.0
C2364 C 0.44271 0.11742 0.50847 0.0
C2365 C 0.44089 0.1286 0.52618 0.0
C2366 C 0.46774 0.12094 0.68521 0.0
C2367 C 0.4571 0.12083 0.59086 0.0
C2368 C 0.47068 0.11354 0.72595 0.0
C2369 C 0.46923 0.10042 0.71235 0.0
C2370 C 0.46321 0.11503 0.63108 0.0
C2371 C 0.46558 0.09533 0.657 0.0
C2372 C 0.45094 0.11361 0.54024 0.0
C2373 C 0.44802 0.13626 0.57453 0.0
N2374 N 0.46256 0.10258 0.61847 0.0
N2375 N 0.45565 0.13206 0.60602 0.0
H2376 H 0.91496 0.38188 0.657 0.0
H2377 H 0.86838 0.30007 0.58268 0.0
H2378 H 0.8984 0.34902 0.78291 0.0
H2379 H 0.90334 0.32999 0.48129 0.0
H2380 H 0.87204 0.31932 0.64694 0.0
H2381 H 0.90301 0.36392 0.58287 0.0
C2382 C 0.90846 0.37091 0.66887 0.0
C2383 C 0.90766 0.36672 0.72531 0.0
C2384 C 0.87868 0.32165 0.60988 0.0
C2385 C 0.89409 0.34645 0.64225 0.0
C2386 C 0.87662 0.31075 0.57348 0.0
C2387 C 0.88573 0.31357 0.52756 0.0
C2388 C 0.88975 0.33537 0.59929 0.0
C2389 C 0.89628 0.32747 0.51703 0.0
C2390 C 0.90171 0.36074 0.62692 0.0
C2391 C 0.89926 0.35249 0.73939 0.0
N2392 N 0.89807 0.33791 0.55293 0.0
N2393 N 0.89284 0.34277 0.69789 0.0
H2394 H 0.65622 0.54024 0.76432 0.0
H2395 H 0.68501 0.57811 0.46911 0.0
H2396 H 0.63275 0.55096 0.64757 0.0
H2397 H 0.70951 0.56805 0.5831 0.0
H2398 H 0.66407 0.56357 0.52548 0.0
H2399 H 0.67396 0.54556 0.6907 0.0
C2400 C 0.6546 0.54326 0.72251 0.0
C2401 C 0.64309 0.54515 0.71143 0.0
C2402 C 0.67396 0.56437 0.53802 0.0
C2403 C 0.66335 0.5516 0.62818 0.0
C2404 C 0.6859 0.57272 0.506 0.0
C2405 C 0.69893 0.57438 0.52232 0.0
C2406 C 0.67514 0.55791 0.58748 0.0
C2407 C 0.69959 0.56701 0.56957 0.0
C2408 C 0.66476 0.54641 0.68074 0.0
C2409 C 0.64158 0.54946 0.65746 0.0
N2410 N 0.68784 0.55925 0.60131 0.0
N2411 N 0.65169 0.55268 0.61792 0.0
H2412 H 0.5723 0.86617 0.52107 0.0
H2413 H 0.54745 0.92209 0.46455 0.0
H2414 H 0.58256 0.90242 0.62546 0.0
H2415 H 0.54342 0.89121 0.34122 0.0
H2416 H 0.55416 0.91037 0.53579 0.0
H2417 H 0.55617 0.87102 0.46578 0.0
C2418 C 0.57096 0.875 0.53277 0.0
C2419 C 0.57881 0.88404 0.57712 0.0
C2420 C 0.55152 0.90595 0.49349 0.0
C2421 C 0.56055 0.88959 0.51496 0.0
C2422 C 0.54765 0.9126 0.45308 0.0
C2423 C 0.54493 0.90754 0.39744 0.0
C2424 C 0.55303 0.89441 0.47751 0.0
C2425 C 0.54531 0.89527 0.38411 0.0
C2426 C 0.5618 0.87776 0.50135 0.0
C2427 C 0.57684 0.89537 0.59077 0.0
N2428 N 0.54959 0.88923 0.42378 0.0
N2429 N 0.56796 0.89787 0.55956 0.0
H2430 H 0.14423 0.70995 0.51833 0.0
H2431 H 0.09825 0.62803 0.44449 0.0
H2432 H 0.11073 0.67976 0.62479 0.0
H2433 H 0.11251 0.66089 0.31894 0.0
H2434 H 0.11032 0.64612 0.51814 0.0
H2435 H 0.13984 0.69083 0.45201 0.0
C2436 C 0.13616 0.69924 0.52812 0.0
C2437 C 0.12769 0.6963 0.57625 0.0
C2438 C 0.11105 0.64929 0.47422 0.0
C2439 C 0.12282 0.67465 0.50209 0.0
C2440 C 0.10425 0.63905 0.43255 0.0
C2441 C 0.10438 0.64317 0.3764 0.0
C2442 C 0.11813 0.66358 0.45887 0.0
C2443 C 0.11215 0.65746 0.36225 0.0
C2444 C 0.13368 0.68841 0.49053 0.0
C2445 C 0.11731 0.68236 0.58744 0.0
N2446 N 0.11869 0.66724 0.40345 0.0
N2447 N 0.11511 0.67199 0.55036 0.0
H2448 H 0.36547 0.4745 0.35478 0.0
H2449 H 0.3321 0.42697 0.62734 0.0
H2450 H 0.3846 0.45471 0.44925 0.0
H2451 H 0.31135 0.44488 0.53126 0.0
H2452 H 0.35367 0.44141 0.57416 0.0
H2453 H 0.34803 0.46832 0.43042 0.0
C2454 C 0.36624 0.46926 0.39241 0.0
C2455 C 0.37641 0.46511 0.39638 0.0
C2456 C 0.34448 0.44235 0.56501 0.0
C2457 C 0.35644 0.4577 0.48163 0.0
C2458 C 0.33217 0.43406 0.59516 0.0
C2459 C 0.31998 0.43467 0.58295 0.0
C2460 C 0.3445 0.45109 0.5215 0.0
C2461 C 0.32059 0.44416 0.54176 0.0
C2462 C 0.35624 0.46563 0.43524 0.0
C2463 C 0.37682 0.45801 0.44489 0.0
N2464 N 0.33264 0.45187 0.51169 0.0
N2465 N 0.36687 0.4544 0.48547 0.0
H2466 H 0.15107 0.44636 0.01817 0.0
H2467 H 0.09388 0.46977 0.96718 0.0
H2468 H 0.11591 0.43676 0.1279 0.0
H2469 H 0.12299 0.47214 0.83882 0.0
H2470 H 0.10683 0.46439 0.03762 0.0
H2471 H 0.1455 0.46196 0.96275 0.0
C2472 C 0.14235 0.44776 0.03103 0.0
C2473 C 0.13376 0.44019 0.0768 0.0
C2474 C 0.1106 0.4664 0.99431 0.0
C2475 C 0.12743 0.45787 0.01458 0.0
C2476 C 0.10324 0.4695 0.95432 0.0
C2477 C 0.10744 0.47137 0.89759 0.0
C2478 C 0.12199 0.46479 0.9769 0.0
C2479 C 0.11959 0.47093 0.88253 0.0
C2480 C 0.13918 0.45662 0.99955 0.0
C2481 C 0.12258 0.44226 0.09207 0.0
N2482 N 0.12633 0.4674 0.92193 0.0
N2483 N 0.11967 0.45083 0.06075 0.0
H2484 H 0.59638 0.71601 0.97635 0.0
H2485 H 0.53774 0.63632 0.9165 0.0
H2486 H 0.56462 0.69003 0.0981 0.0
H2487 H 0.57331 0.66179 0.80846 0.0
H2488 H 0.54378 0.6573 0.9741 0.0
H2489 H 0.58413 0.69789 0.90442 0.0
C2490 C 0.58662 0.70657 0.98738 0.0
C2491 C 0.58143 0.70441 0.04273 0.0
C2492 C 0.55011 0.65831 0.93726 0.0
C2493 C 0.56763 0.68348 0.96177 0.0
C2494 C 0.54666 0.64638 0.90446 0.0
C2495 C 0.55517 0.6474 0.85836 0.0
C2496 C 0.5621 0.67122 0.92336 0.0
C2497 C 0.56665 0.66057 0.84443 0.0
C2498 C 0.57965 0.69622 0.94654 0.0
C2499 C 0.5688 0.69208 0.05544 0.0
N2500 N 0.56983 0.67195 0.87704 0.0
N2501 N 0.56241 0.6819 0.01534 0.0
H2502 H 0.31398 0.91207 0.05062 0.0
H2503 H 0.36493 0.89915 0.85491 0.0
H2504 H 0.31824 0.87523 0.07353 0.0
H2505 H 0.37371 0.94061 0.9071 0.0
H2506 H 0.34557 0.88875 0.92315 0.0
H2507 H 0.33332 0.92121 0.98282 0.0
C2508 C 0.31886 0.90581 0.04079 0.0
C2509 C 0.31435 0.89277 0.067 0.0
C2510 C 0.35191 0.90012 0.91995 0.0
C2511 C 0.33647 0.90319 0.98991 0.0
C2512 C 0.36309 0.90609 0.88164 0.0
C2513 C 0.37117 0.92081 0.87622 0.0
C2514 C 0.34864 0.90895 0.95159 0.0
C2515 C 0.36776 0.92922 0.90999 0.0
C2516 C 0.32991 0.91106 1.00236 0.0
C2517 C 0.32106 0.88511 0.0529 0.0
N2518 N 0.35669 0.92317 0.94599 0.0
N2519 N 0.33183 0.89044 0.01504 0.0
H2520 H 0.31381 0.22982 0.05391 0.0
H2521 H 0.36813 0.21828 0.86566 0.0
H2522 H 0.31632 0.19186 0.06386 0.0
H2523 H 0.37254 0.25901 0.89863 0.0
H2524 H 0.3474 0.20751 0.9287 0.0
H2525 H 0.33439 0.24021 0.99171 0.0
C2526 C 0.319 0.22384 0.04429 0.0
C2527 C 0.31356 0.21009 0.06513 0.0
C2528 C 0.35281 0.21878 0.92141 0.0
C2529 C 0.33676 0.22164 0.99127 0.0
C2530 C 0.36445 0.22487 0.88459 0.0
C2531 C 0.37192 0.23953 0.87624 0.0
C2532 C 0.34859 0.22741 0.94955 0.0
C2533 C 0.36698 0.24765 0.90335 0.0
C2534 C 0.33064 0.22969 0.00814 0.0
C2535 C 0.32042 0.20263 0.04991 0.0
N2536 N 0.35569 0.24151 0.93868 0.0
N2537 N 0.33158 0.20843 0.01331 0.0
H2538 H 0.82273 0.12605 0.06212 0.0
H2539 H 0.75565 0.11428 0.88032 0.0
H2540 H 0.78293 0.08722 0.05592 0.0
H2541 H 0.79576 0.15265 0.87101 0.0
H2542 H 0.76587 0.10441 0.94468 0.0
H2543 H 0.81308 0.1368 0.99747 0.0
C2544 C 0.81181 0.11997 0.04893 0.0
C2545 C 0.80355 0.10577 0.06505 0.0
C2546 C 0.77258 0.11491 0.92803 0.0
C2547 C 0.79265 0.11777 0.98942 0.0
C2548 C 0.76678 0.12045 0.89047 0.0
C2549 C 0.77493 0.13419 0.86936 0.0
C2550 C 0.78666 0.12321 0.94578 0.0
C2551 C 0.78921 0.14189 0.88521 0.0
C2552 C 0.8064 0.12601 0.0111 0.0
C2553 C 0.78961 0.09824 0.0451 0.0
N2554 N 0.7946 0.13635 0.923 0.0
N2555 N 0.78467 0.10427 0.00824 0.0
H2556 H 0.90029 0.6449 0.87333 0.0
H2557 H 0.88795 0.69773 0.06895 0.0
H2558 H 0.86128 0.64555 0.87217 0.0
H2559 H 0.92873 0.70226 0.03606 0.0
H2560 H 0.87725 0.67719 0.00475 0.0
H2561 H 0.91057 0.6654 0.93605 0.0
C2562 C 0.89405 0.6497 0.88484 0.0
C2563 C 0.88004 0.64374 0.86641 0.0
C2564 C 0.88851 0.68257 0.0123 0.0
C2565 C 0.89148 0.66682 0.94104 0.0
C2566 C 0.89457 0.6941 0.04981 0.0
C2567 C 0.90922 0.70157 0.05848 0.0
C2568 C 0.89719 0.67848 0.98368 0.0
C2569 C 0.91738 0.69671 0.03107 0.0
C2570 C 0.89984 0.66128 0.92139 0.0
C2571 C 0.87225 0.65007 0.88417 0.0
N2572 N 0.91128 0.68555 0.99497 0.0
N2573 N 0.87802 0.66118 0.92109 0.0
H2574 H 0.23134 0.3579 0.78655 0.0
H2575 H 0.21246 0.31879 0.483 0.0
H2576 H 0.2493 0.37924 0.62866 0.0
H2577 H 0.20756 0.29724 0.64176 0.0
H2578 H 0.22256 0.34126 0.53568 0.0
H2579 H 0.21895 0.33543 0.73378 0.0
C2580 C 0.23265 0.35789 0.74107 0.0
C2581 C 0.24156 0.37047 0.71236 0.0
C2582 C 0.21922 0.33155 0.55875 0.0
C2583 C 0.22728 0.34497 0.65165 0.0
C2584 C 0.21345 0.31876 0.52865 0.0
C2585 C 0.20934 0.30611 0.55766 0.0
C2586 C 0.2206 0.33163 0.61825 0.0
C2587 C 0.2108 0.30672 0.61719 0.0
C2588 C 0.22561 0.3451 0.71093 0.0
C2589 C 0.24277 0.36981 0.65304 0.0
N2590 N 0.21625 0.31918 0.64531 0.0
N2591 N 0.23574 0.35736 0.62485 0.0
H2592 H 0.70143 0.88577 0.5297 0.0
H2593 H 0.64672 0.89763 0.71318 0.0
H2594 H 0.70635 0.92671 0.56264 0.0
H2595 H 0.64969 0.85998 0.728 0.0
H2596 H 0.66743 0.90791 0.65162 0.0
H2597 H 0.68054 0.87517 0.59188 0.0
C2598 C 0.69783 0.89245 0.54845 0.0
C2599 C 0.70548 0.90711 0.54037 0.0
C2600 C 0.66373 0.89749 0.66898 0.0
C2601 C 0.68196 0.89518 0.61259 0.0
C2602 C 0.65201 0.89169 0.7047 0.0
C2603 C 0.64668 0.87807 0.7267 0.0
C2604 C 0.67002 0.88949 0.65371 0.0
C2605 C 0.6537 0.87067 0.71306 0.0
C2606 C 0.6861 0.88645 0.58477 0.0
C2607 C 0.70064 0.91535 0.5672 0.0
N2608 N 0.66492 0.8764 0.67682 0.0
N2609 N 0.68924 0.90929 0.60199 0.0
H2610 H 0.1285 0.81783 0.53732 0.0
H2611 H 0.11537 0.75208 0.73122 0.0
H2612 H 0.0884 0.77979 0.55727 0.0
H2613 H 0.15529 0.79077 0.72734 0.0
H2614 H 0.10548 0.76257 0.6683 0.0
H2615 H 0.13914 0.80811 0.60231 0.0
C2616 C 0.12206 0.80726 0.55378 0.0
C2617 C 0.10758 0.79954 0.54132 0.0
C2618 C 0.11634 0.76893 0.68177 0.0
C2619 C 0.1195 0.78859 0.61721 0.0
C2620 C 0.12193 0.76299 0.71853 0.0
C2621 C 0.1361 0.77064 0.73541 0.0
C2622 C 0.12503 0.78261 0.66055 0.0
C2623 C 0.14422 0.78462 0.71642 0.0
C2624 C 0.12806 0.80183 0.59174 0.0
C2625 C 0.09963 0.78607 0.56529 0.0
N2626 N 0.13863 0.79012 0.67941 0.0
N2627 N 0.10565 0.78109 0.6021 0.0
H2628 H 0.64939 0.7919 0.2359 0.0
H2629 H 0.7045 0.77992 0.05556 0.0
H2630 H 0.64528 0.7511 0.20854 0.0
H2631 H 0.70117 0.81731 0.03812 0.0
H2632 H 0.68384 0.76973 0.11741 0.0
H2633 H 0.67023 0.8024 0.1735 0.0
C2634 C 0.65317 0.78525 0.21839 0.0
C2635 C 0.64575 0.77065 0.22807 0.0
C2636 C 0.68744 0.78007 0.09942 0.0
C2637 C 0.66921 0.78244 0.15549 0.0
C2638 C 0.69913 0.78581 0.0635 0.0
C2639 C 0.70437 0.79935 0.04074 0.0
C2640 C 0.68108 0.78804 0.11406 0.0
C2641 C 0.69725 0.8067 0.05368 0.0
C2642 C 0.66487 0.79118 0.18191 0.0
C2643 C 0.65081 0.76242 0.20274 0.0
N2644 N 0.68606 0.80103 0.0901 0.0
N2645 N 0.66216 0.76841 0.1677 0.0
H2646 H 0.22089 0.85872 0.23765 0.0
H2647 H 0.23271 0.9246 0.04926 0.0
H2648 H 0.26166 0.89498 0.20511 0.0
H2649 H 0.19451 0.88432 0.03979 0.0
H2650 H 0.24303 0.91429 0.11128 0.0
H2651 H 0.21016 0.86867 0.17425 0.0
C2652 C 0.2275 0.86897 0.21864 0.0
C2653 C 0.24216 0.87613 0.22721 0.0
C2654 C 0.23247 0.90759 0.095 0.0
C2655 C 0.23008 0.88735 0.15362 0.0
C2656 C 0.22665 0.91344 0.05897 0.0
C2657 C 0.21286 0.90523 0.03836 0.0
C2658 C 0.22434 0.89345 0.11195 0.0
C2659 C 0.20531 0.89092 0.05361 0.0
C2660 C 0.22143 0.87451 0.18166 0.0
C2661 C 0.2503 0.88917 0.20012 0.0
N2662 N 0.21108 0.8855 0.0901 0.0
N2663 N 0.24418 0.89433 0.16466 0.0
H2664 H 0.10092 0.29717 0.14284 0.0
H2665 H 0.14078 0.38069 0.12545 0.0
H2666 H 0.11767 0.31948 0.98563 0.0
H2667 H 0.13813 0.35874 0.28095 0.0
H2668 H 0.13039 0.35842 0.07436 0.0
H2669 H 0.11248 0.31947 0.1938 0.0
C2670 C 0.107 0.30678 0.11876 0.0
C2671 C 0.10821 0.30639 0.05943 0.0
C2672 C 0.13209 0.35845 0.11959 0.0
C2673 C 0.12154 0.33215 0.11845 0.0
C2674 C 0.13795 0.37117 0.14917 0.0
C2675 C 0.1403 0.37166 0.20806 0.0
C2676 C 0.12828 0.34593 0.14885 0.0
C2677 C 0.1365 0.35891 0.23579 0.0
C2678 C 0.11368 0.31952 0.14823 0.0
C2679 C 0.1164 0.31924 0.03117 0.0
N2680 N 0.13058 0.34656 0.206 0.0
N2681 N 0.12265 0.33161 0.06089 0.0
H2682 H 0.78374 0.65336 0.31363 0.0
H2683 H 0.80405 0.69227 0.6165 0.0
H2684 H 0.76759 0.63154 0.47222 0.0
H2685 H 0.8063 0.71373 0.46007 0.0
H2686 H 0.79353 0.66986 0.5637 0.0
H2687 H 0.7952 0.67587 0.36619 0.0
C2688 C 0.78262 0.65328 0.35924 0.0
C2689 C 0.77455 0.64053 0.38826 0.0
C2690 C 0.79634 0.67952 0.54116 0.0
C2691 C 0.78777 0.66611 0.44867 0.0
C2692 C 0.80232 0.69229 0.57133 0.0
C2693 C 0.80597 0.70493 0.54305 0.0
C2694 C 0.79423 0.67943 0.48218 0.0
C2695 C 0.80355 0.70428 0.48411 0.0
C2696 C 0.78912 0.6661 0.38924 0.0
C2697 C 0.77353 0.64108 0.44768 0.0
N2698 N 0.79792 0.69182 0.45576 0.0
N2699 N 0.78007 0.65359 0.47575 0.0
H2700 H 0.32397 0.11536 0.62692 0.0
H2701 H 0.36168 0.13529 0.32125 0.0
H2702 H 0.30176 0.09927 0.46872 0.0
H2703 H 0.38401 0.13938 0.47737 0.0
H2704 H 0.33951 0.12497 0.37545 0.0
H2705 H 0.34629 0.12735 0.57336 0.0
C2706 C 0.32376 0.11437 0.58121 0.0
C2707 C 0.31096 0.10614 0.5526 0.0
C2708 C 0.34931 0.12815 0.39765 0.0
C2709 C 0.33632 0.11993 0.49107 0.0
C2710 C 0.36194 0.13404 0.36667 0.0
C2711 C 0.37474 0.13808 0.39444 0.0
C2712 C 0.34952 0.12653 0.45688 0.0
C2713 C 0.37442 0.13627 0.45373 0.0
C2714 C 0.33648 0.12118 0.55063 0.0
C2715 C 0.31135 0.10531 0.49301 0.0
N2716 N 0.36208 0.13069 0.4828 0.0
N2717 N 0.32374 0.1121 0.46445 0.0
H2718 H 0.90137 0.25979 0.38191 0.0
H2719 H 0.88892 0.19332 0.56739 0.0
H2720 H 0.86295 0.21971 0.37152 0.0
H2721 H 0.92999 0.22898 0.53321 0.0
H2722 H 0.87839 0.20366 0.50499 0.0
H2723 H 0.91161 0.24913 0.44246 0.0
C2724 C 0.89524 0.24861 0.39107 0.0
C2725 C 0.8814 0.24055 0.3707 0.0
C2726 C 0.88969 0.20928 0.5118 0.0
C2727 C 0.8928 0.22838 0.44262 0.0
C2728 C 0.89565 0.20352 0.54822 0.0
C2729 C 0.91032 0.2104 0.55603 0.0
C2730 C 0.89847 0.22206 0.4836 0.0
C2731 C 0.91862 0.22339 0.52877 0.0
C2732 C 0.90102 0.24256 0.42626 0.0
C2733 C 0.87378 0.2262 0.3852 0.0
N2734 N 0.9126 0.22877 0.49389 0.0
N2735 N 0.87951 0.22059 0.42092 0.0
H2736 H 0.0339 0.5521 0.19677 0.0
H2737 H 0.98151 0.56459 0.39334 0.0
H2738 H 0.0402 0.59327 0.23708 0.0
H2739 H 0.98266 0.52584 0.39675 0.0
H2740 H 1.00211 0.57492 0.33118 0.0
H2741 H 0.01336 0.54156 0.26072 0.0
C2742 C 0.03068 0.55886 0.21759 0.0
C2743 C 0.03864 0.57356 0.21105 0.0
C2744 C 0.99807 0.56425 0.34626 0.0
C2745 C 0.0155 0.56167 0.28532 0.0
C2746 C 0.98643 0.55842 0.38242 0.0
C2747 C 0.98061 0.54447 0.40137 0.0
C2748 C 1.00377 0.55596 0.32743 0.0
C2749 C 0.98709 0.53677 0.38435 0.0
C2750 C 0.01915 0.55288 0.2549 0.0
C2751 C 0.03427 0.58188 0.24046 0.0
N2752 N 0.99822 0.54255 0.34772 0.0
N2753 N 0.02306 0.57584 0.27621 0.0
H2754 H 0.42102 0.44933 0.22741 0.0
H2755 H 0.48902 0.45915 0.3964 0.0
H2756 H 0.4623 0.48552 0.20352 0.0
H2757 H 0.44878 0.42077 0.39408 0.0
H2758 H 0.47928 0.47011 0.33329 0.0
H2759 H 0.43111 0.4392 0.29126 0.0
C2760 C 0.43232 0.45495 0.23437 0.0
C2761 C 0.44088 0.46814 0.2092 0.0
C2762 C 0.47253 0.45937 0.34744 0.0
C2763 C 0.45251 0.4569 0.28483 0.0
C2764 C 0.478 0.45322 0.38441 0.0
C2765 C 0.46963 0.43909 0.4012 0.0
C2766 C 0.45859 0.45133 0.32743 0.0
C2767 C 0.45555 0.43174 0.38275 0.0
C2768 C 0.43807 0.44925 0.27153 0.0
C2769 C 0.4554 0.47515 0.22095 0.0
N2770 N 0.45053 0.43789 0.3468 0.0
N2771 N 0.46076 0.46952 0.25843 0.0
H2772 H 0.57885 0.04649 0.29799 0.0
H2773 H 0.54336 0.96316 0.30969 0.0
H2774 H 0.56626 0.02333 0.45523 0.0
H2775 H 0.5438 0.98512 0.15705 0.0
H2776 H 0.5531 0.98512 0.36217 0.0
H2777 H 0.56737 0.0244 0.24567 0.0
C2778 C 0.57367 0.03673 0.32175 0.0
C2779 C 0.57368 0.03682 0.38147 0.0
C2780 C 0.55106 0.98518 0.31729 0.0
C2781 C 0.56043 0.01129 0.32085 0.0
C2782 C 0.54556 0.97261 0.2868 0.0
C2783 C 0.54277 0.97219 0.22825 0.0
C2784 C 0.55404 0.99763 0.2894 0.0
C2785 C 0.5458 0.98488 0.20184 0.0
C2786 C 0.56703 0.0241 0.29154 0.0
C2787 C 0.56657 0.0238 0.40941 0.0
N2788 N 0.55136 0.9971 0.23255 0.0
N2789 N 0.56036 0.01154 0.37883 0.0
H2790 H 0.42293 0.9784 0.70676 0.0
H2791 H 0.48762 0.03106 0.90478 0.0
H2792 H 0.46257 0.97902 0.70749 0.0
H2793 H 0.45139 0.03555 0.87081 0.0
H2794 H 0.47795 0.01059 0.84025 0.0
H2795 H 0.43299 0.99885 0.76977 0.0
C2796 C 0.43394 0.98319 0.7187 0.0
C2797 C 0.44204 0.97724 0.7007 0.0
C2798 C 0.47204 0.01595 0.84763 0.0
C2799 C 0.45348 1.00026 0.77572 0.0
C2800 C 0.47741 0.02744 0.88533 0.0
C2801 C 0.47019 0.03488 0.89379 0.0
C2802 C 0.45932 0.01187 0.8186 0.0
C2803 C 0.45722 0.03002 0.86599 0.0
C2804 C 0.43963 0.99474 0.75544 0.0
C2805 C 0.45611 0.98355 0.7191 0.0
N2806 N 0.45225 0.0189 0.8297 0.0
N2807 N 0.46135 0.99462 0.75618 0.0
H2808 H 0.96644 0.42612 0.79631 0.0
H2809 H 0.04977 0.47403 0.80989 0.0
H2810 H 0.98819 0.4489 0.94749 0.0
H2811 H 0.02688 0.46373 0.65174 0.0
H2812 H 0.02759 0.4632 0.86128 0.0
H2813 H 0.98854 0.43786 0.74442 0.0
C2814 C 0.97588 0.43353 0.81899 0.0
C2815 C 0.97536 0.43644 0.87691 0.0
C2816 C 0.02737 0.46332 0.81541 0.0
C2817 C 1.00092 0.45002 0.8166 0.0
C2818 C 0.04006 0.46944 0.7857 0.0
C2819 C 0.04026 0.46972 0.72599 0.0
C2820 C 0.01461 0.45716 0.7856 0.0
C2821 C 0.02727 0.46374 0.69757 0.0
C2822 C 0.98851 0.44032 0.78887 0.0
C2823 C 0.98803 0.44626 0.90317 0.0
N2824 N 0.01496 0.45758 0.72765 0.0
N2825 N 1.0003 0.45263 0.87289 0.0
H2826 H 0.59626 0.56297 0.87986 0.0
H2827 H 0.5302 0.55198 0.69515 0.0
H2828 H 0.55555 0.52541 0.89295 0.0
H2829 H 0.56595 0.59282 0.73208 0.0
H2830 H 0.54032 0.54114 0.75704 0.0
H2831 H 0.58597 0.57356 0.81912 0.0
C2832 C 0.58503 0.55711 0.87118 0.0
C2833 C 0.57668 0.54342 0.89246 0.0
C2834 C 0.54601 0.55245 0.75092 0.0
C2835 C 0.56491 0.5552 0.82039 0.0
C2836 C 0.54038 0.5586 0.7148 0.0
C2837 C 0.54735 0.5733 0.70793 0.0
C2838 C 0.55876 0.56108 0.77969 0.0
C2839 C 0.5603 0.58144 0.73579 0.0
C2840 C 0.57919 0.56309 0.83594 0.0
C2841 C 0.56227 0.53613 0.87857 0.0
N2842 N 0.56557 0.57524 0.77032 0.0
N2843 N 0.55686 0.54204 0.84278 0.0
loop_
_geom_bond_atom_site_label_1
_geom_bond_atom_site_label_2
_geom_bond_distance
_geom_bond_site_symmetry_2
_ccdc_geom_bond_type
Co0 O3 1.970 . S
Co0 N17 1.989 . S
Co0 O25 1.967 . S
Co0 O32 1.920 . S
Co1 O4 1.966 1_554 S
Co1 N10 2.022 1_554 S
Co1 N18 1.993 . S
Co1 O26 1.941 . S
C2 O3 1.258 . S
C2 O4 1.263 1_554 S
O3 Co0 1.970 . S
O3 C2 1.258 . S
O4 Co1 1.966 1_556 S
O4 C2 1.263 1_556 S
C5 O6 1.235 . S
C5 O32 1.289 . S
O6 C5 1.235 . S
C7 C9 1.400 . S
C7 N10 1.351 . S
C7 C12 1.501 . S
C8 C9 1.387 . S
C8 N11 1.341 . S
C9 C7 1.400 . S
C9 C8 1.387 . S
N10 Co1 2.022 1_556 S
N10 C7 1.351 . S
N10 N11 1.365 . S
N11 C8 1.341 . S
N11 N10 1.365 . S
N11 H31 0.862 . S
C12 C7 1.501 . S
C12 H13 0.961 . S
C12 H14 0.961 . S
C12 H15 0.960 . S
H13 C12 0.961 . S
H14 C12 0.961 . S
H15 C12 0.960 . S
C16 N17 1.342 . S
C16 C20 1.401 . S
C16 C21 1.499 . S
N17 Co0 1.989 . S
N17 C16 1.342 . S
N17 N18 1.388 . S
N18 Co1 1.993 . S
N18 N17 1.388 . S
N18 C19 1.346 . S
C19 N18 1.346 . S
C19 C20 1.396 . S
C19 C29 1.510 . S
C20 C16 1.401 . S
C20 C19 1.396 . S
C21 C16 1.499 . S
C21 H22 0.959 . S
C21 H23 0.960 . S
C21 H24 0.961 . S
H22 C21 0.959 . S
H23 C21 0.960 . S
H24 C21 0.961 . S
O25 Co0 1.967 . S
O25 C33 1.258 . S
O26 Co1 1.941 . S
O26 C33 1.266 . S
H27 C29 0.959 . S
H28 C29 0.961 . S
C29 C19 1.510 . S
C29 H27 0.959 . S
C29 H28 0.961 . S
C29 H30 0.960 . S
H30 C29 0.960 . S
H31 N11 0.862 . S
O32 Co0 1.920 . S
O32 C5 1.289 . S
C33 O25 1.258 . S
C33 O26 1.266 . S
Co34 O37 1.970 . S
Co34 N51 1.989 . S
Co34 O59 1.967 . S
Co34 O66 1.920 . S
Co35 O38 1.966 1_554 S
Co35 N44 2.022 1_554 S
Co35 N52 1.993 . S
Co35 O60 1.941 . S
C36 O37 1.258 . S
C36 O38 1.263 1_554 S
O37 Co34 1.970 . S
O37 C36 1.258 . S
O38 Co35 1.966 1_556 S
O38 C36 1.263 1_556 S
C39 O40 1.235 . S
C39 O66 1.289 . S
O40 C39 1.235 . S
C41 C43 1.400 . S
C41 N44 1.351 . S
C41 C46 1.501 . S
C42 C43 1.387 . S
C42 N45 1.341 . S
C43 C41 1.400 . S
C43 C42 1.387 . S
N44 Co35 2.022 1_556 S
N44 C41 1.351 . S
N44 N45 1.365 . S
N45 C42 1.341 . S
N45 N44 1.365 . S
N45 H65 0.862 . S
C46 C41 1.501 . S
C46 H47 0.961 . S
C46 H48 0.961 . S
C46 H49 0.960 . S
H47 C46 0.961 . S
H48 C46 0.961 . S
H49 C46 0.960 . S
C50 N51 1.342 . S
C50 C54 1.401 . S
C50 C55 1.499 . S
N51 Co34 1.989 . S
N51 C50 1.342 . S
N51 N52 1.388 . S
N52 Co35 1.993 . S
N52 N51 1.388 . S
N52 C53 1.346 . S
C53 N52 1.346 . S
C53 C54 1.396 . S
C53 C63 1.510 . S
C54 C50 1.401 . S
C54 C53 1.396 . S
C55 C50 1.499 . S
C55 H56 0.959 . S
C55 H57 0.960 . S
C55 H58 0.961 . S
H56 C55 0.959 . S
H57 C55 0.960 . S
H58 C55 0.961 . S
O59 Co34 1.967 . S
O59 C67 1.258 . S
O60 Co35 1.941 . S
O60 C67 1.266 . S
H61 C63 0.959 . S
H62 C63 0.961 . S
C63 C53 1.510 . S
C63 H61 0.959 . S
C63 H62 0.961 . S
C63 H64 0.960 . S
H64 C63 0.960 . S
H65 N45 0.862 . S
O66 Co34 1.920 . S
O66 C39 1.289 . S
C67 O59 1.258 . S
C67 O60 1.266 . S
Co68 O71 1.970 . S
Co68 N85 1.989 . S
Co68 O93 1.967 . S
Co68 O100 1.920 . S
Co69 O72 1.966 1_554 S
Co69 N78 2.022 1_554 S
Co69 N86 1.993 . S
Co69 O94 1.941 . S
C70 O71 1.258 . S
C70 O72 1.263 1_554 S
O71 Co68 1.970 . S
O71 C70 1.258 . S
O72 Co69 1.966 1_556 S
O72 C70 1.263 1_556 S
C73 O74 1.235 . S
C73 O100 1.289 . S
O74 C73 1.235 . S
C75 C77 1.400 . S
C75 N78 1.351 . S
C75 C80 1.501 . S
C76 C77 1.387 . S
C76 N79 1.341 . S
C77 C75 1.400 . S
C77 C76 1.387 . S
N78 Co69 2.022 1_556 S
N78 C75 1.351 . S
N78 N79 1.365 . S
N79 C76 1.341 . S
N79 N78 1.365 . S
N79 H99 0.862 . S
C80 C75 1.501 . S
C80 H81 0.961 . S
C80 H82 0.961 . S
C80 H83 0.960 . S
H81 C80 0.961 . S
H82 C80 0.961 . S
H83 C80 0.960 . S
C84 N85 1.342 . S
C84 C88 1.401 . S
C84 C89 1.499 . S
N85 Co68 1.989 . S
N85 C84 1.342 . S
N85 N86 1.388 . S
N86 Co69 1.993 . S
N86 N85 1.388 . S
N86 C87 1.346 . S
C87 N86 1.346 . S
C87 C88 1.396 . S
C87 C97 1.510 . S
C88 C84 1.401 . S
C88 C87 1.396 . S
C89 C84 1.499 . S
C89 H90 0.959 . S
C89 H91 0.960 . S
C89 H92 0.961 . S
H90 C89 0.959 . S
H91 C89 0.960 . S
H92 C89 0.961 . S
O93 Co68 1.967 . S
O93 C101 1.258 . S
O94 Co69 1.941 . S
O94 C101 1.266 . S
H95 C97 0.959 . S
H96 C97 0.961 . S
C97 C87 1.510 . S
C97 H95 0.959 . S
C97 H96 0.961 . S
C97 H98 0.960 . S
H98 C97 0.960 . S
H99 N79 0.862 . S
O100 Co68 1.920 . S
O100 C73 1.289 . S
C101 O93 1.258 . S
C101 O94 1.266 . S
Co102 O105 1.970 . S
Co102 N119 1.989 . S
Co102 O127 1.967 . S
Co102 O134 1.920 . S
Co103 O106 1.966 . S
Co103 N112 2.022 . S
Co103 N120 1.993 . S
Co103 O128 1.941 . S
C104 O105 1.258 . S
C104 O106 1.263 . S
O105 Co102 1.970 . S
O105 C104 1.258 . S
O106 Co103 1.966 . S
O106 C104 1.263 . S
C107 O108 1.235 . S
C107 O134 1.289 . S
O108 C107 1.235 . S
C109 C111 1.400 . S
C109 N112 1.351 . S
C109 C114 1.501 . S
C110 C111 1.387 . S
C110 N113 1.341 . S
C111 C109 1.400 . S
C111 C110 1.387 . S
N112 Co103 2.022 . S
N112 C109 1.351 . S
N112 N113 1.365 . S
N113 C110 1.341 . S
N113 N112 1.365 . S
N113 H133 0.862 . S
C114 C109 1.501 . S
C114 H115 0.961 . S
C114 H116 0.961 . S
C114 H117 0.960 . S
H115 C114 0.961 . S
H116 C114 0.961 . S
H117 C114 0.960 . S
C118 N119 1.342 . S
C118 C122 1.401 . S
C118 C123 1.499 . S
N119 Co102 1.989 . S
N119 C118 1.342 . S
N119 N120 1.388 . S
N120 Co103 1.993 . S
N120 N119 1.388 . S
N120 C121 1.346 . S
C121 N120 1.346 . S
C121 C122 1.396 . S
C121 C131 1.510 . S
C122 C118 1.401 . S
C122 C121 1.396 . S
C123 C118 1.499 . S
C123 H124 0.959 . S
C123 H125 0.960 . S
C123 H126 0.961 . S
H124 C123 0.959 . S
H125 C123 0.960 . S
H126 C123 0.961 . S
O127 Co102 1.967 . S
O127 C135 1.258 . S
O128 Co103 1.941 . S
O128 C135 1.266 . S
H129 C131 0.959 . S
H130 C131 0.961 . S
C131 C121 1.510 . S
C131 H129 0.959 . S
C131 H130 0.961 . S
C131 H132 0.960 . S
H132 C131 0.960 . S
H133 N113 0.862 . S
O134 Co102 1.920 . S
O134 C107 1.289 . S
C135 O127 1.258 . S
C135 O128 1.266 . S
Co136 O139 1.970 . S
Co136 N153 1.989 . S
Co136 O161 1.967 . S
Co136 O168 1.920 . S
Co137 O140 1.966 . S
Co137 N146 2.022 . S
Co137 N154 1.993 . S
Co137 O162 1.941 . S
C138 O139 1.258 . S
C138 O140 1.263 . S
O139 Co136 1.970 . S
O139 C138 1.258 . S
O140 Co137 1.966 . S
O140 C138 1.263 . S
C141 O142 1.235 . S
C141 O168 1.289 . S
O142 C141 1.235 . S
C143 C145 1.400 . S
C143 N146 1.351 . S
C143 C148 1.501 . S
C144 C145 1.387 . S
C144 N147 1.341 . S
C145 C143 1.400 . S
C145 C144 1.387 . S
N146 Co137 2.022 . S
N146 C143 1.351 . S
N146 N147 1.365 . S
N147 C144 1.341 . S
N147 N146 1.365 . S
N147 H167 0.862 . S
C148 C143 1.501 . S
C148 H149 0.961 . S
C148 H150 0.961 . S
C148 H151 0.960 . S
H149 C148 0.961 . S
H150 C148 0.961 . S
H151 C148 0.960 . S
C152 N153 1.342 . S
C152 C156 1.401 . S
C152 C157 1.499 . S
N153 Co136 1.989 . S
N153 C152 1.342 . S
N153 N154 1.388 . S
N154 Co137 1.993 . S
N154 N153 1.388 . S
N154 C155 1.346 . S
C155 N154 1.346 . S
C155 C156 1.396 . S
C155 C165 1.510 . S
C156 C152 1.401 . S
C156 C155 1.396 . S
C157 C152 1.499 . S
C157 H158 0.959 . S
C157 H159 0.960 . S
C157 H160 0.961 . S
H158 C157 0.959 . S
H159 C157 0.960 . S
H160 C157 0.961 . S
O161 Co136 1.967 . S
O161 C169 1.258 . S
O162 Co137 1.941 . S
O162 C169 1.266 . S
H163 C165 0.959 . S
H164 C165 0.961 . S
C165 C155 1.510 . S
C165 H163 0.959 . S
C165 H164 0.961 . S
C165 H166 0.960 . S
H166 C165 0.960 . S
H167 N147 0.862 . S
O168 Co136 1.920 . S
O168 C141 1.289 . S
C169 O161 1.258 . S
C169 O162 1.266 . S
Co170 O173 1.970 . S
Co170 N187 1.989 . S
Co170 O195 1.967 . S
Co170 O202 1.920 . S
Co171 O174 1.966 . S
Co171 N180 2.022 . S
Co171 N188 1.993 . S
Co171 O196 1.941 . S
C172 O173 1.258 . S
C172 O174 1.263 . S
O173 Co170 1.970 . S
O173 C172 1.258 . S
O174 Co171 1.966 . S
O174 C172 1.263 . S
C175 O176 1.235 . S
C175 O202 1.289 . S
O176 C175 1.235 . S
C177 C179 1.400 . S
C177 N180 1.351 . S
C177 C182 1.501 . S
C178 C179 1.387 . S
C178 N181 1.341 . S
C179 C177 1.400 . S
C179 C178 1.387 . S
N180 Co171 2.022 . S
N180 C177 1.351 . S
N180 N181 1.365 . S
N181 C178 1.341 . S
N181 N180 1.365 . S
N181 H201 0.862 . S
C182 C177 1.501 . S
C182 H183 0.961 . S
C182 H184 0.961 . S
C182 H185 0.960 . S
H183 C182 0.961 . S
H184 C182 0.961 . S
H185 C182 0.960 . S
C186 N187 1.342 . S
C186 C190 1.401 . S
C186 C191 1.499 . S
N187 Co170 1.989 . S
N187 C186 1.342 . S
N187 N188 1.388 . S
N188 Co171 1.993 . S
N188 N187 1.388 . S
N188 C189 1.346 . S
C189 N188 1.346 . S
C189 C190 1.396 . S
C189 C199 1.510 . S
C190 C186 1.401 . S
C190 C189 1.396 . S
C191 C186 1.499 . S
C191 H192 0.959 . S
C191 H193 0.960 . S
C191 H194 0.961 . S
H192 C191 0.959 . S
H193 C191 0.960 . S
H194 C191 0.961 . S
O195 Co170 1.967 . S
O195 C203 1.258 . S
O196 Co171 1.941 . S
O196 C203 1.266 . S
H197 C199 0.959 . S
H198 C199 0.961 . S
C199 C189 1.510 . S
C199 H197 0.959 . S
C199 H198 0.961 . S
C199 H200 0.960 . S
H200 C199 0.960 . S
H201 N181 0.862 . S
O202 Co170 1.920 . S
O202 C175 1.289 . S
C203 O195 1.258 . S
C203 O196 1.266 . S
Co204 O207 1.970 1_556 S
Co204 N221 1.989 . S
Co204 O229 1.967 1_556 S
Co204 O236 1.920 . S
Co205 O208 1.966 . S
Co205 N214 2.022 . S
Co205 N222 1.993 . S
Co205 O230 1.941 . S
C206 O207 1.258 . S
C206 O208 1.263 . S
O207 Co204 1.970 1_554 S
O207 C206 1.258 . S
O208 Co205 1.966 . S
O208 C206 1.263 . S
C209 O210 1.235 . S
C209 O236 1.289 . S
O210 C209 1.235 . S
C211 C213 1.400 . S
C211 N214 1.351 . S
C211 C216 1.501 . S
C212 C213 1.387 . S
C212 N215 1.341 . S
C213 C211 1.400 . S
C213 C212 1.387 . S
N214 Co205 2.022 . S
N214 C211 1.351 . S
N214 N215 1.365 . S
N215 C212 1.341 . S
N215 N214 1.365 . S
N215 H235 0.862 . S
C216 C211 1.501 . S
C216 H217 0.961 . S
C216 H218 0.961 . S
C216 H219 0.960 . S
H217 C216 0.961 . S
H218 C216 0.961 . S
H219 C216 0.960 . S
C220 N221 1.342 . S
C220 C224 1.401 . S
C220 C225 1.499 . S
N221 Co204 1.989 . S
N221 C220 1.342 . S
N221 N222 1.388 1_556 S
N222 Co205 1.993 . S
N222 N221 1.388 1_554 S
N222 C223 1.346 1_554 S
C223 N222 1.346 1_556 S
C223 C224 1.396 . S
C223 C233 1.510 1_556 S
C224 C220 1.401 . S
C224 C223 1.396 . S
C225 C220 1.499 . S
C225 H226 0.959 . S
C225 H227 0.960 . S
C225 H228 0.961 . S
H226 C225 0.959 . S
H227 C225 0.960 . S
H228 C225 0.961 . S
O229 Co204 1.967 1_554 S
O229 C237 1.258 . S
O230 Co205 1.941 . S
O230 C237 1.266 . S
H231 C233 0.959 . S
H232 C233 0.961 . S
C233 C223 1.510 1_554 S
C233 H231 0.959 . S
C233 H232 0.961 . S
C233 H234 0.960 . S
H234 C233 0.960 . S
H235 N215 0.862 . S
O236 Co204 1.920 . S
O236 C209 1.289 . S
C237 O229 1.258 . S
C237 O230 1.266 . S
Co238 O241 1.970 1_556 S
Co238 N255 1.989 . S
Co238 O263 1.967 1_556 S
Co238 O270 1.920 . S
Co239 O242 1.966 . S
Co239 N248 2.022 . S
Co239 N256 1.993 . S
Co239 O264 1.941 . S
C240 O241 1.258 . S
C240 O242 1.263 . S
O241 Co238 1.970 1_554 S
O241 C240 1.258 . S
O242 Co239 1.966 . S
O242 C240 1.263 . S
C243 O244 1.235 . S
C243 O270 1.289 . S
O244 C243 1.235 . S
C245 C247 1.400 . S
C245 N248 1.351 . S
C245 C250 1.501 . S
C246 C247 1.387 . S
C246 N249 1.341 . S
C247 C245 1.400 . S
C247 C246 1.387 . S
N248 Co239 2.022 . S
N248 C245 1.351 . S
N248 N249 1.365 . S
N249 C246 1.341 . S
N249 N248 1.365 . S
N249 H269 0.862 . S
C250 C245 1.501 . S
C250 H251 0.961 . S
C250 H252 0.961 . S
C250 H253 0.960 . S
H251 C250 0.961 . S
H252 C250 0.961 . S
H253 C250 0.960 . S
C254 N255 1.342 . S
C254 C258 1.401 . S
C254 C259 1.499 . S
N255 Co238 1.989 . S
N255 C254 1.342 . S
N255 N256 1.388 1_556 S
N256 Co239 1.993 . S
N256 N255 1.388 1_554 S
N256 C257 1.346 1_554 S
C257 N256 1.346 1_556 S
C257 C258 1.396 . S
C257 C267 1.510 1_556 S
C258 C254 1.401 . S
C258 C257 1.396 . S
C259 C254 1.499 . S
C259 H260 0.959 . S
C259 H261 0.960 . S
C259 H262 0.961 . S
H260 C259 0.959 . S
H261 C259 0.960 . S
H262 C259 0.961 . S
O263 Co238 1.967 1_554 S
O263 C271 1.258 . S
O264 Co239 1.941 . S
O264 C271 1.266 . S
H265 C267 0.959 . S
H266 C267 0.961 . S
C267 C257 1.510 1_554 S
C267 H265 0.959 . S
C267 H266 0.961 . S
C267 H268 0.960 . S
H268 C267 0.960 . S
H269 N249 0.862 . S
O270 Co238 1.920 . S
O270 C243 1.289 . S
C271 O263 1.258 . S
C271 O264 1.266 . S
Co272 O275 1.970 1_556 S
Co272 N289 1.989 . S
Co272 O297 1.967 1_556 S
Co272 O304 1.920 . S
Co273 O276 1.966 . S
Co273 N282 2.022 . S
Co273 N290 1.993 . S
Co273 O298 1.941 . S
C274 O275 1.258 . S
C274 O276 1.263 . S
O275 Co272 1.970 1_554 S
O275 C274 1.258 . S
O276 Co273 1.966 . S
O276 C274 1.263 . S
C277 O278 1.235 . S
C277 O304 1.289 . S
O278 C277 1.235 . S
C279 C281 1.400 . S
C279 N282 1.351 . S
C279 C284 1.501 . S
C280 C281 1.387 . S
C280 N283 1.341 . S
C281 C279 1.400 . S
C281 C280 1.387 . S
N282 Co273 2.022 . S
N282 C279 1.351 . S
N282 N283 1.365 . S
N283 C280 1.341 . S
N283 N282 1.365 . S
N283 H303 0.862 . S
C284 C279 1.501 . S
C284 H285 0.961 . S
C284 H286 0.961 . S
C284 H287 0.960 . S
H285 C284 0.961 . S
H286 C284 0.961 . S
H287 C284 0.960 . S
C288 N289 1.342 . S
C288 C292 1.401 . S
C288 C293 1.499 . S
N289 Co272 1.989 . S
N289 C288 1.342 . S
N289 N290 1.388 1_556 S
N290 Co273 1.993 . S
N290 N289 1.388 1_554 S
N290 C291 1.346 1_554 S
C291 N290 1.346 1_556 S
C291 C292 1.396 . S
C291 C301 1.510 1_556 S
C292 C288 1.401 . S
C292 C291 1.396 . S
C293 C288 1.499 . S
C293 H294 0.959 . S
C293 H295 0.960 . S
C293 H296 0.961 . S
H294 C293 0.959 . S
H295 C293 0.960 . S
H296 C293 0.961 . S
O297 Co272 1.967 1_554 S
O297 C305 1.258 . S
O298 Co273 1.941 . S
O298 C305 1.266 . S
H299 C301 0.959 . S
H300 C301 0.961 . S
C301 C291 1.510 1_554 S
C301 H299 0.959 . S
C301 H300 0.961 . S
C301 H302 0.960 . S
H302 C301 0.960 . S
H303 N283 0.862 . S
O304 Co272 1.920 . S
O304 C277 1.289 . S
C305 O297 1.258 . S
C305 O298 1.266 . S
Co306 O309 1.970 . S
Co306 N323 1.989 . S
Co306 O331 1.967 . S
Co306 O338 1.920 . S
Co307 O310 1.966 . S
Co307 N316 2.022 . S
Co307 N324 1.993 . S
Co307 O332 1.941 . S
C308 O309 1.258 . S
C308 O310 1.263 . S
O309 Co306 1.970 . S
O309 C308 1.258 . S
O310 Co307 1.966 . S
O310 C308 1.263 . S
C311 O312 1.235 . S
C311 O338 1.289 . S
O312 C311 1.235 . S
C313 C315 1.400 . S
C313 N316 1.351 . S
C313 C318 1.501 . S
C314 C315 1.387 . S
C314 N317 1.341 . S
C315 C313 1.400 . S
C315 C314 1.387 . S
N316 Co307 2.022 . S
N316 C313 1.351 . S
N316 N317 1.365 . S
N317 C314 1.341 . S
N317 N316 1.365 . S
N317 H337 0.862 . S
C318 C313 1.501 . S
C318 H319 0.961 . S
C318 H320 0.961 . S
C318 H321 0.960 . S
H319 C318 0.961 . S
H320 C318 0.961 . S
H321 C318 0.960 . S
C322 N323 1.342 . S
C322 C326 1.401 . S
C322 C327 1.499 . S
N323 Co306 1.989 . S
N323 C322 1.342 . S
N323 N324 1.388 . S
N324 Co307 1.993 . S
N324 N323 1.388 . S
N324 C325 1.346 . S
C325 N324 1.346 . S
C325 C326 1.396 . S
C325 C335 1.510 . S
C326 C322 1.401 . S
C326 C325 1.396 . S
C327 C322 1.499 . S
C327 H328 0.959 . S
C327 H329 0.960 . S
C327 H330 0.961 . S
H328 C327 0.959 . S
H329 C327 0.960 . S
H330 C327 0.961 . S
O331 Co306 1.967 . S
O331 C339 1.258 . S
O332 Co307 1.941 . S
O332 C339 1.266 . S
H333 C335 0.959 . S
H334 C335 0.961 . S
C335 C325 1.510 . S
C335 H333 0.959 . S
C335 H334 0.961 . S
C335 H336 0.960 . S
H336 C335 0.960 . S
H337 N317 0.862 . S
O338 Co306 1.920 . S
O338 C311 1.289 . S
C339 O331 1.258 . S
C339 O332 1.266 . S
Co340 O343 1.970 . S
Co340 N357 1.989 . S
Co340 O365 1.967 . S
Co340 O372 1.920 . S
Co341 O344 1.966 . S
Co341 N350 2.022 . S
Co341 N358 1.993 . S
Co341 O366 1.941 . S
C342 O343 1.258 . S
C342 O344 1.263 . S
O343 Co340 1.970 . S
O343 C342 1.258 . S
O344 Co341 1.966 . S
O344 C342 1.263 . S
C345 O346 1.235 . S
C345 O372 1.289 . S
O346 C345 1.235 . S
C347 C349 1.400 . S
C347 N350 1.351 . S
C347 C352 1.501 . S
C348 C349 1.387 . S
C348 N351 1.341 . S
C349 C347 1.400 . S
C349 C348 1.387 . S
N350 Co341 2.022 . S
N350 C347 1.351 . S
N350 N351 1.365 . S
N351 C348 1.341 . S
N351 N350 1.365 . S
N351 H371 0.862 . S
C352 C347 1.501 . S
C352 H353 0.961 . S
C352 H354 0.961 . S
C352 H355 0.960 . S
H353 C352 0.961 . S
H354 C352 0.961 . S
H355 C352 0.960 . S
C356 N357 1.342 . S
C356 C360 1.401 . S
C356 C361 1.499 . S
N357 Co340 1.989 . S
N357 C356 1.342 . S
N357 N358 1.388 . S
N358 Co341 1.993 . S
N358 N357 1.388 . S
N358 C359 1.346 . S
C359 N358 1.346 . S
C359 C360 1.396 . S
C359 C369 1.510 . S
C360 C356 1.401 . S
C360 C359 1.396 . S
C361 C356 1.499 . S
C361 H362 0.959 . S
C361 H363 0.960 . S
C361 H364 0.961 . S
H362 C361 0.959 . S
H363 C361 0.960 . S
H364 C361 0.961 . S
O365 Co340 1.967 . S
O365 C373 1.258 . S
O366 Co341 1.941 . S
O366 C373 1.266 . S
H367 C369 0.959 . S
H368 C369 0.961 . S
C369 C359 1.510 . S
C369 H367 0.959 . S
C369 H368 0.961 . S
C369 H370 0.960 . S
H370 C369 0.960 . S
H371 N351 0.862 . S
O372 Co340 1.920 . S
O372 C345 1.289 . S
C373 O365 1.258 . S
C373 O366 1.266 . S
Co374 O377 1.970 . S
Co374 N391 1.989 . S
Co374 O399 1.967 . S
Co374 O406 1.920 . S
Co375 O378 1.966 . S
Co375 N384 2.022 . S
Co375 N392 1.993 . S
Co375 O400 1.941 . S
C376 O377 1.258 . S
C376 O378 1.263 . S
O377 Co374 1.970 . S
O377 C376 1.258 . S
O378 Co375 1.966 . S
O378 C376 1.263 . S
C379 O380 1.235 . S
C379 O406 1.289 . S
O380 C379 1.235 . S
C381 C383 1.400 . S
C381 N384 1.351 . S
C381 C386 1.501 . S
C382 C383 1.387 . S
C382 N385 1.341 . S
C383 C381 1.400 . S
C383 C382 1.387 . S
N384 Co375 2.022 . S
N384 C381 1.351 . S
N384 N385 1.365 . S
N385 C382 1.341 . S
N385 N384 1.365 . S
N385 H405 0.862 . S
C386 C381 1.501 . S
C386 H387 0.961 . S
C386 H388 0.961 . S
C386 H389 0.960 . S
H387 C386 0.961 . S
H388 C386 0.961 . S
H389 C386 0.960 . S
C390 N391 1.342 . S
C390 C394 1.401 . S
C390 C395 1.499 . S
N391 Co374 1.989 . S
N391 C390 1.342 . S
N391 N392 1.388 . S
N392 Co375 1.993 . S
N392 N391 1.388 . S
N392 C393 1.346 . S
C393 N392 1.346 . S
C393 C394 1.396 . S
C393 C403 1.510 . S
C394 C390 1.401 . S
C394 C393 1.396 . S
C395 C390 1.499 . S
C395 H396 0.959 . S
C395 H397 0.960 . S
C395 H398 0.961 . S
H396 C395 0.959 . S
H397 C395 0.960 . S
H398 C395 0.961 . S
O399 Co374 1.967 . S
O399 C407 1.258 . S
O400 Co375 1.941 . S
O400 C407 1.266 . S
H401 C403 0.959 . S
H402 C403 0.961 . S
C403 C393 1.510 . S
C403 H401 0.959 . S
C403 H402 0.961 . S
C403 H404 0.960 . S
H404 C403 0.960 . S
H405 N385 0.862 . S
O406 Co374 1.920 . S
O406 C379 1.289 . S
C407 O399 1.258 . S
C407 O400 1.266 . S
Co408 O411 1.970 . S
Co408 N425 1.989 . S
Co408 O433 1.967 . S
Co408 O440 1.920 . S
Co409 O412 1.966 . S
Co409 N418 2.022 . S
Co409 N426 1.993 . S
Co409 O434 1.941 . S
C410 O411 1.258 . S
C410 O412 1.263 . S
O411 Co408 1.970 . S
O411 C410 1.258 . S
O412 Co409 1.966 . S
O412 C410 1.263 . S
C413 O414 1.235 . S
C413 O440 1.289 . S
O414 C413 1.235 . S
C415 C417 1.400 . S
C415 N418 1.351 . S
C415 C420 1.501 . S
C416 C417 1.387 . S
C416 N419 1.341 . S
C417 C415 1.400 . S
C417 C416 1.387 . S
N418 Co409 2.022 . S
N418 C415 1.351 . S
N418 N419 1.365 . S
N419 C416 1.341 . S
N419 N418 1.365 . S
N419 H439 0.862 . S
C420 C415 1.501 . S
C420 H421 0.961 . S
C420 H422 0.961 . S
C420 H423 0.960 . S
H421 C420 0.961 . S
H422 C420 0.961 . S
H423 C420 0.960 . S
C424 N425 1.342 . S
C424 C428 1.401 . S
C424 C429 1.499 . S
N425 Co408 1.989 . S
N425 C424 1.342 . S
N425 N426 1.388 . S
N426 Co409 1.993 . S
N426 N425 1.388 . S
N426 C427 1.346 . S
C427 N426 1.346 . S
C427 C428 1.396 . S
C427 C437 1.510 . S
C428 C424 1.401 . S
C428 C427 1.396 . S
C429 C424 1.499 . S
C429 H430 0.959 . S
C429 H431 0.960 . S
C429 H432 0.961 . S
H430 C429 0.959 . S
H431 C429 0.960 . S
H432 C429 0.961 . S
O433 Co408 1.967 . S
O433 C441 1.258 . S
O434 Co409 1.941 . S
O434 C441 1.266 . S
H435 C437 0.959 . S
H436 C437 0.961 . S
C437 C427 1.510 . S
C437 H435 0.959 . S
C437 H436 0.961 . S
C437 H438 0.960 . S
H438 C437 0.960 . S
H439 N419 0.862 . S
O440 Co408 1.920 . S
O440 C413 1.289 . S
C441 O433 1.258 . S
C441 O434 1.266 . S
Co442 O445 1.970 . S
Co442 N459 1.989 . S
Co442 O467 1.967 . S
Co442 O474 1.920 . S
Co443 O446 1.966 . S
Co443 N452 2.022 . S
Co443 N460 1.993 . S
Co443 O468 1.941 . S
C444 O445 1.258 . S
C444 O446 1.263 . S
O445 Co442 1.970 . S
O445 C444 1.258 . S
O446 Co443 1.966 . S
O446 C444 1.263 . S
C447 O448 1.235 . S
C447 O474 1.289 . S
O448 C447 1.235 . S
C449 C451 1.400 . S
C449 N452 1.351 . S
C449 C454 1.501 . S
C450 C451 1.387 . S
C450 N453 1.341 . S
C451 C449 1.400 . S
C451 C450 1.387 . S
N452 Co443 2.022 . S
N452 C449 1.351 . S
N452 N453 1.365 . S
N453 C450 1.341 . S
N453 N452 1.365 . S
N453 H473 0.862 . S
C454 C449 1.501 . S
C454 H455 0.961 . S
C454 H456 0.961 . S
C454 H457 0.960 . S
H455 C454 0.961 . S
H456 C454 0.961 . S
H457 C454 0.960 . S
C458 N459 1.342 . S
C458 C462 1.401 . S
C458 C463 1.499 . S
N459 Co442 1.989 . S
N459 C458 1.342 . S
N459 N460 1.388 . S
N460 Co443 1.993 . S
N460 N459 1.388 . S
N460 C461 1.346 . S
C461 N460 1.346 . S
C461 C462 1.396 . S
C461 C471 1.510 . S
C462 C458 1.401 . S
C462 C461 1.396 . S
C463 C458 1.499 . S
C463 H464 0.959 . S
C463 H465 0.960 . S
C463 H466 0.961 . S
H464 C463 0.959 . S
H465 C463 0.960 . S
H466 C463 0.961 . S
O467 Co442 1.967 . S
O467 C475 1.258 . S
O468 Co443 1.941 . S
O468 C475 1.266 . S
H469 C471 0.959 . S
H470 C471 0.961 . S
C471 C461 1.510 . S
C471 H469 0.959 . S
C471 H470 0.961 . S
C471 H472 0.960 . S
H472 C471 0.960 . S
H473 N453 0.862 . S
O474 Co442 1.920 . S
O474 C447 1.289 . S
C475 O467 1.258 . S
C475 O468 1.266 . S
Co476 O479 1.970 . S
Co476 N493 1.989 . S
Co476 O501 1.967 . S
Co476 O508 1.920 . S
Co477 O480 1.966 . S
Co477 N486 2.022 . S
Co477 N494 1.993 . S
Co477 O502 1.941 . S
C478 O479 1.258 . S
C478 O480 1.263 . S
O479 Co476 1.970 . S
O479 C478 1.258 . S
O480 Co477 1.966 . S
O480 C478 1.263 . S
C481 O482 1.235 . S
C481 O508 1.289 . S
O482 C481 1.235 . S
C483 C485 1.400 . S
C483 N486 1.351 . S
C483 C488 1.501 . S
C484 C485 1.387 . S
C484 N487 1.341 . S
C485 C483 1.400 . S
C485 C484 1.387 . S
N486 Co477 2.022 . S
N486 C483 1.351 . S
N486 N487 1.365 . S
N487 C484 1.341 . S
N487 N486 1.365 . S
N487 H507 0.862 . S
C488 C483 1.501 . S
C488 H489 0.961 . S
C488 H490 0.961 . S
C488 H491 0.960 . S
H489 C488 0.961 . S
H490 C488 0.961 . S
H491 C488 0.960 . S
C492 N493 1.342 . S
C492 C496 1.401 . S
C492 C497 1.499 . S
N493 Co476 1.989 . S
N493 C492 1.342 . S
N493 N494 1.388 . S
N494 Co477 1.993 . S
N494 N493 1.388 . S
N494 C495 1.346 . S
C495 N494 1.346 . S
C495 C496 1.396 . S
C495 C505 1.510 . S
C496 C492 1.401 . S
C496 C495 1.396 . S
C497 C492 1.499 . S
C497 H498 0.959 . S
C497 H499 0.960 . S
C497 H500 0.961 . S
H498 C497 0.959 . S
H499 C497 0.960 . S
H500 C497 0.961 . S
O501 Co476 1.967 . S
O501 C509 1.258 . S
O502 Co477 1.941 . S
O502 C509 1.266 . S
H503 C505 0.959 . S
H504 C505 0.961 . S
C505 C495 1.510 . S
C505 H503 0.959 . S
C505 H504 0.961 . S
C505 H506 0.960 . S
H506 C505 0.960 . S
H507 N487 0.862 . S
O508 Co476 1.920 . S
O508 C481 1.289 . S
C509 O501 1.258 . S
C509 O502 1.266 . S
Co510 O513 1.970 . S
Co510 N527 1.989 . S
Co510 O535 1.967 . S
Co510 O542 1.920 . S
Co511 O514 1.966 . S
Co511 N520 2.022 . S
Co511 N528 1.993 . S
Co511 O536 1.941 . S
C512 O513 1.258 . S
C512 O514 1.263 . S
O513 Co510 1.970 . S
O513 C512 1.258 . S
O514 Co511 1.966 . S
O514 C512 1.263 . S
C515 O516 1.235 . S
C515 O542 1.289 . S
O516 C515 1.235 . S
C517 C519 1.400 . S
C517 N520 1.351 1_554 S
C517 C522 1.501 . S
C518 C519 1.387 1_556 S
C518 N521 1.341 . S
C519 C517 1.400 . S
C519 C518 1.387 1_554 S
N520 Co511 2.022 . S
N520 C517 1.351 1_556 S
N520 N521 1.365 . S
N521 C518 1.341 . S
N521 N520 1.365 . S
N521 H541 0.862 . S
C522 C517 1.501 . S
C522 H523 0.961 . S
C522 H524 0.961 . S
C522 H525 0.960 . S
H523 C522 0.961 . S
H524 C522 0.961 . S
H525 C522 0.960 . S
C526 N527 1.342 . S
C526 C530 1.401 . S
C526 C531 1.499 . S
N527 Co510 1.989 . S
N527 C526 1.342 . S
N527 N528 1.388 . S
N528 Co511 1.993 . S
N528 N527 1.388 . S
N528 C529 1.346 . S
C529 N528 1.346 . S
C529 C530 1.396 . S
C529 C539 1.510 . S
C530 C526 1.401 . S
C530 C529 1.396 . S
C531 C526 1.499 . S
C531 H532 0.959 . S
C531 H533 0.960 . S
C531 H534 0.961 . S
H532 C531 0.959 . S
H533 C531 0.960 . S
H534 C531 0.961 . S
O535 Co510 1.967 . S
O535 C543 1.258 . S
O536 Co511 1.941 . S
O536 C543 1.266 . S
H537 C539 0.959 . S
H538 C539 0.961 . S
C539 C529 1.510 . S
C539 H537 0.959 . S
C539 H538 0.961 . S
C539 H540 0.960 . S
H540 C539 0.960 . S
H541 N521 0.862 . S
O542 Co510 1.920 . S
O542 C515 1.289 . S
C543 O535 1.258 . S
C543 O536 1.266 . S
Co544 O547 1.970 . S
Co544 N561 1.989 . S
Co544 O569 1.967 . S
Co544 O576 1.920 . S
Co545 O548 1.966 . S
Co545 N554 2.022 . S
Co545 N562 1.993 . S
Co545 O570 1.941 . S
C546 O547 1.258 . S
C546 O548 1.263 . S
O547 Co544 1.970 . S
O547 C546 1.258 . S
O548 Co545 1.966 . S
O548 C546 1.263 . S
C549 O550 1.235 . S
C549 O576 1.289 . S
O550 C549 1.235 . S
C551 C553 1.400 . S
C551 N554 1.351 1_554 S
C551 C556 1.501 . S
C552 C553 1.387 1_556 S
C552 N555 1.341 . S
C553 C551 1.400 . S
C553 C552 1.387 1_554 S
N554 Co545 2.022 . S
N554 C551 1.351 1_556 S
N554 N555 1.365 . S
N555 C552 1.341 . S
N555 N554 1.365 . S
N555 H575 0.862 . S
C556 C551 1.501 . S
C556 H557 0.961 . S
C556 H558 0.961 . S
C556 H559 0.960 . S
H557 C556 0.961 . S
H558 C556 0.961 . S
H559 C556 0.960 . S
C560 N561 1.342 . S
C560 C564 1.401 . S
C560 C565 1.499 . S
N561 Co544 1.989 . S
N561 C560 1.342 . S
N561 N562 1.388 . S
N562 Co545 1.993 . S
N562 N561 1.388 . S
N562 C563 1.346 . S
C563 N562 1.346 . S
C563 C564 1.396 . S
C563 C573 1.510 . S
C564 C560 1.401 . S
C564 C563 1.396 . S
C565 C560 1.499 . S
C565 H566 0.959 . S
C565 H567 0.960 . S
C565 H568 0.961 . S
H566 C565 0.959 . S
H567 C565 0.960 . S
H568 C565 0.961 . S
O569 Co544 1.967 . S
O569 C577 1.258 . S
O570 Co545 1.941 . S
O570 C577 1.266 . S
H571 C573 0.959 . S
H572 C573 0.961 . S
C573 C563 1.510 . S
C573 H571 0.959 . S
C573 H572 0.961 . S
C573 H574 0.960 . S
H574 C573 0.960 . S
H575 N555 0.862 . S
O576 Co544 1.920 . S
O576 C549 1.289 . S
C577 O569 1.258 . S
C577 O570 1.266 . S
Co578 O581 1.970 . S
Co578 N595 1.989 . S
Co578 O603 1.967 . S
Co578 O610 1.920 . S
Co579 O582 1.966 . S
Co579 N588 2.022 . S
Co579 N596 1.993 . S
Co579 O604 1.941 . S
C580 O581 1.258 . S
C580 O582 1.263 . S
O581 Co578 1.970 . S
O581 C580 1.258 . S
O582 Co579 1.966 . S
O582 C580 1.263 . S
C583 O584 1.235 . S
C583 O610 1.289 . S
O584 C583 1.235 . S
C585 C587 1.400 . S
C585 N588 1.351 1_554 S
C585 C590 1.501 . S
C586 C587 1.387 1_556 S
C586 N589 1.341 . S
C587 C585 1.400 . S
C587 C586 1.387 1_554 S
N588 Co579 2.022 . S
N588 C585 1.351 1_556 S
N588 N589 1.365 . S
N589 C586 1.341 . S
N589 N588 1.365 . S
N589 H609 0.862 . S
C590 C585 1.501 . S
C590 H591 0.961 . S
C590 H592 0.961 . S
C590 H593 0.960 . S
H591 C590 0.961 . S
H592 C590 0.961 . S
H593 C590 0.960 . S
C594 N595 1.342 . S
C594 C598 1.401 . S
C594 C599 1.499 . S
N595 Co578 1.989 . S
N595 C594 1.342 . S
N595 N596 1.388 . S
N596 Co579 1.993 . S
N596 N595 1.388 . S
N596 C597 1.346 . S
C597 N596 1.346 . S
C597 C598 1.396 . S
C597 C607 1.510 . S
C598 C594 1.401 . S
C598 C597 1.396 . S
C599 C594 1.499 . S
C599 H600 0.959 . S
C599 H601 0.960 . S
C599 H602 0.961 . S
H600 C599 0.959 . S
H601 C599 0.960 . S
H602 C599 0.961 . S
O603 Co578 1.967 . S
O603 C611 1.258 . S
O604 Co579 1.941 . S
O604 C611 1.266 . S
H605 C607 0.959 . S
H606 C607 0.961 . S
C607 C597 1.510 . S
C607 H605 0.959 . S
C607 H606 0.961 . S
C607 H608 0.960 . S
H608 C607 0.960 . S
H609 N589 0.862 . S
O610 Co578 1.920 . S
O610 C583 1.289 . S
C611 O603 1.258 . S
C611 O604 1.266 . S
Co612 O615 1.970 . S
Co612 N629 1.989 . S
Co612 O637 1.967 . S
Co612 O644 1.920 . S
Co613 O616 1.966 . S
Co613 N622 2.022 . S
Co613 N630 1.993 . S
Co613 O638 1.941 . S
C614 O615 1.258 . S
C614 O616 1.263 . S
O615 Co612 1.970 . S
O615 C614 1.258 . S
O616 Co613 1.966 . S
O616 C614 1.263 . S
C617 O618 1.235 . S
C617 O644 1.289 . S
O618 C617 1.235 . S
C619 C621 1.400 . S
C619 N622 1.351 . S
C619 C624 1.501 . S
C620 C621 1.387 . S
C620 N623 1.341 . S
C621 C619 1.400 . S
C621 C620 1.387 . S
N622 Co613 2.022 . S
N622 C619 1.351 . S
N622 N623 1.365 . S
N623 C620 1.341 . S
N623 N622 1.365 . S
N623 H643 0.862 . S
C624 C619 1.501 . S
C624 H625 0.961 . S
C624 H626 0.961 . S
C624 H627 0.960 . S
H625 C624 0.961 . S
H626 C624 0.961 . S
H627 C624 0.960 . S
C628 N629 1.342 . S
C628 C632 1.401 . S
C628 C633 1.499 . S
N629 Co612 1.989 . S
N629 C628 1.342 . S
N629 N630 1.388 . S
N630 Co613 1.993 . S
N630 N629 1.388 . S
N630 C631 1.346 . S
C631 N630 1.346 . S
C631 C632 1.396 . S
C631 C641 1.510 . S
C632 C628 1.401 . S
C632 C631 1.396 . S
C633 C628 1.499 . S
C633 H634 0.959 . S
C633 H635 0.960 . S
C633 H636 0.961 . S
H634 C633 0.959 . S
H635 C633 0.960 . S
H636 C633 0.961 . S
O637 Co612 1.967 . S
O637 C645 1.258 . S
O638 Co613 1.941 . S
O638 C645 1.266 . S
H639 C641 0.959 . S
H640 C641 0.961 . S
C641 C631 1.510 . S
C641 H639 0.959 . S
C641 H640 0.961 . S
C641 H642 0.960 . S
H642 C641 0.960 . S
H643 N623 0.862 . S
O644 Co612 1.920 . S
O644 C617 1.289 . S
C645 O637 1.258 . S
C645 O638 1.266 . S
Co646 O649 1.970 . S
Co646 N663 1.989 . S
Co646 O671 1.967 . S
Co646 O678 1.920 . S
Co647 O650 1.966 . S
Co647 N656 2.022 . S
Co647 N664 1.993 . S
Co647 O672 1.941 . S
C648 O649 1.258 . S
C648 O650 1.263 . S
O649 Co646 1.970 . S
O649 C648 1.258 . S
O650 Co647 1.966 . S
O650 C648 1.263 . S
C651 O652 1.235 . S
C651 O678 1.289 . S
O652 C651 1.235 . S
C653 C655 1.400 . S
C653 N656 1.351 . S
C653 C658 1.501 . S
C654 C655 1.387 . S
C654 N657 1.341 . S
C655 C653 1.400 . S
C655 C654 1.387 . S
N656 Co647 2.022 . S
N656 C653 1.351 . S
N656 N657 1.365 . S
N657 C654 1.341 . S
N657 N656 1.365 . S
N657 H677 0.862 . S
C658 C653 1.501 . S
C658 H659 0.961 . S
C658 H660 0.961 . S
C658 H661 0.960 . S
H659 C658 0.961 . S
H660 C658 0.961 . S
H661 C658 0.960 . S
C662 N663 1.342 . S
C662 C666 1.401 . S
C662 C667 1.499 . S
N663 Co646 1.989 . S
N663 C662 1.342 . S
N663 N664 1.388 . S
N664 Co647 1.993 . S
N664 N663 1.388 . S
N664 C665 1.346 . S
C665 N664 1.346 . S
C665 C666 1.396 . S
C665 C675 1.510 . S
C666 C662 1.401 . S
C666 C665 1.396 . S
C667 C662 1.499 . S
C667 H668 0.959 . S
C667 H669 0.960 . S
C667 H670 0.961 . S
H668 C667 0.959 . S
H669 C667 0.960 . S
H670 C667 0.961 . S
O671 Co646 1.967 . S
O671 C679 1.258 . S
O672 Co647 1.941 . S
O672 C679 1.266 . S
H673 C675 0.959 . S
H674 C675 0.961 . S
C675 C665 1.510 . S
C675 H673 0.959 . S
C675 H674 0.961 . S
C675 H676 0.960 . S
H676 C675 0.960 . S
H677 N657 0.862 . S
O678 Co646 1.920 . S
O678 C651 1.289 . S
C679 O671 1.258 . S
C679 O672 1.266 . S
Co680 O683 1.970 . S
Co680 N697 1.989 . S
Co680 O705 1.967 . S
Co680 O712 1.920 . S
Co681 O684 1.966 . S
Co681 N690 2.022 . S
Co681 N698 1.993 . S
Co681 O706 1.941 . S
C682 O683 1.258 . S
C682 O684 1.263 . S
O683 Co680 1.970 . S
O683 C682 1.258 . S
O684 Co681 1.966 . S
O684 C682 1.263 . S
C685 O686 1.235 . S
C685 O712 1.289 . S
O686 C685 1.235 . S
C687 C689 1.400 . S
C687 N690 1.351 . S
C687 C692 1.501 . S
C688 C689 1.387 . S
C688 N691 1.341 . S
C689 C687 1.400 . S
C689 C688 1.387 . S
N690 Co681 2.022 . S
N690 C687 1.351 . S
N690 N691 1.365 . S
N691 C688 1.341 . S
N691 N690 1.365 . S
N691 H711 0.862 . S
C692 C687 1.501 . S
C692 H693 0.961 . S
C692 H694 0.961 . S
C692 H695 0.960 . S
H693 C692 0.961 . S
H694 C692 0.961 . S
H695 C692 0.960 . S
C696 N697 1.342 . S
C696 C700 1.401 . S
C696 C701 1.499 . S
N697 Co680 1.989 . S
N697 C696 1.342 . S
N697 N698 1.388 . S
N698 Co681 1.993 . S
N698 N697 1.388 . S
N698 C699 1.346 . S
C699 N698 1.346 . S
C699 C700 1.396 . S
C699 C709 1.510 . S
C700 C696 1.401 . S
C700 C699 1.396 . S
C701 C696 1.499 . S
C701 H702 0.959 . S
C701 H703 0.960 . S
C701 H704 0.961 . S
H702 C701 0.959 . S
H703 C701 0.960 . S
H704 C701 0.961 . S
O705 Co680 1.967 . S
O705 C713 1.258 . S
O706 Co681 1.941 . S
O706 C713 1.266 . S
H707 C709 0.959 . S
H708 C709 0.961 . S
C709 C699 1.510 . S
C709 H707 0.959 . S
C709 H708 0.961 . S
C709 H710 0.960 . S
H710 C709 0.960 . S
H711 N691 0.862 . S
O712 Co680 1.920 . S
O712 C685 1.289 . S
C713 O705 1.258 . S
C713 O706 1.266 . S
Co714 O717 1.970 . S
Co714 N731 1.989 . S
Co714 O739 1.967 . S
Co714 O746 1.920 1_556 S
Co715 O718 1.966 . S
Co715 N724 2.022 . S
Co715 N732 1.993 . S
Co715 O740 1.941 . S
C716 O717 1.258 . S
C716 O718 1.263 . S
O717 Co714 1.970 . S
O717 C716 1.258 . S
O718 Co715 1.966 . S
O718 C716 1.263 . S
C719 O720 1.235 . S
C719 O746 1.289 . S
O720 C719 1.235 . S
C721 C723 1.400 . S
C721 N724 1.351 . S
C721 C726 1.501 . S
C722 C723 1.387 . S
C722 N725 1.341 . S
C723 C721 1.400 . S
C723 C722 1.387 . S
N724 Co715 2.022 . S
N724 C721 1.351 . S
N724 N725 1.365 . S
N725 C722 1.341 . S
N725 N724 1.365 . S
N725 H745 0.862 . S
C726 C721 1.501 . S
C726 H727 0.961 . S
C726 H728 0.961 . S
C726 H729 0.960 . S
H727 C726 0.961 . S
H728 C726 0.961 . S
H729 C726 0.960 . S
C730 N731 1.342 1_554 S
C730 C734 1.401 . S
C730 C735 1.499 . S
N731 Co714 1.989 . S
N731 C730 1.342 1_556 S
N731 N732 1.388 . S
N732 Co715 1.993 . S
N732 N731 1.388 . S
N732 C733 1.346 . S
C733 N732 1.346 . S
C733 C734 1.396 1_556 S
C733 C743 1.510 . S
C734 C730 1.401 . S
C734 C733 1.396 1_554 S
C735 C730 1.499 . S
C735 H736 0.959 . S
C735 H737 0.960 . S
C735 H738 0.961 . S
H736 C735 0.959 . S
H737 C735 0.960 . S
H738 C735 0.961 . S
O739 Co714 1.967 . S
O739 C747 1.258 . S
O740 Co715 1.941 . S
O740 C747 1.266 . S
H741 C743 0.959 . S
H742 C743 0.961 . S
C743 C733 1.510 . S
C743 H741 0.959 . S
C743 H742 0.961 . S
C743 H744 0.960 . S
H744 C743 0.960 . S
H745 N725 0.862 . S
O746 Co714 1.920 1_554 S
O746 C719 1.289 . S
C747 O739 1.258 . S
C747 O740 1.266 . S
Co748 O751 1.970 . S
Co748 N765 1.989 . S
Co748 O773 1.967 . S
Co748 O780 1.920 1_556 S
Co749 O752 1.966 . S
Co749 N758 2.022 . S
Co749 N766 1.993 . S
Co749 O774 1.941 . S
C750 O751 1.258 . S
C750 O752 1.263 . S
O751 Co748 1.970 . S
O751 C750 1.258 . S
O752 Co749 1.966 . S
O752 C750 1.263 . S
C753 O754 1.235 . S
C753 O780 1.289 . S
O754 C753 1.235 . S
C755 C757 1.400 . S
C755 N758 1.351 . S
C755 C760 1.501 . S
C756 C757 1.387 . S
C756 N759 1.341 . S
C757 C755 1.400 . S
C757 C756 1.387 . S
N758 Co749 2.022 . S
N758 C755 1.351 . S
N758 N759 1.365 . S
N759 C756 1.341 . S
N759 N758 1.365 . S
N759 H779 0.862 . S
C760 C755 1.501 . S
C760 H761 0.961 . S
C760 H762 0.961 . S
C760 H763 0.960 . S
H761 C760 0.961 . S
H762 C760 0.961 . S
H763 C760 0.960 . S
C764 N765 1.342 1_554 S
C764 C768 1.401 . S
C764 C769 1.499 . S
N765 Co748 1.989 . S
N765 C764 1.342 1_556 S
N765 N766 1.388 . S
N766 Co749 1.993 . S
N766 N765 1.388 . S
N766 C767 1.346 . S
C767 N766 1.346 . S
C767 C768 1.396 1_556 S
C767 C777 1.510 . S
C768 C764 1.401 . S
C768 C767 1.396 1_554 S
C769 C764 1.499 . S
C769 H770 0.959 . S
C769 H771 0.960 . S
C769 H772 0.961 . S
H770 C769 0.959 . S
H771 C769 0.960 . S
H772 C769 0.961 . S
O773 Co748 1.967 . S
O773 C781 1.258 . S
O774 Co749 1.941 . S
O774 C781 1.266 . S
H775 C777 0.959 . S
H776 C777 0.961 . S
C777 C767 1.510 . S
C777 H775 0.959 . S
C777 H776 0.961 . S
C777 H778 0.960 . S
H778 C777 0.960 . S
H779 N759 0.862 . S
O780 Co748 1.920 1_554 S
O780 C753 1.289 . S
C781 O773 1.258 . S
C781 O774 1.266 . S
Co782 O785 1.970 . S
Co782 N799 1.989 . S
Co782 O807 1.967 . S
Co782 O814 1.920 1_556 S
Co783 O786 1.966 . S
Co783 N792 2.022 . S
Co783 N800 1.993 . S
Co783 O808 1.941 . S
C784 O785 1.258 . S
C784 O786 1.263 . S
O785 Co782 1.970 . S
O785 C784 1.258 . S
O786 Co783 1.966 . S
O786 C784 1.263 . S
C787 O788 1.235 . S
C787 O814 1.289 . S
O788 C787 1.235 . S
C789 C791 1.400 . S
C789 N792 1.351 . S
C789 C794 1.501 . S
C790 C791 1.387 . S
C790 N793 1.341 . S
C791 C789 1.400 . S
C791 C790 1.387 . S
N792 Co783 2.022 . S
N792 C789 1.351 . S
N792 N793 1.365 . S
N793 C790 1.341 . S
N793 N792 1.365 . S
N793 H813 0.862 . S
C794 C789 1.501 . S
C794 H795 0.961 . S
C794 H796 0.961 . S
C794 H797 0.960 . S
H795 C794 0.961 . S
H796 C794 0.961 . S
H797 C794 0.960 . S
C798 N799 1.342 1_554 S
C798 C802 1.401 . S
C798 C803 1.499 . S
N799 Co782 1.989 . S
N799 C798 1.342 1_556 S
N799 N800 1.388 . S
N800 Co783 1.993 . S
N800 N799 1.388 . S
N800 C801 1.346 . S
C801 N800 1.346 . S
C801 C802 1.396 1_556 S
C801 C811 1.510 . S
C802 C798 1.401 . S
C802 C801 1.396 1_554 S
C803 C798 1.499 . S
C803 H804 0.959 . S
C803 H805 0.960 . S
C803 H806 0.961 . S
H804 C803 0.959 . S
H805 C803 0.960 . S
H806 C803 0.961 . S
O807 Co782 1.967 . S
O807 C815 1.258 . S
O808 Co783 1.941 . S
O808 C815 1.266 . S
H809 C811 0.959 . S
H810 C811 0.961 . S
C811 C801 1.510 . S
C811 H809 0.959 . S
C811 H810 0.961 . S
C811 H812 0.960 . S
H812 C811 0.960 . S
H813 N793 0.862 . S
O814 Co782 1.920 1_554 S
O814 C787 1.289 . S
C815 O807 1.258 . S
C815 O808 1.266 . S
Co816 O819 1.970 . S
Co816 N833 1.989 . S
Co816 O841 1.967 . S
Co816 O848 1.920 . S
Co817 O820 1.966 . S
Co817 N826 2.022 . S
Co817 N834 1.993 . S
Co817 O842 1.941 . S
C818 O819 1.258 . S
C818 O820 1.263 . S
O819 Co816 1.970 . S
O819 C818 1.258 . S
O820 Co817 1.966 . S
O820 C818 1.263 . S
C821 O822 1.235 . S
C821 O848 1.289 . S
O822 C821 1.235 . S
C823 C825 1.400 . S
C823 N826 1.351 . S
C823 C828 1.501 . S
C824 C825 1.387 . S
C824 N827 1.341 . S
C825 C823 1.400 . S
C825 C824 1.387 . S
N826 Co817 2.022 . S
N826 C823 1.351 . S
N826 N827 1.365 . S
N827 C824 1.341 . S
N827 N826 1.365 . S
N827 H847 0.862 . S
C828 C823 1.501 . S
C828 H829 0.961 . S
C828 H830 0.961 . S
C828 H831 0.960 . S
H829 C828 0.961 . S
H830 C828 0.961 . S
H831 C828 0.960 . S
C832 N833 1.342 . S
C832 C836 1.401 . S
C832 C837 1.499 . S
N833 Co816 1.989 . S
N833 C832 1.342 . S
N833 N834 1.388 . S
N834 Co817 1.993 . S
N834 N833 1.388 . S
N834 C835 1.346 . S
C835 N834 1.346 . S
C835 C836 1.396 . S
C835 C845 1.510 . S
C836 C832 1.401 . S
C836 C835 1.396 . S
C837 C832 1.499 . S
C837 H838 0.959 . S
C837 H839 0.960 . S
C837 H840 0.961 . S
H838 C837 0.959 . S
H839 C837 0.960 . S
H840 C837 0.961 . S
O841 Co816 1.967 . S
O841 C849 1.258 . S
O842 Co817 1.941 . S
O842 C849 1.266 . S
H843 C845 0.959 . S
H844 C845 0.961 . S
C845 C835 1.510 . S
C845 H843 0.959 . S
C845 H844 0.961 . S
C845 H846 0.960 . S
H846 C845 0.960 . S
H847 N827 0.862 . S
O848 Co816 1.920 . S
O848 C821 1.289 . S
C849 O841 1.258 . S
C849 O842 1.266 . S
Co850 O853 1.970 . S
Co850 N867 1.989 . S
Co850 O875 1.967 . S
Co850 O882 1.920 . S
Co851 O854 1.966 . S
Co851 N860 2.022 . S
Co851 N868 1.993 . S
Co851 O876 1.941 . S
C852 O853 1.258 . S
C852 O854 1.263 . S
O853 Co850 1.970 . S
O853 C852 1.258 . S
O854 Co851 1.966 . S
O854 C852 1.263 . S
C855 O856 1.235 . S
C855 O882 1.289 . S
O856 C855 1.235 . S
C857 C859 1.400 . S
C857 N860 1.351 . S
C857 C862 1.501 . S
C858 C859 1.387 . S
C858 N861 1.341 . S
C859 C857 1.400 . S
C859 C858 1.387 . S
N860 Co851 2.022 . S
N860 C857 1.351 . S
N860 N861 1.365 . S
N861 C858 1.341 . S
N861 N860 1.365 . S
N861 H881 0.862 . S
C862 C857 1.501 . S
C862 H863 0.961 . S
C862 H864 0.961 . S
C862 H865 0.960 . S
H863 C862 0.961 . S
H864 C862 0.961 . S
H865 C862 0.960 . S
C866 N867 1.342 . S
C866 C870 1.401 . S
C866 C871 1.499 . S
N867 Co850 1.989 . S
N867 C866 1.342 . S
N867 N868 1.388 . S
N868 Co851 1.993 . S
N868 N867 1.388 . S
N868 C869 1.346 . S
C869 N868 1.346 . S
C869 C870 1.396 . S
C869 C879 1.510 . S
C870 C866 1.401 . S
C870 C869 1.396 . S
C871 C866 1.499 . S
C871 H872 0.959 . S
C871 H873 0.960 . S
C871 H874 0.961 . S
H872 C871 0.959 . S
H873 C871 0.960 . S
H874 C871 0.961 . S
O875 Co850 1.967 . S
O875 C883 1.258 . S
O876 Co851 1.941 . S
O876 C883 1.266 . S
H877 C879 0.959 . S
H878 C879 0.961 . S
C879 C869 1.510 . S
C879 H877 0.959 . S
C879 H878 0.961 . S
C879 H880 0.960 . S
H880 C879 0.960 . S
H881 N861 0.862 . S
O882 Co850 1.920 . S
O882 C855 1.289 . S
C883 O875 1.258 . S
C883 O876 1.266 . S
Co884 O887 1.970 . S
Co884 N901 1.989 . S
Co884 O909 1.967 . S
Co884 O916 1.920 . S
Co885 O888 1.966 . S
Co885 N894 2.022 . S
Co885 N902 1.993 . S
Co885 O910 1.941 . S
C886 O887 1.258 . S
C886 O888 1.263 . S
O887 Co884 1.970 . S
O887 C886 1.258 . S
O888 Co885 1.966 . S
O888 C886 1.263 . S
C889 O890 1.235 . S
C889 O916 1.289 . S
O890 C889 1.235 . S
C891 C893 1.400 . S
C891 N894 1.351 . S
C891 C896 1.501 . S
C892 C893 1.387 . S
C892 N895 1.341 . S
C893 C891 1.400 . S
C893 C892 1.387 . S
N894 Co885 2.022 . S
N894 C891 1.351 . S
N894 N895 1.365 . S
N895 C892 1.341 . S
N895 N894 1.365 . S
N895 H915 0.862 . S
C896 C891 1.501 . S
C896 H897 0.961 . S
C896 H898 0.961 . S
C896 H899 0.960 . S
H897 C896 0.961 . S
H898 C896 0.961 . S
H899 C896 0.960 . S
C900 N901 1.342 . S
C900 C904 1.401 . S
C900 C905 1.499 . S
N901 Co884 1.989 . S
N901 C900 1.342 . S
N901 N902 1.388 . S
N902 Co885 1.993 . S
N902 N901 1.388 . S
N902 C903 1.346 . S
C903 N902 1.346 . S
C903 C904 1.396 . S
C903 C913 1.510 . S
C904 C900 1.401 . S
C904 C903 1.396 . S
C905 C900 1.499 . S
C905 H906 0.959 . S
C905 H907 0.960 . S
C905 H908 0.961 . S
H906 C905 0.959 . S
H907 C905 0.960 . S
H908 C905 0.961 . S
O909 Co884 1.967 . S
O909 C917 1.258 . S
O910 Co885 1.941 . S
O910 C917 1.266 . S
H911 C913 0.959 . S
H912 C913 0.961 . S
C913 C903 1.510 . S
C913 H911 0.959 . S
C913 H912 0.961 . S
C913 H914 0.960 . S
H914 C913 0.960 . S
H915 N895 0.862 . S
O916 Co884 1.920 . S
O916 C889 1.289 . S
C917 O909 1.258 . S
C917 O910 1.266 . S
Co918 O921 1.970 . S
Co918 N935 1.989 . S
Co918 O943 1.967 . S
Co918 O950 1.920 . S
Co919 O922 1.966 . S
Co919 N928 2.022 . S
Co919 N936 1.993 . S
Co919 O944 1.941 . S
C920 O921 1.258 . S
C920 O922 1.263 . S
O921 Co918 1.970 . S
O921 C920 1.258 . S
O922 Co919 1.966 . S
O922 C920 1.263 . S
C923 O924 1.235 . S
C923 O950 1.289 . S
O924 C923 1.235 . S
C925 C927 1.400 . S
C925 N928 1.351 . S
C925 C930 1.501 . S
C926 C927 1.387 . S
C926 N929 1.341 . S
C927 C925 1.400 . S
C927 C926 1.387 . S
N928 Co919 2.022 . S
N928 C925 1.351 . S
N928 N929 1.365 . S
N929 C926 1.341 . S
N929 N928 1.365 . S
N929 H949 0.862 . S
C930 C925 1.501 . S
C930 H931 0.961 . S
C930 H932 0.961 . S
C930 H933 0.960 . S
H931 C930 0.961 . S
H932 C930 0.961 . S
H933 C930 0.960 . S
C934 N935 1.342 . S
C934 C938 1.401 . S
C934 C939 1.499 . S
N935 Co918 1.989 . S
N935 C934 1.342 . S
N935 N936 1.388 . S
N936 Co919 1.993 . S
N936 N935 1.388 . S
N936 C937 1.346 . S
C937 N936 1.346 . S
C937 C938 1.396 . S
C937 C947 1.510 . S
C938 C934 1.401 . S
C938 C937 1.396 . S
C939 C934 1.499 . S
C939 H940 0.959 . S
C939 H941 0.960 . S
C939 H942 0.958 1_554 S
H940 C939 0.959 . S
H941 C939 0.960 . S
H942 C939 0.958 1_556 S
O943 Co918 1.967 . S
O943 C951 1.258 . S
O944 Co919 1.941 . S
O944 C951 1.266 . S
H945 C947 0.959 . S
H946 C947 0.961 . S
C947 C937 1.510 . S
C947 H945 0.959 . S
C947 H946 0.961 . S
C947 H948 0.960 . S
H948 C947 0.960 . S
H949 N929 0.862 . S
O950 Co918 1.920 . S
O950 C923 1.289 . S
C951 O943 1.258 . S
C951 O944 1.266 . S
Co952 O955 1.970 . S
Co952 N969 1.989 . S
Co952 O977 1.967 . S
Co952 O984 1.920 . S
Co953 O956 1.966 . S
Co953 N962 2.022 . S
Co953 N970 1.993 . S
Co953 O978 1.941 . S
C954 O955 1.258 . S
C954 O956 1.263 . S
O955 Co952 1.970 . S
O955 C954 1.258 . S
O956 Co953 1.966 . S
O956 C954 1.263 . S
C957 O958 1.235 . S
C957 O984 1.289 . S
O958 C957 1.235 . S
C959 C961 1.400 . S
C959 N962 1.351 . S
C959 C964 1.501 . S
C960 C961 1.387 . S
C960 N963 1.341 . S
C961 C959 1.400 . S
C961 C960 1.387 . S
N962 Co953 2.022 . S
N962 C959 1.351 . S
N962 N963 1.365 . S
N963 C960 1.341 . S
N963 N962 1.365 . S
N963 H983 0.862 . S
C964 C959 1.501 . S
C964 H965 0.961 . S
C964 H966 0.961 . S
C964 H967 0.960 . S
H965 C964 0.961 . S
H966 C964 0.961 . S
H967 C964 0.960 . S
C968 N969 1.342 . S
C968 C972 1.401 . S
C968 C973 1.499 . S
N969 Co952 1.989 . S
N969 C968 1.342 . S
N969 N970 1.388 . S
N970 Co953 1.993 . S
N970 N969 1.388 . S
N970 C971 1.346 . S
C971 N970 1.346 . S
C971 C972 1.396 . S
C971 C981 1.510 . S
C972 C968 1.401 . S
C972 C971 1.396 . S
C973 C968 1.499 . S
C973 H974 0.959 . S
C973 H975 0.960 . S
C973 H976 0.958 1_554 S
H974 C973 0.959 . S
H975 C973 0.960 . S
H976 C973 0.958 1_556 S
O977 Co952 1.967 . S
O977 C985 1.258 . S
O978 Co953 1.941 . S
O978 C985 1.266 . S
H979 C981 0.959 . S
H980 C981 0.961 . S
C981 C971 1.510 . S
C981 H979 0.959 . S
C981 H980 0.961 . S
C981 H982 0.960 . S
H982 C981 0.960 . S
H983 N963 0.862 . S
O984 Co952 1.920 . S
O984 C957 1.289 . S
C985 O977 1.258 . S
C985 O978 1.266 . S
Co986 O989 1.970 . S
Co986 N1003 1.989 . S
Co986 O1011 1.967 . S
Co986 O1018 1.920 . S
Co987 O990 1.966 . S
Co987 N996 2.022 . S
Co987 N1004 1.993 . S
Co987 O1012 1.941 . S
C988 O989 1.258 . S
C988 O990 1.263 . S
O989 Co986 1.970 . S
O989 C988 1.258 . S
O990 Co987 1.966 . S
O990 C988 1.263 . S
C991 O992 1.235 . S
C991 O1018 1.289 . S
O992 C991 1.235 . S
C993 C995 1.400 . S
C993 N996 1.351 . S
C993 C998 1.501 . S
C994 C995 1.387 . S
C994 N997 1.341 . S
C995 C993 1.400 . S
C995 C994 1.387 . S
N996 Co987 2.022 . S
N996 C993 1.351 . S
N996 N997 1.365 . S
N997 C994 1.341 . S
N997 N996 1.365 . S
N997 H1017 0.862 . S
C998 C993 1.501 . S
C998 H999 0.961 . S
C998 H1000 0.961 . S
C998 H1001 0.960 . S
H999 C998 0.961 . S
H1000 C998 0.961 . S
H1001 C998 0.960 . S
C1002 N1003 1.342 . S
C1002 C1006 1.401 . S
C1002 C1007 1.499 . S
N1003 Co986 1.989 . S
N1003 C1002 1.342 . S
N1003 N1004 1.388 . S
N1004 Co987 1.993 . S
N1004 N1003 1.388 . S
N1004 C1005 1.346 . S
C1005 N1004 1.346 . S
C1005 C1006 1.396 . S
C1005 C1015 1.510 . S
C1006 C1002 1.401 . S
C1006 C1005 1.396 . S
C1007 C1002 1.499 . S
C1007 H1008 0.959 . S
C1007 H1009 0.960 . S
C1007 H1010 0.958 1_554 S
H1008 C1007 0.959 . S
H1009 C1007 0.960 . S
H1010 C1007 0.958 1_556 S
O1011 Co986 1.967 . S
O1011 C1019 1.258 . S
O1012 Co987 1.941 . S
O1012 C1019 1.266 . S
H1013 C1015 0.959 . S
H1014 C1015 0.961 . S
C1015 C1005 1.510 . S
C1015 H1013 0.959 . S
C1015 H1014 0.961 . S
C1015 H1016 0.960 . S
H1016 C1015 0.960 . S
H1017 N997 0.862 . S
O1018 Co986 1.920 . S
O1018 C991 1.289 . S
C1019 O1011 1.258 . S
C1019 O1012 1.266 . S
Co1020 O1023 1.970 . S
Co1020 N1037 1.989 . S
Co1020 O1045 1.967 . S
Co1020 O1052 1.920 . S
Co1021 O1024 1.966 . S
Co1021 N1030 2.022 . S
Co1021 N1038 1.993 . S
Co1021 O1046 1.941 . S
C1022 O1023 1.258 . S
C1022 O1024 1.263 . S
O1023 Co1020 1.970 . S
O1023 C1022 1.258 . S
O1024 Co1021 1.966 . S
O1024 C1022 1.263 . S
C1025 O1026 1.235 . S
C1025 O1052 1.289 . S
O1026 C1025 1.235 . S
C1027 C1029 1.400 . S
C1027 N1030 1.351 . S
C1027 C1032 1.501 . S
C1028 C1029 1.387 . S
C1028 N1031 1.341 . S
C1029 C1027 1.400 . S
C1029 C1028 1.387 . S
N1030 Co1021 2.022 . S
N1030 C1027 1.351 . S
N1030 N1031 1.365 . S
N1031 C1028 1.341 . S
N1031 N1030 1.365 . S
N1031 H1051 0.862 . S
C1032 C1027 1.501 . S
C1032 H1033 0.961 . S
C1032 H1034 0.961 . S
C1032 H1035 0.960 . S
H1033 C1032 0.961 . S
H1034 C1032 0.961 . S
H1035 C1032 0.960 . S
C1036 N1037 1.342 . S
C1036 C1040 1.401 . S
C1036 C1041 1.499 . S
N1037 Co1020 1.989 . S
N1037 C1036 1.342 . S
N1037 N1038 1.388 . S
N1038 Co1021 1.993 . S
N1038 N1037 1.388 . S
N1038 C1039 1.346 . S
C1039 N1038 1.346 . S
C1039 C1040 1.396 . S
C1039 C1049 1.510 . S
C1040 C1036 1.401 . S
C1040 C1039 1.396 . S
C1041 C1036 1.499 . S
C1041 H1042 0.959 . S
C1041 H1043 0.960 . S
C1041 H1044 0.961 . S
H1042 C1041 0.959 . S
H1043 C1041 0.960 . S
H1044 C1041 0.961 . S
O1045 Co1020 1.967 . S
O1045 C1053 1.258 . S
O1046 Co1021 1.941 . S
O1046 C1053 1.266 . S
H1047 C1049 0.959 . S
H1048 C1049 0.961 . S
C1049 C1039 1.510 . S
C1049 H1047 0.959 . S
C1049 H1048 0.961 . S
C1049 H1050 0.960 . S
H1050 C1049 0.960 . S
H1051 N1031 0.862 . S
O1052 Co1020 1.920 . S
O1052 C1025 1.289 . S
C1053 O1045 1.258 . S
C1053 O1046 1.266 . S
Co1054 O1057 1.970 . S
Co1054 N1071 1.989 . S
Co1054 O1079 1.967 . S
Co1054 O1086 1.920 . S
Co1055 O1058 1.966 . S
Co1055 N1064 2.022 . S
Co1055 N1072 1.993 . S
Co1055 O1080 1.941 . S
C1056 O1057 1.258 . S
C1056 O1058 1.263 . S
O1057 Co1054 1.970 . S
O1057 C1056 1.258 . S
O1058 Co1055 1.966 . S
O1058 C1056 1.263 . S
C1059 O1060 1.235 . S
C1059 O1086 1.289 . S
O1060 C1059 1.235 . S
C1061 C1063 1.400 . S
C1061 N1064 1.351 . S
C1061 C1066 1.501 . S
C1062 C1063 1.387 . S
C1062 N1065 1.341 . S
C1063 C1061 1.400 . S
C1063 C1062 1.387 . S
N1064 Co1055 2.022 . S
N1064 C1061 1.351 . S
N1064 N1065 1.365 . S
N1065 C1062 1.341 . S
N1065 N1064 1.365 . S
N1065 H1085 0.862 . S
C1066 C1061 1.501 . S
C1066 H1067 0.961 . S
C1066 H1068 0.961 . S
C1066 H1069 0.960 . S
H1067 C1066 0.961 . S
H1068 C1066 0.961 . S
H1069 C1066 0.960 . S
C1070 N1071 1.342 . S
C1070 C1074 1.401 . S
C1070 C1075 1.499 . S
N1071 Co1054 1.989 . S
N1071 C1070 1.342 . S
N1071 N1072 1.388 . S
N1072 Co1055 1.993 . S
N1072 N1071 1.388 . S
N1072 C1073 1.346 . S
C1073 N1072 1.346 . S
C1073 C1074 1.396 . S
C1073 C1083 1.510 . S
C1074 C1070 1.401 . S
C1074 C1073 1.396 . S
C1075 C1070 1.499 . S
C1075 H1076 0.959 . S
C1075 H1077 0.960 . S
C1075 H1078 0.961 . S
H1076 C1075 0.959 . S
H1077 C1075 0.960 . S
H1078 C1075 0.961 . S
O1079 Co1054 1.967 . S
O1079 C1087 1.258 . S
O1080 Co1055 1.941 . S
O1080 C1087 1.266 . S
H1081 C1083 0.959 . S
H1082 C1083 0.961 . S
C1083 C1073 1.510 . S
C1083 H1081 0.959 . S
C1083 H1082 0.961 . S
C1083 H1084 0.960 . S
H1084 C1083 0.960 . S
H1085 N1065 0.862 . S
O1086 Co1054 1.920 . S
O1086 C1059 1.289 . S
C1087 O1079 1.258 . S
C1087 O1080 1.266 . S
Co1088 O1091 1.970 . S
Co1088 N1105 1.989 . S
Co1088 O1113 1.967 . S
Co1088 O1120 1.920 . S
Co1089 O1092 1.966 . S
Co1089 N1098 2.022 . S
Co1089 N1106 1.993 . S
Co1089 O1114 1.941 . S
C1090 O1091 1.258 . S
C1090 O1092 1.263 . S
O1091 Co1088 1.970 . S
O1091 C1090 1.258 . S
O1092 Co1089 1.966 . S
O1092 C1090 1.263 . S
C1093 O1094 1.235 . S
C1093 O1120 1.289 . S
O1094 C1093 1.235 . S
C1095 C1097 1.400 . S
C1095 N1098 1.351 . S
C1095 C1100 1.501 . S
C1096 C1097 1.387 . S
C1096 N1099 1.341 . S
C1097 C1095 1.400 . S
C1097 C1096 1.387 . S
N1098 Co1089 2.022 . S
N1098 C1095 1.351 . S
N1098 N1099 1.365 . S
N1099 C1096 1.341 . S
N1099 N1098 1.365 . S
N1099 H1119 0.862 . S
C1100 C1095 1.501 . S
C1100 H1101 0.961 . S
C1100 H1102 0.961 . S
C1100 H1103 0.960 . S
H1101 C1100 0.961 . S
H1102 C1100 0.961 . S
H1103 C1100 0.960 . S
C1104 N1105 1.342 . S
C1104 C1108 1.401 . S
C1104 C1109 1.499 . S
N1105 Co1088 1.989 . S
N1105 C1104 1.342 . S
N1105 N1106 1.388 . S
N1106 Co1089 1.993 . S
N1106 N1105 1.388 . S
N1106 C1107 1.346 . S
C1107 N1106 1.346 . S
C1107 C1108 1.396 . S
C1107 C1117 1.510 . S
C1108 C1104 1.401 . S
C1108 C1107 1.396 . S
C1109 C1104 1.499 . S
C1109 H1110 0.959 . S
C1109 H1111 0.960 . S
C1109 H1112 0.961 . S
H1110 C1109 0.959 . S
H1111 C1109 0.960 . S
H1112 C1109 0.961 . S
O1113 Co1088 1.967 . S
O1113 C1121 1.258 . S
O1114 Co1089 1.941 . S
O1114 C1121 1.266 . S
H1115 C1117 0.959 . S
H1116 C1117 0.961 . S
C1117 C1107 1.510 . S
C1117 H1115 0.959 . S
C1117 H1116 0.961 . S
C1117 H1118 0.960 . S
H1118 C1117 0.960 . S
H1119 N1099 0.862 . S
O1120 Co1088 1.920 . S
O1120 C1093 1.289 . S
C1121 O1113 1.258 . S
C1121 O1114 1.266 . S
Co1122 O1125 1.970 . S
Co1122 N1139 1.989 . S
Co1122 O1147 1.967 . S
Co1122 O1154 1.920 . S
Co1123 O1126 1.966 . S
Co1123 N1132 2.022 . S
Co1123 N1140 1.993 . S
Co1123 O1148 1.941 . S
C1124 O1125 1.258 . S
C1124 O1126 1.263 . S
O1125 Co1122 1.970 . S
O1125 C1124 1.258 . S
O1126 Co1123 1.966 . S
O1126 C1124 1.263 . S
C1127 O1128 1.235 . S
C1127 O1154 1.289 . S
O1128 C1127 1.235 . S
C1129 C1131 1.400 . S
C1129 N1132 1.351 . S
C1129 C1134 1.501 . S
C1130 C1131 1.387 . S
C1130 N1133 1.341 . S
C1131 C1129 1.400 . S
C1131 C1130 1.387 . S
N1132 Co1123 2.022 . S
N1132 C1129 1.351 . S
N1132 N1133 1.365 . S
N1133 C1130 1.341 . S
N1133 N1132 1.365 . S
N1133 H1153 0.862 . S
C1134 C1129 1.501 . S
C1134 H1135 0.961 . S
C1134 H1136 0.961 . S
C1134 H1137 0.960 . S
H1135 C1134 0.961 . S
H1136 C1134 0.961 . S
H1137 C1134 0.960 . S
C1138 N1139 1.342 . S
C1138 C1142 1.401 . S
C1138 C1143 1.499 . S
N1139 Co1122 1.989 . S
N1139 C1138 1.342 . S
N1139 N1140 1.388 . S
N1140 Co1123 1.993 . S
N1140 N1139 1.388 . S
N1140 C1141 1.346 . S
C1141 N1140 1.346 . S
C1141 C1142 1.396 . S
C1141 C1151 1.510 . S
C1142 C1138 1.401 . S
C1142 C1141 1.396 . S
C1143 C1138 1.499 . S
C1143 H1144 0.959 . S
C1143 H1145 0.960 . S
C1143 H1146 0.961 . S
H1144 C1143 0.959 . S
H1145 C1143 0.960 . S
H1146 C1143 0.961 . S
O1147 Co1122 1.967 . S
O1147 C1155 1.258 . S
O1148 Co1123 1.941 . S
O1148 C1155 1.266 . S
H1149 C1151 0.959 . S
H1150 C1151 0.961 . S
C1151 C1141 1.510 . S
C1151 H1149 0.959 . S
C1151 H1150 0.961 . S
C1151 H1152 0.960 . S
H1152 C1151 0.960 . S
H1153 N1133 0.862 . S
O1154 Co1122 1.920 . S
O1154 C1127 1.289 . S
C1155 O1147 1.258 . S
C1155 O1148 1.266 . S
Co1156 O1159 1.970 . S
Co1156 N1173 1.989 . S
Co1156 O1181 1.967 . S
Co1156 O1188 1.920 . S
Co1157 O1160 1.966 . S
Co1157 N1166 2.022 . S
Co1157 N1174 1.993 . S
Co1157 O1182 1.941 . S
C1158 O1159 1.258 . S
C1158 O1160 1.263 . S
O1159 Co1156 1.970 . S
O1159 C1158 1.258 . S
O1160 Co1157 1.966 . S
O1160 C1158 1.263 . S
C1161 O1162 1.235 . S
C1161 O1188 1.289 . S
O1162 C1161 1.235 . S
C1163 C1165 1.400 . S
C1163 N1166 1.351 . S
C1163 C1168 1.501 . S
C1164 C1165 1.387 . S
C1164 N1167 1.341 . S
C1165 C1163 1.400 . S
C1165 C1164 1.387 . S
N1166 Co1157 2.022 . S
N1166 C1163 1.351 . S
N1166 N1167 1.365 . S
N1167 C1164 1.341 . S
N1167 N1166 1.365 . S
N1167 H1187 0.862 . S
C1168 C1163 1.501 . S
C1168 H1169 0.961 . S
C1168 H1170 0.961 . S
C1168 H1171 0.960 . S
H1169 C1168 0.961 . S
H1170 C1168 0.961 . S
H1171 C1168 0.960 . S
C1172 N1173 1.342 . S
C1172 C1176 1.401 . S
C1172 C1177 1.499 . S
N1173 Co1156 1.989 . S
N1173 C1172 1.342 . S
N1173 N1174 1.388 . S
N1174 Co1157 1.993 . S
N1174 N1173 1.388 . S
N1174 C1175 1.346 . S
C1175 N1174 1.346 . S
C1175 C1176 1.396 . S
C1175 C1185 1.510 . S
C1176 C1172 1.401 . S
C1176 C1175 1.396 . S
C1177 C1172 1.499 . S
C1177 H1178 0.959 . S
C1177 H1179 0.960 . S
C1177 H1180 0.961 . S
H1178 C1177 0.959 . S
H1179 C1177 0.960 . S
H1180 C1177 0.961 . S
O1181 Co1156 1.967 . S
O1181 C1189 1.258 . S
O1182 Co1157 1.941 . S
O1182 C1189 1.266 . S
H1183 C1185 0.959 . S
H1184 C1185 0.961 . S
C1185 C1175 1.510 . S
C1185 H1183 0.959 . S
C1185 H1184 0.961 . S
C1185 H1186 0.960 . S
H1186 C1185 0.960 . S
H1187 N1167 0.862 . S
O1188 Co1156 1.920 . S
O1188 C1161 1.289 . S
C1189 O1181 1.258 . S
C1189 O1182 1.266 . S
Co1190 O1193 1.970 . S
Co1190 N1207 1.989 . S
Co1190 O1215 1.967 . S
Co1190 O1222 1.920 . S
Co1191 O1194 1.966 . S
Co1191 N1200 2.022 . S
Co1191 N1208 1.993 . S
Co1191 O1216 1.941 . S
C1192 O1193 1.258 . S
C1192 O1194 1.263 . S
O1193 Co1190 1.970 . S
O1193 C1192 1.258 . S
O1194 Co1191 1.966 . S
O1194 C1192 1.263 . S
C1195 O1196 1.235 . S
C1195 O1222 1.289 . S
O1196 C1195 1.235 . S
C1197 C1199 1.400 . S
C1197 N1200 1.351 . S
C1197 C1202 1.501 . S
C1198 C1199 1.387 . S
C1198 N1201 1.341 . S
C1199 C1197 1.400 . S
C1199 C1198 1.387 . S
N1200 Co1191 2.022 . S
N1200 C1197 1.351 . S
N1200 N1201 1.365 . S
N1201 C1198 1.341 . S
N1201 N1200 1.365 . S
N1201 H1221 0.862 . S
C1202 C1197 1.501 . S
C1202 H1203 0.961 . S
C1202 H1204 0.961 . S
C1202 H1205 0.960 . S
H1203 C1202 0.961 . S
H1204 C1202 0.961 . S
H1205 C1202 0.960 . S
C1206 N1207 1.342 . S
C1206 C1210 1.401 . S
C1206 C1211 1.499 . S
N1207 Co1190 1.989 . S
N1207 C1206 1.342 . S
N1207 N1208 1.388 . S
N1208 Co1191 1.993 . S
N1208 N1207 1.388 . S
N1208 C1209 1.346 . S
C1209 N1208 1.346 . S
C1209 C1210 1.396 . S
C1209 C1219 1.510 . S
C1210 C1206 1.401 . S
C1210 C1209 1.396 . S
C1211 C1206 1.499 . S
C1211 H1212 0.959 . S
C1211 H1213 0.960 . S
C1211 H1214 0.961 . S
H1212 C1211 0.959 . S
H1213 C1211 0.960 . S
H1214 C1211 0.961 . S
O1215 Co1190 1.967 . S
O1215 C1223 1.258 . S
O1216 Co1191 1.941 . S
O1216 C1223 1.266 . S
H1217 C1219 0.959 . S
H1218 C1219 0.961 . S
C1219 C1209 1.510 . S
C1219 H1217 0.959 . S
C1219 H1218 0.961 . S
C1219 H1220 0.960 . S
H1220 C1219 0.960 . S
H1221 N1201 0.862 . S
O1222 Co1190 1.920 . S
O1222 C1195 1.289 . S
C1223 O1215 1.258 . S
C1223 O1216 1.266 . S
H1224 C1230 0.930 . S
H1225 C1234 0.930 1_554 S
H1226 C1239 0.929 . S
H1227 C1237 0.929 . S
H1228 C1232 0.929 . S
H1229 C1238 0.929 . S
C1230 H1224 0.930 . S
C1230 C1231 1.367 . S
C1230 C1238 1.378 . S
C1231 C1230 1.367 . S
C1231 C1239 1.433 . S
C1232 H1228 0.929 . S
C1232 C1234 1.378 . S
C1232 C1236 1.350 . S
C1233 C1236 1.463 . S
C1233 C1238 1.350 . S
C1233 N1241 1.427 . S
C1234 H1225 0.930 1_556 S
C1234 C1232 1.378 . S
C1234 C1235 1.367 . S
C1235 C1234 1.367 . S
C1235 C1237 1.433 . S
C1236 C1232 1.350 . S
C1236 C1233 1.463 . S
C1236 N1240 1.427 . S
C1237 H1227 0.929 . S
C1237 C1235 1.433 . S
C1237 N1240 1.384 . S
C1238 H1229 0.929 . S
C1238 C1230 1.378 . S
C1238 C1233 1.350 . S
C1239 H1226 0.929 . S
C1239 C1231 1.433 . S
C1239 N1241 1.384 . S
N1240 C1236 1.427 . S
N1240 C1237 1.384 . S
N1241 C1233 1.427 . S
N1241 C1239 1.384 . S
H1242 C1248 0.930 . S
H1243 C1252 0.930 . S
H1244 C1257 0.929 . S
H1245 C1255 0.929 . S
H1246 C1250 0.929 . S
H1247 C1256 0.929 . S
C1248 H1242 0.930 . S
C1248 C1249 1.367 . S
C1248 C1256 1.378 . S
C1249 C1248 1.367 . S
C1249 C1257 1.433 . S
C1250 H1246 0.929 . S
C1250 C1252 1.378 . S
C1250 C1254 1.350 . S
C1251 C1254 1.463 . S
C1251 C1256 1.350 . S
C1251 N1259 1.427 . S
C1252 H1243 0.930 . S
C1252 C1250 1.378 . S
C1252 C1253 1.367 . S
C1253 C1252 1.367 . S
C1253 C1255 1.433 . S
C1254 C1250 1.350 . S
C1254 C1251 1.463 . S
C1254 N1258 1.427 . S
C1255 H1245 0.929 . S
C1255 C1253 1.433 . S
C1255 N1258 1.384 . S
C1256 H1247 0.929 . S
C1256 C1248 1.378 . S
C1256 C1251 1.350 . S
C1257 H1244 0.929 . S
C1257 C1249 1.433 . S
C1257 N1259 1.384 . S
N1258 C1254 1.427 . S
N1258 C1255 1.384 . S
N1259 C1251 1.427 . S
N1259 C1257 1.384 . S
H1260 C1266 0.930 . S
H1261 C1270 0.930 . S
H1262 C1275 0.929 . S
H1263 C1273 0.929 . S
H1264 C1268 0.929 . S
H1265 C1274 0.929 . S
C1266 H1260 0.930 . S
C1266 C1267 1.367 . S
C1266 C1274 1.378 . S
C1267 C1266 1.367 . S
C1267 C1275 1.433 . S
C1268 H1264 0.929 . S
C1268 C1270 1.378 . S
C1268 C1272 1.350 . S
C1269 C1272 1.463 . S
C1269 C1274 1.350 . S
C1269 N1277 1.427 . S
C1270 H1261 0.930 . S
C1270 C1268 1.378 . S
C1270 C1271 1.367 . S
C1271 C1270 1.367 . S
C1271 C1273 1.433 . S
C1272 C1268 1.350 . S
C1272 C1269 1.463 . S
C1272 N1276 1.427 . S
C1273 H1263 0.929 . S
C1273 C1271 1.433 . S
C1273 N1276 1.384 . S
C1274 H1265 0.929 . S
C1274 C1266 1.378 . S
C1274 C1269 1.350 . S
C1275 H1262 0.929 . S
C1275 C1267 1.433 . S
C1275 N1277 1.384 . S
N1276 C1272 1.427 . S
N1276 C1273 1.384 . S
N1277 C1269 1.427 . S
N1277 C1275 1.384 . S
H1278 C1284 0.930 . S
H1279 C1288 0.930 . S
H1280 C1293 0.929 . S
H1281 C1291 0.929 . S
H1282 C1286 0.929 . S
H1283 C1292 0.929 . S
C1284 H1278 0.930 . S
C1284 C1285 1.367 . S
C1284 C1292 1.378 . S
C1285 C1284 1.367 . S
C1285 C1293 1.433 . S
C1286 H1282 0.929 . S
C1286 C1288 1.378 . S
C1286 C1290 1.350 . S
C1287 C1290 1.463 . S
C1287 C1292 1.350 . S
C1287 N1295 1.427 . S
C1288 H1279 0.930 . S
C1288 C1286 1.378 . S
C1288 C1289 1.367 . S
C1289 C1288 1.367 . S
C1289 C1291 1.433 . S
C1290 C1286 1.350 . S
C1290 C1287 1.463 . S
C1290 N1294 1.427 . S
C1291 H1281 0.929 . S
C1291 C1289 1.433 . S
C1291 N1294 1.384 . S
C1292 H1283 0.929 . S
C1292 C1284 1.378 . S
C1292 C1287 1.350 . S
C1293 H1280 0.929 . S
C1293 C1285 1.433 . S
C1293 N1295 1.384 . S
N1294 C1290 1.427 . S
N1294 C1291 1.384 . S
N1295 C1287 1.427 . S
N1295 C1293 1.384 . S
H1296 C1302 0.930 . S
H1297 C1306 0.930 . S
H1298 C1311 0.929 . S
H1299 C1309 0.929 . S
H1300 C1304 0.929 . S
H1301 C1310 0.929 . S
C1302 H1296 0.930 . S
C1302 C1303 1.367 . S
C1302 C1310 1.378 . S
C1303 C1302 1.367 . S
C1303 C1311 1.433 . S
C1304 H1300 0.929 . S
C1304 C1306 1.378 . S
C1304 C1308 1.350 . S
C1305 C1308 1.463 . S
C1305 C1310 1.350 . S
C1305 N1313 1.427 . S
C1306 H1297 0.930 . S
C1306 C1304 1.378 . S
C1306 C1307 1.367 . S
C1307 C1306 1.367 . S
C1307 C1309 1.433 . S
C1308 C1304 1.350 . S
C1308 C1305 1.463 . S
C1308 N1312 1.427 . S
C1309 H1299 0.929 . S
C1309 C1307 1.433 . S
C1309 N1312 1.384 . S
C1310 H1301 0.929 . S
C1310 C1302 1.378 . S
C1310 C1305 1.350 . S
C1311 H1298 0.929 . S
C1311 C1303 1.433 . S
C1311 N1313 1.384 . S
N1312 C1308 1.427 . S
N1312 C1309 1.384 . S
N1313 C1305 1.427 . S
N1313 C1311 1.384 . S
H1314 C1320 0.930 . S
H1315 C1324 0.930 . S
H1316 C1329 0.929 . S
H1317 C1327 0.929 . S
H1318 C1322 0.929 . S
H1319 C1328 0.929 . S
C1320 H1314 0.930 . S
C1320 C1321 1.367 . S
C1320 C1328 1.378 . S
C1321 C1320 1.367 . S
C1321 C1329 1.433 . S
C1322 H1318 0.929 . S
C1322 C1324 1.378 . S
C1322 C1326 1.350 . S
C1323 C1326 1.463 . S
C1323 C1328 1.350 . S
C1323 N1331 1.427 . S
C1324 H1315 0.930 . S
C1324 C1322 1.378 . S
C1324 C1325 1.367 . S
C1325 C1324 1.367 . S
C1325 C1327 1.433 . S
C1326 C1322 1.350 . S
C1326 C1323 1.463 . S
C1326 N1330 1.427 . S
C1327 H1317 0.929 . S
C1327 C1325 1.433 . S
C1327 N1330 1.384 . S
C1328 H1319 0.929 . S
C1328 C1320 1.378 . S
C1328 C1323 1.350 . S
C1329 H1316 0.929 . S
C1329 C1321 1.433 . S
C1329 N1331 1.384 . S
N1330 C1326 1.427 . S
N1330 C1327 1.384 . S
N1331 C1323 1.427 . S
N1331 C1329 1.384 . S
H1332 C1338 0.930 . S
H1333 C1342 0.930 . S
H1334 C1347 0.929 . S
H1335 C1345 0.929 . S
H1336 C1340 0.929 . S
H1337 C1346 0.929 . S
C1338 H1332 0.930 . S
C1338 C1339 1.367 . S
C1338 C1346 1.378 . S
C1339 C1338 1.367 . S
C1339 C1347 1.433 . S
C1340 H1336 0.929 . S
C1340 C1342 1.378 . S
C1340 C1344 1.350 . S
C1341 C1344 1.463 . S
C1341 C1346 1.350 . S
C1341 N1349 1.427 . S
C1342 H1333 0.930 . S
C1342 C1340 1.378 . S
C1342 C1343 1.367 . S
C1343 C1342 1.367 . S
C1343 C1345 1.433 . S
C1344 C1340 1.350 . S
C1344 C1341 1.463 . S
C1344 N1348 1.427 . S
C1345 H1335 0.929 . S
C1345 C1343 1.433 . S
C1345 N1348 1.384 . S
C1346 H1337 0.929 . S
C1346 C1338 1.378 . S
C1346 C1341 1.350 . S
C1347 H1334 0.929 . S
C1347 C1339 1.433 . S
C1347 N1349 1.384 . S
N1348 C1344 1.427 . S
N1348 C1345 1.384 . S
N1349 C1341 1.427 . S
N1349 C1347 1.384 . S
H1350 C1356 0.930 . S
H1351 C1360 0.930 . S
H1352 C1365 0.929 . S
H1353 C1363 0.929 . S
H1354 C1358 0.929 . S
H1355 C1364 0.929 . S
C1356 H1350 0.930 . S
C1356 C1357 1.367 . S
C1356 C1364 1.378 . S
C1357 C1356 1.367 . S
C1357 C1365 1.433 . S
C1358 H1354 0.929 . S
C1358 C1360 1.378 . S
C1358 C1362 1.350 . S
C1359 C1362 1.463 . S
C1359 C1364 1.350 . S
C1359 N1367 1.427 . S
C1360 H1351 0.930 . S
C1360 C1358 1.378 . S
C1360 C1361 1.367 . S
C1361 C1360 1.367 . S
C1361 C1363 1.433 . S
C1362 C1358 1.350 . S
C1362 C1359 1.463 . S
C1362 N1366 1.427 . S
C1363 H1353 0.929 . S
C1363 C1361 1.433 . S
C1363 N1366 1.384 . S
C1364 H1355 0.929 . S
C1364 C1356 1.378 . S
C1364 C1359 1.350 . S
C1365 H1352 0.929 . S
C1365 C1357 1.433 . S
C1365 N1367 1.384 . S
N1366 C1362 1.427 . S
N1366 C1363 1.384 . S
N1367 C1359 1.427 . S
N1367 C1365 1.384 . S
H1368 C1374 0.930 . S
H1369 C1378 0.930 . S
H1370 C1383 0.929 . S
H1371 C1381 0.929 . S
H1372 C1376 0.929 . S
H1373 C1382 0.929 . S
C1374 H1368 0.930 . S
C1374 C1375 1.367 . S
C1374 C1382 1.378 . S
C1375 C1374 1.367 . S
C1375 C1383 1.433 . S
C1376 H1372 0.929 . S
C1376 C1378 1.378 . S
C1376 C1380 1.350 . S
C1377 C1380 1.463 . S
C1377 C1382 1.350 . S
C1377 N1385 1.427 . S
C1378 H1369 0.930 . S
C1378 C1376 1.378 . S
C1378 C1379 1.367 . S
C1379 C1378 1.367 . S
C1379 C1381 1.433 . S
C1380 C1376 1.350 . S
C1380 C1377 1.463 . S
C1380 N1384 1.427 . S
C1381 H1371 0.929 . S
C1381 C1379 1.433 . S
C1381 N1384 1.384 . S
C1382 H1373 0.929 . S
C1382 C1374 1.378 . S
C1382 C1377 1.350 . S
C1383 H1370 0.929 . S
C1383 C1375 1.433 . S
C1383 N1385 1.384 . S
N1384 C1380 1.427 . S
N1384 C1381 1.384 . S
N1385 C1377 1.427 . S
N1385 C1383 1.384 . S
H1386 C1392 0.930 . S
H1387 C1396 0.930 . S
H1388 C1401 0.929 . S
H1389 C1399 0.929 . S
H1390 C1394 0.929 . S
H1391 C1400 0.929 . S
C1392 H1386 0.930 . S
C1392 C1393 1.367 . S
C1392 C1400 1.378 . S
C1393 C1392 1.367 . S
C1393 C1401 1.433 . S
C1394 H1390 0.929 . S
C1394 C1396 1.378 . S
C1394 C1398 1.350 . S
C1395 C1398 1.463 . S
C1395 C1400 1.350 . S
C1395 N1403 1.427 . S
C1396 H1387 0.930 . S
C1396 C1394 1.378 . S
C1396 C1397 1.367 . S
C1397 C1396 1.367 . S
C1397 C1399 1.433 . S
C1398 C1394 1.350 . S
C1398 C1395 1.463 . S
C1398 N1402 1.427 . S
C1399 H1389 0.929 . S
C1399 C1397 1.433 . S
C1399 N1402 1.384 . S
C1400 H1391 0.929 . S
C1400 C1392 1.378 . S
C1400 C1395 1.350 . S
C1401 H1388 0.929 . S
C1401 C1393 1.433 . S
C1401 N1403 1.384 . S
N1402 C1398 1.427 . S
N1402 C1399 1.384 . S
N1403 C1395 1.427 . S
N1403 C1401 1.384 . S
H1404 C1410 0.930 . S
H1405 C1414 0.930 . S
H1406 C1419 0.929 . S
H1407 C1417 0.929 . S
H1408 C1412 0.929 . S
H1409 C1418 0.929 . S
C1410 H1404 0.930 . S
C1410 C1411 1.367 . S
C1410 C1418 1.378 . S
C1411 C1410 1.367 . S
C1411 C1419 1.433 . S
C1412 H1408 0.929 . S
C1412 C1414 1.378 . S
C1412 C1416 1.350 . S
C1413 C1416 1.463 . S
C1413 C1418 1.350 . S
C1413 N1421 1.427 . S
C1414 H1405 0.930 . S
C1414 C1412 1.378 . S
C1414 C1415 1.367 . S
C1415 C1414 1.367 . S
C1415 C1417 1.433 . S
C1416 C1412 1.350 . S
C1416 C1413 1.463 . S
C1416 N1420 1.427 . S
C1417 H1407 0.929 . S
C1417 C1415 1.433 . S
C1417 N1420 1.384 . S
C1418 H1409 0.929 . S
C1418 C1410 1.378 . S
C1418 C1413 1.350 . S
C1419 H1406 0.929 . S
C1419 C1411 1.433 . S
C1419 N1421 1.384 . S
N1420 C1416 1.427 . S
N1420 C1417 1.384 . S
N1421 C1413 1.427 . S
N1421 C1419 1.384 . S
H1422 C1428 0.930 . S
H1423 C1432 0.930 . S
H1424 C1437 0.929 . S
H1425 C1435 0.929 . S
H1426 C1430 0.929 . S
H1427 C1436 0.929 . S
C1428 H1422 0.930 . S
C1428 C1429 1.367 . S
C1428 C1436 1.378 . S
C1429 C1428 1.367 . S
C1429 C1437 1.433 . S
C1430 H1426 0.929 . S
C1430 C1432 1.378 . S
C1430 C1434 1.350 . S
C1431 C1434 1.463 . S
C1431 C1436 1.350 . S
C1431 N1439 1.427 . S
C1432 H1423 0.930 . S
C1432 C1430 1.378 . S
C1432 C1433 1.367 . S
C1433 C1432 1.367 . S
C1433 C1435 1.433 . S
C1434 C1430 1.350 . S
C1434 C1431 1.463 . S
C1434 N1438 1.427 . S
C1435 H1425 0.929 . S
C1435 C1433 1.433 . S
C1435 N1438 1.384 . S
C1436 H1427 0.929 . S
C1436 C1428 1.378 . S
C1436 C1431 1.350 . S
C1437 H1424 0.929 . S
C1437 C1429 1.433 . S
C1437 N1439 1.384 . S
N1438 C1434 1.427 . S
N1438 C1435 1.384 . S
N1439 C1431 1.427 . S
N1439 C1437 1.384 . S
H1440 C1446 0.930 . S
H1441 C1450 0.930 . S
H1442 C1455 0.929 . S
H1443 C1453 0.929 . S
H1444 C1448 0.929 . S
H1445 C1454 0.929 . S
C1446 H1440 0.930 . S
C1446 C1447 1.367 . S
C1446 C1454 1.378 . S
C1447 C1446 1.367 . S
C1447 C1455 1.433 . S
C1448 H1444 0.929 . S
C1448 C1450 1.378 . S
C1448 C1452 1.350 . S
C1449 C1452 1.463 . S
C1449 C1454 1.350 . S
C1449 N1457 1.427 . S
C1450 H1441 0.930 . S
C1450 C1448 1.378 . S
C1450 C1451 1.367 . S
C1451 C1450 1.367 . S
C1451 C1453 1.433 . S
C1452 C1448 1.350 . S
C1452 C1449 1.463 . S
C1452 N1456 1.427 . S
C1453 H1443 0.929 . S
C1453 C1451 1.433 . S
C1453 N1456 1.384 . S
C1454 H1445 0.929 . S
C1454 C1446 1.378 . S
C1454 C1449 1.350 . S
C1455 H1442 0.929 . S
C1455 C1447 1.433 . S
C1455 N1457 1.384 . S
N1456 C1452 1.427 . S
N1456 C1453 1.384 . S
N1457 C1449 1.427 . S
N1457 C1455 1.384 . S
H1458 C1464 0.930 . S
H1459 C1468 0.930 . S
H1460 C1473 0.929 . S
H1461 C1471 0.929 . S
H1462 C1466 0.929 . S
H1463 C1472 0.929 . S
C1464 H1458 0.930 . S
C1464 C1465 1.367 . S
C1464 C1472 1.378 . S
C1465 C1464 1.367 . S
C1465 C1473 1.433 . S
C1466 H1462 0.929 . S
C1466 C1468 1.378 . S
C1466 C1470 1.350 . S
C1467 C1470 1.463 . S
C1467 C1472 1.350 . S
C1467 N1475 1.427 . S
C1468 H1459 0.930 . S
C1468 C1466 1.378 . S
C1468 C1469 1.367 . S
C1469 C1468 1.367 . S
C1469 C1471 1.433 . S
C1470 C1466 1.350 . S
C1470 C1467 1.463 . S
C1470 N1474 1.427 . S
C1471 H1461 0.929 . S
C1471 C1469 1.433 . S
C1471 N1474 1.384 . S
C1472 H1463 0.929 . S
C1472 C1464 1.378 . S
C1472 C1467 1.350 . S
C1473 H1460 0.929 . S
C1473 C1465 1.433 . S
C1473 N1475 1.384 . S
N1474 C1470 1.427 . S
N1474 C1471 1.384 . S
N1475 C1467 1.427 . S
N1475 C1473 1.384 . S
H1476 C1482 0.930 . S
H1477 C1486 0.930 . S
H1478 C1491 0.929 . S
H1479 C1489 0.929 . S
H1480 C1484 0.929 . S
H1481 C1490 0.929 . S
C1482 H1476 0.930 . S
C1482 C1483 1.367 . S
C1482 C1490 1.378 . S
C1483 C1482 1.367 . S
C1483 C1491 1.433 . S
C1484 H1480 0.929 . S
C1484 C1486 1.378 . S
C1484 C1488 1.350 . S
C1485 C1488 1.463 . S
C1485 C1490 1.350 . S
C1485 N1493 1.427 . S
C1486 H1477 0.930 . S
C1486 C1484 1.378 . S
C1486 C1487 1.367 . S
C1487 C1486 1.367 . S
C1487 C1489 1.433 . S
C1488 C1484 1.350 . S
C1488 C1485 1.463 . S
C1488 N1492 1.427 . S
C1489 H1479 0.929 . S
C1489 C1487 1.433 . S
C1489 N1492 1.384 . S
C1490 H1481 0.929 . S
C1490 C1482 1.378 . S
C1490 C1485 1.350 . S
C1491 H1478 0.929 . S
C1491 C1483 1.433 . S
C1491 N1493 1.384 . S
N1492 C1488 1.427 . S
N1492 C1489 1.384 . S
N1493 C1485 1.427 . S
N1493 C1491 1.384 . S
H1494 C1500 0.930 . S
H1495 C1504 0.930 . S
H1496 C1509 0.929 . S
H1497 C1507 0.929 . S
H1498 C1502 0.927 1_556 S
H1499 C1508 0.929 . S
C1500 H1494 0.930 . S
C1500 C1501 1.367 . S
C1500 C1508 1.378 . S
C1501 C1500 1.367 . S
C1501 C1509 1.433 . S
C1502 H1498 0.927 1_554 S
C1502 C1504 1.373 1_554 S
C1502 C1506 1.356 . S
C1503 C1506 1.463 . S
C1503 C1508 1.350 . S
C1503 N1511 1.427 . S
C1504 H1495 0.930 . S
C1504 C1502 1.373 1_556 S
C1504 C1505 1.367 . S
C1505 C1504 1.367 . S
C1505 C1507 1.433 1_556 S
C1506 C1502 1.356 . S
C1506 C1503 1.463 . S
C1506 N1510 1.427 . S
C1507 H1497 0.929 . S
C1507 C1505 1.433 1_554 S
C1507 N1510 1.384 . S
C1508 H1499 0.929 . S
C1508 C1500 1.378 . S
C1508 C1503 1.350 . S
C1509 H1496 0.929 . S
C1509 C1501 1.433 . S
C1509 N1511 1.384 . S
N1510 C1506 1.427 . S
N1510 C1507 1.384 . S
N1511 C1503 1.427 . S
N1511 C1509 1.384 . S
H1512 C1518 0.930 . S
H1513 C1522 0.930 . S
H1514 C1527 0.929 . S
H1515 C1525 0.929 . S
H1516 C1520 0.929 . S
H1517 C1526 0.929 . S
C1518 H1512 0.930 . S
C1518 C1519 1.367 . S
C1518 C1526 1.378 . S
C1519 C1518 1.367 . S
C1519 C1527 1.433 . S
C1520 H1516 0.929 . S
C1520 C1522 1.378 . S
C1520 C1524 1.350 . S
C1521 C1524 1.463 . S
C1521 C1526 1.350 . S
C1521 N1529 1.427 . S
C1522 H1513 0.930 . S
C1522 C1520 1.378 . S
C1522 C1523 1.367 1_554 S
C1523 C1522 1.367 1_556 S
C1523 C1525 1.433 . S
C1524 C1520 1.350 . S
C1524 C1521 1.463 . S
C1524 N1528 1.428 . S
C1525 H1515 0.929 . S
C1525 C1523 1.433 . S
C1525 N1528 1.383 1_556 S
C1526 H1517 0.929 . S
C1526 C1518 1.378 . S
C1526 C1521 1.350 . S
C1527 H1514 0.929 . S
C1527 C1519 1.433 . S
C1527 N1529 1.384 . S
N1528 C1524 1.428 . S
N1528 C1525 1.383 1_554 S
N1529 C1521 1.427 . S
N1529 C1527 1.384 . S
H1530 C1536 0.930 . S
H1531 C1540 0.930 . S
H1532 C1545 0.929 . S
H1533 C1543 0.929 . S
H1534 C1538 0.929 . S
H1535 C1544 0.929 . S
C1536 H1530 0.930 . S
C1536 C1537 1.367 1_554 S
C1536 C1544 1.378 . S
C1537 C1536 1.367 1_556 S
C1537 C1545 1.433 . S
C1538 H1534 0.929 . S
C1538 C1540 1.378 . S
C1538 C1542 1.350 . S
C1539 C1542 1.463 . S
C1539 C1544 1.350 . S
C1539 N1547 1.427 . S
C1540 H1531 0.930 . S
C1540 C1538 1.378 . S
C1540 C1541 1.367 . S
C1541 C1540 1.367 . S
C1541 C1543 1.433 . S
C1542 C1538 1.350 . S
C1542 C1539 1.463 . S
C1542 N1546 1.427 . S
C1543 H1533 0.929 . S
C1543 C1541 1.433 . S
C1543 N1546 1.384 . S
C1544 H1535 0.929 . S
C1544 C1536 1.378 . S
C1544 C1539 1.350 . S
C1545 H1532 0.929 . S
C1545 C1537 1.433 . S
C1545 N1547 1.384 1_556 S
N1546 C1542 1.427 . S
N1546 C1543 1.384 . S
N1547 C1539 1.427 . S
N1547 C1545 1.384 1_554 S
H1548 C1554 0.930 . S
H1549 C1558 0.930 . S
H1550 C1563 0.929 . S
H1551 C1561 0.929 . S
H1552 C1556 0.929 . S
H1553 C1562 0.929 . S
C1554 H1548 0.930 . S
C1554 C1555 1.367 . S
C1554 C1562 1.378 . S
C1555 C1554 1.367 . S
C1555 C1563 1.433 . S
C1556 H1552 0.929 . S
C1556 C1558 1.378 . S
C1556 C1560 1.350 . S
C1557 C1560 1.463 . S
C1557 C1562 1.350 . S
C1557 N1565 1.427 . S
C1558 H1549 0.930 . S
C1558 C1556 1.378 . S
C1558 C1559 1.367 . S
C1559 C1558 1.367 . S
C1559 C1561 1.433 . S
C1560 C1556 1.350 . S
C1560 C1557 1.463 . S
C1560 N1564 1.427 . S
C1561 H1551 0.929 . S
C1561 C1559 1.433 . S
C1561 N1564 1.384 . S
C1562 H1553 0.929 . S
C1562 C1554 1.378 . S
C1562 C1557 1.350 . S
C1563 H1550 0.929 . S
C1563 C1555 1.433 . S
C1563 N1565 1.384 . S
N1564 C1560 1.427 . S
N1564 C1561 1.384 . S
N1565 C1557 1.427 . S
N1565 C1563 1.384 . S
H1566 C1572 0.930 . S
H1567 C1576 0.930 . S
H1568 C1581 0.929 . S
H1569 C1579 0.929 . S
H1570 C1574 0.929 . S
H1571 C1580 0.929 . S
C1572 H1566 0.930 . S
C1572 C1573 1.367 . S
C1572 C1580 1.378 . S
C1573 C1572 1.367 . S
C1573 C1581 1.433 . S
C1574 H1570 0.929 . S
C1574 C1576 1.378 . S
C1574 C1578 1.350 . S
C1575 C1578 1.463 . S
C1575 C1580 1.350 . S
C1575 N1583 1.427 . S
C1576 H1567 0.930 . S
C1576 C1574 1.378 . S
C1576 C1577 1.367 . S
C1577 C1576 1.367 . S
C1577 C1579 1.433 . S
C1578 C1574 1.350 . S
C1578 C1575 1.463 . S
C1578 N1582 1.427 . S
C1579 H1569 0.929 . S
C1579 C1577 1.433 . S
C1579 N1582 1.384 . S
C1580 H1571 0.929 . S
C1580 C1572 1.378 . S
C1580 C1575 1.350 . S
C1581 H1568 0.929 . S
C1581 C1573 1.433 . S
C1581 N1583 1.384 . S
N1582 C1578 1.427 . S
N1582 C1579 1.384 . S
N1583 C1575 1.427 . S
N1583 C1581 1.384 . S
H1584 C1590 0.930 . S
H1585 C1594 0.930 . S
H1586 C1599 0.929 . S
H1587 C1597 0.929 . S
H1588 C1592 0.929 . S
H1589 C1598 0.929 . S
C1590 H1584 0.930 . S
C1590 C1591 1.367 . S
C1590 C1598 1.378 . S
C1591 C1590 1.367 . S
C1591 C1599 1.433 . S
C1592 H1588 0.929 . S
C1592 C1594 1.378 . S
C1592 C1596 1.350 . S
C1593 C1596 1.463 . S
C1593 C1598 1.350 . S
C1593 N1601 1.427 . S
C1594 H1585 0.930 . S
C1594 C1592 1.378 . S
C1594 C1595 1.367 . S
C1595 C1594 1.367 . S
C1595 C1597 1.433 . S
C1596 C1592 1.350 . S
C1596 C1593 1.463 . S
C1596 N1600 1.427 . S
C1597 H1587 0.929 . S
C1597 C1595 1.433 . S
C1597 N1600 1.384 . S
C1598 H1589 0.929 . S
C1598 C1590 1.378 . S
C1598 C1593 1.350 . S
C1599 H1586 0.929 . S
C1599 C1591 1.433 . S
C1599 N1601 1.384 . S
N1600 C1596 1.427 . S
N1600 C1597 1.384 . S
N1601 C1593 1.427 . S
N1601 C1599 1.384 . S
H1602 C1608 0.930 . S
H1603 C1612 0.930 . S
H1604 C1617 0.929 . S
H1605 C1615 0.929 . S
H1606 C1610 0.929 . S
H1607 C1616 0.929 . S
C1608 H1602 0.930 . S
C1608 C1609 1.367 . S
C1608 C1616 1.378 . S
C1609 C1608 1.367 . S
C1609 C1617 1.433 . S
C1610 H1606 0.929 . S
C1610 C1612 1.378 . S
C1610 C1614 1.350 . S
C1611 C1614 1.463 . S
C1611 C1616 1.350 . S
C1611 N1619 1.427 . S
C1612 H1603 0.930 . S
C1612 C1610 1.378 . S
C1612 C1613 1.367 . S
C1613 C1612 1.367 . S
C1613 C1615 1.433 . S
C1614 C1610 1.350 . S
C1614 C1611 1.463 . S
C1614 N1618 1.427 . S
C1615 H1605 0.929 . S
C1615 C1613 1.433 . S
C1615 N1618 1.384 . S
C1616 H1607 0.929 . S
C1616 C1608 1.378 . S
C1616 C1611 1.350 . S
C1617 H1604 0.929 . S
C1617 C1609 1.433 . S
C1617 N1619 1.384 . S
N1618 C1614 1.427 . S
N1618 C1615 1.384 . S
N1619 C1611 1.427 . S
N1619 C1617 1.384 . S
H1620 C1626 0.930 . S
H1621 C1630 0.930 . S
H1622 C1635 0.929 . S
H1623 C1633 0.929 . S
H1624 C1628 0.929 . S
H1625 C1634 0.929 . S
C1626 H1620 0.930 . S
C1626 C1627 1.367 . S
C1626 C1634 1.378 . S
C1627 C1626 1.367 . S
C1627 C1635 1.433 . S
C1628 H1624 0.929 . S
C1628 C1630 1.378 . S
C1628 C1632 1.350 . S
C1629 C1632 1.463 . S
C1629 C1634 1.350 . S
C1629 N1637 1.427 . S
C1630 H1621 0.930 . S
C1630 C1628 1.378 . S
C1630 C1631 1.367 . S
C1631 C1630 1.367 . S
C1631 C1633 1.433 . S
C1632 C1628 1.350 . S
C1632 C1629 1.463 . S
C1632 N1636 1.427 . S
C1633 H1623 0.929 . S
C1633 C1631 1.433 . S
C1633 N1636 1.384 . S
C1634 H1625 0.929 . S
C1634 C1626 1.378 . S
C1634 C1629 1.350 . S
C1635 H1622 0.929 . S
C1635 C1627 1.433 . S
C1635 N1637 1.384 . S
N1636 C1632 1.427 . S
N1636 C1633 1.384 . S
N1637 C1629 1.427 . S
N1637 C1635 1.384 . S
H1638 C1644 0.930 . S
H1639 C1648 0.930 . S
H1640 C1653 0.929 . S
H1641 C1651 0.929 . S
H1642 C1646 0.929 . S
H1643 C1652 0.929 . S
C1644 H1638 0.930 . S
C1644 C1645 1.367 . S
C1644 C1652 1.378 . S
C1645 C1644 1.367 . S
C1645 C1653 1.433 . S
C1646 H1642 0.929 . S
C1646 C1648 1.378 . S
C1646 C1650 1.350 . S
C1647 C1650 1.463 . S
C1647 C1652 1.350 . S
C1647 N1655 1.427 . S
C1648 H1639 0.930 . S
C1648 C1646 1.378 . S
C1648 C1649 1.367 . S
C1649 C1648 1.367 . S
C1649 C1651 1.433 . S
C1650 C1646 1.350 . S
C1650 C1647 1.463 . S
C1650 N1654 1.427 . S
C1651 H1641 0.929 . S
C1651 C1649 1.433 . S
C1651 N1654 1.384 . S
C1652 H1643 0.929 . S
C1652 C1644 1.378 . S
C1652 C1647 1.350 . S
C1653 H1640 0.929 . S
C1653 C1645 1.433 . S
C1653 N1655 1.384 . S
N1654 C1650 1.427 . S
N1654 C1651 1.384 . S
N1655 C1647 1.427 . S
N1655 C1653 1.384 . S
H1656 C1662 0.930 . S
H1657 C1666 0.930 . S
H1658 C1671 0.929 . S
H1659 C1669 0.929 . S
H1660 C1664 0.929 . S
H1661 C1670 0.929 . S
C1662 H1656 0.930 . S
C1662 C1663 1.367 . S
C1662 C1670 1.378 . S
C1663 C1662 1.367 . S
C1663 C1671 1.433 . S
C1664 H1660 0.929 . S
C1664 C1666 1.378 . S
C1664 C1668 1.350 . S
C1665 C1668 1.463 . S
C1665 C1670 1.350 . S
C1665 N1673 1.427 . S
C1666 H1657 0.930 . S
C1666 C1664 1.378 . S
C1666 C1667 1.367 . S
C1667 C1666 1.367 . S
C1667 C1669 1.433 . S
C1668 C1664 1.350 . S
C1668 C1665 1.463 . S
C1668 N1672 1.427 . S
C1669 H1659 0.929 . S
C1669 C1667 1.433 . S
C1669 N1672 1.384 . S
C1670 H1661 0.929 . S
C1670 C1662 1.378 . S
C1670 C1665 1.350 . S
C1671 H1658 0.929 . S
C1671 C1663 1.433 . S
C1671 N1673 1.384 . S
N1672 C1668 1.427 . S
N1672 C1669 1.384 . S
N1673 C1665 1.427 . S
N1673 C1671 1.384 . S
H1674 C1680 0.930 . S
H1675 C1684 0.930 . S
H1676 C1689 0.929 . S
H1677 C1687 0.929 . S
H1678 C1682 0.929 . S
H1679 C1688 0.929 . S
C1680 H1674 0.930 . S
C1680 C1681 1.367 . S
C1680 C1688 1.378 . S
C1681 C1680 1.367 . S
C1681 C1689 1.433 . S
C1682 H1678 0.929 . S
C1682 C1684 1.378 . S
C1682 C1686 1.350 . S
C1683 C1686 1.463 . S
C1683 C1688 1.350 . S
C1683 N1691 1.427 . S
C1684 H1675 0.930 . S
C1684 C1682 1.378 . S
C1684 C1685 1.367 . S
C1685 C1684 1.367 . S
C1685 C1687 1.433 . S
C1686 C1682 1.350 . S
C1686 C1683 1.463 . S
C1686 N1690 1.427 . S
C1687 H1677 0.929 . S
C1687 C1685 1.433 . S
C1687 N1690 1.384 . S
C1688 H1679 0.929 . S
C1688 C1680 1.378 . S
C1688 C1683 1.350 . S
C1689 H1676 0.929 . S
C1689 C1681 1.433 . S
C1689 N1691 1.384 . S
N1690 C1686 1.427 . S
N1690 C1687 1.384 . S
N1691 C1683 1.427 . S
N1691 C1689 1.384 . S
H1692 C1698 0.930 . S
H1693 C1702 0.930 . S
H1694 C1707 0.929 . S
H1695 C1705 0.929 . S
H1696 C1700 0.929 . S
H1697 C1706 0.929 . S
C1698 H1692 0.930 . S
C1698 C1699 1.367 . S
C1698 C1706 1.378 . S
C1699 C1698 1.367 . S
C1699 C1707 1.433 . S
C1700 H1696 0.929 . S
C1700 C1702 1.378 . S
C1700 C1704 1.350 . S
C1701 C1704 1.463 . S
C1701 C1706 1.350 . S
C1701 N1709 1.427 . S
C1702 H1693 0.930 . S
C1702 C1700 1.378 . S
C1702 C1703 1.367 . S
C1703 C1702 1.367 . S
C1703 C1705 1.433 . S
C1704 C1700 1.350 . S
C1704 C1701 1.463 . S
C1704 N1708 1.427 . S
C1705 H1695 0.929 . S
C1705 C1703 1.433 . S
C1705 N1708 1.384 . S
C1706 H1697 0.929 . S
C1706 C1698 1.378 . S
C1706 C1701 1.350 . S
C1707 H1694 0.929 . S
C1707 C1699 1.433 . S
C1707 N1709 1.384 . S
N1708 C1704 1.427 . S
N1708 C1705 1.384 . S
N1709 C1701 1.427 . S
N1709 C1707 1.384 . S
H1710 C1716 0.930 . S
H1711 C1720 0.930 . S
H1712 C1725 0.929 . S
H1713 C1723 0.929 . S
H1714 C1718 0.929 . S
H1715 C1724 0.929 . S
C1716 H1710 0.930 . S
C1716 C1717 1.367 . S
C1716 C1724 1.378 . S
C1717 C1716 1.367 . S
C1717 C1725 1.433 . S
C1718 H1714 0.929 . S
C1718 C1720 1.378 . S
C1718 C1722 1.350 . S
C1719 C1722 1.463 . S
C1719 C1724 1.350 . S
C1719 N1727 1.427 . S
C1720 H1711 0.930 . S
C1720 C1718 1.378 . S
C1720 C1721 1.367 . S
C1721 C1720 1.367 . S
C1721 C1723 1.433 . S
C1722 C1718 1.350 . S
C1722 C1719 1.463 . S
C1722 N1726 1.427 . S
C1723 H1713 0.929 . S
C1723 C1721 1.433 . S
C1723 N1726 1.384 . S
C1724 H1715 0.929 . S
C1724 C1716 1.378 . S
C1724 C1719 1.350 . S
C1725 H1712 0.929 . S
C1725 C1717 1.433 . S
C1725 N1727 1.384 . S
N1726 C1722 1.427 . S
N1726 C1723 1.384 . S
N1727 C1719 1.427 . S
N1727 C1725 1.384 . S
H1728 C1734 0.930 . S
H1729 C1738 0.930 . S
H1730 C1743 0.929 . S
H1731 C1741 0.929 . S
H1732 C1736 0.929 . S
H1733 C1742 0.929 . S
C1734 H1728 0.930 . S
C1734 C1735 1.367 . S
C1734 C1742 1.378 . S
C1735 C1734 1.367 . S
C1735 C1743 1.433 . S
C1736 H1732 0.929 . S
C1736 C1738 1.378 . S
C1736 C1740 1.350 . S
C1737 C1740 1.463 . S
C1737 C1742 1.350 . S
C1737 N1745 1.427 . S
C1738 H1729 0.930 . S
C1738 C1736 1.378 . S
C1738 C1739 1.367 . S
C1739 C1738 1.367 . S
C1739 C1741 1.433 . S
C1740 C1736 1.350 . S
C1740 C1737 1.463 . S
C1740 N1744 1.427 . S
C1741 H1731 0.929 . S
C1741 C1739 1.433 . S
C1741 N1744 1.384 . S
C1742 H1733 0.929 . S
C1742 C1734 1.378 . S
C1742 C1737 1.350 . S
C1743 H1730 0.929 . S
C1743 C1735 1.433 . S
C1743 N1745 1.384 . S
N1744 C1740 1.427 . S
N1744 C1741 1.384 . S
N1745 C1737 1.427 . S
N1745 C1743 1.384 . S
H1746 C1752 0.930 . S
H1747 C1756 0.930 . S
H1748 C1761 0.929 . S
H1749 C1759 0.929 . S
H1750 C1754 0.929 . S
H1751 C1760 0.929 . S
C1752 H1746 0.930 . S
C1752 C1753 1.367 . S
C1752 C1760 1.378 . S
C1753 C1752 1.367 . S
C1753 C1761 1.433 . S
C1754 H1750 0.929 . S
C1754 C1756 1.378 . S
C1754 C1758 1.350 . S
C1755 C1758 1.463 . S
C1755 C1760 1.350 . S
C1755 N1763 1.427 . S
C1756 H1747 0.930 . S
C1756 C1754 1.378 . S
C1756 C1757 1.367 . S
C1757 C1756 1.367 . S
C1757 C1759 1.433 . S
C1758 C1754 1.350 . S
C1758 C1755 1.463 . S
C1758 N1762 1.427 . S
C1759 H1749 0.929 . S
C1759 C1757 1.433 . S
C1759 N1762 1.384 . S
C1760 H1751 0.929 . S
C1760 C1752 1.378 . S
C1760 C1755 1.350 . S
C1761 H1748 0.929 . S
C1761 C1753 1.433 . S
C1761 N1763 1.384 . S
N1762 C1758 1.427 . S
N1762 C1759 1.384 . S
N1763 C1755 1.427 . S
N1763 C1761 1.384 . S
H1764 C1770 0.930 . S
H1765 C1774 0.930 . S
H1766 C1779 0.929 . S
H1767 C1777 0.929 . S
H1768 C1772 0.929 . S
H1769 C1778 0.929 . S
C1770 H1764 0.930 . S
C1770 C1771 1.367 . S
C1770 C1778 1.378 . S
C1771 C1770 1.367 . S
C1771 C1779 1.433 . S
C1772 H1768 0.929 . S
C1772 C1774 1.378 1_556 S
C1772 C1776 1.350 . S
C1773 C1776 1.463 . S
C1773 C1778 1.350 . S
C1773 N1781 1.427 . S
C1774 H1765 0.930 . S
C1774 C1772 1.378 1_554 S
C1774 C1775 1.367 . S
C1775 C1774 1.367 . S
C1775 C1777 1.433 1_554 S
C1776 C1772 1.350 . S
C1776 C1773 1.463 . S
C1776 N1780 1.427 . S
C1777 H1767 0.929 . S
C1777 C1775 1.433 1_556 S
C1777 N1780 1.384 . S
C1778 H1769 0.929 . S
C1778 C1770 1.378 . S
C1778 C1773 1.350 . S
C1779 H1766 0.929 . S
C1779 C1771 1.433 . S
C1779 N1781 1.384 . S
N1780 C1776 1.427 . S
N1780 C1777 1.384 . S
N1781 C1773 1.427 . S
N1781 C1779 1.384 . S
H1782 C1788 0.930 . S
H1783 C1792 0.930 . S
H1784 C1797 0.929 . S
H1785 C1795 0.929 . S
H1786 C1790 0.929 . S
H1787 C1796 0.929 . S
C1788 H1782 0.930 . S
C1788 C1789 1.367 . S
C1788 C1796 1.378 1_554 S
C1789 C1788 1.367 . S
C1789 C1797 1.433 1_554 S
C1790 H1786 0.929 . S
C1790 C1792 1.378 . S
C1790 C1794 1.350 . S
C1791 C1794 1.463 . S
C1791 C1796 1.350 . S
C1791 N1799 1.427 . S
C1792 H1783 0.930 . S
C1792 C1790 1.378 . S
C1792 C1793 1.367 . S
C1793 C1792 1.367 . S
C1793 C1795 1.433 . S
C1794 C1790 1.350 . S
C1794 C1791 1.463 . S
C1794 N1798 1.427 . S
C1795 H1785 0.929 . S
C1795 C1793 1.433 . S
C1795 N1798 1.384 . S
C1796 H1787 0.929 . S
C1796 C1788 1.378 1_556 S
C1796 C1791 1.350 . S
C1797 H1784 0.929 . S
C1797 C1789 1.433 1_556 S
C1797 N1799 1.384 . S
N1798 C1794 1.427 . S
N1798 C1795 1.384 . S
N1799 C1791 1.427 . S
N1799 C1797 1.384 . S
H1800 C1806 0.930 . S
H1801 C1810 0.930 . S
H1802 C1815 0.929 . S
H1803 C1813 0.929 . S
H1804 C1808 0.929 . S
H1805 C1814 0.929 . S
C1806 H1800 0.930 . S
C1806 C1807 1.367 . S
C1806 C1814 1.378 1_554 S
C1807 C1806 1.367 . S
C1807 C1815 1.433 1_554 S
C1808 H1804 0.929 . S
C1808 C1810 1.378 . S
C1808 C1812 1.350 . S
C1809 C1812 1.463 . S
C1809 C1814 1.350 . S
C1809 N1817 1.427 . S
C1810 H1801 0.930 . S
C1810 C1808 1.378 . S
C1810 C1811 1.367 . S
C1811 C1810 1.367 . S
C1811 C1813 1.433 . S
C1812 C1808 1.350 . S
C1812 C1809 1.463 . S
C1812 N1816 1.427 . S
C1813 H1803 0.929 . S
C1813 C1811 1.433 . S
C1813 N1816 1.384 . S
C1814 H1805 0.929 . S
C1814 C1806 1.378 1_556 S
C1814 C1809 1.350 . S
C1815 H1802 0.929 . S
C1815 C1807 1.433 1_556 S
C1815 N1817 1.384 . S
N1816 C1812 1.427 . S
N1816 C1813 1.384 . S
N1817 C1809 1.427 . S
N1817 C1815 1.384 . S
H1818 C1824 0.930 . S
H1819 C1828 0.930 . S
H1820 C1833 0.929 . S
H1821 C1831 0.929 . S
H1822 C1826 0.929 . S
H1823 C1832 0.929 . S
C1824 H1818 0.930 . S
C1824 C1825 1.367 . S
C1824 C1832 1.378 . S
C1825 C1824 1.367 . S
C1825 C1833 1.433 . S
C1826 H1822 0.929 . S
C1826 C1828 1.378 . S
C1826 C1830 1.350 . S
C1827 C1830 1.463 1_554 S
C1827 C1832 1.350 . S
C1827 N1835 1.427 . S
C1828 H1819 0.930 . S
C1828 C1826 1.378 . S
C1828 C1829 1.367 . S
C1829 C1828 1.367 . S
C1829 C1831 1.433 . S
C1830 C1826 1.350 . S
C1830 C1827 1.463 1_556 S
C1830 N1834 1.427 . S
C1831 H1821 0.929 . S
C1831 C1829 1.433 . S
C1831 N1834 1.384 . S
C1832 H1823 0.929 . S
C1832 C1824 1.378 . S
C1832 C1827 1.350 . S
C1833 H1820 0.929 . S
C1833 C1825 1.433 . S
C1833 N1835 1.384 . S
N1834 C1830 1.427 . S
N1834 C1831 1.384 . S
N1835 C1827 1.427 . S
N1835 C1833 1.384 . S
H1836 C1842 0.930 . S
H1837 C1846 0.930 . S
H1838 C1851 0.929 . S
H1839 C1849 0.929 . S
H1840 C1844 0.929 1_554 S
H1841 C1850 0.929 . S
C1842 H1836 0.930 . S
C1842 C1843 1.367 . S
C1842 C1850 1.378 . S
C1843 C1842 1.367 . S
C1843 C1851 1.433 . S
C1844 H1840 0.929 1_556 S
C1844 C1846 1.378 . S
C1844 C1848 1.350 . S
C1845 C1848 1.463 1_554 S
C1845 C1850 1.350 . S
C1845 N1853 1.427 . S
C1846 H1837 0.930 . S
C1846 C1844 1.378 . S
C1846 C1847 1.367 . S
C1847 C1846 1.367 . S
C1847 C1849 1.433 . S
C1848 C1844 1.350 . S
C1848 C1845 1.463 1_556 S
C1848 N1852 1.427 . S
C1849 H1839 0.929 . S
C1849 C1847 1.433 . S
C1849 N1852 1.384 . S
C1850 H1841 0.929 . S
C1850 C1842 1.378 . S
C1850 C1845 1.350 . S
C1851 H1838 0.929 . S
C1851 C1843 1.433 . S
C1851 N1853 1.384 . S
N1852 C1848 1.427 . S
N1852 C1849 1.384 . S
N1853 C1845 1.427 . S
N1853 C1851 1.384 . S
H1854 C1860 0.930 . S
H1855 C1864 0.930 . S
H1856 C1869 0.929 . S
H1857 C1867 0.929 . S
H1858 C1862 0.929 . S
H1859 C1868 0.929 . S
C1860 H1854 0.930 . S
C1860 C1861 1.367 . S
C1860 C1868 1.378 . S
C1861 C1860 1.367 . S
C1861 C1869 1.433 . S
C1862 H1858 0.929 . S
C1862 C1864 1.378 . S
C1862 C1866 1.350 . S
C1863 C1866 1.463 1_556 S
C1863 C1868 1.350 . S
C1863 N1871 1.427 . S
C1864 H1855 0.930 . S
C1864 C1862 1.378 . S
C1864 C1865 1.367 . S
C1865 C1864 1.367 . S
C1865 C1867 1.433 . S
C1866 C1862 1.350 . S
C1866 C1863 1.463 1_554 S
C1866 N1870 1.427 . S
C1867 H1857 0.929 . S
C1867 C1865 1.433 . S
C1867 N1870 1.384 . S
C1868 H1859 0.929 . S
C1868 C1860 1.378 . S
C1868 C1863 1.350 . S
C1869 H1856 0.929 . S
C1869 C1861 1.433 . S
C1869 N1871 1.384 . S
N1870 C1866 1.427 . S
N1870 C1867 1.384 . S
N1871 C1863 1.427 . S
N1871 C1869 1.384 . S
H1872 C1878 0.930 . S
H1873 C1882 0.930 . S
H1874 C1887 0.929 . S
H1875 C1885 0.929 . S
H1876 C1880 0.929 . S
H1877 C1886 0.929 . S
C1878 H1872 0.930 . S
C1878 C1879 1.367 . S
C1878 C1886 1.378 . S
C1879 C1878 1.367 . S
C1879 C1887 1.433 . S
C1880 H1876 0.929 . S
C1880 C1882 1.378 . S
C1880 C1884 1.350 . S
C1881 C1884 1.463 . S
C1881 C1886 1.350 . S
C1881 N1889 1.427 . S
C1882 H1873 0.930 . S
C1882 C1880 1.378 . S
C1882 C1883 1.367 . S
C1883 C1882 1.367 . S
C1883 C1885 1.433 . S
C1884 C1880 1.350 . S
C1884 C1881 1.463 . S
C1884 N1888 1.427 . S
C1885 H1875 0.929 . S
C1885 C1883 1.433 . S
C1885 N1888 1.384 . S
C1886 H1877 0.929 . S
C1886 C1878 1.378 . S
C1886 C1881 1.350 . S
C1887 H1874 0.929 . S
C1887 C1879 1.433 . S
C1887 N1889 1.384 . S
N1888 C1884 1.427 . S
N1888 C1885 1.384 . S
N1889 C1881 1.427 . S
N1889 C1887 1.384 . S
H1890 C1896 0.930 . S
H1891 C1900 0.930 . S
H1892 C1905 0.929 . S
H1893 C1903 0.929 . S
H1894 C1898 0.929 . S
H1895 C1904 0.929 . S
C1896 H1890 0.930 . S
C1896 C1897 1.367 . S
C1896 C1904 1.378 . S
C1897 C1896 1.367 . S
C1897 C1905 1.433 . S
C1898 H1894 0.929 . S
C1898 C1900 1.378 . S
C1898 C1902 1.350 . S
C1899 C1902 1.463 1_545 S
C1899 C1904 1.350 . S
C1899 N1907 1.427 . S
C1900 H1891 0.930 . S
C1900 C1898 1.378 . S
C1900 C1901 1.367 . S
C1901 C1900 1.367 . S
C1901 C1903 1.433 . S
C1902 C1898 1.350 . S
C1902 C1899 1.463 1_565 S
C1902 N1906 1.427 . S
C1903 H1893 0.929 . S
C1903 C1901 1.433 . S
C1903 N1906 1.384 . S
C1904 H1895 0.929 . S
C1904 C1896 1.378 . S
C1904 C1899 1.350 . S
C1905 H1892 0.929 . S
C1905 C1897 1.433 . S
C1905 N1907 1.384 . S
N1906 C1902 1.427 . S
N1906 C1903 1.384 . S
N1907 C1899 1.427 . S
N1907 C1905 1.384 . S
H1908 C1914 0.930 . S
H1909 C1918 0.930 . S
H1910 C1923 0.929 . S
H1911 C1921 0.929 . S
H1912 C1916 0.929 . S
H1913 C1922 0.929 . S
C1914 H1908 0.930 . S
C1914 C1915 1.367 . S
C1914 C1922 1.378 . S
C1915 C1914 1.367 . S
C1915 C1923 1.433 . S
C1916 H1912 0.929 . S
C1916 C1918 1.378 . S
C1916 C1920 1.350 . S
C1917 C1920 1.463 1_655 S
C1917 C1922 1.350 . S
C1917 N1925 1.427 . S
C1918 H1909 0.930 . S
C1918 C1916 1.378 . S
C1918 C1919 1.367 . S
C1919 C1918 1.367 . S
C1919 C1921 1.433 . S
C1920 C1916 1.350 . S
C1920 C1917 1.463 1_455 S
C1920 N1924 1.427 . S
C1921 H1911 0.929 . S
C1921 C1919 1.433 . S
C1921 N1924 1.384 . S
C1922 H1913 0.929 . S
C1922 C1914 1.378 . S
C1922 C1917 1.350 . S
C1923 H1910 0.929 . S
C1923 C1915 1.433 . S
C1923 N1925 1.384 . S
N1924 C1920 1.427 . S
N1924 C1921 1.384 . S
N1925 C1917 1.427 . S
N1925 C1923 1.384 . S
H1926 C1932 0.930 . S
H1927 C1936 0.930 . S
H1928 C1941 0.929 . S
H1929 C1939 0.929 . S
H1930 C1934 0.929 . S
H1931 C1940 0.929 . S
C1932 H1926 0.930 . S
C1932 C1933 1.367 . S
C1932 C1940 1.378 . S
C1933 C1932 1.367 . S
C1933 C1941 1.433 . S
C1934 H1930 0.929 . S
C1934 C1936 1.378 . S
C1934 C1938 1.350 . S
C1935 C1938 1.463 . S
C1935 C1940 1.350 . S
C1935 N1943 1.427 . S
C1936 H1927 0.930 . S
C1936 C1934 1.378 . S
C1936 C1937 1.367 . S
C1937 C1936 1.367 . S
C1937 C1939 1.433 . S
C1938 C1934 1.350 . S
C1938 C1935 1.463 . S
C1938 N1942 1.427 . S
C1939 H1929 0.929 . S
C1939 C1937 1.433 . S
C1939 N1942 1.384 . S
C1940 H1931 0.929 . S
C1940 C1932 1.378 . S
C1940 C1935 1.350 . S
C1941 H1928 0.929 . S
C1941 C1933 1.433 . S
C1941 N1943 1.384 . S
N1942 C1938 1.427 . S
N1942 C1939 1.384 . S
N1943 C1935 1.427 . S
N1943 C1941 1.384 . S
H1944 C1950 0.930 . S
H1945 C1954 0.930 . S
H1946 C1959 0.929 . S
H1947 C1957 0.929 . S
H1948 C1952 0.929 1_565 S
H1949 C1958 0.929 1_545 S
C1950 H1944 0.930 . S
C1950 C1951 1.367 . S
C1950 C1958 1.378 . S
C1951 C1950 1.367 . S
C1951 C1959 1.433 . S
C1952 H1948 0.929 1_545 S
C1952 C1954 1.378 . S
C1952 C1956 1.350 . S
C1953 C1956 1.463 1_565 S
C1953 C1958 1.350 . S
C1953 N1961 1.427 . S
C1954 H1945 0.930 . S
C1954 C1952 1.378 . S
C1954 C1955 1.367 . S
C1955 C1954 1.367 . S
C1955 C1957 1.433 . S
C1956 C1952 1.350 . S
C1956 C1953 1.463 1_545 S
C1956 N1960 1.427 . S
C1957 H1947 0.929 . S
C1957 C1955 1.433 . S
C1957 N1960 1.384 . S
C1958 H1949 0.929 1_565 S
C1958 C1950 1.378 . S
C1958 C1953 1.350 . S
C1959 H1946 0.929 . S
C1959 C1951 1.433 . S
C1959 N1961 1.384 . S
N1960 C1956 1.427 . S
N1960 C1957 1.384 . S
N1961 C1953 1.427 . S
N1961 C1959 1.384 . S
H1962 C1968 0.930 . S
H1963 C1972 0.930 . S
H1964 C1977 0.929 . S
H1965 C1975 0.929 . S
H1966 C1970 0.929 . S
H1967 C1976 0.929 . S
C1968 H1962 0.930 . S
C1968 C1969 1.367 . S
C1968 C1976 1.378 . S
C1969 C1968 1.367 . S
C1969 C1977 1.433 . S
C1970 H1966 0.929 . S
C1970 C1972 1.378 . S
C1970 C1974 1.350 . S
C1971 C1974 1.463 1_655 S
C1971 C1976 1.350 . S
C1971 N1979 1.427 . S
C1972 H1963 0.930 . S
C1972 C1970 1.378 . S
C1972 C1973 1.367 . S
C1973 C1972 1.367 . S
C1973 C1975 1.433 . S
C1974 C1970 1.350 . S
C1974 C1971 1.463 1_455 S
C1974 N1978 1.427 . S
C1975 H1965 0.929 . S
C1975 C1973 1.433 . S
C1975 N1978 1.384 . S
C1976 H1967 0.929 . S
C1976 C1968 1.378 . S
C1976 C1971 1.350 . S
C1977 H1964 0.929 . S
C1977 C1969 1.433 . S
C1977 N1979 1.384 . S
N1978 C1974 1.427 . S
N1978 C1975 1.384 . S
N1979 C1971 1.427 . S
N1979 C1977 1.384 . S
H1980 C1986 0.930 . S
H1981 C1990 0.930 . S
H1982 C1995 0.929 . S
H1983 C1993 0.929 . S
H1984 C1988 0.929 . S
H1985 C1994 0.929 . S
C1986 H1980 0.930 . S
C1986 C1987 1.367 . S
C1986 C1994 1.378 . S
C1987 C1986 1.367 . S
C1987 C1995 1.433 . S
C1988 H1984 0.929 . S
C1988 C1990 1.378 . S
C1988 C1992 1.350 . S
C1989 C1992 1.463 . S
C1989 C1994 1.350 . S
C1989 N1997 1.427 . S
C1990 H1981 0.930 . S
C1990 C1988 1.378 . S
C1990 C1991 1.367 . S
C1991 C1990 1.367 . S
C1991 C1993 1.433 . S
C1992 C1988 1.350 . S
C1992 C1989 1.463 . S
C1992 N1996 1.427 . S
C1993 H1983 0.929 . S
C1993 C1991 1.433 . S
C1993 N1996 1.384 . S
C1994 H1985 0.929 . S
C1994 C1986 1.378 . S
C1994 C1989 1.350 . S
C1995 H1982 0.929 . S
C1995 C1987 1.433 . S
C1995 N1997 1.384 . S
N1996 C1992 1.427 . S
N1996 C1993 1.384 . S
N1997 C1989 1.427 . S
N1997 C1995 1.384 . S
H1998 C2004 0.930 . S
H1999 C2008 0.930 . S
H2000 C2013 0.929 . S
H2001 C2011 0.929 . S
H2002 C2006 0.929 . S
H2003 C2012 0.929 . S
C2004 H1998 0.930 . S
C2004 C2005 1.367 . S
C2004 C2012 1.378 . S
C2005 C2004 1.367 . S
C2005 C2013 1.433 . S
C2006 H2002 0.929 . S
C2006 C2008 1.378 . S
C2006 C2010 1.350 . S
C2007 C2010 1.463 . S
C2007 C2012 1.350 . S
C2007 N2015 1.427 . S
C2008 H1999 0.930 . S
C2008 C2006 1.378 . S
C2008 C2009 1.367 . S
C2009 C2008 1.367 . S
C2009 C2011 1.433 . S
C2010 C2006 1.350 . S
C2010 C2007 1.463 . S
C2010 N2014 1.427 . S
C2011 H2001 0.929 . S
C2011 C2009 1.433 . S
C2011 N2014 1.384 . S
C2012 H2003 0.929 . S
C2012 C2004 1.378 . S
C2012 C2007 1.350 . S
C2013 H2000 0.929 . S
C2013 C2005 1.433 . S
C2013 N2015 1.384 . S
N2014 C2010 1.427 . S
N2014 C2011 1.384 . S
N2015 C2007 1.427 . S
N2015 C2013 1.384 . S
H2016 C2022 0.930 . S
H2017 C2026 0.930 . S
H2018 C2031 0.929 . S
H2019 C2029 0.929 . S
H2020 C2024 0.929 . S
H2021 C2030 0.929 . S
C2022 H2016 0.930 . S
C2022 C2023 1.367 . S
C2022 C2030 1.378 . S
C2023 C2022 1.367 . S
C2023 C2031 1.433 . S
C2024 H2020 0.929 . S
C2024 C2026 1.378 . S
C2024 C2028 1.350 . S
C2025 C2028 1.463 . S
C2025 C2030 1.350 . S
C2025 N2033 1.427 . S
C2026 H2017 0.930 . S
C2026 C2024 1.378 . S
C2026 C2027 1.367 . S
C2027 C2026 1.367 . S
C2027 C2029 1.433 . S
C2028 C2024 1.350 . S
C2028 C2025 1.463 . S
C2028 N2032 1.427 . S
C2029 H2019 0.929 . S
C2029 C2027 1.433 . S
C2029 N2032 1.384 . S
C2030 H2021 0.929 . S
C2030 C2022 1.378 . S
C2030 C2025 1.350 . S
C2031 H2018 0.929 . S
C2031 C2023 1.433 . S
C2031 N2033 1.384 . S
N2032 C2028 1.427 . S
N2032 C2029 1.384 . S
N2033 C2025 1.427 . S
N2033 C2031 1.384 . S
H2034 C2040 0.930 . S
H2035 C2044 0.930 . S
H2036 C2049 0.929 . S
H2037 C2047 0.929 . S
H2038 C2042 0.929 . S
H2039 C2048 0.929 . S
C2040 H2034 0.930 . S
C2040 C2041 1.367 . S
C2040 C2048 1.378 . S
C2041 C2040 1.367 . S
C2041 C2049 1.433 . S
C2042 H2038 0.929 . S
C2042 C2044 1.378 . S
C2042 C2046 1.350 . S
C2043 C2046 1.463 . S
C2043 C2048 1.350 . S
C2043 N2051 1.427 . S
C2044 H2035 0.930 . S
C2044 C2042 1.378 . S
C2044 C2045 1.367 . S
C2045 C2044 1.367 . S
C2045 C2047 1.433 . S
C2046 C2042 1.350 . S
C2046 C2043 1.463 . S
C2046 N2050 1.427 . S
C2047 H2037 0.929 . S
C2047 C2045 1.433 . S
C2047 N2050 1.384 . S
C2048 H2039 0.929 . S
C2048 C2040 1.378 . S
C2048 C2043 1.350 . S
C2049 H2036 0.929 . S
C2049 C2041 1.433 . S
C2049 N2051 1.384 . S
N2050 C2046 1.427 . S
N2050 C2047 1.384 . S
N2051 C2043 1.427 . S
N2051 C2049 1.384 . S
H2052 C2058 0.930 . S
H2053 C2062 0.930 . S
H2054 C2067 0.929 . S
H2055 C2065 0.929 . S
H2056 C2060 0.929 . S
H2057 C2066 0.929 . S
C2058 H2052 0.930 . S
C2058 C2059 1.367 . S
C2058 C2066 1.378 . S
C2059 C2058 1.367 . S
C2059 C2067 1.433 . S
C2060 H2056 0.929 . S
C2060 C2062 1.378 . S
C2060 C2064 1.350 . S
C2061 C2064 1.463 . S
C2061 C2066 1.350 . S
C2061 N2069 1.427 . S
C2062 H2053 0.930 . S
C2062 C2060 1.378 . S
C2062 C2063 1.367 . S
C2063 C2062 1.367 . S
C2063 C2065 1.433 . S
C2064 C2060 1.350 . S
C2064 C2061 1.463 . S
C2064 N2068 1.427 . S
C2065 H2055 0.929 . S
C2065 C2063 1.433 . S
C2065 N2068 1.384 . S
C2066 H2057 0.929 . S
C2066 C2058 1.378 . S
C2066 C2061 1.350 . S
C2067 H2054 0.929 . S
C2067 C2059 1.433 . S
C2067 N2069 1.384 . S
N2068 C2064 1.427 . S
N2068 C2065 1.384 . S
N2069 C2061 1.427 . S
N2069 C2067 1.384 . S
H2070 C2076 0.930 . S
H2071 C2080 0.930 . S
H2072 C2085 0.929 . S
H2073 C2083 0.929 . S
H2074 C2078 0.929 . S
H2075 C2084 0.929 . S
C2076 H2070 0.930 . S
C2076 C2077 1.367 . S
C2076 C2084 1.378 . S
C2077 C2076 1.367 . S
C2077 C2085 1.433 . S
C2078 H2074 0.929 . S
C2078 C2080 1.378 . S
C2078 C2082 1.350 . S
C2079 C2082 1.463 . S
C2079 C2084 1.350 . S
C2079 N2087 1.427 . S
C2080 H2071 0.930 . S
C2080 C2078 1.378 . S
C2080 C2081 1.367 . S
C2081 C2080 1.367 . S
C2081 C2083 1.433 . S
C2082 C2078 1.350 . S
C2082 C2079 1.463 . S
C2082 N2086 1.427 . S
C2083 H2073 0.929 . S
C2083 C2081 1.433 . S
C2083 N2086 1.384 . S
C2084 H2075 0.929 . S
C2084 C2076 1.378 . S
C2084 C2079 1.350 . S
C2085 H2072 0.929 . S
C2085 C2077 1.433 . S
C2085 N2087 1.384 . S
N2086 C2082 1.427 . S
N2086 C2083 1.384 . S
N2087 C2079 1.427 . S
N2087 C2085 1.384 . S
H2088 C2094 0.930 . S
H2089 C2098 0.930 . S
H2090 C2103 0.929 . S
H2091 C2101 0.929 . S
H2092 C2096 0.929 . S
H2093 C2102 0.929 . S
C2094 H2088 0.930 . S
C2094 C2095 1.367 . S
C2094 C2102 1.378 . S
C2095 C2094 1.367 . S
C2095 C2103 1.433 . S
C2096 H2092 0.929 . S
C2096 C2098 1.378 . S
C2096 C2100 1.350 1_554 S
C2097 C2100 1.463 . S
C2097 C2102 1.350 . S
C2097 N2105 1.427 . S
C2098 H2089 0.930 . S
C2098 C2096 1.378 . S
C2098 C2099 1.367 . S
C2099 C2098 1.367 . S
C2099 C2101 1.433 1_554 S
C2100 C2096 1.350 1_556 S
C2100 C2097 1.463 . S
C2100 N2104 1.427 . S
C2101 H2091 0.929 . S
C2101 C2099 1.433 1_556 S
C2101 N2104 1.384 . S
C2102 H2093 0.929 . S
C2102 C2094 1.378 . S
C2102 C2097 1.350 . S
C2103 H2090 0.929 . S
C2103 C2095 1.433 . S
C2103 N2105 1.384 . S
N2104 C2100 1.427 . S
N2104 C2101 1.384 . S
N2105 C2097 1.427 . S
N2105 C2103 1.384 . S
H2106 C2112 0.930 . S
H2107 C2116 0.930 . S
H2108 C2121 0.929 . S
H2109 C2119 0.929 . S
H2110 C2114 0.929 . S
H2111 C2120 0.929 . S
C2112 H2106 0.930 . S
C2112 C2113 1.367 . S
C2112 C2120 1.378 . S
C2113 C2112 1.367 . S
C2113 C2121 1.433 1_554 S
C2114 H2110 0.929 . S
C2114 C2116 1.378 . S
C2114 C2118 1.350 . S
C2115 C2118 1.463 . S
C2115 C2120 1.350 1_556 S
C2115 N2123 1.427 . S
C2116 H2107 0.930 . S
C2116 C2114 1.378 . S
C2116 C2117 1.367 . S
C2117 C2116 1.367 . S
C2117 C2119 1.433 . S
C2118 C2114 1.350 . S
C2118 C2115 1.463 . S
C2118 N2122 1.427 . S
C2119 H2109 0.929 . S
C2119 C2117 1.433 . S
C2119 N2122 1.384 . S
C2120 H2111 0.929 . S
C2120 C2112 1.378 . S
C2120 C2115 1.350 1_554 S
C2121 H2108 0.929 . S
C2121 C2113 1.433 1_556 S
C2121 N2123 1.384 . S
N2122 C2118 1.427 . S
N2122 C2119 1.384 . S
N2123 C2115 1.427 . S
N2123 C2121 1.384 . S
H2124 C2130 0.930 . S
H2125 C2134 0.930 . S
H2126 C2139 0.929 . S
H2127 C2137 0.929 . S
H2128 C2132 0.929 . S
H2129 C2138 0.929 . S
C2130 H2124 0.930 . S
C2130 C2131 1.367 . S
C2130 C2138 1.378 . S
C2131 C2130 1.367 . S
C2131 C2139 1.433 . S
C2132 H2128 0.929 . S
C2132 C2134 1.378 . S
C2132 C2136 1.350 1_554 S
C2133 C2136 1.463 . S
C2133 C2138 1.350 . S
C2133 N2141 1.427 . S
C2134 H2125 0.930 . S
C2134 C2132 1.378 . S
C2134 C2135 1.367 . S
C2135 C2134 1.367 . S
C2135 C2137 1.433 1_554 S
C2136 C2132 1.350 1_556 S
C2136 C2133 1.463 . S
C2136 N2140 1.427 . S
C2137 H2127 0.929 . S
C2137 C2135 1.433 1_556 S
C2137 N2140 1.384 . S
C2138 H2129 0.929 . S
C2138 C2130 1.378 . S
C2138 C2133 1.350 . S
C2139 H2126 0.929 . S
C2139 C2131 1.433 . S
C2139 N2141 1.384 . S
N2140 C2136 1.427 . S
N2140 C2137 1.384 . S
N2141 C2133 1.427 . S
N2141 C2139 1.384 . S
H2142 C2148 0.930 . S
H2143 C2152 0.930 . S
H2144 C2157 0.929 . S
H2145 C2155 0.929 . S
H2146 C2150 0.929 . S
H2147 C2156 0.929 . S
C2148 H2142 0.930 . S
C2148 C2149 1.367 . S
C2148 C2156 1.378 . S
C2149 C2148 1.367 . S
C2149 C2157 1.433 . S
C2150 H2146 0.929 . S
C2150 C2152 1.378 . S
C2150 C2154 1.350 . S
C2151 C2154 1.463 . S
C2151 C2156 1.350 . S
C2151 N2159 1.427 . S
C2152 H2143 0.930 . S
C2152 C2150 1.378 . S
C2152 C2153 1.367 . S
C2153 C2152 1.367 . S
C2153 C2155 1.433 . S
C2154 C2150 1.350 . S
C2154 C2151 1.463 . S
C2154 N2158 1.427 . S
C2155 H2145 0.929 . S
C2155 C2153 1.433 . S
C2155 N2158 1.384 . S
C2156 H2147 0.929 . S
C2156 C2148 1.378 . S
C2156 C2151 1.350 . S
C2157 H2144 0.929 . S
C2157 C2149 1.433 . S
C2157 N2159 1.384 . S
N2158 C2154 1.427 . S
N2158 C2155 1.384 . S
N2159 C2151 1.427 . S
N2159 C2157 1.384 . S
H2160 C2166 0.930 . S
H2161 C2170 0.930 . S
H2162 C2175 0.929 . S
H2163 C2173 0.929 . S
H2164 C2168 0.929 . S
H2165 C2174 0.929 . S
C2166 H2160 0.930 . S
C2166 C2167 1.367 . S
C2166 C2174 1.378 . S
C2167 C2166 1.367 . S
C2167 C2175 1.433 . S
C2168 H2164 0.929 . S
C2168 C2170 1.378 . S
C2168 C2172 1.350 . S
C2169 C2172 1.463 . S
C2169 C2174 1.350 . S
C2169 N2177 1.427 . S
C2170 H2161 0.930 . S
C2170 C2168 1.378 . S
C2170 C2171 1.367 . S
C2171 C2170 1.367 . S
C2171 C2173 1.433 . S
C2172 C2168 1.350 . S
C2172 C2169 1.463 . S
C2172 N2176 1.427 . S
C2173 H2163 0.929 . S
C2173 C2171 1.433 . S
C2173 N2176 1.384 . S
C2174 H2165 0.929 . S
C2174 C2166 1.378 . S
C2174 C2169 1.350 . S
C2175 H2162 0.929 . S
C2175 C2167 1.433 . S
C2175 N2177 1.384 . S
N2176 C2172 1.427 . S
N2176 C2173 1.384 . S
N2177 C2169 1.427 . S
N2177 C2175 1.384 . S
H2178 C2184 0.930 . S
H2179 C2188 0.930 . S
H2180 C2193 0.929 . S
H2181 C2191 0.929 . S
H2182 C2186 0.929 . S
H2183 C2192 0.929 . S
C2184 H2178 0.930 . S
C2184 C2185 1.367 . S
C2184 C2192 1.378 . S
C2185 C2184 1.367 . S
C2185 C2193 1.433 . S
C2186 H2182 0.929 . S
C2186 C2188 1.378 . S
C2186 C2190 1.350 . S
C2187 C2190 1.463 . S
C2187 C2192 1.350 . S
C2187 N2195 1.427 . S
C2188 H2179 0.930 . S
C2188 C2186 1.378 . S
C2188 C2189 1.367 . S
C2189 C2188 1.367 . S
C2189 C2191 1.433 . S
C2190 C2186 1.350 . S
C2190 C2187 1.463 . S
C2190 N2194 1.427 . S
C2191 H2181 0.929 . S
C2191 C2189 1.433 . S
C2191 N2194 1.384 . S
C2192 H2183 0.929 . S
C2192 C2184 1.378 . S
C2192 C2187 1.350 . S
C2193 H2180 0.929 . S
C2193 C2185 1.433 . S
C2193 N2195 1.384 . S
N2194 C2190 1.427 . S
N2194 C2191 1.384 . S
N2195 C2187 1.427 . S
N2195 C2193 1.384 . S
H2196 C2202 0.930 . S
H2197 C2206 0.930 . S
H2198 C2211 0.929 . S
H2199 C2209 0.929 . S
H2200 C2204 0.929 . S
H2201 C2210 0.929 . S
C2202 H2196 0.930 . S
C2202 C2203 1.367 . S
C2202 C2210 1.378 . S
C2203 C2202 1.367 . S
C2203 C2211 1.433 . S
C2204 H2200 0.929 . S
C2204 C2206 1.378 . S
C2204 C2208 1.350 . S
C2205 C2208 1.463 . S
C2205 C2210 1.350 . S
C2205 N2213 1.427 . S
C2206 H2197 0.930 . S
C2206 C2204 1.378 . S
C2206 C2207 1.367 . S
C2207 C2206 1.367 . S
C2207 C2209 1.433 . S
C2208 C2204 1.350 . S
C2208 C2205 1.463 . S
C2208 N2212 1.427 . S
C2209 H2199 0.929 . S
C2209 C2207 1.433 . S
C2209 N2212 1.384 . S
C2210 H2201 0.929 . S
C2210 C2202 1.378 . S
C2210 C2205 1.350 . S
C2211 H2198 0.929 . S
C2211 C2203 1.433 . S
C2211 N2213 1.384 . S
N2212 C2208 1.427 . S
N2212 C2209 1.384 . S
N2213 C2205 1.427 . S
N2213 C2211 1.384 . S
H2214 C2220 0.930 . S
H2215 C2224 0.930 . S
H2216 C2229 0.929 . S
H2217 C2227 0.929 . S
H2218 C2222 0.929 1_545 S
H2219 C2228 0.929 1_565 S
C2220 H2214 0.930 . S
C2220 C2221 1.367 . S
C2220 C2228 1.378 . S
C2221 C2220 1.367 . S
C2221 C2229 1.433 . S
C2222 H2218 0.929 1_565 S
C2222 C2224 1.378 . S
C2222 C2226 1.350 . S
C2223 C2226 1.463 1_545 S
C2223 C2228 1.350 . S
C2223 N2231 1.427 . S
C2224 H2215 0.930 . S
C2224 C2222 1.378 . S
C2224 C2225 1.367 . S
C2225 C2224 1.367 . S
C2225 C2227 1.433 . S
C2226 C2222 1.350 . S
C2226 C2223 1.463 1_565 S
C2226 N2230 1.427 . S
C2227 H2217 0.929 . S
C2227 C2225 1.433 . S
C2227 N2230 1.384 . S
C2228 H2219 0.929 1_545 S
C2228 C2220 1.378 . S
C2228 C2223 1.350 . S
C2229 H2216 0.929 . S
C2229 C2221 1.433 . S
C2229 N2231 1.384 . S
N2230 C2226 1.427 . S
N2230 C2227 1.384 . S
N2231 C2223 1.427 . S
N2231 C2229 1.384 . S
H2232 C2238 0.930 . S
H2233 C2242 0.930 . S
H2234 C2247 0.929 . S
H2235 C2245 0.929 . S
H2236 C2240 0.929 1_455 S
H2237 C2246 0.929 1_655 S
C2238 H2232 0.930 . S
C2238 C2239 1.367 . S
C2238 C2246 1.378 . S
C2239 C2238 1.367 . S
C2239 C2247 1.433 . S
C2240 H2236 0.929 1_655 S
C2240 C2242 1.378 . S
C2240 C2244 1.350 . S
C2241 C2244 1.463 1_455 S
C2241 C2246 1.350 . S
C2241 N2249 1.427 . S
C2242 H2233 0.930 . S
C2242 C2240 1.378 . S
C2242 C2243 1.367 . S
C2243 C2242 1.367 . S
C2243 C2245 1.433 . S
C2244 C2240 1.350 . S
C2244 C2241 1.463 1_655 S
C2244 N2248 1.427 . S
C2245 H2235 0.929 . S
C2245 C2243 1.433 . S
C2245 N2248 1.384 . S
C2246 H2237 0.929 1_455 S
C2246 C2238 1.378 . S
C2246 C2241 1.350 . S
C2247 H2234 0.929 . S
C2247 C2239 1.433 . S
C2247 N2249 1.384 . S
N2248 C2244 1.427 . S
N2248 C2245 1.384 . S
N2249 C2241 1.427 . S
N2249 C2247 1.384 . S
H2250 C2256 0.930 . S
H2251 C2260 0.930 . S
H2252 C2265 0.929 . S
H2253 C2263 0.929 . S
H2254 C2258 0.929 . S
H2255 C2264 0.929 . S
C2256 H2250 0.930 . S
C2256 C2257 1.367 . S
C2256 C2264 1.378 . S
C2257 C2256 1.367 . S
C2257 C2265 1.433 . S
C2258 H2254 0.929 . S
C2258 C2260 1.378 . S
C2258 C2262 1.350 . S
C2259 C2262 1.463 . S
C2259 C2264 1.350 . S
C2259 N2267 1.427 . S
C2260 H2251 0.930 . S
C2260 C2258 1.378 . S
C2260 C2261 1.367 . S
C2261 C2260 1.367 . S
C2261 C2263 1.433 . S
C2262 C2258 1.350 . S
C2262 C2259 1.463 . S
C2262 N2266 1.427 . S
C2263 H2253 0.929 . S
C2263 C2261 1.433 . S
C2263 N2266 1.384 . S
C2264 H2255 0.929 . S
C2264 C2256 1.378 . S
C2264 C2259 1.350 . S
C2265 H2252 0.929 . S
C2265 C2257 1.433 . S
C2265 N2267 1.384 . S
N2266 C2262 1.427 . S
N2266 C2263 1.384 . S
N2267 C2259 1.427 . S
N2267 C2265 1.384 . S
H2268 C2274 0.930 . S
H2269 C2278 0.930 . S
H2270 C2283 0.929 . S
H2271 C2281 0.929 . S
H2272 C2276 0.929 . S
H2273 C2282 0.929 . S
C2274 H2268 0.930 . S
C2274 C2275 1.367 . S
C2274 C2282 1.378 . S
C2275 C2274 1.367 . S
C2275 C2283 1.433 . S
C2276 H2272 0.929 . S
C2276 C2278 1.378 . S
C2276 C2280 1.350 . S
C2277 C2280 1.463 1_545 S
C2277 C2282 1.350 . S
C2277 N2285 1.427 . S
C2278 H2269 0.930 . S
C2278 C2276 1.378 . S
C2278 C2279 1.367 . S
C2279 C2278 1.367 . S
C2279 C2281 1.433 . S
C2280 C2276 1.350 . S
C2280 C2277 1.463 1_565 S
C2280 N2284 1.427 . S
C2281 H2271 0.929 . S
C2281 C2279 1.433 . S
C2281 N2284 1.384 . S
C2282 H2273 0.929 . S
C2282 C2274 1.378 . S
C2282 C2277 1.350 . S
C2283 H2270 0.929 . S
C2283 C2275 1.433 . S
C2283 N2285 1.384 . S
N2284 C2280 1.427 . S
N2284 C2281 1.384 . S
N2285 C2277 1.427 . S
N2285 C2283 1.384 . S
H2286 C2292 0.930 . S
H2287 C2296 0.930 . S
H2288 C2301 0.929 . S
H2289 C2299 0.929 . S
H2290 C2294 0.853 1_655 S
H2291 C2300 0.853 1_455 S
C2292 H2286 0.930 . S
C2292 C2293 1.367 . S
C2292 C2300 1.378 . S
C2293 C2292 1.367 . S
C2293 C2301 1.433 . S
C2294 H2290 0.853 1_455 S
C2294 C2296 1.378 . S
C2294 C2298 1.350 . S
C2295 C2298 1.463 1_655 S
C2295 C2300 1.350 . S
C2295 N2303 1.427 . S
C2296 H2287 0.930 . S
C2296 C2294 1.378 . S
C2296 C2297 1.367 . S
C2297 C2296 1.367 . S
C2297 C2299 1.433 . S
C2298 C2294 1.350 . S
C2298 C2295 1.463 1_455 S
C2298 N2302 1.427 . S
C2299 H2289 0.929 . S
C2299 C2297 1.433 . S
C2299 N2302 1.384 . S
C2300 H2291 0.853 1_655 S
C2300 C2292 1.378 . S
C2300 C2295 1.350 . S
C2301 H2288 0.929 . S
C2301 C2293 1.433 . S
C2301 N2303 1.384 . S
N2302 C2298 1.427 . S
N2302 C2299 1.384 . S
N2303 C2295 1.427 . S
N2303 C2301 1.384 . S
H2304 C2310 0.930 . S
H2305 C2314 0.930 . S
H2306 C2319 0.929 . S
H2307 C2317 0.929 . S
H2308 C2312 0.929 . S
H2309 C2318 0.929 . S
C2310 H2304 0.930 . S
C2310 C2311 1.367 . S
C2310 C2318 1.378 . S
C2311 C2310 1.367 . S
C2311 C2319 1.433 . S
C2312 H2308 0.929 . S
C2312 C2314 1.378 . S
C2312 C2316 1.350 . S
C2313 C2316 1.463 . S
C2313 C2318 1.350 . S
C2313 N2321 1.427 . S
C2314 H2305 0.930 . S
C2314 C2312 1.378 . S
C2314 C2315 1.367 . S
C2315 C2314 1.367 . S
C2315 C2317 1.433 . S
C2316 C2312 1.350 . S
C2316 C2313 1.463 . S
C2316 N2320 1.427 . S
C2317 H2307 0.929 . S
C2317 C2315 1.433 . S
C2317 N2320 1.384 . S
C2318 H2309 0.929 . S
C2318 C2310 1.378 . S
C2318 C2313 1.350 . S
C2319 H2306 0.929 . S
C2319 C2311 1.433 . S
C2319 N2321 1.384 . S
N2320 C2316 1.427 . S
N2320 C2317 1.384 . S
N2321 C2313 1.427 . S
N2321 C2319 1.384 . S
H2322 C2328 0.930 . S
H2323 C2332 0.930 . S
H2324 C2337 0.929 . S
H2325 C2335 0.929 1_556 S
H2326 C2330 0.929 . S
H2327 C2336 0.929 . S
C2328 H2322 0.930 . S
C2328 C2329 1.367 . S
C2328 C2336 1.378 . S
C2329 C2328 1.367 . S
C2329 C2337 1.433 . S
C2330 H2326 0.929 . S
C2330 C2332 1.378 . S
C2330 C2334 1.350 . S
C2331 C2334 1.463 . S
C2331 C2336 1.350 . S
C2331 N2339 1.427 . S
C2332 H2323 0.930 . S
C2332 C2330 1.378 . S
C2332 C2333 1.367 . S
C2333 C2332 1.367 . S
C2333 C2335 1.433 . S
C2334 C2330 1.350 . S
C2334 C2331 1.463 . S
C2334 N2338 1.427 . S
C2335 H2325 0.929 1_554 S
C2335 C2333 1.433 . S
C2335 N2338 1.384 . S
C2336 H2327 0.929 . S
C2336 C2328 1.378 . S
C2336 C2331 1.350 . S
C2337 H2324 0.929 . S
C2337 C2329 1.433 . S
C2337 N2339 1.384 . S
N2338 C2334 1.427 . S
N2338 C2335 1.384 . S
N2339 C2331 1.427 . S
N2339 C2337 1.384 . S
H2340 C2346 0.930 . S
H2341 C2350 0.930 . S
H2342 C2355 0.929 . S
H2343 C2353 0.929 . S
H2344 C2348 0.929 . S
H2345 C2354 0.929 . S
C2346 H2340 0.930 . S
C2346 C2347 1.367 . S
C2346 C2354 1.378 . S
C2347 C2346 1.367 . S
C2347 C2355 1.433 . S
C2348 H2344 0.929 . S
C2348 C2350 1.378 . S
C2348 C2352 1.350 . S
C2349 C2352 1.463 . S
C2349 C2354 1.350 . S
C2349 N2357 1.427 . S
C2350 H2341 0.930 . S
C2350 C2348 1.378 . S
C2350 C2351 1.367 . S
C2351 C2350 1.367 . S
C2351 C2353 1.433 . S
C2352 C2348 1.350 . S
C2352 C2349 1.463 . S
C2352 N2356 1.427 . S
C2353 H2343 0.929 . S
C2353 C2351 1.433 . S
C2353 N2356 1.384 . S
C2354 H2345 0.929 . S
C2354 C2346 1.378 . S
C2354 C2349 1.350 . S
C2355 H2342 0.929 . S
C2355 C2347 1.433 . S
C2355 N2357 1.384 . S
N2356 C2352 1.427 . S
N2356 C2353 1.384 . S
N2357 C2349 1.427 . S
N2357 C2355 1.384 . S
H2358 C2364 0.930 . S
H2359 C2368 0.930 . S
H2360 C2373 0.929 . S
H2361 C2371 0.929 . S
H2362 C2366 0.929 . S
H2363 C2372 0.929 . S
C2364 H2358 0.930 . S
C2364 C2365 1.367 . S
C2364 C2372 1.378 . S
C2365 C2364 1.367 . S
C2365 C2373 1.433 . S
C2366 H2362 0.929 . S
C2366 C2368 1.378 . S
C2366 C2370 1.350 . S
C2367 C2370 1.463 . S
C2367 C2372 1.350 . S
C2367 N2375 1.427 . S
C2368 H2359 0.930 . S
C2368 C2366 1.378 . S
C2368 C2369 1.367 . S
C2369 C2368 1.367 . S
C2369 C2371 1.433 . S
C2370 C2366 1.350 . S
C2370 C2367 1.463 . S
C2370 N2374 1.427 . S
C2371 H2361 0.929 . S
C2371 C2369 1.433 . S
C2371 N2374 1.384 . S
C2372 H2363 0.929 . S
C2372 C2364 1.378 . S
C2372 C2367 1.350 . S
C2373 H2360 0.929 . S
C2373 C2365 1.433 . S
C2373 N2375 1.384 . S
N2374 C2370 1.427 . S
N2374 C2371 1.384 . S
N2375 C2367 1.427 . S
N2375 C2373 1.384 . S
H2376 C2382 0.930 . S
H2377 C2386 0.930 . S
H2378 C2391 0.929 . S
H2379 C2389 0.929 . S
H2380 C2384 0.929 . S
H2381 C2390 0.929 . S
C2382 H2376 0.930 . S
C2382 C2383 1.367 . S
C2382 C2390 1.378 . S
C2383 C2382 1.367 . S
C2383 C2391 1.433 . S
C2384 H2380 0.929 . S
C2384 C2386 1.378 . S
C2384 C2388 1.350 . S
C2385 C2388 1.463 . S
C2385 C2390 1.350 . S
C2385 N2393 1.427 . S
C2386 H2377 0.930 . S
C2386 C2384 1.378 . S
C2386 C2387 1.367 . S
C2387 C2386 1.367 . S
C2387 C2389 1.433 . S
C2388 C2384 1.350 . S
C2388 C2385 1.463 . S
C2388 N2392 1.427 . S
C2389 H2379 0.929 . S
C2389 C2387 1.433 . S
C2389 N2392 1.384 . S
C2390 H2381 0.929 . S
C2390 C2382 1.378 . S
C2390 C2385 1.350 . S
C2391 H2378 0.929 . S
C2391 C2383 1.433 . S
C2391 N2393 1.384 . S
N2392 C2388 1.427 . S
N2392 C2389 1.384 . S
N2393 C2385 1.427 . S
N2393 C2391 1.384 . S
H2394 C2400 0.930 . S
H2395 C2404 0.930 . S
H2396 C2409 0.929 . S
H2397 C2407 0.929 . S
H2398 C2402 0.929 . S
H2399 C2408 0.929 . S
C2400 H2394 0.930 . S
C2400 C2401 1.367 . S
C2400 C2408 1.378 . S
C2401 C2400 1.367 . S
C2401 C2409 1.433 . S
C2402 H2398 0.929 . S
C2402 C2404 1.378 . S
C2402 C2406 1.350 . S
C2403 C2406 1.463 . S
C2403 C2408 1.350 . S
C2403 N2411 1.427 . S
C2404 H2395 0.930 . S
C2404 C2402 1.378 . S
C2404 C2405 1.367 . S
C2405 C2404 1.367 . S
C2405 C2407 1.433 . S
C2406 C2402 1.350 . S
C2406 C2403 1.463 . S
C2406 N2410 1.427 . S
C2407 H2397 0.929 . S
C2407 C2405 1.433 . S
C2407 N2410 1.384 . S
C2408 H2399 0.929 . S
C2408 C2400 1.378 . S
C2408 C2403 1.350 . S
C2409 H2396 0.929 . S
C2409 C2401 1.433 . S
C2409 N2411 1.384 . S
N2410 C2406 1.427 . S
N2410 C2407 1.384 . S
N2411 C2403 1.427 . S
N2411 C2409 1.384 . S
H2412 C2418 0.930 . S
H2413 C2422 0.930 . S
H2414 C2427 0.929 . S
H2415 C2425 0.929 . S
H2416 C2420 0.929 . S
H2417 C2426 0.929 . S
C2418 H2412 0.930 . S
C2418 C2419 1.367 . S
C2418 C2426 1.378 . S
C2419 C2418 1.367 . S
C2419 C2427 1.433 . S
C2420 H2416 0.929 . S
C2420 C2422 1.378 . S
C2420 C2424 1.350 . S
C2421 C2424 1.463 . S
C2421 C2426 1.350 . S
C2421 N2429 1.427 . S
C2422 H2413 0.930 . S
C2422 C2420 1.378 . S
C2422 C2423 1.367 . S
C2423 C2422 1.367 . S
C2423 C2425 1.433 . S
C2424 C2420 1.350 . S
C2424 C2421 1.463 . S
C2424 N2428 1.427 . S
C2425 H2415 0.929 . S
C2425 C2423 1.433 . S
C2425 N2428 1.384 . S
C2426 H2417 0.929 . S
C2426 C2418 1.378 . S
C2426 C2421 1.350 . S
C2427 H2414 0.929 . S
C2427 C2419 1.433 . S
C2427 N2429 1.384 . S
N2428 C2424 1.427 . S
N2428 C2425 1.384 . S
N2429 C2421 1.427 . S
N2429 C2427 1.384 . S
H2430 C2436 0.930 . S
H2431 C2440 0.930 . S
H2432 C2445 0.929 . S
H2433 C2443 0.929 . S
H2434 C2438 0.929 . S
H2435 C2444 0.929 . S
C2436 H2430 0.930 . S
C2436 C2437 1.367 . S
C2436 C2444 1.378 . S
C2437 C2436 1.367 . S
C2437 C2445 1.433 . S
C2438 H2434 0.929 . S
C2438 C2440 1.378 . S
C2438 C2442 1.350 . S
C2439 C2442 1.463 . S
C2439 C2444 1.350 . S
C2439 N2447 1.427 . S
C2440 H2431 0.930 . S
C2440 C2438 1.378 . S
C2440 C2441 1.367 . S
C2441 C2440 1.367 . S
C2441 C2443 1.433 . S
C2442 C2438 1.350 . S
C2442 C2439 1.463 . S
C2442 N2446 1.427 . S
C2443 H2433 0.929 . S
C2443 C2441 1.433 . S
C2443 N2446 1.384 . S
C2444 H2435 0.929 . S
C2444 C2436 1.378 . S
C2444 C2439 1.350 . S
C2445 H2432 0.929 . S
C2445 C2437 1.433 . S
C2445 N2447 1.384 . S
N2446 C2442 1.427 . S
N2446 C2443 1.384 . S
N2447 C2439 1.427 . S
N2447 C2445 1.384 . S
H2448 C2454 0.930 . S
H2449 C2458 0.930 . S
H2450 C2463 0.929 . S
H2451 C2461 0.929 . S
H2452 C2456 0.929 . S
H2453 C2462 0.929 . S
C2454 H2448 0.930 . S
C2454 C2455 1.367 . S
C2454 C2462 1.378 . S
C2455 C2454 1.367 . S
C2455 C2463 1.433 . S
C2456 H2452 0.929 . S
C2456 C2458 1.378 . S
C2456 C2460 1.350 . S
C2457 C2460 1.463 . S
C2457 C2462 1.350 . S
C2457 N2465 1.427 . S
C2458 H2449 0.930 . S
C2458 C2456 1.378 . S
C2458 C2459 1.367 . S
C2459 C2458 1.367 . S
C2459 C2461 1.433 . S
C2460 C2456 1.350 . S
C2460 C2457 1.463 . S
C2460 N2464 1.427 . S
C2461 H2451 0.929 . S
C2461 C2459 1.433 . S
C2461 N2464 1.384 . S
C2462 H2453 0.929 . S
C2462 C2454 1.378 . S
C2462 C2457 1.350 . S
C2463 H2450 0.929 . S
C2463 C2455 1.433 . S
C2463 N2465 1.384 . S
N2464 C2460 1.427 . S
N2464 C2461 1.384 . S
N2465 C2457 1.427 . S
N2465 C2463 1.384 . S
H2466 C2472 0.930 . S
H2467 C2476 0.930 . S
H2468 C2481 0.929 . S
H2469 C2479 0.929 . S
H2470 C2474 0.929 . S
H2471 C2480 0.929 . S
C2472 H2466 0.930 . S
C2472 C2473 1.367 . S
C2472 C2480 1.378 1_554 S
C2473 C2472 1.367 . S
C2473 C2481 1.433 . S
C2474 H2470 0.929 . S
C2474 C2476 1.378 . S
C2474 C2478 1.350 . S
C2475 C2478 1.463 . S
C2475 C2480 1.350 . S
C2475 N2483 1.427 1_556 S
C2476 H2467 0.930 . S
C2476 C2474 1.378 . S
C2476 C2477 1.367 . S
C2477 C2476 1.367 . S
C2477 C2479 1.433 . S
C2478 C2474 1.350 . S
C2478 C2475 1.463 . S
C2478 N2482 1.427 . S
C2479 H2469 0.929 . S
C2479 C2477 1.433 . S
C2479 N2482 1.384 . S
C2480 H2471 0.929 . S
C2480 C2472 1.378 1_556 S
C2480 C2475 1.350 . S
C2481 H2468 0.929 . S
C2481 C2473 1.433 . S
C2481 N2483 1.384 . S
N2482 C2478 1.427 . S
N2482 C2479 1.384 . S
N2483 C2475 1.427 1_554 S
N2483 C2481 1.384 . S
H2484 C2490 0.930 . S
H2485 C2494 0.930 . S
H2486 C2499 0.929 . S
H2487 C2497 0.929 . S
H2488 C2492 0.929 . S
H2489 C2498 0.929 . S
C2490 H2484 0.930 . S
C2490 C2491 1.367 . S
C2490 C2498 1.378 1_554 S
C2491 C2490 1.367 . S
C2491 C2499 1.433 . S
C2492 H2488 0.929 . S
C2492 C2494 1.378 . S
C2492 C2496 1.350 . S
C2493 C2496 1.463 . S
C2493 C2498 1.350 . S
C2493 N2501 1.427 1_556 S
C2494 H2485 0.930 . S
C2494 C2492 1.378 . S
C2494 C2495 1.367 . S
C2495 C2494 1.367 . S
C2495 C2497 1.433 . S
C2496 C2492 1.350 . S
C2496 C2493 1.463 . S
C2496 N2500 1.427 . S
C2497 H2487 0.929 . S
C2497 C2495 1.433 . S
C2497 N2500 1.384 . S
C2498 H2489 0.929 . S
C2498 C2490 1.378 1_556 S
C2498 C2493 1.350 . S
C2499 H2486 0.929 . S
C2499 C2491 1.433 . S
C2499 N2501 1.384 . S
N2500 C2496 1.427 . S
N2500 C2497 1.384 . S
N2501 C2493 1.427 1_554 S
N2501 C2499 1.384 . S
H2502 C2508 0.930 . S
H2503 C2512 0.930 . S
H2504 C2517 0.929 . S
H2505 C2515 0.929 . S
H2506 C2510 0.929 . S
H2507 C2516 0.929 . S
C2508 H2502 0.930 . S
C2508 C2509 1.367 . S
C2508 C2516 1.378 . S
C2509 C2508 1.367 . S
C2509 C2517 1.433 . S
C2510 H2506 0.929 . S
C2510 C2512 1.378 . S
C2510 C2514 1.350 . S
C2511 C2514 1.463 . S
C2511 C2516 1.350 1_556 S
C2511 N2519 1.427 . S
C2512 H2503 0.930 . S
C2512 C2510 1.378 . S
C2512 C2513 1.367 . S
C2513 C2512 1.367 . S
C2513 C2515 1.433 . S
C2514 C2510 1.350 . S
C2514 C2511 1.463 . S
C2514 N2518 1.427 . S
C2515 H2505 0.929 . S
C2515 C2513 1.433 . S
C2515 N2518 1.384 . S
C2516 H2507 0.929 . S
C2516 C2508 1.378 . S
C2516 C2511 1.350 1_554 S
C2517 H2504 0.929 . S
C2517 C2509 1.433 . S
C2517 N2519 1.384 1_554 S
N2518 C2514 1.427 . S
N2518 C2515 1.384 . S
N2519 C2511 1.427 . S
N2519 C2517 1.384 1_556 S
H2520 C2526 0.930 . S
H2521 C2530 0.930 . S
H2522 C2535 0.929 . S
H2523 C2533 0.929 . S
H2524 C2528 0.929 1_554 S
H2525 C2534 0.929 . S
C2526 H2520 0.930 . S
C2526 C2527 1.367 1_556 S
C2526 C2534 1.378 . S
C2527 C2526 1.367 1_554 S
C2527 C2535 1.433 . S
C2528 H2524 0.929 1_556 S
C2528 C2530 1.378 . S
C2528 C2532 1.350 . S
C2529 C2532 1.463 . S
C2529 C2534 1.350 . S
C2529 N2537 1.427 1_556 S
C2530 H2521 0.930 . S
C2530 C2528 1.378 . S
C2530 C2531 1.367 . S
C2531 C2530 1.367 . S
C2531 C2533 1.433 . S
C2532 C2528 1.350 . S
C2532 C2529 1.463 . S
C2532 N2536 1.427 . S
C2533 H2523 0.929 . S
C2533 C2531 1.433 . S
C2533 N2536 1.384 . S
C2534 H2525 0.929 . S
C2534 C2526 1.378 . S
C2534 C2529 1.350 . S
C2535 H2522 0.929 . S
C2535 C2527 1.433 . S
C2535 N2537 1.384 . S
N2536 C2532 1.427 . S
N2536 C2533 1.384 . S
N2537 C2529 1.427 1_554 S
N2537 C2535 1.384 . S
H2538 C2544 0.930 . S
H2539 C2548 0.930 . S
H2540 C2553 0.929 . S
H2541 C2551 0.929 . S
H2542 C2546 0.929 . S
H2543 C2552 0.928 1_556 S
C2544 H2538 0.930 . S
C2544 C2545 1.367 . S
C2544 C2552 1.382 . S
C2545 C2544 1.367 . S
C2545 C2553 1.433 . S
C2546 H2542 0.929 . S
C2546 C2548 1.378 . S
C2546 C2550 1.350 . S
C2547 C2550 1.463 . S
C2547 C2552 1.346 1_556 S
C2547 N2555 1.427 . S
C2548 H2539 0.930 . S
C2548 C2546 1.378 . S
C2548 C2549 1.367 . S
C2549 C2548 1.367 . S
C2549 C2551 1.433 . S
C2550 C2546 1.350 . S
C2550 C2547 1.463 . S
C2550 N2554 1.427 . S
C2551 H2541 0.929 . S
C2551 C2549 1.433 . S
C2551 N2554 1.384 . S
C2552 H2543 0.928 1_554 S
C2552 C2544 1.382 . S
C2552 C2547 1.346 1_554 S
C2553 H2540 0.929 . S
C2553 C2545 1.433 . S
C2553 N2555 1.384 1_554 S
N2554 C2550 1.427 . S
N2554 C2551 1.384 . S
N2555 C2547 1.427 . S
N2555 C2553 1.384 1_556 S
H2556 C2562 0.930 . S
H2557 C2566 0.930 . S
H2558 C2571 0.929 . S
H2559 C2569 0.929 . S
H2560 C2564 0.929 . S
H2561 C2570 0.929 . S
C2562 H2556 0.930 . S
C2562 C2563 1.367 . S
C2562 C2570 1.378 . S
C2563 C2562 1.367 . S
C2563 C2571 1.433 . S
C2564 H2560 0.929 . S
C2564 C2566 1.378 . S
C2564 C2568 1.350 1_554 S
C2565 C2568 1.463 . S
C2565 C2570 1.350 . S
C2565 N2573 1.427 . S
C2566 H2557 0.930 . S
C2566 C2564 1.378 . S
C2566 C2567 1.367 . S
C2567 C2566 1.367 . S
C2567 C2569 1.433 1_554 S
C2568 C2564 1.350 1_556 S
C2568 C2565 1.463 . S
C2568 N2572 1.427 . S
C2569 H2559 0.929 . S
C2569 C2567 1.433 1_556 S
C2569 N2572 1.384 . S
C2570 H2561 0.929 . S
C2570 C2562 1.378 . S
C2570 C2565 1.350 . S
C2571 H2558 0.929 . S
C2571 C2563 1.433 . S
C2571 N2573 1.384 . S
N2572 C2568 1.427 . S
N2572 C2569 1.384 . S
N2573 C2565 1.427 . S
N2573 C2571 1.384 . S
H2574 C2580 0.930 . S
H2575 C2584 0.930 . S
H2576 C2589 0.929 . S
H2577 C2587 0.929 . S
H2578 C2582 0.929 . S
H2579 C2588 0.929 . S
C2580 H2574 0.930 . S
C2580 C2581 1.367 . S
C2580 C2588 1.378 . S
C2581 C2580 1.367 . S
C2581 C2589 1.433 . S
C2582 H2578 0.929 . S
C2582 C2584 1.378 . S
C2582 C2586 1.350 . S
C2583 C2586 1.463 . S
C2583 C2588 1.350 . S
C2583 N2591 1.427 . S
C2584 H2575 0.930 . S
C2584 C2582 1.378 . S
C2584 C2585 1.367 . S
C2585 C2584 1.367 . S
C2585 C2587 1.433 . S
C2586 C2582 1.350 . S
C2586 C2583 1.463 . S
C2586 N2590 1.427 . S
C2587 H2577 0.929 . S
C2587 C2585 1.433 . S
C2587 N2590 1.384 . S
C2588 H2579 0.929 . S
C2588 C2580 1.378 . S
C2588 C2583 1.350 . S
C2589 H2576 0.929 . S
C2589 C2581 1.433 . S
C2589 N2591 1.384 . S
N2590 C2586 1.427 . S
N2590 C2587 1.384 . S
N2591 C2583 1.427 . S
N2591 C2589 1.384 . S
H2592 C2598 0.930 . S
H2593 C2602 0.930 . S
H2594 C2607 0.929 . S
H2595 C2605 0.929 . S
H2596 C2600 0.929 . S
H2597 C2606 0.929 . S
C2598 H2592 0.930 . S
C2598 C2599 1.367 . S
C2598 C2606 1.378 . S
C2599 C2598 1.367 . S
C2599 C2607 1.433 . S
C2600 H2596 0.929 . S
C2600 C2602 1.378 . S
C2600 C2604 1.350 . S
C2601 C2604 1.463 . S
C2601 C2606 1.350 . S
C2601 N2609 1.427 . S
C2602 H2593 0.930 . S
C2602 C2600 1.378 . S
C2602 C2603 1.367 . S
C2603 C2602 1.367 . S
C2603 C2605 1.433 . S
C2604 C2600 1.350 . S
C2604 C2601 1.463 . S
C2604 N2608 1.427 . S
C2605 H2595 0.929 . S
C2605 C2603 1.433 . S
C2605 N2608 1.384 . S
C2606 H2597 0.929 . S
C2606 C2598 1.378 . S
C2606 C2601 1.350 . S
C2607 H2594 0.929 . S
C2607 C2599 1.433 . S
C2607 N2609 1.384 . S
N2608 C2604 1.427 . S
N2608 C2605 1.384 . S
N2609 C2601 1.427 . S
N2609 C2607 1.384 . S
H2610 C2616 0.930 . S
H2611 C2620 0.930 . S
H2612 C2625 0.929 . S
H2613 C2623 0.929 . S
H2614 C2618 0.929 . S
H2615 C2624 0.929 . S
C2616 H2610 0.930 . S
C2616 C2617 1.367 . S
C2616 C2624 1.378 . S
C2617 C2616 1.367 . S
C2617 C2625 1.433 . S
C2618 H2614 0.929 . S
C2618 C2620 1.378 . S
C2618 C2622 1.350 . S
C2619 C2622 1.463 . S
C2619 C2624 1.350 . S
C2619 N2627 1.427 . S
C2620 H2611 0.930 . S
C2620 C2618 1.378 . S
C2620 C2621 1.367 . S
C2621 C2620 1.367 . S
C2621 C2623 1.433 . S
C2622 C2618 1.350 . S
C2622 C2619 1.463 . S
C2622 N2626 1.427 . S
C2623 H2613 0.929 . S
C2623 C2621 1.433 . S
C2623 N2626 1.384 . S
C2624 H2615 0.929 . S
C2624 C2616 1.378 . S
C2624 C2619 1.350 . S
C2625 H2612 0.929 . S
C2625 C2617 1.433 . S
C2625 N2627 1.384 . S
N2626 C2622 1.427 . S
N2626 C2623 1.384 . S
N2627 C2619 1.427 . S
N2627 C2625 1.384 . S
H2628 C2634 0.930 . S
H2629 C2638 0.930 . S
H2630 C2643 0.929 . S
H2631 C2641 0.929 . S
H2632 C2636 0.929 . S
H2633 C2642 0.929 . S
C2634 H2628 0.930 . S
C2634 C2635 1.367 . S
C2634 C2642 1.378 . S
C2635 C2634 1.367 . S
C2635 C2643 1.433 . S
C2636 H2632 0.929 . S
C2636 C2638 1.378 . S
C2636 C2640 1.350 . S
C2637 C2640 1.463 . S
C2637 C2642 1.350 . S
C2637 N2645 1.427 . S
C2638 H2629 0.930 . S
C2638 C2636 1.378 . S
C2638 C2639 1.367 . S
C2639 C2638 1.367 . S
C2639 C2641 1.433 . S
C2640 C2636 1.350 . S
C2640 C2637 1.463 . S
C2640 N2644 1.427 . S
C2641 H2631 0.929 . S
C2641 C2639 1.433 . S
C2641 N2644 1.384 . S
C2642 H2633 0.929 . S
C2642 C2634 1.378 . S
C2642 C2637 1.350 . S
C2643 H2630 0.929 . S
C2643 C2635 1.433 . S
C2643 N2645 1.384 . S
N2644 C2640 1.427 . S
N2644 C2641 1.384 . S
N2645 C2637 1.427 . S
N2645 C2643 1.384 . S
H2646 C2652 0.930 . S
H2647 C2656 0.930 . S
H2648 C2661 0.929 . S
H2649 C2659 0.929 . S
H2650 C2654 0.929 . S
H2651 C2660 0.929 . S
C2652 H2646 0.930 . S
C2652 C2653 1.367 . S
C2652 C2660 1.378 . S
C2653 C2652 1.367 . S
C2653 C2661 1.433 . S
C2654 H2650 0.929 . S
C2654 C2656 1.378 . S
C2654 C2658 1.350 . S
C2655 C2658 1.463 . S
C2655 C2660 1.350 . S
C2655 N2663 1.427 . S
C2656 H2647 0.930 . S
C2656 C2654 1.378 . S
C2656 C2657 1.367 . S
C2657 C2656 1.367 . S
C2657 C2659 1.433 . S
C2658 C2654 1.350 . S
C2658 C2655 1.463 . S
C2658 N2662 1.427 . S
C2659 H2649 0.929 . S
C2659 C2657 1.433 . S
C2659 N2662 1.384 . S
C2660 H2651 0.929 . S
C2660 C2652 1.378 . S
C2660 C2655 1.350 . S
C2661 H2648 0.929 . S
C2661 C2653 1.433 . S
C2661 N2663 1.384 . S
N2662 C2658 1.427 . S
N2662 C2659 1.384 . S
N2663 C2655 1.427 . S
N2663 C2661 1.384 . S
H2664 C2670 0.930 . S
H2665 C2674 0.930 . S
H2666 C2679 0.929 1_556 S
H2667 C2677 0.929 . S
H2668 C2672 0.929 . S
H2669 C2678 0.929 . S
C2670 H2664 0.930 . S
C2670 C2671 1.367 . S
C2670 C2678 1.378 . S
C2671 C2670 1.367 . S
C2671 C2679 1.433 . S
C2672 H2668 0.929 . S
C2672 C2674 1.378 . S
C2672 C2676 1.350 . S
C2673 C2676 1.463 . S
C2673 C2678 1.350 . S
C2673 N2681 1.427 . S
C2674 H2665 0.930 . S
C2674 C2672 1.378 . S
C2674 C2675 1.367 . S
C2675 C2674 1.367 . S
C2675 C2677 1.433 . S
C2676 C2672 1.350 . S
C2676 C2673 1.463 . S
C2676 N2680 1.427 . S
C2677 H2667 0.929 . S
C2677 C2675 1.433 . S
C2677 N2680 1.384 . S
C2678 H2669 0.929 . S
C2678 C2670 1.378 . S
C2678 C2673 1.350 . S
C2679 H2666 0.929 1_554 S
C2679 C2671 1.433 . S
C2679 N2681 1.384 . S
N2680 C2676 1.427 . S
N2680 C2677 1.384 . S
N2681 C2673 1.427 . S
N2681 C2679 1.384 . S
H2682 C2688 0.930 . S
H2683 C2692 0.930 . S
H2684 C2697 0.929 . S
H2685 C2695 0.929 . S
H2686 C2690 0.929 . S
H2687 C2696 0.929 . S
C2688 H2682 0.930 . S
C2688 C2689 1.367 . S
C2688 C2696 1.378 . S
C2689 C2688 1.367 . S
C2689 C2697 1.433 . S
C2690 H2686 0.929 . S
C2690 C2692 1.378 . S
C2690 C2694 1.350 . S
C2691 C2694 1.463 . S
C2691 C2696 1.350 . S
C2691 N2699 1.427 . S
C2692 H2683 0.930 . S
C2692 C2690 1.378 . S
C2692 C2693 1.367 . S
C2693 C2692 1.367 . S
C2693 C2695 1.433 . S
C2694 C2690 1.350 . S
C2694 C2691 1.463 . S
C2694 N2698 1.427 . S
C2695 H2685 0.929 . S
C2695 C2693 1.433 . S
C2695 N2698 1.384 . S
C2696 H2687 0.929 . S
C2696 C2688 1.378 . S
C2696 C2691 1.350 . S
C2697 H2684 0.929 . S
C2697 C2689 1.433 . S
C2697 N2699 1.384 . S
N2698 C2694 1.427 . S
N2698 C2695 1.384 . S
N2699 C2691 1.427 . S
N2699 C2697 1.384 . S
H2700 C2706 0.930 . S
H2701 C2710 0.930 . S
H2702 C2715 0.929 . S
H2703 C2713 0.929 . S
H2704 C2708 0.929 . S
H2705 C2714 0.929 . S
C2706 H2700 0.930 . S
C2706 C2707 1.367 . S
C2706 C2714 1.378 . S
C2707 C2706 1.367 . S
C2707 C2715 1.433 . S
C2708 H2704 0.929 . S
C2708 C2710 1.378 . S
C2708 C2712 1.350 . S
C2709 C2712 1.463 . S
C2709 C2714 1.350 . S
C2709 N2717 1.427 . S
C2710 H2701 0.930 . S
C2710 C2708 1.378 . S
C2710 C2711 1.367 . S
C2711 C2710 1.367 . S
C2711 C2713 1.433 . S
C2712 C2708 1.350 . S
C2712 C2709 1.463 . S
C2712 N2716 1.427 . S
C2713 H2703 0.929 . S
C2713 C2711 1.433 . S
C2713 N2716 1.384 . S
C2714 H2705 0.929 . S
C2714 C2706 1.378 . S
C2714 C2709 1.350 . S
C2715 H2702 0.929 . S
C2715 C2707 1.433 . S
C2715 N2717 1.384 . S
N2716 C2712 1.427 . S
N2716 C2713 1.384 . S
N2717 C2709 1.427 . S
N2717 C2715 1.384 . S
H2718 C2724 0.930 . S
H2719 C2728 0.930 . S
H2720 C2733 0.929 . S
H2721 C2731 0.929 . S
H2722 C2726 0.929 . S
H2723 C2732 0.929 . S
C2724 H2718 0.930 . S
C2724 C2725 1.367 . S
C2724 C2732 1.378 . S
C2725 C2724 1.367 . S
C2725 C2733 1.433 . S
C2726 H2722 0.929 . S
C2726 C2728 1.378 . S
C2726 C2730 1.350 . S
C2727 C2730 1.463 . S
C2727 C2732 1.350 . S
C2727 N2735 1.427 . S
C2728 H2719 0.930 . S
C2728 C2726 1.378 . S
C2728 C2729 1.367 . S
C2729 C2728 1.367 . S
C2729 C2731 1.433 . S
C2730 C2726 1.350 . S
C2730 C2727 1.463 . S
C2730 N2734 1.427 . S
C2731 H2721 0.929 . S
C2731 C2729 1.433 . S
C2731 N2734 1.384 . S
C2732 H2723 0.929 . S
C2732 C2724 1.378 . S
C2732 C2727 1.350 . S
C2733 H2720 0.929 . S
C2733 C2725 1.433 . S
C2733 N2735 1.384 . S
N2734 C2730 1.427 . S
N2734 C2731 1.384 . S
N2735 C2727 1.427 . S
N2735 C2733 1.384 . S
H2736 C2742 0.930 . S
H2737 C2746 0.930 . S
H2738 C2751 0.929 . S
H2739 C2749 0.929 . S
H2740 C2744 0.929 . S
H2741 C2750 0.929 . S
C2742 H2736 0.930 . S
C2742 C2743 1.367 . S
C2742 C2750 1.378 . S
C2743 C2742 1.367 . S
C2743 C2751 1.433 . S
C2744 H2740 0.929 . S
C2744 C2746 1.378 . S
C2744 C2748 1.350 . S
C2745 C2748 1.463 1_455 S
C2745 C2750 1.350 . S
C2745 N2753 1.427 . S
C2746 H2737 0.930 . S
C2746 C2744 1.378 . S
C2746 C2747 1.367 . S
C2747 C2746 1.367 . S
C2747 C2749 1.433 . S
C2748 C2744 1.350 . S
C2748 C2745 1.463 1_655 S
C2748 N2752 1.427 . S
C2749 H2739 0.929 . S
C2749 C2747 1.433 . S
C2749 N2752 1.384 . S
C2750 H2741 0.929 . S
C2750 C2742 1.378 . S
C2750 C2745 1.350 . S
C2751 H2738 0.929 . S
C2751 C2743 1.433 . S
C2751 N2753 1.384 . S
N2752 C2748 1.427 . S
N2752 C2749 1.384 . S
N2753 C2745 1.427 . S
N2753 C2751 1.384 . S
H2754 C2760 0.930 . S
H2755 C2764 0.930 . S
H2756 C2769 0.929 . S
H2757 C2767 0.929 . S
H2758 C2762 0.929 . S
H2759 C2768 0.929 . S
C2760 H2754 0.930 . S
C2760 C2761 1.367 . S
C2760 C2768 1.378 . S
C2761 C2760 1.367 . S
C2761 C2769 1.433 . S
C2762 H2758 0.929 . S
C2762 C2764 1.378 . S
C2762 C2766 1.350 . S
C2763 C2766 1.463 . S
C2763 C2768 1.350 . S
C2763 N2771 1.427 . S
C2764 H2755 0.930 . S
C2764 C2762 1.378 . S
C2764 C2765 1.367 . S
C2765 C2764 1.367 . S
C2765 C2767 1.433 . S
C2766 C2762 1.350 . S
C2766 C2763 1.463 . S
C2766 N2770 1.427 . S
C2767 H2757 0.929 . S
C2767 C2765 1.433 . S
C2767 N2770 1.384 . S
C2768 H2759 0.929 . S
C2768 C2760 1.378 . S
C2768 C2763 1.350 . S
C2769 H2756 0.929 . S
C2769 C2761 1.433 . S
C2769 N2771 1.384 . S
N2770 C2766 1.427 . S
N2770 C2767 1.384 . S
N2771 C2763 1.427 . S
N2771 C2769 1.384 . S
H2772 C2778 0.930 . S
H2773 C2782 0.930 . S
H2774 C2787 0.929 . S
H2775 C2785 0.929 . S
H2776 C2780 0.929 . S
H2777 C2786 0.929 . S
C2778 H2772 0.930 . S
C2778 C2779 1.367 . S
C2778 C2786 1.378 . S
C2779 C2778 1.367 . S
C2779 C2787 1.433 . S
C2780 H2776 0.929 . S
C2780 C2782 1.378 . S
C2780 C2784 1.350 . S
C2781 C2784 1.463 1_545 S
C2781 C2786 1.350 . S
C2781 N2789 1.427 . S
C2782 H2773 0.930 . S
C2782 C2780 1.378 . S
C2782 C2783 1.367 . S
C2783 C2782 1.367 . S
C2783 C2785 1.433 . S
C2784 C2780 1.350 . S
C2784 C2781 1.463 1_565 S
C2784 N2788 1.427 . S
C2785 H2775 0.929 . S
C2785 C2783 1.433 . S
C2785 N2788 1.384 . S
C2786 H2777 0.929 . S
C2786 C2778 1.378 . S
C2786 C2781 1.350 . S
C2787 H2774 0.929 . S
C2787 C2779 1.433 . S
C2787 N2789 1.384 . S
N2788 C2784 1.427 . S
N2788 C2785 1.384 . S
N2789 C2781 1.427 . S
N2789 C2787 1.384 . S
H2790 C2796 0.930 . S
H2791 C2800 0.930 . S
H2792 C2805 0.929 . S
H2793 C2803 0.929 . S
H2794 C2798 0.929 . S
H2795 C2804 0.929 . S
C2796 H2790 0.930 . S
C2796 C2797 1.367 . S
C2796 C2804 1.378 . S
C2797 C2796 1.367 . S
C2797 C2805 1.433 . S
C2798 H2794 0.929 . S
C2798 C2800 1.378 . S
C2798 C2802 1.350 . S
C2799 C2802 1.463 1_565 S
C2799 C2804 1.350 . S
C2799 N2807 1.427 . S
C2800 H2791 0.930 . S
C2800 C2798 1.378 . S
C2800 C2801 1.367 . S
C2801 C2800 1.367 . S
C2801 C2803 1.433 . S
C2802 C2798 1.350 . S
C2802 C2799 1.463 1_545 S
C2802 N2806 1.427 . S
C2803 H2793 0.929 . S
C2803 C2801 1.433 . S
C2803 N2806 1.384 . S
C2804 H2795 0.929 . S
C2804 C2796 1.378 . S
C2804 C2799 1.350 . S
C2805 H2792 0.929 . S
C2805 C2797 1.433 . S
C2805 N2807 1.384 . S
N2806 C2802 1.427 . S
N2806 C2803 1.384 . S
N2807 C2799 1.427 . S
N2807 C2805 1.384 . S
H2808 C2814 0.930 . S
H2809 C2818 0.930 . S
H2810 C2823 0.929 . S
H2811 C2821 0.929 . S
H2812 C2816 0.929 . S
H2813 C2822 0.929 . S
C2814 H2808 0.930 . S
C2814 C2815 1.367 . S
C2814 C2822 1.378 . S
C2815 C2814 1.367 . S
C2815 C2823 1.433 . S
C2816 H2812 0.929 . S
C2816 C2818 1.378 . S
C2816 C2820 1.350 . S
C2817 C2820 1.463 1_655 S
C2817 C2822 1.350 . S
C2817 N2825 1.427 . S
C2818 H2809 0.930 . S
C2818 C2816 1.378 . S
C2818 C2819 1.367 . S
C2819 C2818 1.367 . S
C2819 C2821 1.433 . S
C2820 C2816 1.350 . S
C2820 C2817 1.463 1_455 S
C2820 N2824 1.427 . S
C2821 H2811 0.929 . S
C2821 C2819 1.433 . S
C2821 N2824 1.384 . S
C2822 H2813 0.929 . S
C2822 C2814 1.378 . S
C2822 C2817 1.350 . S
C2823 H2810 0.929 . S
C2823 C2815 1.433 . S
C2823 N2825 1.384 . S
N2824 C2820 1.427 . S
N2824 C2821 1.384 . S
N2825 C2817 1.427 . S
N2825 C2823 1.384 . S
H2826 C2832 0.930 . S
H2827 C2836 0.930 . S
H2828 C2841 0.929 . S
H2829 C2839 0.929 . S
H2830 C2834 0.929 . S
H2831 C2840 0.929 . S
C2832 H2826 0.930 . S
C2832 C2833 1.367 . S
C2832 C2840 1.378 . S
C2833 C2832 1.367 . S
C2833 C2841 1.433 . S
C2834 H2830 0.929 . S
C2834 C2836 1.378 . S
C2834 C2838 1.350 . S
C2835 C2838 1.463 . S
C2835 C2840 1.350 . S
C2835 N2843 1.427 . S
C2836 H2827 0.930 . S
C2836 C2834 1.378 . S
C2836 C2837 1.367 . S
C2837 C2836 1.367 . S
C2837 C2839 1.433 . S
C2838 C2834 1.350 . S
C2838 C2835 1.463 . S
C2838 N2842 1.427 . S
C2839 H2829 0.929 . S
C2839 C2837 1.433 . S
C2839 N2842 1.384 . S
C2840 H2831 0.929 . S
C2840 C2832 1.378 . S
C2840 C2835 1.350 . S
C2841 H2828 0.929 . S
C2841 C2833 1.433 . S
C2841 N2843 1.384 . S
N2842 C2838 1.427 . S
N2842 C2839 1.384 . S
N2843 C2835 1.427 . S
N2843 C2841 1.384 . S
C1231 C345 1.592 . S
C1235 C2 1.620 1_556 S
C1249 C379 1.589 . S
C1253 C36 1.616 1_556 S
C1267 C311 1.593 . S
C1271 C70 1.619 1_556 S
C1285 C277 1.591 . S
C1289 C104 1.618 . S
C1303 C209 1.600 . S
C1307 C138 1.624 . S
C1321 C243 1.591 . S
C1325 C172 1.617 . S
C1339 C141 1.590 . S
C1343 C206 1.618 . S
C1357 C240 1.623 . S
C1361 C175 1.600 . S
C1375 C107 1.598 . S
C1379 C274 1.622 . S
C1393 C73 1.601 . S
C1397 C308 1.624 . S
C1411 C342 1.618 . S
C1415 C5 1.589 . S
C1429 C39 1.598 . S
C1433 C376 1.622 . S
C1447 C753 1.593 . S
C1451 C410 1.621 . S
C1465 C444 1.618 . S
C1469 C787 1.592 . S
C1483 C719 1.600 . S
C1487 C478 1.624 . S
C1501 C685 1.592 . S
C1505 C512 1.620 . S
C1519 C617 1.597 . S
C1523 C546 1.621 . S
C1537 C580 1.618 . S
C1541 C651 1.592 . S
C1555 C614 1.617 . S
C1559 C549 1.588 . S
C1573 C583 1.593 . S
C1577 C648 1.619 . S
C1591 C515 1.593 . S
C1595 C682 1.620 . S
C1609 C716 1.621 . S
C1613 C481 1.594 . S
C1627 C750 1.618 . S
C1631 C413 1.589 . S
C1645 C447 1.588 . S
C1649 C784 1.616 . S
C1663 C818 1.624 . S
C1667 C1161 1.600 . S
C1681 C852 1.623 . S
C1685 C1195 1.596 . S
C1699 C886 1.618 . S
C1703 C1127 1.591 . S
C1717 C920 1.616 . S
C1721 C1093 1.588 . S
C1735 C1025 1.599 . S
C1739 C954 1.623 . S
C1753 C1059 1.592 . S
C1757 C988 1.620 . S
C1771 C1022 1.617 . S
C1775 C957 1.588 . S
C1789 C991 1.594 . S
C1793 C1056 1.621 . S
C1807 C923 1.589 . S
C1811 C1090 1.618 . S
C1825 C1124 1.617 . S
C1829 C889 1.588 . S
C1843 C1158 1.624 . S
C1847 C821 1.600 . S
C1861 C855 1.588 . S
C1865 C1192 1.616 . S
C1879 C122 1.914 . S
C1883 C20 1.914 . S
C1897 C54 1.912 . S
C1901 C156 1.911 . S
C1915 C88 1.913 . S
C1919 C190 1.912 . S
C1933 C326 1.912 . S
C1937 C224 1.912 . S
C1951 C258 1.910 . S
C1955 C360 1.910 . S
C1969 C394 1.911 . S
C1973 C292 1.911 . S
C1987 C428 1.912 . S
C1991 C530 1.913 . S
C2005 C564 1.911 . S
C2009 C462 1.911 . S
C2023 C496 1.911 . S
C2027 C598 1.910 . S
C2041 C632 1.911 . S
C2045 C734 1.911 . S
C2059 C768 1.912 . S
C2063 C666 1.913 . S
C2077 C802 1.911 . S
C2081 C700 1.911 . S
C2095 C836 1.911 . S
C2099 C938 1.911 . S
C2113 C972 1.910 . S
C2117 C870 1.910 . S
C2131 C904 1.910 . S
C2135 C1006 1.911 . S
C2149 C1040 1.911 . S
C2153 C1142 1.912 . S
C2167 C1074 1.913 . S
C2171 C1176 1.913 . S
C2185 C1210 1.912 . S
C2189 C1108 1.912 . S
C2203 C111 0.664 . S
C2207 C9 0.689 . S
C2221 C43 0.665 . S
C2225 C145 0.681 . S
C2239 C179 0.667 . S
C2243 C77 0.680 . S
C2257 C315 0.677 . S
C2261 C213 0.677 . S
C2275 C349 0.660 . S
C2279 C247 0.691 . S
C2293 C383 0.687 . S
C2297 C281 0.661 . S
C2311 C417 0.691 . S
C2315 C519 0.660 . S
C2329 C451 0.687 . S
C2333 C553 0.666 . S
C2347 C587 0.660 . S
C2351 C485 0.690 . S
C2365 C621 0.664 . S
C2369 C723 0.683 . S
C2383 C757 0.672 . S
C2387 C655 0.681 . S
C2401 C791 0.681 . S
C2405 C689 0.664 . S
C2419 C825 0.685 . S
C2423 C927 0.670 . S
C2437 C859 0.681 . S
C2441 C961 0.672 . S
C2455 C995 0.686 . S
C2459 C893 0.661 . S
C2473 C1131 0.687 . S
C2477 C1029 0.666 . S
C2491 C1165 0.667 . S
C2495 C1063 0.685 . S
C2509 C1199 0.659 . S
C2513 C1097 0.689 . S
C2527 C33 1.637 . S
C2531 C577 1.637 . S
C2545 C67 1.642 . S
C2549 C611 1.642 . S
C2563 C543 1.645 . S
C2567 C101 1.644 . S
C2581 C917 1.646 . S
C2585 C135 1.646 . S
C2599 C169 1.643 . S
C2603 C849 1.643 . S
C2617 C203 1.643 . S
C2621 C883 1.643 . S
C2635 C1189 1.644 . S
C2639 C237 1.644 . S
C2653 C1223 1.639 . S
C2657 C271 1.640 . S
C2671 C305 1.636 . S
C2675 C1155 1.636 . S
C2689 C713 1.646 . S
C2693 C339 1.646 . S
C2707 C373 1.644 . S
C2711 C645 1.644 . S
C2725 C679 1.643 . S
C2729 C407 1.642 . S
C2743 C985 1.638 . S
C2747 C441 1.639 . S
C2761 C1019 1.636 . S
C2765 C475 1.636 . S
C2779 C509 1.635 . S
C2783 C951 1.635 . S
C2797 C1121 1.644 . S
C2801 C747 1.643 . S
C2815 C781 1.637 . S
C2819 C1053 1.636 . S
C2833 C815 1.639 . S
C2837 C1087 1.638 . S
