# Generated by pormake.
# Topology rob, (6)-cn, num edge types: 1
# Building blocks:
#     Node 0, Type 0, BuildingBlock: FUNLAD_clean_sbu_0, # of connection points: 6
#     Node 1, Type 0, BuildingBlock: FUNLAD_clean_sbu_0, # of connection points: 6
#     Node 2, Type 0, BuildingBlock: FUNLAD_clean_sbu_0, # of connection points: 6
#     Node 3, Type 0, BuildingBlock: FUNLAD_clean_sbu_0, # of connection points: 6
#     Edge 4, Type (0, 0), BuildingBlock: UKIBIB_clean_linker_0, # of connection points: 2
#     Edge 5, Type (0, 0), BuildingBlock: UKIBIB_clean_linker_0, # of connection points: 2
#     Edge 6, Type (0, 0), BuildingBlock: UKIBIB_clean_linker_0, # of connection points: 2
#     Edge 7, Type (0, 0), BuildingBlock: UKIBIB_clean_linker_0, # of connection points: 2
#     Edge 8, Type (0, 0), BuildingBlock: UKIBIB_clean_linker_0, # of connection points: 2
#     Edge 9, Type (0, 0), BuildingBlock: UKIBIB_clean_linker_0, # of connection points: 2
#     Edge 10, Type (0, 0), BuildingBlock: UKIBIB_clean_linker_0, # of connection points: 2
#     Edge 11, Type (0, 0), BuildingBlock: UKIBIB_clean_linker_0, # of connection points: 2
#     Edge 12, Type (0, 0), BuildingBlock: UKIBIB_clean_linker_0, # of connection points: 2
#     Edge 13, Type (0, 0), BuildingBlock: UKIBIB_clean_linker_0, # of connection points: 2
#     Edge 14, Type (0, 0), BuildingBlock: UKIBIB_clean_linker_0, # of connection points: 2
#     Edge 15, Type (0, 0), BuildingBlock: UKIBIB_clean_linker_0, # of connection points: 2
# Relax obj value: 0.167
# Max RMSD: 0.168
# Mean RMSD: 0.168
data_MOF--net-rob--node1-FUNLAD_clean_sbu_0--edge1-UKIBIB_clean_linker_0
_symmetry_space_group_name_H-M    P1
_symmetry_Int_Tables_number       1
_symmetry_cell_setting            triclinic
loop_
_symmetry_equiv_pos_as_xyz
'x, y, z'
_cell_length_a     22.475691
_cell_length_b     49.036727
_cell_length_c     34.291208
_cell_angle_alpha  91.578674
_cell_angle_beta   89.941054
_cell_angle_gamma 89.819377
loop_
_atom_site_label
_atom_site_type_symbol
_atom_site_fract_x
_atom_site_fract_y
_atom_site_fract_z
_atom_type_partial_charge
C0 C 0.30256 0.26133 0.89276 0.0
N1 N 0.25444 0.33373 -0.04743 0.0
C2 C 0.31219 0.3386 0.94264 0.0
C3 C 0.33406 0.36511 0.9417 0.0
C4 C 0.29708 0.38703 -0.04781 0.0
C5 C 0.23801 0.38186 -0.03705 0.0
C6 C 0.2173 0.35483 -0.03729 0.0
Zn7 Zn 0.22809 0.29291 -0.04739 0.0
C8 C 0.139 0.27767 0.89514 0.0
N9 N 0.19013 0.20621 0.95041 0.0
C10 C 0.22686 0.1852 0.93922 0.0
C11 C 0.13278 0.20124 -0.03889 0.0
C12 C 0.1113 0.17469 -0.03745 0.0
C13 C 0.14798 0.15279 0.95133 0.0
C14 C 0.20626 0.15814 0.93894 0.0
Zn15 Zn 0.21634 0.24704 0.95069 0.0
O16 O 0.28881 0.28432 0.90796 0.0
C17 C 0.30548 0.26222 0.0082 0.0
O18 O 0.27886 0.23983 0.90556 0.0
H19 H 0.10273 0.21784 -0.03177 0.0
H20 H 0.34234 0.32195 0.93601 0.0
H21 H 0.27199 0.18935 0.93027 0.0
O22 O 0.29233 0.28552 -0.00474 0.0
O23 O 0.28106 0.24089 -0.00642 0.0
H24 H 0.17185 0.35074 -0.02897 0.0
O25 O 0.15637 0.25558 -0.00414 0.0
O26 O 0.16515 0.30025 -0.00246 0.0
O27 O 0.15197 0.2544 0.90825 0.0
O28 O 0.16356 0.299 0.90962 0.0
C29 C 0.14251 0.27865 0.01077 0.0
H30 H 0.38003 0.36846 0.93359 0.0
H31 H 0.20859 0.39845 -0.02819 0.0
H32 H 0.06571 0.17132 -0.02849 0.0
H33 H 0.23559 0.14163 0.92967 0.0
C34 C 0.80307 0.76079 0.89279 0.0
N35 N 0.75536 0.8336 -0.04725 0.0
C36 C 0.8128 0.83857 0.9423 0.0
C37 C 0.83427 0.86511 0.9409 0.0
C38 C 0.79747 0.88701 -0.04807 0.0
C39 C 0.73903 0.88167 -0.036 0.0
C40 C 0.71844 0.85462 -0.03634 0.0
Zn41 Zn 0.72953 0.79277 -0.04723 0.0
C42 C 0.63888 0.77755 0.89545 0.0
N43 N 0.69001 0.70607 0.95118 0.0
C44 C 0.72753 0.68512 0.94095 0.0
C45 C 0.63247 0.70095 -0.03868 0.0
C46 C 0.61108 0.67435 -0.03789 0.0
C47 C 0.64835 0.6526 0.95135 0.0
C48 C 0.70731 0.658 0.94058 0.0
Zn49 Zn 0.7156 0.74697 0.95084 0.0
O50 O 0.79054 0.78403 0.90775 0.0
C51 C 0.80617 0.76227 0.00817 0.0
O52 O 0.77814 0.73962 0.90574 0.0
H53 H 0.60209 0.71746 -0.03186 0.0
H54 H 0.84297 0.82198 0.93546 0.0
H55 H 0.77288 0.68939 0.93261 0.0
O56 O 0.79343 0.78563 -0.00461 0.0
O57 O 0.78107 0.741 -0.00603 0.0
H58 H 0.67319 0.85047 -0.02763 0.0
O59 O 0.65385 0.75582 -0.00432 0.0
O60 O 0.66787 0.80017 -0.0021 0.0
O61 O 0.65177 0.75412 0.90794 0.0
O62 O 0.66394 0.79878 0.90983 0.0
C63 C 0.64215 0.77916 0.01061 0.0
H64 H 0.87996 0.86847 0.93216 0.0
H65 H 0.7096 0.89819 -0.0269 0.0
H66 H 0.56521 0.67081 -0.02972 0.0
H67 H 0.73699 0.64155 0.9316 0.0
C68 C 0.30317 0.77928 0.51071 0.0
N69 N 0.25645 0.70629 0.45129 0.0
C70 C 0.31371 0.70088 0.46183 0.0
C71 C 0.33464 0.67418 0.46286 0.0
C72 C 0.29739 0.65269 0.45149 0.0
C73 C 0.23904 0.65843 0.43971 0.0
C74 C 0.21905 0.6856 0.44032 0.0
Zn75 Zn 0.23096 0.74708 0.45108 0.0
C76 C 0.13968 0.7627 0.50779 0.0
N77 N 0.19041 0.8334 0.45135 0.0
C78 C 0.22779 0.85436 0.4612 0.0
C79 C 0.1327 0.83842 0.4416 0.0
C80 C 0.11076 0.86492 0.44113 0.0
C81 C 0.14766 0.88674 0.45183 0.0
C82 C 0.2071 0.88145 0.46171 0.0
Zn83 Zn 0.21587 0.79268 0.45187 0.0
O84 O 0.29263 0.75582 0.49599 0.0
C85 C 0.30719 0.77716 0.3954 0.0
O86 O 0.27666 0.80008 0.49776 0.0
H87 H 0.10254 0.82187 0.43499 0.0
H88 H 0.34415 0.71722 0.46895 0.0
H89 H 0.27331 0.8501 0.46925 0.0
O90 O 0.2945 0.7539 0.40843 0.0
O91 O 0.28226 0.79856 0.40953 0.0
H92 H 0.17392 0.69012 0.43167 0.0
O93 O 0.15518 0.78406 0.40646 0.0
O94 O 0.16887 0.73967 0.40579 0.0
O95 O 0.15127 0.78581 0.49384 0.0
O96 O 0.16551 0.74132 0.49424 0.0
C97 C 0.14336 0.76056 0.39233 0.0
H98 H 0.3802 0.67037 0.47156 0.0
H99 H 0.20939 0.64215 0.43037 0.0
H100 H 0.06471 0.86834 0.43323 0.0
H101 H 0.23655 0.89791 0.47062 0.0
C102 C 0.8025 0.27842 0.51066 0.0
N103 N 0.75497 0.20632 0.45062 0.0
C104 C 0.81271 0.20141 0.46046 0.0
C105 C 0.8347 0.17493 0.46157 0.0
C106 C 0.79793 0.153 0.45122 0.0
C107 C 0.73854 0.15817 0.44108 0.0
C108 C 0.71774 0.18525 0.44105 0.0
Zn109 Zn 0.72896 0.24708 0.45034 0.0
C110 C 0.63965 0.26256 0.508 0.0
N111 N 0.6906 0.33349 0.45259 0.0
C112 C 0.72747 0.35434 0.46366 0.0
C113 C 0.63333 0.33864 0.44178 0.0
C114 C 0.6119 0.36525 0.44047 0.0
C115 C 0.64864 0.38692 0.45188 0.0
C116 C 0.70696 0.38143 0.464 0.0
Zn117 Zn 0.71694 0.29282 0.45263 0.0
O118 O 0.78948 0.25554 0.49498 0.0
C119 C 0.80658 0.27781 0.39528 0.0
O120 O 0.77871 0.30003 0.49813 0.0
H121 H 0.60327 0.32215 0.4346 0.0
H122 H 0.84286 0.21802 0.46679 0.0
H123 H 0.77257 0.35002 0.47256 0.0
O124 O 0.7937 0.2543 0.40748 0.0
O125 O 0.78175 0.29897 0.41024 0.0
H126 H 0.67222 0.18939 0.43289 0.0
O127 O 0.65751 0.28441 0.40736 0.0
O128 O 0.66603 0.2398 0.40546 0.0
O129 O 0.65234 0.28571 0.49462 0.0
O130 O 0.6643 0.24115 0.49361 0.0
C131 C 0.64345 0.26148 0.39224 0.0
H132 H 0.88072 0.17162 0.46964 0.0
H133 H 0.70919 0.14162 0.43239 0.0
H134 H 0.56636 0.36885 0.43155 0.0
H135 H 0.7362 0.39785 0.47339 0.0
C136 C 0.58781 0.61684 0.9175 0.0
C137 C 0.62314 0.62483 0.94953 0.0
C138 C 0.55503 0.59267 0.91816 0.0
C139 C 0.35796 0.42279 -0.01422 0.0
C140 C 0.32262 0.41474 -0.04621 0.0
C141 C 0.39041 0.44705 -0.01487 0.0
H142 H 0.65202 0.61423 0.00736 0.0
H143 H 0.59486 0.57143 0.00833 0.0
H144 H 0.29349 0.4253 0.89599 0.0
H145 H 0.35016 0.46824 0.89501 0.0
C146 C 0.62606 0.60808 -0.01797 0.0
C147 C 0.59315 0.58386 -0.0173 0.0
C148 C 0.31948 0.43148 0.92128 0.0
C149 C 0.35209 0.4558 0.92062 0.0
C150 C 0.55703 0.57623 0.95091 0.0
C151 C 0.52101 0.55194 -0.04801 0.0
C152 C 0.49033 0.53176 -0.04806 0.0
C153 C 0.3881 0.46352 -0.04758 0.0
C154 C 0.42378 0.48792 0.95136 0.0
C155 C 0.45419 0.50818 0.95147 0.0
H156 H 0.58406 0.6298 0.89253 0.0
H157 H 0.5271 0.58713 0.89346 0.0
H158 H 0.36184 0.40985 0.01077 0.0
H159 H 0.41828 0.45266 0.00983 0.0
C160 C 0.33527 0.61219 0.48608 0.0
C161 C 0.3217 0.62473 0.45084 0.0
C162 C 0.36803 0.58791 0.48596 0.0
C163 C 0.61027 0.4273 0.41715 0.0
C164 C 0.62385 0.41479 0.4524 0.0
C165 C 0.57764 0.45163 0.41724 0.0
H166 H 0.33147 0.62218 0.38807 0.0
H167 H 0.38906 0.57939 0.38788 0.0
H168 H 0.61422 0.41742 0.51518 0.0
H169 H 0.55678 0.46024 0.51533 0.0
C170 C 0.34032 0.61243 0.41544 0.0
C171 C 0.37351 0.58823 0.41537 0.0
C172 C 0.60531 0.42714 0.48779 0.0
C173 C 0.57223 0.45136 0.48784 0.0
C174 C 0.38796 0.57607 0.45066 0.0
C175 C 0.42449 0.55189 0.45079 0.0
C176 C 0.45504 0.53165 0.45126 0.0
C177 C 0.55782 0.46352 0.45255 0.0
C178 C 0.52141 0.48774 0.45241 0.0
C179 C 0.49095 0.50801 0.45196 0.0
H180 H 0.3221 0.62167 0.51368 0.0
H181 H 0.37906 0.57877 0.51346 0.0
H182 H 0.62344 0.41782 0.38955 0.0
H183 H 0.56667 0.46078 0.38974 0.0
C184 C 0.10028 0.11478 -0.0133 0.0
C185 C 0.1234 0.12483 -0.04817 0.0
C186 C 0.06819 0.0904 -0.01349 0.0
C187 C 0.84536 0.92497 0.91664 0.0
C188 C 0.82211 0.91495 0.95149 0.0
C189 C 0.87757 0.94931 0.91687 0.0
H190 H 0.13192 0.11728 0.88957 0.0
H191 H 0.07528 0.07437 0.88926 0.0
H192 H 0.81359 0.92246 0.01375 0.0
H193 H 0.87041 0.96534 0.01412 0.0
C194 C 0.11539 0.10967 0.91688 0.0
C195 C 0.08276 0.08536 0.91666 0.0
C196 C 0.83017 0.93007 -0.01354 0.0
C197 C 0.86292 0.95436 -0.01329 0.0
C198 C 0.05841 0.07585 0.9514 0.0
C199 C 0.02183 0.05171 0.95101 0.0
C200 C -0.0089 0.03157 0.95137 0.0
C201 C 0.88733 0.96386 -0.04802 0.0
C202 C 0.92392 0.98799 -0.04762 0.0
C203 C 0.95467 1.00812 -0.04798 0.0
H204 H 0.10565 0.12624 0.01394 0.0
H205 H 0.04971 0.0833 0.0136 0.0
H206 H 0.84 0.91351 0.88941 0.0
H207 H 0.89613 0.95639 0.88979 0.0
C208 C 0.80594 0.10474 0.47356 0.0
C209 C 0.82437 0.12539 0.44868 0.0
C210 C 0.83786 0.08014 0.47469 0.0
C211 C 0.13984 0.93502 0.42977 0.0
C212 C 0.12144 0.91437 0.45465 0.0
C213 C 0.1079 0.95961 0.42864 0.0
H214 H 0.88883 0.13651 0.40496 0.0
H215 H 0.94384 0.0934 0.40655 0.0
H216 H 0.05704 0.90323 0.4984 0.0
H217 H 0.002 0.94635 0.49683 0.0
C218 C 0.87374 0.12079 0.4242 0.0
C219 C 0.90524 0.09629 0.4252 0.0
C220 C 0.07212 0.91897 0.47917 0.0
C221 C 0.0406 0.94346 0.47818 0.0
C222 C 0.88793 0.07603 0.45072 0.0
C223 C 0.92268 0.05139 0.45243 0.0
C224 C 0.95402 0.03139 0.45213 0.0
C225 C 0.05784 0.96371 0.45261 0.0
C226 C 0.02305 0.98834 0.45087 0.0
C227 C -0.00831 1.00832 0.45112 0.0
H228 H 0.76856 0.10806 0.49311 0.0
H229 H 0.82423 0.06462 0.49471 0.0
H230 H 0.17717 0.93169 0.41019 0.0
H231 H 0.12149 0.97511 0.40859 0.0
C232 C 0.60116 0.28489 0.33529 0.0
C233 C 0.60612 0.26105 0.35707 0.0
C234 C 0.56984 0.2846 0.30029 0.0
C235 C 0.3449 0.23684 0.06491 0.0
C236 C 0.34297 0.26074 0.04326 0.0
C237 C 0.37412 0.23674 0.10084 0.0
H238 H 0.58078 0.21858 0.36009 0.0
H239 H 0.52454 0.2183 0.29856 0.0
H240 H 0.37082 0.30312 0.04189 0.0
H241 H 0.42234 0.30263 0.10456 0.0
C242 C 0.57788 0.2371 0.3437 0.0
C243 C 0.5459 0.23694 0.30873 0.0
C244 C 0.37185 0.28433 0.05778 0.0
C245 C 0.40106 0.28416 0.09361 0.0
C246 C 0.54243 0.26062 0.28683 0.0
C247 C 0.5115 0.26033 0.25026 0.0
C248 C 0.4858 0.2605 0.21954 0.0
C249 C 0.40193 0.26044 0.1153 0.0
C250 C 0.43144 0.26045 0.15237 0.0
C251 C 0.45623 0.26058 0.18342 0.0
H252 H 0.62285 0.30365 0.3447 0.0
H253 H 0.56764 0.30302 0.28356 0.0
H254 H 0.32232 0.2185 0.05475 0.0
H255 H 0.37437 0.21829 0.11751 0.0
C256 C 0.61955 0.79869 0.07648 0.0
C257 C 0.60435 0.78086 0.04543 0.0
C258 C 0.58904 0.79762 0.11185 0.0
C259 C 0.32563 0.76012 0.32837 0.0
C260 C 0.34115 0.77817 0.35916 0.0
C261 C 0.3557 0.76082 0.29294 0.0
H262 H 0.54538 0.74823 0.02631 0.0
H263 H 0.49041 0.74707 0.08821 0.0
H264 H 0.3993 0.8111 0.37773 0.0
H265 H 0.45393 0.81178 0.31527 0.0
C266 C 0.55743 0.76232 0.04989 0.0
C267 C 0.52636 0.76154 0.08513 0.0
C268 C 0.387 0.79704 0.3542 0.0
C269 C 0.41793 0.79741 0.31876 0.0
C270 C 0.54253 0.77903 0.11628 0.0
C271 C 0.51166 0.77803 0.15288 0.0
C272 C 0.4871 0.77793 0.18406 0.0
C273 C 0.4022 0.77929 0.28813 0.0
C274 C 0.43357 0.77937 0.25166 0.0
C275 C 0.45854 0.77869 0.22061 0.0
H276 H 0.6566 0.81262 0.07395 0.0
H277 H 0.60226 0.81106 0.1359 0.0
H278 H 0.28944 0.74578 0.33153 0.0
H279 H 0.34269 0.74692 0.26938 0.0
C280 C 0.5483 0.79003 0.85768 0.0
C281 C 0.60575 0.77897 0.859 0.0
C282 C 0.51719 0.78989 0.82229 0.0
C283 C 0.39641 0.76929 0.5467 0.0
C284 C 0.33966 0.78129 0.54594 0.0
C285 C 0.42811 0.76842 0.58174 0.0
H286 H 0.67656 0.7594 0.82564 0.0
H287 H 0.62253 0.75969 0.76357 0.0
H288 H 0.26989 0.80046 0.58062 0.0
H289 H 0.32516 0.79857 0.64222 0.0
C290 C 0.63208 0.76801 0.82492 0.0
C291 C 0.60138 0.76814 0.78965 0.0
C292 C 0.31453 0.79202 0.58052 0.0
C293 C 0.34571 0.79069 0.6156 0.0
C294 C 0.54376 0.77895 0.78822 0.0
C295 C 0.51234 0.77869 0.75167 0.0
C296 C 0.48759 0.77807 0.7205 0.0
C297 C 0.40261 0.77898 0.61632 0.0
C298 C 0.43448 0.77798 0.65265 0.0
C299 C 0.45927 0.77765 0.68378 0.0
H300 H 0.52735 0.79828 0.88393 0.0
H301 H 0.47251 0.79821 0.82155 0.0
H302 H 0.41586 0.76044 0.52031 0.0
H303 H 0.47203 0.75925 0.58191 0.0
C304 C 0.58779 0.2364 0.55964 0.0
C305 C 0.60283 0.26146 0.54344 0.0
C306 C 0.55823 0.23584 0.59549 0.0
C307 C 0.35918 0.28531 0.84163 0.0
C308 C 0.34104 0.26061 0.85798 0.0
C309 C 0.38988 0.28521 0.80633 0.0
H310 H 0.5991 0.30556 0.55217 0.0
H311 H 0.54757 0.30431 0.61463 0.0
H312 H 0.3427 0.21655 0.85091 0.0
H313 H 0.39757 0.21651 0.78898 0.0
C314 C 0.58737 0.28589 0.56354 0.0
C315 C 0.55826 0.28528 0.59936 0.0
C316 C 0.35602 0.23582 0.83898 0.0
C317 C 0.38708 0.23578 0.80365 0.0
C318 C 0.5437 0.26029 0.61541 0.0
C319 C 0.51367 0.25989 0.6523 0.0
C320 C 0.48852 0.26011 0.68325 0.0
C321 C 0.40341 0.26047 0.78713 0.0
C322 C 0.43358 0.26046 0.75026 0.0
C323 C 0.45887 0.26041 0.71936 0.0
H324 H 0.59965 0.21729 0.545 0.0
H325 H 0.54723 0.21637 0.60779 0.0
H326 H 0.3483 0.30482 0.8555 0.0
H327 H 0.40229 0.30444 0.79383 0.0
C328 C 0.81754 0.77533 0.07744 0.0
C329 C 0.83973 0.76104 0.0445 0.0
C330 C 0.84829 0.77498 0.11266 0.0
C331 C 0.12675 0.74429 0.32424 0.0
C332 C 0.10578 0.75851 0.35752 0.0
C333 C 0.09563 0.74556 0.28912 0.0
H334 H 0.91082 0.73543 0.02165 0.0
H335 H 0.96612 0.73528 0.08386 0.0
H336 H 0.03649 0.78511 0.38086 0.0
H337 H -0.01975 0.78631 0.31936 0.0
C338 C 0.8931 0.74637 0.04698 0.0
C339 C 0.92447 0.74636 0.08226 0.0
C340 C 0.05283 0.7737 0.35551 0.0
C341 C 0.02108 0.77454 0.3205 0.0
C342 C 0.902 0.76066 0.11516 0.0
C343 C 0.93357 0.76077 0.15164 0.0
C344 C 0.95838 0.76146 0.18278 0.0
C345 C 0.04277 0.76066 0.28712 0.0
C346 C 0.01122 0.7618 0.25071 0.0
C347 C -0.01338 0.76205 0.21951 0.0
H348 H 0.77601 0.78658 0.07594 0.0
H349 H 0.8302 0.78597 0.13786 0.0
H350 H 0.16849 0.7332 0.32498 0.0
H351 H 0.11323 0.73502 0.2634 0.0
C352 C 0.88834 0.26065 0.3522 0.0
C353 C 0.84311 0.27983 0.36011 0.0
C354 C 0.91776 0.26037 0.31632 0.0
C355 C 0.06199 0.29838 0.05336 0.0
C356 C 0.10748 0.27922 0.04672 0.0
C357 C 0.02951 0.29814 0.08819 0.0
H358 H 0.79185 0.31321 0.3369 0.0
H359 H 0.8434 0.31252 0.27384 0.0
H360 H 0.15565 0.24506 0.07051 0.0
H361 H 0.09982 0.24521 0.13176 0.0
C362 C 0.8278 0.29876 0.3318 0.0
C363 C 0.85666 0.2982 0.29574 0.0
C364 C 0.1203 0.25991 0.07507 0.0
C365 C 0.08863 0.25998 0.10997 0.0
C366 C 0.90163 0.279 0.28795 0.0
C367 C 0.93129 0.27852 0.25087 0.0
C368 C 0.95581 0.27832 0.21969 0.0
C369 C 0.04315 0.27905 0.1166 0.0
C370 C 0.01119 0.27911 0.15283 0.0
C371 C -0.01479 0.27864 0.18348 0.0
H372 H 0.9003 0.2457 0.37355 0.0
H373 H 0.95249 0.24541 0.31056 0.0
H374 H 0.05117 0.31317 0.03155 0.0
H375 H -0.00592 0.31287 0.09303 0.0
C376 C 0.84537 0.2548 0.56722 0.0
C377 C 0.83976 0.27878 0.54584 0.0
C378 C 0.87645 0.25502 0.6023 0.0
C379 C 0.09942 0.30305 0.8385 0.0
C380 C 0.10183 0.27905 0.85994 0.0
C381 C 0.07058 0.30313 0.80245 0.0
H382 H 0.86368 0.32147 0.54359 0.0
H383 H 0.91963 0.32163 0.60522 0.0
H384 H 0.07541 0.23646 0.86071 0.0
H385 H 0.02452 0.23691 0.79783 0.0
C386 C 0.86713 0.30282 0.55967 0.0
C387 C 0.89891 0.30292 0.5947 0.0
C388 C 0.07392 0.25533 0.84503 0.0
C389 C 0.0451 0.25548 0.80906 0.0
C390 C 0.90304 0.27909 0.6162 0.0
C391 C 0.93392 0.2793 0.65278 0.0
C392 C 0.95966 0.27917 0.68348 0.0
C393 C 0.04363 0.27932 0.78765 0.0
C394 C 0.01415 0.27932 0.75059 0.0
C395 C -0.01065 0.27916 0.71954 0.0
H396 H 0.8243 0.23597 0.55743 0.0
H397 H 0.87915 0.23648 0.61873 0.0
H398 H 0.12129 0.32149 0.84896 0.0
H399 H 0.06989 0.32166 0.78598 0.0
C400 C 0.10834 0.78388 0.57072 0.0
C401 C 0.10437 0.76187 0.54369 0.0
C402 C 0.07863 0.78309 0.60629 0.0
C403 C 0.83729 0.73739 0.83121 0.0
C404 C 0.8416 0.7594 0.85808 0.0
C405 C 0.86776 0.73799 0.79572 0.0
H406 H 0.06683 0.72183 0.53234 0.0
H407 H 0.01276 0.72084 0.59487 0.0
H408 H 0.88243 0.79893 0.86958 0.0
H409 H 0.93647 0.79958 0.8076 0.0
C410 C 0.07011 0.73904 0.55272 0.0
C411 C 0.03952 0.73846 0.58826 0.0
C412 C 0.87832 0.78165 0.84938 0.0
C413 C 0.90902 0.78213 0.81401 0.0
C414 C 0.04391 0.76048 0.61508 0.0
C415 C 0.01288 0.76012 0.65168 0.0
C416 C -0.01242 0.76059 0.68263 0.0
C417 C 0.90329 0.76043 0.78695 0.0
C418 C 0.93354 0.76114 0.75008 0.0
C419 C 0.95836 0.76118 0.71898 0.0
H420 H 0.13574 0.80144 0.56479 0.0
H421 H 0.08295 0.8001 0.62694 0.0
H422 H 0.80866 0.72023 0.83694 0.0
H423 H 0.86287 0.72113 0.7749 0.0
loop_
_geom_bond_atom_site_label_1
_geom_bond_atom_site_label_2
_geom_bond_distance
_geom_bond_site_symmetry_2
_ccdc_geom_bond_type
C0 O16 1.251 . S
C0 O18 1.254 . S
N1 C2 1.333 1_554 S
N1 C6 1.307 . S
N1 Zn7 2.020 . S
C2 N1 1.333 1_556 S
C2 C3 1.379 . S
C2 H20 0.952 . S
C3 C2 1.379 . S
C3 C4 1.390 1_556 S
C3 H30 0.949 . S
C4 C3 1.390 1_554 S
C4 C5 1.357 . S
C5 C4 1.357 . S
C5 C6 1.370 . S
C5 H31 0.950 . S
C6 N1 1.307 . S
C6 C5 1.370 . S
C6 H24 0.948 . S
Zn7 N1 2.020 . S
Zn7 O16 2.021 1_554 S
Zn7 O22 2.051 . S
Zn7 O26 2.044 . S
Zn7 O28 2.006 1_554 S
C8 O27 1.246 . S
C8 O28 1.249 . S
N9 C10 1.307 . S
N9 C11 1.333 1_556 S
N9 Zn15 2.020 . S
C10 N9 1.307 . S
C10 C14 1.370 . S
C10 H21 0.948 . S
C11 N9 1.333 1_554 S
C11 C12 1.379 . S
C11 H19 0.952 . S
C12 C11 1.379 . S
C12 C13 1.390 1_554 S
C12 H32 0.949 . S
C13 C12 1.390 1_556 S
C13 C14 1.357 . S
C14 C10 1.370 . S
C14 C13 1.357 . S
C14 H33 0.950 . S
Zn15 N9 2.020 . S
Zn15 O18 2.040 . S
Zn15 O23 2.011 1_556 S
Zn15 O25 2.025 1_556 S
Zn15 O27 2.047 . S
O16 C0 1.251 . S
O16 Zn7 2.021 1_556 S
C17 O22 1.246 . S
C17 O23 1.249 . S
O18 C0 1.254 . S
O18 Zn15 2.040 . S
H19 C11 0.952 . S
H20 C2 0.952 . S
H21 C10 0.948 . S
O22 Zn7 2.051 . S
O22 C17 1.246 . S
O23 Zn15 2.011 1_554 S
O23 C17 1.249 . S
H24 C6 0.948 . S
O25 Zn15 2.025 1_554 S
O25 C29 1.251 . S
O26 Zn7 2.044 . S
O26 C29 1.254 . S
O27 C8 1.246 . S
O27 Zn15 2.047 . S
O28 Zn7 2.006 1_556 S
O28 C8 1.249 . S
C29 O25 1.251 . S
C29 O26 1.254 . S
H30 C3 0.949 . S
H31 C5 0.950 . S
H32 C12 0.949 . S
H33 C14 0.950 . S
C34 O50 1.251 . S
C34 O52 1.254 . S
N35 C36 1.333 1_554 S
N35 C40 1.307 . S
N35 Zn41 2.020 . S
C36 N35 1.333 1_556 S
C36 C37 1.379 . S
C36 H54 0.952 . S
C37 C36 1.379 . S
C37 C38 1.390 1_556 S
C37 H64 0.949 . S
C38 C37 1.390 1_554 S
C38 C39 1.357 . S
C39 C38 1.357 . S
C39 C40 1.370 . S
C39 H65 0.950 . S
C40 N35 1.307 . S
C40 C39 1.370 . S
C40 H58 0.948 . S
Zn41 N35 2.020 . S
Zn41 O50 2.021 1_554 S
Zn41 O56 2.051 . S
Zn41 O60 2.044 . S
Zn41 O62 2.006 1_554 S
C42 O61 1.246 . S
C42 O62 1.249 . S
N43 C44 1.307 . S
N43 C45 1.333 1_556 S
N43 Zn49 2.020 . S
C44 N43 1.307 . S
C44 C48 1.370 . S
C44 H55 0.948 . S
C45 N43 1.333 1_554 S
C45 C46 1.379 . S
C45 H53 0.952 . S
C46 C45 1.379 . S
C46 C47 1.390 1_554 S
C46 H66 0.949 . S
C47 C46 1.390 1_556 S
C47 C48 1.357 . S
C48 C44 1.370 . S
C48 C47 1.357 . S
C48 H67 0.950 . S
Zn49 N43 2.020 . S
Zn49 O52 2.040 . S
Zn49 O57 2.011 1_556 S
Zn49 O59 2.025 1_556 S
Zn49 O61 2.047 . S
O50 C34 1.251 . S
O50 Zn41 2.021 1_556 S
C51 O56 1.246 . S
C51 O57 1.249 . S
O52 C34 1.254 . S
O52 Zn49 2.040 . S
H53 C45 0.952 . S
H54 C36 0.952 . S
H55 C44 0.948 . S
O56 Zn41 2.051 . S
O56 C51 1.246 . S
O57 Zn49 2.011 1_554 S
O57 C51 1.249 . S
H58 C40 0.948 . S
O59 Zn49 2.025 1_554 S
O59 C63 1.251 . S
O60 Zn41 2.044 . S
O60 C63 1.254 . S
O61 C42 1.246 . S
O61 Zn49 2.047 . S
O62 Zn41 2.006 1_556 S
O62 C42 1.249 . S
C63 O59 1.251 . S
C63 O60 1.254 . S
H64 C37 0.949 . S
H65 C39 0.950 . S
H66 C46 0.949 . S
H67 C48 0.950 . S
C68 O84 1.251 . S
C68 O86 1.254 . S
N69 C70 1.333 . S
N69 C74 1.307 . S
N69 Zn75 2.020 . S
C70 N69 1.333 . S
C70 C71 1.379 . S
C70 H88 0.952 . S
C71 C70 1.379 . S
C71 C72 1.390 . S
C71 H98 0.949 . S
C72 C71 1.390 . S
C72 C73 1.357 . S
C73 C72 1.357 . S
C73 C74 1.370 . S
C73 H99 0.950 . S
C74 N69 1.307 . S
C74 C73 1.370 . S
C74 H92 0.948 . S
Zn75 N69 2.020 . S
Zn75 O84 2.039 . S
Zn75 O90 2.034 . S
Zn75 O94 2.025 . S
Zn75 O96 2.024 . S
C76 O95 1.246 . S
C76 O96 1.249 . S
N77 C78 1.307 . S
N77 C79 1.333 . S
N77 Zn83 2.020 . S
C78 N77 1.307 . S
C78 C82 1.370 . S
C78 H89 0.948 . S
C79 N77 1.333 . S
C79 C80 1.379 . S
C79 H87 0.952 . S
C80 C79 1.379 . S
C80 C81 1.390 . S
C80 H100 0.949 . S
C81 C80 1.390 . S
C81 C82 1.357 . S
C82 C78 1.370 . S
C82 C81 1.357 . S
C82 H101 0.950 . S
Zn83 N77 2.020 . S
Zn83 O86 2.025 . S
Zn83 O91 2.024 . S
Zn83 O93 2.039 . S
Zn83 O95 2.034 . S
O84 C68 1.251 . S
O84 Zn75 2.039 . S
C85 O90 1.246 . S
C85 O91 1.249 . S
O86 C68 1.254 . S
O86 Zn83 2.025 . S
H87 C79 0.952 . S
H88 C70 0.952 . S
H89 C78 0.948 . S
O90 Zn75 2.034 . S
O90 C85 1.246 . S
O91 Zn83 2.024 . S
O91 C85 1.249 . S
H92 C74 0.948 . S
O93 Zn83 2.039 . S
O93 C97 1.251 . S
O94 Zn75 2.025 . S
O94 C97 1.254 . S
O95 C76 1.246 . S
O95 Zn83 2.034 . S
O96 Zn75 2.024 . S
O96 C76 1.249 . S
C97 O93 1.251 . S
C97 O94 1.254 . S
H98 C71 0.949 . S
H99 C73 0.950 . S
H100 C80 0.949 . S
H101 C82 0.950 . S
C102 O118 1.251 . S
C102 O120 1.254 . S
N103 C104 1.333 . S
N103 C108 1.307 . S
N103 Zn109 2.020 . S
C104 N103 1.333 . S
C104 C105 1.379 . S
C104 H122 0.952 . S
C105 C104 1.379 . S
C105 C106 1.390 . S
C105 H132 0.949 . S
C106 C105 1.390 . S
C106 C107 1.357 . S
C107 C106 1.357 . S
C107 C108 1.370 . S
C107 H133 0.950 . S
C108 N103 1.307 . S
C108 C107 1.370 . S
C108 H126 0.948 . S
Zn109 N103 2.020 . S
Zn109 O118 2.039 . S
Zn109 O124 2.034 . S
Zn109 O128 2.025 . S
Zn109 O130 2.024 . S
C110 O129 1.246 . S
C110 O130 1.249 . S
N111 C112 1.307 . S
N111 C113 1.333 . S
N111 Zn117 2.020 . S
C112 N111 1.307 . S
C112 C116 1.370 . S
C112 H123 0.948 . S
C113 N111 1.333 . S
C113 C114 1.379 . S
C113 H121 0.952 . S
C114 C113 1.379 . S
C114 C115 1.390 . S
C114 H134 0.949 . S
C115 C114 1.390 . S
C115 C116 1.357 . S
C116 C112 1.370 . S
C116 C115 1.357 . S
C116 H135 0.950 . S
Zn117 N111 2.020 . S
Zn117 O120 2.025 . S
Zn117 O125 2.024 . S
Zn117 O127 2.039 . S
Zn117 O129 2.034 . S
O118 C102 1.251 . S
O118 Zn109 2.039 . S
C119 O124 1.246 . S
C119 O125 1.249 . S
O120 C102 1.254 . S
O120 Zn117 2.025 . S
H121 C113 0.952 . S
H122 C104 0.952 . S
H123 C112 0.948 . S
O124 Zn109 2.034 . S
O124 C119 1.246 . S
O125 Zn117 2.024 . S
O125 C119 1.249 . S
H126 C108 0.948 . S
O127 Zn117 2.039 . S
O127 C131 1.251 . S
O128 Zn109 2.025 . S
O128 C131 1.254 . S
O129 C110 1.246 . S
O129 Zn117 2.034 . S
O130 Zn109 2.024 . S
O130 C110 1.249 . S
C131 O127 1.251 . S
C131 O128 1.254 . S
H132 C105 0.949 . S
H133 C107 0.950 . S
H134 C114 0.949 . S
H135 C116 0.950 . S
C136 C137 1.330 . S
C136 C138 1.345 . S
C136 H156 0.932 . S
C137 C136 1.330 . S
C137 C146 1.334 1_556 S
C138 C136 1.345 . S
C138 C150 1.336 1_556 S
C138 H157 0.928 . S
C139 C140 1.334 . S
C139 C141 1.345 . S
C139 H158 0.932 . S
C140 C139 1.334 . S
C140 C148 1.329 1_554 S
C141 C139 1.345 . S
C141 C153 1.336 . S
C141 H159 0.928 . S
H142 C146 0.932 . S
H143 C147 0.928 . S
H144 C148 0.932 . S
H145 C149 0.928 . S
C146 C137 1.334 1_554 S
C146 H142 0.932 . S
C146 C147 1.345 . S
C147 H143 0.928 . S
C147 C146 1.345 . S
C147 C150 1.332 . S
C148 C140 1.329 1_556 S
C148 H144 0.932 . S
C148 C149 1.345 . S
C149 H145 0.928 . S
C149 C148 1.345 . S
C149 C153 1.332 1_556 S
C150 C138 1.336 1_554 S
C150 C147 1.332 . S
C150 C151 1.487 . S
C151 C150 1.487 . S
C151 C152 1.184 . S
C152 C151 1.184 . S
C152 C155 1.482 . S
C153 C141 1.336 . S
C153 C149 1.332 1_554 S
C153 C154 1.487 . S
C154 C153 1.487 . S
C154 C155 1.184 . S
C155 C152 1.482 . S
C155 C154 1.184 . S
H156 C136 0.932 . S
H157 C138 0.928 . S
H158 C139 0.932 . S
H159 C141 0.928 . S
C160 C161 1.332 . S
C160 C162 1.345 . S
C160 H180 0.932 . S
C161 C160 1.332 . S
C161 C170 1.332 . S
C162 C160 1.345 . S
C162 C174 1.334 . S
C162 H181 0.928 . S
C163 C164 1.332 . S
C163 C165 1.345 . S
C163 H182 0.932 . S
C164 C163 1.332 . S
C164 C172 1.332 . S
C165 C163 1.345 . S
C165 C177 1.334 . S
C165 H183 0.928 . S
H166 C170 0.932 . S
H167 C171 0.928 . S
H168 C172 0.932 . S
H169 C173 0.928 . S
C170 C161 1.332 . S
C170 H166 0.932 . S
C170 C171 1.345 . S
C171 H167 0.928 . S
C171 C170 1.345 . S
C171 C174 1.334 . S
C172 C164 1.332 . S
C172 H168 0.932 . S
C172 C173 1.345 . S
C173 H169 0.928 . S
C173 C172 1.345 . S
C173 C177 1.334 . S
C174 C162 1.334 . S
C174 C171 1.334 . S
C174 C175 1.487 . S
C175 C174 1.487 . S
C175 C176 1.185 . S
C176 C175 1.185 . S
C176 C179 1.482 . S
C177 C165 1.334 . S
C177 C173 1.334 . S
C177 C178 1.487 . S
C178 C177 1.487 . S
C178 C179 1.185 . S
C179 C176 1.482 . S
C179 C178 1.185 . S
H180 C160 0.932 . S
H181 C162 0.928 . S
H182 C163 0.932 . S
H183 C165 0.928 . S
C184 C185 1.334 1_554 S
C184 C186 1.345 . S
C184 H204 0.932 . S
C185 C184 1.334 1_556 S
C185 C194 1.329 . S
C186 C184 1.345 . S
C186 C198 1.332 . S
C186 H205 0.928 . S
C187 C188 1.329 1_556 S
C187 C189 1.345 . S
C187 H206 0.932 . S
C188 C187 1.329 1_554 S
C188 C196 1.335 . S
C189 C187 1.345 . S
C189 C201 1.332 1_556 S
C189 H207 0.928 . S
H190 C194 0.932 . S
H191 C195 0.928 . S
H192 C196 0.932 . S
H193 C197 0.928 . S
C194 C185 1.329 . S
C194 H190 0.932 . S
C194 C195 1.345 . S
C195 H191 0.928 . S
C195 C194 1.345 . S
C195 C198 1.336 1_556 S
C196 C188 1.335 . S
C196 H192 0.932 . S
C196 C197 1.345 . S
C197 H193 0.928 . S
C197 C196 1.345 . S
C197 C201 1.336 . S
C198 C186 1.332 . S
C198 C195 1.336 1_554 S
C198 C199 1.487 . S
C199 C198 1.487 . S
C199 C200 1.184 . S
C200 C199 1.184 . S
C200 C203 1.482 1_445 S
C201 C189 1.332 1_554 S
C201 C197 1.336 . S
C201 C202 1.487 . S
C202 C201 1.487 . S
C202 C203 1.184 . S
C203 C200 1.482 1_665 S
C203 C202 1.184 . S
H204 C184 0.932 . S
H205 C186 0.928 . S
H206 C187 0.932 . S
H207 C189 0.928 . S
C208 C209 1.332 . S
C208 C210 1.345 . S
C208 H228 0.932 . S
C209 C208 1.332 . S
C209 C218 1.332 . S
C210 C208 1.345 . S
C210 C222 1.334 . S
C210 H229 0.928 . S
C211 C212 1.332 . S
C211 C213 1.345 . S
C211 H230 0.932 . S
C212 C211 1.332 . S
C212 C220 1.332 . S
C213 C211 1.345 . S
C213 C225 1.334 . S
C213 H231 0.928 . S
H214 C218 0.932 . S
H215 C219 0.928 . S
H216 C220 0.932 . S
H217 C221 0.928 . S
C218 C209 1.332 . S
C218 H214 0.932 . S
C218 C219 1.345 . S
C219 H215 0.928 . S
C219 C218 1.345 . S
C219 C222 1.334 . S
C220 C212 1.332 . S
C220 H216 0.932 . S
C220 C221 1.345 . S
C221 H217 0.928 . S
C221 C220 1.345 . S
C221 C225 1.334 . S
C222 C210 1.334 . S
C222 C219 1.334 . S
C222 C223 1.487 . S
C223 C222 1.487 . S
C223 C224 1.185 . S
C224 C223 1.185 . S
C224 C227 1.482 1_645 S
C225 C213 1.334 . S
C225 C221 1.334 . S
C225 C226 1.487 . S
C226 C225 1.487 . S
C226 C227 1.185 . S
C227 C224 1.482 1_465 S
C227 C226 1.185 . S
H228 C208 0.932 . S
H229 C210 0.928 . S
H230 C211 0.932 . S
H231 C213 0.928 . S
C232 C233 1.332 . S
C232 C234 1.345 . S
C232 H252 0.932 . S
C233 C232 1.332 . S
C233 C242 1.332 . S
C234 C232 1.345 . S
C234 C246 1.334 . S
C234 H253 0.928 . S
C235 C236 1.332 . S
C235 C237 1.345 . S
C235 H254 0.932 . S
C236 C235 1.332 . S
C236 C244 1.332 . S
C237 C235 1.345 . S
C237 C249 1.334 . S
C237 H255 0.928 . S
H238 C242 0.932 . S
H239 C243 0.928 . S
H240 C244 0.932 . S
H241 C245 0.928 . S
C242 C233 1.332 . S
C242 H238 0.932 . S
C242 C243 1.345 . S
C243 H239 0.928 . S
C243 C242 1.345 . S
C243 C246 1.334 . S
C244 C236 1.332 . S
C244 H240 0.932 . S
C244 C245 1.345 . S
C245 H241 0.928 . S
C245 C244 1.345 . S
C245 C249 1.334 . S
C246 C234 1.334 . S
C246 C243 1.334 . S
C246 C247 1.487 . S
C247 C246 1.487 . S
C247 C248 1.185 . S
C248 C247 1.185 . S
C248 C251 1.482 . S
C249 C237 1.334 . S
C249 C245 1.334 . S
C249 C250 1.487 . S
C250 C249 1.487 . S
C250 C251 1.185 . S
C251 C248 1.482 . S
C251 C250 1.185 . S
H252 C232 0.932 . S
H253 C234 0.928 . S
H254 C235 0.932 . S
H255 C237 0.928 . S
C256 C257 1.332 . S
C256 C258 1.345 . S
C256 H276 0.932 . S
C257 C256 1.332 . S
C257 C266 1.332 . S
C258 C256 1.345 . S
C258 C270 1.334 . S
C258 H277 0.928 . S
C259 C260 1.332 . S
C259 C261 1.345 . S
C259 H278 0.932 . S
C260 C259 1.332 . S
C260 C268 1.332 . S
C261 C259 1.345 . S
C261 C273 1.334 . S
C261 H279 0.928 . S
H262 C266 0.932 . S
H263 C267 0.928 . S
H264 C268 0.932 . S
H265 C269 0.928 . S
C266 C257 1.332 . S
C266 H262 0.932 . S
C266 C267 1.345 . S
C267 H263 0.928 . S
C267 C266 1.345 . S
C267 C270 1.334 . S
C268 C260 1.332 . S
C268 H264 0.932 . S
C268 C269 1.345 . S
C269 H265 0.928 . S
C269 C268 1.345 . S
C269 C273 1.334 . S
C270 C258 1.334 . S
C270 C267 1.334 . S
C270 C271 1.487 . S
C271 C270 1.487 . S
C271 C272 1.185 . S
C272 C271 1.185 . S
C272 C275 1.482 . S
C273 C261 1.334 . S
C273 C269 1.334 . S
C273 C274 1.487 . S
C274 C273 1.487 . S
C274 C275 1.185 . S
C275 C272 1.482 . S
C275 C274 1.185 . S
H276 C256 0.932 . S
H277 C258 0.928 . S
H278 C259 0.932 . S
H279 C261 0.928 . S
C280 C281 1.332 . S
C280 C282 1.345 . S
C280 H300 0.932 . S
C281 C280 1.332 . S
C281 C290 1.332 . S
C282 C280 1.345 . S
C282 C294 1.334 . S
C282 H301 0.928 . S
C283 C284 1.332 . S
C283 C285 1.345 . S
C283 H302 0.932 . S
C284 C283 1.332 . S
C284 C292 1.332 . S
C285 C283 1.345 . S
C285 C297 1.334 . S
C285 H303 0.928 . S
H286 C290 0.932 . S
H287 C291 0.928 . S
H288 C292 0.932 . S
H289 C293 0.928 . S
C290 C281 1.332 . S
C290 H286 0.932 . S
C290 C291 1.345 . S
C291 H287 0.928 . S
C291 C290 1.345 . S
C291 C294 1.334 . S
C292 C284 1.332 . S
C292 H288 0.932 . S
C292 C293 1.345 . S
C293 H289 0.928 . S
C293 C292 1.345 . S
C293 C297 1.334 . S
C294 C282 1.334 . S
C294 C291 1.334 . S
C294 C295 1.487 . S
C295 C294 1.487 . S
C295 C296 1.185 . S
C296 C295 1.185 . S
C296 C299 1.482 . S
C297 C285 1.334 . S
C297 C293 1.334 . S
C297 C298 1.487 . S
C298 C297 1.487 . S
C298 C299 1.185 . S
C299 C296 1.482 . S
C299 C298 1.185 . S
H300 C280 0.932 . S
H301 C282 0.928 . S
H302 C283 0.932 . S
H303 C285 0.928 . S
C304 C305 1.332 . S
C304 C306 1.345 . S
C304 H324 0.932 . S
C305 C304 1.332 . S
C305 C314 1.332 . S
C306 C304 1.345 . S
C306 C318 1.334 . S
C306 H325 0.928 . S
C307 C308 1.332 . S
C307 C309 1.345 . S
C307 H326 0.932 . S
C308 C307 1.332 . S
C308 C316 1.332 . S
C309 C307 1.345 . S
C309 C321 1.334 . S
C309 H327 0.928 . S
H310 C314 0.932 . S
H311 C315 0.928 . S
H312 C316 0.932 . S
H313 C317 0.928 . S
C314 C305 1.332 . S
C314 H310 0.932 . S
C314 C315 1.345 . S
C315 H311 0.928 . S
C315 C314 1.345 . S
C315 C318 1.334 . S
C316 C308 1.332 . S
C316 H312 0.932 . S
C316 C317 1.345 . S
C317 H313 0.928 . S
C317 C316 1.345 . S
C317 C321 1.334 . S
C318 C306 1.334 . S
C318 C315 1.334 . S
C318 C319 1.487 . S
C319 C318 1.487 . S
C319 C320 1.185 . S
C320 C319 1.185 . S
C320 C323 1.482 . S
C321 C309 1.334 . S
C321 C317 1.334 . S
C321 C322 1.487 . S
C322 C321 1.487 . S
C322 C323 1.185 . S
C323 C320 1.482 . S
C323 C322 1.185 . S
H324 C304 0.932 . S
H325 C306 0.928 . S
H326 C307 0.932 . S
H327 C309 0.928 . S
C328 C329 1.332 . S
C328 C330 1.345 . S
C328 H348 0.932 . S
C329 C328 1.332 . S
C329 C338 1.332 . S
C330 C328 1.345 . S
C330 C342 1.334 . S
C330 H349 0.928 . S
C331 C332 1.332 . S
C331 C333 1.345 . S
C331 H350 0.932 . S
C332 C331 1.332 . S
C332 C340 1.332 . S
C333 C331 1.345 . S
C333 C345 1.334 . S
C333 H351 0.928 . S
H334 C338 0.932 . S
H335 C339 0.928 . S
H336 C340 0.932 . S
H337 C341 0.928 . S
C338 C329 1.332 . S
C338 H334 0.932 . S
C338 C339 1.345 . S
C339 H335 0.928 . S
C339 C338 1.345 . S
C339 C342 1.334 . S
C340 C332 1.332 . S
C340 H336 0.932 . S
C340 C341 1.345 . S
C341 H337 0.928 . S
C341 C340 1.345 . S
C341 C345 1.334 . S
C342 C330 1.334 . S
C342 C339 1.334 . S
C342 C343 1.487 . S
C343 C342 1.487 . S
C343 C344 1.185 . S
C344 C343 1.185 . S
C344 C347 1.482 1_655 S
C345 C333 1.334 . S
C345 C341 1.334 . S
C345 C346 1.487 . S
C346 C345 1.487 . S
C346 C347 1.185 . S
C347 C344 1.482 1_455 S
C347 C346 1.185 . S
H348 C328 0.932 . S
H349 C330 0.928 . S
H350 C331 0.932 . S
H351 C333 0.928 . S
C352 C353 1.332 . S
C352 C354 1.345 . S
C352 H372 0.932 . S
C353 C352 1.332 . S
C353 C362 1.332 . S
C354 C352 1.345 . S
C354 C366 1.334 . S
C354 H373 0.928 . S
C355 C356 1.332 . S
C355 C357 1.345 . S
C355 H374 0.932 . S
C356 C355 1.332 . S
C356 C364 1.332 . S
C357 C355 1.345 . S
C357 C369 1.334 . S
C357 H375 0.928 . S
H358 C362 0.932 . S
H359 C363 0.928 . S
H360 C364 0.932 . S
H361 C365 0.928 . S
C362 C353 1.332 . S
C362 H358 0.932 . S
C362 C363 1.345 . S
C363 H359 0.928 . S
C363 C362 1.345 . S
C363 C366 1.334 . S
C364 C356 1.332 . S
C364 H360 0.932 . S
C364 C365 1.345 . S
C365 H361 0.928 . S
C365 C364 1.345 . S
C365 C369 1.334 . S
C366 C354 1.334 . S
C366 C363 1.334 . S
C366 C367 1.487 . S
C367 C366 1.487 . S
C367 C368 1.185 . S
C368 C367 1.185 . S
C368 C371 1.482 1_655 S
C369 C357 1.334 . S
C369 C365 1.334 . S
C369 C370 1.487 . S
C370 C369 1.487 . S
C370 C371 1.185 . S
C371 C368 1.482 1_455 S
C371 C370 1.185 . S
H372 C352 0.932 . S
H373 C354 0.928 . S
H374 C355 0.932 . S
H375 C357 0.928 . S
C376 C377 1.332 . S
C376 C378 1.345 . S
C376 H396 0.932 . S
C377 C376 1.332 . S
C377 C386 1.332 . S
C378 C376 1.345 . S
C378 C390 1.334 . S
C378 H397 0.928 . S
C379 C380 1.332 . S
C379 C381 1.345 . S
C379 H398 0.932 . S
C380 C379 1.332 . S
C380 C388 1.332 . S
C381 C379 1.345 . S
C381 C393 1.334 . S
C381 H399 0.928 . S
H382 C386 0.932 . S
H383 C387 0.928 . S
H384 C388 0.932 . S
H385 C389 0.928 . S
C386 C377 1.332 . S
C386 H382 0.932 . S
C386 C387 1.345 . S
C387 H383 0.928 . S
C387 C386 1.345 . S
C387 C390 1.334 . S
C388 C380 1.332 . S
C388 H384 0.932 . S
C388 C389 1.345 . S
C389 H385 0.928 . S
C389 C388 1.345 . S
C389 C393 1.334 . S
C390 C378 1.334 . S
C390 C387 1.334 . S
C390 C391 1.487 . S
C391 C390 1.487 . S
C391 C392 1.185 . S
C392 C391 1.185 . S
C392 C395 1.482 1_655 S
C393 C381 1.334 . S
C393 C389 1.334 . S
C393 C394 1.487 . S
C394 C393 1.487 . S
C394 C395 1.185 . S
C395 C392 1.482 1_455 S
C395 C394 1.185 . S
H396 C376 0.932 . S
H397 C378 0.928 . S
H398 C379 0.932 . S
H399 C381 0.928 . S
C400 C401 1.332 . S
C400 C402 1.345 . S
C400 H420 0.932 . S
C401 C400 1.332 . S
C401 C410 1.332 . S
C402 C400 1.345 . S
C402 C414 1.334 . S
C402 H421 0.928 . S
C403 C404 1.332 . S
C403 C405 1.345 . S
C403 H422 0.932 . S
C404 C403 1.332 . S
C404 C412 1.332 . S
C405 C403 1.345 . S
C405 C417 1.334 . S
C405 H423 0.928 . S
H406 C410 0.932 . S
H407 C411 0.928 . S
H408 C412 0.932 . S
H409 C413 0.928 . S
C410 C401 1.332 . S
C410 H406 0.932 . S
C410 C411 1.345 . S
C411 H407 0.928 . S
C411 C410 1.345 . S
C411 C414 1.334 . S
C412 C404 1.332 . S
C412 H408 0.932 . S
C412 C413 1.345 . S
C413 H409 0.928 . S
C413 C412 1.345 . S
C413 C417 1.334 . S
C414 C402 1.334 . S
C414 C411 1.334 . S
C414 C415 1.487 . S
C415 C414 1.487 . S
C415 C416 1.185 . S
C416 C415 1.185 . S
C416 C419 1.482 1_455 S
C417 C405 1.334 . S
C417 C413 1.334 . S
C417 C418 1.487 . S
C418 C417 1.487 . S
C418 C419 1.185 . S
C419 C416 1.482 1_655 S
C419 C418 1.185 . S
H420 C400 0.932 . S
H421 C402 0.928 . S
H422 C403 0.932 . S
H423 C405 0.928 . S
C137 C47 1.631 . S
C140 C4 1.631 . S
C161 C72 1.631 . S
C164 C115 1.631 . S
C185 C13 1.631 . S
C188 C38 1.631 . S
C209 C106 1.631 . S
C212 C81 1.631 . S
C233 C131 0.810 . S
C236 C17 0.809 . S
C257 C63 0.810 . S
C260 C85 0.809 . S
C281 C42 0.811 . S
C284 C68 0.811 . S
C305 C110 0.811 . S
C308 C0 0.811 . S
C329 C51 0.811 . S
C332 C97 0.809 . S
C353 C119 0.811 . S
C356 C29 0.809 . S
C377 C102 0.810 . S
C380 C8 0.812 . S
C401 C76 0.811 . S
C404 C34 0.811 . S
