# Generated by pormake.
# Topology wio, (6)-cn, num edge types: 1
# Building blocks:
#     Node 0, Type 0, BuildingBlock: GEDQOX_clean_sbu_0, # of connection points: 6
#     Node 1, Type 0, BuildingBlock: GEDQOX_clean_sbu_0, # of connection points: 6
#     Node 2, Type 0, BuildingBlock: GEDQOX_clean_sbu_0, # of connection points: 6
#     Node 3, Type 0, BuildingBlock: GEDQOX_clean_sbu_0, # of connection points: 6
#     Node 4, Type 0, BuildingBlock: GEDQOX_clean_sbu_0, # of connection points: 6
#     Node 5, Type 0, BuildingBlock: GEDQOX_clean_sbu_0, # of connection points: 6
#     Node 6, Type 0, BuildingBlock: GEDQOX_clean_sbu_0, # of connection points: 6
#     Node 7, Type 0, BuildingBlock: GEDQOX_clean_sbu_0, # of connection points: 6
#     Node 8, Type 0, BuildingBlock: GEDQOX_clean_sbu_0, # of connection points: 6
#     Node 9, Type 0, BuildingBlock: GEDQOX_clean_sbu_0, # of connection points: 6
#     Node 10, Type 0, BuildingBlock: GEDQOX_clean_sbu_0, # of connection points: 6
#     Node 11, Type 0, BuildingBlock: GEDQOX_clean_sbu_0, # of connection points: 6
#     Node 12, Type 0, BuildingBlock: GEDQOX_clean_sbu_0, # of connection points: 6
#     Node 13, Type 0, BuildingBlock: GEDQOX_clean_sbu_0, # of connection points: 6
#     Node 14, Type 0, BuildingBlock: GEDQOX_clean_sbu_0, # of connection points: 6
#     Node 15, Type 0, BuildingBlock: GEDQOX_clean_sbu_0, # of connection points: 6
#     Node 16, Type 0, BuildingBlock: GEDQOX_clean_sbu_0, # of connection points: 6
#     Node 17, Type 0, BuildingBlock: GEDQOX_clean_sbu_0, # of connection points: 6
#     Node 18, Type 0, BuildingBlock: GEDQOX_clean_sbu_0, # of connection points: 6
#     Node 19, Type 0, BuildingBlock: GEDQOX_clean_sbu_0, # of connection points: 6
#     Node 20, Type 0, BuildingBlock: GEDQOX_clean_sbu_0, # of connection points: 6
#     Node 21, Type 0, BuildingBlock: GEDQOX_clean_sbu_0, # of connection points: 6
#     Node 22, Type 0, BuildingBlock: GEDQOX_clean_sbu_0, # of connection points: 6
#     Node 23, Type 0, BuildingBlock: GEDQOX_clean_sbu_0, # of connection points: 6
#     Node 24, Type 0, BuildingBlock: GEDQOX_clean_sbu_0, # of connection points: 6
#     Node 25, Type 0, BuildingBlock: GEDQOX_clean_sbu_0, # of connection points: 6
#     Node 26, Type 0, BuildingBlock: GEDQOX_clean_sbu_0, # of connection points: 6
#     Node 27, Type 0, BuildingBlock: GEDQOX_clean_sbu_0, # of connection points: 6
#     Node 28, Type 0, BuildingBlock: GEDQOX_clean_sbu_0, # of connection points: 6
#     Node 29, Type 0, BuildingBlock: GEDQOX_clean_sbu_0, # of connection points: 6
#     Node 30, Type 0, BuildingBlock: GEDQOX_clean_sbu_0, # of connection points: 6
#     Node 31, Type 0, BuildingBlock: GEDQOX_clean_sbu_0, # of connection points: 6
#     Edge 32, Type (0, 0), BuildingBlock: TEMPAE_clean_linker_10, # of connection points: 2
#     Edge 33, Type (0, 0), BuildingBlock: TEMPAE_clean_linker_10, # of connection points: 2
#     Edge 34, Type (0, 0), BuildingBlock: TEMPAE_clean_linker_10, # of connection points: 2
#     Edge 35, Type (0, 0), BuildingBlock: TEMPAE_clean_linker_10, # of connection points: 2
#     Edge 36, Type (0, 0), BuildingBlock: TEMPAE_clean_linker_10, # of connection points: 2
#     Edge 37, Type (0, 0), BuildingBlock: TEMPAE_clean_linker_10, # of connection points: 2
#     Edge 38, Type (0, 0), BuildingBlock: TEMPAE_clean_linker_10, # of connection points: 2
#     Edge 39, Type (0, 0), BuildingBlock: TEMPAE_clean_linker_10, # of connection points: 2
#     Edge 40, Type (0, 0), BuildingBlock: TEMPAE_clean_linker_10, # of connection points: 2
#     Edge 41, Type (0, 0), BuildingBlock: TEMPAE_clean_linker_10, # of connection points: 2
#     Edge 42, Type (0, 0), BuildingBlock: TEMPAE_clean_linker_10, # of connection points: 2
#     Edge 43, Type (0, 0), BuildingBlock: TEMPAE_clean_linker_10, # of connection points: 2
#     Edge 44, Type (0, 0), BuildingBlock: TEMPAE_clean_linker_10, # of connection points: 2
#     Edge 45, Type (0, 0), BuildingBlock: TEMPAE_clean_linker_10, # of connection points: 2
#     Edge 46, Type (0, 0), BuildingBlock: TEMPAE_clean_linker_10, # of connection points: 2
#     Edge 47, Type (0, 0), BuildingBlock: TEMPAE_clean_linker_10, # of connection points: 2
#     Edge 48, Type (0, 0), BuildingBlock: TEMPAE_clean_linker_10, # of connection points: 2
#     Edge 49, Type (0, 0), BuildingBlock: TEMPAE_clean_linker_10, # of connection points: 2
#     Edge 50, Type (0, 0), BuildingBlock: TEMPAE_clean_linker_10, # of connection points: 2
#     Edge 51, Type (0, 0), BuildingBlock: TEMPAE_clean_linker_10, # of connection points: 2
#     Edge 52, Type (0, 0), BuildingBlock: TEMPAE_clean_linker_10, # of connection points: 2
#     Edge 53, Type (0, 0), BuildingBlock: TEMPAE_clean_linker_10, # of connection points: 2
#     Edge 54, Type (0, 0), BuildingBlock: TEMPAE_clean_linker_10, # of connection points: 2
#     Edge 55, Type (0, 0), BuildingBlock: TEMPAE_clean_linker_10, # of connection points: 2
#     Edge 56, Type (0, 0), BuildingBlock: TEMPAE_clean_linker_10, # of connection points: 2
#     Edge 57, Type (0, 0), BuildingBlock: TEMPAE_clean_linker_10, # of connection points: 2
#     Edge 58, Type (0, 0), BuildingBlock: TEMPAE_clean_linker_10, # of connection points: 2
#     Edge 59, Type (0, 0), BuildingBlock: TEMPAE_clean_linker_10, # of connection points: 2
#     Edge 60, Type (0, 0), BuildingBlock: TEMPAE_clean_linker_10, # of connection points: 2
#     Edge 61, Type (0, 0), BuildingBlock: TEMPAE_clean_linker_10, # of connection points: 2
#     Edge 62, Type (0, 0), BuildingBlock: TEMPAE_clean_linker_10, # of connection points: 2
#     Edge 63, Type (0, 0), BuildingBlock: TEMPAE_clean_linker_10, # of connection points: 2
#     Edge 64, Type (0, 0), BuildingBlock: TEMPAE_clean_linker_10, # of connection points: 2
#     Edge 65, Type (0, 0), BuildingBlock: TEMPAE_clean_linker_10, # of connection points: 2
#     Edge 66, Type (0, 0), BuildingBlock: TEMPAE_clean_linker_10, # of connection points: 2
#     Edge 67, Type (0, 0), BuildingBlock: TEMPAE_clean_linker_10, # of connection points: 2
#     Edge 68, Type (0, 0), BuildingBlock: TEMPAE_clean_linker_10, # of connection points: 2
#     Edge 69, Type (0, 0), BuildingBlock: TEMPAE_clean_linker_10, # of connection points: 2
#     Edge 70, Type (0, 0), BuildingBlock: TEMPAE_clean_linker_10, # of connection points: 2
#     Edge 71, Type (0, 0), BuildingBlock: TEMPAE_clean_linker_10, # of connection points: 2
#     Edge 72, Type (0, 0), BuildingBlock: TEMPAE_clean_linker_10, # of connection points: 2
#     Edge 73, Type (0, 0), BuildingBlock: TEMPAE_clean_linker_10, # of connection points: 2
#     Edge 74, Type (0, 0), BuildingBlock: TEMPAE_clean_linker_10, # of connection points: 2
#     Edge 75, Type (0, 0), BuildingBlock: TEMPAE_clean_linker_10, # of connection points: 2
#     Edge 76, Type (0, 0), BuildingBlock: TEMPAE_clean_linker_10, # of connection points: 2
#     Edge 77, Type (0, 0), BuildingBlock: TEMPAE_clean_linker_10, # of connection points: 2
#     Edge 78, Type (0, 0), BuildingBlock: TEMPAE_clean_linker_10, # of connection points: 2
#     Edge 79, Type (0, 0), BuildingBlock: TEMPAE_clean_linker_10, # of connection points: 2
#     Edge 80, Type (0, 0), BuildingBlock: TEMPAE_clean_linker_10, # of connection points: 2
#     Edge 81, Type (0, 0), BuildingBlock: TEMPAE_clean_linker_10, # of connection points: 2
#     Edge 82, Type (0, 0), BuildingBlock: TEMPAE_clean_linker_10, # of connection points: 2
#     Edge 83, Type (0, 0), BuildingBlock: TEMPAE_clean_linker_10, # of connection points: 2
#     Edge 84, Type (0, 0), BuildingBlock: TEMPAE_clean_linker_10, # of connection points: 2
#     Edge 85, Type (0, 0), BuildingBlock: TEMPAE_clean_linker_10, # of connection points: 2
#     Edge 86, Type (0, 0), BuildingBlock: TEMPAE_clean_linker_10, # of connection points: 2
#     Edge 87, Type (0, 0), BuildingBlock: TEMPAE_clean_linker_10, # of connection points: 2
#     Edge 88, Type (0, 0), BuildingBlock: TEMPAE_clean_linker_10, # of connection points: 2
#     Edge 89, Type (0, 0), BuildingBlock: TEMPAE_clean_linker_10, # of connection points: 2
#     Edge 90, Type (0, 0), BuildingBlock: TEMPAE_clean_linker_10, # of connection points: 2
#     Edge 91, Type (0, 0), BuildingBlock: TEMPAE_clean_linker_10, # of connection points: 2
#     Edge 92, Type (0, 0), BuildingBlock: TEMPAE_clean_linker_10, # of connection points: 2
#     Edge 93, Type (0, 0), BuildingBlock: TEMPAE_clean_linker_10, # of connection points: 2
#     Edge 94, Type (0, 0), BuildingBlock: TEMPAE_clean_linker_10, # of connection points: 2
#     Edge 95, Type (0, 0), BuildingBlock: TEMPAE_clean_linker_10, # of connection points: 2
#     Edge 96, Type (0, 0), BuildingBlock: TEMPAE_clean_linker_10, # of connection points: 2
#     Edge 97, Type (0, 0), BuildingBlock: TEMPAE_clean_linker_10, # of connection points: 2
#     Edge 98, Type (0, 0), BuildingBlock: TEMPAE_clean_linker_10, # of connection points: 2
#     Edge 99, Type (0, 0), BuildingBlock: TEMPAE_clean_linker_10, # of connection points: 2
#     Edge 100, Type (0, 0), BuildingBlock: TEMPAE_clean_linker_10, # of connection points: 2
#     Edge 101, Type (0, 0), BuildingBlock: TEMPAE_clean_linker_10, # of connection points: 2
#     Edge 102, Type (0, 0), BuildingBlock: TEMPAE_clean_linker_10, # of connection points: 2
#     Edge 103, Type (0, 0), BuildingBlock: TEMPAE_clean_linker_10, # of connection points: 2
#     Edge 104, Type (0, 0), BuildingBlock: TEMPAE_clean_linker_10, # of connection points: 2
#     Edge 105, Type (0, 0), BuildingBlock: TEMPAE_clean_linker_10, # of connection points: 2
#     Edge 106, Type (0, 0), BuildingBlock: TEMPAE_clean_linker_10, # of connection points: 2
#     Edge 107, Type (0, 0), BuildingBlock: TEMPAE_clean_linker_10, # of connection points: 2
#     Edge 108, Type (0, 0), BuildingBlock: TEMPAE_clean_linker_10, # of connection points: 2
#     Edge 109, Type (0, 0), BuildingBlock: TEMPAE_clean_linker_10, # of connection points: 2
#     Edge 110, Type (0, 0), BuildingBlock: TEMPAE_clean_linker_10, # of connection points: 2
#     Edge 111, Type (0, 0), BuildingBlock: TEMPAE_clean_linker_10, # of connection points: 2
#     Edge 112, Type (0, 0), BuildingBlock: TEMPAE_clean_linker_10, # of connection points: 2
#     Edge 113, Type (0, 0), BuildingBlock: TEMPAE_clean_linker_10, # of connection points: 2
#     Edge 114, Type (0, 0), BuildingBlock: TEMPAE_clean_linker_10, # of connection points: 2
#     Edge 115, Type (0, 0), BuildingBlock: TEMPAE_clean_linker_10, # of connection points: 2
#     Edge 116, Type (0, 0), BuildingBlock: TEMPAE_clean_linker_10, # of connection points: 2
#     Edge 117, Type (0, 0), BuildingBlock: TEMPAE_clean_linker_10, # of connection points: 2
#     Edge 118, Type (0, 0), BuildingBlock: TEMPAE_clean_linker_10, # of connection points: 2
#     Edge 119, Type (0, 0), BuildingBlock: TEMPAE_clean_linker_10, # of connection points: 2
#     Edge 120, Type (0, 0), BuildingBlock: TEMPAE_clean_linker_10, # of connection points: 2
#     Edge 121, Type (0, 0), BuildingBlock: TEMPAE_clean_linker_10, # of connection points: 2
#     Edge 122, Type (0, 0), BuildingBlock: TEMPAE_clean_linker_10, # of connection points: 2
#     Edge 123, Type (0, 0), BuildingBlock: TEMPAE_clean_linker_10, # of connection points: 2
#     Edge 124, Type (0, 0), BuildingBlock: TEMPAE_clean_linker_10, # of connection points: 2
#     Edge 125, Type (0, 0), BuildingBlock: TEMPAE_clean_linker_10, # of connection points: 2
#     Edge 126, Type (0, 0), BuildingBlock: TEMPAE_clean_linker_10, # of connection points: 2
#     Edge 127, Type (0, 0), BuildingBlock: TEMPAE_clean_linker_10, # of connection points: 2
# Relax obj value: 0.151
# Max RMSD: 0.209
# Mean RMSD: 0.209
data_MOF--net-wio--node1-GEDQOX_clean_sbu_0--edge1-TEMPAE_clean_linker_10
_symmetry_space_group_name_H-M    P1
_symmetry_Int_Tables_number       1
_symmetry_cell_setting            triclinic
loop_
_symmetry_equiv_pos_as_xyz
'x, y, z'
_cell_length_a     51.191386
_cell_length_b     51.197801
_cell_length_c     66.247695
_cell_angle_alpha  89.992002
_cell_angle_beta   90.01464
_cell_angle_gamma 89.995754
loop_
_atom_site_label
_atom_site_type_symbol
_atom_site_fract_x
_atom_site_fract_y
_atom_site_fract_z
_atom_type_partial_charge
Nd0 Nd 0.1053 0.12055 0.31202 0.0
Nd1 Nd 0.13626 0.10017 0.3479 0.0
C2 C 0.0875 0.13327 0.27566 0.0
C3 C 0.09565 0.13168 0.25412 0.0
C4 C 0.08319 0.11416 0.24092 0.0
C5 C 0.0892 0.11401 0.22026 0.0
C6 C 0.10764 0.1316 0.21227 0.0
C7 C 0.12056 0.14867 0.22558 0.0
C8 C 0.11468 0.1487 0.24623 0.0
C9 C 0.11824 0.158 0.34011 0.0
C10 C 0.16763 0.11061 0.30653 0.0
C11 C 0.15654 0.09109 0.38435 0.0
C12 C 0.15187 0.07615 0.40332 0.0
C13 C 0.16035 0.08651 0.42182 0.0
C14 C 0.15814 0.07202 0.43975 0.0
C15 C 0.14737 0.04668 0.4397 0.0
C16 C 0.13831 0.0366 0.42114 0.0
C17 C 0.14054 0.05113 0.40319 0.0
C18 C 0.1222 0.06174 0.32125 0.0
C19 C 0.0708 0.1062 0.35063 0.0
O20 O 0.08127 0.11153 0.28483 0.0
O21 O 0.10033 0.14933 0.28736 0.0
O22 O 0.09575 0.15634 0.3312 0.0
O23 O 0.13364 0.1403 0.33398 0.0
O24 O 0.14433 0.10837 0.29838 0.0
O25 O 0.17037 0.11191 0.32644 0.0
O26 O 0.14128 0.11095 0.3804 0.0
O27 O 0.16248 0.07774 0.36818 0.0
O28 O 0.14357 0.06131 0.33172 0.0
O29 O 0.10797 0.08077 0.32633 0.0
O30 O 0.0935 0.10331 0.36013 0.0
O31 O 0.06971 0.11043 0.331 0.0
H32 H 0.0683 0.10097 0.24647 0.0
H33 H 0.07869 0.10077 0.21044 0.0
H34 H 0.1351 0.16223 0.22 0.0
H35 H 0.12475 0.16247 0.2559 0.0
H36 H 0.16914 0.10575 0.42237 0.0
H37 H 0.16495 0.08073 0.45368 0.0
H38 H 0.13016 0.01711 0.42033 0.0
H39 H 0.13385 0.04258 0.38916 0.0
Nd40 Nd 0.13383 0.85565 0.56248 0.0
Nd41 Nd 0.15401 0.88668 0.59804 0.0
C42 C 0.12027 0.837 0.52657 0.0
C43 C 0.12216 0.84327 0.50485 0.0
C44 C 0.14356 0.85682 0.49661 0.0
C45 C 0.14427 0.86267 0.47588 0.0
C46 C 0.12351 0.85526 0.4631 0.0
C47 C 0.10227 0.84165 0.47154 0.0
C48 C 0.10163 0.83576 0.49213 0.0
C49 C 0.09619 0.86867 0.59053 0.0
C50 C 0.1462 0.91724 0.55619 0.0
C51 C 0.16358 0.90686 0.63441 0.0
C52 C 0.17977 0.90217 0.65284 0.0
C53 C 0.16777 0.90096 0.67189 0.0
C54 C 0.18274 0.89854 0.68959 0.0
C55 C 0.21024 0.89737 0.68878 0.0
C56 C 0.22219 0.89811 0.6696 0.0
C57 C 0.2072 0.90046 0.6519 0.0
C58 C 0.19275 0.87203 0.57184 0.0
C59 C 0.14824 0.82127 0.60104 0.0
O60 O 0.14162 0.83011 0.53603 0.0
O61 O 0.10528 0.85215 0.53741 0.0
O62 O 0.09815 0.84611 0.58181 0.0
O63 O 0.11377 0.88415 0.5843 0.0
O64 O 0.14844 0.89366 0.54857 0.0
O65 O 0.14279 0.92037 0.57592 0.0
O66 O 0.14418 0.89089 0.63077 0.0
O67 O 0.17561 0.91408 0.61793 0.0
O68 O 0.1932 0.8935 0.58215 0.0
O69 O 0.17354 0.85803 0.57687 0.0
O70 O 0.15088 0.84402 0.6105 0.0
O71 O 0.14415 0.82012 0.58141 0.0
H72 H 0.15959 0.86296 0.50618 0.0
H73 H 0.16085 0.87331 0.46992 0.0
H74 H 0.08618 0.83521 0.46216 0.0
H75 H 0.08497 0.82528 0.49815 0.0
H76 H 0.14671 0.90227 0.67314 0.0
H77 H 0.17267 0.89763 0.70394 0.0
H78 H 0.24326 0.89761 0.66822 0.0
H79 H 0.21719 0.90142 0.63751 0.0
Nd80 Nd 0.39798 0.88491 0.81206 0.0
Nd81 Nd 0.36745 0.90323 0.8487 0.0
C82 C 0.4162 0.87351 0.77554 0.0
C83 C 0.41003 0.87655 0.75388 0.0
C84 C 0.38895 0.89181 0.74709 0.0
C85 C 0.38293 0.89302 0.72638 0.0
C86 C 0.39796 0.87905 0.71215 0.0
C87 C 0.41909 0.86397 0.7192 0.0
C88 C 0.42502 0.86278 0.73978 0.0
C89 C 0.38487 0.8458 0.83885 0.0
C90 C 0.33625 0.89694 0.80712 0.0
C91 C 0.34715 0.91086 0.88529 0.0
C92 C 0.35162 0.92617 0.9041 0.0
C93 C 0.34466 0.91541 0.92285 0.0
C94 C 0.34689 0.93009 0.94068 0.0
C95 C 0.35614 0.95603 0.94028 0.0
C96 C 0.36364 0.96655 0.92146 0.0
C97 C 0.36143 0.95182 0.90362 0.0
C98 C 0.3822 0.94321 0.82358 0.0
C99 C 0.43279 0.89643 0.85124 0.0
O100 O 0.42309 0.89436 0.78562 0.0
O101 O 0.40093 0.85808 0.7859 0.0
O102 O 0.40727 0.84782 0.82989 0.0
O103 O 0.36959 0.86396 0.83341 0.0
O104 O 0.35953 0.90041 0.7992 0.0
O105 O 0.33373 0.89208 0.82669 0.0
O106 O 0.36342 0.89189 0.88114 0.0
O107 O 0.34006 0.92381 0.86919 0.0
O108 O 0.36073 0.94324 0.83393 0.0
O109 O 0.39601 0.92362 0.82798 0.0
O110 O 0.41012 0.89896 0.86083 0.0
O111 O 0.43382 0.8933 0.83146 0.0
H112 H 0.37706 0.90257 0.75775 0.0
H113 H 0.36663 0.90495 0.72153 0.0
H114 H 0.43078 0.85253 0.70885 0.0
H115 H 0.44119 0.8507 0.74472 0.0
H116 H 0.33709 0.89568 0.92368 0.0
H117 H 0.34132 0.92106 0.95481 0.0
H118 H 0.37057 0.98648 0.92038 0.0
H119 H 0.36694 0.96068 0.88939 0.0
Nd120 Nd 0.36974 0.14697 0.06213 0.0
Nd121 Nd 0.35019 0.11628 0.09837 0.0
C122 C 0.38244 0.16541 0.02593 0.0
C123 C 0.37839 0.16046 1.00418 0.0
C124 C 0.36453 0.13857 0.99718 0.0
C125 C 0.36278 0.13342 0.97638 0.0
C126 C 0.37479 0.15014 0.96223 0.0
C127 C 0.38822 0.17226 0.96945 0.0
C128 C 0.38998 0.17732 0.99015 0.0
C129 C 0.40792 0.13402 0.08979 0.0
C130 C 0.35677 0.08557 0.05655 0.0
C131 C 0.34153 0.09581 0.1348 0.0
C132 C 0.32518 0.09947 0.15333 0.0
C133 C 0.33635 0.10914 0.17126 0.0
C134 C 0.32166 0.11076 0.18916 0.0
C135 C 0.29539 0.10253 0.18972 0.0
C136 C 0.28418 0.09313 0.17169 0.0
C137 C 0.29882 0.09158 0.15381 0.0
C138 C 0.31085 0.13139 0.07275 0.0
C139 C 0.35713 0.18157 0.1011 0.0
O140 O 0.36257 0.17404 0.03639 0.0
O141 O 0.39632 0.14818 0.03576 0.0
O142 O 0.40627 0.15629 0.08059 0.0
O143 O 0.39002 0.11865 0.08398 0.0
O144 O 0.35378 0.10906 0.0489 0.0
O145 O 0.36121 0.08268 0.07617 0.0
O146 O 0.36009 0.11275 0.13111 0.0
O147 O 0.32991 0.08794 0.11831 0.0
O148 O 0.31025 0.11012 0.08332 0.0
O149 O 0.33051 0.145 0.07732 0.0
O150 O 0.35437 0.1589 0.11066 0.0
O151 O 0.36062 0.18262 0.08138 0.0
H152 H 0.35542 0.12532 1.00778 0.0
H153 H 0.35209 0.11634 0.9714 0.0
H154 H 0.39809 0.18535 0.95913 0.0
H155 H 0.40091 0.19421 0.99524 0.0
H156 H 0.35666 0.11505 0.17155 0.0
H157 H 0.33113 0.11786 0.2027 0.0
H158 H 0.26394 0.087 0.17135 0.0
H159 H 0.28948 0.08387 0.14041 0.0
Nd160 Nd 0.10536 0.8825 0.21158 0.0
Nd161 Nd 0.13658 0.90313 0.17618 0.0
C162 C 0.08778 0.86932 0.24789 0.0
C163 C 0.09622 0.87072 0.26939 0.0
C164 C 0.08844 0.8916 0.28182 0.0
C165 C 0.09485 0.89192 0.3024 0.0
C166 C 0.10892 0.87117 0.31115 0.0
C167 C 0.11716 0.85057 0.29862 0.0
C168 C 0.11088 0.85033 0.27805 0.0
C169 C 0.11787 0.84538 0.18306 0.0
C170 C 0.16753 0.89201 0.21762 0.0
C171 C 0.15703 0.91316 0.13994 0.0
C172 C 0.15333 0.92968 0.12149 0.0
C173 C 0.13728 0.92152 0.1054 0.0
C174 C 0.13558 0.93627 0.08751 0.0
C175 C 0.15003 0.95953 0.0851 0.0
C176 C 0.16583 0.96774 0.10133 0.0
C177 C 0.16752 0.95303 0.11916 0.0
C178 C 0.12271 0.94136 0.20309 0.0
C179 C 0.07103 0.89773 0.17315 0.0
O180 O 0.08133 0.89108 0.2388 0.0
O181 O 0.10062 0.85341 0.23606 0.0
O182 O 0.09541 0.84717 0.192 0.0
O183 O 0.13352 0.86271 0.18944 0.0
O184 O 0.14417 0.89467 0.22553 0.0
O185 O 0.17043 0.89058 0.19773 0.0
O186 O 0.14063 0.89404 0.14338 0.0
O187 O 0.16433 0.92482 0.15656 0.0
O188 O 0.14414 0.94169 0.19272 0.0
O189 O 0.10831 0.92257 0.19778 0.0
O190 O 0.09381 0.90053 0.16375 0.0
O191 O 0.06983 0.89326 0.19275 0.0
H192 H 0.07687 0.90744 0.27574 0.0
H193 H 0.08795 0.90796 0.31162 0.0
H194 H 0.12831 0.83445 0.30477 0.0
H195 H 0.11716 0.83386 0.26901 0.0
H196 H 0.12631 0.90349 0.10646 0.0
H197 H 0.1234 0.92907 0.07536 0.0
H198 H 0.17692 0.9857 0.10032 0.0
H199 H 0.18029 0.95986 0.13108 0.0
Nd200 Nd 0.36907 0.8548 0.46251 0.0
Nd201 Nd 0.34975 0.88589 0.42652 0.0
C202 C 0.38165 0.83619 0.4987 0.0
C203 C 0.37762 0.84135 0.52042 0.0
C204 C 0.35949 0.8599 0.52737 0.0
C205 C 0.35734 0.8653 0.54812 0.0
C206 C 0.37319 0.8521 0.56226 0.0
C207 C 0.39106 0.83338 0.55508 0.0
C208 C 0.39323 0.82811 0.53444 0.0
C209 C 0.40749 0.86811 0.43516 0.0
C210 C 0.3563 0.91617 0.4686 0.0
C211 C 0.34102 0.90652 0.39012 0.0
C212 C 0.32462 0.90285 0.37157 0.0
C213 C 0.3352 0.8914 0.35405 0.0
C214 C 0.32051 0.8897 0.33614 0.0
C215 C 0.29483 0.89961 0.33512 0.0
C216 C 0.28422 0.91082 0.35274 0.0
C217 C 0.29887 0.91247 0.37064 0.0
C218 C 0.31024 0.87078 0.45193 0.0
C219 C 0.35653 0.82057 0.42337 0.0
O220 O 0.36171 0.82778 0.48822 0.0
O221 O 0.39578 0.85319 0.48885 0.0
O222 O 0.40562 0.84564 0.44404 0.0
O223 O 0.38957 0.88343 0.44101 0.0
O224 O 0.35323 0.89258 0.47604 0.0
O225 O 0.36071 0.9193 0.44899 0.0
O226 O 0.35967 0.88968 0.3938 0.0
O227 O 0.32938 0.9143 0.40663 0.0
O228 O 0.30983 0.89216 0.4415 0.0
O229 O 0.32983 0.85706 0.44734 0.0
O230 O 0.35386 0.84337 0.41397 0.0
O231 O 0.35999 0.8193 0.44309 0.0
H232 H 0.34719 0.87031 0.51677 0.0
H233 H 0.34324 0.87969 0.5531 0.0
H234 H 0.40391 0.82316 0.56539 0.0
H235 H 0.40747 0.81388 0.52939 0.0
H236 H 0.35506 0.88412 0.35407 0.0
H237 H 0.32955 0.88118 0.32292 0.0
H238 H 0.26443 0.9183 0.35278 0.0
H239 H 0.29001 0.92161 0.38369 0.0
Nd240 Nd 0.39987 0.12018 0.71259 0.0
Nd241 Nd 0.36851 0.09922 0.67716 0.0
C242 C 0.41866 0.13422 0.74837 0.0
C243 C 0.41305 0.1313 0.77013 0.0
C244 C 0.39588 0.11213 0.77752 0.0
C245 C 0.3903 0.11069 0.79827 0.0
C246 C 0.4019 0.12831 0.81197 0.0
C247 C 0.41909 0.14737 0.80434 0.0
C248 C 0.42456 0.14883 0.7837 0.0
C249 C 0.38657 0.15724 0.68421 0.0
C250 C 0.3382 0.10898 0.71904 0.0
C251 C 0.34769 0.08967 0.64096 0.0
C252 C 0.35216 0.07447 0.62206 0.0
C253 C 0.34458 0.08512 0.60342 0.0
C254 C 0.34665 0.07052 0.58553 0.0
C255 C 0.35638 0.04476 0.58575 0.0
C256 C 0.36453 0.03434 0.60446 0.0
C257 C 0.36244 0.04899 0.62236 0.0
C258 C 0.38317 0.06109 0.7039 0.0
C259 C 0.43385 0.10547 0.67382 0.0
O260 O 0.42666 0.11358 0.73854 0.0
O261 O 0.40219 0.14834 0.73798 0.0
O262 O 0.4091 0.15574 0.69306 0.0
O263 O 0.37125 0.13963 0.6906 0.0
O264 O 0.36175 0.10629 0.72667 0.0
O265 O 0.33494 0.11094 0.6992 0.0
O266 O 0.36297 0.1096 0.64463 0.0
O267 O 0.34193 0.07657 0.6573 0.0
O268 O 0.36175 0.06033 0.6935 0.0
O269 O 0.39716 0.08022 0.69865 0.0
O270 O 0.41105 0.10233 0.66452 0.0
O271 O 0.43519 0.10996 0.6934 0.0
H272 H 0.38673 0.09841 0.76727 0.0
H273 H 0.37708 0.09568 0.8036 0.0
H274 H 0.42801 0.16158 0.8143 0.0
H275 H 0.43767 0.1639 0.77829 0.0
H276 H 0.3366 0.10471 0.60272 0.0
H277 H 0.34057 0.07949 0.5715 0.0
H278 H 0.37185 0.01454 0.60541 0.0
H279 H 0.36842 0.04018 0.6365 0.0
Nd280 Nd 0.13407 0.1508 0.96161 0.0
Nd281 Nd 0.15412 0.11833 0.92662 0.0
C282 C 0.12076 0.17106 0.99706 0.0
C283 C 0.12234 0.1652 0.01885 0.0
C284 C 0.14119 0.14811 0.02684 0.0
C285 C 0.14131 0.14221 0.04756 0.0
C286 C 0.12252 0.15323 0.06061 0.0
C287 C 0.10403 0.17063 0.05243 0.0
C288 C 0.10392 0.17646 0.03182 0.0
C289 C 0.09666 0.13773 0.93344 0.0
C290 C 0.14345 0.08881 0.96875 0.0
C291 C 0.16353 0.09674 0.8907 0.0
C292 C 0.17998 0.10003 0.87218 0.0
C293 C 0.17049 0.11349 0.85514 0.0
C294 C 0.18524 0.11487 0.83726 0.0
C295 C 0.20986 0.10265 0.83581 0.0
C296 C 0.2194 0.08942 0.85295 0.0
C297 C 0.20468 0.08806 0.87079 0.0
C298 C 0.1927 0.13241 0.95314 0.0
C299 C 0.14939 0.18374 0.92243 0.0
O300 O 0.14245 0.17686 0.98766 0.0
O301 O 0.10538 0.15611 0.98638 0.0
O302 O 0.09872 0.16045 0.9419 0.0
O303 O 0.11389 0.12217 0.94006 0.0
O304 O 0.14635 0.11241 0.97622 0.0
O305 O 0.14149 0.08538 0.94892 0.0
O306 O 0.14456 0.11336 0.89396 0.0
O307 O 0.17524 0.08974 0.90739 0.0
O308 O 0.19281 0.11082 0.94297 0.0
O309 O 0.174 0.14689 0.94774 0.0
O310 O 0.15193 0.16069 0.91339 0.0
O311 O 0.14508 0.18551 0.94201 0.0
H312 H 0.15559 0.13915 0.01706 0.0
H313 H 0.15576 0.12864 0.05327 0.0
H314 H 0.08964 0.17995 0.062 0.0
H315 H 0.08927 0.18974 0.02597 0.0
H316 H 0.15142 0.12264 0.85549 0.0
H317 H 0.17703 0.12501 0.82439 0.0
H318 H 0.23839 0.08011 0.85264 0.0
H319 H 0.21262 0.0773 0.88347 0.0
Nd320 Nd 0.86684 0.90249 0.6762 0.0
Nd321 Nd 0.8984 0.8833 0.71201 0.0
C322 C 0.8464 0.91184 0.63985 0.0
C323 C 0.84995 0.92867 0.62155 0.0
C324 C 0.8622 0.91887 0.60409 0.0
C325 C 0.86377 0.93396 0.58638 0.0
C326 C 0.85294 0.95926 0.58552 0.0
C327 C 0.84093 0.96911 0.60308 0.0
C328 C 0.8394 0.95407 0.62077 0.0
C329 C 0.88017 0.94151 0.70259 0.0
C330 C 0.93241 0.89753 0.67317 0.0
C331 C 0.91656 0.87257 0.74864 0.0
C332 C 0.90818 0.87483 0.7701 0.0
C333 C 0.91913 0.89407 0.78266 0.0
C334 C 0.91291 0.89509 0.80326 0.0
C335 C 0.89569 0.87675 0.81188 0.0
C336 C 0.88426 0.85791 0.79918 0.0
C337 C 0.89042 0.85695 0.77859 0.0
C338 C 0.88634 0.84513 0.68416 0.0
C339 C 0.83586 0.89129 0.71757 0.0
O340 O 0.86342 0.89329 0.64334 0.0
O341 O 0.83842 0.92304 0.65647 0.0
O342 O 0.85869 0.94128 0.69229 0.0
O343 O 0.89479 0.9228 0.69751 0.0
O344 O 0.90957 0.89984 0.66375 0.0
O345 O 0.93371 0.89369 0.69283 0.0
O346 O 0.92209 0.89413 0.73894 0.0
O347 O 0.90436 0.85558 0.7373 0.0
O348 O 0.90872 0.84733 0.69319 0.0
O349 O 0.8705 0.86247 0.69024 0.0
O350 O 0.85908 0.8945 0.72564 0.0
O351 O 0.83315 0.88955 0.69769 0.0
H352 H 0.87021 0.89929 0.60398 0.0
H353 H 0.87293 0.9255 0.57318 0.0
H354 H 0.83272 0.98861 0.60322 0.0
H355 H 0.82962 0.96232 0.63378 0.0
H356 H 0.93293 0.90809 0.77664 0.0
H357 H 0.92182 0.91011 0.81248 0.0
H358 H 0.87119 0.84326 0.80526 0.0
H359 H 0.88165 0.84176 0.76945 0.0
Nd360 Nd 0.84993 0.1183 0.42707 0.0
Nd361 Nd 0.87116 0.14976 0.46232 0.0
C362 C 0.84001 0.09753 0.39093 0.0
C363 C 0.82374 0.10157 0.37246 0.0
C364 C 0.83562 0.10157 0.35332 0.0
C365 C 0.82056 0.1034 0.33562 0.0
C366 C 0.79311 0.10511 0.33654 0.0
C367 C 0.78128 0.10552 0.35576 0.0
C368 C 0.79636 0.10379 0.37346 0.0
C369 C 0.81192 0.13268 0.45393 0.0
C370 C 0.85589 0.18366 0.42356 0.0
C371 C 0.8855 0.16875 0.49797 0.0
C372 C 0.88245 0.16335 0.51975 0.0
C373 C 0.86463 0.1447 0.52702 0.0
C374 C 0.8633 0.13911 0.54778 0.0
C375 C 0.87963 0.15224 0.56161 0.0
C376 C 0.89721 0.17104 0.55412 0.0
C377 C 0.8986 0.17647 0.53346 0.0
C378 C 0.90789 0.13659 0.43361 0.0
C379 C 0.86022 0.08804 0.46891 0.0
O380 O 0.85932 0.11372 0.39428 0.0
O381 O 0.8281 0.09064 0.40755 0.0
O382 O 0.81105 0.11145 0.44333 0.0
O383 O 0.831 0.1468 0.44876 0.0
O384 O 0.85266 0.16082 0.41434 0.0
O385 O 0.86066 0.18504 0.44311 0.0
O386 O 0.86497 0.17695 0.48809 0.0
O387 O 0.89935 0.15196 0.48769 0.0
O388 O 0.90642 0.15911 0.44246 0.0
O389 O 0.89051 0.1212 0.44024 0.0
O390 O 0.85764 0.11157 0.47657 0.0
O391 O 0.86198 0.0848 0.44906 0.0
H392 H 0.85663 0.09967 0.35203 0.0
H393 H 0.83045 0.10277 0.32118 0.0
H394 H 0.76028 0.10725 0.35718 0.0
H395 H 0.78649 0.10392 0.38791 0.0
H396 H 0.85193 0.13435 0.51667 0.0
H397 H 0.84942 0.12465 0.553 0.0
H398 H 0.91039 0.18122 0.5642 0.0
H399 H 0.91261 0.19078 0.52815 0.0
Nd400 Nd 0.63418 0.09715 0.17764 0.0
Nd401 Nd 0.60265 0.12441 0.2147 0.0
C402 C 0.66053 0.08292 0.14485 0.0
C403 C 0.65657 0.06759 0.1258 0.0
C404 C 0.65177 0.08038 0.10735 0.0
C405 C 0.64944 0.06623 0.08925 0.0
C406 C 0.65197 0.0388 0.08898 0.0
C407 C 0.65663 0.02603 0.10749 0.0
C408 C 0.65895 0.04018 0.12558 0.0
C409 C 0.61114 0.06439 0.20528 0.0
C410 C 0.5703 0.10624 0.17423 0.0
C411 C 0.57915 0.13372 0.24951 0.0
C412 C 0.58373 0.13009 0.27129 0.0
C413 C 0.60687 0.1187 0.27856 0.0
C414 C 0.61208 0.11817 0.29935 0.0
C415 C 0.59447 0.1295 0.31312 0.0
C416 C 0.57113 0.14039 0.30573 0.0
C417 C 0.5658 0.14061 0.28503 0.0
C418 C 0.61613 0.16134 0.1859 0.0
C419 C 0.66626 0.11554 0.2192 0.0
O420 O 0.64854 0.10547 0.14655 0.0
O421 O 0.66126 0.07002 0.16194 0.0
O422 O 0.61321 0.05876 0.18619 0.0
O423 O 0.62218 0.08582 0.209 0.0
O424 O 0.59273 0.10277 0.16451 0.0
O425 O 0.5692 0.11127 0.19386 0.0
O426 O 0.57423 0.11291 0.23855 0.0
O427 O 0.59483 0.15028 0.24059 0.0
O428 O 0.60247 0.16647 0.20188 0.0
O429 O 0.62127 0.1373 0.18572 0.0
O430 O 0.64367 0.1211 0.22785 0.0
O431 O 0.66815 0.10787 0.19998 0.0
H432 H 0.65003 0.10146 0.10685 0.0
H433 H 0.64555 0.07685 0.07544 0.0
H434 H 0.65915 0.00504 0.10799 0.0
H435 H 0.66299 0.02956 0.13937 0.0
H436 H 0.62113 0.11077 0.26815 0.0
H437 H 0.63028 0.10977 0.30459 0.0
H438 H 0.55708 0.14902 0.31598 0.0
H439 H 0.54797 0.1497 0.2797 0.0
Nd440 Nd 0.65333 0.88695 0.92619 0.0
Nd441 Nd 0.63444 0.85764 0.96319 0.0
C442 C 0.66182 0.90631 0.88936 0.0
C443 C 0.67835 0.90236 0.87095 0.0
C444 C 0.66749 0.89183 0.8532 0.0
C445 C 0.68228 0.88996 0.83536 0.0
C446 C 0.70835 0.89879 0.83468 0.0
C447 C 0.71927 0.90904 0.85253 0.0
C448 C 0.70452 0.91084 0.87035 0.0
C449 C 0.69307 0.87236 0.95161 0.0
C450 C 0.64591 0.82166 0.92482 0.0
C451 C 0.62249 0.84031 0.99983 0.0
C452 C 0.62592 0.84642 0.02145 0.0
C453 C 0.6427 0.86633 0.02819 0.0
C454 C 0.64446 0.87223 0.04889 0.0
C455 C 0.62953 0.85822 0.06316 0.0
C456 C 0.61287 0.83829 0.05615 0.0
C457 C 0.61114 0.83249 0.03559 0.0
C458 C 0.59579 0.86981 0.93563 0.0
C459 C 0.64748 0.91903 0.96739 0.0
O460 O 0.64355 0.88918 0.89334 0.0
O461 O 0.67321 0.91495 0.90572 0.0
O462 O 0.69349 0.89344 0.94083 0.0
O463 O 0.67328 0.85874 0.94746 0.0
O464 O 0.64837 0.844 0.91476 0.0
O465 O 0.6431 0.82129 0.94463 0.0
O466 O 0.64298 0.83243 0.98974 0.0
O467 O 0.60768 0.85618 0.98946 0.0
O468 O 0.59765 0.84778 0.94515 0.0
O469 O 0.61375 0.88534 0.94106 0.0
O470 O 0.65075 0.89592 0.97558 0.0
O471 O 0.64243 0.9212 0.94781 0.0
H472 H 0.64732 0.88544 0.85298 0.0
H473 H 0.67303 0.88219 0.82194 0.0
H474 H 0.73936 0.91566 0.85279 0.0
H475 H 0.71362 0.91921 0.88362 0.0
H476 H 0.65426 0.87739 0.01749 0.0
H477 H 0.65758 0.8876 0.05372 0.0
H478 H 0.60067 0.82745 0.06655 0.0
H479 H 0.59791 0.81723 0.03069 0.0
Nd480 Nd 0.86855 0.0998 0.84766 0.0
Nd481 Nd 0.89911 0.11995 0.81162 0.0
C482 C 0.84786 0.09125 0.88405 0.0
C483 C 0.85198 0.07588 0.90289 0.0
C484 C 0.84276 0.08571 0.92135 0.0
C485 C 0.84461 0.07086 0.93913 0.0
C486 C 0.85576 0.04568 0.93898 0.0
C487 C 0.86552 0.03612 0.92047 0.0
C488 C 0.86365 0.05101 0.90266 0.0
C489 C 0.88342 0.06076 0.82178 0.0
C490 C 0.93378 0.10667 0.85045 0.0
C491 C 0.91747 0.13371 0.77562 0.0
C492 C 0.91296 0.12963 0.75383 0.0
C493 C 0.89279 0.11353 0.74661 0.0
C494 C 0.88784 0.11172 0.72578 0.0
C495 C 0.90308 0.12589 0.71182 0.0
C496 C 0.92351 0.1416 0.71926 0.0
C497 C 0.92835 0.14343 0.73999 0.0
C498 C 0.88584 0.15771 0.83954 0.0
C499 C 0.83787 0.10631 0.8058 0.0
O500 O 0.86397 0.11046 0.88021 0.0
O501 O 0.84134 0.07835 0.8678 0.0
O502 O 0.86233 0.05998 0.83256 0.0
O503 O 0.89714 0.08041 0.82629 0.0
O504 O 0.91113 0.10369 0.85998 0.0
O505 O 0.93481 0.11055 0.83077 0.0
O506 O 0.92684 0.11418 0.78609 0.0
O507 O 0.89951 0.14674 0.78536 0.0
O508 O 0.90826 0.15608 0.83058 0.0
O509 O 0.87057 0.13987 0.83347 0.0
O510 O 0.86142 0.10377 0.79815 0.0
O511 O 0.83485 0.11044 0.82544 0.0
H512 H 0.8337 0.10482 0.92198 0.0
H513 H 0.83725 0.07918 0.95304 0.0
H514 H 0.87399 0.01678 0.91957 0.0
H515 H 0.87089 0.04288 0.88864 0.0
H516 H 0.88073 0.10265 0.75707 0.0
H517 H 0.87211 0.09925 0.72061 0.0
H518 H 0.93538 0.15313 0.70908 0.0
H519 H 0.94387 0.15612 0.74525 0.0
Nd520 Nd 0.65381 0.1165 0.599 0.0
Nd521 Nd 0.63494 0.14853 0.56324 0.0
C522 C 0.662 0.09564 0.63534 0.0
C523 C 0.67723 0.10017 0.65417 0.0
C524 C 0.667 0.09202 0.67279 0.0
C525 C 0.68174 0.09427 0.69059 0.0
C526 C 0.70722 0.10472 0.69026 0.0
C527 C 0.71718 0.11343 0.67157 0.0
C528 C 0.70239 0.11119 0.65377 0.0
C529 C 0.69312 0.13042 0.57315 0.0
C530 C 0.64879 0.18199 0.60249 0.0
C531 C 0.6241 0.16835 0.52716 0.0
C532 C 0.62432 0.16047 0.50561 0.0
C533 C 0.63868 0.17518 0.49158 0.0
C534 C 0.6377 0.16923 0.47095 0.0
C535 C 0.62228 0.14838 0.46383 0.0
C536 C 0.6084 0.1333 0.47801 0.0
C537 C 0.60941 0.13925 0.49862 0.0
C538 C 0.59665 0.1356 0.59069 0.0
C539 C 0.64322 0.08577 0.55718 0.0
O540 O 0.6426 0.11149 0.63139 0.0
O541 O 0.67513 0.08926 0.61916 0.0
O542 O 0.69284 0.10877 0.58326 0.0
O543 O 0.67423 0.1449 0.57813 0.0
O544 O 0.6509 0.15907 0.6118 0.0
O545 O 0.64538 0.18346 0.58279 0.0
O546 O 0.64668 0.17133 0.53607 0.0
O547 O 0.60667 0.15749 0.53889 0.0
O548 O 0.59881 0.15825 0.58208 0.0
O549 O 0.61416 0.12006 0.58449 0.0
O550 O 0.64539 0.10919 0.54917 0.0
O551 O 0.642 0.08282 0.57708 0.0
H552 H 0.64765 0.08349 0.67354 0.0
H553 H 0.67312 0.08774 0.70464 0.0
H554 H 0.73676 0.12131 0.67055 0.0
H555 H 0.71083 0.11763 0.63962 0.0
H556 H 0.65026 0.19169 0.49655 0.0
H557 H 0.64839 0.18153 0.46054 0.0
H558 H 0.59658 0.11693 0.47317 0.0
H559 H 0.59817 0.12741 0.50902 0.0
Nd560 Nd 0.63633 0.90363 0.34853 0.0
Nd561 Nd 0.60404 0.88527 0.31238 0.0
C562 C 0.65749 0.91266 0.3847 0.0
C563 C 0.65383 0.92862 0.40348 0.0
C564 C 0.64173 0.91801 0.42073 0.0
C565 C 0.64017 0.93234 0.43883 0.0
C566 C 0.65087 0.95766 0.44031 0.0
C567 C 0.66269 0.96831 0.42295 0.0
C568 C 0.66422 0.95403 0.40489 0.0
C569 C 0.62174 0.9426 0.32245 0.0
C570 C 0.57085 0.89783 0.35213 0.0
C571 C 0.58403 0.87651 0.27604 0.0
C572 C 0.59073 0.87951 0.25447 0.0
C573 C 0.61102 0.89596 0.24792 0.0
C574 C 0.61724 0.89772 0.22729 0.0
C575 C 0.60313 0.88318 0.21286 0.0
C576 C 0.58284 0.86681 0.21964 0.0
C577 C 0.57675 0.86502 0.24016 0.0
C578 C 0.61726 0.84637 0.33932 0.0
C579 C 0.66644 0.89563 0.30652 0.0
O580 O 0.64134 0.89336 0.38111 0.0
O581 O 0.66429 0.9249 0.36819 0.0
O582 O 0.6437 0.94252 0.33216 0.0
O583 O 0.60766 0.92379 0.32798 0.0
O584 O 0.59382 0.9002 0.36136 0.0
O585 O 0.56921 0.89452 0.33242 0.0
O586 O 0.57965 0.89783 0.2864 0.0
O587 O 0.59733 0.85909 0.28618 0.0
O588 O 0.59482 0.84822 0.33029 0.0
O589 O 0.63266 0.86424 0.33351 0.0
O590 O 0.64293 0.89823 0.29878 0.0
O591 O 0.66956 0.89188 0.32621 0.0
H592 H 0.63384 0.89839 0.42037 0.0
H593 H 0.63113 0.92327 0.45184 0.0
H594 H 0.67078 0.98785 0.42325 0.0
H595 H 0.6739 0.96289 0.39207 0.0
H596 H 0.62207 0.90736 0.25873 0.0
H597 H 0.63289 0.91061 0.22264 0.0
H598 H 0.57189 0.85492 0.20909 0.0
H599 H 0.56115 0.85208 0.24489 0.0
Nd600 Nd 0.84927 0.88594 0.09775 0.0
Nd601 Nd 0.87 0.85492 0.06241 0.0
C602 C 0.83983 0.90661 0.134 0.0
C603 C 0.82395 0.90219 0.15258 0.0
C604 C 0.83534 0.90597 0.17166 0.0
C605 C 0.82039 0.90384 0.18937 0.0
C606 C 0.79351 0.8979 0.18855 0.0
C607 C 0.78226 0.89361 0.16938 0.0
C608 C 0.79725 0.89571 0.15166 0.0
C609 C 0.81066 0.87088 0.07161 0.0
C610 C 0.85554 0.82061 0.10106 0.0
C611 C 0.8845 0.83615 0.02675 0.0
C612 C 0.88143 0.84107 1.00492 0.0
C613 C 0.8614 0.85696 0.99718 0.0
C614 C 0.85977 0.86184 0.97633 0.0
C615 C 0.8781 0.85084 0.96289 0.0
C616 C 0.89807 0.83499 0.97088 0.0
C617 C 0.89967 0.83019 0.99161 0.0
C618 C 0.90726 0.8684 0.0907 0.0
C619 C 0.85654 0.91606 0.05561 0.0
O620 O 0.85929 0.8907 0.13041 0.0
O621 O 0.82744 0.91328 0.11753 0.0
O622 O 0.80987 0.89222 0.08208 0.0
O623 O 0.8301 0.85708 0.07649 0.0
O624 O 0.85248 0.84338 0.1104 0.0
O625 O 0.85994 0.81939 0.08147 0.0
O626 O 0.86417 0.82759 0.0367 0.0
O627 O 0.89799 0.85337 0.03689 0.0
O628 O 0.90555 0.84579 0.08203 0.0
O629 O 0.88969 0.88371 0.08422 0.0
O630 O 0.85437 0.89235 0.04821 0.0
O631 O 0.86007 0.91945 0.07531 0.0
H632 H 0.85584 0.91098 0.17286 0.0
H633 H 0.82998 0.90686 0.20375 0.0
H634 H 0.76163 0.8893 0.16797 0.0
H635 H 0.78781 0.89271 0.13721 0.0
H636 H 0.84713 0.86562 1.00723 0.0
H637 H 0.84405 0.87401 0.97072 0.0
H638 H 0.91283 0.82661 0.96113 0.0
H639 H 0.91542 0.81809 0.99729 0.0
Nd640 Nd 0.60502 0.6244 0.8119 0.0
Nd641 Nd 0.63529 0.59804 0.84643 0.0
C642 C 0.58548 0.64056 0.77703 0.0
C643 C 0.59196 0.63967 0.75531 0.0
C644 C 0.61169 0.62326 0.74777 0.0
C645 C 0.61779 0.62332 0.72709 0.0
C646 C 0.6044 0.63995 0.71364 0.0
C647 C 0.58461 0.65622 0.72138 0.0
C648 C 0.5785 0.65606 0.74196 0.0
C649 C 0.615 0.65675 0.84427 0.0
C650 C 0.66795 0.61382 0.80522 0.0
C651 C 0.66206 0.58348 0.87903 0.0
C652 C 0.659 0.56781 0.89801 0.0
C653 C 0.65009 0.5795 0.91599 0.0
C654 C 0.64869 0.56519 0.93408 0.0
C655 C 0.65634 0.53875 0.93484 0.0
C656 C 0.66516 0.52706 0.91681 0.0
C657 C 0.66654 0.54137 0.89872 0.0
C658 C 0.61083 0.56429 0.81997 0.0
C659 C 0.57178 0.60483 0.85003 0.0
O660 O 0.57872 0.61852 0.78564 0.0
O661 O 0.60075 0.65489 0.78837 0.0
O662 O 0.5933 0.65641 0.83418 0.0
O663 O 0.63112 0.6405 0.83699 0.0
O664 O 0.64542 0.62156 0.79771 0.0
O665 O 0.66992 0.60493 0.82403 0.0
O666 O 0.64933 0.60563 0.87766 0.0
O667 O 0.66293 0.57095 0.86179 0.0
O668 O 0.6125 0.5599 0.83924 0.0
O669 O 0.62275 0.58493 0.81562 0.0
O670 O 0.59423 0.605 0.86 0.0
O671 O 0.57122 0.6069 0.83015 0.0
H672 H 0.62244 0.61054 0.75786 0.0
H673 H 0.63326 0.61069 0.7217 0.0
H674 H 0.57362 0.66896 0.71147 0.0
H675 H 0.56322 0.66886 0.74747 0.0
H676 H 0.64449 0.5999 0.91619 0.0
H677 H 0.64213 0.57508 0.9476 0.0
H678 H 0.67088 0.5067 0.9166 0.0
H679 H 0.67374 0.53169 0.88529 0.0
Nd680 Nd 0.63367 0.354 0.06027 0.0
Nd681 Nd 0.65499 0.38406 0.09622 0.0
C682 C 0.61958 0.33607 0.02428 0.0
C683 C 0.62343 0.34169 1.00265 0.0
C684 C 0.64018 0.36167 0.996 0.0
C685 C 0.64212 0.36752 0.97533 0.0
C686 C 0.62752 0.35332 0.961 0.0
C687 C 0.61109 0.33315 0.96787 0.0
C688 C 0.60907 0.32745 0.98844 0.0
C689 C 0.59674 0.36691 0.08888 0.0
C690 C 0.64604 0.41537 0.05452 0.0
C691 C 0.6643 0.40399 0.13277 0.0
C692 C 0.67922 0.39934 0.15178 0.0
C693 C 0.66801 0.40614 0.17041 0.0
C694 C 0.68234 0.40408 0.18844 0.0
C695 C 0.70841 0.39516 0.18839 0.0
C696 C 0.71939 0.38777 0.16969 0.0
C697 C 0.70502 0.38985 0.15164 0.0
C698 C 0.69302 0.36995 0.06934 0.0
C699 C 0.64818 0.3186 0.09823 0.0
O700 O 0.63957 0.32699 0.03437 0.0
O701 O 0.60609 0.35323 0.0345 0.0
O702 O 0.59793 0.34469 0.07959 0.0
O703 O 0.61454 0.38219 0.08276 0.0
O704 O 0.64829 0.39199 0.04659 0.0
O705 O 0.64416 0.41831 0.0744 0.0
O706 O 0.64439 0.3888 0.12879 0.0
O707 O 0.67758 0.41004 0.11658 0.0
O708 O 0.69405 0.39092 0.08025 0.0
O709 O 0.67373 0.35593 0.07421 0.0
O710 O 0.65207 0.34098 0.10798 0.0
O711 O 0.64323 0.31802 0.07872 0.0
H712 H 0.65151 0.37286 1.00675 0.0
H713 H 0.65508 0.38307 0.97057 0.0
H714 H 0.59922 0.3221 0.95737 0.0
H715 H 0.59592 0.31209 0.99329 0.0
H716 H 0.64819 0.41352 0.17099 0.0
H717 H 0.67295 0.40956 0.20245 0.0
H718 H 0.73943 0.38109 0.16887 0.0
H719 H 0.71427 0.3845 0.13754 0.0
Nd720 Nd 0.89812 0.38405 0.31175 0.0
Nd721 Nd 0.86713 0.40334 0.34776 0.0
C722 C 0.91629 0.37177 0.27544 0.0
C723 C 0.90898 0.373 0.25376 0.0
C724 C 0.90569 0.39683 0.24346 0.0
C725 C 0.90043 0.39712 0.22264 0.0
C726 C 0.89831 0.37359 0.21168 0.0
C727 C 0.90081 0.34987 0.22226 0.0
C728 C 0.90622 0.3496 0.24294 0.0
C729 C 0.88501 0.34582 0.33925 0.0
C730 C 0.83626 0.39597 0.30593 0.0
C731 C 0.847 0.41192 0.38429 0.0
C732 C 0.85194 0.42728 0.40304 0.0
C733 C 0.84701 0.41594 0.42197 0.0
C734 C 0.8496 0.43055 0.43981 0.0
C735 C 0.85719 0.45703 0.43925 0.0
C736 C 0.86269 0.46817 0.42023 0.0
C737 C 0.86011 0.45351 0.40238 0.0
C738 C 0.88177 0.44257 0.32201 0.0
C739 C 0.93263 0.3973 0.35053 0.0
O740 O 0.92221 0.3935 0.28478 0.0
O741 O 0.90294 0.35567 0.28674 0.0
O742 O 0.90756 0.34778 0.33048 0.0
O743 O 0.86961 0.36361 0.33329 0.0
O744 O 0.85976 0.39841 0.29819 0.0
O745 O 0.83331 0.39234 0.32566 0.0
O746 O 0.86263 0.39238 0.38026 0.0
O747 O 0.84027 0.42486 0.3681 0.0
O748 O 0.86021 0.44273 0.33224 0.0
O749 O 0.89579 0.4233 0.32686 0.0
O750 O 0.90989 0.39974 0.36005 0.0
O751 O 0.93374 0.39377 0.33082 0.0
H752 H 0.90757 0.41522 0.25138 0.0
H753 H 0.89876 0.41578 0.21507 0.0
H754 H 0.89869 0.33135 0.21453 0.0
H755 H 0.90855 0.33096 0.25047 0.0
H756 H 0.84071 0.39577 0.42295 0.0
H757 H 0.8456 0.42105 0.45408 0.0
H758 H 0.86828 0.4885 0.41903 0.0
H759 H 0.86406 0.46286 0.38804 0.0
Nd760 Nd 0.86848 0.64725 0.56206 0.0
Nd761 Nd 0.85092 0.61576 0.59824 0.0
C762 C 0.878 0.66508 0.52521 0.0
C763 C 0.8741 0.65673 0.50394 0.0
C764 C 0.85883 0.67203 0.4909 0.0
C765 C 0.85696 0.66585 0.47035 0.0
C766 C 0.87051 0.64428 0.46228 0.0
C767 C 0.88491 0.62835 0.47557 0.0
C768 C 0.88666 0.63446 0.49613 0.0
C769 C 0.90805 0.6343 0.58846 0.0
C770 C 0.8577 0.58536 0.55634 0.0
C771 C 0.84333 0.59479 0.63459 0.0
C772 C 0.8269 0.59814 0.65306 0.0
C773 C 0.83866 0.60415 0.67168 0.0
C774 C 0.82373 0.60566 0.68945 0.0
C775 C 0.7966 0.60098 0.68913 0.0
C776 C 0.78483 0.59526 0.67042 0.0
C777 C 0.79973 0.59386 0.65266 0.0
C778 C 0.81047 0.63056 0.57351 0.0
C779 C 0.85719 0.6812 0.60146 0.0
O780 O 0.85728 0.67166 0.53557 0.0
O781 O 0.895 0.65203 0.53596 0.0
O782 O 0.90569 0.65679 0.57964 0.0
O783 O 0.8901 0.61879 0.58296 0.0
O784 O 0.85389 0.60878 0.54883 0.0
O785 O 0.86251 0.58249 0.5759 0.0
O786 O 0.86135 0.61229 0.63089 0.0
O787 O 0.83183 0.58662 0.61814 0.0
O788 O 0.81085 0.60885 0.58352 0.0
O789 O 0.82988 0.64451 0.57806 0.0
O790 O 0.85519 0.65831 0.61084 0.0
O791 O 0.85976 0.68261 0.58167 0.0
H792 H 0.84877 0.68918 0.49652 0.0
H793 H 0.84521 0.67825 0.46071 0.0
H794 H 0.89577 0.6117 0.46998 0.0
H795 H 0.89847 0.6221 0.50576 0.0
H796 H 0.85955 0.60729 0.67257 0.0
H797 H 0.83359 0.60988 0.70354 0.0
H798 H 0.76397 0.59197 0.66943 0.0
H799 H 0.78991 0.58916 0.63864 0.0
Nd800 Nd 0.60489 0.38414 0.71208 0.0
Nd801 Nd 0.63714 0.40371 0.67651 0.0
C802 C 0.58437 0.37423 0.74804 0.0
C803 C 0.59072 0.37668 0.76969 0.0
C804 C 0.60986 0.39412 0.77676 0.0
C805 C 0.61571 0.39546 0.79747 0.0
C806 C 0.60237 0.3795 0.81142 0.0
C807 C 0.58326 0.36213 0.80412 0.0
C808 C 0.57754 0.36076 0.78353 0.0
C809 C 0.61825 0.34591 0.68467 0.0
C810 C 0.66733 0.39473 0.71836 0.0
C811 C 0.65854 0.41372 0.64059 0.0
C812 C 0.65383 0.42857 0.62157 0.0
C813 C 0.66375 0.419 0.60324 0.0
C814 C 0.66158 0.43363 0.58536 0.0
C815 C 0.64942 0.45835 0.58529 0.0
C816 C 0.63892 0.4676 0.60366 0.0
C817 C 0.6411 0.45292 0.62154 0.0
C818 C 0.62258 0.44169 0.70353 0.0
C819 C 0.57182 0.39779 0.67252 0.0
O820 O 0.58004 0.39581 0.738 0.0
O821 O 0.59794 0.35717 0.73776 0.0
O822 O 0.59573 0.34769 0.69354 0.0
O823 O 0.63365 0.3637 0.6907 0.0
O824 O 0.64375 0.39647 0.72614 0.0
O825 O 0.67056 0.39196 0.69859 0.0
O826 O 0.64415 0.3931 0.64418 0.0
O827 O 0.66315 0.42729 0.65691 0.0
O828 O 0.6447 0.44175 0.69402 0.0
O829 O 0.6084 0.42325 0.69739 0.0
O830 O 0.59479 0.40051 0.6634 0.0
O831 O 0.57014 0.39393 0.69216 0.0
H832 H 0.62028 0.40662 0.76631 0.0
H833 H 0.63044 0.40914 0.80256 0.0
H834 H 0.57296 0.34919 0.81431 0.0
H835 H 0.56284 0.34706 0.77836 0.0
H836 H 0.67366 0.40031 0.6028 0.0
H837 H 0.66953 0.42553 0.57158 0.0
H838 H 0.62967 0.48659 0.60439 0.0
H839 H 0.6333 0.46088 0.63544 0.0
Nd840 Nd 0.87177 0.35536 0.96059 0.0
Nd841 Nd 0.85259 0.38726 0.92511 0.0
C842 C 0.88355 0.33697 0.99691 0.0
C843 C 0.88208 0.3452 0.01837 0.0
C844 C 0.85824 0.35144 0.0278 0.0
C845 C 0.85757 0.35821 0.04833 0.0
C846 C 0.88074 0.35912 0.05979 0.0
C847 C 0.90454 0.35332 0.05017 0.0
C848 C 0.90516 0.34637 0.02977 0.0
C849 C 0.90993 0.36783 0.93287 0.0
C850 C 0.86285 0.41755 0.96698 0.0
C851 C 0.84374 0.40795 0.8888 0.0
C852 C 0.82796 0.4034 0.87022 0.0
C853 C 0.83846 0.40976 0.85126 0.0
C854 C 0.82338 0.40742 0.83363 0.0
C855 C 0.79728 0.39868 0.83444 0.0
C856 C 0.787 0.3918 0.85349 0.0
C857 C 0.80213 0.39412 0.87112 0.0
C858 C 0.81352 0.37353 0.95126 0.0
C859 C 0.85716 0.32162 0.92181 0.0
O860 O 0.86177 0.33145 0.9875 0.0
O861 O 0.90015 0.34957 0.98552 0.0
O862 O 0.90758 0.34525 0.94155 0.0
O863 O 0.89259 0.38359 0.93906 0.0
O864 O 0.85963 0.3941 0.97461 0.0
O865 O 0.86489 0.42073 0.94714 0.0
O866 O 0.86308 0.39195 0.89254 0.0
O867 O 0.83116 0.41467 0.90515 0.0
O868 O 0.81384 0.39524 0.94124 0.0
O869 O 0.83222 0.35894 0.94606 0.0
O870 O 0.85495 0.34453 0.91248 0.0
O871 O 0.86105 0.32019 0.94145 0.0
H872 H 0.8401 0.35094 0.01938 0.0
H873 H 0.83895 0.36276 0.05524 0.0
H874 H 0.92269 0.35347 0.05858 0.0
H875 H 0.92378 0.34158 0.02292 0.0
H876 H 0.85832 0.41693 0.8501 0.0
H877 H 0.83224 0.4125 0.81932 0.0
H878 H 0.76696 0.38528 0.85489 0.0
H879 H 0.79344 0.38907 0.88551 0.0
Nd880 Nd 0.89806 0.62056 0.21278 0.0
Nd881 Nd 0.86842 0.59964 0.17669 0.0
C882 C 0.91578 0.63458 0.24885 0.0
C883 C 0.91076 0.63006 0.27048 0.0
C884 C 0.89156 0.61245 0.27713 0.0
C885 C 0.88607 0.60997 0.29781 0.0
C886 C 0.89985 0.62495 0.31215 0.0
C887 C 0.91933 0.64221 0.30529 0.0
C888 C 0.92467 0.64474 0.2847 0.0
C889 C 0.88474 0.65795 0.18462 0.0
C890 C 0.83717 0.60606 0.21844 0.0
C891 C 0.84852 0.59004 0.14017 0.0
C892 C 0.85244 0.57367 0.12163 0.0
C893 C 0.86597 0.58347 0.10474 0.0
C894 C 0.86775 0.56891 0.08677 0.0
C895 C 0.85585 0.54416 0.08505 0.0
C896 C 0.84257 0.5343 0.10206 0.0
C897 C 0.84082 0.54882 0.12 0.0
C898 C 0.88377 0.56107 0.20283 0.0
C899 C 0.9337 0.60759 0.17459 0.0
O900 O 0.92561 0.61524 0.23843 0.0
O901 O 0.89779 0.64743 0.23898 0.0
O902 O 0.90697 0.65676 0.19389 0.0
O903 O 0.86961 0.6399 0.19051 0.0
O904 O 0.86068 0.60372 0.22615 0.0
O905 O 0.8343 0.61008 0.19874 0.0
O906 O 0.86499 0.60902 0.14386 0.0
O907 O 0.84084 0.57833 0.15667 0.0
O908 O 0.86271 0.55987 0.19204 0.0
O909 O 0.89715 0.58088 0.19822 0.0
O910 O 0.91133 0.60374 0.16481 0.0
O911 O 0.93425 0.61198 0.19419 0.0
H912 H 0.88068 0.60087 0.26635 0.0
H913 H 0.87111 0.59635 0.30258 0.0
H914 H 0.93003 0.65435 0.31583 0.0
H915 H 0.93943 0.65855 0.27985 0.0
H916 H 0.87483 0.60267 0.10525 0.0
H917 H 0.87792 0.57739 0.07402 0.0
H918 H 0.83349 0.51521 0.10157 0.0
H919 H 0.83001 0.54063 0.13254 0.0
Nd920 Nd 0.63321 0.65005 0.46244 0.0
Nd921 Nd 0.65443 0.61902 0.4271 0.0
C922 C 0.61823 0.66915 0.49789 0.0
C923 C 0.62071 0.66458 0.51981 0.0
C924 C 0.63973 0.64782 0.52797 0.0
C925 C 0.64042 0.64291 0.54885 0.0
C926 C 0.62197 0.65456 0.56186 0.0
C927 C 0.60335 0.67168 0.55351 0.0
C928 C 0.60273 0.67657 0.53276 0.0
C929 C 0.59623 0.63625 0.43409 0.0
C930 C 0.64692 0.58882 0.46924 0.0
C931 C 0.66397 0.5981 0.39093 0.0
C932 C 0.6791 0.60252 0.37199 0.0
C933 C 0.66827 0.59513 0.35336 0.0
C934 C 0.6828 0.59712 0.33543 0.0
C935 C 0.70867 0.60657 0.33558 0.0
C936 C 0.71927 0.61453 0.35427 0.0
C937 C 0.7047 0.61253 0.37222 0.0
C938 C 0.69263 0.63416 0.45362 0.0
C939 C 0.64749 0.68423 0.42359 0.0
O940 O 0.63878 0.67752 0.48812 0.0
O941 O 0.60491 0.65181 0.48772 0.0
O942 O 0.59767 0.65886 0.44277 0.0
O943 O 0.61397 0.6211 0.44054 0.0
O944 O 0.64861 0.61254 0.47674 0.0
O945 O 0.64379 0.58543 0.4495 0.0
O946 O 0.64399 0.61331 0.3946 0.0
O947 O 0.67712 0.59245 0.40727 0.0
O948 O 0.69363 0.61287 0.4431 0.0
O949 O 0.67324 0.64794 0.44853 0.0
O950 O 0.65092 0.66146 0.41434 0.0
O951 O 0.64298 0.68552 0.44318 0.0
H952 H 0.65379 0.63833 0.51819 0.0
H953 H 0.65497 0.62957 0.55474 0.0
H954 H 0.5892 0.68143 0.56305 0.0
H955 H 0.58794 0.68959 0.52678 0.0
H956 H 0.6486 0.58736 0.35271 0.0
H957 H 0.67369 0.59118 0.32141 0.0
H958 H 0.73916 0.62164 0.35517 0.0
H959 H 0.71365 0.61836 0.38633 0.0
Nd960 Nd 0.369 0.40279 0.17596 0.0
Nd961 Nd 0.4003 0.38268 0.21167 0.0
C962 C 0.34863 0.41234 0.13962 0.0
C963 C 0.35247 0.42894 0.12122 0.0
C964 C 0.36459 0.41878 0.10382 0.0
C965 C 0.36639 0.43366 0.08602 0.0
C966 C 0.35593 0.45911 0.085 0.0
C967 C 0.34405 0.46932 0.1025 0.0
C968 C 0.34229 0.45448 0.12028 0.0
C969 C 0.38314 0.44147 0.20235 0.0
C970 C 0.43445 0.39687 0.17286 0.0
C971 C 0.41849 0.3705 0.24802 0.0
C972 C 0.41089 0.37315 0.26962 0.0
C973 C 0.42457 0.39036 0.28233 0.0
C974 C 0.41894 0.39156 0.30303 0.0
C975 C 0.39959 0.37544 0.31158 0.0
C976 C 0.38554 0.35864 0.29874 0.0
C977 C 0.39109 0.3575 0.27806 0.0
C978 C 0.38757 0.34511 0.18353 0.0
C979 C 0.33807 0.39238 0.21751 0.0
O980 O 0.36526 0.39345 0.14315 0.0
O981 O 0.34097 0.42384 0.1562 0.0
O982 O 0.36177 0.44182 0.19191 0.0
O983 O 0.39736 0.4224 0.19737 0.0
O984 O 0.41165 0.39969 0.16348 0.0
O985 O 0.43573 0.39274 0.19249 0.0
O986 O 0.42528 0.39169 0.23833 0.0
O987 O 0.4048 0.35453 0.23682 0.0
O988 O 0.41002 0.34688 0.1925 0.0
O989 O 0.37202 0.36261 0.18978 0.0
O990 O 0.36143 0.39506 0.22548 0.0
O991 O 0.3352 0.39066 0.19763 0.0
H992 H 0.37231 0.39908 0.10384 0.0
H993 H 0.37544 0.42494 0.07288 0.0
H994 H 0.33613 0.48893 0.10252 0.0
H995 H 0.33262 0.46299 0.13323 0.0
H996 H 0.43999 0.40258 0.27634 0.0
H997 H 0.42996 0.40497 0.31237 0.0
H998 H 0.37079 0.34565 0.30478 0.0
H999 H 0.38021 0.34388 0.2688 0.0
Nd1000 Nd 0.35123 0.61723 0.92644 0.0
Nd1001 Nd 0.3721 0.65018 0.96127 0.0
C1002 C 0.34001 0.59567 0.89079 0.0
C1003 C 0.32521 0.60053 0.87176 0.0
C1004 C 0.33471 0.59054 0.85343 0.0
C1005 C 0.32007 0.59276 0.83556 0.0
C1006 C 0.29541 0.60504 0.83549 0.0
C1007 C 0.28624 0.61563 0.85385 0.0
C1008 C 0.30093 0.61341 0.87172 0.0
C1009 C 0.31455 0.63076 0.9546 0.0
C1010 C 0.35587 0.6827 0.92206 0.0
C1011 C 0.38306 0.67108 0.99692 0.0
C1012 C 0.38272 0.66423 0.01861 0.0
C1013 C 0.36475 0.64625 0.02666 0.0
C1014 C 0.36481 0.64056 0.04741 0.0
C1015 C 0.38279 0.6528 0.06048 0.0
C1016 C 0.40093 0.67047 0.05217 0.0
C1017 C 0.40085 0.6761 0.03152 0.0
C1018 C 0.40889 0.63707 0.93263 0.0
C1019 C 0.36447 0.58727 0.96808 0.0
O1020 O 0.36124 0.60926 0.89412 0.0
O1021 O 0.3264 0.5919 0.90722 0.0
O1022 O 0.31459 0.6086 0.94516 0.0
O1023 O 0.3322 0.64559 0.94796 0.0
O1024 O 0.35301 0.65961 0.91313 0.0
O1025 O 0.36069 0.68458 0.94156 0.0
O1026 O 0.36049 0.67379 0.98787 0.0
O1027 O 0.40042 0.65923 0.98572 0.0
O1028 O 0.40738 0.6597 0.94141 0.0
O1029 O 0.39174 0.62156 0.93948 0.0
O1030 O 0.36314 0.61085 0.97591 0.0
O1031 O 0.36428 0.58387 0.94818 0.0
H1032 H 0.35335 0.58052 0.85299 0.0
H1033 H 0.32811 0.58474 0.82178 0.0
H1034 H 0.2673 0.62498 0.85458 0.0
H1035 H 0.29302 0.62127 0.88562 0.0
H1036 H 0.3506 0.63675 0.01695 0.0
H1037 H 0.35049 0.62696 0.05326 0.0
H1038 H 0.4154 0.67986 0.06163 0.0
H1039 H 0.415 0.68987 0.02561 0.0
Nd1040 Nd 0.13609 0.59972 0.67646 0.0
Nd1041 Nd 0.1046 0.62074 0.7114 0.0
C1042 C 0.15744 0.59011 0.64046 0.0
C1043 C 0.15396 0.5739 0.62182 0.0
C1044 C 0.13785 0.58217 0.60579 0.0
C1045 C 0.13631 0.56769 0.58777 0.0
C1046 C 0.15096 0.54459 0.58516 0.0
C1047 C 0.16683 0.53627 0.60132 0.0
C1048 C 0.16838 0.55072 0.61929 0.0
C1049 C 0.12073 0.56128 0.70265 0.0
C1050 C 0.07083 0.60609 0.6725 0.0
C1051 C 0.08553 0.636 0.74675 0.0
C1052 C 0.09077 0.63353 0.76857 0.0
C1053 C 0.10619 0.61328 0.77652 0.0
C1054 C 0.11154 0.61227 0.79732 0.0
C1055 C 0.10158 0.63151 0.81047 0.0
C1056 C 0.08625 0.65173 0.80225 0.0
C1057 C 0.0809 0.65266 0.78159 0.0
C1058 C 0.11843 0.65764 0.68303 0.0
C1059 C 0.16565 0.60734 0.71883 0.0
O1060 O 0.14114 0.60933 0.64384 0.0
O1061 O 0.16423 0.57813 0.65708 0.0
O1062 O 0.14211 0.56037 0.69224 0.0
O1063 O 0.10697 0.58069 0.69761 0.0
O1064 O 0.09374 0.60294 0.66338 0.0
O1065 O 0.06932 0.61055 0.69208 0.0
O1066 O 0.07719 0.61532 0.73712 0.0
O1067 O 0.10251 0.64948 0.73636 0.0
O1068 O 0.09564 0.65591 0.6914 0.0
O1069 O 0.13369 0.64021 0.68977 0.0
O1070 O 0.14184 0.60532 0.72606 0.0
O1071 O 0.16929 0.61066 0.69914 0.0
H1072 H 0.12671 0.60008 0.60702 0.0
H1073 H 0.12407 0.57497 0.57569 0.0
H1074 H 0.17807 0.51842 0.60016 0.0
H1075 H 0.18118 0.54382 0.63116 0.0
H1076 H 0.11414 0.59838 0.76668 0.0
H1077 H 0.12329 0.59634 0.80309 0.0
H1078 H 0.07871 0.66721 0.81174 0.0
H1079 H 0.06922 0.66861 0.77571 0.0
Nd1080 Nd 0.1545 0.38705 0.42566 0.0
Nd1081 Nd 0.13423 0.35531 0.46079 0.0
C1082 C 0.16412 0.40794 0.3895 0.0
C1083 C 0.18056 0.40415 0.37101 0.0
C1084 C 0.16969 0.39371 0.35322 0.0
C1085 C 0.18446 0.39196 0.33537 0.0
C1086 C 0.21053 0.40082 0.33468 0.0
C1087 C 0.22144 0.41101 0.35256 0.0
C1088 C 0.20671 0.4127 0.3704 0.0
C1089 C 0.19316 0.37256 0.45196 0.0
C1090 C 0.1491 0.3216 0.42207 0.0
C1091 C 0.12048 0.33614 0.49648 0.0
C1092 C 0.12258 0.34223 0.51822 0.0
C1093 C 0.14376 0.35628 0.52627 0.0
C1094 C 0.14484 0.36181 0.54703 0.0
C1095 C 0.12478 0.35335 0.56008 0.0
C1096 C 0.10355 0.33957 0.55177 0.0
C1097 C 0.10251 0.33408 0.53112 0.0
C1098 C 0.09686 0.36827 0.4325 0.0
C1099 C 0.14479 0.41691 0.46775 0.0
O1100 O 0.14505 0.39149 0.39291 0.0
O1101 O 0.17579 0.41518 0.40614 0.0
O1102 O 0.19348 0.3941 0.44174 0.0
O1103 O 0.17414 0.35836 0.44681 0.0
O1104 O 0.15167 0.3445 0.4128 0.0
O1105 O 0.14499 0.32017 0.44168 0.0
O1106 O 0.14175 0.3292 0.48695 0.0
O1107 O 0.10559 0.35156 0.48577 0.0
O1108 O 0.09894 0.34561 0.44106 0.0
O1109 O 0.1141 0.38387 0.43908 0.0
O1110 O 0.14787 0.3933 0.47513 0.0
O1111 O 0.14243 0.42032 0.44795 0.0
H1112 H 0.14954 0.38728 0.353 0.0
H1113 H 0.1752 0.38425 0.32194 0.0
H1114 H 0.24152 0.41766 0.35283 0.0
H1115 H 0.21581 0.42104 0.38368 0.0
H1116 H 0.15942 0.36294 0.51654 0.0
H1117 H 0.16152 0.37238 0.55289 0.0
H1118 H 0.08749 0.33322 0.5612 0.0
H1119 H 0.08588 0.32345 0.5252 0.0
Nd1120 Nd 0.3682 0.59997 0.3469 0.0
Nd1121 Nd 0.3999 0.62031 0.31168 0.0
C1122 C 0.34731 0.59029 0.38306 0.0
C1123 C 0.35086 0.57365 0.40149 0.0
C1124 C 0.36475 0.58286 0.41841 0.0
C1125 C 0.36634 0.56796 0.43623 0.0
C1126 C 0.3539 0.54346 0.43775 0.0
C1127 C 0.34024 0.5342 0.42072 0.0
C1128 C 0.33867 0.54905 0.40294 0.0
C1129 C 0.38292 0.56129 0.32072 0.0
C1130 C 0.43368 0.60574 0.35053 0.0
C1131 C 0.41815 0.63331 0.27553 0.0
C1132 C 0.41095 0.63051 0.25384 0.0
C1133 C 0.4241 0.61249 0.24147 0.0
C1134 C 0.41881 0.61113 0.22072 0.0
C1135 C 0.40039 0.62795 0.21175 0.0
C1136 C 0.3869 0.64564 0.22423 0.0
C1137 C 0.39209 0.6469 0.24497 0.0
C1138 C 0.38672 0.65772 0.33986 0.0
C1139 C 0.33819 0.6094 0.30481 0.0
O1140 O 0.36394 0.60921 0.37969 0.0
O1141 O 0.33991 0.5788 0.36639 0.0
O1142 O 0.36142 0.56086 0.33099 0.0
O1143 O 0.397 0.58044 0.32579 0.0
O1144 O 0.41076 0.60296 0.35974 0.0
O1145 O 0.43516 0.60998 0.33092 0.0
O1146 O 0.42566 0.61238 0.28526 0.0
O1147 O 0.40367 0.64868 0.28663 0.0
O1148 O 0.40933 0.65588 0.33118 0.0
O1149 O 0.37123 0.64031 0.33337 0.0
O1150 O 0.36182 0.60665 0.2974 0.0
O1151 O 0.33475 0.61161 0.32462 0.0
H1152 H 0.37408 0.60184 0.41803 0.0
H1153 H 0.37681 0.57599 0.449 0.0
H1154 H 0.33074 0.5153 0.42106 0.0
H1155 H 0.32758 0.54132 0.39036 0.0
H1156 H 0.43887 0.59972 0.24777 0.0
H1157 H 0.42937 0.59702 0.21168 0.0
H1158 H 0.37286 0.65917 0.21789 0.0
H1159 H 0.38166 0.66118 0.25393 0.0
Nd1160 Nd 0.15595 0.61841 0.0968 0.0
Nd1161 Nd 0.13006 0.64996 0.05902 0.0
C1162 C 0.16907 0.59194 0.12985 0.0
C1163 C 0.18416 0.5952 0.14908 0.0
C1164 C 0.17445 0.61 0.16538 0.0
C1165 C 0.18841 0.61175 0.18365 0.0
C1166 C 0.21244 0.59867 0.18625 0.0
C1167 C 0.22213 0.58403 0.16985 0.0
C1168 C 0.20818 0.58226 0.15163 0.0
C1169 C 0.18962 0.6411 0.06961 0.0
C1170 C 0.14713 0.68239 0.0997 0.0
C1171 C 0.12242 0.67265 0.02363 0.0
C1172 C 0.12733 0.66731 1.00208 0.0
C1173 C 0.13665 0.64292 0.99556 0.0
C1174 C 0.13844 0.63727 0.97488 0.0
C1175 C 0.13068 0.65581 0.96031 0.0
C1176 C 0.12183 0.68037 0.96706 0.0
C1177 C 0.12024 0.68604 0.98769 0.0
C1178 C 0.09222 0.6371 0.08731 0.0
C1179 C 0.13837 0.58621 0.05512 0.0
O1180 O 0.14686 0.60449 0.12785 0.0
O1181 O 0.18238 0.59097 0.11297 0.0
O1182 O 0.19476 0.63908 0.08879 0.0
O1183 O 0.16824 0.63014 0.0656 0.0
O1184 O 0.15008 0.66 0.10959 0.0
O1185 O 0.14283 0.68343 0.07996 0.0
O1186 O 0.14259 0.67799 0.03518 0.0
O1187 O 0.10538 0.65725 0.03233 0.0
O1188 O 0.08765 0.65073 0.07119 0.0
O1189 O 0.1162 0.63166 0.08784 0.0
O1190 O 0.13352 0.60882 0.04627 0.0
O1191 O 0.14532 0.58435 0.0745 0.0
H1192 H 0.15592 0.62008 0.16413 0.0
H1193 H 0.18005 0.62298 0.19589 0.0
H1194 H 0.2407 0.57403 0.17097 0.0
H1195 H 0.21621 0.57056 0.1395 0.0
H1196 H 0.14212 0.62811 1.00645 0.0
H1197 H 0.14567 0.61828 0.97033 0.0
H1198 H 0.11517 0.69501 0.95645 0.0
H1199 H 0.11266 0.70483 0.99241 0.0
Nd1200 Nd 0.13934 0.40376 0.84758 0.0
Nd1201 Nd 0.10839 0.38523 0.81138 0.0
C1202 C 0.15959 0.41205 0.88412 0.0
C1203 C 0.15545 0.42828 0.9026 0.0
C1204 C 0.15288 0.41618 0.92155 0.0
C1205 C 0.15078 0.43111 0.9393 0.0
C1206 C 0.15138 0.45862 0.93861 0.0
C1207 C 0.15358 0.47069 0.91956 0.0
C1208 C 0.15556 0.45577 0.90182 0.0
C1209 C 0.12445 0.44361 0.82242 0.0
C1210 C 0.0739 0.39717 0.85038 0.0
C1211 C 0.0909 0.37429 0.77459 0.0
C1212 C 0.09908 0.37695 0.75311 0.0
C1213 C 0.09041 0.39806 0.74128 0.0
C1214 C 0.09637 0.39937 0.72063 0.0
C1215 C 0.11103 0.3795 0.71125 0.0
C1216 C 0.12018 0.35871 0.72321 0.0
C1217 C 0.11424 0.35742 0.74382 0.0
C1218 C 0.12147 0.34638 0.8384 0.0
C1219 C 0.17026 0.39693 0.80588 0.0
O1220 O 0.1428 0.39342 0.88028 0.0
O1221 O 0.16748 0.4239 0.86774 0.0
O1222 O 0.14602 0.44362 0.83263 0.0
O1223 O 0.11059 0.42412 0.82696 0.0
O1224 O 0.09667 0.39949 0.85989 0.0
O1225 O 0.07272 0.39418 0.83061 0.0
O1226 O 0.0844 0.39546 0.78445 0.0
O1227 O 0.10393 0.35777 0.78579 0.0
O1228 O 0.09897 0.34848 0.82955 0.0
O1229 O 0.1369 0.36426 0.83264 0.0
O1230 O 0.14681 0.40001 0.79819 0.0
O1231 O 0.17308 0.39261 0.82552 0.0
H1232 H 0.15294 0.39507 0.92269 0.0
H1233 H 0.14935 0.42103 0.95363 0.0
H1234 H 0.15367 0.49178 0.9183 0.0
H1235 H 0.15745 0.46583 0.88752 0.0
H1236 H 0.07855 0.41332 0.74788 0.0
H1237 H 0.08924 0.41584 0.71197 0.0
H1238 H 0.13115 0.34284 0.71652 0.0
H1239 H 0.12104 0.3407 0.75235 0.0
Nd1240 Nd 0.35133 0.38525 0.59703 0.0
Nd1241 Nd 0.37117 0.35321 0.5617 0.0
C1242 C 0.34274 0.40626 0.63328 0.0
C1243 C 0.32772 0.40171 0.65224 0.0
C1244 C 0.33896 0.40816 0.67093 0.0
C1245 C 0.32459 0.40589 0.68892 0.0
C1246 C 0.29848 0.39712 0.68876 0.0
C1247 C 0.28746 0.39012 0.66998 0.0
C1248 C 0.30187 0.39237 0.65198 0.0
C1249 C 0.31248 0.37115 0.57085 0.0
C1250 C 0.35644 0.31982 0.60077 0.0
C1251 C 0.38429 0.3332 0.52612 0.0
C1252 C 0.382 0.3387 0.50432 0.0
C1253 C 0.36395 0.35686 0.49667 0.0
C1254 C 0.36304 0.36222 0.47587 0.0
C1255 C 0.38004 0.34934 0.4624 0.0
C1256 C 0.39797 0.33115 0.47028 0.0
C1257 C 0.39892 0.32593 0.49097 0.0
C1258 C 0.40883 0.36647 0.58967 0.0
C1259 C 0.361 0.41511 0.55482 0.0
O1260 O 0.36247 0.39081 0.6294 0.0
O1261 O 0.32949 0.41226 0.61706 0.0
O1262 O 0.31236 0.39267 0.58112 0.0
O1263 O 0.33141 0.35674 0.5759 0.0
O1264 O 0.35385 0.34276 0.60995 0.0
O1265 O 0.36061 0.31826 0.58117 0.0
O1266 O 0.36302 0.32678 0.53584 0.0
O1267 O 0.39936 0.34881 0.5365 0.0
O1268 O 0.40681 0.34375 0.58119 0.0
O1269 O 0.39142 0.3819 0.58315 0.0
O1270 O 0.35825 0.39151 0.5473 0.0
O1271 O 0.363 0.41852 0.57465 0.0
H1272 H 0.35883 0.41537 0.6716 0.0
H1273 H 0.33402 0.41107 0.703 0.0
H1274 H 0.26738 0.38358 0.66907 0.0
H1275 H 0.29261 0.38725 0.63783 0.0
H1276 H 0.35068 0.36695 0.50675 0.0
H1277 H 0.3489 0.37623 0.47033 0.0
H1278 H 0.41165 0.32121 0.46046 0.0
H1279 H 0.41311 0.31201 0.49659 0.0
C1280 C 0.18542 0.12234 0.27276 0.0
C1281 C 0.19003 0.11206 0.29213 0.0
C1282 C 0.20439 0.12135 0.25748 0.0
C1283 C 0.22888 0.10956 0.26139 0.0
C1284 C 0.23413 0.09991 0.28113 0.0
C1285 C 0.21468 0.1014 0.29633 0.0
C1286 C 0.19774 0.13215 0.23688 0.0
C1287 C 0.25991 0.08712 0.28595 0.0
C1288 C 0.26221 0.08336 0.21387 0.0
C1289 C 0.27974 0.10354 0.20895 0.0
C1290 C 0.24651 0.08452 0.23134 0.0
C1291 C 0.24815 0.10642 0.24439 0.0
C1292 C 0.26633 0.12649 0.23985 0.0
C1293 C 0.28186 0.1248 0.22229 0.0
C1294 C 0.22751 0.0626 0.23549 0.0
C1295 C 0.26862 0.15033 0.25313 0.0
H1296 H 0.16653 0.13085 0.26934 0.0
H1297 H 0.21838 0.09325 0.31115 0.0
H1298 H 0.21327 0.14565 0.23164 0.0
H1299 H 0.19652 0.11593 0.22581 0.0
H1300 H 0.17883 0.14279 0.23681 0.0
H1301 H 0.26184 0.08244 0.30226 0.0
H1302 H 0.26181 0.06876 0.27717 0.0
H1303 H 0.27631 0.10002 0.28144 0.0
H1304 H 0.26068 0.06657 0.204 0.0
H1305 H 0.29509 0.14064 0.21866 0.0
H1306 H 0.20719 0.06992 0.23401 0.0
H1307 H 0.22989 0.05541 0.25118 0.0
H1308 H 0.23011 0.04593 0.22494 0.0
H1309 H 0.25038 0.16197 0.25211 0.0
H1310 H 0.2853 0.16298 0.24871 0.0
H1311 H 0.27107 0.14449 0.26914 0.0
C1312 C 0.16709 0.03113 0.4727 0.0
C1313 C 0.14636 0.03058 0.45874 0.0
C1314 C 0.16708 0.01517 0.49008 0.0
C1315 C 0.14586 0.99804 0.49379 0.0
C1316 C 0.12455 0.99789 0.48008 0.0
C1317 C 0.12505 0.01406 0.46282 0.0
C1318 C 0.19032 0.01595 0.50409 0.0
C1319 C 0.10153 0.97994 0.48328 0.0
C1320 C 0.15868 0.93462 0.5223 0.0
C1321 C 0.1479 0.93943 0.5415 0.0
C1322 C 0.15837 0.95351 0.50694 0.0
C1323 C 0.14719 0.97833 0.51066 0.0
C1324 C 0.13699 0.98377 0.53019 0.0
C1325 C 0.13749 0.96428 0.54541 0.0
C1326 C 0.16964 0.9466 0.48654 0.0
C1327 C 0.12496 0.00997 0.53484 0.0
H1328 H 0.18385 0.04345 0.46972 0.0
H1329 H 0.10871 0.01365 0.45244 0.0
H1330 H 0.1838 0.01833 0.51995 0.0
H1331 H 0.20111 0.99719 0.50315 0.0
H1332 H 0.204 0.03207 0.50031 0.0
H1333 H 0.08559 0.98358 0.47225 0.0
H1334 H 0.10795 0.95933 0.48177 0.0
H1335 H 0.09364 0.98237 0.49876 0.0
H1336 H 0.16716 0.91567 0.51904 0.0
H1337 H 0.12903 0.96824 0.56009 0.0
H1338 H 0.18611 0.95989 0.48294 0.0
H1339 H 0.15465 0.94921 0.47462 0.0
H1340 H 0.17683 0.92615 0.4859 0.0
H1341 H 0.13893 0.02585 0.53119 0.0
H1342 H 0.11913 0.01173 0.55093 0.0
H1343 H 0.10743 0.01295 0.52526 0.0
C1344 C 0.29284 0.88104 0.7935 0.0
C1345 C 0.31361 0.89888 0.79303 0.0
C1346 C 0.27431 0.88011 0.77763 0.0
C1347 C 0.2763 0.89776 0.76112 0.0
C1348 C 0.29648 0.91671 0.76127 0.0
C1349 C 0.31495 0.91677 0.77698 0.0
C1350 C 0.25334 0.85944 0.77805 0.0
C1351 C 0.29971 0.93631 0.74442 0.0
C1352 C 0.2496 0.88146 0.70858 0.0
C1353 C 0.22639 0.89615 0.70779 0.0
C1354 C 0.26553 0.8812 0.72598 0.0
C1355 C 0.25819 0.89585 0.74325 0.0
C1356 C 0.23464 0.91041 0.74268 0.0
C1357 C 0.2191 0.91036 0.72508 0.0
C1358 C 0.29069 0.86582 0.72565 0.0
C1359 C 0.22652 0.92713 0.76036 0.0
H1360 H 0.29191 0.86689 0.80566 0.0
H1361 H 0.33098 0.93062 0.77641 0.0
H1362 H 0.23382 0.86851 0.77608 0.0
H1363 H 0.25628 0.84573 0.76527 0.0
H1364 H 0.25344 0.84812 0.79236 0.0
H1365 H 0.30788 0.9549 0.75029 0.0
H1366 H 0.31367 0.92841 0.73315 0.0
H1367 H 0.28107 0.94078 0.73663 0.0
H1368 H 0.25544 0.87013 0.69553 0.0
H1369 H 0.2016 0.92224 0.72468 0.0
H1370 H 0.29181 0.85282 0.73903 0.0
H1371 H 0.30753 0.87944 0.72642 0.0
H1372 H 0.29267 0.85377 0.71178 0.0
H1373 H 0.22639 0.91541 0.77444 0.0
H1374 H 0.20688 0.93591 0.75819 0.0
H1375 H 0.24093 0.94311 0.76244 0.0
C1376 C 0.33736 0.97046 0.97389 0.0
C1377 C 0.3572 0.97225 0.95925 0.0
C1378 C 0.33737 0.98644 0.99125 0.0
C1379 C 0.35767 0.00488 0.99422 0.0
C1380 C 0.3781 0.00634 0.9798 0.0
C1381 C 0.37764 0.99009 0.96259 0.0
C1382 C 0.31506 0.98424 1.00604 0.0
C1383 C 0.40006 0.02577 0.98218 0.0
C1384 C 0.34258 0.0673 0.02337 0.0
C1385 C 0.35501 0.06321 0.04206 0.0
C1386 C 0.34318 0.04851 1.00794 0.0
C1387 C 0.35613 0.02444 1.01117 0.0
C1388 C 0.36787 0.01962 0.03027 0.0
C1389 C 0.3672 0.03906 0.04551 0.0
C1390 C 0.33031 0.05475 0.98798 0.0
C1391 C 0.38179 0.99423 0.0344 0.0
H1392 H 0.32124 0.9571 0.97149 0.0
H1393 H 0.39333 0.99148 0.95167 0.0
H1394 H 0.32265 0.98228 0.02166 0.0
H1395 H 0.3031 0.0023 1.00551 0.0
H1396 H 0.3022 0.9673 1.00272 0.0
H1397 H 0.41554 0.02314 0.9706 0.0
H1398 H 0.39223 0.04592 0.98088 0.0
H1399 H 0.40901 0.02394 0.99737 0.0
H1400 H 0.33261 0.08562 0.02057 0.0
H1401 H 0.37693 0.03569 0.0598 0.0
H1402 H 0.31408 0.04087 0.98517 0.0
H1403 H 0.34452 0.05251 0.97546 0.0
H1404 H 0.32243 0.07494 0.9875 0.0
H1405 H 0.36867 0.9775 0.03114 0.0
H1406 H 0.38862 0.99277 0.05028 0.0
H1407 H 0.39893 0.99242 0.02424 0.0
C1408 C 0.28015 0.87645 0.30318 0.0
C1409 C 0.2792 0.89848 0.31585 0.0
C1410 C 0.26463 0.87474 0.28559 0.0
C1411 C 0.24764 0.89555 0.28033 0.0
C1412 C 0.24718 0.91816 0.29271 0.0
C1413 C 0.26286 0.91934 0.3102 0.0
C1414 C 0.26568 0.85016 0.27305 0.0
C1415 C 0.22945 0.94087 0.28781 0.0
C1416 C 0.21491 0.89967 0.228 0.0
C1417 C 0.18971 0.89043 0.23229 0.0
C1418 C 0.23425 0.90097 0.24331 0.0
C1419 C 0.22834 0.89265 0.26329 0.0
C1420 C 0.20322 0.88236 0.26736 0.0
C1421 C 0.18441 0.88144 0.25195 0.0
C1422 C 0.26072 0.91213 0.23829 0.0
C1423 C 0.1958 0.87305 0.28824 0.0
H1424 H 0.29244 0.86008 0.30735 0.0
H1425 H 0.26223 0.93671 0.31953 0.0
H1426 H 0.2468 0.83962 0.27428 0.0
H1427 H 0.26858 0.85506 0.25689 0.0
H1428 H 0.28158 0.83682 0.27795 0.0
H1429 H 0.23289 0.95787 0.29789 0.0
H1430 H 0.23235 0.94715 0.27194 0.0
H1431 H 0.20875 0.93476 0.28937 0.0
H1432 H 0.21918 0.90681 0.21296 0.0
H1433 H 0.16512 0.87398 0.25549 0.0
H1434 H 0.27635 0.89855 0.24323 0.0
H1435 H 0.26357 0.93073 0.24659 0.0
H1436 H 0.263 0.91596 0.22188 0.0
H1437 H 0.21011 0.85839 0.29371 0.0
H1438 H 0.17599 0.86419 0.28866 0.0
H1439 H 0.19621 0.88971 0.29895 0.0
C1440 C 0.34306 0.93374 0.50227 0.0
C1441 C 0.35474 0.93831 0.48336 0.0
C1442 C 0.34374 0.95237 0.51782 0.0
C1443 C 0.35605 0.97676 0.51454 0.0
C1444 C 0.36712 0.98201 0.49526 0.0
C1445 C 0.36635 0.96273 0.47989 0.0
C1446 C 0.3316 0.94565 0.53796 0.0
C1447 C 0.38038 0.00773 0.49107 0.0
C1448 C 0.33704 0.03005 0.55238 0.0
C1449 C 0.35729 0.02862 0.56672 0.0
C1450 C 0.33695 0.01418 0.53496 0.0
C1451 C 0.35758 0.99622 0.53158 0.0
C1452 C 0.3784 0.99511 0.54571 0.0
C1453 C 0.378 0.01122 0.563 0.0
C1454 C 0.31422 0.01597 0.52051 0.0
C1455 C 0.40074 0.97621 0.54291 0.0
H1456 H 0.33357 0.91519 0.50515 0.0
H1457 H 0.37553 0.96649 0.46544 0.0
H1458 H 0.34604 0.94828 0.55028 0.0
H1459 H 0.315 0.959 0.54104 0.0
H1460 H 0.32436 0.92522 0.5385 0.0
H1461 H 0.38683 0.00944 0.47511 0.0
H1462 H 0.36694 0.02413 0.49455 0.0
H1463 H 0.39767 0.00987 0.50103 0.0
H1464 H 0.32071 0.04305 0.55506 0.0
H1465 H 0.39398 0.01009 0.5737 0.0
H1466 H 0.30273 0.99762 0.52111 0.0
H1467 H 0.32135 0.01827 0.5048 0.0
H1468 H 0.30103 0.03255 0.52413 0.0
H1469 H 0.39341 0.95589 0.54424 0.0
H1470 H 0.41645 0.97913 0.55425 0.0
H1471 H 0.40923 0.97835 0.52759 0.0
C1472 C 0.2267 0.12635 0.80481 0.0
C1473 C 0.22554 0.10353 0.81659 0.0
C1474 C 0.24245 0.12777 0.78735 0.0
C1475 C 0.25751 0.10585 0.78135 0.0
C1476 C 0.25579 0.08251 0.79279 0.0
C1477 C 0.2399 0.08163 0.81016 0.0
C1478 C 0.24381 0.15315 0.77581 0.0
C1479 C 0.27144 0.05863 0.78707 0.0
C1480 C 0.29047 0.10306 0.7291 0.0
C1481 C 0.31624 0.11003 0.73391 0.0
C1482 C 0.27094 0.10196 0.74426 0.0
C1483 C 0.27727 0.10818 0.76462 0.0
C1484 C 0.30308 0.11598 0.7693 0.0
C1485 C 0.32203 0.1168 0.75402 0.0
C1486 C 0.2437 0.09346 0.73861 0.0
C1487 C 0.31099 0.12292 0.79063 0.0
H1488 H 0.21596 0.1435 0.8096 0.0
H1489 H 0.23885 0.06369 0.81881 0.0
H1490 H 0.26353 0.16185 0.77761 0.0
H1491 H 0.24077 0.14962 0.75946 0.0
H1492 H 0.22908 0.16751 0.78112 0.0
H1493 H 0.26624 0.04133 0.79635 0.0
H1494 H 0.26832 0.05379 0.77092 0.0
H1495 H 0.29258 0.06267 0.78908 0.0
H1496 H 0.28577 0.09771 0.7137 0.0
H1497 H 0.34173 0.12261 0.75799 0.0
H1498 H 0.22924 0.10814 0.7438 0.0
H1499 H 0.239 0.0748 0.74632 0.0
H1500 H 0.24144 0.09067 0.72207 0.0
H1501 H 0.29787 0.13822 0.79677 0.0
H1502 H 0.33145 0.13007 0.79156 0.0
H1503 H 0.3091 0.1055 0.80049 0.0
C1504 C 0.12517 0.97839 0.05531 0.0
C1505 C 0.14881 0.97518 0.06585 0.0
C1506 C 0.12358 0.99424 0.0379 0.0
C1507 C 0.14613 0.00738 0.0307 0.0
C1508 C 0.17021 0.00352 0.04085 0.0
C1509 C 0.17126 0.98753 0.05818 0.0
C1510 C 0.09744 0.99784 0.02773 0.0
C1511 C 0.19479 0.01708 0.03385 0.0
C1512 C 0.14704 0.04068 0.9785 0.0
C1513 C 0.1425 0.06687 0.98371 0.0
C1514 C 0.1479 0.02093 0.99351 0.0
C1515 C 0.14401 0.02748 0.01417 0.0
C1516 C 0.13875 0.05377 0.01931 0.0
C1517 C 0.13806 0.07292 1.00416 0.0
C1518 C 0.15356 0.99316 0.98734 0.0
C1519 C 0.13439 0.06194 0.04099 0.0
H1520 H 0.1076 0.96923 0.06105 0.0
H1521 H 0.18979 0.98486 0.06581 0.0
H1522 H 0.09055 0.01817 0.03008 0.0
H1523 H 0.09926 0.99477 1.01121 0.0
H1524 H 0.08242 0.98425 0.03373 0.0
H1525 H 0.21237 0.01029 0.04216 0.0
H1526 H 0.19785 0.01372 0.01748 0.0
H1527 H 0.1928 0.03847 0.03611 0.0
H1528 H 0.15053 0.03572 0.96283 0.0
H1529 H 0.13417 0.09294 1.00852 0.0
H1530 H 0.13812 0.97995 0.99317 0.0
H1531 H 0.17233 0.98674 0.9941 0.0
H1532 H 0.15479 0.99091 0.97069 0.0
H1533 H 0.11871 0.04997 0.04791 0.0
H1534 H 0.12893 0.08287 0.04236 0.0
H1535 H 0.15247 0.05859 0.04986 0.0
C1536 C 0.78858 0.8992 0.72786 0.0
C1537 C 0.81357 0.88938 0.73208 0.0
C1538 C 0.76922 0.90048 0.74314 0.0
C1539 C 0.77491 0.89148 0.76299 0.0
C1540 C 0.79977 0.88051 0.76693 0.0
C1541 C 0.81863 0.8797 0.75157 0.0
C1542 C 0.74304 0.91241 0.73827 0.0
C1543 C 0.80693 0.87045 0.78766 0.0
C1544 C 0.74108 0.91805 0.8102 0.0
C1545 C 0.72408 0.89759 0.81548 0.0
C1546 C 0.75679 0.91681 0.79273 0.0
C1547 C 0.75569 0.89452 0.78005 0.0
C1548 C 0.73807 0.8741 0.78497 0.0
C1549 C 0.72251 0.87589 0.80252 0.0
C1550 C 0.77518 0.93911 0.78818 0.0
C1551 C 0.73639 0.84984 0.77211 0.0
H1552 H 0.78453 0.90691 0.71295 0.0
H1553 H 0.8378 0.87185 0.75501 0.0
H1554 H 0.72706 0.89915 0.74307 0.0
H1555 H 0.74069 0.93092 0.74678 0.0
H1556 H 0.74084 0.91662 0.72191 0.0
H1557 H 0.82606 0.86022 0.78776 0.0
H1558 H 0.80796 0.88701 0.79844 0.0
H1559 H 0.79176 0.85679 0.79328 0.0
H1560 H 0.74219 0.93517 0.81978 0.0
H1561 H 0.70969 0.85983 0.80642 0.0
H1562 H 0.7725 0.94583 0.7724 0.0
H1563 H 0.79569 0.93236 0.78969 0.0
H1564 H 0.77221 0.95597 0.79848 0.0
H1565 H 0.73361 0.85516 0.75602 0.0
H1566 H 0.72016 0.8368 0.77683 0.0
H1567 H 0.755 0.8388 0.77319 0.0
C1568 C 0.86927 0.07154 0.50362 0.0
C1569 C 0.86134 0.06602 0.48373 0.0
C1570 C 0.8683 0.05265 0.51896 0.0
C1571 C 0.85911 0.02721 0.51456 0.0
C1572 C 0.85175 0.02114 0.49438 0.0
C1573 C 0.85305 0.04058 0.47916 0.0
C1574 C 0.87651 0.06027 0.54008 0.0
C1575 C 0.84174 0.99433 0.48902 0.0
C1576 C 0.87635 0.97548 0.55418 0.0
C1577 C 0.85394 0.97529 0.56647 0.0
C1578 C 0.8779 0.99138 0.53681 0.0
C1579 C 0.85655 0.0076 0.53138 0.0
C1580 C 0.83361 0.00693 0.54337 0.0
C1581 C 0.83259 0.99089 0.56067 0.0
C1582 C 0.90286 0.99161 0.52469 0.0
C1583 C 0.81032 0.0238 0.53827 0.0
H1584 H 0.87609 0.09098 0.50736 0.0
H1585 H 0.84676 0.03612 0.46392 0.0
H1586 H 0.85944 0.05927 0.55037 0.0
H1587 H 0.89139 0.04642 0.54588 0.0
H1588 H 0.88469 0.08035 0.54077 0.0
H1589 H 0.8382 0.99215 0.47256 0.0
H1590 H 0.8559 0.97919 0.49392 0.0
H1591 H 0.82317 0.99056 0.49716 0.0
H1592 H 0.89308 0.96378 0.55849 0.0
H1593 H 0.81497 0.99063 0.56971 0.0
H1594 H 0.91248 0.01093 0.52621 0.0
H1595 H 0.89856 0.98866 0.50843 0.0
H1596 H 0.91678 0.97628 0.52971 0.0
H1597 H 0.81554 0.04471 0.5401 0.0
H1598 H 0.79321 0.01952 0.54804 0.0
H1599 H 0.80459 0.02091 0.52227 0.0
C1600 C 0.6894 0.13389 0.24919 0.0
C1601 C 0.68949 0.11638 0.23285 0.0
C1602 C 0.70801 0.13233 0.26475 0.0
C1603 C 0.72734 0.11255 0.26428 0.0
C1604 C 0.7283 0.09545 0.24737 0.0
C1605 C 0.70945 0.09765 0.23181 0.0
C1606 C 0.70618 0.1512 0.28222 0.0
C1607 C 0.74842 0.07398 0.24624 0.0
C1608 C 0.78486 0.12099 0.30081 0.0
C1609 C 0.77686 0.10617 0.31759 0.0
C1610 C 0.76943 0.12263 0.28318 0.0
C1611 C 0.74532 0.10904 0.28209 0.0
C1612 C 0.73741 0.09359 0.29878 0.0
C1613 C 0.75316 0.09239 0.31624 0.0
C1614 C 0.77858 0.13953 0.26592 0.0
C1615 C 0.71198 0.07865 0.29837 0.0
H1616 H 0.67408 0.14847 0.25017 0.0
H1617 H 0.70948 0.08378 0.21945 0.0
H1618 H 0.7007 0.14046 0.29614 0.0
H1619 H 0.7254 0.16052 0.28502 0.0
H1620 H 0.69145 0.16677 0.27956 0.0
H1621 H 0.74826 0.06394 0.23138 0.0
H1622 H 0.76825 0.08195 0.24901 0.0
H1623 H 0.74447 0.05933 0.2582 0.0
H1624 H 0.80294 0.13194 0.30164 0.0
H1625 H 0.7469 0.08049 0.32887 0.0
H1626 H 0.76492 0.15616 0.2639 0.0
H1627 H 0.77853 0.12822 0.25164 0.0
H1628 H 0.79853 0.14742 0.26847 0.0
H1629 H 0.69536 0.09252 0.29744 0.0
H1630 H 0.70934 0.06625 0.31198 0.0
H1631 H 0.71111 0.06602 0.28478 0.0
C1632 C 0.63034 0.96059 0.98303 0.0
C1633 C 0.65013 0.94183 0.98117 0.0
C1634 C 0.63007 0.97826 0.99947 0.0
C1635 C 0.65029 0.97743 0.01419 0.0
C1636 C 0.67112 0.95952 1.01153 0.0
C1637 C 0.67054 0.94178 0.99533 0.0
C1638 C 0.6074 0.99684 1.00172 0.0
C1639 C 0.69345 0.95782 0.02637 0.0
C1640 C 0.66127 0.03355 0.05158 0.0
C1641 C 0.65034 0.02364 0.0695 0.0
C1642 C 0.66081 0.01911 0.03342 0.0
C1643 C 0.64907 0.99403 0.03295 0.0
C1644 C 0.63771 0.98403 0.0509 0.0
C1645 C 0.63845 0.99888 0.06884 0.0
C1646 C 0.67388 0.03025 0.01491 0.0
C1647 C 0.62527 0.95729 0.05129 0.0
H1648 H 0.61422 0.96035 0.97241 0.0
H1649 H 0.68578 0.92711 0.99413 0.0
H1650 H 0.59586 0.99144 0.01527 0.0
H1651 H 0.61457 0.01706 1.00402 0.0
H1652 H 0.59428 0.99653 0.98836 0.0
H1653 H 0.7113 0.94989 0.01908 0.0
H1654 H 0.6983 0.97712 0.03298 0.0
H1655 H 0.6879 0.94447 0.03886 0.0
H1656 H 0.67096 0.05236 0.05183 0.0
H1657 H 0.62962 0.99101 0.0824 0.0
H1658 H 0.66021 0.03 1.00192 0.0
H1659 H 0.6909 0.01792 1.01079 0.0
H1660 H 0.68077 0.05059 0.0173 0.0
H1661 H 0.61066 0.95554 0.03898 0.0
H1662 H 0.61552 0.9531 0.06591 0.0
H1663 H 0.64042 0.94216 0.04865 0.0
C1664 C 0.81997 0.09295 0.77227 0.0
C1665 C 0.81553 0.1044 0.79128 0.0
C1666 C 0.801 0.09335 0.75697 0.0
C1667 C 0.77642 0.10507 0.76065 0.0
C1668 C 0.77131 0.11583 0.78004 0.0
C1669 C 0.79093 0.1154 0.79515 0.0
C1670 C 0.80756 0.08155 0.73668 0.0
C1671 C 0.74536 0.12841 0.78465 0.0
C1672 C 0.74048 0.12691 0.71287 0.0
C1673 C 0.72357 0.1058 0.70915 0.0
C1674 C 0.75692 0.12744 0.72997 0.0
C1675 C 0.7566 0.10638 0.74388 0.0
C1676 C 0.73909 0.08537 0.74055 0.0
C1677 C 0.7229 0.08531 0.7233 0.0
C1678 C 0.77535 0.15017 0.73274 0.0
C1679 C 0.73812 0.0624 0.75482 0.0
H1680 H 0.83866 0.08388 0.76913 0.0
H1681 H 0.78727 0.12435 0.8097 0.0
H1682 H 0.79451 0.0647 0.73366 0.0
H1683 H 0.80434 0.09605 0.72449 0.0
H1684 H 0.82813 0.07476 0.73584 0.0
H1685 H 0.74382 0.13461 0.80067 0.0
H1686 H 0.7426 0.14578 0.77486 0.0
H1687 H 0.72921 0.11463 0.78125 0.0
H1688 H 0.74099 0.14308 0.70232 0.0
H1689 H 0.71028 0.06869 0.7206 0.0
H1690 H 0.79581 0.14333 0.73114 0.0
H1691 H 0.77329 0.15841 0.74815 0.0
H1692 H 0.77186 0.16595 0.72155 0.0
H1693 H 0.75669 0.05131 0.75387 0.0
H1694 H 0.72173 0.04892 0.75131 0.0
H1695 H 0.73605 0.06926 0.77062 0.0
C1696 C 0.63365 0.06844 0.52274 0.0
C1697 C 0.64196 0.06341 0.54262 0.0
C1698 C 0.63457 0.04926 0.50761 0.0
C1699 C 0.64423 0.02404 0.51215 0.0
C1700 C 0.65194 0.01842 0.53233 0.0
C1701 C 0.6506 0.03812 0.54737 0.0
C1702 C 0.62592 0.05637 0.4865 0.0
C1703 C 0.66241 0.99184 0.53787 0.0
C1704 C 0.62766 0.97242 0.47223 0.0
C1705 C 0.6499 0.97293 0.45976 0.0
C1706 C 0.62604 0.98786 0.48987 0.0
C1707 C 0.64715 0.00436 0.49537 0.0
C1708 C 0.67 0.00426 0.48326 0.0
C1709 C 0.67109 0.98864 0.46573 0.0
C1710 C 0.60121 0.98741 0.50212 0.0
C1711 C 0.69304 0.02143 0.48841 0.0
H1712 H 0.62667 0.08776 0.51882 0.0
H1713 H 0.65721 0.034 0.56258 0.0
H1714 H 0.64295 0.05594 0.47615 0.0
H1715 H 0.6115 0.04196 0.48082 0.0
H1716 H 0.61699 0.07609 0.48579 0.0
H1717 H 0.66575 0.98983 0.55436 0.0
H1718 H 0.64865 0.97639 0.53289 0.0
H1719 H 0.68117 0.98843 0.52991 0.0
H1720 H 0.61104 0.96061 0.46784 0.0
H1721 H 0.68863 0.98889 0.45658 0.0
H1722 H 0.59094 0.00638 0.5005 0.0
H1723 H 0.60572 0.9848 0.51838 0.0
H1724 H 0.58776 0.97158 0.49726 0.0
H1725 H 0.68754 0.04225 0.48652 0.0
H1726 H 0.71024 0.01736 0.47868 0.0
H1727 H 0.69877 0.01863 0.50442 0.0
C1728 C 0.75696 0.87846 0.20965 0.0
C1729 C 0.7772 0.89684 0.2075 0.0
C1730 C 0.7409 0.87798 0.22696 0.0
C1731 C 0.74498 0.89629 0.24273 0.0
C1732 C 0.76565 0.91456 0.24086 0.0
C1733 C 0.78141 0.91463 0.22337 0.0
C1734 C 0.71909 0.85819 0.22816 0.0
C1735 C 0.7706 0.93468 0.25706 0.0
C1736 C 0.68509 0.91301 0.27447 0.0
C1737 C 0.68868 0.89792 0.29201 0.0
C1738 C 0.70346 0.91313 0.25873 0.0
C1739 C 0.72631 0.89767 0.26029 0.0
C1740 C 0.73062 0.88309 0.27828 0.0
C1741 C 0.71181 0.88347 0.29398 0.0
C1742 C 0.69786 0.92923 0.2401 0.0
C1743 C 0.75464 0.86631 0.2806 0.0
H1744 H 0.75363 0.86434 0.19775 0.0
H1745 H 0.79661 0.92922 0.2219 0.0
H1746 H 0.7203 0.84718 0.24255 0.0
H1747 H 0.69996 0.86838 0.22796 0.0
H1748 H 0.71958 0.84409 0.21542 0.0
H1749 H 0.78853 0.94629 0.25412 0.0
H1750 H 0.75373 0.94824 0.25798 0.0
H1751 H 0.7725 0.92507 0.272 0.0
H1752 H 0.66741 0.92448 0.27281 0.0
H1753 H 0.71467 0.8716 0.30735 0.0
H1754 H 0.69492 0.91611 0.22696 0.0
H1755 H 0.71472 0.94206 0.23658 0.0
H1756 H 0.68015 0.94159 0.24184 0.0
H1757 H 0.75429 0.85045 0.26919 0.0
H1758 H 0.75601 0.85739 0.29585 0.0
H1759 H 0.77248 0.87806 0.27781 0.0
C1760 C 0.87802 0.01306 0.96217 0.0
C1761 C 0.85652 0.02925 0.95787 0.0
C1762 C 0.87842 0.99676 0.97936 0.0
C1763 C 0.8568 0.9964 0.99277 0.0
C1764 C 0.83532 0.01312 0.98879 0.0
C1765 C 0.83543 0.02924 0.9715 0.0
C1766 C 0.90171 0.97925 0.98284 0.0
C1767 C 0.81172 0.01333 1.00245 0.0
C1768 C 0.84462 0.9329 0.02139 0.0
C1769 C 0.85484 0.93806 0.04073 0.0
C1770 C 0.84498 0.95166 1.00593 0.0
C1771 C 0.85556 0.97673 1.00968 0.0
C1772 C 0.86519 0.98251 0.02933 0.0
C1773 C 0.86472 0.96313 0.04463 0.0
C1774 C 0.83436 0.94436 0.98539 0.0
C1775 C 0.87658 0.00898 0.03402 0.0
H1776 H 0.89463 0.01307 0.95204 0.0
H1777 H 0.81851 0.04128 0.96834 0.0
H1778 H 0.90925 0.98184 0.99841 0.0
H1779 H 0.89572 0.95851 0.98126 0.0
H1780 H 0.91779 0.98318 0.97199 0.0
H1781 H 0.7977 0.02905 0.99843 0.0
H1782 H 0.80149 0.99428 1.00143 0.0
H1783 H 0.81781 0.01597 0.01839 0.0
H1784 H 0.83652 0.9138 0.01812 0.0
H1785 H 0.87274 0.96738 0.05941 0.0
H1786 H 0.84946 0.94748 0.97363 0.0
H1787 H 0.8175 0.95706 0.9816 0.0
H1788 H 0.82791 0.92367 0.98467 0.0
H1789 H 0.89416 0.01233 0.02458 0.0
H1790 H 0.88215 0.01092 0.05016 0.0
H1791 H 0.86229 0.02453 0.03023 0.0
C1792 C 0.71325 0.59894 0.79432 0.0
C1793 C 0.69053 0.61363 0.79084 0.0
C1794 C 0.7327 0.59646 0.77922 0.0
C1795 C 0.72933 0.60888 0.7602 0.0
C1796 C 0.70682 0.62435 0.75694 0.0
C1797 C 0.68795 0.62661 0.77221 0.0
C1798 C 0.75643 0.57985 0.78338 0.0
C1799 C 0.70213 0.63791 0.73699 0.0
C1800 C 0.78495 0.62133 0.72281 0.0
C1801 C 0.7806 0.60194 0.70815 0.0
C1802 C 0.7692 0.62314 0.74024 0.0
C1803 C 0.74853 0.60512 0.74326 0.0
C1804 C 0.74458 0.585 0.72886 0.0
C1805 C 0.76057 0.58369 0.71157 0.0
C1806 C 0.77408 0.64499 0.75505 0.0
C1807 C 0.72287 0.5653 0.73138 0.0
H1808 H 0.71547 0.58869 0.80853 0.0
H1809 H 0.67066 0.63821 0.76923 0.0
H1810 H 0.75616 0.56243 0.77342 0.0
H1811 H 0.7745 0.59092 0.77989 0.0
H1812 H 0.75727 0.57319 0.79932 0.0
H1813 H 0.68406 0.64994 0.73708 0.0
H1814 H 0.71892 0.6507 0.73323 0.0
H1815 H 0.70041 0.62318 0.72478 0.0
H1816 H 0.80017 0.63569 0.72035 0.0
H1817 H 0.75728 0.5683 0.70062 0.0
H1818 H 0.7753 0.63718 0.77064 0.0
H1819 H 0.75749 0.65893 0.75464 0.0
H1820 H 0.79234 0.65584 0.75165 0.0
H1821 H 0.72394 0.55615 0.74654 0.0
H1822 H 0.72361 0.54967 0.71977 0.0
H1823 H 0.70369 0.5753 0.73029 0.0
C1824 C 0.67473 0.50522 0.95917 0.0
C1825 C 0.65518 0.52347 0.95427 0.0
C1826 C 0.67342 0.49007 0.97695 0.0
C1827 C 0.65202 0.49306 0.99035 0.0
C1828 C 0.63256 0.51188 0.98578 0.0
C1829 C 0.63437 0.52679 0.9679 0.0
C1830 C 0.69464 0.47028 0.98109 0.0
C1831 C 0.60924 0.51559 0.99941 0.0
C1832 C 0.63389 0.43248 0.02068 0.0
C1833 C 0.64489 0.43742 0.03976 0.0
C1834 C 0.63559 0.45057 1.00482 0.0
C1835 C 0.64863 0.47462 1.00788 0.0
C1836 C 0.65898 0.48028 0.02734 0.0
C1837 C 0.65693 0.46164 0.04311 0.0
C1838 C 0.62415 0.44342 0.98452 0.0
C1839 C 0.67313 0.5056 0.03126 0.0
H1840 H 0.69118 0.50271 0.94907 0.0
H1841 H 0.61896 0.54053 0.9643 0.0
H1842 H 0.70251 0.47296 0.99656 0.0
H1843 H 0.68639 0.45027 0.98028 0.0
H1844 H 0.711 0.47172 0.97014 0.0
H1845 H 0.59703 0.53251 0.99479 0.0
H1846 H 0.59694 0.49775 0.9991 0.0
H1847 H 0.61569 0.51852 0.01523 0.0
H1848 H 0.62429 0.41393 0.01795 0.0
H1849 H 0.66573 0.46553 0.05768 0.0
H1850 H 0.64 0.44177 0.97317 0.0
H1851 H 0.61063 0.45894 0.97928 0.0
H1852 H 0.61337 0.42459 0.98492 0.0
H1853 H 0.69128 0.50625 0.02212 0.0
H1854 H 0.6784 0.50799 0.04743 0.0
H1855 H 0.66087 0.5224 0.02654 0.0
C1856 C 0.72194 0.4142 0.22217 0.0
C1857 C 0.72426 0.39434 0.20758 0.0
C1858 C 0.73758 0.41445 0.23973 0.0
C1859 C 0.7562 0.39438 0.243 0.0
C1860 C 0.75816 0.3739 0.22864 0.0
C1861 C 0.74227 0.37413 0.21121 0.0
C1862 C 0.73483 0.43679 0.25443 0.0
C1863 C 0.77771 0.35212 0.23134 0.0
C1864 C 0.81822 0.4099 0.2726 0.0
C1865 C 0.81395 0.39764 0.29134 0.0
C1866 C 0.79952 0.4093 0.25708 0.0
C1867 C 0.77548 0.39624 0.26015 0.0
C1868 C 0.77052 0.38458 0.27928 0.0
C1869 C 0.78978 0.38544 0.29467 0.0
C1870 C 0.80587 0.4222 0.23716 0.0
C1871 C 0.74517 0.37049 0.28325 0.0
H1872 H 0.70844 0.43015 0.21957 0.0
H1873 H 0.74407 0.35843 0.20034 0.0
H1874 H 0.73268 0.42926 0.27005 0.0
H1875 H 0.75275 0.44897 0.25407 0.0
H1876 H 0.7178 0.44943 0.25088 0.0
H1877 H 0.77546 0.33656 0.21978 0.0
H1878 H 0.79782 0.3601 0.2303 0.0
H1879 H 0.77561 0.34324 0.24653 0.0
H1880 H 0.83664 0.41972 0.26982 0.0
H1881 H 0.78628 0.37579 0.30897 0.0
H1882 H 0.79122 0.43754 0.23376 0.0
H1883 H 0.80498 0.40762 0.22478 0.0
H1884 H 0.82559 0.43124 0.23709 0.0
H1885 H 0.72838 0.38341 0.2797 0.0
H1886 H 0.7435 0.36387 0.29916 0.0
H1887 H 0.74371 0.3532 0.27321 0.0
C1888 C 0.84284 0.5668 0.52345 0.0
C1889 C 0.8563 0.56308 0.54176 0.0
C1890 C 0.84341 0.54812 0.50793 0.0
C1891 C 0.85776 0.52473 0.51055 0.0
C1892 C 0.8708 0.52037 0.52922 0.0
C1893 C 0.86986 0.53955 0.54464 0.0
C1894 C 0.82904 0.55377 0.48849 0.0
C1895 C 0.88644 0.4958 0.53263 0.0
C1896 C 0.8399 0.46996 0.47369 0.0
C1897 C 0.85856 0.47311 0.45828 0.0
C1898 C 0.84008 0.48579 0.49113 0.0
C1899 C 0.85937 0.50544 0.49342 0.0
C1900 C 0.87867 0.5083 0.47821 0.0
C1901 C 0.87803 0.49219 0.46092 0.0
C1902 C 0.81894 0.48214 0.50675 0.0
C1903 C 0.89956 0.529 0.47987 0.0
H1904 H 0.83204 0.58475 0.52102 0.0
H1905 H 0.88049 0.53654 0.5586 0.0
H1906 H 0.84291 0.55376 0.47562 0.0
H1907 H 0.81438 0.53826 0.48557 0.0
H1908 H 0.8189 0.57293 0.4888 0.0
H1909 H 0.89433 0.49461 0.54823 0.0
H1910 H 0.87414 0.47836 0.52974 0.0
H1911 H 0.90299 0.49512 0.52183 0.0
H1912 H 0.82451 0.45564 0.47185 0.0
H1913 H 0.89283 0.49466 0.44938 0.0
H1914 H 0.80598 0.49951 0.50687 0.0
H1915 H 0.82764 0.48041 0.52203 0.0
H1916 H 0.80684 0.46455 0.50377 0.0
H1917 H 0.8905 0.54865 0.47887 0.0
H1918 H 0.91447 0.52728 0.46776 0.0
H1919 H 0.90947 0.52769 0.49473 0.0
C1920 C 0.7138 0.3849 0.72976 0.0
C1921 C 0.68957 0.39705 0.73289 0.0
C1922 C 0.73314 0.38486 0.74508 0.0
C1923 C 0.72822 0.39741 0.76386 0.0
C1924 C 0.70414 0.41052 0.76666 0.0
C1925 C 0.6853 0.41016 0.75126 0.0
C1926 C 0.75852 0.37069 0.74142 0.0
C1927 C 0.69783 0.42438 0.78621 0.0
C1928 C 0.76242 0.37721 0.81286 0.0
C1929 C 0.78069 0.3974 0.81567 0.0
C1930 C 0.74596 0.37648 0.79578 0.0
C1931 C 0.74764 0.39638 0.78093 0.0
C1932 C 0.76642 0.41648 0.78341 0.0
C1933 C 0.78261 0.41676 0.80066 0.0
C1934 C 0.72623 0.35471 0.7939 0.0
C1935 C 0.76881 0.43826 0.76817 0.0
H1936 H 0.71726 0.37465 0.71571 0.0
H1937 H 0.66683 0.41999 0.7538 0.0
H1938 H 0.77527 0.38389 0.74439 0.0
H1939 H 0.76021 0.35401 0.75204 0.0
H1940 H 0.76005 0.36316 0.72574 0.0
H1941 H 0.67889 0.43495 0.78553 0.0
H1942 H 0.6969 0.40999 0.79871 0.0
H1943 H 0.71345 0.43859 0.78997 0.0
H1944 H 0.76092 0.36188 0.82408 0.0
H1945 H 0.79628 0.43271 0.80265 0.0
H1946 H 0.72803 0.3451 0.77895 0.0
H1947 H 0.70618 0.36286 0.79491 0.0
H1948 H 0.72858 0.3397 0.80587 0.0
H1949 H 0.77095 0.43012 0.75274 0.0
H1950 H 0.78571 0.45123 0.77133 0.0
H1951 H 0.75074 0.45023 0.76829 0.0
C1952 C 0.83536 0.51418 0.05905 0.0
C1953 C 0.85704 0.52873 0.06569 0.0
C1954 C 0.83649 0.49861 0.0415 0.0
C1955 C 0.85988 0.49736 0.03006 0.0
C1956 C 0.88158 0.51261 0.03629 0.0
C1957 C 0.87991 0.52804 0.05393 0.0
C1958 C 0.81282 0.48277 0.03556 0.0
C1959 C 0.90698 0.51181 0.02477 0.0
C1960 C 0.87136 0.43341 1.00197 0.0
C1961 C 0.86433 0.43944 0.98195 0.0
C1962 C 0.87054 0.45212 0.01744 0.0
C1963 C 0.86246 0.47794 0.01307 0.0
C1964 C 0.85607 0.48454 0.99278 0.0
C1965 C 0.85717 0.46524 0.97743 0.0
C1966 C 0.87771 0.44391 0.03866 0.0
C1967 C 0.84729 0.51178 0.98744 0.0
H1968 H 0.81738 0.51486 0.06766 0.0
H1969 H 0.89689 0.53894 0.05885 0.0
H1970 H 0.80792 0.48621 0.01947 0.0
H1971 H 0.81716 0.46165 0.03727 0.0
H1972 H 0.79545 0.48752 0.04492 0.0
H1973 H 0.92114 0.52663 0.03027 0.0
H1974 H 0.91596 0.49219 0.02634 0.0
H1975 H 0.90343 0.51513 1.00845 0.0
H1976 H 0.87726 0.41366 1.00574 0.0
H1977 H 0.85158 0.47013 0.96211 0.0
H1978 H 0.86049 0.44598 0.04871 0.0
H1979 H 0.89329 0.45678 0.0447 0.0
H1980 H 0.88459 0.42335 0.03943 0.0
H1981 H 0.82847 0.51606 0.99506 0.0
H1982 H 0.84465 0.51437 0.97091 0.0
H1983 H 0.86171 0.52631 0.99292 0.0
C1984 C 0.79054 0.61611 0.22957 0.0
C1985 C 0.81485 0.60424 0.23301 0.0
C1986 C 0.77125 0.61693 0.24493 0.0
C1987 C 0.77638 0.60569 0.26418 0.0
C1988 C 0.80062 0.59307 0.2674 0.0
C1989 C 0.81925 0.5923 0.25185 0.0
C1990 C 0.74567 0.63052 0.24079 0.0
C1991 C 0.80722 0.58074 0.2875 0.0
C1992 C 0.74237 0.62787 0.31278 0.0
C1993 C 0.72473 0.60736 0.31649 0.0
C1994 C 0.75841 0.62814 0.29543 0.0
C1995 C 0.75698 0.60741 0.28126 0.0
C1996 C 0.73877 0.587 0.28463 0.0
C1997 C 0.72297 0.58721 0.3021 0.0
C1998 C 0.77759 0.65024 0.29265 0.0
C1999 C 0.73662 0.56436 0.27014 0.0
H2000 H 0.78692 0.6255 0.21517 0.0
H2001 H 0.83772 0.58261 0.25469 0.0
H2002 H 0.72911 0.61733 0.24436 0.0
H2003 H 0.74384 0.64788 0.25072 0.0
H2004 H 0.74396 0.63695 0.22483 0.0
H2005 H 0.82758 0.57329 0.28801 0.0
H2006 H 0.80475 0.59513 0.29987 0.0
H2007 H 0.7937 0.56427 0.29053 0.0
H2008 H 0.74376 0.64378 0.3235 0.0
H2009 H 0.70978 0.57103 0.30478 0.0
H2010 H 0.77554 0.6588 0.27734 0.0
H2011 H 0.79783 0.64264 0.29395 0.0
H2012 H 0.77489 0.66595 0.30402 0.0
H2013 H 0.73438 0.57159 0.25444 0.0
H2014 H 0.71987 0.55139 0.27375 0.0
H2015 H 0.75482 0.55261 0.27068 0.0
C2016 C 0.62651 0.49025 0.56187 0.0
C2017 C 0.64841 0.47471 0.56635 0.0
C2018 C 0.62592 0.50666 0.54474 0.0
C2019 C 0.64774 0.50775 0.53156 0.0
C2020 C 0.66962 0.49161 0.53567 0.0
C2021 C 0.6697 0.4754 0.55292 0.0
C2022 C 0.60221 0.52355 0.54112 0.0
C2023 C 0.69341 0.49213 0.52222 0.0
C2024 C 0.63966 0.54146 0.47987 0.0
C2025 C 0.64884 0.56673 0.48403 0.0
C2026 C 0.63949 0.52188 0.49502 0.0
C2027 C 0.64872 0.52765 0.51479 0.0
C2028 C 0.6586 0.55294 0.51881 0.0
C2029 C 0.65867 0.57191 0.50349 0.0
C2030 C 0.6289 0.49517 0.49003 0.0
C2031 C 0.66881 0.56023 0.53946 0.0
H2032 H 0.60973 0.4897 0.57182 0.0
H2033 H 0.68693 0.46387 0.55621 0.0
H2034 H 0.60761 0.54443 0.54282 0.0
H2035 H 0.59497 0.52086 0.52547 0.0
H2036 H 0.58608 0.5191 0.5518 0.0
H2037 H 0.70771 0.47666 0.52623 0.0
H2038 H 0.68762 0.4896 0.5062 0.0
H2039 H 0.7032 0.51138 0.52351 0.0
H2040 H 0.63197 0.53719 0.46499 0.0
H2041 H 0.66626 0.59116 0.50695 0.0
H2042 H 0.61127 0.49123 0.49927 0.0
H2043 H 0.64354 0.47997 0.49384 0.0
H2044 H 0.62364 0.49329 0.47383 0.0
H2045 H 0.65374 0.55637 0.55112 0.0
H2046 H 0.67453 0.58112 0.54043 0.0
H2047 H 0.68608 0.54806 0.54319 0.0
C2048 C 0.24342 0.42004 0.31027 0.0
C2049 C 0.22625 0.39967 0.31547 0.0
C2050 C 0.25914 0.4188 0.29281 0.0
C2051 C 0.25788 0.39661 0.28002 0.0
C2052 C 0.24009 0.3763 0.28485 0.0
C2053 C 0.22455 0.37807 0.30241 0.0
C2054 C 0.27772 0.44098 0.28837 0.0
C2055 C 0.23826 0.35213 0.2719 0.0
C2056 C 0.29093 0.40107 0.22786 0.0
C2057 C 0.31581 0.39095 0.23208 0.0
C2058 C 0.27158 0.40259 0.24314 0.0
C2059 C 0.27713 0.3935 0.26299 0.0
C2060 C 0.30187 0.38226 0.26694 0.0
C2061 C 0.32075 0.38127 0.25159 0.0
C2062 C 0.24554 0.41481 0.23826 0.0
C2063 C 0.30888 0.37207 0.28766 0.0
H2064 H 0.24465 0.43708 0.31992 0.0
H2065 H 0.21162 0.36206 0.30624 0.0
H2066 H 0.29817 0.43406 0.28991 0.0
H2067 H 0.27517 0.4478 0.2726 0.0
H2068 H 0.27484 0.4578 0.29871 0.0
H2069 H 0.22189 0.33921 0.27653 0.0
H2070 H 0.23558 0.35757 0.25582 0.0
H2071 H 0.25676 0.34092 0.27299 0.0
H2072 H 0.28697 0.40879 0.21294 0.0
H2073 H 0.33982 0.3732 0.25504 0.0
H2074 H 0.2433 0.43326 0.24687 0.0
H2075 H 0.22941 0.40165 0.24293 0.0
H2076 H 0.24345 0.41919 0.22191 0.0
H2077 H 0.31052 0.38865 0.29837 0.0
H2078 H 0.32769 0.36128 0.28767 0.0
H2079 H 0.29338 0.35888 0.2934 0.0
C2080 C 0.33602 0.49075 0.05996 0.0
C2081 C 0.35716 0.47492 0.06585 0.0
C2082 C 0.33727 0.50663 0.04258 0.0
C2083 C 0.36022 0.5069 0.0306 0.0
C2084 C 0.38134 0.49041 0.0361 0.0
C2085 C 0.37955 0.47468 0.05356 0.0
C2086 C 0.31423 0.52379 0.0374 0.0
C2087 C 0.40628 0.49014 0.02396 0.0
C2088 C 0.35698 0.53986 0.97836 0.0
C2089 C 0.36569 0.56519 0.98287 0.0
C2090 C 0.35553 0.52044 0.99358 0.0
C2091 C 0.36309 0.52642 0.01373 0.0
C2092 C 0.37268 0.55172 0.01809 0.0
C2093 C 0.37386 0.57058 1.00273 0.0
C2094 C 0.34511 0.49377 0.98827 0.0
C2095 C 0.38105 0.55924 0.03919 0.0
H2096 H 0.31839 0.49082 0.069 0.0
H2097 H 0.39612 0.46278 0.05793 0.0
H2098 H 0.31975 0.54463 0.03915 0.0
H2099 H 0.30846 0.52088 0.02141 0.0
H2100 H 0.29705 0.51982 0.04717 0.0
H2101 H 0.41991 0.47457 0.029 0.0
H2102 H 0.4019 0.48723 1.00771 0.0
H2103 H 0.41625 0.50929 0.02544 0.0
H2104 H 0.35044 0.53549 0.96317 0.0
H2105 H 0.3809 0.58995 1.00649 0.0
H2106 H 0.32641 0.49038 0.99632 0.0
H2107 H 0.35896 0.47842 0.99329 0.0
H2108 H 0.34167 0.49156 0.9718 0.0
H2109 H 0.36412 0.55802 0.0496 0.0
H2110 H 0.38909 0.57939 0.03993 0.0
H2111 H 0.39611 0.54545 0.04481 0.0
C2112 C 0.21288 0.61466 0.72982 0.0
C2113 C 0.18752 0.60563 0.73384 0.0
C2114 C 0.23228 0.6149 0.74511 0.0
C2115 C 0.22624 0.60588 0.76489 0.0
C2116 C 0.20084 0.59622 0.7688 0.0
C2117 C 0.18204 0.59609 0.75334 0.0
C2118 C 0.2591 0.62531 0.74025 0.0
C2119 C 0.19325 0.58629 0.78947 0.0
C2120 C 0.2782 0.58471 0.80319 0.0
C2121 C 0.27902 0.60605 0.81657 0.0
C2122 C 0.26201 0.58482 0.78594 0.0
C2123 C 0.24602 0.60678 0.78175 0.0
C2124 C 0.2472 0.62863 0.79489 0.0
C2125 C 0.26359 0.62802 0.81204 0.0
C2126 C 0.26135 0.56097 0.77255 0.0
C2127 C 0.23048 0.65244 0.79119 0.0
H2128 H 0.21739 0.62213 0.71491 0.0
H2129 H 0.16271 0.58866 0.75673 0.0
H2130 H 0.26312 0.64288 0.74954 0.0
H2131 H 0.27417 0.61054 0.7441 0.0
H2132 H 0.26115 0.6306 0.72406 0.0
H2133 H 0.17241 0.58033 0.79026 0.0
H2134 H 0.20555 0.56925 0.79355 0.0
H2135 H 0.19669 0.60162 0.801 0.0
H2136 H 0.28964 0.56744 0.80653 0.0
H2137 H 0.26422 0.64482 0.82196 0.0
H2138 H 0.26412 0.56664 0.75653 0.0
H2139 H 0.24195 0.55142 0.77373 0.0
H2140 H 0.2766 0.54649 0.77671 0.0
H2141 H 0.23324 0.65958 0.77552 0.0
H2142 H 0.23502 0.66859 0.80182 0.0
H2143 H 0.20956 0.6472 0.79289 0.0
C2144 C 0.12623 0.52599 0.55521 0.0
C2145 C 0.14985 0.52922 0.56577 0.0
C2146 C 0.12475 0.5104 0.53766 0.0
C2147 C 0.1474 0.49756 0.53032 0.0
C2148 C 0.17145 0.50144 0.5405 0.0
C2149 C 0.17239 0.51716 0.55798 0.0
C2150 C 0.09863 0.50674 0.52748 0.0
C2151 C 0.19613 0.48819 0.53336 0.0
C2152 C 0.13969 0.43234 0.50329 0.0
C2153 C 0.14391 0.4387 0.48285 0.0
C2154 C 0.14037 0.45127 0.51859 0.0
C2155 C 0.1454 0.47767 0.51363 0.0
C2156 C 0.14913 0.48452 0.49301 0.0
C2157 C 0.14826 0.46497 0.47783 0.0
C2158 C 0.13619 0.44277 0.54022 0.0
C2159 C 0.15458 0.51241 0.48705 0.0
H2160 H 0.10859 0.53493 0.56104 0.0
H2161 H 0.1909 0.51985 0.56563 0.0
H2162 H 0.1004 0.51008 0.51099 0.0
H2163 H 0.09191 0.48633 0.52965 0.0
H2164 H 0.08351 0.52013 0.5336 0.0
H2165 H 0.21367 0.49503 0.5417 0.0
H2166 H 0.19433 0.46676 0.53547 0.0
H2167 H 0.19912 0.49177 0.51701 0.0
H2168 H 0.13596 0.41224 0.50752 0.0
H2169 H 0.1516 0.47016 0.46219 0.0
H2170 H 0.12025 0.45433 0.5472 0.0
H2171 H 0.15418 0.4464 0.54913 0.0
H2172 H 0.13119 0.42171 0.54146 0.0
H2173 H 0.13905 0.52543 0.49298 0.0
H2174 H 0.1558 0.51488 0.47041 0.0
H2175 H 0.1733 0.51887 0.49385 0.0
C2176 C 0.22855 0.62364 0.21698 0.0
C2177 C 0.22745 0.60027 0.20583 0.0
C2178 C 0.24373 0.62572 0.23473 0.0
C2179 C 0.25838 0.60397 0.24166 0.0
C2180 C 0.25669 0.58011 0.23087 0.0
C2181 C 0.24131 0.57854 0.21323 0.0
C2182 C 0.24497 0.65161 0.24557 0.0
C2183 C 0.27196 0.55638 0.23753 0.0
C2184 C 0.3225 0.61584 0.26946 0.0
C2185 C 0.31637 0.60999 0.2897 0.0
C2186 C 0.30379 0.61443 0.25401 0.0
C2187 C 0.27785 0.60697 0.2586 0.0
C2188 C 0.27116 0.60172 0.27906 0.0
C2189 C 0.29047 0.60337 0.29439 0.0
C2190 C 0.31207 0.62037 0.23259 0.0
C2191 C 0.24377 0.59369 0.28464 0.0
H2192 H 0.21824 0.64069 0.21148 0.0
H2193 H 0.2403 0.56019 0.20513 0.0
H2194 H 0.24166 0.64885 0.26198 0.0
H2195 H 0.26472 0.6602 0.24372 0.0
H2196 H 0.23034 0.66574 0.23971 0.0
H2197 H 0.26681 0.53869 0.22869 0.0
H2198 H 0.29318 0.56013 0.23572 0.0
H2199 H 0.26841 0.55238 0.25376 0.0
H2200 H 0.34231 0.62133 0.26552 0.0
H2201 H 0.28547 0.59871 0.30988 0.0
H2202 H 0.29963 0.63603 0.22616 0.0
H2203 H 0.30948 0.60278 0.22301 0.0
H2204 H 0.3328 0.62663 0.2316 0.0
H2205 H 0.22951 0.60816 0.27881 0.0
H2206 H 0.24118 0.59181 0.30123 0.0
H2207 H 0.2391 0.57465 0.2775 0.0
C2208 C 0.16548 0.49715 0.95992 0.0
C2209 C 0.14997 0.47468 0.95761 0.0
C2210 C 0.16385 0.51289 0.97734 0.0
C2211 C 0.14619 0.50624 0.99302 0.0
C2212 C 0.13089 0.48329 0.99102 0.0
C2213 C 0.13299 0.46782 0.97344 0.0
C2214 C 0.18064 0.53708 0.97874 0.0
C2215 C 0.11162 0.47551 1.00717 0.0
C2216 C 0.15477 0.54178 0.04376 0.0
C2217 C 0.1376 0.56295 0.04148 0.0
C2218 C 0.15725 0.52262 0.02845 0.0
C2219 C 0.14212 0.52459 1.0105 0.0
C2220 C 0.12386 0.54523 1.0087 0.0
C2221 C 0.12187 0.564 0.02409 0.0
C2222 C 0.17698 0.50101 0.03103 0.0
C2223 C 0.10719 0.54828 0.99002 0.0
H2224 H 0.17903 0.50247 0.94805 0.0
H2225 H 0.12072 0.4507 0.97186 0.0
H2226 H 0.16806 0.55473 0.97868 0.0
H2227 H 0.19171 0.53713 0.99314 0.0
H2228 H 0.19471 0.53859 0.96603 0.0
H2229 H 0.1027 0.45611 1.00419 0.0
H2230 H 0.12135 0.47499 0.02213 0.0
H2231 H 0.0958 0.49028 1.00805 0.0
H2232 H 0.16724 0.54093 0.05697 0.0
H2233 H 0.10844 0.58018 0.02214 0.0
H2234 H 0.19315 0.50375 0.02008 0.0
H2235 H 0.1679 0.48179 0.02779 0.0
H2236 H 0.18534 0.5006 0.04651 0.0
H2237 H 0.11982 0.55281 0.97686 0.0
H2238 H 0.09253 0.56414 0.9916 0.0
H2239 H 0.09681 0.52977 0.98663 0.0
C2240 C 0.26437 0.37593 0.71123 0.0
C2241 C 0.28261 0.39603 0.70791 0.0
C2242 C 0.24841 0.3755 0.7286 0.0
C2243 C 0.25055 0.39563 0.74322 0.0
C2244 C 0.26941 0.41555 0.74029 0.0
C2245 C 0.2851 0.41553 0.72276 0.0
C2246 C 0.22856 0.35391 0.73094 0.0
C2247 C 0.27235 0.43754 0.75529 0.0
C2248 C 0.18858 0.41128 0.77277 0.0
C2249 C 0.19262 0.39859 0.79137 0.0
C2250 C 0.20735 0.41078 0.75732 0.0
C2251 C 0.23121 0.39736 0.76032 0.0
C2252 C 0.23594 0.38524 0.77931 0.0
C2253 C 0.21662 0.38603 0.79464 0.0
C2254 C 0.20126 0.42414 0.73753 0.0
C2255 C 0.26109 0.37076 0.78318 0.0
H2256 H 0.26244 0.36048 0.70015 0.0
H2257 H 0.29877 0.43139 0.72041 0.0
H2258 H 0.23037 0.34475 0.74605 0.0
H2259 H 0.20856 0.36215 0.72981 0.0
H2260 H 0.23076 0.33853 0.71924 0.0
H2261 H 0.28955 0.45004 0.75197 0.0
H2262 H 0.25457 0.44994 0.75502 0.0
H2263 H 0.27431 0.42965 0.77082 0.0
H2264 H 0.17028 0.42136 0.77004 0.0
H2265 H 0.21992 0.37605 0.80884 0.0
H2266 H 0.20169 0.40972 0.72504 0.0
H2267 H 0.21632 0.43912 0.73421 0.0
H2268 H 0.18181 0.43373 0.73759 0.0
H2269 H 0.26241 0.35369 0.77292 0.0
H2270 H 0.26258 0.36375 0.79901 0.0
H2271 H 0.27806 0.38355 0.77988 0.0
C2272 C 0.36856 0.43109 0.5197 0.0
C2273 C 0.36201 0.43701 0.53984 0.0
C2274 C 0.36766 0.44996 0.50435 0.0
C2275 C 0.36 0.47584 0.50896 0.0
C2276 C 0.35401 0.48229 0.52934 0.0
C2277 C 0.35518 0.46283 0.54457 0.0
C2278 C 0.37436 0.4419 0.48301 0.0
C2279 C 0.34569 0.50959 0.53494 0.0
C2280 C 0.37795 0.52631 0.46854 0.0
C2281 C 0.35498 0.52764 0.45693 0.0
C2282 C 0.37951 0.51051 0.48599 0.0
C2283 C 0.3576 0.49554 0.49216 0.0
C2284 C 0.33414 0.49739 0.48087 0.0
C2285 C 0.33311 0.51333 0.46351 0.0
C2286 C 0.40502 0.50904 0.49736 0.0
C2287 C 0.31025 0.48186 0.48676 0.0
H2288 H 0.37427 0.41135 0.51578 0.0
H2289 H 0.34999 0.46765 0.55998 0.0
H2290 H 0.35684 0.44379 0.47325 0.0
H2291 H 0.38963 0.45494 0.47673 0.0
H2292 H 0.38144 0.42142 0.48211 0.0
H2293 H 0.34306 0.51195 0.55149 0.0
H2294 H 0.36039 0.52395 0.52963 0.0
H2295 H 0.32698 0.51435 0.52732 0.0
H2296 H 0.39509 0.53698 0.46365 0.0
H2297 H 0.31506 0.51449 0.45501 0.0
H2298 H 0.41357 0.48926 0.49558 0.0
H2299 H 0.4017 0.5122 0.51372 0.0
H2300 H 0.41942 0.52364 0.4919 0.0
H2301 H 0.31421 0.46069 0.48482 0.0
H2302 H 0.29289 0.48706 0.47753 0.0
H2303 H 0.30555 0.4851 0.50291 0.0
C2304 C 0.15186 0.29726 0.38902 0.0
C2305 C 0.1494 0.29688 0.41013 0.0
C2306 C 0.14964 0.27415 0.37758 0.0
C2307 C 0.14473 0.25004 0.38741 0.0
C2308 C 0.14329 0.2494 0.40875 0.0
C2309 C 0.14567 0.27273 0.41981 0.0
C2310 C 0.15145 0.27573 0.35487 0.0
C2311 C 0.138 0.22422 0.41991 0.0
C2312 C 0.10614 0.19857 0.35862 0.0
C2313 C 0.12557 0.18077 0.35281 0.0
C2314 C 0.11219 0.22104 0.36983 0.0
C2315 C 0.13842 0.22605 0.37541 0.0
C2316 C 0.15818 0.20802 0.36976 0.0
C2317 C 0.15151 0.18551 0.35857 0.0
C2318 C 0.09041 0.23948 0.37566 0.0
C2319 C 0.18635 0.21265 0.37539 0.0
H2320 H 0.15484 0.31571 0.38134 0.0
H2321 H 0.14385 0.27204 0.4361 0.0
H2322 H 0.16524 0.2608 0.34907 0.0
H2323 H 0.13204 0.27156 0.34815 0.0
H2324 H 0.15797 0.2953 0.34964 0.0
H2325 H 0.13982 0.22653 0.43652 0.0
H2326 H 0.11794 0.21737 0.41643 0.0
H2327 H 0.15171 0.20876 0.41488 0.0
H2328 H 0.08602 0.195 0.35431 0.0
H2329 H 0.16661 0.17185 0.3541 0.0
H2330 H 0.09422 0.25916 0.36931 0.0
H2331 H 0.08958 0.24152 0.39232 0.0
H2332 H 0.07103 0.23271 0.37022 0.0
H2333 H 0.19311 0.23147 0.36894 0.0
H2334 H 0.19939 0.19681 0.36993 0.0
H2335 H 0.18829 0.21414 0.39203 0.0
C2336 C 0.05587 0.85607 0.60922 0.0
C2337 C 0.07344 0.87572 0.60341 0.0
C2338 C 0.03346 0.86176 0.62062 0.0
C2339 C 0.02823 0.88786 0.62643 0.0
C2340 C 0.04604 0.90785 0.6208 0.0
C2341 C 0.0685 0.90154 0.60939 0.0
C2342 C 0.01527 0.83974 0.62637 0.0
C2343 C 0.04122 0.9359 0.62668 0.0
C2344 C 0.95687 0.90059 0.64016 0.0
C2345 C 0.95721 0.89792 0.66126 0.0
C2346 C 0.98 0.89865 0.62871 0.0
C2347 C 0.00416 0.89382 0.63851 0.0
C2348 C 0.00476 0.89211 0.65985 0.0
C2349 C 0.98139 0.8942 0.67092 0.0
C2350 C 0.97841 0.90071 0.60601 0.0
C2351 C 0.02998 0.8869 0.67098 0.0
H2352 H 0.05957 0.83604 0.60476 0.0
H2353 H 0.08197 0.91682 0.60494 0.0
H2354 H 0.0133 0.83873 0.64303 0.0
H2355 H 0.99552 0.84342 0.62009 0.0
H2356 H 0.02222 0.82048 0.62081 0.0
H2357 H 0.05696 0.94912 0.62131 0.0
H2358 H 0.02234 0.94261 0.62028 0.0
H2359 H 0.03973 0.93757 0.64333 0.0
H2360 H 0.93841 0.90357 0.63248 0.0
H2361 H 0.98206 0.89219 0.6872 0.0
H2362 H 0.98284 0.88143 0.59916 0.0
H2363 H 0.99317 0.91476 0.60032 0.0
H2364 H 0.95877 0.90703 0.60081 0.0
H2365 H 0.03701 0.86694 0.66736 0.0
H2366 H 0.02764 0.8885 0.6876 0.0
H2367 H 0.04533 0.9008 0.66605 0.0
C2368 C 0.35195 0.81824 0.8577 0.0
C2369 C 0.3777 0.82278 0.85138 0.0
C2370 C 0.34549 0.79572 0.86897 0.0
C2371 C 0.36527 0.77747 0.87415 0.0
C2372 C 0.3913 0.78221 0.86791 0.0
C2373 C 0.39714 0.80468 0.85662 0.0
C2374 C 0.31751 0.79139 0.87527 0.0
C2375 C 0.41312 0.76356 0.87323 0.0
C2376 C 0.35948 0.73152 0.91916 0.0
C2377 C 0.35516 0.70722 0.90984 0.0
C2378 C 0.3616 0.75465 0.90782 0.0
C2379 C 0.35926 0.75369 0.88653 0.0
C2380 C 0.35372 0.72945 0.87708 0.0
C2381 C 0.35181 0.70653 0.88881 0.0
C2382 C 0.36762 0.77994 0.91858 0.0
C2383 C 0.35088 0.72753 0.85445 0.0
H2384 H 0.33684 0.83212 0.85367 0.0
H2385 H 0.41712 0.80807 0.85187 0.0
H2386 H 0.31042 0.77242 0.86929 0.0
H2387 H 0.31619 0.79038 0.89197 0.0
H2388 H 0.30435 0.80715 0.86983 0.0
H2389 H 0.4323 0.77002 0.86718 0.0
H2390 H 0.41475 0.76171 0.88987 0.0
H2391 H 0.40875 0.74384 0.86716 0.0
H2392 H 0.36201 0.73247 0.93539 0.0
H2393 H 0.34836 0.68798 0.8814 0.0
H2394 H 0.3538 0.79545 0.9138 0.0
H2395 H 0.38756 0.78658 0.91449 0.0
H2396 H 0.36656 0.7779 0.93526 0.0
H2397 H 0.33705 0.74257 0.84886 0.0
H2398 H 0.34387 0.70798 0.84959 0.0
H2399 H 0.37004 0.73132 0.84719 0.0
C2400 C 0.44835 0.14675 0.10826 0.0
C2401 C 0.43027 0.12723 0.10314 0.0
C2402 C 0.47035 0.14126 0.12019 0.0
C2403 C 0.4746 0.11552 0.12728 0.0
C2404 C 0.45624 0.09571 0.1224 0.0
C2405 C 0.43423 0.10181 0.11041 0.0
C2406 C 0.48919 0.16309 0.12506 0.0
C2407 C 0.46001 0.06804 0.12968 0.0
C2408 C 0.54546 0.10144 0.14155 0.0
C2409 C 0.54535 0.10582 0.16249 0.0
C2410 C 0.52236 0.10327 0.13006 0.0
C2411 C 0.49845 0.10969 0.13964 0.0
C2412 C 0.49802 0.1131 0.16086 0.0
C2413 C 0.52138 0.11112 0.17199 0.0
C2414 C 0.52378 0.0994 0.10749 0.0
C2415 C 0.47304 0.12001 0.17174 0.0
H2416 H 0.4454 0.1665 0.10282 0.0
H2417 H 0.42032 0.08665 0.10654 0.0
H2418 H 0.49113 0.16525 0.14165 0.0
H2419 H 0.50885 0.15834 0.11903 0.0
H2420 H 0.48289 0.18212 0.11863 0.0
H2421 H 0.44376 0.05501 0.12497 0.0
H2422 H 0.4786 0.06011 0.12363 0.0
H2423 H 0.4615 0.0677 0.14638 0.0
H2424 H 0.56373 0.0972 0.13397 0.0
H2425 H 0.52088 0.11445 0.18814 0.0
H2426 H 0.51992 0.11823 0.09976 0.0
H2427 H 0.50857 0.0854 0.10248 0.0
H2428 H 0.54319 0.09207 0.10257 0.0
H2429 H 0.46673 0.13992 0.16727 0.0
H2430 H 0.47537 0.11952 0.18841 0.0
H2431 H 0.45718 0.10634 0.16742 0.0
C2432 C 0.10512 0.8053 0.16413 0.0
C2433 C 0.12473 0.82301 0.16977 0.0
C2434 C 0.11076 0.78318 0.15238 0.0
C2435 C 0.13674 0.77844 0.14602 0.0
C2436 C 0.15664 0.79646 0.1514 0.0
C2437 C 0.1504 0.81859 0.16319 0.0
C2438 C 0.08884 0.7647 0.14695 0.0
C2439 C 0.18455 0.79218 0.14491 0.0
C2440 C 0.15054 0.70734 0.13242 0.0
C2441 C 0.14723 0.70739 0.11136 0.0
C2442 C 0.14839 0.7305 0.14378 0.0
C2443 C 0.14274 0.75443 0.13392 0.0
C2444 C 0.14039 0.7548 0.11262 0.0
C2445 C 0.14266 0.73136 0.10163 0.0
C2446 C 0.15111 0.72916 0.16644 0.0
C2447 C 0.13436 0.7798 0.10146 0.0
H2448 H 0.0852 0.80862 0.16905 0.0
H2449 H 0.16564 0.8322 0.16749 0.0
H2450 H 0.08744 0.76268 0.13032 0.0
H2451 H 0.09294 0.74501 0.1532 0.0
H2452 H 0.06963 0.77139 0.1528 0.0
H2453 H 0.19763 0.80826 0.14986 0.0
H2454 H 0.19191 0.77353 0.15128 0.0
H2455 H 0.18563 0.7905 0.12823 0.0
H2456 H 0.15419 0.68906 0.14018 0.0
H2457 H 0.14016 0.73181 0.08539 0.0
H2458 H 0.13198 0.73341 0.1736 0.0
H2459 H 0.16513 0.74415 0.17182 0.0
H2460 H 0.15785 0.70966 0.17166 0.0
H2461 H 0.11435 0.78644 0.10536 0.0
H2462 H 0.13555 0.77735 0.08482 0.0
H2463 H 0.14806 0.79547 0.10609 0.0
C2464 C 0.54675 0.90054 0.38533 0.0
C2465 C 0.54621 0.89784 0.36424 0.0
C2466 C 0.52373 0.89847 0.39692 0.0
C2467 C 0.49951 0.89344 0.38725 0.0
C2468 C 0.49873 0.89162 0.36593 0.0
C2469 C 0.52197 0.89388 0.35473 0.0
C2470 C 0.5255 0.90068 0.41959 0.0
C2471 C 0.47346 0.88615 0.35495 0.0
C2472 C 0.44806 0.85564 0.41676 0.0
C2473 C 0.43033 0.87522 0.42241 0.0
C2474 C 0.47048 0.86138 0.40539 0.0
C2475 C 0.47556 0.88746 0.39945 0.0
C2476 C 0.45762 0.90739 0.40496 0.0
C2477 C 0.43514 0.90102 0.41632 0.0
C2478 C 0.48879 0.83941 0.39974 0.0
C2479 C 0.4623 0.93542 0.39898 0.0
H2480 H 0.56526 0.90371 0.3929 0.0
H2481 H 0.52115 0.89184 0.33846 0.0
H2482 H 0.51072 0.9147 0.4253 0.0
H2483 H 0.5212 0.88143 0.42655 0.0
H2484 H 0.54515 0.90712 0.42468 0.0
H2485 H 0.47567 0.88753 0.3383 0.0
H2486 H 0.46654 0.86621 0.35876 0.0
H2487 H 0.45809 0.90005 0.35982 0.0
H2488 H 0.44446 0.83562 0.4213 0.0
H2489 H 0.42154 0.91625 0.42065 0.0
H2490 H 0.50855 0.84328 0.40594 0.0
H2491 H 0.4907 0.83824 0.38308 0.0
H2492 H 0.482 0.82017 0.40544 0.0
H2493 H 0.48124 0.94221 0.40521 0.0
H2494 H 0.44658 0.94863 0.40441 0.0
H2495 H 0.46359 0.93702 0.38231 0.0
C2496 C 0.35336 0.29573 0.63393 0.0
C2497 C 0.35599 0.29517 0.61283 0.0
C2498 C 0.35542 0.27273 0.64552 0.0
C2499 C 0.36031 0.2485 0.63585 0.0
C2500 C 0.36189 0.24767 0.61451 0.0
C2501 C 0.3597 0.27091 0.60331 0.0
C2502 C 0.35348 0.27454 0.66821 0.0
C2503 C 0.36714 0.22236 0.60353 0.0
C2504 C 0.39872 0.19741 0.66521 0.0
C2505 C 0.37925 0.17975 0.67121 0.0
C2506 C 0.39274 0.21967 0.65373 0.0
C2507 C 0.36654 0.22463 0.64804 0.0
C2508 C 0.34674 0.20672 0.65385 0.0
C2509 C 0.35334 0.18441 0.66533 0.0
C2510 C 0.41457 0.23798 0.64777 0.0
C2511 C 0.3186 0.21127 0.64809 0.0
H2512 H 0.35039 0.31426 0.6415 0.0
H2513 H 0.36164 0.27008 0.58703 0.0
H2514 H 0.33963 0.25969 0.67405 0.0
H2515 H 0.37285 0.2704 0.67502 0.0
H2516 H 0.34697 0.29416 0.6733 0.0
H2517 H 0.36534 0.22451 0.5869 0.0
H2518 H 0.3872 0.21552 0.60706 0.0
H2519 H 0.35341 0.20698 0.60865 0.0
H2520 H 0.41882 0.1939 0.66959 0.0
H2521 H 0.33821 0.17086 0.66993 0.0
H2522 H 0.41078 0.25776 0.65395 0.0
H2523 H 0.41543 0.2398 0.63109 0.0
H2524 H 0.43393 0.23125 0.65328 0.0
H2525 H 0.3118 0.23014 0.65442 0.0
H2526 H 0.30555 0.19547 0.6536 0.0
H2527 H 0.31676 0.21262 0.63144 0.0
C2528 C 0.05646 0.15007 0.91449 0.0
C2529 C 0.07415 0.13057 0.9204 0.0
C2530 C 0.03426 0.14416 0.90292 0.0
C2531 C 0.02943 0.11802 0.89702 0.0
C2532 C 0.04739 0.09821 0.90271 0.0
C2533 C 0.0696 0.10473 0.91431 0.0
C2534 C 0.01583 0.16597 0.89713 0.0
C2535 C 0.04299 0.07013 0.89671 0.0
C2536 C 0.95837 0.10409 0.88336 0.0
C2537 C 0.95861 0.10682 0.86227 0.0
C2538 C 0.98146 0.10648 0.89479 0.0
C2539 C 0.00548 0.11177 0.88495 0.0
C2540 C 0.00602 0.11354 0.86361 0.0
C2541 C 0.98266 0.11104 0.85257 0.0
C2542 C 0.97995 0.10438 0.91748 0.0
C2543 C 0.03112 0.11918 0.85247 0.0
H2544 H 0.05989 0.17011 0.91904 0.0
H2545 H 0.0832 0.08958 0.91882 0.0
H2546 H 0.01389 0.16697 0.88047 0.0
H2547 H 0.99611 0.16206 0.90337 0.0
H2548 H 0.02253 0.1853 0.90272 0.0
H2549 H 0.05895 0.05711 0.90199 0.0
H2550 H 0.02424 0.06309 0.9031 0.0
H2551 H 0.04147 0.06856 0.88005 0.0
H2552 H 0.94 0.10073 0.89107 0.0
H2553 H 0.98323 0.11309 0.83629 0.0
H2554 H 0.98418 0.12369 0.92434 0.0
H2555 H 0.99489 0.0905 0.92315 0.0
H2556 H 0.96041 0.09782 0.92272 0.0
H2557 H 0.03783 0.13924 0.85611 0.0
H2558 H 0.02877 0.11758 0.83585 0.0
H2559 H 0.0467 0.10552 0.85737 0.0
C2560 C 0.85391 0.81702 0.66528 0.0
C2561 C 0.87965 0.82225 0.67132 0.0
C2562 C 0.84787 0.79448 0.6539 0.0
C2563 C 0.86806 0.77689 0.64831 0.0
C2564 C 0.8941 0.78241 0.65415 0.0
C2565 C 0.89952 0.80489 0.66556 0.0
C2566 C 0.81987 0.78934 0.64801 0.0
C2567 C 0.91632 0.76447 0.64842 0.0
C2568 C 0.85534 0.70551 0.63458 0.0
C2569 C 0.85758 0.70592 0.61345 0.0
C2570 C 0.85759 0.7286 0.64605 0.0
C2571 C 0.86233 0.75277 0.63624 0.0
C2572 C 0.8638 0.75341 0.6149 0.0
C2573 C 0.86138 0.73009 0.6038 0.0
C2574 C 0.85577 0.72698 0.66876 0.0
C2575 C 0.86895 0.77863 0.60377 0.0
H2576 H 0.83846 0.83033 0.66969 0.0
H2577 H 0.9195 0.80884 0.67006 0.0
H2578 H 0.81821 0.78786 0.63135 0.0
H2579 H 0.81338 0.77038 0.65438 0.0
H2580 H 0.80646 0.80492 0.65338 0.0
H2581 H 0.9355 0.77165 0.65396 0.0
H2582 H 0.91288 0.74469 0.65472 0.0
H2583 H 0.91734 0.76247 0.63176 0.0
H2584 H 0.85232 0.68706 0.64224 0.0
H2585 H 0.8631 0.7308 0.58751 0.0
H2586 H 0.84153 0.74152 0.67451 0.0
H2587 H 0.87502 0.73173 0.67552 0.0
H2588 H 0.8498 0.70725 0.674 0.0
H2589 H 0.85487 0.79388 0.60859 0.0
H2590 H 0.86753 0.77626 0.58714 0.0
H2591 H 0.88881 0.78584 0.60751 0.0
C2592 C 0.02186 0.11001 0.35272 0.0
C2593 C 0.04595 0.10595 0.36243 0.0
C2594 C 0.99847 0.11227 0.36375 0.0
C2595 C 0.999 0.11042 0.38508 0.0
C2596 C 0.02305 0.10522 0.39492 0.0
C2597 C 0.04618 0.10307 0.38351 0.0
C2598 C 0.97336 0.11783 0.35259 0.0
C2599 C 0.02454 0.10303 0.41761 0.0
C2600 C 0.94801 0.14878 0.41456 0.0
C2601 C 0.93029 0.12932 0.42048 0.0
C2602 C 0.97021 0.14283 0.40301 0.0
C2603 C 0.97503 0.11668 0.39714 0.0
C2604 C 0.95701 0.09691 0.40281 0.0
C2605 C 0.93479 0.10347 0.4144 0.0
C2606 C 0.98867 0.16462 0.39723 0.0
C2607 C 0.96139 0.06882 0.39683 0.0
H2608 H 0.02129 0.11215 0.33645 0.0
H2609 H 0.06457 0.09982 0.39123 0.0
H2610 H 0.95779 0.10418 0.35752 0.0
H2611 H 0.96663 0.1379 0.35617 0.0
H2612 H 0.9757 0.11616 0.33597 0.0
H2613 H 0.04407 0.0964 0.42283 0.0
H2614 H 0.02037 0.12233 0.42451 0.0
H2615 H 0.00957 0.08917 0.42325 0.0
H2616 H 0.94463 0.16884 0.4191 0.0
H2617 H 0.92118 0.08835 0.41892 0.0
H2618 H 0.99063 0.16561 0.38057 0.0
H2619 H 0.00839 0.16069 0.4035 0.0
H2620 H 0.98198 0.18396 0.4028 0.0
H2621 H 0.96298 0.06723 0.38018 0.0
H2622 H 0.94538 0.05584 0.40208 0.0
H2623 H 0.9801 0.06175 0.40329 0.0
C2624 C 0.63663 0.27112 0.10073 0.0
C2625 C 0.64787 0.29344 0.10953 0.0
C2626 C 0.63367 0.24779 0.11167 0.0
C2627 C 0.64253 0.24644 0.13189 0.0
C2628 C 0.65516 0.26844 0.14052 0.0
C2629 C 0.65744 0.29174 0.12933 0.0
C2630 C 0.61961 0.2251 0.10196 0.0
C2631 C 0.66532 0.26771 0.1619 0.0
C2632 C 0.60596 0.2031 0.16882 0.0
C2633 C 0.62228 0.1812 0.17037 0.0
C2634 C 0.61209 0.224 0.15601 0.0
C2635 C 0.63555 0.22342 0.14472 0.0
C2636 C 0.65199 0.2011 0.14592 0.0
C2637 C 0.64499 0.18004 0.15861 0.0
C2638 C 0.59356 0.24694 0.15485 0.0
C2639 C 0.67733 0.19989 0.13437 0.0
H2640 H 0.62907 0.27214 0.08546 0.0
H2641 H 0.66635 0.30875 0.13623 0.0
H2642 H 0.63088 0.20679 0.10397 0.0
H2643 H 0.6004 0.22229 0.10941 0.0
H2644 H 0.61626 0.22826 0.08557 0.0
H2645 H 0.67755 0.28502 0.16551 0.0
H2646 H 0.64864 0.26718 0.17259 0.0
H2647 H 0.67704 0.24977 0.16443 0.0
H2648 H 0.58831 0.204 0.17784 0.0
H2649 H 0.65777 0.16326 0.15998 0.0
H2650 H 0.58799 0.25069 0.13892 0.0
H2651 H 0.60335 0.26479 0.16057 0.0
H2652 H 0.57548 0.24373 0.16378 0.0
H2653 H 0.67381 0.20348 0.11808 0.0
H2654 H 0.68729 0.18074 0.13613 0.0
H2655 H 0.69063 0.21551 0.1398 0.0
C2656 C 0.48169 0.89146 0.85355 0.0
C2657 C 0.45765 0.89633 0.86309 0.0
C2658 C 0.50506 0.88945 0.86468 0.0
C2659 C 0.50457 0.89246 0.88594 0.0
C2660 C 0.48054 0.89829 0.89559 0.0
C2661 C 0.45744 0.9001 0.88409 0.0
C2662 C 0.53014 0.88311 0.85374 0.0
C2663 C 0.47906 0.90174 0.91819 0.0
C2664 C 0.55562 0.85629 0.91711 0.0
C2665 C 0.57328 0.87616 0.92228 0.0
C2666 C 0.53348 0.86135 0.90521 0.0
C2667 C 0.5286 0.88704 0.89825 0.0
C2668 C 0.54654 0.90723 0.90319 0.0
C2669 C 0.56873 0.90154 0.9151 0.0
C2670 C 0.51515 0.83913 0.90024 0.0
C2671 C 0.54209 0.93486 0.89609 0.0
H2672 H 0.48224 0.88856 0.83735 0.0
H2673 H 0.4391 0.904 0.89168 0.0
H2674 H 0.54569 0.89713 0.85803 0.0
H2675 H 0.53693 0.86335 0.8582 0.0
H2676 H 0.52773 0.88354 0.83708 0.0
H2677 H 0.45947 0.90845 0.92321 0.0
H2678 H 0.48347 0.8829 0.92574 0.0
H2679 H 0.49389 0.91607 0.92332 0.0
H2680 H 0.55903 0.83657 0.92248 0.0
H2681 H 0.5823 0.91698 0.91902 0.0
H2682 H 0.51316 0.83713 0.88364 0.0
H2683 H 0.49542 0.84332 0.90637 0.0
H2684 H 0.52196 0.82019 0.9065 0.0
H2685 H 0.54057 0.93534 0.87939 0.0
H2686 H 0.55803 0.94824 0.90086 0.0
H2687 H 0.52333 0.94229 0.9022 0.0
C2688 C 0.85387 0.2972 0.88878 0.0
C2689 C 0.85652 0.29685 0.90988 0.0
C2690 C 0.85566 0.27404 0.87735 0.0
C2691 C 0.86031 0.24986 0.88717 0.0
C2692 C 0.86194 0.24926 0.90851 0.0
C2693 C 0.86 0.27265 0.91956 0.0
C2694 C 0.85367 0.27562 0.85465 0.0
C2695 C 0.86698 0.22403 0.91966 0.0
C2696 C 0.85278 0.18541 0.8582 0.0
C2697 C 0.87864 0.18046 0.85234 0.0
C2698 C 0.84638 0.20794 0.86949 0.0
C2699 C 0.86632 0.22579 0.87514 0.0
C2700 C 0.89247 0.22054 0.86947 0.0
C2701 C 0.89825 0.19808 0.85817 0.0
C2702 C 0.81828 0.2128 0.87521 0.0
C2703 C 0.91445 0.23876 0.87527 0.0
H2704 H 0.85106 0.31568 0.8811 0.0
H2705 H 0.86197 0.27197 0.93584 0.0
H2706 H 0.87298 0.27125 0.84784 0.0
H2707 H 0.83968 0.26083 0.84892 0.0
H2708 H 0.84731 0.29524 0.84944 0.0
H2709 H 0.86525 0.22637 0.93628 0.0
H2710 H 0.85309 0.20872 0.91467 0.0
H2711 H 0.88696 0.21695 0.91615 0.0
H2712 H 0.83754 0.1719 0.85373 0.0
H2713 H 0.91832 0.19436 0.85381 0.0
H2714 H 0.81164 0.23166 0.86876 0.0
H2715 H 0.81647 0.21433 0.89186 0.0
H2716 H 0.80509 0.19705 0.8698 0.0
H2717 H 0.91081 0.25849 0.86894 0.0
H2718 H 0.93375 0.2318 0.86979 0.0
H2719 H 0.91537 0.24077 0.89193 0.0
C2720 C 0.4827 0.10961 0.6714 0.0
C2721 C 0.45856 0.10526 0.66186 0.0
C2722 C 0.50594 0.11195 0.66023 0.0
C2723 C 0.50521 0.10987 0.63892 0.0
C2724 C 0.48112 0.10438 0.62924 0.0
C2725 C 0.45812 0.10218 0.6408 0.0
C2726 C 0.53112 0.11784 0.6712 0.0
C2727 C 0.47943 0.1019 0.60658 0.0
C2728 C 0.55608 0.14796 0.60913 0.0
C2729 C 0.57394 0.12848 0.60352 0.0
C2730 C 0.5338 0.1421 0.62061 0.0
C2731 C 0.52906 0.11602 0.62671 0.0
C2732 C 0.54714 0.09622 0.62126 0.0
C2733 C 0.56944 0.10269 0.60976 0.0
C2734 C 0.51526 0.16391 0.62616 0.0
C2735 C 0.54282 0.0682 0.62746 0.0
H2736 H 0.48342 0.11193 0.68765 0.0
H2737 H 0.43967 0.09871 0.63322 0.0
H2738 H 0.5467 0.10414 0.66637 0.0
H2739 H 0.53775 0.13786 0.66734 0.0
H2740 H 0.52892 0.11649 0.68785 0.0
H2741 H 0.45989 0.09511 0.60151 0.0
H2742 H 0.48345 0.12114 0.59951 0.0
H2743 H 0.49443 0.08805 0.60097 0.0
H2744 H 0.55947 0.16797 0.60445 0.0
H2745 H 0.58317 0.08756 0.60548 0.0
H2746 H 0.51338 0.16522 0.64282 0.0
H2747 H 0.49553 0.15975 0.62002 0.0
H2748 H 0.52182 0.18317 0.62034 0.0
H2749 H 0.54152 0.06679 0.64414 0.0
H2750 H 0.55872 0.05513 0.62215 0.0
H2751 H 0.52399 0.06108 0.62126 0.0
C2752 C 0.60493 0.80556 0.3575 0.0
C2753 C 0.6243 0.82374 0.35231 0.0
C2754 C 0.61071 0.78343 0.36921 0.0
C2755 C 0.6366 0.77915 0.37596 0.0
C2756 C 0.6563 0.79756 0.37092 0.0
C2757 C 0.6499 0.8197 0.35919 0.0
C2758 C 0.589 0.76455 0.37429 0.0
C2759 C 0.68413 0.79376 0.37781 0.0
C2760 C 0.64223 0.733 0.42093 0.0
C2761 C 0.64746 0.70892 0.41156 0.0
C2762 C 0.63979 0.75616 0.40964 0.0
C2763 C 0.64268 0.75543 0.38838 0.0
C2764 C 0.64899 0.73141 0.3789 0.0
C2765 C 0.65125 0.70849 0.39057 0.0
C2766 C 0.63299 0.78125 0.42041 0.0
C2767 C 0.65235 0.7297 0.35631 0.0
H2768 H 0.58506 0.80858 0.35233 0.0
H2769 H 0.66496 0.83368 0.35524 0.0
H2770 H 0.59373 0.74487 0.3683 0.0
H2771 H 0.58706 0.76271 0.39091 0.0
H2772 H 0.56987 0.77076 0.36799 0.0
H2773 H 0.69714 0.80984 0.37274 0.0
H2774 H 0.68488 0.79259 0.39452 0.0
H2775 H 0.69181 0.77501 0.37186 0.0
H2776 H 0.63932 0.73372 0.43713 0.0
H2777 H 0.6554 0.69011 0.38312 0.0
H2778 H 0.61303 0.78751 0.41603 0.0
H2779 H 0.64661 0.79705 0.4159 0.0
H2780 H 0.63367 0.7791 0.43709 0.0
H2781 H 0.63333 0.73343 0.3488 0.0
H2782 H 0.65962 0.71025 0.35144 0.0
H2783 H 0.6662 0.74489 0.35099 0.0
C2784 C 0.93477 0.90157 0.10944 0.0
C2785 C 0.92993 0.87569 0.10358 0.0
C2786 C 0.9572 0.90806 0.12084 0.0
C2787 C 0.97508 0.88819 0.12658 0.0
C2788 C 0.96995 0.86202 0.12091 0.0
C2789 C 0.94757 0.85616 0.10953 0.0
C2790 C 0.9619 0.93618 0.12659 0.0
C2791 C 0.98823 0.84011 0.12676 0.0
C2792 C 0.04646 0.90101 0.1402 0.0
C2793 C 0.04618 0.8983 0.1613 0.0
C2794 C 0.02328 0.8991 0.12878 0.0
C2795 C 0.99915 0.89431 0.13862 0.0
C2796 C 0.9986 0.89265 0.15997 0.0
C2797 C 0.02202 0.89467 0.171 0.0
C2798 C 0.02483 0.90109 0.10609 0.0
C2799 C 0.97341 0.88752 0.17114 0.0
H2800 H 0.92124 0.91677 0.1049 0.0
H2801 H 0.94395 0.83607 0.10517 0.0
H2802 H 0.96345 0.93798 0.14324 0.0
H2803 H 0.98072 0.94293 0.12013 0.0
H2804 H 0.94608 0.94928 0.1212 0.0
H2805 H 0.98137 0.82079 0.12128 0.0
H2806 H 0.00797 0.84382 0.12048 0.0
H2807 H 0.9902 0.83923 0.14343 0.0
H2808 H 0.0649 0.90392 0.13249 0.0
H2809 H 0.0214 0.89266 0.18728 0.0
H2810 H 0.00999 0.91504 0.10036 0.0
H2811 H 0.02048 0.88176 0.09929 0.0
H2812 H 0.04443 0.90749 0.10086 0.0
H2813 H 0.95802 0.90133 0.16612 0.0
H2814 H 0.97577 0.88932 0.18775 0.0
H2815 H 0.96643 0.8675 0.16766 0.0
C2816 C 0.64762 0.68411 0.86349 0.0
C2817 C 0.62172 0.67872 0.85797 0.0
C2818 C 0.65387 0.70658 0.87485 0.0
C2819 C 0.63373 0.72396 0.8809 0.0
C2820 C 0.6075 0.71807 0.87586 0.0
C2821 C 0.60186 0.69562 0.86449 0.0
C2822 C 0.68206 0.71207 0.87997 0.0
C2823 C 0.58535 0.73581 0.8821 0.0
C2824 C 0.64211 0.77266 0.92397 0.0
C2825 C 0.64525 0.7964 0.91357 0.0
C2826 C 0.6394 0.74885 0.91357 0.0
C2827 C 0.63981 0.74858 0.89219 0.0
C2828 C 0.64388 0.77232 0.88162 0.0
C2829 C 0.64653 0.79589 0.8924 0.0
C2830 C 0.6351 0.72407 0.92548 0.0
C2831 C 0.6445 0.77298 0.85884 0.0
H2832 H 0.66306 0.67115 0.85848 0.0
H2833 H 0.58177 0.69151 0.86039 0.0
H2834 H 0.68832 0.73051 0.87262 0.0
H2835 H 0.68432 0.71478 0.89649 0.0
H2836 H 0.69527 0.69611 0.87499 0.0
H2837 H 0.56596 0.72807 0.87751 0.0
H2838 H 0.58541 0.73848 0.89872 0.0
H2839 H 0.58798 0.75538 0.87519 0.0
H2840 H 0.64118 0.77268 0.94031 0.0
H2841 H 0.64902 0.81401 0.88417 0.0
H2842 H 0.64898 0.70871 0.92053 0.0
H2843 H 0.61509 0.7166 0.92263 0.0
H2844 H 0.63748 0.72715 0.94198 0.0
H2845 H 0.65867 0.7584 0.85303 0.0
H2846 H 0.64989 0.79254 0.85291 0.0
H2847 H 0.62499 0.76765 0.85281 0.0
C2848 C 0.55659 0.35458 0.10786 0.0
C2849 C 0.57442 0.37405 0.10215 0.0
C2850 C 0.53448 0.36042 0.11955 0.0
C2851 C 0.52982 0.38647 0.12575 0.0
C2852 C 0.54792 0.40625 0.12026 0.0
C2853 C 0.57008 0.3998 0.10856 0.0
C2854 C 0.51595 0.33861 0.12515 0.0
C2855 C 0.54371 0.43425 0.12655 0.0
C2856 C 0.45881 0.40022 0.13985 0.0
C2857 C 0.4592 0.39708 0.16091 0.0
C2858 C 0.48185 0.3981 0.12831 0.0
C2859 C 0.50595 0.39262 0.13798 0.0
C2860 C 0.50663 0.39044 0.15929 0.0
C2861 C 0.48335 0.39272 0.17046 0.0
C2862 C 0.48018 0.40067 0.10565 0.0
C2863 C 0.5318 0.38454 0.17028 0.0
H2864 H 0.55985 0.3346 0.10307 0.0
H2865 H 0.58377 0.41493 0.10419 0.0
H2866 H 0.51407 0.33733 0.1418 0.0
H2867 H 0.49623 0.34273 0.11899 0.0
H2868 H 0.52253 0.31934 0.11935 0.0
H2869 H 0.55972 0.44726 0.12137 0.0
H2870 H 0.52498 0.44151 0.12027 0.0
H2871 H 0.54225 0.43555 0.14323 0.0
H2872 H 0.44038 0.4037 0.13226 0.0
H2873 H 0.48404 0.39034 0.18671 0.0
H2874 H 0.48424 0.38148 0.09854 0.0
H2875 H 0.49516 0.41458 0.10009 0.0
H2876 H 0.46063 0.40745 0.10059 0.0
H2877 H 0.53841 0.36451 0.16642 0.0
H2878 H 0.52958 0.38587 0.18693 0.0
H2879 H 0.54739 0.39822 0.16545 0.0
C2880 C 0.89746 0.30533 0.35778 0.0
C2881 C 0.87797 0.32325 0.35229 0.0
C2882 C 0.89173 0.28319 0.36948 0.0
C2883 C 0.86575 0.27862 0.37592 0.0
C2884 C 0.84594 0.29677 0.37059 0.0
C2885 C 0.85229 0.31893 0.35887 0.0
C2886 C 0.91357 0.2646 0.37488 0.0
C2887 C 0.81802 0.29264 0.37714 0.0
C2888 C 0.85198 0.20779 0.39049 0.0
C2889 C 0.8555 0.20833 0.41152 0.0
C2890 C 0.85399 0.23072 0.37882 0.0
C2891 C 0.85974 0.25487 0.38832 0.0
C2892 C 0.86228 0.2557 0.40961 0.0
C2893 C 0.86011 0.23252 0.4209 0.0
C2894 C 0.85104 0.2289 0.35619 0.0
C2895 C 0.86846 0.28092 0.42041 0.0
H2896 H 0.9174 0.30855 0.35285 0.0
H2897 H 0.83714 0.3327 0.35469 0.0
H2898 H 0.91519 0.26284 0.39153 0.0
H2899 H 0.90921 0.24485 0.36887 0.0
H2900 H 0.93274 0.27103 0.36882 0.0
H2901 H 0.80493 0.30857 0.37191 0.0
H2902 H 0.81068 0.27381 0.37111 0.0
H2903 H 0.81695 0.29147 0.39385 0.0
H2904 H 0.84831 0.18932 0.38302 0.0
H2905 H 0.86278 0.23332 0.43712 0.0
H2906 H 0.87014 0.23281 0.34888 0.0
H2907 H 0.83712 0.24391 0.35069 0.0
H2908 H 0.84407 0.20936 0.35129 0.0
H2909 H 0.88843 0.28745 0.4163 0.0
H2910 H 0.86743 0.27883 0.43708 0.0
H2911 H 0.85473 0.29652 0.41566 0.0
C2912 C 0.93546 0.6019 0.60798 0.0
C2913 C 0.93098 0.62747 0.60121 0.0
C2914 C 0.95781 0.59577 0.61957 0.0
C2915 C 0.97597 0.6157 0.62459 0.0
C2916 C 0.97128 0.64156 0.6179 0.0
C2917 C 0.94897 0.64707 0.60632 0.0
C2918 C 0.96207 0.56797 0.62637 0.0
C2919 C 0.98987 0.66352 0.62298 0.0
C2920 C 0.02202 0.61066 0.66967 0.0
C2921 C 0.04622 0.60583 0.66036 0.0
C2922 C 0.99888 0.61279 0.65831 0.0
C2923 C 0.99975 0.60997 0.63705 0.0
C2924 C 0.02392 0.60407 0.62763 0.0
C2925 C 0.04682 0.60213 0.63936 0.0
C2926 C 0.97364 0.61918 0.66902 0.0
C2927 C 0.02578 0.60079 0.60503 0.0
H2928 H 0.92164 0.58667 0.60409 0.0
H2929 H 0.94562 0.66692 0.60124 0.0
H2930 H 0.981 0.56067 0.62049 0.0
H2931 H 0.96311 0.56715 0.64308 0.0
H2932 H 0.94626 0.55471 0.62117 0.0
H2933 H 0.98341 0.68255 0.61667 0.0
H2934 H 0.99166 0.6655 0.6396 0.0
H2935 H 0.00962 0.65905 0.61702 0.0
H2936 H 0.02117 0.61349 0.68586 0.0
H2937 H 0.06531 0.5983 0.63196 0.0
H2938 H 0.95808 0.60529 0.66449 0.0
H2939 H 0.96705 0.63903 0.66461 0.0
H2940 H 0.97574 0.61856 0.68571 0.0
H2941 H 0.01084 0.58672 0.59966 0.0
H2942 H 0.04537 0.59383 0.60021 0.0
H2943 H 0.0218 0.61976 0.59754 0.0
C2944 C 0.6514 0.31815 0.66618 0.0
C2945 C 0.62551 0.32303 0.672 0.0
C2946 C 0.65792 0.29561 0.65495 0.0
C2947 C 0.63807 0.27766 0.6493 0.0
C2948 C 0.61189 0.28281 0.65495 0.0
C2949 C 0.60599 0.3053 0.6662 0.0
C2950 C 0.68606 0.29086 0.64927 0.0
C2951 C 0.59 0.2645 0.64914 0.0
C2952 C 0.64518 0.23092 0.60483 0.0
C2953 C 0.64892 0.20673 0.61448 0.0
C2954 C 0.64279 0.25425 0.61591 0.0
C2955 C 0.64424 0.25361 0.63726 0.0
C2956 C 0.64909 0.22946 0.64707 0.0
C2957 C 0.65132 0.20635 0.6356 0.0
C2958 C 0.63753 0.27944 0.60477 0.0
C2959 C 0.65092 0.22785 0.66977 0.0
H2960 H 0.66658 0.33174 0.67062 0.0
H2961 H 0.5859 0.30896 0.67054 0.0
H2962 H 0.69274 0.27198 0.65567 0.0
H2963 H 0.68792 0.28943 0.63262 0.0
H2964 H 0.69919 0.30661 0.65475 0.0
H2965 H 0.57067 0.27137 0.65461 0.0
H2966 H 0.58912 0.26248 0.63248 0.0
H2967 H 0.59373 0.24478 0.65546 0.0
H2968 H 0.64337 0.23162 0.58854 0.0
H2969 H 0.6543 0.18789 0.64327 0.0
H2970 H 0.65134 0.29484 0.60975 0.0
H2971 H 0.61752 0.28639 0.60832 0.0
H2972 H 0.63924 0.27712 0.58815 0.0
H2973 H 0.66483 0.24269 0.67556 0.0
H2974 H 0.65732 0.20824 0.67499 0.0
H2975 H 0.63155 0.23216 0.6765 0.0
C2976 C 0.93783 0.40037 0.91393 0.0
C2977 C 0.93276 0.37462 0.92001 0.0
C2978 C 0.9603 0.40651 0.9025 0.0
C2979 C 0.978 0.38641 0.89693 0.0
C2980 C 0.97265 0.36036 0.90282 0.0
C2981 C 0.95022 0.35484 0.91426 0.0
C2982 C 0.96525 0.43451 0.89654 0.0
C2983 C 0.99074 0.33823 0.89714 0.0
C2984 C 0.02498 0.39298 0.85253 0.0
C2985 C 0.04908 0.3969 0.86225 0.0
C2986 C 1.00159 0.39061 0.86356 0.0
C2987 C 0.00212 0.39224 0.8849 0.0
C2988 C 0.02622 0.39715 0.89477 0.0
C2989 C 0.04935 0.39936 0.88336 0.0
C2990 C 0.97644 0.38532 0.85238 0.0
C2991 C 0.02772 0.39912 0.91747 0.0
H2992 H 0.92443 0.41575 0.91833 0.0
H2993 H 0.94641 0.33485 0.9188 0.0
H2994 H 0.98413 0.44118 0.90294 0.0
H2995 H 0.9668 0.4361 0.87988 0.0
H2996 H 0.94954 0.44783 0.90183 0.0
H2997 H 0.98367 0.31902 0.90271 0.0
H2998 H 0.99277 0.33718 0.88049 0.0
H2999 H 0.01049 0.34181 0.90346 0.0
H3000 H 0.02437 0.39111 0.83625 0.0
H3001 H 0.06776 0.40249 0.89108 0.0
H3002 H 0.96109 0.3993 0.85717 0.0
H3003 H 0.96935 0.36541 0.85609 0.0
H3004 H 0.97886 0.38676 0.83575 0.0
H3005 H 0.01306 0.41329 0.92314 0.0
H3006 H 0.04739 0.40526 0.92275 0.0
H3007 H 0.02308 0.37988 0.92429 0.0
C3008 C 0.85952 0.77171 0.10338 0.0
C3009 C 0.85512 0.79582 0.11295 0.0
C3010 C 0.86155 0.74838 0.1145 0.0
C3011 C 0.85909 0.74897 0.13579 0.0
C3012 C 0.85354 0.77304 0.14548 0.0
C3013 C 0.85167 0.79613 0.13398 0.0
C3014 C 0.86753 0.72325 0.1035 0.0
C3015 C 0.85069 0.77461 0.16812 0.0
C3016 C 0.85183 0.68467 0.16497 0.0
C3017 C 0.87756 0.68037 0.17147 0.0
C3018 C 0.8454 0.7069 0.15334 0.0
C3019 C 0.86517 0.72509 0.14801 0.0
C3020 C 0.8912 0.72047 0.15431 0.0
C3021 C 0.89701 0.6983 0.16592 0.0
C3022 C 0.81744 0.71108 0.14692 0.0
C3023 C 0.913 0.73909 0.14888 0.0
H3024 H 0.86211 0.77108 0.08715 0.0
H3025 H 0.84815 0.81454 0.14158 0.0
H3026 H 0.88754 0.71663 0.10744 0.0
H3027 H 0.85382 0.70764 0.10823 0.0
H3028 H 0.86632 0.72553 0.08685 0.0
H3029 H 0.84377 0.79411 0.17317 0.0
H3030 H 0.83677 0.75956 0.17355 0.0
H3031 H 0.86982 0.7706 0.17536 0.0
H3032 H 0.83672 0.6709 0.16922 0.0
H3033 H 0.91698 0.69507 0.17078 0.0
H3034 H 0.81625 0.71256 0.13024 0.0
H3035 H 0.8101 0.72978 0.15319 0.0
H3036 H 0.80441 0.69503 0.15203 0.0
H3037 H 0.91444 0.74103 0.13224 0.0
H3038 H 0.93224 0.73257 0.15479 0.0
H3039 H 0.90874 0.75878 0.15505 0.0
C3040 C 0.55603 0.6482 0.41503 0.0
C3041 C 0.57375 0.62879 0.42107 0.0
C3042 C 0.5338 0.64218 0.40353 0.0
C3043 C 0.52892 0.61597 0.39783 0.0
C3044 C 0.54689 0.59623 0.40367 0.0
C3045 C 0.56917 0.60288 0.41519 0.0
C3046 C 0.51543 0.66395 0.39756 0.0
C3047 C 0.54243 0.56808 0.39791 0.0
C3048 C 0.45781 0.6027 0.38369 0.0
C3049 C 0.45836 0.60538 0.36259 0.0
C3050 C 0.48082 0.60475 0.39528 0.0
C3051 C 0.50505 0.60969 0.38562 0.0
C3052 C 0.50587 0.61134 0.36429 0.0
C3053 C 0.48261 0.60916 0.35307 0.0
C3054 C 0.47901 0.60276 0.41797 0.0
C3055 C 0.53117 0.61664 0.35331 0.0
H3056 H 0.55947 0.66831 0.41941 0.0
H3057 H 0.58276 0.58778 0.41981 0.0
H3058 H 0.51363 0.66483 0.38088 0.0
H3059 H 0.49565 0.66011 0.40372 0.0
H3060 H 0.5221 0.68333 0.40308 0.0
H3061 H 0.55828 0.55507 0.40342 0.0
H3062 H 0.52358 0.56121 0.40423 0.0
H3063 H 0.5411 0.56625 0.38125 0.0
H3064 H 0.43929 0.59968 0.39125 0.0
H3065 H 0.48343 0.61115 0.3368 0.0
H3066 H 0.48313 0.62212 0.4248 0.0
H3067 H 0.49388 0.58892 0.4238 0.0
H3068 H 0.45939 0.59622 0.42305 0.0
H3069 H 0.53797 0.63671 0.35684 0.0
H3070 H 0.52903 0.61485 0.33668 0.0
H3071 H 0.54658 0.60293 0.35843 0.0
C3072 C 0.3615 0.23045 0.10313 0.0
C3073 C 0.35735 0.20643 0.11289 0.0
C3074 C 0.36394 0.25386 0.1141 0.0
C3075 C 0.36215 0.25342 0.13544 0.0
C3076 C 0.35696 0.22942 0.14535 0.0
C3077 C 0.35467 0.20626 0.13399 0.0
C3078 C 0.36952 0.27892 0.10289 0.0
C3079 C 0.35483 0.22802 0.16804 0.0
C3080 C 0.40011 0.30482 0.16482 0.0
C3081 C 0.38053 0.32249 0.17056 0.0
C3082 C 0.39434 0.28248 0.15337 0.0
C3083 C 0.36824 0.27748 0.14743 0.0
C3084 C 0.34834 0.29543 0.15295 0.0
C3085 C 0.35473 0.31779 0.16442 0.0
C3086 C 0.41626 0.26411 0.14773 0.0
C3087 C 0.3203 0.29084 0.14693 0.0
H3088 H 0.36353 0.23097 0.08685 0.0
H3089 H 0.35136 0.18791 0.14174 0.0
H3090 H 0.35574 0.29445 0.10767 0.0
H3091 H 0.38952 0.28577 0.10658 0.0
H3092 H 0.36804 0.27647 0.08627 0.0
H3093 H 0.34838 0.20846 0.17333 0.0
H3094 H 0.3741 0.23241 0.17492 0.0
H3095 H 0.34083 0.2429 0.17364 0.0
H3096 H 0.42013 0.30836 0.16941 0.0
H3097 H 0.33951 0.33137 0.16881 0.0
H3098 H 0.41732 0.26203 0.13108 0.0
H3099 H 0.41242 0.24442 0.15407 0.0
H3100 H 0.43555 0.27095 0.15332 0.0
H3101 H 0.31877 0.2892 0.13027 0.0
H3102 H 0.30718 0.30676 0.15212 0.0
H3103 H 0.31334 0.2721 0.15339 0.0
C3104 C 0.5467 0.60303 0.88269 0.0
C3105 C 0.54669 0.60478 0.86153 0.0
C3106 C 0.52346 0.60565 0.89389 0.0
C3107 C 0.4995 0.61025 0.88375 0.0
C3108 C 0.49919 0.61097 0.86237 0.0
C3109 C 0.52271 0.6082 0.85154 0.0
C3110 C 0.52475 0.60459 0.91664 0.0
C3111 C 0.47416 0.61588 0.85092 0.0
C3112 C 0.43564 0.60378 0.91354 0.0
C3113 C 0.43103 0.62976 0.91925 0.0
C3114 C 0.45767 0.59706 0.90181 0.0
C3115 C 0.47538 0.6168 0.89555 0.0
C3116 C 0.47037 0.6431 0.90093 0.0
C3117 C 0.44837 0.64921 0.91269 0.0
C3118 C 0.46227 0.5688 0.89642 0.0
C3119 C 0.48849 0.66486 0.89451 0.0
H3120 H 0.56501 0.60026 0.89063 0.0
H3121 H 0.52235 0.60955 0.83522 0.0
H3122 H 0.52026 0.62415 0.92294 0.0
H3123 H 0.50989 0.59081 0.92258 0.0
H3124 H 0.5443 0.59846 0.92217 0.0
H3125 H 0.47668 0.61341 0.83437 0.0
H3126 H 0.45861 0.60241 0.85616 0.0
H3127 H 0.46732 0.63608 0.85388 0.0
H3128 H 0.42231 0.58866 0.91855 0.0
H3129 H 0.44487 0.66936 0.91692 0.0
H3130 H 0.48091 0.56205 0.90319 0.0
H3131 H 0.46413 0.56665 0.87982 0.0
H3132 H 0.44625 0.55591 0.90178 0.0
H3133 H 0.50822 0.66159 0.90097 0.0
H3134 H 0.48145 0.68437 0.89944 0.0
H3135 H 0.49056 0.66499 0.87784 0.0
C3136 C 0.14555 0.77229 0.60302 0.0
C3137 C 0.14878 0.79642 0.61283 0.0
C3138 C 0.14358 0.74883 0.61397 0.0
C3139 C 0.14486 0.74933 0.63532 0.0
C3140 C 0.14927 0.77345 0.64528 0.0
C3141 C 0.15115 0.79666 0.63394 0.0
C3142 C 0.13887 0.72363 0.6027 0.0
C3143 C 0.15082 0.77492 0.668 0.0
C3144 C 0.10635 0.69767 0.66389 0.0
C3145 C 0.12586 0.68019 0.67013 0.0
C3146 C 0.11234 0.72003 0.65255 0.0
C3147 C 0.13861 0.72525 0.64723 0.0
C3148 C 0.15846 0.7075 0.65324 0.0
C3149 C 0.15185 0.6851 0.6646 0.0
C3150 C 0.09047 0.73819 0.6464 0.0
C3151 C 0.18667 0.71233 0.64784 0.0
H3152 H 0.14384 0.77171 0.58672 0.0
H3153 H 0.15377 0.8151 0.64172 0.0
H3154 H 0.15264 0.70831 0.60789 0.0
H3155 H 0.11881 0.71653 0.60586 0.0
H3156 H 0.14106 0.72604 0.58612 0.0
H3157 H 0.15702 0.79454 0.67334 0.0
H3158 H 0.13138 0.77047 0.67457 0.0
H3159 H 0.16473 0.76014 0.67386 0.0
H3160 H 0.08619 0.69397 0.668 0.0
H3161 H 0.16701 0.67168 0.66939 0.0
H3162 H 0.08996 0.74018 0.62973 0.0
H3163 H 0.09393 0.75794 0.65276 0.0
H3164 H 0.07106 0.73122 0.65161 0.0
H3165 H 0.1888 0.714 0.63122 0.0
H3166 H 0.19973 0.69651 0.65332 0.0
H3167 H 0.19323 0.73113 0.65445 0.0
C3168 C 0.98161 0.39403 0.35249 0.0
C3169 C 0.95751 0.39749 0.36231 0.0
C3170 C 0.00509 0.39193 0.36343 0.0
C3171 C 0.00466 0.39335 0.38478 0.0
C3172 C 0.98056 0.3979 0.39475 0.0
C3173 C 0.95733 0.39988 0.38343 0.0
C3174 C 0.03025 0.38706 0.35214 0.0
C3175 C 0.97916 0.39962 0.41747 0.0
C3176 C 0.05674 0.35559 0.41362 0.0
C3177 C 0.07412 0.37531 0.41962 0.0
C3178 C 0.03428 0.36126 0.40227 0.0
C3179 C 0.02884 0.3874 0.3967 0.0
C3180 C 0.04649 0.40745 0.40247 0.0
C3181 C 0.06899 0.40116 0.41384 0.0
C3182 C 0.01624 0.33918 0.39637 0.0
C3183 C 0.04146 0.43554 0.39682 0.0
H3184 H 0.98214 0.39226 0.3362 0.0
H3185 H 0.93893 0.40267 0.39122 0.0
H3186 H 0.04554 0.40098 0.35712 0.0
H3187 H 0.03744 0.36709 0.35555 0.0
H3188 H 0.02776 0.38889 0.33554 0.0
H3189 H 0.95951 0.40569 0.42282 0.0
H3190 H 0.98383 0.38029 0.42413 0.0
H3191 H 0.99384 0.41372 0.42321 0.0
H3192 H 0.0606 0.33552 0.41792 0.0
H3193 H 0.08234 0.41649 0.41843 0.0
H3194 H 0.01417 0.33842 0.3797 0.0
H3195 H 0.99649 0.3426 0.40274 0.0
H3196 H 0.02337 0.3199 0.40172 0.0
H3197 H 0.03976 0.43741 0.38019 0.0
H3198 H 0.05719 0.44879 0.40217 0.0
H3199 H 0.02262 0.44207 0.40338 0.0
C3200 C 0.35412 0.79626 0.39029 0.0
C3201 C 0.3567 0.79583 0.4114 0.0
C3202 C 0.35633 0.77322 0.37876 0.0
C3203 C 0.36133 0.74906 0.3885 0.0
C3204 C 0.36302 0.74836 0.40984 0.0
C3205 C 0.36067 0.77166 0.42099 0.0
C3206 C 0.35432 0.77491 0.35607 0.0
C3207 C 0.36839 0.72313 0.4209 0.0
C3208 C 0.3538 0.68503 0.35898 0.0
C3209 C 0.37962 0.68026 0.35293 0.0
C3210 C 0.34744 0.7073 0.37059 0.0
C3211 C 0.36738 0.72509 0.37634 0.0
C3212 C 0.39349 0.72002 0.37048 0.0
C3213 C 0.39924 0.69779 0.3589 0.0
C3214 C 0.31938 0.71194 0.37653 0.0
C3215 C 0.41546 0.73822 0.37634 0.0
H3216 H 0.35095 0.81472 0.38265 0.0
H3217 H 0.36262 0.77094 0.43727 0.0
H3218 H 0.37361 0.7705 0.34923 0.0
H3219 H 0.34028 0.76018 0.35032 0.0
H3220 H 0.348 0.79457 0.35091 0.0
H3221 H 0.36683 0.72539 0.43753 0.0
H3222 H 0.35456 0.70774 0.41595 0.0
H3223 H 0.38838 0.71622 0.41723 0.0
H3224 H 0.33855 0.67157 0.35443 0.0
H3225 H 0.41928 0.69421 0.35439 0.0
H3226 H 0.31255 0.73081 0.37019 0.0
H3227 H 0.31775 0.71337 0.39319 0.0
H3228 H 0.30622 0.69616 0.37115 0.0
H3229 H 0.41174 0.75801 0.37015 0.0
H3230 H 0.43475 0.73136 0.37077 0.0
H3231 H 0.41644 0.74007 0.39301 0.0
C3232 C 0.05041 0.64834 0.10397 0.0
C3233 C 0.07201 0.63158 0.10272 0.0
C3234 C 0.02928 0.64285 0.11674 0.0
C3235 C 0.02929 0.61957 0.12828 0.0
C3236 C 0.05129 0.60269 0.12737 0.0
C3237 C 0.07261 0.60906 0.11473 0.0
C3238 C 0.0067 0.66183 0.11759 0.0
C3239 C 0.0519 0.57752 0.13918 0.0
C3240 C 0.98115 0.6194 0.17207 0.0
C3241 C 0.95884 0.60816 0.16326 0.0
C3242 C 0.00455 0.62221 0.16117 0.0
C3243 C 0.00597 0.61318 0.141 0.0
C3244 C 0.98391 0.6007 0.13232 0.0
C3245 C 0.96056 0.59859 0.14346 0.0
C3246 C 0.0273 0.63613 0.17091 0.0
C3247 C 0.98468 0.59041 0.11099 0.0
H3248 H 0.04994 0.66585 0.09476 0.0
H3249 H 0.08917 0.59594 0.11362 0.0
H3250 H 0.98872 0.65233 0.1118 0.0
H3251 H 0.00287 0.66768 0.13344 0.0
H3252 H 0.01038 0.67973 0.10854 0.0
H3253 H 0.07083 0.56711 0.13757 0.0
H3254 H 0.04834 0.58139 0.15542 0.0
H3255 H 0.036 0.56449 0.13385 0.0
H3256 H 0.9801 0.62697 0.18733 0.0
H3257 H 0.94355 0.58969 0.13656 0.0
H3258 H 0.03054 0.65512 0.16324 0.0
H3259 H 0.04546 0.62453 0.16922 0.0
H3260 H 0.02396 0.63989 0.18723 0.0
H3261 H 0.98574 0.60699 0.10023 0.0
H3262 H 0.96715 0.57854 0.10728 0.0
H3263 H 0.00239 0.57828 0.10866 0.0
C3264 C 0.15416 0.31883 0.85754 0.0
C3265 C 0.12844 0.32354 0.85119 0.0
C3266 C 0.16039 0.29645 0.86905 0.0
C3267 C 0.14042 0.27851 0.87444 0.0
C3268 C 0.11442 0.28346 0.86821 0.0
C3269 C 0.10881 0.30579 0.85669 0.0
C3270 C 0.18834 0.2919 0.87536 0.0
C3271 C 0.09241 0.26513 0.87372 0.0
C3272 C 0.15326 0.20752 0.88918 0.0
C3273 C 0.15004 0.20827 0.91022 0.0
C3274 C 0.15148 0.23042 0.87742 0.0
C3275 C 0.14624 0.25472 0.88687 0.0
C3276 C 0.14399 0.25573 0.90816 0.0
C3277 C 0.14595 0.2326 0.91953 0.0
C3278 C 0.15416 0.22841 0.85479 0.0
C3279 C 0.13829 0.28111 0.91891 0.0
H3280 H 0.16942 0.33246 0.85333 0.0
H3281 H 0.08886 0.30932 0.85194 0.0
H3282 H 0.18966 0.29087 0.89206 0.0
H3283 H 0.19527 0.27288 0.86938 0.0
H3284 H 0.20162 0.30755 0.86992 0.0
H3285 H 0.07326 0.27179 0.86773 0.0
H3286 H 0.09648 0.24532 0.86771 0.0
H3287 H 0.09091 0.26342 0.89037 0.0
H3288 H 0.15653 0.18893 0.88177 0.0
H3289 H 0.14351 0.23358 0.93576 0.0
H3290 H 0.16821 0.24321 0.84914 0.0
H3291 H 0.13503 0.2325 0.84758 0.0
H3292 H 0.16083 0.20874 0.84993 0.0
H3293 H 0.15222 0.29647 0.91405 0.0
H3294 H 0.13943 0.2791 0.93558 0.0
H3295 H 0.11839 0.28794 0.91487 0.0
C3296 C 0.54784 0.40015 0.63927 0.0
C3297 C 0.54723 0.39784 0.66039 0.0
C3298 C 0.52486 0.39782 0.62766 0.0
C3299 C 0.50063 0.39297 0.63734 0.0
C3300 C 0.49976 0.39165 0.65868 0.0
C3301 C 0.52296 0.39412 0.6699 0.0
C3302 C 0.52671 0.3995 0.60496 0.0
C3303 C 0.47445 0.38644 0.66968 0.0
C3304 C 0.43641 0.39978 0.60804 0.0
C3305 C 0.43161 0.37383 0.60237 0.0
C3306 C 0.45884 0.40644 0.61934 0.0
C3307 C 0.47675 0.38666 0.62519 0.0
C3308 C 0.4717 0.36042 0.61967 0.0
C3309 C 0.4493 0.35438 0.60836 0.0
C3310 C 0.46349 0.43463 0.62491 0.0
C3311 C 0.49002 0.33862 0.62568 0.0
H3312 H 0.56637 0.40313 0.63171 0.0
H3313 H 0.52209 0.3924 0.68619 0.0
H3314 H 0.52254 0.38007 0.59828 0.0
H3315 H 0.51188 0.4133 0.59901 0.0
H3316 H 0.54635 0.40592 0.59984 0.0
H3317 H 0.47658 0.38829 0.6863 0.0
H3318 H 0.45907 0.40017 0.66452 0.0
H3319 H 0.46758 0.36638 0.66619 0.0
H3320 H 0.42283 0.4149 0.60345 0.0
H3321 H 0.4457 0.33425 0.60412 0.0
H3322 H 0.48243 0.44128 0.61861 0.0
H3323 H 0.46473 0.43664 0.64156 0.0
H3324 H 0.44778 0.44769 0.61925 0.0
H3325 H 0.5098 0.34238 0.61948 0.0
H3326 H 0.48328 0.31924 0.62023 0.0
H3327 H 0.49186 0.33784 0.64235 0.0
C3328 C 0.13147 0.01997 0.30353 0.0
C3329 C 0.11627 0.04263 0.30521 0.0
C3330 C 0.12846 0.00297 0.28712 0.0
C3331 C 0.11049 0.00932 0.27162 0.0
C3332 C 0.09429 0.0316 0.27367 0.0
C3333 C 0.09699 0.04765 0.29075 0.0
C3334 C 0.14535 0.97881 0.28595 0.0
C3335 C 0.07538 0.03952 0.25729 0.0
C3336 C 0.13261 0.98263 0.22123 0.0
C3337 C 0.11681 0.96045 0.21915 0.0
C3338 C 0.12951 0.99967 0.2376 0.0
C3339 C 0.11067 0.99392 0.2526 0.0
C3340 C 0.09386 0.97218 0.25012 0.0
C3341 C 0.09687 0.95591 0.23318 0.0
C3342 C 0.14717 0.02322 0.23928 0.0
C3343 C 0.07374 0.96525 0.26587 0.0
H3344 H 0.14612 0.01575 0.3149 0.0
H3345 H 0.08475 0.06469 0.29235 0.0
H3346 H 0.13327 0.96145 0.28226 0.0
H3347 H 0.15997 0.98112 0.27371 0.0
H3348 H 0.15593 0.97502 0.3003 0.0
H3349 H 0.08647 0.04816 0.24453 0.0
H3350 H 0.0646 0.02238 0.25135 0.0
H3351 H 0.06106 0.05423 0.26271 0.0
H3352 H 0.14781 0.98645 0.21023 0.0
H3353 H 0.08428 0.93914 0.23133 0.0
H3354 H 0.16112 0.02041 0.25192 0.0
H3355 H 0.13554 0.04099 0.24264 0.0
H3356 H 0.15855 0.02664 0.22524 0.0
H3357 H 0.08381 0.95793 0.27959 0.0
H3358 H 0.06 0.94997 0.26048 0.0
H3359 H 0.06234 0.98273 0.27036 0.0
C3360 C 0.20621 0.84647 0.54137 0.0
C3361 C 0.21126 0.86631 0.55536 0.0
C3362 C 0.22185 0.84356 0.52408 0.0
C3363 C 0.24356 0.86032 0.52125 0.0
C3364 C 0.24971 0.87923 0.53609 0.0
C3365 C 0.23327 0.88222 0.55284 0.0
C3366 C 0.21436 0.82353 0.50841 0.0
C3367 C 0.27306 0.89707 0.53389 0.0
C3368 C 0.2971 0.84649 0.48305 0.0
C3369 C 0.29142 0.86505 0.46819 0.0
C3370 C 0.28125 0.84403 0.50025 0.0
C3371 C 0.25867 0.85983 0.50211 0.0
C3372 C 0.25182 0.87721 0.48635 0.0
C3373 C 0.26851 0.87989 0.46972 0.0
C3374 C 0.28955 0.82571 0.51692 0.0
C3375 C 0.22754 0.89394 0.4875 0.0
H3376 H 0.18953 0.83384 0.54355 0.0
H3377 H 0.23742 0.89741 0.56378 0.0
H3378 H 0.20784 0.83362 0.49446 0.0
H3379 H 0.23148 0.81132 0.50435 0.0
H3380 H 0.19832 0.81058 0.51366 0.0
H3381 H 0.2765 0.90899 0.54765 0.0
H3382 H 0.29092 0.88551 0.53069 0.0
H3383 H 0.27 0.9105 0.52096 0.0
H3384 H 0.3145 0.83471 0.48167 0.0
H3385 H 0.26389 0.89406 0.45809 0.0
H3386 H 0.27291 0.81333 0.52178 0.0
H3387 H 0.29588 0.83726 0.53022 0.0
H3388 H 0.30598 0.81287 0.51226 0.0
H3389 H 0.21031 0.88184 0.4915 0.0
H3390 H 0.22347 0.90417 0.47305 0.0
H3391 H 0.2299 0.90883 0.49953 0.0
C3392 C 0.40832 0.95799 0.79378 0.0
C3393 C 0.38789 0.96223 0.80744 0.0
C3394 C 0.41135 0.974 0.77672 0.0
C3395 C 0.39407 0.99527 0.77375 0.0
C3396 C 0.3746 1.00072 0.78833 0.0
C3397 C 0.37153 0.98391 0.80486 0.0
C3398 C 0.43205 0.96727 0.76136 0.0
C3399 C 0.35613 0.02356 0.78598 0.0
C3400 C 0.40711 0.04895 0.73545 0.0
C3401 C 0.38904 0.04262 0.72038 0.0
C3402 C 0.40962 0.03337 0.7528 0.0
C3403 C 0.39444 0.01037 0.75459 0.0
C3404 C 0.37761 0.0029 0.73864 0.0
C3405 C 0.37481 0.01934 0.72187 0.0
C3406 C 0.42736 0.0423 0.76964 0.0
C3407 C 0.36171 0.97808 0.73971 0.0
H3408 H 0.42136 0.94164 0.79605 0.0
H3409 H 0.35589 0.98744 0.81555 0.0
H3410 H 0.42255 0.95964 0.7475 0.0
H3411 H 0.44327 0.98492 0.75701 0.0
H3412 H 0.44585 0.95222 0.76705 0.0
H3413 H 0.34404 0.02675 0.79968 0.0
H3414 H 0.3672 0.04172 0.78273 0.0
H3415 H 0.34286 0.02 0.77302 0.0
H3416 H 0.41842 0.06664 0.7341 0.0
H3417 H 0.36107 0.01419 0.71006 0.0
H3418 H 0.4403 0.02614 0.77456 0.0
H3419 H 0.41537 0.04811 0.78286 0.0
H3420 H 0.43961 0.05924 0.76513 0.0
H3421 H 0.37476 0.96106 0.74218 0.0
H3422 H 0.3501 0.97466 0.72579 0.0
H3423 H 0.34818 0.97903 0.75276 0.0
C3424 C 0.23347 0.12204 0.97177 0.0
C3425 C 0.21141 0.13796 0.96952 0.0
C3426 C 0.25004 0.1247 0.98847 0.0
C3427 C 0.24394 0.14323 1.0036 0.0
C3428 C 0.22221 0.16004 1.00105 0.0
C3429 C 0.20649 0.15753 0.98377 0.0
C3430 C 0.27345 0.10687 0.99033 0.0
C3431 C 0.21473 0.17966 0.01704 0.0
C3432 C 0.2692 0.12238 0.05478 0.0
C3433 C 0.29204 0.13728 0.05651 0.0
C3434 C 0.25244 0.12542 0.03821 0.0
C3435 C 0.25914 0.14326 0.02272 0.0
C3436 C 0.28168 0.15909 0.02478 0.0
C3437 C 0.29761 0.15622 0.0419 0.0
C3438 C 0.22822 0.10863 0.03684 0.0
C3439 C 0.28981 0.1779 1.00841 0.0
H3440 H 0.23755 0.10708 0.96062 0.0
H3441 H 0.1898 0.17018 0.9818 0.0
H3442 H 0.29129 0.11837 0.99374 0.0
H3443 H 0.27046 0.09303 1.00301 0.0
H3444 H 0.27691 0.0954 0.97635 0.0
H3445 H 0.20794 0.16917 0.03074 0.0
H3446 H 0.23189 0.19158 0.02147 0.0
H3447 H 0.19886 0.1929 0.01192 0.0
H3448 H 0.26467 0.10791 0.06621 0.0
H3449 H 0.31498 0.16804 0.04344 0.0
H3450 H 0.23059 0.0941 0.02455 0.0
H3451 H 0.21093 0.12078 0.0331 0.0
H3452 H 0.22427 0.09797 0.05113 0.0
H3453 H 0.29627 0.16674 0.99494 0.0
H3454 H 0.30612 0.19076 0.01328 0.0
H3455 H 0.27308 0.19026 1.00372 0.0
C3456 C 0.87577 0.01816 0.80483 0.0
C3457 C 0.88885 0.04218 0.8053 0.0
C3458 C 0.87801 1.00145 0.78816 0.0
C3459 C 0.89305 0.00936 0.7713 0.0
C3460 C 0.90701 0.03323 0.77199 0.0
C3461 C 0.90508 0.04914 0.78919 0.0
C3462 C 0.86328 0.97586 0.78823 0.0
C3463 C 0.92267 0.04275 0.75413 0.0
C3464 C 0.90706 0.95743 0.7317 0.0
C3465 C 0.88557 0.9605 0.71883 0.0
C3466 C 0.91024 0.97361 0.74867 0.0
C3467 C 0.89193 0.9938 0.75237 0.0
C3468 C 0.87115 0.99798 0.73865 0.0
C3469 C 0.86806 0.98108 0.72218 0.0
C3470 C 0.93244 0.96835 0.7631 0.0
C3471 C 0.85156 0.0197 0.74176 0.0
H3472 H 0.86334 0.01263 0.81738 0.0
H3473 H 0.91526 0.06758 0.78963 0.0
H3474 H 0.84716 0.97669 0.77706 0.0
H3475 H 0.87639 0.9596 0.78375 0.0
H3476 H 0.85481 0.97135 0.80327 0.0
H3477 H 0.93453 0.06028 0.75785 0.0
H3478 H 0.93583 0.02714 0.74854 0.0
H3479 H 0.90919 0.04787 0.74161 0.0
H3480 H 0.92095 0.94195 0.72884 0.0
H3481 H 0.85157 0.98373 0.71211 0.0
H3482 H 0.92447 0.96145 0.77774 0.0
H3483 H 0.9435 0.98657 0.76613 0.0
H3484 H 0.94615 0.95333 0.75724 0.0
H3485 H 0.83958 0.01555 0.75534 0.0
H3486 H 0.83825 0.02202 0.72864 0.0
H3487 H 0.86177 0.0385 0.74441 0.0
C3488 C 0.73334 0.11893 0.55415 0.0
C3489 C 0.71238 0.13609 0.55717 0.0
C3490 C 0.75033 0.12203 0.53774 0.0
C3491 C 0.74575 0.14235 0.52368 0.0
C3492 C 0.72524 0.1604 0.52711 0.0
C3493 C 0.70913 0.15736 0.54412 0.0
C3494 C 0.77248 0.10283 0.53499 0.0
C3495 C 0.71941 0.182 0.51227 0.0
C3496 C 0.80025 0.15538 0.4861 0.0
C3497 C 0.79348 0.13831 0.47046 0.0
C3498 C 0.78457 0.15757 0.50341 0.0
C3499 C 0.76106 0.14307 0.50464 0.0
C3500 C 0.75326 0.12719 0.4882 0.0
C3501 C 0.76979 0.12469 0.47145 0.0
C3502 C 0.79396 0.17411 0.52082 0.0
C3503 C 0.72802 0.1119 0.48868 0.0
H3504 H 0.73619 0.10267 0.5644 0.0
H3505 H 0.69348 0.17109 0.54683 0.0
H3506 H 0.76856 0.0903 0.52167 0.0
H3507 H 0.79107 0.11334 0.53212 0.0
H3508 H 0.77511 0.09001 0.54837 0.0
H3509 H 0.70432 0.19571 0.518 0.0
H3510 H 0.73741 0.19317 0.50876 0.0
H3511 H 0.7123 0.17338 0.49791 0.0
H3512 H 0.81837 0.16605 0.48522 0.0
H3513 H 0.76438 0.11164 0.45926 0.0
H3514 H 0.79943 0.16124 0.53363 0.0
H3515 H 0.77817 0.18722 0.52617 0.0
H3516 H 0.81125 0.18612 0.51672 0.0
H3517 H 0.72944 0.09611 0.5001 0.0
H3518 H 0.72342 0.10289 0.47384 0.0
H3519 H 0.71154 0.12474 0.49314 0.0
C3520 C 0.60376 0.05308 0.24129 0.0
C3521 C 0.60588 0.0449 0.2212 0.0
C3522 C 0.60254 0.03499 0.25711 0.0
C3523 C 0.6046 0.00799 0.25278 0.0
C3524 C 0.60567 0.99948 0.23244 0.0
C3525 C 0.60595 0.0181 0.21682 0.0
C3526 C 0.60089 0.04508 0.27849 0.0
C3527 C 0.60836 0.97088 0.22725 0.0
C3528 C 0.63819 0.97043 0.29456 0.0
C3529 C 0.61706 0.95845 0.30426 0.0
C3530 C 0.63445 0.98554 0.27718 0.0
C3531 C 0.60886 0.98925 0.2696 0.0
C3532 C 0.58746 0.97678 0.27913 0.0
C3533 C 0.59187 0.96126 0.2963 0.0
C3534 C 0.65789 0.99803 0.26723 0.0
C3535 C 0.55988 0.98071 0.2717 0.0
H3536 H 0.60408 0.07372 0.24478 0.0
H3537 H 0.60779 0.01168 0.20129 0.0
H3538 H 0.58971 0.03165 0.28838 0.0
H3539 H 0.62092 0.04699 0.28475 0.0
H3540 H 0.59146 0.0646 0.27903 0.0
H3541 H 0.60585 0.96719 0.21084 0.0
H3542 H 0.62804 0.96392 0.2318 0.0
H3543 H 0.59386 0.95904 0.23568 0.0
H3544 H 0.65776 0.96786 0.30049 0.0
H3545 H 0.57556 0.95185 0.30379 0.0
H3546 H 0.65688 0.01955 0.26909 0.0
H3547 H 0.65793 0.99383 0.2508 0.0
H3548 H 0.67662 0.99103 0.27377 0.0
H3549 H 0.5542 1.00146 0.27378 0.0
H3550 H 0.54565 0.96819 0.27986 0.0
H3551 H 0.55859 0.97639 0.25532 0.0
C3552 C 0.73328 0.88347 0.97081 0.0
C3553 C 0.71178 0.86694 0.96803 0.0
C3554 C 0.74989 0.88048 0.98746 0.0
C3555 C 0.74451 0.86079 1.0019 0.0
C3556 C 0.72337 0.84342 0.99877 0.0
C3557 C 0.70744 0.8465 0.98166 0.0
C3558 C 0.7725 0.89916 0.99008 0.0
C3559 C 0.71679 0.82244 0.01394 0.0
C3560 C 0.79869 0.84762 0.03974 0.0
C3561 C 0.79215 0.86512 0.05514 0.0
C3562 C 0.78296 0.84526 0.02246 0.0
C3563 C 0.75971 0.86014 0.021 0.0
C3564 C 0.75212 0.87647 0.03722 0.0
C3565 C 0.76863 0.87903 0.05398 0.0
C3566 C 0.79194 0.82799 1.00536 0.0
C3567 C 0.72709 0.89208 0.03648 0.0
H3568 H 0.73683 0.89917 0.96018 0.0
H3569 H 0.69113 0.83342 0.97931 0.0
H3570 H 0.7688 0.91205 1.00324 0.0
H3571 H 0.7908 0.88824 0.99317 0.0
H3572 H 0.77554 0.91163 0.97656 0.0
H3573 H 0.70182 0.80863 1.00813 0.0
H3574 H 0.73453 0.81126 0.01816 0.0
H3575 H 0.70912 0.83164 0.0279 0.0
H3576 H 0.81667 0.83668 0.04077 0.0
H3577 H 0.76336 0.89236 0.06603 0.0
H3578 H 0.79731 0.84029 0.9922 0.0
H3579 H 0.77591 0.81485 1.00047 0.0
H3580 H 0.80916 0.81595 1.00958 0.0
H3581 H 0.72755 0.90564 0.02344 0.0
H3582 H 0.72382 0.90361 0.05045 0.0
H3583 H 0.71019 0.87882 0.03422 0.0
C3584 C 0.60243 0.55196 0.7844 0.0
C3585 C 0.60528 0.54421 0.80456 0.0
C3586 C 0.60173 0.53358 0.76877 0.0
C3587 C 0.60444 0.50671 0.77336 0.0
C3588 C 0.60589 0.49859 0.7938 0.0
C3589 C 0.60609 0.51751 0.80923 0.0
C3590 C 0.59987 0.54315 0.74724 0.0
C3591 C 0.60909 0.47014 0.79928 0.0
C3592 C 0.59241 0.45965 0.72985 0.0
C3593 C 0.61765 0.45718 0.7219 0.0
C3594 C 0.58779 0.47502 0.74708 0.0
C3595 C 0.60899 0.48781 0.75665 0.0
C3596 C 0.63465 0.48436 0.74912 0.0
C3597 C 0.63861 0.4693 0.73174 0.0
C3598 C 0.56018 0.47833 0.75462 0.0
C3599 C 0.65791 0.49715 0.75909 0.0
H3600 H 0.60186 0.57257 0.78075 0.0
H3601 H 0.60846 0.51146 0.82481 0.0
H3602 H 0.61913 0.54091 0.73976 0.0
H3603 H 0.58551 0.53139 0.7386 0.0
H3604 H 0.59408 0.56404 0.7464 0.0
H3605 H 0.60631 0.46667 0.81569 0.0
H3606 H 0.59502 0.45786 0.79078 0.0
H3607 H 0.62901 0.46355 0.79506 0.0
H3608 H 0.57623 0.45009 0.72231 0.0
H3609 H 0.65823 0.46699 0.72584 0.0
H3610 H 0.55392 0.49889 0.75242 0.0
H3611 H 0.55913 0.47415 0.77103 0.0
H3612 H 0.54621 0.46535 0.7466 0.0
H3613 H 0.65647 0.51868 0.75751 0.0
H3614 H 0.67673 0.49067 0.7524 0.0
H3615 H 0.65816 0.49264 0.77547 0.0
C3616 C 0.79759 0.34644 0.98023 0.0
C3617 C 0.79427 0.36773 0.96721 0.0
C3618 C 0.78113 0.34305 0.997 0.0
C3619 C 0.76045 0.36092 1.00034 0.0
C3620 C 0.75604 0.38145 0.98643 0.0
C3621 C 0.77319 0.38476 0.97017 0.0
C3622 C 0.78659 0.32112 1.01163 0.0
C3623 C 0.73388 0.40064 0.9892 0.0
C3624 C 0.70506 0.34769 0.03707 0.0
C3625 C 0.71172 0.36436 0.05299 0.0
C3626 C 0.72113 0.34559 0.01997 0.0
C3627 C 0.74482 0.35986 0.01921 0.0
C3628 C 0.75246 0.3753 0.03592 0.0
C3629 C 0.73562 0.37766 0.05249 0.0
C3630 C 0.71196 0.32943 1.00228 0.0
C3631 C 0.77785 0.39038 0.03592 0.0
H3632 H 0.81352 0.33297 0.97769 0.0
H3633 H 0.77038 0.40109 0.95997 0.0
H3634 H 0.79211 0.32935 0.02653 0.0
H3635 H 0.76875 0.30919 0.01394 0.0
H3636 H 0.80263 0.30818 1.00637 0.0
H3637 H 0.73157 0.41383 0.976 0.0
H3638 H 0.7152 0.39011 0.99166 0.0
H3639 H 0.73754 0.4128 1.00278 0.0
H3640 H 0.68673 0.3373 0.03756 0.0
H3641 H 0.74093 0.3904 0.0649 0.0
H3642 H 0.72789 0.31661 0.99675 0.0
H3643 H 0.7064 0.34258 0.98967 0.0
H3644 H 0.69478 0.31716 1.00616 0.0
H3645 H 0.79431 0.37749 0.03149 0.0
H3646 H 0.78226 0.39903 0.05092 0.0
H3647 H 0.77678 0.40641 0.02467 0.0
C3648 C 0.90675 0.54937 0.23486 0.0
C3649 C 0.88974 0.54251 0.2192 0.0
C3650 C 0.90925 0.53349 0.25204 0.0
C3651 C 0.89503 0.5098 0.25314 0.0
C3652 C 0.87928 0.50193 0.23666 0.0
C3653 C 0.87653 0.51859 0.22001 0.0
C3654 C 0.92573 0.54291 0.26948 0.0
C3655 C 0.86424 0.47653 0.23703 0.0
C3656 C 0.90864 0.45771 0.29265 0.0
C3657 C 0.88755 0.46145 0.3058 0.0
C3658 C 0.91194 0.47382 0.27566 0.0
C3659 C 0.89415 0.49453 0.2722 0.0
C3660 C 0.87383 0.49935 0.28619 0.0
C3661 C 0.87064 0.48259 0.30271 0.0
C3662 C 0.93376 0.46807 0.26101 0.0
C3663 C 0.85476 0.52156 0.28328 0.0
H3664 H 0.91712 0.5677 0.23412 0.0
H3665 H 0.86354 0.51312 0.20778 0.0
H3666 H 0.91278 0.54896 0.28207 0.0
H3667 H 0.93843 0.527 0.27519 0.0
H3668 H 0.93813 0.55986 0.26524 0.0
H3669 H 0.85524 0.47196 0.22219 0.0
H3670 H 0.87725 0.46014 0.24139 0.0
H3671 H 0.84848 0.4777 0.2485 0.0
H3672 H 0.92205 0.44174 0.2953 0.0
H3673 H 0.85447 0.48573 0.31299 0.0
H3674 H 0.94615 0.45148 0.26603 0.0
H3675 H 0.94627 0.48559 0.25911 0.0
H3676 H 0.92549 0.46332 0.24596 0.0
H3677 H 0.86539 0.54013 0.2806 0.0
H3678 H 0.84168 0.52415 0.29651 0.0
H3679 H 0.84249 0.51778 0.26978 0.0
C3680 C 0.70384 0.65649 0.48609 0.0
C3681 C 0.71091 0.63981 0.47029 0.0
C3682 C 0.71938 0.65848 0.50352 0.0
C3683 C 0.743 0.64413 0.50472 0.0
C3684 C 0.75107 0.62867 0.48813 0.0
C3685 C 0.73472 0.62639 0.47126 0.0
C3686 C 0.70977 0.67467 0.52105 0.0
C3687 C 0.7764 0.61353 0.48859 0.0
C3688 C 0.79473 0.65775 0.54454 0.0
C3689 C 0.79132 0.63636 0.55744 0.0
C3690 C 0.77869 0.66108 0.52751 0.0
C3691 C 0.75817 0.64312 0.52385 0.0
C3692 C 0.75352 0.62258 0.5377 0.0
C3693 C 0.77037 0.61926 0.55419 0.0
C3694 C 0.78457 0.68294 0.51291 0.0
C3695 C 0.73144 0.60339 0.53464 0.0
H3696 H 0.68561 0.66699 0.48526 0.0
H3697 H 0.74036 0.61363 0.45894 0.0
H3698 H 0.70439 0.66158 0.53374 0.0
H3699 H 0.72543 0.68784 0.52654 0.0
H3700 H 0.69239 0.68659 0.517 0.0
H3701 H 0.78112 0.6047 0.47372 0.0
H3702 H 0.79279 0.62643 0.49316 0.0
H3703 H 0.77504 0.59764 0.49993 0.0
H3704 H 0.81044 0.67137 0.54737 0.0
H3705 H 0.76745 0.60287 0.5643 0.0
H3706 H 0.76656 0.69409 0.50939 0.0
H3707 H 0.79188 0.67459 0.49852 0.0
H3708 H 0.79954 0.69662 0.51888 0.0
H3709 H 0.71288 0.61391 0.53169 0.0
H3710 H 0.72867 0.59042 0.54791 0.0
H3711 H 0.73556 0.59103 0.52126 0.0
C3712 C 0.40828 0.5474 0.29026 0.0
C3713 C 0.38899 0.54225 0.30469 0.0
C3714 C 0.41121 0.53125 0.27326 0.0
C3715 C 0.39501 0.50899 0.27113 0.0
C3716 C 0.3769 0.50264 0.28651 0.0
C3717 C 0.37384 0.51958 0.30295 0.0
C3718 C 0.43042 0.539 0.25706 0.0
C3719 C 0.35987 0.47859 0.28517 0.0
C3720 C 0.37327 0.48276 0.2205 0.0
C3721 C 0.38896 0.4605 0.21846 0.0
C3722 C 0.3763 0.49967 0.23695 0.0
C3723 C 0.39491 0.49368 0.25207 0.0
C3724 C 0.41158 0.47182 0.24965 0.0
C3725 C 0.40873 0.45577 0.23259 0.0
C3726 C 0.35877 0.52333 0.23859 0.0
C3727 C 0.43133 0.46447 0.26559 0.0
H3728 H 0.42032 0.56461 0.29182 0.0
H3729 H 0.35914 0.51532 0.31426 0.0
H3730 H 0.44111 0.52175 0.25121 0.0
H3731 H 0.41961 0.5478 0.24422 0.0
H3732 H 0.44483 0.55353 0.26265 0.0
H3733 H 0.3491 0.47482 0.29943 0.0
H3734 H 0.34541 0.48104 0.27283 0.0
H3735 H 0.37188 0.46117 0.28152 0.0
H3736 H 0.35821 0.48672 0.2094 0.0
H3737 H 0.42129 0.439 0.23073 0.0
H3738 H 0.37049 0.54102 0.24201 0.0
H3739 H 0.34474 0.52058 0.25118 0.0
H3740 H 0.34749 0.52685 0.22452 0.0
H3741 H 0.44243 0.48185 0.27071 0.0
H3742 H 0.44534 0.44951 0.26008 0.0
H3743 H 0.42095 0.45644 0.27892 0.0
C3744 C 0.28693 0.61479 0.98274 0.0
C3745 C 0.29861 0.63583 0.9727 0.0
C3746 C 0.27115 0.6188 0.99971 0.0
C3747 C 0.26652 0.64456 1.0066 0.0
C3748 C 0.27876 0.66589 0.99679 0.0
C3749 C 0.29494 0.66124 0.98001 0.0
C3750 C 0.25885 0.59544 1.00992 0.0
C3751 C 0.27384 0.69363 1.00346 0.0
C3752 C 0.20172 0.64817 0.03369 0.0
C3753 C 0.20938 0.64674 0.05395 0.0
C3754 C 0.22023 0.64982 0.01818 0.0
C3755 C 0.24716 0.6489 0.023 0.0
C3756 C 0.25508 0.64862 0.0435 0.0
C3757 C 0.23602 0.64787 0.05879 0.0
C3758 C 0.21073 0.65062 0.9966 0.0
C3759 C 0.2836 0.64718 0.04925 0.0
H3760 H 0.2901 0.59507 0.9773 0.0
H3761 H 0.30408 0.67749 0.97225 0.0
H3762 H 0.2625 0.59607 0.02642 0.0
H3763 H 0.23738 0.59588 1.00763 0.0
H3764 H 0.26645 0.57665 1.00392 0.0
H3765 H 0.28637 0.70785 0.99528 0.0
H3766 H 0.25306 0.69871 1.0007 0.0
H3767 H 0.27739 0.69567 0.0199 0.0
H3768 H 0.18121 0.64693 0.02983 0.0
H3769 H 0.24204 0.64661 0.07445 0.0
H3770 H 0.20991 0.63043 0.99055 0.0
H3771 H 0.22398 0.66221 0.98684 0.0
H3772 H 0.19083 0.65916 0.99559 0.0
H3773 H 0.29131 0.62753 0.04545 0.0
H3774 H 0.28668 0.65065 0.06563 0.0
H3775 H 0.29521 0.66163 0.04058 0.0
C3776 C 0.09717 0.45915 0.79343 0.0
C3777 C 0.11861 0.46262 0.8063 0.0
C3778 C 0.09366 0.4753 0.77649 0.0
C3779 C 0.11163 0.49576 0.77275 0.0
C3780 C 0.1323 0.50038 0.7865 0.0
C3781 C 0.13568 0.48358 0.80299 0.0
C3782 C 0.07147 0.46976 0.76211 0.0
C3783 C 0.15155 0.52239 0.78332 0.0
C3784 C 0.12818 0.51904 0.72012 0.0
C3785 C 0.11497 0.54296 0.71924 0.0
C3786 C 0.12584 0.50269 0.73699 0.0
C3787 C 0.11054 0.51089 0.75362 0.0
C3788 C 0.09635 0.53459 0.75249 0.0
C3789 C 0.09839 0.55013 0.73508 0.0
C3790 C 0.14075 0.47722 0.73738 0.0
C3791 C 0.08035 0.54434 0.77008 0.0
H3792 H 0.08363 0.44334 0.79625 0.0
H3793 H 0.15212 0.48653 0.81306 0.0
H3794 H 0.05953 0.4876 0.75984 0.0
H3795 H 0.07943 0.46412 0.74716 0.0
H3796 H 0.05856 0.45383 0.76761 0.0
H3797 H 0.16466 0.52513 0.79651 0.0
H3798 H 0.16378 0.5182 0.76987 0.0
H3799 H 0.14109 0.54099 0.7804 0.0
H3800 H 0.14085 0.51334 0.70777 0.0
H3801 H 0.08807 0.56847 0.73431 0.0
H3802 H 0.12769 0.46093 0.74189 0.0
H3803 H 0.15665 0.47837 0.74874 0.0
H3804 H 0.14956 0.47248 0.7225 0.0
H3805 H 0.06729 0.52873 0.77579 0.0
H3806 H 0.06835 0.56165 0.76602 0.0
H3807 H 0.0936 0.54989 0.78263 0.0
C3808 C 0.20678 0.34729 0.48253 0.0
C3809 C 0.212 0.36666 0.46818 0.0
C3810 C 0.22275 0.34435 0.49963 0.0
C3811 C 0.24497 0.36057 0.50192 0.0
C3812 C 0.25131 0.37892 0.4867 0.0
C3813 C 0.23452 0.38199 0.47016 0.0
C3814 C 0.21504 0.32497 0.51572 0.0
C3815 C 0.27518 0.39617 0.48832 0.0
C3816 C 0.27099 0.38098 0.55296 0.0
C3817 C 0.29348 0.36554 0.55468 0.0
C3818 C 0.25411 0.37832 0.53643 0.0
C3819 C 0.26034 0.36029 0.52095 0.0
C3820 C 0.28248 0.34391 0.52301 0.0
C3821 C 0.29853 0.34642 0.54011 0.0
C3822 C 0.23029 0.39568 0.53509 0.0
C3823 C 0.29009 0.32486 0.50665 0.0
H3824 H 0.18966 0.33516 0.48081 0.0
H3825 H 0.23879 0.39681 0.45894 0.0
H3826 H 0.23193 0.31252 0.5199 0.0
H3827 H 0.20889 0.33563 0.52951 0.0
H3828 H 0.19865 0.31222 0.51082 0.0
H3829 H 0.27879 0.40743 0.47426 0.0
H3830 H 0.27263 0.4102 0.50093 0.0
H3831 H 0.29275 0.38426 0.49171 0.0
H3832 H 0.26683 0.39558 0.56436 0.0
H3833 H 0.3156 0.33418 0.54164 0.0
H3834 H 0.21268 0.38393 0.53149 0.0
H3835 H 0.23291 0.41006 0.52273 0.0
H3836 H 0.2267 0.40654 0.54934 0.0
H3837 H 0.27305 0.31287 0.50206 0.0
H3838 H 0.30614 0.31166 0.51149 0.0
H3839 H 0.2967 0.33583 0.49313 0.0
C3840 C 0.09791 0.14354 0.09261 0.0
C3841 C 0.12191 0.14685 0.08265 0.0
C3842 C 0.09667 0.13955 0.11357 0.0
C3843 C 0.12001 0.13858 0.12502 0.0
C3844 C 0.14438 0.14093 0.11501 0.0
C3845 C 0.14505 0.14506 0.09397 0.0
C3846 C 0.07026 0.13707 0.12355 0.0
C3847 C 0.16974 0.13985 0.1266 0.0
C3848 C 0.11386 0.15755 0.18043 0.0
C3849 C 0.11234 0.13315 0.19003 0.0
C3850 C 0.11694 0.15954 0.1594 0.0
C3851 C 0.11869 0.13657 0.14754 0.0
C3852 C 0.11777 0.11186 0.15717 0.0
C3853 C 0.11449 0.11044 0.17826 0.0
C3854 C 0.11758 0.18629 0.14979 0.0
C3855 C 0.11981 0.08691 0.14515 0.0
H3856 H 0.07993 0.14427 0.08399 0.0
H3857 H 0.16369 0.14772 0.08651 0.0
H3858 H 0.06923 0.11871 0.13239 0.0
H3859 H 0.06734 0.15347 0.13426 0.0
H3860 H 0.05399 0.13721 0.11245 0.0
H3861 H 0.18704 0.13991 0.11648 0.0
H3862 H 0.17108 0.15693 0.13685 0.0
H3863 H 0.1704 0.12205 0.13614 0.0
H3864 H 0.11186 0.17521 0.18932 0.0
H3865 H 0.11363 0.09151 0.18556 0.0
H3866 H 0.10057 0.18861 0.13956 0.0
H3867 H 0.13547 0.1885 0.1405 0.0
H3868 H 0.11711 0.20223 0.16116 0.0
H3869 H 0.10289 0.08526 0.13476 0.0
H3870 H 0.12029 0.06931 0.15496 0.0
H3871 H 0.13771 0.08717 0.13571 0.0
C3872 C 0.10078 0.86948 0.43131 0.0
C3873 C 0.12375 0.86123 0.44101 0.0
C3874 C 0.09977 0.87279 0.41026 0.0
C3875 C 0.1223 0.86781 0.39847 0.0
C3876 C 0.14587 0.86051 0.40822 0.0
C3877 C 0.14632 0.85734 0.42936 0.0
C3878 C 0.07428 0.88077 0.40058 0.0
C3879 C 0.17036 0.8551 0.39625 0.0
C3880 C 0.10988 0.84691 0.34411 0.0
C3881 C 0.11374 0.87025 0.33339 0.0
C3882 C 0.11313 0.84578 0.36517 0.0
C3883 C 0.12056 0.86853 0.37591 0.0
C3884 C 0.12501 0.89206 0.36516 0.0
C3885 C 0.12145 0.89267 0.34407 0.0
C3886 C 0.10795 0.82034 0.37598 0.0
C3887 C 0.13315 0.91669 0.37598 0.0
H3888 H 0.08337 0.87306 0.4402 0.0
H3889 H 0.16412 0.85083 0.43666 0.0
H3890 H 0.07724 0.89813 0.39083 0.0
H3891 H 0.06705 0.86474 0.39079 0.0
H3892 H 0.05898 0.88539 0.41192 0.0
H3893 H 0.18761 0.85189 0.40613 0.0
H3894 H 0.16745 0.83744 0.38681 0.0
H3895 H 0.17458 0.87159 0.38589 0.0
H3896 H 0.10356 0.82958 0.33609 0.0
H3897 H 0.12475 0.91071 0.3359 0.0
H3898 H 0.0913 0.82276 0.38654 0.0
H3899 H 0.12522 0.81467 0.38511 0.0
H3900 H 0.10332 0.80417 0.36538 0.0
H3901 H 0.11752 0.92284 0.38655 0.0
H3902 H 0.13716 0.93301 0.36537 0.0
H3903 H 0.15094 0.913 0.38512 0.0
C3904 C 0.41181 0.8799 0.67571 0.0
C3905 C 0.39162 0.87944 0.69007 0.0
C3906 C 0.40661 0.87747 0.65496 0.0
C3907 C 0.3805 0.87473 0.64818 0.0
C3908 C 0.3599 0.87549 0.66248 0.0
C3909 C 0.36569 0.87779 0.68323 0.0
C3910 C 0.42924 0.87685 0.64033 0.0
C3911 C 0.33178 0.87286 0.65595 0.0
C3912 C 0.37046 0.88387 0.5914 0.0
C3913 C 0.37189 0.85801 0.58438 0.0
C3914 C 0.37209 0.88962 0.61219 0.0
C3915 C 0.37523 0.86907 0.62634 0.0
C3916 C 0.37549 0.8429 0.61938 0.0
C3917 C 0.37376 0.83772 0.59858 0.0
C3918 C 0.37156 0.91777 0.61892 0.0
C3919 C 0.37868 0.82033 0.63385 0.0
H3920 H 0.43187 0.88175 0.68073 0.0
H3921 H 0.34992 0.87728 0.69413 0.0
H3922 H 0.4302 0.85742 0.63295 0.0
H3923 H 0.42635 0.89159 0.62827 0.0
H3924 H 0.44825 0.88068 0.64786 0.0
H3925 H 0.31794 0.87648 0.66857 0.0
H3926 H 0.32741 0.88674 0.64353 0.0
H3927 H 0.32833 0.85288 0.65005 0.0
H3928 H 0.36915 0.89972 0.5806 0.0
H3929 H 0.37433 0.81766 0.59339 0.0
H3930 H 0.39111 0.92343 0.62466 0.0
H3931 H 0.35748 0.92038 0.63149 0.0
H3932 H 0.36617 0.93123 0.60643 0.0
H3933 H 0.3982 0.82136 0.6411 0.0
H3934 H 0.37681 0.8011 0.62621 0.0
H3935 H 0.36386 0.82149 0.64602 0.0
C3936 C 0.37054 0.12373 0.84124 0.0
C3937 C 0.39613 0.12737 0.83411 0.0
C3938 C 0.36476 0.12516 0.86203 0.0
C3939 C 0.38501 0.13037 0.87607 0.0
C3940 C 0.41099 0.13311 0.869 0.0
C3941 C 0.4162 0.13151 0.84821 0.0
C3942 C 0.33683 0.12196 0.86889 0.0
C3943 C 0.43325 0.13857 0.88336 0.0
C3944 C 0.37163 0.16474 0.926 0.0
C3945 C 0.37433 0.14438 0.94006 0.0
C3946 C 0.37402 0.16024 0.90515 0.0
C3947 C 0.37912 0.13466 0.89799 0.0
C3948 C 0.38064 0.11378 0.912 0.0
C3949 C 0.37826 0.11887 0.93284 0.0
C3950 C 0.37212 0.1831 0.89082 0.0
C3951 C 0.38589 0.0862 0.90506 0.0
H3952 H 0.35484 0.12067 0.83051 0.0
H3953 H 0.43611 0.13381 0.84294 0.0
H3954 H 0.33565 0.10736 0.88123 0.0
H3955 H 0.32953 0.14076 0.875 0.0
H3956 H 0.32375 0.11573 0.8564 0.0
H3957 H 0.45248 0.13895 0.8756 0.0
H3958 H 0.43016 0.15772 0.89083 0.0
H3959 H 0.43387 0.1235 0.89538 0.0
H3960 H 0.36805 0.18443 0.93134 0.0
H3961 H 0.38054 0.10299 0.94351 0.0
H3962 H 0.35767 0.17893 0.87876 0.0
H3963 H 0.39128 0.18628 0.88339 0.0
H3964 H 0.36635 0.20143 0.89861 0.0
H3965 H 0.37242 0.0808 0.89262 0.0
H3966 H 0.38368 0.07179 0.91749 0.0
H3967 H 0.40608 0.08482 0.89908 0.0
C3968 C 0.91141 0.88026 0.84781 0.0
C3969 C 0.89079 0.87626 0.83417 0.0
C3970 C 0.90767 0.87785 0.86877 0.0
C3971 C 0.88269 0.87122 0.87642 0.0
C3972 C 0.86158 0.86798 0.86281 0.0
C3973 C 0.86587 0.87052 0.84189 0.0
C3974 C 0.93076 0.88146 0.88268 0.0
C3975 C 0.83461 0.86106 0.87028 0.0
C3976 C 0.88243 0.83567 0.92694 0.0
C3977 C 0.87696 0.85587 0.94065 0.0
C3978 C 0.88371 0.84032 0.90605 0.0
C3979 C 0.87927 0.86582 0.8985 0.0
C3980 C 0.87281 0.88615 0.91215 0.0
C3981 C 0.87173 0.88095 0.93304 0.0
C3982 C 0.89052 0.818 0.89211 0.0
C3983 C 0.86783 0.91358 0.90476 0.0
H3984 H 0.93081 0.88436 0.84209 0.0
H3985 H 0.84969 0.8678 0.83155 0.0
H3986 H 0.92597 0.89576 0.8947 0.0
H3987 H 0.93542 0.86266 0.8902 0.0
H3988 H 0.94843 0.88833 0.87453 0.0
H3989 H 0.81987 0.86117 0.85797 0.0
H3990 H 0.83493 0.84133 0.87721 0.0
H3991 H 0.82835 0.875 0.88216 0.0
H3992 H 0.88597 0.81611 0.93257 0.0
H3993 H 0.86766 0.89674 0.94347 0.0
H3994 H 0.90926 0.82218 0.88433 0.0
H3995 H 0.87532 0.81588 0.88028 0.0
H3996 H 0.89243 0.79914 0.90026 0.0
H3997 H 0.88601 0.92172 0.89817 0.0
H3998 H 0.86116 0.92674 0.91706 0.0
H3999 H 0.85286 0.91346 0.89264 0.0
C4000 C 0.87172 0.12663 0.68236 0.0
C4001 C 0.89747 0.12524 0.68964 0.0
C4002 C 0.86649 0.12883 0.66153 0.0
C4003 C 0.88747 0.12969 0.64758 0.0
C4004 C 0.91341 0.12717 0.65478 0.0
C4005 C 0.91806 0.12494 0.67563 0.0
C4006 C 0.83854 0.13134 0.65454 0.0
C4007 C 0.93641 0.12782 0.64052 0.0
C4008 C 0.87779 0.12045 0.59076 0.0
C4009 C 0.87896 0.14631 0.58372 0.0
C4010 C 0.87963 0.11471 0.61154 0.0
C4011 C 0.88268 0.13529 0.62567 0.0
C4012 C 0.88285 0.16145 0.61869 0.0
C4013 C 0.88096 0.16661 0.5979 0.0
C4014 C 0.87924 0.08656 0.61829 0.0
C4015 C 0.8859 0.18405 0.63315 0.0
H4016 H 0.85565 0.12705 0.693 0.0
H4017 H 0.93799 0.12335 0.68102 0.0
H4018 H 0.83517 0.15132 0.64861 0.0
H4019 H 0.83456 0.11747 0.64205 0.0
H4020 H 0.82438 0.12763 0.66693 0.0
H4021 H 0.95521 0.12393 0.64833 0.0
H4022 H 0.93382 0.11314 0.62837 0.0
H4023 H 0.93759 0.14729 0.6332 0.0
H4024 H 0.87641 0.1046 0.57997 0.0
H4025 H 0.88137 0.18668 0.59269 0.0
H4026 H 0.86483 0.08382 0.63061 0.0
H4027 H 0.89869 0.08114 0.62439 0.0
H4028 H 0.87436 0.07301 0.60574 0.0
H4029 H 0.87085 0.18298 0.64516 0.0
H4030 H 0.88425 0.20327 0.62546 0.0
H4031 H 0.90527 0.18295 0.64063 0.0
C4032 C 0.59555 0.13607 0.43336 0.0
C4033 C 0.61979 0.14312 0.44169 0.0
C4034 C 0.59251 0.13228 0.41248 0.0
C4035 C 0.61413 0.13586 0.39944 0.0
C4036 C 0.63877 0.14246 0.40773 0.0
C4037 C 0.64133 0.14591 0.42872 0.0
C4038 C 0.5659 0.12514 0.40431 0.0
C4039 C 0.66231 0.14653 0.39437 0.0
C4040 C 0.60918 0.10902 0.34577 0.0
C4041 C 0.60069 0.13107 0.33505 0.0
C4042 C 0.61391 0.11027 0.3667 0.0
C4043 C 0.61048 0.13426 0.37708 0.0
C4044 C 0.6026 0.15672 0.36617 0.0
C4045 C 0.59766 0.15481 0.34537 0.0
C4046 C 0.62198 0.08582 0.37779 0.0
C4047 C 0.5991 0.18277 0.37652 0.0
H4048 H 0.57865 0.13423 0.4431 0.0
H4049 H 0.66024 0.15091 0.43496 0.0
H4050 H 0.55835 0.1413 0.3948 0.0
H4051 H 0.56732 0.10756 0.39458 0.0
H4052 H 0.55155 0.12123 0.41651 0.0
H4053 H 0.68036 0.15038 0.4032 0.0
H4054 H 0.66556 0.1291 0.38475 0.0
H4055 H 0.65881 0.16332 0.38413 0.0
H4056 H 0.61143 0.09061 0.33787 0.0
H4057 H 0.5915 0.17201 0.33709 0.0
H4058 H 0.60686 0.08064 0.38911 0.0
H4059 H 0.64046 0.08923 0.38613 0.0
H4060 H 0.62473 0.06896 0.36745 0.0
H4061 H 0.58337 0.18134 0.38798 0.0
H4062 H 0.59401 0.19859 0.36574 0.0
H4063 H 0.61729 0.18828 0.38456 0.0
C4064 C 0.63082 0.89032 0.09217 0.0
C4065 C 0.63057 0.86438 0.08525 0.0
C4066 C 0.62895 0.89613 0.11293 0.0
C4067 C 0.62665 0.87554 0.12715 0.0
C4068 C 0.62757 0.84935 0.12029 0.0
C4069 C 0.62964 0.84413 0.09953 0.0
C4070 C 0.62833 0.92433 0.11955 0.0
C4071 C 0.62525 0.82673 0.13483 0.0
C4072 C 0.63556 0.88409 0.18407 0.0
C4073 C 0.60954 0.8844 0.19083 0.0
C4074 C 0.64154 0.88246 0.16333 0.0
C4075 C 0.62105 0.88103 0.14895 0.0
C4076 C 0.59481 0.88256 0.15566 0.0
C4077 C 0.58942 0.88431 0.17641 0.0
C4078 C 0.66977 0.88113 0.15687 0.0
C4079 C 0.5723 0.8812 0.14095 0.0
H4080 H 0.63144 0.90615 0.08132 0.0
H4081 H 0.63005 0.82402 0.09444 0.0
H4082 H 0.60851 0.92928 0.12512 0.0
H4083 H 0.64215 0.92755 0.13222 0.0
H4084 H 0.63336 0.93791 0.10705 0.0
H4085 H 0.62786 0.80755 0.12725 0.0
H4086 H 0.64002 0.82852 0.147 0.0
H4087 H 0.60571 0.82705 0.14208 0.0
H4088 H 0.65128 0.88406 0.19504 0.0
H4089 H 0.56927 0.88514 0.1814 0.0
H4090 H 0.67354 0.8951 0.1444 0.0
H4091 H 0.67419 0.86128 0.15109 0.0
H4092 H 0.68336 0.88549 0.16952 0.0
H4093 H 0.57473 0.89605 0.12891 0.0
H4094 H 0.55313 0.88435 0.14842 0.0
H4095 H 0.57206 0.86176 0.13354 0.0
C4096 C 0.61179 0.66437 0.6812 0.0
C4097 C 0.61074 0.64049 0.69161 0.0
C4098 C 0.61573 0.66531 0.66022 0.0
C4099 C 0.61871 0.64179 0.64919 0.0
C4100 C 0.61858 0.61763 0.65967 0.0
C4101 C 0.61465 0.61727 0.68073 0.0
C4102 C 0.6159 0.69151 0.64975 0.0
C4103 C 0.62166 0.5921 0.64854 0.0
C4104 C 0.59776 0.64551 0.59411 0.0
C4105 C 0.62164 0.649 0.58403 0.0
C4106 C 0.59666 0.64236 0.61517 0.0
C4107 C 0.62004 0.64257 0.62661 0.0
C4108 C 0.64432 0.6451 0.61649 0.0
C4109 C 0.64485 0.64825 0.59534 0.0
C4110 C 0.57034 0.63955 0.62523 0.0
C4111 C 0.6697 0.64535 0.62807 0.0
H4112 H 0.60929 0.68245 0.6895 0.0
H4113 H 0.61373 0.59872 0.68858 0.0
H4114 H 0.63384 0.69363 0.6405 0.0
H4115 H 0.59896 0.69289 0.63935 0.0
H4116 H 0.61492 0.70804 0.66059 0.0
H4117 H 0.62336 0.57521 0.65898 0.0
H4118 H 0.60453 0.58893 0.63857 0.0
H4119 H 0.63923 0.59269 0.63874 0.0
H4120 H 0.57975 0.64548 0.58551 0.0
H4121 H 0.66339 0.65103 0.58774 0.0
H4122 H 0.56679 0.6565 0.63529 0.0
H4123 H 0.56997 0.62174 0.63477 0.0
H4124 H 0.55411 0.63838 0.61413 0.0
H4125 H 0.67058 0.66303 0.63773 0.0
H4126 H 0.68698 0.6453 0.61793 0.0
H4127 H 0.67086 0.62814 0.63821 0.0
C4128 C 0.58803 0.37877 0.84768 0.0
C4129 C 0.60835 0.38036 0.8335 0.0
C4130 C 0.59318 0.37676 0.86844 0.0
C4131 C 0.61935 0.37645 0.87538 0.0
C4132 C 0.63997 0.3793 0.86126 0.0
C4133 C 0.63424 0.38121 0.8405 0.0
C4134 C 0.57054 0.37391 0.8829 0.0
C4135 C 0.66814 0.37924 0.868 0.0
C4136 C 0.62782 0.38563 0.93222 0.0
C4137 C 0.62863 0.35964 0.939 0.0
C4138 C 0.62598 0.39153 0.91149 0.0
C4139 C 0.62488 0.37098 0.89717 0.0
C4140 C 0.62691 0.34479 0.90389 0.0
C4141 C 0.62881 0.33947 0.92464 0.0
C4142 C 0.62404 0.41972 0.905 0.0
C4143 C 0.62598 0.32224 0.88921 0.0
H4144 H 0.56795 0.37868 0.84248 0.0
H4145 H 0.6501 0.38232 0.8297 0.0
H4146 H 0.57123 0.35436 0.89012 0.0
H4147 H 0.57197 0.38867 0.89511 0.0
H4148 H 0.55135 0.37615 0.87527 0.0
H4149 H 0.6817 0.38441 0.85554 0.0
H4150 H 0.67102 0.39321 0.88061 0.0
H4151 H 0.6734 0.35955 0.8737 0.0
H4152 H 0.62754 0.40136 0.94317 0.0
H4153 H 0.62997 0.31936 0.92968 0.0
H4154 H 0.60405 0.42372 0.8993 0.0
H4155 H 0.63782 0.42375 0.89246 0.0
H4156 H 0.62823 0.43341 0.9176 0.0
H4157 H 0.60653 0.32156 0.88184 0.0
H4158 H 0.62957 0.30315 0.89669 0.0
H4159 H 0.64075 0.32497 0.87714 0.0
C4160 C 0.86211 0.35276 0.09461 0.0
C4161 C 0.88031 0.36497 0.08188 0.0
C4162 C 0.86335 0.35583 0.11571 0.0
C4163 C 0.88315 0.37165 0.12435 0.0
C4164 C 0.9008 0.38499 0.11149 0.0
C4165 C 0.89922 0.38143 0.09047 0.0
C4166 C 0.84422 0.34114 0.12881 0.0
C4167 C 0.922 0.40229 0.11998 0.0
C4168 C 0.87783 0.39174 0.17982 0.0
C4169 C 0.89435 0.37352 0.18927 0.0
C4170 C 0.874 0.39148 0.15874 0.0
C4171 C 0.88684 0.37245 0.14677 0.0
C4172 C 0.90353 0.35409 0.1562 0.0
C4173 C 0.9072 0.35495 0.17721 0.0
C4174 C 0.85617 0.41151 0.14928 0.0
C4175 C 0.91763 0.33344 0.14408 0.0
H4176 H 0.84756 0.33987 0.08813 0.0
H4177 H 0.9131 0.39126 0.08073 0.0
H4178 H 0.85477 0.32599 0.1376 0.0
H4179 H 0.83491 0.35456 0.13981 0.0
H4180 H 0.82868 0.33146 0.11981 0.0
H4181 H 0.93264 0.4131 0.10799 0.0
H4182 H 0.91358 0.41659 0.13074 0.0
H4183 H 0.93628 0.39023 0.12847 0.0
H4184 H 0.86759 0.40602 0.18893 0.0
H4185 H 0.92046 0.34113 0.18417 0.0
H4186 H 0.83979 0.40159 0.14145 0.0
H4187 H 0.86699 0.42289 0.13774 0.0
H4188 H 0.84797 0.42527 0.16059 0.0
H4189 H 0.90332 0.32148 0.13556 0.0
H4190 H 0.92951 0.32025 0.15373 0.0
H4191 H 0.93071 0.34284 0.13288 0.0
C4192 C 0.91389 0.62367 0.34847 0.0
C4193 C 0.89367 0.62346 0.33415 0.0
C4194 C 0.90857 0.62502 0.36925 0.0
C4195 C 0.88235 0.62618 0.37601 0.0
C4196 C 0.86179 0.62489 0.3617 0.0
C4197 C 0.86769 0.62351 0.34095 0.0
C4198 C 0.93111 0.62612 0.38394 0.0
C4199 C 0.83357 0.62606 0.36823 0.0
C4200 C 0.87127 0.61389 0.43221 0.0
C4201 C 0.8711 0.63942 0.44 0.0
C4202 C 0.8741 0.60922 0.41137 0.0
C4203 C 0.87672 0.63058 0.39791 0.0
C4204 C 0.87566 0.65638 0.40559 0.0
C4205 C 0.87298 0.66047 0.42647 0.0
C4206 C 0.87507 0.58142 0.40383 0.0
C4207 C 0.87832 0.67974 0.39183 0.0
H4208 H 0.93401 0.62317 0.34339 0.0
H4209 H 0.85193 0.62352 0.33002 0.0
H4210 H 0.93122 0.64531 0.39173 0.0
H4211 H 0.92885 0.61086 0.39569 0.0
H4212 H 0.95029 0.62338 0.37638 0.0
H4213 H 0.81991 0.62245 0.3555 0.0
H4214 H 0.82975 0.61147 0.38025 0.0
H4215 H 0.82931 0.64561 0.37466 0.0
H4216 H 0.86943 0.59746 0.44243 0.0
H4217 H 0.87331 0.68026 0.43224 0.0
H4218 H 0.89466 0.57729 0.39742 0.0
H4219 H 0.86063 0.57856 0.39153 0.0
H4220 H 0.87106 0.56703 0.41599 0.0
H4221 H 0.8981 0.67993 0.38498 0.0
H4222 H 0.8753 0.69849 0.39994 0.0
H4223 H 0.86399 0.67849 0.3793 0.0
C4224 C 0.36962 0.37264 0.34178 0.0
C4225 C 0.39499 0.37503 0.33389 0.0
C4226 C 0.3653 0.37025 0.36269 0.0
C4227 C 0.38684 0.37022 0.37614 0.0
C4228 C 0.4124 0.37343 0.36832 0.0
C4229 C 0.41616 0.37577 0.34737 0.0
C4230 C 0.33772 0.36703 0.37035 0.0
C4231 C 0.43595 0.37347 0.38206 0.0
C4232 C 0.37783 0.38048 0.43288 0.0
C4233 C 0.37958 0.35481 0.44023 0.0
C4234 C 0.37951 0.38582 0.41205 0.0
C4235 C 0.38296 0.365 0.39818 0.0
C4236 C 0.3839 0.33901 0.40549 0.0
C4237 C 0.38217 0.33426 0.42634 0.0
C4238 C 0.37838 0.41379 0.40492 0.0
C4239 C 0.38737 0.31618 0.3913 0.0
H4240 H 0.35308 0.37244 0.33156 0.0
H4241 H 0.43586 0.37727 0.3415 0.0
H4242 H 0.3354 0.34736 0.37716 0.0
H4243 H 0.33359 0.38156 0.38236 0.0
H4244 H 0.32299 0.36931 0.35816 0.0
H4245 H 0.45432 0.3779 0.37381 0.0
H4246 H 0.4334 0.38809 0.39426 0.0
H4247 H 0.43798 0.35406 0.38936 0.0
H4248 H 0.37602 0.39652 0.44348 0.0
H4249 H 0.38306 0.31432 0.43181 0.0
H4250 H 0.36337 0.41599 0.39296 0.0
H4251 H 0.39744 0.41937 0.39822 0.0
H4252 H 0.37383 0.42758 0.41739 0.0
H4253 H 0.37191 0.3164 0.37957 0.0
H4254 H 0.38668 0.2971 0.39928 0.0
H4255 H 0.40643 0.31781 0.38344 0.0
C4256 C 0.37114 0.63189 0.18117 0.0
C4257 C 0.39618 0.62811 0.18937 0.0
C4258 C 0.36731 0.63415 0.16019 0.0
C4259 C 0.38901 0.63255 0.14697 0.0
C4260 C 0.41419 0.62785 0.15509 0.0
C4261 C 0.41747 0.62574 0.17611 0.0
C4262 C 0.34012 0.63903 0.15222 0.0
C4263 C 0.43789 0.626 0.1416 0.0
C4264 C 0.37961 0.62207 0.09025 0.0
C4265 C 0.3828 0.64751 0.08269 0.0
C4266 C 0.38106 0.61691 0.11113 0.0
C4267 C 0.3858 0.63766 0.12484 0.0
C4268 C 0.3884 0.66343 0.11731 0.0
C4269 C 0.38682 0.66802 0.09644 0.0
C4270 C 0.37812 0.58917 0.11849 0.0
C4271 C 0.39332 0.68618 0.13132 0.0
H4272 H 0.35447 0.63331 0.1912 0.0
H4273 H 0.43695 0.62316 0.1822 0.0
H4274 H 0.33919 0.65869 0.1452 0.0
H4275 H 0.33524 0.6246 0.14031 0.0
H4276 H 0.32508 0.63792 0.16428 0.0
H4277 H 0.45577 0.62041 0.15006 0.0
H4278 H 0.43453 0.61143 0.12948 0.0
H4279 H 0.44137 0.64512 0.13418 0.0
H4280 H 0.37669 0.60605 0.0798 0.0
H4281 H 0.38877 0.68781 0.09084 0.0
H4282 H 0.36269 0.58807 0.13022 0.0
H4283 H 0.39663 0.5826 0.12558 0.0
H4284 H 0.3731 0.57546 0.10608 0.0
H4285 H 0.37767 0.6873 0.14287 0.0
H4286 H 0.39418 0.70512 0.12315 0.0
H4287 H 0.41207 0.68329 0.13943 0.0
C4288 C 0.08781 0.63838 0.84651 0.0
C4289 C 0.10722 0.63108 0.83264 0.0
C4290 C 0.09319 0.64045 0.86724 0.0
C4291 C 0.11858 0.63476 0.8745 0.0
C4292 C 0.13805 0.62634 0.86073 0.0
C4293 C 0.13217 0.62468 0.83998 0.0
C4294 C 0.07181 0.64948 0.88132 0.0
C4295 C 0.16528 0.61979 0.86784 0.0
C4296 C 0.13636 0.66861 0.9238 0.0
C4297 C 0.13047 0.64938 0.93824 0.0
C4298 C 0.13347 0.66379 0.90302 0.0
C4299 C 0.12484 0.63898 0.89633 0.0
C4300 C 0.12017 0.61903 0.91071 0.0
C4301 C 0.12286 0.62449 0.93145 0.0
C4302 C 0.13863 0.68568 0.88827 0.0
C4303 C 0.11128 0.59219 0.90426 0.0
H4304 H 0.06831 0.64279 0.84113 0.0
H4305 H 0.14739 0.61917 0.82943 0.0
H4306 H 0.06889 0.635 0.89357 0.0
H4307 H 0.07756 0.66819 0.88852 0.0
H4308 H 0.0529 0.65242 0.87339 0.0
H4309 H 0.17751 0.61145 0.85558 0.0
H4310 H 0.17495 0.63767 0.87363 0.0
H4311 H 0.16445 0.6056 0.88049 0.0
H4312 H 0.14285 0.6877 0.92875 0.0
H4313 H 0.11801 0.60947 0.94235 0.0
H4314 H 0.12017 0.69112 0.88055 0.0
H4315 H 0.15255 0.67919 0.87646 0.0
H4316 H 0.14669 0.70334 0.89575 0.0
H4317 H 0.09109 0.59334 0.89822 0.0
H4318 H 0.11149 0.57802 0.91696 0.0
H4319 H 0.12393 0.58463 0.89198 0.0
C4320 C 0.09525 0.38642 0.67563 0.0
C4321 C 0.11547 0.37947 0.68891 0.0
C4322 C 0.09824 0.38412 0.65459 0.0
C4323 C 0.12204 0.3746 0.64651 0.0
C4324 C 0.14289 0.36851 0.65977 0.0
C4325 C 0.13936 0.37101 0.68076 0.0
C4326 C 0.07549 0.39085 0.64104 0.0
C4327 C 0.16864 0.35847 0.65185 0.0
C4328 C 0.1176 0.33933 0.59602 0.0
C4329 C 0.12569 0.3586 0.58229 0.0
C4330 C 0.11671 0.34422 0.61687 0.0
C4331 C 0.12426 0.36899 0.62439 0.0
C4332 C 0.13311 0.38836 0.6107 0.0
C4333 C 0.13372 0.38296 0.58984 0.0
C4334 C 0.10723 0.32292 0.63086 0.0
C4335 C 0.14141 0.41499 0.61806 0.0
H4336 H 0.07661 0.39269 0.68169 0.0
H4337 H 0.15528 0.36601 0.69084 0.0
H4338 H 0.08181 0.40441 0.62893 0.0
H4339 H 0.06815 0.37285 0.63362 0.0
H4340 H 0.05912 0.39999 0.64948 0.0
H4341 H 0.1836 0.35673 0.66392 0.0
H4342 H 0.16576 0.33895 0.64492 0.0
H4343 H 0.17621 0.37161 0.63989 0.0
H4344 H 0.11185 0.32028 0.59043 0.0
H4345 H 0.13982 0.39806 0.57939 0.0
H4346 H 0.08944 0.32955 0.63894 0.0
H4347 H 0.1223 0.31864 0.64243 0.0
H4348 H 0.10256 0.30456 0.62268 0.0
H4349 H 0.12455 0.42505 0.62515 0.0
H4350 H 0.14902 0.42747 0.60566 0.0
H4351 H 0.15675 0.41304 0.6298 0.0
loop_
_geom_bond_atom_site_label_1
_geom_bond_atom_site_label_2
_geom_bond_distance
_geom_bond_site_symmetry_2
_ccdc_geom_bond_type
Nd0 C2 2.836 . S
Nd0 O20 2.500 . S
Nd0 O21 2.492 . S
Nd0 O22 2.487 . S
Nd0 O23 2.682 . S
Nd0 O24 2.410 . S
Nd0 O29 2.414 . S
Nd0 O31 2.424 . S
Nd1 C11 2.836 . S
Nd1 O23 2.414 . S
Nd1 O25 2.424 . S
Nd1 O26 2.500 . S
Nd1 O27 2.492 . S
Nd1 O28 2.487 . S
Nd1 O29 2.682 . S
Nd1 O30 2.410 . S
C2 Nd0 2.836 . S
C2 C3 1.498 . S
C2 O20 1.258 . S
C2 O21 1.239 . S
C3 C2 1.498 . S
C3 C4 1.366 . S
C3 C8 1.407 . S
C4 C3 1.366 . S
C4 C5 1.392 . S
C4 H32 0.930 . S
C5 C4 1.392 . S
C5 C6 1.398 . S
C5 H33 0.929 . S
C6 C5 1.398 . S
C6 C7 1.352 . S
C7 C6 1.352 . S
C7 C8 1.384 . S
C7 H34 0.930 . S
C8 C3 1.407 . S
C8 C7 1.384 . S
C8 H35 0.929 . S
C9 O22 1.241 . S
C9 O23 1.273 . S
C10 O24 1.251 . S
C10 O25 1.268 . S
C11 Nd1 2.836 . S
C11 C12 1.498 . S
C11 O26 1.258 . S
C11 O27 1.239 . S
C12 C11 1.498 . S
C12 C13 1.366 . S
C12 C17 1.407 . S
C13 C12 1.366 . S
C13 C14 1.392 . S
C13 H36 0.930 . S
C14 C13 1.392 . S
C14 C15 1.398 . S
C14 H37 0.929 . S
C15 C14 1.398 . S
C15 C16 1.352 . S
C16 C15 1.352 . S
C16 C17 1.384 . S
C16 H38 0.892 1_545 S
C17 C12 1.407 . S
C17 C16 1.384 . S
C17 H39 0.929 . S
C18 O28 1.241 . S
C18 O29 1.273 . S
C19 O30 1.251 . S
C19 O31 1.268 . S
O20 Nd0 2.500 . S
O20 C2 1.258 . S
O21 Nd0 2.492 . S
O21 C2 1.239 . S
O22 Nd0 2.487 . S
O22 C9 1.241 . S
O23 Nd0 2.682 . S
O23 Nd1 2.414 . S
O23 C9 1.273 . S
O24 Nd0 2.410 . S
O24 C10 1.251 . S
O25 Nd1 2.424 . S
O25 C10 1.268 . S
O26 Nd1 2.500 . S
O26 C11 1.258 . S
O27 Nd1 2.492 . S
O27 C11 1.239 . S
O28 Nd1 2.487 . S
O28 C18 1.241 . S
O29 Nd0 2.414 . S
O29 Nd1 2.682 . S
O29 C18 1.273 . S
O30 Nd1 2.410 . S
O30 C19 1.251 . S
O31 Nd0 2.424 . S
O31 C19 1.268 . S
H32 C4 0.930 . S
H33 C5 0.929 . S
H34 C7 0.930 . S
H35 C8 0.929 . S
H36 C13 0.930 . S
H37 C14 0.929 . S
H38 C16 0.892 1_565 S
H39 C17 0.929 . S
Nd40 C42 2.836 . S
Nd40 O60 2.500 . S
Nd40 O61 2.492 . S
Nd40 O62 2.487 . S
Nd40 O63 2.682 . S
Nd40 O64 2.410 . S
Nd40 O69 2.414 . S
Nd40 O71 2.424 . S
Nd41 C51 2.836 . S
Nd41 O63 2.414 . S
Nd41 O65 2.424 . S
Nd41 O66 2.500 . S
Nd41 O67 2.492 . S
Nd41 O68 2.487 . S
Nd41 O69 2.682 . S
Nd41 O70 2.410 . S
C42 Nd40 2.836 . S
C42 C43 1.498 . S
C42 O60 1.258 . S
C42 O61 1.239 . S
C43 C42 1.498 . S
C43 C44 1.366 . S
C43 C48 1.407 . S
C44 C43 1.366 . S
C44 C45 1.392 . S
C44 H72 0.930 . S
C45 C44 1.392 . S
C45 C46 1.398 . S
C45 H73 0.929 . S
C46 C45 1.398 . S
C46 C47 1.352 . S
C47 C46 1.352 . S
C47 C48 1.384 . S
C47 H74 0.930 . S
C48 C43 1.407 . S
C48 C47 1.384 . S
C48 H75 0.929 . S
C49 O62 1.241 . S
C49 O63 1.273 . S
C50 O64 1.251 . S
C50 O65 1.268 . S
C51 Nd41 2.836 . S
C51 C52 1.498 . S
C51 O66 1.258 . S
C51 O67 1.239 . S
C52 C51 1.498 . S
C52 C53 1.366 . S
C52 C57 1.407 . S
C53 C52 1.366 . S
C53 C54 1.392 . S
C53 H76 0.930 . S
C54 C53 1.392 . S
C54 C55 1.398 . S
C54 H77 0.929 . S
C55 C54 1.398 . S
C55 C56 1.352 . S
C56 C55 1.352 . S
C56 C57 1.384 . S
C56 H78 0.930 . S
C57 C52 1.407 . S
C57 C56 1.384 . S
C57 H79 0.929 . S
C58 O68 1.241 . S
C58 O69 1.273 . S
C59 O70 1.251 . S
C59 O71 1.268 . S
O60 Nd40 2.500 . S
O60 C42 1.258 . S
O61 Nd40 2.492 . S
O61 C42 1.239 . S
O62 Nd40 2.487 . S
O62 C49 1.241 . S
O63 Nd40 2.682 . S
O63 Nd41 2.414 . S
O63 C49 1.273 . S
O64 Nd40 2.410 . S
O64 C50 1.251 . S
O65 Nd41 2.424 . S
O65 C50 1.268 . S
O66 Nd41 2.500 . S
O66 C51 1.258 . S
O67 Nd41 2.492 . S
O67 C51 1.239 . S
O68 Nd41 2.487 . S
O68 C58 1.241 . S
O69 Nd40 2.414 . S
O69 Nd41 2.682 . S
O69 C58 1.273 . S
O70 Nd41 2.410 . S
O70 C59 1.251 . S
O71 Nd40 2.424 . S
O71 C59 1.268 . S
H72 C44 0.930 . S
H73 C45 0.929 . S
H74 C47 0.930 . S
H75 C48 0.929 . S
H76 C53 0.930 . S
H77 C54 0.929 . S
H78 C56 0.930 . S
H79 C57 0.929 . S
Nd80 C82 2.836 . S
Nd80 O100 2.500 . S
Nd80 O101 2.492 . S
Nd80 O102 2.487 . S
Nd80 O103 2.682 . S
Nd80 O104 2.410 . S
Nd80 O109 2.414 . S
Nd80 O111 2.424 . S
Nd81 C91 2.836 . S
Nd81 O103 2.414 . S
Nd81 O105 2.424 . S
Nd81 O106 2.500 . S
Nd81 O107 2.492 . S
Nd81 O108 2.487 . S
Nd81 O109 2.682 . S
Nd81 O110 2.410 . S
C82 Nd80 2.836 . S
C82 C83 1.498 . S
C82 O100 1.258 . S
C82 O101 1.239 . S
C83 C82 1.498 . S
C83 C84 1.366 . S
C83 C88 1.407 . S
C84 C83 1.366 . S
C84 C85 1.392 . S
C84 H112 0.930 . S
C85 C84 1.392 . S
C85 C86 1.398 . S
C85 H113 0.929 . S
C86 C85 1.398 . S
C86 C87 1.352 . S
C87 C86 1.352 . S
C87 C88 1.384 . S
C87 H114 0.930 . S
C88 C83 1.407 . S
C88 C87 1.384 . S
C88 H115 0.929 . S
C89 O102 1.241 . S
C89 O103 1.273 . S
C90 O104 1.251 . S
C90 O105 1.268 . S
C91 Nd81 2.836 . S
C91 C92 1.498 . S
C91 O106 1.258 . S
C91 O107 1.239 . S
C92 C91 1.498 . S
C92 C93 1.366 . S
C92 C97 1.407 . S
C93 C92 1.366 . S
C93 C94 1.392 . S
C93 H116 0.930 . S
C94 C93 1.392 . S
C94 C95 1.398 . S
C94 H117 0.929 . S
C95 C94 1.398 . S
C95 C96 1.352 . S
C96 C95 1.352 . S
C96 C97 1.384 . S
C96 H118 0.892 1_565 S
C97 C92 1.407 . S
C97 C96 1.384 . S
C97 H119 0.929 . S
C98 O108 1.241 . S
C98 O109 1.273 . S
C99 O110 1.251 . S
C99 O111 1.268 . S
O100 Nd80 2.500 . S
O100 C82 1.258 . S
O101 Nd80 2.492 . S
O101 C82 1.239 . S
O102 Nd80 2.487 . S
O102 C89 1.241 . S
O103 Nd80 2.682 . S
O103 Nd81 2.414 . S
O103 C89 1.273 . S
O104 Nd80 2.410 . S
O104 C90 1.251 . S
O105 Nd81 2.424 . S
O105 C90 1.268 . S
O106 Nd81 2.500 . S
O106 C91 1.258 . S
O107 Nd81 2.492 . S
O107 C91 1.239 . S
O108 Nd81 2.487 . S
O108 C98 1.241 . S
O109 Nd80 2.414 . S
O109 Nd81 2.682 . S
O109 C98 1.273 . S
O110 Nd81 2.410 . S
O110 C99 1.251 . S
O111 Nd80 2.424 . S
O111 C99 1.268 . S
H112 C84 0.930 . S
H113 C85 0.929 . S
H114 C87 0.930 . S
H115 C88 0.929 . S
H116 C93 0.930 . S
H117 C94 0.929 . S
H118 C96 0.892 1_545 S
H119 C97 0.929 . S
Nd120 C122 2.836 . S
Nd120 O140 2.500 . S
Nd120 O141 2.492 . S
Nd120 O142 2.487 . S
Nd120 O143 2.682 . S
Nd120 O144 2.410 . S
Nd120 O149 2.414 . S
Nd120 O151 2.424 . S
Nd121 C131 2.836 . S
Nd121 O143 2.414 . S
Nd121 O145 2.424 . S
Nd121 O146 2.500 . S
Nd121 O147 2.492 . S
Nd121 O148 2.487 . S
Nd121 O149 2.682 . S
Nd121 O150 2.410 . S
C122 Nd120 2.836 . S
C122 C123 1.498 1_554 S
C122 O140 1.258 . S
C122 O141 1.239 . S
C123 C122 1.498 1_556 S
C123 C124 1.366 . S
C123 C128 1.407 . S
C124 C123 1.366 . S
C124 C125 1.392 . S
C124 H152 0.930 . S
C125 C124 1.392 . S
C125 C126 1.398 . S
C125 H153 0.929 . S
C126 C125 1.398 . S
C126 C127 1.352 . S
C127 C126 1.352 . S
C127 C128 1.384 . S
C127 H154 0.930 . S
C128 C123 1.407 . S
C128 C127 1.384 . S
C128 H155 0.929 . S
C129 O142 1.241 . S
C129 O143 1.273 . S
C130 O144 1.251 . S
C130 O145 1.268 . S
C131 Nd121 2.836 . S
C131 C132 1.498 . S
C131 O146 1.258 . S
C131 O147 1.239 . S
C132 C131 1.498 . S
C132 C133 1.366 . S
C132 C137 1.407 . S
C133 C132 1.366 . S
C133 C134 1.392 . S
C133 H156 0.930 . S
C134 C133 1.392 . S
C134 C135 1.398 . S
C134 H157 0.929 . S
C135 C134 1.398 . S
C135 C136 1.352 . S
C136 C135 1.352 . S
C136 C137 1.384 . S
C136 H158 0.930 . S
C137 C132 1.407 . S
C137 C136 1.384 . S
C137 H159 0.929 . S
C138 O148 1.241 . S
C138 O149 1.273 . S
C139 O150 1.251 . S
C139 O151 1.268 . S
O140 Nd120 2.500 . S
O140 C122 1.258 . S
O141 Nd120 2.492 . S
O141 C122 1.239 . S
O142 Nd120 2.487 . S
O142 C129 1.241 . S
O143 Nd120 2.682 . S
O143 Nd121 2.414 . S
O143 C129 1.273 . S
O144 Nd120 2.410 . S
O144 C130 1.251 . S
O145 Nd121 2.424 . S
O145 C130 1.268 . S
O146 Nd121 2.500 . S
O146 C131 1.258 . S
O147 Nd121 2.492 . S
O147 C131 1.239 . S
O148 Nd121 2.487 . S
O148 C138 1.241 . S
O149 Nd120 2.414 . S
O149 Nd121 2.682 . S
O149 C138 1.273 . S
O150 Nd121 2.410 . S
O150 C139 1.251 . S
O151 Nd120 2.424 . S
O151 C139 1.268 . S
H152 C124 0.930 . S
H153 C125 0.929 . S
H154 C127 0.930 . S
H155 C128 0.929 . S
H156 C133 0.930 . S
H157 C134 0.929 . S
H158 C136 0.930 . S
H159 C137 0.929 . S
Nd160 C162 2.836 . S
Nd160 O180 2.500 . S
Nd160 O181 2.492 . S
Nd160 O182 2.487 . S
Nd160 O183 2.682 . S
Nd160 O184 2.410 . S
Nd160 O189 2.414 . S
Nd160 O191 2.424 . S
Nd161 C171 2.836 . S
Nd161 O183 2.414 . S
Nd161 O185 2.424 . S
Nd161 O186 2.500 . S
Nd161 O187 2.492 . S
Nd161 O188 2.487 . S
Nd161 O189 2.682 . S
Nd161 O190 2.410 . S
C162 Nd160 2.836 . S
C162 C163 1.498 . S
C162 O180 1.258 . S
C162 O181 1.239 . S
C163 C162 1.498 . S
C163 C164 1.366 . S
C163 C168 1.407 . S
C164 C163 1.366 . S
C164 C165 1.392 . S
C164 H192 0.930 . S
C165 C164 1.392 . S
C165 C166 1.398 . S
C165 H193 0.929 . S
C166 C165 1.398 . S
C166 C167 1.352 . S
C167 C166 1.352 . S
C167 C168 1.384 . S
C167 H194 0.930 . S
C168 C163 1.407 . S
C168 C167 1.384 . S
C168 H195 0.929 . S
C169 O182 1.241 . S
C169 O183 1.273 . S
C170 O184 1.251 . S
C170 O185 1.268 . S
C171 Nd161 2.836 . S
C171 C172 1.498 . S
C171 O186 1.258 . S
C171 O187 1.239 . S
C172 C171 1.498 . S
C172 C173 1.366 . S
C172 C177 1.407 . S
C173 C172 1.366 . S
C173 C174 1.392 . S
C173 H196 0.930 . S
C174 C173 1.392 . S
C174 C175 1.398 . S
C174 H197 0.929 . S
C175 C174 1.398 . S
C175 C176 1.352 . S
C176 C175 1.352 . S
C176 C177 1.384 . S
C176 H198 0.892 1_565 S
C177 C172 1.407 . S
C177 C176 1.384 . S
C177 H199 0.929 . S
C178 O188 1.241 . S
C178 O189 1.273 . S
C179 O190 1.251 . S
C179 O191 1.268 . S
O180 Nd160 2.500 . S
O180 C162 1.258 . S
O181 Nd160 2.492 . S
O181 C162 1.239 . S
O182 Nd160 2.487 . S
O182 C169 1.241 . S
O183 Nd160 2.682 . S
O183 Nd161 2.414 . S
O183 C169 1.273 . S
O184 Nd160 2.410 . S
O184 C170 1.251 . S
O185 Nd161 2.424 . S
O185 C170 1.268 . S
O186 Nd161 2.500 . S
O186 C171 1.258 . S
O187 Nd161 2.492 . S
O187 C171 1.239 . S
O188 Nd161 2.487 . S
O188 C178 1.241 . S
O189 Nd160 2.414 . S
O189 Nd161 2.682 . S
O189 C178 1.273 . S
O190 Nd161 2.410 . S
O190 C179 1.251 . S
O191 Nd160 2.424 . S
O191 C179 1.268 . S
H192 C164 0.930 . S
H193 C165 0.929 . S
H194 C167 0.930 . S
H195 C168 0.929 . S
H196 C173 0.930 . S
H197 C174 0.929 . S
H198 C176 0.892 1_545 S
H199 C177 0.929 . S
Nd200 C202 2.836 . S
Nd200 O220 2.500 . S
Nd200 O221 2.492 . S
Nd200 O222 2.487 . S
Nd200 O223 2.682 . S
Nd200 O224 2.410 . S
Nd200 O229 2.414 . S
Nd200 O231 2.424 . S
Nd201 C211 2.836 . S
Nd201 O223 2.414 . S
Nd201 O225 2.424 . S
Nd201 O226 2.500 . S
Nd201 O227 2.492 . S
Nd201 O228 2.487 . S
Nd201 O229 2.682 . S
Nd201 O230 2.410 . S
C202 Nd200 2.836 . S
C202 C203 1.498 . S
C202 O220 1.258 . S
C202 O221 1.239 . S
C203 C202 1.498 . S
C203 C204 1.366 . S
C203 C208 1.407 . S
C204 C203 1.366 . S
C204 C205 1.392 . S
C204 H232 0.930 . S
C205 C204 1.392 . S
C205 C206 1.398 . S
C205 H233 0.929 . S
C206 C205 1.398 . S
C206 C207 1.352 . S
C207 C206 1.352 . S
C207 C208 1.384 . S
C207 H234 0.930 . S
C208 C203 1.407 . S
C208 C207 1.384 . S
C208 H235 0.929 . S
C209 O222 1.241 . S
C209 O223 1.273 . S
C210 O224 1.251 . S
C210 O225 1.268 . S
C211 Nd201 2.836 . S
C211 C212 1.498 . S
C211 O226 1.258 . S
C211 O227 1.239 . S
C212 C211 1.498 . S
C212 C213 1.366 . S
C212 C217 1.407 . S
C213 C212 1.366 . S
C213 C214 1.392 . S
C213 H236 0.930 . S
C214 C213 1.392 . S
C214 C215 1.398 . S
C214 H237 0.929 . S
C215 C214 1.398 . S
C215 C216 1.352 . S
C216 C215 1.352 . S
C216 C217 1.384 . S
C216 H238 0.930 . S
C217 C212 1.407 . S
C217 C216 1.384 . S
C217 H239 0.929 . S
C218 O228 1.241 . S
C218 O229 1.273 . S
C219 O230 1.251 . S
C219 O231 1.268 . S
O220 Nd200 2.500 . S
O220 C202 1.258 . S
O221 Nd200 2.492 . S
O221 C202 1.239 . S
O222 Nd200 2.487 . S
O222 C209 1.241 . S
O223 Nd200 2.682 . S
O223 Nd201 2.414 . S
O223 C209 1.273 . S
O224 Nd200 2.410 . S
O224 C210 1.251 . S
O225 Nd201 2.424 . S
O225 C210 1.268 . S
O226 Nd201 2.500 . S
O226 C211 1.258 . S
O227 Nd201 2.492 . S
O227 C211 1.239 . S
O228 Nd201 2.487 . S
O228 C218 1.241 . S
O229 Nd200 2.414 . S
O229 Nd201 2.682 . S
O229 C218 1.273 . S
O230 Nd201 2.410 . S
O230 C219 1.251 . S
O231 Nd200 2.424 . S
O231 C219 1.268 . S
H232 C204 0.930 . S
H233 C205 0.929 . S
H234 C207 0.930 . S
H235 C208 0.929 . S
H236 C213 0.930 . S
H237 C214 0.929 . S
H238 C216 0.930 . S
H239 C217 0.929 . S
Nd240 C242 2.836 . S
Nd240 O260 2.500 . S
Nd240 O261 2.492 . S
Nd240 O262 2.487 . S
Nd240 O263 2.682 . S
Nd240 O264 2.410 . S
Nd240 O269 2.414 . S
Nd240 O271 2.424 . S
Nd241 C251 2.836 . S
Nd241 O263 2.414 . S
Nd241 O265 2.424 . S
Nd241 O266 2.500 . S
Nd241 O267 2.492 . S
Nd241 O268 2.487 . S
Nd241 O269 2.682 . S
Nd241 O270 2.410 . S
C242 Nd240 2.836 . S
C242 C243 1.498 . S
C242 O260 1.258 . S
C242 O261 1.239 . S
C243 C242 1.498 . S
C243 C244 1.366 . S
C243 C248 1.407 . S
C244 C243 1.366 . S
C244 C245 1.392 . S
C244 H272 0.930 . S
C245 C244 1.392 . S
C245 C246 1.398 . S
C245 H273 0.929 . S
C246 C245 1.398 . S
C246 C247 1.352 . S
C247 C246 1.352 . S
C247 C248 1.384 . S
C247 H274 0.930 . S
C248 C243 1.407 . S
C248 C247 1.384 . S
C248 H275 0.929 . S
C249 O262 1.241 . S
C249 O263 1.273 . S
C250 O264 1.251 . S
C250 O265 1.268 . S
C251 Nd241 2.836 . S
C251 C252 1.498 . S
C251 O266 1.258 . S
C251 O267 1.239 . S
C252 C251 1.498 . S
C252 C253 1.366 . S
C252 C257 1.407 . S
C253 C252 1.366 . S
C253 C254 1.392 . S
C253 H276 0.930 . S
C254 C253 1.392 . S
C254 C255 1.398 . S
C254 H277 0.929 . S
C255 C254 1.398 . S
C255 C256 1.352 . S
C256 C255 1.352 . S
C256 C257 1.384 . S
C256 H278 0.892 1_545 S
C257 C252 1.407 . S
C257 C256 1.384 . S
C257 H279 0.929 . S
C258 O268 1.241 . S
C258 O269 1.273 . S
C259 O270 1.251 . S
C259 O271 1.268 . S
O260 Nd240 2.500 . S
O260 C242 1.258 . S
O261 Nd240 2.492 . S
O261 C242 1.239 . S
O262 Nd240 2.487 . S
O262 C249 1.241 . S
O263 Nd240 2.682 . S
O263 Nd241 2.414 . S
O263 C249 1.273 . S
O264 Nd240 2.410 . S
O264 C250 1.251 . S
O265 Nd241 2.424 . S
O265 C250 1.268 . S
O266 Nd241 2.500 . S
O266 C251 1.258 . S
O267 Nd241 2.492 . S
O267 C251 1.239 . S
O268 Nd241 2.487 . S
O268 C258 1.241 . S
O269 Nd240 2.414 . S
O269 Nd241 2.682 . S
O269 C258 1.273 . S
O270 Nd241 2.410 . S
O270 C259 1.251 . S
O271 Nd240 2.424 . S
O271 C259 1.268 . S
H272 C244 0.930 . S
H273 C245 0.929 . S
H274 C247 0.930 . S
H275 C248 0.929 . S
H276 C253 0.930 . S
H277 C254 0.929 . S
H278 C256 0.892 1_565 S
H279 C257 0.929 . S
Nd280 C282 2.836 . S
Nd280 O300 2.500 . S
Nd280 O301 2.492 . S
Nd280 O302 2.487 . S
Nd280 O303 2.682 . S
Nd280 O304 2.410 . S
Nd280 O309 2.414 . S
Nd280 O311 2.424 . S
Nd281 C291 2.836 . S
Nd281 O303 2.414 . S
Nd281 O305 2.424 . S
Nd281 O306 2.500 . S
Nd281 O307 2.492 . S
Nd281 O308 2.487 . S
Nd281 O309 2.682 . S
Nd281 O310 2.410 . S
C282 Nd280 2.836 . S
C282 C283 1.498 1_556 S
C282 O300 1.258 . S
C282 O301 1.239 . S
C283 C282 1.498 1_554 S
C283 C284 1.366 . S
C283 C288 1.407 . S
C284 C283 1.366 . S
C284 C285 1.392 . S
C284 H312 0.930 . S
C285 C284 1.392 . S
C285 C286 1.398 . S
C285 H313 0.929 . S
C286 C285 1.398 . S
C286 C287 1.352 . S
C287 C286 1.352 . S
C287 C288 1.384 . S
C287 H314 0.930 . S
C288 C283 1.407 . S
C288 C287 1.384 . S
C288 H315 0.929 . S
C289 O302 1.241 . S
C289 O303 1.273 . S
C290 O304 1.251 . S
C290 O305 1.268 . S
C291 Nd281 2.836 . S
C291 C292 1.498 . S
C291 O306 1.258 . S
C291 O307 1.239 . S
C292 C291 1.498 . S
C292 C293 1.366 . S
C292 C297 1.407 . S
C293 C292 1.366 . S
C293 C294 1.392 . S
C293 H316 0.930 . S
C294 C293 1.392 . S
C294 C295 1.398 . S
C294 H317 0.929 . S
C295 C294 1.398 . S
C295 C296 1.352 . S
C296 C295 1.352 . S
C296 C297 1.384 . S
C296 H318 0.930 . S
C297 C292 1.407 . S
C297 C296 1.384 . S
C297 H319 0.929 . S
C298 O308 1.241 . S
C298 O309 1.273 . S
C299 O310 1.251 . S
C299 O311 1.268 . S
O300 Nd280 2.500 . S
O300 C282 1.258 . S
O301 Nd280 2.492 . S
O301 C282 1.239 . S
O302 Nd280 2.487 . S
O302 C289 1.241 . S
O303 Nd280 2.682 . S
O303 Nd281 2.414 . S
O303 C289 1.273 . S
O304 Nd280 2.410 . S
O304 C290 1.251 . S
O305 Nd281 2.424 . S
O305 C290 1.268 . S
O306 Nd281 2.500 . S
O306 C291 1.258 . S
O307 Nd281 2.492 . S
O307 C291 1.239 . S
O308 Nd281 2.487 . S
O308 C298 1.241 . S
O309 Nd280 2.414 . S
O309 Nd281 2.682 . S
O309 C298 1.273 . S
O310 Nd281 2.410 . S
O310 C299 1.251 . S
O311 Nd280 2.424 . S
O311 C299 1.268 . S
H312 C284 0.930 . S
H313 C285 0.929 . S
H314 C287 0.930 . S
H315 C288 0.929 . S
H316 C293 0.930 . S
H317 C294 0.929 . S
H318 C296 0.930 . S
H319 C297 0.929 . S
Nd320 C322 2.836 . S
Nd320 O340 2.500 . S
Nd320 O341 2.492 . S
Nd320 O342 2.487 . S
Nd320 O343 2.682 . S
Nd320 O344 2.410 . S
Nd320 O349 2.414 . S
Nd320 O351 2.424 . S
Nd321 C331 2.836 . S
Nd321 O343 2.414 . S
Nd321 O345 2.424 . S
Nd321 O346 2.500 . S
Nd321 O347 2.492 . S
Nd321 O348 2.487 . S
Nd321 O349 2.682 . S
Nd321 O350 2.410 . S
C322 Nd320 2.836 . S
C322 C323 1.498 . S
C322 O340 1.258 . S
C322 O341 1.239 . S
C323 C322 1.498 . S
C323 C324 1.366 . S
C323 C328 1.407 . S
C324 C323 1.366 . S
C324 C325 1.392 . S
C324 H352 0.930 . S
C325 C324 1.392 . S
C325 C326 1.398 . S
C325 H353 0.929 . S
C326 C325 1.398 . S
C326 C327 1.352 . S
C327 C326 1.352 . S
C327 C328 1.384 . S
C327 H354 0.892 1_565 S
C328 C323 1.407 . S
C328 C327 1.384 . S
C328 H355 0.929 . S
C329 O342 1.241 . S
C329 O343 1.273 . S
C330 O344 1.251 . S
C330 O345 1.268 . S
C331 Nd321 2.836 . S
C331 C332 1.498 . S
C331 O346 1.258 . S
C331 O347 1.239 . S
C332 C331 1.498 . S
C332 C333 1.366 . S
C332 C337 1.407 . S
C333 C332 1.366 . S
C333 C334 1.392 . S
C333 H356 0.930 . S
C334 C333 1.392 . S
C334 C335 1.398 . S
C334 H357 0.929 . S
C335 C334 1.398 . S
C335 C336 1.352 . S
C336 C335 1.352 . S
C336 C337 1.384 . S
C336 H358 0.930 . S
C337 C332 1.407 . S
C337 C336 1.384 . S
C337 H359 0.929 . S
C338 O348 1.241 . S
C338 O349 1.273 . S
C339 O350 1.251 . S
C339 O351 1.268 . S
O340 Nd320 2.500 . S
O340 C322 1.258 . S
O341 Nd320 2.492 . S
O341 C322 1.239 . S
O342 Nd320 2.487 . S
O342 C329 1.241 . S
O343 Nd320 2.682 . S
O343 Nd321 2.414 . S
O343 C329 1.273 . S
O344 Nd320 2.410 . S
O344 C330 1.251 . S
O345 Nd321 2.424 . S
O345 C330 1.268 . S
O346 Nd321 2.500 . S
O346 C331 1.258 . S
O347 Nd321 2.492 . S
O347 C331 1.239 . S
O348 Nd321 2.487 . S
O348 C338 1.241 . S
O349 Nd320 2.414 . S
O349 Nd321 2.682 . S
O349 C338 1.273 . S
O350 Nd321 2.410 . S
O350 C339 1.251 . S
O351 Nd320 2.424 . S
O351 C339 1.268 . S
H352 C324 0.930 . S
H353 C325 0.929 . S
H354 C327 0.892 1_545 S
H355 C328 0.929 . S
H356 C333 0.930 . S
H357 C334 0.929 . S
H358 C336 0.930 . S
H359 C337 0.929 . S
Nd360 C362 2.836 . S
Nd360 O380 2.500 . S
Nd360 O381 2.492 . S
Nd360 O382 2.487 . S
Nd360 O383 2.682 . S
Nd360 O384 2.410 . S
Nd360 O389 2.414 . S
Nd360 O391 2.424 . S
Nd361 C371 2.836 . S
Nd361 O383 2.414 . S
Nd361 O385 2.424 . S
Nd361 O386 2.500 . S
Nd361 O387 2.492 . S
Nd361 O388 2.487 . S
Nd361 O389 2.682 . S
Nd361 O390 2.410 . S
C362 Nd360 2.836 . S
C362 C363 1.498 . S
C362 O380 1.258 . S
C362 O381 1.239 . S
C363 C362 1.498 . S
C363 C364 1.366 . S
C363 C368 1.407 . S
C364 C363 1.366 . S
C364 C365 1.392 . S
C364 H392 0.930 . S
C365 C364 1.392 . S
C365 C366 1.398 . S
C365 H393 0.929 . S
C366 C365 1.398 . S
C366 C367 1.352 . S
C367 C366 1.352 . S
C367 C368 1.384 . S
C367 H394 0.930 . S
C368 C363 1.407 . S
C368 C367 1.384 . S
C368 H395 0.929 . S
C369 O382 1.241 . S
C369 O383 1.273 . S
C370 O384 1.251 . S
C370 O385 1.268 . S
C371 Nd361 2.836 . S
C371 C372 1.498 . S
C371 O386 1.258 . S
C371 O387 1.239 . S
C372 C371 1.498 . S
C372 C373 1.366 . S
C372 C377 1.407 . S
C373 C372 1.366 . S
C373 C374 1.392 . S
C373 H396 0.930 . S
C374 C373 1.392 . S
C374 C375 1.398 . S
C374 H397 0.929 . S
C375 C374 1.398 . S
C375 C376 1.352 . S
C376 C375 1.352 . S
C376 C377 1.384 . S
C376 H398 0.930 . S
C377 C372 1.407 . S
C377 C376 1.384 . S
C377 H399 0.929 . S
C378 O388 1.241 . S
C378 O389 1.273 . S
C379 O390 1.251 . S
C379 O391 1.268 . S
O380 Nd360 2.500 . S
O380 C362 1.258 . S
O381 Nd360 2.492 . S
O381 C362 1.239 . S
O382 Nd360 2.487 . S
O382 C369 1.241 . S
O383 Nd360 2.682 . S
O383 Nd361 2.414 . S
O383 C369 1.273 . S
O384 Nd360 2.410 . S
O384 C370 1.251 . S
O385 Nd361 2.424 . S
O385 C370 1.268 . S
O386 Nd361 2.500 . S
O386 C371 1.258 . S
O387 Nd361 2.492 . S
O387 C371 1.239 . S
O388 Nd361 2.487 . S
O388 C378 1.241 . S
O389 Nd360 2.414 . S
O389 Nd361 2.682 . S
O389 C378 1.273 . S
O390 Nd361 2.410 . S
O390 C379 1.251 . S
O391 Nd360 2.424 . S
O391 C379 1.268 . S
H392 C364 0.930 . S
H393 C365 0.929 . S
H394 C367 0.930 . S
H395 C368 0.929 . S
H396 C373 0.930 . S
H397 C374 0.929 . S
H398 C376 0.930 . S
H399 C377 0.929 . S
Nd400 C402 2.836 . S
Nd400 O420 2.500 . S
Nd400 O421 2.492 . S
Nd400 O422 2.487 . S
Nd400 O423 2.682 . S
Nd400 O424 2.410 . S
Nd400 O429 2.414 . S
Nd400 O431 2.424 . S
Nd401 C411 2.836 . S
Nd401 O423 2.414 . S
Nd401 O425 2.424 . S
Nd401 O426 2.500 . S
Nd401 O427 2.492 . S
Nd401 O428 2.487 . S
Nd401 O429 2.682 . S
Nd401 O430 2.410 . S
C402 Nd400 2.836 . S
C402 C403 1.498 . S
C402 O420 1.258 . S
C402 O421 1.239 . S
C403 C402 1.498 . S
C403 C404 1.366 . S
C403 C408 1.407 . S
C404 C403 1.366 . S
C404 C405 1.392 . S
C404 H432 0.930 . S
C405 C404 1.392 . S
C405 C406 1.398 . S
C405 H433 0.929 . S
C406 C405 1.398 . S
C406 C407 1.352 . S
C407 C406 1.352 . S
C407 C408 1.384 . S
C407 H434 0.892 1_545 S
C408 C403 1.407 . S
C408 C407 1.384 . S
C408 H435 0.929 . S
C409 O422 1.241 . S
C409 O423 1.273 . S
C410 O424 1.251 . S
C410 O425 1.268 . S
C411 Nd401 2.836 . S
C411 C412 1.498 . S
C411 O426 1.258 . S
C411 O427 1.239 . S
C412 C411 1.498 . S
C412 C413 1.366 . S
C412 C417 1.407 . S
C413 C412 1.366 . S
C413 C414 1.392 . S
C413 H436 0.930 . S
C414 C413 1.392 . S
C414 C415 1.398 . S
C414 H437 0.929 . S
C415 C414 1.398 . S
C415 C416 1.352 . S
C416 C415 1.352 . S
C416 C417 1.384 . S
C416 H438 0.930 . S
C417 C412 1.407 . S
C417 C416 1.384 . S
C417 H439 0.929 . S
C418 O428 1.241 . S
C418 O429 1.273 . S
C419 O430 1.251 . S
C419 O431 1.268 . S
O420 Nd400 2.500 . S
O420 C402 1.258 . S
O421 Nd400 2.492 . S
O421 C402 1.239 . S
O422 Nd400 2.487 . S
O422 C409 1.241 . S
O423 Nd400 2.682 . S
O423 Nd401 2.414 . S
O423 C409 1.273 . S
O424 Nd400 2.410 . S
O424 C410 1.251 . S
O425 Nd401 2.424 . S
O425 C410 1.268 . S
O426 Nd401 2.500 . S
O426 C411 1.258 . S
O427 Nd401 2.492 . S
O427 C411 1.239 . S
O428 Nd401 2.487 . S
O428 C418 1.241 . S
O429 Nd400 2.414 . S
O429 Nd401 2.682 . S
O429 C418 1.273 . S
O430 Nd401 2.410 . S
O430 C419 1.251 . S
O431 Nd400 2.424 . S
O431 C419 1.268 . S
H432 C404 0.930 . S
H433 C405 0.929 . S
H434 C407 0.892 1_565 S
H435 C408 0.929 . S
H436 C413 0.930 . S
H437 C414 0.929 . S
H438 C416 0.930 . S
H439 C417 0.929 . S
Nd440 C442 2.836 . S
Nd440 O460 2.500 . S
Nd440 O461 2.492 . S
Nd440 O462 2.487 . S
Nd440 O463 2.682 . S
Nd440 O464 2.410 . S
Nd440 O469 2.414 . S
Nd440 O471 2.424 . S
Nd441 C451 2.836 . S
Nd441 O463 2.414 . S
Nd441 O465 2.424 . S
Nd441 O466 2.500 . S
Nd441 O467 2.492 . S
Nd441 O468 2.487 . S
Nd441 O469 2.682 . S
Nd441 O470 2.410 . S
C442 Nd440 2.836 . S
C442 C443 1.498 . S
C442 O460 1.258 . S
C442 O461 1.239 . S
C443 C442 1.498 . S
C443 C444 1.366 . S
C443 C448 1.407 . S
C444 C443 1.366 . S
C444 C445 1.392 . S
C444 H472 0.930 . S
C445 C444 1.392 . S
C445 C446 1.398 . S
C445 H473 0.929 . S
C446 C445 1.398 . S
C446 C447 1.352 . S
C447 C446 1.352 . S
C447 C448 1.384 . S
C447 H474 0.930 . S
C448 C443 1.407 . S
C448 C447 1.384 . S
C448 H475 0.929 . S
C449 O462 1.241 . S
C449 O463 1.273 . S
C450 O464 1.251 . S
C450 O465 1.268 . S
C451 Nd441 2.836 . S
C451 C452 1.498 1_556 S
C451 O466 1.258 . S
C451 O467 1.239 . S
C452 C451 1.498 1_554 S
C452 C453 1.366 . S
C452 C457 1.407 . S
C453 C452 1.366 . S
C453 C454 1.392 . S
C453 H476 0.930 . S
C454 C453 1.392 . S
C454 C455 1.398 . S
C454 H477 0.929 . S
C455 C454 1.398 . S
C455 C456 1.352 . S
C456 C455 1.352 . S
C456 C457 1.384 . S
C456 H478 0.930 . S
C457 C452 1.407 . S
C457 C456 1.384 . S
C457 H479 0.929 . S
C458 O468 1.241 . S
C458 O469 1.273 . S
C459 O470 1.251 . S
C459 O471 1.268 . S
O460 Nd440 2.500 . S
O460 C442 1.258 . S
O461 Nd440 2.492 . S
O461 C442 1.239 . S
O462 Nd440 2.487 . S
O462 C449 1.241 . S
O463 Nd440 2.682 . S
O463 Nd441 2.414 . S
O463 C449 1.273 . S
O464 Nd440 2.410 . S
O464 C450 1.251 . S
O465 Nd441 2.424 . S
O465 C450 1.268 . S
O466 Nd441 2.500 . S
O466 C451 1.258 . S
O467 Nd441 2.492 . S
O467 C451 1.239 . S
O468 Nd441 2.487 . S
O468 C458 1.241 . S
O469 Nd440 2.414 . S
O469 Nd441 2.682 . S
O469 C458 1.273 . S
O470 Nd441 2.410 . S
O470 C459 1.251 . S
O471 Nd440 2.424 . S
O471 C459 1.268 . S
H472 C444 0.930 . S
H473 C445 0.929 . S
H474 C447 0.930 . S
H475 C448 0.929 . S
H476 C453 0.930 . S
H477 C454 0.929 . S
H478 C456 0.930 . S
H479 C457 0.929 . S
Nd480 C482 2.836 . S
Nd480 O500 2.500 . S
Nd480 O501 2.492 . S
Nd480 O502 2.487 . S
Nd480 O503 2.682 . S
Nd480 O504 2.410 . S
Nd480 O509 2.414 . S
Nd480 O511 2.424 . S
Nd481 C491 2.836 . S
Nd481 O503 2.414 . S
Nd481 O505 2.424 . S
Nd481 O506 2.500 . S
Nd481 O507 2.492 . S
Nd481 O508 2.487 . S
Nd481 O509 2.682 . S
Nd481 O510 2.410 . S
C482 Nd480 2.836 . S
C482 C483 1.498 . S
C482 O500 1.258 . S
C482 O501 1.239 . S
C483 C482 1.498 . S
C483 C484 1.366 . S
C483 C488 1.407 . S
C484 C483 1.366 . S
C484 C485 1.392 . S
C484 H512 0.930 . S
C485 C484 1.392 . S
C485 C486 1.398 . S
C485 H513 0.929 . S
C486 C485 1.398 . S
C486 C487 1.352 . S
C487 C486 1.352 . S
C487 C488 1.384 . S
C487 H514 0.892 1_545 S
C488 C483 1.407 . S
C488 C487 1.384 . S
C488 H515 0.929 . S
C489 O502 1.241 . S
C489 O503 1.273 . S
C490 O504 1.251 . S
C490 O505 1.268 . S
C491 Nd481 2.836 . S
C491 C492 1.498 . S
C491 O506 1.258 . S
C491 O507 1.239 . S
C492 C491 1.498 . S
C492 C493 1.366 . S
C492 C497 1.407 . S
C493 C492 1.366 . S
C493 C494 1.392 . S
C493 H516 0.930 . S
C494 C493 1.392 . S
C494 C495 1.398 . S
C494 H517 0.929 . S
C495 C494 1.398 . S
C495 C496 1.352 . S
C496 C495 1.352 . S
C496 C497 1.384 . S
C496 H518 0.930 . S
C497 C492 1.407 . S
C497 C496 1.384 . S
C497 H519 0.929 . S
C498 O508 1.241 . S
C498 O509 1.273 . S
C499 O510 1.251 . S
C499 O511 1.268 . S
O500 Nd480 2.500 . S
O500 C482 1.258 . S
O501 Nd480 2.492 . S
O501 C482 1.239 . S
O502 Nd480 2.487 . S
O502 C489 1.241 . S
O503 Nd480 2.682 . S
O503 Nd481 2.414 . S
O503 C489 1.273 . S
O504 Nd480 2.410 . S
O504 C490 1.251 . S
O505 Nd481 2.424 . S
O505 C490 1.268 . S
O506 Nd481 2.500 . S
O506 C491 1.258 . S
O507 Nd481 2.492 . S
O507 C491 1.239 . S
O508 Nd481 2.487 . S
O508 C498 1.241 . S
O509 Nd480 2.414 . S
O509 Nd481 2.682 . S
O509 C498 1.273 . S
O510 Nd481 2.410 . S
O510 C499 1.251 . S
O511 Nd480 2.424 . S
O511 C499 1.268 . S
H512 C484 0.930 . S
H513 C485 0.929 . S
H514 C487 0.892 1_565 S
H515 C488 0.929 . S
H516 C493 0.930 . S
H517 C494 0.929 . S
H518 C496 0.930 . S
H519 C497 0.929 . S
Nd520 C522 2.836 . S
Nd520 O540 2.500 . S
Nd520 O541 2.492 . S
Nd520 O542 2.487 . S
Nd520 O543 2.682 . S
Nd520 O544 2.410 . S
Nd520 O549 2.414 . S
Nd520 O551 2.424 . S
Nd521 C531 2.836 . S
Nd521 O543 2.414 . S
Nd521 O545 2.424 . S
Nd521 O546 2.500 . S
Nd521 O547 2.492 . S
Nd521 O548 2.487 . S
Nd521 O549 2.682 . S
Nd521 O550 2.410 . S
C522 Nd520 2.836 . S
C522 C523 1.498 . S
C522 O540 1.258 . S
C522 O541 1.239 . S
C523 C522 1.498 . S
C523 C524 1.366 . S
C523 C528 1.407 . S
C524 C523 1.366 . S
C524 C525 1.392 . S
C524 H552 0.930 . S
C525 C524 1.392 . S
C525 C526 1.398 . S
C525 H553 0.929 . S
C526 C525 1.398 . S
C526 C527 1.352 . S
C527 C526 1.352 . S
C527 C528 1.384 . S
C527 H554 0.930 . S
C528 C523 1.407 . S
C528 C527 1.384 . S
C528 H555 0.929 . S
C529 O542 1.241 . S
C529 O543 1.273 . S
C530 O544 1.251 . S
C530 O545 1.268 . S
C531 Nd521 2.836 . S
C531 C532 1.498 . S
C531 O546 1.258 . S
C531 O547 1.239 . S
C532 C531 1.498 . S
C532 C533 1.366 . S
C532 C537 1.407 . S
C533 C532 1.366 . S
C533 C534 1.392 . S
C533 H556 0.930 . S
C534 C533 1.392 . S
C534 C535 1.398 . S
C534 H557 0.929 . S
C535 C534 1.398 . S
C535 C536 1.352 . S
C536 C535 1.352 . S
C536 C537 1.384 . S
C536 H558 0.930 . S
C537 C532 1.407 . S
C537 C536 1.384 . S
C537 H559 0.929 . S
C538 O548 1.241 . S
C538 O549 1.273 . S
C539 O550 1.251 . S
C539 O551 1.268 . S
O540 Nd520 2.500 . S
O540 C522 1.258 . S
O541 Nd520 2.492 . S
O541 C522 1.239 . S
O542 Nd520 2.487 . S
O542 C529 1.241 . S
O543 Nd520 2.682 . S
O543 Nd521 2.414 . S
O543 C529 1.273 . S
O544 Nd520 2.410 . S
O544 C530 1.251 . S
O545 Nd521 2.424 . S
O545 C530 1.268 . S
O546 Nd521 2.500 . S
O546 C531 1.258 . S
O547 Nd521 2.492 . S
O547 C531 1.239 . S
O548 Nd521 2.487 . S
O548 C538 1.241 . S
O549 Nd520 2.414 . S
O549 Nd521 2.682 . S
O549 C538 1.273 . S
O550 Nd521 2.410 . S
O550 C539 1.251 . S
O551 Nd520 2.424 . S
O551 C539 1.268 . S
H552 C524 0.930 . S
H553 C525 0.929 . S
H554 C527 0.930 . S
H555 C528 0.929 . S
H556 C533 0.930 . S
H557 C534 0.929 . S
H558 C536 0.930 . S
H559 C537 0.929 . S
Nd560 C562 2.836 . S
Nd560 O580 2.500 . S
Nd560 O581 2.492 . S
Nd560 O582 2.487 . S
Nd560 O583 2.682 . S
Nd560 O584 2.410 . S
Nd560 O589 2.414 . S
Nd560 O591 2.424 . S
Nd561 C571 2.836 . S
Nd561 O583 2.414 . S
Nd561 O585 2.424 . S
Nd561 O586 2.500 . S
Nd561 O587 2.492 . S
Nd561 O588 2.487 . S
Nd561 O589 2.682 . S
Nd561 O590 2.410 . S
C562 Nd560 2.836 . S
C562 C563 1.498 . S
C562 O580 1.258 . S
C562 O581 1.239 . S
C563 C562 1.498 . S
C563 C564 1.366 . S
C563 C568 1.407 . S
C564 C563 1.366 . S
C564 C565 1.392 . S
C564 H592 0.930 . S
C565 C564 1.392 . S
C565 C566 1.398 . S
C565 H593 0.929 . S
C566 C565 1.398 . S
C566 C567 1.352 . S
C567 C566 1.352 . S
C567 C568 1.384 . S
C567 H594 0.892 1_565 S
C568 C563 1.407 . S
C568 C567 1.384 . S
C568 H595 0.929 . S
C569 O582 1.241 . S
C569 O583 1.273 . S
C570 O584 1.251 . S
C570 O585 1.268 . S
C571 Nd561 2.836 . S
C571 C572 1.498 . S
C571 O586 1.258 . S
C571 O587 1.239 . S
C572 C571 1.498 . S
C572 C573 1.366 . S
C572 C577 1.407 . S
C573 C572 1.366 . S
C573 C574 1.392 . S
C573 H596 0.930 . S
C574 C573 1.392 . S
C574 C575 1.398 . S
C574 H597 0.929 . S
C575 C574 1.398 . S
C575 C576 1.352 . S
C576 C575 1.352 . S
C576 C577 1.384 . S
C576 H598 0.930 . S
C577 C572 1.407 . S
C577 C576 1.384 . S
C577 H599 0.929 . S
C578 O588 1.241 . S
C578 O589 1.273 . S
C579 O590 1.251 . S
C579 O591 1.268 . S
O580 Nd560 2.500 . S
O580 C562 1.258 . S
O581 Nd560 2.492 . S
O581 C562 1.239 . S
O582 Nd560 2.487 . S
O582 C569 1.241 . S
O583 Nd560 2.682 . S
O583 Nd561 2.414 . S
O583 C569 1.273 . S
O584 Nd560 2.410 . S
O584 C570 1.251 . S
O585 Nd561 2.424 . S
O585 C570 1.268 . S
O586 Nd561 2.500 . S
O586 C571 1.258 . S
O587 Nd561 2.492 . S
O587 C571 1.239 . S
O588 Nd561 2.487 . S
O588 C578 1.241 . S
O589 Nd560 2.414 . S
O589 Nd561 2.682 . S
O589 C578 1.273 . S
O590 Nd561 2.410 . S
O590 C579 1.251 . S
O591 Nd560 2.424 . S
O591 C579 1.268 . S
H592 C564 0.930 . S
H593 C565 0.929 . S
H594 C567 0.892 1_545 S
H595 C568 0.929 . S
H596 C573 0.930 . S
H597 C574 0.929 . S
H598 C576 0.930 . S
H599 C577 0.929 . S
Nd600 C602 2.836 . S
Nd600 O620 2.500 . S
Nd600 O621 2.492 . S
Nd600 O622 2.487 . S
Nd600 O623 2.682 . S
Nd600 O624 2.410 . S
Nd600 O629 2.414 . S
Nd600 O631 2.424 . S
Nd601 C611 2.836 . S
Nd601 O623 2.414 . S
Nd601 O625 2.424 . S
Nd601 O626 2.500 . S
Nd601 O627 2.492 . S
Nd601 O628 2.487 . S
Nd601 O629 2.682 . S
Nd601 O630 2.410 . S
C602 Nd600 2.836 . S
C602 C603 1.498 . S
C602 O620 1.258 . S
C602 O621 1.239 . S
C603 C602 1.498 . S
C603 C604 1.366 . S
C603 C608 1.407 . S
C604 C603 1.366 . S
C604 C605 1.392 . S
C604 H632 0.930 . S
C605 C604 1.392 . S
C605 C606 1.398 . S
C605 H633 0.929 . S
C606 C605 1.398 . S
C606 C607 1.352 . S
C607 C606 1.352 . S
C607 C608 1.384 . S
C607 H634 0.930 . S
C608 C603 1.407 . S
C608 C607 1.384 . S
C608 H635 0.929 . S
C609 O622 1.241 . S
C609 O623 1.273 . S
C610 O624 1.251 . S
C610 O625 1.268 . S
C611 Nd601 2.836 . S
C611 C612 1.498 1_554 S
C611 O626 1.258 . S
C611 O627 1.239 . S
C612 C611 1.498 1_556 S
C612 C613 1.366 . S
C612 C617 1.407 . S
C613 C612 1.366 . S
C613 C614 1.392 . S
C613 H636 0.930 . S
C614 C613 1.392 . S
C614 C615 1.398 . S
C614 H637 0.929 . S
C615 C614 1.398 . S
C615 C616 1.352 . S
C616 C615 1.352 . S
C616 C617 1.384 . S
C616 H638 0.930 . S
C617 C612 1.407 . S
C617 C616 1.384 . S
C617 H639 0.929 . S
C618 O628 1.241 . S
C618 O629 1.273 . S
C619 O630 1.251 . S
C619 O631 1.268 . S
O620 Nd600 2.500 . S
O620 C602 1.258 . S
O621 Nd600 2.492 . S
O621 C602 1.239 . S
O622 Nd600 2.487 . S
O622 C609 1.241 . S
O623 Nd600 2.682 . S
O623 Nd601 2.414 . S
O623 C609 1.273 . S
O624 Nd600 2.410 . S
O624 C610 1.251 . S
O625 Nd601 2.424 . S
O625 C610 1.268 . S
O626 Nd601 2.500 . S
O626 C611 1.258 . S
O627 Nd601 2.492 . S
O627 C611 1.239 . S
O628 Nd601 2.487 . S
O628 C618 1.241 . S
O629 Nd600 2.414 . S
O629 Nd601 2.682 . S
O629 C618 1.273 . S
O630 Nd601 2.410 . S
O630 C619 1.251 . S
O631 Nd600 2.424 . S
O631 C619 1.268 . S
H632 C604 0.930 . S
H633 C605 0.929 . S
H634 C607 0.930 . S
H635 C608 0.929 . S
H636 C613 0.930 . S
H637 C614 0.929 . S
H638 C616 0.930 . S
H639 C617 0.929 . S
Nd640 C642 2.836 . S
Nd640 O660 2.500 . S
Nd640 O661 2.492 . S
Nd640 O662 2.487 . S
Nd640 O663 2.682 . S
Nd640 O664 2.410 . S
Nd640 O669 2.414 . S
Nd640 O671 2.424 . S
Nd641 C651 2.836 . S
Nd641 O663 2.414 . S
Nd641 O665 2.424 . S
Nd641 O666 2.500 . S
Nd641 O667 2.492 . S
Nd641 O668 2.487 . S
Nd641 O669 2.682 . S
Nd641 O670 2.410 . S
C642 Nd640 2.836 . S
C642 C643 1.498 . S
C642 O660 1.258 . S
C642 O661 1.239 . S
C643 C642 1.498 . S
C643 C644 1.366 . S
C643 C648 1.407 . S
C644 C643 1.366 . S
C644 C645 1.392 . S
C644 H672 0.930 . S
C645 C644 1.392 . S
C645 C646 1.398 . S
C645 H673 0.929 . S
C646 C645 1.398 . S
C646 C647 1.352 . S
C647 C646 1.352 . S
C647 C648 1.384 . S
C647 H674 0.930 . S
C648 C643 1.407 . S
C648 C647 1.384 . S
C648 H675 0.929 . S
C649 O662 1.241 . S
C649 O663 1.273 . S
C650 O664 1.251 . S
C650 O665 1.268 . S
C651 Nd641 2.836 . S
C651 C652 1.498 . S
C651 O666 1.258 . S
C651 O667 1.239 . S
C652 C651 1.498 . S
C652 C653 1.366 . S
C652 C657 1.407 . S
C653 C652 1.366 . S
C653 C654 1.392 . S
C653 H676 0.930 . S
C654 C653 1.392 . S
C654 C655 1.398 . S
C654 H677 0.929 . S
C655 C654 1.398 . S
C655 C656 1.352 . S
C656 C655 1.352 . S
C656 C657 1.384 . S
C656 H678 0.930 . S
C657 C652 1.407 . S
C657 C656 1.384 . S
C657 H679 0.929 . S
C658 O668 1.241 . S
C658 O669 1.273 . S
C659 O670 1.251 . S
C659 O671 1.268 . S
O660 Nd640 2.500 . S
O660 C642 1.258 . S
O661 Nd640 2.492 . S
O661 C642 1.239 . S
O662 Nd640 2.487 . S
O662 C649 1.241 . S
O663 Nd640 2.682 . S
O663 Nd641 2.414 . S
O663 C649 1.273 . S
O664 Nd640 2.410 . S
O664 C650 1.251 . S
O665 Nd641 2.424 . S
O665 C650 1.268 . S
O666 Nd641 2.500 . S
O666 C651 1.258 . S
O667 Nd641 2.492 . S
O667 C651 1.239 . S
O668 Nd641 2.487 . S
O668 C658 1.241 . S
O669 Nd640 2.414 . S
O669 Nd641 2.682 . S
O669 C658 1.273 . S
O670 Nd641 2.410 . S
O670 C659 1.251 . S
O671 Nd640 2.424 . S
O671 C659 1.268 . S
H672 C644 0.930 . S
H673 C645 0.929 . S
H674 C647 0.930 . S
H675 C648 0.929 . S
H676 C653 0.930 . S
H677 C654 0.929 . S
H678 C656 0.930 . S
H679 C657 0.929 . S
Nd680 C682 2.836 . S
Nd680 O700 2.500 . S
Nd680 O701 2.492 . S
Nd680 O702 2.487 . S
Nd680 O703 2.682 . S
Nd680 O704 2.410 . S
Nd680 O709 2.414 . S
Nd680 O711 2.424 . S
Nd681 C691 2.836 . S
Nd681 O703 2.414 . S
Nd681 O705 2.424 . S
Nd681 O706 2.500 . S
Nd681 O707 2.492 . S
Nd681 O708 2.487 . S
Nd681 O709 2.682 . S
Nd681 O710 2.410 . S
C682 Nd680 2.836 . S
C682 C683 1.498 1_554 S
C682 O700 1.258 . S
C682 O701 1.239 . S
C683 C682 1.498 1_556 S
C683 C684 1.366 . S
C683 C688 1.407 . S
C684 C683 1.366 . S
C684 C685 1.392 . S
C684 H712 0.930 . S
C685 C684 1.392 . S
C685 C686 1.398 . S
C685 H713 0.929 . S
C686 C685 1.398 . S
C686 C687 1.352 . S
C687 C686 1.352 . S
C687 C688 1.384 . S
C687 H714 0.930 . S
C688 C683 1.407 . S
C688 C687 1.384 . S
C688 H715 0.929 . S
C689 O702 1.241 . S
C689 O703 1.273 . S
C690 O704 1.251 . S
C690 O705 1.268 . S
C691 Nd681 2.836 . S
C691 C692 1.498 . S
C691 O706 1.258 . S
C691 O707 1.239 . S
C692 C691 1.498 . S
C692 C693 1.366 . S
C692 C697 1.407 . S
C693 C692 1.366 . S
C693 C694 1.392 . S
C693 H716 0.930 . S
C694 C693 1.392 . S
C694 C695 1.398 . S
C694 H717 0.929 . S
C695 C694 1.398 . S
C695 C696 1.352 . S
C696 C695 1.352 . S
C696 C697 1.384 . S
C696 H718 0.930 . S
C697 C692 1.407 . S
C697 C696 1.384 . S
C697 H719 0.929 . S
C698 O708 1.241 . S
C698 O709 1.273 . S
C699 O710 1.251 . S
C699 O711 1.268 . S
O700 Nd680 2.500 . S
O700 C682 1.258 . S
O701 Nd680 2.492 . S
O701 C682 1.239 . S
O702 Nd680 2.487 . S
O702 C689 1.241 . S
O703 Nd680 2.682 . S
O703 Nd681 2.414 . S
O703 C689 1.273 . S
O704 Nd680 2.410 . S
O704 C690 1.251 . S
O705 Nd681 2.424 . S
O705 C690 1.268 . S
O706 Nd681 2.500 . S
O706 C691 1.258 . S
O707 Nd681 2.492 . S
O707 C691 1.239 . S
O708 Nd681 2.487 . S
O708 C698 1.241 . S
O709 Nd680 2.414 . S
O709 Nd681 2.682 . S
O709 C698 1.273 . S
O710 Nd681 2.410 . S
O710 C699 1.251 . S
O711 Nd680 2.424 . S
O711 C699 1.268 . S
H712 C684 0.930 . S
H713 C685 0.929 . S
H714 C687 0.930 . S
H715 C688 0.929 . S
H716 C693 0.930 . S
H717 C694 0.929 . S
H718 C696 0.930 . S
H719 C697 0.929 . S
Nd720 C722 2.836 . S
Nd720 O740 2.500 . S
Nd720 O741 2.492 . S
Nd720 O742 2.487 . S
Nd720 O743 2.682 . S
Nd720 O744 2.410 . S
Nd720 O749 2.414 . S
Nd720 O751 2.424 . S
Nd721 C731 2.836 . S
Nd721 O743 2.414 . S
Nd721 O745 2.424 . S
Nd721 O746 2.500 . S
Nd721 O747 2.492 . S
Nd721 O748 2.487 . S
Nd721 O749 2.682 . S
Nd721 O750 2.410 . S
C722 Nd720 2.836 . S
C722 C723 1.498 . S
C722 O740 1.258 . S
C722 O741 1.239 . S
C723 C722 1.498 . S
C723 C724 1.366 . S
C723 C728 1.407 . S
C724 C723 1.366 . S
C724 C725 1.392 . S
C724 H752 0.930 . S
C725 C724 1.392 . S
C725 C726 1.398 . S
C725 H753 0.929 . S
C726 C725 1.398 . S
C726 C727 1.352 . S
C727 C726 1.352 . S
C727 C728 1.384 . S
C727 H754 0.930 . S
C728 C723 1.407 . S
C728 C727 1.384 . S
C728 H755 0.929 . S
C729 O742 1.241 . S
C729 O743 1.273 . S
C730 O744 1.251 . S
C730 O745 1.268 . S
C731 Nd721 2.836 . S
C731 C732 1.498 . S
C731 O746 1.258 . S
C731 O747 1.239 . S
C732 C731 1.498 . S
C732 C733 1.366 . S
C732 C737 1.407 . S
C733 C732 1.366 . S
C733 C734 1.392 . S
C733 H756 0.930 . S
C734 C733 1.392 . S
C734 C735 1.398 . S
C734 H757 0.929 . S
C735 C734 1.398 . S
C735 C736 1.352 . S
C736 C735 1.352 . S
C736 C737 1.384 . S
C736 H758 0.930 . S
C737 C732 1.407 . S
C737 C736 1.384 . S
C737 H759 0.929 . S
C738 O748 1.241 . S
C738 O749 1.273 . S
C739 O750 1.251 . S
C739 O751 1.268 . S
O740 Nd720 2.500 . S
O740 C722 1.258 . S
O741 Nd720 2.492 . S
O741 C722 1.239 . S
O742 Nd720 2.487 . S
O742 C729 1.241 . S
O743 Nd720 2.682 . S
O743 Nd721 2.414 . S
O743 C729 1.273 . S
O744 Nd720 2.410 . S
O744 C730 1.251 . S
O745 Nd721 2.424 . S
O745 C730 1.268 . S
O746 Nd721 2.500 . S
O746 C731 1.258 . S
O747 Nd721 2.492 . S
O747 C731 1.239 . S
O748 Nd721 2.487 . S
O748 C738 1.241 . S
O749 Nd720 2.414 . S
O749 Nd721 2.682 . S
O749 C738 1.273 . S
O750 Nd721 2.410 . S
O750 C739 1.251 . S
O751 Nd720 2.424 . S
O751 C739 1.268 . S
H752 C724 0.930 . S
H753 C725 0.929 . S
H754 C727 0.930 . S
H755 C728 0.929 . S
H756 C733 0.930 . S
H757 C734 0.929 . S
H758 C736 0.930 . S
H759 C737 0.929 . S
Nd760 C762 2.836 . S
Nd760 O780 2.500 . S
Nd760 O781 2.492 . S
Nd760 O782 2.487 . S
Nd760 O783 2.682 . S
Nd760 O784 2.410 . S
Nd760 O789 2.414 . S
Nd760 O791 2.424 . S
Nd761 C771 2.836 . S
Nd761 O783 2.414 . S
Nd761 O785 2.424 . S
Nd761 O786 2.500 . S
Nd761 O787 2.492 . S
Nd761 O788 2.487 . S
Nd761 O789 2.682 . S
Nd761 O790 2.410 . S
C762 Nd760 2.836 . S
C762 C763 1.498 . S
C762 O780 1.258 . S
C762 O781 1.239 . S
C763 C762 1.498 . S
C763 C764 1.366 . S
C763 C768 1.407 . S
C764 C763 1.366 . S
C764 C765 1.392 . S
C764 H792 0.930 . S
C765 C764 1.392 . S
C765 C766 1.398 . S
C765 H793 0.929 . S
C766 C765 1.398 . S
C766 C767 1.352 . S
C767 C766 1.352 . S
C767 C768 1.384 . S
C767 H794 0.930 . S
C768 C763 1.407 . S
C768 C767 1.384 . S
C768 H795 0.929 . S
C769 O782 1.241 . S
C769 O783 1.273 . S
C770 O784 1.251 . S
C770 O785 1.268 . S
C771 Nd761 2.836 . S
C771 C772 1.498 . S
C771 O786 1.258 . S
C771 O787 1.239 . S
C772 C771 1.498 . S
C772 C773 1.366 . S
C772 C777 1.407 . S
C773 C772 1.366 . S
C773 C774 1.392 . S
C773 H796 0.930 . S
C774 C773 1.392 . S
C774 C775 1.398 . S
C774 H797 0.929 . S
C775 C774 1.398 . S
C775 C776 1.352 . S
C776 C775 1.352 . S
C776 C777 1.384 . S
C776 H798 0.930 . S
C777 C772 1.407 . S
C777 C776 1.384 . S
C777 H799 0.929 . S
C778 O788 1.241 . S
C778 O789 1.273 . S
C779 O790 1.251 . S
C779 O791 1.268 . S
O780 Nd760 2.500 . S
O780 C762 1.258 . S
O781 Nd760 2.492 . S
O781 C762 1.239 . S
O782 Nd760 2.487 . S
O782 C769 1.241 . S
O783 Nd760 2.682 . S
O783 Nd761 2.414 . S
O783 C769 1.273 . S
O784 Nd760 2.410 . S
O784 C770 1.251 . S
O785 Nd761 2.424 . S
O785 C770 1.268 . S
O786 Nd761 2.500 . S
O786 C771 1.258 . S
O787 Nd761 2.492 . S
O787 C771 1.239 . S
O788 Nd761 2.487 . S
O788 C778 1.241 . S
O789 Nd760 2.414 . S
O789 Nd761 2.682 . S
O789 C778 1.273 . S
O790 Nd761 2.410 . S
O790 C779 1.251 . S
O791 Nd760 2.424 . S
O791 C779 1.268 . S
H792 C764 0.930 . S
H793 C765 0.929 . S
H794 C767 0.930 . S
H795 C768 0.929 . S
H796 C773 0.930 . S
H797 C774 0.929 . S
H798 C776 0.930 . S
H799 C777 0.929 . S
Nd800 C802 2.836 . S
Nd800 O820 2.500 . S
Nd800 O821 2.492 . S
Nd800 O822 2.487 . S
Nd800 O823 2.682 . S
Nd800 O824 2.410 . S
Nd800 O829 2.414 . S
Nd800 O831 2.424 . S
Nd801 C811 2.836 . S
Nd801 O823 2.414 . S
Nd801 O825 2.424 . S
Nd801 O826 2.500 . S
Nd801 O827 2.492 . S
Nd801 O828 2.487 . S
Nd801 O829 2.682 . S
Nd801 O830 2.410 . S
C802 Nd800 2.836 . S
C802 C803 1.498 . S
C802 O820 1.258 . S
C802 O821 1.239 . S
C803 C802 1.498 . S
C803 C804 1.366 . S
C803 C808 1.407 . S
C804 C803 1.366 . S
C804 C805 1.392 . S
C804 H832 0.930 . S
C805 C804 1.392 . S
C805 C806 1.398 . S
C805 H833 0.929 . S
C806 C805 1.398 . S
C806 C807 1.352 . S
C807 C806 1.352 . S
C807 C808 1.384 . S
C807 H834 0.930 . S
C808 C803 1.407 . S
C808 C807 1.384 . S
C808 H835 0.929 . S
C809 O822 1.241 . S
C809 O823 1.273 . S
C810 O824 1.251 . S
C810 O825 1.268 . S
C811 Nd801 2.836 . S
C811 C812 1.498 . S
C811 O826 1.258 . S
C811 O827 1.239 . S
C812 C811 1.498 . S
C812 C813 1.366 . S
C812 C817 1.407 . S
C813 C812 1.366 . S
C813 C814 1.392 . S
C813 H836 0.930 . S
C814 C813 1.392 . S
C814 C815 1.398 . S
C814 H837 0.929 . S
C815 C814 1.398 . S
C815 C816 1.352 . S
C816 C815 1.352 . S
C816 C817 1.384 . S
C816 H838 0.930 . S
C817 C812 1.407 . S
C817 C816 1.384 . S
C817 H839 0.929 . S
C818 O828 1.241 . S
C818 O829 1.273 . S
C819 O830 1.251 . S
C819 O831 1.268 . S
O820 Nd800 2.500 . S
O820 C802 1.258 . S
O821 Nd800 2.492 . S
O821 C802 1.239 . S
O822 Nd800 2.487 . S
O822 C809 1.241 . S
O823 Nd800 2.682 . S
O823 Nd801 2.414 . S
O823 C809 1.273 . S
O824 Nd800 2.410 . S
O824 C810 1.251 . S
O825 Nd801 2.424 . S
O825 C810 1.268 . S
O826 Nd801 2.500 . S
O826 C811 1.258 . S
O827 Nd801 2.492 . S
O827 C811 1.239 . S
O828 Nd801 2.487 . S
O828 C818 1.241 . S
O829 Nd800 2.414 . S
O829 Nd801 2.682 . S
O829 C818 1.273 . S
O830 Nd801 2.410 . S
O830 C819 1.251 . S
O831 Nd800 2.424 . S
O831 C819 1.268 . S
H832 C804 0.930 . S
H833 C805 0.929 . S
H834 C807 0.930 . S
H835 C808 0.929 . S
H836 C813 0.930 . S
H837 C814 0.929 . S
H838 C816 0.930 . S
H839 C817 0.929 . S
Nd840 C842 2.836 . S
Nd840 O860 2.500 . S
Nd840 O861 2.492 . S
Nd840 O862 2.487 . S
Nd840 O863 2.682 . S
Nd840 O864 2.410 . S
Nd840 O869 2.414 . S
Nd840 O871 2.424 . S
Nd841 C851 2.836 . S
Nd841 O863 2.414 . S
Nd841 O865 2.424 . S
Nd841 O866 2.500 . S
Nd841 O867 2.492 . S
Nd841 O868 2.487 . S
Nd841 O869 2.682 . S
Nd841 O870 2.410 . S
C842 Nd840 2.836 . S
C842 C843 1.498 1_556 S
C842 O860 1.258 . S
C842 O861 1.239 . S
C843 C842 1.498 1_554 S
C843 C844 1.366 . S
C843 C848 1.407 . S
C844 C843 1.366 . S
C844 C845 1.392 . S
C844 H872 0.930 . S
C845 C844 1.392 . S
C845 C846 1.398 . S
C845 H873 0.929 . S
C846 C845 1.398 . S
C846 C847 1.352 . S
C847 C846 1.352 . S
C847 C848 1.384 . S
C847 H874 0.930 . S
C848 C843 1.407 . S
C848 C847 1.384 . S
C848 H875 0.929 . S
C849 O862 1.241 . S
C849 O863 1.273 . S
C850 O864 1.251 . S
C850 O865 1.268 . S
C851 Nd841 2.836 . S
C851 C852 1.498 . S
C851 O866 1.258 . S
C851 O867 1.239 . S
C852 C851 1.498 . S
C852 C853 1.366 . S
C852 C857 1.407 . S
C853 C852 1.366 . S
C853 C854 1.392 . S
C853 H876 0.930 . S
C854 C853 1.392 . S
C854 C855 1.398 . S
C854 H877 0.929 . S
C855 C854 1.398 . S
C855 C856 1.352 . S
C856 C855 1.352 . S
C856 C857 1.384 . S
C856 H878 0.930 . S
C857 C852 1.407 . S
C857 C856 1.384 . S
C857 H879 0.929 . S
C858 O868 1.241 . S
C858 O869 1.273 . S
C859 O870 1.251 . S
C859 O871 1.268 . S
O860 Nd840 2.500 . S
O860 C842 1.258 . S
O861 Nd840 2.492 . S
O861 C842 1.239 . S
O862 Nd840 2.487 . S
O862 C849 1.241 . S
O863 Nd840 2.682 . S
O863 Nd841 2.414 . S
O863 C849 1.273 . S
O864 Nd840 2.410 . S
O864 C850 1.251 . S
O865 Nd841 2.424 . S
O865 C850 1.268 . S
O866 Nd841 2.500 . S
O866 C851 1.258 . S
O867 Nd841 2.492 . S
O867 C851 1.239 . S
O868 Nd841 2.487 . S
O868 C858 1.241 . S
O869 Nd840 2.414 . S
O869 Nd841 2.682 . S
O869 C858 1.273 . S
O870 Nd841 2.410 . S
O870 C859 1.251 . S
O871 Nd840 2.424 . S
O871 C859 1.268 . S
H872 C844 0.930 . S
H873 C845 0.929 . S
H874 C847 0.930 . S
H875 C848 0.929 . S
H876 C853 0.930 . S
H877 C854 0.929 . S
H878 C856 0.930 . S
H879 C857 0.929 . S
Nd880 C882 2.836 . S
Nd880 O900 2.500 . S
Nd880 O901 2.492 . S
Nd880 O902 2.487 . S
Nd880 O903 2.682 . S
Nd880 O904 2.410 . S
Nd880 O909 2.414 . S
Nd880 O911 2.424 . S
Nd881 C891 2.836 . S
Nd881 O903 2.414 . S
Nd881 O905 2.424 . S
Nd881 O906 2.500 . S
Nd881 O907 2.492 . S
Nd881 O908 2.487 . S
Nd881 O909 2.682 . S
Nd881 O910 2.410 . S
C882 Nd880 2.836 . S
C882 C883 1.498 . S
C882 O900 1.258 . S
C882 O901 1.239 . S
C883 C882 1.498 . S
C883 C884 1.366 . S
C883 C888 1.407 . S
C884 C883 1.366 . S
C884 C885 1.392 . S
C884 H912 0.930 . S
C885 C884 1.392 . S
C885 C886 1.398 . S
C885 H913 0.929 . S
C886 C885 1.398 . S
C886 C887 1.352 . S
C887 C886 1.352 . S
C887 C888 1.384 . S
C887 H914 0.930 . S
C888 C883 1.407 . S
C888 C887 1.384 . S
C888 H915 0.929 . S
C889 O902 1.241 . S
C889 O903 1.273 . S
C890 O904 1.251 . S
C890 O905 1.268 . S
C891 Nd881 2.836 . S
C891 C892 1.498 . S
C891 O906 1.258 . S
C891 O907 1.239 . S
C892 C891 1.498 . S
C892 C893 1.366 . S
C892 C897 1.407 . S
C893 C892 1.366 . S
C893 C894 1.392 . S
C893 H916 0.930 . S
C894 C893 1.392 . S
C894 C895 1.398 . S
C894 H917 0.929 . S
C895 C894 1.398 . S
C895 C896 1.352 . S
C896 C895 1.352 . S
C896 C897 1.384 . S
C896 H918 0.930 . S
C897 C892 1.407 . S
C897 C896 1.384 . S
C897 H919 0.929 . S
C898 O908 1.241 . S
C898 O909 1.273 . S
C899 O910 1.251 . S
C899 O911 1.268 . S
O900 Nd880 2.500 . S
O900 C882 1.258 . S
O901 Nd880 2.492 . S
O901 C882 1.239 . S
O902 Nd880 2.487 . S
O902 C889 1.241 . S
O903 Nd880 2.682 . S
O903 Nd881 2.414 . S
O903 C889 1.273 . S
O904 Nd880 2.410 . S
O904 C890 1.251 . S
O905 Nd881 2.424 . S
O905 C890 1.268 . S
O906 Nd881 2.500 . S
O906 C891 1.258 . S
O907 Nd881 2.492 . S
O907 C891 1.239 . S
O908 Nd881 2.487 . S
O908 C898 1.241 . S
O909 Nd880 2.414 . S
O909 Nd881 2.682 . S
O909 C898 1.273 . S
O910 Nd881 2.410 . S
O910 C899 1.251 . S
O911 Nd880 2.424 . S
O911 C899 1.268 . S
H912 C884 0.930 . S
H913 C885 0.929 . S
H914 C887 0.930 . S
H915 C888 0.929 . S
H916 C893 0.930 . S
H917 C894 0.929 . S
H918 C896 0.930 . S
H919 C897 0.929 . S
Nd920 C922 2.836 . S
Nd920 O940 2.500 . S
Nd920 O941 2.492 . S
Nd920 O942 2.487 . S
Nd920 O943 2.682 . S
Nd920 O944 2.410 . S
Nd920 O949 2.414 . S
Nd920 O951 2.424 . S
Nd921 C931 2.836 . S
Nd921 O943 2.414 . S
Nd921 O945 2.424 . S
Nd921 O946 2.500 . S
Nd921 O947 2.492 . S
Nd921 O948 2.487 . S
Nd921 O949 2.682 . S
Nd921 O950 2.410 . S
C922 Nd920 2.836 . S
C922 C923 1.498 . S
C922 O940 1.258 . S
C922 O941 1.239 . S
C923 C922 1.498 . S
C923 C924 1.366 . S
C923 C928 1.407 . S
C924 C923 1.366 . S
C924 C925 1.392 . S
C924 H952 0.930 . S
C925 C924 1.392 . S
C925 C926 1.398 . S
C925 H953 0.929 . S
C926 C925 1.398 . S
C926 C927 1.352 . S
C927 C926 1.352 . S
C927 C928 1.384 . S
C927 H954 0.930 . S
C928 C923 1.407 . S
C928 C927 1.384 . S
C928 H955 0.929 . S
C929 O942 1.241 . S
C929 O943 1.273 . S
C930 O944 1.251 . S
C930 O945 1.268 . S
C931 Nd921 2.836 . S
C931 C932 1.498 . S
C931 O946 1.258 . S
C931 O947 1.239 . S
C932 C931 1.498 . S
C932 C933 1.366 . S
C932 C937 1.407 . S
C933 C932 1.366 . S
C933 C934 1.392 . S
C933 H956 0.930 . S
C934 C933 1.392 . S
C934 C935 1.398 . S
C934 H957 0.929 . S
C935 C934 1.398 . S
C935 C936 1.352 . S
C936 C935 1.352 . S
C936 C937 1.384 . S
C936 H958 0.930 . S
C937 C932 1.407 . S
C937 C936 1.384 . S
C937 H959 0.929 . S
C938 O948 1.241 . S
C938 O949 1.273 . S
C939 O950 1.251 . S
C939 O951 1.268 . S
O940 Nd920 2.500 . S
O940 C922 1.258 . S
O941 Nd920 2.492 . S
O941 C922 1.239 . S
O942 Nd920 2.487 . S
O942 C929 1.241 . S
O943 Nd920 2.682 . S
O943 Nd921 2.414 . S
O943 C929 1.273 . S
O944 Nd920 2.410 . S
O944 C930 1.251 . S
O945 Nd921 2.424 . S
O945 C930 1.268 . S
O946 Nd921 2.500 . S
O946 C931 1.258 . S
O947 Nd921 2.492 . S
O947 C931 1.239 . S
O948 Nd921 2.487 . S
O948 C938 1.241 . S
O949 Nd920 2.414 . S
O949 Nd921 2.682 . S
O949 C938 1.273 . S
O950 Nd921 2.410 . S
O950 C939 1.251 . S
O951 Nd920 2.424 . S
O951 C939 1.268 . S
H952 C924 0.930 . S
H953 C925 0.929 . S
H954 C927 0.930 . S
H955 C928 0.929 . S
H956 C933 0.930 . S
H957 C934 0.929 . S
H958 C936 0.930 . S
H959 C937 0.929 . S
Nd960 C962 2.836 . S
Nd960 O980 2.500 . S
Nd960 O981 2.492 . S
Nd960 O982 2.487 . S
Nd960 O983 2.682 . S
Nd960 O984 2.410 . S
Nd960 O989 2.414 . S
Nd960 O991 2.424 . S
Nd961 C971 2.836 . S
Nd961 O983 2.414 . S
Nd961 O985 2.424 . S
Nd961 O986 2.500 . S
Nd961 O987 2.492 . S
Nd961 O988 2.487 . S
Nd961 O989 2.682 . S
Nd961 O990 2.410 . S
C962 Nd960 2.836 . S
C962 C963 1.498 . S
C962 O980 1.258 . S
C962 O981 1.239 . S
C963 C962 1.498 . S
C963 C964 1.366 . S
C963 C968 1.407 . S
C964 C963 1.366 . S
C964 C965 1.392 . S
C964 H992 0.930 . S
C965 C964 1.392 . S
C965 C966 1.398 . S
C965 H993 0.929 . S
C966 C965 1.398 . S
C966 C967 1.352 . S
C967 C966 1.352 . S
C967 C968 1.384 . S
C967 H994 0.930 . S
C968 C963 1.407 . S
C968 C967 1.384 . S
C968 H995 0.929 . S
C969 O982 1.241 . S
C969 O983 1.273 . S
C970 O984 1.251 . S
C970 O985 1.268 . S
C971 Nd961 2.836 . S
C971 C972 1.498 . S
C971 O986 1.258 . S
C971 O987 1.239 . S
C972 C971 1.498 . S
C972 C973 1.366 . S
C972 C977 1.407 . S
C973 C972 1.366 . S
C973 C974 1.392 . S
C973 H996 0.930 . S
C974 C973 1.392 . S
C974 C975 1.398 . S
C974 H997 0.929 . S
C975 C974 1.398 . S
C975 C976 1.352 . S
C976 C975 1.352 . S
C976 C977 1.384 . S
C976 H998 0.930 . S
C977 C972 1.407 . S
C977 C976 1.384 . S
C977 H999 0.929 . S
C978 O988 1.241 . S
C978 O989 1.273 . S
C979 O990 1.251 . S
C979 O991 1.268 . S
O980 Nd960 2.500 . S
O980 C962 1.258 . S
O981 Nd960 2.492 . S
O981 C962 1.239 . S
O982 Nd960 2.487 . S
O982 C969 1.241 . S
O983 Nd960 2.682 . S
O983 Nd961 2.414 . S
O983 C969 1.273 . S
O984 Nd960 2.410 . S
O984 C970 1.251 . S
O985 Nd961 2.424 . S
O985 C970 1.268 . S
O986 Nd961 2.500 . S
O986 C971 1.258 . S
O987 Nd961 2.492 . S
O987 C971 1.239 . S
O988 Nd961 2.487 . S
O988 C978 1.241 . S
O989 Nd960 2.414 . S
O989 Nd961 2.682 . S
O989 C978 1.273 . S
O990 Nd961 2.410 . S
O990 C979 1.251 . S
O991 Nd960 2.424 . S
O991 C979 1.268 . S
H992 C964 0.930 . S
H993 C965 0.929 . S
H994 C967 0.930 . S
H995 C968 0.929 . S
H996 C973 0.930 . S
H997 C974 0.929 . S
H998 C976 0.930 . S
H999 C977 0.929 . S
Nd1000 C1002 2.836 . S
Nd1000 O1020 2.500 . S
Nd1000 O1021 2.492 . S
Nd1000 O1022 2.487 . S
Nd1000 O1023 2.682 . S
Nd1000 O1024 2.410 . S
Nd1000 O1029 2.414 . S
Nd1000 O1031 2.424 . S
Nd1001 C1011 2.836 . S
Nd1001 O1023 2.414 . S
Nd1001 O1025 2.424 . S
Nd1001 O1026 2.500 . S
Nd1001 O1027 2.492 . S
Nd1001 O1028 2.487 . S
Nd1001 O1029 2.682 . S
Nd1001 O1030 2.410 . S
C1002 Nd1000 2.836 . S
C1002 C1003 1.498 . S
C1002 O1020 1.258 . S
C1002 O1021 1.239 . S
C1003 C1002 1.498 . S
C1003 C1004 1.366 . S
C1003 C1008 1.407 . S
C1004 C1003 1.366 . S
C1004 C1005 1.392 . S
C1004 H1032 0.930 . S
C1005 C1004 1.392 . S
C1005 C1006 1.398 . S
C1005 H1033 0.929 . S
C1006 C1005 1.398 . S
C1006 C1007 1.352 . S
C1007 C1006 1.352 . S
C1007 C1008 1.384 . S
C1007 H1034 0.930 . S
C1008 C1003 1.407 . S
C1008 C1007 1.384 . S
C1008 H1035 0.929 . S
C1009 O1022 1.241 . S
C1009 O1023 1.273 . S
C1010 O1024 1.251 . S
C1010 O1025 1.268 . S
C1011 Nd1001 2.836 . S
C1011 C1012 1.498 1_556 S
C1011 O1026 1.258 . S
C1011 O1027 1.239 . S
C1012 C1011 1.498 1_554 S
C1012 C1013 1.366 . S
C1012 C1017 1.407 . S
C1013 C1012 1.366 . S
C1013 C1014 1.392 . S
C1013 H1036 0.930 . S
C1014 C1013 1.392 . S
C1014 C1015 1.398 . S
C1014 H1037 0.929 . S
C1015 C1014 1.398 . S
C1015 C1016 1.352 . S
C1016 C1015 1.352 . S
C1016 C1017 1.384 . S
C1016 H1038 0.930 . S
C1017 C1012 1.407 . S
C1017 C1016 1.384 . S
C1017 H1039 0.929 . S
C1018 O1028 1.241 . S
C1018 O1029 1.273 . S
C1019 O1030 1.251 . S
C1019 O1031 1.268 . S
O1020 Nd1000 2.500 . S
O1020 C1002 1.258 . S
O1021 Nd1000 2.492 . S
O1021 C1002 1.239 . S
O1022 Nd1000 2.487 . S
O1022 C1009 1.241 . S
O1023 Nd1000 2.682 . S
O1023 Nd1001 2.414 . S
O1023 C1009 1.273 . S
O1024 Nd1000 2.410 . S
O1024 C1010 1.251 . S
O1025 Nd1001 2.424 . S
O1025 C1010 1.268 . S
O1026 Nd1001 2.500 . S
O1026 C1011 1.258 . S
O1027 Nd1001 2.492 . S
O1027 C1011 1.239 . S
O1028 Nd1001 2.487 . S
O1028 C1018 1.241 . S
O1029 Nd1000 2.414 . S
O1029 Nd1001 2.682 . S
O1029 C1018 1.273 . S
O1030 Nd1001 2.410 . S
O1030 C1019 1.251 . S
O1031 Nd1000 2.424 . S
O1031 C1019 1.268 . S
H1032 C1004 0.930 . S
H1033 C1005 0.929 . S
H1034 C1007 0.930 . S
H1035 C1008 0.929 . S
H1036 C1013 0.930 . S
H1037 C1014 0.929 . S
H1038 C1016 0.930 . S
H1039 C1017 0.929 . S
Nd1040 C1042 2.836 . S
Nd1040 O1060 2.500 . S
Nd1040 O1061 2.492 . S
Nd1040 O1062 2.487 . S
Nd1040 O1063 2.682 . S
Nd1040 O1064 2.410 . S
Nd1040 O1069 2.414 . S
Nd1040 O1071 2.424 . S
Nd1041 C1051 2.836 . S
Nd1041 O1063 2.414 . S
Nd1041 O1065 2.424 . S
Nd1041 O1066 2.500 . S
Nd1041 O1067 2.492 . S
Nd1041 O1068 2.487 . S
Nd1041 O1069 2.682 . S
Nd1041 O1070 2.410 . S
C1042 Nd1040 2.836 . S
C1042 C1043 1.498 . S
C1042 O1060 1.258 . S
C1042 O1061 1.239 . S
C1043 C1042 1.498 . S
C1043 C1044 1.366 . S
C1043 C1048 1.407 . S
C1044 C1043 1.366 . S
C1044 C1045 1.392 . S
C1044 H1072 0.930 . S
C1045 C1044 1.392 . S
C1045 C1046 1.398 . S
C1045 H1073 0.929 . S
C1046 C1045 1.398 . S
C1046 C1047 1.352 . S
C1047 C1046 1.352 . S
C1047 C1048 1.384 . S
C1047 H1074 0.930 . S
C1048 C1043 1.407 . S
C1048 C1047 1.384 . S
C1048 H1075 0.929 . S
C1049 O1062 1.241 . S
C1049 O1063 1.273 . S
C1050 O1064 1.251 . S
C1050 O1065 1.268 . S
C1051 Nd1041 2.836 . S
C1051 C1052 1.498 . S
C1051 O1066 1.258 . S
C1051 O1067 1.239 . S
C1052 C1051 1.498 . S
C1052 C1053 1.366 . S
C1052 C1057 1.407 . S
C1053 C1052 1.366 . S
C1053 C1054 1.392 . S
C1053 H1076 0.930 . S
C1054 C1053 1.392 . S
C1054 C1055 1.398 . S
C1054 H1077 0.929 . S
C1055 C1054 1.398 . S
C1055 C1056 1.352 . S
C1056 C1055 1.352 . S
C1056 C1057 1.384 . S
C1056 H1078 0.930 . S
C1057 C1052 1.407 . S
C1057 C1056 1.384 . S
C1057 H1079 0.929 . S
C1058 O1068 1.241 . S
C1058 O1069 1.273 . S
C1059 O1070 1.251 . S
C1059 O1071 1.268 . S
O1060 Nd1040 2.500 . S
O1060 C1042 1.258 . S
O1061 Nd1040 2.492 . S
O1061 C1042 1.239 . S
O1062 Nd1040 2.487 . S
O1062 C1049 1.241 . S
O1063 Nd1040 2.682 . S
O1063 Nd1041 2.414 . S
O1063 C1049 1.273 . S
O1064 Nd1040 2.410 . S
O1064 C1050 1.251 . S
O1065 Nd1041 2.424 . S
O1065 C1050 1.268 . S
O1066 Nd1041 2.500 . S
O1066 C1051 1.258 . S
O1067 Nd1041 2.492 . S
O1067 C1051 1.239 . S
O1068 Nd1041 2.487 . S
O1068 C1058 1.241 . S
O1069 Nd1040 2.414 . S
O1069 Nd1041 2.682 . S
O1069 C1058 1.273 . S
O1070 Nd1041 2.410 . S
O1070 C1059 1.251 . S
O1071 Nd1040 2.424 . S
O1071 C1059 1.268 . S
H1072 C1044 0.930 . S
H1073 C1045 0.929 . S
H1074 C1047 0.930 . S
H1075 C1048 0.929 . S
H1076 C1053 0.930 . S
H1077 C1054 0.929 . S
H1078 C1056 0.930 . S
H1079 C1057 0.929 . S
Nd1080 C1082 2.836 . S
Nd1080 O1100 2.500 . S
Nd1080 O1101 2.492 . S
Nd1080 O1102 2.487 . S
Nd1080 O1103 2.682 . S
Nd1080 O1104 2.410 . S
Nd1080 O1109 2.414 . S
Nd1080 O1111 2.424 . S
Nd1081 C1091 2.836 . S
Nd1081 O1103 2.414 . S
Nd1081 O1105 2.424 . S
Nd1081 O1106 2.500 . S
Nd1081 O1107 2.492 . S
Nd1081 O1108 2.487 . S
Nd1081 O1109 2.682 . S
Nd1081 O1110 2.410 . S
C1082 Nd1080 2.836 . S
C1082 C1083 1.498 . S
C1082 O1100 1.258 . S
C1082 O1101 1.239 . S
C1083 C1082 1.498 . S
C1083 C1084 1.366 . S
C1083 C1088 1.407 . S
C1084 C1083 1.366 . S
C1084 C1085 1.392 . S
C1084 H1112 0.930 . S
C1085 C1084 1.392 . S
C1085 C1086 1.398 . S
C1085 H1113 0.929 . S
C1086 C1085 1.398 . S
C1086 C1087 1.352 . S
C1087 C1086 1.352 . S
C1087 C1088 1.384 . S
C1087 H1114 0.930 . S
C1088 C1083 1.407 . S
C1088 C1087 1.384 . S
C1088 H1115 0.929 . S
C1089 O1102 1.241 . S
C1089 O1103 1.273 . S
C1090 O1104 1.251 . S
C1090 O1105 1.268 . S
C1091 Nd1081 2.836 . S
C1091 C1092 1.498 . S
C1091 O1106 1.258 . S
C1091 O1107 1.239 . S
C1092 C1091 1.498 . S
C1092 C1093 1.366 . S
C1092 C1097 1.407 . S
C1093 C1092 1.366 . S
C1093 C1094 1.392 . S
C1093 H1116 0.930 . S
C1094 C1093 1.392 . S
C1094 C1095 1.398 . S
C1094 H1117 0.929 . S
C1095 C1094 1.398 . S
C1095 C1096 1.352 . S
C1096 C1095 1.352 . S
C1096 C1097 1.384 . S
C1096 H1118 0.930 . S
C1097 C1092 1.407 . S
C1097 C1096 1.384 . S
C1097 H1119 0.929 . S
C1098 O1108 1.241 . S
C1098 O1109 1.273 . S
C1099 O1110 1.251 . S
C1099 O1111 1.268 . S
O1100 Nd1080 2.500 . S
O1100 C1082 1.258 . S
O1101 Nd1080 2.492 . S
O1101 C1082 1.239 . S
O1102 Nd1080 2.487 . S
O1102 C1089 1.241 . S
O1103 Nd1080 2.682 . S
O1103 Nd1081 2.414 . S
O1103 C1089 1.273 . S
O1104 Nd1080 2.410 . S
O1104 C1090 1.251 . S
O1105 Nd1081 2.424 . S
O1105 C1090 1.268 . S
O1106 Nd1081 2.500 . S
O1106 C1091 1.258 . S
O1107 Nd1081 2.492 . S
O1107 C1091 1.239 . S
O1108 Nd1081 2.487 . S
O1108 C1098 1.241 . S
O1109 Nd1080 2.414 . S
O1109 Nd1081 2.682 . S
O1109 C1098 1.273 . S
O1110 Nd1081 2.410 . S
O1110 C1099 1.251 . S
O1111 Nd1080 2.424 . S
O1111 C1099 1.268 . S
H1112 C1084 0.930 . S
H1113 C1085 0.929 . S
H1114 C1087 0.930 . S
H1115 C1088 0.929 . S
H1116 C1093 0.930 . S
H1117 C1094 0.929 . S
H1118 C1096 0.930 . S
H1119 C1097 0.929 . S
Nd1120 C1122 2.836 . S
Nd1120 O1140 2.500 . S
Nd1120 O1141 2.492 . S
Nd1120 O1142 2.487 . S
Nd1120 O1143 2.682 . S
Nd1120 O1144 2.410 . S
Nd1120 O1149 2.414 . S
Nd1120 O1151 2.424 . S
Nd1121 C1131 2.836 . S
Nd1121 O1143 2.414 . S
Nd1121 O1145 2.424 . S
Nd1121 O1146 2.500 . S
Nd1121 O1147 2.492 . S
Nd1121 O1148 2.487 . S
Nd1121 O1149 2.682 . S
Nd1121 O1150 2.410 . S
C1122 Nd1120 2.836 . S
C1122 C1123 1.498 . S
C1122 O1140 1.258 . S
C1122 O1141 1.239 . S
C1123 C1122 1.498 . S
C1123 C1124 1.366 . S
C1123 C1128 1.407 . S
C1124 C1123 1.366 . S
C1124 C1125 1.392 . S
C1124 H1152 0.930 . S
C1125 C1124 1.392 . S
C1125 C1126 1.398 . S
C1125 H1153 0.929 . S
C1126 C1125 1.398 . S
C1126 C1127 1.352 . S
C1127 C1126 1.352 . S
C1127 C1128 1.384 . S
C1127 H1154 0.930 . S
C1128 C1123 1.407 . S
C1128 C1127 1.384 . S
C1128 H1155 0.929 . S
C1129 O1142 1.241 . S
C1129 O1143 1.273 . S
C1130 O1144 1.251 . S
C1130 O1145 1.268 . S
C1131 Nd1121 2.836 . S
C1131 C1132 1.498 . S
C1131 O1146 1.258 . S
C1131 O1147 1.239 . S
C1132 C1131 1.498 . S
C1132 C1133 1.366 . S
C1132 C1137 1.407 . S
C1133 C1132 1.366 . S
C1133 C1134 1.392 . S
C1133 H1156 0.930 . S
C1134 C1133 1.392 . S
C1134 C1135 1.398 . S
C1134 H1157 0.929 . S
C1135 C1134 1.398 . S
C1135 C1136 1.352 . S
C1136 C1135 1.352 . S
C1136 C1137 1.384 . S
C1136 H1158 0.930 . S
C1137 C1132 1.407 . S
C1137 C1136 1.384 . S
C1137 H1159 0.929 . S
C1138 O1148 1.241 . S
C1138 O1149 1.273 . S
C1139 O1150 1.251 . S
C1139 O1151 1.268 . S
O1140 Nd1120 2.500 . S
O1140 C1122 1.258 . S
O1141 Nd1120 2.492 . S
O1141 C1122 1.239 . S
O1142 Nd1120 2.487 . S
O1142 C1129 1.241 . S
O1143 Nd1120 2.682 . S
O1143 Nd1121 2.414 . S
O1143 C1129 1.273 . S
O1144 Nd1120 2.410 . S
O1144 C1130 1.251 . S
O1145 Nd1121 2.424 . S
O1145 C1130 1.268 . S
O1146 Nd1121 2.500 . S
O1146 C1131 1.258 . S
O1147 Nd1121 2.492 . S
O1147 C1131 1.239 . S
O1148 Nd1121 2.487 . S
O1148 C1138 1.241 . S
O1149 Nd1120 2.414 . S
O1149 Nd1121 2.682 . S
O1149 C1138 1.273 . S
O1150 Nd1121 2.410 . S
O1150 C1139 1.251 . S
O1151 Nd1120 2.424 . S
O1151 C1139 1.268 . S
H1152 C1124 0.930 . S
H1153 C1125 0.929 . S
H1154 C1127 0.930 . S
H1155 C1128 0.929 . S
H1156 C1133 0.930 . S
H1157 C1134 0.929 . S
H1158 C1136 0.930 . S
H1159 C1137 0.929 . S
Nd1160 C1162 2.836 . S
Nd1160 O1180 2.500 . S
Nd1160 O1181 2.492 . S
Nd1160 O1182 2.487 . S
Nd1160 O1183 2.682 . S
Nd1160 O1184 2.410 . S
Nd1160 O1189 2.414 . S
Nd1160 O1191 2.424 . S
Nd1161 C1171 2.836 . S
Nd1161 O1183 2.414 . S
Nd1161 O1185 2.424 . S
Nd1161 O1186 2.500 . S
Nd1161 O1187 2.492 . S
Nd1161 O1188 2.487 . S
Nd1161 O1189 2.682 . S
Nd1161 O1190 2.410 . S
C1162 Nd1160 2.836 . S
C1162 C1163 1.498 . S
C1162 O1180 1.258 . S
C1162 O1181 1.239 . S
C1163 C1162 1.498 . S
C1163 C1164 1.366 . S
C1163 C1168 1.407 . S
C1164 C1163 1.366 . S
C1164 C1165 1.392 . S
C1164 H1192 0.930 . S
C1165 C1164 1.392 . S
C1165 C1166 1.398 . S
C1165 H1193 0.929 . S
C1166 C1165 1.398 . S
C1166 C1167 1.352 . S
C1167 C1166 1.352 . S
C1167 C1168 1.384 . S
C1167 H1194 0.930 . S
C1168 C1163 1.407 . S
C1168 C1167 1.384 . S
C1168 H1195 0.929 . S
C1169 O1182 1.241 . S
C1169 O1183 1.273 . S
C1170 O1184 1.251 . S
C1170 O1185 1.268 . S
C1171 Nd1161 2.836 . S
C1171 C1172 1.498 1_554 S
C1171 O1186 1.258 . S
C1171 O1187 1.239 . S
C1172 C1171 1.498 1_556 S
C1172 C1173 1.366 . S
C1172 C1177 1.407 . S
C1173 C1172 1.366 . S
C1173 C1174 1.392 . S
C1173 H1196 0.930 . S
C1174 C1173 1.392 . S
C1174 C1175 1.398 . S
C1174 H1197 0.929 . S
C1175 C1174 1.398 . S
C1175 C1176 1.352 . S
C1176 C1175 1.352 . S
C1176 C1177 1.384 . S
C1176 H1198 0.930 . S
C1177 C1172 1.407 . S
C1177 C1176 1.384 . S
C1177 H1199 0.929 . S
C1178 O1188 1.241 . S
C1178 O1189 1.273 . S
C1179 O1190 1.251 . S
C1179 O1191 1.268 . S
O1180 Nd1160 2.500 . S
O1180 C1162 1.258 . S
O1181 Nd1160 2.492 . S
O1181 C1162 1.239 . S
O1182 Nd1160 2.487 . S
O1182 C1169 1.241 . S
O1183 Nd1160 2.682 . S
O1183 Nd1161 2.414 . S
O1183 C1169 1.273 . S
O1184 Nd1160 2.410 . S
O1184 C1170 1.251 . S
O1185 Nd1161 2.424 . S
O1185 C1170 1.268 . S
O1186 Nd1161 2.500 . S
O1186 C1171 1.258 . S
O1187 Nd1161 2.492 . S
O1187 C1171 1.239 . S
O1188 Nd1161 2.487 . S
O1188 C1178 1.241 . S
O1189 Nd1160 2.414 . S
O1189 Nd1161 2.682 . S
O1189 C1178 1.273 . S
O1190 Nd1161 2.410 . S
O1190 C1179 1.251 . S
O1191 Nd1160 2.424 . S
O1191 C1179 1.268 . S
H1192 C1164 0.930 . S
H1193 C1165 0.929 . S
H1194 C1167 0.930 . S
H1195 C1168 0.929 . S
H1196 C1173 0.930 . S
H1197 C1174 0.929 . S
H1198 C1176 0.930 . S
H1199 C1177 0.929 . S
Nd1200 C1202 2.836 . S
Nd1200 O1220 2.500 . S
Nd1200 O1221 2.492 . S
Nd1200 O1222 2.487 . S
Nd1200 O1223 2.682 . S
Nd1200 O1224 2.410 . S
Nd1200 O1229 2.414 . S
Nd1200 O1231 2.424 . S
Nd1201 C1211 2.836 . S
Nd1201 O1223 2.414 . S
Nd1201 O1225 2.424 . S
Nd1201 O1226 2.500 . S
Nd1201 O1227 2.492 . S
Nd1201 O1228 2.487 . S
Nd1201 O1229 2.682 . S
Nd1201 O1230 2.410 . S
C1202 Nd1200 2.836 . S
C1202 C1203 1.498 . S
C1202 O1220 1.258 . S
C1202 O1221 1.239 . S
C1203 C1202 1.498 . S
C1203 C1204 1.366 . S
C1203 C1208 1.407 . S
C1204 C1203 1.366 . S
C1204 C1205 1.392 . S
C1204 H1232 0.930 . S
C1205 C1204 1.392 . S
C1205 C1206 1.398 . S
C1205 H1233 0.929 . S
C1206 C1205 1.398 . S
C1206 C1207 1.352 . S
C1207 C1206 1.352 . S
C1207 C1208 1.384 . S
C1207 H1234 0.930 . S
C1208 C1203 1.407 . S
C1208 C1207 1.384 . S
C1208 H1235 0.929 . S
C1209 O1222 1.241 . S
C1209 O1223 1.273 . S
C1210 O1224 1.251 . S
C1210 O1225 1.268 . S
C1211 Nd1201 2.836 . S
C1211 C1212 1.498 . S
C1211 O1226 1.258 . S
C1211 O1227 1.239 . S
C1212 C1211 1.498 . S
C1212 C1213 1.366 . S
C1212 C1217 1.407 . S
C1213 C1212 1.366 . S
C1213 C1214 1.392 . S
C1213 H1236 0.930 . S
C1214 C1213 1.392 . S
C1214 C1215 1.398 . S
C1214 H1237 0.929 . S
C1215 C1214 1.398 . S
C1215 C1216 1.352 . S
C1216 C1215 1.352 . S
C1216 C1217 1.384 . S
C1216 H1238 0.930 . S
C1217 C1212 1.407 . S
C1217 C1216 1.384 . S
C1217 H1239 0.929 . S
C1218 O1228 1.241 . S
C1218 O1229 1.273 . S
C1219 O1230 1.251 . S
C1219 O1231 1.268 . S
O1220 Nd1200 2.500 . S
O1220 C1202 1.258 . S
O1221 Nd1200 2.492 . S
O1221 C1202 1.239 . S
O1222 Nd1200 2.487 . S
O1222 C1209 1.241 . S
O1223 Nd1200 2.682 . S
O1223 Nd1201 2.414 . S
O1223 C1209 1.273 . S
O1224 Nd1200 2.410 . S
O1224 C1210 1.251 . S
O1225 Nd1201 2.424 . S
O1225 C1210 1.268 . S
O1226 Nd1201 2.500 . S
O1226 C1211 1.258 . S
O1227 Nd1201 2.492 . S
O1227 C1211 1.239 . S
O1228 Nd1201 2.487 . S
O1228 C1218 1.241 . S
O1229 Nd1200 2.414 . S
O1229 Nd1201 2.682 . S
O1229 C1218 1.273 . S
O1230 Nd1201 2.410 . S
O1230 C1219 1.251 . S
O1231 Nd1200 2.424 . S
O1231 C1219 1.268 . S
H1232 C1204 0.930 . S
H1233 C1205 0.929 . S
H1234 C1207 0.930 . S
H1235 C1208 0.929 . S
H1236 C1213 0.930 . S
H1237 C1214 0.929 . S
H1238 C1216 0.930 . S
H1239 C1217 0.929 . S
Nd1240 C1242 2.836 . S
Nd1240 O1260 2.500 . S
Nd1240 O1261 2.492 . S
Nd1240 O1262 2.487 . S
Nd1240 O1263 2.682 . S
Nd1240 O1264 2.410 . S
Nd1240 O1269 2.414 . S
Nd1240 O1271 2.424 . S
Nd1241 C1251 2.836 . S
Nd1241 O1263 2.414 . S
Nd1241 O1265 2.424 . S
Nd1241 O1266 2.500 . S
Nd1241 O1267 2.492 . S
Nd1241 O1268 2.487 . S
Nd1241 O1269 2.682 . S
Nd1241 O1270 2.410 . S
C1242 Nd1240 2.836 . S
C1242 C1243 1.498 . S
C1242 O1260 1.258 . S
C1242 O1261 1.239 . S
C1243 C1242 1.498 . S
C1243 C1244 1.366 . S
C1243 C1248 1.407 . S
C1244 C1243 1.366 . S
C1244 C1245 1.392 . S
C1244 H1272 0.930 . S
C1245 C1244 1.392 . S
C1245 C1246 1.398 . S
C1245 H1273 0.929 . S
C1246 C1245 1.398 . S
C1246 C1247 1.352 . S
C1247 C1246 1.352 . S
C1247 C1248 1.384 . S
C1247 H1274 0.930 . S
C1248 C1243 1.407 . S
C1248 C1247 1.384 . S
C1248 H1275 0.929 . S
C1249 O1262 1.241 . S
C1249 O1263 1.273 . S
C1250 O1264 1.251 . S
C1250 O1265 1.268 . S
C1251 Nd1241 2.836 . S
C1251 C1252 1.498 . S
C1251 O1266 1.258 . S
C1251 O1267 1.239 . S
C1252 C1251 1.498 . S
C1252 C1253 1.366 . S
C1252 C1257 1.407 . S
C1253 C1252 1.366 . S
C1253 C1254 1.392 . S
C1253 H1276 0.930 . S
C1254 C1253 1.392 . S
C1254 C1255 1.398 . S
C1254 H1277 0.929 . S
C1255 C1254 1.398 . S
C1255 C1256 1.352 . S
C1256 C1255 1.352 . S
C1256 C1257 1.384 . S
C1256 H1278 0.930 . S
C1257 C1252 1.407 . S
C1257 C1256 1.384 . S
C1257 H1279 0.929 . S
C1258 O1268 1.241 . S
C1258 O1269 1.273 . S
C1259 O1270 1.251 . S
C1259 O1271 1.268 . S
O1260 Nd1240 2.500 . S
O1260 C1242 1.258 . S
O1261 Nd1240 2.492 . S
O1261 C1242 1.239 . S
O1262 Nd1240 2.487 . S
O1262 C1249 1.241 . S
O1263 Nd1240 2.682 . S
O1263 Nd1241 2.414 . S
O1263 C1249 1.273 . S
O1264 Nd1240 2.410 . S
O1264 C1250 1.251 . S
O1265 Nd1241 2.424 . S
O1265 C1250 1.268 . S
O1266 Nd1241 2.500 . S
O1266 C1251 1.258 . S
O1267 Nd1241 2.492 . S
O1267 C1251 1.239 . S
O1268 Nd1241 2.487 . S
O1268 C1258 1.241 . S
O1269 Nd1240 2.414 . S
O1269 Nd1241 2.682 . S
O1269 C1258 1.273 . S
O1270 Nd1241 2.410 . S
O1270 C1259 1.251 . S
O1271 Nd1240 2.424 . S
O1271 C1259 1.268 . S
H1272 C1244 0.930 . S
H1273 C1245 0.929 . S
H1274 C1247 0.930 . S
H1275 C1248 0.929 . S
H1276 C1253 0.930 . S
H1277 C1254 0.929 . S
H1278 C1256 0.930 . S
H1279 C1257 0.929 . S
C1280 C1281 1.391 . S
C1280 C1282 1.394 . S
C1280 H1296 0.931 . S
C1281 C1280 1.391 . S
C1281 C1285 1.376 . S
C1282 C1280 1.394 . S
C1282 C1283 1.369 . S
C1282 C1286 1.531 . S
C1283 C1282 1.369 . S
C1283 C1284 1.410 . S
C1283 C1291 1.503 . S
C1284 C1283 1.410 . S
C1284 C1285 1.392 . S
C1284 C1287 1.511 . S
C1285 C1281 1.376 . S
C1285 C1284 1.392 . S
C1285 H1297 0.929 . S
C1286 C1282 1.531 . S
C1286 H1298 0.960 . S
C1286 H1299 0.962 . S
C1286 H1300 0.960 . S
C1287 C1284 1.511 . S
C1287 H1301 0.961 . S
C1287 H1302 0.961 . S
C1287 H1303 0.961 . S
C1288 C1289 1.370 . S
C1288 C1290 1.363 . S
C1288 H1304 0.931 . S
C1289 C1288 1.370 . S
C1289 C1293 1.408 . S
C1290 C1288 1.363 . S
C1290 C1291 1.370 . S
C1290 C1294 1.524 . S
C1291 C1283 1.503 . S
C1291 C1290 1.370 . S
C1291 C1292 1.403 . S
C1292 C1291 1.403 . S
C1292 C1293 1.404 . S
C1292 C1295 1.539 . S
C1293 C1289 1.408 . S
C1293 C1292 1.404 . S
C1293 H1305 0.930 . S
C1294 C1290 1.524 . S
C1294 H1306 0.956 . S
C1294 H1307 0.961 . S
C1294 H1308 0.961 . S
C1295 C1292 1.539 . S
C1295 H1309 0.958 . S
C1295 H1310 0.961 . S
C1295 H1311 0.960 . S
H1296 C1280 0.931 . S
H1297 C1285 0.929 . S
H1298 C1286 0.960 . S
H1299 C1286 0.962 . S
H1300 C1286 0.960 . S
H1301 C1287 0.961 . S
H1302 C1287 0.961 . S
H1303 C1287 0.961 . S
H1304 C1288 0.931 . S
H1305 C1293 0.930 . S
H1306 C1294 0.956 . S
H1307 C1294 0.961 . S
H1308 C1294 0.961 . S
H1309 C1295 0.958 . S
H1310 C1295 0.961 . S
H1311 C1295 0.960 . S
C1312 C1313 1.391 . S
C1312 C1314 1.394 1_545 S
C1312 H1328 0.931 . S
C1313 C1312 1.391 . S
C1313 C1317 1.371 1_545 S
C1314 C1312 1.394 1_565 S
C1314 C1315 1.369 . S
C1314 C1318 1.531 . S
C1315 C1314 1.369 . S
C1315 C1316 1.410 . S
C1315 C1323 1.503 . S
C1316 C1315 1.410 . S
C1316 C1317 1.398 . S
C1316 C1319 1.511 . S
C1317 C1313 1.371 1_565 S
C1317 C1316 1.398 . S
C1317 H1329 0.927 1_565 S
C1318 C1314 1.531 . S
C1318 H1330 0.960 . S
C1318 H1331 0.962 . S
C1318 H1332 0.960 1_565 S
C1319 C1316 1.511 . S
C1319 H1333 0.961 . S
C1319 H1334 0.961 . S
C1319 H1335 0.961 . S
C1320 C1321 1.370 . S
C1320 C1322 1.363 . S
C1320 H1336 0.931 . S
C1321 C1320 1.370 . S
C1321 C1325 1.408 . S
C1322 C1320 1.363 . S
C1322 C1323 1.370 . S
C1322 C1326 1.524 . S
C1323 C1315 1.503 . S
C1323 C1322 1.370 . S
C1323 C1324 1.403 . S
C1324 C1323 1.403 . S
C1324 C1325 1.404 . S
C1324 C1327 1.539 . S
C1325 C1321 1.408 . S
C1325 C1324 1.404 . S
C1325 H1337 0.930 . S
C1326 C1322 1.524 . S
C1326 H1338 0.956 . S
C1326 H1339 0.961 . S
C1326 H1340 0.961 . S
C1327 C1324 1.539 . S
C1327 H1341 0.958 . S
C1327 H1342 0.961 . S
C1327 H1343 0.960 . S
H1328 C1312 0.931 . S
H1329 C1317 0.927 1_545 S
H1330 C1318 0.960 . S
H1331 C1318 0.962 . S
H1332 C1318 0.960 1_545 S
H1333 C1319 0.961 . S
H1334 C1319 0.961 . S
H1335 C1319 0.961 . S
H1336 C1320 0.931 . S
H1337 C1325 0.930 . S
H1338 C1326 0.956 . S
H1339 C1326 0.961 . S
H1340 C1326 0.961 . S
H1341 C1327 0.958 . S
H1342 C1327 0.961 . S
H1343 C1327 0.960 . S
C1344 C1345 1.391 . S
C1344 C1346 1.394 . S
C1344 H1360 0.931 . S
C1345 C1344 1.391 . S
C1345 C1349 1.376 . S
C1346 C1344 1.394 . S
C1346 C1347 1.369 . S
C1346 C1350 1.531 . S
C1347 C1346 1.369 . S
C1347 C1348 1.410 . S
C1347 C1355 1.503 . S
C1348 C1347 1.410 . S
C1348 C1349 1.392 . S
C1348 C1351 1.511 . S
C1349 C1345 1.376 . S
C1349 C1348 1.392 . S
C1349 H1361 0.929 . S
C1350 C1346 1.531 . S
C1350 H1362 0.960 . S
C1350 H1363 0.962 . S
C1350 H1364 0.960 . S
C1351 C1348 1.511 . S
C1351 H1365 0.961 . S
C1351 H1366 0.961 . S
C1351 H1367 0.961 . S
C1352 C1353 1.370 . S
C1352 C1354 1.363 . S
C1352 H1368 0.931 . S
C1353 C1352 1.370 . S
C1353 C1357 1.408 . S
C1354 C1352 1.363 . S
C1354 C1355 1.370 . S
C1354 C1358 1.524 . S
C1355 C1347 1.503 . S
C1355 C1354 1.370 . S
C1355 C1356 1.403 . S
C1356 C1355 1.403 . S
C1356 C1357 1.404 . S
C1356 C1359 1.539 . S
C1357 C1353 1.408 . S
C1357 C1356 1.404 . S
C1357 H1369 0.930 . S
C1358 C1354 1.524 . S
C1358 H1370 0.956 . S
C1358 H1371 0.961 . S
C1358 H1372 0.961 . S
C1359 C1356 1.539 . S
C1359 H1373 0.958 . S
C1359 H1374 0.961 . S
C1359 H1375 0.960 . S
H1360 C1344 0.931 . S
H1361 C1349 0.929 . S
H1362 C1350 0.960 . S
H1363 C1350 0.962 . S
H1364 C1350 0.960 . S
H1365 C1351 0.961 . S
H1366 C1351 0.961 . S
H1367 C1351 0.961 . S
H1368 C1352 0.931 . S
H1369 C1357 0.930 . S
H1370 C1358 0.956 . S
H1371 C1358 0.961 . S
H1372 C1358 0.961 . S
H1373 C1359 0.958 . S
H1374 C1359 0.961 . S
H1375 C1359 0.960 . S
C1376 C1377 1.391 . S
C1376 C1378 1.394 1_565 S
C1376 H1392 0.931 . S
C1377 C1376 1.391 . S
C1377 C1381 1.376 1_565 S
C1378 C1376 1.394 1_545 S
C1378 C1379 1.369 . S
C1378 C1382 1.531 . S
C1379 C1378 1.369 . S
C1379 C1380 1.410 . S
C1379 C1387 1.503 . S
C1380 C1379 1.410 . S
C1380 C1381 1.392 . S
C1380 C1383 1.511 . S
C1381 C1377 1.376 1_545 S
C1381 C1380 1.392 . S
C1381 H1393 0.929 . S
C1382 C1378 1.531 . S
C1382 H1394 0.991 . S
C1382 H1395 0.962 . S
C1382 H1396 0.960 1_545 S
C1383 C1380 1.511 . S
C1383 H1397 0.961 . S
C1383 H1398 0.961 . S
C1383 H1399 0.961 . S
C1384 C1385 1.370 1_556 S
C1384 C1386 1.363 . S
C1384 H1400 0.931 . S
C1385 C1384 1.370 1_554 S
C1385 C1389 1.408 . S
C1386 C1384 1.363 . S
C1386 C1387 1.370 . S
C1386 C1390 1.524 . S
C1387 C1379 1.503 . S
C1387 C1386 1.370 . S
C1387 C1388 1.403 1_556 S
C1388 C1387 1.403 1_554 S
C1388 C1389 1.404 . S
C1388 C1391 1.539 . S
C1389 C1385 1.408 . S
C1389 C1388 1.404 . S
C1389 H1401 0.930 . S
C1390 C1386 1.524 . S
C1390 H1402 0.956 . S
C1390 H1403 0.961 . S
C1390 H1404 0.961 . S
C1391 C1388 1.539 . S
C1391 H1405 0.958 . S
C1391 H1406 0.961 . S
C1391 H1407 0.960 . S
H1392 C1376 0.931 . S
H1393 C1381 0.929 . S
H1394 C1382 0.991 . S
H1395 C1382 0.962 . S
H1396 C1382 0.960 1_565 S
H1397 C1383 0.961 . S
H1398 C1383 0.961 . S
H1399 C1383 0.961 . S
H1400 C1384 0.931 . S
H1401 C1389 0.930 . S
H1402 C1390 0.956 . S
H1403 C1390 0.961 . S
H1404 C1390 0.961 . S
H1405 C1391 0.958 . S
H1406 C1391 0.961 . S
H1407 C1391 0.960 . S
C1408 C1409 1.391 . S
C1408 C1410 1.394 . S
C1408 H1424 0.931 . S
C1409 C1408 1.391 . S
C1409 C1413 1.376 . S
C1410 C1408 1.394 . S
C1410 C1411 1.369 . S
C1410 C1414 1.531 . S
C1411 C1410 1.369 . S
C1411 C1412 1.410 . S
C1411 C1419 1.503 . S
C1412 C1411 1.410 . S
C1412 C1413 1.392 . S
C1412 C1415 1.511 . S
C1413 C1409 1.376 . S
C1413 C1412 1.392 . S
C1413 H1425 0.929 . S
C1414 C1410 1.531 . S
C1414 H1426 0.960 . S
C1414 H1427 0.962 . S
C1414 H1428 0.960 . S
C1415 C1412 1.511 . S
C1415 H1429 0.961 . S
C1415 H1430 0.961 . S
C1415 H1431 0.961 . S
C1416 C1417 1.370 . S
C1416 C1418 1.363 . S
C1416 H1432 0.931 . S
C1417 C1416 1.370 . S
C1417 C1421 1.408 . S
C1418 C1416 1.363 . S
C1418 C1419 1.370 . S
C1418 C1422 1.524 . S
C1419 C1411 1.503 . S
C1419 C1418 1.370 . S
C1419 C1420 1.403 . S
C1420 C1419 1.403 . S
C1420 C1421 1.404 . S
C1420 C1423 1.539 . S
C1421 C1417 1.408 . S
C1421 C1420 1.404 . S
C1421 H1433 0.930 . S
C1422 C1418 1.524 . S
C1422 H1434 0.956 . S
C1422 H1435 0.961 . S
C1422 H1436 0.961 . S
C1423 C1420 1.539 . S
C1423 H1437 0.958 . S
C1423 H1438 0.961 . S
C1423 H1439 0.960 . S
H1424 C1408 0.931 . S
H1425 C1413 0.929 . S
H1426 C1414 0.960 . S
H1427 C1414 0.962 . S
H1428 C1414 0.960 . S
H1429 C1415 0.961 . S
H1430 C1415 0.961 . S
H1431 C1415 0.961 . S
H1432 C1416 0.931 . S
H1433 C1421 0.930 . S
H1434 C1422 0.956 . S
H1435 C1422 0.961 . S
H1436 C1422 0.961 . S
H1437 C1423 0.958 . S
H1438 C1423 0.961 . S
H1439 C1423 0.960 . S
C1440 C1441 1.391 . S
C1440 C1442 1.394 . S
C1440 H1456 0.931 . S
C1441 C1440 1.391 . S
C1441 C1445 1.376 . S
C1442 C1440 1.394 . S
C1442 C1443 1.369 . S
C1442 C1446 1.531 . S
C1443 C1442 1.369 . S
C1443 C1444 1.410 . S
C1443 C1451 1.503 . S
C1444 C1443 1.410 . S
C1444 C1445 1.392 . S
C1444 C1447 1.511 . S
C1445 C1441 1.376 . S
C1445 C1444 1.392 . S
C1445 H1457 0.929 . S
C1446 C1442 1.531 . S
C1446 H1458 0.960 . S
C1446 H1459 0.962 . S
C1446 H1460 0.960 . S
C1447 C1444 1.511 . S
C1447 H1461 0.961 . S
C1447 H1462 0.961 . S
C1447 H1463 0.961 . S
C1448 C1449 1.370 . S
C1448 C1450 1.363 1_545 S
C1448 H1464 0.931 . S
C1449 C1448 1.370 . S
C1449 C1453 1.408 1_545 S
C1450 C1448 1.363 1_565 S
C1450 C1451 1.370 . S
C1450 C1454 1.524 . S
C1451 C1443 1.503 . S
C1451 C1450 1.370 . S
C1451 C1452 1.403 . S
C1452 C1451 1.403 . S
C1452 C1453 1.404 . S
C1452 C1455 1.539 . S
C1453 C1449 1.408 1_565 S
C1453 C1452 1.404 . S
C1453 H1465 0.930 . S
C1454 C1450 1.524 . S
C1454 H1466 0.956 . S
C1454 H1467 0.961 . S
C1454 H1468 0.961 . S
C1455 C1452 1.539 . S
C1455 H1469 0.958 . S
C1455 H1470 0.961 . S
C1455 H1471 0.960 . S
H1456 C1440 0.931 . S
H1457 C1445 0.929 . S
H1458 C1446 0.960 . S
H1459 C1446 0.962 . S
H1460 C1446 0.960 . S
H1461 C1447 0.961 . S
H1462 C1447 0.961 . S
H1463 C1447 0.961 . S
H1464 C1448 0.931 . S
H1465 C1453 0.930 . S
H1466 C1454 0.956 . S
H1467 C1454 0.961 . S
H1468 C1454 0.961 . S
H1469 C1455 0.958 . S
H1470 C1455 0.961 . S
H1471 C1455 0.960 . S
C1472 C1473 1.391 . S
C1472 C1474 1.394 . S
C1472 H1488 0.931 . S
C1473 C1472 1.391 . S
C1473 C1477 1.376 . S
C1474 C1472 1.394 . S
C1474 C1475 1.369 . S
C1474 C1478 1.531 . S
C1475 C1474 1.369 . S
C1475 C1476 1.410 . S
C1475 C1483 1.503 . S
C1476 C1475 1.410 . S
C1476 C1477 1.392 . S
C1476 C1479 1.511 . S
C1477 C1473 1.376 . S
C1477 C1476 1.392 . S
C1477 H1489 0.929 . S
C1478 C1474 1.531 . S
C1478 H1490 0.960 . S
C1478 H1491 0.962 . S
C1478 H1492 0.960 . S
C1479 C1476 1.511 . S
C1479 H1493 0.961 . S
C1479 H1494 0.961 . S
C1479 H1495 0.961 . S
C1480 C1481 1.370 . S
C1480 C1482 1.363 . S
C1480 H1496 0.931 . S
C1481 C1480 1.370 . S
C1481 C1485 1.408 . S
C1482 C1480 1.363 . S
C1482 C1483 1.370 . S
C1482 C1486 1.524 . S
C1483 C1475 1.503 . S
C1483 C1482 1.370 . S
C1483 C1484 1.403 . S
C1484 C1483 1.403 . S
C1484 C1485 1.404 . S
C1484 C1487 1.539 . S
C1485 C1481 1.408 . S
C1485 C1484 1.404 . S
C1485 H1497 0.930 . S
C1486 C1482 1.524 . S
C1486 H1498 0.956 . S
C1486 H1499 0.961 . S
C1486 H1500 0.961 . S
C1487 C1484 1.539 . S
C1487 H1501 0.958 . S
C1487 H1502 0.961 . S
C1487 H1503 0.960 . S
H1488 C1472 0.931 . S
H1489 C1477 0.929 . S
H1490 C1478 0.960 . S
H1491 C1478 0.962 . S
H1492 C1478 0.960 . S
H1493 C1479 0.961 . S
H1494 C1479 0.961 . S
H1495 C1479 0.961 . S
H1496 C1480 0.931 . S
H1497 C1485 0.930 . S
H1498 C1486 0.956 . S
H1499 C1486 0.961 . S
H1500 C1486 0.961 . S
H1501 C1487 0.958 . S
H1502 C1487 0.961 . S
H1503 C1487 0.960 . S
C1504 C1505 1.384 1_545 S
C1504 C1506 1.408 . S
C1504 H1520 0.924 1_545 S
C1505 C1504 1.384 1_565 S
C1505 C1509 1.376 1_565 S
C1506 C1504 1.408 . S
C1506 C1507 1.369 . S
C1506 C1510 1.531 . S
C1507 C1506 1.369 . S
C1507 C1508 1.410 . S
C1507 C1515 1.503 . S
C1508 C1507 1.410 . S
C1508 C1509 1.392 . S
C1508 C1511 1.511 . S
C1509 C1505 1.376 1_545 S
C1509 C1508 1.392 . S
C1509 H1521 0.929 1_545 S
C1510 C1506 1.531 . S
C1510 H1522 0.960 . S
C1510 H1523 0.962 . S
C1510 H1524 0.960 . S
C1511 C1508 1.511 . S
C1511 H1525 0.961 . S
C1511 H1526 0.961 . S
C1511 H1527 0.961 . S
C1512 C1513 1.370 . S
C1512 C1514 1.363 . S
C1512 H1528 0.931 . S
C1513 C1512 1.370 . S
C1513 C1517 1.408 1_556 S
C1514 C1512 1.363 . S
C1514 C1515 1.370 1_556 S
C1514 C1518 1.524 . S
C1515 C1507 1.503 . S
C1515 C1514 1.370 1_554 S
C1515 C1516 1.403 . S
C1516 C1515 1.403 . S
C1516 C1517 1.404 . S
C1516 C1519 1.539 . S
C1517 C1513 1.408 1_554 S
C1517 C1516 1.404 . S
C1517 H1529 0.930 . S
C1518 C1514 1.524 . S
C1518 H1530 0.956 . S
C1518 H1531 0.961 . S
C1518 H1532 0.961 . S
C1519 C1516 1.539 . S
C1519 H1533 0.958 . S
C1519 H1534 0.961 . S
C1519 H1535 0.960 . S
H1520 C1504 0.924 1_565 S
H1521 C1509 0.929 1_565 S
H1522 C1510 0.960 . S
H1523 C1510 0.962 . S
H1524 C1510 0.960 . S
H1525 C1511 0.961 . S
H1526 C1511 0.961 . S
H1527 C1511 0.961 . S
H1528 C1512 0.931 . S
H1529 C1517 0.930 . S
H1530 C1518 0.956 . S
H1531 C1518 0.961 . S
H1532 C1518 0.961 . S
H1533 C1519 0.958 . S
H1534 C1519 0.961 . S
H1535 C1519 0.960 . S
C1536 C1537 1.391 . S
C1536 C1538 1.394 . S
C1536 H1552 0.931 . S
C1537 C1536 1.391 . S
C1537 C1541 1.376 . S
C1538 C1536 1.394 . S
C1538 C1539 1.369 . S
C1538 C1542 1.531 . S
C1539 C1538 1.369 . S
C1539 C1540 1.410 . S
C1539 C1547 1.503 . S
C1540 C1539 1.410 . S
C1540 C1541 1.392 . S
C1540 C1543 1.511 . S
C1541 C1537 1.376 . S
C1541 C1540 1.392 . S
C1541 H1553 0.929 . S
C1542 C1538 1.531 . S
C1542 H1554 0.960 . S
C1542 H1555 0.962 . S
C1542 H1556 0.960 . S
C1543 C1540 1.511 . S
C1543 H1557 0.961 . S
C1543 H1558 0.961 . S
C1543 H1559 0.961 . S
C1544 C1545 1.370 . S
C1544 C1546 1.363 . S
C1544 H1560 0.931 . S
C1545 C1544 1.370 . S
C1545 C1549 1.408 . S
C1546 C1544 1.363 . S
C1546 C1547 1.370 . S
C1546 C1550 1.524 . S
C1547 C1539 1.503 . S
C1547 C1546 1.370 . S
C1547 C1548 1.403 . S
C1548 C1547 1.403 . S
C1548 C1549 1.404 . S
C1548 C1551 1.539 . S
C1549 C1545 1.408 . S
C1549 C1548 1.404 . S
C1549 H1561 0.930 . S
C1550 C1546 1.524 . S
C1550 H1562 0.956 . S
C1550 H1563 0.961 . S
C1550 H1564 0.961 . S
C1551 C1548 1.539 . S
C1551 H1565 0.958 . S
C1551 H1566 0.961 . S
C1551 H1567 0.960 . S
H1552 C1536 0.931 . S
H1553 C1541 0.929 . S
H1554 C1542 0.960 . S
H1555 C1542 0.962 . S
H1556 C1542 0.960 . S
H1557 C1543 0.961 . S
H1558 C1543 0.961 . S
H1559 C1543 0.961 . S
H1560 C1544 0.931 . S
H1561 C1549 0.930 . S
H1562 C1550 0.956 . S
H1563 C1550 0.961 . S
H1564 C1550 0.961 . S
H1565 C1551 0.958 . S
H1566 C1551 0.961 . S
H1567 C1551 0.960 . S
C1568 C1569 1.391 . S
C1568 C1570 1.394 . S
C1568 H1584 0.931 . S
C1569 C1568 1.391 . S
C1569 C1573 1.376 . S
C1570 C1568 1.394 . S
C1570 C1571 1.369 . S
C1570 C1574 1.531 . S
C1571 C1570 1.369 . S
C1571 C1572 1.410 . S
C1571 C1579 1.503 . S
C1572 C1571 1.410 . S
C1572 C1573 1.392 . S
C1572 C1575 1.511 . S
C1573 C1569 1.376 . S
C1573 C1572 1.392 . S
C1573 H1585 0.929 . S
C1574 C1570 1.531 . S
C1574 H1586 0.960 . S
C1574 H1587 0.962 . S
C1574 H1588 0.960 . S
C1575 C1572 1.511 . S
C1575 H1589 0.961 . S
C1575 H1590 0.961 . S
C1575 H1591 0.961 . S
C1576 C1577 1.370 . S
C1576 C1578 1.363 1_565 S
C1576 H1592 0.931 . S
C1577 C1576 1.370 . S
C1577 C1581 1.408 1_565 S
C1578 C1576 1.363 1_545 S
C1578 C1579 1.370 . S
C1578 C1582 1.524 . S
C1579 C1571 1.503 . S
C1579 C1578 1.370 . S
C1579 C1580 1.403 . S
C1580 C1579 1.403 . S
C1580 C1581 1.404 . S
C1580 C1583 1.539 . S
C1581 C1577 1.408 1_545 S
C1581 C1580 1.404 . S
C1581 H1593 0.930 . S
C1582 C1578 1.524 . S
C1582 H1594 0.956 . S
C1582 H1595 0.961 . S
C1582 H1596 0.961 1_545 S
C1583 C1580 1.539 . S
C1583 H1597 0.958 . S
C1583 H1598 0.961 . S
C1583 H1599 0.960 . S
H1584 C1568 0.931 . S
H1585 C1573 0.929 . S
H1586 C1574 0.960 . S
H1587 C1574 0.962 . S
H1588 C1574 0.960 . S
H1589 C1575 0.961 . S
H1590 C1575 0.961 . S
H1591 C1575 0.961 . S
H1592 C1576 0.931 . S
H1593 C1581 0.930 . S
H1594 C1582 0.956 . S
H1595 C1582 0.961 . S
H1596 C1582 0.961 1_565 S
H1597 C1583 0.958 . S
H1598 C1583 0.961 . S
H1599 C1583 0.960 . S
C1600 C1601 1.391 . S
C1600 C1602 1.394 . S
C1600 H1616 0.931 . S
C1601 C1600 1.391 . S
C1601 C1605 1.376 . S
C1602 C1600 1.394 . S
C1602 C1603 1.369 . S
C1602 C1606 1.531 . S
C1603 C1602 1.369 . S
C1603 C1604 1.410 . S
C1603 C1611 1.503 . S
C1604 C1603 1.410 . S
C1604 C1605 1.392 . S
C1604 C1607 1.511 . S
C1605 C1601 1.376 . S
C1605 C1604 1.392 . S
C1605 H1617 0.929 . S
C1606 C1602 1.531 . S
C1606 H1618 0.960 . S
C1606 H1619 0.962 . S
C1606 H1620 0.960 . S
C1607 C1604 1.511 . S
C1607 H1621 0.961 . S
C1607 H1622 0.961 . S
C1607 H1623 0.961 . S
C1608 C1609 1.370 . S
C1608 C1610 1.363 . S
C1608 H1624 0.931 . S
C1609 C1608 1.370 . S
C1609 C1613 1.408 . S
C1610 C1608 1.363 . S
C1610 C1611 1.370 . S
C1610 C1614 1.524 . S
C1611 C1603 1.503 . S
C1611 C1610 1.370 . S
C1611 C1612 1.403 . S
C1612 C1611 1.403 . S
C1612 C1613 1.404 . S
C1612 C1615 1.539 . S
C1613 C1609 1.408 . S
C1613 C1612 1.404 . S
C1613 H1625 0.930 . S
C1614 C1610 1.524 . S
C1614 H1626 0.956 . S
C1614 H1627 0.961 . S
C1614 H1628 0.961 . S
C1615 C1612 1.539 . S
C1615 H1629 0.958 . S
C1615 H1630 0.961 . S
C1615 H1631 0.960 . S
H1616 C1600 0.931 . S
H1617 C1605 0.929 . S
H1618 C1606 0.960 . S
H1619 C1606 0.962 . S
H1620 C1606 0.960 . S
H1621 C1607 0.961 . S
H1622 C1607 0.961 . S
H1623 C1607 0.961 . S
H1624 C1608 0.931 . S
H1625 C1613 0.930 . S
H1626 C1614 0.956 . S
H1627 C1614 0.961 . S
H1628 C1614 0.961 . S
H1629 C1615 0.958 . S
H1630 C1615 0.961 . S
H1631 C1615 0.960 . S
C1632 C1633 1.391 . S
C1632 C1634 1.394 1_556 S
C1632 H1648 0.931 . S
C1633 C1632 1.391 . S
C1633 C1637 1.376 . S
C1634 C1632 1.394 1_554 S
C1634 C1635 1.369 . S
C1634 C1638 1.531 . S
C1635 C1634 1.369 . S
C1635 C1636 1.410 . S
C1635 C1643 1.503 . S
C1636 C1635 1.410 . S
C1636 C1637 1.392 1_554 S
C1636 C1639 1.511 . S
C1637 C1633 1.376 . S
C1637 C1636 1.392 1_556 S
C1637 H1649 0.929 . S
C1638 C1634 1.531 . S
C1638 H1650 0.960 . S
C1638 H1651 0.943 1_554 S
C1638 H1652 0.960 . S
C1639 C1636 1.511 . S
C1639 H1653 0.961 . S
C1639 H1654 0.961 . S
C1639 H1655 0.961 . S
C1640 C1641 1.370 . S
C1640 C1642 1.363 1_545 S
C1640 H1656 0.931 . S
C1641 C1640 1.370 . S
C1641 C1645 1.408 1_545 S
C1642 C1640 1.363 1_565 S
C1642 C1643 1.370 . S
C1642 C1646 1.525 1_554 S
C1643 C1635 1.503 . S
C1643 C1642 1.370 . S
C1643 C1644 1.403 . S
C1644 C1643 1.403 . S
C1644 C1645 1.404 . S
C1644 C1647 1.539 . S
C1645 C1641 1.408 1_565 S
C1645 C1644 1.404 . S
C1645 H1657 0.930 . S
C1646 C1642 1.525 1_556 S
C1646 H1658 0.957 . S
C1646 H1659 0.961 . S
C1646 H1660 0.959 1_565 S
C1647 C1644 1.539 . S
C1647 H1661 0.958 . S
C1647 H1662 0.961 . S
C1647 H1663 0.960 . S
H1648 C1632 0.931 . S
H1649 C1637 0.929 . S
H1650 C1638 0.960 . S
H1651 C1638 0.943 1_556 S
H1652 C1638 0.960 . S
H1653 C1639 0.961 . S
H1654 C1639 0.961 . S
H1655 C1639 0.961 . S
H1656 C1640 0.931 . S
H1657 C1645 0.930 . S
H1658 C1646 0.957 . S
H1659 C1646 0.961 . S
H1660 C1646 0.959 1_545 S
H1661 C1647 0.958 . S
H1662 C1647 0.961 . S
H1663 C1647 0.960 . S
C1664 C1665 1.391 . S
C1664 C1666 1.394 . S
C1664 H1680 0.931 . S
C1665 C1664 1.391 . S
C1665 C1669 1.376 . S
C1666 C1664 1.394 . S
C1666 C1667 1.369 . S
C1666 C1670 1.531 . S
C1667 C1666 1.369 . S
C1667 C1668 1.410 . S
C1667 C1675 1.503 . S
C1668 C1667 1.410 . S
C1668 C1669 1.392 . S
C1668 C1671 1.511 . S
C1669 C1665 1.376 . S
C1669 C1668 1.392 . S
C1669 H1681 0.929 . S
C1670 C1666 1.531 . S
C1670 H1682 0.960 . S
C1670 H1683 0.962 . S
C1670 H1684 0.960 . S
C1671 C1668 1.511 . S
C1671 H1685 0.961 . S
C1671 H1686 0.961 . S
C1671 H1687 0.961 . S
C1672 C1673 1.370 . S
C1672 C1674 1.363 . S
C1672 H1688 0.931 . S
C1673 C1672 1.370 . S
C1673 C1677 1.408 . S
C1674 C1672 1.363 . S
C1674 C1675 1.370 . S
C1674 C1678 1.524 . S
C1675 C1667 1.503 . S
C1675 C1674 1.370 . S
C1675 C1676 1.403 . S
C1676 C1675 1.403 . S
C1676 C1677 1.404 . S
C1676 C1679 1.539 . S
C1677 C1673 1.408 . S
C1677 C1676 1.404 . S
C1677 H1689 0.930 . S
C1678 C1674 1.524 . S
C1678 H1690 0.956 . S
C1678 H1691 0.961 . S
C1678 H1692 0.961 . S
C1679 C1676 1.539 . S
C1679 H1693 0.958 . S
C1679 H1694 0.961 . S
C1679 H1695 0.960 . S
H1680 C1664 0.931 . S
H1681 C1669 0.929 . S
H1682 C1670 0.960 . S
H1683 C1670 0.962 . S
H1684 C1670 0.960 . S
H1685 C1671 0.961 . S
H1686 C1671 0.961 . S
H1687 C1671 0.961 . S
H1688 C1672 0.931 . S
H1689 C1677 0.930 . S
H1690 C1678 0.956 . S
H1691 C1678 0.961 . S
H1692 C1678 0.961 . S
H1693 C1679 0.958 . S
H1694 C1679 0.961 . S
H1695 C1679 0.960 . S
C1696 C1697 1.391 . S
C1696 C1698 1.394 . S
C1696 H1712 0.931 . S
C1697 C1696 1.391 . S
C1697 C1701 1.376 . S
C1698 C1696 1.394 . S
C1698 C1699 1.369 . S
C1698 C1702 1.531 . S
C1699 C1698 1.369 . S
C1699 C1700 1.410 . S
C1699 C1707 1.503 . S
C1700 C1699 1.410 . S
C1700 C1701 1.392 . S
C1700 C1703 1.511 . S
C1701 C1697 1.376 . S
C1701 C1700 1.392 . S
C1701 H1713 0.929 . S
C1702 C1698 1.531 . S
C1702 H1714 0.960 . S
C1702 H1715 0.962 . S
C1702 H1716 0.960 . S
C1703 C1700 1.511 . S
C1703 H1717 0.961 . S
C1703 H1718 0.961 . S
C1703 H1719 0.961 . S
C1704 C1705 1.370 . S
C1704 C1706 1.363 1_565 S
C1704 H1720 0.931 . S
C1705 C1704 1.370 . S
C1705 C1709 1.410 1_565 S
C1706 C1704 1.363 1_545 S
C1706 C1707 1.370 . S
C1706 C1710 1.524 . S
C1707 C1699 1.503 . S
C1707 C1706 1.370 . S
C1707 C1708 1.403 . S
C1708 C1707 1.403 . S
C1708 C1709 1.400 . S
C1708 C1711 1.539 . S
C1709 C1705 1.410 1_545 S
C1709 C1708 1.400 . S
C1709 H1721 0.931 1_545 S
C1710 C1706 1.524 . S
C1710 H1722 0.956 . S
C1710 H1723 0.961 . S
C1710 H1724 0.961 . S
C1711 C1708 1.539 . S
C1711 H1725 0.958 . S
C1711 H1726 0.961 . S
C1711 H1727 0.960 . S
H1712 C1696 0.931 . S
H1713 C1701 0.929 . S
H1714 C1702 0.960 . S
H1715 C1702 0.962 . S
H1716 C1702 0.960 . S
H1717 C1703 0.961 . S
H1718 C1703 0.961 . S
H1719 C1703 0.961 . S
H1720 C1704 0.931 . S
H1721 C1709 0.931 1_565 S
H1722 C1710 0.956 . S
H1723 C1710 0.961 . S
H1724 C1710 0.961 . S
H1725 C1711 0.958 . S
H1726 C1711 0.961 . S
H1727 C1711 0.960 . S
C1728 C1729 1.391 . S
C1728 C1730 1.394 . S
C1728 H1744 0.931 . S
C1729 C1728 1.391 . S
C1729 C1733 1.376 . S
C1730 C1728 1.394 . S
C1730 C1731 1.369 . S
C1730 C1734 1.531 . S
C1731 C1730 1.369 . S
C1731 C1732 1.410 . S
C1731 C1739 1.503 . S
C1732 C1731 1.410 . S
C1732 C1733 1.392 . S
C1732 C1735 1.511 . S
C1733 C1729 1.376 . S
C1733 C1732 1.392 . S
C1733 H1745 0.929 . S
C1734 C1730 1.531 . S
C1734 H1746 0.960 . S
C1734 H1747 0.962 . S
C1734 H1748 0.960 . S
C1735 C1732 1.511 . S
C1735 H1749 0.961 . S
C1735 H1750 0.961 . S
C1735 H1751 0.961 . S
C1736 C1737 1.370 . S
C1736 C1738 1.363 . S
C1736 H1752 0.931 . S
C1737 C1736 1.370 . S
C1737 C1741 1.408 . S
C1738 C1736 1.363 . S
C1738 C1739 1.370 . S
C1738 C1742 1.524 . S
C1739 C1731 1.503 . S
C1739 C1738 1.370 . S
C1739 C1740 1.403 . S
C1740 C1739 1.403 . S
C1740 C1741 1.404 . S
C1740 C1743 1.539 . S
C1741 C1737 1.408 . S
C1741 C1740 1.404 . S
C1741 H1753 0.930 . S
C1742 C1738 1.524 . S
C1742 H1754 0.956 . S
C1742 H1755 0.961 . S
C1742 H1756 0.961 . S
C1743 C1740 1.539 . S
C1743 H1757 0.958 . S
C1743 H1758 0.961 . S
C1743 H1759 0.960 . S
H1744 C1728 0.931 . S
H1745 C1733 0.929 . S
H1746 C1734 0.960 . S
H1747 C1734 0.962 . S
H1748 C1734 0.960 . S
H1749 C1735 0.961 . S
H1750 C1735 0.961 . S
H1751 C1735 0.961 . S
H1752 C1736 0.931 . S
H1753 C1741 0.930 . S
H1754 C1742 0.956 . S
H1755 C1742 0.961 . S
H1756 C1742 0.961 . S
H1757 C1743 0.958 . S
H1758 C1743 0.961 . S
H1759 C1743 0.960 . S
C1760 C1761 1.391 1_565 S
C1760 C1762 1.394 . S
C1760 H1776 0.931 . S
C1761 C1760 1.391 1_545 S
C1761 C1765 1.376 . S
C1762 C1760 1.394 . S
C1762 C1763 1.369 . S
C1762 C1766 1.531 . S
C1763 C1762 1.369 . S
C1763 C1764 1.434 . S
C1763 C1771 1.503 . S
C1764 C1763 1.434 . S
C1764 C1765 1.374 1_565 S
C1764 C1767 1.505 1_565 S
C1765 C1761 1.376 . S
C1765 C1764 1.374 1_545 S
C1765 H1777 0.929 . S
C1766 C1762 1.531 . S
C1766 H1778 0.960 . S
C1766 H1779 0.962 . S
C1766 H1780 0.960 . S
C1767 C1764 1.505 1_545 S
C1767 H1781 0.961 . S
C1767 H1782 0.961 1_546 S
C1767 H1783 0.961 1_556 S
C1768 C1769 1.390 . S
C1768 C1770 1.349 1_554 S
C1768 H1784 0.925 1_554 S
C1769 C1768 1.390 . S
C1769 C1773 1.408 . S
C1770 C1768 1.349 1_556 S
C1770 C1771 1.370 . S
C1770 C1774 1.524 . S
C1771 C1763 1.503 . S
C1771 C1770 1.370 . S
C1771 C1772 1.403 1_556 S
C1772 C1771 1.403 1_554 S
C1772 C1773 1.404 . S
C1772 C1775 1.539 . S
C1773 C1769 1.408 . S
C1773 C1772 1.404 . S
C1773 H1785 0.930 . S
C1774 C1770 1.524 . S
C1774 H1786 0.956 . S
C1774 H1787 0.961 . S
C1774 H1788 0.961 . S
C1775 C1772 1.539 . S
C1775 H1789 0.958 . S
C1775 H1790 0.961 . S
C1775 H1791 0.960 . S
H1776 C1760 0.931 . S
H1777 C1765 0.929 . S
H1778 C1766 0.960 . S
H1779 C1766 0.962 . S
H1780 C1766 0.960 . S
H1781 C1767 0.961 . S
H1782 C1767 0.961 1_564 S
H1783 C1767 0.961 1_554 S
H1784 C1768 0.925 1_556 S
H1785 C1773 0.930 . S
H1786 C1774 0.956 . S
H1787 C1774 0.961 . S
H1788 C1774 0.961 . S
H1789 C1775 0.958 . S
H1790 C1775 0.961 . S
H1791 C1775 0.960 . S
C1792 C1793 1.391 . S
C1792 C1794 1.394 . S
C1792 H1808 0.931 . S
C1793 C1792 1.391 . S
C1793 C1797 1.376 . S
C1794 C1792 1.394 . S
C1794 C1795 1.369 . S
C1794 C1798 1.531 . S
C1795 C1794 1.369 . S
C1795 C1796 1.410 . S
C1795 C1803 1.503 . S
C1796 C1795 1.410 . S
C1796 C1797 1.392 . S
C1796 C1799 1.511 . S
C1797 C1793 1.376 . S
C1797 C1796 1.392 . S
C1797 H1809 0.929 . S
C1798 C1794 1.531 . S
C1798 H1810 0.960 . S
C1798 H1811 0.962 . S
C1798 H1812 0.960 . S
C1799 C1796 1.511 . S
C1799 H1813 0.961 . S
C1799 H1814 0.961 . S
C1799 H1815 0.961 . S
C1800 C1801 1.370 . S
C1800 C1802 1.363 . S
C1800 H1816 0.931 . S
C1801 C1800 1.370 . S
C1801 C1805 1.408 . S
C1802 C1800 1.363 . S
C1802 C1803 1.370 . S
C1802 C1806 1.524 . S
C1803 C1795 1.503 . S
C1803 C1802 1.370 . S
C1803 C1804 1.403 . S
C1804 C1803 1.403 . S
C1804 C1805 1.404 . S
C1804 C1807 1.539 . S
C1805 C1801 1.408 . S
C1805 C1804 1.404 . S
C1805 H1817 0.930 . S
C1806 C1802 1.524 . S
C1806 H1818 0.956 . S
C1806 H1819 0.961 . S
C1806 H1820 0.961 . S
C1807 C1804 1.539 . S
C1807 H1821 0.958 . S
C1807 H1822 0.961 . S
C1807 H1823 0.960 . S
H1808 C1792 0.931 . S
H1809 C1797 0.929 . S
H1810 C1798 0.960 . S
H1811 C1798 0.962 . S
H1812 C1798 0.960 . S
H1813 C1799 0.961 . S
H1814 C1799 0.961 . S
H1815 C1799 0.961 . S
H1816 C1800 0.931 . S
H1817 C1805 0.930 . S
H1818 C1806 0.956 . S
H1819 C1806 0.961 . S
H1820 C1806 0.961 . S
H1821 C1807 0.958 . S
H1822 C1807 0.961 . S
H1823 C1807 0.960 . S
C1824 C1825 1.391 . S
C1824 C1826 1.394 . S
C1824 H1840 0.931 . S
C1825 C1824 1.391 . S
C1825 C1829 1.376 . S
C1826 C1824 1.394 . S
C1826 C1827 1.369 . S
C1826 C1830 1.531 . S
C1827 C1826 1.369 . S
C1827 C1828 1.410 . S
C1827 C1835 1.503 . S
C1828 C1827 1.410 . S
C1828 C1829 1.392 . S
C1828 C1831 1.511 1_556 S
C1829 C1825 1.376 . S
C1829 C1828 1.392 . S
C1829 H1841 0.929 . S
C1830 C1826 1.531 . S
C1830 H1842 0.960 . S
C1830 H1843 0.962 . S
C1830 H1844 0.960 . S
C1831 C1828 1.511 1_554 S
C1831 H1845 0.961 . S
C1831 H1846 0.961 . S
C1831 H1847 0.961 . S
C1832 C1833 1.370 . S
C1832 C1834 1.363 1_554 S
C1832 H1848 0.931 . S
C1833 C1832 1.370 . S
C1833 C1837 1.408 . S
C1834 C1832 1.363 1_556 S
C1834 C1835 1.370 . S
C1834 C1838 1.524 . S
C1835 C1827 1.503 . S
C1835 C1834 1.370 . S
C1835 C1836 1.403 1_556 S
C1836 C1835 1.403 1_554 S
C1836 C1837 1.404 . S
C1836 C1839 1.535 1_554 S
C1837 C1833 1.408 . S
C1837 C1836 1.404 . S
C1837 H1849 0.930 . S
C1838 C1834 1.524 . S
C1838 H1850 0.956 . S
C1838 H1851 0.961 . S
C1838 H1852 0.961 . S
C1839 C1836 1.535 1_556 S
C1839 H1853 0.994 . S
C1839 H1854 0.918 1_556 S
C1839 H1855 0.973 . S
H1840 C1824 0.931 . S
H1841 C1829 0.929 . S
H1842 C1830 0.960 . S
H1843 C1830 0.962 . S
H1844 C1830 0.960 . S
H1845 C1831 0.961 . S
H1846 C1831 0.961 . S
H1847 C1831 0.961 . S
H1848 C1832 0.931 . S
H1849 C1837 0.930 . S
H1850 C1838 0.956 . S
H1851 C1838 0.961 . S
H1852 C1838 0.961 . S
H1853 C1839 0.994 . S
H1854 C1839 0.918 1_554 S
H1855 C1839 0.973 . S
C1856 C1857 1.391 . S
C1856 C1858 1.394 . S
C1856 H1872 0.931 . S
C1857 C1856 1.391 . S
C1857 C1861 1.376 . S
C1858 C1856 1.394 . S
C1858 C1859 1.369 . S
C1858 C1862 1.531 . S
C1859 C1858 1.369 . S
C1859 C1860 1.410 . S
C1859 C1867 1.503 . S
C1860 C1859 1.410 . S
C1860 C1861 1.392 . S
C1860 C1863 1.511 . S
C1861 C1857 1.376 . S
C1861 C1860 1.392 . S
C1861 H1873 0.929 . S
C1862 C1858 1.531 . S
C1862 H1874 0.960 . S
C1862 H1875 0.962 . S
C1862 H1876 0.960 . S
C1863 C1860 1.511 . S
C1863 H1877 0.961 . S
C1863 H1878 0.961 . S
C1863 H1879 0.961 . S
C1864 C1865 1.370 . S
C1864 C1866 1.363 . S
C1864 H1880 0.931 . S
C1865 C1864 1.370 . S
C1865 C1869 1.408 . S
C1866 C1864 1.363 . S
C1866 C1867 1.370 . S
C1866 C1870 1.524 . S
C1867 C1859 1.503 . S
C1867 C1866 1.370 . S
C1867 C1868 1.403 . S
C1868 C1867 1.403 . S
C1868 C1869 1.404 . S
C1868 C1871 1.539 . S
C1869 C1865 1.408 . S
C1869 C1868 1.404 . S
C1869 H1881 0.930 . S
C1870 C1866 1.524 . S
C1870 H1882 0.956 . S
C1870 H1883 0.961 . S
C1870 H1884 0.961 . S
C1871 C1868 1.539 . S
C1871 H1885 0.958 . S
C1871 H1886 0.961 . S
C1871 H1887 0.960 . S
H1872 C1856 0.931 . S
H1873 C1861 0.929 . S
H1874 C1862 0.960 . S
H1875 C1862 0.962 . S
H1876 C1862 0.960 . S
H1877 C1863 0.961 . S
H1878 C1863 0.961 . S
H1879 C1863 0.961 . S
H1880 C1864 0.931 . S
H1881 C1869 0.930 . S
H1882 C1870 0.956 . S
H1883 C1870 0.961 . S
H1884 C1870 0.961 . S
H1885 C1871 0.958 . S
H1886 C1871 0.961 . S
H1887 C1871 0.960 . S
C1888 C1889 1.391 . S
C1888 C1890 1.394 . S
C1888 H1904 0.931 . S
C1889 C1888 1.391 . S
C1889 C1893 1.376 . S
C1890 C1888 1.394 . S
C1890 C1891 1.369 . S
C1890 C1894 1.531 . S
C1891 C1890 1.369 . S
C1891 C1892 1.410 . S
C1891 C1899 1.503 . S
C1892 C1891 1.410 . S
C1892 C1893 1.392 . S
C1892 C1895 1.511 . S
C1893 C1889 1.376 . S
C1893 C1892 1.392 . S
C1893 H1905 0.929 . S
C1894 C1890 1.531 . S
C1894 H1906 0.960 . S
C1894 H1907 0.962 . S
C1894 H1908 0.960 . S
C1895 C1892 1.511 . S
C1895 H1909 0.961 . S
C1895 H1910 0.961 . S
C1895 H1911 0.961 . S
C1896 C1897 1.370 . S
C1896 C1898 1.363 . S
C1896 H1912 0.931 . S
C1897 C1896 1.370 . S
C1897 C1901 1.408 . S
C1898 C1896 1.363 . S
C1898 C1899 1.370 . S
C1898 C1902 1.524 . S
C1899 C1891 1.503 . S
C1899 C1898 1.370 . S
C1899 C1900 1.403 . S
C1900 C1899 1.403 . S
C1900 C1901 1.404 . S
C1900 C1903 1.539 . S
C1901 C1897 1.408 . S
C1901 C1900 1.404 . S
C1901 H1913 0.930 . S
C1902 C1898 1.524 . S
C1902 H1914 0.956 . S
C1902 H1915 0.961 . S
C1902 H1916 0.961 . S
C1903 C1900 1.539 . S
C1903 H1917 0.958 . S
C1903 H1918 0.961 . S
C1903 H1919 0.960 . S
H1904 C1888 0.931 . S
H1905 C1893 0.929 . S
H1906 C1894 0.960 . S
H1907 C1894 0.962 . S
H1908 C1894 0.960 . S
H1909 C1895 0.961 . S
H1910 C1895 0.961 . S
H1911 C1895 0.961 . S
H1912 C1896 0.931 . S
H1913 C1901 0.930 . S
H1914 C1902 0.956 . S
H1915 C1902 0.961 . S
H1916 C1902 0.961 . S
H1917 C1903 0.958 . S
H1918 C1903 0.961 . S
H1919 C1903 0.960 . S
C1920 C1921 1.391 . S
C1920 C1922 1.394 . S
C1920 H1936 0.931 . S
C1921 C1920 1.391 . S
C1921 C1925 1.376 . S
C1922 C1920 1.394 . S
C1922 C1923 1.369 . S
C1922 C1926 1.531 . S
C1923 C1922 1.369 . S
C1923 C1924 1.410 . S
C1923 C1931 1.503 . S
C1924 C1923 1.410 . S
C1924 C1925 1.392 . S
C1924 C1927 1.511 . S
C1925 C1921 1.376 . S
C1925 C1924 1.392 . S
C1925 H1937 0.929 . S
C1926 C1922 1.531 . S
C1926 H1938 0.960 . S
C1926 H1939 0.962 . S
C1926 H1940 0.960 . S
C1927 C1924 1.511 . S
C1927 H1941 0.961 . S
C1927 H1942 0.961 . S
C1927 H1943 0.961 . S
C1928 C1929 1.370 . S
C1928 C1930 1.363 . S
C1928 H1944 0.931 . S
C1929 C1928 1.370 . S
C1929 C1933 1.408 . S
C1930 C1928 1.363 . S
C1930 C1931 1.370 . S
C1930 C1934 1.524 . S
C1931 C1923 1.503 . S
C1931 C1930 1.370 . S
C1931 C1932 1.403 . S
C1932 C1931 1.403 . S
C1932 C1933 1.404 . S
C1932 C1935 1.539 . S
C1933 C1929 1.408 . S
C1933 C1932 1.404 . S
C1933 H1945 0.930 . S
C1934 C1930 1.524 . S
C1934 H1946 0.956 . S
C1934 H1947 0.961 . S
C1934 H1948 0.961 . S
C1935 C1932 1.539 . S
C1935 H1949 0.958 . S
C1935 H1950 0.961 . S
C1935 H1951 0.960 . S
H1936 C1920 0.931 . S
H1937 C1925 0.929 . S
H1938 C1926 0.960 . S
H1939 C1926 0.962 . S
H1940 C1926 0.960 . S
H1941 C1927 0.961 . S
H1942 C1927 0.961 . S
H1943 C1927 0.961 . S
H1944 C1928 0.931 . S
H1945 C1933 0.930 . S
H1946 C1934 0.956 . S
H1947 C1934 0.961 . S
H1948 C1934 0.961 . S
H1949 C1935 0.958 . S
H1950 C1935 0.961 . S
H1951 C1935 0.960 . S
C1952 C1953 1.391 . S
C1952 C1954 1.394 . S
C1952 H1968 0.931 . S
C1953 C1952 1.391 . S
C1953 C1957 1.376 . S
C1954 C1952 1.394 . S
C1954 C1955 1.369 . S
C1954 C1958 1.531 . S
C1955 C1954 1.369 . S
C1955 C1956 1.410 . S
C1955 C1963 1.503 . S
C1956 C1955 1.410 . S
C1956 C1957 1.392 . S
C1956 C1959 1.511 1_554 S
C1957 C1953 1.376 . S
C1957 C1956 1.392 . S
C1957 H1969 0.929 . S
C1958 C1954 1.531 . S
C1958 H1970 0.960 . S
C1958 H1971 0.962 . S
C1958 H1972 0.960 . S
C1959 C1956 1.511 1_556 S
C1959 H1973 0.958 1_556 S
C1959 H1974 0.961 . S
C1959 H1975 0.961 . S
C1960 C1961 1.370 . S
C1960 C1962 1.363 1_556 S
C1960 H1976 0.930 . S
C1961 C1960 1.370 . S
C1961 C1965 1.408 . S
C1962 C1960 1.363 1_554 S
C1962 C1963 1.370 . S
C1962 C1966 1.524 . S
C1963 C1955 1.503 . S
C1963 C1962 1.370 . S
C1963 C1964 1.403 1_554 S
C1964 C1963 1.403 1_556 S
C1964 C1965 1.404 . S
C1964 C1967 1.539 . S
C1965 C1961 1.408 . S
C1965 C1964 1.404 . S
C1965 H1977 0.930 . S
C1966 C1962 1.524 . S
C1966 H1978 0.956 . S
C1966 H1979 0.961 . S
C1966 H1980 0.961 . S
C1967 C1964 1.539 . S
C1967 H1981 0.958 . S
C1967 H1982 0.961 . S
C1967 H1983 0.960 . S
H1968 C1952 0.931 . S
H1969 C1957 0.929 . S
H1970 C1958 0.960 . S
H1971 C1958 0.962 . S
H1972 C1958 0.960 . S
H1973 C1959 0.958 1_554 S
H1974 C1959 0.961 . S
H1975 C1959 0.961 . S
H1976 C1960 0.930 . S
H1977 C1965 0.930 . S
H1978 C1966 0.956 . S
H1979 C1966 0.961 . S
H1980 C1966 0.961 . S
H1981 C1967 0.958 . S
H1982 C1967 0.961 . S
H1983 C1967 0.960 . S
C1984 C1985 1.391 . S
C1984 C1986 1.394 . S
C1984 H2000 0.931 . S
C1985 C1984 1.391 . S
C1985 C1989 1.376 . S
C1986 C1984 1.394 . S
C1986 C1987 1.369 . S
C1986 C1990 1.531 . S
C1987 C1986 1.369 . S
C1987 C1988 1.410 . S
C1987 C1995 1.503 . S
C1988 C1987 1.410 . S
C1988 C1989 1.392 . S
C1988 C1991 1.511 . S
C1989 C1985 1.376 . S
C1989 C1988 1.392 . S
C1989 H2001 0.929 . S
C1990 C1986 1.531 . S
C1990 H2002 0.960 . S
C1990 H2003 0.962 . S
C1990 H2004 0.960 . S
C1991 C1988 1.511 . S
C1991 H2005 0.961 . S
C1991 H2006 0.961 . S
C1991 H2007 0.961 . S
C1992 C1993 1.370 . S
C1992 C1994 1.363 . S
C1992 H2008 0.931 . S
C1993 C1992 1.370 . S
C1993 C1997 1.408 . S
C1994 C1992 1.363 . S
C1994 C1995 1.370 . S
C1994 C1998 1.524 . S
C1995 C1987 1.503 . S
C1995 C1994 1.370 . S
C1995 C1996 1.403 . S
C1996 C1995 1.403 . S
C1996 C1997 1.404 . S
C1996 C1999 1.539 . S
C1997 C1993 1.408 . S
C1997 C1996 1.404 . S
C1997 H2009 0.930 . S
C1998 C1994 1.524 . S
C1998 H2010 0.956 . S
C1998 H2011 0.961 . S
C1998 H2012 0.961 . S
C1999 C1996 1.539 . S
C1999 H2013 0.958 . S
C1999 H2014 0.961 . S
C1999 H2015 0.960 . S
H2000 C1984 0.931 . S
H2001 C1989 0.929 . S
H2002 C1990 0.960 . S
H2003 C1990 0.962 . S
H2004 C1990 0.960 . S
H2005 C1991 0.961 . S
H2006 C1991 0.961 . S
H2007 C1991 0.961 . S
H2008 C1992 0.931 . S
H2009 C1997 0.930 . S
H2010 C1998 0.956 . S
H2011 C1998 0.961 . S
H2012 C1998 0.961 . S
H2013 C1999 0.958 . S
H2014 C1999 0.961 . S
H2015 C1999 0.960 . S
C2016 C2017 1.391 . S
C2016 C2018 1.394 . S
C2016 H2032 0.931 . S
C2017 C2016 1.391 . S
C2017 C2021 1.376 . S
C2018 C2016 1.394 . S
C2018 C2019 1.369 . S
C2018 C2022 1.531 . S
C2019 C2018 1.369 . S
C2019 C2020 1.410 . S
C2019 C2027 1.503 . S
C2020 C2019 1.410 . S
C2020 C2021 1.392 . S
C2020 C2023 1.511 . S
C2021 C2017 1.376 . S
C2021 C2020 1.392 . S
C2021 H2033 0.929 . S
C2022 C2018 1.531 . S
C2022 H2034 0.960 . S
C2022 H2035 0.962 . S
C2022 H2036 0.960 . S
C2023 C2020 1.511 . S
C2023 H2037 0.961 . S
C2023 H2038 0.961 . S
C2023 H2039 0.961 . S
C2024 C2025 1.370 . S
C2024 C2026 1.363 . S
C2024 H2040 0.931 . S
C2025 C2024 1.370 . S
C2025 C2029 1.408 . S
C2026 C2024 1.363 . S
C2026 C2027 1.370 . S
C2026 C2030 1.524 . S
C2027 C2019 1.503 . S
C2027 C2026 1.370 . S
C2027 C2028 1.403 . S
C2028 C2027 1.403 . S
C2028 C2029 1.404 . S
C2028 C2031 1.539 . S
C2029 C2025 1.408 . S
C2029 C2028 1.404 . S
C2029 H2041 0.930 . S
C2030 C2026 1.524 . S
C2030 H2042 0.956 . S
C2030 H2043 0.961 . S
C2030 H2044 0.961 . S
C2031 C2028 1.539 . S
C2031 H2045 0.958 . S
C2031 H2046 0.961 . S
C2031 H2047 0.960 . S
H2032 C2016 0.931 . S
H2033 C2021 0.929 . S
H2034 C2022 0.960 . S
H2035 C2022 0.962 . S
H2036 C2022 0.960 . S
H2037 C2023 0.961 . S
H2038 C2023 0.961 . S
H2039 C2023 0.961 . S
H2040 C2024 0.931 . S
H2041 C2029 0.930 . S
H2042 C2030 0.956 . S
H2043 C2030 0.961 . S
H2044 C2030 0.961 . S
H2045 C2031 0.958 . S
H2046 C2031 0.961 . S
H2047 C2031 0.960 . S
C2048 C2049 1.391 . S
C2048 C2050 1.394 . S
C2048 H2064 0.931 . S
C2049 C2048 1.391 . S
C2049 C2053 1.376 . S
C2050 C2048 1.394 . S
C2050 C2051 1.369 . S
C2050 C2054 1.531 . S
C2051 C2050 1.369 . S
C2051 C2052 1.410 . S
C2051 C2059 1.503 . S
C2052 C2051 1.410 . S
C2052 C2053 1.392 . S
C2052 C2055 1.511 . S
C2053 C2049 1.376 . S
C2053 C2052 1.392 . S
C2053 H2065 0.929 . S
C2054 C2050 1.531 . S
C2054 H2066 0.960 . S
C2054 H2067 0.962 . S
C2054 H2068 0.960 . S
C2055 C2052 1.511 . S
C2055 H2069 0.961 . S
C2055 H2070 0.961 . S
C2055 H2071 0.961 . S
C2056 C2057 1.370 . S
C2056 C2058 1.363 . S
C2056 H2072 0.931 . S
C2057 C2056 1.370 . S
C2057 C2061 1.408 . S
C2058 C2056 1.363 . S
C2058 C2059 1.370 . S
C2058 C2062 1.524 . S
C2059 C2051 1.503 . S
C2059 C2058 1.370 . S
C2059 C2060 1.403 . S
C2060 C2059 1.403 . S
C2060 C2061 1.404 . S
C2060 C2063 1.539 . S
C2061 C2057 1.408 . S
C2061 C2060 1.404 . S
C2061 H2073 0.930 . S
C2062 C2058 1.524 . S
C2062 H2074 0.956 . S
C2062 H2075 0.961 . S
C2062 H2076 0.961 . S
C2063 C2060 1.539 . S
C2063 H2077 0.958 . S
C2063 H2078 0.961 . S
C2063 H2079 0.960 . S
H2064 C2048 0.931 . S
H2065 C2053 0.929 . S
H2066 C2054 0.960 . S
H2067 C2054 0.962 . S
H2068 C2054 0.960 . S
H2069 C2055 0.961 . S
H2070 C2055 0.961 . S
H2071 C2055 0.961 . S
H2072 C2056 0.931 . S
H2073 C2061 0.930 . S
H2074 C2062 0.956 . S
H2075 C2062 0.961 . S
H2076 C2062 0.961 . S
H2077 C2063 0.958 . S
H2078 C2063 0.961 . S
H2079 C2063 0.960 . S
C2080 C2081 1.391 . S
C2080 C2082 1.394 . S
C2080 H2096 0.931 . S
C2081 C2080 1.391 . S
C2081 C2085 1.376 . S
C2082 C2080 1.394 . S
C2082 C2083 1.369 . S
C2082 C2086 1.531 . S
C2083 C2082 1.369 . S
C2083 C2084 1.410 . S
C2083 C2091 1.503 . S
C2084 C2083 1.410 . S
C2084 C2085 1.392 . S
C2084 C2087 1.511 1_554 S
C2085 C2081 1.376 . S
C2085 C2084 1.392 . S
C2085 H2097 0.929 . S
C2086 C2082 1.531 . S
C2086 H2098 0.960 . S
C2086 H2099 0.962 . S
C2086 H2100 0.960 . S
C2087 C2084 1.511 1_556 S
C2087 H2101 0.961 . S
C2087 H2102 0.961 . S
C2087 H2103 0.961 . S
C2088 C2089 1.370 . S
C2088 C2090 1.398 . S
C2088 H2104 0.931 . S
C2089 C2088 1.370 . S
C2089 C2093 1.408 . S
C2090 C2088 1.398 . S
C2090 C2091 1.342 1_556 S
C2090 C2094 1.520 1_556 S
C2091 C2083 1.503 . S
C2091 C2090 1.342 1_554 S
C2091 C2092 1.403 . S
C2092 C2091 1.403 . S
C2092 C2093 1.404 1_554 S
C2092 C2095 1.539 . S
C2093 C2089 1.408 . S
C2093 C2092 1.404 1_556 S
C2093 H2105 0.930 . S
C2094 C2090 1.520 1_554 S
C2094 H2106 0.956 . S
C2094 H2107 0.961 1_554 S
C2094 H2108 0.961 1_554 S
C2095 C2092 1.539 . S
C2095 H2109 0.958 . S
C2095 H2110 0.961 . S
C2095 H2111 0.960 . S
H2096 C2080 0.931 . S
H2097 C2085 0.929 . S
H2098 C2086 0.960 . S
H2099 C2086 0.962 . S
H2100 C2086 0.960 . S
H2101 C2087 0.961 . S
H2102 C2087 0.961 . S
H2103 C2087 0.961 . S
H2104 C2088 0.931 . S
H2105 C2093 0.930 . S
H2106 C2094 0.956 . S
H2107 C2094 0.961 1_556 S
H2108 C2094 0.961 1_556 S
H2109 C2095 0.958 . S
H2110 C2095 0.961 . S
H2111 C2095 0.960 . S
C2112 C2113 1.391 . S
C2112 C2114 1.394 . S
C2112 H2128 0.931 . S
C2113 C2112 1.391 . S
C2113 C2117 1.376 . S
C2114 C2112 1.394 . S
C2114 C2115 1.369 . S
C2114 C2118 1.531 . S
C2115 C2114 1.369 . S
C2115 C2116 1.410 . S
C2115 C2123 1.503 . S
C2116 C2115 1.410 . S
C2116 C2117 1.392 . S
C2116 C2119 1.511 . S
C2117 C2113 1.376 . S
C2117 C2116 1.392 . S
C2117 H2129 0.929 . S
C2118 C2114 1.531 . S
C2118 H2130 0.960 . S
C2118 H2131 0.962 . S
C2118 H2132 0.960 . S
C2119 C2116 1.511 . S
C2119 H2133 0.961 . S
C2119 H2134 0.961 . S
C2119 H2135 0.961 . S
C2120 C2121 1.370 . S
C2120 C2122 1.363 . S
C2120 H2136 0.931 . S
C2121 C2120 1.370 . S
C2121 C2125 1.408 . S
C2122 C2120 1.363 . S
C2122 C2123 1.370 . S
C2122 C2126 1.524 . S
C2123 C2115 1.503 . S
C2123 C2122 1.370 . S
C2123 C2124 1.403 . S
C2124 C2123 1.403 . S
C2124 C2125 1.404 . S
C2124 C2127 1.539 . S
C2125 C2121 1.408 . S
C2125 C2124 1.404 . S
C2125 H2137 0.930 . S
C2126 C2122 1.524 . S
C2126 H2138 0.956 . S
C2126 H2139 0.961 . S
C2126 H2140 0.961 . S
C2127 C2124 1.539 . S
C2127 H2141 0.958 . S
C2127 H2142 0.961 . S
C2127 H2143 0.960 . S
H2128 C2112 0.931 . S
H2129 C2117 0.929 . S
H2130 C2118 0.960 . S
H2131 C2118 0.962 . S
H2132 C2118 0.960 . S
H2133 C2119 0.961 . S
H2134 C2119 0.961 . S
H2135 C2119 0.961 . S
H2136 C2120 0.931 . S
H2137 C2125 0.930 . S
H2138 C2126 0.956 . S
H2139 C2126 0.961 . S
H2140 C2126 0.961 . S
H2141 C2127 0.958 . S
H2142 C2127 0.961 . S
H2143 C2127 0.960 . S
C2144 C2145 1.391 . S
C2144 C2146 1.394 . S
C2144 H2160 0.931 . S
C2145 C2144 1.391 . S
C2145 C2149 1.376 . S
C2146 C2144 1.394 . S
C2146 C2147 1.369 . S
C2146 C2150 1.531 . S
C2147 C2146 1.369 . S
C2147 C2148 1.410 . S
C2147 C2155 1.503 . S
C2148 C2147 1.410 . S
C2148 C2149 1.392 . S
C2148 C2151 1.511 . S
C2149 C2145 1.376 . S
C2149 C2148 1.392 . S
C2149 H2161 0.929 . S
C2150 C2146 1.531 . S
C2150 H2162 0.960 . S
C2150 H2163 0.962 . S
C2150 H2164 0.960 . S
C2151 C2148 1.511 . S
C2151 H2165 0.961 . S
C2151 H2166 0.961 . S
C2151 H2167 0.961 . S
C2152 C2153 1.370 . S
C2152 C2154 1.363 . S
C2152 H2168 0.931 . S
C2153 C2152 1.370 . S
C2153 C2157 1.408 . S
C2154 C2152 1.363 . S
C2154 C2155 1.370 . S
C2154 C2158 1.524 . S
C2155 C2147 1.503 . S
C2155 C2154 1.370 . S
C2155 C2156 1.403 . S
C2156 C2155 1.403 . S
C2156 C2157 1.404 . S
C2156 C2159 1.539 . S
C2157 C2153 1.408 . S
C2157 C2156 1.404 . S
C2157 H2169 0.930 . S
C2158 C2154 1.524 . S
C2158 H2170 0.956 . S
C2158 H2171 0.961 . S
C2158 H2172 0.961 . S
C2159 C2156 1.539 . S
C2159 H2173 0.958 . S
C2159 H2174 0.961 . S
C2159 H2175 0.960 . S
H2160 C2144 0.931 . S
H2161 C2149 0.929 . S
H2162 C2150 0.960 . S
H2163 C2150 0.962 . S
H2164 C2150 0.960 . S
H2165 C2151 0.961 . S
H2166 C2151 0.961 . S
H2167 C2151 0.961 . S
H2168 C2152 0.931 . S
H2169 C2157 0.930 . S
H2170 C2158 0.956 . S
H2171 C2158 0.961 . S
H2172 C2158 0.961 . S
H2173 C2159 0.958 . S
H2174 C2159 0.961 . S
H2175 C2159 0.960 . S
C2176 C2177 1.391 . S
C2176 C2178 1.394 . S
C2176 H2192 0.931 . S
C2177 C2176 1.391 . S
C2177 C2181 1.376 . S
C2178 C2176 1.394 . S
C2178 C2179 1.369 . S
C2178 C2182 1.531 . S
C2179 C2178 1.369 . S
C2179 C2180 1.410 . S
C2179 C2187 1.503 . S
C2180 C2179 1.410 . S
C2180 C2181 1.392 . S
C2180 C2183 1.511 . S
C2181 C2177 1.376 . S
C2181 C2180 1.392 . S
C2181 H2193 0.929 . S
C2182 C2178 1.531 . S
C2182 H2194 0.960 . S
C2182 H2195 0.962 . S
C2182 H2196 0.960 . S
C2183 C2180 1.511 . S
C2183 H2197 0.961 . S
C2183 H2198 0.961 . S
C2183 H2199 0.961 . S
C2184 C2185 1.370 . S
C2184 C2186 1.363 . S
C2184 H2200 0.931 . S
C2185 C2184 1.370 . S
C2185 C2189 1.408 . S
C2186 C2184 1.363 . S
C2186 C2187 1.370 . S
C2186 C2190 1.524 . S
C2187 C2179 1.503 . S
C2187 C2186 1.370 . S
C2187 C2188 1.403 . S
C2188 C2187 1.403 . S
C2188 C2189 1.404 . S
C2188 C2191 1.539 . S
C2189 C2185 1.408 . S
C2189 C2188 1.404 . S
C2189 H2201 0.930 . S
C2190 C2186 1.524 . S
C2190 H2202 0.956 . S
C2190 H2203 0.961 . S
C2190 H2204 0.961 . S
C2191 C2188 1.539 . S
C2191 H2205 0.958 . S
C2191 H2206 0.961 . S
C2191 H2207 0.960 . S
H2192 C2176 0.931 . S
H2193 C2181 0.929 . S
H2194 C2182 0.960 . S
H2195 C2182 0.962 . S
H2196 C2182 0.960 . S
H2197 C2183 0.961 . S
H2198 C2183 0.961 . S
H2199 C2183 0.961 . S
H2200 C2184 0.931 . S
H2201 C2189 0.930 . S
H2202 C2190 0.956 . S
H2203 C2190 0.961 . S
H2204 C2190 0.961 . S
H2205 C2191 0.958 . S
H2206 C2191 0.961 . S
H2207 C2191 0.960 . S
C2208 C2209 1.391 . S
C2208 C2210 1.394 . S
C2208 H2224 0.931 . S
C2209 C2208 1.391 . S
C2209 C2213 1.376 . S
C2210 C2208 1.394 . S
C2210 C2211 1.369 . S
C2210 C2214 1.531 . S
C2211 C2210 1.369 . S
C2211 C2212 1.410 . S
C2211 C2219 1.503 . S
C2212 C2211 1.410 . S
C2212 C2213 1.392 . S
C2212 C2215 1.511 . S
C2213 C2209 1.376 . S
C2213 C2212 1.392 . S
C2213 H2225 0.929 . S
C2214 C2210 1.531 . S
C2214 H2226 0.960 . S
C2214 H2227 0.962 . S
C2214 H2228 0.960 . S
C2215 C2212 1.511 . S
C2215 H2229 0.961 . S
C2215 H2230 0.961 . S
C2215 H2231 0.961 . S
C2216 C2217 1.370 . S
C2216 C2218 1.363 . S
C2216 H2232 0.931 . S
C2217 C2216 1.370 . S
C2217 C2221 1.408 1_554 S
C2218 C2216 1.363 . S
C2218 C2219 1.370 1_554 S
C2218 C2222 1.524 . S
C2219 C2211 1.503 . S
C2219 C2218 1.370 1_556 S
C2219 C2220 1.403 . S
C2220 C2219 1.403 . S
C2220 C2221 1.404 . S
C2220 C2223 1.539 . S
C2221 C2217 1.408 1_556 S
C2221 C2220 1.404 . S
C2221 H2233 0.930 . S
C2222 C2218 1.524 . S
C2222 H2234 0.956 . S
C2222 H2235 0.961 . S
C2222 H2236 0.961 . S
C2223 C2220 1.539 . S
C2223 H2237 0.958 . S
C2223 H2238 0.961 . S
C2223 H2239 0.960 . S
H2224 C2208 0.931 . S
H2225 C2213 0.929 . S
H2226 C2214 0.960 . S
H2227 C2214 0.962 . S
H2228 C2214 0.960 . S
H2229 C2215 0.961 . S
H2230 C2215 0.961 . S
H2231 C2215 0.961 . S
H2232 C2216 0.931 . S
H2233 C2221 0.930 . S
H2234 C2222 0.956 . S
H2235 C2222 0.961 . S
H2236 C2222 0.961 . S
H2237 C2223 0.958 . S
H2238 C2223 0.961 . S
H2239 C2223 0.960 . S
C2240 C2241 1.391 . S
C2240 C2242 1.394 . S
C2240 H2256 0.931 . S
C2241 C2240 1.391 . S
C2241 C2245 1.376 . S
C2242 C2240 1.394 . S
C2242 C2243 1.369 . S
C2242 C2246 1.531 . S
C2243 C2242 1.369 . S
C2243 C2244 1.410 . S
C2243 C2251 1.503 . S
C2244 C2243 1.410 . S
C2244 C2245 1.392 . S
C2244 C2247 1.511 . S
C2245 C2241 1.376 . S
C2245 C2244 1.392 . S
C2245 H2257 0.929 . S
C2246 C2242 1.531 . S
C2246 H2258 0.960 . S
C2246 H2259 0.962 . S
C2246 H2260 0.960 . S
C2247 C2244 1.511 . S
C2247 H2261 0.961 . S
C2247 H2262 0.961 . S
C2247 H2263 0.961 . S
C2248 C2249 1.370 . S
C2248 C2250 1.363 . S
C2248 H2264 0.931 . S
C2249 C2248 1.370 . S
C2249 C2253 1.408 . S
C2250 C2248 1.363 . S
C2250 C2251 1.370 . S
C2250 C2254 1.524 . S
C2251 C2243 1.503 . S
C2251 C2250 1.370 . S
C2251 C2252 1.403 . S
C2252 C2251 1.403 . S
C2252 C2253 1.404 . S
C2252 C2255 1.539 . S
C2253 C2249 1.408 . S
C2253 C2252 1.404 . S
C2253 H2265 0.930 . S
C2254 C2250 1.524 . S
C2254 H2266 0.956 . S
C2254 H2267 0.961 . S
C2254 H2268 0.961 . S
C2255 C2252 1.539 . S
C2255 H2269 0.958 . S
C2255 H2270 0.961 . S
C2255 H2271 0.960 . S
H2256 C2240 0.931 . S
H2257 C2245 0.929 . S
H2258 C2246 0.960 . S
H2259 C2246 0.962 . S
H2260 C2246 0.960 . S
H2261 C2247 0.961 . S
H2262 C2247 0.961 . S
H2263 C2247 0.961 . S
H2264 C2248 0.931 . S
H2265 C2253 0.930 . S
H2266 C2254 0.956 . S
H2267 C2254 0.961 . S
H2268 C2254 0.961 . S
H2269 C2255 0.958 . S
H2270 C2255 0.961 . S
H2271 C2255 0.960 . S
C2272 C2273 1.391 . S
C2272 C2274 1.394 . S
C2272 H2288 0.931 . S
C2273 C2272 1.391 . S
C2273 C2277 1.376 . S
C2274 C2272 1.394 . S
C2274 C2275 1.369 . S
C2274 C2278 1.531 . S
C2275 C2274 1.369 . S
C2275 C2276 1.410 . S
C2275 C2283 1.503 . S
C2276 C2275 1.410 . S
C2276 C2277 1.392 . S
C2276 C2279 1.511 . S
C2277 C2273 1.376 . S
C2277 C2276 1.392 . S
C2277 H2289 0.929 . S
C2278 C2274 1.531 . S
C2278 H2290 0.960 . S
C2278 H2291 0.962 . S
C2278 H2292 0.960 . S
C2279 C2276 1.511 . S
C2279 H2293 0.961 . S
C2279 H2294 0.961 . S
C2279 H2295 0.961 . S
C2280 C2281 1.370 . S
C2280 C2282 1.363 . S
C2280 H2296 0.931 . S
C2281 C2280 1.370 . S
C2281 C2285 1.408 . S
C2282 C2280 1.363 . S
C2282 C2283 1.370 . S
C2282 C2286 1.524 . S
C2283 C2275 1.503 . S
C2283 C2282 1.370 . S
C2283 C2284 1.403 . S
C2284 C2283 1.403 . S
C2284 C2285 1.404 . S
C2284 C2287 1.539 . S
C2285 C2281 1.408 . S
C2285 C2284 1.404 . S
C2285 H2297 0.930 . S
C2286 C2282 1.524 . S
C2286 H2298 0.956 . S
C2286 H2299 0.961 . S
C2286 H2300 0.961 . S
C2287 C2284 1.539 . S
C2287 H2301 0.958 . S
C2287 H2302 0.961 . S
C2287 H2303 0.960 . S
H2288 C2272 0.931 . S
H2289 C2277 0.929 . S
H2290 C2278 0.960 . S
H2291 C2278 0.962 . S
H2292 C2278 0.960 . S
H2293 C2279 0.961 . S
H2294 C2279 0.961 . S
H2295 C2279 0.961 . S
H2296 C2280 0.931 . S
H2297 C2285 0.930 . S
H2298 C2286 0.956 . S
H2299 C2286 0.961 . S
H2300 C2286 0.961 . S
H2301 C2287 0.958 . S
H2302 C2287 0.961 . S
H2303 C2287 0.960 . S
C2304 C2305 1.391 . S
C2304 C2306 1.394 . S
C2304 H2320 0.931 . S
C2305 C2304 1.391 . S
C2305 C2309 1.376 . S
C2306 C2304 1.394 . S
C2306 C2307 1.369 . S
C2306 C2310 1.531 . S
C2307 C2306 1.369 . S
C2307 C2308 1.410 . S
C2307 C2315 1.503 . S
C2308 C2307 1.410 . S
C2308 C2309 1.392 . S
C2308 C2311 1.511 . S
C2309 C2305 1.376 . S
C2309 C2308 1.392 . S
C2309 H2321 0.929 . S
C2310 C2306 1.531 . S
C2310 H2322 0.960 . S
C2310 H2323 0.962 . S
C2310 H2324 0.960 . S
C2311 C2308 1.511 . S
C2311 H2325 0.961 . S
C2311 H2326 0.961 . S
C2311 H2327 0.961 . S
C2312 C2313 1.370 . S
C2312 C2314 1.363 . S
C2312 H2328 0.931 . S
C2313 C2312 1.370 . S
C2313 C2317 1.408 . S
C2314 C2312 1.363 . S
C2314 C2315 1.370 . S
C2314 C2318 1.524 . S
C2315 C2307 1.503 . S
C2315 C2314 1.370 . S
C2315 C2316 1.403 . S
C2316 C2315 1.403 . S
C2316 C2317 1.404 . S
C2316 C2319 1.539 . S
C2317 C2313 1.408 . S
C2317 C2316 1.404 . S
C2317 H2329 0.930 . S
C2318 C2314 1.524 . S
C2318 H2330 0.956 . S
C2318 H2331 0.961 . S
C2318 H2332 0.961 . S
C2319 C2316 1.539 . S
C2319 H2333 0.958 . S
C2319 H2334 0.961 . S
C2319 H2335 0.960 . S
H2320 C2304 0.931 . S
H2321 C2309 0.929 . S
H2322 C2310 0.960 . S
H2323 C2310 0.962 . S
H2324 C2310 0.960 . S
H2325 C2311 0.961 . S
H2326 C2311 0.961 . S
H2327 C2311 0.961 . S
H2328 C2312 0.931 . S
H2329 C2317 0.930 . S
H2330 C2318 0.956 . S
H2331 C2318 0.961 . S
H2332 C2318 0.961 . S
H2333 C2319 0.958 . S
H2334 C2319 0.961 . S
H2335 C2319 0.960 . S
C2336 C2337 1.391 . S
C2336 C2338 1.394 . S
C2336 H2352 0.931 . S
C2337 C2336 1.391 . S
C2337 C2341 1.376 . S
C2338 C2336 1.394 . S
C2338 C2339 1.369 . S
C2338 C2342 1.531 . S
C2339 C2338 1.369 . S
C2339 C2340 1.410 . S
C2339 C2347 1.503 . S
C2340 C2339 1.410 . S
C2340 C2341 1.392 . S
C2340 C2343 1.511 . S
C2341 C2337 1.376 . S
C2341 C2340 1.392 . S
C2341 H2353 0.929 . S
C2342 C2338 1.531 . S
C2342 H2354 0.960 1_455 S
C2342 H2355 0.960 . S
C2342 H2356 0.960 . S
C2343 C2340 1.511 . S
C2343 H2357 0.961 . S
C2343 H2358 0.961 . S
C2343 H2359 0.961 . S
C2344 C2345 1.370 . S
C2344 C2346 1.363 1_655 S
C2344 H2360 0.931 . S
C2345 C2344 1.370 . S
C2345 C2349 1.408 . S
C2346 C2344 1.363 1_455 S
C2346 C2347 1.370 . S
C2346 C2350 1.524 . S
C2347 C2339 1.503 . S
C2347 C2346 1.370 . S
C2347 C2348 1.405 . S
C2348 C2347 1.405 . S
C2348 C2349 1.399 1_455 S
C2348 C2351 1.541 . S
C2349 C2345 1.408 . S
C2349 C2348 1.399 1_655 S
C2349 H2361 0.930 . S
C2350 C2346 1.524 . S
C2350 H2362 0.956 . S
C2350 H2363 0.961 . S
C2350 H2364 0.961 . S
C2351 C2348 1.541 . S
C2351 H2365 0.958 . S
C2351 H2366 0.961 . S
C2351 H2367 0.960 . S
H2352 C2336 0.931 . S
H2353 C2341 0.929 . S
H2354 C2342 0.960 1_655 S
H2355 C2342 0.960 . S
H2356 C2342 0.960 . S
H2357 C2343 0.961 . S
H2358 C2343 0.961 . S
H2359 C2343 0.961 . S
H2360 C2344 0.931 . S
H2361 C2349 0.930 . S
H2362 C2350 0.956 . S
H2363 C2350 0.961 . S
H2364 C2350 0.961 . S
H2365 C2351 0.958 . S
H2366 C2351 0.961 . S
H2367 C2351 0.960 . S
C2368 C2369 1.391 . S
C2368 C2370 1.394 . S
C2368 H2384 0.931 . S
C2369 C2368 1.391 . S
C2369 C2373 1.376 . S
C2370 C2368 1.394 . S
C2370 C2371 1.369 . S
C2370 C2374 1.531 . S
C2371 C2370 1.369 . S
C2371 C2372 1.410 . S
C2371 C2379 1.503 . S
C2372 C2371 1.410 . S
C2372 C2373 1.392 . S
C2372 C2375 1.511 . S
C2373 C2369 1.376 . S
C2373 C2372 1.392 . S
C2373 H2385 0.929 . S
C2374 C2370 1.531 . S
C2374 H2386 0.960 . S
C2374 H2387 0.962 . S
C2374 H2388 0.960 . S
C2375 C2372 1.511 . S
C2375 H2389 0.961 . S
C2375 H2390 0.961 . S
C2375 H2391 0.961 . S
C2376 C2377 1.370 . S
C2376 C2378 1.363 . S
C2376 H2392 0.931 . S
C2377 C2376 1.370 . S
C2377 C2381 1.408 . S
C2378 C2376 1.363 . S
C2378 C2379 1.370 . S
C2378 C2382 1.524 . S
C2379 C2371 1.503 . S
C2379 C2378 1.370 . S
C2379 C2380 1.403 . S
C2380 C2379 1.403 . S
C2380 C2381 1.404 . S
C2380 C2383 1.539 . S
C2381 C2377 1.408 . S
C2381 C2380 1.404 . S
C2381 H2393 0.930 . S
C2382 C2378 1.524 . S
C2382 H2394 0.956 . S
C2382 H2395 0.961 . S
C2382 H2396 0.961 . S
C2383 C2380 1.539 . S
C2383 H2397 0.958 . S
C2383 H2398 0.961 . S
C2383 H2399 0.960 . S
H2384 C2368 0.931 . S
H2385 C2373 0.929 . S
H2386 C2374 0.960 . S
H2387 C2374 0.962 . S
H2388 C2374 0.960 . S
H2389 C2375 0.961 . S
H2390 C2375 0.961 . S
H2391 C2375 0.961 . S
H2392 C2376 0.931 . S
H2393 C2381 0.930 . S
H2394 C2382 0.956 . S
H2395 C2382 0.961 . S
H2396 C2382 0.961 . S
H2397 C2383 0.958 . S
H2398 C2383 0.961 . S
H2399 C2383 0.960 . S
C2400 C2401 1.391 . S
C2400 C2402 1.394 . S
C2400 H2416 0.931 . S
C2401 C2400 1.391 . S
C2401 C2405 1.376 . S
C2402 C2400 1.394 . S
C2402 C2403 1.369 . S
C2402 C2406 1.531 . S
C2403 C2402 1.369 . S
C2403 C2404 1.410 . S
C2403 C2411 1.503 . S
C2404 C2403 1.410 . S
C2404 C2405 1.392 . S
C2404 C2407 1.511 . S
C2405 C2401 1.376 . S
C2405 C2404 1.392 . S
C2405 H2417 0.929 . S
C2406 C2402 1.531 . S
C2406 H2418 0.960 . S
C2406 H2419 0.962 . S
C2406 H2420 0.960 . S
C2407 C2404 1.511 . S
C2407 H2421 0.961 . S
C2407 H2422 0.961 . S
C2407 H2423 0.961 . S
C2408 C2409 1.370 . S
C2408 C2410 1.363 . S
C2408 H2424 0.931 . S
C2409 C2408 1.370 . S
C2409 C2413 1.408 . S
C2410 C2408 1.363 . S
C2410 C2411 1.370 . S
C2410 C2414 1.524 . S
C2411 C2403 1.503 . S
C2411 C2410 1.370 . S
C2411 C2412 1.403 . S
C2412 C2411 1.403 . S
C2412 C2413 1.404 . S
C2412 C2415 1.539 . S
C2413 C2409 1.408 . S
C2413 C2412 1.404 . S
C2413 H2425 0.930 . S
C2414 C2410 1.524 . S
C2414 H2426 0.956 . S
C2414 H2427 0.961 . S
C2414 H2428 0.961 . S
C2415 C2412 1.539 . S
C2415 H2429 0.958 . S
C2415 H2430 0.961 . S
C2415 H2431 0.960 . S
H2416 C2400 0.931 . S
H2417 C2405 0.929 . S
H2418 C2406 0.960 . S
H2419 C2406 0.962 . S
H2420 C2406 0.960 . S
H2421 C2407 0.961 . S
H2422 C2407 0.961 . S
H2423 C2407 0.961 . S
H2424 C2408 0.931 . S
H2425 C2413 0.930 . S
H2426 C2414 0.956 . S
H2427 C2414 0.961 . S
H2428 C2414 0.961 . S
H2429 C2415 0.958 . S
H2430 C2415 0.961 . S
H2431 C2415 0.960 . S
C2432 C2433 1.391 . S
C2432 C2434 1.394 . S
C2432 H2448 0.931 . S
C2433 C2432 1.391 . S
C2433 C2437 1.376 . S
C2434 C2432 1.394 . S
C2434 C2435 1.369 . S
C2434 C2438 1.531 . S
C2435 C2434 1.369 . S
C2435 C2436 1.410 . S
C2435 C2443 1.503 . S
C2436 C2435 1.410 . S
C2436 C2437 1.392 . S
C2436 C2439 1.511 . S
C2437 C2433 1.376 . S
C2437 C2436 1.392 . S
C2437 H2449 0.929 . S
C2438 C2434 1.531 . S
C2438 H2450 0.960 . S
C2438 H2451 0.962 . S
C2438 H2452 0.960 . S
C2439 C2436 1.511 . S
C2439 H2453 0.961 . S
C2439 H2454 0.961 . S
C2439 H2455 0.961 . S
C2440 C2441 1.370 . S
C2440 C2442 1.363 . S
C2440 H2456 0.931 . S
C2441 C2440 1.370 . S
C2441 C2445 1.408 . S
C2442 C2440 1.363 . S
C2442 C2443 1.370 . S
C2442 C2446 1.524 . S
C2443 C2435 1.503 . S
C2443 C2442 1.370 . S
C2443 C2444 1.403 . S
C2444 C2443 1.403 . S
C2444 C2445 1.404 . S
C2444 C2447 1.539 . S
C2445 C2441 1.408 . S
C2445 C2444 1.404 . S
C2445 H2457 0.930 . S
C2446 C2442 1.524 . S
C2446 H2458 0.956 . S
C2446 H2459 0.961 . S
C2446 H2460 0.961 . S
C2447 C2444 1.539 . S
C2447 H2461 0.958 . S
C2447 H2462 0.961 . S
C2447 H2463 0.960 . S
H2448 C2432 0.931 . S
H2449 C2437 0.929 . S
H2450 C2438 0.960 . S
H2451 C2438 0.962 . S
H2452 C2438 0.960 . S
H2453 C2439 0.961 . S
H2454 C2439 0.961 . S
H2455 C2439 0.961 . S
H2456 C2440 0.931 . S
H2457 C2445 0.930 . S
H2458 C2446 0.956 . S
H2459 C2446 0.961 . S
H2460 C2446 0.961 . S
H2461 C2447 0.958 . S
H2462 C2447 0.961 . S
H2463 C2447 0.960 . S
C2464 C2465 1.391 . S
C2464 C2466 1.394 . S
C2464 H2480 0.931 . S
C2465 C2464 1.391 . S
C2465 C2469 1.376 . S
C2466 C2464 1.394 . S
C2466 C2467 1.369 . S
C2466 C2470 1.531 . S
C2467 C2466 1.369 . S
C2467 C2468 1.410 . S
C2467 C2475 1.503 . S
C2468 C2467 1.410 . S
C2468 C2469 1.392 . S
C2468 C2471 1.511 . S
C2469 C2465 1.376 . S
C2469 C2468 1.392 . S
C2469 H2481 0.929 . S
C2470 C2466 1.531 . S
C2470 H2482 0.960 . S
C2470 H2483 0.962 . S
C2470 H2484 0.960 . S
C2471 C2468 1.511 . S
C2471 H2485 0.961 . S
C2471 H2486 0.961 . S
C2471 H2487 0.961 . S
C2472 C2473 1.370 . S
C2472 C2474 1.363 . S
C2472 H2488 0.931 . S
C2473 C2472 1.370 . S
C2473 C2477 1.408 . S
C2474 C2472 1.363 . S
C2474 C2475 1.370 . S
C2474 C2478 1.524 . S
C2475 C2467 1.503 . S
C2475 C2474 1.370 . S
C2475 C2476 1.403 . S
C2476 C2475 1.403 . S
C2476 C2477 1.404 . S
C2476 C2479 1.539 . S
C2477 C2473 1.408 . S
C2477 C2476 1.404 . S
C2477 H2489 0.930 . S
C2478 C2474 1.524 . S
C2478 H2490 0.956 . S
C2478 H2491 0.961 . S
C2478 H2492 0.961 . S
C2479 C2476 1.539 . S
C2479 H2493 0.958 . S
C2479 H2494 0.961 . S
C2479 H2495 0.960 . S
H2480 C2464 0.931 . S
H2481 C2469 0.929 . S
H2482 C2470 0.960 . S
H2483 C2470 0.962 . S
H2484 C2470 0.960 . S
H2485 C2471 0.961 . S
H2486 C2471 0.961 . S
H2487 C2471 0.961 . S
H2488 C2472 0.931 . S
H2489 C2477 0.930 . S
H2490 C2478 0.956 . S
H2491 C2478 0.961 . S
H2492 C2478 0.961 . S
H2493 C2479 0.958 . S
H2494 C2479 0.961 . S
H2495 C2479 0.960 . S
C2496 C2497 1.391 . S
C2496 C2498 1.394 . S
C2496 H2512 0.931 . S
C2497 C2496 1.391 . S
C2497 C2501 1.376 . S
C2498 C2496 1.394 . S
C2498 C2499 1.369 . S
C2498 C2502 1.531 . S
C2499 C2498 1.369 . S
C2499 C2500 1.410 . S
C2499 C2507 1.503 . S
C2500 C2499 1.410 . S
C2500 C2501 1.392 . S
C2500 C2503 1.511 . S
C2501 C2497 1.376 . S
C2501 C2500 1.392 . S
C2501 H2513 0.929 . S
C2502 C2498 1.531 . S
C2502 H2514 0.960 . S
C2502 H2515 0.962 . S
C2502 H2516 0.960 . S
C2503 C2500 1.511 . S
C2503 H2517 0.961 . S
C2503 H2518 0.961 . S
C2503 H2519 0.961 . S
C2504 C2505 1.370 . S
C2504 C2506 1.363 . S
C2504 H2520 0.931 . S
C2505 C2504 1.370 . S
C2505 C2509 1.408 . S
C2506 C2504 1.363 . S
C2506 C2507 1.370 . S
C2506 C2510 1.524 . S
C2507 C2499 1.503 . S
C2507 C2506 1.370 . S
C2507 C2508 1.403 . S
C2508 C2507 1.403 . S
C2508 C2509 1.404 . S
C2508 C2511 1.539 . S
C2509 C2505 1.408 . S
C2509 C2508 1.404 . S
C2509 H2521 0.930 . S
C2510 C2506 1.524 . S
C2510 H2522 0.956 . S
C2510 H2523 0.961 . S
C2510 H2524 0.961 . S
C2511 C2508 1.539 . S
C2511 H2525 0.958 . S
C2511 H2526 0.961 . S
C2511 H2527 0.960 . S
H2512 C2496 0.931 . S
H2513 C2501 0.929 . S
H2514 C2502 0.960 . S
H2515 C2502 0.962 . S
H2516 C2502 0.960 . S
H2517 C2503 0.961 . S
H2518 C2503 0.961 . S
H2519 C2503 0.961 . S
H2520 C2504 0.931 . S
H2521 C2509 0.930 . S
H2522 C2510 0.956 . S
H2523 C2510 0.961 . S
H2524 C2510 0.961 . S
H2525 C2511 0.958 . S
H2526 C2511 0.961 . S
H2527 C2511 0.960 . S
C2528 C2529 1.391 . S
C2528 C2530 1.394 . S
C2528 H2544 0.931 . S
C2529 C2528 1.391 . S
C2529 C2533 1.376 . S
C2530 C2528 1.394 . S
C2530 C2531 1.369 . S
C2530 C2534 1.531 . S
C2531 C2530 1.369 . S
C2531 C2532 1.410 . S
C2531 C2539 1.503 . S
C2532 C2531 1.410 . S
C2532 C2533 1.392 . S
C2532 C2535 1.511 . S
C2533 C2529 1.376 . S
C2533 C2532 1.392 . S
C2533 H2545 0.929 . S
C2534 C2530 1.531 . S
C2534 H2546 0.960 . S
C2534 H2547 0.962 . S
C2534 H2548 0.960 . S
C2535 C2532 1.511 . S
C2535 H2549 0.961 . S
C2535 H2550 0.961 . S
C2535 H2551 0.961 . S
C2536 C2537 1.370 . S
C2536 C2538 1.363 . S
C2536 H2552 0.931 . S
C2537 C2536 1.370 . S
C2537 C2541 1.408 . S
C2538 C2536 1.363 . S
C2538 C2539 1.370 1_655 S
C2538 C2542 1.524 . S
C2539 C2531 1.503 . S
C2539 C2538 1.370 1_455 S
C2539 C2540 1.403 . S
C2540 C2539 1.403 . S
C2540 C2541 1.404 1_455 S
C2540 C2543 1.539 . S
C2541 C2537 1.408 . S
C2541 C2540 1.404 1_655 S
C2541 H2553 0.930 . S
C2542 C2538 1.524 . S
C2542 H2554 0.956 . S
C2542 H2555 0.977 . S
C2542 H2556 0.961 . S
C2543 C2540 1.539 . S
C2543 H2557 0.958 . S
C2543 H2558 0.961 . S
C2543 H2559 0.960 . S
H2544 C2528 0.931 . S
H2545 C2533 0.929 . S
H2546 C2534 0.960 . S
H2547 C2534 0.962 . S
H2548 C2534 0.960 . S
H2549 C2535 0.961 . S
H2550 C2535 0.961 . S
H2551 C2535 0.961 . S
H2552 C2536 0.931 . S
H2553 C2541 0.930 . S
H2554 C2542 0.956 . S
H2555 C2542 0.977 . S
H2556 C2542 0.961 . S
H2557 C2543 0.958 . S
H2558 C2543 0.961 . S
H2559 C2543 0.960 . S
C2560 C2561 1.391 . S
C2560 C2562 1.394 . S
C2560 H2576 0.931 . S
C2561 C2560 1.391 . S
C2561 C2565 1.376 . S
C2562 C2560 1.394 . S
C2562 C2563 1.369 . S
C2562 C2566 1.531 . S
C2563 C2562 1.369 . S
C2563 C2564 1.410 . S
C2563 C2571 1.503 . S
C2564 C2563 1.410 . S
C2564 C2565 1.392 . S
C2564 C2567 1.511 . S
C2565 C2561 1.376 . S
C2565 C2564 1.392 . S
C2565 H2577 0.929 . S
C2566 C2562 1.531 . S
C2566 H2578 0.960 . S
C2566 H2579 0.962 . S
C2566 H2580 0.960 . S
C2567 C2564 1.511 . S
C2567 H2581 0.961 . S
C2567 H2582 0.961 . S
C2567 H2583 0.961 . S
C2568 C2569 1.370 . S
C2568 C2570 1.363 . S
C2568 H2584 0.931 . S
C2569 C2568 1.370 . S
C2569 C2573 1.408 . S
C2570 C2568 1.363 . S
C2570 C2571 1.370 . S
C2570 C2574 1.524 . S
C2571 C2563 1.503 . S
C2571 C2570 1.370 . S
C2571 C2572 1.403 . S
C2572 C2571 1.403 . S
C2572 C2573 1.404 . S
C2572 C2575 1.539 . S
C2573 C2569 1.408 . S
C2573 C2572 1.404 . S
C2573 H2585 0.930 . S
C2574 C2570 1.524 . S
C2574 H2586 0.956 . S
C2574 H2587 0.961 . S
C2574 H2588 0.961 . S
C2575 C2572 1.539 . S
C2575 H2589 0.958 . S
C2575 H2590 0.961 . S
C2575 H2591 0.960 . S
H2576 C2560 0.931 . S
H2577 C2565 0.929 . S
H2578 C2566 0.960 . S
H2579 C2566 0.962 . S
H2580 C2566 0.960 . S
H2581 C2567 0.961 . S
H2582 C2567 0.961 . S
H2583 C2567 0.961 . S
H2584 C2568 0.931 . S
H2585 C2573 0.930 . S
H2586 C2574 0.956 . S
H2587 C2574 0.961 . S
H2588 C2574 0.961 . S
H2589 C2575 0.958 . S
H2590 C2575 0.961 . S
H2591 C2575 0.960 . S
C2592 C2593 1.391 . S
C2592 C2594 1.394 1_455 S
C2592 H2608 0.931 . S
C2593 C2592 1.391 . S
C2593 C2597 1.376 . S
C2594 C2592 1.394 1_655 S
C2594 C2595 1.369 . S
C2594 C2598 1.531 . S
C2595 C2594 1.369 . S
C2595 C2596 1.410 1_655 S
C2595 C2603 1.503 . S
C2596 C2595 1.410 1_455 S
C2596 C2597 1.392 . S
C2596 C2599 1.511 1_455 S
C2597 C2593 1.376 . S
C2597 C2596 1.392 . S
C2597 H2609 0.929 . S
C2598 C2594 1.531 . S
C2598 H2610 0.960 . S
C2598 H2611 0.962 . S
C2598 H2612 0.960 . S
C2599 C2596 1.511 1_655 S
C2599 H2613 0.961 1_655 S
C2599 H2614 0.961 . S
C2599 H2615 0.961 . S
C2600 C2601 1.370 . S
C2600 C2602 1.363 . S
C2600 H2616 0.931 . S
C2601 C2600 1.370 . S
C2601 C2605 1.408 . S
C2602 C2600 1.363 . S
C2602 C2603 1.370 . S
C2602 C2606 1.524 . S
C2603 C2595 1.503 . S
C2603 C2602 1.370 . S
C2603 C2604 1.403 . S
C2604 C2603 1.403 . S
C2604 C2605 1.404 . S
C2604 C2607 1.539 . S
C2605 C2601 1.408 . S
C2605 C2604 1.404 . S
C2605 H2617 0.930 . S
C2606 C2602 1.524 . S
C2606 H2618 0.956 . S
C2606 H2619 0.961 1_655 S
C2606 H2620 0.961 . S
C2607 C2604 1.539 . S
C2607 H2621 0.958 . S
C2607 H2622 0.961 . S
C2607 H2623 0.960 . S
H2608 C2592 0.931 . S
H2609 C2597 0.929 . S
H2610 C2598 0.960 . S
H2611 C2598 0.962 . S
H2612 C2598 0.960 . S
H2613 C2599 0.961 1_455 S
H2614 C2599 0.961 . S
H2615 C2599 0.961 . S
H2616 C2600 0.931 . S
H2617 C2605 0.930 . S
H2618 C2606 0.956 . S
H2619 C2606 0.961 1_455 S
H2620 C2606 0.961 . S
H2621 C2607 0.958 . S
H2622 C2607 0.961 . S
H2623 C2607 0.960 . S
C2624 C2625 1.391 . S
C2624 C2626 1.394 . S
C2624 H2640 0.931 . S
C2625 C2624 1.391 . S
C2625 C2629 1.376 . S
C2626 C2624 1.394 . S
C2626 C2627 1.369 . S
C2626 C2630 1.531 . S
C2627 C2626 1.369 . S
C2627 C2628 1.410 . S
C2627 C2635 1.503 . S
C2628 C2627 1.410 . S
C2628 C2629 1.392 . S
C2628 C2631 1.511 . S
C2629 C2625 1.376 . S
C2629 C2628 1.392 . S
C2629 H2641 0.929 . S
C2630 C2626 1.531 . S
C2630 H2642 0.960 . S
C2630 H2643 0.962 . S
C2630 H2644 0.960 . S
C2631 C2628 1.511 . S
C2631 H2645 0.961 . S
C2631 H2646 0.961 . S
C2631 H2647 0.961 . S
C2632 C2633 1.370 . S
C2632 C2634 1.363 . S
C2632 H2648 0.931 . S
C2633 C2632 1.370 . S
C2633 C2637 1.408 . S
C2634 C2632 1.363 . S
C2634 C2635 1.370 . S
C2634 C2638 1.524 . S
C2635 C2627 1.503 . S
C2635 C2634 1.370 . S
C2635 C2636 1.403 . S
C2636 C2635 1.403 . S
C2636 C2637 1.404 . S
C2636 C2639 1.539 . S
C2637 C2633 1.408 . S
C2637 C2636 1.404 . S
C2637 H2649 0.930 . S
C2638 C2634 1.524 . S
C2638 H2650 0.956 . S
C2638 H2651 0.961 . S
C2638 H2652 0.961 . S
C2639 C2636 1.539 . S
C2639 H2653 0.958 . S
C2639 H2654 0.961 . S
C2639 H2655 0.960 . S
H2640 C2624 0.931 . S
H2641 C2629 0.929 . S
H2642 C2630 0.960 . S
H2643 C2630 0.962 . S
H2644 C2630 0.960 . S
H2645 C2631 0.961 . S
H2646 C2631 0.961 . S
H2647 C2631 0.961 . S
H2648 C2632 0.931 . S
H2649 C2637 0.930 . S
H2650 C2638 0.956 . S
H2651 C2638 0.961 . S
H2652 C2638 0.961 . S
H2653 C2639 0.958 . S
H2654 C2639 0.961 . S
H2655 C2639 0.960 . S
C2656 C2657 1.391 . S
C2656 C2658 1.394 . S
C2656 H2672 0.931 . S
C2657 C2656 1.391 . S
C2657 C2661 1.376 . S
C2658 C2656 1.394 . S
C2658 C2659 1.369 . S
C2658 C2662 1.531 . S
C2659 C2658 1.369 . S
C2659 C2660 1.410 . S
C2659 C2667 1.503 . S
C2660 C2659 1.410 . S
C2660 C2661 1.392 . S
C2660 C2663 1.511 . S
C2661 C2657 1.376 . S
C2661 C2660 1.392 . S
C2661 H2673 0.929 . S
C2662 C2658 1.531 . S
C2662 H2674 0.960 . S
C2662 H2675 0.962 . S
C2662 H2676 0.960 . S
C2663 C2660 1.511 . S
C2663 H2677 0.961 . S
C2663 H2678 0.961 . S
C2663 H2679 0.961 . S
C2664 C2665 1.370 . S
C2664 C2666 1.363 . S
C2664 H2680 0.931 . S
C2665 C2664 1.370 . S
C2665 C2669 1.408 . S
C2666 C2664 1.363 . S
C2666 C2667 1.370 . S
C2666 C2670 1.524 . S
C2667 C2659 1.503 . S
C2667 C2666 1.370 . S
C2667 C2668 1.403 . S
C2668 C2667 1.403 . S
C2668 C2669 1.404 . S
C2668 C2671 1.539 . S
C2669 C2665 1.408 . S
C2669 C2668 1.404 . S
C2669 H2681 0.930 . S
C2670 C2666 1.524 . S
C2670 H2682 0.956 . S
C2670 H2683 0.961 . S
C2670 H2684 0.961 . S
C2671 C2668 1.539 . S
C2671 H2685 0.958 . S
C2671 H2686 0.961 . S
C2671 H2687 0.960 . S
H2672 C2656 0.931 . S
H2673 C2661 0.929 . S
H2674 C2662 0.960 . S
H2675 C2662 0.962 . S
H2676 C2662 0.960 . S
H2677 C2663 0.961 . S
H2678 C2663 0.961 . S
H2679 C2663 0.961 . S
H2680 C2664 0.931 . S
H2681 C2669 0.930 . S
H2682 C2670 0.956 . S
H2683 C2670 0.961 . S
H2684 C2670 0.961 . S
H2685 C2671 0.958 . S
H2686 C2671 0.961 . S
H2687 C2671 0.960 . S
C2688 C2689 1.391 . S
C2688 C2690 1.394 . S
C2688 H2704 0.931 . S
C2689 C2688 1.391 . S
C2689 C2693 1.376 . S
C2690 C2688 1.394 . S
C2690 C2691 1.369 . S
C2690 C2694 1.531 . S
C2691 C2690 1.369 . S
C2691 C2692 1.410 . S
C2691 C2699 1.503 . S
C2692 C2691 1.410 . S
C2692 C2693 1.392 . S
C2692 C2695 1.511 . S
C2693 C2689 1.376 . S
C2693 C2692 1.392 . S
C2693 H2705 0.929 . S
C2694 C2690 1.531 . S
C2694 H2706 0.960 . S
C2694 H2707 0.962 . S
C2694 H2708 0.960 . S
C2695 C2692 1.511 . S
C2695 H2709 0.961 . S
C2695 H2710 0.961 . S
C2695 H2711 0.961 . S
C2696 C2697 1.370 . S
C2696 C2698 1.363 . S
C2696 H2712 0.931 . S
C2697 C2696 1.370 . S
C2697 C2701 1.408 . S
C2698 C2696 1.363 . S
C2698 C2699 1.370 . S
C2698 C2702 1.524 . S
C2699 C2691 1.503 . S
C2699 C2698 1.370 . S
C2699 C2700 1.403 . S
C2700 C2699 1.403 . S
C2700 C2701 1.404 . S
C2700 C2703 1.539 . S
C2701 C2697 1.408 . S
C2701 C2700 1.404 . S
C2701 H2713 0.930 . S
C2702 C2698 1.524 . S
C2702 H2714 0.956 . S
C2702 H2715 0.961 . S
C2702 H2716 0.961 . S
C2703 C2700 1.539 . S
C2703 H2717 0.958 . S
C2703 H2718 0.961 . S
C2703 H2719 0.960 . S
H2704 C2688 0.931 . S
H2705 C2693 0.929 . S
H2706 C2694 0.960 . S
H2707 C2694 0.962 . S
H2708 C2694 0.960 . S
H2709 C2695 0.961 . S
H2710 C2695 0.961 . S
H2711 C2695 0.961 . S
H2712 C2696 0.931 . S
H2713 C2701 0.930 . S
H2714 C2702 0.956 . S
H2715 C2702 0.961 . S
H2716 C2702 0.961 . S
H2717 C2703 0.958 . S
H2718 C2703 0.961 . S
H2719 C2703 0.960 . S
C2720 C2721 1.391 . S
C2720 C2722 1.394 . S
C2720 H2736 0.931 . S
C2721 C2720 1.391 . S
C2721 C2725 1.376 . S
C2722 C2720 1.394 . S
C2722 C2723 1.369 . S
C2722 C2726 1.531 . S
C2723 C2722 1.369 . S
C2723 C2724 1.410 . S
C2723 C2731 1.503 . S
C2724 C2723 1.410 . S
C2724 C2725 1.392 . S
C2724 C2727 1.511 . S
C2725 C2721 1.376 . S
C2725 C2724 1.392 . S
C2725 H2737 0.929 . S
C2726 C2722 1.531 . S
C2726 H2738 0.960 . S
C2726 H2739 0.962 . S
C2726 H2740 0.960 . S
C2727 C2724 1.511 . S
C2727 H2741 0.961 . S
C2727 H2742 0.961 . S
C2727 H2743 0.961 . S
C2728 C2729 1.370 . S
C2728 C2730 1.363 . S
C2728 H2744 0.931 . S
C2729 C2728 1.370 . S
C2729 C2733 1.408 . S
C2730 C2728 1.363 . S
C2730 C2731 1.370 . S
C2730 C2734 1.524 . S
C2731 C2723 1.503 . S
C2731 C2730 1.370 . S
C2731 C2732 1.403 . S
C2732 C2731 1.403 . S
C2732 C2733 1.404 . S
C2732 C2735 1.539 . S
C2733 C2729 1.408 . S
C2733 C2732 1.404 . S
C2733 H2745 0.930 . S
C2734 C2730 1.524 . S
C2734 H2746 0.956 . S
C2734 H2747 0.961 . S
C2734 H2748 0.961 . S
C2735 C2732 1.539 . S
C2735 H2749 0.958 . S
C2735 H2750 0.961 . S
C2735 H2751 0.960 . S
H2736 C2720 0.931 . S
H2737 C2725 0.929 . S
H2738 C2726 0.960 . S
H2739 C2726 0.962 . S
H2740 C2726 0.960 . S
H2741 C2727 0.961 . S
H2742 C2727 0.961 . S
H2743 C2727 0.961 . S
H2744 C2728 0.931 . S
H2745 C2733 0.930 . S
H2746 C2734 0.956 . S
H2747 C2734 0.961 . S
H2748 C2734 0.961 . S
H2749 C2735 0.958 . S
H2750 C2735 0.961 . S
H2751 C2735 0.960 . S
C2752 C2753 1.391 . S
C2752 C2754 1.394 . S
C2752 H2768 0.931 . S
C2753 C2752 1.391 . S
C2753 C2757 1.376 . S
C2754 C2752 1.394 . S
C2754 C2755 1.369 . S
C2754 C2758 1.531 . S
C2755 C2754 1.369 . S
C2755 C2756 1.410 . S
C2755 C2763 1.503 . S
C2756 C2755 1.410 . S
C2756 C2757 1.392 . S
C2756 C2759 1.511 . S
C2757 C2753 1.376 . S
C2757 C2756 1.392 . S
C2757 H2769 0.929 . S
C2758 C2754 1.531 . S
C2758 H2770 0.960 . S
C2758 H2771 0.962 . S
C2758 H2772 0.960 . S
C2759 C2756 1.511 . S
C2759 H2773 0.961 . S
C2759 H2774 0.961 . S
C2759 H2775 0.961 . S
C2760 C2761 1.370 . S
C2760 C2762 1.363 . S
C2760 H2776 0.931 . S
C2761 C2760 1.370 . S
C2761 C2765 1.408 . S
C2762 C2760 1.363 . S
C2762 C2763 1.370 . S
C2762 C2766 1.524 . S
C2763 C2755 1.503 . S
C2763 C2762 1.370 . S
C2763 C2764 1.403 . S
C2764 C2763 1.403 . S
C2764 C2765 1.404 . S
C2764 C2767 1.539 . S
C2765 C2761 1.408 . S
C2765 C2764 1.404 . S
C2765 H2777 0.930 . S
C2766 C2762 1.524 . S
C2766 H2778 0.956 . S
C2766 H2779 0.961 . S
C2766 H2780 0.961 . S
C2767 C2764 1.539 . S
C2767 H2781 0.958 . S
C2767 H2782 0.961 . S
C2767 H2783 0.960 . S
H2768 C2752 0.931 . S
H2769 C2757 0.929 . S
H2770 C2758 0.960 . S
H2771 C2758 0.962 . S
H2772 C2758 0.960 . S
H2773 C2759 0.961 . S
H2774 C2759 0.961 . S
H2775 C2759 0.961 . S
H2776 C2760 0.931 . S
H2777 C2765 0.930 . S
H2778 C2766 0.956 . S
H2779 C2766 0.961 . S
H2780 C2766 0.961 . S
H2781 C2767 0.958 . S
H2782 C2767 0.961 . S
H2783 C2767 0.960 . S
C2784 C2785 1.391 . S
C2784 C2786 1.394 . S
C2784 H2800 0.931 . S
C2785 C2784 1.391 . S
C2785 C2789 1.376 . S
C2786 C2784 1.394 . S
C2786 C2787 1.369 . S
C2786 C2790 1.531 . S
C2787 C2786 1.369 . S
C2787 C2788 1.410 . S
C2787 C2795 1.503 . S
C2788 C2787 1.410 . S
C2788 C2789 1.392 . S
C2788 C2791 1.511 . S
C2789 C2785 1.376 . S
C2789 C2788 1.392 . S
C2789 H2801 0.929 . S
C2790 C2786 1.531 . S
C2790 H2802 0.960 . S
C2790 H2803 0.962 . S
C2790 H2804 0.960 . S
C2791 C2788 1.511 . S
C2791 H2805 0.961 . S
C2791 H2806 0.961 . S
C2791 H2807 0.961 . S
C2792 C2793 1.370 . S
C2792 C2794 1.363 . S
C2792 H2808 0.931 . S
C2793 C2792 1.370 . S
C2793 C2797 1.408 . S
C2794 C2792 1.363 . S
C2794 C2795 1.370 1_455 S
C2794 C2798 1.524 . S
C2795 C2787 1.503 . S
C2795 C2794 1.370 1_655 S
C2795 C2796 1.403 . S
C2796 C2795 1.403 . S
C2796 C2797 1.404 1_655 S
C2796 C2799 1.539 . S
C2797 C2793 1.408 . S
C2797 C2796 1.404 1_455 S
C2797 H2809 0.930 . S
C2798 C2794 1.524 . S
C2798 H2810 0.956 . S
C2798 H2811 0.968 . S
C2798 H2812 0.961 . S
C2799 C2796 1.539 . S
C2799 H2813 0.958 . S
C2799 H2814 0.961 . S
C2799 H2815 0.960 . S
H2800 C2784 0.931 . S
H2801 C2789 0.929 . S
H2802 C2790 0.960 . S
H2803 C2790 0.962 . S
H2804 C2790 0.960 . S
H2805 C2791 0.961 . S
H2806 C2791 0.961 . S
H2807 C2791 0.961 . S
H2808 C2792 0.931 . S
H2809 C2797 0.930 . S
H2810 C2798 0.956 . S
H2811 C2798 0.968 . S
H2812 C2798 0.961 . S
H2813 C2799 0.958 . S
H2814 C2799 0.961 . S
H2815 C2799 0.960 . S
C2816 C2817 1.391 . S
C2816 C2818 1.394 . S
C2816 H2832 0.931 . S
C2817 C2816 1.391 . S
C2817 C2821 1.376 . S
C2818 C2816 1.394 . S
C2818 C2819 1.369 . S
C2818 C2822 1.531 . S
C2819 C2818 1.369 . S
C2819 C2820 1.410 . S
C2819 C2827 1.503 . S
C2820 C2819 1.410 . S
C2820 C2821 1.392 . S
C2820 C2823 1.511 . S
C2821 C2817 1.376 . S
C2821 C2820 1.392 . S
C2821 H2833 0.929 . S
C2822 C2818 1.531 . S
C2822 H2834 0.960 . S
C2822 H2835 0.962 . S
C2822 H2836 0.960 . S
C2823 C2820 1.511 . S
C2823 H2837 0.961 . S
C2823 H2838 0.961 . S
C2823 H2839 0.961 . S
C2824 C2825 1.370 . S
C2824 C2826 1.363 . S
C2824 H2840 0.931 . S
C2825 C2824 1.370 . S
C2825 C2829 1.408 . S
C2826 C2824 1.363 . S
C2826 C2827 1.370 . S
C2826 C2830 1.524 . S
C2827 C2819 1.503 . S
C2827 C2826 1.370 . S
C2827 C2828 1.403 . S
C2828 C2827 1.403 . S
C2828 C2829 1.404 . S
C2828 C2831 1.539 . S
C2829 C2825 1.408 . S
C2829 C2828 1.404 . S
C2829 H2841 0.930 . S
C2830 C2826 1.524 . S
C2830 H2842 0.956 . S
C2830 H2843 0.961 . S
C2830 H2844 0.961 . S
C2831 C2828 1.539 . S
C2831 H2845 0.958 . S
C2831 H2846 0.961 . S
C2831 H2847 0.960 . S
H2832 C2816 0.931 . S
H2833 C2821 0.929 . S
H2834 C2822 0.960 . S
H2835 C2822 0.962 . S
H2836 C2822 0.960 . S
H2837 C2823 0.961 . S
H2838 C2823 0.961 . S
H2839 C2823 0.961 . S
H2840 C2824 0.931 . S
H2841 C2829 0.930 . S
H2842 C2830 0.956 . S
H2843 C2830 0.961 . S
H2844 C2830 0.961 . S
H2845 C2831 0.958 . S
H2846 C2831 0.961 . S
H2847 C2831 0.960 . S
C2848 C2849 1.391 . S
C2848 C2850 1.394 . S
C2848 H2864 0.931 . S
C2849 C2848 1.391 . S
C2849 C2853 1.376 . S
C2850 C2848 1.394 . S
C2850 C2851 1.369 . S
C2850 C2854 1.531 . S
C2851 C2850 1.369 . S
C2851 C2852 1.410 . S
C2851 C2859 1.503 . S
C2852 C2851 1.410 . S
C2852 C2853 1.392 . S
C2852 C2855 1.511 . S
C2853 C2849 1.376 . S
C2853 C2852 1.392 . S
C2853 H2865 0.929 . S
C2854 C2850 1.531 . S
C2854 H2866 0.960 . S
C2854 H2867 0.962 . S
C2854 H2868 0.960 . S
C2855 C2852 1.511 . S
C2855 H2869 0.961 . S
C2855 H2870 0.961 . S
C2855 H2871 0.961 . S
C2856 C2857 1.370 . S
C2856 C2858 1.363 . S
C2856 H2872 0.931 . S
C2857 C2856 1.370 . S
C2857 C2861 1.408 . S
C2858 C2856 1.363 . S
C2858 C2859 1.370 . S
C2858 C2862 1.524 . S
C2859 C2851 1.503 . S
C2859 C2858 1.370 . S
C2859 C2860 1.403 . S
C2860 C2859 1.403 . S
C2860 C2861 1.404 . S
C2860 C2863 1.539 . S
C2861 C2857 1.408 . S
C2861 C2860 1.404 . S
C2861 H2873 0.930 . S
C2862 C2858 1.524 . S
C2862 H2874 0.956 . S
C2862 H2875 0.961 . S
C2862 H2876 0.961 . S
C2863 C2860 1.539 . S
C2863 H2877 0.958 . S
C2863 H2878 0.961 . S
C2863 H2879 0.960 . S
H2864 C2848 0.931 . S
H2865 C2853 0.929 . S
H2866 C2854 0.960 . S
H2867 C2854 0.962 . S
H2868 C2854 0.960 . S
H2869 C2855 0.961 . S
H2870 C2855 0.961 . S
H2871 C2855 0.961 . S
H2872 C2856 0.931 . S
H2873 C2861 0.930 . S
H2874 C2862 0.956 . S
H2875 C2862 0.961 . S
H2876 C2862 0.961 . S
H2877 C2863 0.958 . S
H2878 C2863 0.961 . S
H2879 C2863 0.960 . S
C2880 C2881 1.391 . S
C2880 C2882 1.394 . S
C2880 H2896 0.931 . S
C2881 C2880 1.391 . S
C2881 C2885 1.376 . S
C2882 C2880 1.394 . S
C2882 C2883 1.369 . S
C2882 C2886 1.531 . S
C2883 C2882 1.369 . S
C2883 C2884 1.410 . S
C2883 C2891 1.503 . S
C2884 C2883 1.410 . S
C2884 C2885 1.392 . S
C2884 C2887 1.511 . S
C2885 C2881 1.376 . S
C2885 C2884 1.392 . S
C2885 H2897 0.929 . S
C2886 C2882 1.531 . S
C2886 H2898 0.960 . S
C2886 H2899 0.962 . S
C2886 H2900 0.960 . S
C2887 C2884 1.511 . S
C2887 H2901 0.961 . S
C2887 H2902 0.961 . S
C2887 H2903 0.961 . S
C2888 C2889 1.370 . S
C2888 C2890 1.363 . S
C2888 H2904 0.931 . S
C2889 C2888 1.370 . S
C2889 C2893 1.408 . S
C2890 C2888 1.363 . S
C2890 C2891 1.370 . S
C2890 C2894 1.524 . S
C2891 C2883 1.503 . S
C2891 C2890 1.370 . S
C2891 C2892 1.403 . S
C2892 C2891 1.403 . S
C2892 C2893 1.404 . S
C2892 C2895 1.539 . S
C2893 C2889 1.408 . S
C2893 C2892 1.404 . S
C2893 H2905 0.930 . S
C2894 C2890 1.524 . S
C2894 H2906 0.956 . S
C2894 H2907 0.961 . S
C2894 H2908 0.961 . S
C2895 C2892 1.539 . S
C2895 H2909 0.958 . S
C2895 H2910 0.961 . S
C2895 H2911 0.960 . S
H2896 C2880 0.931 . S
H2897 C2885 0.929 . S
H2898 C2886 0.960 . S
H2899 C2886 0.962 . S
H2900 C2886 0.960 . S
H2901 C2887 0.961 . S
H2902 C2887 0.961 . S
H2903 C2887 0.961 . S
H2904 C2888 0.931 . S
H2905 C2893 0.930 . S
H2906 C2894 0.956 . S
H2907 C2894 0.961 . S
H2908 C2894 0.961 . S
H2909 C2895 0.958 . S
H2910 C2895 0.961 . S
H2911 C2895 0.960 . S
C2912 C2913 1.391 . S
C2912 C2914 1.394 . S
C2912 H2928 0.931 . S
C2913 C2912 1.391 . S
C2913 C2917 1.376 . S
C2914 C2912 1.394 . S
C2914 C2915 1.369 . S
C2914 C2918 1.531 . S
C2915 C2914 1.369 . S
C2915 C2916 1.410 . S
C2915 C2923 1.503 . S
C2916 C2915 1.410 . S
C2916 C2917 1.392 . S
C2916 C2919 1.511 . S
C2917 C2913 1.376 . S
C2917 C2916 1.392 . S
C2917 H2929 0.929 . S
C2918 C2914 1.531 . S
C2918 H2930 0.960 . S
C2918 H2931 0.962 . S
C2918 H2932 0.960 . S
C2919 C2916 1.511 . S
C2919 H2933 0.961 . S
C2919 H2934 0.961 . S
C2919 H2935 0.961 . S
C2920 C2921 1.370 . S
C2920 C2922 1.363 1_455 S
C2920 H2936 0.931 . S
C2921 C2920 1.370 . S
C2921 C2925 1.408 . S
C2922 C2920 1.363 1_655 S
C2922 C2923 1.370 . S
C2922 C2926 1.524 . S
C2923 C2915 1.503 . S
C2923 C2922 1.370 . S
C2923 C2924 1.403 1_655 S
C2924 C2923 1.403 1_455 S
C2924 C2925 1.404 . S
C2924 C2927 1.539 . S
C2925 C2921 1.408 . S
C2925 C2924 1.404 . S
C2925 H2937 0.930 . S
C2926 C2922 1.524 . S
C2926 H2938 0.956 . S
C2926 H2939 0.961 . S
C2926 H2940 0.961 . S
C2927 C2924 1.539 . S
C2927 H2941 0.958 . S
C2927 H2942 0.961 . S
C2927 H2943 0.960 . S
H2928 C2912 0.931 . S
H2929 C2917 0.929 . S
H2930 C2918 0.960 . S
H2931 C2918 0.962 . S
H2932 C2918 0.960 . S
H2933 C2919 0.961 . S
H2934 C2919 0.961 . S
H2935 C2919 0.961 . S
H2936 C2920 0.931 . S
H2937 C2925 0.930 . S
H2938 C2926 0.956 . S
H2939 C2926 0.961 . S
H2940 C2926 0.961 . S
H2941 C2927 0.958 . S
H2942 C2927 0.961 . S
H2943 C2927 0.960 . S
C2944 C2945 1.391 . S
C2944 C2946 1.394 . S
C2944 H2960 0.931 . S
C2945 C2944 1.391 . S
C2945 C2949 1.376 . S
C2946 C2944 1.394 . S
C2946 C2947 1.369 . S
C2946 C2950 1.531 . S
C2947 C2946 1.369 . S
C2947 C2948 1.410 . S
C2947 C2955 1.503 . S
C2948 C2947 1.410 . S
C2948 C2949 1.392 . S
C2948 C2951 1.511 . S
C2949 C2945 1.376 . S
C2949 C2948 1.392 . S
C2949 H2961 0.929 . S
C2950 C2946 1.531 . S
C2950 H2962 0.960 . S
C2950 H2963 0.962 . S
C2950 H2964 0.960 . S
C2951 C2948 1.511 . S
C2951 H2965 0.961 . S
C2951 H2966 0.961 . S
C2951 H2967 0.961 . S
C2952 C2953 1.370 . S
C2952 C2954 1.363 . S
C2952 H2968 0.931 . S
C2953 C2952 1.370 . S
C2953 C2957 1.408 . S
C2954 C2952 1.363 . S
C2954 C2955 1.370 . S
C2954 C2958 1.524 . S
C2955 C2947 1.503 . S
C2955 C2954 1.370 . S
C2955 C2956 1.403 . S
C2956 C2955 1.403 . S
C2956 C2957 1.404 . S
C2956 C2959 1.539 . S
C2957 C2953 1.408 . S
C2957 C2956 1.404 . S
C2957 H2969 0.930 . S
C2958 C2954 1.524 . S
C2958 H2970 0.956 . S
C2958 H2971 0.961 . S
C2958 H2972 0.961 . S
C2959 C2956 1.539 . S
C2959 H2973 0.958 . S
C2959 H2974 0.961 . S
C2959 H2975 0.960 . S
H2960 C2944 0.931 . S
H2961 C2949 0.929 . S
H2962 C2950 0.960 . S
H2963 C2950 0.962 . S
H2964 C2950 0.960 . S
H2965 C2951 0.961 . S
H2966 C2951 0.961 . S
H2967 C2951 0.961 . S
H2968 C2952 0.931 . S
H2969 C2957 0.930 . S
H2970 C2958 0.956 . S
H2971 C2958 0.961 . S
H2972 C2958 0.961 . S
H2973 C2959 0.958 . S
H2974 C2959 0.961 . S
H2975 C2959 0.960 . S
C2976 C2977 1.391 . S
C2976 C2978 1.394 . S
C2976 H2992 0.931 . S
C2977 C2976 1.391 . S
C2977 C2981 1.376 . S
C2978 C2976 1.394 . S
C2978 C2979 1.369 . S
C2978 C2982 1.531 . S
C2979 C2978 1.369 . S
C2979 C2980 1.410 . S
C2979 C2987 1.503 . S
C2980 C2979 1.410 . S
C2980 C2981 1.392 . S
C2980 C2983 1.511 . S
C2981 C2977 1.376 . S
C2981 C2980 1.392 . S
C2981 H2993 0.929 . S
C2982 C2978 1.531 . S
C2982 H2994 0.960 . S
C2982 H2995 0.962 . S
C2982 H2996 0.960 . S
C2983 C2980 1.511 . S
C2983 H2997 0.961 . S
C2983 H2998 0.961 . S
C2983 H2999 0.961 . S
C2984 C2985 1.370 . S
C2984 C2986 1.363 1_455 S
C2984 H3000 0.931 . S
C2985 C2984 1.370 . S
C2985 C2989 1.408 . S
C2986 C2984 1.363 1_655 S
C2986 C2987 1.370 . S
C2986 C2990 1.524 . S
C2987 C2979 1.503 . S
C2987 C2986 1.370 . S
C2987 C2988 1.403 1_655 S
C2988 C2987 1.403 1_455 S
C2988 C2989 1.404 . S
C2988 C2991 1.539 . S
C2989 C2985 1.408 . S
C2989 C2988 1.404 . S
C2989 H3001 0.930 . S
C2990 C2986 1.524 . S
C2990 H3002 0.956 . S
C2990 H3003 0.961 . S
C2990 H3004 0.961 . S
C2991 C2988 1.539 . S
C2991 H3005 0.958 . S
C2991 H3006 0.961 . S
C2991 H3007 0.960 . S
H2992 C2976 0.931 . S
H2993 C2981 0.929 . S
H2994 C2982 0.960 . S
H2995 C2982 0.962 . S
H2996 C2982 0.960 . S
H2997 C2983 0.961 . S
H2998 C2983 0.961 . S
H2999 C2983 0.961 . S
H3000 C2984 0.931 . S
H3001 C2989 0.930 . S
H3002 C2990 0.956 . S
H3003 C2990 0.961 . S
H3004 C2990 0.961 . S
H3005 C2991 0.958 . S
H3006 C2991 0.961 . S
H3007 C2991 0.960 . S
C3008 C3009 1.391 . S
C3008 C3010 1.394 . S
C3008 H3024 0.931 . S
C3009 C3008 1.391 . S
C3009 C3013 1.376 . S
C3010 C3008 1.394 . S
C3010 C3011 1.369 . S
C3010 C3014 1.531 . S
C3011 C3010 1.369 . S
C3011 C3012 1.410 . S
C3011 C3019 1.503 . S
C3012 C3011 1.410 . S
C3012 C3013 1.392 . S
C3012 C3015 1.511 . S
C3013 C3009 1.376 . S
C3013 C3012 1.392 . S
C3013 H3025 0.929 . S
C3014 C3010 1.531 . S
C3014 H3026 0.960 . S
C3014 H3027 0.962 . S
C3014 H3028 0.960 . S
C3015 C3012 1.511 . S
C3015 H3029 0.961 . S
C3015 H3030 0.961 . S
C3015 H3031 0.961 . S
C3016 C3017 1.370 . S
C3016 C3018 1.363 . S
C3016 H3032 0.931 . S
C3017 C3016 1.370 . S
C3017 C3021 1.408 . S
C3018 C3016 1.363 . S
C3018 C3019 1.370 . S
C3018 C3022 1.524 . S
C3019 C3011 1.503 . S
C3019 C3018 1.370 . S
C3019 C3020 1.403 . S
C3020 C3019 1.403 . S
C3020 C3021 1.404 . S
C3020 C3023 1.539 . S
C3021 C3017 1.408 . S
C3021 C3020 1.404 . S
C3021 H3033 0.930 . S
C3022 C3018 1.524 . S
C3022 H3034 0.956 . S
C3022 H3035 0.961 . S
C3022 H3036 0.961 . S
C3023 C3020 1.539 . S
C3023 H3037 0.958 . S
C3023 H3038 0.961 . S
C3023 H3039 0.960 . S
H3024 C3008 0.931 . S
H3025 C3013 0.929 . S
H3026 C3014 0.960 . S
H3027 C3014 0.962 . S
H3028 C3014 0.960 . S
H3029 C3015 0.961 . S
H3030 C3015 0.961 . S
H3031 C3015 0.961 . S
H3032 C3016 0.931 . S
H3033 C3021 0.930 . S
H3034 C3022 0.956 . S
H3035 C3022 0.961 . S
H3036 C3022 0.961 . S
H3037 C3023 0.958 . S
H3038 C3023 0.961 . S
H3039 C3023 0.960 . S
C3040 C3041 1.391 . S
C3040 C3042 1.394 . S
C3040 H3056 0.931 . S
C3041 C3040 1.391 . S
C3041 C3045 1.376 . S
C3042 C3040 1.394 . S
C3042 C3043 1.369 . S
C3042 C3046 1.531 . S
C3043 C3042 1.369 . S
C3043 C3044 1.410 . S
C3043 C3051 1.503 . S
C3044 C3043 1.410 . S
C3044 C3045 1.392 . S
C3044 C3047 1.511 . S
C3045 C3041 1.376 . S
C3045 C3044 1.392 . S
C3045 H3057 0.929 . S
C3046 C3042 1.531 . S
C3046 H3058 0.960 . S
C3046 H3059 0.962 . S
C3046 H3060 0.960 . S
C3047 C3044 1.511 . S
C3047 H3061 0.961 . S
C3047 H3062 0.961 . S
C3047 H3063 0.961 . S
C3048 C3049 1.370 . S
C3048 C3050 1.363 . S
C3048 H3064 0.931 . S
C3049 C3048 1.370 . S
C3049 C3053 1.408 . S
C3050 C3048 1.363 . S
C3050 C3051 1.370 . S
C3050 C3054 1.524 . S
C3051 C3043 1.503 . S
C3051 C3050 1.370 . S
C3051 C3052 1.403 . S
C3052 C3051 1.403 . S
C3052 C3053 1.404 . S
C3052 C3055 1.539 . S
C3053 C3049 1.408 . S
C3053 C3052 1.404 . S
C3053 H3065 0.930 . S
C3054 C3050 1.524 . S
C3054 H3066 0.956 . S
C3054 H3067 0.961 . S
C3054 H3068 0.961 . S
C3055 C3052 1.539 . S
C3055 H3069 0.958 . S
C3055 H3070 0.961 . S
C3055 H3071 0.960 . S
H3056 C3040 0.931 . S
H3057 C3045 0.929 . S
H3058 C3046 0.960 . S
H3059 C3046 0.962 . S
H3060 C3046 0.960 . S
H3061 C3047 0.961 . S
H3062 C3047 0.961 . S
H3063 C3047 0.961 . S
H3064 C3048 0.931 . S
H3065 C3053 0.930 . S
H3066 C3054 0.956 . S
H3067 C3054 0.961 . S
H3068 C3054 0.961 . S
H3069 C3055 0.958 . S
H3070 C3055 0.961 . S
H3071 C3055 0.960 . S
C3072 C3073 1.391 . S
C3072 C3074 1.394 . S
C3072 H3088 0.931 . S
C3073 C3072 1.391 . S
C3073 C3077 1.376 . S
C3074 C3072 1.394 . S
C3074 C3075 1.369 . S
C3074 C3078 1.531 . S
C3075 C3074 1.369 . S
C3075 C3076 1.410 . S
C3075 C3083 1.503 . S
C3076 C3075 1.410 . S
C3076 C3077 1.392 . S
C3076 C3079 1.511 . S
C3077 C3073 1.376 . S
C3077 C3076 1.392 . S
C3077 H3089 0.929 . S
C3078 C3074 1.531 . S
C3078 H3090 0.960 . S
C3078 H3091 0.962 . S
C3078 H3092 0.960 . S
C3079 C3076 1.511 . S
C3079 H3093 0.961 . S
C3079 H3094 0.961 . S
C3079 H3095 0.961 . S
C3080 C3081 1.370 . S
C3080 C3082 1.363 . S
C3080 H3096 0.931 . S
C3081 C3080 1.370 . S
C3081 C3085 1.408 . S
C3082 C3080 1.363 . S
C3082 C3083 1.370 . S
C3082 C3086 1.524 . S
C3083 C3075 1.503 . S
C3083 C3082 1.370 . S
C3083 C3084 1.403 . S
C3084 C3083 1.403 . S
C3084 C3085 1.404 . S
C3084 C3087 1.539 . S
C3085 C3081 1.408 . S
C3085 C3084 1.404 . S
C3085 H3097 0.930 . S
C3086 C3082 1.524 . S
C3086 H3098 0.956 . S
C3086 H3099 0.961 . S
C3086 H3100 0.961 . S
C3087 C3084 1.539 . S
C3087 H3101 0.958 . S
C3087 H3102 0.961 . S
C3087 H3103 0.960 . S
H3088 C3072 0.931 . S
H3089 C3077 0.929 . S
H3090 C3078 0.960 . S
H3091 C3078 0.962 . S
H3092 C3078 0.960 . S
H3093 C3079 0.961 . S
H3094 C3079 0.961 . S
H3095 C3079 0.961 . S
H3096 C3080 0.931 . S
H3097 C3085 0.930 . S
H3098 C3086 0.956 . S
H3099 C3086 0.961 . S
H3100 C3086 0.961 . S
H3101 C3087 0.958 . S
H3102 C3087 0.961 . S
H3103 C3087 0.960 . S
C3104 C3105 1.391 . S
C3104 C3106 1.394 . S
C3104 H3120 0.931 . S
C3105 C3104 1.391 . S
C3105 C3109 1.376 . S
C3106 C3104 1.394 . S
C3106 C3107 1.369 . S
C3106 C3110 1.531 . S
C3107 C3106 1.369 . S
C3107 C3108 1.410 . S
C3107 C3115 1.503 . S
C3108 C3107 1.410 . S
C3108 C3109 1.392 . S
C3108 C3111 1.511 . S
C3109 C3105 1.376 . S
C3109 C3108 1.392 . S
C3109 H3121 0.929 . S
C3110 C3106 1.531 . S
C3110 H3122 0.960 . S
C3110 H3123 0.962 . S
C3110 H3124 0.960 . S
C3111 C3108 1.511 . S
C3111 H3125 0.961 . S
C3111 H3126 0.961 . S
C3111 H3127 0.961 . S
C3112 C3113 1.370 . S
C3112 C3114 1.363 . S
C3112 H3128 0.931 . S
C3113 C3112 1.370 . S
C3113 C3117 1.408 . S
C3114 C3112 1.363 . S
C3114 C3115 1.370 . S
C3114 C3118 1.524 . S
C3115 C3107 1.503 . S
C3115 C3114 1.370 . S
C3115 C3116 1.403 . S
C3116 C3115 1.403 . S
C3116 C3117 1.404 . S
C3116 C3119 1.539 . S
C3117 C3113 1.408 . S
C3117 C3116 1.404 . S
C3117 H3129 0.930 . S
C3118 C3114 1.524 . S
C3118 H3130 0.956 . S
C3118 H3131 0.961 . S
C3118 H3132 0.961 . S
C3119 C3116 1.539 . S
C3119 H3133 0.958 . S
C3119 H3134 0.961 . S
C3119 H3135 0.960 . S
H3120 C3104 0.931 . S
H3121 C3109 0.929 . S
H3122 C3110 0.960 . S
H3123 C3110 0.962 . S
H3124 C3110 0.960 . S
H3125 C3111 0.961 . S
H3126 C3111 0.961 . S
H3127 C3111 0.961 . S
H3128 C3112 0.931 . S
H3129 C3117 0.930 . S
H3130 C3118 0.956 . S
H3131 C3118 0.961 . S
H3132 C3118 0.961 . S
H3133 C3119 0.958 . S
H3134 C3119 0.961 . S
H3135 C3119 0.960 . S
C3136 C3137 1.391 . S
C3136 C3138 1.394 . S
C3136 H3152 0.931 . S
C3137 C3136 1.391 . S
C3137 C3141 1.376 . S
C3138 C3136 1.394 . S
C3138 C3139 1.369 . S
C3138 C3142 1.531 . S
C3139 C3138 1.369 . S
C3139 C3140 1.410 . S
C3139 C3147 1.503 . S
C3140 C3139 1.410 . S
C3140 C3141 1.392 . S
C3140 C3143 1.511 . S
C3141 C3137 1.376 . S
C3141 C3140 1.392 . S
C3141 H3153 0.929 . S
C3142 C3138 1.531 . S
C3142 H3154 0.960 . S
C3142 H3155 0.962 . S
C3142 H3156 0.960 . S
C3143 C3140 1.511 . S
C3143 H3157 0.961 . S
C3143 H3158 0.961 . S
C3143 H3159 0.961 . S
C3144 C3145 1.370 . S
C3144 C3146 1.363 . S
C3144 H3160 0.931 . S
C3145 C3144 1.370 . S
C3145 C3149 1.408 . S
C3146 C3144 1.363 . S
C3146 C3147 1.370 . S
C3146 C3150 1.524 . S
C3147 C3139 1.503 . S
C3147 C3146 1.370 . S
C3147 C3148 1.403 . S
C3148 C3147 1.403 . S
C3148 C3149 1.404 . S
C3148 C3151 1.539 . S
C3149 C3145 1.408 . S
C3149 C3148 1.404 . S
C3149 H3161 0.930 . S
C3150 C3146 1.524 . S
C3150 H3162 0.956 . S
C3150 H3163 0.961 . S
C3150 H3164 0.961 . S
C3151 C3148 1.539 . S
C3151 H3165 0.958 . S
C3151 H3166 0.961 . S
C3151 H3167 0.960 . S
H3152 C3136 0.931 . S
H3153 C3141 0.929 . S
H3154 C3142 0.960 . S
H3155 C3142 0.962 . S
H3156 C3142 0.960 . S
H3157 C3143 0.961 . S
H3158 C3143 0.961 . S
H3159 C3143 0.961 . S
H3160 C3144 0.931 . S
H3161 C3149 0.930 . S
H3162 C3150 0.956 . S
H3163 C3150 0.961 . S
H3164 C3150 0.961 . S
H3165 C3151 0.958 . S
H3166 C3151 0.961 . S
H3167 C3151 0.960 . S
C3168 C3169 1.391 . S
C3168 C3170 1.394 1_655 S
C3168 H3184 0.931 . S
C3169 C3168 1.391 . S
C3169 C3173 1.376 . S
C3170 C3168 1.394 1_455 S
C3170 C3171 1.369 . S
C3170 C3174 1.531 . S
C3171 C3170 1.369 . S
C3171 C3172 1.410 1_455 S
C3171 C3179 1.503 . S
C3172 C3171 1.410 1_655 S
C3172 C3173 1.392 . S
C3172 C3175 1.511 . S
C3173 C3169 1.376 . S
C3173 C3172 1.392 . S
C3173 H3185 0.929 . S
C3174 C3170 1.531 . S
C3174 H3186 0.960 . S
C3174 H3187 0.962 . S
C3174 H3188 0.960 . S
C3175 C3172 1.511 . S
C3175 H3189 0.961 . S
C3175 H3190 0.961 . S
C3175 H3191 0.961 . S
C3176 C3177 1.370 . S
C3176 C3178 1.363 . S
C3176 H3192 0.931 . S
C3177 C3176 1.370 . S
C3177 C3181 1.408 . S
C3178 C3176 1.363 . S
C3178 C3179 1.370 . S
C3178 C3182 1.524 . S
C3179 C3171 1.503 . S
C3179 C3178 1.370 . S
C3179 C3180 1.403 . S
C3180 C3179 1.403 . S
C3180 C3181 1.404 . S
C3180 C3183 1.539 . S
C3181 C3177 1.408 . S
C3181 C3180 1.404 . S
C3181 H3193 0.930 . S
C3182 C3178 1.524 . S
C3182 H3194 0.956 . S
C3182 H3195 0.961 . S
C3182 H3196 0.961 . S
C3183 C3180 1.539 . S
C3183 H3197 0.958 . S
C3183 H3198 0.961 . S
C3183 H3199 0.960 . S
H3184 C3168 0.931 . S
H3185 C3173 0.929 . S
H3186 C3174 0.960 . S
H3187 C3174 0.962 . S
H3188 C3174 0.960 . S
H3189 C3175 0.961 . S
H3190 C3175 0.961 . S
H3191 C3175 0.961 . S
H3192 C3176 0.931 . S
H3193 C3181 0.930 . S
H3194 C3182 0.956 . S
H3195 C3182 0.961 . S
H3196 C3182 0.961 . S
H3197 C3183 0.958 . S
H3198 C3183 0.961 . S
H3199 C3183 0.960 . S
C3200 C3201 1.391 . S
C3200 C3202 1.394 . S
C3200 H3216 0.931 . S
C3201 C3200 1.391 . S
C3201 C3205 1.376 . S
C3202 C3200 1.394 . S
C3202 C3203 1.369 . S
C3202 C3206 1.531 . S
C3203 C3202 1.369 . S
C3203 C3204 1.410 . S
C3203 C3211 1.503 . S
C3204 C3203 1.410 . S
C3204 C3205 1.392 . S
C3204 C3207 1.511 . S
C3205 C3201 1.376 . S
C3205 C3204 1.392 . S
C3205 H3217 0.929 . S
C3206 C3202 1.531 . S
C3206 H3218 0.960 . S
C3206 H3219 0.962 . S
C3206 H3220 0.960 . S
C3207 C3204 1.511 . S
C3207 H3221 0.961 . S
C3207 H3222 0.961 . S
C3207 H3223 0.961 . S
C3208 C3209 1.370 . S
C3208 C3210 1.363 . S
C3208 H3224 0.931 . S
C3209 C3208 1.370 . S
C3209 C3213 1.408 . S
C3210 C3208 1.363 . S
C3210 C3211 1.370 . S
C3210 C3214 1.524 . S
C3211 C3203 1.503 . S
C3211 C3210 1.370 . S
C3211 C3212 1.403 . S
C3212 C3211 1.403 . S
C3212 C3213 1.404 . S
C3212 C3215 1.539 . S
C3213 C3209 1.408 . S
C3213 C3212 1.404 . S
C3213 H3225 0.930 . S
C3214 C3210 1.524 . S
C3214 H3226 0.956 . S
C3214 H3227 0.961 . S
C3214 H3228 0.961 . S
C3215 C3212 1.539 . S
C3215 H3229 0.958 . S
C3215 H3230 0.961 . S
C3215 H3231 0.960 . S
H3216 C3200 0.931 . S
H3217 C3205 0.929 . S
H3218 C3206 0.960 . S
H3219 C3206 0.962 . S
H3220 C3206 0.960 . S
H3221 C3207 0.961 . S
H3222 C3207 0.961 . S
H3223 C3207 0.961 . S
H3224 C3208 0.931 . S
H3225 C3213 0.930 . S
H3226 C3214 0.956 . S
H3227 C3214 0.961 . S
H3228 C3214 0.961 . S
H3229 C3215 0.958 . S
H3230 C3215 0.961 . S
H3231 C3215 0.960 . S
C3232 C3233 1.391 . S
C3232 C3234 1.394 . S
C3232 H3248 0.931 . S
C3233 C3232 1.391 . S
C3233 C3237 1.376 . S
C3234 C3232 1.394 . S
C3234 C3235 1.369 . S
C3234 C3238 1.531 . S
C3235 C3234 1.369 . S
C3235 C3236 1.410 . S
C3235 C3243 1.503 . S
C3236 C3235 1.410 . S
C3236 C3237 1.392 . S
C3236 C3239 1.511 . S
C3237 C3233 1.376 . S
C3237 C3236 1.392 . S
C3237 H3249 0.929 . S
C3238 C3234 1.531 . S
C3238 H3250 0.960 . S
C3238 H3251 0.962 . S
C3238 H3252 0.960 . S
C3239 C3236 1.511 . S
C3239 H3253 0.961 . S
C3239 H3254 0.961 . S
C3239 H3255 0.961 . S
C3240 C3241 1.370 . S
C3240 C3242 1.363 1_655 S
C3240 H3256 0.931 . S
C3241 C3240 1.370 . S
C3241 C3245 1.408 . S
C3242 C3240 1.363 1_455 S
C3242 C3243 1.370 . S
C3242 C3246 1.524 . S
C3243 C3235 1.503 . S
C3243 C3242 1.370 . S
C3243 C3244 1.403 1_455 S
C3244 C3243 1.403 1_655 S
C3244 C3245 1.404 . S
C3244 C3247 1.539 . S
C3245 C3241 1.408 . S
C3245 C3244 1.404 . S
C3245 H3257 0.930 . S
C3246 C3242 1.524 . S
C3246 H3258 0.956 . S
C3246 H3259 0.961 . S
C3246 H3260 0.961 . S
C3247 C3244 1.539 . S
C3247 H3261 0.958 . S
C3247 H3262 0.961 . S
C3247 H3263 0.960 . S
H3248 C3232 0.931 . S
H3249 C3237 0.929 . S
H3250 C3238 0.960 . S
H3251 C3238 0.962 . S
H3252 C3238 0.960 . S
H3253 C3239 0.961 . S
H3254 C3239 0.961 . S
H3255 C3239 0.961 . S
H3256 C3240 0.931 . S
H3257 C3245 0.930 . S
H3258 C3246 0.956 . S
H3259 C3246 0.961 . S
H3260 C3246 0.961 . S
H3261 C3247 0.958 . S
H3262 C3247 0.961 . S
H3263 C3247 0.960 . S
C3264 C3265 1.391 . S
C3264 C3266 1.394 . S
C3264 H3280 0.931 . S
C3265 C3264 1.391 . S
C3265 C3269 1.376 . S
C3266 C3264 1.394 . S
C3266 C3267 1.369 . S
C3266 C3270 1.531 . S
C3267 C3266 1.369 . S
C3267 C3268 1.410 . S
C3267 C3275 1.503 . S
C3268 C3267 1.410 . S
C3268 C3269 1.392 . S
C3268 C3271 1.511 . S
C3269 C3265 1.376 . S
C3269 C3268 1.392 . S
C3269 H3281 0.929 . S
C3270 C3266 1.531 . S
C3270 H3282 0.960 . S
C3270 H3283 0.962 . S
C3270 H3284 0.960 . S
C3271 C3268 1.511 . S
C3271 H3285 0.961 . S
C3271 H3286 0.961 . S
C3271 H3287 0.961 . S
C3272 C3273 1.370 . S
C3272 C3274 1.363 . S
C3272 H3288 0.931 . S
C3273 C3272 1.370 . S
C3273 C3277 1.408 . S
C3274 C3272 1.363 . S
C3274 C3275 1.370 . S
C3274 C3278 1.524 . S
C3275 C3267 1.503 . S
C3275 C3274 1.370 . S
C3275 C3276 1.403 . S
C3276 C3275 1.403 . S
C3276 C3277 1.404 . S
C3276 C3279 1.539 . S
C3277 C3273 1.408 . S
C3277 C3276 1.404 . S
C3277 H3289 0.930 . S
C3278 C3274 1.524 . S
C3278 H3290 0.956 . S
C3278 H3291 0.961 . S
C3278 H3292 0.961 . S
C3279 C3276 1.539 . S
C3279 H3293 0.958 . S
C3279 H3294 0.961 . S
C3279 H3295 0.960 . S
H3280 C3264 0.931 . S
H3281 C3269 0.929 . S
H3282 C3270 0.960 . S
H3283 C3270 0.962 . S
H3284 C3270 0.960 . S
H3285 C3271 0.961 . S
H3286 C3271 0.961 . S
H3287 C3271 0.961 . S
H3288 C3272 0.931 . S
H3289 C3277 0.930 . S
H3290 C3278 0.956 . S
H3291 C3278 0.961 . S
H3292 C3278 0.961 . S
H3293 C3279 0.958 . S
H3294 C3279 0.961 . S
H3295 C3279 0.960 . S
C3296 C3297 1.391 . S
C3296 C3298 1.394 . S
C3296 H3312 0.931 . S
C3297 C3296 1.391 . S
C3297 C3301 1.376 . S
C3298 C3296 1.394 . S
C3298 C3299 1.369 . S
C3298 C3302 1.531 . S
C3299 C3298 1.369 . S
C3299 C3300 1.410 . S
C3299 C3307 1.503 . S
C3300 C3299 1.410 . S
C3300 C3301 1.392 . S
C3300 C3303 1.511 . S
C3301 C3297 1.376 . S
C3301 C3300 1.392 . S
C3301 H3313 0.929 . S
C3302 C3298 1.531 . S
C3302 H3314 0.960 . S
C3302 H3315 0.962 . S
C3302 H3316 0.960 . S
C3303 C3300 1.511 . S
C3303 H3317 0.961 . S
C3303 H3318 0.961 . S
C3303 H3319 0.961 . S
C3304 C3305 1.370 . S
C3304 C3306 1.363 . S
C3304 H3320 0.931 . S
C3305 C3304 1.370 . S
C3305 C3309 1.408 . S
C3306 C3304 1.363 . S
C3306 C3307 1.370 . S
C3306 C3310 1.524 . S
C3307 C3299 1.503 . S
C3307 C3306 1.370 . S
C3307 C3308 1.403 . S
C3308 C3307 1.403 . S
C3308 C3309 1.404 . S
C3308 C3311 1.539 . S
C3309 C3305 1.408 . S
C3309 C3308 1.404 . S
C3309 H3321 0.930 . S
C3310 C3306 1.524 . S
C3310 H3322 0.956 . S
C3310 H3323 0.961 . S
C3310 H3324 0.961 . S
C3311 C3308 1.539 . S
C3311 H3325 0.958 . S
C3311 H3326 0.961 . S
C3311 H3327 0.960 . S
H3312 C3296 0.931 . S
H3313 C3301 0.929 . S
H3314 C3302 0.960 . S
H3315 C3302 0.962 . S
H3316 C3302 0.960 . S
H3317 C3303 0.961 . S
H3318 C3303 0.961 . S
H3319 C3303 0.961 . S
H3320 C3304 0.931 . S
H3321 C3309 0.930 . S
H3322 C3310 0.956 . S
H3323 C3310 0.961 . S
H3324 C3310 0.961 . S
H3325 C3311 0.958 . S
H3326 C3311 0.961 . S
H3327 C3311 0.960 . S
C3328 C3329 1.391 . S
C3328 C3330 1.394 . S
C3328 H3344 0.931 . S
C3329 C3328 1.391 . S
C3329 C3333 1.376 . S
C3330 C3328 1.394 . S
C3330 C3331 1.369 . S
C3330 C3334 1.531 1_545 S
C3331 C3330 1.369 . S
C3331 C3332 1.410 . S
C3331 C3339 1.503 1_545 S
C3332 C3331 1.410 . S
C3332 C3333 1.392 . S
C3332 C3335 1.511 . S
C3333 C3329 1.376 . S
C3333 C3332 1.392 . S
C3333 H3345 0.929 . S
C3334 C3330 1.531 1_565 S
C3334 H3346 0.960 . S
C3334 H3347 0.962 . S
C3334 H3348 0.960 . S
C3335 C3332 1.511 . S
C3335 H3349 0.961 . S
C3335 H3350 0.961 . S
C3335 H3351 0.961 . S
C3336 C3337 1.370 . S
C3336 C3338 1.363 . S
C3336 H3352 0.931 . S
C3337 C3336 1.370 . S
C3337 C3341 1.408 . S
C3338 C3336 1.363 . S
C3338 C3339 1.370 . S
C3338 C3342 1.524 . S
C3339 C3331 1.503 1_565 S
C3339 C3338 1.370 . S
C3339 C3340 1.403 . S
C3340 C3339 1.403 . S
C3340 C3341 1.404 . S
C3340 C3343 1.539 1_565 S
C3341 C3337 1.408 . S
C3341 C3340 1.404 . S
C3341 H3353 0.930 . S
C3342 C3338 1.524 . S
C3342 H3354 0.956 . S
C3342 H3355 0.961 . S
C3342 H3356 0.961 . S
C3343 C3340 1.539 1_545 S
C3343 H3357 0.958 1_545 S
C3343 H3358 0.961 . S
C3343 H3359 0.960 . S
H3344 C3328 0.931 . S
H3345 C3333 0.929 . S
H3346 C3334 0.960 . S
H3347 C3334 0.962 . S
H3348 C3334 0.960 . S
H3349 C3335 0.961 . S
H3350 C3335 0.961 . S
H3351 C3335 0.961 . S
H3352 C3336 0.931 . S
H3353 C3341 0.930 . S
H3354 C3342 0.956 . S
H3355 C3342 0.961 . S
H3356 C3342 0.961 . S
H3357 C3343 0.958 1_565 S
H3358 C3343 0.961 . S
H3359 C3343 0.960 . S
C3360 C3361 1.391 . S
C3360 C3362 1.394 . S
C3360 H3376 0.931 . S
C3361 C3360 1.391 . S
C3361 C3365 1.376 . S
C3362 C3360 1.394 . S
C3362 C3363 1.369 . S
C3362 C3366 1.531 . S
C3363 C3362 1.369 . S
C3363 C3364 1.410 . S
C3363 C3371 1.503 . S
C3364 C3363 1.410 . S
C3364 C3365 1.392 . S
C3364 C3367 1.511 . S
C3365 C3361 1.376 . S
C3365 C3364 1.392 . S
C3365 H3377 0.929 . S
C3366 C3362 1.531 . S
C3366 H3378 0.960 . S
C3366 H3379 0.962 . S
C3366 H3380 0.960 . S
C3367 C3364 1.511 . S
C3367 H3381 0.961 . S
C3367 H3382 0.961 . S
C3367 H3383 0.961 . S
C3368 C3369 1.370 . S
C3368 C3370 1.363 . S
C3368 H3384 0.931 . S
C3369 C3368 1.370 . S
C3369 C3373 1.408 . S
C3370 C3368 1.363 . S
C3370 C3371 1.370 . S
C3370 C3374 1.524 . S
C3371 C3363 1.503 . S
C3371 C3370 1.370 . S
C3371 C3372 1.403 . S
C3372 C3371 1.403 . S
C3372 C3373 1.404 . S
C3372 C3375 1.539 . S
C3373 C3369 1.408 . S
C3373 C3372 1.404 . S
C3373 H3385 0.930 . S
C3374 C3370 1.524 . S
C3374 H3386 0.956 . S
C3374 H3387 0.961 . S
C3374 H3388 0.961 . S
C3375 C3372 1.539 . S
C3375 H3389 0.958 . S
C3375 H3390 0.961 . S
C3375 H3391 0.960 . S
H3376 C3360 0.931 . S
H3377 C3365 0.929 . S
H3378 C3366 0.960 . S
H3379 C3366 0.962 . S
H3380 C3366 0.960 . S
H3381 C3367 0.961 . S
H3382 C3367 0.961 . S
H3383 C3367 0.961 . S
H3384 C3368 0.931 . S
H3385 C3373 0.930 . S
H3386 C3374 0.956 . S
H3387 C3374 0.961 . S
H3388 C3374 0.961 . S
H3389 C3375 0.958 . S
H3390 C3375 0.961 . S
H3391 C3375 0.960 . S
C3392 C3393 1.391 . S
C3392 C3394 1.394 . S
C3392 H3408 0.931 . S
C3393 C3392 1.391 . S
C3393 C3397 1.376 . S
C3394 C3392 1.394 . S
C3394 C3395 1.369 . S
C3394 C3398 1.531 . S
C3395 C3394 1.369 . S
C3395 C3396 1.410 . S
C3395 C3403 1.503 1_565 S
C3396 C3395 1.410 . S
C3396 C3397 1.392 . S
C3396 C3399 1.515 . S
C3397 C3393 1.376 . S
C3397 C3396 1.392 . S
C3397 H3409 0.929 . S
C3398 C3394 1.531 . S
C3398 H3410 0.960 . S
C3398 H3411 0.962 . S
C3398 H3412 0.960 . S
C3399 C3396 1.515 . S
C3399 H3413 0.960 1_565 S
C3399 H3414 0.954 1_565 S
C3399 H3415 0.964 . S
C3400 C3401 1.370 . S
C3400 C3402 1.363 . S
C3400 H3416 0.931 . S
C3401 C3400 1.370 . S
C3401 C3405 1.408 . S
C3402 C3400 1.363 . S
C3402 C3403 1.370 . S
C3402 C3406 1.524 . S
C3403 C3395 1.503 1_545 S
C3403 C3402 1.370 . S
C3403 C3404 1.403 . S
C3404 C3403 1.403 . S
C3404 C3405 1.404 . S
C3404 C3407 1.539 1_545 S
C3405 C3401 1.408 . S
C3405 C3404 1.404 . S
C3405 H3417 0.930 . S
C3406 C3402 1.524 . S
C3406 H3418 0.956 . S
C3406 H3419 0.961 . S
C3406 H3420 0.961 . S
C3407 C3404 1.539 1_565 S
C3407 H3421 0.958 . S
C3407 H3422 0.961 . S
C3407 H3423 0.960 . S
H3408 C3392 0.931 . S
H3409 C3397 0.929 . S
H3410 C3398 0.960 . S
H3411 C3398 0.962 . S
H3412 C3398 0.960 . S
H3413 C3399 0.960 1_545 S
H3414 C3399 0.954 1_545 S
H3415 C3399 0.964 . S
H3416 C3400 0.931 . S
H3417 C3405 0.930 . S
H3418 C3406 0.956 . S
H3419 C3406 0.961 . S
H3420 C3406 0.961 . S
H3421 C3407 0.958 . S
H3422 C3407 0.961 . S
H3423 C3407 0.960 . S
C3424 C3425 1.391 . S
C3424 C3426 1.394 . S
C3424 H3440 0.931 . S
C3425 C3424 1.391 . S
C3425 C3429 1.376 . S
C3426 C3424 1.394 . S
C3426 C3427 1.369 . S
C3426 C3430 1.531 . S
C3427 C3426 1.369 . S
C3427 C3428 1.410 . S
C3427 C3435 1.503 1_556 S
C3428 C3427 1.410 . S
C3428 C3429 1.392 . S
C3428 C3431 1.511 1_556 S
C3429 C3425 1.376 . S
C3429 C3428 1.392 . S
C3429 H3441 0.929 . S
C3430 C3426 1.531 . S
C3430 H3442 0.960 . S
C3430 H3443 0.962 . S
C3430 H3444 0.960 . S
C3431 C3428 1.511 1_554 S
C3431 H3445 0.961 . S
C3431 H3446 0.961 . S
C3431 H3447 0.961 . S
C3432 C3433 1.370 . S
C3432 C3434 1.363 . S
C3432 H3448 0.931 . S
C3433 C3432 1.370 . S
C3433 C3437 1.408 . S
C3434 C3432 1.363 . S
C3434 C3435 1.370 . S
C3434 C3438 1.524 1_554 S
C3435 C3427 1.503 1_554 S
C3435 C3434 1.370 . S
C3435 C3436 1.403 . S
C3436 C3435 1.403 . S
C3436 C3437 1.404 . S
C3436 C3439 1.539 . S
C3437 C3433 1.408 . S
C3437 C3436 1.404 . S
C3437 H3449 0.930 . S
C3438 C3434 1.524 1_556 S
C3438 H3450 0.956 . S
C3438 H3451 0.961 . S
C3438 H3452 0.961 . S
C3439 C3436 1.539 . S
C3439 H3453 0.958 . S
C3439 H3454 0.961 . S
C3439 H3455 0.960 . S
H3440 C3424 0.931 . S
H3441 C3429 0.929 . S
H3442 C3430 0.960 . S
H3443 C3430 0.962 . S
H3444 C3430 0.960 . S
H3445 C3431 0.961 . S
H3446 C3431 0.961 . S
H3447 C3431 0.961 . S
H3448 C3432 0.931 . S
H3449 C3437 0.930 . S
H3450 C3438 0.956 . S
H3451 C3438 0.961 . S
H3452 C3438 0.961 . S
H3453 C3439 0.958 . S
H3454 C3439 0.961 . S
H3455 C3439 0.960 . S
C3456 C3457 1.391 . S
C3456 C3458 1.394 . S
C3456 H3472 0.931 . S
C3457 C3456 1.391 . S
C3457 C3461 1.376 . S
C3458 C3456 1.394 . S
C3458 C3459 1.369 . S
C3458 C3462 1.531 1_545 S
C3459 C3458 1.369 . S
C3459 C3460 1.410 . S
C3459 C3467 1.503 1_545 S
C3460 C3459 1.410 . S
C3460 C3461 1.392 . S
C3460 C3463 1.511 . S
C3461 C3457 1.376 . S
C3461 C3460 1.392 . S
C3461 H3473 0.929 . S
C3462 C3458 1.531 1_565 S
C3462 H3474 0.960 . S
C3462 H3475 0.962 . S
C3462 H3476 0.960 . S
C3463 C3460 1.511 . S
C3463 H3477 0.961 . S
C3463 H3478 0.961 . S
C3463 H3479 0.961 . S
C3464 C3465 1.370 . S
C3464 C3466 1.363 . S
C3464 H3480 0.931 . S
C3465 C3464 1.370 . S
C3465 C3469 1.408 . S
C3466 C3464 1.363 . S
C3466 C3467 1.370 . S
C3466 C3470 1.524 1_565 S
C3467 C3459 1.503 1_565 S
C3467 C3466 1.370 . S
C3467 C3468 1.403 . S
C3468 C3467 1.403 . S
C3468 C3469 1.404 . S
C3468 C3471 1.539 . S
C3469 C3465 1.408 . S
C3469 C3468 1.404 . S
C3469 H3481 0.930 . S
C3470 C3466 1.524 1_545 S
C3470 H3482 0.956 . S
C3470 H3483 0.961 . S
C3470 H3484 0.961 . S
C3471 C3468 1.539 . S
C3471 H3485 0.958 . S
C3471 H3486 0.961 . S
C3471 H3487 0.960 . S
H3472 C3456 0.931 . S
H3473 C3461 0.929 . S
H3474 C3462 0.960 . S
H3475 C3462 0.962 . S
H3476 C3462 0.960 . S
H3477 C3463 0.961 . S
H3478 C3463 0.961 . S
H3479 C3463 0.961 . S
H3480 C3464 0.931 . S
H3481 C3469 0.930 . S
H3482 C3470 0.956 . S
H3483 C3470 0.961 . S
H3484 C3470 0.961 . S
H3485 C3471 0.958 . S
H3486 C3471 0.961 . S
H3487 C3471 0.960 . S
C3488 C3489 1.391 . S
C3488 C3490 1.394 . S
C3488 H3504 0.931 . S
C3489 C3488 1.391 . S
C3489 C3493 1.376 . S
C3490 C3488 1.394 . S
C3490 C3491 1.369 . S
C3490 C3494 1.531 . S
C3491 C3490 1.369 . S
C3491 C3492 1.410 . S
C3491 C3499 1.503 . S
C3492 C3491 1.410 . S
C3492 C3493 1.392 . S
C3492 C3495 1.511 . S
C3493 C3489 1.376 . S
C3493 C3492 1.392 . S
C3493 H3505 0.929 . S
C3494 C3490 1.531 . S
C3494 H3506 0.960 . S
C3494 H3507 0.962 . S
C3494 H3508 0.960 . S
C3495 C3492 1.511 . S
C3495 H3509 0.961 . S
C3495 H3510 0.961 . S
C3495 H3511 0.961 . S
C3496 C3497 1.370 . S
C3496 C3498 1.363 . S
C3496 H3512 0.931 . S
C3497 C3496 1.370 . S
C3497 C3501 1.408 . S
C3498 C3496 1.363 . S
C3498 C3499 1.370 . S
C3498 C3502 1.524 . S
C3499 C3491 1.503 . S
C3499 C3498 1.370 . S
C3499 C3500 1.403 . S
C3500 C3499 1.403 . S
C3500 C3501 1.404 . S
C3500 C3503 1.539 . S
C3501 C3497 1.408 . S
C3501 C3500 1.404 . S
C3501 H3513 0.930 . S
C3502 C3498 1.524 . S
C3502 H3514 0.956 . S
C3502 H3515 0.961 . S
C3502 H3516 0.961 . S
C3503 C3500 1.539 . S
C3503 H3517 0.958 . S
C3503 H3518 0.961 . S
C3503 H3519 0.960 . S
H3504 C3488 0.931 . S
H3505 C3493 0.929 . S
H3506 C3494 0.960 . S
H3507 C3494 0.962 . S
H3508 C3494 0.960 . S
H3509 C3495 0.961 . S
H3510 C3495 0.961 . S
H3511 C3495 0.961 . S
H3512 C3496 0.931 . S
H3513 C3501 0.930 . S
H3514 C3502 0.956 . S
H3515 C3502 0.961 . S
H3516 C3502 0.961 . S
H3517 C3503 0.958 . S
H3518 C3503 0.961 . S
H3519 C3503 0.960 . S
C3520 C3521 1.391 . S
C3520 C3522 1.394 . S
C3520 H3536 0.931 . S
C3521 C3520 1.391 . S
C3521 C3525 1.376 . S
C3522 C3520 1.394 . S
C3522 C3523 1.369 . S
C3522 C3526 1.531 . S
C3523 C3522 1.369 . S
C3523 C3524 1.410 . S
C3523 C3531 1.503 1_545 S
C3524 C3523 1.410 . S
C3524 C3525 1.392 . S
C3524 C3527 1.511 1_545 S
C3525 C3521 1.376 . S
C3525 C3524 1.392 . S
C3525 H3537 0.929 . S
C3526 C3522 1.531 . S
C3526 H3538 0.960 1_545 S
C3526 H3539 0.962 . S
C3526 H3540 0.960 . S
C3527 C3524 1.511 1_565 S
C3527 H3541 0.961 1_565 S
C3527 H3542 0.961 . S
C3527 H3543 0.961 . S
C3528 C3529 1.370 . S
C3528 C3530 1.363 . S
C3528 H3544 0.931 . S
C3529 C3528 1.370 . S
C3529 C3533 1.408 . S
C3530 C3528 1.363 . S
C3530 C3531 1.370 . S
C3530 C3534 1.524 1_565 S
C3531 C3523 1.503 1_565 S
C3531 C3530 1.370 . S
C3531 C3532 1.403 . S
C3532 C3531 1.403 . S
C3532 C3533 1.404 . S
C3532 C3535 1.539 . S
C3533 C3529 1.408 . S
C3533 C3532 1.404 . S
C3533 H3545 0.930 . S
C3534 C3530 1.524 1_545 S
C3534 H3546 0.956 . S
C3534 H3547 0.961 . S
C3534 H3548 0.961 . S
C3535 C3532 1.539 . S
C3535 H3549 0.958 . S
C3535 H3550 0.961 . S
C3535 H3551 0.960 . S
H3536 C3520 0.931 . S
H3537 C3525 0.929 . S
H3538 C3526 0.960 1_565 S
H3539 C3526 0.962 . S
H3540 C3526 0.960 . S
H3541 C3527 0.961 1_545 S
H3542 C3527 0.961 . S
H3543 C3527 0.961 . S
H3544 C3528 0.931 . S
H3545 C3533 0.930 . S
H3546 C3534 0.956 . S
H3547 C3534 0.961 . S
H3548 C3534 0.961 . S
H3549 C3535 0.958 . S
H3550 C3535 0.961 . S
H3551 C3535 0.960 . S
C3552 C3553 1.391 . S
C3552 C3554 1.394 . S
C3552 H3568 0.931 . S
C3553 C3552 1.391 . S
C3553 C3557 1.376 . S
C3554 C3552 1.394 . S
C3554 C3555 1.369 . S
C3554 C3558 1.545 . S
C3555 C3554 1.369 . S
C3555 C3556 1.410 . S
C3555 C3563 1.503 1_556 S
C3556 C3555 1.410 . S
C3556 C3557 1.392 . S
C3556 C3559 1.511 . S
C3557 C3553 1.376 . S
C3557 C3556 1.392 . S
C3557 H3569 0.929 . S
C3558 C3554 1.545 . S
C3558 H3570 0.932 1_556 S
C3558 H3571 0.975 . S
C3558 H3572 0.963 . S
C3559 C3556 1.511 . S
C3559 H3573 0.961 . S
C3559 H3574 0.961 . S
C3559 H3575 0.961 1_556 S
C3560 C3561 1.370 . S
C3560 C3562 1.363 . S
C3560 H3576 0.931 . S
C3561 C3560 1.370 . S
C3561 C3565 1.408 . S
C3562 C3560 1.363 . S
C3562 C3563 1.370 . S
C3562 C3566 1.524 1_554 S
C3563 C3555 1.503 1_554 S
C3563 C3562 1.370 . S
C3563 C3564 1.403 . S
C3564 C3563 1.403 . S
C3564 C3565 1.404 . S
C3564 C3567 1.539 . S
C3565 C3561 1.408 . S
C3565 C3564 1.404 . S
C3565 H3577 0.930 . S
C3566 C3562 1.524 1_556 S
C3566 H3578 0.956 . S
C3566 H3579 0.961 . S
C3566 H3580 0.961 . S
C3567 C3564 1.539 . S
C3567 H3581 0.958 . S
C3567 H3582 0.961 . S
C3567 H3583 0.960 . S
H3568 C3552 0.931 . S
H3569 C3557 0.929 . S
H3570 C3558 0.932 1_554 S
H3571 C3558 0.975 . S
H3572 C3558 0.963 . S
H3573 C3559 0.961 . S
H3574 C3559 0.961 . S
H3575 C3559 0.961 1_554 S
H3576 C3560 0.931 . S
H3577 C3565 0.930 . S
H3578 C3566 0.956 . S
H3579 C3566 0.961 . S
H3580 C3566 0.961 . S
H3581 C3567 0.958 . S
H3582 C3567 0.961 . S
H3583 C3567 0.960 . S
C3584 C3585 1.391 . S
C3584 C3586 1.394 . S
C3584 H3600 0.931 . S
C3585 C3584 1.391 . S
C3585 C3589 1.376 . S
C3586 C3584 1.394 . S
C3586 C3587 1.369 . S
C3586 C3590 1.531 . S
C3587 C3586 1.369 . S
C3587 C3588 1.410 . S
C3587 C3595 1.503 . S
C3588 C3587 1.410 . S
C3588 C3589 1.392 . S
C3588 C3591 1.511 . S
C3589 C3585 1.376 . S
C3589 C3588 1.392 . S
C3589 H3601 0.929 . S
C3590 C3586 1.531 . S
C3590 H3602 0.960 . S
C3590 H3603 0.962 . S
C3590 H3604 0.960 . S
C3591 C3588 1.511 . S
C3591 H3605 0.961 . S
C3591 H3606 0.961 . S
C3591 H3607 0.961 . S
C3592 C3593 1.370 . S
C3592 C3594 1.363 . S
C3592 H3608 0.931 . S
C3593 C3592 1.370 . S
C3593 C3597 1.408 . S
C3594 C3592 1.363 . S
C3594 C3595 1.370 . S
C3594 C3598 1.524 . S
C3595 C3587 1.503 . S
C3595 C3594 1.370 . S
C3595 C3596 1.403 . S
C3596 C3595 1.403 . S
C3596 C3597 1.404 . S
C3596 C3599 1.539 . S
C3597 C3593 1.408 . S
C3597 C3596 1.404 . S
C3597 H3609 0.930 . S
C3598 C3594 1.524 . S
C3598 H3610 0.956 . S
C3598 H3611 0.961 . S
C3598 H3612 0.961 . S
C3599 C3596 1.539 . S
C3599 H3613 0.958 . S
C3599 H3614 0.961 . S
C3599 H3615 0.960 . S
H3600 C3584 0.931 . S
H3601 C3589 0.929 . S
H3602 C3590 0.960 . S
H3603 C3590 0.962 . S
H3604 C3590 0.960 . S
H3605 C3591 0.961 . S
H3606 C3591 0.961 . S
H3607 C3591 0.961 . S
H3608 C3592 0.931 . S
H3609 C3597 0.930 . S
H3610 C3598 0.956 . S
H3611 C3598 0.961 . S
H3612 C3598 0.961 . S
H3613 C3599 0.958 . S
H3614 C3599 0.961 . S
H3615 C3599 0.960 . S
C3616 C3617 1.391 . S
C3616 C3618 1.394 . S
C3616 H3632 0.931 . S
C3617 C3616 1.391 . S
C3617 C3621 1.376 . S
C3618 C3616 1.394 . S
C3618 C3619 1.369 . S
C3618 C3622 1.531 . S
C3619 C3618 1.369 . S
C3619 C3620 1.410 . S
C3619 C3627 1.503 1_556 S
C3620 C3619 1.410 . S
C3620 C3621 1.392 . S
C3620 C3623 1.511 1_556 S
C3621 C3617 1.376 . S
C3621 C3620 1.392 . S
C3621 H3633 0.929 . S
C3622 C3618 1.531 . S
C3622 H3634 0.960 . S
C3622 H3635 0.962 . S
C3622 H3636 0.960 . S
C3623 C3620 1.511 1_554 S
C3623 H3637 0.961 . S
C3623 H3638 0.961 . S
C3623 H3639 0.961 . S
C3624 C3625 1.370 . S
C3624 C3626 1.363 . S
C3624 H3640 0.931 . S
C3625 C3624 1.370 . S
C3625 C3629 1.408 . S
C3626 C3624 1.363 . S
C3626 C3627 1.370 . S
C3626 C3630 1.524 1_554 S
C3627 C3619 1.503 1_554 S
C3627 C3626 1.370 . S
C3627 C3628 1.403 . S
C3628 C3627 1.403 . S
C3628 C3629 1.404 . S
C3628 C3631 1.539 . S
C3629 C3625 1.408 . S
C3629 C3628 1.404 . S
C3629 H3641 0.930 . S
C3630 C3626 1.524 1_556 S
C3630 H3642 0.956 . S
C3630 H3643 0.961 . S
C3630 H3644 0.961 . S
C3631 C3628 1.539 . S
C3631 H3645 0.958 . S
C3631 H3646 0.961 . S
C3631 H3647 0.960 . S
H3632 C3616 0.931 . S
H3633 C3621 0.929 . S
H3634 C3622 0.960 . S
H3635 C3622 0.962 . S
H3636 C3622 0.960 . S
H3637 C3623 0.961 . S
H3638 C3623 0.961 . S
H3639 C3623 0.961 . S
H3640 C3624 0.931 . S
H3641 C3629 0.930 . S
H3642 C3630 0.956 . S
H3643 C3630 0.961 . S
H3644 C3630 0.961 . S
H3645 C3631 0.958 . S
H3646 C3631 0.961 . S
H3647 C3631 0.960 . S
C3648 C3649 1.391 . S
C3648 C3650 1.394 . S
C3648 H3664 0.931 . S
C3649 C3648 1.391 . S
C3649 C3653 1.376 . S
C3650 C3648 1.394 . S
C3650 C3651 1.369 . S
C3650 C3654 1.531 . S
C3651 C3650 1.369 . S
C3651 C3652 1.410 . S
C3651 C3659 1.503 . S
C3652 C3651 1.410 . S
C3652 C3653 1.392 . S
C3652 C3655 1.511 . S
C3653 C3649 1.376 . S
C3653 C3652 1.392 . S
C3653 H3665 0.929 . S
C3654 C3650 1.531 . S
C3654 H3666 0.960 . S
C3654 H3667 0.962 . S
C3654 H3668 0.960 . S
C3655 C3652 1.511 . S
C3655 H3669 0.961 . S
C3655 H3670 0.961 . S
C3655 H3671 0.961 . S
C3656 C3657 1.370 . S
C3656 C3658 1.363 . S
C3656 H3672 0.931 . S
C3657 C3656 1.370 . S
C3657 C3661 1.408 . S
C3658 C3656 1.363 . S
C3658 C3659 1.370 . S
C3658 C3662 1.524 . S
C3659 C3651 1.503 . S
C3659 C3658 1.370 . S
C3659 C3660 1.403 . S
C3660 C3659 1.403 . S
C3660 C3661 1.404 . S
C3660 C3663 1.539 . S
C3661 C3657 1.408 . S
C3661 C3660 1.404 . S
C3661 H3673 0.930 . S
C3662 C3658 1.524 . S
C3662 H3674 0.956 . S
C3662 H3675 0.961 . S
C3662 H3676 0.961 . S
C3663 C3660 1.539 . S
C3663 H3677 0.958 . S
C3663 H3678 0.961 . S
C3663 H3679 0.960 . S
H3664 C3648 0.931 . S
H3665 C3653 0.929 . S
H3666 C3654 0.960 . S
H3667 C3654 0.962 . S
H3668 C3654 0.960 . S
H3669 C3655 0.961 . S
H3670 C3655 0.961 . S
H3671 C3655 0.961 . S
H3672 C3656 0.931 . S
H3673 C3661 0.930 . S
H3674 C3662 0.956 . S
H3675 C3662 0.961 . S
H3676 C3662 0.961 . S
H3677 C3663 0.958 . S
H3678 C3663 0.961 . S
H3679 C3663 0.960 . S
C3680 C3681 1.391 . S
C3680 C3682 1.394 . S
C3680 H3696 0.931 . S
C3681 C3680 1.391 . S
C3681 C3685 1.376 . S
C3682 C3680 1.394 . S
C3682 C3683 1.369 . S
C3682 C3686 1.531 . S
C3683 C3682 1.369 . S
C3683 C3684 1.410 . S
C3683 C3691 1.503 . S
C3684 C3683 1.410 . S
C3684 C3685 1.392 . S
C3684 C3687 1.511 . S
C3685 C3681 1.376 . S
C3685 C3684 1.392 . S
C3685 H3697 0.929 . S
C3686 C3682 1.531 . S
C3686 H3698 0.960 . S
C3686 H3699 0.962 . S
C3686 H3700 0.960 . S
C3687 C3684 1.511 . S
C3687 H3701 0.961 . S
C3687 H3702 0.961 . S
C3687 H3703 0.961 . S
C3688 C3689 1.370 . S
C3688 C3690 1.363 . S
C3688 H3704 0.931 . S
C3689 C3688 1.370 . S
C3689 C3693 1.408 . S
C3690 C3688 1.363 . S
C3690 C3691 1.370 . S
C3690 C3694 1.524 . S
C3691 C3683 1.503 . S
C3691 C3690 1.370 . S
C3691 C3692 1.403 . S
C3692 C3691 1.403 . S
C3692 C3693 1.404 . S
C3692 C3695 1.539 . S
C3693 C3689 1.408 . S
C3693 C3692 1.404 . S
C3693 H3705 0.930 . S
C3694 C3690 1.524 . S
C3694 H3706 0.956 . S
C3694 H3707 0.961 . S
C3694 H3708 0.961 . S
C3695 C3692 1.539 . S
C3695 H3709 0.958 . S
C3695 H3710 0.961 . S
C3695 H3711 0.960 . S
H3696 C3680 0.931 . S
H3697 C3685 0.929 . S
H3698 C3686 0.960 . S
H3699 C3686 0.962 . S
H3700 C3686 0.960 . S
H3701 C3687 0.961 . S
H3702 C3687 0.961 . S
H3703 C3687 0.961 . S
H3704 C3688 0.931 . S
H3705 C3693 0.930 . S
H3706 C3694 0.956 . S
H3707 C3694 0.961 . S
H3708 C3694 0.961 . S
H3709 C3695 0.958 . S
H3710 C3695 0.961 . S
H3711 C3695 0.960 . S
C3712 C3713 1.391 . S
C3712 C3714 1.394 . S
C3712 H3728 0.931 . S
C3713 C3712 1.391 . S
C3713 C3717 1.376 . S
C3714 C3712 1.394 . S
C3714 C3715 1.369 . S
C3714 C3718 1.531 . S
C3715 C3714 1.369 . S
C3715 C3716 1.410 . S
C3715 C3723 1.503 . S
C3716 C3715 1.410 . S
C3716 C3717 1.392 . S
C3716 C3719 1.511 . S
C3717 C3713 1.376 . S
C3717 C3716 1.392 . S
C3717 H3729 0.929 . S
C3718 C3714 1.531 . S
C3718 H3730 0.960 . S
C3718 H3731 0.962 . S
C3718 H3732 0.960 . S
C3719 C3716 1.511 . S
C3719 H3733 0.961 . S
C3719 H3734 0.961 . S
C3719 H3735 0.961 . S
C3720 C3721 1.370 . S
C3720 C3722 1.363 . S
C3720 H3736 0.931 . S
C3721 C3720 1.370 . S
C3721 C3725 1.408 . S
C3722 C3720 1.363 . S
C3722 C3723 1.370 . S
C3722 C3726 1.524 . S
C3723 C3715 1.503 . S
C3723 C3722 1.370 . S
C3723 C3724 1.403 . S
C3724 C3723 1.403 . S
C3724 C3725 1.404 . S
C3724 C3727 1.539 . S
C3725 C3721 1.408 . S
C3725 C3724 1.404 . S
C3725 H3737 0.930 . S
C3726 C3722 1.524 . S
C3726 H3738 0.956 . S
C3726 H3739 0.961 . S
C3726 H3740 0.961 . S
C3727 C3724 1.539 . S
C3727 H3741 0.958 . S
C3727 H3742 0.961 . S
C3727 H3743 0.960 . S
H3728 C3712 0.931 . S
H3729 C3717 0.929 . S
H3730 C3718 0.960 . S
H3731 C3718 0.962 . S
H3732 C3718 0.960 . S
H3733 C3719 0.961 . S
H3734 C3719 0.961 . S
H3735 C3719 0.961 . S
H3736 C3720 0.931 . S
H3737 C3725 0.930 . S
H3738 C3726 0.956 . S
H3739 C3726 0.961 . S
H3740 C3726 0.961 . S
H3741 C3727 0.958 . S
H3742 C3727 0.961 . S
H3743 C3727 0.960 . S
C3744 C3745 1.391 . S
C3744 C3746 1.394 . S
C3744 H3760 0.931 . S
C3745 C3744 1.391 . S
C3745 C3749 1.376 . S
C3746 C3744 1.394 . S
C3746 C3747 1.369 . S
C3746 C3750 1.531 . S
C3747 C3746 1.369 . S
C3747 C3748 1.410 . S
C3747 C3755 1.503 1_556 S
C3748 C3747 1.410 . S
C3748 C3749 1.392 . S
C3748 C3751 1.511 1_556 S
C3749 C3745 1.376 . S
C3749 C3748 1.392 . S
C3749 H3761 0.929 . S
C3750 C3746 1.531 . S
C3750 H3762 0.960 . S
C3750 H3763 0.962 . S
C3750 H3764 0.960 . S
C3751 C3748 1.511 1_554 S
C3751 H3765 0.961 . S
C3751 H3766 0.961 . S
C3751 H3767 0.961 . S
C3752 C3753 1.370 . S
C3752 C3754 1.363 . S
C3752 H3768 0.931 . S
C3753 C3752 1.370 . S
C3753 C3757 1.408 . S
C3754 C3752 1.363 . S
C3754 C3755 1.370 . S
C3754 C3758 1.548 . S
C3755 C3747 1.503 1_554 S
C3755 C3754 1.370 . S
C3755 C3756 1.403 . S
C3756 C3755 1.403 . S
C3756 C3757 1.404 . S
C3756 C3759 1.539 . S
C3757 C3753 1.408 . S
C3757 C3756 1.404 . S
C3757 H3769 0.930 . S
C3758 C3754 1.548 . S
C3758 H3770 0.913 1_554 S
C3758 H3771 0.963 . S
C3758 H3772 0.980 . S
C3759 C3756 1.539 . S
C3759 H3773 0.958 . S
C3759 H3774 0.961 . S
C3759 H3775 0.960 . S
H3760 C3744 0.931 . S
H3761 C3749 0.929 . S
H3762 C3750 0.960 . S
H3763 C3750 0.962 . S
H3764 C3750 0.960 . S
H3765 C3751 0.961 . S
H3766 C3751 0.961 . S
H3767 C3751 0.961 . S
H3768 C3752 0.931 . S
H3769 C3757 0.930 . S
H3770 C3758 0.913 1_556 S
H3771 C3758 0.963 . S
H3772 C3758 0.980 . S
H3773 C3759 0.958 . S
H3774 C3759 0.961 . S
H3775 C3759 0.960 . S
C3776 C3777 1.391 . S
C3776 C3778 1.394 . S
C3776 H3792 0.931 . S
C3777 C3776 1.391 . S
C3777 C3781 1.376 . S
C3778 C3776 1.394 . S
C3778 C3779 1.369 . S
C3778 C3782 1.531 . S
C3779 C3778 1.369 . S
C3779 C3780 1.410 . S
C3779 C3787 1.503 . S
C3780 C3779 1.410 . S
C3780 C3781 1.392 . S
C3780 C3783 1.511 . S
C3781 C3777 1.376 . S
C3781 C3780 1.392 . S
C3781 H3793 0.929 . S
C3782 C3778 1.531 . S
C3782 H3794 0.960 . S
C3782 H3795 0.962 . S
C3782 H3796 0.960 . S
C3783 C3780 1.511 . S
C3783 H3797 0.961 . S
C3783 H3798 0.961 . S
C3783 H3799 0.961 . S
C3784 C3785 1.370 . S
C3784 C3786 1.363 . S
C3784 H3800 0.931 . S
C3785 C3784 1.370 . S
C3785 C3789 1.408 . S
C3786 C3784 1.363 . S
C3786 C3787 1.370 . S
C3786 C3790 1.524 . S
C3787 C3779 1.503 . S
C3787 C3786 1.370 . S
C3787 C3788 1.403 . S
C3788 C3787 1.403 . S
C3788 C3789 1.404 . S
C3788 C3791 1.539 . S
C3789 C3785 1.408 . S
C3789 C3788 1.404 . S
C3789 H3801 0.930 . S
C3790 C3786 1.524 . S
C3790 H3802 0.956 . S
C3790 H3803 0.961 . S
C3790 H3804 0.961 . S
C3791 C3788 1.539 . S
C3791 H3805 0.958 . S
C3791 H3806 0.961 . S
C3791 H3807 0.960 . S
H3792 C3776 0.931 . S
H3793 C3781 0.929 . S
H3794 C3782 0.960 . S
H3795 C3782 0.962 . S
H3796 C3782 0.960 . S
H3797 C3783 0.961 . S
H3798 C3783 0.961 . S
H3799 C3783 0.961 . S
H3800 C3784 0.931 . S
H3801 C3789 0.930 . S
H3802 C3790 0.956 . S
H3803 C3790 0.961 . S
H3804 C3790 0.961 . S
H3805 C3791 0.958 . S
H3806 C3791 0.961 . S
H3807 C3791 0.960 . S
C3808 C3809 1.391 . S
C3808 C3810 1.394 . S
C3808 H3824 0.931 . S
C3809 C3808 1.391 . S
C3809 C3813 1.376 . S
C3810 C3808 1.394 . S
C3810 C3811 1.369 . S
C3810 C3814 1.531 . S
C3811 C3810 1.369 . S
C3811 C3812 1.410 . S
C3811 C3819 1.503 . S
C3812 C3811 1.410 . S
C3812 C3813 1.392 . S
C3812 C3815 1.511 . S
C3813 C3809 1.376 . S
C3813 C3812 1.392 . S
C3813 H3825 0.929 . S
C3814 C3810 1.531 . S
C3814 H3826 0.960 . S
C3814 H3827 0.962 . S
C3814 H3828 0.960 . S
C3815 C3812 1.511 . S
C3815 H3829 0.961 . S
C3815 H3830 0.961 . S
C3815 H3831 0.961 . S
C3816 C3817 1.370 . S
C3816 C3818 1.363 . S
C3816 H3832 0.931 . S
C3817 C3816 1.370 . S
C3817 C3821 1.408 . S
C3818 C3816 1.363 . S
C3818 C3819 1.370 . S
C3818 C3822 1.524 . S
C3819 C3811 1.503 . S
C3819 C3818 1.370 . S
C3819 C3820 1.403 . S
C3820 C3819 1.403 . S
C3820 C3821 1.404 . S
C3820 C3823 1.539 . S
C3821 C3817 1.408 . S
C3821 C3820 1.404 . S
C3821 H3833 0.930 . S
C3822 C3818 1.524 . S
C3822 H3834 0.956 . S
C3822 H3835 0.961 . S
C3822 H3836 0.961 . S
C3823 C3820 1.539 . S
C3823 H3837 0.958 . S
C3823 H3838 0.961 . S
C3823 H3839 0.960 . S
H3824 C3808 0.931 . S
H3825 C3813 0.929 . S
H3826 C3814 0.960 . S
H3827 C3814 0.962 . S
H3828 C3814 0.960 . S
H3829 C3815 0.961 . S
H3830 C3815 0.961 . S
H3831 C3815 0.961 . S
H3832 C3816 0.931 . S
H3833 C3821 0.930 . S
H3834 C3822 0.956 . S
H3835 C3822 0.961 . S
H3836 C3822 0.961 . S
H3837 C3823 0.958 . S
H3838 C3823 0.961 . S
H3839 C3823 0.960 . S
C3840 C3841 1.391 . S
C3840 C3842 1.394 . S
C3840 H3856 0.931 . S
C3841 C3840 1.391 . S
C3841 C3845 1.376 . S
C3842 C3840 1.394 . S
C3842 C3843 1.369 . S
C3842 C3846 1.531 . S
C3843 C3842 1.369 . S
C3843 C3844 1.410 . S
C3843 C3851 1.503 . S
C3844 C3843 1.410 . S
C3844 C3845 1.392 . S
C3844 C3847 1.511 . S
C3845 C3841 1.376 . S
C3845 C3844 1.392 . S
C3845 H3857 0.929 . S
C3846 C3842 1.531 . S
C3846 H3858 0.960 . S
C3846 H3859 0.962 . S
C3846 H3860 0.960 . S
C3847 C3844 1.511 . S
C3847 H3861 0.961 . S
C3847 H3862 0.961 . S
C3847 H3863 0.961 . S
C3848 C3849 1.370 . S
C3848 C3850 1.363 . S
C3848 H3864 0.931 . S
C3849 C3848 1.370 . S
C3849 C3853 1.408 . S
C3850 C3848 1.363 . S
C3850 C3851 1.370 . S
C3850 C3854 1.524 . S
C3851 C3843 1.503 . S
C3851 C3850 1.370 . S
C3851 C3852 1.403 . S
C3852 C3851 1.403 . S
C3852 C3853 1.404 . S
C3852 C3855 1.539 . S
C3853 C3849 1.408 . S
C3853 C3852 1.404 . S
C3853 H3865 0.930 . S
C3854 C3850 1.524 . S
C3854 H3866 0.956 . S
C3854 H3867 0.961 . S
C3854 H3868 0.961 . S
C3855 C3852 1.539 . S
C3855 H3869 0.958 . S
C3855 H3870 0.961 . S
C3855 H3871 0.960 . S
H3856 C3840 0.931 . S
H3857 C3845 0.929 . S
H3858 C3846 0.960 . S
H3859 C3846 0.962 . S
H3860 C3846 0.960 . S
H3861 C3847 0.961 . S
H3862 C3847 0.961 . S
H3863 C3847 0.961 . S
H3864 C3848 0.931 . S
H3865 C3853 0.930 . S
H3866 C3854 0.956 . S
H3867 C3854 0.961 . S
H3868 C3854 0.961 . S
H3869 C3855 0.958 . S
H3870 C3855 0.961 . S
H3871 C3855 0.960 . S
C3872 C3873 1.391 . S
C3872 C3874 1.394 . S
C3872 H3888 0.931 . S
C3873 C3872 1.391 . S
C3873 C3877 1.376 . S
C3874 C3872 1.394 . S
C3874 C3875 1.369 . S
C3874 C3878 1.531 . S
C3875 C3874 1.369 . S
C3875 C3876 1.410 . S
C3875 C3883 1.503 . S
C3876 C3875 1.410 . S
C3876 C3877 1.392 . S
C3876 C3879 1.511 . S
C3877 C3873 1.376 . S
C3877 C3876 1.392 . S
C3877 H3889 0.929 . S
C3878 C3874 1.531 . S
C3878 H3890 0.960 . S
C3878 H3891 0.962 . S
C3878 H3892 0.960 . S
C3879 C3876 1.511 . S
C3879 H3893 0.961 . S
C3879 H3894 0.961 . S
C3879 H3895 0.961 . S
C3880 C3881 1.370 . S
C3880 C3882 1.363 . S
C3880 H3896 0.931 . S
C3881 C3880 1.370 . S
C3881 C3885 1.408 . S
C3882 C3880 1.363 . S
C3882 C3883 1.370 . S
C3882 C3886 1.524 . S
C3883 C3875 1.503 . S
C3883 C3882 1.370 . S
C3883 C3884 1.403 . S
C3884 C3883 1.403 . S
C3884 C3885 1.404 . S
C3884 C3887 1.539 . S
C3885 C3881 1.408 . S
C3885 C3884 1.404 . S
C3885 H3897 0.930 . S
C3886 C3882 1.524 . S
C3886 H3898 0.956 . S
C3886 H3899 0.961 . S
C3886 H3900 0.961 . S
C3887 C3884 1.539 . S
C3887 H3901 0.958 . S
C3887 H3902 0.961 . S
C3887 H3903 0.960 . S
H3888 C3872 0.931 . S
H3889 C3877 0.929 . S
H3890 C3878 0.960 . S
H3891 C3878 0.962 . S
H3892 C3878 0.960 . S
H3893 C3879 0.961 . S
H3894 C3879 0.961 . S
H3895 C3879 0.961 . S
H3896 C3880 0.931 . S
H3897 C3885 0.930 . S
H3898 C3886 0.956 . S
H3899 C3886 0.961 . S
H3900 C3886 0.961 . S
H3901 C3887 0.958 . S
H3902 C3887 0.961 . S
H3903 C3887 0.960 . S
C3904 C3905 1.391 . S
C3904 C3906 1.394 . S
C3904 H3920 0.931 . S
C3905 C3904 1.391 . S
C3905 C3909 1.376 . S
C3906 C3904 1.394 . S
C3906 C3907 1.369 . S
C3906 C3910 1.531 . S
C3907 C3906 1.369 . S
C3907 C3908 1.410 . S
C3907 C3915 1.503 . S
C3908 C3907 1.410 . S
C3908 C3909 1.392 . S
C3908 C3911 1.511 . S
C3909 C3905 1.376 . S
C3909 C3908 1.392 . S
C3909 H3921 0.929 . S
C3910 C3906 1.531 . S
C3910 H3922 0.960 . S
C3910 H3923 0.962 . S
C3910 H3924 0.960 . S
C3911 C3908 1.511 . S
C3911 H3925 0.961 . S
C3911 H3926 0.961 . S
C3911 H3927 0.961 . S
C3912 C3913 1.370 . S
C3912 C3914 1.363 . S
C3912 H3928 0.931 . S
C3913 C3912 1.370 . S
C3913 C3917 1.408 . S
C3914 C3912 1.363 . S
C3914 C3915 1.370 . S
C3914 C3918 1.524 . S
C3915 C3907 1.503 . S
C3915 C3914 1.370 . S
C3915 C3916 1.403 . S
C3916 C3915 1.403 . S
C3916 C3917 1.404 . S
C3916 C3919 1.539 . S
C3917 C3913 1.408 . S
C3917 C3916 1.404 . S
C3917 H3929 0.930 . S
C3918 C3914 1.524 . S
C3918 H3930 0.956 . S
C3918 H3931 0.961 . S
C3918 H3932 0.961 . S
C3919 C3916 1.539 . S
C3919 H3933 0.958 . S
C3919 H3934 0.961 . S
C3919 H3935 0.960 . S
H3920 C3904 0.931 . S
H3921 C3909 0.929 . S
H3922 C3910 0.960 . S
H3923 C3910 0.962 . S
H3924 C3910 0.960 . S
H3925 C3911 0.961 . S
H3926 C3911 0.961 . S
H3927 C3911 0.961 . S
H3928 C3912 0.931 . S
H3929 C3917 0.930 . S
H3930 C3918 0.956 . S
H3931 C3918 0.961 . S
H3932 C3918 0.961 . S
H3933 C3919 0.958 . S
H3934 C3919 0.961 . S
H3935 C3919 0.960 . S
C3936 C3937 1.391 . S
C3936 C3938 1.394 . S
C3936 H3952 0.931 . S
C3937 C3936 1.391 . S
C3937 C3941 1.376 . S
C3938 C3936 1.394 . S
C3938 C3939 1.369 . S
C3938 C3942 1.531 . S
C3939 C3938 1.369 . S
C3939 C3940 1.410 . S
C3939 C3947 1.503 . S
C3940 C3939 1.410 . S
C3940 C3941 1.392 . S
C3940 C3943 1.511 . S
C3941 C3937 1.376 . S
C3941 C3940 1.392 . S
C3941 H3953 0.929 . S
C3942 C3938 1.531 . S
C3942 H3954 0.960 . S
C3942 H3955 0.962 . S
C3942 H3956 0.960 . S
C3943 C3940 1.511 . S
C3943 H3957 0.961 . S
C3943 H3958 0.961 . S
C3943 H3959 0.961 . S
C3944 C3945 1.370 . S
C3944 C3946 1.363 . S
C3944 H3960 0.931 . S
C3945 C3944 1.370 . S
C3945 C3949 1.408 . S
C3946 C3944 1.363 . S
C3946 C3947 1.370 . S
C3946 C3950 1.524 . S
C3947 C3939 1.503 . S
C3947 C3946 1.370 . S
C3947 C3948 1.403 . S
C3948 C3947 1.403 . S
C3948 C3949 1.404 . S
C3948 C3951 1.539 . S
C3949 C3945 1.408 . S
C3949 C3948 1.404 . S
C3949 H3961 0.930 . S
C3950 C3946 1.524 . S
C3950 H3962 0.956 . S
C3950 H3963 0.961 . S
C3950 H3964 0.961 . S
C3951 C3948 1.539 . S
C3951 H3965 0.958 . S
C3951 H3966 0.961 . S
C3951 H3967 0.960 . S
H3952 C3936 0.931 . S
H3953 C3941 0.929 . S
H3954 C3942 0.960 . S
H3955 C3942 0.962 . S
H3956 C3942 0.960 . S
H3957 C3943 0.961 . S
H3958 C3943 0.961 . S
H3959 C3943 0.961 . S
H3960 C3944 0.931 . S
H3961 C3949 0.930 . S
H3962 C3950 0.956 . S
H3963 C3950 0.961 . S
H3964 C3950 0.961 . S
H3965 C3951 0.958 . S
H3966 C3951 0.961 . S
H3967 C3951 0.960 . S
C3968 C3969 1.391 . S
C3968 C3970 1.394 . S
C3968 H3984 0.931 . S
C3969 C3968 1.391 . S
C3969 C3973 1.376 . S
C3970 C3968 1.394 . S
C3970 C3971 1.369 . S
C3970 C3974 1.531 . S
C3971 C3970 1.369 . S
C3971 C3972 1.410 . S
C3971 C3979 1.503 . S
C3972 C3971 1.410 . S
C3972 C3973 1.392 . S
C3972 C3975 1.511 . S
C3973 C3969 1.376 . S
C3973 C3972 1.392 . S
C3973 H3985 0.929 . S
C3974 C3970 1.531 . S
C3974 H3986 0.960 . S
C3974 H3987 0.962 . S
C3974 H3988 0.960 . S
C3975 C3972 1.511 . S
C3975 H3989 0.961 . S
C3975 H3990 0.961 . S
C3975 H3991 0.961 . S
C3976 C3977 1.370 . S
C3976 C3978 1.363 . S
C3976 H3992 0.931 . S
C3977 C3976 1.370 . S
C3977 C3981 1.408 . S
C3978 C3976 1.363 . S
C3978 C3979 1.370 . S
C3978 C3982 1.524 . S
C3979 C3971 1.503 . S
C3979 C3978 1.370 . S
C3979 C3980 1.403 . S
C3980 C3979 1.403 . S
C3980 C3981 1.404 . S
C3980 C3983 1.539 . S
C3981 C3977 1.408 . S
C3981 C3980 1.404 . S
C3981 H3993 0.930 . S
C3982 C3978 1.524 . S
C3982 H3994 0.956 . S
C3982 H3995 0.961 . S
C3982 H3996 0.961 . S
C3983 C3980 1.539 . S
C3983 H3997 0.958 . S
C3983 H3998 0.961 . S
C3983 H3999 0.960 . S
H3984 C3968 0.931 . S
H3985 C3973 0.929 . S
H3986 C3974 0.960 . S
H3987 C3974 0.962 . S
H3988 C3974 0.960 . S
H3989 C3975 0.961 . S
H3990 C3975 0.961 . S
H3991 C3975 0.961 . S
H3992 C3976 0.931 . S
H3993 C3981 0.930 . S
H3994 C3982 0.956 . S
H3995 C3982 0.961 . S
H3996 C3982 0.961 . S
H3997 C3983 0.958 . S
H3998 C3983 0.961 . S
H3999 C3983 0.960 . S
C4000 C4001 1.391 . S
C4000 C4002 1.394 . S
C4000 H4016 0.931 . S
C4001 C4000 1.391 . S
C4001 C4005 1.376 . S
C4002 C4000 1.394 . S
C4002 C4003 1.369 . S
C4002 C4006 1.531 . S
C4003 C4002 1.369 . S
C4003 C4004 1.410 . S
C4003 C4011 1.503 . S
C4004 C4003 1.410 . S
C4004 C4005 1.392 . S
C4004 C4007 1.511 . S
C4005 C4001 1.376 . S
C4005 C4004 1.392 . S
C4005 H4017 0.929 . S
C4006 C4002 1.531 . S
C4006 H4018 0.960 . S
C4006 H4019 0.962 . S
C4006 H4020 0.960 . S
C4007 C4004 1.511 . S
C4007 H4021 0.961 . S
C4007 H4022 0.961 . S
C4007 H4023 0.961 . S
C4008 C4009 1.370 . S
C4008 C4010 1.363 . S
C4008 H4024 0.931 . S
C4009 C4008 1.370 . S
C4009 C4013 1.408 . S
C4010 C4008 1.363 . S
C4010 C4011 1.370 . S
C4010 C4014 1.524 . S
C4011 C4003 1.503 . S
C4011 C4010 1.370 . S
C4011 C4012 1.403 . S
C4012 C4011 1.403 . S
C4012 C4013 1.404 . S
C4012 C4015 1.539 . S
C4013 C4009 1.408 . S
C4013 C4012 1.404 . S
C4013 H4025 0.930 . S
C4014 C4010 1.524 . S
C4014 H4026 0.956 . S
C4014 H4027 0.961 . S
C4014 H4028 0.961 . S
C4015 C4012 1.539 . S
C4015 H4029 0.958 . S
C4015 H4030 0.961 . S
C4015 H4031 0.960 . S
H4016 C4000 0.931 . S
H4017 C4005 0.929 . S
H4018 C4006 0.960 . S
H4019 C4006 0.962 . S
H4020 C4006 0.960 . S
H4021 C4007 0.961 . S
H4022 C4007 0.961 . S
H4023 C4007 0.961 . S
H4024 C4008 0.931 . S
H4025 C4013 0.930 . S
H4026 C4014 0.956 . S
H4027 C4014 0.961 . S
H4028 C4014 0.961 . S
H4029 C4015 0.958 . S
H4030 C4015 0.961 . S
H4031 C4015 0.960 . S
C4032 C4033 1.391 . S
C4032 C4034 1.394 . S
C4032 H4048 0.931 . S
C4033 C4032 1.391 . S
C4033 C4037 1.376 . S
C4034 C4032 1.394 . S
C4034 C4035 1.369 . S
C4034 C4038 1.531 . S
C4035 C4034 1.369 . S
C4035 C4036 1.410 . S
C4035 C4043 1.503 . S
C4036 C4035 1.410 . S
C4036 C4037 1.392 . S
C4036 C4039 1.511 . S
C4037 C4033 1.376 . S
C4037 C4036 1.392 . S
C4037 H4049 0.929 . S
C4038 C4034 1.531 . S
C4038 H4050 0.960 . S
C4038 H4051 0.962 . S
C4038 H4052 0.960 . S
C4039 C4036 1.511 . S
C4039 H4053 0.961 . S
C4039 H4054 0.961 . S
C4039 H4055 0.961 . S
C4040 C4041 1.370 . S
C4040 C4042 1.363 . S
C4040 H4056 0.931 . S
C4041 C4040 1.370 . S
C4041 C4045 1.408 . S
C4042 C4040 1.363 . S
C4042 C4043 1.370 . S
C4042 C4046 1.524 . S
C4043 C4035 1.503 . S
C4043 C4042 1.370 . S
C4043 C4044 1.403 . S
C4044 C4043 1.403 . S
C4044 C4045 1.404 . S
C4044 C4047 1.539 . S
C4045 C4041 1.408 . S
C4045 C4044 1.404 . S
C4045 H4057 0.930 . S
C4046 C4042 1.524 . S
C4046 H4058 0.956 . S
C4046 H4059 0.961 . S
C4046 H4060 0.961 . S
C4047 C4044 1.539 . S
C4047 H4061 0.958 . S
C4047 H4062 0.961 . S
C4047 H4063 0.960 . S
H4048 C4032 0.931 . S
H4049 C4037 0.929 . S
H4050 C4038 0.960 . S
H4051 C4038 0.962 . S
H4052 C4038 0.960 . S
H4053 C4039 0.961 . S
H4054 C4039 0.961 . S
H4055 C4039 0.961 . S
H4056 C4040 0.931 . S
H4057 C4045 0.930 . S
H4058 C4046 0.956 . S
H4059 C4046 0.961 . S
H4060 C4046 0.961 . S
H4061 C4047 0.958 . S
H4062 C4047 0.961 . S
H4063 C4047 0.960 . S
C4064 C4065 1.391 . S
C4064 C4066 1.394 . S
C4064 H4080 0.931 . S
C4065 C4064 1.391 . S
C4065 C4069 1.376 . S
C4066 C4064 1.394 . S
C4066 C4067 1.369 . S
C4066 C4070 1.531 . S
C4067 C4066 1.369 . S
C4067 C4068 1.410 . S
C4067 C4075 1.503 . S
C4068 C4067 1.410 . S
C4068 C4069 1.392 . S
C4068 C4071 1.511 . S
C4069 C4065 1.376 . S
C4069 C4068 1.392 . S
C4069 H4081 0.929 . S
C4070 C4066 1.531 . S
C4070 H4082 0.960 . S
C4070 H4083 0.962 . S
C4070 H4084 0.960 . S
C4071 C4068 1.511 . S
C4071 H4085 0.961 . S
C4071 H4086 0.961 . S
C4071 H4087 0.961 . S
C4072 C4073 1.370 . S
C4072 C4074 1.363 . S
C4072 H4088 0.931 . S
C4073 C4072 1.370 . S
C4073 C4077 1.408 . S
C4074 C4072 1.363 . S
C4074 C4075 1.370 . S
C4074 C4078 1.524 . S
C4075 C4067 1.503 . S
C4075 C4074 1.370 . S
C4075 C4076 1.403 . S
C4076 C4075 1.403 . S
C4076 C4077 1.404 . S
C4076 C4079 1.539 . S
C4077 C4073 1.408 . S
C4077 C4076 1.404 . S
C4077 H4089 0.930 . S
C4078 C4074 1.524 . S
C4078 H4090 0.956 . S
C4078 H4091 0.961 . S
C4078 H4092 0.961 . S
C4079 C4076 1.539 . S
C4079 H4093 0.958 . S
C4079 H4094 0.961 . S
C4079 H4095 0.960 . S
H4080 C4064 0.931 . S
H4081 C4069 0.929 . S
H4082 C4070 0.960 . S
H4083 C4070 0.962 . S
H4084 C4070 0.960 . S
H4085 C4071 0.961 . S
H4086 C4071 0.961 . S
H4087 C4071 0.961 . S
H4088 C4072 0.931 . S
H4089 C4077 0.930 . S
H4090 C4078 0.956 . S
H4091 C4078 0.961 . S
H4092 C4078 0.961 . S
H4093 C4079 0.958 . S
H4094 C4079 0.961 . S
H4095 C4079 0.960 . S
C4096 C4097 1.391 . S
C4096 C4098 1.394 . S
C4096 H4112 0.931 . S
C4097 C4096 1.391 . S
C4097 C4101 1.376 . S
C4098 C4096 1.394 . S
C4098 C4099 1.369 . S
C4098 C4102 1.531 . S
C4099 C4098 1.369 . S
C4099 C4100 1.410 . S
C4099 C4107 1.503 . S
C4100 C4099 1.410 . S
C4100 C4101 1.392 . S
C4100 C4103 1.511 . S
C4101 C4097 1.376 . S
C4101 C4100 1.392 . S
C4101 H4113 0.929 . S
C4102 C4098 1.531 . S
C4102 H4114 0.960 . S
C4102 H4115 0.962 . S
C4102 H4116 0.960 . S
C4103 C4100 1.511 . S
C4103 H4117 0.961 . S
C4103 H4118 0.961 . S
C4103 H4119 0.961 . S
C4104 C4105 1.370 . S
C4104 C4106 1.363 . S
C4104 H4120 0.931 . S
C4105 C4104 1.370 . S
C4105 C4109 1.408 . S
C4106 C4104 1.363 . S
C4106 C4107 1.370 . S
C4106 C4110 1.524 . S
C4107 C4099 1.503 . S
C4107 C4106 1.370 . S
C4107 C4108 1.403 . S
C4108 C4107 1.403 . S
C4108 C4109 1.404 . S
C4108 C4111 1.539 . S
C4109 C4105 1.408 . S
C4109 C4108 1.404 . S
C4109 H4121 0.930 . S
C4110 C4106 1.524 . S
C4110 H4122 0.956 . S
C4110 H4123 0.961 . S
C4110 H4124 0.961 . S
C4111 C4108 1.539 . S
C4111 H4125 0.958 . S
C4111 H4126 0.961 . S
C4111 H4127 0.960 . S
H4112 C4096 0.931 . S
H4113 C4101 0.929 . S
H4114 C4102 0.960 . S
H4115 C4102 0.962 . S
H4116 C4102 0.960 . S
H4117 C4103 0.961 . S
H4118 C4103 0.961 . S
H4119 C4103 0.961 . S
H4120 C4104 0.931 . S
H4121 C4109 0.930 . S
H4122 C4110 0.956 . S
H4123 C4110 0.961 . S
H4124 C4110 0.961 . S
H4125 C4111 0.958 . S
H4126 C4111 0.961 . S
H4127 C4111 0.960 . S
C4128 C4129 1.391 . S
C4128 C4130 1.394 . S
C4128 H4144 0.931 . S
C4129 C4128 1.391 . S
C4129 C4133 1.376 . S
C4130 C4128 1.394 . S
C4130 C4131 1.369 . S
C4130 C4134 1.531 . S
C4131 C4130 1.369 . S
C4131 C4132 1.410 . S
C4131 C4139 1.503 . S
C4132 C4131 1.410 . S
C4132 C4133 1.392 . S
C4132 C4135 1.511 . S
C4133 C4129 1.376 . S
C4133 C4132 1.392 . S
C4133 H4145 0.929 . S
C4134 C4130 1.531 . S
C4134 H4146 0.960 . S
C4134 H4147 0.962 . S
C4134 H4148 0.960 . S
C4135 C4132 1.511 . S
C4135 H4149 0.961 . S
C4135 H4150 0.961 . S
C4135 H4151 0.961 . S
C4136 C4137 1.370 . S
C4136 C4138 1.363 . S
C4136 H4152 0.931 . S
C4137 C4136 1.370 . S
C4137 C4141 1.408 . S
C4138 C4136 1.363 . S
C4138 C4139 1.370 . S
C4138 C4142 1.524 . S
C4139 C4131 1.503 . S
C4139 C4138 1.370 . S
C4139 C4140 1.403 . S
C4140 C4139 1.403 . S
C4140 C4141 1.404 . S
C4140 C4143 1.539 . S
C4141 C4137 1.408 . S
C4141 C4140 1.404 . S
C4141 H4153 0.930 . S
C4142 C4138 1.524 . S
C4142 H4154 0.956 . S
C4142 H4155 0.961 . S
C4142 H4156 0.961 . S
C4143 C4140 1.539 . S
C4143 H4157 0.958 . S
C4143 H4158 0.961 . S
C4143 H4159 0.960 . S
H4144 C4128 0.931 . S
H4145 C4133 0.929 . S
H4146 C4134 0.960 . S
H4147 C4134 0.962 . S
H4148 C4134 0.960 . S
H4149 C4135 0.961 . S
H4150 C4135 0.961 . S
H4151 C4135 0.961 . S
H4152 C4136 0.931 . S
H4153 C4141 0.930 . S
H4154 C4142 0.956 . S
H4155 C4142 0.961 . S
H4156 C4142 0.961 . S
H4157 C4143 0.958 . S
H4158 C4143 0.961 . S
H4159 C4143 0.960 . S
C4160 C4161 1.391 . S
C4160 C4162 1.394 . S
C4160 H4176 0.931 . S
C4161 C4160 1.391 . S
C4161 C4165 1.376 . S
C4162 C4160 1.394 . S
C4162 C4163 1.369 . S
C4162 C4166 1.531 . S
C4163 C4162 1.369 . S
C4163 C4164 1.410 . S
C4163 C4171 1.503 . S
C4164 C4163 1.410 . S
C4164 C4165 1.392 . S
C4164 C4167 1.511 . S
C4165 C4161 1.376 . S
C4165 C4164 1.392 . S
C4165 H4177 0.929 . S
C4166 C4162 1.531 . S
C4166 H4178 0.960 . S
C4166 H4179 0.962 . S
C4166 H4180 0.960 . S
C4167 C4164 1.511 . S
C4167 H4181 0.961 . S
C4167 H4182 0.961 . S
C4167 H4183 0.961 . S
C4168 C4169 1.370 . S
C4168 C4170 1.363 . S
C4168 H4184 0.931 . S
C4169 C4168 1.370 . S
C4169 C4173 1.408 . S
C4170 C4168 1.363 . S
C4170 C4171 1.370 . S
C4170 C4174 1.524 . S
C4171 C4163 1.503 . S
C4171 C4170 1.370 . S
C4171 C4172 1.403 . S
C4172 C4171 1.403 . S
C4172 C4173 1.404 . S
C4172 C4175 1.539 . S
C4173 C4169 1.408 . S
C4173 C4172 1.404 . S
C4173 H4185 0.930 . S
C4174 C4170 1.524 . S
C4174 H4186 0.956 . S
C4174 H4187 0.961 . S
C4174 H4188 0.961 . S
C4175 C4172 1.539 . S
C4175 H4189 0.958 . S
C4175 H4190 0.961 . S
C4175 H4191 0.960 . S
H4176 C4160 0.931 . S
H4177 C4165 0.929 . S
H4178 C4166 0.960 . S
H4179 C4166 0.962 . S
H4180 C4166 0.960 . S
H4181 C4167 0.961 . S
H4182 C4167 0.961 . S
H4183 C4167 0.961 . S
H4184 C4168 0.931 . S
H4185 C4173 0.930 . S
H4186 C4174 0.956 . S
H4187 C4174 0.961 . S
H4188 C4174 0.961 . S
H4189 C4175 0.958 . S
H4190 C4175 0.961 . S
H4191 C4175 0.960 . S
C4192 C4193 1.391 . S
C4192 C4194 1.394 . S
C4192 H4208 0.931 . S
C4193 C4192 1.391 . S
C4193 C4197 1.376 . S
C4194 C4192 1.394 . S
C4194 C4195 1.369 . S
C4194 C4198 1.531 . S
C4195 C4194 1.369 . S
C4195 C4196 1.410 . S
C4195 C4203 1.503 . S
C4196 C4195 1.410 . S
C4196 C4197 1.392 . S
C4196 C4199 1.511 . S
C4197 C4193 1.376 . S
C4197 C4196 1.392 . S
C4197 H4209 0.929 . S
C4198 C4194 1.531 . S
C4198 H4210 0.960 . S
C4198 H4211 0.962 . S
C4198 H4212 0.960 . S
C4199 C4196 1.511 . S
C4199 H4213 0.961 . S
C4199 H4214 0.961 . S
C4199 H4215 0.961 . S
C4200 C4201 1.370 . S
C4200 C4202 1.363 . S
C4200 H4216 0.931 . S
C4201 C4200 1.370 . S
C4201 C4205 1.408 . S
C4202 C4200 1.363 . S
C4202 C4203 1.370 . S
C4202 C4206 1.524 . S
C4203 C4195 1.503 . S
C4203 C4202 1.370 . S
C4203 C4204 1.403 . S
C4204 C4203 1.403 . S
C4204 C4205 1.404 . S
C4204 C4207 1.539 . S
C4205 C4201 1.408 . S
C4205 C4204 1.404 . S
C4205 H4217 0.930 . S
C4206 C4202 1.524 . S
C4206 H4218 0.956 . S
C4206 H4219 0.961 . S
C4206 H4220 0.961 . S
C4207 C4204 1.539 . S
C4207 H4221 0.958 . S
C4207 H4222 0.961 . S
C4207 H4223 0.960 . S
H4208 C4192 0.931 . S
H4209 C4197 0.929 . S
H4210 C4198 0.960 . S
H4211 C4198 0.962 . S
H4212 C4198 0.960 . S
H4213 C4199 0.961 . S
H4214 C4199 0.961 . S
H4215 C4199 0.961 . S
H4216 C4200 0.931 . S
H4217 C4205 0.930 . S
H4218 C4206 0.956 . S
H4219 C4206 0.961 . S
H4220 C4206 0.961 . S
H4221 C4207 0.958 . S
H4222 C4207 0.961 . S
H4223 C4207 0.960 . S
C4224 C4225 1.391 . S
C4224 C4226 1.394 . S
C4224 H4240 0.931 . S
C4225 C4224 1.391 . S
C4225 C4229 1.376 . S
C4226 C4224 1.394 . S
C4226 C4227 1.369 . S
C4226 C4230 1.531 . S
C4227 C4226 1.369 . S
C4227 C4228 1.410 . S
C4227 C4235 1.503 . S
C4228 C4227 1.410 . S
C4228 C4229 1.392 . S
C4228 C4231 1.511 . S
C4229 C4225 1.376 . S
C4229 C4228 1.392 . S
C4229 H4241 0.929 . S
C4230 C4226 1.531 . S
C4230 H4242 0.960 . S
C4230 H4243 0.962 . S
C4230 H4244 0.960 . S
C4231 C4228 1.511 . S
C4231 H4245 0.961 . S
C4231 H4246 0.961 . S
C4231 H4247 0.961 . S
C4232 C4233 1.370 . S
C4232 C4234 1.363 . S
C4232 H4248 0.931 . S
C4233 C4232 1.370 . S
C4233 C4237 1.408 . S
C4234 C4232 1.363 . S
C4234 C4235 1.370 . S
C4234 C4238 1.524 . S
C4235 C4227 1.503 . S
C4235 C4234 1.370 . S
C4235 C4236 1.403 . S
C4236 C4235 1.403 . S
C4236 C4237 1.404 . S
C4236 C4239 1.539 . S
C4237 C4233 1.408 . S
C4237 C4236 1.404 . S
C4237 H4249 0.930 . S
C4238 C4234 1.524 . S
C4238 H4250 0.956 . S
C4238 H4251 0.961 . S
C4238 H4252 0.961 . S
C4239 C4236 1.539 . S
C4239 H4253 0.958 . S
C4239 H4254 0.961 . S
C4239 H4255 0.960 . S
H4240 C4224 0.931 . S
H4241 C4229 0.929 . S
H4242 C4230 0.960 . S
H4243 C4230 0.962 . S
H4244 C4230 0.960 . S
H4245 C4231 0.961 . S
H4246 C4231 0.961 . S
H4247 C4231 0.961 . S
H4248 C4232 0.931 . S
H4249 C4237 0.930 . S
H4250 C4238 0.956 . S
H4251 C4238 0.961 . S
H4252 C4238 0.961 . S
H4253 C4239 0.958 . S
H4254 C4239 0.961 . S
H4255 C4239 0.960 . S
C4256 C4257 1.391 . S
C4256 C4258 1.394 . S
C4256 H4272 0.931 . S
C4257 C4256 1.391 . S
C4257 C4261 1.376 . S
C4258 C4256 1.394 . S
C4258 C4259 1.369 . S
C4258 C4262 1.531 . S
C4259 C4258 1.369 . S
C4259 C4260 1.410 . S
C4259 C4267 1.503 . S
C4260 C4259 1.410 . S
C4260 C4261 1.392 . S
C4260 C4263 1.511 . S
C4261 C4257 1.376 . S
C4261 C4260 1.392 . S
C4261 H4273 0.929 . S
C4262 C4258 1.531 . S
C4262 H4274 0.960 . S
C4262 H4275 0.962 . S
C4262 H4276 0.960 . S
C4263 C4260 1.511 . S
C4263 H4277 0.961 . S
C4263 H4278 0.961 . S
C4263 H4279 0.961 . S
C4264 C4265 1.370 . S
C4264 C4266 1.363 . S
C4264 H4280 0.931 . S
C4265 C4264 1.370 . S
C4265 C4269 1.408 . S
C4266 C4264 1.363 . S
C4266 C4267 1.370 . S
C4266 C4270 1.524 . S
C4267 C4259 1.503 . S
C4267 C4266 1.370 . S
C4267 C4268 1.403 . S
C4268 C4267 1.403 . S
C4268 C4269 1.404 . S
C4268 C4271 1.539 . S
C4269 C4265 1.408 . S
C4269 C4268 1.404 . S
C4269 H4281 0.930 . S
C4270 C4266 1.524 . S
C4270 H4282 0.956 . S
C4270 H4283 0.961 . S
C4270 H4284 0.961 . S
C4271 C4268 1.539 . S
C4271 H4285 0.958 . S
C4271 H4286 0.961 . S
C4271 H4287 0.960 . S
H4272 C4256 0.931 . S
H4273 C4261 0.929 . S
H4274 C4262 0.960 . S
H4275 C4262 0.962 . S
H4276 C4262 0.960 . S
H4277 C4263 0.961 . S
H4278 C4263 0.961 . S
H4279 C4263 0.961 . S
H4280 C4264 0.931 . S
H4281 C4269 0.930 . S
H4282 C4270 0.956 . S
H4283 C4270 0.961 . S
H4284 C4270 0.961 . S
H4285 C4271 0.958 . S
H4286 C4271 0.961 . S
H4287 C4271 0.960 . S
C4288 C4289 1.391 . S
C4288 C4290 1.394 . S
C4288 H4304 0.931 . S
C4289 C4288 1.391 . S
C4289 C4293 1.376 . S
C4290 C4288 1.394 . S
C4290 C4291 1.369 . S
C4290 C4294 1.531 . S
C4291 C4290 1.369 . S
C4291 C4292 1.410 . S
C4291 C4299 1.503 . S
C4292 C4291 1.410 . S
C4292 C4293 1.392 . S
C4292 C4295 1.511 . S
C4293 C4289 1.376 . S
C4293 C4292 1.392 . S
C4293 H4305 0.929 . S
C4294 C4290 1.531 . S
C4294 H4306 0.960 . S
C4294 H4307 0.962 . S
C4294 H4308 0.960 . S
C4295 C4292 1.511 . S
C4295 H4309 0.961 . S
C4295 H4310 0.961 . S
C4295 H4311 0.961 . S
C4296 C4297 1.370 . S
C4296 C4298 1.363 . S
C4296 H4312 0.931 . S
C4297 C4296 1.370 . S
C4297 C4301 1.408 . S
C4298 C4296 1.363 . S
C4298 C4299 1.370 . S
C4298 C4302 1.524 . S
C4299 C4291 1.503 . S
C4299 C4298 1.370 . S
C4299 C4300 1.403 . S
C4300 C4299 1.403 . S
C4300 C4301 1.404 . S
C4300 C4303 1.539 . S
C4301 C4297 1.408 . S
C4301 C4300 1.404 . S
C4301 H4313 0.930 . S
C4302 C4298 1.524 . S
C4302 H4314 0.956 . S
C4302 H4315 0.961 . S
C4302 H4316 0.961 . S
C4303 C4300 1.539 . S
C4303 H4317 0.958 . S
C4303 H4318 0.961 . S
C4303 H4319 0.960 . S
H4304 C4288 0.931 . S
H4305 C4293 0.929 . S
H4306 C4294 0.960 . S
H4307 C4294 0.962 . S
H4308 C4294 0.960 . S
H4309 C4295 0.961 . S
H4310 C4295 0.961 . S
H4311 C4295 0.961 . S
H4312 C4296 0.931 . S
H4313 C4301 0.930 . S
H4314 C4302 0.956 . S
H4315 C4302 0.961 . S
H4316 C4302 0.961 . S
H4317 C4303 0.958 . S
H4318 C4303 0.961 . S
H4319 C4303 0.960 . S
C4320 C4321 1.391 . S
C4320 C4322 1.394 . S
C4320 H4336 0.931 . S
C4321 C4320 1.391 . S
C4321 C4325 1.376 . S
C4322 C4320 1.394 . S
C4322 C4323 1.369 . S
C4322 C4326 1.531 . S
C4323 C4322 1.369 . S
C4323 C4324 1.410 . S
C4323 C4331 1.503 . S
C4324 C4323 1.410 . S
C4324 C4325 1.392 . S
C4324 C4327 1.511 . S
C4325 C4321 1.376 . S
C4325 C4324 1.392 . S
C4325 H4337 0.929 . S
C4326 C4322 1.531 . S
C4326 H4338 0.960 . S
C4326 H4339 0.962 . S
C4326 H4340 0.960 . S
C4327 C4324 1.511 . S
C4327 H4341 0.961 . S
C4327 H4342 0.961 . S
C4327 H4343 0.961 . S
C4328 C4329 1.370 . S
C4328 C4330 1.363 . S
C4328 H4344 0.931 . S
C4329 C4328 1.370 . S
C4329 C4333 1.408 . S
C4330 C4328 1.363 . S
C4330 C4331 1.370 . S
C4330 C4334 1.524 . S
C4331 C4323 1.503 . S
C4331 C4330 1.370 . S
C4331 C4332 1.403 . S
C4332 C4331 1.403 . S
C4332 C4333 1.404 . S
C4332 C4335 1.539 . S
C4333 C4329 1.408 . S
C4333 C4332 1.404 . S
C4333 H4345 0.930 . S
C4334 C4330 1.524 . S
C4334 H4346 0.956 . S
C4334 H4347 0.961 . S
C4334 H4348 0.961 . S
C4335 C4332 1.539 . S
C4335 H4349 0.958 . S
C4335 H4350 0.961 . S
C4335 H4351 0.960 . S
H4336 C4320 0.931 . S
H4337 C4325 0.929 . S
H4338 C4326 0.960 . S
H4339 C4326 0.962 . S
H4340 C4326 0.960 . S
H4341 C4327 0.961 . S
H4342 C4327 0.961 . S
H4343 C4327 0.961 . S
H4344 C4328 0.931 . S
H4345 C4333 0.930 . S
H4346 C4334 0.956 . S
H4347 C4334 0.961 . S
H4348 C4334 0.961 . S
H4349 C4335 0.958 . S
H4350 C4335 0.961 . S
H4351 C4335 0.960 . S
C1281 C10 1.891 . S
C1289 C135 1.871 . S
C1313 C15 1.879 . S
C1321 C50 1.904 . S
C1345 C90 1.898 . S
C1353 C55 1.869 . S
C1377 C95 1.882 . S
C1385 C130 1.903 . S
C1409 C215 1.852 . S
C1417 C170 1.908 . S
C1441 C210 1.892 . S
C1449 C255 1.866 . S
C1473 C295 1.848 . S
C1481 C250 1.908 . S
C1505 C175 1.838 . S
C1513 C290 1.911 . S
C1537 C339 1.892 . S
C1545 C446 1.871 . S
C1569 C379 1.915 . S
C1577 C326 1.850 . S
C1601 C419 1.916 . S
C1609 C366 1.851 . S
C1633 C459 1.911 . S
C1641 C406 1.851 . S
C1665 C499 1.917 . S
C1673 C526 1.858 . S
C1697 C539 1.918 . S
C1705 C566 1.853 . S
C1729 C606 1.877 . S
C1737 C579 1.902 . S
C1761 C486 1.880 . S
C1769 C619 1.903 . S
C1793 C650 1.917 . S
C1801 C775 1.854 . S
C1825 C655 1.854 . S
C1833 C690 1.912 . S
C1857 C695 1.872 . S
C1865 C730 1.903 . S
C1889 C770 1.902 . S
C1897 C735 1.858 . S
C1921 C810 1.901 . S
C1929 C855 1.867 . S
C1953 C895 1.865 . S
C1961 C850 1.909 . S
C1985 C890 1.911 . S
C1993 C935 1.860 . S
C2017 C815 1.831 . S
C2025 C930 1.914 . S
C2049 C1086 1.852 . S
C2057 C979 1.906 . S
C2081 C966 1.855 . S
C2089 C1019 1.905 . S
C2113 C1059 1.896 . S
C2121 C1006 1.859 . S
C2145 C1046 1.868 . S
C2153 C1099 1.910 . S
C2177 C1166 1.872 . S
C2185 C1139 1.909 . S
C2209 C1206 1.838 . S
C2217 C1179 1.909 . S
C2241 C1246 1.880 . S
C2249 C1219 1.906 . S
C2273 C1259 1.917 . S
C2281 C1126 1.851 . S
C2305 C1090 1.592 . S
C2313 C9 1.616 . S
C2337 C49 1.604 . S
C2345 C330 1.606 . S
C2369 C89 1.593 . S
C2377 C1010 1.621 . S
C2401 C129 1.623 . S
C2409 C410 1.607 . S
C2433 C169 1.625 . S
C2441 C1170 1.613 . S
C2465 C570 1.604 . S
C2473 C209 1.618 . S
C2497 C1250 1.629 . S
C2505 C249 1.606 . S
C2529 C289 1.626 . S
C2537 C490 1.611 . S
C2561 C338 1.625 . S
C2569 C779 1.611 . S
C2593 C19 1.609 . S
C2601 C378 1.616 . S
C2625 C699 1.592 . S
C2633 C418 1.618 . S
C2657 C99 1.628 . S
C2665 C458 1.602 . S
C2689 C859 1.611 . S
C2697 C498 1.602 . S
C2721 C259 1.601 . S
C2729 C538 1.617 . S
C2753 C578 1.614 . S
C2761 C939 1.617 . S
C2785 C618 1.626 . S
C2793 C179 1.607 . S
C2817 C649 1.584 . S
C2825 C450 1.615 . S
C2849 C689 1.621 . S
C2857 C970 1.606 . S
C2881 C729 1.624 . S
C2889 C370 1.608 . S
C2913 C769 1.586 . S
C2921 C1050 1.619 . S
C2945 C809 1.584 . S
C2953 C530 1.617 . S
C2977 C849 1.584 . S
C2985 C1210 1.618 . S
C3009 C610 1.627 . S
C3017 C889 1.603 . S
C3041 C929 1.626 . S
C3049 C1130 1.612 . S
C3073 C139 1.594 . S
C3081 C978 1.618 . S
C3105 C659 1.624 . S
C3113 C1018 1.600 . S
C3137 C59 1.612 . S
C3145 C1058 1.615 . S
C3169 C739 1.626 . S
C3177 C1098 1.607 . S
C3201 C219 1.616 . S
C3209 C1138 1.601 . S
C3233 C1178 1.586 . S
C3241 C899 1.615 . S
C3265 C1218 1.602 . S
C3273 C299 1.608 . S
C3297 C819 1.593 . S
C3305 C1258 1.609 . S
C3329 C18 0.854 . S
C3337 C178 0.821 . S
C3361 C58 0.847 . S
C3369 C218 0.812 . S
C3393 C98 0.808 . S
C3401 C258 0.794 . S
C3425 C298 0.852 . S
C3433 C138 0.816 . S
C3457 C489 0.764 . S
C3465 C329 0.796 . S
C3489 C529 0.828 . S
C3497 C369 0.807 . S
C3521 C409 0.804 . S
C3529 C569 0.818 . S
C3553 C449 0.832 . S
C3561 C609 0.809 . S
C3585 C658 0.804 . S
C3593 C818 0.793 . S
C3617 C858 0.846 . S
C3625 C698 0.811 . S
C3649 C898 0.848 . S
C3657 C738 0.813 . S
C3681 C938 0.807 . S
C3689 C778 0.794 . S
C3713 C1129 0.852 . S
C3721 C969 0.828 . S
C3745 C1009 0.771 . S
C3753 C1169 0.791 . S
C3777 C1209 0.777 . S
C3785 C1049 0.806 . S
C3809 C1089 0.834 . S
C3817 C1249 0.827 . S
C3841 C286 1.318 . S
C3849 C6 1.320 . S
C3873 C46 1.323 . S
C3881 C166 1.318 . S
C3905 C86 1.353 . S
C3913 C206 1.320 . S
C3937 C246 1.293 . S
C3945 C126 1.335 . S
C3969 C335 1.307 . S
C3977 C615 1.320 . S
C4001 C495 1.354 . S
C4009 C375 1.324 . S
C4033 C535 1.300 . S
C4041 C415 1.339 . S
C4065 C455 1.354 . S
C4073 C575 1.324 . S
C4097 C646 1.334 . S
C4105 C926 1.315 . S
C4129 C806 1.354 . S
C4137 C686 1.319 . S
C4161 C846 1.337 . S
C4169 C726 1.331 . S
C4193 C886 1.355 . S
C4201 C766 1.317 . S
C4225 C975 1.348 . S
C4233 C1255 1.329 . S
C4257 C1135 1.345 . S
C4265 C1015 1.331 . S
C4289 C1055 1.296 . S
C4297 C1175 1.327 . S
C4321 C1215 1.303 . S
C4329 C1095 1.322 . S
