# Generated by pormake.
# Topology und, (4)-cn, num edge types: 1
# Building blocks:
#     Node 0, Type 0, BuildingBlock: TATPOV_clean_sbu_0, # of connection points: 4
#     Node 1, Type 0, BuildingBlock: TATPOV_clean_sbu_0, # of connection points: 4
#     Node 2, Type 0, BuildingBlock: TATPOV_clean_sbu_0, # of connection points: 4
#     Node 3, Type 0, BuildingBlock: TATPOV_clean_sbu_0, # of connection points: 4
#     Node 4, Type 0, BuildingBlock: TATPOV_clean_sbu_0, # of connection points: 4
#     Node 5, Type 0, BuildingBlock: TATPOV_clean_sbu_0, # of connection points: 4
#     Node 6, Type 0, BuildingBlock: TATPOV_clean_sbu_0, # of connection points: 4
#     Node 7, Type 0, BuildingBlock: TATPOV_clean_sbu_0, # of connection points: 4
#     Node 8, Type 0, BuildingBlock: TATPOV_clean_sbu_0, # of connection points: 4
#     Node 9, Type 0, BuildingBlock: TATPOV_clean_sbu_0, # of connection points: 4
#     Node 10, Type 0, BuildingBlock: TATPOV_clean_sbu_0, # of connection points: 4
#     Node 11, Type 0, BuildingBlock: TATPOV_clean_sbu_0, # of connection points: 4
#     Node 12, Type 0, BuildingBlock: TATPOV_clean_sbu_0, # of connection points: 4
#     Node 13, Type 0, BuildingBlock: TATPOV_clean_sbu_0, # of connection points: 4
#     Node 14, Type 0, BuildingBlock: TATPOV_clean_sbu_0, # of connection points: 4
#     Node 15, Type 0, BuildingBlock: TATPOV_clean_sbu_0, # of connection points: 4
#     Edge 16, Type (0, 0), BuildingBlock: EYOCIG_clean_linker_4, # of connection points: 2
#     Edge 17, Type (0, 0), BuildingBlock: EYOCIG_clean_linker_4, # of connection points: 2
#     Edge 18, Type (0, 0), BuildingBlock: EYOCIG_clean_linker_4, # of connection points: 2
#     Edge 19, Type (0, 0), BuildingBlock: EYOCIG_clean_linker_4, # of connection points: 2
#     Edge 20, Type (0, 0), BuildingBlock: EYOCIG_clean_linker_4, # of connection points: 2
#     Edge 21, Type (0, 0), BuildingBlock: EYOCIG_clean_linker_4, # of connection points: 2
#     Edge 22, Type (0, 0), BuildingBlock: EYOCIG_clean_linker_4, # of connection points: 2
#     Edge 23, Type (0, 0), BuildingBlock: EYOCIG_clean_linker_4, # of connection points: 2
#     Edge 24, Type (0, 0), BuildingBlock: EYOCIG_clean_linker_4, # of connection points: 2
#     Edge 25, Type (0, 0), BuildingBlock: EYOCIG_clean_linker_4, # of connection points: 2
#     Edge 26, Type (0, 0), BuildingBlock: EYOCIG_clean_linker_4, # of connection points: 2
#     Edge 27, Type (0, 0), BuildingBlock: EYOCIG_clean_linker_4, # of connection points: 2
#     Edge 28, Type (0, 0), BuildingBlock: EYOCIG_clean_linker_4, # of connection points: 2
#     Edge 29, Type (0, 0), BuildingBlock: EYOCIG_clean_linker_4, # of connection points: 2
#     Edge 30, Type (0, 0), BuildingBlock: EYOCIG_clean_linker_4, # of connection points: 2
#     Edge 31, Type (0, 0), BuildingBlock: EYOCIG_clean_linker_4, # of connection points: 2
#     Edge 32, Type (0, 0), BuildingBlock: EYOCIG_clean_linker_4, # of connection points: 2
#     Edge 33, Type (0, 0), BuildingBlock: EYOCIG_clean_linker_4, # of connection points: 2
#     Edge 34, Type (0, 0), BuildingBlock: EYOCIG_clean_linker_4, # of connection points: 2
#     Edge 35, Type (0, 0), BuildingBlock: EYOCIG_clean_linker_4, # of connection points: 2
#     Edge 36, Type (0, 0), BuildingBlock: EYOCIG_clean_linker_4, # of connection points: 2
#     Edge 37, Type (0, 0), BuildingBlock: EYOCIG_clean_linker_4, # of connection points: 2
#     Edge 38, Type (0, 0), BuildingBlock: EYOCIG_clean_linker_4, # of connection points: 2
#     Edge 39, Type (0, 0), BuildingBlock: EYOCIG_clean_linker_4, # of connection points: 2
#     Edge 40, Type (0, 0), BuildingBlock: EYOCIG_clean_linker_4, # of connection points: 2
#     Edge 41, Type (0, 0), BuildingBlock: EYOCIG_clean_linker_4, # of connection points: 2
#     Edge 42, Type (0, 0), BuildingBlock: EYOCIG_clean_linker_4, # of connection points: 2
#     Edge 43, Type (0, 0), BuildingBlock: EYOCIG_clean_linker_4, # of connection points: 2
#     Edge 44, Type (0, 0), BuildingBlock: EYOCIG_clean_linker_4, # of connection points: 2
#     Edge 45, Type (0, 0), BuildingBlock: EYOCIG_clean_linker_4, # of connection points: 2
#     Edge 46, Type (0, 0), BuildingBlock: EYOCIG_clean_linker_4, # of connection points: 2
#     Edge 47, Type (0, 0), BuildingBlock: EYOCIG_clean_linker_4, # of connection points: 2
# Relax obj value: 0.104
# Max RMSD: 0.159
# Mean RMSD: 0.159
data_MOF--net-und--node1-TATPOV_clean_sbu_0--edge1-EYOCIG_clean_linker_4
_symmetry_space_group_name_H-M    P1
_symmetry_Int_Tables_number       1
_symmetry_cell_setting            triclinic
loop_
_symmetry_equiv_pos_as_xyz
'x, y, z'
_cell_length_a     49.159402
_cell_length_b     49.170955
_cell_length_c     17.998694
_cell_angle_alpha  90.052331
_cell_angle_beta   89.986801
_cell_angle_gamma 87.637741
loop_
_atom_site_label
_atom_site_type_symbol
_atom_site_fract_x
_atom_site_fract_y
_atom_site_fract_z
_atom_type_partial_charge
Zn0 Zn 0.28432 0.31032 -0.05155 0.0
Zn1 Zn 0.23797 0.33615 -0.04956 0.0
O2 O 0.23999 0.31067 0.04325 0.0
O3 O 0.28111 0.29128 0.04655 0.0
O4 O 0.20619 0.36182 -0.02506 0.0
O5 O 0.30731 0.3422 0.92827 0.0
O6 O 0.26716 0.36342 0.91945 0.0
C7 C 0.25746 0.29429 0.07348 0.0
C8 C 0.24541 0.29509 0.83322 0.0
O9 O 0.22867 0.31284 0.86067 0.0
O10 O 0.26899 0.29115 0.86012 0.0
C11 C 0.18517 0.35384 0.008 0.0
O12 O 0.18256 0.32787 0.02137 0.0
C13 C 0.29296 0.36333 0.91283 0.0
Zn14 Zn 0.92873 0.95409 0.20783 0.0
Zn15 Zn 0.90251 0.00075 0.20442 0.0
O16 O 0.92772 -0.00143 0.11113 0.0
O17 O 0.94741 0.95756 0.10914 0.0
O18 O 0.87678 0.03249 0.18041 0.0
O19 O 0.89658 0.93142 0.22789 0.0
O20 O 0.87526 0.97157 0.23516 0.0
C21 C 0.94416 0.98104 0.08133 0.0
C22 C 0.94381 -0.00625 0.32158 0.0
O23 O 0.92602 0.0103 0.29359 0.0
O24 O 0.94775 0.96999 0.29573 0.0
C25 C 0.88476 0.05373 0.14857 0.0
O26 O 0.91077 0.05655 0.13601 0.0
C27 C 0.87535 0.9458 0.24221 0.0
Zn28 Zn 0.19454 0.68879 0.44682 0.0
Zn29 Zn 0.24109 0.66268 0.4505 0.0
O30 O 0.23879 0.68832 0.54306 0.0
O31 O 0.19766 0.70775 0.54523 0.0
O32 O 0.27268 0.63687 0.4758 0.0
O33 O 0.17169 0.65681 0.42637 0.0
O34 O 0.21187 0.63553 0.41887 0.0
C35 C 0.22122 0.70475 0.57277 0.0
C36 C 0.23432 0.70366 0.33298 0.0
O37 O 0.25087 0.68589 0.3611 0.0
O38 O 0.21059 0.70767 0.35889 0.0
C39 C 0.29387 0.64478 0.50815 0.0
O40 O 0.29679 0.67078 0.52056 0.0
C41 C 0.18609 0.63564 0.41157 0.0
Zn42 Zn 0.55071 0.04445 0.70757 0.0
Zn43 Zn 0.57669 -0.00226 0.70504 0.0
O44 O 0.55126 -0.00015 0.61218 0.0
O45 O 0.53201 0.04103 0.60884 0.0
O46 O 0.60217 0.96584 0.68065 0.0
O47 O 0.58291 0.06703 0.72792 0.0
O48 O 0.60407 0.02682 0.7359 0.0
C49 C 0.535 0.01738 0.58182 0.0
C50 C 0.53564 0.00515 0.82235 0.0
O51 O 0.5534 -0.01154 0.79469 0.0
O52 O 0.53165 0.02876 0.79574 0.0
C53 C 0.59391 0.94457 0.64947 0.0
O54 O 0.56782 0.94186 0.63792 0.0
C55 C 0.60404 0.0526 0.74282 0.0
Zn56 Zn 0.69414 0.68859 -0.04291 0.0
Zn57 Zn 0.74084 0.66255 -0.04495 0.0
O58 O 0.73921 0.68841 0.86303 0.0
O59 O 0.69814 0.70795 0.85972 0.0
O60 O 0.77271 0.63688 0.93115 0.0
O61 O 0.67127 0.65644 -0.02544 0.0
O62 O 0.71144 0.63527 -0.01615 0.0
C63 C 0.72184 0.70497 0.8331 0.0
C64 C 0.73287 0.70293 0.07405 0.0
O65 O 0.74973 0.68543 0.04596 0.0
O66 O 0.70934 0.70702 0.04693 0.0
C67 C 0.79425 0.6449 0.90085 0.0
O68 O 0.7973 0.67095 0.88964 0.0
C69 C 0.68562 0.63527 -0.01051 0.0
Zn70 Zn 0.05081 0.04446 0.69934 0.0
Zn71 Zn 0.07659 -0.00222 0.69988 0.0
O72 O 0.05077 -0.00048 0.79212 0.0
O73 O 0.03171 0.04075 0.79729 0.0
O74 O 0.10216 0.96587 0.72405 0.0
O75 O 0.0829 0.06731 0.68051 0.0
O76 O 0.10386 0.02708 0.66992 0.0
C77 C 0.03449 0.01692 0.82305 0.0
C78 C 0.03595 0.00586 0.58218 0.0
O79 O 0.05355 -0.01107 0.60937 0.0
O80 O 0.03197 0.02931 0.60997 0.0
C81 C 0.09404 0.94481 0.75653 0.0
O82 O 0.06801 0.94224 0.76937 0.0
C83 C 0.10392 0.0529 0.66437 0.0
Zn84 Zn 0.78482 0.31081 0.45798 0.0
Zn85 Zn 0.73798 0.33658 0.45633 0.0
O86 O 0.73975 0.31067 0.36427 0.0
O87 O 0.78099 0.29155 0.36017 0.0
O88 O 0.70618 0.36224 0.43216 0.0
O89 O 0.8075 0.34312 0.4762 0.0
O90 O 0.76718 0.36396 0.48572 0.0
C91 C 0.75722 0.2943 0.33392 0.0
C92 C 0.74599 0.29621 0.57486 0.0
O93 O 0.72908 0.31371 0.54707 0.0
O94 O 0.76953 0.29222 0.54755 0.0
C95 C 0.68506 0.35437 0.39942 0.0
O96 O 0.68228 0.32842 0.38601 0.0
C97 C 0.79298 0.36416 0.4915 0.0
Zn98 Zn 0.42835 0.95413 0.19892 0.0
Zn99 Zn 0.40272 0.00092 0.20069 0.0
O100 O 0.42827 -0.00105 0.29337 0.0
O101 O 0.44733 0.95769 0.29717 0.0
O102 O 0.37703 0.03272 0.22476 0.0
O103 O 0.39614 0.93146 0.17928 0.0
O104 O 0.37544 0.97182 0.16957 0.0
C105 C 0.44454 0.98142 0.32375 0.0
C106 C 0.44362 -0.00684 0.08346 0.0
O107 O 0.42606 0.01006 0.11108 0.0
O108 O 0.44737 0.96953 0.11023 0.0
C109 C 0.38498 0.05417 0.25568 0.0
O110 O 0.41101 0.05721 0.26744 0.0
C111 C 0.37522 0.94603 0.16335 0.0
Zn112 Zn 0.78445 0.81059 0.44858 0.0
Zn113 Zn 0.73778 0.83659 0.45102 0.0
O114 O 0.73997 0.81151 0.5445 0.0
O115 O 0.78112 0.79217 0.5476 0.0
O116 O 0.70589 0.86214 0.47494 0.0
O117 O 0.80708 0.84266 0.42759 0.0
O118 O 0.76688 0.86384 0.41951 0.0
C119 C 0.75753 0.79529 0.57491 0.0
C120 C 0.745 0.79507 0.33473 0.0
O121 O 0.72836 0.81292 0.36214 0.0
O122 O 0.76869 0.79123 0.36103 0.0
C123 C 0.68459 0.85391 0.50604 0.0
O124 O 0.6819 0.82784 0.51778 0.0
C125 C 0.79266 0.86377 0.41247 0.0
Zn126 Zn 0.42835 0.45416 0.70697 0.0
Zn127 Zn 0.40252 0.50081 0.70551 0.0
O128 O 0.42822 0.49912 0.61298 0.0
O129 O 0.44768 0.45803 0.60938 0.0
O130 O 0.37681 0.53267 0.68198 0.0
O131 O 0.3962 0.43127 0.72505 0.0
O132 O 0.3752 0.47148 0.7353 0.0
C133 C 0.44474 0.48174 0.58284 0.0
C134 C 0.44328 0.4929 0.82333 0.0
O135 O 0.42576 0.50979 0.79562 0.0
O136 O 0.4471 0.46929 0.79641 0.0
C137 C 0.38467 0.55401 0.65036 0.0
O138 O 0.41065 0.55694 0.63756 0.0
C139 C 0.37512 0.44565 0.74077 0.0
Zn140 Zn 0.6942 0.18845 -0.05051 0.0
Zn141 Zn 0.74098 0.16247 -0.04841 0.0
O142 O 0.73895 0.1875 0.04532 0.0
O143 O 0.69783 0.20693 0.04849 0.0
O144 O 0.77284 0.13677 -0.02525 0.0
O145 O 0.67161 0.15623 0.92914 0.0
O146 O 0.71186 0.13517 0.92064 0.0
C147 C 0.72142 0.20378 0.07575 0.0
C148 C 0.73352 0.20401 0.83534 0.0
O149 O 0.75022 0.18622 0.86271 0.0
O150 O 0.70981 0.20778 0.86165 0.0
C151 C 0.79407 0.14467 0.00688 0.0
O152 O 0.79684 0.17063 0.02027 0.0
C153 C 0.68607 0.13513 0.91403 0.0
Zn154 Zn 0.05041 0.54453 0.20727 0.0
Zn155 Zn 0.07672 0.49789 0.20556 0.0
O156 O 0.05136 0.49945 0.11256 0.0
O157 O 0.03162 0.54041 0.10895 0.0
O158 O 0.10254 0.4661 0.1823 0.0
O159 O 0.08254 0.5674 0.22607 0.0
O160 O 0.1039 0.52732 0.23503 0.0
C161 C 0.03487 0.51675 0.08216 0.0
C162 C 0.03563 0.50554 0.32308 0.0
O163 O 0.05341 0.48885 0.29553 0.0
O164 O 0.03157 0.5291 0.29615 0.0
C165 C 0.09459 0.44469 0.15114 0.0
O166 O 0.06859 0.44174 0.13891 0.0
C167 C 0.10377 0.55314 0.241 0.0
Zn168 Zn 0.19419 0.18857 0.45759 0.0
Zn169 Zn 0.24085 0.16221 0.4544 0.0
O170 O 0.23884 0.18773 0.36186 0.0
O171 O 0.19783 0.20742 0.35928 0.0
O172 O 0.27261 0.13654 0.4298 0.0
O173 O 0.17142 0.15646 0.47716 0.0
O174 O 0.21154 0.13506 0.48471 0.0
C175 C 0.22141 0.20422 0.33195 0.0
C176 C 0.23372 0.20308 0.57245 0.0
O177 O 0.2503 0.18532 0.54437 0.0
O178 O 0.21008 0.20724 0.54606 0.0
C179 C 0.29381 0.14464 0.39793 0.0
O180 O 0.29655 0.17067 0.38572 0.0
C181 C 0.18575 0.13522 0.49161 0.0
Zn182 Zn 0.55035 0.54477 0.19823 0.0
Zn183 Zn 0.57669 0.49822 0.20065 0.0
O184 O 0.55141 0.50022 0.29395 0.0
O185 O 0.5318 0.54125 0.29713 0.0
O186 O 0.60261 0.46663 0.22469 0.0
O187 O 0.5823 0.56764 0.17751 0.0
O188 O 0.60364 0.52753 0.16911 0.0
C189 C 0.53503 0.51767 0.32435 0.0
C190 C 0.5355 0.5052 0.08365 0.0
O191 O 0.55335 0.48864 0.1113 0.0
O192 O 0.53139 0.52883 0.1102 0.0
C193 C 0.59469 0.44538 0.25663 0.0
O194 O 0.5687 0.4425 0.26921 0.0
C195 C 0.60346 0.5533 0.16214 0.0
Zn196 Zn 0.28483 0.81112 -0.04447 0.0
Zn197 Zn 0.23787 0.83678 -0.04476 0.0
O198 O 0.2396 0.81138 0.86218 0.0
O199 O 0.28083 0.79228 0.85719 0.0
O200 O 0.20573 0.8622 0.93235 0.0
O201 O 0.30731 0.84351 -0.02582 0.0
O202 O 0.26699 0.8643 -0.01539 0.0
C203 C 0.25704 0.79517 0.83113 0.0
C204 C 0.24642 0.79584 0.07247 0.0
O205 O 0.22939 0.81338 0.04542 0.0
O206 O 0.26992 0.79206 0.04478 0.0
C207 C 0.1845 0.85411 0.90057 0.0
O208 O 0.18188 0.8281 0.88759 0.0
C209 C 0.29281 0.86451 -0.01003 0.0
Zn210 Zn 0.92808 0.45405 0.69875 0.0
Zn211 Zn 0.90258 0.50102 0.70167 0.0
O212 O 0.9282 0.49862 0.79411 0.0
O213 O 0.94713 0.4573 0.79694 0.0
O214 O 0.8772 0.53304 0.7265 0.0
O215 O 0.89567 0.43171 0.6793 0.0
O216 O 0.87498 0.47213 0.67094 0.0
C217 C 0.94442 0.48095 0.82406 0.0
C218 C 0.94338 0.49317 0.58372 0.0
O219 O 0.9259 0.51007 0.61177 0.0
O220 O 0.94709 0.46948 0.61012 0.0
C221 C 0.88529 0.55415 0.7589 0.0
O222 O 0.91131 0.55679 0.77169 0.0
C223 C 0.8747 0.44636 0.6643 0.0
C224 C 0.24296 0.25932 0.17667 0.0
C225 C 0.24898 0.27555 0.12962 0.0
C226 C 0.23592 0.23907 0.22847 0.0
C227 C 0.2299 0.22288 0.27564 0.0
C228 C 0.97926 0.00179 0.42559 0.0
C229 C 0.96156 0.00161 0.37965 0.0
C230 C 0.00105 -0.00097 0.47592 0.0
C231 C 0.01849 -0.00124 0.52267 0.0
C232 C 0.23543 0.7399 0.67603 0.0
C233 C 0.22953 0.72359 0.62897 0.0
C234 C 0.2424 0.76023 0.72783 0.0
C235 C 0.24845 0.77646 0.77495 0.0
C236 C 0.47885 0.00037 -0.02174 0.0
C237 C 0.4613 0.00048 0.0247 0.0
C238 C 0.50057 -0.0024 0.9277 0.0
C239 C 0.51809 -0.00239 0.8812 0.0
C240 C 0.2396 0.76069 0.17813 0.0
C241 C 0.23937 0.77819 0.1316 0.0
C242 C 0.24233 0.73891 0.22849 0.0
C243 C 0.24216 0.72129 0.27465 0.0
C244 C 0.47975 -0.00409 0.42653 0.0
C245 C 0.46342 -0.01013 0.37966 0.0
C246 C 0.50007 0.00296 0.47825 0.0
C247 C 0.51627 0.00896 0.52547 0.0
C248 C 0.24129 0.23806 0.67784 0.0
C249 C 0.24139 0.22052 0.6314 0.0
C250 C 0.23827 0.25987 0.72809 0.0
C251 C 0.23802 0.27748 0.77436 0.0
C252 C -0.00071 0.00217 0.92547 0.0
C253 C 0.01563 0.00827 0.87875 0.0
C254 C 0.97897 -0.0048 -0.02275 0.0
C255 C 0.9628 -0.01064 0.02468 0.0
C256 C 0.73642 0.74022 0.73074 0.0
C257 C 0.73043 0.72383 0.7774 0.0
C258 C 0.74332 0.76056 0.679 0.0
C259 C 0.74917 0.7767 0.63155 0.0
C260 C 0.74265 0.25893 0.23159 0.0
C261 C 0.74868 0.27535 0.27825 0.0
C262 C 0.7357 0.23857 0.17985 0.0
C263 C 0.72982 0.22241 0.1324 0.0
C264 C 0.74138 0.23966 0.73161 0.0
C265 C 0.74118 0.22192 0.77744 0.0
C266 C 0.73881 0.26143 0.6812 0.0
C267 C 0.73873 0.2788 0.63431 0.0
C268 C 0.74004 0.7377 0.18042 0.0
C269 C 0.74021 0.72029 0.13356 0.0
C270 C 0.73725 0.7595 0.23075 0.0
C271 C 0.73733 0.77724 0.27664 0.0
C272 C 0.5004 0.49743 -0.02142 0.0
C273 C 0.51797 0.49751 0.02491 0.0
C274 C 0.47858 0.50016 0.92832 0.0
C275 C 0.46098 0.50026 0.88204 0.0
C276 C 0.00046 0.49795 0.42825 0.0
C277 C 0.01803 0.49802 0.38187 0.0
C278 C 0.97866 0.50057 0.47867 0.0
C279 C 0.9611 0.50059 0.52508 0.0
C280 C 2e-05 0.50202 -0.02118 0.0
C281 C 0.01623 0.50808 0.02593 0.0
C282 C 0.97968 0.49505 0.92709 0.0
C283 C 0.96334 0.48917 0.88012 0.0
C284 C 0.48001 0.49633 0.48036 0.0
C285 C 0.46362 0.49031 0.52708 0.0
C286 C 0.50033 0.50329 0.42853 0.0
C287 C 0.51646 0.50921 0.38104 0.0
C288 C 0.13064 0.40887 0.09592 0.0
C289 C 0.11428 0.4253 0.12126 0.0
C290 C 0.14956 0.38987 0.06422 0.0
C291 C 0.16588 0.37351 0.03844 0.0
C292 C 0.81803 0.90327 0.34595 0.0
C293 C 0.80517 0.88606 0.37612 0.0
C294 C 0.83548 0.92051 0.30736 0.0
C295 C 0.85289 0.93328 0.27778 0.0
C296 C 0.32947 0.60871 0.5641 0.0
C297 C 0.31315 0.62507 0.53843 0.0
C298 C 0.34847 0.58973 0.59558 0.0
C299 C 0.3649 0.57335 0.62072 0.0
C300 C 0.66087 0.09533 0.84811 0.0
C301 C 0.6736 0.11272 0.878 0.0
C302 C 0.64363 0.07792 0.80928 0.0
C303 C 0.62638 0.06508 0.77913 0.0
C304 C 0.14347 0.57875 0.30609 0.0
C305 C 0.12612 0.56586 0.27658 0.0
C306 C 0.16082 0.59608 0.34482 0.0
C307 C 0.17361 0.61333 0.37512 0.0
C308 C 0.62957 0.90856 0.5934 0.0
C309 C 0.61332 0.92502 0.61904 0.0
C310 C 0.64854 0.8896 0.56173 0.0
C311 C 0.66503 0.87335 0.53625 0.0
C312 C 0.33555 0.42013 0.80676 0.0
C313 C 0.35281 0.43303 0.77688 0.0
C314 C 0.31831 0.40278 0.84579 0.0
C315 C 0.30554 0.38553 0.87618 0.0
C316 C 0.8298 0.10851 0.06176 0.0
C317 C 0.81342 0.12493 0.03659 0.0
C318 C 0.84875 0.0895 0.09316 0.0
C319 C 0.8651 0.0731 0.11858 0.0
C320 C 0.83027 0.60895 0.84596 0.0
C321 C 0.81377 0.62529 0.87111 0.0
C322 C 0.84933 0.58999 0.8146 0.0
C323 C 0.8657 0.5736 0.78911 0.0
C324 C 0.16043 0.09562 0.55787 0.0
C325 C 0.17319 0.11293 0.52778 0.0
C326 C 0.14327 0.0783 0.59714 0.0
C327 C 0.12608 0.06547 0.62757 0.0
C328 C 0.64957 0.39059 0.34374 0.0
C329 C 0.66583 0.37414 0.36928 0.0
C330 C 0.63071 0.40965 0.31211 0.0
C331 C 0.61439 0.42605 0.28661 0.0
C332 C 0.33558 0.92118 0.09567 0.0
C333 C 0.35294 0.93372 0.12633 0.0
C334 C 0.31818 0.9041 0.05628 0.0
C335 C 0.30532 0.88684 0.02626 0.0
C336 C 0.81796 0.404 0.55786 0.0
C337 C 0.80537 0.38655 0.52777 0.0
C338 C 0.83505 0.42139 0.59721 0.0
C339 C 0.8523 0.43413 0.62764 0.0
C340 C 0.32975 0.10882 0.34221 0.0
C341 C 0.31329 0.12509 0.36775 0.0
C342 C 0.34884 0.08992 0.31078 0.0
C343 C 0.36529 0.07356 0.28556 0.0
C344 C 0.64281 0.57849 0.09436 0.0
C345 C 0.6256 0.56581 0.1251 0.0
C346 C 0.66012 0.59567 0.05508 0.0
C347 C 0.67299 0.61295 0.02534 0.0
C348 C 0.14865 0.89 0.84493 0.0
C349 C 0.16507 0.87368 0.87042 0.0
C350 C 0.12978 0.90898 0.813 0.0
C351 C 0.11356 0.92541 0.78709 0.0
loop_
_geom_bond_atom_site_label_1
_geom_bond_atom_site_label_2
_geom_bond_distance
_geom_bond_site_symmetry_2
_ccdc_geom_bond_type
Zn0 O3 2.031 1_556 S
Zn0 O5 2.049 . S
Zn0 O10 2.067 . S
Zn1 O2 1.962 . S
Zn1 O4 1.986 . S
Zn1 O6 1.996 . S
Zn1 O9 1.943 1_554 S
O2 Zn1 1.962 . S
O2 C7 1.254 . S
O3 Zn0 2.031 1_554 S
O3 C7 1.269 . S
O4 Zn1 1.986 . S
O4 C11 1.262 . S
O5 Zn0 2.049 . S
O5 C13 1.260 . S
O6 Zn1 1.996 . S
O6 C13 1.257 1_554 S
C7 O2 1.254 . S
C7 O3 1.269 . S
C8 O9 1.249 . S
C8 O10 1.270 . S
O9 Zn1 1.943 1_556 S
O9 C8 1.249 . S
O10 Zn0 2.067 . S
O10 C8 1.270 . S
C11 O4 1.262 . S
C11 O12 1.232 . S
O12 C11 1.232 . S
C13 O5 1.260 . S
C13 O6 1.257 1_556 S
Zn14 O17 2.031 . S
Zn14 O19 2.049 . S
Zn14 O24 2.067 . S
Zn15 O16 1.962 . S
Zn15 O18 1.986 . S
Zn15 O20 1.996 1_545 S
Zn15 O23 1.943 . S
O16 Zn15 1.962 . S
O16 C21 1.254 . S
O17 Zn14 2.031 . S
O17 C21 1.269 1_565 S
O18 Zn15 1.986 . S
O18 C25 1.262 . S
O19 Zn14 2.049 . S
O19 C27 1.260 . S
O20 Zn15 1.996 1_565 S
O20 C27 1.257 . S
C21 O16 1.254 . S
C21 O17 1.269 1_545 S
C22 O23 1.249 . S
C22 O24 1.270 1_545 S
O23 Zn15 1.943 . S
O23 C22 1.249 . S
O24 Zn14 2.067 . S
O24 C22 1.270 1_565 S
C25 O18 1.262 . S
C25 O26 1.232 . S
O26 C25 1.232 . S
C27 O19 1.260 . S
C27 O20 1.257 . S
Zn28 O31 2.031 . S
Zn28 O33 2.049 . S
Zn28 O38 2.067 . S
Zn29 O30 1.962 . S
Zn29 O32 1.986 . S
Zn29 O34 1.996 . S
Zn29 O37 1.943 . S
O30 Zn29 1.962 . S
O30 C35 1.254 . S
O31 Zn28 2.031 . S
O31 C35 1.269 . S
O32 Zn29 1.986 . S
O32 C39 1.262 . S
O33 Zn28 2.049 . S
O33 C41 1.260 . S
O34 Zn29 1.996 . S
O34 C41 1.257 . S
C35 O30 1.254 . S
C35 O31 1.269 . S
C36 O37 1.249 . S
C36 O38 1.270 . S
O37 Zn29 1.943 . S
O37 C36 1.249 . S
O38 Zn28 2.067 . S
O38 C36 1.270 . S
C39 O32 1.262 . S
C39 O40 1.232 . S
O40 C39 1.232 . S
C41 O33 1.260 . S
C41 O34 1.257 . S
Zn42 O45 2.031 . S
Zn42 O47 2.049 . S
Zn42 O52 2.067 . S
Zn43 O44 1.962 . S
Zn43 O46 1.986 1_545 S
Zn43 O48 1.996 . S
Zn43 O51 1.943 1_545 S
O44 Zn43 1.962 . S
O44 C49 1.254 . S
O45 Zn42 2.031 . S
O45 C49 1.269 . S
O46 Zn43 1.986 1_565 S
O46 C53 1.262 . S
O47 Zn42 2.049 . S
O47 C55 1.260 . S
O48 Zn43 1.996 . S
O48 C55 1.257 . S
C49 O44 1.254 . S
C49 O45 1.269 . S
C50 O51 1.249 1_545 S
C50 O52 1.270 . S
O51 Zn43 1.943 1_565 S
O51 C50 1.249 1_565 S
O52 Zn42 2.067 . S
O52 C50 1.270 . S
C53 O46 1.262 . S
C53 O54 1.232 . S
O54 C53 1.232 . S
C55 O47 1.260 . S
C55 O48 1.257 . S
Zn56 O59 2.031 1_554 S
Zn56 O61 2.049 . S
Zn56 O66 2.067 . S
Zn57 O58 1.962 . S
Zn57 O60 1.986 . S
Zn57 O62 1.996 1_556 S
Zn57 O65 1.943 1_556 S
O58 Zn57 1.962 . S
O58 C63 1.254 . S
O59 Zn56 2.031 1_556 S
O59 C63 1.269 . S
O60 Zn57 1.986 . S
O60 C67 1.262 . S
O61 Zn56 2.049 . S
O61 C69 1.260 . S
O62 Zn57 1.996 1_554 S
O62 C69 1.257 . S
C63 O58 1.254 . S
C63 O59 1.269 . S
C64 O65 1.249 . S
C64 O66 1.270 . S
O65 Zn57 1.943 1_554 S
O65 C64 1.249 . S
O66 Zn56 2.067 . S
O66 C64 1.270 . S
C67 O60 1.262 . S
C67 O68 1.232 . S
O68 C67 1.232 . S
C69 O61 1.260 . S
C69 O62 1.257 . S
Zn70 O73 2.031 . S
Zn70 O75 2.049 . S
Zn70 O80 2.067 . S
Zn71 O72 1.962 . S
Zn71 O74 1.986 1_545 S
Zn71 O76 1.996 . S
Zn71 O79 1.943 1_545 S
O72 Zn71 1.962 . S
O72 C77 1.254 . S
O73 Zn70 2.031 . S
O73 C77 1.269 . S
O74 Zn71 1.986 1_565 S
O74 C81 1.262 . S
O75 Zn70 2.049 . S
O75 C83 1.260 . S
O76 Zn71 1.996 . S
O76 C83 1.257 . S
C77 O72 1.254 . S
C77 O73 1.269 . S
C78 O79 1.249 1_545 S
C78 O80 1.270 . S
O79 Zn71 1.943 1_565 S
O79 C78 1.249 1_565 S
O80 Zn70 2.067 . S
O80 C78 1.270 . S
C81 O74 1.262 . S
C81 O82 1.232 . S
O82 C81 1.232 . S
C83 O75 1.260 . S
C83 O76 1.257 . S
Zn84 O87 2.031 . S
Zn84 O89 2.049 . S
Zn84 O94 2.067 . S
Zn85 O86 1.962 . S
Zn85 O88 1.986 . S
Zn85 O90 1.996 . S
Zn85 O93 1.943 . S
O86 Zn85 1.962 . S
O86 C91 1.254 . S
O87 Zn84 2.031 . S
O87 C91 1.269 . S
O88 Zn85 1.986 . S
O88 C95 1.262 . S
O89 Zn84 2.049 . S
O89 C97 1.260 . S
O90 Zn85 1.996 . S
O90 C97 1.257 . S
C91 O86 1.254 . S
C91 O87 1.269 . S
C92 O93 1.249 . S
C92 O94 1.270 . S
O93 Zn85 1.943 . S
O93 C92 1.249 . S
O94 Zn84 2.067 . S
O94 C92 1.270 . S
C95 O88 1.262 . S
C95 O96 1.232 . S
O96 C95 1.232 . S
C97 O89 1.260 . S
C97 O90 1.257 . S
Zn98 O101 2.031 . S
Zn98 O103 2.049 . S
Zn98 O108 2.067 . S
Zn99 O100 1.962 . S
Zn99 O102 1.986 . S
Zn99 O104 1.996 1_545 S
Zn99 O107 1.943 . S
O100 Zn99 1.962 . S
O100 C105 1.254 . S
O101 Zn98 2.031 . S
O101 C105 1.269 1_565 S
O102 Zn99 1.986 . S
O102 C109 1.262 . S
O103 Zn98 2.049 . S
O103 C111 1.260 . S
O104 Zn99 1.996 1_565 S
O104 C111 1.257 . S
C105 O100 1.254 . S
C105 O101 1.269 1_545 S
C106 O107 1.249 . S
C106 O108 1.270 1_545 S
O107 Zn99 1.943 . S
O107 C106 1.249 . S
O108 Zn98 2.067 . S
O108 C106 1.270 1_565 S
C109 O102 1.262 . S
C109 O110 1.232 . S
O110 C109 1.232 . S
C111 O103 1.260 . S
C111 O104 1.257 . S
Zn112 O115 2.031 . S
Zn112 O117 2.049 . S
Zn112 O122 2.067 . S
Zn113 O114 1.962 . S
Zn113 O116 1.986 . S
Zn113 O118 1.996 . S
Zn113 O121 1.943 . S
O114 Zn113 1.962 . S
O114 C119 1.254 . S
O115 Zn112 2.031 . S
O115 C119 1.269 . S
O116 Zn113 1.986 . S
O116 C123 1.262 . S
O117 Zn112 2.049 . S
O117 C125 1.260 . S
O118 Zn113 1.996 . S
O118 C125 1.257 . S
C119 O114 1.254 . S
C119 O115 1.269 . S
C120 O121 1.249 . S
C120 O122 1.270 . S
O121 Zn113 1.943 . S
O121 C120 1.249 . S
O122 Zn112 2.067 . S
O122 C120 1.270 . S
C123 O116 1.262 . S
C123 O124 1.232 . S
O124 C123 1.232 . S
C125 O117 1.260 . S
C125 O118 1.257 . S
Zn126 O129 2.031 . S
Zn126 O131 2.049 . S
Zn126 O136 2.067 . S
Zn127 O128 1.962 . S
Zn127 O130 1.986 . S
Zn127 O132 1.996 . S
Zn127 O135 1.943 . S
O128 Zn127 1.962 . S
O128 C133 1.254 . S
O129 Zn126 2.031 . S
O129 C133 1.269 . S
O130 Zn127 1.986 . S
O130 C137 1.262 . S
O131 Zn126 2.049 . S
O131 C139 1.260 . S
O132 Zn127 1.996 . S
O132 C139 1.257 . S
C133 O128 1.254 . S
C133 O129 1.269 . S
C134 O135 1.249 . S
C134 O136 1.270 . S
O135 Zn127 1.943 . S
O135 C134 1.249 . S
O136 Zn126 2.067 . S
O136 C134 1.270 . S
C137 O130 1.262 . S
C137 O138 1.232 . S
O138 C137 1.232 . S
C139 O131 1.260 . S
C139 O132 1.257 . S
Zn140 O143 2.031 1_556 S
Zn140 O145 2.049 . S
Zn140 O150 2.067 . S
Zn141 O142 1.962 . S
Zn141 O144 1.986 . S
Zn141 O146 1.996 . S
Zn141 O149 1.943 1_554 S
O142 Zn141 1.962 . S
O142 C147 1.254 . S
O143 Zn140 2.031 1_554 S
O143 C147 1.269 . S
O144 Zn141 1.986 . S
O144 C151 1.262 . S
O145 Zn140 2.049 . S
O145 C153 1.260 . S
O146 Zn141 1.996 . S
O146 C153 1.257 1_554 S
C147 O142 1.254 . S
C147 O143 1.269 . S
C148 O149 1.249 . S
C148 O150 1.270 . S
O149 Zn141 1.943 1_556 S
O149 C148 1.249 . S
O150 Zn140 2.067 . S
O150 C148 1.270 . S
C151 O144 1.262 . S
C151 O152 1.232 . S
O152 C151 1.232 . S
C153 O145 1.260 . S
C153 O146 1.257 1_556 S
Zn154 O157 2.031 . S
Zn154 O159 2.049 . S
Zn154 O164 2.067 . S
Zn155 O156 1.962 . S
Zn155 O158 1.986 . S
Zn155 O160 1.996 . S
Zn155 O163 1.943 . S
O156 Zn155 1.962 . S
O156 C161 1.254 . S
O157 Zn154 2.031 . S
O157 C161 1.269 . S
O158 Zn155 1.986 . S
O158 C165 1.262 . S
O159 Zn154 2.049 . S
O159 C167 1.260 . S
O160 Zn155 1.996 . S
O160 C167 1.257 . S
C161 O156 1.254 . S
C161 O157 1.269 . S
C162 O163 1.249 . S
C162 O164 1.270 . S
O163 Zn155 1.943 . S
O163 C162 1.249 . S
O164 Zn154 2.067 . S
O164 C162 1.270 . S
C165 O158 1.262 . S
C165 O166 1.232 . S
O166 C165 1.232 . S
C167 O159 1.260 . S
C167 O160 1.257 . S
Zn168 O171 2.031 . S
Zn168 O173 2.049 . S
Zn168 O178 2.067 . S
Zn169 O170 1.962 . S
Zn169 O172 1.986 . S
Zn169 O174 1.996 . S
Zn169 O177 1.943 . S
O170 Zn169 1.962 . S
O170 C175 1.254 . S
O171 Zn168 2.031 . S
O171 C175 1.269 . S
O172 Zn169 1.986 . S
O172 C179 1.262 . S
O173 Zn168 2.049 . S
O173 C181 1.260 . S
O174 Zn169 1.996 . S
O174 C181 1.257 . S
C175 O170 1.254 . S
C175 O171 1.269 . S
C176 O177 1.249 . S
C176 O178 1.270 . S
O177 Zn169 1.943 . S
O177 C176 1.249 . S
O178 Zn168 2.067 . S
O178 C176 1.270 . S
C179 O172 1.262 . S
C179 O180 1.232 . S
O180 C179 1.232 . S
C181 O173 1.260 . S
C181 O174 1.257 . S
Zn182 O185 2.031 . S
Zn182 O187 2.049 . S
Zn182 O192 2.067 . S
Zn183 O184 1.962 . S
Zn183 O186 1.986 . S
Zn183 O188 1.996 . S
Zn183 O191 1.943 . S
O184 Zn183 1.962 . S
O184 C189 1.254 . S
O185 Zn182 2.031 . S
O185 C189 1.269 . S
O186 Zn183 1.986 . S
O186 C193 1.262 . S
O187 Zn182 2.049 . S
O187 C195 1.260 . S
O188 Zn183 1.996 . S
O188 C195 1.257 . S
C189 O184 1.254 . S
C189 O185 1.269 . S
C190 O191 1.249 . S
C190 O192 1.270 . S
O191 Zn183 1.943 . S
O191 C190 1.249 . S
O192 Zn182 2.067 . S
O192 C190 1.270 . S
C193 O186 1.262 . S
C193 O194 1.232 . S
O194 C193 1.232 . S
C195 O187 1.260 . S
C195 O188 1.257 . S
Zn196 O199 2.031 1_554 S
Zn196 O201 2.049 . S
Zn196 O206 2.067 . S
Zn197 O198 1.962 . S
Zn197 O200 1.986 . S
Zn197 O202 1.996 1_556 S
Zn197 O205 1.943 1_556 S
O198 Zn197 1.962 . S
O198 C203 1.254 . S
O199 Zn196 2.031 1_556 S
O199 C203 1.269 . S
O200 Zn197 1.986 . S
O200 C207 1.262 . S
O201 Zn196 2.049 . S
O201 C209 1.260 . S
O202 Zn197 1.996 1_554 S
O202 C209 1.257 . S
C203 O198 1.254 . S
C203 O199 1.269 . S
C204 O205 1.249 . S
C204 O206 1.270 . S
O205 Zn197 1.943 1_554 S
O205 C204 1.249 . S
O206 Zn196 2.067 . S
O206 C204 1.270 . S
C207 O200 1.262 . S
C207 O208 1.232 . S
O208 C207 1.232 . S
C209 O201 1.260 . S
C209 O202 1.257 . S
Zn210 O213 2.031 . S
Zn210 O215 2.049 . S
Zn210 O220 2.067 . S
Zn211 O212 1.962 . S
Zn211 O214 1.986 . S
Zn211 O216 1.996 . S
Zn211 O219 1.943 . S
O212 Zn211 1.962 . S
O212 C217 1.254 . S
O213 Zn210 2.031 . S
O213 C217 1.269 . S
O214 Zn211 1.986 . S
O214 C221 1.262 . S
O215 Zn210 2.049 . S
O215 C223 1.260 . S
O216 Zn211 1.996 . S
O216 C223 1.257 . S
C217 O212 1.254 . S
C217 O213 1.269 . S
C218 O219 1.249 . S
C218 O220 1.270 . S
O219 Zn211 1.943 . S
O219 C218 1.249 . S
O220 Zn210 2.067 . S
O220 C218 1.270 . S
C221 O214 1.262 . S
C221 O222 1.232 . S
O222 C221 1.232 . S
C223 O215 1.260 . S
C223 O216 1.257 . S
C224 C225 1.170 . S
C224 C226 1.380 . S
C225 C224 1.170 . S
C226 C224 1.380 . S
C226 C227 1.170 . S
C227 C226 1.170 . S
C228 C229 1.170 . S
C228 C230 1.380 1_655 S
C229 C228 1.170 . S
C230 C228 1.380 1_455 S
C230 C231 1.170 . S
C231 C230 1.170 . S
C232 C233 1.170 . S
C232 C234 1.380 . S
C233 C232 1.170 . S
C234 C232 1.380 . S
C234 C235 1.170 . S
C235 C234 1.170 . S
C236 C237 1.170 . S
C236 C238 1.380 1_554 S
C237 C236 1.170 . S
C238 C236 1.380 1_556 S
C238 C239 1.170 . S
C239 C238 1.170 . S
C240 C241 1.170 . S
C240 C242 1.380 . S
C241 C240 1.170 . S
C242 C240 1.380 . S
C242 C243 1.170 . S
C243 C242 1.170 . S
C244 C245 1.170 . S
C244 C246 1.380 . S
C245 C244 1.170 . S
C246 C244 1.380 . S
C246 C247 1.170 . S
C247 C246 1.170 . S
C248 C249 1.170 . S
C248 C250 1.380 . S
C249 C248 1.170 . S
C250 C248 1.380 . S
C250 C251 1.170 . S
C251 C250 1.170 . S
C252 C253 1.170 . S
C252 C254 1.380 1_456 S
C253 C252 1.170 . S
C254 C252 1.380 1_654 S
C254 C255 1.170 . S
C255 C254 1.170 . S
C256 C257 1.170 . S
C256 C258 1.380 . S
C257 C256 1.170 . S
C258 C256 1.380 . S
C258 C259 1.170 . S
C259 C258 1.170 . S
C260 C261 1.170 . S
C260 C262 1.380 . S
C261 C260 1.170 . S
C262 C260 1.380 . S
C262 C263 1.170 . S
C263 C262 1.170 . S
C264 C265 1.170 . S
C264 C266 1.380 . S
C265 C264 1.170 . S
C266 C264 1.380 . S
C266 C267 1.170 . S
C267 C266 1.170 . S
C268 C269 1.170 . S
C268 C270 1.380 . S
C269 C268 1.170 . S
C270 C268 1.380 . S
C270 C271 1.170 . S
C271 C270 1.170 . S
C272 C273 1.170 . S
C272 C274 1.380 1_554 S
C273 C272 1.170 . S
C274 C272 1.380 1_556 S
C274 C275 1.170 . S
C275 C274 1.170 . S
C276 C277 1.170 . S
C276 C278 1.380 1_455 S
C277 C276 1.170 . S
C278 C276 1.380 1_655 S
C278 C279 1.170 . S
C279 C278 1.170 . S
C280 C281 1.170 . S
C280 C282 1.380 1_454 S
C281 C280 1.170 . S
C282 C280 1.380 1_656 S
C282 C283 1.170 . S
C283 C282 1.170 . S
C284 C285 1.170 . S
C284 C286 1.380 . S
C285 C284 1.170 . S
C286 C284 1.380 . S
C286 C287 1.170 . S
C287 C286 1.170 . S
C288 C289 1.170 . S
C288 C290 1.380 . S
C289 C288 1.170 . S
C290 C288 1.380 . S
C290 C291 1.170 . S
C291 C290 1.170 . S
C292 C293 1.170 . S
C292 C294 1.380 . S
C293 C292 1.170 . S
C294 C292 1.380 . S
C294 C295 1.170 . S
C295 C294 1.170 . S
C296 C297 1.170 . S
C296 C298 1.380 . S
C297 C296 1.170 . S
C298 C296 1.380 . S
C298 C299 1.170 . S
C299 C298 1.170 . S
C300 C301 1.170 . S
C300 C302 1.380 . S
C301 C300 1.170 . S
C302 C300 1.380 . S
C302 C303 1.170 . S
C303 C302 1.170 . S
C304 C305 1.170 . S
C304 C306 1.380 . S
C305 C304 1.170 . S
C306 C304 1.380 . S
C306 C307 1.170 . S
C307 C306 1.170 . S
C308 C309 1.170 . S
C308 C310 1.380 . S
C309 C308 1.170 . S
C310 C308 1.380 . S
C310 C311 1.170 . S
C311 C310 1.170 . S
C312 C313 1.170 . S
C312 C314 1.380 . S
C313 C312 1.170 . S
C314 C312 1.380 . S
C314 C315 1.170 . S
C315 C314 1.170 . S
C316 C317 1.170 . S
C316 C318 1.380 . S
C317 C316 1.170 . S
C318 C316 1.380 . S
C318 C319 1.170 . S
C319 C318 1.170 . S
C320 C321 1.170 . S
C320 C322 1.380 . S
C321 C320 1.170 . S
C322 C320 1.380 . S
C322 C323 1.170 . S
C323 C322 1.170 . S
C324 C325 1.170 . S
C324 C326 1.380 . S
C325 C324 1.170 . S
C326 C324 1.380 . S
C326 C327 1.170 . S
C327 C326 1.170 . S
C328 C329 1.170 . S
C328 C330 1.380 . S
C329 C328 1.170 . S
C330 C328 1.380 . S
C330 C331 1.170 . S
C331 C330 1.170 . S
C332 C333 1.170 . S
C332 C334 1.380 . S
C333 C332 1.170 . S
C334 C332 1.380 . S
C334 C335 1.170 . S
C335 C334 1.170 . S
C336 C337 1.170 . S
C336 C338 1.380 . S
C337 C336 1.170 . S
C338 C336 1.380 . S
C338 C339 1.170 . S
C339 C338 1.170 . S
C340 C341 1.170 . S
C340 C342 1.380 . S
C341 C340 1.170 . S
C342 C340 1.380 . S
C342 C343 1.170 . S
C343 C342 1.170 . S
C344 C345 1.170 . S
C344 C346 1.380 . S
C345 C344 1.170 . S
C346 C344 1.380 . S
C346 C347 1.170 . S
C347 C346 1.170 . S
C348 C349 1.170 . S
C348 C350 1.380 . S
C349 C348 1.170 . S
C350 C348 1.380 . S
C350 C351 1.170 . S
C351 C350 1.170 . S
C225 C7 1.148 . S
C227 C175 1.158 . S
C229 C22 1.344 . S
C231 C78 1.306 . S
C233 C35 1.149 . S
C235 C203 1.157 . S
C237 C106 1.288 . S
C239 C50 1.343 . S
C241 C204 1.291 . S
C243 C36 1.348 . S
C245 C105 1.148 . S
C247 C49 1.150 . S
C249 C176 1.347 . S
C251 C8 1.299 . S
C253 C77 1.144 . S
C255 C21 1.158 . S
C257 C63 1.148 . S
C259 C119 1.150 . S
C261 C91 1.145 . S
C263 C147 1.155 . S
C265 C148 1.339 . S
C267 C92 1.314 . S
C269 C64 1.294 . S
C271 C120 1.348 . S
C273 C190 1.345 . S
C275 C134 1.303 . S
C277 C162 1.347 . S
C279 C218 1.291 . S
C281 C161 1.146 . S
C283 C217 1.153 . S
C285 C133 1.148 . S
C287 C189 1.157 . S
C289 C165 1.521 . S
C291 C11 1.489 . S
C293 C125 1.415 . S
C295 C27 1.410 . S
C297 C39 1.498 . S
C299 C137 1.516 . S
C301 C153 1.434 . S
C303 C55 1.437 . S
C305 C167 1.421 . S
C307 C41 1.426 . S
C309 C53 1.499 . S
C311 C123 1.505 . S
C313 C139 1.409 . S
C315 C13 1.414 . S
C317 C151 1.512 . S
C319 C25 1.502 . S
C321 C67 1.519 . S
C323 C221 1.488 . S
C325 C181 1.424 . S
C327 C83 1.403 . S
C329 C95 1.496 . S
C331 C193 1.499 . S
C333 C111 1.410 . S
C335 C209 1.431 . S
C337 C97 1.439 . S
C339 C223 1.440 . S
C341 C179 1.487 . S
C343 C109 1.516 . S
C345 C195 1.399 . S
C347 C69 1.417 . S
C349 C207 1.518 . S
C351 C81 1.504 . S
