# Generated by pormake.
# Topology ecv, (8)-cn, num edge types: 1
# Building blocks:
#     Node 0, Type 0, BuildingBlock: EBIMEJ_clean_sbu_0, # of connection points: 8
#     Node 1, Type 0, BuildingBlock: EBIMEJ_clean_sbu_0, # of connection points: 8
#     Node 2, Type 0, BuildingBlock: EBIMEJ_clean_sbu_0, # of connection points: 8
#     Node 3, Type 0, BuildingBlock: EBIMEJ_clean_sbu_0, # of connection points: 8
#     Node 4, Type 0, BuildingBlock: EBIMEJ_clean_sbu_0, # of connection points: 8
#     Node 5, Type 0, BuildingBlock: EBIMEJ_clean_sbu_0, # of connection points: 8
#     Node 6, Type 0, BuildingBlock: EBIMEJ_clean_sbu_0, # of connection points: 8
#     Node 7, Type 0, BuildingBlock: EBIMEJ_clean_sbu_0, # of connection points: 8
#     Node 8, Type 0, BuildingBlock: EBIMEJ_clean_sbu_0, # of connection points: 8
#     Node 9, Type 0, BuildingBlock: EBIMEJ_clean_sbu_0, # of connection points: 8
#     Node 10, Type 0, BuildingBlock: EBIMEJ_clean_sbu_0, # of connection points: 8
#     Node 11, Type 0, BuildingBlock: EBIMEJ_clean_sbu_0, # of connection points: 8
#     Node 12, Type 0, BuildingBlock: EBIMEJ_clean_sbu_0, # of connection points: 8
#     Node 13, Type 0, BuildingBlock: EBIMEJ_clean_sbu_0, # of connection points: 8
#     Node 14, Type 0, BuildingBlock: EBIMEJ_clean_sbu_0, # of connection points: 8
#     Node 15, Type 0, BuildingBlock: EBIMEJ_clean_sbu_0, # of connection points: 8
#     Edge 16, Type (0, 0), BuildingBlock: CIFDUS_clean_linker_0, # of connection points: 2
#     Edge 17, Type (0, 0), BuildingBlock: CIFDUS_clean_linker_0, # of connection points: 2
#     Edge 18, Type (0, 0), BuildingBlock: CIFDUS_clean_linker_0, # of connection points: 2
#     Edge 19, Type (0, 0), BuildingBlock: CIFDUS_clean_linker_0, # of connection points: 2
#     Edge 20, Type (0, 0), BuildingBlock: CIFDUS_clean_linker_0, # of connection points: 2
#     Edge 21, Type (0, 0), BuildingBlock: CIFDUS_clean_linker_0, # of connection points: 2
#     Edge 22, Type (0, 0), BuildingBlock: CIFDUS_clean_linker_0, # of connection points: 2
#     Edge 23, Type (0, 0), BuildingBlock: CIFDUS_clean_linker_0, # of connection points: 2
#     Edge 24, Type (0, 0), BuildingBlock: CIFDUS_clean_linker_0, # of connection points: 2
#     Edge 25, Type (0, 0), BuildingBlock: CIFDUS_clean_linker_0, # of connection points: 2
#     Edge 26, Type (0, 0), BuildingBlock: CIFDUS_clean_linker_0, # of connection points: 2
#     Edge 27, Type (0, 0), BuildingBlock: CIFDUS_clean_linker_0, # of connection points: 2
#     Edge 28, Type (0, 0), BuildingBlock: CIFDUS_clean_linker_0, # of connection points: 2
#     Edge 29, Type (0, 0), BuildingBlock: CIFDUS_clean_linker_0, # of connection points: 2
#     Edge 30, Type (0, 0), BuildingBlock: CIFDUS_clean_linker_0, # of connection points: 2
#     Edge 31, Type (0, 0), BuildingBlock: CIFDUS_clean_linker_0, # of connection points: 2
#     Edge 32, Type (0, 0), BuildingBlock: CIFDUS_clean_linker_0, # of connection points: 2
#     Edge 33, Type (0, 0), BuildingBlock: CIFDUS_clean_linker_0, # of connection points: 2
#     Edge 34, Type (0, 0), BuildingBlock: CIFDUS_clean_linker_0, # of connection points: 2
#     Edge 35, Type (0, 0), BuildingBlock: CIFDUS_clean_linker_0, # of connection points: 2
#     Edge 36, Type (0, 0), BuildingBlock: CIFDUS_clean_linker_0, # of connection points: 2
#     Edge 37, Type (0, 0), BuildingBlock: CIFDUS_clean_linker_0, # of connection points: 2
#     Edge 38, Type (0, 0), BuildingBlock: CIFDUS_clean_linker_0, # of connection points: 2
#     Edge 39, Type (0, 0), BuildingBlock: CIFDUS_clean_linker_0, # of connection points: 2
#     Edge 40, Type (0, 0), BuildingBlock: CIFDUS_clean_linker_0, # of connection points: 2
#     Edge 41, Type (0, 0), BuildingBlock: CIFDUS_clean_linker_0, # of connection points: 2
#     Edge 42, Type (0, 0), BuildingBlock: CIFDUS_clean_linker_0, # of connection points: 2
#     Edge 43, Type (0, 0), BuildingBlock: CIFDUS_clean_linker_0, # of connection points: 2
#     Edge 44, Type (0, 0), BuildingBlock: CIFDUS_clean_linker_0, # of connection points: 2
#     Edge 45, Type (0, 0), BuildingBlock: CIFDUS_clean_linker_0, # of connection points: 2
#     Edge 46, Type (0, 0), BuildingBlock: CIFDUS_clean_linker_0, # of connection points: 2
#     Edge 47, Type (0, 0), BuildingBlock: CIFDUS_clean_linker_0, # of connection points: 2
#     Edge 48, Type (0, 0), BuildingBlock: CIFDUS_clean_linker_0, # of connection points: 2
#     Edge 49, Type (0, 0), BuildingBlock: CIFDUS_clean_linker_0, # of connection points: 2
#     Edge 50, Type (0, 0), BuildingBlock: CIFDUS_clean_linker_0, # of connection points: 2
#     Edge 51, Type (0, 0), BuildingBlock: CIFDUS_clean_linker_0, # of connection points: 2
#     Edge 52, Type (0, 0), BuildingBlock: CIFDUS_clean_linker_0, # of connection points: 2
#     Edge 53, Type (0, 0), BuildingBlock: CIFDUS_clean_linker_0, # of connection points: 2
#     Edge 54, Type (0, 0), BuildingBlock: CIFDUS_clean_linker_0, # of connection points: 2
#     Edge 55, Type (0, 0), BuildingBlock: CIFDUS_clean_linker_0, # of connection points: 2
#     Edge 56, Type (0, 0), BuildingBlock: CIFDUS_clean_linker_0, # of connection points: 2
#     Edge 57, Type (0, 0), BuildingBlock: CIFDUS_clean_linker_0, # of connection points: 2
#     Edge 58, Type (0, 0), BuildingBlock: CIFDUS_clean_linker_0, # of connection points: 2
#     Edge 59, Type (0, 0), BuildingBlock: CIFDUS_clean_linker_0, # of connection points: 2
#     Edge 60, Type (0, 0), BuildingBlock: CIFDUS_clean_linker_0, # of connection points: 2
#     Edge 61, Type (0, 0), BuildingBlock: CIFDUS_clean_linker_0, # of connection points: 2
#     Edge 62, Type (0, 0), BuildingBlock: CIFDUS_clean_linker_0, # of connection points: 2
#     Edge 63, Type (0, 0), BuildingBlock: CIFDUS_clean_linker_0, # of connection points: 2
#     Edge 64, Type (0, 0), BuildingBlock: CIFDUS_clean_linker_0, # of connection points: 2
#     Edge 65, Type (0, 0), BuildingBlock: CIFDUS_clean_linker_0, # of connection points: 2
#     Edge 66, Type (0, 0), BuildingBlock: CIFDUS_clean_linker_0, # of connection points: 2
#     Edge 67, Type (0, 0), BuildingBlock: CIFDUS_clean_linker_0, # of connection points: 2
#     Edge 68, Type (0, 0), BuildingBlock: CIFDUS_clean_linker_0, # of connection points: 2
#     Edge 69, Type (0, 0), BuildingBlock: CIFDUS_clean_linker_0, # of connection points: 2
#     Edge 70, Type (0, 0), BuildingBlock: CIFDUS_clean_linker_0, # of connection points: 2
#     Edge 71, Type (0, 0), BuildingBlock: CIFDUS_clean_linker_0, # of connection points: 2
#     Edge 72, Type (0, 0), BuildingBlock: CIFDUS_clean_linker_0, # of connection points: 2
#     Edge 73, Type (0, 0), BuildingBlock: CIFDUS_clean_linker_0, # of connection points: 2
#     Edge 74, Type (0, 0), BuildingBlock: CIFDUS_clean_linker_0, # of connection points: 2
#     Edge 75, Type (0, 0), BuildingBlock: CIFDUS_clean_linker_0, # of connection points: 2
#     Edge 76, Type (0, 0), BuildingBlock: CIFDUS_clean_linker_0, # of connection points: 2
#     Edge 77, Type (0, 0), BuildingBlock: CIFDUS_clean_linker_0, # of connection points: 2
#     Edge 78, Type (0, 0), BuildingBlock: CIFDUS_clean_linker_0, # of connection points: 2
#     Edge 79, Type (0, 0), BuildingBlock: CIFDUS_clean_linker_0, # of connection points: 2
# Relax obj value: 0.075
# Max RMSD: 0.178
# Mean RMSD: 0.178
data_MOF--net-ecv--node1-EBIMEJ_clean_sbu_0--edge1-CIFDUS_clean_linker_0
_symmetry_space_group_name_H-M    P1
_symmetry_Int_Tables_number       1
_symmetry_cell_setting            triclinic
loop_
_symmetry_equiv_pos_as_xyz
'x, y, z'
_cell_length_a     14.30641
_cell_length_b     25.999324
_cell_length_c     122.6608
_cell_angle_alpha  100.73677
_cell_angle_beta   90.058189
_cell_angle_gamma 90.046684
loop_
_atom_site_label
_atom_site_type_symbol
_atom_site_fract_x
_atom_site_fract_y
_atom_site_fract_z
_atom_type_partial_charge
Co0 Co 0.21091 0.20891 0.43908 0.0
Co1 Co 0.11842 0.11468 0.45001 0.0
Co2 Co 0.21195 0.20425 0.46497 0.0
H3 H 0.21406 0.19155 0.45178 0.0
O4 O 0.2281 0.15917 0.44935 0.0
H5 H 0.12444 0.12481 0.46331 0.0
O6 O 0.10804 0.1567 0.46587 0.0
Co7 Co 0.13599 0.10713 0.47593 0.0
O8 O 0.01256 0.0754 0.47009 0.0
O9 O 0.0086 0.07187 0.45164 0.0
O10 O 0.19759 0.16113 0.48804 0.0
O11 O 0.20427 0.23501 0.4811 0.0
O12 O 0.24906 0.23395 0.42454 0.0
O13 O 0.31243 0.16928 0.429 0.0
O14 O 0.24868 0.06707 0.46941 0.0
O15 O 0.20575 0.05213 0.45157 0.0
C16 C 0.34491 0.27154 0.45565 0.0
C17 C 0.08707 0.12389 0.42693 0.0
C18 C 0.09746 0.06385 0.49207 0.0
C19 C 0.08558 0.28023 0.45419 0.0
C20 C 0.97462 0.06131 0.46057 0.0
C21 C 0.21056 0.21055 0.48922 0.0
C22 C 0.30928 0.19863 0.42195 0.0
C23 C 0.2566 0.04122 0.45958 0.0
O24 O 0.30791 0.26134 0.44603 0.0
O25 O 0.31772 0.25145 0.46379 0.0
O26 O 0.11065 0.09157 0.43327 0.0
O27 O 0.10415 0.17289 0.42971 0.0
O28 O 0.12858 0.04039 0.4829 0.0
O29 O 0.08928 0.11201 0.49212 0.0
O30 O 0.11279 0.2642 0.44425 0.0
O31 O 0.11773 0.26011 0.46228 0.0
Co32 Co 0.17715 0.08783 0.85242 0.0
Co33 Co 0.09706 0.18272 0.84136 0.0
Co34 Co 0.17804 0.08898 0.82614 0.0
H35 H 0.18111 0.1019 0.83938 0.0
O36 O 0.19959 0.13358 0.84174 0.0
H37 H 0.1036 0.17226 0.82818 0.0
O38 O 0.08184 0.14152 0.82542 0.0
Co39 Co 0.12478 0.19003 0.81586 0.0
O40 O 0.04901 0.25048 0.82368 0.0
O41 O 0.998 0.23313 0.83986 0.0
O42 O 0.20847 0.13947 0.8056 0.0
O43 O 0.1708 0.06157 0.80954 0.0
O44 O 0.22124 0.06165 0.86661 0.0
O45 O 0.26932 0.13211 0.8632 0.0
O46 O 0.22526 0.24019 0.82258 0.0
O47 O 0.19571 0.2403 0.84047 0.0
C48 C 0.30366 0.02026 0.83587 0.0
C49 C 0.0603 0.17347 0.86407 0.0
C50 C 0.06375 0.20976 0.7981 0.0
C51 C 0.04458 1.01892 0.83765 0.0
C52 C 1.00017 0.26168 0.83248 0.0
C53 C 0.2007 0.08989 0.80268 0.0
C54 C 0.27279 0.10069 0.86983 0.0
C55 C 0.23971 0.25847 0.8328 0.0
O56 O 0.27009 0.03435 0.84556 0.0
O57 O 0.27675 0.03793 0.82738 0.0
O58 O 0.09074 0.20547 0.85805 0.0
O59 O 0.06786 0.12415 0.86086 0.0
O60 O 0.14895 0.20989 0.80061 0.0
O61 O 0.01339 0.19708 0.80555 0.0
O62 O 0.07272 0.0372 0.84745 0.0
O63 O 0.0779 0.03512 0.82906 0.0
Co64 Co 0.89179 0.92489 0.56393 0.0
Co65 Co 0.81891 0.82796 0.57538 0.0
Co66 Co 0.9032 0.92217 0.59007 0.0
H67 H 0.90149 0.90936 0.57676 0.0
O68 O 0.92044 0.87758 0.57452 0.0
H69 H 0.80946 0.84411 0.58857 0.0
O70 O 0.79424 0.87664 0.59046 0.0
Co71 Co 0.80334 0.8317 0.60176 0.0
O72 O 0.7061 0.77951 0.59473 0.0
O73 O 0.71464 0.77983 0.57646 0.0
O74 O 0.90908 0.86834 0.61115 0.0
O75 O 0.9056 0.94808 0.60675 0.0
O76 O 0.8989 0.99031 0.55659 0.0
O77 O 0.93862 0.91811 0.54767 0.0
O78 O 0.90796 0.77946 0.59797 0.0
O79 O 0.91384 0.77428 0.57954 0.0
C80 C 0.0424 0.98009 0.57978 0.0
C81 C 0.82471 0.81808 0.55108 0.0
C82 C 0.70469 0.84595 0.61902 0.0
C83 C 0.76818 0.99437 0.57951 0.0
C84 C 0.67859 0.76435 0.58475 0.0
C85 C 0.92706 0.9173 0.6135 0.0
C86 C 0.93003 0.96609 0.5475 0.0
C87 C 0.9416 0.75947 0.58852 0.0
O88 O 0.00705 0.96491 0.57017 0.0
O89 O 0.01094 0.96698 0.58859 0.0
O90 O 0.833 0.79443 0.55934 0.0
O91 O 0.83425 0.86771 0.55213 0.0
O92 O 0.75197 0.80539 0.61568 0.0
O93 O 0.71371 0.87795 0.61258 0.0
O94 O 0.78048 0.9685 0.56974 0.0
O95 O 0.81438 0.98307 0.58783 0.0
Co96 Co 0.87418 0.8537 0.22541 0.0
Co97 Co 0.81269 0.95268 0.21375 0.0
Co98 Co 0.90368 0.86043 0.19952 0.0
H99 H 0.89238 0.87089 0.21279 0.0
O100 O 0.91034 0.9024 0.21542 0.0
H101 H 0.81613 0.93952 0.20048 0.0
O102 O 0.79956 0.90754 0.19808 0.0
Co103 Co 0.82837 0.95561 0.18768 0.0
O104 O 0.76582 0.02178 0.19543 0.0
O105 O 0.71615 1.00358 0.21159 0.0
O106 O 0.93062 0.91349 0.17852 0.0
O107 O 0.91312 0.83442 0.18302 0.0
O108 O 0.82686 0.83689 0.24033 0.0
O109 O 0.96616 0.82553 0.23593 0.0
O110 O 0.92641 1.00936 0.19369 0.0
O111 O 0.91563 1.00521 0.21169 0.0
C112 C 0.03061 0.79851 0.21059 0.0
C113 C 0.80036 0.95881 0.23803 0.0
C114 C 0.75134 0.95074 0.16907 0.0
C115 C 0.7672 0.78246 0.20807 0.0
C116 C 0.72126 0.03379 0.20455 0.0
C117 C 0.94235 0.86398 0.17644 0.0
C118 C 0.90548 0.82196 0.24314 0.0
C119 C 0.9518 0.02464 0.20373 0.0
O120 O 0.98785 0.8111 0.2198 0.0
O121 O 0.00734 0.8144 0.20176 0.0
O122 O 0.81417 0.98353 0.23003 0.0
O123 O 0.80746 0.90905 0.23675 0.0
O124 O 0.83789 0.95061 0.17069 0.0
O125 O 0.70764 0.9533 0.17803 0.0
O126 O 0.7785 0.80139 0.21831 0.0
O127 O 0.81054 0.80121 0.20047 0.0
Co128 Co 0.18392 0.70518 0.93856 0.0
Co129 Co 0.09756 0.61072 0.94989 0.0
Co130 Co 0.1896 0.70144 0.96476 0.0
H131 H 0.18975 0.68905 0.95145 0.0
O132 O 0.20479 0.65685 0.949 0.0
H133 H 0.10768 0.62008 0.96313 0.0
O134 O 0.09015 0.65153 0.96585 0.0
Co135 Co 0.1241 0.60225 0.97567 0.0
O136 O 0.00828 0.56206 0.96986 0.0
O137 O 0.99138 0.56576 0.95178 0.0
O138 O 0.21541 0.65053 0.98546 0.0
O139 O 0.18593 0.72911 0.98136 0.0
O140 O 0.26272 0.65733 0.92661 0.0
O141 O 0.23946 0.73405 0.92513 0.0
O142 O 0.21857 0.54937 0.96868 0.0
O143 O 0.18859 0.54987 0.95079 0.0
C144 C 0.28458 0.78324 0.95601 0.0
C145 C 0.06452 0.61738 0.92656 0.0
C146 C 0.07464 0.57939 0.99374 0.0
C147 C 0.05598 0.7742 0.95428 0.0
C148 C 0.96583 0.55034 0.96059 0.0
C149 C 0.21153 0.70033 0.98831 0.0
C150 C 0.27746 0.69163 0.92082 0.0
C151 C 0.2308 0.53066 0.95845 0.0
O152 O 0.24342 0.77101 0.94667 0.0
O153 O 0.28712 0.75313 0.96311 0.0
O154 O 0.08682 0.58662 0.93325 0.0
O155 O 0.08315 0.66626 0.92873 0.0
O156 O 0.12852 0.55195 0.98694 0.0
O157 O 0.05012 0.62006 0.99034 0.0
O158 O 0.08516 0.75942 0.94436 0.0
O159 O 0.08845 0.75432 0.9624 0.0
Co160 Co 0.21025 0.58702 0.35155 0.0
Co161 Co 0.10063 0.67351 0.3396 0.0
Co162 Co 0.19295 0.58115 0.32543 0.0
H163 H 0.20093 0.59927 0.33847 0.0
O164 O 0.21336 0.63219 0.34032 0.0
H165 H 0.10424 0.65981 0.32637 0.0
O166 O 0.0879 0.62751 0.32414 0.0
Co167 Co 0.11421 0.67454 0.31354 0.0
O168 O 0.98774 0.70354 0.31915 0.0
O169 O 0.98735 0.71294 0.33775 0.0
O170 O 0.17426 0.61755 0.30199 0.0
O171 O 0.18205 0.5453 0.30952 0.0
O172 O 0.19638 0.57238 0.36744 0.0
O173 O 0.3273 0.58672 0.3614 0.0
O174 O 0.22148 0.72134 0.31942 0.0
O175 O 0.18466 0.73673 0.3374 0.0
C176 C 0.3562 0.5441 0.3356 0.0
C177 C 0.07617 0.66823 0.36277 0.0
C178 C 0.0849 0.7103 0.29626 0.0
C179 C 0.08778 0.50548 0.33847 0.0
C180 C 0.94988 0.71901 0.32864 0.0
C181 C 0.18672 0.56826 0.30113 0.0
C182 C 0.28226 0.57669 0.36952 0.0
C183 C 0.23198 0.7479 0.32915 0.0
O184 O 0.33834 0.5765 0.34446 0.0
O185 O 0.29988 0.53653 0.32742 0.0
O186 O 0.09545 0.70008 0.35619 0.0
O187 O 0.09819 0.61987 0.36026 0.0
O188 O 0.16341 0.69536 0.29908 0.0
O189 O 0.02338 0.70482 0.30323 0.0
O190 O 0.12714 0.52426 0.34764 0.0
O191 O 0.10174 0.52564 0.32972 0.0
Co192 Co 0.86736 0.43997 0.06511 0.0
Co193 Co 0.81802 0.33546 0.075 0.0
Co194 Co 0.8952 0.42914 0.09063 0.0
H195 H 0.8873 0.42087 0.07741 0.0
O196 O 0.90983 0.39065 0.07451 0.0
H197 H 0.81651 0.34577 0.08826 0.0
O198 O 0.79644 0.3768 0.09094 0.0
Co199 Co 0.82587 0.32775 0.10091 0.0
O200 O 0.7673 0.26197 0.09263 0.0
O201 O 0.72768 0.27904 0.07598 0.0
O202 O 0.93241 0.36817 0.10934 0.0
O203 O 0.90344 0.45 0.10734 0.0
O204 O 0.86815 0.48889 0.05363 0.0
O205 O 0.94987 0.42196 0.05102 0.0
O206 O 0.92516 0.27546 0.09483 0.0
O207 O 0.92532 0.28542 0.07708 0.0
C208 C 0.98558 0.5125 0.0823 0.0
C209 C 0.7955 0.33912 0.05161 0.0
C210 C 0.74966 0.33086 0.1195 0.0
C211 C 0.74953 0.50378 0.08248 0.0
C212 C 0.72955 0.24904 0.0831 0.0
C213 C 0.93898 0.41737 0.11288 0.0
C214 C 0.926 0.46197 0.04731 0.0
C215 C 0.95691 0.26372 0.08499 0.0
O216 O 0.93774 0.50187 0.0734 0.0
O217 O 0.99038 0.48215 0.08933 0.0
O218 O 0.82517 0.31049 0.05839 0.0
O219 O 0.78647 0.38857 0.05463 0.0
O220 O 0.83583 0.32823 0.11772 0.0
O221 O 0.70546 0.33185 0.11069 0.0
O222 O 0.76563 0.48748 0.07223 0.0
O223 O 0.79315 0.48491 0.09009 0.0
Co224 Co 0.89939 0.35047 0.72576 0.0
Co225 Co 0.80924 0.44357 0.71489 0.0
Co226 Co 0.91893 0.36018 0.70032 0.0
H227 H 0.90918 0.36985 0.71342 0.0
O228 O 0.91995 0.40234 0.71615 0.0
H229 H 0.81308 0.43165 0.70165 0.0
O230 O 0.80382 0.39885 0.6991 0.0
Co231 Co 0.81973 0.44825 0.68888 0.0
O232 O 0.72251 0.49911 0.69585 0.0
O233 O 0.69719 0.48477 0.71308 0.0
O234 O 0.9351 0.41785 0.68042 0.0
O235 O 0.93244 0.33643 0.68385 0.0
O236 O 0.86935 0.31197 0.7387 0.0
O237 O 1.00258 0.34079 0.73679 0.0
O238 O 0.90855 0.50663 0.69469 0.0
O239 O 0.89421 0.50521 0.71281 0.0
C240 C 0.07567 0.3251 0.71194 0.0
C241 C 0.79309 0.44156 0.73857 0.0
C242 C 0.73252 0.43648 0.67096 0.0
C243 C 0.79537 0.27629 0.70884 0.0
C244 C 0.67767 0.50724 0.70498 0.0
C245 C 0.95773 0.36963 0.67788 0.0
C246 C 0.9514 0.31668 0.74245 0.0
C247 C 0.92756 0.52545 0.70477 0.0
O248 O 0.03675 0.34328 0.72124 0.0
O249 O 0.0339 0.32296 0.70267 0.0
O250 O 0.80779 0.47121 0.73143 0.0
O251 O 0.80331 0.39192 0.73606 0.0
O252 O 0.75368 0.40014 0.67597 0.0
O253 O 0.76117 0.47992 0.67611 0.0
O254 O 0.80593 0.29601 0.71905 0.0
O255 O 0.83763 0.29545 0.7012 0.0
Co256 Co 0.68556 0.20273 0.93864 0.0
Co257 Co 0.59159 0.11162 0.94989 0.0
Co258 Co 0.69471 0.19803 0.96464 0.0
H259 H 0.69191 0.18604 0.95141 0.0
O260 O 0.70347 0.15349 0.94885 0.0
H261 H 0.6022 0.12096 0.96303 0.0
O262 O 0.58825 0.15299 0.96582 0.0
Co263 Co 0.61757 0.10182 0.97535 0.0
O264 O 0.48323 0.08358 0.97075 0.0
O265 O 0.4804 0.07093 0.95212 0.0
O266 O 0.7131 0.14621 0.98528 0.0
O267 O 0.69446 0.22564 0.98115 0.0
O268 O 0.72849 0.22989 0.92453 0.0
O269 O 0.77705 0.15911 0.92772 0.0
O270 O 0.70756 0.04675 0.96837 0.0
O271 O 0.67686 0.04808 0.95057 0.0
C272 C 0.82556 0.26295 0.95463 0.0
C273 C 0.55573 0.12125 0.9271 0.0
C274 C 0.59011 0.06894 0.99289 0.0
C275 C 0.56996 0.27677 0.95448 0.0
C276 C 0.44366 0.06689 0.9614 0.0
C277 C 0.71598 0.19601 0.98807 0.0
C278 C 0.78034 0.19116 0.92122 0.0
C279 C 0.71831 0.02797 0.95814 0.0
O280 O 0.78409 0.25339 0.9453 0.0
O281 O 0.80228 0.24317 0.96298 0.0
O282 O 0.57894 0.08849 0.9333 0.0
O283 O 0.57347 0.17001 0.92999 0.0
O284 O 0.66966 0.07512 0.98898 0.0
O285 O 0.52643 0.08165 0.98687 0.0
O286 O 0.59208 0.25935 0.94442 0.0
O287 O 0.60377 0.25666 0.96251 0.0
Co288 Co 0.69306 0.08356 0.3525 0.0
Co289 Co 0.60582 0.17873 0.34106 0.0
Co290 Co 0.6804 0.08203 0.32628 0.0
H291 H 0.69032 0.09754 0.33945 0.0
O292 O 0.70925 0.12944 0.3414 0.0
H293 H 0.60508 0.16582 0.32774 0.0
O294 O 0.58352 0.1346 0.32548 0.0
Co295 Co 0.61524 0.18137 0.3149 0.0
O296 O 0.54102 0.24261 0.32303 0.0
O297 O 0.50314 0.2275 0.33987 0.0
O298 O 0.66251 0.12195 0.30292 0.0
O299 O 0.66492 0.04895 0.31021 0.0
O300 O 0.74611 0.05797 0.36646 0.0
O301 O 0.78942 0.1285 0.36282 0.0
O302 O 0.7266 0.22519 0.32035 0.0
O303 O 0.70036 0.23708 0.33862 0.0
C304 C 0.77964 1.00125 0.33483 0.0
C305 C 0.58475 0.17534 0.3645 0.0
C306 C 0.5709 0.21844 0.29812 0.0
C307 C 0.55136 1.01425 0.33892 0.0
C308 C 0.49866 0.25476 0.33229 0.0
C309 C 0.67133 0.07237 0.3019 0.0
C310 C 0.79725 0.09731 0.36946 0.0
C311 C 0.74206 0.24992 0.33013 0.0
O312 O 0.74465 1.01491 0.34449 0.0
O313 O 0.77787 0.03036 0.32756 0.0
O314 O 0.60789 0.20516 0.35765 0.0
O315 O 0.5961 0.12584 0.36218 0.0
O316 O 0.60051 0.2446 0.30709 0.0
O317 O 0.56613 0.17058 0.2986 0.0
O318 O 0.58673 0.03191 0.34843 0.0
O319 O 0.5795 0.03065 0.33014 0.0
Co320 Co 0.39098 0.93354 0.06468 0.0
Co321 Co 0.3045 0.84192 0.0762 0.0
Co322 Co 0.41481 0.92703 0.09033 0.0
H323 H 0.40429 0.91573 0.07718 0.0
O324 O 0.4153 0.88313 0.07459 0.0
H325 H 0.30992 0.85494 0.08953 0.0
O326 O 0.30073 0.8879 0.09186 0.0
Co327 Co 0.31551 0.84006 0.10255 0.0
O328 O 0.18858 0.81302 0.09707 0.0
O329 O 0.19235 0.80173 0.07847 0.0
O330 O 0.42795 0.87401 0.11128 0.0
O331 O 0.42683 0.95358 0.10678 0.0
O332 O 0.3393 0.96109 0.05113 0.0
O333 O 0.48239 0.95343 0.05315 0.0
O334 O 0.40351 0.78078 0.09665 0.0
O335 O 0.38901 0.78126 0.0785 0.0
C336 C 0.56613 0.967 0.07839 0.0
C337 C 0.28615 0.83999 0.05229 0.0
C338 C 0.24565 0.83656 0.12121 0.0
C339 C 0.29195 1.01011 0.08144 0.0
C340 C 0.15317 0.79634 0.08752 0.0
C341 C 0.4482 0.92269 0.11344 0.0
C342 C 0.4189 0.96691 0.0472 0.0
C343 C 0.42234 0.76153 0.08658 0.0
O344 O 0.52656 0.94927 0.06909 0.0
O345 O 0.52828 0.96523 0.08773 0.0
O346 O 0.30121 0.81173 0.05969 0.0
O347 O 0.29702 0.88957 0.05444 0.0
O348 O 0.33167 0.83933 0.11935 0.0
O349 O 0.19928 0.8355 0.11248 0.0
O350 O 0.30178 0.98985 0.07127 0.0
O351 O 0.3329 0.9909 0.08915 0.0
Co352 Co 0.35354 0.85531 0.72524 0.0
Co353 Co 0.30223 0.95849 0.71495 0.0
Co354 Co 0.38287 0.86562 0.69957 0.0
H355 H 0.37378 0.87385 0.71283 0.0
O356 O 0.39522 0.90434 0.71571 0.0
H357 H 0.29991 0.94694 0.70167 0.0
O358 O 0.28092 0.91547 0.69914 0.0
Co359 Co 0.30695 0.96378 0.68888 0.0
O360 O 0.25784 0.03182 0.69721 0.0
O361 O 0.212 1.01442 0.71361 0.0
O362 O 0.40784 0.92469 0.67926 0.0
O363 O 0.39115 0.84384 0.68278 0.0
O364 O 0.31123 0.84299 0.74068 0.0
O365 O 0.45003 0.83234 0.73603 0.0
O366 O 0.41087 1.01516 0.6947 0.0
O367 O 0.40987 1.00768 0.71261 0.0
C368 C 0.49152 0.79089 0.70881 0.0
C369 C 0.27866 0.9565 0.73839 0.0
C370 C 0.20639 0.9494 0.67164 0.0
C371 C 0.24411 0.78702 0.70783 0.0
C372 C 0.21951 0.04524 0.70669 0.0
C373 C 0.41921 0.87533 0.67648 0.0
C374 C 0.39102 0.83004 0.7435 0.0
C375 C 0.44306 0.02776 0.70456 0.0
O376 O 0.44438 0.80084 0.71778 0.0
O377 O 0.4836 0.81668 0.701 0.0
O378 O 0.30879 0.98493 0.73158 0.0
O379 O 0.27073 0.90693 0.73545 0.0
O380 O 0.26258 0.98678 0.67426 0.0
O381 O 0.20765 0.92044 0.67878 0.0
O382 O 0.25719 0.80484 0.71806 0.0
O383 O 0.28666 0.80647 0.70021 0.0
Co384 Co 0.68743 0.70033 0.43692 0.0
Co385 Co 0.60072 0.60603 0.44802 0.0
Co386 Co 0.68391 0.69885 0.46312 0.0
H387 H 0.68903 0.68533 0.44988 0.0
O388 O 0.70636 0.65337 0.44766 0.0
H389 H 0.60489 0.61649 0.46155 0.0
O390 O 0.58489 0.64786 0.46392 0.0
Co391 Co 0.61305 0.59904 0.47444 0.0
O392 O 0.4899 0.59815 0.46627 0.0
O393 O 0.49488 0.55914 0.44918 0.0
O394 O 0.67738 0.654 0.48618 0.0
O395 O 0.67401 0.72877 0.47941 0.0
O396 O 0.73513 0.7269 0.42289 0.0
O397 O 0.78534 0.65767 0.42662 0.0
O398 O 0.70447 0.54235 0.46794 0.0
O399 O 0.69331 0.54764 0.44995 0.0
C400 C 0.78668 0.77842 0.4545 0.0
C401 C 0.58156 0.60885 0.42453 0.0
C402 C 0.585 0.55916 0.49128 0.0
C403 C 0.55271 0.76929 0.45138 0.0
C404 C 0.46632 0.55907 0.45894 0.0
C405 C 0.68573 0.70385 0.48744 0.0
C406 C 0.78932 0.68891 0.41995 0.0
C407 C 0.72698 0.52637 0.45783 0.0
O408 O 0.74713 0.76644 0.44505 0.0
O409 O 0.78337 0.74948 0.4618 0.0
O410 O 0.60231 0.57984 0.43156 0.0
O411 O 0.59366 0.65829 0.42652 0.0
O412 O 0.63498 0.53893 0.48319 0.0
O413 O 0.55224 0.60214 0.48986 0.0
O414 O 0.58203 0.75099 0.44163 0.0
O415 O 0.58502 0.75292 0.45999 0.0
Co416 Co 0.69125 0.59221 0.85166 0.0
Co417 Co 0.59085 0.6808 0.84016 0.0
Co418 Co 0.69199 0.59382 0.8254 0.0
H419 H 0.69185 0.60708 0.83867 0.0
O420 O 0.70343 0.63984 0.84096 0.0
H421 H 0.59693 0.67025 0.82693 0.0
O422 O 0.58333 0.63793 0.82431 0.0
Co423 Co 0.60843 0.68815 0.81439 0.0
O424 O 0.4849 0.72042 0.82005 0.0
O425 O 0.47868 0.72081 0.83839 0.0
O426 O 0.69025 0.64048 0.80334 0.0
O427 O 0.68918 0.56327 0.80894 0.0
O428 O 0.79671 0.6269 0.86186 0.0
O429 O 0.72004 0.56743 0.86663 0.0
O430 O 0.72046 0.72853 0.82091 0.0
O431 O 0.67558 0.74463 0.83865 0.0
C432 C 0.84638 0.54743 0.83605 0.0
C433 C 0.55704 0.67083 0.86293 0.0
C434 C 0.57424 0.72268 0.79703 0.0
C435 C 0.5749 0.51481 0.83639 0.0
C436 C 0.44605 0.73287 0.82954 0.0
C437 C 0.70198 0.59096 0.8014 0.0
C438 C 0.78612 0.59943 0.86917 0.0
C439 C 0.72792 0.75473 0.83069 0.0
O440 O 0.81755 0.56736 0.84571 0.0
O441 O 0.80184 0.55086 0.8272 0.0
O442 O 0.58178 0.70413 0.85687 0.0
O443 O 0.57506 0.62218 0.85986 0.0
O444 O 0.65273 0.70664 0.79955 0.0
O445 O 0.51479 0.71921 0.80439 0.0
O446 O 0.60013 0.53287 0.84635 0.0
O447 O 0.60432 0.5351 0.82819 0.0
Co448 Co 0.41213 0.43222 0.56545 0.0
Co449 Co 0.3343 0.33461 0.57696 0.0
Co450 Co 0.41349 0.42962 0.59203 0.0
H451 H 0.41434 0.41708 0.57853 0.0
O452 O 0.43458 0.38545 0.57645 0.0
H453 H 0.32559 0.34958 0.59012 0.0
O454 O 0.30786 0.38161 0.59221 0.0
Co455 Co 0.32398 0.3352 0.60311 0.0
O456 O 0.22607 0.28451 0.59615 0.0
O457 O 0.23199 0.28458 0.57785 0.0
O458 O 0.43708 0.37267 0.61061 0.0
O459 O 0.41256 0.4546 0.60857 0.0
O460 O 0.39242 0.49227 0.55665 0.0
O461 O 0.47546 0.42893 0.55015 0.0
O462 O 0.42837 0.28325 0.59907 0.0
O463 O 0.42952 0.28006 0.5807 0.0
C464 C 0.5523 0.47646 0.58147 0.0
C465 C 0.34171 0.32679 0.55269 0.0
C466 C 0.22767 0.33238 0.62011 0.0
C467 C 0.28559 0.5039 0.58082 0.0
C468 C 0.19822 0.26871 0.58624 0.0
C469 C 0.44458 0.42172 0.61427 0.0
C470 C 0.44309 0.4719 0.54864 0.0
C471 C 0.45875 0.26367 0.58944 0.0
O472 O 0.53383 0.43691 0.574 0.0
O473 O 0.51881 0.47679 0.59102 0.0
O474 O 0.34977 0.30293 0.56091 0.0
O475 O 0.35116 0.37642 0.55371 0.0
O476 O 0.19926 0.31897 0.61032 0.0
O477 O 0.3108 0.34792 0.62031 0.0
O478 O 0.31159 0.48415 0.57101 0.0
O479 O 0.31961 0.48792 0.58943 0.0
Co480 Co 0.39869 0.35105 0.22466 0.0
Co481 Co 0.31394 0.44534 0.21278 0.0
Co482 Co 0.41965 0.35801 0.19885 0.0
H483 H 0.4091 0.36903 0.21206 0.0
O484 O 0.42107 0.40155 0.21461 0.0
H485 H 0.32015 0.43192 0.19956 0.0
O486 O 0.30864 0.39924 0.19718 0.0
Co487 Co 0.33036 0.44737 0.18671 0.0
O488 O 0.23645 0.50162 0.19302 0.0
O489 O 0.20684 0.48951 0.21038 0.0
O490 O 0.43944 0.41102 0.17784 0.0
O491 O 0.4314 0.33153 0.18237 0.0
O492 O 0.40217 0.28409 0.23161 0.0
O493 O 0.43521 0.35622 0.24114 0.0
O494 O 0.42168 0.50515 0.1926 0.0
O495 O 0.40461 0.50372 0.21067 0.0
C496 C 0.5712 0.31922 0.21083 0.0
C497 C 0.31042 0.45291 0.23727 0.0
C498 C 0.23795 0.43507 0.16907 0.0
C499 C 0.29209 0.27733 0.2078 0.0
C500 C 0.19036 0.51091 0.20204 0.0
C501 C 0.45539 0.36188 0.17568 0.0
C502 C 0.42775 0.30798 0.24101 0.0
C503 C 0.4404 0.52348 0.20274 0.0
O504 O 0.53512 0.34057 0.2201 0.0
O505 O 0.53023 0.31788 0.20155 0.0
O506 O 0.31152 0.47679 0.229 0.0
O507 O 0.3315 0.40447 0.23634 0.0
O508 O 0.27494 0.47765 0.17352 0.0
O509 O 0.2544 0.39984 0.17456 0.0
O510 O 0.30421 0.29709 0.21799 0.0
O511 O 0.33369 0.29586 0.20005 0.0
H512 H 0.33825 0.35196 0.47276 0.0
H513 H 0.49162 0.28948 0.44299 0.0
H514 H 0.55972 0.37552 0.44285 0.0
H515 H 0.54398 0.46912 0.44848 0.0
H516 H 0.3758 0.53467 0.47686 0.0
H517 H 0.34486 0.44634 0.4804 0.0
C518 C 0.38956 0.35702 0.46653 0.0
C519 C 0.4097 0.31538 0.45781 0.0
C520 C 0.42262 0.40712 0.46606 0.0
C521 C 0.47537 0.32162 0.4497 0.0
C522 C 0.51324 0.37071 0.44957 0.0
C523 C 0.50086 0.46428 0.45549 0.0
C524 C 0.45821 0.50773 0.46212 0.0
C525 C 0.4819 0.41405 0.45723 0.0
C526 C 0.40653 0.50123 0.47147 0.0
C527 C 0.38927 0.45097 0.47349 0.0
H528 H 0.9415 0.99899 0.47527 0.0
H529 H 0.85262 0.03046 0.44346 0.0
H530 H 0.78266 0.9434 0.43894 0.0
H531 H 0.77153 0.8556 0.44277 0.0
H532 H 0.87536 0.8215 0.4738 0.0
H533 H 0.9201 0.91301 0.47969 0.0
C534 C 0.90458 0.98755 0.46746 0.0
C535 C 0.90368 0.0204 0.45958 0.0
C536 C 0.87163 0.93659 0.4646 0.0
C537 C 0.8547 1.00534 0.44958 0.0
C538 C 0.81624 0.95546 0.44694 0.0
C539 C 0.80439 0.86789 0.45081 0.0
C540 C 0.82181 0.83178 0.45777 0.0
C541 C 0.82925 0.92006 0.45413 0.0
C542 C 0.86282 0.84856 0.46823 0.0
C543 C 0.88721 0.90084 0.47165 0.0
H544 H 0.27027 0.93625 0.82048 0.0
H545 H 0.44701 0.99779 0.8484 0.0
H546 H 0.48873 0.90909 0.85047 0.0
H547 H 0.46719 0.8162 0.84504 0.0
H548 H 0.30329 0.75265 0.8161 0.0
H549 H 0.25543 0.84135 0.81431 0.0
C550 C 0.32079 0.92998 0.82671 0.0
C551 C 0.35681 0.97251 0.83423 0.0
C552 C 0.34059 0.87934 0.82814 0.0
C553 C 0.42032 0.96486 0.84247 0.0
C554 C 0.44193 0.91452 0.84382 0.0
C555 C 0.41827 0.82156 0.83856 0.0
C556 C 0.38677 0.77856 0.83083 0.0
C557 C 0.39964 0.87181 0.83696 0.0
C558 C 0.32592 0.78571 0.82227 0.0
C559 C 0.30112 0.83614 0.82108 0.0
H560 H 0.01272 0.33336 0.81941 0.0
H561 H 0.91565 0.31112 0.85163 0.0
H562 H 0.88514 0.40498 0.85679 0.0
H563 H 0.87819 0.49028 0.85163 0.0
H564 H 0.96346 0.51004 0.81886 0.0
H565 H 0.01811 0.41946 0.81486 0.0
C566 C 0.98468 0.34865 0.82759 0.0
C567 C 0.9656 0.31533 0.83512 0.0
C568 C 0.97033 0.40203 0.83056 0.0
C569 C 0.9294 0.33599 0.84564 0.0
C570 C 0.91378 0.38957 0.84866 0.0
C571 C 0.91148 0.47541 0.84372 0.0
C572 C 0.91512 0.5059 0.8354 0.0
C573 C 0.93407 0.42269 0.84116 0.0
C574 C 0.9594 0.48664 0.82529 0.0
C575 C 0.98846 0.43481 0.82294 0.0
H576 H 0.47352 0.56688 0.59149 0.0
H577 H 0.64981 0.50013 0.56393 0.0
H578 H 0.68413 0.58819 0.56047 0.0
H579 H 0.68983 0.68248 0.56796 0.0
H580 H 0.52868 0.74645 0.59705 0.0
H581 H 0.45909 0.66062 0.59704 0.0
C582 C 0.5194 0.5714 0.58469 0.0
C583 C 0.56314 0.52766 0.57828 0.0
C584 C 0.54048 0.62148 0.58302 0.0
C585 C 0.61818 0.53376 0.56917 0.0
C586 C 0.63738 0.58387 0.56719 0.0
C587 C 0.63686 0.67785 0.57404 0.0
C588 C 0.61491 0.71987 0.5826 0.0
C589 C 0.60271 0.62795 0.57444 0.0
C590 C 0.54673 0.71404 0.59047 0.0
C591 C 0.50787 0.66509 0.59052 0.0
H592 H 0.01142 0.06631 0.59438 0.0
H593 H 0.18743 1.00003 0.56681 0.0
H594 H 0.24039 0.08791 0.56509 0.0
H595 H 0.2313 0.18297 0.57119 0.0
H596 H 0.04929 0.24819 0.59827 0.0
H597 H 0.9975 0.16042 0.59993 0.0
C598 C 0.06395 0.07106 0.58825 0.0
C599 C 0.09821 0.02734 0.58095 0.0
C600 C 0.08809 0.12113 0.58683 0.0
C601 C 0.16294 0.03359 0.57272 0.0
C602 C 0.19113 0.0836 0.57157 0.0
C603 C 0.17768 0.17785 0.57716 0.0
C604 C 0.14277 0.22127 0.58451 0.0
C605 C 0.15212 0.12756 0.5784 0.0
C606 C 0.07537 0.21478 0.59244 0.0
C607 C 0.04761 0.16485 0.59355 0.0
H608 H 0.76519 0.11358 0.19436 0.0
H609 H 0.62376 0.07736 0.22316 0.0
H610 H 0.59289 0.17028 0.22972 0.0
H611 H 0.58937 0.25857 0.22596 0.0
H612 H 0.7114 0.29192 0.19588 0.0
H613 H 0.77505 0.20325 0.19158 0.0
C614 C 0.72694 0.12572 0.20204 0.0
C615 C 0.69437 0.08859 0.20811 0.0
C616 C 0.70973 0.17868 0.20572 0.0
C617 C 0.64739 0.10522 0.2182 0.0
C618 C 0.63102 0.15825 0.22203 0.0
C619 C 0.63296 0.24708 0.21868 0.0
C620 C 0.6446 0.28082 0.2111 0.0
C621 C 0.66036 0.19504 0.21573 0.0
C622 C 0.70163 0.26602 0.20176 0.0
C623 C 0.73591 0.21518 0.1992 0.0
H624 H 0.015 0.71658 0.19446 0.0
H625 H 0.1617 0.77513 0.22499 0.0
H626 H 0.21234 0.68611 0.22604 0.0
H627 H 0.20831 0.59206 0.2185 0.0
H628 H 0.05686 0.53446 0.18827 0.0
H629 H 0.00734 0.62345 0.18727 0.0
C630 C 0.0608 0.71 0.20113 0.0
C631 C 0.08709 0.75173 0.20949 0.0
C632 C 0.08331 0.65912 0.20207 0.0
C633 C 0.14328 0.74309 0.21834 0.0
C634 C 0.17003 0.6924 0.21907 0.0
C635 C 0.1615 0.59907 0.21196 0.0
C636 C 0.13408 0.55764 0.20359 0.0
C637 C 0.13802 0.65013 0.21114 0.0
C638 C 0.07629 0.56641 0.1949 0.0
C639 C 0.05016 0.61705 0.19419 0.0
H640 H 0.40795 1.0099 0.97706 0.0
H641 H 0.31355 0.03693 0.94515 0.0
H642 H 0.249 0.94852 0.94098 0.0
H643 H 0.25331 0.86043 0.94464 0.0
H644 H 0.36643 0.83011 0.97556 0.0
H645 H 0.39599 0.9236 0.98166 0.0
C646 C 0.37064 0.99724 0.96933 0.0
C647 C 0.36828 0.02888 0.96122 0.0
C648 C 0.34261 0.94525 0.96658 0.0
C649 C 0.31745 1.01257 0.9514 0.0
C650 C 0.28246 0.96184 0.94894 0.0
C651 C 0.28489 0.8739 0.95271 0.0
C652 C 0.3103 0.83827 0.95952 0.0
C653 C 0.30122 0.92705 0.95612 0.0
C654 C 0.34872 0.85674 0.97005 0.0
C655 C 0.3642 0.9101 0.9736 0.0
H656 H 0.79662 0.34618 0.97017 0.0
H657 H 0.97074 0.28389 0.94215 0.0
H658 H 0.01427 0.37253 0.94009 0.0
H659 H 0.99326 0.46618 0.94549 0.0
H660 H 0.8243 0.52958 0.9739 0.0
H661 H 0.77994 0.44086 0.97603 0.0
C662 C 0.84721 0.35226 0.96394 0.0
C663 C 0.88222 0.30953 0.95642 0.0
C664 C 0.86661 0.4028 0.9624 0.0
C665 C 0.94535 0.31694 0.94814 0.0
C666 C 0.9678 0.36728 0.94677 0.0
C667 C 0.94387 0.4605 0.95188 0.0
C668 C 0.90963 0.50354 0.95936 0.0
C669 C 0.92577 0.41021 0.95358 0.0
C670 C 0.84867 0.49637 0.96789 0.0
C671 C 0.82581 0.44598 0.96929 0.0
H672 H 0.56963 0.33646 0.32495 0.0
H673 H 0.357 0.29301 0.34653 0.0
H674 H 0.30696 0.3848 0.35132 0.0
H675 H 0.31591 0.47444 0.34786 0.0
H676 H 0.51872 0.5145 0.32485 0.0
H677 H 0.58523 0.42615 0.32246 0.0
C678 C 0.51159 0.34686 0.33062 0.0
C679 C 0.4646 0.30832 0.33515 0.0
C680 C 0.48424 0.39881 0.33329 0.0
C681 C 0.39242 0.32235 0.34283 0.0
C682 C 0.36464 0.37455 0.34561 0.0
C683 C 0.37685 0.46403 0.34264 0.0
C684 C 0.41438 0.50005 0.33664 0.0
C685 C 0.40943 0.41278 0.34075 0.0
C686 C 0.49089 0.48688 0.32962 0.0
C687 C 0.52744 0.43651 0.32815 0.0
H688 H 0.75297 0.92366 0.34627 0.0
H689 H 0.85656 0.95528 0.31504 0.0
H690 H 0.88875 0.86246 0.30881 0.0
H691 H 0.90735 0.77665 0.31331 0.0
H692 H 0.82477 0.74781 0.3455 0.0
H693 H 0.75597 0.83511 0.34993 0.0
C694 C 0.78312 0.91047 0.33811 0.0
C695 C 0.80515 0.94635 0.33125 0.0
C696 C 0.80184 0.85755 0.33464 0.0
C697 C 0.84141 0.92843 0.32059 0.0
C698 C 0.85854 0.87542 0.31696 0.0
C699 C 0.87185 0.78864 0.32117 0.0
C700 C 0.87395 0.75691 0.32925 0.0
C701 C 0.84124 0.84004 0.32405 0.0
C702 C 0.82541 0.77234 0.33926 0.0
C703 C 0.78781 0.82242 0.34187 0.0
H704 H 0.60324 0.02233 0.06247 0.0
H705 H 0.69842 0.99628 0.09441 0.0
H706 H 0.76598 0.08404 0.09828 0.0
H707 H 0.76329 0.17191 0.09443 0.0
H708 H 0.6484 0.20155 0.06355 0.0
H709 H 0.61763 0.10805 0.05761 0.0
C710 C 0.64141 0.035 0.07013 0.0
C711 C 0.64311 1.0039 0.07834 0.0
C712 C 0.67115 0.08678 0.07272 0.0
C713 C 0.69503 0.02023 0.08808 0.0
C714 C 0.73177 0.07062 0.09037 0.0
C715 C 0.73103 0.15829 0.0864 0.0
C716 C 0.70513 0.19377 0.07958 0.0
C717 C 0.71357 0.10514 0.08311 0.0
C718 C 0.66632 0.17506 0.06908 0.0
C719 C 0.65005 0.12169 0.06562 0.0
H720 H 0.96799 0.5879 0.07017 0.0
H721 H 0.06927 0.55904 0.10175 0.0
H722 H 0.10295 0.65222 0.10756 0.0
H723 H 0.11642 0.73825 0.1029 0.0
H724 H 0.03008 0.76427 0.07058 0.0
H725 H 0.96741 0.67542 0.06624 0.0
C726 C 0.99763 0.60163 0.07834 0.0
C727 C 0.01772 0.56653 0.08546 0.0
C728 C 0.01518 0.65465 0.08164 0.0
C729 C 0.05516 0.58524 0.09604 0.0
C730 C 0.07279 0.63845 0.09942 0.0
C731 C 0.08127 0.72522 0.09502 0.0
C732 C 0.08016 0.75682 0.0869 0.0
C733 C 0.05396 0.67319 0.09222 0.0
C734 C 0.03274 0.73997 0.07686 0.0
C735 C 0.99887 0.68905 0.0743 0.0
H736 H 0.52058 0.72669 0.7233 0.0
H737 H 0.56612 0.74165 0.68915 0.0
H738 H 0.60842 0.64949 0.68451 0.0
H739 H 0.62913 0.56601 0.69007 0.0
H740 H 0.59159 0.55181 0.72438 0.0
H741 H 0.53869 0.64244 0.7288 0.0
C742 C 0.54059 0.71006 0.71485 0.0
C743 C 0.53976 0.74071 0.70656 0.0
C744 C 0.56126 0.65712 0.71217 0.0
C745 C 0.56689 0.71883 0.69569 0.0
C746 C 0.58921 0.66605 0.69298 0.0
C747 C 0.60844 0.58238 0.69851 0.0
C748 C 0.61671 0.55294 0.70696 0.0
C749 C 0.58496 0.6349 0.70113 0.0
C750 C 0.5867 0.57405 0.71776 0.0
C751 C 0.55832 0.626 0.72033 0.0
H752 H 0.12549 0.27496 0.7283 0.0
H753 H 0.20716 0.29805 0.69572 0.0
H754 H 0.27101 0.20955 0.69167 0.0
H755 H 0.25995 0.12164 0.69539 0.0
H756 H 0.15263 0.09489 0.72684 0.0
H757 H 0.1356 0.18923 0.73314 0.0
C758 C 0.16016 0.26149 0.72046 0.0
C759 C 0.15733 0.29155 0.71208 0.0
C760 C 0.18566 0.20911 0.71775 0.0
C761 C 0.20636 0.27465 0.70217 0.0
C762 C 0.24063 0.22377 0.69977 0.0
C763 C 0.23256 0.13609 0.70364 0.0
C764 C 0.20408 0.10129 0.7105 0.0
C765 C 0.22248 0.18968 0.70712 0.0
C766 C 0.17185 0.12095 0.72127 0.0
C767 C 0.16365 0.17474 0.72493 0.0
H768 H 0.24937 0.94321 0.44534 0.0
H769 H 0.41658 0.03486 0.47117 0.0
H770 H 0.51658 0.95971 0.47175 0.0
H771 H 0.5579 0.86629 0.46526 0.0
H772 H 0.39608 0.77464 0.439 0.0
H773 H 0.29411 0.84971 0.43841 0.0
C774 C 0.30864 0.94708 0.45095 0.0
C775 C 0.32465 0.99565 0.45815 0.0
C776 C 0.36664 0.9027 0.45138 0.0
C777 C 0.40159 0.99866 0.46547 0.0
C778 C 0.45907 0.95528 0.46589 0.0
C779 C 0.49907 0.86239 0.45958 0.0
C780 C 0.48363 0.81387 0.45241 0.0
C781 C 0.44183 0.90671 0.45902 0.0
C782 C 0.40892 0.8108 0.4448 0.0
C783 C 0.35077 0.85412 0.44438 0.0
H784 H 1.00356 0.33599 0.43948 0.0
H785 H 0.01033 0.32677 0.47425 0.0
H786 H 0.90223 0.40046 0.47832 0.0
H787 H 0.80617 0.46878 0.47221 0.0
H788 H 0.7983 0.47869 0.4375 0.0
H789 H 0.90531 0.40416 0.43332 0.0
C790 C 0.98139 0.34983 0.44796 0.0
C791 C 0.01619 0.32497 0.45652 0.0
C792 C 0.91862 0.39291 0.45031 0.0
C793 C 0.98567 0.34433 0.46744 0.0
C794 C 0.92352 0.38683 0.4698 0.0
C795 C 0.82774 0.45497 0.4637 0.0
C796 C 0.79357 0.48039 0.45521 0.0
C797 C 0.88968 0.41167 0.46133 0.0
C798 C 0.82288 0.46079 0.44426 0.0
C799 C 0.88439 0.41784 0.44185 0.0
H800 H 0.31917 0.31552 0.81849 0.0
H801 H 0.30478 0.30934 0.85336 0.0
H802 H 0.40495 0.38729 0.85756 0.0
H803 H 0.4975 0.45806 0.85131 0.0
H804 H 0.50724 0.46332 0.81635 0.0
H805 H 0.40842 0.38565 0.81234 0.0
C806 C 0.33809 0.3307 0.82705 0.0
C807 C 0.30422 0.30541 0.83557 0.0
C808 C 0.39509 0.37606 0.82943 0.0
C809 C 0.32953 0.32706 0.84657 0.0
C810 C 0.38694 0.37197 0.84899 0.0
C811 C 0.478 0.44243 0.8428 0.0
C812 C 0.51095 0.46744 0.83416 0.0
C813 C 0.42024 0.397 0.84049 0.0
C814 C 0.48394 0.44577 0.82322 0.0
C815 C 0.42714 0.40096 0.82089 0.0
H816 H 0.72164 0.85573 0.84378 0.0
H817 H 0.89422 0.75426 0.82021 0.0
H818 H 1.00131 0.82614 0.81934 0.0
H819 H 0.04775 0.91927 0.82492 0.0
H820 H 0.8809 0.02087 0.849 0.0
H821 H 0.77147 0.94918 0.84985 0.0
C822 C 0.78361 0.84906 0.83863 0.0
C823 C 0.79915 0.79871 0.83214 0.0
C824 C 0.84587 0.89151 0.83802 0.0
C825 C 0.87963 0.79197 0.82536 0.0
C826 C 0.94118 0.83343 0.82477 0.0
C827 C 0.9863 0.92603 0.83016 0.0
C828 C 0.97162 0.97631 0.83663 0.0
C829 C 0.9247 0.88372 0.83091 0.0
C830 C 0.89324 0.98321 0.84372 0.0
C831 C 0.83081 0.94186 0.8443 0.0
H832 H 0.48025 0.17532 0.57289 0.0
H833 H 0.59041 0.24863 0.6047 0.0
H834 H 0.69177 0.17323 0.60499 0.0
H835 H 0.75049 0.08429 0.59627 0.0
H836 H 0.63408 1.01064 0.56473 0.0
H837 H 0.53593 0.08646 0.56443 0.0
C838 C 0.52742 0.17526 0.57981 0.0
C839 C 0.5277 0.21874 0.58868 0.0
C840 C 0.58471 0.13057 0.58009 0.0
C841 C 0.58834 0.21647 0.59768 0.0
C842 C 0.64648 0.1729 0.59789 0.0
C843 C 0.70285 0.08439 0.5894 0.0
C844 C 0.70101 0.04056 0.58056 0.0
C845 C 0.64509 0.12919 0.58919 0.0
C846 C 0.63857 0.04292 0.57171 0.0
C847 C 0.58187 0.08679 0.57147 0.0
H848 H 0.25175 0.5929 0.59746 0.0
H849 H 0.1536 0.51341 0.56546 0.0
H850 H 0.04582 0.58448 0.56446 0.0
H851 H 0.97719 0.67098 0.57237 0.0
H852 H 0.06961 0.75019 0.60459 0.0
H853 H 0.17951 0.67937 0.60565 0.0
C854 C 0.20582 0.59065 0.59036 0.0
C855 C 0.21205 0.54675 0.58158 0.0
C856 C 0.14255 0.63273 0.58973 0.0
C857 C 0.15188 0.54602 0.57239 0.0
C858 C 0.08966 0.5871 0.57175 0.0
C859 C 0.02208 0.67316 0.57957 0.0
C860 C 0.01467 0.7169 0.58832 0.0
C861 C 0.0846 0.63111 0.58029 0.0
C862 C 0.07302 0.71763 0.59766 0.0
C863 C 0.1362 0.67672 0.59831 0.0
H864 H 0.52446 0.57971 0.18836 0.0
H865 H 0.49606 0.57612 0.22326 0.0
H866 H 0.59125 0.65517 0.22784 0.0
H867 H 0.68239 0.72591 0.22211 0.0
H868 H 0.7133 0.73 0.18728 0.0
H869 H 0.61747 0.65077 0.1826 0.0
C870 C 0.53923 0.59594 0.19699 0.0
C871 C 0.50248 0.57114 0.20543 0.0
C872 C 0.59436 0.64202 0.19961 0.0
C873 C 0.52288 0.59358 0.21653 0.0
C874 C 0.57742 0.63913 0.21918 0.0
C875 C 0.668 0.70991 0.21346 0.0
C876 C 0.70524 0.73488 0.20508 0.0
C877 C 0.61332 0.66385 0.21081 0.0
C878 C 0.68578 0.71242 0.19395 0.0
C879 C 0.63092 0.66681 0.19126 0.0
H880 H 0.21381 0.22001 0.22216 0.0
H881 H 0.22892 0.22661 0.1873 0.0
H882 H 0.12812 0.14924 0.18302 0.0
H883 H 0.0342 0.07979 0.18914 0.0
H884 H 0.02028 0.07343 0.22402 0.0
H885 H 0.12207 0.15015 0.22823 0.0
C886 C 0.19514 0.20484 0.21359 0.0
C887 C 0.22941 0.22995 0.20507 0.0
C888 C 0.13734 0.15991 0.21117 0.0
C889 C 0.20418 0.20873 0.19406 0.0
C890 C 0.14633 0.16425 0.1916 0.0
C891 C 0.05375 0.09477 0.19768 0.0
C892 C 0.01915 0.06997 0.20624 0.0
C893 C 0.11243 0.13943 0.20008 0.0
C894 C 0.04554 0.09089 0.21723 0.0
C895 C 0.10378 0.13511 0.21966 0.0
H896 H 0.3154 0.47545 0.97277 0.0
H897 H 0.28807 0.47737 0.9378 0.0
H898 H 0.38804 0.39959 0.93354 0.0
H899 H 0.48448 0.33074 0.93973 0.0
H900 H 0.50905 0.32953 0.97478 0.0
H901 H 0.40908 0.4068 0.97891 0.0
C902 C 0.33125 0.45929 0.96417 0.0
C903 C 0.29383 0.48331 0.95563 0.0
C904 C 0.3885 0.41415 0.96177 0.0
C905 C 0.31549 0.46058 0.94459 0.0
C906 C 0.37283 0.4158 0.94214 0.0
C907 C 0.46795 0.34711 0.9483 0.0
C908 C 0.50519 0.32347 0.95692 0.0
C909 C 0.40988 0.39215 0.95066 0.0
C910 C 0.48212 0.34606 0.96793 0.0
C911 C 0.42478 0.3906 0.97031 0.0
H912 H 0.97611 0.82987 0.93947 0.0
H913 H 0.98401 0.82242 0.97434 0.0
H914 H 0.88253 0.89895 0.9784 0.0
H915 H 0.79332 0.96905 0.9723 0.0
H916 H 0.78203 0.97757 0.93752 0.0
H917 H 0.88257 0.89993 0.93325 0.0
C918 C 0.95526 0.84462 0.94797 0.0
C919 C 0.98836 0.81951 0.95657 0.0
C920 C 0.89633 0.88928 0.95029 0.0
C921 C 0.96013 0.84006 0.9675 0.0
C922 C 0.902 0.8842 0.96985 0.0
C923 C 0.8126 0.95428 0.96374 0.0
C924 C 0.77966 0.98006 0.95526 0.0
C925 C 0.87005 0.90933 0.96134 0.0
C926 C 0.80575 0.95922 0.94426 0.0
C927 C 0.86349 0.9146 0.94181 0.0
H928 H 0.2519 0.83837 0.34591 0.0
H929 H 0.36721 0.76298 0.31447 0.0
H930 H 0.46825 0.83756 0.31416 0.0
H931 H 0.5268 0.92587 0.32252 0.0
H932 H 0.41925 1.00102 0.35428 0.0
H933 H 0.31452 0.92683 0.35462 0.0
C934 C 0.29967 0.83789 0.33905 0.0
C935 C 0.3 0.79392 0.33022 0.0
C936 C 0.35946 0.88202 0.33883 0.0
C937 C 0.36327 0.79544 0.32141 0.0
C938 C 0.42182 0.8386 0.32117 0.0
C939 C 0.47936 0.92653 0.32944 0.0
C940 C 0.48053 0.97021 0.33826 0.0
C941 C 0.42028 0.88253 0.32975 0.0
C942 C 0.4199 0.96874 0.34727 0.0
C943 C 0.35987 0.92586 0.34751 0.0
H944 H 0.96002 0.45588 0.32248 0.0
H945 H 0.07626 0.44519 0.35445 0.0
H946 H 0.98081 0.36872 0.35523 0.0
H947 H 0.86323 0.30181 0.34685 0.0
H948 H 0.74839 0.31264 0.31483 0.0
H949 H 0.84098 0.3903 0.31428 0.0
C950 C 0.96467 0.43696 0.32962 0.0
C951 C 0.0263 0.45756 0.33838 0.0
C952 C 0.90847 0.39199 0.33011 0.0
C953 C 0.02982 0.43151 0.34754 0.0
C954 C 0.97482 0.38716 0.34803 0.0
C955 C 0.85817 0.32119 0.33978 0.0
C956 C 0.79881 0.29989 0.33084 0.0
C957 C 0.9135 0.36668 0.33938 0.0
C958 C 0.79414 0.3266 0.3218 0.0
C959 C 0.84734 0.37163 0.32144 0.0
H960 H 0.50033 0.70494 0.10133 0.0
H961 H 0.48251 0.70854 0.06633 0.0
H962 H 0.57785 0.62959 0.06217 0.0
H963 H 0.6665 0.55947 0.06826 0.0
H964 H 0.68866 0.55495 0.10317 0.0
H965 H 0.59115 0.63378 0.10749 0.0
C966 C 0.51727 0.68865 0.09278 0.0
C967 C 0.4834 0.71344 0.08416 0.0
C968 C 0.57264 0.64261 0.0904 0.0
C969 C 0.5068 0.69102 0.07316 0.0
C970 C 0.56149 0.64555 0.07076 0.0
C971 C 0.64974 0.57513 0.07686 0.0
C972 C 0.68493 0.55021 0.08536 0.0
C973 C 0.59457 0.62091 0.07929 0.0
C974 C 0.66251 0.57239 0.09641 0.0
C975 C 0.60683 0.6178 0.09889 0.0
H976 H 0.22073 0.06929 0.06707 0.0
H977 H 0.22804 0.06105 0.10188 0.0
H978 H 0.12894 0.13912 0.10601 0.0
H979 H 0.03728 0.2088 0.09971 0.0
H980 H 0.03135 0.21687 0.06487 0.0
H981 H 0.13323 0.14019 0.06086 0.0
C982 C 0.20085 0.08431 0.07559 0.0
C983 C 0.2321 0.05848 0.08414 0.0
C984 C 0.14413 0.12957 0.07792 0.0
C985 C 0.20555 0.07951 0.09511 0.0
C986 C 0.14866 0.12434 0.09747 0.0
C987 C 0.05865 0.19425 0.09122 0.0
C988 C 0.02607 0.21937 0.08261 0.0
C989 C 0.11723 0.14964 0.08894 0.0
C990 C 0.05506 0.19914 0.07169 0.0
C991 C 0.11323 0.15492 0.06938 0.0
H992 H 0.52702 0.08282 0.68991 0.0
H993 H 0.51922 0.073 0.72465 0.0
H994 H 0.62549 0.14756 0.72887 0.0
H995 H 0.71855 0.21718 0.72294 0.0
H996 H 0.72936 0.22743 0.68826 0.0
H997 H 0.6248 0.15157 0.68387 0.0
C998 C 0.54898 0.09655 0.69841 0.0
C999 C 0.51437 0.07139 0.70693 0.0
C1000 C 0.61073 0.14006 0.70084 0.0
C1001 C 0.54418 0.09068 0.71787 0.0
C1002 C 0.60507 0.13373 0.72032 0.0
C1003 C 0.69835 0.20308 0.71439 0.0
C1004 C 0.7324 0.2289 0.70596 0.0
C1005 C 0.63838 0.15901 0.7119 0.0
C1006 C 0.70502 0.20899 0.69495 0.0
C1007 C 0.64486 0.16539 0.69243 0.0
H1008 H 1.00465 0.58074 0.68981 0.0
H1009 H 0.98562 0.58114 0.72497 0.0
H1010 H 0.07819 0.66154 0.72878 0.0
H1011 H 0.16404 0.73176 0.72232 0.0
H1012 H 0.1867 0.73216 0.68724 0.0
H1013 H 0.09267 0.65171 0.68328 0.0
C1014 C 0.02076 0.59815 0.69833 0.0
C1015 C 0.98747 0.57409 0.70709 0.0
C1016 C 0.07432 0.64491 0.7005 0.0
C1017 C 0.0097 0.59801 0.71804 0.0
C1018 C 0.06271 0.6443 0.72023 0.0
C1019 C 0.1483 0.71482 0.71376 0.0
C1020 C 0.18259 0.73907 0.70509 0.0
C1021 C 0.0951 0.66819 0.71155 0.0
C1022 C 0.16135 0.71524 0.69411 0.0
C1023 C 0.10764 0.66894 0.69184 0.0
H1024 H 0.31676 0.25771 0.40535 0.0
H1025 H 0.44153 0.12464 0.41622 0.0
H1026 H 0.54362 0.11041 0.40012 0.0
H1027 H 0.59361 0.13229 0.3827 0.0
H1028 H 0.46914 0.26193 0.37064 0.0
H1029 H 0.37315 0.28202 0.38758 0.0
C1030 C 0.36656 0.22576 0.40418 0.0
C1031 C 0.37096 0.19211 0.41201 0.0
C1032 C 0.42583 0.2175 0.39476 0.0
C1033 C 0.43611 0.15101 0.41037 0.0
C1034 C 0.49492 0.14287 0.40116 0.0
C1035 C 0.54613 0.16539 0.38377 0.0
C1036 C 0.53859 0.19546 0.37536 0.0
C1037 C 0.48989 0.1755 0.39328 0.0
C1038 C 0.47727 0.23844 0.37701 0.0
C1039 C 0.42157 0.24947 0.38664 0.0
H1040 H 0.83138 0.03293 0.38477 0.0
H1041 H 0.89836 0.18456 0.37732 0.0
H1042 H 0.99473 0.20432 0.39395 0.0
H1043 H 0.05869 0.18031 0.41069 0.0
H1044 H 0.99516 0.02981 0.41888 0.0
H1045 H 0.90048 1.0077 0.40188 0.0
C1046 C 0.86732 0.07021 0.38678 0.0
C1047 C 0.85715 0.10722 0.3797 0.0
C1048 C 0.92379 0.08151 0.39649 0.0
C1049 C 0.90455 0.15526 0.38251 0.0
C1050 C 0.95992 0.16665 0.39206 0.0
C1051 C 0.02453 0.14242 0.40883 0.0
C1052 C 0.03451 0.1069 0.41621 0.0
C1053 C 0.96988 0.13027 0.39912 0.0
C1054 C 0.98967 0.05798 0.41343 0.0
C1055 C 0.93494 0.04546 0.4037 0.0
H1056 H 0.5355 0.1775 0.91087 0.0
H1057 H 0.45839 0.0291 0.9192 0.0
H1058 H 0.36391 1.00888 0.90215 0.0
H1059 H 0.29888 0.0357 0.88505 0.0
H1060 H 0.37882 0.18561 0.87762 0.0
H1061 H 0.47541 0.203 0.89422 0.0
C1062 C 0.49822 0.14053 0.90903 0.0
C1063 C 0.50389 0.10503 0.91642 0.0
C1064 C 0.44374 0.12964 0.89936 0.0
C1065 C 0.45576 0.05715 0.9137 0.0
C1066 C 0.40126 0.04576 0.90396 0.0
C1067 C 0.33756 0.0721 0.88709 0.0
C1068 C 0.3312 0.10939 0.88006 0.0
C1069 C 0.3939 0.08203 0.89677 0.0
C1070 C 0.38208 0.15625 0.88282 0.0
C1071 C 0.43758 0.16627 0.89233 0.0
H1072 H 0.80223 0.25636 0.90594 0.0
H1073 H 0.89471 0.10957 0.91388 0.0
H1074 H 0.9942 0.09452 0.89755 0.0
H1075 H 0.05142 0.12037 0.88081 0.0
H1076 H 0.96045 0.26488 0.87179 0.0
H1077 H 0.86583 0.28415 0.88885 0.0
C1078 C 0.84431 0.22117 0.90407 0.0
C1079 C 0.84038 0.18395 0.91114 0.0
C1080 C 0.90216 0.21253 0.89453 0.0
C1081 C 0.89575 0.13872 0.90862 0.0
C1082 C 0.95302 0.13009 0.89927 0.0
C1083 C 0.01129 0.15637 0.88254 0.0
C1084 C 0.01274 0.19097 0.87495 0.0
C1085 C 0.95626 0.16642 0.89215 0.0
C1086 C 0.96124 0.23769 0.87749 0.0
C1087 C 0.90646 0.2484 0.88721 0.0
H1088 H 0.44775 0.93065 0.6602 0.0
H1089 H 0.5045 0.77926 0.66833 0.0
H1090 H 0.59751 0.75593 0.65122 0.0
H1091 H 0.66794 0.78088 0.63412 0.0
H1092 H 0.60873 0.93422 0.62706 0.0
H1093 H 0.51294 0.95447 0.64366 0.0
C1094 C 0.48009 0.8923 0.65832 0.0
C1095 C 0.46896 0.85691 0.66568 0.0
C1096 C 0.53408 0.87967 0.64863 0.0
C1097 C 0.51108 0.80732 0.66286 0.0
C1098 C 0.56489 0.79414 0.65309 0.0
C1099 C 0.63383 0.81864 0.63623 0.0
C1100 C 0.64594 0.85602 0.62928 0.0
C1101 C 0.57782 0.8303 0.64594 0.0
C1102 C 0.601 0.90467 0.63217 0.0
C1103 C 0.54592 0.91634 0.64169 0.0
H1104 H 0.93907 0.86753 0.63097 0.0
H1105 H 0.03131 1.00826 0.62035 0.0
H1106 H 0.12574 0.03128 0.63737 0.0
H1107 H 0.18702 1.00892 0.65514 0.0
H1108 H 0.09145 0.86675 0.66496 0.0
H1109 H 0.99479 0.84677 0.64837 0.0
C1110 C 0.97942 0.90351 0.63232 0.0
C1111 C 0.97776 0.93597 0.62426 0.0
C1112 C 0.03395 0.91605 0.64202 0.0
C1113 C 0.03028 0.98258 0.62636 0.0
C1114 C 0.08492 0.99553 0.63609 0.0
C1115 C 0.1448 0.97367 0.65365 0.0
C1116 C 0.14704 0.93934 0.66138 0.0
C1117 C 0.08819 0.96223 0.64396 0.0
C1118 C 0.09157 0.89392 0.65925 0.0
C1119 C 0.03597 0.88241 0.64973 0.0
H1120 H 0.56931 0.97053 0.16382 0.0
H1121 H 0.83659 0.92303 0.14908 0.0
H1122 H 0.76901 0.91502 0.13056 0.0
H1123 H 0.63189 0.91712 0.11839 0.0
H1124 H 0.36494 0.96546 0.13287 0.0
H1125 H 0.43374 0.97817 0.15152 0.0
C1126 C 0.61269 0.95862 0.15655 0.0
C1127 C 0.70797 0.94714 0.15788 0.0
C1128 C 0.57343 0.95482 0.14582 0.0
C1129 C 0.76321 0.93208 0.14834 0.0
C1130 C 0.72458 0.92754 0.13771 0.0
C1131 C 0.58972 0.93205 0.12563 0.0
C1132 C 0.49419 0.94201 0.12426 0.0
C1133 C 0.62975 0.93856 0.13633 0.0
C1134 C 0.43932 0.95937 0.13372 0.0
C1135 C 0.47848 0.96591 0.14439 0.0
H1136 H 0.1261 0.8686 0.17174 0.0
H1137 H 0.86067 0.8173 0.1571 0.0
H1138 H 0.93089 0.80334 0.13853 0.0
H1139 H 0.06622 0.81253 0.12635 0.0
H1140 H 0.33214 0.86279 0.14124 0.0
H1141 H 0.26415 0.87012 0.15973 0.0
C1142 C 0.08463 0.8526 0.16449 0.0
C1143 C 0.98902 0.84244 0.16579 0.0
C1144 C 0.12549 0.84535 0.15385 0.0
C1145 C 0.93506 0.82358 0.15632 0.0
C1146 C 0.97503 0.81637 0.1457 0.0
C1147 C 0.10936 0.82465 0.13365 0.0
C1148 C 0.20419 0.83743 0.13239 0.0
C1149 C 0.06984 0.82817 0.14433 0.0
C1150 C 0.25916 0.85276 0.14194 0.0
C1151 C 0.22024 0.85698 0.15254 0.0
H1152 H 0.49478 0.60621 0.87635 0.0
H1153 H 0.49851 0.76954 0.87382 0.0
H1154 H 0.41195 0.79094 0.89142 0.0
H1155 H 0.33494 0.7623 0.90774 0.0
H1156 H 0.33637 0.59801 0.90951 0.0
H1157 H 0.42045 0.57823 0.892 0.0
C1158 C 0.47711 0.64676 0.87956 0.0
C1159 C 0.50391 0.68617 0.87363 0.0
C1160 C 0.42775 0.65861 0.88963 0.0
C1161 C 0.47932 0.73824 0.8781 0.0
C1162 C 0.42965 0.75046 0.8882 0.0
C1163 C 0.35382 0.72223 0.90428 0.0
C1164 C 0.32939 0.68169 0.91004 0.0
C1165 C 0.40343 0.7109 0.89407 0.0
C1166 C 0.35449 0.63004 0.90538 0.0
C1167 C 0.40263 0.61862 0.89532 0.0
H1168 H 0.08365 0.65426 0.90763 0.0
H1169 H 0.92921 0.53992 0.92161 0.0
H1170 H 0.82891 0.52279 0.90497 0.0
H1171 H 0.77858 0.54568 0.88679 0.0
H1172 H 0.93648 0.66226 0.87375 0.0
H1173 H 0.04085 0.67319 0.88963 0.0
C1174 C 0.02872 0.62504 0.90701 0.0
C1175 C 0.01408 0.5985 0.91589 0.0
C1176 C 0.9708 0.61631 0.89759 0.0
C1177 C 0.94292 0.56052 0.91487 0.0
C1178 C 0.88487 0.5512 0.90539 0.0
C1179 C 0.83597 0.57334 0.88744 0.0
C1180 C 0.84865 0.60353 0.87907 0.0
C1181 C 0.89688 0.5797 0.89676 0.0
C1182 C 0.92398 0.63888 0.88005 0.0
C1183 C 0.98423 0.64511 0.88914 0.0
H1184 H 0.4669 0.57233 0.37453 0.0
H1185 H 0.19198 0.57457 0.38901 0.0
H1186 H 0.2611 0.57706 0.40734 0.0
H1187 H 0.40028 0.58699 0.41954 0.0
H1188 H 0.67438 0.58712 0.40511 0.0
H1189 H 0.6058 0.57418 0.38649 0.0
C1190 C 0.42221 0.57277 0.38169 0.0
C1191 C 0.32448 0.57364 0.38043 0.0
C1192 C 0.46254 0.57413 0.39221 0.0
C1193 C 0.2674 0.57396 0.38976 0.0
C1194 C 0.30692 0.57539 0.40025 0.0
C1195 C 0.44472 0.58216 0.41226 0.0
C1196 C 0.54215 0.58644 0.41359 0.0
C1197 C 0.4044 0.57633 0.40162 0.0
C1198 C 0.59934 0.58234 0.40419 0.0
C1199 C 0.56003 0.57568 0.39358 0.0
H1200 H 0.81541 0.75361 0.4046 0.0
H1201 H 0.89712 0.60459 0.41232 0.0
H1202 H 0.99383 0.58713 0.39575 0.0
H1203 H 0.05267 0.61206 0.37905 0.0
H1204 H 0.97622 0.75999 0.37047 0.0
H1205 H 0.88056 0.78011 0.38742 0.0
C1206 C 0.85462 0.71742 0.40264 0.0
C1207 C 0.84869 0.68041 0.40976 0.0
C1208 C 0.91115 0.70745 0.39297 0.0
C1209 C 0.90013 0.63378 0.40708 0.0
C1210 C 0.95561 0.62371 0.39757 0.0
C1211 C 0.01605 0.64909 0.38081 0.0
C1212 C 0.02253 0.68445 0.37337 0.0
C1213 C 0.96139 0.66006 0.39046 0.0
C1214 C 0.97355 0.73206 0.376 0.0
C1215 C 0.91836 0.74341 0.38569 0.0
H1216 H 0.63761 0.36823 0.17035 0.0
H1217 H 0.37006 0.31536 0.15658 0.0
H1218 H 0.43601 0.30125 0.13778 0.0
H1219 H 0.56894 0.30973 0.12512 0.0
H1220 H 0.83725 0.36036 0.13927 0.0
H1221 H 0.77259 0.36967 0.15792 0.0
C1222 C 0.59471 0.35204 0.16324 0.0
C1223 C 0.49984 0.34139 0.16485 0.0
C1224 C 0.6331 0.34458 0.15247 0.0
C1225 C 0.44399 0.32218 0.15556 0.0
C1226 C 0.48149 0.31484 0.1448 0.0
C1227 C 0.61313 0.32259 0.1323 0.0
C1228 C 0.70781 0.33473 0.13076 0.0
C1229 C 0.57569 0.32687 0.14312 0.0
C1230 C 0.76429 0.35083 0.14017 0.0
C1231 C 0.72734 0.35613 0.15088 0.0
H1232 H 0.1783 0.50723 0.15646 0.0
H1233 H 0.16926 0.34301 0.15836 0.0
H1234 H 0.0757 0.32494 0.14157 0.0
H1235 H 0.99959 0.35369 0.1264 0.0
H1236 H 1.00093 0.51657 0.12346 0.0
H1237 H 0.09475 0.53721 0.14062 0.0
C1238 C 0.1558 0.46756 0.15316 0.0
C1239 C 0.18127 0.42642 0.1587 0.0
C1240 C 0.10077 0.45719 0.14335 0.0
C1241 C 0.1511 0.37536 0.15433 0.0
C1242 C 0.09742 0.36493 0.1447 0.0
C1243 C 0.01905 0.39412 0.12943 0.0
C1244 C 0.99205 0.43352 0.12354 0.0
C1245 C 0.07214 0.40537 0.13917 0.0
C1246 C 0.0197 0.48535 0.12778 0.0
C1247 C 0.07371 0.49705 0.13759 0.0
H1248 H 0.51848 0.35611 0.62647 0.0
H1249 H 0.49034 0.52122 0.62621 0.0
H1250 H 0.57836 0.54113 0.64381 0.0
H1251 H 0.66314 0.51001 0.65938 0.0
H1252 H 0.68564 0.34357 0.65851 0.0
H1253 H 0.59986 0.326 0.64113 0.0
C1254 C 0.5309 0.39682 0.63015 0.0
C1255 C 0.49709 0.43714 0.62493 0.0
C1256 C 0.5809 0.40763 0.64011 0.0
C1257 C 0.51506 0.48932 0.63 0.0
C1258 C 0.5655 0.50062 0.64006 0.0
C1259 C 0.6492 0.46999 0.65534 0.0
C1260 C 0.68075 0.42807 0.66028 0.0
C1261 C 0.5988 0.45993 0.64522 0.0
C1262 C 0.66209 0.37649 0.65496 0.0
C1263 C 0.61298 0.36637 0.645 0.0
H1264 H 0.269 0.37147 0.64181 0.0
H1265 H 0.05638 0.28699 0.62079 0.0
H1266 H 0.9578 0.28478 0.63698 0.0
H1267 H 0.92673 0.31264 0.65713 0.0
H1268 H 0.13705 0.40026 0.67788 0.0
H1269 H 0.24154 0.3952 0.66195 0.0
C1270 C 0.20138 0.35226 0.64079 0.0
C1271 C 0.16997 0.32974 0.63009 0.0
C1272 C 0.14454 0.35151 0.65016 0.0
C1273 C 0.082 0.30506 0.62892 0.0
C1274 C 0.02558 0.30364 0.63819 0.0
C1275 C 0.99659 0.32906 0.65817 0.0
C1276 C 0.02534 0.35555 0.6687 0.0
C1277 C 0.05548 0.32728 0.64886 0.0
C1278 C 0.11458 0.37852 0.6699 0.0
C1279 C 0.17394 0.3761 0.66076 0.0
H1280 H 0.3317 0.36348 0.5333 0.0
H1281 H 0.29631 0.22244 0.54674 0.0
H1282 H 0.25155 0.17464 0.52837 0.0
H1283 H 0.22182 0.17297 0.50857 0.0
H1284 H 0.25705 0.31439 0.49525 0.0
H1285 H 0.30212 0.36188 0.51358 0.0
C1286 C 0.31441 0.32223 0.53227 0.0
C1287 C 0.31766 0.29671 0.54147 0.0
C1288 C 0.28837 0.29503 0.5217 0.0
C1289 C 0.295 0.24317 0.53985 0.0
C1290 C 0.26909 0.21581 0.52934 0.0
C1291 C 0.23921 0.21422 0.50963 0.0
C1292 C 0.23579 0.23993 0.50046 0.0
C1293 C 0.26537 0.24137 0.52021 0.0
C1294 C 0.25861 0.29346 0.5021 0.0
C1295 C 0.28465 0.32069 0.5126 0.0
H1296 H 0.99357 0.91982 0.52689 0.0
H1297 H 0.92749 0.07019 0.54681 0.0
H1298 H 0.97391 0.11363 0.53163 0.0
H1299 H 0.03387 0.1094 0.51261 0.0
H1300 H 0.0994 0.95926 0.49258 0.0
H1301 H 0.05306 0.91559 0.50778 0.0
C1302 C 0.98924 0.96209 0.5279 0.0
C1303 C 0.95686 0.99161 0.53802 0.0
C1304 C 0.01624 0.98701 0.51908 0.0
C1305 C 0.95176 0.04639 0.53914 0.0
C1306 C 0.97851 0.07135 0.53045 0.0
C1307 C 0.03811 0.06712 0.51158 0.0
C1308 C 0.07047 0.03774 0.50145 0.0
C1309 C 0.01098 0.04215 0.52037 0.0
C1310 C 0.0753 0.98294 0.50028 0.0
C1311 C 0.04856 0.95787 0.50898 0.0
H1312 H 0.34442 0.04448 0.75271 0.0
H1313 H 0.14906 0.91661 0.75063 0.0
H1314 H 0.11224 0.94266 0.77023 0.0
H1315 H 0.13497 1.0018 0.78837 0.0
H1316 H 0.33045 0.12962 0.79045 0.0
H1317 H 0.36738 0.1035 0.77085 0.0
C1318 C 0.29273 0.0229 0.7565 0.0
C1319 C 0.24948 0.97878 0.75006 0.0
C1320 C 0.27239 0.03764 0.76799 0.0
C1321 C 0.18375 0.95084 0.75528 0.0
C1322 C 0.16269 0.96553 0.76658 0.0
C1323 C 0.18672 0.02336 0.78458 0.0
C1324 C 0.22995 0.0675 0.79102 0.0
C1325 C 0.20712 1.00858 0.7731 0.0
C1326 C 0.29576 0.09539 0.7858 0.0
C1327 C 0.31687 0.08066 0.77451 0.0
H1328 H 0.16374 0.23895 0.7815 0.0
H1329 H 0.88122 0.21757 0.79204 0.0
H1330 H 0.82062 0.24765 0.77564 0.0
H1331 H 0.84832 0.28159 0.75834 0.0
H1332 H 0.13175 0.30593 0.74843 0.0
H1333 H 0.19133 0.27275 0.76441 0.0
C1334 C 0.0889 0.24058 0.78017 0.0
C1335 C 0.02712 0.22576 0.78793 0.0
C1336 C 0.05463 0.25842 0.7708 0.0
C1337 C 0.93031 0.2284 0.78614 0.0
C1338 C 0.89559 0.24573 0.77677 0.0
C1339 C 0.92304 0.2794 0.75969 0.0
C1340 C 0.98547 0.29601 0.75219 0.0
C1341 C 0.95709 0.26102 0.76905 0.0
C1342 C 0.08214 0.29337 0.75407 0.0
C1343 C 0.11639 0.27442 0.76322 0.0
H1344 H 0.70037 0.66557 0.50675 0.0
H1345 H 0.73243 0.80784 0.49368 0.0
H1346 H 0.77991 0.85456 0.51202 0.0
H1347 H 0.81203 0.85539 0.5317 0.0
H1348 H 0.77983 0.71349 0.54489 0.0
H1349 H 0.73319 0.66639 0.52651 0.0
C1350 C 0.71762 0.70685 0.50786 0.0
C1351 C 0.71236 0.733 0.49873 0.0
C1352 C 0.74519 0.73358 0.51846 0.0
C1353 C 0.73506 0.78656 0.50047 0.0
C1354 C 0.76258 0.81334 0.51098 0.0
C1355 C 0.79518 0.81408 0.53062 0.0
C1356 C 0.79994 0.78818 0.53979 0.0
C1357 C 0.76792 0.78727 0.52003 0.0
C1358 C 0.77753 0.73458 0.53807 0.0
C1359 C 0.75048 0.70761 0.52754 0.0
H1360 H 0.78745 0.92039 0.25729 0.0
H1361 H 0.7534 0.06279 0.24434 0.0
H1362 H 0.70818 0.10927 0.26279 0.0
H1363 H 0.67962 0.10976 0.28252 0.0
H1364 H 0.71457 0.96763 0.29557 0.0
H1365 H 0.75782 0.92074 0.27705 0.0
C1366 C 0.77003 0.96158 0.25843 0.0
C1367 C 0.77399 0.98786 0.24931 0.0
C1368 C 0.74405 0.98811 0.26909 0.0
C1369 C 0.7515 0.04142 0.25112 0.0
C1370 C 0.72537 0.06803 0.26169 0.0
C1371 C 0.69609 0.06841 0.28138 0.0
C1372 C 0.69312 0.04238 0.29054 0.0
C1373 C 0.72148 0.04178 0.27072 0.0
C1374 C 0.71534 0.98878 0.28875 0.0
C1375 C 0.74048 0.96196 0.27814 0.0
H1376 H 0.92307 0.75176 0.28992 0.0
H1377 H 0.20516 0.7126 0.27909 0.0
H1378 H 0.17494 0.7435 0.26176 0.0
H1379 H 0.06802 0.78159 0.24959 0.0
H1380 H 0.78582 0.82056 0.2604 0.0
H1381 H 0.81636 0.79015 0.27778 0.0
C1382 C 0.97794 0.75005 0.28377 0.0
C1383 C 0.06638 0.72996 0.28582 0.0
C1384 C 0.96001 0.76797 0.2738 0.0
C1385 C 0.13668 0.72809 0.27776 0.0
C1386 C 0.11936 0.74569 0.26783 0.0
C1387 C 0.01324 0.78347 0.25575 0.0
C1388 C 0.92465 0.80334 0.25368 0.0
C1389 C 0.0313 0.76573 0.26574 0.0
C1390 C 0.85447 0.80536 0.26176 0.0
C1391 C 0.87194 0.78798 0.27171 0.0
H1392 H 0.33897 0.74685 0.03897 0.0
H1393 H 0.16888 0.8838 0.03925 0.0
H1394 H 0.13448 0.85577 1.01955 0.0
H1395 H 0.15427 0.79268 1.00184 0.0
H1396 H 0.32699 0.65656 1.0016 0.0
H1397 H 0.35911 0.68405 0.02129 0.0
C1398 C 0.29293 0.76996 0.03477 0.0
C1399 C 0.25573 0.81708 0.04071 0.0
C1400 C 0.27495 0.75421 0.02325 0.0
C1401 C 0.19808 0.84712 0.03497 0.0
C1402 C 0.17874 0.83131 0.02363 0.0
C1403 C 0.19993 0.76946 1.00606 0.0
C1404 C 0.2382 0.72262 1.0001 0.0
C1405 C 0.21762 0.7852 1.0176 0.0
C1406 C 0.29618 0.6928 1.00586 0.0
C1407 C 0.31448 0.70834 1.01722 0.0
H1408 H 0.11168 0.49021 1.00181 0.0
H1409 H 0.96126 0.63624 1.00927 0.0
H1410 H 0.9018 0.61288 0.02637 0.0
H1411 H 0.89142 0.55083 0.03924 0.0
H1412 H 0.0418 0.40483 0.03194 0.0
H1413 H 0.10196 0.42812 1.01482 0.0
C1414 C 0.06613 0.51696 1.00721 0.0
C1415 C 0.04112 0.56499 1.00425 0.0
C1416 C 0.03185 0.50317 1.01707 0.0
C1417 C 0.98175 0.59909 1.01133 0.0
C1418 C 0.94757 0.58572 0.02112 0.0
C1419 C 0.93726 0.52406 0.03389 0.0
C1420 C 0.96192 0.47608 0.03688 0.0
C1421 C 0.9719 0.53784 0.02407 0.0
C1422 C 0.02169 0.44198 0.02986 0.0
C1423 C 0.05616 0.45531 1.02006 0.0
H1424 H 0.18936 0.60424 0.28161 0.0
H1425 H 0.23708 0.46443 0.29511 0.0
H1426 H 0.27954 0.41699 0.27662 0.0
H1427 H 0.30402 0.41545 0.2567 0.0
H1428 H 0.25678 0.55579 0.24335 0.0
H1429 H 0.21335 0.60274 0.2618 0.0
C1430 C 0.20886 0.56333 0.28058 0.0
C1431 C 0.20981 0.53809 0.28985 0.0
C1432 C 0.23342 0.53637 0.26994 0.0
C1433 C 0.23523 0.48497 0.2882 0.0
C1434 C 0.25975 0.45783 0.27761 0.0
C1435 C 0.28424 0.45632 0.25777 0.0
C1436 C 0.28389 0.48188 0.24854 0.0
C1437 C 0.25925 0.48318 0.26843 0.0
C1438 C 0.25793 0.53493 0.25022 0.0
C1439 C 0.23297 0.56185 0.26079 0.0
H1440 H 0.67377 0.29176 1.00089 0.0
H1441 H 0.81972 0.14755 1.0018 0.0
H1442 H 0.85413 0.17667 0.02143 0.0
H1443 H 0.84201 0.24318 0.03871 0.0
H1444 H 0.69273 0.38648 0.03768 0.0
H1445 H 0.66061 0.35758 1.01808 0.0
C1446 C 0.71422 0.26707 1.00534 0.0
C1447 C 0.74443 0.21769 0.99976 0.0
C1448 C 0.73263 0.28364 1.01679 0.0
C1449 C 0.79546 0.18589 1.0058 0.0
C1450 C 0.81506 0.2024 1.0171 0.0
C1451 C 0.8017 0.2678 0.03423 0.0
C1452 C 0.77023 0.31703 0.03981 0.0
C1453 C 0.78336 0.25107 0.02275 0.0
C1454 C 0.71859 0.34843 0.03372 0.0
C1455 C 0.7001 0.33205 0.02242 0.0
H1456 H 0.67298 0.49063 0.78942 0.0
H1457 H 0.79563 0.63986 0.78706 0.0
H1458 H 0.82875 0.60928 0.76752 0.0
H1459 H 0.82248 0.54051 0.75073 0.0
H1460 H 0.70302 0.39049 0.75298 0.0
H1461 H 0.66914 0.42092 0.77257 0.0
C1462 C 0.70813 0.51611 0.78467 0.0
C1463 C 0.73137 0.56758 0.78982 0.0
C1464 C 0.72681 0.49837 0.77323 0.0
C1465 C 0.77612 0.60012 0.7834 0.0
C1466 C 0.79511 0.58275 0.77215 0.0
C1467 C 0.78799 0.51472 0.75547 0.0
C1468 C 0.76493 0.46338 0.75026 0.0
C1469 C 0.76996 0.53215 0.7669 0.0
C1470 C 0.7216 0.43033 0.75668 0.0
C1471 C 0.70238 0.4476 0.76796 0.0
H1472 H 0.42397 0.04271 1.00112 0.0
H1473 H 0.71929 0.05346 1.0083 0.0
H1474 H 0.69258 0.02321 0.02577 0.0
H1475 H 0.58514 0.99337 0.03902 0.0
H1476 H 0.28979 0.98281 0.03184 0.0
H1477 H 0.31653 1.01314 1.01438 0.0
C1478 C 0.48241 0.03845 1.00652 0.0
C1479 C 0.5735 0.05022 1.00342 0.0
C1480 C 0.4665 0.02098 1.01655 0.0
C1481 C 0.64859 0.04438 1.01048 0.0
C1482 C 0.63333 0.02717 0.02048 0.0
C1483 C 0.52671 0.9977 0.03362 0.0
C1484 C 0.43561 0.98588 0.03671 0.0
C1485 C 0.54262 1.01527 0.02359 0.0
C1486 C 0.36051 0.99188 0.02966 0.0
C1487 C 0.37578 1.00913 1.01967 0.0
H1488 H 0.51789 0.16866 0.27721 0.0
H1489 H 0.56622 0.3217 0.29706 0.0
H1490 H 0.52518 0.3626 0.28135 0.0
H1491 H 0.47649 0.35558 0.26191 0.0
H1492 H 0.42872 0.20332 0.24179 0.0
H1493 H 0.4683 0.16171 0.25756 0.0
C1494 C 0.51919 0.21094 0.27809 0.0
C1495 C 0.54507 0.242 0.28834 0.0
C1496 C 0.49558 0.23448 0.26894 0.0
C1497 C 0.54673 0.29676 0.2893 0.0
C1498 C 0.52317 0.32028 0.2803 0.0
C1499 C 0.47454 0.31327 0.26097 0.0
C1500 C 0.44947 0.28267 0.25067 0.0
C1501 C 0.49762 0.28962 0.27008 0.0
C1502 C 0.44739 0.22787 0.24963 0.0
C1503 C 0.47021 0.20403 0.25865 0.0
H1504 H 0.41213 0.76488 0.79079 0.0
H1505 H 0.69206 0.72234 0.77959 0.0
H1506 H 0.66114 0.75201 0.76216 0.0
H1507 H 0.55412 0.78982 0.74994 0.0
H1508 H 0.27408 0.83223 0.7611 0.0
H1509 H 0.30537 0.8032 0.77861 0.0
C1510 C 0.46633 0.76219 0.78453 0.0
C1511 C 0.55439 0.74149 0.78652 0.0
C1512 C 0.44805 0.77945 0.77449 0.0
C1513 C 0.62383 0.7383 0.77832 0.0
C1514 C 0.60615 0.75523 0.76832 0.0
C1515 C 0.50011 0.79289 0.75623 0.0
C1516 C 0.41186 0.81326 0.7542 0.0
C1517 C 0.51855 0.77591 0.7663 0.0
C1518 C 0.34253 0.81666 0.76242 0.0
C1519 C 0.3604 0.80005 0.77245 0.0
H1520 H 0.5469 0.43102 0.53038 0.0
H1521 H 0.37968 0.56508 0.54432 0.0
H1522 H 0.40848 0.60374 0.52791 0.0
H1523 H 0.48149 0.59977 0.50954 0.0
H1524 H 0.64866 0.46578 0.49556 0.0
H1525 H 0.61986 0.42701 0.51197 0.0
C1526 C 0.51684 0.46873 0.52983 0.0
C1527 C 0.4612 0.49511 0.53861 0.0
C1528 C 0.53379 0.49082 0.52033 0.0
C1529 C 0.42273 0.5439 0.53772 0.0
C1530 C 0.43922 0.56607 0.52832 0.0
C1531 C 0.51163 0.56206 0.51008 0.0
C1532 C 0.56731 0.53577 0.5013 0.0
C1533 C 0.49466 0.53994 0.51957 0.0
C1534 C 0.6057 0.48693 0.50217 0.0
C1535 C 0.58918 0.46471 0.51157 0.0
loop_
_geom_bond_atom_site_label_1
_geom_bond_atom_site_label_2
_geom_bond_distance
_geom_bond_site_symmetry_2
_ccdc_geom_bond_type
Co0 H3 2.400 . S
Co0 O4 2.009 . S
Co0 O12 2.115 . S
Co0 O13 2.315 . S
Co0 O24 2.053 . S
Co0 O27 2.094 . S
Co0 O30 2.122 . S
Co1 O4 2.126 . S
Co1 H5 2.388 . S
Co1 O6 2.053 . S
Co1 O9 2.047 . S
Co1 O15 2.113 . S
Co1 O26 2.063 . S
Co2 H3 2.388 . S
Co2 O4 2.053 . S
Co2 O6 2.126 . S
Co2 O11 2.063 . S
Co2 O25 2.047 . S
Co2 O31 2.113 . S
H3 Co0 2.400 . S
H3 Co2 2.388 . S
H3 O4 0.760 . S
O4 Co0 2.009 . S
O4 Co1 2.126 . S
O4 Co2 2.053 . S
O4 H3 0.760 . S
H5 Co1 2.388 . S
H5 O6 0.760 . S
H5 Co7 2.400 . S
O6 Co1 2.053 . S
O6 Co2 2.126 . S
O6 H5 0.760 . S
O6 Co7 2.009 . S
Co7 H5 2.400 . S
Co7 O6 2.009 . S
Co7 O8 2.053 . S
Co7 O10 2.094 . S
Co7 O14 2.122 . S
Co7 O28 2.115 . S
Co7 O29 2.315 . S
O8 Co7 2.053 . S
O8 C20 1.259 1_545 S
O9 Co1 2.047 . S
O9 C20 1.251 1_545 S
O10 Co7 2.094 . S
O10 C21 1.253 . S
O11 Co2 2.063 . S
O11 C21 1.268 . S
O12 Co0 2.115 . S
O12 C22 1.281 . S
O13 Co0 2.315 . S
O13 C22 1.252 . S
O14 Co7 2.122 . S
O14 C23 1.272 . S
O15 Co1 2.113 . S
O15 C23 1.245 . S
C16 O24 1.259 . S
C16 O25 1.257 . S
C17 O26 1.268 . S
C17 O27 1.253 . S
C18 O28 1.281 . S
C18 O29 1.252 . S
C19 O30 1.272 . S
C19 O31 1.245 . S
C20 O8 1.259 1_565 S
C20 O9 1.251 1_565 S
C21 O10 1.253 . S
C21 O11 1.268 . S
C22 O12 1.281 . S
C22 O13 1.252 . S
C23 O14 1.272 . S
C23 O15 1.245 . S
O24 Co0 2.053 . S
O24 C16 1.259 . S
O25 Co2 2.047 . S
O25 C16 1.257 . S
O26 Co1 2.063 . S
O26 C17 1.268 . S
O27 Co0 2.094 . S
O27 C17 1.253 . S
O28 Co7 2.115 . S
O28 C18 1.281 . S
O29 Co7 2.315 . S
O29 C18 1.252 . S
O30 Co0 2.122 . S
O30 C19 1.272 . S
O31 Co2 2.113 . S
O31 C19 1.245 . S
Co32 H35 2.400 . S
Co32 O36 2.009 . S
Co32 O44 2.115 . S
Co32 O45 2.315 . S
Co32 O56 2.053 . S
Co32 O59 2.094 . S
Co32 O62 2.122 . S
Co33 O36 2.126 . S
Co33 H37 2.388 . S
Co33 O38 2.053 . S
Co33 O41 2.047 . S
Co33 O47 2.113 . S
Co33 O58 2.063 . S
Co34 H35 2.388 . S
Co34 O36 2.053 . S
Co34 O38 2.126 . S
Co34 O43 2.063 . S
Co34 O57 2.047 . S
Co34 O63 2.113 . S
H35 Co32 2.400 . S
H35 Co34 2.388 . S
H35 O36 0.760 . S
O36 Co32 2.009 . S
O36 Co33 2.126 . S
O36 Co34 2.053 . S
O36 H35 0.760 . S
H37 Co33 2.388 . S
H37 O38 0.760 . S
H37 Co39 2.400 . S
O38 Co33 2.053 . S
O38 Co34 2.126 . S
O38 H37 0.760 . S
O38 Co39 2.009 . S
Co39 H37 2.400 . S
Co39 O38 2.009 . S
Co39 O40 2.053 . S
Co39 O42 2.094 . S
Co39 O46 2.122 . S
Co39 O60 2.115 . S
Co39 O61 2.315 . S
O40 Co39 2.053 . S
O40 C52 1.259 . S
O41 Co33 2.047 . S
O41 C52 1.257 . S
O42 Co39 2.094 . S
O42 C53 1.253 . S
O43 Co34 2.063 . S
O43 C53 1.268 . S
O44 Co32 2.115 . S
O44 C54 1.281 . S
O45 Co32 2.315 . S
O45 C54 1.252 . S
O46 Co39 2.122 . S
O46 C55 1.272 . S
O47 Co33 2.113 . S
O47 C55 1.245 . S
C48 O56 1.259 1_565 S
C48 O57 1.257 1_565 S
C49 O58 1.268 . S
C49 O59 1.253 . S
C50 O60 1.281 . S
C50 O61 1.252 . S
C51 O62 1.272 . S
C51 O63 1.245 . S
C52 O40 1.259 . S
C52 O41 1.257 . S
C53 O42 1.253 . S
C53 O43 1.268 . S
C54 O44 1.281 . S
C54 O45 1.252 . S
C55 O46 1.272 . S
C55 O47 1.245 . S
O56 Co32 2.053 . S
O56 C48 1.259 1_545 S
O57 Co34 2.047 . S
O57 C48 1.257 1_545 S
O58 Co33 2.063 . S
O58 C49 1.268 . S
O59 Co32 2.094 . S
O59 C49 1.253 . S
O60 Co39 2.115 . S
O60 C50 1.281 . S
O61 Co39 2.315 . S
O61 C50 1.252 . S
O62 Co32 2.122 . S
O62 C51 1.272 . S
O63 Co34 2.113 . S
O63 C51 1.245 . S
Co64 H67 2.400 . S
Co64 O68 2.009 . S
Co64 O76 2.115 . S
Co64 O77 2.315 . S
Co64 O88 2.053 . S
Co64 O91 2.094 . S
Co64 O94 2.122 . S
Co65 O68 2.126 . S
Co65 H69 2.388 . S
Co65 O70 2.053 . S
Co65 O73 2.047 . S
Co65 O79 2.113 . S
Co65 O90 2.063 . S
Co66 H67 2.388 . S
Co66 O68 2.053 . S
Co66 O70 2.126 . S
Co66 O75 2.063 . S
Co66 O89 2.047 . S
Co66 O95 2.113 . S
H67 Co64 2.400 . S
H67 Co66 2.388 . S
H67 O68 0.760 . S
O68 Co64 2.009 . S
O68 Co65 2.126 . S
O68 Co66 2.053 . S
O68 H67 0.760 . S
H69 Co65 2.388 . S
H69 O70 0.760 . S
H69 Co71 2.400 . S
O70 Co65 2.053 . S
O70 Co66 2.126 . S
O70 H69 0.760 . S
O70 Co71 2.009 . S
Co71 H69 2.400 . S
Co71 O70 2.009 . S
Co71 O72 2.053 . S
Co71 O74 2.094 . S
Co71 O78 2.122 . S
Co71 O92 2.115 . S
Co71 O93 2.315 . S
O72 Co71 2.053 . S
O72 C84 1.259 . S
O73 Co65 2.047 . S
O73 C84 1.257 . S
O74 Co71 2.094 . S
O74 C85 1.253 . S
O75 Co66 2.063 . S
O75 C85 1.268 . S
O76 Co64 2.115 . S
O76 C86 1.281 . S
O77 Co64 2.315 . S
O77 C86 1.252 . S
O78 Co71 2.122 . S
O78 C87 1.272 . S
O79 Co65 2.113 . S
O79 C87 1.245 . S
C80 O88 1.259 1_545 S
C80 O89 1.251 1_545 S
C81 O90 1.268 . S
C81 O91 1.253 . S
C82 O92 1.281 . S
C82 O93 1.252 . S
C83 O94 1.272 . S
C83 O95 1.245 . S
C84 O72 1.259 . S
C84 O73 1.257 . S
C85 O74 1.253 . S
C85 O75 1.268 . S
C86 O76 1.281 . S
C86 O77 1.252 . S
C87 O78 1.272 . S
C87 O79 1.245 . S
O88 Co64 2.053 . S
O88 C80 1.259 1_565 S
O89 Co66 2.047 . S
O89 C80 1.251 1_565 S
O90 Co65 2.063 . S
O90 C81 1.268 . S
O91 Co64 2.094 . S
O91 C81 1.253 . S
O92 Co71 2.115 . S
O92 C82 1.281 . S
O93 Co71 2.315 . S
O93 C82 1.252 . S
O94 Co64 2.122 . S
O94 C83 1.272 . S
O95 Co66 2.113 . S
O95 C83 1.245 . S
Co96 H99 2.400 . S
Co96 O100 2.009 . S
Co96 O108 2.115 . S
Co96 O109 2.315 . S
Co96 O120 2.053 . S
Co96 O123 2.094 . S
Co96 O126 2.122 . S
Co97 O100 2.126 . S
Co97 H101 2.388 . S
Co97 O102 2.053 . S
Co97 O105 2.047 . S
Co97 O111 2.113 . S
Co97 O122 2.063 . S
Co98 H99 2.388 . S
Co98 O100 2.053 . S
Co98 O102 2.126 . S
Co98 O107 2.063 . S
Co98 O121 2.047 . S
Co98 O127 2.113 . S
H99 Co96 2.400 . S
H99 Co98 2.388 . S
H99 O100 0.760 . S
O100 Co96 2.009 . S
O100 Co97 2.126 . S
O100 Co98 2.053 . S
O100 H99 0.760 . S
H101 Co97 2.388 . S
H101 O102 0.760 . S
H101 Co103 2.400 . S
O102 Co97 2.053 . S
O102 Co98 2.126 . S
O102 H101 0.760 . S
O102 Co103 2.009 . S
Co103 H101 2.400 . S
Co103 O102 2.009 . S
Co103 O104 2.053 . S
Co103 O106 2.094 . S
Co103 O110 2.122 . S
Co103 O124 2.115 . S
Co103 O125 2.315 . S
O104 Co103 2.053 . S
O104 C116 1.259 1_565 S
O105 Co97 2.047 . S
O105 C116 1.257 1_565 S
O106 Co103 2.094 . S
O106 C117 1.253 . S
O107 Co98 2.063 . S
O107 C117 1.268 . S
O108 Co96 2.115 . S
O108 C118 1.281 . S
O109 Co96 2.315 . S
O109 C118 1.252 . S
O110 Co103 2.122 . S
O110 C119 1.272 . S
O111 Co97 2.113 . S
O111 C119 1.245 . S
C112 O120 1.259 . S
C112 O121 1.257 . S
C113 O122 1.268 . S
C113 O123 1.253 . S
C114 O124 1.281 . S
C114 O125 1.252 . S
C115 O126 1.272 . S
C115 O127 1.245 . S
C116 O104 1.259 1_545 S
C116 O105 1.257 1_545 S
C117 O106 1.253 . S
C117 O107 1.268 . S
C118 O108 1.281 . S
C118 O109 1.252 . S
C119 O110 1.272 . S
C119 O111 1.245 . S
O120 Co96 2.053 . S
O120 C112 1.259 . S
O121 Co98 2.047 . S
O121 C112 1.257 . S
O122 Co97 2.063 . S
O122 C113 1.268 . S
O123 Co96 2.094 . S
O123 C113 1.253 . S
O124 Co103 2.115 . S
O124 C114 1.281 . S
O125 Co103 2.315 . S
O125 C114 1.252 . S
O126 Co96 2.122 . S
O126 C115 1.272 . S
O127 Co98 2.113 . S
O127 C115 1.245 . S
Co128 H131 2.400 . S
Co128 O132 2.009 . S
Co128 O140 2.115 . S
Co128 O141 2.315 . S
Co128 O152 2.053 . S
Co128 O155 2.094 . S
Co128 O158 2.122 . S
Co129 O132 2.126 . S
Co129 H133 2.388 . S
Co129 O134 2.053 . S
Co129 O137 2.047 . S
Co129 O143 2.113 . S
Co129 O154 2.063 . S
Co130 H131 2.388 . S
Co130 O132 2.053 . S
Co130 O134 2.126 . S
Co130 O139 2.063 . S
Co130 O153 2.047 . S
Co130 O159 2.113 . S
H131 Co128 2.400 . S
H131 Co130 2.388 . S
H131 O132 0.760 . S
O132 Co128 2.009 . S
O132 Co129 2.126 . S
O132 Co130 2.053 . S
O132 H131 0.760 . S
H133 Co129 2.388 . S
H133 O134 0.760 . S
H133 Co135 2.400 . S
O134 Co129 2.053 . S
O134 Co130 2.126 . S
O134 H133 0.760 . S
O134 Co135 2.009 . S
Co135 H133 2.400 . S
Co135 O134 2.009 . S
Co135 O136 2.053 . S
Co135 O138 2.094 . S
Co135 O142 2.122 . S
Co135 O156 2.115 . S
Co135 O157 2.315 . S
O136 Co135 2.053 . S
O136 C148 1.259 . S
O137 Co129 2.047 . S
O137 C148 1.257 . S
O138 Co135 2.094 . S
O138 C149 1.253 . S
O139 Co130 2.063 . S
O139 C149 1.268 . S
O140 Co128 2.115 . S
O140 C150 1.281 . S
O141 Co128 2.315 . S
O141 C150 1.252 . S
O142 Co135 2.122 . S
O142 C151 1.272 . S
O143 Co129 2.113 . S
O143 C151 1.245 . S
C144 O152 1.259 . S
C144 O153 1.257 . S
C145 O154 1.268 . S
C145 O155 1.253 . S
C146 O156 1.281 . S
C146 O157 1.252 . S
C147 O158 1.272 . S
C147 O159 1.245 . S
C148 O136 1.259 . S
C148 O137 1.257 . S
C149 O138 1.253 . S
C149 O139 1.268 . S
C150 O140 1.281 . S
C150 O141 1.252 . S
C151 O142 1.272 . S
C151 O143 1.245 . S
O152 Co128 2.053 . S
O152 C144 1.259 . S
O153 Co130 2.047 . S
O153 C144 1.257 . S
O154 Co129 2.063 . S
O154 C145 1.268 . S
O155 Co128 2.094 . S
O155 C145 1.253 . S
O156 Co135 2.115 . S
O156 C146 1.281 . S
O157 Co135 2.315 . S
O157 C146 1.252 . S
O158 Co128 2.122 . S
O158 C147 1.272 . S
O159 Co130 2.113 . S
O159 C147 1.245 . S
Co160 H163 2.400 . S
Co160 O164 2.009 . S
Co160 O172 2.115 . S
Co160 O173 2.315 . S
Co160 O184 2.053 . S
Co160 O187 2.094 . S
Co160 O190 2.122 . S
Co161 O164 2.126 . S
Co161 H165 2.388 . S
Co161 O166 2.053 . S
Co161 O169 2.047 . S
Co161 O175 2.113 . S
Co161 O186 2.063 . S
Co162 H163 2.388 . S
Co162 O164 2.053 . S
Co162 O166 2.126 . S
Co162 O171 2.063 . S
Co162 O185 2.047 . S
Co162 O191 2.113 . S
H163 Co160 2.400 . S
H163 Co162 2.388 . S
H163 O164 0.760 . S
O164 Co160 2.009 . S
O164 Co161 2.126 . S
O164 Co162 2.053 . S
O164 H163 0.760 . S
H165 Co161 2.388 . S
H165 O166 0.760 . S
H165 Co167 2.400 . S
O166 Co161 2.053 . S
O166 Co162 2.126 . S
O166 H165 0.760 . S
O166 Co167 2.009 . S
Co167 H165 2.400 . S
Co167 O166 2.009 . S
Co167 O168 2.053 . S
Co167 O170 2.094 . S
Co167 O174 2.122 . S
Co167 O188 2.115 . S
Co167 O189 2.315 . S
O168 Co167 2.053 . S
O168 C180 1.259 . S
O169 Co161 2.047 . S
O169 C180 1.257 . S
O170 Co167 2.094 . S
O170 C181 1.253 . S
O171 Co162 2.063 . S
O171 C181 1.268 . S
O172 Co160 2.115 . S
O172 C182 1.281 . S
O173 Co160 2.315 . S
O173 C182 1.252 . S
O174 Co167 2.122 . S
O174 C183 1.272 . S
O175 Co161 2.113 . S
O175 C183 1.245 . S
C176 O184 1.259 . S
C176 O185 1.257 . S
C177 O186 1.268 . S
C177 O187 1.253 . S
C178 O188 1.281 . S
C178 O189 1.252 . S
C179 O190 1.272 . S
C179 O191 1.245 . S
C180 O168 1.259 . S
C180 O169 1.257 . S
C181 O170 1.253 . S
C181 O171 1.268 . S
C182 O172 1.281 . S
C182 O173 1.252 . S
C183 O174 1.272 . S
C183 O175 1.245 . S
O184 Co160 2.053 . S
O184 C176 1.259 . S
O185 Co162 2.047 . S
O185 C176 1.257 . S
O186 Co161 2.063 . S
O186 C177 1.268 . S
O187 Co160 2.094 . S
O187 C177 1.253 . S
O188 Co167 2.115 . S
O188 C178 1.281 . S
O189 Co167 2.315 . S
O189 C178 1.252 . S
O190 Co160 2.122 . S
O190 C179 1.272 . S
O191 Co162 2.113 . S
O191 C179 1.245 . S
Co192 H195 2.400 . S
Co192 O196 2.009 . S
Co192 O204 2.115 . S
Co192 O205 2.315 . S
Co192 O216 2.053 . S
Co192 O219 2.094 . S
Co192 O222 2.122 . S
Co193 O196 2.126 . S
Co193 H197 2.388 . S
Co193 O198 2.053 . S
Co193 O201 2.047 . S
Co193 O207 2.113 . S
Co193 O218 2.063 . S
Co194 H195 2.388 . S
Co194 O196 2.053 . S
Co194 O198 2.126 . S
Co194 O203 2.063 . S
Co194 O217 2.047 . S
Co194 O223 2.113 . S
H195 Co192 2.400 . S
H195 Co194 2.388 . S
H195 O196 0.760 . S
O196 Co192 2.009 . S
O196 Co193 2.126 . S
O196 Co194 2.053 . S
O196 H195 0.760 . S
H197 Co193 2.388 . S
H197 O198 0.760 . S
H197 Co199 2.400 . S
O198 Co193 2.053 . S
O198 Co194 2.126 . S
O198 H197 0.760 . S
O198 Co199 2.009 . S
Co199 H197 2.400 . S
Co199 O198 2.009 . S
Co199 O200 2.053 . S
Co199 O202 2.094 . S
Co199 O206 2.122 . S
Co199 O220 2.115 . S
Co199 O221 2.315 . S
O200 Co199 2.053 . S
O200 C212 1.259 . S
O201 Co193 2.047 . S
O201 C212 1.257 . S
O202 Co199 2.094 . S
O202 C213 1.253 . S
O203 Co194 2.063 . S
O203 C213 1.268 . S
O204 Co192 2.115 . S
O204 C214 1.281 . S
O205 Co192 2.315 . S
O205 C214 1.252 . S
O206 Co199 2.122 . S
O206 C215 1.272 . S
O207 Co193 2.113 . S
O207 C215 1.245 . S
C208 O216 1.259 . S
C208 O217 1.257 . S
C209 O218 1.268 . S
C209 O219 1.253 . S
C210 O220 1.281 . S
C210 O221 1.252 . S
C211 O222 1.272 . S
C211 O223 1.245 . S
C212 O200 1.259 . S
C212 O201 1.257 . S
C213 O202 1.253 . S
C213 O203 1.268 . S
C214 O204 1.281 . S
C214 O205 1.252 . S
C215 O206 1.272 . S
C215 O207 1.245 . S
O216 Co192 2.053 . S
O216 C208 1.259 . S
O217 Co194 2.047 . S
O217 C208 1.257 . S
O218 Co193 2.063 . S
O218 C209 1.268 . S
O219 Co192 2.094 . S
O219 C209 1.253 . S
O220 Co199 2.115 . S
O220 C210 1.281 . S
O221 Co199 2.315 . S
O221 C210 1.252 . S
O222 Co192 2.122 . S
O222 C211 1.272 . S
O223 Co194 2.113 . S
O223 C211 1.245 . S
Co224 H227 2.400 . S
Co224 O228 2.009 . S
Co224 O236 2.115 . S
Co224 O237 2.315 . S
Co224 O248 2.053 . S
Co224 O251 2.094 . S
Co224 O254 2.122 . S
Co225 O228 2.126 . S
Co225 H229 2.388 . S
Co225 O230 2.053 . S
Co225 O233 2.047 . S
Co225 O239 2.113 . S
Co225 O250 2.063 . S
Co226 H227 2.388 . S
Co226 O228 2.053 . S
Co226 O230 2.126 . S
Co226 O235 2.063 . S
Co226 O249 2.047 . S
Co226 O255 2.113 . S
H227 Co224 2.400 . S
H227 Co226 2.388 . S
H227 O228 0.760 . S
O228 Co224 2.009 . S
O228 Co225 2.126 . S
O228 Co226 2.053 . S
O228 H227 0.760 . S
H229 Co225 2.388 . S
H229 O230 0.760 . S
H229 Co231 2.400 . S
O230 Co225 2.053 . S
O230 Co226 2.126 . S
O230 H229 0.760 . S
O230 Co231 2.009 . S
Co231 H229 2.400 . S
Co231 O230 2.009 . S
Co231 O232 2.053 . S
Co231 O234 2.094 . S
Co231 O238 2.122 . S
Co231 O252 2.115 . S
Co231 O253 2.315 . S
O232 Co231 2.053 . S
O232 C244 1.259 . S
O233 Co225 2.047 . S
O233 C244 1.257 . S
O234 Co231 2.094 . S
O234 C245 1.253 . S
O235 Co226 2.063 . S
O235 C245 1.268 . S
O236 Co224 2.115 . S
O236 C246 1.281 . S
O237 Co224 2.315 . S
O237 C246 1.252 . S
O238 Co231 2.122 . S
O238 C247 1.272 . S
O239 Co225 2.113 . S
O239 C247 1.245 . S
C240 O248 1.259 . S
C240 O249 1.257 . S
C241 O250 1.268 . S
C241 O251 1.253 . S
C242 O252 1.281 . S
C242 O253 1.252 . S
C243 O254 1.272 . S
C243 O255 1.245 . S
C244 O232 1.259 . S
C244 O233 1.257 . S
C245 O234 1.253 . S
C245 O235 1.268 . S
C246 O236 1.281 . S
C246 O237 1.252 . S
C247 O238 1.272 . S
C247 O239 1.245 . S
O248 Co224 2.053 . S
O248 C240 1.259 . S
O249 Co226 2.047 . S
O249 C240 1.257 . S
O250 Co225 2.063 . S
O250 C241 1.268 . S
O251 Co224 2.094 . S
O251 C241 1.253 . S
O252 Co231 2.115 . S
O252 C242 1.281 . S
O253 Co231 2.315 . S
O253 C242 1.252 . S
O254 Co224 2.122 . S
O254 C243 1.272 . S
O255 Co226 2.113 . S
O255 C243 1.245 . S
Co256 H259 2.400 . S
Co256 O260 2.009 . S
Co256 O268 2.115 . S
Co256 O269 2.315 . S
Co256 O280 2.053 . S
Co256 O283 2.094 . S
Co256 O286 2.122 . S
Co257 O260 2.126 . S
Co257 H261 2.388 . S
Co257 O262 2.053 . S
Co257 O265 2.047 . S
Co257 O271 2.113 . S
Co257 O282 2.063 . S
Co258 H259 2.388 . S
Co258 O260 2.053 . S
Co258 O262 2.126 . S
Co258 O267 2.063 . S
Co258 O281 2.047 . S
Co258 O287 2.113 . S
H259 Co256 2.400 . S
H259 Co258 2.388 . S
H259 O260 0.760 . S
O260 Co256 2.009 . S
O260 Co257 2.126 . S
O260 Co258 2.053 . S
O260 H259 0.760 . S
H261 Co257 2.388 . S
H261 O262 0.760 . S
H261 Co263 2.400 . S
O262 Co257 2.053 . S
O262 Co258 2.126 . S
O262 H261 0.760 . S
O262 Co263 2.009 . S
Co263 H261 2.400 . S
Co263 O262 2.009 . S
Co263 O264 2.053 . S
Co263 O266 2.094 . S
Co263 O270 2.122 . S
Co263 O284 2.115 . S
Co263 O285 2.315 . S
O264 Co263 2.053 . S
O264 C276 1.259 1_545 S
O265 Co257 2.047 . S
O265 C276 1.251 1_545 S
O266 Co263 2.094 . S
O266 C277 1.253 . S
O267 Co258 2.063 . S
O267 C277 1.268 . S
O268 Co256 2.115 . S
O268 C278 1.281 . S
O269 Co256 2.315 . S
O269 C278 1.252 . S
O270 Co263 2.122 . S
O270 C279 1.272 . S
O271 Co257 2.113 . S
O271 C279 1.245 . S
C272 O280 1.259 . S
C272 O281 1.257 . S
C273 O282 1.268 . S
C273 O283 1.253 . S
C274 O284 1.281 . S
C274 O285 1.252 . S
C275 O286 1.272 . S
C275 O287 1.245 . S
C276 O264 1.259 1_565 S
C276 O265 1.251 1_565 S
C277 O266 1.253 . S
C277 O267 1.268 . S
C278 O268 1.281 . S
C278 O269 1.252 . S
C279 O270 1.272 . S
C279 O271 1.245 . S
O280 Co256 2.053 . S
O280 C272 1.259 . S
O281 Co258 2.047 . S
O281 C272 1.257 . S
O282 Co257 2.063 . S
O282 C273 1.268 . S
O283 Co256 2.094 . S
O283 C273 1.253 . S
O284 Co263 2.115 . S
O284 C274 1.281 . S
O285 Co263 2.315 . S
O285 C274 1.252 . S
O286 Co256 2.122 . S
O286 C275 1.272 . S
O287 Co258 2.113 . S
O287 C275 1.245 . S
Co288 H291 2.400 . S
Co288 O292 2.009 . S
Co288 O300 2.115 . S
Co288 O301 2.315 . S
Co288 O312 2.053 . S
Co288 O315 2.094 . S
Co288 O318 2.122 . S
Co289 O292 2.126 . S
Co289 H293 2.388 . S
Co289 O294 2.053 . S
Co289 O297 2.047 . S
Co289 O303 2.113 . S
Co289 O314 2.063 . S
Co290 H291 2.388 . S
Co290 O292 2.053 . S
Co290 O294 2.126 . S
Co290 O299 2.063 . S
Co290 O313 2.047 . S
Co290 O319 2.113 . S
H291 Co288 2.400 . S
H291 Co290 2.388 . S
H291 O292 0.760 . S
O292 Co288 2.009 . S
O292 Co289 2.126 . S
O292 Co290 2.053 . S
O292 H291 0.760 . S
H293 Co289 2.388 . S
H293 O294 0.760 . S
H293 Co295 2.400 . S
O294 Co289 2.053 . S
O294 Co290 2.126 . S
O294 H293 0.760 . S
O294 Co295 2.009 . S
Co295 H293 2.400 . S
Co295 O294 2.009 . S
Co295 O296 2.053 . S
Co295 O298 2.094 . S
Co295 O302 2.122 . S
Co295 O316 2.115 . S
Co295 O317 2.315 . S
O296 Co295 2.053 . S
O296 C308 1.259 . S
O297 Co289 2.047 . S
O297 C308 1.257 . S
O298 Co295 2.094 . S
O298 C309 1.253 . S
O299 Co290 2.063 . S
O299 C309 1.268 . S
O300 Co288 2.115 . S
O300 C310 1.281 . S
O301 Co288 2.315 . S
O301 C310 1.252 . S
O302 Co295 2.122 . S
O302 C311 1.272 . S
O303 Co289 2.113 . S
O303 C311 1.245 . S
C304 O312 1.259 1_565 S
C304 O313 1.257 1_565 S
C305 O314 1.268 . S
C305 O315 1.253 . S
C306 O316 1.281 . S
C306 O317 1.252 . S
C307 O318 1.272 . S
C307 O319 1.245 . S
C308 O296 1.259 . S
C308 O297 1.257 . S
C309 O298 1.253 . S
C309 O299 1.268 . S
C310 O300 1.281 . S
C310 O301 1.252 . S
C311 O302 1.272 . S
C311 O303 1.245 . S
O312 Co288 2.053 . S
O312 C304 1.259 1_545 S
O313 Co290 2.047 . S
O313 C304 1.257 1_545 S
O314 Co289 2.063 . S
O314 C305 1.268 . S
O315 Co288 2.094 . S
O315 C305 1.253 . S
O316 Co295 2.115 . S
O316 C306 1.281 . S
O317 Co295 2.315 . S
O317 C306 1.252 . S
O318 Co288 2.122 . S
O318 C307 1.272 . S
O319 Co290 2.113 . S
O319 C307 1.245 . S
Co320 H323 2.400 . S
Co320 O324 2.009 . S
Co320 O332 2.115 . S
Co320 O333 2.315 . S
Co320 O344 2.053 . S
Co320 O347 2.094 . S
Co320 O350 2.122 . S
Co321 O324 2.126 . S
Co321 H325 2.388 . S
Co321 O326 2.053 . S
Co321 O329 2.047 . S
Co321 O335 2.113 . S
Co321 O346 2.063 . S
Co322 H323 2.388 . S
Co322 O324 2.053 . S
Co322 O326 2.126 . S
Co322 O331 2.063 . S
Co322 O345 2.047 . S
Co322 O351 2.113 . S
H323 Co320 2.400 . S
H323 Co322 2.388 . S
H323 O324 0.760 . S
O324 Co320 2.009 . S
O324 Co321 2.126 . S
O324 Co322 2.053 . S
O324 H323 0.760 . S
H325 Co321 2.388 . S
H325 O326 0.760 . S
H325 Co327 2.400 . S
O326 Co321 2.053 . S
O326 Co322 2.126 . S
O326 H325 0.760 . S
O326 Co327 2.009 . S
Co327 H325 2.400 . S
Co327 O326 2.009 . S
Co327 O328 2.053 . S
Co327 O330 2.094 . S
Co327 O334 2.122 . S
Co327 O348 2.115 . S
Co327 O349 2.315 . S
O328 Co327 2.053 . S
O328 C340 1.259 . S
O329 Co321 2.047 . S
O329 C340 1.257 . S
O330 Co327 2.094 . S
O330 C341 1.253 . S
O331 Co322 2.063 . S
O331 C341 1.268 . S
O332 Co320 2.115 . S
O332 C342 1.281 . S
O333 Co320 2.315 . S
O333 C342 1.252 . S
O334 Co327 2.122 . S
O334 C343 1.272 . S
O335 Co321 2.113 . S
O335 C343 1.245 . S
C336 O344 1.259 1_545 S
C336 O345 1.251 1_545 S
C337 O346 1.268 . S
C337 O347 1.253 . S
C338 O348 1.281 . S
C338 O349 1.252 . S
C339 O350 1.272 . S
C339 O351 1.245 . S
C340 O328 1.259 . S
C340 O329 1.257 . S
C341 O330 1.253 . S
C341 O331 1.268 . S
C342 O332 1.281 . S
C342 O333 1.252 . S
C343 O334 1.272 . S
C343 O335 1.245 . S
O344 Co320 2.053 . S
O344 C336 1.259 1_565 S
O345 Co322 2.047 . S
O345 C336 1.251 1_565 S
O346 Co321 2.063 . S
O346 C337 1.268 . S
O347 Co320 2.094 . S
O347 C337 1.253 . S
O348 Co327 2.115 . S
O348 C338 1.281 . S
O349 Co327 2.315 . S
O349 C338 1.252 . S
O350 Co320 2.122 . S
O350 C339 1.272 . S
O351 Co322 2.113 . S
O351 C339 1.245 . S
Co352 H355 2.400 . S
Co352 O356 2.009 . S
Co352 O364 2.115 . S
Co352 O365 2.315 . S
Co352 O376 2.053 . S
Co352 O379 2.094 . S
Co352 O382 2.122 . S
Co353 O356 2.126 . S
Co353 H357 2.388 . S
Co353 O358 2.053 . S
Co353 O361 2.047 . S
Co353 O367 2.113 . S
Co353 O378 2.063 . S
Co354 H355 2.388 . S
Co354 O356 2.053 . S
Co354 O358 2.126 . S
Co354 O363 2.063 . S
Co354 O377 2.047 . S
Co354 O383 2.113 . S
H355 Co352 2.400 . S
H355 Co354 2.388 . S
H355 O356 0.760 . S
O356 Co352 2.009 . S
O356 Co353 2.126 . S
O356 Co354 2.053 . S
O356 H355 0.760 . S
H357 Co353 2.388 . S
H357 O358 0.760 . S
H357 Co359 2.400 . S
O358 Co353 2.053 . S
O358 Co354 2.126 . S
O358 H357 0.760 . S
O358 Co359 2.009 . S
Co359 H357 2.400 . S
Co359 O358 2.009 . S
Co359 O360 2.053 . S
Co359 O362 2.094 . S
Co359 O366 2.122 . S
Co359 O380 2.115 . S
Co359 O381 2.315 . S
O360 Co359 2.053 . S
O360 C372 1.259 1_565 S
O361 Co353 2.047 . S
O361 C372 1.257 1_565 S
O362 Co359 2.094 . S
O362 C373 1.253 . S
O363 Co354 2.063 . S
O363 C373 1.268 . S
O364 Co352 2.115 . S
O364 C374 1.281 . S
O365 Co352 2.315 . S
O365 C374 1.252 . S
O366 Co359 2.122 . S
O366 C375 1.272 . S
O367 Co353 2.113 . S
O367 C375 1.245 . S
C368 O376 1.259 . S
C368 O377 1.257 . S
C369 O378 1.268 . S
C369 O379 1.253 . S
C370 O380 1.281 . S
C370 O381 1.252 . S
C371 O382 1.272 . S
C371 O383 1.245 . S
C372 O360 1.259 1_545 S
C372 O361 1.257 1_545 S
C373 O362 1.253 . S
C373 O363 1.268 . S
C374 O364 1.281 . S
C374 O365 1.252 . S
C375 O366 1.272 . S
C375 O367 1.245 . S
O376 Co352 2.053 . S
O376 C368 1.259 . S
O377 Co354 2.047 . S
O377 C368 1.257 . S
O378 Co353 2.063 . S
O378 C369 1.268 . S
O379 Co352 2.094 . S
O379 C369 1.253 . S
O380 Co359 2.115 . S
O380 C370 1.281 . S
O381 Co359 2.315 . S
O381 C370 1.252 . S
O382 Co352 2.122 . S
O382 C371 1.272 . S
O383 Co354 2.113 . S
O383 C371 1.245 . S
Co384 H387 2.400 . S
Co384 O388 2.009 . S
Co384 O396 2.115 . S
Co384 O397 2.315 . S
Co384 O408 2.053 . S
Co384 O411 2.094 . S
Co384 O414 2.122 . S
Co385 O388 2.126 . S
Co385 H389 2.388 . S
Co385 O390 2.053 . S
Co385 O393 2.047 . S
Co385 O399 2.113 . S
Co385 O410 2.063 . S
Co386 H387 2.388 . S
Co386 O388 2.053 . S
Co386 O390 2.126 . S
Co386 O395 2.063 . S
Co386 O409 2.047 . S
Co386 O415 2.113 . S
H387 Co384 2.400 . S
H387 Co386 2.388 . S
H387 O388 0.760 . S
O388 Co384 2.009 . S
O388 Co385 2.126 . S
O388 Co386 2.053 . S
O388 H387 0.760 . S
H389 Co385 2.388 . S
H389 O390 0.760 . S
H389 Co391 2.400 . S
O390 Co385 2.053 . S
O390 Co386 2.126 . S
O390 H389 0.760 . S
O390 Co391 2.009 . S
Co391 H389 2.400 . S
Co391 O390 2.009 . S
Co391 O392 2.053 . S
Co391 O394 2.094 . S
Co391 O398 2.122 . S
Co391 O412 2.115 . S
Co391 O413 2.315 . S
O392 Co391 2.053 . S
O392 C404 1.259 . S
O393 Co385 2.047 . S
O393 C404 1.257 . S
O394 Co391 2.094 . S
O394 C405 1.253 . S
O395 Co386 2.063 . S
O395 C405 1.268 . S
O396 Co384 2.115 . S
O396 C406 1.281 . S
O397 Co384 2.315 . S
O397 C406 1.252 . S
O398 Co391 2.122 . S
O398 C407 1.272 . S
O399 Co385 2.113 . S
O399 C407 1.245 . S
C400 O408 1.259 . S
C400 O409 1.257 . S
C401 O410 1.268 . S
C401 O411 1.253 . S
C402 O412 1.281 . S
C402 O413 1.252 . S
C403 O414 1.272 . S
C403 O415 1.245 . S
C404 O392 1.259 . S
C404 O393 1.257 . S
C405 O394 1.253 . S
C405 O395 1.268 . S
C406 O396 1.281 . S
C406 O397 1.252 . S
C407 O398 1.272 . S
C407 O399 1.245 . S
O408 Co384 2.053 . S
O408 C400 1.259 . S
O409 Co386 2.047 . S
O409 C400 1.257 . S
O410 Co385 2.063 . S
O410 C401 1.268 . S
O411 Co384 2.094 . S
O411 C401 1.253 . S
O412 Co391 2.115 . S
O412 C402 1.281 . S
O413 Co391 2.315 . S
O413 C402 1.252 . S
O414 Co384 2.122 . S
O414 C403 1.272 . S
O415 Co386 2.113 . S
O415 C403 1.245 . S
Co416 H419 2.400 . S
Co416 O420 2.009 . S
Co416 O428 2.115 . S
Co416 O429 2.315 . S
Co416 O440 2.053 . S
Co416 O443 2.094 . S
Co416 O446 2.122 . S
Co417 O420 2.126 . S
Co417 H421 2.388 . S
Co417 O422 2.053 . S
Co417 O425 2.047 . S
Co417 O431 2.113 . S
Co417 O442 2.063 . S
Co418 H419 2.388 . S
Co418 O420 2.053 . S
Co418 O422 2.126 . S
Co418 O427 2.063 . S
Co418 O441 2.047 . S
Co418 O447 2.113 . S
H419 Co416 2.400 . S
H419 Co418 2.388 . S
H419 O420 0.760 . S
O420 Co416 2.009 . S
O420 Co417 2.126 . S
O420 Co418 2.053 . S
O420 H419 0.760 . S
H421 Co417 2.388 . S
H421 O422 0.760 . S
H421 Co423 2.400 . S
O422 Co417 2.053 . S
O422 Co418 2.126 . S
O422 H421 0.760 . S
O422 Co423 2.009 . S
Co423 H421 2.400 . S
Co423 O422 2.009 . S
Co423 O424 2.053 . S
Co423 O426 2.094 . S
Co423 O430 2.122 . S
Co423 O444 2.115 . S
Co423 O445 2.315 . S
O424 Co423 2.053 . S
O424 C436 1.259 . S
O425 Co417 2.047 . S
O425 C436 1.257 . S
O426 Co423 2.094 . S
O426 C437 1.253 . S
O427 Co418 2.063 . S
O427 C437 1.268 . S
O428 Co416 2.115 . S
O428 C438 1.281 . S
O429 Co416 2.315 . S
O429 C438 1.252 . S
O430 Co423 2.122 . S
O430 C439 1.272 . S
O431 Co417 2.113 . S
O431 C439 1.245 . S
C432 O440 1.259 . S
C432 O441 1.257 . S
C433 O442 1.268 . S
C433 O443 1.253 . S
C434 O444 1.281 . S
C434 O445 1.252 . S
C435 O446 1.272 . S
C435 O447 1.245 . S
C436 O424 1.259 . S
C436 O425 1.257 . S
C437 O426 1.253 . S
C437 O427 1.268 . S
C438 O428 1.281 . S
C438 O429 1.252 . S
C439 O430 1.272 . S
C439 O431 1.245 . S
O440 Co416 2.053 . S
O440 C432 1.259 . S
O441 Co418 2.047 . S
O441 C432 1.257 . S
O442 Co417 2.063 . S
O442 C433 1.268 . S
O443 Co416 2.094 . S
O443 C433 1.253 . S
O444 Co423 2.115 . S
O444 C434 1.281 . S
O445 Co423 2.315 . S
O445 C434 1.252 . S
O446 Co416 2.122 . S
O446 C435 1.272 . S
O447 Co418 2.113 . S
O447 C435 1.245 . S
Co448 H451 2.400 . S
Co448 O452 2.009 . S
Co448 O460 2.115 . S
Co448 O461 2.315 . S
Co448 O472 2.053 . S
Co448 O475 2.094 . S
Co448 O478 2.122 . S
Co449 O452 2.126 . S
Co449 H453 2.388 . S
Co449 O454 2.053 . S
Co449 O457 2.047 . S
Co449 O463 2.113 . S
Co449 O474 2.063 . S
Co450 H451 2.388 . S
Co450 O452 2.053 . S
Co450 O454 2.126 . S
Co450 O459 2.063 . S
Co450 O473 2.047 . S
Co450 O479 2.113 . S
H451 Co448 2.400 . S
H451 Co450 2.388 . S
H451 O452 0.760 . S
O452 Co448 2.009 . S
O452 Co449 2.126 . S
O452 Co450 2.053 . S
O452 H451 0.760 . S
H453 Co449 2.388 . S
H453 O454 0.760 . S
H453 Co455 2.400 . S
O454 Co449 2.053 . S
O454 Co450 2.126 . S
O454 H453 0.760 . S
O454 Co455 2.009 . S
Co455 H453 2.400 . S
Co455 O454 2.009 . S
Co455 O456 2.053 . S
Co455 O458 2.094 . S
Co455 O462 2.122 . S
Co455 O476 2.115 . S
Co455 O477 2.315 . S
O456 Co455 2.053 . S
O456 C468 1.259 . S
O457 Co449 2.047 . S
O457 C468 1.257 . S
O458 Co455 2.094 . S
O458 C469 1.253 . S
O459 Co450 2.063 . S
O459 C469 1.268 . S
O460 Co448 2.115 . S
O460 C470 1.281 . S
O461 Co448 2.315 . S
O461 C470 1.252 . S
O462 Co455 2.122 . S
O462 C471 1.272 . S
O463 Co449 2.113 . S
O463 C471 1.245 . S
C464 O472 1.259 . S
C464 O473 1.257 . S
C465 O474 1.268 . S
C465 O475 1.253 . S
C466 O476 1.281 . S
C466 O477 1.252 . S
C467 O478 1.272 . S
C467 O479 1.245 . S
C468 O456 1.259 . S
C468 O457 1.257 . S
C469 O458 1.253 . S
C469 O459 1.268 . S
C470 O460 1.281 . S
C470 O461 1.252 . S
C471 O462 1.272 . S
C471 O463 1.245 . S
O472 Co448 2.053 . S
O472 C464 1.259 . S
O473 Co450 2.047 . S
O473 C464 1.257 . S
O474 Co449 2.063 . S
O474 C465 1.268 . S
O475 Co448 2.094 . S
O475 C465 1.253 . S
O476 Co455 2.115 . S
O476 C466 1.281 . S
O477 Co455 2.315 . S
O477 C466 1.252 . S
O478 Co448 2.122 . S
O478 C467 1.272 . S
O479 Co450 2.113 . S
O479 C467 1.245 . S
Co480 H483 2.400 . S
Co480 O484 2.009 . S
Co480 O492 2.115 . S
Co480 O493 2.315 . S
Co480 O504 2.053 . S
Co480 O507 2.094 . S
Co480 O510 2.122 . S
Co481 O484 2.126 . S
Co481 H485 2.388 . S
Co481 O486 2.053 . S
Co481 O489 2.047 . S
Co481 O495 2.113 . S
Co481 O506 2.063 . S
Co482 H483 2.388 . S
Co482 O484 2.053 . S
Co482 O486 2.126 . S
Co482 O491 2.063 . S
Co482 O505 2.047 . S
Co482 O511 2.113 . S
H483 Co480 2.400 . S
H483 Co482 2.388 . S
H483 O484 0.760 . S
O484 Co480 2.009 . S
O484 Co481 2.126 . S
O484 Co482 2.053 . S
O484 H483 0.760 . S
H485 Co481 2.388 . S
H485 O486 0.760 . S
H485 Co487 2.400 . S
O486 Co481 2.053 . S
O486 Co482 2.126 . S
O486 H485 0.760 . S
O486 Co487 2.009 . S
Co487 H485 2.400 . S
Co487 O486 2.009 . S
Co487 O488 2.053 . S
Co487 O490 2.094 . S
Co487 O494 2.122 . S
Co487 O508 2.115 . S
Co487 O509 2.315 . S
O488 Co487 2.053 . S
O488 C500 1.259 . S
O489 Co481 2.047 . S
O489 C500 1.257 . S
O490 Co487 2.094 . S
O490 C501 1.253 . S
O491 Co482 2.063 . S
O491 C501 1.268 . S
O492 Co480 2.115 . S
O492 C502 1.281 . S
O493 Co480 2.315 . S
O493 C502 1.252 . S
O494 Co487 2.122 . S
O494 C503 1.272 . S
O495 Co481 2.113 . S
O495 C503 1.245 . S
C496 O504 1.259 . S
C496 O505 1.257 . S
C497 O506 1.268 . S
C497 O507 1.253 . S
C498 O508 1.281 . S
C498 O509 1.252 . S
C499 O510 1.272 . S
C499 O511 1.245 . S
C500 O488 1.259 . S
C500 O489 1.257 . S
C501 O490 1.253 . S
C501 O491 1.268 . S
C502 O492 1.281 . S
C502 O493 1.252 . S
C503 O494 1.272 . S
C503 O495 1.245 . S
O504 Co480 2.053 . S
O504 C496 1.259 . S
O505 Co482 2.047 . S
O505 C496 1.257 . S
O506 Co481 2.063 . S
O506 C497 1.268 . S
O507 Co480 2.094 . S
O507 C497 1.253 . S
O508 Co487 2.115 . S
O508 C498 1.281 . S
O509 Co487 2.315 . S
O509 C498 1.252 . S
O510 Co480 2.122 . S
O510 C499 1.272 . S
O511 Co482 2.113 . S
O511 C499 1.245 . S
H512 C518 0.930 . S
H513 C521 0.930 . S
H514 C522 0.930 . S
H515 C523 0.930 . S
H516 C526 0.930 . S
H517 C527 0.930 . S
C518 H512 0.930 . S
C518 C519 1.355 . S
C518 C520 1.415 . S
C519 C518 1.355 . S
C519 C521 1.419 . S
C520 C518 1.415 . S
C520 C525 1.425 . S
C520 C527 1.409 . S
C521 H513 0.930 . S
C521 C519 1.419 . S
C521 C522 1.362 . S
C522 H514 0.930 . S
C522 C521 1.362 . S
C522 C525 1.409 . S
C523 H515 0.930 . S
C523 C524 1.355 . S
C523 C525 1.415 . S
C524 C523 1.355 . S
C524 C526 1.419 . S
C525 C520 1.425 . S
C525 C522 1.409 . S
C525 C523 1.415 . S
C526 H516 0.930 . S
C526 C524 1.419 . S
C526 C527 1.362 . S
C527 H517 0.930 . S
C527 C520 1.409 . S
C527 C526 1.362 . S
H528 C534 0.930 . S
H529 C537 0.930 . S
H530 C538 0.930 . S
H531 C539 0.930 . S
H532 C542 0.930 . S
H533 C543 0.930 . S
C534 H528 0.930 . S
C534 C535 1.355 . S
C534 C536 1.415 . S
C535 C534 1.355 . S
C535 C537 1.419 . S
C536 C534 1.415 . S
C536 C541 1.425 . S
C536 C543 1.409 . S
C537 H529 0.930 . S
C537 C535 1.419 . S
C537 C538 1.362 . S
C538 H530 0.930 . S
C538 C537 1.362 . S
C538 C541 1.409 . S
C539 H531 0.930 . S
C539 C540 1.355 . S
C539 C541 1.415 . S
C540 C539 1.355 . S
C540 C542 1.419 . S
C541 C536 1.425 . S
C541 C538 1.409 . S
C541 C539 1.415 . S
C542 H532 0.930 . S
C542 C540 1.419 . S
C542 C543 1.362 . S
C543 H533 0.930 . S
C543 C536 1.409 . S
C543 C542 1.362 . S
H544 C550 0.930 . S
H545 C553 0.930 . S
H546 C554 0.930 . S
H547 C555 0.930 . S
H548 C558 0.930 . S
H549 C559 0.930 . S
C550 H544 0.930 . S
C550 C551 1.355 . S
C550 C552 1.415 . S
C551 C550 1.355 . S
C551 C553 1.419 . S
C552 C550 1.415 . S
C552 C557 1.425 . S
C552 C559 1.409 . S
C553 H545 0.930 . S
C553 C551 1.419 . S
C553 C554 1.362 . S
C554 H546 0.930 . S
C554 C553 1.362 . S
C554 C557 1.409 . S
C555 H547 0.930 . S
C555 C556 1.355 . S
C555 C557 1.415 . S
C556 C555 1.355 . S
C556 C558 1.419 . S
C557 C552 1.425 . S
C557 C554 1.409 . S
C557 C555 1.415 . S
C558 H548 0.930 . S
C558 C556 1.419 . S
C558 C559 1.362 . S
C559 H549 0.930 . S
C559 C552 1.409 . S
C559 C558 1.362 . S
H560 C566 0.930 . S
H561 C569 0.930 . S
H562 C570 0.930 . S
H563 C571 0.930 . S
H564 C574 0.930 . S
H565 C575 0.930 . S
C566 H560 0.930 . S
C566 C567 1.355 1_455 S
C566 C568 1.415 1_455 S
C567 C566 1.355 1_655 S
C567 C569 1.419 . S
C568 C566 1.415 1_655 S
C568 C573 1.425 . S
C568 C575 1.409 1_655 S
C569 H561 0.930 . S
C569 C567 1.419 . S
C569 C570 1.362 . S
C570 H562 0.930 . S
C570 C569 1.362 . S
C570 C573 1.409 . S
C571 H563 0.930 . S
C571 C572 1.355 . S
C571 C573 1.415 . S
C572 C571 1.355 . S
C572 C574 1.419 . S
C573 C568 1.425 . S
C573 C570 1.409 . S
C573 C571 1.415 . S
C574 H564 0.930 . S
C574 C572 1.419 . S
C574 C575 1.362 1_655 S
C575 H565 0.930 . S
C575 C568 1.409 1_455 S
C575 C574 1.362 1_455 S
H576 C582 0.930 . S
H577 C585 0.930 . S
H578 C586 0.930 . S
H579 C587 0.930 . S
H580 C590 0.930 . S
H581 C591 0.930 . S
C582 H576 0.930 . S
C582 C583 1.355 . S
C582 C584 1.415 . S
C583 C582 1.355 . S
C583 C585 1.419 . S
C584 C582 1.415 . S
C584 C589 1.425 . S
C584 C591 1.409 . S
C585 H577 0.930 . S
C585 C583 1.419 . S
C585 C586 1.362 . S
C586 H578 0.930 . S
C586 C585 1.362 . S
C586 C589 1.409 . S
C587 H579 0.930 . S
C587 C588 1.355 . S
C587 C589 1.415 . S
C588 C587 1.355 . S
C588 C590 1.419 . S
C589 C584 1.425 . S
C589 C586 1.409 . S
C589 C587 1.415 . S
C590 H580 0.930 . S
C590 C588 1.419 . S
C590 C591 1.362 . S
C591 H581 0.930 . S
C591 C584 1.409 . S
C591 C590 1.362 . S
H592 C598 0.930 . S
H593 C601 0.930 . S
H594 C602 0.930 . S
H595 C603 0.930 . S
H596 C606 0.930 . S
H597 C607 0.930 . S
C598 H592 0.930 . S
C598 C599 1.355 . S
C598 C600 1.415 . S
C599 C598 1.355 . S
C599 C601 1.419 1_455 S
C600 C598 1.415 . S
C600 C605 1.425 . S
C600 C607 1.409 . S
C601 H593 0.930 . S
C601 C599 1.419 1_655 S
C601 C602 1.362 . S
C602 H594 0.930 . S
C602 C601 1.362 . S
C602 C605 1.409 1_655 S
C603 H595 0.930 . S
C603 C604 1.355 . S
C603 C605 1.415 . S
C604 C603 1.355 . S
C604 C606 1.419 . S
C605 C600 1.425 . S
C605 C602 1.409 1_455 S
C605 C603 1.415 . S
C606 H596 0.930 . S
C606 C604 1.419 . S
C606 C607 1.362 . S
C607 H597 0.930 . S
C607 C600 1.409 . S
C607 C606 1.362 . S
H608 C614 0.930 . S
H609 C617 0.930 . S
H610 C618 0.930 . S
H611 C619 0.930 . S
H612 C622 0.930 . S
H613 C623 0.930 . S
C614 H608 0.930 . S
C614 C615 1.355 . S
C614 C616 1.415 . S
C615 C614 1.355 . S
C615 C617 1.419 . S
C616 C614 1.415 . S
C616 C621 1.425 . S
C616 C623 1.409 . S
C617 H609 0.930 . S
C617 C615 1.419 . S
C617 C618 1.362 . S
C618 H610 0.930 . S
C618 C617 1.362 . S
C618 C621 1.409 . S
C619 H611 0.930 . S
C619 C620 1.355 . S
C619 C621 1.415 . S
C620 C619 1.355 . S
C620 C622 1.419 . S
C621 C616 1.425 . S
C621 C618 1.409 . S
C621 C619 1.415 . S
C622 H612 0.930 . S
C622 C620 1.419 . S
C622 C623 1.362 . S
C623 H613 0.930 . S
C623 C616 1.409 . S
C623 C622 1.362 . S
H624 C630 0.930 . S
H625 C633 0.930 . S
H626 C634 0.930 . S
H627 C635 0.930 . S
H628 C638 0.930 . S
H629 C639 0.930 1_655 S
C630 H624 0.930 . S
C630 C631 1.355 1_655 S
C630 C632 1.415 1_655 S
C631 C630 1.355 1_455 S
C631 C633 1.419 . S
C632 C630 1.415 1_455 S
C632 C637 1.425 . S
C632 C639 1.409 . S
C633 H625 0.930 . S
C633 C631 1.419 . S
C633 C634 1.362 . S
C634 H626 0.930 . S
C634 C633 1.362 . S
C634 C637 1.409 . S
C635 H627 0.930 . S
C635 C636 1.355 . S
C635 C637 1.415 . S
C636 C635 1.355 . S
C636 C638 1.419 . S
C637 C632 1.425 . S
C637 C634 1.409 . S
C637 C635 1.415 . S
C638 H628 0.930 . S
C638 C636 1.419 . S
C638 C639 1.362 . S
C639 H629 0.930 1_455 S
C639 C632 1.409 . S
C639 C638 1.362 . S
H640 C646 0.930 . S
H641 C649 0.930 . S
H642 C650 0.930 . S
H643 C651 0.930 . S
H644 C654 0.930 . S
H645 C655 0.930 . S
C646 H640 0.930 . S
C646 C647 1.355 . S
C646 C648 1.415 . S
C647 C646 1.355 . S
C647 C649 1.419 . S
C648 C646 1.415 . S
C648 C653 1.425 . S
C648 C655 1.409 . S
C649 H641 0.930 . S
C649 C647 1.419 . S
C649 C650 1.362 . S
C650 H642 0.930 . S
C650 C649 1.362 . S
C650 C653 1.409 . S
C651 H643 0.930 . S
C651 C652 1.355 . S
C651 C653 1.415 . S
C652 C651 1.355 . S
C652 C654 1.419 . S
C653 C648 1.425 . S
C653 C650 1.409 . S
C653 C651 1.415 . S
C654 H644 0.930 . S
C654 C652 1.419 . S
C654 C655 1.362 . S
C655 H645 0.930 . S
C655 C648 1.409 . S
C655 C654 1.362 . S
H656 C662 0.930 . S
H657 C665 0.930 . S
H658 C666 0.930 1_455 S
H659 C667 0.930 . S
H660 C670 0.930 . S
H661 C671 0.930 . S
C662 H656 0.930 . S
C662 C663 1.355 . S
C662 C664 1.415 . S
C663 C662 1.355 . S
C663 C665 1.419 . S
C664 C662 1.415 . S
C664 C669 1.425 . S
C664 C671 1.409 . S
C665 H657 0.930 . S
C665 C663 1.419 . S
C665 C666 1.362 . S
C666 H658 0.930 1_655 S
C666 C665 1.362 . S
C666 C669 1.409 . S
C667 H659 0.930 . S
C667 C668 1.355 1_455 S
C667 C669 1.415 1_455 S
C668 C667 1.355 1_655 S
C668 C670 1.419 . S
C669 C664 1.425 . S
C669 C666 1.409 . S
C669 C667 1.415 1_655 S
C670 H660 0.930 . S
C670 C668 1.419 . S
C670 C671 1.362 . S
C671 H661 0.930 . S
C671 C664 1.409 . S
C671 C670 1.362 . S
H672 C678 0.930 . S
H673 C681 0.930 . S
H674 C682 0.930 . S
H675 C683 0.930 . S
H676 C686 0.930 . S
H677 C687 0.930 . S
C678 H672 0.930 . S
C678 C679 1.355 . S
C678 C680 1.415 . S
C679 C678 1.355 . S
C679 C681 1.419 . S
C680 C678 1.415 . S
C680 C685 1.425 . S
C680 C687 1.409 . S
C681 H673 0.930 . S
C681 C679 1.419 . S
C681 C682 1.362 . S
C682 H674 0.930 . S
C682 C681 1.362 . S
C682 C685 1.409 . S
C683 H675 0.930 . S
C683 C684 1.355 . S
C683 C685 1.415 . S
C684 C683 1.355 . S
C684 C686 1.419 . S
C685 C680 1.425 . S
C685 C682 1.409 . S
C685 C683 1.415 . S
C686 H676 0.930 . S
C686 C684 1.419 . S
C686 C687 1.362 . S
C687 H677 0.930 . S
C687 C680 1.409 . S
C687 C686 1.362 . S
H688 C694 0.930 . S
H689 C697 0.930 . S
H690 C698 0.930 1_455 S
H691 C699 0.930 . S
H692 C702 0.930 . S
H693 C703 0.930 . S
C694 H688 0.930 . S
C694 C695 1.355 . S
C694 C696 1.415 . S
C695 C694 1.355 . S
C695 C697 1.419 . S
C696 C694 1.415 . S
C696 C701 1.425 . S
C696 C703 1.409 . S
C697 H689 0.930 . S
C697 C695 1.419 . S
C697 C698 1.362 . S
C698 H690 0.930 1_655 S
C698 C697 1.362 . S
C698 C701 1.409 . S
C699 H691 0.930 . S
C699 C700 1.355 1_455 S
C699 C701 1.415 1_455 S
C700 C699 1.355 1_655 S
C700 C702 1.419 . S
C701 C696 1.425 . S
C701 C698 1.409 . S
C701 C699 1.415 1_655 S
C702 H692 0.930 . S
C702 C700 1.419 . S
C702 C703 1.362 . S
C703 H693 0.930 . S
C703 C696 1.409 . S
C703 C702 1.362 . S
H704 C710 0.930 . S
H705 C713 0.930 . S
H706 C714 0.930 . S
H707 C715 0.930 . S
H708 C718 0.930 . S
H709 C719 0.930 . S
C710 H704 0.930 . S
C710 C711 1.355 . S
C710 C712 1.415 . S
C711 C710 1.355 . S
C711 C713 1.419 . S
C712 C710 1.415 . S
C712 C717 1.425 . S
C712 C719 1.409 . S
C713 H705 0.930 . S
C713 C711 1.419 . S
C713 C714 1.362 . S
C714 H706 0.930 . S
C714 C713 1.362 . S
C714 C717 1.409 . S
C715 H707 0.930 . S
C715 C716 1.355 . S
C715 C717 1.415 . S
C716 C715 1.355 . S
C716 C718 1.419 . S
C717 C712 1.425 . S
C717 C714 1.409 . S
C717 C715 1.415 . S
C718 H708 0.930 . S
C718 C716 1.419 . S
C718 C719 1.362 . S
C719 H709 0.930 . S
C719 C712 1.409 . S
C719 C718 1.362 . S
H720 C726 0.930 . S
H721 C729 0.930 . S
H722 C730 0.930 . S
H723 C731 0.930 . S
H724 C734 0.930 . S
H725 C735 0.930 . S
C726 H720 0.930 . S
C726 C727 1.355 . S
C726 C728 1.415 . S
C727 C726 1.355 . S
C727 C729 1.419 . S
C728 C726 1.415 . S
C728 C733 1.425 . S
C728 C735 1.409 . S
C729 H721 0.930 . S
C729 C727 1.419 . S
C729 C730 1.362 . S
C730 H722 0.930 . S
C730 C729 1.362 . S
C730 C733 1.409 . S
C731 H723 0.930 . S
C731 C732 1.355 . S
C731 C733 1.415 . S
C732 C731 1.355 . S
C732 C734 1.419 . S
C733 C728 1.425 . S
C733 C730 1.409 . S
C733 C731 1.415 . S
C734 H724 0.930 . S
C734 C732 1.419 . S
C734 C735 1.362 . S
C735 H725 0.930 . S
C735 C728 1.409 . S
C735 C734 1.362 . S
H736 C742 0.930 . S
H737 C745 0.930 . S
H738 C746 0.930 . S
H739 C747 0.930 . S
H740 C750 0.930 . S
H741 C751 0.930 . S
C742 H736 0.930 . S
C742 C743 1.355 . S
C742 C744 1.415 . S
C743 C742 1.355 . S
C743 C745 1.419 . S
C744 C742 1.415 . S
C744 C749 1.425 . S
C744 C751 1.409 . S
C745 H737 0.930 . S
C745 C743 1.419 . S
C745 C746 1.362 . S
C746 H738 0.930 . S
C746 C745 1.362 . S
C746 C749 1.409 . S
C747 H739 0.930 . S
C747 C748 1.355 . S
C747 C749 1.415 . S
C748 C747 1.355 . S
C748 C750 1.419 . S
C749 C744 1.425 . S
C749 C746 1.409 . S
C749 C747 1.415 . S
C750 H740 0.930 . S
C750 C748 1.419 . S
C750 C751 1.362 . S
C751 H741 0.930 . S
C751 C744 1.409 . S
C751 C750 1.362 . S
H752 C758 0.930 . S
H753 C761 0.930 . S
H754 C762 0.930 . S
H755 C763 0.930 . S
H756 C766 0.930 . S
H757 C767 0.930 . S
C758 H752 0.930 . S
C758 C759 1.355 . S
C758 C760 1.415 . S
C759 C758 1.355 . S
C759 C761 1.419 1_455 S
C760 C758 1.415 . S
C760 C765 1.425 . S
C760 C767 1.409 . S
C761 H753 0.930 . S
C761 C759 1.419 1_655 S
C761 C762 1.362 . S
C762 H754 0.930 . S
C762 C761 1.362 . S
C762 C765 1.409 1_655 S
C763 H755 0.930 . S
C763 C764 1.355 . S
C763 C765 1.415 . S
C764 C763 1.355 . S
C764 C766 1.419 . S
C765 C760 1.425 . S
C765 C762 1.409 1_455 S
C765 C763 1.415 . S
C766 H756 0.930 . S
C766 C764 1.419 . S
C766 C767 1.362 . S
C767 H757 0.930 . S
C767 C760 1.409 . S
C767 C766 1.362 . S
H768 C774 0.930 . S
H769 C777 0.923 1_545 S
H770 C778 0.930 . S
H771 C779 0.930 . S
H772 C782 0.930 . S
H773 C783 0.930 . S
C774 H768 0.930 . S
C774 C775 1.355 . S
C774 C776 1.415 . S
C775 C774 1.355 . S
C775 C777 1.419 . S
C776 C774 1.415 . S
C776 C781 1.425 . S
C776 C783 1.409 . S
C777 H769 0.923 1_565 S
C777 C775 1.419 . S
C777 C778 1.362 . S
C778 H770 0.930 . S
C778 C777 1.362 . S
C778 C781 1.409 . S
C779 H771 0.930 . S
C779 C780 1.355 . S
C779 C781 1.415 . S
C780 C779 1.355 . S
C780 C782 1.419 . S
C781 C776 1.425 . S
C781 C778 1.409 . S
C781 C779 1.415 . S
C782 H772 0.930 . S
C782 C780 1.419 . S
C782 C783 1.362 . S
C783 H773 0.930 . S
C783 C776 1.409 . S
C783 C782 1.362 . S
H784 C790 0.930 . S
H785 C793 0.930 . S
H786 C794 0.930 . S
H787 C795 0.930 . S
H788 C798 0.930 . S
H789 C799 0.930 1_455 S
C790 H784 0.930 . S
C790 C791 1.355 1_455 S
C790 C792 1.415 1_455 S
C791 C790 1.355 1_655 S
C791 C793 1.419 . S
C792 C790 1.415 1_655 S
C792 C797 1.425 . S
C792 C799 1.409 . S
C793 H785 0.930 . S
C793 C791 1.419 . S
C793 C794 1.362 . S
C794 H786 0.930 . S
C794 C793 1.362 . S
C794 C797 1.409 . S
C795 H787 0.930 . S
C795 C796 1.355 . S
C795 C797 1.415 . S
C796 C795 1.355 . S
C796 C798 1.419 . S
C797 C792 1.425 . S
C797 C794 1.409 . S
C797 C795 1.415 . S
C798 H788 0.930 . S
C798 C796 1.419 . S
C798 C799 1.362 . S
C799 H789 0.930 1_655 S
C799 C792 1.409 . S
C799 C798 1.362 . S
H800 C806 0.930 . S
H801 C809 0.930 . S
H802 C810 0.930 . S
H803 C811 0.930 . S
H804 C814 0.930 . S
H805 C815 0.930 . S
C806 H800 0.930 . S
C806 C807 1.355 . S
C806 C808 1.415 . S
C807 C806 1.355 . S
C807 C809 1.419 . S
C808 C806 1.415 . S
C808 C813 1.425 . S
C808 C815 1.409 . S
C809 H801 0.930 . S
C809 C807 1.419 . S
C809 C810 1.362 . S
C810 H802 0.930 . S
C810 C809 1.362 . S
C810 C813 1.409 . S
C811 H803 0.930 . S
C811 C812 1.355 . S
C811 C813 1.415 . S
C812 C811 1.355 . S
C812 C814 1.419 . S
C813 C808 1.425 . S
C813 C810 1.409 . S
C813 C811 1.415 . S
C814 H804 0.930 . S
C814 C812 1.419 . S
C814 C815 1.362 . S
C815 H805 0.930 . S
C815 C808 1.409 . S
C815 C814 1.362 . S
H816 C822 0.930 . S
H817 C825 0.930 . S
H818 C826 0.930 1_455 S
H819 C827 0.930 . S
H820 C830 0.930 1_545 S
H821 C831 0.930 . S
C822 H816 0.930 . S
C822 C823 1.355 . S
C822 C824 1.415 . S
C823 C822 1.355 . S
C823 C825 1.419 . S
C824 C822 1.415 . S
C824 C829 1.425 . S
C824 C831 1.409 . S
C825 H817 0.930 . S
C825 C823 1.419 . S
C825 C826 1.362 . S
C826 H818 0.930 1_655 S
C826 C825 1.362 . S
C826 C829 1.409 . S
C827 H819 0.930 . S
C827 C828 1.355 1_455 S
C827 C829 1.415 1_455 S
C828 C827 1.355 1_655 S
C828 C830 1.419 . S
C829 C824 1.425 . S
C829 C826 1.409 . S
C829 C827 1.415 1_655 S
C830 H820 0.930 1_565 S
C830 C828 1.419 . S
C830 C831 1.362 . S
C831 H821 0.930 . S
C831 C824 1.409 . S
C831 C830 1.362 . S
H832 C838 0.930 . S
H833 C841 0.930 . S
H834 C842 0.930 . S
H835 C843 0.930 . S
H836 C846 0.930 . S
H837 C847 0.930 . S
C838 H832 0.930 . S
C838 C839 1.355 . S
C838 C840 1.415 . S
C839 C838 1.355 . S
C839 C841 1.419 . S
C840 C838 1.415 . S
C840 C845 1.425 . S
C840 C847 1.409 . S
C841 H833 0.930 . S
C841 C839 1.419 . S
C841 C842 1.362 . S
C842 H834 0.930 . S
C842 C841 1.362 . S
C842 C845 1.409 . S
C843 H835 0.930 . S
C843 C844 1.355 . S
C843 C845 1.415 . S
C844 C843 1.355 . S
C844 C846 1.419 . S
C845 C840 1.425 . S
C845 C842 1.409 . S
C845 C843 1.415 . S
C846 H836 0.930 . S
C846 C844 1.419 . S
C846 C847 1.362 . S
C847 H837 0.930 . S
C847 C840 1.409 . S
C847 C846 1.362 . S
H848 C854 0.930 . S
H849 C857 0.930 . S
H850 C858 0.930 1_655 S
H851 C859 0.930 . S
H852 C862 0.930 . S
H853 C863 0.930 . S
C854 H848 0.930 . S
C854 C855 1.355 . S
C854 C856 1.415 . S
C855 C854 1.355 . S
C855 C857 1.419 . S
C856 C854 1.415 . S
C856 C861 1.425 . S
C856 C863 1.409 . S
C857 H849 0.930 . S
C857 C855 1.419 . S
C857 C858 1.362 . S
C858 H850 0.930 1_455 S
C858 C857 1.362 . S
C858 C861 1.409 . S
C859 H851 0.930 . S
C859 C860 1.355 1_655 S
C859 C861 1.415 1_655 S
C860 C859 1.355 1_455 S
C860 C862 1.419 . S
C861 C856 1.425 . S
C861 C858 1.409 . S
C861 C859 1.415 1_455 S
C862 H852 0.930 . S
C862 C860 1.419 . S
C862 C863 1.362 . S
C863 H853 0.930 . S
C863 C856 1.409 . S
C863 C862 1.362 . S
H864 C870 0.930 . S
H865 C873 0.930 . S
H866 C874 0.930 . S
H867 C875 0.930 . S
H868 C878 0.930 . S
H869 C879 0.930 . S
C870 H864 0.930 . S
C870 C871 1.355 . S
C870 C872 1.415 . S
C871 C870 1.355 . S
C871 C873 1.419 . S
C872 C870 1.415 . S
C872 C877 1.425 . S
C872 C879 1.409 . S
C873 H865 0.930 . S
C873 C871 1.419 . S
C873 C874 1.362 . S
C874 H866 0.930 . S
C874 C873 1.362 . S
C874 C877 1.409 . S
C875 H867 0.930 . S
C875 C876 1.355 . S
C875 C877 1.415 . S
C876 C875 1.355 . S
C876 C878 1.419 . S
C877 C872 1.425 . S
C877 C874 1.409 . S
C877 C875 1.415 . S
C878 H868 0.930 . S
C878 C876 1.419 . S
C878 C879 1.362 . S
C879 H869 0.930 . S
C879 C872 1.409 . S
C879 C878 1.362 . S
H880 C886 0.930 . S
H881 C889 0.930 . S
H882 C890 0.930 1_655 S
H883 C891 0.930 . S
H884 C894 0.929 1_565 S
H885 C895 0.930 . S
C886 H880 0.930 . S
C886 C887 1.355 . S
C886 C888 1.415 . S
C887 C886 1.355 . S
C887 C889 1.419 . S
C888 C886 1.415 . S
C888 C893 1.425 . S
C888 C895 1.409 . S
C889 H881 0.930 . S
C889 C887 1.419 . S
C889 C890 1.362 . S
C890 H882 0.930 1_455 S
C890 C889 1.362 . S
C890 C893 1.409 . S
C891 H883 0.930 . S
C891 C892 1.355 1_655 S
C891 C893 1.415 1_655 S
C892 C891 1.355 1_455 S
C892 C894 1.419 . S
C893 C888 1.425 . S
C893 C890 1.409 . S
C893 C891 1.415 1_455 S
C894 H884 0.929 1_545 S
C894 C892 1.419 . S
C894 C895 1.362 . S
C895 H885 0.930 . S
C895 C888 1.409 . S
C895 C894 1.362 . S
H896 C902 0.930 . S
H897 C905 0.930 . S
H898 C906 0.930 . S
H899 C907 0.930 . S
H900 C910 0.930 . S
H901 C911 0.930 . S
C902 H896 0.930 . S
C902 C903 1.355 . S
C902 C904 1.415 . S
C903 C902 1.355 . S
C903 C905 1.419 . S
C904 C902 1.415 . S
C904 C909 1.425 . S
C904 C911 1.409 . S
C905 H897 0.930 . S
C905 C903 1.419 . S
C905 C906 1.362 . S
C906 H898 0.930 . S
C906 C905 1.362 . S
C906 C909 1.409 . S
C907 H899 0.930 . S
C907 C908 1.355 . S
C907 C909 1.415 . S
C908 C907 1.355 . S
C908 C910 1.419 . S
C909 C904 1.425 . S
C909 C906 1.409 . S
C909 C907 1.415 . S
C910 H900 0.930 . S
C910 C908 1.419 . S
C910 C911 1.362 . S
C911 H901 0.930 . S
C911 C904 1.409 . S
C911 C910 1.362 . S
H912 C918 0.930 1_455 S
H913 C921 0.930 . S
H914 C922 0.930 . S
H915 C923 0.930 . S
H916 C926 0.930 . S
H917 C927 0.930 . S
C918 H912 0.930 1_655 S
C918 C919 1.355 1_655 S
C918 C920 1.415 . S
C919 C918 1.355 1_455 S
C919 C921 1.419 1_455 S
C920 C918 1.415 . S
C920 C925 1.425 . S
C920 C927 1.409 . S
C921 H913 0.930 . S
C921 C919 1.419 1_655 S
C921 C922 1.362 . S
C922 H914 0.930 . S
C922 C921 1.362 . S
C922 C925 1.409 . S
C923 H915 0.930 . S
C923 C924 1.355 . S
C923 C925 1.415 . S
C924 C923 1.355 . S
C924 C926 1.419 . S
C925 C920 1.425 . S
C925 C922 1.409 . S
C925 C923 1.415 . S
C926 H916 0.930 . S
C926 C924 1.419 . S
C926 C927 1.362 . S
C927 H917 0.930 . S
C927 C920 1.409 . S
C927 C926 1.362 . S
H928 C934 0.930 . S
H929 C937 0.930 . S
H930 C938 0.930 . S
H931 C939 0.930 . S
H932 C942 0.930 1_545 S
H933 C943 0.930 . S
C934 H928 0.930 . S
C934 C935 1.355 . S
C934 C936 1.415 . S
C935 C934 1.355 . S
C935 C937 1.419 . S
C936 C934 1.415 . S
C936 C941 1.425 . S
C936 C943 1.409 . S
C937 H929 0.930 . S
C937 C935 1.419 . S
C937 C938 1.362 . S
C938 H930 0.930 . S
C938 C937 1.362 . S
C938 C941 1.409 . S
C939 H931 0.930 . S
C939 C940 1.355 . S
C939 C941 1.415 . S
C940 C939 1.355 . S
C940 C942 1.419 . S
C941 C936 1.425 . S
C941 C938 1.409 . S
C941 C939 1.415 . S
C942 H932 0.930 1_565 S
C942 C940 1.419 . S
C942 C943 1.362 . S
C943 H933 0.930 . S
C943 C936 1.409 . S
C943 C942 1.362 . S
H944 C950 0.930 . S
H945 C953 0.930 . S
H946 C954 0.930 . S
H947 C955 0.930 . S
H948 C958 0.930 . S
H949 C959 0.930 . S
C950 H944 0.930 . S
C950 C951 1.355 1_655 S
C950 C952 1.415 . S
C951 C950 1.355 1_455 S
C951 C953 1.419 . S
C952 C950 1.415 . S
C952 C957 1.425 . S
C952 C959 1.409 . S
C953 H945 0.930 . S
C953 C951 1.419 . S
C953 C954 1.362 . S
C954 H946 0.930 . S
C954 C953 1.362 . S
C954 C957 1.409 1_455 S
C955 H947 0.930 . S
C955 C956 1.355 . S
C955 C957 1.415 . S
C956 C955 1.355 . S
C956 C958 1.419 . S
C957 C952 1.425 . S
C957 C954 1.409 1_655 S
C957 C955 1.415 . S
C958 H948 0.930 . S
C958 C956 1.419 . S
C958 C959 1.362 . S
C959 H949 0.930 . S
C959 C952 1.409 . S
C959 C958 1.362 . S
H960 C966 0.930 . S
H961 C969 0.930 . S
H962 C970 0.930 . S
H963 C971 0.930 . S
H964 C974 0.930 . S
H965 C975 0.930 . S
C966 H960 0.930 . S
C966 C967 1.355 . S
C966 C968 1.415 . S
C967 C966 1.355 . S
C967 C969 1.419 . S
C968 C966 1.415 . S
C968 C973 1.425 . S
C968 C975 1.409 . S
C969 H961 0.930 . S
C969 C967 1.419 . S
C969 C970 1.362 . S
C970 H962 0.930 . S
C970 C969 1.362 . S
C970 C973 1.409 . S
C971 H963 0.930 . S
C971 C972 1.355 . S
C971 C973 1.415 . S
C972 C971 1.355 . S
C972 C974 1.419 . S
C973 C968 1.425 . S
C973 C970 1.409 . S
C973 C971 1.415 . S
C974 H964 0.930 . S
C974 C972 1.419 . S
C974 C975 1.362 . S
C975 H965 0.930 . S
C975 C968 1.409 . S
C975 C974 1.362 . S
H976 C982 0.930 . S
H977 C985 0.930 . S
H978 C986 0.930 1_655 S
H979 C987 0.930 . S
H980 C990 0.930 . S
H981 C991 0.930 . S
C982 H976 0.930 . S
C982 C983 1.355 . S
C982 C984 1.415 . S
C983 C982 1.355 . S
C983 C985 1.419 . S
C984 C982 1.415 . S
C984 C989 1.425 . S
C984 C991 1.409 . S
C985 H977 0.930 . S
C985 C983 1.419 . S
C985 C986 1.362 . S
C986 H978 0.930 1_455 S
C986 C985 1.362 . S
C986 C989 1.409 . S
C987 H979 0.930 . S
C987 C988 1.355 1_655 S
C987 C989 1.415 1_655 S
C988 C987 1.355 1_455 S
C988 C990 1.419 . S
C989 C984 1.425 . S
C989 C986 1.409 . S
C989 C987 1.415 1_455 S
C990 H980 0.930 . S
C990 C988 1.419 . S
C990 C991 1.362 . S
C991 H981 0.930 . S
C991 C984 1.409 . S
C991 C990 1.362 . S
H992 C998 0.930 . S
H993 C1001 0.930 . S
H994 C1002 0.930 . S
H995 C1003 0.930 . S
H996 C1006 0.930 . S
H997 C1007 0.930 . S
C998 H992 0.930 . S
C998 C999 1.355 . S
C998 C1000 1.415 . S
C999 C998 1.355 . S
C999 C1001 1.419 . S
C1000 C998 1.415 . S
C1000 C1005 1.425 . S
C1000 C1007 1.409 . S
C1001 H993 0.930 . S
C1001 C999 1.419 . S
C1001 C1002 1.362 . S
C1002 H994 0.930 . S
C1002 C1001 1.362 . S
C1002 C1005 1.409 . S
C1003 H995 0.930 . S
C1003 C1004 1.355 . S
C1003 C1005 1.415 . S
C1004 C1003 1.355 . S
C1004 C1006 1.419 . S
C1005 C1000 1.425 . S
C1005 C1002 1.409 . S
C1005 C1003 1.415 . S
C1006 H996 0.930 . S
C1006 C1004 1.419 . S
C1006 C1007 1.362 . S
C1007 H997 0.930 . S
C1007 C1000 1.409 . S
C1007 C1006 1.362 . S
H1008 C1014 0.930 . S
H1009 C1017 0.930 . S
H1010 C1018 0.930 . S
H1011 C1019 0.930 . S
H1012 C1022 0.930 . S
H1013 C1023 0.930 . S
C1014 H1008 0.930 . S
C1014 C1015 1.355 1_455 S
C1014 C1016 1.415 . S
C1015 C1014 1.355 1_655 S
C1015 C1017 1.419 . S
C1016 C1014 1.415 . S
C1016 C1021 1.425 . S
C1016 C1023 1.409 . S
C1017 H1009 0.930 . S
C1017 C1015 1.419 . S
C1017 C1018 1.362 . S
C1018 H1010 0.930 . S
C1018 C1017 1.362 . S
C1018 C1021 1.409 1_655 S
C1019 H1011 0.930 . S
C1019 C1020 1.355 . S
C1019 C1021 1.415 . S
C1020 C1019 1.355 . S
C1020 C1022 1.419 . S
C1021 C1016 1.425 . S
C1021 C1018 1.409 1_455 S
C1021 C1019 1.415 . S
C1022 H1012 0.930 . S
C1022 C1020 1.419 . S
C1022 C1023 1.362 . S
C1023 H1013 0.930 . S
C1023 C1016 1.409 . S
C1023 C1022 1.362 . S
H1024 C1030 0.930 . S
H1025 C1033 0.930 . S
H1026 C1034 0.930 . S
H1027 C1035 0.930 . S
H1028 C1038 0.930 . S
H1029 C1039 0.930 . S
C1030 H1024 0.930 . S
C1030 C1031 1.355 . S
C1030 C1032 1.415 . S
C1031 C1030 1.355 . S
C1031 C1033 1.419 . S
C1032 C1030 1.415 . S
C1032 C1037 1.425 . S
C1032 C1039 1.409 . S
C1033 H1025 0.930 . S
C1033 C1031 1.419 . S
C1033 C1034 1.362 . S
C1034 H1026 0.930 . S
C1034 C1033 1.362 . S
C1034 C1037 1.409 . S
C1035 H1027 0.930 . S
C1035 C1036 1.355 . S
C1035 C1037 1.415 . S
C1036 C1035 1.355 . S
C1036 C1038 1.419 . S
C1037 C1032 1.425 . S
C1037 C1034 1.409 . S
C1037 C1035 1.415 . S
C1038 H1028 0.930 . S
C1038 C1036 1.419 . S
C1038 C1039 1.362 . S
C1039 H1029 0.930 . S
C1039 C1032 1.409 . S
C1039 C1038 1.362 . S
H1040 C1046 0.930 1_565 S
H1041 C1049 0.930 . S
H1042 C1050 0.930 . S
H1043 C1051 0.930 . S
H1044 C1054 0.930 1_565 S
H1045 C1055 0.930 1_565 S
C1046 H1040 0.930 1_545 S
C1046 C1047 1.355 . S
C1046 C1048 1.415 . S
C1047 C1046 1.355 . S
C1047 C1049 1.419 . S
C1048 C1046 1.415 . S
C1048 C1053 1.425 . S
C1048 C1055 1.409 . S
C1049 H1041 0.930 . S
C1049 C1047 1.419 . S
C1049 C1050 1.362 . S
C1050 H1042 0.930 . S
C1050 C1049 1.362 . S
C1050 C1053 1.409 . S
C1051 H1043 0.930 . S
C1051 C1052 1.355 . S
C1051 C1053 1.415 1_455 S
C1052 C1051 1.355 . S
C1052 C1054 1.419 . S
C1053 C1048 1.425 . S
C1053 C1050 1.409 . S
C1053 C1051 1.415 1_655 S
C1054 H1044 0.930 1_545 S
C1054 C1052 1.419 . S
C1054 C1055 1.362 1_455 S
C1055 H1045 0.930 1_545 S
C1055 C1048 1.409 . S
C1055 C1054 1.362 1_655 S
H1056 C1062 0.930 . S
H1057 C1065 0.930 . S
H1058 C1066 0.930 1_565 S
H1059 C1067 0.930 . S
H1060 C1070 0.930 . S
H1061 C1071 0.930 . S
C1062 H1056 0.930 . S
C1062 C1063 1.355 . S
C1062 C1064 1.415 . S
C1063 C1062 1.355 . S
C1063 C1065 1.419 . S
C1064 C1062 1.415 . S
C1064 C1069 1.425 . S
C1064 C1071 1.409 . S
C1065 H1057 0.930 . S
C1065 C1063 1.419 . S
C1065 C1066 1.362 . S
C1066 H1058 0.930 1_545 S
C1066 C1065 1.362 . S
C1066 C1069 1.409 . S
C1067 H1059 0.930 . S
C1067 C1068 1.355 . S
C1067 C1069 1.415 . S
C1068 C1067 1.355 . S
C1068 C1070 1.419 . S
C1069 C1064 1.425 . S
C1069 C1066 1.409 . S
C1069 C1067 1.415 . S
C1070 H1060 0.930 . S
C1070 C1068 1.419 . S
C1070 C1071 1.362 . S
C1071 H1061 0.930 . S
C1071 C1064 1.409 . S
C1071 C1070 1.362 . S
H1072 C1078 0.930 . S
H1073 C1081 0.930 . S
H1074 C1082 0.930 1_455 S
H1075 C1083 0.930 . S
H1076 C1086 0.930 . S
H1077 C1087 0.930 . S
C1078 H1072 0.930 . S
C1078 C1079 1.355 . S
C1078 C1080 1.415 . S
C1079 C1078 1.355 . S
C1079 C1081 1.419 . S
C1080 C1078 1.415 . S
C1080 C1085 1.425 . S
C1080 C1087 1.409 . S
C1081 H1073 0.930 . S
C1081 C1079 1.419 . S
C1081 C1082 1.362 . S
C1082 H1074 0.930 1_655 S
C1082 C1081 1.362 . S
C1082 C1085 1.409 . S
C1083 H1075 0.930 . S
C1083 C1084 1.355 . S
C1083 C1085 1.415 1_455 S
C1084 C1083 1.355 . S
C1084 C1086 1.419 1_455 S
C1085 C1080 1.425 . S
C1085 C1082 1.409 . S
C1085 C1083 1.415 1_655 S
C1086 H1076 0.930 . S
C1086 C1084 1.419 1_655 S
C1086 C1087 1.362 . S
C1087 H1077 0.930 . S
C1087 C1080 1.409 . S
C1087 C1086 1.362 . S
H1088 C1094 0.930 . S
H1089 C1097 0.930 . S
H1090 C1098 0.930 . S
H1091 C1099 0.930 . S
H1092 C1102 0.930 . S
H1093 C1103 0.930 . S
C1094 H1088 0.930 . S
C1094 C1095 1.355 . S
C1094 C1096 1.415 . S
C1095 C1094 1.355 . S
C1095 C1097 1.419 . S
C1096 C1094 1.415 . S
C1096 C1101 1.425 . S
C1096 C1103 1.409 . S
C1097 H1089 0.930 . S
C1097 C1095 1.419 . S
C1097 C1098 1.362 . S
C1098 H1090 0.930 . S
C1098 C1097 1.362 . S
C1098 C1101 1.409 . S
C1099 H1091 0.930 . S
C1099 C1100 1.355 . S
C1099 C1101 1.415 . S
C1100 C1099 1.355 . S
C1100 C1102 1.419 . S
C1101 C1096 1.425 . S
C1101 C1098 1.409 . S
C1101 C1099 1.415 . S
C1102 H1092 0.930 . S
C1102 C1100 1.419 . S
C1102 C1103 1.362 . S
C1103 H1093 0.930 . S
C1103 C1096 1.409 . S
C1103 C1102 1.362 . S
H1104 C1110 0.930 . S
H1105 C1113 0.930 . S
H1106 C1114 0.930 . S
H1107 C1115 0.930 . S
H1108 C1118 0.930 . S
H1109 C1119 0.934 . S
C1110 H1104 0.930 . S
C1110 C1111 1.355 . S
C1110 C1112 1.415 1_655 S
C1111 C1110 1.355 . S
C1111 C1113 1.419 1_655 S
C1112 C1110 1.415 1_455 S
C1112 C1117 1.425 . S
C1112 C1119 1.408 1_455 S
C1113 H1105 0.930 . S
C1113 C1111 1.419 1_455 S
C1113 C1114 1.362 . S
C1114 H1106 0.930 . S
C1114 C1113 1.362 . S
C1114 C1117 1.409 . S
C1115 H1107 0.930 . S
C1115 C1116 1.355 . S
C1115 C1117 1.415 . S
C1116 C1115 1.355 . S
C1116 C1118 1.419 . S
C1117 C1112 1.425 . S
C1117 C1114 1.409 . S
C1117 C1115 1.415 . S
C1118 H1108 0.930 . S
C1118 C1116 1.419 . S
C1118 C1119 1.360 1_455 S
C1119 H1109 0.934 . S
C1119 C1112 1.408 1_655 S
C1119 C1118 1.360 1_655 S
H1120 C1126 0.930 . S
H1121 C1129 0.930 1_545 S
H1122 C1130 0.930 1_545 S
H1123 C1131 0.930 . S
H1124 C1134 0.930 . S
H1125 C1135 0.930 . S
C1126 H1120 0.930 . S
C1126 C1127 1.355 . S
C1126 C1128 1.415 . S
C1127 C1126 1.355 . S
C1127 C1129 1.419 . S
C1128 C1126 1.415 . S
C1128 C1133 1.425 . S
C1128 C1135 1.409 . S
C1129 H1121 0.930 1_565 S
C1129 C1127 1.419 . S
C1129 C1130 1.362 . S
C1130 H1122 0.930 1_565 S
C1130 C1129 1.362 . S
C1130 C1133 1.409 . S
C1131 H1123 0.930 . S
C1131 C1132 1.355 . S
C1131 C1133 1.415 . S
C1132 C1131 1.355 . S
C1132 C1134 1.419 . S
C1133 C1128 1.425 . S
C1133 C1130 1.409 . S
C1133 C1131 1.415 . S
C1134 H1124 0.930 . S
C1134 C1132 1.419 . S
C1134 C1135 1.362 . S
C1135 H1125 0.930 . S
C1135 C1128 1.409 . S
C1135 C1134 1.362 . S
H1136 C1142 0.930 . S
H1137 C1145 0.930 . S
H1138 C1146 0.930 . S
H1139 C1147 0.930 . S
H1140 C1150 0.930 . S
H1141 C1151 0.930 . S
C1142 H1136 0.930 . S
C1142 C1143 1.355 1_455 S
C1142 C1144 1.415 . S
C1143 C1142 1.355 1_655 S
C1143 C1145 1.419 . S
C1144 C1142 1.415 . S
C1144 C1149 1.425 . S
C1144 C1151 1.409 . S
C1145 H1137 0.930 . S
C1145 C1143 1.419 . S
C1145 C1146 1.362 . S
C1146 H1138 0.930 . S
C1146 C1145 1.362 . S
C1146 C1149 1.409 1_655 S
C1147 H1139 0.930 . S
C1147 C1148 1.355 . S
C1147 C1149 1.415 . S
C1148 C1147 1.355 . S
C1148 C1150 1.419 . S
C1149 C1144 1.425 . S
C1149 C1146 1.409 1_455 S
C1149 C1147 1.415 . S
C1150 H1140 0.930 . S
C1150 C1148 1.419 . S
C1150 C1151 1.362 . S
C1151 H1141 0.930 . S
C1151 C1144 1.409 . S
C1151 C1150 1.362 . S
H1152 C1158 0.930 . S
H1153 C1161 0.930 . S
H1154 C1162 0.930 . S
H1155 C1163 0.930 . S
H1156 C1166 0.930 . S
H1157 C1167 0.930 . S
C1158 H1152 0.930 . S
C1158 C1159 1.355 . S
C1158 C1160 1.415 . S
C1159 C1158 1.355 . S
C1159 C1161 1.419 . S
C1160 C1158 1.415 . S
C1160 C1165 1.425 . S
C1160 C1167 1.409 . S
C1161 H1153 0.930 . S
C1161 C1159 1.419 . S
C1161 C1162 1.362 . S
C1162 H1154 0.930 . S
C1162 C1161 1.362 . S
C1162 C1165 1.409 . S
C1163 H1155 0.930 . S
C1163 C1164 1.355 . S
C1163 C1165 1.415 . S
C1164 C1163 1.355 . S
C1164 C1166 1.419 . S
C1165 C1160 1.425 . S
C1165 C1162 1.409 . S
C1165 C1163 1.415 . S
C1166 H1156 0.930 . S
C1166 C1164 1.419 . S
C1166 C1167 1.362 . S
C1167 H1157 0.930 . S
C1167 C1160 1.409 . S
C1167 C1166 1.362 . S
H1168 C1174 0.930 . S
H1169 C1177 0.930 . S
H1170 C1178 0.930 . S
H1171 C1179 0.930 . S
H1172 C1182 0.930 . S
H1173 C1183 0.930 1_455 S
C1174 H1168 0.930 . S
C1174 C1175 1.355 . S
C1174 C1176 1.415 1_455 S
C1175 C1174 1.355 . S
C1175 C1177 1.419 1_455 S
C1176 C1174 1.415 1_655 S
C1176 C1181 1.425 . S
C1176 C1183 1.409 . S
C1177 H1169 0.930 . S
C1177 C1175 1.419 1_655 S
C1177 C1178 1.362 . S
C1178 H1170 0.930 . S
C1178 C1177 1.362 . S
C1178 C1181 1.409 . S
C1179 H1171 0.930 . S
C1179 C1180 1.355 . S
C1179 C1181 1.415 . S
C1180 C1179 1.355 . S
C1180 C1182 1.419 . S
C1181 C1176 1.425 . S
C1181 C1178 1.409 . S
C1181 C1179 1.415 . S
C1182 H1172 0.930 . S
C1182 C1180 1.419 . S
C1182 C1183 1.362 . S
C1183 H1173 0.930 1_655 S
C1183 C1176 1.409 . S
C1183 C1182 1.362 . S
H1184 C1190 0.930 . S
H1185 C1193 0.930 . S
H1186 C1194 0.930 . S
H1187 C1195 0.930 . S
H1188 C1198 0.930 . S
H1189 C1199 0.930 . S
C1190 H1184 0.930 . S
C1190 C1191 1.355 . S
C1190 C1192 1.415 . S
C1191 C1190 1.355 . S
C1191 C1193 1.419 . S
C1192 C1190 1.415 . S
C1192 C1197 1.425 . S
C1192 C1199 1.409 . S
C1193 H1185 0.930 . S
C1193 C1191 1.419 . S
C1193 C1194 1.362 . S
C1194 H1186 0.930 . S
C1194 C1193 1.362 . S
C1194 C1197 1.409 . S
C1195 H1187 0.930 . S
C1195 C1196 1.355 . S
C1195 C1197 1.415 . S
C1196 C1195 1.355 . S
C1196 C1198 1.419 . S
C1197 C1192 1.425 . S
C1197 C1194 1.409 . S
C1197 C1195 1.415 . S
C1198 H1188 0.930 . S
C1198 C1196 1.419 . S
C1198 C1199 1.362 . S
C1199 H1189 0.930 . S
C1199 C1192 1.409 . S
C1199 C1198 1.362 . S
H1200 C1206 0.930 . S
H1201 C1209 0.930 . S
H1202 C1210 0.930 . S
H1203 C1211 0.930 . S
H1204 C1214 0.930 . S
H1205 C1215 0.930 . S
C1206 H1200 0.930 . S
C1206 C1207 1.355 . S
C1206 C1208 1.415 . S
C1207 C1206 1.355 . S
C1207 C1209 1.419 . S
C1208 C1206 1.415 . S
C1208 C1213 1.425 . S
C1208 C1215 1.409 . S
C1209 H1201 0.930 . S
C1209 C1207 1.419 . S
C1209 C1210 1.362 1_655 S
C1210 H1202 0.930 . S
C1210 C1209 1.362 1_455 S
C1210 C1213 1.409 1_455 S
C1211 H1203 0.930 . S
C1211 C1212 1.355 . S
C1211 C1213 1.415 1_455 S
C1212 C1211 1.355 . S
C1212 C1214 1.419 1_455 S
C1213 C1208 1.425 . S
C1213 C1210 1.409 1_655 S
C1213 C1211 1.415 1_655 S
C1214 H1204 0.930 . S
C1214 C1212 1.419 1_655 S
C1214 C1215 1.362 . S
C1215 H1205 0.930 . S
C1215 C1208 1.409 . S
C1215 C1214 1.362 . S
H1216 C1222 0.930 . S
H1217 C1225 0.930 . S
H1218 C1226 0.930 . S
H1219 C1227 0.930 . S
H1220 C1230 0.930 . S
H1221 C1231 0.930 . S
C1222 H1216 0.930 . S
C1222 C1223 1.355 . S
C1222 C1224 1.415 . S
C1223 C1222 1.355 . S
C1223 C1225 1.419 . S
C1224 C1222 1.415 . S
C1224 C1229 1.425 . S
C1224 C1231 1.409 . S
C1225 H1217 0.930 . S
C1225 C1223 1.419 . S
C1225 C1226 1.362 . S
C1226 H1218 0.930 . S
C1226 C1225 1.362 . S
C1226 C1229 1.409 . S
C1227 H1219 0.930 . S
C1227 C1228 1.355 . S
C1227 C1229 1.415 . S
C1228 C1227 1.355 . S
C1228 C1230 1.419 . S
C1229 C1224 1.425 . S
C1229 C1226 1.409 . S
C1229 C1227 1.415 . S
C1230 H1220 0.930 . S
C1230 C1228 1.419 . S
C1230 C1231 1.362 . S
C1231 H1221 0.930 . S
C1231 C1224 1.409 . S
C1231 C1230 1.362 . S
H1232 C1238 0.930 . S
H1233 C1241 0.930 . S
H1234 C1242 0.930 . S
H1235 C1243 0.930 . S
H1236 C1246 0.930 . S
H1237 C1247 0.930 . S
C1238 H1232 0.930 . S
C1238 C1239 1.355 . S
C1238 C1240 1.415 . S
C1239 C1238 1.355 . S
C1239 C1241 1.419 . S
C1240 C1238 1.415 . S
C1240 C1245 1.425 . S
C1240 C1247 1.409 1_455 S
C1241 H1233 0.930 . S
C1241 C1239 1.419 . S
C1241 C1242 1.362 . S
C1242 H1234 0.930 . S
C1242 C1241 1.362 . S
C1242 C1245 1.409 . S
C1243 H1235 0.930 . S
C1243 C1244 1.355 1_455 S
C1243 C1245 1.415 . S
C1244 C1243 1.355 1_655 S
C1244 C1246 1.419 . S
C1245 C1240 1.425 . S
C1245 C1242 1.409 . S
C1245 C1243 1.415 . S
C1246 H1236 0.930 . S
C1246 C1244 1.419 . S
C1246 C1247 1.362 . S
C1247 H1237 0.930 . S
C1247 C1240 1.409 1_655 S
C1247 C1246 1.362 . S
H1248 C1254 0.930 . S
H1249 C1257 0.930 . S
H1250 C1258 0.930 . S
H1251 C1259 0.930 . S
H1252 C1262 0.930 . S
H1253 C1263 0.930 . S
C1254 H1248 0.930 . S
C1254 C1255 1.355 . S
C1254 C1256 1.415 . S
C1255 C1254 1.355 . S
C1255 C1257 1.419 . S
C1256 C1254 1.415 . S
C1256 C1261 1.425 . S
C1256 C1263 1.409 . S
C1257 H1249 0.930 . S
C1257 C1255 1.419 . S
C1257 C1258 1.362 . S
C1258 H1250 0.930 . S
C1258 C1257 1.362 . S
C1258 C1261 1.409 . S
C1259 H1251 0.930 . S
C1259 C1260 1.355 . S
C1259 C1261 1.415 . S
C1260 C1259 1.355 . S
C1260 C1262 1.419 . S
C1261 C1256 1.425 . S
C1261 C1258 1.409 . S
C1261 C1259 1.415 . S
C1262 H1252 0.930 . S
C1262 C1260 1.419 . S
C1262 C1263 1.362 . S
C1263 H1253 0.930 . S
C1263 C1256 1.409 . S
C1263 C1262 1.362 . S
H1264 C1270 0.930 . S
H1265 C1273 0.930 . S
H1266 C1274 0.930 . S
H1267 C1275 0.930 . S
H1268 C1278 0.930 . S
H1269 C1279 0.930 . S
C1270 H1264 0.930 . S
C1270 C1271 1.355 . S
C1270 C1272 1.415 . S
C1271 C1270 1.355 . S
C1271 C1273 1.419 . S
C1272 C1270 1.415 . S
C1272 C1277 1.425 . S
C1272 C1279 1.409 . S
C1273 H1265 0.930 . S
C1273 C1271 1.419 . S
C1273 C1274 1.362 . S
C1274 H1266 0.930 . S
C1274 C1273 1.362 . S
C1274 C1277 1.409 . S
C1275 H1267 0.930 . S
C1275 C1276 1.355 . S
C1275 C1277 1.415 1_655 S
C1276 C1275 1.355 . S
C1276 C1278 1.419 . S
C1277 C1272 1.425 . S
C1277 C1274 1.409 . S
C1277 C1275 1.415 1_455 S
C1278 H1268 0.930 . S
C1278 C1276 1.419 . S
C1278 C1279 1.362 1_655 S
C1279 H1269 0.930 . S
C1279 C1272 1.409 . S
C1279 C1278 1.362 1_455 S
H1280 C1286 0.930 . S
H1281 C1289 0.930 . S
H1282 C1290 0.930 . S
H1283 C1291 0.930 . S
H1284 C1294 0.930 . S
H1285 C1295 0.930 . S
C1286 H1280 0.930 . S
C1286 C1287 1.355 . S
C1286 C1288 1.415 . S
C1287 C1286 1.355 . S
C1287 C1289 1.419 . S
C1288 C1286 1.415 . S
C1288 C1293 1.425 . S
C1288 C1295 1.409 . S
C1289 H1281 0.930 . S
C1289 C1287 1.419 . S
C1289 C1290 1.362 . S
C1290 H1282 0.930 . S
C1290 C1289 1.362 . S
C1290 C1293 1.409 . S
C1291 H1283 0.930 . S
C1291 C1292 1.355 . S
C1291 C1293 1.415 . S
C1292 C1291 1.355 . S
C1292 C1294 1.419 . S
C1293 C1288 1.425 . S
C1293 C1290 1.409 . S
C1293 C1291 1.415 . S
C1294 H1284 0.930 . S
C1294 C1292 1.419 . S
C1294 C1295 1.362 . S
C1295 H1285 0.930 . S
C1295 C1288 1.409 . S
C1295 C1294 1.362 . S
H1296 C1302 0.930 . S
H1297 C1305 0.930 . S
H1298 C1306 0.930 . S
H1299 C1307 0.930 . S
H1300 C1310 0.930 . S
H1301 C1311 0.930 . S
C1302 H1296 0.930 . S
C1302 C1303 1.355 . S
C1302 C1304 1.415 . S
C1303 C1302 1.355 . S
C1303 C1305 1.419 1_565 S
C1304 C1302 1.415 . S
C1304 C1309 1.425 1_665 S
C1304 C1311 1.409 . S
C1305 H1297 0.930 . S
C1305 C1303 1.419 1_545 S
C1305 C1306 1.362 1_655 S
C1306 H1298 0.930 . S
C1306 C1305 1.362 1_455 S
C1306 C1309 1.409 . S
C1307 H1299 0.930 . S
C1307 C1308 1.355 . S
C1307 C1309 1.415 . S
C1308 C1307 1.355 . S
C1308 C1310 1.419 1_545 S
C1309 C1304 1.425 1_445 S
C1309 C1306 1.409 . S
C1309 C1307 1.415 . S
C1310 H1300 0.930 . S
C1310 C1308 1.419 1_565 S
C1310 C1311 1.362 1_455 S
C1311 H1301 0.930 . S
C1311 C1304 1.409 . S
C1311 C1310 1.362 1_655 S
H1312 C1318 0.917 1_545 S
H1313 C1321 0.930 . S
H1314 C1322 0.930 . S
H1315 C1323 0.918 1_565 S
H1316 C1326 0.930 . S
H1317 C1327 0.930 . S
C1318 H1312 0.917 1_565 S
C1318 C1319 1.369 . S
C1318 C1320 1.412 1_565 S
C1319 C1318 1.369 . S
C1319 C1321 1.419 . S
C1320 C1318 1.412 1_545 S
C1320 C1325 1.425 1_545 S
C1320 C1327 1.409 . S
C1321 H1313 0.930 . S
C1321 C1319 1.419 . S
C1321 C1322 1.362 . S
C1322 H1314 0.930 . S
C1322 C1321 1.362 . S
C1322 C1325 1.409 . S
C1323 H1315 0.918 1_545 S
C1323 C1324 1.369 . S
C1323 C1325 1.412 1_545 S
C1324 C1323 1.369 . S
C1324 C1326 1.419 . S
C1325 C1320 1.425 1_565 S
C1325 C1322 1.409 . S
C1325 C1323 1.412 1_565 S
C1326 H1316 0.930 . S
C1326 C1324 1.419 . S
C1326 C1327 1.362 . S
C1327 H1317 0.930 . S
C1327 C1320 1.409 . S
C1327 C1326 1.362 . S
H1328 C1334 0.930 . S
H1329 C1337 0.930 . S
H1330 C1338 0.930 . S
H1331 C1339 0.930 . S
H1332 C1342 0.930 . S
H1333 C1343 0.930 . S
C1334 H1328 0.930 . S
C1334 C1335 1.355 . S
C1334 C1336 1.415 . S
C1335 C1334 1.355 . S
C1335 C1337 1.419 1_455 S
C1336 C1334 1.415 . S
C1336 C1341 1.425 1_455 S
C1336 C1343 1.409 . S
C1337 H1329 0.930 . S
C1337 C1335 1.419 1_655 S
C1337 C1338 1.362 . S
C1338 H1330 0.930 . S
C1338 C1337 1.362 . S
C1338 C1341 1.409 . S
C1339 H1331 0.930 . S
C1339 C1340 1.355 . S
C1339 C1341 1.415 . S
C1340 C1339 1.355 . S
C1340 C1342 1.419 1_655 S
C1341 C1336 1.425 1_655 S
C1341 C1338 1.409 . S
C1341 C1339 1.415 . S
C1342 H1332 0.930 . S
C1342 C1340 1.419 1_455 S
C1342 C1343 1.362 . S
C1343 H1333 0.930 . S
C1343 C1336 1.409 . S
C1343 C1342 1.362 . S
H1344 C1350 0.930 . S
H1345 C1353 0.930 . S
H1346 C1354 0.930 . S
H1347 C1355 0.930 . S
H1348 C1358 0.930 . S
H1349 C1359 0.930 . S
C1350 H1344 0.930 . S
C1350 C1351 1.355 . S
C1350 C1352 1.415 . S
C1351 C1350 1.355 . S
C1351 C1353 1.419 . S
C1352 C1350 1.415 . S
C1352 C1357 1.425 . S
C1352 C1359 1.409 . S
C1353 H1345 0.930 . S
C1353 C1351 1.419 . S
C1353 C1354 1.362 . S
C1354 H1346 0.930 . S
C1354 C1353 1.362 . S
C1354 C1357 1.409 . S
C1355 H1347 0.930 . S
C1355 C1356 1.355 . S
C1355 C1357 1.415 . S
C1356 C1355 1.355 . S
C1356 C1358 1.419 . S
C1357 C1352 1.425 . S
C1357 C1354 1.409 . S
C1357 C1355 1.415 . S
C1358 H1348 0.930 . S
C1358 C1356 1.419 . S
C1358 C1359 1.362 . S
C1359 H1349 0.930 . S
C1359 C1352 1.409 . S
C1359 C1358 1.362 . S
H1360 C1366 0.930 . S
H1361 C1369 0.930 . S
H1362 C1370 0.930 . S
H1363 C1371 0.930 . S
H1364 C1374 0.930 . S
H1365 C1375 0.930 . S
C1366 H1360 0.930 . S
C1366 C1367 1.355 . S
C1366 C1368 1.415 . S
C1367 C1366 1.355 . S
C1367 C1369 1.419 1_565 S
C1368 C1366 1.415 . S
C1368 C1373 1.425 1_565 S
C1368 C1375 1.409 . S
C1369 H1361 0.930 . S
C1369 C1367 1.419 1_545 S
C1369 C1370 1.362 . S
C1370 H1362 0.930 . S
C1370 C1369 1.362 . S
C1370 C1373 1.409 . S
C1371 H1363 0.930 . S
C1371 C1372 1.355 . S
C1371 C1373 1.415 . S
C1372 C1371 1.355 . S
C1372 C1374 1.419 1_545 S
C1373 C1368 1.425 1_545 S
C1373 C1370 1.409 . S
C1373 C1371 1.415 . S
C1374 H1364 0.930 . S
C1374 C1372 1.419 1_565 S
C1374 C1375 1.362 . S
C1375 H1365 0.930 . S
C1375 C1368 1.409 . S
C1375 C1374 1.362 . S
H1376 C1382 0.930 . S
H1377 C1385 0.930 . S
H1378 C1386 0.930 . S
H1379 C1387 0.930 . S
H1380 C1390 0.930 . S
H1381 C1391 0.930 . S
C1382 H1376 0.930 . S
C1382 C1383 1.355 1_655 S
C1382 C1384 1.415 . S
C1383 C1382 1.355 1_455 S
C1383 C1385 1.419 . S
C1384 C1382 1.415 . S
C1384 C1389 1.425 1_655 S
C1384 C1391 1.409 . S
C1385 H1377 0.930 . S
C1385 C1383 1.419 . S
C1385 C1386 1.362 . S
C1386 H1378 0.930 . S
C1386 C1385 1.362 . S
C1386 C1389 1.409 . S
C1387 H1379 0.930 . S
C1387 C1388 1.355 1_455 S
C1387 C1389 1.415 . S
C1388 C1387 1.355 1_655 S
C1388 C1390 1.419 . S
C1389 C1384 1.425 1_455 S
C1389 C1386 1.409 . S
C1389 C1387 1.415 . S
C1390 H1380 0.930 . S
C1390 C1388 1.419 . S
C1390 C1391 1.362 . S
C1391 H1381 0.930 . S
C1391 C1384 1.409 . S
C1391 C1390 1.362 . S
H1392 C1398 0.930 . S
H1393 C1401 0.930 . S
H1394 C1402 0.906 1_556 S
H1395 C1403 0.930 . S
H1396 C1406 0.930 . S
H1397 C1407 0.906 1_554 S
C1398 H1392 0.930 . S
C1398 C1399 1.355 . S
C1398 C1400 1.415 . S
C1399 C1398 1.355 . S
C1399 C1401 1.419 . S
C1400 C1398 1.415 . S
C1400 C1405 1.425 1_554 S
C1400 C1407 1.409 1_554 S
C1401 H1393 0.930 . S
C1401 C1399 1.419 . S
C1401 C1402 1.362 . S
C1402 H1394 0.906 1_554 S
C1402 C1401 1.362 . S
C1402 C1405 1.409 1_554 S
C1403 H1395 0.930 . S
C1403 C1404 1.355 . S
C1403 C1405 1.415 . S
C1404 C1403 1.355 . S
C1404 C1406 1.419 . S
C1405 C1400 1.425 1_556 S
C1405 C1402 1.409 1_556 S
C1405 C1403 1.415 . S
C1406 H1396 0.930 . S
C1406 C1404 1.419 . S
C1406 C1407 1.362 . S
C1407 H1397 0.906 1_556 S
C1407 C1400 1.409 1_556 S
C1407 C1406 1.362 . S
H1408 C1414 0.930 . S
H1409 C1417 0.930 . S
H1410 C1418 0.956 . S
H1411 C1419 0.930 . S
H1412 C1422 0.930 . S
H1413 C1423 0.957 . S
C1414 H1408 0.930 . S
C1414 C1415 1.355 . S
C1414 C1416 1.415 . S
C1415 C1414 1.355 . S
C1415 C1417 1.419 1_455 S
C1416 C1414 1.415 . S
C1416 C1421 1.425 1_456 S
C1416 C1423 1.433 . S
C1417 H1409 0.930 . S
C1417 C1415 1.419 1_655 S
C1417 C1418 1.316 1_556 S
C1418 H1410 0.956 . S
C1418 C1417 1.316 1_554 S
C1418 C1421 1.432 . S
C1419 H1411 0.930 . S
C1419 C1420 1.355 . S
C1419 C1421 1.415 . S
C1420 C1419 1.355 . S
C1420 C1422 1.419 1_655 S
C1421 C1416 1.425 1_654 S
C1421 C1418 1.432 . S
C1421 C1419 1.415 . S
C1422 H1412 0.930 . S
C1422 C1420 1.419 1_455 S
C1422 C1423 1.315 1_554 S
C1423 H1413 0.957 . S
C1423 C1416 1.433 . S
C1423 C1422 1.315 1_556 S
H1424 C1430 0.930 . S
H1425 C1433 0.930 . S
H1426 C1434 0.930 . S
H1427 C1435 0.930 . S
H1428 C1438 0.930 . S
H1429 C1439 0.930 . S
C1430 H1424 0.930 . S
C1430 C1431 1.355 . S
C1430 C1432 1.415 . S
C1431 C1430 1.355 . S
C1431 C1433 1.419 . S
C1432 C1430 1.415 . S
C1432 C1437 1.425 . S
C1432 C1439 1.409 . S
C1433 H1425 0.930 . S
C1433 C1431 1.419 . S
C1433 C1434 1.362 . S
C1434 H1426 0.930 . S
C1434 C1433 1.362 . S
C1434 C1437 1.409 . S
C1435 H1427 0.930 . S
C1435 C1436 1.355 . S
C1435 C1437 1.415 . S
C1436 C1435 1.355 . S
C1436 C1438 1.419 . S
C1437 C1432 1.425 . S
C1437 C1434 1.409 . S
C1437 C1435 1.415 . S
C1438 H1428 0.930 . S
C1438 C1436 1.419 . S
C1438 C1439 1.362 . S
C1439 H1429 0.930 . S
C1439 C1432 1.409 . S
C1439 C1438 1.362 . S
H1440 C1446 0.930 . S
H1441 C1449 0.930 . S
H1442 C1450 0.930 1_554 S
H1443 C1451 0.930 . S
H1444 C1454 0.930 . S
H1445 C1455 0.930 1_556 S
C1446 H1440 0.930 . S
C1446 C1447 1.355 . S
C1446 C1448 1.415 . S
C1447 C1446 1.355 . S
C1447 C1449 1.419 . S
C1448 C1446 1.415 . S
C1448 C1453 1.425 1_556 S
C1448 C1455 1.409 1_556 S
C1449 H1441 0.930 . S
C1449 C1447 1.419 . S
C1449 C1450 1.362 . S
C1450 H1442 0.930 1_556 S
C1450 C1449 1.362 . S
C1450 C1453 1.409 1_556 S
C1451 H1443 0.930 . S
C1451 C1452 1.355 . S
C1451 C1453 1.415 . S
C1452 C1451 1.355 . S
C1452 C1454 1.419 . S
C1453 C1448 1.425 1_554 S
C1453 C1450 1.409 1_554 S
C1453 C1451 1.415 . S
C1454 H1444 0.930 . S
C1454 C1452 1.419 . S
C1454 C1455 1.362 . S
C1455 H1445 0.930 1_554 S
C1455 C1448 1.409 1_554 S
C1455 C1454 1.362 . S
H1456 C1462 0.930 . S
H1457 C1465 0.930 . S
H1458 C1466 0.930 . S
H1459 C1467 0.930 . S
H1460 C1470 0.930 . S
H1461 C1471 0.930 . S
C1462 H1456 0.930 . S
C1462 C1463 1.355 . S
C1462 C1464 1.415 . S
C1463 C1462 1.355 . S
C1463 C1465 1.419 . S
C1464 C1462 1.415 . S
C1464 C1469 1.425 . S
C1464 C1471 1.409 . S
C1465 H1457 0.930 . S
C1465 C1463 1.419 . S
C1465 C1466 1.362 . S
C1466 H1458 0.930 . S
C1466 C1465 1.362 . S
C1466 C1469 1.409 . S
C1467 H1459 0.930 . S
C1467 C1468 1.355 . S
C1467 C1469 1.415 . S
C1468 C1467 1.355 . S
C1468 C1470 1.419 . S
C1469 C1464 1.425 . S
C1469 C1466 1.409 . S
C1469 C1467 1.415 . S
C1470 H1460 0.930 . S
C1470 C1468 1.419 . S
C1470 C1471 1.362 . S
C1471 H1461 0.930 . S
C1471 C1464 1.409 . S
C1471 C1470 1.362 . S
H1472 C1478 0.930 . S
H1473 C1481 0.930 . S
H1474 C1482 0.930 . S
H1475 C1483 0.930 . S
H1476 C1486 0.930 . S
H1477 C1487 0.930 . S
C1478 H1472 0.930 . S
C1478 C1479 1.355 . S
C1478 C1480 1.415 1_545 S
C1479 C1478 1.355 . S
C1479 C1481 1.419 . S
C1480 C1478 1.415 1_565 S
C1480 C1485 1.425 1_566 S
C1480 C1487 1.409 . S
C1481 H1473 0.930 . S
C1481 C1479 1.419 . S
C1481 C1482 1.362 1_556 S
C1482 H1474 0.930 . S
C1482 C1481 1.362 1_554 S
C1482 C1485 1.409 . S
C1483 H1475 0.930 . S
C1483 C1484 1.355 . S
C1483 C1485 1.415 1_565 S
C1484 C1483 1.355 . S
C1484 C1486 1.419 . S
C1485 C1480 1.425 1_544 S
C1485 C1482 1.409 . S
C1485 C1483 1.415 1_545 S
C1486 H1476 0.930 . S
C1486 C1484 1.419 . S
C1486 C1487 1.362 1_554 S
C1487 H1477 0.930 . S
C1487 C1480 1.409 . S
C1487 C1486 1.362 1_556 S
H1488 C1494 0.930 . S
H1489 C1497 0.930 . S
H1490 C1498 0.930 . S
H1491 C1499 0.930 . S
H1492 C1502 0.930 . S
H1493 C1503 0.930 . S
C1494 H1488 0.930 . S
C1494 C1495 1.355 . S
C1494 C1496 1.415 . S
C1495 C1494 1.355 . S
C1495 C1497 1.419 . S
C1496 C1494 1.415 . S
C1496 C1501 1.425 . S
C1496 C1503 1.409 . S
C1497 H1489 0.930 . S
C1497 C1495 1.419 . S
C1497 C1498 1.362 . S
C1498 H1490 0.930 . S
C1498 C1497 1.362 . S
C1498 C1501 1.409 . S
C1499 H1491 0.930 . S
C1499 C1500 1.355 . S
C1499 C1501 1.415 . S
C1500 C1499 1.355 . S
C1500 C1502 1.419 . S
C1501 C1496 1.425 . S
C1501 C1498 1.409 . S
C1501 C1499 1.415 . S
C1502 H1492 0.930 . S
C1502 C1500 1.419 . S
C1502 C1503 1.362 . S
C1503 H1493 0.930 . S
C1503 C1496 1.409 . S
C1503 C1502 1.362 . S
H1504 C1510 0.930 . S
H1505 C1513 0.930 . S
H1506 C1514 0.930 . S
H1507 C1515 0.930 . S
H1508 C1518 0.930 . S
H1509 C1519 0.930 . S
C1510 H1504 0.930 . S
C1510 C1511 1.355 . S
C1510 C1512 1.415 . S
C1511 C1510 1.355 . S
C1511 C1513 1.419 . S
C1512 C1510 1.415 . S
C1512 C1517 1.425 . S
C1512 C1519 1.409 . S
C1513 H1505 0.930 . S
C1513 C1511 1.419 . S
C1513 C1514 1.362 . S
C1514 H1506 0.930 . S
C1514 C1513 1.362 . S
C1514 C1517 1.409 . S
C1515 H1507 0.930 . S
C1515 C1516 1.355 . S
C1515 C1517 1.415 . S
C1516 C1515 1.355 . S
C1516 C1518 1.419 . S
C1517 C1512 1.425 . S
C1517 C1514 1.409 . S
C1517 C1515 1.415 . S
C1518 H1508 0.930 . S
C1518 C1516 1.419 . S
C1518 C1519 1.362 . S
C1519 H1509 0.930 . S
C1519 C1512 1.409 . S
C1519 C1518 1.362 . S
H1520 C1526 0.930 . S
H1521 C1529 0.930 . S
H1522 C1530 0.930 . S
H1523 C1531 0.930 . S
H1524 C1534 0.930 . S
H1525 C1535 0.930 . S
C1526 H1520 0.930 . S
C1526 C1527 1.355 . S
C1526 C1528 1.415 . S
C1527 C1526 1.355 . S
C1527 C1529 1.419 . S
C1528 C1526 1.415 . S
C1528 C1533 1.425 . S
C1528 C1535 1.409 . S
C1529 H1521 0.930 . S
C1529 C1527 1.419 . S
C1529 C1530 1.362 . S
C1530 H1522 0.930 . S
C1530 C1529 1.362 . S
C1530 C1533 1.409 . S
C1531 H1523 0.930 . S
C1531 C1532 1.355 . S
C1531 C1533 1.415 . S
C1532 C1531 1.355 . S
C1532 C1534 1.419 . S
C1533 C1528 1.425 . S
C1533 C1530 1.409 . S
C1533 C1531 1.415 . S
C1534 H1524 0.930 . S
C1534 C1532 1.419 . S
C1534 C1535 1.362 . S
C1535 H1525 0.930 . S
C1535 C1528 1.409 . S
C1535 C1534 1.362 . S
C519 C16 0.891 . S
C524 C404 0.891 . S
C535 C20 0.940 1_655 S
C540 C400 0.932 . S
C551 C48 0.892 . S
C556 C436 0.892 . S
C567 C52 0.949 1_655 S
C572 C432 0.949 . S
C583 C464 0.886 . S
C588 C84 0.886 . S
C599 C80 0.897 1_455 S
C604 C468 0.888 . S
C615 C116 0.927 . S
C620 C496 0.927 . S
C631 C112 0.919 1_455 S
C636 C500 0.919 . S
C647 C276 0.910 . S
C652 C144 0.902 . S
C663 C272 0.918 . S
C668 C148 0.918 1_655 S
C679 C308 0.947 . S
C684 C176 0.947 . S
C695 C304 0.947 . S
C700 C180 0.947 1_655 S
C711 C336 0.921 . S
C716 C212 0.913 . S
C727 C208 0.947 1_455 S
C732 C340 0.947 . S
C743 C368 0.914 . S
C748 C244 0.914 . S
C759 C240 0.910 1_455 S
C764 C372 0.910 . S
C775 C23 1.577 1_565 S
C780 C403 1.577 . S
C791 C19 1.626 1_655 S
C796 C407 1.626 . S
C807 C55 1.613 . S
C812 C435 1.613 . S
C823 C439 1.593 . S
C828 C51 1.593 1_665 S
C839 C471 1.569 . S
C844 C83 1.569 1_545 S
C855 C467 1.601 . S
C860 C87 1.601 1_455 S
C871 C503 1.621 . S
C876 C115 1.621 . S
C887 C499 1.622 . S
C892 C119 1.622 1_445 S
C903 C151 1.624 . S
C908 C275 1.624 . S
C919 C147 1.620 . S
C924 C279 1.620 1_565 S
C935 C183 1.595 . S
C940 C307 1.595 1_565 S
C951 C179 1.569 . S
C956 C311 1.569 . S
C967 C343 1.590 . S
C972 C211 1.590 . S
C983 C339 1.627 1_545 S
C988 C215 1.627 1_455 S
C999 C375 1.608 1_545 S
C1004 C243 1.608 . S
C1015 C247 1.608 . S
C1020 C371 1.608 . S
C1031 C22 1.953 . S
C1036 C305 1.942 . S
C1047 C310 1.969 . S
C1052 C17 1.964 . S
C1063 C273 1.936 . S
C1068 C54 1.951 . S
C1079 C278 1.950 . S
C1084 C49 1.924 . S
C1095 C373 1.971 . S
C1100 C82 1.982 . S
C1111 C85 1.927 . S
C1116 C370 1.950 . S
C1127 C114 1.990 . S
C1132 C341 1.946 . S
C1143 C117 1.956 . S
C1148 C338 1.993 . S
C1159 C433 1.970 . S
C1164 C150 1.987 . S
C1175 C145 1.915 . S
C1180 C438 1.963 . S
C1191 C182 1.974 . S
C1196 C401 1.922 . S
C1207 C406 1.950 . S
C1212 C177 1.930 . S
C1223 C501 1.937 . S
C1228 C210 1.987 . S
C1239 C498 1.975 . S
C1244 C213 1.968 . S
C1255 C469 1.966 . S
C1260 C242 1.992 . S
C1271 C466 1.982 . S
C1276 C245 1.930 . S
C1287 C465 1.723 . S
C1292 C21 1.723 . S
C1303 C86 1.585 . S
C1308 C18 1.585 . S
C1319 C369 1.714 . S
C1324 C53 1.714 . S
C1335 C50 1.584 . S
C1340 C246 1.584 . S
C1351 C405 1.723 . S
C1356 C81 1.723 . S
C1367 C113 1.714 . S
C1372 C309 1.714 . S
C1383 C178 1.629 . S
C1388 C118 1.629 . S
C1399 C337 1.721 . S
C1404 C149 1.721 . S
C1415 C146 1.626 . S
C1420 C214 1.626 . S
C1431 C181 1.704 . S
C1436 C497 1.704 . S
C1447 C277 1.722 . S
C1452 C209 1.722 . S
C1463 C437 1.723 . S
C1468 C241 1.723 . S
C1479 C274 1.637 . S
C1484 C342 1.637 . S
C1495 C306 1.583 . S
C1500 C502 1.583 . S
C1511 C434 1.637 . S
C1516 C374 1.637 . S
C1527 C470 1.585 . S
C1532 C402 1.585 . S
