# Generated by pormake.
# Topology ukf, (4)-cn, num edge types: 1
# Building blocks:
#     Node 0, Type 0, BuildingBlock: ESEHIV_clean_sbu_0, # of connection points: 4
#     Node 1, Type 0, BuildingBlock: ESEHIV_clean_sbu_0, # of connection points: 4
#     Node 2, Type 0, BuildingBlock: ESEHIV_clean_sbu_0, # of connection points: 4
#     Node 3, Type 0, BuildingBlock: ESEHIV_clean_sbu_0, # of connection points: 4
#     Node 4, Type 0, BuildingBlock: ESEHIV_clean_sbu_0, # of connection points: 4
#     Node 5, Type 0, BuildingBlock: ESEHIV_clean_sbu_0, # of connection points: 4
#     Node 6, Type 0, BuildingBlock: ESEHIV_clean_sbu_0, # of connection points: 4
#     Node 7, Type 0, BuildingBlock: ESEHIV_clean_sbu_0, # of connection points: 4
#     Node 8, Type 0, BuildingBlock: ESEHIV_clean_sbu_0, # of connection points: 4
#     Node 9, Type 0, BuildingBlock: ESEHIV_clean_sbu_0, # of connection points: 4
#     Node 10, Type 0, BuildingBlock: ESEHIV_clean_sbu_0, # of connection points: 4
#     Node 11, Type 0, BuildingBlock: ESEHIV_clean_sbu_0, # of connection points: 4
#     Edge 12, Type (0, 0), BuildingBlock: XUDNAN_clean_linker_2, # of connection points: 2
#     Edge 13, Type (0, 0), BuildingBlock: XUDNAN_clean_linker_2, # of connection points: 2
#     Edge 14, Type (0, 0), BuildingBlock: XUDNAN_clean_linker_2, # of connection points: 2
#     Edge 15, Type (0, 0), BuildingBlock: XUDNAN_clean_linker_2, # of connection points: 2
#     Edge 16, Type (0, 0), BuildingBlock: XUDNAN_clean_linker_2, # of connection points: 2
#     Edge 17, Type (0, 0), BuildingBlock: XUDNAN_clean_linker_2, # of connection points: 2
#     Edge 18, Type (0, 0), BuildingBlock: XUDNAN_clean_linker_2, # of connection points: 2
#     Edge 19, Type (0, 0), BuildingBlock: XUDNAN_clean_linker_2, # of connection points: 2
#     Edge 20, Type (0, 0), BuildingBlock: XUDNAN_clean_linker_2, # of connection points: 2
#     Edge 21, Type (0, 0), BuildingBlock: XUDNAN_clean_linker_2, # of connection points: 2
#     Edge 22, Type (0, 0), BuildingBlock: XUDNAN_clean_linker_2, # of connection points: 2
#     Edge 23, Type (0, 0), BuildingBlock: XUDNAN_clean_linker_2, # of connection points: 2
#     Edge 24, Type (0, 0), BuildingBlock: XUDNAN_clean_linker_2, # of connection points: 2
#     Edge 25, Type (0, 0), BuildingBlock: XUDNAN_clean_linker_2, # of connection points: 2
#     Edge 26, Type (0, 0), BuildingBlock: XUDNAN_clean_linker_2, # of connection points: 2
#     Edge 27, Type (0, 0), BuildingBlock: XUDNAN_clean_linker_2, # of connection points: 2
#     Edge 28, Type (0, 0), BuildingBlock: XUDNAN_clean_linker_2, # of connection points: 2
#     Edge 29, Type (0, 0), BuildingBlock: XUDNAN_clean_linker_2, # of connection points: 2
#     Edge 30, Type (0, 0), BuildingBlock: XUDNAN_clean_linker_2, # of connection points: 2
#     Edge 31, Type (0, 0), BuildingBlock: XUDNAN_clean_linker_2, # of connection points: 2
#     Edge 32, Type (0, 0), BuildingBlock: XUDNAN_clean_linker_2, # of connection points: 2
#     Edge 33, Type (0, 0), BuildingBlock: XUDNAN_clean_linker_2, # of connection points: 2
#     Edge 34, Type (0, 0), BuildingBlock: XUDNAN_clean_linker_2, # of connection points: 2
#     Edge 35, Type (0, 0), BuildingBlock: XUDNAN_clean_linker_2, # of connection points: 2
# Relax obj value: 0.089
# Max RMSD: 0.293
# Mean RMSD: 0.292
data_MOF--net-ukf--node1-ESEHIV_clean_sbu_0--edge1-XUDNAN_clean_linker_2
_symmetry_space_group_name_H-M    P1
_symmetry_Int_Tables_number       1
_symmetry_cell_setting            triclinic
loop_
_symmetry_equiv_pos_as_xyz
'x, y, z'
_cell_length_a     36.733794
_cell_length_b     36.747935
_cell_length_c     70.470025
_cell_angle_alpha  90.016115
_cell_angle_beta   90.032489
_cell_angle_gamma 119.61577
loop_
_atom_site_label
_atom_site_type_symbol
_atom_site_fract_x
_atom_site_fract_y
_atom_site_fract_z
_atom_type_partial_charge
Cu0 Cu 0.48132 0.26291 0.0783 0.0
N1 N 0.43677 0.21535 0.06736 0.0
N2 N 0.39852 0.15457 0.05221 0.0
C3 C 0.43748 0.18494 0.05694 0.0
C4 C 0.37236 0.16652 0.05979 0.0
C5 C 0.39603 0.20391 0.06916 0.0
O6 O 0.53431 0.27398 0.06738 0.0
C7 C 0.50846 0.27269 0.11724 0.0
O8 O 0.54603 0.29934 0.11094 0.0
H9 H 0.46582 0.18502 0.05279 0.0
H10 H 0.3844 0.22135 0.07701 0.0
N11 N 0.47477 0.30878 0.07249 0.0
N12 N 0.48482 0.37382 0.07141 0.0
C13 C 0.49307 0.34671 0.08086 0.0
C14 C 0.4542 0.31198 0.05735 0.0
C15 C 0.46034 0.35205 0.05664 0.0
C16 C 0.54833 0.24854 0.06693 0.0
O17 O 0.52761 0.21209 0.07543 0.0
H18 H 0.51352 0.35479 0.09308 0.0
H19 H 0.43706 0.28722 0.04719 0.0
O20 O 0.47829 0.25459 0.10556 0.0
H21 H 0.33851 0.14889 0.05911 0.0
H22 H 0.44826 0.36441 0.04593 0.0
Cu23 Cu 0.2395 0.47847 0.41373 0.0
N24 N 0.18467 0.4622 0.40632 0.0
N25 N 0.12233 0.45842 0.40272 0.0
C26 C 0.16078 0.47949 0.41076 0.0
C27 C 0.12241 0.42697 0.39282 0.0
C28 C 0.16075 0.42942 0.39507 0.0
O29 O 0.2468 0.49085 0.44078 0.0
C30 C 0.31698 0.54015 0.39875 0.0
O31 O 0.33214 0.52053 0.40879 0.0
H32 H 0.17121 0.50652 0.41991 0.0
H33 H 0.17062 0.40876 0.38888 0.0
N34 N 0.25034 0.43467 0.40839 0.0
N35 N 0.27528 0.39646 0.39469 0.0
C36 C 0.27332 0.43221 0.39403 0.0
C37 C 0.23701 0.39904 0.41832 0.0
C38 C 0.25226 0.37543 0.40992 0.0
C39 C 0.21986 0.46635 0.45272 0.0
O40 O 0.18602 0.43308 0.44655 0.0
H41 H 0.28824 0.45613 0.38328 0.0
H42 H 0.21791 0.3909 0.43095 0.0
O43 O 0.27792 0.52763 0.39932 0.0
H44 H 0.09681 0.40408 0.38428 0.0
H45 H 0.24772 0.34564 0.41496 0.0
Cu46 Cu 0.77019 0.2058 0.74826 0.0
N47 N 0.8127 0.2037 0.73452 0.0
N48 N 0.87345 0.22557 0.71923 0.0
C49 C 0.85068 0.23645 0.73055 0.0
C50 C 0.84869 0.18418 0.71601 0.0
C51 C 0.81129 0.17085 0.7254 0.0
O52 O 0.76161 0.2489 0.73667 0.0
C53 C 0.76873 0.22931 0.78654 0.0
O54 O 0.73946 0.23725 0.7806 0.0
H55 H 0.86084 0.26792 0.73536 0.0
H56 H 0.78467 0.13956 0.7252 0.0
N57 N 0.7211 0.15422 0.74714 0.0
N58 N 0.65343 0.10551 0.74479 0.0
C59 C 0.68204 0.14674 0.74344 0.0
C60 C 0.71727 0.11676 0.75115 0.0
C61 C 0.67577 0.08667 0.74959 0.0
C62 C 0.78827 0.2873 0.7392 0.0
O63 O 0.81871 0.29737 0.75147 0.0
H64 H 0.67493 0.17135 0.7403 0.0
H65 H 0.7429 0.11176 0.75515 0.0
O66 O 0.78658 0.2171 0.7747 0.0
H67 H 0.85679 0.16482 0.70742 0.0
H68 H 0.66335 0.05351 0.75183 0.0
Cu69 Cu 0.58642 0.78199 0.07568 0.0
N70 N 0.63368 0.83243 0.06882 0.0
N71 N 0.67479 0.89649 0.05702 0.0
C72 C 0.63508 0.8651 0.05948 0.0
C73 C 0.69929 0.88285 0.06498 0.0
C74 C 0.67384 0.84337 0.07224 0.0
O75 O 0.53853 0.77271 0.06053 0.0
C76 C 0.59086 0.812 0.11356 0.0
O77 O 0.61751 0.84879 0.10653 0.0
H78 H 0.60765 0.86569 0.05437 0.0
H79 H 0.68384 0.82402 0.07963 0.0
N80 N 0.59653 0.73823 0.07021 0.0
N81 N 0.59047 0.67475 0.06989 0.0
C82 C 0.58012 0.70079 0.07891 0.0
C83 C 0.6181 0.73591 0.05529 0.0
C84 C 0.61437 0.69672 0.05503 0.0
C85 C 0.52201 0.79601 0.06078 0.0
O86 O 0.53694 0.82847 0.07222 0.0
H87 H 0.55944 0.69217 0.09105 0.0
H88 H 0.63427 0.76058 0.04499 0.0
O89 O 0.57398 0.78029 0.10263 0.0
H90 H 0.73312 0.90044 0.06585 0.0
H91 H 0.62762 0.68505 0.04456 0.0
Cu92 Cu 0.82302 0.57742 0.4126 0.0
N93 N 0.87712 0.58498 0.41077 0.0
N94 N 0.92904 0.56966 0.40876 0.0
C95 C 0.88718 0.55439 0.4101 0.0
C96 C 0.94573 0.61174 0.40852 0.0
C97 C 0.91369 0.62103 0.40976 0.0
O98 O 0.80529 0.56958 0.43894 0.0
C99 C 0.74872 0.52047 0.39325 0.0
O100 O 0.73398 0.54399 0.39996 0.0
H101 H 0.86395 0.52157 0.41079 0.0
H102 H 0.91678 0.65187 0.40984 0.0
N103 N 0.82134 0.62455 0.40373 0.0
N104 N 0.80342 0.6647 0.38674 0.0
C105 C 0.80663 0.62959 0.38698 0.0
C106 C 0.8282 0.65782 0.41431 0.0
C107 C 0.81716 0.68263 0.4039 0.0
C108 C 0.80891 0.5448 0.4504 0.0
O109 O 0.82446 0.52152 0.44432 0.0
H110 H 0.79617 0.60677 0.37563 0.0
H111 H 0.83874 0.66268 0.4289 0.0
O112 O 0.78578 0.52905 0.3975 0.0
H113 H 0.97866 0.63443 0.4073 0.0
H114 H 0.81835 0.71117 0.40871 0.0
Cu115 Cu 0.25192 0.80738 0.7412 0.0
N116 N 0.20056 0.79983 0.73287 0.0
N117 N 0.13791 0.77321 0.71896 0.0
C118 C 0.17115 0.76793 0.7226 0.0
C119 C 0.14689 0.80978 0.72731 0.0
C120 C 0.18549 0.82605 0.73591 0.0
O121 O 0.26108 0.76493 0.72928 0.0
C122 C 0.27586 0.80416 0.78016 0.0
O123 O 0.3118 0.80996 0.77361 0.0
H124 H 0.17436 0.74172 0.71773 0.0
H125 H 0.20157 0.85499 0.74383 0.0
N126 N 0.29299 0.86031 0.73311 0.0
N127 N 0.35223 0.9213 0.72956 0.0
C128 C 0.332 0.88554 0.73977 0.0
C129 C 0.28858 0.88063 0.7182 0.0
C130 C 0.32488 0.91815 0.71599 0.0
C131 C 0.25272 0.73069 0.73732 0.0
O132 O 0.23851 0.72363 0.75481 0.0
H133 H 0.3452 0.87793 0.75183 0.0
H134 H 0.26093 0.86862 0.70937 0.0
O135 O 0.2484 0.80274 0.7687 0.0
H136 H 0.12673 0.82349 0.7275 0.0
H137 H 0.33097 0.9408 0.70489 0.0
Cu138 Cu 0.76546 0.54021 0.6279 0.0
N139 N 0.71659 0.53535 0.63816 0.0
N140 N 0.65172 0.52532 0.64089 0.0
C141 C 0.68144 0.52761 0.62888 0.0
C142 C 0.66903 0.53201 0.65836 0.0
C143 C 0.70908 0.5383 0.65661 0.0
O144 O 0.76276 0.54136 0.60044 0.0
C145 C 0.74801 0.46263 0.64554 0.0
O146 O 0.70823 0.45196 0.64486 0.0
H147 H 0.67752 0.52296 0.61369 0.0
H148 H 0.7312 0.54439 0.66797 0.0
N149 N 0.81078 0.58977 0.63648 0.0
N150 N 0.87221 0.63136 0.65058 0.0
C151 C 0.84687 0.59333 0.64289 0.0
C152 C 0.81313 0.6268 0.64003 0.0
C153 C 0.85107 0.65261 0.64869 0.0
C154 C 0.77727 0.52454 0.58922 0.0
O155 O 0.79493 0.5039 0.59622 0.0
H156 H 0.85369 0.56791 0.64229 0.0
H157 H 0.78832 0.63386 0.63726 0.0
O158 O 0.77515 0.49646 0.63774 0.0
H159 H 0.654 0.53271 0.67145 0.0
H160 H 0.86127 0.68386 0.65394 0.0
Cu161 Cu 0.23674 0.78033 0.9582 0.0
N162 N 0.24816 0.83467 0.96379 0.0
N163 N 0.27267 0.89687 0.97791 0.0
C164 C 0.26856 0.85833 0.97896 0.0
C165 C 0.25343 0.89717 0.96164 0.0
C166 C 0.23839 0.85876 0.95296 0.0
O167 O 0.27899 0.76962 0.96941 0.0
C168 C 0.26385 0.78569 0.91965 0.0
O169 O 0.30192 0.8035 0.92669 0.0
H170 H 0.28062 0.84767 0.9904 0.0
H171 H 0.22219 0.84927 0.9395 0.0
N172 N 0.18497 0.74284 0.96873 0.0
N173 N 0.12729 0.68353 0.97684 0.0
C174 C 0.16397 0.70079 0.96724 0.0
C175 C 0.16089 0.7526 0.97955 0.0
C176 C 0.12534 0.71616 0.98457 0.0
C177 C 0.317 0.79778 0.97186 0.0
O178 O 0.33018 0.8357 0.9653 0.0
H179 H 0.1757 0.6833 0.95949 0.0
H180 H 0.16863 0.78408 0.98346 0.0
O181 O 0.23272 0.77301 0.93083 0.0
H182 H 0.25172 0.92374 0.95608 0.0
H183 H 0.09979 0.71402 0.99304 0.0
Cu184 Cu 0.48032 0.23053 0.29547 0.0
N185 N 0.43587 0.23447 0.30634 0.0
N186 N 0.39844 0.25859 0.32142 0.0
C187 C 0.43716 0.26593 0.31672 0.0
C188 C 0.37182 0.22085 0.31388 0.0
C189 C 0.39498 0.20614 0.30458 0.0
O190 O 0.53321 0.27408 0.30545 0.0
C191 C 0.50715 0.24984 0.25667 0.0
O192 O 0.54551 0.26822 0.26341 0.0
H193 H 0.46582 0.29357 0.32085 0.0
H194 H 0.38289 0.17709 0.29677 0.0
N195 N 0.47589 0.17952 0.30239 0.0
N196 N 0.48644 0.12465 0.30356 0.0
C197 C 0.49166 0.15803 0.29334 0.0
C198 C 0.46004 0.159 0.31878 0.0
C199 C 0.46652 0.12517 0.31956 0.0
C200 C 0.54599 0.31312 0.30471 0.0
O201 O 0.52378 0.32669 0.29562 0.0
H202 H 0.50815 0.16767 0.27995 0.0
H203 H 0.44582 0.16871 0.32963 0.0
O204 O 0.47631 0.23276 0.26806 0.0
H205 H 0.338 0.20552 0.31452 0.0
H206 H 0.45764 0.1029 0.33108 0.0
Cu207 Cu 0.25165 0.45534 0.63051 0.0
N208 N 0.29357 0.44144 0.63407 0.0
N209 N 0.35619 0.44531 0.63449 0.0
C210 C 0.33322 0.46186 0.62756 0.0
C211 C 0.32987 0.41323 0.64568 0.0
C212 C 0.29137 0.411 0.64542 0.0
O213 O 0.25328 0.47426 0.60447 0.0
C214 C 0.25658 0.52986 0.64631 0.0
O215 O 0.24732 0.53723 0.62924 0.0
H216 H 0.34535 0.48932 0.6186 0.0
H217 H 0.26397 0.38943 0.65339 0.0
N218 N 0.19983 0.40852 0.63601 0.0
N219 N 0.13759 0.36858 0.64973 0.0
C220 C 0.16934 0.40796 0.64682 0.0
C221 C 0.18709 0.36816 0.63201 0.0
C222 C 0.14865 0.34351 0.64034 0.0
C223 C 0.24009 0.44777 0.59096 0.0
O224 O 0.22567 0.40806 0.59485 0.0
H225 H 0.17096 0.43588 0.65276 0.0
H226 H 0.20527 0.35726 0.62427 0.0
O227 O 0.26052 0.49781 0.64913 0.0
H228 H 0.33797 0.39308 0.65368 0.0
H229 H 0.13123 0.30964 0.64023 0.0
Cu230 Cu 0.83228 0.26906 0.96282 0.0
N231 N 0.8346 0.22718 0.97696 0.0
N232 N 0.81401 0.16892 0.99408 0.0
C233 C 0.80193 0.19313 0.98461 0.0
C234 C 0.85608 0.18853 0.99224 0.0
C235 C 0.86866 0.22446 0.98171 0.0
O236 O 0.79343 0.28288 0.97516 0.0
C237 C 0.80463 0.26719 0.92491 0.0
O238 O 0.79963 0.29869 0.93028 0.0
H239 H 0.76983 0.18593 0.98306 0.0
H240 H 0.90044 0.24711 0.97785 0.0
N241 N 0.88523 0.31653 0.9619 0.0
N242 N 0.93778 0.38231 0.96479 0.0
C243 C 0.89763 0.35466 0.96936 0.0
C244 C 0.91847 0.32009 0.95232 0.0
C245 C 0.95094 0.36056 0.95409 0.0
C246 C 0.75413 0.25791 0.9754 0.0
O247 O 0.73837 0.2231 0.96549 0.0
H248 H 0.87723 0.36217 0.97749 0.0
H249 H 0.9188 0.29504 0.9444 0.0
O250 O 0.81644 0.24944 0.93699 0.0
H251 H 0.87643 0.17811 0.9983 0.0
H252 H 0.98186 0.37292 0.948 0.0
Cu253 Cu 0.58749 0.8156 0.29209 0.0
N254 N 0.63601 0.81178 0.29607 0.0
N255 N 0.68057 0.7902 0.30521 0.0
C256 C 0.64378 0.78893 0.3088 0.0
C257 C 0.69673 0.81517 0.28994 0.0
C258 C 0.66938 0.82851 0.28442 0.0
O259 O 0.5413 0.77704 0.30796 0.0
C260 C 0.59096 0.83109 0.25267 0.0
O261 O 0.6205 0.86863 0.2577 0.0
H262 H 0.62215 0.77013 0.31982 0.0
H263 H 0.67291 0.84785 0.27225 0.0
N264 N 0.59752 0.8693 0.29805 0.0
N265 N 0.58968 0.92578 0.29966 0.0
C266 C 0.57755 0.88877 0.29097 0.0
C267 C 0.62307 0.8948 0.31167 0.0
C268 C 0.61825 0.92968 0.31272 0.0
C269 C 0.52957 0.73854 0.31052 0.0
O270 O 0.54946 0.72171 0.302 0.0
H271 H 0.55359 0.87538 0.28012 0.0
H272 H 0.64303 0.88797 0.32052 0.0
O273 O 0.57196 0.80361 0.26545 0.0
H274 H 0.72583 0.82243 0.283 0.0
H275 H 0.63433 0.95575 0.3224 0.0
H276 H 0.25619 0.95939 0.9863 0.0
H277 H 0.34241 0.91354 0.99785 0.0
H278 H 0.38456 0.97513 1.01819 0.0
H279 H 0.33234 0.0681 0.98374 0.0
H280 H 0.29983 0.08541 0.99532 0.0
H281 H 0.27613 0.03739 0.98193 0.0
H282 H 0.23283 0.99701 1.0114 0.0
H283 H 0.25627 0.04495 0.02487 0.0
H284 H 0.25943 1.00035 0.03339 0.0
H285 H 0.41895 0.04347 0.03615 0.0
H286 H 0.44007 0.11068 0.05235 0.0
H287 H 0.33063 0.11117 0.02954 0.0
C288 C 0.28395 0.96238 0.99311 0.0
C289 C 0.29605 0.93171 0.9905 0.0
C290 C 0.33231 0.9364 0.99983 0.0
C291 C 0.35659 0.97142 1.0113 0.0
C292 C 0.34398 1.00127 1.01343 0.0
C293 C 0.30827 0.99688 1.00475 0.0
C294 C 0.30127 0.03315 1.00954 0.0
C295 C 0.30248 0.05745 0.99156 0.0
C296 C 0.26001 1.01795 0.02045 0.0
C297 C 0.33883 0.05883 0.02213 0.0
C298 C 0.36322 0.04005 0.0241 0.0
C299 C 0.39999 0.05837 0.03477 0.0
C300 C 0.4119 0.09668 0.0438 0.0
C301 C 0.38697 0.11612 0.04224 0.0
C302 C 0.35004 0.09682 0.03118 0.0
H303 H 0.25653 0.31719 0.38552 0.0
H304 H 0.3478 0.44785 0.37626 0.0
H305 H 0.38973 0.42674 0.35642 0.0
H306 H 0.3293 0.27938 0.38911 0.0
H307 H 0.29622 0.23106 0.37678 0.0
H308 H 0.27316 0.25654 0.38997 0.0
H309 H 0.23319 0.25781 0.35988 0.0
H310 H 0.25604 0.23222 0.34661 0.0
H311 H 0.26199 0.28134 0.33843 0.0
H312 H 0.42302 0.39098 0.33852 0.0
H313 H 0.44269 0.34363 0.32229 0.0
H314 H 0.32929 0.23638 0.3431 0.0
C315 C 0.28539 0.34136 0.37936 0.0
C316 C 0.29889 0.3842 0.38247 0.0
C317 C 0.33657 0.41487 0.37392 0.0
C318 C 0.36074 0.40317 0.36273 0.0
C319 C 0.34668 0.36065 0.36011 0.0
C320 C 0.30968 0.33023 0.36806 0.0
C321 C 0.30128 0.28671 0.36291 0.0
C322 C 0.29993 0.26198 0.38076 0.0
C323 C 0.26072 0.26314 0.35126 0.0
C324 C 0.33948 0.29735 0.35093 0.0
C325 C 0.3654 0.34015 0.34956 0.0
C326 C 0.40288 0.35741 0.33946 0.0
C327 C 0.41395 0.33024 0.33039 0.0
C328 C 0.38755 0.28623 0.33138 0.0
C329 C 0.3499 0.26981 0.34187 0.0
H330 H 0.90866 0.2125 0.68767 0.0
H331 H 0.93239 0.30115 0.73324 0.0
H332 H 1.00179 0.34862 0.71969 0.0
H333 H 1.01299 0.22757 0.68588 0.0
H334 H 1.0128 0.22228 0.66045 0.0
H335 H 0.96441 0.19573 0.67348 0.0
H336 H 0.93314 0.2315 0.65253 0.0
H337 H 0.9815 0.25829 0.63948 0.0
H338 H 0.96021 0.28778 0.6507 0.0
H339 H 0.06918 0.38642 0.70129 0.0
H340 H 0.13014 0.41035 0.68006 0.0
H341 H 0.06266 0.29672 0.64677 0.0
C342 C 0.92842 0.24165 0.69496 0.0
C343 C 0.91462 0.25294 0.71154 0.0
C344 C 0.94166 0.29185 0.72038 0.0
C345 C 0.98135 0.31904 0.71283 0.0
C346 C 0.99374 0.30695 0.69645 0.0
C347 C 0.96816 0.2691 0.68766 0.0
C348 C 0.9892 0.26327 0.67036 0.0
C349 C 0.99521 0.22494 0.67269 0.0
C350 C 0.96454 0.26003 0.65219 0.0
C351 C 0.03071 0.30367 0.67086 0.0
C352 C 0.03264 0.32854 0.68595 0.0
C353 C 0.06797 0.36725 0.68938 0.0
C354 C 0.10239 0.38072 0.67714 0.0
C355 C 0.10133 0.35549 0.66169 0.0
C356 C 0.06474 0.31659 0.65853 0.0
H357 H 0.74865 0.94596 0.03894 0.0
H358 H 0.63129 0.9384 0.05539 0.0
H359 H 0.65429 1.00753 0.04092 0.0
H360 H 0.81444 0.05581 0.04788 0.0
H361 H 0.84787 0.06427 0.02771 0.0
H362 H 0.82197 1.01388 0.03915 0.0
H363 H 0.78864 0.97857 1.00707 0.0
H364 H 0.81452 0.02885 0.99553 0.0
H365 H 0.75846 0.99647 0.99385 0.0
H366 H 0.69068 0.07817 0.02532 0.0
H367 H 0.73692 0.14442 1.00894 0.0
H368 H 0.83035 0.1057 1.0021 0.0
C369 C 0.72788 0.95893 0.0396 0.0
C370 C 0.68811 0.93666 0.04831 0.0
C371 C 0.66164 0.95454 0.0486 0.0
C372 C 0.67454 0.99394 0.04052 0.0
C373 C 0.71396 1.01505 0.03211 0.0
C374 C 0.74018 0.99813 0.03151 0.0
C375 C 0.78084 0.02717 0.02145 0.0
C376 C 0.8185 0.04111 0.03485 0.0
C377 C 0.78589 1.00653 1.00341 0.0
C378 C 0.77354 0.06325 1.01666 0.0
C379 C 0.73476 0.05559 0.02293 0.0
C380 C 0.72101 0.08438 0.02023 0.0
C381 C 0.74749 0.1219 1.01078 0.0
C382 C 0.78734 0.1304 1.00405 0.0
C383 C 0.80037 0.10051 1.00716 0.0
H384 H 0.68419 0.77736 0.34302 0.0
H385 H 0.71552 0.74998 0.28754 0.0
H386 H 0.748 0.71214 0.30249 0.0
H387 H 0.77942 0.79795 0.36535 0.0
H388 H 0.75585 0.77485 0.3878 0.0
H389 H 0.73191 0.79681 0.3728 0.0
H390 H 0.6623 0.72621 0.37312 0.0
H391 H 0.68598 0.70409 0.38821 0.0
H392 H 0.66226 0.67903 0.36606 0.0
H393 H 0.77838 0.67863 0.32336 0.0
H394 H 0.80751 0.65441 0.3489 0.0
H395 H 0.75927 0.7058 0.39098 0.0
C396 C 0.69738 0.7628 0.3341 0.0
C397 C 0.69733 0.7664 0.31415 0.0
C398 C 0.71553 0.74771 0.30286 0.0
C399 C 0.73383 0.72602 0.31121 0.0
C400 C 0.73403 0.72355 0.33092 0.0
C401 C 0.71645 0.74154 0.34226 0.0
C402 C 0.72304 0.73626 0.36311 0.0
C403 C 0.74911 0.77902 0.37283 0.0
C404 C 0.68089 0.70981 0.37322 0.0
C405 C 0.74734 0.71289 0.36167 0.0
C406 C 0.75285 0.70541 0.34298 0.0
C407 C 0.77423 0.68426 0.33806 0.0
C408 C 0.79056 0.67052 0.35264 0.0
C409 C 0.78592 0.67841 0.3719 0.0
C410 C 0.76387 0.69981 0.37639 0.0
H411 H 0.93214 0.71159 0.65905 0.0
H412 H 0.90223 0.5819 0.66456 0.0
H413 H 0.96853 0.60466 0.68138 0.0
H414 H 0.0438 0.75629 0.65257 0.0
H415 H 0.05661 0.80221 0.66652 0.0
H416 H 1.0076 0.77598 0.65389 0.0
H417 H 0.96747 0.76817 0.68523 0.0
H418 H 1.01633 0.79435 0.69795 0.0
H419 H 0.97621 0.74308 0.70532 0.0
H420 H 0.03748 0.64114 0.69846 0.0
H421 H 0.10301 0.68892 0.71526 0.0
H422 H 0.08727 0.79442 0.69938 0.0
C423 C 0.9393 0.68784 0.66378 0.0
C424 C 0.91164 0.64485 0.66021 0.0
C425 C 0.92283 0.61506 0.66665 0.0
C426 C 0.9605 0.62765 0.67637 0.0
C427 C 0.98678 0.67015 0.67967 0.0
C428 C 0.97666 0.69981 0.67362 0.0
C429 C 1.00981 0.74342 0.67953 0.0
C430 C 0.03069 0.7711 0.66209 0.0
C431 C 0.99134 0.76341 0.6928 0.0
C432 C 0.03989 0.73353 0.69001 0.0
C433 C 1.0262 0.69113 0.6898 0.0
C434 C 0.04862 0.67446 0.69866 0.0
C435 C 0.08593 0.70187 0.70808 0.0
C436 C 0.10033 0.74544 0.70867 0.0
C437 C 0.07693 0.76127 0.69939 0.0
H438 H 0.6813 0.19952 0.99209 0.0
H439 H 0.76743 0.33317 0.98906 0.0
H440 H 0.72478 0.34538 1.01269 0.0
H441 H 0.58593 0.204 0.99812 0.0
H442 H 0.56365 0.16114 1.01473 0.0
H443 H 0.59992 0.16343 0.99696 0.0
H444 H 0.64678 0.15883 0.02329 0.0
H445 H 0.61083 0.15692 0.04116 0.0
H446 H 0.66527 0.19658 0.04231 0.0
H447 H 0.67169 0.34289 0.03607 0.0
H448 H 0.61333 0.32584 0.05829 0.0
H449 H 0.56495 0.19348 0.04782 0.0
C450 C 0.69084 0.2314 0.9962 0.0
C451 C 0.72733 0.26551 0.98858 0.0
C452 C 0.73941 0.30667 0.99466 0.0
C453 C 0.71544 0.31387 1.00807 0.0
C454 C 0.67989 0.2795 1.01548 0.0
C455 C 0.66775 0.23906 1.00984 0.0
C456 C 0.62912 0.2075 0.02049 0.0
C457 C 0.59249 0.18256 1.00675 0.0
C458 C 0.63859 0.17824 0.03253 0.0
C459 C 0.62114 0.23652 0.03288 0.0
C460 C 0.65062 0.27794 0.02968 0.0
C461 C 0.64869 0.31056 0.03883 0.0
C462 C 0.61549 0.3006 0.05142 0.0
C463 C 0.58505 0.25838 0.05495 0.0
C464 C 0.5883 0.226 0.0457 0.0
H465 H 0.39013 0.55329 0.38251 0.0
H466 H 0.3055 0.60367 0.38549 0.0
H467 H 0.35104 0.66027 0.36336 0.0
H468 H 0.4868 0.65134 0.37949 0.0
H469 H 0.5103 0.63211 0.36269 0.0
H470 H 0.47191 0.59666 0.37931 0.0
H471 H 0.42724 0.54963 0.35148 0.0
H472 H 0.46544 0.58498 0.33477 0.0
H473 H 0.41147 0.57212 0.33267 0.0
H474 H 0.40679 0.7123 0.34165 0.0
H475 H 0.46639 0.75371 0.32022 0.0
H476 H 0.51218 0.66662 0.32967 0.0
C477 C 0.38142 0.57649 0.37865 0.0
C478 C 0.34458 0.57448 0.38586 0.0
C479 C 0.3337 0.60481 0.38016 0.0
C480 C 0.35938 0.63705 0.36763 0.0
C481 C 0.39543 0.63807 0.36073 0.0
C482 C 0.40626 0.60838 0.36588 0.0
C483 C 0.44576 0.61561 0.35584 0.0
C484 C 0.48076 0.62447 0.37019 0.0
C485 C 0.43693 0.57837 0.34292 0.0
C486 C 0.45569 0.65424 0.34434 0.0
C487 C 0.42646 0.66689 0.3475 0.0
C488 C 0.4297 0.70253 0.33895 0.0
C489 C 0.46369 0.72588 0.32684 0.0
C490 C 0.49371 0.7132 0.32319 0.0
C491 C 0.48943 0.67677 0.33201 0.0
H492 H 0.72387 0.28319 0.7175 0.0
H493 H 0.85502 0.36393 0.73152 0.0
H494 H 0.85931 0.4155 0.708 0.0
H495 H 0.73165 0.30431 0.66763 0.0
H496 H 0.68296 0.30489 0.66605 0.0
H497 H 0.68971 0.27373 0.68395 0.0
H498 H 0.67128 0.31133 0.71021 0.0
H499 H 0.66397 0.34222 0.69236 0.0
H500 H 0.70013 0.36767 0.71162 0.0
H501 H 0.85073 0.45658 0.68203 0.0
H502 H 0.8276 0.48965 0.65814 0.0
H503 H 0.70078 0.38481 0.6619 0.0
C504 C 0.75338 0.31186 0.71568 0.0
C505 C 0.78915 0.31952 0.72633 0.0
C506 C 0.82715 0.35748 0.72363 0.0
C507 C 0.83 0.38685 0.7102 0.0
C508 C 0.79443 0.37809 0.69973 0.0
C509 C 0.75662 0.34195 0.70253 0.0
C510 C 0.72283 0.34109 0.68983 0.0
C511 C 0.7058 0.30379 0.67605 0.0
C512 C 0.68747 0.34056 0.70172 0.0
C513 C 0.74769 0.38229 0.6794 0.0
C514 C 0.78904 0.40277 0.68518 0.0
C515 C 0.81837 0.44101 0.67746 0.0
C516 C 0.8049 0.45942 0.66379 0.0
C517 C 0.76231 0.43988 0.65813 0.0
C518 C 0.7335 0.40053 0.66593 0.0
H519 H 0.38376 0.85365 0.99296 0.0
H520 H 0.31229 0.72207 0.97806 0.0
H521 H 0.3573 0.70723 0.99916 0.0
H522 H 0.48543 0.8612 0.99672 0.0
H523 H 0.50106 0.89578 1.01693 0.0
H524 H 0.46462 0.89612 0.99991 0.0
H525 H 0.4113 0.88186 0.02688 0.0
H526 H 0.44746 0.88123 0.04397 0.0
H527 H 0.39536 0.83697 0.04204 0.0
H528 H 0.41096 0.70721 0.02145 0.0
H529 H 0.46704 0.7212 0.04456 0.0
H530 H 0.5001 0.852 0.04659 0.0
C531 C 0.37796 0.8218 0.99394 0.0
C532 C 0.34494 0.78902 0.98371 0.0
C533 C 0.33761 0.74761 0.98572 0.0
C534 C 0.36299 0.73892 0.99764 0.0
C535 C 0.39509 0.77192 1.00766 0.0
C536 C 0.40243 0.81248 1.00605 0.0
C537 C 0.43771 0.84197 1.01899 0.0
C538 C 0.47437 0.87576 1.00744 0.0
C539 C 0.422 0.86165 0.03385 0.0
C540 C 0.44929 0.81172 0.02806 0.0
C541 C 0.42458 0.77154 0.0212 0.0
C542 C 0.4303 0.73848 0.02701 0.0
C543 C 0.46222 0.74672 0.04012 0.0
C544 C 0.48759 0.78757 0.04748 0.0
C545 C 0.48076 0.82034 0.04143 0.0
H546 H 0.56297 0.38834 0.32016 0.0
H547 H 0.61131 0.30226 0.31545 0.0
H548 H 0.66972 0.34712 0.33691 0.0
H549 H 0.66401 0.48525 0.32324 0.0
H550 H 0.64531 0.50832 0.34052 0.0
H551 H 0.6096 0.47143 0.32344 0.0
H552 H 0.56174 0.42581 0.35082 0.0
H553 H 0.59747 0.46231 0.36798 0.0
H554 H 0.5833 0.40789 0.36918 0.0
H555 H 0.72148 0.40001 0.35962 0.0
H556 H 0.7625 0.45678 0.38246 0.0
H557 H 0.67836 0.50648 0.37367 0.0
C558 C 0.58637 0.37946 0.32332 0.0
C559 C 0.58298 0.34212 0.31599 0.0
C560 C 0.61353 0.33088 0.32086 0.0
C561 C 0.64678 0.35615 0.33301 0.0
C562 C 0.6488 0.39233 0.34032 0.0
C563 C 0.61942 0.40398 0.33568 0.0
C564 C 0.6274 0.44305 0.34637 0.0
C565 C 0.63717 0.47915 0.33257 0.0
C566 C 0.59027 0.43422 0.35936 0.0
C567 C 0.6657 0.45138 0.3578 0.0
C568 C 0.67775 0.42198 0.35396 0.0
C569 C 0.71237 0.42324 0.36273 0.0
C570 C 0.73544 0.45557 0.37569 0.0
C571 C 0.72351 0.48591 0.37992 0.0
C572 C 0.68806 0.48355 0.37086 0.0
H573 H 0.25731 0.60523 0.64554 0.0
H574 H 0.26307 0.51574 0.68392 0.0
H575 H 0.26528 0.55868 0.71122 0.0
H576 H 0.32771 0.69855 0.67273 0.0
H577 H 0.29855 0.72493 0.66749 0.0
H578 H 0.29881 0.68787 0.65082 0.0
H579 H 0.2177 0.64599 0.65157 0.0
H580 H 0.2172 0.68285 0.66825 0.0
H581 H 0.19117 0.6279 0.67399 0.0
H582 H 0.26232 0.60873 0.73449 0.0
H583 H 0.2577 0.66451 0.75206 0.0
H584 H 0.2566 0.72303 0.69873 0.0
C585 C 0.25935 0.59482 0.65967 0.0
C586 C 0.26001 0.55706 0.66255 0.0
C587 C 0.26267 0.54458 0.6813 0.0
C588 C 0.2639 0.56874 0.69694 0.0
C589 C 0.26283 0.60555 0.69363 0.0
C590 C 0.26097 0.61877 0.67547 0.0
C591 C 0.25969 0.65937 0.67589 0.0
C592 C 0.29851 0.69477 0.66616 0.0
C593 C 0.21902 0.65366 0.66689 0.0
C594 C 0.26051 0.66653 0.69711 0.0
C595 C 0.26224 0.63506 0.70708 0.0
C596 C 0.26142 0.63381 0.72685 0.0
C597 C 0.25868 0.66555 0.7367 0.0
C598 C 0.25713 0.69826 0.72678 0.0
C599 C 0.25837 0.69878 0.70672 0.0
H600 H 0.56562 0.30258 0.14669 0.0
H601 H 0.43318 0.22332 0.13452 0.0
H602 H 0.41896 0.20922 0.16864 0.0
H603 H 0.5706 0.23925 0.18475 0.0
H604 H 0.60689 0.28345 0.19877 0.0
H605 H 0.607 0.28762 0.1733 0.0
H606 H 0.59642 0.35206 0.1763 0.0
H607 H 0.59624 0.34805 0.20178 0.0
H608 H 0.55274 0.34774 0.18976 0.0
H609 H 0.41844 0.20423 0.20394 0.0
H610 H 0.43196 0.2074 0.23831 0.0
H611 H 0.56481 0.28897 0.22803 0.0
C612 C 0.53364 0.28223 0.15119 0.0
C613 C 0.50054 0.2641 0.13785 0.0
C614 C 0.45913 0.23759 0.14439 0.0
C615 C 0.45067 0.22939 0.16378 0.0
C616 C 0.48391 0.24778 0.17653 0.0
C617 C 0.52459 0.27354 0.17055 0.0
C618 C 0.55451 0.28913 0.18729 0.0
C619 C 0.58665 0.27394 0.18594 0.0
C620 C 0.57625 0.33709 0.18887 0.0
C621 C 0.52422 0.26813 0.20357 0.0
C622 C 0.48367 0.24453 0.197 0.0
C623 C 0.45009 0.22252 0.20927 0.0
C624 C 0.45812 0.22458 0.2288 0.0
C625 C 0.49946 0.24837 0.23593 0.0
C626 C 0.53288 0.27039 0.22306 0.0
H627 H 0.18202 0.40964 0.48124 0.0
H628 H 0.27541 0.53915 0.4709 0.0
H629 H 0.28877 0.55005 0.50547 0.0
H630 H 0.14105 0.42552 0.52532 0.0
H631 H 0.13465 0.37798 0.53581 0.0
H632 H 0.13083 0.38151 0.51047 0.0
H633 H 0.18876 0.36154 0.50579 0.0
H634 H 0.19275 0.35793 0.53109 0.0
H635 H 0.23861 0.39195 0.51743 0.0
H636 H 0.2918 0.54607 0.54162 0.0
H637 H 0.28773 0.52625 0.57551 0.0
H638 H 0.19495 0.3986 0.56127 0.0
C639 C 0.20495 0.44047 0.48623 0.0
C640 C 0.22741 0.47367 0.47339 0.0
C641 C 0.25774 0.5133 0.4805 0.0
C642 C 0.26544 0.5198 0.5001 0.0
C643 C 0.24282 0.48625 0.51238 0.0
C644 C 0.21341 0.44729 0.50565 0.0
C645 C 0.19488 0.41572 0.52157 0.0
C646 C 0.14755 0.39923 0.5234 0.0
C647 C 0.20434 0.37967 0.5188 0.0
C648 C 0.21855 0.44285 0.53833 0.0
C649 C 0.2457 0.48358 0.53285 0.0
C650 C 0.27067 0.51423 0.54603 0.0
C651 C 0.2681 0.50274 0.56524 0.0
C652 C 0.24121 0.46087 0.571 0.0
C653 C 0.21604 0.43081 0.55731 0.0
H654 H 0.76858 0.28877 0.89591 0.0
H655 H 0.83249 0.21862 0.90798 0.0
H656 H 0.8308 0.20217 0.87397 0.0
H657 H 0.69996 0.21802 0.8593 0.0
H658 H 0.70197 0.25961 0.84499 0.0
H659 H 0.70784 0.26563 0.87036 0.0
H660 H 0.77857 0.33402 0.86588 0.0
H661 H 0.77307 0.32803 0.84049 0.0
H662 H 0.81923 0.33305 0.85194 0.0
H663 H 0.8257 0.19637 0.8386 0.0
H664 H 0.81173 0.19608 0.80435 0.0
H665 H 0.74826 0.2672 0.81508 0.0
C666 C 0.782 0.26975 0.89141 0.0
C667 C 0.80075 0.25507 0.90464 0.0
C668 C 0.8178 0.23011 0.89816 0.0
C669 C 0.81716 0.22072 0.87884 0.0
C670 C 0.79894 0.2361 0.86617 0.0
C671 C 0.78115 0.25959 0.87217 0.0
C672 C 0.76302 0.2717 0.85557 0.0
C673 C 0.71537 0.25259 0.85769 0.0
C674 C 0.78479 0.31954 0.85334 0.0
C675 C 0.77383 0.2517 0.83931 0.0
C676 C 0.79482 0.2316 0.84575 0.0
C677 C 0.809 0.21172 0.83339 0.0
C678 C 0.80106 0.2119 0.81394 0.0
C679 C 0.77878 0.23149 0.80702 0.0
C680 C 0.76515 0.25174 0.81993 0.0
H681 H 0.62984 0.87078 0.14146 0.0
H682 H 0.53236 0.74209 0.13246 0.0
H683 H 0.51959 0.73353 0.16703 0.0
H684 H 0.6714 0.85166 0.18344 0.0
H685 H 0.68286 0.90027 0.19466 0.0
H686 H 0.68271 0.89676 0.16918 0.0
H687 H 0.62826 0.92203 0.16722 0.0
H688 H 0.62824 0.92563 0.19271 0.0
H689 H 0.57978 0.89428 0.18017 0.0
H690 H 0.51918 0.73854 0.20289 0.0
H691 H 0.53182 0.75653 0.23698 0.0
H692 H 0.62982 0.88171 0.22217 0.0
C693 C 0.6055 0.84089 0.1467 0.0
C694 C 0.58198 0.80716 0.13421 0.0
C695 C 0.55075 0.76843 0.14173 0.0
C696 C 0.54322 0.76327 0.16135 0.0
C697 C 0.56721 0.7971 0.17327 0.0
C698 C 0.59773 0.83515 0.16621 0.0
C699 C 0.62021 0.86613 0.18204 0.0
C700 C 0.66706 0.87947 0.18234 0.0
C701 C 0.61371 0.90427 0.18044 0.0
C702 C 0.59768 0.83958 0.19913 0.0
C703 C 0.56713 0.79989 0.19381 0.0
C704 C 0.5429 0.7696 0.20721 0.0
C705 C 0.55031 0.7801 0.22654 0.0
C706 C 0.58174 0.82055 0.23229 0.0
C707 C 0.60541 0.85059 0.2183 0.0
H708 H 0.80332 0.4913 0.56073 0.0
H709 H 0.74766 0.56998 0.57059 0.0
H710 H 0.74715 0.58126 0.53614 0.0
H711 H 0.87074 0.55114 0.5232 0.0
H712 H 0.86406 0.50655 0.50971 0.0
H713 H 0.85833 0.50296 0.53512 0.0
H714 H 0.78404 0.43871 0.53152 0.0
H715 H 0.78957 0.4421 0.50608 0.0
H716 H 0.74572 0.44291 0.51711 0.0
H717 H 0.7556 0.58682 0.50083 0.0
H718 H 0.77169 0.58554 0.46694 0.0
H719 H 0.82099 0.50253 0.47978 0.0
C720 C 0.79075 0.51066 0.55565 0.0
C721 C 0.77554 0.52975 0.56842 0.0
C722 C 0.75943 0.55493 0.56114 0.0
C723 C 0.75897 0.56153 0.54157 0.0
C724 C 0.77447 0.54255 0.52941 0.0
C725 C 0.78987 0.51746 0.53612 0.0
C726 C 0.80542 0.50141 0.51999 0.0
C727 C 0.85243 0.51643 0.52214 0.0
C728 C 0.77964 0.45344 0.5186 0.0
C729 C 0.79707 0.52206 0.50321 0.0
C730 C 0.77902 0.54547 0.50896 0.0
C731 C 0.76945 0.56834 0.49613 0.0
C732 C 0.77877 0.56745 0.47689 0.0
C733 C 0.7975 0.54384 0.47065 0.0
C734 C 0.80642 0.52065 0.48404 0.0
H735 H 0.32242 0.80513 0.89136 0.0
H736 H 0.19008 0.76023 0.90076 0.0
H737 H 0.17902 0.759 0.86623 0.0
H738 H 0.33547 0.87248 0.85259 0.0
H739 H 0.37078 0.86088 0.8396 0.0
H740 H 0.3684 0.8569 0.86509 0.0
H741 H 0.35245 0.78002 0.86286 0.0
H742 H 0.35496 0.78382 0.83735 0.0
H743 H 0.30882 0.74311 0.84872 0.0
H744 H 0.18259 0.76594 0.83097 0.0
H745 H 0.19984 0.77732 0.79696 0.0
H746 H 0.32962 0.81611 0.80992 0.0
C747 C 0.29105 0.79475 0.88616 0.0
C748 C 0.25712 0.78281 0.89883 0.0
C749 C 0.21658 0.76943 0.8914 0.0
C750 C 0.20996 0.76868 0.87178 0.0
C751 C 0.2441 0.78107 0.85972 0.0
C752 C 0.28379 0.79352 0.86657 0.0
C753 C 0.31508 0.80555 0.85046 0.0
C754 C 0.34946 0.85169 0.85203 0.0
C755 C 0.33393 0.77638 0.84981 0.0
C756 C 0.28682 0.79848 0.83352 0.0
C757 C 0.24603 0.78439 0.83924 0.0
C758 C 0.21436 0.77667 0.82631 0.0
C759 C 0.22455 0.78338 0.80699 0.0
C760 C 0.26608 0.79753 0.80071 0.0
C761 C 0.29754 0.80504 0.81423 0.0
H762 H 0.57039 0.61207 0.04465 0.0
H763 H 0.57708 0.63935 0.10478 0.0
H764 H 0.55172 0.5646 0.11206 0.0
H765 H 0.47565 0.51372 0.04676 0.0
H766 H 0.4915 0.48968 0.02869 0.0
H767 H 0.51162 0.54539 0.02844 0.0
H768 H 0.58754 0.55793 0.02868 0.0
H769 H 0.56765 0.50224 0.0289 0.0
H770 H 0.60342 0.53471 0.04714 0.0
H771 H 0.52677 0.48646 0.11248 0.0
H772 H 0.49984 0.41108 0.10597 0.0
H773 H 0.50732 0.43576 0.04556 0.0
C774 C 0.56698 0.60238 0.05935 0.0
C775 C 0.57603 0.63144 0.07419 0.0
C776 C 0.5702 0.61745 0.09324 0.0
C777 C 0.55601 0.57517 0.09748 0.0
C778 C 0.54738 0.54729 0.08247 0.0
C779 C 0.55234 0.56034 0.06379 0.0
C780 C 0.53946 0.52409 0.05022 0.0
C781 C 0.50235 0.51786 0.0378 0.0
C782 C 0.57675 0.53011 0.03802 0.0
C783 C 0.52656 0.48853 0.06417 0.0
C784 C 0.53168 0.50248 0.08271 0.0
C785 C 0.52248 0.47521 0.098 0.0
C786 C 0.50739 0.43256 0.0942 0.0
C787 C 0.5012 0.41764 0.07529 0.0
C788 C 0.51108 0.44617 0.06015 0.0
H789 H 1.01336 0.59887 0.41335 0.0
H790 H 0.89527 0.48599 0.40159 0.0
H791 H 0.93194 0.4456 0.40022 0.0
H792 H 0.0749 0.57507 0.38135 0.0
H793 H 0.12043 0.59696 0.39648 0.0
H794 H 0.08473 0.61722 0.39737 0.0
H795 H 0.07543 0.60291 0.43353 0.0
H796 H 0.11096 0.5824 0.43274 0.0
H797 H 0.05899 0.55093 0.44224 0.0
H798 H 0.98092 0.41693 0.39973 0.0
H799 H 0.03953 0.40246 0.39907 0.0
H800 H 0.12682 0.53383 0.40975 0.0
C801 C 0.99498 0.56575 0.41041 0.0
C802 C 0.95096 0.54596 0.40775 0.0
C803 C 0.92866 0.50226 0.40404 0.0
C804 C 0.94931 0.47885 0.40313 0.0
C805 C 0.99246 0.49937 0.40586 0.0
C806 C 1.01515 0.54184 0.40932 0.0
C807 C 0.06153 0.55632 0.41121 0.0
C808 C 0.08688 0.58828 0.39568 0.0
C809 C 0.07766 0.57419 0.43112 0.0
C810 C 0.06127 0.51529 0.40821 0.0
C811 C 1.02102 0.48287 0.40523 0.0
C812 C 1.01261 0.4421 0.40196 0.0
C813 C 0.04625 0.43425 0.40149 0.0
C814 C 0.08801 0.46699 0.40419 0.0
C815 C 0.09537 0.50802 0.40779 0.0
H816 H 0.59402 0.02572 0.75465 0.0
H817 H 0.60976 0.13963 0.72831 0.0
H818 H 0.53372 0.10578 0.7234 0.0
H819 H 0.51592 0.95557 0.72255 0.0
H820 H 0.48724 0.91663 0.74039 0.0
H821 H 0.5428 0.95074 0.74298 0.0
H822 H 0.53074 0.97421 0.77595 0.0
H823 H 0.47508 0.94031 0.77342 0.0
H824 H 0.49583 0.9953 0.77806 0.0
H825 H 0.45609 0.0591 0.72049 0.0
H826 H 0.38286 1.00216 0.71876 0.0
H827 H 0.41808 0.91768 0.74557 0.0
C828 C 0.5819 0.04382 0.7478 0.0
C829 C 0.60857 0.08576 0.742 0.0
C830 C 0.59051 0.10785 0.73321 0.0
C831 C 0.54715 0.0888 0.73027 0.0
C832 C 0.52207 0.04753 0.73612 0.0
C833 C 0.53877 0.02523 0.74462 0.0
C834 C 0.50512 0.98069 0.74888 0.0
C835 C 0.51326 0.94905 0.73805 0.0
C836 C 0.50148 0.97214 0.77035 0.0
C837 C 0.46687 0.98134 0.74129 0.0
C838 C 0.47734 0.0203 0.73412 0.0
C839 C 0.44753 0.02844 0.72603 0.0
C840 C 0.40602 0.99575 0.725 0.0
C841 C 0.39457 0.95523 0.7319 0.0
C842 C 0.42554 0.94828 0.74036 0.0
H843 H 0.58257 0.48707 0.66317 0.0
H844 H 0.6262 0.54411 0.60793 0.0
H845 H 0.55468 0.52972 0.60002 0.0
H846 H 0.4826 0.40473 0.64783 0.0
H847 H 0.45563 0.40649 0.66886 0.0
H848 H 0.51026 0.42156 0.67008 0.0
H849 H 0.5274 0.49358 0.68405 0.0
H850 H 0.47281 0.4787 0.68292 0.0
H851 H 0.51133 0.5259 0.67137 0.0
H852 H 0.47803 0.51012 0.59857 0.0
H853 H 0.4024 0.48455 0.60328 0.0
H854 H 0.40999 0.44048 0.65943 0.0
C855 C 0.57723 0.49688 0.64947 0.0
C856 C 0.61004 0.51683 0.63619 0.0
C857 C 0.60148 0.52844 0.61826 0.0
C858 C 0.56101 0.5206 0.61369 0.0
C859 C 0.52941 0.50093 0.62716 0.0
C860 C 0.53708 0.48909 0.64466 0.0
C861 C 0.49774 0.46799 0.65657 0.0
C862 C 0.48586 0.42249 0.66109 0.0
C863 C 0.50263 0.49305 0.6748 0.0
C864 C 0.46668 0.46986 0.64307 0.0
C865 C 0.48549 0.48912 0.62621 0.0
C866 C 0.46298 0.49491 0.61171 0.0
C867 C 0.42013 0.48049 0.61454 0.0
C868 C 0.40022 0.46031 0.63167 0.0
C869 C 0.42405 0.4551 0.64606 0.0
H870 H 0.11378 0.62063 0.95225 0.0
H871 H 0.07072 0.64644 1.00526 0.0
H872 H 1.01707 0.57199 1.00784 0.0
H873 H 1.01294 0.54491 0.93463 0.0
H874 H 0.03109 0.51198 0.92418 0.0
H875 H 0.06627 0.56741 0.9265 0.0
H876 H 0.11851 0.55284 0.94519 0.0
H877 H 0.08351 0.49736 0.94289 0.0
H878 H 0.10085 0.52027 0.96606 0.0
H879 H 0.96753 0.49451 1.00456 0.0
H880 H 0.92685 0.41971 0.99586 0.0
H881 H 1.00256 0.44448 0.94518 0.0
C882 C 0.09342 0.61067 0.96451 0.0
C883 C 0.09654 0.63967 0.97852 0.0
C884 C 0.06869 0.62514 0.99418 0.0
C885 C 0.0382 0.58279 0.99584 0.0
C886 C 0.03588 0.55517 0.98174 0.0
C887 C 0.06279 0.56848 0.96639 0.0
C888 C 0.05356 0.53244 0.95315 0.0
C889 C 0.04016 0.53962 0.93345 0.0
C890 C 0.09136 0.52531 0.95175 0.0
C891 C 1.01734 0.49678 0.96348 0.0
C892 C 1.00754 0.51055 0.97991 0.0
C893 C 0.97494 0.48337 0.99171 0.0
C894 C 0.95182 0.44096 0.9866 0.0
C895 C 0.96145 0.42605 0.96986 0.0
C896 C 0.99471 0.4546 0.9582 0.0
H897 H 0.57705 0.97251 0.32586 0.0
H898 H 0.56637 0.94306 0.26586 0.0
H899 H 0.53945 0.99201 0.26004 0.0
H900 H 0.48255 0.97825 0.32911 0.0
H901 H 0.50368 0.02056 0.34604 0.0
H902 H 0.52325 0.98429 0.34526 0.0
H903 H 0.59872 0.04594 0.34062 0.0
H904 H 0.57938 0.0824 0.34141 0.0
H905 H 0.60958 0.08208 0.32132 0.0
H906 H 0.51521 0.04587 0.26087 0.0
H907 H 0.49115 0.09637 0.2686 0.0
H908 H 0.51531 0.08801 0.32819 0.0
C909 C 0.5694 0.97669 0.31148 0.0
C910 C 0.57403 0.95426 0.29627 0.0
C911 C 0.56286 0.95985 0.2777 0.0
C912 C 0.54776 0.9877 0.27427 0.0
C913 C 0.54358 1.00936 0.2896 0.0
C914 C 0.55375 1.00385 0.30787 0.0
C915 C 0.54507 0.02973 0.32197 0.0
C916 C 0.51165 1.00151 0.33645 0.0
C917 C 0.58561 0.06195 0.33191 0.0
C918 C 0.5286 0.05083 0.3088 0.0
C919 C 0.5283 0.03901 0.29016 0.0
C920 C 0.51515 0.05517 0.27544 0.0
C921 C 0.50172 0.08394 0.27992 0.0
C922 C 0.50108 0.09583 0.29898 0.0
C923 C 0.51481 0.07899 0.31353 0.0
loop_
_geom_bond_atom_site_label_1
_geom_bond_atom_site_label_2
_geom_bond_distance
_geom_bond_site_symmetry_2
_ccdc_geom_bond_type
Cu0 N1 1.999 . S
Cu0 O6 1.974 . S
Cu0 N11 1.985 . S
Cu0 O20 1.959 . S
N1 Cu0 1.999 . S
N1 C3 1.263 . S
N1 C5 1.389 . S
N2 C3 1.358 . S
N2 C4 1.400 . S
C3 N1 1.263 . S
C3 N2 1.358 . S
C3 H9 0.930 . S
C4 N2 1.400 . S
C4 C5 1.351 . S
C4 H21 0.930 . S
C5 N1 1.389 . S
C5 C4 1.351 . S
C5 H10 0.930 . S
O6 Cu0 1.974 . S
O6 C16 1.282 . S
C7 O8 1.261 . S
C7 O20 1.251 . S
O8 C7 1.261 . S
H9 C3 0.930 . S
H10 C5 0.930 . S
N11 Cu0 1.985 . S
N11 C13 1.335 . S
N11 C14 1.390 . S
N12 C13 1.345 . S
N12 C15 1.336 . S
C13 N11 1.335 . S
C13 N12 1.345 . S
C13 H18 0.930 . S
C14 N11 1.390 . S
C14 C15 1.346 . S
C14 H19 0.930 . S
C15 N12 1.336 . S
C15 C14 1.346 . S
C15 H22 0.929 . S
C16 O6 1.282 . S
C16 O17 1.216 . S
O17 C16 1.216 . S
H18 C13 0.930 . S
H19 C14 0.930 . S
O20 Cu0 1.959 . S
O20 C7 1.251 . S
H21 C4 0.930 . S
H22 C15 0.929 . S
Cu23 N24 1.999 . S
Cu23 O29 1.974 . S
Cu23 N34 1.985 . S
Cu23 O43 1.959 . S
N24 Cu23 1.999 . S
N24 C26 1.263 . S
N24 C28 1.389 . S
N25 C26 1.358 . S
N25 C27 1.400 . S
C26 N24 1.263 . S
C26 N25 1.358 . S
C26 H32 0.930 . S
C27 N25 1.400 . S
C27 C28 1.351 . S
C27 H44 0.930 . S
C28 N24 1.389 . S
C28 C27 1.351 . S
C28 H33 0.930 . S
O29 Cu23 1.974 . S
O29 C39 1.282 . S
C30 O31 1.261 . S
C30 O43 1.251 . S
O31 C30 1.261 . S
H32 C26 0.930 . S
H33 C28 0.930 . S
N34 Cu23 1.985 . S
N34 C36 1.335 . S
N34 C37 1.390 . S
N35 C36 1.345 . S
N35 C38 1.336 . S
C36 N34 1.335 . S
C36 N35 1.345 . S
C36 H41 0.930 . S
C37 N34 1.390 . S
C37 C38 1.346 . S
C37 H42 0.930 . S
C38 N35 1.336 . S
C38 C37 1.346 . S
C38 H45 0.929 . S
C39 O29 1.282 . S
C39 O40 1.216 . S
O40 C39 1.216 . S
H41 C36 0.930 . S
H42 C37 0.930 . S
O43 Cu23 1.959 . S
O43 C30 1.251 . S
H44 C27 0.930 . S
H45 C38 0.929 . S
Cu46 N47 1.999 . S
Cu46 O52 1.974 . S
Cu46 N57 1.985 . S
Cu46 O66 1.959 . S
N47 Cu46 1.999 . S
N47 C49 1.263 . S
N47 C51 1.389 . S
N48 C49 1.358 . S
N48 C50 1.400 . S
C49 N47 1.263 . S
C49 N48 1.358 . S
C49 H55 0.930 . S
C50 N48 1.400 . S
C50 C51 1.351 . S
C50 H67 0.930 . S
C51 N47 1.389 . S
C51 C50 1.351 . S
C51 H56 0.930 . S
O52 Cu46 1.974 . S
O52 C62 1.282 . S
C53 O54 1.261 . S
C53 O66 1.251 . S
O54 C53 1.261 . S
H55 C49 0.930 . S
H56 C51 0.930 . S
N57 Cu46 1.985 . S
N57 C59 1.335 . S
N57 C60 1.390 . S
N58 C59 1.345 . S
N58 C61 1.336 . S
C59 N57 1.335 . S
C59 N58 1.345 . S
C59 H64 0.930 . S
C60 N57 1.390 . S
C60 C61 1.346 . S
C60 H65 0.930 . S
C61 N58 1.336 . S
C61 C60 1.346 . S
C61 H68 0.929 . S
C62 O52 1.282 . S
C62 O63 1.216 . S
O63 C62 1.216 . S
H64 C59 0.930 . S
H65 C60 0.930 . S
O66 Cu46 1.959 . S
O66 C53 1.251 . S
H67 C50 0.930 . S
H68 C61 0.929 . S
Cu69 N70 1.999 . S
Cu69 O75 1.974 . S
Cu69 N80 1.985 . S
Cu69 O89 1.959 . S
N70 Cu69 1.999 . S
N70 C72 1.263 . S
N70 C74 1.389 . S
N71 C72 1.358 . S
N71 C73 1.400 . S
C72 N70 1.263 . S
C72 N71 1.358 . S
C72 H78 0.930 . S
C73 N71 1.400 . S
C73 C74 1.351 . S
C73 H90 0.930 . S
C74 N70 1.389 . S
C74 C73 1.351 . S
C74 H79 0.930 . S
O75 Cu69 1.974 . S
O75 C85 1.282 . S
C76 O77 1.261 . S
C76 O89 1.251 . S
O77 C76 1.261 . S
H78 C72 0.930 . S
H79 C74 0.930 . S
N80 Cu69 1.985 . S
N80 C82 1.335 . S
N80 C83 1.390 . S
N81 C82 1.345 . S
N81 C84 1.336 . S
C82 N80 1.335 . S
C82 N81 1.345 . S
C82 H87 0.930 . S
C83 N80 1.390 . S
C83 C84 1.346 . S
C83 H88 0.930 . S
C84 N81 1.336 . S
C84 C83 1.346 . S
C84 H91 0.929 . S
C85 O75 1.282 . S
C85 O86 1.216 . S
O86 C85 1.216 . S
H87 C82 0.930 . S
H88 C83 0.930 . S
O89 Cu69 1.959 . S
O89 C76 1.251 . S
H90 C73 0.930 . S
H91 C84 0.929 . S
Cu92 N93 1.999 . S
Cu92 O98 1.974 . S
Cu92 N103 1.985 . S
Cu92 O112 1.959 . S
N93 Cu92 1.999 . S
N93 C95 1.263 . S
N93 C97 1.389 . S
N94 C95 1.358 . S
N94 C96 1.400 . S
C95 N93 1.263 . S
C95 N94 1.358 . S
C95 H101 0.930 . S
C96 N94 1.400 . S
C96 C97 1.351 . S
C96 H113 0.930 . S
C97 N93 1.389 . S
C97 C96 1.351 . S
C97 H102 0.930 . S
O98 Cu92 1.974 . S
O98 C108 1.282 . S
C99 O100 1.261 . S
C99 O112 1.251 . S
O100 C99 1.261 . S
H101 C95 0.930 . S
H102 C97 0.930 . S
N103 Cu92 1.985 . S
N103 C105 1.335 . S
N103 C106 1.390 . S
N104 C105 1.345 . S
N104 C107 1.336 . S
C105 N103 1.335 . S
C105 N104 1.345 . S
C105 H110 0.930 . S
C106 N103 1.390 . S
C106 C107 1.346 . S
C106 H111 0.930 . S
C107 N104 1.336 . S
C107 C106 1.346 . S
C107 H114 0.929 . S
C108 O98 1.282 . S
C108 O109 1.216 . S
O109 C108 1.216 . S
H110 C105 0.930 . S
H111 C106 0.930 . S
O112 Cu92 1.959 . S
O112 C99 1.251 . S
H113 C96 0.930 . S
H114 C107 0.929 . S
Cu115 N116 1.999 . S
Cu115 O121 1.974 . S
Cu115 N126 1.985 . S
Cu115 O135 1.959 . S
N116 Cu115 1.999 . S
N116 C118 1.263 . S
N116 C120 1.389 . S
N117 C118 1.358 . S
N117 C119 1.400 . S
C118 N116 1.263 . S
C118 N117 1.358 . S
C118 H124 0.930 . S
C119 N117 1.400 . S
C119 C120 1.351 . S
C119 H136 0.930 . S
C120 N116 1.389 . S
C120 C119 1.351 . S
C120 H125 0.930 . S
O121 Cu115 1.974 . S
O121 C131 1.282 . S
C122 O123 1.261 . S
C122 O135 1.251 . S
O123 C122 1.261 . S
H124 C118 0.930 . S
H125 C120 0.930 . S
N126 Cu115 1.985 . S
N126 C128 1.335 . S
N126 C129 1.390 . S
N127 C128 1.345 . S
N127 C130 1.336 . S
C128 N126 1.335 . S
C128 N127 1.345 . S
C128 H133 0.930 . S
C129 N126 1.390 . S
C129 C130 1.346 . S
C129 H134 0.930 . S
C130 N127 1.336 . S
C130 C129 1.346 . S
C130 H137 0.929 . S
C131 O121 1.282 . S
C131 O132 1.216 . S
O132 C131 1.216 . S
H133 C128 0.930 . S
H134 C129 0.930 . S
O135 Cu115 1.959 . S
O135 C122 1.251 . S
H136 C119 0.930 . S
H137 C130 0.929 . S
Cu138 N139 1.999 . S
Cu138 O144 1.974 . S
Cu138 N149 1.985 . S
Cu138 O158 1.959 . S
N139 Cu138 1.999 . S
N139 C141 1.263 . S
N139 C143 1.389 . S
N140 C141 1.358 . S
N140 C142 1.400 . S
C141 N139 1.263 . S
C141 N140 1.358 . S
C141 H147 0.930 . S
C142 N140 1.400 . S
C142 C143 1.351 . S
C142 H159 0.930 . S
C143 N139 1.389 . S
C143 C142 1.351 . S
C143 H148 0.930 . S
O144 Cu138 1.974 . S
O144 C154 1.282 . S
C145 O146 1.261 . S
C145 O158 1.251 . S
O146 C145 1.261 . S
H147 C141 0.930 . S
H148 C143 0.930 . S
N149 Cu138 1.985 . S
N149 C151 1.335 . S
N149 C152 1.390 . S
N150 C151 1.345 . S
N150 C153 1.336 . S
C151 N149 1.335 . S
C151 N150 1.345 . S
C151 H156 0.930 . S
C152 N149 1.390 . S
C152 C153 1.346 . S
C152 H157 0.930 . S
C153 N150 1.336 . S
C153 C152 1.346 . S
C153 H160 0.929 . S
C154 O144 1.282 . S
C154 O155 1.216 . S
O155 C154 1.216 . S
H156 C151 0.930 . S
H157 C152 0.930 . S
O158 Cu138 1.959 . S
O158 C145 1.251 . S
H159 C142 0.930 . S
H160 C153 0.929 . S
Cu161 N162 1.999 . S
Cu161 O167 1.974 . S
Cu161 N172 1.985 . S
Cu161 O181 1.959 . S
N162 Cu161 1.999 . S
N162 C164 1.263 . S
N162 C166 1.389 . S
N163 C164 1.358 . S
N163 C165 1.400 . S
C164 N162 1.263 . S
C164 N163 1.358 . S
C164 H170 0.930 . S
C165 N163 1.400 . S
C165 C166 1.351 . S
C165 H182 0.930 . S
C166 N162 1.389 . S
C166 C165 1.351 . S
C166 H171 0.930 . S
O167 Cu161 1.974 . S
O167 C177 1.282 . S
C168 O169 1.261 . S
C168 O181 1.251 . S
O169 C168 1.261 . S
H170 C164 0.930 . S
H171 C166 0.930 . S
N172 Cu161 1.985 . S
N172 C174 1.335 . S
N172 C175 1.390 . S
N173 C174 1.345 . S
N173 C176 1.336 . S
C174 N172 1.335 . S
C174 N173 1.345 . S
C174 H179 0.930 . S
C175 N172 1.390 . S
C175 C176 1.346 . S
C175 H180 0.930 . S
C176 N173 1.336 . S
C176 C175 1.346 . S
C176 H183 0.929 . S
C177 O167 1.282 . S
C177 O178 1.216 . S
O178 C177 1.216 . S
H179 C174 0.930 . S
H180 C175 0.930 . S
O181 Cu161 1.959 . S
O181 C168 1.251 . S
H182 C165 0.930 . S
H183 C176 0.929 . S
Cu184 N185 1.999 . S
Cu184 O190 1.974 . S
Cu184 N195 1.985 . S
Cu184 O204 1.959 . S
N185 Cu184 1.999 . S
N185 C187 1.263 . S
N185 C189 1.389 . S
N186 C187 1.358 . S
N186 C188 1.400 . S
C187 N185 1.263 . S
C187 N186 1.358 . S
C187 H193 0.930 . S
C188 N186 1.400 . S
C188 C189 1.351 . S
C188 H205 0.930 . S
C189 N185 1.389 . S
C189 C188 1.351 . S
C189 H194 0.930 . S
O190 Cu184 1.974 . S
O190 C200 1.282 . S
C191 O192 1.261 . S
C191 O204 1.251 . S
O192 C191 1.261 . S
H193 C187 0.930 . S
H194 C189 0.930 . S
N195 Cu184 1.985 . S
N195 C197 1.335 . S
N195 C198 1.390 . S
N196 C197 1.345 . S
N196 C199 1.336 . S
C197 N195 1.335 . S
C197 N196 1.345 . S
C197 H202 0.930 . S
C198 N195 1.390 . S
C198 C199 1.346 . S
C198 H203 0.930 . S
C199 N196 1.336 . S
C199 C198 1.346 . S
C199 H206 0.929 . S
C200 O190 1.282 . S
C200 O201 1.216 . S
O201 C200 1.216 . S
H202 C197 0.930 . S
H203 C198 0.930 . S
O204 Cu184 1.959 . S
O204 C191 1.251 . S
H205 C188 0.930 . S
H206 C199 0.929 . S
Cu207 N208 1.999 . S
Cu207 O213 1.974 . S
Cu207 N218 1.985 . S
Cu207 O227 1.959 . S
N208 Cu207 1.999 . S
N208 C210 1.263 . S
N208 C212 1.389 . S
N209 C210 1.358 . S
N209 C211 1.400 . S
C210 N208 1.263 . S
C210 N209 1.358 . S
C210 H216 0.930 . S
C211 N209 1.400 . S
C211 C212 1.351 . S
C211 H228 0.930 . S
C212 N208 1.389 . S
C212 C211 1.351 . S
C212 H217 0.930 . S
O213 Cu207 1.974 . S
O213 C223 1.282 . S
C214 O215 1.261 . S
C214 O227 1.251 . S
O215 C214 1.261 . S
H216 C210 0.930 . S
H217 C212 0.930 . S
N218 Cu207 1.985 . S
N218 C220 1.335 . S
N218 C221 1.390 . S
N219 C220 1.345 . S
N219 C222 1.336 . S
C220 N218 1.335 . S
C220 N219 1.345 . S
C220 H225 0.930 . S
C221 N218 1.390 . S
C221 C222 1.346 . S
C221 H226 0.930 . S
C222 N219 1.336 . S
C222 C221 1.346 . S
C222 H229 0.929 . S
C223 O213 1.282 . S
C223 O224 1.216 . S
O224 C223 1.216 . S
H225 C220 0.930 . S
H226 C221 0.930 . S
O227 Cu207 1.959 . S
O227 C214 1.251 . S
H228 C211 0.930 . S
H229 C222 0.929 . S
Cu230 N231 1.999 . S
Cu230 O236 1.974 . S
Cu230 N241 1.985 . S
Cu230 O250 1.959 . S
N231 Cu230 1.999 . S
N231 C233 1.263 . S
N231 C235 1.389 . S
N232 C233 1.358 . S
N232 C234 1.400 . S
C233 N231 1.263 . S
C233 N232 1.358 . S
C233 H239 0.930 . S
C234 N232 1.400 . S
C234 C235 1.351 . S
C234 H251 0.930 . S
C235 N231 1.389 . S
C235 C234 1.351 . S
C235 H240 0.930 . S
O236 Cu230 1.974 . S
O236 C246 1.282 . S
C237 O238 1.261 . S
C237 O250 1.251 . S
O238 C237 1.261 . S
H239 C233 0.930 . S
H240 C235 0.930 . S
N241 Cu230 1.985 . S
N241 C243 1.335 . S
N241 C244 1.390 . S
N242 C243 1.345 . S
N242 C245 1.336 . S
C243 N241 1.335 . S
C243 N242 1.345 . S
C243 H248 0.930 . S
C244 N241 1.390 . S
C244 C245 1.346 . S
C244 H249 0.930 . S
C245 N242 1.336 . S
C245 C244 1.346 . S
C245 H252 0.929 . S
C246 O236 1.282 . S
C246 O247 1.216 . S
O247 C246 1.216 . S
H248 C243 0.930 . S
H249 C244 0.930 . S
O250 Cu230 1.959 . S
O250 C237 1.251 . S
H251 C234 0.930 . S
H252 C245 0.929 . S
Cu253 N254 1.999 . S
Cu253 O259 1.974 . S
Cu253 N264 1.985 . S
Cu253 O273 1.959 . S
N254 Cu253 1.999 . S
N254 C256 1.263 . S
N254 C258 1.389 . S
N255 C256 1.358 . S
N255 C257 1.400 . S
C256 N254 1.263 . S
C256 N255 1.358 . S
C256 H262 0.930 . S
C257 N255 1.400 . S
C257 C258 1.351 . S
C257 H274 0.930 . S
C258 N254 1.389 . S
C258 C257 1.351 . S
C258 H263 0.930 . S
O259 Cu253 1.974 . S
O259 C269 1.282 . S
C260 O261 1.261 . S
C260 O273 1.251 . S
O261 C260 1.261 . S
H262 C256 0.930 . S
H263 C258 0.930 . S
N264 Cu253 1.985 . S
N264 C266 1.335 . S
N264 C267 1.390 . S
N265 C266 1.345 . S
N265 C268 1.336 . S
C266 N264 1.335 . S
C266 N265 1.345 . S
C266 H271 0.930 . S
C267 N264 1.390 . S
C267 C268 1.346 . S
C267 H272 0.930 . S
C268 N265 1.336 . S
C268 C267 1.346 . S
C268 H275 0.929 . S
C269 O259 1.282 . S
C269 O270 1.216 . S
O270 C269 1.216 . S
H271 C266 0.930 . S
H272 C267 0.930 . S
O273 Cu253 1.959 . S
O273 C260 1.251 . S
H274 C257 0.930 . S
H275 C268 0.929 . S
H276 C288 0.930 . S
H277 C290 0.930 . S
H278 C291 0.901 1_554 S
H279 C295 0.959 . S
H280 C295 0.959 . S
H281 C295 0.961 . S
H282 C296 0.960 . S
H283 C296 0.961 . S
H284 C296 0.959 . S
H285 C299 0.916 1_565 S
H286 C300 0.931 . S
H287 C302 0.930 . S
C288 H276 0.930 . S
C288 C289 1.399 . S
C288 C293 1.399 . S
C289 C288 1.399 . S
C289 C290 1.376 . S
C290 H277 0.930 . S
C290 C289 1.376 . S
C290 C291 1.417 . S
C291 H278 0.901 1_556 S
C291 C290 1.417 . S
C291 C292 1.392 . S
C292 C291 1.392 . S
C292 C293 1.394 . S
C292 C298 1.465 1_566 S
C293 C288 1.399 . S
C293 C292 1.394 . S
C293 C294 1.516 1_565 S
C294 C293 1.516 1_545 S
C294 C295 1.502 . S
C294 C296 1.561 . S
C294 C297 1.526 1_556 S
C295 H279 0.959 . S
C295 H280 0.959 . S
C295 H281 0.961 . S
C295 C294 1.502 . S
C296 H282 0.960 . S
C296 H283 0.961 . S
C296 H284 0.959 . S
C296 C294 1.561 . S
C297 C294 1.526 1_554 S
C297 C298 1.396 . S
C297 C302 1.390 . S
C298 C292 1.465 1_544 S
C298 C297 1.396 . S
C298 C299 1.397 . S
C299 H285 0.916 1_545 S
C299 C298 1.397 . S
C299 C300 1.401 . S
C300 H286 0.931 . S
C300 C299 1.401 . S
C300 C301 1.389 . S
C301 C300 1.389 . S
C301 C302 1.387 . S
C302 H287 0.930 . S
C302 C297 1.390 . S
C302 C301 1.387 . S
H303 C315 0.930 . S
H304 C317 0.930 . S
H305 C318 0.930 . S
H306 C322 0.959 . S
H307 C322 0.959 . S
H308 C322 0.961 . S
H309 C323 0.960 . S
H310 C323 0.961 . S
H311 C323 0.959 . S
H312 C326 0.929 . S
H313 C327 0.931 . S
H314 C329 0.930 . S
C315 H303 0.930 . S
C315 C316 1.399 . S
C315 C320 1.399 . S
C316 C315 1.399 . S
C316 C317 1.376 . S
C317 H304 0.930 . S
C317 C316 1.376 . S
C317 C318 1.388 . S
C318 H305 0.930 . S
C318 C317 1.388 . S
C318 C319 1.390 . S
C319 C318 1.390 . S
C319 C320 1.394 . S
C319 C325 1.465 . S
C320 C315 1.399 . S
C320 C319 1.394 . S
C320 C321 1.516 . S
C321 C320 1.516 . S
C321 C322 1.502 . S
C321 C323 1.561 . S
C321 C324 1.526 . S
C322 H306 0.959 . S
C322 H307 0.959 . S
C322 H308 0.961 . S
C322 C321 1.502 . S
C323 H309 0.960 . S
C323 H310 0.961 . S
C323 H311 0.959 . S
C323 C321 1.561 . S
C324 C321 1.526 . S
C324 C325 1.396 . S
C324 C329 1.390 . S
C325 C319 1.465 . S
C325 C324 1.396 . S
C325 C326 1.399 . S
C326 H312 0.929 . S
C326 C325 1.399 . S
C326 C327 1.385 . S
C327 H313 0.931 . S
C327 C326 1.385 . S
C327 C328 1.389 . S
C328 C327 1.389 . S
C328 C329 1.387 . S
C329 H314 0.930 . S
C329 C324 1.390 . S
C329 C328 1.387 . S
H330 C342 0.930 . S
H331 C344 0.930 . S
H332 C345 0.930 . S
H333 C349 0.959 1_455 S
H334 C349 0.959 1_455 S
H335 C349 0.961 . S
H336 C350 0.960 . S
H337 C350 0.961 . S
H338 C350 0.959 . S
H339 C353 0.929 . S
H340 C354 0.931 . S
H341 C356 0.930 . S
C342 H330 0.930 . S
C342 C343 1.399 . S
C342 C347 1.399 . S
C343 C342 1.399 . S
C343 C344 1.376 . S
C344 H331 0.930 . S
C344 C343 1.376 . S
C344 C345 1.388 . S
C345 H332 0.930 . S
C345 C344 1.388 . S
C345 C346 1.390 . S
C346 C345 1.390 . S
C346 C347 1.394 . S
C346 C352 1.465 1_655 S
C347 C342 1.399 . S
C347 C346 1.394 . S
C347 C348 1.516 . S
C348 C347 1.516 . S
C348 C349 1.502 . S
C348 C350 1.561 . S
C348 C351 1.526 1_655 S
C349 H333 0.959 1_655 S
C349 H334 0.959 1_655 S
C349 H335 0.961 . S
C349 C348 1.502 . S
C350 H336 0.960 . S
C350 H337 0.961 . S
C350 H338 0.959 . S
C350 C348 1.561 . S
C351 C348 1.526 1_455 S
C351 C352 1.396 . S
C351 C356 1.390 . S
C352 C346 1.465 1_455 S
C352 C351 1.396 . S
C352 C353 1.399 . S
C353 H339 0.929 . S
C353 C352 1.399 . S
C353 C354 1.385 . S
C354 H340 0.931 . S
C354 C353 1.385 . S
C354 C355 1.389 . S
C355 C354 1.389 . S
C355 C356 1.387 . S
C356 H341 0.930 . S
C356 C351 1.390 . S
C356 C355 1.387 . S
H357 C369 0.930 . S
H358 C371 0.930 . S
H359 C372 0.930 1_545 S
H360 C376 0.959 . S
H361 C376 0.959 . S
H362 C376 0.961 . S
H363 C377 0.960 . S
H364 C377 0.961 . S
H365 C377 0.959 . S
H366 C380 0.929 1_554 S
H367 C381 0.931 . S
H368 C383 0.930 . S
C369 H357 0.930 . S
C369 C370 1.399 . S
C369 C374 1.399 . S
C370 C369 1.399 . S
C370 C371 1.376 . S
C371 H358 0.930 . S
C371 C370 1.376 . S
C371 C372 1.388 . S
C372 H359 0.930 1_565 S
C372 C371 1.388 . S
C372 C373 1.390 . S
C373 C372 1.390 . S
C373 C374 1.394 . S
C373 C379 1.465 1_564 S
C374 C369 1.399 . S
C374 C373 1.394 . S
C374 C375 1.516 1_554 S
C375 C374 1.516 1_556 S
C375 C376 1.502 . S
C375 C377 1.561 . S
C375 C378 1.526 1_565 S
C376 H360 0.959 . S
C376 H361 0.959 . S
C376 H362 0.961 . S
C376 C375 1.502 . S
C377 H363 0.960 . S
C377 H364 0.961 . S
C377 H365 0.959 . S
C377 C375 1.561 . S
C378 C375 1.526 1_545 S
C378 C379 1.396 . S
C378 C383 1.390 . S
C379 C373 1.465 1_546 S
C379 C378 1.396 . S
C379 C380 1.399 . S
C380 H366 0.929 1_556 S
C380 C379 1.399 . S
C380 C381 1.385 . S
C381 H367 0.931 . S
C381 C380 1.385 . S
C381 C382 1.389 . S
C382 C381 1.389 . S
C382 C383 1.387 . S
C383 H368 0.930 . S
C383 C378 1.390 . S
C383 C382 1.387 . S
H384 C396 0.930 . S
H385 C398 0.930 . S
H386 C399 0.930 . S
H387 C403 0.959 . S
H388 C403 0.959 . S
H389 C403 0.961 . S
H390 C404 0.960 . S
H391 C404 0.961 . S
H392 C404 0.959 . S
H393 C407 0.929 . S
H394 C408 0.931 . S
H395 C410 0.930 . S
C396 H384 0.930 . S
C396 C397 1.399 . S
C396 C401 1.399 . S
C397 C396 1.399 . S
C397 C398 1.376 . S
C398 H385 0.930 . S
C398 C397 1.376 . S
C398 C399 1.388 . S
C399 H386 0.930 . S
C399 C398 1.388 . S
C399 C400 1.390 . S
C400 C399 1.390 . S
C400 C401 1.394 . S
C400 C406 1.465 . S
C401 C396 1.399 . S
C401 C400 1.394 . S
C401 C402 1.516 . S
C402 C401 1.516 . S
C402 C403 1.502 . S
C402 C404 1.561 . S
C402 C405 1.526 . S
C403 H387 0.959 . S
C403 H388 0.959 . S
C403 H389 0.961 . S
C403 C402 1.502 . S
C404 H390 0.960 . S
C404 H391 0.961 . S
C404 H392 0.959 . S
C404 C402 1.561 . S
C405 C402 1.526 . S
C405 C406 1.396 . S
C405 C410 1.390 . S
C406 C400 1.465 . S
C406 C405 1.396 . S
C406 C407 1.399 . S
C407 H393 0.929 . S
C407 C406 1.399 . S
C407 C408 1.385 . S
C408 H394 0.931 . S
C408 C407 1.385 . S
C408 C409 1.389 . S
C409 C408 1.389 . S
C409 C410 1.387 . S
C410 H395 0.930 . S
C410 C405 1.390 . S
C410 C409 1.387 . S
H411 C423 0.930 . S
H412 C425 0.930 . S
H413 C426 0.930 . S
H414 C430 0.959 . S
H415 C430 0.959 . S
H416 C430 0.961 . S
H417 C431 0.960 . S
H418 C431 0.961 . S
H419 C431 0.959 . S
H420 C434 0.929 1_655 S
H421 C435 0.931 . S
H422 C437 0.930 . S
C423 H411 0.930 . S
C423 C424 1.399 . S
C423 C428 1.399 . S
C424 C423 1.399 . S
C424 C425 1.376 . S
C425 H412 0.930 . S
C425 C424 1.376 . S
C425 C426 1.388 . S
C426 H413 0.930 . S
C426 C425 1.388 . S
C426 C427 1.390 . S
C427 C426 1.390 . S
C427 C428 1.394 . S
C427 C433 1.465 1_655 S
C428 C423 1.399 . S
C428 C427 1.394 . S
C428 C429 1.516 1_655 S
C429 C428 1.516 1_455 S
C429 C430 1.502 . S
C429 C431 1.561 . S
C429 C432 1.526 . S
C430 H414 0.959 . S
C430 H415 0.959 . S
C430 H416 0.961 . S
C430 C429 1.502 . S
C431 H417 0.960 . S
C431 H418 0.961 . S
C431 H419 0.959 . S
C431 C429 1.561 . S
C432 C429 1.526 . S
C432 C433 1.396 . S
C432 C437 1.390 . S
C433 C427 1.465 1_455 S
C433 C432 1.396 . S
C433 C434 1.399 . S
C434 H420 0.929 1_455 S
C434 C433 1.399 . S
C434 C435 1.385 . S
C435 H421 0.931 . S
C435 C434 1.385 . S
C435 C436 1.389 . S
C436 C435 1.389 . S
C436 C437 1.387 . S
C437 H422 0.930 . S
C437 C432 1.390 . S
C437 C436 1.387 . S
H438 C450 0.930 . S
H439 C452 0.930 . S
H440 C453 0.930 . S
H441 C457 0.959 . S
H442 C457 0.959 . S
H443 C457 0.961 . S
H444 C458 0.960 . S
H445 C458 0.961 . S
H446 C458 0.959 . S
H447 C461 0.929 . S
H448 C462 0.931 . S
H449 C464 0.930 . S
C450 H438 0.930 . S
C450 C451 1.399 . S
C450 C455 1.399 . S
C451 C450 1.399 . S
C451 C452 1.376 . S
C452 H439 0.930 . S
C452 C451 1.376 . S
C452 C453 1.388 1_556 S
C453 H440 0.930 . S
C453 C452 1.388 1_554 S
C453 C454 1.390 . S
C454 C453 1.390 . S
C454 C455 1.394 1_554 S
C454 C460 1.465 . S
C455 C450 1.399 . S
C455 C454 1.394 1_556 S
C455 C456 1.516 . S
C456 C455 1.516 . S
C456 C457 1.502 . S
C456 C458 1.561 1_556 S
C456 C459 1.526 1_556 S
C457 H441 0.959 . S
C457 H442 0.959 . S
C457 H443 0.961 . S
C457 C456 1.502 . S
C458 H444 0.960 . S
C458 H445 0.961 . S
C458 H446 0.959 . S
C458 C456 1.561 1_554 S
C459 C456 1.526 1_554 S
C459 C460 1.396 . S
C459 C464 1.390 . S
C460 C454 1.465 . S
C460 C459 1.396 . S
C460 C461 1.399 . S
C461 H447 0.929 . S
C461 C460 1.399 . S
C461 C462 1.385 . S
C462 H448 0.931 . S
C462 C461 1.385 . S
C462 C463 1.389 . S
C463 C462 1.389 . S
C463 C464 1.387 . S
C464 H449 0.930 . S
C464 C459 1.390 . S
C464 C463 1.387 . S
H465 C477 0.930 . S
H466 C479 0.930 . S
H467 C480 0.930 . S
H468 C484 0.959 . S
H469 C484 0.959 . S
H470 C484 0.961 . S
H471 C485 0.960 . S
H472 C485 0.961 . S
H473 C485 0.959 . S
H474 C488 0.929 . S
H475 C489 0.931 . S
H476 C491 0.930 . S
C477 H465 0.930 . S
C477 C478 1.399 . S
C477 C482 1.399 . S
C478 C477 1.399 . S
C478 C479 1.376 . S
C479 H466 0.930 . S
C479 C478 1.376 . S
C479 C480 1.388 . S
C480 H467 0.930 . S
C480 C479 1.388 . S
C480 C481 1.390 . S
C481 C480 1.390 . S
C481 C482 1.394 . S
C481 C487 1.465 . S
C482 C477 1.399 . S
C482 C481 1.394 . S
C482 C483 1.516 . S
C483 C482 1.516 . S
C483 C484 1.502 . S
C483 C485 1.561 . S
C483 C486 1.526 . S
C484 H468 0.959 . S
C484 H469 0.959 . S
C484 H470 0.961 . S
C484 C483 1.502 . S
C485 H471 0.960 . S
C485 H472 0.961 . S
C485 H473 0.959 . S
C485 C483 1.561 . S
C486 C483 1.526 . S
C486 C487 1.396 . S
C486 C491 1.390 . S
C487 C481 1.465 . S
C487 C486 1.396 . S
C487 C488 1.399 . S
C488 H474 0.929 . S
C488 C487 1.399 . S
C488 C489 1.385 . S
C489 H475 0.931 . S
C489 C488 1.385 . S
C489 C490 1.389 . S
C490 C489 1.389 . S
C490 C491 1.387 . S
C491 H476 0.930 . S
C491 C486 1.390 . S
C491 C490 1.387 . S
H492 C504 0.930 . S
H493 C506 0.930 . S
H494 C507 0.930 . S
H495 C511 0.959 . S
H496 C511 0.959 . S
H497 C511 0.961 . S
H498 C512 0.960 . S
H499 C512 0.961 . S
H500 C512 0.959 . S
H501 C515 0.929 . S
H502 C516 0.931 . S
H503 C518 0.930 . S
C504 H492 0.930 . S
C504 C505 1.399 . S
C504 C509 1.399 . S
C505 C504 1.399 . S
C505 C506 1.376 . S
C506 H493 0.930 . S
C506 C505 1.376 . S
C506 C507 1.388 . S
C507 H494 0.930 . S
C507 C506 1.388 . S
C507 C508 1.390 . S
C508 C507 1.390 . S
C508 C509 1.394 . S
C508 C514 1.465 . S
C509 C504 1.399 . S
C509 C508 1.394 . S
C509 C510 1.516 . S
C510 C509 1.516 . S
C510 C511 1.502 . S
C510 C512 1.561 . S
C510 C513 1.526 . S
C511 H495 0.959 . S
C511 H496 0.959 . S
C511 H497 0.961 . S
C511 C510 1.502 . S
C512 H498 0.960 . S
C512 H499 0.961 . S
C512 H500 0.959 . S
C512 C510 1.561 . S
C513 C510 1.526 . S
C513 C514 1.396 . S
C513 C518 1.390 . S
C514 C508 1.465 . S
C514 C513 1.396 . S
C514 C515 1.399 . S
C515 H501 0.929 . S
C515 C514 1.399 . S
C515 C516 1.385 . S
C516 H502 0.931 . S
C516 C515 1.385 . S
C516 C517 1.389 . S
C517 C516 1.389 . S
C517 C518 1.387 . S
C518 H503 0.930 . S
C518 C513 1.390 . S
C518 C517 1.387 . S
H519 C531 0.930 . S
H520 C533 0.930 . S
H521 C534 0.930 . S
H522 C538 0.959 . S
H523 C538 0.959 . S
H524 C538 0.961 . S
H525 C539 0.960 1_556 S
H526 C539 0.961 . S
H527 C539 0.959 . S
H528 C542 0.929 . S
H529 C543 0.931 . S
H530 C545 0.930 . S
C531 H519 0.930 . S
C531 C532 1.399 . S
C531 C536 1.399 . S
C532 C531 1.399 . S
C532 C533 1.376 . S
C533 H520 0.930 . S
C533 C532 1.376 . S
C533 C534 1.388 1_556 S
C534 H521 0.930 . S
C534 C533 1.388 1_554 S
C534 C535 1.390 . S
C535 C534 1.390 . S
C535 C536 1.394 1_554 S
C535 C541 1.465 . S
C536 C531 1.399 . S
C536 C535 1.394 1_556 S
C536 C537 1.516 . S
C537 C536 1.516 . S
C537 C538 1.502 . S
C537 C539 1.561 1_556 S
C537 C540 1.526 1_556 S
C538 H522 0.959 . S
C538 H523 0.959 . S
C538 H524 0.961 . S
C538 C537 1.502 . S
C539 H525 0.960 1_554 S
C539 H526 0.961 . S
C539 H527 0.959 . S
C539 C537 1.561 1_554 S
C540 C537 1.526 1_554 S
C540 C541 1.396 . S
C540 C545 1.390 . S
C541 C535 1.465 . S
C541 C540 1.396 . S
C541 C542 1.399 . S
C542 H528 0.929 . S
C542 C541 1.399 . S
C542 C543 1.385 . S
C543 H529 0.931 . S
C543 C542 1.385 . S
C543 C544 1.389 . S
C544 C543 1.389 . S
C544 C545 1.387 . S
C545 H530 0.930 . S
C545 C540 1.390 . S
C545 C544 1.387 . S
H546 C558 0.930 . S
H547 C560 0.930 . S
H548 C561 0.930 . S
H549 C565 0.959 . S
H550 C565 0.959 . S
H551 C565 0.961 . S
H552 C566 0.960 . S
H553 C566 0.961 . S
H554 C566 0.959 . S
H555 C569 0.929 . S
H556 C570 0.931 . S
H557 C572 0.930 . S
C558 H546 0.930 . S
C558 C559 1.399 . S
C558 C563 1.399 . S
C559 C558 1.399 . S
C559 C560 1.376 . S
C560 H547 0.930 . S
C560 C559 1.376 . S
C560 C561 1.388 . S
C561 H548 0.930 . S
C561 C560 1.388 . S
C561 C562 1.390 . S
C562 C561 1.390 . S
C562 C563 1.394 . S
C562 C568 1.465 . S
C563 C558 1.399 . S
C563 C562 1.394 . S
C563 C564 1.516 . S
C564 C563 1.516 . S
C564 C565 1.502 . S
C564 C566 1.561 . S
C564 C567 1.526 . S
C565 H549 0.959 . S
C565 H550 0.959 . S
C565 H551 0.961 . S
C565 C564 1.502 . S
C566 H552 0.960 . S
C566 H553 0.961 . S
C566 H554 0.959 . S
C566 C564 1.561 . S
C567 C564 1.526 . S
C567 C568 1.396 . S
C567 C572 1.390 . S
C568 C562 1.465 . S
C568 C567 1.396 . S
C568 C569 1.399 . S
C569 H555 0.929 . S
C569 C568 1.399 . S
C569 C570 1.385 . S
C570 H556 0.931 . S
C570 C569 1.385 . S
C570 C571 1.389 . S
C571 C570 1.389 . S
C571 C572 1.387 . S
C572 H557 0.930 . S
C572 C567 1.390 . S
C572 C571 1.387 . S
H573 C585 0.930 . S
H574 C587 0.930 . S
H575 C588 0.930 . S
H576 C592 0.959 . S
H577 C592 0.959 . S
H578 C592 0.961 . S
H579 C593 0.960 . S
H580 C593 0.961 . S
H581 C593 0.959 . S
H582 C596 0.929 . S
H583 C597 0.931 . S
H584 C599 0.930 . S
C585 H573 0.930 . S
C585 C586 1.399 . S
C585 C590 1.399 . S
C586 C585 1.399 . S
C586 C587 1.376 . S
C587 H574 0.930 . S
C587 C586 1.376 . S
C587 C588 1.388 . S
C588 H575 0.930 . S
C588 C587 1.388 . S
C588 C589 1.390 . S
C589 C588 1.390 . S
C589 C590 1.394 . S
C589 C595 1.465 . S
C590 C585 1.399 . S
C590 C589 1.394 . S
C590 C591 1.516 . S
C591 C590 1.516 . S
C591 C592 1.502 . S
C591 C593 1.561 . S
C591 C594 1.526 . S
C592 H576 0.959 . S
C592 H577 0.959 . S
C592 H578 0.961 . S
C592 C591 1.502 . S
C593 H579 0.960 . S
C593 H580 0.961 . S
C593 H581 0.959 . S
C593 C591 1.561 . S
C594 C591 1.526 . S
C594 C595 1.396 . S
C594 C599 1.390 . S
C595 C589 1.465 . S
C595 C594 1.396 . S
C595 C596 1.399 . S
C596 H582 0.929 . S
C596 C595 1.399 . S
C596 C597 1.385 . S
C597 H583 0.931 . S
C597 C596 1.385 . S
C597 C598 1.389 . S
C598 C597 1.389 . S
C598 C599 1.387 . S
C599 H584 0.930 . S
C599 C594 1.390 . S
C599 C598 1.387 . S
H600 C612 0.930 . S
H601 C614 0.930 . S
H602 C615 0.930 . S
H603 C619 0.959 . S
H604 C619 0.959 . S
H605 C619 0.961 . S
H606 C620 0.960 . S
H607 C620 0.961 . S
H608 C620 0.959 . S
H609 C623 0.929 . S
H610 C624 0.931 . S
H611 C626 0.930 . S
C612 H600 0.930 . S
C612 C613 1.399 . S
C612 C617 1.399 . S
C613 C612 1.399 . S
C613 C614 1.376 . S
C614 H601 0.930 . S
C614 C613 1.376 . S
C614 C615 1.388 . S
C615 H602 0.930 . S
C615 C614 1.388 . S
C615 C616 1.390 . S
C616 C615 1.390 . S
C616 C617 1.394 . S
C616 C622 1.465 . S
C617 C612 1.399 . S
C617 C616 1.394 . S
C617 C618 1.516 . S
C618 C617 1.516 . S
C618 C619 1.502 . S
C618 C620 1.561 . S
C618 C621 1.526 . S
C619 H603 0.959 . S
C619 H604 0.959 . S
C619 H605 0.961 . S
C619 C618 1.502 . S
C620 H606 0.960 . S
C620 H607 0.961 . S
C620 H608 0.959 . S
C620 C618 1.561 . S
C621 C618 1.526 . S
C621 C622 1.396 . S
C621 C626 1.390 . S
C622 C616 1.465 . S
C622 C621 1.396 . S
C622 C623 1.399 . S
C623 H609 0.929 . S
C623 C622 1.399 . S
C623 C624 1.385 . S
C624 H610 0.931 . S
C624 C623 1.385 . S
C624 C625 1.389 . S
C625 C624 1.389 . S
C625 C626 1.387 . S
C626 H611 0.930 . S
C626 C621 1.390 . S
C626 C625 1.387 . S
H627 C639 0.930 . S
H628 C641 0.930 . S
H629 C642 0.930 . S
H630 C646 0.959 . S
H631 C646 0.959 . S
H632 C646 0.961 . S
H633 C647 0.960 . S
H634 C647 0.961 . S
H635 C647 0.959 . S
H636 C650 0.929 . S
H637 C651 0.931 . S
H638 C653 0.930 . S
C639 H627 0.930 . S
C639 C640 1.399 . S
C639 C644 1.399 . S
C640 C639 1.399 . S
C640 C641 1.376 . S
C641 H628 0.930 . S
C641 C640 1.376 . S
C641 C642 1.388 . S
C642 H629 0.930 . S
C642 C641 1.388 . S
C642 C643 1.390 . S
C643 C642 1.390 . S
C643 C644 1.394 . S
C643 C649 1.465 . S
C644 C639 1.399 . S
C644 C643 1.394 . S
C644 C645 1.516 . S
C645 C644 1.516 . S
C645 C646 1.502 . S
C645 C647 1.561 . S
C645 C648 1.526 . S
C646 H630 0.959 . S
C646 H631 0.959 . S
C646 H632 0.961 . S
C646 C645 1.502 . S
C647 H633 0.960 . S
C647 H634 0.961 . S
C647 H635 0.959 . S
C647 C645 1.561 . S
C648 C645 1.526 . S
C648 C649 1.396 . S
C648 C653 1.390 . S
C649 C643 1.465 . S
C649 C648 1.396 . S
C649 C650 1.399 . S
C650 H636 0.929 . S
C650 C649 1.399 . S
C650 C651 1.385 . S
C651 H637 0.931 . S
C651 C650 1.385 . S
C651 C652 1.389 . S
C652 C651 1.389 . S
C652 C653 1.387 . S
C653 H638 0.930 . S
C653 C648 1.390 . S
C653 C652 1.387 . S
H654 C666 0.930 . S
H655 C668 0.930 . S
H656 C669 0.930 . S
H657 C673 0.959 . S
H658 C673 0.959 . S
H659 C673 0.961 . S
H660 C674 0.960 . S
H661 C674 0.961 . S
H662 C674 0.959 . S
H663 C677 0.929 . S
H664 C678 0.931 . S
H665 C680 0.930 . S
C666 H654 0.930 . S
C666 C667 1.399 . S
C666 C671 1.399 . S
C667 C666 1.399 . S
C667 C668 1.376 . S
C668 H655 0.930 . S
C668 C667 1.376 . S
C668 C669 1.388 . S
C669 H656 0.930 . S
C669 C668 1.388 . S
C669 C670 1.390 . S
C670 C669 1.390 . S
C670 C671 1.394 . S
C670 C676 1.465 . S
C671 C666 1.399 . S
C671 C670 1.394 . S
C671 C672 1.516 . S
C672 C671 1.516 . S
C672 C673 1.502 . S
C672 C674 1.561 . S
C672 C675 1.526 . S
C673 H657 0.959 . S
C673 H658 0.959 . S
C673 H659 0.961 . S
C673 C672 1.502 . S
C674 H660 0.960 . S
C674 H661 0.961 . S
C674 H662 0.959 . S
C674 C672 1.561 . S
C675 C672 1.526 . S
C675 C676 1.396 . S
C675 C680 1.390 . S
C676 C670 1.465 . S
C676 C675 1.396 . S
C676 C677 1.399 . S
C677 H663 0.929 . S
C677 C676 1.399 . S
C677 C678 1.385 . S
C678 H664 0.931 . S
C678 C677 1.385 . S
C678 C679 1.389 . S
C679 C678 1.389 . S
C679 C680 1.387 . S
C680 H665 0.930 . S
C680 C675 1.390 . S
C680 C679 1.387 . S
H681 C693 0.930 . S
H682 C695 0.930 . S
H683 C696 0.930 . S
H684 C700 0.959 . S
H685 C700 0.959 . S
H686 C700 0.961 . S
H687 C701 0.960 . S
H688 C701 0.961 . S
H689 C701 0.959 . S
H690 C704 0.929 . S
H691 C705 0.931 . S
H692 C707 0.930 . S
C693 H681 0.930 . S
C693 C694 1.399 . S
C693 C698 1.399 . S
C694 C693 1.399 . S
C694 C695 1.376 . S
C695 H682 0.930 . S
C695 C694 1.376 . S
C695 C696 1.388 . S
C696 H683 0.930 . S
C696 C695 1.388 . S
C696 C697 1.390 . S
C697 C696 1.390 . S
C697 C698 1.394 . S
C697 C703 1.465 . S
C698 C693 1.399 . S
C698 C697 1.394 . S
C698 C699 1.516 . S
C699 C698 1.516 . S
C699 C700 1.502 . S
C699 C701 1.561 . S
C699 C702 1.526 . S
C700 H684 0.959 . S
C700 H685 0.959 . S
C700 H686 0.961 . S
C700 C699 1.502 . S
C701 H687 0.960 . S
C701 H688 0.961 . S
C701 H689 0.959 . S
C701 C699 1.561 . S
C702 C699 1.526 . S
C702 C703 1.396 . S
C702 C707 1.390 . S
C703 C697 1.465 . S
C703 C702 1.396 . S
C703 C704 1.399 . S
C704 H690 0.929 . S
C704 C703 1.399 . S
C704 C705 1.385 . S
C705 H691 0.931 . S
C705 C704 1.385 . S
C705 C706 1.389 . S
C706 C705 1.389 . S
C706 C707 1.387 . S
C707 H692 0.930 . S
C707 C702 1.390 . S
C707 C706 1.387 . S
H708 C720 0.930 . S
H709 C722 0.930 . S
H710 C723 0.930 . S
H711 C727 0.959 . S
H712 C727 0.959 . S
H713 C727 0.961 . S
H714 C728 0.960 . S
H715 C728 0.961 . S
H716 C728 0.959 . S
H717 C731 0.929 . S
H718 C732 0.931 . S
H719 C734 0.930 . S
C720 H708 0.930 . S
C720 C721 1.399 . S
C720 C725 1.399 . S
C721 C720 1.399 . S
C721 C722 1.376 . S
C722 H709 0.930 . S
C722 C721 1.376 . S
C722 C723 1.388 . S
C723 H710 0.930 . S
C723 C722 1.388 . S
C723 C724 1.390 . S
C724 C723 1.390 . S
C724 C725 1.394 . S
C724 C730 1.465 . S
C725 C720 1.399 . S
C725 C724 1.394 . S
C725 C726 1.516 . S
C726 C725 1.516 . S
C726 C727 1.502 . S
C726 C728 1.561 . S
C726 C729 1.526 . S
C727 H711 0.959 . S
C727 H712 0.959 . S
C727 H713 0.961 . S
C727 C726 1.502 . S
C728 H714 0.960 . S
C728 H715 0.961 . S
C728 H716 0.959 . S
C728 C726 1.561 . S
C729 C726 1.526 . S
C729 C730 1.396 . S
C729 C734 1.390 . S
C730 C724 1.465 . S
C730 C729 1.396 . S
C730 C731 1.399 . S
C731 H717 0.929 . S
C731 C730 1.399 . S
C731 C732 1.385 . S
C732 H718 0.931 . S
C732 C731 1.385 . S
C732 C733 1.389 . S
C733 C732 1.389 . S
C733 C734 1.387 . S
C734 H719 0.930 . S
C734 C729 1.390 . S
C734 C733 1.387 . S
H735 C747 0.930 . S
H736 C749 0.930 . S
H737 C750 0.930 . S
H738 C754 0.959 . S
H739 C754 0.959 . S
H740 C754 0.961 . S
H741 C755 0.960 . S
H742 C755 0.961 . S
H743 C755 0.959 . S
H744 C758 0.929 . S
H745 C759 0.931 . S
H746 C761 0.930 . S
C747 H735 0.930 . S
C747 C748 1.399 . S
C747 C752 1.399 . S
C748 C747 1.399 . S
C748 C749 1.376 . S
C749 H736 0.930 . S
C749 C748 1.376 . S
C749 C750 1.388 . S
C750 H737 0.930 . S
C750 C749 1.388 . S
C750 C751 1.390 . S
C751 C750 1.390 . S
C751 C752 1.394 . S
C751 C757 1.465 . S
C752 C747 1.399 . S
C752 C751 1.394 . S
C752 C753 1.516 . S
C753 C752 1.516 . S
C753 C754 1.502 . S
C753 C755 1.561 . S
C753 C756 1.526 . S
C754 H738 0.959 . S
C754 H739 0.959 . S
C754 H740 0.961 . S
C754 C753 1.502 . S
C755 H741 0.960 . S
C755 H742 0.961 . S
C755 H743 0.959 . S
C755 C753 1.561 . S
C756 C753 1.526 . S
C756 C757 1.396 . S
C756 C761 1.390 . S
C757 C751 1.465 . S
C757 C756 1.396 . S
C757 C758 1.399 . S
C758 H744 0.929 . S
C758 C757 1.399 . S
C758 C759 1.385 . S
C759 H745 0.931 . S
C759 C758 1.385 . S
C759 C760 1.389 . S
C760 C759 1.389 . S
C760 C761 1.387 . S
C761 H746 0.930 . S
C761 C756 1.390 . S
C761 C760 1.387 . S
H762 C774 0.930 . S
H763 C776 0.930 . S
H764 C777 0.930 . S
H765 C781 0.959 . S
H766 C781 0.959 . S
H767 C781 0.961 . S
H768 C782 0.960 . S
H769 C782 0.961 . S
H770 C782 0.959 . S
H771 C785 0.929 . S
H772 C786 0.931 . S
H773 C788 0.930 . S
C774 H762 0.930 . S
C774 C775 1.399 . S
C774 C779 1.399 . S
C775 C774 1.399 . S
C775 C776 1.376 . S
C776 H763 0.930 . S
C776 C775 1.376 . S
C776 C777 1.388 . S
C777 H764 0.930 . S
C777 C776 1.388 . S
C777 C778 1.390 . S
C778 C777 1.390 . S
C778 C779 1.394 . S
C778 C784 1.465 . S
C779 C774 1.399 . S
C779 C778 1.394 . S
C779 C780 1.516 . S
C780 C779 1.516 . S
C780 C781 1.502 . S
C780 C782 1.561 . S
C780 C783 1.526 . S
C781 H765 0.959 . S
C781 H766 0.959 . S
C781 H767 0.961 . S
C781 C780 1.502 . S
C782 H768 0.960 . S
C782 H769 0.961 . S
C782 H770 0.959 . S
C782 C780 1.561 . S
C783 C780 1.526 . S
C783 C784 1.396 . S
C783 C788 1.390 . S
C784 C778 1.465 . S
C784 C783 1.396 . S
C784 C785 1.399 . S
C785 H771 0.929 . S
C785 C784 1.399 . S
C785 C786 1.385 . S
C786 H772 0.931 . S
C786 C785 1.385 . S
C786 C787 1.389 . S
C787 C786 1.389 . S
C787 C788 1.387 . S
C788 H773 0.930 . S
C788 C783 1.390 . S
C788 C787 1.387 . S
H789 C801 0.930 . S
H790 C803 0.930 . S
H791 C804 0.930 . S
H792 C808 0.959 . S
H793 C808 0.959 . S
H794 C808 0.961 . S
H795 C809 0.960 . S
H796 C809 0.961 1_455 S
H797 C809 0.959 . S
H798 C812 0.929 . S
H799 C813 0.931 . S
H800 C815 0.930 . S
C801 H789 0.930 . S
C801 C802 1.399 . S
C801 C806 1.399 . S
C802 C801 1.399 . S
C802 C803 1.376 . S
C803 H790 0.930 . S
C803 C802 1.376 . S
C803 C804 1.388 . S
C804 H791 0.930 . S
C804 C803 1.388 . S
C804 C805 1.390 . S
C805 C804 1.390 . S
C805 C806 1.394 . S
C805 C811 1.465 1_655 S
C806 C801 1.399 . S
C806 C805 1.394 . S
C806 C807 1.516 1_655 S
C807 C806 1.516 1_455 S
C807 C808 1.502 . S
C807 C809 1.561 1_455 S
C807 C810 1.526 . S
C808 H792 0.959 . S
C808 H793 0.959 . S
C808 H794 0.961 . S
C808 C807 1.502 . S
C809 H795 0.960 . S
C809 H796 0.961 1_655 S
C809 H797 0.959 . S
C809 C807 1.561 1_655 S
C810 C807 1.526 . S
C810 C811 1.396 . S
C810 C815 1.390 . S
C811 C805 1.465 1_455 S
C811 C810 1.396 . S
C811 C812 1.399 . S
C812 H798 0.929 . S
C812 C811 1.399 . S
C812 C813 1.385 . S
C813 H799 0.931 . S
C813 C812 1.385 . S
C813 C814 1.389 . S
C814 C813 1.389 . S
C814 C815 1.387 . S
C815 H800 0.930 . S
C815 C810 1.390 . S
C815 C814 1.387 . S
H816 C828 0.930 . S
H817 C830 0.930 . S
H818 C831 0.930 . S
H819 C835 0.959 . S
H820 C835 0.959 . S
H821 C835 0.961 . S
H822 C836 0.960 . S
H823 C836 0.961 1_565 S
H824 C836 0.959 . S
H825 C839 0.929 . S
H826 C840 0.931 . S
H827 C842 0.930 . S
C828 H816 0.930 . S
C828 C829 1.399 . S
C828 C833 1.399 . S
C829 C828 1.399 . S
C829 C830 1.376 . S
C830 H817 0.930 . S
C830 C829 1.376 . S
C830 C831 1.388 . S
C831 H818 0.930 . S
C831 C830 1.388 . S
C831 C832 1.390 . S
C832 C831 1.390 . S
C832 C833 1.394 . S
C832 C838 1.465 1_545 S
C833 C828 1.399 . S
C833 C832 1.394 . S
C833 C834 1.516 1_545 S
C834 C833 1.516 1_565 S
C834 C835 1.502 . S
C834 C836 1.561 1_565 S
C834 C837 1.526 . S
C835 H819 0.959 . S
C835 H820 0.959 . S
C835 H821 0.961 . S
C835 C834 1.502 . S
C836 H822 0.960 . S
C836 H823 0.961 1_545 S
C836 H824 0.959 . S
C836 C834 1.561 1_545 S
C837 C834 1.526 . S
C837 C838 1.396 . S
C837 C842 1.390 . S
C838 C832 1.465 1_565 S
C838 C837 1.396 . S
C838 C839 1.399 . S
C839 H825 0.929 . S
C839 C838 1.399 . S
C839 C840 1.385 . S
C840 H826 0.931 . S
C840 C839 1.385 . S
C840 C841 1.389 . S
C841 C840 1.389 . S
C841 C842 1.387 . S
C842 H827 0.930 . S
C842 C837 1.390 . S
C842 C841 1.387 . S
H843 C855 0.930 . S
H844 C857 0.930 . S
H845 C858 0.930 . S
H846 C862 0.959 . S
H847 C862 0.959 . S
H848 C862 0.961 . S
H849 C863 0.960 . S
H850 C863 0.961 . S
H851 C863 0.959 . S
H852 C866 0.929 . S
H853 C867 0.931 . S
H854 C869 0.930 . S
C855 H843 0.930 . S
C855 C856 1.399 . S
C855 C860 1.399 . S
C856 C855 1.399 . S
C856 C857 1.376 . S
C857 H844 0.930 . S
C857 C856 1.376 . S
C857 C858 1.388 . S
C858 H845 0.930 . S
C858 C857 1.388 . S
C858 C859 1.390 . S
C859 C858 1.390 . S
C859 C860 1.394 . S
C859 C865 1.465 . S
C860 C855 1.399 . S
C860 C859 1.394 . S
C860 C861 1.516 . S
C861 C860 1.516 . S
C861 C862 1.502 . S
C861 C863 1.561 . S
C861 C864 1.526 . S
C862 H846 0.959 . S
C862 H847 0.959 . S
C862 H848 0.961 . S
C862 C861 1.502 . S
C863 H849 0.960 . S
C863 H850 0.961 . S
C863 H851 0.959 . S
C863 C861 1.561 . S
C864 C861 1.526 . S
C864 C865 1.396 . S
C864 C869 1.390 . S
C865 C859 1.465 . S
C865 C864 1.396 . S
C865 C866 1.399 . S
C866 H852 0.929 . S
C866 C865 1.399 . S
C866 C867 1.385 . S
C867 H853 0.931 . S
C867 C866 1.385 . S
C867 C868 1.389 . S
C868 C867 1.389 . S
C868 C869 1.387 . S
C869 H854 0.930 . S
C869 C864 1.390 . S
C869 C868 1.387 . S
H870 C882 0.930 . S
H871 C884 0.930 . S
H872 C885 0.930 . S
H873 C889 0.959 . S
H874 C889 0.959 . S
H875 C889 0.961 . S
H876 C890 0.960 . S
H877 C890 0.961 1_655 S
H878 C890 0.959 . S
H879 C893 0.929 . S
H880 C894 0.931 . S
H881 C896 0.930 . S
C882 H870 0.930 . S
C882 C883 1.399 . S
C882 C887 1.399 . S
C883 C882 1.399 . S
C883 C884 1.376 . S
C884 H871 0.930 . S
C884 C883 1.376 . S
C884 C885 1.388 . S
C885 H872 0.930 . S
C885 C884 1.388 . S
C885 C886 1.390 . S
C886 C885 1.390 . S
C886 C887 1.394 . S
C886 C892 1.465 1_455 S
C887 C882 1.399 . S
C887 C886 1.394 . S
C887 C888 1.516 1_455 S
C888 C887 1.516 1_655 S
C888 C889 1.502 . S
C888 C890 1.561 1_655 S
C888 C891 1.526 . S
C889 H873 0.959 . S
C889 H874 0.959 . S
C889 H875 0.961 . S
C889 C888 1.502 . S
C890 H876 0.960 . S
C890 H877 0.961 1_455 S
C890 H878 0.959 . S
C890 C888 1.561 1_455 S
C891 C888 1.526 . S
C891 C892 1.396 . S
C891 C896 1.390 . S
C892 C886 1.465 1_655 S
C892 C891 1.396 . S
C892 C893 1.399 . S
C893 H879 0.929 . S
C893 C892 1.399 . S
C893 C894 1.385 . S
C894 H880 0.931 . S
C894 C893 1.385 . S
C894 C895 1.389 . S
C895 C894 1.389 . S
C895 C896 1.387 . S
C896 H881 0.930 . S
C896 C891 1.390 . S
C896 C895 1.387 . S
H897 C909 0.930 . S
H898 C911 0.930 . S
H899 C912 0.930 . S
H900 C916 0.959 . S
H901 C916 0.959 . S
H902 C916 0.961 . S
H903 C917 0.960 1_565 S
H904 C917 0.961 . S
H905 C917 0.959 . S
H906 C920 0.929 . S
H907 C921 0.931 . S
H908 C923 0.930 . S
C909 H897 0.930 . S
C909 C910 1.399 . S
C909 C914 1.399 . S
C910 C909 1.399 . S
C910 C911 1.376 . S
C911 H898 0.930 . S
C911 C910 1.376 . S
C911 C912 1.388 . S
C912 H899 0.930 . S
C912 C911 1.388 . S
C912 C913 1.390 . S
C913 C912 1.390 . S
C913 C914 1.394 . S
C913 C919 1.465 1_565 S
C914 C909 1.399 . S
C914 C913 1.394 . S
C914 C915 1.516 . S
C915 C914 1.516 . S
C915 C916 1.502 . S
C915 C917 1.561 1_565 S
C915 C918 1.526 1_565 S
C916 H900 0.959 . S
C916 H901 0.959 . S
C916 H902 0.961 . S
C916 C915 1.502 . S
C917 H903 0.960 1_545 S
C917 H904 0.961 . S
C917 H905 0.959 . S
C917 C915 1.561 1_545 S
C918 C915 1.526 1_545 S
C918 C919 1.396 . S
C918 C923 1.390 . S
C919 C913 1.465 1_545 S
C919 C918 1.396 . S
C919 C920 1.399 . S
C920 H906 0.929 . S
C920 C919 1.399 . S
C920 C921 1.385 . S
C921 H907 0.931 . S
C921 C920 1.385 . S
C921 C922 1.389 . S
C922 C921 1.389 . S
C922 C923 1.387 . S
C923 H908 0.930 . S
C923 C918 1.390 . S
C923 C922 1.387 . S
C289 N163 1.775 . S
C301 N2 1.814 . S
C316 N35 1.869 . S
C328 N186 1.804 . S
C343 N48 1.810 . S
C355 N219 1.884 . S
C370 N71 1.851 . S
C382 N232 1.828 . S
C397 N255 1.750 . S
C409 N104 1.861 . S
C424 N150 1.870 . S
C436 N117 1.807 . S
C451 C246 1.615 . S
C463 C16 1.551 . S
C478 C30 1.676 . S
C490 C269 1.600 . S
C505 C62 1.557 . S
C517 C145 1.699 . S
C532 C177 1.618 . S
C544 C85 1.548 . S
C559 C200 1.571 . S
C571 C99 1.695 . S
C586 C214 1.696 . S
C598 C131 1.561 . S
C613 C7 1.836 . S
C625 C191 1.856 . S
C640 C39 1.758 . S
C652 C223 1.794 . S
C667 C237 1.834 . S
C679 C53 1.856 . S
C694 C76 1.803 . S
C706 C260 1.791 . S
C721 C154 1.842 . S
C733 C108 1.825 . S
C748 C168 1.841 . S
C760 C122 1.854 . S
C775 N81 2.017 . S
C787 N12 2.020 . S
C802 N94 1.912 . S
C814 N25 1.888 . S
C829 N58 1.972 . S
C841 N127 1.970 . S
C856 N140 1.942 . S
C868 N209 1.968 . S
C883 N173 1.977 . S
C895 N242 1.975 . S
C910 N265 2.015 . S
C922 N196 2.019 . S
