# Generated by pormake.
# Topology skb, (5)-cn, num edge types: 1
# Building blocks:
#     Node 0, Type 0, BuildingBlock: BEQFEK_clean_sbu_0, # of connection points: 5
#     Node 1, Type 0, BuildingBlock: BEQFEK_clean_sbu_0, # of connection points: 5
#     Node 2, Type 0, BuildingBlock: BEQFEK_clean_sbu_0, # of connection points: 5
#     Node 3, Type 0, BuildingBlock: BEQFEK_clean_sbu_0, # of connection points: 5
#     Node 4, Type 0, BuildingBlock: BEQFEK_clean_sbu_0, # of connection points: 5
#     Node 5, Type 0, BuildingBlock: BEQFEK_clean_sbu_0, # of connection points: 5
#     Node 6, Type 0, BuildingBlock: BEQFEK_clean_sbu_0, # of connection points: 5
#     Node 7, Type 0, BuildingBlock: BEQFEK_clean_sbu_0, # of connection points: 5
#     Node 8, Type 0, BuildingBlock: BEQFEK_clean_sbu_0, # of connection points: 5
#     Node 9, Type 0, BuildingBlock: BEQFEK_clean_sbu_0, # of connection points: 5
#     Node 10, Type 0, BuildingBlock: BEQFEK_clean_sbu_0, # of connection points: 5
#     Node 11, Type 0, BuildingBlock: BEQFEK_clean_sbu_0, # of connection points: 5
#     Node 12, Type 0, BuildingBlock: BEQFEK_clean_sbu_0, # of connection points: 5
#     Node 13, Type 0, BuildingBlock: BEQFEK_clean_sbu_0, # of connection points: 5
#     Node 14, Type 0, BuildingBlock: BEQFEK_clean_sbu_0, # of connection points: 5
#     Node 15, Type 0, BuildingBlock: BEQFEK_clean_sbu_0, # of connection points: 5
#     Edge 16, Type (0, 0), BuildingBlock: AJUNOK_clean_linker_0, # of connection points: 2
#     Edge 17, Type (0, 0), BuildingBlock: AJUNOK_clean_linker_0, # of connection points: 2
#     Edge 18, Type (0, 0), BuildingBlock: AJUNOK_clean_linker_0, # of connection points: 2
#     Edge 19, Type (0, 0), BuildingBlock: AJUNOK_clean_linker_0, # of connection points: 2
#     Edge 20, Type (0, 0), BuildingBlock: AJUNOK_clean_linker_0, # of connection points: 2
#     Edge 21, Type (0, 0), BuildingBlock: AJUNOK_clean_linker_0, # of connection points: 2
#     Edge 22, Type (0, 0), BuildingBlock: AJUNOK_clean_linker_0, # of connection points: 2
#     Edge 23, Type (0, 0), BuildingBlock: AJUNOK_clean_linker_0, # of connection points: 2
#     Edge 24, Type (0, 0), BuildingBlock: AJUNOK_clean_linker_0, # of connection points: 2
#     Edge 25, Type (0, 0), BuildingBlock: AJUNOK_clean_linker_0, # of connection points: 2
#     Edge 26, Type (0, 0), BuildingBlock: AJUNOK_clean_linker_0, # of connection points: 2
#     Edge 27, Type (0, 0), BuildingBlock: AJUNOK_clean_linker_0, # of connection points: 2
#     Edge 28, Type (0, 0), BuildingBlock: AJUNOK_clean_linker_0, # of connection points: 2
#     Edge 29, Type (0, 0), BuildingBlock: AJUNOK_clean_linker_0, # of connection points: 2
#     Edge 30, Type (0, 0), BuildingBlock: AJUNOK_clean_linker_0, # of connection points: 2
#     Edge 31, Type (0, 0), BuildingBlock: AJUNOK_clean_linker_0, # of connection points: 2
#     Edge 32, Type (0, 0), BuildingBlock: AJUNOK_clean_linker_0, # of connection points: 2
#     Edge 33, Type (0, 0), BuildingBlock: AJUNOK_clean_linker_0, # of connection points: 2
#     Edge 34, Type (0, 0), BuildingBlock: AJUNOK_clean_linker_0, # of connection points: 2
#     Edge 35, Type (0, 0), BuildingBlock: AJUNOK_clean_linker_0, # of connection points: 2
#     Edge 36, Type (0, 0), BuildingBlock: AJUNOK_clean_linker_0, # of connection points: 2
#     Edge 37, Type (0, 0), BuildingBlock: AJUNOK_clean_linker_0, # of connection points: 2
#     Edge 38, Type (0, 0), BuildingBlock: AJUNOK_clean_linker_0, # of connection points: 2
#     Edge 39, Type (0, 0), BuildingBlock: AJUNOK_clean_linker_0, # of connection points: 2
#     Edge 40, Type (0, 0), BuildingBlock: AJUNOK_clean_linker_0, # of connection points: 2
#     Edge 41, Type (0, 0), BuildingBlock: AJUNOK_clean_linker_0, # of connection points: 2
#     Edge 42, Type (0, 0), BuildingBlock: AJUNOK_clean_linker_0, # of connection points: 2
#     Edge 43, Type (0, 0), BuildingBlock: AJUNOK_clean_linker_0, # of connection points: 2
#     Edge 44, Type (0, 0), BuildingBlock: AJUNOK_clean_linker_0, # of connection points: 2
#     Edge 45, Type (0, 0), BuildingBlock: AJUNOK_clean_linker_0, # of connection points: 2
#     Edge 46, Type (0, 0), BuildingBlock: AJUNOK_clean_linker_0, # of connection points: 2
#     Edge 47, Type (0, 0), BuildingBlock: AJUNOK_clean_linker_0, # of connection points: 2
#     Edge 48, Type (0, 0), BuildingBlock: AJUNOK_clean_linker_0, # of connection points: 2
#     Edge 49, Type (0, 0), BuildingBlock: AJUNOK_clean_linker_0, # of connection points: 2
#     Edge 50, Type (0, 0), BuildingBlock: AJUNOK_clean_linker_0, # of connection points: 2
#     Edge 51, Type (0, 0), BuildingBlock: AJUNOK_clean_linker_0, # of connection points: 2
#     Edge 52, Type (0, 0), BuildingBlock: AJUNOK_clean_linker_0, # of connection points: 2
#     Edge 53, Type (0, 0), BuildingBlock: AJUNOK_clean_linker_0, # of connection points: 2
#     Edge 54, Type (0, 0), BuildingBlock: AJUNOK_clean_linker_0, # of connection points: 2
#     Edge 55, Type (0, 0), BuildingBlock: AJUNOK_clean_linker_0, # of connection points: 2
# Relax obj value: 0.051
# Max RMSD: 0.093
# Mean RMSD: 0.093
data_MOF--net-skb--node1-BEQFEK_clean_sbu_0--edge1-AJUNOK_clean_linker_0
_symmetry_space_group_name_H-M    P1
_symmetry_Int_Tables_number       1
_symmetry_cell_setting            triclinic
loop_
_symmetry_equiv_pos_as_xyz
'x, y, z'
_cell_length_a     30.370257
_cell_length_b     22.57013
_cell_length_c     60.826453
_cell_angle_alpha  90.084718
_cell_angle_beta   90.017738
_cell_angle_gamma 89.987535
loop_
_atom_site_label
_atom_site_type_symbol
_atom_site_fract_x
_atom_site_fract_y
_atom_site_fract_z
_atom_type_partial_charge
Co0 Co 0.18308 0.04129 0.10005 0.0
Co1 Co 0.17877 0.04635 0.15165 0.0
C2 C 0.21344 0.14845 0.12457 0.0
O3 O 0.20699 0.12088 0.1066 0.0
O4 O 0.20398 0.12457 0.14295 0.0
C5 C 0.21954 0.0422 0.05568 0.0
O6 O 0.25392 0.06812 0.06461 0.0
C7 C 0.21708 0.04448 0.19625 0.0
C8 C 0.1578 0.03445 0.21697 0.0
C9 C 0.20313 0.03993 0.2179 0.0
N10 N 0.18158 0.04127 0.18307 0.0
N11 N 0.14626 0.0354 0.19559 0.0
C12 C 0.26295 0.05541 0.18827 0.0
H13 H 0.26273 0.06938 0.17079 0.0
H14 H 0.28263 0.01425 0.18973 0.0
H15 H 0.27901 0.08978 0.19859 0.0
C16 C 0.22795 0.92869 0.10985 0.0
N17 N 0.21208 0.98148 0.11643 0.0
N18 N 0.20884 0.9819 0.13804 0.0
C19 C 0.22162 0.92863 0.14581 0.0
C20 C 0.23419 0.89329 0.1282 0.0
C21 C 0.23356 0.91103 0.08629 0.0
H22 H 0.25453 0.94415 0.07787 0.0
H23 H 0.24918 0.86679 0.0847 0.0
H24 H 0.20096 0.91056 0.07805 0.0
O25 O 0.11939 0.0367 0.10684 0.0
O26 O 0.11594 0.04056 0.14322 0.0
H27 H 0.21452 0.85936 0.17022 0.0
H28 H 0.24133 0.92584 0.17949 0.0
C29 C 0.2145 0.9084 0.16898 0.0
H30 H 0.18272 0.92566 0.17526 0.0
H31 H 0.11419 0.03226 0.18954 0.0
O32 O 0.18759 0.0267 0.06788 0.0
C33 C 0.09714 0.03585 0.12457 0.0
Co34 Co 0.82212 0.99024 0.09955 0.0
Co35 Co 0.82572 0.9839 0.15133 0.0
C36 C 0.78839 0.88407 0.12433 0.0
O37 O 0.79584 0.91146 0.10641 0.0
O38 O 0.7983 0.90731 0.14278 0.0
C39 C 0.78015 1.00025 0.05665 0.0
O40 O 0.74409 0.98616 0.06735 0.0
C41 C 0.79145 0.97747 0.19666 0.0
C42 C 0.84887 1.00733 0.21604 0.0
C43 C 0.80574 0.98804 0.21811 0.0
N44 N 0.82473 0.98965 0.18279 0.0
N45 N 0.85902 1.00709 0.1945 0.0
C46 C 0.74619 0.96127 0.18898 0.0
H47 H 0.74011 0.97976 0.17235 0.0
H48 H 0.7208 0.97764 0.20061 0.0
H49 H 0.7437 0.91235 0.18767 0.0
C50 C 0.78192 0.10645 0.1102 0.0
N51 N 0.79561 0.05208 0.11628 0.0
N52 N 0.79687 0.0494 0.13794 0.0
C53 C 0.78388 0.10198 0.14626 0.0
C54 C 0.7741 0.1398 0.12897 0.0
C55 C 0.78301 0.12882 0.08705 0.0
H56 H 0.81403 0.11472 0.07898 0.0
H57 H 0.755 0.10947 0.07781 0.0
H58 H 0.78051 0.17782 0.08633 0.0
O59 O 0.88604 0.99126 0.10601 0.0
O60 O 0.88845 0.98684 0.14242 0.0
H61 H 0.81836 0.11296 0.17667 0.0
H62 H 0.7722 0.16294 0.17325 0.0
C63 C 0.78436 0.11731 0.17021 0.0
H64 H 0.76301 0.08601 0.17927 0.0
H65 H 0.88923 0.0195 0.18777 0.0
O66 O 0.81618 1.00437 0.06722 0.0
C67 C 0.90783 0.99067 0.12391 0.0
Co68 Co 0.17879 0.99216 0.91758 0.0
Co69 Co 0.17914 0.99267 0.86588 0.0
C70 C 0.2127 0.88838 0.89149 0.0
O71 O 0.20458 0.9134 0.90985 0.0
O72 O 0.20422 0.91446 0.87345 0.0
C73 C 0.21809 0.99692 0.96119 0.0
O74 O 0.25514 0.98462 0.95101 0.0
C75 C 0.21643 0.9918 0.82102 0.0
C76 C 0.15953 0.02103 0.80116 0.0
C77 C 0.203 1.00339 0.79969 0.0
N78 N 0.18235 1.00218 0.83462 0.0
N79 N 0.14845 0.01952 0.82258 0.0
C80 C 0.26053 0.96979 0.82829 0.0
H81 H 0.26275 0.96894 0.8465 0.0
H82 H 0.2869 0.99847 0.82155 0.0
H83 H 0.26581 0.92449 0.82168 0.0
C84 C 0.22109 0.10884 0.90984 0.0
N85 N 0.20739 0.05546 0.90258 0.0
N86 N 0.20839 0.05506 0.88091 0.0
C87 C 0.22315 0.10793 0.87376 0.0
C88 C 0.23145 0.14379 0.89183 0.0
C89 C 0.21754 0.12904 0.93323 0.0
H90 H 0.18582 0.11406 0.94033 0.0
H91 H 0.24469 0.10903 0.94289 0.0
H92 H 0.21979 0.17796 0.93467 0.0
O93 O 0.11516 0.99577 0.91032 0.0
O94 O 0.11603 0.99671 0.87388 0.0
H95 H 0.19276 0.12286 0.8425 0.0
H96 H 0.23937 0.17071 0.84802 0.0
C97 C 0.22595 0.12535 0.85006 0.0
H98 H 0.24781 0.09396 0.8413 0.0
H99 H 0.11772 0.03066 0.82899 0.0
O100 O 0.18296 1.00235 0.95001 0.0
C101 C 0.095 0.99855 0.89198 0.0
Co102 Co 0.82131 0.04455 0.91856 0.0
Co103 Co 0.8213 0.04397 0.86665 0.0
C104 C 0.78564 0.14718 0.89212 0.0
O105 O 0.79477 0.12286 0.91049 0.0
O106 O 0.79413 0.12109 0.87404 0.0
C107 C 0.78092 0.04419 0.96187 0.0
O108 O 0.74602 0.0631 0.95122 0.0
C109 C 0.78736 0.04349 0.82096 0.0
C110 C 0.84494 1.00918 0.8028 0.0
C111 C 0.80202 0.02862 0.79993 0.0
N112 N 0.82008 0.03303 0.83537 0.0
N113 N 0.85441 0.01276 0.82435 0.0
C114 C 0.74214 0.06245 0.82772 0.0
H115 H 0.73713 0.05486 0.84557 0.0
H116 H 0.71689 0.03795 0.81814 0.0
H117 H 0.73813 0.11039 0.8244 0.0
C118 C 0.77946 0.92767 0.91046 0.0
N119 N 0.79352 0.98085 0.90326 0.0
N120 N 0.79327 0.98083 0.88158 0.0
C121 C 0.77904 0.92773 0.87436 0.0
C122 C 0.76984 0.89236 0.89239 0.0
C123 C 0.78154 0.90831 0.93397 0.0
H124 H 0.81368 0.92129 0.94118 0.0
H125 H 0.75513 0.93096 0.94336 0.0
H126 H 0.77726 0.85971 0.93565 0.0
O127 O 0.88529 0.04229 0.9115 0.0
O128 O 0.88397 0.0429 0.87507 0.0
H129 H 0.81136 0.91128 0.84371 0.0
H130 H 0.764 0.8644 0.84854 0.0
C131 C 0.77765 0.90961 0.85069 0.0
H132 H 0.7567 0.94101 0.84144 0.0
H133 H 0.88419 1.00058 0.83158 0.0
O134 O 0.81601 0.03377 0.9511 0.0
C135 C 0.90526 0.04119 0.89307 0.0
Co136 Co 0.18042 0.54376 0.60102 0.0
Co137 Co 0.17841 0.54747 0.65274 0.0
C138 C 0.21295 0.64976 0.62629 0.0
O139 O 0.20544 0.62212 0.60842 0.0
O140 O 0.20411 0.62623 0.64483 0.0
C141 C 0.22 0.53883 0.55745 0.0
O142 O 0.25665 0.55431 0.5674 0.0
C143 C 0.21059 0.55453 0.6987 0.0
C144 C 0.16108 0.4999 0.71592 0.0
C145 C 0.19944 0.53179 0.71916 0.0
N146 N 0.18008 0.53687 0.68403 0.0
N147 N 0.15025 0.50501 0.69454 0.0
C148 C 0.25139 0.58793 0.69277 0.0
H149 H 0.26158 0.57689 0.67572 0.0
H150 H 0.27852 0.57795 0.70442 0.0
H151 H 0.24428 0.63611 0.69352 0.0
C152 C 0.22317 0.42895 0.60994 0.0
N153 N 0.20844 0.48221 0.61673 0.0
N154 N 0.20866 0.48398 0.63839 0.0
C155 C 0.22432 0.43198 0.64601 0.0
C156 C 0.23365 0.39535 0.62826 0.0
C157 C 0.22065 0.40762 0.58665 0.0
H158 H 0.18872 0.42089 0.57931 0.0
H159 H 0.24747 0.42848 0.57702 0.0
H160 H 0.2241 0.35879 0.58549 0.0
O161 O 0.11723 0.54104 0.6078 0.0
O162 O 0.11504 0.54332 0.6442 0.0
H163 H 0.19418 0.4107 0.67673 0.0
H164 H 0.24627 0.37412 0.67215 0.0
C165 C 0.2277 0.41601 0.66981 0.0
H166 H 0.24465 0.452 0.67886 0.0
H167 H 0.12326 0.48499 0.68694 0.0
O168 O 0.18525 0.53173 0.56877 0.0
C169 C 0.09554 0.54029 0.62567 0.0
Co170 Co 0.82139 0.48954 0.59966 0.0
Co171 Co 0.82293 0.4862 0.65126 0.0
C172 C 0.79131 0.38214 0.62467 0.0
O173 O 0.79828 0.40984 0.6068 0.0
O174 O 0.79959 0.40631 0.64318 0.0
C175 C 0.78062 0.4875 0.55691 0.0
O176 O 0.74704 0.46463 0.56753 0.0
C177 C 0.79252 0.47898 0.69776 0.0
C178 C 0.83917 0.54097 0.71347 0.0
C179 C 0.80261 0.50612 0.71778 0.0
N180 N 0.8212 0.49827 0.68246 0.0
N181 N 0.84939 0.53448 0.69211 0.0
C182 C 0.757 0.43473 0.69315 0.0
H183 H 0.76767 0.40341 0.68026 0.0
H184 H 0.72725 0.45823 0.68714 0.0
H185 H 0.74862 0.40911 0.70813 0.0
C186 C 0.77472 0.60182 0.60847 0.0
N187 N 0.79127 0.5496 0.61529 0.0
N188 N 0.79096 0.54799 0.63694 0.0
C189 C 0.77349 0.59906 0.64452 0.0
C190 C 0.7629 0.63488 0.62678 0.0
C191 C 0.77674 0.62302 0.58517 0.0
H192 H 0.80949 0.61266 0.57808 0.0
H193 H 0.75141 0.59941 0.57537 0.0
H194 H 0.77077 0.67138 0.58392 0.0
O195 O 0.88468 0.49567 0.60646 0.0
O196 O 0.886 0.49333 0.64286 0.0
H197 H 0.80288 0.62559 0.67487 0.0
H198 H 0.74834 0.65491 0.67056 0.0
C199 C 0.76969 0.61547 0.66827 0.0
H200 H 0.75554 0.57797 0.67762 0.0
H201 H 0.87482 0.55633 0.68392 0.0
O202 O 0.81512 0.5013 0.56758 0.0
C203 C 0.90588 0.49752 0.62449 0.0
Co204 Co 0.18367 0.48994 0.41905 0.0
Co205 Co 0.17897 0.48546 0.36749 0.0
C206 C 0.2157 0.38409 0.394 0.0
O207 O 0.20876 0.41132 0.41201 0.0
O208 O 0.20591 0.40783 0.37563 0.0
C209 C 0.22126 0.49042 0.46322 0.0
O210 O 0.2564 0.46689 0.45412 0.0
C211 C 0.21388 0.48573 0.32224 0.0
C212 C 0.15458 0.5088 0.30306 0.0
C213 C 0.19905 0.4961 0.3009 0.0
N214 N 0.17982 0.49243 0.33615 0.0
N215 N 0.14444 0.50586 0.32455 0.0
C216 C 0.2599 0.47337 0.32973 0.0
H217 H 0.26389 0.48577 0.34729 0.0
H218 H 0.284 0.49798 0.31951 0.0
H219 H 0.2666 0.42523 0.32813 0.0
C220 C 0.22655 0.6041 0.40936 0.0
N221 N 0.21119 0.55105 0.40277 0.0
N222 N 0.2084 0.55036 0.38115 0.0
C223 C 0.22142 0.60348 0.37334 0.0
C224 C 0.23325 0.63921 0.39098 0.0
C225 C 0.2315 0.62214 0.43292 0.0
H226 H 0.25353 0.59031 0.44136 0.0
H227 H 0.24567 0.66723 0.43454 0.0
H228 H 0.19889 0.62066 0.44113 0.0
O229 O 0.1199 0.49229 0.41268 0.0
O230 O 0.11632 0.48863 0.37633 0.0
H231 H 0.22027 0.67124 0.34807 0.0
H232 H 0.24075 0.59984 0.33962 0.0
C233 C 0.21595 0.62271 0.34995 0.0
H234 H 0.18275 0.61012 0.34398 0.0
H235 H 0.1134 0.5136 0.33133 0.0
O236 O 0.18856 0.50395 0.45119 0.0
C237 C 0.09754 0.49227 0.39499 0.0
Co238 Co 0.82302 0.54025 0.4204 0.0
Co239 Co 0.82553 0.54502 0.36886 0.0
C240 C 0.79224 0.64767 0.39547 0.0
O241 O 0.79864 0.61978 0.41337 0.0
O242 O 0.80162 0.62396 0.37705 0.0
C243 C 0.77964 0.5298 0.46243 0.0
O244 O 0.74347 0.53964 0.45115 0.0
C245 C 0.79608 0.55438 0.32237 0.0
C246 C 0.84398 0.49502 0.3062 0.0
C247 C 0.80703 0.52935 0.30212 0.0
N248 N 0.82468 0.53451 0.3376 0.0
N249 N 0.85361 0.49986 0.3277 0.0
C250 C 0.75981 0.59734 0.32723 0.0
H251 H 0.77015 0.62875 0.34014 0.0
H252 H 0.73063 0.57277 0.33332 0.0
H253 H 0.75066 0.62305 0.31238 0.0
C254 C 0.78014 0.42519 0.41052 0.0
N255 N 0.79475 0.47903 0.4043 0.0
N256 N 0.79381 0.48243 0.38268 0.0
C257 C 0.77731 0.43142 0.37456 0.0
C258 C 0.76867 0.3933 0.39188 0.0
C259 C 0.78385 0.40138 0.43342 0.0
H260 H 0.81432 0.41806 0.44132 0.0
H261 H 0.75514 0.41667 0.44316 0.0
H262 H 0.78426 0.35223 0.43357 0.0
O263 O 0.88658 0.53622 0.41412 0.0
O264 O 0.8883 0.53847 0.37771 0.0
H265 H 0.80475 0.40975 0.34321 0.0
H266 H 0.75115 0.37806 0.34806 0.0
C267 C 0.77197 0.4179 0.35062 0.0
H268 H 0.75653 0.45612 0.34221 0.0
H269 H 0.87921 0.47803 0.33577 0.0
O270 O 0.81637 0.52824 0.45245 0.0
C271 C 0.90799 0.53474 0.39615 0.0
Co272 Co 0.6799 0.03884 0.59947 0.0
Co273 Co 0.68011 0.04271 0.65118 0.0
C274 C 0.71517 0.14383 0.62419 0.0
O275 O 0.70609 0.11729 0.60628 0.0
O276 O 0.70696 0.11971 0.64266 0.0
C277 C 0.71906 0.03676 0.55625 0.0
O278 O 0.75411 0.05631 0.56664 0.0
C279 C 0.71939 0.03901 0.69566 0.0
C280 C 0.66019 0.02984 0.71651 0.0
C281 C 0.70554 0.03455 0.71734 0.0
N282 N 0.68374 0.03638 0.68255 0.0
N283 N 0.64852 0.03099 0.69517 0.0
C284 C 0.76522 0.04984 0.68762 0.0
H285 H 0.7651 0.06154 0.66991 0.0
H286 H 0.7854 1.00942 0.68994 0.0
H287 H 0.78067 0.08591 0.69737 0.0
C288 C 0.72196 0.92308 0.60828 0.0
N289 N 0.70831 0.97675 0.61519 0.0
N290 N 0.70745 0.97736 0.63686 0.0
C291 C 0.71971 0.92361 0.64436 0.0
C292 C 0.7293 0.88754 0.6265 0.0
C293 C 0.72501 0.90505 0.58463 0.0
H294 H 0.69234 0.91008 0.57669 0.0
H295 H 0.7486 0.93455 0.57611 0.0
H296 H 0.73663 0.85873 0.58273 0.0
O297 O 0.6162 0.03656 0.60692 0.0
O298 O 0.61695 0.04013 0.64338 0.0
H299 H 0.68352 0.92076 0.67463 0.0
H300 H 0.71583 0.85514 0.66929 0.0
C301 C 0.71499 0.9041 0.66777 0.0
H302 H 0.7424 0.92281 0.67759 0.0
H303 H 0.61638 0.02876 0.68925 0.0
O304 O 0.6842 0.02622 0.56713 0.0
C305 C 0.596 0.03633 0.62529 0.0
Co306 Co 0.32187 0.99371 0.59943 0.0
Co307 Co 0.32244 0.99105 0.65123 0.0
C308 C 0.28785 0.88874 0.62505 0.0
O309 O 0.29657 0.9149 0.60701 0.0
O310 O 0.29587 0.91353 0.64344 0.0
C311 C 0.28259 0.99151 0.55592 0.0
O312 O 0.24867 0.96824 0.56615 0.0
C313 C 0.28713 0.99158 0.69648 0.0
C314 C 0.34536 0.02009 0.7155 0.0
C315 C 0.30147 1.00433 0.71775 0.0
N316 N 0.32092 0.99988 0.68253 0.0
N317 N 0.35566 0.01658 0.69404 0.0
C318 C 0.24168 0.97564 0.68906 0.0
H319 H 0.23729 0.9867 0.67142 0.0
H320 H 0.21664 0.9992 0.69908 0.0
H321 H 0.2368 0.92721 0.69102 0.0
C322 C 0.27817 0.10856 0.6083 0.0
N323 N 0.29335 0.05567 0.61518 0.0
N324 N 0.29369 0.05491 0.63685 0.0
C325 C 0.27898 0.10751 0.6444 0.0
C326 C 0.26856 0.14311 0.62656 0.0
C327 C 0.27591 0.12687 0.58469 0.0
H328 H 0.25364 0.09634 0.57573 0.0
H329 H 0.26328 0.17269 0.58278 0.0
H330 H 0.30911 0.12339 0.57719 0.0
O331 O 0.38575 0.99669 0.60639 0.0
O332 O 0.38514 0.9933 0.64281 0.0
H333 H 0.27538 0.17471 0.66995 0.0
H334 H 0.25687 0.1018 0.67767 0.0
C335 C 0.28162 0.12659 0.66796 0.0
H336 H 0.31473 0.11625 0.67459 0.0
H337 H 0.3863 0.0264 0.68723 0.0
O338 O 0.31652 1.00567 0.56701 0.0
C339 C 0.40605 0.99652 0.62472 0.0
Co340 Co 0.68149 0.99236 0.41831 0.0
Co341 Co 0.68225 0.98633 0.36655 0.0
C342 C 0.71599 0.88583 0.39443 0.0
O343 O 0.70678 0.91316 0.41215 0.0
O344 O 0.7084 0.90939 0.37579 0.0
C345 C 0.71892 0.99048 0.46189 0.0
O346 O 0.75201 0.96431 0.45193 0.0
C347 C 0.72173 0.98795 0.32196 0.0
C348 C 0.66224 0.98826 0.30104 0.0
C349 C 0.70772 0.98689 0.30024 0.0
N350 N 0.68604 0.99005 0.33506 0.0
N351 N 0.65065 0.99036 0.32239 0.0
C352 C 0.76795 0.98201 0.33012 0.0
H353 H 0.76886 0.98263 0.34836 0.0
H354 H 0.78835 0.01873 0.32357 0.0
H355 H 0.78223 0.93987 0.32395 0.0
C356 C 0.72564 0.10602 0.40906 0.0
N357 N 0.7109 0.05282 0.40227 0.0
N358 N 0.71024 0.0517 0.38059 0.0
C359 C 0.72375 0.10477 0.37297 0.0
C360 C 0.73412 0.14078 0.39077 0.0
C361 C 0.72853 0.12441 0.43267 0.0
H362 H 0.74945 0.09239 0.44169 0.0
H363 H 0.74303 0.16922 0.43457 0.0
H364 H 0.69517 0.12364 0.4401 0.0
O365 O 0.61799 0.99549 0.41062 0.0
O366 O 0.61896 0.99045 0.37419 0.0
H367 H 0.71906 0.17295 0.34802 0.0
H368 H 0.74809 0.10684 0.34006 0.0
C369 C 0.71959 0.12396 0.3495 0.0
H370 H 0.68902 0.10564 0.34222 0.0
H371 H 0.61845 0.99066 0.32831 0.0
O372 O 0.68577 1.00656 0.45059 0.0
C373 C 0.59792 0.9953 0.39221 0.0
Co374 Co 0.32438 0.0388 0.41823 0.0
Co375 Co 0.32391 0.04334 0.36641 0.0
C376 C 0.29045 0.14503 0.39323 0.0
O377 O 0.29932 0.1179 0.41105 0.0
O378 O 0.29801 0.12104 0.37464 0.0
C379 C 0.2831 0.03345 0.46113 0.0
O380 O 0.24746 0.04866 0.45028 0.0
C381 C 0.28886 0.04692 0.32103 0.0
C382 C 0.34521 0.01179 0.30215 0.0
C383 C 0.30242 0.0323 0.29978 0.0
N384 N 0.32196 0.03495 0.33506 0.0
N385 N 0.35561 0.0144 0.32361 0.0
C386 C 0.24446 0.06776 0.32838 0.0
H387 H 0.23949 0.05772 0.34607 0.0
H388 H 0.21812 0.0465 0.31848 0.0
H389 H 0.24232 0.11648 0.32622 0.0
C390 C 0.28026 0.92431 0.409 0.0
N391 N 0.29545 0.97743 0.40235 0.0
N392 N 0.29485 0.97941 0.38069 0.0
C393 C 0.27916 0.92757 0.37292 0.0
C394 C 0.2693 0.8911 0.39058 0.0
C395 C 0.28262 0.90259 0.43222 0.0
H396 H 0.31417 0.91652 0.4398 0.0
H397 H 0.25523 0.92245 0.44178 0.0
H398 H 0.27988 0.85364 0.43314 0.0
O399 O 0.38799 0.03558 0.41106 0.0
O400 O 0.38692 0.04004 0.37465 0.0
H401 H 0.31026 0.91314 0.34182 0.0
H402 H 0.26246 0.86691 0.34648 0.0
C403 C 0.27677 0.91159 0.34906 0.0
H404 H 0.25591 0.94426 0.34038 0.0
H405 H 0.38553 1.0013 0.33049 0.0
O406 O 0.319 0.02691 0.45064 0.0
C407 C 0.40805 0.03607 0.39267 0.0
Co408 Co 0.68091 0.53611 0.10238 0.0
Co409 Co 0.68248 0.54278 0.15375 0.0
C410 C 0.71311 0.64504 0.12549 0.0
O411 O 0.70523 0.61669 0.10778 0.0
O412 O 0.70565 0.62159 0.14421 0.0
C413 C 0.68093 0.55248 0.05503 0.0
O414 O 0.67867 0.60948 0.0593 0.0
C415 C 0.71916 0.55171 0.19867 0.0
C416 C 0.67042 0.49939 0.21739 0.0
C417 C 0.71005 0.52922 0.21948 0.0
N418 N 0.68701 0.53424 0.1849 0.0
N419 N 0.65772 0.50375 0.19628 0.0
C420 C 0.75622 0.59149 0.19201 0.0
H421 H 0.74358 0.62724 0.18131 0.0
H422 H 0.78059 0.56564 0.18236 0.0
H423 H 0.77245 0.6119 0.2065 0.0
C424 C 0.7295 0.42574 0.11134 0.0
N425 N 0.71245 0.47767 0.11813 0.0
N426 N 0.71296 0.47948 0.13975 0.0
C427 C 0.73018 0.42831 0.14738 0.0
C428 C 0.74098 0.39252 0.12959 0.0
C429 C 0.73097 0.40591 0.08788 0.0
H430 H 0.69695 0.39654 0.08223 0.0
H431 H 0.7449 0.44164 0.0775 0.0
H432 H 0.75126 0.36536 0.08588 0.0
O433 O 0.6179 0.53168 0.11039 0.0
O434 O 0.6191 0.53571 0.14674 0.0
H435 H 0.69554 0.40953 0.1771 0.0
H436 H 0.74459 0.36582 0.17352 0.0
C437 C 0.72994 0.41031 0.17105 0.0
H438 H 0.74873 0.44312 0.18085 0.0
H439 H 0.62963 0.4844 0.18949 0.0
O440 O 0.68314 0.516 0.07083 0.0
C441 C 0.59795 0.53097 0.12877 0.0
Co442 Co 0.32501 0.4927 0.10126 0.0
Co443 Co 0.32267 0.48782 0.15298 0.0
C444 C 0.28875 0.38716 0.12568 0.0
O445 O 0.29833 0.41422 0.10794 0.0
O446 O 0.29629 0.41078 0.14434 0.0
C447 C 0.28649 0.5014 0.05759 0.0
O448 O 0.24924 0.48968 0.06766 0.0
C449 C 0.28506 0.48448 0.19768 0.0
C450 C 0.34132 0.51472 0.21784 0.0
C451 C 0.29801 0.49619 0.21911 0.0
N452 N 0.31921 0.49576 0.18427 0.0
N453 N 0.35276 0.51364 0.19645 0.0
C454 C 0.24165 0.46084 0.19005 0.0
H455 H 0.23634 0.47162 0.17245 0.0
H456 H 0.21433 0.47882 0.20015 0.0
H457 H 0.24168 0.41193 0.1919 0.0
C458 C 0.28204 0.60835 0.11022 0.0
N459 N 0.29644 0.55483 0.1169 0.0
N460 N 0.29482 0.55249 0.13854 0.0
C461 C 0.27903 0.60434 0.14626 0.0
C462 C 0.27034 0.64131 0.12858 0.0
C463 C 0.28574 0.63058 0.08711 0.0
H464 H 0.31713 0.61534 0.07972 0.0
H465 H 0.25812 0.61246 0.07725 0.0
H466 H 0.28436 0.67966 0.08639 0.0
O467 O 0.38829 0.49379 0.10918 0.0
O468 O 0.38609 0.48986 0.14558 0.0
H469 H 0.30775 0.61702 0.17805 0.0
H470 H 0.26082 0.66433 0.17266 0.0
C471 C 0.2749 0.6195 0.17013 0.0
H472 H 0.25303 0.58687 0.17819 0.0
H473 H 0.38344 0.52555 0.19016 0.0
O474 O 0.3217 0.50515 0.06883 0.0
C475 C 0.40781 0.49306 0.12772 0.0
Co476 Co 0.68159 0.49208 0.91749 0.0
Co477 Co 0.67797 0.49185 0.86609 0.0
C478 C 0.7101 0.38585 0.89223 0.0
O479 O 0.70494 0.41206 0.91061 0.0
O480 O 0.70061 0.41184 0.87425 0.0
C481 C 0.67411 0.4731 0.96396 0.0
O482 O 0.65569 0.42281 0.95814 0.0
C483 C 0.71522 0.48818 0.82131 0.0
C484 C 0.6636 0.53438 0.8023 0.0
C485 C 0.705 0.50905 0.8004 0.0
N486 N 0.6819 0.50213 0.83494 0.0
N487 N 0.65099 0.52918 0.82341 0.0
C488 C 0.75487 0.45349 0.82824 0.0
H489 H 0.74536 0.41879 0.8401 0.0
H490 H 0.77839 0.48349 0.83668 0.0
H491 H 0.77118 0.43215 0.81396 0.0
C492 C 0.72882 0.60343 0.90935 0.0
N493 N 0.71178 0.55203 0.90203 0.0
N494 N 0.70969 0.55327 0.88043 0.0
C495 C 0.72503 0.606 0.87334 0.0
C496 C 0.73733 0.6396 0.89147 0.0
C497 C 0.73295 0.61974 0.93312 0.0
H498 H 0.69958 0.62472 0.94031 0.0
H499 H 0.75023 0.58379 0.94206 0.0
H500 H 0.75145 0.66174 0.93531 0.0
O501 O 0.61785 0.49791 0.91074 0.0
O502 O 0.61513 0.49905 0.87432 0.0
H503 H 0.68656 0.62455 0.84474 0.0
H504 H 0.73288 0.67366 0.84831 0.0
C505 C 0.72137 0.6273 0.85012 0.0
H506 H 0.74137 0.59836 0.83929 0.0
H507 H 0.62161 0.54514 0.83006 0.0
O508 O 0.68792 0.50794 0.94916 0.0
C509 C 0.59594 0.50127 0.89293 0.0
Co510 Co 0.32064 0.54641 0.91849 0.0
Co511 Co 0.32305 0.54462 0.86667 0.0
C512 C 0.28849 0.64981 0.89206 0.0
O513 O 0.29528 0.62501 0.91059 0.0
O514 O 0.29794 0.62336 0.87415 0.0
C515 C 0.28511 0.54956 0.96323 0.0
O516 O 0.25019 0.57419 0.95434 0.0
C517 C 0.28749 0.54813 0.82139 0.0
C518 C 0.34045 0.5038 0.80268 0.0
C519 C 0.29947 0.52989 0.80044 0.0
N520 N 0.32009 0.53377 0.83541 0.0
N521 N 0.35182 0.50783 0.82404 0.0
C522 C 0.24438 0.57418 0.82828 0.0
H523 H 0.23883 0.56713 0.84612 0.0
H524 H 0.21707 0.55427 0.81864 0.0
H525 H 0.2447 0.62246 0.82496 0.0
C526 C 0.27596 0.43176 0.91062 0.0
N527 N 0.29203 0.48371 0.90329 0.0
N528 N 0.29294 0.4828 0.88163 0.0
C529 C 0.27733 0.43022 0.87453 0.0
C530 C 0.26611 0.39616 0.89267 0.0
C531 C 0.27319 0.41507 0.93437 0.0
H532 H 0.2518 0.44728 0.94305 0.0
H533 H 0.25933 0.37002 0.93664 0.0
H534 H 0.30648 0.41726 0.94185 0.0
O535 O 0.38421 0.54306 0.91132 0.0
O536 O 0.38611 0.54095 0.8749 0.0
H537 H 0.26848 0.36328 0.84919 0.0
H538 H 0.25848 0.43883 0.84083 0.0
C539 C 0.27951 0.40982 0.85112 0.0
H540 H 0.31387 0.41349 0.84514 0.0
H541 H 0.38091 0.49174 0.83095 0.0
O542 O 0.3171 0.53464 0.95093 0.0
C543 C 0.40576 0.54007 0.8934 0.0
C544 C 0.22224 0.0806 0.25487 0.0
C545 C 0.22991 0.03889 0.23815 0.0
C546 C 0.24599 0.07883 0.27468 0.0
C547 C 0.27744 0.03425 0.2787 0.0
H548 H 0.19798 0.11523 0.25253 0.0
H549 H 0.23996 0.11323 0.28668 0.0
S550 S 0.30751 0.91248 0.24032 0.0
N551 N 0.26994 0.951 0.2269 0.0
N552 N 0.31407 0.94652 0.26415 0.0
C553 C 0.28516 0.99213 0.26198 0.0
C554 C 0.26139 0.99455 0.24175 0.0
C555 C 0.78768 0.0296 0.25515 0.0
C556 C 0.78103 0.98515 0.23918 0.0
C557 C 0.76479 0.02907 0.27519 0.0
C558 C 0.73437 0.9841 0.27996 0.0
H559 H 0.81017 0.06584 0.25196 0.0
H560 H 0.76999 0.06497 0.28674 0.0
S561 S 0.70931 0.8531 0.24541 0.0
N562 N 0.74553 0.89109 0.23091 0.0
N563 N 0.70092 0.89187 0.26808 0.0
C564 C 0.72822 0.93857 0.26452 0.0
C565 C 0.75202 0.93855 0.24426 0.0
C566 C 0.24333 0.96195 0.74279 0.0
C567 C 0.27652 1.0042 0.73879 0.0
C568 C 0.21983 0.96156 0.76266 0.0
C569 C 0.22945 1.00242 0.7794 0.0
H570 H 0.23575 0.92832 0.7307 0.0
H571 H 0.1942 0.9288 0.76504 0.0
S572 S 0.31218 0.12264 0.77739 0.0
N573 N 0.31695 0.08874 0.75343 0.0
N574 N 0.27322 0.08679 0.79083 0.0
C575 C 0.2626 0.04441 0.77584 0.0
C576 C 0.28617 0.04541 0.75556 0.0
C577 C 0.7239 0.07628 0.75415 0.0
C578 C 0.73215 0.03425 0.73762 0.0
C579 C 0.74685 0.07479 0.77417 0.0
C580 C 0.77805 0.03019 0.7786 0.0
H581 H 0.6997 0.11084 0.75152 0.0
H582 H 0.74038 0.10941 0.78601 0.0
S583 S 0.80968 0.90794 0.74077 0.0
N584 N 0.77261 0.94621 0.72691 0.0
N585 N 0.81533 0.94235 0.76459 0.0
C586 C 0.7865 0.98789 0.76204 0.0
C587 C 0.76352 0.99 0.74158 0.0
C588 C 0.23944 0.47956 0.74914 0.0
C589 C 0.22526 0.53309 0.73973 0.0
C590 C 0.26365 0.47908 0.76878 0.0
C591 C 0.27334 0.532 0.77997 0.0
H592 H 0.23221 0.43778 0.74112 0.0
H593 H 0.27445 0.43696 0.77539 0.0
S594 S 0.24315 0.68372 0.76229 0.0
N595 N 0.22264 0.64028 0.74293 0.0
N596 N 0.26722 0.63931 0.78023 0.0
C597 C 0.25899 0.58579 0.77085 0.0
C598 C 0.23517 0.58635 0.7506 0.0
C599 C 0.73272 0.49587 0.73984 0.0
C600 C 0.77865 0.5043 0.73916 0.0
C601 C 0.70963 0.49634 0.75977 0.0
C602 C 0.73121 0.50677 0.77984 0.0
H603 H 0.71381 0.49081 0.72492 0.0
H604 H 0.67437 0.48911 0.7594 0.0
S605 S 0.84973 0.54211 0.78689 0.0
N606 N 0.8443 0.52802 0.7604 0.0
N607 N 0.80008 0.53431 0.79749 0.0
C608 C 0.77665 0.51857 0.77937 0.0
C609 C 0.80047 0.51629 0.75914 0.0
C610 C 0.28209 0.45541 0.25634 0.0
C611 C 0.27133 0.49477 0.23932 0.0
C612 C 0.25849 0.4556 0.27618 0.0
C613 C 0.22402 0.4962 0.27987 0.0
H614 H 0.30873 0.42398 0.25422 0.0
H615 H 0.26703 0.4231 0.2885 0.0
S616 S 0.18511 0.61067 0.24055 0.0
N617 N 0.22518 0.57623 0.22737 0.0
N618 N 0.18118 0.57772 0.2647 0.0
C619 C 0.21323 0.53596 0.26285 0.0
C620 C 0.23694 0.53518 0.2426 0.0
C621 C 0.71421 0.53888 0.26016 0.0
C622 C 0.73622 0.53234 0.23999 0.0
C623 C 0.73717 0.53826 0.28011 0.0
C624 C 0.78332 0.53257 0.28074 0.0
H625 H 0.67871 0.54354 0.26057 0.0
H626 H 0.71807 0.54013 0.29507 0.0
S627 S 0.85593 0.50593 0.23261 0.0
N628 N 0.80612 0.51201 0.22201 0.0
N629 N 0.84988 0.51598 0.25932 0.0
C630 C 0.80567 0.52475 0.26065 0.0
C631 C 0.78206 0.5237 0.24033 0.0
C632 C 0.24068 0.23946 0.14408 0.0
C633 C 0.23232 0.20943 0.1242 0.0
C634 C 0.25859 0.2967 0.14434 0.0
C635 C 0.26903 0.3267 0.12472 0.0
H636 H 0.23348 0.21861 0.1597 0.0
H637 H 0.26438 0.31743 0.16015 0.0
S638 S 0.25317 0.26828 0.06808 0.0
N639 N 0.23564 0.21457 0.08423 0.0
N640 N 0.26923 0.32189 0.08471 0.0
C641 C 0.26066 0.29738 0.10466 0.0
C642 C 0.24239 0.23895 0.1044 0.0
C643 C 0.73985 0.73785 0.14405 0.0
C644 C 0.73156 0.70632 0.12447 0.0
C645 C 0.75786 0.79504 0.14377 0.0
C646 C 0.76836 0.8237 0.12389 0.0
H647 H 0.73247 0.71833 0.15987 0.0
H648 H 0.76363 0.81682 0.15939 0.0
S649 S 0.75224 0.7615 0.06783 0.0
N650 N 0.73477 0.70886 0.08447 0.0
N651 N 0.76834 0.81623 0.08394 0.0
C652 C 0.75979 0.79308 0.10412 0.0
C653 C 0.74152 0.73459 0.10441 0.0
C654 C 0.23945 0.7969 0.91089 0.0
C655 C 0.23221 0.82774 0.8911 0.0
C656 C 0.25754 0.73969 0.91102 0.0
C657 C 0.26935 0.71065 0.89136 0.0
H658 H 0.23096 0.81694 0.92652 0.0
H659 H 0.26221 0.71812 0.92675 0.0
S660 S 0.2579 0.77212 0.83494 0.0
N661 N 0.23872 0.8247 0.85118 0.0
N662 N 0.27291 0.71783 0.85145 0.0
C663 C 0.26251 0.74107 0.87141 0.0
C664 C 0.24394 0.7993 0.87128 0.0
C665 C 0.74408 0.29816 0.91123 0.0
C666 C 0.72806 0.32435 0.89179 0.0
C667 C 0.76219 0.24092 0.91122 0.0
C668 C 0.76527 0.20731 0.89175 0.0
H669 H 0.74306 0.32218 0.92665 0.0
H670 H 0.77431 0.22326 0.92663 0.0
S671 S 0.7259 0.25385 0.83651 0.0
N672 N 0.71466 0.31068 0.85264 0.0
N673 N 0.74928 0.20406 0.85254 0.0
C674 C 0.74884 0.23264 0.87222 0.0
C675 C 0.73012 0.29077 0.87226 0.0
C676 C 0.79104 0.7889 0.8824 0.0
C677 C 0.76101 0.82811 0.89234 0.0
C678 C 0.78323 0.72769 0.88218 0.0
C679 C 0.74532 0.70405 0.89199 0.0
H680 H 0.82082 0.8057 0.87484 0.0
H681 H 0.80699 0.69865 0.87438 0.0
S682 S 0.65598 0.78835 0.91937 0.0
N683 N 0.6918 0.83946 0.91178 0.0
N684 N 0.67679 0.72433 0.91123 0.0
C685 C 0.71498 0.74285 0.90186 0.0
C686 C 0.72298 0.80501 0.90211 0.0
C687 C 0.28551 0.29214 0.90263 0.0
C688 C 0.25601 0.3322 0.89281 0.0
C689 C 0.27732 0.23102 0.90226 0.0
C690 C 0.2396 0.20826 0.89192 0.0
H691 H 0.31531 0.30816 0.91042 0.0
H692 H 0.30076 0.20131 0.90993 0.0
S693 S 0.15112 0.29507 0.86504 0.0
N694 N 0.18709 0.34537 0.87325 0.0
N695 N 0.17143 0.23037 0.87266 0.0
C696 C 0.20957 0.24795 0.88237 0.0
C697 C 0.21791 0.31005 0.88275 0.0
C698 C 0.7193 0.28863 0.12087 0.0
C699 C 0.75005 0.32829 0.12996 0.0
C700 C 0.72718 0.22748 0.12082 0.0
C701 C 0.76589 0.20419 0.12997 0.0
H702 H 0.68893 0.30505 0.11379 0.0
H703 H 0.7029 0.1982 0.11357 0.0
S704 S 0.85748 0.28968 0.15485 0.0
N705 N 0.82096 0.34048 0.14778 0.0
N706 N 0.83603 0.22528 0.14758 0.0
C707 C 0.79699 0.24339 0.139 0.0
C708 C 0.78895 0.30561 0.13905 0.0
C709 C 0.27858 0.80605 0.14009 0.0
C710 C 0.24229 0.82881 0.12856 0.0
C711 C 0.28718 0.74501 0.14031 0.0
C712 C 0.2595 0.70505 0.12916 0.0
H713 H 0.30072 0.83571 0.1487 0.0
H714 H 0.31604 0.72903 0.14894 0.0
S715 S 0.15838 0.74215 0.09809 0.0
N716 N 0.17707 0.80672 0.10688 0.0
N717 N 0.19355 0.69196 0.10716 0.0
C718 C 0.22268 0.7272 0.11797 0.0
C719 C 0.21391 0.78918 0.11775 0.0
C720 C 0.24158 0.74133 0.64502 0.0
C721 C 0.23201 0.71061 0.62542 0.0
C722 C 0.25937 0.79869 0.64469 0.0
C723 C 0.26846 0.82804 0.62476 0.0
H724 H 0.23535 0.721 0.66083 0.0
H725 H 0.26609 0.82004 0.6603 0.0
S726 S 0.24917 0.76759 0.56869 0.0
N727 N 0.23284 0.7144 0.58537 0.0
N728 N 0.26615 0.8218 0.58481 0.0
C729 C 0.25895 0.79794 0.60501 0.0
C730 C 0.24083 0.73947 0.60533 0.0
C731 C 0.76492 0.28981 0.64359 0.0
C732 C 0.7727 0.321 0.62393 0.0
C733 C 0.74661 0.23277 0.64347 0.0
C734 C 0.73528 0.20409 0.62367 0.0
H735 H 0.7729 0.30951 0.65933 0.0
H736 H 0.74126 0.21113 0.65912 0.0
S737 S 0.7497 0.26561 0.56745 0.0
N738 N 0.76807 0.31816 0.58395 0.0
N739 N 0.73389 0.21121 0.58372 0.0
C740 C 0.74327 0.23444 0.60382 0.0
C741 C 0.76188 0.29267 0.60395 0.0
C742 C 0.24341 0.29318 0.37456 0.0
C743 C 0.23502 0.32336 0.3944 0.0
C744 C 0.26114 0.23579 0.37438 0.0
C745 C 0.27134 0.20585 0.39405 0.0
H746 H 0.23624 0.31392 0.35891 0.0
H747 H 0.26685 0.21485 0.3586 0.0
S748 S 0.25575 0.26495 0.45062 0.0
N749 N 0.2384 0.3186 0.43439 0.0
N750 N 0.27162 0.21109 0.43405 0.0
C751 C 0.26314 0.23546 0.41406 0.0
C752 C 0.24508 0.294 0.41424 0.0
C753 C 0.76699 0.73981 0.37612 0.0
C754 C 0.77329 0.70863 0.39593 0.0
C755 C 0.7486 0.79675 0.37586 0.0
C756 C 0.73579 0.82546 0.39541 0.0
H757 H 0.77631 0.72027 0.36055 0.0
H758 H 0.7445 0.81836 0.3601 0.0
S759 S 0.74596 0.76405 0.45188 0.0
N760 N 0.76561 0.71143 0.43578 0.0
N761 N 0.73133 0.81841 0.43531 0.0
C762 C 0.74226 0.79514 0.41541 0.0
C763 C 0.76091 0.73691 0.41567 0.0
C764 C 0.72278 0.30556 0.40157 0.0
C765 C 0.7595 0.32911 0.39065 0.0
C766 C 0.71451 0.24447 0.40137 0.0
C767 C 0.743 0.20511 0.39043 0.0
H768 H 0.7004 0.33458 0.41033 0.0
H769 H 0.68569 0.22786 0.40985 0.0
S770 S 0.84463 0.24442 0.36024 0.0
N771 N 0.8253 0.30847 0.3692 0.0
N772 N 0.80946 0.19356 0.36874 0.0
C773 C 0.77972 0.22812 0.37943 0.0
C774 C 0.78814 0.29022 0.37962 0.0
C775 C 0.27849 0.72619 0.37971 0.0
C776 C 0.24134 0.70365 0.39057 0.0
C777 C 0.2871 0.78721 0.37951 0.0
C778 C 0.25857 0.82735 0.39002 0.0
H779 H 0.30129 0.69637 0.37161 0.0
H780 H 0.31658 0.80304 0.3714 0.0
S781 S 0.15539 0.79075 0.41937 0.0
N782 N 0.17467 0.72604 0.41106 0.0
N783 N 0.19113 0.84081 0.4108 0.0
C784 C 0.22098 0.8054 0.40058 0.0
C785 C 0.21221 0.74343 0.40078 0.0
C786 C 0.78163 0.73841 0.63777 0.0
C787 C 0.75262 0.69879 0.62733 0.0
C788 C 0.7737 0.79959 0.63756 0.0
C789 C 0.73665 0.82287 0.62681 0.0
H790 H 0.81104 0.72205 0.64582 0.0
H791 H 0.79694 0.82895 0.64557 0.0
S792 S 0.6491 0.73724 0.59857 0.0
N793 N 0.6846 0.68653 0.60691 0.0
N794 N 0.6692 0.80161 0.60676 0.0
C795 C 0.70686 0.78358 0.6168 0.0
C796 C 0.71504 0.72142 0.61695 0.0
C797 C 0.28022 0.30862 0.61807 0.0
C798 C 0.24262 0.3311 0.62861 0.0
C799 C 0.28835 0.24752 0.61738 0.0
C800 C 0.25891 0.20717 0.62704 0.0
H801 H 0.3034 0.33851 0.61033 0.0
H802 H 0.31794 0.23171 0.60934 0.0
S803 S 0.15475 0.24356 0.65562 0.0
N804 N 0.17495 0.30847 0.6482 0.0
N805 N 0.19051 0.19349 0.64699 0.0
C806 C 0.22117 0.22908 0.63752 0.0
C807 C 0.2129 0.29118 0.63825 0.0
C808 C 0.97924 1.01005 0.14319 0.0
C809 C 0.95634 0.99971 0.12342 0.0
C810 C 0.02439 0.02257 0.14331 0.0
C811 C 0.04882 0.02521 0.12367 0.0
H812 H 0.96215 1.00925 0.15881 0.0
H813 H 0.04018 0.03009 0.15904 0.0
S814 S 0.00495 0.99995 0.06734 0.0
N815 N 0.96185 0.99191 0.08357 0.0
N816 N 0.04664 0.01536 0.08378 0.0
C817 C 0.02645 0.01455 0.10373 0.0
C818 C 0.98034 1.00178 0.10361 0.0
C819 C 0.02281 0.01057 0.91164 0.0
C820 C 0.04653 1.00836 0.89175 0.0
C821 C 0.97748 0.02248 0.91197 0.0
C822 C 0.95386 0.03292 0.89243 0.0
H823 H 0.03931 1.0031 0.92718 0.0
H824 H 0.96083 0.02288 0.92772 0.0
S825 S 1.00051 0.03388 0.83589 0.0
N826 N 0.0427 0.01829 0.85193 0.0
N827 N 0.95813 0.04174 0.85257 0.0
C828 C 0.97727 0.03153 0.87242 0.0
C829 C 0.02332 0.0189 0.87207 0.0
C830 C 0.97787 0.51096 0.64411 0.0
C831 C 0.95426 0.5079 0.6242 0.0
C832 C 0.02321 0.52255 0.64444 0.0
C833 C 0.047 0.53164 0.62487 0.0
H834 H 0.96129 0.50437 0.65968 0.0
H835 H 0.03972 0.52376 0.66022 0.0
S836 S 1.00077 0.52973 0.56824 0.0
N837 N 0.95827 0.51586 0.5843 0.0
N838 N 0.04318 0.53779 0.58492 0.0
C839 C 0.02377 0.52921 0.60481 0.0
C840 C 0.97759 0.51727 0.60447 0.0
C841 C 0.97966 0.51924 0.37664 0.0
C842 C 0.95639 0.52486 0.39655 0.0
C843 C 0.02492 0.50756 0.37635 0.0
C844 C 0.04906 0.50102 0.39597 0.0
H845 H 0.96284 0.52367 0.36102 0.0
H846 H 0.04107 0.50419 0.36053 0.0
S847 S 0.00391 0.51094 0.45266 0.0
N848 N 0.96108 0.5225 0.43654 0.0
N849 N 0.04605 0.50053 0.43599 0.0
C850 C 0.02624 0.50624 0.41605 0.0
C851 C 0.98004 0.5182 0.41635 0.0
C852 C 0.47754 0.01922 0.6058 0.0
C853 C 0.45465 1.00438 0.62517 0.0
C854 C 0.52299 0.03024 0.60604 0.0
C855 C 0.54751 0.0271 0.62566 0.0
H856 H 0.46022 0.02304 0.5903 0.0
H857 H 0.53894 0.04146 0.59067 0.0
S858 S 0.50379 0.98713 0.68078 0.0
N859 N 0.4605 0.98504 0.66444 0.0
N860 N 0.54545 1.00605 0.6649 0.0
C861 C 0.52508 0.01176 0.64512 0.0
C862 C 0.47888 1.00027 0.64486 0.0
C863 C 0.47954 0.01339 0.41156 0.0
C864 C 0.45663 0.02782 0.39215 0.0
C865 C 0.52495 1.00224 0.41136 0.0
C866 C 0.54947 1.00486 0.39175 0.0
H867 H 0.46228 1.01003 0.42708 0.0
H868 H 0.54087 0.99131 0.42677 0.0
S869 S 0.50574 0.04342 0.33648 0.0
N870 N 0.46242 0.04596 0.3528 0.0
N871 N 0.54745 0.02494 0.35243 0.0
C872 C 0.52706 0.01977 0.37223 0.0
C873 C 0.48083 0.03132 0.37243 0.0
C874 C 0.52566 0.52045 0.1093 0.0
C875 C 0.5495 0.5216 0.12915 0.0
C876 C 0.4802 0.51007 0.109 0.0
C877 C 0.45648 0.50021 0.12854 0.0
H878 H 0.54213 0.52781 0.09375 0.0
H879 H 0.46355 0.51041 0.09325 0.0
S880 S 0.50346 0.49648 0.18499 0.0
N881 N 0.54592 0.51068 0.16894 0.0
N882 N 0.46072 0.49072 0.16838 0.0
C883 C 0.47997 0.50049 0.14854 0.0
C884 C 0.52631 0.51136 0.14885 0.0
C885 C 0.47813 0.52771 0.87417 0.0
C886 C 0.45437 0.53194 0.89399 0.0
C887 C 0.52358 0.51731 0.87405 0.0
C888 C 0.54746 0.51059 0.89374 0.0
H889 H 0.46154 0.53214 0.8585 0.0
H890 H 0.54005 0.51465 0.85829 0.0
S891 S 0.50111 0.51783 0.95026 0.0
N892 N 0.45841 0.52866 0.93398 0.0
N893 N 0.54372 0.5091 0.93375 0.0
C894 C 0.52421 0.51484 0.91374 0.0
C895 C 0.4778 0.52555 0.91387 0.0
C896 C 0.25711 0.01909 0.99661 0.0
C897 C 0.21758 1.00734 0.98532 0.0
C898 C 0.25742 0.03061 0.01929 0.0
C899 C 0.21828 0.03001 0.03168 0.0
H900 H 0.28813 0.02018 0.98783 0.0
H901 H 0.28869 0.03965 0.02718 0.0
S902 S 0.10588 1.00085 0.01011 0.0
N903 N 0.13815 0.9955 0.98837 0.0
N904 N 0.13879 0.01647 0.03092 0.0
C905 C 0.17853 0.0178 0.02064 0.0
C906 C 0.17816 1.00671 0.99751 0.0
C907 C 0.81856 0.0204 0.99755 0.0
C908 C 0.7795 0.03371 0.98607 0.0
C909 C 0.81842 1.01012 0.0203 0.0
C910 C 0.77914 0.01195 0.03257 0.0
H911 H 0.84973 0.01805 0.98894 0.0
H912 H 0.84942 1.00001 0.02828 0.0
S913 S 0.66784 0.04584 0.01065 0.0
N914 N 0.70035 0.04899 0.98894 0.0
N915 N 0.70012 0.02915 0.03158 0.0
C916 C 0.73981 0.02526 0.02136 0.0
C917 C 0.73999 0.03629 0.99819 0.0
C918 C 0.25917 0.51846 0.52194 0.0
C919 C 0.21943 0.5272 0.53341 0.0
C920 C 0.25946 0.5061 0.49931 0.0
C921 C 0.22006 0.50283 0.48719 0.0
H922 H 0.29039 0.52052 0.53052 0.0
H923 H 0.29089 0.49962 0.49125 0.0
S924 S 0.107 0.52261 0.50933 0.0
N925 N 0.13949 0.53173 0.53082 0.0
N926 N 0.14008 0.50915 0.4884 0.0
C927 C 0.18006 0.51183 0.49842 0.0
C928 C 0.17974 0.52379 0.52148 0.0
C929 C 0.81656 0.52749 0.49904 0.0
C930 C 0.77819 0.51933 0.48646 0.0
C931 C 0.81677 0.51738 0.52173 0.0
C932 C 0.77873 0.49803 0.53283 0.0
H933 H 0.8468 0.54223 0.49135 0.0
H934 H 0.84727 0.52458 0.53058 0.0
S935 S 0.66978 0.4684 0.50728 0.0
N936 N 0.70115 0.49002 0.48663 0.0
N937 N 0.70152 0.47046 0.52931 0.0
C938 C 0.74007 0.48937 0.52042 0.0
C939 C 0.73979 0.50022 0.49725 0.0
C940 C 0.68098 0.0263 0.51998 0.0
C941 C 0.72025 0.02517 0.53225 0.0
C942 C 0.681 0.01556 0.49727 0.0
C943 C 0.7202 1.00217 0.48593 0.0
H944 H 0.64993 0.03618 0.52795 0.0
H945 H 0.64988 0.01722 0.48859 0.0
S946 S 0.83185 0.99225 0.5106 0.0
N947 N 0.79939 1.00911 0.53145 0.0
N948 N 0.79944 0.98801 0.48886 0.0
C949 C 0.7597 1.00039 0.49805 0.0
C950 C 0.75974 0.01219 0.52116 0.0
C951 C 0.32101 0.02261 0.49751 0.0
C952 C 0.28167 0.02289 0.48526 0.0
C953 C 0.32086 0.01286 0.52029 0.0
C954 C 0.28142 1.0021 0.53178 0.0
H955 H 0.35231 0.03047 0.4895 0.0
H956 H 0.35208 0.01326 0.5289 0.0
S957 S 0.16931 0.9975 0.50741 0.0
N958 N 0.20206 0.01136 0.48638 0.0
N959 N 0.20181 0.9924 0.52908 0.0
C960 C 0.24181 1.00195 0.51973 0.0
C961 C 0.24192 0.01256 0.49653 0.0
C962 C 0.68784 0.56989 0.0146 0.0
C963 C 0.67984 0.53059 0.03205 0.0
C964 C 0.68653 0.55058 0.99273 0.0
C965 C 0.67674 0.49127 0.98736 0.0
H966 H 0.69529 0.61603 0.01783 0.0
H967 H 0.69271 0.58282 0.97993 0.0
S968 S 0.65336 0.37034 0.02695 0.0
N969 N 0.6618 0.42928 0.04246 0.0
N970 N 0.65946 0.39312 1.00136 0.0
C971 C 0.66885 0.45136 1.00463 0.0
C972 C 0.67041 0.47096 0.02695 0.0
C973 C 0.24775 0.54051 0.99988 0.0
C974 C 0.28652 0.53709 0.98725 0.0
C975 C 0.248 0.5283 0.02251 0.0
C976 C 0.28712 0.51292 0.03353 0.0
H977 H 0.21676 0.5523 0.99224 0.0
H978 H 0.21727 0.53165 0.03146 0.0
S979 S 0.39772 0.49745 1.0081 0.0
N980 N 0.36525 0.51663 0.98755 0.0
N981 N 0.36572 0.49437 0.03 0.0
C982 C 0.32618 0.50944 0.02113 0.0
C983 C 0.32587 0.52127 0.99804 0.0
loop_
_geom_bond_atom_site_label_1
_geom_bond_atom_site_label_2
_geom_bond_distance
_geom_bond_site_symmetry_2
_ccdc_geom_bond_type
Co0 O3 1.970 . S
Co0 N17 1.989 1_545 S
Co0 O25 1.967 . S
Co0 O32 1.920 . S
Co1 O4 1.966 . S
Co1 N10 2.022 . S
Co1 N18 1.993 1_545 S
Co1 O26 1.941 . S
C2 O3 1.258 . S
C2 O4 1.263 . S
O3 Co0 1.970 . S
O3 C2 1.258 . S
O4 Co1 1.966 . S
O4 C2 1.263 . S
C5 O6 1.235 . S
C5 O32 1.289 . S
O6 C5 1.235 . S
C7 C9 1.400 . S
C7 N10 1.351 . S
C7 C12 1.501 . S
C8 C9 1.387 1_565 S
C8 N11 1.341 . S
C9 C7 1.400 . S
C9 C8 1.387 1_545 S
N10 Co1 2.022 . S
N10 C7 1.351 . S
N10 N11 1.365 1_545 S
N11 C8 1.341 . S
N11 N10 1.365 1_565 S
N11 H31 0.862 . S
C12 C7 1.501 . S
C12 H13 0.961 . S
C12 H14 0.961 . S
C12 H15 0.960 . S
H13 C12 0.961 . S
H14 C12 0.961 . S
H15 C12 0.960 . S
C16 N17 1.342 . S
C16 C20 1.401 . S
C16 C21 1.499 . S
N17 Co0 1.989 1_565 S
N17 C16 1.342 . S
N17 N18 1.388 . S
N18 Co1 1.993 1_565 S
N18 N17 1.388 . S
N18 C19 1.346 . S
C19 N18 1.346 . S
C19 C20 1.396 . S
C19 C29 1.510 . S
C20 C16 1.401 . S
C20 C19 1.396 . S
C21 C16 1.499 . S
C21 H22 0.959 . S
C21 H23 0.960 . S
C21 H24 0.961 . S
H22 C21 0.959 . S
H23 C21 0.960 . S
H24 C21 0.961 . S
O25 Co0 1.967 . S
O25 C33 1.258 . S
O26 Co1 1.941 . S
O26 C33 1.266 . S
H27 C29 0.959 . S
H28 C29 0.961 . S
C29 C19 1.510 . S
C29 H27 0.959 . S
C29 H28 0.961 . S
C29 H30 0.960 . S
H30 C29 0.960 . S
H31 N11 0.862 . S
O32 Co0 1.920 . S
O32 C5 1.289 . S
C33 O25 1.258 . S
C33 O26 1.266 . S
Co34 O37 1.970 . S
Co34 N51 1.989 1_565 S
Co34 O59 1.967 . S
Co34 O66 1.920 1_565 S
Co35 O38 1.966 . S
Co35 N44 2.022 1_565 S
Co35 N52 1.993 1_565 S
Co35 O60 1.941 . S
C36 O37 1.258 . S
C36 O38 1.263 . S
O37 Co34 1.970 . S
O37 C36 1.258 . S
O38 Co35 1.966 . S
O38 C36 1.263 . S
C39 O40 1.237 . S
C39 O66 1.288 1_565 S
O40 C39 1.237 . S
C41 C43 1.400 1_565 S
C41 N44 1.351 1_565 S
C41 C46 1.501 . S
C42 C43 1.387 . S
C42 N45 1.341 . S
C43 C41 1.400 1_545 S
C43 C42 1.387 . S
N44 Co35 2.022 1_545 S
N44 C41 1.351 1_545 S
N44 N45 1.365 . S
N45 C42 1.341 . S
N45 N44 1.365 . S
N45 H65 0.862 . S
C46 C41 1.501 . S
C46 H47 0.961 . S
C46 H48 0.961 . S
C46 H49 0.960 . S
H47 C46 0.961 . S
H48 C46 0.961 . S
H49 C46 0.960 . S
C50 N51 1.342 . S
C50 C54 1.401 . S
C50 C55 1.499 . S
N51 Co34 1.989 1_545 S
N51 C50 1.342 . S
N51 N52 1.388 . S
N52 Co35 1.993 1_545 S
N52 N51 1.388 . S
N52 C53 1.346 . S
C53 N52 1.346 . S
C53 C54 1.396 . S
C53 C63 1.510 . S
C54 C50 1.401 . S
C54 C53 1.396 . S
C55 C50 1.499 . S
C55 H56 0.959 . S
C55 H57 0.960 . S
C55 H58 0.961 . S
H56 C55 0.959 . S
H57 C55 0.960 . S
H58 C55 0.961 . S
O59 Co34 1.967 . S
O59 C67 1.258 . S
O60 Co35 1.941 . S
O60 C67 1.266 . S
H61 C63 0.959 . S
H62 C63 0.961 . S
C63 C53 1.510 . S
C63 H61 0.959 . S
C63 H62 0.961 . S
C63 H64 0.960 . S
H64 C63 0.960 . S
H65 N45 0.862 . S
O66 Co34 1.920 1_545 S
O66 C39 1.288 1_545 S
C67 O59 1.258 . S
C67 O60 1.266 . S
Co68 O71 1.970 . S
Co68 N85 1.989 1_565 S
Co68 O93 1.967 . S
Co68 O100 1.920 1_565 S
Co69 O72 1.966 . S
Co69 N78 2.022 1_565 S
Co69 N86 1.993 1_565 S
Co69 O94 1.941 . S
C70 O71 1.258 . S
C70 O72 1.263 . S
O71 Co68 1.970 . S
O71 C70 1.258 . S
O72 Co69 1.966 . S
O72 C70 1.263 . S
C73 O74 1.237 . S
C73 O100 1.288 1_565 S
O74 C73 1.237 . S
C75 C77 1.400 1_565 S
C75 N78 1.351 1_565 S
C75 C80 1.501 . S
C76 C77 1.387 . S
C76 N79 1.341 . S
C77 C75 1.400 1_545 S
C77 C76 1.387 . S
N78 Co69 2.022 1_545 S
N78 C75 1.351 1_545 S
N78 N79 1.365 . S
N79 C76 1.341 . S
N79 N78 1.365 . S
N79 H99 0.862 . S
C80 C75 1.501 . S
C80 H81 0.961 . S
C80 H82 0.961 . S
C80 H83 0.960 . S
H81 C80 0.961 . S
H82 C80 0.961 . S
H83 C80 0.960 . S
C84 N85 1.342 . S
C84 C88 1.401 . S
C84 C89 1.499 . S
N85 Co68 1.989 1_545 S
N85 C84 1.342 . S
N85 N86 1.388 . S
N86 Co69 1.993 1_545 S
N86 N85 1.388 . S
N86 C87 1.346 . S
C87 N86 1.346 . S
C87 C88 1.396 . S
C87 C97 1.510 . S
C88 C84 1.401 . S
C88 C87 1.396 . S
C89 C84 1.499 . S
C89 H90 0.959 . S
C89 H91 0.960 . S
C89 H92 0.961 . S
H90 C89 0.959 . S
H91 C89 0.960 . S
H92 C89 0.961 . S
O93 Co68 1.967 . S
O93 C101 1.258 . S
O94 Co69 1.941 . S
O94 C101 1.266 . S
H95 C97 0.959 . S
H96 C97 0.961 . S
C97 C87 1.510 . S
C97 H95 0.959 . S
C97 H96 0.961 . S
C97 H98 0.960 . S
H98 C97 0.960 . S
H99 N79 0.862 . S
O100 Co68 1.920 1_545 S
O100 C73 1.288 1_545 S
C101 O93 1.258 . S
C101 O94 1.266 . S
Co102 O105 1.970 . S
Co102 N119 1.989 1_545 S
Co102 O127 1.967 . S
Co102 O134 1.920 . S
Co103 O106 1.966 . S
Co103 N112 2.022 . S
Co103 N120 1.993 1_545 S
Co103 O128 1.941 . S
C104 O105 1.258 . S
C104 O106 1.263 . S
O105 Co102 1.970 . S
O105 C104 1.258 . S
O106 Co103 1.966 . S
O106 C104 1.263 . S
C107 O108 1.235 . S
C107 O134 1.289 . S
O108 C107 1.235 . S
C109 C111 1.400 . S
C109 N112 1.351 . S
C109 C114 1.501 . S
C110 C111 1.387 1_565 S
C110 N113 1.341 . S
C111 C109 1.400 . S
C111 C110 1.387 1_545 S
N112 Co103 2.022 . S
N112 C109 1.351 . S
N112 N113 1.365 1_545 S
N113 C110 1.341 . S
N113 N112 1.365 1_565 S
N113 H133 0.862 . S
C114 C109 1.501 . S
C114 H115 0.961 . S
C114 H116 0.961 . S
C114 H117 0.960 . S
H115 C114 0.961 . S
H116 C114 0.961 . S
H117 C114 0.960 . S
C118 N119 1.342 . S
C118 C122 1.401 . S
C118 C123 1.499 . S
N119 Co102 1.989 1_565 S
N119 C118 1.342 . S
N119 N120 1.388 . S
N120 Co103 1.993 1_565 S
N120 N119 1.388 . S
N120 C121 1.346 . S
C121 N120 1.346 . S
C121 C122 1.396 . S
C121 C131 1.510 . S
C122 C118 1.401 . S
C122 C121 1.396 . S
C123 C118 1.499 . S
C123 H124 0.959 . S
C123 H125 0.960 . S
C123 H126 0.961 . S
H124 C123 0.959 . S
H125 C123 0.960 . S
H126 C123 0.961 . S
O127 Co102 1.967 . S
O127 C135 1.258 . S
O128 Co103 1.941 . S
O128 C135 1.266 . S
H129 C131 0.959 . S
H130 C131 0.961 . S
C131 C121 1.510 . S
C131 H129 0.959 . S
C131 H130 0.961 . S
C131 H132 0.960 . S
H132 C131 0.960 . S
H133 N113 0.862 . S
O134 Co102 1.920 . S
O134 C107 1.289 . S
C135 O127 1.258 . S
C135 O128 1.266 . S
Co136 O139 1.970 . S
Co136 N153 1.989 . S
Co136 O161 1.967 . S
Co136 O168 1.920 . S
Co137 O140 1.966 . S
Co137 N146 2.022 . S
Co137 N154 1.993 . S
Co137 O162 1.941 . S
C138 O139 1.258 . S
C138 O140 1.263 . S
O139 Co136 1.970 . S
O139 C138 1.258 . S
O140 Co137 1.966 . S
O140 C138 1.263 . S
C141 O142 1.235 . S
C141 O168 1.289 . S
O142 C141 1.235 . S
C143 C145 1.400 . S
C143 N146 1.351 . S
C143 C148 1.501 . S
C144 C145 1.387 . S
C144 N147 1.341 . S
C145 C143 1.400 . S
C145 C144 1.387 . S
N146 Co137 2.022 . S
N146 C143 1.351 . S
N146 N147 1.365 . S
N147 C144 1.341 . S
N147 N146 1.365 . S
N147 H167 0.862 . S
C148 C143 1.501 . S
C148 H149 0.961 . S
C148 H150 0.961 . S
C148 H151 0.960 . S
H149 C148 0.961 . S
H150 C148 0.961 . S
H151 C148 0.960 . S
C152 N153 1.342 . S
C152 C156 1.401 . S
C152 C157 1.499 . S
N153 Co136 1.989 . S
N153 C152 1.342 . S
N153 N154 1.388 . S
N154 Co137 1.993 . S
N154 N153 1.388 . S
N154 C155 1.346 . S
C155 N154 1.346 . S
C155 C156 1.396 . S
C155 C165 1.510 . S
C156 C152 1.401 . S
C156 C155 1.396 . S
C157 C152 1.499 . S
C157 H158 0.959 . S
C157 H159 0.960 . S
C157 H160 0.961 . S
H158 C157 0.959 . S
H159 C157 0.960 . S
H160 C157 0.961 . S
O161 Co136 1.967 . S
O161 C169 1.258 . S
O162 Co137 1.941 . S
O162 C169 1.266 . S
H163 C165 0.959 . S
H164 C165 0.961 . S
C165 C155 1.510 . S
C165 H163 0.959 . S
C165 H164 0.961 . S
C165 H166 0.960 . S
H166 C165 0.960 . S
H167 N147 0.862 . S
O168 Co136 1.920 . S
O168 C141 1.289 . S
C169 O161 1.258 . S
C169 O162 1.266 . S
Co170 O173 1.970 . S
Co170 N187 1.989 . S
Co170 O195 1.967 . S
Co170 O202 1.920 . S
Co171 O174 1.966 . S
Co171 N180 2.022 . S
Co171 N188 1.993 . S
Co171 O196 1.941 . S
C172 O173 1.258 . S
C172 O174 1.263 . S
O173 Co170 1.970 . S
O173 C172 1.258 . S
O174 Co171 1.966 . S
O174 C172 1.263 . S
C175 O176 1.235 . S
C175 O202 1.289 . S
O176 C175 1.235 . S
C177 C179 1.400 . S
C177 N180 1.351 . S
C177 C182 1.501 . S
C178 C179 1.387 . S
C178 N181 1.341 . S
C179 C177 1.400 . S
C179 C178 1.387 . S
N180 Co171 2.022 . S
N180 C177 1.351 . S
N180 N181 1.365 . S
N181 C178 1.341 . S
N181 N180 1.365 . S
N181 H201 0.862 . S
C182 C177 1.501 . S
C182 H183 0.961 . S
C182 H184 0.961 . S
C182 H185 0.960 . S
H183 C182 0.961 . S
H184 C182 0.961 . S
H185 C182 0.960 . S
C186 N187 1.342 . S
C186 C190 1.401 . S
C186 C191 1.499 . S
N187 Co170 1.989 . S
N187 C186 1.342 . S
N187 N188 1.388 . S
N188 Co171 1.993 . S
N188 N187 1.388 . S
N188 C189 1.346 . S
C189 N188 1.346 . S
C189 C190 1.396 . S
C189 C199 1.510 . S
C190 C186 1.401 . S
C190 C189 1.396 . S
C191 C186 1.499 . S
C191 H192 0.959 . S
C191 H193 0.960 . S
C191 H194 0.961 . S
H192 C191 0.959 . S
H193 C191 0.960 . S
H194 C191 0.961 . S
O195 Co170 1.967 . S
O195 C203 1.258 . S
O196 Co171 1.941 . S
O196 C203 1.266 . S
H197 C199 0.959 . S
H198 C199 0.961 . S
C199 C189 1.510 . S
C199 H197 0.959 . S
C199 H198 0.961 . S
C199 H200 0.960 . S
H200 C199 0.960 . S
H201 N181 0.862 . S
O202 Co170 1.920 . S
O202 C175 1.289 . S
C203 O195 1.258 . S
C203 O196 1.266 . S
Co204 O207 1.970 . S
Co204 N221 1.989 . S
Co204 O229 1.967 . S
Co204 O236 1.920 . S
Co205 O208 1.966 . S
Co205 N214 2.022 . S
Co205 N222 1.993 . S
Co205 O230 1.941 . S
C206 O207 1.258 . S
C206 O208 1.263 . S
O207 Co204 1.970 . S
O207 C206 1.258 . S
O208 Co205 1.966 . S
O208 C206 1.263 . S
C209 O210 1.235 . S
C209 O236 1.289 . S
O210 C209 1.235 . S
C211 C213 1.400 . S
C211 N214 1.351 . S
C211 C216 1.501 . S
C212 C213 1.387 . S
C212 N215 1.341 . S
C213 C211 1.400 . S
C213 C212 1.387 . S
N214 Co205 2.022 . S
N214 C211 1.351 . S
N214 N215 1.365 . S
N215 C212 1.341 . S
N215 N214 1.365 . S
N215 H235 0.862 . S
C216 C211 1.501 . S
C216 H217 0.961 . S
C216 H218 0.961 . S
C216 H219 0.960 . S
H217 C216 0.961 . S
H218 C216 0.961 . S
H219 C216 0.960 . S
C220 N221 1.342 . S
C220 C224 1.401 . S
C220 C225 1.499 . S
N221 Co204 1.989 . S
N221 C220 1.342 . S
N221 N222 1.388 . S
N222 Co205 1.993 . S
N222 N221 1.388 . S
N222 C223 1.346 . S
C223 N222 1.346 . S
C223 C224 1.396 . S
C223 C233 1.510 . S
C224 C220 1.401 . S
C224 C223 1.396 . S
C225 C220 1.499 . S
C225 H226 0.959 . S
C225 H227 0.960 . S
C225 H228 0.961 . S
H226 C225 0.959 . S
H227 C225 0.960 . S
H228 C225 0.961 . S
O229 Co204 1.967 . S
O229 C237 1.258 . S
O230 Co205 1.941 . S
O230 C237 1.266 . S
H231 C233 0.959 . S
H232 C233 0.961 . S
C233 C223 1.510 . S
C233 H231 0.959 . S
C233 H232 0.961 . S
C233 H234 0.960 . S
H234 C233 0.960 . S
H235 N215 0.862 . S
O236 Co204 1.920 . S
O236 C209 1.289 . S
C237 O229 1.258 . S
C237 O230 1.266 . S
Co238 O241 1.970 . S
Co238 N255 1.989 . S
Co238 O263 1.967 . S
Co238 O270 1.920 . S
Co239 O242 1.966 . S
Co239 N248 2.022 . S
Co239 N256 1.993 . S
Co239 O264 1.941 . S
C240 O241 1.258 . S
C240 O242 1.263 . S
O241 Co238 1.970 . S
O241 C240 1.258 . S
O242 Co239 1.966 . S
O242 C240 1.263 . S
C243 O244 1.235 . S
C243 O270 1.289 . S
O244 C243 1.235 . S
C245 C247 1.400 . S
C245 N248 1.351 . S
C245 C250 1.501 . S
C246 C247 1.387 . S
C246 N249 1.341 . S
C247 C245 1.400 . S
C247 C246 1.387 . S
N248 Co239 2.022 . S
N248 C245 1.351 . S
N248 N249 1.365 . S
N249 C246 1.341 . S
N249 N248 1.365 . S
N249 H269 0.862 . S
C250 C245 1.501 . S
C250 H251 0.961 . S
C250 H252 0.961 . S
C250 H253 0.960 . S
H251 C250 0.961 . S
H252 C250 0.961 . S
H253 C250 0.960 . S
C254 N255 1.342 . S
C254 C258 1.401 . S
C254 C259 1.499 . S
N255 Co238 1.989 . S
N255 C254 1.342 . S
N255 N256 1.388 . S
N256 Co239 1.993 . S
N256 N255 1.388 . S
N256 C257 1.346 . S
C257 N256 1.346 . S
C257 C258 1.396 . S
C257 C267 1.510 . S
C258 C254 1.401 . S
C258 C257 1.396 . S
C259 C254 1.499 . S
C259 H260 0.959 . S
C259 H261 0.960 . S
C259 H262 0.961 . S
H260 C259 0.959 . S
H261 C259 0.960 . S
H262 C259 0.961 . S
O263 Co238 1.967 . S
O263 C271 1.258 . S
O264 Co239 1.941 . S
O264 C271 1.266 . S
H265 C267 0.959 . S
H266 C267 0.961 . S
C267 C257 1.510 . S
C267 H265 0.959 . S
C267 H266 0.961 . S
C267 H268 0.960 . S
H268 C267 0.960 . S
H269 N249 0.862 . S
O270 Co238 1.920 . S
O270 C243 1.289 . S
C271 O263 1.258 . S
C271 O264 1.266 . S
Co272 O275 1.970 . S
Co272 N289 1.989 1_545 S
Co272 O297 1.967 . S
Co272 O304 1.920 . S
Co273 O276 1.966 . S
Co273 N282 2.022 . S
Co273 N290 1.993 1_545 S
Co273 O298 1.941 . S
C274 O275 1.258 . S
C274 O276 1.263 . S
O275 Co272 1.970 . S
O275 C274 1.258 . S
O276 Co273 1.966 . S
O276 C274 1.263 . S
C277 O278 1.235 . S
C277 O304 1.289 . S
O278 C277 1.235 . S
C279 C281 1.400 . S
C279 N282 1.351 . S
C279 C284 1.501 . S
C280 C281 1.387 1_565 S
C280 N283 1.341 . S
C281 C279 1.400 . S
C281 C280 1.387 1_545 S
N282 Co273 2.022 . S
N282 C279 1.351 . S
N282 N283 1.365 1_545 S
N283 C280 1.341 . S
N283 N282 1.365 1_565 S
N283 H303 0.862 . S
C284 C279 1.501 . S
C284 H285 0.961 . S
C284 H286 0.961 . S
C284 H287 0.960 . S
H285 C284 0.961 . S
H286 C284 0.961 . S
H287 C284 0.960 . S
C288 N289 1.342 . S
C288 C292 1.401 . S
C288 C293 1.499 . S
N289 Co272 1.989 1_565 S
N289 C288 1.342 . S
N289 N290 1.388 . S
N290 Co273 1.993 1_565 S
N290 N289 1.388 . S
N290 C291 1.346 . S
C291 N290 1.346 . S
C291 C292 1.396 . S
C291 C301 1.510 . S
C292 C288 1.401 . S
C292 C291 1.396 . S
C293 C288 1.499 . S
C293 H294 0.959 . S
C293 H295 0.960 . S
C293 H296 0.961 . S
H294 C293 0.959 . S
H295 C293 0.960 . S
H296 C293 0.961 . S
O297 Co272 1.967 . S
O297 C305 1.258 . S
O298 Co273 1.941 . S
O298 C305 1.266 . S
H299 C301 0.959 . S
H300 C301 0.961 . S
C301 C291 1.510 . S
C301 H299 0.959 . S
C301 H300 0.961 . S
C301 H302 0.960 . S
H302 C301 0.960 . S
H303 N283 0.862 . S
O304 Co272 1.920 . S
O304 C277 1.289 . S
C305 O297 1.258 . S
C305 O298 1.266 . S
Co306 O309 1.970 . S
Co306 N323 1.989 1_565 S
Co306 O331 1.967 . S
Co306 O338 1.920 1_565 S
Co307 O310 1.966 . S
Co307 N316 2.022 1_565 S
Co307 N324 1.993 1_565 S
Co307 O332 1.941 . S
C308 O309 1.258 . S
C308 O310 1.263 . S
O309 Co306 1.970 . S
O309 C308 1.258 . S
O310 Co307 1.966 . S
O310 C308 1.263 . S
C311 O312 1.237 . S
C311 O338 1.288 1_565 S
O312 C311 1.237 . S
C313 C315 1.400 1_565 S
C313 N316 1.351 1_565 S
C313 C318 1.501 . S
C314 C315 1.387 . S
C314 N317 1.341 . S
C315 C313 1.400 1_545 S
C315 C314 1.387 . S
N316 Co307 2.022 1_545 S
N316 C313 1.351 1_545 S
N316 N317 1.365 . S
N317 C314 1.341 . S
N317 N316 1.365 . S
N317 H337 0.862 . S
C318 C313 1.501 . S
C318 H319 0.961 . S
C318 H320 0.961 . S
C318 H321 0.960 . S
H319 C318 0.961 . S
H320 C318 0.961 . S
H321 C318 0.960 . S
C322 N323 1.342 . S
C322 C326 1.401 . S
C322 C327 1.499 . S
N323 Co306 1.989 1_545 S
N323 C322 1.342 . S
N323 N324 1.388 . S
N324 Co307 1.993 1_545 S
N324 N323 1.388 . S
N324 C325 1.346 . S
C325 N324 1.346 . S
C325 C326 1.396 . S
C325 C335 1.510 . S
C326 C322 1.401 . S
C326 C325 1.396 . S
C327 C322 1.499 . S
C327 H328 0.959 . S
C327 H329 0.960 . S
C327 H330 0.961 . S
H328 C327 0.959 . S
H329 C327 0.960 . S
H330 C327 0.961 . S
O331 Co306 1.967 . S
O331 C339 1.258 . S
O332 Co307 1.941 . S
O332 C339 1.266 . S
H333 C335 0.959 . S
H334 C335 0.961 . S
C335 C325 1.510 . S
C335 H333 0.959 . S
C335 H334 0.961 . S
C335 H336 0.960 . S
H336 C335 0.960 . S
H337 N317 0.862 . S
O338 Co306 1.920 1_545 S
O338 C311 1.288 1_545 S
C339 O331 1.258 . S
C339 O332 1.266 . S
Co340 O343 1.970 . S
Co340 N357 1.989 1_565 S
Co340 O365 1.967 . S
Co340 O372 1.920 1_565 S
Co341 O344 1.966 . S
Co341 N350 2.022 1_565 S
Co341 N358 1.993 1_565 S
Co341 O366 1.941 . S
C342 O343 1.258 . S
C342 O344 1.263 . S
O343 Co340 1.970 . S
O343 C342 1.258 . S
O344 Co341 1.966 . S
O344 C342 1.263 . S
C345 O346 1.237 . S
C345 O372 1.288 1_565 S
O346 C345 1.237 . S
C347 C349 1.400 1_565 S
C347 N350 1.351 1_565 S
C347 C352 1.501 . S
C348 C349 1.387 . S
C348 N351 1.341 . S
C349 C347 1.400 1_545 S
C349 C348 1.387 . S
N350 Co341 2.022 1_545 S
N350 C347 1.351 1_545 S
N350 N351 1.365 . S
N351 C348 1.341 . S
N351 N350 1.365 . S
N351 H371 0.862 . S
C352 C347 1.501 . S
C352 H353 0.961 . S
C352 H354 0.961 . S
C352 H355 0.960 . S
H353 C352 0.961 . S
H354 C352 0.961 . S
H355 C352 0.960 . S
C356 N357 1.342 . S
C356 C360 1.401 . S
C356 C361 1.499 . S
N357 Co340 1.989 1_545 S
N357 C356 1.342 . S
N357 N358 1.388 . S
N358 Co341 1.993 1_545 S
N358 N357 1.388 . S
N358 C359 1.346 . S
C359 N358 1.346 . S
C359 C360 1.396 . S
C359 C369 1.510 . S
C360 C356 1.401 . S
C360 C359 1.396 . S
C361 C356 1.499 . S
C361 H362 0.959 . S
C361 H363 0.960 . S
C361 H364 0.961 . S
H362 C361 0.959 . S
H363 C361 0.960 . S
H364 C361 0.961 . S
O365 Co340 1.967 . S
O365 C373 1.258 . S
O366 Co341 1.941 . S
O366 C373 1.266 . S
H367 C369 0.959 . S
H368 C369 0.961 . S
C369 C359 1.510 . S
C369 H367 0.959 . S
C369 H368 0.961 . S
C369 H370 0.960 . S
H370 C369 0.960 . S
H371 N351 0.862 . S
O372 Co340 1.920 1_545 S
O372 C345 1.288 1_545 S
C373 O365 1.258 . S
C373 O366 1.266 . S
Co374 O377 1.970 . S
Co374 N391 1.989 1_545 S
Co374 O399 1.967 . S
Co374 O406 1.920 . S
Co375 O378 1.966 . S
Co375 N384 2.022 . S
Co375 N392 1.993 1_545 S
Co375 O400 1.941 . S
C376 O377 1.258 . S
C376 O378 1.263 . S
O377 Co374 1.970 . S
O377 C376 1.258 . S
O378 Co375 1.966 . S
O378 C376 1.263 . S
C379 O380 1.235 . S
C379 O406 1.289 . S
O380 C379 1.235 . S
C381 C383 1.400 . S
C381 N384 1.351 . S
C381 C386 1.501 . S
C382 C383 1.387 1_565 S
C382 N385 1.341 . S
C383 C381 1.400 . S
C383 C382 1.387 1_545 S
N384 Co375 2.022 . S
N384 C381 1.351 . S
N384 N385 1.365 1_545 S
N385 C382 1.341 . S
N385 N384 1.365 1_565 S
N385 H405 0.862 . S
C386 C381 1.501 . S
C386 H387 0.961 . S
C386 H388 0.961 . S
C386 H389 0.960 . S
H387 C386 0.961 . S
H388 C386 0.961 . S
H389 C386 0.960 . S
C390 N391 1.342 . S
C390 C394 1.401 . S
C390 C395 1.499 . S
N391 Co374 1.989 1_565 S
N391 C390 1.342 . S
N391 N392 1.388 . S
N392 Co375 1.993 1_565 S
N392 N391 1.388 . S
N392 C393 1.346 . S
C393 N392 1.346 . S
C393 C394 1.396 . S
C393 C403 1.510 . S
C394 C390 1.401 . S
C394 C393 1.396 . S
C395 C390 1.499 . S
C395 H396 0.959 . S
C395 H397 0.960 . S
C395 H398 0.961 . S
H396 C395 0.959 . S
H397 C395 0.960 . S
H398 C395 0.961 . S
O399 Co374 1.967 . S
O399 C407 1.258 . S
O400 Co375 1.941 . S
O400 C407 1.266 . S
H401 C403 0.959 . S
H402 C403 0.961 . S
C403 C393 1.510 . S
C403 H401 0.959 . S
C403 H402 0.961 . S
C403 H404 0.960 . S
H404 C403 0.960 . S
H405 N385 0.862 . S
O406 Co374 1.920 . S
O406 C379 1.289 . S
C407 O399 1.258 . S
C407 O400 1.266 . S
Co408 O411 1.970 . S
Co408 N425 1.989 . S
Co408 O433 1.967 . S
Co408 O440 1.920 . S
Co409 O412 1.966 . S
Co409 N418 2.022 . S
Co409 N426 1.993 . S
Co409 O434 1.941 . S
C410 O411 1.258 . S
C410 O412 1.263 . S
O411 Co408 1.970 . S
O411 C410 1.258 . S
O412 Co409 1.966 . S
O412 C410 1.263 . S
C413 O414 1.235 . S
C413 O440 1.289 . S
O414 C413 1.235 . S
C415 C417 1.400 . S
C415 N418 1.351 . S
C415 C420 1.501 . S
C416 C417 1.387 . S
C416 N419 1.341 . S
C417 C415 1.400 . S
C417 C416 1.387 . S
N418 Co409 2.022 . S
N418 C415 1.351 . S
N418 N419 1.365 . S
N419 C416 1.341 . S
N419 N418 1.365 . S
N419 H439 0.862 . S
C420 C415 1.501 . S
C420 H421 0.961 . S
C420 H422 0.961 . S
C420 H423 0.960 . S
H421 C420 0.961 . S
H422 C420 0.961 . S
H423 C420 0.960 . S
C424 N425 1.342 . S
C424 C428 1.401 . S
C424 C429 1.499 . S
N425 Co408 1.989 . S
N425 C424 1.342 . S
N425 N426 1.388 . S
N426 Co409 1.993 . S
N426 N425 1.388 . S
N426 C427 1.346 . S
C427 N426 1.346 . S
C427 C428 1.396 . S
C427 C437 1.510 . S
C428 C424 1.401 . S
C428 C427 1.396 . S
C429 C424 1.499 . S
C429 H430 0.959 . S
C429 H431 0.960 . S
C429 H432 0.961 . S
H430 C429 0.959 . S
H431 C429 0.960 . S
H432 C429 0.961 . S
O433 Co408 1.967 . S
O433 C441 1.258 . S
O434 Co409 1.941 . S
O434 C441 1.266 . S
H435 C437 0.959 . S
H436 C437 0.961 . S
C437 C427 1.510 . S
C437 H435 0.959 . S
C437 H436 0.961 . S
C437 H438 0.960 . S
H438 C437 0.960 . S
H439 N419 0.862 . S
O440 Co408 1.920 . S
O440 C413 1.289 . S
C441 O433 1.258 . S
C441 O434 1.266 . S
Co442 O445 1.970 . S
Co442 N459 1.989 . S
Co442 O467 1.967 . S
Co442 O474 1.920 . S
Co443 O446 1.966 . S
Co443 N452 2.022 . S
Co443 N460 1.993 . S
Co443 O468 1.941 . S
C444 O445 1.258 . S
C444 O446 1.263 . S
O445 Co442 1.970 . S
O445 C444 1.258 . S
O446 Co443 1.966 . S
O446 C444 1.263 . S
C447 O448 1.235 . S
C447 O474 1.289 . S
O448 C447 1.235 . S
C449 C451 1.400 . S
C449 N452 1.351 . S
C449 C454 1.501 . S
C450 C451 1.387 . S
C450 N453 1.341 . S
C451 C449 1.400 . S
C451 C450 1.387 . S
N452 Co443 2.022 . S
N452 C449 1.351 . S
N452 N453 1.365 . S
N453 C450 1.341 . S
N453 N452 1.365 . S
N453 H473 0.862 . S
C454 C449 1.501 . S
C454 H455 0.961 . S
C454 H456 0.961 . S
C454 H457 0.960 . S
H455 C454 0.961 . S
H456 C454 0.961 . S
H457 C454 0.960 . S
C458 N459 1.342 . S
C458 C462 1.401 . S
C458 C463 1.499 . S
N459 Co442 1.989 . S
N459 C458 1.342 . S
N459 N460 1.388 . S
N460 Co443 1.993 . S
N460 N459 1.388 . S
N460 C461 1.346 . S
C461 N460 1.346 . S
C461 C462 1.396 . S
C461 C471 1.510 . S
C462 C458 1.401 . S
C462 C461 1.396 . S
C463 C458 1.499 . S
C463 H464 0.959 . S
C463 H465 0.960 . S
C463 H466 0.961 . S
H464 C463 0.959 . S
H465 C463 0.960 . S
H466 C463 0.961 . S
O467 Co442 1.967 . S
O467 C475 1.258 . S
O468 Co443 1.941 . S
O468 C475 1.266 . S
H469 C471 0.959 . S
H470 C471 0.961 . S
C471 C461 1.510 . S
C471 H469 0.959 . S
C471 H470 0.961 . S
C471 H472 0.960 . S
H472 C471 0.960 . S
H473 N453 0.862 . S
O474 Co442 1.920 . S
O474 C447 1.289 . S
C475 O467 1.258 . S
C475 O468 1.266 . S
Co476 O479 1.970 . S
Co476 N493 1.989 . S
Co476 O501 1.967 . S
Co476 O508 1.920 . S
Co477 O480 1.966 . S
Co477 N486 2.022 . S
Co477 N494 1.993 . S
Co477 O502 1.941 . S
C478 O479 1.258 . S
C478 O480 1.263 . S
O479 Co476 1.970 . S
O479 C478 1.258 . S
O480 Co477 1.966 . S
O480 C478 1.263 . S
C481 O482 1.235 . S
C481 O508 1.289 . S
O482 C481 1.235 . S
C483 C485 1.400 . S
C483 N486 1.351 . S
C483 C488 1.501 . S
C484 C485 1.387 . S
C484 N487 1.341 . S
C485 C483 1.400 . S
C485 C484 1.387 . S
N486 Co477 2.022 . S
N486 C483 1.351 . S
N486 N487 1.365 . S
N487 C484 1.341 . S
N487 N486 1.365 . S
N487 H507 0.862 . S
C488 C483 1.501 . S
C488 H489 0.961 . S
C488 H490 0.961 . S
C488 H491 0.960 . S
H489 C488 0.961 . S
H490 C488 0.961 . S
H491 C488 0.960 . S
C492 N493 1.342 . S
C492 C496 1.401 . S
C492 C497 1.499 . S
N493 Co476 1.989 . S
N493 C492 1.342 . S
N493 N494 1.388 . S
N494 Co477 1.993 . S
N494 N493 1.388 . S
N494 C495 1.346 . S
C495 N494 1.346 . S
C495 C496 1.396 . S
C495 C505 1.510 . S
C496 C492 1.401 . S
C496 C495 1.396 . S
C497 C492 1.499 . S
C497 H498 0.959 . S
C497 H499 0.960 . S
C497 H500 0.961 . S
H498 C497 0.959 . S
H499 C497 0.960 . S
H500 C497 0.961 . S
O501 Co476 1.967 . S
O501 C509 1.258 . S
O502 Co477 1.941 . S
O502 C509 1.266 . S
H503 C505 0.959 . S
H504 C505 0.961 . S
C505 C495 1.510 . S
C505 H503 0.959 . S
C505 H504 0.961 . S
C505 H506 0.960 . S
H506 C505 0.960 . S
H507 N487 0.862 . S
O508 Co476 1.920 . S
O508 C481 1.289 . S
C509 O501 1.258 . S
C509 O502 1.266 . S
Co510 O513 1.970 . S
Co510 N527 1.989 . S
Co510 O535 1.967 . S
Co510 O542 1.920 . S
Co511 O514 1.966 . S
Co511 N520 2.022 . S
Co511 N528 1.993 . S
Co511 O536 1.941 . S
C512 O513 1.258 . S
C512 O514 1.263 . S
O513 Co510 1.970 . S
O513 C512 1.258 . S
O514 Co511 1.966 . S
O514 C512 1.263 . S
C515 O516 1.235 . S
C515 O542 1.289 . S
O516 C515 1.235 . S
C517 C519 1.400 . S
C517 N520 1.351 . S
C517 C522 1.501 . S
C518 C519 1.387 . S
C518 N521 1.341 . S
C519 C517 1.400 . S
C519 C518 1.387 . S
N520 Co511 2.022 . S
N520 C517 1.351 . S
N520 N521 1.365 . S
N521 C518 1.341 . S
N521 N520 1.365 . S
N521 H541 0.862 . S
C522 C517 1.501 . S
C522 H523 0.961 . S
C522 H524 0.961 . S
C522 H525 0.960 . S
H523 C522 0.961 . S
H524 C522 0.961 . S
H525 C522 0.960 . S
C526 N527 1.342 . S
C526 C530 1.401 . S
C526 C531 1.499 . S
N527 Co510 1.989 . S
N527 C526 1.342 . S
N527 N528 1.388 . S
N528 Co511 1.993 . S
N528 N527 1.388 . S
N528 C529 1.346 . S
C529 N528 1.346 . S
C529 C530 1.396 . S
C529 C539 1.510 . S
C530 C526 1.401 . S
C530 C529 1.396 . S
C531 C526 1.499 . S
C531 H532 0.959 . S
C531 H533 0.960 . S
C531 H534 0.961 . S
H532 C531 0.959 . S
H533 C531 0.960 . S
H534 C531 0.961 . S
O535 Co510 1.967 . S
O535 C543 1.258 . S
O536 Co511 1.941 . S
O536 C543 1.266 . S
H537 C539 0.959 . S
H538 C539 0.961 . S
C539 C529 1.510 . S
C539 H537 0.959 . S
C539 H538 0.961 . S
C539 H540 0.960 . S
H540 C539 0.960 . S
H541 N521 0.862 . S
O542 Co510 1.920 . S
O542 C515 1.289 . S
C543 O535 1.258 . S
C543 O536 1.266 . S
C544 C545 1.369 . S
C544 C546 1.419 . S
C544 H548 0.930 . S
C545 C544 1.369 . S
C545 C554 1.429 1_545 S
C546 C544 1.419 . S
C546 C547 1.363 . S
C546 H549 0.929 . S
C547 C546 1.363 . S
C547 C553 1.428 1_545 S
H548 C544 0.930 . S
H549 C546 0.929 . S
S550 N551 1.613 . S
S550 N552 1.610 . S
N551 S550 1.613 . S
N551 C554 1.350 . S
N552 S550 1.610 . S
N552 C553 1.351 . S
C553 C547 1.428 1_565 S
C553 N552 1.351 . S
C553 C554 1.434 . S
C554 C545 1.429 1_565 S
C554 N551 1.350 . S
C554 C553 1.434 . S
C555 C556 1.369 . S
C555 C557 1.419 . S
C555 H559 0.930 . S
C556 C555 1.369 . S
C556 C565 1.429 1_545 S
C557 C555 1.419 . S
C557 C558 1.363 . S
C557 H560 0.929 . S
C558 C557 1.363 . S
C558 C564 1.428 1_545 S
H559 C555 0.930 . S
H560 C557 0.929 . S
S561 N562 1.613 . S
S561 N563 1.610 . S
N562 S561 1.613 . S
N562 C565 1.350 . S
N563 S561 1.610 . S
N563 C564 1.351 . S
C564 C558 1.428 1_565 S
C564 N563 1.351 . S
C564 C565 1.434 . S
C565 C556 1.429 1_565 S
C565 N562 1.350 . S
C565 C564 1.434 . S
C566 C567 1.369 1_565 S
C566 C568 1.419 . S
C566 H570 0.930 . S
C567 C566 1.369 1_545 S
C567 C576 1.429 . S
C568 C566 1.419 . S
C568 C569 1.363 1_565 S
C568 H571 0.929 . S
C569 C568 1.363 1_545 S
C569 C575 1.428 . S
H570 C566 0.930 . S
H571 C568 0.929 . S
S572 N573 1.613 . S
S572 N574 1.610 . S
N573 S572 1.613 . S
N573 C576 1.350 . S
N574 S572 1.610 . S
N574 C575 1.351 . S
C575 C569 1.428 . S
C575 N574 1.351 . S
C575 C576 1.434 . S
C576 C567 1.429 . S
C576 N573 1.350 . S
C576 C575 1.434 . S
C577 C578 1.369 . S
C577 C579 1.419 . S
C577 H581 0.930 . S
C578 C577 1.369 . S
C578 C587 1.429 1_545 S
C579 C577 1.419 . S
C579 C580 1.363 . S
C579 H582 0.929 . S
C580 C579 1.363 . S
C580 C586 1.428 1_545 S
H581 C577 0.930 . S
H582 C579 0.929 . S
S583 N584 1.613 . S
S583 N585 1.610 . S
N584 S583 1.613 . S
N584 C587 1.350 . S
N585 S583 1.610 . S
N585 C586 1.351 . S
C586 C580 1.428 1_565 S
C586 N585 1.351 . S
C586 C587 1.434 . S
C587 C578 1.429 1_565 S
C587 N584 1.350 . S
C587 C586 1.434 . S
C588 C589 1.369 . S
C588 C590 1.419 . S
C588 H592 0.930 . S
C589 C588 1.369 . S
C589 C598 1.429 . S
C590 C588 1.419 . S
C590 C591 1.363 . S
C590 H593 0.929 . S
C591 C590 1.363 . S
C591 C597 1.428 . S
H592 C588 0.930 . S
H593 C590 0.929 . S
S594 N595 1.613 . S
S594 N596 1.610 . S
N595 S594 1.613 . S
N595 C598 1.350 . S
N596 S594 1.610 . S
N596 C597 1.351 . S
C597 C591 1.428 . S
C597 N596 1.351 . S
C597 C598 1.434 . S
C598 C589 1.429 . S
C598 N595 1.350 . S
C598 C597 1.434 . S
C599 C600 1.369 . S
C599 C601 1.419 . S
C599 H603 0.930 . S
C600 C599 1.369 . S
C600 C609 1.429 . S
C601 C599 1.419 . S
C601 C602 1.363 . S
C601 H604 0.929 . S
C602 C601 1.363 . S
C602 C608 1.428 . S
H603 C599 0.930 . S
H604 C601 0.929 . S
S605 N606 1.613 . S
S605 N607 1.610 . S
N606 S605 1.613 . S
N606 C609 1.350 . S
N607 S605 1.610 . S
N607 C608 1.351 . S
C608 C602 1.428 . S
C608 N607 1.351 . S
C608 C609 1.434 . S
C609 C600 1.429 . S
C609 N606 1.350 . S
C609 C608 1.434 . S
C610 C611 1.369 . S
C610 C612 1.419 . S
C610 H614 0.930 . S
C611 C610 1.369 . S
C611 C620 1.429 . S
C612 C610 1.419 . S
C612 C613 1.363 . S
C612 H615 0.929 . S
C613 C612 1.363 . S
C613 C619 1.428 . S
H614 C610 0.930 . S
H615 C612 0.929 . S
S616 N617 1.613 . S
S616 N618 1.610 . S
N617 S616 1.613 . S
N617 C620 1.350 . S
N618 S616 1.610 . S
N618 C619 1.351 . S
C619 C613 1.428 . S
C619 N618 1.351 . S
C619 C620 1.434 . S
C620 C611 1.429 . S
C620 N617 1.350 . S
C620 C619 1.434 . S
C621 C622 1.369 . S
C621 C623 1.419 . S
C621 H625 0.930 . S
C622 C621 1.369 . S
C622 C631 1.429 . S
C623 C621 1.419 . S
C623 C624 1.363 . S
C623 H626 0.929 . S
C624 C623 1.363 . S
C624 C630 1.428 . S
H625 C621 0.930 . S
H626 C623 0.929 . S
S627 N628 1.613 . S
S627 N629 1.610 . S
N628 S627 1.613 . S
N628 C631 1.350 . S
N629 S627 1.610 . S
N629 C630 1.351 . S
C630 C624 1.428 . S
C630 N629 1.351 . S
C630 C631 1.434 . S
C631 C622 1.429 . S
C631 N628 1.350 . S
C631 C630 1.434 . S
C632 C633 1.369 . S
C632 C634 1.419 . S
C632 H636 0.930 . S
C633 C632 1.369 . S
C633 C642 1.429 . S
C634 C632 1.419 . S
C634 C635 1.363 . S
C634 H637 0.929 . S
C635 C634 1.363 . S
C635 C641 1.428 . S
H636 C632 0.930 . S
H637 C634 0.929 . S
S638 N639 1.613 . S
S638 N640 1.610 . S
N639 S638 1.613 . S
N639 C642 1.350 . S
N640 S638 1.610 . S
N640 C641 1.351 . S
C641 C635 1.428 . S
C641 N640 1.351 . S
C641 C642 1.434 . S
C642 C633 1.429 . S
C642 N639 1.350 . S
C642 C641 1.434 . S
C643 C644 1.369 . S
C643 C645 1.419 . S
C643 H647 0.930 . S
C644 C643 1.369 . S
C644 C653 1.429 . S
C645 C643 1.419 . S
C645 C646 1.363 . S
C645 H648 0.929 . S
C646 C645 1.363 . S
C646 C652 1.428 . S
H647 C643 0.930 . S
H648 C645 0.929 . S
S649 N650 1.613 . S
S649 N651 1.610 . S
N650 S649 1.613 . S
N650 C653 1.350 . S
N651 S649 1.610 . S
N651 C652 1.351 . S
C652 C646 1.428 . S
C652 N651 1.351 . S
C652 C653 1.434 . S
C653 C644 1.429 . S
C653 N650 1.350 . S
C653 C652 1.434 . S
C654 C655 1.369 . S
C654 C656 1.419 . S
C654 H658 0.930 . S
C655 C654 1.369 . S
C655 C664 1.429 . S
C656 C654 1.419 . S
C656 C657 1.363 . S
C656 H659 0.929 . S
C657 C656 1.363 . S
C657 C663 1.428 . S
H658 C654 0.930 . S
H659 C656 0.929 . S
S660 N661 1.613 . S
S660 N662 1.610 . S
N661 S660 1.613 . S
N661 C664 1.350 . S
N662 S660 1.610 . S
N662 C663 1.351 . S
C663 C657 1.428 . S
C663 N662 1.351 . S
C663 C664 1.434 . S
C664 C655 1.429 . S
C664 N661 1.350 . S
C664 C663 1.434 . S
C665 C666 1.369 . S
C665 C667 1.419 . S
C665 H669 0.930 . S
C666 C665 1.369 . S
C666 C675 1.429 . S
C667 C665 1.419 . S
C667 C668 1.363 . S
C667 H670 0.929 . S
C668 C667 1.363 . S
C668 C674 1.428 . S
H669 C665 0.930 . S
H670 C667 0.929 . S
S671 N672 1.613 . S
S671 N673 1.610 . S
N672 S671 1.613 . S
N672 C675 1.350 . S
N673 S671 1.610 . S
N673 C674 1.351 . S
C674 C668 1.428 . S
C674 N673 1.351 . S
C674 C675 1.434 . S
C675 C666 1.429 . S
C675 N672 1.350 . S
C675 C674 1.434 . S
C676 C677 1.369 . S
C676 C678 1.419 . S
C676 H680 0.930 . S
C677 C676 1.369 . S
C677 C686 1.429 . S
C678 C676 1.419 . S
C678 C679 1.363 . S
C678 H681 0.929 . S
C679 C678 1.363 . S
C679 C685 1.428 . S
H680 C676 0.930 . S
H681 C678 0.929 . S
S682 N683 1.613 . S
S682 N684 1.610 . S
N683 S682 1.613 . S
N683 C686 1.350 . S
N684 S682 1.610 . S
N684 C685 1.351 . S
C685 C679 1.428 . S
C685 N684 1.351 . S
C685 C686 1.434 . S
C686 C677 1.429 . S
C686 N683 1.350 . S
C686 C685 1.434 . S
C687 C688 1.369 . S
C687 C689 1.419 . S
C687 H691 0.930 . S
C688 C687 1.369 . S
C688 C697 1.429 . S
C689 C687 1.419 . S
C689 C690 1.363 . S
C689 H692 0.929 . S
C690 C689 1.363 . S
C690 C696 1.428 . S
H691 C687 0.930 . S
H692 C689 0.929 . S
S693 N694 1.613 . S
S693 N695 1.610 . S
N694 S693 1.613 . S
N694 C697 1.350 . S
N695 S693 1.610 . S
N695 C696 1.351 . S
C696 C690 1.428 . S
C696 N695 1.351 . S
C696 C697 1.434 . S
C697 C688 1.429 . S
C697 N694 1.350 . S
C697 C696 1.434 . S
C698 C699 1.369 . S
C698 C700 1.419 . S
C698 H702 0.930 . S
C699 C698 1.369 . S
C699 C708 1.429 . S
C700 C698 1.419 . S
C700 C701 1.363 . S
C700 H703 0.929 . S
C701 C700 1.363 . S
C701 C707 1.428 . S
H702 C698 0.930 . S
H703 C700 0.929 . S
S704 N705 1.613 . S
S704 N706 1.610 . S
N705 S704 1.613 . S
N705 C708 1.350 . S
N706 S704 1.610 . S
N706 C707 1.351 . S
C707 C701 1.428 . S
C707 N706 1.351 . S
C707 C708 1.434 . S
C708 C699 1.429 . S
C708 N705 1.350 . S
C708 C707 1.434 . S
C709 C710 1.369 . S
C709 C711 1.419 . S
C709 H713 0.930 . S
C710 C709 1.369 . S
C710 C719 1.429 . S
C711 C709 1.419 . S
C711 C712 1.363 . S
C711 H714 0.929 . S
C712 C711 1.363 . S
C712 C718 1.428 . S
H713 C709 0.930 . S
H714 C711 0.929 . S
S715 N716 1.613 . S
S715 N717 1.610 . S
N716 S715 1.613 . S
N716 C719 1.350 . S
N717 S715 1.610 . S
N717 C718 1.351 . S
C718 C712 1.428 . S
C718 N717 1.351 . S
C718 C719 1.434 . S
C719 C710 1.429 . S
C719 N716 1.350 . S
C719 C718 1.434 . S
C720 C721 1.369 . S
C720 C722 1.419 . S
C720 H724 0.930 . S
C721 C720 1.369 . S
C721 C730 1.429 . S
C722 C720 1.419 . S
C722 C723 1.363 . S
C722 H725 0.929 . S
C723 C722 1.363 . S
C723 C729 1.428 . S
H724 C720 0.930 . S
H725 C722 0.929 . S
S726 N727 1.613 . S
S726 N728 1.610 . S
N727 S726 1.613 . S
N727 C730 1.350 . S
N728 S726 1.610 . S
N728 C729 1.351 . S
C729 C723 1.428 . S
C729 N728 1.351 . S
C729 C730 1.434 . S
C730 C721 1.429 . S
C730 N727 1.350 . S
C730 C729 1.434 . S
C731 C732 1.369 . S
C731 C733 1.419 . S
C731 H735 0.930 . S
C732 C731 1.369 . S
C732 C741 1.429 . S
C733 C731 1.419 . S
C733 C734 1.363 . S
C733 H736 0.929 . S
C734 C733 1.363 . S
C734 C740 1.428 . S
H735 C731 0.930 . S
H736 C733 0.929 . S
S737 N738 1.613 . S
S737 N739 1.610 . S
N738 S737 1.613 . S
N738 C741 1.350 . S
N739 S737 1.610 . S
N739 C740 1.351 . S
C740 C734 1.428 . S
C740 N739 1.351 . S
C740 C741 1.434 . S
C741 C732 1.429 . S
C741 N738 1.350 . S
C741 C740 1.434 . S
C742 C743 1.369 . S
C742 C744 1.419 . S
C742 H746 0.930 . S
C743 C742 1.369 . S
C743 C752 1.429 . S
C744 C742 1.419 . S
C744 C745 1.363 . S
C744 H747 0.929 . S
C745 C744 1.363 . S
C745 C751 1.428 . S
H746 C742 0.930 . S
H747 C744 0.929 . S
S748 N749 1.613 . S
S748 N750 1.610 . S
N749 S748 1.613 . S
N749 C752 1.350 . S
N750 S748 1.610 . S
N750 C751 1.351 . S
C751 C745 1.428 . S
C751 N750 1.351 . S
C751 C752 1.434 . S
C752 C743 1.429 . S
C752 N749 1.350 . S
C752 C751 1.434 . S
C753 C754 1.369 . S
C753 C755 1.419 . S
C753 H757 0.930 . S
C754 C753 1.369 . S
C754 C763 1.429 . S
C755 C753 1.419 . S
C755 C756 1.363 . S
C755 H758 0.929 . S
C756 C755 1.363 . S
C756 C762 1.428 . S
H757 C753 0.930 . S
H758 C755 0.929 . S
S759 N760 1.613 . S
S759 N761 1.610 . S
N760 S759 1.613 . S
N760 C763 1.350 . S
N761 S759 1.610 . S
N761 C762 1.351 . S
C762 C756 1.428 . S
C762 N761 1.351 . S
C762 C763 1.434 . S
C763 C754 1.429 . S
C763 N760 1.350 . S
C763 C762 1.434 . S
C764 C765 1.369 . S
C764 C766 1.419 . S
C764 H768 0.930 . S
C765 C764 1.369 . S
C765 C774 1.429 . S
C766 C764 1.419 . S
C766 C767 1.363 . S
C766 H769 0.929 . S
C767 C766 1.363 . S
C767 C773 1.428 . S
H768 C764 0.930 . S
H769 C766 0.929 . S
S770 N771 1.613 . S
S770 N772 1.610 . S
N771 S770 1.613 . S
N771 C774 1.350 . S
N772 S770 1.610 . S
N772 C773 1.351 . S
C773 C767 1.428 . S
C773 N772 1.351 . S
C773 C774 1.434 . S
C774 C765 1.429 . S
C774 N771 1.350 . S
C774 C773 1.434 . S
C775 C776 1.369 . S
C775 C777 1.419 . S
C775 H779 0.930 . S
C776 C775 1.369 . S
C776 C785 1.429 . S
C777 C775 1.419 . S
C777 C778 1.363 . S
C777 H780 0.929 . S
C778 C777 1.363 . S
C778 C784 1.428 . S
H779 C775 0.930 . S
H780 C777 0.929 . S
S781 N782 1.613 . S
S781 N783 1.610 . S
N782 S781 1.613 . S
N782 C785 1.350 . S
N783 S781 1.610 . S
N783 C784 1.351 . S
C784 C778 1.428 . S
C784 N783 1.351 . S
C784 C785 1.434 . S
C785 C776 1.429 . S
C785 N782 1.350 . S
C785 C784 1.434 . S
C786 C787 1.369 . S
C786 C788 1.419 . S
C786 H790 0.930 . S
C787 C786 1.369 . S
C787 C796 1.429 . S
C788 C786 1.419 . S
C788 C789 1.363 . S
C788 H791 0.929 . S
C789 C788 1.363 . S
C789 C795 1.428 . S
H790 C786 0.930 . S
H791 C788 0.929 . S
S792 N793 1.613 . S
S792 N794 1.610 . S
N793 S792 1.613 . S
N793 C796 1.350 . S
N794 S792 1.610 . S
N794 C795 1.351 . S
C795 C789 1.428 . S
C795 N794 1.351 . S
C795 C796 1.434 . S
C796 C787 1.429 . S
C796 N793 1.350 . S
C796 C795 1.434 . S
C797 C798 1.369 . S
C797 C799 1.419 . S
C797 H801 0.930 . S
C798 C797 1.369 . S
C798 C807 1.429 . S
C799 C797 1.419 . S
C799 C800 1.363 . S
C799 H802 0.929 . S
C800 C799 1.363 . S
C800 C806 1.428 . S
H801 C797 0.930 . S
H802 C799 0.929 . S
S803 N804 1.613 . S
S803 N805 1.610 . S
N804 S803 1.613 . S
N804 C807 1.350 . S
N805 S803 1.610 . S
N805 C806 1.351 . S
C806 C800 1.428 . S
C806 N805 1.351 . S
C806 C807 1.434 . S
C807 C798 1.429 . S
C807 N804 1.350 . S
C807 C806 1.434 . S
C808 C809 1.369 1_545 S
C808 C810 1.419 1_655 S
C808 H812 0.930 . S
C809 C808 1.369 1_565 S
C809 C818 1.429 . S
C810 C808 1.419 1_455 S
C810 C811 1.363 . S
C810 H813 0.929 . S
C811 C810 1.363 . S
C811 C817 1.428 1_545 S
H812 C808 0.930 . S
H813 C810 0.929 . S
S814 N815 1.613 1_455 S
S814 N816 1.610 . S
N815 S814 1.613 1_655 S
N815 C818 1.350 . S
N816 S814 1.610 . S
N816 C817 1.351 . S
C817 C811 1.428 1_565 S
C817 N816 1.351 . S
C817 C818 1.434 1_455 S
C818 C809 1.429 . S
C818 N815 1.350 . S
C818 C817 1.434 1_655 S
C819 C820 1.369 1_545 S
C819 C821 1.419 1_455 S
C819 H823 0.930 . S
C820 C819 1.369 1_565 S
C820 C829 1.429 . S
C821 C819 1.419 1_655 S
C821 C822 1.363 . S
C821 H824 0.929 . S
C822 C821 1.363 . S
C822 C828 1.428 1_545 S
H823 C819 0.930 . S
H824 C821 0.929 . S
S825 N826 1.613 1_655 S
S825 N827 1.610 . S
N826 S825 1.613 1_455 S
N826 C829 1.350 . S
N827 S825 1.610 . S
N827 C828 1.351 . S
C828 C822 1.428 1_565 S
C828 N827 1.351 . S
C828 C829 1.434 1_655 S
C829 C820 1.429 . S
C829 N826 1.350 . S
C829 C828 1.434 1_455 S
C830 C831 1.369 . S
C830 C832 1.419 1_655 S
C830 H834 0.930 . S
C831 C830 1.369 . S
C831 C840 1.429 . S
C832 C830 1.419 1_455 S
C832 C833 1.363 . S
C832 H835 0.929 . S
C833 C832 1.363 . S
C833 C839 1.428 . S
H834 C830 0.930 . S
H835 C832 0.929 . S
S836 N837 1.613 . S
S836 N838 1.610 1_655 S
N837 S836 1.613 . S
N837 C840 1.350 . S
N838 S836 1.610 1_455 S
N838 C839 1.351 . S
C839 C833 1.428 . S
C839 N838 1.351 . S
C839 C840 1.434 1_455 S
C840 C831 1.429 . S
C840 N837 1.350 . S
C840 C839 1.434 1_655 S
C841 C842 1.369 . S
C841 C843 1.419 1_655 S
C841 H845 0.930 . S
C842 C841 1.369 . S
C842 C851 1.429 . S
C843 C841 1.419 1_455 S
C843 C844 1.363 . S
C843 H846 0.929 . S
C844 C843 1.363 . S
C844 C850 1.428 . S
H845 C841 0.930 . S
H846 C843 0.929 . S
S847 N848 1.613 . S
S847 N849 1.610 1_655 S
N848 S847 1.613 . S
N848 C851 1.350 . S
N849 S847 1.610 1_455 S
N849 C850 1.351 . S
C850 C844 1.428 . S
C850 N849 1.351 . S
C850 C851 1.434 1_455 S
C851 C842 1.429 . S
C851 N848 1.350 . S
C851 C850 1.434 1_655 S
C852 C853 1.369 1_545 S
C852 C854 1.419 . S
C852 H856 0.930 . S
C853 C852 1.369 1_565 S
C853 C862 1.429 . S
C854 C852 1.419 . S
C854 C855 1.363 . S
C854 H857 0.929 . S
C855 C854 1.363 . S
C855 C861 1.428 1_545 S
H856 C852 0.930 . S
H857 C854 0.929 . S
S858 N859 1.613 . S
S858 N860 1.610 . S
N859 S858 1.613 . S
N859 C862 1.350 . S
N860 S858 1.610 . S
N860 C861 1.351 . S
C861 C855 1.428 1_565 S
C861 N860 1.351 . S
C861 C862 1.434 . S
C862 C853 1.429 . S
C862 N859 1.350 . S
C862 C861 1.434 . S
C863 C864 1.369 1_565 S
C863 C865 1.419 . S
C863 H867 0.930 . S
C864 C863 1.369 1_545 S
C864 C873 1.429 . S
C865 C863 1.419 . S
C865 C866 1.363 . S
C865 H868 0.929 . S
C866 C865 1.363 . S
C866 C872 1.428 1_565 S
H867 C863 0.930 . S
H868 C865 0.929 . S
S869 N870 1.613 . S
S869 N871 1.610 . S
N870 S869 1.613 . S
N870 C873 1.350 . S
N871 S869 1.610 . S
N871 C872 1.351 . S
C872 C866 1.428 1_545 S
C872 N871 1.351 . S
C872 C873 1.434 . S
C873 C864 1.429 . S
C873 N870 1.350 . S
C873 C872 1.434 . S
C874 C875 1.369 . S
C874 C876 1.419 . S
C874 H878 0.930 . S
C875 C874 1.369 . S
C875 C884 1.429 . S
C876 C874 1.419 . S
C876 C877 1.363 . S
C876 H879 0.929 . S
C877 C876 1.363 . S
C877 C883 1.428 . S
H878 C874 0.930 . S
H879 C876 0.929 . S
S880 N881 1.613 . S
S880 N882 1.610 . S
N881 S880 1.613 . S
N881 C884 1.350 . S
N882 S880 1.610 . S
N882 C883 1.351 . S
C883 C877 1.428 . S
C883 N882 1.351 . S
C883 C884 1.434 . S
C884 C875 1.429 . S
C884 N881 1.350 . S
C884 C883 1.434 . S
C885 C886 1.369 . S
C885 C887 1.419 . S
C885 H889 0.930 . S
C886 C885 1.369 . S
C886 C895 1.429 . S
C887 C885 1.419 . S
C887 C888 1.363 . S
C887 H890 0.929 . S
C888 C887 1.363 . S
C888 C894 1.428 . S
H889 C885 0.930 . S
H890 C887 0.929 . S
S891 N892 1.613 . S
S891 N893 1.610 . S
N892 S891 1.613 . S
N892 C895 1.350 . S
N893 S891 1.610 . S
N893 C894 1.351 . S
C894 C888 1.428 . S
C894 N893 1.351 . S
C894 C895 1.434 . S
C895 C886 1.429 . S
C895 N892 1.350 . S
C895 C894 1.434 . S
C896 C897 1.369 1_565 S
C896 C898 1.419 1_556 S
C896 H900 0.930 . S
C897 C896 1.369 1_545 S
C897 C906 1.429 . S
C898 C896 1.419 1_554 S
C898 C899 1.363 1_565 S
C898 H901 0.929 . S
C899 C898 1.363 1_545 S
C899 C905 1.428 . S
H900 C896 0.930 . S
H901 C898 0.929 . S
S902 N903 1.613 . S
S902 N904 1.610 1_556 S
N903 S902 1.613 . S
N903 C906 1.350 . S
N904 S902 1.610 1_554 S
N904 C905 1.351 . S
C905 C899 1.428 . S
C905 N904 1.351 . S
C905 C906 1.434 1_554 S
C906 C897 1.429 . S
C906 N903 1.350 . S
C906 C905 1.434 1_556 S
C907 C908 1.369 1_565 S
C907 C909 1.419 1_556 S
C907 H911 0.930 . S
C908 C907 1.369 1_545 S
C908 C917 1.429 . S
C909 C907 1.419 1_554 S
C909 C910 1.363 1_565 S
C909 H912 0.929 . S
C910 C909 1.363 1_545 S
C910 C916 1.428 . S
H911 C907 0.930 . S
H912 C909 0.929 . S
S913 N914 1.613 1_554 S
S913 N915 1.610 . S
N914 S913 1.613 1_556 S
N914 C917 1.350 . S
N915 S913 1.610 . S
N915 C916 1.351 . S
C916 C910 1.428 . S
C916 N915 1.351 . S
C916 C917 1.434 1_554 S
C917 C908 1.429 . S
C917 N914 1.350 . S
C917 C916 1.434 1_556 S
C918 C919 1.369 . S
C918 C920 1.419 . S
C918 H922 0.930 . S
C919 C918 1.369 . S
C919 C928 1.429 . S
C920 C918 1.419 . S
C920 C921 1.363 . S
C920 H923 0.929 . S
C921 C920 1.363 . S
C921 C927 1.428 . S
H922 C918 0.930 . S
H923 C920 0.929 . S
S924 N925 1.613 . S
S924 N926 1.610 . S
N925 S924 1.613 . S
N925 C928 1.350 . S
N926 S924 1.610 . S
N926 C927 1.351 . S
C927 C921 1.428 . S
C927 N926 1.351 . S
C927 C928 1.434 . S
C928 C919 1.429 . S
C928 N925 1.350 . S
C928 C927 1.434 . S
C929 C930 1.369 . S
C929 C931 1.419 . S
C929 H933 0.930 . S
C930 C929 1.369 . S
C930 C939 1.429 . S
C931 C929 1.419 . S
C931 C932 1.363 . S
C931 H934 0.929 . S
C932 C931 1.363 . S
C932 C938 1.428 . S
H933 C929 0.930 . S
H934 C931 0.929 . S
S935 N936 1.613 . S
S935 N937 1.610 . S
N936 S935 1.613 . S
N936 C939 1.350 . S
N937 S935 1.610 . S
N937 C938 1.351 . S
C938 C932 1.428 . S
C938 N937 1.351 . S
C938 C939 1.434 . S
C939 C930 1.429 . S
C939 N936 1.350 . S
C939 C938 1.434 . S
C940 C941 1.369 . S
C940 C942 1.419 . S
C940 H944 0.930 . S
C941 C940 1.369 . S
C941 C950 1.429 1_545 S
C942 C940 1.419 . S
C942 C943 1.363 . S
C942 H945 0.929 . S
C943 C942 1.363 . S
C943 C949 1.428 1_545 S
H944 C940 0.930 . S
H945 C942 0.929 . S
S946 N947 1.613 . S
S946 N948 1.610 . S
N947 S946 1.613 . S
N947 C950 1.350 . S
N948 S946 1.610 . S
N948 C949 1.351 . S
C949 C943 1.428 1_565 S
C949 N948 1.351 . S
C949 C950 1.434 . S
C950 C941 1.429 1_565 S
C950 N947 1.350 . S
C950 C949 1.434 . S
C951 C952 1.369 . S
C951 C953 1.419 . S
C951 H955 0.930 . S
C952 C951 1.369 . S
C952 C961 1.429 . S
C953 C951 1.419 . S
C953 C954 1.363 . S
C953 H956 0.929 . S
C954 C953 1.363 . S
C954 C960 1.428 . S
H955 C951 0.930 . S
H956 C953 0.929 . S
S957 N958 1.613 . S
S957 N959 1.610 . S
N958 S957 1.613 . S
N958 C961 1.350 . S
N959 S957 1.610 . S
N959 C960 1.351 . S
C960 C954 1.428 . S
C960 N959 1.351 . S
C960 C961 1.434 . S
C961 C952 1.429 . S
C961 N958 1.350 . S
C961 C960 1.434 . S
C962 C963 1.369 . S
C962 C964 1.419 1_554 S
C962 H966 0.930 . S
C963 C962 1.369 . S
C963 C972 1.429 . S
C964 C962 1.419 1_556 S
C964 C965 1.363 . S
C964 H967 0.929 . S
C965 C964 1.363 . S
C965 C971 1.428 . S
H966 C962 0.930 . S
H967 C964 0.929 . S
S968 N969 1.613 . S
S968 N970 1.610 1_554 S
N969 S968 1.613 . S
N969 C972 1.350 . S
N970 S968 1.610 1_556 S
N970 C971 1.351 . S
C971 C965 1.428 . S
C971 N970 1.351 . S
C971 C972 1.434 1_556 S
C972 C963 1.429 . S
C972 N969 1.350 . S
C972 C971 1.434 1_554 S
C973 C974 1.369 . S
C973 C975 1.419 1_556 S
C973 H977 0.930 . S
C974 C973 1.369 . S
C974 C983 1.429 . S
C975 C973 1.419 1_554 S
C975 C976 1.363 . S
C975 H978 0.929 . S
C976 C975 1.363 . S
C976 C982 1.428 . S
H977 C973 0.930 . S
H978 C975 0.929 . S
S979 N980 1.613 . S
S979 N981 1.610 1_556 S
N980 S979 1.613 . S
N980 C983 1.350 . S
N981 S979 1.610 1_554 S
N981 C982 1.351 . S
C982 C976 1.428 . S
C982 N981 1.351 . S
C982 C983 1.434 1_554 S
C983 C974 1.429 . S
C983 N980 1.350 . S
C983 C982 1.434 1_556 S
C545 C9 1.418 . S
C547 C383 1.415 . S
C556 C43 1.424 . S
C558 C349 1.415 . S
C567 C315 1.413 . S
C569 C77 1.420 . S
C578 C281 1.418 . S
C580 C111 1.415 . S
C589 C145 1.419 . S
C591 C519 1.421 . S
C600 C179 1.415 . S
C602 C485 1.422 . S
C611 C451 1.417 . S
C613 C213 1.416 . S
C622 C417 1.420 . S
C624 C247 1.415 . S
C633 C2 1.954 . S
C635 C444 1.954 . S
C644 C410 1.953 . S
C646 C36 1.954 . S
C655 C70 1.955 . S
C657 C512 1.953 . S
C666 C478 1.955 . S
C668 C104 1.953 . S
C677 C122 1.132 . S
C679 C496 1.129 . S
C688 C530 1.133 . S
C690 C88 1.130 . S
C699 C428 1.133 . S
C701 C54 1.129 . S
C710 C20 1.129 . S
C712 C462 1.132 . S
C721 C138 1.954 . S
C723 C308 1.953 . S
C732 C172 1.954 . S
C734 C274 1.953 . S
C743 C206 1.953 . S
C745 C376 1.954 . S
C754 C240 1.954 . S
C756 C342 1.953 . S
C765 C258 1.131 . S
C767 C360 1.131 . S
C776 C224 1.129 . S
C778 C394 1.132 . S
C787 C190 1.132 . S
C789 C292 1.129 . S
C798 C156 1.130 . S
C800 C326 1.132 . S
C809 C67 1.636 . S
C811 C33 1.631 . S
C820 C101 1.634 . S
C822 C135 1.632 . S
C831 C203 1.633 . S
C833 C169 1.635 . S
C842 C271 1.634 . S
C844 C237 1.634 . S
C853 C339 1.634 . S
C855 C305 1.632 . S
C864 C407 1.634 . S
C866 C373 1.632 . S
C875 C441 1.631 . S
C877 C475 1.635 . S
C886 C543 1.635 . S
C888 C509 1.633 . S
C897 C73 1.479 1_545 S
C899 C5 1.480 . S
C908 C107 1.479 . S
C910 C39 1.478 1_545 S
C919 C141 1.480 . S
C921 C209 1.480 . S
C930 C243 1.478 . S
C932 C175 1.479 . S
C941 C277 1.478 . S
C943 C345 1.478 1_545 S
C952 C379 1.478 . S
C954 C311 1.477 1_545 S
C963 C413 1.478 . S
C965 C481 1.479 . S
C974 C515 1.479 . S
C976 C447 1.479 . S
