# Generated by pormake.
# Topology uog, (4)-cn, num edge types: 1
# Building blocks:
#     Node 0, Type 0, BuildingBlock: QUQFOY_clean_sbu_1, # of connection points: 4
#     Node 1, Type 0, BuildingBlock: QUQFOY_clean_sbu_1, # of connection points: 4
#     Node 2, Type 0, BuildingBlock: QUQFOY_clean_sbu_1, # of connection points: 4
#     Node 3, Type 0, BuildingBlock: QUQFOY_clean_sbu_1, # of connection points: 4
#     Node 4, Type 0, BuildingBlock: QUQFOY_clean_sbu_1, # of connection points: 4
#     Node 5, Type 0, BuildingBlock: QUQFOY_clean_sbu_1, # of connection points: 4
#     Edge 6, Type (0, 0), BuildingBlock: UVAHIK_clean_linker_0, # of connection points: 2
#     Edge 7, Type (0, 0), BuildingBlock: UVAHIK_clean_linker_0, # of connection points: 2
#     Edge 8, Type (0, 0), BuildingBlock: UVAHIK_clean_linker_0, # of connection points: 2
#     Edge 9, Type (0, 0), BuildingBlock: UVAHIK_clean_linker_0, # of connection points: 2
#     Edge 10, Type (0, 0), BuildingBlock: UVAHIK_clean_linker_0, # of connection points: 2
#     Edge 11, Type (0, 0), BuildingBlock: UVAHIK_clean_linker_0, # of connection points: 2
#     Edge 12, Type (0, 0), BuildingBlock: UVAHIK_clean_linker_0, # of connection points: 2
#     Edge 13, Type (0, 0), BuildingBlock: UVAHIK_clean_linker_0, # of connection points: 2
#     Edge 14, Type (0, 0), BuildingBlock: UVAHIK_clean_linker_0, # of connection points: 2
#     Edge 15, Type (0, 0), BuildingBlock: UVAHIK_clean_linker_0, # of connection points: 2
#     Edge 16, Type (0, 0), BuildingBlock: UVAHIK_clean_linker_0, # of connection points: 2
#     Edge 17, Type (0, 0), BuildingBlock: UVAHIK_clean_linker_0, # of connection points: 2
# Relax obj value: 0.088
# Max RMSD: 0.155
# Mean RMSD: 0.155
data_MOF--net-uog--node1-QUQFOY_clean_sbu_1--edge1-UVAHIK_clean_linker_0
_symmetry_space_group_name_H-M    P1
_symmetry_Int_Tables_number       1
_symmetry_cell_setting            triclinic
loop_
_symmetry_equiv_pos_as_xyz
'x, y, z'
_cell_length_a     37.602767
_cell_length_b     37.634663
_cell_length_c     56.858419
_cell_angle_alpha  89.99404
_cell_angle_beta   89.936178
_cell_angle_gamma 120.00984
loop_
_atom_site_label
_atom_site_type_symbol
_atom_site_fract_x
_atom_site_fract_y
_atom_site_fract_z
_atom_type_partial_charge
O0 O 0.60168 0.36217 0.17101 0.0
Cd1 Cd 0.63238 0.33036 0.1665 0.0
Cd2 Cd 0.55624 0.27247 0.15398 0.0
O3 O 0.53784 0.31081 0.16938 0.0
O4 O 0.68089 0.35812 0.1881 0.0
O5 O 0.62952 0.29488 0.19338 0.0
C6 C 0.66279 0.32576 0.20119 0.0
C7 C 0.53464 0.2047 0.16475 0.0
C8 C 0.56336 0.34861 0.1731 0.0
C9 C 0.62124 0.31053 0.11602 0.0
O10 O 0.58329 0.29043 0.12135 0.0
O11 O 0.64833 0.32609 0.13212 0.0
O12 O 0.51147 0.21323 0.15198 0.0
O13 O 0.56879 0.23484 0.17223 0.0
O14 O 0.24366 0.60527 0.50678 0.0
Cd15 Cd 0.30601 0.6394 0.50269 0.0
Cd16 Cd 0.29449 0.56481 0.48944 0.0
O17 O 0.23524 0.54321 0.50248 0.0
O18 O 0.32556 0.68577 0.52578 0.0
O19 O 0.33966 0.63548 0.52847 0.0
C20 C 0.34127 0.66761 0.53758 0.0
C21 C 0.3393 0.5417 0.50093 0.0
C22 C 0.22058 0.56652 0.50712 0.0
C23 C 0.32134 0.632 0.45247 0.0
O24 O 0.30787 0.59438 0.45735 0.0
O25 O 0.32628 0.65754 0.46861 0.0
O26 O 0.30919 0.52025 0.48678 0.0
O27 O 0.34229 0.5748 0.50947 0.0
O28 O 0.63559 0.24104 0.83818 0.0
Cd29 Cd 0.66599 0.30339 0.83399 0.0
Cd30 Cd 0.7268 0.28812 0.82072 0.0
O31 O 0.68726 0.22943 0.83382 0.0
O32 O 0.63994 0.32435 0.85677 0.0
O33 O 0.70364 0.33638 0.85991 0.0
C34 C 0.67355 0.33913 0.86877 0.0
C35 C 0.79481 0.33134 0.83255 0.0
C36 C 0.64956 0.21652 0.83852 0.0
C37 C 0.68883 0.31751 0.78374 0.0
O38 O 0.71166 0.30248 0.78862 0.0
O39 O 0.66906 0.32375 0.79987 0.0
O40 O 0.78564 0.30114 0.81837 0.0
O41 O 0.7651 0.33525 0.84092 0.0
O42 O 0.39387 0.63213 0.17232 0.0
Cd43 Cd 0.36285 0.66367 0.16834 0.0
Cd44 Cd 0.43969 0.72384 0.15613 0.0
O45 O 0.45729 0.68468 0.17138 0.0
O46 O 0.316 0.64034 0.19154 0.0
O47 O 0.37097 0.70199 0.19443 0.0
C48 C 0.33728 0.67362 0.20353 0.0
C49 C 0.46394 0.79256 0.16636 0.0
C50 C 0.43232 0.64653 0.17459 0.0
C51 C 0.37471 0.68579 0.11808 0.0
O52 O 0.41254 0.70631 0.12356 0.0
O53 O 0.34738 0.6692 0.13404 0.0
O54 O 0.48596 0.78262 0.15348 0.0
O55 O 0.42951 0.76338 0.17419 0.0
O56 O 0.76442 0.39246 0.50348 0.0
Cd57 Cd 0.70181 0.36333 0.49987 0.0
Cd58 Cd 0.72103 0.44229 0.48978 0.0
O59 O 0.77775 0.45674 0.50407 0.0
O60 O 0.6767 0.31568 0.52255 0.0
O61 O 0.67299 0.37218 0.5264 0.0
C62 C 0.66607 0.33764 0.53499 0.0
C63 C 0.67878 0.46845 0.50166 0.0
C64 C 0.78963 0.43052 0.50629 0.0
C65 C 0.69072 0.37912 0.45041 0.0
O66 O 0.70914 0.41658 0.45673 0.0
O67 O 0.67994 0.35069 0.46564 0.0
O68 O 0.71066 0.49017 0.48865 0.0
O69 O 0.67256 0.43334 0.50877 0.0
O70 O 0.36697 0.76195 0.83973 0.0
Cd71 Cd 0.33588 0.6994 0.83554 0.0
Cd72 Cd 0.27615 0.71591 0.8231 0.0
O73 O 0.31474 0.77314 0.83788 0.0
O74 O 0.36163 0.67774 0.85814 0.0
O75 O 0.29839 0.66684 0.86168 0.0
C76 C 0.3282 0.66343 0.87032 0.0
C77 C 0.20782 0.67083 0.83381 0.0
C78 C 0.35277 0.7862 0.84147 0.0
C79 C 0.31485 0.68927 0.78519 0.0
O80 O 0.29378 0.70605 0.79057 0.0
O81 O 0.33166 0.67902 0.80122 0.0
O82 O 0.21708 0.70234 0.82069 0.0
O83 O 0.2375 0.66641 0.84163 0.0
C84 C 0.49122 0.1289 0.15766 0.0
C85 C 0.52435 0.16178 0.16921 0.0
C86 C 0.48461 0.08897 0.15981 0.0
C87 C 0.46636 0.00409 0.17546 0.0
H88 H 0.56252 0.99133 0.17404 0.0
C89 C 0.45211 0.84532 0.18589 0.0
C90 C 0.47565 0.83593 0.17057 0.0
C91 C 0.45954 0.88547 0.18783 0.0
C92 C 0.53534 0.99431 0.17434 0.0
H93 H 0.57544 0.1782 0.19292 0.0
H94 H 0.56343 0.10863 0.19703 0.0
H95 H 0.57091 0.05986 0.1732 0.0
H96 H 0.52643 0.8617 0.14589 0.0
H97 H 0.53918 0.93184 0.14908 0.0
H98 H 0.43073 0.93855 0.1758 0.0
C99 C 0.54308 0.11374 0.18587 0.0
C100 C 0.54014 0.03366 0.17416 0.0
C101 C 0.54975 0.15361 0.18366 0.0
C102 C 0.50787 0.86794 0.15792 0.0
C103 C 0.51521 0.90818 0.1598 0.0
C104 C 0.46156 0.96476 0.17563 0.0
C105 C 0.5109 0.081 0.17363 0.0
C106 C 0.50571 0.03907 0.17462 0.0
C107 C 0.49057 0.91729 0.17442 0.0
C108 C 0.49597 0.95933 0.17498 0.0
H109 H 0.4712 0.13416 0.1463 0.0
H110 H 0.45973 0.0646 0.14997 0.0
H111 H 0.43917 0.00705 0.17604 0.0
H112 H 0.42722 0.82143 0.19603 0.0
H113 H 0.44055 0.89148 0.19965 0.0
C114 C 0.37196 0.49859 0.49362 0.0
C115 C 0.37157 0.53098 0.50568 0.0
C116 C 0.40516 0.49182 0.49598 0.0
C117 C 0.47107 0.47271 0.51197 0.0
H118 H 0.58009 0.56878 0.51188 0.0
C119 C 0.6151 0.45755 0.52199 0.0
C120 C 0.64795 0.48106 0.50662 0.0
C121 C 0.58265 0.46537 0.52432 0.0
C122 C 0.54989 0.54163 0.51184 0.0
H123 H 0.40498 0.58056 0.53048 0.0
H124 H 0.46243 0.56833 0.53487 0.0
H125 H 0.51989 0.57723 0.51113 0.0
H126 H 0.6733 0.53239 0.48236 0.0
H127 H 0.61643 0.54592 0.48627 0.0
H128 H 0.501 0.43709 0.51192 0.0
C129 C 0.43751 0.54866 0.52321 0.0
C130 C 0.51532 0.54646 0.51169 0.0
C131 C 0.40436 0.55544 0.52084 0.0
C132 C 0.64854 0.51383 0.49442 0.0
C133 C 0.61593 0.5216 0.4967 0.0
C134 C 0.50561 0.46789 0.51215 0.0
C135 C 0.43872 0.51726 0.51047 0.0
C136 C 0.47546 0.51205 0.51161 0.0
C137 C 0.58211 0.49681 0.51126 0.0
C138 C 0.54549 0.50227 0.51197 0.0
H139 H 0.34729 0.4793 0.48172 0.0
H140 H 0.40519 0.46756 0.48575 0.0
H141 H 0.44089 0.44555 0.51213 0.0
H142 H 0.61382 0.43225 0.5318 0.0
H143 H 0.5576 0.44627 0.53609 0.0
C144 C 0.87052 0.36306 0.8251 0.0
C145 C 0.83802 0.36284 0.83746 0.0
C146 C 0.91071 0.39587 0.82751 0.0
C147 C 0.9963 0.46122 0.84317 0.0
H148 H 0.00949 0.57023 0.84444 0.0
C149 C 0.15583 0.60546 0.85312 0.0
C150 C 0.16461 0.63879 0.8383 0.0
C151 C 0.11572 0.57259 0.8553 0.0
C152 C 0.00637 0.54004 0.84401 0.0
H153 H 0.82259 0.39598 0.86291 0.0
H154 H 0.89261 0.45267 0.86739 0.0
H155 H 0.94076 0.51026 0.84384 0.0
H156 H 0.13785 0.66435 0.81477 0.0
H157 H 0.06783 0.60681 0.81843 0.0
H158 H 0.0619 0.49101 0.84256 0.0
C159 C 0.887 0.42799 0.85545 0.0
C160 C 0.96693 0.50558 0.84396 0.0
C161 C 0.84686 0.39527 0.85302 0.0
C162 C 0.1321 0.63922 0.8264 0.0
C163 C 0.09192 0.60624 0.82855 0.0
C164 C 0.03574 0.49567 0.84323 0.0
C165 C 0.91931 0.42916 0.84236 0.0
C166 C 0.96138 0.46572 0.84341 0.0
C167 C 0.08337 0.57214 0.84269 0.0
C168 C 0.0413 0.53554 0.84352 0.0
H169 H 0.86474 0.33866 0.8129 0.0
H170 H 0.93476 0.39587 0.81701 0.0
H171 H 0.9932 0.43102 0.84295 0.0
H172 H 0.18011 0.60424 0.86266 0.0
H173 H 0.11016 0.54726 0.86671 0.0
C174 C 0.14809 0.50708 0.51053 0.0
C175 C 0.1761 0.54943 0.51175 0.0
C176 C 0.10585 0.49212 0.51311 0.0
C177 C 0.02995 0.52246 0.53304 0.0
H178 H 0.95715 0.4375 0.48982 0.0
C179 C 0.86332 0.48546 0.51288 0.0
C180 C 0.83337 0.44375 0.5109 0.0
C181 C 0.90487 0.49727 0.51547 0.0
C182 C 0.97701 0.46094 0.5022 0.0
H183 H 0.18153 0.60909 0.51732 0.0
H184 H 0.10862 0.58328 0.52128 0.0
H185 H 0.02985 0.45875 0.49033 0.0
H186 H 0.82365 0.38175 0.51091 0.0
H187 H 0.89563 0.4024 0.51537 0.0
H188 H 0.97701 0.52529 0.54438 0.0
C189 C 0.11898 0.56139 0.51874 0.0
C190 C 0.0187 0.47301 0.50257 0.0
C191 C 0.16098 0.57625 0.51626 0.0
C192 C 0.8458 0.41419 0.51221 0.0
C193 C 0.88716 0.42598 0.51465 0.0
C194 C 0.98826 0.51059 0.53253 0.0
C195 C 0.09075 0.51921 0.51693 0.0
C196 C 0.04582 0.50417 0.51786 0.0
C197 C 0.91724 0.46762 0.51597 0.0
C198 C 0.96139 0.47985 0.51701 0.0
H199 H 0.15868 0.48557 0.50715 0.0
H200 H 0.085 0.45936 0.51194 0.0
H201 H 0.04977 0.54609 0.54532 0.0
H202 H 0.85483 0.509 0.51194 0.0
H203 H 0.92744 0.52965 0.51633 0.0
C204 C 0.42408 0.84424 0.84818 0.0
C205 C 0.38181 0.83028 0.84608 0.0
C206 C 0.45244 0.88599 0.8503 0.0
C207 C 0.4642 0.98741 0.83728 0.0
H208 H 0.56452 0.02719 0.87341 0.0
C209 C 0.57883 0.15935 0.84754 0.0
C210 C 0.62047 0.17244 0.8432 0.0
C211 C 0.5501 0.11781 0.85002 0.0
C212 C 0.53677 0.01644 0.86313 0.0
H213 H 0.33617 0.8494 0.84558 0.0
H214 H 0.38577 0.9225 0.84987 0.0
H215 H 0.51224 0.95456 0.87501 0.0
H216 H 0.66467 0.1519 0.83895 0.0
H217 H 0.61407 0.0788 0.84347 0.0
H218 H 0.48866 0.04935 0.82556 0.0
C219 C 0.39698 0.90104 0.84931 0.0
C220 C 0.50678 0.97484 0.86401 0.0
C221 C 0.3685 0.8591 0.84704 0.0
C222 C 0.63287 0.14288 0.84225 0.0
C223 C 0.60396 0.10107 0.8449 0.0
C224 C 0.49399 0.02898 0.83657 0.0
C225 C 0.43941 0.91505 0.85057 0.0
C226 C 0.47021 0.95973 0.85095 0.0
C227 C 0.56215 0.08815 0.84836 0.0
C228 C 0.53067 0.04392 0.84939 0.0
H229 H 0.43558 0.82301 0.8475 0.0
H230 H 0.48479 0.89551 0.85088 0.0
H231 H 0.43693 0.97687 0.8266 0.0
H232 H 0.56807 0.18115 0.84858 0.0
H233 H 0.51824 0.10885 0.85307 0.0
C234 C 0.48964 0.63125 0.1811 0.0
C235 C 0.44744 0.61769 0.17965 0.0
C236 C 0.50325 0.60299 0.18396 0.0
C237 C 0.46748 0.49372 0.19965 0.0
H238 H 0.56037 0.511 0.16159 0.0
C239 C 0.50742 0.36641 0.17826 0.0
C240 C 0.54929 0.37817 0.17851 0.0
C241 C 0.49526 0.3958 0.18125 0.0
C242 C 0.53466 0.50593 0.17255 0.0
H243 H 0.38648 0.56378 0.18081 0.0
H244 H 0.41011 0.51498 0.18525 0.0
H245 H 0.53983 0.56288 0.16209 0.0
H246 H 0.61101 0.42984 0.18323 0.0
H247 H 0.58976 0.48053 0.18839 0.0
H248 H 0.46179 0.43607 0.20952 0.0
C249 C 0.43281 0.54732 0.18458 0.0
C250 C 0.52298 0.5358 0.17292 0.0
C251 C 0.41925 0.57545 0.18184 0.0
C252 C 0.57849 0.41961 0.18268 0.0
C253 C 0.56639 0.44883 0.18555 0.0
C254 C 0.47901 0.46367 0.19913 0.0
C255 C 0.47497 0.56059 0.18536 0.0
C256 C 0.48907 0.53 0.18635 0.0
C257 C 0.52475 0.43745 0.18443 0.0
C258 C 0.51264 0.46941 0.1855 0.0
H259 H 0.51216 0.66355 0.17959 0.0
H260 H 0.53596 0.61436 0.18486 0.0
H261 H 0.44158 0.48847 0.21048 0.0
H262 H 0.48416 0.33479 0.17511 0.0
H263 H 0.46292 0.38616 0.18022 0.0
C264 C 0.71247 0.36843 0.90613 0.0
C265 C 0.67575 0.35323 0.8933 0.0
C266 C 0.71273 0.37365 0.93049 0.0
C267 C 0.64902 0.37334 0.98103 0.0
H268 H 0.70692 0.32846 0.01523 0.0
C269 C 0.60218 0.30701 0.0737 0.0
C270 C 0.63297 0.31851 0.09084 0.0
C271 C 0.61239 0.31735 0.05014 0.0
C272 C 0.69112 0.34167 0.00596 0.0
H273 H 0.6111 0.33417 0.89576 0.0
H274 H 0.61133 0.34265 0.93814 0.0
H275 H 0.71618 0.33844 0.97279 0.0
H276 H 0.6988 0.34896 0.09644 0.0
H277 H 0.71665 0.36631 0.05485 0.0
H278 H 0.62253 0.37468 0.01414 0.0
C279 C 0.64013 0.35103 0.92947 0.0
C280 C 0.6965 0.34757 0.98163 0.0
C281 C 0.63993 0.34605 0.9051 0.0
C282 C 0.67435 0.33964 0.08369 0.0
C283 C 0.68458 0.34959 0.05992 0.0
C284 C 0.64339 0.36709 0.00528 0.0
C285 C 0.67624 0.36361 0.94258 0.0
C286 C 0.67478 0.36262 0.96877 0.0
C287 C 0.65363 0.33912 0.04302 0.0
C288 C 0.66363 0.3503 0.01789 0.0
H289 H 0.7407 0.37453 0.89752 0.0
H290 H 0.74128 0.38427 0.93994 0.0
H291 H 0.63248 0.38579 0.97181 0.0
H292 H 0.56997 0.29068 0.07848 0.0
H293 H 0.58788 0.30819 0.03744 0.0
C294 C 0.29162 0.64551 0.23898 0.0
C295 C 0.32702 0.67709 0.22827 0.0
C296 C 0.2865 0.64508 0.2634 0.0
C297 C 0.33217 0.70639 0.31856 0.0
H298 H 0.29114 0.59833 0.34563 0.0
C299 C 0.32151 0.67656 0.41958 0.0
C300 C 0.32744 0.64452 0.42747 0.0
C301 C 0.32047 0.68357 0.39545 0.0
C302 C 0.30317 0.62886 0.33841 0.0
H303 H 0.3834 0.73451 0.23459 0.0
H304 H 0.37526 0.73307 0.27687 0.0
H305 H 0.28825 0.60538 0.30351 0.0
H306 H 0.33984 0.59666 0.41644 0.0
H307 H 0.34002 0.61001 0.37462 0.0
H308 H 0.34926 0.72992 0.35354 0.0
C309 C 0.35093 0.7089 0.26664 0.0
C310 C 0.30068 0.63285 0.31416 0.0
C311 C 0.35574 0.70962 0.24226 0.0
C312 C 0.33473 0.62128 0.41087 0.0
C313 C 0.33434 0.62867 0.38686 0.0
C314 C 0.33512 0.70243 0.34287 0.0
C315 C 0.31696 0.6759 0.27765 0.0
C316 C 0.31562 0.67169 0.3038 0.0
C317 C 0.32586 0.65899 0.37876 0.0
C318 C 0.32127 0.66362 0.35307 0.0
H319 H 0.26875 0.62019 0.22867 0.0
H320 H 0.25933 0.61974 0.27116 0.0
H321 H 0.34343 0.73678 0.31132 0.0
H322 H 0.3155 0.69478 0.43199 0.0
H323 H 0.31371 0.7071 0.38992 0.0
C324 C 0.71312 0.3303 0.74217 0.0
C325 C 0.68281 0.32392 0.75875 0.0
C326 C 0.70554 0.3302 0.71815 0.0
C327 C 0.63372 0.33339 0.67421 0.0
H328 H 0.6824 0.28517 0.63462 0.0
C329 C 0.64722 0.29103 0.57006 0.0
C330 C 0.65194 0.32696 0.55964 0.0
C331 C 0.6421 0.28539 0.59444 0.0
C332 C 0.66776 0.29798 0.64534 0.0
H333 H 0.62121 0.31383 0.76325 0.0
H334 H 0.60737 0.31245 0.72119 0.0
H335 H 0.69196 0.28731 0.67675 0.0
H336 H 0.652 0.38377 0.56641 0.0
H337 H 0.6446 0.37472 0.60859 0.0
H338 H 0.60837 0.34279 0.64274 0.0
C339 C 0.63737 0.31834 0.72672 0.0
C340 C 0.67405 0.30004 0.6696 0.0
C341 C 0.64527 0.31914 0.75085 0.0
C342 C 0.64858 0.35572 0.57385 0.0
C343 C 0.64405 0.35038 0.59818 0.0
C344 C 0.62695 0.33083 0.64991 0.0
C345 C 0.6671 0.32287 0.71004 0.0
C346 C 0.65798 0.31865 0.68434 0.0
C347 C 0.64218 0.31583 0.60893 0.0
C348 C 0.64461 0.31386 0.63506 0.0
H349 H 0.74253 0.33451 0.74776 0.0
H350 H 0.72972 0.33521 0.70593 0.0
H351 H 0.62083 0.34794 0.68494 0.0
H352 H 0.64932 0.26813 0.55957 0.0
H353 H 0.63958 0.25781 0.60198 0.0
C354 C 0.28882 0.63299 0.90746 0.0
C355 C 0.32583 0.64898 0.89479 0.0
C356 C 0.28818 0.62726 0.93179 0.0
C357 C 0.3515 0.62762 0.98249 0.0
H358 H 0.29075 0.66922 0.01688 0.0
C359 C 0.39481 0.69138 0.0758 0.0
C360 C 0.36354 0.67851 0.09281 0.0
C361 C 0.3853 0.68169 0.05214 0.0
C362 C 0.30735 0.65693 0.00755 0.0
H363 H 0.39067 0.66904 0.89749 0.0
H364 H 0.38979 0.65972 0.93984 0.0
H365 H 0.28277 0.66056 0.97434 0.0
H366 H 0.29754 0.64629 0.09803 0.0
H367 H 0.28089 0.63011 0.05624 0.0
H368 H 0.37749 0.62592 0.01568 0.0
C369 C 0.36104 0.65106 0.93106 0.0
C370 C 0.30272 0.65178 0.98316 0.0
C371 C 0.36162 0.65652 0.90671 0.0
C372 C 0.32235 0.65668 0.08539 0.0
C373 C 0.31281 0.64738 0.06152 0.0
C374 C 0.35639 0.63314 0.00681 0.0
C375 C 0.32457 0.63761 0.94402 0.0
C376 C 0.32545 0.63792 0.97024 0.0
C377 C 0.34429 0.65921 0.04475 0.0
C378 C 0.33509 0.64873 0.0195 0.0
H379 H 0.26061 0.62659 0.89875 0.0
H380 H 0.25937 0.61595 0.9411 0.0
H381 H 0.36881 0.61606 0.97324 0.0
H382 H 0.4269 0.70829 0.08076 0.0
H383 H 0.41019 0.69189 0.03956 0.0
C384 C 0.66571 0.32904 0.41652 0.0
C385 C 0.68503 0.36963 0.4249 0.0
C386 C 0.66344 0.32116 0.39228 0.0
C387 C 0.67441 0.372 0.33431 0.0
H388 H 0.69172 0.28543 0.31017 0.0
C389 C 0.70333 0.36373 0.23657 0.0
C390 C 0.67547 0.32634 0.22588 0.0
C391 C 0.70755 0.36646 0.26101 0.0
C392 C 0.68681 0.30965 0.31674 0.0
H393 H 0.71695 0.43367 0.41424 0.0
H394 H 0.71389 0.42008 0.37259 0.0
H395 H 0.68977 0.29446 0.35276 0.0
H396 H 0.6331 0.2617 0.23227 0.0
H397 H 0.6411 0.26648 0.275 0.0
H398 H 0.67229 0.38773 0.29842 0.0
C399 C 0.69955 0.39415 0.38448 0.0
C400 C 0.68534 0.31466 0.34109 0.0
C401 C 0.70152 0.40198 0.40852 0.0
C402 C 0.65472 0.291 0.23999 0.0
C403 C 0.65928 0.29368 0.26445 0.0
C404 C 0.67643 0.36735 0.31011 0.0
C405 C 0.68058 0.35371 0.37597 0.0
C406 C 0.67953 0.34621 0.35017 0.0
C407 C 0.68437 0.33179 0.27523 0.0
C408 C 0.68302 0.33642 0.30106 0.0
H409 H 0.65275 0.30342 0.42866 0.0
H410 H 0.6482 0.28961 0.38634 0.0
H411 H 0.66875 0.3959 0.34057 0.0
H412 H 0.71984 0.3915 0.22623 0.0
H413 H 0.7276 0.39611 0.2689 0.0
C414 C 0.30947 0.7035 0.74285 0.0
C415 C 0.32254 0.6855 0.75996 0.0
C416 C 0.31961 0.7039 0.71924 0.0
C417 C 0.34619 0.65191 0.67482 0.0
H418 H 0.38674 0.75439 0.64076 0.0
C419 C 0.37157 0.65864 0.57474 0.0
C420 C 0.35528 0.67939 0.56213 0.0
C421 C 0.37699 0.66347 0.59909 0.0
C422 C 0.37529 0.72548 0.64995 0.0
H423 H 0.35553 0.6526 0.7654 0.0
H424 H 0.3725 0.65249 0.72369 0.0
H425 H 0.3761 0.75271 0.68315 0.0
H426 H 0.33436 0.72344 0.56499 0.0
H427 H 0.34316 0.73144 0.60735 0.0
H428 H 0.34341 0.62415 0.64155 0.0
C429 C 0.35473 0.66666 0.72886 0.0
C430 C 0.36932 0.72457 0.67424 0.0
C431 C 0.34498 0.6667 0.75269 0.0
C432 C 0.3471 0.70711 0.57415 0.0
C433 C 0.35228 0.71176 0.59851 0.0
C434 C 0.35178 0.65271 0.65044 0.0
C435 C 0.34274 0.68597 0.712 0.0
C436 C 0.3538 0.68761 0.68682 0.0
C437 C 0.36606 0.68901 0.6114 0.0
C438 C 0.36549 0.68935 0.63761 0.0
H439 H 0.29208 0.71823 0.74771 0.0
H440 H 0.30929 0.7183 0.70658 0.0
H441 H 0.33398 0.62297 0.68408 0.0
H442 H 0.37846 0.63722 0.56596 0.0
H443 H 0.38853 0.64617 0.60836 0.0
loop_
_geom_bond_atom_site_label_1
_geom_bond_atom_site_label_2
_geom_bond_distance
_geom_bond_site_symmetry_2
_ccdc_geom_bond_type
O0 Cd1 2.223 . S
O0 C8 1.315 . S
Cd1 O0 2.223 . S
Cd1 O4 2.297 . S
Cd1 O5 2.439 . S
Cd1 O11 2.240 . S
Cd2 O3 2.240 . S
Cd2 O10 2.223 . S
Cd2 O12 2.297 . S
Cd2 O13 2.439 . S
O3 Cd2 2.240 . S
O3 C8 1.279 . S
O4 Cd1 2.297 . S
O4 C6 1.247 . S
O5 Cd1 2.439 . S
O5 C6 1.208 . S
C6 O4 1.247 . S
C6 O5 1.208 . S
C7 O12 1.247 . S
C7 O13 1.208 . S
C8 O0 1.315 . S
C8 O3 1.279 . S
C9 O10 1.315 . S
C9 O11 1.279 . S
O10 Cd2 2.223 . S
O10 C9 1.315 . S
O11 Cd1 2.240 . S
O11 C9 1.279 . S
O12 Cd2 2.297 . S
O12 C7 1.247 . S
O13 Cd2 2.439 . S
O13 C7 1.208 . S
O14 Cd15 2.223 . S
O14 C22 1.315 . S
Cd15 O14 2.223 . S
Cd15 O18 2.297 . S
Cd15 O19 2.439 . S
Cd15 O25 2.240 . S
Cd16 O17 2.240 . S
Cd16 O24 2.223 . S
Cd16 O26 2.297 . S
Cd16 O27 2.439 . S
O17 Cd16 2.240 . S
O17 C22 1.279 . S
O18 Cd15 2.297 . S
O18 C20 1.247 . S
O19 Cd15 2.439 . S
O19 C20 1.208 . S
C20 O18 1.247 . S
C20 O19 1.208 . S
C21 O26 1.247 . S
C21 O27 1.208 . S
C22 O14 1.315 . S
C22 O17 1.279 . S
C23 O24 1.315 . S
C23 O25 1.279 . S
O24 Cd16 2.223 . S
O24 C23 1.315 . S
O25 Cd15 2.240 . S
O25 C23 1.279 . S
O26 Cd16 2.297 . S
O26 C21 1.247 . S
O27 Cd16 2.439 . S
O27 C21 1.208 . S
O28 Cd29 2.223 . S
O28 C36 1.315 . S
Cd29 O28 2.223 . S
Cd29 O32 2.297 . S
Cd29 O33 2.439 . S
Cd29 O39 2.240 . S
Cd30 O31 2.240 . S
Cd30 O38 2.223 . S
Cd30 O40 2.297 . S
Cd30 O41 2.439 . S
O31 Cd30 2.240 . S
O31 C36 1.279 . S
O32 Cd29 2.297 . S
O32 C34 1.247 . S
O33 Cd29 2.439 . S
O33 C34 1.208 . S
C34 O32 1.247 . S
C34 O33 1.208 . S
C35 O40 1.247 . S
C35 O41 1.208 . S
C36 O28 1.315 . S
C36 O31 1.279 . S
C37 O38 1.315 . S
C37 O39 1.279 . S
O38 Cd30 2.223 . S
O38 C37 1.315 . S
O39 Cd29 2.240 . S
O39 C37 1.279 . S
O40 Cd30 2.297 . S
O40 C35 1.247 . S
O41 Cd30 2.439 . S
O41 C35 1.208 . S
O42 Cd43 2.223 . S
O42 C50 1.315 . S
Cd43 O42 2.223 . S
Cd43 O46 2.297 . S
Cd43 O47 2.439 . S
Cd43 O53 2.240 . S
Cd44 O45 2.240 . S
Cd44 O52 2.223 . S
Cd44 O54 2.297 . S
Cd44 O55 2.439 . S
O45 Cd44 2.240 . S
O45 C50 1.279 . S
O46 Cd43 2.297 . S
O46 C48 1.247 . S
O47 Cd43 2.439 . S
O47 C48 1.208 . S
C48 O46 1.247 . S
C48 O47 1.208 . S
C49 O54 1.247 . S
C49 O55 1.208 . S
C50 O42 1.315 . S
C50 O45 1.279 . S
C51 O52 1.315 . S
C51 O53 1.279 . S
O52 Cd44 2.223 . S
O52 C51 1.315 . S
O53 Cd43 2.240 . S
O53 C51 1.279 . S
O54 Cd44 2.297 . S
O54 C49 1.247 . S
O55 Cd44 2.439 . S
O55 C49 1.208 . S
O56 Cd57 2.223 . S
O56 C64 1.315 . S
Cd57 O56 2.223 . S
Cd57 O60 2.297 . S
Cd57 O61 2.439 . S
Cd57 O67 2.240 . S
Cd58 O59 2.240 . S
Cd58 O66 2.223 . S
Cd58 O68 2.297 . S
Cd58 O69 2.439 . S
O59 Cd58 2.240 . S
O59 C64 1.279 . S
O60 Cd57 2.297 . S
O60 C62 1.247 . S
O61 Cd57 2.439 . S
O61 C62 1.208 . S
C62 O60 1.247 . S
C62 O61 1.208 . S
C63 O68 1.247 . S
C63 O69 1.208 . S
C64 O56 1.315 . S
C64 O59 1.279 . S
C65 O66 1.315 . S
C65 O67 1.279 . S
O66 Cd58 2.223 . S
O66 C65 1.315 . S
O67 Cd57 2.240 . S
O67 C65 1.279 . S
O68 Cd58 2.297 . S
O68 C63 1.247 . S
O69 Cd58 2.439 . S
O69 C63 1.208 . S
O70 Cd71 2.223 . S
O70 C78 1.315 . S
Cd71 O70 2.223 . S
Cd71 O74 2.297 . S
Cd71 O75 2.439 . S
Cd71 O81 2.240 . S
Cd72 O73 2.240 . S
Cd72 O80 2.223 . S
Cd72 O82 2.297 . S
Cd72 O83 2.439 . S
O73 Cd72 2.240 . S
O73 C78 1.279 . S
O74 Cd71 2.297 . S
O74 C76 1.247 . S
O75 Cd71 2.439 . S
O75 C76 1.208 . S
C76 O74 1.247 . S
C76 O75 1.208 . S
C77 O82 1.247 . S
C77 O83 1.208 . S
C78 O70 1.315 . S
C78 O73 1.279 . S
C79 O80 1.315 . S
C79 O81 1.279 . S
O80 Cd72 2.223 . S
O80 C79 1.315 . S
O81 Cd71 2.240 . S
O81 C79 1.279 . S
O82 Cd72 2.297 . S
O82 C77 1.247 . S
O83 Cd72 2.439 . S
O83 C77 1.208 . S
C84 C85 1.349 . S
C84 C86 1.327 . S
C84 H109 0.950 . S
C85 C84 1.349 . S
C85 C101 1.349 . S
C86 C84 1.327 . S
C86 C105 1.429 . S
C86 H110 0.950 . S
C87 C104 1.574 1_545 S
C87 C106 1.368 . S
C87 H111 0.949 . S
H88 C92 0.949 . S
C89 C90 1.349 . S
C89 C91 1.327 . S
C89 H112 0.950 . S
C90 C89 1.349 . S
C90 C102 1.349 . S
C91 C89 1.327 . S
C91 C107 1.429 . S
C91 H113 0.950 . S
C92 H88 0.949 . S
C92 C100 1.574 1_565 S
C92 C108 1.368 . S
H93 C101 0.950 . S
H94 C99 0.950 . S
H95 C100 0.949 . S
H96 C102 0.950 . S
H97 C103 0.950 . S
H98 C104 0.949 . S
C99 H94 0.950 . S
C99 C101 1.327 . S
C99 C105 1.429 . S
C100 C92 1.574 1_545 S
C100 H95 0.949 . S
C100 C106 1.368 . S
C101 C85 1.349 . S
C101 H93 0.950 . S
C101 C99 1.327 . S
C102 C90 1.349 . S
C102 H96 0.950 . S
C102 C103 1.327 . S
C103 H97 0.950 . S
C103 C102 1.327 . S
C103 C107 1.429 . S
C104 C87 1.574 1_565 S
C104 H98 0.949 . S
C104 C108 1.368 . S
C105 C86 1.429 . S
C105 C99 1.429 . S
C105 C106 1.523 . S
C106 C87 1.368 . S
C106 C100 1.368 . S
C106 C105 1.523 . S
C107 C91 1.429 . S
C107 C103 1.429 . S
C107 C108 1.523 . S
C108 C92 1.368 . S
C108 C104 1.368 . S
C108 C107 1.523 . S
H109 C84 0.950 . S
H110 C86 0.950 . S
H111 C87 0.949 . S
H112 C89 0.950 . S
H113 C91 0.950 . S
C114 C115 1.349 . S
C114 C116 1.327 . S
C114 H139 0.950 . S
C115 C114 1.349 . S
C115 C131 1.349 . S
C116 C114 1.327 . S
C116 C135 1.429 . S
C116 H140 0.950 . S
C117 C134 1.574 . S
C117 C136 1.368 . S
C117 H141 0.949 . S
H118 C122 0.949 . S
C119 C120 1.349 . S
C119 C121 1.327 . S
C119 H142 0.950 . S
C120 C119 1.349 . S
C120 C132 1.349 . S
C121 C119 1.327 . S
C121 C137 1.429 . S
C121 H143 0.950 . S
C122 H118 0.949 . S
C122 C130 1.574 . S
C122 C138 1.368 . S
H123 C131 0.950 . S
H124 C129 0.950 . S
H125 C130 0.949 . S
H126 C132 0.950 . S
H127 C133 0.950 . S
H128 C134 0.949 . S
C129 H124 0.950 . S
C129 C131 1.327 . S
C129 C135 1.429 . S
C130 C122 1.574 . S
C130 H125 0.949 . S
C130 C136 1.368 . S
C131 C115 1.349 . S
C131 H123 0.950 . S
C131 C129 1.327 . S
C132 C120 1.349 . S
C132 H126 0.950 . S
C132 C133 1.327 . S
C133 H127 0.950 . S
C133 C132 1.327 . S
C133 C137 1.429 . S
C134 C117 1.574 . S
C134 H128 0.949 . S
C134 C138 1.368 . S
C135 C116 1.429 . S
C135 C129 1.429 . S
C135 C136 1.523 . S
C136 C117 1.368 . S
C136 C130 1.368 . S
C136 C135 1.523 . S
C137 C121 1.429 . S
C137 C133 1.429 . S
C137 C138 1.523 . S
C138 C122 1.368 . S
C138 C134 1.368 . S
C138 C137 1.523 . S
H139 C114 0.950 . S
H140 C116 0.950 . S
H141 C117 0.949 . S
H142 C119 0.950 . S
H143 C121 0.950 . S
C144 C145 1.349 . S
C144 C146 1.327 . S
C144 H169 0.950 . S
C145 C144 1.349 . S
C145 C161 1.349 . S
C146 C144 1.327 . S
C146 C165 1.429 . S
C146 H170 0.950 . S
C147 C164 1.574 1_655 S
C147 C166 1.368 . S
C147 H171 0.949 . S
H148 C152 0.949 . S
C149 C150 1.349 . S
C149 C151 1.327 . S
C149 H172 0.950 . S
C150 C149 1.349 . S
C150 C162 1.349 . S
C151 C149 1.327 . S
C151 C167 1.429 . S
C151 H173 0.950 . S
C152 H148 0.949 . S
C152 C160 1.574 1_455 S
C152 C168 1.368 . S
H153 C161 0.950 . S
H154 C159 0.950 . S
H155 C160 0.949 . S
H156 C162 0.950 . S
H157 C163 0.950 . S
H158 C164 0.949 . S
C159 H154 0.950 . S
C159 C161 1.327 . S
C159 C165 1.429 . S
C160 C152 1.574 1_655 S
C160 H155 0.949 . S
C160 C166 1.368 . S
C161 C145 1.349 . S
C161 H153 0.950 . S
C161 C159 1.327 . S
C162 C150 1.349 . S
C162 H156 0.950 . S
C162 C163 1.327 . S
C163 H157 0.950 . S
C163 C162 1.327 . S
C163 C167 1.429 . S
C164 C147 1.574 1_455 S
C164 H158 0.949 . S
C164 C168 1.368 . S
C165 C146 1.429 . S
C165 C159 1.429 . S
C165 C166 1.523 . S
C166 C147 1.368 . S
C166 C160 1.368 . S
C166 C165 1.523 . S
C167 C151 1.429 . S
C167 C163 1.429 . S
C167 C168 1.523 . S
C168 C152 1.368 . S
C168 C164 1.368 . S
C168 C167 1.523 . S
H169 C144 0.950 . S
H170 C146 0.950 . S
H171 C147 0.949 . S
H172 C149 0.950 . S
H173 C151 0.950 . S
C174 C175 1.349 . S
C174 C176 1.327 . S
C174 H199 0.950 . S
C175 C174 1.349 . S
C175 C191 1.349 . S
C176 C174 1.327 . S
C176 C195 1.429 . S
C176 H200 0.950 . S
C177 C194 1.574 1_455 S
C177 C196 1.368 . S
C177 H201 0.949 . S
H178 C182 0.949 . S
C179 C180 1.349 . S
C179 C181 1.327 . S
C179 H202 0.950 . S
C180 C179 1.349 . S
C180 C192 1.349 . S
C181 C179 1.327 . S
C181 C197 1.429 . S
C181 H203 0.950 . S
C182 H178 0.949 . S
C182 C190 1.574 1_655 S
C182 C198 1.368 . S
H183 C191 0.950 . S
H184 C189 0.950 . S
H185 C190 0.949 . S
H186 C192 0.950 . S
H187 C193 0.950 . S
H188 C194 0.949 . S
C189 H184 0.950 . S
C189 C191 1.327 . S
C189 C195 1.429 . S
C190 C182 1.574 1_455 S
C190 H185 0.949 . S
C190 C196 1.368 . S
C191 C175 1.349 . S
C191 H183 0.950 . S
C191 C189 1.327 . S
C192 C180 1.349 . S
C192 H186 0.950 . S
C192 C193 1.327 . S
C193 H187 0.950 . S
C193 C192 1.327 . S
C193 C197 1.429 . S
C194 C177 1.574 1_655 S
C194 H188 0.949 . S
C194 C198 1.368 . S
C195 C176 1.429 . S
C195 C189 1.429 . S
C195 C196 1.523 . S
C196 C177 1.368 . S
C196 C190 1.368 . S
C196 C195 1.523 . S
C197 C181 1.429 . S
C197 C193 1.429 . S
C197 C198 1.523 . S
C198 C182 1.368 . S
C198 C194 1.368 . S
C198 C197 1.523 . S
H199 C174 0.950 . S
H200 C176 0.950 . S
H201 C177 0.949 . S
H202 C179 0.950 . S
H203 C181 0.950 . S
C204 C205 1.349 . S
C204 C206 1.327 . S
C204 H229 0.950 . S
C205 C204 1.349 . S
C205 C221 1.349 . S
C206 C204 1.327 . S
C206 C225 1.429 . S
C206 H230 0.950 . S
C207 C224 1.574 1_565 S
C207 C226 1.368 . S
C207 H231 0.949 . S
H208 C212 0.949 . S
C209 C210 1.349 . S
C209 C211 1.327 . S
C209 H232 0.950 . S
C210 C209 1.349 . S
C210 C222 1.349 . S
C211 C209 1.327 . S
C211 C227 1.429 . S
C211 H233 0.950 . S
C212 H208 0.949 . S
C212 C220 1.574 1_545 S
C212 C228 1.368 . S
H213 C221 0.950 . S
H214 C219 0.950 . S
H215 C220 0.949 . S
H216 C222 0.950 . S
H217 C223 0.950 . S
H218 C224 0.949 . S
C219 H214 0.950 . S
C219 C221 1.327 . S
C219 C225 1.429 . S
C220 C212 1.574 1_565 S
C220 H215 0.949 . S
C220 C226 1.368 . S
C221 C205 1.349 . S
C221 H213 0.950 . S
C221 C219 1.327 . S
C222 C210 1.349 . S
C222 H216 0.950 . S
C222 C223 1.327 . S
C223 H217 0.950 . S
C223 C222 1.327 . S
C223 C227 1.429 . S
C224 C207 1.574 1_545 S
C224 H218 0.949 . S
C224 C228 1.368 . S
C225 C206 1.429 . S
C225 C219 1.429 . S
C225 C226 1.523 . S
C226 C207 1.368 . S
C226 C220 1.368 . S
C226 C225 1.523 . S
C227 C211 1.429 . S
C227 C223 1.429 . S
C227 C228 1.523 . S
C228 C212 1.368 . S
C228 C224 1.368 . S
C228 C227 1.523 . S
H229 C204 0.950 . S
H230 C206 0.950 . S
H231 C207 0.949 . S
H232 C209 0.950 . S
H233 C211 0.950 . S
C234 C235 1.349 . S
C234 C236 1.327 . S
C234 H259 0.950 . S
C235 C234 1.349 . S
C235 C251 1.349 . S
C236 C234 1.327 . S
C236 C255 1.429 . S
C236 H260 0.950 . S
C237 C254 1.574 . S
C237 C256 1.368 . S
C237 H261 0.949 . S
H238 C242 0.949 . S
C239 C240 1.349 . S
C239 C241 1.327 . S
C239 H262 0.950 . S
C240 C239 1.349 . S
C240 C252 1.349 . S
C241 C239 1.327 . S
C241 C257 1.429 . S
C241 H263 0.950 . S
C242 H238 0.949 . S
C242 C250 1.574 . S
C242 C258 1.368 . S
H243 C251 0.950 . S
H244 C249 0.950 . S
H245 C250 0.949 . S
H246 C252 0.950 . S
H247 C253 0.950 . S
H248 C254 0.949 . S
C249 H244 0.950 . S
C249 C251 1.327 . S
C249 C255 1.429 . S
C250 C242 1.574 . S
C250 H245 0.949 . S
C250 C256 1.368 . S
C251 C235 1.349 . S
C251 H243 0.950 . S
C251 C249 1.327 . S
C252 C240 1.349 . S
C252 H246 0.950 . S
C252 C253 1.327 . S
C253 H247 0.950 . S
C253 C252 1.327 . S
C253 C257 1.429 . S
C254 C237 1.574 . S
C254 H248 0.949 . S
C254 C258 1.368 . S
C255 C236 1.429 . S
C255 C249 1.429 . S
C255 C256 1.523 . S
C256 C237 1.368 . S
C256 C250 1.368 . S
C256 C255 1.523 . S
C257 C241 1.429 . S
C257 C253 1.429 . S
C257 C258 1.523 . S
C258 C242 1.368 . S
C258 C254 1.368 . S
C258 C257 1.523 . S
H259 C234 0.950 . S
H260 C236 0.950 . S
H261 C237 0.949 . S
H262 C239 0.950 . S
H263 C241 0.950 . S
C264 C265 1.349 . S
C264 C266 1.327 . S
C264 H289 0.950 . S
C265 C264 1.349 . S
C265 C281 1.349 . S
C266 C264 1.327 . S
C266 C285 1.429 . S
C266 H290 0.950 . S
C267 C284 1.574 1_556 S
C267 C286 1.368 . S
C267 H291 0.949 . S
H268 C272 0.949 . S
C269 C270 1.349 . S
C269 C271 1.327 . S
C269 H292 0.950 . S
C270 C269 1.349 . S
C270 C282 1.349 . S
C271 C269 1.327 . S
C271 C287 1.429 . S
C271 H293 0.950 . S
C272 H268 0.949 . S
C272 C280 1.574 1_554 S
C272 C288 1.368 . S
H273 C281 0.950 . S
H274 C279 0.950 . S
H275 C280 0.949 . S
H276 C282 0.950 . S
H277 C283 0.950 . S
H278 C284 0.949 . S
C279 H274 0.950 . S
C279 C281 1.327 . S
C279 C285 1.429 . S
C280 C272 1.574 1_556 S
C280 H275 0.949 . S
C280 C286 1.368 . S
C281 C265 1.349 . S
C281 H273 0.950 . S
C281 C279 1.327 . S
C282 C270 1.349 . S
C282 H276 0.950 . S
C282 C283 1.327 . S
C283 H277 0.950 . S
C283 C282 1.327 . S
C283 C287 1.429 . S
C284 C267 1.574 1_554 S
C284 H278 0.949 . S
C284 C288 1.368 . S
C285 C266 1.429 . S
C285 C279 1.429 . S
C285 C286 1.523 . S
C286 C267 1.368 . S
C286 C280 1.368 . S
C286 C285 1.523 . S
C287 C271 1.429 . S
C287 C283 1.429 . S
C287 C288 1.523 . S
C288 C272 1.368 . S
C288 C284 1.368 . S
C288 C287 1.523 . S
H289 C264 0.950 . S
H290 C266 0.950 . S
H291 C267 0.949 . S
H292 C269 0.950 . S
H293 C271 0.950 . S
C294 C295 1.349 . S
C294 C296 1.327 . S
C294 H319 0.950 . S
C295 C294 1.349 . S
C295 C311 1.349 . S
C296 C294 1.327 . S
C296 C315 1.429 . S
C296 H320 0.950 . S
C297 C314 1.574 . S
C297 C316 1.368 . S
C297 H321 0.949 . S
H298 C302 0.949 . S
C299 C300 1.349 . S
C299 C301 1.327 . S
C299 H322 0.950 . S
C300 C299 1.349 . S
C300 C312 1.349 . S
C301 C299 1.327 . S
C301 C317 1.429 . S
C301 H323 0.950 . S
C302 H298 0.949 . S
C302 C310 1.574 . S
C302 C318 1.368 . S
H303 C311 0.950 . S
H304 C309 0.950 . S
H305 C310 0.949 . S
H306 C312 0.950 . S
H307 C313 0.950 . S
H308 C314 0.949 . S
C309 H304 0.950 . S
C309 C311 1.327 . S
C309 C315 1.429 . S
C310 C302 1.574 . S
C310 H305 0.949 . S
C310 C316 1.368 . S
C311 C295 1.349 . S
C311 H303 0.950 . S
C311 C309 1.327 . S
C312 C300 1.349 . S
C312 H306 0.950 . S
C312 C313 1.327 . S
C313 H307 0.950 . S
C313 C312 1.327 . S
C313 C317 1.429 . S
C314 C297 1.574 . S
C314 H308 0.949 . S
C314 C318 1.368 . S
C315 C296 1.429 . S
C315 C309 1.429 . S
C315 C316 1.523 . S
C316 C297 1.368 . S
C316 C310 1.368 . S
C316 C315 1.523 . S
C317 C301 1.429 . S
C317 C313 1.429 . S
C317 C318 1.523 . S
C318 C302 1.368 . S
C318 C314 1.368 . S
C318 C317 1.523 . S
H319 C294 0.950 . S
H320 C296 0.950 . S
H321 C297 0.949 . S
H322 C299 0.950 . S
H323 C301 0.950 . S
C324 C325 1.349 . S
C324 C326 1.327 . S
C324 H349 0.950 . S
C325 C324 1.349 . S
C325 C341 1.349 . S
C326 C324 1.327 . S
C326 C345 1.429 . S
C326 H350 0.950 . S
C327 C344 1.574 . S
C327 C346 1.368 . S
C327 H351 0.949 . S
H328 C332 0.949 . S
C329 C330 1.349 . S
C329 C331 1.327 . S
C329 H352 0.950 . S
C330 C329 1.349 . S
C330 C342 1.349 . S
C331 C329 1.327 . S
C331 C347 1.429 . S
C331 H353 0.950 . S
C332 H328 0.949 . S
C332 C340 1.574 . S
C332 C348 1.368 . S
H333 C341 0.950 . S
H334 C339 0.950 . S
H335 C340 0.949 . S
H336 C342 0.950 . S
H337 C343 0.950 . S
H338 C344 0.949 . S
C339 H334 0.950 . S
C339 C341 1.327 . S
C339 C345 1.429 . S
C340 C332 1.574 . S
C340 H335 0.949 . S
C340 C346 1.368 . S
C341 C325 1.349 . S
C341 H333 0.950 . S
C341 C339 1.327 . S
C342 C330 1.349 . S
C342 H336 0.950 . S
C342 C343 1.327 . S
C343 H337 0.950 . S
C343 C342 1.327 . S
C343 C347 1.429 . S
C344 C327 1.574 . S
C344 H338 0.949 . S
C344 C348 1.368 . S
C345 C326 1.429 . S
C345 C339 1.429 . S
C345 C346 1.523 . S
C346 C327 1.368 . S
C346 C340 1.368 . S
C346 C345 1.523 . S
C347 C331 1.429 . S
C347 C343 1.429 . S
C347 C348 1.523 . S
C348 C332 1.368 . S
C348 C344 1.368 . S
C348 C347 1.523 . S
H349 C324 0.950 . S
H350 C326 0.950 . S
H351 C327 0.949 . S
H352 C329 0.950 . S
H353 C331 0.950 . S
C354 C355 1.349 . S
C354 C356 1.327 . S
C354 H379 0.950 . S
C355 C354 1.349 . S
C355 C371 1.349 . S
C356 C354 1.327 . S
C356 C375 1.429 . S
C356 H380 0.950 . S
C357 C374 1.574 1_556 S
C357 C376 1.368 . S
C357 H381 0.949 . S
H358 C362 0.949 . S
C359 C360 1.349 . S
C359 C361 1.327 . S
C359 H382 0.950 . S
C360 C359 1.349 . S
C360 C372 1.349 . S
C361 C359 1.327 . S
C361 C377 1.429 . S
C361 H383 0.950 . S
C362 H358 0.949 . S
C362 C370 1.574 1_554 S
C362 C378 1.368 . S
H363 C371 0.950 . S
H364 C369 0.950 . S
H365 C370 0.949 . S
H366 C372 0.950 . S
H367 C373 0.950 . S
H368 C374 0.949 . S
C369 H364 0.950 . S
C369 C371 1.327 . S
C369 C375 1.429 . S
C370 C362 1.574 1_556 S
C370 H365 0.949 . S
C370 C376 1.368 . S
C371 C355 1.349 . S
C371 H363 0.950 . S
C371 C369 1.327 . S
C372 C360 1.349 . S
C372 H366 0.950 . S
C372 C373 1.327 . S
C373 H367 0.950 . S
C373 C372 1.327 . S
C373 C377 1.429 . S
C374 C357 1.574 1_554 S
C374 H368 0.949 . S
C374 C378 1.368 . S
C375 C356 1.429 . S
C375 C369 1.429 . S
C375 C376 1.523 . S
C376 C357 1.368 . S
C376 C370 1.368 . S
C376 C375 1.523 . S
C377 C361 1.429 . S
C377 C373 1.429 . S
C377 C378 1.523 . S
C378 C362 1.368 . S
C378 C374 1.368 . S
C378 C377 1.523 . S
H379 C354 0.950 . S
H380 C356 0.950 . S
H381 C357 0.949 . S
H382 C359 0.950 . S
H383 C361 0.950 . S
C384 C385 1.349 . S
C384 C386 1.327 . S
C384 H409 0.950 . S
C385 C384 1.349 . S
C385 C401 1.349 . S
C386 C384 1.327 . S
C386 C405 1.429 . S
C386 H410 0.950 . S
C387 C404 1.574 . S
C387 C406 1.368 . S
C387 H411 0.949 . S
H388 C392 0.949 . S
C389 C390 1.349 . S
C389 C391 1.327 . S
C389 H412 0.950 . S
C390 C389 1.349 . S
C390 C402 1.349 . S
C391 C389 1.327 . S
C391 C407 1.429 . S
C391 H413 0.950 . S
C392 H388 0.949 . S
C392 C400 1.574 . S
C392 C408 1.368 . S
H393 C401 0.950 . S
H394 C399 0.950 . S
H395 C400 0.949 . S
H396 C402 0.950 . S
H397 C403 0.950 . S
H398 C404 0.949 . S
C399 H394 0.950 . S
C399 C401 1.327 . S
C399 C405 1.429 . S
C400 C392 1.574 . S
C400 H395 0.949 . S
C400 C406 1.368 . S
C401 C385 1.349 . S
C401 H393 0.950 . S
C401 C399 1.327 . S
C402 C390 1.349 . S
C402 H396 0.950 . S
C402 C403 1.327 . S
C403 H397 0.950 . S
C403 C402 1.327 . S
C403 C407 1.429 . S
C404 C387 1.574 . S
C404 H398 0.949 . S
C404 C408 1.368 . S
C405 C386 1.429 . S
C405 C399 1.429 . S
C405 C406 1.523 . S
C406 C387 1.368 . S
C406 C400 1.368 . S
C406 C405 1.523 . S
C407 C391 1.429 . S
C407 C403 1.429 . S
C407 C408 1.523 . S
C408 C392 1.368 . S
C408 C404 1.368 . S
C408 C407 1.523 . S
H409 C384 0.950 . S
H410 C386 0.950 . S
H411 C387 0.949 . S
H412 C389 0.950 . S
H413 C391 0.950 . S
C414 C415 1.349 . S
C414 C416 1.327 . S
C414 H439 0.950 . S
C415 C414 1.349 . S
C415 C431 1.349 . S
C416 C414 1.327 . S
C416 C435 1.429 . S
C416 H440 0.950 . S
C417 C434 1.574 . S
C417 C436 1.368 . S
C417 H441 0.949 . S
H418 C422 0.949 . S
C419 C420 1.349 . S
C419 C421 1.327 . S
C419 H442 0.950 . S
C420 C419 1.349 . S
C420 C432 1.349 . S
C421 C419 1.327 . S
C421 C437 1.429 . S
C421 H443 0.950 . S
C422 H418 0.949 . S
C422 C430 1.574 . S
C422 C438 1.368 . S
H423 C431 0.950 . S
H424 C429 0.950 . S
H425 C430 0.949 . S
H426 C432 0.950 . S
H427 C433 0.950 . S
H428 C434 0.949 . S
C429 H424 0.950 . S
C429 C431 1.327 . S
C429 C435 1.429 . S
C430 C422 1.574 . S
C430 H425 0.949 . S
C430 C436 1.368 . S
C431 C415 1.349 . S
C431 H423 0.950 . S
C431 C429 1.327 . S
C432 C420 1.349 . S
C432 H426 0.950 . S
C432 C433 1.327 . S
C433 H427 0.950 . S
C433 C432 1.327 . S
C433 C437 1.429 . S
C434 C417 1.574 . S
C434 H428 0.949 . S
C434 C438 1.368 . S
C435 C416 1.429 . S
C435 C429 1.429 . S
C435 C436 1.523 . S
C436 C417 1.368 . S
C436 C430 1.368 . S
C436 C435 1.523 . S
C437 C421 1.429 . S
C437 C433 1.429 . S
C437 C438 1.523 . S
C438 C422 1.368 . S
C438 C434 1.368 . S
C438 C437 1.523 . S
H439 C414 0.950 . S
H440 C416 0.950 . S
H441 C417 0.949 . S
H442 C419 0.950 . S
H443 C421 0.950 . S
C85 C7 1.134 . S
C90 C49 1.134 . S
C115 C21 1.134 . S
C120 C63 1.134 . S
C145 C35 1.134 . S
C150 C77 1.134 . S
C175 C22 1.799 . S
C180 C64 1.799 . S
C205 C78 1.799 . S
C210 C36 1.799 . S
C235 C50 1.799 . S
C240 C8 1.799 . S
C265 C34 1.264 . S
C270 C9 1.194 . S
C295 C48 1.264 . S
C300 C23 1.194 . S
C325 C37 1.194 . S
C330 C62 1.264 . S
C355 C76 1.264 . S
C360 C51 1.194 . S
C385 C65 1.194 . S
C390 C6 1.264 . S
C415 C79 1.194 . S
C420 C20 1.264 . S
