# Generated by pormake.
# Topology lcy-a, (4)-cn, num edge types: 1
# Building blocks:
#     Node 0, Type 0, BuildingBlock: CEKHIL_clean_sbu_0, # of connection points: 4
#     Node 1, Type 0, BuildingBlock: CEKHIL_clean_sbu_0, # of connection points: 4
#     Node 2, Type 0, BuildingBlock: CEKHIL_clean_sbu_0, # of connection points: 4
#     Node 3, Type 0, BuildingBlock: CEKHIL_clean_sbu_0, # of connection points: 4
#     Node 4, Type 0, BuildingBlock: CEKHIL_clean_sbu_0, # of connection points: 4
#     Node 5, Type 0, BuildingBlock: CEKHIL_clean_sbu_0, # of connection points: 4
#     Node 6, Type 0, BuildingBlock: CEKHIL_clean_sbu_0, # of connection points: 4
#     Node 7, Type 0, BuildingBlock: CEKHIL_clean_sbu_0, # of connection points: 4
#     Node 8, Type 0, BuildingBlock: CEKHIL_clean_sbu_0, # of connection points: 4
#     Node 9, Type 0, BuildingBlock: CEKHIL_clean_sbu_0, # of connection points: 4
#     Node 10, Type 0, BuildingBlock: CEKHIL_clean_sbu_0, # of connection points: 4
#     Node 11, Type 0, BuildingBlock: CEKHIL_clean_sbu_0, # of connection points: 4
#     Node 12, Type 0, BuildingBlock: CEKHIL_clean_sbu_0, # of connection points: 4
#     Node 13, Type 0, BuildingBlock: CEKHIL_clean_sbu_0, # of connection points: 4
#     Node 14, Type 0, BuildingBlock: CEKHIL_clean_sbu_0, # of connection points: 4
#     Node 15, Type 0, BuildingBlock: CEKHIL_clean_sbu_0, # of connection points: 4
#     Node 16, Type 0, BuildingBlock: CEKHIL_clean_sbu_0, # of connection points: 4
#     Node 17, Type 0, BuildingBlock: CEKHIL_clean_sbu_0, # of connection points: 4
#     Node 18, Type 0, BuildingBlock: CEKHIL_clean_sbu_0, # of connection points: 4
#     Node 19, Type 0, BuildingBlock: CEKHIL_clean_sbu_0, # of connection points: 4
#     Node 20, Type 0, BuildingBlock: CEKHIL_clean_sbu_0, # of connection points: 4
#     Node 21, Type 0, BuildingBlock: CEKHIL_clean_sbu_0, # of connection points: 4
#     Node 22, Type 0, BuildingBlock: CEKHIL_clean_sbu_0, # of connection points: 4
#     Node 23, Type 0, BuildingBlock: CEKHIL_clean_sbu_0, # of connection points: 4
#     Edge 24, Type (0, 0), BuildingBlock: MIFKUJ_clean_linker_0, # of connection points: 2
#     Edge 25, Type (0, 0), BuildingBlock: MIFKUJ_clean_linker_0, # of connection points: 2
#     Edge 26, Type (0, 0), BuildingBlock: MIFKUJ_clean_linker_0, # of connection points: 2
#     Edge 27, Type (0, 0), BuildingBlock: MIFKUJ_clean_linker_0, # of connection points: 2
#     Edge 28, Type (0, 0), BuildingBlock: MIFKUJ_clean_linker_0, # of connection points: 2
#     Edge 29, Type (0, 0), BuildingBlock: MIFKUJ_clean_linker_0, # of connection points: 2
#     Edge 30, Type (0, 0), BuildingBlock: MIFKUJ_clean_linker_0, # of connection points: 2
#     Edge 31, Type (0, 0), BuildingBlock: MIFKUJ_clean_linker_0, # of connection points: 2
#     Edge 32, Type (0, 0), BuildingBlock: MIFKUJ_clean_linker_0, # of connection points: 2
#     Edge 33, Type (0, 0), BuildingBlock: MIFKUJ_clean_linker_0, # of connection points: 2
#     Edge 34, Type (0, 0), BuildingBlock: MIFKUJ_clean_linker_0, # of connection points: 2
#     Edge 35, Type (0, 0), BuildingBlock: MIFKUJ_clean_linker_0, # of connection points: 2
#     Edge 36, Type (0, 0), BuildingBlock: MIFKUJ_clean_linker_0, # of connection points: 2
#     Edge 37, Type (0, 0), BuildingBlock: MIFKUJ_clean_linker_0, # of connection points: 2
#     Edge 38, Type (0, 0), BuildingBlock: MIFKUJ_clean_linker_0, # of connection points: 2
#     Edge 39, Type (0, 0), BuildingBlock: MIFKUJ_clean_linker_0, # of connection points: 2
#     Edge 40, Type (0, 0), BuildingBlock: MIFKUJ_clean_linker_0, # of connection points: 2
#     Edge 41, Type (0, 0), BuildingBlock: MIFKUJ_clean_linker_0, # of connection points: 2
#     Edge 42, Type (0, 0), BuildingBlock: MIFKUJ_clean_linker_0, # of connection points: 2
#     Edge 43, Type (0, 0), BuildingBlock: MIFKUJ_clean_linker_0, # of connection points: 2
#     Edge 44, Type (0, 0), BuildingBlock: MIFKUJ_clean_linker_0, # of connection points: 2
#     Edge 45, Type (0, 0), BuildingBlock: MIFKUJ_clean_linker_0, # of connection points: 2
#     Edge 46, Type (0, 0), BuildingBlock: MIFKUJ_clean_linker_0, # of connection points: 2
#     Edge 47, Type (0, 0), BuildingBlock: MIFKUJ_clean_linker_0, # of connection points: 2
#     Edge 48, Type (0, 0), BuildingBlock: MIFKUJ_clean_linker_0, # of connection points: 2
#     Edge 49, Type (0, 0), BuildingBlock: MIFKUJ_clean_linker_0, # of connection points: 2
#     Edge 50, Type (0, 0), BuildingBlock: MIFKUJ_clean_linker_0, # of connection points: 2
#     Edge 51, Type (0, 0), BuildingBlock: MIFKUJ_clean_linker_0, # of connection points: 2
#     Edge 52, Type (0, 0), BuildingBlock: MIFKUJ_clean_linker_0, # of connection points: 2
#     Edge 53, Type (0, 0), BuildingBlock: MIFKUJ_clean_linker_0, # of connection points: 2
#     Edge 54, Type (0, 0), BuildingBlock: MIFKUJ_clean_linker_0, # of connection points: 2
#     Edge 55, Type (0, 0), BuildingBlock: MIFKUJ_clean_linker_0, # of connection points: 2
#     Edge 56, Type (0, 0), BuildingBlock: MIFKUJ_clean_linker_0, # of connection points: 2
#     Edge 57, Type (0, 0), BuildingBlock: MIFKUJ_clean_linker_0, # of connection points: 2
#     Edge 58, Type (0, 0), BuildingBlock: MIFKUJ_clean_linker_0, # of connection points: 2
#     Edge 59, Type (0, 0), BuildingBlock: MIFKUJ_clean_linker_0, # of connection points: 2
#     Edge 60, Type (0, 0), BuildingBlock: MIFKUJ_clean_linker_0, # of connection points: 2
#     Edge 61, Type (0, 0), BuildingBlock: MIFKUJ_clean_linker_0, # of connection points: 2
#     Edge 62, Type (0, 0), BuildingBlock: MIFKUJ_clean_linker_0, # of connection points: 2
#     Edge 63, Type (0, 0), BuildingBlock: MIFKUJ_clean_linker_0, # of connection points: 2
#     Edge 64, Type (0, 0), BuildingBlock: MIFKUJ_clean_linker_0, # of connection points: 2
#     Edge 65, Type (0, 0), BuildingBlock: MIFKUJ_clean_linker_0, # of connection points: 2
#     Edge 66, Type (0, 0), BuildingBlock: MIFKUJ_clean_linker_0, # of connection points: 2
#     Edge 67, Type (0, 0), BuildingBlock: MIFKUJ_clean_linker_0, # of connection points: 2
#     Edge 68, Type (0, 0), BuildingBlock: MIFKUJ_clean_linker_0, # of connection points: 2
#     Edge 69, Type (0, 0), BuildingBlock: MIFKUJ_clean_linker_0, # of connection points: 2
#     Edge 70, Type (0, 0), BuildingBlock: MIFKUJ_clean_linker_0, # of connection points: 2
#     Edge 71, Type (0, 0), BuildingBlock: MIFKUJ_clean_linker_0, # of connection points: 2
# Relax obj value: 0.424
# Max RMSD: 0.177
# Mean RMSD: 0.177
data_MOF--net-lcy-a--node1-CEKHIL_clean_sbu_0--edge1-MIFKUJ_clean_linker_0
_symmetry_space_group_name_H-M    P1
_symmetry_Int_Tables_number       1
_symmetry_cell_setting            triclinic
loop_
_symmetry_equiv_pos_as_xyz
'x, y, z'
_cell_length_a     71.98408
_cell_length_b     71.996771
_cell_length_c     72.010925
_cell_angle_alpha  89.994927
_cell_angle_beta   90.021111
_cell_angle_gamma 90.0217
loop_
_atom_site_label
_atom_site_type_symbol
_atom_site_fract_x
_atom_site_fract_y
_atom_site_fract_z
_atom_type_partial_charge
Co0 Co 0.19935 0.30465 0.4029 0.0
O1 O 0.20343 0.29259 0.42644 0.0
O2 O 0.17602 0.29652 0.41289 0.0
C3 C 0.22237 0.29066 0.38714 0.0
O4 O 0.18957 0.3151 0.37848 0.0
Co5 Co 0.22897 0.33086 0.38578 0.0
O6 O 0.21236 0.33086 0.36396 0.0
C7 C 0.20835 0.3424 0.41904 0.0
C8 C 0.18553 0.29033 0.42694 0.0
C9 C 0.19606 0.324 0.36443 0.0
O10 O 0.19672 0.3291 0.41638 0.0
O11 O 0.22299 0.34453 0.4092 0.0
O12 O 0.2066 0.28219 0.3896 0.0
O13 O 0.22429 0.30625 0.39583 0.0
Co14 Co 0.96412 0.95552 0.65963 0.0
O15 O 0.97279 0.9492 0.68393 0.0
O16 O 0.95692 0.93036 0.66537 0.0
C17 C 0.99067 0.96878 0.64976 0.0
O18 O 0.95361 0.95692 0.63342 0.0
Co19 Co 0.96172 0.99676 0.64713 0.0
O20 O 0.95801 0.98571 0.62219 0.0
C21 C 0.93608 0.98205 0.67554 0.0
C22 C 0.96518 0.93307 0.68121 0.0
C23 C 0.95351 0.96873 0.62 0.0
O24 O 0.94052 0.96535 0.67102 0.0
O25 O 0.94415 0.99637 0.66873 0.0
O26 O 0.98878 0.95083 0.64906 0.0
O27 O 0.97733 0.97765 0.65775 0.0
Co28 Co 0.28988 0.72948 0.88515 0.0
O29 O 0.29272 0.74467 0.90672 0.0
O30 O 0.31398 0.72503 0.89614 0.0
C31 C 0.27808 0.75171 0.86673 0.0
O32 O 0.29166 0.71215 0.86277 0.0
Co33 Co 0.24995 0.72235 0.87017 0.0
O34 O 0.26387 0.71284 0.84842 0.0
C35 C 0.26197 0.70505 0.90512 0.0
C36 C 0.30893 0.73708 0.90866 0.0
C37 C 0.28101 0.70837 0.84888 0.0
O38 O 0.27886 0.70936 0.90123 0.0
O39 O 0.24814 0.71036 0.89526 0.0
O40 O 0.29595 0.75062 0.86903 0.0
O41 O 0.26823 0.7408 0.87696 0.0
Co42 Co 0.51814 0.04939 0.15525 0.0
O43 O 0.5053 0.06088 0.1754 0.0
O44 O 0.52793 0.07411 0.159 0.0
C45 C 0.49303 0.0373 0.14116 0.0
O46 O 0.53373 0.0421 0.13297 0.0
Co47 Co 0.51725 0.00652 0.15094 0.0
O48 O 0.52847 0.01205 0.12628 0.0
C49 C 0.53858 0.02344 0.18115 0.0
C50 C 0.51609 0.07504 0.17261 0.0
C51 C 0.53537 0.02788 0.12229 0.0
O52 O 0.53725 0.03932 0.17312 0.0
O53 O 0.52992 0.00893 0.17565 0.0
O54 O 0.49752 0.05456 0.13814 0.0
O55 O 0.50257 0.02885 0.15369 0.0
Co56 Co 0.71353 0.21759 0.58078 0.0
O57 O 0.71144 0.2302 0.55747 0.0
O58 O 0.68869 0.21463 0.57134 0.0
C59 C 0.72848 0.24007 0.59641 0.0
O60 O 0.7105 0.20355 0.60511 0.0
Co61 Co 0.75278 0.20729 0.59551 0.0
O62 O 0.73883 0.19864 0.6176 0.0
C63 C 0.73776 0.18876 0.56255 0.0
C64 C 0.69443 0.2242 0.55713 0.0
C65 C 0.72115 0.19775 0.61823 0.0
O66 O 0.7215 0.19457 0.56701 0.0
O67 O 0.75248 0.19388 0.57111 0.0
O68 O 0.71053 0.24088 0.59449 0.0
O69 O 0.73668 0.22715 0.58709 0.0
Co70 Co 0.01068 0.44788 0.84286 0.0
O71 O 0.00035 0.43231 0.82397 0.0
O72 O 0.02652 0.42659 0.83944 0.0
C73 C 0.98412 0.45352 0.8582 0.0
O74 O 0.02513 0.45994 0.86377 0.0
Co75 Co -0.00062 0.48913 0.84684 0.0
O76 O 0.01287 0.48767 0.87095 0.0
C77 C 0.02457 0.47807 0.81661 0.0
C78 C 0.01471 0.42173 0.82668 0.0
C79 C 0.02398 0.47429 0.87431 0.0
O80 O 0.02557 0.4617 0.82366 0.0
O81 O 0.01372 0.49067 0.82293 0.0
O82 O 0.99321 0.4382 0.86126 0.0
O83 O 0.99034 0.46379 0.8449 0.0
Co84 Co 0.79345 0.77469 0.08753 0.0
O85 O 0.79871 0.76656 0.06281 0.0
O86 O 0.81862 0.78138 0.08116 0.0
C87 C 0.77976 0.74832 0.09728 0.0
O88 O 0.79291 0.78469 0.11404 0.0
Co89 Co 0.7525 0.77777 0.10106 0.0
O90 O 0.76456 0.77885 0.12573 0.0
C91 C 0.76775 0.80585 0.07547 0.0
C92 C 0.81504 0.77384 0.06512 0.0
C93 C 0.78147 0.78371 0.12776 0.0
O94 O 0.78408 0.79884 0.07704 0.0
O95 O 0.75324 0.799 0.08313 0.0
O96 O 0.79778 0.74968 0.0974 0.0
O97 O 0.77104 0.76202 0.08972 0.0
Co98 Co 0.46274 0.53734 0.3379 0.0
O99 O 0.47137 0.54366 0.31354 0.0
O100 O 0.45761 0.56317 0.333 0.0
C101 C 0.48845 0.52183 0.34654 0.0
O102 O 0.45272 0.53598 0.36442 0.0
Co103 Co 0.45763 0.49635 0.35027 0.0
O104 O 0.45937 0.50751 0.37538 0.0
C105 C 0.42962 0.51412 0.32598 0.0
C106 C 0.46547 0.56034 0.31697 0.0
C107 C 0.45476 0.52439 0.37788 0.0
O108 O 0.43805 0.52983 0.32714 0.0
O109 O 0.43552 0.49915 0.33354 0.0
O110 O 0.48793 0.53984 0.34779 0.0
O111 O 0.4742 0.51415 0.33884 0.0
Co112 Co 0.41104 0.19753 0.27937 0.0
O113 O 0.42797 0.17971 0.26976 0.0
O114 O 0.41161 0.17608 0.29571 0.0
C115 C 0.39666 0.20474 0.25265 0.0
O116 O 0.39152 0.21295 0.29264 0.0
Co117 Co 0.41502 0.2384 0.26597 0.0
O118 O 0.39086 0.24113 0.27907 0.0
C119 C 0.44203 0.22346 0.29229 0.0
C120 C 0.42395 0.16969 0.28415 0.0
C121 C 0.38423 0.22909 0.29024 0.0
O122 O 0.4316 0.20913 0.29448 0.0
O123 O 0.43893 0.23593 0.28003 0.0
O124 O 0.39174 0.18993 0.26178 0.0
O125 O 0.41151 0.21282 0.25855 0.0
Co126 Co 0.04982 0.1511 0.53689 0.0
O127 O 0.05405 0.17388 0.52368 0.0
O128 O 0.07546 0.15835 0.53948 0.0
C129 C 0.03319 0.13717 0.51433 0.0
O130 O 0.0512 0.12685 0.55142 0.0
Co131 Co 0.01005 0.13766 0.54723 0.0
O132 O 0.02268 0.11417 0.55373 0.0
C133 C 0.02728 0.16865 0.56786 0.0
C134 C 0.07114 0.17267 0.52936 0.0
C135 C 0.04023 0.11344 0.55574 0.0
O136 O 0.04294 0.16591 0.55969 0.0
O137 O 0.01244 0.15963 0.56405 0.0
O138 O 0.05125 0.13689 0.51366 0.0
O139 O 0.02606 0.14678 0.52763 0.0
Co140 Co 0.09023 0.78967 0.79427 0.0
O141 O 0.06793 0.78732 0.77961 0.0
O142 O 0.07753 0.81299 0.79377 0.0
C143 C 0.10969 0.77484 0.77479 0.0
O144 O 0.11248 0.79812 0.80947 0.0
Co145 Co 0.11051 0.75515 0.81032 0.0
O146 O 0.12956 0.77338 0.81796 0.0
C147 C 0.07527 0.7673 0.82685 0.0
C148 C 0.06513 0.80471 0.78361 0.0
C149 C 0.12689 0.79085 0.81707 0.0
O150 O 0.07574 0.78224 0.81709 0.0
O151 O 0.08713 0.75417 0.8252 0.0
O152 O 0.10534 0.79212 0.77179 0.0
O153 O 0.1007 0.76675 0.78804 0.0
Co154 Co 0.45776 0.83595 0.03357 0.0
O155 O 0.45217 0.81153 0.02452 0.0
O156 O 0.43262 0.82948 0.04016 0.0
C157 C 0.47103 0.84652 0.0073 0.0
O158 O 0.45839 0.86217 0.04441 0.0
Co159 Co 0.49848 0.8499 0.03661 0.0
O160 O 0.48631 0.87455 0.03792 0.0
C161 C 0.48373 0.82365 0.06452 0.0
C162 C 0.43575 0.81389 0.03158 0.0
C163 C 0.46951 0.87615 0.04323 0.0
O164 O 0.46739 0.82483 0.05739 0.0
O165 O 0.49802 0.83177 0.05774 0.0
O166 O 0.45305 0.84654 0.00897 0.0
O167 O 0.48004 0.83863 0.02065 0.0
Co168 Co 0.90985 0.30148 0.70972 0.0
O169 O 0.93482 0.30097 0.71874 0.0
O170 O 0.92151 0.3252 0.70502 0.0
C171 C 0.89671 0.28845 0.73478 0.0
O172 O 0.88417 0.30693 0.69904 0.0
Co173 Co 0.88941 0.26402 0.70298 0.0
O174 O 0.8675 0.28047 0.70077 0.0
C175 C 0.91979 0.27546 0.6782 0.0
C176 C 0.93621 0.31781 0.71252 0.0
C177 C 0.86877 0.29791 0.69809 0.0
O178 O 0.91924 0.29184 0.68526 0.0
O179 O 0.90989 0.26194 0.68417 0.0
O180 O 0.90017 0.30616 0.73473 0.0
O181 O 0.9028 0.27916 0.72073 0.0
Co182 Co 0.96279 0.64316 0.97536 0.0
O183 O 0.96005 0.66754 0.9856 0.0
O184 O 0.93737 0.65103 0.9727 0.0
C185 C 0.97993 0.63163 -0.00124 0.0
O186 O 0.96037 0.61731 0.96413 0.0
Co187 Co 0.00176 0.62798 0.96498 0.0
O188 O 0.98851 0.60382 0.96471 0.0
C189 C 0.98414 0.65681 0.94176 0.0
C190 C 0.9428 0.66641 0.98052 0.0
C191 C 0.97094 0.60297 0.9627 0.0
O192 O 0.96879 0.65451 0.95056 0.0
O193 O -0.00078 0.64847 0.94623 0.0
O194 O 0.96193 0.63212 0.00027 0.0
O195 O 0.98672 0.63938 0.98412 0.0
Co196 Co 0.60349 0.70739 0.22253 0.0
O197 O 0.58087 0.70583 0.23636 0.0
O198 O 0.5922 0.68339 0.21854 0.0
C199 C 0.62028 0.71984 0.24575 0.0
O200 O 0.62674 0.70373 0.20684 0.0
Co201 Co 0.62144 0.7457 0.21458 0.0
O202 O 0.64174 0.73098 0.20335 0.0
C203 C 0.58653 0.73507 0.19608 0.0
C204 C 0.57907 0.68927 0.22949 0.0
C205 C 0.64049 0.7135 0.20098 0.0
O206 O 0.58909 0.71809 0.20101 0.0
O207 O 0.59697 0.74837 0.2016 0.0
O208 O 0.61813 0.70193 0.24487 0.0
O209 O 0.61142 0.72941 0.2335 0.0
Co210 Co 0.53569 0.34158 0.47009 0.0
O211 O 0.54312 0.31809 0.48007 0.0
O212 O 0.5607 0.33618 0.4623 0.0
C213 C 0.52287 0.35278 0.49622 0.0
O214 O 0.53308 0.36687 0.45799 0.0
Co215 Co 0.49402 0.35197 0.46769 0.0
O216 O 0.50379 0.37706 0.46142 0.0
C217 C 0.50936 0.32374 0.44257 0.0
C218 C 0.55877 0.32075 0.47151 0.0
C219 C 0.52067 0.37963 0.45666 0.0
O220 O 0.52582 0.32869 0.44736 0.0
O221 O 0.49467 0.33004 0.45037 0.0
O222 O 0.54074 0.35394 0.49377 0.0
O223 O 0.51385 0.34351 0.48382 0.0
Co224 Co 0.27296 0.3954 0.20708 0.0
O225 O 0.26214 0.41857 0.20002 0.0
O226 O 0.28276 0.40295 0.18325 0.0
C227 C 0.24642 0.38188 0.21639 0.0
O228 O 0.28659 0.37081 0.20979 0.0
Co229 Co 0.27127 0.38241 0.24816 0.0
O230 O 0.27792 0.35809 0.23696 0.0
C231 C 0.29559 0.41359 0.2374 0.0
C232 C 0.27238 0.41763 0.18524 0.0
C233 C 0.28557 0.35696 0.22103 0.0
O234 O 0.29332 0.4094 0.22019 0.0
O235 O 0.28686 0.40542 0.25058 0.0
O236 O 0.25085 0.3817 0.19888 0.0
O237 O 0.2572 0.39134 0.2271 0.0
Co238 Co 0.78214 0.10015 0.79026 0.0
O239 O 0.76646 0.07883 0.7922 0.0
O240 O 0.78269 0.09104 0.81545 0.0
C241 C 0.76173 0.11693 0.77363 0.0
O242 O 0.79914 0.1226 0.79347 0.0
Co243 Co 0.79563 0.11405 0.7518 0.0
O244 O 0.80082 0.13711 0.76585 0.0
C245 C 0.81285 0.08089 0.76873 0.0
C246 C 0.77137 0.07824 0.80951 0.0
C247 C 0.80331 0.1367 0.78334 0.0
O248 O 0.80363 0.08353 0.78376 0.0
O249 O 0.81104 0.09094 0.75417 0.0
O250 O 0.76045 0.11651 0.79164 0.0
O251 O 0.7744 0.10649 0.76646 0.0
Co252 Co 0.17446 0.53373 0.02619 0.0
O253 O 0.19905 0.52401 0.02998 0.0
O254 O 0.18111 0.53614 0.0519 0.0
C255 C 0.16352 0.51026 0.00872 0.0
O256 O 0.14819 0.54404 0.02812 0.0
Co257 Co 0.15926 0.5437 0.98714 0.0
O258 O 0.13492 0.54253 -3e-05 0.0
C259 C 0.18497 0.56945 0.00616 0.0
C260 C 0.19675 0.52835 0.04735 0.0
C261 C 0.13381 0.54448 0.01752 0.0
O262 O 0.18515 0.55908 0.0207 0.0
O263 O 0.1762 0.56535 0.99124 0.0
O264 O 0.16388 0.50873 0.0267 0.0
O265 O 0.17143 0.52488 0.00199 0.0
Co266 Co 0.71304 0.90919 0.2804 0.0
O267 O 0.72561 0.93269 0.27996 0.0
O268 O 0.7108 0.92091 0.3043 0.0
C269 C 0.73541 0.8923 0.26661 0.0
O270 O 0.69935 0.88516 0.28627 0.0
Co271 Co 0.70192 0.89051 0.2431 0.0
O272 O 0.69423 0.86981 0.25948 0.0
C273 C 0.6811 0.92297 0.25616 0.0
C274 C 0.72046 0.93441 0.29716 0.0
C275 C 0.69354 0.87096 0.27713 0.0
O276 O 0.68947 0.92181 0.2719 0.0
O277 O 0.68523 0.91274 0.24224 0.0
O278 O 0.73659 0.89617 0.28419 0.0
O279 O 0.72218 0.90055 0.25771 0.0
Co280 Co 0.33695 0.45507 0.54555 0.0
O281 O 0.31403 0.46879 0.54579 0.0
O282 O 0.3273 0.45569 0.57035 0.0
C283 C 0.35364 0.47477 0.528 0.0
O284 O 0.36072 0.44081 0.55106 0.0
Co285 Co 0.35252 0.43888 0.50874 0.0
O286 O 0.37442 0.43265 0.52413 0.0
C287 C 0.31893 0.42282 0.5254 0.0
C288 C 0.31349 0.46506 0.56344 0.0
C289 C 0.37428 0.43387 0.54177 0.0
O290 O 0.32238 0.43167 0.54051 0.0
O291 O 0.32845 0.42503 0.51055 0.0
O292 O 0.35146 0.47803 0.54563 0.0
O293 O 0.34402 0.46114 0.52137 0.0
Co294 Co 0.20485 0.58311 0.71177 0.0
O295 O 0.21141 0.55785 0.70658 0.0
O296 O 0.19795 0.57704 0.68659 0.0
C297 C 0.23195 0.5909 0.72543 0.0
O298 O 0.19669 0.61024 0.71188 0.0
Co299 Co 0.20267 0.59791 0.75222 0.0
O300 O 0.20423 0.62238 0.73966 0.0
C301 C 0.17302 0.57344 0.73766 0.0
C302 C 0.20479 0.56068 0.69005 0.0
C303 C 0.19937 0.62416 0.72276 0.0
O304 O 0.17993 0.57452 0.72122 0.0
O305 O 0.18064 0.58083 0.75194 0.0
O306 O 0.23054 0.59103 0.70743 0.0
O307 O 0.21763 0.58469 0.73424 0.0
Co308 Co 0.65081 0.96418 0.95296 0.0
O309 O 0.67383 0.97519 0.94585 0.0
O310 O 0.65546 0.95889 0.92709 0.0
C311 C 0.63959 0.98883 0.96858 0.0
O312 O 0.62586 0.95123 0.95556 0.0
Co313 Co 0.6424 0.95844 0.99501 0.0
O314 O 0.61749 0.95116 0.98567 0.0
C315 C 0.67237 0.93797 0.97648 0.0
C316 C 0.67088 0.96799 0.9296 0.0
C317 C 0.61404 0.94801 0.96857 0.0
O318 O 0.66483 0.94123 0.96065 0.0
O319 O 0.66678 0.94535 0.99164 0.0
O320 O 0.63772 0.98806 0.95062 0.0
O321 O 0.64946 0.97582 0.97585 0.0
Co322 Co 0.84409 0.02372 0.45552 0.0
O323 O 0.82187 0.01197 0.44677 0.0
O324 O 0.84016 0.0302 0.42989 0.0
C325 C 0.85599 -0.00112 0.4703 0.0
O326 O 0.8684 0.03761 0.45942 0.0
Co327 Co 0.85149 0.02809 0.49783 0.0
O328 O 0.876 0.03767 0.48975 0.0
C329 C 0.82213 0.05001 0.47967 0.0
C330 C 0.82518 0.02016 0.43103 0.0
C331 C 0.87961 0.04136 0.47282 0.0
O332 O 0.8288 0.04574 0.46366 0.0
O333 O 0.82816 0.04294 0.49482 0.0
O334 O 0.85825 0.00063 0.45246 0.0
O335 O 0.84534 0.01106 0.47796 0.0
H336 H 0.0663 0.20203 0.50613 0.0
H337 H 0.08943 0.22469 0.49634 0.0
H338 H 0.13017 0.19883 0.53192 0.0
H339 H 0.10709 0.17569 0.54147 0.0
H340 H 0.11007 0.25044 0.51324 0.0
H341 H 0.17247 0.20194 0.51002 0.0
H342 H 0.17981 0.16849 0.50818 0.0
H343 H 0.12893 0.15867 0.47859 0.0
H344 H 0.12143 0.19207 0.48009 0.0
H345 H 0.20176 0.27442 0.45742 0.0
H346 H 0.18616 0.25785 0.48277 0.0
H347 H 0.13306 0.26893 0.45725 0.0
H348 H 0.14844 0.28551 0.4321 0.0
H349 H 0.16513 0.22672 0.4793 0.0
H350 H 0.10006 0.27425 0.48917 0.0
H351 H 0.0928 0.3077 0.4895 0.0
H352 H 0.14927 0.32019 0.50411 0.0
H353 H 0.15683 0.2868 0.50419 0.0
C354 C 0.08015 0.20119 0.51196 0.0
C355 C 0.08496 0.18695 0.52438 0.0
C356 C 0.09333 0.21424 0.50645 0.0
C357 C 0.11156 0.21337 0.51328 0.0
C358 C 0.11624 0.19961 0.52629 0.0
C359 C 0.10305 0.18641 0.53172 0.0
C360 C 0.12574 0.22614 0.5056 0.0
C361 C 0.12214 0.24531 0.50585 0.0
C362 C 0.14188 0.21948 0.49658 0.0
C363 C 0.1463 0.19942 0.49539 0.0
C364 C 0.16289 0.19262 0.5031 0.0
C365 C 0.16707 0.17369 0.50212 0.0
C366 C 0.15481 0.16145 0.49334 0.0
C367 C 0.13838 0.16814 0.48545 0.0
C368 C 0.13415 0.18707 0.48637 0.0
C369 C 0.18675 0.27346 0.45734 0.0
C370 C 0.1763 0.28114 0.44273 0.0
C371 C 0.17788 0.26403 0.47182 0.0
C372 C 0.15846 0.26237 0.47198 0.0
C373 C 0.14804 0.27036 0.45759 0.0
C374 C 0.15686 0.2797 0.44313 0.0
C375 C 0.14893 0.25093 0.48613 0.0
C376 C 0.15341 0.23201 0.48716 0.0
C377 C 0.13357 0.25783 0.49625 0.0
C378 C 0.12903 0.27797 0.49661 0.0
C379 C 0.11091 0.2841 0.49261 0.0
C380 C 0.10675 0.30307 0.49269 0.0
C381 C 0.12057 0.31606 0.4968 0.0
C382 C 0.13858 0.31011 0.50089 0.0
C383 C 0.14282 0.29116 0.50085 0.0
H384 H 0.11732 0.33074 0.49682 0.0
H385 H 0.15806 0.14679 0.49262 0.0
H386 H 0.95853 0.89584 0.677 0.0
H387 H 0.96798 0.87114 0.6985 0.0
H388 H 0.98536 0.91242 0.73829 0.0
H389 H 0.9761 0.93704 0.71701 0.0
H390 H 0.01365 0.88964 0.72449 0.0
H391 H 0.95243 0.88465 0.75029 0.0
H392 H 0.9185 0.88011 0.74963 0.0
H393 H 0.9259 0.82555 0.72673 0.0
H394 H 0.9599 0.82987 0.72698 0.0
H395 H 0.05344 0.83886 0.79438 0.0
H396 H 0.02917 0.85768 0.78015 0.0
H397 H 0.01574 0.81272 0.7429 0.0
H398 H 0.03999 0.79356 0.75732 0.0
H399 H 0.98388 0.83538 0.75487 0.0
H400 H 0.04445 0.84104 0.72706 0.0
H401 H 0.07844 0.8453 0.72736 0.0
H402 H 0.07183 0.8988 0.75286 0.0
H403 H 0.03779 0.89471 0.753 0.0
C404 C 0.96388 0.8996 0.69055 0.0
C405 C 0.96702 0.9183 0.6952 0.0
C406 C 0.96915 0.8855 0.70284 0.0
C407 C 0.97744 0.89004 0.71987 0.0
C408 C 0.97901 0.9087 0.72516 0.0
C409 C 0.97383 0.92273 0.71293 0.0
C410 C 0.98774 0.87588 0.73047 0.0
C411 C 0.00707 0.87793 0.73136 0.0
C412 C 0.97917 0.86026 0.73874 0.0
C413 C 0.95872 0.85768 0.73844 0.0
C414 C 0.94683 0.87177 0.7449 0.0
C415 C 0.92758 0.86921 0.74466 0.0
C416 C 0.92004 0.85258 0.73809 0.0
C417 C 0.93175 0.83845 0.73179 0.0
C418 C 0.95102 0.84094 0.73199 0.0
C419 C 0.04513 0.83283 0.78338 0.0
C420 C 0.04884 0.81491 0.77666 0.0
C421 C 0.03118 0.84354 0.77538 0.0
C422 C 0.02088 0.83661 0.76038 0.0
C423 C 0.02357 0.81824 0.75451 0.0
C424 C 0.0375 0.80741 0.76263 0.0
C425 C 0.00962 0.84954 0.74921 0.0
C426 C 0.99031 0.84715 0.74801 0.0
C427 C 0.01813 0.8649 0.74043 0.0
C428 C 0.03859 0.86748 0.74022 0.0
C429 C 0.05025 0.85364 0.73288 0.0
C430 C 0.06952 0.85603 0.73295 0.0
C431 C 0.07729 0.87229 0.74017 0.0
C432 C 0.0658 0.8862 0.7473 0.0
C433 C 0.04652 0.88386 0.7473 0.0
H434 H 0.09222 0.87412 0.7402 0.0
H435 H 0.90514 0.85062 0.73793 0.0
H436 H 0.34194 0.72122 0.91932 0.0
H437 H 0.36117 0.72994 0.94613 0.0
H438 H 0.32126 0.77203 0.9611 0.0
H439 H 0.30212 0.76352 0.93456 0.0
H440 H 0.35669 0.78531 0.95836 0.0
H441 H 0.32451 0.73465 0.98688 0.0
H442 H 0.3133 0.70243 0.98979 0.0
H443 H 0.36955 0.68275 0.99208 0.0
H444 H 0.38113 0.71485 0.98885 0.0
H445 H 0.3985 0.81842 0.03701 0.0
H446 H 0.3739 0.79989 0.0227 0.0
H447 H 0.41464 0.76061 0.00313 0.0
H448 H 0.43931 0.779 0.01741 0.0
H449 H 0.37758 0.74482 0.01015 0.0
H450 H 0.4092 0.79429 0.97679 0.0
H451 H 0.42107 0.82629 0.97383 0.0
H452 H 0.36571 0.84765 0.98 0.0
H453 H 0.35358 0.81573 0.98337 0.0
C454 C 0.33728 0.73228 0.92839 0.0
C455 C 0.32064 0.7418 0.92477 0.0
C456 C 0.34817 0.73712 0.94375 0.0
C457 C 0.34252 0.75154 0.9556 0.0
C458 C 0.3258 0.76084 0.95212 0.0
C459 C 0.31492 0.75597 0.93691 0.0
C460 C 0.3547 0.75812 0.97073 0.0
C461 C 0.36098 0.77652 0.96983 0.0
C462 C 0.3606 0.74648 0.98543 0.0
C463 C 0.3537 0.72716 0.98741 0.0
C464 C 0.33451 0.72344 0.98781 0.0
C465 C 0.32808 0.7052 0.98955 0.0
C466 C 0.34071 0.69054 0.99106 0.0
C467 C 0.35979 0.69411 0.99088 0.0
C468 C 0.36629 0.71233 0.9891 0.0
C469 C 0.40215 0.80548 0.03027 0.0
C470 C 0.42082 0.8004 0.02785 0.0
C471 C 0.38808 0.79486 0.02219 0.0
C472 C 0.39257 0.7791 0.01163 0.0
C473 C 0.41095 0.77275 0.01121 0.0
C474 C 0.42503 0.7834 0.01922 0.0
C475 C 0.37924 0.772 0.99778 0.0
C476 C 0.37299 0.75357 -0.00122 0.0
C477 C 0.37335 0.78352 0.98301 0.0
C478 C 0.38053 0.80267 0.98055 0.0
C479 C 0.39959 0.80582 0.97765 0.0
C480 C 0.40636 0.82394 0.97589 0.0
C481 C 0.39415 0.839 0.97678 0.0
C482 C 0.37515 0.83597 0.97936 0.0
C483 C 0.36832 0.81787 0.9812 0.0
H484 H 0.39942 0.85302 0.97541 0.0
H485 H 0.3357 0.67643 0.99242 0.0
H486 H 0.54292 0.08419 0.19728 0.0
H487 H 0.53811 0.10251 0.22572 0.0
H488 H 0.48334 0.11748 0.20649 0.0
H489 H 0.48796 0.09886 0.17851 0.0
H490 H 0.50218 0.14617 0.2275 0.0
H491 H 0.48745 0.07797 0.22886 0.0
H492 H 0.49878 0.04573 0.22593 0.0
H493 H 0.53971 0.05601 0.2681 0.0
H494 H 0.52873 0.08839 0.27107 0.0
H495 H 0.42136 0.13677 0.26673 0.0
H496 H 0.44875 0.11846 0.25909 0.0
H497 H 0.48052 0.14862 0.2999 0.0
H498 H 0.45295 0.16694 0.30765 0.0
H499 H 0.48633 0.10061 0.27681 0.0
H500 H 0.49814 0.17024 0.27744 0.0
H501 H 0.48516 0.20201 0.27802 0.0
H502 H 0.45053 0.18897 0.23122 0.0
H503 H 0.46306 0.15702 0.23066 0.0
C504 C 0.53024 0.09215 0.19883 0.0
C505 C 0.51583 0.09042 0.18581 0.0
C506 C 0.52749 0.10248 0.21506 0.0
C507 C 0.51037 0.11126 0.21816 0.0
C508 C 0.4967 0.11093 0.20425 0.0
C509 C 0.49932 0.10034 0.18829 0.0
C510 C 0.50495 0.1179 0.23678 0.0
C511 C 0.49942 0.13643 0.23866 0.0
C512 C 0.5014 0.10517 0.25134 0.0
C513 C 0.50735 0.08554 0.25013 0.0
C514 C 0.49885 0.07331 0.2375 0.0
C515 C 0.50523 0.05505 0.23581 0.0
C516 C 0.51996 0.04883 0.24682 0.0
C517 C 0.5283 0.06085 0.25959 0.0
C518 C 0.52201 0.07915 0.26128 0.0
C519 C 0.43379 0.1385 0.27505 0.0
C520 C 0.43515 0.15318 0.28773 0.0
C521 C 0.44949 0.12808 0.27065 0.0
C522 C 0.4667 0.13251 0.27867 0.0
C523 C 0.46735 0.14506 0.29355 0.0
C524 C 0.45154 0.15542 0.29806 0.0
C525 C 0.48343 0.12887 0.26742 0.0
C526 C 0.49056 0.11078 0.26653 0.0
C527 C 0.48883 0.14211 0.25391 0.0
C528 C 0.48145 0.16131 0.25408 0.0
C529 C 0.48771 0.17417 0.26733 0.0
C530 C 0.48043 0.19218 0.26767 0.0
C531 C 0.46706 0.19751 0.25464 0.0
C532 C 0.46092 0.18483 0.24127 0.0
C533 C 0.46806 0.16677 0.24098 0.0
H534 H 0.46144 0.21144 0.25491 0.0
H535 H 0.5249 0.0347 0.24548 0.0
H536 H 0.65682 0.22017 0.55502 0.0
H537 H 0.63663 0.23003 0.52965 0.0
H538 H 0.68464 0.2461 0.49751 0.0
H539 H 0.70487 0.23677 0.5231 0.0
H540 H 0.66214 0.27364 0.50042 0.0
H541 H 0.65464 0.21129 0.48202 0.0
H542 H 0.64946 0.17761 0.48539 0.0
H543 H 0.59472 0.1878 0.50673 0.0
H544 H 0.59965 0.22154 0.50378 0.0
H545 H 0.59069 0.31917 0.45088 0.0
H546 H 0.61608 0.2967 0.45413 0.0
H547 H 0.58562 0.26868 0.49752 0.0
H548 H 0.56012 0.29051 0.49389 0.0
H549 H 0.60427 0.24404 0.47758 0.0
H550 H 0.61777 0.30476 0.50646 0.0
H551 H 0.62309 0.33861 0.50534 0.0
H552 H 0.66685 0.3307 0.46558 0.0
H553 H 0.66163 0.2968 0.46637 0.0
C554 C 0.66306 0.22551 0.54243 0.0
C555 C 0.68234 0.22806 0.54113 0.0
C556 C 0.65154 0.23093 0.52782 0.0
C557 C 0.65915 0.23865 0.51159 0.0
C558 C 0.6785 0.24015 0.50989 0.0
C559 C 0.69 0.23495 0.52456 0.0
C560 C 0.64684 0.24797 0.49803 0.0
C561 C 0.64979 0.26697 0.49489 0.0
C562 C 0.63067 0.23935 0.49094 0.0
C563 C 0.62755 0.21901 0.49269 0.0
C564 C 0.64153 0.20637 0.48753 0.0
C565 C 0.63863 0.18725 0.48936 0.0
C566 C 0.62177 0.18057 0.49627 0.0
C567 C 0.60777 0.19299 0.50135 0.0
C568 C 0.61059 0.21213 0.49957 0.0
C569 C 0.58938 0.30806 0.46094 0.0
C570 C 0.57362 0.30674 0.47237 0.0
C571 C 0.60382 0.29522 0.46273 0.0
C572 C 0.60282 0.28117 0.47624 0.0
C573 C 0.58667 0.27935 0.48696 0.0
C574 C 0.57217 0.29197 0.485 0.0
C575 C 0.61918 0.26974 0.48107 0.0
C576 C 0.61702 0.2504 0.48248 0.0
C577 C 0.63607 0.27802 0.48676 0.0
C578 C 0.63915 0.29834 0.48628 0.0
C579 C 0.62844 0.31028 0.4974 0.0
C580 C 0.63144 0.32945 0.49684 0.0
C581 C 0.64525 0.33681 0.48534 0.0
C582 C 0.65612 0.32499 0.47443 0.0
C583 C 0.65314 0.30581 0.47493 0.0
H584 H 0.64757 0.35166 0.48493 0.0
H585 H 0.61956 0.16577 0.49768 0.0
H586 H 0.94093 0.35481 0.71856 0.0
H587 H 0.96929 0.36979 0.72942 0.0
H588 H -0.00039 0.31867 0.72114 0.0
H589 H 0.97092 0.30345 0.71126 0.0
H590 H 0.00357 0.32767 0.75403 0.0
H591 H 0.01386 0.36154 0.69995 0.0
H592 H 0.00715 0.3801 0.67198 0.0
H593 H 0.98764 0.42498 0.70601 0.0
H594 H 0.9939 0.40663 0.73417 0.0
H595 H 0.04567 0.41456 0.8064 0.0
H596 H 0.04797 0.39233 0.78047 0.0
H597 H 0.99324 0.37169 0.79361 0.0
H598 H 0.99067 0.39424 0.81882 0.0
H599 H 0.02053 0.39431 0.75102 0.0
H600 H 0.99368 0.32593 0.78653 0.0
H601 H 0.00114 0.30733 0.81425 0.0
H602 H 0.05588 0.33097 0.81586 0.0
H603 H 0.04889 0.34953 0.78796 0.0
C604 C 0.95378 0.34699 0.71853 0.0
C605 C 0.95377 0.32797 0.71452 0.0
C606 C 0.9701 0.35559 0.72454 0.0
C607 C 0.98671 0.34537 0.72611 0.0
C608 C 0.987 0.32681 0.72017 0.0
C609 C 0.9706 0.31812 0.71461 0.0
C610 C 0.0021 0.35277 0.73767 0.0
C611 C 0.00764 0.34213 0.75308 0.0
C612 C 0.00823 0.37139 0.73613 0.0
C613 C 0.00444 0.38266 0.71923 0.0
C614 C 0.00807 0.37533 0.70149 0.0
C615 C 0.00433 0.38583 0.68558 0.0
C616 C 0.997 0.40371 0.68722 0.0
C617 C 0.99338 0.41115 0.70476 0.0
C618 C 0.99708 0.40071 0.72072 0.0
C619 C 0.03445 0.4048 0.80403 0.0
C620 C 0.01801 0.40587 0.81447 0.0
C621 C 0.03576 0.39223 0.78926 0.0
C622 C 0.02085 0.38033 0.7853 0.0
C623 C 0.005 0.38059 0.79665 0.0
C624 C 0.00349 0.39345 0.81098 0.0
C625 C 0.01998 0.36965 0.76787 0.0
C626 C 0.01719 0.37963 0.75138 0.0
C627 C 0.01651 0.35039 0.76829 0.0
C628 C 0.02076 0.33913 0.78507 0.0
C629 C 0.00738 0.32706 0.79266 0.0
C630 C 0.01151 0.31655 0.80846 0.0
C631 C 0.02897 0.31796 0.81681 0.0
C632 C 0.04234 0.32991 0.80939 0.0
C633 C 0.0383 0.34045 0.7936 0.0
H634 H 0.03213 0.30981 0.82904 0.0
H635 H 0.99411 0.41181 0.67489 0.0
H636 H 0.8528 0.77476 0.06846 0.0
H637 H 0.87519 0.7655 0.04468 0.0
H638 H 0.83092 0.76158 0.00442 0.0
H639 H 0.80847 0.77027 0.02827 0.0
H640 H 0.84688 0.72956 0.00928 0.0
H641 H 0.86866 0.79027 0.99676 0.0
H642 H 0.87998 0.82188 0.00348 0.0
H643 H 0.9283 0.79931 0.03017 0.0
H644 H 0.91716 0.76755 0.02389 0.0
H645 H 0.91166 0.67486 0.96065 0.0
H646 H 0.89061 0.70112 0.96568 0.0
H647 H 0.92445 0.71927 0.0118 0.0
H648 H 0.94597 0.69377 0.0061 0.0
H649 H 0.91156 0.74835 0.99497 0.0
H650 H 0.88467 0.68977 0.01656 0.0
H651 H 0.8731 0.65775 0.01255 0.0
H652 H 0.83414 0.67665 0.97151 0.0
H653 H 0.84564 0.70876 0.97516 0.0
C654 C 0.84797 0.77247 0.05439 0.0
C655 C 0.82894 0.77272 0.05024 0.0
C656 C 0.86078 0.76736 0.04075 0.0
C657 C 0.85469 0.76277 0.02278 0.0
C658 C 0.83588 0.76498 0.01821 0.0
C659 C 0.82308 0.7698 0.03187 0.0
C660 C 0.8669 0.75184 0.0104 0.0
C661 C 0.86084 0.73394 0.00563 0.0
C662 C 0.88522 0.75737 0.00603 0.0
C663 C 0.89201 0.77648 0.0099 0.0
C664 C 0.88163 0.79202 0.00419 0.0
C665 C 0.88803 0.80998 0.0079 0.0
C666 C 0.90484 0.8126 0.01725 0.0
C667 C 0.91529 0.79726 0.02291 0.0
C668 C 0.90895 0.77927 0.01924 0.0
C669 C 0.91459 0.68456 0.97177 0.0
C670 C 0.93018 0.68218 0.98323 0.0
C671 C 0.90263 0.69957 0.9746 0.0
C672 C 0.90577 0.71198 0.98934 0.0
C673 C 0.92175 0.70993 0.00031 0.0
C674 C 0.93393 0.69524 0.99718 0.0
C675 C 0.89168 0.72596 0.99469 0.0
C676 C 0.89738 0.74433 0.9981 0.0
C677 C 0.87303 0.72085 0.99817 0.0
C678 C 0.86618 0.70157 0.99594 0.0
C679 C 0.87373 0.68705 0.0066 0.0
C680 C 0.86717 0.6689 0.0044 0.0
C681 C 0.85294 0.66516 0.99173 0.0
C682 C 0.8452 0.67956 0.98127 0.0
C683 C 0.85173 0.69773 0.9834 0.0
H684 H 0.84787 0.6511 0.99006 0.0
H685 H 0.90977 0.82652 0.02011 0.0
H686 H 0.54917 0.69965 0.24996 0.0
H687 H 0.52353 0.6802 0.26041 0.0
H688 H 0.5462 0.63368 0.23026 0.0
H689 H 0.57205 0.65318 0.21956 0.0
H690 H 0.5059 0.63625 0.22962 0.0
H691 H 0.55741 0.63621 0.27273 0.0
H692 H 0.58121 0.65112 0.29234 0.0
H693 H 0.53857 0.6788 0.32351 0.0
H694 H 0.51451 0.66423 0.30388 0.0
H695 H 0.48035 0.5576 0.2824 0.0
H696 H 0.49238 0.58281 0.26337 0.0
H697 H 0.47121 0.6228 0.30267 0.0
H698 H 0.45938 0.59749 0.32206 0.0
H699 H 0.50735 0.62659 0.29786 0.0
H700 H 0.45537 0.62188 0.25752 0.0
H701 H 0.43201 0.60644 0.2378 0.0
H702 H 0.47509 0.58696 0.20149 0.0
H703 H 0.49876 0.60205 0.22113 0.0
C704 C 0.54864 0.68534 0.24535 0.0
C705 C 0.56279 0.67782 0.23421 0.0
C706 C 0.53391 0.6743 0.25125 0.0
C707 C 0.53312 0.65553 0.24621 0.0
C708 C 0.54661 0.64819 0.23422 0.0
C709 C 0.56141 0.65928 0.22827 0.0
C710 C 0.51954 0.64318 0.2553 0.0
C711 C 0.50619 0.63398 0.24451 0.0
C712 C 0.51976 0.6407 0.27476 0.0
C713 C 0.53418 0.64931 0.28671 0.0
C714 C 0.55312 0.64559 0.28367 0.0
C715 C 0.56665 0.65396 0.29481 0.0
C716 C 0.56141 0.66595 0.30913 0.0
C717 C 0.54261 0.66954 0.31239 0.0
C718 C 0.52902 0.66122 0.30127 0.0
C719 C 0.47786 0.57177 0.2868 0.0
C720 C 0.46921 0.57559 0.30386 0.0
C721 C 0.48459 0.58619 0.27579 0.0
C722 C 0.48267 0.60469 0.28159 0.0
C723 C 0.47283 0.60859 0.29797 0.0
C724 C 0.46609 0.59414 0.30902 0.0
C725 C 0.49354 0.61941 0.27225 0.0
C726 C 0.50663 0.62904 0.283 0.0
C727 C 0.49305 0.62214 0.25278 0.0
C728 C 0.47887 0.61302 0.24089 0.0
C729 C 0.45989 0.61418 0.24541 0.0
C730 C 0.44659 0.60551 0.23423 0.0
C731 C 0.45207 0.5957 0.21842 0.0
C732 C 0.47087 0.59456 0.21374 0.0
C733 C 0.48423 0.6032 0.22488 0.0
H734 H 0.44175 0.589 0.20978 0.0
H735 H 0.5719 0.67242 0.31774 0.0
H736 H 0.26007 0.45266 0.19076 0.0
H737 H 0.25461 0.47646 0.16735 0.0
H738 H 0.27804 0.44084 0.12531 0.0
H739 H 0.28384 0.41682 0.1489 0.0
H740 H 0.2844 0.48224 0.12079 0.0
H741 H 0.23583 0.4361 0.12919 0.0
H742 H 0.2149 0.41706 0.14851 0.0
H743 H 0.19051 0.46649 0.17126 0.0
H744 H 0.21153 0.48582 0.15227 0.0
H745 H 0.22862 0.50839 0.04249 0.0
H746 H 0.24822 0.49513 0.06679 0.0
H747 H 0.21586 0.52351 0.10847 0.0
H748 H 0.19601 0.53658 0.08428 0.0
H749 H 0.21597 0.48709 0.11374 0.0
H750 H 0.26162 0.53356 0.10248 0.0
H751 H 0.2829 0.55298 0.08399 0.0
H752 H 0.31282 0.50435 0.0668 0.0
H753 H 0.29154 0.48459 0.08498 0.0
C754 C 0.2644 0.44999 0.1766 0.0
C755 C 0.27195 0.43275 0.1715 0.0
C756 C 0.26144 0.46368 0.16331 0.0
C757 C 0.26575 0.46027 0.14465 0.0
C758 C 0.2747 0.44368 0.1397 0.0
C759 C 0.27784 0.42995 0.15311 0.0
C760 C 0.25779 0.47247 0.13027 0.0
C761 C 0.26948 0.48324 0.11901 0.0
C762 C 0.23831 0.47396 0.12837 0.0
C763 C 0.22535 0.46238 0.13945 0.0
C764 C 0.22608 0.4429 0.1384 0.0
C765 C 0.2142 0.43206 0.14928 0.0
C766 C 0.20141 0.44056 0.16114 0.0
C767 C 0.20044 0.45993 0.16209 0.0
C768 C 0.21232 0.47083 0.15126 0.0
C769 C 0.22594 0.51215 0.0568 0.0
C770 C 0.21059 0.52324 0.06153 0.0
C771 C 0.23726 0.50467 0.07067 0.0
C772 C 0.23346 0.50831 0.08942 0.0
C773 C 0.21897 0.5205 0.09406 0.0
C774 C 0.20762 0.52791 0.08023 0.0
C775 C 0.2425 0.49717 0.10412 0.0
C776 C 0.23093 0.48636 0.11546 0.0
C777 C 0.26203 0.49575 0.10597 0.0
C778 C 0.27485 0.50757 0.09497 0.0
C779 C 0.27262 0.52698 0.09462 0.0
C780 C 0.28472 0.53805 0.08422 0.0
C781 C 0.29918 0.5299 0.07419 0.0
C782 C 0.3016 0.51065 0.07457 0.0
C783 C 0.28954 0.4995 0.08494 0.0
H784 H 0.30853 0.5385 0.06615 0.0
H785 H 0.19224 0.43215 0.16957 0.0
H786 H 0.66489 0.97338 0.89259 0.0
H787 H 0.68796 0.98433 0.87009 0.0
H788 H 0.73115 0.97796 0.91124 0.0
H789 H 0.70803 0.96787 0.93387 0.0
H790 H 0.72929 0.01198 0.90034 0.0
H791 H 0.73188 0.95374 0.86904 0.0
H792 H 0.71973 0.92567 0.85364 0.0
H793 H 0.69423 0.95937 0.81157 0.0
H794 H 0.70599 0.98767 0.82684 0.0
H795 H 0.78793 0.06377 0.84042 0.0
H796 H 0.7766 0.03789 0.85946 0.0
H797 H 0.72784 0.03376 0.82472 0.0
H798 H 0.73957 0.05879 0.80523 0.0
H799 H 0.73862 0.00068 0.83311 0.0
H800 H 0.72905 0.05785 0.8681 0.0
H801 H 0.73896 0.08663 0.88387 0.0
H802 H 0.77524 0.05513 0.91922 0.0
H803 H 0.76567 0.02619 0.90351 0.0
C804 C 0.6794 0.97383 0.89657 0.0
C805 C 0.68476 0.97023 0.91493 0.0
C806 C 0.6926 0.97993 0.8837 0.0
C807 C 0.71129 0.98203 0.88903 0.0
C808 C 0.71681 0.97656 0.90689 0.0
C809 C 0.70361 0.97089 0.9198 0.0
C810 C 0.7241 0.99323 0.87755 0.0
C811 C 0.73175 0.00919 0.88574 0.0
C812 C 0.72688 0.98987 0.85841 0.0
C813 C 0.71976 0.97286 0.84917 0.0
C814 C 0.72356 0.95519 0.85659 0.0
C815 C 0.71676 0.93922 0.84786 0.0
C816 C 0.70619 0.94073 0.83165 0.0
C817 C 0.70242 0.95821 0.82412 0.0
C818 C 0.70918 0.97422 0.83279 0.0
C819 C 0.7748 0.05729 0.83694 0.0
C820 C 0.7645 0.06331 0.82154 0.0
C821 C 0.76836 0.04252 0.84776 0.0
C822 C 0.75126 0.03402 0.84363 0.0
C823 C 0.74111 0.04 0.82811 0.0
C824 C 0.74774 0.05441 0.81709 0.0
C825 C 0.74324 0.01959 0.85586 0.0
C826 C 0.73652 0.0031 0.84783 0.0
C827 C 0.74102 0.02252 0.87514 0.0
C828 C 0.74684 0.03993 0.88448 0.0
C829 C 0.73925 0.0571 0.87914 0.0
C830 C 0.74478 0.07343 0.88808 0.0
C831 C 0.75778 0.07272 0.90249 0.0
C832 C 0.76522 0.05567 0.90802 0.0
C833 C 0.75975 0.03931 0.89911 0.0
H834 H 0.76203 0.08537 0.90941 0.0
H835 H 0.70094 0.92836 0.82491 0.0
H836 H 0.73937 0.965 0.28531 0.0
H837 H 0.75334 0.98915 0.30465 0.0
H838 H 0.72901 0.96426 0.35341 0.0
H839 H 0.71477 0.9402 0.33416 0.0
H840 H 0.73096 0.00293 0.35586 0.0
H841 H 0.77072 0.9504 0.34005 0.0
H842 H 0.78637 0.92939 0.31799 0.0
H843 H 0.81449 0.97585 0.29328 0.0
H844 H 0.79877 0.99716 0.31507 0.0
H845 H 0.79163 0.00289 0.4311 0.0
H846 H 0.77077 0.99818 0.40493 0.0
H847 H 0.80815 0.0287 0.36936 0.0
H848 H 0.82933 0.03337 0.39564 0.0
H849 H 0.79951 0.99542 0.35531 0.0
H850 H 0.76551 0.04643 0.3786 0.0
H851 H 0.75027 0.06606 0.40212 0.0
H852 H 0.71166 0.02223 0.41418 0.0
H853 H 0.72683 0.0022 0.39094 0.0
C854 C 0.73667 0.96489 0.30011 0.0
C855 C 0.72632 0.95051 0.30832 0.0
C856 C 0.74459 0.97874 0.3111 0.0
C857 C 0.7424 0.97829 0.33044 0.0
C858 C 0.73084 0.96482 0.33849 0.0
C859 C 0.72285 0.951 0.3275 0.0
C860 C 0.75428 0.98984 0.34252 0.0
C861 C 0.74595 0.00143 0.35577 0.0
C862 C 0.77385 0.98817 0.34198 0.0
C863 C 0.78341 0.97537 0.32899 0.0
C864 C 0.78014 0.95614 0.32982 0.0
C865 C 0.78903 0.94418 0.31738 0.0
C866 C 0.80137 0.95129 0.3042 0.0
C867 C 0.80489 0.97037 0.30347 0.0
C868 C 0.79599 0.98239 0.31585 0.0
C869 C 0.79536 0.00877 0.41777 0.0
C870 C 0.81219 0.01833 0.41534 0.0
C871 C 0.7833 0.00627 0.40286 0.0
C872 C 0.78779 0.01333 0.38528 0.0
C873 C 0.80439 0.02328 0.38289 0.0
C874 C 0.81647 0.02586 0.39786 0.0
C875 C 0.77622 0.00816 0.36914 0.0
C876 C 0.78459 0.99761 0.3551 0.0
C877 C 0.75672 0.01073 0.36911 0.0
C878 C 0.74738 0.02277 0.38303 0.0
C879 C 0.75384 0.04092 0.38633 0.0
C880 C 0.7452 0.05213 0.39962 0.0
C881 C 0.73002 0.04539 0.40965 0.0
C882 C 0.72342 0.02744 0.40639 0.0
C883 C 0.73201 0.01616 0.39313 0.0
H884 H 0.72336 0.05409 0.41994 0.0
H885 H 0.80824 0.94201 0.29458 0.0
H886 H 0.21496 0.52467 0.69471 0.0
H887 H 0.22611 0.50364 0.67067 0.0
H888 H 0.21082 0.54331 0.62852 0.0
H889 H 0.19954 0.56458 0.65258 0.0
H890 H 0.20939 0.50052 0.61898 0.0
H891 H 0.24907 0.55145 0.64089 0.0
H892 H 0.26229 0.5705 0.66613 0.0
H893 H 0.28618 0.52173 0.69079 0.0
H894 H 0.27277 0.50235 0.66586 0.0
H895 H 0.28288 0.48499 0.55299 0.0
H896 H 0.25804 0.49655 0.5731 0.0
H897 H 0.28355 0.46954 0.62014 0.0
H898 H 0.30852 0.45822 0.60026 0.0
H899 H 0.27779 0.50516 0.62668 0.0
H900 H 0.24242 0.45452 0.60283 0.0
H901 H 0.22809 0.43429 0.57921 0.0
H902 H 0.19593 0.48021 0.55891 0.0
H903 H 0.21031 0.50082 0.58221 0.0
C904 C 0.2134 0.52871 0.6803 0.0
C905 C 0.20684 0.54644 0.67551 0.0
C906 C 0.21961 0.51659 0.66659 0.0
C907 C 0.21942 0.52206 0.64792 0.0
C908 C 0.21096 0.53887 0.64289 0.0
C909 C 0.20469 0.55105 0.65666 0.0
C910 C 0.23179 0.51251 0.63472 0.0
C911 C 0.22435 0.50162 0.62041 0.0
C912 C 0.25124 0.51377 0.63698 0.0
C913 C 0.25977 0.52545 0.65165 0.0
C914 C 0.25703 0.54478 0.65178 0.0
C915 C 0.26456 0.55564 0.66601 0.0
C916 C 0.27503 0.54732 0.68008 0.0
C917 C 0.27805 0.52815 0.6799 0.0
C918 C 0.27049 0.51722 0.66572 0.0
C919 C 0.2831 0.48141 0.5676 0.0
C920 C 0.29779 0.47097 0.57514 0.0
C921 C 0.2688 0.48786 0.57902 0.0
C922 C 0.26895 0.48385 0.59809 0.0
C923 C 0.28322 0.4728 0.60546 0.0
C924 C 0.2975 0.46641 0.59409 0.0
C925 C 0.25556 0.49287 0.61076 0.0
C926 C 0.26286 0.50388 0.62506 0.0
C927 C 0.23606 0.49157 0.60841 0.0
C928 C 0.22759 0.47927 0.59418 0.0
C929 C 0.23244 0.46037 0.59321 0.0
C930 C 0.22425 0.44881 0.57993 0.0
C931 C 0.21107 0.45595 0.56761 0.0
C932 C 0.20611 0.47469 0.5685 0.0
C933 C 0.21427 0.48632 0.58174 0.0
H934 H 0.20475 0.44698 0.55733 0.0
H935 H 0.28083 0.55574 0.6911 0.0
H936 H 0.30964 0.39844 0.498 0.0
H937 H 0.27971 0.38356 0.49319 0.0
H938 H 0.26034 0.4046 0.54577 0.0
H939 H 0.29031 0.4201 0.5506 0.0
H940 H 0.25487 0.35846 0.51658 0.0
H941 H 0.23189 0.42222 0.53631 0.0
H942 H 0.23976 0.45547 0.53986 0.0
H943 H 0.25679 0.45786 0.48281 0.0
H944 H 0.24954 0.42453 0.47908 0.0
H945 H 0.18843 0.3354 0.45083 0.0
H946 H 0.19349 0.3503 0.48098 0.0
H947 H 0.22942 0.3906 0.45492 0.0
H948 H 0.22403 0.37624 0.42494 0.0
H949 H 0.21474 0.40517 0.48564 0.0
H950 H 0.24679 0.34548 0.46787 0.0
H951 H 0.24409 0.31232 0.45945 0.0
H952 H 0.21255 0.30202 0.50902 0.0
H953 H 0.21501 0.33518 0.51763 0.0
C954 C 0.2992 0.39969 0.50875 0.0
C955 C 0.30228 0.41077 0.52451 0.0
C956 C 0.28211 0.39104 0.50603 0.0
C957 C 0.26776 0.39323 0.519 0.0
C958 C 0.27119 0.40298 0.5355 0.0
C959 C 0.28836 0.41174 0.53824 0.0
C960 C 0.24884 0.38756 0.51339 0.0
C961 C 0.24543 0.36859 0.51062 0.0
C962 C 0.23671 0.4008 0.50545 0.0
C963 C 0.24023 0.42095 0.50745 0.0
C964 C 0.23732 0.42987 0.52455 0.0
C965 C 0.24169 0.44869 0.52661 0.0
C966 C 0.2487 0.45876 0.51157 0.0
C967 C 0.25135 0.45004 0.49444 0.0
C968 C 0.24715 0.43119 0.49235 0.0
C969 C 0.19674 0.34793 0.45142 0.0
C970 C 0.20629 0.35435 0.43561 0.0
C971 C 0.19966 0.3564 0.4687 0.0
C972 C 0.21226 0.37123 0.47031 0.0
C973 C 0.21974 0.37909 0.45411 0.0
C974 C 0.21679 0.37074 0.43693 0.0
C975 C 0.22112 0.37605 0.4883 0.0
C976 C 0.2229 0.39488 0.49304 0.0
C977 C 0.23181 0.36268 0.49804 0.0
C978 C 0.23103 0.3427 0.49334 0.0
C979 C 0.23937 0.33608 0.47699 0.0
C980 C 0.23783 0.31733 0.47216 0.0
C981 C 0.22815 0.30508 0.48369 0.0
C982 C 0.22005 0.31154 0.50011 0.0
C983 C 0.22151 0.33029 0.50498 0.0
H984 H 0.22693 0.29058 0.47992 0.0
H985 H 0.25209 0.47332 0.51321 0.0
H986 H 0.92806 0.01443 0.69311 0.0
H987 H 0.90596 0.0197 0.71791 0.0
H988 H 0.88932 0.96219 0.71606 0.0
H989 H 0.91189 0.95656 0.69098 0.0
H990 H 0.85916 0.98949 0.71659 0.0
H991 H 0.90939 0.97184 0.7532 0.0
H992 H 0.942 0.96862 0.76305 0.0
H993 H 0.94542 0.02744 0.77222 0.0
H994 H 0.91294 0.03111 0.7621 0.0
H995 H 0.80765 0.046 0.7826 0.0
H996 H 0.8271 0.01851 0.77656 0.0
H997 H 0.86628 0.05292 0.74705 0.0
H998 H 0.84668 0.0801 0.75239 0.0
H999 H 0.88164 0.02248 0.77283 0.0
H1000 H 0.83638 0.03593 0.72059 0.0
H1001 H 0.80374 0.03923 0.71057 0.0
H1002 H 0.79095 0.98571 0.73365 0.0
H1003 H 0.82352 0.98223 0.74395 0.0
C1004 C 0.91975 0.00281 0.69783 0.0
C1005 C 0.92177 0.98506 0.68999 0.0
C1006 C 0.90721 0.00584 0.71217 0.0
C1007 C 0.89629 0.99126 0.71901 0.0
C1008 C 0.89783 0.97355 0.71105 0.0
C1009 C 0.91066 0.9704 0.69673 0.0
C1010 C 0.88285 0.99545 0.73393 0.0
C1011 C 0.86393 0.99596 0.72934 0.0
C1012 C 0.88904 0.0037 0.75066 0.0
C1013 C 0.90864 0.00173 0.7569 0.0
C1014 C 0.9171 0.98412 0.75722 0.0
C1015 C 0.93559 0.98221 0.76286 0.0
C1016 C 0.94577 0.99781 0.76828 0.0
C1017 C 0.93749 0.01536 0.76807 0.0
C1018 C 0.91901 0.01735 0.76242 0.0
C1019 C 0.82063 0.04767 0.77517 0.0
C1020 C 0.8257 0.06505 0.76781 0.0
C1021 C 0.83168 0.03203 0.77179 0.0
C1022 C 0.84811 0.0338 0.76148 0.0
C1023 C 0.85371 0.05137 0.75519 0.0
C1024 C 0.84248 0.06683 0.75812 0.0
C1025 C 0.85841 0.01744 0.75476 0.0
C1026 C 0.87672 0.01486 0.7608 0.0
C1027 C 0.85161 0.00695 0.73963 0.0
C1028 C 0.83225 0.00888 0.7331 0.0
C1029 C 0.82656 0.02491 0.72355 0.0
C1030 C 0.8081 0.02681 0.71783 0.0
C1031 C 0.79527 0.0127 0.72149 0.0
C1032 C 0.8009 0.99664 0.73083 0.0
C1033 C 0.81935 0.99469 0.73661 0.0
H1034 H 0.78098 0.0142 0.71707 0.0
H1035 H 0.96008 0.9963 0.77264 0.0
H1036 H 0.28713 0.69102 0.93027 0.0
H1037 H 0.2805 0.67213 0.9578 0.0
H1038 H 0.22193 0.6746 0.94537 0.0
H1039 H 0.22829 0.69346 0.91812 0.0
H1040 H 0.22872 0.67936 0.98255 0.0
H1041 H 0.24882 0.63746 0.93203 0.0
H1042 H 0.27196 0.62578 0.9096 0.0
H1043 H 0.31057 0.6161 0.95404 0.0
H1044 H 0.28769 0.62791 0.97669 0.0
H1045 H 0.17498 0.6018 0.99005 0.0
H1046 H 0.19431 0.62905 0.98501 0.0
H1047 H 0.23862 0.60378 0.01652 0.0
H1048 H 0.21896 0.57629 0.02188 0.0
H1049 H 0.24908 0.61357 0.98122 0.0
H1050 H 0.22284 0.64446 0.03185 0.0
H1051 H 0.19883 0.65492 0.05387 0.0
H1052 H 0.17144 0.685 0.01028 0.0
H1053 H 0.19509 0.67451 0.9879 0.0
C1054 C 0.27283 0.68757 0.93342 0.0
C1055 C 0.25825 0.69363 0.92184 0.0
C1056 C 0.26909 0.67683 0.9492 0.0
C1057 C 0.25073 0.67198 0.95362 0.0
C1058 C 0.23619 0.67832 0.94231 0.0
C1059 C 0.23988 0.68899 0.9266 0.0
C1060 C 0.24631 0.65925 0.96917 0.0
C1061 C 0.23324 0.66499 0.98244 0.0
C1062 C 0.25297 0.64078 0.96959 0.0
C1063 C 0.26669 0.63379 0.95598 0.0
C1064 C 0.26231 0.63297 0.93697 0.0
C1065 C 0.27536 0.62631 0.92424 0.0
C1066 C 0.29275 0.62027 0.93038 0.0
C1067 C 0.29712 0.62084 0.94929 0.0
C1068 C 0.28412 0.62751 0.96208 0.0
C1069 C 0.18867 0.60223 0.9963 0.0
C1070 C 0.19558 0.58693 0.00619 0.0
C1071 C 0.19966 0.61789 0.99357 0.0
C1072 C 0.21787 0.61851 0.0005 0.0
C1073 C 0.22454 0.60362 0.01121 0.0
C1074 C 0.21333 0.58798 0.01426 0.0
C1075 C 0.2304 0.63334 0.99372 0.0
C1076 C 0.24509 0.62809 0.98206 0.0
C1077 C 0.22519 0.65225 0.9948 0.0
C1078 C 0.21082 0.65868 0.00816 0.0
C1079 C 0.21165 0.65322 0.02691 0.0
C1080 C 0.1981 0.65917 0.03947 0.0
C1081 C 0.18363 0.67062 0.03348 0.0
C1082 C 0.18268 0.67616 0.01491 0.0
C1083 C 0.1962 0.67025 0.00228 0.0
H1084 H 0.17315 0.67521 0.04323 0.0
H1085 H 0.30283 0.6151 0.92051 0.0
H1086 H 0.53174 0.01101 0.21601 0.0
H1087 H 0.55483 0.00117 0.23897 0.0
H1088 H 0.5987 0.01873 0.20193 0.0
H1089 H 0.57555 0.02985 0.17983 0.0
H1090 H 0.57491 0.97435 0.23472 0.0
H1091 H 0.64019 0.02154 0.22075 0.0
H1092 H 0.64722 0.05485 0.21718 0.0
H1093 H 0.59731 0.06887 0.24663 0.0
H1094 H 0.59011 0.03565 0.25067 0.0
H1095 H 0.65613 0.92522 0.22777 0.0
H1096 H 0.6308 0.94726 0.22405 0.0
H1097 H 0.6457 0.97367 0.2757 0.0
H1098 H 0.67134 0.95152 0.27962 0.0
H1099 H 0.63797 -0.00088 0.24724 0.0
H1100 H 0.6085 0.94898 0.2768 0.0
H1101 H 0.60051 0.91638 0.28356 0.0
H1102 H 0.57674 0.91057 0.22918 0.0
H1103 H 0.58485 0.94306 0.22196 0.0
C1104 C 0.54634 0.01336 0.21322 0.0
C1105 C 0.55201 0.02111 0.19629 0.0
C1106 C 0.55954 0.0077 0.22626 0.0
C1107 C 0.57863 0.00911 0.22228 0.0
C1108 C 0.58417 0.01785 0.2057 0.0
C1109 C 0.57094 0.02408 0.19295 0.0
C1110 C 0.59245 -0.00133 0.23361 0.0
C1111 C 0.58855 0.97998 0.23772 0.0
C1112 C 0.61019 0.00598 0.23813 0.0
C1113 C 0.61457 0.02604 0.23596 0.0
C1114 C 0.63078 0.0317 0.22661 0.0
C1115 C 0.63477 0.05059 0.22447 0.0
C1116 C 0.62271 0.06397 0.23165 0.0
C1117 C 0.60663 0.05849 0.24103 0.0
C1118 C 0.60257 0.03963 0.24323 0.0
C1119 C 0.65411 0.93568 0.23838 0.0
C1120 C 0.66576 0.93653 0.25403 0.0
C1121 C 0.63956 0.94824 0.23626 0.0
C1122 C 0.63627 0.96195 0.2497 0.0
C1123 C 0.64799 0.96312 0.26522 0.0
C1124 C 0.66256 0.95041 0.26745 0.0
C1125 C 0.6205 0.97488 0.24714 0.0
C1126 C 0.62408 0.99388 0.24468 0.0
C1127 C 0.60227 0.96808 0.24465 0.0
C1128 C 0.59737 0.94846 0.24882 0.0
C1129 C 0.6017 0.94072 0.26623 0.0
C1130 C 0.59713 0.92226 0.27015 0.0
C1131 C 0.58814 0.91141 0.2568 0.0
C1132 C 0.5837 0.919 0.2395 0.0
C1133 C 0.58825 0.93745 0.2355 0.0
H1134 H 0.5846 0.89712 0.25987 0.0
H1135 H 0.62582 0.07858 0.22996 0.0
H1136 H 0.76986 0.17693 0.54645 0.0
H1137 H 0.77354 0.15498 0.52123 0.0
H1138 H 0.71403 0.14898 0.51715 0.0
H1139 H 0.71014 0.17112 0.54278 0.0
H1140 H 0.73004 0.1161 0.51784 0.0
H1141 H 0.73657 0.16707 0.48003 0.0
H1142 H 0.74519 0.19851 0.46963 0.0
H1143 H 0.8029 0.18361 0.47122 0.0
H1144 H 0.79471 0.15217 0.48194 0.0
H1145 H 0.80422 0.0685 0.45124 0.0
H1146 H 0.77911 0.09144 0.45418 0.0
H1147 H 0.78075 0.08531 0.51376 0.0
H1148 H 0.80527 0.06256 0.51104 0.0
H1149 H 0.77923 0.12437 0.47029 0.0
H1150 H 0.7415 0.08842 0.53372 0.0
H1151 H 0.73075 0.05695 0.54178 0.0
H1152 H 0.73036 0.04189 0.4841 0.0
H1153 H 0.74081 0.07336 0.47561 0.0
C1154 C 0.75748 0.1711 0.54019 0.0
C1155 C 0.73971 0.1757 0.54678 0.0
C1156 C 0.75961 0.1587 0.52554 0.0
C1157 C 0.74405 0.1506 0.51703 0.0
C1158 C 0.72621 0.15524 0.52339 0.0
C1159 C 0.72404 0.16782 0.53807 0.0
C1160 C 0.74704 0.13578 0.50308 0.0
C1161 C 0.74048 0.1179 0.50714 0.0
C1162 C 0.75975 0.13827 0.4883 0.0
C1163 C 0.76498 0.15717 0.48177 0.0
C1164 C 0.75112 0.1705 0.47825 0.0
C1165 C 0.75593 0.18834 0.47229 0.0
C1166 C 0.77458 0.19305 0.46975 0.0
C1167 C 0.78846 0.17992 0.47315 0.0
C1168 C 0.78372 0.16205 0.47912 0.0
C1169 C 0.79908 0.07197 0.46494 0.0
C1170 C 0.80681 0.06369 0.48091 0.0
C1171 C 0.7847 0.08501 0.46657 0.0
C1172 C 0.77775 0.08977 0.48415 0.0
C1173 C 0.78545 0.08145 0.5 0.0
C1174 C 0.79969 0.06854 0.49841 0.0
C1175 C 0.76381 0.1047 0.4867 0.0
C1176 C 0.7682 0.12259 0.48037 0.0
C1177 C 0.7486 0.10222 0.4989 0.0
C1178 C 0.74191 0.08335 0.50401 0.0
C1179 C 0.73892 0.0785 0.52271 0.0
C1180 C 0.73294 0.06062 0.52736 0.0
C1181 C 0.72987 0.04744 0.51346 0.0
C1182 C 0.73276 0.05211 0.49486 0.0
C1183 C 0.73873 0.06997 0.49012 0.0
H1184 H 0.72527 0.03359 0.51711 0.0
H1185 H 0.77828 0.20687 0.46514 0.0
H1186 H 0.14969 0.57454 0.7674 0.0
H1187 H 0.12387 0.55377 0.77417 0.0
H1188 H 0.13194 0.52607 0.72168 0.0
H1189 H 0.15779 0.54713 0.71457 0.0
H1190 H 0.09483 0.52956 0.73035 0.0
H1191 H 0.14925 0.50611 0.75903 0.0
H1192 H 0.17817 0.50753 0.77733 0.0
H1193 H 0.14719 0.52377 0.82561 0.0
H1194 H 0.1181 0.52274 0.80753 0.0
H1195 H 0.05387 0.45766 0.80345 0.0
H1196 H 0.07834 0.46812 0.78242 0.0
H1197 H 0.04971 0.52019 0.77482 0.0
H1198 H 0.02518 0.5099 0.79577 0.0
H1199 H 0.10015 0.4966 0.79066 0.0
H1200 H 0.06083 0.5388 0.73287 0.0
H1201 H 0.03315 0.53497 0.71305 0.0
H1202 H 0.03568 0.47584 0.72032 0.0
H1203 H 0.06353 0.47925 0.73993 0.0
C1204 C 0.1459 0.56417 0.75717 0.0
C1205 C 0.15596 0.56233 0.74056 0.0
C1206 C 0.13115 0.55229 0.76108 0.0
C1207 C 0.12628 0.53813 0.7486 0.0
C1208 C 0.13558 0.53685 0.73153 0.0
C1209 C 0.15033 0.54888 0.72751 0.0
C1210 C 0.11217 0.52421 0.75412 0.0
C1211 C 0.09596 0.52223 0.74346 0.0
C1212 C 0.11407 0.51404 0.77083 0.0
C1213 C 0.1315 0.51442 0.78188 0.0
C1214 C 0.14861 0.51008 0.77352 0.0
C1215 C 0.16504 0.51081 0.78386 0.0
C1216 C 0.16452 0.51575 0.80262 0.0
C1217 C 0.14757 0.51994 0.81108 0.0
C1218 C 0.1311 0.51925 0.8008 0.0
C1219 C 0.05254 0.47119 0.79701 0.0
C1220 C 0.03769 0.48307 0.80155 0.0
C1221 C 0.06656 0.47712 0.78497 0.0
C1222 C 0.06585 0.49492 0.77706 0.0
C1223 C 0.05044 0.50631 0.7806 0.0
C1224 C 0.03649 0.50045 0.79272 0.0
C1225 C 0.08228 0.50274 0.76744 0.0
C1226 C 0.09903 0.50359 0.77736 0.0
C1227 C 0.08099 0.51143 0.74986 0.0
C1228 C 0.06423 0.50932 0.73801 0.0
C1229 C 0.05555 0.52497 0.73018 0.0
C1230 C 0.03981 0.52287 0.71899 0.0
C1231 C 0.03264 0.50518 0.71547 0.0
C1232 C 0.0412 0.48954 0.72311 0.0
C1233 C 0.05695 0.49156 0.7343 0.0
H1234 H 0.02045 0.50359 0.70679 0.0
H1235 H 0.17725 0.51633 0.81059 0.0
H1236 H 0.67413 0.90234 0.96381 0.0
H1237 H 0.69705 0.87896 0.97351 0.0
H1238 H 0.72852 0.92147 0.0017 0.0
H1239 H 0.70548 0.94463 0.99248 0.0
H1240 H 0.7509 0.89061 0.98737 0.0
H1241 H 0.69689 0.90537 0.02564 0.0
H1242 H 0.66324 0.90946 0.03059 0.0
H1243 H 0.65367 0.85288 0.01428 0.0
H1244 H 0.68729 0.8486 0.00888 0.0
H1245 H 0.74954 0.83771 0.08331 0.0
H1246 H 0.7398 0.8615 0.06116 0.0
H1247 H 0.76857 0.83244 0.01727 0.0
H1248 H 0.77935 0.8093 0.0398 0.0
H1249 H 0.71701 0.85463 0.03539 0.0
H1250 H 0.7735 0.86123 0.9792 0.0
H1251 H 0.8076 0.85975 0.97609 0.0
H1252 H 0.81386 0.87725 0.03276 0.0
H1253 H 0.7798 0.87903 0.03614 0.0
C1254 C 0.68633 0.90671 0.97146 0.0
C1255 C 0.68805 0.92507 0.97771 0.0
C1256 C 0.69942 0.89343 0.97691 0.0
C1257 C 0.71437 0.89855 0.98839 0.0
C1258 C 0.71714 0.9173 0.99276 0.0
C1259 C 0.70391 0.93045 0.98766 0.0
C1260 C 0.72426 0.88442 -0.00056 0.0
C1261 C 0.74357 0.8825 0.99774 0.0
C1262 C 0.71467 0.87429 0.01323 0.0
C1263 C 0.69451 0.87676 0.01658 0.0
C1264 C 0.68757 0.89387 0.02293 0.0
C1265 C 0.66852 0.89621 0.02584 0.0
C1266 C 0.65631 0.88146 0.02268 0.0
C1267 C 0.66314 0.86432 0.01665 0.0
C1268 C 0.68218 0.86193 0.01364 0.0
C1269 C 0.75425 0.83681 0.06904 0.0
C1270 C 0.76511 0.82181 0.06314 0.0
C1271 C 0.74863 0.8503 0.05638 0.0
C1272 C 0.75329 0.84869 0.03748 0.0
C1273 C 0.765 0.83417 0.03177 0.0
C1274 C 0.77111 0.82094 0.04462 0.0
C1275 C 0.74395 0.86088 0.02376 0.0
C1276 C 0.72454 0.8624 0.0249 0.0
C1277 C 0.75361 0.87088 0.00982 0.0
C1278 C 0.7741 0.87007 0.00796 0.0
C1279 C 0.78216 0.86482 0.99098 0.0
C1280 C 0.80148 0.86391 0.98917 0.0
C1281 C 0.81289 0.86834 0.00424 0.0
C1282 C 0.805 0.87374 0.02112 0.0
C1283 C 0.78569 0.87467 0.023 0.0
H1284 H 0.82784 0.86762 0.00282 0.0
H1285 H 0.64157 0.88329 0.02497 0.0
H1286 H 0.30141 0.42878 0.27162 0.0
H1287 H 0.32187 0.45433 0.27978 0.0
H1288 H 0.33928 0.45917 0.22268 0.0
H1289 H 0.31872 0.43334 0.21425 0.0
H1290 H 0.36857 0.45956 0.24622 0.0
H1291 H 0.31361 0.49331 0.24008 0.0
H1292 H 0.28033 0.50084 0.24263 0.0
H1293 H 0.28515 0.50341 0.302 0.0
H1294 H 0.31841 0.49557 0.29986 0.0
H1295 H 0.42387 0.52889 0.29164 0.0
H1296 H 0.39852 0.52089 0.27016 0.0
H1297 H 0.37236 0.48844 0.31318 0.0
H1298 H 0.3979 0.49579 0.33436 0.0
H1299 H 0.34715 0.5107 0.28722 0.0
H1300 H 0.39961 0.46535 0.28971 0.0
H1301 H 0.43307 0.45866 0.28638 0.0
H1302 H 0.43223 0.48084 0.23101 0.0
H1303 H 0.39879 0.48787 0.23416 0.0
C1304 C 0.30952 0.43522 0.26071 0.0
C1305 C 0.30842 0.42893 0.24226 0.0
C1306 C 0.3211 0.44999 0.26539 0.0
C1307 C 0.33181 0.45889 0.25177 0.0
C1308 C 0.33096 0.4526 0.23335 0.0
C1309 C 0.31925 0.43781 0.2286 0.0
C1310 C 0.34474 0.47386 0.25741 0.0
C1311 C 0.36383 0.47111 0.25465 0.0
C1312 C 0.33859 0.48904 0.26829 0.0
C1313 C 0.31855 0.49378 0.26979 0.0
C1314 C 0.30757 0.49534 0.2537 0.0
C1315 C 0.28869 0.49969 0.25507 0.0
C1316 C 0.28063 0.50259 0.27247 0.0
C1317 C 0.29143 0.50117 0.28853 0.0
C1318 C 0.31031 0.49681 0.28724 0.0
C1319 C 0.41241 0.5205 0.2966 0.0
C1320 C 0.41279 0.5128 0.31452 0.0
C1321 C 0.39799 0.51598 0.28437 0.0
C1322 C 0.38364 0.50413 0.29017 0.0
C1323 C 0.38327 0.49774 0.30855 0.0
C1324 C 0.39787 0.50182 0.32057 0.0
C1325 C 0.37072 0.49572 0.27668 0.0
C1326 C 0.35172 0.49965 0.27807 0.0
C1327 C 0.37689 0.48186 0.26424 0.0
C1328 C 0.39683 0.47729 0.26223 0.0
C1329 C 0.40661 0.46888 0.27688 0.0
C1330 C 0.42555 0.46502 0.27502 0.0
C1331 C 0.43478 0.46936 0.25851 0.0
C1332 C 0.42507 0.47751 0.2438 0.0
C1333 C 0.40613 0.48144 0.24561 0.0
H1334 H 0.44945 0.46638 0.2571 0.0
H1335 H 0.26601 0.50596 0.2735 0.0
H1336 H 0.48091 0.29942 0.43662 0.0
H1337 H 0.47709 0.27802 0.41044 0.0
H1338 H 0.52896 0.29688 0.38724 0.0
H1339 H 0.53323 0.31794 0.41369 0.0
H1340 H 0.49018 0.29826 0.36498 0.0
H1341 H 0.5349 0.2599 0.39709 0.0
H1342 H 0.54739 0.24356 0.42447 0.0
H1343 H 0.4976 0.2109 0.42806 0.0
H1344 H 0.48467 0.22728 0.40088 0.0
H1345 H 0.47385 0.24364 0.28777 0.0
H1346 H 0.49356 0.25601 0.31254 0.0
H1347 H 0.46204 0.22504 0.35305 0.0
H1348 H 0.44296 0.21195 0.3283 0.0
H1349 H 0.49597 0.22955 0.36555 0.0
H1350 H 0.44889 0.26921 0.33942 0.0
H1351 H 0.43267 0.28564 0.3141 0.0
H1352 H 0.48237 0.31627 0.30179 0.0
H1353 H 0.49895 0.2998 0.32689 0.0
C1354 C 0.49158 0.29889 0.42603 0.0
C1355 C 0.50732 0.3104 0.42713 0.0
C1356 C 0.48944 0.2866 0.41119 0.0
C1357 C 0.50284 0.28584 0.3971 0.0
C1358 C 0.51861 0.2972 0.39815 0.0
C1359 C 0.52098 0.3092 0.41322 0.0
C1360 C 0.49934 0.27442 0.38047 0.0
C1361 C 0.49189 0.28328 0.36486 0.0
C1362 C 0.50099 0.25488 0.38075 0.0
C1363 C 0.50874 0.24497 0.39706 0.0
C1364 C 0.52652 0.24939 0.40384 0.0
C1365 C 0.53371 0.24008 0.4193 0.0
C1366 C 0.52328 0.22624 0.42803 0.0
C1367 C 0.50566 0.22164 0.4213 0.0
C1368 C 0.4984 0.23092 0.40586 0.0
C1369 C 0.47152 0.23905 0.30191 0.0
C1370 C 0.45662 0.2272 0.30619 0.0
C1371 C 0.48275 0.24613 0.31605 0.0
C1372 C 0.47885 0.24195 0.33471 0.0
C1373 C 0.46522 0.22861 0.33879 0.0
C1374 C 0.45427 0.22117 0.32461 0.0
C1375 C 0.48679 0.25338 0.34991 0.0
C1376 C 0.49478 0.24457 0.36538 0.0
C1377 C 0.4852 0.27302 0.34977 0.0
C1378 C 0.47521 0.28313 0.33486 0.0
C1379 C 0.45637 0.27938 0.33124 0.0
C1380 C 0.44712 0.2887 0.31693 0.0
C1381 C 0.4565 0.30195 0.3063 0.0
C1382 C 0.47514 0.30597 0.31001 0.0
C1383 C 0.48447 0.29665 0.32427 0.0
H1384 H 0.44931 0.30914 0.29523 0.0
H1385 H 0.52887 0.21904 0.43999 0.0
H1386 H 0.03999 0.20411 0.56443 0.0
H1387 H 0.02984 0.23095 0.58299 0.0
H1388 H 9e-05 0.19415 0.61973 0.0
H1389 H 0.00966 0.16753 0.60099 0.0
H1390 H 0.99055 0.23761 0.5864 0.0
H1391 H 0.00137 0.21361 0.66299 0.0
H1392 H 0.0255 0.19821 0.68177 0.0
H1393 H 0.06746 0.21663 0.64361 0.0
H1394 H 0.04363 0.2324 0.62474 0.0
H1395 H 0.91864 0.24861 0.65149 0.0
H1396 H 0.94387 0.23936 0.63071 0.0
H1397 H 0.97806 0.28369 0.65205 0.0
H1398 H 0.95272 0.29333 0.67261 0.0
H1399 H 0.99358 0.24681 0.65461 0.0
H1400 H 0.9684 0.28797 0.60989 0.0
H1401 H 0.94389 0.30291 0.59122 0.0
H1402 H 0.93104 0.2506 0.56562 0.0
H1403 H 0.95528 0.23527 0.58434 0.0
C1404 C 0.03182 0.20178 0.57685 0.0
C1405 C 0.02555 0.18386 0.58136 0.0
C1406 C 0.02597 0.21707 0.58734 0.0
C1407 C 0.01428 0.21447 0.60272 0.0
C1408 C 0.00928 0.19641 0.60803 0.0
C1409 C 0.01471 0.18123 0.59733 0.0
C1410 C 0.00483 0.23033 0.61167 0.0
C1411 C 0.99144 0.23994 0.60126 0.0
C1412 C 0.00622 0.23347 0.63098 0.0
C1413 C 0.02067 0.22415 0.6424 0.0
C1414 C 0.01575 0.2145 0.65866 0.0
C1415 C 0.02938 0.20567 0.66931 0.0
C1416 C 0.048 0.20642 0.66387 0.0
C1417 C 0.05303 0.21602 0.64778 0.0
C1418 C 0.03946 0.22488 0.63708 0.0
C1419 C 0.93137 0.25664 0.65145 0.0
C1420 C 0.93373 0.27165 0.66367 0.0
C1421 C 0.94573 0.2514 0.63955 0.0
C1422 C 0.96276 0.26089 0.63987 0.0
C1423 C 0.96496 0.27629 0.65156 0.0
C1424 C 0.95045 0.28179 0.66322 0.0
C1425 C 0.97871 0.25325 0.62948 0.0
C1426 C 0.99315 0.24504 0.63966 0.0
C1427 C 0.97824 0.25133 0.60996 0.0
C1428 C 0.96365 0.26046 0.59859 0.0
C1429 C 0.96027 0.27962 0.60038 0.0
C1430 C 0.94643 0.28816 0.58976 0.0
C1431 C 0.9359 0.2777 0.57725 0.0
C1432 C 0.93921 0.25868 0.57531 0.0
C1433 C 0.95303 0.25007 0.5859 0.0
H1434 H 0.9252 0.28434 0.56905 0.0
H1435 H 0.05852 0.19958 0.67214 0.0
H1436 H 0.01255 0.66318 0.91755 0.0
H1437 H 0.01608 0.68948 0.8966 0.0
H1438 H 0.96118 0.70869 0.91072 0.0
H1439 H 0.95747 0.6824 0.93208 0.0
H1440 H 0.98516 0.7072 0.86579 0.0
H1441 H 0.97436 0.73782 0.92597 0.0
H1442 H 0.97598 0.73768 0.96021 0.0
H1443 H 0.03495 0.72901 0.95766 0.0
H1444 H 0.03359 0.72884 0.92339 0.0
H1445 H 0.03939 0.77974 0.82421 0.0
H1446 H 0.01301 0.76986 0.84356 0.0
H1447 H 0.05047 0.73859 0.87837 0.0
H1448 H 0.07659 0.74817 0.85916 0.0
H1449 H 0.02189 0.75553 0.89851 0.0
H1450 H 0.03126 0.71784 0.84115 0.0
H1451 H 0.03188 0.71516 0.80698 0.0
H1452 H 0.97626 0.73655 0.80402 0.0
H1453 H 0.97543 0.7395 0.83819 0.0
C1454 C 0.00105 0.67276 0.91603 0.0
C1455 C 0.98485 0.67081 0.92673 0.0
C1456 C 0.00306 0.68773 0.90397 0.0
C1457 C 0.98894 0.701 0.9023 0.0
C1458 C 0.97222 0.69854 0.91192 0.0
C1459 C 0.97017 0.68351 0.92409 0.0
C1460 C 0.99322 0.71836 0.89233 0.0
C1461 C 0.99245 0.71832 0.87289 0.0
C1462 C 0.00285 0.73268 0.90165 0.0
C1463 C 0.00384 0.73323 0.92218 0.0
C1464 C 0.98764 0.7358 0.93274 0.0
C1465 C 0.98851 0.73578 0.95213 0.0
C1466 C 0.00555 0.73332 0.9611 0.0
C1467 C 0.02176 0.73092 0.95069 0.0
C1468 C 0.02095 0.7309 0.93129 0.0
C1469 C 0.04198 0.77116 0.8363 0.0
C1470 C 0.05995 0.76451 0.84012 0.0
C1471 C 0.02694 0.76554 0.84729 0.0
C1472 C 0.02982 0.75344 0.86232 0.0
C1473 C 0.04796 0.748 0.86689 0.0
C1474 C 0.06286 0.75336 0.85583 0.0
C1475 C 0.01425 0.74414 0.87192 0.0
C1476 C 0.01332 0.74541 0.89133 0.0
C1477 C 0.00292 0.73108 0.86255 0.0
C1478 C 0.00335 0.72905 0.84212 0.0
C1479 C 0.01921 0.72203 0.83318 0.0
C1480 C 0.0196 0.72046 0.81383 0.0
C1481 C 0.00414 0.72573 0.80333 0.0
C1482 C 0.98824 0.73251 0.81216 0.0
C1483 C 0.9878 0.73413 0.83151 0.0
H1484 H 0.00446 0.72452 0.78835 0.0
H1485 H 0.0062 0.73329 0.97612 0.0
H1486 H 0.57761 0.76911 0.18227 0.0
H1487 H 0.55088 0.77764 0.1637 0.0
H1488 H 0.53212 0.72075 0.16362 0.0
H1489 H 0.55921 0.71186 0.18244 0.0
H1490 H 0.53008 0.73733 0.1288 0.0
H1491 H 0.50732 0.75002 0.18831 0.0
H1492 H 0.5077 0.76075 0.2208 0.0
H1493 H 0.51643 0.81685 0.20254 0.0
H1494 H 0.51642 0.80645 0.16994 0.0
H1495 H 0.46507 0.79195 0.07441 0.0
H1496 H 0.47268 0.77096 0.10031 0.0
H1497 H 0.51593 0.80854 0.1179 0.0
H1498 H 0.50872 0.8292 0.09208 0.0
H1499 H 0.49368 0.79274 0.1477 0.0
H1500 H 0.52739 0.77486 0.08986 0.0
H1501 H 0.52703 0.76371 0.05745 0.0
H1502 H 0.49527 0.71596 0.07393 0.0
H1503 H 0.49529 0.72699 0.10641 0.0
C1504 C 0.56788 0.7583 0.1784 0.0
C1505 C 0.57057 0.73978 0.18396 0.0
C1506 C 0.55249 0.76326 0.16785 0.0
C1507 C 0.5393 0.74991 0.16266 0.0
C1508 C 0.54205 0.73128 0.16771 0.0
C1509 C 0.55755 0.72626 0.1784 0.0
C1510 C 0.52321 0.75584 0.1513 0.0
C1511 C 0.52161 0.74902 0.13313 0.0
C1512 C 0.51199 0.77093 0.15702 0.0
C1513 C 0.51186 0.77742 0.17662 0.0
C1514 C 0.50941 0.76464 0.1912 0.0
C1515 C 0.50956 0.77067 0.20966 0.0
C1516 C 0.51208 0.78947 0.21373 0.0
C1517 C 0.51444 0.80229 0.19936 0.0
C1518 C 0.51432 0.79634 0.18088 0.0
C1519 C 0.47597 0.79582 0.08403 0.0
C1520 C 0.48644 0.81209 0.0812 0.0
C1521 C 0.48028 0.78385 0.09876 0.0
C1522 C 0.49484 0.78826 0.11096 0.0
C1523 C 0.50457 0.80497 0.10868 0.0
C1524 C 0.50054 0.81669 0.09385 0.0
C1525 C 0.50157 0.77496 0.12505 0.0
C1526 C 0.50142 0.78045 0.14371 0.0
C1527 C 0.51094 0.7585 0.11988 0.0
C1528 C 0.51116 0.75182 0.10046 0.0
C1529 C 0.52024 0.76204 0.08653 0.0
C1530 C 0.52011 0.75574 0.06816 0.0
C1531 C 0.51108 0.73916 0.06362 0.0
C1532 C 0.50222 0.72882 0.07746 0.0
C1533 C 0.50229 0.73508 0.09584 0.0
H1534 H 0.51099 0.73431 0.0494 0.0
H1535 H 0.5122 0.79411 0.22803 0.0
H1536 H 0.18893 0.35466 0.34408 0.0
H1537 H 0.1802 0.35517 0.31144 0.0
H1538 H 0.17155 0.29585 0.31265 0.0
H1539 H 0.17992 0.29546 0.34573 0.0
H1540 H 0.19983 0.30604 0.2903 0.0
H1541 H 0.13721 0.32162 0.29286 0.0
H1542 H 0.10842 0.33639 0.304 0.0
H1543 H 0.12972 0.39002 0.28898 0.0
H1544 H 0.15875 0.37568 0.27803 0.0
H1545 H 0.23313 0.34774 0.2055 0.0
H1546 H 0.21036 0.32851 0.22248 0.0
H1547 H 0.20283 0.37292 0.26204 0.0
H1548 H 0.22545 0.39174 0.24549 0.0
H1549 H 0.16953 0.35551 0.25329 0.0
H1550 H 0.23461 0.33808 0.27343 0.0
H1551 H 0.26559 0.32403 0.2689 0.0
H1552 H 0.24043 0.27599 0.24402 0.0
H1553 H 0.20929 0.28972 0.24866 0.0
C1554 C 0.18425 0.3419 0.3376 0.0
C1555 C 0.18512 0.32504 0.34726 0.0
C1556 C 0.17911 0.34218 0.31896 0.0
C1557 C 0.17516 0.32553 0.30955 0.0
C1558 C 0.17434 0.30886 0.31967 0.0
C1559 C 0.17911 0.30866 0.33853 0.0
C1560 C 0.17703 0.3254 0.28906 0.0
C1561 C 0.19263 0.31623 0.28183 0.0
C1562 C 0.16765 0.3386 0.27798 0.0
C1563 C 0.15018 0.34749 0.28449 0.0
C1564 C 0.1358 0.33657 0.29198 0.0
C1565 C 0.11942 0.34488 0.29827 0.0
C1566 C 0.11722 0.36412 0.29716 0.0
C1567 C 0.13141 0.37511 0.28976 0.0
C1568 C 0.14782 0.36687 0.28345 0.0
C1569 C 0.2262 0.35344 0.21758 0.0
C1570 C 0.23095 0.37115 0.22428 0.0
C1571 C 0.2133 0.34247 0.22726 0.0
C1572 C 0.20485 0.34934 0.24346 0.0
C1573 C 0.20899 0.3674 0.24946 0.0
C1574 C 0.222 0.37812 0.24007 0.0
C1575 C 0.19331 0.33758 0.25576 0.0
C1576 C 0.17587 0.3444 0.26125 0.0
C1577 C 0.20114 0.32246 0.2655 0.0
C1578 C 0.21975 0.315 0.26112 0.0
C1579 C 0.23575 0.32462 0.2668 0.0
C1580 C 0.25329 0.31666 0.26437 0.0
C1581 C 0.25496 0.29911 0.25621 0.0
C1582 C 0.23911 0.28957 0.25034 0.0
C1583 C 0.22152 0.29742 0.25288 0.0
H1584 H 0.26855 0.29292 0.25446 0.0
H1585 H 0.10453 0.37053 0.30204 0.0
H1586 H 0.88227 0.97339 0.45917 0.0
H1587 H 0.90122 0.95342 0.47942 0.0
H1588 H 0.87256 0.97531 0.52733 0.0
H1589 H 0.85343 0.99437 0.50744 0.0
H1590 H 0.92541 0.96274 0.50341 0.0
H1591 H 0.87006 0.94953 0.56254 0.0
H1592 H 0.83746 0.93938 0.56456 0.0
H1593 H 0.84157 0.91413 0.51071 0.0
H1594 H 0.87433 0.92385 0.50845 0.0
H1595 H 0.94909 0.99021 0.58919 0.0
H1596 H 0.93761 0.98102 0.55893 0.0
H1597 H 0.93212 0.92439 0.57775 0.0
H1598 H 0.94384 0.93354 0.60843 0.0
H1599 H 0.90104 0.93581 0.56196 0.0
H1600 H 0.96123 0.93096 0.53978 0.0
H1601 H 0.99461 0.93711 0.53514 0.0
H1602 H 0.98196 0.991 0.51301 0.0
H1603 H 0.94845 0.98512 0.51743 0.0
C1604 C 0.87982 0.97355 0.47401 0.0
C1605 C 0.86643 0.98547 0.48173 0.0
C1606 C 0.89062 0.96215 0.48555 0.0
C1607 C 0.8881 0.96252 0.50491 0.0
C1608 C 0.87442 0.97418 0.51244 0.0
C1609 C 0.86361 0.98534 0.50101 0.0
C1610 C 0.90103 0.95288 0.51776 0.0
C1611 C 0.92012 0.95645 0.51603 0.0
C1612 C 0.8944 0.94363 0.53383 0.0
C1613 C 0.87475 0.93739 0.53535 0.0
C1614 C 0.86413 0.94162 0.55121 0.0
C1615 C 0.84557 0.936 0.55237 0.0
C1616 C 0.83745 0.92611 0.53778 0.0
C1617 C 0.84788 0.9218 0.522 0.0
C1618 C 0.86644 0.92739 0.52077 0.0
C1619 C 0.9458 0.97571 0.58691 0.0
C1620 C 0.94742 0.96263 0.6013 0.0
C1621 C 0.93937 0.97042 0.56947 0.0
C1622 C 0.93437 0.95192 0.56591 0.0
C1623 C 0.93617 0.93869 0.58012 0.0
C1624 C 0.94276 0.94398 0.59766 0.0
C1625 C 0.92485 0.94754 0.5482 0.0
C1626 C 0.90642 0.94127 0.549 0.0
C1627 C 0.93221 0.95359 0.53105 0.0
C1628 C 0.95232 0.95756 0.52882 0.0
C1629 C 0.96556 0.94414 0.53395 0.0
C1630 C 0.9845 0.94753 0.53125 0.0
C1631 C 0.99038 0.96436 0.52359 0.0
C1632 C 0.97735 0.97789 0.51872 0.0
C1633 C 0.95839 0.9745 0.52124 0.0
H1634 H 0.00505 0.967 0.52161 0.0
H1635 H 0.82307 0.9218 0.5387 0.0
H1636 H 0.26463 0.60459 0.71108 0.0
H1637 H 0.28929 0.62093 0.72814 0.0
H1638 H 0.25834 0.61376 0.77902 0.0
H1639 H 0.2346 0.59683 0.76244 0.0
H1640 H 0.28919 0.65155 0.74407 0.0
H1641 H 0.28036 0.61345 0.81651 0.0
H1642 H 0.27917 0.58116 0.82769 0.0
H1643 H 0.30618 0.56254 0.77792 0.0
H1644 H 0.30785 0.59477 0.76653 0.0
H1645 H 0.26601 0.70632 0.81446 0.0
H1646 H 0.27422 0.68541 0.78962 0.0
H1647 H 0.32096 0.66536 0.82144 0.0
H1648 H 0.31228 0.68623 0.84703 0.0
H1649 H 0.30309 0.63743 0.81003 0.0
H1650 H 0.32804 0.68567 0.77691 0.0
H1651 H 0.33319 0.71717 0.76458 0.0
H1652 H 0.28212 0.71389 0.73395 0.0
H1653 H 0.27646 0.68251 0.7463 0.0
C1654 C 0.26338 0.60622 0.72598 0.0
C1655 C 0.24766 0.5995 0.73542 0.0
C1656 C 0.27747 0.61553 0.73572 0.0
C1657 C 0.27598 0.6183 0.755 0.0
C1658 C 0.26034 0.61127 0.76433 0.0
C1659 C 0.24653 0.60178 0.75473 0.0
C1660 C 0.28912 0.63049 0.76532 0.0
C1661 C 0.29257 0.64838 0.75838 0.0
C1662 C 0.29492 0.62604 0.7836 0.0
C1663 C 0.2943 0.60663 0.79067 0.0
C1664 C 0.28628 0.60254 0.80803 0.0
C1665 C 0.28545 0.58421 0.81438 0.0
C1666 C 0.2926 0.56981 0.80353 0.0
C1667 C 0.30063 0.57371 0.78631 0.0
C1668 C 0.30151 0.59201 0.77989 0.0
C1669 C 0.27824 0.69771 0.81616 0.0
C1670 C 0.2883 0.69773 0.83287 0.0
C1671 C 0.28315 0.68591 0.80172 0.0
C1672 C 0.29843 0.67391 0.80342 0.0
C1673 C 0.30919 0.67457 0.81972 0.0
C1674 C 0.30423 0.68649 0.83433 0.0
C1675 C 0.30077 0.65895 0.78937 0.0
C1676 C 0.30045 0.64046 0.79552 0.0
C1677 C 0.29868 0.66267 0.77017 0.0
C1678 C 0.30188 0.68161 0.76252 0.0
C1679 C 0.31785 0.69167 0.7676 0.0
C1680 C 0.32087 0.70953 0.7606 0.0
C1681 C 0.30801 0.71751 0.74846 0.0
C1682 C 0.29211 0.70765 0.7433 0.0
C1683 C 0.28902 0.68979 0.75026 0.0
H1684 H 0.31036 0.73135 0.74307 0.0
H1685 H 0.29191 0.55562 0.80846 0.0
H1686 H 0.54773 0.00051 0.09916 0.0
H1687 H 0.56336 0.00409 0.06935 0.0
H1688 H 0.56043 0.06369 0.0746 0.0
H1689 H 0.54517 0.06027 0.10478 0.0
H1690 H 0.55094 0.02122 0.03727 0.0
H1691 H 0.5909 0.08001 0.05914 0.0
H1692 H 0.60669 0.09485 0.08578 0.0
H1693 H 0.62749 0.04175 0.10332 0.0
H1694 H 0.61162 0.02665 0.07687 0.0
H1695 H 0.61122 0.01281 0.95915 0.0
H1696 H 0.59193 0.03088 0.98082 0.0
H1697 H 0.62558 0.01151 0.02655 0.0
H1698 H 0.64493 0.99423 0.00521 0.0
H1699 H 0.61536 0.04534 0.03347 0.0
H1700 H 0.58419 0.98818 0.01037 0.0
H1701 H 0.56968 0.96928 0.98576 0.0
H1702 H 0.53265 0.01407 0.97259 0.0
H1703 H 0.54703 0.03332 0.99709 0.0
C1704 C 0.55046 0.0144 0.09406 0.0
C1705 C 0.54529 0.0301 0.10442 0.0
C1706 C 0.55934 0.01643 0.07697 0.0
C1707 C 0.56313 0.03415 0.0698 0.0
C1708 C 0.55793 0.04989 0.08002 0.0
C1709 C 0.54917 0.04789 0.09725 0.0
C1710 C 0.57276 0.03574 0.05171 0.0
C1711 C 0.56486 0.02692 0.03623 0.0
C1712 C 0.59078 0.04333 0.05027 0.0
C1713 C 0.60002 0.05226 0.06623 0.0
C1714 C 0.59882 0.07155 0.06875 0.0
C1715 C 0.60774 0.07998 0.0838 0.0
C1716 C 0.61806 0.06924 0.09626 0.0
C1717 C 0.61943 0.05004 0.09371 0.0
C1718 C 0.61044 0.04154 0.07874 0.0
C1719 C 0.61467 0.01283 0.97379 0.0
C1720 C 0.62937 0.00191 0.98055 0.0
C1721 C 0.60364 0.02309 0.98615 0.0
C1722 C 0.60715 0.02237 0.00536 0.0
C1723 C 0.62257 0.01239 0.01182 0.0
C1724 C 0.63356 0.00232 -0.00042 0.0
C1725 C 0.59395 0.02988 0.01929 0.0
C1726 C 0.6011 0.04049 0.03404 0.0
C1727 C 0.57528 0.02371 0.02012 0.0
C1728 C 0.56681 0.01223 0.00534 0.0
C1729 C 0.57303 0.99402 0.00214 0.0
C1730 C 0.56482 0.98324 0.98823 0.0
C1731 C 0.55031 0.99046 0.97756 0.0
C1732 C 0.54393 0.0085 0.98082 0.0
C1733 C 0.5521 0.01936 0.99471 0.0
H1734 H 0.54398 0.98206 0.96682 0.0
H1735 H 0.62501 0.07579 0.10787 0.0
H1736 H 0.72881 0.16455 0.63361 0.0
H1737 H 0.72008 0.15388 0.66456 0.0
H1738 H 0.68737 0.20344 0.67264 0.0
H1739 H 0.69571 0.21392 0.64112 0.0
H1740 H 0.7163 0.19757 0.69915 0.0
H1741 H 0.6639 0.16536 0.67749 0.0
H1742 H 0.64481 0.14607 0.65661 0.0
H1743 H 0.68108 0.09965 0.66578 0.0
H1744 H 0.70057 0.11868 0.68647 0.0
H1745 H 0.73709 0.14449 0.78361 0.0
H1746 H 0.71621 0.16185 0.76266 0.0
H1747 H 0.73701 0.1303 0.71616 0.0
H1748 H 0.75774 0.11338 0.7366 0.0
H1749 H 0.6976 0.13372 0.71698 0.0
H1750 H 0.75521 0.1712 0.72486 0.0
H1751 H 0.77651 0.18998 0.74408 0.0
H1752 H 0.73136 0.22575 0.75957 0.0
H1753 H 0.70976 0.20698 0.74061 0.0
C1754 C 0.71925 0.17284 0.64176 0.0
C1755 C 0.71285 0.18996 0.63512 0.0
C1756 C 0.71419 0.16673 0.65938 0.0
C1757 C 0.70294 0.17782 0.67082 0.0
C1758 C 0.69586 0.19462 0.66391 0.0
C1759 C 0.70059 0.20054 0.64598 0.0
C1760 C 0.70155 0.1729 0.6907 0.0
C1761 C 0.71151 0.18391 0.70336 0.0
C1762 C 0.69528 0.15512 0.69616 0.0
C1763 C 0.68369 0.1435 0.68363 0.0
C1764 C 0.66788 0.15107 0.67499 0.0
C1765 C 0.65697 0.14017 0.66318 0.0
C1766 C 0.66172 0.12164 0.65989 0.0
C1767 C 0.67739 0.11399 0.66838 0.0
C1768 C 0.68835 0.12482 0.6802 0.0
C1769 C 0.73708 0.1413 0.76891 0.0
C1770 C 0.74905 0.12765 0.76169 0.0
C1771 C 0.72515 0.15113 0.75703 0.0
C1772 C 0.72495 0.14714 0.73794 0.0
C1773 C 0.73677 0.13339 0.7309 0.0
C1774 C 0.74874 0.12384 0.74259 0.0
C1775 C 0.71364 0.15777 0.72454 0.0
C1776 C 0.70131 0.14783 0.71318 0.0
C1777 C 0.71791 0.17641 0.72015 0.0
C1778 C 0.73086 0.18757 0.73157 0.0
C1779 C 0.74982 0.18297 0.73251 0.0
C1780 C 0.76194 0.19362 0.74332 0.0
C1781 C 0.75528 0.20901 0.75309 0.0
C1782 C 0.73649 0.21379 0.75204 0.0
C1783 C 0.7243 0.20315 0.74128 0.0
H1784 H 0.76469 0.21726 0.76143 0.0
H1785 H 0.65325 0.11323 0.65075 0.0
H1786 H 0.1297 0.4963 0.01863 0.0
H1787 H 0.10516 0.48622 0.99731 0.0
H1788 H 0.1434 0.49073 0.95134 0.0
H1789 H 0.16759 0.50159 0.9725 0.0
H1790 H 0.11417 0.5095 0.94398 0.0
H1791 H 0.12522 0.44804 0.96725 0.0
H1792 H 0.1287 0.42382 0.99122 0.0
H1793 H 0.07262 0.43315 0.00923 0.0
H1794 H 0.06888 0.45761 0.98552 0.0
H1795 H 0.04912 0.44837 0.88605 0.0
H1796 H 0.07171 0.45124 0.91111 0.0
H1797 H 0.05003 0.5054 0.92467 0.0
H1798 H 0.02744 0.5028 0.89942 0.0
H1799 H 0.07057 0.45632 0.94842 0.0
H1800 H 0.08669 0.5336 0.93422 0.0
H1801 H 0.08539 0.55609 0.90837 0.0
H1802 H 0.0914 0.51167 0.86904 0.0
H1803 H 0.09298 0.48897 0.89464 0.0
C1804 C 0.13298 0.49452 0.00406 0.0
C1805 C 0.15048 0.49965 0.99714 0.0
C1806 C 0.11895 0.48881 0.99187 0.0
C1807 C 0.12241 0.48777 0.97268 0.0
C1808 C 0.14035 0.49158 0.96604 0.0
C1809 C 0.1542 0.49764 0.97814 0.0
C1810 C 0.10705 0.48472 0.95925 0.0
C1811 C 0.10469 0.49783 0.945 0.0
C1812 C 0.09464 0.46951 0.9605 0.0
C1813 C 0.09684 0.45478 0.97472 0.0
C1814 C 0.11368 0.44503 0.97642 0.0
C1815 C 0.11569 0.43124 0.98994 0.0
C1816 C 0.10091 0.42698 0.00177 0.0
C1817 C 0.08406 0.43647 7e-05 0.0
C1818 C 0.08199 0.45029 0.98658 0.0
C1819 C 0.04902 0.46087 0.89441 0.0
C1820 C 0.03662 0.47549 0.89051 0.0
C1821 C 0.06188 0.46241 0.90883 0.0
C1822 C 0.06267 0.47859 0.9196 0.0
C1823 C 0.04978 0.49287 0.91634 0.0
C1824 C 0.03689 0.49136 0.9019 0.0
C1825 C 0.07788 0.48106 0.93325 0.0
C1826 C 0.0801 0.46797 0.94754 0.0
C1827 C 0.0905 0.49603 0.93183 0.0
C1828 C 0.08972 0.50959 0.91634 0.0
C1829 C 0.08777 0.52865 0.92005 0.0
C1830 C 0.08699 0.54143 0.90545 0.0
C1831 C 0.08824 0.53531 0.88707 0.0
C1832 C 0.09035 0.51639 0.88327 0.0
C1833 C 0.09117 0.50357 0.89782 0.0
H1834 H 0.08763 0.54522 0.87579 0.0
H1835 H 0.10249 0.4163 0.01223 0.0
H1836 H 0.72686 0.86932 0.23803 0.0
H1837 H 0.74746 0.8477 0.222 0.0
H1838 H 0.79265 0.86371 0.2579 0.0
H1839 H 0.77166 0.8847 0.27483 0.0
H1840 H 0.78726 0.86545 0.20818 0.0
H1841 H 0.79887 0.83189 0.26455 0.0
H1842 H 0.79158 0.81604 0.29396 0.0
H1843 H 0.75714 0.77706 0.26477 0.0
H1844 H 0.76355 0.7932 0.2353 0.0
H1845 H 0.8134 0.80242 0.13784 0.0
H1846 H 0.81944 0.81752 0.1678 0.0
H1847 H 0.7684 0.79464 0.18942 0.0
H1848 H 0.76258 0.7794 0.16005 0.0
H1849 H 0.79268 0.79732 0.21647 0.0
H1850 H 0.77053 0.83794 0.16547 0.0
H1851 H 0.7744 0.85321 0.13502 0.0
H1852 H 0.82576 0.87743 0.1534 0.0
H1853 H 0.82224 0.86211 0.1839 0.0
C1854 C 0.74108 0.86799 0.24275 0.0
C1855 C 0.74771 0.87865 0.25763 0.0
C1856 C 0.75279 0.85555 0.23369 0.0
C1857 C 0.77143 0.85377 0.23907 0.0
C1858 C 0.77816 0.8644 0.25395 0.0
C1859 C 0.76623 0.87649 0.26346 0.0
C1860 C 0.78386 0.84262 0.22717 0.0
C1861 C 0.78914 0.85063 0.21023 0.0
C1862 C 0.78608 0.82329 0.22986 0.0
C1863 C 0.7814 0.81408 0.24771 0.0
C1864 C 0.78933 0.82029 0.26444 0.0
C1865 C 0.78544 0.81115 0.28113 0.0
C1866 C 0.77386 0.79558 0.28125 0.0
C1867 C 0.76614 0.78912 0.26467 0.0
C1868 C 0.76982 0.79832 0.24798 0.0
C1869 C 0.80375 0.80023 0.14916 0.0
C1870 C 0.78729 0.79003 0.14644 0.0
C1871 C 0.80721 0.80888 0.16627 0.0
C1872 C 0.7942 0.80751 0.18076 0.0
C1873 C 0.77867 0.79596 0.17849 0.0
C1874 C 0.77526 0.78734 0.16156 0.0
C1875 C 0.79468 0.82001 0.19714 0.0
C1876 C 0.79178 0.81227 0.2148 0.0
C1877 C 0.79415 0.83955 0.19506 0.0
C1878 C 0.79626 0.84871 0.1768 0.0
C1879 C 0.78269 0.84644 0.16295 0.0
C1880 C 0.78481 0.8551 0.1457 0.0
C1881 C 0.80035 0.86623 0.14225 0.0
C1882 C 0.81377 0.86875 0.15607 0.0
C1883 C 0.81172 0.86008 0.17332 0.0
H1884 H 0.80197 0.87293 0.1289 0.0
H1885 H 0.77091 0.7885 0.29418 0.0
H1886 H 0.36549 0.46554 0.49342 0.0
H1887 H 0.38873 0.48126 0.47455 0.0
H1888 H 0.39634 0.52233 0.51749 0.0
H1889 H 0.3731 0.50634 0.53679 0.0
H1890 H 0.39248 0.53743 0.48127 0.0
H1891 H 0.42958 0.49475 0.51288 0.0
H1892 H 0.43919 0.465 0.52681 0.0
H1893 H 0.4422 0.44023 0.47268 0.0
H1894 H 0.43208 0.46966 0.45841 0.0
H1895 H 0.47591 0.52294 0.40896 0.0
H1896 H 0.46483 0.52446 0.44106 0.0
H1897 H 0.40951 0.53646 0.42101 0.0
H1898 H 0.42103 0.53644 0.38919 0.0
H1899 H 0.44496 0.50139 0.45505 0.0
H1900 H 0.37981 0.55078 0.45192 0.0
H1901 H 0.37212 0.58208 0.44044 0.0
H1902 H 0.42981 0.59717 0.4419 0.0
H1903 H 0.43786 0.56604 0.45366 0.0
C1904 C 0.3721 0.47787 0.49893 0.0
C1905 C 0.36751 0.48468 0.51661 0.0
C1906 C 0.38544 0.4868 0.48815 0.0
C1907 C 0.39437 0.50282 0.49472 0.0
C1908 C 0.38965 0.50991 0.51225 0.0
C1909 C 0.37642 0.50077 0.52322 0.0
C1910 C 0.40823 0.51211 0.48274 0.0
C1911 C 0.40414 0.52976 0.47561 0.0
C1912 C 0.42391 0.50236 0.4761 0.0
C1913 C 0.42993 0.48447 0.48456 0.0
C1914 C 0.43209 0.48292 0.50393 0.0
C1915 C 0.43765 0.4661 0.51189 0.0
C1916 C 0.44125 0.45073 0.50063 0.0
C1917 C 0.43936 0.45216 0.48138 0.0
C1918 C 0.43371 0.46891 0.47334 0.0
C1919 C 0.46158 0.52673 0.41159 0.0
C1920 C 0.44929 0.5297 0.39678 0.0
C1921 C 0.4552 0.52747 0.4299 0.0
C1922 C 0.43627 0.53056 0.43366 0.0
C1923 C 0.42426 0.53458 0.41874 0.0
C1924 C 0.43079 0.53444 0.40047 0.0
C1925 C 0.42849 0.52633 0.45239 0.0
C1926 C 0.43371 0.50952 0.46088 0.0
C1927 C 0.41423 0.53715 0.4606 0.0
C1928 C 0.40945 0.55599 0.45364 0.0
C1929 C 0.39086 0.56079 0.44994 0.0
C1930 C 0.38644 0.57851 0.44334 0.0
C1931 C 0.40047 0.5916 0.44042 0.0
C1932 C 0.41896 0.587 0.44412 0.0
C1933 C 0.42346 0.5693 0.45073 0.0
H1934 H 0.39701 0.6053 0.4353 0.0
H1935 H 0.44549 0.43772 0.50681 0.0
H1936 H 0.22448 0.25599 0.3718 0.0
H1937 H 0.24986 0.24327 0.35296 0.0
H1938 H 0.2786 0.29576 0.35615 0.0
H1939 H 0.25346 0.30848 0.37506 0.0
H1940 H 0.27868 0.27952 0.32017 0.0
H1941 H 0.29089 0.26274 0.38464 0.0
H1942 H 0.28285 0.24803 0.41451 0.0
H1943 H 0.27725 0.19522 0.38735 0.0
H1944 H 0.28502 0.2097 0.35726 0.0
H1945 H 0.37204 0.26348 0.30004 0.0
H1946 H 0.34264 0.27158 0.31472 0.0
H1947 H 0.32742 0.2136 0.31662 0.0
H1948 H 0.35733 0.20535 0.30264 0.0
H1949 H 0.31734 0.22927 0.34722 0.0
H1950 H 0.30971 0.24472 0.28338 0.0
H1951 H 0.31878 0.25906 0.25362 0.0
H1952 H 0.31473 0.31326 0.27808 0.0
H1953 H 0.30603 0.29929 0.3081 0.0
C1954 C 0.23616 0.26483 0.36837 0.0
C1955 C 0.23707 0.28318 0.375 0.0
C1956 C 0.25062 0.25756 0.35763 0.0
C1957 C 0.2661 0.26858 0.35326 0.0
C1958 C 0.26673 0.28706 0.35936 0.0
C1959 C 0.25241 0.29427 0.37024 0.0
C1960 C 0.28216 0.26072 0.34314 0.0
C1961 C 0.2872 0.26857 0.32605 0.0
C1962 C 0.29285 0.24603 0.35059 0.0
C1963 C 0.28831 0.23734 0.36868 0.0
C1964 C 0.28779 0.24803 0.38502 0.0
C1965 C 0.28332 0.23972 0.40199 0.0
C1966 C 0.27949 0.22071 0.40282 0.0
C1967 C 0.28018 0.20995 0.38668 0.0
C1968 C 0.28463 0.21819 0.36967 0.0
C1969 C 0.36247 0.25245 0.30367 0.0
C1970 C 0.36694 0.23379 0.30017 0.0
C1971 C 0.34559 0.2571 0.31193 0.0
C1972 C 0.33257 0.24325 0.31633 0.0
C1973 C 0.33719 0.22454 0.31324 0.0
C1974 C 0.35428 0.21984 0.3053 0.0
C1975 C 0.31427 0.24838 0.32436 0.0
C1976 C 0.30872 0.23999 0.34107 0.0
C1977 C 0.30299 0.26243 0.31639 0.0
C1978 C 0.30738 0.27092 0.29809 0.0
C1979 C 0.31082 0.25969 0.28245 0.0
C1980 C 0.31592 0.26775 0.26553 0.0
C1981 C 0.31746 0.28703 0.26404 0.0
C1982 C 0.31361 0.29832 0.27933 0.0
C1983 C 0.30858 0.29034 0.29629 0.0
H1984 H 0.32169 0.29325 0.25108 0.0
H1985 H 0.27602 0.21431 0.41597 0.0
H1986 H 0.997 0.00581 0.65056 0.0
H1987 H 0.01935 0.0234 0.63236 0.0
H1988 H 0.04124 0.97257 0.60951 0.0
H1989 H 0.01838 0.95464 0.62754 0.0
H1990 H 0.06236 0.01888 0.62761 0.0
H1991 H 0.0366 0.97875 0.57591 0.0
H1992 H 0.01003 0.96037 0.56435 0.0
H1993 H 0.97409 0.00745 0.57133 0.0
H1994 H 0.00035 0.02588 0.58348 0.0
H1995 H 0.05702 0.08454 0.53831 0.0
H1996 H 0.06351 0.05381 0.55182 0.0
H1997 H 0.046 0.07399 0.60549 0.0
H1998 H 0.03952 0.10443 0.59199 0.0
H1999 H 0.03562 0.03371 0.56588 0.0
H2000 H 0.06461 0.05088 0.63998 0.0
H2001 H 0.08869 0.07085 0.65387 0.0
H2002 H 0.11815 0.07201 0.60206 0.0
H2003 H 0.09441 0.05181 0.58789 0.0
C2004 C 0.00665 0.99828 0.64183 0.0
C2005 C 0.00576 0.97886 0.64026 0.0
C2006 C 0.01952 0.00837 0.63155 0.0
C2007 C 0.03181 -0.00072 0.61953 0.0
C2008 C 0.03172 0.97981 0.61862 0.0
C2009 C 0.0187 0.96962 0.62891 0.0
C2010 C 0.04278 0.01078 0.60658 0.0
C2011 C 0.05702 0.02191 0.61385 0.0
C2012 C 0.03594 0.01439 0.58857 0.0
C2013 C 0.02033 0.00357 0.58073 0.0
C2014 C 0.02298 0.9851 0.57508 0.0
C2015 C 0.00799 0.97468 0.56849 0.0
C2016 C 0.99036 0.98271 0.56726 0.0
C2017 C 0.98771 0.00121 0.57246 0.0
C2018 C 0.00263 0.01163 0.57922 0.0
C2019 C 0.05524 0.08246 0.55311 0.0
C2020 C 0.04793 0.09666 0.56424 0.0
C2021 C 0.05892 0.06498 0.56079 0.0
C2022 C 0.05547 0.06165 0.57971 0.0
C2023 C 0.04922 0.07631 0.59098 0.0
C2024 C 0.04539 0.09365 0.58328 0.0
C2025 C 0.05485 0.04245 0.58713 0.0
C2026 C 0.04215 0.03012 0.57898 0.0
C2027 C 0.06323 0.03776 0.60429 0.0
C2028 C 0.07768 0.04978 0.61285 0.0
C2029 C 0.0763 0.05524 0.63157 0.0
C2030 C 0.08987 0.06665 0.63949 0.0
C2031 C 0.10493 0.0727 0.62886 0.0
C2032 C 0.10646 0.06734 0.61027 0.0
C2033 C 0.09292 0.05593 0.60228 0.0
H2034 H 0.11542 0.08154 0.63502 0.0
H2035 H 0.97878 0.97461 0.5622 0.0
H2036 H 0.28952 0.78679 0.85744 0.0
H2037 H 0.27068 0.81054 0.84156 0.0
H2038 H 0.22798 0.76963 0.83159 0.0
H2039 H 0.24633 0.74635 0.8476 0.0
H2040 H 0.23063 0.79599 0.80271 0.0
H2041 H 0.22569 0.79277 0.87348 0.0
H2042 H 0.24171 0.79576 0.90369 0.0
H2043 H 0.26322 0.84895 0.8873 0.0
H2044 H 0.24737 0.84615 0.85696 0.0
H2045 H 0.14878 0.78555 0.8471 0.0
H2046 H 0.1794 0.79893 0.85179 0.0
H2047 H 0.17025 0.83652 0.80601 0.0
H2048 H 0.13925 0.82312 0.80136 0.0
H2049 H 0.20152 0.83089 0.8545 0.0
H2050 H 0.20746 0.82771 0.778 0.0
H2051 H 0.18861 0.81994 0.75037 0.0
H2052 H 0.16287 0.77515 0.78021 0.0
H2053 H 0.18195 0.78233 0.80774 0.0
C2054 C 0.27636 0.78284 0.85129 0.0
C2055 C 0.2692 0.76487 0.85389 0.0
C2056 C 0.26567 0.79637 0.84222 0.0
C2057 C 0.24794 0.79183 0.83542 0.0
C2058 C 0.24168 0.77341 0.83657 0.0
C2059 C 0.25211 0.76012 0.84589 0.0
C2060 C 0.23407 0.8062 0.83062 0.0
C2061 C 0.22469 0.80452 0.81363 0.0
C2062 C 0.22631 0.81734 0.84481 0.0
C2063 C 0.23543 0.81926 0.86308 0.0
C2064 C 0.23381 0.8051 0.8764 0.0
C2065 C 0.24288 0.80674 0.8935 0.0
C2066 C 0.25348 0.82254 0.89741 0.0
C2067 C 0.255 0.83673 0.88424 0.0
C2068 C 0.24599 0.83513 0.86711 0.0
C2069 C 0.15297 0.79722 0.83857 0.0
C2070 C 0.14196 0.803 0.8236 0.0
C2071 C 0.17041 0.80505 0.84138 0.0
C2072 C 0.17725 0.81849 0.82901 0.0
C2073 C 0.16523 0.82613 0.81566 0.0
C2074 C 0.14757 0.81841 0.81298 0.0
C2075 C 0.19767 0.81975 0.82702 0.0
C2076 C 0.20821 0.82418 0.84278 0.0
C2077 C 0.20644 0.81097 0.81175 0.0
C2078 C 0.19595 0.80568 0.79489 0.0
C2079 C 0.19788 0.81611 0.77855 0.0
C2080 C 0.18716 0.81181 0.76293 0.0
C2081 C 0.17445 0.79714 0.76357 0.0
C2082 C 0.17259 0.78659 0.77975 0.0
C2083 C 0.18347 0.79067 0.79531 0.0
H2084 H 0.16614 0.7939 0.75148 0.0
H2085 H 0.2605 0.82378 0.91065 0.0
H2086 H 0.46618 0.01342 0.15142 0.0
H2087 H 0.45272 0.98884 0.13227 0.0
H2088 H 0.48119 0.0107 0.08426 0.0
H2089 H 0.49395 0.03593 0.10336 0.0
H2090 H 0.44939 0.99371 0.07378 0.0
H2091 H 0.50259 0.97779 0.11045 0.0
H2092 H 0.52174 0.97503 0.13875 0.0
H2093 H 0.47941 0.94185 0.1645 0.0
H2094 H 0.46006 0.94428 0.13628 0.0
H2095 H 0.48277 0.90972 0.03233 0.0
H2096 H 0.47675 0.93991 0.04669 0.0
H2097 H 0.43718 0.9146 0.08372 0.0
H2098 H 0.44287 0.88426 0.0692 0.0
H2099 H 0.46947 0.93323 0.10007 0.0
H2100 H 0.42038 0.94467 0.05689 0.0
H2101 H 0.40565 0.9467 0.02605 0.0
H2102 H 0.44519 0.9882 0.00957 0.0
H2103 H 0.46039 0.98618 0.04019 0.0
C2104 C 0.46888 0.0134 0.13661 0.0
C2105 C 0.48099 0.02649 0.12878 0.0
C2106 C 0.46132 -0.0007 0.12571 0.0
C2107 C 0.46635 0.99764 0.10695 0.0
C2108 C 0.47715 0.01169 0.09872 0.0
C2109 C 0.48438 0.02612 0.10959 0.0
C2110 C 0.46263 0.98004 0.09686 0.0
C2111 C 0.45378 0.98048 0.07948 0.0
C2112 C 0.46834 0.96275 0.10431 0.0
C2113 C 0.4798 0.96141 0.12138 0.0
C2114 C 0.49732 0.97002 0.12221 0.0
C2115 C 0.50822 0.96848 0.13821 0.0
C2116 C 0.50173 0.95841 0.15346 0.0
C2117 C 0.48438 0.94971 0.1527 0.0
C2118 C 0.47347 0.9511 0.13669 0.0
C2119 C 0.47241 0.91066 0.04319 0.0
C2120 C 0.46338 0.89463 0.04974 0.0
C2121 C 0.46888 0.92793 0.05123 0.0
C2122 C 0.45643 0.92947 0.06608 0.0
C2123 C 0.4467 0.91367 0.07211 0.0
C2124 C 0.44997 0.89638 0.06382 0.0
C2125 C 0.45613 0.94682 0.07705 0.0
C2126 C 0.46455 0.94638 0.09457 0.0
C2127 C 0.45059 0.96404 0.06936 0.0
C2128 C 0.44159 0.96519 0.05084 0.0
C2129 C 0.42606 0.9541 0.04664 0.0
C2130 C 0.41759 0.95529 0.0292 0.0
C2131 C 0.42446 0.96759 0.01587 0.0
C2132 C 0.43984 0.97872 0.01993 0.0
C2133 C 0.44839 0.97756 0.03733 0.0
H2134 H 0.41789 0.96848 0.00238 0.0
H2135 H 0.51018 0.95727 0.16585 0.0
H2136 H 0.71569 0.2702 0.61602 0.0
H2137 H 0.73338 0.28934 0.63819 0.0
H2138 H 0.78181 0.2554 0.62869 0.0
H2139 H 0.76455 0.23659 0.60659 0.0
H2140 H 0.7733 0.2615 0.66669 0.0
H2141 H 0.77919 0.295 0.60742 0.0
H2142 H 0.76579 0.31211 0.58093 0.0
H2143 H 0.74178 0.35184 0.61836 0.0
H2144 H 0.75487 0.3348 0.64509 0.0
H2145 H 0.86075 0.30917 0.66331 0.0
H2146 H 0.82931 0.31066 0.65068 0.0
H2147 H 0.80682 0.30816 0.70616 0.0
H2148 H 0.83834 0.30577 0.7187 0.0
H2149 H 0.7943 0.32539 0.65146 0.0
H2150 H 0.7767 0.27314 0.70718 0.0
H2151 H 0.7918 0.25476 0.73191 0.0
H2152 H 0.84126 0.25045 0.69888 0.0
H2153 H 0.82635 0.26855 0.67389 0.0
C2154 C 0.73012 0.26689 0.61869 0.0
C2155 C 0.73876 0.25191 0.6096 0.0
C2156 C 0.74016 0.27781 0.63133 0.0
C2157 C 0.75883 0.27367 0.6351 0.0
C2158 C 0.76736 0.2587 0.62605 0.0
C2159 C 0.75748 0.24801 0.61336 0.0
C2160 C 0.77 0.28479 0.64824 0.0
C2161 C 0.77753 0.27565 0.66367 0.0
C2162 C 0.77545 0.30323 0.64428 0.0
C2163 C 0.7678 0.31353 0.62823 0.0
C2164 C 0.77093 0.30731 0.60999 0.0
C2165 C 0.76342 0.31701 0.59494 0.0
C2166 C 0.75289 0.33302 0.59796 0.0
C2167 C 0.74991 0.33942 0.61604 0.0
C2168 C 0.75737 0.32975 0.63114 0.0
C2169 C 0.84911 0.30998 0.67282 0.0
C2170 C 0.8518 0.30723 0.69189 0.0
C2171 C 0.83112 0.31084 0.66561 0.0
C2172 C 0.81571 0.30899 0.67746 0.0
C2173 C 0.81852 0.30931 0.69677 0.0
C2174 C 0.83651 0.30803 0.70394 0.0
C2175 C 0.79807 0.30185 0.66957 0.0
C2176 C 0.78937 0.31162 0.65509 0.0
C2177 C 0.79163 0.28382 0.67422 0.0
C2178 C 0.8005 0.27236 0.68883 0.0
C2179 C 0.79076 0.26818 0.7052 0.0
C2180 C 0.79929 0.25782 0.71925 0.0
C2181 C 0.81751 0.25151 0.717 0.0
C2182 C 0.82717 0.25536 0.70062 0.0
C2183 C 0.81869 0.26564 0.6865 0.0
H2184 H 0.82411 0.24362 0.72795 0.0
H2185 H 0.74708 0.34051 0.58629 0.0
H2186 H 0.98689 0.45276 0.89579 0.0
H2187 H 0.97172 0.47437 0.91699 0.0
H2188 H 0.93694 0.49398 0.8722 0.0
H2189 H 0.95302 0.47313 0.85078 0.0
H2190 H 0.95431 0.52106 0.88474 0.0
H2191 H 0.91867 0.47536 0.91458 0.0
H2192 H 0.91101 0.44545 0.92933 0.0
H2193 H 0.94945 0.457 0.97345 0.0
H2194 H 0.95758 0.48687 0.95884 0.0
H2195 H 0.93812 0.59673 0.9444 0.0
H2196 H 0.92787 0.56741 0.93042 0.0
H2197 H 0.97505 0.5394 0.95444 0.0
H2198 H 0.98556 0.5686 0.96808 0.0
H2199 H 0.94095 0.51691 0.95217 0.0
H2200 H 0.9819 0.55724 0.91474 0.0
H2201 H 0.98929 0.58708 0.89958 0.0
H2202 H 0.93809 0.58454 0.86904 0.0
H2203 H 0.9303 0.55478 0.88426 0.0
C2204 C 0.97546 0.46112 0.8907 0.0
C2205 C 0.97111 0.46143 0.87173 0.0
C2206 C 0.9667 0.47347 0.90285 0.0
C2207 C 0.95314 0.48592 0.89624 0.0
C2208 C 0.94742 0.48464 0.87763 0.0
C2209 C 0.95653 0.47269 0.86541 0.0
C2210 C 0.94803 0.50248 0.90747 0.0
C2211 C 0.95069 0.52002 0.89933 0.0
C2212 C 0.94358 0.50135 0.92661 0.0
C2213 C 0.93879 0.48338 0.93554 0.0
C2214 C 0.9256 0.47149 0.92736 0.0
C2215 C 0.92115 0.45453 0.93572 0.0
C2216 C 0.92975 0.44932 0.95231 0.0
C2217 C 0.94279 0.46106 0.9606 0.0
C2218 C 0.94729 0.47803 0.9523 0.0
C2219 C 0.94603 0.58423 0.9471 0.0
C2220 C 0.96281 0.58498 0.95709 0.0
C2221 C 0.94011 0.56749 0.93919 0.0
C2222 C 0.95075 0.5513 0.94139 0.0
C2223 C 0.96659 0.55172 0.95269 0.0
C2224 C 0.97267 0.56845 0.96033 0.0
C2225 C 0.94766 0.53498 0.92935 0.0
C2226 C 0.9437 0.51766 0.93738 0.0
C2227 C 0.95067 0.5362 0.91002 0.0
C2228 C 0.95541 0.55398 0.9008 0.0
C2229 C 0.97216 0.56314 0.90491 0.0
C2230 C 0.97643 0.58001 0.8963 0.0
C2231 C 0.96413 0.58774 0.88341 0.0
C2232 C 0.94757 0.57857 0.87907 0.0
C2233 C 0.94322 0.56171 0.88768 0.0
H2234 H 0.96747 0.60079 0.87675 0.0
H2235 H 0.92628 0.43618 0.95876 0.0
H2236 H 0.65052 0.72067 0.16573 0.0
H2237 H 0.67836 0.70974 0.14968 0.0
H2238 H 0.69273 0.6761 0.19714 0.0
H2239 H 0.66428 0.68663 0.21306 0.0
H2240 H 0.7194 0.70386 0.18625 0.0
H2241 H 0.68879 0.65256 0.15948 0.0
H2242 H 0.66336 0.63531 0.14436 0.0
H2243 H 0.66766 0.6704 0.09635 0.0
H2244 H 0.6929 0.68806 0.11125 0.0
H2245 H 0.79388 0.71958 0.11826 0.0
H2246 H 0.77604 0.69765 0.13749 0.0
H2247 H 0.72506 0.72329 0.11921 0.0
H2248 H 0.7425 0.74446 0.09963 0.0
H2249 H 0.72523 0.68237 0.12111 0.0
H2250 H 0.7313 0.73893 0.1729 0.0
H2251 H 0.7539 0.75985 0.18796 0.0
H2252 H 0.7955 0.71719 0.18546 0.0
H2253 H 0.77285 0.69578 0.17109 0.0
C2254 C 0.65933 0.71048 0.17246 0.0
C2255 C 0.6554 0.70441 0.19051 0.0
C2256 C 0.67514 0.70416 0.16328 0.0
C2257 C 0.68748 0.69195 0.17216 0.0
C2258 C 0.68321 0.68529 0.18999 0.0
C2259 C 0.66706 0.6913 0.19903 0.0
C2260 C 0.70606 0.68919 0.16386 0.0
C2261 C 0.72099 0.69844 0.17228 0.0
C2262 C 0.70806 0.68215 0.14565 0.0
C2263 C 0.69283 0.67161 0.13651 0.0
C2264 C 0.68427 0.65667 0.14574 0.0
C2265 C 0.66987 0.64681 0.13719 0.0
C2266 C 0.66391 0.65174 0.1194 0.0
C2267 C 0.67233 0.66656 0.11011 0.0
C2268 C 0.68672 0.67647 0.11859 0.0
C2269 C 0.77886 0.72031 0.11821 0.0
C2270 C 0.76958 0.73386 0.10762 0.0
C2271 C 0.76872 0.70789 0.12929 0.0
C2272 C 0.74927 0.70911 0.13002 0.0
C2273 C 0.74008 0.72214 0.11886 0.0
C2274 C 0.75009 0.73431 0.10773 0.0
C2275 C 0.73792 0.69809 0.14312 0.0
C2276 C 0.72417 0.68652 0.13556 0.0
C2277 C 0.73684 0.70321 0.16203 0.0
C2278 C 0.75054 0.71592 0.17061 0.0
C2279 C 0.74528 0.73405 0.17557 0.0
C2280 C 0.75807 0.74596 0.18403 0.0
C2281 C 0.77621 0.73995 0.18744 0.0
C2282 C 0.7815 0.72189 0.18266 0.0
C2283 C 0.76867 0.70984 0.17441 0.0
H2284 H 0.78611 0.74925 0.1939 0.0
H2285 H 0.65277 0.64409 0.11281 0.0
H2286 H 0.51663 0.53355 0.36948 0.0
H2287 H 0.53661 0.51384 0.38887 0.0
H2288 H 0.51069 0.46505 0.3655 0.0
H2289 H 0.4915 0.48442 0.34585 0.0
H2290 H 0.52586 0.49312 0.41529 0.0
H2291 H 0.53435 0.42789 0.36659 0.0
H2292 H 0.54302 0.42179 0.33408 0.0
H2293 H 0.57127 0.47424 0.33138 0.0
H2294 H 0.56304 0.48058 0.36399 0.0
H2295 H 0.49819 0.40928 0.44934 0.0
H2296 H 0.50642 0.43837 0.43445 0.0
H2297 H 0.56329 0.42017 0.42959 0.0
H2298 H 0.55526 0.39102 0.44519 0.0
H2299 H 0.54978 0.43121 0.39688 0.0
H2300 H 0.55591 0.45833 0.45474 0.0
H2301 H 0.55065 0.46719 0.48736 0.0
H2302 H 0.49901 0.49298 0.47239 0.0
H2303 H 0.50377 0.48404 0.43971 0.0
C2304 C 0.51564 0.5186 0.36816 0.0
C2305 C 0.50244 0.5105 0.35628 0.0
C2306 C 0.52703 0.50737 0.37924 0.0
C2307 C 0.52538 0.48793 0.37849 0.0
C2308 C 0.51271 0.47995 0.36599 0.0
C2309 C 0.50151 0.49109 0.3549 0.0
C2310 C 0.5345 0.47583 0.39245 0.0
C2311 C 0.53141 0.47971 0.4113 0.0
C2312 C 0.5427 0.45869 0.38736 0.0
C2313 C 0.54809 0.4547 0.36783 0.0
C2314 C 0.5426 0.43805 0.35917 0.0
C2315 C 0.54738 0.43457 0.34068 0.0
C2316 C 0.55769 0.44761 0.33067 0.0
C2317 C 0.56327 0.46415 0.33915 0.0
C2318 C 0.55853 0.4677 0.35763 0.0
C2319 C 0.51257 0.41161 0.4457 0.0
C2320 C 0.52605 0.39781 0.44864 0.0
C2321 C 0.51729 0.42832 0.43717 0.0
C2322 C 0.53554 0.43156 0.43115 0.0
C2323 C 0.54917 0.41801 0.43432 0.0
C2324 C 0.54451 0.40133 0.44315 0.0
C2325 C 0.53932 0.44795 0.41934 0.0
C2326 C 0.5449 0.44487 0.40093 0.0
C2327 C 0.53386 0.46597 0.42489 0.0
C2328 C 0.53026 0.47055 0.44469 0.0
C2329 C 0.54333 0.46572 0.4584 0.0
C2330 C 0.54046 0.47082 0.47691 0.0
C2331 C 0.5246 0.4808 0.4819 0.0
C2332 C 0.51138 0.4854 0.46846 0.0
C2333 C 0.51417 0.48033 0.44993 0.0
H2334 H 0.52254 0.48495 0.49619 0.0
H2335 H 0.56134 0.4449 0.31635 0.0
H2336 H 0.40517 0.22744 0.22397 0.0
H2337 H 0.38474 0.25047 0.20963 0.0
H2338 H 0.33872 0.22983 0.24207 0.0
H2339 H 0.35896 0.20616 0.2557 0.0
H2340 H 0.32622 0.24188 0.20991 0.0
H2341 H 0.36437 0.26965 0.25855 0.0
H2342 H 0.39351 0.27777 0.27486 0.0
H2343 H 0.41548 0.30121 0.22467 0.0
H2344 H 0.38631 0.29371 0.20821 0.0
H2345 H 0.27628 0.32264 0.23314 0.0
H2346 H 0.29341 0.2938 0.22877 0.0
H2347 H 0.33191 0.3222 0.19263 0.0
H2348 H 0.31474 0.35126 0.19723 0.0
H2349 H 0.34929 0.30594 0.22053 0.0
H2350 H 0.30398 0.28535 0.17644 0.0
H2351 H 0.27227 0.27981 0.1647 0.0
H2352 H 0.26132 0.24329 0.21056 0.0
H2353 H 0.29291 0.24876 0.22269 0.0
C2354 C 0.39054 0.22744 0.22752 0.0
C2355 C 0.38359 0.21507 0.24087 0.0
C2356 C 0.37893 0.24072 0.2195 0.0
C2357 C 0.36033 0.24223 0.22518 0.0
C2358 C 0.35304 0.22897 0.23751 0.0
C2359 C 0.36458 0.21539 0.24522 0.0
C2360 C 0.34905 0.25859 0.21968 0.0
C2361 C 0.33123 0.2559 0.21222 0.0
C2362 C 0.35563 0.2769 0.22246 0.0
C2363 C 0.37334 0.2809 0.23212 0.0
C2364 C 0.37549 0.27641 0.25099 0.0
C2365 C 0.39195 0.28096 0.26027 0.0
C2366 C 0.40639 0.28978 0.25076 0.0
C2367 C 0.40432 0.29429 0.23199 0.0
C2368 C 0.3878 0.29001 0.22271 0.0
C2369 C 0.28826 0.32264 0.22411 0.0
C2370 C 0.29441 0.3392 0.21589 0.0
C2371 C 0.2979 0.3061 0.22136 0.0
C2372 C 0.31395 0.30579 0.21032 0.0
C2373 C 0.31952 0.32212 0.20118 0.0
C2374 C 0.30973 0.33869 0.20382 0.0
C2375 C 0.32633 0.28934 0.21088 0.0
C2376 C 0.34441 0.29198 0.21759 0.0
C2377 C 0.31971 0.27106 0.20788 0.0
C2378 C 0.30082 0.26748 0.20047 0.0
C2379 C 0.29479 0.27619 0.18405 0.0
C2380 C 0.27684 0.27305 0.17733 0.0
C2381 C 0.26479 0.26121 0.18688 0.0
C2382 C 0.27068 0.25243 0.20316 0.0
C2383 C 0.28863 0.2555 0.20993 0.0
H2384 H 0.25089 0.25882 0.18167 0.0
H2385 H 0.41913 0.29322 0.25796 0.0
H2386 H 0.83935 0.13781 0.79362 0.0
H2387 H 0.85807 0.16611 0.79707 0.0
H2388 H 0.80839 0.19938 0.79369 0.0
H2389 H 0.78976 0.17114 0.78962 0.0
H2390 H 0.85202 0.19082 0.76428 0.0
H2391 H 0.82336 0.24087 0.8208 0.0
H2392 H 0.81177 0.23935 0.853 0.0
H2393 H 0.84294 0.18937 0.86223 0.0
H2394 H 0.85494 0.19072 0.83021 0.0
H2395 H 0.8598 0.28129 0.73582 0.0
H2396 H 0.84477 0.25775 0.75516 0.0
H2397 H 0.89552 0.25074 0.78622 0.0
H2398 H 0.91076 0.27404 0.76646 0.0
H2399 H 0.85626 0.24525 0.80642 0.0
H2400 H 0.89661 0.22613 0.75489 0.0
H2401 H 0.907 0.22902 0.72239 0.0
H2402 H 0.85209 0.21556 0.70335 0.0
H2403 H 0.84125 0.21317 0.73575 0.0
C2404 C 0.83241 0.15114 0.79451 0.0
C2405 C 0.81321 0.15247 0.79151 0.0
C2406 C 0.84307 0.16724 0.79647 0.0
C2407 C 0.83455 0.18476 0.79578 0.0
C2408 C 0.81514 0.18596 0.79458 0.0
C2409 C 0.80453 0.16988 0.79223 0.0
C2410 C 0.84578 0.20138 0.79157 0.0
C2411 C 0.85321 0.20259 0.77363 0.0
C2412 C 0.84709 0.21674 0.80373 0.0
C2413 C 0.83989 0.21581 0.82301 0.0
C2414 C 0.82778 0.22958 0.82971 0.0
C2415 C 0.82114 0.22875 0.84794 0.0
C2416 C 0.82656 0.21424 0.85963 0.0
C2417 C 0.83867 0.20055 0.85313 0.0
C2418 C 0.84536 0.20131 0.83492 0.0
C2419 C 0.86754 0.27516 0.74715 0.0
C2420 C 0.88641 0.2792 0.74964 0.0
C2421 C 0.85892 0.26186 0.75827 0.0
C2422 C 0.86911 0.25251 0.772 0.0
C2423 C 0.88743 0.25797 0.77579 0.0
C2424 C 0.89612 0.27118 0.7645 0.0
C2425 C 0.86212 0.23461 0.77911 0.0
C2426 C 0.85537 0.23327 0.79733 0.0
C2427 C 0.86134 0.219 0.76723 0.0
C2428 C 0.86805 0.21978 0.74775 0.0
C2429 C 0.8867 0.22401 0.74378 0.0
C2430 C 0.89268 0.22555 0.72537 0.0
C2431 C 0.88019 0.22257 0.71081 0.0
C2432 C 0.86174 0.21794 0.71463 0.0
C2433 C 0.85566 0.21653 0.73302 0.0
H2434 H 0.88484 0.22378 0.69657 0.0
H2435 H 0.82142 0.21363 0.87374 0.0
H2436 H 0.01734 0.63121 0.99833 0.0
H2437 H 0.03812 0.61309 0.01743 0.0
H2438 H 0.99151 0.59156 0.04845 0.0
H2439 H 0.97022 0.60959 0.02863 0.0
H2440 H 0.04624 0.61143 0.05388 0.0
H2441 H 0.00132 0.55439 0.06088 0.0
H2442 H 0.97329 0.5385 0.04898 0.0
H2443 H 0.99225 0.54648 0.99301 0.0
H2444 H 0.02024 0.56268 0.00463 0.0
H2445 H 0.12521 0.55247 0.05392 0.0
H2446 H 0.09485 0.56159 0.06633 0.0
H2447 H 0.07053 0.55417 0.01204 0.0
H2448 H 0.10039 0.54464 -0.00024 0.0
H2449 H 0.04604 0.5445 0.03775 0.0
H2450 H 0.08949 0.59722 0.02716 0.0
H2451 H 0.11821 0.61469 0.03401 0.0
H2452 H 0.10301 0.6176 0.09161 0.0
H2453 H 0.07427 0.59999 0.08507 0.0
C2454 C 0.0114 0.62274 0.00927 0.0
C2455 C 0.99213 0.62166 0.01184 0.0
C2456 C 0.02336 0.61249 0.02035 0.0
C2457 C 0.01643 0.60092 0.03441 0.0
C2458 C 0.99717 0.60027 0.03758 0.0
C2459 C 0.98505 0.61059 0.02631 0.0
C2460 C 0.0298 0.5885 0.04393 0.0
C2461 C 0.04601 0.5966 0.05117 0.0
C2462 C 0.02946 0.56917 0.04067 0.0
C2463 C 0.0127 0.55973 0.03358 0.0
C2464 C -0.00058 0.55278 0.04604 0.0
C2465 C 0.98355 0.54379 0.03935 0.0
C2466 C 0.98095 0.54158 0.02023 0.0
C2467 C 0.99422 0.54835 0.00778 0.0
C2468 C 0.01006 0.55744 0.01441 0.0
C2469 C 0.11331 0.5525 0.04471 0.0
C2470 C 0.11533 0.54823 0.02573 0.0
C2471 C 0.09597 0.55765 0.05186 0.0
C2472 C 0.08044 0.55875 0.04009 0.0
C2473 C 0.08226 0.55336 0.02145 0.0
C2474 C 0.09946 0.54814 0.01436 0.0
C2475 C 0.06292 0.56786 0.04594 0.0
C2476 C 0.04602 0.559 0.04185 0.0
C2477 C 0.06271 0.58665 0.05175 0.0
C2478 C 0.07995 0.59711 0.0557 0.0
C2479 C 0.09236 0.60151 0.0413 0.0
C2480 C 0.10862 0.61143 0.04511 0.0
C2481 C 0.11247 0.61719 0.06325 0.0
C2482 C 0.10004 0.61307 0.07759 0.0
C2483 C 0.08378 0.60312 0.07384 0.0
H2484 H 0.12506 0.62488 0.06618 0.0
H2485 H 0.96868 0.53458 0.01507 0.0
H2486 H 0.7061 0.85614 0.30991 0.0
H2487 H 0.69906 0.82476 0.32164 0.0
H2488 H 0.65817 0.81794 0.2784 0.0
H2489 H 0.6652 0.84886 0.26662 0.0
H2490 H 0.65752 0.80011 0.32527 0.0
H2491 H 0.68527 0.78816 0.25213 0.0
H2492 H 0.70714 0.80386 0.23099 0.0
H2493 H 0.74028 0.82107 0.27747 0.0
H2494 H 0.71923 0.80451 0.29882 0.0
H2495 H 0.61178 0.75264 0.26113 0.0
H2496 H 0.62997 0.77064 0.28304 0.0
H2497 H 0.67083 0.72685 0.28563 0.0
H2498 H 0.6521 0.70833 0.26361 0.0
H2499 H 0.68506 0.76134 0.27539 0.0
H2500 H 0.6526 0.73881 0.32647 0.0
H2501 H 0.62589 0.72684 0.34421 0.0
H2502 H 0.59867 0.77967 0.33955 0.0
H2503 H 0.62503 0.79192 0.32154 0.0
C2504 C 0.69514 0.84815 0.3034 0.0
C2505 C 0.68639 0.85468 0.28719 0.0
C2506 C 0.69111 0.83031 0.31013 0.0
C2507 C 0.67825 0.81909 0.30072 0.0
C2508 C 0.66816 0.82645 0.28579 0.0
C2509 C 0.67228 0.84403 0.27899 0.0
C2510 C 0.67764 0.79878 0.3033 0.0
C2511 C 0.66391 0.7913 0.31487 0.0
C2512 C 0.68651 0.78731 0.29004 0.0
C2513 C 0.70059 0.79514 0.27711 0.0
C2514 C 0.69746 0.7949 0.25783 0.0
C2515 C 0.70971 0.80397 0.2458 0.0
C2516 C 0.72506 0.81348 0.25289 0.0
C2517 C 0.72839 0.81366 0.272 0.0
C2518 C 0.7164 0.8043 0.28405 0.0
C2519 C 0.62444 0.74664 0.26664 0.0
C2520 C 0.63066 0.72921 0.26063 0.0
C2521 C 0.63472 0.75684 0.27937 0.0
C2522 C 0.65161 0.74996 0.28625 0.0
C2523 C 0.65767 0.73224 0.28072 0.0
C2524 C 0.64705 0.72175 0.26815 0.0
C2525 C 0.66383 0.76305 0.29637 0.0
C2526 C 0.67964 0.76937 0.28692 0.0
C2527 C 0.65685 0.77339 0.31157 0.0
C2528 C 0.64095 0.76634 0.32274 0.0
C2529 C 0.64092 0.7479 0.32921 0.0
C2530 C 0.62581 0.74105 0.3393 0.0
C2531 C 0.61062 0.7525 0.34305 0.0
C2532 C 0.6105 0.77084 0.33672 0.0
C2533 C 0.62557 0.77777 0.32661 0.0
H2534 H 0.59892 0.74716 0.35084 0.0
H2535 H 0.7344 0.82065 0.24357 0.0
H2536 H 0.38719 0.39882 0.54357 0.0
H2537 H 0.41841 0.38934 0.55275 0.0
H2538 H 0.43063 0.44554 0.56972 0.0
H2539 H 0.39899 0.45493 0.56087 0.0
H2540 H 0.45227 0.43346 0.54154 0.0
H2541 H 0.43929 0.41202 0.60114 0.0
H2542 H 0.42213 0.39697 0.62663 0.0
H2543 H 0.42789 0.34406 0.59976 0.0
H2544 H 0.44481 0.35878 0.57394 0.0
H2545 H 0.53427 0.38337 0.51593 0.0
H2546 H 0.51558 0.40143 0.53814 0.0
H2547 H 0.4708 0.36198 0.53229 0.0
H2548 H 0.48915 0.34423 0.51013 0.0
H2549 H 0.47466 0.3743 0.56871 0.0
H2550 H 0.47052 0.39933 0.50525 0.0
H2551 H 0.48216 0.41417 0.47678 0.0
H2552 H 0.50482 0.45895 0.50904 0.0
H2553 H 0.49304 0.44442 0.5377 0.0
C2554 C 0.3963 0.40891 0.55004 0.0
C2555 C 0.39086 0.4275 0.55165 0.0
C2556 C 0.41408 0.40351 0.55543 0.0
C2557 C 0.42682 0.41671 0.56212 0.0
C2558 C 0.42093 0.4351 0.56489 0.0
C2559 C 0.40293 0.44044 0.55982 0.0
C2560 C 0.44682 0.41199 0.56164 0.0
C2561 C 0.45756 0.42096 0.5481 0.0
C2562 C 0.45364 0.39565 0.57011 0.0
C2563 C 0.44341 0.38656 0.58557 0.0
C2564 C 0.43682 0.39719 0.60059 0.0
C2565 C 0.42714 0.3887 0.61512 0.0
C2566 C 0.42394 0.36957 0.61482 0.0
C2567 C 0.43042 0.35888 0.59999 0.0
C2568 C 0.44012 0.36729 0.58542 0.0
C2569 C 0.52057 0.37843 0.51972 0.0
C2570 C 0.51304 0.36252 0.51126 0.0
C2571 C 0.50995 0.38871 0.53238 0.0
C2572 C 0.49184 0.38299 0.53688 0.0
C2573 C 0.48481 0.36654 0.52917 0.0
C2574 C 0.49524 0.3565 0.51638 0.0
C2575 C 0.47902 0.39497 0.54757 0.0
C2576 C 0.46983 0.38738 0.56301 0.0
C2577 C 0.47329 0.4124 0.5406 0.0
C2578 C 0.48134 0.42059 0.52359 0.0
C2579 C 0.47828 0.41218 0.50626 0.0
C2580 C 0.48484 0.42059 0.49006 0.0
C2581 C 0.49453 0.43739 0.49103 0.0
C2582 C 0.4975 0.44587 0.50824 0.0
C2583 C 0.49085 0.43758 0.52447 0.0
H2584 H 0.49958 0.44389 0.47844 0.0
H2585 H 0.41644 0.36302 0.62609 0.0
H2586 H 0.16514 0.63743 0.71529 0.0
H2587 H 0.15629 0.67006 0.7138 0.0
H2588 H 0.21423 0.68583 0.71452 0.0
H2589 H 0.22289 0.65306 0.71747 0.0
H2590 H 0.19971 0.70323 0.73934 0.0
H2591 H 0.18181 0.69828 0.67722 0.0
H2592 H 0.16806 0.68537 0.64865 0.0
H2593 H 0.11361 0.68934 0.67261 0.0
H2594 H 0.12701 0.702 0.70143 0.0
H2595 H 0.12511 0.7843 0.74124 0.0
H2596 H 0.14816 0.7664 0.72342 0.0
H2597 H 0.15072 0.72603 0.76761 0.0
H2598 H 0.12773 0.74345 0.7851 0.0
H2599 H 0.14333 0.73071 0.71091 0.0
H2600 H 0.18821 0.71121 0.77441 0.0
H2601 H 0.20616 0.72625 0.7995 0.0
H2602 H 0.21308 0.77491 0.76573 0.0
H2603 H 0.19457 0.76041 0.74075 0.0
C2604 C 0.17594 0.64789 0.71447 0.0
C2605 C 0.19464 0.64292 0.71646 0.0
C2606 C 0.17092 0.6666 0.71346 0.0
C2607 C 0.18456 0.68061 0.71393 0.0
C2608 C 0.2034 0.67539 0.71424 0.0
C2609 C 0.20838 0.65669 0.71581 0.0
C2610 C 0.17906 0.7002 0.71773 0.0
C2611 C 0.18762 0.70932 0.73273 0.0
C2612 C 0.16372 0.7088 0.70884 0.0
C2613 C 0.15547 0.7011 0.69155 0.0
C2614 C 0.16692 0.6963 0.67646 0.0
C2615 C 0.15917 0.68903 0.6602 0.0
C2616 C 0.13997 0.68653 0.65882 0.0
C2617 C 0.12848 0.69131 0.67369 0.0
C2618 C 0.13614 0.69858 0.68998 0.0
C2619 C 0.13081 0.77171 0.74718 0.0
C2620 C 0.12455 0.76518 0.76449 0.0
C2621 C 0.14399 0.76156 0.73704 0.0
C2622 C 0.15138 0.74505 0.74432 0.0
C2623 C 0.14554 0.73894 0.76188 0.0
C2624 C 0.1322 0.74882 0.77179 0.0
C2625 C 0.1633 0.73262 0.73307 0.0
C2626 C 0.15588 0.72483 0.71682 0.0
C2627 C 0.1801 0.72557 0.74027 0.0
C2628 C 0.18995 0.73478 0.75581 0.0
C2629 C 0.19341 0.72519 0.77245 0.0
C2630 C 0.20361 0.73365 0.78666 0.0
C2631 C 0.2107 0.75156 0.78423 0.0
C2632 C 0.20749 0.76108 0.76763 0.0
C2633 C 0.19694 0.75286 0.75355 0.0
H2634 H 0.21869 0.75805 0.79519 0.0
H2635 H 0.13401 0.6809 0.64622 0.0
H2636 H 0.50809 0.85218 0.00461 0.0
H2637 H 0.52438 0.8728 0.98354 0.0
H2638 H 0.47291 0.88552 0.95561 0.0
H2639 H 0.45613 0.86542 0.97757 0.0
H2640 H 0.52492 0.87356 0.94197 0.0
H2641 H 0.47424 0.91836 0.95286 0.0
H2642 H 0.44913 0.93208 0.97175 0.0
H2643 H 0.48789 0.94286 0.01575 0.0
H2644 H 0.51289 0.92813 0.99766 0.0
H2645 H 0.59897 0.9425 0.93377 0.0
H2646 H 0.56829 0.92946 0.92637 0.0
H2647 H 0.55706 0.92305 0.98485 0.0
H2648 H 0.58737 0.93569 0.99234 0.0
H2649 H 0.52719 0.93829 0.96527 0.0
H2650 H 0.57329 0.88692 0.95975 0.0
H2651 H 0.60006 0.87205 0.94434 0.0
H2652 H 0.57169 0.87477 0.89193 0.0
H2653 H 0.54483 0.88983 0.90706 0.0
C2654 C 0.50015 0.85931 0.99401 0.0
C2655 C 0.48078 0.85744 0.99296 0.0
C2656 C 0.50952 0.87104 0.98189 0.0
C2657 C 0.49982 0.88097 0.96823 0.0
C2658 C 0.48058 0.87839 0.96638 0.0
C2659 C 0.47106 0.8668 0.97881 0.0
C2660 C 0.51039 0.89476 0.95727 0.0
C2661 C 0.525 0.88801 0.94626 0.0
C2662 C 0.51048 0.9136 0.96281 0.0
C2663 C 0.4953 0.92172 0.97407 0.0
C2664 C 0.47726 0.92318 0.96678 0.0
C2665 C 0.46304 0.93113 0.97736 0.0
C2666 C 0.46684 0.93806 0.99508 0.0
C2667 C 0.48486 0.93715 0.00221 0.0
C2668 C 0.49902 0.92888 0.99185 0.0
C2669 C 0.58993 0.93833 0.94503 0.0
C2670 C 0.59563 0.9402 0.96367 0.0
C2671 C 0.57239 0.93098 0.94076 0.0
C2672 C 0.56036 0.92552 0.95507 0.0
C2673 C 0.56604 0.92745 0.9736 0.0
C2674 C 0.58347 0.93458 0.97785 0.0
C2675 C 0.54224 0.91654 0.95139 0.0
C2676 C 0.52643 0.92432 0.95966 0.0
C2677 C 0.5411 0.89863 0.94349 0.0
C2678 C 0.55723 0.8897 0.93445 0.0
C2679 C 0.57285 0.88447 0.94492 0.0
C2680 C 0.58801 0.87599 0.93625 0.0
C2681 C 0.5876 0.87253 0.91715 0.0
C2682 C 0.57201 0.87751 0.9067 0.0
C2683 C 0.55683 0.88602 0.91531 0.0
H2684 H 0.59934 0.86595 0.91046 0.0
H2685 H 0.45586 0.94425 0.00324 0.0
H2686 H 0.90137 0.03767 0.44176 0.0
H2687 H 0.93192 0.05217 0.43617 0.0
H2688 H 0.92782 0.08081 0.48857 0.0
H2689 H 0.89785 0.06609 0.4945 0.0
H2690 H 0.94041 0.10098 0.4481 0.0
H2691 H 0.95169 0.0508 0.49835 0.0
H2692 H 0.94842 0.0174 0.50535 0.0
H2693 H 0.97539 0.00373 0.45393 0.0
H2694 H 0.97856 0.03711 0.44658 0.0
H2695 H 0.99596 0.1399 0.51157 0.0
H2696 H 0.97514 0.1223 0.49192 0.0
H2697 H 0.02171 0.09307 0.46807 0.0
H2698 H 0.04301 0.11086 0.4882 0.0
H2699 H 0.9939 0.06937 0.47806 0.0
H2700 H 0.99734 0.12124 0.4397 0.0
H2701 H -0.00035 0.15419 0.43072 0.0
H2702 H 0.94547 0.16449 0.45338 0.0
H2703 H 0.94293 0.1317 0.46279 0.0
C2704 C 0.90699 0.0472 0.45197 0.0
C2705 C 0.89735 0.05071 0.46862 0.0
C2706 C 0.92435 0.05543 0.44874 0.0
C2707 C 0.93194 0.06756 0.46194 0.0
C2708 C 0.92206 0.07151 0.47823 0.0
C2709 C 0.90503 0.06302 0.48164 0.0
C2710 C 0.95068 0.07555 0.45985 0.0
C2711 C 0.95231 0.09408 0.45424 0.0
C2712 C 0.96631 0.06619 0.46703 0.0
C2713 C 0.96533 0.04632 0.47194 0.0
C2714 C 0.95695 0.04063 0.4886 0.0
C2715 C 0.95507 0.02173 0.49259 0.0
C2716 C 0.96165 0.00843 0.48006 0.0
C2717 C 0.97026 0.01404 0.46359 0.0
C2718 C 0.9721 0.03293 0.45951 0.0
C2719 C 0.0019 0.12986 0.50206 0.0
C2720 C 0.02113 0.12675 0.50143 0.0
C2721 C 0.98995 0.11991 0.49066 0.0
C2722 C 0.99687 0.10664 0.47821 0.0
C2723 C 0.01612 0.10343 0.47742 0.0
C2724 C 0.02823 0.11356 0.48889 0.0
C2725 C 0.98338 0.09538 0.46747 0.0
C2726 C 0.98257 0.07619 0.47084 0.0
C2727 C 0.9687 0.1041 0.45766 0.0
C2728 C 0.96993 0.12391 0.45191 0.0
C2729 C 0.98593 0.13053 0.44284 0.0
C2730 C 0.98729 0.1492 0.43767 0.0
C2731 C 0.97271 0.16142 0.44146 0.0
C2732 C 0.95674 0.15499 0.45041 0.0
C2733 C 0.95531 0.13633 0.45562 0.0
H2734 H 0.97379 0.17587 0.43746 0.0
H2735 H 0.96005 0.9938 0.48307 0.0
loop_
_geom_bond_atom_site_label_1
_geom_bond_atom_site_label_2
_geom_bond_distance
_geom_bond_site_symmetry_2
_ccdc_geom_bond_type
Co0 O1 2.216 . S
Co0 O2 2.091 . S
Co0 O4 2.004 . S
Co0 O10 2.021 . S
Co0 O12 2.137 . S
Co0 O13 2.244 . S
O1 Co0 2.216 . S
O1 C8 1.247 . S
O2 Co0 2.091 . S
O2 C8 1.261 . S
C3 O12 1.247 . S
C3 O13 1.272 . S
O4 Co0 2.004 . S
O4 C9 1.259 . S
Co5 O6 2.061 . S
Co5 O11 2.052 . S
Co5 O13 2.135 . S
O6 Co5 2.061 . S
O6 C9 1.235 . S
C7 O10 1.238 . S
C7 O11 1.241 . S
C8 O1 1.247 . S
C8 O2 1.261 . S
C9 O4 1.259 . S
C9 O6 1.235 . S
O10 Co0 2.021 . S
O10 C7 1.238 . S
O11 Co5 2.052 . S
O11 C7 1.241 . S
O12 Co0 2.137 . S
O12 C3 1.247 . S
O13 Co0 2.244 . S
O13 C3 1.272 . S
O13 Co5 2.135 . S
Co14 O15 2.216 . S
Co14 O16 2.091 . S
Co14 O18 2.004 . S
Co14 O24 2.021 . S
Co14 O26 2.137 . S
Co14 O27 2.244 . S
O15 Co14 2.216 . S
O15 C22 1.247 . S
O16 Co14 2.091 . S
O16 C22 1.261 . S
C17 O26 1.247 . S
C17 O27 1.272 . S
O18 Co14 2.004 . S
O18 C23 1.259 . S
Co19 O20 2.061 . S
Co19 O25 2.052 . S
Co19 O27 2.135 . S
O20 Co19 2.061 . S
O20 C23 1.235 . S
C21 O24 1.238 . S
C21 O25 1.241 . S
C22 O15 1.247 . S
C22 O16 1.261 . S
C23 O18 1.259 . S
C23 O20 1.235 . S
O24 Co14 2.021 . S
O24 C21 1.238 . S
O25 Co19 2.052 . S
O25 C21 1.241 . S
O26 Co14 2.137 . S
O26 C17 1.247 . S
O27 Co14 2.244 . S
O27 C17 1.272 . S
O27 Co19 2.135 . S
Co28 O29 2.216 . S
Co28 O30 2.091 . S
Co28 O32 2.004 . S
Co28 O38 2.021 . S
Co28 O40 2.137 . S
Co28 O41 2.244 . S
O29 Co28 2.216 . S
O29 C36 1.247 . S
O30 Co28 2.091 . S
O30 C36 1.261 . S
C31 O40 1.247 . S
C31 O41 1.272 . S
O32 Co28 2.004 . S
O32 C37 1.259 . S
Co33 O34 2.061 . S
Co33 O39 2.052 . S
Co33 O41 2.135 . S
O34 Co33 2.061 . S
O34 C37 1.235 . S
C35 O38 1.238 . S
C35 O39 1.241 . S
C36 O29 1.247 . S
C36 O30 1.261 . S
C37 O32 1.259 . S
C37 O34 1.235 . S
O38 Co28 2.021 . S
O38 C35 1.238 . S
O39 Co33 2.052 . S
O39 C35 1.241 . S
O40 Co28 2.137 . S
O40 C31 1.247 . S
O41 Co28 2.244 . S
O41 C31 1.272 . S
O41 Co33 2.135 . S
Co42 O43 2.216 . S
Co42 O44 2.091 . S
Co42 O46 2.004 . S
Co42 O52 2.021 . S
Co42 O54 2.137 . S
Co42 O55 2.244 . S
O43 Co42 2.216 . S
O43 C50 1.247 . S
O44 Co42 2.091 . S
O44 C50 1.261 . S
C45 O54 1.247 . S
C45 O55 1.272 . S
O46 Co42 2.004 . S
O46 C51 1.259 . S
Co47 O48 2.061 . S
Co47 O53 2.052 . S
Co47 O55 2.135 . S
O48 Co47 2.061 . S
O48 C51 1.235 . S
C49 O52 1.238 . S
C49 O53 1.241 . S
C50 O43 1.247 . S
C50 O44 1.261 . S
C51 O46 1.259 . S
C51 O48 1.235 . S
O52 Co42 2.021 . S
O52 C49 1.238 . S
O53 Co47 2.052 . S
O53 C49 1.241 . S
O54 Co42 2.137 . S
O54 C45 1.247 . S
O55 Co42 2.244 . S
O55 C45 1.272 . S
O55 Co47 2.135 . S
Co56 O57 2.216 . S
Co56 O58 2.091 . S
Co56 O60 2.004 . S
Co56 O66 2.021 . S
Co56 O68 2.137 . S
Co56 O69 2.244 . S
O57 Co56 2.216 . S
O57 C64 1.247 . S
O58 Co56 2.091 . S
O58 C64 1.261 . S
C59 O68 1.247 . S
C59 O69 1.272 . S
O60 Co56 2.004 . S
O60 C65 1.259 . S
Co61 O62 2.061 . S
Co61 O67 2.052 . S
Co61 O69 2.135 . S
O62 Co61 2.061 . S
O62 C65 1.235 . S
C63 O66 1.238 . S
C63 O67 1.241 . S
C64 O57 1.247 . S
C64 O58 1.261 . S
C65 O60 1.259 . S
C65 O62 1.235 . S
O66 Co56 2.021 . S
O66 C63 1.238 . S
O67 Co61 2.052 . S
O67 C63 1.241 . S
O68 Co56 2.137 . S
O68 C59 1.247 . S
O69 Co56 2.244 . S
O69 C59 1.272 . S
O69 Co61 2.135 . S
Co70 O71 2.216 . S
Co70 O72 2.091 . S
Co70 O74 2.004 . S
Co70 O80 2.021 . S
Co70 O82 2.137 . S
Co70 O83 2.244 . S
O71 Co70 2.216 . S
O71 C78 1.247 . S
O72 Co70 2.091 . S
O72 C78 1.261 . S
C73 O82 1.247 . S
C73 O83 1.272 . S
O74 Co70 2.004 . S
O74 C79 1.259 . S
Co75 O76 2.061 . S
Co75 O81 2.052 . S
Co75 O83 2.135 . S
O76 Co75 2.061 . S
O76 C79 1.235 . S
C77 O80 1.238 . S
C77 O81 1.241 . S
C78 O71 1.247 . S
C78 O72 1.261 . S
C79 O74 1.259 . S
C79 O76 1.235 . S
O80 Co70 2.021 . S
O80 C77 1.238 . S
O81 Co75 2.052 . S
O81 C77 1.241 . S
O82 Co70 2.137 . S
O82 C73 1.247 . S
O83 Co70 2.244 . S
O83 C73 1.272 . S
O83 Co75 2.135 . S
Co84 O85 2.216 . S
Co84 O86 2.091 . S
Co84 O88 2.004 . S
Co84 O94 2.021 . S
Co84 O96 2.137 . S
Co84 O97 2.244 . S
O85 Co84 2.216 . S
O85 C92 1.247 . S
O86 Co84 2.091 . S
O86 C92 1.261 . S
C87 O96 1.247 . S
C87 O97 1.272 . S
O88 Co84 2.004 . S
O88 C93 1.259 . S
Co89 O90 2.061 . S
Co89 O95 2.052 . S
Co89 O97 2.135 . S
O90 Co89 2.061 . S
O90 C93 1.235 . S
C91 O94 1.238 . S
C91 O95 1.241 . S
C92 O85 1.247 . S
C92 O86 1.261 . S
C93 O88 1.259 . S
C93 O90 1.235 . S
O94 Co84 2.021 . S
O94 C91 1.238 . S
O95 Co89 2.052 . S
O95 C91 1.241 . S
O96 Co84 2.137 . S
O96 C87 1.247 . S
O97 Co84 2.244 . S
O97 C87 1.272 . S
O97 Co89 2.135 . S
Co98 O99 2.216 . S
Co98 O100 2.091 . S
Co98 O102 2.004 . S
Co98 O108 2.021 . S
Co98 O110 2.137 . S
Co98 O111 2.244 . S
O99 Co98 2.216 . S
O99 C106 1.247 . S
O100 Co98 2.091 . S
O100 C106 1.261 . S
C101 O110 1.247 . S
C101 O111 1.272 . S
O102 Co98 2.004 . S
O102 C107 1.259 . S
Co103 O104 2.061 . S
Co103 O109 2.052 . S
Co103 O111 2.135 . S
O104 Co103 2.061 . S
O104 C107 1.235 . S
C105 O108 1.238 . S
C105 O109 1.241 . S
C106 O99 1.247 . S
C106 O100 1.261 . S
C107 O102 1.259 . S
C107 O104 1.235 . S
O108 Co98 2.021 . S
O108 C105 1.238 . S
O109 Co103 2.052 . S
O109 C105 1.241 . S
O110 Co98 2.137 . S
O110 C101 1.247 . S
O111 Co98 2.244 . S
O111 C101 1.272 . S
O111 Co103 2.135 . S
Co112 O113 2.216 . S
Co112 O114 2.091 . S
Co112 O116 2.004 . S
Co112 O122 2.021 . S
Co112 O124 2.137 . S
Co112 O125 2.244 . S
O113 Co112 2.216 . S
O113 C120 1.247 . S
O114 Co112 2.091 . S
O114 C120 1.261 . S
C115 O124 1.247 . S
C115 O125 1.272 . S
O116 Co112 2.004 . S
O116 C121 1.259 . S
Co117 O118 2.061 . S
Co117 O123 2.052 . S
Co117 O125 2.135 . S
O118 Co117 2.061 . S
O118 C121 1.235 . S
C119 O122 1.238 . S
C119 O123 1.241 . S
C120 O113 1.247 . S
C120 O114 1.261 . S
C121 O116 1.259 . S
C121 O118 1.235 . S
O122 Co112 2.021 . S
O122 C119 1.238 . S
O123 Co117 2.052 . S
O123 C119 1.241 . S
O124 Co112 2.137 . S
O124 C115 1.247 . S
O125 Co112 2.244 . S
O125 C115 1.272 . S
O125 Co117 2.135 . S
Co126 O127 2.216 . S
Co126 O128 2.091 . S
Co126 O130 2.004 . S
Co126 O136 2.021 . S
Co126 O138 2.137 . S
Co126 O139 2.244 . S
O127 Co126 2.216 . S
O127 C134 1.247 . S
O128 Co126 2.091 . S
O128 C134 1.261 . S
C129 O138 1.247 . S
C129 O139 1.272 . S
O130 Co126 2.004 . S
O130 C135 1.259 . S
Co131 O132 2.061 . S
Co131 O137 2.052 . S
Co131 O139 2.135 . S
O132 Co131 2.061 . S
O132 C135 1.235 . S
C133 O136 1.238 . S
C133 O137 1.241 . S
C134 O127 1.247 . S
C134 O128 1.261 . S
C135 O130 1.259 . S
C135 O132 1.235 . S
O136 Co126 2.021 . S
O136 C133 1.238 . S
O137 Co131 2.052 . S
O137 C133 1.241 . S
O138 Co126 2.137 . S
O138 C129 1.247 . S
O139 Co126 2.244 . S
O139 C129 1.272 . S
O139 Co131 2.135 . S
Co140 O141 2.216 . S
Co140 O142 2.091 . S
Co140 O144 2.004 . S
Co140 O150 2.021 . S
Co140 O152 2.137 . S
Co140 O153 2.244 . S
O141 Co140 2.216 . S
O141 C148 1.247 . S
O142 Co140 2.091 . S
O142 C148 1.261 . S
C143 O152 1.247 . S
C143 O153 1.272 . S
O144 Co140 2.004 . S
O144 C149 1.259 . S
Co145 O146 2.061 . S
Co145 O151 2.052 . S
Co145 O153 2.135 . S
O146 Co145 2.061 . S
O146 C149 1.235 . S
C147 O150 1.238 . S
C147 O151 1.241 . S
C148 O141 1.247 . S
C148 O142 1.261 . S
C149 O144 1.259 . S
C149 O146 1.235 . S
O150 Co140 2.021 . S
O150 C147 1.238 . S
O151 Co145 2.052 . S
O151 C147 1.241 . S
O152 Co140 2.137 . S
O152 C143 1.247 . S
O153 Co140 2.244 . S
O153 C143 1.272 . S
O153 Co145 2.135 . S
Co154 O155 2.216 . S
Co154 O156 2.091 . S
Co154 O158 2.004 . S
Co154 O164 2.021 . S
Co154 O166 2.137 . S
Co154 O167 2.244 . S
O155 Co154 2.216 . S
O155 C162 1.247 . S
O156 Co154 2.091 . S
O156 C162 1.261 . S
C157 O166 1.247 . S
C157 O167 1.272 . S
O158 Co154 2.004 . S
O158 C163 1.259 . S
Co159 O160 2.061 . S
Co159 O165 2.052 . S
Co159 O167 2.135 . S
O160 Co159 2.061 . S
O160 C163 1.235 . S
C161 O164 1.238 . S
C161 O165 1.241 . S
C162 O155 1.247 . S
C162 O156 1.261 . S
C163 O158 1.259 . S
C163 O160 1.235 . S
O164 Co154 2.021 . S
O164 C161 1.238 . S
O165 Co159 2.052 . S
O165 C161 1.241 . S
O166 Co154 2.137 . S
O166 C157 1.247 . S
O167 Co154 2.244 . S
O167 C157 1.272 . S
O167 Co159 2.135 . S
Co168 O169 2.216 . S
Co168 O170 2.091 . S
Co168 O172 2.004 . S
Co168 O178 2.021 . S
Co168 O180 2.137 . S
Co168 O181 2.244 . S
O169 Co168 2.216 . S
O169 C176 1.247 . S
O170 Co168 2.091 . S
O170 C176 1.261 . S
C171 O180 1.247 . S
C171 O181 1.272 . S
O172 Co168 2.004 . S
O172 C177 1.259 . S
Co173 O174 2.061 . S
Co173 O179 2.052 . S
Co173 O181 2.135 . S
O174 Co173 2.061 . S
O174 C177 1.235 . S
C175 O178 1.238 . S
C175 O179 1.241 . S
C176 O169 1.247 . S
C176 O170 1.261 . S
C177 O172 1.259 . S
C177 O174 1.235 . S
O178 Co168 2.021 . S
O178 C175 1.238 . S
O179 Co173 2.052 . S
O179 C175 1.241 . S
O180 Co168 2.137 . S
O180 C171 1.247 . S
O181 Co168 2.244 . S
O181 C171 1.272 . S
O181 Co173 2.135 . S
Co182 O183 2.216 . S
Co182 O184 2.091 . S
Co182 O186 2.004 . S
Co182 O192 2.021 . S
Co182 O194 2.137 . S
Co182 O195 2.244 . S
O183 Co182 2.216 . S
O183 C190 1.247 . S
O184 Co182 2.091 . S
O184 C190 1.261 . S
C185 O194 1.247 . S
C185 O195 1.272 . S
O186 Co182 2.004 . S
O186 C191 1.259 . S
Co187 O188 2.061 . S
Co187 O193 2.052 . S
Co187 O195 2.135 . S
O188 Co187 2.061 . S
O188 C191 1.235 . S
C189 O192 1.238 . S
C189 O193 1.241 . S
C190 O183 1.247 . S
C190 O184 1.261 . S
C191 O186 1.259 . S
C191 O188 1.235 . S
O192 Co182 2.021 . S
O192 C189 1.238 . S
O193 Co187 2.052 . S
O193 C189 1.241 . S
O194 Co182 2.137 . S
O194 C185 1.247 . S
O195 Co182 2.244 . S
O195 C185 1.272 . S
O195 Co187 2.135 . S
Co196 O197 2.216 . S
Co196 O198 2.091 . S
Co196 O200 2.004 . S
Co196 O206 2.021 . S
Co196 O208 2.137 . S
Co196 O209 2.244 . S
O197 Co196 2.216 . S
O197 C204 1.247 . S
O198 Co196 2.091 . S
O198 C204 1.261 . S
C199 O208 1.247 . S
C199 O209 1.272 . S
O200 Co196 2.004 . S
O200 C205 1.259 . S
Co201 O202 2.061 . S
Co201 O207 2.052 . S
Co201 O209 2.135 . S
O202 Co201 2.061 . S
O202 C205 1.235 . S
C203 O206 1.238 . S
C203 O207 1.241 . S
C204 O197 1.247 . S
C204 O198 1.261 . S
C205 O200 1.259 . S
C205 O202 1.235 . S
O206 Co196 2.021 . S
O206 C203 1.238 . S
O207 Co201 2.052 . S
O207 C203 1.241 . S
O208 Co196 2.137 . S
O208 C199 1.247 . S
O209 Co196 2.244 . S
O209 C199 1.272 . S
O209 Co201 2.135 . S
Co210 O211 2.216 . S
Co210 O212 2.091 . S
Co210 O214 2.004 . S
Co210 O220 2.021 . S
Co210 O222 2.137 . S
Co210 O223 2.244 . S
O211 Co210 2.216 . S
O211 C218 1.247 . S
O212 Co210 2.091 . S
O212 C218 1.261 . S
C213 O222 1.247 . S
C213 O223 1.272 . S
O214 Co210 2.004 . S
O214 C219 1.259 . S
Co215 O216 2.061 . S
Co215 O221 2.052 . S
Co215 O223 2.135 . S
O216 Co215 2.061 . S
O216 C219 1.235 . S
C217 O220 1.238 . S
C217 O221 1.241 . S
C218 O211 1.247 . S
C218 O212 1.261 . S
C219 O214 1.259 . S
C219 O216 1.235 . S
O220 Co210 2.021 . S
O220 C217 1.238 . S
O221 Co215 2.052 . S
O221 C217 1.241 . S
O222 Co210 2.137 . S
O222 C213 1.247 . S
O223 Co210 2.244 . S
O223 C213 1.272 . S
O223 Co215 2.135 . S
Co224 O225 2.216 . S
Co224 O226 2.091 . S
Co224 O228 2.004 . S
Co224 O234 2.021 . S
Co224 O236 2.137 . S
Co224 O237 2.244 . S
O225 Co224 2.216 . S
O225 C232 1.247 . S
O226 Co224 2.091 . S
O226 C232 1.261 . S
C227 O236 1.247 . S
C227 O237 1.272 . S
O228 Co224 2.004 . S
O228 C233 1.259 . S
Co229 O230 2.061 . S
Co229 O235 2.052 . S
Co229 O237 2.135 . S
O230 Co229 2.061 . S
O230 C233 1.235 . S
C231 O234 1.238 . S
C231 O235 1.241 . S
C232 O225 1.247 . S
C232 O226 1.261 . S
C233 O228 1.259 . S
C233 O230 1.235 . S
O234 Co224 2.021 . S
O234 C231 1.238 . S
O235 Co229 2.052 . S
O235 C231 1.241 . S
O236 Co224 2.137 . S
O236 C227 1.247 . S
O237 Co224 2.244 . S
O237 C227 1.272 . S
O237 Co229 2.135 . S
Co238 O239 2.216 . S
Co238 O240 2.091 . S
Co238 O242 2.004 . S
Co238 O248 2.021 . S
Co238 O250 2.137 . S
Co238 O251 2.244 . S
O239 Co238 2.216 . S
O239 C246 1.247 . S
O240 Co238 2.091 . S
O240 C246 1.261 . S
C241 O250 1.247 . S
C241 O251 1.272 . S
O242 Co238 2.004 . S
O242 C247 1.259 . S
Co243 O244 2.061 . S
Co243 O249 2.052 . S
Co243 O251 2.135 . S
O244 Co243 2.061 . S
O244 C247 1.235 . S
C245 O248 1.238 . S
C245 O249 1.241 . S
C246 O239 1.247 . S
C246 O240 1.261 . S
C247 O242 1.259 . S
C247 O244 1.235 . S
O248 Co238 2.021 . S
O248 C245 1.238 . S
O249 Co243 2.052 . S
O249 C245 1.241 . S
O250 Co238 2.137 . S
O250 C241 1.247 . S
O251 Co238 2.244 . S
O251 C241 1.272 . S
O251 Co243 2.135 . S
Co252 O253 2.216 . S
Co252 O254 2.091 . S
Co252 O256 2.004 . S
Co252 O262 2.021 . S
Co252 O264 2.137 . S
Co252 O265 2.244 . S
O253 Co252 2.216 . S
O253 C260 1.247 . S
O254 Co252 2.091 . S
O254 C260 1.261 . S
C255 O264 1.247 . S
C255 O265 1.272 . S
O256 Co252 2.004 . S
O256 C261 1.259 . S
Co257 O258 2.061 . S
Co257 O263 2.052 . S
Co257 O265 2.135 . S
O258 Co257 2.061 . S
O258 C261 1.235 . S
C259 O262 1.238 . S
C259 O263 1.241 . S
C260 O253 1.247 . S
C260 O254 1.261 . S
C261 O256 1.259 . S
C261 O258 1.235 . S
O262 Co252 2.021 . S
O262 C259 1.238 . S
O263 Co257 2.052 . S
O263 C259 1.241 . S
O264 Co252 2.137 . S
O264 C255 1.247 . S
O265 Co252 2.244 . S
O265 C255 1.272 . S
O265 Co257 2.135 . S
Co266 O267 2.216 . S
Co266 O268 2.091 . S
Co266 O270 2.004 . S
Co266 O276 2.021 . S
Co266 O278 2.137 . S
Co266 O279 2.244 . S
O267 Co266 2.216 . S
O267 C274 1.247 . S
O268 Co266 2.091 . S
O268 C274 1.261 . S
C269 O278 1.247 . S
C269 O279 1.272 . S
O270 Co266 2.004 . S
O270 C275 1.259 . S
Co271 O272 2.061 . S
Co271 O277 2.052 . S
Co271 O279 2.135 . S
O272 Co271 2.061 . S
O272 C275 1.235 . S
C273 O276 1.238 . S
C273 O277 1.241 . S
C274 O267 1.247 . S
C274 O268 1.261 . S
C275 O270 1.259 . S
C275 O272 1.235 . S
O276 Co266 2.021 . S
O276 C273 1.238 . S
O277 Co271 2.052 . S
O277 C273 1.241 . S
O278 Co266 2.137 . S
O278 C269 1.247 . S
O279 Co266 2.244 . S
O279 C269 1.272 . S
O279 Co271 2.135 . S
Co280 O281 2.216 . S
Co280 O282 2.091 . S
Co280 O284 2.004 . S
Co280 O290 2.021 . S
Co280 O292 2.137 . S
Co280 O293 2.244 . S
O281 Co280 2.216 . S
O281 C288 1.247 . S
O282 Co280 2.091 . S
O282 C288 1.261 . S
C283 O292 1.247 . S
C283 O293 1.272 . S
O284 Co280 2.004 . S
O284 C289 1.259 . S
Co285 O286 2.061 . S
Co285 O291 2.052 . S
Co285 O293 2.135 . S
O286 Co285 2.061 . S
O286 C289 1.235 . S
C287 O290 1.238 . S
C287 O291 1.241 . S
C288 O281 1.247 . S
C288 O282 1.261 . S
C289 O284 1.259 . S
C289 O286 1.235 . S
O290 Co280 2.021 . S
O290 C287 1.238 . S
O291 Co285 2.052 . S
O291 C287 1.241 . S
O292 Co280 2.137 . S
O292 C283 1.247 . S
O293 Co280 2.244 . S
O293 C283 1.272 . S
O293 Co285 2.135 . S
Co294 O295 2.216 . S
Co294 O296 2.091 . S
Co294 O298 2.004 . S
Co294 O304 2.021 . S
Co294 O306 2.137 . S
Co294 O307 2.244 . S
O295 Co294 2.216 . S
O295 C302 1.247 . S
O296 Co294 2.091 . S
O296 C302 1.261 . S
C297 O306 1.247 . S
C297 O307 1.272 . S
O298 Co294 2.004 . S
O298 C303 1.259 . S
Co299 O300 2.061 . S
Co299 O305 2.052 . S
Co299 O307 2.135 . S
O300 Co299 2.061 . S
O300 C303 1.235 . S
C301 O304 1.238 . S
C301 O305 1.241 . S
C302 O295 1.247 . S
C302 O296 1.261 . S
C303 O298 1.259 . S
C303 O300 1.235 . S
O304 Co294 2.021 . S
O304 C301 1.238 . S
O305 Co299 2.052 . S
O305 C301 1.241 . S
O306 Co294 2.137 . S
O306 C297 1.247 . S
O307 Co294 2.244 . S
O307 C297 1.272 . S
O307 Co299 2.135 . S
Co308 O309 2.216 . S
Co308 O310 2.091 . S
Co308 O312 2.004 . S
Co308 O318 2.021 . S
Co308 O320 2.137 . S
Co308 O321 2.244 . S
O309 Co308 2.216 . S
O309 C316 1.247 . S
O310 Co308 2.091 . S
O310 C316 1.261 . S
C311 O320 1.247 . S
C311 O321 1.272 . S
O312 Co308 2.004 . S
O312 C317 1.259 . S
Co313 O314 2.061 . S
Co313 O319 2.052 . S
Co313 O321 2.135 . S
O314 Co313 2.061 . S
O314 C317 1.235 . S
C315 O318 1.238 . S
C315 O319 1.241 . S
C316 O309 1.247 . S
C316 O310 1.261 . S
C317 O312 1.259 . S
C317 O314 1.235 . S
O318 Co308 2.021 . S
O318 C315 1.238 . S
O319 Co313 2.052 . S
O319 C315 1.241 . S
O320 Co308 2.137 . S
O320 C311 1.247 . S
O321 Co308 2.244 . S
O321 C311 1.272 . S
O321 Co313 2.135 . S
Co322 O323 2.216 . S
Co322 O324 2.091 . S
Co322 O326 2.004 . S
Co322 O332 2.021 . S
Co322 O334 2.137 . S
Co322 O335 2.244 . S
O323 Co322 2.216 . S
O323 C330 1.247 . S
O324 Co322 2.091 . S
O324 C330 1.261 . S
C325 O334 1.247 . S
C325 O335 1.272 . S
O326 Co322 2.004 . S
O326 C331 1.259 . S
Co327 O328 2.061 . S
Co327 O333 2.052 . S
Co327 O335 2.135 . S
O328 Co327 2.061 . S
O328 C331 1.235 . S
C329 O332 1.238 . S
C329 O333 1.241 . S
C330 O323 1.247 . S
C330 O324 1.261 . S
C331 O326 1.259 . S
C331 O328 1.235 . S
O332 Co322 2.021 . S
O332 C329 1.238 . S
O333 Co327 2.052 . S
O333 C329 1.241 . S
O334 Co322 2.137 . S
O334 C325 1.247 . S
O335 Co322 2.244 . S
O335 C325 1.272 . S
O335 Co327 2.135 . S
H336 C354 0.951 . S
H337 C356 0.951 . S
H338 C358 0.950 . S
H339 C359 0.950 . S
H340 C361 0.950 . S
H341 C364 0.950 . S
H342 C365 0.950 . S
H343 C367 0.950 . S
H344 C368 0.950 . S
H345 C369 0.951 . S
H346 C371 0.951 . S
H347 C373 0.950 . S
H348 C374 0.950 . S
H349 C376 0.950 . S
H350 C379 0.950 . S
H351 C380 0.950 . S
H352 C382 0.950 . S
H353 C383 0.950 . S
C354 H336 0.951 . S
C354 C355 1.366 . S
C354 C356 1.388 . S
C355 C354 1.366 . S
C355 C359 1.385 . S
C356 H337 0.951 . S
C356 C354 1.388 . S
C356 C357 1.366 . S
C357 C356 1.366 . S
C357 C358 1.414 . S
C357 C360 1.499 . S
C358 H338 0.950 . S
C358 C357 1.414 . S
C358 C359 1.374 . S
C359 H339 0.950 . S
C359 C355 1.385 . S
C359 C358 1.374 . S
C360 C357 1.499 . S
C360 C361 1.373 . S
C360 C362 1.389 . S
C361 H340 0.950 . S
C361 C360 1.373 . S
C361 C377 1.377 . S
C362 C360 1.389 . S
C362 C363 1.524 . S
C362 C376 1.377 . S
C363 C362 1.524 . S
C363 C364 1.397 . S
C363 C368 1.363 . S
C364 H341 0.950 . S
C364 C363 1.397 . S
C364 C365 1.334 . S
C365 H342 0.950 . S
C365 C364 1.334 . S
C365 C366 1.287 . S
C366 C365 1.287 . S
C366 C367 1.524 . S
C366 H385 0.913 . S
C367 H343 0.950 . S
C367 C366 1.524 . S
C367 C368 1.415 . S
C368 H344 0.950 . S
C368 C363 1.363 . S
C368 C367 1.415 . S
C369 H345 0.951 . S
C369 C370 1.366 . S
C369 C371 1.388 . S
C370 C369 1.366 . S
C370 C374 1.385 . S
C371 H346 0.951 . S
C371 C369 1.388 . S
C371 C372 1.366 . S
C372 C371 1.366 . S
C372 C373 1.414 . S
C372 C375 1.499 . S
C373 H347 0.950 . S
C373 C372 1.414 . S
C373 C374 1.374 . S
C374 H348 0.950 . S
C374 C370 1.385 . S
C374 C373 1.374 . S
C375 C372 1.499 . S
C375 C376 1.373 . S
C375 C377 1.389 . S
C376 H349 0.950 . S
C376 C362 1.377 . S
C376 C375 1.373 . S
C377 C361 1.377 . S
C377 C375 1.389 . S
C377 C378 1.524 . S
C378 C377 1.524 . S
C378 C379 1.397 . S
C378 C383 1.363 . S
C379 H350 0.950 . S
C379 C378 1.397 . S
C379 C380 1.334 . S
C380 H351 0.950 . S
C380 C379 1.334 . S
C380 C381 1.287 . S
C381 C380 1.287 . S
C381 C382 1.524 . S
C381 H384 0.999 . S
C382 H352 0.950 . S
C382 C381 1.524 . S
C382 C383 1.415 . S
C383 H353 0.950 . S
C383 C378 1.363 . S
C383 C382 1.415 . S
H384 C381 0.999 . S
H385 C366 0.913 . S
H386 C404 0.951 . S
H387 C406 0.951 . S
H388 C408 0.950 . S
H389 C409 0.950 . S
H390 C411 0.950 . S
H391 C414 0.950 . S
H392 C415 0.950 . S
H393 C417 0.950 . S
H394 C418 0.950 . S
H395 C419 0.951 . S
H396 C421 0.951 . S
H397 C423 0.950 . S
H398 C424 0.950 . S
H399 C426 0.950 . S
H400 C429 0.950 . S
H401 C430 0.950 . S
H402 C432 0.950 . S
H403 C433 0.950 . S
C404 H386 0.951 . S
C404 C405 1.366 . S
C404 C406 1.388 . S
C405 C404 1.366 . S
C405 C409 1.385 . S
C406 H387 0.951 . S
C406 C404 1.388 . S
C406 C407 1.371 . S
C407 C406 1.371 . S
C407 C408 1.413 1_655 S
C407 C410 1.494 1_655 S
C408 H388 0.950 . S
C408 C407 1.413 1_455 S
C408 C409 1.374 1_455 S
C409 H389 0.950 . S
C409 C405 1.385 . S
C409 C408 1.374 1_655 S
C410 C407 1.494 1_455 S
C410 C411 1.373 . S
C410 C412 1.389 . S
C411 H390 0.950 . S
C411 C410 1.373 . S
C411 C427 1.377 . S
C412 C410 1.389 . S
C412 C413 1.524 1_455 S
C412 C426 1.377 . S
C413 C412 1.524 1_655 S
C413 C414 1.397 . S
C413 C418 1.363 . S
C414 H391 0.950 . S
C414 C413 1.397 . S
C414 C415 1.334 . S
C415 H392 0.950 . S
C415 C414 1.334 . S
C415 C416 1.287 . S
C416 C415 1.287 . S
C416 C417 1.524 . S
C416 H435 0.913 . S
C417 H393 0.950 . S
C417 C416 1.524 . S
C417 C418 1.415 . S
C418 H394 0.950 . S
C418 C413 1.363 . S
C418 C417 1.415 . S
C419 H395 0.951 . S
C419 C420 1.366 . S
C419 C421 1.388 . S
C420 C419 1.366 . S
C420 C424 1.385 . S
C421 H396 0.951 . S
C421 C419 1.388 . S
C421 C422 1.366 . S
C422 C421 1.366 . S
C422 C423 1.414 . S
C422 C425 1.499 . S
C423 H397 0.950 . S
C423 C422 1.414 . S
C423 C424 1.374 . S
C424 H398 0.950 . S
C424 C420 1.385 . S
C424 C423 1.374 . S
C425 C422 1.499 . S
C425 C426 1.373 . S
C425 C427 1.389 . S
C426 H399 0.950 . S
C426 C412 1.377 . S
C426 C425 1.373 . S
C427 C411 1.377 . S
C427 C425 1.389 . S
C427 C428 1.524 . S
C428 C427 1.524 . S
C428 C429 1.397 . S
C428 C433 1.363 . S
C429 H400 0.950 . S
C429 C428 1.397 . S
C429 C430 1.334 . S
C430 H401 0.950 . S
C430 C429 1.334 . S
C430 C431 1.287 . S
C431 C430 1.287 . S
C431 C432 1.524 . S
C431 H434 0.999 . S
C432 H402 0.950 . S
C432 C431 1.524 . S
C432 C433 1.415 . S
C433 H403 0.950 . S
C433 C428 1.363 . S
C433 C432 1.415 . S
H434 C431 0.999 . S
H435 C416 0.913 . S
H436 C454 0.951 . S
H437 C456 0.951 . S
H438 C458 0.950 . S
H439 C459 0.950 . S
H440 C461 0.950 . S
H441 C464 0.950 . S
H442 C465 0.950 . S
H443 C467 0.950 . S
H444 C468 0.950 . S
H445 C469 0.951 . S
H446 C471 0.951 . S
H447 C473 0.950 . S
H448 C474 0.950 . S
H449 C476 0.950 1_554 S
H450 C479 0.950 . S
H451 C480 0.950 . S
H452 C482 0.950 . S
H453 C483 0.950 . S
C454 H436 0.951 . S
C454 C455 1.366 . S
C454 C456 1.388 . S
C455 C454 1.366 . S
C455 C459 1.385 . S
C456 H437 0.951 . S
C456 C454 1.388 . S
C456 C457 1.366 . S
C457 C456 1.366 . S
C457 C458 1.414 . S
C457 C460 1.499 . S
C458 H438 0.950 . S
C458 C457 1.414 . S
C458 C459 1.374 . S
C459 H439 0.950 . S
C459 C455 1.385 . S
C459 C458 1.374 . S
C460 C457 1.499 . S
C460 C461 1.373 . S
C460 C462 1.389 . S
C461 H440 0.950 . S
C461 C460 1.373 . S
C461 C477 1.377 . S
C462 C460 1.389 . S
C462 C463 1.524 . S
C462 C476 1.377 . S
C463 C462 1.524 . S
C463 C464 1.397 . S
C463 C468 1.363 1_556 S
C464 H441 0.950 . S
C464 C463 1.397 . S
C464 C465 1.334 . S
C465 H442 0.950 . S
C465 C464 1.334 . S
C465 C466 1.287 1_556 S
C466 C465 1.287 1_554 S
C466 C467 1.524 . S
C466 H485 0.913 . S
C467 H443 0.950 . S
C467 C466 1.524 . S
C467 C468 1.415 . S
C468 H444 0.950 . S
C468 C463 1.363 1_554 S
C468 C467 1.415 . S
C469 H445 0.951 . S
C469 C470 1.366 . S
C469 C471 1.388 1_554 S
C470 C469 1.366 . S
C470 C474 1.385 . S
C471 H446 0.951 . S
C471 C469 1.388 1_556 S
C471 C472 1.376 . S
C472 C471 1.376 . S
C472 C473 1.373 1_556 S
C472 C475 1.528 . S
C473 H447 0.950 . S
C473 C472 1.373 1_554 S
C473 C474 1.374 . S
C474 H448 0.950 . S
C474 C470 1.385 . S
C474 C473 1.374 . S
C475 C472 1.528 . S
C475 C476 1.373 . S
C475 C477 1.389 . S
C476 H449 0.950 1_556 S
C476 C462 1.377 . S
C476 C475 1.373 . S
C477 C461 1.377 . S
C477 C475 1.389 . S
C477 C478 1.524 . S
C478 C477 1.524 . S
C478 C479 1.397 . S
C478 C483 1.363 . S
C479 H450 0.950 . S
C479 C478 1.397 . S
C479 C480 1.334 . S
C480 H451 0.950 . S
C480 C479 1.334 . S
C480 C481 1.287 . S
C481 C480 1.287 . S
C481 C482 1.524 . S
C481 H484 0.999 . S
C482 H452 0.950 . S
C482 C481 1.524 . S
C482 C483 1.415 . S
C483 H453 0.950 . S
C483 C478 1.363 . S
C483 C482 1.415 . S
H484 C481 0.999 . S
H485 C466 0.913 . S
H486 C504 0.951 . S
H487 C506 0.951 . S
H488 C508 0.950 . S
H489 C509 0.950 . S
H490 C511 0.950 . S
H491 C514 0.950 . S
H492 C515 0.950 . S
H493 C517 0.950 . S
H494 C518 0.950 . S
H495 C519 0.951 . S
H496 C521 0.951 . S
H497 C523 0.950 . S
H498 C524 0.950 . S
H499 C526 0.950 . S
H500 C529 0.950 . S
H501 C530 0.950 . S
H502 C532 0.950 . S
H503 C533 0.950 . S
C504 H486 0.951 . S
C504 C505 1.366 . S
C504 C506 1.388 . S
C505 C504 1.366 . S
C505 C509 1.385 . S
C506 H487 0.951 . S
C506 C504 1.388 . S
C506 C507 1.366 . S
C507 C506 1.366 . S
C507 C508 1.414 . S
C507 C510 1.499 . S
C508 H488 0.950 . S
C508 C507 1.414 . S
C508 C509 1.374 . S
C509 H489 0.950 . S
C509 C505 1.385 . S
C509 C508 1.374 . S
C510 C507 1.499 . S
C510 C511 1.373 . S
C510 C512 1.389 . S
C511 H490 0.950 . S
C511 C510 1.373 . S
C511 C527 1.377 . S
C512 C510 1.389 . S
C512 C513 1.524 . S
C512 C526 1.377 . S
C513 C512 1.524 . S
C513 C514 1.397 . S
C513 C518 1.363 . S
C514 H491 0.950 . S
C514 C513 1.397 . S
C514 C515 1.334 . S
C515 H492 0.950 . S
C515 C514 1.334 . S
C515 C516 1.287 . S
C516 C515 1.287 . S
C516 C517 1.524 . S
C516 H535 0.913 . S
C517 H493 0.950 . S
C517 C516 1.524 . S
C517 C518 1.415 . S
C518 H494 0.950 . S
C518 C513 1.363 . S
C518 C517 1.415 . S
C519 H495 0.951 . S
C519 C520 1.366 . S
C519 C521 1.388 . S
C520 C519 1.366 . S
C520 C524 1.385 . S
C521 H496 0.951 . S
C521 C519 1.388 . S
C521 C522 1.366 . S
C522 C521 1.366 . S
C522 C523 1.414 . S
C522 C525 1.499 . S
C523 H497 0.950 . S
C523 C522 1.414 . S
C523 C524 1.374 . S
C524 H498 0.950 . S
C524 C520 1.385 . S
C524 C523 1.374 . S
C525 C522 1.499 . S
C525 C526 1.373 . S
C525 C527 1.389 . S
C526 H499 0.950 . S
C526 C512 1.377 . S
C526 C525 1.373 . S
C527 C511 1.377 . S
C527 C525 1.389 . S
C527 C528 1.524 . S
C528 C527 1.524 . S
C528 C529 1.397 . S
C528 C533 1.363 . S
C529 H500 0.950 . S
C529 C528 1.397 . S
C529 C530 1.334 . S
C530 H501 0.950 . S
C530 C529 1.334 . S
C530 C531 1.287 . S
C531 C530 1.287 . S
C531 C532 1.524 . S
C531 H534 0.999 . S
C532 H502 0.950 . S
C532 C531 1.524 . S
C532 C533 1.415 . S
C533 H503 0.950 . S
C533 C528 1.363 . S
C533 C532 1.415 . S
H534 C531 0.999 . S
H535 C516 0.913 . S
H536 C554 0.951 . S
H537 C556 0.951 . S
H538 C558 0.950 . S
H539 C559 0.950 . S
H540 C561 0.950 . S
H541 C564 0.950 . S
H542 C565 0.950 . S
H543 C567 0.950 . S
H544 C568 0.950 . S
H545 C569 0.951 . S
H546 C571 0.951 . S
H547 C573 0.950 . S
H548 C574 0.950 . S
H549 C576 0.950 . S
H550 C579 0.950 . S
H551 C580 0.950 . S
H552 C582 0.950 . S
H553 C583 0.950 . S
C554 H536 0.951 . S
C554 C555 1.366 . S
C554 C556 1.388 . S
C555 C554 1.366 . S
C555 C559 1.385 . S
C556 H537 0.951 . S
C556 C554 1.388 . S
C556 C557 1.366 . S
C557 C556 1.366 . S
C557 C558 1.414 . S
C557 C560 1.499 . S
C558 H538 0.950 . S
C558 C557 1.414 . S
C558 C559 1.374 . S
C559 H539 0.950 . S
C559 C555 1.385 . S
C559 C558 1.374 . S
C560 C557 1.499 . S
C560 C561 1.373 . S
C560 C562 1.389 . S
C561 H540 0.950 . S
C561 C560 1.373 . S
C561 C577 1.377 . S
C562 C560 1.389 . S
C562 C563 1.524 . S
C562 C576 1.377 . S
C563 C562 1.524 . S
C563 C564 1.397 . S
C563 C568 1.363 . S
C564 H541 0.950 . S
C564 C563 1.397 . S
C564 C565 1.334 . S
C565 H542 0.950 . S
C565 C564 1.334 . S
C565 C566 1.287 . S
C566 C565 1.287 . S
C566 C567 1.524 . S
C566 H585 0.913 . S
C567 H543 0.950 . S
C567 C566 1.524 . S
C567 C568 1.415 . S
C568 H544 0.950 . S
C568 C563 1.363 . S
C568 C567 1.415 . S
C569 H545 0.951 . S
C569 C570 1.366 . S
C569 C571 1.388 . S
C570 C569 1.366 . S
C570 C574 1.385 . S
C571 H546 0.951 . S
C571 C569 1.388 . S
C571 C572 1.366 . S
C572 C571 1.366 . S
C572 C573 1.414 . S
C572 C575 1.499 . S
C573 H547 0.950 . S
C573 C572 1.414 . S
C573 C574 1.374 . S
C574 H548 0.950 . S
C574 C570 1.385 . S
C574 C573 1.374 . S
C575 C572 1.499 . S
C575 C576 1.373 . S
C575 C577 1.389 . S
C576 H549 0.950 . S
C576 C562 1.377 . S
C576 C575 1.373 . S
C577 C561 1.377 . S
C577 C575 1.389 . S
C577 C578 1.524 . S
C578 C577 1.524 . S
C578 C579 1.397 . S
C578 C583 1.363 . S
C579 H550 0.950 . S
C579 C578 1.397 . S
C579 C580 1.334 . S
C580 H551 0.950 . S
C580 C579 1.334 . S
C580 C581 1.287 . S
C581 C580 1.287 . S
C581 C582 1.524 . S
C581 H584 0.999 . S
C582 H552 0.950 . S
C582 C581 1.524 . S
C582 C583 1.415 . S
C583 H553 0.950 . S
C583 C578 1.363 . S
C583 C582 1.415 . S
H584 C581 0.999 . S
H585 C566 0.913 . S
H586 C604 0.951 . S
H587 C606 0.951 . S
H588 C608 0.950 . S
H589 C609 0.950 . S
H590 C611 0.950 . S
H591 C614 0.950 . S
H592 C615 0.950 . S
H593 C617 0.950 . S
H594 C618 0.950 . S
H595 C619 0.951 . S
H596 C621 0.951 . S
H597 C623 0.950 . S
H598 C624 0.950 . S
H599 C626 0.950 . S
H600 C629 0.965 . S
H601 C630 0.950 . S
H602 C632 0.950 . S
H603 C633 0.950 . S
C604 H586 0.951 . S
C604 C605 1.366 . S
C604 C606 1.388 . S
C605 C604 1.366 . S
C605 C609 1.385 . S
C606 H587 0.951 . S
C606 C604 1.388 . S
C606 C607 1.366 . S
C607 C606 1.366 . S
C607 C608 1.414 . S
C607 C610 1.499 . S
C608 H588 0.950 . S
C608 C607 1.414 . S
C608 C609 1.374 . S
C609 H589 0.950 . S
C609 C605 1.385 . S
C609 C608 1.374 . S
C610 C607 1.499 . S
C610 C611 1.373 . S
C610 C612 1.389 . S
C611 H590 0.950 . S
C611 C610 1.373 . S
C611 C627 1.377 . S
C612 C610 1.389 . S
C612 C613 1.524 . S
C612 C626 1.377 . S
C613 C612 1.524 . S
C613 C614 1.397 . S
C613 C618 1.363 . S
C614 H591 0.950 . S
C614 C613 1.397 . S
C614 C615 1.334 . S
C615 H592 0.950 . S
C615 C614 1.334 . S
C615 C616 1.287 . S
C616 C615 1.287 . S
C616 C617 1.524 . S
C616 H635 0.913 . S
C617 H593 0.950 . S
C617 C616 1.524 . S
C617 C618 1.415 . S
C618 H594 0.950 . S
C618 C613 1.363 . S
C618 C617 1.415 . S
C619 H595 0.951 . S
C619 C620 1.366 . S
C619 C621 1.388 . S
C620 C619 1.366 . S
C620 C624 1.385 . S
C621 H596 0.951 . S
C621 C619 1.388 . S
C621 C622 1.343 1_455 S
C622 C621 1.343 1_655 S
C622 C623 1.421 . S
C622 C625 1.514 . S
C623 H597 0.950 . S
C623 C622 1.421 . S
C623 C624 1.374 1_655 S
C624 H598 0.950 . S
C624 C620 1.385 . S
C624 C623 1.374 1_455 S
C625 C622 1.514 . S
C625 C626 1.373 . S
C625 C627 1.389 . S
C626 H599 0.950 . S
C626 C612 1.377 . S
C626 C625 1.373 . S
C627 C611 1.377 . S
C627 C625 1.389 . S
C627 C628 1.514 1_655 S
C628 C627 1.514 1_455 S
C628 C629 1.396 1_455 S
C628 C633 1.373 . S
C629 H600 0.965 . S
C629 C628 1.396 1_655 S
C629 C630 1.320 1_655 S
C630 H601 0.950 . S
C630 C629 1.320 1_455 S
C630 C631 1.287 . S
C631 C630 1.287 . S
C631 C632 1.524 . S
C631 H634 0.999 . S
C632 H602 0.950 . S
C632 C631 1.524 . S
C632 C633 1.415 . S
C633 H603 0.950 . S
C633 C628 1.373 . S
C633 C632 1.415 . S
H634 C631 0.999 . S
H635 C616 0.913 . S
H636 C654 0.951 . S
H637 C656 0.951 . S
H638 C658 0.950 . S
H639 C659 0.950 . S
H640 C661 0.950 . S
H641 C664 0.950 . S
H642 C665 0.950 . S
H643 C667 0.950 . S
H644 C668 0.950 . S
H645 C669 0.951 . S
H646 C671 0.951 . S
H647 C673 0.950 . S
H648 C674 0.950 . S
H649 C676 0.950 . S
H650 C679 0.950 . S
H651 C680 0.950 . S
H652 C682 0.950 . S
H653 C683 0.950 . S
C654 H636 0.951 . S
C654 C655 1.366 . S
C654 C656 1.388 . S
C655 C654 1.366 . S
C655 C659 1.385 . S
C656 H637 0.951 . S
C656 C654 1.388 . S
C656 C657 1.366 . S
C657 C656 1.366 . S
C657 C658 1.414 . S
C657 C660 1.499 . S
C658 H638 0.950 . S
C658 C657 1.414 . S
C658 C659 1.374 . S
C659 H639 0.950 . S
C659 C655 1.385 . S
C659 C658 1.374 . S
C660 C657 1.499 . S
C660 C661 1.373 . S
C660 C662 1.389 . S
C661 H640 0.950 . S
C661 C660 1.373 . S
C661 C677 1.377 . S
C662 C660 1.389 . S
C662 C663 1.524 . S
C662 C676 1.377 . S
C663 C662 1.524 . S
C663 C664 1.397 . S
C663 C668 1.363 . S
C664 H641 0.950 . S
C664 C663 1.397 . S
C664 C665 1.334 . S
C665 H642 0.950 . S
C665 C664 1.334 . S
C665 C666 1.287 . S
C666 C665 1.287 . S
C666 C667 1.524 . S
C666 H685 0.913 . S
C667 H643 0.950 . S
C667 C666 1.524 . S
C667 C668 1.415 . S
C668 H644 0.950 . S
C668 C663 1.363 . S
C668 C667 1.415 . S
C669 H645 0.951 . S
C669 C670 1.366 . S
C669 C671 1.388 . S
C670 C669 1.366 . S
C670 C674 1.385 . S
C671 H646 0.951 . S
C671 C669 1.388 . S
C671 C672 1.337 1_556 S
C672 C671 1.337 1_554 S
C672 C673 1.423 . S
C672 C675 1.519 . S
C673 H647 0.950 . S
C673 C672 1.423 . S
C673 C674 1.374 1_554 S
C674 H648 0.950 . S
C674 C670 1.385 . S
C674 C673 1.374 1_556 S
C675 C672 1.519 . S
C675 C676 1.373 . S
C675 C677 1.389 . S
C676 H649 0.950 . S
C676 C662 1.377 . S
C676 C675 1.373 . S
C677 C661 1.377 . S
C677 C675 1.389 . S
C677 C678 1.524 . S
C678 C677 1.524 . S
C678 C679 1.397 . S
C678 C683 1.363 1_554 S
C679 H650 0.950 . S
C679 C678 1.397 . S
C679 C680 1.334 1_554 S
C680 H651 0.950 . S
C680 C679 1.334 1_556 S
C680 C681 1.287 . S
C681 C680 1.287 . S
C681 C682 1.524 . S
C681 H684 0.999 . S
C682 H652 0.950 . S
C682 C681 1.524 . S
C682 C683 1.415 . S
C683 H653 0.950 . S
C683 C678 1.363 1_556 S
C683 C682 1.415 . S
H684 C681 0.999 . S
H685 C666 0.913 . S
H686 C704 0.951 . S
H687 C706 0.951 . S
H688 C708 0.950 . S
H689 C709 0.950 . S
H690 C711 0.950 . S
H691 C714 0.950 . S
H692 C715 0.950 . S
H693 C717 0.950 . S
H694 C718 0.950 . S
H695 C719 0.951 . S
H696 C721 0.951 . S
H697 C723 0.950 . S
H698 C724 0.950 . S
H699 C726 0.950 . S
H700 C729 0.950 . S
H701 C730 0.950 . S
H702 C732 0.950 . S
H703 C733 0.950 . S
C704 H686 0.951 . S
C704 C705 1.366 . S
C704 C706 1.388 . S
C705 C704 1.366 . S
C705 C709 1.385 . S
C706 H687 0.951 . S
C706 C704 1.388 . S
C706 C707 1.366 . S
C707 C706 1.366 . S
C707 C708 1.414 . S
C707 C710 1.499 . S
C708 H688 0.950 . S
C708 C707 1.414 . S
C708 C709 1.374 . S
C709 H689 0.950 . S
C709 C705 1.385 . S
C709 C708 1.374 . S
C710 C707 1.499 . S
C710 C711 1.373 . S
C710 C712 1.389 . S
C711 H690 0.950 . S
C711 C710 1.373 . S
C711 C727 1.377 . S
C712 C710 1.389 . S
C712 C713 1.524 . S
C712 C726 1.377 . S
C713 C712 1.524 . S
C713 C714 1.397 . S
C713 C718 1.363 . S
C714 H691 0.950 . S
C714 C713 1.397 . S
C714 C715 1.334 . S
C715 H692 0.950 . S
C715 C714 1.334 . S
C715 C716 1.287 . S
C716 C715 1.287 . S
C716 C717 1.524 . S
C716 H735 0.913 . S
C717 H693 0.950 . S
C717 C716 1.524 . S
C717 C718 1.415 . S
C718 H694 0.950 . S
C718 C713 1.363 . S
C718 C717 1.415 . S
C719 H695 0.951 . S
C719 C720 1.366 . S
C719 C721 1.388 . S
C720 C719 1.366 . S
C720 C724 1.385 . S
C721 H696 0.951 . S
C721 C719 1.388 . S
C721 C722 1.366 . S
C722 C721 1.366 . S
C722 C723 1.414 . S
C722 C725 1.499 . S
C723 H697 0.950 . S
C723 C722 1.414 . S
C723 C724 1.374 . S
C724 H698 0.950 . S
C724 C720 1.385 . S
C724 C723 1.374 . S
C725 C722 1.499 . S
C725 C726 1.373 . S
C725 C727 1.389 . S
C726 H699 0.950 . S
C726 C712 1.377 . S
C726 C725 1.373 . S
C727 C711 1.377 . S
C727 C725 1.389 . S
C727 C728 1.524 . S
C728 C727 1.524 . S
C728 C729 1.397 . S
C728 C733 1.363 . S
C729 H700 0.950 . S
C729 C728 1.397 . S
C729 C730 1.334 . S
C730 H701 0.950 . S
C730 C729 1.334 . S
C730 C731 1.287 . S
C731 C730 1.287 . S
C731 C732 1.524 . S
C731 H734 0.999 . S
C732 H702 0.950 . S
C732 C731 1.524 . S
C732 C733 1.415 . S
C733 H703 0.950 . S
C733 C728 1.363 . S
C733 C732 1.415 . S
H734 C731 0.999 . S
H735 C716 0.913 . S
H736 C754 0.951 . S
H737 C756 0.951 . S
H738 C758 0.950 . S
H739 C759 0.950 . S
H740 C761 0.950 . S
H741 C764 0.950 . S
H742 C765 0.950 . S
H743 C767 0.950 . S
H744 C768 0.950 . S
H745 C769 0.951 . S
H746 C771 0.951 . S
H747 C773 0.950 . S
H748 C774 0.950 . S
H749 C776 0.950 . S
H750 C779 0.950 . S
H751 C780 0.950 . S
H752 C782 0.950 . S
H753 C783 0.950 . S
C754 H736 0.951 . S
C754 C755 1.366 . S
C754 C756 1.388 . S
C755 C754 1.366 . S
C755 C759 1.385 . S
C756 H737 0.951 . S
C756 C754 1.388 . S
C756 C757 1.366 . S
C757 C756 1.366 . S
C757 C758 1.414 . S
C757 C760 1.499 . S
C758 H738 0.950 . S
C758 C757 1.414 . S
C758 C759 1.374 . S
C759 H739 0.950 . S
C759 C755 1.385 . S
C759 C758 1.374 . S
C760 C757 1.499 . S
C760 C761 1.373 . S
C760 C762 1.389 . S
C761 H740 0.950 . S
C761 C760 1.373 . S
C761 C777 1.377 . S
C762 C760 1.389 . S
C762 C763 1.524 . S
C762 C776 1.377 . S
C763 C762 1.524 . S
C763 C764 1.397 . S
C763 C768 1.363 . S
C764 H741 0.950 . S
C764 C763 1.397 . S
C764 C765 1.334 . S
C765 H742 0.950 . S
C765 C764 1.334 . S
C765 C766 1.287 . S
C766 C765 1.287 . S
C766 C767 1.524 . S
C766 H785 0.913 . S
C767 H743 0.950 . S
C767 C766 1.524 . S
C767 C768 1.415 . S
C768 H744 0.950 . S
C768 C763 1.363 . S
C768 C767 1.415 . S
C769 H745 0.951 . S
C769 C770 1.366 . S
C769 C771 1.388 . S
C770 C769 1.366 . S
C770 C774 1.385 . S
C771 H746 0.951 . S
C771 C769 1.388 . S
C771 C772 1.366 . S
C772 C771 1.366 . S
C772 C773 1.414 . S
C772 C775 1.499 . S
C773 H747 0.950 . S
C773 C772 1.414 . S
C773 C774 1.374 . S
C774 H748 0.950 . S
C774 C770 1.385 . S
C774 C773 1.374 . S
C775 C772 1.499 . S
C775 C776 1.373 . S
C775 C777 1.389 . S
C776 H749 0.950 . S
C776 C762 1.377 . S
C776 C775 1.373 . S
C777 C761 1.377 . S
C777 C775 1.389 . S
C777 C778 1.524 . S
C778 C777 1.524 . S
C778 C779 1.397 . S
C778 C783 1.363 . S
C779 H750 0.950 . S
C779 C778 1.397 . S
C779 C780 1.334 . S
C780 H751 0.950 . S
C780 C779 1.334 . S
C780 C781 1.287 . S
C781 C780 1.287 . S
C781 C782 1.524 . S
C781 H784 0.999 . S
C782 H752 0.950 . S
C782 C781 1.524 . S
C782 C783 1.415 . S
C783 H753 0.950 . S
C783 C778 1.363 . S
C783 C782 1.415 . S
H784 C781 0.999 . S
H785 C766 0.913 . S
H786 C804 0.951 . S
H787 C806 0.951 . S
H788 C808 0.950 . S
H789 C809 0.950 . S
H790 C811 0.950 . S
H791 C814 0.950 . S
H792 C815 0.950 . S
H793 C817 0.950 . S
H794 C818 0.950 . S
H795 C819 0.951 . S
H796 C821 0.951 . S
H797 C823 0.950 . S
H798 C824 0.950 . S
H799 C826 0.950 . S
H800 C829 0.950 . S
H801 C830 0.950 . S
H802 C832 0.950 . S
H803 C833 0.950 . S
C804 H786 0.951 . S
C804 C805 1.366 . S
C804 C806 1.388 1_565 S
C805 C804 1.366 . S
C805 C809 1.385 . S
C806 H787 0.951 . S
C806 C804 1.388 1_545 S
C806 C807 1.364 1_545 S
C807 C806 1.364 1_565 S
C807 C808 1.421 . S
C807 C810 1.493 1_565 S
C808 H788 0.950 . S
C808 C807 1.421 . S
C808 C809 1.374 . S
C809 H789 0.950 . S
C809 C805 1.385 . S
C809 C808 1.374 . S
C810 C807 1.493 1_545 S
C810 C811 1.373 . S
C810 C812 1.389 . S
C811 H790 0.950 . S
C811 C810 1.373 . S
C811 C827 1.377 . S
C812 C810 1.389 . S
C812 C813 1.524 . S
C812 C826 1.377 . S
C813 C812 1.524 . S
C813 C814 1.397 1_545 S
C813 C818 1.363 . S
C814 H791 0.950 . S
C814 C813 1.397 1_565 S
C814 C815 1.334 . S
C815 H792 0.950 . S
C815 C814 1.334 . S
C815 C816 1.287 . S
C816 C815 1.287 . S
C816 C817 1.524 1_565 S
C816 H835 0.913 . S
C817 H793 0.950 . S
C817 C816 1.524 1_545 S
C817 C818 1.415 . S
C818 H794 0.950 . S
C818 C813 1.363 . S
C818 C817 1.415 . S
C819 H795 0.951 . S
C819 C820 1.366 . S
C819 C821 1.388 . S
C820 C819 1.366 . S
C820 C824 1.385 . S
C821 H796 0.951 . S
C821 C819 1.388 . S
C821 C822 1.366 . S
C822 C821 1.366 . S
C822 C823 1.414 . S
C822 C825 1.499 . S
C823 H797 0.950 . S
C823 C822 1.414 . S
C823 C824 1.374 . S
C824 H798 0.950 . S
C824 C820 1.385 . S
C824 C823 1.374 . S
C825 C822 1.499 . S
C825 C826 1.373 . S
C825 C827 1.389 . S
C826 H799 0.950 . S
C826 C812 1.377 . S
C826 C825 1.373 . S
C827 C811 1.377 . S
C827 C825 1.389 . S
C827 C828 1.524 . S
C828 C827 1.524 . S
C828 C829 1.397 . S
C828 C833 1.363 . S
C829 H800 0.950 . S
C829 C828 1.397 . S
C829 C830 1.334 . S
C830 H801 0.950 . S
C830 C829 1.334 . S
C830 C831 1.287 . S
C831 C830 1.287 . S
C831 C832 1.524 . S
C831 H834 0.999 . S
C832 H802 0.950 . S
C832 C831 1.524 . S
C832 C833 1.415 . S
C833 H803 0.950 . S
C833 C828 1.363 . S
C833 C832 1.415 . S
H834 C831 0.999 . S
H835 C816 0.913 . S
H836 C854 0.951 . S
H837 C856 0.951 . S
H838 C858 0.950 . S
H839 C859 0.950 . S
H840 C861 0.950 . S
H841 C864 0.950 . S
H842 C865 0.950 . S
H843 C867 0.950 . S
H844 C868 0.950 . S
H845 C869 0.951 . S
H846 C871 0.951 . S
H847 C873 0.957 . S
H848 C874 0.950 . S
H849 C876 0.950 . S
H850 C879 0.950 . S
H851 C880 0.950 . S
H852 C882 0.950 . S
H853 C883 0.950 1_565 S
C854 H836 0.951 . S
C854 C855 1.366 . S
C854 C856 1.388 . S
C855 C854 1.366 . S
C855 C859 1.385 . S
C856 H837 0.951 . S
C856 C854 1.388 . S
C856 C857 1.366 . S
C857 C856 1.366 . S
C857 C858 1.414 . S
C857 C860 1.499 . S
C858 H838 0.950 . S
C858 C857 1.414 . S
C858 C859 1.374 . S
C859 H839 0.950 . S
C859 C855 1.385 . S
C859 C858 1.374 . S
C860 C857 1.499 . S
C860 C861 1.373 . S
C860 C862 1.389 . S
C861 H840 0.950 . S
C861 C860 1.373 . S
C861 C877 1.377 . S
C862 C860 1.389 . S
C862 C863 1.524 . S
C862 C876 1.377 . S
C863 C862 1.524 . S
C863 C864 1.397 . S
C863 C868 1.363 . S
C864 H841 0.950 . S
C864 C863 1.397 . S
C864 C865 1.334 . S
C865 H842 0.950 . S
C865 C864 1.334 . S
C865 C866 1.287 . S
C866 C865 1.287 . S
C866 C867 1.524 . S
C866 H885 0.913 . S
C867 H843 0.950 . S
C867 C866 1.524 . S
C867 C868 1.415 . S
C868 H844 0.950 . S
C868 C863 1.363 . S
C868 C867 1.415 . S
C869 H845 0.951 . S
C869 C870 1.366 . S
C869 C871 1.388 . S
C870 C869 1.366 . S
C870 C874 1.385 . S
C871 H846 0.951 . S
C871 C869 1.388 . S
C871 C872 1.374 . S
C872 C871 1.374 . S
C872 C873 1.420 . S
C872 C875 1.484 1_545 S
C873 H847 0.957 . S
C873 C872 1.420 . S
C873 C874 1.374 . S
C874 H848 0.950 . S
C874 C870 1.385 . S
C874 C873 1.374 . S
C875 C872 1.484 1_565 S
C875 C876 1.373 . S
C875 C877 1.389 . S
C876 H849 0.950 . S
C876 C862 1.377 . S
C876 C875 1.373 . S
C877 C861 1.377 . S
C877 C875 1.389 . S
C877 C878 1.524 1_565 S
C878 C877 1.524 1_545 S
C878 C879 1.397 . S
C878 C883 1.363 . S
C879 H850 0.950 . S
C879 C878 1.397 . S
C879 C880 1.334 . S
C880 H851 0.950 . S
C880 C879 1.334 . S
C880 C881 1.287 . S
C881 C880 1.287 . S
C881 C882 1.524 . S
C881 H884 0.999 . S
C882 H852 0.950 . S
C882 C881 1.524 . S
C882 C883 1.415 . S
C883 H853 0.950 1_545 S
C883 C878 1.363 . S
C883 C882 1.415 . S
H884 C881 0.999 . S
H885 C866 0.913 . S
H886 C904 0.951 . S
H887 C906 0.951 . S
H888 C908 0.950 . S
H889 C909 0.950 . S
H890 C911 0.950 . S
H891 C914 0.950 . S
H892 C915 0.950 . S
H893 C917 0.950 . S
H894 C918 0.950 . S
H895 C919 0.951 . S
H896 C921 0.951 . S
H897 C923 0.950 . S
H898 C924 0.950 . S
H899 C926 0.950 . S
H900 C929 0.950 . S
H901 C930 0.950 . S
H902 C932 0.950 . S
H903 C933 0.950 . S
C904 H886 0.951 . S
C904 C905 1.366 . S
C904 C906 1.388 . S
C905 C904 1.366 . S
C905 C909 1.385 . S
C906 H887 0.951 . S
C906 C904 1.388 . S
C906 C907 1.366 . S
C907 C906 1.366 . S
C907 C908 1.414 . S
C907 C910 1.499 . S
C908 H888 0.950 . S
C908 C907 1.414 . S
C908 C909 1.374 . S
C909 H889 0.950 . S
C909 C905 1.385 . S
C909 C908 1.374 . S
C910 C907 1.499 . S
C910 C911 1.373 . S
C910 C912 1.389 . S
C911 H890 0.950 . S
C911 C910 1.373 . S
C911 C927 1.377 . S
C912 C910 1.389 . S
C912 C913 1.524 . S
C912 C926 1.377 . S
C913 C912 1.524 . S
C913 C914 1.397 . S
C913 C918 1.363 . S
C914 H891 0.950 . S
C914 C913 1.397 . S
C914 C915 1.334 . S
C915 H892 0.950 . S
C915 C914 1.334 . S
C915 C916 1.287 . S
C916 C915 1.287 . S
C916 C917 1.524 . S
C916 H935 0.913 . S
C917 H893 0.950 . S
C917 C916 1.524 . S
C917 C918 1.415 . S
C918 H894 0.950 . S
C918 C913 1.363 . S
C918 C917 1.415 . S
C919 H895 0.951 . S
C919 C920 1.366 . S
C919 C921 1.388 . S
C920 C919 1.366 . S
C920 C924 1.385 . S
C921 H896 0.951 . S
C921 C919 1.388 . S
C921 C922 1.366 . S
C922 C921 1.366 . S
C922 C923 1.414 . S
C922 C925 1.499 . S
C923 H897 0.950 . S
C923 C922 1.414 . S
C923 C924 1.374 . S
C924 H898 0.950 . S
C924 C920 1.385 . S
C924 C923 1.374 . S
C925 C922 1.499 . S
C925 C926 1.373 . S
C925 C927 1.389 . S
C926 H899 0.950 . S
C926 C912 1.377 . S
C926 C925 1.373 . S
C927 C911 1.377 . S
C927 C925 1.389 . S
C927 C928 1.524 . S
C928 C927 1.524 . S
C928 C929 1.397 . S
C928 C933 1.363 . S
C929 H900 0.950 . S
C929 C928 1.397 . S
C929 C930 1.334 . S
C930 H901 0.950 . S
C930 C929 1.334 . S
C930 C931 1.287 . S
C931 C930 1.287 . S
C931 C932 1.524 . S
C931 H934 0.999 . S
C932 H902 0.950 . S
C932 C931 1.524 . S
C932 C933 1.415 . S
C933 H903 0.950 . S
C933 C928 1.363 . S
C933 C932 1.415 . S
H934 C931 0.999 . S
H935 C916 0.913 . S
H936 C954 0.951 . S
H937 C956 0.951 . S
H938 C958 0.950 . S
H939 C959 0.950 . S
H940 C961 0.950 . S
H941 C964 0.950 . S
H942 C965 0.950 . S
H943 C967 0.950 . S
H944 C968 0.950 . S
H945 C969 0.951 . S
H946 C971 0.951 . S
H947 C973 0.950 . S
H948 C974 0.950 . S
H949 C976 0.950 . S
H950 C979 0.950 . S
H951 C980 0.950 . S
H952 C982 0.950 . S
H953 C983 0.950 . S
C954 H936 0.951 . S
C954 C955 1.366 . S
C954 C956 1.388 . S
C955 C954 1.366 . S
C955 C959 1.385 . S
C956 H937 0.951 . S
C956 C954 1.388 . S
C956 C957 1.366 . S
C957 C956 1.366 . S
C957 C958 1.414 . S
C957 C960 1.499 . S
C958 H938 0.950 . S
C958 C957 1.414 . S
C958 C959 1.374 . S
C959 H939 0.950 . S
C959 C955 1.385 . S
C959 C958 1.374 . S
C960 C957 1.499 . S
C960 C961 1.373 . S
C960 C962 1.389 . S
C961 H940 0.950 . S
C961 C960 1.373 . S
C961 C977 1.377 . S
C962 C960 1.389 . S
C962 C963 1.524 . S
C962 C976 1.377 . S
C963 C962 1.524 . S
C963 C964 1.397 . S
C963 C968 1.363 . S
C964 H941 0.950 . S
C964 C963 1.397 . S
C964 C965 1.334 . S
C965 H942 0.950 . S
C965 C964 1.334 . S
C965 C966 1.287 . S
C966 C965 1.287 . S
C966 C967 1.524 . S
C966 H985 0.913 . S
C967 H943 0.950 . S
C967 C966 1.524 . S
C967 C968 1.415 . S
C968 H944 0.950 . S
C968 C963 1.363 . S
C968 C967 1.415 . S
C969 H945 0.951 . S
C969 C970 1.366 . S
C969 C971 1.388 . S
C970 C969 1.366 . S
C970 C974 1.385 . S
C971 H946 0.951 . S
C971 C969 1.388 . S
C971 C972 1.366 . S
C972 C971 1.366 . S
C972 C973 1.414 . S
C972 C975 1.499 . S
C973 H947 0.950 . S
C973 C972 1.414 . S
C973 C974 1.374 . S
C974 H948 0.950 . S
C974 C970 1.385 . S
C974 C973 1.374 . S
C975 C972 1.499 . S
C975 C976 1.373 . S
C975 C977 1.389 . S
C976 H949 0.950 . S
C976 C962 1.377 . S
C976 C975 1.373 . S
C977 C961 1.377 . S
C977 C975 1.389 . S
C977 C978 1.524 . S
C978 C977 1.524 . S
C978 C979 1.397 . S
C978 C983 1.363 . S
C979 H950 0.950 . S
C979 C978 1.397 . S
C979 C980 1.334 . S
C980 H951 0.950 . S
C980 C979 1.334 . S
C980 C981 1.287 . S
C981 C980 1.287 . S
C981 C982 1.524 . S
C981 H984 0.999 . S
C982 H952 0.950 . S
C982 C981 1.524 . S
C982 C983 1.415 . S
C983 H953 0.950 . S
C983 C978 1.363 . S
C983 C982 1.415 . S
H984 C981 0.999 . S
H985 C966 0.913 . S
H986 C1004 0.951 . S
H987 C1006 0.951 . S
H988 C1008 0.950 . S
H989 C1009 0.950 . S
H990 C1011 0.950 . S
H991 C1014 0.950 . S
H992 C1015 0.950 . S
H993 C1017 0.950 . S
H994 C1018 0.950 1_545 S
H995 C1019 0.951 . S
H996 C1021 0.951 . S
H997 C1023 0.950 . S
H998 C1024 0.950 . S
H999 C1026 0.950 . S
H1000 C1029 0.950 . S
H1001 C1030 0.950 . S
H1002 C1032 0.950 . S
H1003 C1033 0.950 . S
C1004 H986 0.951 . S
C1004 C1005 1.366 . S
C1004 C1006 1.388 . S
C1005 C1004 1.366 . S
C1005 C1009 1.385 . S
C1006 H987 0.951 . S
C1006 C1004 1.388 . S
C1006 C1007 1.366 . S
C1007 C1006 1.366 . S
C1007 C1008 1.414 . S
C1007 C1010 1.499 1_565 S
C1008 H988 0.950 . S
C1008 C1007 1.414 . S
C1008 C1009 1.374 . S
C1009 H989 0.950 . S
C1009 C1005 1.385 . S
C1009 C1008 1.374 . S
C1010 C1007 1.499 1_545 S
C1010 C1011 1.373 . S
C1010 C1012 1.389 . S
C1011 H990 0.950 . S
C1011 C1010 1.373 . S
C1011 C1027 1.377 . S
C1012 C1010 1.389 . S
C1012 C1013 1.524 1_545 S
C1012 C1026 1.377 . S
C1013 C1012 1.524 1_565 S
C1013 C1014 1.397 . S
C1013 C1018 1.363 . S
C1014 H991 0.950 . S
C1014 C1013 1.397 . S
C1014 C1015 1.334 . S
C1015 H992 0.950 . S
C1015 C1014 1.334 . S
C1015 C1016 1.287 . S
C1016 C1015 1.287 . S
C1016 C1017 1.524 . S
C1016 H1035 0.913 . S
C1017 H993 0.950 . S
C1017 C1016 1.524 . S
C1017 C1018 1.415 . S
C1018 H994 0.950 1_565 S
C1018 C1013 1.363 . S
C1018 C1017 1.415 . S
C1019 H995 0.951 . S
C1019 C1020 1.366 . S
C1019 C1021 1.388 . S
C1020 C1019 1.366 . S
C1020 C1024 1.385 . S
C1021 H996 0.951 . S
C1021 C1019 1.388 . S
C1021 C1022 1.366 . S
C1022 C1021 1.366 . S
C1022 C1023 1.414 . S
C1022 C1025 1.499 . S
C1023 H997 0.950 . S
C1023 C1022 1.414 . S
C1023 C1024 1.374 . S
C1024 H998 0.950 . S
C1024 C1020 1.385 . S
C1024 C1023 1.374 . S
C1025 C1022 1.499 . S
C1025 C1026 1.373 . S
C1025 C1027 1.389 . S
C1026 H999 0.950 . S
C1026 C1012 1.377 . S
C1026 C1025 1.373 . S
C1027 C1011 1.377 . S
C1027 C1025 1.389 . S
C1027 C1028 1.524 . S
C1028 C1027 1.524 . S
C1028 C1029 1.397 . S
C1028 C1033 1.363 . S
C1029 H1000 0.950 . S
C1029 C1028 1.397 . S
C1029 C1030 1.334 . S
C1030 H1001 0.950 . S
C1030 C1029 1.334 . S
C1030 C1031 1.287 . S
C1031 C1030 1.287 . S
C1031 C1032 1.524 . S
C1031 H1034 0.999 . S
C1032 H1002 0.950 . S
C1032 C1031 1.524 . S
C1032 C1033 1.415 . S
C1033 H1003 0.950 . S
C1033 C1028 1.363 . S
C1033 C1032 1.415 . S
H1034 C1031 0.999 . S
H1035 C1016 0.913 . S
H1036 C1054 0.951 . S
H1037 C1056 0.951 . S
H1038 C1058 0.950 . S
H1039 C1059 0.950 . S
H1040 C1061 0.950 . S
H1041 C1064 0.950 . S
H1042 C1065 0.950 . S
H1043 C1067 0.950 . S
H1044 C1068 0.950 . S
H1045 C1069 0.951 . S
H1046 C1071 0.951 . S
H1047 C1073 0.950 . S
H1048 C1074 0.950 . S
H1049 C1076 0.950 . S
H1050 C1079 0.950 . S
H1051 C1080 0.950 . S
H1052 C1082 0.950 . S
H1053 C1083 0.950 1_556 S
C1054 H1036 0.951 . S
C1054 C1055 1.366 . S
C1054 C1056 1.388 . S
C1055 C1054 1.366 . S
C1055 C1059 1.385 . S
C1056 H1037 0.951 . S
C1056 C1054 1.388 . S
C1056 C1057 1.366 . S
C1057 C1056 1.366 . S
C1057 C1058 1.414 . S
C1057 C1060 1.499 . S
C1058 H1038 0.950 . S
C1058 C1057 1.414 . S
C1058 C1059 1.374 . S
C1059 H1039 0.950 . S
C1059 C1055 1.385 . S
C1059 C1058 1.374 . S
C1060 C1057 1.499 . S
C1060 C1061 1.373 . S
C1060 C1062 1.389 . S
C1061 H1040 0.950 . S
C1061 C1060 1.373 . S
C1061 C1077 1.377 . S
C1062 C1060 1.389 . S
C1062 C1063 1.524 . S
C1062 C1076 1.377 . S
C1063 C1062 1.524 . S
C1063 C1064 1.397 . S
C1063 C1068 1.363 . S
C1064 H1041 0.950 . S
C1064 C1063 1.397 . S
C1064 C1065 1.334 . S
C1065 H1042 0.950 . S
C1065 C1064 1.334 . S
C1065 C1066 1.287 . S
C1066 C1065 1.287 . S
C1066 C1067 1.524 . S
C1066 H1085 0.913 . S
C1067 H1043 0.950 . S
C1067 C1066 1.524 . S
C1067 C1068 1.415 . S
C1068 H1044 0.950 . S
C1068 C1063 1.363 . S
C1068 C1067 1.415 . S
C1069 H1045 0.951 . S
C1069 C1070 1.366 . S
C1069 C1071 1.388 . S
C1070 C1069 1.366 . S
C1070 C1074 1.385 . S
C1071 H1046 0.951 . S
C1071 C1069 1.388 . S
C1071 C1072 1.366 . S
C1072 C1071 1.366 . S
C1072 C1073 1.414 . S
C1072 C1075 1.499 1_554 S
C1073 H1047 0.950 . S
C1073 C1072 1.414 . S
C1073 C1074 1.374 . S
C1074 H1048 0.950 . S
C1074 C1070 1.385 . S
C1074 C1073 1.374 . S
C1075 C1072 1.499 1_556 S
C1075 C1076 1.373 . S
C1075 C1077 1.389 . S
C1076 H1049 0.950 . S
C1076 C1062 1.377 . S
C1076 C1075 1.373 . S
C1077 C1061 1.377 . S
C1077 C1075 1.389 . S
C1077 C1078 1.524 1_556 S
C1078 C1077 1.524 1_554 S
C1078 C1079 1.397 . S
C1078 C1083 1.363 . S
C1079 H1050 0.950 . S
C1079 C1078 1.397 . S
C1079 C1080 1.334 . S
C1080 H1051 0.950 . S
C1080 C1079 1.334 . S
C1080 C1081 1.287 . S
C1081 C1080 1.287 . S
C1081 C1082 1.524 . S
C1081 H1084 0.999 . S
C1082 H1052 0.950 . S
C1082 C1081 1.524 . S
C1082 C1083 1.415 . S
C1083 H1053 0.950 1_554 S
C1083 C1078 1.363 . S
C1083 C1082 1.415 . S
H1084 C1081 0.999 . S
H1085 C1066 0.913 . S
H1086 C1104 0.951 . S
H1087 C1106 0.951 . S
H1088 C1108 0.917 1_565 S
H1089 C1109 0.950 . S
H1090 C1111 0.950 . S
H1091 C1114 0.950 . S
H1092 C1115 0.950 . S
H1093 C1117 0.950 . S
H1094 C1118 0.950 . S
H1095 C1119 0.951 . S
H1096 C1121 0.951 . S
H1097 C1123 0.950 . S
H1098 C1124 0.950 . S
H1099 C1126 0.950 . S
H1100 C1129 0.950 . S
H1101 C1130 0.950 . S
H1102 C1132 0.950 . S
H1103 C1133 0.950 . S
C1104 H1086 0.951 . S
C1104 C1105 1.366 . S
C1104 C1106 1.388 . S
C1105 C1104 1.366 . S
C1105 C1109 1.385 . S
C1106 H1087 0.951 . S
C1106 C1104 1.388 . S
C1106 C1107 1.366 . S
C1107 C1106 1.366 . S
C1107 C1108 1.414 . S
C1107 C1110 1.499 1_545 S
C1108 H1088 0.917 1_545 S
C1108 C1107 1.414 . S
C1108 C1109 1.374 . S
C1109 H1089 0.950 . S
C1109 C1105 1.385 . S
C1109 C1108 1.374 . S
C1110 C1107 1.499 1_565 S
C1110 C1111 1.373 . S
C1110 C1112 1.389 1_565 S
C1111 H1090 0.950 . S
C1111 C1110 1.373 . S
C1111 C1127 1.377 . S
C1112 C1110 1.389 1_545 S
C1112 C1113 1.524 . S
C1112 C1126 1.377 1_545 S
C1113 C1112 1.524 . S
C1113 C1114 1.397 . S
C1113 C1118 1.363 . S
C1114 H1091 0.950 . S
C1114 C1113 1.397 . S
C1114 C1115 1.334 . S
C1115 H1092 0.950 . S
C1115 C1114 1.334 . S
C1115 C1116 1.287 . S
C1116 C1115 1.287 . S
C1116 C1117 1.524 . S
C1116 H1135 0.913 . S
C1117 H1093 0.950 . S
C1117 C1116 1.524 . S
C1117 C1118 1.415 . S
C1118 H1094 0.950 . S
C1118 C1113 1.363 . S
C1118 C1117 1.415 . S
C1119 H1095 0.951 . S
C1119 C1120 1.366 . S
C1119 C1121 1.388 . S
C1120 C1119 1.366 . S
C1120 C1124 1.385 . S
C1121 H1096 0.951 . S
C1121 C1119 1.388 . S
C1121 C1122 1.366 . S
C1122 C1121 1.366 . S
C1122 C1123 1.414 . S
C1122 C1125 1.499 . S
C1123 H1097 0.950 . S
C1123 C1122 1.414 . S
C1123 C1124 1.374 . S
C1124 H1098 0.950 . S
C1124 C1120 1.385 . S
C1124 C1123 1.374 . S
C1125 C1122 1.499 . S
C1125 C1126 1.373 . S
C1125 C1127 1.389 . S
C1126 H1099 0.950 . S
C1126 C1112 1.377 1_565 S
C1126 C1125 1.373 . S
C1127 C1111 1.377 . S
C1127 C1125 1.389 . S
C1127 C1128 1.524 . S
C1128 C1127 1.524 . S
C1128 C1129 1.397 . S
C1128 C1133 1.363 . S
C1129 H1100 0.950 . S
C1129 C1128 1.397 . S
C1129 C1130 1.334 . S
C1130 H1101 0.950 . S
C1130 C1129 1.334 . S
C1130 C1131 1.287 . S
C1131 C1130 1.287 . S
C1131 C1132 1.524 . S
C1131 H1134 0.999 . S
C1132 H1102 0.950 . S
C1132 C1131 1.524 . S
C1132 C1133 1.415 . S
C1133 H1103 0.950 . S
C1133 C1128 1.363 . S
C1133 C1132 1.415 . S
H1134 C1131 0.999 . S
H1135 C1116 0.913 . S
H1136 C1154 0.951 . S
H1137 C1156 0.951 . S
H1138 C1158 0.950 . S
H1139 C1159 0.950 . S
H1140 C1161 0.950 . S
H1141 C1164 0.950 . S
H1142 C1165 0.950 . S
H1143 C1167 0.950 . S
H1144 C1168 0.950 . S
H1145 C1169 0.951 . S
H1146 C1171 0.951 . S
H1147 C1173 0.950 . S
H1148 C1174 0.950 . S
H1149 C1176 0.950 . S
H1150 C1179 0.950 . S
H1151 C1180 0.950 . S
H1152 C1182 0.950 . S
H1153 C1183 0.950 . S
C1154 H1136 0.951 . S
C1154 C1155 1.366 . S
C1154 C1156 1.388 . S
C1155 C1154 1.366 . S
C1155 C1159 1.385 . S
C1156 H1137 0.951 . S
C1156 C1154 1.388 . S
C1156 C1157 1.366 . S
C1157 C1156 1.366 . S
C1157 C1158 1.414 . S
C1157 C1160 1.499 . S
C1158 H1138 0.950 . S
C1158 C1157 1.414 . S
C1158 C1159 1.374 . S
C1159 H1139 0.950 . S
C1159 C1155 1.385 . S
C1159 C1158 1.374 . S
C1160 C1157 1.499 . S
C1160 C1161 1.373 . S
C1160 C1162 1.389 . S
C1161 H1140 0.950 . S
C1161 C1160 1.373 . S
C1161 C1177 1.377 . S
C1162 C1160 1.389 . S
C1162 C1163 1.524 . S
C1162 C1176 1.377 . S
C1163 C1162 1.524 . S
C1163 C1164 1.397 . S
C1163 C1168 1.363 . S
C1164 H1141 0.950 . S
C1164 C1163 1.397 . S
C1164 C1165 1.334 . S
C1165 H1142 0.950 . S
C1165 C1164 1.334 . S
C1165 C1166 1.287 . S
C1166 C1165 1.287 . S
C1166 C1167 1.524 . S
C1166 H1185 0.913 . S
C1167 H1143 0.950 . S
C1167 C1166 1.524 . S
C1167 C1168 1.415 . S
C1168 H1144 0.950 . S
C1168 C1163 1.363 . S
C1168 C1167 1.415 . S
C1169 H1145 0.951 . S
C1169 C1170 1.366 . S
C1169 C1171 1.388 . S
C1170 C1169 1.366 . S
C1170 C1174 1.385 . S
C1171 H1146 0.951 . S
C1171 C1169 1.388 . S
C1171 C1172 1.366 . S
C1172 C1171 1.366 . S
C1172 C1173 1.414 . S
C1172 C1175 1.499 . S
C1173 H1147 0.950 . S
C1173 C1172 1.414 . S
C1173 C1174 1.374 . S
C1174 H1148 0.950 . S
C1174 C1170 1.385 . S
C1174 C1173 1.374 . S
C1175 C1172 1.499 . S
C1175 C1176 1.373 . S
C1175 C1177 1.389 . S
C1176 H1149 0.950 . S
C1176 C1162 1.377 . S
C1176 C1175 1.373 . S
C1177 C1161 1.377 . S
C1177 C1175 1.389 . S
C1177 C1178 1.524 . S
C1178 C1177 1.524 . S
C1178 C1179 1.397 . S
C1178 C1183 1.363 . S
C1179 H1150 0.950 . S
C1179 C1178 1.397 . S
C1179 C1180 1.334 . S
C1180 H1151 0.950 . S
C1180 C1179 1.334 . S
C1180 C1181 1.287 . S
C1181 C1180 1.287 . S
C1181 C1182 1.524 . S
C1181 H1184 0.999 . S
C1182 H1152 0.950 . S
C1182 C1181 1.524 . S
C1182 C1183 1.415 . S
C1183 H1153 0.950 . S
C1183 C1178 1.363 . S
C1183 C1182 1.415 . S
H1184 C1181 0.999 . S
H1185 C1166 0.913 . S
H1186 C1204 0.951 . S
H1187 C1206 0.951 . S
H1188 C1208 0.950 . S
H1189 C1209 0.950 . S
H1190 C1211 0.950 . S
H1191 C1214 0.950 . S
H1192 C1215 0.950 . S
H1193 C1217 0.950 . S
H1194 C1218 0.950 . S
H1195 C1219 0.951 . S
H1196 C1221 0.951 . S
H1197 C1223 0.950 . S
H1198 C1224 0.950 . S
H1199 C1226 0.950 . S
H1200 C1229 0.950 . S
H1201 C1230 0.950 . S
H1202 C1232 0.950 . S
H1203 C1233 0.950 . S
C1204 H1186 0.951 . S
C1204 C1205 1.366 . S
C1204 C1206 1.388 . S
C1205 C1204 1.366 . S
C1205 C1209 1.385 . S
C1206 H1187 0.951 . S
C1206 C1204 1.388 . S
C1206 C1207 1.366 . S
C1207 C1206 1.366 . S
C1207 C1208 1.414 . S
C1207 C1210 1.499 . S
C1208 H1188 0.950 . S
C1208 C1207 1.414 . S
C1208 C1209 1.374 . S
C1209 H1189 0.950 . S
C1209 C1205 1.385 . S
C1209 C1208 1.374 . S
C1210 C1207 1.499 . S
C1210 C1211 1.373 . S
C1210 C1212 1.389 . S
C1211 H1190 0.950 . S
C1211 C1210 1.373 . S
C1211 C1227 1.377 . S
C1212 C1210 1.389 . S
C1212 C1213 1.524 . S
C1212 C1226 1.377 . S
C1213 C1212 1.524 . S
C1213 C1214 1.397 . S
C1213 C1218 1.363 . S
C1214 H1191 0.950 . S
C1214 C1213 1.397 . S
C1214 C1215 1.334 . S
C1215 H1192 0.950 . S
C1215 C1214 1.334 . S
C1215 C1216 1.287 . S
C1216 C1215 1.287 . S
C1216 C1217 1.524 . S
C1216 H1235 0.913 . S
C1217 H1193 0.950 . S
C1217 C1216 1.524 . S
C1217 C1218 1.415 . S
C1218 H1194 0.950 . S
C1218 C1213 1.363 . S
C1218 C1217 1.415 . S
C1219 H1195 0.951 . S
C1219 C1220 1.366 . S
C1219 C1221 1.388 . S
C1220 C1219 1.366 . S
C1220 C1224 1.385 . S
C1221 H1196 0.951 . S
C1221 C1219 1.388 . S
C1221 C1222 1.366 . S
C1222 C1221 1.366 . S
C1222 C1223 1.414 . S
C1222 C1225 1.499 . S
C1223 H1197 0.950 . S
C1223 C1222 1.414 . S
C1223 C1224 1.374 . S
C1224 H1198 0.950 . S
C1224 C1220 1.385 . S
C1224 C1223 1.374 . S
C1225 C1222 1.499 . S
C1225 C1226 1.373 . S
C1225 C1227 1.389 . S
C1226 H1199 0.950 . S
C1226 C1212 1.377 . S
C1226 C1225 1.373 . S
C1227 C1211 1.377 . S
C1227 C1225 1.389 . S
C1227 C1228 1.524 . S
C1228 C1227 1.524 . S
C1228 C1229 1.397 . S
C1228 C1233 1.363 . S
C1229 H1200 0.950 . S
C1229 C1228 1.397 . S
C1229 C1230 1.334 . S
C1230 H1201 0.950 . S
C1230 C1229 1.334 . S
C1230 C1231 1.287 . S
C1231 C1230 1.287 . S
C1231 C1232 1.524 . S
C1231 H1234 0.999 . S
C1232 H1202 0.950 . S
C1232 C1231 1.524 . S
C1232 C1233 1.415 . S
C1233 H1203 0.950 . S
C1233 C1228 1.363 . S
C1233 C1232 1.415 . S
H1234 C1231 0.999 . S
H1235 C1216 0.913 . S
H1236 C1254 0.951 . S
H1237 C1256 0.951 . S
H1238 C1258 0.950 . S
H1239 C1259 0.950 . S
H1240 C1261 0.950 . S
H1241 C1264 0.950 . S
H1242 C1265 0.950 . S
H1243 C1267 0.950 . S
H1244 C1268 0.950 . S
H1245 C1269 0.951 . S
H1246 C1271 0.951 . S
H1247 C1273 0.950 . S
H1248 C1274 0.950 . S
H1249 C1276 0.950 . S
H1250 C1279 0.940 1_554 S
H1251 C1280 0.950 . S
H1252 C1282 0.950 . S
H1253 C1283 0.950 . S
C1254 H1236 0.951 . S
C1254 C1255 1.366 . S
C1254 C1256 1.388 . S
C1255 C1254 1.366 . S
C1255 C1259 1.385 . S
C1256 H1237 0.951 . S
C1256 C1254 1.388 . S
C1256 C1257 1.366 . S
C1257 C1256 1.366 . S
C1257 C1258 1.414 . S
C1257 C1260 1.499 1_556 S
C1258 H1238 0.950 . S
C1258 C1257 1.414 . S
C1258 C1259 1.374 . S
C1259 H1239 0.950 . S
C1259 C1255 1.385 . S
C1259 C1258 1.374 . S
C1260 C1257 1.499 1_554 S
C1260 C1261 1.373 1_554 S
C1260 C1262 1.389 . S
C1261 H1240 0.950 . S
C1261 C1260 1.373 1_556 S
C1261 C1277 1.377 1_556 S
C1262 C1260 1.389 . S
C1262 C1263 1.524 . S
C1262 C1276 1.377 . S
C1263 C1262 1.524 . S
C1263 C1264 1.397 . S
C1263 C1268 1.363 . S
C1264 H1241 0.950 . S
C1264 C1263 1.397 . S
C1264 C1265 1.334 . S
C1265 H1242 0.950 . S
C1265 C1264 1.334 . S
C1265 C1266 1.287 . S
C1266 C1265 1.287 . S
C1266 C1267 1.524 . S
C1266 H1285 0.913 . S
C1267 H1243 0.950 . S
C1267 C1266 1.524 . S
C1267 C1268 1.415 . S
C1268 H1244 0.950 . S
C1268 C1263 1.363 . S
C1268 C1267 1.415 . S
C1269 H1245 0.951 . S
C1269 C1270 1.366 . S
C1269 C1271 1.388 . S
C1270 C1269 1.366 . S
C1270 C1274 1.385 . S
C1271 H1246 0.951 . S
C1271 C1269 1.388 . S
C1271 C1272 1.366 . S
C1272 C1271 1.366 . S
C1272 C1273 1.414 . S
C1272 C1275 1.499 . S
C1273 H1247 0.950 . S
C1273 C1272 1.414 . S
C1273 C1274 1.374 . S
C1274 H1248 0.950 . S
C1274 C1270 1.385 . S
C1274 C1273 1.374 . S
C1275 C1272 1.499 . S
C1275 C1276 1.373 . S
C1275 C1277 1.389 . S
C1276 H1249 0.950 . S
C1276 C1262 1.377 . S
C1276 C1275 1.373 . S
C1277 C1261 1.377 1_554 S
C1277 C1275 1.389 . S
C1277 C1278 1.525 . S
C1278 C1277 1.525 . S
C1278 C1279 1.396 1_554 S
C1278 C1283 1.362 1_554 S
C1279 H1250 0.940 1_556 S
C1279 C1278 1.396 1_556 S
C1279 C1280 1.345 . S
C1280 H1251 0.950 . S
C1280 C1279 1.345 . S
C1280 C1281 1.287 . S
C1281 C1280 1.287 . S
C1281 C1282 1.524 . S
C1281 H1284 0.999 . S
C1282 H1252 0.950 . S
C1282 C1281 1.524 . S
C1282 C1283 1.415 . S
C1283 H1253 0.950 . S
C1283 C1278 1.362 1_556 S
C1283 C1282 1.415 . S
H1284 C1281 0.999 . S
H1285 C1266 0.913 . S
H1286 C1304 0.951 . S
H1287 C1306 0.951 . S
H1288 C1308 0.950 . S
H1289 C1309 0.950 . S
H1290 C1311 0.950 . S
H1291 C1314 0.950 . S
H1292 C1315 0.950 . S
H1293 C1317 0.950 . S
H1294 C1318 0.950 . S
H1295 C1319 0.951 . S
H1296 C1321 0.951 . S
H1297 C1323 0.950 . S
H1298 C1324 0.950 . S
H1299 C1326 0.950 . S
H1300 C1329 0.950 . S
H1301 C1330 0.950 . S
H1302 C1332 0.950 . S
H1303 C1333 0.950 . S
C1304 H1286 0.951 . S
C1304 C1305 1.366 . S
C1304 C1306 1.388 . S
C1305 C1304 1.366 . S
C1305 C1309 1.385 . S
C1306 H1287 0.951 . S
C1306 C1304 1.388 . S
C1306 C1307 1.366 . S
C1307 C1306 1.366 . S
C1307 C1308 1.414 . S
C1307 C1310 1.499 . S
C1308 H1288 0.950 . S
C1308 C1307 1.414 . S
C1308 C1309 1.374 . S
C1309 H1289 0.950 . S
C1309 C1305 1.385 . S
C1309 C1308 1.374 . S
C1310 C1307 1.499 . S
C1310 C1311 1.373 . S
C1310 C1312 1.389 . S
C1311 H1290 0.950 . S
C1311 C1310 1.373 . S
C1311 C1327 1.377 . S
C1312 C1310 1.389 . S
C1312 C1313 1.524 . S
C1312 C1326 1.377 . S
C1313 C1312 1.524 . S
C1313 C1314 1.397 . S
C1313 C1318 1.363 . S
C1314 H1291 0.950 . S
C1314 C1313 1.397 . S
C1314 C1315 1.334 . S
C1315 H1292 0.950 . S
C1315 C1314 1.334 . S
C1315 C1316 1.287 . S
C1316 C1315 1.287 . S
C1316 C1317 1.524 . S
C1316 H1335 0.913 . S
C1317 H1293 0.950 . S
C1317 C1316 1.524 . S
C1317 C1318 1.415 . S
C1318 H1294 0.950 . S
C1318 C1313 1.363 . S
C1318 C1317 1.415 . S
C1319 H1295 0.951 . S
C1319 C1320 1.366 . S
C1319 C1321 1.388 . S
C1320 C1319 1.366 . S
C1320 C1324 1.385 . S
C1321 H1296 0.951 . S
C1321 C1319 1.388 . S
C1321 C1322 1.366 . S
C1322 C1321 1.366 . S
C1322 C1323 1.414 . S
C1322 C1325 1.499 . S
C1323 H1297 0.950 . S
C1323 C1322 1.414 . S
C1323 C1324 1.374 . S
C1324 H1298 0.950 . S
C1324 C1320 1.385 . S
C1324 C1323 1.374 . S
C1325 C1322 1.499 . S
C1325 C1326 1.373 . S
C1325 C1327 1.389 . S
C1326 H1299 0.950 . S
C1326 C1312 1.377 . S
C1326 C1325 1.373 . S
C1327 C1311 1.377 . S
C1327 C1325 1.389 . S
C1327 C1328 1.524 . S
C1328 C1327 1.524 . S
C1328 C1329 1.397 . S
C1328 C1333 1.363 . S
C1329 H1300 0.950 . S
C1329 C1328 1.397 . S
C1329 C1330 1.334 . S
C1330 H1301 0.950 . S
C1330 C1329 1.334 . S
C1330 C1331 1.287 . S
C1331 C1330 1.287 . S
C1331 C1332 1.524 . S
C1331 H1334 0.999 . S
C1332 H1302 0.950 . S
C1332 C1331 1.524 . S
C1332 C1333 1.415 . S
C1333 H1303 0.950 . S
C1333 C1328 1.363 . S
C1333 C1332 1.415 . S
H1334 C1331 0.999 . S
H1335 C1316 0.913 . S
H1336 C1354 0.951 . S
H1337 C1356 0.951 . S
H1338 C1358 0.950 . S
H1339 C1359 0.950 . S
H1340 C1361 0.950 . S
H1341 C1364 0.950 . S
H1342 C1365 0.950 . S
H1343 C1367 0.950 . S
H1344 C1368 0.950 . S
H1345 C1369 0.951 . S
H1346 C1371 0.951 . S
H1347 C1373 0.950 . S
H1348 C1374 0.950 . S
H1349 C1376 0.950 . S
H1350 C1379 0.950 . S
H1351 C1380 0.950 . S
H1352 C1382 0.950 . S
H1353 C1383 0.950 . S
C1354 H1336 0.951 . S
C1354 C1355 1.366 . S
C1354 C1356 1.388 . S
C1355 C1354 1.366 . S
C1355 C1359 1.385 . S
C1356 H1337 0.951 . S
C1356 C1354 1.388 . S
C1356 C1357 1.366 . S
C1357 C1356 1.366 . S
C1357 C1358 1.414 . S
C1357 C1360 1.499 . S
C1358 H1338 0.950 . S
C1358 C1357 1.414 . S
C1358 C1359 1.374 . S
C1359 H1339 0.950 . S
C1359 C1355 1.385 . S
C1359 C1358 1.374 . S
C1360 C1357 1.499 . S
C1360 C1361 1.373 . S
C1360 C1362 1.389 . S
C1361 H1340 0.950 . S
C1361 C1360 1.373 . S
C1361 C1377 1.377 . S
C1362 C1360 1.389 . S
C1362 C1363 1.524 . S
C1362 C1376 1.377 . S
C1363 C1362 1.524 . S
C1363 C1364 1.397 . S
C1363 C1368 1.363 . S
C1364 H1341 0.950 . S
C1364 C1363 1.397 . S
C1364 C1365 1.334 . S
C1365 H1342 0.950 . S
C1365 C1364 1.334 . S
C1365 C1366 1.287 . S
C1366 C1365 1.287 . S
C1366 C1367 1.524 . S
C1366 H1385 0.913 . S
C1367 H1343 0.950 . S
C1367 C1366 1.524 . S
C1367 C1368 1.415 . S
C1368 H1344 0.950 . S
C1368 C1363 1.363 . S
C1368 C1367 1.415 . S
C1369 H1345 0.951 . S
C1369 C1370 1.366 . S
C1369 C1371 1.388 . S
C1370 C1369 1.366 . S
C1370 C1374 1.385 . S
C1371 H1346 0.951 . S
C1371 C1369 1.388 . S
C1371 C1372 1.366 . S
C1372 C1371 1.366 . S
C1372 C1373 1.414 . S
C1372 C1375 1.499 . S
C1373 H1347 0.950 . S
C1373 C1372 1.414 . S
C1373 C1374 1.374 . S
C1374 H1348 0.950 . S
C1374 C1370 1.385 . S
C1374 C1373 1.374 . S
C1375 C1372 1.499 . S
C1375 C1376 1.373 . S
C1375 C1377 1.389 . S
C1376 H1349 0.950 . S
C1376 C1362 1.377 . S
C1376 C1375 1.373 . S
C1377 C1361 1.377 . S
C1377 C1375 1.389 . S
C1377 C1378 1.524 . S
C1378 C1377 1.524 . S
C1378 C1379 1.397 . S
C1378 C1383 1.363 . S
C1379 H1350 0.950 . S
C1379 C1378 1.397 . S
C1379 C1380 1.334 . S
C1380 H1351 0.950 . S
C1380 C1379 1.334 . S
C1380 C1381 1.287 . S
C1381 C1380 1.287 . S
C1381 C1382 1.524 . S
C1381 H1384 0.999 . S
C1382 H1352 0.950 . S
C1382 C1381 1.524 . S
C1382 C1383 1.415 . S
C1383 H1353 0.950 . S
C1383 C1378 1.363 . S
C1383 C1382 1.415 . S
H1384 C1381 0.999 . S
H1385 C1366 0.913 . S
H1386 C1404 0.951 . S
H1387 C1406 0.951 . S
H1388 C1408 0.950 1_655 S
H1389 C1409 0.950 . S
H1390 C1411 0.950 . S
H1391 C1414 0.950 . S
H1392 C1415 0.950 . S
H1393 C1417 0.950 . S
H1394 C1418 0.950 . S
H1395 C1419 0.951 . S
H1396 C1421 0.951 . S
H1397 C1423 0.950 . S
H1398 C1424 0.950 . S
H1399 C1426 0.950 . S
H1400 C1429 0.950 . S
H1401 C1430 0.950 . S
H1402 C1432 0.950 . S
H1403 C1433 0.950 . S
C1404 H1386 0.951 . S
C1404 C1405 1.366 . S
C1404 C1406 1.388 . S
C1405 C1404 1.366 . S
C1405 C1409 1.385 . S
C1406 H1387 0.951 . S
C1406 C1404 1.388 . S
C1406 C1407 1.366 . S
C1407 C1406 1.366 . S
C1407 C1408 1.414 . S
C1407 C1410 1.499 1_455 S
C1408 H1388 0.950 1_455 S
C1408 C1407 1.414 . S
C1408 C1409 1.374 . S
C1409 H1389 0.950 . S
C1409 C1405 1.385 . S
C1409 C1408 1.374 . S
C1410 C1407 1.499 1_655 S
C1410 C1411 1.373 . S
C1410 C1412 1.389 1_655 S
C1411 H1390 0.950 . S
C1411 C1410 1.373 . S
C1411 C1427 1.377 . S
C1412 C1410 1.389 1_455 S
C1412 C1413 1.524 . S
C1412 C1426 1.377 1_455 S
C1413 C1412 1.524 . S
C1413 C1414 1.397 . S
C1413 C1418 1.363 . S
C1414 H1391 0.950 . S
C1414 C1413 1.397 . S
C1414 C1415 1.334 . S
C1415 H1392 0.950 . S
C1415 C1414 1.334 . S
C1415 C1416 1.287 . S
C1416 C1415 1.287 . S
C1416 C1417 1.524 . S
C1416 H1435 0.913 . S
C1417 H1393 0.950 . S
C1417 C1416 1.524 . S
C1417 C1418 1.415 . S
C1418 H1394 0.950 . S
C1418 C1413 1.363 . S
C1418 C1417 1.415 . S
C1419 H1395 0.951 . S
C1419 C1420 1.366 . S
C1419 C1421 1.388 . S
C1420 C1419 1.366 . S
C1420 C1424 1.385 . S
C1421 H1396 0.951 . S
C1421 C1419 1.388 . S
C1421 C1422 1.366 . S
C1422 C1421 1.366 . S
C1422 C1423 1.414 . S
C1422 C1425 1.499 . S
C1423 H1397 0.950 . S
C1423 C1422 1.414 . S
C1423 C1424 1.374 . S
C1424 H1398 0.950 . S
C1424 C1420 1.385 . S
C1424 C1423 1.374 . S
C1425 C1422 1.499 . S
C1425 C1426 1.373 . S
C1425 C1427 1.389 . S
C1426 H1399 0.950 . S
C1426 C1412 1.377 1_655 S
C1426 C1425 1.373 . S
C1427 C1411 1.377 . S
C1427 C1425 1.389 . S
C1427 C1428 1.524 . S
C1428 C1427 1.524 . S
C1428 C1429 1.397 . S
C1428 C1433 1.363 . S
C1429 H1400 0.950 . S
C1429 C1428 1.397 . S
C1429 C1430 1.334 . S
C1430 H1401 0.950 . S
C1430 C1429 1.334 . S
C1430 C1431 1.287 . S
C1431 C1430 1.287 . S
C1431 C1432 1.524 . S
C1431 H1434 0.999 . S
C1432 H1402 0.950 . S
C1432 C1431 1.524 . S
C1432 C1433 1.415 . S
C1433 H1403 0.950 . S
C1433 C1428 1.363 . S
C1433 C1432 1.415 . S
H1434 C1431 0.999 . S
H1435 C1416 0.913 . S
H1436 C1454 0.951 . S
H1437 C1456 0.951 1_455 S
H1438 C1458 0.950 . S
H1439 C1459 0.950 . S
H1440 C1461 0.937 1_655 S
H1441 C1464 0.950 1_655 S
H1442 C1465 0.950 1_655 S
H1443 C1467 0.950 . S
H1444 C1468 0.950 . S
H1445 C1469 0.951 . S
H1446 C1471 0.951 . S
H1447 C1473 0.950 . S
H1448 C1474 0.950 . S
H1449 C1476 0.950 . S
H1450 C1479 0.950 . S
H1451 C1480 0.950 . S
H1452 C1482 0.950 . S
H1453 C1483 0.950 . S
C1454 H1436 0.951 . S
C1454 C1455 1.366 . S
C1454 C1456 1.388 . S
C1455 C1454 1.366 . S
C1455 C1459 1.385 . S
C1456 H1437 0.951 1_655 S
C1456 C1454 1.388 . S
C1456 C1457 1.366 . S
C1457 C1456 1.366 . S
C1457 C1458 1.414 . S
C1457 C1460 1.499 1_655 S
C1458 H1438 0.950 . S
C1458 C1457 1.414 . S
C1458 C1459 1.374 . S
C1459 H1439 0.950 . S
C1459 C1455 1.385 . S
C1459 C1458 1.374 . S
C1460 C1457 1.499 1_455 S
C1460 C1461 1.374 . S
C1460 C1462 1.389 . S
C1461 H1440 0.937 1_455 S
C1461 C1460 1.374 . S
C1461 C1477 1.389 . S
C1462 C1460 1.389 . S
C1462 C1463 1.524 . S
C1462 C1476 1.377 . S
C1463 C1462 1.524 . S
C1463 C1464 1.397 . S
C1463 C1468 1.363 . S
C1464 H1441 0.950 1_455 S
C1464 C1463 1.397 . S
C1464 C1465 1.334 . S
C1465 H1442 0.950 1_455 S
C1465 C1464 1.334 . S
C1465 C1466 1.287 . S
C1466 C1465 1.287 . S
C1466 C1467 1.524 . S
C1466 H1485 0.913 . S
C1467 H1443 0.950 . S
C1467 C1466 1.524 . S
C1467 C1468 1.415 . S
C1468 H1444 0.950 . S
C1468 C1463 1.363 . S
C1468 C1467 1.415 . S
C1469 H1445 0.951 . S
C1469 C1470 1.366 . S
C1469 C1471 1.388 . S
C1470 C1469 1.366 . S
C1470 C1474 1.385 . S
C1471 H1446 0.951 . S
C1471 C1469 1.388 . S
C1471 C1472 1.366 . S
C1472 C1471 1.366 . S
C1472 C1473 1.414 . S
C1472 C1475 1.499 . S
C1473 H1447 0.950 . S
C1473 C1472 1.414 . S
C1473 C1474 1.374 . S
C1474 H1448 0.950 . S
C1474 C1470 1.385 . S
C1474 C1473 1.374 . S
C1475 C1472 1.499 . S
C1475 C1476 1.373 . S
C1475 C1477 1.389 . S
C1476 H1449 0.950 . S
C1476 C1462 1.377 . S
C1476 C1475 1.373 . S
C1477 C1461 1.389 . S
C1477 C1475 1.389 . S
C1477 C1478 1.524 . S
C1478 C1477 1.524 . S
C1478 C1479 1.397 . S
C1478 C1483 1.363 1_455 S
C1479 H1450 0.950 . S
C1479 C1478 1.397 . S
C1479 C1480 1.334 . S
C1480 H1451 0.950 . S
C1480 C1479 1.334 . S
C1480 C1481 1.287 . S
C1481 C1480 1.287 . S
C1481 C1482 1.524 1_455 S
C1481 H1484 0.999 . S
C1482 H1452 0.950 . S
C1482 C1481 1.524 1_655 S
C1482 C1483 1.415 . S
C1483 H1453 0.950 . S
C1483 C1478 1.363 1_655 S
C1483 C1482 1.415 . S
H1484 C1481 0.999 . S
H1485 C1466 0.913 . S
H1486 C1504 0.951 . S
H1487 C1506 0.951 . S
H1488 C1508 0.950 . S
H1489 C1509 0.950 . S
H1490 C1511 0.950 . S
H1491 C1514 0.950 . S
H1492 C1515 0.950 . S
H1493 C1517 0.950 . S
H1494 C1518 0.950 . S
H1495 C1519 0.951 . S
H1496 C1521 0.951 . S
H1497 C1523 0.950 . S
H1498 C1524 0.950 . S
H1499 C1526 0.950 . S
H1500 C1529 0.950 . S
H1501 C1530 0.950 . S
H1502 C1532 0.950 . S
H1503 C1533 0.950 . S
C1504 H1486 0.951 . S
C1504 C1505 1.366 . S
C1504 C1506 1.388 . S
C1505 C1504 1.366 . S
C1505 C1509 1.385 . S
C1506 H1487 0.951 . S
C1506 C1504 1.388 . S
C1506 C1507 1.366 . S
C1507 C1506 1.366 . S
C1507 C1508 1.414 . S
C1507 C1510 1.499 . S
C1508 H1488 0.950 . S
C1508 C1507 1.414 . S
C1508 C1509 1.374 . S
C1509 H1489 0.950 . S
C1509 C1505 1.385 . S
C1509 C1508 1.374 . S
C1510 C1507 1.499 . S
C1510 C1511 1.373 . S
C1510 C1512 1.389 . S
C1511 H1490 0.950 . S
C1511 C1510 1.373 . S
C1511 C1527 1.377 . S
C1512 C1510 1.389 . S
C1512 C1513 1.524 . S
C1512 C1526 1.377 . S
C1513 C1512 1.524 . S
C1513 C1514 1.397 . S
C1513 C1518 1.363 . S
C1514 H1491 0.950 . S
C1514 C1513 1.397 . S
C1514 C1515 1.334 . S
C1515 H1492 0.950 . S
C1515 C1514 1.334 . S
C1515 C1516 1.287 . S
C1516 C1515 1.287 . S
C1516 C1517 1.524 . S
C1516 H1535 0.913 . S
C1517 H1493 0.950 . S
C1517 C1516 1.524 . S
C1517 C1518 1.415 . S
C1518 H1494 0.950 . S
C1518 C1513 1.363 . S
C1518 C1517 1.415 . S
C1519 H1495 0.951 . S
C1519 C1520 1.366 . S
C1519 C1521 1.388 . S
C1520 C1519 1.366 . S
C1520 C1524 1.385 . S
C1521 H1496 0.951 . S
C1521 C1519 1.388 . S
C1521 C1522 1.366 . S
C1522 C1521 1.366 . S
C1522 C1523 1.414 . S
C1522 C1525 1.499 . S
C1523 H1497 0.950 . S
C1523 C1522 1.414 . S
C1523 C1524 1.374 . S
C1524 H1498 0.950 . S
C1524 C1520 1.385 . S
C1524 C1523 1.374 . S
C1525 C1522 1.499 . S
C1525 C1526 1.373 . S
C1525 C1527 1.389 . S
C1526 H1499 0.950 . S
C1526 C1512 1.377 . S
C1526 C1525 1.373 . S
C1527 C1511 1.377 . S
C1527 C1525 1.389 . S
C1527 C1528 1.524 . S
C1528 C1527 1.524 . S
C1528 C1529 1.397 . S
C1528 C1533 1.363 . S
C1529 H1500 0.950 . S
C1529 C1528 1.397 . S
C1529 C1530 1.334 . S
C1530 H1501 0.950 . S
C1530 C1529 1.334 . S
C1530 C1531 1.287 . S
C1531 C1530 1.287 . S
C1531 C1532 1.524 . S
C1531 H1534 0.999 . S
C1532 H1502 0.950 . S
C1532 C1531 1.524 . S
C1532 C1533 1.415 . S
C1533 H1503 0.950 . S
C1533 C1528 1.363 . S
C1533 C1532 1.415 . S
H1534 C1531 0.999 . S
H1535 C1516 0.913 . S
H1536 C1554 0.951 . S
H1537 C1556 0.951 . S
H1538 C1558 0.950 . S
H1539 C1559 0.950 . S
H1540 C1561 0.950 . S
H1541 C1564 0.950 . S
H1542 C1565 0.950 . S
H1543 C1567 0.950 . S
H1544 C1568 0.950 . S
H1545 C1569 0.951 . S
H1546 C1571 0.951 . S
H1547 C1573 0.950 . S
H1548 C1574 0.950 . S
H1549 C1576 0.950 . S
H1550 C1579 0.950 . S
H1551 C1580 0.950 . S
H1552 C1582 0.950 . S
H1553 C1583 0.950 . S
C1554 H1536 0.951 . S
C1554 C1555 1.366 . S
C1554 C1556 1.388 . S
C1555 C1554 1.366 . S
C1555 C1559 1.385 . S
C1556 H1537 0.951 . S
C1556 C1554 1.388 . S
C1556 C1557 1.366 . S
C1557 C1556 1.366 . S
C1557 C1558 1.414 . S
C1557 C1560 1.499 . S
C1558 H1538 0.950 . S
C1558 C1557 1.414 . S
C1558 C1559 1.374 . S
C1559 H1539 0.950 . S
C1559 C1555 1.385 . S
C1559 C1558 1.374 . S
C1560 C1557 1.499 . S
C1560 C1561 1.373 . S
C1560 C1562 1.389 . S
C1561 H1540 0.950 . S
C1561 C1560 1.373 . S
C1561 C1577 1.377 . S
C1562 C1560 1.389 . S
C1562 C1563 1.524 . S
C1562 C1576 1.377 . S
C1563 C1562 1.524 . S
C1563 C1564 1.397 . S
C1563 C1568 1.363 . S
C1564 H1541 0.950 . S
C1564 C1563 1.397 . S
C1564 C1565 1.334 . S
C1565 H1542 0.950 . S
C1565 C1564 1.334 . S
C1565 C1566 1.287 . S
C1566 C1565 1.287 . S
C1566 C1567 1.524 . S
C1566 H1585 0.913 . S
C1567 H1543 0.950 . S
C1567 C1566 1.524 . S
C1567 C1568 1.415 . S
C1568 H1544 0.950 . S
C1568 C1563 1.363 . S
C1568 C1567 1.415 . S
C1569 H1545 0.951 . S
C1569 C1570 1.366 . S
C1569 C1571 1.388 . S
C1570 C1569 1.366 . S
C1570 C1574 1.385 . S
C1571 H1546 0.951 . S
C1571 C1569 1.388 . S
C1571 C1572 1.366 . S
C1572 C1571 1.366 . S
C1572 C1573 1.414 . S
C1572 C1575 1.499 . S
C1573 H1547 0.950 . S
C1573 C1572 1.414 . S
C1573 C1574 1.374 . S
C1574 H1548 0.950 . S
C1574 C1570 1.385 . S
C1574 C1573 1.374 . S
C1575 C1572 1.499 . S
C1575 C1576 1.373 . S
C1575 C1577 1.389 . S
C1576 H1549 0.950 . S
C1576 C1562 1.377 . S
C1576 C1575 1.373 . S
C1577 C1561 1.377 . S
C1577 C1575 1.389 . S
C1577 C1578 1.524 . S
C1578 C1577 1.524 . S
C1578 C1579 1.397 . S
C1578 C1583 1.363 . S
C1579 H1550 0.950 . S
C1579 C1578 1.397 . S
C1579 C1580 1.334 . S
C1580 H1551 0.950 . S
C1580 C1579 1.334 . S
C1580 C1581 1.287 . S
C1581 C1580 1.287 . S
C1581 C1582 1.524 . S
C1581 H1584 0.999 . S
C1582 H1552 0.950 . S
C1582 C1581 1.524 . S
C1582 C1583 1.415 . S
C1583 H1553 0.950 . S
C1583 C1578 1.363 . S
C1583 C1582 1.415 . S
H1584 C1581 0.999 . S
H1585 C1566 0.913 . S
H1586 C1604 0.951 1_565 S
H1587 C1606 0.951 . S
H1588 C1608 0.950 . S
H1589 C1609 0.950 . S
H1590 C1611 0.950 . S
H1591 C1614 0.950 . S
H1592 C1615 0.950 . S
H1593 C1617 0.950 . S
H1594 C1618 0.950 . S
H1595 C1619 0.951 . S
H1596 C1621 0.951 . S
H1597 C1623 0.950 . S
H1598 C1624 0.950 . S
H1599 C1626 0.950 . S
H1600 C1629 0.950 . S
H1601 C1630 0.950 . S
H1602 C1632 0.950 . S
H1603 C1633 0.950 1_545 S
C1604 H1586 0.951 1_545 S
C1604 C1605 1.366 . S
C1604 C1606 1.388 1_545 S
C1605 C1604 1.366 . S
C1605 C1609 1.385 . S
C1606 H1587 0.951 . S
C1606 C1604 1.388 1_565 S
C1606 C1607 1.357 1_565 S
C1607 C1606 1.357 1_545 S
C1607 C1608 1.432 . S
C1607 C1610 1.490 1_545 S
C1608 H1588 0.950 . S
C1608 C1607 1.432 . S
C1608 C1609 1.374 . S
C1609 H1589 0.950 . S
C1609 C1605 1.385 . S
C1609 C1608 1.374 . S
C1610 C1607 1.490 1_565 S
C1610 C1611 1.373 . S
C1610 C1612 1.389 . S
C1611 H1590 0.950 . S
C1611 C1610 1.373 . S
C1611 C1627 1.377 . S
C1612 C1610 1.389 . S
C1612 C1613 1.524 . S
C1612 C1626 1.377 . S
C1613 C1612 1.524 . S
C1613 C1614 1.397 1_565 S
C1613 C1618 1.363 . S
C1614 H1591 0.950 . S
C1614 C1613 1.397 1_545 S
C1614 C1615 1.334 . S
C1615 H1592 0.950 . S
C1615 C1614 1.334 . S
C1615 C1616 1.287 1_545 S
C1616 C1615 1.287 1_565 S
C1616 C1617 1.524 . S
C1616 H1635 0.913 . S
C1617 H1593 0.950 . S
C1617 C1616 1.524 . S
C1617 C1618 1.415 . S
C1618 H1594 0.950 . S
C1618 C1613 1.363 . S
C1618 C1617 1.415 . S
C1619 H1595 0.951 . S
C1619 C1620 1.366 . S
C1619 C1621 1.388 . S
C1620 C1619 1.366 . S
C1620 C1624 1.385 . S
C1621 H1596 0.951 . S
C1621 C1619 1.388 . S
C1621 C1622 1.366 . S
C1622 C1621 1.366 . S
C1622 C1623 1.414 . S
C1622 C1625 1.499 . S
C1623 H1597 0.950 . S
C1623 C1622 1.414 . S
C1623 C1624 1.374 . S
C1624 H1598 0.950 . S
C1624 C1620 1.385 . S
C1624 C1623 1.374 . S
C1625 C1622 1.499 . S
C1625 C1626 1.373 . S
C1625 C1627 1.389 . S
C1626 H1599 0.950 . S
C1626 C1612 1.377 . S
C1626 C1625 1.373 . S
C1627 C1611 1.377 . S
C1627 C1625 1.389 . S
C1627 C1628 1.524 . S
C1628 C1627 1.524 . S
C1628 C1629 1.397 . S
C1628 C1633 1.363 . S
C1629 H1600 0.950 . S
C1629 C1628 1.397 . S
C1629 C1630 1.334 . S
C1630 H1601 0.950 . S
C1630 C1629 1.334 . S
C1630 C1631 1.287 . S
C1631 C1630 1.287 . S
C1631 C1632 1.524 . S
C1631 H1634 0.999 . S
C1632 H1602 0.950 . S
C1632 C1631 1.524 . S
C1632 C1633 1.415 . S
C1633 H1603 0.950 1_565 S
C1633 C1628 1.363 . S
C1633 C1632 1.415 . S
H1634 C1631 0.999 . S
H1635 C1616 0.913 . S
H1636 C1654 0.951 . S
H1637 C1656 0.951 . S
H1638 C1658 0.950 . S
H1639 C1659 0.950 . S
H1640 C1661 0.950 . S
H1641 C1664 0.950 . S
H1642 C1665 0.950 . S
H1643 C1667 0.950 . S
H1644 C1668 0.950 . S
H1645 C1669 0.951 . S
H1646 C1671 0.951 . S
H1647 C1673 0.950 . S
H1648 C1674 0.950 . S
H1649 C1676 0.950 . S
H1650 C1679 0.950 . S
H1651 C1680 0.950 . S
H1652 C1682 0.950 . S
H1653 C1683 0.950 . S
C1654 H1636 0.951 . S
C1654 C1655 1.366 . S
C1654 C1656 1.388 . S
C1655 C1654 1.366 . S
C1655 C1659 1.385 . S
C1656 H1637 0.951 . S
C1656 C1654 1.388 . S
C1656 C1657 1.366 . S
C1657 C1656 1.366 . S
C1657 C1658 1.414 . S
C1657 C1660 1.499 . S
C1658 H1638 0.950 . S
C1658 C1657 1.414 . S
C1658 C1659 1.374 . S
C1659 H1639 0.950 . S
C1659 C1655 1.385 . S
C1659 C1658 1.374 . S
C1660 C1657 1.499 . S
C1660 C1661 1.373 . S
C1660 C1662 1.389 . S
C1661 H1640 0.950 . S
C1661 C1660 1.373 . S
C1661 C1677 1.377 . S
C1662 C1660 1.389 . S
C1662 C1663 1.524 . S
C1662 C1676 1.377 . S
C1663 C1662 1.524 . S
C1663 C1664 1.397 . S
C1663 C1668 1.363 . S
C1664 H1641 0.950 . S
C1664 C1663 1.397 . S
C1664 C1665 1.334 . S
C1665 H1642 0.950 . S
C1665 C1664 1.334 . S
C1665 C1666 1.287 . S
C1666 C1665 1.287 . S
C1666 C1667 1.524 . S
C1666 H1685 0.913 . S
C1667 H1643 0.950 . S
C1667 C1666 1.524 . S
C1667 C1668 1.415 . S
C1668 H1644 0.950 . S
C1668 C1663 1.363 . S
C1668 C1667 1.415 . S
C1669 H1645 0.951 . S
C1669 C1670 1.366 . S
C1669 C1671 1.388 . S
C1670 C1669 1.366 . S
C1670 C1674 1.385 . S
C1671 H1646 0.951 . S
C1671 C1669 1.388 . S
C1671 C1672 1.366 . S
C1672 C1671 1.366 . S
C1672 C1673 1.414 . S
C1672 C1675 1.499 . S
C1673 H1647 0.950 . S
C1673 C1672 1.414 . S
C1673 C1674 1.374 . S
C1674 H1648 0.950 . S
C1674 C1670 1.385 . S
C1674 C1673 1.374 . S
C1675 C1672 1.499 . S
C1675 C1676 1.373 . S
C1675 C1677 1.389 . S
C1676 H1649 0.950 . S
C1676 C1662 1.377 . S
C1676 C1675 1.373 . S
C1677 C1661 1.377 . S
C1677 C1675 1.389 . S
C1677 C1678 1.524 . S
C1678 C1677 1.524 . S
C1678 C1679 1.397 . S
C1678 C1683 1.363 . S
C1679 H1650 0.950 . S
C1679 C1678 1.397 . S
C1679 C1680 1.334 . S
C1680 H1651 0.950 . S
C1680 C1679 1.334 . S
C1680 C1681 1.287 . S
C1681 C1680 1.287 . S
C1681 C1682 1.524 . S
C1681 H1684 0.999 . S
C1682 H1652 0.950 . S
C1682 C1681 1.524 . S
C1682 C1683 1.415 . S
C1683 H1653 0.950 . S
C1683 C1678 1.363 . S
C1683 C1682 1.415 . S
H1684 C1681 0.999 . S
H1685 C1666 0.913 . S
H1686 C1704 0.951 . S
H1687 C1706 0.951 . S
H1688 C1708 0.950 . S
H1689 C1709 0.950 . S
H1690 C1711 0.950 . S
H1691 C1714 0.950 . S
H1692 C1715 0.950 . S
H1693 C1717 0.950 . S
H1694 C1718 0.950 . S
H1695 C1719 0.951 . S
H1696 C1721 0.927 1_545 S
H1697 C1723 0.950 . S
H1698 C1724 0.950 . S
H1699 C1726 0.950 . S
H1700 C1729 0.950 . S
H1701 C1730 0.950 . S
H1702 C1732 0.950 . S
H1703 C1733 0.950 1_545 S
C1704 H1686 0.951 . S
C1704 C1705 1.366 . S
C1704 C1706 1.388 . S
C1705 C1704 1.366 . S
C1705 C1709 1.385 . S
C1706 H1687 0.951 . S
C1706 C1704 1.388 . S
C1706 C1707 1.366 . S
C1707 C1706 1.366 . S
C1707 C1708 1.414 . S
C1707 C1710 1.499 . S
C1708 H1688 0.950 . S
C1708 C1707 1.414 . S
C1708 C1709 1.374 . S
C1709 H1689 0.950 . S
C1709 C1705 1.385 . S
C1709 C1708 1.374 . S
C1710 C1707 1.499 . S
C1710 C1711 1.373 . S
C1710 C1712 1.389 . S
C1711 H1690 0.950 . S
C1711 C1710 1.373 . S
C1711 C1727 1.377 . S
C1712 C1710 1.389 . S
C1712 C1713 1.524 . S
C1712 C1726 1.377 . S
C1713 C1712 1.524 . S
C1713 C1714 1.397 . S
C1713 C1718 1.363 . S
C1714 H1691 0.950 . S
C1714 C1713 1.397 . S
C1714 C1715 1.334 . S
C1715 H1692 0.950 . S
C1715 C1714 1.334 . S
C1715 C1716 1.287 . S
C1716 C1715 1.287 . S
C1716 C1717 1.524 . S
C1716 H1735 0.913 . S
C1717 H1693 0.950 . S
C1717 C1716 1.524 . S
C1717 C1718 1.415 . S
C1718 H1694 0.950 . S
C1718 C1713 1.363 . S
C1718 C1717 1.415 . S
C1719 H1695 0.951 . S
C1719 C1720 1.366 . S
C1719 C1721 1.414 . S
C1720 C1719 1.366 . S
C1720 C1724 1.385 . S
C1721 H1696 0.927 1_565 S
C1721 C1719 1.414 . S
C1721 C1722 1.366 1_556 S
C1722 C1721 1.366 1_554 S
C1722 C1723 1.435 . S
C1722 C1725 1.478 1_565 S
C1723 H1697 0.950 . S
C1723 C1722 1.435 . S
C1723 C1724 1.374 1_554 S
C1724 H1698 0.950 . S
C1724 C1720 1.385 . S
C1724 C1723 1.374 1_556 S
C1725 C1722 1.478 1_545 S
C1725 C1726 1.373 . S
C1725 C1727 1.389 . S
C1726 H1699 0.950 . S
C1726 C1712 1.377 . S
C1726 C1725 1.373 . S
C1727 C1711 1.377 . S
C1727 C1725 1.389 . S
C1727 C1728 1.524 1_545 S
C1728 C1727 1.524 1_565 S
C1728 C1729 1.397 . S
C1728 C1733 1.363 . S
C1729 H1700 0.950 . S
C1729 C1728 1.397 . S
C1729 C1730 1.334 . S
C1730 H1701 0.950 . S
C1730 C1729 1.334 . S
C1730 C1731 1.287 . S
C1731 C1730 1.287 . S
C1731 C1732 1.524 . S
C1731 H1734 0.999 . S
C1732 H1702 0.950 . S
C1732 C1731 1.524 . S
C1732 C1733 1.415 . S
C1733 H1703 0.950 1_565 S
C1733 C1728 1.363 . S
C1733 C1732 1.415 . S
H1734 C1731 0.999 . S
H1735 C1716 0.913 . S
H1736 C1754 0.951 . S
H1737 C1756 0.951 . S
H1738 C1758 0.950 . S
H1739 C1759 0.950 . S
H1740 C1761 0.950 . S
H1741 C1764 0.950 . S
H1742 C1765 0.950 . S
H1743 C1767 0.950 . S
H1744 C1768 0.950 . S
H1745 C1769 0.951 . S
H1746 C1771 0.951 . S
H1747 C1773 0.950 . S
H1748 C1774 0.950 . S
H1749 C1776 0.950 . S
H1750 C1779 0.950 . S
H1751 C1780 0.950 . S
H1752 C1782 0.950 . S
H1753 C1783 0.950 . S
C1754 H1736 0.951 . S
C1754 C1755 1.366 . S
C1754 C1756 1.388 . S
C1755 C1754 1.366 . S
C1755 C1759 1.385 . S
C1756 H1737 0.951 . S
C1756 C1754 1.388 . S
C1756 C1757 1.366 . S
C1757 C1756 1.366 . S
C1757 C1758 1.414 . S
C1757 C1760 1.499 . S
C1758 H1738 0.950 . S
C1758 C1757 1.414 . S
C1758 C1759 1.374 . S
C1759 H1739 0.950 . S
C1759 C1755 1.385 . S
C1759 C1758 1.374 . S
C1760 C1757 1.499 . S
C1760 C1761 1.373 . S
C1760 C1762 1.389 . S
C1761 H1740 0.950 . S
C1761 C1760 1.373 . S
C1761 C1777 1.377 . S
C1762 C1760 1.389 . S
C1762 C1763 1.524 . S
C1762 C1776 1.377 . S
C1763 C1762 1.524 . S
C1763 C1764 1.397 . S
C1763 C1768 1.363 . S
C1764 H1741 0.950 . S
C1764 C1763 1.397 . S
C1764 C1765 1.334 . S
C1765 H1742 0.950 . S
C1765 C1764 1.334 . S
C1765 C1766 1.287 . S
C1766 C1765 1.287 . S
C1766 C1767 1.524 . S
C1766 H1785 0.913 . S
C1767 H1743 0.950 . S
C1767 C1766 1.524 . S
C1767 C1768 1.415 . S
C1768 H1744 0.950 . S
C1768 C1763 1.363 . S
C1768 C1767 1.415 . S
C1769 H1745 0.951 . S
C1769 C1770 1.366 . S
C1769 C1771 1.388 . S
C1770 C1769 1.366 . S
C1770 C1774 1.385 . S
C1771 H1746 0.951 . S
C1771 C1769 1.388 . S
C1771 C1772 1.366 . S
C1772 C1771 1.366 . S
C1772 C1773 1.414 . S
C1772 C1775 1.499 . S
C1773 H1747 0.950 . S
C1773 C1772 1.414 . S
C1773 C1774 1.374 . S
C1774 H1748 0.950 . S
C1774 C1770 1.385 . S
C1774 C1773 1.374 . S
C1775 C1772 1.499 . S
C1775 C1776 1.373 . S
C1775 C1777 1.389 . S
C1776 H1749 0.950 . S
C1776 C1762 1.377 . S
C1776 C1775 1.373 . S
C1777 C1761 1.377 . S
C1777 C1775 1.389 . S
C1777 C1778 1.524 . S
C1778 C1777 1.524 . S
C1778 C1779 1.397 . S
C1778 C1783 1.363 . S
C1779 H1750 0.950 . S
C1779 C1778 1.397 . S
C1779 C1780 1.334 . S
C1780 H1751 0.950 . S
C1780 C1779 1.334 . S
C1780 C1781 1.287 . S
C1781 C1780 1.287 . S
C1781 C1782 1.524 . S
C1781 H1784 0.999 . S
C1782 H1752 0.950 . S
C1782 C1781 1.524 . S
C1782 C1783 1.415 . S
C1783 H1753 0.950 . S
C1783 C1778 1.363 . S
C1783 C1782 1.415 . S
H1784 C1781 0.999 . S
H1785 C1766 0.913 . S
H1786 C1804 0.951 . S
H1787 C1806 0.951 . S
H1788 C1808 0.950 . S
H1789 C1809 0.950 . S
H1790 C1811 0.950 . S
H1791 C1814 0.950 . S
H1792 C1815 0.950 . S
H1793 C1817 0.950 . S
H1794 C1818 0.950 1_556 S
H1795 C1819 0.951 . S
H1796 C1821 0.951 . S
H1797 C1823 0.950 . S
H1798 C1824 0.950 . S
H1799 C1826 0.950 . S
H1800 C1829 0.950 . S
H1801 C1830 0.950 . S
H1802 C1832 0.950 . S
H1803 C1833 0.950 . S
C1804 H1786 0.951 . S
C1804 C1805 1.366 . S
C1804 C1806 1.388 . S
C1805 C1804 1.366 . S
C1805 C1809 1.385 . S
C1806 H1787 0.951 . S
C1806 C1804 1.388 . S
C1806 C1807 1.366 1_554 S
C1807 C1806 1.366 1_556 S
C1807 C1808 1.414 . S
C1807 C1810 1.499 . S
C1808 H1788 0.950 . S
C1808 C1807 1.414 . S
C1808 C1809 1.374 1_556 S
C1809 H1789 0.950 . S
C1809 C1805 1.385 . S
C1809 C1808 1.374 1_554 S
C1810 C1807 1.499 . S
C1810 C1811 1.373 . S
C1810 C1812 1.389 . S
C1811 H1790 0.950 . S
C1811 C1810 1.373 . S
C1811 C1827 1.377 . S
C1812 C1810 1.389 . S
C1812 C1813 1.524 . S
C1812 C1826 1.377 . S
C1813 C1812 1.524 . S
C1813 C1814 1.397 1_556 S
C1813 C1818 1.363 1_556 S
C1814 H1791 0.950 . S
C1814 C1813 1.397 1_554 S
C1814 C1815 1.334 . S
C1815 H1792 0.950 . S
C1815 C1814 1.334 . S
C1815 C1816 1.287 . S
C1816 C1815 1.287 . S
C1816 C1817 1.524 . S
C1816 H1835 0.913 . S
C1817 H1793 0.950 . S
C1817 C1816 1.524 . S
C1817 C1818 1.415 . S
C1818 H1794 0.950 1_554 S
C1818 C1813 1.363 1_554 S
C1818 C1817 1.415 . S
C1819 H1795 0.951 . S
C1819 C1820 1.366 . S
C1819 C1821 1.388 . S
C1820 C1819 1.366 . S
C1820 C1824 1.385 . S
C1821 H1796 0.951 . S
C1821 C1819 1.388 . S
C1821 C1822 1.366 . S
C1822 C1821 1.366 . S
C1822 C1823 1.414 . S
C1822 C1825 1.499 . S
C1823 H1797 0.950 . S
C1823 C1822 1.414 . S
C1823 C1824 1.374 . S
C1824 H1798 0.950 . S
C1824 C1820 1.385 . S
C1824 C1823 1.374 . S
C1825 C1822 1.499 . S
C1825 C1826 1.373 . S
C1825 C1827 1.389 . S
C1826 H1799 0.950 . S
C1826 C1812 1.377 . S
C1826 C1825 1.373 . S
C1827 C1811 1.377 . S
C1827 C1825 1.389 . S
C1827 C1828 1.524 . S
C1828 C1827 1.524 . S
C1828 C1829 1.397 . S
C1828 C1833 1.363 . S
C1829 H1800 0.950 . S
C1829 C1828 1.397 . S
C1829 C1830 1.334 . S
C1830 H1801 0.950 . S
C1830 C1829 1.334 . S
C1830 C1831 1.287 . S
C1831 C1830 1.287 . S
C1831 C1832 1.524 . S
C1831 H1834 0.999 . S
C1832 H1802 0.950 . S
C1832 C1831 1.524 . S
C1832 C1833 1.415 . S
C1833 H1803 0.950 . S
C1833 C1828 1.363 . S
C1833 C1832 1.415 . S
H1834 C1831 0.999 . S
H1835 C1816 0.913 . S
H1836 C1854 0.951 . S
H1837 C1856 0.951 . S
H1838 C1858 0.950 . S
H1839 C1859 0.950 . S
H1840 C1861 0.950 . S
H1841 C1864 0.950 . S
H1842 C1865 0.950 . S
H1843 C1867 0.950 . S
H1844 C1868 0.950 . S
H1845 C1869 0.951 . S
H1846 C1871 0.951 . S
H1847 C1873 0.950 . S
H1848 C1874 0.950 . S
H1849 C1876 0.950 . S
H1850 C1879 0.950 . S
H1851 C1880 0.950 . S
H1852 C1882 0.950 . S
H1853 C1883 0.950 . S
C1854 H1836 0.951 . S
C1854 C1855 1.366 . S
C1854 C1856 1.388 . S
C1855 C1854 1.366 . S
C1855 C1859 1.385 . S
C1856 H1837 0.951 . S
C1856 C1854 1.388 . S
C1856 C1857 1.366 . S
C1857 C1856 1.366 . S
C1857 C1858 1.414 . S
C1857 C1860 1.499 . S
C1858 H1838 0.950 . S
C1858 C1857 1.414 . S
C1858 C1859 1.374 . S
C1859 H1839 0.950 . S
C1859 C1855 1.385 . S
C1859 C1858 1.374 . S
C1860 C1857 1.499 . S
C1860 C1861 1.373 . S
C1860 C1862 1.389 . S
C1861 H1840 0.950 . S
C1861 C1860 1.373 . S
C1861 C1877 1.377 . S
C1862 C1860 1.389 . S
C1862 C1863 1.524 . S
C1862 C1876 1.377 . S
C1863 C1862 1.524 . S
C1863 C1864 1.397 . S
C1863 C1868 1.363 . S
C1864 H1841 0.950 . S
C1864 C1863 1.397 . S
C1864 C1865 1.334 . S
C1865 H1842 0.950 . S
C1865 C1864 1.334 . S
C1865 C1866 1.287 . S
C1866 C1865 1.287 . S
C1866 C1867 1.524 . S
C1866 H1885 0.913 . S
C1867 H1843 0.950 . S
C1867 C1866 1.524 . S
C1867 C1868 1.415 . S
C1868 H1844 0.950 . S
C1868 C1863 1.363 . S
C1868 C1867 1.415 . S
C1869 H1845 0.951 . S
C1869 C1870 1.366 . S
C1869 C1871 1.388 . S
C1870 C1869 1.366 . S
C1870 C1874 1.385 . S
C1871 H1846 0.951 . S
C1871 C1869 1.388 . S
C1871 C1872 1.366 . S
C1872 C1871 1.366 . S
C1872 C1873 1.414 . S
C1872 C1875 1.499 . S
C1873 H1847 0.950 . S
C1873 C1872 1.414 . S
C1873 C1874 1.374 . S
C1874 H1848 0.950 . S
C1874 C1870 1.385 . S
C1874 C1873 1.374 . S
C1875 C1872 1.499 . S
C1875 C1876 1.373 . S
C1875 C1877 1.389 . S
C1876 H1849 0.950 . S
C1876 C1862 1.377 . S
C1876 C1875 1.373 . S
C1877 C1861 1.377 . S
C1877 C1875 1.389 . S
C1877 C1878 1.524 . S
C1878 C1877 1.524 . S
C1878 C1879 1.397 . S
C1878 C1883 1.363 . S
C1879 H1850 0.950 . S
C1879 C1878 1.397 . S
C1879 C1880 1.334 . S
C1880 H1851 0.950 . S
C1880 C1879 1.334 . S
C1880 C1881 1.287 . S
C1881 C1880 1.287 . S
C1881 C1882 1.524 . S
C1881 H1884 0.999 . S
C1882 H1852 0.950 . S
C1882 C1881 1.524 . S
C1882 C1883 1.415 . S
C1883 H1853 0.950 . S
C1883 C1878 1.363 . S
C1883 C1882 1.415 . S
H1884 C1881 0.999 . S
H1885 C1866 0.913 . S
H1886 C1904 0.951 . S
H1887 C1906 0.951 . S
H1888 C1908 0.950 . S
H1889 C1909 0.950 . S
H1890 C1911 0.950 . S
H1891 C1914 0.950 . S
H1892 C1915 0.950 . S
H1893 C1917 0.950 . S
H1894 C1918 0.950 . S
H1895 C1919 0.951 . S
H1896 C1921 0.951 . S
H1897 C1923 0.950 . S
H1898 C1924 0.950 . S
H1899 C1926 0.950 . S
H1900 C1929 0.950 . S
H1901 C1930 0.950 . S
H1902 C1932 0.950 . S
H1903 C1933 0.950 . S
C1904 H1886 0.951 . S
C1904 C1905 1.366 . S
C1904 C1906 1.388 . S
C1905 C1904 1.366 . S
C1905 C1909 1.385 . S
C1906 H1887 0.951 . S
C1906 C1904 1.388 . S
C1906 C1907 1.366 . S
C1907 C1906 1.366 . S
C1907 C1908 1.414 . S
C1907 C1910 1.499 . S
C1908 H1888 0.950 . S
C1908 C1907 1.414 . S
C1908 C1909 1.374 . S
C1909 H1889 0.950 . S
C1909 C1905 1.385 . S
C1909 C1908 1.374 . S
C1910 C1907 1.499 . S
C1910 C1911 1.373 . S
C1910 C1912 1.389 . S
C1911 H1890 0.950 . S
C1911 C1910 1.373 . S
C1911 C1927 1.377 . S
C1912 C1910 1.389 . S
C1912 C1913 1.524 . S
C1912 C1926 1.377 . S
C1913 C1912 1.524 . S
C1913 C1914 1.397 . S
C1913 C1918 1.363 . S
C1914 H1891 0.950 . S
C1914 C1913 1.397 . S
C1914 C1915 1.334 . S
C1915 H1892 0.950 . S
C1915 C1914 1.334 . S
C1915 C1916 1.287 . S
C1916 C1915 1.287 . S
C1916 C1917 1.524 . S
C1916 H1935 0.913 . S
C1917 H1893 0.950 . S
C1917 C1916 1.524 . S
C1917 C1918 1.415 . S
C1918 H1894 0.950 . S
C1918 C1913 1.363 . S
C1918 C1917 1.415 . S
C1919 H1895 0.951 . S
C1919 C1920 1.366 . S
C1919 C1921 1.388 . S
C1920 C1919 1.366 . S
C1920 C1924 1.385 . S
C1921 H1896 0.951 . S
C1921 C1919 1.388 . S
C1921 C1922 1.366 . S
C1922 C1921 1.366 . S
C1922 C1923 1.414 . S
C1922 C1925 1.499 . S
C1923 H1897 0.950 . S
C1923 C1922 1.414 . S
C1923 C1924 1.374 . S
C1924 H1898 0.950 . S
C1924 C1920 1.385 . S
C1924 C1923 1.374 . S
C1925 C1922 1.499 . S
C1925 C1926 1.373 . S
C1925 C1927 1.389 . S
C1926 H1899 0.950 . S
C1926 C1912 1.377 . S
C1926 C1925 1.373 . S
C1927 C1911 1.377 . S
C1927 C1925 1.389 . S
C1927 C1928 1.524 . S
C1928 C1927 1.524 . S
C1928 C1929 1.397 . S
C1928 C1933 1.363 . S
C1929 H1900 0.950 . S
C1929 C1928 1.397 . S
C1929 C1930 1.334 . S
C1930 H1901 0.950 . S
C1930 C1929 1.334 . S
C1930 C1931 1.287 . S
C1931 C1930 1.287 . S
C1931 C1932 1.524 . S
C1931 H1934 0.999 . S
C1932 H1902 0.950 . S
C1932 C1931 1.524 . S
C1932 C1933 1.415 . S
C1933 H1903 0.950 . S
C1933 C1928 1.363 . S
C1933 C1932 1.415 . S
H1934 C1931 0.999 . S
H1935 C1916 0.913 . S
H1936 C1954 0.951 . S
H1937 C1956 0.951 . S
H1938 C1958 0.950 . S
H1939 C1959 0.950 . S
H1940 C1961 0.950 . S
H1941 C1964 0.950 . S
H1942 C1965 0.950 . S
H1943 C1967 0.950 . S
H1944 C1968 0.950 . S
H1945 C1969 0.951 . S
H1946 C1971 0.951 . S
H1947 C1973 0.950 . S
H1948 C1974 0.950 . S
H1949 C1976 0.950 . S
H1950 C1979 0.950 . S
H1951 C1980 0.950 . S
H1952 C1982 0.950 . S
H1953 C1983 0.950 . S
C1954 H1936 0.951 . S
C1954 C1955 1.366 . S
C1954 C1956 1.388 . S
C1955 C1954 1.366 . S
C1955 C1959 1.385 . S
C1956 H1937 0.951 . S
C1956 C1954 1.388 . S
C1956 C1957 1.366 . S
C1957 C1956 1.366 . S
C1957 C1958 1.414 . S
C1957 C1960 1.499 . S
C1958 H1938 0.950 . S
C1958 C1957 1.414 . S
C1958 C1959 1.374 . S
C1959 H1939 0.950 . S
C1959 C1955 1.385 . S
C1959 C1958 1.374 . S
C1960 C1957 1.499 . S
C1960 C1961 1.373 . S
C1960 C1962 1.389 . S
C1961 H1940 0.950 . S
C1961 C1960 1.373 . S
C1961 C1977 1.377 . S
C1962 C1960 1.389 . S
C1962 C1963 1.524 . S
C1962 C1976 1.377 . S
C1963 C1962 1.524 . S
C1963 C1964 1.397 . S
C1963 C1968 1.363 . S
C1964 H1941 0.950 . S
C1964 C1963 1.397 . S
C1964 C1965 1.334 . S
C1965 H1942 0.950 . S
C1965 C1964 1.334 . S
C1965 C1966 1.287 . S
C1966 C1965 1.287 . S
C1966 C1967 1.524 . S
C1966 H1985 0.913 . S
C1967 H1943 0.950 . S
C1967 C1966 1.524 . S
C1967 C1968 1.415 . S
C1968 H1944 0.950 . S
C1968 C1963 1.363 . S
C1968 C1967 1.415 . S
C1969 H1945 0.951 . S
C1969 C1970 1.366 . S
C1969 C1971 1.388 . S
C1970 C1969 1.366 . S
C1970 C1974 1.385 . S
C1971 H1946 0.951 . S
C1971 C1969 1.388 . S
C1971 C1972 1.366 . S
C1972 C1971 1.366 . S
C1972 C1973 1.414 . S
C1972 C1975 1.499 . S
C1973 H1947 0.950 . S
C1973 C1972 1.414 . S
C1973 C1974 1.374 . S
C1974 H1948 0.950 . S
C1974 C1970 1.385 . S
C1974 C1973 1.374 . S
C1975 C1972 1.499 . S
C1975 C1976 1.373 . S
C1975 C1977 1.389 . S
C1976 H1949 0.950 . S
C1976 C1962 1.377 . S
C1976 C1975 1.373 . S
C1977 C1961 1.377 . S
C1977 C1975 1.389 . S
C1977 C1978 1.524 . S
C1978 C1977 1.524 . S
C1978 C1979 1.397 . S
C1978 C1983 1.363 . S
C1979 H1950 0.950 . S
C1979 C1978 1.397 . S
C1979 C1980 1.334 . S
C1980 H1951 0.950 . S
C1980 C1979 1.334 . S
C1980 C1981 1.287 . S
C1981 C1980 1.287 . S
C1981 C1982 1.524 . S
C1981 H1984 0.999 . S
C1982 H1952 0.950 . S
C1982 C1981 1.524 . S
C1982 C1983 1.415 . S
C1983 H1953 0.950 . S
C1983 C1978 1.363 . S
C1983 C1982 1.415 . S
H1984 C1981 0.999 . S
H1985 C1966 0.913 . S
H1986 C2004 0.951 . S
H1987 C2006 0.951 . S
H1988 C2008 0.950 . S
H1989 C2009 0.973 . S
H1990 C2011 0.950 . S
H1991 C2014 0.950 . S
H1992 C2015 0.950 1_565 S
H1993 C2017 0.950 . S
H1994 C2018 0.950 . S
H1995 C2019 0.951 . S
H1996 C2021 0.951 . S
H1997 C2023 0.950 . S
H1998 C2024 0.950 . S
H1999 C2026 0.950 . S
H2000 C2029 0.950 . S
H2001 C2030 0.950 . S
H2002 C2032 0.950 . S
H2003 C2033 0.950 . S
C2004 H1986 0.951 . S
C2004 C2005 1.366 . S
C2004 C2006 1.388 1_565 S
C2005 C2004 1.366 . S
C2005 C2009 1.341 1_655 S
C2006 H1987 0.951 . S
C2006 C2004 1.388 1_545 S
C2006 C2007 1.363 . S
C2007 C2006 1.363 . S
C2007 C2008 1.415 1_645 S
C2007 C2010 1.500 1_655 S
C2008 H1988 0.950 . S
C2008 C2007 1.415 1_465 S
C2008 C2009 1.396 . S
C2009 H1989 0.973 . S
C2009 C2005 1.341 1_455 S
C2009 C2008 1.396 . S
C2010 C2007 1.500 1_455 S
C2010 C2011 1.373 . S
C2010 C2012 1.389 . S
C2011 H1990 0.950 . S
C2011 C2010 1.373 . S
C2011 C2027 1.377 . S
C2012 C2010 1.389 . S
C2012 C2013 1.524 1_455 S
C2012 C2026 1.377 . S
C2013 C2012 1.524 1_655 S
C2013 C2014 1.397 . S
C2013 C2018 1.363 . S
C2014 H1991 0.950 . S
C2014 C2013 1.397 . S
C2014 C2015 1.334 . S
C2015 H1992 0.950 1_545 S
C2015 C2014 1.334 . S
C2015 C2016 1.287 . S
C2016 C2015 1.287 . S
C2016 C2017 1.524 . S
C2016 H2035 0.913 . S
C2017 H1993 0.950 . S
C2017 C2016 1.524 . S
C2017 C2018 1.415 . S
C2018 H1994 0.950 . S
C2018 C2013 1.363 . S
C2018 C2017 1.415 . S
C2019 H1995 0.951 . S
C2019 C2020 1.366 . S
C2019 C2021 1.388 . S
C2020 C2019 1.366 . S
C2020 C2024 1.385 . S
C2021 H1996 0.951 . S
C2021 C2019 1.388 . S
C2021 C2022 1.366 . S
C2022 C2021 1.366 . S
C2022 C2023 1.414 . S
C2022 C2025 1.499 . S
C2023 H1997 0.950 . S
C2023 C2022 1.414 . S
C2023 C2024 1.374 . S
C2024 H1998 0.950 . S
C2024 C2020 1.385 . S
C2024 C2023 1.374 . S
C2025 C2022 1.499 . S
C2025 C2026 1.373 . S
C2025 C2027 1.389 . S
C2026 H1999 0.950 . S
C2026 C2012 1.377 . S
C2026 C2025 1.373 . S
C2027 C2011 1.377 . S
C2027 C2025 1.389 . S
C2027 C2028 1.524 . S
C2028 C2027 1.524 . S
C2028 C2029 1.397 . S
C2028 C2033 1.363 . S
C2029 H2000 0.950 . S
C2029 C2028 1.397 . S
C2029 C2030 1.334 . S
C2030 H2001 0.950 . S
C2030 C2029 1.334 . S
C2030 C2031 1.287 . S
C2031 C2030 1.287 . S
C2031 C2032 1.524 . S
C2031 H2034 0.999 . S
C2032 H2002 0.950 . S
C2032 C2031 1.524 . S
C2032 C2033 1.415 . S
C2033 H2003 0.950 . S
C2033 C2028 1.363 . S
C2033 C2032 1.415 . S
H2034 C2031 0.999 . S
H2035 C2016 0.913 . S
H2036 C2054 0.951 . S
H2037 C2056 0.951 . S
H2038 C2058 0.950 . S
H2039 C2059 0.950 . S
H2040 C2061 0.950 . S
H2041 C2064 0.950 . S
H2042 C2065 0.950 . S
H2043 C2067 0.950 . S
H2044 C2068 0.950 . S
H2045 C2069 0.951 . S
H2046 C2071 0.951 . S
H2047 C2073 0.950 . S
H2048 C2074 0.950 . S
H2049 C2076 0.950 . S
H2050 C2079 0.950 . S
H2051 C2080 0.950 . S
H2052 C2082 0.950 . S
H2053 C2083 0.950 . S
C2054 H2036 0.951 . S
C2054 C2055 1.366 . S
C2054 C2056 1.388 . S
C2055 C2054 1.366 . S
C2055 C2059 1.385 . S
C2056 H2037 0.951 . S
C2056 C2054 1.388 . S
C2056 C2057 1.366 . S
C2057 C2056 1.366 . S
C2057 C2058 1.414 . S
C2057 C2060 1.499 . S
C2058 H2038 0.950 . S
C2058 C2057 1.414 . S
C2058 C2059 1.374 . S
C2059 H2039 0.950 . S
C2059 C2055 1.385 . S
C2059 C2058 1.374 . S
C2060 C2057 1.499 . S
C2060 C2061 1.373 . S
C2060 C2062 1.389 . S
C2061 H2040 0.950 . S
C2061 C2060 1.373 . S
C2061 C2077 1.377 . S
C2062 C2060 1.389 . S
C2062 C2063 1.524 . S
C2062 C2076 1.377 . S
C2063 C2062 1.524 . S
C2063 C2064 1.397 . S
C2063 C2068 1.363 . S
C2064 H2041 0.950 . S
C2064 C2063 1.397 . S
C2064 C2065 1.334 . S
C2065 H2042 0.950 . S
C2065 C2064 1.334 . S
C2065 C2066 1.287 . S
C2066 C2065 1.287 . S
C2066 C2067 1.524 . S
C2066 H2085 0.913 . S
C2067 H2043 0.950 . S
C2067 C2066 1.524 . S
C2067 C2068 1.415 . S
C2068 H2044 0.950 . S
C2068 C2063 1.363 . S
C2068 C2067 1.415 . S
C2069 H2045 0.951 . S
C2069 C2070 1.366 . S
C2069 C2071 1.388 . S
C2070 C2069 1.366 . S
C2070 C2074 1.385 . S
C2071 H2046 0.951 . S
C2071 C2069 1.388 . S
C2071 C2072 1.366 . S
C2072 C2071 1.366 . S
C2072 C2073 1.414 . S
C2072 C2075 1.499 . S
C2073 H2047 0.950 . S
C2073 C2072 1.414 . S
C2073 C2074 1.374 . S
C2074 H2048 0.950 . S
C2074 C2070 1.385 . S
C2074 C2073 1.374 . S
C2075 C2072 1.499 . S
C2075 C2076 1.373 . S
C2075 C2077 1.389 . S
C2076 H2049 0.950 . S
C2076 C2062 1.377 . S
C2076 C2075 1.373 . S
C2077 C2061 1.377 . S
C2077 C2075 1.389 . S
C2077 C2078 1.524 . S
C2078 C2077 1.524 . S
C2078 C2079 1.397 . S
C2078 C2083 1.363 . S
C2079 H2050 0.950 . S
C2079 C2078 1.397 . S
C2079 C2080 1.334 . S
C2080 H2051 0.950 . S
C2080 C2079 1.334 . S
C2080 C2081 1.287 . S
C2081 C2080 1.287 . S
C2081 C2082 1.524 . S
C2081 H2084 0.999 . S
C2082 H2052 0.950 . S
C2082 C2081 1.524 . S
C2082 C2083 1.415 . S
C2083 H2053 0.950 . S
C2083 C2078 1.363 . S
C2083 C2082 1.415 . S
H2084 C2081 0.999 . S
H2085 C2066 0.913 . S
H2086 C2104 0.951 . S
H2087 C2106 0.981 . S
H2088 C2108 0.950 . S
H2089 C2109 0.950 . S
H2090 C2111 0.950 . S
H2091 C2114 0.950 . S
H2092 C2115 0.950 . S
H2093 C2117 0.950 . S
H2094 C2118 0.950 . S
H2095 C2119 0.951 . S
H2096 C2121 0.951 . S
H2097 C2123 0.950 . S
H2098 C2124 0.950 . S
H2099 C2126 0.950 . S
H2100 C2129 0.950 . S
H2101 C2130 0.950 . S
H2102 C2132 0.950 . S
H2103 C2133 0.950 . S
C2104 H2086 0.951 . S
C2104 C2105 1.366 . S
C2104 C2106 1.351 1_545 S
C2105 C2104 1.366 . S
C2105 C2109 1.385 . S
C2106 H2087 0.981 . S
C2106 C2104 1.351 1_565 S
C2106 C2107 1.374 . S
C2107 C2106 1.374 . S
C2107 C2108 1.414 1_565 S
C2107 C2110 1.499 . S
C2108 H2088 0.950 . S
C2108 C2107 1.414 1_545 S
C2108 C2109 1.374 . S
C2109 H2089 0.950 . S
C2109 C2105 1.385 . S
C2109 C2108 1.374 . S
C2110 C2107 1.499 . S
C2110 C2111 1.373 . S
C2110 C2112 1.389 . S
C2111 H2090 0.950 . S
C2111 C2110 1.373 . S
C2111 C2127 1.377 . S
C2112 C2110 1.389 . S
C2112 C2113 1.524 . S
C2112 C2126 1.377 . S
C2113 C2112 1.524 . S
C2113 C2114 1.397 . S
C2113 C2118 1.363 . S
C2114 H2091 0.950 . S
C2114 C2113 1.397 . S
C2114 C2115 1.334 . S
C2115 H2092 0.950 . S
C2115 C2114 1.334 . S
C2115 C2116 1.287 . S
C2116 C2115 1.287 . S
C2116 C2117 1.524 . S
C2116 H2135 0.913 . S
C2117 H2093 0.950 . S
C2117 C2116 1.524 . S
C2117 C2118 1.415 . S
C2118 H2094 0.950 . S
C2118 C2113 1.363 . S
C2118 C2117 1.415 . S
C2119 H2095 0.951 . S
C2119 C2120 1.366 . S
C2119 C2121 1.388 . S
C2120 C2119 1.366 . S
C2120 C2124 1.385 . S
C2121 H2096 0.951 . S
C2121 C2119 1.388 . S
C2121 C2122 1.366 . S
C2122 C2121 1.366 . S
C2122 C2123 1.414 . S
C2122 C2125 1.499 . S
C2123 H2097 0.950 . S
C2123 C2122 1.414 . S
C2123 C2124 1.374 . S
C2124 H2098 0.950 . S
C2124 C2120 1.385 . S
C2124 C2123 1.374 . S
C2125 C2122 1.499 . S
C2125 C2126 1.373 . S
C2125 C2127 1.389 . S
C2126 H2099 0.950 . S
C2126 C2112 1.377 . S
C2126 C2125 1.373 . S
C2127 C2111 1.377 . S
C2127 C2125 1.389 . S
C2127 C2128 1.524 . S
C2128 C2127 1.524 . S
C2128 C2129 1.397 . S
C2128 C2133 1.363 . S
C2129 H2100 0.950 . S
C2129 C2128 1.397 . S
C2129 C2130 1.334 . S
C2130 H2101 0.950 . S
C2130 C2129 1.334 . S
C2130 C2131 1.287 . S
C2131 C2130 1.287 . S
C2131 C2132 1.524 . S
C2131 H2134 0.999 . S
C2132 H2102 0.950 . S
C2132 C2131 1.524 . S
C2132 C2133 1.415 . S
C2133 H2103 0.950 . S
C2133 C2128 1.363 . S
C2133 C2132 1.415 . S
H2134 C2131 0.999 . S
H2135 C2116 0.913 . S
H2136 C2154 0.951 . S
H2137 C2156 0.951 . S
H2138 C2158 0.950 . S
H2139 C2159 0.950 . S
H2140 C2161 0.950 . S
H2141 C2164 0.950 . S
H2142 C2165 0.950 . S
H2143 C2167 0.950 . S
H2144 C2168 0.950 . S
H2145 C2169 0.951 . S
H2146 C2171 0.951 . S
H2147 C2173 0.950 . S
H2148 C2174 0.950 . S
H2149 C2176 0.950 . S
H2150 C2179 0.950 . S
H2151 C2180 0.950 . S
H2152 C2182 0.950 . S
H2153 C2183 0.950 . S
C2154 H2136 0.951 . S
C2154 C2155 1.366 . S
C2154 C2156 1.388 . S
C2155 C2154 1.366 . S
C2155 C2159 1.385 . S
C2156 H2137 0.951 . S
C2156 C2154 1.388 . S
C2156 C2157 1.366 . S
C2157 C2156 1.366 . S
C2157 C2158 1.414 . S
C2157 C2160 1.499 . S
C2158 H2138 0.950 . S
C2158 C2157 1.414 . S
C2158 C2159 1.374 . S
C2159 H2139 0.950 . S
C2159 C2155 1.385 . S
C2159 C2158 1.374 . S
C2160 C2157 1.499 . S
C2160 C2161 1.373 . S
C2160 C2162 1.389 . S
C2161 H2140 0.950 . S
C2161 C2160 1.373 . S
C2161 C2177 1.377 . S
C2162 C2160 1.389 . S
C2162 C2163 1.524 . S
C2162 C2176 1.377 . S
C2163 C2162 1.524 . S
C2163 C2164 1.397 . S
C2163 C2168 1.363 . S
C2164 H2141 0.950 . S
C2164 C2163 1.397 . S
C2164 C2165 1.334 . S
C2165 H2142 0.950 . S
C2165 C2164 1.334 . S
C2165 C2166 1.287 . S
C2166 C2165 1.287 . S
C2166 C2167 1.524 . S
C2166 H2185 0.913 . S
C2167 H2143 0.950 . S
C2167 C2166 1.524 . S
C2167 C2168 1.415 . S
C2168 H2144 0.950 . S
C2168 C2163 1.363 . S
C2168 C2167 1.415 . S
C2169 H2145 0.951 . S
C2169 C2170 1.366 . S
C2169 C2171 1.388 . S
C2170 C2169 1.366 . S
C2170 C2174 1.385 . S
C2171 H2146 0.951 . S
C2171 C2169 1.388 . S
C2171 C2172 1.366 . S
C2172 C2171 1.366 . S
C2172 C2173 1.414 . S
C2172 C2175 1.499 . S
C2173 H2147 0.950 . S
C2173 C2172 1.414 . S
C2173 C2174 1.374 . S
C2174 H2148 0.950 . S
C2174 C2170 1.385 . S
C2174 C2173 1.374 . S
C2175 C2172 1.499 . S
C2175 C2176 1.373 . S
C2175 C2177 1.389 . S
C2176 H2149 0.950 . S
C2176 C2162 1.377 . S
C2176 C2175 1.373 . S
C2177 C2161 1.377 . S
C2177 C2175 1.389 . S
C2177 C2178 1.524 . S
C2178 C2177 1.524 . S
C2178 C2179 1.397 . S
C2178 C2183 1.363 . S
C2179 H2150 0.950 . S
C2179 C2178 1.397 . S
C2179 C2180 1.334 . S
C2180 H2151 0.950 . S
C2180 C2179 1.334 . S
C2180 C2181 1.287 . S
C2181 C2180 1.287 . S
C2181 C2182 1.524 . S
C2181 H2184 0.999 . S
C2182 H2152 0.950 . S
C2182 C2181 1.524 . S
C2182 C2183 1.415 . S
C2183 H2153 0.950 . S
C2183 C2178 1.363 . S
C2183 C2182 1.415 . S
H2184 C2181 0.999 . S
H2185 C2166 0.913 . S
H2186 C2204 0.951 . S
H2187 C2206 0.951 . S
H2188 C2208 0.972 . S
H2189 C2209 0.950 . S
H2190 C2211 0.948 1_455 S
H2191 C2214 0.950 . S
H2192 C2215 0.950 . S
H2193 C2217 0.950 . S
H2194 C2218 0.950 . S
H2195 C2219 0.951 . S
H2196 C2221 0.951 . S
H2197 C2223 0.950 . S
H2198 C2224 0.950 . S
H2199 C2226 0.950 . S
H2200 C2229 0.953 . S
H2201 C2230 0.950 . S
H2202 C2232 0.950 . S
H2203 C2233 0.950 . S
C2204 H2186 0.951 . S
C2204 C2205 1.366 . S
C2204 C2206 1.388 . S
C2205 C2204 1.366 . S
C2205 C2209 1.385 . S
C2206 H2187 0.951 . S
C2206 C2204 1.388 . S
C2206 C2207 1.336 1_455 S
C2207 C2206 1.336 1_655 S
C2207 C2208 1.414 . S
C2207 C2210 1.529 . S
C2208 H2188 0.972 . S
C2208 C2207 1.414 . S
C2208 C2209 1.353 1_655 S
C2209 H2189 0.950 . S
C2209 C2205 1.385 . S
C2209 C2208 1.353 1_455 S
C2210 C2207 1.529 . S
C2210 C2211 1.373 . S
C2210 C2212 1.389 . S
C2211 H2190 0.948 1_655 S
C2211 C2210 1.373 . S
C2211 C2227 1.377 . S
C2212 C2210 1.389 . S
C2212 C2213 1.524 . S
C2212 C2226 1.377 . S
C2213 C2212 1.524 . S
C2213 C2214 1.397 . S
C2213 C2218 1.363 . S
C2214 H2191 0.950 . S
C2214 C2213 1.397 . S
C2214 C2215 1.334 . S
C2215 H2192 0.950 . S
C2215 C2214 1.334 . S
C2215 C2216 1.287 . S
C2216 C2215 1.287 . S
C2216 C2217 1.524 . S
C2216 H2235 0.913 . S
C2217 H2193 0.950 . S
C2217 C2216 1.524 . S
C2217 C2218 1.415 . S
C2218 H2194 0.950 . S
C2218 C2213 1.363 . S
C2218 C2217 1.415 . S
C2219 H2195 0.951 . S
C2219 C2220 1.366 . S
C2219 C2221 1.388 . S
C2220 C2219 1.366 . S
C2220 C2224 1.385 . S
C2221 H2196 0.951 . S
C2221 C2219 1.388 . S
C2221 C2222 1.366 . S
C2222 C2221 1.366 . S
C2222 C2223 1.414 . S
C2222 C2225 1.499 . S
C2223 H2197 0.950 . S
C2223 C2222 1.414 . S
C2223 C2224 1.374 . S
C2224 H2198 0.950 . S
C2224 C2220 1.385 . S
C2224 C2223 1.374 . S
C2225 C2222 1.499 . S
C2225 C2226 1.373 . S
C2225 C2227 1.389 . S
C2226 H2199 0.950 . S
C2226 C2212 1.377 . S
C2226 C2225 1.373 . S
C2227 C2211 1.377 . S
C2227 C2225 1.389 . S
C2227 C2228 1.524 . S
C2228 C2227 1.524 . S
C2228 C2229 1.397 . S
C2228 C2233 1.363 . S
C2229 H2200 0.953 . S
C2229 C2228 1.397 . S
C2229 C2230 1.334 1_655 S
C2230 H2201 0.950 . S
C2230 C2229 1.334 1_455 S
C2230 C2231 1.287 . S
C2231 C2230 1.287 . S
C2231 C2232 1.524 1_455 S
C2231 H2234 0.999 . S
C2232 H2202 0.950 . S
C2232 C2231 1.524 1_655 S
C2232 C2233 1.415 . S
C2233 H2203 0.950 . S
C2233 C2228 1.363 . S
C2233 C2232 1.415 . S
H2234 C2231 0.999 . S
H2235 C2216 0.913 . S
H2236 C2254 0.951 . S
H2237 C2256 0.951 . S
H2238 C2258 0.950 . S
H2239 C2259 0.950 . S
H2240 C2261 0.950 . S
H2241 C2264 0.950 . S
H2242 C2265 0.950 . S
H2243 C2267 0.950 . S
H2244 C2268 0.950 . S
H2245 C2269 0.951 . S
H2246 C2271 0.951 . S
H2247 C2273 0.950 . S
H2248 C2274 0.950 . S
H2249 C2276 0.950 . S
H2250 C2279 0.950 . S
H2251 C2280 0.950 . S
H2252 C2282 0.950 . S
H2253 C2283 0.950 . S
C2254 H2236 0.951 . S
C2254 C2255 1.366 . S
C2254 C2256 1.388 . S
C2255 C2254 1.366 . S
C2255 C2259 1.385 . S
C2256 H2237 0.951 . S
C2256 C2254 1.388 . S
C2256 C2257 1.366 . S
C2257 C2256 1.366 . S
C2257 C2258 1.414 . S
C2257 C2260 1.499 . S
C2258 H2238 0.950 . S
C2258 C2257 1.414 . S
C2258 C2259 1.374 . S
C2259 H2239 0.950 . S
C2259 C2255 1.385 . S
C2259 C2258 1.374 . S
C2260 C2257 1.499 . S
C2260 C2261 1.373 . S
C2260 C2262 1.389 . S
C2261 H2240 0.950 . S
C2261 C2260 1.373 . S
C2261 C2277 1.377 . S
C2262 C2260 1.389 . S
C2262 C2263 1.524 . S
C2262 C2276 1.377 . S
C2263 C2262 1.524 . S
C2263 C2264 1.397 . S
C2263 C2268 1.363 . S
C2264 H2241 0.950 . S
C2264 C2263 1.397 . S
C2264 C2265 1.334 . S
C2265 H2242 0.950 . S
C2265 C2264 1.334 . S
C2265 C2266 1.287 . S
C2266 C2265 1.287 . S
C2266 C2267 1.524 . S
C2266 H2285 0.913 . S
C2267 H2243 0.950 . S
C2267 C2266 1.524 . S
C2267 C2268 1.415 . S
C2268 H2244 0.950 . S
C2268 C2263 1.363 . S
C2268 C2267 1.415 . S
C2269 H2245 0.951 . S
C2269 C2270 1.366 . S
C2269 C2271 1.388 . S
C2270 C2269 1.366 . S
C2270 C2274 1.385 . S
C2271 H2246 0.951 . S
C2271 C2269 1.388 . S
C2271 C2272 1.366 . S
C2272 C2271 1.366 . S
C2272 C2273 1.414 . S
C2272 C2275 1.499 . S
C2273 H2247 0.950 . S
C2273 C2272 1.414 . S
C2273 C2274 1.374 . S
C2274 H2248 0.950 . S
C2274 C2270 1.385 . S
C2274 C2273 1.374 . S
C2275 C2272 1.499 . S
C2275 C2276 1.373 . S
C2275 C2277 1.389 . S
C2276 H2249 0.950 . S
C2276 C2262 1.377 . S
C2276 C2275 1.373 . S
C2277 C2261 1.377 . S
C2277 C2275 1.389 . S
C2277 C2278 1.524 . S
C2278 C2277 1.524 . S
C2278 C2279 1.397 . S
C2278 C2283 1.363 . S
C2279 H2250 0.950 . S
C2279 C2278 1.397 . S
C2279 C2280 1.334 . S
C2280 H2251 0.950 . S
C2280 C2279 1.334 . S
C2280 C2281 1.287 . S
C2281 C2280 1.287 . S
C2281 C2282 1.524 . S
C2281 H2284 0.999 . S
C2282 H2252 0.950 . S
C2282 C2281 1.524 . S
C2282 C2283 1.415 . S
C2283 H2253 0.950 . S
C2283 C2278 1.363 . S
C2283 C2282 1.415 . S
H2284 C2281 0.999 . S
H2285 C2266 0.913 . S
H2286 C2304 0.951 . S
H2287 C2306 0.951 . S
H2288 C2308 0.950 . S
H2289 C2309 0.950 . S
H2290 C2311 0.950 . S
H2291 C2314 0.950 . S
H2292 C2315 0.950 . S
H2293 C2317 0.950 . S
H2294 C2318 0.950 . S
H2295 C2319 0.951 . S
H2296 C2321 0.951 . S
H2297 C2323 0.950 . S
H2298 C2324 0.950 . S
H2299 C2326 0.950 . S
H2300 C2329 0.950 . S
H2301 C2330 0.950 . S
H2302 C2332 0.950 . S
H2303 C2333 0.950 . S
C2304 H2286 0.951 . S
C2304 C2305 1.366 . S
C2304 C2306 1.388 . S
C2305 C2304 1.366 . S
C2305 C2309 1.385 . S
C2306 H2287 0.951 . S
C2306 C2304 1.388 . S
C2306 C2307 1.366 . S
C2307 C2306 1.366 . S
C2307 C2308 1.414 . S
C2307 C2310 1.499 . S
C2308 H2288 0.950 . S
C2308 C2307 1.414 . S
C2308 C2309 1.374 . S
C2309 H2289 0.950 . S
C2309 C2305 1.385 . S
C2309 C2308 1.374 . S
C2310 C2307 1.499 . S
C2310 C2311 1.373 . S
C2310 C2312 1.389 . S
C2311 H2290 0.950 . S
C2311 C2310 1.373 . S
C2311 C2327 1.377 . S
C2312 C2310 1.389 . S
C2312 C2313 1.524 . S
C2312 C2326 1.377 . S
C2313 C2312 1.524 . S
C2313 C2314 1.397 . S
C2313 C2318 1.363 . S
C2314 H2291 0.950 . S
C2314 C2313 1.397 . S
C2314 C2315 1.334 . S
C2315 H2292 0.950 . S
C2315 C2314 1.334 . S
C2315 C2316 1.287 . S
C2316 C2315 1.287 . S
C2316 C2317 1.524 . S
C2316 H2335 0.913 . S
C2317 H2293 0.950 . S
C2317 C2316 1.524 . S
C2317 C2318 1.415 . S
C2318 H2294 0.950 . S
C2318 C2313 1.363 . S
C2318 C2317 1.415 . S
C2319 H2295 0.951 . S
C2319 C2320 1.366 . S
C2319 C2321 1.388 . S
C2320 C2319 1.366 . S
C2320 C2324 1.385 . S
C2321 H2296 0.951 . S
C2321 C2319 1.388 . S
C2321 C2322 1.366 . S
C2322 C2321 1.366 . S
C2322 C2323 1.414 . S
C2322 C2325 1.499 . S
C2323 H2297 0.950 . S
C2323 C2322 1.414 . S
C2323 C2324 1.374 . S
C2324 H2298 0.950 . S
C2324 C2320 1.385 . S
C2324 C2323 1.374 . S
C2325 C2322 1.499 . S
C2325 C2326 1.373 . S
C2325 C2327 1.389 . S
C2326 H2299 0.950 . S
C2326 C2312 1.377 . S
C2326 C2325 1.373 . S
C2327 C2311 1.377 . S
C2327 C2325 1.389 . S
C2327 C2328 1.524 . S
C2328 C2327 1.524 . S
C2328 C2329 1.397 . S
C2328 C2333 1.363 . S
C2329 H2300 0.950 . S
C2329 C2328 1.397 . S
C2329 C2330 1.334 . S
C2330 H2301 0.950 . S
C2330 C2329 1.334 . S
C2330 C2331 1.287 . S
C2331 C2330 1.287 . S
C2331 C2332 1.524 . S
C2331 H2334 0.999 . S
C2332 H2302 0.950 . S
C2332 C2331 1.524 . S
C2332 C2333 1.415 . S
C2333 H2303 0.950 . S
C2333 C2328 1.363 . S
C2333 C2332 1.415 . S
H2334 C2331 0.999 . S
H2335 C2316 0.913 . S
H2336 C2354 0.951 . S
H2337 C2356 0.951 . S
H2338 C2358 0.950 . S
H2339 C2359 0.950 . S
H2340 C2361 0.950 . S
H2341 C2364 0.950 . S
H2342 C2365 0.950 . S
H2343 C2367 0.950 . S
H2344 C2368 0.950 . S
H2345 C2369 0.951 . S
H2346 C2371 0.951 . S
H2347 C2373 0.950 . S
H2348 C2374 0.950 . S
H2349 C2376 0.950 . S
H2350 C2379 0.950 . S
H2351 C2380 0.950 . S
H2352 C2382 0.950 . S
H2353 C2383 0.950 . S
C2354 H2336 0.951 . S
C2354 C2355 1.366 . S
C2354 C2356 1.388 . S
C2355 C2354 1.366 . S
C2355 C2359 1.385 . S
C2356 H2337 0.951 . S
C2356 C2354 1.388 . S
C2356 C2357 1.366 . S
C2357 C2356 1.366 . S
C2357 C2358 1.414 . S
C2357 C2360 1.499 . S
C2358 H2338 0.950 . S
C2358 C2357 1.414 . S
C2358 C2359 1.374 . S
C2359 H2339 0.950 . S
C2359 C2355 1.385 . S
C2359 C2358 1.374 . S
C2360 C2357 1.499 . S
C2360 C2361 1.373 . S
C2360 C2362 1.389 . S
C2361 H2340 0.950 . S
C2361 C2360 1.373 . S
C2361 C2377 1.377 . S
C2362 C2360 1.389 . S
C2362 C2363 1.524 . S
C2362 C2376 1.377 . S
C2363 C2362 1.524 . S
C2363 C2364 1.397 . S
C2363 C2368 1.363 . S
C2364 H2341 0.950 . S
C2364 C2363 1.397 . S
C2364 C2365 1.334 . S
C2365 H2342 0.950 . S
C2365 C2364 1.334 . S
C2365 C2366 1.287 . S
C2366 C2365 1.287 . S
C2366 C2367 1.524 . S
C2366 H2385 0.913 . S
C2367 H2343 0.950 . S
C2367 C2366 1.524 . S
C2367 C2368 1.415 . S
C2368 H2344 0.950 . S
C2368 C2363 1.363 . S
C2368 C2367 1.415 . S
C2369 H2345 0.951 . S
C2369 C2370 1.366 . S
C2369 C2371 1.388 . S
C2370 C2369 1.366 . S
C2370 C2374 1.385 . S
C2371 H2346 0.951 . S
C2371 C2369 1.388 . S
C2371 C2372 1.366 . S
C2372 C2371 1.366 . S
C2372 C2373 1.414 . S
C2372 C2375 1.499 . S
C2373 H2347 0.950 . S
C2373 C2372 1.414 . S
C2373 C2374 1.374 . S
C2374 H2348 0.950 . S
C2374 C2370 1.385 . S
C2374 C2373 1.374 . S
C2375 C2372 1.499 . S
C2375 C2376 1.373 . S
C2375 C2377 1.389 . S
C2376 H2349 0.950 . S
C2376 C2362 1.377 . S
C2376 C2375 1.373 . S
C2377 C2361 1.377 . S
C2377 C2375 1.389 . S
C2377 C2378 1.524 . S
C2378 C2377 1.524 . S
C2378 C2379 1.397 . S
C2378 C2383 1.363 . S
C2379 H2350 0.950 . S
C2379 C2378 1.397 . S
C2379 C2380 1.334 . S
C2380 H2351 0.950 . S
C2380 C2379 1.334 . S
C2380 C2381 1.287 . S
C2381 C2380 1.287 . S
C2381 C2382 1.524 . S
C2381 H2384 0.999 . S
C2382 H2352 0.950 . S
C2382 C2381 1.524 . S
C2382 C2383 1.415 . S
C2383 H2353 0.950 . S
C2383 C2378 1.363 . S
C2383 C2382 1.415 . S
H2384 C2381 0.999 . S
H2385 C2366 0.913 . S
H2386 C2404 0.951 . S
H2387 C2406 0.951 . S
H2388 C2408 0.950 . S
H2389 C2409 0.950 . S
H2390 C2411 0.950 . S
H2391 C2414 0.950 . S
H2392 C2415 0.950 . S
H2393 C2417 0.950 . S
H2394 C2418 0.950 . S
H2395 C2419 0.951 . S
H2396 C2421 0.951 . S
H2397 C2423 0.950 . S
H2398 C2424 0.950 . S
H2399 C2426 0.950 . S
H2400 C2429 0.950 . S
H2401 C2430 0.950 . S
H2402 C2432 0.950 . S
H2403 C2433 0.950 . S
C2404 H2386 0.951 . S
C2404 C2405 1.366 . S
C2404 C2406 1.388 . S
C2405 C2404 1.366 . S
C2405 C2409 1.385 . S
C2406 H2387 0.951 . S
C2406 C2404 1.388 . S
C2406 C2407 1.366 . S
C2407 C2406 1.366 . S
C2407 C2408 1.414 . S
C2407 C2410 1.499 . S
C2408 H2388 0.950 . S
C2408 C2407 1.414 . S
C2408 C2409 1.374 . S
C2409 H2389 0.950 . S
C2409 C2405 1.385 . S
C2409 C2408 1.374 . S
C2410 C2407 1.499 . S
C2410 C2411 1.373 . S
C2410 C2412 1.389 . S
C2411 H2390 0.950 . S
C2411 C2410 1.373 . S
C2411 C2427 1.377 . S
C2412 C2410 1.389 . S
C2412 C2413 1.524 . S
C2412 C2426 1.377 . S
C2413 C2412 1.524 . S
C2413 C2414 1.397 . S
C2413 C2418 1.363 . S
C2414 H2391 0.950 . S
C2414 C2413 1.397 . S
C2414 C2415 1.334 . S
C2415 H2392 0.950 . S
C2415 C2414 1.334 . S
C2415 C2416 1.287 . S
C2416 C2415 1.287 . S
C2416 C2417 1.524 . S
C2416 H2435 0.913 . S
C2417 H2393 0.950 . S
C2417 C2416 1.524 . S
C2417 C2418 1.415 . S
C2418 H2394 0.950 . S
C2418 C2413 1.363 . S
C2418 C2417 1.415 . S
C2419 H2395 0.951 . S
C2419 C2420 1.366 . S
C2419 C2421 1.388 . S
C2420 C2419 1.366 . S
C2420 C2424 1.385 . S
C2421 H2396 0.951 . S
C2421 C2419 1.388 . S
C2421 C2422 1.366 . S
C2422 C2421 1.366 . S
C2422 C2423 1.414 . S
C2422 C2425 1.499 . S
C2423 H2397 0.950 . S
C2423 C2422 1.414 . S
C2423 C2424 1.374 . S
C2424 H2398 0.950 . S
C2424 C2420 1.385 . S
C2424 C2423 1.374 . S
C2425 C2422 1.499 . S
C2425 C2426 1.373 . S
C2425 C2427 1.389 . S
C2426 H2399 0.950 . S
C2426 C2412 1.377 . S
C2426 C2425 1.373 . S
C2427 C2411 1.377 . S
C2427 C2425 1.389 . S
C2427 C2428 1.524 . S
C2428 C2427 1.524 . S
C2428 C2429 1.397 . S
C2428 C2433 1.363 . S
C2429 H2400 0.950 . S
C2429 C2428 1.397 . S
C2429 C2430 1.334 . S
C2430 H2401 0.950 . S
C2430 C2429 1.334 . S
C2430 C2431 1.287 . S
C2431 C2430 1.287 . S
C2431 C2432 1.524 . S
C2431 H2434 0.999 . S
C2432 H2402 0.950 . S
C2432 C2431 1.524 . S
C2432 C2433 1.415 . S
C2433 H2403 0.950 . S
C2433 C2428 1.363 . S
C2433 C2432 1.415 . S
H2434 C2431 0.999 . S
H2435 C2416 0.913 . S
H2436 C2454 0.951 . S
H2437 C2456 0.951 1_455 S
H2438 C2458 0.950 . S
H2439 C2459 0.938 1_554 S
H2440 C2461 0.950 . S
H2441 C2464 0.950 . S
H2442 C2465 0.950 . S
H2443 C2467 0.950 1_455 S
H2444 C2468 0.950 . S
H2445 C2469 0.951 . S
H2446 C2471 0.951 . S
H2447 C2473 0.950 . S
H2448 C2474 0.950 . S
H2449 C2476 0.950 . S
H2450 C2479 0.950 . S
H2451 C2480 0.950 . S
H2452 C2482 0.950 . S
H2453 C2483 0.950 . S
C2454 H2436 0.951 . S
C2454 C2455 1.366 . S
C2454 C2456 1.388 . S
C2455 C2454 1.366 . S
C2455 C2459 1.385 . S
C2456 H2437 0.951 1_655 S
C2456 C2454 1.388 . S
C2456 C2457 1.329 1_656 S
C2457 C2456 1.329 1_454 S
C2457 C2458 1.427 1_455 S
C2457 C2460 1.522 . S
C2458 H2438 0.950 . S
C2458 C2457 1.427 1_655 S
C2458 C2459 1.374 1_554 S
C2459 H2439 0.938 1_556 S
C2459 C2455 1.385 . S
C2459 C2458 1.374 1_556 S
C2460 C2457 1.522 . S
C2460 C2461 1.373 . S
C2460 C2462 1.389 . S
C2461 H2440 0.950 . S
C2461 C2460 1.373 . S
C2461 C2477 1.377 . S
C2462 C2460 1.389 . S
C2462 C2463 1.524 . S
C2462 C2476 1.377 . S
C2463 C2462 1.524 . S
C2463 C2464 1.397 1_455 S
C2463 C2468 1.363 . S
C2464 H2441 0.950 . S
C2464 C2463 1.397 1_655 S
C2464 C2465 1.334 . S
C2465 H2442 0.950 . S
C2465 C2464 1.334 . S
C2465 C2466 1.287 . S
C2466 C2465 1.287 . S
C2466 C2467 1.524 . S
C2466 H2485 0.913 . S
C2467 H2443 0.950 1_655 S
C2467 C2466 1.524 . S
C2467 C2468 1.415 1_655 S
C2468 H2444 0.950 . S
C2468 C2463 1.363 . S
C2468 C2467 1.415 1_455 S
C2469 H2445 0.951 . S
C2469 C2470 1.366 . S
C2469 C2471 1.388 . S
C2470 C2469 1.366 . S
C2470 C2474 1.385 . S
C2471 H2446 0.951 . S
C2471 C2469 1.388 . S
C2471 C2472 1.366 . S
C2472 C2471 1.366 . S
C2472 C2473 1.414 . S
C2472 C2475 1.499 . S
C2473 H2447 0.950 . S
C2473 C2472 1.414 . S
C2473 C2474 1.374 . S
C2474 H2448 0.950 . S
C2474 C2470 1.385 . S
C2474 C2473 1.374 . S
C2475 C2472 1.499 . S
C2475 C2476 1.373 . S
C2475 C2477 1.389 . S
C2476 H2449 0.950 . S
C2476 C2462 1.377 . S
C2476 C2475 1.373 . S
C2477 C2461 1.377 . S
C2477 C2475 1.389 . S
C2477 C2478 1.524 . S
C2478 C2477 1.524 . S
C2478 C2479 1.397 . S
C2478 C2483 1.363 . S
C2479 H2450 0.950 . S
C2479 C2478 1.397 . S
C2479 C2480 1.334 . S
C2480 H2451 0.950 . S
C2480 C2479 1.334 . S
C2480 C2481 1.287 . S
C2481 C2480 1.287 . S
C2481 C2482 1.524 . S
C2481 H2484 0.999 . S
C2482 H2452 0.950 . S
C2482 C2481 1.524 . S
C2482 C2483 1.415 . S
C2483 H2453 0.950 . S
C2483 C2478 1.363 . S
C2483 C2482 1.415 . S
H2484 C2481 0.999 . S
H2485 C2466 0.913 . S
H2486 C2504 0.951 . S
H2487 C2506 0.951 . S
H2488 C2508 0.950 . S
H2489 C2509 0.950 . S
H2490 C2511 0.950 . S
H2491 C2514 0.950 . S
H2492 C2515 0.950 . S
H2493 C2517 0.950 . S
H2494 C2518 0.950 . S
H2495 C2519 0.951 . S
H2496 C2521 0.951 . S
H2497 C2523 0.950 . S
H2498 C2524 0.950 . S
H2499 C2526 0.950 . S
H2500 C2529 0.950 . S
H2501 C2530 0.950 . S
H2502 C2532 0.950 . S
H2503 C2533 0.950 . S
C2504 H2486 0.951 . S
C2504 C2505 1.366 . S
C2504 C2506 1.388 . S
C2505 C2504 1.366 . S
C2505 C2509 1.385 . S
C2506 H2487 0.951 . S
C2506 C2504 1.388 . S
C2506 C2507 1.366 . S
C2507 C2506 1.366 . S
C2507 C2508 1.414 . S
C2507 C2510 1.499 . S
C2508 H2488 0.950 . S
C2508 C2507 1.414 . S
C2508 C2509 1.374 . S
C2509 H2489 0.950 . S
C2509 C2505 1.385 . S
C2509 C2508 1.374 . S
C2510 C2507 1.499 . S
C2510 C2511 1.373 . S
C2510 C2512 1.389 . S
C2511 H2490 0.950 . S
C2511 C2510 1.373 . S
C2511 C2527 1.377 . S
C2512 C2510 1.389 . S
C2512 C2513 1.524 . S
C2512 C2526 1.377 . S
C2513 C2512 1.524 . S
C2513 C2514 1.397 . S
C2513 C2518 1.363 . S
C2514 H2491 0.950 . S
C2514 C2513 1.397 . S
C2514 C2515 1.334 . S
C2515 H2492 0.950 . S
C2515 C2514 1.334 . S
C2515 C2516 1.287 . S
C2516 C2515 1.287 . S
C2516 C2517 1.524 . S
C2516 H2535 0.913 . S
C2517 H2493 0.950 . S
C2517 C2516 1.524 . S
C2517 C2518 1.415 . S
C2518 H2494 0.950 . S
C2518 C2513 1.363 . S
C2518 C2517 1.415 . S
C2519 H2495 0.951 . S
C2519 C2520 1.366 . S
C2519 C2521 1.388 . S
C2520 C2519 1.366 . S
C2520 C2524 1.385 . S
C2521 H2496 0.951 . S
C2521 C2519 1.388 . S
C2521 C2522 1.366 . S
C2522 C2521 1.366 . S
C2522 C2523 1.414 . S
C2522 C2525 1.499 . S
C2523 H2497 0.950 . S
C2523 C2522 1.414 . S
C2523 C2524 1.374 . S
C2524 H2498 0.950 . S
C2524 C2520 1.385 . S
C2524 C2523 1.374 . S
C2525 C2522 1.499 . S
C2525 C2526 1.373 . S
C2525 C2527 1.389 . S
C2526 H2499 0.950 . S
C2526 C2512 1.377 . S
C2526 C2525 1.373 . S
C2527 C2511 1.377 . S
C2527 C2525 1.389 . S
C2527 C2528 1.524 . S
C2528 C2527 1.524 . S
C2528 C2529 1.397 . S
C2528 C2533 1.363 . S
C2529 H2500 0.950 . S
C2529 C2528 1.397 . S
C2529 C2530 1.334 . S
C2530 H2501 0.950 . S
C2530 C2529 1.334 . S
C2530 C2531 1.287 . S
C2531 C2530 1.287 . S
C2531 C2532 1.524 . S
C2531 H2534 0.999 . S
C2532 H2502 0.950 . S
C2532 C2531 1.524 . S
C2532 C2533 1.415 . S
C2533 H2503 0.950 . S
C2533 C2528 1.363 . S
C2533 C2532 1.415 . S
H2534 C2531 0.999 . S
H2535 C2516 0.913 . S
H2536 C2554 0.951 . S
H2537 C2556 0.951 . S
H2538 C2558 0.950 . S
H2539 C2559 0.950 . S
H2540 C2561 0.950 . S
H2541 C2564 0.950 . S
H2542 C2565 0.950 . S
H2543 C2567 0.950 . S
H2544 C2568 0.950 . S
H2545 C2569 0.951 . S
H2546 C2571 0.951 . S
H2547 C2573 0.950 . S
H2548 C2574 0.950 . S
H2549 C2576 0.950 . S
H2550 C2579 0.950 . S
H2551 C2580 0.950 . S
H2552 C2582 0.950 . S
H2553 C2583 0.950 . S
C2554 H2536 0.951 . S
C2554 C2555 1.366 . S
C2554 C2556 1.388 . S
C2555 C2554 1.366 . S
C2555 C2559 1.385 . S
C2556 H2537 0.951 . S
C2556 C2554 1.388 . S
C2556 C2557 1.366 . S
C2557 C2556 1.366 . S
C2557 C2558 1.414 . S
C2557 C2560 1.499 . S
C2558 H2538 0.950 . S
C2558 C2557 1.414 . S
C2558 C2559 1.374 . S
C2559 H2539 0.950 . S
C2559 C2555 1.385 . S
C2559 C2558 1.374 . S
C2560 C2557 1.499 . S
C2560 C2561 1.373 . S
C2560 C2562 1.389 . S
C2561 H2540 0.950 . S
C2561 C2560 1.373 . S
C2561 C2577 1.377 . S
C2562 C2560 1.389 . S
C2562 C2563 1.524 . S
C2562 C2576 1.377 . S
C2563 C2562 1.524 . S
C2563 C2564 1.397 . S
C2563 C2568 1.363 . S
C2564 H2541 0.950 . S
C2564 C2563 1.397 . S
C2564 C2565 1.334 . S
C2565 H2542 0.950 . S
C2565 C2564 1.334 . S
C2565 C2566 1.287 . S
C2566 C2565 1.287 . S
C2566 C2567 1.524 . S
C2566 H2585 0.913 . S
C2567 H2543 0.950 . S
C2567 C2566 1.524 . S
C2567 C2568 1.415 . S
C2568 H2544 0.950 . S
C2568 C2563 1.363 . S
C2568 C2567 1.415 . S
C2569 H2545 0.951 . S
C2569 C2570 1.366 . S
C2569 C2571 1.388 . S
C2570 C2569 1.366 . S
C2570 C2574 1.385 . S
C2571 H2546 0.951 . S
C2571 C2569 1.388 . S
C2571 C2572 1.366 . S
C2572 C2571 1.366 . S
C2572 C2573 1.414 . S
C2572 C2575 1.499 . S
C2573 H2547 0.950 . S
C2573 C2572 1.414 . S
C2573 C2574 1.374 . S
C2574 H2548 0.950 . S
C2574 C2570 1.385 . S
C2574 C2573 1.374 . S
C2575 C2572 1.499 . S
C2575 C2576 1.373 . S
C2575 C2577 1.389 . S
C2576 H2549 0.950 . S
C2576 C2562 1.377 . S
C2576 C2575 1.373 . S
C2577 C2561 1.377 . S
C2577 C2575 1.389 . S
C2577 C2578 1.524 . S
C2578 C2577 1.524 . S
C2578 C2579 1.397 . S
C2578 C2583 1.363 . S
C2579 H2550 0.950 . S
C2579 C2578 1.397 . S
C2579 C2580 1.334 . S
C2580 H2551 0.950 . S
C2580 C2579 1.334 . S
C2580 C2581 1.287 . S
C2581 C2580 1.287 . S
C2581 C2582 1.524 . S
C2581 H2584 0.999 . S
C2582 H2552 0.950 . S
C2582 C2581 1.524 . S
C2582 C2583 1.415 . S
C2583 H2553 0.950 . S
C2583 C2578 1.363 . S
C2583 C2582 1.415 . S
H2584 C2581 0.999 . S
H2585 C2566 0.913 . S
H2586 C2604 0.951 . S
H2587 C2606 0.951 . S
H2588 C2608 0.950 . S
H2589 C2609 0.950 . S
H2590 C2611 0.950 . S
H2591 C2614 0.950 . S
H2592 C2615 0.950 . S
H2593 C2617 0.950 . S
H2594 C2618 0.950 . S
H2595 C2619 0.951 . S
H2596 C2621 0.951 . S
H2597 C2623 0.950 . S
H2598 C2624 0.950 . S
H2599 C2626 0.950 . S
H2600 C2629 0.950 . S
H2601 C2630 0.950 . S
H2602 C2632 0.950 . S
H2603 C2633 0.950 . S
C2604 H2586 0.951 . S
C2604 C2605 1.366 . S
C2604 C2606 1.388 . S
C2605 C2604 1.366 . S
C2605 C2609 1.385 . S
C2606 H2587 0.951 . S
C2606 C2604 1.388 . S
C2606 C2607 1.366 . S
C2607 C2606 1.366 . S
C2607 C2608 1.414 . S
C2607 C2610 1.499 . S
C2608 H2588 0.950 . S
C2608 C2607 1.414 . S
C2608 C2609 1.374 . S
C2609 H2589 0.950 . S
C2609 C2605 1.385 . S
C2609 C2608 1.374 . S
C2610 C2607 1.499 . S
C2610 C2611 1.373 . S
C2610 C2612 1.389 . S
C2611 H2590 0.950 . S
C2611 C2610 1.373 . S
C2611 C2627 1.377 . S
C2612 C2610 1.389 . S
C2612 C2613 1.524 . S
C2612 C2626 1.377 . S
C2613 C2612 1.524 . S
C2613 C2614 1.397 . S
C2613 C2618 1.363 . S
C2614 H2591 0.950 . S
C2614 C2613 1.397 . S
C2614 C2615 1.334 . S
C2615 H2592 0.950 . S
C2615 C2614 1.334 . S
C2615 C2616 1.287 . S
C2616 C2615 1.287 . S
C2616 C2617 1.524 . S
C2616 H2635 0.913 . S
C2617 H2593 0.950 . S
C2617 C2616 1.524 . S
C2617 C2618 1.415 . S
C2618 H2594 0.950 . S
C2618 C2613 1.363 . S
C2618 C2617 1.415 . S
C2619 H2595 0.951 . S
C2619 C2620 1.366 . S
C2619 C2621 1.388 . S
C2620 C2619 1.366 . S
C2620 C2624 1.385 . S
C2621 H2596 0.951 . S
C2621 C2619 1.388 . S
C2621 C2622 1.366 . S
C2622 C2621 1.366 . S
C2622 C2623 1.414 . S
C2622 C2625 1.499 . S
C2623 H2597 0.950 . S
C2623 C2622 1.414 . S
C2623 C2624 1.374 . S
C2624 H2598 0.950 . S
C2624 C2620 1.385 . S
C2624 C2623 1.374 . S
C2625 C2622 1.499 . S
C2625 C2626 1.373 . S
C2625 C2627 1.389 . S
C2626 H2599 0.950 . S
C2626 C2612 1.377 . S
C2626 C2625 1.373 . S
C2627 C2611 1.377 . S
C2627 C2625 1.389 . S
C2627 C2628 1.524 . S
C2628 C2627 1.524 . S
C2628 C2629 1.397 . S
C2628 C2633 1.363 . S
C2629 H2600 0.950 . S
C2629 C2628 1.397 . S
C2629 C2630 1.334 . S
C2630 H2601 0.950 . S
C2630 C2629 1.334 . S
C2630 C2631 1.287 . S
C2631 C2630 1.287 . S
C2631 C2632 1.524 . S
C2631 H2634 0.999 . S
C2632 H2602 0.950 . S
C2632 C2631 1.524 . S
C2632 C2633 1.415 . S
C2633 H2603 0.950 . S
C2633 C2628 1.363 . S
C2633 C2632 1.415 . S
H2634 C2631 0.999 . S
H2635 C2616 0.913 . S
H2636 C2654 0.951 . S
H2637 C2656 0.951 . S
H2638 C2658 0.950 . S
H2639 C2659 0.971 . S
H2640 C2661 0.950 . S
H2641 C2664 0.950 . S
H2642 C2665 0.950 1_556 S
H2643 C2667 0.950 . S
H2644 C2668 0.950 . S
H2645 C2669 0.951 . S
H2646 C2671 0.951 . S
H2647 C2673 0.950 . S
H2648 C2674 0.950 . S
H2649 C2676 0.950 . S
H2650 C2679 0.950 . S
H2651 C2680 0.950 . S
H2652 C2682 0.950 . S
H2653 C2683 0.950 . S
C2654 H2636 0.951 . S
C2654 C2655 1.366 . S
C2654 C2656 1.388 . S
C2655 C2654 1.366 . S
C2655 C2659 1.344 1_554 S
C2656 H2637 0.951 . S
C2656 C2654 1.388 . S
C2656 C2657 1.346 1_554 S
C2657 C2656 1.346 1_556 S
C2657 C2658 1.424 . S
C2657 C2660 1.509 . S
C2658 H2638 0.950 . S
C2658 C2657 1.424 . S
C2658 C2659 1.394 . S
C2659 H2639 0.971 . S
C2659 C2655 1.344 1_556 S
C2659 C2658 1.394 . S
C2660 C2657 1.509 . S
C2660 C2661 1.373 . S
C2660 C2662 1.389 . S
C2661 H2640 0.950 . S
C2661 C2660 1.373 . S
C2661 C2677 1.377 . S
C2662 C2660 1.389 . S
C2662 C2663 1.504 1_556 S
C2662 C2676 1.377 . S
C2663 C2662 1.504 1_554 S
C2663 C2664 1.383 1_554 S
C2663 C2668 1.394 . S
C2664 H2641 0.950 . S
C2664 C2663 1.383 1_556 S
C2664 C2665 1.334 1_556 S
C2665 H2642 0.950 1_554 S
C2665 C2664 1.334 1_554 S
C2665 C2666 1.287 . S
C2666 C2665 1.287 . S
C2666 C2667 1.524 . S
C2666 H2685 0.913 . S
C2667 H2643 0.950 . S
C2667 C2666 1.524 . S
C2667 C2668 1.415 . S
C2668 H2644 0.950 . S
C2668 C2663 1.394 . S
C2668 C2667 1.415 . S
C2669 H2645 0.951 . S
C2669 C2670 1.366 . S
C2669 C2671 1.388 . S
C2670 C2669 1.366 . S
C2670 C2674 1.385 . S
C2671 H2646 0.951 . S
C2671 C2669 1.388 . S
C2671 C2672 1.366 . S
C2672 C2671 1.366 . S
C2672 C2673 1.414 . S
C2672 C2675 1.499 . S
C2673 H2647 0.950 . S
C2673 C2672 1.414 . S
C2673 C2674 1.374 . S
C2674 H2648 0.950 . S
C2674 C2670 1.385 . S
C2674 C2673 1.374 . S
C2675 C2672 1.499 . S
C2675 C2676 1.373 . S
C2675 C2677 1.389 . S
C2676 H2649 0.950 . S
C2676 C2662 1.377 . S
C2676 C2675 1.373 . S
C2677 C2661 1.377 . S
C2677 C2675 1.389 . S
C2677 C2678 1.524 . S
C2678 C2677 1.524 . S
C2678 C2679 1.397 . S
C2678 C2683 1.363 . S
C2679 H2650 0.950 . S
C2679 C2678 1.397 . S
C2679 C2680 1.334 . S
C2680 H2651 0.950 . S
C2680 C2679 1.334 . S
C2680 C2681 1.287 . S
C2681 C2680 1.287 . S
C2681 C2682 1.524 . S
C2681 H2684 0.999 . S
C2682 H2652 0.950 . S
C2682 C2681 1.524 . S
C2682 C2683 1.415 . S
C2683 H2653 0.950 . S
C2683 C2678 1.363 . S
C2683 C2682 1.415 . S
H2684 C2681 0.999 . S
H2685 C2666 0.913 . S
H2686 C2704 0.951 . S
H2687 C2706 0.951 . S
H2688 C2708 0.950 . S
H2689 C2709 0.950 . S
H2690 C2711 0.950 . S
H2691 C2714 0.950 . S
H2692 C2715 0.950 . S
H2693 C2717 0.950 . S
H2694 C2718 0.950 . S
H2695 C2719 0.951 . S
H2696 C2721 0.951 . S
H2697 C2723 0.950 . S
H2698 C2724 0.950 . S
H2699 C2726 0.950 . S
H2700 C2729 0.950 . S
H2701 C2730 0.950 . S
H2702 C2732 0.950 . S
H2703 C2733 0.950 . S
C2704 H2686 0.951 . S
C2704 C2705 1.366 . S
C2704 C2706 1.388 . S
C2705 C2704 1.366 . S
C2705 C2709 1.385 . S
C2706 H2687 0.951 . S
C2706 C2704 1.388 . S
C2706 C2707 1.366 . S
C2707 C2706 1.366 . S
C2707 C2708 1.414 . S
C2707 C2710 1.499 . S
C2708 H2688 0.950 . S
C2708 C2707 1.414 . S
C2708 C2709 1.374 . S
C2709 H2689 0.950 . S
C2709 C2705 1.385 . S
C2709 C2708 1.374 . S
C2710 C2707 1.499 . S
C2710 C2711 1.373 . S
C2710 C2712 1.389 . S
C2711 H2690 0.950 . S
C2711 C2710 1.373 . S
C2711 C2727 1.377 . S
C2712 C2710 1.389 . S
C2712 C2713 1.524 . S
C2712 C2726 1.377 . S
C2713 C2712 1.524 . S
C2713 C2714 1.397 . S
C2713 C2718 1.363 . S
C2714 H2691 0.950 . S
C2714 C2713 1.397 . S
C2714 C2715 1.334 . S
C2715 H2692 0.950 . S
C2715 C2714 1.334 . S
C2715 C2716 1.287 . S
C2716 C2715 1.287 . S
C2716 C2717 1.524 . S
C2716 H2735 0.913 . S
C2717 H2693 0.950 . S
C2717 C2716 1.524 . S
C2717 C2718 1.415 . S
C2718 H2694 0.950 . S
C2718 C2713 1.363 . S
C2718 C2717 1.415 . S
C2719 H2695 0.951 . S
C2719 C2720 1.366 . S
C2719 C2721 1.388 1_455 S
C2720 C2719 1.366 . S
C2720 C2724 1.385 . S
C2721 H2696 0.951 . S
C2721 C2719 1.388 1_655 S
C2721 C2722 1.366 . S
C2722 C2721 1.366 . S
C2722 C2723 1.414 1_655 S
C2722 C2725 1.499 . S
C2723 H2697 0.950 . S
C2723 C2722 1.414 1_455 S
C2723 C2724 1.374 . S
C2724 H2698 0.950 . S
C2724 C2720 1.385 . S
C2724 C2723 1.374 . S
C2725 C2722 1.499 . S
C2725 C2726 1.373 . S
C2725 C2727 1.389 . S
C2726 H2699 0.950 . S
C2726 C2712 1.377 . S
C2726 C2725 1.373 . S
C2727 C2711 1.377 . S
C2727 C2725 1.389 . S
C2727 C2728 1.524 . S
C2728 C2727 1.524 . S
C2728 C2729 1.397 . S
C2728 C2733 1.363 . S
C2729 H2700 0.950 . S
C2729 C2728 1.397 . S
C2729 C2730 1.334 . S
C2730 H2701 0.950 . S
C2730 C2729 1.334 . S
C2730 C2731 1.287 . S
C2731 C2730 1.287 . S
C2731 C2732 1.524 . S
C2731 H2734 0.999 . S
C2732 H2702 0.950 . S
C2732 C2731 1.524 . S
C2732 C2733 1.415 . S
C2733 H2703 0.950 . S
C2733 C2728 1.363 . S
C2733 C2732 1.415 . S
H2734 C2731 0.999 . S
H2735 C2716 0.913 . S
C355 C134 1.041 . S
C370 C8 1.041 . S
C405 C22 1.042 . S
C420 C148 1.042 . S
C455 C36 1.042 . S
C470 C162 1.042 . S
C505 C50 1.042 . S
C520 C120 1.042 . S
C555 C64 1.041 . S
C570 C218 1.041 . S
C605 C176 1.041 . S
C620 C78 1.041 . S
C655 C92 1.041 . S
C670 C190 1.041 . S
C705 C204 1.042 . S
C720 C106 1.041 . S
C755 C232 1.042 . S
C770 C260 1.042 . S
C805 C316 1.041 . S
C820 C246 1.041 . S
C855 C274 1.042 . S
C870 C330 1.041 . S
C905 C302 1.042 . S
C920 C288 1.041 . S
C955 C287 1.694 . S
C970 C7 1.695 . S
C1005 C21 1.694 . S
C1020 C245 1.695 . S
C1055 C35 1.694 . S
C1070 C259 1.694 . S
C1105 C49 1.694 . S
C1120 C273 1.694 . S
C1155 C63 1.694 . S
C1170 C329 1.695 . S
C1205 C301 1.695 . S
C1220 C77 1.694 . S
C1255 C315 1.695 . S
C1270 C91 1.694 . S
C1305 C231 1.694 . S
C1320 C105 1.695 . S
C1355 C217 1.693 . S
C1370 C119 1.695 . S
C1405 C133 1.694 . S
C1420 C175 1.694 . S
C1455 C189 1.694 . S
C1470 C147 1.695 . S
C1505 C203 1.695 . S
C1520 C161 1.694 . S
C1555 C9 0.878 . S
C1570 C227 0.924 . S
C1605 C325 0.924 . S
C1620 C23 0.880 . S
C1655 C297 0.924 . S
C1670 C37 0.879 . S
C1705 C51 0.878 . S
C1720 C311 0.924 . S
C1755 C65 0.878 . S
C1770 C241 0.924 . S
C1805 C255 0.923 . S
C1820 C79 0.881 . S
C1855 C269 0.924 . S
C1870 C93 0.879 . S
C1905 C283 0.924 . S
C1920 C107 0.878 . S
C1955 C3 0.924 . S
C1970 C121 0.881 . S
C2005 C17 0.924 . S
C2020 C135 0.878 . S
C2055 C31 0.924 . S
C2070 C149 0.880 . S
C2105 C45 0.924 . S
C2120 C163 0.878 . S
C2155 C59 0.924 . S
C2170 C177 0.881 . S
C2205 C73 0.923 . S
C2220 C191 0.880 . S
C2255 C205 0.878 . S
C2270 C87 0.924 . S
C2305 C101 0.924 . S
C2320 C219 0.880 . S
C2355 C115 0.924 . S
C2370 C233 0.878 . S
C2405 C247 0.878 . S
C2420 C171 0.924 . S
C2455 C185 0.924 . S
C2470 C261 0.880 . S
C2505 C275 0.880 . S
C2520 C199 0.923 . S
C2555 C289 0.878 . S
C2570 C213 0.924 . S
C2605 C303 0.878 . S
C2620 C143 0.924 . S
C2655 C157 0.924 . S
C2670 C317 0.879 . S
C2705 C331 0.880 . S
C2720 C129 0.924 . S
