# Generated by pormake.
# Topology ukh, (4)-cn, num edge types: 1
# Building blocks:
#     Node 0, Type 0, BuildingBlock: QUQFOY_clean_sbu_1, # of connection points: 4
#     Node 1, Type 0, BuildingBlock: QUQFOY_clean_sbu_1, # of connection points: 4
#     Node 2, Type 0, BuildingBlock: QUQFOY_clean_sbu_1, # of connection points: 4
#     Node 3, Type 0, BuildingBlock: QUQFOY_clean_sbu_1, # of connection points: 4
#     Node 4, Type 0, BuildingBlock: QUQFOY_clean_sbu_1, # of connection points: 4
#     Node 5, Type 0, BuildingBlock: QUQFOY_clean_sbu_1, # of connection points: 4
#     Node 6, Type 0, BuildingBlock: QUQFOY_clean_sbu_1, # of connection points: 4
#     Node 7, Type 0, BuildingBlock: QUQFOY_clean_sbu_1, # of connection points: 4
#     Node 8, Type 0, BuildingBlock: QUQFOY_clean_sbu_1, # of connection points: 4
#     Node 9, Type 0, BuildingBlock: QUQFOY_clean_sbu_1, # of connection points: 4
#     Node 10, Type 0, BuildingBlock: QUQFOY_clean_sbu_1, # of connection points: 4
#     Node 11, Type 0, BuildingBlock: QUQFOY_clean_sbu_1, # of connection points: 4
#     Edge 12, Type (0, 0), BuildingBlock: CIFDUS_clean_linker_0, # of connection points: 2
#     Edge 13, Type (0, 0), BuildingBlock: CIFDUS_clean_linker_0, # of connection points: 2
#     Edge 14, Type (0, 0), BuildingBlock: CIFDUS_clean_linker_0, # of connection points: 2
#     Edge 15, Type (0, 0), BuildingBlock: CIFDUS_clean_linker_0, # of connection points: 2
#     Edge 16, Type (0, 0), BuildingBlock: CIFDUS_clean_linker_0, # of connection points: 2
#     Edge 17, Type (0, 0), BuildingBlock: CIFDUS_clean_linker_0, # of connection points: 2
#     Edge 18, Type (0, 0), BuildingBlock: CIFDUS_clean_linker_0, # of connection points: 2
#     Edge 19, Type (0, 0), BuildingBlock: CIFDUS_clean_linker_0, # of connection points: 2
#     Edge 20, Type (0, 0), BuildingBlock: CIFDUS_clean_linker_0, # of connection points: 2
#     Edge 21, Type (0, 0), BuildingBlock: CIFDUS_clean_linker_0, # of connection points: 2
#     Edge 22, Type (0, 0), BuildingBlock: CIFDUS_clean_linker_0, # of connection points: 2
#     Edge 23, Type (0, 0), BuildingBlock: CIFDUS_clean_linker_0, # of connection points: 2
#     Edge 24, Type (0, 0), BuildingBlock: CIFDUS_clean_linker_0, # of connection points: 2
#     Edge 25, Type (0, 0), BuildingBlock: CIFDUS_clean_linker_0, # of connection points: 2
#     Edge 26, Type (0, 0), BuildingBlock: CIFDUS_clean_linker_0, # of connection points: 2
#     Edge 27, Type (0, 0), BuildingBlock: CIFDUS_clean_linker_0, # of connection points: 2
#     Edge 28, Type (0, 0), BuildingBlock: CIFDUS_clean_linker_0, # of connection points: 2
#     Edge 29, Type (0, 0), BuildingBlock: CIFDUS_clean_linker_0, # of connection points: 2
#     Edge 30, Type (0, 0), BuildingBlock: CIFDUS_clean_linker_0, # of connection points: 2
#     Edge 31, Type (0, 0), BuildingBlock: CIFDUS_clean_linker_0, # of connection points: 2
#     Edge 32, Type (0, 0), BuildingBlock: CIFDUS_clean_linker_0, # of connection points: 2
#     Edge 33, Type (0, 0), BuildingBlock: CIFDUS_clean_linker_0, # of connection points: 2
#     Edge 34, Type (0, 0), BuildingBlock: CIFDUS_clean_linker_0, # of connection points: 2
#     Edge 35, Type (0, 0), BuildingBlock: CIFDUS_clean_linker_0, # of connection points: 2
# Relax obj value: 0.062
# Max RMSD: 0.077
# Mean RMSD: 0.077
data_MOF--net-ukh--node1-QUQFOY_clean_sbu_1--edge1-CIFDUS_clean_linker_0
_symmetry_space_group_name_H-M    P1
_symmetry_Int_Tables_number       1
_symmetry_cell_setting            triclinic
loop_
_symmetry_equiv_pos_as_xyz
'x, y, z'
_cell_length_a     28.891894
_cell_length_b     28.638601
_cell_length_c     59.089811
_cell_angle_alpha  89.98404
_cell_angle_beta   90.145878
_cell_angle_gamma 119.70728
loop_
_atom_site_label
_atom_site_type_symbol
_atom_site_fract_x
_atom_site_fract_y
_atom_site_fract_z
_atom_type_partial_charge
O0 O 0.32017 0.14862 0.0469 0.0
Cd1 Cd 0.31709 0.21248 0.06141 0.0
Cd2 Cd 0.38044 0.26004 0.025 0.0
O3 O 0.38428 0.18969 0.02179 0.0
O4 O 0.27267 0.17733 0.08857 0.0
O5 O 0.3571 0.2405 0.09105 0.0
C6 C 0.31381 0.20588 0.10098 0.0
C7 C 0.44987 0.34921 0.02637 0.0
C8 C 0.35096 0.14696 0.032 0.0
C9 C 0.27363 0.25054 0.02409 0.0
O10 O 0.31211 0.25482 0.01225 0.0
O11 O 0.27147 0.24013 0.04512 0.0
O12 O 0.43879 0.32092 0.00808 0.0
O13 O 0.42467 0.32512 0.04462 0.0
O14 O 0.18916 0.32166 0.38332 0.0
Cd15 Cd 0.1251 0.31857 0.40003 0.0
Cd16 Cd 0.12986 0.37406 0.36082 0.0
O17 O 0.20321 0.37863 0.35552 0.0
O18 O 0.12173 0.27455 0.42671 0.0
O19 O 0.14092 0.35898 0.4299 0.0
C20 C 0.13473 0.31567 0.43939 0.0
C21 C 0.10972 0.44385 0.36082 0.0
C22 C 0.21676 0.34907 0.36657 0.0
C23 C 0.03507 0.26636 0.36638 0.0
O24 O 0.06502 0.30182 0.35225 0.0
O25 O 0.04928 0.26968 0.38698 0.0
O26 O 0.12207 0.42824 0.34243 0.0
O27 O 0.11347 0.42296 0.37967 0.0
O28 O 0.89713 0.19079 0.7199 0.0
Cd29 Cd 0.83568 0.12609 0.73609 0.0
Cd30 Cd 0.78792 0.13027 0.69676 0.0
O31 O 0.85542 0.20467 0.69164 0.0
O32 O 0.87218 0.1278 0.76496 0.0
O33 O 0.80381 0.14188 0.76362 0.0
C34 C 0.84068 0.14014 0.77537 0.0
C35 C 0.69873 0.10929 0.69523 0.0
C36 C 0.89777 0.21861 0.70303 0.0
C37 C 0.80294 0.0357 0.70303 0.0
O38 O 0.79689 0.06553 0.68884 0.0
O39 O 0.81271 0.04974 0.72371 0.0
O40 O 0.72781 0.12189 0.67726 0.0
O41 O 0.72168 0.11305 0.71451 0.0
O42 O 0.72288 0.87325 0.05075 0.0
Cd43 Cd 0.73188 0.81565 0.06807 0.0
Cd44 Cd 0.67505 0.76071 0.03024 0.0
O45 O 0.66629 0.82711 0.0234 0.0
O46 O 0.7758 0.85943 0.0941 0.0
O47 O 0.6941 0.79169 0.09836 0.0
C48 C 0.73644 0.83078 0.10725 0.0
C49 C 0.60976 0.67086 0.03497 0.0
C50 C 0.69419 0.87114 0.03401 0.0
C51 C 0.7847 0.77818 0.03449 0.0
O52 O 0.74706 0.76927 0.02096 0.0
O53 O 0.78309 0.79118 0.05494 0.0
O54 O 0.62127 0.69288 0.01517 0.0
O55 O 0.63198 0.70136 0.05238 0.0
O56 O 0.8778 0.73448 0.38777 0.0
Cd57 Cd 0.94369 0.73936 0.40377 0.0
Cd58 Cd 0.93591 0.68122 0.36592 0.0
O59 O 0.86197 0.67534 0.36066 0.0
O60 O 0.94834 0.78248 0.431 0.0
O61 O 0.93051 0.69831 0.4333 0.0
C62 C 0.93675 0.74112 0.4433 0.0
C63 C 0.95776 0.61346 0.3706 0.0
C64 C 0.84901 0.70561 0.37148 0.0
C65 C 0.03037 0.78978 0.36886 0.0
O66 O 0.99949 0.75236 0.35559 0.0
O67 O 1.01813 0.78868 0.3896 0.0
O68 O 0.94573 0.62422 0.35092 0.0
O69 O 0.95252 0.63791 0.38799 0.0
O70 O 0.17497 0.8601 0.71008 0.0
Cd71 Cd 0.22969 0.92257 0.72992 0.0
Cd72 Cd 0.29046 0.9296 0.69402 0.0
O73 O 0.22707 0.85628 0.68378 0.0
O74 O 0.18725 0.91285 0.75778 0.0
O75 O 0.25918 0.90454 0.75767 0.0
C76 C 0.21939 0.90197 0.76864 0.0
C77 C 0.37951 0.95297 0.69942 0.0
C78 C 0.18113 0.83776 0.69265 0.0
C79 C 0.26744 1.01921 0.70026 0.0
O80 O 0.28147 0.99449 0.68654 0.0
O81 O 0.25054 1.00005 0.71987 0.0
O82 O 0.35919 0.94635 0.67939 0.0
O83 O 0.34785 0.94166 0.71654 0.0
O84 O 0.89369 0.72044 0.6304 0.0
Cd85 Cd 0.83779 0.7278 0.61125 0.0
Cd86 Cd 0.77813 0.67334 0.64841 0.0
O87 O 0.84298 0.66419 0.65693 0.0
O88 O 0.87918 0.76131 0.58321 0.0
O89 O 0.80764 0.68084 0.58337 0.0
C90 C 0.84692 0.71845 0.5723 0.0
C91 C 0.6881 0.6064 0.64934 0.0
C92 C 0.88845 0.69181 0.64768 0.0
C93 C 0.80108 0.78627 0.64182 0.0
O94 O 0.78805 0.74776 0.65559 0.0
O95 O 0.81682 0.78386 0.62198 0.0
O96 O 0.71613 0.62416 0.66759 0.0
O97 O 0.71237 0.62362 0.63023 0.0
O98 O 0.18252 0.87332 0.95313 0.0
Cd99 Cd 0.11638 0.81518 0.93614 0.0
Cd100 Cd 0.11957 0.76113 0.97397 0.0
O101 O 0.194 0.82731 0.98043 0.0
O102 O 0.11487 0.8571 0.90953 0.0
O103 O 0.12971 0.78891 0.90623 0.0
C104 C 0.1255 0.82729 0.89681 0.0
C105 C 0.09561 0.67098 0.96945 0.0
C106 C 0.20939 0.87125 0.96978 0.0
C107 C 1.0274 0.77893 0.96996 0.0
O108 O 0.05651 0.77036 0.98348 0.0
O109 O 0.04142 0.79135 0.94946 0.0
O110 O 0.10652 0.69347 0.98918 0.0
O111 O 0.10322 0.70116 0.95196 0.0
O112 O 0.32831 0.18608 0.2862 0.0
Cd113 Cd 0.32398 0.121 0.26934 0.0
Cd114 Cd 0.37884 0.12452 0.30701 0.0
O115 O 0.38498 0.19873 0.31378 0.0
O116 O 0.28959 0.12424 0.2406 0.0
O117 O 0.37106 0.13621 0.2418 0.0
C118 C 0.33295 0.1357 0.23015 0.0
C119 C 0.44579 0.10201 0.30295 0.0
C120 C 0.35592 0.21326 0.30305 0.0
C121 C 0.26962 0.03059 0.30224 0.0
O122 O 0.30721 0.05975 0.31574 0.0
O123 O 0.27113 0.04494 0.28174 0.0
O124 O 0.43327 0.11219 0.3226 0.0
O125 O 0.42364 0.10962 0.28533 0.0
O126 O 0.17133 0.32912 0.62384 0.0
Cd127 Cd 0.23221 0.32549 0.60727 0.0
Cd128 Cd 0.28058 0.37683 0.6456 0.0
O129 O 0.21408 0.38466 0.65197 0.0
O130 O 0.19535 0.29105 0.57846 0.0
O131 O 0.26381 0.37345 0.57982 0.0
C132 C 0.22683 0.33495 0.56808 0.0
C133 C 0.36927 0.44317 0.6409 0.0
C134 C 0.17132 0.35637 0.64081 0.0
C135 C 0.26564 0.26766 0.63988 0.0
O136 O 0.27219 0.30367 0.65407 0.0
O137 O 0.25521 0.27181 0.61929 0.0
O138 O 0.34755 0.43137 0.66071 0.0
O139 O 0.33904 0.42058 0.62349 0.0
O140 O 0.86424 0.14924 0.95833 0.0
Cd141 Cd 0.93071 0.21325 0.94434 0.0
Cd142 Cd 0.91363 0.25989 0.98066 0.0
O143 O 0.83985 0.19031 0.98319 0.0
O144 O 0.941 0.17875 0.91702 0.0
O145 O 0.91906 0.24228 0.91484 0.0
C146 C 0.92826 0.20775 0.90475 0.0
C147 C 0.93378 0.34957 0.9789 0.0
C148 C 0.83122 0.14764 0.9729 0.0
C149 C 1.01038 0.2496 0.98209 0.0
O150 O 0.97565 0.25322 0.99387 0.0
O151 O 1.00308 0.24035 0.96095 0.0
O152 O 0.91591 0.32163 0.99721 0.0
O153 O 0.93533 0.32489 0.96082 0.0
O154 O 0.72989 0.86364 0.29126 0.0
Cd155 Cd 0.73045 0.92674 0.27424 0.0
Cd156 Cd 0.67982 0.92501 0.31314 0.0
O157 O 0.67561 0.85151 0.31963 0.0
O158 O 0.76398 0.92341 0.24539 0.0
O159 O 0.6815 0.90845 0.24701 0.0
C160 C 0.71973 0.90992 0.2352 0.0
C161 C 0.61102 0.9458 0.31328 0.0
C162 C 0.7042 0.83711 0.30853 0.0
C163 C 0.78736 1.01959 0.30596 0.0
O164 O 0.75218 0.99083 0.32036 0.0
O165 O 0.78307 1.00397 0.28552 0.0
O166 O 0.62767 0.93478 0.33174 0.0
O167 O 0.63028 0.94028 0.29437 0.0
H168 H 0.58928 0.59575 1.00279 0.0
H169 H 0.55748 0.61261 0.07267 0.0
H170 H 0.50739 0.51451 0.07672 0.0
H171 H 0.47188 0.42353 0.06007 0.0
H172 H 0.50782 0.40872 0.99044 0.0
H173 H 0.55767 0.50615 0.98681 0.0
C174 C 0.57096 0.57804 0.01887 0.0
C175 C 0.57645 0.61155 0.03731 0.0
C176 C 0.54351 0.52179 0.02121 0.0
C177 C 0.55345 0.58779 0.05815 0.0
C178 C 0.52502 0.53166 0.06049 0.0
C179 C 0.4912 0.44162 0.0442 0.0
C180 C 0.48593 0.40849 0.02556 0.0
C181 C 0.51989 0.49817 0.04214 0.0
C182 C 0.51111 0.43288 0.0051 0.0
C183 C 0.53947 0.48877 1.00294 0.0
H184 H 0.06582 0.47353 0.39523 0.0
H185 H 0.10057 0.49517 0.32373 0.0
H186 H 0.05439 0.54655 0.32038 0.0
H187 H 1.00268 0.58414 0.33731 0.0
H188 H 0.9697 0.56605 0.40889 0.0
H189 H 1.01587 0.51406 0.41255 0.0
C190 C 0.06384 0.49003 0.37897 0.0
C191 C 0.08687 0.48039 0.35978 0.0
C192 C 0.03676 0.51955 0.37708 0.0
C193 C 0.08347 0.50189 0.33883 0.0
C194 C 0.05674 0.53112 0.33684 0.0
C195 C 1.00504 0.56837 0.3537 0.0
C196 C 0.98207 0.57843 0.37274 0.0
C197 C 0.03273 0.5397 0.35576 0.0
C198 C 0.98658 0.55855 0.39391 0.0
C199 C 1.01324 0.52903 0.39603 0.0
H200 H 0.45614 1.00414 0.66776 0.0
H201 H 0.4348 0.95949 0.73827 0.0
H202 H 0.53165 1.00627 0.74364 0.0
H203 H 0.62281 0.05991 0.7281 0.0
H204 H 0.64237 0.10535 0.65761 0.0
H205 H 0.54603 0.05905 0.6526 0.0
C206 C 0.47256 1.00413 0.68429 0.0
C207 C 0.43811 0.97774 0.70252 0.0
C208 C 0.52815 0.03197 0.68734 0.0
C209 C 0.46031 0.97907 0.72389 0.0
C210 C 0.51573 1.00607 0.72699 0.0
C211 C 0.60598 0.06025 0.71172 0.0
C212 C 0.64006 0.08631 0.69328 0.0
C213 C 0.55012 0.03293 0.70885 0.0
C214 C 0.61736 0.08583 0.67213 0.0
C215 C 0.56213 0.05907 0.6692 0.0
H216 H 0.61424 0.57699 0.61518 0.0
H217 H 0.62929 0.55841 0.68689 0.0
H218 H 0.5327 0.50923 0.69066 0.0
H219 H 0.44382 0.47257 0.674 0.0
H220 H 0.42695 0.48834 0.60229 0.0
H221 H 0.52409 0.53804 0.59821 0.0
C222 C 0.59637 0.56163 0.63158 0.0
C223 C 0.62925 0.57141 0.65071 0.0
C224 C 0.54036 0.53353 0.63372 0.0
C225 C 0.60522 0.55153 0.67185 0.0
C226 C 0.54984 0.52355 0.67407 0.0
C227 C 0.46128 0.48733 0.65748 0.0
C228 C 0.428 0.47721 0.63852 0.0
C229 C 0.51703 0.51481 0.6552 0.0
C230 C 0.45154 0.4959 0.61721 0.0
C231 C 0.50713 0.52409 0.61485 0.0
H232 H 0.98612 0.42283 0.94507 0.0
H233 H 0.93578 0.41053 0.01461 0.0
H234 H 0.98354 0.50805 0.01799 0.0
H235 H 0.04142 0.59699 1.00181 0.0
H236 H 0.0895 0.61143 0.93197 0.0
H237 H 0.04153 0.51321 0.92821 0.0
C238 C 0.98503 0.4415 0.96087 0.0
C239 C 0.95722 0.40904 0.97955 0.0
C240 C 1.01296 0.4981 0.96278 0.0
C241 C 0.9566 0.43417 0.99992 0.0
C242 C 0.98424 0.49011 1.00194 0.0
C243 C 0.04193 0.57872 0.9858 0.0
C244 C 0.06977 0.61157 0.9673 0.0
C245 C 1.01311 0.52243 0.98361 0.0
C246 C 0.06885 0.58711 0.94655 0.0
C247 C 0.04118 0.53092 0.94437 0.0
H248 H 0.47336 0.05532 0.33634 0.0
H249 H 0.49359 0.09046 0.2649 0.0
H250 H 0.54418 0.04294 0.2614 0.0
H251 H 0.58286 0.99117 0.27881 0.0
H252 H 0.55981 0.95488 0.3502 0.0
H253 H 0.50953 1.00218 0.35339 0.0
C254 C 0.48928 0.05314 0.32002 0.0
C255 C 0.48017 0.07708 0.30096 0.0
C256 C 0.51726 0.02476 0.31805 0.0
C257 C 0.50033 0.07284 0.27989 0.0
C258 C 0.52904 0.04539 0.27786 0.0
C259 C 0.56627 0.99303 0.29501 0.0
C260 C 0.57515 0.96923 0.31422 0.0
C261 C 0.53754 1.02089 0.29682 0.0
C262 C 0.55365 0.97257 0.3351 0.0
C263 C 0.52504 0.99993 0.33699 0.0
H264 H 0.25703 0.13166 0.20207 0.0
H265 H 0.42278 0.17459 0.20383 0.0
H266 H 0.43291 0.2044 0.16437 0.0
H267 H 0.39382 0.2172 0.12909 0.0
H268 H 0.22706 0.17032 0.12774 0.0
H269 H 0.21843 0.14408 0.16745 0.0
C270 C 0.29543 0.14738 0.19385 0.0
C271 C 0.33904 0.15074 0.20589 0.0
C272 C 0.3009 0.16435 0.17128 0.0
C273 C 0.38845 0.17123 0.19492 0.0
C274 C 0.39433 0.18857 0.17239 0.0
C275 C 0.35589 0.20199 0.13765 0.0
C276 C 0.31121 0.19608 0.1256 0.0
C277 C 0.35082 0.18545 0.1604 0.0
C278 C 0.26201 0.17535 0.1367 0.0
C279 C 0.25699 0.16013 0.15937 0.0
H280 H 0.20233 0.39682 0.46753 0.0
H281 H 0.08886 0.22694 0.46565 0.0
H282 H 0.10834 0.21805 0.50505 0.0
H283 H 0.15836 0.25752 0.53968 0.0
H284 H 0.27459 0.42652 0.54213 0.0
H285 H 0.25399 0.43667 0.50277 0.0
C286 C 0.18151 0.3581 0.4759 0.0
C287 C 0.14393 0.31266 0.46379 0.0
C288 C 0.19395 0.35295 0.49851 0.0
C289 C 0.11787 0.26249 0.47465 0.0
C290 C 0.1291 0.25732 0.49715 0.0
C291 C 0.17943 0.29663 0.53164 0.0
C292 C 0.21799 0.34118 0.54383 0.0
C293 C 0.16736 0.3021 0.50915 0.0
C294 C 0.24494 0.39149 0.53308 0.0
C295 C 0.23293 0.39737 0.51062 0.0
H296 H 0.91183 0.13466 0.80343 0.0
H297 H 0.78978 0.17971 0.80182 0.0
H298 H 0.80897 0.20892 0.84138 0.0
H299 H 0.86022 0.22057 0.87669 0.0
H300 H 0.97952 0.17176 0.87784 0.0
H301 H 0.96233 0.14609 0.83805 0.0
C302 C 0.8892 0.1507 0.81169 0.0
C303 C 0.8493 0.15482 0.79967 0.0
C304 C 0.90047 0.16738 0.83431 0.0
C305 C 0.82047 0.17576 0.81071 0.0
C306 C 0.83166 0.19275 0.8333 0.0
C307 C 0.88292 0.20508 0.86807 0.0
C308 C 0.92139 0.19844 0.88009 0.0
C309 C 0.87172 0.18889 0.84526 0.0
C310 C 0.94983 0.17736 0.8689 0.0
C311 C 0.93987 0.16245 0.84619 0.0
H312 H 0.65614 0.8166 0.13573 0.0
H313 H 0.82579 0.87778 0.13278 0.0
H314 H 0.83542 0.9086 0.17184 0.0
H315 H 0.79653 0.91978 0.20647 0.0
H316 H 0.62762 0.86238 0.20992 0.0
H317 H 0.61687 0.82929 0.17092 0.0
C318 C 0.695 0.83608 0.1438 0.0
C319 C 0.74015 0.84455 0.1315 0.0
C320 C 0.70051 0.85509 0.16619 0.0
C321 C 0.79047 0.87073 0.14195 0.0
C322 C 0.79605 0.88853 0.16425 0.0
C323 C 0.75729 0.90022 0.19872 0.0
C324 C 0.71296 0.89358 0.2111 0.0
C325 C 0.75149 0.88137 0.17644 0.0
C326 C 0.66249 0.86829 0.20071 0.0
C327 C 0.65628 0.84906 0.17847 0.0
H328 H 0.91822 0.79575 0.5447 0.0
H329 H 0.79781 0.62805 0.54562 0.0
H330 H 0.81771 0.61885 0.50611 0.0
H331 H 0.86901 0.65942 0.47099 0.0
H332 H 0.98585 0.82831 0.47041 0.0
H333 H 0.96831 0.83588 0.5102 0.0
C334 C 0.8962 0.7571 0.5363 0.0
C335 C 0.85655 0.71267 0.54811 0.0
C336 C 0.90764 0.75225 0.51367 0.0
C337 C 0.82834 0.66299 0.53689 0.0
C338 C 0.8399 0.65766 0.51433 0.0
C339 C 0.89103 0.69759 0.47973 0.0
C340 C 0.92897 0.74317 0.46788 0.0
C341 C 0.87956 0.70205 0.50253 0.0
C342 C 0.95656 0.79268 0.47922 0.0
C343 C 0.94643 0.79709 0.50194 0.0
H344 H 0.19329 0.81397 0.86894 0.0
H345 H 0.07849 0.86865 0.87027 0.0
H346 H 0.09749 0.89637 0.83079 0.0
H347 H 0.1482 0.90767 0.79637 0.0
H348 H 0.26681 0.85799 0.79476 0.0
H349 H 0.24546 0.82638 0.83394 0.0
C350 C 0.17205 0.8313 0.86041 0.0
C351 C 0.13423 0.83889 0.87237 0.0
C352 C 0.18439 0.84873 0.83782 0.0
C353 C 0.10766 0.86233 0.86136 0.0
C354 C 0.11862 0.87834 0.83883 0.0
C355 C 0.16951 0.88998 0.80455 0.0
C356 C 0.20905 0.88521 0.79266 0.0
C357 C 0.15728 0.8723 0.82699 0.0
C358 C 0.23639 0.8624 0.80359 0.0
C359 C 0.22399 0.84407 0.82594 0.0
H360 H 0.24116 0.90036 0.01342 0.0
H361 H 0.27641 0.95829 0.94478 0.0
H362 H 0.33364 0.0499 0.95842 0.0
H363 H 0.35981 0.11519 0.98959 0.0
H364 H 0.31747 0.0578 0.05803 0.0
H365 H 0.27814 0.96496 0.04492 0.0
C366 C 0.26282 0.93279 1.00149 0.0
C367 C 0.25432 0.9226 0.97814 0.0
C368 C 0.29393 0.98589 0.00947 0.0
C369 C 0.2821 0.96518 0.96286 0.0
C370 C 0.31464 1.01767 0.97065 0.0
C371 C 0.34361 0.08241 1.00168 0.0
C372 C 0.3413 0.09334 0.02472 0.0
C373 C 0.31889 0.02888 0.99389 0.0
C374 C 0.31948 0.05037 0.04017 0.0
C375 C 0.29669 0.99721 0.03267 0.0
H376 H 0.25372 0.35642 0.32351 0.0
H377 H 0.27603 0.31873 0.39192 0.0
H378 H 0.33087 0.28168 0.37835 0.0
H379 H 0.35891 0.24559 0.34669 0.0
H380 H 0.33069 0.27735 0.2782 0.0
H381 H 0.29306 0.3317 0.29204 0.0
C382 C 0.27197 0.34163 0.33548 0.0
C383 C 0.26033 0.33989 0.35866 0.0
C384 C 0.302 0.3185 0.32748 0.0
C385 C 0.28394 0.32011 0.37394 0.0
C386 C 0.31519 0.29867 0.36619 0.0
C387 C 0.34615 0.2659 0.33482 0.0
C388 C 0.34726 0.25711 0.31147 0.0
C389 C 0.32254 0.29548 0.34293 0.0
C390 C 0.32995 0.2832 0.29629 0.0
C391 C 0.30813 0.31409 0.30419 0.0
H392 H 0.928 0.25543 0.66002 0.0
H393 H 0.98592 0.27867 0.72873 0.0
H394 H 0.07736 0.33337 0.7155 0.0
H395 H 0.14148 0.36048 0.68415 0.0
H396 H 0.08349 0.33111 0.6154 0.0
H397 H 0.99214 0.2942 0.62878 0.0
C398 C 0.96049 0.2739 0.67211 0.0
C399 C 0.95018 0.26251 0.69529 0.0
C400 C 1.01334 0.30374 0.66432 0.0
C401 C 0.99283 0.2864 0.71076 0.0
C402 C 0.04523 0.31754 0.7032 0.0
C403 C 0.109 0.34762 0.67211 0.0
C404 C 0.11923 0.34809 0.64885 0.0
C405 C 0.05618 0.32444 0.67997 0.0
C406 C 0.07661 0.33076 0.63343 0.0
C407 C 1.02426 0.30938 0.64107 0.0
H408 H 0.6946 0.9009 0.99023 0.0
H409 H 0.71075 0.95773 0.05891 0.0
H410 H 0.74568 0.04973 0.04544 0.0
H411 H 0.78728 0.11548 0.0147 0.0
H412 H 0.77861 0.05903 0.94635 0.0
H413 H 0.72455 0.9661 0.95893 0.0
C414 C 0.70401 0.93319 1.00217 0.0
C415 C 0.70034 0.92258 0.02551 0.0
C416 C 0.72638 0.9865 0.99432 0.0
C417 C 0.71345 0.96497 0.04083 0.0
C418 C 0.73375 1.01768 0.03315 0.0
C419 C 0.77201 0.08291 1.00248 0.0
C420 C 0.78723 0.09411 0.97967 0.0
C421 C 0.74277 0.02928 0.01 0.0
C422 C 0.7677 0.0514 0.96405 0.0
C423 C 0.73698 0.99817 0.97125 0.0
H424 H 0.70366 0.80588 0.35218 0.0
H425 H 0.73046 0.774 0.28357 0.0
H426 H 0.76971 0.72091 0.29725 0.0
H427 H 0.81053 0.69717 0.32857 0.0
H428 H 0.78975 0.73519 0.39707 0.0
H429 H 0.73356 0.77102 0.38372 0.0
C430 C 0.71653 0.78586 0.34025 0.0
C431 C 0.71449 0.79425 0.31691 0.0
C432 C 0.74103 0.75699 0.34826 0.0
C433 C 0.73192 0.7685 0.30165 0.0
C434 C 0.75464 0.73829 0.30946 0.0
C435 C 0.79231 0.71173 0.34061 0.0
C436 C 0.80468 0.71388 0.36375 0.0
C437 C 0.76156 0.73424 0.33272 0.0
C438 C 0.78119 0.73345 0.37913 0.0
C439 C 0.74919 0.7542 0.3715 0.0
H440 H 0.08547 0.76914 0.7115 0.0
H441 H 0.16751 0.81421 0.64748 0.0
H442 H 0.08251 0.76469 0.62745 0.0
H443 H 0.98464 0.72268 0.62831 0.0
H444 H 0.9027 0.67776 0.69238 0.0
H445 H 0.9878 0.71215 0.71218 0.0
C446 C 0.08484 0.76692 0.69317 0.0
C447 C 0.13269 0.79605 0.68099 0.0
C448 C 0.03574 0.73893 0.68177 0.0
C449 C 0.13134 0.79224 0.65727 0.0
C450 C 0.08263 0.76432 0.64579 0.0
C451 C 0.98532 0.71917 0.64658 0.0
C452 C 0.93741 0.69851 0.65888 0.0
C453 C 0.0345 0.73962 0.65787 0.0
C454 C 0.93889 0.69355 0.68249 0.0
C455 C 0.98765 0.71367 0.69385 0.0
H456 H 0.09823 0.256 0.96214 0.0
H457 H 0.03004 0.25302 0.02744 0.0
H458 H 0.10615 0.25487 0.04621 0.0
H459 H 0.19031 0.25352 0.04416 0.0
H460 H 0.25907 0.25784 0.97885 0.0
H461 H 0.18471 0.25957 0.96013 0.0
C462 C 0.10009 0.25597 0.98047 0.0
C463 C 0.05825 0.25397 0.99331 0.0
C464 C 0.14407 0.25716 0.99122 0.0
C465 C 0.0616 0.25444 0.01708 0.0
C466 C 0.10509 0.25539 0.02788 0.0
C467 C 0.18917 0.25509 0.02584 0.0
C468 C 0.23007 0.25515 0.01298 0.0
C469 C 0.14628 0.25616 0.01512 0.0
C470 C 0.22812 0.25764 0.98923 0.0
C471 C 0.18552 0.25852 0.97846 0.0
H472 H 0.81603 0.05514 0.34905 0.0
H473 H 0.86491 0.09781 0.27959 0.0
H474 H 0.94464 0.17933 0.29221 0.0
H475 H 1.00193 0.23654 0.32299 0.0
H476 H 0.95426 0.19163 0.39242 0.0
H477 H 0.87234 0.11286 0.37969 0.0
C478 C 0.84388 0.08238 0.33661 0.0
C479 C 0.83447 0.07029 0.31339 0.0
C480 C 0.88992 0.12867 0.34398 0.0
C481 C 0.87121 0.10601 0.29757 0.0
C482 C 0.91682 0.15264 0.30477 0.0
C483 C 0.97348 0.20975 0.33536 0.0
C484 C 0.98431 0.21999 0.35863 0.0
C485 C 0.9268 0.16409 0.32794 0.0
C486 C 0.94708 0.18464 0.37441 0.0
C487 C 0.90019 0.13958 0.36715 0.0
H488 H 0.79244 0.8136 0.68491 0.0
H489 H 0.80725 0.86835 0.61583 0.0
H490 H 0.80729 0.94949 0.62874 0.0
H491 H 0.80512 1.00556 0.65965 0.0
H492 H 0.79411 0.95236 0.72881 0.0
H493 H 0.79053 0.86967 0.71578 0.0
C494 C 0.79537 0.84309 0.67262 0.0
C495 C 0.79969 0.83482 0.64941 0.0
C496 C 0.79621 0.88993 0.68018 0.0
C497 C 0.80396 0.87374 0.63378 0.0
C498 C 0.80396 0.92012 0.64115 0.0
C499 C 0.80167 0.97578 0.6719 0.0
C500 C 0.79978 0.98512 0.69519 0.0
C501 C 0.8004 0.92873 0.66431 0.0
C502 C 0.79577 0.94628 0.71081 0.0
C503 C 0.79367 0.89896 0.70337 0.0
H504 H 0.81105 0.77416 0.99076 0.0
H505 H 0.86365 0.77622 0.0594 0.0
H506 H 0.94227 0.77446 0.04539 0.0
H507 H 0.99714 0.7749 0.01372 0.0
H508 H 0.94637 0.77667 0.94508 0.0
H509 H 0.86573 0.77426 0.95909 0.0
C510 C 0.8395 0.77388 1.00268 0.0
C511 C 0.83141 0.77525 0.0261 0.0
C512 C 0.88498 0.77372 0.99452 0.0
C513 C 0.86896 0.77532 0.04129 0.0
C514 C 0.91391 0.77428 0.0333 0.0
C515 C 0.96832 0.77444 1.00179 0.0
C516 C 0.97778 0.77591 0.97837 0.0
C517 C 0.92248 0.77386 0.00996 0.0
C518 C 0.94017 0.77571 0.96319 0.0
C519 C 0.89403 0.77429 0.97118 0.0
H520 H 0.05748 0.81565 0.32474 0.0
H521 H 0.11413 0.86743 0.39287 0.0
H522 H 0.19408 0.94509 0.3781 0.0
H523 H 0.24631 0.9996 0.34604 0.0
H524 H 0.18835 0.9502 0.27788 0.0
H525 H 0.11037 0.87001 0.29254 0.0
C526 C 0.08745 0.84371 0.33638 0.0
C527 C 0.07979 0.83569 0.35989 0.0
C528 C 0.13294 0.88872 0.32778 0.0
C529 C 0.1189 0.87269 0.37471 0.0
C530 C 0.16465 0.91711 0.36627 0.0
C531 C 0.21684 0.97119 0.33432 0.0
C532 C 0.22322 0.98093 0.31087 0.0
C533 C 0.17184 0.92571 0.34286 0.0
C534 C 0.18439 0.94378 0.296 0.0
C535 C 0.1398 0.89792 0.30437 0.0
H536 H 0.27688 0.05625 0.65734 0.0
H537 H 0.26054 0.09429 0.72651 0.0
H538 H 0.26048 0.17559 0.71389 0.0
H539 H 0.263 0.23451 0.68316 0.0
H540 H 0.27522 0.19398 0.61389 0.0
H541 H 0.27902 0.1148 0.62667 0.0
C542 C 0.27364 0.08246 0.6697 0.0
C543 C 0.2689 0.06929 0.69286 0.0
C544 C 0.27273 0.12853 0.66231 0.0
C545 C 0.26417 0.10344 0.7086 0.0
C546 C 0.26415 0.14993 0.70139 0.0
C547 C 0.26678 0.20854 0.67084 0.0
C548 C 0.26895 0.22023 0.64759 0.0
C549 C 0.26811 0.16267 0.67828 0.0
C550 C 0.27334 0.18585 0.63187 0.0
C551 C 0.27557 0.14061 0.63916 0.0
loop_
_geom_bond_atom_site_label_1
_geom_bond_atom_site_label_2
_geom_bond_distance
_geom_bond_site_symmetry_2
_ccdc_geom_bond_type
O0 Cd1 2.223 . S
O0 C8 1.315 . S
Cd1 O0 2.223 . S
Cd1 O4 2.297 . S
Cd1 O5 2.439 . S
Cd1 O11 2.240 . S
Cd2 O3 2.240 . S
Cd2 O10 2.223 . S
Cd2 O12 2.297 . S
Cd2 O13 2.439 . S
O3 Cd2 2.240 . S
O3 C8 1.279 . S
O4 Cd1 2.297 . S
O4 C6 1.247 . S
O5 Cd1 2.439 . S
O5 C6 1.208 . S
C6 O4 1.247 . S
C6 O5 1.208 . S
C7 O12 1.247 . S
C7 O13 1.208 . S
C8 O0 1.315 . S
C8 O3 1.279 . S
C9 O10 1.315 . S
C9 O11 1.279 . S
O10 Cd2 2.223 . S
O10 C9 1.315 . S
O11 Cd1 2.240 . S
O11 C9 1.279 . S
O12 Cd2 2.297 . S
O12 C7 1.247 . S
O13 Cd2 2.439 . S
O13 C7 1.208 . S
O14 Cd15 2.223 . S
O14 C22 1.315 . S
Cd15 O14 2.223 . S
Cd15 O18 2.297 . S
Cd15 O19 2.439 . S
Cd15 O25 2.240 . S
Cd16 O17 2.240 . S
Cd16 O24 2.223 . S
Cd16 O26 2.297 . S
Cd16 O27 2.439 . S
O17 Cd16 2.240 . S
O17 C22 1.279 . S
O18 Cd15 2.297 . S
O18 C20 1.247 . S
O19 Cd15 2.439 . S
O19 C20 1.208 . S
C20 O18 1.247 . S
C20 O19 1.208 . S
C21 O26 1.247 . S
C21 O27 1.208 . S
C22 O14 1.315 . S
C22 O17 1.279 . S
C23 O24 1.315 . S
C23 O25 1.279 . S
O24 Cd16 2.223 . S
O24 C23 1.315 . S
O25 Cd15 2.240 . S
O25 C23 1.279 . S
O26 Cd16 2.297 . S
O26 C21 1.247 . S
O27 Cd16 2.439 . S
O27 C21 1.208 . S
O28 Cd29 2.223 . S
O28 C36 1.315 . S
Cd29 O28 2.223 . S
Cd29 O32 2.297 . S
Cd29 O33 2.439 . S
Cd29 O39 2.240 . S
Cd30 O31 2.240 . S
Cd30 O38 2.223 . S
Cd30 O40 2.297 . S
Cd30 O41 2.439 . S
O31 Cd30 2.240 . S
O31 C36 1.279 . S
O32 Cd29 2.297 . S
O32 C34 1.247 . S
O33 Cd29 2.439 . S
O33 C34 1.208 . S
C34 O32 1.247 . S
C34 O33 1.208 . S
C35 O40 1.247 . S
C35 O41 1.208 . S
C36 O28 1.315 . S
C36 O31 1.279 . S
C37 O38 1.315 . S
C37 O39 1.279 . S
O38 Cd30 2.223 . S
O38 C37 1.315 . S
O39 Cd29 2.240 . S
O39 C37 1.279 . S
O40 Cd30 2.297 . S
O40 C35 1.247 . S
O41 Cd30 2.439 . S
O41 C35 1.208 . S
O42 Cd43 2.223 . S
O42 C50 1.315 . S
Cd43 O42 2.223 . S
Cd43 O46 2.297 . S
Cd43 O47 2.439 . S
Cd43 O53 2.240 . S
Cd44 O45 2.240 . S
Cd44 O52 2.223 . S
Cd44 O54 2.297 . S
Cd44 O55 2.439 . S
O45 Cd44 2.240 . S
O45 C50 1.279 . S
O46 Cd43 2.297 . S
O46 C48 1.247 . S
O47 Cd43 2.439 . S
O47 C48 1.208 . S
C48 O46 1.247 . S
C48 O47 1.208 . S
C49 O54 1.247 . S
C49 O55 1.208 . S
C50 O42 1.315 . S
C50 O45 1.279 . S
C51 O52 1.315 . S
C51 O53 1.279 . S
O52 Cd44 2.223 . S
O52 C51 1.315 . S
O53 Cd43 2.240 . S
O53 C51 1.279 . S
O54 Cd44 2.297 . S
O54 C49 1.247 . S
O55 Cd44 2.439 . S
O55 C49 1.208 . S
O56 Cd57 2.223 . S
O56 C64 1.315 . S
Cd57 O56 2.223 . S
Cd57 O60 2.297 . S
Cd57 O61 2.439 . S
Cd57 O67 2.240 . S
Cd58 O59 2.240 . S
Cd58 O66 2.223 . S
Cd58 O68 2.297 . S
Cd58 O69 2.439 . S
O59 Cd58 2.240 . S
O59 C64 1.279 . S
O60 Cd57 2.297 . S
O60 C62 1.247 . S
O61 Cd57 2.439 . S
O61 C62 1.208 . S
C62 O60 1.247 . S
C62 O61 1.208 . S
C63 O68 1.247 . S
C63 O69 1.208 . S
C64 O56 1.315 . S
C64 O59 1.279 . S
C65 O66 1.315 . S
C65 O67 1.279 . S
O66 Cd58 2.223 . S
O66 C65 1.315 . S
O67 Cd57 2.240 . S
O67 C65 1.279 . S
O68 Cd58 2.297 . S
O68 C63 1.247 . S
O69 Cd58 2.439 . S
O69 C63 1.208 . S
O70 Cd71 2.223 . S
O70 C78 1.315 . S
Cd71 O70 2.223 . S
Cd71 O74 2.297 . S
Cd71 O75 2.439 . S
Cd71 O81 2.240 . S
Cd72 O73 2.240 . S
Cd72 O80 2.223 . S
Cd72 O82 2.297 . S
Cd72 O83 2.439 . S
O73 Cd72 2.240 . S
O73 C78 1.279 . S
O74 Cd71 2.297 . S
O74 C76 1.247 . S
O75 Cd71 2.439 . S
O75 C76 1.208 . S
C76 O74 1.247 . S
C76 O75 1.208 . S
C77 O82 1.247 . S
C77 O83 1.208 . S
C78 O70 1.315 . S
C78 O73 1.279 . S
C79 O80 1.315 . S
C79 O81 1.279 . S
O80 Cd72 2.223 . S
O80 C79 1.315 . S
O81 Cd71 2.240 . S
O81 C79 1.279 . S
O82 Cd72 2.297 . S
O82 C77 1.247 . S
O83 Cd72 2.439 . S
O83 C77 1.208 . S
O84 Cd85 2.223 . S
O84 C92 1.315 . S
Cd85 O84 2.223 . S
Cd85 O88 2.297 . S
Cd85 O89 2.439 . S
Cd85 O95 2.240 . S
Cd86 O87 2.240 . S
Cd86 O94 2.223 . S
Cd86 O96 2.297 . S
Cd86 O97 2.439 . S
O87 Cd86 2.240 . S
O87 C92 1.279 . S
O88 Cd85 2.297 . S
O88 C90 1.247 . S
O89 Cd85 2.439 . S
O89 C90 1.208 . S
C90 O88 1.247 . S
C90 O89 1.208 . S
C91 O96 1.247 . S
C91 O97 1.208 . S
C92 O84 1.315 . S
C92 O87 1.279 . S
C93 O94 1.315 . S
C93 O95 1.279 . S
O94 Cd86 2.223 . S
O94 C93 1.315 . S
O95 Cd85 2.240 . S
O95 C93 1.279 . S
O96 Cd86 2.297 . S
O96 C91 1.247 . S
O97 Cd86 2.439 . S
O97 C91 1.208 . S
O98 Cd99 2.223 . S
O98 C106 1.315 . S
Cd99 O98 2.223 . S
Cd99 O102 2.297 . S
Cd99 O103 2.439 . S
Cd99 O109 2.240 . S
Cd100 O101 2.240 . S
Cd100 O108 2.223 . S
Cd100 O110 2.297 . S
Cd100 O111 2.439 . S
O101 Cd100 2.240 . S
O101 C106 1.279 . S
O102 Cd99 2.297 . S
O102 C104 1.247 . S
O103 Cd99 2.439 . S
O103 C104 1.208 . S
C104 O102 1.247 . S
C104 O103 1.208 . S
C105 O110 1.247 . S
C105 O111 1.208 . S
C106 O98 1.315 . S
C106 O101 1.279 . S
C107 O108 1.315 . S
C107 O109 1.279 . S
O108 Cd100 2.223 . S
O108 C107 1.315 . S
O109 Cd99 2.240 . S
O109 C107 1.279 . S
O110 Cd100 2.297 . S
O110 C105 1.247 . S
O111 Cd100 2.439 . S
O111 C105 1.208 . S
O112 Cd113 2.223 . S
O112 C120 1.315 . S
Cd113 O112 2.223 . S
Cd113 O116 2.297 . S
Cd113 O117 2.439 . S
Cd113 O123 2.240 . S
Cd114 O115 2.240 . S
Cd114 O122 2.223 . S
Cd114 O124 2.297 . S
Cd114 O125 2.439 . S
O115 Cd114 2.240 . S
O115 C120 1.279 . S
O116 Cd113 2.297 . S
O116 C118 1.247 . S
O117 Cd113 2.439 . S
O117 C118 1.208 . S
C118 O116 1.247 . S
C118 O117 1.208 . S
C119 O124 1.247 . S
C119 O125 1.208 . S
C120 O112 1.315 . S
C120 O115 1.279 . S
C121 O122 1.315 . S
C121 O123 1.279 . S
O122 Cd114 2.223 . S
O122 C121 1.315 . S
O123 Cd113 2.240 . S
O123 C121 1.279 . S
O124 Cd114 2.297 . S
O124 C119 1.247 . S
O125 Cd114 2.439 . S
O125 C119 1.208 . S
O126 Cd127 2.223 . S
O126 C134 1.315 . S
Cd127 O126 2.223 . S
Cd127 O130 2.297 . S
Cd127 O131 2.439 . S
Cd127 O137 2.240 . S
Cd128 O129 2.240 . S
Cd128 O136 2.223 . S
Cd128 O138 2.297 . S
Cd128 O139 2.439 . S
O129 Cd128 2.240 . S
O129 C134 1.279 . S
O130 Cd127 2.297 . S
O130 C132 1.247 . S
O131 Cd127 2.439 . S
O131 C132 1.208 . S
C132 O130 1.247 . S
C132 O131 1.208 . S
C133 O138 1.247 . S
C133 O139 1.208 . S
C134 O126 1.315 . S
C134 O129 1.279 . S
C135 O136 1.315 . S
C135 O137 1.279 . S
O136 Cd128 2.223 . S
O136 C135 1.315 . S
O137 Cd127 2.240 . S
O137 C135 1.279 . S
O138 Cd128 2.297 . S
O138 C133 1.247 . S
O139 Cd128 2.439 . S
O139 C133 1.208 . S
O140 Cd141 2.223 . S
O140 C148 1.315 . S
Cd141 O140 2.223 . S
Cd141 O144 2.297 . S
Cd141 O145 2.439 . S
Cd141 O151 2.240 . S
Cd142 O143 2.240 . S
Cd142 O150 2.223 . S
Cd142 O152 2.297 . S
Cd142 O153 2.439 . S
O143 Cd142 2.240 . S
O143 C148 1.279 . S
O144 Cd141 2.297 . S
O144 C146 1.247 . S
O145 Cd141 2.439 . S
O145 C146 1.208 . S
C146 O144 1.247 . S
C146 O145 1.208 . S
C147 O152 1.247 . S
C147 O153 1.208 . S
C148 O140 1.315 . S
C148 O143 1.279 . S
C149 O150 1.315 . S
C149 O151 1.279 . S
O150 Cd142 2.223 . S
O150 C149 1.315 . S
O151 Cd141 2.240 . S
O151 C149 1.279 . S
O152 Cd142 2.297 . S
O152 C147 1.247 . S
O153 Cd142 2.439 . S
O153 C147 1.208 . S
O154 Cd155 2.223 . S
O154 C162 1.315 . S
Cd155 O154 2.223 . S
Cd155 O158 2.297 . S
Cd155 O159 2.439 . S
Cd155 O165 2.240 . S
Cd156 O157 2.240 . S
Cd156 O164 2.223 . S
Cd156 O166 2.297 . S
Cd156 O167 2.439 . S
O157 Cd156 2.240 . S
O157 C162 1.279 . S
O158 Cd155 2.297 . S
O158 C160 1.247 . S
O159 Cd155 2.439 . S
O159 C160 1.208 . S
C160 O158 1.247 . S
C160 O159 1.208 . S
C161 O166 1.247 . S
C161 O167 1.208 . S
C162 O154 1.315 . S
C162 O157 1.279 . S
C163 O164 1.315 . S
C163 O165 1.279 . S
O164 Cd156 2.223 . S
O164 C163 1.315 . S
O165 Cd155 2.240 . S
O165 C163 1.279 . S
O166 Cd156 2.297 . S
O166 C161 1.247 . S
O167 Cd156 2.439 . S
O167 C161 1.208 . S
H168 C174 0.930 . S
H169 C177 0.930 . S
H170 C178 0.930 . S
H171 C179 0.930 . S
H172 C182 0.935 . S
H173 C183 0.930 1_556 S
C174 H168 0.930 . S
C174 C175 1.355 . S
C174 C176 1.415 . S
C175 C174 1.355 . S
C175 C177 1.419 . S
C176 C174 1.415 . S
C176 C181 1.425 . S
C176 C183 1.409 . S
C177 H169 0.930 . S
C177 C175 1.419 . S
C177 C178 1.362 . S
C178 H170 0.930 . S
C178 C177 1.362 . S
C178 C181 1.409 . S
C179 H171 0.930 . S
C179 C180 1.355 . S
C179 C181 1.415 . S
C180 C179 1.355 . S
C180 C182 1.419 . S
C181 C176 1.425 . S
C181 C178 1.409 . S
C181 C179 1.415 . S
C182 H172 0.935 . S
C182 C180 1.419 . S
C182 C183 1.362 . S
C183 H173 0.930 1_554 S
C183 C176 1.409 . S
C183 C182 1.362 . S
H184 C190 0.930 1_655 S
H185 C193 0.930 . S
H186 C194 0.930 . S
H187 C195 0.930 1_455 S
H188 C198 0.930 . S
H189 C199 0.930 . S
C190 H184 0.930 1_455 S
C190 C191 1.355 . S
C190 C192 1.415 1_455 S
C191 C190 1.355 . S
C191 C193 1.419 . S
C192 C190 1.415 1_655 S
C192 C197 1.425 1_655 S
C192 C199 1.409 . S
C193 H185 0.930 . S
C193 C191 1.419 . S
C193 C194 1.362 . S
C194 H186 0.930 . S
C194 C193 1.362 . S
C194 C197 1.409 . S
C195 H187 0.930 1_655 S
C195 C196 1.355 . S
C195 C197 1.415 1_655 S
C196 C195 1.355 . S
C196 C198 1.419 . S
C197 C192 1.425 1_455 S
C197 C194 1.409 . S
C197 C195 1.415 1_455 S
C198 H188 0.930 . S
C198 C196 1.419 . S
C198 C199 1.362 . S
C199 H189 0.930 . S
C199 C192 1.409 . S
C199 C198 1.362 . S
H200 C206 0.930 . S
H201 C209 0.930 . S
H202 C210 0.930 . S
H203 C211 0.930 . S
H204 C214 0.930 . S
H205 C215 0.930 . S
C206 H200 0.930 . S
C206 C207 1.355 . S
C206 C208 1.415 . S
C207 C206 1.355 . S
C207 C209 1.419 1_565 S
C208 C206 1.415 . S
C208 C213 1.425 1_565 S
C208 C215 1.409 . S
C209 H201 0.930 . S
C209 C207 1.419 1_545 S
C209 C210 1.362 . S
C210 H202 0.930 . S
C210 C209 1.362 . S
C210 C213 1.409 . S
C211 H203 0.930 . S
C211 C212 1.355 . S
C211 C213 1.415 . S
C212 C211 1.355 . S
C212 C214 1.419 1_545 S
C213 C208 1.425 1_545 S
C213 C210 1.409 . S
C213 C211 1.415 . S
C214 H204 0.930 . S
C214 C212 1.419 1_565 S
C214 C215 1.362 . S
C215 H205 0.930 . S
C215 C208 1.409 . S
C215 C214 1.362 . S
H216 C222 0.930 . S
H217 C225 0.930 . S
H218 C226 0.930 . S
H219 C227 0.930 . S
H220 C230 0.930 . S
H221 C231 0.930 . S
C222 H216 0.930 . S
C222 C223 1.355 . S
C222 C224 1.415 . S
C223 C222 1.355 . S
C223 C225 1.419 . S
C224 C222 1.415 . S
C224 C229 1.425 . S
C224 C231 1.409 . S
C225 H217 0.930 . S
C225 C223 1.419 . S
C225 C226 1.362 . S
C226 H218 0.930 . S
C226 C225 1.362 . S
C226 C229 1.409 . S
C227 H219 0.930 . S
C227 C228 1.355 . S
C227 C229 1.415 . S
C228 C227 1.355 . S
C228 C230 1.419 . S
C229 C224 1.425 . S
C229 C226 1.409 . S
C229 C227 1.415 . S
C230 H220 0.930 . S
C230 C228 1.419 . S
C230 C231 1.362 . S
C231 H221 0.930 . S
C231 C224 1.409 . S
C231 C230 1.362 . S
H232 C238 0.930 . S
H233 C241 0.930 . S
H234 C242 0.930 . S
H235 C243 0.930 . S
H236 C246 0.930 . S
H237 C247 0.930 . S
C238 H232 0.930 . S
C238 C239 1.355 1_455 S
C238 C240 1.415 . S
C239 C238 1.355 1_655 S
C239 C241 1.419 . S
C240 C238 1.415 . S
C240 C245 1.425 1_455 S
C240 C247 1.409 . S
C241 H233 0.930 . S
C241 C239 1.419 . S
C241 C242 1.362 . S
C242 H234 0.930 . S
C242 C241 1.362 . S
C242 C245 1.409 . S
C243 H235 0.930 . S
C243 C244 1.355 1_655 S
C243 C245 1.415 . S
C244 C243 1.355 1_455 S
C244 C246 1.419 . S
C245 C240 1.425 1_655 S
C245 C242 1.409 . S
C245 C243 1.415 . S
C246 H236 0.930 . S
C246 C244 1.419 . S
C246 C247 1.362 . S
C247 H237 0.930 . S
C247 C240 1.409 . S
C247 C246 1.362 . S
H248 C254 0.930 . S
H249 C257 0.930 . S
H250 C258 0.930 . S
H251 C259 0.930 . S
H252 C262 0.930 . S
H253 C263 0.930 . S
C254 H248 0.930 . S
C254 C255 1.355 . S
C254 C256 1.415 1_545 S
C255 C254 1.355 . S
C255 C257 1.419 . S
C256 C254 1.415 1_565 S
C256 C261 1.425 1_565 S
C256 C263 1.409 . S
C257 H249 0.930 . S
C257 C255 1.419 . S
C257 C258 1.362 . S
C258 H250 0.930 . S
C258 C257 1.362 . S
C258 C261 1.409 . S
C259 H251 0.930 . S
C259 C260 1.355 . S
C259 C261 1.415 1_565 S
C260 C259 1.355 . S
C260 C262 1.419 . S
C261 C256 1.425 1_545 S
C261 C258 1.409 . S
C261 C259 1.415 1_545 S
C262 H252 0.930 . S
C262 C260 1.419 . S
C262 C263 1.362 . S
C263 H253 0.930 . S
C263 C256 1.409 . S
C263 C262 1.362 . S
H264 C270 0.930 . S
H265 C273 0.930 . S
H266 C274 0.930 . S
H267 C275 0.930 . S
H268 C278 0.930 . S
H269 C279 0.930 . S
C270 H264 0.930 . S
C270 C271 1.355 . S
C270 C272 1.415 . S
C271 C270 1.355 . S
C271 C273 1.419 . S
C272 C270 1.415 . S
C272 C277 1.425 . S
C272 C279 1.409 . S
C273 H265 0.930 . S
C273 C271 1.419 . S
C273 C274 1.362 . S
C274 H266 0.930 . S
C274 C273 1.362 . S
C274 C277 1.409 . S
C275 H267 0.930 . S
C275 C276 1.355 . S
C275 C277 1.415 . S
C276 C275 1.355 . S
C276 C278 1.419 . S
C277 C272 1.425 . S
C277 C274 1.409 . S
C277 C275 1.415 . S
C278 H268 0.930 . S
C278 C276 1.419 . S
C278 C279 1.362 . S
C279 H269 0.930 . S
C279 C272 1.409 . S
C279 C278 1.362 . S
H280 C286 0.930 . S
H281 C289 0.930 . S
H282 C290 0.930 . S
H283 C291 0.930 . S
H284 C294 0.930 . S
H285 C295 0.930 . S
C286 H280 0.930 . S
C286 C287 1.355 . S
C286 C288 1.415 . S
C287 C286 1.355 . S
C287 C289 1.419 . S
C288 C286 1.415 . S
C288 C293 1.425 . S
C288 C295 1.409 . S
C289 H281 0.930 . S
C289 C287 1.419 . S
C289 C290 1.362 . S
C290 H282 0.930 . S
C290 C289 1.362 . S
C290 C293 1.409 . S
C291 H283 0.930 . S
C291 C292 1.355 . S
C291 C293 1.415 . S
C292 C291 1.355 . S
C292 C294 1.419 . S
C293 C288 1.425 . S
C293 C290 1.409 . S
C293 C291 1.415 . S
C294 H284 0.930 . S
C294 C292 1.419 . S
C294 C295 1.362 . S
C295 H285 0.930 . S
C295 C288 1.409 . S
C295 C294 1.362 . S
H296 C302 0.930 . S
H297 C305 0.930 . S
H298 C306 0.930 . S
H299 C307 0.930 . S
H300 C310 0.930 . S
H301 C311 0.930 . S
C302 H296 0.930 . S
C302 C303 1.355 . S
C302 C304 1.415 . S
C303 C302 1.355 . S
C303 C305 1.419 . S
C304 C302 1.415 . S
C304 C309 1.425 . S
C304 C311 1.409 . S
C305 H297 0.930 . S
C305 C303 1.419 . S
C305 C306 1.362 . S
C306 H298 0.930 . S
C306 C305 1.362 . S
C306 C309 1.409 . S
C307 H299 0.930 . S
C307 C308 1.355 . S
C307 C309 1.415 . S
C308 C307 1.355 . S
C308 C310 1.419 . S
C309 C304 1.425 . S
C309 C306 1.409 . S
C309 C307 1.415 . S
C310 H300 0.930 . S
C310 C308 1.419 . S
C310 C311 1.362 . S
C311 H301 0.930 . S
C311 C304 1.409 . S
C311 C310 1.362 . S
H312 C318 0.930 . S
H313 C321 0.930 . S
H314 C322 0.930 . S
H315 C323 0.930 . S
H316 C326 0.930 . S
H317 C327 0.930 . S
C318 H312 0.930 . S
C318 C319 1.355 . S
C318 C320 1.415 . S
C319 C318 1.355 . S
C319 C321 1.419 . S
C320 C318 1.415 . S
C320 C325 1.425 . S
C320 C327 1.409 . S
C321 H313 0.930 . S
C321 C319 1.419 . S
C321 C322 1.362 . S
C322 H314 0.930 . S
C322 C321 1.362 . S
C322 C325 1.409 . S
C323 H315 0.930 . S
C323 C324 1.355 . S
C323 C325 1.415 . S
C324 C323 1.355 . S
C324 C326 1.419 . S
C325 C320 1.425 . S
C325 C322 1.409 . S
C325 C323 1.415 . S
C326 H316 0.930 . S
C326 C324 1.419 . S
C326 C327 1.362 . S
C327 H317 0.930 . S
C327 C320 1.409 . S
C327 C326 1.362 . S
H328 C334 0.930 . S
H329 C337 0.930 . S
H330 C338 0.930 . S
H331 C339 0.930 . S
H332 C342 0.930 . S
H333 C343 0.930 . S
C334 H328 0.930 . S
C334 C335 1.355 . S
C334 C336 1.415 . S
C335 C334 1.355 . S
C335 C337 1.419 . S
C336 C334 1.415 . S
C336 C341 1.425 . S
C336 C343 1.409 . S
C337 H329 0.930 . S
C337 C335 1.419 . S
C337 C338 1.362 . S
C338 H330 0.930 . S
C338 C337 1.362 . S
C338 C341 1.409 . S
C339 H331 0.930 . S
C339 C340 1.355 . S
C339 C341 1.415 . S
C340 C339 1.355 . S
C340 C342 1.419 . S
C341 C336 1.425 . S
C341 C338 1.409 . S
C341 C339 1.415 . S
C342 H332 0.930 . S
C342 C340 1.419 . S
C342 C343 1.362 . S
C343 H333 0.930 . S
C343 C336 1.409 . S
C343 C342 1.362 . S
H344 C350 0.930 . S
H345 C353 0.930 . S
H346 C354 0.930 . S
H347 C355 0.930 . S
H348 C358 0.930 . S
H349 C359 0.930 . S
C350 H344 0.930 . S
C350 C351 1.355 . S
C350 C352 1.415 . S
C351 C350 1.355 . S
C351 C353 1.419 . S
C352 C350 1.415 . S
C352 C357 1.425 . S
C352 C359 1.409 . S
C353 H345 0.930 . S
C353 C351 1.419 . S
C353 C354 1.362 . S
C354 H346 0.930 . S
C354 C353 1.362 . S
C354 C357 1.409 . S
C355 H347 0.930 . S
C355 C356 1.355 . S
C355 C357 1.415 . S
C356 C355 1.355 . S
C356 C358 1.419 . S
C357 C352 1.425 . S
C357 C354 1.409 . S
C357 C355 1.415 . S
C358 H348 0.930 . S
C358 C356 1.419 . S
C358 C359 1.362 . S
C359 H349 0.930 . S
C359 C352 1.409 . S
C359 C358 1.362 . S
H360 C366 0.930 . S
H361 C369 0.930 . S
H362 C370 0.930 1_545 S
H363 C371 0.930 . S
H364 C374 0.930 . S
H365 C375 0.930 1_565 S
C366 H360 0.930 . S
C366 C367 1.355 . S
C366 C368 1.415 1_556 S
C367 C366 1.355 . S
C367 C369 1.419 . S
C368 C366 1.415 1_554 S
C368 C373 1.425 1_564 S
C368 C375 1.409 1_565 S
C369 H361 0.930 . S
C369 C367 1.419 . S
C369 C370 1.362 . S
C370 H362 0.930 1_565 S
C370 C369 1.362 . S
C370 C373 1.409 1_565 S
C371 H363 0.930 . S
C371 C372 1.355 . S
C371 C373 1.415 1_554 S
C372 C371 1.355 . S
C372 C374 1.419 . S
C373 C368 1.425 1_546 S
C373 C370 1.409 1_545 S
C373 C371 1.415 1_556 S
C374 H364 0.930 . S
C374 C372 1.419 . S
C374 C375 1.362 . S
C375 H365 0.930 1_545 S
C375 C368 1.409 1_545 S
C375 C374 1.362 . S
H376 C382 0.930 . S
H377 C385 0.930 . S
H378 C386 0.930 . S
H379 C387 0.930 . S
H380 C390 0.930 . S
H381 C391 0.930 . S
C382 H376 0.930 . S
C382 C383 1.355 . S
C382 C384 1.415 . S
C383 C382 1.355 . S
C383 C385 1.419 . S
C384 C382 1.415 . S
C384 C389 1.425 . S
C384 C391 1.409 . S
C385 H377 0.930 . S
C385 C383 1.419 . S
C385 C386 1.362 . S
C386 H378 0.930 . S
C386 C385 1.362 . S
C386 C389 1.409 . S
C387 H379 0.930 . S
C387 C388 1.355 . S
C387 C389 1.415 . S
C388 C387 1.355 . S
C388 C390 1.419 . S
C389 C384 1.425 . S
C389 C386 1.409 . S
C389 C387 1.415 . S
C390 H380 0.930 . S
C390 C388 1.419 . S
C390 C391 1.362 . S
C391 H381 0.930 . S
C391 C384 1.409 . S
C391 C390 1.362 . S
H392 C398 0.930 . S
H393 C401 0.930 . S
H394 C402 0.930 1_455 S
H395 C403 0.930 . S
H396 C406 0.930 . S
H397 C407 0.930 1_655 S
C398 H392 0.930 . S
C398 C399 1.355 . S
C398 C400 1.415 . S
C399 C398 1.355 . S
C399 C401 1.419 . S
C400 C398 1.415 . S
C400 C405 1.425 1_655 S
C400 C407 1.409 1_655 S
C401 H393 0.930 . S
C401 C399 1.419 . S
C401 C402 1.362 . S
C402 H394 0.930 1_655 S
C402 C401 1.362 . S
C402 C405 1.409 1_655 S
C403 H395 0.930 . S
C403 C404 1.355 . S
C403 C405 1.415 . S
C404 C403 1.355 . S
C404 C406 1.419 . S
C405 C400 1.425 1_455 S
C405 C402 1.409 1_455 S
C405 C403 1.415 . S
C406 H396 0.930 . S
C406 C404 1.419 . S
C406 C407 1.362 . S
C407 H397 0.930 1_455 S
C407 C400 1.409 1_455 S
C407 C406 1.362 . S
H408 C414 0.930 . S
H409 C417 0.930 . S
H410 C418 0.923 1_545 S
H411 C419 0.930 . S
H412 C422 0.930 . S
H413 C423 0.923 1_565 S
C414 H408 0.930 . S
C414 C415 1.355 1_556 S
C414 C416 1.415 . S
C415 C414 1.355 1_554 S
C415 C417 1.419 . S
C416 C414 1.415 . S
C416 C421 1.425 1_566 S
C416 C423 1.407 1_565 S
C417 H409 0.930 . S
C417 C415 1.419 . S
C417 C418 1.371 . S
C418 H410 0.923 1_565 S
C418 C417 1.371 . S
C418 C421 1.407 1_565 S
C419 H411 0.930 . S
C419 C420 1.355 1_554 S
C419 C421 1.415 . S
C420 C419 1.355 1_556 S
C420 C422 1.419 . S
C421 C416 1.425 1_544 S
C421 C418 1.407 1_545 S
C421 C419 1.415 . S
C422 H412 0.930 . S
C422 C420 1.419 . S
C422 C423 1.371 . S
C423 H413 0.923 1_545 S
C423 C416 1.407 1_545 S
C423 C422 1.371 . S
H424 C430 0.930 . S
H425 C433 0.930 . S
H426 C434 0.930 . S
H427 C435 0.930 . S
H428 C438 0.930 . S
H429 C439 0.930 . S
C430 H424 0.930 . S
C430 C431 1.355 . S
C430 C432 1.415 . S
C431 C430 1.355 . S
C431 C433 1.419 . S
C432 C430 1.415 . S
C432 C437 1.425 . S
C432 C439 1.409 . S
C433 H425 0.930 . S
C433 C431 1.419 . S
C433 C434 1.362 . S
C434 H426 0.930 . S
C434 C433 1.362 . S
C434 C437 1.409 . S
C435 H427 0.930 . S
C435 C436 1.355 . S
C435 C437 1.415 . S
C436 C435 1.355 . S
C436 C438 1.419 . S
C437 C432 1.425 . S
C437 C434 1.409 . S
C437 C435 1.415 . S
C438 H428 0.930 . S
C438 C436 1.419 . S
C438 C439 1.362 . S
C439 H429 0.930 . S
C439 C432 1.409 . S
C439 C438 1.362 . S
H440 C446 0.930 . S
H441 C449 0.930 . S
H442 C450 0.930 . S
H443 C451 0.930 . S
H444 C454 0.930 . S
H445 C455 0.930 . S
C446 H440 0.930 . S
C446 C447 1.355 . S
C446 C448 1.415 1_455 S
C447 C446 1.355 . S
C447 C449 1.419 . S
C448 C446 1.415 1_655 S
C448 C453 1.425 1_655 S
C448 C455 1.409 . S
C449 H441 0.930 . S
C449 C447 1.419 . S
C449 C450 1.362 . S
C450 H442 0.930 . S
C450 C449 1.362 . S
C450 C453 1.409 . S
C451 H443 0.930 . S
C451 C452 1.355 . S
C451 C453 1.415 1_655 S
C452 C451 1.355 . S
C452 C454 1.419 . S
C453 C448 1.425 1_455 S
C453 C450 1.409 . S
C453 C451 1.415 1_455 S
C454 H444 0.930 . S
C454 C452 1.419 . S
C454 C455 1.362 . S
C455 H445 0.930 . S
C455 C448 1.409 . S
C455 C454 1.362 . S
H456 C462 0.930 . S
H457 C465 0.930 . S
H458 C466 0.930 . S
H459 C467 0.930 . S
H460 C470 0.930 . S
H461 C471 0.930 . S
C462 H456 0.930 . S
C462 C463 1.355 . S
C462 C464 1.415 . S
C463 C462 1.355 . S
C463 C465 1.419 1_556 S
C464 C462 1.415 . S
C464 C469 1.425 1_556 S
C464 C471 1.409 . S
C465 H457 0.930 . S
C465 C463 1.419 1_554 S
C465 C466 1.362 . S
C466 H458 0.930 . S
C466 C465 1.362 . S
C466 C469 1.409 . S
C467 H459 0.930 . S
C467 C468 1.355 . S
C467 C469 1.415 . S
C468 C467 1.355 . S
C468 C470 1.419 1_554 S
C469 C464 1.425 1_554 S
C469 C466 1.409 . S
C469 C467 1.415 . S
C470 H460 0.930 . S
C470 C468 1.419 1_556 S
C470 C471 1.362 . S
C471 H461 0.930 . S
C471 C464 1.409 . S
C471 C470 1.362 . S
H472 C478 0.930 . S
H473 C481 0.930 1_565 S
H474 C482 0.930 . S
H475 C483 0.930 . S
H476 C486 0.930 . S
H477 C487 0.930 . S
C478 H472 0.930 . S
C478 C479 1.355 . S
C478 C480 1.415 . S
C479 C478 1.355 . S
C479 C481 1.419 . S
C480 C478 1.415 . S
C480 C485 1.425 . S
C480 C487 1.409 . S
C481 H473 0.930 1_545 S
C481 C479 1.419 . S
C481 C482 1.362 . S
C482 H474 0.930 . S
C482 C481 1.362 . S
C482 C485 1.409 . S
C483 H475 0.930 . S
C483 C484 1.355 . S
C483 C485 1.415 . S
C484 C483 1.355 . S
C484 C486 1.419 . S
C485 C480 1.425 . S
C485 C482 1.409 . S
C485 C483 1.415 . S
C486 H476 0.930 . S
C486 C484 1.419 . S
C486 C487 1.362 . S
C487 H477 0.930 . S
C487 C480 1.409 . S
C487 C486 1.362 . S
H488 C494 0.930 . S
H489 C497 0.930 . S
H490 C498 0.930 . S
H491 C499 0.930 . S
H492 C502 0.930 . S
H493 C503 0.930 . S
C494 H488 0.930 . S
C494 C495 1.355 . S
C494 C496 1.415 . S
C495 C494 1.355 . S
C495 C497 1.419 . S
C496 C494 1.415 . S
C496 C501 1.425 . S
C496 C503 1.409 . S
C497 H489 0.930 . S
C497 C495 1.419 . S
C497 C498 1.362 . S
C498 H490 0.930 . S
C498 C497 1.362 . S
C498 C501 1.409 . S
C499 H491 0.930 . S
C499 C500 1.355 . S
C499 C501 1.415 . S
C500 C499 1.355 . S
C500 C502 1.419 . S
C501 C496 1.425 . S
C501 C498 1.409 . S
C501 C499 1.415 . S
C502 H492 0.930 . S
C502 C500 1.419 . S
C502 C503 1.362 . S
C503 H493 0.930 . S
C503 C496 1.409 . S
C503 C502 1.362 . S
H504 C510 0.930 . S
H505 C513 0.930 . S
H506 C514 0.930 . S
H507 C515 0.930 . S
H508 C518 0.930 . S
H509 C519 0.930 . S
C510 H504 0.930 . S
C510 C511 1.355 1_556 S
C510 C512 1.415 . S
C511 C510 1.355 1_554 S
C511 C513 1.419 . S
C512 C510 1.415 . S
C512 C517 1.425 1_556 S
C512 C519 1.409 . S
C513 H505 0.930 . S
C513 C511 1.419 . S
C513 C514 1.362 . S
C514 H506 0.930 . S
C514 C513 1.362 . S
C514 C517 1.409 . S
C515 H507 0.930 . S
C515 C516 1.355 1_554 S
C515 C517 1.415 . S
C516 C515 1.355 1_556 S
C516 C518 1.419 . S
C517 C512 1.425 1_554 S
C517 C514 1.409 . S
C517 C515 1.415 . S
C518 H508 0.930 . S
C518 C516 1.419 . S
C518 C519 1.362 . S
C519 H509 0.930 . S
C519 C512 1.409 . S
C519 C518 1.362 . S
H520 C526 0.930 . S
H521 C529 0.930 1_655 S
H522 C530 0.930 . S
H523 C531 0.930 . S
H524 C534 0.930 . S
H525 C535 0.930 . S
C526 H520 0.930 . S
C526 C527 1.355 . S
C526 C528 1.415 . S
C527 C526 1.355 . S
C527 C529 1.419 . S
C528 C526 1.415 . S
C528 C533 1.425 . S
C528 C535 1.409 . S
C529 H521 0.930 1_455 S
C529 C527 1.419 . S
C529 C530 1.362 . S
C530 H522 0.930 . S
C530 C529 1.362 . S
C530 C533 1.409 . S
C531 H523 0.930 . S
C531 C532 1.355 . S
C531 C533 1.415 . S
C532 C531 1.355 . S
C532 C534 1.419 . S
C533 C528 1.425 . S
C533 C530 1.409 . S
C533 C531 1.415 . S
C534 H524 0.930 . S
C534 C532 1.419 . S
C534 C535 1.362 . S
C535 H525 0.930 . S
C535 C528 1.409 . S
C535 C534 1.362 . S
H536 C542 0.930 . S
H537 C545 0.930 . S
H538 C546 0.930 . S
H539 C547 0.930 . S
H540 C550 0.930 . S
H541 C551 0.930 . S
C542 H536 0.930 . S
C542 C543 1.355 . S
C542 C544 1.415 . S
C543 C542 1.355 . S
C543 C545 1.419 . S
C544 C542 1.415 . S
C544 C549 1.425 . S
C544 C551 1.409 . S
C545 H537 0.930 . S
C545 C543 1.419 . S
C545 C546 1.362 . S
C546 H538 0.930 . S
C546 C545 1.362 . S
C546 C549 1.409 . S
C547 H539 0.930 . S
C547 C548 1.355 . S
C547 C549 1.415 . S
C548 C547 1.355 . S
C548 C550 1.419 . S
C549 C544 1.425 . S
C549 C546 1.409 . S
C549 C547 1.415 . S
C550 H540 0.930 . S
C550 C548 1.419 . S
C550 C551 1.362 . S
C551 H541 0.930 . S
C551 C544 1.409 . S
C551 C550 1.362 . S
C175 C49 1.348 . S
C180 C7 1.318 . S
C191 C21 1.317 . S
C196 C63 1.350 . S
C207 C77 1.339 . S
C212 C35 1.327 . S
C223 C91 1.318 . S
C228 C133 1.349 . S
C239 C147 1.324 . S
C244 C105 1.344 . S
C255 C119 1.348 . S
C260 C161 1.319 . S
C271 C118 1.583 . S
C276 C6 1.545 . S
C287 C20 1.596 . S
C292 C132 1.586 . S
C303 C34 1.551 . S
C308 C146 1.570 . S
C319 C48 1.560 . S
C324 C160 1.606 . S
C335 C90 1.577 . S
C340 C62 1.547 . S
C351 C104 1.544 . S
C356 C76 1.585 . S
C367 C106 1.593 . S
C372 C8 1.567 . S
C383 C22 1.567 . S
C388 C120 1.588 . S
C399 C36 1.575 . S
C404 C134 1.572 . S
C415 C50 1.573 . S
C420 C148 1.574 . S
C431 C162 1.578 . S
C436 C64 1.570 . S
C447 C78 1.626 . S
C452 C92 1.615 . S
C463 C149 1.476 1_455 S
C468 C9 1.482 . S
C479 C163 1.491 1_545 S
C484 C23 1.479 1_655 S
C495 C93 1.490 . S
C500 C37 1.477 1_565 S
C511 C51 1.488 . S
C516 C107 1.487 1_655 S
C527 C65 1.490 1_455 S
C532 C121 1.477 1_565 S
C543 C79 1.475 1_545 S
C548 C135 1.488 . S
