# Generated by pormake.
# Topology ukk, (4)-cn, num edge types: 1
# Building blocks:
#     Node 0, Type 0, BuildingBlock: ICAMEG_clean_sbu_1, # of connection points: 4
#     Node 1, Type 0, BuildingBlock: ICAMEG_clean_sbu_1, # of connection points: 4
#     Node 2, Type 0, BuildingBlock: ICAMEG_clean_sbu_1, # of connection points: 4
#     Node 3, Type 0, BuildingBlock: ICAMEG_clean_sbu_1, # of connection points: 4
#     Node 4, Type 0, BuildingBlock: ICAMEG_clean_sbu_1, # of connection points: 4
#     Node 5, Type 0, BuildingBlock: ICAMEG_clean_sbu_1, # of connection points: 4
#     Node 6, Type 0, BuildingBlock: ICAMEG_clean_sbu_1, # of connection points: 4
#     Node 7, Type 0, BuildingBlock: ICAMEG_clean_sbu_1, # of connection points: 4
#     Node 8, Type 0, BuildingBlock: ICAMEG_clean_sbu_1, # of connection points: 4
#     Node 9, Type 0, BuildingBlock: ICAMEG_clean_sbu_1, # of connection points: 4
#     Node 10, Type 0, BuildingBlock: ICAMEG_clean_sbu_1, # of connection points: 4
#     Node 11, Type 0, BuildingBlock: ICAMEG_clean_sbu_1, # of connection points: 4
#     Node 12, Type 0, BuildingBlock: ICAMEG_clean_sbu_1, # of connection points: 4
#     Node 13, Type 0, BuildingBlock: ICAMEG_clean_sbu_1, # of connection points: 4
#     Node 14, Type 0, BuildingBlock: ICAMEG_clean_sbu_1, # of connection points: 4
#     Node 15, Type 0, BuildingBlock: ICAMEG_clean_sbu_1, # of connection points: 4
#     Edge 16, Type (0, 0), BuildingBlock: KIFKEQ_clean_linker_1, # of connection points: 2
#     Edge 17, Type (0, 0), BuildingBlock: KIFKEQ_clean_linker_1, # of connection points: 2
#     Edge 18, Type (0, 0), BuildingBlock: KIFKEQ_clean_linker_1, # of connection points: 2
#     Edge 19, Type (0, 0), BuildingBlock: KIFKEQ_clean_linker_1, # of connection points: 2
#     Edge 20, Type (0, 0), BuildingBlock: KIFKEQ_clean_linker_1, # of connection points: 2
#     Edge 21, Type (0, 0), BuildingBlock: KIFKEQ_clean_linker_1, # of connection points: 2
#     Edge 22, Type (0, 0), BuildingBlock: KIFKEQ_clean_linker_1, # of connection points: 2
#     Edge 23, Type (0, 0), BuildingBlock: KIFKEQ_clean_linker_1, # of connection points: 2
#     Edge 24, Type (0, 0), BuildingBlock: KIFKEQ_clean_linker_1, # of connection points: 2
#     Edge 25, Type (0, 0), BuildingBlock: KIFKEQ_clean_linker_1, # of connection points: 2
#     Edge 26, Type (0, 0), BuildingBlock: KIFKEQ_clean_linker_1, # of connection points: 2
#     Edge 27, Type (0, 0), BuildingBlock: KIFKEQ_clean_linker_1, # of connection points: 2
#     Edge 28, Type (0, 0), BuildingBlock: KIFKEQ_clean_linker_1, # of connection points: 2
#     Edge 29, Type (0, 0), BuildingBlock: KIFKEQ_clean_linker_1, # of connection points: 2
#     Edge 30, Type (0, 0), BuildingBlock: KIFKEQ_clean_linker_1, # of connection points: 2
#     Edge 31, Type (0, 0), BuildingBlock: KIFKEQ_clean_linker_1, # of connection points: 2
#     Edge 32, Type (0, 0), BuildingBlock: KIFKEQ_clean_linker_1, # of connection points: 2
#     Edge 33, Type (0, 0), BuildingBlock: KIFKEQ_clean_linker_1, # of connection points: 2
#     Edge 34, Type (0, 0), BuildingBlock: KIFKEQ_clean_linker_1, # of connection points: 2
#     Edge 35, Type (0, 0), BuildingBlock: KIFKEQ_clean_linker_1, # of connection points: 2
#     Edge 36, Type (0, 0), BuildingBlock: KIFKEQ_clean_linker_1, # of connection points: 2
#     Edge 37, Type (0, 0), BuildingBlock: KIFKEQ_clean_linker_1, # of connection points: 2
#     Edge 38, Type (0, 0), BuildingBlock: KIFKEQ_clean_linker_1, # of connection points: 2
#     Edge 39, Type (0, 0), BuildingBlock: KIFKEQ_clean_linker_1, # of connection points: 2
#     Edge 40, Type (0, 0), BuildingBlock: KIFKEQ_clean_linker_1, # of connection points: 2
#     Edge 41, Type (0, 0), BuildingBlock: KIFKEQ_clean_linker_1, # of connection points: 2
#     Edge 42, Type (0, 0), BuildingBlock: KIFKEQ_clean_linker_1, # of connection points: 2
#     Edge 43, Type (0, 0), BuildingBlock: KIFKEQ_clean_linker_1, # of connection points: 2
#     Edge 44, Type (0, 0), BuildingBlock: KIFKEQ_clean_linker_1, # of connection points: 2
#     Edge 45, Type (0, 0), BuildingBlock: KIFKEQ_clean_linker_1, # of connection points: 2
#     Edge 46, Type (0, 0), BuildingBlock: KIFKEQ_clean_linker_1, # of connection points: 2
#     Edge 47, Type (0, 0), BuildingBlock: KIFKEQ_clean_linker_1, # of connection points: 2
# Relax obj value: 0.062
# Max RMSD: 0.229
# Mean RMSD: 0.224
data_MOF--net-ukk--node1-ICAMEG_clean_sbu_1--edge1-KIFKEQ_clean_linker_1
_symmetry_space_group_name_H-M    P1
_symmetry_Int_Tables_number       1
_symmetry_cell_setting            triclinic
loop_
_symmetry_equiv_pos_as_xyz
'x, y, z'
_cell_length_a     59.991808
_cell_length_b     59.197162
_cell_length_c     16.636806
_cell_angle_alpha  89.994477
_cell_angle_beta   90.011288
_cell_angle_gamma 90.003827
loop_
_atom_site_label
_atom_site_type_symbol
_atom_site_fract_x
_atom_site_fract_y
_atom_site_fract_z
_atom_type_partial_charge
Co0 Co 0.36632 0.12377 0.2204 0.0
Co1 Co 0.3735 0.12561 0.01447 0.0
O2 O 0.36134 0.11256 0.11227 0.0
C3 C 0.38386 0.07744 0.22121 0.0
O4 O 0.39539 0.08336 0.15764 0.0
C5 C 0.32494 0.12893 0.00068 0.0
O6 O 0.32584 0.13702 0.07395 0.0
O7 O 0.36655 0.15682 0.05078 0.0
O8 O 0.36174 0.15573 0.18497 0.0
H9 H 0.41937 0.17966 0.85031 0.0
H10 H 0.33302 0.08752 0.19205 0.0
O11 O 0.37124 0.09173 0.25617 0.0
H12 H 0.29094 0.15049 0.31291 0.0
H13 H 0.35963 0.11987 0.52164 0.0
H14 H 0.39079 0.16235 0.29277 0.0
H15 H 0.33149 0.15365 0.2909 0.0
H16 H 0.35292 0.10722 0.38236 0.0
O17 O 0.34293 0.12344 0.96454 0.0
H18 H 0.40471 0.16296 0.97554 0.0
H19 H 0.3667 0.11575 0.84081 0.0
H20 H 0.39777 0.1757 0.43095 0.0
H21 H 0.29252 0.08359 0.21348 0.0
H22 H 0.38216 0.15437 0.54661 0.0
H23 H 0.2712 0.11526 0.27406 0.0
O24 O 0.39865 0.1274 0.19933 0.0
H25 H 0.35736 0.04342 0.96613 0.0
H26 H 0.41383 0.10367 0.94534 0.0
H27 H 0.42346 0.0649 0.90339 0.0
H28 H 0.39509 0.03447 0.91362 0.0
H29 H 0.3485 0.08238 0.00789 0.0
H30 H 0.38079 0.13205 0.71404 0.0
H31 H 0.40738 0.16418 0.71838 0.0
O32 O 0.40391 0.12821 0.06501 0.0
C33 C 0.36266 0.16633 0.11815 0.0
C34 C 0.40786 0.1656 0.84765 0.0
C35 C 0.38618 0.1389 0.77117 0.0
N36 N 0.38504 0.13828 0.91541 0.0
C37 C 0.39956 0.15603 0.91835 0.0
C38 C 0.37823 0.12977 0.84309 0.0
C39 C 0.40111 0.15693 0.77364 0.0
C40 C 0.3239 0.10128 0.21929 0.0
N41 N 0.33463 0.12073 0.24076 0.0
C42 C 0.30095 0.099 0.23092 0.0
C43 C 0.28899 0.11679 0.26481 0.0
C44 C 0.30006 0.13656 0.28659 0.0
C45 C 0.32301 0.13826 0.27393 0.0
C46 C 0.36649 0.12933 0.47176 0.0
C47 C 0.3838 0.15308 0.34273 0.0
C48 C 0.36278 0.12223 0.39279 0.0
N49 N 0.37132 0.13415 0.32951 0.0
C50 C 0.38787 0.16068 0.42087 0.0
C51 C 0.37912 0.14869 0.48572 0.0
C52 C 0.41109 0.1293 0.13741 0.0
C53 C 0.36984 0.05654 0.96117 0.0
C54 C 0.40142 0.0905 0.95005 0.0
C55 C 0.40695 0.0686 0.92609 0.0
C56 C 0.39102 0.05153 0.93181 0.0
N57 N 0.38059 0.09529 0.97862 0.0
C58 C 0.36489 0.07865 0.98443 0.0
Co59 Co 0.12189 0.63822 0.77896 0.0
Co60 Co 0.09893 0.62779 0.96586 0.0
O61 O 0.1192 0.64356 0.89403 0.0
C62 C 0.16566 0.62862 0.84913 0.0
O63 O 0.15456 0.61677 0.90235 0.0
C64 C 0.08776 0.67591 0.97853 0.0
O65 O 0.08814 0.67617 0.89969 0.0
O66 O 0.07399 0.6314 0.88882 0.0
O67 O 0.08856 0.63772 0.76609 0.0
H68 H 0.03947 0.57159 0.03838 0.0
H69 H 0.14602 0.67656 0.85422 0.0
O70 O 0.15527 0.63834 0.79174 0.0
H71 H 0.09662 0.71095 0.65131 0.0
H72 H 0.15694 0.64968 0.50725 0.0
H73 H 0.099 0.609 0.6598 0.0
H74 H 0.09749 0.66961 0.67 0.0
H75 H 0.15228 0.65619 0.65282 0.0
O76 O 0.09113 0.65751 0.01649 0.0
H77 H 0.0657 0.59104 0.94755 0.0
H78 H 0.08821 0.63232 0.13992 0.0
H79 H 0.10295 0.6021 0.51424 0.0
H80 H 0.14578 0.71796 0.83722 0.0
H81 H 0.13209 0.62254 0.43698 0.0
H82 H 0.12091 0.73541 0.73524 0.0
O83 O 0.12167 0.60495 0.79454 0.0
H84 H 0.16522 0.6539 0.12558 0.0
H85 H 0.11717 0.58894 0.05899 0.0
H86 H 0.14892 0.58365 0.15132 0.0
H87 H 0.1732 0.61629 0.18516 0.0
H88 H 0.13338 0.6584 0.03312 0.0
H89 H 0.06211 0.61343 0.23278 0.0
H90 H 0.03756 0.58277 0.18213 0.0
O91 O 0.10638 0.59804 0.91555 0.0
C92 C 0.072 0.63467 0.81333 0.0
C93 C 0.05014 0.58486 0.06124 0.0
C94 C 0.06282 0.60837 0.17032 0.0
N95 N 0.0786 0.61264 0.03862 0.0
C96 C 0.06507 0.59588 0.01015 0.0
C97 C 0.07753 0.61903 0.11745 0.0
C98 C 0.04906 0.59116 0.14186 0.0
C99 C 0.13532 0.68401 0.8092 0.0
N100 N 0.1219 0.67068 0.76279 0.0
C101 C 0.13518 0.70747 0.80006 0.0
C102 C 0.1212 0.71725 0.74293 0.0
C103 C 0.10755 0.70354 0.69585 0.0
C104 C 0.10809 0.68015 0.70678 0.0
C105 C 0.14415 0.64072 0.54022 0.0
C106 C 0.11162 0.61806 0.62646 0.0
C107 C 0.14147 0.6443 0.62264 0.0
N108 N 0.12526 0.63313 0.66451 0.0
C109 C 0.11382 0.61404 0.54412 0.0
C110 C 0.13019 0.62549 0.50082 0.0
C111 C 0.1149 0.59147 0.84919 0.0
C112 C 0.15471 0.63957 0.11154 0.0
C113 C 0.12766 0.60322 0.07346 0.0
C114 C 0.14559 0.60013 0.12584 0.0
C115 C 0.1592 0.61845 0.14485 0.0
N116 N 0.12334 0.62399 0.04112 0.0
C117 C 0.1366 0.64204 0.05951 0.0
Co118 Co 0.63009 0.8765 0.21193 0.0
Co119 Co 0.62442 0.87272 0.00565 0.0
O120 O 0.63702 0.88582 0.10283 0.0
C121 C 0.61782 0.92423 0.20103 0.0
O122 O 0.6077 0.91848 0.13421 0.0
C123 C 0.67267 0.86596 0.99619 0.0
O124 O 0.67089 0.85834 0.0699 0.0
O125 O 0.62918 0.84161 0.0465 0.0
O126 O 0.63201 0.84379 0.18134 0.0
H127 H 0.57595 0.8203 0.84459 0.0
H128 H 0.66691 0.90895 0.18287 0.0
O129 O 0.62777 0.90925 0.24289 0.0
H130 H 0.70175 0.84361 0.31713 0.0
H131 H 0.63471 0.88282 0.51316 0.0
H132 H 0.60109 0.84162 0.28578 0.0
H133 H 0.66128 0.84418 0.29077 0.0
H134 H 0.64377 0.89329 0.37331 0.0
O135 O 0.65528 0.87236 0.95819 0.0
H136 H 0.59115 0.83708 0.96885 0.0
H137 H 0.63272 0.88044 0.83147 0.0
H138 H 0.59169 0.83046 0.42463 0.0
H139 H 0.70741 0.90915 0.20848 0.0
H140 H 0.60855 0.85114 0.53949 0.0
H141 H 0.72509 0.87626 0.27583 0.0
O142 O 0.59784 0.87614 0.1876 0.0
H143 H 0.64632 0.95308 0.94838 0.0
H144 H 0.58597 0.89671 0.931 0.0
H145 H 0.57919 0.93562 0.88388 0.0
H146 H 0.6095 0.96411 0.89249 0.0
H147 H 0.65234 0.91402 0.99522 0.0
H148 H 0.61812 0.86401 0.70567 0.0
H149 H 0.58945 0.83378 0.71181 0.0
O150 O 0.59358 0.87268 0.05357 0.0
C151 C 0.6315 0.8326 0.11562 0.0
C152 C 0.58837 0.83352 0.84113 0.0
C153 C 0.61206 0.85804 0.76315 0.0
N154 N 0.61261 0.85986 0.90731 0.0
C155 C 0.59697 0.84314 0.91127 0.0
C156 C 0.62029 0.86724 0.83455 0.0
C157 C 0.59597 0.84108 0.76665 0.0
C158 C 0.67445 0.8947 0.21302 0.0
N159 N 0.66173 0.87665 0.23581 0.0
C160 C 0.6974 0.89485 0.22702 0.0
C161 C 0.70732 0.87638 0.26469 0.0
C162 C 0.69423 0.85805 0.28785 0.0
C163 C 0.67133 0.85846 0.27271 0.0
C164 C 0.62731 0.87363 0.46363 0.0
C165 C 0.60863 0.85056 0.33548 0.0
C166 C 0.63235 0.8795 0.38436 0.0
N167 N 0.62315 0.8679 0.32156 0.0
C168 C 0.60318 0.84423 0.41395 0.0
C169 C 0.61263 0.85585 0.47836 0.0
C170 C 0.58574 0.87424 0.12491 0.0
C171 C 0.63301 0.9408 0.94408 0.0
C172 C 0.59924 0.90901 0.93489 0.0
C173 C 0.59532 0.93101 0.90804 0.0
C174 C 0.61233 0.94699 0.91283 0.0
N175 N 0.61957 0.90307 0.9654 0.0
C176 C 0.63635 0.91863 0.97017 0.0
Co177 Co 0.87587 0.36412 0.76825 0.0
Co178 Co 0.90222 0.36979 0.95176 0.0
O179 O 0.87953 0.35689 0.88188 0.0
C180 C 0.83314 0.37467 0.84502 0.0
O181 O 0.84503 0.38564 0.89849 0.0
C182 C 0.90839 0.32065 0.96216 0.0
O183 O 0.90691 0.32048 0.88347 0.0
O184 O 0.92563 0.3632 0.87156 0.0
O185 O 0.90904 0.36337 0.75007 0.0
H186 H 0.96906 0.4175 0.01711 0.0
H187 H 0.85087 0.3257 0.83907 0.0
O188 O 0.84274 0.36512 0.78562 0.0
H189 H 0.89668 0.29253 0.62313 0.0
H190 H 0.83764 0.3583 0.49979 0.0
H191 H 0.89847 0.39447 0.65213 0.0
H192 H 0.89777 0.3335 0.64986 0.0
H193 H 0.84353 0.3493 0.64308 0.0
O194 O 0.90706 0.33923 0.0006 0.0
H195 H 0.93975 0.40175 0.92945 0.0
H196 H 0.91383 0.36369 0.12456 0.0
H197 H 0.89331 0.40382 0.50877 0.0
H198 H 0.84916 0.28467 0.81403 0.0
H199 H 0.86271 0.38566 0.43164 0.0
H200 H 0.87223 0.26782 0.70551 0.0
O201 O 0.87754 0.39703 0.79073 0.0
H202 H 0.83509 0.35134 0.11995 0.0
H203 H 0.88961 0.41033 0.04804 0.0
H204 H 0.85969 0.41909 0.14481 0.0
H205 H 0.83217 0.38947 0.18135 0.0
H206 H 0.86519 0.34335 0.02303 0.0
H207 H 0.94296 0.37888 0.21427 0.0
H208 H 0.97078 0.40607 0.16065 0.0
O209 O 0.89793 0.40051 0.90364 0.0
C210 C 0.92628 0.36215 0.79506 0.0
C211 C 0.95697 0.40575 0.04127 0.0
C212 C 0.94234 0.38405 0.1519 0.0
N213 N 0.92495 0.38205 0.02214 0.0
C214 C 0.94029 0.39685 0.992 0.0
C215 C 0.92591 0.37549 0.10083 0.0
C216 C 0.95794 0.39931 0.12178 0.0
C217 C 0.86078 0.31853 0.79121 0.0
N218 N 0.87431 0.332 0.74571 0.0
C219 C 0.85982 0.29527 0.77754 0.0
C220 C 0.8728 0.28582 0.71674 0.0
C221 C 0.88653 0.29967 0.67054 0.0
C222 C 0.88711 0.32286 0.68605 0.0
C223 C 0.85107 0.36627 0.5327 0.0
C224 C 0.88522 0.38638 0.61876 0.0
C225 C 0.85446 0.36128 0.61384 0.0
N226 N 0.87147 0.37118 0.65559 0.0
C227 C 0.88233 0.3918 0.53771 0.0
C228 C 0.86514 0.38162 0.49449 0.0
C229 C 0.88755 0.40888 0.8436 0.0
C230 C 0.84703 0.36436 0.10473 0.0
C231 C 0.87769 0.39735 0.06361 0.0
C232 C 0.86081 0.4024 0.11853 0.0
C233 C 0.84538 0.38577 0.13905 0.0
N234 N 0.87921 0.37631 0.03029 0.0
C235 C 0.86417 0.3599 0.05018 0.0
Co236 Co 0.36861 0.38036 0.02741 0.0
Co237 Co 0.37368 0.37542 0.23362 0.0
O238 O 0.36183 0.38949 0.13693 0.0
C239 C 0.38273 0.42753 0.04105 0.0
O240 O 0.39268 0.42109 0.10742 0.0
C241 C 0.32516 0.37075 0.24283 0.0
O242 O 0.32655 0.36361 0.16839 0.0
O243 O 0.3675 0.34477 0.19098 0.0
O244 O 0.36535 0.34762 0.05609 0.0
H245 H 0.41952 0.32006 0.39223 0.0
H246 H 0.33305 0.41417 0.05736 0.0
O247 O 0.37225 0.41312 0.99835 0.0
H248 H 0.29591 0.35086 0.91882 0.0
H249 H 0.36469 0.38809 0.72646 0.0
H250 H 0.3964 0.3447 0.95224 0.0
H251 H 0.33632 0.34967 0.9462 0.0
H252 H 0.35586 0.39836 0.86669 0.0
O253 O 0.34283 0.37626 0.28092 0.0
H254 H 0.40519 0.33805 0.26877 0.0
H255 H 0.36564 0.38281 0.40817 0.0
H256 H 0.40555 0.33374 0.813 0.0
H257 H 0.29264 0.41612 0.03072 0.0
H258 H 0.38964 0.35551 0.69894 0.0
H259 H 0.2738 0.38427 0.96122 0.0
O260 O 0.4008 0.37853 0.05238 0.0
H261 H 0.35543 0.45646 0.29488 0.0
H262 H 0.41312 0.39726 0.30997 0.0
H263 H 0.42162 0.43561 0.35921 0.0
H264 H 0.39265 0.46552 0.35177 0.0
H265 H 0.34768 0.41792 0.24593 0.0
H266 H 0.37939 0.36519 0.53318 0.0
H267 H 0.4066 0.33364 0.52562 0.0
O268 O 0.40452 0.37411 0.18618 0.0
C269 C 0.36505 0.33617 0.12125 0.0
C270 C 0.40773 0.33385 0.39631 0.0
C271 C 0.38518 0.35916 0.47542 0.0
N272 N 0.38479 0.3616 0.33137 0.0
C273 C 0.39963 0.34415 0.32663 0.0
C274 C 0.37743 0.36904 0.40447 0.0
C275 C 0.40046 0.34146 0.47113 0.0
C276 C 0.32501 0.40035 0.02628 0.0
N277 N 0.33704 0.3819 0.00287 0.0
C278 C 0.30211 0.40151 0.01171 0.0
C279 C 0.29154 0.38361 0.97282 0.0
C280 C 0.30394 0.36485 0.94905 0.0
C281 C 0.3268 0.36427 0.96478 0.0
C282 C 0.37167 0.37843 0.77564 0.0
C283 C 0.38927 0.35413 0.90289 0.0
C284 C 0.36675 0.38418 0.85512 0.0
N285 N 0.3754 0.37196 0.91746 0.0
C286 C 0.39458 0.3479 0.8242 0.0
C287 C 0.38567 0.36014 0.76023 0.0
C288 C 0.41263 0.37565 0.11526 0.0
C289 C 0.36816 0.44355 0.29869 0.0
C290 C 0.40043 0.41018 0.30658 0.0
C291 C 0.40533 0.43186 0.33464 0.0
C292 C 0.38906 0.44863 0.33049 0.0
N293 N 0.37988 0.40533 0.27554 0.0
C294 C 0.36384 0.42167 0.27139 0.0
Co295 Co 0.37599 0.64058 0.98279 0.0
Co296 Co 0.39967 0.63049 0.79696 0.0
O297 O 0.37889 0.64593 0.86772 0.0
C298 C 0.33249 0.63035 0.91187 0.0
O299 O 0.34384 0.61839 0.85966 0.0
C300 C 0.41019 0.67873 0.7792 0.0
O301 O 0.41122 0.67953 0.85795 0.0
O302 O 0.42444 0.63568 0.87374 0.0
O303 O 0.40928 0.64033 0.99665 0.0
H304 H 0.46139 0.57643 0.72881 0.0
H305 H 0.35181 0.67871 0.90637 0.0
O306 O 0.34264 0.64043 0.96901 0.0
H307 H 0.40047 0.71354 0.11067 0.0
H308 H 0.34028 0.65201 0.25338 0.0
H309 H 0.39868 0.61146 0.10274 0.0
H310 H 0.39993 0.67219 0.09223 0.0
H311 H 0.34525 0.65849 0.10792 0.0
O312 O 0.40615 0.6601 0.74371 0.0
H313 H 0.43444 0.5954 0.81819 0.0
H314 H 0.41006 0.63424 0.62234 0.0
H315 H 0.39442 0.6046 0.24823 0.0
H316 H 0.35175 0.72012 0.92306 0.0
H317 H 0.36505 0.62497 0.32452 0.0
H318 H 0.37624 0.73779 0.02578 0.0
O319 O 0.37648 0.6073 0.9676 0.0
H320 H 0.33245 0.65293 0.63525 0.0
H321 H 0.38295 0.59036 0.70687 0.0
H322 H 0.35145 0.58325 0.61497 0.0
H323 H 0.32595 0.61468 0.57856 0.0
H324 H 0.36404 0.65926 0.72744 0.0
H325 H 0.43685 0.6158 0.53089 0.0
H326 H 0.4627 0.58661 0.58402 0.0
O327 O 0.39342 0.60076 0.84934 0.0
C328 C 0.42605 0.63861 0.94956 0.0
C329 C 0.45016 0.58906 0.70488 0.0
C330 C 0.4364 0.61118 0.59382 0.0
N331 N 0.42057 0.61573 0.72531 0.0
C332 C 0.43482 0.59981 0.75514 0.0
C333 C 0.4213 0.62159 0.64589 0.0
C334 C 0.4509 0.5948 0.62367 0.0
C335 C 0.36237 0.68626 0.95164 0.0
N336 N 0.37574 0.67304 0.99863 0.0
C337 C 0.36233 0.70973 0.96061 0.0
C338 C 0.3761 0.71963 0.01817 0.0
C339 C 0.38971 0.70604 0.0658 0.0
C340 C 0.38935 0.68264 0.05501 0.0
C341 C 0.35318 0.64308 0.22084 0.0
C342 C 0.38597 0.6205 0.13569 0.0
C343 C 0.35604 0.64665 0.13849 0.0
N344 N 0.37238 0.63553 0.09717 0.0
C345 C 0.38359 0.61649 0.21798 0.0
C346 C 0.36709 0.62791 0.26073 0.0
C347 C 0.38431 0.59399 0.91435 0.0
C348 C 0.34349 0.63912 0.65043 0.0
C349 C 0.37191 0.60411 0.69139 0.0
C350 C 0.35413 0.59999 0.63921 0.0
C351 C 0.33984 0.61764 0.61875 0.0
N352 N 0.3754 0.62523 0.72216 0.0
C353 C 0.36147 0.64262 0.70232 0.0
Co354 Co 0.63044 0.61864 0.03041 0.0
Co355 Co 0.62478 0.62293 0.23666 0.0
O356 O 0.63665 0.6089 0.13971 0.0
C357 C 0.61503 0.5716 0.03665 0.0
O358 O 0.60383 0.57751 0.10102 0.0
C359 C 0.67341 0.62636 0.24657 0.0
O360 O 0.67237 0.63306 0.17156 0.0
O361 O 0.63131 0.65365 0.19564 0.0
O362 O 0.63372 0.65123 0.0609 0.0
H363 H 0.57907 0.6783 0.39564 0.0
H364 H 0.6656 0.58428 0.05868 0.0
O365 O 0.62683 0.58609 0.99912 0.0
H366 H 0.70365 0.64795 0.92563 0.0
H367 H 0.63546 0.61236 0.72919 0.0
H368 H 0.603 0.65471 0.95601 0.0
H369 H 0.66328 0.64958 0.95323 0.0
H370 H 0.64377 0.6014 0.86918 0.0
O371 O 0.65556 0.62176 0.28507 0.0
H372 H 0.59347 0.66045 0.27205 0.0
H373 H 0.63238 0.61504 0.41121 0.0
H374 H 0.59437 0.66637 0.81704 0.0
H375 H 0.70593 0.58182 0.03125 0.0
H376 H 0.61066 0.64512 0.70245 0.0
H377 H 0.72523 0.61385 0.96455 0.0
O378 O 0.59819 0.62056 0.0541 0.0
H379 H 0.64218 0.54161 0.29646 0.0
H380 H 0.58498 0.6013 0.31112 0.0
H381 H 0.57608 0.56297 0.35968 0.0
H382 H 0.60481 0.53282 0.35258 0.0
H383 H 0.65032 0.58013 0.24813 0.0
H384 H 0.61855 0.63251 0.53636 0.0
H385 H 0.59163 0.66431 0.52898 0.0
O386 O 0.59404 0.62463 0.18802 0.0
C387 C 0.63385 0.66249 0.12642 0.0
C388 C 0.59072 0.66439 0.39963 0.0
C389 C 0.61291 0.63871 0.47862 0.0
N390 N 0.61356 0.63659 0.33452 0.0
C391 C 0.59887 0.65418 0.32988 0.0
C392 C 0.62071 0.62892 0.40759 0.0
C393 C 0.5978 0.65655 0.47443 0.0
C394 C 0.67383 0.59817 0.02877 0.0
N395 N 0.66208 0.61699 0.0071 0.0
C396 C 0.69669 0.59672 0.0137 0.0
C397 C 0.70752 0.61473 0.97642 0.0
C398 C 0.69542 0.63387 0.95464 0.0
C399 C 0.67258 0.63473 0.97061 0.0
C400 C 0.62832 0.6218 0.77861 0.0
C401 C 0.6103 0.64551 0.90646 0.0
C402 C 0.63295 0.61566 0.85796 0.0
N403 N 0.6241 0.62759 0.92063 0.0
C404 C 0.60529 0.65213 0.82791 0.0
C405 C 0.61441 0.64019 0.76364 0.0
C406 C 0.58618 0.62329 0.11662 0.0
C407 C 0.62955 0.55462 0.30011 0.0
C408 C 0.59756 0.58826 0.30777 0.0
C409 C 0.59243 0.5666 0.33545 0.0
C410 C 0.60856 0.54969 0.33148 0.0
N411 N 0.6182 0.59297 0.2773 0.0
C412 C 0.63409 0.57648 0.27312 0.0
Co413 Co 0.62342 0.36065 0.98881 0.0
Co414 Co 0.59825 0.36729 0.80358 0.0
O415 O 0.62015 0.35369 0.8749 0.0
C416 C 0.66633 0.37137 0.91438 0.0
O417 O 0.65442 0.3823 0.86092 0.0
C418 C 0.58987 0.31847 0.79197 0.0
O419 O 0.58942 0.31831 0.87085 0.0
O420 O 0.57421 0.36142 0.88222 0.0
O421 O 0.59017 0.3602 0.00485 0.0
H422 H 0.53307 0.41678 0.7333 0.0
H423 H 0.64827 0.32218 0.91774 0.0
O424 O 0.65668 0.36151 0.97312 0.0
H425 H 0.60133 0.28888 0.13028 0.0
H426 H 0.66051 0.35373 0.25897 0.0
H427 H 0.60056 0.39082 0.10489 0.0
H428 H 0.60076 0.32994 0.10493 0.0
H429 H 0.65513 0.34522 0.11503 0.0
O430 O 0.59308 0.33691 0.75414 0.0
H431 H 0.56139 0.40019 0.82319 0.0
H432 H 0.58756 0.36159 0.62985 0.0
H433 H 0.60521 0.39968 0.24886 0.0
H434 H 0.64946 0.28106 0.94137 0.0
H435 H 0.63536 0.38105 0.32688 0.0
H436 H 0.62583 0.26415 0.04822 0.0
O437 O 0.62213 0.39364 0.96765 0.0
H438 H 0.6658 0.34713 0.64005 0.0
H439 H 0.61249 0.40753 0.70867 0.0
H440 H 0.64317 0.41554 0.61419 0.0
H441 H 0.67009 0.38521 0.5793 0.0
H442 H 0.63498 0.33989 0.73472 0.0
H443 H 0.55942 0.37764 0.53793 0.0
H444 H 0.53198 0.40551 0.58952 0.0
O445 O 0.60301 0.39782 0.85219 0.0
C446 C 0.57312 0.35992 0.95862 0.0
C447 C 0.545 0.40473 0.71001 0.0
C448 C 0.55977 0.38274 0.60039 0.0
N449 N 0.57627 0.38017 0.73153 0.0
C450 C 0.56113 0.39535 0.76055 0.0
C451 C 0.57564 0.3737 0.65271 0.0
C452 C 0.54438 0.39838 0.62937 0.0
C453 C 0.63809 0.31497 0.9648 0.0
N454 N 0.62457 0.32846 0.01022 0.0
C455 C 0.63876 0.29167 0.9777 0.0
C456 C 0.62548 0.28219 0.03758 0.0
C457 C 0.61172 0.29605 0.08362 0.0
C458 C 0.61144 0.31928 0.06891 0.0
C459 C 0.64728 0.3619 0.22568 0.0
C460 C 0.61361 0.38253 0.13863 0.0
C461 C 0.64418 0.35719 0.14418 0.0
N462 N 0.62741 0.36735 0.10194 0.0
C463 C 0.61622 0.38767 0.22003 0.0
C464 C 0.63316 0.37724 0.26375 0.0
C465 C 0.6129 0.40581 0.91389 0.0
C466 C 0.65414 0.36046 0.65455 0.0
C467 C 0.62415 0.39425 0.69383 0.0
C468 C 0.64147 0.39888 0.6402 0.0
C469 C 0.65655 0.38184 0.6206 0.0
N470 N 0.62188 0.37323 0.72682 0.0
C471 C 0.63659 0.35643 0.70783 0.0
Co472 Co 0.86704 0.62082 0.71927 0.0
Co473 Co 0.87456 0.622 0.51326 0.0
O474 O 0.86254 0.60894 0.61159 0.0
C475 C 0.88613 0.57498 0.72305 0.0
O476 O 0.89748 0.58077 0.6589 0.0
C477 C 0.82588 0.6242 0.50018 0.0
O478 O 0.82636 0.63098 0.57512 0.0
O479 O 0.86755 0.6532 0.54893 0.0
O480 O 0.86104 0.6524 0.68203 0.0
H481 H 0.92035 0.676 0.34858 0.0
H482 H 0.83531 0.583 0.69364 0.0
O483 O 0.87324 0.58919 0.75708 0.0
H484 H 0.79075 0.64445 0.8129 0.0
H485 H 0.86096 0.618 0.02088 0.0
H486 H 0.88951 0.66103 0.78885 0.0
H487 H 0.83102 0.64946 0.78865 0.0
H488 H 0.8547 0.60437 0.88254 0.0
O489 O 0.84402 0.6199 0.46302 0.0
H490 H 0.90576 0.65934 0.47395 0.0
H491 H 0.86779 0.612 0.33966 0.0
H492 H 0.89601 0.67535 0.92608 0.0
H493 H 0.79515 0.5772 0.71767 0.0
H494 H 0.88172 0.65375 0.04331 0.0
H495 H 0.77257 0.60809 0.77744 0.0
O496 O 0.89925 0.62571 0.69788 0.0
H497 H 0.85855 0.53975 0.4658 0.0
H498 H 0.91495 0.60006 0.44461 0.0
H499 H 0.92464 0.56127 0.40306 0.0
H500 H 0.89631 0.53081 0.41348 0.0
H501 H 0.84963 0.57874 0.50714 0.0
H502 H 0.8818 0.62827 0.21274 0.0
H503 H 0.90834 0.66046 0.21678 0.0
O504 O 0.9049 0.62475 0.56378 0.0
C505 C 0.86264 0.66285 0.61509 0.0
C506 C 0.90886 0.66192 0.34604 0.0
C507 C 0.8872 0.63515 0.26981 0.0
N508 N 0.8861 0.63461 0.41406 0.0
C509 C 0.90061 0.65237 0.41683 0.0
C510 C 0.87929 0.62604 0.34182 0.0
C511 C 0.9021 0.65321 0.27211 0.0
C512 C 0.82565 0.59643 0.72054 0.0
N513 N 0.83553 0.61649 0.74027 0.0
C514 C 0.8029 0.59308 0.73368 0.0
C515 C 0.79023 0.61044 0.76708 0.0
C516 C 0.80042 0.63085 0.78693 0.0
C517 C 0.82321 0.6336 0.77294 0.0
C518 C 0.86726 0.62757 0.97029 0.0
C519 C 0.88311 0.65161 0.8395 0.0
C520 C 0.86381 0.61991 0.89184 0.0
N521 N 0.87164 0.63195 0.82768 0.0
C522 C 0.8869 0.65978 0.91709 0.0
C523 C 0.87889 0.64764 0.98284 0.0
C524 C 0.91184 0.62701 0.63612 0.0
C525 C 0.87101 0.55289 0.46074 0.0
C526 C 0.90255 0.58688 0.44937 0.0
C527 C 0.90812 0.56496 0.42566 0.0
C528 C 0.89221 0.54788 0.43149 0.0
N529 N 0.88171 0.59166 0.47779 0.0
C530 C 0.86603 0.57501 0.48376 0.0
Co531 Co 0.6214 0.13686 0.27691 0.0
Co532 Co 0.59899 0.12477 0.46331 0.0
O533 O 0.61875 0.14145 0.39238 0.0
C534 C 0.66537 0.12751 0.3454 0.0
O535 O 0.65448 0.11517 0.39773 0.0
C536 C 0.58627 0.17242 0.48211 0.0
O537 O 0.58499 0.1732 0.40342 0.0
O538 O 0.57377 0.12856 0.38733 0.0
O539 O 0.58809 0.13581 0.26479 0.0
H540 H 0.54054 0.06716 0.53258 0.0
H541 H 0.64482 0.17517 0.3552 0.0
O542 O 0.6548 0.13751 0.28908 0.0
H543 H 0.59459 0.20987 0.15563 0.0
H544 H 0.65583 0.15075 0.00562 0.0
H545 H 0.59885 0.10802 0.15577 0.0
H546 H 0.59629 0.16845 0.17085 0.0
H547 H 0.65127 0.15622 0.15177 0.0
O548 O 0.59109 0.15393 0.51731 0.0
H549 H 0.5662 0.08771 0.44266 0.0
H550 H 0.58878 0.12775 0.63821 0.0
H551 H 0.60271 0.10215 0.00959 0.0
H552 H 0.64372 0.21666 0.34173 0.0
H553 H 0.63136 0.12362 0.93355 0.0
H554 H 0.61844 0.23427 0.24139 0.0
O555 O 0.62184 0.10347 0.2896 0.0
H556 H 0.66531 0.15063 0.62341 0.0
H557 H 0.61807 0.08548 0.55188 0.0
H558 H 0.65013 0.07996 0.64266 0.0
H559 H 0.67399 0.1127 0.679 0.0
H560 H 0.6332 0.15536 0.53237 0.0
H561 H 0.56326 0.10774 0.7302 0.0
H562 H 0.53897 0.07715 0.67749 0.0
O563 O 0.60668 0.09556 0.40998 0.0
C564 C 0.57164 0.13224 0.31206 0.0
C565 C 0.5511 0.0804 0.55632 0.0
C566 C 0.56383 0.1032 0.66722 0.0
N567 N 0.5791 0.10876 0.53534 0.0
C568 C 0.56571 0.09204 0.50575 0.0
C569 C 0.57821 0.1145 0.61484 0.0
C570 C 0.55021 0.08604 0.6376 0.0
C571 C 0.63391 0.1827 0.31096 0.0
N572 N 0.62075 0.16941 0.2635 0.0
C573 C 0.6333 0.20621 0.30382 0.0
C574 C 0.61909 0.21608 0.2476 0.0
C575 C 0.60569 0.2024 0.19947 0.0
C576 C 0.60671 0.17896 0.20843 0.0
C577 C 0.64325 0.14133 0.03806 0.0
C578 C 0.61125 0.11753 0.12296 0.0
C579 C 0.64062 0.14433 0.1208 0.0
N580 N 0.62468 0.13259 0.16201 0.0
C581 C 0.61341 0.11408 0.04027 0.0
C582 C 0.62951 0.12611 0.99765 0.0
C583 C 0.61528 0.08955 0.34317 0.0
C584 C 0.65498 0.13625 0.60826 0.0
C585 C 0.62838 0.0998 0.5674 0.0
C586 C 0.64649 0.09658 0.61891 0.0
C587 C 0.65987 0.11496 0.63933 0.0
N588 N 0.62369 0.12075 0.53725 0.0
C589 C 0.63672 0.13885 0.55703 0.0
Co590 Co 0.13093 0.37838 0.72225 0.0
Co591 Co 0.12537 0.37473 0.51586 0.0
O592 O 0.13753 0.38814 0.61328 0.0
C593 C 0.11697 0.42568 0.71275 0.0
O594 O 0.10691 0.4197 0.64607 0.0
C595 C 0.17383 0.36973 0.5052 0.0
O596 O 0.1725 0.36211 0.57907 0.0
O597 O 0.13133 0.34376 0.55602 0.0
O598 O 0.13398 0.3458 0.69097 0.0
H599 H 0.07873 0.32075 0.3543 0.0
H600 H 0.16659 0.41219 0.6939 0.0
O601 O 0.1275 0.41096 0.75398 0.0
H602 H 0.20371 0.3479 0.82665 0.0
H603 H 0.13542 0.38432 0.02361 0.0
H604 H 0.10312 0.34239 0.79543 0.0
H605 H 0.16325 0.34705 0.80026 0.0
H606 H 0.1441 0.39533 0.88396 0.0
O607 O 0.15615 0.37559 0.46789 0.0
H608 H 0.09341 0.33792 0.47871 0.0
H609 H 0.1332 0.38304 0.34169 0.0
H610 H 0.09413 0.33069 0.93405 0.0
H611 H 0.20706 0.4138 0.71958 0.0
H612 H 0.11033 0.35173 0.04932 0.0
H613 H 0.22589 0.38145 0.78618 0.0
O614 O 0.09869 0.37685 0.698 0.0
H615 H 0.14423 0.45596 0.46022 0.0
H616 H 0.086 0.39737 0.44204 0.0
H617 H 0.07776 0.43608 0.39586 0.0
H618 H 0.107 0.46569 0.40487 0.0
H619 H 0.15172 0.41707 0.50612 0.0
H620 H 0.1191 0.36625 0.21574 0.0
H621 H 0.0916 0.33493 0.22163 0.0
O622 O 0.09461 0.37344 0.56397 0.0
C623 C 0.13394 0.33473 0.62498 0.0
C624 C 0.09064 0.33445 0.35096 0.0
C625 C 0.11333 0.35997 0.27319 0.0
N626 N 0.11396 0.3616 0.41737 0.0
C627 C 0.09895 0.34428 0.42118 0.0
C628 C 0.12128 0.36938 0.34466 0.0
C629 C 0.09789 0.3424 0.27654 0.0
C630 C 0.17463 0.39816 0.72371 0.0
N631 N 0.16256 0.37962 0.74606 0.0
C632 C 0.19756 0.39912 0.73775 0.0
C633 C 0.20812 0.38095 0.77501 0.0
C634 C 0.19569 0.36211 0.7977 0.0
C635 C 0.17279 0.36172 0.78253 0.0
C636 C 0.12832 0.37498 0.9739 0.0
C637 C 0.11039 0.3515 0.8453 0.0
C638 C 0.13315 0.38115 0.89474 0.0
N639 N 0.12433 0.36934 0.83171 0.0
C640 C 0.10517 0.34485 0.92364 0.0
C641 C 0.11424 0.35669 0.98828 0.0
C642 C 0.08668 0.37453 0.63527 0.0
C643 C 0.13138 0.44319 0.45575 0.0
C644 C 0.09881 0.41016 0.4461 0.0
C645 C 0.09406 0.43204 0.41978 0.0
C646 C 0.11047 0.44864 0.42481 0.0
N647 N 0.11937 0.40495 0.47631 0.0
C648 C 0.13556 0.42112 0.48131 0.0
Co649 Co 0.37541 0.86613 0.26686 0.0
Co650 Co 0.40102 0.87294 0.45111 0.0
O651 O 0.3789 0.85932 0.38078 0.0
C652 C 0.33254 0.87662 0.34209 0.0
O653 O 0.34436 0.88785 0.39503 0.0
C654 C 0.40903 0.82408 0.46443 0.0
O655 O 0.40956 0.82367 0.38557 0.0
O656 O 0.42488 0.86667 0.37206 0.0
O657 O 0.40862 0.86573 0.24997 0.0
H658 H 0.46674 0.92207 0.51809 0.0
H659 H 0.35087 0.82763 0.33918 0.0
O660 O 0.34221 0.86684 0.28331 0.0
H661 H 0.39741 0.7943 0.1256 0.0
H662 H 0.33785 0.85883 0.99766 0.0
H663 H 0.398 0.89622 0.14982 0.0
H664 H 0.39791 0.83539 0.15044 0.0
H665 H 0.34351 0.85049 0.14159 0.0
O666 O 0.40602 0.84267 0.5015 0.0
H667 H 0.43809 0.90551 0.4295 0.0
H668 H 0.41201 0.8676 0.62475 0.0
H669 H 0.39307 0.90492 0.00584 0.0
H670 H 0.34976 0.78648 0.31608 0.0
H671 H 0.36282 0.88614 0.92879 0.0
H672 H 0.37318 0.76956 0.20869 0.0
O673 O 0.37664 0.89917 0.28762 0.0
H674 H 0.33363 0.85373 0.61698 0.0
H675 H 0.38728 0.91353 0.54506 0.0
H676 H 0.35686 0.92202 0.6401 0.0
H677 H 0.32978 0.89198 0.67666 0.0
H678 H 0.3642 0.84602 0.52172 0.0
H679 H 0.44048 0.88362 0.7154 0.0
H680 H 0.46804 0.91113 0.66219 0.0
O681 O 0.39639 0.90337 0.40164 0.0
C682 C 0.42578 0.86523 0.29561 0.0
C683 C 0.45476 0.91018 0.54208 0.0
C684 C 0.44003 0.88858 0.6528 0.0
N685 N 0.42324 0.88584 0.52219 0.0
C686 C 0.43845 0.90081 0.49228 0.0
C687 C 0.42397 0.87955 0.60119 0.0
C688 C 0.45549 0.90402 0.6229 0.0
C689 C 0.36096 0.82042 0.2919 0.0
N690 N 0.37433 0.83391 0.2459 0.0
C691 C 0.36033 0.7971 0.2793 0.0
C692 C 0.3735 0.78761 0.21912 0.0
C693 C 0.38711 0.80148 0.1725 0.0
C694 C 0.38735 0.82473 0.18693 0.0
C695 C 0.35113 0.86708 0.03053 0.0
C696 C 0.3849 0.88788 0.11651 0.0
C697 C 0.35438 0.86245 0.11203 0.0
N698 N 0.3712 0.8727 0.15374 0.0
C699 C 0.38214 0.89292 0.03509 0.0
C700 C 0.36515 0.8824 0.99192 0.0
C701 C 0.38621 0.91135 0.34057 0.0
C702 C 0.34538 0.86693 0.60175 0.0
C703 C 0.37555 0.90038 0.56061 0.0
C704 C 0.35838 0.90528 0.61456 0.0
C705 C 0.3432 0.88841 0.6351 0.0
N706 N 0.37758 0.87926 0.52822 0.0
C707 C 0.36278 0.86263 0.54813 0.0
Co708 Co 0.86732 0.87682 0.52817 0.0
Co709 Co 0.87368 0.873 0.7342 0.0
O710 O 0.86099 0.88632 0.63753 0.0
C711 C 0.8811 0.92421 0.53874 0.0
O712 O 0.8911 0.9182 0.60549 0.0
C713 C 0.8254 0.86645 0.74434 0.0
O714 O 0.82705 0.85919 0.67015 0.0
O715 O 0.86893 0.84193 0.69289 0.0
O716 O 0.86428 0.84419 0.55883 0.0
H717 H 0.92234 0.82027 0.89333 0.0
H718 H 0.83173 0.91051 0.55915 0.0
O719 O 0.87068 0.9095 0.49711 0.0
H720 H 0.79428 0.84666 0.42494 0.0
H721 H 0.86229 0.88348 0.22711 0.0
H722 H 0.89465 0.84075 0.45332 0.0
H723 H 0.83482 0.84579 0.44964 0.0
H724 H 0.85396 0.89424 0.36727 0.0
O725 O 0.84288 0.87261 0.78235 0.0
H726 H 0.90701 0.83729 0.76971 0.0
H727 H 0.86564 0.88044 0.90869 0.0
H728 H 0.90329 0.8293 0.31415 0.0
H729 H 0.79118 0.91215 0.53518 0.0
H730 H 0.88707 0.85075 0.19988 0.0
H731 H 0.77218 0.88002 0.46789 0.0
O732 O 0.89968 0.87527 0.55137 0.0
H733 H 0.85205 0.95332 0.79333 0.0
H734 H 0.91228 0.89679 0.8084 0.0
H735 H 0.91924 0.93563 0.85605 0.0
H736 H 0.88898 0.9642 0.84861 0.0
H737 H 0.84586 0.91434 0.74595 0.0
H738 H 0.88039 0.86377 0.03389 0.0
H739 H 0.90901 0.83353 0.02662 0.0
O740 O 0.90436 0.87292 0.68555 0.0
C741 C 0.86566 0.83292 0.62424 0.0
C742 C 0.90994 0.83351 0.89728 0.0
C743 C 0.88637 0.8579 0.97617 0.0
N744 N 0.88562 0.85998 0.83207 0.0
C745 C 0.90126 0.84325 0.82751 0.0
C746 C 0.87805 0.86724 0.90512 0.0
C747 C 0.90243 0.84093 0.97205 0.0
C748 C 0.82362 0.89658 0.52904 0.0
N749 N 0.83564 0.87814 0.50538 0.0
C750 C 0.80064 0.89756 0.51596 0.0
C751 C 0.78998 0.87951 0.4783 0.0
C752 C 0.80237 0.86077 0.45423 0.0
C753 C 0.82531 0.86036 0.46845 0.0
C754 C 0.86942 0.87397 0.27638 0.0
C755 C 0.88739 0.85005 0.40389 0.0
C756 C 0.86479 0.88001 0.35583 0.0
N757 N 0.87365 0.868 0.4183 0.0
C758 C 0.89241 0.84354 0.32523 0.0
C759 C 0.88332 0.8556 0.26115 0.0
C760 C 0.91196 0.87364 0.61374 0.0
C761 C 0.86534 0.94101 0.79713 0.0
C762 C 0.89904 0.90913 0.80505 0.0
C763 C 0.90306 0.93108 0.83218 0.0
C764 C 0.88608 0.9471 0.82803 0.0
N765 N 0.87864 0.90328 0.7749 0.0
C766 C 0.8619 0.91888 0.77073 0.0
Co767 Co 0.87593 0.13693 0.47386 0.0
Co768 Co 0.89921 0.12652 0.28746 0.0
O769 O 0.87873 0.14222 0.35876 0.0
C770 C 0.83222 0.12726 0.40324 0.0
O771 O 0.84333 0.1154 0.35011 0.0
C772 C 0.91002 0.17473 0.27382 0.0
O773 O 0.90957 0.17512 0.35266 0.0
O774 O 0.92403 0.13048 0.3648 0.0
O775 O 0.90922 0.13652 0.48729 0.0
H776 H 0.95926 0.07078 0.217 0.0
H777 H 0.85182 0.17519 0.39793 0.0
O778 O 0.84258 0.13699 0.46065 0.0
H779 H 0.90093 0.20977 0.60134 0.0
H780 H 0.84056 0.14846 0.745 0.0
H781 H 0.89871 0.10779 0.59351 0.0
H782 H 0.90014 0.16842 0.58301 0.0
H783 H 0.84537 0.15492 0.59947 0.0
O784 O 0.90682 0.15623 0.2363 0.0
H785 H 0.93275 0.09013 0.30704 0.0
H786 H 0.91006 0.13086 0.11343 0.0
H787 H 0.89461 0.10095 0.73906 0.0
H788 H 0.852 0.2166 0.41456 0.0
H789 H 0.86536 0.12138 0.81578 0.0
H790 H 0.87672 0.23415 0.51678 0.0
O791 O 0.87621 0.10365 0.45847 0.0
H792 H 0.83289 0.15183 0.1263 0.0
H793 H 0.8814 0.08738 0.19476 0.0
H794 H 0.8498 0.08169 0.10204 0.0
H795 H 0.8253 0.11407 0.06725 0.0
H796 H 0.86457 0.15674 0.21917 0.0
H797 H 0.93645 0.11207 0.02136 0.0
H798 H 0.96122 0.08174 0.07304 0.0
O799 O 0.89193 0.09678 0.33818 0.0
C800 C 0.92587 0.13372 0.44035 0.0
C801 C 0.94849 0.08391 0.19371 0.0
C802 C 0.93571 0.10711 0.08393 0.0
N803 N 0.91974 0.11144 0.2153 0.0
C804 C 0.9334 0.09487 0.24433 0.0
C805 C 0.92084 0.11771 0.13634 0.0
C806 C 0.9496 0.09009 0.11296 0.0
C807 C 0.86246 0.18269 0.44307 0.0
N808 N 0.87584 0.1694 0.48981 0.0
C809 C 0.86256 0.20615 0.45199 0.0
C810 C 0.87647 0.21599 0.50926 0.0
C811 C 0.89007 0.20232 0.55668 0.0
C812 C 0.88957 0.17892 0.54596 0.0
C813 C 0.8534 0.1395 0.71227 0.0
C814 C 0.88605 0.11685 0.62663 0.0
C815 C 0.85617 0.14305 0.62987 0.0
N816 N 0.87243 0.13189 0.58829 0.0
C817 C 0.88376 0.11285 0.70896 0.0
C818 C 0.86733 0.1243 0.75195 0.0
C819 C 0.88321 0.09019 0.40417 0.0
C820 C 0.8435 0.13761 0.14075 0.0
C821 C 0.87081 0.10155 0.17989 0.0
C822 C 0.85296 0.09824 0.12728 0.0
C823 C 0.83923 0.11642 0.10775 0.0
N824 N 0.87491 0.1224 0.21193 0.0
C825 C 0.86153 0.14031 0.19302 0.0
Co826 Co 0.12967 0.12216 0.52322 0.0
Co827 Co 0.12495 0.12456 0.73014 0.0
O828 O 0.13587 0.1112 0.63099 0.0
C829 C 0.11193 0.07608 0.53074 0.0
O830 O 0.10235 0.08263 0.59765 0.0
C831 C 0.17373 0.12716 0.73752 0.0
O832 O 0.1724 0.13479 0.66368 0.0
O833 O 0.13194 0.15554 0.69167 0.0
O834 O 0.13549 0.15411 0.55687 0.0
H835 H 0.08173 0.17964 0.89917 0.0
H836 H 0.1624 0.08514 0.54724 0.0
O837 O 0.12339 0.09012 0.48972 0.0
H838 H 0.20436 0.14672 0.41697 0.0
H839 H 0.1323 0.11711 0.2214 0.0
H840 H 0.10555 0.16133 0.45326 0.0
H841 H 0.16424 0.15097 0.44587 0.0
H842 H 0.14035 0.10466 0.35997 0.0
O843 O 0.15597 0.12212 0.77586 0.0
H844 H 0.09484 0.16252 0.77242 0.0
H845 H 0.1334 0.11485 0.90301 0.0
H846 H 0.09724 0.17449 0.31581 0.0
H847 H 0.20246 0.08012 0.51897 0.0
H848 H 0.11065 0.15229 0.19864 0.0
H849 H 0.22372 0.11109 0.45361 0.0
O850 O 0.09774 0.12668 0.54929 0.0
H851 H 0.1405 0.04219 0.77718 0.0
H852 H 0.08514 0.10324 0.80561 0.0
H853 H 0.07542 0.06461 0.84888 0.0
H854 H 0.10321 0.03377 0.83467 0.0
H855 H 0.14947 0.08104 0.73431 0.0
H856 H 0.12085 0.13155 0.03123 0.0
H857 H 0.09477 0.16412 0.02975 0.0
O858 O 0.09402 0.12747 0.68425 0.0
C859 C 0.13541 0.16484 0.62359 0.0
C860 C 0.09303 0.16539 0.90059 0.0
C861 C 0.11501 0.13842 0.97471 0.0
N862 N 0.11468 0.13759 0.83042 0.0
C863 C 0.10044 0.15559 0.82904 0.0
C864 C 0.12208 0.12906 0.90196 0.0
C865 C 0.10037 0.15669 0.97384 0.0
C866 C 0.17149 0.09859 0.51797 0.0
N867 N 0.16097 0.11826 0.49767 0.0
C868 C 0.19419 0.0957 0.50246 0.0
C869 C 0.20612 0.11309 0.4659 0.0
C870 C 0.19526 0.13309 0.44535 0.0
C871 C 0.17255 0.13541 0.46191 0.0
C872 C 0.12639 0.12694 0.27194 0.0
C873 C 0.11154 0.15166 0.40262 0.0
C874 C 0.13086 0.11995 0.35052 0.0
N875 N 0.12353 0.13234 0.41461 0.0
C876 C 0.10674 0.15916 0.32491 0.0
C877 C 0.11425 0.14669 0.25921 0.0
C878 C 0.08607 0.12879 0.613 0.0
C879 C 0.12828 0.0555 0.78392 0.0
C880 C 0.09732 0.08991 0.79934 0.0
C881 C 0.09173 0.06808 0.82401 0.0
C882 C 0.10734 0.05078 0.81606 0.0
N883 N 0.11789 0.0944 0.7679 0.0
C884 C 0.1333 0.07755 0.76007 0.0
Co885 Co 0.12287 0.86348 0.48486 0.0
Co886 Co 0.09836 0.871 0.29864 0.0
O887 O 0.12008 0.85721 0.37025 0.0
C888 C 0.16574 0.87547 0.41219 0.0
O889 O 0.15382 0.88641 0.35879 0.0
C890 C 0.09065 0.8221 0.28789 0.0
O891 O 0.09195 0.82189 0.36661 0.0
O892 O 0.07411 0.86542 0.37691 0.0
O893 O 0.08966 0.86198 0.49966 0.0
H894 H 0.03425 0.9218 0.2274 0.0
H895 H 0.14907 0.82625 0.41156 0.0
O896 O 0.15611 0.86536 0.47038 0.0
H897 H 0.10251 0.79015 0.61932 0.0
H898 H 0.15951 0.85589 0.75561 0.0
H899 H 0.0989 0.89222 0.60265 0.0
H900 H 0.10082 0.83134 0.59749 0.0
H901 H 0.15469 0.84814 0.61089 0.0
O902 O 0.09261 0.84062 0.24945 0.0
H903 H 0.06229 0.90482 0.31753 0.0
H904 H 0.08744 0.86516 0.12516 0.0
H905 H 0.10299 0.90032 0.74738 0.0
H906 H 0.15137 0.78504 0.43169 0.0
H907 H 0.13347 0.88207 0.82485 0.0
H908 H 0.12793 0.76672 0.53609 0.0
O909 O 0.12055 0.89655 0.46661 0.0
H910 H 0.16592 0.84982 0.13687 0.0
H911 H 0.11309 0.91089 0.20287 0.0
H912 H 0.14401 0.91841 0.10886 0.0
H913 H 0.17068 0.88774 0.07531 0.0
H914 H 0.13485 0.84308 0.23099 0.0
H915 H 0.05957 0.88158 0.03303 0.0
H916 H 0.03278 0.91018 0.08402 0.0
O917 O 0.10363 0.90148 0.34724 0.0
C918 C 0.07277 0.86269 0.45283 0.0
C919 C 0.04589 0.90942 0.2044 0.0
C920 C 0.06008 0.88682 0.09533 0.0
N921 N 0.07661 0.8842 0.2264 0.0
C922 C 0.06184 0.89981 0.25508 0.0
C923 C 0.0758 0.87756 0.14778 0.0
C924 C 0.04506 0.90287 0.12398 0.0
C925 C 0.13899 0.81844 0.45765 0.0
N926 N 0.12493 0.8312 0.50363 0.0
C927 C 0.14029 0.79508 0.46854 0.0
C928 C 0.12711 0.7848 0.52703 0.0
C929 C 0.11283 0.79794 0.57372 0.0
C930 C 0.11192 0.82125 0.56101 0.0
C931 C 0.14613 0.86389 0.72257 0.0
C932 C 0.11209 0.88409 0.63613 0.0
C933 C 0.14334 0.8596 0.64062 0.0
N934 N 0.12639 0.86954 0.59867 0.0
C935 C 0.11438 0.8888 0.71798 0.0
C936 C 0.13151 0.87858 0.76138 0.0
C937 C 0.11228 0.90912 0.4119 0.0
C938 C 0.15436 0.8633 0.15079 0.0
C939 C 0.12464 0.89746 0.18858 0.0
C940 C 0.14209 0.90181 0.13522 0.0
C941 C 0.15704 0.88459 0.11637 0.0
N942 N 0.12211 0.87653 0.22203 0.0
C943 C 0.13668 0.85955 0.20377 0.0
H944 H 0.41566 0.94257 0.3982 0.0
H945 H 0.35485 0.93605 0.26068 0.0
H946 H 0.4151 0.98346 0.37636 0.0
H947 H 0.35412 0.97701 0.24078 0.0
H948 H 0.35188 0.05435 0.30429 0.0
H949 H 0.35205 0.01411 0.33955 0.0
H950 H 0.41757 0.00713 0.2356 0.0
H951 H 0.41726 0.04711 0.19843 0.0
C952 C 0.40208 0.94988 0.36409 0.0
C953 C 0.38536 0.93612 0.33074 0.0
C954 C 0.40181 0.97322 0.35156 0.0
C955 C 0.38454 0.98323 0.30718 0.0
C956 C 0.36751 0.96961 0.27569 0.0
C957 C 0.36803 0.94622 0.28665 0.0
C958 C 0.36639 0.04425 0.28972 0.0
C959 C 0.38455 0.05378 0.2486 0.0
C960 C 0.36642 0.02129 0.30953 0.0
C961 C 0.38483 0.0077 0.29025 0.0
C962 C 0.40326 0.01737 0.25145 0.0
C963 C 0.40303 0.04017 0.23001 0.0
H964 H 0.05825 0.64362 0.6579 0.0
H965 H 0.03358 0.62523 0.89336 0.0
H966 H 0.01987 0.64361 0.60664 0.0
H967 H 0.99596 0.62475 0.84217 0.0
H968 H 0.93004 0.64851 0.76371 0.0
H969 H 0.96908 0.65224 0.79818 0.0
H970 H 0.98742 0.61784 0.57894 0.0
H971 H 0.94783 0.61468 0.54277 0.0
C972 C 0.04474 0.63958 0.69864 0.0
C973 C 0.04905 0.6347 0.78004 0.0
C974 C 0.0228 0.63946 0.66915 0.0
C975 C 0.00485 0.6345 0.72061 0.0
C976 C 0.00931 0.62922 0.8013 0.0
C977 C 0.03102 0.62939 0.83063 0.0
C978 C 0.94233 0.64183 0.7224 0.0
C979 C 0.93583 0.63091 0.65123 0.0
C980 C 0.96475 0.64393 0.7423 0.0
C981 C 0.98135 0.63488 0.69224 0.0
C982 C 0.975 0.62498 0.61877 0.0
C983 C 0.95237 0.62309 0.59822 0.0
H984 H 0.60354 0.96026 0.11378 0.0
H985 H 0.63318 0.9425 0.34214 0.0
H986 H 0.60424 -9e-05 0.15133 0.0
H987 H 0.63405 0.98252 0.37945 0.0
H988 H 0.60522 0.05393 0.44236 0.0
H989 H 0.60696 0.01373 0.41046 0.0
H990 H 0.63244 0.02963 0.17439 0.0
H991 H 0.63054 0.06971 0.20536 0.0
C992 C 0.61021 0.96481 0.17209 0.0
C993 C 0.61826 0.94823 0.22512 0.0
C994 C 0.61077 0.98757 0.19329 0.0
C995 C 0.61932 0.99431 0.26811 0.0
C996 C 0.62725 0.97776 0.32156 0.0
C997 C 0.62684 0.95491 0.30008 0.0
C998 C 0.61133 0.04887 0.38381 0.0
C999 C 0.6176 0.0651 0.32627 0.0
C1000 C 0.61243 0.02583 0.36579 0.0
C1001 C 0.61969 0.01858 0.28981 0.0
C1002 C 0.62647 0.03475 0.23308 0.0
C1003 C 0.62547 0.05774 0.25108 0.0
H1004 H 0.06399 0.38436 0.772 0.0
H1005 H 0.05397 0.36159 0.52754 0.0
H1006 H 0.02476 0.3794 0.79925 0.0
H1007 H 0.01408 0.35635 0.55604 0.0
H1008 H 0.93988 0.37611 0.64498 0.0
H1009 H 0.97849 0.37835 0.5962 0.0
H1010 H 0.00116 0.34545 0.81299 0.0
H1011 H 0.96312 0.34363 0.86199 0.0
C1012 C 0.05343 0.37825 0.72383 0.0
C1013 C 0.06227 0.37305 0.6478 0.0
C1014 C 0.03088 0.37531 0.73973 0.0
C1015 C 0.01644 0.367 0.68034 0.0
C1016 C 0.02491 0.36268 0.60303 0.0
C1017 C 0.0477 0.36565 0.58685 0.0
C1018 C 0.95313 0.36902 0.68132 0.0
C1019 C 0.94857 0.36014 0.75802 0.0
C1020 C 0.97517 0.37027 0.65337 0.0
C1021 C 0.99284 0.36255 0.70169 0.0
C1022 C 0.98795 0.3521 0.77539 0.0
C1023 C 0.96614 0.35101 0.80337 0.0
H1024 H 0.36789 0.44702 0.90132 0.0
H1025 H 0.39767 0.46271 0.13135 0.0
H1026 H 0.36743 0.4873 0.86787 0.0
H1027 H 0.39731 0.50267 0.09766 0.0
H1028 H 0.36971 0.57277 0.05046 0.0
H1029 H 0.36869 0.53243 0.07766 0.0
H1030 H 0.39473 0.51889 0.84058 0.0
H1031 H 0.39568 0.55936 0.81255 0.0
C1032 C 0.37439 0.45902 0.94452 0.0
C1033 C 0.38283 0.45169 0.01891 0.0
C1034 C 0.3742 0.48204 0.92524 0.0
C1035 C 0.38223 0.49809 0.98035 0.0
C1036 C 0.39074 0.4907 0.05444 0.0
C1037 C 0.39109 0.46777 0.07343 0.0
C1038 C 0.37512 0.56126 0.00376 0.0
C1039 C 0.38285 0.56937 0.92934 0.0
C1040 C 0.37463 0.53814 0.01962 0.0
C1041 C 0.38175 0.52255 0.96141 0.0
C1042 C 0.389 0.53053 0.88634 0.0
C1043 C 0.38964 0.55373 0.87054 0.0
H1044 H 0.46442 0.6482 0.87013 0.0
H1045 H 0.4393 0.63106 0.10589 0.0
H1046 H 0.50231 0.64522 0.91954 0.0
H1047 H 0.4777 0.62755 0.15527 0.0
H1048 H 0.56319 0.60717 0.98886 0.0
H1049 H 0.52415 0.61224 0.95741 0.0
H1050 H 0.51438 0.64769 0.18157 0.0
H1051 H 0.55399 0.64219 0.21441 0.0
C1052 C 0.46698 0.64385 0.93273 0.0
C1053 C 0.44882 0.63948 0.9837 0.0
C1054 C 0.48874 0.64206 0.961 0.0
C1055 C 0.493 0.63561 0.04081 0.0
C1056 C 0.47491 0.63248 0.09339 0.0
C1057 C 0.45295 0.63445 0.06506 0.0
C1058 C 0.55281 0.61601 0.03188 0.0
C1059 C 0.56181 0.62463 0.10357 0.0
C1060 C 0.5304 0.619 0.01359 0.0
C1061 C 0.5163 0.63088 0.06602 0.0
C1062 C 0.52491 0.63857 0.13983 0.0
C1063 C 0.54753 0.63544 0.15856 0.0
H1064 H 0.58343 0.4371 0.857 0.0
H1065 H 0.64444 0.43033 0.99314 0.0
H1066 H 0.58397 0.47796 0.88016 0.0
H1067 H 0.64517 0.47124 0.01422 0.0
H1068 H 0.6467 0.54894 0.9507 0.0
H1069 H 0.64662 0.50877 0.91428 0.0
H1070 H 0.58205 0.5009 0.02489 0.0
H1071 H 0.58229 0.54078 0.06332 0.0
C1072 C 0.59706 0.44436 0.89097 0.0
C1073 C 0.61382 0.43055 0.92369 0.0
C1074 C 0.59732 0.46766 0.90427 0.0
C1075 C 0.61463 0.47756 0.9487 0.0
C1076 C 0.63174 0.46391 0.97933 0.0
C1077 C 0.63123 0.44056 0.96767 0.0
C1078 C 0.63244 0.53864 0.96664 0.0
C1079 C 0.61451 0.54789 0.00992 0.0
C1080 C 0.63245 0.51574 0.94609 0.0
C1081 C 0.6143 0.50195 0.96675 0.0
C1082 C 0.59613 0.51132 0.00796 0.0
C1083 C 0.59634 0.53405 0.03016 0.0
H1084 H 0.43591 0.3872 0.98157 0.0
H1085 H 0.44474 0.3604 0.22137 0.0
H1086 H 0.47508 0.38156 0.95434 0.0
H1087 H 0.48452 0.35446 0.19291 0.0
H1088 H 0.55953 0.3723 0.1105 0.0
H1089 H 0.5209 0.37555 0.15813 0.0
H1090 H 0.49758 0.34717 0.93426 0.0
H1091 H 0.53567 0.34434 0.88648 0.0
C1092 C 0.4462 0.38007 0.02871 0.0
C1093 C 0.43705 0.37392 0.10334 0.0
C1094 C 0.4687 0.37675 0.01282 0.0
C1095 C 0.48276 0.36708 0.07082 0.0
C1096 C 0.474 0.36184 0.14699 0.0
C1097 C 0.45127 0.36523 0.16316 0.0
C1098 C 0.54612 0.36642 0.07223 0.0
C1099 C 0.55058 0.3585 0.99412 0.0
C1100 C 0.52406 0.36826 0.09952 0.0
C1101 C 0.50624 0.36211 0.04911 0.0
C1102 C 0.51093 0.35264 0.9736 0.0
C1103 C 0.53278 0.35095 0.94631 0.0
H1104 H 0.85599 0.43423 0.7677 0.0
H1105 H 0.91797 0.43955 0.89885 0.0
H1106 H 0.8558 0.47518 0.74811 0.0
H1107 H 0.91795 0.4805 0.87728 0.0
H1108 H 0.91945 0.54447 0.69952 0.0
H1109 H 0.91979 0.50456 0.73774 0.0
H1110 H 0.85483 0.51205 0.84578 0.0
H1111 H 0.85465 0.55218 0.80945 0.0
C1112 C 0.86954 0.44414 0.7924 0.0
C1113 C 0.88703 0.4337 0.83459 0.0
C1114 C 0.86934 0.46754 0.78159 0.0
C1115 C 0.88685 0.48086 0.8113 0.0
C1116 C 0.90429 0.4705 0.85383 0.0
C1117 C 0.90424 0.44714 0.86626 0.0
C1118 C 0.90537 0.53767 0.73231 0.0
C1119 C 0.88703 0.55139 0.75157 0.0
C1120 C 0.90562 0.5149 0.75438 0.0
C1121 C 0.88733 0.50536 0.79451 0.0
C1122 C 0.8691 0.5191 0.81472 0.0
C1123 C 0.86906 0.54201 0.79426 0.0
H1124 H 0.55767 0.1436 0.15906 0.0
H1125 H 0.53343 0.12076 0.39009 0.0
H1126 H 0.51924 0.14449 0.10865 0.0
H1127 H 0.4957 0.1212 0.33957 0.0
H1128 H 0.43006 0.14802 0.26904 0.0
H1129 H 0.4692 0.15016 0.3032 0.0
H1130 H 0.48636 0.11951 0.07585 0.0
H1131 H 0.44663 0.11792 0.04015 0.0
C1132 C 0.54424 0.13873 0.19896 0.0
C1133 C 0.54867 0.13242 0.27903 0.0
C1134 C 0.52228 0.13912 0.16992 0.0
C1135 C 0.50441 0.13325 0.22049 0.0
C1136 C 0.509 0.12639 0.2996 0.0
C1137 C 0.53075 0.12605 0.32852 0.0
C1138 C 0.4421 0.14183 0.22585 0.0
C1139 C 0.4352 0.13242 0.15246 0.0
C1140 C 0.46458 0.14301 0.24562 0.0
C1141 C 0.48087 0.13452 0.19308 0.0
C1142 C 0.47417 0.12615 0.11762 0.0
C1143 C 0.45147 0.12518 0.09731 0.0
H1144 H 0.10457 0.55641 0.95086 0.0
H1145 H 0.1295 0.57078 0.71219 0.0
H1146 H 0.10573 0.516 0.92104 0.0
H1147 H 0.13075 0.53059 0.68331 0.0
H1148 H 0.10155 0.46139 0.62629 0.0
H1149 H 0.10195 0.50109 0.66313 0.0
H1150 H 0.13284 0.48439 0.89 0.0
H1151 H 0.13232 0.44431 0.85337 0.0
C1152 C 0.11045 0.551 0.89239 0.0
C1153 C 0.11681 0.5669 0.8338 0.0
C1154 C 0.11121 0.52786 0.87555 0.0
C1155 C 0.11817 0.52019 0.79969 0.0
C1156 C 0.125 0.53603 0.74192 0.0
C1157 C 0.12438 0.55909 0.75875 0.0
C1158 C 0.10836 0.46609 0.68423 0.0
C1159 C 0.1169 0.44968 0.73696 0.0
C1160 C 0.10873 0.48888 0.70504 0.0
C1161 C 0.11756 0.49584 0.77919 0.0
C1162 C 0.12583 0.47946 0.83261 0.0
C1163 C 0.12562 0.45657 0.8115 0.0
H1164 H 0.46374 0.85117 0.36859 0.0
H1165 H 0.43863 0.87522 0.14052 0.0
H1166 H 0.5015 0.85281 0.31713 0.0
H1167 H 0.47697 0.87723 0.08909 0.0
H1168 H 0.55262 0.85833 0.02426 0.0
H1169 H 0.51276 0.8545 0.05658 0.0
H1170 H 0.52437 0.88641 0.2862 0.0
H1171 H 0.56359 0.88996 0.25518 0.0
C1172 C 0.46627 0.85672 0.30719 0.0
C1173 C 0.44821 0.86348 0.25916 0.0
C1174 C 0.48794 0.8577 0.27777 0.0
C1175 C 0.49221 0.86566 0.19975 0.0
C1176 C 0.47413 0.87111 0.14959 0.0
C1177 C 0.45224 0.87 0.17909 0.0
C1178 C 0.54652 0.8647 0.08119 0.0
C1179 C 0.56133 0.87404 0.13778 0.0
C1180 C 0.52376 0.86252 0.09959 0.0
C1181 C 0.51561 0.86967 0.17468 0.0
C1182 C 0.53027 0.88013 0.22883 0.0
C1183 C 0.55278 0.88223 0.21081 0.0
H1184 H 0.8962 0.95987 0.62621 0.0
H1185 H 0.86597 0.94299 0.398 0.0
H1186 H 0.8958 -0.00039 0.58995 0.0
H1187 H 0.86545 0.98312 0.36195 0.0
H1188 H 0.8938 0.05519 0.30262 0.0
H1189 H 0.89259 0.01477 0.33204 0.0
H1190 H 0.86712 0.02917 0.56928 0.0
H1191 H 0.86843 0.0694 0.54078 0.0
C1192 C 0.8895 0.96462 0.56814 0.0
C1193 C 0.88112 0.94826 0.51491 0.0
C1194 C 0.88913 0.98744 0.54766 0.0
C1195 C 0.88046 0.99447 0.47336 0.0
C1196 C 0.87233 0.97814 0.41947 0.0
C1197 C 0.87255 0.95522 0.44025 0.0
C1198 C 0.88781 0.04974 0.36091 0.0
C1199 C 0.88134 0.0656 0.41946 0.0
C1200 C 0.88702 0.02658 0.37751 0.0
C1201 C 0.87991 0.01885 0.45312 0.0
C1202 C 0.87298 0.03466 0.51087 0.0
C1203 C 0.87364 0.05773 0.49426 0.0
H1204 H 0.93912 0.14156 0.59711 0.0
H1205 H 0.96469 0.12635 0.36002 0.0
H1206 H 0.97742 0.14238 0.64915 0.0
H1207 H 0.00224 0.12678 0.4119 0.0
H1208 H 0.06691 0.15247 0.49298 0.0
H1209 H 0.02766 0.15559 0.46072 0.0
H1210 H 0.01106 0.11691 0.67261 0.0
H1211 H 0.05091 0.11433 0.70654 0.0
C1212 C 0.9528 0.1384 0.55617 0.0
C1213 C 0.94877 0.13416 0.47411 0.0
C1214 C 0.97469 0.13876 0.58611 0.0
C1215 C 0.99285 0.13499 0.53439 0.0
C1216 C 0.98868 0.13032 0.45301 0.0
C1217 C 0.96702 0.12997 0.42329 0.0
C1218 C 0.05494 0.14478 0.53326 0.0
C1219 C 0.06199 0.13277 0.60141 0.0
C1220 C 0.03242 0.14653 0.51466 0.0
C1221 C 0.01629 0.13602 0.56301 0.0
C1222 C 0.02314 0.12515 0.63414 0.0
C1223 C 0.04589 0.12362 0.65344 0.0
H1224 H 0.12466 0.93166 0.54797 0.0
H1225 H 0.10078 0.94275 0.30573 0.0
H1226 H 0.12427 0.97214 0.5719 0.0
H1227 H 0.10037 0.98348 0.33045 0.0
H1228 H 0.12724 0.05618 0.39222 0.0
H1229 H 0.12733 0.01581 0.35963 0.0
H1230 H 0.09458 0.00141 0.58498 0.0
H1231 H 0.09451 0.04141 0.61777 0.0
C1232 C 0.11939 0.94269 0.49961 0.0
C1233 C 0.1127 0.93388 0.4249 0.0
C1234 C 0.11906 0.96591 0.51361 0.0
C1235 C 0.11215 0.98093 0.45322 0.0
C1236 C 0.10588 0.97227 0.37792 0.0
C1237 C 0.10603 0.94895 0.36399 0.0
C1238 C 0.11993 0.04438 0.43446 0.0
C1239 C 0.11092 0.05199 0.50761 0.0
C1240 C 0.11992 0.02132 0.41566 0.0
C1241 C 0.11112 0.00549 0.47007 0.0
C1242 C 0.10175 0.01319 0.54239 0.0
C1243 C 0.1016 0.03616 0.56086 0.0
H1244 H 0.93422 0.88637 0.47927 0.0
H1245 H 0.94492 0.859 0.71716 0.0
H1246 H 0.97345 0.88217 0.44965 0.0
H1247 H 0.98469 0.85433 0.68623 0.0
H1248 H 0.05882 0.87303 0.60608 0.0
H1249 H 0.02014 0.87534 0.65348 0.0
H1250 H 0.99733 0.84991 0.42439 0.0
H1251 H 0.03549 0.8482 0.37676 0.0
C1252 C 0.94495 0.87938 0.52539 0.0
C1253 C 0.93633 0.8727 0.60023 0.0
C1254 C 0.96748 0.87686 0.50815 0.0
C1255 C 0.98209 0.8674 0.56487 0.0
C1256 C 0.97379 0.86159 0.64122 0.0
C1257 C 0.95106 0.86424 0.65883 0.0
C1258 C 0.0455 0.86766 0.56648 0.0
C1259 C 0.05013 0.86087 0.48718 0.0
C1260 C 0.02339 0.86894 0.59363 0.0
C1261 C 0.00568 0.86332 0.54197 0.0
C1262 C 0.01055 0.85503 0.46483 0.0
C1263 C 0.03245 0.85395 0.43763 0.0
H1264 H 0.34688 0.30903 0.23559 0.0
H1265 H 0.37522 0.30774 0.99704 0.0
H1266 H 0.34303 0.26818 0.23298 0.0
H1267 H 0.37256 0.26667 0.99579 0.0
H1268 H 0.36642 0.19512 0.24571 0.0
H1269 H 0.36518 0.23608 0.24367 0.0
H1270 H 0.34971 0.23465 0.98973 0.0
H1271 H 0.35217 0.19362 0.99114 0.0
C1272 C 0.35238 0.29995 0.18264 0.0
C1273 C 0.36152 0.31154 0.11674 0.0
C1274 C 0.35031 0.27649 0.1813 0.0
C1275 C 0.35774 0.26397 0.11464 0.0
C1276 C 0.36637 0.27569 0.04781 0.0
C1277 C 0.36805 0.29925 0.04858 0.0
C1278 C 0.3626 0.20353 0.18955 0.0
C1279 C 0.35958 0.19111 0.11851 0.0
C1280 C 0.36173 0.22709 0.18839 0.0
C1281 C 0.3574 0.23882 0.1164 0.0
C1282 C 0.35356 0.22629 0.04591 0.0
C1283 C 0.35481 0.20273 0.04683 0.0
H1284 H 0.19564 0.6453 0.73973 0.0
H1285 H 0.19079 0.61755 0.97945 0.0
H1286 H 0.23615 0.64808 0.75511 0.0
H1287 H 0.23105 0.62027 0.99441 0.0
H1288 H 0.30214 0.64709 0.01977 0.0
H1289 H 0.26161 0.649 0.00396 0.0
H1290 H 0.26737 0.6201 0.76652 0.0
H1291 H 0.30767 0.61824 0.78192 0.0
C1292 C 0.20319 0.63989 0.79567 0.0
C1293 C 0.19005 0.63103 0.85806 0.0
C1294 C 0.22635 0.64142 0.80439 0.0
C1295 C 0.23673 0.63439 0.87599 0.0
C1296 C 0.2235 0.62604 0.9389 0.0
C1297 C 0.20045 0.62429 0.92994 0.0
C1298 C 0.29473 0.64126 0.96413 0.0
C1299 C 0.30807 0.63234 0.90243 0.0
C1300 C 0.27156 0.64229 0.95516 0.0
C1301 C 0.26135 0.63469 0.884 0.0
C1302 C 0.27477 0.6263 0.82168 0.0
C1303 C 0.29785 0.62505 0.8309 0.0
H1304 H 0.64556 0.80481 0.99545 0.0
H1305 H 0.62343 0.80437 0.24256 0.0
H1306 H 0.64874 0.76391 0.99781 0.0
H1307 H 0.62552 0.76329 0.24395 0.0
H1308 H 0.64742 0.69073 0.24635 0.0
H1309 H 0.64915 0.73175 0.2439 0.0
H1310 H 0.62657 0.73142 0.99695 0.0
H1311 H 0.62594 0.69034 0.99843 0.0
C1312 C 0.64123 0.79593 0.05022 0.0
C1313 C 0.63413 0.8078 0.11875 0.0
C1314 C 0.64293 0.77243 0.05143 0.0
C1315 C 0.63723 0.76017 0.12081 0.0
C1316 C 0.6304 0.77213 0.18976 0.0
C1317 C 0.62905 0.7957 0.18894 0.0
C1318 C 0.64302 0.69943 0.19128 0.0
C1319 C 0.63646 0.68729 0.12262 0.0
C1320 C 0.64384 0.72299 0.19007 0.0
C1321 C 0.63779 0.73502 0.12053 0.0
C1322 C 0.63167 0.72279 0.05131 0.0
C1323 C 0.6312 0.6992 0.05216 0.0
H1324 H 0.69741 0.35645 0.02304 0.0
H1325 H 0.69055 0.38393 0.78354 0.0
H1326 H 0.73795 0.35578 0.00643 0.0
H1327 H 0.73084 0.38335 0.76742 0.0
H1328 H 0.80245 0.35831 0.73808 0.0
H1329 H 0.76209 0.35586 0.7559 0.0
H1330 H 0.76841 0.38448 0.99359 0.0
H1331 H 0.80869 0.38683 0.97625 0.0
C1332 C 0.70453 0.36228 0.96692 0.0
C1333 C 0.69079 0.37035 0.90482 0.0
C1334 C 0.72771 0.36199 0.95754 0.0
C1335 C 0.73754 0.36952 0.88561 0.0
C1336 C 0.72375 0.37722 0.82319 0.0
C1337 C 0.70066 0.37771 0.83276 0.0
C1338 C 0.79523 0.36403 0.79417 0.0
C1339 C 0.80874 0.37291 0.8555 0.0
C1340 C 0.77213 0.36269 0.80427 0.0
C1341 C 0.76212 0.37 0.87612 0.0
C1342 C 0.77568 0.37852 0.93789 0.0
C1343 C 0.79873 0.38004 0.9276 0.0
H1344 H 0.84767 0.6902 0.73686 0.0
H1345 H 0.87087 0.69185 0.49081 0.0
H1346 H 0.84556 0.7313 0.73727 0.0
H1347 H 0.8696 0.73277 0.49237 0.0
H1348 H 0.85105 0.80672 0.49852 0.0
H1349 H 0.84698 0.76573 0.49563 0.0
H1350 H 0.87102 0.76198 0.74026 0.0
H1351 H 0.87429 0.80275 0.74419 0.0
C1352 C 0.85224 0.69929 0.6828 0.0
C1353 C 0.85955 0.68768 0.61401 0.0
C1354 C 0.85118 0.72288 0.68317 0.0
C1355 C 0.8576 0.73541 0.61506 0.0
C1356 C 0.86424 0.72373 0.54556 0.0
C1357 C 0.86511 0.70018 0.54492 0.0
C1358 C 0.85535 0.79714 0.55177 0.0
C1359 C 0.86299 0.80807 0.62153 0.0
C1360 C 0.8531 0.77362 0.55005 0.0
C1361 C 0.85862 0.7605 0.6178 0.0
C1362 C 0.86615 0.77151 0.68753 0.0
C1363 C 0.86821 0.79496 0.6895 0.0
H1364 H 0.80696 0.11597 0.27338 0.0
H1365 H 0.80237 0.14412 0.51257 0.0
H1366 H 0.76666 0.11856 0.25916 0.0
H1367 H 0.76187 0.14678 0.49792 0.0
H1368 H 0.69072 0.11603 0.47456 0.0
H1369 H 0.73101 0.11841 0.48826 0.0
H1370 H 0.73571 0.14702 0.25005 0.0
H1371 H 0.69513 0.14459 0.23593 0.0
C1372 C 0.79735 0.12279 0.3229 0.0
C1373 C 0.80783 0.12965 0.39447 0.0
C1374 C 0.77428 0.12446 0.31435 0.0
C1375 C 0.76113 0.13286 0.37739 0.0
C1376 C 0.7716 0.14007 0.44857 0.0
C1377 C 0.79476 0.1386 0.45687 0.0
C1378 C 0.70029 0.1229 0.42505 0.0
C1379 C 0.68976 0.12994 0.35381 0.0
C1380 C 0.72337 0.12444 0.4333 0.0
C1381 C 0.73649 0.13289 0.37027 0.0
C1382 C 0.72598 0.14028 0.29938 0.0
C1383 C 0.70279 0.13895 0.2914 0.0
H1384 H 0.12508 0.30587 0.74929 0.0
H1385 H 0.15036 0.30782 0.5063 0.0
H1386 H 0.12761 0.26481 0.74849 0.0
H1387 H 0.15404 0.26695 0.50667 0.0
H1388 H 0.13042 0.19372 0.49664 0.0
H1389 H 0.13188 0.2347 0.49891 0.0
H1390 H 0.15066 0.23293 0.7499 0.0
H1391 H 0.14799 0.19194 0.74844 0.0
C1392 C 0.13154 0.29753 0.69623 0.0
C1393 C 0.13728 0.31003 0.62761 0.0
C1394 C 0.13314 0.27396 0.69582 0.0
C1395 C 0.14091 0.26242 0.62723 0.0
C1396 C 0.14747 0.27512 0.55982 0.0
C1397 C 0.14548 0.2986 0.55976 0.0
C1398 C 0.13502 0.20207 0.55212 0.0
C1399 C 0.13887 0.18957 0.62249 0.0
C1400 C 0.13601 0.22564 0.55342 0.0
C1401 C 0.14127 0.23727 0.62479 0.0
C1402 C 0.14604 0.22465 0.69432 0.0
C1403 C 0.14468 0.2011 0.69334 0.0
H1404 H 0.19004 0.88821 0.2816 0.0
H1405 H 0.19671 0.86001 0.52012 0.0
H1406 H 0.23033 0.88696 0.26487 0.0
H1407 H 0.2372 0.8587 0.50292 0.0
H1408 H 0.30824 0.88884 0.47336 0.0
H1409 H 0.26796 0.88708 0.49056 0.0
H1410 H 0.26124 0.85881 0.25248 0.0
H1411 H 0.30167 0.86065 0.23482 0.0
C1412 C 0.2001 0.88172 0.33051 0.0
C1413 C 0.1902 0.87435 0.40248 0.0
C1414 C 0.22318 0.88084 0.32055 0.0
C1415 C 0.2369 0.87272 0.38252 0.0
C1416 C 0.22702 0.86521 0.45438 0.0
C1417 C 0.20387 0.86589 0.46412 0.0
C1418 C 0.2982 0.88223 0.42459 0.0
C1419 C 0.30812 0.87502 0.35243 0.0
C1420 C 0.27514 0.88105 0.43481 0.0
C1421 C 0.26147 0.87282 0.3729 0.0
C1422 C 0.27138 0.86542 0.30096 0.0
C1423 C 0.29451 0.8664 0.29096 0.0
H1424 H 0.21412 0.13665 0.6707 0.0
H1425 H 0.18363 0.11224 0.88954 0.0
H1426 H 0.25058 0.13486 0.73377 0.0
H1427 H 0.22038 0.10983 0.95216 0.0
H1428 H 0.28431 0.13843 0.0649 0.0
H1429 H 0.24808 0.13574 0.00102 0.0
H1430 H 0.2791 0.11006 0.78511 0.0
H1431 H 0.31571 0.11336 0.84871 0.0
C1432 C 0.2152 0.1307 0.73217 0.0
C1433 C 0.19592 0.12482 0.77543 0.0
C1434 C 0.23619 0.12948 0.76808 0.0
C1435 C 0.23844 0.12225 0.8481 0.0
C1436 C 0.21919 0.11579 0.89077 0.0
C1437 C 0.19814 0.11708 0.85483 0.0
C1438 C 0.28348 0.13217 0.00378 0.0
C1439 C 0.30295 0.1263 0.96159 0.0
C1440 C 0.26262 0.13042 0.9674 0.0
C1441 C 0.26063 0.12267 0.88794 0.0
C1442 C 0.28007 0.11637 0.84611 0.0
C1443 C 0.30103 0.11817 0.88258 0.0
H1444 H 0.09989 0.77967 0.34155 0.0
H1445 H 0.07575 0.81622 0.13439 0.0
H1446 H 0.09773 0.74449 0.26664 0.0
H1447 H 0.07238 0.78088 0.06039 0.0
H1448 H 0.09471 0.71845 0.92188 0.0
H1449 H 0.09418 0.75358 0.99715 0.0
H1450 H 0.07447 0.71703 0.21088 0.0
H1451 H 0.07624 0.68168 0.13599 0.0
C1452 C 0.09376 0.78011 0.2803 0.0
C1453 C 0.08806 0.80067 0.24365 0.0
C1454 C 0.09236 0.75989 0.23737 0.0
C1455 C 0.08487 0.75972 0.15718 0.0
C1456 C 0.07866 0.78033 0.12137 0.0
C1457 C 0.08044 0.8006 0.16389 0.0
C1458 C 0.09011 0.71795 0.98482 0.0
C1459 C 0.08557 0.69733 0.02316 0.0
C1460 C 0.08967 0.73815 0.02805 0.0
C1461 C 0.0843 0.73826 0.11041 0.0
C1462 C 0.07913 0.71761 0.14805 0.0
C1463 C 0.07996 0.69734 0.10506 0.0
H1464 H 0.71244 0.85463 0.06401 0.0
H1465 H 0.68348 0.88091 0.84512 0.0
H1466 H 0.74924 0.85622 0.00357 0.0
H1467 H 0.72059 0.88301 0.78511 0.0
H1468 H 0.78555 0.85579 0.67608 0.0
H1469 H 0.74881 0.85711 0.73697 0.0
H1470 H 0.77773 0.88223 0.95748 0.0
H1471 H 0.8148 0.88039 0.89691 0.0
C1472 C 0.71392 0.86086 0.00301 0.0
C1473 C 0.69499 0.86747 0.95905 0.0
C1474 C 0.7351 0.86196 0.96866 0.0
C1475 C 0.73787 0.86975 0.88957 0.0
C1476 C 0.71896 0.87666 0.84589 0.0
C1477 C 0.69773 0.87554 0.88029 0.0
C1478 C 0.78414 0.86159 0.73762 0.0
C1479 C 0.80314 0.86782 0.78193 0.0
C1480 C 0.763 0.86255 0.77226 0.0
C1481 C 0.76032 0.8698 0.85201 0.0
C1482 C 0.77928 0.87631 0.89614 0.0
C1483 C 0.8005 0.87533 0.86143 0.0
H1484 H 0.90328 0.2174 0.3296 0.0
H1485 H 0.92128 0.18019 0.11593 0.0
H1486 H 0.90396 0.25241 0.25361 0.0
H1487 H 0.92315 0.21541 0.04029 0.0
H1488 H 0.89838 0.27831 0.90902 0.0
H1489 H 0.90008 0.24314 0.98436 0.0
H1490 H 0.9262 0.27931 0.18982 0.0
H1491 H 0.92333 0.31462 0.11545 0.0
C1492 C 0.9078 0.21677 0.26659 0.0
C1493 C 0.91219 0.19606 0.22864 0.0
C1494 C 0.90832 0.2369 0.22295 0.0
C1495 C 0.91361 0.23686 0.14052 0.0
C1496 C 0.91857 0.21611 0.10319 0.0
C1497 C 0.91768 0.19592 0.14662 0.0
C1498 C 0.90457 0.27869 0.9702 0.0
C1499 C 0.91063 0.2992 0.00652 0.0
C1500 C 0.9057 0.25849 0.01336 0.0
C1501 C 0.91327 0.25827 0.09347 0.0
C1502 C 0.91984 0.27881 0.12893 0.0
C1503 C 0.91835 0.29906 0.08618 0.0
H1504 H 0.21409 0.35886 0.57014 0.0
H1505 H 0.18364 0.38487 0.3535 0.0
H1506 H 0.2505 0.36068 0.50678 0.0
H1507 H 0.22035 0.38725 0.29059 0.0
H1508 H 0.28492 0.36045 0.17653 0.0
H1509 H 0.24848 0.36175 0.23988 0.0
H1510 H 0.27854 0.38667 0.45868 0.0
H1511 H 0.31527 0.38481 0.39574 0.0
C1512 C 0.21517 0.36511 0.50905 0.0
C1513 C 0.19593 0.37155 0.46658 0.0
C1514 C 0.23612 0.36634 0.47299 0.0
C1515 C 0.23836 0.37412 0.39366 0.0
C1516 C 0.21914 0.3809 0.35149 0.0
C1517 C 0.19813 0.37963 0.38759 0.0
C1518 C 0.28381 0.36623 0.23818 0.0
C1519 C 0.30303 0.37235 0.28137 0.0
C1520 C 0.26285 0.36716 0.27425 0.0
C1521 C 0.26058 0.37431 0.35432 0.0
C1522 C 0.27977 0.3808 0.39719 0.0
C1523 C 0.3008 0.37983 0.36108 0.0
H1524 H 0.40049 0.81756 0.62373 0.0
H1525 H 0.42187 0.78263 0.4091 0.0
H1526 H 0.40205 0.78234 0.69858 0.0
H1527 H 0.42434 0.74748 0.48478 0.0
H1528 H 0.40013 0.6849 0.62077 0.0
H1529 H 0.401 0.72001 0.54495 0.0
H1530 H 0.42635 0.755 0.75404 0.0
H1531 H 0.42457 0.72001 0.83078 0.0
C1532 C 0.40581 0.80239 0.59277 0.0
C1533 C 0.41101 0.80286 0.51046 0.0
C1534 C 0.40685 0.78219 0.63585 0.0
C1535 C 0.41336 0.76202 0.59785 0.0
C1536 C 0.41892 0.7626 0.51572 0.0
C1537 C 0.41764 0.78278 0.47239 0.0
C1538 C 0.40601 0.70007 0.65041 0.0
C1539 C 0.41221 0.69971 0.73184 0.0
C1540 C 0.40664 0.7202 0.60677 0.0
C1541 C 0.4137 0.74039 0.64332 0.0
C1542 C 0.42042 0.73987 0.72434 0.0
C1543 C 0.41956 0.71978 0.76823 0.0
H1544 H 0.71219 0.61514 0.17344 0.0
H1545 H 0.68425 0.63187 0.40476 0.0
H1546 H 0.74896 0.6118 0.23324 0.0
H1547 H 0.7213 0.63034 0.46445 0.0
H1548 H 0.78719 0.61091 0.56883 0.0
H1549 H 0.7505 0.60882 0.50758 0.0
H1550 H 0.77855 0.6318 0.28207 0.0
H1551 H 0.81553 0.63208 0.34283 0.0
C1552 C 0.71402 0.61829 0.23723 0.0
C1553 C 0.69544 0.62378 0.28459 0.0
C1554 C 0.73518 0.6166 0.27158 0.0
C1555 C 0.73841 0.62098 0.35392 0.0
C1556 C 0.71961 0.62637 0.40127 0.0
C1557 C 0.69833 0.62744 0.36713 0.0
C1558 C 0.78545 0.61524 0.50586 0.0
C1559 C 0.8041 0.62168 0.46042 0.0
C1560 C 0.76435 0.6143 0.47076 0.0
C1561 C 0.76125 0.62042 0.38978 0.0
C1562 C 0.78014 0.62656 0.34412 0.0
C1563 C 0.80139 0.62687 0.37885 0.0
H1564 H 0.57142 0.21353 0.4306 0.0
H1565 H 0.59666 0.17881 0.64023 0.0
H1566 H 0.57013 0.2487 0.50637 0.0
H1567 H 0.59623 0.21409 0.71505 0.0
H1568 H 0.57676 0.27737 0.84969 0.0
H1569 H 0.57343 0.24203 0.77559 0.0
H1570 H 0.59515 0.27592 0.55904 0.0
H1571 H 0.59759 0.31135 0.63239 0.0
C1572 C 0.57666 0.21341 0.49292 0.0
C1573 C 0.58414 0.19341 0.52942 0.0
C1574 C 0.57608 0.23361 0.53622 0.0
C1575 C 0.58322 0.23431 0.61675 0.0
C1576 C 0.5903 0.21416 0.65357 0.0
C1577 C 0.59066 0.19392 0.61052 0.0
C1578 C 0.58069 0.27727 0.78614 0.0
C1579 C 0.58742 0.29713 0.74688 0.0
C1580 C 0.57891 0.25698 0.74372 0.0
C1581 C 0.58405 0.25607 0.66128 0.0
C1582 C 0.59065 0.27603 0.62207 0.0
C1583 C 0.59221 0.29635 0.66428 0.0
loop_
_geom_bond_atom_site_label_1
_geom_bond_atom_site_label_2
_geom_bond_distance
_geom_bond_site_symmetry_2
_ccdc_geom_bond_type
Co0 O2 2.143 . S
Co0 O8 2.074 . S
Co0 O11 2.093 . S
Co0 O24 2.097 . S
Co0 N41 2.151 . S
Co0 N49 2.214 . S
Co1 O2 2.160 1_556 S
Co1 O7 2.058 1_556 S
Co1 O17 2.057 . S
Co1 O32 2.037 1_556 S
Co1 N36 2.145 . S
Co1 N57 2.257 . S
O2 Co0 2.143 . S
O2 Co1 2.160 1_554 S
C3 O4 1.278 . S
C3 O11 1.224 . S
O4 C3 1.278 . S
C5 O6 1.245 1_556 S
C5 O17 1.232 . S
O6 C5 1.245 1_554 S
O7 Co1 2.058 1_554 S
O7 C33 1.269 . S
O8 Co0 2.074 . S
O8 C33 1.257 . S
H9 C34 0.930 . S
H10 C40 0.930 . S
O11 Co0 2.093 . S
O11 C3 1.224 . S
H12 C44 0.929 . S
H13 C46 0.930 . S
H14 C47 0.930 . S
H15 C45 0.929 . S
H16 C48 0.928 . S
O17 Co1 2.057 . S
O17 C5 1.232 . S
H18 C37 0.929 . S
H19 C38 0.929 . S
H20 C50 0.931 . S
H21 C42 0.929 . S
H22 C51 0.930 . S
H23 C43 0.931 . S
O24 Co0 2.097 . S
O24 C52 1.214 . S
H25 C53 0.929 . S
H26 C54 0.929 . S
H27 C55 0.930 . S
H28 C56 0.929 . S
H29 C58 0.930 . S
H30 C35 0.930 . S
H31 C39 0.930 . S
O32 Co1 2.037 1_554 S
O32 C52 1.234 . S
C33 O7 1.269 . S
C33 O8 1.257 . S
C34 H9 0.930 . S
C34 C37 1.388 . S
C34 C39 1.418 . S
C35 H30 0.930 . S
C35 C38 1.404 . S
C35 C39 1.353 . S
N36 Co1 2.145 . S
N36 C37 1.397 . S
N36 C38 1.334 . S
C37 H18 0.929 . S
C37 C34 1.388 . S
C37 N36 1.397 . S
C38 H19 0.929 . S
C38 C35 1.404 . S
C38 N36 1.334 . S
C39 H31 0.930 . S
C39 C34 1.418 . S
C39 C35 1.353 . S
C40 H10 0.930 . S
C40 N41 1.330 . S
C40 C42 1.446 . S
N41 Co0 2.151 . S
N41 C40 1.330 . S
N41 C45 1.418 . S
C42 H21 0.929 . S
C42 C40 1.446 . S
C42 C43 1.332 . S
C43 H23 0.931 . S
C43 C42 1.332 . S
C43 C44 1.267 . S
C44 H12 0.929 . S
C44 C43 1.267 . S
C44 C45 1.251 . S
C45 H15 0.929 . S
C45 N41 1.418 . S
C45 C44 1.251 . S
C46 H13 0.930 . S
C46 C48 1.406 . S
C46 C51 1.261 . S
C47 H14 0.930 . S
C47 N49 1.325 . S
C47 C50 1.357 . S
C48 H16 0.928 . S
C48 C46 1.406 . S
C48 N49 1.261 . S
N49 Co0 2.214 . S
N49 C47 1.325 . S
N49 C48 1.261 . S
C50 H20 0.931 . S
C50 C47 1.357 . S
C50 C51 1.312 . S
C51 H22 0.930 . S
C51 C46 1.261 . S
C51 C50 1.312 . S
C52 O24 1.214 . S
C52 O32 1.234 . S
C53 H25 0.929 . S
C53 C56 1.391 . S
C53 C58 1.391 . S
C54 H26 0.929 . S
C54 C55 1.390 . S
C54 N57 1.391 . S
C55 H27 0.930 . S
C55 C54 1.390 . S
C55 C56 1.392 . S
C56 H28 0.929 . S
C56 C53 1.391 . S
C56 C55 1.392 . S
N57 Co1 2.257 . S
N57 C54 1.391 . S
N57 C58 1.388 . S
C58 H29 0.930 . S
C58 C53 1.391 . S
C58 N57 1.388 . S
Co59 O61 2.143 . S
Co59 O67 2.074 . S
Co59 O70 2.093 . S
Co59 O83 2.097 . S
Co59 N100 2.151 . S
Co59 N108 2.214 . S
Co60 O61 2.160 . S
Co60 O66 2.058 . S
Co60 O76 2.057 1_556 S
Co60 O91 2.037 . S
Co60 N95 2.145 1_556 S
Co60 N116 2.257 1_556 S
O61 Co59 2.143 . S
O61 Co60 2.160 . S
C62 O63 1.278 . S
C62 O70 1.224 . S
O63 C62 1.278 . S
C64 O65 1.245 1_554 S
C64 O76 1.232 . S
O65 C64 1.245 1_556 S
O66 Co60 2.058 . S
O66 C92 1.269 . S
O67 Co59 2.074 . S
O67 C92 1.257 . S
H68 C93 0.930 . S
H69 C99 0.930 . S
O70 Co59 2.093 . S
O70 C62 1.224 . S
H71 C103 0.929 . S
H72 C105 0.930 . S
H73 C106 0.930 . S
H74 C104 0.929 . S
H75 C107 0.928 . S
O76 Co60 2.057 1_554 S
O76 C64 1.232 . S
H77 C96 0.929 1_556 S
H78 C97 0.929 . S
H79 C109 0.931 . S
H80 C101 0.929 . S
H81 C110 0.930 . S
H82 C102 0.931 . S
O83 Co59 2.097 . S
O83 C111 1.214 . S
H84 C112 0.929 . S
H85 C113 0.929 . S
H86 C114 0.930 . S
H87 C115 0.929 . S
H88 C117 0.930 . S
H89 C94 0.930 . S
H90 C98 0.930 . S
O91 Co60 2.037 . S
O91 C111 1.234 . S
C92 O66 1.269 . S
C92 O67 1.257 . S
C93 H68 0.930 . S
C93 C96 1.388 . S
C93 C98 1.418 . S
C94 H89 0.930 . S
C94 C97 1.404 . S
C94 C98 1.353 . S
N95 Co60 2.145 1_554 S
N95 C96 1.397 . S
N95 C97 1.334 . S
C96 H77 0.929 1_554 S
C96 C93 1.388 . S
C96 N95 1.397 . S
C97 H78 0.929 . S
C97 C94 1.404 . S
C97 N95 1.334 . S
C98 H90 0.930 . S
C98 C93 1.418 . S
C98 C94 1.353 . S
C99 H69 0.930 . S
C99 N100 1.330 . S
C99 C101 1.446 . S
N100 Co59 2.151 . S
N100 C99 1.330 . S
N100 C104 1.418 . S
C101 H80 0.929 . S
C101 C99 1.446 . S
C101 C102 1.332 . S
C102 H82 0.931 . S
C102 C101 1.332 . S
C102 C103 1.267 . S
C103 H71 0.929 . S
C103 C102 1.267 . S
C103 C104 1.251 . S
C104 H74 0.929 . S
C104 N100 1.418 . S
C104 C103 1.251 . S
C105 H72 0.930 . S
C105 C107 1.406 . S
C105 C110 1.261 . S
C106 H73 0.930 . S
C106 N108 1.325 . S
C106 C109 1.357 . S
C107 H75 0.928 . S
C107 C105 1.406 . S
C107 N108 1.261 . S
N108 Co59 2.214 . S
N108 C106 1.325 . S
N108 C107 1.261 . S
C109 H79 0.931 . S
C109 C106 1.357 . S
C109 C110 1.312 . S
C110 H81 0.930 . S
C110 C105 1.261 . S
C110 C109 1.312 . S
C111 O83 1.214 . S
C111 O91 1.234 . S
C112 H84 0.929 . S
C112 C115 1.391 . S
C112 C117 1.391 . S
C113 H85 0.929 . S
C113 C114 1.390 . S
C113 N116 1.391 . S
C114 H86 0.930 . S
C114 C113 1.390 . S
C114 C115 1.392 . S
C115 H87 0.929 . S
C115 C112 1.391 . S
C115 C114 1.392 . S
N116 Co60 2.257 1_554 S
N116 C113 1.391 . S
N116 C117 1.388 . S
C117 H88 0.930 . S
C117 C112 1.391 . S
C117 N116 1.388 . S
Co118 O120 2.143 . S
Co118 O126 2.074 . S
Co118 O129 2.093 . S
Co118 O142 2.097 . S
Co118 N159 2.151 . S
Co118 N167 2.214 . S
Co119 O120 2.160 1_556 S
Co119 O125 2.058 1_556 S
Co119 O135 2.057 . S
Co119 O150 2.037 1_556 S
Co119 N154 2.145 . S
Co119 N175 2.257 . S
O120 Co118 2.143 . S
O120 Co119 2.160 1_554 S
C121 O122 1.278 . S
C121 O129 1.224 . S
O122 C121 1.278 . S
C123 O124 1.245 1_556 S
C123 O135 1.232 . S
O124 C123 1.245 1_554 S
O125 Co119 2.058 1_554 S
O125 C151 1.269 . S
O126 Co118 2.074 . S
O126 C151 1.257 . S
H127 C152 0.930 . S
H128 C158 0.930 . S
O129 Co118 2.093 . S
O129 C121 1.224 . S
H130 C162 0.929 . S
H131 C164 0.930 . S
H132 C165 0.930 . S
H133 C163 0.929 . S
H134 C166 0.928 . S
O135 Co119 2.057 . S
O135 C123 1.232 . S
H136 C155 0.929 . S
H137 C156 0.929 . S
H138 C168 0.931 . S
H139 C160 0.929 . S
H140 C169 0.930 . S
H141 C161 0.931 . S
O142 Co118 2.097 . S
O142 C170 1.214 . S
H143 C171 0.929 . S
H144 C172 0.929 . S
H145 C173 0.930 . S
H146 C174 0.929 . S
H147 C176 0.930 . S
H148 C153 0.930 . S
H149 C157 0.930 . S
O150 Co119 2.037 1_554 S
O150 C170 1.234 . S
C151 O125 1.269 . S
C151 O126 1.257 . S
C152 H127 0.930 . S
C152 C155 1.388 . S
C152 C157 1.418 . S
C153 H148 0.930 . S
C153 C156 1.404 . S
C153 C157 1.353 . S
N154 Co119 2.145 . S
N154 C155 1.397 . S
N154 C156 1.334 . S
C155 H136 0.929 . S
C155 C152 1.388 . S
C155 N154 1.397 . S
C156 H137 0.929 . S
C156 C153 1.404 . S
C156 N154 1.334 . S
C157 H149 0.930 . S
C157 C152 1.418 . S
C157 C153 1.353 . S
C158 H128 0.930 . S
C158 N159 1.330 . S
C158 C160 1.446 . S
N159 Co118 2.151 . S
N159 C158 1.330 . S
N159 C163 1.418 . S
C160 H139 0.929 . S
C160 C158 1.446 . S
C160 C161 1.332 . S
C161 H141 0.931 . S
C161 C160 1.332 . S
C161 C162 1.267 . S
C162 H130 0.929 . S
C162 C161 1.267 . S
C162 C163 1.251 . S
C163 H133 0.929 . S
C163 N159 1.418 . S
C163 C162 1.251 . S
C164 H131 0.930 . S
C164 C166 1.406 . S
C164 C169 1.261 . S
C165 H132 0.930 . S
C165 N167 1.325 . S
C165 C168 1.357 . S
C166 H134 0.928 . S
C166 C164 1.406 . S
C166 N167 1.261 . S
N167 Co118 2.214 . S
N167 C165 1.325 . S
N167 C166 1.261 . S
C168 H138 0.931 . S
C168 C165 1.357 . S
C168 C169 1.312 . S
C169 H140 0.930 . S
C169 C164 1.261 . S
C169 C168 1.312 . S
C170 O142 1.214 . S
C170 O150 1.234 . S
C171 H143 0.929 . S
C171 C174 1.391 . S
C171 C176 1.391 . S
C172 H144 0.929 . S
C172 C173 1.390 . S
C172 N175 1.391 . S
C173 H145 0.930 . S
C173 C172 1.390 . S
C173 C174 1.392 . S
C174 H146 0.929 . S
C174 C171 1.391 . S
C174 C173 1.392 . S
N175 Co119 2.257 . S
N175 C172 1.391 . S
N175 C176 1.388 . S
C176 H147 0.930 . S
C176 C171 1.391 . S
C176 N175 1.388 . S
Co177 O179 2.143 . S
Co177 O185 2.074 . S
Co177 O188 2.093 . S
Co177 O201 2.097 . S
Co177 N218 2.151 . S
Co177 N226 2.214 . S
Co178 O179 2.160 . S
Co178 O184 2.058 . S
Co178 O194 2.057 1_556 S
Co178 O209 2.037 . S
Co178 N213 2.145 1_556 S
Co178 N234 2.257 1_556 S
O179 Co177 2.143 . S
O179 Co178 2.160 . S
C180 O181 1.278 . S
C180 O188 1.224 . S
O181 C180 1.278 . S
C182 O183 1.245 1_554 S
C182 O194 1.232 . S
O183 C182 1.245 1_556 S
O184 Co178 2.058 . S
O184 C210 1.269 . S
O185 Co177 2.074 . S
O185 C210 1.257 . S
H186 C211 0.930 . S
H187 C217 0.930 . S
O188 Co177 2.093 . S
O188 C180 1.224 . S
H189 C221 0.929 . S
H190 C223 0.930 . S
H191 C224 0.930 . S
H192 C222 0.929 . S
H193 C225 0.928 . S
O194 Co178 2.057 1_554 S
O194 C182 1.232 . S
H195 C214 0.929 1_556 S
H196 C215 0.929 . S
H197 C227 0.931 . S
H198 C219 0.929 . S
H199 C228 0.930 . S
H200 C220 0.931 . S
O201 Co177 2.097 . S
O201 C229 1.214 . S
H202 C230 0.929 . S
H203 C231 0.929 . S
H204 C232 0.930 . S
H205 C233 0.929 . S
H206 C235 0.930 . S
H207 C212 0.930 . S
H208 C216 0.930 . S
O209 Co178 2.037 . S
O209 C229 1.234 . S
C210 O184 1.269 . S
C210 O185 1.257 . S
C211 H186 0.930 . S
C211 C214 1.388 . S
C211 C216 1.418 . S
C212 H207 0.930 . S
C212 C215 1.404 . S
C212 C216 1.353 . S
N213 Co178 2.145 1_554 S
N213 C214 1.397 . S
N213 C215 1.334 . S
C214 H195 0.929 1_554 S
C214 C211 1.388 . S
C214 N213 1.397 . S
C215 H196 0.929 . S
C215 C212 1.404 . S
C215 N213 1.334 . S
C216 H208 0.930 . S
C216 C211 1.418 . S
C216 C212 1.353 . S
C217 H187 0.930 . S
C217 N218 1.330 . S
C217 C219 1.446 . S
N218 Co177 2.151 . S
N218 C217 1.330 . S
N218 C222 1.418 . S
C219 H198 0.929 . S
C219 C217 1.446 . S
C219 C220 1.332 . S
C220 H200 0.931 . S
C220 C219 1.332 . S
C220 C221 1.267 . S
C221 H189 0.929 . S
C221 C220 1.267 . S
C221 C222 1.251 . S
C222 H192 0.929 . S
C222 N218 1.418 . S
C222 C221 1.251 . S
C223 H190 0.930 . S
C223 C225 1.406 . S
C223 C228 1.261 . S
C224 H191 0.930 . S
C224 N226 1.325 . S
C224 C227 1.357 . S
C225 H193 0.928 . S
C225 C223 1.406 . S
C225 N226 1.261 . S
N226 Co177 2.214 . S
N226 C224 1.325 . S
N226 C225 1.261 . S
C227 H197 0.931 . S
C227 C224 1.357 . S
C227 C228 1.312 . S
C228 H199 0.930 . S
C228 C223 1.261 . S
C228 C227 1.312 . S
C229 O201 1.214 . S
C229 O209 1.234 . S
C230 H202 0.929 . S
C230 C233 1.391 . S
C230 C235 1.391 . S
C231 H203 0.929 . S
C231 C232 1.390 . S
C231 N234 1.391 . S
C232 H204 0.930 . S
C232 C231 1.390 . S
C232 C233 1.392 . S
C233 H205 0.929 . S
C233 C230 1.391 . S
C233 C232 1.392 . S
N234 Co178 2.257 1_554 S
N234 C231 1.391 . S
N234 C235 1.388 . S
C235 H206 0.930 . S
C235 C230 1.391 . S
C235 N234 1.388 . S
Co236 O238 2.143 . S
Co236 O244 2.074 . S
Co236 O247 2.093 . S
Co236 O260 2.097 . S
Co236 N277 2.151 . S
Co236 N285 2.214 1_554 S
Co237 O238 2.160 . S
Co237 O243 2.058 . S
Co237 O253 2.057 . S
Co237 O268 2.037 . S
Co237 N272 2.145 . S
Co237 N293 2.257 . S
O238 Co236 2.143 . S
O238 Co237 2.160 . S
C239 O240 1.278 . S
C239 O247 1.224 . S
O240 C239 1.278 . S
C241 O242 1.245 . S
C241 O253 1.232 . S
O242 C241 1.245 . S
O243 Co237 2.058 . S
O243 C269 1.269 . S
O244 Co236 2.074 . S
O244 C269 1.257 . S
H245 C270 0.930 . S
H246 C276 0.930 . S
O247 Co236 2.093 . S
O247 C239 1.224 . S
H248 C280 0.929 . S
H249 C282 0.930 . S
H250 C283 0.930 1_554 S
H251 C281 0.929 . S
H252 C284 0.928 . S
O253 Co237 2.057 . S
O253 C241 1.232 . S
H254 C273 0.929 . S
H255 C274 0.929 . S
H256 C286 0.931 . S
H257 C278 0.929 . S
H258 C287 0.930 . S
H259 C279 0.931 . S
O260 Co236 2.097 . S
O260 C288 1.214 . S
H261 C289 0.929 . S
H262 C290 0.929 . S
H263 C291 0.930 . S
H264 C292 0.929 . S
H265 C294 0.930 . S
H266 C271 0.930 . S
H267 C275 0.930 . S
O268 Co237 2.037 . S
O268 C288 1.234 . S
C269 O243 1.269 . S
C269 O244 1.257 . S
C270 H245 0.930 . S
C270 C273 1.388 . S
C270 C275 1.418 . S
C271 H266 0.930 . S
C271 C274 1.404 . S
C271 C275 1.353 . S
N272 Co237 2.145 . S
N272 C273 1.397 . S
N272 C274 1.334 . S
C273 H254 0.929 . S
C273 C270 1.388 . S
C273 N272 1.397 . S
C274 H255 0.929 . S
C274 C271 1.404 . S
C274 N272 1.334 . S
C275 H267 0.930 . S
C275 C270 1.418 . S
C275 C271 1.353 . S
C276 H246 0.930 . S
C276 N277 1.330 . S
C276 C278 1.446 1_554 S
N277 Co236 2.151 . S
N277 C276 1.330 . S
N277 C281 1.418 1_554 S
C278 H257 0.929 . S
C278 C276 1.446 1_556 S
C278 C279 1.332 . S
C279 H259 0.931 . S
C279 C278 1.332 . S
C279 C280 1.267 . S
C280 H248 0.929 . S
C280 C279 1.267 . S
C280 C281 1.251 . S
C281 H251 0.929 . S
C281 N277 1.418 1_556 S
C281 C280 1.251 . S
C282 H249 0.930 . S
C282 C284 1.406 . S
C282 C287 1.261 . S
C283 H250 0.930 1_556 S
C283 N285 1.325 . S
C283 C286 1.357 . S
C284 H252 0.928 . S
C284 C282 1.406 . S
C284 N285 1.261 . S
N285 Co236 2.214 1_556 S
N285 C283 1.325 . S
N285 C284 1.261 . S
C286 H256 0.931 . S
C286 C283 1.357 . S
C286 C287 1.312 . S
C287 H258 0.930 . S
C287 C282 1.261 . S
C287 C286 1.312 . S
C288 O260 1.214 . S
C288 O268 1.234 . S
C289 H261 0.929 . S
C289 C292 1.391 . S
C289 C294 1.391 . S
C290 H262 0.929 . S
C290 C291 1.390 . S
C290 N293 1.391 . S
C291 H263 0.930 . S
C291 C290 1.390 . S
C291 C292 1.392 . S
C292 H264 0.929 . S
C292 C289 1.391 . S
C292 C291 1.392 . S
N293 Co237 2.257 . S
N293 C290 1.391 . S
N293 C294 1.388 . S
C294 H265 0.930 . S
C294 C289 1.391 . S
C294 N293 1.388 . S
Co295 O297 2.143 . S
Co295 O303 2.074 . S
Co295 O306 2.093 . S
Co295 O319 2.097 . S
Co295 N336 2.151 1_556 S
Co295 N344 2.214 1_556 S
Co296 O297 2.160 . S
Co296 O302 2.058 . S
Co296 O312 2.057 . S
Co296 O327 2.037 . S
Co296 N331 2.145 . S
Co296 N352 2.257 . S
O297 Co295 2.143 . S
O297 Co296 2.160 . S
C298 O299 1.278 . S
C298 O306 1.224 . S
O299 C298 1.278 . S
C300 O301 1.245 . S
C300 O312 1.232 . S
O301 C300 1.245 . S
O302 Co296 2.058 . S
O302 C328 1.269 . S
O303 Co295 2.074 . S
O303 C328 1.257 . S
H304 C329 0.930 . S
H305 C335 0.930 1_556 S
O306 Co295 2.093 . S
O306 C298 1.224 . S
H307 C339 0.929 . S
H308 C341 0.930 . S
H309 C342 0.930 . S
H310 C340 0.929 . S
H311 C343 0.928 . S
O312 Co296 2.057 . S
O312 C300 1.232 . S
H313 C332 0.929 . S
H314 C333 0.929 . S
H315 C345 0.931 . S
H316 C337 0.929 . S
H317 C346 0.930 . S
H318 C338 0.931 . S
O319 Co295 2.097 . S
O319 C347 1.214 . S
H320 C348 0.929 . S
H321 C349 0.929 . S
H322 C350 0.930 . S
H323 C351 0.929 . S
H324 C353 0.930 . S
H325 C330 0.930 . S
H326 C334 0.930 . S
O327 Co296 2.037 . S
O327 C347 1.234 . S
C328 O302 1.269 . S
C328 O303 1.257 . S
C329 H304 0.930 . S
C329 C332 1.388 . S
C329 C334 1.418 . S
C330 H325 0.930 . S
C330 C333 1.404 . S
C330 C334 1.353 . S
N331 Co296 2.145 . S
N331 C332 1.397 . S
N331 C333 1.334 . S
C332 H313 0.929 . S
C332 C329 1.388 . S
C332 N331 1.397 . S
C333 H314 0.929 . S
C333 C330 1.404 . S
C333 N331 1.334 . S
C334 H326 0.930 . S
C334 C329 1.418 . S
C334 C330 1.353 . S
C335 H305 0.930 1_554 S
C335 N336 1.330 . S
C335 C337 1.446 . S
N336 Co295 2.151 1_554 S
N336 C335 1.330 . S
N336 C340 1.418 . S
C337 H316 0.929 . S
C337 C335 1.446 . S
C337 C338 1.332 . S
C338 H318 0.931 . S
C338 C337 1.332 . S
C338 C339 1.267 . S
C339 H307 0.929 . S
C339 C338 1.267 . S
C339 C340 1.251 . S
C340 H310 0.929 . S
C340 N336 1.418 . S
C340 C339 1.251 . S
C341 H308 0.930 . S
C341 C343 1.406 . S
C341 C346 1.261 . S
C342 H309 0.930 . S
C342 N344 1.325 . S
C342 C345 1.357 . S
C343 H311 0.928 . S
C343 C341 1.406 . S
C343 N344 1.261 . S
N344 Co295 2.214 1_554 S
N344 C342 1.325 . S
N344 C343 1.261 . S
C345 H315 0.931 . S
C345 C342 1.357 . S
C345 C346 1.312 . S
C346 H317 0.930 . S
C346 C341 1.261 . S
C346 C345 1.312 . S
C347 O319 1.214 . S
C347 O327 1.234 . S
C348 H320 0.929 . S
C348 C351 1.391 . S
C348 C353 1.391 . S
C349 H321 0.929 . S
C349 C350 1.390 . S
C349 N352 1.391 . S
C350 H322 0.930 . S
C350 C349 1.390 . S
C350 C351 1.392 . S
C351 H323 0.929 . S
C351 C348 1.391 . S
C351 C350 1.392 . S
N352 Co296 2.257 . S
N352 C349 1.391 . S
N352 C353 1.388 . S
C353 H324 0.930 . S
C353 C348 1.391 . S
C353 N352 1.388 . S
Co354 O356 2.143 . S
Co354 O362 2.074 . S
Co354 O365 2.093 . S
Co354 O378 2.097 . S
Co354 N395 2.151 . S
Co354 N403 2.214 1_554 S
Co355 O356 2.160 . S
Co355 O361 2.058 . S
Co355 O371 2.057 . S
Co355 O386 2.037 . S
Co355 N390 2.145 . S
Co355 N411 2.257 . S
O356 Co354 2.143 . S
O356 Co355 2.160 . S
C357 O358 1.278 . S
C357 O365 1.224 . S
O358 C357 1.278 . S
C359 O360 1.245 . S
C359 O371 1.232 . S
O360 C359 1.245 . S
O361 Co355 2.058 . S
O361 C387 1.269 . S
O362 Co354 2.074 . S
O362 C387 1.257 . S
H363 C388 0.930 . S
H364 C394 0.930 . S
O365 Co354 2.093 . S
O365 C357 1.224 . S
H366 C398 0.929 . S
H367 C400 0.930 . S
H368 C401 0.930 1_554 S
H369 C399 0.929 . S
H370 C402 0.928 . S
O371 Co355 2.057 . S
O371 C359 1.232 . S
H372 C391 0.929 . S
H373 C392 0.929 . S
H374 C404 0.931 . S
H375 C396 0.929 . S
H376 C405 0.930 . S
H377 C397 0.931 . S
O378 Co354 2.097 . S
O378 C406 1.214 . S
H379 C407 0.929 . S
H380 C408 0.929 . S
H381 C409 0.930 . S
H382 C410 0.929 . S
H383 C412 0.930 . S
H384 C389 0.930 . S
H385 C393 0.930 . S
O386 Co355 2.037 . S
O386 C406 1.234 . S
C387 O361 1.269 . S
C387 O362 1.257 . S
C388 H363 0.930 . S
C388 C391 1.388 . S
C388 C393 1.418 . S
C389 H384 0.930 . S
C389 C392 1.404 . S
C389 C393 1.353 . S
N390 Co355 2.145 . S
N390 C391 1.397 . S
N390 C392 1.334 . S
C391 H372 0.929 . S
C391 C388 1.388 . S
C391 N390 1.397 . S
C392 H373 0.929 . S
C392 C389 1.404 . S
C392 N390 1.334 . S
C393 H385 0.930 . S
C393 C388 1.418 . S
C393 C389 1.353 . S
C394 H364 0.930 . S
C394 N395 1.330 . S
C394 C396 1.446 1_554 S
N395 Co354 2.151 . S
N395 C394 1.330 . S
N395 C399 1.418 1_554 S
C396 H375 0.929 . S
C396 C394 1.446 1_556 S
C396 C397 1.332 . S
C397 H377 0.931 . S
C397 C396 1.332 . S
C397 C398 1.267 . S
C398 H366 0.929 . S
C398 C397 1.267 . S
C398 C399 1.251 . S
C399 H369 0.929 . S
C399 N395 1.418 1_556 S
C399 C398 1.251 . S
C400 H367 0.930 . S
C400 C402 1.406 . S
C400 C405 1.261 . S
C401 H368 0.930 1_556 S
C401 N403 1.325 . S
C401 C404 1.357 . S
C402 H370 0.928 . S
C402 C400 1.406 . S
C402 N403 1.261 . S
N403 Co354 2.214 1_556 S
N403 C401 1.325 . S
N403 C402 1.261 . S
C404 H374 0.931 . S
C404 C401 1.357 . S
C404 C405 1.312 . S
C405 H376 0.930 . S
C405 C400 1.261 . S
C405 C404 1.312 . S
C406 O378 1.214 . S
C406 O386 1.234 . S
C407 H379 0.929 . S
C407 C410 1.391 . S
C407 C412 1.391 . S
C408 H380 0.929 . S
C408 C409 1.390 . S
C408 N411 1.391 . S
C409 H381 0.930 . S
C409 C408 1.390 . S
C409 C410 1.392 . S
C410 H382 0.929 . S
C410 C407 1.391 . S
C410 C409 1.392 . S
N411 Co355 2.257 . S
N411 C408 1.391 . S
N411 C412 1.388 . S
C412 H383 0.930 . S
C412 C407 1.391 . S
C412 N411 1.388 . S
Co413 O415 2.143 . S
Co413 O421 2.074 . S
Co413 O424 2.093 . S
Co413 O437 2.097 . S
Co413 N454 2.151 1_556 S
Co413 N462 2.214 1_556 S
Co414 O415 2.160 . S
Co414 O420 2.058 . S
Co414 O430 2.057 . S
Co414 O445 2.037 . S
Co414 N449 2.145 . S
Co414 N470 2.257 . S
O415 Co413 2.143 . S
O415 Co414 2.160 . S
C416 O417 1.278 . S
C416 O424 1.224 . S
O417 C416 1.278 . S
C418 O419 1.245 . S
C418 O430 1.232 . S
O419 C418 1.245 . S
O420 Co414 2.058 . S
O420 C446 1.269 . S
O421 Co413 2.074 . S
O421 C446 1.257 . S
H422 C447 0.930 . S
H423 C453 0.930 1_556 S
O424 Co413 2.093 . S
O424 C416 1.224 . S
H425 C457 0.929 . S
H426 C459 0.930 . S
H427 C460 0.930 . S
H428 C458 0.929 . S
H429 C461 0.928 . S
O430 Co414 2.057 . S
O430 C418 1.232 . S
H431 C450 0.929 . S
H432 C451 0.929 . S
H433 C463 0.931 . S
H434 C455 0.929 . S
H435 C464 0.930 . S
H436 C456 0.931 . S
O437 Co413 2.097 . S
O437 C465 1.214 . S
H438 C466 0.929 . S
H439 C467 0.929 . S
H440 C468 0.930 . S
H441 C469 0.929 . S
H442 C471 0.930 . S
H443 C448 0.930 . S
H444 C452 0.930 . S
O445 Co414 2.037 . S
O445 C465 1.234 . S
C446 O420 1.269 . S
C446 O421 1.257 . S
C447 H422 0.930 . S
C447 C450 1.388 . S
C447 C452 1.418 . S
C448 H443 0.930 . S
C448 C451 1.404 . S
C448 C452 1.353 . S
N449 Co414 2.145 . S
N449 C450 1.397 . S
N449 C451 1.334 . S
C450 H431 0.929 . S
C450 C447 1.388 . S
C450 N449 1.397 . S
C451 H432 0.929 . S
C451 C448 1.404 . S
C451 N449 1.334 . S
C452 H444 0.930 . S
C452 C447 1.418 . S
C452 C448 1.353 . S
C453 H423 0.930 1_554 S
C453 N454 1.330 . S
C453 C455 1.446 . S
N454 Co413 2.151 1_554 S
N454 C453 1.330 . S
N454 C458 1.418 . S
C455 H434 0.929 . S
C455 C453 1.446 . S
C455 C456 1.332 . S
C456 H436 0.931 . S
C456 C455 1.332 . S
C456 C457 1.267 . S
C457 H425 0.929 . S
C457 C456 1.267 . S
C457 C458 1.251 . S
C458 H428 0.929 . S
C458 N454 1.418 . S
C458 C457 1.251 . S
C459 H426 0.930 . S
C459 C461 1.406 . S
C459 C464 1.261 . S
C460 H427 0.930 . S
C460 N462 1.325 . S
C460 C463 1.357 . S
C461 H429 0.928 . S
C461 C459 1.406 . S
C461 N462 1.261 . S
N462 Co413 2.214 1_554 S
N462 C460 1.325 . S
N462 C461 1.261 . S
C463 H433 0.931 . S
C463 C460 1.357 . S
C463 C464 1.312 . S
C464 H435 0.930 . S
C464 C459 1.261 . S
C464 C463 1.312 . S
C465 O437 1.214 . S
C465 O445 1.234 . S
C466 H438 0.929 . S
C466 C469 1.391 . S
C466 C471 1.391 . S
C467 H439 0.929 . S
C467 C468 1.390 . S
C467 N470 1.391 . S
C468 H440 0.930 . S
C468 C467 1.390 . S
C468 C469 1.392 . S
C469 H441 0.929 . S
C469 C466 1.391 . S
C469 C468 1.392 . S
N470 Co414 2.257 . S
N470 C467 1.391 . S
N470 C471 1.388 . S
C471 H442 0.930 . S
C471 C466 1.391 . S
C471 N470 1.388 . S
Co472 O474 2.143 . S
Co472 O480 2.074 . S
Co472 O483 2.093 . S
Co472 O496 2.097 . S
Co472 N513 2.151 . S
Co472 N521 2.214 . S
Co473 O474 2.160 . S
Co473 O479 2.058 . S
Co473 O489 2.057 . S
Co473 O504 2.037 . S
Co473 N508 2.145 . S
Co473 N529 2.257 . S
O474 Co472 2.143 . S
O474 Co473 2.160 . S
C475 O476 1.278 . S
C475 O483 1.224 . S
O476 C475 1.278 . S
C477 O478 1.245 . S
C477 O489 1.232 . S
O478 C477 1.245 . S
O479 Co473 2.058 . S
O479 C505 1.269 . S
O480 Co472 2.074 . S
O480 C505 1.257 . S
H481 C506 0.930 . S
H482 C512 0.930 . S
O483 Co472 2.093 . S
O483 C475 1.224 . S
H484 C516 0.929 . S
H485 C518 0.930 . S
H486 C519 0.930 . S
H487 C517 0.929 . S
H488 C520 0.928 . S
O489 Co473 2.057 . S
O489 C477 1.232 . S
H490 C509 0.929 . S
H491 C510 0.929 . S
H492 C522 0.931 . S
H493 C514 0.929 . S
H494 C523 0.930 . S
H495 C515 0.931 . S
O496 Co472 2.097 . S
O496 C524 1.214 . S
H497 C525 0.929 . S
H498 C526 0.929 . S
H499 C527 0.930 . S
H500 C528 0.929 . S
H501 C530 0.930 . S
H502 C507 0.930 . S
H503 C511 0.930 . S
O504 Co473 2.037 . S
O504 C524 1.234 . S
C505 O479 1.269 . S
C505 O480 1.257 . S
C506 H481 0.930 . S
C506 C509 1.388 . S
C506 C511 1.418 . S
C507 H502 0.930 . S
C507 C510 1.404 . S
C507 C511 1.353 . S
N508 Co473 2.145 . S
N508 C509 1.397 . S
N508 C510 1.334 . S
C509 H490 0.929 . S
C509 C506 1.388 . S
C509 N508 1.397 . S
C510 H491 0.929 . S
C510 C507 1.404 . S
C510 N508 1.334 . S
C511 H503 0.930 . S
C511 C506 1.418 . S
C511 C507 1.353 . S
C512 H482 0.930 . S
C512 N513 1.330 . S
C512 C514 1.446 . S
N513 Co472 2.151 . S
N513 C512 1.330 . S
N513 C517 1.418 . S
C514 H493 0.929 . S
C514 C512 1.446 . S
C514 C515 1.332 . S
C515 H495 0.931 . S
C515 C514 1.332 . S
C515 C516 1.267 . S
C516 H484 0.929 . S
C516 C515 1.267 . S
C516 C517 1.251 . S
C517 H487 0.929 . S
C517 N513 1.418 . S
C517 C516 1.251 . S
C518 H485 0.930 . S
C518 C520 1.406 . S
C518 C523 1.261 . S
C519 H486 0.930 . S
C519 N521 1.325 . S
C519 C522 1.357 . S
C520 H488 0.928 . S
C520 C518 1.406 . S
C520 N521 1.261 . S
N521 Co472 2.214 . S
N521 C519 1.325 . S
N521 C520 1.261 . S
C522 H492 0.931 . S
C522 C519 1.357 . S
C522 C523 1.312 . S
C523 H494 0.930 . S
C523 C518 1.261 . S
C523 C522 1.312 . S
C524 O496 1.214 . S
C524 O504 1.234 . S
C525 H497 0.929 . S
C525 C528 1.391 . S
C525 C530 1.391 . S
C526 H498 0.929 . S
C526 C527 1.390 . S
C526 N529 1.391 . S
C527 H499 0.930 . S
C527 C526 1.390 . S
C527 C528 1.392 . S
C528 H500 0.929 . S
C528 C525 1.391 . S
C528 C527 1.392 . S
N529 Co473 2.257 . S
N529 C526 1.391 . S
N529 C530 1.388 . S
C530 H501 0.930 . S
C530 C525 1.391 . S
C530 N529 1.388 . S
Co531 O533 2.143 . S
Co531 O539 2.074 . S
Co531 O542 2.093 . S
Co531 O555 2.097 . S
Co531 N572 2.151 . S
Co531 N580 2.214 . S
Co532 O533 2.160 . S
Co532 O538 2.058 . S
Co532 O548 2.057 . S
Co532 O563 2.037 . S
Co532 N567 2.145 . S
Co532 N588 2.257 . S
O533 Co531 2.143 . S
O533 Co532 2.160 . S
C534 O535 1.278 . S
C534 O542 1.224 . S
O535 C534 1.278 . S
C536 O537 1.245 . S
C536 O548 1.232 . S
O537 C536 1.245 . S
O538 Co532 2.058 . S
O538 C564 1.269 . S
O539 Co531 2.074 . S
O539 C564 1.257 . S
H540 C565 0.930 . S
H541 C571 0.930 . S
O542 Co531 2.093 . S
O542 C534 1.224 . S
H543 C575 0.929 . S
H544 C577 0.930 1_556 S
H545 C578 0.930 . S
H546 C576 0.929 . S
H547 C579 0.928 . S
O548 Co532 2.057 . S
O548 C536 1.232 . S
H549 C568 0.929 . S
H550 C569 0.929 . S
H551 C581 0.931 . S
H552 C573 0.929 . S
H553 C582 0.931 . S
H554 C574 0.931 . S
O555 Co531 2.097 . S
O555 C583 1.214 . S
H556 C584 0.929 . S
H557 C585 0.929 . S
H558 C586 0.930 . S
H559 C587 0.929 . S
H560 C589 0.930 . S
H561 C566 0.930 . S
H562 C570 0.930 . S
O563 Co532 2.037 . S
O563 C583 1.234 . S
C564 O538 1.269 . S
C564 O539 1.257 . S
C565 H540 0.930 . S
C565 C568 1.388 . S
C565 C570 1.418 . S
C566 H561 0.930 . S
C566 C569 1.404 . S
C566 C570 1.353 . S
N567 Co532 2.145 . S
N567 C568 1.397 . S
N567 C569 1.334 . S
C568 H549 0.929 . S
C568 C565 1.388 . S
C568 N567 1.397 . S
C569 H550 0.929 . S
C569 C566 1.404 . S
C569 N567 1.334 . S
C570 H562 0.930 . S
C570 C565 1.418 . S
C570 C566 1.353 . S
C571 H541 0.930 . S
C571 N572 1.330 . S
C571 C573 1.446 . S
N572 Co531 2.151 . S
N572 C571 1.330 . S
N572 C576 1.418 . S
C573 H552 0.929 . S
C573 C571 1.446 . S
C573 C574 1.332 . S
C574 H554 0.931 . S
C574 C573 1.332 . S
C574 C575 1.267 . S
C575 H543 0.929 . S
C575 C574 1.267 . S
C575 C576 1.251 . S
C576 H546 0.929 . S
C576 N572 1.418 . S
C576 C575 1.251 . S
C577 H544 0.930 1_554 S
C577 C579 1.406 . S
C577 C582 1.260 1_554 S
C578 H545 0.930 . S
C578 N580 1.325 . S
C578 C581 1.357 . S
C579 H547 0.928 . S
C579 C577 1.406 . S
C579 N580 1.261 . S
N580 Co531 2.214 . S
N580 C578 1.325 . S
N580 C579 1.261 . S
C581 H551 0.931 . S
C581 C578 1.357 . S
C581 C582 1.312 1_554 S
C582 H553 0.931 . S
C582 C577 1.260 1_556 S
C582 C581 1.312 1_556 S
C583 O555 1.214 . S
C583 O563 1.234 . S
C584 H556 0.929 . S
C584 C587 1.391 . S
C584 C589 1.391 . S
C585 H557 0.929 . S
C585 C586 1.390 . S
C585 N588 1.391 . S
C586 H558 0.930 . S
C586 C585 1.390 . S
C586 C587 1.392 . S
C587 H559 0.929 . S
C587 C584 1.391 . S
C587 C586 1.392 . S
N588 Co532 2.257 . S
N588 C585 1.391 . S
N588 C589 1.388 . S
C589 H560 0.930 . S
C589 C584 1.391 . S
C589 N588 1.388 . S
Co590 O592 2.143 . S
Co590 O598 2.074 . S
Co590 O601 2.093 . S
Co590 O614 2.097 . S
Co590 N631 2.151 . S
Co590 N639 2.214 . S
Co591 O592 2.160 . S
Co591 O597 2.058 . S
Co591 O607 2.057 . S
Co591 O622 2.037 . S
Co591 N626 2.145 . S
Co591 N647 2.257 . S
O592 Co590 2.143 . S
O592 Co591 2.160 . S
C593 O594 1.278 . S
C593 O601 1.224 . S
O594 C593 1.278 . S
C595 O596 1.245 . S
C595 O607 1.232 . S
O596 C595 1.245 . S
O597 Co591 2.058 . S
O597 C623 1.269 . S
O598 Co590 2.074 . S
O598 C623 1.257 . S
H599 C624 0.930 . S
H600 C630 0.930 . S
O601 Co590 2.093 . S
O601 C593 1.224 . S
H602 C634 0.929 . S
H603 C636 0.930 . S
H604 C637 0.930 . S
H605 C635 0.929 . S
H606 C638 0.928 . S
O607 Co591 2.057 . S
O607 C595 1.232 . S
H608 C627 0.929 . S
H609 C628 0.929 . S
H610 C640 0.931 . S
H611 C632 0.929 . S
H612 C641 0.930 . S
H613 C633 0.931 . S
O614 Co590 2.097 . S
O614 C642 1.214 . S
H615 C643 0.929 . S
H616 C644 0.929 . S
H617 C645 0.930 . S
H618 C646 0.929 . S
H619 C648 0.930 . S
H620 C625 0.930 . S
H621 C629 0.930 . S
O622 Co591 2.037 . S
O622 C642 1.234 . S
C623 O597 1.269 . S
C623 O598 1.257 . S
C624 H599 0.930 . S
C624 C627 1.388 . S
C624 C629 1.418 . S
C625 H620 0.930 . S
C625 C628 1.404 . S
C625 C629 1.353 . S
N626 Co591 2.145 . S
N626 C627 1.397 . S
N626 C628 1.334 . S
C627 H608 0.929 . S
C627 C624 1.388 . S
C627 N626 1.397 . S
C628 H609 0.929 . S
C628 C625 1.404 . S
C628 N626 1.334 . S
C629 H621 0.930 . S
C629 C624 1.418 . S
C629 C625 1.353 . S
C630 H600 0.930 . S
C630 N631 1.330 . S
C630 C632 1.446 . S
N631 Co590 2.151 . S
N631 C630 1.330 . S
N631 C635 1.418 . S
C632 H611 0.929 . S
C632 C630 1.446 . S
C632 C633 1.332 . S
C633 H613 0.931 . S
C633 C632 1.332 . S
C633 C634 1.267 . S
C634 H602 0.929 . S
C634 C633 1.267 . S
C634 C635 1.251 . S
C635 H605 0.929 . S
C635 N631 1.418 . S
C635 C634 1.251 . S
C636 H603 0.930 . S
C636 C638 1.406 . S
C636 C641 1.261 . S
C637 H604 0.930 . S
C637 N639 1.325 . S
C637 C640 1.357 . S
C638 H606 0.928 . S
C638 C636 1.406 . S
C638 N639 1.261 . S
N639 Co590 2.214 . S
N639 C637 1.325 . S
N639 C638 1.261 . S
C640 H610 0.931 . S
C640 C637 1.357 . S
C640 C641 1.312 . S
C641 H612 0.930 . S
C641 C636 1.261 . S
C641 C640 1.312 . S
C642 O614 1.214 . S
C642 O622 1.234 . S
C643 H615 0.929 . S
C643 C646 1.391 . S
C643 C648 1.391 . S
C644 H616 0.929 . S
C644 C645 1.390 . S
C644 N647 1.391 . S
C645 H617 0.930 . S
C645 C644 1.390 . S
C645 C646 1.392 . S
C646 H618 0.929 . S
C646 C643 1.391 . S
C646 C645 1.392 . S
N647 Co591 2.257 . S
N647 C644 1.391 . S
N647 C648 1.388 . S
C648 H619 0.930 . S
C648 C643 1.391 . S
C648 N647 1.388 . S
Co649 O651 2.143 . S
Co649 O657 2.074 . S
Co649 O660 2.093 . S
Co649 O673 2.097 . S
Co649 N690 2.151 . S
Co649 N698 2.214 . S
Co650 O651 2.160 . S
Co650 O656 2.058 . S
Co650 O666 2.057 . S
Co650 O681 2.037 . S
Co650 N685 2.145 . S
Co650 N706 2.257 . S
O651 Co649 2.143 . S
O651 Co650 2.160 . S
C652 O653 1.278 . S
C652 O660 1.224 . S
O653 C652 1.278 . S
C654 O655 1.245 . S
C654 O666 1.232 . S
O655 C654 1.245 . S
O656 Co650 2.058 . S
O656 C682 1.269 . S
O657 Co649 2.074 . S
O657 C682 1.257 . S
H658 C683 0.930 . S
H659 C689 0.930 . S
O660 Co649 2.093 . S
O660 C652 1.224 . S
H661 C693 0.929 . S
H662 C695 0.930 1_556 S
H663 C696 0.930 . S
H664 C694 0.929 . S
H665 C697 0.928 . S
O666 Co650 2.057 . S
O666 C654 1.232 . S
H667 C686 0.929 . S
H668 C687 0.929 . S
H669 C699 0.931 . S
H670 C691 0.929 . S
H671 C700 0.934 . S
H672 C692 0.931 . S
O673 Co649 2.097 . S
O673 C701 1.214 . S
H674 C702 0.929 . S
H675 C703 0.929 . S
H676 C704 0.930 . S
H677 C705 0.929 . S
H678 C707 0.930 . S
H679 C684 0.930 . S
H680 C688 0.930 . S
O681 Co650 2.037 . S
O681 C701 1.234 . S
C682 O656 1.269 . S
C682 O657 1.257 . S
C683 H658 0.930 . S
C683 C686 1.388 . S
C683 C688 1.418 . S
C684 H679 0.930 . S
C684 C687 1.404 . S
C684 C688 1.353 . S
N685 Co650 2.145 . S
N685 C686 1.397 . S
N685 C687 1.334 . S
C686 H667 0.929 . S
C686 C683 1.388 . S
C686 N685 1.397 . S
C687 H668 0.929 . S
C687 C684 1.404 . S
C687 N685 1.334 . S
C688 H680 0.930 . S
C688 C683 1.418 . S
C688 C684 1.353 . S
C689 H659 0.930 . S
C689 N690 1.330 . S
C689 C691 1.446 . S
N690 Co649 2.151 . S
N690 C689 1.330 . S
N690 C694 1.418 . S
C691 H670 0.929 . S
C691 C689 1.446 . S
C691 C692 1.332 . S
C692 H672 0.931 . S
C692 C691 1.332 . S
C692 C693 1.267 . S
C693 H661 0.929 . S
C693 C692 1.267 . S
C693 C694 1.251 . S
C694 H664 0.929 . S
C694 N690 1.418 . S
C694 C693 1.251 . S
C695 H662 0.930 1_554 S
C695 C697 1.406 . S
C695 C700 1.260 1_554 S
C696 H663 0.930 . S
C696 N698 1.325 . S
C696 C699 1.357 . S
C697 H665 0.928 . S
C697 C695 1.406 . S
C697 N698 1.261 . S
N698 Co649 2.214 . S
N698 C696 1.325 . S
N698 C697 1.261 . S
C699 H669 0.931 . S
C699 C696 1.357 . S
C699 C700 1.310 1_554 S
C700 H671 0.934 . S
C700 C695 1.260 1_556 S
C700 C699 1.310 1_556 S
C701 O673 1.214 . S
C701 O681 1.234 . S
C702 H674 0.929 . S
C702 C705 1.391 . S
C702 C707 1.391 . S
C703 H675 0.929 . S
C703 C704 1.390 . S
C703 N706 1.391 . S
C704 H676 0.930 . S
C704 C703 1.390 . S
C704 C705 1.392 . S
C705 H677 0.929 . S
C705 C702 1.391 . S
C705 C704 1.392 . S
N706 Co650 2.257 . S
N706 C703 1.391 . S
N706 C707 1.388 . S
C707 H678 0.930 . S
C707 C702 1.391 . S
C707 N706 1.388 . S
Co708 O710 2.143 . S
Co708 O716 2.074 . S
Co708 O719 2.093 . S
Co708 O732 2.097 . S
Co708 N749 2.151 . S
Co708 N757 2.214 . S
Co709 O710 2.160 . S
Co709 O715 2.058 . S
Co709 O725 2.057 . S
Co709 O740 2.037 . S
Co709 N744 2.145 . S
Co709 N765 2.257 . S
O710 Co708 2.143 . S
O710 Co709 2.160 . S
C711 O712 1.278 . S
C711 O719 1.224 . S
O712 C711 1.278 . S
C713 O714 1.245 . S
C713 O725 1.232 . S
O714 C713 1.245 . S
O715 Co709 2.058 . S
O715 C741 1.269 . S
O716 Co708 2.074 . S
O716 C741 1.257 . S
H717 C742 0.930 . S
H718 C748 0.930 . S
O719 Co708 2.093 . S
O719 C711 1.224 . S
H720 C752 0.929 . S
H721 C754 0.930 . S
H722 C755 0.930 . S
H723 C753 0.929 . S
H724 C756 0.928 . S
O725 Co709 2.057 . S
O725 C713 1.232 . S
H726 C745 0.929 . S
H727 C746 0.929 . S
H728 C758 0.931 . S
H729 C750 0.929 . S
H730 C759 0.930 . S
H731 C751 0.931 . S
O732 Co708 2.097 . S
O732 C760 1.214 . S
H733 C761 0.929 . S
H734 C762 0.929 . S
H735 C763 0.930 . S
H736 C764 0.929 . S
H737 C766 0.930 . S
H738 C743 0.930 . S
H739 C747 0.930 . S
O740 Co709 2.037 . S
O740 C760 1.234 . S
C741 O715 1.269 . S
C741 O716 1.257 . S
C742 H717 0.930 . S
C742 C745 1.388 . S
C742 C747 1.418 1_556 S
C743 H738 0.930 . S
C743 C746 1.404 1_554 S
C743 C747 1.353 . S
N744 Co709 2.145 . S
N744 C745 1.397 . S
N744 C746 1.334 . S
C745 H726 0.929 . S
C745 C742 1.388 . S
C745 N744 1.397 . S
C746 H727 0.929 . S
C746 C743 1.404 1_556 S
C746 N744 1.334 . S
C747 H739 0.930 . S
C747 C742 1.418 1_554 S
C747 C743 1.353 . S
C748 H718 0.930 . S
C748 N749 1.330 . S
C748 C750 1.446 . S
N749 Co708 2.151 . S
N749 C748 1.330 . S
N749 C753 1.418 . S
C750 H729 0.929 . S
C750 C748 1.446 . S
C750 C751 1.332 . S
C751 H731 0.931 . S
C751 C750 1.332 . S
C751 C752 1.267 . S
C752 H720 0.929 . S
C752 C751 1.267 . S
C752 C753 1.251 . S
C753 H723 0.929 . S
C753 N749 1.418 . S
C753 C752 1.251 . S
C754 H721 0.930 . S
C754 C756 1.406 . S
C754 C759 1.261 . S
C755 H722 0.930 . S
C755 N757 1.325 . S
C755 C758 1.357 . S
C756 H724 0.928 . S
C756 C754 1.406 . S
C756 N757 1.261 . S
N757 Co708 2.214 . S
N757 C755 1.325 . S
N757 C756 1.261 . S
C758 H728 0.931 . S
C758 C755 1.357 . S
C758 C759 1.312 . S
C759 H730 0.930 . S
C759 C754 1.261 . S
C759 C758 1.312 . S
C760 O732 1.214 . S
C760 O740 1.234 . S
C761 H733 0.929 . S
C761 C764 1.391 . S
C761 C766 1.391 . S
C762 H734 0.929 . S
C762 C763 1.390 . S
C762 N765 1.391 . S
C763 H735 0.930 . S
C763 C762 1.390 . S
C763 C764 1.392 . S
C764 H736 0.929 . S
C764 C761 1.391 . S
C764 C763 1.392 . S
N765 Co709 2.257 . S
N765 C762 1.391 . S
N765 C766 1.388 . S
C766 H737 0.930 . S
C766 C761 1.391 . S
C766 N765 1.388 . S
Co767 O769 2.143 . S
Co767 O775 2.074 . S
Co767 O778 2.093 . S
Co767 O791 2.097 . S
Co767 N808 2.151 . S
Co767 N816 2.214 . S
Co768 O769 2.160 . S
Co768 O774 2.058 . S
Co768 O784 2.057 . S
Co768 O799 2.037 . S
Co768 N803 2.145 . S
Co768 N824 2.257 . S
O769 Co767 2.143 . S
O769 Co768 2.160 . S
C770 O771 1.278 . S
C770 O778 1.224 . S
O771 C770 1.278 . S
C772 O773 1.245 . S
C772 O784 1.232 . S
O773 C772 1.245 . S
O774 Co768 2.058 . S
O774 C800 1.269 . S
O775 Co767 2.074 . S
O775 C800 1.257 . S
H776 C801 0.930 . S
H777 C807 0.930 . S
O778 Co767 2.093 . S
O778 C770 1.224 . S
H779 C811 0.929 . S
H780 C813 0.930 . S
H781 C814 0.930 . S
H782 C812 0.929 . S
H783 C815 0.928 . S
O784 Co768 2.057 . S
O784 C772 1.232 . S
H785 C804 0.929 . S
H786 C805 0.929 . S
H787 C817 0.931 . S
H788 C809 0.929 . S
H789 C818 0.930 . S
H790 C810 0.931 . S
O791 Co767 2.097 . S
O791 C819 1.214 . S
H792 C820 0.929 . S
H793 C821 0.929 . S
H794 C822 0.930 . S
H795 C823 0.929 . S
H796 C825 0.930 . S
H797 C802 0.930 . S
H798 C806 0.930 . S
O799 Co768 2.037 . S
O799 C819 1.234 . S
C800 O774 1.269 . S
C800 O775 1.257 . S
C801 H776 0.930 . S
C801 C804 1.388 . S
C801 C806 1.418 . S
C802 H797 0.930 . S
C802 C805 1.404 . S
C802 C806 1.353 . S
N803 Co768 2.145 . S
N803 C804 1.397 . S
N803 C805 1.334 . S
C804 H785 0.929 . S
C804 C801 1.388 . S
C804 N803 1.397 . S
C805 H786 0.929 . S
C805 C802 1.404 . S
C805 N803 1.334 . S
C806 H798 0.930 . S
C806 C801 1.418 . S
C806 C802 1.353 . S
C807 H777 0.930 . S
C807 N808 1.330 . S
C807 C809 1.446 . S
N808 Co767 2.151 . S
N808 C807 1.330 . S
N808 C812 1.418 . S
C809 H788 0.929 . S
C809 C807 1.446 . S
C809 C810 1.332 . S
C810 H790 0.931 . S
C810 C809 1.332 . S
C810 C811 1.267 . S
C811 H779 0.929 . S
C811 C810 1.267 . S
C811 C812 1.251 . S
C812 H782 0.929 . S
C812 N808 1.418 . S
C812 C811 1.251 . S
C813 H780 0.930 . S
C813 C815 1.406 . S
C813 C818 1.261 . S
C814 H781 0.930 . S
C814 N816 1.325 . S
C814 C817 1.357 . S
C815 H783 0.928 . S
C815 C813 1.406 . S
C815 N816 1.261 . S
N816 Co767 2.214 . S
N816 C814 1.325 . S
N816 C815 1.261 . S
C817 H787 0.931 . S
C817 C814 1.357 . S
C817 C818 1.312 . S
C818 H789 0.930 . S
C818 C813 1.261 . S
C818 C817 1.312 . S
C819 O791 1.214 . S
C819 O799 1.234 . S
C820 H792 0.929 . S
C820 C823 1.391 . S
C820 C825 1.391 . S
C821 H793 0.929 . S
C821 C822 1.390 . S
C821 N824 1.391 . S
C822 H794 0.930 . S
C822 C821 1.390 . S
C822 C823 1.392 . S
C823 H795 0.929 . S
C823 C820 1.391 . S
C823 C822 1.392 . S
N824 Co768 2.257 . S
N824 C821 1.391 . S
N824 C825 1.388 . S
C825 H796 0.930 . S
C825 C820 1.391 . S
C825 N824 1.388 . S
Co826 O828 2.143 . S
Co826 O834 2.074 . S
Co826 O837 2.093 . S
Co826 O850 2.097 . S
Co826 N867 2.151 . S
Co826 N875 2.214 . S
Co827 O828 2.160 . S
Co827 O833 2.058 . S
Co827 O843 2.057 . S
Co827 O858 2.037 . S
Co827 N862 2.145 . S
Co827 N883 2.257 . S
O828 Co826 2.143 . S
O828 Co827 2.160 . S
C829 O830 1.278 . S
C829 O837 1.224 . S
O830 C829 1.278 . S
C831 O832 1.245 . S
C831 O843 1.232 . S
O832 C831 1.245 . S
O833 Co827 2.058 . S
O833 C859 1.269 . S
O834 Co826 2.074 . S
O834 C859 1.257 . S
H835 C860 0.930 . S
H836 C866 0.930 . S
O837 Co826 2.093 . S
O837 C829 1.224 . S
H838 C870 0.929 . S
H839 C872 0.930 . S
H840 C873 0.930 . S
H841 C871 0.929 . S
H842 C874 0.928 . S
O843 Co827 2.057 . S
O843 C831 1.232 . S
H844 C863 0.929 . S
H845 C864 0.929 . S
H846 C876 0.931 . S
H847 C868 0.929 . S
H848 C877 0.930 . S
H849 C869 0.931 . S
O850 Co826 2.097 . S
O850 C878 1.214 . S
H851 C879 0.929 . S
H852 C880 0.929 . S
H853 C881 0.930 . S
H854 C882 0.929 . S
H855 C884 0.930 . S
H856 C861 0.930 . S
H857 C865 0.930 . S
O858 Co827 2.037 . S
O858 C878 1.234 . S
C859 O833 1.269 . S
C859 O834 1.257 . S
C860 H835 0.930 . S
C860 C863 1.388 . S
C860 C865 1.418 1_556 S
C861 H856 0.930 . S
C861 C864 1.404 1_554 S
C861 C865 1.353 . S
N862 Co827 2.145 . S
N862 C863 1.397 . S
N862 C864 1.334 . S
C863 H844 0.929 . S
C863 C860 1.388 . S
C863 N862 1.397 . S
C864 H845 0.929 . S
C864 C861 1.404 1_556 S
C864 N862 1.334 . S
C865 H857 0.930 . S
C865 C860 1.418 1_554 S
C865 C861 1.353 . S
C866 H836 0.930 . S
C866 N867 1.330 . S
C866 C868 1.446 . S
N867 Co826 2.151 . S
N867 C866 1.330 . S
N867 C871 1.418 . S
C868 H847 0.929 . S
C868 C866 1.446 . S
C868 C869 1.332 . S
C869 H849 0.931 . S
C869 C868 1.332 . S
C869 C870 1.267 . S
C870 H838 0.929 . S
C870 C869 1.267 . S
C870 C871 1.251 . S
C871 H841 0.929 . S
C871 N867 1.418 . S
C871 C870 1.251 . S
C872 H839 0.930 . S
C872 C874 1.406 . S
C872 C877 1.261 . S
C873 H840 0.930 . S
C873 N875 1.325 . S
C873 C876 1.357 . S
C874 H842 0.928 . S
C874 C872 1.406 . S
C874 N875 1.261 . S
N875 Co826 2.214 . S
N875 C873 1.325 . S
N875 C874 1.261 . S
C876 H846 0.931 . S
C876 C873 1.357 . S
C876 C877 1.312 . S
C877 H848 0.930 . S
C877 C872 1.261 . S
C877 C876 1.312 . S
C878 O850 1.214 . S
C878 O858 1.234 . S
C879 H851 0.929 . S
C879 C882 1.391 . S
C879 C884 1.391 . S
C880 H852 0.929 . S
C880 C881 1.390 . S
C880 N883 1.391 . S
C881 H853 0.930 . S
C881 C880 1.390 . S
C881 C882 1.392 . S
C882 H854 0.929 . S
C882 C879 1.391 . S
C882 C881 1.392 . S
N883 Co827 2.257 . S
N883 C880 1.391 . S
N883 C884 1.388 . S
C884 H855 0.930 . S
C884 C879 1.391 . S
C884 N883 1.388 . S
Co885 O887 2.143 . S
Co885 O893 2.074 . S
Co885 O896 2.093 . S
Co885 O909 2.097 . S
Co885 N926 2.151 . S
Co885 N934 2.214 . S
Co886 O887 2.160 . S
Co886 O892 2.058 . S
Co886 O902 2.057 . S
Co886 O917 2.037 . S
Co886 N921 2.145 . S
Co886 N942 2.257 . S
O887 Co885 2.143 . S
O887 Co886 2.160 . S
C888 O889 1.278 . S
C888 O896 1.224 . S
O889 C888 1.278 . S
C890 O891 1.245 . S
C890 O902 1.232 . S
O891 C890 1.245 . S
O892 Co886 2.058 . S
O892 C918 1.269 . S
O893 Co885 2.074 . S
O893 C918 1.257 . S
H894 C919 0.930 . S
H895 C925 0.930 . S
O896 Co885 2.093 . S
O896 C888 1.224 . S
H897 C929 0.929 . S
H898 C931 0.930 . S
H899 C932 0.930 . S
H900 C930 0.929 . S
H901 C933 0.928 . S
O902 Co886 2.057 . S
O902 C890 1.232 . S
H903 C922 0.929 . S
H904 C923 0.929 . S
H905 C935 0.931 . S
H906 C927 0.929 . S
H907 C936 0.930 . S
H908 C928 0.931 . S
O909 Co885 2.097 . S
O909 C937 1.214 . S
H910 C938 0.929 . S
H911 C939 0.929 . S
H912 C940 0.930 . S
H913 C941 0.929 . S
H914 C943 0.930 . S
H915 C920 0.930 . S
H916 C924 0.930 . S
O917 Co886 2.037 . S
O917 C937 1.234 . S
C918 O892 1.269 . S
C918 O893 1.257 . S
C919 H894 0.930 . S
C919 C922 1.388 . S
C919 C924 1.418 . S
C920 H915 0.930 . S
C920 C923 1.404 . S
C920 C924 1.353 . S
N921 Co886 2.145 . S
N921 C922 1.397 . S
N921 C923 1.334 . S
C922 H903 0.929 . S
C922 C919 1.388 . S
C922 N921 1.397 . S
C923 H904 0.929 . S
C923 C920 1.404 . S
C923 N921 1.334 . S
C924 H916 0.930 . S
C924 C919 1.418 . S
C924 C920 1.353 . S
C925 H895 0.930 . S
C925 N926 1.330 . S
C925 C927 1.446 . S
N926 Co885 2.151 . S
N926 C925 1.330 . S
N926 C930 1.418 . S
C927 H906 0.929 . S
C927 C925 1.446 . S
C927 C928 1.332 . S
C928 H908 0.931 . S
C928 C927 1.332 . S
C928 C929 1.267 . S
C929 H897 0.929 . S
C929 C928 1.267 . S
C929 C930 1.251 . S
C930 H900 0.929 . S
C930 N926 1.418 . S
C930 C929 1.251 . S
C931 H898 0.930 . S
C931 C933 1.406 . S
C931 C936 1.261 . S
C932 H899 0.930 . S
C932 N934 1.325 . S
C932 C935 1.357 . S
C933 H901 0.928 . S
C933 C931 1.406 . S
C933 N934 1.261 . S
N934 Co885 2.214 . S
N934 C932 1.325 . S
N934 C933 1.261 . S
C935 H905 0.931 . S
C935 C932 1.357 . S
C935 C936 1.312 . S
C936 H907 0.930 . S
C936 C931 1.261 . S
C936 C935 1.312 . S
C937 O909 1.214 . S
C937 O917 1.234 . S
C938 H910 0.929 . S
C938 C941 1.391 . S
C938 C943 1.391 . S
C939 H911 0.929 . S
C939 C940 1.390 . S
C939 N942 1.391 . S
C940 H912 0.930 . S
C940 C939 1.390 . S
C940 C941 1.392 . S
C941 H913 0.929 . S
C941 C938 1.391 . S
C941 C940 1.392 . S
N942 Co886 2.257 . S
N942 C939 1.391 . S
N942 C943 1.388 . S
C943 H914 0.930 . S
C943 C938 1.391 . S
C943 N942 1.388 . S
H944 C952 0.950 . S
H945 C957 0.950 . S
H946 C954 0.950 . S
H947 C956 0.950 . S
H948 C958 0.950 . S
H949 C960 0.950 . S
H950 C962 0.950 1_565 S
H951 C963 0.950 . S
C952 H944 0.950 . S
C952 C953 1.386 . S
C952 C954 1.391 . S
C953 C952 1.386 . S
C953 C957 1.393 . S
C954 H946 0.950 . S
C954 C952 1.391 . S
C954 C955 1.400 . S
C955 C954 1.400 . S
C955 C956 1.398 . S
C955 C961 1.491 1_565 S
C956 H947 0.950 . S
C956 C955 1.398 . S
C956 C957 1.391 . S
C957 H945 0.950 . S
C957 C953 1.393 . S
C957 C956 1.391 . S
C958 H948 0.950 . S
C958 C959 1.386 . S
C958 C960 1.391 . S
C959 C958 1.386 . S
C959 C963 1.393 . S
C960 H949 0.950 . S
C960 C958 1.391 . S
C960 C961 1.400 . S
C961 C955 1.491 1_545 S
C961 C960 1.400 . S
C961 C962 1.398 . S
C962 H950 0.950 1_545 S
C962 C961 1.398 . S
C962 C963 1.391 . S
C963 H951 0.950 . S
C963 C959 1.393 . S
C963 C962 1.391 . S
H964 C972 0.950 . S
H965 C977 0.950 . S
H966 C974 0.950 . S
H967 C976 0.950 . S
H968 C978 0.950 . S
H969 C980 0.950 . S
H970 C982 0.950 . S
H971 C983 0.950 . S
C972 H964 0.950 . S
C972 C973 1.386 . S
C972 C974 1.391 . S
C973 C972 1.386 . S
C973 C977 1.393 . S
C974 H966 0.950 . S
C974 C972 1.391 . S
C974 C975 1.400 . S
C975 C974 1.400 . S
C975 C976 1.398 . S
C975 C981 1.491 1_455 S
C976 H967 0.950 . S
C976 C975 1.398 . S
C976 C977 1.391 . S
C977 H965 0.950 . S
C977 C973 1.393 . S
C977 C976 1.391 . S
C978 H968 0.950 . S
C978 C979 1.386 . S
C978 C980 1.391 . S
C979 C978 1.386 . S
C979 C983 1.393 . S
C980 H969 0.950 . S
C980 C978 1.391 . S
C980 C981 1.400 . S
C981 C975 1.491 1_655 S
C981 C980 1.400 . S
C981 C982 1.398 . S
C982 H970 0.950 . S
C982 C981 1.398 . S
C982 C983 1.391 . S
C983 H971 0.950 . S
C983 C979 1.393 . S
C983 C982 1.391 . S
H984 C992 0.950 . S
H985 C997 0.950 . S
H986 C994 0.950 1_545 S
H987 C996 0.950 . S
H988 C998 0.950 . S
H989 C1000 0.950 . S
H990 C1002 0.950 . S
H991 C1003 0.950 . S
C992 H984 0.950 . S
C992 C993 1.386 . S
C992 C994 1.391 . S
C993 C992 1.386 . S
C993 C997 1.393 . S
C994 H986 0.950 1_565 S
C994 C992 1.391 . S
C994 C995 1.400 . S
C995 C994 1.400 . S
C995 C996 1.398 . S
C995 C1001 1.491 1_565 S
C996 H987 0.950 . S
C996 C995 1.398 . S
C996 C997 1.391 . S
C997 H985 0.950 . S
C997 C993 1.393 . S
C997 C996 1.391 . S
C998 H988 0.950 . S
C998 C999 1.386 . S
C998 C1000 1.391 . S
C999 C998 1.386 . S
C999 C1003 1.393 . S
C1000 H989 0.950 . S
C1000 C998 1.391 . S
C1000 C1001 1.400 . S
C1001 C995 1.491 1_545 S
C1001 C1000 1.400 . S
C1001 C1002 1.398 . S
C1002 H990 0.950 . S
C1002 C1001 1.398 . S
C1002 C1003 1.391 . S
C1003 H991 0.950 . S
C1003 C999 1.393 . S
C1003 C1002 1.391 . S
H1004 C1012 0.950 . S
H1005 C1017 0.950 . S
H1006 C1014 0.950 . S
H1007 C1016 0.950 . S
H1008 C1018 0.950 . S
H1009 C1020 0.950 . S
H1010 C1022 0.950 . S
H1011 C1023 0.950 . S
C1012 H1004 0.950 . S
C1012 C1013 1.386 . S
C1012 C1014 1.391 . S
C1013 C1012 1.386 . S
C1013 C1017 1.393 . S
C1014 H1006 0.950 . S
C1014 C1012 1.391 . S
C1014 C1015 1.400 . S
C1015 C1014 1.400 . S
C1015 C1016 1.398 . S
C1015 C1021 1.491 1_455 S
C1016 H1007 0.950 . S
C1016 C1015 1.398 . S
C1016 C1017 1.391 . S
C1017 H1005 0.950 . S
C1017 C1013 1.393 . S
C1017 C1016 1.391 . S
C1018 H1008 0.950 . S
C1018 C1019 1.386 . S
C1018 C1020 1.391 . S
C1019 C1018 1.386 . S
C1019 C1023 1.393 . S
C1020 H1009 0.950 . S
C1020 C1018 1.391 . S
C1020 C1021 1.400 . S
C1021 C1015 1.491 1_655 S
C1021 C1020 1.400 . S
C1021 C1022 1.398 . S
C1022 H1010 0.950 . S
C1022 C1021 1.398 . S
C1022 C1023 1.391 . S
C1023 H1011 0.950 . S
C1023 C1019 1.393 . S
C1023 C1022 1.391 . S
H1024 C1032 0.950 1_556 S
H1025 C1037 0.950 . S
H1026 C1034 0.950 . S
H1027 C1036 0.950 . S
H1028 C1038 0.950 . S
H1029 C1040 0.950 1_554 S
H1030 C1042 0.950 . S
H1031 C1043 0.950 . S
C1032 H1024 0.950 1_554 S
C1032 C1033 1.386 . S
C1032 C1034 1.391 1_554 S
C1033 C1032 1.386 . S
C1033 C1037 1.393 . S
C1034 H1026 0.950 . S
C1034 C1032 1.391 1_556 S
C1034 C1035 1.400 1_556 S
C1035 C1034 1.400 1_554 S
C1035 C1036 1.398 . S
C1035 C1041 1.491 1_554 S
C1036 H1027 0.950 . S
C1036 C1035 1.398 . S
C1036 C1037 1.391 . S
C1037 H1025 0.950 . S
C1037 C1033 1.393 . S
C1037 C1036 1.391 . S
C1038 H1028 0.950 . S
C1038 C1039 1.386 . S
C1038 C1040 1.391 . S
C1039 C1038 1.386 . S
C1039 C1043 1.393 . S
C1040 H1029 0.950 1_556 S
C1040 C1038 1.391 . S
C1040 C1041 1.400 . S
C1041 C1035 1.491 1_556 S
C1041 C1040 1.400 . S
C1041 C1042 1.398 . S
C1042 H1030 0.950 . S
C1042 C1041 1.398 . S
C1042 C1043 1.391 . S
C1043 H1031 0.950 . S
C1043 C1039 1.393 . S
C1043 C1042 1.391 . S
H1044 C1052 0.950 . S
H1045 C1057 0.950 . S
H1046 C1054 0.950 . S
H1047 C1056 0.950 . S
H1048 C1058 0.950 . S
H1049 C1060 0.950 . S
H1050 C1062 0.950 . S
H1051 C1063 0.950 . S
C1052 H1044 0.950 . S
C1052 C1053 1.386 . S
C1052 C1054 1.391 1_556 S
C1053 C1052 1.386 . S
C1053 C1057 1.393 1_556 S
C1054 H1046 0.950 . S
C1054 C1052 1.391 1_554 S
C1054 C1055 1.400 . S
C1055 C1054 1.400 . S
C1055 C1056 1.398 . S
C1055 C1061 1.491 . S
C1056 H1047 0.950 . S
C1056 C1055 1.398 . S
C1056 C1057 1.391 . S
C1057 H1045 0.950 . S
C1057 C1053 1.393 1_554 S
C1057 C1056 1.391 . S
C1058 H1048 0.950 . S
C1058 C1059 1.386 . S
C1058 C1060 1.391 . S
C1059 C1058 1.386 . S
C1059 C1063 1.393 . S
C1060 H1049 0.950 . S
C1060 C1058 1.391 . S
C1060 C1061 1.400 . S
C1061 C1055 1.491 . S
C1061 C1060 1.400 . S
C1061 C1062 1.398 . S
C1062 H1050 0.950 . S
C1062 C1061 1.398 . S
C1062 C1063 1.391 . S
C1063 H1051 0.950 . S
C1063 C1059 1.393 . S
C1063 C1062 1.391 . S
H1064 C1072 0.950 1_554 S
H1065 C1077 0.950 . S
H1066 C1074 0.950 . S
H1067 C1076 0.950 . S
H1068 C1078 0.950 . S
H1069 C1080 0.950 . S
H1070 C1082 0.950 . S
H1071 C1083 0.950 . S
C1072 H1064 0.950 1_556 S
C1072 C1073 1.386 . S
C1072 C1074 1.391 1_556 S
C1073 C1072 1.386 . S
C1073 C1077 1.393 . S
C1074 H1066 0.950 . S
C1074 C1072 1.391 1_554 S
C1074 C1075 1.400 1_554 S
C1075 C1074 1.400 1_556 S
C1075 C1076 1.398 . S
C1075 C1081 1.491 1_556 S
C1076 H1067 0.950 . S
C1076 C1075 1.398 . S
C1076 C1077 1.391 . S
C1077 H1065 0.950 . S
C1077 C1073 1.393 . S
C1077 C1076 1.391 . S
C1078 H1068 0.950 . S
C1078 C1079 1.386 1_556 S
C1078 C1080 1.391 . S
C1079 C1078 1.386 1_554 S
C1079 C1083 1.393 . S
C1080 H1069 0.950 . S
C1080 C1078 1.391 . S
C1080 C1081 1.400 1_556 S
C1081 C1075 1.491 1_554 S
C1081 C1080 1.400 1_554 S
C1081 C1082 1.398 . S
C1082 H1070 0.950 . S
C1082 C1081 1.398 . S
C1082 C1083 1.391 . S
C1083 H1071 0.950 . S
C1083 C1079 1.393 . S
C1083 C1082 1.391 . S
H1084 C1092 0.950 . S
H1085 C1097 0.950 . S
H1086 C1094 0.950 . S
H1087 C1096 0.950 . S
H1088 C1098 0.950 . S
H1089 C1100 0.950 . S
H1090 C1102 0.950 . S
H1091 C1103 0.950 . S
C1092 H1084 0.950 . S
C1092 C1093 1.386 . S
C1092 C1094 1.391 . S
C1093 C1092 1.386 . S
C1093 C1097 1.393 . S
C1094 H1086 0.950 . S
C1094 C1092 1.391 . S
C1094 C1095 1.400 . S
C1095 C1094 1.400 . S
C1095 C1096 1.398 . S
C1095 C1101 1.491 . S
C1096 H1087 0.950 . S
C1096 C1095 1.398 . S
C1096 C1097 1.391 . S
C1097 H1085 0.950 . S
C1097 C1093 1.393 . S
C1097 C1096 1.391 . S
C1098 H1088 0.950 . S
C1098 C1099 1.386 1_554 S
C1098 C1100 1.391 . S
C1099 C1098 1.386 1_556 S
C1099 C1103 1.393 . S
C1100 H1089 0.950 . S
C1100 C1098 1.391 . S
C1100 C1101 1.400 . S
C1101 C1095 1.491 . S
C1101 C1100 1.400 . S
C1101 C1102 1.398 1_554 S
C1102 H1090 0.950 . S
C1102 C1101 1.398 1_556 S
C1102 C1103 1.391 . S
C1103 H1091 0.950 . S
C1103 C1099 1.393 . S
C1103 C1102 1.391 . S
H1104 C1112 0.950 . S
H1105 C1117 0.950 . S
H1106 C1114 0.950 . S
H1107 C1116 0.950 . S
H1108 C1118 0.950 . S
H1109 C1120 0.950 . S
H1110 C1122 0.950 . S
H1111 C1123 0.950 . S
C1112 H1104 0.950 . S
C1112 C1113 1.386 . S
C1112 C1114 1.391 . S
C1113 C1112 1.386 . S
C1113 C1117 1.393 . S
C1114 H1106 0.950 . S
C1114 C1112 1.391 . S
C1114 C1115 1.400 . S
C1115 C1114 1.400 . S
C1115 C1116 1.398 . S
C1115 C1121 1.491 . S
C1116 H1107 0.950 . S
C1116 C1115 1.398 . S
C1116 C1117 1.391 . S
C1117 H1105 0.950 . S
C1117 C1113 1.393 . S
C1117 C1116 1.391 . S
C1118 H1108 0.950 . S
C1118 C1119 1.386 . S
C1118 C1120 1.391 . S
C1119 C1118 1.386 . S
C1119 C1123 1.393 . S
C1120 H1109 0.950 . S
C1120 C1118 1.391 . S
C1120 C1121 1.400 . S
C1121 C1115 1.491 . S
C1121 C1120 1.400 . S
C1121 C1122 1.398 . S
C1122 H1110 0.950 . S
C1122 C1121 1.398 . S
C1122 C1123 1.391 . S
C1123 H1111 0.950 . S
C1123 C1119 1.393 . S
C1123 C1122 1.391 . S
H1124 C1132 0.950 . S
H1125 C1137 0.950 . S
H1126 C1134 0.950 . S
H1127 C1136 0.950 . S
H1128 C1138 0.950 . S
H1129 C1140 0.950 . S
H1130 C1142 0.950 . S
H1131 C1143 0.950 1_556 S
C1132 H1124 0.950 . S
C1132 C1133 1.386 . S
C1132 C1134 1.391 . S
C1133 C1132 1.386 . S
C1133 C1137 1.393 . S
C1134 H1126 0.950 . S
C1134 C1132 1.391 . S
C1134 C1135 1.400 . S
C1135 C1134 1.400 . S
C1135 C1136 1.398 . S
C1135 C1141 1.491 . S
C1136 H1127 0.950 . S
C1136 C1135 1.398 . S
C1136 C1137 1.391 . S
C1137 H1125 0.950 . S
C1137 C1133 1.393 . S
C1137 C1136 1.391 . S
C1138 H1128 0.950 . S
C1138 C1139 1.386 . S
C1138 C1140 1.391 . S
C1139 C1138 1.386 . S
C1139 C1143 1.393 . S
C1140 H1129 0.950 . S
C1140 C1138 1.391 . S
C1140 C1141 1.400 . S
C1141 C1135 1.491 . S
C1141 C1140 1.400 . S
C1141 C1142 1.398 . S
C1142 H1130 0.950 . S
C1142 C1141 1.398 . S
C1142 C1143 1.391 . S
C1143 H1131 0.950 1_554 S
C1143 C1139 1.393 . S
C1143 C1142 1.391 . S
H1144 C1152 0.950 . S
H1145 C1157 0.950 . S
H1146 C1154 0.950 . S
H1147 C1156 0.950 . S
H1148 C1158 0.950 . S
H1149 C1160 0.950 . S
H1150 C1162 0.950 . S
H1151 C1163 0.950 . S
C1152 H1144 0.950 . S
C1152 C1153 1.386 . S
C1152 C1154 1.391 . S
C1153 C1152 1.386 . S
C1153 C1157 1.393 . S
C1154 H1146 0.950 . S
C1154 C1152 1.391 . S
C1154 C1155 1.400 . S
C1155 C1154 1.400 . S
C1155 C1156 1.398 . S
C1155 C1161 1.491 . S
C1156 H1147 0.950 . S
C1156 C1155 1.398 . S
C1156 C1157 1.391 . S
C1157 H1145 0.950 . S
C1157 C1153 1.393 . S
C1157 C1156 1.391 . S
C1158 H1148 0.950 . S
C1158 C1159 1.386 . S
C1158 C1160 1.391 . S
C1159 C1158 1.386 . S
C1159 C1163 1.393 . S
C1160 H1149 0.950 . S
C1160 C1158 1.391 . S
C1160 C1161 1.400 . S
C1161 C1155 1.491 . S
C1161 C1160 1.400 . S
C1161 C1162 1.398 . S
C1162 H1150 0.950 . S
C1162 C1161 1.398 . S
C1162 C1163 1.391 . S
C1163 H1151 0.950 . S
C1163 C1159 1.393 . S
C1163 C1162 1.391 . S
H1164 C1172 0.950 . S
H1165 C1177 0.950 . S
H1166 C1174 0.950 . S
H1167 C1176 0.950 . S
H1168 C1178 0.950 . S
H1169 C1180 0.950 . S
H1170 C1182 0.950 . S
H1171 C1183 0.950 . S
C1172 H1164 0.950 . S
C1172 C1173 1.386 . S
C1172 C1174 1.391 . S
C1173 C1172 1.386 . S
C1173 C1177 1.393 . S
C1174 H1166 0.950 . S
C1174 C1172 1.391 . S
C1174 C1175 1.400 . S
C1175 C1174 1.400 . S
C1175 C1176 1.398 . S
C1175 C1181 1.491 . S
C1176 H1167 0.950 . S
C1176 C1175 1.398 . S
C1176 C1177 1.391 . S
C1177 H1165 0.950 . S
C1177 C1173 1.393 . S
C1177 C1176 1.391 . S
C1178 H1168 0.950 . S
C1178 C1179 1.386 . S
C1178 C1180 1.391 . S
C1179 C1178 1.386 . S
C1179 C1183 1.393 . S
C1180 H1169 0.950 . S
C1180 C1178 1.391 . S
C1180 C1181 1.400 . S
C1181 C1175 1.491 . S
C1181 C1180 1.400 . S
C1181 C1182 1.398 . S
C1182 H1170 0.950 . S
C1182 C1181 1.398 . S
C1182 C1183 1.391 . S
C1183 H1171 0.950 . S
C1183 C1179 1.393 . S
C1183 C1182 1.391 . S
H1184 C1192 0.950 . S
H1185 C1197 0.950 . S
H1186 C1194 0.950 1_545 S
H1187 C1196 0.950 . S
H1188 C1198 0.950 . S
H1189 C1200 0.950 . S
H1190 C1202 0.950 . S
H1191 C1203 0.950 . S
C1192 H1184 0.950 . S
C1192 C1193 1.386 . S
C1192 C1194 1.391 . S
C1193 C1192 1.386 . S
C1193 C1197 1.393 . S
C1194 H1186 0.950 1_565 S
C1194 C1192 1.391 . S
C1194 C1195 1.400 . S
C1195 C1194 1.400 . S
C1195 C1196 1.398 . S
C1195 C1201 1.491 1_565 S
C1196 H1187 0.950 . S
C1196 C1195 1.398 . S
C1196 C1197 1.391 . S
C1197 H1185 0.950 . S
C1197 C1193 1.393 . S
C1197 C1196 1.391 . S
C1198 H1188 0.950 . S
C1198 C1199 1.386 . S
C1198 C1200 1.391 . S
C1199 C1198 1.386 . S
C1199 C1203 1.393 . S
C1200 H1189 0.950 . S
C1200 C1198 1.391 . S
C1200 C1201 1.400 . S
C1201 C1195 1.491 1_545 S
C1201 C1200 1.400 . S
C1201 C1202 1.398 . S
C1202 H1190 0.950 . S
C1202 C1201 1.398 . S
C1202 C1203 1.391 . S
C1203 H1191 0.950 . S
C1203 C1199 1.393 . S
C1203 C1202 1.391 . S
H1204 C1212 0.950 . S
H1205 C1217 0.950 . S
H1206 C1214 0.950 . S
H1207 C1216 0.950 . S
H1208 C1218 0.950 . S
H1209 C1220 0.950 . S
H1210 C1222 0.940 1_655 S
H1211 C1223 0.950 . S
C1212 H1204 0.950 . S
C1212 C1213 1.386 . S
C1212 C1214 1.391 . S
C1213 C1212 1.386 . S
C1213 C1217 1.393 . S
C1214 H1206 0.950 . S
C1214 C1212 1.391 . S
C1214 C1215 1.400 . S
C1215 C1214 1.400 . S
C1215 C1216 1.398 . S
C1215 C1221 1.491 1_655 S
C1216 H1207 0.950 . S
C1216 C1215 1.398 . S
C1216 C1217 1.391 . S
C1217 H1205 0.950 . S
C1217 C1213 1.393 . S
C1217 C1216 1.391 . S
C1218 H1208 0.950 . S
C1218 C1219 1.386 . S
C1218 C1220 1.391 . S
C1219 C1218 1.386 . S
C1219 C1223 1.393 . S
C1220 H1209 0.950 . S
C1220 C1218 1.391 . S
C1220 C1221 1.400 . S
C1221 C1215 1.491 1_455 S
C1221 C1220 1.400 . S
C1221 C1222 1.398 . S
C1222 H1210 0.940 1_455 S
C1222 C1221 1.398 . S
C1222 C1223 1.391 . S
C1223 H1211 0.950 . S
C1223 C1219 1.393 . S
C1223 C1222 1.391 . S
H1224 C1232 0.950 . S
H1225 C1237 0.950 . S
H1226 C1234 0.950 . S
H1227 C1236 0.950 . S
H1228 C1238 0.950 . S
H1229 C1240 0.950 . S
H1230 C1242 0.944 1_565 S
H1231 C1243 0.950 . S
C1232 H1224 0.950 . S
C1232 C1233 1.386 . S
C1232 C1234 1.391 . S
C1233 C1232 1.386 . S
C1233 C1237 1.393 . S
C1234 H1226 0.950 . S
C1234 C1232 1.391 . S
C1234 C1235 1.400 . S
C1235 C1234 1.400 . S
C1235 C1236 1.398 . S
C1235 C1241 1.491 1_565 S
C1236 H1227 0.950 . S
C1236 C1235 1.398 . S
C1236 C1237 1.391 . S
C1237 H1225 0.950 . S
C1237 C1233 1.393 . S
C1237 C1236 1.391 . S
C1238 H1228 0.950 . S
C1238 C1239 1.386 . S
C1238 C1240 1.391 . S
C1239 C1238 1.386 . S
C1239 C1243 1.393 . S
C1240 H1229 0.950 . S
C1240 C1238 1.391 . S
C1240 C1241 1.400 . S
C1241 C1235 1.491 1_545 S
C1241 C1240 1.400 . S
C1241 C1242 1.398 . S
C1242 H1230 0.944 1_545 S
C1242 C1241 1.398 . S
C1242 C1243 1.391 . S
C1243 H1231 0.950 . S
C1243 C1239 1.393 . S
C1243 C1242 1.391 . S
H1244 C1252 0.950 . S
H1245 C1257 0.950 . S
H1246 C1254 0.950 . S
H1247 C1256 0.950 . S
H1248 C1258 0.950 . S
H1249 C1260 0.950 . S
H1250 C1262 0.950 . S
H1251 C1263 0.950 . S
C1252 H1244 0.950 . S
C1252 C1253 1.386 . S
C1252 C1254 1.391 . S
C1253 C1252 1.386 . S
C1253 C1257 1.393 . S
C1254 H1246 0.950 . S
C1254 C1252 1.391 . S
C1254 C1255 1.400 . S
C1255 C1254 1.400 . S
C1255 C1256 1.398 . S
C1255 C1261 1.491 1_655 S
C1256 H1247 0.950 . S
C1256 C1255 1.398 . S
C1256 C1257 1.391 . S
C1257 H1245 0.950 . S
C1257 C1253 1.393 . S
C1257 C1256 1.391 . S
C1258 H1248 0.950 . S
C1258 C1259 1.386 . S
C1258 C1260 1.391 . S
C1259 C1258 1.386 . S
C1259 C1263 1.393 . S
C1260 H1249 0.950 . S
C1260 C1258 1.391 . S
C1260 C1261 1.400 . S
C1261 C1255 1.491 1_455 S
C1261 C1260 1.400 . S
C1261 C1262 1.398 . S
C1262 H1250 0.950 . S
C1262 C1261 1.398 . S
C1262 C1263 1.391 . S
C1263 H1251 0.950 . S
C1263 C1259 1.393 . S
C1263 C1262 1.391 . S
H1264 C1272 0.950 . S
H1265 C1277 0.950 . S
H1266 C1274 0.950 . S
H1267 C1276 0.950 . S
H1268 C1278 0.950 . S
H1269 C1280 0.950 . S
H1270 C1282 0.950 . S
H1271 C1283 0.950 . S
C1272 H1264 0.950 . S
C1272 C1273 1.386 . S
C1272 C1274 1.391 . S
C1273 C1272 1.386 . S
C1273 C1277 1.393 . S
C1274 H1266 0.950 . S
C1274 C1272 1.391 . S
C1274 C1275 1.400 . S
C1275 C1274 1.400 . S
C1275 C1276 1.398 . S
C1275 C1281 1.491 . S
C1276 H1267 0.950 . S
C1276 C1275 1.398 . S
C1276 C1277 1.391 . S
C1277 H1265 0.950 . S
C1277 C1273 1.393 . S
C1277 C1276 1.391 . S
C1278 H1268 0.950 . S
C1278 C1279 1.386 . S
C1278 C1280 1.391 . S
C1279 C1278 1.386 . S
C1279 C1283 1.393 . S
C1280 H1269 0.950 . S
C1280 C1278 1.391 . S
C1280 C1281 1.400 . S
C1281 C1275 1.491 . S
C1281 C1280 1.400 . S
C1281 C1282 1.398 . S
C1282 H1270 0.950 . S
C1282 C1281 1.398 . S
C1282 C1283 1.391 . S
C1283 H1271 0.950 . S
C1283 C1279 1.393 . S
C1283 C1282 1.391 . S
H1284 C1292 0.950 . S
H1285 C1297 0.950 . S
H1286 C1294 0.950 . S
H1287 C1296 0.950 . S
H1288 C1298 0.950 . S
H1289 C1300 0.950 . S
H1290 C1302 0.950 . S
H1291 C1303 0.950 . S
C1292 H1284 0.950 . S
C1292 C1293 1.386 . S
C1292 C1294 1.391 . S
C1293 C1292 1.386 . S
C1293 C1297 1.393 . S
C1294 H1286 0.950 . S
C1294 C1292 1.391 . S
C1294 C1295 1.400 . S
C1295 C1294 1.400 . S
C1295 C1296 1.398 . S
C1295 C1301 1.491 . S
C1296 H1287 0.950 . S
C1296 C1295 1.398 . S
C1296 C1297 1.391 . S
C1297 H1285 0.950 . S
C1297 C1293 1.393 . S
C1297 C1296 1.391 . S
C1298 H1288 0.950 . S
C1298 C1299 1.386 . S
C1298 C1300 1.391 . S
C1299 C1298 1.386 . S
C1299 C1303 1.393 . S
C1300 H1289 0.950 . S
C1300 C1298 1.391 . S
C1300 C1301 1.400 . S
C1301 C1295 1.491 . S
C1301 C1300 1.400 . S
C1301 C1302 1.398 . S
C1302 H1290 0.950 . S
C1302 C1301 1.398 . S
C1302 C1303 1.391 . S
C1303 H1291 0.950 . S
C1303 C1299 1.393 . S
C1303 C1302 1.391 . S
H1304 C1312 0.950 . S
H1305 C1317 0.950 . S
H1306 C1314 0.950 . S
H1307 C1316 0.950 . S
H1308 C1318 0.950 . S
H1309 C1320 0.950 . S
H1310 C1322 0.950 . S
H1311 C1323 0.950 . S
C1312 H1304 0.950 . S
C1312 C1313 1.386 . S
C1312 C1314 1.391 . S
C1313 C1312 1.386 . S
C1313 C1317 1.393 . S
C1314 H1306 0.950 . S
C1314 C1312 1.391 . S
C1314 C1315 1.400 . S
C1315 C1314 1.400 . S
C1315 C1316 1.398 . S
C1315 C1321 1.491 . S
C1316 H1307 0.950 . S
C1316 C1315 1.398 . S
C1316 C1317 1.391 . S
C1317 H1305 0.950 . S
C1317 C1313 1.393 . S
C1317 C1316 1.391 . S
C1318 H1308 0.950 . S
C1318 C1319 1.386 . S
C1318 C1320 1.391 . S
C1319 C1318 1.386 . S
C1319 C1323 1.393 . S
C1320 H1309 0.950 . S
C1320 C1318 1.391 . S
C1320 C1321 1.400 . S
C1321 C1315 1.491 . S
C1321 C1320 1.400 . S
C1321 C1322 1.398 . S
C1322 H1310 0.950 . S
C1322 C1321 1.398 . S
C1322 C1323 1.391 . S
C1323 H1311 0.950 . S
C1323 C1319 1.393 . S
C1323 C1322 1.391 . S
H1324 C1332 0.950 1_554 S
H1325 C1337 0.950 . S
H1326 C1334 0.950 . S
H1327 C1336 0.950 . S
H1328 C1338 0.950 . S
H1329 C1340 0.950 . S
H1330 C1342 0.950 . S
H1331 C1343 0.950 . S
C1332 H1324 0.950 1_556 S
C1332 C1333 1.386 . S
C1332 C1334 1.391 . S
C1333 C1332 1.386 . S
C1333 C1337 1.393 . S
C1334 H1326 0.950 . S
C1334 C1332 1.391 . S
C1334 C1335 1.400 . S
C1335 C1334 1.400 . S
C1335 C1336 1.398 . S
C1335 C1341 1.491 . S
C1336 H1327 0.950 . S
C1336 C1335 1.398 . S
C1336 C1337 1.391 . S
C1337 H1325 0.950 . S
C1337 C1333 1.393 . S
C1337 C1336 1.391 . S
C1338 H1328 0.950 . S
C1338 C1339 1.386 . S
C1338 C1340 1.391 . S
C1339 C1338 1.386 . S
C1339 C1343 1.393 . S
C1340 H1329 0.950 . S
C1340 C1338 1.391 . S
C1340 C1341 1.400 . S
C1341 C1335 1.491 . S
C1341 C1340 1.400 . S
C1341 C1342 1.398 . S
C1342 H1330 0.950 . S
C1342 C1341 1.398 . S
C1342 C1343 1.391 . S
C1343 H1331 0.950 . S
C1343 C1339 1.393 . S
C1343 C1342 1.391 . S
H1344 C1352 0.950 . S
H1345 C1357 0.950 . S
H1346 C1354 0.950 . S
H1347 C1356 0.950 . S
H1348 C1358 0.950 . S
H1349 C1360 0.950 . S
H1350 C1362 0.950 . S
H1351 C1363 0.950 . S
C1352 H1344 0.950 . S
C1352 C1353 1.386 . S
C1352 C1354 1.391 . S
C1353 C1352 1.386 . S
C1353 C1357 1.393 . S
C1354 H1346 0.950 . S
C1354 C1352 1.391 . S
C1354 C1355 1.400 . S
C1355 C1354 1.400 . S
C1355 C1356 1.398 . S
C1355 C1361 1.491 . S
C1356 H1347 0.950 . S
C1356 C1355 1.398 . S
C1356 C1357 1.391 . S
C1357 H1345 0.950 . S
C1357 C1353 1.393 . S
C1357 C1356 1.391 . S
C1358 H1348 0.950 . S
C1358 C1359 1.386 . S
C1358 C1360 1.391 . S
C1359 C1358 1.386 . S
C1359 C1363 1.393 . S
C1360 H1349 0.950 . S
C1360 C1358 1.391 . S
C1360 C1361 1.400 . S
C1361 C1355 1.491 . S
C1361 C1360 1.400 . S
C1361 C1362 1.398 . S
C1362 H1350 0.950 . S
C1362 C1361 1.398 . S
C1362 C1363 1.391 . S
C1363 H1351 0.950 . S
C1363 C1359 1.393 . S
C1363 C1362 1.391 . S
H1364 C1372 0.950 . S
H1365 C1377 0.950 . S
H1366 C1374 0.950 . S
H1367 C1376 0.950 . S
H1368 C1378 0.950 . S
H1369 C1380 0.950 . S
H1370 C1382 0.950 . S
H1371 C1383 0.950 . S
C1372 H1364 0.950 . S
C1372 C1373 1.386 . S
C1372 C1374 1.391 . S
C1373 C1372 1.386 . S
C1373 C1377 1.393 . S
C1374 H1366 0.950 . S
C1374 C1372 1.391 . S
C1374 C1375 1.400 . S
C1375 C1374 1.400 . S
C1375 C1376 1.398 . S
C1375 C1381 1.491 . S
C1376 H1367 0.950 . S
C1376 C1375 1.398 . S
C1376 C1377 1.391 . S
C1377 H1365 0.950 . S
C1377 C1373 1.393 . S
C1377 C1376 1.391 . S
C1378 H1368 0.950 . S
C1378 C1379 1.386 . S
C1378 C1380 1.391 . S
C1379 C1378 1.386 . S
C1379 C1383 1.393 . S
C1380 H1369 0.950 . S
C1380 C1378 1.391 . S
C1380 C1381 1.400 . S
C1381 C1375 1.491 . S
C1381 C1380 1.400 . S
C1381 C1382 1.398 . S
C1382 H1370 0.950 . S
C1382 C1381 1.398 . S
C1382 C1383 1.391 . S
C1383 H1371 0.950 . S
C1383 C1379 1.393 . S
C1383 C1382 1.391 . S
H1384 C1392 0.950 . S
H1385 C1397 0.950 . S
H1386 C1394 0.950 . S
H1387 C1396 0.950 . S
H1388 C1398 0.950 . S
H1389 C1400 0.950 . S
H1390 C1402 0.950 . S
H1391 C1403 0.950 . S
C1392 H1384 0.950 . S
C1392 C1393 1.386 . S
C1392 C1394 1.391 . S
C1393 C1392 1.386 . S
C1393 C1397 1.393 . S
C1394 H1386 0.950 . S
C1394 C1392 1.391 . S
C1394 C1395 1.400 . S
C1395 C1394 1.400 . S
C1395 C1396 1.398 . S
C1395 C1401 1.491 . S
C1396 H1387 0.950 . S
C1396 C1395 1.398 . S
C1396 C1397 1.391 . S
C1397 H1385 0.950 . S
C1397 C1393 1.393 . S
C1397 C1396 1.391 . S
C1398 H1388 0.950 . S
C1398 C1399 1.386 . S
C1398 C1400 1.391 . S
C1399 C1398 1.386 . S
C1399 C1403 1.393 . S
C1400 H1389 0.950 . S
C1400 C1398 1.391 . S
C1400 C1401 1.400 . S
C1401 C1395 1.491 . S
C1401 C1400 1.400 . S
C1401 C1402 1.398 . S
C1402 H1390 0.950 . S
C1402 C1401 1.398 . S
C1402 C1403 1.391 . S
C1403 H1391 0.950 . S
C1403 C1399 1.393 . S
C1403 C1402 1.391 . S
H1404 C1412 0.950 . S
H1405 C1417 0.950 . S
H1406 C1414 0.950 . S
H1407 C1416 0.950 . S
H1408 C1418 0.950 . S
H1409 C1420 0.950 . S
H1410 C1422 0.950 . S
H1411 C1423 0.950 . S
C1412 H1404 0.950 . S
C1412 C1413 1.386 . S
C1412 C1414 1.391 . S
C1413 C1412 1.386 . S
C1413 C1417 1.393 . S
C1414 H1406 0.950 . S
C1414 C1412 1.391 . S
C1414 C1415 1.400 . S
C1415 C1414 1.400 . S
C1415 C1416 1.398 . S
C1415 C1421 1.491 . S
C1416 H1407 0.950 . S
C1416 C1415 1.398 . S
C1416 C1417 1.391 . S
C1417 H1405 0.950 . S
C1417 C1413 1.393 . S
C1417 C1416 1.391 . S
C1418 H1408 0.950 . S
C1418 C1419 1.386 . S
C1418 C1420 1.391 . S
C1419 C1418 1.386 . S
C1419 C1423 1.393 . S
C1420 H1409 0.950 . S
C1420 C1418 1.391 . S
C1420 C1421 1.400 . S
C1421 C1415 1.491 . S
C1421 C1420 1.400 . S
C1421 C1422 1.398 . S
C1422 H1410 0.950 . S
C1422 C1421 1.398 . S
C1422 C1423 1.391 . S
C1423 H1411 0.950 . S
C1423 C1419 1.393 . S
C1423 C1422 1.391 . S
H1424 C1432 0.950 . S
H1425 C1437 0.950 . S
H1426 C1434 0.950 . S
H1427 C1436 0.950 . S
H1428 C1438 0.950 . S
H1429 C1440 0.950 . S
H1430 C1442 0.950 . S
H1431 C1443 0.950 . S
C1432 H1424 0.950 . S
C1432 C1433 1.386 . S
C1432 C1434 1.391 . S
C1433 C1432 1.386 . S
C1433 C1437 1.393 . S
C1434 H1426 0.950 . S
C1434 C1432 1.391 . S
C1434 C1435 1.400 . S
C1435 C1434 1.400 . S
C1435 C1436 1.398 . S
C1435 C1441 1.491 . S
C1436 H1427 0.950 . S
C1436 C1435 1.398 . S
C1436 C1437 1.391 . S
C1437 H1425 0.950 . S
C1437 C1433 1.393 . S
C1437 C1436 1.391 . S
C1438 H1428 0.950 . S
C1438 C1439 1.386 . S
C1438 C1440 1.391 . S
C1439 C1438 1.386 . S
C1439 C1443 1.393 . S
C1440 H1429 0.950 . S
C1440 C1438 1.391 . S
C1440 C1441 1.400 . S
C1441 C1435 1.491 . S
C1441 C1440 1.400 . S
C1441 C1442 1.398 . S
C1442 H1430 0.950 . S
C1442 C1441 1.398 . S
C1442 C1443 1.391 . S
C1443 H1431 0.950 . S
C1443 C1439 1.393 . S
C1443 C1442 1.391 . S
H1444 C1452 0.950 . S
H1445 C1457 0.950 . S
H1446 C1454 0.950 . S
H1447 C1456 0.950 . S
H1448 C1458 0.950 1_556 S
H1449 C1460 0.950 . S
H1450 C1462 0.950 . S
H1451 C1463 0.950 . S
C1452 H1444 0.950 . S
C1452 C1453 1.386 . S
C1452 C1454 1.391 . S
C1453 C1452 1.386 . S
C1453 C1457 1.393 . S
C1454 H1446 0.950 . S
C1454 C1452 1.391 . S
C1454 C1455 1.400 . S
C1455 C1454 1.400 . S
C1455 C1456 1.398 . S
C1455 C1461 1.491 . S
C1456 H1447 0.950 . S
C1456 C1455 1.398 . S
C1456 C1457 1.391 . S
C1457 H1445 0.950 . S
C1457 C1453 1.393 . S
C1457 C1456 1.391 . S
C1458 H1448 0.950 1_554 S
C1458 C1459 1.386 . S
C1458 C1460 1.391 . S
C1459 C1458 1.386 . S
C1459 C1463 1.393 . S
C1460 H1449 0.950 . S
C1460 C1458 1.391 . S
C1460 C1461 1.400 . S
C1461 C1455 1.491 . S
C1461 C1460 1.400 . S
C1461 C1462 1.398 . S
C1462 H1450 0.950 . S
C1462 C1461 1.398 . S
C1462 C1463 1.391 . S
C1463 H1451 0.950 . S
C1463 C1459 1.393 . S
C1463 C1462 1.391 . S
H1464 C1472 0.950 . S
H1465 C1477 0.950 . S
H1466 C1474 0.950 . S
H1467 C1476 0.950 . S
H1468 C1478 0.950 . S
H1469 C1480 0.950 . S
H1470 C1482 0.950 . S
H1471 C1483 0.950 . S
C1472 H1464 0.950 . S
C1472 C1473 1.386 . S
C1472 C1474 1.391 . S
C1473 C1472 1.386 . S
C1473 C1477 1.393 . S
C1474 H1466 0.950 . S
C1474 C1472 1.391 . S
C1474 C1475 1.400 . S
C1475 C1474 1.400 . S
C1475 C1476 1.398 . S
C1475 C1481 1.491 . S
C1476 H1467 0.950 . S
C1476 C1475 1.398 . S
C1476 C1477 1.391 . S
C1477 H1465 0.950 . S
C1477 C1473 1.393 . S
C1477 C1476 1.391 . S
C1478 H1468 0.950 . S
C1478 C1479 1.386 . S
C1478 C1480 1.391 . S
C1479 C1478 1.386 . S
C1479 C1483 1.393 . S
C1480 H1469 0.950 . S
C1480 C1478 1.391 . S
C1480 C1481 1.400 . S
C1481 C1475 1.491 . S
C1481 C1480 1.400 . S
C1481 C1482 1.398 . S
C1482 H1470 0.950 . S
C1482 C1481 1.398 . S
C1482 C1483 1.391 . S
C1483 H1471 0.950 . S
C1483 C1479 1.393 . S
C1483 C1482 1.391 . S
H1484 C1492 0.950 . S
H1485 C1497 0.950 . S
H1486 C1494 0.950 . S
H1487 C1496 0.950 . S
H1488 C1498 0.950 1_556 S
H1489 C1500 0.948 1_556 S
H1490 C1502 0.950 . S
H1491 C1503 0.950 . S
C1492 H1484 0.950 . S
C1492 C1493 1.386 . S
C1492 C1494 1.391 . S
C1493 C1492 1.386 . S
C1493 C1497 1.393 . S
C1494 H1486 0.950 . S
C1494 C1492 1.391 . S
C1494 C1495 1.400 . S
C1495 C1494 1.400 . S
C1495 C1496 1.398 . S
C1495 C1501 1.491 . S
C1496 H1487 0.950 . S
C1496 C1495 1.398 . S
C1496 C1497 1.391 . S
C1497 H1485 0.950 . S
C1497 C1493 1.393 . S
C1497 C1496 1.391 . S
C1498 H1488 0.950 1_554 S
C1498 C1499 1.386 . S
C1498 C1500 1.391 . S
C1499 C1498 1.386 . S
C1499 C1503 1.393 . S
C1500 H1489 0.948 1_554 S
C1500 C1498 1.391 . S
C1500 C1501 1.400 . S
C1501 C1495 1.491 . S
C1501 C1500 1.400 . S
C1501 C1502 1.398 . S
C1502 H1490 0.950 . S
C1502 C1501 1.398 . S
C1502 C1503 1.391 . S
C1503 H1491 0.950 . S
C1503 C1499 1.393 . S
C1503 C1502 1.391 . S
H1504 C1512 0.950 . S
H1505 C1517 0.950 . S
H1506 C1514 0.950 . S
H1507 C1516 0.950 . S
H1508 C1518 0.950 . S
H1509 C1520 0.950 . S
H1510 C1522 0.950 . S
H1511 C1523 0.950 . S
C1512 H1504 0.950 . S
C1512 C1513 1.386 . S
C1512 C1514 1.391 . S
C1513 C1512 1.386 . S
C1513 C1517 1.393 . S
C1514 H1506 0.950 . S
C1514 C1512 1.391 . S
C1514 C1515 1.400 . S
C1515 C1514 1.400 . S
C1515 C1516 1.398 . S
C1515 C1521 1.491 . S
C1516 H1507 0.950 . S
C1516 C1515 1.398 . S
C1516 C1517 1.391 . S
C1517 H1505 0.950 . S
C1517 C1513 1.393 . S
C1517 C1516 1.391 . S
C1518 H1508 0.950 . S
C1518 C1519 1.386 . S
C1518 C1520 1.391 . S
C1519 C1518 1.386 . S
C1519 C1523 1.393 . S
C1520 H1509 0.950 . S
C1520 C1518 1.391 . S
C1520 C1521 1.400 . S
C1521 C1515 1.491 . S
C1521 C1520 1.400 . S
C1521 C1522 1.398 . S
C1522 H1510 0.950 . S
C1522 C1521 1.398 . S
C1522 C1523 1.391 . S
C1523 H1511 0.950 . S
C1523 C1519 1.393 . S
C1523 C1522 1.391 . S
H1524 C1532 0.950 . S
H1525 C1537 0.950 . S
H1526 C1534 0.950 . S
H1527 C1536 0.950 . S
H1528 C1538 0.950 . S
H1529 C1540 0.950 . S
H1530 C1542 0.950 . S
H1531 C1543 0.950 . S
C1532 H1524 0.950 . S
C1532 C1533 1.386 . S
C1532 C1534 1.391 . S
C1533 C1532 1.386 . S
C1533 C1537 1.393 . S
C1534 H1526 0.950 . S
C1534 C1532 1.391 . S
C1534 C1535 1.400 . S
C1535 C1534 1.400 . S
C1535 C1536 1.398 . S
C1535 C1541 1.491 . S
C1536 H1527 0.950 . S
C1536 C1535 1.398 . S
C1536 C1537 1.391 . S
C1537 H1525 0.950 . S
C1537 C1533 1.393 . S
C1537 C1536 1.391 . S
C1538 H1528 0.950 . S
C1538 C1539 1.386 . S
C1538 C1540 1.391 . S
C1539 C1538 1.386 . S
C1539 C1543 1.393 . S
C1540 H1529 0.950 . S
C1540 C1538 1.391 . S
C1540 C1541 1.400 . S
C1541 C1535 1.491 . S
C1541 C1540 1.400 . S
C1541 C1542 1.398 . S
C1542 H1530 0.950 . S
C1542 C1541 1.398 . S
C1542 C1543 1.391 . S
C1543 H1531 0.950 . S
C1543 C1539 1.393 . S
C1543 C1542 1.391 . S
H1544 C1552 0.950 . S
H1545 C1557 0.950 . S
H1546 C1554 0.950 . S
H1547 C1556 0.950 . S
H1548 C1558 0.950 . S
H1549 C1560 0.950 . S
H1550 C1562 0.950 . S
H1551 C1563 0.950 . S
C1552 H1544 0.950 . S
C1552 C1553 1.386 . S
C1552 C1554 1.391 . S
C1553 C1552 1.386 . S
C1553 C1557 1.393 . S
C1554 H1546 0.950 . S
C1554 C1552 1.391 . S
C1554 C1555 1.400 . S
C1555 C1554 1.400 . S
C1555 C1556 1.398 . S
C1555 C1561 1.491 . S
C1556 H1547 0.950 . S
C1556 C1555 1.398 . S
C1556 C1557 1.391 . S
C1557 H1545 0.950 . S
C1557 C1553 1.393 . S
C1557 C1556 1.391 . S
C1558 H1548 0.950 . S
C1558 C1559 1.386 . S
C1558 C1560 1.391 . S
C1559 C1558 1.386 . S
C1559 C1563 1.393 . S
C1560 H1549 0.950 . S
C1560 C1558 1.391 . S
C1560 C1561 1.400 . S
C1561 C1555 1.491 . S
C1561 C1560 1.400 . S
C1561 C1562 1.398 . S
C1562 H1550 0.950 . S
C1562 C1561 1.398 . S
C1562 C1563 1.391 . S
C1563 H1551 0.950 . S
C1563 C1559 1.393 . S
C1563 C1562 1.391 . S
H1564 C1572 0.950 . S
H1565 C1577 0.950 . S
H1566 C1574 0.950 . S
H1567 C1576 0.950 . S
H1568 C1578 0.950 . S
H1569 C1580 0.950 . S
H1570 C1582 0.950 . S
H1571 C1583 0.950 . S
C1572 H1564 0.950 . S
C1572 C1573 1.386 . S
C1572 C1574 1.391 . S
C1573 C1572 1.386 . S
C1573 C1577 1.393 . S
C1574 H1566 0.950 . S
C1574 C1572 1.391 . S
C1574 C1575 1.400 . S
C1575 C1574 1.400 . S
C1575 C1576 1.398 . S
C1575 C1581 1.491 . S
C1576 H1567 0.950 . S
C1576 C1575 1.398 . S
C1576 C1577 1.391 . S
C1577 H1565 0.950 . S
C1577 C1573 1.393 . S
C1577 C1576 1.391 . S
C1578 H1568 0.950 . S
C1578 C1579 1.386 . S
C1578 C1580 1.391 . S
C1579 C1578 1.386 . S
C1579 C1583 1.393 . S
C1580 H1569 0.950 . S
C1580 C1578 1.391 . S
C1580 C1581 1.400 . S
C1581 C1575 1.491 . S
C1581 C1580 1.400 . S
C1581 C1582 1.398 . S
C1582 H1570 0.950 . S
C1582 C1581 1.398 . S
C1582 C1583 1.391 . S
C1583 H1571 0.950 . S
C1583 C1579 1.393 . S
C1583 C1582 1.391 . S
C953 C701 1.342 . S
C959 C3 1.341 . S
C973 C92 1.314 . S
C979 C524 1.303 . S
C993 C121 1.342 . S
C999 C583 1.352 . S
C1013 C642 1.303 . S
C1019 C210 1.314 . S
C1033 C239 1.357 . S
C1039 C347 1.351 . S
C1053 C328 1.322 . S
C1059 C406 1.278 . S
C1073 C465 1.343 . S
C1079 C357 1.340 . S
C1093 C288 1.298 . S
C1099 C446 1.319 . S
C1113 C229 1.361 . S
C1119 C475 1.358 . S
C1133 C564 1.312 . S
C1139 C52 1.302 . S
C1153 C111 1.350 . S
C1159 C593 1.356 . S
C1173 C682 1.316 . S
C1179 C170 1.302 . S
C1193 C711 1.340 . S
C1199 C819 1.349 . S
C1213 C800 1.312 . S
C1219 C878 1.299 . S
C1233 C937 1.358 . S
C1239 C829 1.348 . S
C1253 C760 1.298 . S
C1259 C918 1.319 . S
C1273 C269 1.475 . S
C1279 C33 1.475 . S
C1293 C62 1.260 . S
C1299 C298 1.249 . S
C1313 C151 1.473 . S
C1319 C387 1.469 . S
C1333 C416 1.272 . S
C1339 C180 1.257 . S
C1353 C505 1.472 . S
C1359 C741 1.475 . S
C1373 C770 1.250 . S
C1379 C534 1.266 . S
C1393 C623 1.467 . S
C1399 C859 1.471 . S
C1413 C888 1.250 . S
C1419 C652 1.260 . S
C1433 C831 1.697 . S
C1439 C5 1.698 . S
C1453 C890 1.245 . S
C1459 C64 1.242 . S
C1473 C123 1.674 . S
C1479 C713 1.675 . S
C1493 C772 1.260 . S
C1499 C182 1.256 . S
C1513 C595 1.696 . S
C1519 C241 1.698 . S
C1533 C654 1.243 . S
C1539 C300 1.247 . S
C1553 C359 1.694 . S
C1559 C477 1.697 . S
C1573 C536 1.242 . S
C1579 C418 1.239 . S
