# Generated by pormake.
# Topology vmc, (5)-cn, num edge types: 1
# Building blocks:
#     Node 0, Type 0, BuildingBlock: XOMCOT_clean_sbu_1, # of connection points: 5
#     Node 1, Type 0, BuildingBlock: XOMCOT_clean_sbu_1, # of connection points: 5
#     Node 2, Type 0, BuildingBlock: XOMCOT_clean_sbu_1, # of connection points: 5
#     Node 3, Type 0, BuildingBlock: XOMCOT_clean_sbu_1, # of connection points: 5
#     Node 4, Type 0, BuildingBlock: XOMCOT_clean_sbu_1, # of connection points: 5
#     Node 5, Type 0, BuildingBlock: XOMCOT_clean_sbu_1, # of connection points: 5
#     Node 6, Type 0, BuildingBlock: XOMCOT_clean_sbu_1, # of connection points: 5
#     Node 7, Type 0, BuildingBlock: XOMCOT_clean_sbu_1, # of connection points: 5
#     Edge 8, Type (0, 0), BuildingBlock: KIFKEQ_clean_linker_1, # of connection points: 2
#     Edge 9, Type (0, 0), BuildingBlock: KIFKEQ_clean_linker_1, # of connection points: 2
#     Edge 10, Type (0, 0), BuildingBlock: KIFKEQ_clean_linker_1, # of connection points: 2
#     Edge 11, Type (0, 0), BuildingBlock: KIFKEQ_clean_linker_1, # of connection points: 2
#     Edge 12, Type (0, 0), BuildingBlock: KIFKEQ_clean_linker_1, # of connection points: 2
#     Edge 13, Type (0, 0), BuildingBlock: KIFKEQ_clean_linker_1, # of connection points: 2
#     Edge 14, Type (0, 0), BuildingBlock: KIFKEQ_clean_linker_1, # of connection points: 2
#     Edge 15, Type (0, 0), BuildingBlock: KIFKEQ_clean_linker_1, # of connection points: 2
#     Edge 16, Type (0, 0), BuildingBlock: KIFKEQ_clean_linker_1, # of connection points: 2
#     Edge 17, Type (0, 0), BuildingBlock: KIFKEQ_clean_linker_1, # of connection points: 2
#     Edge 18, Type (0, 0), BuildingBlock: KIFKEQ_clean_linker_1, # of connection points: 2
#     Edge 19, Type (0, 0), BuildingBlock: KIFKEQ_clean_linker_1, # of connection points: 2
#     Edge 20, Type (0, 0), BuildingBlock: KIFKEQ_clean_linker_1, # of connection points: 2
#     Edge 21, Type (0, 0), BuildingBlock: KIFKEQ_clean_linker_1, # of connection points: 2
#     Edge 22, Type (0, 0), BuildingBlock: KIFKEQ_clean_linker_1, # of connection points: 2
#     Edge 23, Type (0, 0), BuildingBlock: KIFKEQ_clean_linker_1, # of connection points: 2
#     Edge 24, Type (0, 0), BuildingBlock: KIFKEQ_clean_linker_1, # of connection points: 2
#     Edge 25, Type (0, 0), BuildingBlock: KIFKEQ_clean_linker_1, # of connection points: 2
#     Edge 26, Type (0, 0), BuildingBlock: KIFKEQ_clean_linker_1, # of connection points: 2
#     Edge 27, Type (0, 0), BuildingBlock: KIFKEQ_clean_linker_1, # of connection points: 2
# Relax obj value: 0.404
# Max RMSD: 0.211
# Mean RMSD: 0.211
data_MOF--net-vmc--node1-XOMCOT_clean_sbu_1--edge1-KIFKEQ_clean_linker_1
_symmetry_space_group_name_H-M    P1
_symmetry_Int_Tables_number       1
_symmetry_cell_setting            triclinic
loop_
_symmetry_equiv_pos_as_xyz
'x, y, z'
_cell_length_a     29.893574
_cell_length_b     49.713901
_cell_length_c     29.161757
_cell_angle_alpha  89.807084
_cell_angle_beta   98.364243
_cell_angle_gamma 90.055568
loop_
_atom_site_label
_atom_site_type_symbol
_atom_site_fract_x
_atom_site_fract_y
_atom_site_fract_z
_atom_type_partial_charge
C0 C 0.32974 0.39265 0.07545 0.0
C1 C 0.36365 0.38538 0.11025 0.0
N2 N 0.36955 0.40552 0.14129 0.0
N3 N 0.31356 0.41699 0.0851 0.0
C4 C 0.339 0.42454 0.12514 0.0
H5 H 0.31778 0.38105 0.04478 0.0
Co6 Co 0.26914 0.43593 0.04649 0.0
C7 C 0.2111 0.45186 0.11788 0.0
O8 O 0.17554 0.43934 0.09602 0.0
N9 N 0.22673 0.45537 1.00516 0.0
C10 C 0.1778 0.48451 0.96739 0.0
C11 C 0.19284 0.47272 1.00973 0.0
C12 C 0.23192 0.45745 0.96 0.0
N13 N 0.20287 0.475 0.93632 0.0
O14 O 0.31061 0.46443 0.04547 0.0
H15 H 0.18151 0.47828 0.04177 0.0
H16 H 0.25763 0.44676 0.94488 0.0
O17 O 0.24823 0.45205 0.10091 0.0
C18 C 0.33912 0.46032 1.0179 0.0
O19 O 0.33486 0.43876 0.99166 0.0
N20 N 0.23014 0.40608 0.0461 0.0
C21 C 0.21394 0.35112 0.04198 0.0
C22 C 0.21994 0.36431 0.08469 0.0
C23 C 0.22788 0.39193 0.08607 0.0
C24 C 0.21888 0.39396 1.00408 0.0
C25 C 0.21017 0.36639 1.00123 0.0
H26 H 0.23904 0.40087 0.11948 0.0
H27 H 0.22247 0.40465 0.9726 0.0
H28 H 0.33552 0.44369 0.14184 0.0
H29 H 0.38342 0.36707 0.11192 0.0
H30 H 0.1526 0.50021 0.96074 0.0
H31 H 0.22348 0.35298 0.11682 0.0
H32 H 0.20618 0.3567 0.96766 0.0
C33 C 0.65901 0.38893 0.47656 0.0
C34 C 0.62573 0.38182 0.44103 0.0
N35 N 0.61795 0.40295 0.41197 0.0
N36 N 0.67294 0.41422 0.46929 0.0
C37 C 0.64679 0.42237 0.42998 0.0
H38 H 0.67174 0.37667 0.50632 0.0
Co39 Co 0.71433 0.43435 0.50975 0.0
C40 C 0.77094 0.45319 0.43779 0.0
O41 O 0.80689 0.43983 0.45667 0.0
N42 N 0.75374 0.45496 0.55234 0.0
C43 C 0.80687 0.48021 0.59321 0.0
C44 C 0.79351 0.46778 0.55127 0.0
C45 C 0.74372 0.46021 0.59519 0.0
N46 N 0.77525 0.4755 0.62065 0.0
O47 O 0.66907 0.46086 0.51081 0.0
H48 H 0.81184 0.4688 0.52227 0.0
H49 H 0.71393 0.45261 0.60788 0.0
O50 O 0.73459 0.4524 0.45617 0.0
C51 C 0.63965 0.45283 0.53527 0.0
O52 O 0.64623 0.42974 0.55733 0.0
N53 N 0.75688 0.40627 0.51122 0.0
C54 C 0.77952 0.352 0.5204 0.0
C55 C 0.7717 0.36416 0.47642 0.0
C56 C 0.76071 0.39143 0.47257 0.0
C57 C 0.77013 0.3956 0.55418 0.0
C58 C 0.7824 0.36861 0.55952 0.0
H59 H 0.7487 0.3994 0.43846 0.0
H60 H 0.76603 0.4069 0.58483 0.0
H61 H 0.64813 0.44236 0.41545 0.0
H62 H 0.6074 0.36296 0.43774 0.0
H63 H 0.83687 0.49239 0.60234 0.0
H64 H 0.76883 0.35232 0.44505 0.0
H65 H 0.78978 0.36035 0.59419 0.0
C66 C 0.65351 0.61663 0.97858 0.0
C67 C 0.61965 0.62376 0.94356 0.0
N68 N 0.61193 0.60284 0.91428 0.0
N69 N 0.66778 0.59154 0.97076 0.0
C70 C 0.64133 0.58351 0.93165 0.0
H71 H 0.66672 0.62884 1.0081 0.0
Co72 Co 0.71143 0.57198 1.00944 0.0
C73 C 0.76717 0.55282 0.9387 0.0
O74 O 0.80403 0.56331 0.9619 0.0
N75 N 0.75303 0.55175 0.05041 0.0
C76 C 0.79291 0.51774 0.08533 0.0
C77 C 0.77827 0.53001 0.04351 0.0
C78 C 0.75219 0.55173 0.09669 0.0
N79 N 0.77612 0.53127 0.11897 0.0
O80 O 0.66802 0.54485 1.01312 0.0
H81 H 0.78224 0.52156 1.01037 0.0
H82 H 0.73171 0.56556 0.11314 0.0
O83 O 0.72969 0.55448 0.95478 0.0
C84 C 0.64107 0.55144 0.04113 0.0
O85 O 0.64895 0.57375 0.06501 0.0
N86 N 0.75249 0.60074 1.00758 0.0
C87 C 0.76994 0.65565 1.00779 0.0
C88 C 0.76397 0.64135 0.96609 0.0
C89 C 0.75534 0.6138 0.96667 0.0
C90 C 0.76416 0.61381 0.04866 0.0
C91 C 0.77344 0.64134 0.04955 0.0
H92 H 0.74388 0.60421 0.9339 0.0
H93 H 0.76025 0.60408 0.08086 0.0
H94 H 0.64334 0.56379 0.91641 0.0
H95 H 0.6012 0.64257 0.94055 0.0
H96 H 0.81114 0.4989 0.08973 0.0
H97 H 0.76092 0.65184 0.93315 0.0
H98 H 0.77757 0.65179 0.08244 0.0
C99 C 0.32753 0.61294 0.57377 0.0
C100 C 0.36107 0.6205 0.60872 0.0
N101 N 0.36701 0.60047 0.6402 0.0
N102 N 0.31166 0.58853 0.58378 0.0
C103 C 0.33688 0.58124 0.62417 0.0
H104 H 0.31567 0.62436 0.54274 0.0
Co105 Co 0.26823 0.56878 0.54538 0.0
C106 C 0.21099 0.55345 0.61832 0.0
O107 O 0.17578 0.56687 0.59779 0.0
N108 N 0.22684 0.54846 0.50459 0.0
C109 C 0.17503 0.52112 0.46669 0.0
C110 C 0.18962 0.5336 0.50841 0.0
C111 C 0.23423 0.54432 0.46052 0.0
N112 N 0.20352 0.5278 0.43681 0.0
O113 O 0.31109 0.5409 0.54554 0.0
H114 H 0.17466 0.53076 0.53947 0.0
H115 H 0.2619 0.55332 0.4459 0.0
O116 O 0.24743 0.55263 0.60016 0.0
C117 C 0.33992 0.54599 0.51861 0.0
O118 O 0.33521 0.56797 0.49321 0.0
N119 N 0.22785 0.59807 0.54325 0.0
C120 C 0.20517 0.65234 0.53321 0.0
C121 C 0.21491 0.64067 0.57743 0.0
C122 C 0.22589 0.61345 0.58171 0.0
C123 C 0.21327 0.60834 0.50026 0.0
C124 C 0.20085 0.6353 0.49454 0.0
H125 H 0.23882 0.60579 0.61581 0.0
H126 H 0.21587 0.59667 0.46966 0.0
H127 H 0.33362 0.56209 0.64117 0.0
H128 H 0.3806 0.63891 0.6102 0.0
H129 H 0.14695 0.50726 0.45956 0.0
H130 H 0.21907 0.6528 0.60851 0.0
H131 H 0.192 0.64316 0.45973 0.0
C132 C 0.8253 0.88953 0.07578 0.0
C133 C 0.85765 0.88223 0.1121 0.0
N134 N 0.86653 0.90366 0.14005 0.0
N135 N 0.81315 0.91532 0.08124 0.0
C136 C 0.83921 0.92348 0.12055 0.0
H137 H 0.81231 0.87698 0.04665 0.0
Co138 Co 0.77318 0.93579 0.03986 0.0
C139 C 0.74141 0.97514 0.10342 0.0
O140 O 0.74778 0.9948 0.07485 0.0
N141 N 0.73407 0.95617 0.99702 0.0
C142 C 0.67395 0.97315 0.95226 0.0
C143 C 0.6892 0.96063 0.99404 0.0
C144 C 0.74522 0.96619 0.95705 0.0
N145 N 0.70947 0.97666 0.92921 0.0
O146 O 0.81742 0.96314 0.04317 0.0
H147 H 0.6686 0.95412 1.01959 0.0
H148 H 0.77846 0.96442 0.94703 0.0
O149 O 0.74865 0.9509 0.09234 0.0
C150 C 0.84728 0.95702 1.01806 0.0
O151 O 0.84187 0.93504 0.99289 0.0
N152 N 0.73207 0.9076 0.03443 0.0
C153 C 0.70644 0.85393 0.02661 0.0
C154 C 0.70324 0.86827 0.06754 0.0
C155 C 0.7165 0.89527 0.07088 0.0
C156 C 0.73004 0.89506 0.9928 0.0
C157 C 0.71725 0.8682 0.98805 0.0
H158 H 0.71909 0.90512 0.10414 0.0
H159 H 0.74368 0.90492 0.96475 0.0
H160 H 0.83873 0.9437 0.13415 0.0
H161 H 0.87469 0.86299 0.11662 0.0
H162 H 0.63937 0.97869 0.93945 0.0
H163 H 0.69421 0.8582 0.09787 0.0
H164 H 0.72077 0.85816 0.9559 0.0
C165 C 0.15846 0.88987 0.47327 0.0
C166 C 0.12463 0.88271 0.43834 0.0
N167 N 0.11816 0.90319 0.40777 0.0
N168 N 0.17401 0.91452 0.46421 0.0
C169 C 0.14835 0.92229 0.42433 0.0
H170 H 0.17037 0.87811 0.50388 0.0
Co171 Co 0.21669 0.93429 0.50358 0.0
C172 C 0.27433 0.95023 0.43066 0.0
O173 O 0.30976 0.93659 0.4501 0.0
N174 N 0.25756 0.95456 0.5452 0.0
C175 C 0.31093 0.98043 0.5843 0.0
C176 C 0.29651 0.96795 0.54255 0.0
C177 C 0.24906 0.95953 0.58868 0.0
N178 N 0.28072 0.97518 0.6131 0.0
O179 O 0.17373 0.96206 0.50289 0.0
H180 H 0.31322 0.96951 0.51241 0.0
H181 H 0.2202 0.95154 0.60256 0.0
O182 O 0.23822 0.95064 0.44939 0.0
C183 C 0.14481 0.95644 0.52945 0.0
O184 O 0.14962 0.93414 0.55403 0.0
N185 N 0.25687 0.90507 0.50677 0.0
C186 C 0.27383 0.85042 0.5178 0.0
C187 C 0.27049 0.86219 0.47379 0.0
C188 C 0.26147 0.88969 0.46888 0.0
C189 C 0.2659 0.89434 0.55024 0.0
C190 C 0.27451 0.86697 0.55654 0.0
H191 H 0.25149 0.89751 0.43429 0.0
H192 H 0.26016 0.90597 0.57998 0.0
H193 H 0.15111 0.94179 0.40832 0.0
H194 H 0.10503 0.86432 0.43652 0.0
H195 H 0.34047 0.99311 0.59228 0.0
H196 H 0.26893 0.84982 0.44308 0.0
H197 H 0.27663 0.85838 0.591 0.0
C198 C 0.16295 0.1167 0.96716 0.0
C199 C 0.12959 0.1238 0.93168 0.0
N200 N 0.12143 0.10262 0.90299 0.0
N201 N 0.17654 0.09133 0.9604 0.0
C202 C 0.1502 0.08314 0.92127 0.0
H203 H 0.17581 0.12902 0.99665 0.0
Co204 Co 0.21792 0.0715 1.00159 0.0
C205 C 0.27617 0.05298 0.93132 0.0
O206 O 0.31228 0.06543 0.95217 0.0
N207 N 0.25749 0.05126 0.04492 0.0
C208 C 0.30764 0.02363 0.08481 0.0
C209 C 0.29394 0.03553 0.04237 0.0
C210 C 0.24946 0.04805 0.08912 0.0
N211 N 0.27935 0.03143 0.11407 0.0
O212 O 0.17348 0.04458 1.00278 0.0
H213 H 0.30884 0.03151 1.01173 0.0
H214 H 0.22178 0.05763 0.10278 0.0
O215 O 0.23916 0.05376 0.94852 0.0
C216 C 0.14456 0.05232 0.02794 0.0
O217 O 0.15093 0.07551 0.04945 0.0
N218 N 0.25948 0.09997 1.00311 0.0
C219 C 0.28241 0.15432 1.00972 0.0
C220 C 0.27908 0.14094 0.96703 0.0
C221 C 0.26648 0.1139 0.96425 0.0
C222 C 0.2682 0.11181 0.04554 0.0
C223 C 0.27967 0.13893 0.04967 0.0
H224 H 0.25672 0.10539 0.93022 0.0
H225 H 0.26033 0.10139 0.07588 0.0
H226 H 0.15143 0.06312 0.90703 0.0
H227 H 0.1114 0.14269 0.92826 0.0
H228 H 0.33491 0.00929 0.09285 0.0
H229 H 0.28173 0.1518 0.9353 0.0
H230 H 0.28122 0.14819 0.0834 0.0
C231 C 0.8261 0.11617 0.57307 0.0
C232 C 0.85879 0.12348 0.60901 0.0
N233 N 0.86691 0.10232 0.63795 0.0
N234 N 0.81294 0.09067 0.57975 0.0
C235 C 0.83877 0.08266 0.6194 0.0
H236 H 0.8137 0.12843 0.54325 0.0
Co237 Co 0.77259 0.07017 0.5387 0.0
C238 C 0.74176 0.03062 0.60293 0.0
O239 O 0.74828 0.01101 0.57454 0.0
N240 N 0.73332 0.04974 0.49635 0.0
C241 C 0.67332 0.03247 0.452 0.0
C242 C 0.68851 0.04511 0.49355 0.0
C243 C 0.74452 0.03968 0.45655 0.0
N244 N 0.70883 0.02904 0.42895 0.0
O245 O 0.81716 0.043 0.54126 0.0
H246 H 0.66791 0.05156 0.51905 0.0
H247 H 0.77778 0.04154 0.44653 0.0
O248 O 0.74861 0.0549 0.59154 0.0
C249 C 0.84686 0.05078 0.51695 0.0
O250 O 0.83994 0.07339 0.49343 0.0
N251 N 0.73133 0.09833 0.53355 0.0
C252 C 0.71411 0.15286 0.5257 0.0
C253 C 0.71069 0.13943 0.56746 0.0
C254 C 0.71939 0.11176 0.57072 0.0
C255 C 0.72811 0.11036 0.4912 0.0
C256 C 0.71927 0.13774 0.48643 0.0
H257 H 0.72311 0.10226 0.60445 0.0
H258 H 0.73877 0.09965 0.46244 0.0
H259 H 0.83768 0.06261 0.63379 0.0
H260 H 0.87668 0.14248 0.61249 0.0
H261 H 0.63879 0.02677 0.43934 0.0
H262 H 0.70695 0.15061 0.59849 0.0
H263 H 0.72184 0.14751 0.45364 0.0
H264 H 0.26706 0.51465 0.66182 0.0
H265 H 0.15026 0.56286 0.67763 0.0
H266 H 0.26363 0.49368 0.73691 0.0
H267 H 0.14816 0.54317 0.75356 0.0
H268 H 0.13073 0.48878 0.8738 0.0
H269 H 0.13149 0.50565 0.79518 0.0
H270 H 0.27759 0.50105 0.8162 0.0
H271 H 0.27611 0.48298 0.89359 0.0
C272 C 0.24079 0.52087 0.68148 0.0
C273 C 0.20886 0.54034 0.66368 0.0
C274 C 0.23896 0.509 0.7248 0.0
C275 C 0.20563 0.51666 0.75179 0.0
C276 C 0.17375 0.53621 0.7337 0.0
C277 C 0.17513 0.54771 0.69012 0.0
C278 C 0.16284 0.4913 0.86127 0.0
C279 C 0.20326 0.48446 0.88962 0.0
C280 C 0.16345 0.50113 0.81631 0.0
C281 C 0.20466 0.5049 0.79895 0.0
C282 C 0.2451 0.49795 0.82761 0.0
C283 C 0.24435 0.48767 0.87218 0.0
H284 H 0.84651 0.48268 0.68794 0.0
H285 H 0.7017 0.49107 0.65765 0.0
H286 H 0.84495 0.49966 0.76606 0.0
H287 H 0.69986 0.50922 0.73483 0.0
H288 H 0.70411 0.52 0.88945 0.0
H289 H 0.70668 0.49981 0.81383 0.0
H290 H 0.83553 0.53836 0.80801 0.0
H291 H 0.83384 0.55726 0.88444 0.0
C292 C 0.81439 0.48843 0.69798 0.0
C293 C 0.77426 0.48552 0.66681 0.0
C294 C 0.81339 0.4983 0.7427 0.0
C295 C 0.77226 0.50598 0.75712 0.0
C296 C 0.73211 0.50306 0.72563 0.0
C297 C 0.73309 0.49276 0.68121 0.0
C298 C 0.73309 0.52398 0.87206 0.0
C299 C 0.76884 0.54014 0.89305 0.0
C300 C 0.73446 0.51258 0.82845 0.0
C301 C 0.7713 0.51741 0.80436 0.0
C302 C 0.807 0.53364 0.82559 0.0
C303 C 0.80593 0.54467 0.86946 0.0
H304 H 0.69949 0.47186 0.37614 0.0
H305 H 0.84529 0.46747 0.3991 0.0
H306 H 0.70185 0.49235 0.30049 0.0
H307 H 0.84792 0.48901 0.32456 0.0
H308 H 0.83554 0.49663 0.16773 0.0
H309 H 0.8339 0.47939 0.24525 0.0
H310 H 0.7199 0.53063 0.25874 0.0
H311 H 0.71961 0.54659 0.18005 0.0
C312 C 0.73208 0.47564 0.36535 0.0
C313 C 0.77216 0.46779 0.39353 0.0
C314 C 0.73351 0.48756 0.32198 0.0
C315 C 0.77511 0.49225 0.30596 0.0
C316 C 0.8152 0.48519 0.33503 0.0
C317 C 0.81372 0.47298 0.37805 0.0
C318 C 0.80984 0.50415 0.18689 0.0
C319 C 0.77747 0.5229 0.16685 0.0
C320 C 0.80928 0.49448 0.2319 0.0
C321 C 0.77669 0.50351 0.2586 0.0
C322 C 0.74508 0.52283 0.23912 0.0
C323 C 0.74536 0.53232 0.19389 0.0
H324 H 0.26995 0.48799 0.1646 0.0
H325 H 0.14709 0.44397 0.17441 0.0
H326 H 0.26673 0.50783 0.24031 0.0
H327 H 0.14498 0.46259 0.25101 0.0
H328 H 0.27675 0.5157 0.39663 0.0
H329 H 0.2779 0.498 0.31917 0.0
H330 H 0.13171 0.50041 0.29396 0.0
H331 H 0.13104 0.51701 0.3726 0.0
C332 C 0.24235 0.48246 0.18306 0.0
C333 C 0.20874 0.46445 0.16344 0.0
C334 C 0.24064 0.49367 0.22673 0.0
C335 C 0.20568 0.4868 0.25227 0.0
C336 C 0.17198 0.46883 0.23231 0.0
C337 C 0.17333 0.45797 0.18836 0.0
C338 C 0.24492 0.51257 0.37435 0.0
C339 C 0.20379 0.51777 0.39056 0.0
C340 C 0.2455 0.50253 0.32974 0.0
C341 C 0.2049 0.4978 0.2998 0.0
C342 C 0.16369 0.50328 0.31608 0.0
C343 C 0.16317 0.51291 0.36107 0.0
H344 H 0.7754 0.00569 0.89831 0.0
H345 H 0.64418 0.97055 0.85493 0.0
H346 H 0.77881 0.02028 0.81874 0.0
H347 H 0.64761 0.98503 0.77495 0.0
H348 H 0.70918 0.98344 0.63409 0.0
H349 H 0.69714 0.97223 0.71316 0.0
H350 H 0.7388 0.05227 0.75764 0.0
H351 H 0.75042 0.06363 0.67862 0.0
C352 C 0.74717 1.00123 0.87173 0.0
C353 C 0.70955 0.98697 0.88285 0.0
C354 C 0.74898 0.00973 0.82623 0.0
C355 C 0.7135 0.00378 0.79052 0.0
C356 C 0.67556 0.98979 0.80168 0.0
C357 C 0.67341 0.9817 0.84747 0.0
C358 C 0.7153 0.99874 0.66062 0.0
C359 C 0.73084 0.02441 0.64998 0.0
C360 C 0.70819 0.99235 0.70587 0.0
C361 C 0.71716 0.01133 0.74168 0.0
C362 C 0.73189 0.03715 0.73087 0.0
C363 C 0.7383 0.04369 0.68551 0.0
H364 H 0.21464 0.0181 0.88469 0.0
H365 H 0.34103 0.05838 0.87517 0.0
H366 H 0.21671 0.99762 0.80916 0.0
H367 H 0.34211 0.03915 0.79897 0.0
H368 H 0.35319 0.98384 0.67843 0.0
H369 H 0.35284 1.00058 0.75696 0.0
H370 H 0.20707 0.00713 0.72992 0.0
H371 H 0.20778 0.98931 0.6524 0.0
C372 C 0.2428 0.02264 0.8664 0.0
C373 C 0.27772 0.0398 0.88605 0.0
C374 C 0.24386 0.01107 0.82284 0.0
C375 C 0.27954 0.0167 0.79752 0.0
C376 C 0.31451 0.03382 0.81752 0.0
C377 C 0.31376 0.04504 0.86128 0.0
C378 C 0.3212 0.98889 0.68947 0.0
C379 C 0.28056 0.98522 0.65939 0.0
C380 C 0.32087 0.9986 0.73444 0.0
C381 C 0.27989 0.00534 0.75015 0.0
C382 C 0.23926 1.00168 0.71972 0.0
C383 C 0.2396 0.99157 0.67509 0.0
H384 H 0.20584 0.02108 0.15546 0.0
H385 H 0.35156 0.02029 0.17821 0.0
H386 H 0.20472 1.00251 0.23273 0.0
H387 H 0.35098 1.00288 0.25639 0.0
H388 H 0.33615 0.94341 0.37153 0.0
H389 H 0.337 0.96397 0.29609 0.0
H390 H 0.21722 0.0095 0.31271 0.0
H391 H 0.21523 0.98771 0.38746 0.0
C392 C 0.23766 0.01737 0.17743 0.0
C393 C 0.2788 0.02203 0.1608 0.0
C394 C 0.23712 0.00679 0.2219 0.0
C395 C 0.27777 1.00098 0.25116 0.0
C396 C 0.31893 0.00641 0.23472 0.0
C397 C 0.3194 0.01655 0.18997 0.0
C398 C 0.31006 0.95788 0.35919 0.0
C399 C 0.27563 0.96391 0.38558 0.0
C400 C 0.3107 0.96989 0.31588 0.0
C401 C 0.2773 0.98861 0.29795 0.0
C402 C 0.24314 0.99489 0.32479 0.0
C403 C 0.24214 0.98255 0.3679 0.0
H404 H 0.77501 1.00026 0.39838 0.0
H405 H 0.64333 0.03475 0.3547 0.0
H406 H 0.77845 0.98562 0.31901 0.0
H407 H 0.64677 0.02021 0.27493 0.0
H408 H 0.70808 0.0221 0.13394 0.0
H409 H 0.69595 0.03324 0.21287 0.0
H410 H 0.73882 0.95344 0.2584 0.0
H411 H 0.75053 0.94215 0.17952 0.0
C412 C 0.74669 0.00456 0.37178 0.0
C413 C 0.70894 0.01867 0.38275 0.0
C414 C 0.74851 0.99604 0.3264 0.0
C415 C 0.7129 1.00179 0.29066 0.0
C416 C 0.67482 0.0156 0.30168 0.0
C417 C 0.67267 0.02373 0.34735 0.0
C418 C 0.71444 0.00683 0.16067 0.0
C419 C 0.73035 0.98125 0.15036 0.0
C420 C 0.70728 0.01318 0.20584 0.0
C421 C 0.71657 0.99425 0.24191 0.0
C422 C 0.73165 0.96851 0.23143 0.0
C423 C 0.73811 0.96201 0.18615 0.0
H424 H 0.37994 0.48911 0.09159 0.0
H425 H 0.39222 0.46688 0.95093 0.0
H426 H 0.45429 0.5102 0.09965 0.0
H427 H 0.46567 0.48894 0.95807 0.0
H428 H 0.61492 0.50341 1.00024 0.0
H429 H 0.5409 0.48207 0.9956 0.0
H430 H 0.49532 0.54705 0.07552 0.0
H431 H 0.56954 0.5676 0.08185 0.0
C432 C 0.39813 0.48936 0.06205 0.0
C433 C 0.38053 0.47645 1.02064 0.0
C434 C 0.44074 0.50138 0.06664 0.0
C435 C 0.46616 0.50101 0.02964 0.0
C436 C 0.44752 0.48898 0.98762 0.0
C437 C 0.40527 0.47664 0.98331 0.0
C438 C 0.58918 0.5129 1.01726 0.0
C439 C 0.59798 0.53714 0.04137 0.0
C440 C 0.54666 0.50086 1.01423 0.0
C441 C 0.51201 0.51301 0.0348 0.0
C442 C 0.52131 0.53697 0.05974 0.0
C443 C 0.5639 0.5488 0.06323 0.0
H444 H 0.56593 0.43501 0.57065 0.0
H445 H 0.61558 0.50245 0.49875 0.0
H446 H 0.49252 0.45631 0.56569 0.0
H447 H 0.54218 0.52445 0.49544 0.0
H448 H 0.39373 0.54248 0.45176 0.0
H449 H 0.46653 0.51994 0.45662 0.0
H450 H 0.45363 0.49251 0.59503 0.0
H451 H 0.37991 0.51424 0.58923 0.0
C452 C 0.56136 0.45462 0.55435 0.0
C453 C 0.59649 0.46708 0.535 0.0
C454 C 0.51923 0.46689 0.55172 0.0
C455 C 0.5114 0.49205 0.53011 0.0
C456 C 0.54689 0.50481 0.5116 0.0
C457 C 0.58903 0.49237 0.51381 0.0
C458 C 0.40632 0.53135 0.48298 0.0
C459 C 0.3813 0.52997 0.52006 0.0
C460 C 0.4482 0.51869 0.48598 0.0
C461 C 0.46616 0.5047 0.5264 0.0
C462 C 0.44055 0.50288 0.56317 0.0
C463 C 0.39833 0.51526 0.5599 0.0
H464 H 0.07093 0.06963 0.06375 0.0
H465 H 0.12227 1.00186 0.99491 0.0
H466 H -0.00139 0.04724 0.06143 0.0
H467 H 0.05006 0.97879 0.99433 0.0
H468 H 0.90184 0.9593 0.95185 0.0
H469 H 0.97437 0.98203 0.95582 0.0
H470 H 0.96091 0.01108 0.09283 0.0
H471 H 0.88727 0.98915 0.08781 0.0
C472 C 0.06697 0.04972 0.04871 0.0
C473 C 0.10219 0.03749 0.02933 0.0
C474 C 0.02551 0.03683 0.04763 0.0
C475 C 0.01847 0.01127 0.0276 0.0
C476 C 0.05415 0.99871 1.00925 0.0
C477 C 0.09559 0.01179 1.00987 0.0
C478 C 0.9143 0.97076 0.98262 0.0
C479 C 0.88909 0.97263 1.01946 0.0
C480 C 0.95603 0.98354 0.98512 0.0
C481 C 0.97369 0.99812 0.02483 0.0
C482 C 0.94804 1.00026 0.0615 0.0
C483 C 0.9059 0.98776 0.05869 0.0
H484 H 0.87013 1.00085 0.55253 0.0
H485 H 0.92145 0.06915 0.48419 0.0
H486 H 0.94328 0.97853 0.55532 0.0
H487 H -0.00547 0.04754 0.48865 0.0
H488 H 0.10487 0.98936 0.46064 0.0
H489 H 0.03169 0.01154 0.45665 0.0
H490 H 0.01934 0.98187 0.59388 0.0
H491 H 0.09159 0.95889 0.5969 0.0
C492 C 0.89704 0.01107 0.53824 0.0
C493 C 0.8901 0.03662 0.51796 0.0
C494 C 0.93898 0.99844 0.54013 0.0
C495 C 0.97474 0.01131 0.52223 0.0
C496 C 0.96754 0.03686 0.50198 0.0
C497 C 0.92563 0.0493 0.49964 0.0
C498 C 0.08668 0.98793 0.4901 0.0
C499 C 0.10367 0.9725 0.52906 0.0
C500 C 0.04479 1.00058 0.48787 0.0
C501 C 0.01955 0.9983 0.52486 0.0
C502 C 0.03744 0.98351 0.5644 0.0
C503 C 0.07898 0.97059 0.56634 0.0
H504 H 0.15962 0.31176 0.9984 0.0
H505 H 0.29011 0.32576 0.07927 0.0
H506 H 0.17905 0.2644 0.99046 0.0
H507 H 0.31108 0.27921 0.06908 0.0
H508 H 0.31987 0.18816 0.07965 0.0
H509 H 0.30152 0.23508 0.08946 0.0
H510 H 0.22279 0.2359 0.95273 0.0
H511 H 0.23712 0.18848 0.94496 0.0
C512 C 0.19234 0.30455 1.01457 0.0
C513 C 0.22305 0.32206 0.0401 0.0
C514 C 0.20389 0.27757 1.00955 0.0
C515 C 0.2469 0.26785 0.02887 0.0
C516 C 0.2774 0.28563 0.05451 0.0
C517 C 0.26544 0.31235 0.06037 0.0
C518 C 0.29852 0.19829 0.0517 0.0
C519 C 0.27976 0.18422 1.01172 0.0
C520 C 0.28834 0.22541 0.05709 0.0
C521 C 0.25999 0.23937 1.02217 0.0
C522 C 0.24363 0.22573 0.981 0.0
C523 C 0.25295 0.1985 0.97604 0.0
H524 H 0.74123 0.32372 0.58556 0.0
H525 H 0.80826 0.31258 0.46516 0.0
H526 H 0.7274 0.27587 0.58862 0.0
H527 H 0.79083 0.26486 0.4659 0.0
H528 H 0.7883 0.17663 0.50178 0.0
H529 H 0.80769 0.22405 0.50376 0.0
H530 H 0.68038 0.2425 0.55068 0.0
H531 H 0.66227 0.19441 0.55083 0.0
C532 C 0.75373 0.3111 0.56005 0.0
C533 C 0.77626 0.32222 0.52521 0.0
C534 C 0.74474 0.28358 0.56122 0.0
C535 C 0.75732 0.26641 0.52717 0.0
C536 C 0.78089 0.27736 0.49301 0.0
C537 C 0.79053 0.30486 0.49226 0.0
C538 C 0.76431 0.1909 0.51215 0.0
C539 C 0.72346 0.18203 0.52546 0.0
C540 C 0.77536 0.21813 0.51317 0.0
C541 C 0.74555 0.23728 0.52699 0.0
C542 C 0.70452 0.22833 0.54043 0.0
C543 C 0.69381 0.20088 0.54015 0.0
H544 H 0.67499 0.82005 0.95474 0.0
H545 H 0.7409 0.81983 0.0969 0.0
H546 H 0.69196 0.77261 0.9487 0.0
H547 H 0.75429 0.77191 0.09215 0.0
H548 H 0.82161 0.69492 0.05541 0.0
H549 H 0.80253 0.74253 0.06052 0.0
H550 H 0.67735 0.72877 0.96872 0.0
H551 H 0.69785 0.68188 0.96195 0.0
C552 C 0.69225 0.80979 0.98505 0.0
C553 C 0.70695 0.82399 0.02611 0.0
C554 C 0.70167 0.78241 0.98174 0.0
C555 C 0.72524 0.76835 1.01974 0.0
C556 C 0.73723 0.78216 0.06174 0.0
C557 C 0.7285 0.80964 0.0648 0.0
C558 C 0.79051 0.70236 0.03578 0.0
C559 C 0.76166 0.68495 1.00763 0.0
C560 C 0.77913 0.72951 0.03914 0.0
C561 C 0.73813 0.73962 1.01525 0.0
C562 C 0.70955 0.72202 0.98691 0.0
C563 C 0.72133 0.69509 0.98291 0.0
H564 H 0.32231 0.80799 0.49103 0.0
H565 H 0.20365 0.82807 0.55199 0.0
H566 H 0.30312 0.76022 0.49432 0.0
H567 H 0.18263 0.7809 0.5528 0.0
H568 H 0.17992 0.69221 0.58977 0.0
H569 H 0.19866 0.73965 0.58796 0.0
H570 H 0.25311 0.7278 0.46001 0.0
H571 H 0.23867 0.68016 0.46428 0.0
C572 C 0.29222 0.80205 0.5052 0.0
C573 C 0.2649 0.82143 0.52206 0.0
C574 C 0.28077 0.77479 0.50659 0.0
C575 C 0.2411 0.76656 0.52372 0.0
C576 C 0.21387 0.78624 0.54036 0.0
C577 C 0.22584 0.81331 0.53985 0.0
C578 C 0.19605 0.69966 0.56132 0.0
C579 C 0.20795 0.68207 0.52744 0.0
C580 C 0.20639 0.72704 0.55995 0.0
C581 C 0.22802 0.73766 0.52409 0.0
C582 C 0.23758 0.72033 0.48885 0.0
C583 C 0.22813 0.69292 0.49072 0.0
H584 H 0.56515 0.44585 0.38414 0.0
H585 H 0.59321 0.36393 0.34978 0.0
H586 H 0.50321 0.44754 0.31946 0.0
H587 H 0.53309 0.36572 0.28391 0.0
H588 H 0.39514 0.36486 0.20014 0.0
H589 H 0.45493 0.36533 0.26637 0.0
H590 H 0.48178 0.44892 0.23866 0.0
H591 H 0.42006 0.44846 0.17359 0.0
C592 C 0.55845 0.42838 0.36214 0.0
C593 C 0.58367 0.4047 0.37198 0.0
C594 C 0.52304 0.4293 0.325 0.0
C595 C 0.51256 0.40666 0.29649 0.0
C596 C 0.53904 0.38331 0.30573 0.0
C597 C 0.57379 0.38228 0.34326 0.0
C598 C 0.41379 0.38332 0.20851 0.0
C599 C 0.4032 0.40657 0.18184 0.0
C600 C 0.44836 0.3836 0.24623 0.0
C601 C 0.47396 0.40705 0.2577 0.0
C602 C 0.46265 0.43054 0.23135 0.0
C603 C 0.42737 0.43034 0.19401 0.0
H604 H 0.39176 0.64127 0.69865 0.0
H605 H 0.41771 0.55777 0.67349 0.0
H606 H 0.45053 0.64091 0.76583 0.0
H607 H 0.47847 0.55743 0.73941 0.0
H608 H 0.55959 0.56 0.88547 0.0
H609 H 0.49849 0.55852 0.81999 0.0
H610 H 0.52826 0.64076 0.78576 0.0
H611 H 0.58743 0.64233 0.85251 0.0
C612 C 0.41045 0.62287 0.7075 0.0
C613 C 0.40038 0.59959 0.681 0.0
C614 C 0.44444 0.62265 0.74578 0.0
C615 C 0.47 0.59924 0.75797 0.0
C616 C 0.45932 0.57577 0.73163 0.0
C617 C 0.4246 0.5759 0.69378 0.0
C618 C 0.553 0.57762 0.86363 0.0
C619 C 0.57792 0.60133 0.87406 0.0
C620 C 0.51809 0.57682 0.826 0.0
C621 C 0.50788 0.59961 0.79753 0.0
C622 C 0.534 0.62303 0.80747 0.0
C623 C 0.56821 0.62395 0.84552 0.0
H624 H 0.06866 0.94682 0.37624 0.0
H625 H 0.08967 0.86291 0.34942 0.0
H626 H 0.00601 0.94817 0.31217 0.0
H627 H 0.02865 0.86423 0.28438 0.0
H628 H 0.88918 0.86489 0.20371 0.0
H629 H 0.94998 0.866 0.26898 0.0
H630 H 0.98379 0.9469 0.23097 0.0
H631 H 0.92136 0.94591 0.16669 0.0
C632 C 0.0603 0.9288 0.35602 0.0
C633 C 0.08374 0.90471 0.36784 0.0
C634 C 0.02444 0.92952 0.31928 0.0
C635 C 0.01168 0.90622 0.29322 0.0
C636 C 0.03642 0.8824 0.30434 0.0
C637 C 0.07166 0.88162 0.3414 0.0
C638 C 0.90957 0.88291 0.20956 0.0
C639 C 0.90073 0.90524 0.18015 0.0
C640 C 0.94469 0.88354 0.24675 0.0
C641 C 0.97252 0.9064 0.25505 0.0
C642 C 0.96294 0.92903 0.22607 0.0
C643 C 0.92722 0.92851 0.18919 0.0
H644 H 0.09482 0.14213 0.84183 0.0
H645 H 0.06917 0.05948 0.87486 0.0
H646 H 0.03298 0.1408 0.77764 0.0
H647 H 0.00581 0.05819 0.81154 0.0
H648 H 0.91961 0.0594 0.66656 0.0
H649 H 0.98267 0.05826 0.7302 0.0
H650 H 0.954 0.14055 0.76377 0.0
H651 H 0.89246 0.14174 0.69922 0.0
C652 C 0.07566 0.12369 0.83536 0.0
C653 C 0.08665 0.10097 0.86336 0.0
C654 C 0.03994 0.12293 0.79877 0.0
C655 C 0.01368 0.0995 0.78962 0.0
C656 C 0.0254 0.07651 0.81714 0.0
C657 C 0.06168 0.0772 0.85346 0.0
C658 C 0.92669 0.07708 0.68797 0.0
C659 C 0.90141 0.10073 0.67785 0.0
C660 C 0.96279 0.07648 0.72448 0.0
C661 C 0.97403 0.09943 0.75197 0.0
C662 C 0.94741 0.12272 0.74266 0.0
C663 C 0.91187 0.1234 0.70587 0.0
loop_
_geom_bond_atom_site_label_1
_geom_bond_atom_site_label_2
_geom_bond_distance
_geom_bond_site_symmetry_2
_ccdc_geom_bond_type
C0 C1 1.351 . S
C0 N3 1.368 . S
C0 H5 0.931 . S
C1 C0 1.351 . S
C1 N2 1.373 . S
C1 H29 0.930 . S
N2 C1 1.373 . S
N2 C4 1.340 . S
N3 C0 1.368 . S
N3 C4 1.321 . S
N3 Co6 2.135 . S
C4 N2 1.340 . S
C4 N3 1.321 . S
C4 H28 0.930 . S
H5 C0 0.931 . S
Co6 N3 2.135 . S
Co6 N9 2.121 1_554 S
Co6 O14 2.055 . S
Co6 O17 2.039 . S
Co6 N20 2.140 . S
C7 O8 1.227 . S
C7 O17 1.265 . S
O8 C7 1.227 . S
N9 Co6 2.121 1_556 S
N9 C11 1.375 . S
N9 C12 1.313 . S
C10 C11 1.338 . S
C10 N13 1.377 . S
C10 H30 0.930 . S
C11 N9 1.375 . S
C11 C10 1.338 . S
C11 H15 0.931 1_556 S
C12 N9 1.313 . S
C12 N13 1.344 . S
C12 H16 0.930 . S
N13 C10 1.377 . S
N13 C12 1.344 . S
O14 Co6 2.055 . S
O14 C18 1.253 . S
H15 C11 0.931 1_554 S
H16 C12 0.930 . S
O17 Co6 2.039 . S
O17 C7 1.265 . S
C18 O14 1.253 . S
C18 O19 1.227 1_554 S
O19 C18 1.227 1_556 S
N20 Co6 2.140 . S
N20 C23 1.346 . S
N20 C24 1.345 1_554 S
C21 C22 1.387 . S
C21 C25 1.391 1_554 S
C22 C21 1.387 . S
C22 C23 1.369 . S
C22 H31 0.929 . S
C23 N20 1.346 . S
C23 C22 1.369 . S
C23 H26 0.928 . S
C24 N20 1.345 1_556 S
C24 C25 1.371 . S
C24 H27 0.931 . S
C25 C21 1.391 1_556 S
C25 C24 1.371 . S
C25 H32 0.930 . S
H26 C23 0.928 . S
H27 C24 0.931 . S
H28 C4 0.930 . S
H29 C1 0.930 . S
H30 C10 0.930 . S
H31 C22 0.929 . S
H32 C25 0.930 . S
C33 C34 1.351 . S
C33 N36 1.368 . S
C33 H38 0.931 . S
C34 C33 1.351 . S
C34 N35 1.373 . S
C34 H62 0.930 . S
N35 C34 1.373 . S
N35 C37 1.340 . S
N36 C33 1.368 . S
N36 C37 1.321 . S
N36 Co39 2.135 . S
C37 N35 1.340 . S
C37 N36 1.321 . S
C37 H61 0.930 . S
H38 C33 0.931 . S
Co39 N36 2.135 . S
Co39 N42 2.121 . S
Co39 O47 2.055 . S
Co39 O50 2.039 . S
Co39 N53 2.140 . S
C40 O41 1.227 . S
C40 O50 1.265 . S
O41 C40 1.227 . S
N42 Co39 2.121 . S
N42 C44 1.375 . S
N42 C45 1.313 . S
C43 C44 1.338 . S
C43 N46 1.377 . S
C43 H63 0.930 . S
C44 N42 1.375 . S
C44 C43 1.338 . S
C44 H48 0.931 . S
C45 N42 1.313 . S
C45 N46 1.344 . S
C45 H49 0.930 . S
N46 C43 1.377 . S
N46 C45 1.344 . S
O47 Co39 2.055 . S
O47 C51 1.253 . S
H48 C44 0.931 . S
H49 C45 0.930 . S
O50 Co39 2.039 . S
O50 C40 1.265 . S
C51 O47 1.253 . S
C51 O52 1.227 . S
O52 C51 1.227 . S
N53 Co39 2.140 . S
N53 C56 1.346 . S
N53 C57 1.345 . S
C54 C55 1.387 . S
C54 C58 1.391 . S
C55 C54 1.387 . S
C55 C56 1.369 . S
C55 H64 0.929 . S
C56 N53 1.346 . S
C56 C55 1.369 . S
C56 H59 0.928 . S
C57 N53 1.345 . S
C57 C58 1.371 . S
C57 H60 0.931 . S
C58 C54 1.391 . S
C58 C57 1.371 . S
C58 H65 0.930 . S
H59 C56 0.928 . S
H60 C57 0.931 . S
H61 C37 0.930 . S
H62 C34 0.930 . S
H63 C43 0.930 . S
H64 C55 0.929 . S
H65 C58 0.930 . S
C66 C67 1.351 . S
C66 N69 1.368 . S
C66 H71 0.931 . S
C67 C66 1.351 . S
C67 N68 1.373 . S
C67 H95 0.930 . S
N68 C67 1.373 . S
N68 C70 1.340 . S
N69 C66 1.368 . S
N69 C70 1.321 . S
N69 Co72 2.135 . S
C70 N68 1.340 . S
C70 N69 1.321 . S
C70 H94 0.930 . S
H71 C66 0.931 . S
Co72 N69 2.135 . S
Co72 N75 2.121 1_556 S
Co72 O80 2.055 . S
Co72 O83 2.039 . S
Co72 N86 2.140 . S
C73 O74 1.227 . S
C73 O83 1.265 . S
O74 C73 1.227 . S
N75 Co72 2.121 1_554 S
N75 C77 1.375 . S
N75 C78 1.313 . S
C76 C77 1.338 . S
C76 N79 1.377 . S
C76 H96 0.930 . S
C77 N75 1.375 . S
C77 C76 1.338 . S
C77 H81 0.931 1_554 S
C78 N75 1.313 . S
C78 N79 1.344 . S
C78 H82 0.930 . S
N79 C76 1.377 . S
N79 C78 1.344 . S
O80 Co72 2.055 . S
O80 C84 1.253 . S
H81 C77 0.931 1_556 S
H82 C78 0.930 . S
O83 Co72 2.039 . S
O83 C73 1.265 . S
C84 O80 1.253 . S
C84 O85 1.227 1_556 S
O85 C84 1.227 1_554 S
N86 Co72 2.140 . S
N86 C89 1.346 . S
N86 C90 1.345 1_556 S
C87 C88 1.387 . S
C87 C91 1.391 1_556 S
C88 C87 1.387 . S
C88 C89 1.369 . S
C88 H97 0.929 . S
C89 N86 1.346 . S
C89 C88 1.369 . S
C89 H92 0.928 . S
C90 N86 1.345 1_554 S
C90 C91 1.371 . S
C90 H93 0.931 . S
C91 C87 1.391 1_554 S
C91 C90 1.371 . S
C91 H98 0.930 . S
H92 C89 0.928 . S
H93 C90 0.931 . S
H94 C70 0.930 . S
H95 C67 0.930 . S
H96 C76 0.930 . S
H97 C88 0.929 . S
H98 C91 0.930 . S
C99 C100 1.351 . S
C99 N102 1.368 . S
C99 H104 0.931 . S
C100 C99 1.351 . S
C100 N101 1.373 . S
C100 H128 0.930 . S
N101 C100 1.373 . S
N101 C103 1.340 . S
N102 C99 1.368 . S
N102 C103 1.321 . S
N102 Co105 2.135 . S
C103 N101 1.340 . S
C103 N102 1.321 . S
C103 H127 0.930 . S
H104 C99 0.931 . S
Co105 N102 2.135 . S
Co105 N108 2.121 . S
Co105 O113 2.055 . S
Co105 O116 2.039 . S
Co105 N119 2.140 . S
C106 O107 1.227 . S
C106 O116 1.265 . S
O107 C106 1.227 . S
N108 Co105 2.121 . S
N108 C110 1.375 . S
N108 C111 1.313 . S
C109 C110 1.338 . S
C109 N112 1.377 . S
C109 H129 0.930 . S
C110 N108 1.375 . S
C110 C109 1.338 . S
C110 H114 0.931 . S
C111 N108 1.313 . S
C111 N112 1.344 . S
C111 H115 0.930 . S
N112 C109 1.377 . S
N112 C111 1.344 . S
O113 Co105 2.055 . S
O113 C117 1.253 . S
H114 C110 0.931 . S
H115 C111 0.930 . S
O116 Co105 2.039 . S
O116 C106 1.265 . S
C117 O113 1.253 . S
C117 O118 1.227 . S
O118 C117 1.227 . S
N119 Co105 2.140 . S
N119 C122 1.346 . S
N119 C123 1.345 . S
C120 C121 1.387 . S
C120 C124 1.391 . S
C121 C120 1.387 . S
C121 C122 1.369 . S
C121 H130 0.929 . S
C122 N119 1.346 . S
C122 C121 1.369 . S
C122 H125 0.928 . S
C123 N119 1.345 . S
C123 C124 1.371 . S
C123 H126 0.931 . S
C124 C120 1.391 . S
C124 C123 1.371 . S
C124 H131 0.930 . S
H125 C122 0.928 . S
H126 C123 0.931 . S
H127 C103 0.930 . S
H128 C100 0.930 . S
H129 C109 0.930 . S
H130 C121 0.929 . S
H131 C124 0.930 . S
C132 C133 1.351 . S
C132 N135 1.368 . S
C132 H137 0.931 . S
C133 C132 1.351 . S
C133 N134 1.373 . S
C133 H161 0.930 . S
N134 C133 1.373 . S
N134 C136 1.340 . S
N135 C132 1.368 . S
N135 C136 1.321 . S
N135 Co138 2.135 . S
C136 N134 1.340 . S
C136 N135 1.321 . S
C136 H160 0.930 . S
H137 C132 0.931 . S
Co138 N135 2.135 . S
Co138 N141 2.121 1_554 S
Co138 O146 2.055 . S
Co138 O149 2.039 . S
Co138 N152 2.140 . S
C139 O140 1.227 . S
C139 O149 1.265 . S
O140 C139 1.227 . S
N141 Co138 2.121 1_556 S
N141 C143 1.375 . S
N141 C144 1.313 . S
C142 C143 1.338 . S
C142 N145 1.377 . S
C142 H162 0.930 . S
C143 N141 1.375 . S
C143 C142 1.338 . S
C143 H147 0.931 1_556 S
C144 N141 1.313 . S
C144 N145 1.344 . S
C144 H148 0.930 . S
N145 C142 1.377 . S
N145 C144 1.344 . S
O146 Co138 2.055 . S
O146 C150 1.253 . S
H147 C143 0.931 1_554 S
H148 C144 0.930 . S
O149 Co138 2.039 . S
O149 C139 1.265 . S
C150 O146 1.253 . S
C150 O151 1.227 1_554 S
O151 C150 1.227 1_556 S
N152 Co138 2.140 . S
N152 C155 1.346 . S
N152 C156 1.345 1_554 S
C153 C154 1.387 . S
C153 C157 1.391 1_554 S
C154 C153 1.387 . S
C154 C155 1.369 . S
C154 H163 0.929 . S
C155 N152 1.346 . S
C155 C154 1.369 . S
C155 H158 0.928 . S
C156 N152 1.345 1_556 S
C156 C157 1.371 . S
C156 H159 0.931 . S
C157 C153 1.391 1_556 S
C157 C156 1.371 . S
C157 H164 0.930 . S
H158 C155 0.928 . S
H159 C156 0.931 . S
H160 C136 0.930 . S
H161 C133 0.930 . S
H162 C142 0.930 . S
H163 C154 0.929 . S
H164 C157 0.930 . S
C165 C166 1.351 . S
C165 N168 1.368 . S
C165 H170 0.931 . S
C166 C165 1.351 . S
C166 N167 1.373 . S
C166 H194 0.930 . S
N167 C166 1.373 . S
N167 C169 1.340 . S
N168 C165 1.368 . S
N168 C169 1.321 . S
N168 Co171 2.135 . S
C169 N167 1.340 . S
C169 N168 1.321 . S
C169 H193 0.930 . S
H170 C165 0.931 . S
Co171 N168 2.135 . S
Co171 N174 2.121 . S
Co171 O179 2.055 . S
Co171 O182 2.039 . S
Co171 N185 2.140 . S
C172 O173 1.227 . S
C172 O182 1.265 . S
O173 C172 1.227 . S
N174 Co171 2.121 . S
N174 C176 1.375 . S
N174 C177 1.313 . S
C175 C176 1.338 . S
C175 N178 1.377 . S
C175 H195 0.930 . S
C176 N174 1.375 . S
C176 C175 1.338 . S
C176 H180 0.931 . S
C177 N174 1.313 . S
C177 N178 1.344 . S
C177 H181 0.930 . S
N178 C175 1.377 . S
N178 C177 1.344 . S
O179 Co171 2.055 . S
O179 C183 1.253 . S
H180 C176 0.931 . S
H181 C177 0.930 . S
O182 Co171 2.039 . S
O182 C172 1.265 . S
C183 O179 1.253 . S
C183 O184 1.227 . S
O184 C183 1.227 . S
N185 Co171 2.140 . S
N185 C188 1.346 . S
N185 C189 1.345 . S
C186 C187 1.387 . S
C186 C190 1.391 . S
C187 C186 1.387 . S
C187 C188 1.369 . S
C187 H196 0.929 . S
C188 N185 1.346 . S
C188 C187 1.369 . S
C188 H191 0.928 . S
C189 N185 1.345 . S
C189 C190 1.371 . S
C189 H192 0.931 . S
C190 C186 1.391 . S
C190 C189 1.371 . S
C190 H197 0.930 . S
H191 C188 0.928 . S
H192 C189 0.931 . S
H193 C169 0.930 . S
H194 C166 0.930 . S
H195 C175 0.930 . S
H196 C187 0.929 . S
H197 C190 0.930 . S
C198 C199 1.351 . S
C198 N201 1.368 . S
C198 H203 0.931 . S
C199 C198 1.351 . S
C199 N200 1.373 . S
C199 H227 0.930 . S
N200 C199 1.373 . S
N200 C202 1.340 . S
N201 C198 1.368 . S
N201 C202 1.321 . S
N201 Co204 2.135 . S
C202 N200 1.340 . S
C202 N201 1.321 . S
C202 H226 0.930 . S
H203 C198 0.931 . S
Co204 N201 2.135 . S
Co204 N207 2.121 1_556 S
Co204 O212 2.055 . S
Co204 O215 2.039 . S
Co204 N218 2.140 . S
C205 O206 1.227 . S
C205 O215 1.265 . S
O206 C205 1.227 . S
N207 Co204 2.121 1_554 S
N207 C209 1.375 . S
N207 C210 1.313 . S
C208 C209 1.338 . S
C208 N211 1.377 . S
C208 H228 0.930 . S
C209 N207 1.375 . S
C209 C208 1.338 . S
C209 H213 0.931 1_554 S
C210 N207 1.313 . S
C210 N211 1.344 . S
C210 H214 0.930 . S
N211 C208 1.377 . S
N211 C210 1.344 . S
O212 Co204 2.055 . S
O212 C216 1.253 . S
H213 C209 0.931 1_556 S
H214 C210 0.930 . S
O215 Co204 2.039 . S
O215 C205 1.265 . S
C216 O212 1.253 . S
C216 O217 1.227 1_556 S
O217 C216 1.227 1_554 S
N218 Co204 2.140 . S
N218 C221 1.346 . S
N218 C222 1.345 1_556 S
C219 C220 1.387 . S
C219 C223 1.391 1_556 S
C220 C219 1.387 . S
C220 C221 1.369 . S
C220 H229 0.929 . S
C221 N218 1.346 . S
C221 C220 1.369 . S
C221 H224 0.928 . S
C222 N218 1.345 1_554 S
C222 C223 1.371 . S
C222 H225 0.931 . S
C223 C219 1.391 1_554 S
C223 C222 1.371 . S
C223 H230 0.930 . S
H224 C221 0.928 . S
H225 C222 0.931 . S
H226 C202 0.930 . S
H227 C199 0.930 . S
H228 C208 0.930 . S
H229 C220 0.929 . S
H230 C223 0.930 . S
C231 C232 1.351 . S
C231 N234 1.368 . S
C231 H236 0.931 . S
C232 C231 1.351 . S
C232 N233 1.373 . S
C232 H260 0.930 . S
N233 C232 1.373 . S
N233 C235 1.340 . S
N234 C231 1.368 . S
N234 C235 1.321 . S
N234 Co237 2.135 . S
C235 N233 1.340 . S
C235 N234 1.321 . S
C235 H259 0.930 . S
H236 C231 0.931 . S
Co237 N234 2.135 . S
Co237 N240 2.121 . S
Co237 O245 2.055 . S
Co237 O248 2.039 . S
Co237 N251 2.140 . S
C238 O239 1.227 . S
C238 O248 1.265 . S
O239 C238 1.227 . S
N240 Co237 2.121 . S
N240 C242 1.375 . S
N240 C243 1.313 . S
C241 C242 1.338 . S
C241 N244 1.377 . S
C241 H261 0.930 . S
C242 N240 1.375 . S
C242 C241 1.338 . S
C242 H246 0.931 . S
C243 N240 1.313 . S
C243 N244 1.344 . S
C243 H247 0.930 . S
N244 C241 1.377 . S
N244 C243 1.344 . S
O245 Co237 2.055 . S
O245 C249 1.253 . S
H246 C242 0.931 . S
H247 C243 0.930 . S
O248 Co237 2.039 . S
O248 C238 1.265 . S
C249 O245 1.253 . S
C249 O250 1.227 . S
O250 C249 1.227 . S
N251 Co237 2.140 . S
N251 C254 1.346 . S
N251 C255 1.345 . S
C252 C253 1.387 . S
C252 C256 1.391 . S
C253 C252 1.387 . S
C253 C254 1.369 . S
C253 H262 0.929 . S
C254 N251 1.346 . S
C254 C253 1.369 . S
C254 H257 0.928 . S
C255 N251 1.345 . S
C255 C256 1.371 . S
C255 H258 0.931 . S
C256 C252 1.391 . S
C256 C255 1.371 . S
C256 H263 0.930 . S
H257 C254 0.928 . S
H258 C255 0.931 . S
H259 C235 0.930 . S
H260 C232 0.930 . S
H261 C241 0.930 . S
H262 C253 0.929 . S
H263 C256 0.930 . S
H264 C272 0.950 . S
H265 C277 0.950 . S
H266 C274 0.950 . S
H267 C276 0.950 . S
H268 C278 0.950 . S
H269 C280 0.950 . S
H270 C282 0.950 . S
H271 C283 0.950 . S
C272 H264 0.950 . S
C272 C273 1.386 . S
C272 C274 1.391 . S
C273 C272 1.386 . S
C273 C277 1.393 . S
C274 H266 0.950 . S
C274 C272 1.391 . S
C274 C275 1.400 . S
C275 C274 1.400 . S
C275 C276 1.398 . S
C275 C281 1.491 . S
C276 H267 0.950 . S
C276 C275 1.398 . S
C276 C277 1.391 . S
C277 H265 0.950 . S
C277 C273 1.393 . S
C277 C276 1.391 . S
C278 H268 0.950 . S
C278 C279 1.386 . S
C278 C280 1.391 . S
C279 C278 1.386 . S
C279 C283 1.393 . S
C280 H269 0.950 . S
C280 C278 1.391 . S
C280 C281 1.400 . S
C281 C275 1.491 . S
C281 C280 1.400 . S
C281 C282 1.398 . S
C282 H270 0.950 . S
C282 C281 1.398 . S
C282 C283 1.391 . S
C283 H271 0.950 . S
C283 C279 1.393 . S
C283 C282 1.391 . S
H284 C292 0.950 . S
H285 C297 0.950 . S
H286 C294 0.950 . S
H287 C296 0.950 . S
H288 C298 0.950 . S
H289 C300 0.950 . S
H290 C302 0.950 . S
H291 C303 0.950 . S
C292 H284 0.950 . S
C292 C293 1.386 . S
C292 C294 1.391 . S
C293 C292 1.386 . S
C293 C297 1.393 . S
C294 H286 0.950 . S
C294 C292 1.391 . S
C294 C295 1.400 . S
C295 C294 1.400 . S
C295 C296 1.398 . S
C295 C301 1.491 . S
C296 H287 0.950 . S
C296 C295 1.398 . S
C296 C297 1.391 . S
C297 H285 0.950 . S
C297 C293 1.393 . S
C297 C296 1.391 . S
C298 H288 0.950 . S
C298 C299 1.386 . S
C298 C300 1.391 . S
C299 C298 1.386 . S
C299 C303 1.393 . S
C300 H289 0.950 . S
C300 C298 1.391 . S
C300 C301 1.400 . S
C301 C295 1.491 . S
C301 C300 1.400 . S
C301 C302 1.398 . S
C302 H290 0.950 . S
C302 C301 1.398 . S
C302 C303 1.391 . S
C303 H291 0.950 . S
C303 C299 1.393 . S
C303 C302 1.391 . S
H304 C312 0.950 . S
H305 C317 0.950 . S
H306 C314 0.950 . S
H307 C316 0.950 . S
H308 C318 0.950 . S
H309 C320 0.950 . S
H310 C322 0.950 . S
H311 C323 0.950 . S
C312 H304 0.950 . S
C312 C313 1.386 . S
C312 C314 1.391 . S
C313 C312 1.386 . S
C313 C317 1.393 . S
C314 H306 0.950 . S
C314 C312 1.391 . S
C314 C315 1.400 . S
C315 C314 1.400 . S
C315 C316 1.398 . S
C315 C321 1.491 . S
C316 H307 0.950 . S
C316 C315 1.398 . S
C316 C317 1.391 . S
C317 H305 0.950 . S
C317 C313 1.393 . S
C317 C316 1.391 . S
C318 H308 0.950 . S
C318 C319 1.386 . S
C318 C320 1.391 . S
C319 C318 1.386 . S
C319 C323 1.393 . S
C320 H309 0.950 . S
C320 C318 1.391 . S
C320 C321 1.400 . S
C321 C315 1.491 . S
C321 C320 1.400 . S
C321 C322 1.398 . S
C322 H310 0.950 . S
C322 C321 1.398 . S
C322 C323 1.391 . S
C323 H311 0.950 . S
C323 C319 1.393 . S
C323 C322 1.391 . S
H324 C332 0.950 . S
H325 C337 0.950 . S
H326 C334 0.950 . S
H327 C336 0.950 . S
H328 C338 0.950 . S
H329 C340 0.950 . S
H330 C342 0.950 . S
H331 C343 0.950 . S
C332 H324 0.950 . S
C332 C333 1.386 . S
C332 C334 1.391 . S
C333 C332 1.386 . S
C333 C337 1.393 . S
C334 H326 0.950 . S
C334 C332 1.391 . S
C334 C335 1.400 . S
C335 C334 1.400 . S
C335 C336 1.398 . S
C335 C341 1.491 . S
C336 H327 0.950 . S
C336 C335 1.398 . S
C336 C337 1.391 . S
C337 H325 0.950 . S
C337 C333 1.393 . S
C337 C336 1.391 . S
C338 H328 0.950 . S
C338 C339 1.386 . S
C338 C340 1.391 . S
C339 C338 1.386 . S
C339 C343 1.393 . S
C340 H329 0.950 . S
C340 C338 1.391 . S
C340 C341 1.400 . S
C341 C335 1.491 . S
C341 C340 1.400 . S
C341 C342 1.398 . S
C342 H330 0.950 . S
C342 C341 1.398 . S
C342 C343 1.391 . S
C343 H331 0.950 . S
C343 C339 1.393 . S
C343 C342 1.391 . S
H344 C352 0.950 . S
H345 C357 0.950 . S
H346 C354 0.950 . S
H347 C356 0.950 . S
H348 C358 0.950 1_565 S
H349 C360 0.950 . S
H350 C362 0.950 . S
H351 C363 0.950 . S
C352 H344 0.950 . S
C352 C353 1.386 1_545 S
C352 C354 1.391 . S
C353 C352 1.386 1_565 S
C353 C357 1.393 . S
C354 H346 0.950 . S
C354 C352 1.391 . S
C354 C355 1.381 1_545 S
C355 C354 1.381 1_565 S
C355 C356 1.431 . S
C355 C361 1.478 1_565 S
C356 H347 0.950 . S
C356 C355 1.431 . S
C356 C357 1.391 . S
C357 H345 0.950 . S
C357 C353 1.393 . S
C357 C356 1.391 . S
C358 H348 0.950 1_545 S
C358 C359 1.386 . S
C358 C360 1.391 1_545 S
C359 C358 1.386 . S
C359 C363 1.393 . S
C360 H349 0.950 . S
C360 C358 1.391 1_565 S
C360 C361 1.400 1_565 S
C361 C355 1.478 1_545 S
C361 C360 1.400 1_545 S
C361 C362 1.398 . S
C362 H350 0.950 . S
C362 C361 1.398 . S
C362 C363 1.391 . S
C363 H351 0.950 . S
C363 C359 1.393 . S
C363 C362 1.391 . S
H364 C372 0.950 . S
H365 C377 0.950 . S
H366 C374 0.950 . S
H367 C376 0.950 1_565 S
H368 C378 0.950 . S
H369 C380 0.950 . S
H370 C382 0.950 . S
H371 C383 0.950 1_545 S
C372 H364 0.950 . S
C372 C373 1.386 . S
C372 C374 1.391 . S
C373 C372 1.386 . S
C373 C377 1.393 . S
C374 H366 0.950 . S
C374 C372 1.391 . S
C374 C375 1.400 . S
C375 C374 1.400 . S
C375 C376 1.398 . S
C375 C381 1.477 1_545 S
C376 H367 0.950 1_545 S
C376 C375 1.398 . S
C376 C377 1.391 . S
C377 H365 0.950 . S
C377 C373 1.393 . S
C377 C376 1.391 . S
C378 H368 0.950 . S
C378 C379 1.386 . S
C378 C380 1.391 . S
C379 C378 1.386 . S
C379 C383 1.393 . S
C380 H369 0.950 . S
C380 C378 1.391 . S
C380 C381 1.427 . S
C381 C375 1.477 1_565 S
C381 C380 1.427 . S
C381 C382 1.388 1_565 S
C382 H370 0.950 . S
C382 C381 1.388 1_545 S
C382 C383 1.391 1_545 S
C383 H371 0.950 1_565 S
C383 C379 1.393 . S
C383 C382 1.391 1_565 S
H384 C392 0.950 . S
H385 C397 0.950 . S
H386 C394 0.944 1_565 S
H387 C396 0.950 . S
H388 C398 0.950 . S
H389 C400 0.950 . S
H390 C402 0.950 . S
H391 C403 0.950 . S
C392 H384 0.950 . S
C392 C393 1.386 . S
C392 C394 1.397 . S
C393 C392 1.386 . S
C393 C397 1.393 . S
C394 H386 0.944 1_545 S
C394 C392 1.397 . S
C394 C395 1.400 . S
C395 C394 1.400 . S
C395 C396 1.398 . S
C395 C401 1.491 1_545 S
C396 H387 0.950 . S
C396 C395 1.398 . S
C396 C397 1.391 . S
C397 H385 0.950 . S
C397 C393 1.393 . S
C397 C396 1.391 . S
C398 H388 0.950 . S
C398 C399 1.386 . S
C398 C400 1.391 . S
C399 C398 1.386 . S
C399 C403 1.393 . S
C400 H389 0.950 . S
C400 C398 1.391 . S
C400 C401 1.400 . S
C401 C395 1.491 1_565 S
C401 C400 1.400 . S
C401 C402 1.398 . S
C402 H390 0.950 . S
C402 C401 1.398 . S
C402 C403 1.391 . S
C403 H391 0.950 . S
C403 C399 1.393 . S
C403 C402 1.391 . S
H404 C412 0.950 . S
H405 C417 0.950 . S
H406 C414 0.950 . S
H407 C416 0.950 . S
H408 C418 0.950 1_545 S
H409 C420 0.950 . S
H410 C422 0.950 . S
H411 C423 0.950 . S
C412 H404 0.950 . S
C412 C413 1.386 1_565 S
C412 C414 1.391 . S
C413 C412 1.386 1_545 S
C413 C417 1.393 . S
C414 H406 0.950 . S
C414 C412 1.391 . S
C414 C415 1.391 1_565 S
C415 C414 1.391 1_545 S
C415 C416 1.412 . S
C415 C421 1.486 1_545 S
C416 H407 0.950 . S
C416 C415 1.412 . S
C416 C417 1.391 . S
C417 H405 0.950 . S
C417 C413 1.393 . S
C417 C416 1.391 . S
C418 H408 0.950 1_565 S
C418 C419 1.386 . S
C418 C420 1.391 1_565 S
C419 C418 1.386 . S
C419 C423 1.393 . S
C420 H409 0.950 . S
C420 C418 1.391 1_545 S
C420 C421 1.400 1_545 S
C421 C415 1.486 1_565 S
C421 C420 1.400 1_565 S
C421 C422 1.398 . S
C422 H410 0.950 . S
C422 C421 1.398 . S
C422 C423 1.391 . S
C423 H411 0.950 . S
C423 C419 1.393 . S
C423 C422 1.391 . S
H424 C432 0.950 . S
H425 C437 0.950 . S
H426 C434 0.950 . S
H427 C436 0.950 . S
H428 C438 0.950 . S
H429 C440 0.950 . S
H430 C442 0.950 . S
H431 C443 0.950 . S
C432 H424 0.950 . S
C432 C433 1.386 1_554 S
C432 C434 1.391 . S
C433 C432 1.386 1_556 S
C433 C437 1.393 . S
C434 H426 0.950 . S
C434 C432 1.391 . S
C434 C435 1.400 1_554 S
C435 C434 1.400 1_556 S
C435 C436 1.398 . S
C435 C441 1.491 1_556 S
C436 H427 0.950 . S
C436 C435 1.398 . S
C436 C437 1.391 . S
C437 H425 0.950 . S
C437 C433 1.393 . S
C437 C436 1.391 . S
C438 H428 0.950 . S
C438 C439 1.386 1_556 S
C438 C440 1.391 . S
C439 C438 1.386 1_554 S
C439 C443 1.393 . S
C440 H429 0.950 . S
C440 C438 1.391 . S
C440 C441 1.400 1_556 S
C441 C435 1.491 1_554 S
C441 C440 1.400 1_554 S
C441 C442 1.398 . S
C442 H430 0.950 . S
C442 C441 1.398 . S
C442 C443 1.391 . S
C443 H431 0.950 . S
C443 C439 1.393 . S
C443 C442 1.391 . S
H444 C452 0.950 . S
H445 C457 0.950 . S
H446 C454 0.950 . S
H447 C456 0.950 . S
H448 C458 0.950 . S
H449 C460 0.950 . S
H450 C462 0.950 . S
H451 C463 0.950 . S
C452 H444 0.950 . S
C452 C453 1.386 . S
C452 C454 1.391 . S
C453 C452 1.386 . S
C453 C457 1.393 . S
C454 H446 0.950 . S
C454 C452 1.391 . S
C454 C455 1.400 . S
C455 C454 1.400 . S
C455 C456 1.398 . S
C455 C461 1.491 . S
C456 H447 0.950 . S
C456 C455 1.398 . S
C456 C457 1.391 . S
C457 H445 0.950 . S
C457 C453 1.393 . S
C457 C456 1.391 . S
C458 H448 0.950 . S
C458 C459 1.386 . S
C458 C460 1.391 . S
C459 C458 1.386 . S
C459 C463 1.393 . S
C460 H449 0.950 . S
C460 C458 1.391 . S
C460 C461 1.400 . S
C461 C455 1.491 . S
C461 C460 1.400 . S
C461 C462 1.398 . S
C462 H450 0.950 . S
C462 C461 1.398 . S
C462 C463 1.391 . S
C463 H451 0.950 . S
C463 C459 1.393 . S
C463 C462 1.391 . S
H464 C472 0.950 . S
H465 C477 0.950 . S
H466 C474 0.950 . S
H467 C476 0.950 . S
H468 C478 0.950 . S
H469 C480 0.950 . S
H470 C482 0.950 . S
H471 C483 0.950 . S
C472 H464 0.950 . S
C472 C473 1.386 . S
C472 C474 1.391 . S
C473 C472 1.386 . S
C473 C477 1.393 1_554 S
C474 H466 0.950 . S
C474 C472 1.391 . S
C474 C475 1.400 . S
C475 C474 1.400 . S
C475 C476 1.398 1_554 S
C475 C481 1.491 1_444 S
C476 H467 0.950 . S
C476 C475 1.398 1_556 S
C476 C477 1.391 . S
C477 H465 0.950 . S
C477 C473 1.393 1_556 S
C477 C476 1.391 . S
C478 H468 0.950 . S
C478 C479 1.386 . S
C478 C480 1.391 . S
C479 C478 1.386 . S
C479 C483 1.393 1_556 S
C480 H469 0.950 . S
C480 C478 1.391 . S
C480 C481 1.400 . S
C481 C475 1.491 1_666 S
C481 C480 1.400 . S
C481 C482 1.398 1_556 S
C482 H470 0.950 . S
C482 C481 1.398 1_554 S
C482 C483 1.391 . S
C483 H471 0.950 . S
C483 C479 1.393 1_554 S
C483 C482 1.391 . S
H484 C492 0.950 . S
H485 C497 0.950 . S
H486 C494 0.950 1_565 S
H487 C496 0.950 . S
H488 C498 0.950 . S
H489 C500 0.950 1_545 S
H490 C502 0.950 . S
H491 C503 0.950 . S
C492 H484 0.950 . S
C492 C493 1.386 . S
C492 C494 1.391 . S
C493 C492 1.386 . S
C493 C497 1.393 . S
C494 H486 0.950 1_545 S
C494 C492 1.391 . S
C494 C495 1.400 . S
C495 C494 1.400 . S
C495 C496 1.398 . S
C495 C501 1.491 1_645 S
C496 H487 0.950 . S
C496 C495 1.398 . S
C496 C497 1.391 . S
C497 H485 0.950 . S
C497 C493 1.393 . S
C497 C496 1.391 . S
C498 H488 0.950 . S
C498 C499 1.386 . S
C498 C500 1.391 . S
C499 C498 1.386 . S
C499 C503 1.393 . S
C500 H489 0.950 1_565 S
C500 C498 1.391 . S
C500 C501 1.400 . S
C501 C495 1.491 1_465 S
C501 C500 1.400 . S
C501 C502 1.398 . S
C502 H490 0.950 . S
C502 C501 1.398 . S
C502 C503 1.391 . S
C503 H491 0.950 . S
C503 C499 1.393 . S
C503 C502 1.391 . S
H504 C512 0.950 . S
H505 C517 0.950 . S
H506 C514 0.950 . S
H507 C516 0.950 . S
H508 C518 0.950 . S
H509 C520 0.950 . S
H510 C522 0.950 . S
H511 C523 0.950 . S
C512 H504 0.950 . S
C512 C513 1.386 1_556 S
C512 C514 1.391 . S
C513 C512 1.386 1_554 S
C513 C517 1.393 . S
C514 H506 0.950 . S
C514 C512 1.391 . S
C514 C515 1.400 1_556 S
C515 C514 1.400 1_554 S
C515 C516 1.398 . S
C515 C521 1.491 1_554 S
C516 H507 0.950 . S
C516 C515 1.398 . S
C516 C517 1.391 . S
C517 H505 0.950 . S
C517 C513 1.393 . S
C517 C516 1.391 . S
C518 H508 0.950 . S
C518 C519 1.386 1_554 S
C518 C520 1.391 . S
C519 C518 1.386 1_556 S
C519 C523 1.393 . S
C520 H509 0.950 . S
C520 C518 1.391 . S
C520 C521 1.400 1_554 S
C521 C515 1.491 1_556 S
C521 C520 1.400 1_556 S
C521 C522 1.398 . S
C522 H510 0.950 . S
C522 C521 1.398 . S
C522 C523 1.391 . S
C523 H511 0.950 . S
C523 C519 1.393 . S
C523 C522 1.391 . S
H524 C532 0.950 . S
H525 C537 0.950 . S
H526 C534 0.950 . S
H527 C536 0.950 . S
H528 C538 0.950 . S
H529 C540 0.950 . S
H530 C542 0.950 . S
H531 C543 0.950 . S
C532 H524 0.950 . S
C532 C533 1.386 . S
C532 C534 1.391 . S
C533 C532 1.386 . S
C533 C537 1.393 . S
C534 H526 0.950 . S
C534 C532 1.391 . S
C534 C535 1.400 . S
C535 C534 1.400 . S
C535 C536 1.398 . S
C535 C541 1.491 . S
C536 H527 0.950 . S
C536 C535 1.398 . S
C536 C537 1.391 . S
C537 H525 0.950 . S
C537 C533 1.393 . S
C537 C536 1.391 . S
C538 H528 0.950 . S
C538 C539 1.386 . S
C538 C540 1.391 . S
C539 C538 1.386 . S
C539 C543 1.393 . S
C540 H529 0.950 . S
C540 C538 1.391 . S
C540 C541 1.400 . S
C541 C535 1.491 . S
C541 C540 1.400 . S
C541 C542 1.398 . S
C542 H530 0.950 . S
C542 C541 1.398 . S
C542 C543 1.391 . S
C543 H531 0.950 . S
C543 C539 1.393 . S
C543 C542 1.391 . S
H544 C552 0.950 . S
H545 C557 0.950 . S
H546 C554 0.950 . S
H547 C556 0.950 . S
H548 C558 0.950 . S
H549 C560 0.950 . S
H550 C562 0.950 . S
H551 C563 0.950 . S
C552 H544 0.950 . S
C552 C553 1.386 1_556 S
C552 C554 1.391 . S
C553 C552 1.386 1_554 S
C553 C557 1.393 . S
C554 H546 0.950 . S
C554 C552 1.391 . S
C554 C555 1.400 1_556 S
C555 C554 1.400 1_554 S
C555 C556 1.398 . S
C555 C561 1.491 1_554 S
C556 H547 0.950 . S
C556 C555 1.398 . S
C556 C557 1.391 . S
C557 H545 0.950 . S
C557 C553 1.393 . S
C557 C556 1.391 . S
C558 H548 0.950 . S
C558 C559 1.386 1_554 S
C558 C560 1.391 . S
C559 C558 1.386 1_556 S
C559 C563 1.393 . S
C560 H549 0.950 . S
C560 C558 1.391 . S
C560 C561 1.400 1_554 S
C561 C555 1.491 1_556 S
C561 C560 1.400 1_556 S
C561 C562 1.398 . S
C562 H550 0.950 . S
C562 C561 1.398 . S
C562 C563 1.391 . S
C563 H551 0.950 . S
C563 C559 1.393 . S
C563 C562 1.391 . S
H564 C572 0.950 . S
H565 C577 0.950 . S
H566 C574 0.950 . S
H567 C576 0.950 . S
H568 C578 0.950 . S
H569 C580 0.950 . S
H570 C582 0.950 . S
H571 C583 0.950 . S
C572 H564 0.950 . S
C572 C573 1.386 . S
C572 C574 1.391 . S
C573 C572 1.386 . S
C573 C577 1.393 . S
C574 H566 0.950 . S
C574 C572 1.391 . S
C574 C575 1.400 . S
C575 C574 1.400 . S
C575 C576 1.398 . S
C575 C581 1.491 . S
C576 H567 0.950 . S
C576 C575 1.398 . S
C576 C577 1.391 . S
C577 H565 0.950 . S
C577 C573 1.393 . S
C577 C576 1.391 . S
C578 H568 0.950 . S
C578 C579 1.386 . S
C578 C580 1.391 . S
C579 C578 1.386 . S
C579 C583 1.393 . S
C580 H569 0.950 . S
C580 C578 1.391 . S
C580 C581 1.400 . S
C581 C575 1.491 . S
C581 C580 1.400 . S
C581 C582 1.398 . S
C582 H570 0.950 . S
C582 C581 1.398 . S
C582 C583 1.391 . S
C583 H571 0.950 . S
C583 C579 1.393 . S
C583 C582 1.391 . S
H584 C592 0.950 . S
H585 C597 0.950 . S
H586 C594 0.950 . S
H587 C596 0.950 . S
H588 C598 0.950 . S
H589 C600 0.950 . S
H590 C602 0.950 . S
H591 C603 0.950 . S
C592 H584 0.950 . S
C592 C593 1.386 . S
C592 C594 1.391 . S
C593 C592 1.386 . S
C593 C597 1.393 . S
C594 H586 0.950 . S
C594 C592 1.391 . S
C594 C595 1.400 . S
C595 C594 1.400 . S
C595 C596 1.398 . S
C595 C601 1.491 . S
C596 H587 0.950 . S
C596 C595 1.398 . S
C596 C597 1.391 . S
C597 H585 0.950 . S
C597 C593 1.393 . S
C597 C596 1.391 . S
C598 H588 0.950 . S
C598 C599 1.386 . S
C598 C600 1.391 . S
C599 C598 1.386 . S
C599 C603 1.393 . S
C600 H589 0.950 . S
C600 C598 1.391 . S
C600 C601 1.400 . S
C601 C595 1.491 . S
C601 C600 1.400 . S
C601 C602 1.398 . S
C602 H590 0.950 . S
C602 C601 1.398 . S
C602 C603 1.391 . S
C603 H591 0.950 . S
C603 C599 1.393 . S
C603 C602 1.391 . S
H604 C612 0.950 . S
H605 C617 0.950 . S
H606 C614 0.950 . S
H607 C616 0.950 . S
H608 C618 0.950 . S
H609 C620 0.950 . S
H610 C622 0.950 . S
H611 C623 0.950 . S
C612 H604 0.950 . S
C612 C613 1.386 . S
C612 C614 1.391 . S
C613 C612 1.386 . S
C613 C617 1.393 . S
C614 H606 0.950 . S
C614 C612 1.391 . S
C614 C615 1.400 . S
C615 C614 1.400 . S
C615 C616 1.398 . S
C615 C621 1.491 . S
C616 H607 0.950 . S
C616 C615 1.398 . S
C616 C617 1.391 . S
C617 H605 0.950 . S
C617 C613 1.393 . S
C617 C616 1.391 . S
C618 H608 0.950 . S
C618 C619 1.386 . S
C618 C620 1.391 . S
C619 C618 1.386 . S
C619 C623 1.393 . S
C620 H609 0.950 . S
C620 C618 1.391 . S
C620 C621 1.400 . S
C621 C615 1.491 . S
C621 C620 1.400 . S
C621 C622 1.398 . S
C622 H610 0.950 . S
C622 C621 1.398 . S
C622 C623 1.391 . S
C623 H611 0.950 . S
C623 C619 1.393 . S
C623 C622 1.391 . S
H624 C632 0.950 . S
H625 C637 0.950 . S
H626 C634 0.950 . S
H627 C636 0.950 . S
H628 C638 0.950 . S
H629 C640 0.950 . S
H630 C642 0.950 . S
H631 C643 0.950 . S
C632 H624 0.950 . S
C632 C633 1.386 . S
C632 C634 1.391 . S
C633 C632 1.386 . S
C633 C637 1.393 . S
C634 H626 0.950 . S
C634 C632 1.391 . S
C634 C635 1.400 . S
C635 C634 1.400 . S
C635 C636 1.398 . S
C635 C641 1.491 1_455 S
C636 H627 0.950 . S
C636 C635 1.398 . S
C636 C637 1.391 . S
C637 H625 0.950 . S
C637 C633 1.393 . S
C637 C636 1.391 . S
C638 H628 0.950 . S
C638 C639 1.386 . S
C638 C640 1.391 . S
C639 C638 1.386 . S
C639 C643 1.393 . S
C640 H629 0.950 . S
C640 C638 1.391 . S
C640 C641 1.400 . S
C641 C635 1.491 1_655 S
C641 C640 1.400 . S
C641 C642 1.398 . S
C642 H630 0.950 . S
C642 C641 1.398 . S
C642 C643 1.391 . S
C643 H631 0.950 . S
C643 C639 1.393 . S
C643 C642 1.391 . S
H644 C652 0.950 . S
H645 C657 0.950 . S
H646 C654 0.950 . S
H647 C656 0.950 . S
H648 C658 0.950 . S
H649 C660 0.950 . S
H650 C662 0.950 . S
H651 C663 0.950 . S
C652 H644 0.950 . S
C652 C653 1.386 . S
C652 C654 1.391 . S
C653 C652 1.386 . S
C653 C657 1.393 . S
C654 H646 0.950 . S
C654 C652 1.391 . S
C654 C655 1.400 . S
C655 C654 1.400 . S
C655 C656 1.398 . S
C655 C661 1.491 1_455 S
C656 H647 0.950 . S
C656 C655 1.398 . S
C656 C657 1.391 . S
C657 H645 0.950 . S
C657 C653 1.393 . S
C657 C656 1.391 . S
C658 H648 0.950 . S
C658 C659 1.386 . S
C658 C660 1.391 . S
C659 C658 1.386 . S
C659 C663 1.393 . S
C660 H649 0.950 . S
C660 C658 1.391 . S
C660 C661 1.400 . S
C661 C655 1.491 1_655 S
C661 C660 1.400 . S
C661 C662 1.398 . S
C662 H650 0.950 . S
C662 C661 1.398 . S
C662 C663 1.391 . S
C663 H651 0.950 . S
C663 C659 1.393 . S
C663 C662 1.391 . S
C273 C106 1.777 . S
C279 N13 1.867 . S
C293 N46 1.867 . S
C299 C73 1.791 . S
C313 C40 1.778 . S
C319 N79 1.872 . S
C333 C7 1.787 . S
C339 N112 1.865 . S
C353 N145 1.865 . S
C359 C238 1.784 . S
C373 C205 1.782 . S
C379 N178 1.866 . S
C393 N211 1.870 . S
C399 C172 1.784 . S
C413 N244 1.873 . S
C419 C139 1.772 . S
C433 C18 1.009 1_556 S
C439 C84 1.009 1_554 S
C453 C51 1.026 . S
C459 C117 1.026 . S
C473 C216 1.012 1_554 S
C479 C150 1.012 1_556 S
C493 C249 1.022 . S
C499 C183 1.022 . S
C513 C21 1.480 . S
C519 C219 1.480 . S
C533 C54 1.479 . S
C539 C252 1.479 . S
C553 C153 1.488 . S
C559 C87 1.488 . S
C573 C186 1.494 . S
C579 C120 1.494 . S
C593 N35 0.720 . S
C599 N2 0.747 . S
C613 N101 0.700 . S
C619 N68 0.732 . S
C633 N167 0.756 . S
C639 N134 0.750 . S
C653 N200 0.755 . S
C659 N233 0.738 . S
