# Generated by pormake.
# Topology afi, (4)-cn, num edge types: 1
# Building blocks:
#     Node 0, Type 0, BuildingBlock: UXUYUI_clean_sbu_0, # of connection points: 4
#     Node 1, Type 0, BuildingBlock: UXUYUI_clean_sbu_0, # of connection points: 4
#     Node 2, Type 0, BuildingBlock: UXUYUI_clean_sbu_0, # of connection points: 4
#     Node 3, Type 0, BuildingBlock: UXUYUI_clean_sbu_0, # of connection points: 4
#     Node 4, Type 0, BuildingBlock: UXUYUI_clean_sbu_0, # of connection points: 4
#     Node 5, Type 0, BuildingBlock: UXUYUI_clean_sbu_0, # of connection points: 4
#     Node 6, Type 0, BuildingBlock: UXUYUI_clean_sbu_0, # of connection points: 4
#     Node 7, Type 0, BuildingBlock: UXUYUI_clean_sbu_0, # of connection points: 4
#     Node 8, Type 0, BuildingBlock: UXUYUI_clean_sbu_0, # of connection points: 4
#     Node 9, Type 0, BuildingBlock: UXUYUI_clean_sbu_0, # of connection points: 4
#     Node 10, Type 0, BuildingBlock: UXUYUI_clean_sbu_0, # of connection points: 4
#     Node 11, Type 0, BuildingBlock: UXUYUI_clean_sbu_0, # of connection points: 4
#     Node 12, Type 0, BuildingBlock: UXUYUI_clean_sbu_0, # of connection points: 4
#     Node 13, Type 0, BuildingBlock: UXUYUI_clean_sbu_0, # of connection points: 4
#     Node 14, Type 0, BuildingBlock: UXUYUI_clean_sbu_0, # of connection points: 4
#     Node 15, Type 0, BuildingBlock: UXUYUI_clean_sbu_0, # of connection points: 4
#     Node 16, Type 0, BuildingBlock: UXUYUI_clean_sbu_0, # of connection points: 4
#     Node 17, Type 0, BuildingBlock: UXUYUI_clean_sbu_0, # of connection points: 4
#     Node 18, Type 0, BuildingBlock: UXUYUI_clean_sbu_0, # of connection points: 4
#     Node 19, Type 0, BuildingBlock: UXUYUI_clean_sbu_0, # of connection points: 4
#     Node 20, Type 0, BuildingBlock: UXUYUI_clean_sbu_0, # of connection points: 4
#     Node 21, Type 0, BuildingBlock: UXUYUI_clean_sbu_0, # of connection points: 4
#     Node 22, Type 0, BuildingBlock: UXUYUI_clean_sbu_0, # of connection points: 4
#     Node 23, Type 0, BuildingBlock: UXUYUI_clean_sbu_0, # of connection points: 4
#     Edge 24, Type (0, 0), BuildingBlock: AJUNOK_clean_linker_0, # of connection points: 2
#     Edge 25, Type (0, 0), BuildingBlock: AJUNOK_clean_linker_0, # of connection points: 2
#     Edge 26, Type (0, 0), BuildingBlock: AJUNOK_clean_linker_0, # of connection points: 2
#     Edge 27, Type (0, 0), BuildingBlock: AJUNOK_clean_linker_0, # of connection points: 2
#     Edge 28, Type (0, 0), BuildingBlock: AJUNOK_clean_linker_0, # of connection points: 2
#     Edge 29, Type (0, 0), BuildingBlock: AJUNOK_clean_linker_0, # of connection points: 2
#     Edge 30, Type (0, 0), BuildingBlock: AJUNOK_clean_linker_0, # of connection points: 2
#     Edge 31, Type (0, 0), BuildingBlock: AJUNOK_clean_linker_0, # of connection points: 2
#     Edge 32, Type (0, 0), BuildingBlock: AJUNOK_clean_linker_0, # of connection points: 2
#     Edge 33, Type (0, 0), BuildingBlock: AJUNOK_clean_linker_0, # of connection points: 2
#     Edge 34, Type (0, 0), BuildingBlock: AJUNOK_clean_linker_0, # of connection points: 2
#     Edge 35, Type (0, 0), BuildingBlock: AJUNOK_clean_linker_0, # of connection points: 2
#     Edge 36, Type (0, 0), BuildingBlock: AJUNOK_clean_linker_0, # of connection points: 2
#     Edge 37, Type (0, 0), BuildingBlock: AJUNOK_clean_linker_0, # of connection points: 2
#     Edge 38, Type (0, 0), BuildingBlock: AJUNOK_clean_linker_0, # of connection points: 2
#     Edge 39, Type (0, 0), BuildingBlock: AJUNOK_clean_linker_0, # of connection points: 2
#     Edge 40, Type (0, 0), BuildingBlock: AJUNOK_clean_linker_0, # of connection points: 2
#     Edge 41, Type (0, 0), BuildingBlock: AJUNOK_clean_linker_0, # of connection points: 2
#     Edge 42, Type (0, 0), BuildingBlock: AJUNOK_clean_linker_0, # of connection points: 2
#     Edge 43, Type (0, 0), BuildingBlock: AJUNOK_clean_linker_0, # of connection points: 2
#     Edge 44, Type (0, 0), BuildingBlock: AJUNOK_clean_linker_0, # of connection points: 2
#     Edge 45, Type (0, 0), BuildingBlock: AJUNOK_clean_linker_0, # of connection points: 2
#     Edge 46, Type (0, 0), BuildingBlock: AJUNOK_clean_linker_0, # of connection points: 2
#     Edge 47, Type (0, 0), BuildingBlock: AJUNOK_clean_linker_0, # of connection points: 2
#     Edge 48, Type (0, 0), BuildingBlock: AJUNOK_clean_linker_0, # of connection points: 2
#     Edge 49, Type (0, 0), BuildingBlock: AJUNOK_clean_linker_0, # of connection points: 2
#     Edge 50, Type (0, 0), BuildingBlock: AJUNOK_clean_linker_0, # of connection points: 2
#     Edge 51, Type (0, 0), BuildingBlock: AJUNOK_clean_linker_0, # of connection points: 2
#     Edge 52, Type (0, 0), BuildingBlock: AJUNOK_clean_linker_0, # of connection points: 2
#     Edge 53, Type (0, 0), BuildingBlock: AJUNOK_clean_linker_0, # of connection points: 2
#     Edge 54, Type (0, 0), BuildingBlock: AJUNOK_clean_linker_0, # of connection points: 2
#     Edge 55, Type (0, 0), BuildingBlock: AJUNOK_clean_linker_0, # of connection points: 2
#     Edge 56, Type (0, 0), BuildingBlock: AJUNOK_clean_linker_0, # of connection points: 2
#     Edge 57, Type (0, 0), BuildingBlock: AJUNOK_clean_linker_0, # of connection points: 2
#     Edge 58, Type (0, 0), BuildingBlock: AJUNOK_clean_linker_0, # of connection points: 2
#     Edge 59, Type (0, 0), BuildingBlock: AJUNOK_clean_linker_0, # of connection points: 2
#     Edge 60, Type (0, 0), BuildingBlock: AJUNOK_clean_linker_0, # of connection points: 2
#     Edge 61, Type (0, 0), BuildingBlock: AJUNOK_clean_linker_0, # of connection points: 2
#     Edge 62, Type (0, 0), BuildingBlock: AJUNOK_clean_linker_0, # of connection points: 2
#     Edge 63, Type (0, 0), BuildingBlock: AJUNOK_clean_linker_0, # of connection points: 2
#     Edge 64, Type (0, 0), BuildingBlock: AJUNOK_clean_linker_0, # of connection points: 2
#     Edge 65, Type (0, 0), BuildingBlock: AJUNOK_clean_linker_0, # of connection points: 2
#     Edge 66, Type (0, 0), BuildingBlock: AJUNOK_clean_linker_0, # of connection points: 2
#     Edge 67, Type (0, 0), BuildingBlock: AJUNOK_clean_linker_0, # of connection points: 2
#     Edge 68, Type (0, 0), BuildingBlock: AJUNOK_clean_linker_0, # of connection points: 2
#     Edge 69, Type (0, 0), BuildingBlock: AJUNOK_clean_linker_0, # of connection points: 2
#     Edge 70, Type (0, 0), BuildingBlock: AJUNOK_clean_linker_0, # of connection points: 2
#     Edge 71, Type (0, 0), BuildingBlock: AJUNOK_clean_linker_0, # of connection points: 2
# Relax obj value: 0.134
# Max RMSD: 0.127
# Mean RMSD: 0.126
data_MOF--net-afi--node1-UXUYUI_clean_sbu_0--edge1-AJUNOK_clean_linker_0
_symmetry_space_group_name_H-M    P1
_symmetry_Int_Tables_number       1
_symmetry_cell_setting            triclinic
loop_
_symmetry_equiv_pos_as_xyz
'x, y, z'
_cell_length_a     79.665459
_cell_length_b     79.67954
_cell_length_c     49.483025
_cell_angle_alpha  90.007409
_cell_angle_beta   89.997877
_cell_angle_gamma 120.01204
loop_
_atom_site_label
_atom_site_type_symbol
_atom_site_fract_x
_atom_site_fract_y
_atom_site_fract_z
_atom_type_partial_charge
Li0 Li 0.47883 0.12751 0.19699 0.0
Li1 Li 0.44434 0.10496 0.19933 0.0
Li2 Li 0.45874 0.12367 0.15809 0.0
Li3 Li 0.45605 0.13946 0.19816 0.0
C4 C 0.46604 0.08869 0.18238 0.0
N5 N 0.47069 0.05794 0.19789 0.0
C6 C 0.47019 0.08681 0.20929 0.0
C7 C 0.46426 0.07493 0.16336 0.0
C8 C 0.4725 0.07118 0.21673 0.0
C9 C 0.46667 0.05949 0.1716 0.0
C10 C 0.45054 0.12388 0.2491 0.0
C11 C 0.42071 0.11768 0.27028 0.0
N12 N 0.4298 0.12239 0.29467 0.0
C13 C 0.45959 0.12866 0.27436 0.0
C14 C 0.43094 0.11834 0.247 0.0
C15 C 0.44885 0.12781 0.29717 0.0
C16 C 0.51124 0.14338 0.2317 0.0
N17 N 0.50362 0.13232 0.2092 0.0
C18 C 0.52961 0.1255 0.20755 0.0
C19 C 0.51267 0.12381 0.19667 0.0
C20 C 0.53749 0.13638 0.23116 0.0
C21 C 0.52837 0.14572 0.24302 0.0
H22 H 0.50373 0.14997 0.24122 0.0
H23 H 0.50642 0.11521 0.17869 0.0
C24 C 0.41061 0.06735 0.19801 0.0
N25 N 0.42572 0.08008 0.21358 0.0
C26 C 0.39812 0.04849 0.20724 0.0
C27 C 0.41679 0.05633 0.24848 0.0
C28 C 0.42883 0.07498 0.23852 0.0
C29 C 0.40136 0.04269 0.23264 0.0
H30 H 0.40852 0.07173 0.17818 0.0
H31 H 0.44109 0.08519 0.25042 0.0
C32 C 0.49558 0.15673 0.1592 0.0
N33 N 0.5289 0.17374 0.12823 0.0
C34 C 0.50699 0.1769 0.15791 0.0
C35 C 0.50111 0.1452 0.14475 0.0
C36 C 0.52379 0.18523 0.14213 0.0
C37 C 0.51801 0.15407 0.12921 0.0
C38 C 0.42514 0.12569 0.16091 0.0
C39 C 0.4352 0.14472 0.15127 0.0
C40 C 0.40562 0.11379 0.15421 0.0
C41 C 0.42553 0.15154 0.13505 0.0
C42 C 0.39646 0.12114 0.13794 0.0
N43 N 0.40652 0.13971 0.12878 0.0
C44 C 0.45102 0.10632 0.10606 0.0
C45 C 0.46372 0.14029 0.10564 0.0
C46 C 0.45034 0.10575 0.0778 0.0
N47 N 0.45766 0.12342 0.11934 0.0
C48 C 0.46316 0.14037 0.07743 0.0
C49 C 0.45636 0.12294 0.0631 0.0
H50 H 0.44635 0.09312 0.11743 0.0
H51 H 0.46904 0.15374 0.11659 0.0
C52 C 0.46894 0.17639 0.21983 0.0
N53 N 0.45263 0.15996 0.21213 0.0
C54 C 0.46776 0.19207 0.23023 0.0
C55 C 0.433 0.17366 0.22451 0.0
C56 C 0.43483 0.15826 0.21447 0.0
C57 C 0.44961 0.19084 0.2327 0.0
H58 H 0.48289 0.17727 0.21792 0.0
H59 H 0.42204 0.14499 0.20838 0.0
O60 O 0.46349 0.10376 0.1746 0.0
O61 O 0.46097 0.12484 0.22661 0.0
O62 O 0.47912 0.14846 0.17463 0.0
O63 O 0.43428 0.11857 0.17665 0.0
H64 H 0.47165 0.09732 0.2243 0.0
H65 H 0.46105 0.07615 0.14245 0.0
H66 H 0.47571 0.06956 0.23749 0.0
H67 H 0.46532 0.04872 0.15709 0.0
H68 H 0.40554 0.11343 0.26895 0.0
H69 H 0.47476 0.13299 0.27631 0.0
H70 H 0.42367 0.11458 0.22765 0.0
H71 H 0.45567 0.13147 0.31685 0.0
H72 H 0.53635 0.11816 0.19787 0.0
H73 H 0.53403 0.15413 0.26137 0.0
H74 H 0.3862 0.03851 0.19456 0.0
H75 H 0.41993 0.05244 0.26803 0.0
H76 H 0.50289 0.18602 0.16898 0.0
H77 H 0.49246 0.12957 0.1454 0.0
H78 H 0.53276 0.20082 0.14094 0.0
H79 H 0.52245 0.14533 0.11791 0.0
H80 H 0.4503 0.15415 0.15626 0.0
H81 H 0.39765 0.09901 0.1615 0.0
H82 H 0.43314 0.16624 0.12745 0.0
H83 H 0.38136 0.11209 0.13259 0.0
H84 H 0.44543 0.09205 0.06759 0.0
H85 H 0.46789 0.15394 0.06694 0.0
H86 H 0.48092 0.20497 0.23646 0.0
H87 H 0.41876 0.17222 0.22548 0.0
Li88 Li 0.35132 0.47527 0.1977 0.0
Li89 Li 0.33995 0.43967 0.20086 0.0
Li90 Li 0.33529 0.45543 0.15873 0.0
Li91 Li 0.31696 0.45167 0.19877 0.0
C92 C 0.37941 0.47115 0.17758 0.0
N93 N 0.41899 0.4953 0.18272 0.0
C94 C 0.38981 0.46707 0.19667 0.0
C95 C 0.38917 0.48743 0.16097 0.0
C96 C 0.40981 0.47946 0.19896 0.0
C97 C 0.40916 0.49949 0.16394 0.0
C98 C 0.32801 0.45818 0.24956 0.0
C99 C 0.3062 0.4436 0.28718 0.0
N100 N 0.3086 0.46123 0.29386 0.0
C101 C 0.33028 0.47615 0.2568 0.0
C102 C 0.31589 0.44175 0.26486 0.0
C103 C 0.32034 0.4774 0.27927 0.0
C104 C 0.37549 0.51676 0.2002 0.0
N105 N 0.37146 0.4995 0.21121 0.0
C106 C 0.39701 0.51556 0.24341 0.0
C107 C 0.3817 0.49863 0.23261 0.0
C108 C 0.4018 0.53357 0.23211 0.0
C109 C 0.39073 0.53408 0.21036 0.0
H110 H 0.36688 0.51711 0.1836 0.0
H111 H 0.37804 0.48471 0.24113 0.0
C112 C 0.35269 0.41235 0.19705 0.0
N113 N 0.34692 0.42162 0.21457 0.0
C114 C 0.36037 0.4011 0.20675 0.0
C115 C 0.35544 0.40867 0.25232 0.0
C116 C 0.34804 0.41991 0.24175 0.0
C117 C 0.36201 0.3993 0.23477 0.0
H118 H 0.35204 0.41435 0.17552 0.0
H119 H 0.34386 0.42783 0.25524 0.0
C120 C 0.32699 0.483 0.15371 0.0
N121 N 0.31988 0.49808 0.10761 0.0
C122 C 0.30799 0.47775 0.14659 0.0
C123 C 0.34235 0.49592 0.13733 0.0
C124 C 0.3047 0.48555 0.12325 0.0
C125 C 0.33847 0.50336 0.11411 0.0
C126 C 0.29847 0.4152 0.17776 0.0
C127 C 0.28355 0.41605 0.16413 0.0
C128 C 0.29444 0.39849 0.19212 0.0
C129 C 0.26474 0.40018 0.1653 0.0
C130 C 0.27545 0.3829 0.19276 0.0
N131 N 0.26112 0.38408 0.17947 0.0
C132 C 0.35128 0.45749 0.10657 0.0
C133 C 0.3185 0.44994 0.10606 0.0
C134 C 0.35161 0.45702 0.07832 0.0
N135 N 0.33493 0.45414 0.11984 0.0
C136 C 0.31827 0.44962 0.07783 0.0
C137 C 0.33496 0.45314 0.06365 0.0
H138 H 0.36409 0.46054 0.1179 0.0
H139 H 0.30558 0.44699 0.11693 0.0
C140 C 0.29101 0.46398 0.2147 0.0
N141 N 0.29287 0.44793 0.21372 0.0
C142 C 0.27442 0.46304 0.22569 0.0
C143 C 0.26207 0.42916 0.23543 0.0
C144 C 0.27899 0.4308 0.2244 0.0
C145 C 0.25959 0.4454 0.23595 0.0
H146 H 0.30254 0.47764 0.20711 0.0
H147 H 0.28114 0.41847 0.22487 0.0
O148 O 0.35973 0.45953 0.1756 0.0
O149 O 0.33714 0.45658 0.22712 0.0
O150 O 0.33051 0.47539 0.17638 0.0
O151 O 0.317 0.43049 0.17679 0.0
H152 H 0.38252 0.45463 0.20984 0.0
H153 H 0.38136 0.49084 0.14613 0.0
H154 H 0.41802 0.47654 0.21376 0.0
H155 H 0.41687 0.51222 0.15135 0.0
H156 H 0.29666 0.431 0.29909 0.0
H157 H 0.33941 0.48897 0.24498 0.0
H158 H 0.31366 0.42766 0.25922 0.0
H159 H 0.32189 0.4912 0.28503 0.0
H160 H 0.40521 0.51456 0.26017 0.0
H161 H 0.39373 0.54772 0.20147 0.0
H162 H 0.36575 0.39462 0.19246 0.0
H163 H 0.35646 0.40771 0.27403 0.0
H164 H 0.29585 0.46748 0.15863 0.0
H165 H 0.35711 0.49995 0.14226 0.0
H166 H 0.29007 0.48154 0.11745 0.0
H167 H 0.35023 0.51328 0.10119 0.0
H168 H 0.28637 0.42896 0.15322 0.0
H169 H 0.30585 0.39759 0.20272 0.0
H170 H 0.25302 0.40069 0.15505 0.0
H171 H 0.27209 0.36989 0.20384 0.0
H172 H 0.36479 0.4599 0.06803 0.0
H173 H 0.30513 0.44643 0.06718 0.0
H174 H 0.27314 0.47594 0.22598 0.0
H175 H 0.25122 0.41545 0.24391 0.0
Li176 Li 0.87924 0.35334 0.19873 0.0
Li177 Li 0.90231 0.34143 0.20178 0.0
Li178 Li 0.88332 0.33698 0.16035 0.0
Li179 Li 0.86783 0.31834 0.20146 0.0
C180 C 0.91396 0.37157 0.156 0.0
N181 N 0.93536 0.39022 0.11058 0.0
C182 C 0.93138 0.37193 0.15073 0.0
C183 C 0.9075 0.38082 0.13831 0.0
C184 C 0.94198 0.38143 0.12764 0.0
C185 C 0.91849 0.39011 0.1154 0.0
C186 C 0.89181 0.34246 0.25257 0.0
C187 C 0.90633 0.3335 0.28839 0.0
N188 N 0.91237 0.35096 0.30039 0.0
C189 C 0.89805 0.36027 0.26533 0.0
C190 C 0.89586 0.3289 0.26425 0.0
C191 C 0.90846 0.3643 0.28948 0.0
C192 C 0.86034 0.36985 0.22822 0.0
N193 N 0.8752 0.37371 0.21108 0.0
C194 C 0.88706 0.40773 0.21443 0.0
C195 C 0.88844 0.39218 0.20404 0.0
C196 C 0.87186 0.40419 0.23207 0.0
C197 C 0.85826 0.38498 0.2388 0.0
H198 H 0.85036 0.35507 0.23413 0.0
H199 H 0.90035 0.39487 0.19087 0.0
C200 C 0.93518 0.33677 0.2135 0.0
N201 N 0.92721 0.34833 0.21606 0.0
C202 C 0.95379 0.3429 0.22363 0.0
C203 C 0.95534 0.37241 0.23918 0.0
C204 C 0.93696 0.36593 0.2283 0.0
C205 C 0.96399 0.3609 0.23672 0.0
H206 H 0.92721 0.32295 0.20334 0.0
H207 H 0.93047 0.37502 0.22944 0.0
C208 C 0.84417 0.33618 0.17804 0.0
N209 N 0.81546 0.34588 0.18193 0.0
C210 C 0.82801 0.32531 0.19447 0.0
C211 C 0.84568 0.3519 0.16346 0.0
C212 C 0.81365 0.33045 0.19617 0.0
C213 C 0.83104 0.35661 0.16575 0.0
C214 C 0.88224 0.29876 0.17657 0.0
C215 C 0.87306 0.28904 0.15278 0.0
C216 C 0.88438 0.28851 0.19792 0.0
C217 C 0.86597 0.26911 0.15087 0.0
C218 C 0.87706 0.26859 0.19524 0.0
N219 N 0.86808 0.25938 0.17198 0.0
C220 C 0.89852 0.33537 0.10904 0.0
C221 C 0.86932 0.33639 0.10744 0.0
C222 C 0.8994 0.33537 0.08081 0.0
N223 N 0.88375 0.3361 0.1217 0.0
C224 C 0.86956 0.3363 0.07921 0.0
C225 C 0.88484 0.33597 0.06555 0.0
H226 H 0.90967 0.33486 0.12089 0.0
H227 H 0.85762 0.33675 0.11797 0.0
C228 C 0.84432 0.29245 0.24241 0.0
N229 N 0.84741 0.29431 0.21528 0.0
C230 C 0.82844 0.27587 0.25307 0.0
C231 C 0.81942 0.26319 0.20775 0.0
C232 C 0.83533 0.28014 0.19792 0.0
C233 C 0.81567 0.2611 0.23561 0.0
H234 H 0.85387 0.30407 0.25575 0.0
H235 H 0.83774 0.28223 0.17638 0.0
O236 O 0.90311 0.36192 0.1781 0.0
O237 O 0.88191 0.33836 0.22867 0.0
O238 O 0.85851 0.33153 0.17636 0.0
O239 O 0.8891 0.31821 0.17893 0.0
H240 H 0.93655 0.36478 0.16414 0.0
H241 H 0.89401 0.38059 0.14205 0.0
H242 H 0.95543 0.38175 0.12322 0.0
H243 H 0.91359 0.39719 0.10141 0.0
H244 H 0.90968 0.3232 0.29756 0.0
H245 H 0.89507 0.37094 0.25656 0.0
H246 H 0.8911 0.31504 0.25464 0.0
H247 H 0.91347 0.37807 0.29951 0.0
H248 H 0.89786 0.4224 0.20892 0.0
H249 H 0.84655 0.38176 0.25275 0.0
H250 H 0.96015 0.33374 0.22129 0.0
H251 H 0.96294 0.38649 0.24884 0.0
H252 H 0.8266 0.31312 0.20594 0.0
H253 H 0.85817 0.36055 0.1508 0.0
H254 H 0.80109 0.32222 0.20888 0.0
H255 H 0.83209 0.36882 0.15474 0.0
H256 H 0.87126 0.29676 0.13608 0.0
H257 H 0.89152 0.29585 0.21641 0.0
H258 H 0.85874 0.26137 0.13265 0.0
H259 H 0.87852 0.26044 0.21166 0.0
H260 H 0.91122 0.33472 0.07104 0.0
H261 H 0.85805 0.33674 0.06815 0.0
H262 H 0.82601 0.2747 0.2747 0.0
H263 H 0.80974 0.25216 0.19368 0.0
Li264 Li 0.56789 0.90226 0.19637 0.0
Li265 Li 0.53109 0.87819 0.19629 0.0
Li266 Li 0.55473 0.86729 0.19629 0.0
Li267 Li 0.5512 0.88174 0.15687 0.0
C268 C 0.55125 0.87383 0.24721 0.0
N269 N 0.55185 0.85375 0.29234 0.0
C270 C 0.53399 0.85853 0.25736 0.0
C271 C 0.56879 0.87906 0.26013 0.0
C272 C 0.5346 0.84852 0.28018 0.0
C273 C 0.56879 0.86869 0.28289 0.0
C274 C 0.54326 0.90972 0.15186 0.0
C275 C 0.52109 0.91073 0.11963 0.0
N276 N 0.5364 0.92444 0.1053 0.0
C277 C 0.55877 0.9239 0.13694 0.0
C278 C 0.52426 0.90312 0.14326 0.0
C279 C 0.555 0.93113 0.1134 0.0
C280 C 0.60054 0.9407 0.19348 0.0
N281 N 0.58608 0.92742 0.20942 0.0
C282 C 0.59456 0.95073 0.24478 0.0
C283 C 0.58306 0.93198 0.23473 0.0
C284 C 0.60921 0.96497 0.22853 0.0
C285 C 0.61239 0.95968 0.20273 0.0
H286 H 0.6026 0.93665 0.17341 0.0
H287 H 0.57134 0.92116 0.24686 0.0
C288 C 0.49096 0.85762 0.21107 0.0
N289 N 0.50744 0.87518 0.20953 0.0
C290 C 0.47395 0.85619 0.22146 0.0
C291 C 0.49128 0.8909 0.22828 0.0
C292 C 0.5079 0.89165 0.21785 0.0
C293 C 0.47403 0.873 0.23029 0.0
H294 H 0.49107 0.84476 0.20431 0.0
H295 H 0.52127 0.90538 0.21643 0.0
C296 C 0.59338 0.88795 0.17587 0.0
N297 N 0.6287 0.88948 0.18056 0.0
C298 C 0.59898 0.87878 0.15672 0.0
C299 C 0.60589 0.89811 0.19721 0.0
C300 C 0.61684 0.87964 0.15952 0.0
C301 C 0.62365 0.89867 0.19927 0.0
C302 C 0.5268 0.84216 0.15788 0.0
C303 C 0.54184 0.83968 0.14801 0.0
C304 C 0.50765 0.82887 0.15091 0.0
C305 C 0.53747 0.82386 0.13135 0.0
C306 C 0.50386 0.81323 0.13417 0.0
N307 N 0.51873 0.81107 0.12483 0.0
C308 C 0.54054 0.82929 0.21533 0.0
C309 C 0.57482 0.84755 0.21656 0.0
C310 C 0.54071 0.81305 0.22561 0.0
N311 N 0.55744 0.84609 0.21071 0.0
C312 C 0.57566 0.83162 0.22672 0.0
C313 C 0.55845 0.81405 0.23115 0.0
H314 H 0.52685 0.82852 0.21115 0.0
H315 H 0.58808 0.86104 0.21373 0.0
C316 C 0.56789 0.88924 0.10443 0.0
N317 N 0.55086 0.88135 0.11823 0.0
C318 C 0.56792 0.88918 0.07618 0.0
C319 C 0.53291 0.87295 0.0769 0.0
C320 C 0.53354 0.87318 0.10511 0.0
C321 C 0.55027 0.8811 0.06211 0.0
H322 H 0.58144 0.8957 0.11539 0.0
H323 H 0.52022 0.86694 0.11661 0.0
O324 O 0.55101 0.88336 0.22438 0.0
O325 O 0.54667 0.90197 0.1744 0.0
O326 O 0.57608 0.88751 0.17315 0.0
O327 O 0.53073 0.85767 0.17397 0.0
H328 H 0.52031 0.85427 0.2475 0.0
H329 H 0.58227 0.89089 0.25254 0.0
H330 H 0.52138 0.83655 0.28815 0.0
H331 H 0.58227 0.87248 0.29301 0.0
H332 H 0.50647 0.90568 0.11262 0.0
H333 H 0.57356 0.92905 0.14326 0.0
H334 H 0.51211 0.89205 0.15452 0.0
H335 H 0.56686 0.942 0.10151 0.0
H336 H 0.59155 0.95423 0.2647 0.0
H337 H 0.62375 0.97016 0.18975 0.0
H338 H 0.46086 0.84216 0.2223 0.0
H339 H 0.49197 0.90416 0.23502 0.0
H340 H 0.58966 0.87113 0.1398 0.0
H341 H 0.60187 0.90529 0.21223 0.0
H342 H 0.62131 0.87255 0.14491 0.0
H343 H 0.63339 0.90637 0.21578 0.0
H344 H 0.55671 0.84983 0.1532 0.0
H345 H 0.49584 0.83066 0.15828 0.0
H346 H 0.54898 0.82175 0.12359 0.0
H347 H 0.4891 0.80283 0.1286 0.0
H348 H 0.5271 0.79978 0.22893 0.0
H349 H 0.58962 0.83312 0.23143 0.0
H350 H 0.58159 0.89564 0.06543 0.0
H351 H 0.519 0.86633 0.06675 0.0
Li352 Li 0.65547 0.53029 0.20011 0.0
Li353 Li 0.66769 0.56685 0.20075 0.0
Li354 Li 0.67164 0.55073 0.16067 0.0
Li355 Li 0.68996 0.55429 0.19976 0.0
C356 C 0.635 0.54019 0.15614 0.0
N357 N 0.61218 0.52928 0.11024 0.0
C358 C 0.63501 0.55425 0.13925 0.0
C359 C 0.62337 0.52057 0.14969 0.0
C360 C 0.62339 0.54845 0.11611 0.0
C361 C 0.61191 0.51536 0.12642 0.0
C362 C 0.68007 0.5495 0.2508 0.0
C363 C 0.70451 0.56583 0.28503 0.0
N364 N 0.7007 0.54836 0.29497 0.0
C365 C 0.6763 0.53171 0.26146 0.0
C366 C 0.69419 0.56672 0.26277 0.0
C367 C 0.68691 0.53143 0.28377 0.0
C368 C 0.63698 0.49024 0.21482 0.0
N369 N 0.63527 0.50636 0.21344 0.0
C370 C 0.60356 0.48936 0.2327 0.0
C371 C 0.61904 0.50625 0.22212 0.0
C372 C 0.60483 0.47244 0.23449 0.0
C373 C 0.62185 0.47301 0.22545 0.0
H374 H 0.65018 0.49085 0.20801 0.0
H375 H 0.61816 0.51934 0.22078 0.0
C376 C 0.65498 0.59464 0.19833 0.0
N377 N 0.66051 0.58469 0.21495 0.0
C378 C 0.64687 0.60524 0.20909 0.0
C379 C 0.65156 0.59622 0.25387 0.0
C380 C 0.65927 0.58557 0.24226 0.0
C381 C 0.64455 0.60564 0.23721 0.0
H382 H 0.65622 0.5938 0.17671 0.0
H383 H 0.66371 0.5775 0.25505 0.0
C384 C 0.68764 0.52698 0.16119 0.0
N385 N 0.71141 0.51997 0.12814 0.0
C386 C 0.70478 0.54242 0.15101 0.0
C387 C 0.68255 0.50798 0.15455 0.0
C388 C 0.71662 0.53859 0.13435 0.0
C389 C 0.69477 0.50473 0.13781 0.0
C390 C 0.7072 0.5931 0.18004 0.0
C391 C 0.72175 0.59934 0.16043 0.0
C392 C 0.70955 0.60511 0.20202 0.0
C393 C 0.73854 0.61736 0.16339 0.0
C394 C 0.72655 0.62304 0.20424 0.0
N395 N 0.74058 0.62874 0.18505 0.0
C396 C 0.68097 0.56799 0.10871 0.0
C397 C 0.66302 0.53364 0.10841 0.0
C398 C 0.68164 0.56844 0.08049 0.0
N399 N 0.67184 0.55077 0.12202 0.0
C400 C 0.66311 0.53342 0.08017 0.0
C401 C 0.67267 0.55098 0.06592 0.0
H402 H 0.68771 0.58139 0.12004 0.0
H403 H 0.65589 0.52015 0.11951 0.0
C404 C 0.71313 0.54005 0.22017 0.0
N405 N 0.71399 0.55704 0.21358 0.0
C406 C 0.72925 0.53995 0.23106 0.0
C407 C 0.74712 0.57487 0.22794 0.0
C408 C 0.73058 0.5743 0.21735 0.0
C409 C 0.7465 0.55754 0.23512 0.0
H410 H 0.69979 0.5265 0.21718 0.0
H411 H 0.73108 0.5877 0.21253 0.0
O412 O 0.64672 0.5456 0.17844 0.0
O413 O 0.6703 0.55004 0.22837 0.0
O414 O 0.67569 0.53037 0.17729 0.0
O415 O 0.69055 0.57561 0.17723 0.0
H416 H 0.64415 0.56949 0.14365 0.0
H417 H 0.62335 0.50949 0.1623 0.0
H418 H 0.62337 0.55918 0.10276 0.0
H419 H 0.6029 0.50023 0.12114 0.0
H420 H 0.7156 0.57904 0.29434 0.0
H421 H 0.66549 0.51825 0.25241 0.0
H422 H 0.69737 0.58061 0.25474 0.0
H423 H 0.68425 0.51777 0.29211 0.0
H424 H 0.59067 0.48952 0.23926 0.0
H425 H 0.62357 0.4604 0.22697 0.0
H426 H 0.64172 0.61234 0.19551 0.0
H427 H 0.65063 0.59664 0.27567 0.0
H428 H 0.7089 0.55719 0.15593 0.0
H429 H 0.66927 0.49587 0.16218 0.0
H430 H 0.72993 0.55041 0.12634 0.0
H431 H 0.69101 0.49009 0.13248 0.0
H432 H 0.72011 0.59038 0.14308 0.0
H433 H 0.69848 0.60062 0.21734 0.0
H434 H 0.74995 0.62232 0.14843 0.0
H435 H 0.72859 0.63242 0.22123 0.0
H436 H 0.6889 0.58226 0.07014 0.0
H437 H 0.65604 0.51968 0.06957 0.0
H438 H 0.72828 0.52626 0.23605 0.0
H439 H 0.76018 0.58872 0.23091 0.0
Li440 Li 0.12693 0.67134 0.1592 0.0
Li441 Li 0.14136 0.68929 0.20132 0.0
Li442 Li 0.12904 0.6531 0.19878 0.0
Li443 Li 0.10687 0.66595 0.20112 0.0
C444 C 0.16566 0.67574 0.16449 0.0
N445 N 0.19665 0.67775 0.13647 0.0
C446 C 0.18222 0.69368 0.15962 0.0
C447 C 0.16503 0.6588 0.15548 0.0
C448 C 0.19768 0.6944 0.14531 0.0
C449 C 0.18079 0.66012 0.14126 0.0
C450 C 0.1262 0.70873 0.17551 0.0
C451 C 0.1296 0.73841 0.19346 0.0
N452 N 0.13763 0.74748 0.16971 0.0
C453 C 0.13432 0.71828 0.15119 0.0
C454 C 0.12365 0.7188 0.19674 0.0
C455 C 0.14006 0.7379 0.14869 0.0
C456 C 0.10989 0.66411 0.10733 0.0
N457 N 0.12722 0.67262 0.12046 0.0
C458 C 0.14427 0.68181 0.07837 0.0
C459 C 0.14423 0.68165 0.10659 0.0
C460 C 0.12662 0.67281 0.0643 0.0
C461 C 0.10925 0.6641 0.07908 0.0
H462 H 0.09656 0.65716 0.11883 0.0
H463 H 0.15781 0.68879 0.11732 0.0
C464 C 0.16668 0.71372 0.24206 0.0
N465 N 0.16189 0.71315 0.21556 0.0
C466 C 0.18259 0.73025 0.25282 0.0
C467 C 0.18815 0.74549 0.20899 0.0
C468 C 0.17222 0.72863 0.19904 0.0
C469 C 0.19369 0.7463 0.23609 0.0
H470 H 0.1584 0.70117 0.25473 0.0
H471 H 0.1685 0.7277 0.17791 0.0
C472 C 0.0991 0.62955 0.16132 0.0
N473 N 0.08446 0.5952 0.13286 0.0
C474 C 0.08016 0.61454 0.16598 0.0
C475 C 0.11048 0.62717 0.14191 0.0
C476 C 0.07306 0.59725 0.15148 0.0
C477 C 0.10285 0.60969 0.12779 0.0
C478 C 0.11711 0.66606 0.25228 0.0
C479 C 0.10953 0.64842 0.26603 0.0
C480 C 0.11469 0.68094 0.26298 0.0
C481 C 0.0993 0.64584 0.29005 0.0
C482 C 0.10436 0.67779 0.28704 0.0
N483 N 0.09692 0.66045 0.29995 0.0
C484 C 0.15022 0.63515 0.21729 0.0
C485 C 0.11613 0.61474 0.21466 0.0
C486 C 0.15228 0.61988 0.22741 0.0
N487 N 0.13234 0.63227 0.21101 0.0
C488 C 0.11752 0.59911 0.2246 0.0
C489 C 0.13575 0.6016 0.23124 0.0
H490 H 0.16285 0.64934 0.21464 0.0
H491 H 0.10205 0.613 0.21045 0.0
C492 C 0.07377 0.67021 0.21449 0.0
N493 N 0.08182 0.65864 0.21523 0.0
C494 C 0.05534 0.66373 0.22559 0.0
C495 C 0.05404 0.63376 0.23801 0.0
C496 C 0.07228 0.64068 0.22645 0.0
C497 C 0.04539 0.64536 0.23779 0.0
H498 H 0.08162 0.68439 0.20527 0.0
H499 H 0.07894 0.63173 0.22648 0.0
O500 O 0.15041 0.6748 0.17858 0.0
O501 O 0.12052 0.68955 0.17833 0.0
O502 O 0.10626 0.64656 0.17542 0.0
O503 O 0.12673 0.66869 0.22837 0.0
H504 H 0.18307 0.70693 0.16659 0.0
H505 H 0.15262 0.64474 0.15965 0.0
H506 H 0.21051 0.7082 0.14124 0.0
H507 H 0.18045 0.64712 0.13413 0.0
H508 H 0.12782 0.74642 0.20979 0.0
H509 H 0.13629 0.71068 0.13449 0.0
H510 H 0.11718 0.71157 0.21557 0.0
H511 H 0.14648 0.74551 0.13004 0.0
H512 H 0.15795 0.68903 0.06764 0.0
H513 H 0.09536 0.65706 0.06888 0.0
H514 H 0.18628 0.73042 0.27392 0.0
H515 H 0.19646 0.75752 0.19541 0.0
H516 H 0.07105 0.61618 0.1807 0.0
H517 H 0.12493 0.63877 0.13751 0.0
H518 H 0.05847 0.58548 0.15501 0.0
H519 H 0.11152 0.60768 0.11272 0.0
H520 H 0.11135 0.63678 0.25809 0.0
H521 H 0.12064 0.69473 0.25273 0.0
H522 H 0.09321 0.63222 0.3008 0.0
H523 H 0.10225 0.68914 0.29545 0.0
H524 H 0.16661 0.62232 0.23212 0.0
H525 H 0.10441 0.58531 0.22766 0.0
H526 H 0.04901 0.673 0.2249 0.0
H527 H 0.04664 0.61936 0.2467 0.0
Li528 Li 0.86764 0.55174 0.30756 0.0
Li529 Li 0.88326 0.54852 0.35047 0.0
Li530 Li 0.90308 0.56377 0.30715 0.0
Li531 Li 0.87964 0.52996 0.31026 0.0
C532 C 0.88733 0.58817 0.3394 0.0
N533 N 0.88509 0.61964 0.35829 0.0
C534 C 0.87544 0.58609 0.36139 0.0
C535 C 0.89834 0.60634 0.32729 0.0
C536 C 0.87442 0.60214 0.37056 0.0
C537 C 0.89694 0.62205 0.33705 0.0
C538 C 0.84574 0.51035 0.33241 0.0
C539 C 0.83228 0.47858 0.35227 0.0
N540 N 0.82028 0.4709 0.33062 0.0
C541 C 0.83321 0.50219 0.31043 0.0
C542 C 0.84526 0.4985 0.35357 0.0
C543 C 0.82047 0.4822 0.30987 0.0
C544 C 0.83999 0.5492 0.26896 0.0
N545 N 0.84669 0.55503 0.29453 0.0
C546 C 0.82175 0.56282 0.3028 0.0
C547 C 0.8378 0.56159 0.31151 0.0
C548 C 0.81469 0.55708 0.27644 0.0
C549 C 0.82411 0.55035 0.25936 0.0
H550 H 0.84665 0.54322 0.25613 0.0
H551 H 0.84284 0.56544 0.33202 0.0
C552 C 0.90043 0.55724 0.40262 0.0
N553 N 0.88336 0.54929 0.38892 0.0
C554 C 0.90054 0.55735 0.43089 0.0
C555 C 0.86554 0.54134 0.43033 0.0
C556 C 0.86611 0.54147 0.40212 0.0
C557 C 0.88291 0.54916 0.44511 0.0
H558 H 0.91394 0.56334 0.39156 0.0
H559 H 0.85276 0.53536 0.39067 0.0
C560 C 0.88582 0.55875 0.25737 0.0
N561 N 0.89128 0.58173 0.21265 0.0
C562 C 0.88663 0.5521 0.23152 0.0
C563 C 0.8878 0.57709 0.26044 0.0
C564 C 0.8894 0.56394 0.20917 0.0
C565 C 0.89054 0.58848 0.23761 0.0
C566 C 0.9138 0.5355 0.33157 0.0
C567 C 0.92141 0.53385 0.30692 0.0
C568 C 0.91684 0.52753 0.35493 0.0
C569 C 0.93185 0.52405 0.30602 0.0
C570 C 0.92738 0.51787 0.35318 0.0
N571 N 0.93459 0.51633 0.32897 0.0
C572 C 0.94052 0.59749 0.3105 0.0
C573 C 0.93411 0.57956 0.26985 0.0
C574 C 0.95965 0.61005 0.30232 0.0
N575 N 0.92828 0.5825 0.29435 0.0
C576 C 0.953 0.59181 0.26082 0.0
C577 C 0.96613 0.60708 0.27732 0.0
H578 H 0.93557 0.59938 0.33002 0.0
H579 H 0.92433 0.56729 0.25765 0.0
C580 C 0.86985 0.50017 0.27222 0.0
N581 N 0.87491 0.50501 0.29851 0.0
C582 C 0.86756 0.48284 0.26185 0.0
C583 C 0.87533 0.47557 0.30596 0.0
C584 C 0.8772 0.49291 0.31557 0.0
C585 C 0.87063 0.47049 0.27873 0.0
H586 H 0.86788 0.50993 0.25919 0.0
H587 H 0.88081 0.49686 0.33653 0.0
O588 O 0.8888 0.5727 0.33043 0.0
O589 O 0.85866 0.5298 0.33296 0.0
O590 O 0.8833 0.54733 0.27942 0.0
O591 O 0.9033 0.54478 0.33283 0.0
H592 H 0.8669 0.57217 0.37109 0.0
H593 H 0.90794 0.60834 0.31058 0.0
H594 H 0.86515 0.60068 0.38743 0.0
H595 H 0.90532 0.63617 0.3278 0.0
H596 H 0.83181 0.4692 0.36841 0.0
H597 H 0.8335 0.51119 0.29384 0.0
H598 H 0.85498 0.5046 0.37062 0.0
H599 H 0.81077 0.47565 0.29291 0.0
H600 H 0.81487 0.56811 0.31657 0.0
H601 H 0.81889 0.54551 0.23902 0.0
H602 H 0.91424 0.5635 0.44153 0.0
H603 H 0.85167 0.5353 0.44047 0.0
H604 H 0.88524 0.538 0.22874 0.0
H605 H 0.88704 0.5824 0.28016 0.0
H606 H 0.89008 0.55898 0.18907 0.0
H607 H 0.89204 0.60268 0.23973 0.0
H608 H 0.91899 0.53975 0.28863 0.0
H609 H 0.91098 0.52867 0.37414 0.0
H610 H 0.93771 0.52253 0.28705 0.0
H611 H 0.92979 0.51156 0.37107 0.0
H612 H 0.96933 0.62176 0.31552 0.0
H613 H 0.95751 0.5889 0.24157 0.0
H614 H 0.86407 0.47945 0.24068 0.0
H615 H 0.8777 0.46631 0.31957 0.0
Li616 Li 0.33862 0.88411 0.35005 0.0
Li617 Li 0.32 0.86841 0.30695 0.0
Li618 Li 0.35677 0.88189 0.31044 0.0
Li619 Li 0.34289 0.90243 0.31027 0.0
C620 C 0.32867 0.84269 0.34224 0.0
N621 N 0.31507 0.80636 0.36459 0.0
C622 C 0.30887 0.83071 0.34727 0.0
C623 C 0.34153 0.83612 0.34844 0.0
C624 C 0.30228 0.81241 0.35861 0.0
C625 C 0.33438 0.81774 0.35979 0.0
C626 C 0.31249 0.90071 0.33107 0.0
C627 C 0.29455 0.91439 0.31062 0.0
N628 N 0.30183 0.92878 0.32942 0.0
C629 C 0.31973 0.91557 0.35027 0.0
C630 C 0.29976 0.90006 0.31111 0.0
C631 C 0.31419 0.92965 0.34906 0.0
C632 C 0.34795 0.90017 0.40279 0.0
N633 N 0.33715 0.88336 0.38893 0.0
C634 C 0.32515 0.86585 0.43036 0.0
C635 C 0.32566 0.86643 0.40213 0.0
C636 C 0.3365 0.88289 0.44517 0.0
C637 C 0.34784 0.90027 0.43105 0.0
H638 H 0.35679 0.91352 0.39189 0.0
H639 H 0.31683 0.85335 0.39087 0.0
C640 C 0.29848 0.83475 0.27605 0.0
N641 N 0.29682 0.84752 0.29248 0.0
C642 C 0.28191 0.81833 0.26647 0.0
C643 C 0.26223 0.82869 0.29046 0.0
C644 C 0.27919 0.84487 0.29973 0.0
C645 C 0.2635 0.81505 0.27393 0.0
H646 H 0.31272 0.8372 0.27079 0.0
H647 H 0.2783 0.85507 0.31322 0.0
C648 C 0.37867 0.90689 0.35084 0.0
N649 N 0.40884 0.91144 0.38351 0.0
C650 C 0.3952 0.92513 0.35389 0.0
C651 C 0.37756 0.89096 0.36437 0.0
C652 C 0.41029 0.92714 0.37049 0.0
C653 C 0.39292 0.89355 0.38082 0.0
C654 C 0.34558 0.89395 0.25749 0.0
C655 C 0.36447 0.90906 0.25285 0.0
C656 C 0.33141 0.889 0.23762 0.0
C657 C 0.36878 0.91922 0.22846 0.0
C658 C 0.33632 0.89948 0.21346 0.0
N659 N 0.35474 0.91427 0.20945 0.0
C660 C 0.37406 0.86054 0.29028 0.0
C661 C 0.3952 0.89437 0.29514 0.0
C662 C 0.38911 0.85832 0.27963 0.0
N663 N 0.37739 0.87837 0.29782 0.0
C664 C 0.4106 0.89283 0.28454 0.0
C665 C 0.40764 0.87464 0.27656 0.0
H666 H 0.35964 0.84812 0.29209 0.0
H667 H 0.39739 0.90843 0.3008 0.0
C668 C 0.36305 0.94316 0.30992 0.0
N669 N 0.34843 0.92755 0.29727 0.0
C670 C 0.36972 0.96183 0.29991 0.0
C671 C 0.3456 0.94817 0.26461 0.0
C672 C 0.33927 0.92976 0.27549 0.0
C673 C 0.36131 0.96443 0.27654 0.0
H674 H 0.36988 0.94108 0.32744 0.0
H675 H 0.32738 0.91721 0.26608 0.0
O676 O 0.33536 0.86051 0.33058 0.0
O677 O 0.3181 0.88707 0.33158 0.0
O678 O 0.36389 0.90475 0.33437 0.0
O679 O 0.34096 0.88401 0.28136 0.0
H680 H 0.29871 0.83559 0.34289 0.0
H681 H 0.35689 0.84511 0.34453 0.0
H682 H 0.28701 0.80304 0.36272 0.0
H683 H 0.34419 0.8125 0.36473 0.0
H684 H 0.28481 0.91415 0.29519 0.0
H685 H 0.32967 0.91632 0.36575 0.0
H686 H 0.29423 0.88879 0.2959 0.0
H687 H 0.31976 0.9413 0.36369 0.0
H688 H 0.31584 0.85224 0.44048 0.0
H689 H 0.35675 0.91373 0.44175 0.0
H690 H 0.28347 0.80826 0.25345 0.0
H691 H 0.24827 0.82659 0.29671 0.0
H692 H 0.39646 0.93762 0.34341 0.0
H693 H 0.36494 0.87678 0.36242 0.0
H694 H 0.42316 0.94117 0.37299 0.0
H695 H 0.39218 0.88134 0.39145 0.0
H696 H 0.37555 0.91312 0.26811 0.0
H697 H 0.31674 0.87729 0.24094 0.0
H698 H 0.38328 0.93109 0.22468 0.0
H699 H 0.32549 0.8959 0.19794 0.0
H700 H 0.38617 0.8441 0.27322 0.0
H701 H 0.42468 0.90576 0.2825 0.0
H702 H 0.38183 0.97402 0.30973 0.0
H703 H 0.33852 0.94966 0.24684 0.0
Li704 Li 0.44463 0.33972 0.3091 0.0
Li705 Li 0.47965 0.35139 0.30959 0.0
Li706 Li 0.45501 0.31675 0.30926 0.0
Li707 Li 0.45901 0.33395 0.35051 0.0
C708 C 0.4533 0.34002 0.25837 0.0
N709 N 0.43751 0.34804 0.2139 0.0
C710 C 0.46356 0.35791 0.24532 0.0
C711 C 0.43514 0.3261 0.24857 0.0
C712 C 0.4553 0.36172 0.22292 0.0
C713 C 0.42736 0.33046 0.22613 0.0
C714 C 0.47458 0.37381 0.35129 0.0
C715 C 0.50239 0.39237 0.37983 0.0
N716 N 0.4945 0.40316 0.3883 0.0
C717 C 0.46672 0.38505 0.36027 0.0
C718 C 0.49255 0.37746 0.36113 0.0
C719 C 0.47703 0.39984 0.37898 0.0
C720 C 0.40789 0.33631 0.29451 0.0
N721 N 0.4274 0.34816 0.29643 0.0
C722 C 0.425 0.37482 0.27893 0.0
C723 C 0.43603 0.3671 0.28906 0.0
C724 C 0.40481 0.363 0.27652 0.0
C725 C 0.39623 0.34349 0.28458 0.0
H726 H 0.40137 0.32133 0.30071 0.0
H727 H 0.45159 0.37618 0.29085 0.0
C728 C 0.51974 0.37061 0.29347 0.0
N729 N 0.50388 0.37246 0.29779 0.0
C730 C 0.53693 0.38632 0.2838 0.0
C731 C 0.52132 0.40566 0.28406 0.0
C732 C 0.50443 0.38958 0.2935 0.0
C733 C 0.53777 0.40407 0.2788 0.0
H734 H 0.51908 0.35697 0.29743 0.0
H735 H 0.4916 0.39066 0.29709 0.0
C736 C 0.42144 0.29698 0.33489 0.0
N737 N 0.39605 0.25765 0.34008 0.0
C738 C 0.42132 0.2873 0.35851 0.0
C739 C 0.40848 0.2867 0.31405 0.0
C740 C 0.4084 0.2674 0.36072 0.0
C741 C 0.39582 0.26681 0.31701 0.0
C742 C 0.48635 0.31819 0.33105 0.0
C743 C 0.48539 0.3071 0.3535 0.0
C744 C 0.49427 0.31623 0.30685 0.0
C745 C 0.49238 0.2942 0.35136 0.0
C746 C 0.50106 0.30312 0.30551 0.0
N747 N 0.49999 0.29248 0.3276 0.0
C748 C 0.45069 0.28991 0.26807 0.0
C749 C 0.44793 0.27776 0.31249 0.0
C750 C 0.44907 0.27295 0.25724 0.0
N751 N 0.45019 0.29206 0.29527 0.0
C752 C 0.44642 0.26065 0.30257 0.0
C753 C 0.44704 0.25808 0.27458 0.0
H754 H 0.45286 0.30157 0.25474 0.0
H755 H 0.44804 0.2799 0.33404 0.0
C756 C 0.44267 0.33133 0.40208 0.0
N757 N 0.45893 0.33423 0.38903 0.0
C758 C 0.44218 0.33163 0.43031 0.0
C759 C 0.47523 0.33807 0.43112 0.0
C760 C 0.47509 0.33767 0.40288 0.0
C761 C 0.45864 0.3351 0.44517 0.0
H762 H 0.43006 0.3287 0.39052 0.0
H763 H 0.48792 0.34023 0.39197 0.0
O764 O 0.46087 0.33623 0.28084 0.0
O765 O 0.46454 0.35911 0.33329 0.0
O766 O 0.43403 0.31644 0.33233 0.0
O767 O 0.47933 0.33072 0.33264 0.0
H768 H 0.47767 0.3688 0.25247 0.0
H769 H 0.42705 0.31215 0.25833 0.0
H770 H 0.46303 0.37556 0.21273 0.0
H771 H 0.41325 0.31988 0.21849 0.0
H772 H 0.51629 0.39534 0.38767 0.0
H773 H 0.45279 0.38233 0.35287 0.0
H774 H 0.49876 0.36879 0.35454 0.0
H775 H 0.47113 0.40866 0.38613 0.0
H776 H 0.43222 0.3899 0.27283 0.0
H777 H 0.38068 0.33397 0.28362 0.0
H778 H 0.54945 0.38465 0.2804 0.0
H779 H 0.52141 0.41911 0.28039 0.0
H780 H 0.43129 0.29498 0.37481 0.0
H781 H 0.40827 0.29398 0.29573 0.0
H782 H 0.40825 0.2597 0.3788 0.0
H783 H 0.38581 0.25866 0.30096 0.0
H784 H 0.47907 0.30823 0.37227 0.0
H785 H 0.49473 0.32438 0.28911 0.0
H786 H 0.49166 0.28546 0.36853 0.0
H787 H 0.50706 0.30132 0.28685 0.0
H788 H 0.44966 0.27159 0.23554 0.0
H789 H 0.4455 0.24988 0.31675 0.0
H790 H 0.42901 0.32896 0.4404 0.0
H791 H 0.48824 0.34091 0.44186 0.0
Li792 Li 0.12833 0.47643 0.31247 0.0
Li793 Li 0.10515 0.44131 0.31015 0.0
Li794 Li 0.12548 0.45625 0.35249 0.0
Li795 Li 0.13982 0.45217 0.31107 0.0
C796 C 0.09565 0.46974 0.34466 0.0
N797 N 0.07588 0.48779 0.3631 0.0
C798 C 0.07846 0.46622 0.3321 0.0
C799 C 0.10252 0.48213 0.36699 0.0
C800 C 0.06876 0.47558 0.34159 0.0
C801 C 0.09239 0.49119 0.37591 0.0
C802 C 0.11821 0.45201 0.25804 0.0
C803 C 0.10491 0.42722 0.22368 0.0
N804 N 0.10283 0.43964 0.20702 0.0
C805 C 0.11608 0.46457 0.2405 0.0
C806 C 0.11271 0.43323 0.24951 0.0
C807 C 0.10823 0.45803 0.21481 0.0
C808 C 0.14974 0.51664 0.29756 0.0
N809 N 0.13191 0.50048 0.29914 0.0
C810 C 0.11724 0.51719 0.2788 0.0
C811 C 0.11586 0.50043 0.28974 0.0
C812 C 0.13537 0.53419 0.27724 0.0
C813 C 0.1518 0.5338 0.28672 0.0
H814 H 0.16239 0.51616 0.30435 0.0
H815 H 0.10202 0.48721 0.29014 0.0
C816 C 0.06944 0.40506 0.30599 0.0
N817 N 0.07995 0.42346 0.29631 0.0
C818 C 0.05064 0.3927 0.29636 0.0
C819 C 0.05411 0.41832 0.26664 0.0
C820 C 0.07258 0.43025 0.27719 0.0
C821 C 0.0429 0.39934 0.27632 0.0
H822 H 0.07553 0.4001 0.32148 0.0
H823 H 0.08092 0.44511 0.27049 0.0
C824 C 0.16193 0.4907 0.35036 0.0
N825 N 0.18696 0.52029 0.38425 0.0
C826 C 0.17983 0.49263 0.35729 0.0
C827 C 0.15693 0.50402 0.36032 0.0
C828 C 0.19223 0.50762 0.37456 0.0
C829 C 0.16973 0.51883 0.37751 0.0
C830 C 0.12414 0.41769 0.33538 0.0
C831 C 0.13565 0.41804 0.35691 0.0
C832 C 0.11828 0.40329 0.31565 0.0
C833 C 0.14145 0.40415 0.35805 0.0
C834 C 0.12438 0.38966 0.3175 0.0
N835 N 0.13577 0.39039 0.33847 0.0
C836 C 0.10829 0.44901 0.40436 0.0
C837 C 0.14201 0.46027 0.40506 0.0
C838 C 0.10754 0.44816 0.43258 0.0
N839 N 0.12539 0.45519 0.39121 0.0
C840 C 0.14193 0.45966 0.43329 0.0
C841 C 0.12452 0.45351 0.44742 0.0
H842 H 0.09523 0.44483 0.39289 0.0
H843 H 0.15532 0.46461 0.39422 0.0
C844 C 0.16205 0.44642 0.27077 0.0
N845 N 0.15999 0.44786 0.29781 0.0
C846 C 0.17742 0.44451 0.2608 0.0
C847 C 0.18838 0.44569 0.30664 0.0
C848 C 0.17275 0.44749 0.31573 0.0
C849 C 0.19088 0.44421 0.27883 0.0
H850 H 0.15209 0.44726 0.25683 0.0
H851 H 0.17098 0.44894 0.3371 0.0
O852 O 0.10527 0.46057 0.33568 0.0
O853 O 0.12552 0.45806 0.28346 0.0
O854 O 0.14956 0.47601 0.3336 0.0
O855 O 0.11855 0.43133 0.33373 0.0
H856 H 0.07273 0.45646 0.31508 0.0
H857 H 0.11538 0.48454 0.37761 0.0
H858 H 0.05555 0.47311 0.33188 0.0
H859 H 0.09761 0.50086 0.39312 0.0
H860 H 0.10049 0.41269 0.21689 0.0
H861 H 0.1204 0.4792 0.24665 0.0
H862 H 0.11437 0.42338 0.26275 0.0
H863 H 0.10643 0.46757 0.20107 0.0
H864 H 0.10424 0.51685 0.27159 0.0
H865 H 0.16611 0.54647 0.28524 0.0
H866 H 0.04224 0.37817 0.30444 0.0
H867 H 0.04841 0.42403 0.25161 0.0
H868 H 0.18407 0.48261 0.34954 0.0
H869 H 0.14346 0.50315 0.35451 0.0
H870 H 0.20606 0.50919 0.38023 0.0
H871 H 0.16601 0.52922 0.38537 0.0
H872 H 0.14024 0.42904 0.37241 0.0
H873 H 0.10905 0.40258 0.29915 0.0
H874 H 0.15051 0.40435 0.37449 0.0
H875 H 0.12003 0.37848 0.3023 0.0
H876 H 0.09387 0.44361 0.44269 0.0
H877 H 0.1553 0.46371 0.44397 0.0
H878 H 0.17911 0.44389 0.23916 0.0
H879 H 0.19851 0.44559 0.32117 0.0
Li880 Li 0.67006 0.12212 0.35066 0.0
Li881 Li 0.68894 0.14008 0.30753 0.0
Li882 Li 0.65369 0.12682 0.31188 0.0
Li883 Li 0.66592 0.10533 0.30728 0.0
C884 C 0.66611 0.15782 0.34117 0.0
N885 N 0.64739 0.17828 0.35257 0.0
C886 C 0.66942 0.17363 0.32516 0.0
C887 C 0.65332 0.15243 0.36302 0.0
C888 C 0.6598 0.18378 0.33123 0.0
C889 C 0.644 0.16296 0.36846 0.0
C890 C 0.69641 0.10649 0.32706 0.0
C891 C 0.71351 0.09344 0.30267 0.0
N892 N 0.7073 0.07881 0.321 0.0
C893 C 0.69024 0.09138 0.34572 0.0
C894 C 0.70816 0.10759 0.30538 0.0
C895 C 0.6959 0.0775 0.34228 0.0
C896 C 0.65981 0.10435 0.40232 0.0
N897 N 0.67139 0.12118 0.389 0.0
C898 C 0.68445 0.13774 0.43075 0.0
C899 C 0.68363 0.1377 0.40253 0.0
C900 C 0.67256 0.12061 0.44516 0.0
C901 C 0.6601 0.10375 0.43056 0.0
H902 H 0.6502 0.09144 0.39101 0.0
H903 H 0.69264 0.15089 0.39137 0.0
C904 C 0.71096 0.17424 0.27793 0.0
N905 N 0.71241 0.16129 0.29424 0.0
C906 C 0.72764 0.19048 0.26824 0.0
C907 C 0.74702 0.17944 0.29156 0.0
C908 C 0.72994 0.1635 0.3011 0.0
C909 C 0.74594 0.19328 0.27523 0.0
H910 H 0.69682 0.17194 0.27251 0.0
H911 H 0.73065 0.15298 0.31414 0.0
C912 C 0.62641 0.09091 0.33114 0.0
N913 N 0.58678 0.06686 0.32691 0.0
C914 C 0.61802 0.0831 0.30612 0.0
C915 C 0.61468 0.08641 0.35407 0.0
C916 C 0.59795 0.07099 0.30438 0.0
C917 C 0.59467 0.07424 0.3515 0.0
C918 C 0.66913 0.12064 0.25495 0.0
C919 C 0.65199 0.11014 0.2402 0.0
C920 C 0.68698 0.12667 0.2424 0.0
C921 C 0.65298 0.10544 0.21327 0.0
C922 C 0.68735 0.12171 0.21541 0.0
N923 N 0.67048 0.11126 0.20154 0.0
C924 C 0.63541 0.14008 0.27626 0.0
C925 C 0.61742 0.12632 0.31634 0.0
C926 C 0.62056 0.14263 0.26579 0.0
N927 N 0.63344 0.13169 0.30087 0.0
C928 C 0.60206 0.12827 0.30645 0.0
C929 C 0.6035 0.13632 0.28077 0.0
H930 H 0.6484 0.14444 0.2645 0.0
H931 H 0.61639 0.12023 0.33616 0.0
C932 C 0.64751 0.06449 0.30728 0.0
N933 N 0.66013 0.08037 0.29281 0.0
C934 C 0.64089 0.04587 0.29709 0.0
C935 C 0.66136 0.06008 0.25805 0.0
C936 C 0.66759 0.07844 0.26903 0.0
C937 C 0.64743 0.04352 0.2718 0.0
H938 H 0.64221 0.06627 0.32655 0.0
H939 H 0.67828 0.09108 0.25839 0.0
O940 O 0.67487 0.14729 0.33505 0.0
O941 O 0.69049 0.11981 0.32958 0.0
O942 O 0.64601 0.10295 0.33325 0.0
O943 O 0.66848 0.12557 0.28125 0.0
H944 H 0.67918 0.17792 0.30809 0.0
H945 H 0.65038 0.14006 0.3754 0.0
H946 H 0.66216 0.196 0.31894 0.0
H947 H 0.63399 0.1589 0.38521 0.0
H948 H 0.72251 0.09404 0.28591 0.0
H949 H 0.68102 0.09027 0.36249 0.0
H950 H 0.71287 0.1191 0.29062 0.0
H951 H 0.69116 0.06566 0.35647 0.0
H952 H 0.69431 0.15103 0.44119 0.0
H953 H 0.65038 0.09034 0.44084 0.0
H954 H 0.72628 0.20072 0.25535 0.0
H955 H 0.76091 0.18116 0.29733 0.0
H956 H 0.62692 0.08633 0.28827 0.0
H957 H 0.62094 0.09243 0.37357 0.0
H958 H 0.59126 0.06488 0.28512 0.0
H959 H 0.58539 0.07071 0.36903 0.0
H960 H 0.63808 0.10578 0.24937 0.0
H961 H 0.70039 0.13484 0.25344 0.0
H962 H 0.63982 0.09724 0.20166 0.0
H963 H 0.70105 0.12614 0.2055 0.0
H964 H 0.62208 0.14882 0.24584 0.0
H965 H 0.58912 0.12339 0.31859 0.0
H966 H 0.63027 0.03347 0.30846 0.0
H967 H 0.66724 0.05886 0.23889 0.0
Li968 Li 0.55078 0.68789 0.31054 0.0
Li969 Li 0.54744 0.67111 0.35142 0.0
Li970 Li 0.56126 0.66478 0.31042 0.0
Li971 Li 0.52576 0.65332 0.31178 0.0
C972 C 0.58552 0.70765 0.33331 0.0
N973 N 0.61258 0.74673 0.3343 0.0
C974 C 0.58784 0.71857 0.35656 0.0
C975 C 0.5971 0.71653 0.31069 0.0
C976 C 0.60158 0.73833 0.35663 0.0
C977 C 0.61064 0.73633 0.31154 0.0
C978 C 0.52083 0.68769 0.3351 0.0
C979 C 0.50453 0.7029 0.31403 0.0
N980 N 0.50902 0.71493 0.33567 0.0
C981 C 0.52523 0.70015 0.35719 0.0
C982 C 0.51031 0.68899 0.31341 0.0
C983 C 0.51913 0.71382 0.35709 0.0
C984 C 0.55278 0.7133 0.26881 0.0
N985 N 0.55526 0.71226 0.29584 0.0
C986 C 0.56095 0.7445 0.30197 0.0
C987 C 0.5594 0.7275 0.31238 0.0
C988 C 0.55833 0.74591 0.2742 0.0
C989 C 0.55432 0.73009 0.2575 0.0
H990 H 0.54911 0.7009 0.2561 0.0
H991 H 0.56099 0.72631 0.33384 0.0
C992 C 0.565 0.67532 0.40259 0.0
N993 N 0.54835 0.67172 0.39001 0.0
C994 C 0.56589 0.67515 0.43078 0.0
C995 C 0.53254 0.66772 0.43255 0.0
C996 C 0.53224 0.66789 0.40432 0.0
C997 C 0.54948 0.67124 0.4461 0.0
H998 H 0.57755 0.67821 0.39068 0.0
H999 H 0.51911 0.6648 0.39376 0.0
C1000 C 0.55021 0.66287 0.25965 0.0
N1001 N 0.56211 0.65217 0.21358 0.0
C1002 C 0.53898 0.64423 0.24902 0.0
C1003 C 0.56739 0.67613 0.24672 0.0
C1004 C 0.54526 0.63909 0.22573 0.0
C1005 C 0.57319 0.67042 0.22349 0.0
C1006 C 0.54251 0.63608 0.35699 0.0
C1007 C 0.56004 0.63696 0.36322 0.0
C1008 C 0.52672 0.62652 0.3745 0.0
C1009 C 0.56148 0.62818 0.38688 0.0
C1010 C 0.52876 0.61797 0.398 0.0
N1011 N 0.54594 0.61897 0.40364 0.0
C1012 C 0.59791 0.66781 0.29612 0.0
C1013 C 0.56942 0.63755 0.28887 0.0
C1014 C 0.60943 0.6603 0.28678 0.0
N1015 N 0.57829 0.65634 0.29704 0.0
C1016 C 0.58031 0.62955 0.27918 0.0
C1017 C 0.60062 0.64083 0.27849 0.0
H1018 H 0.60461 0.68267 0.30294 0.0
H1019 H 0.55381 0.62875 0.28999 0.0
C1020 C 0.49187 0.6363 0.27927 0.0
N1021 N 0.50133 0.63295 0.29957 0.0
C1022 C 0.47498 0.621 0.26821 0.0
C1023 C 0.47784 0.59915 0.29927 0.0
C1024 C 0.49466 0.61485 0.30969 0.0
C1025 C 0.46793 0.60209 0.27798 0.0
H1026 H 0.49776 0.65075 0.2711 0.0
H1027 H 0.50273 0.61248 0.32528 0.0
O1028 O 0.57214 0.6883 0.33286 0.0
O1029 O 0.5269 0.67439 0.33466 0.0
O1030 O 0.54453 0.66807 0.28276 0.0
O1031 O 0.54104 0.64523 0.33447 0.0
H1032 H 0.57897 0.71194 0.37423 0.0
H1033 H 0.59556 0.70826 0.29262 0.0
H1034 H 0.60345 0.747 0.37441 0.0
H1035 H 0.61961 0.74342 0.29411 0.0
H1036 H 0.49653 0.70418 0.29726 0.0
H1037 H 0.53354 0.6995 0.37403 0.0
H1038 H 0.5069 0.67957 0.29609 0.0
H1039 H 0.52254 0.72364 0.37397 0.0
H1040 H 0.56401 0.75637 0.31552 0.0
H1041 H 0.55181 0.73047 0.23605 0.0
H1042 H 0.5793 0.67819 0.44051 0.0
H1043 H 0.51957 0.66454 0.44369 0.0
H1044 H 0.52569 0.63374 0.25882 0.0
H1045 H 0.57619 0.69063 0.2546 0.0
H1046 H 0.53679 0.62467 0.21738 0.0
H1047 H 0.58652 0.6805 0.21336 0.0
H1048 H 0.57251 0.64454 0.35014 0.0
H1049 H 0.51316 0.62605 0.37029 0.0
H1050 H 0.57498 0.6288 0.39199 0.0
H1051 H 0.51671 0.61065 0.41183 0.0
H1052 H 0.62505 0.66947 0.28655 0.0
H1053 H 0.57287 0.61465 0.2723 0.0
H1054 H 0.46765 0.62389 0.25199 0.0
H1055 H 0.47298 0.58476 0.30716 0.0
Li1056 Li 0.56438 0.90092 0.8096 0.0
Li1057 Li 0.55054 0.88224 0.84963 0.0
Li1058 Li 0.55496 0.86727 0.80666 0.0
Li1059 Li 0.53062 0.87869 0.80926 0.0
C1060 C 0.59387 0.89915 0.83457 0.0
N1061 N 0.63307 0.92436 0.84122 0.0
C1062 C 0.60029 0.91534 0.85131 0.0
C1063 C 0.60734 0.89564 0.82141 0.0
C1064 C 0.62019 0.92797 0.85433 0.0
C1065 C 0.62711 0.90859 0.825 0.0
C1066 C 0.53163 0.90291 0.84973 0.0
C1067 C 0.5026 0.888 0.87692 0.0
N1068 N 0.50534 0.90584 0.883 0.0
C1069 C 0.53416 0.92109 0.85628 0.0
C1070 C 0.51572 0.8862 0.86017 0.0
C1071 C 0.52071 0.92227 0.87311 0.0
C1072 C 0.57513 0.93897 0.79699 0.0
N1073 N 0.58249 0.92682 0.79719 0.0
C1074 C 0.6125 0.95182 0.77886 0.0
C1075 C 0.60078 0.93283 0.78813 0.0
C1076 C 0.60533 0.96472 0.77896 0.0
C1077 C 0.58631 0.95802 0.78796 0.0
H1078 H 0.56038 0.93374 0.80345 0.0
H1079 H 0.60621 0.92285 0.78756 0.0
C1080 C 0.54569 0.86484 0.90144 0.0
N1081 N 0.55096 0.88171 0.88819 0.0
C1082 C 0.54543 0.86434 0.92971 0.0
C1083 C 0.55617 0.89859 0.93008 0.0
C1084 C 0.55636 0.89846 0.90187 0.0
C1085 C 0.55049 0.88133 0.94434 0.0
H1086 H 0.54161 0.85177 0.89004 0.0
H1087 H 0.56073 0.91173 0.89086 0.0
C1088 C 0.55841 0.89369 0.75835 0.0
N1089 N 0.57779 0.91776 0.71532 0.0
C1090 C 0.55065 0.90383 0.74531 0.0
C1091 C 0.57598 0.89571 0.74943 0.0
C1092 C 0.56069 0.91598 0.72363 0.0
C1093 C 0.58555 0.90794 0.72762 0.0
C1094 C 0.517 0.83927 0.8267 0.0
C1095 C 0.51381 0.8312 0.80082 0.0
C1096 C 0.50546 0.82813 0.84823 0.0
C1097 C 0.49912 0.81202 0.79695 0.0
C1098 C 0.49088 0.80903 0.84351 0.0
N1099 N 0.48805 0.80143 0.81819 0.0
C1100 C 0.55986 0.83465 0.81146 0.0
C1101 C 0.56006 0.84468 0.76633 0.0
C1102 C 0.56118 0.81871 0.80248 0.0
N1103 N 0.55926 0.84719 0.79339 0.0
C1104 C 0.56165 0.8291 0.75649 0.0
C1105 C 0.56212 0.81576 0.77462 0.0
H1106 H 0.55873 0.83675 0.83284 0.0
H1107 H 0.55893 0.85446 0.75232 0.0
C1108 C 0.50675 0.89218 0.79053 0.0
N1109 N 0.50624 0.87536 0.79712 0.0
C1110 C 0.49013 0.89199 0.78123 0.0
C1111 C 0.47257 0.85712 0.7856 0.0
C1112 C 0.48953 0.858 0.79507 0.0
C1113 C 0.47277 0.87429 0.77865 0.0
H1114 H 0.52017 0.9058 0.79245 0.0
H1115 H 0.48919 0.8448 0.80079 0.0
O1116 O 0.5745 0.88661 0.83133 0.0
O1117 O 0.54482 0.90165 0.83333 0.0
O1118 O 0.54901 0.88204 0.77998 0.0
O1119 O 0.53159 0.85785 0.83115 0.0
H1120 H 0.59001 0.91822 0.8616 0.0
H1121 H 0.60254 0.8831 0.80846 0.0
H1122 H 0.62539 0.94064 0.86707 0.0
H1123 H 0.63772 0.90613 0.81487 0.0
H1124 H 0.49023 0.87519 0.88511 0.0
H1125 H 0.54643 0.93418 0.84852 0.0
H1126 H 0.51346 0.87199 0.85547 0.0
H1127 H 0.5225 0.93626 0.87835 0.0
H1128 H 0.62702 0.95639 0.77175 0.0
H1129 H 0.58 0.9673 0.78756 0.0
H1130 H 0.54103 0.85078 0.94004 0.0
H1131 H 0.56055 0.91206 0.94065 0.0
H1132 H 0.53707 0.90242 0.75189 0.0
H1133 H 0.5824 0.88826 0.75961 0.0
H1134 H 0.5549 0.92399 0.71343 0.0
H1135 H 0.59923 0.90976 0.72064 0.0
H1136 H 0.52239 0.83972 0.78385 0.0
H1137 H 0.50774 0.83419 0.86838 0.0
H1138 H 0.49647 0.80559 0.77703 0.0
H1139 H 0.48182 0.80024 0.85999 0.0
H1140 H 0.56087 0.8085 0.81719 0.0
H1141 H 0.56228 0.82739 0.73487 0.0
H1142 H 0.4909 0.90552 0.77576 0.0
H1143 H 0.45938 0.84321 0.784 0.0
Li1144 Li 0.67063 0.54985 0.85338 0.0
Li1145 Li 0.66742 0.56539 0.81187 0.0
Li1146 Li 0.65416 0.52914 0.81355 0.0
Li1147 Li 0.68918 0.55207 0.81061 0.0
C1148 C 0.63142 0.54133 0.8517 0.0
N1149 N 0.60071 0.53305 0.8857 0.0
C1150 C 0.6258 0.55515 0.8562 0.0
C1151 C 0.62125 0.52321 0.86419 0.0
C1152 C 0.61029 0.55071 0.87355 0.0
C1153 C 0.60581 0.51933 0.88138 0.0
C1154 C 0.70013 0.59294 0.83718 0.0
C1155 C 0.71999 0.62515 0.81927 0.0
N1156 N 0.7181 0.6327 0.84296 0.0
C1157 C 0.69853 0.601 0.86145 0.0
C1158 C 0.71109 0.60508 0.816 0.0
C1159 C 0.70767 0.62115 0.86394 0.0
C1160 C 0.68242 0.54442 0.90501 0.0
N1161 N 0.6715 0.55071 0.89212 0.0
C1162 C 0.66178 0.55767 0.93446 0.0
C1163 C 0.6615 0.55753 0.90623 0.0
C1164 C 0.6728 0.55113 0.94827 0.0
C1165 C 0.68329 0.54451 0.93324 0.0
H1166 H 0.69039 0.53924 0.89333 0.0
H1167 H 0.65343 0.56304 0.89565 0.0
C1168 C 0.65424 0.58145 0.77259 0.0
N1169 N 0.66153 0.5843 0.79808 0.0
C1170 C 0.64731 0.59315 0.76227 0.0
C1171 C 0.65602 0.61094 0.80432 0.0
C1172 C 0.66267 0.5988 0.8139 0.0
C1173 C 0.64775 0.60786 0.77842 0.0
H1174 H 0.65309 0.56958 0.7606 0.0
H1175 H 0.66798 0.60047 0.83435 0.0
C1176 C 0.67059 0.51164 0.84404 0.0
N1177 N 0.66111 0.47475 0.86024 0.0
C1178 C 0.67905 0.50202 0.83134 0.0
C1179 C 0.65756 0.50262 0.86528 0.0
C1180 C 0.674 0.48334 0.83973 0.0
C1181 C 0.65289 0.48394 0.8731 0.0
C1182 C 0.67611 0.54952 0.75903 0.0
C1183 C 0.67045 0.53298 0.74326 0.0
C1184 C 0.6895 0.56773 0.7488 0.0
C1185 C 0.67859 0.53493 0.71764 0.0
C1186 C 0.69732 0.56907 0.72309 0.0
N1187 N 0.69177 0.55278 0.70818 0.0
C1188 C 0.61535 0.50286 0.80051 0.0
C1189 C 0.63656 0.49067 0.79207 0.0
C1190 C 0.59963 0.48584 0.79062 0.0
N1191 N 0.63334 0.5049 0.80127 0.0
C1192 C 0.62125 0.47341 0.78186 0.0
C1193 C 0.60252 0.47092 0.78095 0.0
H1194 H 0.61325 0.5146 0.80713 0.0
H1195 H 0.65107 0.49285 0.79207 0.0
C1196 C 0.73016 0.57016 0.80485 0.0
N1197 N 0.71289 0.5551 0.79651 0.0
C1198 C 0.74757 0.57213 0.79523 0.0
C1199 C 0.7291 0.54323 0.76838 0.0
C1200 C 0.71209 0.54168 0.77878 0.0
C1201 C 0.74712 0.55851 0.7768 0.0
H1202 H 0.73041 0.58052 0.81919 0.0
H1203 H 0.69822 0.52959 0.77296 0.0
O1204 O 0.64662 0.54548 0.83481 0.0
O1205 O 0.69127 0.57326 0.83437 0.0
O1206 O 0.67537 0.52994 0.83606 0.0
O1207 O 0.66844 0.54788 0.78427 0.0
H1208 H 0.63341 0.56919 0.84656 0.0
H1209 H 0.62507 0.51219 0.86041 0.0
H1210 H 0.60586 0.5613 0.87734 0.0
H1211 H 0.59783 0.50537 0.89121 0.0
H1212 H 0.72845 0.63472 0.80299 0.0
H1213 H 0.69024 0.59182 0.87812 0.0
H1214 H 0.71276 0.59908 0.79727 0.0
H1215 H 0.70646 0.62759 0.88255 0.0
H1216 H 0.65368 0.56308 0.9454 0.0
H1217 H 0.69185 0.53923 0.94322 0.0
H1218 H 0.64089 0.59017 0.7423 0.0
H1219 H 0.6569 0.6223 0.8173 0.0
H1220 H 0.68932 0.50886 0.81506 0.0
H1221 H 0.65126 0.51003 0.87579 0.0
H1222 H 0.68033 0.47567 0.82994 0.0
H1223 H 0.64279 0.47677 0.88947 0.0
H1224 H 0.66 0.51879 0.75081 0.0
H1225 H 0.69377 0.58067 0.76057 0.0
H1226 H 0.67445 0.52225 0.70528 0.0
H1227 H 0.70777 0.58307 0.71496 0.0
H1228 H 0.58545 0.48456 0.78992 0.0
H1229 H 0.62403 0.46219 0.7747 0.0
H1230 H 0.76123 0.58414 0.80208 0.0
H1231 H 0.72821 0.53235 0.75441 0.0
Li1232 Li 0.10331 0.66524 0.81046 0.0
Li1233 Li 0.12202 0.66953 0.85132 0.0
Li1234 Li 0.13854 0.68823 0.80852 0.0
Li1235 Li 0.12618 0.65309 0.81291 0.0
C1236 C 0.10765 0.69798 0.83633 0.0
N1237 N 0.08508 0.71475 0.84547 0.0
C1238 C 0.09025 0.68787 0.85058 0.0
C1239 C 0.11358 0.71661 0.82668 0.0
C1240 C 0.07903 0.69659 0.85499 0.0
C1241 C 0.10197 0.72485 0.83153 0.0
C1242 C 0.09168 0.63336 0.85522 0.0
C1243 C 0.0883 0.61328 0.89364 0.0
N1244 N 0.07018 0.61036 0.89801 0.0
C1245 C 0.07297 0.63009 0.86002 0.0
C1246 C 0.09937 0.62481 0.87207 0.0
C1247 C 0.06235 0.61843 0.88177 0.0
C1248 C 0.06727 0.63927 0.79019 0.0
N1249 N 0.07861 0.65853 0.79524 0.0
C1250 C 0.05425 0.66468 0.77747 0.0
C1251 C 0.07264 0.67132 0.78871 0.0
C1252 C 0.0421 0.64478 0.7726 0.0
C1253 C 0.04889 0.63205 0.77891 0.0
H1254 H 0.07253 0.62948 0.79505 0.0
H1255 H 0.08214 0.68665 0.79193 0.0
C1256 C 0.14013 0.67764 0.90253 0.0
N1257 N 0.12272 0.67119 0.89017 0.0
C1258 C 0.14149 0.67842 0.93073 0.0
C1259 C 0.10701 0.66614 0.93308 0.0
C1260 C 0.10637 0.66582 0.90487 0.0
C1261 C 0.12471 0.6723 0.94642 0.0
H1262 H 0.15302 0.68217 0.89048 0.0
H1263 H 0.0927 0.66099 0.89484 0.0
C1264 C 0.11868 0.67343 0.75886 0.0
N1265 N 0.11056 0.6856 0.71086 0.0
C1266 C 0.11548 0.66256 0.73532 0.0
C1267 C 0.11769 0.69045 0.75804 0.0
C1268 C 0.11142 0.66897 0.71123 0.0
C1269 C 0.11358 0.69637 0.73356 0.0
C1270 C 0.16104 0.66973 0.83513 0.0
C1271 C 0.17691 0.67875 0.81766 0.0
C1272 C 0.15965 0.65557 0.85312 0.0
C1273 C 0.19101 0.67322 0.81821 0.0
C1274 C 0.17404 0.65043 0.85303 0.0
N1275 N 0.18928 0.65928 0.83571 0.0
C1276 C 0.16727 0.72806 0.80976 0.0
C1277 C 0.16611 0.71184 0.76906 0.0
C1278 C 0.18311 0.74521 0.80021 0.0
N1279 N 0.15916 0.71184 0.79416 0.0
C1280 C 0.18179 0.72868 0.75864 0.0
C1281 C 0.19058 0.74568 0.77429 0.0
H1282 H 0.16166 0.72756 0.82983 0.0
H1283 H 0.15968 0.69865 0.75727 0.0
C1284 C 0.11703 0.61414 0.80854 0.0
N1285 N 0.1301 0.63253 0.80093 0.0
C1286 C 0.11864 0.59852 0.799 0.0
C1287 C 0.14708 0.62099 0.77378 0.0
C1288 C 0.14483 0.6362 0.78368 0.0
C1289 C 0.13387 0.60184 0.78148 0.0
H1290 H 0.10504 0.61151 0.82145 0.0
H1291 H 0.15467 0.6509 0.77726 0.0
O1292 O 0.11881 0.68969 0.83165 0.0
O1293 O 0.10234 0.64478 0.83405 0.0
O1294 O 0.12243 0.66723 0.78266 0.0
O1295 O 0.14696 0.67476 0.83465 0.0
H1296 H 0.08525 0.6733 0.85758 0.0
H1297 H 0.127 0.7246 0.81552 0.0
H1298 H 0.06546 0.68888 0.86585 0.0
H1299 H 0.10637 0.73925 0.82419 0.0
H1300 H 0.09412 0.60665 0.90691 0.0
H1301 H 0.06679 0.63664 0.84731 0.0
H1302 H 0.11376 0.6271 0.86858 0.0
H1303 H 0.0479 0.61586 0.8858 0.0
H1304 H 0.04969 0.675 0.77229 0.0
H1305 H 0.03998 0.61661 0.77541 0.0
H1306 H 0.15555 0.68386 0.94011 0.0
H1307 H 0.09371 0.6613 0.94434 0.0
H1308 H 0.11612 0.6493 0.7357 0.0
H1309 H 0.12003 0.69898 0.77611 0.0
H1310 H 0.10893 0.66071 0.69283 0.0
H1311 H 0.11277 0.70951 0.73264 0.0
H1312 H 0.17824 0.68978 0.80368 0.0
H1313 H 0.14758 0.64861 0.86698 0.0
H1314 H 0.20331 0.67999 0.80469 0.0
H1315 H 0.1731 0.63942 0.86675 0.0
H1316 H 0.18976 0.75779 0.81329 0.0
H1317 H 0.18708 0.72837 0.73859 0.0
H1318 H 0.10774 0.58395 0.80471 0.0
H1319 H 0.15893 0.62416 0.76013 0.0
Li1320 Li 0.44475 0.10463 0.80849 0.0
Li1321 Li 0.45968 0.12388 0.8504 0.0
Li1322 Li 0.45768 0.13978 0.80788 0.0
Li1323 Li 0.47874 0.12663 0.81084 0.0
C1324 C 0.41967 0.10923 0.84571 0.0
N1325 N 0.38726 0.08768 0.87734 0.0
C1326 C 0.41677 0.09224 0.85815 0.0
C1327 C 0.40612 0.11528 0.84935 0.0
C1328 C 0.40029 0.08155 0.87408 0.0
C1329 C 0.3898 0.10417 0.86539 0.0
C1330 C 0.47728 0.09886 0.84029 0.0
C1331 C 0.50563 0.10514 0.86584 0.0
N1332 N 0.50658 0.09098 0.85177 0.0
C1333 C 0.47848 0.08429 0.82619 0.0
C1334 C 0.49093 0.10935 0.86032 0.0
C1335 C 0.49343 0.08056 0.83225 0.0
C1336 C 0.43507 0.07216 0.77841 0.0
N1337 N 0.42648 0.07998 0.79355 0.0
C1338 C 0.39545 0.05155 0.78734 0.0
C1339 C 0.40694 0.07038 0.79744 0.0
C1340 C 0.40421 0.04272 0.77304 0.0
C1341 C 0.42419 0.0535 0.76791 0.0
H1342 H 0.45052 0.08039 0.77484 0.0
H1343 H 0.40026 0.0771 0.80869 0.0
C1344 C 0.46256 0.14038 0.90238 0.0
N1345 N 0.45853 0.12387 0.88899 0.0
C1346 C 0.46193 0.14054 0.93064 0.0
C1347 C 0.45288 0.10671 0.93072 0.0
C1348 C 0.45384 0.10724 0.90253 0.0
C1349 C 0.4569 0.12349 0.94512 0.0
H1350 H 0.46631 0.15342 0.89109 0.0
H1351 H 0.45095 0.09438 0.89142 0.0
C1352 C 0.45016 0.12138 0.75841 0.0
N1353 N 0.42774 0.11712 0.71349 0.0
C1354 C 0.4575 0.12222 0.73249 0.0
C1355 C 0.43138 0.11833 0.76149 0.0
C1356 C 0.44596 0.12005 0.71003 0.0
C1357 C 0.42029 0.11622 0.73853 0.0
C1358 C 0.49711 0.16445 0.83004 0.0
C1359 C 0.50367 0.17212 0.80429 0.0
C1360 C 0.50861 0.17363 0.85263 0.0
C1361 C 0.52167 0.18898 0.80155 0.0
C1362 C 0.52652 0.19046 0.84905 0.0
N1363 N 0.53263 0.19772 0.8238 0.0
C1364 C 0.4467 0.16867 0.80996 0.0
C1365 C 0.46174 0.16787 0.76903 0.0
C1366 C 0.44507 0.18437 0.80059 0.0
N1367 N 0.45492 0.16077 0.79414 0.0
C1368 C 0.46025 0.1834 0.7588 0.0
C1369 C 0.4518 0.19183 0.77463 0.0
H1370 H 0.44156 0.16285 0.82995 0.0
H1371 H 0.46857 0.16165 0.75699 0.0
C1372 C 0.5015 0.11975 0.77515 0.0
N1373 N 0.50272 0.12938 0.7984 0.0
C1374 C 0.51784 0.11991 0.7647 0.0
C1375 C 0.53654 0.1401 0.80215 0.0
C1376 C 0.51977 0.13945 0.81201 0.0
C1377 C 0.5356 0.13007 0.77836 0.0
H1378 H 0.48772 0.1117 0.76492 0.0
H1379 H 0.52032 0.14666 0.83074 0.0
O1380 O 0.43586 0.12017 0.83044 0.0
O1381 O 0.46317 0.10324 0.83404 0.0
O1382 O 0.4614 0.12349 0.78049 0.0
O1383 O 0.47975 0.14775 0.83318 0.0
H1384 H 0.42702 0.08726 0.85533 0.0
H1385 H 0.4082 0.12845 0.83989 0.0
H1386 H 0.39785 0.06835 0.8838 0.0
H1387 H 0.37918 0.10867 0.86838 0.0
H1388 H 0.51636 0.11323 0.88116 0.0
H1389 H 0.46806 0.07601 0.81066 0.0
H1390 H 0.49042 0.12089 0.87113 0.0
H1391 H 0.4946 0.06941 0.82139 0.0
H1392 H 0.38002 0.04378 0.79137 0.0
H1393 H 0.43139 0.04746 0.75618 0.0
H1394 H 0.46516 0.15377 0.94107 0.0
H1395 H 0.44931 0.09339 0.94118 0.0
H1396 H 0.47201 0.12458 0.72976 0.0
H1397 H 0.42538 0.1176 0.78131 0.0
H1398 H 0.45147 0.1207 0.68986 0.0
H1399 H 0.40575 0.11387 0.74062 0.0
H1400 H 0.49512 0.16494 0.78658 0.0
H1401 H 0.50377 0.16774 0.87268 0.0
H1402 H 0.52698 0.19504 0.78173 0.0
H1403 H 0.5356 0.19771 0.86633 0.0
H1404 H 0.43855 0.19057 0.81342 0.0
H1405 H 0.466 0.18902 0.73892 0.0
H1406 H 0.51662 0.11219 0.74612 0.0
H1407 H 0.54999 0.14799 0.81329 0.0
Li1408 Li 0.33792 0.45628 0.85089 0.0
Li1409 Li 0.34268 0.4409 0.81037 0.0
Li1410 Li 0.35361 0.47493 0.81082 0.0
Li1411 Li 0.31977 0.45264 0.80911 0.0
C1412 C 0.38074 0.47518 0.84077 0.0
N1413 N 0.41758 0.5053 0.85201 0.0
C1414 C 0.39689 0.47567 0.82887 0.0
C1415 C 0.38334 0.48996 0.85849 0.0
C1416 C 0.41539 0.49104 0.83477 0.0
C1417 C 0.40208 0.50506 0.86391 0.0
C1418 C 0.31478 0.41616 0.84842 0.0
C1419 C 0.29238 0.38561 0.86912 0.0
N1420 N 0.3075 0.3851 0.88104 0.0
C1421 C 0.3301 0.41534 0.8609 0.0
C1422 C 0.29576 0.4012 0.85258 0.0
C1423 C 0.32612 0.39951 0.87731 0.0
C1424 C 0.32173 0.45493 0.90267 0.0
N1425 N 0.33704 0.45559 0.88953 0.0
C1426 C 0.35143 0.45468 0.93152 0.0
C1427 C 0.35169 0.45537 0.90333 0.0
C1428 C 0.33573 0.45378 0.94574 0.0
C1429 C 0.32077 0.45401 0.93092 0.0
H1430 H 0.31021 0.455 0.89117 0.0
H1431 H 0.36361 0.45571 0.89245 0.0
C1432 C 0.36625 0.43088 0.78226 0.0
N1433 N 0.34939 0.42262 0.79643 0.0
C1434 C 0.37335 0.41948 0.77144 0.0
C1435 C 0.34514 0.39105 0.78893 0.0
C1436 C 0.33856 0.40305 0.79943 0.0
C1437 C 0.3629 0.39931 0.77504 0.0
H1438 H 0.37421 0.44641 0.77939 0.0
H1439 H 0.32482 0.39669 0.80986 0.0
C1440 C 0.32936 0.4898 0.82436 0.0
N1441 N 0.32065 0.51752 0.80696 0.0
C1442 C 0.33134 0.49503 0.79708 0.0
C1443 C 0.32296 0.49867 0.84278 0.0
C1444 C 0.32686 0.50906 0.78868 0.0
C1445 C 0.31864 0.51267 0.8336 0.0
C1446 C 0.33105 0.44448 0.75987 0.0
C1447 C 0.33814 0.45101 0.73386 0.0
C1448 C 0.3153 0.42577 0.76348 0.0
C1449 C 0.32931 0.43874 0.71183 0.0
C1450 C 0.30689 0.41394 0.74093 0.0
N1451 N 0.314 0.42061 0.71579 0.0
C1452 C 0.38322 0.49799 0.77491 0.0
C1453 C 0.37945 0.51618 0.80992 0.0
C1454 C 0.39855 0.51477 0.76387 0.0
N1455 N 0.37403 0.49898 0.79747 0.0
C1456 C 0.39482 0.53334 0.79963 0.0
C1457 C 0.40447 0.53274 0.77622 0.0
H1458 H 0.37873 0.48407 0.76569 0.0
H1459 H 0.37198 0.51653 0.82797 0.0
C1460 C 0.28015 0.44296 0.81158 0.0
N1461 N 0.29581 0.44933 0.79505 0.0
C1462 C 0.26329 0.44253 0.80242 0.0
C1463 C 0.27882 0.4546 0.75924 0.0
C1464 C 0.29537 0.455 0.76926 0.0
C1465 C 0.26265 0.44878 0.77606 0.0
H1466 H 0.28096 0.43877 0.83212 0.0
H1467 H 0.30806 0.46043 0.7566 0.0
O1468 O 0.36244 0.46055 0.83472 0.0
O1469 O 0.3182 0.43161 0.83254 0.0
O1470 O 0.33338 0.4759 0.83311 0.0
O1471 O 0.33971 0.45638 0.78157 0.0
H1472 H 0.3952 0.46434 0.81524 0.0
H1473 H 0.37098 0.48994 0.86761 0.0
H1474 H 0.42802 0.49164 0.82564 0.0
H1475 H 0.40428 0.51665 0.87744 0.0
H1476 H 0.27773 0.37392 0.8725 0.0
H1477 H 0.34492 0.42672 0.85784 0.0
H1478 H 0.28374 0.40167 0.84313 0.0
H1479 H 0.33784 0.39869 0.88706 0.0
H1480 H 0.36351 0.45504 0.94206 0.0
H1481 H 0.30837 0.45327 0.94104 0.0
H1482 H 0.38704 0.42642 0.76074 0.0
H1483 H 0.33638 0.3755 0.79147 0.0
H1484 H 0.33623 0.48829 0.7825 0.0
H1485 H 0.3213 0.49474 0.86396 0.0
H1486 H 0.32829 0.51321 0.76763 0.0
H1487 H 0.31366 0.51965 0.84763 0.0
H1488 H 0.35033 0.46544 0.73074 0.0
H1489 H 0.30959 0.42041 0.7834 0.0
H1490 H 0.33463 0.44362 0.69158 0.0
H1491 H 0.29469 0.39945 0.74342 0.0
H1492 H 0.40593 0.51368 0.74615 0.0
H1493 H 0.39907 0.54695 0.80976 0.0
H1494 H 0.25113 0.43795 0.81605 0.0
H1495 H 0.27882 0.45912 0.73859 0.0
Li1496 Li 0.90338 0.34051 0.81229 0.0
Li1497 Li 0.88381 0.33629 0.8527 0.0
Li1498 Li 0.86782 0.31762 0.81042 0.0
Li1499 Li 0.87969 0.35271 0.8143 0.0
C1500 C 0.89385 0.3032 0.82987 0.0
N1501 N 0.90616 0.27673 0.82183 0.0
C1502 C 0.90332 0.29927 0.85058 0.0
C1503 C 0.89043 0.29349 0.8052 0.0
C1504 C 0.90949 0.28589 0.84609 0.0
C1505 C 0.89682 0.2802 0.80149 0.0
C1506 C 0.91447 0.37125 0.85721 0.0
C1507 C 0.91924 0.39126 0.89627 0.0
N1508 N 0.93595 0.39126 0.9019 0.0
C1509 C 0.93176 0.37155 0.86326 0.0
C1510 C 0.90821 0.38129 0.87369 0.0
C1511 C 0.9424 0.38173 0.88599 0.0
C1512 C 0.93522 0.36317 0.78087 0.0
N1513 N 0.92841 0.34784 0.79804 0.0
C1514 C 0.95838 0.34778 0.7952 0.0
C1515 C 0.93947 0.33993 0.80519 0.0
C1516 C 0.96593 0.36401 0.77809 0.0
C1517 C 0.95398 0.37147 0.77053 0.0
H1518 H 0.92613 0.36921 0.77566 0.0
H1519 H 0.93391 0.32796 0.81919 0.0
C1520 C 0.86917 0.33505 0.90549 0.0
N1521 N 0.88398 0.33537 0.89141 0.0
C1522 C 0.86936 0.33515 0.93373 0.0
C1523 C 0.89988 0.33557 0.93256 0.0
C1524 C 0.89909 0.33544 0.90433 0.0
C1525 C 0.88495 0.3356 0.94763 0.0
H1526 H 0.85723 0.3348 0.89482 0.0
H1527 H 0.91064 0.33558 0.89269 0.0
C1528 C 0.88363 0.33483 0.75798 0.0
N1529 N 0.88259 0.32749 0.70323 0.0
C1530 C 0.87345 0.34029 0.74044 0.0
C1531 C 0.89357 0.32594 0.74758 0.0
C1532 C 0.873 0.33635 0.71286 0.0
C1533 C 0.8928 0.32228 0.71987 0.0
C1534 C 0.84462 0.33572 0.83659 0.0
C1535 C 0.8273 0.32444 0.82254 0.0
C1536 C 0.84723 0.35184 0.85128 0.0
C1537 C 0.81295 0.32963 0.82317 0.0
C1538 C 0.83254 0.35657 0.85138 0.0
N1539 N 0.81586 0.34547 0.83742 0.0
C1540 C 0.84156 0.27705 0.81012 0.0
C1541 C 0.83837 0.29389 0.77281 0.0
C1542 C 0.82606 0.25956 0.8008 0.0
N1543 N 0.84739 0.29375 0.79606 0.0
C1544 C 0.82288 0.27675 0.76272 0.0
C1545 C 0.81643 0.25932 0.77689 0.0
H1546 H 0.84884 0.27736 0.82871 0.0
H1547 H 0.84284 0.30738 0.76243 0.0
C1548 C 0.89116 0.39179 0.80551 0.0
N1549 N 0.87623 0.37345 0.80171 0.0
C1550 C 0.89027 0.40758 0.79497 0.0
C1551 C 0.85845 0.38538 0.77723 0.0
C1552 C 0.86004 0.36999 0.7879 0.0
C1553 C 0.87385 0.40447 0.78032 0.0
H1554 H 0.904 0.39414 0.81619 0.0
H1555 H 0.84849 0.35527 0.78475 0.0
O1556 O 0.88778 0.31631 0.83395 0.0
O1557 O 0.90364 0.36102 0.83541 0.0
O1558 O 0.88434 0.33874 0.78503 0.0
O1559 O 0.85888 0.33093 0.83608 0.0
H1560 H 0.90595 0.30653 0.86988 0.0
H1561 H 0.8828 0.29604 0.78915 0.0
H1562 H 0.91693 0.28279 0.86189 0.0
H1563 H 0.8943 0.27262 0.78247 0.0
H1564 H 0.9145 0.39898 0.90931 0.0
H1565 H 0.9368 0.36383 0.85075 0.0
H1566 H 0.89492 0.38128 0.8692 0.0
H1567 H 0.95574 0.38199 0.89102 0.0
H1568 H 0.96723 0.34168 0.80151 0.0
H1569 H 0.95919 0.3838 0.75706 0.0
H1570 H 0.85755 0.33515 0.94459 0.0
H1571 H 0.91196 0.3355 0.94247 0.0
H1572 H 0.86583 0.34735 0.74806 0.0
H1573 H 0.90198 0.3221 0.76066 0.0
H1574 H 0.86505 0.34037 0.6991 0.0
H1575 H 0.90038 0.31536 0.71158 0.0
H1576 H 0.82497 0.31184 0.81125 0.0
H1577 H 0.86053 0.36071 0.86227 0.0
H1578 H 0.7995 0.32108 0.81231 0.0
H1579 H 0.83443 0.36908 0.86251 0.0
H1580 H 0.82165 0.24639 0.81215 0.0
H1581 H 0.81568 0.2772 0.74439 0.0
H1582 H 0.90253 0.42204 0.79766 0.0
H1583 H 0.84537 0.38234 0.76656 0.0
Li1584 Li 0.14193 0.45545 0.70277 0.0
Li1585 Li 0.12994 0.47851 0.69934 0.0
Li1586 Li 0.10716 0.44243 0.70246 0.0
Li1587 Li 0.12503 0.45679 0.66027 0.0
C1588 C 0.1345 0.46153 0.75371 0.0
N1589 N 0.15205 0.46401 0.80285 0.0
C1590 C 0.14578 0.47955 0.76611 0.0
C1591 C 0.13198 0.44476 0.76642 0.0
C1592 C 0.15457 0.4805 0.79093 0.0
C1593 C 0.14103 0.44633 0.79122 0.0
C1594 C 0.16321 0.49431 0.66493 0.0
C1595 C 0.17175 0.51922 0.63129 0.0
N1596 N 0.19013 0.52883 0.64121 0.0
C1597 C 0.18223 0.50437 0.67465 0.0
C1598 C 0.15795 0.50173 0.64296 0.0
C1599 C 0.1956 0.52182 0.66244 0.0
C1600 C 0.16431 0.43694 0.71263 0.0
N1601 N 0.16302 0.45312 0.71698 0.0
C1602 C 0.19278 0.46777 0.74176 0.0
C1603 C 0.17685 0.46837 0.73122 0.0
C1604 C 0.19482 0.4515 0.73706 0.0
C1605 C 0.18018 0.43582 0.72256 0.0
H1606 H 0.15315 0.42503 0.70115 0.0
H1607 H 0.17556 0.4811 0.73429 0.0
C1608 C 0.11814 0.50047 0.72787 0.0
N1609 N 0.13289 0.50253 0.71179 0.0
C1610 C 0.11867 0.51666 0.73956 0.0
C1611 C 0.1494 0.53695 0.71748 0.0
C1612 C 0.14836 0.52032 0.70639 0.0
C1613 C 0.13452 0.53517 0.73456 0.0
H1614 H 0.10604 0.48614 0.73183 0.0
H1615 H 0.16002 0.5217 0.69378 0.0
C1616 C 0.10996 0.41413 0.67922 0.0
N1617 N 0.08434 0.37469 0.67774 0.0
C1618 C 0.09912 0.40556 0.65591 0.0
C1619 C 0.10795 0.40263 0.70167 0.0
C1620 C 0.0862 0.3856 0.65558 0.0
C1621 C 0.09486 0.38272 0.70056 0.0
C1622 C 0.09597 0.46829 0.66346 0.0
C1623 C 0.07638 0.45597 0.65752 0.0
C1624 C 0.10526 0.48743 0.65426 0.0
C1625 C 0.06651 0.46291 0.64193 0.0
C1626 C 0.0949 0.49383 0.63876 0.0
N1627 N 0.07591 0.48153 0.63293 0.0
C1628 C 0.07973 0.42509 0.74408 0.0
C1629 C 0.06758 0.41186 0.70079 0.0
C1630 C 0.06131 0.41416 0.75541 0.0
N1631 N 0.08247 0.424 0.71717 0.0
C1632 C 0.04888 0.4006 0.71131 0.0
C1633 C 0.04551 0.40211 0.73881 0.0
H1634 H 0.0917 0.43506 0.75661 0.0
H1635 H 0.07001 0.41156 0.67936 0.0
C1636 C 0.14107 0.46004 0.60812 0.0
N1637 N 0.12431 0.45496 0.62158 0.0
C1638 C 0.14128 0.45941 0.57989 0.0
C1639 C 0.10686 0.44782 0.57985 0.0
C1640 C 0.10733 0.44871 0.60807 0.0
C1641 C 0.124 0.45323 0.56539 0.0
H1642 H 0.15434 0.46473 0.61934 0.0
H1643 H 0.09412 0.44435 0.61916 0.0
O1644 O 0.12594 0.46033 0.72928 0.0
O1645 O 0.14995 0.47718 0.67666 0.0
O1646 O 0.12253 0.43366 0.68002 0.0
O1647 O 0.1058 0.46173 0.67882 0.0
H1648 H 0.14789 0.49268 0.75656 0.0
H1649 H 0.12319 0.43071 0.75717 0.0
H1650 H 0.16343 0.49435 0.80069 0.0
H1651 H 0.13929 0.43348 0.80121 0.0
H1652 H 0.16785 0.52513 0.61431 0.0
H1653 H 0.18663 0.4988 0.69146 0.0
H1654 H 0.14343 0.49404 0.63485 0.0
H1655 H 0.21034 0.52979 0.66983 0.0
H1656 H 0.2034 0.47997 0.75344 0.0
H1657 H 0.18121 0.42301 0.71845 0.0
H1658 H 0.10678 0.51475 0.7523 0.0
H1659 H 0.16185 0.55103 0.71321 0.0
H1660 H 0.10057 0.41425 0.63832 0.0
H1661 H 0.11636 0.40902 0.71977 0.0
H1662 H 0.07764 0.37878 0.63773 0.0
H1663 H 0.09307 0.37365 0.71783 0.0
H1664 H 0.06889 0.44118 0.66468 0.0
H1665 H 0.12025 0.49733 0.65921 0.0
H1666 H 0.05138 0.45349 0.63702 0.0
H1667 H 0.10194 0.5086 0.63145 0.0
H1668 H 0.0593 0.41555 0.77678 0.0
H1669 H 0.03702 0.39155 0.69786 0.0
H1670 H 0.15477 0.46358 0.5695 0.0
H1671 H 0.09328 0.4432 0.56946 0.0
Li1672 Li 0.69101 0.13902 0.70037 0.0
Li1673 Li 0.65661 0.12735 0.69869 0.0
Li1674 Li 0.66735 0.10456 0.69962 0.0
Li1675 Li 0.67124 0.12312 0.65769 0.0
C1676 C 0.67422 0.13497 0.75004 0.0
N1677 N 0.68044 0.1585 0.79435 0.0
C1678 C 0.67645 0.15339 0.74668 0.0
C1679 C 0.67509 0.12849 0.77596 0.0
C1680 C 0.6796 0.16507 0.76931 0.0
C1681 C 0.67827 0.14061 0.79811 0.0
C1682 C 0.67254 0.16102 0.66527 0.0
C1683 C 0.65636 0.17002 0.63191 0.0
N1684 N 0.66389 0.18779 0.64359 0.0
C1685 C 0.68027 0.17946 0.67677 0.0
C1686 C 0.66059 0.15631 0.64252 0.0
C1687 C 0.67565 0.19275 0.6656 0.0
C1688 C 0.72411 0.17625 0.69974 0.0
N1689 N 0.71532 0.15917 0.71342 0.0
C1690 C 0.73987 0.17219 0.74753 0.0
C1691 C 0.72294 0.15678 0.73671 0.0
C1692 C 0.74895 0.19022 0.73431 0.0
C1693 C 0.74101 0.19204 0.70987 0.0
H1694 H 0.71776 0.17773 0.68122 0.0
H1695 H 0.71567 0.14301 0.74714 0.0
C1696 C 0.62772 0.12061 0.73609 0.0
N1697 N 0.63591 0.13074 0.71303 0.0
C1698 C 0.61174 0.12062 0.7476 0.0
C1699 C 0.61303 0.14188 0.7119 0.0
C1700 C 0.62894 0.14135 0.70093 0.0
C1701 C 0.60409 0.13118 0.73529 0.0
H1702 H 0.63328 0.11205 0.7452 0.0
H1703 H 0.6353 0.14907 0.6825 0.0
C1704 C 0.69672 0.10529 0.67681 0.0
N1705 N 0.70626 0.07643 0.67883 0.0
C1706 C 0.68986 0.09088 0.65697 0.0
C1707 C 0.70848 0.1051 0.69761 0.0
C1708 C 0.69484 0.0764 0.65836 0.0
C1709 C 0.71313 0.09036 0.69829 0.0
C1710 C 0.62776 0.0963 0.67645 0.0
C1711 C 0.61685 0.08384 0.69741 0.0
C1712 C 0.6186 0.1015 0.65681 0.0
C1713 C 0.59694 0.07705 0.69863 0.0
C1714 C 0.59866 0.09439 0.65873 0.0
N1715 N 0.58835 0.08245 0.67945 0.0
C1716 C 0.66724 0.07775 0.73754 0.0
C1717 C 0.64884 0.06378 0.69781 0.0
C1718 C 0.66051 0.05938 0.74881 0.0
N1719 N 0.66102 0.07957 0.71272 0.0
C1720 C 0.6417 0.04516 0.70833 0.0
C1721 C 0.64711 0.04282 0.73445 0.0
H1722 H 0.67701 0.09058 0.74887 0.0
H1723 H 0.6441 0.06569 0.67815 0.0
C1724 C 0.68511 0.13846 0.60545 0.0
N1725 N 0.67188 0.12252 0.61922 0.0
C1726 C 0.68561 0.13826 0.57721 0.0
C1727 C 0.65908 0.10518 0.57791 0.0
C1728 C 0.65899 0.10605 0.60612 0.0
C1729 C 0.67254 0.12143 0.56312 0.0
H1730 H 0.6952 0.15135 0.61644 0.0
H1731 H 0.64861 0.09361 0.61762 0.0
O1732 O 0.6714 0.12334 0.72816 0.0
O1733 O 0.6772 0.14793 0.67563 0.0
O1734 O 0.69146 0.11918 0.67632 0.0
O1735 O 0.64736 0.10362 0.67544 0.0
H1736 H 0.67571 0.15856 0.72685 0.0
H1737 H 0.67339 0.11426 0.77894 0.0
H1738 H 0.68136 0.17937 0.76697 0.0
H1739 H 0.67901 0.13579 0.81828 0.0
H1740 H 0.64704 0.16651 0.61442 0.0
H1741 H 0.68981 0.18354 0.69409 0.0
H1742 H 0.65445 0.14218 0.63332 0.0
H1743 H 0.68148 0.20703 0.67437 0.0
H1744 H 0.74574 0.17003 0.7661 0.0
H1745 H 0.74752 0.20568 0.69906 0.0
H1746 H 0.60534 0.11233 0.76584 0.0
H1747 H 0.60743 0.15012 0.70179 0.0
H1748 H 0.68062 0.09078 0.64086 0.0
H1749 H 0.71378 0.1161 0.71321 0.0
H1750 H 0.68956 0.06509 0.64323 0.0
H1751 H 0.72214 0.08996 0.71434 0.0
H1752 H 0.62373 0.07976 0.71288 0.0
H1753 H 0.62679 0.11099 0.64034 0.0
H1754 H 0.58835 0.06758 0.71491 0.0
H1755 H 0.5914 0.0984 0.64376 0.0
H1756 H 0.66538 0.05818 0.76876 0.0
H1757 H 0.63138 0.03278 0.69663 0.0
H1758 H 0.69622 0.15107 0.5665 0.0
H1759 H 0.64858 0.09203 0.56775 0.0
Li1760 Li 0.55406 0.68821 0.70115 0.0
Li1761 Li 0.53052 0.65245 0.70129 0.0
Li1762 Li 0.56516 0.66564 0.69911 0.0
Li1763 Li 0.55067 0.67003 0.65845 0.0
C1764 C 0.5595 0.66932 0.75175 0.0
N1765 N 0.57991 0.67021 0.79741 0.0
C1766 C 0.55099 0.6545 0.77093 0.0
C1767 C 0.57824 0.68477 0.75608 0.0
C1768 C 0.56158 0.65516 0.79381 0.0
C1769 C 0.58836 0.68491 0.7792 0.0
C1770 C 0.52231 0.68475 0.67865 0.0
C1771 C 0.51744 0.70955 0.65855 0.0
N1772 N 0.50812 0.71002 0.68133 0.0
C1773 C 0.51259 0.68538 0.7018 0.0
C1774 C 0.52472 0.69686 0.6568 0.0
C1775 C 0.50556 0.6983 0.70278 0.0
C1776 C 0.56283 0.72735 0.69738 0.0
N1777 N 0.55793 0.71234 0.7147 0.0
C1778 C 0.55659 0.73097 0.75166 0.0
C1779 C 0.55488 0.71384 0.7414 0.0
C1780 C 0.56127 0.74656 0.73417 0.0
C1781 C 0.56439 0.74464 0.70671 0.0
H1782 H 0.56514 0.72572 0.67623 0.0
H1783 H 0.55077 0.70161 0.75467 0.0
C1784 C 0.50755 0.61795 0.72917 0.0
N1785 N 0.50666 0.63172 0.71406 0.0
C1786 C 0.49065 0.6023 0.7394 0.0
C1787 C 0.47213 0.61512 0.71805 0.0
C1788 C 0.48945 0.63062 0.70828 0.0
C1789 C 0.47265 0.60072 0.7338 0.0
H1790 H 0.52143 0.61911 0.73316 0.0
H1791 H 0.48917 0.64173 0.69609 0.0
C1792 C 0.59358 0.70121 0.6729 0.0
N1793 N 0.63286 0.72511 0.66435 0.0
C1794 C 0.60251 0.69839 0.65041 0.0
C1795 C 0.60454 0.71651 0.69065 0.0
C1796 C 0.62241 0.71054 0.64655 0.0
C1797 C 0.62441 0.72834 0.68609 0.0
C1798 C 0.55158 0.63287 0.66862 0.0
C1799 C 0.56793 0.63944 0.65217 0.0
C1800 C 0.54208 0.61373 0.67787 0.0
C1801 C 0.57474 0.62685 0.64562 0.0
C1802 C 0.54934 0.60157 0.67088 0.0
N1803 N 0.5654 0.60834 0.65506 0.0
C1804 C 0.57489 0.64142 0.72613 0.0
C1805 C 0.60312 0.66905 0.70976 0.0
C1806 C 0.58595 0.6342 0.73762 0.0
N1807 N 0.5835 0.65854 0.71254 0.0
C1808 C 0.61482 0.66234 0.72104 0.0
C1809 C 0.60621 0.64479 0.73542 0.0
H1810 H 0.55929 0.63336 0.72814 0.0
H1811 H 0.6098 0.68264 0.69906 0.0
C1812 C 0.55944 0.68765 0.60669 0.0
N1813 N 0.55046 0.67043 0.62003 0.0
C1814 C 0.55961 0.68807 0.57843 0.0
C1815 C 0.54135 0.65304 0.57824 0.0
C1816 C 0.54143 0.6533 0.60647 0.0
C1817 C 0.55061 0.67058 0.56387 0.0
H1818 H 0.56652 0.70105 0.61804 0.0
H1819 H 0.5343 0.63982 0.61761 0.0
O1820 O 0.54959 0.66866 0.72879 0.0
O1821 O 0.52986 0.67268 0.67768 0.0
O1822 O 0.57409 0.68958 0.67689 0.0
O1823 O 0.54492 0.64512 0.67562 0.0
H1824 H 0.53639 0.6426 0.76821 0.0
H1825 H 0.58496 0.69638 0.74156 0.0
H1826 H 0.55522 0.64372 0.80872 0.0
H1827 H 0.60296 0.69669 0.78263 0.0
H1828 H 0.51927 0.71908 0.64185 0.0
H1829 H 0.51077 0.6762 0.71897 0.0
H1830 H 0.53228 0.69658 0.63879 0.0
H1831 H 0.49813 0.69906 0.72064 0.0
H1832 H 0.55381 0.73185 0.77289 0.0
H1833 H 0.56801 0.75639 0.69265 0.0
H1834 H 0.49162 0.59139 0.75128 0.0
H1835 H 0.45853 0.6145 0.71355 0.0
H1836 H 0.59417 0.68704 0.63599 0.0
H1837 H 0.59779 0.71936 0.70761 0.0
H1838 H 0.62952 0.70844 0.62933 0.0
H1839 H 0.63309 0.74016 0.69975 0.0
H1840 H 0.57533 0.65414 0.64471 0.0
H1841 H 0.52929 0.60833 0.69038 0.0
H1842 H 0.58747 0.6318 0.63305 0.0
H1843 H 0.5422 0.58676 0.67802 0.0
H1844 H 0.57868 0.62037 0.74794 0.0
H1845 H 0.63042 0.67089 0.71885 0.0
H1846 H 0.5669 0.70188 0.56805 0.0
H1847 H 0.53394 0.63927 0.56775 0.0
Li1848 Li 0.8784 0.52826 0.69816 0.0
Li1849 Li 0.86631 0.55132 0.70065 0.0
Li1850 Li 0.88252 0.54879 0.65795 0.0
Li1851 Li 0.90105 0.56431 0.69896 0.0
C1852 C 0.84346 0.5115 0.66638 0.0
N1853 N 0.81398 0.47632 0.64766 0.0
C1854 C 0.82515 0.50286 0.67849 0.0
C1855 C 0.84666 0.50235 0.6445 0.0
C1856 C 0.81047 0.48504 0.66881 0.0
C1857 C 0.83161 0.48455 0.6354 0.0
C1858 C 0.87506 0.54653 0.75197 0.0
C1859 C 0.86882 0.56225 0.78912 0.0
N1860 N 0.85878 0.54487 0.80191 0.0
C1861 C 0.86482 0.52885 0.76558 0.0
C1862 C 0.87723 0.5634 0.76391 0.0
C1863 C 0.85666 0.52831 0.79078 0.0
C1864 C 0.89156 0.50589 0.72331 0.0
N1865 N 0.87552 0.50439 0.7113 0.0
C1866 C 0.85769 0.47036 0.72045 0.0
C1867 C 0.85871 0.4871 0.70982 0.0
C1868 C 0.87406 0.47152 0.73293 0.0
C1869 C 0.89114 0.48958 0.73441 0.0
H1870 H 0.90469 0.51986 0.72437 0.0
H1871 H 0.84601 0.48621 0.70073 0.0
C1872 C 0.84361 0.56967 0.70719 0.0
N1873 N 0.84558 0.55433 0.7148 0.0
C1874 C 0.82836 0.57175 0.71736 0.0
C1875 C 0.81758 0.54235 0.74312 0.0
C1876 C 0.83281 0.54067 0.73217 0.0
C1877 C 0.81525 0.55805 0.73575 0.0
H1878 H 0.85382 0.58021 0.69311 0.0
H1879 H 0.83436 0.52836 0.73741 0.0
C1880 C 0.91047 0.53657 0.66015 0.0
N1881 N 0.92734 0.52082 0.62773 0.0
C1882 C 0.92986 0.54779 0.65231 0.0
C1883 C 0.89978 0.51724 0.65188 0.0
C1884 C 0.9381 0.5396 0.63579 0.0
C1885 C 0.90854 0.50957 0.63541 0.0
C1886 C 0.89747 0.59195 0.67559 0.0
C1887 C 0.9088 0.60052 0.65266 0.0
C1888 C 0.89877 0.60348 0.69766 0.0
C1889 C 0.92151 0.62053 0.65236 0.0
C1890 C 0.91166 0.62343 0.69659 0.0
N1891 N 0.92268 0.63147 0.67417 0.0
C1892 C 0.8656 0.54291 0.60588 0.0
C1893 C 0.89975 0.55684 0.60564 0.0
C1894 C 0.86516 0.54267 0.57763 0.0
N1895 N 0.88268 0.54958 0.61926 0.0
C1896 C 0.9 0.55698 0.5774 0.0
C1897 C 0.88251 0.54957 0.56305 0.0
H1898 H 0.85227 0.53765 0.61716 0.0
H1899 H 0.91319 0.56259 0.61669 0.0
C1900 C 0.92949 0.5855 0.73873 0.0
N1901 N 0.92599 0.58362 0.7117 0.0
C1902 C 0.94821 0.5977 0.74848 0.0
C1903 C 0.95934 0.60614 0.70241 0.0
C1904 C 0.9404 0.59378 0.69356 0.0
C1905 C 0.96348 0.608 0.7302 0.0
H1906 H 0.91791 0.57692 0.75272 0.0
H1907 H 0.93731 0.59179 0.67216 0.0
O1908 O 0.85799 0.52897 0.67563 0.0
O1909 O 0.88299 0.54731 0.72716 0.0
O1910 O 0.90221 0.5444 0.67634 0.0
O1911 O 0.88518 0.57235 0.67644 0.0
H1912 H 0.82231 0.50976 0.69524 0.0
H1913 H 0.86055 0.50898 0.63443 0.0
H1914 H 0.79628 0.47815 0.6781 0.0
H1915 H 0.83392 0.47732 0.61851 0.0
H1916 H 0.87027 0.57517 0.79851 0.0
H1917 H 0.86303 0.51565 0.75669 0.0
H1918 H 0.88522 0.57722 0.75375 0.0
H1919 H 0.84859 0.51471 0.80147 0.0
H1920 H 0.84417 0.45672 0.71935 0.0
H1921 H 0.90405 0.49101 0.74387 0.0
H1922 H 0.82688 0.58398 0.71111 0.0
H1923 H 0.80751 0.53129 0.75684 0.0
H1924 H 0.93844 0.5627 0.65875 0.0
H1925 H 0.88496 0.50818 0.65831 0.0
H1926 H 0.95304 0.54817 0.62942 0.0
H1927 H 0.90039 0.49464 0.62882 0.0
H1928 H 0.90791 0.59181 0.63537 0.0
H1929 H 0.88996 0.59708 0.71544 0.0
H1930 H 0.93046 0.62736 0.63482 0.0
H1931 H 0.9129 0.63252 0.71359 0.0
H1932 H 0.85142 0.53728 0.56731 0.0
H1933 H 0.91369 0.56256 0.56688 0.0
H1934 H 0.95086 0.59833 0.77003 0.0
H1935 H 0.97073 0.61378 0.68768 0.0
Li1936 Li 0.35304 0.87856 0.69808 0.0
Li1937 Li 0.31795 0.86621 0.70037 0.0
Li1938 Li 0.33668 0.8829 0.65808 0.0
Li1939 Li 0.33939 0.90103 0.69969 0.0
C1940 C 0.33682 0.84495 0.6654 0.0
N1941 N 0.34586 0.818 0.64548 0.0
C1942 C 0.3282 0.82633 0.67649 0.0
C1943 C 0.34977 0.84972 0.64384 0.0
C1944 C 0.33304 0.81295 0.66625 0.0
C1945 C 0.35422 0.83594 0.63414 0.0
C1946 C 0.33041 0.87421 0.75161 0.0
C1947 C 0.30747 0.86762 0.78753 0.0
N1948 N 0.3141 0.85702 0.80048 0.0
C1949 C 0.33712 0.8634 0.76537 0.0
C1950 C 0.31558 0.8765 0.76286 0.0
C1951 C 0.32864 0.85477 0.79002 0.0
C1952 C 0.39061 0.89267 0.71692 0.0
N1953 N 0.37412 0.87584 0.71102 0.0
C1954 C 0.38827 0.85737 0.72705 0.0
C1955 C 0.37266 0.85835 0.71584 0.0
C1956 C 0.40542 0.87455 0.73356 0.0
C1957 C 0.40656 0.89237 0.72797 0.0
H1958 H 0.3913 0.90638 0.71326 0.0
H1959 H 0.35925 0.84516 0.71173 0.0
C1960 C 0.27696 0.84379 0.70826 0.0
N1961 N 0.29427 0.84515 0.71414 0.0
C1962 C 0.25969 0.82821 0.71804 0.0
C1963 C 0.27841 0.81584 0.73987 0.0
C1964 C 0.29525 0.83152 0.72951 0.0
C1965 C 0.26029 0.81399 0.73418 0.0
H1966 H 0.27654 0.85469 0.69571 0.0
H1967 H 0.30916 0.83281 0.73369 0.0
C1968 C 0.37661 0.91224 0.66086 0.0
N1969 N 0.40924 0.93206 0.62891 0.0
C1970 C 0.38356 0.93168 0.6543 0.0
C1971 C 0.3865 0.90301 0.65156 0.0
C1972 C 0.4 0.94142 0.638 0.0
C1973 C 0.40291 0.91324 0.63534 0.0
C1974 C 0.30858 0.89779 0.67514 0.0
C1975 C 0.3115 0.90873 0.65173 0.0
C1976 C 0.29838 0.89962 0.69683 0.0
C1977 C 0.30437 0.92156 0.65057 0.0
C1978 C 0.2915 0.91262 0.6949 0.0
N1979 N 0.29463 0.92325 0.67201 0.0
C1980 C 0.32518 0.8661 0.60616 0.0
C1981 C 0.34639 0.90008 0.60552 0.0
C1982 C 0.32483 0.8655 0.57792 0.0
N1983 N 0.33611 0.88318 0.61934 0.0
C1984 C 0.34647 0.90015 0.57728 0.0
C1985 C 0.33579 0.88265 0.56311 0.0
H1986 H 0.31682 0.85291 0.61761 0.0
H1987 H 0.35448 0.91356 0.61636 0.0
C1988 C 0.34832 0.92854 0.74084 0.0
N1989 N 0.34521 0.92574 0.71379 0.0
C1990 C 0.35589 0.94706 0.75188 0.0
C1991 C 0.35626 0.95945 0.7072 0.0
C1992 C 0.34862 0.94064 0.697 0.0
C1993 C 0.36058 0.96289 0.73485 0.0
H1994 H 0.34578 0.91657 0.75374 0.0
H1995 H 0.34634 0.93814 0.67551 0.0
O1996 O 0.33218 0.8582 0.67516 0.0
O1997 O 0.33837 0.88257 0.72729 0.0
O1998 O 0.36053 0.90251 0.67688 0.0
O1999 O 0.31563 0.88531 0.67677 0.0
H2000 H 0.31795 0.82225 0.69291 0.0
H2001 H 0.35615 0.86381 0.63443 0.0
H2002 H 0.32657 0.79854 0.67478 0.0
H2003 H 0.36425 0.83948 0.61751 0.0
H2004 H 0.29589 0.86917 0.79638 0.0
H2005 H 0.34864 0.86156 0.75704 0.0
H2006 H 0.31035 0.88496 0.75259 0.0
H2007 H 0.33361 0.84626 0.80082 0.0
H2008 H 0.38678 0.84334 0.73121 0.0
H2009 H 0.41965 0.90596 0.73216 0.0
H2010 H 0.24602 0.82711 0.71255 0.0
H2011 H 0.27957 0.80526 0.75227 0.0
H2012 H 0.37626 0.93916 0.66154 0.0
H2013 H 0.38178 0.8882 0.65713 0.0
H2014 H 0.40542 0.95642 0.63261 0.0
H2015 H 0.41066 0.90623 0.62798 0.0
H2016 H 0.31928 0.90742 0.63472 0.0
H2017 H 0.29583 0.89111 0.71496 0.0
H2018 H 0.30661 0.9302 0.63264 0.0
H2019 H 0.28367 0.91426 0.71159 0.0
H2020 H 0.31597 0.85177 0.56779 0.0
H2021 H 0.35501 0.91372 0.56663 0.0
H2022 H 0.35872 0.94908 0.77339 0.0
H2023 H 0.35974 0.97131 0.69341 0.0
Li2024 Li 0.45573 0.31718 0.69956 0.0
Li2025 Li 0.47806 0.35226 0.69916 0.0
Li2026 Li 0.44265 0.33824 0.69855 0.0
Li2027 Li 0.45808 0.33571 0.65788 0.0
C2028 C 0.45978 0.32807 0.75037 0.0
N2029 N 0.46128 0.30957 0.79673 0.0
C2030 C 0.47766 0.33211 0.76102 0.0
C2031 C 0.44267 0.31481 0.76345 0.0
C2032 C 0.47812 0.32256 0.78445 0.0
C2033 C 0.44373 0.30555 0.78682 0.0
C2034 C 0.49464 0.33923 0.65941 0.0
C2035 C 0.51893 0.36498 0.63205 0.0
N2036 N 0.52632 0.3534 0.62539 0.0
C2037 C 0.50244 0.32758 0.65228 0.0
C2038 C 0.50291 0.35808 0.64922 0.0
C2039 C 0.51848 0.33501 0.63506 0.0
C2040 C 0.43616 0.27691 0.71355 0.0
N2041 N 0.45354 0.29365 0.71301 0.0
C2042 C 0.46928 0.27768 0.73255 0.0
C2043 C 0.46997 0.29429 0.72205 0.0
C2044 C 0.45156 0.26017 0.7333 0.0
C2045 C 0.43483 0.25989 0.72368 0.0
H2046 H 0.42333 0.27672 0.70609 0.0
H2047 H 0.48363 0.30776 0.72115 0.0
C2048 C 0.5008 0.3874 0.72581 0.0
N2049 N 0.50182 0.37277 0.71329 0.0
C2050 C 0.51737 0.40297 0.73693 0.0
C2051 C 0.53572 0.3878 0.72305 0.0
C2052 C 0.51876 0.37251 0.71212 0.0
C2053 C 0.53518 0.40339 0.73543 0.0
H2054 H 0.48702 0.38686 0.72741 0.0
H2055 H 0.51909 0.36036 0.703 0.0
C2056 C 0.41499 0.30666 0.67375 0.0
N2057 N 0.37526 0.29051 0.66997 0.0
C2058 C 0.40648 0.30682 0.64911 0.0
C2059 C 0.40328 0.29813 0.69639 0.0
C2060 C 0.38636 0.29861 0.64763 0.0
C2061 C 0.38323 0.2901 0.6941 0.0
C2062 C 0.45356 0.36999 0.66819 0.0
C2063 C 0.43984 0.36316 0.64739 0.0
C2064 C 0.45767 0.38698 0.68185 0.0
C2065 C 0.4305 0.37346 0.64057 0.0
C2066 C 0.44798 0.39684 0.6745 0.0
N2067 N 0.43471 0.38994 0.65417 0.0
C2068 C 0.42681 0.35125 0.73817 0.0
C2069 C 0.40867 0.34279 0.69755 0.0
C2070 C 0.4153 0.35818 0.74922 0.0
N2071 N 0.42346 0.34388 0.71269 0.0
C2072 C 0.39679 0.34954 0.70782 0.0
C2073 C 0.40016 0.35754 0.73389 0.0
H2074 H 0.43893 0.35244 0.7496 0.0
H2075 H 0.40646 0.33734 0.67714 0.0
C2076 C 0.45043 0.31847 0.60578 0.0
N2077 N 0.45876 0.33565 0.61923 0.0
C2078 C 0.45034 0.31813 0.57752 0.0
C2079 C 0.46779 0.35316 0.57753 0.0
C2080 C 0.46756 0.35282 0.60574 0.0
C2081 C 0.45889 0.33565 0.56305 0.0
H2082 H 0.44366 0.30503 0.61704 0.0
H2083 H 0.4743 0.36629 0.61692 0.0
O2084 O 0.45901 0.33693 0.72712 0.0
O2085 O 0.47881 0.33205 0.67601 0.0
O2086 O 0.43464 0.31454 0.67554 0.0
O2087 O 0.46262 0.35989 0.67544 0.0
H2088 H 0.49104 0.34231 0.75113 0.0
H2089 H 0.42873 0.31167 0.75559 0.0
H2090 H 0.49185 0.32542 0.79282 0.0
H2091 H 0.43061 0.29517 0.79708 0.0
H2092 H 0.52548 0.37954 0.62403 0.0
H2093 H 0.49616 0.31294 0.65997 0.0
H2094 H 0.49706 0.36731 0.65455 0.0
H2095 H 0.52469 0.32616 0.62937 0.0
H2096 H 0.4825 0.27843 0.73965 0.0
H2097 H 0.42087 0.2467 0.72418 0.0
H2098 H 0.51629 0.41463 0.74646 0.0
H2099 H 0.54904 0.38729 0.72218 0.0
H2100 H 0.41529 0.31329 0.63135 0.0
H2101 H 0.40963 0.29788 0.71558 0.0
H2102 H 0.37959 0.2987 0.62873 0.0
H2103 H 0.37401 0.28356 0.71151 0.0
H2104 H 0.43611 0.34984 0.63696 0.0
H2105 H 0.46817 0.39252 0.69802 0.0
H2106 H 0.41979 0.36826 0.6246 0.0
H2107 H 0.45099 0.40998 0.68497 0.0
H2108 H 0.41877 0.36473 0.76911 0.0
H2109 H 0.38533 0.34889 0.69529 0.0
H2110 H 0.44339 0.30434 0.56707 0.0
H2111 H 0.47493 0.36697 0.56714 0.0
C2112 C 0.38268 0.01884 0.26935 0.0
C2113 C 0.38936 0.0224 0.24246 0.0
C2114 C 0.37308 0.99999 0.28 0.0
C2115 C 0.36967 0.98396 0.26412 0.0
H2116 H 0.38517 0.03077 0.28244 0.0
H2117 H 0.36851 0.99798 0.30094 0.0
S2118 S 0.38463 0.98534 0.1928 0.0
N2119 N 0.39211 0.00821 0.20033 0.0
N2120 N 0.37386 0.9728 0.22028 0.0
C2121 C 0.37589 0.98721 0.23705 0.0
C2122 C 0.38576 0.00642 0.22624 0.0
C2123 C 0.39636 0.38934 0.27605 0.0
C2124 C 0.39297 0.37133 0.26621 0.0
C2125 C 0.38607 0.39803 0.26606 0.0
C2126 C 0.37194 0.38911 0.24574 0.0
H2127 H 0.40712 0.39685 0.29163 0.0
H2128 H 0.38955 0.41208 0.27395 0.0
S2129 S 0.35722 0.34166 0.21348 0.0
N2130 N 0.37439 0.3448 0.23501 0.0
N2131 N 0.35466 0.3609 0.21672 0.0
C2132 C 0.36818 0.37095 0.23596 0.0
C2133 C 0.37872 0.3621 0.24613 0.0
C2134 C 0.988 0.37252 0.27457 0.0
C2135 C 0.98392 0.36828 0.24694 0.0
C2136 C 0.00713 0.38163 0.28422 0.0
C2137 C 0.0228 0.38715 0.26644 0.0
H2138 H 0.97633 0.36917 0.28868 0.0
H2139 H 0.00975 0.38518 0.30551 0.0
S2140 S 0.01977 0.37881 0.19249 0.0
N2141 N 0.99698 0.36961 0.20215 0.0
N2142 N 0.03299 0.38716 0.22019 0.0
C2143 C 0.01887 0.38256 0.23891 0.0
C2144 C 0.9994 0.373 0.22918 0.0
C2145 C 0.62821 0.98937 0.26454 0.0
C2146 C 0.62041 0.98535 0.23825 0.0
C2147 C 0.63739 0.00828 0.27499 0.0
C2148 C 0.63912 0.0239 0.25956 0.0
H2149 H 0.62704 0.97776 0.27725 0.0
H2150 H 0.64301 0.01066 0.29543 0.0
S2151 S 0.62041 0.02101 0.19003 0.0
N2152 N 0.61466 0.99853 0.19725 0.0
N2153 N 0.63189 0.03402 0.21687 0.0
C2154 C 0.6316 0.02013 0.23313 0.0
C2155 C 0.62225 1.00088 0.22249 0.0
C2156 C 0.62725 0.64177 0.25008 0.0
C2157 C 0.61242 0.63217 0.2693 0.0
C2158 C 0.63774 0.63324 0.24001 0.0
C2159 C 0.63388 0.61485 0.24892 0.0
H2160 H 0.63049 0.65578 0.24229 0.0
H2161 H 0.64892 0.64108 0.22508 0.0
S2162 S 0.59686 0.58399 0.29968 0.0
N2163 N 0.59499 0.60366 0.29771 0.0
N2164 N 0.61409 0.58735 0.27814 0.0
C2165 C 0.61925 0.60525 0.26842 0.0
C2166 C 0.60867 0.61396 0.27874 0.0
C2167 C 0.01059 0.63652 0.23335 0.0
C2168 C 0.02573 0.63779 0.24944 0.0
C2169 C 0.9914 0.62712 0.24284 0.0
C2170 C 0.98674 0.61892 0.26889 0.0
H2171 H 0.01346 0.64212 0.2129 0.0
H2172 H 0.98006 0.62589 0.2295 0.0
S2173 S 0.0214 0.61954 0.31949 0.0
N2174 N 0.03501 0.63102 0.29309 0.0
N2175 N 0.999 0.61337 0.31093 0.0
C2176 C 1.00189 0.62081 0.28554 0.0
C2177 C 0.02137 0.63022 0.2758 0.0
C2178 C 0.62631 0.9885 0.74349 0.0
C2179 C 0.61729 0.98492 0.76895 0.0
C2180 C 0.63631 0.00732 0.7327 0.0
C2181 C 0.63783 0.02326 0.7471 0.0
H2182 H 0.62513 0.9766 0.73146 0.0
H2183 H 0.64273 0.00937 0.7128 0.0
S2184 S 0.61747 0.02168 0.81515 0.0
N2185 N 0.61124 0.99895 0.80878 0.0
N2186 N 0.62968 0.03419 0.78838 0.0
C2187 C 0.62928 0.01991 0.77288 0.0
C2188 C 0.61908 1.00078 0.7838 0.0
C2189 C 0.6419 0.62653 0.74234 0.0
C2190 C 0.63844 0.61895 0.76877 0.0
C2191 C 0.63197 0.63555 0.73201 0.0
C2192 C 0.61809 0.63716 0.74765 0.0
H2193 H 0.65216 0.62523 0.72941 0.0
H2194 H 0.63469 0.64069 0.71133 0.0
S2195 S 0.6043 0.62054 0.8184 0.0
N2196 N 0.62045 0.61412 0.81053 0.0
N2197 N 0.60222 0.63147 0.79134 0.0
C2198 C 0.61495 0.63021 0.77436 0.0
C2199 C 0.62503 0.62103 0.78487 0.0
C2200 C 0.99793 0.61554 0.72832 0.0
C2201 C 0.98385 0.61906 0.73992 0.0
C2202 C 0.01683 0.6243 0.73862 0.0
C2203 C 0.02246 0.63706 0.76077 0.0
H2204 H 0.99414 0.60542 0.71171 0.0
H2205 H 0.02708 0.62086 0.72938 0.0
S2206 S 0.99143 0.65194 0.79748 0.0
N2207 N 0.97708 0.63687 0.77397 0.0
N2208 N 0.01263 0.65324 0.79348 0.0
C2209 C 0.00873 0.64119 0.77204 0.0
C2210 C 0.98941 0.63217 0.76164 0.0
C2211 C 0.37555 0.01555 0.74932 0.0
C2212 C 0.39281 0.02218 0.76417 0.0
C2213 C 0.3651 0.99633 0.73995 0.0
C2214 C 0.37139 0.98302 0.74548 0.0
H2215 H 0.37031 0.02538 0.74448 0.0
H2216 H 0.352 0.99184 0.72835 0.0
S2217 S 0.41543 0.99308 0.78401 0.0
N2218 N 0.41542 0.01378 0.78451 0.0
N2219 N 0.39602 0.9779 0.76662 0.0
C2220 C 0.3885 0.98945 0.76055 0.0
C2221 C 0.39914 0.00896 0.76996 0.0
C2222 C 0.37803 0.39005 0.73782 0.0
C2223 C 0.37079 0.38719 0.76438 0.0
C2224 C 0.38692 0.37993 0.72789 0.0
C2225 C 0.38904 0.36663 0.74418 0.0
H2226 H 0.37703 0.40039 0.72468 0.0
H2227 H 0.39275 0.38302 0.70756 0.0
S2228 S 0.37182 0.35325 0.81479 0.0
N2229 N 0.3659 0.36971 0.80659 0.0
N2230 N 0.38232 0.35044 0.78776 0.0
C2231 C 0.38141 0.36324 0.77054 0.0
C2232 C 0.37231 0.37353 0.78065 0.0
C2233 C 0.01294 0.37237 0.74592 0.0
C2234 C 0.02545 0.39238 0.74969 0.0
C2235 C 0.99378 0.36314 0.75563 0.0
C2236 C 0.98642 0.37369 0.76897 0.0
H2237 H 0.01801 0.3638 0.73547 0.0
H2238 H 0.98456 0.34773 0.75222 0.0
S2239 S 0.01328 0.42638 0.78387 0.0
N2240 N 0.02908 0.42242 0.76764 0.0
N2241 N 0.99323 0.40511 0.78591 0.0
C2242 C 0.99883 0.39367 0.77294 0.0
C2243 C 0.0183 0.40301 0.7633 0.0
C2244 C 0.46116 0.22646 0.23401 0.0
C2245 C 0.44821 0.20761 0.24331 0.0
C2246 C 0.46045 0.24259 0.24392 0.0
C2247 C 0.44679 0.24055 0.26359 0.0
H2248 H 0.47193 0.2288 0.21886 0.0
H2249 H 0.47097 0.25682 0.23646 0.0
S2250 S 0.40942 0.19434 0.29437 0.0
N2251 N 0.42133 0.18787 0.27347 0.0
N2252 N 0.41961 0.2181 0.29143 0.0
C2253 C 0.4336 0.22177 0.27285 0.0
C2254 C 0.43437 0.20533 0.26283 0.0
C2255 C 0.22675 0.45743 0.27727 0.0
C2256 C 0.20806 0.44352 0.26858 0.0
C2257 C 0.24331 0.45783 0.26679 0.0
C2258 C 0.24179 0.44418 0.24745 0.0
H2259 H 0.22863 0.46839 0.29183 0.0
H2260 H 0.25742 0.46893 0.27385 0.0
S2261 S 0.19618 0.40437 0.2187 0.0
N2262 N 0.18897 0.41543 0.24006 0.0
N2263 N 0.2201 0.41622 0.22028 0.0
C2264 C 0.22318 0.42997 0.23896 0.0
C2265 C 0.20632 0.42965 0.24949 0.0
C2266 C 0.77776 0.20877 0.25072 0.0
C2267 C 0.76382 0.2107 0.26572 0.0
C2268 C 0.7945 0.22513 0.24091 0.0
C2269 C 0.79803 0.24396 0.24628 0.0
H2270 H 0.77555 0.1945 0.24617 0.0
H2271 H 0.80482 0.22306 0.22921 0.0
S2272 S 0.76619 0.25681 0.285 0.0
N2273 N 0.75472 0.23288 0.28565 0.0
N2274 N 0.78624 0.2636 0.26752 0.0
C2275 C 0.7843 0.24607 0.2615 0.0
C2276 C 0.76718 0.22945 0.27113 0.0
C2277 C 0.54753 0.78689 0.26447 0.0
C2278 C 0.55889 0.79687 0.2419 0.0
C2279 C 0.54762 0.77058 0.27494 0.0
C2280 C 0.5589 0.76349 0.26303 0.0
H2281 H 0.5386 0.79182 0.27425 0.0
H2282 H 0.53857 0.76328 0.29227 0.0
S2283 S 0.59111 0.78432 0.20351 0.0
N2284 N 0.58165 0.79844 0.20788 0.0
N2285 N 0.58186 0.76781 0.22762 0.0
C2286 C 0.57031 0.77331 0.24044 0.0
C2287 C 0.57033 0.79002 0.22991 0.0
C2288 C 0.78161 0.56726 0.2326 0.0
C2289 C 0.76384 0.55778 0.24652 0.0
C2290 C 0.79801 0.56703 0.24247 0.0
C2291 C 0.79731 0.5576 0.26684 0.0
H2292 H 0.78273 0.57458 0.21367 0.0
H2293 H 0.81136 0.57432 0.23098 0.0
S2294 S 0.75439 0.5311 0.31126 0.0
N2295 N 0.7466 0.53905 0.28612 0.0
N2296 N 0.77742 0.53866 0.30471 0.0
C2297 C 0.77971 0.54833 0.28115 0.0
C2298 C 0.76297 0.54839 0.27096 0.0
C2299 C 0.21396 0.78226 0.24271 0.0
C2300 C 0.21137 0.7636 0.24649 0.0
C2301 C 0.23074 0.79882 0.25193 0.0
C2302 C 0.24568 0.79733 0.26484 0.0
H2303 H 0.20286 0.78405 0.23268 0.0
H2304 H 0.23218 0.81291 0.24856 0.0
S2305 S 0.24602 0.75186 0.2796 0.0
N2306 N 0.22519 0.74463 0.26399 0.0
N2307 N 0.25667 0.77572 0.28134 0.0
C2308 C 0.24326 0.77877 0.26876 0.0
C2309 C 0.22612 0.76192 0.25962 0.0
C2310 C 0.55058 0.77119 0.73258 0.0
C2311 C 0.5622 0.76451 0.74439 0.0
C2312 C 0.55071 0.78776 0.74244 0.0
C2313 C 0.56261 0.79842 0.76433 0.0
H2314 H 0.54102 0.76332 0.71594 0.0
H2315 H 0.54113 0.79205 0.73311 0.0
S2316 S 0.59701 0.78776 0.80065 0.0
N2317 N 0.58655 0.77016 0.77818 0.0
N2318 N 0.58725 0.80161 0.79633 0.0
C2319 C 0.57462 0.79206 0.77591 0.0
C2320 C 0.57431 0.77506 0.76602 0.0
C2321 C 0.76861 0.55996 0.73885 0.0
C2322 C 0.76527 0.55979 0.7668 0.0
C2323 C 0.78518 0.56008 0.72893 0.0
C2324 C 0.79877 0.55965 0.74663 0.0
H2325 H 0.75826 0.55987 0.72456 0.0
H2326 H 0.78708 0.55992 0.70727 0.0
S2327 S 0.79689 0.55942 0.8215 0.0
N2328 N 0.77709 0.55958 0.81199 0.0
N2329 N 0.8081 0.55955 0.79334 0.0
C2330 C 0.79572 0.55972 0.77459 0.0
C2331 C 0.77902 0.55988 0.78468 0.0
C2332 C 0.23984 0.77823 0.74214 0.0
C2333 C 0.2422 0.7969 0.74436 0.0
C2334 C 0.22312 0.76185 0.75173 0.0
C2335 C 0.20801 0.76341 0.76399 0.0
H2336 H 0.25098 0.77621 0.73273 0.0
H2337 H 0.22214 0.74784 0.74981 0.0
S2338 S 0.20691 0.80896 0.77465 0.0
N2339 N 0.22804 0.81603 0.76004 0.0
N2340 N 0.19634 0.78516 0.77734 0.0
C2341 C 0.21011 0.78198 0.76624 0.0
C2342 C 0.22721 0.79871 0.75652 0.0
C2343 C 0.45855 0.24245 0.76944 0.0
C2344 C 0.45067 0.24231 0.74391 0.0
C2345 C 0.45839 0.22591 0.77954 0.0
C2346 C 0.45063 0.20872 0.76431 0.0
H2347 H 0.46487 0.25547 0.78169 0.0
H2348 H 0.46481 0.22673 0.79915 0.0
S2349 S 0.42806 0.20073 0.69648 0.0
N2350 N 0.43472 0.22345 0.70378 0.0
N2351 N 0.43446 0.1924 0.72274 0.0
C2352 C 0.44256 0.20833 0.73888 0.0
C2353 C 0.44255 0.2251 0.72872 0.0
C2354 C 0.21034 0.43459 0.76032 0.0
C2355 C 0.21228 0.45105 0.74686 0.0
C2356 C 0.22663 0.43401 0.76996 0.0
C2357 C 0.24549 0.4498 0.76633 0.0
H2358 H 0.1961 0.42213 0.76366 0.0
H2359 H 0.22446 0.421 0.78003 0.0
S2360 S 0.25848 0.49635 0.73255 0.0
N2361 N 0.23465 0.48341 0.73009 0.0
N2362 N 0.2651 0.48257 0.74899 0.0
C2363 C 0.24761 0.46637 0.75306 0.0
C2364 C 0.23107 0.46694 0.74317 0.0
C2365 C 0.79863 0.23561 0.73969 0.0
C2366 C 0.79948 0.24113 0.76689 0.0
C2367 C 0.78241 0.21897 0.72946 0.0
C2368 C 0.76637 0.20723 0.74601 0.0
H2369 H 0.81061 0.24423 0.72619 0.0
H2370 H 0.78244 0.21528 0.7084 0.0
S2371 S 0.7609 0.21607 0.81827 0.0
N2372 N 0.78262 0.23393 0.80997 0.0
N2373 N 0.75209 0.20278 0.79074 0.0
C2374 C 0.76704 0.21261 0.77326 0.0
C2375 C 0.78359 0.22952 0.78369 0.0
C2376 C 0.47207 0.13699 0.01839 0.0
C2377 C 0.45599 0.12287 0.03298 0.0
C2378 C 0.47216 0.13722 0.99003 0.0
C2379 C 0.45623 0.12329 0.97513 0.0
H2380 H 0.48483 0.1478 0.02897 0.0
H2381 H 0.48495 0.14819 0.97968 0.0
S2382 S 0.40992 0.08429 1.00337 0.0
N2383 N 0.4232 0.09536 0.0302 0.0
N2384 N 0.42355 0.09566 0.97693 0.0
C2385 C 0.43996 0.10927 0.98938 0.0
C2386 C 0.4398 0.10909 0.01826 0.0
C2387 C 0.32996 0.4648 0.99063 0.0
C2388 C 0.33514 0.45296 0.97585 0.0
C2389 C 0.3298 0.46468 0.019 0.0
C2390 C 0.33498 0.45283 0.03367 0.0
H2391 H 0.32631 0.47451 0.98022 0.0
H2392 H 0.32592 0.47416 0.02956 0.0
S2393 S 0.3479 0.41782 0.00496 0.0
N2394 N 0.34416 0.42797 0.97829 0.0
N2395 N 0.34433 0.42818 0.03155 0.0
C2396 C 0.33988 0.44071 0.01926 0.0
C2397 C 0.33985 0.44067 0.99039 0.0
C2398 C 0.86886 0.32285 0.99246 0.0
C2399 C 0.88543 0.33587 0.9777 0.0
C2400 C 0.86883 0.32294 0.0208 0.0
C2401 C 0.88538 0.33603 0.03552 0.0
H2402 H 0.85585 0.31237 0.982 0.0
H2403 H 0.85579 0.31255 0.0313 0.0
S2404 S 0.93198 0.37406 0.00662 0.0
N2405 N 0.9185 0.36287 0.97998 0.0
N2406 N 0.91846 0.36296 0.03326 0.0
C2407 C 0.90199 0.34923 0.02105 0.0
C2408 C 0.90201 0.34917 0.99217 0.0
C2409 C 0.55995 0.87371 0.01741 0.0
C2410 C 0.55 0.88116 0.0321 0.0
C2411 C 0.55981 0.87355 0.98904 0.0
C2412 C 0.54997 0.88113 0.97435 0.0
H2413 H 0.56775 0.8678 0.02795 0.0
H2414 H 0.5677 0.86773 0.97851 0.0
S2415 S 0.52178 0.90239 1.00325 0.0
N2416 N 0.5301 0.89635 0.02988 0.0
N2417 N 0.52984 0.89606 0.9766 0.0
C2418 C 0.53999 0.88863 0.98881 0.0
C2419 C 0.53998 0.88862 0.01766 0.0
C2420 C 0.65567 0.54152 0.02124 0.0
C2421 C 0.67309 0.55106 0.03595 0.0
C2422 C 0.6557 0.5417 0.99288 0.0
C2423 C 0.67317 0.55113 0.97825 0.0
H2424 H 0.64191 0.53409 0.03175 0.0
H2425 H 0.64197 0.53426 0.9823 0.0
S2426 S 0.72268 0.57795 0.00724 0.0
N2427 N 0.70824 0.57005 0.03385 0.0
N2428 N 0.70831 0.57023 0.98054 0.0
C2429 C 0.69069 0.56056 0.99272 0.0
C2430 C 0.69064 0.56059 0.02157 0.0
C2431 C 0.11542 0.67945 0.99172 0.0
C2432 C 0.12554 0.67239 0.97652 0.0
C2433 C 0.11575 0.67945 0.02008 0.0
C2434 C 0.12634 0.67255 0.03432 0.0
H2435 H 0.10731 0.68521 0.98163 0.0
H2436 H 0.10786 0.68513 0.03095 0.0
S2437 S 0.15405 0.65113 1.00444 0.0
N2438 N 0.14549 0.65719 0.97811 0.0
N2439 N 0.14643 0.65764 0.03135 0.0
C2440 C 0.13638 0.66531 0.01948 0.0
C2441 C 0.13592 0.66513 0.99062 0.0
C2442 C 0.89502 0.56583 0.51824 0.0
C2443 C 0.88241 0.54911 0.53302 0.0
C2444 C 0.89513 0.56572 0.48987 0.0
C2445 C 0.88266 0.54886 0.4752 0.0
H2446 H 0.90472 0.57918 0.52869 0.0
H2447 H 0.90488 0.57901 0.47935 0.0
S2448 S 0.84817 0.5008 0.5044 0.0
N2449 N 0.85795 0.51497 0.53094 0.0
N2450 N 0.85823 0.51469 0.47769 0.0
C2451 C 0.87023 0.53196 0.48977 0.0
C2452 C 0.87008 0.5321 0.51863 0.0
C2453 C 0.33334 0.89598 0.51823 0.0
C2454 C 0.33601 0.8824 0.53303 0.0
C2455 C 0.33357 0.89608 0.48987 0.0
C2456 C 0.33643 0.88258 0.47522 0.0
H2457 H 0.33084 0.90649 0.52864 0.0
H2458 H 0.33124 0.90666 0.47931 0.0
S2459 S 0.34577 0.8451 0.50429 0.0
N2460 N 0.34274 0.85584 0.53086 0.0
N2461 N 0.34305 0.85597 0.47761 0.0
C2462 C 0.33937 0.86909 0.48975 0.0
C2463 C 0.33918 0.86901 0.51862 0.0
C2464 C 0.46457 0.32442 0.5184 0.0
C2465 C 0.45857 0.33565 0.53301 0.0
C2466 C 0.46466 0.32442 0.49004 0.0
C2467 C 0.45853 0.33546 0.47521 0.0
H2468 H 0.46947 0.31574 0.52898 0.0
H2469 H 0.46939 0.31554 0.47962 0.0
S2470 S 0.44124 0.36716 0.50383 0.0
N2471 N 0.44609 0.3579 0.53054 0.0
N2472 N 0.44645 0.35805 0.47728 0.0
C2473 C 0.45241 0.34668 0.48958 0.0
C2474 C 0.45242 0.34677 0.51844 0.0
C2475 C 0.13791 0.46893 0.52071 0.0
C2476 C 0.12398 0.45278 0.53532 0.0
C2477 C 0.13802 0.469 0.49235 0.0
C2478 C 0.1242 0.45294 0.47748 0.0
H2479 H 0.14864 0.48174 0.53128 0.0
H2480 H 0.14884 0.48187 0.48197 0.0
S2481 S 0.08575 0.40641 0.50604 0.0
N2482 N 0.09674 0.41987 0.53278 0.0
N2483 N 0.09694 0.42002 0.47952 0.0
C2484 C 0.1104 0.43658 0.49183 0.0
C2485 C 0.11029 0.4365 0.52071 0.0
C2486 C 0.67225 0.13548 0.48975 0.0
C2487 C 0.67282 0.12055 0.47526 0.0
C2488 C 0.67228 0.1357 0.5181 0.0
C2489 C 0.67278 0.12096 0.5331 0.0
H2490 H 0.67149 0.14696 0.47909 0.0
H2491 H 0.6716 0.14736 0.52838 0.0
S2492 S 0.67601 0.0795 0.5051 0.0
N2493 N 0.67508 0.09128 0.4782 0.0
N2494 N 0.67489 0.09161 0.53147 0.0
C2495 C 0.6736 0.10609 0.51894 0.0
C2496 C 0.67367 0.1059 0.49006 0.0
C2497 C 0.54415 0.68202 0.49128 0.0
C2498 C 0.55001 0.67091 0.47609 0.0
C2499 C 0.54461 0.68201 0.51964 0.0
C2500 C 0.55067 0.67067 0.53384 0.0
H2501 H 0.53934 0.69092 0.48116 0.0
H2502 H 0.53992 0.69073 0.53054 0.0
S2503 S 0.56734 0.63894 0.50351 0.0
N2504 N 0.56195 0.6482 0.4773 0.0
N2505 N 0.56287 0.64822 0.53056 0.0
C2506 C 0.55654 0.65948 0.51888 0.0
C2507 C 0.55622 0.65961 0.49002 0.0
C2508 C 0.55339 0.11955 0.25251 0.0
C2509 C 0.55449 0.13695 0.24417 0.0
C2510 C 0.56922 0.11957 0.2649 0.0
C2511 C 0.58678 0.13694 0.2689 0.0
H2512 H 0.54014 0.10585 0.24957 0.0
H2513 H 0.56784 0.10586 0.27094 0.0
S2514 S 0.59706 0.1863 0.25068 0.0
N2515 N 0.57439 0.17197 0.24103 0.0
N2516 N 0.60437 0.17195 0.26378 0.0
C2517 C 0.58809 0.15442 0.26063 0.0
C2518 C 0.57185 0.15443 0.24844 0.0
C2519 C 0.43586 0.57152 0.28222 0.0
C2520 C 0.45071 0.58531 0.26564 0.0
C2521 C 0.41996 0.55501 0.27118 0.0
C2522 C 0.41831 0.55165 0.24313 0.0
H2523 H 0.43655 0.5735 0.30394 0.0
H2524 H 0.40888 0.54477 0.28472 0.0
S2525 S 0.4538 0.58271 0.19107 0.0
N2526 N 0.46307 0.59415 0.21982 0.0
N2527 N 0.43317 0.56313 0.19909 0.0
C2528 C 0.43301 0.56533 0.2263 0.0
C2529 C 0.44921 0.58215 0.23754 0.0
C2530 C 0.88651 0.4508 0.2702 0.0
C2531 C 0.87014 0.45301 0.26758 0.0
C2532 C 0.88691 0.43496 0.25862 0.0
C2533 C 0.87085 0.42061 0.24438 0.0
H2534 H 0.89925 0.46163 0.28081 0.0
H2535 H 0.89987 0.43389 0.26089 0.0
S2536 S 0.82432 0.41938 0.23247 0.0
N2537 N 0.83739 0.43942 0.25009 0.0
N2538 N 0.83806 0.40944 0.22857 0.0
C2539 C 0.85427 0.42245 0.24201 0.0
C2540 C 0.85396 0.43873 0.2535 0.0
C2541 C 0.45072 0.88537 0.23213 0.0
C2542 C 0.4563 0.87218 0.2414 0.0
C2543 C 0.4348 0.8858 0.24332 0.0
C2544 C 0.42379 0.87306 0.26422 0.0
H2545 H 0.4588 0.89552 0.21614 0.0
H2546 H 0.43109 0.89626 0.23558 0.0
S2547 S 0.43264 0.83612 0.29627 0.0
N2548 N 0.44972 0.84624 0.27302 0.0
N2549 N 0.4197 0.84703 0.29401 0.0
C2550 C 0.42902 0.85962 0.27347 0.0
C2551 C 0.44529 0.85918 0.26207 0.0
C2552 C 0.5795 0.4555 0.2701 0.0
C2553 C 0.58846 0.45448 0.24611 0.0
C2554 C 0.56336 0.43906 0.28078 0.0
C2555 C 0.55561 0.42093 0.26798 0.0
H2556 H 0.58497 0.46915 0.28069 0.0
H2557 H 0.55683 0.44056 0.29916 0.0
S2558 S 0.5732 0.41051 0.2043 0.0
N2559 N 0.58806 0.43386 0.20958 0.0
N2560 N 0.55783 0.40291 0.22989 0.0
C2561 C 0.56453 0.4196 0.24421 0.0
C2562 C 0.58093 0.43638 0.23323 0.0
C2563 C 0.12757 0.56697 0.22946 0.0
C2564 C 0.13721 0.58509 0.24242 0.0
C2565 C 0.12747 0.55074 0.24055 0.0
C2566 C 0.13694 0.55198 0.26511 0.0
H2567 H 0.11992 0.56528 0.21066 0.0
H2568 H 0.11978 0.53706 0.22989 0.0
S2569 S 0.16387 0.59602 0.3074 0.0
N2570 N 0.15634 0.60334 0.28123 0.0
N2571 N 0.15607 0.57279 0.3022 0.0
C2572 C 0.14689 0.57009 0.27809 0.0
C2573 C 0.14704 0.58665 0.26673 0.0
C2574 C 0.44491 0.86192 0.74626 0.0
C2575 C 0.45504 0.87379 0.76837 0.0
C2576 C 0.42871 0.86203 0.73534 0.0
C2577 C 0.42204 0.87397 0.7462 0.0
H2578 H 0.44984 0.85285 0.73693 0.0
H2579 H 0.42163 0.85305 0.71787 0.0
S2580 S 0.44213 0.9059 0.80621 0.0
N2581 N 0.45641 0.89661 0.80206 0.0
N2582 N 0.42584 0.89666 0.78182 0.0
C2583 C 0.43167 0.88538 0.76892 0.0
C2584 C 0.44819 0.88533 0.77992 0.0
C2585 C 0.56849 0.44318 0.78399 0.0
C2586 C 0.58599 0.45306 0.76952 0.0
C2587 C 0.5523 0.42693 0.77303 0.0
C2588 C 0.55293 0.41998 0.74711 0.0
H2589 H 0.5673 0.44809 0.80394 0.0
H2590 H 0.53913 0.41979 0.78493 0.0
S2591 S 0.59506 0.44124 0.70049 0.0
N2592 N 0.60291 0.45502 0.72773 0.0
N2593 N 0.57241 0.42455 0.70701 0.0
C2594 C 0.57039 0.42966 0.73249 0.0
C2595 C 0.58692 0.44618 0.74371 0.0
C2596 C 0.13811 0.5843 0.7423 0.0
C2597 C 0.1353 0.58529 0.77023 0.0
C2598 C 0.13824 0.56822 0.73096 0.0
C2599 C 0.13545 0.55251 0.74712 0.0
H2600 H 0.1397 0.59578 0.72897 0.0
H2601 H 0.14001 0.56783 0.7093 0.0
S2602 S 0.12976 0.54894 0.82161 0.0
N2603 N 0.13138 0.56987 0.81401 0.0
N2604 N 0.13133 0.53956 0.7926 0.0
C2605 C 0.13323 0.55357 0.77512 0.0
C2606 C 0.13323 0.56997 0.7867 0.0
C2607 C 0.5867 0.14794 0.75249 0.0
C2608 C 0.58655 0.13062 0.74644 0.0
C2609 C 0.57026 0.14766 0.76323 0.0
C2610 C 0.55302 0.13005 0.76785 0.0
H2611 H 0.59968 0.1618 0.7491 0.0
H2612 H 0.57092 0.16131 0.76755 0.0
S2613 S 0.54514 0.08074 0.75525 0.0
N2614 N 0.56775 0.09542 0.74572 0.0
N2615 N 0.53687 0.09489 0.76592 0.0
C2616 C 0.5527 0.11265 0.76187 0.0
C2617 C 0.56946 0.11293 0.75118 0.0
C2618 C 0.43673 0.56271 0.78219 0.0
C2619 C 0.42113 0.55065 0.76524 0.0
C2620 C 0.45322 0.57902 0.7719 0.0
C2621 C 0.45461 0.58398 0.74437 0.0
H2622 H 0.4364 0.55923 0.80342 0.0
H2623 H 0.46504 0.58777 0.78558 0.0
S2624 S 0.41735 0.55754 0.69182 0.0
N2625 N 0.40777 0.54511 0.71983 0.0
N2626 N 0.43882 0.57571 0.70046 0.0
C2627 C 0.43891 0.57229 0.72734 0.0
C2628 C 0.42218 0.55561 0.73777 0.0
C2629 C 0.87902 0.43817 0.78305 0.0
C2630 C 0.8731 0.42112 0.76799 0.0
C2631 C 0.87919 0.45435 0.7716 0.0
C2632 C 0.87334 0.45406 0.74472 0.0
H2633 H 0.88352 0.43902 0.8039 0.0
H2634 H 0.88385 0.46717 0.78393 0.0
S2635 S 0.85764 0.41352 0.69612 0.0
N2636 N 0.86205 0.40532 0.72431 0.0
N2637 N 0.86206 0.43564 0.70304 0.0
C2638 C 0.86735 0.43715 0.72943 0.0
C2639 C 0.86731 0.42071 0.741 0.0
loop_
_geom_bond_atom_site_label_1
_geom_bond_atom_site_label_2
_geom_bond_distance
_geom_bond_site_symmetry_2
_ccdc_geom_bond_type
Li0 N17 1.990 . S
Li0 O60 1.956 . S
Li0 O61 1.970 . S
Li0 O62 1.961 . S
Li1 N25 1.990 . S
Li1 O60 1.970 . S
Li1 O61 1.956 . S
Li1 O63 1.961 . S
Li2 N47 1.990 . S
Li2 O60 1.961 . S
Li2 O62 1.956 . S
Li2 O63 1.970 . S
Li3 N53 1.990 . S
Li3 O61 1.961 . S
Li3 O62 1.970 . S
Li3 O63 1.956 . S
C4 C6 1.348 . S
C4 C7 1.356 . S
C4 O60 1.325 . S
N5 C8 1.314 . S
N5 C9 1.279 . S
C6 C4 1.348 . S
C6 C8 1.353 . S
C6 H64 0.929 . S
C7 C4 1.356 . S
C7 C9 1.358 . S
C7 H65 0.930 . S
C8 N5 1.314 . S
C8 C6 1.353 . S
C8 H66 0.930 . S
C9 N5 1.279 . S
C9 C7 1.358 . S
C9 H67 0.930 . S
C10 C13 1.348 . S
C10 C14 1.356 . S
C10 O61 1.325 . S
C11 N12 1.279 . S
C11 C14 1.358 . S
C11 H68 0.930 . S
N12 C11 1.279 . S
N12 C15 1.314 . S
C13 C10 1.348 . S
C13 C15 1.353 . S
C13 H69 0.929 . S
C14 C10 1.356 . S
C14 C11 1.358 . S
C14 H70 0.930 . S
C15 N12 1.314 . S
C15 C13 1.353 . S
C15 H71 0.930 . S
C16 N17 1.314 . S
C16 C21 1.353 . S
C16 H22 0.930 . S
N17 Li0 1.990 . S
N17 C16 1.314 . S
N17 C19 1.279 . S
C18 C19 1.358 . S
C18 C20 1.356 . S
C18 H72 0.930 . S
C19 N17 1.279 . S
C19 C18 1.358 . S
C19 H23 0.930 . S
C20 C18 1.356 . S
C20 C21 1.348 . S
C21 C16 1.353 . S
C21 C20 1.348 . S
C21 H73 0.929 . S
H22 C16 0.930 . S
H23 C19 0.930 . S
C24 N25 1.314 . S
C24 C26 1.353 . S
C24 H30 0.930 . S
N25 Li1 1.990 . S
N25 C24 1.314 . S
N25 C28 1.279 . S
C26 C24 1.353 . S
C26 C29 1.348 . S
C26 H74 0.929 . S
C27 C28 1.358 . S
C27 C29 1.356 . S
C27 H75 0.930 . S
C28 N25 1.279 . S
C28 C27 1.358 . S
C28 H31 0.930 . S
C29 C26 1.348 . S
C29 C27 1.356 . S
H30 C24 0.930 . S
H31 C28 0.930 . S
C32 C34 1.348 . S
C32 C35 1.356 . S
C32 O62 1.325 . S
N33 C36 1.314 . S
N33 C37 1.279 . S
C34 C32 1.348 . S
C34 C36 1.353 . S
C34 H76 0.929 . S
C35 C32 1.356 . S
C35 C37 1.358 . S
C35 H77 0.930 . S
C36 N33 1.314 . S
C36 C34 1.353 . S
C36 H78 0.930 . S
C37 N33 1.279 . S
C37 C35 1.358 . S
C37 H79 0.930 . S
C38 C39 1.348 . S
C38 C40 1.356 . S
C38 O63 1.325 . S
C39 C38 1.348 . S
C39 C41 1.353 . S
C39 H80 0.929 . S
C40 C38 1.356 . S
C40 C42 1.358 . S
C40 H81 0.930 . S
C41 C39 1.353 . S
C41 N43 1.314 . S
C41 H82 0.930 . S
C42 C40 1.358 . S
C42 N43 1.279 . S
C42 H83 0.930 . S
N43 C41 1.314 . S
N43 C42 1.279 . S
C44 C46 1.353 . S
C44 N47 1.314 . S
C44 H50 0.930 . S
C45 N47 1.279 . S
C45 C48 1.358 . S
C45 H51 0.930 . S
C46 C44 1.353 . S
C46 C49 1.348 . S
C46 H84 0.929 . S
N47 Li2 1.990 . S
N47 C44 1.314 . S
N47 C45 1.279 . S
C48 C45 1.358 . S
C48 C49 1.356 . S
C48 H85 0.930 . S
C49 C46 1.348 . S
C49 C48 1.356 . S
H50 C44 0.930 . S
H51 C45 0.930 . S
C52 N53 1.314 . S
C52 C54 1.353 . S
C52 H58 0.930 . S
N53 Li3 1.990 . S
N53 C52 1.314 . S
N53 C56 1.279 . S
C54 C52 1.353 . S
C54 C57 1.348 . S
C54 H86 0.929 . S
C55 C56 1.358 . S
C55 C57 1.356 . S
C55 H87 0.930 . S
C56 N53 1.279 . S
C56 C55 1.358 . S
C56 H59 0.930 . S
C57 C54 1.348 . S
C57 C55 1.356 . S
H58 C52 0.930 . S
H59 C56 0.930 . S
O60 Li0 1.956 . S
O60 Li1 1.970 . S
O60 Li2 1.961 . S
O60 C4 1.325 . S
O61 Li0 1.970 . S
O61 Li1 1.956 . S
O61 Li3 1.961 . S
O61 C10 1.325 . S
O62 Li0 1.961 . S
O62 Li2 1.956 . S
O62 Li3 1.970 . S
O62 C32 1.325 . S
O63 Li1 1.961 . S
O63 Li2 1.970 . S
O63 Li3 1.956 . S
O63 C38 1.325 . S
H64 C6 0.929 . S
H65 C7 0.930 . S
H66 C8 0.930 . S
H67 C9 0.930 . S
H68 C11 0.930 . S
H69 C13 0.929 . S
H70 C14 0.930 . S
H71 C15 0.930 . S
H72 C18 0.930 . S
H73 C21 0.929 . S
H74 C26 0.929 . S
H75 C27 0.930 . S
H76 C34 0.929 . S
H77 C35 0.930 . S
H78 C36 0.930 . S
H79 C37 0.930 . S
H80 C39 0.929 . S
H81 C40 0.930 . S
H82 C41 0.930 . S
H83 C42 0.930 . S
H84 C46 0.929 . S
H85 C48 0.930 . S
H86 C54 0.929 . S
H87 C55 0.930 . S
Li88 N105 1.990 . S
Li88 O148 1.956 . S
Li88 O149 1.970 . S
Li88 O150 1.961 . S
Li89 N113 1.990 . S
Li89 O148 1.970 . S
Li89 O149 1.956 . S
Li89 O151 1.961 . S
Li90 N135 1.990 . S
Li90 O148 1.961 . S
Li90 O150 1.956 . S
Li90 O151 1.970 . S
Li91 N141 1.990 . S
Li91 O149 1.961 . S
Li91 O150 1.970 . S
Li91 O151 1.956 . S
C92 C94 1.348 . S
C92 C95 1.356 . S
C92 O148 1.325 . S
N93 C96 1.314 . S
N93 C97 1.279 . S
C94 C92 1.348 . S
C94 C96 1.353 . S
C94 H152 0.929 . S
C95 C92 1.356 . S
C95 C97 1.358 . S
C95 H153 0.930 . S
C96 N93 1.314 . S
C96 C94 1.353 . S
C96 H154 0.930 . S
C97 N93 1.279 . S
C97 C95 1.358 . S
C97 H155 0.930 . S
C98 C101 1.348 . S
C98 C102 1.356 . S
C98 O149 1.325 . S
C99 N100 1.279 . S
C99 C102 1.358 . S
C99 H156 0.930 . S
N100 C99 1.279 . S
N100 C103 1.314 . S
C101 C98 1.348 . S
C101 C103 1.353 . S
C101 H157 0.929 . S
C102 C98 1.356 . S
C102 C99 1.358 . S
C102 H158 0.930 . S
C103 N100 1.314 . S
C103 C101 1.353 . S
C103 H159 0.930 . S
C104 N105 1.314 . S
C104 C109 1.353 . S
C104 H110 0.930 . S
N105 Li88 1.990 . S
N105 C104 1.314 . S
N105 C107 1.279 . S
C106 C107 1.358 . S
C106 C108 1.356 . S
C106 H160 0.930 . S
C107 N105 1.279 . S
C107 C106 1.358 . S
C107 H111 0.930 . S
C108 C106 1.356 . S
C108 C109 1.348 . S
C109 C104 1.353 . S
C109 C108 1.348 . S
C109 H161 0.929 . S
H110 C104 0.930 . S
H111 C107 0.930 . S
C112 N113 1.314 . S
C112 C114 1.353 . S
C112 H118 0.930 . S
N113 Li89 1.990 . S
N113 C112 1.314 . S
N113 C116 1.279 . S
C114 C112 1.353 . S
C114 C117 1.348 . S
C114 H162 0.929 . S
C115 C116 1.358 . S
C115 C117 1.356 . S
C115 H163 0.930 . S
C116 N113 1.279 . S
C116 C115 1.358 . S
C116 H119 0.930 . S
C117 C114 1.348 . S
C117 C115 1.356 . S
H118 C112 0.930 . S
H119 C116 0.930 . S
C120 C122 1.348 . S
C120 C123 1.356 . S
C120 O150 1.325 . S
N121 C124 1.314 . S
N121 C125 1.279 . S
C122 C120 1.348 . S
C122 C124 1.353 . S
C122 H164 0.929 . S
C123 C120 1.356 . S
C123 C125 1.358 . S
C123 H165 0.930 . S
C124 N121 1.314 . S
C124 C122 1.353 . S
C124 H166 0.930 . S
C125 N121 1.279 . S
C125 C123 1.358 . S
C125 H167 0.930 . S
C126 C127 1.348 . S
C126 C128 1.356 . S
C126 O151 1.325 . S
C127 C126 1.348 . S
C127 C129 1.353 . S
C127 H168 0.929 . S
C128 C126 1.356 . S
C128 C130 1.358 . S
C128 H169 0.930 . S
C129 C127 1.353 . S
C129 N131 1.314 . S
C129 H170 0.930 . S
C130 C128 1.358 . S
C130 N131 1.279 . S
C130 H171 0.930 . S
N131 C129 1.314 . S
N131 C130 1.279 . S
C132 C134 1.353 . S
C132 N135 1.314 . S
C132 H138 0.930 . S
C133 N135 1.279 . S
C133 C136 1.358 . S
C133 H139 0.930 . S
C134 C132 1.353 . S
C134 C137 1.348 . S
C134 H172 0.929 . S
N135 Li90 1.990 . S
N135 C132 1.314 . S
N135 C133 1.279 . S
C136 C133 1.358 . S
C136 C137 1.356 . S
C136 H173 0.930 . S
C137 C134 1.348 . S
C137 C136 1.356 . S
H138 C132 0.930 . S
H139 C133 0.930 . S
C140 N141 1.314 . S
C140 C142 1.353 . S
C140 H146 0.930 . S
N141 Li91 1.990 . S
N141 C140 1.314 . S
N141 C144 1.279 . S
C142 C140 1.353 . S
C142 C145 1.348 . S
C142 H174 0.929 . S
C143 C144 1.358 . S
C143 C145 1.356 . S
C143 H175 0.930 . S
C144 N141 1.279 . S
C144 C143 1.358 . S
C144 H147 0.930 . S
C145 C142 1.348 . S
C145 C143 1.356 . S
H146 C140 0.930 . S
H147 C144 0.930 . S
O148 Li88 1.956 . S
O148 Li89 1.970 . S
O148 Li90 1.961 . S
O148 C92 1.325 . S
O149 Li88 1.970 . S
O149 Li89 1.956 . S
O149 Li91 1.961 . S
O149 C98 1.325 . S
O150 Li88 1.961 . S
O150 Li90 1.956 . S
O150 Li91 1.970 . S
O150 C120 1.325 . S
O151 Li89 1.961 . S
O151 Li90 1.970 . S
O151 Li91 1.956 . S
O151 C126 1.325 . S
H152 C94 0.929 . S
H153 C95 0.930 . S
H154 C96 0.930 . S
H155 C97 0.930 . S
H156 C99 0.930 . S
H157 C101 0.929 . S
H158 C102 0.930 . S
H159 C103 0.930 . S
H160 C106 0.930 . S
H161 C109 0.929 . S
H162 C114 0.929 . S
H163 C115 0.930 . S
H164 C122 0.929 . S
H165 C123 0.930 . S
H166 C124 0.930 . S
H167 C125 0.930 . S
H168 C127 0.929 . S
H169 C128 0.930 . S
H170 C129 0.930 . S
H171 C130 0.930 . S
H172 C134 0.929 . S
H173 C136 0.930 . S
H174 C142 0.929 . S
H175 C143 0.930 . S
Li176 N193 1.990 . S
Li176 O236 1.956 . S
Li176 O237 1.970 . S
Li176 O238 1.961 . S
Li177 N201 1.990 . S
Li177 O236 1.970 . S
Li177 O237 1.956 . S
Li177 O239 1.961 . S
Li178 N223 1.990 . S
Li178 O236 1.961 . S
Li178 O238 1.956 . S
Li178 O239 1.970 . S
Li179 N229 1.990 . S
Li179 O237 1.961 . S
Li179 O238 1.970 . S
Li179 O239 1.956 . S
C180 C182 1.348 . S
C180 C183 1.356 . S
C180 O236 1.325 . S
N181 C184 1.314 . S
N181 C185 1.279 . S
C182 C180 1.348 . S
C182 C184 1.353 . S
C182 H240 0.929 . S
C183 C180 1.356 . S
C183 C185 1.358 . S
C183 H241 0.930 . S
C184 N181 1.314 . S
C184 C182 1.353 . S
C184 H242 0.930 . S
C185 N181 1.279 . S
C185 C183 1.358 . S
C185 H243 0.930 . S
C186 C189 1.348 . S
C186 C190 1.356 . S
C186 O237 1.325 . S
C187 N188 1.279 . S
C187 C190 1.358 . S
C187 H244 0.930 . S
N188 C187 1.279 . S
N188 C191 1.314 . S
C189 C186 1.348 . S
C189 C191 1.353 . S
C189 H245 0.929 . S
C190 C186 1.356 . S
C190 C187 1.358 . S
C190 H246 0.930 . S
C191 N188 1.314 . S
C191 C189 1.353 . S
C191 H247 0.930 . S
C192 N193 1.314 . S
C192 C197 1.353 . S
C192 H198 0.930 . S
N193 Li176 1.990 . S
N193 C192 1.314 . S
N193 C195 1.279 . S
C194 C195 1.358 . S
C194 C196 1.356 . S
C194 H248 0.930 . S
C195 N193 1.279 . S
C195 C194 1.358 . S
C195 H199 0.930 . S
C196 C194 1.356 . S
C196 C197 1.348 . S
C197 C192 1.353 . S
C197 C196 1.348 . S
C197 H249 0.929 . S
H198 C192 0.930 . S
H199 C195 0.930 . S
C200 N201 1.314 . S
C200 C202 1.353 . S
C200 H206 0.930 . S
N201 Li177 1.990 . S
N201 C200 1.314 . S
N201 C204 1.279 . S
C202 C200 1.353 . S
C202 C205 1.348 . S
C202 H250 0.929 . S
C203 C204 1.358 . S
C203 C205 1.356 . S
C203 H251 0.930 . S
C204 N201 1.279 . S
C204 C203 1.358 . S
C204 H207 0.930 . S
C205 C202 1.348 . S
C205 C203 1.356 . S
H206 C200 0.930 . S
H207 C204 0.930 . S
C208 C210 1.348 . S
C208 C211 1.356 . S
C208 O238 1.325 . S
N209 C212 1.314 . S
N209 C213 1.279 . S
C210 C208 1.348 . S
C210 C212 1.353 . S
C210 H252 0.929 . S
C211 C208 1.356 . S
C211 C213 1.358 . S
C211 H253 0.930 . S
C212 N209 1.314 . S
C212 C210 1.353 . S
C212 H254 0.930 . S
C213 N209 1.279 . S
C213 C211 1.358 . S
C213 H255 0.930 . S
C214 C215 1.348 . S
C214 C216 1.356 . S
C214 O239 1.325 . S
C215 C214 1.348 . S
C215 C217 1.353 . S
C215 H256 0.929 . S
C216 C214 1.356 . S
C216 C218 1.358 . S
C216 H257 0.930 . S
C217 C215 1.353 . S
C217 N219 1.314 . S
C217 H258 0.930 . S
C218 C216 1.358 . S
C218 N219 1.279 . S
C218 H259 0.930 . S
N219 C217 1.314 . S
N219 C218 1.279 . S
C220 C222 1.353 . S
C220 N223 1.314 . S
C220 H226 0.930 . S
C221 N223 1.279 . S
C221 C224 1.358 . S
C221 H227 0.930 . S
C222 C220 1.353 . S
C222 C225 1.348 . S
C222 H260 0.929 . S
N223 Li178 1.990 . S
N223 C220 1.314 . S
N223 C221 1.279 . S
C224 C221 1.358 . S
C224 C225 1.356 . S
C224 H261 0.930 . S
C225 C222 1.348 . S
C225 C224 1.356 . S
H226 C220 0.930 . S
H227 C221 0.930 . S
C228 N229 1.314 . S
C228 C230 1.353 . S
C228 H234 0.930 . S
N229 Li179 1.990 . S
N229 C228 1.314 . S
N229 C232 1.279 . S
C230 C228 1.353 . S
C230 C233 1.348 . S
C230 H262 0.929 . S
C231 C232 1.358 . S
C231 C233 1.356 . S
C231 H263 0.930 . S
C232 N229 1.279 . S
C232 C231 1.358 . S
C232 H235 0.930 . S
C233 C230 1.348 . S
C233 C231 1.356 . S
H234 C228 0.930 . S
H235 C232 0.930 . S
O236 Li176 1.956 . S
O236 Li177 1.970 . S
O236 Li178 1.961 . S
O236 C180 1.325 . S
O237 Li176 1.970 . S
O237 Li177 1.956 . S
O237 Li179 1.961 . S
O237 C186 1.325 . S
O238 Li176 1.961 . S
O238 Li178 1.956 . S
O238 Li179 1.970 . S
O238 C208 1.325 . S
O239 Li177 1.961 . S
O239 Li178 1.970 . S
O239 Li179 1.956 . S
O239 C214 1.325 . S
H240 C182 0.929 . S
H241 C183 0.930 . S
H242 C184 0.930 . S
H243 C185 0.930 . S
H244 C187 0.930 . S
H245 C189 0.929 . S
H246 C190 0.930 . S
H247 C191 0.930 . S
H248 C194 0.930 . S
H249 C197 0.929 . S
H250 C202 0.929 . S
H251 C203 0.930 . S
H252 C210 0.929 . S
H253 C211 0.930 . S
H254 C212 0.930 . S
H255 C213 0.930 . S
H256 C215 0.929 . S
H257 C216 0.930 . S
H258 C217 0.930 . S
H259 C218 0.930 . S
H260 C222 0.929 . S
H261 C224 0.930 . S
H262 C230 0.929 . S
H263 C231 0.930 . S
Li264 N281 1.990 . S
Li264 O324 1.956 . S
Li264 O325 1.970 . S
Li264 O326 1.961 . S
Li265 N289 1.990 . S
Li265 O324 1.970 . S
Li265 O325 1.956 . S
Li265 O327 1.961 . S
Li266 N311 1.990 . S
Li266 O324 1.961 . S
Li266 O326 1.956 . S
Li266 O327 1.970 . S
Li267 N317 1.990 . S
Li267 O325 1.961 . S
Li267 O326 1.970 . S
Li267 O327 1.956 . S
C268 C270 1.348 . S
C268 C271 1.356 . S
C268 O324 1.325 . S
N269 C272 1.314 . S
N269 C273 1.279 . S
C270 C268 1.348 . S
C270 C272 1.353 . S
C270 H328 0.929 . S
C271 C268 1.356 . S
C271 C273 1.358 . S
C271 H329 0.930 . S
C272 N269 1.314 . S
C272 C270 1.353 . S
C272 H330 0.930 . S
C273 N269 1.279 . S
C273 C271 1.358 . S
C273 H331 0.930 . S
C274 C277 1.348 . S
C274 C278 1.356 . S
C274 O325 1.325 . S
C275 N276 1.279 . S
C275 C278 1.358 . S
C275 H332 0.930 . S
N276 C275 1.279 . S
N276 C279 1.314 . S
C277 C274 1.348 . S
C277 C279 1.353 . S
C277 H333 0.929 . S
C278 C274 1.356 . S
C278 C275 1.358 . S
C278 H334 0.930 . S
C279 N276 1.314 . S
C279 C277 1.353 . S
C279 H335 0.930 . S
C280 N281 1.314 . S
C280 C285 1.353 . S
C280 H286 0.930 . S
N281 Li264 1.990 . S
N281 C280 1.314 . S
N281 C283 1.279 . S
C282 C283 1.358 . S
C282 C284 1.356 . S
C282 H336 0.930 . S
C283 N281 1.279 . S
C283 C282 1.358 . S
C283 H287 0.930 . S
C284 C282 1.356 . S
C284 C285 1.348 . S
C285 C280 1.353 . S
C285 C284 1.348 . S
C285 H337 0.929 . S
H286 C280 0.930 . S
H287 C283 0.930 . S
C288 N289 1.314 . S
C288 C290 1.353 . S
C288 H294 0.930 . S
N289 Li265 1.990 . S
N289 C288 1.314 . S
N289 C292 1.279 . S
C290 C288 1.353 . S
C290 C293 1.348 . S
C290 H338 0.929 . S
C291 C292 1.358 . S
C291 C293 1.356 . S
C291 H339 0.930 . S
C292 N289 1.279 . S
C292 C291 1.358 . S
C292 H295 0.930 . S
C293 C290 1.348 . S
C293 C291 1.356 . S
H294 C288 0.930 . S
H295 C292 0.930 . S
C296 C298 1.348 . S
C296 C299 1.356 . S
C296 O326 1.325 . S
N297 C300 1.314 . S
N297 C301 1.279 . S
C298 C296 1.348 . S
C298 C300 1.353 . S
C298 H340 0.929 . S
C299 C296 1.356 . S
C299 C301 1.358 . S
C299 H341 0.930 . S
C300 N297 1.314 . S
C300 C298 1.353 . S
C300 H342 0.930 . S
C301 N297 1.279 . S
C301 C299 1.358 . S
C301 H343 0.930 . S
C302 C303 1.348 . S
C302 C304 1.356 . S
C302 O327 1.325 . S
C303 C302 1.348 . S
C303 C305 1.353 . S
C303 H344 0.929 . S
C304 C302 1.356 . S
C304 C306 1.358 . S
C304 H345 0.930 . S
C305 C303 1.353 . S
C305 N307 1.314 . S
C305 H346 0.930 . S
C306 C304 1.358 . S
C306 N307 1.279 . S
C306 H347 0.930 . S
N307 C305 1.314 . S
N307 C306 1.279 . S
C308 C310 1.353 . S
C308 N311 1.314 . S
C308 H314 0.930 . S
C309 N311 1.279 . S
C309 C312 1.358 . S
C309 H315 0.930 . S
C310 C308 1.353 . S
C310 C313 1.348 . S
C310 H348 0.929 . S
N311 Li266 1.990 . S
N311 C308 1.314 . S
N311 C309 1.279 . S
C312 C309 1.358 . S
C312 C313 1.356 . S
C312 H349 0.930 . S
C313 C310 1.348 . S
C313 C312 1.356 . S
H314 C308 0.930 . S
H315 C309 0.930 . S
C316 N317 1.314 . S
C316 C318 1.353 . S
C316 H322 0.930 . S
N317 Li267 1.990 . S
N317 C316 1.314 . S
N317 C320 1.279 . S
C318 C316 1.353 . S
C318 C321 1.348 . S
C318 H350 0.929 . S
C319 C320 1.358 . S
C319 C321 1.356 . S
C319 H351 0.930 . S
C320 N317 1.279 . S
C320 C319 1.358 . S
C320 H323 0.930 . S
C321 C318 1.348 . S
C321 C319 1.356 . S
H322 C316 0.930 . S
H323 C320 0.930 . S
O324 Li264 1.956 . S
O324 Li265 1.970 . S
O324 Li266 1.961 . S
O324 C268 1.325 . S
O325 Li264 1.970 . S
O325 Li265 1.956 . S
O325 Li267 1.961 . S
O325 C274 1.325 . S
O326 Li264 1.961 . S
O326 Li266 1.956 . S
O326 Li267 1.970 . S
O326 C296 1.325 . S
O327 Li265 1.961 . S
O327 Li266 1.970 . S
O327 Li267 1.956 . S
O327 C302 1.325 . S
H328 C270 0.929 . S
H329 C271 0.930 . S
H330 C272 0.930 . S
H331 C273 0.930 . S
H332 C275 0.930 . S
H333 C277 0.929 . S
H334 C278 0.930 . S
H335 C279 0.930 . S
H336 C282 0.930 . S
H337 C285 0.929 . S
H338 C290 0.929 . S
H339 C291 0.930 . S
H340 C298 0.929 . S
H341 C299 0.930 . S
H342 C300 0.930 . S
H343 C301 0.930 . S
H344 C303 0.929 . S
H345 C304 0.930 . S
H346 C305 0.930 . S
H347 C306 0.930 . S
H348 C310 0.929 . S
H349 C312 0.930 . S
H350 C318 0.929 . S
H351 C319 0.930 . S
Li352 N369 1.990 . S
Li352 O412 1.956 . S
Li352 O413 1.970 . S
Li352 O414 1.961 . S
Li353 N377 1.990 . S
Li353 O412 1.970 . S
Li353 O413 1.956 . S
Li353 O415 1.961 . S
Li354 N399 1.990 . S
Li354 O412 1.961 . S
Li354 O414 1.956 . S
Li354 O415 1.970 . S
Li355 N405 1.990 . S
Li355 O413 1.961 . S
Li355 O414 1.970 . S
Li355 O415 1.956 . S
C356 C358 1.348 . S
C356 C359 1.356 . S
C356 O412 1.325 . S
N357 C360 1.314 . S
N357 C361 1.279 . S
C358 C356 1.348 . S
C358 C360 1.353 . S
C358 H416 0.929 . S
C359 C356 1.356 . S
C359 C361 1.358 . S
C359 H417 0.930 . S
C360 N357 1.314 . S
C360 C358 1.353 . S
C360 H418 0.930 . S
C361 N357 1.279 . S
C361 C359 1.358 . S
C361 H419 0.930 . S
C362 C365 1.348 . S
C362 C366 1.356 . S
C362 O413 1.325 . S
C363 N364 1.279 . S
C363 C366 1.358 . S
C363 H420 0.930 . S
N364 C363 1.279 . S
N364 C367 1.314 . S
C365 C362 1.348 . S
C365 C367 1.353 . S
C365 H421 0.929 . S
C366 C362 1.356 . S
C366 C363 1.358 . S
C366 H422 0.930 . S
C367 N364 1.314 . S
C367 C365 1.353 . S
C367 H423 0.930 . S
C368 N369 1.314 . S
C368 C373 1.353 . S
C368 H374 0.930 . S
N369 Li352 1.990 . S
N369 C368 1.314 . S
N369 C371 1.279 . S
C370 C371 1.358 . S
C370 C372 1.356 . S
C370 H424 0.930 . S
C371 N369 1.279 . S
C371 C370 1.358 . S
C371 H375 0.930 . S
C372 C370 1.356 . S
C372 C373 1.348 . S
C373 C368 1.353 . S
C373 C372 1.348 . S
C373 H425 0.929 . S
H374 C368 0.930 . S
H375 C371 0.930 . S
C376 N377 1.314 . S
C376 C378 1.353 . S
C376 H382 0.930 . S
N377 Li353 1.990 . S
N377 C376 1.314 . S
N377 C380 1.279 . S
C378 C376 1.353 . S
C378 C381 1.348 . S
C378 H426 0.929 . S
C379 C380 1.358 . S
C379 C381 1.356 . S
C379 H427 0.930 . S
C380 N377 1.279 . S
C380 C379 1.358 . S
C380 H383 0.930 . S
C381 C378 1.348 . S
C381 C379 1.356 . S
H382 C376 0.930 . S
H383 C380 0.930 . S
C384 C386 1.348 . S
C384 C387 1.356 . S
C384 O414 1.325 . S
N385 C388 1.314 . S
N385 C389 1.279 . S
C386 C384 1.348 . S
C386 C388 1.353 . S
C386 H428 0.929 . S
C387 C384 1.356 . S
C387 C389 1.358 . S
C387 H429 0.930 . S
C388 N385 1.314 . S
C388 C386 1.353 . S
C388 H430 0.930 . S
C389 N385 1.279 . S
C389 C387 1.358 . S
C389 H431 0.930 . S
C390 C391 1.348 . S
C390 C392 1.356 . S
C390 O415 1.325 . S
C391 C390 1.348 . S
C391 C393 1.353 . S
C391 H432 0.929 . S
C392 C390 1.356 . S
C392 C394 1.358 . S
C392 H433 0.930 . S
C393 C391 1.353 . S
C393 N395 1.314 . S
C393 H434 0.930 . S
C394 C392 1.358 . S
C394 N395 1.279 . S
C394 H435 0.930 . S
N395 C393 1.314 . S
N395 C394 1.279 . S
C396 C398 1.353 . S
C396 N399 1.314 . S
C396 H402 0.930 . S
C397 N399 1.279 . S
C397 C400 1.358 . S
C397 H403 0.930 . S
C398 C396 1.353 . S
C398 C401 1.348 . S
C398 H436 0.929 . S
N399 Li354 1.990 . S
N399 C396 1.314 . S
N399 C397 1.279 . S
C400 C397 1.358 . S
C400 C401 1.356 . S
C400 H437 0.930 . S
C401 C398 1.348 . S
C401 C400 1.356 . S
H402 C396 0.930 . S
H403 C397 0.930 . S
C404 N405 1.314 . S
C404 C406 1.353 . S
C404 H410 0.930 . S
N405 Li355 1.990 . S
N405 C404 1.314 . S
N405 C408 1.279 . S
C406 C404 1.353 . S
C406 C409 1.348 . S
C406 H438 0.929 . S
C407 C408 1.358 . S
C407 C409 1.356 . S
C407 H439 0.930 . S
C408 N405 1.279 . S
C408 C407 1.358 . S
C408 H411 0.930 . S
C409 C406 1.348 . S
C409 C407 1.356 . S
H410 C404 0.930 . S
H411 C408 0.930 . S
O412 Li352 1.956 . S
O412 Li353 1.970 . S
O412 Li354 1.961 . S
O412 C356 1.325 . S
O413 Li352 1.970 . S
O413 Li353 1.956 . S
O413 Li355 1.961 . S
O413 C362 1.325 . S
O414 Li352 1.961 . S
O414 Li354 1.956 . S
O414 Li355 1.970 . S
O414 C384 1.325 . S
O415 Li353 1.961 . S
O415 Li354 1.970 . S
O415 Li355 1.956 . S
O415 C390 1.325 . S
H416 C358 0.929 . S
H417 C359 0.930 . S
H418 C360 0.930 . S
H419 C361 0.930 . S
H420 C363 0.930 . S
H421 C365 0.929 . S
H422 C366 0.930 . S
H423 C367 0.930 . S
H424 C370 0.930 . S
H425 C373 0.929 . S
H426 C378 0.929 . S
H427 C379 0.930 . S
H428 C386 0.929 . S
H429 C387 0.930 . S
H430 C388 0.930 . S
H431 C389 0.930 . S
H432 C391 0.929 . S
H433 C392 0.930 . S
H434 C393 0.930 . S
H435 C394 0.930 . S
H436 C398 0.929 . S
H437 C400 0.930 . S
H438 C406 0.929 . S
H439 C407 0.930 . S
Li440 N457 1.990 . S
Li440 O500 1.956 . S
Li440 O501 1.970 . S
Li440 O502 1.961 . S
Li441 N465 1.990 . S
Li441 O500 1.970 . S
Li441 O501 1.956 . S
Li441 O503 1.961 . S
Li442 N487 1.990 . S
Li442 O500 1.961 . S
Li442 O502 1.956 . S
Li442 O503 1.970 . S
Li443 N493 1.990 . S
Li443 O501 1.961 . S
Li443 O502 1.970 . S
Li443 O503 1.956 . S
C444 C446 1.348 . S
C444 C447 1.356 . S
C444 O500 1.325 . S
N445 C448 1.314 . S
N445 C449 1.279 . S
C446 C444 1.348 . S
C446 C448 1.353 . S
C446 H504 0.929 . S
C447 C444 1.356 . S
C447 C449 1.358 . S
C447 H505 0.930 . S
C448 N445 1.314 . S
C448 C446 1.353 . S
C448 H506 0.930 . S
C449 N445 1.279 . S
C449 C447 1.358 . S
C449 H507 0.930 . S
C450 C453 1.348 . S
C450 C454 1.356 . S
C450 O501 1.325 . S
C451 N452 1.279 . S
C451 C454 1.358 . S
C451 H508 0.930 . S
N452 C451 1.279 . S
N452 C455 1.314 . S
C453 C450 1.348 . S
C453 C455 1.353 . S
C453 H509 0.929 . S
C454 C450 1.356 . S
C454 C451 1.358 . S
C454 H510 0.930 . S
C455 N452 1.314 . S
C455 C453 1.353 . S
C455 H511 0.930 . S
C456 N457 1.314 . S
C456 C461 1.353 . S
C456 H462 0.930 . S
N457 Li440 1.990 . S
N457 C456 1.314 . S
N457 C459 1.279 . S
C458 C459 1.358 . S
C458 C460 1.356 . S
C458 H512 0.930 . S
C459 N457 1.279 . S
C459 C458 1.358 . S
C459 H463 0.930 . S
C460 C458 1.356 . S
C460 C461 1.348 . S
C461 C456 1.353 . S
C461 C460 1.348 . S
C461 H513 0.929 . S
H462 C456 0.930 . S
H463 C459 0.930 . S
C464 N465 1.314 . S
C464 C466 1.353 . S
C464 H470 0.930 . S
N465 Li441 1.990 . S
N465 C464 1.314 . S
N465 C468 1.279 . S
C466 C464 1.353 . S
C466 C469 1.348 . S
C466 H514 0.929 . S
C467 C468 1.358 . S
C467 C469 1.356 . S
C467 H515 0.930 . S
C468 N465 1.279 . S
C468 C467 1.358 . S
C468 H471 0.930 . S
C469 C466 1.348 . S
C469 C467 1.356 . S
H470 C464 0.930 . S
H471 C468 0.930 . S
C472 C474 1.348 . S
C472 C475 1.356 . S
C472 O502 1.325 . S
N473 C476 1.314 . S
N473 C477 1.279 . S
C474 C472 1.348 . S
C474 C476 1.353 . S
C474 H516 0.929 . S
C475 C472 1.356 . S
C475 C477 1.358 . S
C475 H517 0.930 . S
C476 N473 1.314 . S
C476 C474 1.353 . S
C476 H518 0.930 . S
C477 N473 1.279 . S
C477 C475 1.358 . S
C477 H519 0.930 . S
C478 C479 1.348 . S
C478 C480 1.356 . S
C478 O503 1.325 . S
C479 C478 1.348 . S
C479 C481 1.353 . S
C479 H520 0.929 . S
C480 C478 1.356 . S
C480 C482 1.358 . S
C480 H521 0.930 . S
C481 C479 1.353 . S
C481 N483 1.314 . S
C481 H522 0.930 . S
C482 C480 1.358 . S
C482 N483 1.279 . S
C482 H523 0.930 . S
N483 C481 1.314 . S
N483 C482 1.279 . S
C484 C486 1.353 . S
C484 N487 1.314 . S
C484 H490 0.930 . S
C485 N487 1.279 . S
C485 C488 1.358 . S
C485 H491 0.930 . S
C486 C484 1.353 . S
C486 C489 1.348 . S
C486 H524 0.929 . S
N487 Li442 1.990 . S
N487 C484 1.314 . S
N487 C485 1.279 . S
C488 C485 1.358 . S
C488 C489 1.356 . S
C488 H525 0.930 . S
C489 C486 1.348 . S
C489 C488 1.356 . S
H490 C484 0.930 . S
H491 C485 0.930 . S
C492 N493 1.314 . S
C492 C494 1.353 . S
C492 H498 0.930 . S
N493 Li443 1.990 . S
N493 C492 1.314 . S
N493 C496 1.279 . S
C494 C492 1.353 . S
C494 C497 1.348 . S
C494 H526 0.929 . S
C495 C496 1.358 . S
C495 C497 1.356 . S
C495 H527 0.930 . S
C496 N493 1.279 . S
C496 C495 1.358 . S
C496 H499 0.930 . S
C497 C494 1.348 . S
C497 C495 1.356 . S
H498 C492 0.930 . S
H499 C496 0.930 . S
O500 Li440 1.956 . S
O500 Li441 1.970 . S
O500 Li442 1.961 . S
O500 C444 1.325 . S
O501 Li440 1.970 . S
O501 Li441 1.956 . S
O501 Li443 1.961 . S
O501 C450 1.325 . S
O502 Li440 1.961 . S
O502 Li442 1.956 . S
O502 Li443 1.970 . S
O502 C472 1.325 . S
O503 Li441 1.961 . S
O503 Li442 1.970 . S
O503 Li443 1.956 . S
O503 C478 1.325 . S
H504 C446 0.929 . S
H505 C447 0.930 . S
H506 C448 0.930 . S
H507 C449 0.930 . S
H508 C451 0.930 . S
H509 C453 0.929 . S
H510 C454 0.930 . S
H511 C455 0.930 . S
H512 C458 0.930 . S
H513 C461 0.929 . S
H514 C466 0.929 . S
H515 C467 0.930 . S
H516 C474 0.929 . S
H517 C475 0.930 . S
H518 C476 0.930 . S
H519 C477 0.930 . S
H520 C479 0.929 . S
H521 C480 0.930 . S
H522 C481 0.930 . S
H523 C482 0.930 . S
H524 C486 0.929 . S
H525 C488 0.930 . S
H526 C494 0.929 . S
H527 C495 0.930 . S
Li528 N545 1.990 . S
Li528 O588 1.956 . S
Li528 O589 1.970 . S
Li528 O590 1.961 . S
Li529 N553 1.990 . S
Li529 O588 1.970 . S
Li529 O589 1.956 . S
Li529 O591 1.961 . S
Li530 N575 1.990 . S
Li530 O588 1.961 . S
Li530 O590 1.956 . S
Li530 O591 1.970 . S
Li531 N581 1.990 . S
Li531 O589 1.961 . S
Li531 O590 1.970 . S
Li531 O591 1.956 . S
C532 C534 1.348 . S
C532 C535 1.356 . S
C532 O588 1.325 . S
N533 C536 1.314 . S
N533 C537 1.279 . S
C534 C532 1.348 . S
C534 C536 1.353 . S
C534 H592 0.929 . S
C535 C532 1.356 . S
C535 C537 1.358 . S
C535 H593 0.930 . S
C536 N533 1.314 . S
C536 C534 1.353 . S
C536 H594 0.930 . S
C537 N533 1.279 . S
C537 C535 1.358 . S
C537 H595 0.930 . S
C538 C541 1.348 . S
C538 C542 1.356 . S
C538 O589 1.325 . S
C539 N540 1.279 . S
C539 C542 1.358 . S
C539 H596 0.930 . S
N540 C539 1.279 . S
N540 C543 1.314 . S
C541 C538 1.348 . S
C541 C543 1.353 . S
C541 H597 0.929 . S
C542 C538 1.356 . S
C542 C539 1.358 . S
C542 H598 0.930 . S
C543 N540 1.314 . S
C543 C541 1.353 . S
C543 H599 0.930 . S
C544 N545 1.314 . S
C544 C549 1.353 . S
C544 H550 0.930 . S
N545 Li528 1.990 . S
N545 C544 1.314 . S
N545 C547 1.279 . S
C546 C547 1.358 . S
C546 C548 1.356 . S
C546 H600 0.930 . S
C547 N545 1.279 . S
C547 C546 1.358 . S
C547 H551 0.930 . S
C548 C546 1.356 . S
C548 C549 1.348 . S
C549 C544 1.353 . S
C549 C548 1.348 . S
C549 H601 0.929 . S
H550 C544 0.930 . S
H551 C547 0.930 . S
C552 N553 1.314 . S
C552 C554 1.353 . S
C552 H558 0.930 . S
N553 Li529 1.990 . S
N553 C552 1.314 . S
N553 C556 1.279 . S
C554 C552 1.353 . S
C554 C557 1.348 . S
C554 H602 0.929 . S
C555 C556 1.358 . S
C555 C557 1.356 . S
C555 H603 0.930 . S
C556 N553 1.279 . S
C556 C555 1.358 . S
C556 H559 0.930 . S
C557 C554 1.348 . S
C557 C555 1.356 . S
H558 C552 0.930 . S
H559 C556 0.930 . S
C560 C562 1.348 . S
C560 C563 1.356 . S
C560 O590 1.325 . S
N561 C564 1.314 . S
N561 C565 1.279 . S
C562 C560 1.348 . S
C562 C564 1.353 . S
C562 H604 0.929 . S
C563 C560 1.356 . S
C563 C565 1.358 . S
C563 H605 0.930 . S
C564 N561 1.314 . S
C564 C562 1.353 . S
C564 H606 0.930 . S
C565 N561 1.279 . S
C565 C563 1.358 . S
C565 H607 0.930 . S
C566 C567 1.348 . S
C566 C568 1.356 . S
C566 O591 1.325 . S
C567 C566 1.348 . S
C567 C569 1.353 . S
C567 H608 0.929 . S
C568 C566 1.356 . S
C568 C570 1.358 . S
C568 H609 0.930 . S
C569 C567 1.353 . S
C569 N571 1.314 . S
C569 H610 0.930 . S
C570 C568 1.358 . S
C570 N571 1.279 . S
C570 H611 0.930 . S
N571 C569 1.314 . S
N571 C570 1.279 . S
C572 C574 1.353 . S
C572 N575 1.314 . S
C572 H578 0.930 . S
C573 N575 1.279 . S
C573 C576 1.358 . S
C573 H579 0.930 . S
C574 C572 1.353 . S
C574 C577 1.348 . S
C574 H612 0.929 . S
N575 Li530 1.990 . S
N575 C572 1.314 . S
N575 C573 1.279 . S
C576 C573 1.358 . S
C576 C577 1.356 . S
C576 H613 0.930 . S
C577 C574 1.348 . S
C577 C576 1.356 . S
H578 C572 0.930 . S
H579 C573 0.930 . S
C580 N581 1.314 . S
C580 C582 1.353 . S
C580 H586 0.930 . S
N581 Li531 1.990 . S
N581 C580 1.314 . S
N581 C584 1.279 . S
C582 C580 1.353 . S
C582 C585 1.348 . S
C582 H614 0.929 . S
C583 C584 1.358 . S
C583 C585 1.356 . S
C583 H615 0.930 . S
C584 N581 1.279 . S
C584 C583 1.358 . S
C584 H587 0.930 . S
C585 C582 1.348 . S
C585 C583 1.356 . S
H586 C580 0.930 . S
H587 C584 0.930 . S
O588 Li528 1.956 . S
O588 Li529 1.970 . S
O588 Li530 1.961 . S
O588 C532 1.325 . S
O589 Li528 1.970 . S
O589 Li529 1.956 . S
O589 Li531 1.961 . S
O589 C538 1.325 . S
O590 Li528 1.961 . S
O590 Li530 1.956 . S
O590 Li531 1.970 . S
O590 C560 1.325 . S
O591 Li529 1.961 . S
O591 Li530 1.970 . S
O591 Li531 1.956 . S
O591 C566 1.325 . S
H592 C534 0.929 . S
H593 C535 0.930 . S
H594 C536 0.930 . S
H595 C537 0.930 . S
H596 C539 0.930 . S
H597 C541 0.929 . S
H598 C542 0.930 . S
H599 C543 0.930 . S
H600 C546 0.930 . S
H601 C549 0.929 . S
H602 C554 0.929 . S
H603 C555 0.930 . S
H604 C562 0.929 . S
H605 C563 0.930 . S
H606 C564 0.930 . S
H607 C565 0.930 . S
H608 C567 0.929 . S
H609 C568 0.930 . S
H610 C569 0.930 . S
H611 C570 0.930 . S
H612 C574 0.929 . S
H613 C576 0.930 . S
H614 C582 0.929 . S
H615 C583 0.930 . S
Li616 N633 1.990 . S
Li616 O676 1.956 . S
Li616 O677 1.970 . S
Li616 O678 1.961 . S
Li617 N641 1.990 . S
Li617 O676 1.970 . S
Li617 O677 1.956 . S
Li617 O679 1.961 . S
Li618 N663 1.990 . S
Li618 O676 1.961 . S
Li618 O678 1.956 . S
Li618 O679 1.970 . S
Li619 N669 1.990 . S
Li619 O677 1.961 . S
Li619 O678 1.970 . S
Li619 O679 1.956 . S
C620 C622 1.348 . S
C620 C623 1.356 . S
C620 O676 1.325 . S
N621 C624 1.314 . S
N621 C625 1.279 . S
C622 C620 1.348 . S
C622 C624 1.353 . S
C622 H680 0.929 . S
C623 C620 1.356 . S
C623 C625 1.358 . S
C623 H681 0.930 . S
C624 N621 1.314 . S
C624 C622 1.353 . S
C624 H682 0.930 . S
C625 N621 1.279 . S
C625 C623 1.358 . S
C625 H683 0.930 . S
C626 C629 1.348 . S
C626 C630 1.356 . S
C626 O677 1.325 . S
C627 N628 1.279 . S
C627 C630 1.358 . S
C627 H684 0.930 . S
N628 C627 1.279 . S
N628 C631 1.314 . S
C629 C626 1.348 . S
C629 C631 1.353 . S
C629 H685 0.929 . S
C630 C626 1.356 . S
C630 C627 1.358 . S
C630 H686 0.930 . S
C631 N628 1.314 . S
C631 C629 1.353 . S
C631 H687 0.930 . S
C632 N633 1.314 . S
C632 C637 1.353 . S
C632 H638 0.930 . S
N633 Li616 1.990 . S
N633 C632 1.314 . S
N633 C635 1.279 . S
C634 C635 1.358 . S
C634 C636 1.356 . S
C634 H688 0.930 . S
C635 N633 1.279 . S
C635 C634 1.358 . S
C635 H639 0.930 . S
C636 C634 1.356 . S
C636 C637 1.348 . S
C637 C632 1.353 . S
C637 C636 1.348 . S
C637 H689 0.929 . S
H638 C632 0.930 . S
H639 C635 0.930 . S
C640 N641 1.314 . S
C640 C642 1.353 . S
C640 H646 0.930 . S
N641 Li617 1.990 . S
N641 C640 1.314 . S
N641 C644 1.279 . S
C642 C640 1.353 . S
C642 C645 1.348 . S
C642 H690 0.929 . S
C643 C644 1.358 . S
C643 C645 1.356 . S
C643 H691 0.930 . S
C644 N641 1.279 . S
C644 C643 1.358 . S
C644 H647 0.930 . S
C645 C642 1.348 . S
C645 C643 1.356 . S
H646 C640 0.930 . S
H647 C644 0.930 . S
C648 C650 1.348 . S
C648 C651 1.356 . S
C648 O678 1.325 . S
N649 C652 1.314 . S
N649 C653 1.279 . S
C650 C648 1.348 . S
C650 C652 1.353 . S
C650 H692 0.929 . S
C651 C648 1.356 . S
C651 C653 1.358 . S
C651 H693 0.930 . S
C652 N649 1.314 . S
C652 C650 1.353 . S
C652 H694 0.930 . S
C653 N649 1.279 . S
C653 C651 1.358 . S
C653 H695 0.930 . S
C654 C655 1.348 . S
C654 C656 1.356 . S
C654 O679 1.325 . S
C655 C654 1.348 . S
C655 C657 1.353 . S
C655 H696 0.929 . S
C656 C654 1.356 . S
C656 C658 1.358 . S
C656 H697 0.930 . S
C657 C655 1.353 . S
C657 N659 1.314 . S
C657 H698 0.930 . S
C658 C656 1.358 . S
C658 N659 1.279 . S
C658 H699 0.930 . S
N659 C657 1.314 . S
N659 C658 1.279 . S
C660 C662 1.353 . S
C660 N663 1.314 . S
C660 H666 0.930 . S
C661 N663 1.279 . S
C661 C664 1.358 . S
C661 H667 0.930 . S
C662 C660 1.353 . S
C662 C665 1.348 . S
C662 H700 0.929 . S
N663 Li618 1.990 . S
N663 C660 1.314 . S
N663 C661 1.279 . S
C664 C661 1.358 . S
C664 C665 1.356 . S
C664 H701 0.930 . S
C665 C662 1.348 . S
C665 C664 1.356 . S
H666 C660 0.930 . S
H667 C661 0.930 . S
C668 N669 1.314 . S
C668 C670 1.353 . S
C668 H674 0.930 . S
N669 Li619 1.990 . S
N669 C668 1.314 . S
N669 C672 1.279 . S
C670 C668 1.353 . S
C670 C673 1.348 . S
C670 H702 0.929 . S
C671 C672 1.358 . S
C671 C673 1.356 . S
C671 H703 0.930 . S
C672 N669 1.279 . S
C672 C671 1.358 . S
C672 H675 0.930 . S
C673 C670 1.348 . S
C673 C671 1.356 . S
H674 C668 0.930 . S
H675 C672 0.930 . S
O676 Li616 1.956 . S
O676 Li617 1.970 . S
O676 Li618 1.961 . S
O676 C620 1.325 . S
O677 Li616 1.970 . S
O677 Li617 1.956 . S
O677 Li619 1.961 . S
O677 C626 1.325 . S
O678 Li616 1.961 . S
O678 Li618 1.956 . S
O678 Li619 1.970 . S
O678 C648 1.325 . S
O679 Li617 1.961 . S
O679 Li618 1.970 . S
O679 Li619 1.956 . S
O679 C654 1.325 . S
H680 C622 0.929 . S
H681 C623 0.930 . S
H682 C624 0.930 . S
H683 C625 0.930 . S
H684 C627 0.930 . S
H685 C629 0.929 . S
H686 C630 0.930 . S
H687 C631 0.930 . S
H688 C634 0.930 . S
H689 C637 0.929 . S
H690 C642 0.929 . S
H691 C643 0.930 . S
H692 C650 0.929 . S
H693 C651 0.930 . S
H694 C652 0.930 . S
H695 C653 0.930 . S
H696 C655 0.929 . S
H697 C656 0.930 . S
H698 C657 0.930 . S
H699 C658 0.930 . S
H700 C662 0.929 . S
H701 C664 0.930 . S
H702 C670 0.929 . S
H703 C671 0.930 . S
Li704 N721 1.990 . S
Li704 O764 1.956 . S
Li704 O765 1.970 . S
Li704 O766 1.961 . S
Li705 N729 1.990 . S
Li705 O764 1.970 . S
Li705 O765 1.956 . S
Li705 O767 1.961 . S
Li706 N751 1.990 . S
Li706 O764 1.961 . S
Li706 O766 1.956 . S
Li706 O767 1.970 . S
Li707 N757 1.990 . S
Li707 O765 1.961 . S
Li707 O766 1.970 . S
Li707 O767 1.956 . S
C708 C710 1.348 . S
C708 C711 1.356 . S
C708 O764 1.325 . S
N709 C712 1.314 . S
N709 C713 1.279 . S
C710 C708 1.348 . S
C710 C712 1.353 . S
C710 H768 0.929 . S
C711 C708 1.356 . S
C711 C713 1.358 . S
C711 H769 0.930 . S
C712 N709 1.314 . S
C712 C710 1.353 . S
C712 H770 0.930 . S
C713 N709 1.279 . S
C713 C711 1.358 . S
C713 H771 0.930 . S
C714 C717 1.348 . S
C714 C718 1.356 . S
C714 O765 1.325 . S
C715 N716 1.279 . S
C715 C718 1.358 . S
C715 H772 0.930 . S
N716 C715 1.279 . S
N716 C719 1.314 . S
C717 C714 1.348 . S
C717 C719 1.353 . S
C717 H773 0.929 . S
C718 C714 1.356 . S
C718 C715 1.358 . S
C718 H774 0.930 . S
C719 N716 1.314 . S
C719 C717 1.353 . S
C719 H775 0.930 . S
C720 N721 1.314 . S
C720 C725 1.353 . S
C720 H726 0.930 . S
N721 Li704 1.990 . S
N721 C720 1.314 . S
N721 C723 1.279 . S
C722 C723 1.358 . S
C722 C724 1.356 . S
C722 H776 0.930 . S
C723 N721 1.279 . S
C723 C722 1.358 . S
C723 H727 0.930 . S
C724 C722 1.356 . S
C724 C725 1.348 . S
C725 C720 1.353 . S
C725 C724 1.348 . S
C725 H777 0.929 . S
H726 C720 0.930 . S
H727 C723 0.930 . S
C728 N729 1.314 . S
C728 C730 1.353 . S
C728 H734 0.930 . S
N729 Li705 1.990 . S
N729 C728 1.314 . S
N729 C732 1.279 . S
C730 C728 1.353 . S
C730 C733 1.348 . S
C730 H778 0.929 . S
C731 C732 1.358 . S
C731 C733 1.356 . S
C731 H779 0.930 . S
C732 N729 1.279 . S
C732 C731 1.358 . S
C732 H735 0.930 . S
C733 C730 1.348 . S
C733 C731 1.356 . S
H734 C728 0.930 . S
H735 C732 0.930 . S
C736 C738 1.348 . S
C736 C739 1.356 . S
C736 O766 1.325 . S
N737 C740 1.314 . S
N737 C741 1.279 . S
C738 C736 1.348 . S
C738 C740 1.353 . S
C738 H780 0.929 . S
C739 C736 1.356 . S
C739 C741 1.358 . S
C739 H781 0.930 . S
C740 N737 1.314 . S
C740 C738 1.353 . S
C740 H782 0.930 . S
C741 N737 1.279 . S
C741 C739 1.358 . S
C741 H783 0.930 . S
C742 C743 1.348 . S
C742 C744 1.356 . S
C742 O767 1.325 . S
C743 C742 1.348 . S
C743 C745 1.353 . S
C743 H784 0.929 . S
C744 C742 1.356 . S
C744 C746 1.358 . S
C744 H785 0.930 . S
C745 C743 1.353 . S
C745 N747 1.314 . S
C745 H786 0.930 . S
C746 C744 1.358 . S
C746 N747 1.279 . S
C746 H787 0.930 . S
N747 C745 1.314 . S
N747 C746 1.279 . S
C748 C750 1.353 . S
C748 N751 1.314 . S
C748 H754 0.930 . S
C749 N751 1.279 . S
C749 C752 1.358 . S
C749 H755 0.930 . S
C750 C748 1.353 . S
C750 C753 1.348 . S
C750 H788 0.929 . S
N751 Li706 1.990 . S
N751 C748 1.314 . S
N751 C749 1.279 . S
C752 C749 1.358 . S
C752 C753 1.356 . S
C752 H789 0.930 . S
C753 C750 1.348 . S
C753 C752 1.356 . S
H754 C748 0.930 . S
H755 C749 0.930 . S
C756 N757 1.314 . S
C756 C758 1.353 . S
C756 H762 0.930 . S
N757 Li707 1.990 . S
N757 C756 1.314 . S
N757 C760 1.279 . S
C758 C756 1.353 . S
C758 C761 1.348 . S
C758 H790 0.929 . S
C759 C760 1.358 . S
C759 C761 1.356 . S
C759 H791 0.930 . S
C760 N757 1.279 . S
C760 C759 1.358 . S
C760 H763 0.930 . S
C761 C758 1.348 . S
C761 C759 1.356 . S
H762 C756 0.930 . S
H763 C760 0.930 . S
O764 Li704 1.956 . S
O764 Li705 1.970 . S
O764 Li706 1.961 . S
O764 C708 1.325 . S
O765 Li704 1.970 . S
O765 Li705 1.956 . S
O765 Li707 1.961 . S
O765 C714 1.325 . S
O766 Li704 1.961 . S
O766 Li706 1.956 . S
O766 Li707 1.970 . S
O766 C736 1.325 . S
O767 Li705 1.961 . S
O767 Li706 1.970 . S
O767 Li707 1.956 . S
O767 C742 1.325 . S
H768 C710 0.929 . S
H769 C711 0.930 . S
H770 C712 0.930 . S
H771 C713 0.930 . S
H772 C715 0.930 . S
H773 C717 0.929 . S
H774 C718 0.930 . S
H775 C719 0.930 . S
H776 C722 0.930 . S
H777 C725 0.929 . S
H778 C730 0.929 . S
H779 C731 0.930 . S
H780 C738 0.929 . S
H781 C739 0.930 . S
H782 C740 0.930 . S
H783 C741 0.930 . S
H784 C743 0.929 . S
H785 C744 0.930 . S
H786 C745 0.930 . S
H787 C746 0.930 . S
H788 C750 0.929 . S
H789 C752 0.930 . S
H790 C758 0.929 . S
H791 C759 0.930 . S
Li792 N809 1.990 . S
Li792 O852 1.956 . S
Li792 O853 1.970 . S
Li792 O854 1.961 . S
Li793 N817 1.990 . S
Li793 O852 1.970 . S
Li793 O853 1.956 . S
Li793 O855 1.961 . S
Li794 N839 1.990 . S
Li794 O852 1.961 . S
Li794 O854 1.956 . S
Li794 O855 1.970 . S
Li795 N845 1.990 . S
Li795 O853 1.961 . S
Li795 O854 1.970 . S
Li795 O855 1.956 . S
C796 C798 1.348 . S
C796 C799 1.356 . S
C796 O852 1.325 . S
N797 C800 1.314 . S
N797 C801 1.279 . S
C798 C796 1.348 . S
C798 C800 1.353 . S
C798 H856 0.929 . S
C799 C796 1.356 . S
C799 C801 1.358 . S
C799 H857 0.930 . S
C800 N797 1.314 . S
C800 C798 1.353 . S
C800 H858 0.930 . S
C801 N797 1.279 . S
C801 C799 1.358 . S
C801 H859 0.930 . S
C802 C805 1.348 . S
C802 C806 1.356 . S
C802 O853 1.325 . S
C803 N804 1.279 . S
C803 C806 1.358 . S
C803 H860 0.930 . S
N804 C803 1.279 . S
N804 C807 1.314 . S
C805 C802 1.348 . S
C805 C807 1.353 . S
C805 H861 0.929 . S
C806 C802 1.356 . S
C806 C803 1.358 . S
C806 H862 0.930 . S
C807 N804 1.314 . S
C807 C805 1.353 . S
C807 H863 0.930 . S
C808 N809 1.314 . S
C808 C813 1.353 . S
C808 H814 0.930 . S
N809 Li792 1.990 . S
N809 C808 1.314 . S
N809 C811 1.279 . S
C810 C811 1.358 . S
C810 C812 1.356 . S
C810 H864 0.930 . S
C811 N809 1.279 . S
C811 C810 1.358 . S
C811 H815 0.930 . S
C812 C810 1.356 . S
C812 C813 1.348 . S
C813 C808 1.353 . S
C813 C812 1.348 . S
C813 H865 0.929 . S
H814 C808 0.930 . S
H815 C811 0.930 . S
C816 N817 1.314 . S
C816 C818 1.353 . S
C816 H822 0.930 . S
N817 Li793 1.990 . S
N817 C816 1.314 . S
N817 C820 1.279 . S
C818 C816 1.353 . S
C818 C821 1.348 . S
C818 H866 0.929 . S
C819 C820 1.358 . S
C819 C821 1.356 . S
C819 H867 0.930 . S
C820 N817 1.279 . S
C820 C819 1.358 . S
C820 H823 0.930 . S
C821 C818 1.348 . S
C821 C819 1.356 . S
H822 C816 0.930 . S
H823 C820 0.930 . S
C824 C826 1.348 . S
C824 C827 1.356 . S
C824 O854 1.325 . S
N825 C828 1.314 . S
N825 C829 1.279 . S
C826 C824 1.348 . S
C826 C828 1.353 . S
C826 H868 0.929 . S
C827 C824 1.356 . S
C827 C829 1.358 . S
C827 H869 0.930 . S
C828 N825 1.314 . S
C828 C826 1.353 . S
C828 H870 0.930 . S
C829 N825 1.279 . S
C829 C827 1.358 . S
C829 H871 0.930 . S
C830 C831 1.348 . S
C830 C832 1.356 . S
C830 O855 1.325 . S
C831 C830 1.348 . S
C831 C833 1.353 . S
C831 H872 0.929 . S
C832 C830 1.356 . S
C832 C834 1.358 . S
C832 H873 0.930 . S
C833 C831 1.353 . S
C833 N835 1.314 . S
C833 H874 0.930 . S
C834 C832 1.358 . S
C834 N835 1.279 . S
C834 H875 0.930 . S
N835 C833 1.314 . S
N835 C834 1.279 . S
C836 C838 1.353 . S
C836 N839 1.314 . S
C836 H842 0.930 . S
C837 N839 1.279 . S
C837 C840 1.358 . S
C837 H843 0.930 . S
C838 C836 1.353 . S
C838 C841 1.348 . S
C838 H876 0.929 . S
N839 Li794 1.990 . S
N839 C836 1.314 . S
N839 C837 1.279 . S
C840 C837 1.358 . S
C840 C841 1.356 . S
C840 H877 0.930 . S
C841 C838 1.348 . S
C841 C840 1.356 . S
H842 C836 0.930 . S
H843 C837 0.930 . S
C844 N845 1.314 . S
C844 C846 1.353 . S
C844 H850 0.930 . S
N845 Li795 1.990 . S
N845 C844 1.314 . S
N845 C848 1.279 . S
C846 C844 1.353 . S
C846 C849 1.348 . S
C846 H878 0.929 . S
C847 C848 1.358 . S
C847 C849 1.356 . S
C847 H879 0.930 . S
C848 N845 1.279 . S
C848 C847 1.358 . S
C848 H851 0.930 . S
C849 C846 1.348 . S
C849 C847 1.356 . S
H850 C844 0.930 . S
H851 C848 0.930 . S
O852 Li792 1.956 . S
O852 Li793 1.970 . S
O852 Li794 1.961 . S
O852 C796 1.325 . S
O853 Li792 1.970 . S
O853 Li793 1.956 . S
O853 Li795 1.961 . S
O853 C802 1.325 . S
O854 Li792 1.961 . S
O854 Li794 1.956 . S
O854 Li795 1.970 . S
O854 C824 1.325 . S
O855 Li793 1.961 . S
O855 Li794 1.970 . S
O855 Li795 1.956 . S
O855 C830 1.325 . S
H856 C798 0.929 . S
H857 C799 0.930 . S
H858 C800 0.930 . S
H859 C801 0.930 . S
H860 C803 0.930 . S
H861 C805 0.929 . S
H862 C806 0.930 . S
H863 C807 0.930 . S
H864 C810 0.930 . S
H865 C813 0.929 . S
H866 C818 0.929 . S
H867 C819 0.930 . S
H868 C826 0.929 . S
H869 C827 0.930 . S
H870 C828 0.930 . S
H871 C829 0.930 . S
H872 C831 0.929 . S
H873 C832 0.930 . S
H874 C833 0.930 . S
H875 C834 0.930 . S
H876 C838 0.929 . S
H877 C840 0.930 . S
H878 C846 0.929 . S
H879 C847 0.930 . S
Li880 N897 1.990 . S
Li880 O940 1.956 . S
Li880 O941 1.970 . S
Li880 O942 1.961 . S
Li881 N905 1.990 . S
Li881 O940 1.970 . S
Li881 O941 1.956 . S
Li881 O943 1.961 . S
Li882 N927 1.990 . S
Li882 O940 1.961 . S
Li882 O942 1.956 . S
Li882 O943 1.970 . S
Li883 N933 1.990 . S
Li883 O941 1.961 . S
Li883 O942 1.970 . S
Li883 O943 1.956 . S
C884 C886 1.348 . S
C884 C887 1.356 . S
C884 O940 1.325 . S
N885 C888 1.314 . S
N885 C889 1.279 . S
C886 C884 1.348 . S
C886 C888 1.353 . S
C886 H944 0.929 . S
C887 C884 1.356 . S
C887 C889 1.358 . S
C887 H945 0.930 . S
C888 N885 1.314 . S
C888 C886 1.353 . S
C888 H946 0.930 . S
C889 N885 1.279 . S
C889 C887 1.358 . S
C889 H947 0.930 . S
C890 C893 1.348 . S
C890 C894 1.356 . S
C890 O941 1.325 . S
C891 N892 1.279 . S
C891 C894 1.358 . S
C891 H948 0.930 . S
N892 C891 1.279 . S
N892 C895 1.314 . S
C893 C890 1.348 . S
C893 C895 1.353 . S
C893 H949 0.929 . S
C894 C890 1.356 . S
C894 C891 1.358 . S
C894 H950 0.930 . S
C895 N892 1.314 . S
C895 C893 1.353 . S
C895 H951 0.930 . S
C896 N897 1.314 . S
C896 C901 1.353 . S
C896 H902 0.930 . S
N897 Li880 1.990 . S
N897 C896 1.314 . S
N897 C899 1.279 . S
C898 C899 1.358 . S
C898 C900 1.356 . S
C898 H952 0.930 . S
C899 N897 1.279 . S
C899 C898 1.358 . S
C899 H903 0.930 . S
C900 C898 1.356 . S
C900 C901 1.348 . S
C901 C896 1.353 . S
C901 C900 1.348 . S
C901 H953 0.929 . S
H902 C896 0.930 . S
H903 C899 0.930 . S
C904 N905 1.314 . S
C904 C906 1.353 . S
C904 H910 0.930 . S
N905 Li881 1.990 . S
N905 C904 1.314 . S
N905 C908 1.279 . S
C906 C904 1.353 . S
C906 C909 1.348 . S
C906 H954 0.929 . S
C907 C908 1.358 . S
C907 C909 1.356 . S
C907 H955 0.930 . S
C908 N905 1.279 . S
C908 C907 1.358 . S
C908 H911 0.930 . S
C909 C906 1.348 . S
C909 C907 1.356 . S
H910 C904 0.930 . S
H911 C908 0.930 . S
C912 C914 1.348 . S
C912 C915 1.356 . S
C912 O942 1.325 . S
N913 C916 1.314 . S
N913 C917 1.279 . S
C914 C912 1.348 . S
C914 C916 1.353 . S
C914 H956 0.929 . S
C915 C912 1.356 . S
C915 C917 1.358 . S
C915 H957 0.930 . S
C916 N913 1.314 . S
C916 C914 1.353 . S
C916 H958 0.930 . S
C917 N913 1.279 . S
C917 C915 1.358 . S
C917 H959 0.930 . S
C918 C919 1.348 . S
C918 C920 1.356 . S
C918 O943 1.325 . S
C919 C918 1.348 . S
C919 C921 1.353 . S
C919 H960 0.929 . S
C920 C918 1.356 . S
C920 C922 1.358 . S
C920 H961 0.930 . S
C921 C919 1.353 . S
C921 N923 1.314 . S
C921 H962 0.930 . S
C922 C920 1.358 . S
C922 N923 1.279 . S
C922 H963 0.930 . S
N923 C921 1.314 . S
N923 C922 1.279 . S
C924 C926 1.353 . S
C924 N927 1.314 . S
C924 H930 0.930 . S
C925 N927 1.279 . S
C925 C928 1.358 . S
C925 H931 0.930 . S
C926 C924 1.353 . S
C926 C929 1.348 . S
C926 H964 0.929 . S
N927 Li882 1.990 . S
N927 C924 1.314 . S
N927 C925 1.279 . S
C928 C925 1.358 . S
C928 C929 1.356 . S
C928 H965 0.930 . S
C929 C926 1.348 . S
C929 C928 1.356 . S
H930 C924 0.930 . S
H931 C925 0.930 . S
C932 N933 1.314 . S
C932 C934 1.353 . S
C932 H938 0.930 . S
N933 Li883 1.990 . S
N933 C932 1.314 . S
N933 C936 1.279 . S
C934 C932 1.353 . S
C934 C937 1.348 . S
C934 H966 0.929 . S
C935 C936 1.358 . S
C935 C937 1.356 . S
C935 H967 0.930 . S
C936 N933 1.279 . S
C936 C935 1.358 . S
C936 H939 0.930 . S
C937 C934 1.348 . S
C937 C935 1.356 . S
H938 C932 0.930 . S
H939 C936 0.930 . S
O940 Li880 1.956 . S
O940 Li881 1.970 . S
O940 Li882 1.961 . S
O940 C884 1.325 . S
O941 Li880 1.970 . S
O941 Li881 1.956 . S
O941 Li883 1.961 . S
O941 C890 1.325 . S
O942 Li880 1.961 . S
O942 Li882 1.956 . S
O942 Li883 1.970 . S
O942 C912 1.325 . S
O943 Li881 1.961 . S
O943 Li882 1.970 . S
O943 Li883 1.956 . S
O943 C918 1.325 . S
H944 C886 0.929 . S
H945 C887 0.930 . S
H946 C888 0.930 . S
H947 C889 0.930 . S
H948 C891 0.930 . S
H949 C893 0.929 . S
H950 C894 0.930 . S
H951 C895 0.930 . S
H952 C898 0.930 . S
H953 C901 0.929 . S
H954 C906 0.929 . S
H955 C907 0.930 . S
H956 C914 0.929 . S
H957 C915 0.930 . S
H958 C916 0.930 . S
H959 C917 0.930 . S
H960 C919 0.929 . S
H961 C920 0.930 . S
H962 C921 0.930 . S
H963 C922 0.930 . S
H964 C926 0.929 . S
H965 C928 0.930 . S
H966 C934 0.929 . S
H967 C935 0.930 . S
Li968 N985 1.990 . S
Li968 O1028 1.956 . S
Li968 O1029 1.970 . S
Li968 O1030 1.961 . S
Li969 N993 1.990 . S
Li969 O1028 1.970 . S
Li969 O1029 1.956 . S
Li969 O1031 1.961 . S
Li970 N1015 1.990 . S
Li970 O1028 1.961 . S
Li970 O1030 1.956 . S
Li970 O1031 1.970 . S
Li971 N1021 1.990 . S
Li971 O1029 1.961 . S
Li971 O1030 1.970 . S
Li971 O1031 1.956 . S
C972 C974 1.348 . S
C972 C975 1.356 . S
C972 O1028 1.325 . S
N973 C976 1.314 . S
N973 C977 1.279 . S
C974 C972 1.348 . S
C974 C976 1.353 . S
C974 H1032 0.929 . S
C975 C972 1.356 . S
C975 C977 1.358 . S
C975 H1033 0.930 . S
C976 N973 1.314 . S
C976 C974 1.353 . S
C976 H1034 0.930 . S
C977 N973 1.279 . S
C977 C975 1.358 . S
C977 H1035 0.930 . S
C978 C981 1.348 . S
C978 C982 1.356 . S
C978 O1029 1.325 . S
C979 N980 1.279 . S
C979 C982 1.358 . S
C979 H1036 0.930 . S
N980 C979 1.279 . S
N980 C983 1.314 . S
C981 C978 1.348 . S
C981 C983 1.353 . S
C981 H1037 0.929 . S
C982 C978 1.356 . S
C982 C979 1.358 . S
C982 H1038 0.930 . S
C983 N980 1.314 . S
C983 C981 1.353 . S
C983 H1039 0.930 . S
C984 N985 1.314 . S
C984 C989 1.353 . S
C984 H990 0.930 . S
N985 Li968 1.990 . S
N985 C984 1.314 . S
N985 C987 1.279 . S
C986 C987 1.358 . S
C986 C988 1.356 . S
C986 H1040 0.930 . S
C987 N985 1.279 . S
C987 C986 1.358 . S
C987 H991 0.930 . S
C988 C986 1.356 . S
C988 C989 1.348 . S
C989 C984 1.353 . S
C989 C988 1.348 . S
C989 H1041 0.929 . S
H990 C984 0.930 . S
H991 C987 0.930 . S
C992 N993 1.314 . S
C992 C994 1.353 . S
C992 H998 0.930 . S
N993 Li969 1.990 . S
N993 C992 1.314 . S
N993 C996 1.279 . S
C994 C992 1.353 . S
C994 C997 1.348 . S
C994 H1042 0.929 . S
C995 C996 1.358 . S
C995 C997 1.356 . S
C995 H1043 0.930 . S
C996 N993 1.279 . S
C996 C995 1.358 . S
C996 H999 0.930 . S
C997 C994 1.348 . S
C997 C995 1.356 . S
H998 C992 0.930 . S
H999 C996 0.930 . S
C1000 C1002 1.348 . S
C1000 C1003 1.356 . S
C1000 O1030 1.325 . S
N1001 C1004 1.314 . S
N1001 C1005 1.279 . S
C1002 C1000 1.348 . S
C1002 C1004 1.353 . S
C1002 H1044 0.929 . S
C1003 C1000 1.356 . S
C1003 C1005 1.358 . S
C1003 H1045 0.930 . S
C1004 N1001 1.314 . S
C1004 C1002 1.353 . S
C1004 H1046 0.930 . S
C1005 N1001 1.279 . S
C1005 C1003 1.358 . S
C1005 H1047 0.930 . S
C1006 C1007 1.348 . S
C1006 C1008 1.356 . S
C1006 O1031 1.325 . S
C1007 C1006 1.348 . S
C1007 C1009 1.353 . S
C1007 H1048 0.929 . S
C1008 C1006 1.356 . S
C1008 C1010 1.358 . S
C1008 H1049 0.930 . S
C1009 C1007 1.353 . S
C1009 N1011 1.314 . S
C1009 H1050 0.930 . S
C1010 C1008 1.358 . S
C1010 N1011 1.279 . S
C1010 H1051 0.930 . S
N1011 C1009 1.314 . S
N1011 C1010 1.279 . S
C1012 C1014 1.353 . S
C1012 N1015 1.314 . S
C1012 H1018 0.930 . S
C1013 N1015 1.279 . S
C1013 C1016 1.358 . S
C1013 H1019 0.930 . S
C1014 C1012 1.353 . S
C1014 C1017 1.348 . S
C1014 H1052 0.929 . S
N1015 Li970 1.990 . S
N1015 C1012 1.314 . S
N1015 C1013 1.279 . S
C1016 C1013 1.358 . S
C1016 C1017 1.356 . S
C1016 H1053 0.930 . S
C1017 C1014 1.348 . S
C1017 C1016 1.356 . S
H1018 C1012 0.930 . S
H1019 C1013 0.930 . S
C1020 N1021 1.314 . S
C1020 C1022 1.353 . S
C1020 H1026 0.930 . S
N1021 Li971 1.990 . S
N1021 C1020 1.314 . S
N1021 C1024 1.279 . S
C1022 C1020 1.353 . S
C1022 C1025 1.348 . S
C1022 H1054 0.929 . S
C1023 C1024 1.358 . S
C1023 C1025 1.356 . S
C1023 H1055 0.930 . S
C1024 N1021 1.279 . S
C1024 C1023 1.358 . S
C1024 H1027 0.930 . S
C1025 C1022 1.348 . S
C1025 C1023 1.356 . S
H1026 C1020 0.930 . S
H1027 C1024 0.930 . S
O1028 Li968 1.956 . S
O1028 Li969 1.970 . S
O1028 Li970 1.961 . S
O1028 C972 1.325 . S
O1029 Li968 1.970 . S
O1029 Li969 1.956 . S
O1029 Li971 1.961 . S
O1029 C978 1.325 . S
O1030 Li968 1.961 . S
O1030 Li970 1.956 . S
O1030 Li971 1.970 . S
O1030 C1000 1.325 . S
O1031 Li969 1.961 . S
O1031 Li970 1.970 . S
O1031 Li971 1.956 . S
O1031 C1006 1.325 . S
H1032 C974 0.929 . S
H1033 C975 0.930 . S
H1034 C976 0.930 . S
H1035 C977 0.930 . S
H1036 C979 0.930 . S
H1037 C981 0.929 . S
H1038 C982 0.930 . S
H1039 C983 0.930 . S
H1040 C986 0.930 . S
H1041 C989 0.929 . S
H1042 C994 0.929 . S
H1043 C995 0.930 . S
H1044 C1002 0.929 . S
H1045 C1003 0.930 . S
H1046 C1004 0.930 . S
H1047 C1005 0.930 . S
H1048 C1007 0.929 . S
H1049 C1008 0.930 . S
H1050 C1009 0.930 . S
H1051 C1010 0.930 . S
H1052 C1014 0.929 . S
H1053 C1016 0.930 . S
H1054 C1022 0.929 . S
H1055 C1023 0.930 . S
Li1056 N1073 1.990 . S
Li1056 O1116 1.956 . S
Li1056 O1117 1.970 . S
Li1056 O1118 1.961 . S
Li1057 N1081 1.990 . S
Li1057 O1116 1.970 . S
Li1057 O1117 1.956 . S
Li1057 O1119 1.961 . S
Li1058 N1103 1.990 . S
Li1058 O1116 1.961 . S
Li1058 O1118 1.956 . S
Li1058 O1119 1.970 . S
Li1059 N1109 1.990 . S
Li1059 O1117 1.961 . S
Li1059 O1118 1.970 . S
Li1059 O1119 1.956 . S
C1060 C1062 1.348 . S
C1060 C1063 1.356 . S
C1060 O1116 1.325 . S
N1061 C1064 1.314 . S
N1061 C1065 1.279 . S
C1062 C1060 1.348 . S
C1062 C1064 1.353 . S
C1062 H1120 0.929 . S
C1063 C1060 1.356 . S
C1063 C1065 1.358 . S
C1063 H1121 0.930 . S
C1064 N1061 1.314 . S
C1064 C1062 1.353 . S
C1064 H1122 0.930 . S
C1065 N1061 1.279 . S
C1065 C1063 1.358 . S
C1065 H1123 0.930 . S
C1066 C1069 1.348 . S
C1066 C1070 1.356 . S
C1066 O1117 1.325 . S
C1067 N1068 1.279 . S
C1067 C1070 1.358 . S
C1067 H1124 0.930 . S
N1068 C1067 1.279 . S
N1068 C1071 1.314 . S
C1069 C1066 1.348 . S
C1069 C1071 1.353 . S
C1069 H1125 0.929 . S
C1070 C1066 1.356 . S
C1070 C1067 1.358 . S
C1070 H1126 0.930 . S
C1071 N1068 1.314 . S
C1071 C1069 1.353 . S
C1071 H1127 0.930 . S
C1072 N1073 1.314 . S
C1072 C1077 1.353 . S
C1072 H1078 0.930 . S
N1073 Li1056 1.990 . S
N1073 C1072 1.314 . S
N1073 C1075 1.279 . S
C1074 C1075 1.358 . S
C1074 C1076 1.356 . S
C1074 H1128 0.930 . S
C1075 N1073 1.279 . S
C1075 C1074 1.358 . S
C1075 H1079 0.930 . S
C1076 C1074 1.356 . S
C1076 C1077 1.348 . S
C1077 C1072 1.353 . S
C1077 C1076 1.348 . S
C1077 H1129 0.929 . S
H1078 C1072 0.930 . S
H1079 C1075 0.930 . S
C1080 N1081 1.314 . S
C1080 C1082 1.353 . S
C1080 H1086 0.930 . S
N1081 Li1057 1.990 . S
N1081 C1080 1.314 . S
N1081 C1084 1.279 . S
C1082 C1080 1.353 . S
C1082 C1085 1.348 . S
C1082 H1130 0.929 . S
C1083 C1084 1.358 . S
C1083 C1085 1.356 . S
C1083 H1131 0.930 . S
C1084 N1081 1.279 . S
C1084 C1083 1.358 . S
C1084 H1087 0.930 . S
C1085 C1082 1.348 . S
C1085 C1083 1.356 . S
H1086 C1080 0.930 . S
H1087 C1084 0.930 . S
C1088 C1090 1.348 . S
C1088 C1091 1.356 . S
C1088 O1118 1.325 . S
N1089 C1092 1.314 . S
N1089 C1093 1.279 . S
C1090 C1088 1.348 . S
C1090 C1092 1.353 . S
C1090 H1132 0.929 . S
C1091 C1088 1.356 . S
C1091 C1093 1.358 . S
C1091 H1133 0.930 . S
C1092 N1089 1.314 . S
C1092 C1090 1.353 . S
C1092 H1134 0.930 . S
C1093 N1089 1.279 . S
C1093 C1091 1.358 . S
C1093 H1135 0.930 . S
C1094 C1095 1.348 . S
C1094 C1096 1.356 . S
C1094 O1119 1.325 . S
C1095 C1094 1.348 . S
C1095 C1097 1.353 . S
C1095 H1136 0.929 . S
C1096 C1094 1.356 . S
C1096 C1098 1.358 . S
C1096 H1137 0.930 . S
C1097 C1095 1.353 . S
C1097 N1099 1.314 . S
C1097 H1138 0.930 . S
C1098 C1096 1.358 . S
C1098 N1099 1.279 . S
C1098 H1139 0.930 . S
N1099 C1097 1.314 . S
N1099 C1098 1.279 . S
C1100 C1102 1.353 . S
C1100 N1103 1.314 . S
C1100 H1106 0.930 . S
C1101 N1103 1.279 . S
C1101 C1104 1.358 . S
C1101 H1107 0.930 . S
C1102 C1100 1.353 . S
C1102 C1105 1.348 . S
C1102 H1140 0.929 . S
N1103 Li1058 1.990 . S
N1103 C1100 1.314 . S
N1103 C1101 1.279 . S
C1104 C1101 1.358 . S
C1104 C1105 1.356 . S
C1104 H1141 0.930 . S
C1105 C1102 1.348 . S
C1105 C1104 1.356 . S
H1106 C1100 0.930 . S
H1107 C1101 0.930 . S
C1108 N1109 1.314 . S
C1108 C1110 1.353 . S
C1108 H1114 0.930 . S
N1109 Li1059 1.990 . S
N1109 C1108 1.314 . S
N1109 C1112 1.279 . S
C1110 C1108 1.353 . S
C1110 C1113 1.348 . S
C1110 H1142 0.929 . S
C1111 C1112 1.358 . S
C1111 C1113 1.356 . S
C1111 H1143 0.930 . S
C1112 N1109 1.279 . S
C1112 C1111 1.358 . S
C1112 H1115 0.930 . S
C1113 C1110 1.348 . S
C1113 C1111 1.356 . S
H1114 C1108 0.930 . S
H1115 C1112 0.930 . S
O1116 Li1056 1.956 . S
O1116 Li1057 1.970 . S
O1116 Li1058 1.961 . S
O1116 C1060 1.325 . S
O1117 Li1056 1.970 . S
O1117 Li1057 1.956 . S
O1117 Li1059 1.961 . S
O1117 C1066 1.325 . S
O1118 Li1056 1.961 . S
O1118 Li1058 1.956 . S
O1118 Li1059 1.970 . S
O1118 C1088 1.325 . S
O1119 Li1057 1.961 . S
O1119 Li1058 1.970 . S
O1119 Li1059 1.956 . S
O1119 C1094 1.325 . S
H1120 C1062 0.929 . S
H1121 C1063 0.930 . S
H1122 C1064 0.930 . S
H1123 C1065 0.930 . S
H1124 C1067 0.930 . S
H1125 C1069 0.929 . S
H1126 C1070 0.930 . S
H1127 C1071 0.930 . S
H1128 C1074 0.930 . S
H1129 C1077 0.929 . S
H1130 C1082 0.929 . S
H1131 C1083 0.930 . S
H1132 C1090 0.929 . S
H1133 C1091 0.930 . S
H1134 C1092 0.930 . S
H1135 C1093 0.930 . S
H1136 C1095 0.929 . S
H1137 C1096 0.930 . S
H1138 C1097 0.930 . S
H1139 C1098 0.930 . S
H1140 C1102 0.929 . S
H1141 C1104 0.930 . S
H1142 C1110 0.929 . S
H1143 C1111 0.930 . S
Li1144 N1161 1.990 . S
Li1144 O1204 1.956 . S
Li1144 O1205 1.970 . S
Li1144 O1206 1.961 . S
Li1145 N1169 1.990 . S
Li1145 O1204 1.970 . S
Li1145 O1205 1.956 . S
Li1145 O1207 1.961 . S
Li1146 N1191 1.990 . S
Li1146 O1204 1.961 . S
Li1146 O1206 1.956 . S
Li1146 O1207 1.970 . S
Li1147 N1197 1.990 . S
Li1147 O1205 1.961 . S
Li1147 O1206 1.970 . S
Li1147 O1207 1.956 . S
C1148 C1150 1.348 . S
C1148 C1151 1.356 . S
C1148 O1204 1.325 . S
N1149 C1152 1.314 . S
N1149 C1153 1.279 . S
C1150 C1148 1.348 . S
C1150 C1152 1.353 . S
C1150 H1208 0.929 . S
C1151 C1148 1.356 . S
C1151 C1153 1.358 . S
C1151 H1209 0.930 . S
C1152 N1149 1.314 . S
C1152 C1150 1.353 . S
C1152 H1210 0.930 . S
C1153 N1149 1.279 . S
C1153 C1151 1.358 . S
C1153 H1211 0.930 . S
C1154 C1157 1.348 . S
C1154 C1158 1.356 . S
C1154 O1205 1.325 . S
C1155 N1156 1.279 . S
C1155 C1158 1.358 . S
C1155 H1212 0.930 . S
N1156 C1155 1.279 . S
N1156 C1159 1.314 . S
C1157 C1154 1.348 . S
C1157 C1159 1.353 . S
C1157 H1213 0.929 . S
C1158 C1154 1.356 . S
C1158 C1155 1.358 . S
C1158 H1214 0.930 . S
C1159 N1156 1.314 . S
C1159 C1157 1.353 . S
C1159 H1215 0.930 . S
C1160 N1161 1.314 . S
C1160 C1165 1.353 . S
C1160 H1166 0.930 . S
N1161 Li1144 1.990 . S
N1161 C1160 1.314 . S
N1161 C1163 1.279 . S
C1162 C1163 1.358 . S
C1162 C1164 1.356 . S
C1162 H1216 0.930 . S
C1163 N1161 1.279 . S
C1163 C1162 1.358 . S
C1163 H1167 0.930 . S
C1164 C1162 1.356 . S
C1164 C1165 1.348 . S
C1165 C1160 1.353 . S
C1165 C1164 1.348 . S
C1165 H1217 0.929 . S
H1166 C1160 0.930 . S
H1167 C1163 0.930 . S
C1168 N1169 1.314 . S
C1168 C1170 1.353 . S
C1168 H1174 0.930 . S
N1169 Li1145 1.990 . S
N1169 C1168 1.314 . S
N1169 C1172 1.279 . S
C1170 C1168 1.353 . S
C1170 C1173 1.348 . S
C1170 H1218 0.929 . S
C1171 C1172 1.358 . S
C1171 C1173 1.356 . S
C1171 H1219 0.930 . S
C1172 N1169 1.279 . S
C1172 C1171 1.358 . S
C1172 H1175 0.930 . S
C1173 C1170 1.348 . S
C1173 C1171 1.356 . S
H1174 C1168 0.930 . S
H1175 C1172 0.930 . S
C1176 C1178 1.348 . S
C1176 C1179 1.356 . S
C1176 O1206 1.325 . S
N1177 C1180 1.314 . S
N1177 C1181 1.279 . S
C1178 C1176 1.348 . S
C1178 C1180 1.353 . S
C1178 H1220 0.929 . S
C1179 C1176 1.356 . S
C1179 C1181 1.358 . S
C1179 H1221 0.930 . S
C1180 N1177 1.314 . S
C1180 C1178 1.353 . S
C1180 H1222 0.930 . S
C1181 N1177 1.279 . S
C1181 C1179 1.358 . S
C1181 H1223 0.930 . S
C1182 C1183 1.348 . S
C1182 C1184 1.356 . S
C1182 O1207 1.325 . S
C1183 C1182 1.348 . S
C1183 C1185 1.353 . S
C1183 H1224 0.929 . S
C1184 C1182 1.356 . S
C1184 C1186 1.358 . S
C1184 H1225 0.930 . S
C1185 C1183 1.353 . S
C1185 N1187 1.314 . S
C1185 H1226 0.930 . S
C1186 C1184 1.358 . S
C1186 N1187 1.279 . S
C1186 H1227 0.930 . S
N1187 C1185 1.314 . S
N1187 C1186 1.279 . S
C1188 C1190 1.353 . S
C1188 N1191 1.314 . S
C1188 H1194 0.930 . S
C1189 N1191 1.279 . S
C1189 C1192 1.358 . S
C1189 H1195 0.930 . S
C1190 C1188 1.353 . S
C1190 C1193 1.348 . S
C1190 H1228 0.929 . S
N1191 Li1146 1.990 . S
N1191 C1188 1.314 . S
N1191 C1189 1.279 . S
C1192 C1189 1.358 . S
C1192 C1193 1.356 . S
C1192 H1229 0.930 . S
C1193 C1190 1.348 . S
C1193 C1192 1.356 . S
H1194 C1188 0.930 . S
H1195 C1189 0.930 . S
C1196 N1197 1.314 . S
C1196 C1198 1.353 . S
C1196 H1202 0.930 . S
N1197 Li1147 1.990 . S
N1197 C1196 1.314 . S
N1197 C1200 1.279 . S
C1198 C1196 1.353 . S
C1198 C1201 1.348 . S
C1198 H1230 0.929 . S
C1199 C1200 1.358 . S
C1199 C1201 1.356 . S
C1199 H1231 0.930 . S
C1200 N1197 1.279 . S
C1200 C1199 1.358 . S
C1200 H1203 0.930 . S
C1201 C1198 1.348 . S
C1201 C1199 1.356 . S
H1202 C1196 0.930 . S
H1203 C1200 0.930 . S
O1204 Li1144 1.956 . S
O1204 Li1145 1.970 . S
O1204 Li1146 1.961 . S
O1204 C1148 1.325 . S
O1205 Li1144 1.970 . S
O1205 Li1145 1.956 . S
O1205 Li1147 1.961 . S
O1205 C1154 1.325 . S
O1206 Li1144 1.961 . S
O1206 Li1146 1.956 . S
O1206 Li1147 1.970 . S
O1206 C1176 1.325 . S
O1207 Li1145 1.961 . S
O1207 Li1146 1.970 . S
O1207 Li1147 1.956 . S
O1207 C1182 1.325 . S
H1208 C1150 0.929 . S
H1209 C1151 0.930 . S
H1210 C1152 0.930 . S
H1211 C1153 0.930 . S
H1212 C1155 0.930 . S
H1213 C1157 0.929 . S
H1214 C1158 0.930 . S
H1215 C1159 0.930 . S
H1216 C1162 0.930 . S
H1217 C1165 0.929 . S
H1218 C1170 0.929 . S
H1219 C1171 0.930 . S
H1220 C1178 0.929 . S
H1221 C1179 0.930 . S
H1222 C1180 0.930 . S
H1223 C1181 0.930 . S
H1224 C1183 0.929 . S
H1225 C1184 0.930 . S
H1226 C1185 0.930 . S
H1227 C1186 0.930 . S
H1228 C1190 0.929 . S
H1229 C1192 0.930 . S
H1230 C1198 0.929 . S
H1231 C1199 0.930 . S
Li1232 N1249 1.990 . S
Li1232 O1292 1.956 . S
Li1232 O1293 1.970 . S
Li1232 O1294 1.961 . S
Li1233 N1257 1.990 . S
Li1233 O1292 1.970 . S
Li1233 O1293 1.956 . S
Li1233 O1295 1.961 . S
Li1234 N1279 1.990 . S
Li1234 O1292 1.961 . S
Li1234 O1294 1.956 . S
Li1234 O1295 1.970 . S
Li1235 N1285 1.990 . S
Li1235 O1293 1.961 . S
Li1235 O1294 1.970 . S
Li1235 O1295 1.956 . S
C1236 C1238 1.348 . S
C1236 C1239 1.356 . S
C1236 O1292 1.325 . S
N1237 C1240 1.314 . S
N1237 C1241 1.279 . S
C1238 C1236 1.348 . S
C1238 C1240 1.353 . S
C1238 H1296 0.929 . S
C1239 C1236 1.356 . S
C1239 C1241 1.358 . S
C1239 H1297 0.930 . S
C1240 N1237 1.314 . S
C1240 C1238 1.353 . S
C1240 H1298 0.930 . S
C1241 N1237 1.279 . S
C1241 C1239 1.358 . S
C1241 H1299 0.930 . S
C1242 C1245 1.348 . S
C1242 C1246 1.356 . S
C1242 O1293 1.325 . S
C1243 N1244 1.279 . S
C1243 C1246 1.358 . S
C1243 H1300 0.930 . S
N1244 C1243 1.279 . S
N1244 C1247 1.314 . S
C1245 C1242 1.348 . S
C1245 C1247 1.353 . S
C1245 H1301 0.929 . S
C1246 C1242 1.356 . S
C1246 C1243 1.358 . S
C1246 H1302 0.930 . S
C1247 N1244 1.314 . S
C1247 C1245 1.353 . S
C1247 H1303 0.930 . S
C1248 N1249 1.314 . S
C1248 C1253 1.353 . S
C1248 H1254 0.930 . S
N1249 Li1232 1.990 . S
N1249 C1248 1.314 . S
N1249 C1251 1.279 . S
C1250 C1251 1.358 . S
C1250 C1252 1.356 . S
C1250 H1304 0.930 . S
C1251 N1249 1.279 . S
C1251 C1250 1.358 . S
C1251 H1255 0.930 . S
C1252 C1250 1.356 . S
C1252 C1253 1.348 . S
C1253 C1248 1.353 . S
C1253 C1252 1.348 . S
C1253 H1305 0.929 . S
H1254 C1248 0.930 . S
H1255 C1251 0.930 . S
C1256 N1257 1.314 . S
C1256 C1258 1.353 . S
C1256 H1262 0.930 . S
N1257 Li1233 1.990 . S
N1257 C1256 1.314 . S
N1257 C1260 1.279 . S
C1258 C1256 1.353 . S
C1258 C1261 1.348 . S
C1258 H1306 0.929 . S
C1259 C1260 1.358 . S
C1259 C1261 1.356 . S
C1259 H1307 0.930 . S
C1260 N1257 1.279 . S
C1260 C1259 1.358 . S
C1260 H1263 0.930 . S
C1261 C1258 1.348 . S
C1261 C1259 1.356 . S
H1262 C1256 0.930 . S
H1263 C1260 0.930 . S
C1264 C1266 1.348 . S
C1264 C1267 1.356 . S
C1264 O1294 1.325 . S
N1265 C1268 1.314 . S
N1265 C1269 1.279 . S
C1266 C1264 1.348 . S
C1266 C1268 1.353 . S
C1266 H1308 0.929 . S
C1267 C1264 1.356 . S
C1267 C1269 1.358 . S
C1267 H1309 0.930 . S
C1268 N1265 1.314 . S
C1268 C1266 1.353 . S
C1268 H1310 0.930 . S
C1269 N1265 1.279 . S
C1269 C1267 1.358 . S
C1269 H1311 0.930 . S
C1270 C1271 1.348 . S
C1270 C1272 1.356 . S
C1270 O1295 1.325 . S
C1271 C1270 1.348 . S
C1271 C1273 1.353 . S
C1271 H1312 0.929 . S
C1272 C1270 1.356 . S
C1272 C1274 1.358 . S
C1272 H1313 0.930 . S
C1273 C1271 1.353 . S
C1273 N1275 1.314 . S
C1273 H1314 0.930 . S
C1274 C1272 1.358 . S
C1274 N1275 1.279 . S
C1274 H1315 0.930 . S
N1275 C1273 1.314 . S
N1275 C1274 1.279 . S
C1276 C1278 1.353 . S
C1276 N1279 1.314 . S
C1276 H1282 0.930 . S
C1277 N1279 1.279 . S
C1277 C1280 1.358 . S
C1277 H1283 0.930 . S
C1278 C1276 1.353 . S
C1278 C1281 1.348 . S
C1278 H1316 0.929 . S
N1279 Li1234 1.990 . S
N1279 C1276 1.314 . S
N1279 C1277 1.279 . S
C1280 C1277 1.358 . S
C1280 C1281 1.356 . S
C1280 H1317 0.930 . S
C1281 C1278 1.348 . S
C1281 C1280 1.356 . S
H1282 C1276 0.930 . S
H1283 C1277 0.930 . S
C1284 N1285 1.314 . S
C1284 C1286 1.353 . S
C1284 H1290 0.930 . S
N1285 Li1235 1.990 . S
N1285 C1284 1.314 . S
N1285 C1288 1.279 . S
C1286 C1284 1.353 . S
C1286 C1289 1.348 . S
C1286 H1318 0.929 . S
C1287 C1288 1.358 . S
C1287 C1289 1.356 . S
C1287 H1319 0.930 . S
C1288 N1285 1.279 . S
C1288 C1287 1.358 . S
C1288 H1291 0.930 . S
C1289 C1286 1.348 . S
C1289 C1287 1.356 . S
H1290 C1284 0.930 . S
H1291 C1288 0.930 . S
O1292 Li1232 1.956 . S
O1292 Li1233 1.970 . S
O1292 Li1234 1.961 . S
O1292 C1236 1.325 . S
O1293 Li1232 1.970 . S
O1293 Li1233 1.956 . S
O1293 Li1235 1.961 . S
O1293 C1242 1.325 . S
O1294 Li1232 1.961 . S
O1294 Li1234 1.956 . S
O1294 Li1235 1.970 . S
O1294 C1264 1.325 . S
O1295 Li1233 1.961 . S
O1295 Li1234 1.970 . S
O1295 Li1235 1.956 . S
O1295 C1270 1.325 . S
H1296 C1238 0.929 . S
H1297 C1239 0.930 . S
H1298 C1240 0.930 . S
H1299 C1241 0.930 . S
H1300 C1243 0.930 . S
H1301 C1245 0.929 . S
H1302 C1246 0.930 . S
H1303 C1247 0.930 . S
H1304 C1250 0.930 . S
H1305 C1253 0.929 . S
H1306 C1258 0.929 . S
H1307 C1259 0.930 . S
H1308 C1266 0.929 . S
H1309 C1267 0.930 . S
H1310 C1268 0.930 . S
H1311 C1269 0.930 . S
H1312 C1271 0.929 . S
H1313 C1272 0.930 . S
H1314 C1273 0.930 . S
H1315 C1274 0.930 . S
H1316 C1278 0.929 . S
H1317 C1280 0.930 . S
H1318 C1286 0.929 . S
H1319 C1287 0.930 . S
Li1320 N1337 1.990 . S
Li1320 O1380 1.956 . S
Li1320 O1381 1.970 . S
Li1320 O1382 1.961 . S
Li1321 N1345 1.990 . S
Li1321 O1380 1.970 . S
Li1321 O1381 1.956 . S
Li1321 O1383 1.961 . S
Li1322 N1367 1.990 . S
Li1322 O1380 1.961 . S
Li1322 O1382 1.956 . S
Li1322 O1383 1.970 . S
Li1323 N1373 1.990 . S
Li1323 O1381 1.961 . S
Li1323 O1382 1.970 . S
Li1323 O1383 1.956 . S
C1324 C1326 1.348 . S
C1324 C1327 1.356 . S
C1324 O1380 1.325 . S
N1325 C1328 1.314 . S
N1325 C1329 1.279 . S
C1326 C1324 1.348 . S
C1326 C1328 1.353 . S
C1326 H1384 0.929 . S
C1327 C1324 1.356 . S
C1327 C1329 1.358 . S
C1327 H1385 0.930 . S
C1328 N1325 1.314 . S
C1328 C1326 1.353 . S
C1328 H1386 0.930 . S
C1329 N1325 1.279 . S
C1329 C1327 1.358 . S
C1329 H1387 0.930 . S
C1330 C1333 1.348 . S
C1330 C1334 1.356 . S
C1330 O1381 1.325 . S
C1331 N1332 1.279 . S
C1331 C1334 1.358 . S
C1331 H1388 0.930 . S
N1332 C1331 1.279 . S
N1332 C1335 1.314 . S
C1333 C1330 1.348 . S
C1333 C1335 1.353 . S
C1333 H1389 0.929 . S
C1334 C1330 1.356 . S
C1334 C1331 1.358 . S
C1334 H1390 0.930 . S
C1335 N1332 1.314 . S
C1335 C1333 1.353 . S
C1335 H1391 0.930 . S
C1336 N1337 1.314 . S
C1336 C1341 1.353 . S
C1336 H1342 0.930 . S
N1337 Li1320 1.990 . S
N1337 C1336 1.314 . S
N1337 C1339 1.279 . S
C1338 C1339 1.358 . S
C1338 C1340 1.356 . S
C1338 H1392 0.930 . S
C1339 N1337 1.279 . S
C1339 C1338 1.358 . S
C1339 H1343 0.930 . S
C1340 C1338 1.356 . S
C1340 C1341 1.348 . S
C1341 C1336 1.353 . S
C1341 C1340 1.348 . S
C1341 H1393 0.929 . S
H1342 C1336 0.930 . S
H1343 C1339 0.930 . S
C1344 N1345 1.314 . S
C1344 C1346 1.353 . S
C1344 H1350 0.930 . S
N1345 Li1321 1.990 . S
N1345 C1344 1.314 . S
N1345 C1348 1.279 . S
C1346 C1344 1.353 . S
C1346 C1349 1.348 . S
C1346 H1394 0.929 . S
C1347 C1348 1.358 . S
C1347 C1349 1.356 . S
C1347 H1395 0.930 . S
C1348 N1345 1.279 . S
C1348 C1347 1.358 . S
C1348 H1351 0.930 . S
C1349 C1346 1.348 . S
C1349 C1347 1.356 . S
H1350 C1344 0.930 . S
H1351 C1348 0.930 . S
C1352 C1354 1.348 . S
C1352 C1355 1.356 . S
C1352 O1382 1.325 . S
N1353 C1356 1.314 . S
N1353 C1357 1.279 . S
C1354 C1352 1.348 . S
C1354 C1356 1.353 . S
C1354 H1396 0.929 . S
C1355 C1352 1.356 . S
C1355 C1357 1.358 . S
C1355 H1397 0.930 . S
C1356 N1353 1.314 . S
C1356 C1354 1.353 . S
C1356 H1398 0.930 . S
C1357 N1353 1.279 . S
C1357 C1355 1.358 . S
C1357 H1399 0.930 . S
C1358 C1359 1.348 . S
C1358 C1360 1.356 . S
C1358 O1383 1.325 . S
C1359 C1358 1.348 . S
C1359 C1361 1.353 . S
C1359 H1400 0.929 . S
C1360 C1358 1.356 . S
C1360 C1362 1.358 . S
C1360 H1401 0.930 . S
C1361 C1359 1.353 . S
C1361 N1363 1.314 . S
C1361 H1402 0.930 . S
C1362 C1360 1.358 . S
C1362 N1363 1.279 . S
C1362 H1403 0.930 . S
N1363 C1361 1.314 . S
N1363 C1362 1.279 . S
C1364 C1366 1.353 . S
C1364 N1367 1.314 . S
C1364 H1370 0.930 . S
C1365 N1367 1.279 . S
C1365 C1368 1.358 . S
C1365 H1371 0.930 . S
C1366 C1364 1.353 . S
C1366 C1369 1.348 . S
C1366 H1404 0.929 . S
N1367 Li1322 1.990 . S
N1367 C1364 1.314 . S
N1367 C1365 1.279 . S
C1368 C1365 1.358 . S
C1368 C1369 1.356 . S
C1368 H1405 0.930 . S
C1369 C1366 1.348 . S
C1369 C1368 1.356 . S
H1370 C1364 0.930 . S
H1371 C1365 0.930 . S
C1372 N1373 1.314 . S
C1372 C1374 1.353 . S
C1372 H1378 0.930 . S
N1373 Li1323 1.990 . S
N1373 C1372 1.314 . S
N1373 C1376 1.279 . S
C1374 C1372 1.353 . S
C1374 C1377 1.348 . S
C1374 H1406 0.929 . S
C1375 C1376 1.358 . S
C1375 C1377 1.356 . S
C1375 H1407 0.930 . S
C1376 N1373 1.279 . S
C1376 C1375 1.358 . S
C1376 H1379 0.930 . S
C1377 C1374 1.348 . S
C1377 C1375 1.356 . S
H1378 C1372 0.930 . S
H1379 C1376 0.930 . S
O1380 Li1320 1.956 . S
O1380 Li1321 1.970 . S
O1380 Li1322 1.961 . S
O1380 C1324 1.325 . S
O1381 Li1320 1.970 . S
O1381 Li1321 1.956 . S
O1381 Li1323 1.961 . S
O1381 C1330 1.325 . S
O1382 Li1320 1.961 . S
O1382 Li1322 1.956 . S
O1382 Li1323 1.970 . S
O1382 C1352 1.325 . S
O1383 Li1321 1.961 . S
O1383 Li1322 1.970 . S
O1383 Li1323 1.956 . S
O1383 C1358 1.325 . S
H1384 C1326 0.929 . S
H1385 C1327 0.930 . S
H1386 C1328 0.930 . S
H1387 C1329 0.930 . S
H1388 C1331 0.930 . S
H1389 C1333 0.929 . S
H1390 C1334 0.930 . S
H1391 C1335 0.930 . S
H1392 C1338 0.930 . S
H1393 C1341 0.929 . S
H1394 C1346 0.929 . S
H1395 C1347 0.930 . S
H1396 C1354 0.929 . S
H1397 C1355 0.930 . S
H1398 C1356 0.930 . S
H1399 C1357 0.930 . S
H1400 C1359 0.929 . S
H1401 C1360 0.930 . S
H1402 C1361 0.930 . S
H1403 C1362 0.930 . S
H1404 C1366 0.929 . S
H1405 C1368 0.930 . S
H1406 C1374 0.929 . S
H1407 C1375 0.930 . S
Li1408 N1425 1.990 . S
Li1408 O1468 1.956 . S
Li1408 O1469 1.970 . S
Li1408 O1470 1.961 . S
Li1409 N1433 1.990 . S
Li1409 O1468 1.970 . S
Li1409 O1469 1.956 . S
Li1409 O1471 1.961 . S
Li1410 N1455 1.990 . S
Li1410 O1468 1.961 . S
Li1410 O1470 1.956 . S
Li1410 O1471 1.970 . S
Li1411 N1461 1.990 . S
Li1411 O1469 1.961 . S
Li1411 O1470 1.970 . S
Li1411 O1471 1.956 . S
C1412 C1414 1.348 . S
C1412 C1415 1.356 . S
C1412 O1468 1.325 . S
N1413 C1416 1.314 . S
N1413 C1417 1.279 . S
C1414 C1412 1.348 . S
C1414 C1416 1.353 . S
C1414 H1472 0.929 . S
C1415 C1412 1.356 . S
C1415 C1417 1.358 . S
C1415 H1473 0.930 . S
C1416 N1413 1.314 . S
C1416 C1414 1.353 . S
C1416 H1474 0.930 . S
C1417 N1413 1.279 . S
C1417 C1415 1.358 . S
C1417 H1475 0.930 . S
C1418 C1421 1.348 . S
C1418 C1422 1.356 . S
C1418 O1469 1.325 . S
C1419 N1420 1.279 . S
C1419 C1422 1.358 . S
C1419 H1476 0.930 . S
N1420 C1419 1.279 . S
N1420 C1423 1.314 . S
C1421 C1418 1.348 . S
C1421 C1423 1.353 . S
C1421 H1477 0.929 . S
C1422 C1418 1.356 . S
C1422 C1419 1.358 . S
C1422 H1478 0.930 . S
C1423 N1420 1.314 . S
C1423 C1421 1.353 . S
C1423 H1479 0.930 . S
C1424 N1425 1.314 . S
C1424 C1429 1.353 . S
C1424 H1430 0.930 . S
N1425 Li1408 1.990 . S
N1425 C1424 1.314 . S
N1425 C1427 1.279 . S
C1426 C1427 1.358 . S
C1426 C1428 1.356 . S
C1426 H1480 0.930 . S
C1427 N1425 1.279 . S
C1427 C1426 1.358 . S
C1427 H1431 0.930 . S
C1428 C1426 1.356 . S
C1428 C1429 1.348 . S
C1429 C1424 1.353 . S
C1429 C1428 1.348 . S
C1429 H1481 0.929 . S
H1430 C1424 0.930 . S
H1431 C1427 0.930 . S
C1432 N1433 1.314 . S
C1432 C1434 1.353 . S
C1432 H1438 0.930 . S
N1433 Li1409 1.990 . S
N1433 C1432 1.314 . S
N1433 C1436 1.279 . S
C1434 C1432 1.353 . S
C1434 C1437 1.348 . S
C1434 H1482 0.929 . S
C1435 C1436 1.358 . S
C1435 C1437 1.356 . S
C1435 H1483 0.930 . S
C1436 N1433 1.279 . S
C1436 C1435 1.358 . S
C1436 H1439 0.930 . S
C1437 C1434 1.348 . S
C1437 C1435 1.356 . S
H1438 C1432 0.930 . S
H1439 C1436 0.930 . S
C1440 C1442 1.348 . S
C1440 C1443 1.356 . S
C1440 O1470 1.325 . S
N1441 C1444 1.314 . S
N1441 C1445 1.279 . S
C1442 C1440 1.348 . S
C1442 C1444 1.353 . S
C1442 H1484 0.929 . S
C1443 C1440 1.356 . S
C1443 C1445 1.358 . S
C1443 H1485 0.930 . S
C1444 N1441 1.314 . S
C1444 C1442 1.353 . S
C1444 H1486 0.930 . S
C1445 N1441 1.279 . S
C1445 C1443 1.358 . S
C1445 H1487 0.930 . S
C1446 C1447 1.348 . S
C1446 C1448 1.356 . S
C1446 O1471 1.325 . S
C1447 C1446 1.348 . S
C1447 C1449 1.353 . S
C1447 H1488 0.929 . S
C1448 C1446 1.356 . S
C1448 C1450 1.358 . S
C1448 H1489 0.930 . S
C1449 C1447 1.353 . S
C1449 N1451 1.314 . S
C1449 H1490 0.930 . S
C1450 C1448 1.358 . S
C1450 N1451 1.279 . S
C1450 H1491 0.930 . S
N1451 C1449 1.314 . S
N1451 C1450 1.279 . S
C1452 C1454 1.353 . S
C1452 N1455 1.314 . S
C1452 H1458 0.930 . S
C1453 N1455 1.279 . S
C1453 C1456 1.358 . S
C1453 H1459 0.930 . S
C1454 C1452 1.353 . S
C1454 C1457 1.348 . S
C1454 H1492 0.929 . S
N1455 Li1410 1.990 . S
N1455 C1452 1.314 . S
N1455 C1453 1.279 . S
C1456 C1453 1.358 . S
C1456 C1457 1.356 . S
C1456 H1493 0.930 . S
C1457 C1454 1.348 . S
C1457 C1456 1.356 . S
H1458 C1452 0.930 . S
H1459 C1453 0.930 . S
C1460 N1461 1.314 . S
C1460 C1462 1.353 . S
C1460 H1466 0.930 . S
N1461 Li1411 1.990 . S
N1461 C1460 1.314 . S
N1461 C1464 1.279 . S
C1462 C1460 1.353 . S
C1462 C1465 1.348 . S
C1462 H1494 0.929 . S
C1463 C1464 1.358 . S
C1463 C1465 1.356 . S
C1463 H1495 0.930 . S
C1464 N1461 1.279 . S
C1464 C1463 1.358 . S
C1464 H1467 0.930 . S
C1465 C1462 1.348 . S
C1465 C1463 1.356 . S
H1466 C1460 0.930 . S
H1467 C1464 0.930 . S
O1468 Li1408 1.956 . S
O1468 Li1409 1.970 . S
O1468 Li1410 1.961 . S
O1468 C1412 1.325 . S
O1469 Li1408 1.970 . S
O1469 Li1409 1.956 . S
O1469 Li1411 1.961 . S
O1469 C1418 1.325 . S
O1470 Li1408 1.961 . S
O1470 Li1410 1.956 . S
O1470 Li1411 1.970 . S
O1470 C1440 1.325 . S
O1471 Li1409 1.961 . S
O1471 Li1410 1.970 . S
O1471 Li1411 1.956 . S
O1471 C1446 1.325 . S
H1472 C1414 0.929 . S
H1473 C1415 0.930 . S
H1474 C1416 0.930 . S
H1475 C1417 0.930 . S
H1476 C1419 0.930 . S
H1477 C1421 0.929 . S
H1478 C1422 0.930 . S
H1479 C1423 0.930 . S
H1480 C1426 0.930 . S
H1481 C1429 0.929 . S
H1482 C1434 0.929 . S
H1483 C1435 0.930 . S
H1484 C1442 0.929 . S
H1485 C1443 0.930 . S
H1486 C1444 0.930 . S
H1487 C1445 0.930 . S
H1488 C1447 0.929 . S
H1489 C1448 0.930 . S
H1490 C1449 0.930 . S
H1491 C1450 0.930 . S
H1492 C1454 0.929 . S
H1493 C1456 0.930 . S
H1494 C1462 0.929 . S
H1495 C1463 0.930 . S
Li1496 N1513 1.990 . S
Li1496 O1556 1.956 . S
Li1496 O1557 1.970 . S
Li1496 O1558 1.961 . S
Li1497 N1521 1.990 . S
Li1497 O1556 1.970 . S
Li1497 O1557 1.956 . S
Li1497 O1559 1.961 . S
Li1498 N1543 1.990 . S
Li1498 O1556 1.961 . S
Li1498 O1558 1.956 . S
Li1498 O1559 1.970 . S
Li1499 N1549 1.990 . S
Li1499 O1557 1.961 . S
Li1499 O1558 1.970 . S
Li1499 O1559 1.956 . S
C1500 C1502 1.348 . S
C1500 C1503 1.356 . S
C1500 O1556 1.325 . S
N1501 C1504 1.314 . S
N1501 C1505 1.279 . S
C1502 C1500 1.348 . S
C1502 C1504 1.353 . S
C1502 H1560 0.929 . S
C1503 C1500 1.356 . S
C1503 C1505 1.358 . S
C1503 H1561 0.930 . S
C1504 N1501 1.314 . S
C1504 C1502 1.353 . S
C1504 H1562 0.930 . S
C1505 N1501 1.279 . S
C1505 C1503 1.358 . S
C1505 H1563 0.930 . S
C1506 C1509 1.348 . S
C1506 C1510 1.356 . S
C1506 O1557 1.325 . S
C1507 N1508 1.279 . S
C1507 C1510 1.358 . S
C1507 H1564 0.930 . S
N1508 C1507 1.279 . S
N1508 C1511 1.314 . S
C1509 C1506 1.348 . S
C1509 C1511 1.353 . S
C1509 H1565 0.929 . S
C1510 C1506 1.356 . S
C1510 C1507 1.358 . S
C1510 H1566 0.930 . S
C1511 N1508 1.314 . S
C1511 C1509 1.353 . S
C1511 H1567 0.930 . S
C1512 N1513 1.314 . S
C1512 C1517 1.353 . S
C1512 H1518 0.930 . S
N1513 Li1496 1.990 . S
N1513 C1512 1.314 . S
N1513 C1515 1.279 . S
C1514 C1515 1.358 . S
C1514 C1516 1.356 . S
C1514 H1568 0.930 . S
C1515 N1513 1.279 . S
C1515 C1514 1.358 . S
C1515 H1519 0.930 . S
C1516 C1514 1.356 . S
C1516 C1517 1.348 . S
C1517 C1512 1.353 . S
C1517 C1516 1.348 . S
C1517 H1569 0.929 . S
H1518 C1512 0.930 . S
H1519 C1515 0.930 . S
C1520 N1521 1.314 . S
C1520 C1522 1.353 . S
C1520 H1526 0.930 . S
N1521 Li1497 1.990 . S
N1521 C1520 1.314 . S
N1521 C1524 1.279 . S
C1522 C1520 1.353 . S
C1522 C1525 1.348 . S
C1522 H1570 0.929 . S
C1523 C1524 1.358 . S
C1523 C1525 1.356 . S
C1523 H1571 0.930 . S
C1524 N1521 1.279 . S
C1524 C1523 1.358 . S
C1524 H1527 0.930 . S
C1525 C1522 1.348 . S
C1525 C1523 1.356 . S
H1526 C1520 0.930 . S
H1527 C1524 0.930 . S
C1528 C1530 1.348 . S
C1528 C1531 1.356 . S
C1528 O1558 1.325 . S
N1529 C1532 1.314 . S
N1529 C1533 1.279 . S
C1530 C1528 1.348 . S
C1530 C1532 1.353 . S
C1530 H1572 0.929 . S
C1531 C1528 1.356 . S
C1531 C1533 1.358 . S
C1531 H1573 0.930 . S
C1532 N1529 1.314 . S
C1532 C1530 1.353 . S
C1532 H1574 0.930 . S
C1533 N1529 1.279 . S
C1533 C1531 1.358 . S
C1533 H1575 0.930 . S
C1534 C1535 1.348 . S
C1534 C1536 1.356 . S
C1534 O1559 1.325 . S
C1535 C1534 1.348 . S
C1535 C1537 1.353 . S
C1535 H1576 0.929 . S
C1536 C1534 1.356 . S
C1536 C1538 1.358 . S
C1536 H1577 0.930 . S
C1537 C1535 1.353 . S
C1537 N1539 1.314 . S
C1537 H1578 0.930 . S
C1538 C1536 1.358 . S
C1538 N1539 1.279 . S
C1538 H1579 0.930 . S
N1539 C1537 1.314 . S
N1539 C1538 1.279 . S
C1540 C1542 1.353 . S
C1540 N1543 1.314 . S
C1540 H1546 0.930 . S
C1541 N1543 1.279 . S
C1541 C1544 1.358 . S
C1541 H1547 0.930 . S
C1542 C1540 1.353 . S
C1542 C1545 1.348 . S
C1542 H1580 0.929 . S
N1543 Li1498 1.990 . S
N1543 C1540 1.314 . S
N1543 C1541 1.279 . S
C1544 C1541 1.358 . S
C1544 C1545 1.356 . S
C1544 H1581 0.930 . S
C1545 C1542 1.348 . S
C1545 C1544 1.356 . S
H1546 C1540 0.930 . S
H1547 C1541 0.930 . S
C1548 N1549 1.314 . S
C1548 C1550 1.353 . S
C1548 H1554 0.930 . S
N1549 Li1499 1.990 . S
N1549 C1548 1.314 . S
N1549 C1552 1.279 . S
C1550 C1548 1.353 . S
C1550 C1553 1.348 . S
C1550 H1582 0.929 . S
C1551 C1552 1.358 . S
C1551 C1553 1.356 . S
C1551 H1583 0.930 . S
C1552 N1549 1.279 . S
C1552 C1551 1.358 . S
C1552 H1555 0.930 . S
C1553 C1550 1.348 . S
C1553 C1551 1.356 . S
H1554 C1548 0.930 . S
H1555 C1552 0.930 . S
O1556 Li1496 1.956 . S
O1556 Li1497 1.970 . S
O1556 Li1498 1.961 . S
O1556 C1500 1.325 . S
O1557 Li1496 1.970 . S
O1557 Li1497 1.956 . S
O1557 Li1499 1.961 . S
O1557 C1506 1.325 . S
O1558 Li1496 1.961 . S
O1558 Li1498 1.956 . S
O1558 Li1499 1.970 . S
O1558 C1528 1.325 . S
O1559 Li1497 1.961 . S
O1559 Li1498 1.970 . S
O1559 Li1499 1.956 . S
O1559 C1534 1.325 . S
H1560 C1502 0.929 . S
H1561 C1503 0.930 . S
H1562 C1504 0.930 . S
H1563 C1505 0.930 . S
H1564 C1507 0.930 . S
H1565 C1509 0.929 . S
H1566 C1510 0.930 . S
H1567 C1511 0.930 . S
H1568 C1514 0.930 . S
H1569 C1517 0.929 . S
H1570 C1522 0.929 . S
H1571 C1523 0.930 . S
H1572 C1530 0.929 . S
H1573 C1531 0.930 . S
H1574 C1532 0.930 . S
H1575 C1533 0.930 . S
H1576 C1535 0.929 . S
H1577 C1536 0.930 . S
H1578 C1537 0.930 . S
H1579 C1538 0.930 . S
H1580 C1542 0.929 . S
H1581 C1544 0.930 . S
H1582 C1550 0.929 . S
H1583 C1551 0.930 . S
Li1584 N1601 1.990 . S
Li1584 O1644 1.956 . S
Li1584 O1645 1.970 . S
Li1584 O1646 1.961 . S
Li1585 N1609 1.990 . S
Li1585 O1644 1.970 . S
Li1585 O1645 1.956 . S
Li1585 O1647 1.961 . S
Li1586 N1631 1.990 . S
Li1586 O1644 1.961 . S
Li1586 O1646 1.956 . S
Li1586 O1647 1.970 . S
Li1587 N1637 1.990 . S
Li1587 O1645 1.961 . S
Li1587 O1646 1.970 . S
Li1587 O1647 1.956 . S
C1588 C1590 1.348 . S
C1588 C1591 1.356 . S
C1588 O1644 1.325 . S
N1589 C1592 1.314 . S
N1589 C1593 1.279 . S
C1590 C1588 1.348 . S
C1590 C1592 1.353 . S
C1590 H1648 0.929 . S
C1591 C1588 1.356 . S
C1591 C1593 1.358 . S
C1591 H1649 0.930 . S
C1592 N1589 1.314 . S
C1592 C1590 1.353 . S
C1592 H1650 0.930 . S
C1593 N1589 1.279 . S
C1593 C1591 1.358 . S
C1593 H1651 0.930 . S
C1594 C1597 1.348 . S
C1594 C1598 1.356 . S
C1594 O1645 1.325 . S
C1595 N1596 1.279 . S
C1595 C1598 1.358 . S
C1595 H1652 0.930 . S
N1596 C1595 1.279 . S
N1596 C1599 1.314 . S
C1597 C1594 1.348 . S
C1597 C1599 1.353 . S
C1597 H1653 0.929 . S
C1598 C1594 1.356 . S
C1598 C1595 1.358 . S
C1598 H1654 0.930 . S
C1599 N1596 1.314 . S
C1599 C1597 1.353 . S
C1599 H1655 0.930 . S
C1600 N1601 1.314 . S
C1600 C1605 1.353 . S
C1600 H1606 0.930 . S
N1601 Li1584 1.990 . S
N1601 C1600 1.314 . S
N1601 C1603 1.279 . S
C1602 C1603 1.358 . S
C1602 C1604 1.356 . S
C1602 H1656 0.930 . S
C1603 N1601 1.279 . S
C1603 C1602 1.358 . S
C1603 H1607 0.930 . S
C1604 C1602 1.356 . S
C1604 C1605 1.348 . S
C1605 C1600 1.353 . S
C1605 C1604 1.348 . S
C1605 H1657 0.929 . S
H1606 C1600 0.930 . S
H1607 C1603 0.930 . S
C1608 N1609 1.314 . S
C1608 C1610 1.353 . S
C1608 H1614 0.930 . S
N1609 Li1585 1.990 . S
N1609 C1608 1.314 . S
N1609 C1612 1.279 . S
C1610 C1608 1.353 . S
C1610 C1613 1.348 . S
C1610 H1658 0.929 . S
C1611 C1612 1.358 . S
C1611 C1613 1.356 . S
C1611 H1659 0.930 . S
C1612 N1609 1.279 . S
C1612 C1611 1.358 . S
C1612 H1615 0.930 . S
C1613 C1610 1.348 . S
C1613 C1611 1.356 . S
H1614 C1608 0.930 . S
H1615 C1612 0.930 . S
C1616 C1618 1.348 . S
C1616 C1619 1.356 . S
C1616 O1646 1.325 . S
N1617 C1620 1.314 . S
N1617 C1621 1.279 . S
C1618 C1616 1.348 . S
C1618 C1620 1.353 . S
C1618 H1660 0.929 . S
C1619 C1616 1.356 . S
C1619 C1621 1.358 . S
C1619 H1661 0.930 . S
C1620 N1617 1.314 . S
C1620 C1618 1.353 . S
C1620 H1662 0.930 . S
C1621 N1617 1.279 . S
C1621 C1619 1.358 . S
C1621 H1663 0.930 . S
C1622 C1623 1.348 . S
C1622 C1624 1.356 . S
C1622 O1647 1.325 . S
C1623 C1622 1.348 . S
C1623 C1625 1.353 . S
C1623 H1664 0.929 . S
C1624 C1622 1.356 . S
C1624 C1626 1.358 . S
C1624 H1665 0.930 . S
C1625 C1623 1.353 . S
C1625 N1627 1.314 . S
C1625 H1666 0.930 . S
C1626 C1624 1.358 . S
C1626 N1627 1.279 . S
C1626 H1667 0.930 . S
N1627 C1625 1.314 . S
N1627 C1626 1.279 . S
C1628 C1630 1.353 . S
C1628 N1631 1.314 . S
C1628 H1634 0.930 . S
C1629 N1631 1.279 . S
C1629 C1632 1.358 . S
C1629 H1635 0.930 . S
C1630 C1628 1.353 . S
C1630 C1633 1.348 . S
C1630 H1668 0.929 . S
N1631 Li1586 1.990 . S
N1631 C1628 1.314 . S
N1631 C1629 1.279 . S
C1632 C1629 1.358 . S
C1632 C1633 1.356 . S
C1632 H1669 0.930 . S
C1633 C1630 1.348 . S
C1633 C1632 1.356 . S
H1634 C1628 0.930 . S
H1635 C1629 0.930 . S
C1636 N1637 1.314 . S
C1636 C1638 1.353 . S
C1636 H1642 0.930 . S
N1637 Li1587 1.990 . S
N1637 C1636 1.314 . S
N1637 C1640 1.279 . S
C1638 C1636 1.353 . S
C1638 C1641 1.348 . S
C1638 H1670 0.929 . S
C1639 C1640 1.358 . S
C1639 C1641 1.356 . S
C1639 H1671 0.930 . S
C1640 N1637 1.279 . S
C1640 C1639 1.358 . S
C1640 H1643 0.930 . S
C1641 C1638 1.348 . S
C1641 C1639 1.356 . S
H1642 C1636 0.930 . S
H1643 C1640 0.930 . S
O1644 Li1584 1.956 . S
O1644 Li1585 1.970 . S
O1644 Li1586 1.961 . S
O1644 C1588 1.325 . S
O1645 Li1584 1.970 . S
O1645 Li1585 1.956 . S
O1645 Li1587 1.961 . S
O1645 C1594 1.325 . S
O1646 Li1584 1.961 . S
O1646 Li1586 1.956 . S
O1646 Li1587 1.970 . S
O1646 C1616 1.325 . S
O1647 Li1585 1.961 . S
O1647 Li1586 1.970 . S
O1647 Li1587 1.956 . S
O1647 C1622 1.325 . S
H1648 C1590 0.929 . S
H1649 C1591 0.930 . S
H1650 C1592 0.930 . S
H1651 C1593 0.930 . S
H1652 C1595 0.930 . S
H1653 C1597 0.929 . S
H1654 C1598 0.930 . S
H1655 C1599 0.930 . S
H1656 C1602 0.930 . S
H1657 C1605 0.929 . S
H1658 C1610 0.929 . S
H1659 C1611 0.930 . S
H1660 C1618 0.929 . S
H1661 C1619 0.930 . S
H1662 C1620 0.930 . S
H1663 C1621 0.930 . S
H1664 C1623 0.929 . S
H1665 C1624 0.930 . S
H1666 C1625 0.930 . S
H1667 C1626 0.930 . S
H1668 C1630 0.929 . S
H1669 C1632 0.930 . S
H1670 C1638 0.929 . S
H1671 C1639 0.930 . S
Li1672 N1689 1.990 . S
Li1672 O1732 1.956 . S
Li1672 O1733 1.970 . S
Li1672 O1734 1.961 . S
Li1673 N1697 1.990 . S
Li1673 O1732 1.970 . S
Li1673 O1733 1.956 . S
Li1673 O1735 1.961 . S
Li1674 N1719 1.990 . S
Li1674 O1732 1.961 . S
Li1674 O1734 1.956 . S
Li1674 O1735 1.970 . S
Li1675 N1725 1.990 . S
Li1675 O1733 1.961 . S
Li1675 O1734 1.970 . S
Li1675 O1735 1.956 . S
C1676 C1678 1.348 . S
C1676 C1679 1.356 . S
C1676 O1732 1.325 . S
N1677 C1680 1.314 . S
N1677 C1681 1.279 . S
C1678 C1676 1.348 . S
C1678 C1680 1.353 . S
C1678 H1736 0.929 . S
C1679 C1676 1.356 . S
C1679 C1681 1.358 . S
C1679 H1737 0.930 . S
C1680 N1677 1.314 . S
C1680 C1678 1.353 . S
C1680 H1738 0.930 . S
C1681 N1677 1.279 . S
C1681 C1679 1.358 . S
C1681 H1739 0.930 . S
C1682 C1685 1.348 . S
C1682 C1686 1.356 . S
C1682 O1733 1.325 . S
C1683 N1684 1.279 . S
C1683 C1686 1.358 . S
C1683 H1740 0.930 . S
N1684 C1683 1.279 . S
N1684 C1687 1.314 . S
C1685 C1682 1.348 . S
C1685 C1687 1.353 . S
C1685 H1741 0.929 . S
C1686 C1682 1.356 . S
C1686 C1683 1.358 . S
C1686 H1742 0.930 . S
C1687 N1684 1.314 . S
C1687 C1685 1.353 . S
C1687 H1743 0.930 . S
C1688 N1689 1.314 . S
C1688 C1693 1.353 . S
C1688 H1694 0.930 . S
N1689 Li1672 1.990 . S
N1689 C1688 1.314 . S
N1689 C1691 1.279 . S
C1690 C1691 1.358 . S
C1690 C1692 1.356 . S
C1690 H1744 0.930 . S
C1691 N1689 1.279 . S
C1691 C1690 1.358 . S
C1691 H1695 0.930 . S
C1692 C1690 1.356 . S
C1692 C1693 1.348 . S
C1693 C1688 1.353 . S
C1693 C1692 1.348 . S
C1693 H1745 0.929 . S
H1694 C1688 0.930 . S
H1695 C1691 0.930 . S
C1696 N1697 1.314 . S
C1696 C1698 1.353 . S
C1696 H1702 0.930 . S
N1697 Li1673 1.990 . S
N1697 C1696 1.314 . S
N1697 C1700 1.279 . S
C1698 C1696 1.353 . S
C1698 C1701 1.348 . S
C1698 H1746 0.929 . S
C1699 C1700 1.358 . S
C1699 C1701 1.356 . S
C1699 H1747 0.930 . S
C1700 N1697 1.279 . S
C1700 C1699 1.358 . S
C1700 H1703 0.930 . S
C1701 C1698 1.348 . S
C1701 C1699 1.356 . S
H1702 C1696 0.930 . S
H1703 C1700 0.930 . S
C1704 C1706 1.348 . S
C1704 C1707 1.356 . S
C1704 O1734 1.325 . S
N1705 C1708 1.314 . S
N1705 C1709 1.279 . S
C1706 C1704 1.348 . S
C1706 C1708 1.353 . S
C1706 H1748 0.929 . S
C1707 C1704 1.356 . S
C1707 C1709 1.358 . S
C1707 H1749 0.930 . S
C1708 N1705 1.314 . S
C1708 C1706 1.353 . S
C1708 H1750 0.930 . S
C1709 N1705 1.279 . S
C1709 C1707 1.358 . S
C1709 H1751 0.930 . S
C1710 C1711 1.348 . S
C1710 C1712 1.356 . S
C1710 O1735 1.325 . S
C1711 C1710 1.348 . S
C1711 C1713 1.353 . S
C1711 H1752 0.929 . S
C1712 C1710 1.356 . S
C1712 C1714 1.358 . S
C1712 H1753 0.930 . S
C1713 C1711 1.353 . S
C1713 N1715 1.314 . S
C1713 H1754 0.930 . S
C1714 C1712 1.358 . S
C1714 N1715 1.279 . S
C1714 H1755 0.930 . S
N1715 C1713 1.314 . S
N1715 C1714 1.279 . S
C1716 C1718 1.353 . S
C1716 N1719 1.314 . S
C1716 H1722 0.930 . S
C1717 N1719 1.279 . S
C1717 C1720 1.358 . S
C1717 H1723 0.930 . S
C1718 C1716 1.353 . S
C1718 C1721 1.348 . S
C1718 H1756 0.929 . S
N1719 Li1674 1.990 . S
N1719 C1716 1.314 . S
N1719 C1717 1.279 . S
C1720 C1717 1.358 . S
C1720 C1721 1.356 . S
C1720 H1757 0.930 . S
C1721 C1718 1.348 . S
C1721 C1720 1.356 . S
H1722 C1716 0.930 . S
H1723 C1717 0.930 . S
C1724 N1725 1.314 . S
C1724 C1726 1.353 . S
C1724 H1730 0.930 . S
N1725 Li1675 1.990 . S
N1725 C1724 1.314 . S
N1725 C1728 1.279 . S
C1726 C1724 1.353 . S
C1726 C1729 1.348 . S
C1726 H1758 0.929 . S
C1727 C1728 1.358 . S
C1727 C1729 1.356 . S
C1727 H1759 0.930 . S
C1728 N1725 1.279 . S
C1728 C1727 1.358 . S
C1728 H1731 0.930 . S
C1729 C1726 1.348 . S
C1729 C1727 1.356 . S
H1730 C1724 0.930 . S
H1731 C1728 0.930 . S
O1732 Li1672 1.956 . S
O1732 Li1673 1.970 . S
O1732 Li1674 1.961 . S
O1732 C1676 1.325 . S
O1733 Li1672 1.970 . S
O1733 Li1673 1.956 . S
O1733 Li1675 1.961 . S
O1733 C1682 1.325 . S
O1734 Li1672 1.961 . S
O1734 Li1674 1.956 . S
O1734 Li1675 1.970 . S
O1734 C1704 1.325 . S
O1735 Li1673 1.961 . S
O1735 Li1674 1.970 . S
O1735 Li1675 1.956 . S
O1735 C1710 1.325 . S
H1736 C1678 0.929 . S
H1737 C1679 0.930 . S
H1738 C1680 0.930 . S
H1739 C1681 0.930 . S
H1740 C1683 0.930 . S
H1741 C1685 0.929 . S
H1742 C1686 0.930 . S
H1743 C1687 0.930 . S
H1744 C1690 0.930 . S
H1745 C1693 0.929 . S
H1746 C1698 0.929 . S
H1747 C1699 0.930 . S
H1748 C1706 0.929 . S
H1749 C1707 0.930 . S
H1750 C1708 0.930 . S
H1751 C1709 0.930 . S
H1752 C1711 0.929 . S
H1753 C1712 0.930 . S
H1754 C1713 0.930 . S
H1755 C1714 0.930 . S
H1756 C1718 0.929 . S
H1757 C1720 0.930 . S
H1758 C1726 0.929 . S
H1759 C1727 0.930 . S
Li1760 N1777 1.990 . S
Li1760 O1820 1.956 . S
Li1760 O1821 1.970 . S
Li1760 O1822 1.961 . S
Li1761 N1785 1.990 . S
Li1761 O1820 1.970 . S
Li1761 O1821 1.956 . S
Li1761 O1823 1.961 . S
Li1762 N1807 1.990 . S
Li1762 O1820 1.961 . S
Li1762 O1822 1.956 . S
Li1762 O1823 1.970 . S
Li1763 N1813 1.990 . S
Li1763 O1821 1.961 . S
Li1763 O1822 1.970 . S
Li1763 O1823 1.956 . S
C1764 C1766 1.348 . S
C1764 C1767 1.356 . S
C1764 O1820 1.325 . S
N1765 C1768 1.314 . S
N1765 C1769 1.279 . S
C1766 C1764 1.348 . S
C1766 C1768 1.353 . S
C1766 H1824 0.929 . S
C1767 C1764 1.356 . S
C1767 C1769 1.358 . S
C1767 H1825 0.930 . S
C1768 N1765 1.314 . S
C1768 C1766 1.353 . S
C1768 H1826 0.930 . S
C1769 N1765 1.279 . S
C1769 C1767 1.358 . S
C1769 H1827 0.930 . S
C1770 C1773 1.348 . S
C1770 C1774 1.356 . S
C1770 O1821 1.325 . S
C1771 N1772 1.279 . S
C1771 C1774 1.358 . S
C1771 H1828 0.930 . S
N1772 C1771 1.279 . S
N1772 C1775 1.314 . S
C1773 C1770 1.348 . S
C1773 C1775 1.353 . S
C1773 H1829 0.929 . S
C1774 C1770 1.356 . S
C1774 C1771 1.358 . S
C1774 H1830 0.930 . S
C1775 N1772 1.314 . S
C1775 C1773 1.353 . S
C1775 H1831 0.930 . S
C1776 N1777 1.314 . S
C1776 C1781 1.353 . S
C1776 H1782 0.930 . S
N1777 Li1760 1.990 . S
N1777 C1776 1.314 . S
N1777 C1779 1.279 . S
C1778 C1779 1.358 . S
C1778 C1780 1.356 . S
C1778 H1832 0.930 . S
C1779 N1777 1.279 . S
C1779 C1778 1.358 . S
C1779 H1783 0.930 . S
C1780 C1778 1.356 . S
C1780 C1781 1.348 . S
C1781 C1776 1.353 . S
C1781 C1780 1.348 . S
C1781 H1833 0.929 . S
H1782 C1776 0.930 . S
H1783 C1779 0.930 . S
C1784 N1785 1.314 . S
C1784 C1786 1.353 . S
C1784 H1790 0.930 . S
N1785 Li1761 1.990 . S
N1785 C1784 1.314 . S
N1785 C1788 1.279 . S
C1786 C1784 1.353 . S
C1786 C1789 1.348 . S
C1786 H1834 0.929 . S
C1787 C1788 1.358 . S
C1787 C1789 1.356 . S
C1787 H1835 0.930 . S
C1788 N1785 1.279 . S
C1788 C1787 1.358 . S
C1788 H1791 0.930 . S
C1789 C1786 1.348 . S
C1789 C1787 1.356 . S
H1790 C1784 0.930 . S
H1791 C1788 0.930 . S
C1792 C1794 1.348 . S
C1792 C1795 1.356 . S
C1792 O1822 1.325 . S
N1793 C1796 1.314 . S
N1793 C1797 1.279 . S
C1794 C1792 1.348 . S
C1794 C1796 1.353 . S
C1794 H1836 0.929 . S
C1795 C1792 1.356 . S
C1795 C1797 1.358 . S
C1795 H1837 0.930 . S
C1796 N1793 1.314 . S
C1796 C1794 1.353 . S
C1796 H1838 0.930 . S
C1797 N1793 1.279 . S
C1797 C1795 1.358 . S
C1797 H1839 0.930 . S
C1798 C1799 1.348 . S
C1798 C1800 1.356 . S
C1798 O1823 1.325 . S
C1799 C1798 1.348 . S
C1799 C1801 1.353 . S
C1799 H1840 0.929 . S
C1800 C1798 1.356 . S
C1800 C1802 1.358 . S
C1800 H1841 0.930 . S
C1801 C1799 1.353 . S
C1801 N1803 1.314 . S
C1801 H1842 0.930 . S
C1802 C1800 1.358 . S
C1802 N1803 1.279 . S
C1802 H1843 0.930 . S
N1803 C1801 1.314 . S
N1803 C1802 1.279 . S
C1804 C1806 1.353 . S
C1804 N1807 1.314 . S
C1804 H1810 0.930 . S
C1805 N1807 1.279 . S
C1805 C1808 1.358 . S
C1805 H1811 0.930 . S
C1806 C1804 1.353 . S
C1806 C1809 1.348 . S
C1806 H1844 0.929 . S
N1807 Li1762 1.990 . S
N1807 C1804 1.314 . S
N1807 C1805 1.279 . S
C1808 C1805 1.358 . S
C1808 C1809 1.356 . S
C1808 H1845 0.930 . S
C1809 C1806 1.348 . S
C1809 C1808 1.356 . S
H1810 C1804 0.930 . S
H1811 C1805 0.930 . S
C1812 N1813 1.314 . S
C1812 C1814 1.353 . S
C1812 H1818 0.930 . S
N1813 Li1763 1.990 . S
N1813 C1812 1.314 . S
N1813 C1816 1.279 . S
C1814 C1812 1.353 . S
C1814 C1817 1.348 . S
C1814 H1846 0.929 . S
C1815 C1816 1.358 . S
C1815 C1817 1.356 . S
C1815 H1847 0.930 . S
C1816 N1813 1.279 . S
C1816 C1815 1.358 . S
C1816 H1819 0.930 . S
C1817 C1814 1.348 . S
C1817 C1815 1.356 . S
H1818 C1812 0.930 . S
H1819 C1816 0.930 . S
O1820 Li1760 1.956 . S
O1820 Li1761 1.970 . S
O1820 Li1762 1.961 . S
O1820 C1764 1.325 . S
O1821 Li1760 1.970 . S
O1821 Li1761 1.956 . S
O1821 Li1763 1.961 . S
O1821 C1770 1.325 . S
O1822 Li1760 1.961 . S
O1822 Li1762 1.956 . S
O1822 Li1763 1.970 . S
O1822 C1792 1.325 . S
O1823 Li1761 1.961 . S
O1823 Li1762 1.970 . S
O1823 Li1763 1.956 . S
O1823 C1798 1.325 . S
H1824 C1766 0.929 . S
H1825 C1767 0.930 . S
H1826 C1768 0.930 . S
H1827 C1769 0.930 . S
H1828 C1771 0.930 . S
H1829 C1773 0.929 . S
H1830 C1774 0.930 . S
H1831 C1775 0.930 . S
H1832 C1778 0.930 . S
H1833 C1781 0.929 . S
H1834 C1786 0.929 . S
H1835 C1787 0.930 . S
H1836 C1794 0.929 . S
H1837 C1795 0.930 . S
H1838 C1796 0.930 . S
H1839 C1797 0.930 . S
H1840 C1799 0.929 . S
H1841 C1800 0.930 . S
H1842 C1801 0.930 . S
H1843 C1802 0.930 . S
H1844 C1806 0.929 . S
H1845 C1808 0.930 . S
H1846 C1814 0.929 . S
H1847 C1815 0.930 . S
Li1848 N1865 1.990 . S
Li1848 O1908 1.956 . S
Li1848 O1909 1.970 . S
Li1848 O1910 1.961 . S
Li1849 N1873 1.990 . S
Li1849 O1908 1.970 . S
Li1849 O1909 1.956 . S
Li1849 O1911 1.961 . S
Li1850 N1895 1.990 . S
Li1850 O1908 1.961 . S
Li1850 O1910 1.956 . S
Li1850 O1911 1.970 . S
Li1851 N1901 1.990 . S
Li1851 O1909 1.961 . S
Li1851 O1910 1.970 . S
Li1851 O1911 1.956 . S
C1852 C1854 1.348 . S
C1852 C1855 1.356 . S
C1852 O1908 1.325 . S
N1853 C1856 1.314 . S
N1853 C1857 1.279 . S
C1854 C1852 1.348 . S
C1854 C1856 1.353 . S
C1854 H1912 0.929 . S
C1855 C1852 1.356 . S
C1855 C1857 1.358 . S
C1855 H1913 0.930 . S
C1856 N1853 1.314 . S
C1856 C1854 1.353 . S
C1856 H1914 0.930 . S
C1857 N1853 1.279 . S
C1857 C1855 1.358 . S
C1857 H1915 0.930 . S
C1858 C1861 1.348 . S
C1858 C1862 1.356 . S
C1858 O1909 1.325 . S
C1859 N1860 1.279 . S
C1859 C1862 1.358 . S
C1859 H1916 0.930 . S
N1860 C1859 1.279 . S
N1860 C1863 1.314 . S
C1861 C1858 1.348 . S
C1861 C1863 1.353 . S
C1861 H1917 0.929 . S
C1862 C1858 1.356 . S
C1862 C1859 1.358 . S
C1862 H1918 0.930 . S
C1863 N1860 1.314 . S
C1863 C1861 1.353 . S
C1863 H1919 0.930 . S
C1864 N1865 1.314 . S
C1864 C1869 1.353 . S
C1864 H1870 0.930 . S
N1865 Li1848 1.990 . S
N1865 C1864 1.314 . S
N1865 C1867 1.279 . S
C1866 C1867 1.358 . S
C1866 C1868 1.356 . S
C1866 H1920 0.930 . S
C1867 N1865 1.279 . S
C1867 C1866 1.358 . S
C1867 H1871 0.930 . S
C1868 C1866 1.356 . S
C1868 C1869 1.348 . S
C1869 C1864 1.353 . S
C1869 C1868 1.348 . S
C1869 H1921 0.929 . S
H1870 C1864 0.930 . S
H1871 C1867 0.930 . S
C1872 N1873 1.314 . S
C1872 C1874 1.353 . S
C1872 H1878 0.930 . S
N1873 Li1849 1.990 . S
N1873 C1872 1.314 . S
N1873 C1876 1.279 . S
C1874 C1872 1.353 . S
C1874 C1877 1.348 . S
C1874 H1922 0.929 . S
C1875 C1876 1.358 . S
C1875 C1877 1.356 . S
C1875 H1923 0.930 . S
C1876 N1873 1.279 . S
C1876 C1875 1.358 . S
C1876 H1879 0.930 . S
C1877 C1874 1.348 . S
C1877 C1875 1.356 . S
H1878 C1872 0.930 . S
H1879 C1876 0.930 . S
C1880 C1882 1.348 . S
C1880 C1883 1.356 . S
C1880 O1910 1.325 . S
N1881 C1884 1.314 . S
N1881 C1885 1.279 . S
C1882 C1880 1.348 . S
C1882 C1884 1.353 . S
C1882 H1924 0.929 . S
C1883 C1880 1.356 . S
C1883 C1885 1.358 . S
C1883 H1925 0.930 . S
C1884 N1881 1.314 . S
C1884 C1882 1.353 . S
C1884 H1926 0.930 . S
C1885 N1881 1.279 . S
C1885 C1883 1.358 . S
C1885 H1927 0.930 . S
C1886 C1887 1.348 . S
C1886 C1888 1.356 . S
C1886 O1911 1.325 . S
C1887 C1886 1.348 . S
C1887 C1889 1.353 . S
C1887 H1928 0.929 . S
C1888 C1886 1.356 . S
C1888 C1890 1.358 . S
C1888 H1929 0.930 . S
C1889 C1887 1.353 . S
C1889 N1891 1.314 . S
C1889 H1930 0.930 . S
C1890 C1888 1.358 . S
C1890 N1891 1.279 . S
C1890 H1931 0.930 . S
N1891 C1889 1.314 . S
N1891 C1890 1.279 . S
C1892 C1894 1.353 . S
C1892 N1895 1.314 . S
C1892 H1898 0.930 . S
C1893 N1895 1.279 . S
C1893 C1896 1.358 . S
C1893 H1899 0.930 . S
C1894 C1892 1.353 . S
C1894 C1897 1.348 . S
C1894 H1932 0.929 . S
N1895 Li1850 1.990 . S
N1895 C1892 1.314 . S
N1895 C1893 1.279 . S
C1896 C1893 1.358 . S
C1896 C1897 1.356 . S
C1896 H1933 0.930 . S
C1897 C1894 1.348 . S
C1897 C1896 1.356 . S
H1898 C1892 0.930 . S
H1899 C1893 0.930 . S
C1900 N1901 1.314 . S
C1900 C1902 1.353 . S
C1900 H1906 0.930 . S
N1901 Li1851 1.990 . S
N1901 C1900 1.314 . S
N1901 C1904 1.279 . S
C1902 C1900 1.353 . S
C1902 C1905 1.348 . S
C1902 H1934 0.929 . S
C1903 C1904 1.358 . S
C1903 C1905 1.356 . S
C1903 H1935 0.930 . S
C1904 N1901 1.279 . S
C1904 C1903 1.358 . S
C1904 H1907 0.930 . S
C1905 C1902 1.348 . S
C1905 C1903 1.356 . S
H1906 C1900 0.930 . S
H1907 C1904 0.930 . S
O1908 Li1848 1.956 . S
O1908 Li1849 1.970 . S
O1908 Li1850 1.961 . S
O1908 C1852 1.325 . S
O1909 Li1848 1.970 . S
O1909 Li1849 1.956 . S
O1909 Li1851 1.961 . S
O1909 C1858 1.325 . S
O1910 Li1848 1.961 . S
O1910 Li1850 1.956 . S
O1910 Li1851 1.970 . S
O1910 C1880 1.325 . S
O1911 Li1849 1.961 . S
O1911 Li1850 1.970 . S
O1911 Li1851 1.956 . S
O1911 C1886 1.325 . S
H1912 C1854 0.929 . S
H1913 C1855 0.930 . S
H1914 C1856 0.930 . S
H1915 C1857 0.930 . S
H1916 C1859 0.930 . S
H1917 C1861 0.929 . S
H1918 C1862 0.930 . S
H1919 C1863 0.930 . S
H1920 C1866 0.930 . S
H1921 C1869 0.929 . S
H1922 C1874 0.929 . S
H1923 C1875 0.930 . S
H1924 C1882 0.929 . S
H1925 C1883 0.930 . S
H1926 C1884 0.930 . S
H1927 C1885 0.930 . S
H1928 C1887 0.929 . S
H1929 C1888 0.930 . S
H1930 C1889 0.930 . S
H1931 C1890 0.930 . S
H1932 C1894 0.929 . S
H1933 C1896 0.930 . S
H1934 C1902 0.929 . S
H1935 C1903 0.930 . S
Li1936 N1953 1.990 . S
Li1936 O1996 1.956 . S
Li1936 O1997 1.970 . S
Li1936 O1998 1.961 . S
Li1937 N1961 1.990 . S
Li1937 O1996 1.970 . S
Li1937 O1997 1.956 . S
Li1937 O1999 1.961 . S
Li1938 N1983 1.990 . S
Li1938 O1996 1.961 . S
Li1938 O1998 1.956 . S
Li1938 O1999 1.970 . S
Li1939 N1989 1.990 . S
Li1939 O1997 1.961 . S
Li1939 O1998 1.970 . S
Li1939 O1999 1.956 . S
C1940 C1942 1.348 . S
C1940 C1943 1.356 . S
C1940 O1996 1.325 . S
N1941 C1944 1.314 . S
N1941 C1945 1.279 . S
C1942 C1940 1.348 . S
C1942 C1944 1.353 . S
C1942 H2000 0.929 . S
C1943 C1940 1.356 . S
C1943 C1945 1.358 . S
C1943 H2001 0.930 . S
C1944 N1941 1.314 . S
C1944 C1942 1.353 . S
C1944 H2002 0.930 . S
C1945 N1941 1.279 . S
C1945 C1943 1.358 . S
C1945 H2003 0.930 . S
C1946 C1949 1.348 . S
C1946 C1950 1.356 . S
C1946 O1997 1.325 . S
C1947 N1948 1.279 . S
C1947 C1950 1.358 . S
C1947 H2004 0.930 . S
N1948 C1947 1.279 . S
N1948 C1951 1.314 . S
C1949 C1946 1.348 . S
C1949 C1951 1.353 . S
C1949 H2005 0.929 . S
C1950 C1946 1.356 . S
C1950 C1947 1.358 . S
C1950 H2006 0.930 . S
C1951 N1948 1.314 . S
C1951 C1949 1.353 . S
C1951 H2007 0.930 . S
C1952 N1953 1.314 . S
C1952 C1957 1.353 . S
C1952 H1958 0.930 . S
N1953 Li1936 1.990 . S
N1953 C1952 1.314 . S
N1953 C1955 1.279 . S
C1954 C1955 1.358 . S
C1954 C1956 1.356 . S
C1954 H2008 0.930 . S
C1955 N1953 1.279 . S
C1955 C1954 1.358 . S
C1955 H1959 0.930 . S
C1956 C1954 1.356 . S
C1956 C1957 1.348 . S
C1957 C1952 1.353 . S
C1957 C1956 1.348 . S
C1957 H2009 0.929 . S
H1958 C1952 0.930 . S
H1959 C1955 0.930 . S
C1960 N1961 1.314 . S
C1960 C1962 1.353 . S
C1960 H1966 0.930 . S
N1961 Li1937 1.990 . S
N1961 C1960 1.314 . S
N1961 C1964 1.279 . S
C1962 C1960 1.353 . S
C1962 C1965 1.348 . S
C1962 H2010 0.929 . S
C1963 C1964 1.358 . S
C1963 C1965 1.356 . S
C1963 H2011 0.930 . S
C1964 N1961 1.279 . S
C1964 C1963 1.358 . S
C1964 H1967 0.930 . S
C1965 C1962 1.348 . S
C1965 C1963 1.356 . S
H1966 C1960 0.930 . S
H1967 C1964 0.930 . S
C1968 C1970 1.348 . S
C1968 C1971 1.356 . S
C1968 O1998 1.325 . S
N1969 C1972 1.314 . S
N1969 C1973 1.279 . S
C1970 C1968 1.348 . S
C1970 C1972 1.353 . S
C1970 H2012 0.929 . S
C1971 C1968 1.356 . S
C1971 C1973 1.358 . S
C1971 H2013 0.930 . S
C1972 N1969 1.314 . S
C1972 C1970 1.353 . S
C1972 H2014 0.930 . S
C1973 N1969 1.279 . S
C1973 C1971 1.358 . S
C1973 H2015 0.930 . S
C1974 C1975 1.348 . S
C1974 C1976 1.356 . S
C1974 O1999 1.325 . S
C1975 C1974 1.348 . S
C1975 C1977 1.353 . S
C1975 H2016 0.929 . S
C1976 C1974 1.356 . S
C1976 C1978 1.358 . S
C1976 H2017 0.930 . S
C1977 C1975 1.353 . S
C1977 N1979 1.314 . S
C1977 H2018 0.930 . S
C1978 C1976 1.358 . S
C1978 N1979 1.279 . S
C1978 H2019 0.930 . S
N1979 C1977 1.314 . S
N1979 C1978 1.279 . S
C1980 C1982 1.353 . S
C1980 N1983 1.314 . S
C1980 H1986 0.930 . S
C1981 N1983 1.279 . S
C1981 C1984 1.358 . S
C1981 H1987 0.930 . S
C1982 C1980 1.353 . S
C1982 C1985 1.348 . S
C1982 H2020 0.929 . S
N1983 Li1938 1.990 . S
N1983 C1980 1.314 . S
N1983 C1981 1.279 . S
C1984 C1981 1.358 . S
C1984 C1985 1.356 . S
C1984 H2021 0.930 . S
C1985 C1982 1.348 . S
C1985 C1984 1.356 . S
H1986 C1980 0.930 . S
H1987 C1981 0.930 . S
C1988 N1989 1.314 . S
C1988 C1990 1.353 . S
C1988 H1994 0.930 . S
N1989 Li1939 1.990 . S
N1989 C1988 1.314 . S
N1989 C1992 1.279 . S
C1990 C1988 1.353 . S
C1990 C1993 1.348 . S
C1990 H2022 0.929 . S
C1991 C1992 1.358 . S
C1991 C1993 1.356 . S
C1991 H2023 0.930 . S
C1992 N1989 1.279 . S
C1992 C1991 1.358 . S
C1992 H1995 0.930 . S
C1993 C1990 1.348 . S
C1993 C1991 1.356 . S
H1994 C1988 0.930 . S
H1995 C1992 0.930 . S
O1996 Li1936 1.956 . S
O1996 Li1937 1.970 . S
O1996 Li1938 1.961 . S
O1996 C1940 1.325 . S
O1997 Li1936 1.970 . S
O1997 Li1937 1.956 . S
O1997 Li1939 1.961 . S
O1997 C1946 1.325 . S
O1998 Li1936 1.961 . S
O1998 Li1938 1.956 . S
O1998 Li1939 1.970 . S
O1998 C1968 1.325 . S
O1999 Li1937 1.961 . S
O1999 Li1938 1.970 . S
O1999 Li1939 1.956 . S
O1999 C1974 1.325 . S
H2000 C1942 0.929 . S
H2001 C1943 0.930 . S
H2002 C1944 0.930 . S
H2003 C1945 0.930 . S
H2004 C1947 0.930 . S
H2005 C1949 0.929 . S
H2006 C1950 0.930 . S
H2007 C1951 0.930 . S
H2008 C1954 0.930 . S
H2009 C1957 0.929 . S
H2010 C1962 0.929 . S
H2011 C1963 0.930 . S
H2012 C1970 0.929 . S
H2013 C1971 0.930 . S
H2014 C1972 0.930 . S
H2015 C1973 0.930 . S
H2016 C1975 0.929 . S
H2017 C1976 0.930 . S
H2018 C1977 0.930 . S
H2019 C1978 0.930 . S
H2020 C1982 0.929 . S
H2021 C1984 0.930 . S
H2022 C1990 0.929 . S
H2023 C1991 0.930 . S
Li2024 N2041 1.990 . S
Li2024 O2084 1.956 . S
Li2024 O2085 1.970 . S
Li2024 O2086 1.961 . S
Li2025 N2049 1.990 . S
Li2025 O2084 1.970 . S
Li2025 O2085 1.956 . S
Li2025 O2087 1.961 . S
Li2026 N2071 1.990 . S
Li2026 O2084 1.961 . S
Li2026 O2086 1.956 . S
Li2026 O2087 1.970 . S
Li2027 N2077 1.990 . S
Li2027 O2085 1.961 . S
Li2027 O2086 1.970 . S
Li2027 O2087 1.956 . S
C2028 C2030 1.348 . S
C2028 C2031 1.356 . S
C2028 O2084 1.325 . S
N2029 C2032 1.314 . S
N2029 C2033 1.279 . S
C2030 C2028 1.348 . S
C2030 C2032 1.353 . S
C2030 H2088 0.929 . S
C2031 C2028 1.356 . S
C2031 C2033 1.358 . S
C2031 H2089 0.930 . S
C2032 N2029 1.314 . S
C2032 C2030 1.353 . S
C2032 H2090 0.930 . S
C2033 N2029 1.279 . S
C2033 C2031 1.358 . S
C2033 H2091 0.930 . S
C2034 C2037 1.348 . S
C2034 C2038 1.356 . S
C2034 O2085 1.325 . S
C2035 N2036 1.279 . S
C2035 C2038 1.358 . S
C2035 H2092 0.930 . S
N2036 C2035 1.279 . S
N2036 C2039 1.314 . S
C2037 C2034 1.348 . S
C2037 C2039 1.353 . S
C2037 H2093 0.929 . S
C2038 C2034 1.356 . S
C2038 C2035 1.358 . S
C2038 H2094 0.930 . S
C2039 N2036 1.314 . S
C2039 C2037 1.353 . S
C2039 H2095 0.930 . S
C2040 N2041 1.314 . S
C2040 C2045 1.353 . S
C2040 H2046 0.930 . S
N2041 Li2024 1.990 . S
N2041 C2040 1.314 . S
N2041 C2043 1.279 . S
C2042 C2043 1.358 . S
C2042 C2044 1.356 . S
C2042 H2096 0.930 . S
C2043 N2041 1.279 . S
C2043 C2042 1.358 . S
C2043 H2047 0.930 . S
C2044 C2042 1.356 . S
C2044 C2045 1.348 . S
C2045 C2040 1.353 . S
C2045 C2044 1.348 . S
C2045 H2097 0.929 . S
H2046 C2040 0.930 . S
H2047 C2043 0.930 . S
C2048 N2049 1.314 . S
C2048 C2050 1.353 . S
C2048 H2054 0.930 . S
N2049 Li2025 1.990 . S
N2049 C2048 1.314 . S
N2049 C2052 1.279 . S
C2050 C2048 1.353 . S
C2050 C2053 1.348 . S
C2050 H2098 0.929 . S
C2051 C2052 1.358 . S
C2051 C2053 1.356 . S
C2051 H2099 0.930 . S
C2052 N2049 1.279 . S
C2052 C2051 1.358 . S
C2052 H2055 0.930 . S
C2053 C2050 1.348 . S
C2053 C2051 1.356 . S
H2054 C2048 0.930 . S
H2055 C2052 0.930 . S
C2056 C2058 1.348 . S
C2056 C2059 1.356 . S
C2056 O2086 1.325 . S
N2057 C2060 1.314 . S
N2057 C2061 1.279 . S
C2058 C2056 1.348 . S
C2058 C2060 1.353 . S
C2058 H2100 0.929 . S
C2059 C2056 1.356 . S
C2059 C2061 1.358 . S
C2059 H2101 0.930 . S
C2060 N2057 1.314 . S
C2060 C2058 1.353 . S
C2060 H2102 0.930 . S
C2061 N2057 1.279 . S
C2061 C2059 1.358 . S
C2061 H2103 0.930 . S
C2062 C2063 1.348 . S
C2062 C2064 1.356 . S
C2062 O2087 1.325 . S
C2063 C2062 1.348 . S
C2063 C2065 1.353 . S
C2063 H2104 0.929 . S
C2064 C2062 1.356 . S
C2064 C2066 1.358 . S
C2064 H2105 0.930 . S
C2065 C2063 1.353 . S
C2065 N2067 1.314 . S
C2065 H2106 0.930 . S
C2066 C2064 1.358 . S
C2066 N2067 1.279 . S
C2066 H2107 0.930 . S
N2067 C2065 1.314 . S
N2067 C2066 1.279 . S
C2068 C2070 1.353 . S
C2068 N2071 1.314 . S
C2068 H2074 0.930 . S
C2069 N2071 1.279 . S
C2069 C2072 1.358 . S
C2069 H2075 0.930 . S
C2070 C2068 1.353 . S
C2070 C2073 1.348 . S
C2070 H2108 0.929 . S
N2071 Li2026 1.990 . S
N2071 C2068 1.314 . S
N2071 C2069 1.279 . S
C2072 C2069 1.358 . S
C2072 C2073 1.356 . S
C2072 H2109 0.930 . S
C2073 C2070 1.348 . S
C2073 C2072 1.356 . S
H2074 C2068 0.930 . S
H2075 C2069 0.930 . S
C2076 N2077 1.314 . S
C2076 C2078 1.353 . S
C2076 H2082 0.930 . S
N2077 Li2027 1.990 . S
N2077 C2076 1.314 . S
N2077 C2080 1.279 . S
C2078 C2076 1.353 . S
C2078 C2081 1.348 . S
C2078 H2110 0.929 . S
C2079 C2080 1.358 . S
C2079 C2081 1.356 . S
C2079 H2111 0.930 . S
C2080 N2077 1.279 . S
C2080 C2079 1.358 . S
C2080 H2083 0.930 . S
C2081 C2078 1.348 . S
C2081 C2079 1.356 . S
H2082 C2076 0.930 . S
H2083 C2080 0.930 . S
O2084 Li2024 1.956 . S
O2084 Li2025 1.970 . S
O2084 Li2026 1.961 . S
O2084 C2028 1.325 . S
O2085 Li2024 1.970 . S
O2085 Li2025 1.956 . S
O2085 Li2027 1.961 . S
O2085 C2034 1.325 . S
O2086 Li2024 1.961 . S
O2086 Li2026 1.956 . S
O2086 Li2027 1.970 . S
O2086 C2056 1.325 . S
O2087 Li2025 1.961 . S
O2087 Li2026 1.970 . S
O2087 Li2027 1.956 . S
O2087 C2062 1.325 . S
H2088 C2030 0.929 . S
H2089 C2031 0.930 . S
H2090 C2032 0.930 . S
H2091 C2033 0.930 . S
H2092 C2035 0.930 . S
H2093 C2037 0.929 . S
H2094 C2038 0.930 . S
H2095 C2039 0.930 . S
H2096 C2042 0.930 . S
H2097 C2045 0.929 . S
H2098 C2050 0.929 . S
H2099 C2051 0.930 . S
H2100 C2058 0.929 . S
H2101 C2059 0.930 . S
H2102 C2060 0.930 . S
H2103 C2061 0.930 . S
H2104 C2063 0.929 . S
H2105 C2064 0.930 . S
H2106 C2065 0.930 . S
H2107 C2066 0.930 . S
H2108 C2070 0.929 . S
H2109 C2072 0.930 . S
H2110 C2078 0.929 . S
H2111 C2079 0.930 . S
C2112 C2113 1.369 . S
C2112 C2114 1.419 1_545 S
C2112 H2116 0.930 . S
C2113 C2112 1.369 . S
C2113 C2122 1.429 . S
C2114 C2112 1.419 1_565 S
C2114 C2115 1.363 . S
C2114 H2117 0.929 . S
C2115 C2114 1.363 . S
C2115 C2121 1.428 . S
H2116 C2112 0.930 . S
H2117 C2114 0.929 . S
S2118 N2119 1.613 1_565 S
S2118 N2120 1.610 . S
N2119 S2118 1.613 1_545 S
N2119 C2122 1.350 . S
N2120 S2118 1.610 . S
N2120 C2121 1.351 . S
C2121 C2115 1.428 . S
C2121 N2120 1.351 . S
C2121 C2122 1.434 1_565 S
C2122 C2113 1.429 . S
C2122 N2119 1.350 . S
C2122 C2121 1.434 1_545 S
C2123 C2124 1.369 . S
C2123 C2125 1.419 . S
C2123 H2127 0.930 . S
C2124 C2123 1.369 . S
C2124 C2133 1.429 . S
C2125 C2123 1.419 . S
C2125 C2126 1.363 . S
C2125 H2128 0.929 . S
C2126 C2125 1.363 . S
C2126 C2132 1.428 . S
H2127 C2123 0.930 . S
H2128 C2125 0.929 . S
S2129 N2130 1.613 . S
S2129 N2131 1.610 . S
N2130 S2129 1.613 . S
N2130 C2133 1.350 . S
N2131 S2129 1.610 . S
N2131 C2132 1.351 . S
C2132 C2126 1.428 . S
C2132 N2131 1.351 . S
C2132 C2133 1.434 . S
C2133 C2124 1.429 . S
C2133 N2130 1.350 . S
C2133 C2132 1.434 . S
C2134 C2135 1.369 . S
C2134 C2136 1.419 1_655 S
C2134 H2138 0.930 . S
C2135 C2134 1.369 . S
C2135 C2144 1.429 . S
C2136 C2134 1.419 1_455 S
C2136 C2137 1.363 . S
C2136 H2139 0.929 . S
C2137 C2136 1.363 . S
C2137 C2143 1.428 . S
H2138 C2134 0.930 . S
H2139 C2136 0.929 . S
S2140 N2141 1.613 1_455 S
S2140 N2142 1.610 . S
N2141 S2140 1.613 1_655 S
N2141 C2144 1.350 . S
N2142 S2140 1.610 . S
N2142 C2143 1.351 . S
C2143 C2137 1.428 . S
C2143 N2142 1.351 . S
C2143 C2144 1.434 1_455 S
C2144 C2135 1.429 . S
C2144 N2141 1.350 . S
C2144 C2143 1.434 1_655 S
C2145 C2146 1.369 . S
C2145 C2147 1.419 1_565 S
C2145 H2149 0.930 . S
C2146 C2145 1.369 . S
C2146 C2155 1.429 . S
C2147 C2145 1.419 1_545 S
C2147 C2148 1.363 . S
C2147 H2150 0.929 . S
C2148 C2147 1.363 . S
C2148 C2154 1.428 . S
H2149 C2145 0.930 . S
H2150 C2147 0.929 . S
S2151 N2152 1.613 1_545 S
S2151 N2153 1.610 . S
N2152 S2151 1.613 1_565 S
N2152 C2155 1.350 . S
N2153 S2151 1.610 . S
N2153 C2154 1.351 . S
C2154 C2148 1.428 . S
C2154 N2153 1.351 . S
C2154 C2155 1.434 1_545 S
C2155 C2146 1.429 . S
C2155 N2152 1.350 . S
C2155 C2154 1.434 1_565 S
C2156 C2157 1.369 . S
C2156 C2158 1.419 . S
C2156 H2160 0.930 . S
C2157 C2156 1.369 . S
C2157 C2166 1.429 . S
C2158 C2156 1.419 . S
C2158 C2159 1.363 . S
C2158 H2161 0.929 . S
C2159 C2158 1.363 . S
C2159 C2165 1.428 . S
H2160 C2156 0.930 . S
H2161 C2158 0.929 . S
S2162 N2163 1.613 . S
S2162 N2164 1.610 . S
N2163 S2162 1.613 . S
N2163 C2166 1.350 . S
N2164 S2162 1.610 . S
N2164 C2165 1.351 . S
C2165 C2159 1.428 . S
C2165 N2164 1.351 . S
C2165 C2166 1.434 . S
C2166 C2157 1.429 . S
C2166 N2163 1.350 . S
C2166 C2165 1.434 . S
C2167 C2168 1.369 . S
C2167 C2169 1.419 1_455 S
C2167 H2171 0.930 . S
C2168 C2167 1.369 . S
C2168 C2177 1.429 . S
C2169 C2167 1.419 1_655 S
C2169 C2170 1.363 . S
C2169 H2172 0.929 . S
C2170 C2169 1.363 . S
C2170 C2176 1.428 . S
H2171 C2167 0.930 . S
H2172 C2169 0.929 . S
S2173 N2174 1.613 . S
S2173 N2175 1.610 1_455 S
N2174 S2173 1.613 . S
N2174 C2177 1.350 . S
N2175 S2173 1.610 1_655 S
N2175 C2176 1.351 . S
C2176 C2170 1.428 . S
C2176 N2175 1.351 . S
C2176 C2177 1.434 1_655 S
C2177 C2168 1.429 . S
C2177 N2174 1.350 . S
C2177 C2176 1.434 1_455 S
C2178 C2179 1.369 . S
C2178 C2180 1.419 1_565 S
C2178 H2182 0.930 . S
C2179 C2178 1.369 . S
C2179 C2188 1.429 . S
C2180 C2178 1.419 1_545 S
C2180 C2181 1.363 . S
C2180 H2183 0.929 . S
C2181 C2180 1.363 . S
C2181 C2187 1.428 . S
H2182 C2178 0.930 . S
H2183 C2180 0.929 . S
S2184 N2185 1.613 . S
S2184 N2186 1.610 1_565 S
N2185 S2184 1.613 . S
N2185 C2188 1.350 . S
N2186 S2184 1.610 1_545 S
N2186 C2187 1.351 . S
C2187 C2181 1.428 . S
C2187 N2186 1.351 . S
C2187 C2188 1.434 1_545 S
C2188 C2179 1.429 . S
C2188 N2185 1.350 . S
C2188 C2187 1.434 1_565 S
C2189 C2190 1.369 . S
C2189 C2191 1.419 . S
C2189 H2193 0.930 . S
C2190 C2189 1.369 . S
C2190 C2199 1.429 . S
C2191 C2189 1.419 . S
C2191 C2192 1.363 . S
C2191 H2194 0.929 . S
C2192 C2191 1.363 . S
C2192 C2198 1.428 . S
H2193 C2189 0.930 . S
H2194 C2191 0.929 . S
S2195 N2196 1.613 . S
S2195 N2197 1.610 . S
N2196 S2195 1.613 . S
N2196 C2199 1.350 . S
N2197 S2195 1.610 . S
N2197 C2198 1.351 . S
C2198 C2192 1.428 . S
C2198 N2197 1.351 . S
C2198 C2199 1.434 . S
C2199 C2190 1.429 . S
C2199 N2196 1.350 . S
C2199 C2198 1.434 . S
C2200 C2201 1.369 . S
C2200 C2202 1.419 1_655 S
C2200 H2204 0.930 . S
C2201 C2200 1.369 . S
C2201 C2210 1.429 . S
C2202 C2200 1.419 1_455 S
C2202 C2203 1.363 . S
C2202 H2205 0.929 . S
C2203 C2202 1.363 . S
C2203 C2209 1.428 . S
H2204 C2200 0.930 . S
H2205 C2202 0.929 . S
S2206 N2207 1.613 . S
S2206 N2208 1.610 1_655 S
N2207 S2206 1.613 . S
N2207 C2210 1.350 . S
N2208 S2206 1.610 1_455 S
N2208 C2209 1.351 . S
C2209 C2203 1.428 . S
C2209 N2208 1.351 . S
C2209 C2210 1.434 1_455 S
C2210 C2201 1.429 . S
C2210 N2207 1.350 . S
C2210 C2209 1.434 1_655 S
C2211 C2212 1.369 . S
C2211 C2213 1.419 1_545 S
C2211 H2215 0.930 . S
C2212 C2211 1.369 . S
C2212 C2221 1.429 . S
C2213 C2211 1.419 1_565 S
C2213 C2214 1.363 . S
C2213 H2216 0.929 . S
C2214 C2213 1.363 . S
C2214 C2220 1.428 . S
H2215 C2211 0.930 . S
H2216 C2213 0.929 . S
S2217 N2218 1.613 1_565 S
S2217 N2219 1.610 . S
N2218 S2217 1.613 1_545 S
N2218 C2221 1.350 . S
N2219 S2217 1.610 . S
N2219 C2220 1.351 . S
C2220 C2214 1.428 . S
C2220 N2219 1.351 . S
C2220 C2221 1.434 1_565 S
C2221 C2212 1.429 . S
C2221 N2218 1.350 . S
C2221 C2220 1.434 1_545 S
C2222 C2223 1.369 . S
C2222 C2224 1.419 . S
C2222 H2226 0.930 . S
C2223 C2222 1.369 . S
C2223 C2232 1.429 . S
C2224 C2222 1.419 . S
C2224 C2225 1.363 . S
C2224 H2227 0.929 . S
C2225 C2224 1.363 . S
C2225 C2231 1.428 . S
H2226 C2222 0.930 . S
H2227 C2224 0.929 . S
S2228 N2229 1.613 . S
S2228 N2230 1.610 . S
N2229 S2228 1.613 . S
N2229 C2232 1.350 . S
N2230 S2228 1.610 . S
N2230 C2231 1.351 . S
C2231 C2225 1.428 . S
C2231 N2230 1.351 . S
C2231 C2232 1.434 . S
C2232 C2223 1.429 . S
C2232 N2229 1.350 . S
C2232 C2231 1.434 . S
C2233 C2234 1.369 . S
C2233 C2235 1.419 1_455 S
C2233 H2237 0.930 . S
C2234 C2233 1.369 . S
C2234 C2243 1.429 . S
C2235 C2233 1.419 1_655 S
C2235 C2236 1.363 . S
C2235 H2238 0.929 . S
C2236 C2235 1.363 . S
C2236 C2242 1.428 . S
H2237 C2233 0.930 . S
H2238 C2235 0.929 . S
S2239 N2240 1.613 . S
S2239 N2241 1.610 1_455 S
N2240 S2239 1.613 . S
N2240 C2243 1.350 . S
N2241 S2239 1.610 1_655 S
N2241 C2242 1.351 . S
C2242 C2236 1.428 . S
C2242 N2241 1.351 . S
C2242 C2243 1.434 1_655 S
C2243 C2234 1.429 . S
C2243 N2240 1.350 . S
C2243 C2242 1.434 1_455 S
C2244 C2245 1.369 . S
C2244 C2246 1.419 . S
C2244 H2248 0.930 . S
C2245 C2244 1.369 . S
C2245 C2254 1.429 . S
C2246 C2244 1.419 . S
C2246 C2247 1.363 . S
C2246 H2249 0.929 . S
C2247 C2246 1.363 . S
C2247 C2253 1.428 . S
H2248 C2244 0.930 . S
H2249 C2246 0.929 . S
S2250 N2251 1.613 . S
S2250 N2252 1.610 . S
N2251 S2250 1.613 . S
N2251 C2254 1.350 . S
N2252 S2250 1.610 . S
N2252 C2253 1.351 . S
C2253 C2247 1.428 . S
C2253 N2252 1.351 . S
C2253 C2254 1.434 . S
C2254 C2245 1.429 . S
C2254 N2251 1.350 . S
C2254 C2253 1.434 . S
C2255 C2256 1.369 . S
C2255 C2257 1.419 . S
C2255 H2259 0.930 . S
C2256 C2255 1.369 . S
C2256 C2265 1.429 . S
C2257 C2255 1.419 . S
C2257 C2258 1.363 . S
C2257 H2260 0.929 . S
C2258 C2257 1.363 . S
C2258 C2264 1.428 . S
H2259 C2255 0.930 . S
H2260 C2257 0.929 . S
S2261 N2262 1.613 . S
S2261 N2263 1.610 . S
N2262 S2261 1.613 . S
N2262 C2265 1.350 . S
N2263 S2261 1.610 . S
N2263 C2264 1.351 . S
C2264 C2258 1.428 . S
C2264 N2263 1.351 . S
C2264 C2265 1.434 . S
C2265 C2256 1.429 . S
C2265 N2262 1.350 . S
C2265 C2264 1.434 . S
C2266 C2267 1.369 . S
C2266 C2268 1.419 . S
C2266 H2270 0.930 . S
C2267 C2266 1.369 . S
C2267 C2276 1.429 . S
C2268 C2266 1.419 . S
C2268 C2269 1.363 . S
C2268 H2271 0.929 . S
C2269 C2268 1.363 . S
C2269 C2275 1.428 . S
H2270 C2266 0.930 . S
H2271 C2268 0.929 . S
S2272 N2273 1.613 . S
S2272 N2274 1.610 . S
N2273 S2272 1.613 . S
N2273 C2276 1.350 . S
N2274 S2272 1.610 . S
N2274 C2275 1.351 . S
C2275 C2269 1.428 . S
C2275 N2274 1.351 . S
C2275 C2276 1.434 . S
C2276 C2267 1.429 . S
C2276 N2273 1.350 . S
C2276 C2275 1.434 . S
C2277 C2278 1.369 . S
C2277 C2279 1.419 . S
C2277 H2281 0.930 . S
C2278 C2277 1.369 . S
C2278 C2287 1.429 . S
C2279 C2277 1.419 . S
C2279 C2280 1.363 . S
C2279 H2282 0.929 . S
C2280 C2279 1.363 . S
C2280 C2286 1.428 . S
H2281 C2277 0.930 . S
H2282 C2279 0.929 . S
S2283 N2284 1.613 . S
S2283 N2285 1.610 . S
N2284 S2283 1.613 . S
N2284 C2287 1.350 . S
N2285 S2283 1.610 . S
N2285 C2286 1.351 . S
C2286 C2280 1.428 . S
C2286 N2285 1.351 . S
C2286 C2287 1.434 . S
C2287 C2278 1.429 . S
C2287 N2284 1.350 . S
C2287 C2286 1.434 . S
C2288 C2289 1.369 . S
C2288 C2290 1.419 . S
C2288 H2292 0.930 . S
C2289 C2288 1.369 . S
C2289 C2298 1.429 . S
C2290 C2288 1.419 . S
C2290 C2291 1.363 . S
C2290 H2293 0.929 . S
C2291 C2290 1.363 . S
C2291 C2297 1.428 . S
H2292 C2288 0.930 . S
H2293 C2290 0.929 . S
S2294 N2295 1.613 . S
S2294 N2296 1.610 . S
N2295 S2294 1.613 . S
N2295 C2298 1.350 . S
N2296 S2294 1.610 . S
N2296 C2297 1.351 . S
C2297 C2291 1.428 . S
C2297 N2296 1.351 . S
C2297 C2298 1.434 . S
C2298 C2289 1.429 . S
C2298 N2295 1.350 . S
C2298 C2297 1.434 . S
C2299 C2300 1.369 . S
C2299 C2301 1.419 . S
C2299 H2303 0.930 . S
C2300 C2299 1.369 . S
C2300 C2309 1.429 . S
C2301 C2299 1.419 . S
C2301 C2302 1.363 . S
C2301 H2304 0.929 . S
C2302 C2301 1.363 . S
C2302 C2308 1.428 . S
H2303 C2299 0.930 . S
H2304 C2301 0.929 . S
S2305 N2306 1.613 . S
S2305 N2307 1.610 . S
N2306 S2305 1.613 . S
N2306 C2309 1.350 . S
N2307 S2305 1.610 . S
N2307 C2308 1.351 . S
C2308 C2302 1.428 . S
C2308 N2307 1.351 . S
C2308 C2309 1.434 . S
C2309 C2300 1.429 . S
C2309 N2306 1.350 . S
C2309 C2308 1.434 . S
C2310 C2311 1.369 . S
C2310 C2312 1.419 . S
C2310 H2314 0.930 . S
C2311 C2310 1.369 . S
C2311 C2320 1.429 . S
C2312 C2310 1.419 . S
C2312 C2313 1.363 . S
C2312 H2315 0.929 . S
C2313 C2312 1.363 . S
C2313 C2319 1.428 . S
H2314 C2310 0.930 . S
H2315 C2312 0.929 . S
S2316 N2317 1.613 . S
S2316 N2318 1.610 . S
N2317 S2316 1.613 . S
N2317 C2320 1.350 . S
N2318 S2316 1.610 . S
N2318 C2319 1.351 . S
C2319 C2313 1.428 . S
C2319 N2318 1.351 . S
C2319 C2320 1.434 . S
C2320 C2311 1.429 . S
C2320 N2317 1.350 . S
C2320 C2319 1.434 . S
C2321 C2322 1.369 . S
C2321 C2323 1.419 . S
C2321 H2325 0.930 . S
C2322 C2321 1.369 . S
C2322 C2331 1.429 . S
C2323 C2321 1.419 . S
C2323 C2324 1.363 . S
C2323 H2326 0.929 . S
C2324 C2323 1.363 . S
C2324 C2330 1.428 . S
H2325 C2321 0.930 . S
H2326 C2323 0.929 . S
S2327 N2328 1.613 . S
S2327 N2329 1.610 . S
N2328 S2327 1.613 . S
N2328 C2331 1.350 . S
N2329 S2327 1.610 . S
N2329 C2330 1.351 . S
C2330 C2324 1.428 . S
C2330 N2329 1.351 . S
C2330 C2331 1.434 . S
C2331 C2322 1.429 . S
C2331 N2328 1.350 . S
C2331 C2330 1.434 . S
C2332 C2333 1.369 . S
C2332 C2334 1.419 . S
C2332 H2336 0.930 . S
C2333 C2332 1.369 . S
C2333 C2342 1.429 . S
C2334 C2332 1.419 . S
C2334 C2335 1.363 . S
C2334 H2337 0.929 . S
C2335 C2334 1.363 . S
C2335 C2341 1.428 . S
H2336 C2332 0.930 . S
H2337 C2334 0.929 . S
S2338 N2339 1.613 . S
S2338 N2340 1.610 . S
N2339 S2338 1.613 . S
N2339 C2342 1.350 . S
N2340 S2338 1.610 . S
N2340 C2341 1.351 . S
C2341 C2335 1.428 . S
C2341 N2340 1.351 . S
C2341 C2342 1.434 . S
C2342 C2333 1.429 . S
C2342 N2339 1.350 . S
C2342 C2341 1.434 . S
C2343 C2344 1.369 . S
C2343 C2345 1.419 . S
C2343 H2347 0.930 . S
C2344 C2343 1.369 . S
C2344 C2353 1.429 . S
C2345 C2343 1.419 . S
C2345 C2346 1.363 . S
C2345 H2348 0.929 . S
C2346 C2345 1.363 . S
C2346 C2352 1.428 . S
H2347 C2343 0.930 . S
H2348 C2345 0.929 . S
S2349 N2350 1.613 . S
S2349 N2351 1.610 . S
N2350 S2349 1.613 . S
N2350 C2353 1.350 . S
N2351 S2349 1.610 . S
N2351 C2352 1.351 . S
C2352 C2346 1.428 . S
C2352 N2351 1.351 . S
C2352 C2353 1.434 . S
C2353 C2344 1.429 . S
C2353 N2350 1.350 . S
C2353 C2352 1.434 . S
C2354 C2355 1.369 . S
C2354 C2356 1.419 . S
C2354 H2358 0.930 . S
C2355 C2354 1.369 . S
C2355 C2364 1.429 . S
C2356 C2354 1.419 . S
C2356 C2357 1.363 . S
C2356 H2359 0.929 . S
C2357 C2356 1.363 . S
C2357 C2363 1.428 . S
H2358 C2354 0.930 . S
H2359 C2356 0.929 . S
S2360 N2361 1.613 . S
S2360 N2362 1.610 . S
N2361 S2360 1.613 . S
N2361 C2364 1.350 . S
N2362 S2360 1.610 . S
N2362 C2363 1.351 . S
C2363 C2357 1.428 . S
C2363 N2362 1.351 . S
C2363 C2364 1.434 . S
C2364 C2355 1.429 . S
C2364 N2361 1.350 . S
C2364 C2363 1.434 . S
C2365 C2366 1.369 . S
C2365 C2367 1.419 . S
C2365 H2369 0.930 . S
C2366 C2365 1.369 . S
C2366 C2375 1.429 . S
C2367 C2365 1.419 . S
C2367 C2368 1.363 . S
C2367 H2370 0.929 . S
C2368 C2367 1.363 . S
C2368 C2374 1.428 . S
H2369 C2365 0.930 . S
H2370 C2367 0.929 . S
S2371 N2372 1.613 . S
S2371 N2373 1.610 . S
N2372 S2371 1.613 . S
N2372 C2375 1.350 . S
N2373 S2371 1.610 . S
N2373 C2374 1.351 . S
C2374 C2368 1.428 . S
C2374 N2373 1.351 . S
C2374 C2375 1.434 . S
C2375 C2366 1.429 . S
C2375 N2372 1.350 . S
C2375 C2374 1.434 . S
C2376 C2377 1.369 . S
C2376 C2378 1.419 1_554 S
C2376 H2380 0.930 . S
C2377 C2376 1.369 . S
C2377 C2386 1.429 . S
C2378 C2376 1.419 1_556 S
C2378 C2379 1.363 . S
C2378 H2381 0.929 . S
C2379 C2378 1.363 . S
C2379 C2385 1.428 . S
H2380 C2376 0.930 . S
H2381 C2378 0.929 . S
S2382 N2383 1.614 1_556 S
S2382 N2384 1.609 . S
N2383 S2382 1.614 1_554 S
N2383 C2386 1.350 . S
N2384 S2382 1.609 . S
N2384 C2385 1.351 . S
C2385 C2379 1.428 . S
C2385 N2384 1.351 . S
C2385 C2386 1.434 1_556 S
C2386 C2377 1.429 . S
C2386 N2383 1.350 . S
C2386 C2385 1.434 1_554 S
C2387 C2388 1.369 . S
C2387 C2389 1.419 1_556 S
C2387 H2391 0.930 . S
C2388 C2387 1.369 . S
C2388 C2397 1.429 . S
C2389 C2387 1.419 1_554 S
C2389 C2390 1.363 . S
C2389 H2392 0.929 . S
C2390 C2389 1.363 . S
C2390 C2396 1.428 . S
H2391 C2387 0.930 . S
H2392 C2389 0.929 . S
S2393 N2394 1.612 . S
S2393 N2395 1.612 1_556 S
N2394 S2393 1.612 . S
N2394 C2397 1.350 . S
N2395 S2393 1.612 1_554 S
N2395 C2396 1.351 . S
C2396 C2390 1.428 . S
C2396 N2395 1.351 . S
C2396 C2397 1.434 1_554 S
C2397 C2388 1.429 . S
C2397 N2394 1.350 . S
C2397 C2396 1.434 1_556 S
C2398 C2399 1.369 . S
C2398 C2400 1.419 1_556 S
C2398 H2402 0.930 . S
C2399 C2398 1.369 . S
C2399 C2408 1.429 . S
C2400 C2398 1.419 1_554 S
C2400 C2401 1.363 . S
C2400 H2403 0.929 . S
C2401 C2400 1.363 . S
C2401 C2407 1.428 . S
H2402 C2398 0.930 . S
H2403 C2400 0.929 . S
S2404 N2405 1.612 . S
S2404 N2406 1.612 1_556 S
N2405 S2404 1.612 . S
N2405 C2408 1.350 . S
N2406 S2404 1.612 1_554 S
N2406 C2407 1.351 . S
C2407 C2401 1.428 . S
C2407 N2406 1.351 . S
C2407 C2408 1.434 1_554 S
C2408 C2399 1.429 . S
C2408 N2405 1.350 . S
C2408 C2407 1.434 1_556 S
C2409 C2410 1.369 . S
C2409 C2411 1.419 1_554 S
C2409 H2413 0.930 . S
C2410 C2409 1.369 . S
C2410 C2419 1.429 . S
C2411 C2409 1.419 1_556 S
C2411 C2412 1.363 . S
C2411 H2414 0.929 . S
C2412 C2411 1.363 . S
C2412 C2418 1.428 . S
H2413 C2409 0.930 . S
H2414 C2411 0.929 . S
S2415 N2416 1.615 1_556 S
S2415 N2417 1.608 . S
N2416 S2415 1.615 1_554 S
N2416 C2419 1.350 . S
N2417 S2415 1.608 . S
N2417 C2418 1.351 . S
C2418 C2412 1.428 . S
C2418 N2417 1.351 . S
C2418 C2419 1.434 1_556 S
C2419 C2410 1.429 . S
C2419 N2416 1.350 . S
C2419 C2418 1.434 1_554 S
C2420 C2421 1.369 . S
C2420 C2422 1.419 1_554 S
C2420 H2424 0.930 . S
C2421 C2420 1.369 . S
C2421 C2430 1.429 . S
C2422 C2420 1.419 1_556 S
C2422 C2423 1.363 . S
C2422 H2425 0.929 . S
C2423 C2422 1.363 . S
C2423 C2429 1.428 . S
H2424 C2420 0.930 . S
H2425 C2422 0.929 . S
S2426 N2427 1.610 . S
S2426 N2428 1.613 1_554 S
N2427 S2426 1.610 . S
N2427 C2430 1.350 . S
N2428 S2426 1.613 1_556 S
N2428 C2429 1.351 . S
C2429 C2423 1.428 . S
C2429 N2428 1.351 . S
C2429 C2430 1.434 1_556 S
C2430 C2421 1.429 . S
C2430 N2427 1.350 . S
C2430 C2429 1.434 1_554 S
C2431 C2432 1.369 . S
C2431 C2433 1.419 1_556 S
C2431 H2435 0.930 . S
C2432 C2431 1.369 . S
C2432 C2441 1.429 . S
C2433 C2431 1.419 1_554 S
C2433 C2434 1.363 . S
C2433 H2436 0.929 . S
C2434 C2433 1.363 . S
C2434 C2440 1.428 . S
H2435 C2431 0.930 . S
H2436 C2433 0.929 . S
S2437 N2438 1.617 1_554 S
S2437 N2439 1.607 . S
N2438 S2437 1.617 1_556 S
N2438 C2441 1.350 . S
N2439 S2437 1.607 . S
N2439 C2440 1.351 . S
C2440 C2434 1.428 . S
C2440 N2439 1.351 . S
C2440 C2441 1.434 1_554 S
C2441 C2432 1.429 . S
C2441 N2438 1.350 . S
C2441 C2440 1.434 1_556 S
C2442 C2443 1.369 . S
C2442 C2444 1.419 . S
C2442 H2446 0.930 . S
C2443 C2442 1.369 . S
C2443 C2452 1.429 . S
C2444 C2442 1.419 . S
C2444 C2445 1.363 . S
C2444 H2447 0.929 . S
C2445 C2444 1.363 . S
C2445 C2451 1.428 . S
H2446 C2442 0.930 . S
H2447 C2444 0.929 . S
S2448 N2449 1.613 . S
S2448 N2450 1.610 . S
N2449 S2448 1.613 . S
N2449 C2452 1.350 . S
N2450 S2448 1.610 . S
N2450 C2451 1.351 . S
C2451 C2445 1.428 . S
C2451 N2450 1.351 . S
C2451 C2452 1.434 . S
C2452 C2443 1.429 . S
C2452 N2449 1.350 . S
C2452 C2451 1.434 . S
C2453 C2454 1.369 . S
C2453 C2455 1.419 . S
C2453 H2457 0.930 . S
C2454 C2453 1.369 . S
C2454 C2463 1.429 . S
C2455 C2453 1.419 . S
C2455 C2456 1.363 . S
C2455 H2458 0.929 . S
C2456 C2455 1.363 . S
C2456 C2462 1.428 . S
H2457 C2453 0.930 . S
H2458 C2455 0.929 . S
S2459 N2460 1.613 . S
S2459 N2461 1.610 . S
N2460 S2459 1.613 . S
N2460 C2463 1.350 . S
N2461 S2459 1.610 . S
N2461 C2462 1.351 . S
C2462 C2456 1.428 . S
C2462 N2461 1.351 . S
C2462 C2463 1.434 . S
C2463 C2454 1.429 . S
C2463 N2460 1.350 . S
C2463 C2462 1.434 . S
C2464 C2465 1.369 . S
C2464 C2466 1.419 . S
C2464 H2468 0.930 . S
C2465 C2464 1.369 . S
C2465 C2474 1.429 . S
C2466 C2464 1.419 . S
C2466 C2467 1.363 . S
C2466 H2469 0.929 . S
C2467 C2466 1.363 . S
C2467 C2473 1.428 . S
H2468 C2464 0.930 . S
H2469 C2466 0.929 . S
S2470 N2471 1.613 . S
S2470 N2472 1.610 . S
N2471 S2470 1.613 . S
N2471 C2474 1.350 . S
N2472 S2470 1.610 . S
N2472 C2473 1.351 . S
C2473 C2467 1.428 . S
C2473 N2472 1.351 . S
C2473 C2474 1.434 . S
C2474 C2465 1.429 . S
C2474 N2471 1.350 . S
C2474 C2473 1.434 . S
C2475 C2476 1.369 . S
C2475 C2477 1.419 . S
C2475 H2479 0.930 . S
C2476 C2475 1.369 . S
C2476 C2485 1.429 . S
C2477 C2475 1.419 . S
C2477 C2478 1.363 . S
C2477 H2480 0.929 . S
C2478 C2477 1.363 . S
C2478 C2484 1.428 . S
H2479 C2475 0.930 . S
H2480 C2477 0.929 . S
S2481 N2482 1.613 . S
S2481 N2483 1.610 . S
N2482 S2481 1.613 . S
N2482 C2485 1.350 . S
N2483 S2481 1.610 . S
N2483 C2484 1.351 . S
C2484 C2478 1.428 . S
C2484 N2483 1.351 . S
C2484 C2485 1.434 . S
C2485 C2476 1.429 . S
C2485 N2482 1.350 . S
C2485 C2484 1.434 . S
C2486 C2487 1.369 . S
C2486 C2488 1.419 . S
C2486 H2490 0.930 . S
C2487 C2486 1.369 . S
C2487 C2496 1.429 . S
C2488 C2486 1.419 . S
C2488 C2489 1.363 . S
C2488 H2491 0.929 . S
C2489 C2488 1.363 . S
C2489 C2495 1.428 . S
H2490 C2486 0.930 . S
H2491 C2488 0.929 . S
S2492 N2493 1.613 . S
S2492 N2494 1.610 . S
N2493 S2492 1.613 . S
N2493 C2496 1.350 . S
N2494 S2492 1.610 . S
N2494 C2495 1.351 . S
C2495 C2489 1.428 . S
C2495 N2494 1.351 . S
C2495 C2496 1.434 . S
C2496 C2487 1.429 . S
C2496 N2493 1.350 . S
C2496 C2495 1.434 . S
C2497 C2498 1.369 . S
C2497 C2499 1.419 . S
C2497 H2501 0.930 . S
C2498 C2497 1.369 . S
C2498 C2507 1.429 . S
C2499 C2497 1.419 . S
C2499 C2500 1.363 . S
C2499 H2502 0.929 . S
C2500 C2499 1.363 . S
C2500 C2506 1.428 . S
H2501 C2497 0.930 . S
H2502 C2499 0.929 . S
S2503 N2504 1.613 . S
S2503 N2505 1.610 . S
N2504 S2503 1.613 . S
N2504 C2507 1.350 . S
N2505 S2503 1.610 . S
N2505 C2506 1.351 . S
C2506 C2500 1.428 . S
C2506 N2505 1.351 . S
C2506 C2507 1.434 . S
C2507 C2498 1.429 . S
C2507 N2504 1.350 . S
C2507 C2506 1.434 . S
C2508 C2509 1.369 . S
C2508 C2510 1.419 . S
C2508 H2512 0.930 . S
C2509 C2508 1.369 . S
C2509 C2518 1.429 . S
C2510 C2508 1.419 . S
C2510 C2511 1.363 . S
C2510 H2513 0.929 . S
C2511 C2510 1.363 . S
C2511 C2517 1.428 . S
H2512 C2508 0.930 . S
H2513 C2510 0.929 . S
S2514 N2515 1.613 . S
S2514 N2516 1.610 . S
N2515 S2514 1.613 . S
N2515 C2518 1.350 . S
N2516 S2514 1.610 . S
N2516 C2517 1.351 . S
C2517 C2511 1.428 . S
C2517 N2516 1.351 . S
C2517 C2518 1.434 . S
C2518 C2509 1.429 . S
C2518 N2515 1.350 . S
C2518 C2517 1.434 . S
C2519 C2520 1.369 . S
C2519 C2521 1.419 . S
C2519 H2523 0.930 . S
C2520 C2519 1.369 . S
C2520 C2529 1.429 . S
C2521 C2519 1.419 . S
C2521 C2522 1.363 . S
C2521 H2524 0.929 . S
C2522 C2521 1.363 . S
C2522 C2528 1.428 . S
H2523 C2519 0.930 . S
H2524 C2521 0.929 . S
S2525 N2526 1.613 . S
S2525 N2527 1.610 . S
N2526 S2525 1.613 . S
N2526 C2529 1.350 . S
N2527 S2525 1.610 . S
N2527 C2528 1.351 . S
C2528 C2522 1.428 . S
C2528 N2527 1.351 . S
C2528 C2529 1.434 . S
C2529 C2520 1.429 . S
C2529 N2526 1.350 . S
C2529 C2528 1.434 . S
C2530 C2531 1.369 . S
C2530 C2532 1.419 . S
C2530 H2534 0.930 . S
C2531 C2530 1.369 . S
C2531 C2540 1.429 . S
C2532 C2530 1.419 . S
C2532 C2533 1.363 . S
C2532 H2535 0.929 . S
C2533 C2532 1.363 . S
C2533 C2539 1.428 . S
H2534 C2530 0.930 . S
H2535 C2532 0.929 . S
S2536 N2537 1.613 . S
S2536 N2538 1.610 . S
N2537 S2536 1.613 . S
N2537 C2540 1.350 . S
N2538 S2536 1.610 . S
N2538 C2539 1.351 . S
C2539 C2533 1.428 . S
C2539 N2538 1.351 . S
C2539 C2540 1.434 . S
C2540 C2531 1.429 . S
C2540 N2537 1.350 . S
C2540 C2539 1.434 . S
C2541 C2542 1.369 . S
C2541 C2543 1.419 . S
C2541 H2545 0.930 . S
C2542 C2541 1.369 . S
C2542 C2551 1.429 . S
C2543 C2541 1.419 . S
C2543 C2544 1.363 . S
C2543 H2546 0.929 . S
C2544 C2543 1.363 . S
C2544 C2550 1.428 . S
H2545 C2541 0.930 . S
H2546 C2543 0.929 . S
S2547 N2548 1.613 . S
S2547 N2549 1.610 . S
N2548 S2547 1.613 . S
N2548 C2551 1.350 . S
N2549 S2547 1.610 . S
N2549 C2550 1.351 . S
C2550 C2544 1.428 . S
C2550 N2549 1.351 . S
C2550 C2551 1.434 . S
C2551 C2542 1.429 . S
C2551 N2548 1.350 . S
C2551 C2550 1.434 . S
C2552 C2553 1.369 . S
C2552 C2554 1.419 . S
C2552 H2556 0.930 . S
C2553 C2552 1.369 . S
C2553 C2562 1.429 . S
C2554 C2552 1.419 . S
C2554 C2555 1.363 . S
C2554 H2557 0.929 . S
C2555 C2554 1.363 . S
C2555 C2561 1.428 . S
H2556 C2552 0.930 . S
H2557 C2554 0.929 . S
S2558 N2559 1.613 . S
S2558 N2560 1.610 . S
N2559 S2558 1.613 . S
N2559 C2562 1.350 . S
N2560 S2558 1.610 . S
N2560 C2561 1.351 . S
C2561 C2555 1.428 . S
C2561 N2560 1.351 . S
C2561 C2562 1.434 . S
C2562 C2553 1.429 . S
C2562 N2559 1.350 . S
C2562 C2561 1.434 . S
C2563 C2564 1.369 . S
C2563 C2565 1.419 . S
C2563 H2567 0.930 . S
C2564 C2563 1.369 . S
C2564 C2573 1.429 . S
C2565 C2563 1.419 . S
C2565 C2566 1.363 . S
C2565 H2568 0.929 . S
C2566 C2565 1.363 . S
C2566 C2572 1.428 . S
H2567 C2563 0.930 . S
H2568 C2565 0.929 . S
S2569 N2570 1.613 . S
S2569 N2571 1.610 . S
N2570 S2569 1.613 . S
N2570 C2573 1.350 . S
N2571 S2569 1.610 . S
N2571 C2572 1.351 . S
C2572 C2566 1.428 . S
C2572 N2571 1.351 . S
C2572 C2573 1.434 . S
C2573 C2564 1.429 . S
C2573 N2570 1.350 . S
C2573 C2572 1.434 . S
C2574 C2575 1.369 . S
C2574 C2576 1.419 . S
C2574 H2578 0.930 . S
C2575 C2574 1.369 . S
C2575 C2584 1.429 . S
C2576 C2574 1.419 . S
C2576 C2577 1.363 . S
C2576 H2579 0.929 . S
C2577 C2576 1.363 . S
C2577 C2583 1.428 . S
H2578 C2574 0.930 . S
H2579 C2576 0.929 . S
S2580 N2581 1.613 . S
S2580 N2582 1.610 . S
N2581 S2580 1.613 . S
N2581 C2584 1.350 . S
N2582 S2580 1.610 . S
N2582 C2583 1.351 . S
C2583 C2577 1.428 . S
C2583 N2582 1.351 . S
C2583 C2584 1.434 . S
C2584 C2575 1.429 . S
C2584 N2581 1.350 . S
C2584 C2583 1.434 . S
C2585 C2586 1.369 . S
C2585 C2587 1.419 . S
C2585 H2589 0.930 . S
C2586 C2585 1.369 . S
C2586 C2595 1.429 . S
C2587 C2585 1.419 . S
C2587 C2588 1.363 . S
C2587 H2590 0.929 . S
C2588 C2587 1.363 . S
C2588 C2594 1.428 . S
H2589 C2585 0.930 . S
H2590 C2587 0.929 . S
S2591 N2592 1.613 . S
S2591 N2593 1.610 . S
N2592 S2591 1.613 . S
N2592 C2595 1.350 . S
N2593 S2591 1.610 . S
N2593 C2594 1.351 . S
C2594 C2588 1.428 . S
C2594 N2593 1.351 . S
C2594 C2595 1.434 . S
C2595 C2586 1.429 . S
C2595 N2592 1.350 . S
C2595 C2594 1.434 . S
C2596 C2597 1.369 . S
C2596 C2598 1.419 . S
C2596 H2600 0.930 . S
C2597 C2596 1.369 . S
C2597 C2606 1.429 . S
C2598 C2596 1.419 . S
C2598 C2599 1.363 . S
C2598 H2601 0.929 . S
C2599 C2598 1.363 . S
C2599 C2605 1.428 . S
H2600 C2596 0.930 . S
H2601 C2598 0.929 . S
S2602 N2603 1.613 . S
S2602 N2604 1.610 . S
N2603 S2602 1.613 . S
N2603 C2606 1.350 . S
N2604 S2602 1.610 . S
N2604 C2605 1.351 . S
C2605 C2599 1.428 . S
C2605 N2604 1.351 . S
C2605 C2606 1.434 . S
C2606 C2597 1.429 . S
C2606 N2603 1.350 . S
C2606 C2605 1.434 . S
C2607 C2608 1.369 . S
C2607 C2609 1.419 . S
C2607 H2611 0.930 . S
C2608 C2607 1.369 . S
C2608 C2617 1.429 . S
C2609 C2607 1.419 . S
C2609 C2610 1.363 . S
C2609 H2612 0.929 . S
C2610 C2609 1.363 . S
C2610 C2616 1.428 . S
H2611 C2607 0.930 . S
H2612 C2609 0.929 . S
S2613 N2614 1.613 . S
S2613 N2615 1.610 . S
N2614 S2613 1.613 . S
N2614 C2617 1.350 . S
N2615 S2613 1.610 . S
N2615 C2616 1.351 . S
C2616 C2610 1.428 . S
C2616 N2615 1.351 . S
C2616 C2617 1.434 . S
C2617 C2608 1.429 . S
C2617 N2614 1.350 . S
C2617 C2616 1.434 . S
C2618 C2619 1.369 . S
C2618 C2620 1.419 . S
C2618 H2622 0.930 . S
C2619 C2618 1.369 . S
C2619 C2628 1.429 . S
C2620 C2618 1.419 . S
C2620 C2621 1.363 . S
C2620 H2623 0.929 . S
C2621 C2620 1.363 . S
C2621 C2627 1.428 . S
H2622 C2618 0.930 . S
H2623 C2620 0.929 . S
S2624 N2625 1.613 . S
S2624 N2626 1.610 . S
N2625 S2624 1.613 . S
N2625 C2628 1.350 . S
N2626 S2624 1.610 . S
N2626 C2627 1.351 . S
C2627 C2621 1.428 . S
C2627 N2626 1.351 . S
C2627 C2628 1.434 . S
C2628 C2619 1.429 . S
C2628 N2625 1.350 . S
C2628 C2627 1.434 . S
C2629 C2630 1.369 . S
C2629 C2631 1.419 . S
C2629 H2633 0.930 . S
C2630 C2629 1.369 . S
C2630 C2639 1.429 . S
C2631 C2629 1.419 . S
C2631 C2632 1.363 . S
C2631 H2634 0.929 . S
C2632 C2631 1.363 . S
C2632 C2638 1.428 . S
H2633 C2629 0.930 . S
H2634 C2631 0.929 . S
S2635 N2636 1.613 . S
S2635 N2637 1.610 . S
N2636 S2635 1.613 . S
N2636 C2639 1.350 . S
N2637 S2635 1.610 . S
N2637 C2638 1.351 . S
C2638 C2632 1.428 . S
C2638 N2637 1.351 . S
C2638 C2639 1.434 . S
C2639 C2630 1.429 . S
C2639 N2636 1.350 . S
C2639 C2638 1.434 . S
C2113 C29 1.334 . S
C2115 C673 1.334 . S
C2124 C724 1.337 . S
C2126 C117 1.337 . S
C2135 C205 1.335 . S
C2137 C821 1.335 . S
C2146 C284 1.334 . S
C2148 C937 1.334 . S
C2157 C1017 1.332 . S
C2159 C381 1.333 . S
C2168 C497 1.335 . S
C2170 C577 1.335 . S
C2179 C1076 1.323 . S
C2181 C1721 1.323 . S
C2190 C1173 1.322 . S
C2192 C1809 1.323 . S
C2201 C1905 1.328 . S
C2203 C1252 1.327 . S
C2212 C1340 1.322 . S
C2214 C1993 1.323 . S
C2223 C1437 1.324 . S
C2225 C2073 1.325 . S
C2234 C1633 1.323 . S
C2236 C1516 1.323 . S
C2245 C57 1.113 . S
C2247 C753 1.116 . S
C2256 C849 1.117 . S
C2258 C145 1.114 . S
C2267 C909 1.114 . S
C2269 C233 1.114 . S
C2278 C313 1.113 . S
C2280 C988 1.116 . S
C2289 C409 1.117 . S
C2291 C548 1.113 . S
C2300 C469 1.115 . S
C2302 C645 1.113 . S
C2311 C1780 1.125 . S
C2313 C1105 1.122 . S
C2322 C1201 1.122 . S
C2324 C1877 1.124 . S
C2333 C1965 1.125 . S
C2335 C1281 1.122 . S
C2344 C2044 1.121 . S
C2346 C1369 1.124 . S
C2355 C1604 1.121 . S
C2357 C1465 1.122 . S
C2366 C1545 1.120 . S
C2368 C1692 1.124 . S
C2377 C49 1.525 . S
C2379 C1349 1.525 . S
C2388 C1428 1.525 . S
C2390 C137 1.525 . S
C2399 C1525 1.524 . S
C2401 C225 1.524 . S
C2410 C321 1.524 . S
C2412 C1085 1.524 . S
C2421 C401 1.526 . S
C2423 C1164 1.525 . S
C2432 C1261 1.524 . S
C2434 C460 1.524 . S
C2443 C1897 1.524 . S
C2445 C557 1.524 . S
C2454 C1985 1.524 . S
C2456 C636 1.525 . S
C2465 C2081 1.524 . S
C2467 C761 1.525 . S
C2476 C1641 1.525 . S
C2478 C841 1.525 . S
C2487 C900 1.525 . S
C2489 C1729 1.525 . S
C2498 C997 1.524 . S
C2500 C1817 1.524 . S
C2509 C20 1.627 . S
C2511 C929 1.626 . S
C2520 C1025 1.625 . S
C2522 C108 1.626 . S
C2531 C585 1.627 . S
C2533 C196 1.626 . S
C2542 C293 1.625 . S
C2544 C665 1.627 . S
C2553 C372 1.626 . S
C2555 C733 1.624 . S
C2564 C489 1.626 . S
C2566 C812 1.627 . S
C2575 C1113 1.627 . S
C2577 C1956 1.625 . S
C2586 C1193 1.624 . S
C2588 C2053 1.626 . S
C2597 C1289 1.627 . S
C2599 C1613 1.625 . S
C2608 C1701 1.625 . S
C2610 C1377 1.624 . S
C2619 C1457 1.624 . S
C2621 C1789 1.626 . S
C2630 C1553 1.625 . S
C2632 C1868 1.627 . S
