# Generated by pormake.
# Topology sxc, (6)-cn, num edge types: 1
# Building blocks:
#     Node 0, Type 0, BuildingBlock: HISSIN_clean_sbu_0, # of connection points: 6
#     Node 1, Type 0, BuildingBlock: HISSIN_clean_sbu_0, # of connection points: 6
#     Node 2, Type 0, BuildingBlock: HISSIN_clean_sbu_0, # of connection points: 6
#     Edge 3, Type (0, 0), BuildingBlock: TEMPAE_clean_linker_10, # of connection points: 2
#     Edge 4, Type (0, 0), BuildingBlock: TEMPAE_clean_linker_10, # of connection points: 2
#     Edge 5, Type (0, 0), BuildingBlock: TEMPAE_clean_linker_10, # of connection points: 2
#     Edge 6, Type (0, 0), BuildingBlock: TEMPAE_clean_linker_10, # of connection points: 2
#     Edge 7, Type (0, 0), BuildingBlock: TEMPAE_clean_linker_10, # of connection points: 2
#     Edge 8, Type (0, 0), BuildingBlock: TEMPAE_clean_linker_10, # of connection points: 2
#     Edge 9, Type (0, 0), BuildingBlock: TEMPAE_clean_linker_10, # of connection points: 2
#     Edge 10, Type (0, 0), BuildingBlock: TEMPAE_clean_linker_10, # of connection points: 2
#     Edge 11, Type (0, 0), BuildingBlock: TEMPAE_clean_linker_10, # of connection points: 2
# Relax obj value: 0.312
# Max RMSD: 0.155
# Mean RMSD: 0.094
data_MOF--net-sxc--node1-HISSIN_clean_sbu_0--edge1-TEMPAE_clean_linker_10
_symmetry_space_group_name_H-M    P1
_symmetry_Int_Tables_number       1
_symmetry_cell_setting            triclinic
loop_
_symmetry_equiv_pos_as_xyz
'x, y, z'
_cell_length_a     17.281327
_cell_length_b     16.012477
_cell_length_c     46.819048
_cell_angle_alpha  94.05189
_cell_angle_beta   95.702186
_cell_angle_gamma 93.214348
loop_
_atom_site_label
_atom_site_type_symbol
_atom_site_fract_x
_atom_site_fract_y
_atom_site_fract_z
_atom_type_partial_charge
Eu0 Eu 0.26731 0.07359 0.96833 0.0
Eu1 Eu 1.08298 0.06722 0.96958 0.0
C2 C 0.15497 0.0636 0.91023 0.0
C3 C 0.47822 0.15101 0.97453 0.0
C4 C 0.46617 0.22964 0.96397 0.0
C5 C 0.59914 0.20857 0.00142 0.0
C6 C 0.52016 0.29689 0.97195 0.0
C7 C 0.54529 0.14062 -0.00688 0.0
C8 C 0.58671 0.28715 -0.00912 0.0
C9 C 0.41825 0.0819 0.96801 0.0
O10 O 1.1088 0.92938 0.96025 0.0
O11 O 0.23741 0.93861 0.97779 0.0
C12 C 0.17265 0.89285 0.96901 0.0
O13 O 0.24459 0.12361 0.01305 0.0
O14 O 0.96457 1.02123 0.95297 0.0
O15 O 0.98387 0.10942 -0.00931 0.0
O16 O 1.13597 1.03857 0.01351 0.0
C17 C 0.19399 0.08526 0.02754 0.0
O18 O 0.23885 0.20879 0.96062 0.0
O19 O 1.11844 0.20704 0.9772 0.0
O20 O 1.10472 0.10152 0.92495 0.0
O21 O 0.38324 0.05893 -0.01014 0.0
O22 O 0.36966 0.08668 0.94508 0.0
O23 O 0.21243 1.02691 0.92365 0.0
C24 C 0.89167 0.99652 -0.00863 0.0
C25 C 0.9283 0.96682 0.01652 0.0
C26 C 0.78537 0.89168 -0.00826 0.0
C27 C 0.89486 0.89837 0.02865 0.0
C28 C 0.81882 0.96044 0.97963 0.0
C29 C 0.82462 0.85806 0.0157 0.0
C30 C 0.93473 1.05541 0.9752 0.0
C31 C 0.17911 0.24883 0.96889 0.0
H32 H 0.4142 0.23987 0.95004 0.0
H33 H 0.65013 0.19995 0.01608 0.0
H34 H 0.50868 0.35737 0.96398 0.0
H35 H 0.55507 0.08051 0.00166 0.0
H36 H 0.98488 0.99346 0.02592 0.0
H37 H 0.73159 0.86126 0.98106 0.0
H38 H 0.92595 0.87424 0.04725 0.0
H39 H 0.79014 0.9821 0.96013 0.0
Eu40 Eu 1.07532 0.14444 0.29464 0.0
Eu41 Eu 0.25714 0.16775 0.31151 0.0
C42 C 0.1449 0.14807 0.36019 0.0
C43 C 0.88699 1.05002 0.30491 0.0
C44 C 0.9042 0.05755 0.33497 0.0
C45 C 0.81148 0.9192 0.30894 0.0
C46 C 0.87578 0.99708 0.35176 0.0
C47 C 0.84131 0.97959 0.29194 0.0
C48 C 0.82817 0.92778 0.33912 0.0
C49 C 0.92667 0.109 0.28747 0.0
O50 O 0.22572 1.02959 0.3184 0.0
O51 O 1.11895 1.01426 0.28576 0.0
C52 C 0.17329 0.98018 0.3019 0.0
O53 O 1.12015 0.17661 0.2529 0.0
O54 O 0.35239 0.24328 0.33679 0.0
O55 O 0.37566 0.12656 0.31374 0.0
O56 O 0.24649 0.14131 0.26289 0.0
C57 C 0.18789 0.1583 0.24436 0.0
O58 O 1.10025 0.28711 0.30479 0.0
O59 O 0.22777 0.29488 0.29587 0.0
O60 O 0.20102 0.19588 0.35215 0.0
O61 O 0.95762 0.17858 0.30128 0.0
O62 O 0.97384 0.075 0.27063 0.0
O63 O 1.09529 0.10709 0.34052 0.0
C64 C 0.42992 0.1526 0.36224 0.0
C65 C 0.40747 0.07137 0.36904 0.0
C66 C 0.50668 0.17536 0.40874 0.0
C67 C 0.43868 1.0405 0.39449 0.0
C68 C 0.47612 0.20592 0.38299 0.0
C69 C 0.49381 0.08996 0.41371 0.0
C70 C 0.39996 0.18346 0.33462 0.0
C71 C 0.16348 0.33242 0.30004 0.0
H72 H 0.93985 0.11048 0.34573 0.0
H73 H 0.77403 0.86692 0.29863 0.0
H74 H 0.8879 1.00723 0.37489 0.0
H75 H 0.82884 0.97132 0.26874 0.0
H76 H 0.36837 1.03005 0.35412 0.0
H77 H 0.54517 0.21717 0.42368 0.0
H78 H 0.42524 0.97499 0.39734 0.0
H79 H 0.49053 0.27042 0.37889 0.0
Eu80 Eu 1.12658 0.99387 0.63188 0.0
Eu81 Eu 1.12805 0.18598 0.63914 0.0
C82 C 1.1318 0.08419 0.69374 0.0
C83 C 1.04864 0.77406 0.63569 0.0
C84 C 0.99492 0.80391 0.6539 0.0
C85 C 0.95946 0.65447 0.61915 0.0
C86 C 0.92276 0.76122 0.65383 0.0
C87 C 1.03204 0.69754 0.61916 0.0
C88 C 0.90336 0.68848 0.63549 0.0
C89 C 1.11358 0.83034 0.62991 0.0
O90 O 0.2659 0.16052 0.6409 0.0
O91 O 0.26108 1.02065 0.62793 0.0
C92 C 0.30496 0.09208 0.63437 0.0
O93 O 1.13438 1.02488 0.58588 0.0
O94 O 0.17097 0.29828 0.66636 0.0
O95 O 1.09734 0.30945 0.62677 0.0
O96 O 1.12307 0.1664 0.59089 0.0
C97 C 1.1289 0.09738 0.57473 0.0
O98 O 0.98994 1.01812 0.63562 0.0
O99 O 0.99088 0.15956 0.63335 0.0
O100 O 1.09227 0.13991 0.68073 0.0
O101 O 1.0989 0.87302 0.60755 0.0
O102 O 0.1475 0.87725 0.65197 0.0
O103 O 0.16959 1.03241 0.67842 0.0
C104 C 0.20611 0.40282 0.63747 0.0
C105 C 0.25345 0.36814 0.6177 0.0
C106 C 0.29198 0.52861 0.64442 0.0
C107 C 0.32115 0.41192 0.61211 0.0
C108 C 0.22415 0.48409 0.65023 0.0
C109 C 0.34255 0.49146 0.62613 0.0
C110 C 0.14533 0.34848 0.64727 0.0
C111 C 0.94886 0.08744 0.63431 0.0
H112 H 1.00644 0.86332 0.66662 0.0
H113 H 0.94511 0.59845 0.60481 0.0
H114 H 0.88017 0.78793 0.66671 0.0
H115 H 1.07284 0.67432 0.60483 0.0
H116 H 0.24049 0.30493 0.60786 0.0
H117 H 0.30663 0.59037 0.65521 0.0
H118 H 0.35921 0.38079 0.59833 0.0
H119 H 0.18802 0.51135 0.6656 0.0
C120 C 0.22538 0.38858 0.95137 0.0
C121 C 0.1793 0.3434 0.9689 0.0
C122 C 0.22367 0.477 0.95065 0.0
C123 C 0.17641 0.52309 0.96849 0.0
C124 C 1.1308 0.47778 -0.01343 0.0
C125 C 1.13199 0.38925 -0.01373 0.0
C126 C 0.27191 0.52107 0.93042 0.0
C127 C 1.08126 0.52307 0.00665 0.0
C128 C 0.22963 0.76006 -0.0137 0.0
C129 C 0.17249 0.79822 0.96899 0.0
C130 C 0.23101 0.67164 -0.01342 0.0
C131 C 0.17519 0.61828 0.96851 0.0
C132 C 1.11777 0.65643 0.95075 0.0
C133 C 1.11646 0.74519 0.95149 0.0
C134 C 0.29209 0.63528 0.00655 0.0
C135 C 1.0579 0.60332 0.93063 0.0
H136 H 0.26182 0.35452 0.93767 0.0
H137 H 1.09641 0.35588 0.00011 0.0
H138 H 0.23392 0.55696 0.9159 0.0
H139 H 0.31539 0.56678 0.94284 0.0
H140 H 0.30315 0.47662 0.9171 0.0
H141 H 1.04906 0.4794 0.01937 0.0
H142 H 1.11857 0.56862 0.02175 0.0
H143 H 1.03857 0.55934 -0.00576 0.0
H144 H 0.27309 0.79957 0.00011 0.0
H145 H 1.07221 0.77311 0.93785 0.0
H146 H 0.3295 0.5961 -0.00607 0.0
H147 H 0.26363 0.59387 0.021 0.0
H148 H 0.32982 0.68461 0.01997 0.0
H149 H 1.08742 0.56016 0.91626 0.0
H150 H 1.01958 0.64181 0.91715 0.0
H151 H 1.02097 0.56398 0.94316 0.0
C152 C 0.53582 0.96485 0.43981 0.0
C153 C 0.55247 1.04708 0.43225 0.0
C154 C 0.59205 0.90498 0.43791 0.0
C155 C 0.66385 0.92905 0.4279 0.0
C156 C 0.6876 1.01576 0.43 0.0
C157 C 0.63117 0.07432 0.43253 0.0
C158 C 0.5704 0.81489 0.4425 0.0
C159 C 0.76784 1.04725 0.42393 0.0
C160 C 0.81816 0.85781 0.38501 0.0
C161 C 0.78341 0.87793 0.35813 0.0
C162 C 0.7739 0.85415 0.40856 0.0
C163 C 0.69522 0.87492 0.40501 0.0
C164 C 0.65723 0.87368 0.37654 0.0
C165 C 0.70227 0.87483 0.35335 0.0
C166 C 0.814 0.83864 0.43761 0.0
C167 C 0.57171 0.88744 0.37045 0.0
H168 H 0.47667 0.9443 0.44298 0.0
H169 H 0.64751 0.13907 0.42952 0.0
H170 H 0.51873 0.79126 0.42753 0.0
H171 H 0.61916 0.77381 0.43961 0.0
H172 H 0.5535 0.8111 0.46466 0.0
H173 H 0.77908 0.11556 0.4299 0.0
H174 H 0.81311 1.01402 0.43617 0.0
H175 H 0.7736 1.03604 0.40062 0.0
H176 H 0.88091 0.85493 0.38847 0.0
H177 H 0.67463 0.88674 0.33233 0.0
H178 H 0.83577 0.77469 0.43652 0.0
H179 H 0.77467 0.84349 0.45493 0.0
H180 H 0.8658 0.88314 0.44317 0.0
H181 H 0.53619 0.84853 0.38349 0.0
H182 H 0.55025 0.87179 0.34742 0.0
H183 H 0.56251 0.95446 0.37565 0.0
C184 C 0.79984 0.57271 0.63393 0.0
C185 C 0.82162 0.65645 0.63043 0.0
C186 C 0.72091 0.54472 0.63076 0.0
C187 C 0.66374 0.60194 0.62361 0.0
C188 C 0.68619 0.68527 0.61856 0.0
C189 C 0.76501 0.71176 0.62226 0.0
C190 C 0.69853 0.45511 0.63604 0.0
C191 C 0.62695 0.74753 0.61051 0.0
C192 C 0.45648 0.52177 0.59866 0.0
C193 C 0.42183 0.52924 0.6245 0.0
C194 C 0.53561 0.54457 0.59801 0.0
C195 C 0.58029 0.57715 0.6237 0.0
C196 C 0.54501 0.58825 0.64957 0.0
C197 C 0.46622 0.56355 0.64971 0.0
C198 C 0.57176 0.5321 0.57007 0.0
C199 C 0.59092 0.62447 0.67726 0.0
H200 H 0.84422 0.53019 0.64003 0.0
H201 H 0.78256 0.77627 0.61904 0.0
H202 H 0.66866 0.45376 0.65592 0.0
H203 H 0.65697 0.42597 0.61803 0.0
H204 H 0.75 0.41665 0.63849 0.0
H205 H 0.65462 0.80583 0.60348 0.0
H206 H 0.58319 0.72015 0.59294 0.0
H207 H 0.59529 0.76393 0.62942 0.0
H208 H 0.42209 0.49617 0.57905 0.0
H209 H 0.44029 0.56801 0.66986 0.0
H210 H 0.61874 0.48787 0.57254 0.0
H211 H 0.59892 0.59238 0.56446 0.0
H212 H 0.52852 0.50698 0.55191 0.0
H213 H 0.63909 0.58404 0.68327 0.0
H214 H 0.55422 0.63029 0.69539 0.0
H215 H 0.6176 0.68748 0.67424 0.0
C216 C 0.80761 0.14853 0.62167 0.0
C217 C 0.85405 0.08622 0.63406 0.0
C218 C 0.72241 0.14952 0.62092 0.0
C219 C 0.67477 0.08939 0.63436 0.0
C220 C 0.7218 1.02705 0.64748 0.0
C221 C 0.80667 1.02518 0.64655 0.0
C222 C 0.68384 0.21674 0.60484 0.0
C223 C 0.68344 0.9605 0.66345 0.0
C224 C 0.45412 0.15862 0.6479 0.0
C225 C 0.39964 0.09363 0.63426 0.0
C226 C 0.53952 0.15769 0.64857 0.0
C227 C 0.57915 0.09128 0.63435 0.0
C228 C 0.52374 1.02678 0.6199 0.0
C229 C 0.43902 1.02797 0.62058 0.0
C230 C 0.5865 0.23 0.66552 0.0
C231 C 0.55211 0.95391 0.60272 0.0
H232 H 0.83817 0.19751 0.61156 0.0
H233 H 0.83647 0.97544 0.65666 0.0
H234 H 0.62292 0.19713 0.5962 0.0
H235 H 0.6834 0.27354 0.61972 0.0
H236 H 0.71684 0.23419 0.58673 0.0
H237 H 0.72241 0.94608 0.68256 0.0
H238 H 0.62716 0.97898 0.67065 0.0
H239 H 0.67287 0.90201 0.64913 0.0
H240 H 0.43008 0.21132 0.65898 0.0
H241 H 0.40277 0.97586 0.60947 0.0
H242 H 0.58366 0.28613 0.65293 0.0
H243 H 0.64841 0.21689 0.67079 0.0
H244 H 0.56097 0.24594 0.68592 0.0
H245 H 0.51553 0.94177 0.58179 0.0
H246 H 0.54495 0.89718 0.61468 0.0
H247 H 0.6138 0.96339 0.59843 0.0
C248 C 0.85222 0.71252 0.02735 0.0
C249 C 0.79842 0.77454 0.02406 0.0
C250 C 0.82695 0.62827 0.02836 0.0
C251 C 0.74616 0.60593 0.02575 0.0
C252 C 0.69207 0.66922 0.02545 0.0
C253 C 0.71896 0.75303 0.02458 0.0
C254 C 0.8865 0.56281 0.02917 0.0
C255 C 0.60534 0.64783 0.02312 0.0
C256 C 0.66562 0.41236 0.97967 0.0
C257 C 0.6403 0.36093 0.00027 0.0
C258 C 0.70418 0.4906 -0.01208 0.0
C259 C 0.71757 0.51783 0.01754 0.0
C260 C 0.69716 0.46359 0.03855 0.0
C261 C 0.65847 0.3853 0.02962 0.0
C262 C 0.72631 0.54608 0.96482 0.0
C263 C 0.7118 0.4901 0.07029 0.0
H264 H 0.91384 0.72859 0.02685 0.0
H265 H 0.67747 0.80117 0.0226 0.0
H266 H 0.86907 0.51045 0.04196 0.0
H267 H 0.89127 0.53623 0.00692 0.0
H268 H 0.94491 0.59016 0.03839 0.0
H269 H 0.57218 0.70404 0.02743 0.0
H270 H 0.58528 0.61996 0.00106 0.0
H271 H 0.59129 0.60072 0.03839 0.0
H272 H 0.65231 0.39262 0.95699 0.0
H273 H 0.63857 0.34532 0.04552 0.0
H274 H 0.78867 0.56823 0.96893 0.0
H275 H 0.69154 0.60228 0.96519 0.0
H276 H 0.71616 0.51325 0.94294 0.0
H277 H 0.77099 0.52114 0.07566 0.0
H278 H 0.70549 0.43603 0.08368 0.0
H279 H 0.66932 0.53625 0.07609 0.0
C280 C 0.22212 0.47362 0.28776 0.0
C281 C 0.16362 0.42744 0.29999 0.0
C282 C 0.22437 0.56249 0.28792 0.0
C283 C 0.16786 0.60855 0.30122 0.0
C284 C 1.10897 0.56234 0.31382 0.0
C285 C 1.10706 0.4732 0.31277 0.0
C286 C 0.28734 0.60722 0.27354 0.0
C287 C 1.0481 0.60732 0.32877 0.0
C288 C 0.21682 0.84554 0.32336 0.0
C289 C 0.17351 0.8852 0.30171 0.0
C290 C 0.21488 0.75663 0.32369 0.0
C291 C 0.16974 0.70435 0.30153 0.0
C292 C 1.12678 0.74421 0.27944 0.0
C293 C 1.12852 0.83308 0.27996 0.0
C294 C 0.26074 0.71857 0.34806 0.0
C295 C 1.07903 0.69276 0.25495 0.0
H296 H 0.26624 0.44005 0.27768 0.0
H297 H 1.06178 0.43933 0.32255 0.0
H298 H 0.26062 0.645 0.25664 0.0
H299 H 0.32349 0.6513 0.2895 0.0
H300 H 0.32599 0.56305 0.26353 0.0
H301 H 1.00763 0.56343 0.33831 0.0
H302 H 1.07677 0.65283 0.34611 0.0
H303 H 1.0136 0.6436 0.31329 0.0
H304 H 0.2515 0.88413 0.34045 0.0
H305 H 1.09479 0.86188 0.26298 0.0
H306 H 0.30434 0.67797 0.33947 0.0
H307 H 0.22113 0.67819 0.35927 0.0
H308 H 0.29157 0.76694 0.364 0.0
H309 H 1.11672 0.65014 0.24376 0.0
H310 H 1.05052 0.73244 0.23898 0.0
H311 H 1.03331 0.65291 0.26342 0.0
C312 C 0.25558 0.1088 0.20157 0.0
C313 C 0.19662 0.15367 0.21291 0.0
C314 C 0.26007 0.09832 0.17163 0.0
C315 C 0.20509 0.13468 0.15248 0.0
C316 C 0.14709 0.18238 0.1639 0.0
C317 C 0.14319 0.19068 0.19384 0.0
C318 C 0.32219 1.04607 0.16043 0.0
C319 C 1.08805 0.22344 0.14442 0.0
C320 C 0.2474 0.16195 0.07487 0.0
C321 C 0.20031 0.09597 0.05959 0.0
C322 C 0.25014 0.17498 0.10507 0.0
C323 C 0.20576 0.11994 0.12051 0.0
C324 C 0.15962 1.05205 0.10521 0.0
C325 C 0.15697 1.04136 0.07503 0.0
C326 C 0.29907 0.24889 0.12039 0.0
C327 C 1.11221 0.99105 0.12071 0.0
H328 H 0.29688 0.07951 0.21604 0.0
H329 H 1.0977 0.22597 0.20232 0.0
H330 H 0.29443 0.99006 0.14721 0.0
H331 H 0.35675 0.08246 0.14627 0.0
H332 H 0.36244 1.02479 0.17807 0.0
H333 H 1.04988 0.26285 0.15669 0.0
H334 H 1.11809 0.26325 0.12992 0.0
H335 H 1.05084 0.17465 0.13063 0.0
H336 H 0.28076 0.20476 0.06315 0.0
H337 H 1.12071 0.98989 0.0635 0.0
H338 H 0.34126 0.22733 0.1373 0.0
H339 H 0.26115 0.29192 0.13128 0.0
H340 H 0.33175 0.28463 0.10545 0.0
H341 H 0.15033 0.96355 0.1376 0.0
H342 H 1.08237 0.93928 0.10589 0.0
H343 H 1.06752 1.02448 0.13163 0.0
C344 C 0.20298 0.16915 0.41168 0.0
C345 C 0.14065 0.13813 0.39146 0.0
C346 C 0.20119 0.15973 0.44126 0.0
C347 C 1.13496 0.11929 0.45114 0.0
C348 C 1.07206 0.08713 0.43085 0.0
C349 C 1.07592 0.09647 0.40129 0.0
C350 C 0.2704 0.19321 0.46195 0.0
C351 C 0.99992 1.04432 0.44036 0.0
C352 C 0.15625 1.03626 0.52593 0.0
C353 C 1.1292 0.10185 0.54302 0.0
C354 C 0.15825 1.0409 0.49606 0.0
C355 C 1.13128 0.11217 0.48275 0.0
C356 C 1.10264 0.17785 0.49981 0.0
C357 C 1.10262 0.17227 0.52969 0.0
C358 C 0.19008 0.9699 0.47877 0.0
C359 C 1.07214 0.2543 0.48651 0.0
H360 H 0.25392 0.20033 0.40439 0.0
H361 H 1.02789 0.07156 0.38592 0.0
H362 H 0.25256 0.24315 0.47713 0.0
H363 H 0.29232 0.14252 0.47495 0.0
H364 H 0.31891 0.21946 0.45073 0.0
H365 H 0.96139 1.0124 0.42197 0.0
H366 H 1.01563 0.99731 0.45589 0.0
H367 H 0.96654 0.09165 0.45148 0.0
H368 H 0.1772 0.98172 0.53598 0.0
H369 H 1.08103 0.22307 0.54259 0.0
H370 H 0.24084 0.99383 0.46829 0.0
H371 H 0.14529 0.94335 0.46139 0.0
H372 H 0.2086 0.91874 0.49225 0.0
H373 H 1.11925 0.28788 0.47656 0.0
H374 H 1.04937 0.29858 0.50252 0.0
H375 H 1.02477 0.235 0.46913 0.0
C376 C 0.20561 0.07838 0.74222 0.0
C377 C 1.13422 0.08014 0.72532 0.0
C378 C 0.20894 0.07672 0.77236 0.0
C379 C 1.13891 0.07272 0.7858 0.0
C380 C 1.06649 0.07219 0.76859 0.0
C381 C 1.06514 0.07789 0.73865 0.0
C382 C 0.28749 0.08086 0.78985 0.0
C383 C 0.99035 0.06444 0.78174 0.0
C384 C 0.1528 0.9914 0.86089 0.0
C385 C 0.14893 0.06521 0.87849 0.0
C386 C 0.14729 0.99252 0.83068 0.0
C387 C 0.14153 0.06991 0.81784 0.0
C388 C 1.13908 0.14484 0.83572 0.0
C389 C 0.14105 0.14128 0.86576 0.0
C390 C 0.14689 0.91077 0.8125 0.0
C391 C 1.13618 0.22908 0.8232 0.0
H392 H 0.25907 0.08066 0.73189 0.0
H393 H 1.00985 0.07846 0.72552 0.0
H394 H 0.29207 0.13454 0.80641 0.0
H395 H 0.29411 1.02309 0.80135 0.0
H396 H 0.33636 0.08802 0.77631 0.0
H397 H 0.93916 0.05972 0.76523 0.0
H398 H 0.98844 1.00803 0.79419 0.0
H399 H 0.98543 0.11962 0.79699 0.0
H400 H 0.15852 0.9325 0.87075 0.0
H401 H 1.13893 0.19851 0.87942 0.0
H402 H 0.19908 0.91024 0.80051 0.0
H403 H 1.09498 0.9041 0.79633 0.0
H404 H 0.14638 0.85563 0.82563 0.0
H405 H 0.18611 0.23892 0.81036 0.0
H406 H 1.13804 0.2817 0.84009 0.0
H407 H 1.08217 0.23103 0.80842 0.0
loop_
_geom_bond_atom_site_label_1
_geom_bond_atom_site_label_2
_geom_bond_distance
_geom_bond_site_symmetry_2
_ccdc_geom_bond_type
Eu0 C9 2.828 . S
Eu0 O11 2.392 1_545 S
Eu0 O13 2.418 . S
Eu0 O18 2.373 . S
Eu0 O21 2.488 . S
Eu0 O22 2.471 1_554 S
Eu0 O23 2.349 1_554 S
Eu1 O10 2.373 . S
Eu1 O14 2.488 . S
Eu1 O15 2.471 1_556 S
Eu1 O16 2.349 1_656 S
Eu1 O19 2.392 1_565 S
Eu1 O20 2.418 . S
Eu1 C30 2.828 . S
C2 O20 1.244 1_455 S
C2 O23 1.265 1_565 S
C3 C4 1.379 1_554 S
C3 C7 1.373 . S
C3 C9 1.505 . S
C4 C3 1.379 1_556 S
C4 C6 1.369 . S
C4 H32 0.930 . S
C5 C7 1.383 . S
C5 C8 1.382 . S
C5 H33 0.930 . S
C6 C4 1.369 . S
C6 C8 1.392 1_556 S
C6 H34 0.930 . S
C7 C3 1.373 . S
C7 C5 1.383 . S
C7 H35 0.931 . S
C8 C5 1.382 . S
C8 C6 1.392 1_554 S
C9 Eu0 2.828 . S
C9 C3 1.505 . S
C9 O21 1.249 . S
C9 O22 1.244 1_554 S
O10 Eu1 2.373 . S
O10 C12 1.254 1_656 S
O11 Eu0 2.392 1_565 S
O11 C12 1.246 . S
C12 O10 1.254 1_454 S
C12 O11 1.246 . S
O13 Eu0 2.418 . S
O13 C17 1.244 . S
O14 Eu1 2.488 . S
O14 C30 1.249 . S
O15 Eu1 2.471 1_554 S
O15 C30 1.244 1_554 S
O16 Eu1 2.349 1_454 S
O16 C17 1.265 1_565 S
C17 O13 1.244 . S
C17 O16 1.265 1_545 S
O18 Eu0 2.373 . S
O18 C31 1.258 . S
O19 Eu1 2.392 1_545 S
O19 C31 1.242 1_656 S
O20 Eu1 2.418 . S
O20 C2 1.244 1_655 S
O21 Eu0 2.488 . S
O21 C9 1.249 . S
O22 Eu0 2.471 1_556 S
O22 C9 1.244 1_556 S
O23 Eu0 2.349 1_556 S
O23 C2 1.265 1_545 S
C24 C25 1.351 1_556 S
C24 C28 1.395 . S
C24 C30 1.511 . S
C25 C24 1.351 1_554 S
C25 C27 1.369 . S
C25 H36 0.930 . S
C26 C28 1.383 . S
C26 C29 1.382 1_556 S
C26 H37 0.930 . S
C27 C25 1.369 . S
C27 C29 1.392 . S
C27 H38 0.930 . S
C28 C24 1.395 . S
C28 C26 1.383 . S
C28 H39 0.931 . S
C29 C26 1.382 1_554 S
C29 C27 1.392 . S
C30 Eu1 2.828 . S
C30 O14 1.249 . S
C30 O15 1.244 1_556 S
C30 C24 1.511 . S
C31 O18 1.258 . S
C31 O19 1.242 1_454 S
H32 C4 0.930 . S
H33 C5 0.930 . S
H34 C6 0.930 . S
H35 C7 0.931 . S
H36 C25 0.930 . S
H37 C26 0.930 . S
H38 C27 0.930 . S
H39 C28 0.931 . S
Eu40 C49 2.828 1_565 S
Eu40 O51 2.392 . S
Eu40 O53 2.418 1_565 S
Eu40 O58 2.373 1_565 S
Eu40 O61 2.488 1_565 S
Eu40 O62 2.471 1_565 S
Eu40 O63 2.349 1_565 S
Eu41 O50 2.373 1_545 S
Eu41 O54 2.488 . S
Eu41 O55 2.471 . S
Eu41 O56 2.349 . S
Eu41 O59 2.392 . S
Eu41 O60 2.418 . S
Eu41 C70 2.828 . S
C42 O60 1.244 . S
C42 O63 1.265 1_455 S
C43 C44 1.379 . S
C43 C47 1.373 . S
C43 C49 1.505 . S
C44 C43 1.379 . S
C44 C46 1.369 . S
C44 H72 0.930 . S
C45 C47 1.383 . S
C45 C48 1.382 . S
C45 H73 0.930 . S
C46 C44 1.369 . S
C46 C48 1.392 . S
C46 H74 0.930 . S
C47 C43 1.373 . S
C47 C45 1.383 . S
C47 H75 0.931 . S
C48 C45 1.382 . S
C48 C46 1.392 . S
C49 Eu40 2.828 1_545 S
C49 C43 1.505 . S
C49 O61 1.249 . S
C49 O62 1.244 . S
O50 Eu41 2.373 1_565 S
O50 C52 1.258 . S
O51 Eu40 2.392 . S
O51 C52 1.242 1_655 S
C52 O50 1.258 . S
C52 O51 1.242 1_455 S
O53 Eu40 2.418 1_545 S
O53 C57 1.251 . S
O54 Eu41 2.488 . S
O54 C70 1.249 . S
O55 Eu41 2.471 . S
O55 C70 1.244 . S
O56 Eu41 2.349 . S
O56 C57 1.262 1_455 S
C57 O53 1.251 . S
C57 O56 1.262 1_655 S
O58 Eu40 2.373 1_545 S
O58 C71 1.258 . S
O59 Eu41 2.392 . S
O59 C71 1.242 1_455 S
O60 Eu41 2.418 . S
O60 C42 1.244 . S
O61 Eu40 2.488 1_545 S
O61 C49 1.249 . S
O62 Eu40 2.471 1_545 S
O62 C49 1.244 . S
O63 Eu40 2.349 1_545 S
O63 C42 1.265 1_655 S
C64 C65 1.379 1_545 S
C64 C68 1.373 . S
C64 C70 1.505 . S
C65 C64 1.379 1_565 S
C65 C67 1.369 . S
C65 H76 0.930 . S
C66 C68 1.383 1_565 S
C66 C69 1.382 . S
C66 H77 0.930 . S
C67 C65 1.369 . S
C67 C69 1.392 . S
C67 H78 0.930 . S
C68 C64 1.373 . S
C68 C66 1.383 1_545 S
C68 H79 0.931 . S
C69 C66 1.382 . S
C69 C67 1.392 . S
C70 Eu41 2.828 . S
C70 O54 1.249 . S
C70 O55 1.244 . S
C70 C64 1.505 . S
C71 O58 1.258 . S
C71 O59 1.242 1_655 S
H72 C44 0.930 . S
H73 C45 0.930 . S
H74 C46 0.930 . S
H75 C47 0.931 . S
H76 C65 0.930 . S
H77 C66 0.930 . S
H78 C67 0.930 . S
H79 C68 0.931 . S
Eu80 C89 2.828 . S
Eu80 O91 2.392 1_655 S
Eu80 O93 2.418 . S
Eu80 O98 2.373 . S
Eu80 O101 2.488 . S
Eu80 O102 2.471 . S
Eu80 O103 2.349 1_665 S
Eu81 O90 2.373 . S
Eu81 O94 2.488 . S
Eu81 O95 2.471 . S
Eu81 O96 2.349 . S
Eu81 O99 2.392 1_455 S
Eu81 O100 2.418 . S
Eu81 C110 2.828 . S
C82 O100 1.244 . S
C82 O103 1.265 . S
C83 C84 1.379 . S
C83 C87 1.373 . S
C83 C89 1.505 . S
C84 C83 1.379 . S
C84 C86 1.369 . S
C84 H112 0.930 . S
C85 C87 1.383 . S
C85 C88 1.382 . S
C85 H113 0.930 . S
C86 C84 1.369 . S
C86 C88 1.392 . S
C86 H114 0.930 . S
C87 C83 1.373 . S
C87 C85 1.383 . S
C87 H115 0.931 . S
C88 C85 1.382 . S
C88 C86 1.392 . S
C89 Eu80 2.828 . S
C89 C83 1.505 . S
C89 O101 1.249 . S
C89 O102 1.244 . S
O90 Eu81 2.373 . S
O90 C92 1.258 . S
O91 Eu80 2.392 1_455 S
O91 C92 1.242 1_565 S
C92 O90 1.258 . S
C92 O91 1.242 1_545 S
O93 Eu80 2.418 . S
O93 C97 1.244 1_665 S
O94 Eu81 2.488 . S
O94 C110 1.249 . S
O95 Eu81 2.471 . S
O95 C110 1.244 . S
O96 Eu81 2.349 . S
O96 C97 1.265 . S
C97 O93 1.244 1_445 S
C97 O96 1.265 . S
O98 Eu80 2.373 . S
O98 C111 1.258 1_565 S
O99 Eu81 2.392 1_655 S
O99 C111 1.242 . S
O100 Eu81 2.418 . S
O100 C82 1.244 . S
O101 Eu80 2.488 . S
O101 C89 1.249 . S
O102 Eu80 2.471 . S
O102 C89 1.244 . S
O103 Eu80 2.349 1_445 S
O103 C82 1.265 . S
C104 C105 1.379 . S
C104 C108 1.373 . S
C104 C110 1.505 . S
C105 C104 1.379 . S
C105 C107 1.369 . S
C105 H116 0.930 . S
C106 C108 1.383 . S
C106 C109 1.382 . S
C106 H117 0.930 . S
C107 C105 1.369 . S
C107 C109 1.392 . S
C107 H118 0.930 . S
C108 C104 1.373 . S
C108 C106 1.383 . S
C108 H119 0.931 . S
C109 C106 1.382 . S
C109 C107 1.392 . S
C110 Eu81 2.828 . S
C110 O94 1.249 . S
C110 O95 1.244 . S
C110 C104 1.505 . S
C111 O98 1.258 1_545 S
C111 O99 1.242 . S
H112 C84 0.930 . S
H113 C85 0.930 . S
H114 C86 0.930 . S
H115 C87 0.931 . S
H116 C105 0.930 . S
H117 C106 0.930 . S
H118 C107 0.930 . S
H119 C108 0.931 . S
C120 C121 1.391 1_556 S
C120 C122 1.394 . S
C120 H136 0.931 . S
C121 C120 1.391 1_554 S
C121 C125 1.376 1_455 S
C122 C120 1.394 . S
C122 C123 1.369 . S
C122 C126 1.531 . S
C123 C122 1.369 . S
C123 C124 1.410 1_456 S
C123 C131 1.503 . S
C124 C123 1.410 1_654 S
C124 C125 1.392 . S
C124 C127 1.511 . S
C125 C121 1.376 1_655 S
C125 C124 1.392 . S
C125 H137 0.929 . S
C126 C122 1.531 . S
C126 H138 0.960 . S
C126 H139 0.962 . S
C126 H140 0.960 . S
C127 C124 1.511 . S
C127 H141 0.961 . S
C127 H142 0.961 . S
C127 H143 0.961 . S
C128 C129 1.370 . S
C128 C130 1.363 . S
C128 H144 0.931 . S
C129 C128 1.370 . S
C129 C133 1.408 1_554 S
C130 C128 1.363 . S
C130 C131 1.370 1_554 S
C130 C134 1.524 . S
C131 C123 1.503 . S
C131 C130 1.370 1_556 S
C131 C132 1.403 . S
C132 C131 1.403 . S
C132 C133 1.404 . S
C132 C135 1.539 1_455 S
C133 C129 1.408 1_556 S
C133 C132 1.404 . S
C133 H145 0.930 1_455 S
C134 C130 1.524 . S
C134 H146 0.956 . S
C134 H147 0.961 . S
C134 H148 0.961 . S
C135 C132 1.539 1_655 S
C135 H149 0.958 . S
C135 H150 0.961 . S
C135 H151 0.960 . S
H136 C120 0.931 . S
H137 C125 0.929 . S
H138 C126 0.960 . S
H139 C126 0.962 . S
H140 C126 0.960 . S
H141 C127 0.961 . S
H142 C127 0.961 . S
H143 C127 0.961 . S
H144 C128 0.931 . S
H145 C133 0.930 1_655 S
H146 C134 0.956 . S
H147 C134 0.961 . S
H148 C134 0.961 . S
H149 C135 0.958 . S
H150 C135 0.961 . S
H151 C135 0.960 . S
C152 C153 1.391 . S
C152 C154 1.394 . S
C152 H168 0.931 . S
C153 C152 1.391 . S
C153 C157 1.376 . S
C154 C152 1.394 . S
C154 C155 1.369 1_565 S
C154 C158 1.531 . S
C155 C154 1.369 1_545 S
C155 C156 1.410 . S
C155 C163 1.503 . S
C156 C155 1.410 . S
C156 C157 1.392 1_545 S
C156 C159 1.511 . S
C157 C153 1.376 . S
C157 C156 1.392 1_565 S
C157 H169 0.929 . S
C158 C154 1.531 . S
C158 H170 0.960 . S
C158 H171 0.962 . S
C158 H172 0.960 . S
C159 C156 1.511 . S
C159 H173 0.961 . S
C159 H174 0.961 . S
C159 H175 0.961 . S
C160 C161 1.370 . S
C160 C162 1.363 . S
C160 H176 0.931 . S
C161 C160 1.370 . S
C161 C165 1.408 . S
C162 C160 1.363 . S
C162 C163 1.370 . S
C162 C166 1.524 1_545 S
C163 C155 1.503 . S
C163 C162 1.370 . S
C163 C164 1.403 . S
C164 C163 1.403 . S
C164 C165 1.404 . S
C164 C167 1.539 . S
C165 C161 1.408 . S
C165 C164 1.404 . S
C165 H177 0.930 . S
C166 C162 1.524 1_565 S
C166 H178 0.956 . S
C166 H179 0.961 . S
C166 H180 0.961 . S
C167 C164 1.539 . S
C167 H181 0.958 . S
C167 H182 0.961 . S
C167 H183 0.960 . S
H168 C152 0.931 . S
H169 C157 0.929 . S
H170 C158 0.960 . S
H171 C158 0.962 . S
H172 C158 0.960 . S
H173 C159 0.961 . S
H174 C159 0.961 . S
H175 C159 0.961 . S
H176 C160 0.931 . S
H177 C165 0.930 . S
H178 C166 0.956 . S
H179 C166 0.961 . S
H180 C166 0.961 . S
H181 C167 0.958 . S
H182 C167 0.961 . S
H183 C167 0.960 . S
C184 C185 1.391 . S
C184 C186 1.394 . S
C184 H200 0.931 . S
C185 C184 1.391 . S
C185 C189 1.376 . S
C186 C184 1.394 . S
C186 C187 1.369 . S
C186 C190 1.531 . S
C187 C186 1.369 . S
C187 C188 1.410 . S
C187 C195 1.503 . S
C188 C187 1.410 . S
C188 C189 1.392 . S
C188 C191 1.511 . S
C189 C185 1.376 . S
C189 C188 1.392 . S
C189 H201 0.929 . S
C190 C186 1.531 . S
C190 H202 0.960 . S
C190 H203 0.962 . S
C190 H204 0.960 . S
C191 C188 1.511 . S
C191 H205 0.961 . S
C191 H206 0.961 . S
C191 H207 0.961 . S
C192 C193 1.370 . S
C192 C194 1.363 . S
C192 H208 0.931 . S
C193 C192 1.370 . S
C193 C197 1.408 . S
C194 C192 1.363 . S
C194 C195 1.370 . S
C194 C198 1.524 . S
C195 C187 1.503 . S
C195 C194 1.370 . S
C195 C196 1.403 . S
C196 C195 1.403 . S
C196 C197 1.404 . S
C196 C199 1.539 . S
C197 C193 1.408 . S
C197 C196 1.404 . S
C197 H209 0.930 . S
C198 C194 1.524 . S
C198 H210 0.956 . S
C198 H211 0.961 . S
C198 H212 0.961 . S
C199 C196 1.539 . S
C199 H213 0.958 . S
C199 H214 0.961 . S
C199 H215 0.960 . S
H200 C184 0.931 . S
H201 C189 0.929 . S
H202 C190 0.960 . S
H203 C190 0.962 . S
H204 C190 0.960 . S
H205 C191 0.961 . S
H206 C191 0.961 . S
H207 C191 0.961 . S
H208 C192 0.931 . S
H209 C197 0.930 . S
H210 C198 0.956 . S
H211 C198 0.961 . S
H212 C198 0.961 . S
H213 C199 0.958 . S
H214 C199 0.961 . S
H215 C199 0.960 . S
C216 C217 1.391 . S
C216 C218 1.394 . S
C216 H232 0.931 . S
C217 C216 1.391 . S
C217 C221 1.376 1_545 S
C218 C216 1.394 . S
C218 C219 1.369 . S
C218 C222 1.531 . S
C219 C218 1.369 . S
C219 C220 1.410 1_545 S
C219 C227 1.503 . S
C220 C219 1.410 1_565 S
C220 C221 1.392 . S
C220 C223 1.511 . S
C221 C217 1.376 1_565 S
C221 C220 1.392 . S
C221 H233 0.929 . S
C222 C218 1.531 . S
C222 H234 0.960 . S
C222 H235 0.962 . S
C222 H236 0.960 . S
C223 C220 1.511 . S
C223 H237 0.961 . S
C223 H238 0.961 . S
C223 H239 0.961 . S
C224 C225 1.370 . S
C224 C226 1.363 . S
C224 H240 0.931 . S
C225 C224 1.370 . S
C225 C229 1.408 1_545 S
C226 C224 1.363 . S
C226 C227 1.370 . S
C226 C230 1.524 . S
C227 C219 1.503 . S
C227 C226 1.370 . S
C227 C228 1.403 1_545 S
C228 C227 1.403 1_565 S
C228 C229 1.404 . S
C228 C231 1.539 . S
C229 C225 1.408 1_565 S
C229 C228 1.404 . S
C229 H241 0.930 . S
C230 C226 1.524 . S
C230 H242 0.956 . S
C230 H243 0.961 . S
C230 H244 0.961 . S
C231 C228 1.539 . S
C231 H245 0.958 . S
C231 H246 0.961 . S
C231 H247 0.960 . S
H232 C216 0.931 . S
H233 C221 0.929 . S
H234 C222 0.960 . S
H235 C222 0.962 . S
H236 C222 0.960 . S
H237 C223 0.961 . S
H238 C223 0.961 . S
H239 C223 0.961 . S
H240 C224 0.931 . S
H241 C229 0.930 . S
H242 C230 0.956 . S
H243 C230 0.961 . S
H244 C230 0.961 . S
H245 C231 0.958 . S
H246 C231 0.961 . S
H247 C231 0.960 . S
C248 C249 1.391 . S
C248 C250 1.394 . S
C248 H264 0.925 1_554 S
C249 C248 1.391 . S
C249 C253 1.376 . S
C250 C248 1.394 . S
C250 C251 1.369 . S
C250 C254 1.531 1_554 S
C251 C250 1.369 . S
C251 C252 1.410 . S
C251 C259 1.503 . S
C252 C251 1.410 . S
C252 C253 1.392 . S
C252 C255 1.511 . S
C253 C249 1.376 . S
C253 C252 1.392 . S
C253 H265 0.929 . S
C254 C250 1.531 1_556 S
C254 H266 0.960 1_556 S
C254 H267 0.962 . S
C254 H268 0.960 1_556 S
C255 C252 1.511 . S
C255 H269 0.961 . S
C255 H270 0.961 . S
C255 H271 0.961 . S
C256 C257 1.346 1_556 S
C256 C258 1.363 . S
C256 H272 0.931 . S
C257 C256 1.346 1_554 S
C257 C261 1.432 . S
C258 C256 1.363 . S
C258 C259 1.370 1_556 S
C258 C262 1.524 . S
C259 C251 1.503 . S
C259 C258 1.370 1_554 S
C259 C260 1.403 . S
C260 C259 1.403 . S
C260 C261 1.404 . S
C260 C263 1.539 . S
C261 C257 1.432 . S
C261 C260 1.404 . S
C261 H273 0.930 . S
C262 C258 1.524 . S
C262 H274 0.956 . S
C262 H275 0.961 . S
C262 H276 0.961 . S
C263 C260 1.539 . S
C263 H277 0.958 . S
C263 H278 0.961 . S
C263 H279 0.960 . S
H264 C248 0.925 1_556 S
H265 C253 0.929 . S
H266 C254 0.960 1_554 S
H267 C254 0.962 . S
H268 C254 0.960 1_554 S
H269 C255 0.961 . S
H270 C255 0.961 . S
H271 C255 0.961 . S
H272 C256 0.931 . S
H273 C261 0.930 . S
H274 C262 0.956 . S
H275 C262 0.961 . S
H276 C262 0.961 . S
H277 C263 0.958 . S
H278 C263 0.961 . S
H279 C263 0.960 . S
C280 C281 1.391 . S
C280 C282 1.396 1_655 S
C280 H296 0.931 1_655 S
C281 C280 1.391 . S
C281 C285 1.376 . S
C282 C280 1.396 1_455 S
C282 C283 1.365 1_455 S
C282 C286 1.532 . S
C283 C282 1.365 1_655 S
C283 C284 1.410 . S
C283 C291 1.503 1_655 S
C284 C283 1.410 . S
C284 C285 1.392 . S
C284 C287 1.511 . S
C285 C281 1.376 . S
C285 C284 1.392 . S
C285 H297 0.929 . S
C286 C282 1.532 . S
C286 H298 0.960 1_455 S
C286 H299 0.962 . S
C286 H300 0.960 1_455 S
C287 C284 1.511 . S
C287 H301 0.961 . S
C287 H302 0.961 . S
C287 H303 0.961 . S
C288 C289 1.370 . S
C288 C290 1.363 . S
C288 H304 0.931 . S
C289 C288 1.370 . S
C289 C293 1.408 1_455 S
C290 C288 1.363 . S
C290 C291 1.370 . S
C290 C294 1.524 . S
C291 C283 1.503 1_455 S
C291 C290 1.370 . S
C291 C292 1.403 1_455 S
C292 C291 1.403 1_655 S
C292 C293 1.404 . S
C292 C295 1.539 . S
C293 C289 1.408 1_655 S
C293 C292 1.404 . S
C293 H305 0.930 . S
C294 C290 1.524 . S
C294 H306 0.956 . S
C294 H307 0.961 . S
C294 H308 0.961 . S
C295 C292 1.539 . S
C295 H309 0.958 . S
C295 H310 0.961 . S
C295 H311 0.960 . S
H296 C280 0.931 1_455 S
H297 C285 0.929 . S
H298 C286 0.960 1_655 S
H299 C286 0.962 . S
H300 C286 0.960 1_655 S
H301 C287 0.961 . S
H302 C287 0.961 . S
H303 C287 0.961 . S
H304 C288 0.931 . S
H305 C293 0.930 . S
H306 C294 0.956 . S
H307 C294 0.961 . S
H308 C294 0.961 . S
H309 C295 0.958 . S
H310 C295 0.961 . S
H311 C295 0.960 . S
C312 C313 1.391 1_565 S
C312 C314 1.394 . S
C312 H328 0.931 . S
C313 C312 1.391 1_545 S
C313 C317 1.376 1_455 S
C314 C312 1.394 . S
C314 C315 1.369 1_565 S
C314 C318 1.531 . S
C315 C314 1.369 1_545 S
C315 C316 1.410 1_455 S
C315 C323 1.503 . S
C316 C315 1.410 1_655 S
C316 C317 1.392 . S
C316 C319 1.511 . S
C317 C313 1.376 1_655 S
C317 C316 1.392 . S
C317 H329 0.929 . S
C318 C314 1.531 . S
C318 H330 0.960 . S
C318 H331 0.962 . S
C318 H332 0.960 . S
C319 C316 1.511 . S
C319 H333 0.961 . S
C319 H334 0.961 . S
C319 H335 0.961 . S
C320 C321 1.370 . S
C320 C322 1.363 . S
C320 H336 0.931 . S
C321 C320 1.370 . S
C321 C325 1.408 1_445 S
C322 C320 1.363 . S
C322 C323 1.370 . S
C322 C326 1.524 . S
C323 C315 1.503 . S
C323 C322 1.370 . S
C323 C324 1.403 1_445 S
C324 C323 1.403 1_665 S
C324 C325 1.404 . S
C324 C327 1.539 . S
C325 C321 1.408 1_665 S
C325 C324 1.404 . S
C325 H337 0.930 . S
C326 C322 1.524 . S
C326 H338 0.956 . S
C326 H339 0.961 . S
C326 H340 0.961 . S
C327 C324 1.539 . S
C327 H341 0.958 . S
C327 H342 0.961 . S
C327 H343 0.960 . S
H328 C312 0.931 . S
H329 C317 0.929 . S
H330 C318 0.960 . S
H331 C318 0.962 . S
H332 C318 0.960 . S
H333 C319 0.961 . S
H334 C319 0.961 . S
H335 C319 0.961 . S
H336 C320 0.931 . S
H337 C325 0.930 . S
H338 C326 0.956 . S
H339 C326 0.961 . S
H340 C326 0.961 . S
H341 C327 0.958 . S
H342 C327 0.961 . S
H343 C327 0.960 . S
C344 C345 1.391 . S
C344 C346 1.394 . S
C344 H360 0.931 . S
C345 C344 1.391 . S
C345 C349 1.376 1_455 S
C346 C344 1.394 . S
C346 C347 1.369 . S
C346 C350 1.531 . S
C347 C346 1.369 . S
C347 C348 1.410 1_455 S
C347 C355 1.503 . S
C348 C347 1.410 1_655 S
C348 C349 1.392 . S
C348 C351 1.511 1_545 S
C349 C345 1.376 1_655 S
C349 C348 1.392 . S
C349 H361 0.929 1_545 S
C350 C346 1.531 . S
C350 H362 0.960 . S
C350 H363 0.962 . S
C350 H364 0.960 . S
C351 C348 1.511 1_565 S
C351 H365 0.961 . S
C351 H366 0.961 . S
C351 H367 0.961 1_565 S
C352 C353 1.370 1_565 S
C352 C354 1.363 . S
C352 H368 0.931 . S
C353 C352 1.370 1_545 S
C353 C357 1.408 1_455 S
C354 C352 1.363 . S
C354 C355 1.370 1_565 S
C354 C358 1.524 . S
C355 C347 1.503 . S
C355 C354 1.370 1_545 S
C355 C356 1.403 1_455 S
C356 C355 1.403 1_655 S
C356 C357 1.404 . S
C356 C359 1.539 . S
C357 C353 1.408 1_655 S
C357 C356 1.404 . S
C357 H369 0.930 . S
C358 C354 1.524 . S
C358 H370 0.956 . S
C358 H371 0.961 . S
C358 H372 0.961 . S
C359 C356 1.539 . S
C359 H373 0.958 1_655 S
C359 H374 0.961 . S
C359 H375 0.960 . S
H360 C344 0.931 . S
H361 C349 0.929 1_565 S
H362 C350 0.960 . S
H363 C350 0.962 . S
H364 C350 0.960 . S
H365 C351 0.961 . S
H366 C351 0.961 . S
H367 C351 0.961 1_545 S
H368 C352 0.931 . S
H369 C357 0.930 . S
H370 C358 0.956 . S
H371 C358 0.961 . S
H372 C358 0.961 . S
H373 C359 0.958 1_455 S
H374 C359 0.961 . S
H375 C359 0.960 . S
C376 C377 1.391 . S
C376 C378 1.394 . S
C376 H392 0.931 . S
C377 C376 1.391 . S
C377 C381 1.376 1_455 S
C378 C376 1.394 . S
C378 C379 1.369 . S
C378 C382 1.531 . S
C379 C378 1.369 . S
C379 C380 1.410 1_455 S
C379 C387 1.503 . S
C380 C379 1.410 1_655 S
C380 C381 1.392 . S
C380 C383 1.511 1_545 S
C381 C377 1.376 1_655 S
C381 C380 1.392 . S
C381 H393 0.929 1_545 S
C382 C378 1.531 . S
C382 H394 0.960 . S
C382 H395 0.962 . S
C382 H396 0.960 . S
C383 C380 1.511 1_565 S
C383 H397 0.961 . S
C383 H398 0.961 . S
C383 H399 0.961 1_565 S
C384 C385 1.370 1_565 S
C384 C386 1.363 . S
C384 H400 0.931 . S
C385 C384 1.370 1_545 S
C385 C389 1.408 . S
C386 C384 1.363 . S
C386 C387 1.370 1_565 S
C386 C390 1.524 . S
C387 C379 1.503 . S
C387 C386 1.370 1_545 S
C387 C388 1.403 . S
C388 C387 1.403 . S
C388 C389 1.404 . S
C388 C391 1.539 . S
C389 C385 1.408 . S
C389 C388 1.404 . S
C389 H401 0.930 . S
C390 C386 1.524 . S
C390 H402 0.956 . S
C390 H403 0.961 . S
C390 H404 0.961 . S
C391 C388 1.539 . S
C391 H405 0.958 . S
C391 H406 0.961 1_455 S
C391 H407 0.961 . S
H392 C376 0.931 . S
H393 C381 0.929 1_565 S
H394 C382 0.960 . S
H395 C382 0.962 . S
H396 C382 0.960 . S
H397 C383 0.961 . S
H398 C383 0.961 . S
H399 C383 0.961 1_545 S
H400 C384 0.931 . S
H401 C389 0.930 . S
H402 C390 0.956 . S
H403 C390 0.961 . S
H404 C390 0.961 . S
H405 C391 0.958 . S
H406 C391 0.961 1_655 S
H407 C391 0.961 . S
C121 C31 2.953 . S
C129 C12 2.964 . S
C153 C69 0.869 . S
C161 C48 0.944 . S
C185 C88 0.691 . S
C193 C109 0.668 . S
C217 C111 4.827 . S
C225 C92 4.834 . S
C249 C29 0.601 . S
C257 C8 0.567 . S
C281 C71 3.029 . S
C289 C52 3.021 . S
C313 C57 1.453 1_455 S
C321 C17 1.492 . S
C345 C42 1.465 . S
C353 C97 1.475 . S
C377 C82 1.453 . S
C385 C2 1.459 1_545 S
