# Generated by pormake.
# Topology uos, (4)-cn, num edge types: 1
# Building blocks:
#     Node 0, Type 0, BuildingBlock: QUQFOY_clean_sbu_1, # of connection points: 4
#     Node 1, Type 0, BuildingBlock: QUQFOY_clean_sbu_1, # of connection points: 4
#     Node 2, Type 0, BuildingBlock: QUQFOY_clean_sbu_1, # of connection points: 4
#     Node 3, Type 0, BuildingBlock: QUQFOY_clean_sbu_1, # of connection points: 4
#     Node 4, Type 0, BuildingBlock: QUQFOY_clean_sbu_1, # of connection points: 4
#     Node 5, Type 0, BuildingBlock: QUQFOY_clean_sbu_1, # of connection points: 4
#     Node 6, Type 0, BuildingBlock: QUQFOY_clean_sbu_1, # of connection points: 4
#     Node 7, Type 0, BuildingBlock: QUQFOY_clean_sbu_1, # of connection points: 4
#     Node 8, Type 0, BuildingBlock: QUQFOY_clean_sbu_1, # of connection points: 4
#     Node 9, Type 0, BuildingBlock: QUQFOY_clean_sbu_1, # of connection points: 4
#     Node 10, Type 0, BuildingBlock: QUQFOY_clean_sbu_1, # of connection points: 4
#     Node 11, Type 0, BuildingBlock: QUQFOY_clean_sbu_1, # of connection points: 4
#     Node 12, Type 0, BuildingBlock: QUQFOY_clean_sbu_1, # of connection points: 4
#     Node 13, Type 0, BuildingBlock: QUQFOY_clean_sbu_1, # of connection points: 4
#     Node 14, Type 0, BuildingBlock: QUQFOY_clean_sbu_1, # of connection points: 4
#     Node 15, Type 0, BuildingBlock: QUQFOY_clean_sbu_1, # of connection points: 4
#     Node 16, Type 0, BuildingBlock: QUQFOY_clean_sbu_1, # of connection points: 4
#     Node 17, Type 0, BuildingBlock: QUQFOY_clean_sbu_1, # of connection points: 4
#     Node 18, Type 0, BuildingBlock: QUQFOY_clean_sbu_1, # of connection points: 4
#     Node 19, Type 0, BuildingBlock: QUQFOY_clean_sbu_1, # of connection points: 4
#     Node 20, Type 0, BuildingBlock: QUQFOY_clean_sbu_1, # of connection points: 4
#     Node 21, Type 0, BuildingBlock: QUQFOY_clean_sbu_1, # of connection points: 4
#     Node 22, Type 0, BuildingBlock: QUQFOY_clean_sbu_1, # of connection points: 4
#     Node 23, Type 0, BuildingBlock: QUQFOY_clean_sbu_1, # of connection points: 4
#     Node 24, Type 0, BuildingBlock: QUQFOY_clean_sbu_1, # of connection points: 4
#     Node 25, Type 0, BuildingBlock: QUQFOY_clean_sbu_1, # of connection points: 4
#     Node 26, Type 0, BuildingBlock: QUQFOY_clean_sbu_1, # of connection points: 4
#     Node 27, Type 0, BuildingBlock: QUQFOY_clean_sbu_1, # of connection points: 4
#     Node 28, Type 0, BuildingBlock: QUQFOY_clean_sbu_1, # of connection points: 4
#     Node 29, Type 0, BuildingBlock: QUQFOY_clean_sbu_1, # of connection points: 4
#     Node 30, Type 0, BuildingBlock: QUQFOY_clean_sbu_1, # of connection points: 4
#     Node 31, Type 0, BuildingBlock: QUQFOY_clean_sbu_1, # of connection points: 4
#     Edge 32, Type (0, 0), BuildingBlock: KIFKEQ_clean_linker_1, # of connection points: 2
#     Edge 33, Type (0, 0), BuildingBlock: KIFKEQ_clean_linker_1, # of connection points: 2
#     Edge 34, Type (0, 0), BuildingBlock: KIFKEQ_clean_linker_1, # of connection points: 2
#     Edge 35, Type (0, 0), BuildingBlock: KIFKEQ_clean_linker_1, # of connection points: 2
#     Edge 36, Type (0, 0), BuildingBlock: KIFKEQ_clean_linker_1, # of connection points: 2
#     Edge 37, Type (0, 0), BuildingBlock: KIFKEQ_clean_linker_1, # of connection points: 2
#     Edge 38, Type (0, 0), BuildingBlock: KIFKEQ_clean_linker_1, # of connection points: 2
#     Edge 39, Type (0, 0), BuildingBlock: KIFKEQ_clean_linker_1, # of connection points: 2
#     Edge 40, Type (0, 0), BuildingBlock: KIFKEQ_clean_linker_1, # of connection points: 2
#     Edge 41, Type (0, 0), BuildingBlock: KIFKEQ_clean_linker_1, # of connection points: 2
#     Edge 42, Type (0, 0), BuildingBlock: KIFKEQ_clean_linker_1, # of connection points: 2
#     Edge 43, Type (0, 0), BuildingBlock: KIFKEQ_clean_linker_1, # of connection points: 2
#     Edge 44, Type (0, 0), BuildingBlock: KIFKEQ_clean_linker_1, # of connection points: 2
#     Edge 45, Type (0, 0), BuildingBlock: KIFKEQ_clean_linker_1, # of connection points: 2
#     Edge 46, Type (0, 0), BuildingBlock: KIFKEQ_clean_linker_1, # of connection points: 2
#     Edge 47, Type (0, 0), BuildingBlock: KIFKEQ_clean_linker_1, # of connection points: 2
#     Edge 48, Type (0, 0), BuildingBlock: KIFKEQ_clean_linker_1, # of connection points: 2
#     Edge 49, Type (0, 0), BuildingBlock: KIFKEQ_clean_linker_1, # of connection points: 2
#     Edge 50, Type (0, 0), BuildingBlock: KIFKEQ_clean_linker_1, # of connection points: 2
#     Edge 51, Type (0, 0), BuildingBlock: KIFKEQ_clean_linker_1, # of connection points: 2
#     Edge 52, Type (0, 0), BuildingBlock: KIFKEQ_clean_linker_1, # of connection points: 2
#     Edge 53, Type (0, 0), BuildingBlock: KIFKEQ_clean_linker_1, # of connection points: 2
#     Edge 54, Type (0, 0), BuildingBlock: KIFKEQ_clean_linker_1, # of connection points: 2
#     Edge 55, Type (0, 0), BuildingBlock: KIFKEQ_clean_linker_1, # of connection points: 2
#     Edge 56, Type (0, 0), BuildingBlock: KIFKEQ_clean_linker_1, # of connection points: 2
#     Edge 57, Type (0, 0), BuildingBlock: KIFKEQ_clean_linker_1, # of connection points: 2
#     Edge 58, Type (0, 0), BuildingBlock: KIFKEQ_clean_linker_1, # of connection points: 2
#     Edge 59, Type (0, 0), BuildingBlock: KIFKEQ_clean_linker_1, # of connection points: 2
#     Edge 60, Type (0, 0), BuildingBlock: KIFKEQ_clean_linker_1, # of connection points: 2
#     Edge 61, Type (0, 0), BuildingBlock: KIFKEQ_clean_linker_1, # of connection points: 2
#     Edge 62, Type (0, 0), BuildingBlock: KIFKEQ_clean_linker_1, # of connection points: 2
#     Edge 63, Type (0, 0), BuildingBlock: KIFKEQ_clean_linker_1, # of connection points: 2
#     Edge 64, Type (0, 0), BuildingBlock: KIFKEQ_clean_linker_1, # of connection points: 2
#     Edge 65, Type (0, 0), BuildingBlock: KIFKEQ_clean_linker_1, # of connection points: 2
#     Edge 66, Type (0, 0), BuildingBlock: KIFKEQ_clean_linker_1, # of connection points: 2
#     Edge 67, Type (0, 0), BuildingBlock: KIFKEQ_clean_linker_1, # of connection points: 2
#     Edge 68, Type (0, 0), BuildingBlock: KIFKEQ_clean_linker_1, # of connection points: 2
#     Edge 69, Type (0, 0), BuildingBlock: KIFKEQ_clean_linker_1, # of connection points: 2
#     Edge 70, Type (0, 0), BuildingBlock: KIFKEQ_clean_linker_1, # of connection points: 2
#     Edge 71, Type (0, 0), BuildingBlock: KIFKEQ_clean_linker_1, # of connection points: 2
#     Edge 72, Type (0, 0), BuildingBlock: KIFKEQ_clean_linker_1, # of connection points: 2
#     Edge 73, Type (0, 0), BuildingBlock: KIFKEQ_clean_linker_1, # of connection points: 2
#     Edge 74, Type (0, 0), BuildingBlock: KIFKEQ_clean_linker_1, # of connection points: 2
#     Edge 75, Type (0, 0), BuildingBlock: KIFKEQ_clean_linker_1, # of connection points: 2
#     Edge 76, Type (0, 0), BuildingBlock: KIFKEQ_clean_linker_1, # of connection points: 2
#     Edge 77, Type (0, 0), BuildingBlock: KIFKEQ_clean_linker_1, # of connection points: 2
#     Edge 78, Type (0, 0), BuildingBlock: KIFKEQ_clean_linker_1, # of connection points: 2
#     Edge 79, Type (0, 0), BuildingBlock: KIFKEQ_clean_linker_1, # of connection points: 2
#     Edge 80, Type (0, 0), BuildingBlock: KIFKEQ_clean_linker_1, # of connection points: 2
#     Edge 81, Type (0, 0), BuildingBlock: KIFKEQ_clean_linker_1, # of connection points: 2
#     Edge 82, Type (0, 0), BuildingBlock: KIFKEQ_clean_linker_1, # of connection points: 2
#     Edge 83, Type (0, 0), BuildingBlock: KIFKEQ_clean_linker_1, # of connection points: 2
#     Edge 84, Type (0, 0), BuildingBlock: KIFKEQ_clean_linker_1, # of connection points: 2
#     Edge 85, Type (0, 0), BuildingBlock: KIFKEQ_clean_linker_1, # of connection points: 2
#     Edge 86, Type (0, 0), BuildingBlock: KIFKEQ_clean_linker_1, # of connection points: 2
#     Edge 87, Type (0, 0), BuildingBlock: KIFKEQ_clean_linker_1, # of connection points: 2
#     Edge 88, Type (0, 0), BuildingBlock: KIFKEQ_clean_linker_1, # of connection points: 2
#     Edge 89, Type (0, 0), BuildingBlock: KIFKEQ_clean_linker_1, # of connection points: 2
#     Edge 90, Type (0, 0), BuildingBlock: KIFKEQ_clean_linker_1, # of connection points: 2
#     Edge 91, Type (0, 0), BuildingBlock: KIFKEQ_clean_linker_1, # of connection points: 2
#     Edge 92, Type (0, 0), BuildingBlock: KIFKEQ_clean_linker_1, # of connection points: 2
#     Edge 93, Type (0, 0), BuildingBlock: KIFKEQ_clean_linker_1, # of connection points: 2
#     Edge 94, Type (0, 0), BuildingBlock: KIFKEQ_clean_linker_1, # of connection points: 2
#     Edge 95, Type (0, 0), BuildingBlock: KIFKEQ_clean_linker_1, # of connection points: 2
# Relax obj value: 0.057
# Max RMSD: 0.126
# Mean RMSD: 0.126
data_MOF--net-uos--node1-QUQFOY_clean_sbu_1--edge1-KIFKEQ_clean_linker_1
_symmetry_space_group_name_H-M    P1
_symmetry_Int_Tables_number       1
_symmetry_cell_setting            triclinic
loop_
_symmetry_equiv_pos_as_xyz
'x, y, z'
_cell_length_a     91.786095
_cell_length_b     91.78353
_cell_length_c     24.528215
_cell_angle_alpha  89.984433
_cell_angle_beta   90.00321
_cell_angle_gamma 90.006579
loop_
_atom_site_label
_atom_site_type_symbol
_atom_site_fract_x
_atom_site_fract_y
_atom_site_fract_z
_atom_type_partial_charge
O0 O 0.16318 0.13667 0.18315 0.0
Cd1 Cd 0.17511 0.14294 0.11587 0.0
Cd2 Cd 0.17242 0.16976 0.1679 0.0
O3 O 0.15676 0.15861 0.21083 0.0
O4 O 0.17336 0.12649 0.06301 0.0
O5 O 0.16374 0.14825 0.04831 0.0
C6 C 0.1656 0.13493 0.03268 0.0
C7 C 0.16872 0.19499 0.15752 0.0
C8 C 0.15587 0.14485 0.21478 0.0
C9 C 0.20201 0.15469 0.16489 0.0
O10 O 0.19364 0.16417 0.18596 0.0
O11 O 0.1972 0.14588 0.12916 0.0
O12 O 0.1716 0.18916 0.20391 0.0
O13 O 0.16764 0.18643 0.11599 0.0
O14 O 0.11336 0.91323 0.43545 0.0
Cd15 Cd 0.10736 0.92549 0.36869 0.0
Cd16 Cd 0.07993 0.92085 0.41695 0.0
O17 O 0.09156 0.90569 0.46071 0.0
O18 O 0.12478 0.92455 0.32003 0.0
O19 O 0.1035 0.91497 0.29782 0.0
C20 C 0.11708 0.91705 0.28616 0.0
C21 C 0.05498 0.91584 0.40509 0.0
C22 C 0.10533 0.90539 0.4658 0.0
C23 C 0.09331 0.9514 0.41733 0.0
O24 O 0.08403 0.94237 0.43562 0.0
O25 O 0.10308 0.9473 0.38388 0.0
O26 O 0.06049 0.91884 0.4519 0.0
O27 O 0.06373 0.91536 0.36395 0.0
O28 O 0.3391 0.86259 0.68373 0.0
Cd29 Cd 0.32641 0.85612 0.61878 0.0
Cd30 Cd 0.33106 0.82917 0.67108 0.0
O31 O 0.34658 0.84106 0.71217 0.0
O32 O 0.32673 0.87351 0.56984 0.0
O33 O 0.33644 0.85237 0.54677 0.0
C34 C 0.33407 0.86591 0.53524 0.0
C35 C 0.336 0.80423 0.65893 0.0
C36 C 0.34705 0.85487 0.7148 0.0
C37 C 0.30061 0.84264 0.67127 0.0
O38 O 0.30964 0.83354 0.69089 0.0
O39 O 0.30468 0.85195 0.63598 0.0
O40 O 0.33331 0.80975 0.70603 0.0
O41 O 0.33618 0.81297 0.61771 0.0
O42 O 0.39017 0.09567 0.93733 0.0
Cd43 Cd 0.39297 0.08043 0.87675 0.0
Cd44 Cd 0.42268 0.08218 0.91715 0.0
O45 O 0.413 0.09796 0.96435 0.0
O46 O 0.37481 0.08257 0.83263 0.0
O47 O 0.39677 0.08724 0.79984 0.0
C48 C 0.3828 0.08718 0.79301 0.0
C49 C 0.44774 0.08604 0.90308 0.0
C50 C 0.39967 0.10153 0.96789 0.0
C51 C 0.40583 0.05332 0.92549 0.0
O52 O 0.4172 0.06089 0.9341 0.0
O53 O 0.39486 0.05882 0.90119 0.0
O54 O 0.44243 0.08319 0.9503 0.0
O55 O 0.43884 0.08663 0.86246 0.0
O56 O 0.16146 0.86485 0.81677 0.0
Cd57 Cd 0.17378 0.858 0.88216 0.0
Cd58 Cd 0.16837 0.83135 0.83263 0.0
O59 O 0.15275 0.84342 0.79294 0.0
O60 O 0.1736 0.87512 0.93238 0.0
O61 O 0.16337 0.85404 0.95315 0.0
C62 C 0.16593 0.86747 0.96584 0.0
C63 C 0.16275 0.80672 0.84819 0.0
C64 C 0.15294 0.85717 0.78779 0.0
C65 C 0.19905 0.84384 0.82915 0.0
O66 O 0.18969 0.83509 0.80944 0.0
O67 O 0.19536 0.8531 0.86522 0.0
O68 O 0.16456 0.81187 0.79994 0.0
O69 O 0.16398 0.8156 0.88871 0.0
O70 O 0.3855 0.91223 0.06438 0.0
Cd71 Cd 0.39055 0.92499 0.13053 0.0
Cd72 Cd 0.41902 0.92149 0.08381 0.0
O73 O 0.40772 0.90651 0.03738 0.0
O74 O 0.37311 0.92331 0.1787 0.0
O75 O 0.39482 0.91496 0.20203 0.0
C76 C 0.38112 0.91638 0.21321 0.0
C77 C 0.44423 0.9172 0.09256 0.0
C78 C 0.39399 0.90521 0.03303 0.0
C79 C 0.40425 0.9517 0.08566 0.0
O80 O 0.41443 0.94323 0.07054 0.0
O81 O 0.39372 0.94689 0.11423 0.0
O82 O 0.43832 0.92073 0.04698 0.0
O83 O 0.43575 0.9157 0.13415 0.0
O84 O 0.34589 0.14021 0.31321 0.0
Cd85 Cd 0.33054 0.14245 0.37428 0.0
Cd86 Cd 0.33095 0.17161 0.32916 0.0
O87 O 0.34765 0.16293 0.28431 0.0
O88 O 0.33347 0.12422 0.41741 0.0
O89 O 0.3372 0.14619 0.45155 0.0
C90 C 0.33769 0.13221 0.45759 0.0
C91 C 0.33235 0.19694 0.34294 0.0
C92 C 0.35161 0.1497 0.28213 0.0
C93 C 0.30322 0.15308 0.32111 0.0
O94 O 0.31045 0.16442 0.30895 0.0
O95 O 0.30877 0.14311 0.35066 0.0
O96 O 0.32986 0.19132 0.29593 0.0
O97 O 0.33424 0.18814 0.38334 0.0
O98 O 0.11454 0.08927 0.56632 0.0
Cd99 Cd 0.1066 0.07764 0.63176 0.0
Cd100 Cd 0.081 0.08347 0.58111 0.0
O101 O 0.09351 0.0991 0.54355 0.0
O102 O 0.12243 0.07767 0.68756 0.0
O103 O 0.1015 0.08933 0.69858 0.0
C104 C 0.11439 0.08622 0.71644 0.0
C105 C 0.05647 0.08917 0.59755 0.0
C106 C 0.10724 0.09828 0.53797 0.0
C107 C 0.09262 0.05267 0.57755 0.0
O108 O 0.0845 0.06228 0.55591 0.0
O109 O 0.10127 0.05612 0.61595 0.0
O110 O 0.06157 0.08777 0.54902 0.0
O111 O 0.06538 0.08757 0.6378 0.0
O112 O 0.84012 0.8647 0.81483 0.0
Cd113 Cd 0.82646 0.86089 0.87903 0.0
Cd114 Cd 0.82814 0.83186 0.83608 0.0
O115 O 0.84331 0.84209 0.78661 0.0
O116 O 0.82861 0.87859 0.92531 0.0
O117 O 0.83535 0.85661 0.95239 0.0
C118 C 0.83462 0.87045 0.96179 0.0
C119 C 0.83203 0.80672 0.84837 0.0
C120 C 0.84609 0.85562 0.78285 0.0
C121 C 0.79892 0.84833 0.83586 0.0
O122 O 0.8064 0.83706 0.82484 0.0
O123 O 0.80468 0.85923 0.85947 0.0
O124 O 0.82807 0.81216 0.80246 0.0
O125 O 0.83405 0.81562 0.88837 0.0
O126 O 0.88926 0.08864 0.56914 0.0
Cd127 Cd 0.89369 0.07617 0.63617 0.0
Cd128 Cd 0.92258 0.07765 0.58986 0.0
O129 O 0.91154 0.0913 0.5367 0.0
O130 O 0.87575 0.07826 0.68143 0.0
O131 O 0.89733 0.08614 0.70828 0.0
C132 C 0.88351 0.08498 0.71728 0.0
C133 C 0.94756 0.08285 0.59986 0.0
C134 C 0.89795 0.09388 0.53399 0.0
C135 C 0.90699 0.04818 0.59869 0.0
O136 O 0.91813 0.05559 0.58534 0.0
O137 O 0.89601 0.05419 0.62087 0.0
O138 O 0.94219 0.07782 0.55533 0.0
O139 O 0.93869 0.08516 0.63972 0.0
O140 O 0.66168 0.13964 0.31802 0.0
Cd141 Cd 0.67412 0.14576 0.38415 0.0
Cd142 Cd 0.67047 0.17297 0.33004 0.0
O143 O 0.65509 0.16127 0.28743 0.0
O144 O 0.67327 0.12818 0.43211 0.0
O145 O 0.66388 0.14939 0.45592 0.0
C146 C 0.66599 0.13577 0.46686 0.0
C147 C 0.66627 0.19814 0.33954 0.0
C148 C 0.65426 0.14746 0.28548 0.0
C149 C 0.70059 0.15865 0.33409 0.0
O150 O 0.69195 0.16797 0.31356 0.0
O151 O 0.69603 0.14942 0.36881 0.0
O152 O 0.66922 0.19227 0.2933 0.0
O153 O 0.66533 0.18965 0.38132 0.0
O154 O 0.61147 0.90594 0.06008 0.0
Cd155 Cd 0.60635 0.92052 0.12117 0.0
Cd156 Cd 0.57862 0.9181 0.07073 0.0
O157 O 0.5892 0.90159 0.03045 0.0
O158 O 0.62369 0.91976 0.1702 0.0
O159 O 0.60185 0.91219 0.19546 0.0
C160 C 0.61553 0.91374 0.20655 0.0
C161 C 0.55368 0.91419 0.08643 0.0
C162 C 0.60278 0.89901 0.02921 0.0
C163 C 0.59445 0.94715 0.06587 0.0
O164 O 0.5842 0.93905 0.04862 0.0
O165 O 0.60385 0.94225 0.09936 0.0
O166 O 0.55887 0.91603 0.03825 0.0
O167 O 0.56267 0.91459 0.12686 0.0
O168 O 0.84061 0.13493 0.18779 0.0
Cd169 Cd 0.82768 0.14228 0.12489 0.0
Cd170 Cd 0.83322 0.16821 0.17663 0.0
O171 O 0.84964 0.1562 0.21186 0.0
O172 O 0.82749 0.12561 0.07284 0.0
O173 O 0.83759 0.14687 0.05353 0.0
C174 C 0.83494 0.13354 0.0396 0.0
C175 C 0.83798 0.19292 0.16025 0.0
C176 C 0.84957 0.14241 0.21562 0.0
C177 C 0.80273 0.15561 0.18228 0.0
O178 O 0.81223 0.16402 0.20305 0.0
O179 O 0.8062 0.14692 0.14403 0.0
O180 O 0.83702 0.18771 0.20878 0.0
O181 O 0.83647 0.18402 0.11993 0.0
O182 O 0.61525 0.08895 0.93798 0.0
Cd183 Cd 0.60952 0.07646 0.87138 0.0
Cd184 Cd 0.58227 0.07976 0.922 0.0
O185 O 0.59329 0.09558 0.96476 0.0
O186 O 0.6268 0.07804 0.82229 0.0
O187 O 0.60517 0.08687 0.80062 0.0
C188 C 0.61878 0.08524 0.78859 0.0
C189 C 0.55714 0.08346 0.90953 0.0
C190 C 0.60705 0.09649 0.96875 0.0
C191 C 0.59691 0.04985 0.92043 0.0
O192 O 0.58748 0.05844 0.94048 0.0
O193 O 0.60616 0.05444 0.88584 0.0
O194 O 0.5627 0.08076 0.95652 0.0
O195 O 0.56592 0.08445 0.86863 0.0
O196 O 0.65654 0.86025 0.68272 0.0
Cd197 Cd 0.67103 0.85824 0.61959 0.0
Cd198 Cd 0.67231 0.8286 0.66144 0.0
O199 O 0.65797 0.83794 0.71628 0.0
O200 O 0.66794 0.87623 0.57537 0.0
O201 O 0.66307 0.85414 0.54447 0.0
C202 C 0.66293 0.86808 0.53692 0.0
C203 C 0.66923 0.80333 0.64965 0.0
C204 C 0.65288 0.85081 0.71798 0.0
C205 C 0.70002 0.84708 0.65828 0.0
O206 O 0.69383 0.83488 0.666 0.0
O207 O 0.69291 0.85798 0.64047 0.0
O208 O 0.67406 0.80886 0.69419 0.0
O209 O 0.66594 0.81219 0.61071 0.0
O210 O 0.88789 0.90838 0.43245 0.0
Cd211 Cd 0.8936 0.92259 0.37208 0.0
Cd212 Cd 0.92148 0.91852 0.41896 0.0
O213 O 0.90988 0.90306 0.46261 0.0
O214 O 0.87624 0.92258 0.32337 0.0
O215 O 0.89781 0.91435 0.29756 0.0
C216 C 0.88416 0.91633 0.28682 0.0
C217 C 0.946 0.91278 0.40248 0.0
C218 C 0.89616 0.90122 0.46402 0.0
C219 C 0.90724 0.94855 0.42482 0.0
O220 O 0.91782 0.94025 0.43727 0.0
O221 O 0.89658 0.94385 0.39674 0.0
O222 O 0.94115 0.91529 0.45072 0.0
O223 O 0.93689 0.91343 0.36247 0.0
O224 O 0.66316 0.63586 0.68605 0.0
Cd225 Cd 0.67612 0.6414 0.62109 0.0
Cd226 Cd 0.67181 0.66934 0.66504 0.0
O227 O 0.65636 0.65805 0.70913 0.0
O228 O 0.67501 0.62418 0.57175 0.0
O229 O 0.66627 0.64584 0.54957 0.0
C230 C 0.66799 0.63223 0.53759 0.0
C231 C 0.66644 0.69407 0.65011 0.0
C232 C 0.65546 0.64433 0.71505 0.0
C233 C 0.70221 0.65552 0.66913 0.0
O234 O 0.69345 0.66549 0.68399 0.0
O235 O 0.69782 0.64511 0.63913 0.0
O236 O 0.66902 0.68895 0.69789 0.0
O237 O 0.66679 0.68511 0.60962 0.0
O238 O 0.61311 0.41404 0.93262 0.0
Cd239 Cd 0.60788 0.42648 0.86592 0.0
Cd240 Cd 0.57954 0.42247 0.91041 0.0
O241 O 0.59091 0.408 0.95882 0.0
O242 O 0.62542 0.42509 0.81823 0.0
O243 O 0.60392 0.41623 0.79472 0.0
C244 C 0.6176 0.41793 0.78377 0.0
C245 C 0.55461 0.41731 0.89894 0.0
C246 C 0.60465 0.407 0.96399 0.0
C247 C 0.59341 0.453 0.90881 0.0
O248 O 0.58329 0.44438 0.92336 0.0
O249 O 0.60421 0.44831 0.88151 0.0
O250 O 0.56002 0.4211 0.94506 0.0
O251 O 0.56345 0.41604 0.85833 0.0
O252 O 0.84362 0.35934 0.18615 0.0
Cd253 Cd 0.82881 0.35627 0.12373 0.0
Cd254 Cd 0.82962 0.32736 0.17202 0.0
O255 O 0.84551 0.33696 0.21849 0.0
O256 O 0.83145 0.37447 0.08012 0.0
O257 O 0.83621 0.35256 0.04734 0.0
C258 C 0.83627 0.36653 0.04076 0.0
C259 C 0.83242 0.3021 0.15937 0.0
C260 C 0.84921 0.35028 0.21928 0.0
C261 C 0.80123 0.34495 0.17385 0.0
O262 O 0.80861 0.33387 0.18796 0.0
O263 O 0.80688 0.35497 0.14481 0.0
O264 O 0.82913 0.30767 0.2058 0.0
O265 O 0.83423 0.31091 0.11895 0.0
O266 O 0.8911 0.59485 0.44036 0.0
Cd267 Cd 0.89317 0.57974 0.37837 0.0
Cd268 Cd 0.92204 0.57858 0.42751 0.0
O269 O 0.91339 0.59493 0.4743 0.0
O270 O 0.87496 0.58332 0.33574 0.0
O271 O 0.89695 0.58663 0.3013 0.0
C272 C 0.88298 0.58748 0.29557 0.0
C273 C 0.94736 0.58028 0.41334 0.0
C274 C 0.9004 0.59967 0.47425 0.0
C275 C 0.90258 0.55146 0.42923 0.0
O276 O 0.9142 0.55799 0.44329 0.0
O277 O 0.893 0.55784 0.40019 0.0
O278 O 0.94186 0.57699 0.45992 0.0
O279 O 0.93845 0.5826 0.37358 0.0
O280 O 0.66033 0.36577 0.31387 0.0
Cd281 Cd 0.67317 0.35901 0.37791 0.0
Cd282 Cd 0.66887 0.33253 0.32444 0.0
O283 O 0.65266 0.34423 0.28657 0.0
O284 O 0.67288 0.37618 0.4278 0.0
O285 O 0.66329 0.35491 0.4499 0.0
C286 C 0.66562 0.36841 0.4621 0.0
C287 C 0.66419 0.30766 0.33877 0.0
C288 C 0.65214 0.35803 0.28383 0.0
C289 C 0.69896 0.34637 0.32264 0.0
O290 O 0.69001 0.33741 0.30156 0.0
O291 O 0.69486 0.35508 0.35994 0.0
O292 O 0.66582 0.31303 0.29075 0.0
O293 O 0.66514 0.31643 0.37972 0.0
O294 O 0.88802 0.40631 0.56184 0.0
Cd295 Cd 0.89039 0.4213 0.62411 0.0
Cd296 Cd 0.91911 0.42185 0.57604 0.0
O297 O 0.91048 0.40538 0.52982 0.0
O298 O 0.8724 0.41778 0.66801 0.0
O299 O 0.89455 0.41415 0.70052 0.0
C300 C 0.88061 0.4134 0.7073 0.0
C301 C 0.94438 0.42031 0.59097 0.0
C302 C 0.89735 0.40108 0.52895 0.0
C303 C 0.90016 0.4493 0.573 0.0
O304 O 0.91155 0.44243 0.55867 0.0
O305 O 0.89055 0.44327 0.60285 0.0
O306 O 0.93895 0.42328 0.544 0.0
O307 O 0.93542 0.4181 0.63065 0.0
O308 O 0.84579 0.63987 0.81671 0.0
Cd309 Cd 0.83081 0.64317 0.87783 0.0
Cd310 Cd 0.833 0.6726 0.83594 0.0
O311 O 0.84852 0.66254 0.78848 0.0
O312 O 0.83276 0.6251 0.92257 0.0
O313 O 0.838 0.64705 0.95418 0.0
C314 C 0.8377 0.63311 0.96158 0.0
C315 C 0.83724 0.69755 0.8507 0.0
C316 C 0.8518 0.64913 0.78551 0.0
C317 C 0.80376 0.6564 0.82995 0.0
O318 O 0.81153 0.66756 0.8201 0.0
O319 O 0.80915 0.64542 0.85454 0.0
O320 O 0.8343 0.69239 0.80331 0.0
O321 O 0.83781 0.68853 0.89099 0.0
O322 O 0.61358 0.5914 0.06806 0.0
Cd323 Cd 0.60735 0.57844 0.13203 0.0
Cd324 Cd 0.57991 0.58377 0.08506 0.0
O325 O 0.59187 0.59898 0.04216 0.0
O326 O 0.6248 0.57843 0.18047 0.0
O327 O 0.6037 0.58802 0.20479 0.0
C328 C 0.61726 0.58559 0.21575 0.0
C329 C 0.5553 0.58949 0.10079 0.0
C330 C 0.60565 0.59938 0.03794 0.0
C331 C 0.59281 0.55305 0.08034 0.0
O332 O 0.58325 0.56218 0.06468 0.0
O333 O 0.60303 0.55698 0.11213 0.0
O334 O 0.56035 0.58729 0.05263 0.0
O335 O 0.5643 0.58869 0.14111 0.0
O336 O 0.3418 0.36402 0.31131 0.0
Cd337 Cd 0.32746 0.35922 0.37361 0.0
Cd338 Cd 0.32997 0.33124 0.32673 0.0
O339 O 0.34635 0.3415 0.2849 0.0
O340 O 0.32857 0.37663 0.42213 0.0
O341 O 0.33611 0.35476 0.44734 0.0
C342 C 0.33472 0.36847 0.45821 0.0
C343 C 0.33386 0.30632 0.34268 0.0
C344 C 0.34876 0.35508 0.28154 0.0
C345 C 0.30084 0.34689 0.32044 0.0
O346 O 0.30902 0.3366 0.30419 0.0
O347 O 0.30565 0.35655 0.35304 0.0
O348 O 0.33192 0.31148 0.29454 0.0
O349 O 0.33357 0.31533 0.38303 0.0
O350 O 0.38825 0.58999 0.06834 0.0
Cd351 Cd 0.39237 0.57684 0.13384 0.0
Cd352 Cd 0.42131 0.57838 0.0887 0.0
O353 O 0.41065 0.5928 0.03737 0.0
O354 O 0.37452 0.57894 0.17958 0.0
O355 O 0.39629 0.58621 0.20682 0.0
C356 C 0.38245 0.58526 0.2159 0.0
C357 C 0.44636 0.58305 0.10018 0.0
C358 C 0.3971 0.59553 0.03446 0.0
C359 C 0.4052 0.54905 0.09268 0.0
O360 O 0.41643 0.55647 0.08052 0.0
O361 O 0.39431 0.55496 0.11591 0.0
O362 O 0.44101 0.57852 0.05487 0.0
O363 O 0.43743 0.58513 0.14005 0.0
O364 O 0.16303 0.63903 0.81504 0.0
Cd365 Cd 0.1752 0.6441 0.88264 0.0
Cd366 Cd 0.17194 0.67268 0.83635 0.0
O367 O 0.15782 0.66125 0.78657 0.0
O368 O 0.17356 0.6264 0.92954 0.0
O369 O 0.1647 0.64784 0.95363 0.0
C370 C 0.16633 0.63413 0.96409 0.0
C371 C 0.16667 0.69764 0.84674 0.0
C372 C 0.15649 0.64751 0.78226 0.0
C373 C 0.20226 0.65844 0.84243 0.0
O374 O 0.19394 0.66871 0.82692 0.0
O375 O 0.19715 0.64764 0.86876 0.0
O376 O 0.17093 0.69219 0.80124 0.0
O377 O 0.16505 0.68883 0.88729 0.0
O378 O 0.11174 0.40998 0.56626 0.0
Cd379 Cd 0.10685 0.42374 0.63031 0.0
Cd380 Cd 0.07872 0.42128 0.58258 0.0
O381 O 0.08933 0.40567 0.53784 0.0
O382 O 0.12432 0.42239 0.67864 0.0
O383 O 0.10255 0.41451 0.70332 0.0
C384 C 0.11626 0.41591 0.71421 0.0
C385 C 0.05374 0.41708 0.59659 0.0
C386 C 0.10294 0.40341 0.53472 0.0
C387 C 0.09414 0.45065 0.5801 0.0
O388 O 0.08385 0.4425 0.56361 0.0
O389 O 0.10399 0.44568 0.61162 0.0
O390 O 0.05908 0.41953 0.54907 0.0
O391 O 0.06261 0.41692 0.63738 0.0
O392 O 0.3417 0.63696 0.6862 0.0
Cd393 Cd 0.3283 0.64368 0.62422 0.0
Cd394 Cd 0.33405 0.67071 0.67193 0.0
O395 O 0.34977 0.65854 0.71143 0.0
O396 O 0.32797 0.62671 0.57356 0.0
O397 O 0.33758 0.64801 0.55152 0.0
C398 C 0.33505 0.63456 0.53895 0.0
C399 C 0.33988 0.69521 0.65518 0.0
C400 C 0.35014 0.64474 0.71504 0.0
C401 C 0.30332 0.65806 0.67919 0.0
O402 O 0.31261 0.66743 0.69505 0.0
O403 O 0.307 0.64805 0.6461 0.0
O404 O 0.33818 0.69022 0.70372 0.0
O405 O 0.33845 0.68623 0.61505 0.0
O406 O 0.11487 0.59107 0.43439 0.0
Cd407 Cd 0.10799 0.57817 0.37063 0.0
Cd408 Cd 0.08171 0.5828 0.42432 0.0
O409 O 0.09344 0.59925 0.46081 0.0
O410 O 0.125 0.5784 0.31996 0.0
O411 O 0.1037 0.58806 0.29877 0.0
C412 C 0.11715 0.58569 0.28598 0.0
C413 C 0.05672 0.58685 0.41039 0.0
C414 C 0.10724 0.59954 0.46378 0.0
C415 C 0.09537 0.55266 0.42735 0.0
O416 O 0.08668 0.56182 0.44865 0.0
O417 O 0.10391 0.55651 0.3891 0.0
O418 O 0.06225 0.58571 0.45835 0.0
O419 O 0.06545 0.58598 0.36927 0.0
O420 O 0.15753 0.36231 0.18783 0.0
Cd421 Cd 0.17121 0.35752 0.12344 0.0
Cd422 Cd 0.1693 0.32943 0.1733 0.0
O423 O 0.15377 0.34 0.21851 0.0
O424 O 0.16984 0.37524 0.07635 0.0
O425 O 0.16201 0.35361 0.04999 0.0
C426 C 0.16342 0.36737 0.0401 0.0
C427 C 0.16517 0.30445 0.15878 0.0
C428 C 0.15128 0.35359 0.22058 0.0
C429 C 0.19842 0.34526 0.17352 0.0
O430 O 0.19051 0.33491 0.19107 0.0
O431 O 0.19321 0.35489 0.14162 0.0
O432 O 0.16775 0.30968 0.20638 0.0
O433 O 0.16489 0.31341 0.11825 0.0
O434 O 0.38838 0.40767 0.93274 0.0
Cd435 Cd 0.39182 0.42224 0.8708 0.0
Cd436 Cd 0.42106 0.42122 0.91132 0.0
O437 O 0.41092 0.40688 0.96395 0.0
O438 O 0.37399 0.4206 0.82471 0.0
O439 O 0.3959 0.41424 0.79579 0.0
C440 C 0.38204 0.41506 0.78697 0.0
C441 C 0.44567 0.41577 0.89511 0.0
C442 C 0.39769 0.4029 0.96653 0.0
C443 C 0.40481 0.45009 0.91408 0.0
O444 O 0.41655 0.44304 0.92192 0.0
O445 O 0.39365 0.44391 0.89376 0.0
O446 O 0.44104 0.41981 0.94212 0.0
O447 O 0.43635 0.41489 0.8559 0.0
H448 H 0.29389 0.1635 0.224 0.0
H449 H 0.27946 0.13888 0.36404 0.0
H450 H 0.26951 0.16202 0.18473 0.0
H451 H 0.25478 0.13778 0.32499 0.0
H452 H 0.2118 0.16285 0.26473 0.0
H453 H 0.23628 0.16026 0.30219 0.0
H454 H 0.25077 0.1408 0.1516 0.0
H455 H 0.22602 0.14301 0.11413 0.0
C456 C 0.28549 0.15774 0.24636 0.0
C457 C 0.28852 0.15139 0.29732 0.0
C458 C 0.27159 0.15681 0.2236 0.0
C459 C 0.26034 0.14978 0.25181 0.0
C460 C 0.26334 0.14325 0.3025 0.0
C461 C 0.2774 0.14386 0.32476 0.0
C462 C 0.22018 0.158 0.23949 0.0
C463 C 0.21702 0.15324 0.18624 0.0
C464 C 0.23413 0.15638 0.26124 0.0
C465 C 0.24532 0.15025 0.22989 0.0
C466 C 0.24226 0.14552 0.17657 0.0
C467 C 0.22816 0.14681 0.15516 0.0
H468 H 0.08117 0.96069 0.51218 0.0
H469 H 0.10548 0.97608 0.37266 0.0
H470 H 0.08158 0.98511 0.55117 0.0
H471 H 0.10555 0.00074 0.41164 0.0
H472 H 0.08359 0.04421 0.47667 0.0
H473 H 0.08442 0.01985 0.43679 0.0
H474 H 0.10255 0.00293 0.58623 0.0
H475 H 0.10205 0.02743 0.62612 0.0
C476 C 0.08651 0.96931 0.48956 0.0
C477 C 0.09324 0.96646 0.43912 0.0
C478 C 0.08683 0.98326 0.51221 0.0
C479 C 0.09364 0.99475 0.4845 0.0
C480 C 0.10022 0.99202 0.43372 0.0
C481 C 0.10018 0.97795 0.41149 0.0
C482 C 0.08772 0.0353 0.50118 0.0
C483 C 0.09268 0.03773 0.55473 0.0
C484 C 0.08831 0.0214 0.47809 0.0
C485 C 0.09359 0.00957 0.50839 0.0
C486 C 0.09841 0.01191 0.5621 0.0
C487 C 0.09812 0.0259 0.58487 0.0
H488 H 0.22408 0.85429 0.87644 0.0
H489 H 0.20787 0.83343 0.73065 0.0
H490 H 0.24871 0.85434 0.83746 0.0
H491 H 0.23233 0.83382 0.6916 0.0
H492 H 0.27597 0.8541 0.62411 0.0
H493 H 0.25129 0.85471 0.66269 0.0
H494 H 0.26683 0.83294 0.80732 0.0
H495 H 0.2913 0.83198 0.7687 0.0
C496 C 0.22576 0.84976 0.83617 0.0
C497 C 0.21405 0.84377 0.80681 0.0
C498 C 0.23982 0.84978 0.81393 0.0
C499 C 0.24235 0.84414 0.76146 0.0
C500 C 0.23064 0.83833 0.73192 0.0
C501 C 0.21667 0.83801 0.75455 0.0
C502 C 0.27409 0.8494 0.664 0.0
C503 C 0.28556 0.84291 0.69315 0.0
C504 C 0.26 0.84975 0.68601 0.0
C505 C 0.25723 0.84393 0.73805 0.0
C506 C 0.26871 0.83759 0.76734 0.0
C507 C 0.28269 0.83695 0.74494 0.0
H508 H 0.38277 0.03403 0.92566 0.0
H509 H 0.42768 0.0385 0.9762 0.0
H510 H 0.38206 0.00966 0.9664 0.0
H511 H 0.42683 0.01454 0.0175 0.0
H512 H 0.42588 0.96535 0.02943 0.0
H513 H 0.42568 0.9895 0.98961 0.0
H514 H 0.38279 0.99714 0.05615 0.0
H515 H 0.38282 0.97259 0.09543 0.0
C516 C 0.39249 0.02983 0.9452 0.0
C517 C 0.4053 0.03822 0.94729 0.0
C518 C 0.39203 0.01593 0.96902 0.0
C519 C 0.40439 0.01014 0.9952 0.0
C520 C 0.41717 0.01855 0.99704 0.0
C521 C 0.41763 0.03236 0.97339 0.0
C522 C 0.4164 0.97215 0.03604 0.0
C523 C 0.40437 0.967 0.06588 0.0
C524 C 0.41632 0.98607 0.01325 0.0
C525 C 0.40423 0.99529 0.01969 0.0
C526 C 0.39221 0.99024 0.04994 0.0
C527 C 0.39229 0.97624 0.07294 0.0
H528 H 0.77965 0.82606 0.82439 0.0
H529 H 0.78435 0.87235 0.79938 0.0
H530 H 0.75596 0.82668 0.78024 0.0
H531 H 0.76106 0.87293 0.75163 0.0
H532 H 0.71242 0.87069 0.7073 0.0
H533 H 0.73591 0.8716 0.75363 0.0
H534 H 0.74555 0.82815 0.69545 0.0
H535 H 0.72168 0.827 0.65275 0.0
C536 C 0.77555 0.83639 0.80944 0.0
C537 C 0.7838 0.84915 0.81542 0.0
C538 C 0.76205 0.83674 0.78329 0.0
C539 C 0.75661 0.8498 0.76094 0.0
C540 C 0.76473 0.86268 0.7685 0.0
C541 C 0.77811 0.86237 0.79594 0.0
C542 C 0.71971 0.86146 0.70382 0.0
C543 C 0.71525 0.84876 0.67663 0.0
C544 C 0.7332 0.86195 0.73045 0.0
C545 C 0.74265 0.84984 0.72947 0.0
C546 C 0.73845 0.8375 0.69907 0.0
C547 C 0.72484 0.8369 0.67373 0.0
H548 H 0.92983 0.96743 0.43847 0.0
H549 H 0.88363 0.96281 0.46484 0.0
H550 H 0.92933 0.99121 0.48211 0.0
H551 H 0.88316 0.98593 0.513 0.0
H552 H 0.88378 0.03412 0.5549 0.0
H553 H 0.88362 0.01044 0.5108 0.0
H554 H 0.92833 0.00364 0.56136 0.0
H555 H 0.92868 0.02795 0.60089 0.0
C556 C 0.91957 0.97154 0.45395 0.0
C557 C 0.90676 0.96339 0.44787 0.0
C558 C 0.91927 0.98511 0.47986 0.0
C559 C 0.90622 0.99064 0.50216 0.0
C560 C 0.89339 0.98236 0.49571 0.0
C561 C 0.89363 0.96902 0.46818 0.0
C562 C 0.89348 0.02742 0.55711 0.0
C563 C 0.90623 0.03281 0.58133 0.0
C564 C 0.89342 0.01376 0.53185 0.0
C565 C 0.90602 0.00495 0.53159 0.0
C566 C 0.91854 0.01016 0.55872 0.0
C567 C 0.91871 0.02402 0.58235 0.0
H568 H 0.71093 0.16959 0.23863 0.0
H569 H 0.72453 0.14614 0.38273 0.0
H570 H 0.73559 0.16803 0.20223 0.0
H571 H 0.74943 0.14488 0.3463 0.0
H572 H 0.79405 0.16496 0.28257 0.0
H573 H 0.76946 0.16492 0.32069 0.0
H574 H 0.7529 0.14639 0.17138 0.0
H575 H 0.77761 0.14612 0.13332 0.0
C576 C 0.71921 0.16419 0.26278 0.0
C577 C 0.71578 0.15804 0.31376 0.0
C578 C 0.73329 0.16321 0.24163 0.0
C579 C 0.74435 0.15629 0.27136 0.0
C580 C 0.74105 0.15029 0.32266 0.0
C581 C 0.72684 0.151 0.34343 0.0
C582 C 0.78518 0.16086 0.25781 0.0
C583 C 0.78775 0.15561 0.20477 0.0
C584 C 0.77114 0.16074 0.27987 0.0
C585 C 0.75933 0.15564 0.24899 0.0
C586 C 0.76185 0.15041 0.19593 0.0
C587 C 0.77596 0.15024 0.17423 0.0
H588 H 0.58744 0.03987 0.01841 0.0
H589 H 0.60775 0.02556 0.86882 0.0
H590 H 0.58817 0.015 0.05342 0.0
H591 H 0.6081 1.00045 0.90376 0.0
H592 H 0.5841 0.95749 0.96937 0.0
H593 H 0.58606 0.9822 0.93294 0.0
H594 H 0.6094 0.99559 0.07713 0.0
H595 H 0.6078 0.9707 0.11331 0.0
C596 C 0.59201 0.0314 0.99288 0.0
C597 C 0.59747 0.03465 0.94067 0.0
C598 C 0.59252 0.0172 0.01318 0.0
C599 C 0.59822 0.00587 0.98133 0.0
C600 C 0.60365 0.00904 0.92904 0.0
C601 C 0.60346 0.02337 0.90913 0.0
C602 C 0.58968 0.96568 0.99332 0.0
C603 C 0.59572 0.96218 0.04441 0.0
C604 C 0.5909 0.97977 0.97219 0.0
C605 C 0.59791 0.99073 0.00219 0.0
C606 C 0.60395 0.98728 0.05327 0.0
C607 C 0.60303 0.97308 0.07391 0.0
H608 H 0.71519 0.67673 0.73009 0.0
H609 H 0.72347 0.6346 0.65775 0.0
H610 H 0.73927 0.6765 0.77099 0.0
H611 H 0.74784 0.63452 0.69821 0.0
H612 H 0.78448 0.63338 0.82811 0.0
H613 H 0.76 0.63298 0.78841 0.0
H614 H 0.7645 0.67827 0.74369 0.0
H615 H 0.78864 0.67878 0.78384 0.0
C616 C 0.72219 0.66746 0.72242 0.0
C617 C 0.71737 0.6557 0.69039 0.0
C618 C 0.73605 0.66735 0.74584 0.0
C619 C 0.7455 0.65549 0.73794 0.0
C620 C 0.74075 0.64375 0.70563 0.0
C621 C 0.72685 0.64386 0.68198 0.0
C622 C 0.78018 0.64328 0.81026 0.0
C623 C 0.78854 0.65612 0.80936 0.0
C624 C 0.76621 0.64301 0.78704 0.0
C625 C 0.7603 0.65559 0.76278 0.0
C626 C 0.76863 0.66843 0.76257 0.0
C627 C 0.78253 0.6687 0.7855 0.0
H628 H 0.57052 0.46717 0.95571 0.0
H629 H 0.61546 0.47326 0.90821 0.0
H630 H 0.57043 0.4911 0.99807 0.0
H631 H 0.61527 0.49743 0.95028 0.0
H632 H 0.61377 0.53179 0.08826 0.0
H633 H 0.61391 0.50794 0.04385 0.0
H634 H 0.57158 0.51691 0.97462 0.0
H635 H 0.57132 0.54055 0.01929 0.0
C636 C 0.58035 0.47369 0.95367 0.0
C637 C 0.59301 0.46827 0.92853 0.0
C638 C 0.58027 0.48744 0.97791 0.0
C639 C 0.59286 0.49614 0.97784 0.0
C640 C 0.60545 0.4909 0.95164 0.0
C641 C 0.60551 0.47712 0.92702 0.0
C642 C 0.60443 0.5286 0.06402 0.0
C643 C 0.59252 0.53809 0.0575 0.0
C644 C 0.60459 0.51501 0.03809 0.0
C645 C 0.59279 0.51057 0.00544 0.0
C646 C 0.58079 0.51994 0.9998 0.0
C647 C 0.58066 0.53353 0.0254 0.0
H648 H 0.7235 0.35649 0.37396 0.0
H649 H 0.70835 0.33813 0.222 0.0
H650 H 0.74836 0.35741 0.33725 0.0
H651 H 0.73306 0.33943 0.1852 0.0
H652 H 0.77801 0.35958 0.12857 0.0
H653 H 0.75302 0.36099 0.16462 0.0
H654 H 0.76591 0.33536 0.30396 0.0
H655 H 0.79058 0.33358 0.2677 0.0
C656 C 0.72545 0.35275 0.33273 0.0
C657 C 0.71401 0.34711 0.30106 0.0
C658 C 0.73964 0.35329 0.31178 0.0
C659 C 0.74254 0.34857 0.25835 0.0
C660 C 0.73106 0.34325 0.2263 0.0
C661 C 0.71697 0.34239 0.24762 0.0
C662 C 0.77547 0.35429 0.16688 0.0
C663 C 0.7862 0.34638 0.19506 0.0
C664 C 0.76123 0.35508 0.18741 0.0
C665 C 0.75764 0.34832 0.23712 0.0
C666 C 0.76845 0.34074 0.26579 0.0
C667 C 0.78252 0.33965 0.24474 0.0
H668 H 0.88683 0.4726 0.62264 0.0
H669 H 0.90867 0.45953 0.47458 0.0
H670 H 0.88524 0.4977 0.58766 0.0
H671 H 0.90663 0.48433 0.4393 0.0
H672 H 0.88735 0.52907 0.38132 0.0
H673 H 0.88445 0.5041 0.41632 0.0
H674 H 0.90859 0.51573 0.56079 0.0
H675 H 0.91192 0.54037 0.52544 0.0
C676 C 0.89106 0.47504 0.58243 0.0
C677 C 0.898 0.46419 0.55154 0.0
C678 C 0.89014 0.48934 0.56248 0.0
C679 C 0.89574 0.49284 0.51072 0.0
C680 C 0.90211 0.48185 0.47906 0.0
C681 C 0.90338 0.46772 0.4995 0.0
C682 C 0.89195 0.52628 0.42063 0.0
C683 C 0.89999 0.53659 0.45038 0.0
C684 C 0.89027 0.51206 0.44062 0.0
C685 C 0.89622 0.50811 0.49137 0.0
C686 C 0.90379 0.51857 0.52186 0.0
C687 C 0.90579 0.53261 0.50132 0.0
H688 H 0.29106 0.33668 0.22316 0.0
H689 H 0.27682 0.35934 0.36803 0.0
H690 H 0.26633 0.33781 0.18644 0.0
H691 H 0.25188 0.36005 0.33158 0.0
H692 H 0.20896 0.33516 0.26976 0.0
H693 H 0.23371 0.33714 0.30537 0.0
H694 H 0.24698 0.35983 0.15958 0.0
H695 H 0.22196 0.35827 0.12417 0.0
C696 C 0.28263 0.34188 0.24722 0.0
C697 C 0.28584 0.34785 0.29867 0.0
C698 C 0.26854 0.34262 0.22594 0.0
C699 C 0.25729 0.34905 0.25616 0.0
C700 C 0.26043 0.35506 0.30755 0.0
C701 C 0.27465 0.35465 0.32834 0.0
C702 C 0.21713 0.34061 0.24522 0.0
C703 C 0.21355 0.34649 0.19396 0.0
C704 C 0.23125 0.34183 0.26589 0.0
C705 C 0.24217 0.34868 0.23527 0.0
C706 C 0.23868 0.35452 0.1839 0.0
C707 C 0.22442 0.35362 0.16372 0.0
H708 H 0.42719 0.52929 0.0851 0.0
H709 H 0.38126 0.53483 0.05436 0.0
H710 H 0.42645 0.50542 0.04221 0.0
H711 H 0.38059 0.51147 0.00751 0.0
H712 H 0.38143 0.46333 0.96119 0.0
H713 H 0.38106 0.48659 0.00889 0.0
H714 H 0.42567 0.49433 0.95923 0.0
H715 H 0.42621 0.47058 0.91545 0.0
C716 C 0.41691 0.52533 0.06919 0.0
C717 C 0.40428 0.53385 0.07329 0.0
C718 C 0.41649 0.51172 0.04371 0.0
C719 C 0.40352 0.50647 0.02001 0.0
C720 C 0.39078 0.51492 0.02559 0.0
C721 C 0.39113 0.52837 0.0525 0.0
C722 C 0.39107 0.47014 0.96004 0.0
C723 C 0.40385 0.46518 0.9347 0.0
C724 C 0.39089 0.48352 0.98741 0.0
C725 C 0.40341 0.49243 0.98895 0.0
C726 C 0.41595 0.48768 0.9609 0.0
C727 C 0.41623 0.47413 0.93492 0.0
H728 H 0.29128 0.67916 0.74352 0.0
H729 H 0.28165 0.63761 0.66881 0.0
H730 H 0.26745 0.6791 0.78703 0.0
H731 H 0.25767 0.63767 0.71211 0.0
H732 H 0.22201 0.63595 0.84368 0.0
H733 H 0.24657 0.63587 0.80481 0.0
H734 H 0.24176 0.68118 0.76095 0.0
H735 H 0.21741 0.68134 0.80003 0.0
C736 C 0.28405 0.67005 0.73602 0.0
C737 C 0.28839 0.6584 0.70248 0.0
C738 C 0.27036 0.67004 0.76094 0.0
C739 C 0.26068 0.65836 0.75323 0.0
C740 C 0.26496 0.64674 0.71945 0.0
C741 C 0.27865 0.64678 0.69419 0.0
C742 C 0.22629 0.64595 0.82646 0.0
C743 C 0.21773 0.65865 0.82497 0.0
C744 C 0.24029 0.64585 0.80368 0.0
C745 C 0.24607 0.65849 0.77945 0.0
C746 C 0.23768 0.67129 0.77961 0.0
C747 C 0.22369 0.67136 0.80194 0.0
H748 H 0.08235 0.46097 0.48618 0.0
H749 H 0.10795 0.47435 0.62531 0.0
H750 H 0.0838 0.48557 0.44903 0.0
H751 H 0.10905 0.49922 0.5883 0.0
H752 H 0.08721 0.54373 0.52865 0.0
H753 H 0.08808 0.51913 0.5665 0.0
H754 H 0.10546 0.50302 0.41464 0.0
H755 H 0.10494 0.52777 0.37683 0.0
C756 C 0.08823 0.46919 0.50903 0.0
C757 C 0.09498 0.46574 0.55889 0.0
C758 C 0.08913 0.48323 0.48745 0.0
C759 C 0.09656 0.49423 0.51572 0.0
C760 C 0.10325 0.49088 0.56579 0.0
C761 C 0.10263 0.47669 0.58688 0.0
C762 C 0.09125 0.53496 0.50328 0.0
C763 C 0.09593 0.53767 0.44959 0.0
C764 C 0.09185 0.52092 0.52518 0.0
C765 C 0.09687 0.50923 0.49351 0.0
C766 C 0.10154 0.51188 0.43981 0.0
C767 C 0.10125 0.52602 0.41825 0.0
H768 H 0.13897 0.14236 0.99186 0.0
H769 H 0.17563 0.11396 0.96413 0.0
H770 H 0.1256 0.13034 0.91877 0.0
H771 H 0.16294 0.10268 0.88816 0.0
H772 H 0.13363 0.07457 0.78855 0.0
H773 H 0.1454 0.08657 0.8651 0.0
H774 H 0.12158 0.12612 0.8287 0.0
H775 H 0.109 0.11354 0.75505 0.0
C776 C 0.1443 0.13377 0.96903 0.0
C777 C 0.15831 0.12906 0.98364 0.0
C778 C 0.13665 0.12686 0.92686 0.0
C779 C 0.143 0.1153 0.89729 0.0
C780 C 0.15735 0.11113 0.91074 0.0
C781 C 0.16478 0.11774 0.95389 0.0
C782 C 0.13077 0.08576 0.79769 0.0
C783 C 0.12037 0.09311 0.76611 0.0
C784 C 0.13769 0.09278 0.84117 0.0
C785 C 0.13477 0.10753 0.85312 0.0
C786 C 0.12408 0.11475 0.8218 0.0
C787 C 0.11684 0.10756 0.7793 0.0
H788 H 0.17001 0.89522 0.00263 0.0
H789 H 0.14696 0.8554 0.03977 0.0
H790 H 0.15794 0.90731 0.07838 0.0
H791 H 0.13502 0.86749 0.11659 0.0
H792 H 0.10473 0.89859 0.21111 0.0
H793 H 0.11675 0.88637 0.13478 0.0
H794 H 0.15721 0.90766 0.17656 0.0
H795 H 0.14519 0.92002 0.25183 0.0
C796 C 0.16249 0.88898 0.02737 0.0
C797 C 0.15948 0.87431 0.01511 0.0
C798 C 0.15558 0.89592 0.071 0.0
C799 C 0.14546 0.88841 0.1036 0.0
C800 C 0.1426 0.87367 0.09186 0.0
C801 C 0.14955 0.86669 0.04817 0.0
C802 C 0.11615 0.90076 0.20364 0.0
C803 C 0.12397 0.91034 0.23749 0.0
C804 C 0.12309 0.89364 0.16023 0.0
C805 C 0.13798 0.89598 0.14957 0.0
C806 C 0.14571 0.90571 0.18309 0.0
C807 C 0.1388 0.91279 0.22643 0.0
H808 H 0.35302 0.9187 0.24831 0.0
H809 H 0.39409 0.89831 0.28814 0.0
H810 H 0.34148 0.90614 0.32422 0.0
H811 H 0.38251 0.88585 0.36497 0.0
H812 H 0.32962 0.89367 0.49929 0.0
H813 H 0.34126 0.90598 0.42305 0.0
H814 H 0.36448 0.86647 0.3831 0.0
H815 H 0.35293 0.85414 0.46028 0.0
C816 C 0.35964 0.91164 0.27361 0.0
C817 C 0.3745 0.90955 0.26217 0.0
C818 C 0.35301 0.90445 0.3173 0.0
C819 C 0.36104 0.89494 0.35069 0.0
C820 C 0.37596 0.89295 0.33963 0.0
C821 C 0.38263 0.9002 0.29593 0.0
C822 C 0.33712 0.88754 0.47407 0.0
C823 C 0.34031 0.87289 0.48588 0.0
C824 C 0.34378 0.89461 0.43019 0.0
C825 C 0.35385 0.88724 0.39696 0.0
C826 C 0.35692 0.87252 0.40831 0.0
C827 C 0.35019 0.86541 0.45221 0.0
H828 H 0.39512 0.09056 0.69191 0.0
H829 H 0.35517 0.09746 0.78133 0.0
H830 H 0.38386 0.10133 0.61053 0.0
H831 H 0.34416 0.10857 0.7006 0.0
H832 H 0.34029 0.14419 0.55959 0.0
H833 H 0.35108 0.1329 0.64092 0.0
H834 H 0.36009 0.09392 0.54873 0.0
H835 H 0.34898 0.10495 0.46804 0.0
C836 C 0.38396 0.09435 0.69416 0.0
C837 C 0.37601 0.0931 0.74289 0.0
C838 C 0.37754 0.1005 0.64769 0.0
C839 C 0.36319 0.10583 0.64958 0.0
C840 C 0.35527 0.10462 0.69827 0.0
C841 C 0.36155 0.09817 0.74426 0.0
C842 C 0.34449 0.13318 0.55686 0.0
C843 C 0.34372 0.12543 0.50755 0.0
C844 C 0.35063 0.12674 0.60329 0.0
C845 C 0.35645 0.11259 0.60082 0.0
C846 C 0.35575 0.10488 0.55153 0.0
C847 C 0.34931 0.11117 0.50554 0.0
H848 H 0.85195 0.85732 0.03848 0.0
H849 H 0.83258 0.89867 0.99562 0.0
H850 H 0.86429 0.86887 0.11557 0.0
H851 H 0.84498 0.91018 0.07206 0.0
H852 H 0.85662 0.92131 0.24976 0.0
H853 H 0.8445 0.91008 0.17213 0.0
H854 H 0.88408 0.88702 0.13206 0.0
H855 H 0.89624 0.8982 0.21036 0.0
C856 C 0.85024 0.86883 0.04571 0.0
C857 C 0.84125 0.87706 0.011 0.0
C858 C 0.85743 0.87548 0.08951 0.0
C859 C 0.85568 0.89046 0.09974 0.0
C860 C 0.84648 0.8986 0.06556 0.0
C861 C 0.83938 0.89199 0.02166 0.0
C862 C 0.8628 0.91396 0.22414 0.0
C863 C 0.87741 0.91066 0.23624 0.0
C864 C 0.85585 0.90754 0.17955 0.0
C865 C 0.8633 0.89759 0.14611 0.0
C866 C 0.878 0.89449 0.15753 0.0
C867 C 0.885 0.90101 0.20202 0.0
H868 H 0.85435 0.14582 0.96785 0.0
H869 H 0.82987 0.10644 0.99834 0.0
H870 H 0.86613 0.13411 0.88984 0.0
H871 H 0.84175 0.09474 0.9213 0.0
H872 H 0.85496 0.08329 0.74728 0.0
H873 H 0.84288 0.0956 0.82257 0.0
H874 H 0.88393 0.1145 0.87179 0.0
H875 H 0.89604 0.10231 0.79556 0.0
C876 C 0.85138 0.13473 0.95765 0.0
C877 C 0.84114 0.12708 0.98927 0.0
C878 C 0.85825 0.12797 0.91331 0.0
C879 C 0.85494 0.11346 0.89947 0.0
C880 C 0.84446 0.10596 0.93044 0.0
C881 C 0.83766 0.11268 0.97476 0.0
C882 C 0.86146 0.09 0.77426 0.0
C883 C 0.87649 0.09177 0.76545 0.0
C884 C 0.85452 0.09704 0.81758 0.0
C885 C 0.86242 0.10606 0.85321 0.0
C886 C 0.87749 0.10777 0.84466 0.0
C887 C 0.88446 0.10068 0.80131 0.0
H888 H 0.6467 0.08252 0.75193 0.0
H889 H 0.60589 0.1038 0.7151 0.0
H890 H 0.6582 0.09507 0.67593 0.0
H891 H 0.61741 0.11625 0.63812 0.0
H892 H 0.66981 0.10778 0.50122 0.0
H893 H 0.65806 0.09547 0.57722 0.0
H894 H 0.63574 0.13532 0.61955 0.0
H895 H 0.64739 0.14766 0.54255 0.0
C896 C 0.64012 0.08977 0.72727 0.0
C897 C 0.62534 0.09211 0.73958 0.0
C898 C 0.64672 0.09696 0.68351 0.0
C899 C 0.63875 0.10671 0.65089 0.0
C900 C 0.62392 0.10896 0.66284 0.0
C901 C 0.61728 0.10171 0.70662 0.0
C902 C 0.66248 0.11398 0.52687 0.0
C903 C 0.65958 0.12873 0.51582 0.0
C904 C 0.65576 0.10691 0.57062 0.0
C905 C 0.64593 0.11438 0.60452 0.0
C906 C 0.64312 0.12919 0.59383 0.0
C907 C 0.6499 0.1363 0.55004 0.0
H908 H 0.64669 0.85475 0.45742 0.0
H909 H 0.66443 0.89648 0.50468 0.0
H910 H 0.63485 0.8662 0.37893 0.0
H911 H 0.6526 0.90786 0.42657 0.0
H912 H 0.6428 0.91878 0.24638 0.0
H913 H 0.65436 0.90765 0.32555 0.0
H914 H 0.61468 0.88422 0.36091 0.0
H915 H 0.60305 0.89536 0.28132 0.0
C916 C 0.64815 0.86633 0.45086 0.0
C917 C 0.65653 0.87469 0.48722 0.0
C918 C 0.64126 0.87291 0.40623 0.0
C919 C 0.64274 0.88795 0.3967 0.0
C920 C 0.65133 0.89624 0.43256 0.0
C921 C 0.65809 0.8897 0.4774 0.0
C922 C 0.63648 0.91136 0.27126 0.0
C923 C 0.62199 0.90797 0.25756 0.0
C924 C 0.64311 0.905 0.31672 0.0
C925 C 0.63547 0.895 0.34933 0.0
C926 C 0.6209 0.89176 0.33616 0.0
C927 C 0.6142 0.89824 0.29091 0.0
H928 H 0.67078 0.60431 0.501 0.0
H929 H 0.64973 0.64519 0.46342 0.0
H930 H 0.6582 0.5928 0.42506 0.0
H931 H 0.63726 0.63367 0.38656 0.0
H932 H 0.60555 0.60403 0.29222 0.0
H933 H 0.61805 0.61547 0.36918 0.0
H934 H 0.65764 0.59276 0.32628 0.0
H935 H 0.64516 0.5812 0.25025 0.0
C936 C 0.66359 0.6109 0.47614 0.0
C937 C 0.66129 0.62569 0.48828 0.0
C938 C 0.65639 0.60429 0.43246 0.0
C939 C 0.64667 0.61228 0.39979 0.0
C940 C 0.64452 0.62714 0.41139 0.0
C941 C 0.65178 0.63379 0.45509 0.0
C942 C 0.61688 0.60137 0.29961 0.0
C943 C 0.62433 0.59166 0.26515 0.0
C944 C 0.62408 0.60804 0.34337 0.0
C945 C 0.63888 0.60509 0.35377 0.0
C946 C 0.64622 0.59518 0.31983 0.0
C947 C 0.63905 0.58857 0.27609 0.0
H948 H 0.64576 0.42055 0.74977 0.0
H949 H 0.60502 0.39972 0.70845 0.0
H950 H 0.65763 0.40814 0.67425 0.0
H951 H 0.61691 0.38743 0.63197 0.0
H952 H 0.64689 0.35625 0.53664 0.0
H953 H 0.63516 0.3683 0.61404 0.0
H954 H 0.65807 0.40811 0.57555 0.0
H955 H 0.6699 0.39608 0.49915 0.0
C956 C 0.63929 0.41343 0.72423 0.0
C957 C 0.62442 0.41117 0.73512 0.0
C958 C 0.6461 0.40633 0.68077 0.0
C959 C 0.63825 0.39675 0.64706 0.0
C960 C 0.62333 0.39459 0.65759 0.0
C961 C 0.61648 0.40174 0.70108 0.0
C962 C 0.64953 0.36753 0.54512 0.0
C963 C 0.65937 0.37518 0.51178 0.0
C964 C 0.6427 0.37448 0.58912 0.0
C965 C 0.64562 0.3892 0.60089 0.0
C966 C 0.65567 0.39673 0.56807 0.0
C967 C 0.66244 0.38982 0.5241 0.0
H968 H 0.89301 0.4103 0.80846 0.0
H969 H 0.85358 0.4016 0.71802 0.0
H970 H 0.88213 0.39892 0.88945 0.0
H971 H 0.84297 0.3899 0.79831 0.0
H972 H 0.83989 0.35444 0.93938 0.0
H973 H 0.85068 0.36597 0.85852 0.0
H974 H 0.85793 0.40537 0.95037 0.0
H975 H 0.84681 0.3941 0.03056 0.0
C976 C 0.88206 0.40596 0.80588 0.0
C977 C 0.87412 0.40692 0.75701 0.0
C978 C 0.87585 0.39947 0.85212 0.0
C979 C 0.86176 0.39349 0.84984 0.0
C980 C 0.85388 0.39435 0.80094 0.0
C981 C 0.85993 0.40113 0.7552 0.0
C982 C 0.84372 0.36558 0.94215 0.0
C983 C 0.84242 0.37339 0.99118 0.0
C984 C 0.84987 0.37216 0.89598 0.0
C985 C 0.85518 0.38651 0.89848 0.0
C986 C 0.854 0.39426 0.94756 0.0
C987 C 0.84754 0.38783 0.99325 0.0
H988 H 0.89479 0.58991 0.19321 0.0
H989 H 0.85599 0.59946 0.28622 0.0
H990 H 0.88351 0.60091 0.11225 0.0
H991 H 0.84499 0.61078 0.2059 0.0
H992 H 0.84176 0.64561 0.06202 0.0
H993 H 0.85268 0.63434 0.14313 0.0
H994 H 0.85881 0.59431 0.05396 0.0
H995 H 0.84756 0.60534 0.97355 0.0
C996 C 0.88389 0.59436 0.19636 0.0
C997 C 0.87625 0.59376 0.24595 0.0
C998 C 0.87746 0.60062 0.15014 0.0
C999 C 0.86343 0.60672 0.15311 0.0
C1000 C 0.85585 0.60622 0.20272 0.0
C1001 C 0.86212 0.59966 0.24849 0.0
C1002 C 0.84534 0.63438 0.05992 0.0
C1003 C 0.84373 0.62634 0.01155 0.0
C1004 C 0.85157 0.62795 0.10622 0.0
C1005 C 0.85663 0.6135 0.1045 0.0
C1006 C 0.85508 0.60549 0.05615 0.0
C1007 C 0.84854 0.61179 0.01035 0.0
H1008 H 0.35283 0.35572 0.53326 0.0
H1009 H 0.33072 0.39609 0.49642 0.0
H1010 H 0.36444 0.36727 0.61197 0.0
H1011 H 0.34235 0.40759 0.57462 0.0
H1012 H 0.35388 0.41797 0.75311 0.0
H1013 H 0.34217 0.40644 0.67513 0.0
H1014 H 0.38309 0.38665 0.62976 0.0
H1015 H 0.39486 0.39815 0.70824 0.0
C1016 C 0.35035 0.367 0.54221 0.0
C1017 C 0.34083 0.37497 0.50862 0.0
C1018 C 0.35711 0.37366 0.58696 0.0
C1019 C 0.35438 0.38837 0.59936 0.0
C1020 C 0.34461 0.39622 0.56643 0.0
C1021 C 0.33796 0.38962 0.52152 0.0
C1022 C 0.36043 0.41125 0.72632 0.0
C1023 C 0.37532 0.409 0.73687 0.0
C1024 C 0.35371 0.40466 0.68154 0.0
C1025 C 0.36167 0.39557 0.64639 0.0
C1026 C 0.37661 0.39345 0.6565 0.0
C1027 C 0.38338 0.40016 0.70113 0.0
H1028 H 0.35409 0.64657 0.46531 0.0
H1029 H 0.32983 0.60728 0.49955 0.0
H1030 H 0.3656 0.63455 0.38743 0.0
H1031 H 0.34143 0.59527 0.42249 0.0
H1032 H 0.35402 0.5835 0.24745 0.0
H1033 H 0.34219 0.59587 0.3232 0.0
H1034 H 0.38341 0.61476 0.37034 0.0
H1035 H 0.39528 0.60248 0.2938 0.0
C1036 C 0.35111 0.63543 0.45595 0.0
C1037 C 0.34101 0.6279 0.4886 0.0
C1038 C 0.35782 0.62849 0.41169 0.0
C1039 C 0.3545 0.61392 0.39893 0.0
C1040 C 0.34415 0.60654 0.43085 0.0
C1041 C 0.33751 0.61343 0.47516 0.0
C1042 C 0.36061 0.59021 0.27412 0.0
C1043 C 0.37561 0.59196 0.2646 0.0
C1044 C 0.35381 0.59729 0.31767 0.0
C1045 C 0.36183 0.60635 0.35275 0.0
C1046 C 0.37688 0.60801 0.34362 0.0
C1047 C 0.38371 0.60086 0.3001 0.0
H1048 H 0.14818 0.64656 0.03997 0.0
H1049 H 0.16871 0.60582 0.99678 0.0
H1050 H 0.13592 0.63454 0.11626 0.0
H1051 H 0.15633 0.59381 0.07211 0.0
H1052 H 0.14466 0.58126 0.24746 0.0
H1053 H 0.15653 0.59313 0.17074 0.0
H1054 H 0.11676 0.61636 0.13458 0.0
H1055 H 0.10488 0.60459 0.21228 0.0
C1056 C 0.15013 0.63507 0.04686 0.0
C1057 C 0.15948 0.62718 0.01238 0.0
C1058 C 0.14299 0.62814 0.09025 0.0
C1059 C 0.1451 0.61319 0.10026 0.0
C1060 C 0.15457 0.60537 0.06602 0.0
C1061 C 0.16165 0.61226 0.02267 0.0
C1062 C 0.13838 0.5888 0.22294 0.0
C1063 C 0.1238 0.59195 0.23603 0.0
C1064 C 0.14519 0.59559 0.17878 0.0
C1065 C 0.13763 0.60575 0.14652 0.0
C1066 C 0.12296 0.60874 0.15903 0.0
C1067 C 0.11611 0.60188 0.20322 0.0
H1068 H 0.10348 0.39779 0.78933 0.0
H1069 H 0.1441 0.41927 0.75114 0.0
H1070 H 0.11508 0.38587 0.86732 0.0
H1071 H 0.15566 0.4073 0.82847 0.0
H1072 H 0.16684 0.3954 0.00539 0.0
H1073 H 0.15516 0.40735 0.92825 0.0
H1074 H 0.1339 0.36696 0.88553 0.0
H1075 H 0.14552 0.35498 0.96333 0.0
C1076 C 0.11484 0.40006 0.79778 0.0
C1077 C 0.12284 0.40952 0.76405 0.0
C1078 C 0.12152 0.39312 0.84214 0.0
C1079 C 0.13632 0.39558 0.854 0.0
C1080 C 0.14422 0.40525 0.82082 0.0
C1081 C 0.13758 0.41209 0.77635 0.0
C1082 C 0.15976 0.38901 0.97939 0.0
C1083 C 0.15714 0.37421 0.99052 0.0
C1084 C 0.15308 0.39587 0.93503 0.0
C1085 C 0.14355 0.38813 0.90078 0.0
C1086 C 0.14104 0.37328 0.91153 0.0
C1087 C 0.14781 0.36638 0.95579 0.0
H1088 H 0.15485 0.28564 0.23417 0.0
H1089 H 0.17068 0.28751 0.06863 0.0
H1090 H 0.15395 0.25925 0.22931 0.0
H1091 H 0.17043 0.26079 0.06432 0.0
H1092 H 0.15952 0.21129 0.06938 0.0
H1093 H 0.15676 0.23788 0.06507 0.0
H1094 H 0.17221 0.24116 0.23107 0.0
H1095 H 0.17447 0.21497 0.23584 0.0
C1096 C 0.15811 0.28036 0.19658 0.0
C1097 C 0.16302 0.2886 0.15204 0.0
C1098 C 0.15769 0.26521 0.19386 0.0
C1099 C 0.16248 0.25784 0.14691 0.0
C1100 C 0.16666 0.26611 0.10111 0.0
C1101 C 0.16685 0.28139 0.10357 0.0
C1102 C 0.16224 0.21775 0.10489 0.0
C1103 C 0.16708 0.21101 0.1531 0.0
C1104 C 0.16072 0.23297 0.10237 0.0
C1105 C 0.16405 0.24168 0.14798 0.0
C1106 C 0.16913 0.23484 0.19562 0.0
C1107 C 0.17053 0.21975 0.19824 0.0
H1108 H 0.96415 0.89938 0.4731 0.0
H1109 H 0.96314 0.91969 0.31447 0.0
H1110 H 0.99053 0.89772 0.46829 0.0
H1111 H 0.98983 0.9187 0.31051 0.0
H1112 H 0.03918 0.90814 0.31371 0.0
H1113 H 0.01267 0.9049 0.30729 0.0
H1114 H 0.00864 0.91581 0.47804 0.0
H1115 H 0.03473 0.91856 0.4847 0.0
C1116 C 0.96961 0.9034 0.43694 0.0
C1117 C 0.96165 0.90983 0.39449 0.0
C1118 C 0.98475 0.90254 0.43428 0.0
C1119 C 0.99236 0.90844 0.38967 0.0
C1120 C 0.98433 0.91405 0.34546 0.0
C1121 C 0.96906 0.91466 0.34773 0.0
C1122 C 0.03258 0.90971 0.34982 0.0
C1123 C 0.03908 0.91351 0.39977 0.0
C1124 C 0.01741 0.90792 0.34611 0.0
C1125 C 0.00851 0.90991 0.3923 0.0
C1126 C 0.01512 0.91378 0.44192 0.0
C1127 C 0.03015 0.91548 0.44565 0.0
H1128 H 0.33411 0.78394 0.73887 0.0
H1129 H 0.34299 0.78848 0.5667 0.0
H1130 H 0.337 0.75786 0.73184 0.0
H1131 H 0.34636 0.76201 0.55985 0.0
H1132 H 0.33204 0.7124 0.56839 0.0
H1133 H 0.33275 0.73909 0.56466 0.0
H1134 H 0.35512 0.73984 0.71971 0.0
H1135 H 0.35378 0.71344 0.72434 0.0
C1136 C 0.33687 0.77938 0.69947 0.0
C1137 C 0.33837 0.78833 0.65338 0.0
C1138 C 0.33865 0.76436 0.69551 0.0
C1139 C 0.34213 0.75779 0.64541 0.0
C1140 C 0.34365 0.76671 0.59903 0.0
C1141 C 0.34179 0.78186 0.60299 0.0
C1142 C 0.33731 0.71832 0.60107 0.0
C1143 C 0.34264 0.71091 0.64706 0.0
C1144 C 0.33776 0.7336 0.59894 0.0
C1145 C 0.34369 0.74165 0.6425 0.0
C1146 C 0.35005 0.73405 0.68626 0.0
C1147 C 0.34938 0.7189 0.68878 0.0
H1148 H 0.46612 0.0966 0.97919 0.0
H1149 H 0.46508 0.08055 0.81388 0.0
H1150 H 0.4925 0.09772 0.97592 0.0
H1151 H 0.49183 0.08101 0.81119 0.0
H1152 H 0.54128 0.09248 0.81998 0.0
H1153 H 0.51469 0.09495 0.81346 0.0
H1154 H 0.5106 0.07944 0.97914 0.0
H1155 H 0.53677 0.07748 0.9861 0.0
C1156 C 0.47158 0.09334 0.94199 0.0
C1157 C 0.46358 0.08829 0.89707 0.0
C1158 C 0.48673 0.09388 0.94018 0.0
C1159 C 0.49434 0.08909 0.8938 0.0
C1160 C 0.48631 0.08478 0.84756 0.0
C1161 C 0.47102 0.08447 0.84909 0.0
C1162 C 0.53464 0.08969 0.85494 0.0
C1163 C 0.54115 0.08495 0.90374 0.0
C1164 C 0.51942 0.09104 0.85114 0.0
C1165 C 0.51049 0.08762 0.89605 0.0
C1166 C 0.5171 0.0826 0.94423 0.0
C1167 C 0.53217 0.08138 0.94812 0.0
H1168 H 0.16926 0.78955 0.93668 0.0
H1169 H 0.15018 0.78838 0.77588 0.0
H1170 H 0.16844 0.76285 0.94055 0.0
H1171 H 0.1488 0.76198 0.78044 0.0
H1172 H 0.17026 0.71787 0.76743 0.0
H1173 H 0.16732 0.74397 0.77338 0.0
H1174 H 0.15433 0.73997 0.94207 0.0
H1175 H 0.15769 0.71346 0.93641 0.0
C1176 C 0.16456 0.7836 0.90283 0.0
C1177 C 0.16001 0.79098 0.8556 0.0
C1178 C 0.16405 0.76833 0.90506 0.0
C1179 C 0.15885 0.76025 0.8603 0.0
C1180 C 0.15329 0.76781 0.81498 0.0
C1181 C 0.154 0.78296 0.81245 0.0
C1182 C 0.16669 0.72246 0.80586 0.0
C1183 C 0.16417 0.71354 0.85141 0.0
C1184 C 0.16489 0.73749 0.80916 0.0
C1185 C 0.16039 0.74411 0.85801 0.0
C1186 C 0.15784 0.73522 0.90386 0.0
C1187 C 0.15969 0.72005 0.90056 0.0
H1188 H 0.46392 0.92258 0.01287 0.0
H1189 H 0.46083 0.90807 0.18007 0.0
H1190 H 0.49012 0.92044 0.01654 0.0
H1191 H 0.48745 0.90546 0.18329 0.0
H1192 H 0.53692 0.92016 0.17669 0.0
H1193 H 0.51022 0.91963 0.1822 0.0
H1194 H 0.50836 0.9022 0.01866 0.0
H1195 H 0.53472 0.90333 0.01258 0.0
C1196 C 0.46883 0.91875 0.0504 0.0
C1197 C 0.46024 0.9154 0.09609 0.0
C1198 C 0.48393 0.91743 0.05238 0.0
C1199 C 0.49094 0.91255 0.09994 0.0
C1200 C 0.4824 0.90927 0.14604 0.0
C1201 C 0.46716 0.91069 0.14413 0.0
C1202 C 0.53074 0.91607 0.14231 0.0
C1203 C 0.53785 0.91203 0.09387 0.0
C1204 C 0.51547 0.91571 0.14549 0.0
C1205 C 0.50711 0.91116 0.10043 0.0
C1206 C 0.51439 0.9062 0.05353 0.0
C1207 C 0.52953 0.90677 0.05011 0.0
H1208 H 0.32439 0.217 0.26785 0.0
H1209 H 0.34146 0.21317 0.43142 0.0
H1210 H 0.32589 0.24324 0.27372 0.0
H1211 H 0.34333 0.23986 0.43685 0.0
H1212 H 0.32825 0.28957 0.43344 0.0
H1213 H 0.3286 0.26283 0.43861 0.0
H1214 H 0.3451 0.26099 0.27377 0.0
H1215 H 0.34427 0.28736 0.26813 0.0
C1216 C 0.32856 0.22177 0.30511 0.0
C1217 C 0.33295 0.21297 0.34897 0.0
C1218 C 0.32951 0.23686 0.30834 0.0
C1219 C 0.33502 0.24366 0.35533 0.0
C1220 C 0.33906 0.23493 0.40005 0.0
C1221 C 0.33803 0.21968 0.39689 0.0
C1222 C 0.33212 0.28339 0.39873 0.0
C1223 C 0.33598 0.29049 0.35005 0.0
C1224 C 0.33235 0.26811 0.4017 0.0
C1225 C 0.33656 0.25979 0.35615 0.0
C1226 C 0.34137 0.26705 0.30902 0.0
C1227 C 0.34096 0.28218 0.30586 0.0
H1228 H 0.96329 0.09288 0.68818 0.0
H1229 H 0.96781 0.07881 0.52091 0.0
H1230 H 0.98973 0.09686 0.69296 0.0
H1231 H 0.99384 0.08245 0.526 0.0
H1232 H 0.03764 0.10121 0.52551 0.0
H1233 H 0.01123 0.10193 0.53097 0.0
H1234 H 0.013 0.0829 0.69196 0.0
H1235 H 0.03969 0.08265 0.68708 0.0
C1236 C 0.96989 0.09068 0.65252 0.0
C1237 C 0.96343 0.0856 0.60411 0.0
C1238 C 0.98501 0.09289 0.65533 0.0
C1239 C 0.99389 0.09015 0.60967 0.0
C1240 C 0.98734 0.08503 0.56156 0.0
C1241 C 0.97236 0.08282 0.55878 0.0
C1242 C 0.03242 0.0974 0.56248 0.0
C1243 C 0.0407 0.09168 0.60555 0.0
C1244 C 0.01727 0.09774 0.56552 0.0
C1245 C 0.00997 0.09215 0.61137 0.0
C1246 C 0.01828 0.0873 0.65608 0.0
C1247 C 0.03355 0.08712 0.65327 0.0
H1248 H 0.83227 0.71446 0.94143 0.0
H1249 H 0.84709 0.71636 0.77456 0.0
H1250 H 0.83226 0.7412 0.94535 0.0
H1251 H 0.84764 0.74276 0.77894 0.0
H1252 H 0.8254 0.78622 0.77307 0.0
H1253 H 0.82828 0.76011 0.77916 0.0
H1254 H 0.84601 0.76453 0.94152 0.0
H1255 H 0.84271 0.79107 0.93589 0.0
C1256 C 0.83585 0.72059 0.90613 0.0
C1257 C 0.83943 0.71339 0.85739 0.0
C1258 C 0.83587 0.73587 0.90836 0.0
C1259 C 0.83963 0.74413 0.86202 0.0
C1260 C 0.84425 0.73678 0.81483 0.0
C1261 C 0.84402 0.72163 0.81238 0.0
C1262 C 0.82996 0.78172 0.81016 0.0
C1263 C 0.83393 0.79077 0.85384 0.0
C1264 C 0.83171 0.76669 0.81351 0.0
C1265 C 0.83763 0.76021 0.86046 0.0
C1266 C 0.84142 0.7692 0.90478 0.0
C1267 C 0.83959 0.78437 0.90148 0.0
H1268 H 0.6708 0.21799 0.25951 0.0
H1269 H 0.6581 0.21459 0.42865 0.0
H1270 H 0.66884 0.24421 0.26431 0.0
H1271 H 0.65564 0.2412 0.43309 0.0
H1272 H 0.67056 0.29044 0.42735 0.0
H1273 H 0.66978 0.26375 0.43134 0.0
H1274 H 0.65112 0.26277 0.26958 0.0
H1275 H 0.65251 0.28915 0.26492 0.0
C1276 C 0.6674 0.22284 0.29772 0.0
C1277 C 0.66453 0.21416 0.34363 0.0
C1278 C 0.66617 0.23794 0.30037 0.0
C1279 C 0.66186 0.24487 0.34888 0.0
C1280 C 0.65903 0.23622 0.39513 0.0
C1281 C 0.66036 0.22099 0.39253 0.0
C1282 C 0.66614 0.28446 0.39306 0.0
C1283 C 0.66182 0.29183 0.34549 0.0
C1284 C 0.66564 0.26919 0.39536 0.0
C1285 C 0.66067 0.26107 0.35032 0.0
C1286 C 0.65544 0.26861 0.30437 0.0
C1287 C 0.65615 0.28376 0.30179 0.0
H1288 H 0.82682 0.28179 0.2367 0.0
H1289 H 0.84149 0.2862 0.0701 0.0
H1290 H 0.8297 0.25565 0.23106 0.0
H1291 H 0.8447 0.25965 0.06478 0.0
H1292 H 0.83098 0.20956 0.07075 0.0
H1293 H 0.83068 0.23627 0.06573 0.0
H1294 H 0.84949 0.23847 0.22698 0.0
H1295 H 0.84936 0.21206 0.23254 0.0
C1296 C 0.83076 0.27718 0.19881 0.0
C1297 C 0.83404 0.28611 0.15396 0.0
C1298 C 0.83251 0.26215 0.19571 0.0
C1299 C 0.83769 0.25556 0.14778 0.0
C1300 C 0.84071 0.26441 0.10229 0.0
C1301 C 0.83891 0.27959 0.10539 0.0
C1302 C 0.83526 0.21581 0.10463 0.0
C1303 C 0.83997 0.20876 0.15239 0.0
C1304 C 0.83511 0.23108 0.10174 0.0
C1305 C 0.83977 0.23949 0.14645 0.0
C1306 C 0.84544 0.23233 0.19245 0.0
C1307 C 0.84544 0.21718 0.19553 0.0
H1308 H 0.6563 0.71279 0.7262 0.0
H1309 H 0.67072 0.71097 0.55879 0.0
H1310 H 0.65519 0.73918 0.72122 0.0
H1311 H 0.67006 0.7377 0.5542 0.0
H1312 H 0.67701 0.78303 0.72431 0.0
H1313 H 0.67458 0.75685 0.71896 0.0
H1314 H 0.65537 0.76074 0.55882 0.0
H1315 H 0.6581 0.78735 0.56375 0.0
C1316 C 0.65914 0.71806 0.68811 0.0
C1317 C 0.66381 0.70985 0.64314 0.0
C1318 C 0.65857 0.7332 0.68532 0.0
C1319 C 0.66288 0.74057 0.63774 0.0
C1320 C 0.66668 0.73234 0.59146 0.0
C1321 C 0.66709 0.71706 0.59409 0.0
C1322 C 0.67222 0.7784 0.68786 0.0
C1323 C 0.66766 0.78732 0.64459 0.0
C1324 C 0.67074 0.76333 0.68495 0.0
C1325 C 0.66455 0.75669 0.63885 0.0
C1326 C 0.66017 0.76554 0.59492 0.0
C1327 C 0.66169 0.78076 0.59782 0.0
H1328 H 0.53426 0.42147 0.97722 0.0
H1329 H 0.53888 0.40835 0.80892 0.0
H1330 H 0.50816 0.41901 0.97043 0.0
H1331 H 0.51232 0.40538 0.80248 0.0
H1332 H 0.46291 0.42102 0.80569 0.0
H1333 H 0.48961 0.41953 0.80217 0.0
H1334 H 0.48988 0.40102 0.96426 0.0
H1335 H 0.46354 0.40325 0.96852 0.0
C1336 C 0.52971 0.41785 0.93878 0.0
C1337 C 0.53869 0.41504 0.89367 0.0
C1338 C 0.51467 0.41632 0.935 0.0
C1339 C 0.50809 0.41177 0.88613 0.0
C1340 C 0.51704 0.40893 0.8407 0.0
C1341 C 0.53223 0.41056 0.84445 0.0
C1342 C 0.46875 0.41643 0.84002 0.0
C1343 C 0.46127 0.41249 0.88774 0.0
C1344 C 0.48401 0.41553 0.83802 0.0
C1345 C 0.49193 0.41048 0.88348 0.0
C1346 C 0.4842 0.40542 0.92922 0.0
C1347 C 0.46909 0.4066 0.93159 0.0
H1348 H 0.96788 0.57289 0.48779 0.0
H1349 H 0.9631 0.59039 0.32522 0.0
H1350 H 0.99404 0.5757 0.4817 0.0
H1351 H 0.98965 0.59353 0.31951 0.0
H1352 H 0.03747 0.59617 0.48643 0.0
H1353 H 0.01106 0.59565 0.48209 0.0
H1354 H 0.01318 0.57986 0.31637 0.0
H1355 H 0.03989 0.5808 0.3203 0.0
C1356 C 0.97242 0.5774 0.45068 0.0
C1357 C 0.96337 0.58153 0.40716 0.0
C1358 C 0.98746 0.57911 0.44733 0.0
C1359 C 0.99394 0.5851 0.40052 0.0
C1360 C 0.98498 0.58889 0.35616 0.0
C1361 C 0.9698 0.58713 0.35947 0.0
C1362 C 0.03234 0.59275 0.44878 0.0
C1363 C 0.04076 0.58834 0.40395 0.0
C1364 C 0.01718 0.59237 0.44637 0.0
C1365 C 0.01 0.58738 0.39932 0.0
C1366 C 0.01838 0.58375 0.35323 0.0
C1367 C 0.03366 0.58426 0.35549 0.0
H1368 H 0.96487 0.42851 0.51777 0.0
H1369 H 0.96013 0.4103 0.67928 0.0
H1370 H 0.99106 0.42646 0.52482 0.0
H1371 H 0.98675 0.40789 0.68589 0.0
H1372 H 0.0367 0.42205 0.68706 0.0
H1373 H 0.00995 0.4221 0.6906 0.0
H1374 H 0.00855 0.40704 0.52378 0.0
H1375 H 0.03495 0.4075 0.51982 0.0
C1376 C 0.96943 0.42398 0.55483 0.0
C1377 C 0.96039 0.41943 0.59776 0.0
C1378 C 0.98449 0.42271 0.55873 0.0
C1379 C 0.99102 0.41673 0.60547 0.0
C1380 C 0.98205 0.41252 0.64929 0.0
C1381 C 0.96683 0.41386 0.64546 0.0
C1382 C 0.03061 0.41857 0.65156 0.0
C1383 C 0.03786 0.41502 0.60287 0.0
C1384 C 0.01532 0.41856 0.65358 0.0
C1385 C 0.00712 0.41489 0.60705 0.0
C1386 C 0.0145 0.41036 0.55982 0.0
C1387 C 0.02966 0.41054 0.55762 0.0
H1388 H 0.46685 0.57832 0.02268 0.0
H1389 H 0.46191 0.59325 0.18873 0.0
H1390 H 0.49288 0.58191 0.02853 0.0
H1391 H 0.48835 0.5972 0.19425 0.0
H1392 H 0.53848 0.58351 0.19075 0.0
H1393 H 0.51176 0.58355 0.19504 0.0
H1394 H 0.5101 0.60149 0.03227 0.0
H1395 H 0.53652 0.60093 0.02743 0.0
C1396 C 0.47131 0.58251 0.06045 0.0
C1397 C 0.46226 0.58556 0.10517 0.0
C1398 C 0.48629 0.58468 0.06366 0.0
C1399 C 0.49272 0.59007 0.11158 0.0
C1400 C 0.48373 0.59303 0.15675 0.0
C1401 C 0.4686 0.59082 0.15353 0.0
C1402 C 0.53235 0.5877 0.15641 0.0
C1403 C 0.53953 0.59198 0.10841 0.0
C1404 C 0.51707 0.58775 0.15887 0.0
C1405 C 0.50879 0.59221 0.1135 0.0
C1406 C 0.51611 0.59757 0.06733 0.0
C1407 C 0.53127 0.59734 0.06464 0.0
H1408 H 0.15464 0.11621 0.24467 0.0
H1409 H 0.13804 0.1588 0.28744 0.0
H1410 H 0.14277 0.10588 0.32463 0.0
H1411 H 0.12625 0.1484 0.3677 0.0
H1412 H 0.09525 0.11918 0.47228 0.0
H1413 H 0.10639 0.13081 0.39311 0.0
H1414 H 0.14662 0.108 0.42541 0.0
H1415 H 0.13553 0.09629 0.5043 0.0
C1416 C 0.14836 0.12335 0.27079 0.0
C1417 C 0.14735 0.13835 0.25979 0.0
C1418 C 0.14168 0.11745 0.31685 0.0
C1419 C 0.13377 0.12638 0.35269 0.0
C1420 C 0.13227 0.14127 0.34069 0.0
C1421 C 0.13905 0.14721 0.29477 0.0
C1422 C 0.10653 0.11677 0.46289 0.0
C1423 C 0.11448 0.10673 0.4944 0.0
C1424 C 0.11289 0.12345 0.41761 0.0
C1425 C 0.12729 0.12015 0.40278 0.0
C1426 C 0.13541 0.11054 0.4354 0.0
C1427 C 0.12909 0.10393 0.48085 0.0
H1428 H 0.09182 0.88657 0.53635 0.0
H1429 H 0.13385 0.90514 0.49719 0.0
H1430 H 0.10245 0.87468 0.61613 0.0
H1431 H 0.14437 0.89322 0.57662 0.0
H1432 H 0.1535 0.88569 0.75627 0.0
H1433 H 0.1415 0.89658 0.67766 0.0
H1434 H 0.12102 0.85538 0.64092 0.0
H1435 H 0.13298 0.8444 0.71985 0.0
C1436 C 0.10334 0.88799 0.54437 0.0
C1437 C 0.11197 0.89688 0.51056 0.0
C1438 C 0.1094 0.88117 0.58999 0.0
C1439 C 0.12417 0.8832 0.60287 0.0
C1440 C 0.13289 0.89169 0.56816 0.0
C1441 C 0.12687 0.89841 0.5224 0.0
C1442 C 0.14631 0.87897 0.73189 0.0
C1443 C 0.14428 0.86415 0.74415 0.0
C1444 C 0.13954 0.88518 0.68662 0.0
C1445 C 0.13051 0.87676 0.65284 0.0
C1446 C 0.12793 0.86211 0.66634 0.0
C1447 C 0.1348 0.85584 0.71147 0.0
H1448 H 0.40826 0.88674 0.96301 0.0
H1449 H 0.36557 0.90387 0.00136 0.0
H1450 H 0.398 0.87411 0.88387 0.0
H1451 H 0.35549 0.89135 0.92254 0.0
H1452 H 0.34711 0.88362 0.74259 0.0
H1453 H 0.35924 0.89496 0.81993 0.0
H1454 H 0.37895 0.85378 0.86214 0.0
H1455 H 0.36674 0.84228 0.78457 0.0
C1456 C 0.3967 0.88772 0.95489 0.0
C1457 C 0.38774 0.89639 0.98832 0.0
C1458 C 0.39085 0.88047 0.90971 0.0
C1459 C 0.37602 0.88194 0.89687 0.0
C1460 C 0.36702 0.89024 0.93112 0.0
C1461 C 0.37279 0.89732 0.97648 0.0
C1462 C 0.35415 0.87698 0.76785 0.0
C1463 C 0.35585 0.86201 0.75766 0.0
C1464 C 0.36101 0.88347 0.81233 0.0
C1465 C 0.36985 0.87519 0.84727 0.0
C1466 C 0.37217 0.86039 0.83574 0.0
C1467 C 0.36516 0.85382 0.79145 0.0
H1468 H 0.41404 0.10801 0.06214 0.0
H1469 H 0.37456 0.11738 0.97269 0.0
H1470 H 0.40468 0.12177 0.13999 0.0
H1471 H 0.36539 0.13135 0.05025 0.0
H1472 H 0.35824 0.16395 0.18776 0.0
H1473 H 0.37201 0.15445 0.11028 0.0
H1474 H 0.3817 0.11539 0.20132 0.0
H1475 H 0.36773 0.12471 0.27861 0.0
C1476 C 0.40352 0.11328 0.05864 0.0
C1477 C 0.39497 0.11156 0.01148 0.0
C1478 C 0.39817 0.12108 0.10323 0.0
C1479 C 0.38435 0.12756 0.10092 0.0
C1480 C 0.37614 0.12653 0.05276 0.0
C1481 C 0.38135 0.11849 0.00857 0.0
C1482 C 0.36354 0.15346 0.19168 0.0
C1483 C 0.36182 0.14501 0.2391 0.0
C1484 C 0.37136 0.14803 0.14728 0.0
C1485 C 0.37784 0.13421 0.14999 0.0
C1486 C 0.37687 0.12613 0.19848 0.0
C1487 C 0.36883 0.13143 0.24253 0.0
H1488 H 0.86734 0.89819 0.48735 0.0
H1489 H 0.91001 0.88312 0.53686 0.0
H1490 H 0.85654 0.88577 0.56504 0.0
H1491 H 0.89893 0.87045 0.61465 0.0
H1492 H 0.86343 0.83991 0.71279 0.0
H1493 H 0.87667 0.84923 0.63301 0.0
H1494 H 0.86251 0.89284 0.67158 0.0
H1495 H 0.84957 0.88378 0.75115 0.0
C1496 C 0.8744 0.89202 0.51416 0.0
C1497 C 0.88957 0.8918 0.50626 0.0
C1498 C 0.86819 0.88495 0.55865 0.0
C1499 C 0.87697 0.87734 0.59574 0.0
C1500 C 0.892 0.87628 0.58634 0.0
C1501 C 0.89829 0.88355 0.54201 0.0
C1502 C 0.86332 0.85151 0.70459 0.0
C1503 C 0.85537 0.8611 0.73808 0.0
C1504 C 0.87089 0.8568 0.65915 0.0
C1505 C 0.8704 0.87168 0.64627 0.0
C1506 C 0.86289 0.88129 0.68063 0.0
C1507 C 0.85554 0.87608 0.72626 0.0
H1508 H 0.84887 0.11388 0.24643 0.0
H1509 H 0.87129 0.15447 0.27777 0.0
H1510 H 0.86179 0.1026 0.32216 0.0
H1511 H 0.88429 0.14302 0.35363 0.0
H1512 H 0.91278 0.10956 0.45625 0.0
H1513 H 0.90252 0.12142 0.37525 0.0
H1514 H 0.85938 0.10827 0.42502 0.0
H1515 H 0.86943 0.0966 0.5056 0.0
C1516 C 0.85671 0.12034 0.26887 0.0
C1517 C 0.85892 0.13512 0.25644 0.0
C1518 C 0.86405 0.11389 0.31237 0.0
C1519 C 0.87387 0.12202 0.34396 0.0
C1520 C 0.87676 0.13654 0.32977 0.0
C1521 C 0.86928 0.14308 0.28651 0.0
C1522 C 0.9011 0.10931 0.45005 0.0
C1523 C 0.89193 0.10209 0.48726 0.0
C1524 C 0.89526 0.1161 0.40382 0.0
C1525 C 0.88021 0.11555 0.39375 0.0
C1526 C 0.87105 0.10862 0.43149 0.0
C1527 C 0.87682 0.10204 0.47785 0.0
H1528 H 0.63546 0.16025 0.21279 0.0
H1529 H 0.65377 0.11862 0.25897 0.0
H1530 H 0.62345 0.1487 0.13486 0.0
H1531 H 0.64185 0.10724 0.18128 0.0
H1532 H 0.63548 0.09706 0.00099 0.0
H1533 H 0.64587 0.10988 0.0787 0.0
H1534 H 0.60394 0.12898 0.11388 0.0
H1535 H 0.5934 0.11609 0.03596 0.0
C1536 C 0.63681 0.14864 0.20671 0.0
C1537 C 0.64566 0.14038 0.24191 0.0
C1538 C 0.62992 0.14205 0.16219 0.0
C1539 C 0.63191 0.12714 0.1518 0.0
C1540 C 0.64034 0.11881 0.18795 0.0
C1541 C 0.64708 0.12533 0.23265 0.0
C1542 C 0.62847 0.10409 0.02485 0.0
C1543 C 0.61358 0.10548 0.01245 0.0
C1544 C 0.63441 0.11134 0.06957 0.0
C1545 C 0.62565 0.12026 0.10256 0.0
C1546 C 0.61091 0.12216 0.08902 0.0
C1547 C 0.6049 0.11476 0.04453 0.0
H1548 H 0.65099 0.83851 0.81918 0.0
H1549 H 0.63355 0.87328 0.71991 0.0
H1550 H 0.63745 0.84782 0.89787 0.0
H1551 H 0.6199 0.88238 0.79819 0.0
H1552 H 0.5888 0.88827 0.93967 0.0
H1553 H 0.59939 0.8742 0.86514 0.0
H1554 H 0.64046 0.87264 0.95059 0.0
H1555 H 0.62998 0.88688 0.02512 0.0
C1556 C 0.64405 0.84795 0.81392 0.0
C1557 C 0.64337 0.85523 0.76354 0.0
C1558 C 0.63639 0.85329 0.85893 0.0
C1559 C 0.62767 0.86579 0.85391 0.0
C1560 C 0.62646 0.87264 0.80294 0.0
C1561 C 0.63432 0.86749 0.75829 0.0
C1562 C 0.60002 0.88473 0.94309 0.0
C1563 C 0.60861 0.88881 0.98806 0.0
C1564 C 0.60606 0.87672 0.90034 0.0
C1565 C 0.62072 0.87243 0.90219 0.0
C1566 C 0.62909 0.87576 0.94846 0.0
C1567 C 0.62312 0.88397 0.99089 0.0
H1568 H 0.59251 0.61816 0.96597 0.0
H1569 H 0.63436 0.59992 0.00979 0.0
H1570 H 0.60363 0.62975 0.88624 0.0
H1571 H 0.64529 0.61141 0.93041 0.0
H1572 H 0.65432 0.6161 0.74925 0.0
H1573 H 0.64168 0.60646 0.82863 0.0
H1574 H 0.62351 0.64895 0.86123 0.0
H1575 H 0.63622 0.65875 0.78154 0.0
C1576 C 0.60408 0.61677 0.95906 0.0
C1577 C 0.61252 0.60801 0.99399 0.0
C1578 C 0.61042 0.62341 0.9135 0.0
C1579 C 0.62524 0.62125 0.9019 0.0
C1580 C 0.63377 0.61302 0.938 0.0
C1581 C 0.62751 0.60652 0.98366 0.0
C1582 C 0.64752 0.62339 0.77285 0.0
C1583 C 0.64638 0.63823 0.7593 0.0
C1584 C 0.64037 0.61788 0.81851 0.0
C1585 C 0.63182 0.62703 0.85134 0.0
C1586 C 0.63007 0.64169 0.83653 0.0
C1587 C 0.63737 0.64728 0.79102 0.0
H1588 H 0.63228 0.34524 0.21532 0.0
H1589 H 0.65162 0.38681 0.25624 0.0
H1590 H 0.61985 0.35656 0.13791 0.0
H1591 H 0.63924 0.39797 0.17905 0.0
H1592 H 0.63298 0.4063 0.99694 0.0
H1593 H 0.64304 0.39427 0.07684 0.0
H1594 H 0.6007 0.37652 0.115 0.0
H1595 H 0.59047 0.38865 0.03474 0.0
C1596 C 0.63373 0.35681 0.2083 0.0
C1597 C 0.64305 0.3651 0.24164 0.0
C1598 C 0.62659 0.36326 0.1641 0.0
C1599 C 0.62878 0.37806 0.15223 0.0
C1600 C 0.63757 0.38647 0.1869 0.0
C1601 C 0.64458 0.38008 0.23129 0.0
C1602 C 0.62579 0.39975 0.02197 0.0
C1603 C 0.6109 0.39851 0.00959 0.0
C1604 C 0.63155 0.39296 0.06796 0.0
C1605 C 0.62259 0.38465 0.10234 0.0
C1606 C 0.60782 0.3829 0.08908 0.0
C1607 C 0.60198 0.38985 0.04324 0.0
H1608 H 0.91112 0.39477 0.4332 0.0
H1609 H 0.87263 0.38452 0.52728 0.0
H1610 H 0.90158 0.38052 0.357 0.0
H1611 H 0.86325 0.37012 0.45123 0.0
H1612 H 0.85586 0.33696 0.31562 0.0
H1613 H 0.86955 0.34722 0.39198 0.0
H1614 H 0.87856 0.38577 0.29695 0.0
H1615 H 0.86472 0.37566 0.22076 0.0
C1616 C 0.90078 0.38924 0.43804 0.0
C1617 C 0.89256 0.39084 0.48608 0.0
C1618 C 0.89532 0.38115 0.39436 0.0
C1619 C 0.8817 0.37429 0.39836 0.0
C1620 C 0.87384 0.37524 0.44736 0.0
C1621 C 0.87917 0.38353 0.4907 0.0
C1622 C 0.86097 0.34752 0.31065 0.0
C1623 C 0.85914 0.35557 0.26233 0.0
C1624 C 0.86874 0.35338 0.35442 0.0
C1625 C 0.87504 0.36727 0.35023 0.0
C1626 C 0.87388 0.37499 0.30098 0.0
C1627 C 0.8659 0.36924 0.25755 0.0
H1628 H 0.86689 0.62354 0.78188 0.0
H1629 H 0.85897 0.66312 0.69103 0.0
H1630 H 0.8809 0.61386 0.70542 0.0
H1631 H 0.87284 0.65328 0.61427 0.0
H1632 H 0.87605 0.61677 0.4754 0.0
H1633 H 0.86657 0.6309 0.55198 0.0
H1634 H 0.90428 0.6193 0.64776 0.0
H1635 H 0.91391 0.60531 0.57109 0.0
C1636 C 0.86831 0.63024 0.7459 0.0
C1637 C 0.86177 0.64405 0.74231 0.0
C1638 C 0.87639 0.62474 0.70233 0.0
C1639 C 0.87789 0.63284 0.65407 0.0
C1640 C 0.87178 0.64683 0.65107 0.0
C1641 C 0.86392 0.65246 0.69504 0.0
C1642 C 0.88244 0.61745 0.51243 0.0
C1643 C 0.89567 0.60985 0.51736 0.0
C1644 C 0.87706 0.6256 0.55609 0.0
C1645 C 0.88469 0.6261 0.60567 0.0
C1646 C 0.89818 0.619 0.60995 0.0
C1647 C 0.90369 0.61106 0.566 0.0
H1648 H 0.35827 0.34066 0.19122 0.0
H1649 H 0.36161 0.38191 0.27541 0.0
H1650 H 0.37216 0.35067 0.11501 0.0
H1651 H 0.37575 0.39177 0.19929 0.0
H1652 H 0.41051 0.39964 0.06609 0.0
H1653 H 0.4007 0.38666 0.14522 0.0
H1654 H 0.36412 0.37227 0.0487 0.0
H1655 H 0.3737 0.38545 0.96988 0.0
C1656 C 0.36221 0.35176 0.19397 0.0
C1657 C 0.35876 0.36056 0.23913 0.0
C1658 C 0.3701 0.35747 0.15029 0.0
C1659 C 0.37494 0.37195 0.15148 0.0
C1660 C 0.37219 0.38052 0.19774 0.0
C1661 C 0.36405 0.37491 0.24106 0.0
C1662 C 0.4005 0.39351 0.06155 0.0
C1663 C 0.39281 0.39358 0.01195 0.0
C1664 C 0.39488 0.38617 0.10683 0.0
C1665 C 0.38169 0.37853 0.10278 0.0
C1666 C 0.37437 0.37802 0.05257 0.0
C1667 C 0.37981 0.3856 0.00765 0.0
H1668 H 0.41234 0.61175 0.95935 0.0
H1669 H 0.3687 0.59888 0.00546 0.0
H1670 H 0.40246 0.62418 0.87882 0.0
H1671 H 0.35905 0.61107 0.92526 0.0
H1672 H 0.35021 0.61613 0.74457 0.0
H1673 H 0.36279 0.60508 0.82144 0.0
H1674 H 0.38359 0.64612 0.85753 0.0
H1675 H 0.37086 0.6574 0.7805 0.0
C1676 C 0.40067 0.61166 0.95261 0.0
C1677 C 0.39131 0.60426 0.98864 0.0
C1678 C 0.39506 0.61878 0.90668 0.0
C1679 C 0.38005 0.61836 0.89575 0.0
C1680 C 0.37069 0.61134 0.93251 0.0
C1681 C 0.37624 0.60444 0.9786 0.0
C1682 C 0.3576 0.62281 0.76827 0.0
C1683 C 0.3594 0.6377 0.75676 0.0
C1684 C 0.36475 0.61647 0.81239 0.0
C1685 C 0.37398 0.62482 0.84556 0.0
C1686 C 0.3765 0.63949 0.83242 0.0
C1687 C 0.36918 0.64592 0.7885 0.0
H1688 H 0.15549 0.61909 0.75049 0.0
H1689 H 0.13872 0.66175 0.70963 0.0
H1690 H 0.14347 0.60892 0.67076 0.0
H1691 H 0.12659 0.65141 0.62955 0.0
H1692 H 0.09479 0.61996 0.53083 0.0
H1693 H 0.10627 0.63254 0.60756 0.0
H1694 H 0.14732 0.61214 0.56836 0.0
H1695 H 0.13599 0.59962 0.49185 0.0
C1696 C 0.14915 0.62629 0.7248 0.0
C1697 C 0.14812 0.64126 0.73633 0.0
C1698 C 0.14236 0.62047 0.6789 0.0
C1699 C 0.13427 0.62942 0.64376 0.0
C1700 C 0.13279 0.64429 0.65607 0.0
C1701 C 0.13974 0.65018 0.7018 0.0
C1702 C 0.10631 0.61832 0.53812 0.0
C1703 C 0.11444 0.60868 0.50552 0.0
C1704 C 0.11286 0.62555 0.58193 0.0
C1705 C 0.12761 0.62313 0.59417 0.0
C1706 C 0.13587 0.614 0.56023 0.0
C1707 C 0.12938 0.60691 0.51622 0.0
H1708 H 0.1452 0.3408 0.31818 0.0
H1709 H 0.13692 0.37965 0.22345 0.0
H1710 H 0.13238 0.35157 0.39569 0.0
H1711 H 0.12378 0.39022 0.30083 0.0
H1712 H 0.08956 0.39639 0.43919 0.0
H1713 H 0.09995 0.38314 0.36197 0.0
H1714 H 0.13949 0.37604 0.45328 0.0
H1715 H 0.12929 0.38959 0.53035 0.0
C1716 C 0.14041 0.35152 0.31356 0.0
C1717 C 0.14208 0.35942 0.26481 0.0
C1718 C 0.13316 0.35767 0.35797 0.0
C1719 C 0.12717 0.37168 0.35395 0.0
C1720 C 0.12828 0.37935 0.3046 0.0
C1721 C 0.13581 0.37333 0.26053 0.0
C1722 C 0.1004 0.39184 0.44312 0.0
C1723 C 0.10864 0.39404 0.49074 0.0
C1724 C 0.10633 0.38435 0.39886 0.0
C1725 C 0.12047 0.37865 0.40196 0.0
C1726 C 0.12852 0.3803 0.45025 0.0
C1727 C 0.12271 0.38808 0.49413 0.0
loop_
_geom_bond_atom_site_label_1
_geom_bond_atom_site_label_2
_geom_bond_distance
_geom_bond_site_symmetry_2
_ccdc_geom_bond_type
O0 Cd1 2.223 . S
O0 C8 1.315 . S
Cd1 O0 2.223 . S
Cd1 O4 2.297 . S
Cd1 O5 2.439 . S
Cd1 O11 2.240 . S
Cd2 O3 2.240 . S
Cd2 O10 2.223 . S
Cd2 O12 2.297 . S
Cd2 O13 2.439 . S
O3 Cd2 2.240 . S
O3 C8 1.279 . S
O4 Cd1 2.297 . S
O4 C6 1.247 . S
O5 Cd1 2.439 . S
O5 C6 1.208 . S
C6 O4 1.247 . S
C6 O5 1.208 . S
C7 O12 1.247 . S
C7 O13 1.208 . S
C8 O0 1.315 . S
C8 O3 1.279 . S
C9 O10 1.315 . S
C9 O11 1.279 . S
O10 Cd2 2.223 . S
O10 C9 1.315 . S
O11 Cd1 2.240 . S
O11 C9 1.279 . S
O12 Cd2 2.297 . S
O12 C7 1.247 . S
O13 Cd2 2.439 . S
O13 C7 1.208 . S
O14 Cd15 2.223 . S
O14 C22 1.315 . S
Cd15 O14 2.223 . S
Cd15 O18 2.297 . S
Cd15 O19 2.439 . S
Cd15 O25 2.240 . S
Cd16 O17 2.240 . S
Cd16 O24 2.223 . S
Cd16 O26 2.297 . S
Cd16 O27 2.439 . S
O17 Cd16 2.240 . S
O17 C22 1.279 . S
O18 Cd15 2.297 . S
O18 C20 1.247 . S
O19 Cd15 2.439 . S
O19 C20 1.208 . S
C20 O18 1.247 . S
C20 O19 1.208 . S
C21 O26 1.247 . S
C21 O27 1.208 . S
C22 O14 1.315 . S
C22 O17 1.279 . S
C23 O24 1.315 . S
C23 O25 1.279 . S
O24 Cd16 2.223 . S
O24 C23 1.315 . S
O25 Cd15 2.240 . S
O25 C23 1.279 . S
O26 Cd16 2.297 . S
O26 C21 1.247 . S
O27 Cd16 2.439 . S
O27 C21 1.208 . S
O28 Cd29 2.223 . S
O28 C36 1.315 . S
Cd29 O28 2.223 . S
Cd29 O32 2.297 . S
Cd29 O33 2.439 . S
Cd29 O39 2.240 . S
Cd30 O31 2.240 . S
Cd30 O38 2.223 . S
Cd30 O40 2.297 . S
Cd30 O41 2.439 . S
O31 Cd30 2.240 . S
O31 C36 1.279 . S
O32 Cd29 2.297 . S
O32 C34 1.247 . S
O33 Cd29 2.439 . S
O33 C34 1.208 . S
C34 O32 1.247 . S
C34 O33 1.208 . S
C35 O40 1.247 . S
C35 O41 1.208 . S
C36 O28 1.315 . S
C36 O31 1.279 . S
C37 O38 1.315 . S
C37 O39 1.279 . S
O38 Cd30 2.223 . S
O38 C37 1.315 . S
O39 Cd29 2.240 . S
O39 C37 1.279 . S
O40 Cd30 2.297 . S
O40 C35 1.247 . S
O41 Cd30 2.439 . S
O41 C35 1.208 . S
O42 Cd43 2.223 . S
O42 C50 1.315 . S
Cd43 O42 2.223 . S
Cd43 O46 2.297 . S
Cd43 O47 2.439 . S
Cd43 O53 2.240 . S
Cd44 O45 2.240 . S
Cd44 O52 2.223 . S
Cd44 O54 2.297 . S
Cd44 O55 2.439 . S
O45 Cd44 2.240 . S
O45 C50 1.279 . S
O46 Cd43 2.297 . S
O46 C48 1.247 . S
O47 Cd43 2.439 . S
O47 C48 1.208 . S
C48 O46 1.247 . S
C48 O47 1.208 . S
C49 O54 1.247 . S
C49 O55 1.208 . S
C50 O42 1.315 . S
C50 O45 1.279 . S
C51 O52 1.315 . S
C51 O53 1.279 . S
O52 Cd44 2.223 . S
O52 C51 1.315 . S
O53 Cd43 2.240 . S
O53 C51 1.279 . S
O54 Cd44 2.297 . S
O54 C49 1.247 . S
O55 Cd44 2.439 . S
O55 C49 1.208 . S
O56 Cd57 2.223 . S
O56 C64 1.315 . S
Cd57 O56 2.223 . S
Cd57 O60 2.297 . S
Cd57 O61 2.439 . S
Cd57 O67 2.240 . S
Cd58 O59 2.240 . S
Cd58 O66 2.223 . S
Cd58 O68 2.297 . S
Cd58 O69 2.439 . S
O59 Cd58 2.240 . S
O59 C64 1.279 . S
O60 Cd57 2.297 . S
O60 C62 1.247 . S
O61 Cd57 2.439 . S
O61 C62 1.208 . S
C62 O60 1.247 . S
C62 O61 1.208 . S
C63 O68 1.247 . S
C63 O69 1.208 . S
C64 O56 1.315 . S
C64 O59 1.279 . S
C65 O66 1.315 . S
C65 O67 1.279 . S
O66 Cd58 2.223 . S
O66 C65 1.315 . S
O67 Cd57 2.240 . S
O67 C65 1.279 . S
O68 Cd58 2.297 . S
O68 C63 1.247 . S
O69 Cd58 2.439 . S
O69 C63 1.208 . S
O70 Cd71 2.223 . S
O70 C78 1.315 . S
Cd71 O70 2.223 . S
Cd71 O74 2.297 . S
Cd71 O75 2.439 . S
Cd71 O81 2.240 . S
Cd72 O73 2.240 . S
Cd72 O80 2.223 . S
Cd72 O82 2.297 . S
Cd72 O83 2.439 . S
O73 Cd72 2.240 . S
O73 C78 1.279 . S
O74 Cd71 2.297 . S
O74 C76 1.247 . S
O75 Cd71 2.439 . S
O75 C76 1.208 . S
C76 O74 1.247 . S
C76 O75 1.208 . S
C77 O82 1.247 . S
C77 O83 1.208 . S
C78 O70 1.315 . S
C78 O73 1.279 . S
C79 O80 1.315 . S
C79 O81 1.279 . S
O80 Cd72 2.223 . S
O80 C79 1.315 . S
O81 Cd71 2.240 . S
O81 C79 1.279 . S
O82 Cd72 2.297 . S
O82 C77 1.247 . S
O83 Cd72 2.439 . S
O83 C77 1.208 . S
O84 Cd85 2.223 . S
O84 C92 1.315 . S
Cd85 O84 2.223 . S
Cd85 O88 2.297 . S
Cd85 O89 2.439 . S
Cd85 O95 2.240 . S
Cd86 O87 2.240 . S
Cd86 O94 2.223 . S
Cd86 O96 2.297 . S
Cd86 O97 2.439 . S
O87 Cd86 2.240 . S
O87 C92 1.279 . S
O88 Cd85 2.297 . S
O88 C90 1.247 . S
O89 Cd85 2.439 . S
O89 C90 1.208 . S
C90 O88 1.247 . S
C90 O89 1.208 . S
C91 O96 1.247 . S
C91 O97 1.208 . S
C92 O84 1.315 . S
C92 O87 1.279 . S
C93 O94 1.315 . S
C93 O95 1.279 . S
O94 Cd86 2.223 . S
O94 C93 1.315 . S
O95 Cd85 2.240 . S
O95 C93 1.279 . S
O96 Cd86 2.297 . S
O96 C91 1.247 . S
O97 Cd86 2.439 . S
O97 C91 1.208 . S
O98 Cd99 2.223 . S
O98 C106 1.315 . S
Cd99 O98 2.223 . S
Cd99 O102 2.297 . S
Cd99 O103 2.439 . S
Cd99 O109 2.240 . S
Cd100 O101 2.240 . S
Cd100 O108 2.223 . S
Cd100 O110 2.297 . S
Cd100 O111 2.439 . S
O101 Cd100 2.240 . S
O101 C106 1.279 . S
O102 Cd99 2.297 . S
O102 C104 1.247 . S
O103 Cd99 2.439 . S
O103 C104 1.208 . S
C104 O102 1.247 . S
C104 O103 1.208 . S
C105 O110 1.247 . S
C105 O111 1.208 . S
C106 O98 1.315 . S
C106 O101 1.279 . S
C107 O108 1.315 . S
C107 O109 1.279 . S
O108 Cd100 2.223 . S
O108 C107 1.315 . S
O109 Cd99 2.240 . S
O109 C107 1.279 . S
O110 Cd100 2.297 . S
O110 C105 1.247 . S
O111 Cd100 2.439 . S
O111 C105 1.208 . S
O112 Cd113 2.223 . S
O112 C120 1.315 . S
Cd113 O112 2.223 . S
Cd113 O116 2.297 . S
Cd113 O117 2.439 . S
Cd113 O123 2.240 . S
Cd114 O115 2.240 . S
Cd114 O122 2.223 . S
Cd114 O124 2.297 . S
Cd114 O125 2.439 . S
O115 Cd114 2.240 . S
O115 C120 1.279 . S
O116 Cd113 2.297 . S
O116 C118 1.247 . S
O117 Cd113 2.439 . S
O117 C118 1.208 . S
C118 O116 1.247 . S
C118 O117 1.208 . S
C119 O124 1.247 . S
C119 O125 1.208 . S
C120 O112 1.315 . S
C120 O115 1.279 . S
C121 O122 1.315 . S
C121 O123 1.279 . S
O122 Cd114 2.223 . S
O122 C121 1.315 . S
O123 Cd113 2.240 . S
O123 C121 1.279 . S
O124 Cd114 2.297 . S
O124 C119 1.247 . S
O125 Cd114 2.439 . S
O125 C119 1.208 . S
O126 Cd127 2.223 . S
O126 C134 1.315 . S
Cd127 O126 2.223 . S
Cd127 O130 2.297 . S
Cd127 O131 2.439 . S
Cd127 O137 2.240 . S
Cd128 O129 2.240 . S
Cd128 O136 2.223 . S
Cd128 O138 2.297 . S
Cd128 O139 2.439 . S
O129 Cd128 2.240 . S
O129 C134 1.279 . S
O130 Cd127 2.297 . S
O130 C132 1.247 . S
O131 Cd127 2.439 . S
O131 C132 1.208 . S
C132 O130 1.247 . S
C132 O131 1.208 . S
C133 O138 1.247 . S
C133 O139 1.208 . S
C134 O126 1.315 . S
C134 O129 1.279 . S
C135 O136 1.315 . S
C135 O137 1.279 . S
O136 Cd128 2.223 . S
O136 C135 1.315 . S
O137 Cd127 2.240 . S
O137 C135 1.279 . S
O138 Cd128 2.297 . S
O138 C133 1.247 . S
O139 Cd128 2.439 . S
O139 C133 1.208 . S
O140 Cd141 2.223 . S
O140 C148 1.315 . S
Cd141 O140 2.223 . S
Cd141 O144 2.297 . S
Cd141 O145 2.439 . S
Cd141 O151 2.240 . S
Cd142 O143 2.240 . S
Cd142 O150 2.223 . S
Cd142 O152 2.297 . S
Cd142 O153 2.439 . S
O143 Cd142 2.240 . S
O143 C148 1.279 . S
O144 Cd141 2.297 . S
O144 C146 1.247 . S
O145 Cd141 2.439 . S
O145 C146 1.208 . S
C146 O144 1.247 . S
C146 O145 1.208 . S
C147 O152 1.247 . S
C147 O153 1.208 . S
C148 O140 1.315 . S
C148 O143 1.279 . S
C149 O150 1.315 . S
C149 O151 1.279 . S
O150 Cd142 2.223 . S
O150 C149 1.315 . S
O151 Cd141 2.240 . S
O151 C149 1.279 . S
O152 Cd142 2.297 . S
O152 C147 1.247 . S
O153 Cd142 2.439 . S
O153 C147 1.208 . S
O154 Cd155 2.223 . S
O154 C162 1.315 . S
Cd155 O154 2.223 . S
Cd155 O158 2.297 . S
Cd155 O159 2.439 . S
Cd155 O165 2.240 . S
Cd156 O157 2.240 . S
Cd156 O164 2.223 . S
Cd156 O166 2.297 . S
Cd156 O167 2.439 . S
O157 Cd156 2.240 . S
O157 C162 1.279 . S
O158 Cd155 2.297 . S
O158 C160 1.247 . S
O159 Cd155 2.439 . S
O159 C160 1.208 . S
C160 O158 1.247 . S
C160 O159 1.208 . S
C161 O166 1.247 . S
C161 O167 1.208 . S
C162 O154 1.315 . S
C162 O157 1.279 . S
C163 O164 1.315 . S
C163 O165 1.279 . S
O164 Cd156 2.223 . S
O164 C163 1.315 . S
O165 Cd155 2.240 . S
O165 C163 1.279 . S
O166 Cd156 2.297 . S
O166 C161 1.247 . S
O167 Cd156 2.439 . S
O167 C161 1.208 . S
O168 Cd169 2.223 . S
O168 C176 1.315 . S
Cd169 O168 2.223 . S
Cd169 O172 2.297 . S
Cd169 O173 2.439 . S
Cd169 O179 2.240 . S
Cd170 O171 2.240 . S
Cd170 O178 2.223 . S
Cd170 O180 2.297 . S
Cd170 O181 2.439 . S
O171 Cd170 2.240 . S
O171 C176 1.279 . S
O172 Cd169 2.297 . S
O172 C174 1.247 . S
O173 Cd169 2.439 . S
O173 C174 1.208 . S
C174 O172 1.247 . S
C174 O173 1.208 . S
C175 O180 1.247 . S
C175 O181 1.208 . S
C176 O168 1.315 . S
C176 O171 1.279 . S
C177 O178 1.315 . S
C177 O179 1.279 . S
O178 Cd170 2.223 . S
O178 C177 1.315 . S
O179 Cd169 2.240 . S
O179 C177 1.279 . S
O180 Cd170 2.297 . S
O180 C175 1.247 . S
O181 Cd170 2.439 . S
O181 C175 1.208 . S
O182 Cd183 2.223 . S
O182 C190 1.315 . S
Cd183 O182 2.223 . S
Cd183 O186 2.297 . S
Cd183 O187 2.439 . S
Cd183 O193 2.240 . S
Cd184 O185 2.240 . S
Cd184 O192 2.223 . S
Cd184 O194 2.297 . S
Cd184 O195 2.439 . S
O185 Cd184 2.240 . S
O185 C190 1.279 . S
O186 Cd183 2.297 . S
O186 C188 1.247 . S
O187 Cd183 2.439 . S
O187 C188 1.208 . S
C188 O186 1.247 . S
C188 O187 1.208 . S
C189 O194 1.247 . S
C189 O195 1.208 . S
C190 O182 1.315 . S
C190 O185 1.279 . S
C191 O192 1.315 . S
C191 O193 1.279 . S
O192 Cd184 2.223 . S
O192 C191 1.315 . S
O193 Cd183 2.240 . S
O193 C191 1.279 . S
O194 Cd184 2.297 . S
O194 C189 1.247 . S
O195 Cd184 2.439 . S
O195 C189 1.208 . S
O196 Cd197 2.223 . S
O196 C204 1.315 . S
Cd197 O196 2.223 . S
Cd197 O200 2.297 . S
Cd197 O201 2.439 . S
Cd197 O207 2.240 . S
Cd198 O199 2.240 . S
Cd198 O206 2.223 . S
Cd198 O208 2.297 . S
Cd198 O209 2.439 . S
O199 Cd198 2.240 . S
O199 C204 1.279 . S
O200 Cd197 2.297 . S
O200 C202 1.247 . S
O201 Cd197 2.439 . S
O201 C202 1.208 . S
C202 O200 1.247 . S
C202 O201 1.208 . S
C203 O208 1.247 . S
C203 O209 1.208 . S
C204 O196 1.315 . S
C204 O199 1.279 . S
C205 O206 1.315 . S
C205 O207 1.279 . S
O206 Cd198 2.223 . S
O206 C205 1.315 . S
O207 Cd197 2.240 . S
O207 C205 1.279 . S
O208 Cd198 2.297 . S
O208 C203 1.247 . S
O209 Cd198 2.439 . S
O209 C203 1.208 . S
O210 Cd211 2.223 . S
O210 C218 1.315 . S
Cd211 O210 2.223 . S
Cd211 O214 2.297 . S
Cd211 O215 2.439 . S
Cd211 O221 2.240 . S
Cd212 O213 2.240 . S
Cd212 O220 2.223 . S
Cd212 O222 2.297 . S
Cd212 O223 2.439 . S
O213 Cd212 2.240 . S
O213 C218 1.279 . S
O214 Cd211 2.297 . S
O214 C216 1.247 . S
O215 Cd211 2.439 . S
O215 C216 1.208 . S
C216 O214 1.247 . S
C216 O215 1.208 . S
C217 O222 1.247 . S
C217 O223 1.208 . S
C218 O210 1.315 . S
C218 O213 1.279 . S
C219 O220 1.315 . S
C219 O221 1.279 . S
O220 Cd212 2.223 . S
O220 C219 1.315 . S
O221 Cd211 2.240 . S
O221 C219 1.279 . S
O222 Cd212 2.297 . S
O222 C217 1.247 . S
O223 Cd212 2.439 . S
O223 C217 1.208 . S
O224 Cd225 2.223 . S
O224 C232 1.315 . S
Cd225 O224 2.223 . S
Cd225 O228 2.297 . S
Cd225 O229 2.439 . S
Cd225 O235 2.240 . S
Cd226 O227 2.240 . S
Cd226 O234 2.223 . S
Cd226 O236 2.297 . S
Cd226 O237 2.439 . S
O227 Cd226 2.240 . S
O227 C232 1.279 . S
O228 Cd225 2.297 . S
O228 C230 1.247 . S
O229 Cd225 2.439 . S
O229 C230 1.208 . S
C230 O228 1.247 . S
C230 O229 1.208 . S
C231 O236 1.247 . S
C231 O237 1.208 . S
C232 O224 1.315 . S
C232 O227 1.279 . S
C233 O234 1.315 . S
C233 O235 1.279 . S
O234 Cd226 2.223 . S
O234 C233 1.315 . S
O235 Cd225 2.240 . S
O235 C233 1.279 . S
O236 Cd226 2.297 . S
O236 C231 1.247 . S
O237 Cd226 2.439 . S
O237 C231 1.208 . S
O238 Cd239 2.223 . S
O238 C246 1.315 . S
Cd239 O238 2.223 . S
Cd239 O242 2.297 . S
Cd239 O243 2.439 . S
Cd239 O249 2.240 . S
Cd240 O241 2.240 . S
Cd240 O248 2.223 . S
Cd240 O250 2.297 . S
Cd240 O251 2.439 . S
O241 Cd240 2.240 . S
O241 C246 1.279 . S
O242 Cd239 2.297 . S
O242 C244 1.247 . S
O243 Cd239 2.439 . S
O243 C244 1.208 . S
C244 O242 1.247 . S
C244 O243 1.208 . S
C245 O250 1.247 . S
C245 O251 1.208 . S
C246 O238 1.315 . S
C246 O241 1.279 . S
C247 O248 1.315 . S
C247 O249 1.279 . S
O248 Cd240 2.223 . S
O248 C247 1.315 . S
O249 Cd239 2.240 . S
O249 C247 1.279 . S
O250 Cd240 2.297 . S
O250 C245 1.247 . S
O251 Cd240 2.439 . S
O251 C245 1.208 . S
O252 Cd253 2.223 . S
O252 C260 1.315 . S
Cd253 O252 2.223 . S
Cd253 O256 2.297 . S
Cd253 O257 2.439 . S
Cd253 O263 2.240 . S
Cd254 O255 2.240 . S
Cd254 O262 2.223 . S
Cd254 O264 2.297 . S
Cd254 O265 2.439 . S
O255 Cd254 2.240 . S
O255 C260 1.279 . S
O256 Cd253 2.297 . S
O256 C258 1.247 . S
O257 Cd253 2.439 . S
O257 C258 1.208 . S
C258 O256 1.247 . S
C258 O257 1.208 . S
C259 O264 1.247 . S
C259 O265 1.208 . S
C260 O252 1.315 . S
C260 O255 1.279 . S
C261 O262 1.315 . S
C261 O263 1.279 . S
O262 Cd254 2.223 . S
O262 C261 1.315 . S
O263 Cd253 2.240 . S
O263 C261 1.279 . S
O264 Cd254 2.297 . S
O264 C259 1.247 . S
O265 Cd254 2.439 . S
O265 C259 1.208 . S
O266 Cd267 2.223 . S
O266 C274 1.315 . S
Cd267 O266 2.223 . S
Cd267 O270 2.297 . S
Cd267 O271 2.439 . S
Cd267 O277 2.240 . S
Cd268 O269 2.240 . S
Cd268 O276 2.223 . S
Cd268 O278 2.297 . S
Cd268 O279 2.439 . S
O269 Cd268 2.240 . S
O269 C274 1.279 . S
O270 Cd267 2.297 . S
O270 C272 1.247 . S
O271 Cd267 2.439 . S
O271 C272 1.208 . S
C272 O270 1.247 . S
C272 O271 1.208 . S
C273 O278 1.247 . S
C273 O279 1.208 . S
C274 O266 1.315 . S
C274 O269 1.279 . S
C275 O276 1.315 . S
C275 O277 1.279 . S
O276 Cd268 2.223 . S
O276 C275 1.315 . S
O277 Cd267 2.240 . S
O277 C275 1.279 . S
O278 Cd268 2.297 . S
O278 C273 1.247 . S
O279 Cd268 2.439 . S
O279 C273 1.208 . S
O280 Cd281 2.223 . S
O280 C288 1.315 . S
Cd281 O280 2.223 . S
Cd281 O284 2.297 . S
Cd281 O285 2.439 . S
Cd281 O291 2.240 . S
Cd282 O283 2.240 . S
Cd282 O290 2.223 . S
Cd282 O292 2.297 . S
Cd282 O293 2.439 . S
O283 Cd282 2.240 . S
O283 C288 1.279 . S
O284 Cd281 2.297 . S
O284 C286 1.247 . S
O285 Cd281 2.439 . S
O285 C286 1.208 . S
C286 O284 1.247 . S
C286 O285 1.208 . S
C287 O292 1.247 . S
C287 O293 1.208 . S
C288 O280 1.315 . S
C288 O283 1.279 . S
C289 O290 1.315 . S
C289 O291 1.279 . S
O290 Cd282 2.223 . S
O290 C289 1.315 . S
O291 Cd281 2.240 . S
O291 C289 1.279 . S
O292 Cd282 2.297 . S
O292 C287 1.247 . S
O293 Cd282 2.439 . S
O293 C287 1.208 . S
O294 Cd295 2.223 . S
O294 C302 1.315 . S
Cd295 O294 2.223 . S
Cd295 O298 2.297 . S
Cd295 O299 2.439 . S
Cd295 O305 2.240 . S
Cd296 O297 2.240 . S
Cd296 O304 2.223 . S
Cd296 O306 2.297 . S
Cd296 O307 2.439 . S
O297 Cd296 2.240 . S
O297 C302 1.279 . S
O298 Cd295 2.297 . S
O298 C300 1.247 . S
O299 Cd295 2.439 . S
O299 C300 1.208 . S
C300 O298 1.247 . S
C300 O299 1.208 . S
C301 O306 1.247 . S
C301 O307 1.208 . S
C302 O294 1.315 . S
C302 O297 1.279 . S
C303 O304 1.315 . S
C303 O305 1.279 . S
O304 Cd296 2.223 . S
O304 C303 1.315 . S
O305 Cd295 2.240 . S
O305 C303 1.279 . S
O306 Cd296 2.297 . S
O306 C301 1.247 . S
O307 Cd296 2.439 . S
O307 C301 1.208 . S
O308 Cd309 2.223 . S
O308 C316 1.315 . S
Cd309 O308 2.223 . S
Cd309 O312 2.297 . S
Cd309 O313 2.439 . S
Cd309 O319 2.240 . S
Cd310 O311 2.240 . S
Cd310 O318 2.223 . S
Cd310 O320 2.297 . S
Cd310 O321 2.439 . S
O311 Cd310 2.240 . S
O311 C316 1.279 . S
O312 Cd309 2.297 . S
O312 C314 1.247 . S
O313 Cd309 2.439 . S
O313 C314 1.208 . S
C314 O312 1.247 . S
C314 O313 1.208 . S
C315 O320 1.247 . S
C315 O321 1.208 . S
C316 O308 1.315 . S
C316 O311 1.279 . S
C317 O318 1.315 . S
C317 O319 1.279 . S
O318 Cd310 2.223 . S
O318 C317 1.315 . S
O319 Cd309 2.240 . S
O319 C317 1.279 . S
O320 Cd310 2.297 . S
O320 C315 1.247 . S
O321 Cd310 2.439 . S
O321 C315 1.208 . S
O322 Cd323 2.223 . S
O322 C330 1.315 . S
Cd323 O322 2.223 . S
Cd323 O326 2.297 . S
Cd323 O327 2.439 . S
Cd323 O333 2.240 . S
Cd324 O325 2.240 . S
Cd324 O332 2.223 . S
Cd324 O334 2.297 . S
Cd324 O335 2.439 . S
O325 Cd324 2.240 . S
O325 C330 1.279 . S
O326 Cd323 2.297 . S
O326 C328 1.247 . S
O327 Cd323 2.439 . S
O327 C328 1.208 . S
C328 O326 1.247 . S
C328 O327 1.208 . S
C329 O334 1.247 . S
C329 O335 1.208 . S
C330 O322 1.315 . S
C330 O325 1.279 . S
C331 O332 1.315 . S
C331 O333 1.279 . S
O332 Cd324 2.223 . S
O332 C331 1.315 . S
O333 Cd323 2.240 . S
O333 C331 1.279 . S
O334 Cd324 2.297 . S
O334 C329 1.247 . S
O335 Cd324 2.439 . S
O335 C329 1.208 . S
O336 Cd337 2.223 . S
O336 C344 1.315 . S
Cd337 O336 2.223 . S
Cd337 O340 2.297 . S
Cd337 O341 2.439 . S
Cd337 O347 2.240 . S
Cd338 O339 2.240 . S
Cd338 O346 2.223 . S
Cd338 O348 2.297 . S
Cd338 O349 2.439 . S
O339 Cd338 2.240 . S
O339 C344 1.279 . S
O340 Cd337 2.297 . S
O340 C342 1.247 . S
O341 Cd337 2.439 . S
O341 C342 1.208 . S
C342 O340 1.247 . S
C342 O341 1.208 . S
C343 O348 1.247 . S
C343 O349 1.208 . S
C344 O336 1.315 . S
C344 O339 1.279 . S
C345 O346 1.315 . S
C345 O347 1.279 . S
O346 Cd338 2.223 . S
O346 C345 1.315 . S
O347 Cd337 2.240 . S
O347 C345 1.279 . S
O348 Cd338 2.297 . S
O348 C343 1.247 . S
O349 Cd338 2.439 . S
O349 C343 1.208 . S
O350 Cd351 2.223 . S
O350 C358 1.315 . S
Cd351 O350 2.223 . S
Cd351 O354 2.297 . S
Cd351 O355 2.439 . S
Cd351 O361 2.240 . S
Cd352 O353 2.240 . S
Cd352 O360 2.223 . S
Cd352 O362 2.297 . S
Cd352 O363 2.439 . S
O353 Cd352 2.240 . S
O353 C358 1.279 . S
O354 Cd351 2.297 . S
O354 C356 1.247 . S
O355 Cd351 2.439 . S
O355 C356 1.208 . S
C356 O354 1.247 . S
C356 O355 1.208 . S
C357 O362 1.247 . S
C357 O363 1.208 . S
C358 O350 1.315 . S
C358 O353 1.279 . S
C359 O360 1.315 . S
C359 O361 1.279 . S
O360 Cd352 2.223 . S
O360 C359 1.315 . S
O361 Cd351 2.240 . S
O361 C359 1.279 . S
O362 Cd352 2.297 . S
O362 C357 1.247 . S
O363 Cd352 2.439 . S
O363 C357 1.208 . S
O364 Cd365 2.223 . S
O364 C372 1.315 . S
Cd365 O364 2.223 . S
Cd365 O368 2.297 . S
Cd365 O369 2.439 . S
Cd365 O375 2.240 . S
Cd366 O367 2.240 . S
Cd366 O374 2.223 . S
Cd366 O376 2.297 . S
Cd366 O377 2.439 . S
O367 Cd366 2.240 . S
O367 C372 1.279 . S
O368 Cd365 2.297 . S
O368 C370 1.247 . S
O369 Cd365 2.439 . S
O369 C370 1.208 . S
C370 O368 1.247 . S
C370 O369 1.208 . S
C371 O376 1.247 . S
C371 O377 1.208 . S
C372 O364 1.315 . S
C372 O367 1.279 . S
C373 O374 1.315 . S
C373 O375 1.279 . S
O374 Cd366 2.223 . S
O374 C373 1.315 . S
O375 Cd365 2.240 . S
O375 C373 1.279 . S
O376 Cd366 2.297 . S
O376 C371 1.247 . S
O377 Cd366 2.439 . S
O377 C371 1.208 . S
O378 Cd379 2.223 . S
O378 C386 1.315 . S
Cd379 O378 2.223 . S
Cd379 O382 2.297 . S
Cd379 O383 2.439 . S
Cd379 O389 2.240 . S
Cd380 O381 2.240 . S
Cd380 O388 2.223 . S
Cd380 O390 2.297 . S
Cd380 O391 2.439 . S
O381 Cd380 2.240 . S
O381 C386 1.279 . S
O382 Cd379 2.297 . S
O382 C384 1.247 . S
O383 Cd379 2.439 . S
O383 C384 1.208 . S
C384 O382 1.247 . S
C384 O383 1.208 . S
C385 O390 1.247 . S
C385 O391 1.208 . S
C386 O378 1.315 . S
C386 O381 1.279 . S
C387 O388 1.315 . S
C387 O389 1.279 . S
O388 Cd380 2.223 . S
O388 C387 1.315 . S
O389 Cd379 2.240 . S
O389 C387 1.279 . S
O390 Cd380 2.297 . S
O390 C385 1.247 . S
O391 Cd380 2.439 . S
O391 C385 1.208 . S
O392 Cd393 2.223 . S
O392 C400 1.315 . S
Cd393 O392 2.223 . S
Cd393 O396 2.297 . S
Cd393 O397 2.439 . S
Cd393 O403 2.240 . S
Cd394 O395 2.240 . S
Cd394 O402 2.223 . S
Cd394 O404 2.297 . S
Cd394 O405 2.439 . S
O395 Cd394 2.240 . S
O395 C400 1.279 . S
O396 Cd393 2.297 . S
O396 C398 1.247 . S
O397 Cd393 2.439 . S
O397 C398 1.208 . S
C398 O396 1.247 . S
C398 O397 1.208 . S
C399 O404 1.247 . S
C399 O405 1.208 . S
C400 O392 1.315 . S
C400 O395 1.279 . S
C401 O402 1.315 . S
C401 O403 1.279 . S
O402 Cd394 2.223 . S
O402 C401 1.315 . S
O403 Cd393 2.240 . S
O403 C401 1.279 . S
O404 Cd394 2.297 . S
O404 C399 1.247 . S
O405 Cd394 2.439 . S
O405 C399 1.208 . S
O406 Cd407 2.223 . S
O406 C414 1.315 . S
Cd407 O406 2.223 . S
Cd407 O410 2.297 . S
Cd407 O411 2.439 . S
Cd407 O417 2.240 . S
Cd408 O409 2.240 . S
Cd408 O416 2.223 . S
Cd408 O418 2.297 . S
Cd408 O419 2.439 . S
O409 Cd408 2.240 . S
O409 C414 1.279 . S
O410 Cd407 2.297 . S
O410 C412 1.247 . S
O411 Cd407 2.439 . S
O411 C412 1.208 . S
C412 O410 1.247 . S
C412 O411 1.208 . S
C413 O418 1.247 . S
C413 O419 1.208 . S
C414 O406 1.315 . S
C414 O409 1.279 . S
C415 O416 1.315 . S
C415 O417 1.279 . S
O416 Cd408 2.223 . S
O416 C415 1.315 . S
O417 Cd407 2.240 . S
O417 C415 1.279 . S
O418 Cd408 2.297 . S
O418 C413 1.247 . S
O419 Cd408 2.439 . S
O419 C413 1.208 . S
O420 Cd421 2.223 . S
O420 C428 1.315 . S
Cd421 O420 2.223 . S
Cd421 O424 2.297 . S
Cd421 O425 2.439 . S
Cd421 O431 2.240 . S
Cd422 O423 2.240 . S
Cd422 O430 2.223 . S
Cd422 O432 2.297 . S
Cd422 O433 2.439 . S
O423 Cd422 2.240 . S
O423 C428 1.279 . S
O424 Cd421 2.297 . S
O424 C426 1.247 . S
O425 Cd421 2.439 . S
O425 C426 1.208 . S
C426 O424 1.247 . S
C426 O425 1.208 . S
C427 O432 1.247 . S
C427 O433 1.208 . S
C428 O420 1.315 . S
C428 O423 1.279 . S
C429 O430 1.315 . S
C429 O431 1.279 . S
O430 Cd422 2.223 . S
O430 C429 1.315 . S
O431 Cd421 2.240 . S
O431 C429 1.279 . S
O432 Cd422 2.297 . S
O432 C427 1.247 . S
O433 Cd422 2.439 . S
O433 C427 1.208 . S
O434 Cd435 2.223 . S
O434 C442 1.315 . S
Cd435 O434 2.223 . S
Cd435 O438 2.297 . S
Cd435 O439 2.439 . S
Cd435 O445 2.240 . S
Cd436 O437 2.240 . S
Cd436 O444 2.223 . S
Cd436 O446 2.297 . S
Cd436 O447 2.439 . S
O437 Cd436 2.240 . S
O437 C442 1.279 . S
O438 Cd435 2.297 . S
O438 C440 1.247 . S
O439 Cd435 2.439 . S
O439 C440 1.208 . S
C440 O438 1.247 . S
C440 O439 1.208 . S
C441 O446 1.247 . S
C441 O447 1.208 . S
C442 O434 1.315 . S
C442 O437 1.279 . S
C443 O444 1.315 . S
C443 O445 1.279 . S
O444 Cd436 2.223 . S
O444 C443 1.315 . S
O445 Cd435 2.240 . S
O445 C443 1.279 . S
O446 Cd436 2.297 . S
O446 C441 1.247 . S
O447 Cd436 2.439 . S
O447 C441 1.208 . S
H448 C456 0.950 . S
H449 C461 0.950 . S
H450 C458 0.950 . S
H451 C460 0.950 . S
H452 C462 0.950 . S
H453 C464 0.950 . S
H454 C466 0.950 . S
H455 C467 0.950 . S
C456 H448 0.950 . S
C456 C457 1.386 . S
C456 C458 1.391 . S
C457 C456 1.386 . S
C457 C461 1.393 . S
C458 H450 0.950 . S
C458 C456 1.391 . S
C458 C459 1.400 . S
C459 C458 1.400 . S
C459 C460 1.398 . S
C459 C465 1.491 . S
C460 H451 0.950 . S
C460 C459 1.398 . S
C460 C461 1.391 . S
C461 H449 0.950 . S
C461 C457 1.393 . S
C461 C460 1.391 . S
C462 H452 0.950 . S
C462 C463 1.386 . S
C462 C464 1.391 . S
C463 C462 1.386 . S
C463 C467 1.393 . S
C464 H453 0.950 . S
C464 C462 1.391 . S
C464 C465 1.400 . S
C465 C459 1.491 . S
C465 C464 1.400 . S
C465 C466 1.398 . S
C466 H454 0.950 . S
C466 C465 1.398 . S
C466 C467 1.391 . S
C467 H455 0.950 . S
C467 C463 1.393 . S
C467 C466 1.391 . S
H468 C476 0.950 . S
H469 C481 0.950 . S
H470 C478 0.950 . S
H471 C480 0.950 . S
H472 C482 0.950 . S
H473 C484 0.950 . S
H474 C486 0.950 . S
H475 C487 0.950 . S
C476 H468 0.950 . S
C476 C477 1.386 . S
C476 C478 1.391 . S
C477 C476 1.386 . S
C477 C481 1.393 . S
C478 H470 0.950 . S
C478 C476 1.391 . S
C478 C479 1.400 . S
C479 C478 1.400 . S
C479 C480 1.398 . S
C479 C485 1.491 1_565 S
C480 H471 0.950 . S
C480 C479 1.398 . S
C480 C481 1.391 . S
C481 H469 0.950 . S
C481 C477 1.393 . S
C481 C480 1.391 . S
C482 H472 0.950 . S
C482 C483 1.386 . S
C482 C484 1.391 . S
C483 C482 1.386 . S
C483 C487 1.393 . S
C484 H473 0.950 . S
C484 C482 1.391 . S
C484 C485 1.400 . S
C485 C479 1.491 1_545 S
C485 C484 1.400 . S
C485 C486 1.398 . S
C486 H474 0.950 . S
C486 C485 1.398 . S
C486 C487 1.391 . S
C487 H475 0.950 . S
C487 C483 1.393 . S
C487 C486 1.391 . S
H488 C496 0.950 . S
H489 C501 0.950 . S
H490 C498 0.950 . S
H491 C500 0.950 . S
H492 C502 0.950 . S
H493 C504 0.950 . S
H494 C506 0.950 . S
H495 C507 0.950 . S
C496 H488 0.950 . S
C496 C497 1.386 . S
C496 C498 1.391 . S
C497 C496 1.386 . S
C497 C501 1.393 . S
C498 H490 0.950 . S
C498 C496 1.391 . S
C498 C499 1.400 . S
C499 C498 1.400 . S
C499 C500 1.398 . S
C499 C505 1.491 . S
C500 H491 0.950 . S
C500 C499 1.398 . S
C500 C501 1.391 . S
C501 H489 0.950 . S
C501 C497 1.393 . S
C501 C500 1.391 . S
C502 H492 0.950 . S
C502 C503 1.386 . S
C502 C504 1.391 . S
C503 C502 1.386 . S
C503 C507 1.393 . S
C504 H493 0.950 . S
C504 C502 1.391 . S
C504 C505 1.400 . S
C505 C499 1.491 . S
C505 C504 1.400 . S
C505 C506 1.398 . S
C506 H494 0.950 . S
C506 C505 1.398 . S
C506 C507 1.391 . S
C507 H495 0.950 . S
C507 C503 1.393 . S
C507 C506 1.391 . S
H508 C516 0.950 . S
H509 C521 0.950 . S
H510 C518 0.950 . S
H511 C520 0.950 . S
H512 C522 0.950 . S
H513 C524 0.950 . S
H514 C526 0.950 . S
H515 C527 0.950 . S
C516 H508 0.950 . S
C516 C517 1.386 . S
C516 C518 1.391 . S
C517 C516 1.386 . S
C517 C521 1.393 . S
C518 H510 0.950 . S
C518 C516 1.391 . S
C518 C519 1.400 . S
C519 C518 1.400 . S
C519 C520 1.398 . S
C519 C525 1.491 1_546 S
C520 H511 0.950 . S
C520 C519 1.398 . S
C520 C521 1.391 . S
C521 H509 0.950 . S
C521 C517 1.393 . S
C521 C520 1.391 . S
C522 H512 0.950 . S
C522 C523 1.386 . S
C522 C524 1.391 . S
C523 C522 1.386 . S
C523 C527 1.393 . S
C524 H513 0.950 . S
C524 C522 1.391 . S
C524 C525 1.400 . S
C525 C519 1.491 1_564 S
C525 C524 1.400 . S
C525 C526 1.398 . S
C526 H514 0.950 . S
C526 C525 1.398 . S
C526 C527 1.391 . S
C527 H515 0.950 . S
C527 C523 1.393 . S
C527 C526 1.391 . S
H528 C536 0.950 . S
H529 C541 0.950 . S
H530 C538 0.950 . S
H531 C540 0.950 . S
H532 C542 0.950 . S
H533 C544 0.950 . S
H534 C546 0.950 . S
H535 C547 0.950 . S
C536 H528 0.950 . S
C536 C537 1.386 . S
C536 C538 1.391 . S
C537 C536 1.386 . S
C537 C541 1.393 . S
C538 H530 0.950 . S
C538 C536 1.391 . S
C538 C539 1.400 . S
C539 C538 1.400 . S
C539 C540 1.398 . S
C539 C545 1.491 . S
C540 H531 0.950 . S
C540 C539 1.398 . S
C540 C541 1.391 . S
C541 H529 0.950 . S
C541 C537 1.393 . S
C541 C540 1.391 . S
C542 H532 0.950 . S
C542 C543 1.386 . S
C542 C544 1.391 . S
C543 C542 1.386 . S
C543 C547 1.393 . S
C544 H533 0.950 . S
C544 C542 1.391 . S
C544 C545 1.400 . S
C545 C539 1.491 . S
C545 C544 1.400 . S
C545 C546 1.398 . S
C546 H534 0.950 . S
C546 C545 1.398 . S
C546 C547 1.391 . S
C547 H535 0.950 . S
C547 C543 1.393 . S
C547 C546 1.391 . S
H548 C556 0.950 . S
H549 C561 0.950 . S
H550 C558 0.950 . S
H551 C560 0.950 . S
H552 C562 0.950 . S
H553 C564 0.950 . S
H554 C566 0.950 . S
H555 C567 0.950 . S
C556 H548 0.950 . S
C556 C557 1.386 . S
C556 C558 1.391 . S
C557 C556 1.386 . S
C557 C561 1.393 . S
C558 H550 0.950 . S
C558 C556 1.391 . S
C558 C559 1.400 . S
C559 C558 1.400 . S
C559 C560 1.398 . S
C559 C565 1.491 1_565 S
C560 H551 0.950 . S
C560 C559 1.398 . S
C560 C561 1.391 . S
C561 H549 0.950 . S
C561 C557 1.393 . S
C561 C560 1.391 . S
C562 H552 0.950 . S
C562 C563 1.386 . S
C562 C564 1.391 . S
C563 C562 1.386 . S
C563 C567 1.393 . S
C564 H553 0.950 . S
C564 C562 1.391 . S
C564 C565 1.400 . S
C565 C559 1.491 1_545 S
C565 C564 1.400 . S
C565 C566 1.398 . S
C566 H554 0.950 . S
C566 C565 1.398 . S
C566 C567 1.391 . S
C567 H555 0.950 . S
C567 C563 1.393 . S
C567 C566 1.391 . S
H568 C576 0.950 . S
H569 C581 0.950 . S
H570 C578 0.950 . S
H571 C580 0.950 . S
H572 C582 0.950 . S
H573 C584 0.950 . S
H574 C586 0.950 . S
H575 C587 0.950 . S
C576 H568 0.950 . S
C576 C577 1.386 . S
C576 C578 1.391 . S
C577 C576 1.386 . S
C577 C581 1.393 . S
C578 H570 0.950 . S
C578 C576 1.391 . S
C578 C579 1.400 . S
C579 C578 1.400 . S
C579 C580 1.398 . S
C579 C585 1.491 . S
C580 H571 0.950 . S
C580 C579 1.398 . S
C580 C581 1.391 . S
C581 H569 0.950 . S
C581 C577 1.393 . S
C581 C580 1.391 . S
C582 H572 0.950 . S
C582 C583 1.386 . S
C582 C584 1.391 . S
C583 C582 1.386 . S
C583 C587 1.393 . S
C584 H573 0.950 . S
C584 C582 1.391 . S
C584 C585 1.400 . S
C585 C579 1.491 . S
C585 C584 1.400 . S
C585 C586 1.398 . S
C586 H574 0.950 . S
C586 C585 1.398 . S
C586 C587 1.391 . S
C587 H575 0.950 . S
C587 C583 1.393 . S
C587 C586 1.391 . S
H588 C596 0.950 1_554 S
H589 C601 0.950 . S
H590 C598 0.950 . S
H591 C600 0.950 . S
H592 C602 0.950 1_556 S
H593 C604 0.950 . S
H594 C606 0.950 . S
H595 C607 0.950 . S
C596 H588 0.950 1_556 S
C596 C597 1.386 . S
C596 C598 1.391 1_556 S
C597 C596 1.386 . S
C597 C601 1.393 . S
C598 H590 0.950 . S
C598 C596 1.391 1_554 S
C598 C599 1.400 1_554 S
C599 C598 1.400 1_556 S
C599 C600 1.398 . S
C599 C605 1.491 1_546 S
C600 H591 0.950 . S
C600 C599 1.398 . S
C600 C601 1.391 . S
C601 H589 0.950 . S
C601 C597 1.393 . S
C601 C600 1.391 . S
C602 H592 0.950 1_554 S
C602 C603 1.386 . S
C602 C604 1.391 1_554 S
C603 C602 1.386 . S
C603 C607 1.393 . S
C604 H593 0.950 . S
C604 C602 1.391 1_556 S
C604 C605 1.400 1_556 S
C605 C599 1.491 1_564 S
C605 C604 1.400 1_554 S
C605 C606 1.398 . S
C606 H594 0.950 . S
C606 C605 1.398 . S
C606 C607 1.391 . S
C607 H595 0.950 . S
C607 C603 1.393 . S
C607 C606 1.391 . S
H608 C616 0.950 . S
H609 C621 0.950 . S
H610 C618 0.950 . S
H611 C620 0.950 . S
H612 C622 0.950 . S
H613 C624 0.950 . S
H614 C626 0.950 . S
H615 C627 0.950 . S
C616 H608 0.950 . S
C616 C617 1.386 . S
C616 C618 1.391 . S
C617 C616 1.386 . S
C617 C621 1.393 . S
C618 H610 0.950 . S
C618 C616 1.391 . S
C618 C619 1.400 . S
C619 C618 1.400 . S
C619 C620 1.398 . S
C619 C625 1.491 . S
C620 H611 0.950 . S
C620 C619 1.398 . S
C620 C621 1.391 . S
C621 H609 0.950 . S
C621 C617 1.393 . S
C621 C620 1.391 . S
C622 H612 0.950 . S
C622 C623 1.386 . S
C622 C624 1.391 . S
C623 C622 1.386 . S
C623 C627 1.393 . S
C624 H613 0.950 . S
C624 C622 1.391 . S
C624 C625 1.400 . S
C625 C619 1.491 . S
C625 C624 1.400 . S
C625 C626 1.398 . S
C626 H614 0.950 . S
C626 C625 1.398 . S
C626 C627 1.391 . S
C627 H615 0.950 . S
C627 C623 1.393 . S
C627 C626 1.391 . S
H628 C636 0.950 . S
H629 C641 0.950 . S
H630 C638 0.950 . S
H631 C640 0.950 1_554 S
H632 C642 0.950 . S
H633 C644 0.950 . S
H634 C646 0.950 1_556 S
H635 C647 0.950 . S
C636 H628 0.950 . S
C636 C637 1.386 . S
C636 C638 1.391 . S
C637 C636 1.386 . S
C637 C641 1.393 . S
C638 H630 0.950 . S
C638 C636 1.391 . S
C638 C639 1.400 . S
C639 C638 1.400 . S
C639 C640 1.398 . S
C639 C645 1.491 1_556 S
C640 H631 0.950 1_556 S
C640 C639 1.398 . S
C640 C641 1.391 . S
C641 H629 0.950 . S
C641 C637 1.393 . S
C641 C640 1.391 . S
C642 H632 0.950 . S
C642 C643 1.386 . S
C642 C644 1.391 . S
C643 C642 1.386 . S
C643 C647 1.393 . S
C644 H633 0.950 . S
C644 C642 1.391 . S
C644 C645 1.400 . S
C645 C639 1.491 1_554 S
C645 C644 1.400 . S
C645 C646 1.398 . S
C646 H634 0.950 1_554 S
C646 C645 1.398 . S
C646 C647 1.391 . S
C647 H635 0.950 . S
C647 C643 1.393 . S
C647 C646 1.391 . S
H648 C656 0.950 . S
H649 C661 0.950 . S
H650 C658 0.950 . S
H651 C660 0.950 . S
H652 C662 0.950 . S
H653 C664 0.950 . S
H654 C666 0.950 . S
H655 C667 0.950 . S
C656 H648 0.950 . S
C656 C657 1.386 . S
C656 C658 1.391 . S
C657 C656 1.386 . S
C657 C661 1.393 . S
C658 H650 0.950 . S
C658 C656 1.391 . S
C658 C659 1.400 . S
C659 C658 1.400 . S
C659 C660 1.398 . S
C659 C665 1.491 . S
C660 H651 0.950 . S
C660 C659 1.398 . S
C660 C661 1.391 . S
C661 H649 0.950 . S
C661 C657 1.393 . S
C661 C660 1.391 . S
C662 H652 0.950 . S
C662 C663 1.386 . S
C662 C664 1.391 . S
C663 C662 1.386 . S
C663 C667 1.393 . S
C664 H653 0.950 . S
C664 C662 1.391 . S
C664 C665 1.400 . S
C665 C659 1.491 . S
C665 C664 1.400 . S
C665 C666 1.398 . S
C666 H654 0.950 . S
C666 C665 1.398 . S
C666 C667 1.391 . S
C667 H655 0.950 . S
C667 C663 1.393 . S
C667 C666 1.391 . S
H668 C676 0.950 . S
H669 C681 0.950 . S
H670 C678 0.950 . S
H671 C680 0.950 . S
H672 C682 0.950 . S
H673 C684 0.950 . S
H674 C686 0.950 . S
H675 C687 0.950 . S
C676 H668 0.950 . S
C676 C677 1.386 . S
C676 C678 1.391 . S
C677 C676 1.386 . S
C677 C681 1.393 . S
C678 H670 0.950 . S
C678 C676 1.391 . S
C678 C679 1.400 . S
C679 C678 1.400 . S
C679 C680 1.398 . S
C679 C685 1.491 . S
C680 H671 0.950 . S
C680 C679 1.398 . S
C680 C681 1.391 . S
C681 H669 0.950 . S
C681 C677 1.393 . S
C681 C680 1.391 . S
C682 H672 0.950 . S
C682 C683 1.386 . S
C682 C684 1.391 . S
C683 C682 1.386 . S
C683 C687 1.393 . S
C684 H673 0.950 . S
C684 C682 1.391 . S
C684 C685 1.400 . S
C685 C679 1.491 . S
C685 C684 1.400 . S
C685 C686 1.398 . S
C686 H674 0.950 . S
C686 C685 1.398 . S
C686 C687 1.391 . S
C687 H675 0.950 . S
C687 C683 1.393 . S
C687 C686 1.391 . S
H688 C696 0.950 . S
H689 C701 0.950 . S
H690 C698 0.950 . S
H691 C700 0.950 . S
H692 C702 0.950 . S
H693 C704 0.950 . S
H694 C706 0.950 . S
H695 C707 0.950 . S
C696 H688 0.950 . S
C696 C697 1.386 . S
C696 C698 1.391 . S
C697 C696 1.386 . S
C697 C701 1.393 . S
C698 H690 0.950 . S
C698 C696 1.391 . S
C698 C699 1.400 . S
C699 C698 1.400 . S
C699 C700 1.398 . S
C699 C705 1.491 . S
C700 H691 0.950 . S
C700 C699 1.398 . S
C700 C701 1.391 . S
C701 H689 0.950 . S
C701 C697 1.393 . S
C701 C700 1.391 . S
C702 H692 0.950 . S
C702 C703 1.386 . S
C702 C704 1.391 . S
C703 C702 1.386 . S
C703 C707 1.393 . S
C704 H693 0.950 . S
C704 C702 1.391 . S
C704 C705 1.400 . S
C705 C699 1.491 . S
C705 C704 1.400 . S
C705 C706 1.398 . S
C706 H694 0.950 . S
C706 C705 1.398 . S
C706 C707 1.391 . S
C707 H695 0.950 . S
C707 C703 1.393 . S
C707 C706 1.391 . S
H708 C716 0.950 . S
H709 C721 0.950 . S
H710 C718 0.950 1_556 S
H711 C720 0.950 . S
H712 C722 0.950 . S
H713 C724 0.950 1_554 S
H714 C726 0.950 . S
H715 C727 0.950 . S
C716 H708 0.950 . S
C716 C717 1.386 . S
C716 C718 1.391 . S
C717 C716 1.386 . S
C717 C721 1.393 . S
C718 H710 0.950 1_554 S
C718 C716 1.391 . S
C718 C719 1.400 . S
C719 C718 1.400 . S
C719 C720 1.398 . S
C719 C725 1.491 1_554 S
C720 H711 0.950 . S
C720 C719 1.398 . S
C720 C721 1.391 . S
C721 H709 0.950 . S
C721 C717 1.393 . S
C721 C720 1.391 . S
C722 H712 0.950 . S
C722 C723 1.386 . S
C722 C724 1.391 . S
C723 C722 1.386 . S
C723 C727 1.393 . S
C724 H713 0.950 1_556 S
C724 C722 1.391 . S
C724 C725 1.400 . S
C725 C719 1.491 1_556 S
C725 C724 1.400 . S
C725 C726 1.398 . S
C726 H714 0.950 . S
C726 C725 1.398 . S
C726 C727 1.391 . S
C727 H715 0.950 . S
C727 C723 1.393 . S
C727 C726 1.391 . S
H728 C736 0.950 . S
H729 C741 0.950 . S
H730 C738 0.950 . S
H731 C740 0.950 . S
H732 C742 0.950 . S
H733 C744 0.950 . S
H734 C746 0.950 . S
H735 C747 0.950 . S
C736 H728 0.950 . S
C736 C737 1.386 . S
C736 C738 1.391 . S
C737 C736 1.386 . S
C737 C741 1.393 . S
C738 H730 0.950 . S
C738 C736 1.391 . S
C738 C739 1.400 . S
C739 C738 1.400 . S
C739 C740 1.398 . S
C739 C745 1.491 . S
C740 H731 0.950 . S
C740 C739 1.398 . S
C740 C741 1.391 . S
C741 H729 0.950 . S
C741 C737 1.393 . S
C741 C740 1.391 . S
C742 H732 0.950 . S
C742 C743 1.386 . S
C742 C744 1.391 . S
C743 C742 1.386 . S
C743 C747 1.393 . S
C744 H733 0.950 . S
C744 C742 1.391 . S
C744 C745 1.400 . S
C745 C739 1.491 . S
C745 C744 1.400 . S
C745 C746 1.398 . S
C746 H734 0.950 . S
C746 C745 1.398 . S
C746 C747 1.391 . S
C747 H735 0.950 . S
C747 C743 1.393 . S
C747 C746 1.391 . S
H748 C756 0.950 . S
H749 C761 0.950 . S
H750 C758 0.950 . S
H751 C760 0.950 . S
H752 C762 0.950 . S
H753 C764 0.950 . S
H754 C766 0.950 . S
H755 C767 0.950 . S
C756 H748 0.950 . S
C756 C757 1.386 . S
C756 C758 1.391 . S
C757 C756 1.386 . S
C757 C761 1.393 . S
C758 H750 0.950 . S
C758 C756 1.391 . S
C758 C759 1.400 . S
C759 C758 1.400 . S
C759 C760 1.398 . S
C759 C765 1.491 . S
C760 H751 0.950 . S
C760 C759 1.398 . S
C760 C761 1.391 . S
C761 H749 0.950 . S
C761 C757 1.393 . S
C761 C760 1.391 . S
C762 H752 0.950 . S
C762 C763 1.386 . S
C762 C764 1.391 . S
C763 C762 1.386 . S
C763 C767 1.393 . S
C764 H753 0.950 . S
C764 C762 1.391 . S
C764 C765 1.400 . S
C765 C759 1.491 . S
C765 C764 1.400 . S
C765 C766 1.398 . S
C766 H754 0.950 . S
C766 C765 1.398 . S
C766 C767 1.391 . S
C767 H755 0.950 . S
C767 C763 1.393 . S
C767 C766 1.391 . S
H768 C776 0.950 . S
H769 C781 0.950 1_554 S
H770 C778 0.950 . S
H771 C780 0.950 . S
H772 C782 0.950 . S
H773 C784 0.950 . S
H774 C786 0.950 . S
H775 C787 0.950 . S
C776 H768 0.950 . S
C776 C777 1.386 . S
C776 C778 1.391 . S
C777 C776 1.386 . S
C777 C781 1.393 . S
C778 H770 0.950 . S
C778 C776 1.391 . S
C778 C779 1.400 . S
C779 C778 1.400 . S
C779 C780 1.398 . S
C779 C785 1.491 . S
C780 H771 0.950 . S
C780 C779 1.398 . S
C780 C781 1.391 . S
C781 H769 0.950 1_556 S
C781 C777 1.393 . S
C781 C780 1.391 . S
C782 H772 0.950 . S
C782 C783 1.386 . S
C782 C784 1.391 . S
C783 C782 1.386 . S
C783 C787 1.393 . S
C784 H773 0.950 . S
C784 C782 1.391 . S
C784 C785 1.400 . S
C785 C779 1.491 . S
C785 C784 1.400 . S
C785 C786 1.398 . S
C786 H774 0.950 . S
C786 C785 1.398 . S
C786 C787 1.391 . S
C787 H775 0.950 . S
C787 C783 1.393 . S
C787 C786 1.391 . S
H788 C796 0.950 . S
H789 C801 0.950 1_556 S
H790 C798 0.950 . S
H791 C800 0.950 . S
H792 C802 0.950 . S
H793 C804 0.950 . S
H794 C806 0.950 . S
H795 C807 0.950 . S
C796 H788 0.950 . S
C796 C797 1.386 . S
C796 C798 1.391 . S
C797 C796 1.386 . S
C797 C801 1.393 . S
C798 H790 0.950 . S
C798 C796 1.391 . S
C798 C799 1.400 . S
C799 C798 1.400 . S
C799 C800 1.398 . S
C799 C805 1.491 . S
C800 H791 0.950 . S
C800 C799 1.398 . S
C800 C801 1.391 . S
C801 H789 0.950 1_554 S
C801 C797 1.393 . S
C801 C800 1.391 . S
C802 H792 0.950 . S
C802 C803 1.386 . S
C802 C804 1.391 . S
C803 C802 1.386 . S
C803 C807 1.393 . S
C804 H793 0.950 . S
C804 C802 1.391 . S
C804 C805 1.400 . S
C805 C799 1.491 . S
C805 C804 1.400 . S
C805 C806 1.398 . S
C806 H794 0.950 . S
C806 C805 1.398 . S
C806 C807 1.391 . S
C807 H795 0.950 . S
C807 C803 1.393 . S
C807 C806 1.391 . S
H808 C816 0.950 . S
H809 C821 0.950 . S
H810 C818 0.950 . S
H811 C820 0.950 . S
H812 C822 0.950 . S
H813 C824 0.950 . S
H814 C826 0.950 . S
H815 C827 0.950 . S
C816 H808 0.950 . S
C816 C817 1.386 . S
C816 C818 1.391 . S
C817 C816 1.386 . S
C817 C821 1.393 . S
C818 H810 0.950 . S
C818 C816 1.391 . S
C818 C819 1.400 . S
C819 C818 1.400 . S
C819 C820 1.398 . S
C819 C825 1.491 . S
C820 H811 0.950 . S
C820 C819 1.398 . S
C820 C821 1.391 . S
C821 H809 0.950 . S
C821 C817 1.393 . S
C821 C820 1.391 . S
C822 H812 0.950 . S
C822 C823 1.386 . S
C822 C824 1.391 . S
C823 C822 1.386 . S
C823 C827 1.393 . S
C824 H813 0.950 . S
C824 C822 1.391 . S
C824 C825 1.400 . S
C825 C819 1.491 . S
C825 C824 1.400 . S
C825 C826 1.398 . S
C826 H814 0.950 . S
C826 C825 1.398 . S
C826 C827 1.391 . S
C827 H815 0.950 . S
C827 C823 1.393 . S
C827 C826 1.391 . S
H828 C836 0.950 . S
H829 C841 0.950 . S
H830 C838 0.950 . S
H831 C840 0.950 . S
H832 C842 0.950 . S
H833 C844 0.950 . S
H834 C846 0.950 . S
H835 C847 0.950 . S
C836 H828 0.950 . S
C836 C837 1.386 . S
C836 C838 1.391 . S
C837 C836 1.386 . S
C837 C841 1.393 . S
C838 H830 0.950 . S
C838 C836 1.391 . S
C838 C839 1.400 . S
C839 C838 1.400 . S
C839 C840 1.398 . S
C839 C845 1.491 . S
C840 H831 0.950 . S
C840 C839 1.398 . S
C840 C841 1.391 . S
C841 H829 0.950 . S
C841 C837 1.393 . S
C841 C840 1.391 . S
C842 H832 0.950 . S
C842 C843 1.386 . S
C842 C844 1.391 . S
C843 C842 1.386 . S
C843 C847 1.393 . S
C844 H833 0.950 . S
C844 C842 1.391 . S
C844 C845 1.400 . S
C845 C839 1.491 . S
C845 C844 1.400 . S
C845 C846 1.398 . S
C846 H834 0.950 . S
C846 C845 1.398 . S
C846 C847 1.391 . S
C847 H835 0.950 . S
C847 C843 1.393 . S
C847 C846 1.391 . S
H848 C856 0.950 . S
H849 C861 0.950 . S
H850 C858 0.950 . S
H851 C860 0.950 . S
H852 C862 0.950 . S
H853 C864 0.950 . S
H854 C866 0.950 . S
H855 C867 0.950 . S
C856 H848 0.950 . S
C856 C857 1.386 . S
C856 C858 1.391 . S
C857 C856 1.386 . S
C857 C861 1.393 . S
C858 H850 0.950 . S
C858 C856 1.391 . S
C858 C859 1.400 . S
C859 C858 1.400 . S
C859 C860 1.398 . S
C859 C865 1.491 . S
C860 H851 0.950 . S
C860 C859 1.398 . S
C860 C861 1.391 . S
C861 H849 0.950 . S
C861 C857 1.393 . S
C861 C860 1.391 . S
C862 H852 0.950 . S
C862 C863 1.386 . S
C862 C864 1.391 . S
C863 C862 1.386 . S
C863 C867 1.393 . S
C864 H853 0.950 . S
C864 C862 1.391 . S
C864 C865 1.400 . S
C865 C859 1.491 . S
C865 C864 1.400 . S
C865 C866 1.398 . S
C866 H854 0.950 . S
C866 C865 1.398 . S
C866 C867 1.391 . S
C867 H855 0.950 . S
C867 C863 1.393 . S
C867 C866 1.391 . S
H868 C876 0.950 1_554 S
H869 C881 0.950 . S
H870 C878 0.950 . S
H871 C880 0.950 . S
H872 C882 0.950 . S
H873 C884 0.950 . S
H874 C886 0.950 . S
H875 C887 0.950 . S
C876 H868 0.950 1_556 S
C876 C877 1.386 . S
C876 C878 1.391 . S
C877 C876 1.386 . S
C877 C881 1.393 . S
C878 H870 0.950 . S
C878 C876 1.391 . S
C878 C879 1.400 . S
C879 C878 1.400 . S
C879 C880 1.398 . S
C879 C885 1.491 . S
C880 H871 0.950 . S
C880 C879 1.398 . S
C880 C881 1.391 . S
C881 H869 0.950 . S
C881 C877 1.393 . S
C881 C880 1.391 . S
C882 H872 0.950 . S
C882 C883 1.386 . S
C882 C884 1.391 . S
C883 C882 1.386 . S
C883 C887 1.393 . S
C884 H873 0.950 . S
C884 C882 1.391 . S
C884 C885 1.400 . S
C885 C879 1.491 . S
C885 C884 1.400 . S
C885 C886 1.398 . S
C886 H874 0.950 . S
C886 C885 1.398 . S
C886 C887 1.391 . S
C887 H875 0.950 . S
C887 C883 1.393 . S
C887 C886 1.391 . S
H888 C896 0.950 . S
H889 C901 0.950 . S
H890 C898 0.950 . S
H891 C900 0.950 . S
H892 C902 0.950 . S
H893 C904 0.950 . S
H894 C906 0.950 . S
H895 C907 0.950 . S
C896 H888 0.950 . S
C896 C897 1.386 . S
C896 C898 1.391 . S
C897 C896 1.386 . S
C897 C901 1.393 . S
C898 H890 0.950 . S
C898 C896 1.391 . S
C898 C899 1.400 . S
C899 C898 1.400 . S
C899 C900 1.398 . S
C899 C905 1.491 . S
C900 H891 0.950 . S
C900 C899 1.398 . S
C900 C901 1.391 . S
C901 H889 0.950 . S
C901 C897 1.393 . S
C901 C900 1.391 . S
C902 H892 0.950 . S
C902 C903 1.386 . S
C902 C904 1.391 . S
C903 C902 1.386 . S
C903 C907 1.393 . S
C904 H893 0.950 . S
C904 C902 1.391 . S
C904 C905 1.400 . S
C905 C899 1.491 . S
C905 C904 1.400 . S
C905 C906 1.398 . S
C906 H894 0.950 . S
C906 C905 1.398 . S
C906 C907 1.391 . S
C907 H895 0.950 . S
C907 C903 1.393 . S
C907 C906 1.391 . S
H908 C916 0.950 . S
H909 C921 0.950 . S
H910 C918 0.950 . S
H911 C920 0.950 . S
H912 C922 0.950 . S
H913 C924 0.950 . S
H914 C926 0.950 . S
H915 C927 0.950 . S
C916 H908 0.950 . S
C916 C917 1.386 . S
C916 C918 1.391 . S
C917 C916 1.386 . S
C917 C921 1.393 . S
C918 H910 0.950 . S
C918 C916 1.391 . S
C918 C919 1.400 . S
C919 C918 1.400 . S
C919 C920 1.398 . S
C919 C925 1.491 . S
C920 H911 0.950 . S
C920 C919 1.398 . S
C920 C921 1.391 . S
C921 H909 0.950 . S
C921 C917 1.393 . S
C921 C920 1.391 . S
C922 H912 0.950 . S
C922 C923 1.386 . S
C922 C924 1.391 . S
C923 C922 1.386 . S
C923 C927 1.393 . S
C924 H913 0.950 . S
C924 C922 1.391 . S
C924 C925 1.400 . S
C925 C919 1.491 . S
C925 C924 1.400 . S
C925 C926 1.398 . S
C926 H914 0.950 . S
C926 C925 1.398 . S
C926 C927 1.391 . S
C927 H915 0.950 . S
C927 C923 1.393 . S
C927 C926 1.391 . S
H928 C936 0.950 . S
H929 C941 0.950 . S
H930 C938 0.950 . S
H931 C940 0.950 . S
H932 C942 0.950 . S
H933 C944 0.950 . S
H934 C946 0.950 . S
H935 C947 0.950 . S
C936 H928 0.950 . S
C936 C937 1.386 . S
C936 C938 1.391 . S
C937 C936 1.386 . S
C937 C941 1.393 . S
C938 H930 0.950 . S
C938 C936 1.391 . S
C938 C939 1.400 . S
C939 C938 1.400 . S
C939 C940 1.398 . S
C939 C945 1.491 . S
C940 H931 0.950 . S
C940 C939 1.398 . S
C940 C941 1.391 . S
C941 H929 0.950 . S
C941 C937 1.393 . S
C941 C940 1.391 . S
C942 H932 0.950 . S
C942 C943 1.386 . S
C942 C944 1.391 . S
C943 C942 1.386 . S
C943 C947 1.393 . S
C944 H933 0.950 . S
C944 C942 1.391 . S
C944 C945 1.400 . S
C945 C939 1.491 . S
C945 C944 1.400 . S
C945 C946 1.398 . S
C946 H934 0.950 . S
C946 C945 1.398 . S
C946 C947 1.391 . S
C947 H935 0.950 . S
C947 C943 1.393 . S
C947 C946 1.391 . S
H948 C956 0.950 . S
H949 C961 0.950 . S
H950 C958 0.950 . S
H951 C960 0.950 . S
H952 C962 0.950 . S
H953 C964 0.950 . S
H954 C966 0.950 . S
H955 C967 0.950 . S
C956 H948 0.950 . S
C956 C957 1.386 . S
C956 C958 1.391 . S
C957 C956 1.386 . S
C957 C961 1.393 . S
C958 H950 0.950 . S
C958 C956 1.391 . S
C958 C959 1.400 . S
C959 C958 1.400 . S
C959 C960 1.398 . S
C959 C965 1.491 . S
C960 H951 0.950 . S
C960 C959 1.398 . S
C960 C961 1.391 . S
C961 H949 0.950 . S
C961 C957 1.393 . S
C961 C960 1.391 . S
C962 H952 0.950 . S
C962 C963 1.386 . S
C962 C964 1.391 . S
C963 C962 1.386 . S
C963 C967 1.393 . S
C964 H953 0.950 . S
C964 C962 1.391 . S
C964 C965 1.400 . S
C965 C959 1.491 . S
C965 C964 1.400 . S
C965 C966 1.398 . S
C966 H954 0.950 . S
C966 C965 1.398 . S
C966 C967 1.391 . S
C967 H955 0.950 . S
C967 C963 1.393 . S
C967 C966 1.391 . S
H968 C976 0.950 . S
H969 C981 0.950 . S
H970 C978 0.950 . S
H971 C980 0.950 . S
H972 C982 0.950 . S
H973 C984 0.950 . S
H974 C986 0.950 . S
H975 C987 0.950 1_554 S
C976 H968 0.950 . S
C976 C977 1.386 . S
C976 C978 1.391 . S
C977 C976 1.386 . S
C977 C981 1.393 . S
C978 H970 0.950 . S
C978 C976 1.391 . S
C978 C979 1.400 . S
C979 C978 1.400 . S
C979 C980 1.398 . S
C979 C985 1.491 . S
C980 H971 0.950 . S
C980 C979 1.398 . S
C980 C981 1.391 . S
C981 H969 0.950 . S
C981 C977 1.393 . S
C981 C980 1.391 . S
C982 H972 0.950 . S
C982 C983 1.386 . S
C982 C984 1.391 . S
C983 C982 1.386 . S
C983 C987 1.393 . S
C984 H973 0.950 . S
C984 C982 1.391 . S
C984 C985 1.400 . S
C985 C979 1.491 . S
C985 C984 1.400 . S
C985 C986 1.398 . S
C986 H974 0.950 . S
C986 C985 1.398 . S
C986 C987 1.391 . S
C987 H975 0.950 1_556 S
C987 C983 1.393 . S
C987 C986 1.391 . S
H988 C996 0.950 . S
H989 C1001 0.950 . S
H990 C998 0.950 . S
H991 C1000 0.950 . S
H992 C1002 0.950 . S
H993 C1004 0.950 . S
H994 C1006 0.950 . S
H995 C1007 0.950 1_556 S
C996 H988 0.950 . S
C996 C997 1.386 . S
C996 C998 1.391 . S
C997 C996 1.386 . S
C997 C1001 1.393 . S
C998 H990 0.950 . S
C998 C996 1.391 . S
C998 C999 1.400 . S
C999 C998 1.400 . S
C999 C1000 1.398 . S
C999 C1005 1.491 . S
C1000 H991 0.950 . S
C1000 C999 1.398 . S
C1000 C1001 1.391 . S
C1001 H989 0.950 . S
C1001 C997 1.393 . S
C1001 C1000 1.391 . S
C1002 H992 0.950 . S
C1002 C1003 1.386 . S
C1002 C1004 1.391 . S
C1003 C1002 1.386 . S
C1003 C1007 1.393 . S
C1004 H993 0.950 . S
C1004 C1002 1.391 . S
C1004 C1005 1.400 . S
C1005 C999 1.491 . S
C1005 C1004 1.400 . S
C1005 C1006 1.398 . S
C1006 H994 0.950 . S
C1006 C1005 1.398 . S
C1006 C1007 1.391 . S
C1007 H995 0.950 1_554 S
C1007 C1003 1.393 . S
C1007 C1006 1.391 . S
H1008 C1016 0.950 . S
H1009 C1021 0.950 . S
H1010 C1018 0.950 . S
H1011 C1020 0.950 . S
H1012 C1022 0.950 . S
H1013 C1024 0.950 . S
H1014 C1026 0.950 . S
H1015 C1027 0.950 . S
C1016 H1008 0.950 . S
C1016 C1017 1.386 . S
C1016 C1018 1.391 . S
C1017 C1016 1.386 . S
C1017 C1021 1.393 . S
C1018 H1010 0.950 . S
C1018 C1016 1.391 . S
C1018 C1019 1.400 . S
C1019 C1018 1.400 . S
C1019 C1020 1.398 . S
C1019 C1025 1.491 . S
C1020 H1011 0.950 . S
C1020 C1019 1.398 . S
C1020 C1021 1.391 . S
C1021 H1009 0.950 . S
C1021 C1017 1.393 . S
C1021 C1020 1.391 . S
C1022 H1012 0.950 . S
C1022 C1023 1.386 . S
C1022 C1024 1.391 . S
C1023 C1022 1.386 . S
C1023 C1027 1.393 . S
C1024 H1013 0.950 . S
C1024 C1022 1.391 . S
C1024 C1025 1.400 . S
C1025 C1019 1.491 . S
C1025 C1024 1.400 . S
C1025 C1026 1.398 . S
C1026 H1014 0.950 . S
C1026 C1025 1.398 . S
C1026 C1027 1.391 . S
C1027 H1015 0.950 . S
C1027 C1023 1.393 . S
C1027 C1026 1.391 . S
H1028 C1036 0.950 . S
H1029 C1041 0.950 . S
H1030 C1038 0.950 . S
H1031 C1040 0.950 . S
H1032 C1042 0.950 . S
H1033 C1044 0.950 . S
H1034 C1046 0.950 . S
H1035 C1047 0.950 . S
C1036 H1028 0.950 . S
C1036 C1037 1.386 . S
C1036 C1038 1.391 . S
C1037 C1036 1.386 . S
C1037 C1041 1.393 . S
C1038 H1030 0.950 . S
C1038 C1036 1.391 . S
C1038 C1039 1.400 . S
C1039 C1038 1.400 . S
C1039 C1040 1.398 . S
C1039 C1045 1.491 . S
C1040 H1031 0.950 . S
C1040 C1039 1.398 . S
C1040 C1041 1.391 . S
C1041 H1029 0.950 . S
C1041 C1037 1.393 . S
C1041 C1040 1.391 . S
C1042 H1032 0.950 . S
C1042 C1043 1.386 . S
C1042 C1044 1.391 . S
C1043 C1042 1.386 . S
C1043 C1047 1.393 . S
C1044 H1033 0.950 . S
C1044 C1042 1.391 . S
C1044 C1045 1.400 . S
C1045 C1039 1.491 . S
C1045 C1044 1.400 . S
C1045 C1046 1.398 . S
C1046 H1034 0.950 . S
C1046 C1045 1.398 . S
C1046 C1047 1.391 . S
C1047 H1035 0.950 . S
C1047 C1043 1.393 . S
C1047 C1046 1.391 . S
H1048 C1056 0.950 . S
H1049 C1061 0.950 1_556 S
H1050 C1058 0.950 . S
H1051 C1060 0.950 . S
H1052 C1062 0.950 . S
H1053 C1064 0.950 . S
H1054 C1066 0.950 . S
H1055 C1067 0.950 . S
C1056 H1048 0.950 . S
C1056 C1057 1.386 . S
C1056 C1058 1.391 . S
C1057 C1056 1.386 . S
C1057 C1061 1.393 . S
C1058 H1050 0.950 . S
C1058 C1056 1.391 . S
C1058 C1059 1.400 . S
C1059 C1058 1.400 . S
C1059 C1060 1.398 . S
C1059 C1065 1.491 . S
C1060 H1051 0.950 . S
C1060 C1059 1.398 . S
C1060 C1061 1.391 . S
C1061 H1049 0.950 1_554 S
C1061 C1057 1.393 . S
C1061 C1060 1.391 . S
C1062 H1052 0.950 . S
C1062 C1063 1.386 . S
C1062 C1064 1.391 . S
C1063 C1062 1.386 . S
C1063 C1067 1.393 . S
C1064 H1053 0.950 . S
C1064 C1062 1.391 . S
C1064 C1065 1.400 . S
C1065 C1059 1.491 . S
C1065 C1064 1.400 . S
C1065 C1066 1.398 . S
C1066 H1054 0.950 . S
C1066 C1065 1.398 . S
C1066 C1067 1.391 . S
C1067 H1055 0.950 . S
C1067 C1063 1.393 . S
C1067 C1066 1.391 . S
H1068 C1076 0.950 . S
H1069 C1081 0.950 . S
H1070 C1078 0.950 . S
H1071 C1080 0.950 . S
H1072 C1082 0.950 1_554 S
H1073 C1084 0.950 . S
H1074 C1086 0.950 . S
H1075 C1087 0.950 . S
C1076 H1068 0.950 . S
C1076 C1077 1.386 . S
C1076 C1078 1.391 . S
C1077 C1076 1.386 . S
C1077 C1081 1.393 . S
C1078 H1070 0.950 . S
C1078 C1076 1.391 . S
C1078 C1079 1.400 . S
C1079 C1078 1.400 . S
C1079 C1080 1.398 . S
C1079 C1085 1.491 . S
C1080 H1071 0.950 . S
C1080 C1079 1.398 . S
C1080 C1081 1.391 . S
C1081 H1069 0.950 . S
C1081 C1077 1.393 . S
C1081 C1080 1.391 . S
C1082 H1072 0.950 1_556 S
C1082 C1083 1.386 . S
C1082 C1084 1.391 . S
C1083 C1082 1.386 . S
C1083 C1087 1.393 . S
C1084 H1073 0.950 . S
C1084 C1082 1.391 . S
C1084 C1085 1.400 . S
C1085 C1079 1.491 . S
C1085 C1084 1.400 . S
C1085 C1086 1.398 . S
C1086 H1074 0.950 . S
C1086 C1085 1.398 . S
C1086 C1087 1.391 . S
C1087 H1075 0.950 . S
C1087 C1083 1.393 . S
C1087 C1086 1.391 . S
H1088 C1096 0.950 . S
H1089 C1101 0.950 . S
H1090 C1098 0.950 . S
H1091 C1100 0.950 . S
H1092 C1102 0.950 . S
H1093 C1104 0.950 . S
H1094 C1106 0.950 . S
H1095 C1107 0.950 . S
C1096 H1088 0.950 . S
C1096 C1097 1.386 . S
C1096 C1098 1.391 . S
C1097 C1096 1.386 . S
C1097 C1101 1.393 . S
C1098 H1090 0.950 . S
C1098 C1096 1.391 . S
C1098 C1099 1.400 . S
C1099 C1098 1.400 . S
C1099 C1100 1.398 . S
C1099 C1105 1.491 . S
C1100 H1091 0.950 . S
C1100 C1099 1.398 . S
C1100 C1101 1.391 . S
C1101 H1089 0.950 . S
C1101 C1097 1.393 . S
C1101 C1100 1.391 . S
C1102 H1092 0.950 . S
C1102 C1103 1.386 . S
C1102 C1104 1.391 . S
C1103 C1102 1.386 . S
C1103 C1107 1.393 . S
C1104 H1093 0.950 . S
C1104 C1102 1.391 . S
C1104 C1105 1.400 . S
C1105 C1099 1.491 . S
C1105 C1104 1.400 . S
C1105 C1106 1.398 . S
C1106 H1094 0.950 . S
C1106 C1105 1.398 . S
C1106 C1107 1.391 . S
C1107 H1095 0.950 . S
C1107 C1103 1.393 . S
C1107 C1106 1.391 . S
H1108 C1116 0.950 . S
H1109 C1121 0.950 . S
H1110 C1118 0.950 . S
H1111 C1120 0.950 . S
H1112 C1122 0.950 . S
H1113 C1124 0.950 . S
H1114 C1126 0.950 . S
H1115 C1127 0.950 . S
C1116 H1108 0.950 . S
C1116 C1117 1.386 . S
C1116 C1118 1.391 . S
C1117 C1116 1.386 . S
C1117 C1121 1.393 . S
C1118 H1110 0.950 . S
C1118 C1116 1.391 . S
C1118 C1119 1.400 . S
C1119 C1118 1.400 . S
C1119 C1120 1.398 . S
C1119 C1125 1.491 1_655 S
C1120 H1111 0.950 . S
C1120 C1119 1.398 . S
C1120 C1121 1.391 . S
C1121 H1109 0.950 . S
C1121 C1117 1.393 . S
C1121 C1120 1.391 . S
C1122 H1112 0.950 . S
C1122 C1123 1.386 . S
C1122 C1124 1.391 . S
C1123 C1122 1.386 . S
C1123 C1127 1.393 . S
C1124 H1113 0.950 . S
C1124 C1122 1.391 . S
C1124 C1125 1.400 . S
C1125 C1119 1.491 1_455 S
C1125 C1124 1.400 . S
C1125 C1126 1.398 . S
C1126 H1114 0.950 . S
C1126 C1125 1.398 . S
C1126 C1127 1.391 . S
C1127 H1115 0.950 . S
C1127 C1123 1.393 . S
C1127 C1126 1.391 . S
H1128 C1136 0.950 . S
H1129 C1141 0.950 . S
H1130 C1138 0.950 . S
H1131 C1140 0.950 . S
H1132 C1142 0.950 . S
H1133 C1144 0.950 . S
H1134 C1146 0.950 . S
H1135 C1147 0.950 . S
C1136 H1128 0.950 . S
C1136 C1137 1.386 . S
C1136 C1138 1.391 . S
C1137 C1136 1.386 . S
C1137 C1141 1.393 . S
C1138 H1130 0.950 . S
C1138 C1136 1.391 . S
C1138 C1139 1.400 . S
C1139 C1138 1.400 . S
C1139 C1140 1.398 . S
C1139 C1145 1.491 . S
C1140 H1131 0.950 . S
C1140 C1139 1.398 . S
C1140 C1141 1.391 . S
C1141 H1129 0.950 . S
C1141 C1137 1.393 . S
C1141 C1140 1.391 . S
C1142 H1132 0.950 . S
C1142 C1143 1.386 . S
C1142 C1144 1.391 . S
C1143 C1142 1.386 . S
C1143 C1147 1.393 . S
C1144 H1133 0.950 . S
C1144 C1142 1.391 . S
C1144 C1145 1.400 . S
C1145 C1139 1.491 . S
C1145 C1144 1.400 . S
C1145 C1146 1.398 . S
C1146 H1134 0.950 . S
C1146 C1145 1.398 . S
C1146 C1147 1.391 . S
C1147 H1135 0.950 . S
C1147 C1143 1.393 . S
C1147 C1146 1.391 . S
H1148 C1156 0.950 . S
H1149 C1161 0.950 . S
H1150 C1158 0.950 . S
H1151 C1160 0.950 . S
H1152 C1162 0.950 . S
H1153 C1164 0.950 . S
H1154 C1166 0.950 . S
H1155 C1167 0.950 . S
C1156 H1148 0.950 . S
C1156 C1157 1.386 . S
C1156 C1158 1.391 . S
C1157 C1156 1.386 . S
C1157 C1161 1.393 . S
C1158 H1150 0.950 . S
C1158 C1156 1.391 . S
C1158 C1159 1.400 . S
C1159 C1158 1.400 . S
C1159 C1160 1.398 . S
C1159 C1165 1.491 . S
C1160 H1151 0.950 . S
C1160 C1159 1.398 . S
C1160 C1161 1.391 . S
C1161 H1149 0.950 . S
C1161 C1157 1.393 . S
C1161 C1160 1.391 . S
C1162 H1152 0.950 . S
C1162 C1163 1.386 . S
C1162 C1164 1.391 . S
C1163 C1162 1.386 . S
C1163 C1167 1.393 . S
C1164 H1153 0.950 . S
C1164 C1162 1.391 . S
C1164 C1165 1.400 . S
C1165 C1159 1.491 . S
C1165 C1164 1.400 . S
C1165 C1166 1.398 . S
C1166 H1154 0.950 . S
C1166 C1165 1.398 . S
C1166 C1167 1.391 . S
C1167 H1155 0.950 . S
C1167 C1163 1.393 . S
C1167 C1166 1.391 . S
H1168 C1176 0.950 . S
H1169 C1181 0.950 . S
H1170 C1178 0.950 . S
H1171 C1180 0.950 . S
H1172 C1182 0.950 . S
H1173 C1184 0.950 . S
H1174 C1186 0.950 . S
H1175 C1187 0.950 . S
C1176 H1168 0.950 . S
C1176 C1177 1.386 . S
C1176 C1178 1.391 . S
C1177 C1176 1.386 . S
C1177 C1181 1.393 . S
C1178 H1170 0.950 . S
C1178 C1176 1.391 . S
C1178 C1179 1.400 . S
C1179 C1178 1.400 . S
C1179 C1180 1.398 . S
C1179 C1185 1.491 . S
C1180 H1171 0.950 . S
C1180 C1179 1.398 . S
C1180 C1181 1.391 . S
C1181 H1169 0.950 . S
C1181 C1177 1.393 . S
C1181 C1180 1.391 . S
C1182 H1172 0.950 . S
C1182 C1183 1.386 . S
C1182 C1184 1.391 . S
C1183 C1182 1.386 . S
C1183 C1187 1.393 . S
C1184 H1173 0.950 . S
C1184 C1182 1.391 . S
C1184 C1185 1.400 . S
C1185 C1179 1.491 . S
C1185 C1184 1.400 . S
C1185 C1186 1.398 . S
C1186 H1174 0.950 . S
C1186 C1185 1.398 . S
C1186 C1187 1.391 . S
C1187 H1175 0.950 . S
C1187 C1183 1.393 . S
C1187 C1186 1.391 . S
H1188 C1196 0.950 . S
H1189 C1201 0.950 . S
H1190 C1198 0.950 . S
H1191 C1200 0.950 . S
H1192 C1202 0.950 . S
H1193 C1204 0.950 . S
H1194 C1206 0.950 . S
H1195 C1207 0.950 . S
C1196 H1188 0.950 . S
C1196 C1197 1.386 . S
C1196 C1198 1.391 . S
C1197 C1196 1.386 . S
C1197 C1201 1.393 . S
C1198 H1190 0.950 . S
C1198 C1196 1.391 . S
C1198 C1199 1.400 . S
C1199 C1198 1.400 . S
C1199 C1200 1.398 . S
C1199 C1205 1.491 . S
C1200 H1191 0.950 . S
C1200 C1199 1.398 . S
C1200 C1201 1.391 . S
C1201 H1189 0.950 . S
C1201 C1197 1.393 . S
C1201 C1200 1.391 . S
C1202 H1192 0.950 . S
C1202 C1203 1.386 . S
C1202 C1204 1.391 . S
C1203 C1202 1.386 . S
C1203 C1207 1.393 . S
C1204 H1193 0.950 . S
C1204 C1202 1.391 . S
C1204 C1205 1.400 . S
C1205 C1199 1.491 . S
C1205 C1204 1.400 . S
C1205 C1206 1.398 . S
C1206 H1194 0.950 . S
C1206 C1205 1.398 . S
C1206 C1207 1.391 . S
C1207 H1195 0.950 . S
C1207 C1203 1.393 . S
C1207 C1206 1.391 . S
H1208 C1216 0.950 . S
H1209 C1221 0.950 . S
H1210 C1218 0.950 . S
H1211 C1220 0.950 . S
H1212 C1222 0.950 . S
H1213 C1224 0.950 . S
H1214 C1226 0.950 . S
H1215 C1227 0.950 . S
C1216 H1208 0.950 . S
C1216 C1217 1.386 . S
C1216 C1218 1.391 . S
C1217 C1216 1.386 . S
C1217 C1221 1.393 . S
C1218 H1210 0.950 . S
C1218 C1216 1.391 . S
C1218 C1219 1.400 . S
C1219 C1218 1.400 . S
C1219 C1220 1.398 . S
C1219 C1225 1.491 . S
C1220 H1211 0.950 . S
C1220 C1219 1.398 . S
C1220 C1221 1.391 . S
C1221 H1209 0.950 . S
C1221 C1217 1.393 . S
C1221 C1220 1.391 . S
C1222 H1212 0.950 . S
C1222 C1223 1.386 . S
C1222 C1224 1.391 . S
C1223 C1222 1.386 . S
C1223 C1227 1.393 . S
C1224 H1213 0.950 . S
C1224 C1222 1.391 . S
C1224 C1225 1.400 . S
C1225 C1219 1.491 . S
C1225 C1224 1.400 . S
C1225 C1226 1.398 . S
C1226 H1214 0.950 . S
C1226 C1225 1.398 . S
C1226 C1227 1.391 . S
C1227 H1215 0.950 . S
C1227 C1223 1.393 . S
C1227 C1226 1.391 . S
H1228 C1236 0.950 . S
H1229 C1241 0.950 . S
H1230 C1238 0.950 . S
H1231 C1240 0.950 . S
H1232 C1242 0.950 . S
H1233 C1244 0.950 . S
H1234 C1246 0.950 . S
H1235 C1247 0.950 . S
C1236 H1228 0.950 . S
C1236 C1237 1.386 . S
C1236 C1238 1.391 . S
C1237 C1236 1.386 . S
C1237 C1241 1.393 . S
C1238 H1230 0.950 . S
C1238 C1236 1.391 . S
C1238 C1239 1.400 . S
C1239 C1238 1.400 . S
C1239 C1240 1.398 . S
C1239 C1245 1.491 1_655 S
C1240 H1231 0.950 . S
C1240 C1239 1.398 . S
C1240 C1241 1.391 . S
C1241 H1229 0.950 . S
C1241 C1237 1.393 . S
C1241 C1240 1.391 . S
C1242 H1232 0.950 . S
C1242 C1243 1.386 . S
C1242 C1244 1.391 . S
C1243 C1242 1.386 . S
C1243 C1247 1.393 . S
C1244 H1233 0.950 . S
C1244 C1242 1.391 . S
C1244 C1245 1.400 . S
C1245 C1239 1.491 1_455 S
C1245 C1244 1.400 . S
C1245 C1246 1.398 . S
C1246 H1234 0.950 . S
C1246 C1245 1.398 . S
C1246 C1247 1.391 . S
C1247 H1235 0.950 . S
C1247 C1243 1.393 . S
C1247 C1246 1.391 . S
H1248 C1256 0.950 . S
H1249 C1261 0.950 . S
H1250 C1258 0.950 . S
H1251 C1260 0.950 . S
H1252 C1262 0.950 . S
H1253 C1264 0.950 . S
H1254 C1266 0.950 . S
H1255 C1267 0.950 . S
C1256 H1248 0.950 . S
C1256 C1257 1.386 . S
C1256 C1258 1.391 . S
C1257 C1256 1.386 . S
C1257 C1261 1.393 . S
C1258 H1250 0.950 . S
C1258 C1256 1.391 . S
C1258 C1259 1.400 . S
C1259 C1258 1.400 . S
C1259 C1260 1.398 . S
C1259 C1265 1.491 . S
C1260 H1251 0.950 . S
C1260 C1259 1.398 . S
C1260 C1261 1.391 . S
C1261 H1249 0.950 . S
C1261 C1257 1.393 . S
C1261 C1260 1.391 . S
C1262 H1252 0.950 . S
C1262 C1263 1.386 . S
C1262 C1264 1.391 . S
C1263 C1262 1.386 . S
C1263 C1267 1.393 . S
C1264 H1253 0.950 . S
C1264 C1262 1.391 . S
C1264 C1265 1.400 . S
C1265 C1259 1.491 . S
C1265 C1264 1.400 . S
C1265 C1266 1.398 . S
C1266 H1254 0.950 . S
C1266 C1265 1.398 . S
C1266 C1267 1.391 . S
C1267 H1255 0.950 . S
C1267 C1263 1.393 . S
C1267 C1266 1.391 . S
H1268 C1276 0.950 . S
H1269 C1281 0.950 . S
H1270 C1278 0.950 . S
H1271 C1280 0.950 . S
H1272 C1282 0.950 . S
H1273 C1284 0.950 . S
H1274 C1286 0.950 . S
H1275 C1287 0.950 . S
C1276 H1268 0.950 . S
C1276 C1277 1.386 . S
C1276 C1278 1.391 . S
C1277 C1276 1.386 . S
C1277 C1281 1.393 . S
C1278 H1270 0.950 . S
C1278 C1276 1.391 . S
C1278 C1279 1.400 . S
C1279 C1278 1.400 . S
C1279 C1280 1.398 . S
C1279 C1285 1.491 . S
C1280 H1271 0.950 . S
C1280 C1279 1.398 . S
C1280 C1281 1.391 . S
C1281 H1269 0.950 . S
C1281 C1277 1.393 . S
C1281 C1280 1.391 . S
C1282 H1272 0.950 . S
C1282 C1283 1.386 . S
C1282 C1284 1.391 . S
C1283 C1282 1.386 . S
C1283 C1287 1.393 . S
C1284 H1273 0.950 . S
C1284 C1282 1.391 . S
C1284 C1285 1.400 . S
C1285 C1279 1.491 . S
C1285 C1284 1.400 . S
C1285 C1286 1.398 . S
C1286 H1274 0.950 . S
C1286 C1285 1.398 . S
C1286 C1287 1.391 . S
C1287 H1275 0.950 . S
C1287 C1283 1.393 . S
C1287 C1286 1.391 . S
H1288 C1296 0.950 . S
H1289 C1301 0.950 . S
H1290 C1298 0.950 . S
H1291 C1300 0.950 . S
H1292 C1302 0.950 . S
H1293 C1304 0.950 . S
H1294 C1306 0.950 . S
H1295 C1307 0.950 . S
C1296 H1288 0.950 . S
C1296 C1297 1.386 . S
C1296 C1298 1.391 . S
C1297 C1296 1.386 . S
C1297 C1301 1.393 . S
C1298 H1290 0.950 . S
C1298 C1296 1.391 . S
C1298 C1299 1.400 . S
C1299 C1298 1.400 . S
C1299 C1300 1.398 . S
C1299 C1305 1.491 . S
C1300 H1291 0.950 . S
C1300 C1299 1.398 . S
C1300 C1301 1.391 . S
C1301 H1289 0.950 . S
C1301 C1297 1.393 . S
C1301 C1300 1.391 . S
C1302 H1292 0.950 . S
C1302 C1303 1.386 . S
C1302 C1304 1.391 . S
C1303 C1302 1.386 . S
C1303 C1307 1.393 . S
C1304 H1293 0.950 . S
C1304 C1302 1.391 . S
C1304 C1305 1.400 . S
C1305 C1299 1.491 . S
C1305 C1304 1.400 . S
C1305 C1306 1.398 . S
C1306 H1294 0.950 . S
C1306 C1305 1.398 . S
C1306 C1307 1.391 . S
C1307 H1295 0.950 . S
C1307 C1303 1.393 . S
C1307 C1306 1.391 . S
H1308 C1316 0.950 . S
H1309 C1321 0.950 . S
H1310 C1318 0.950 . S
H1311 C1320 0.950 . S
H1312 C1322 0.950 . S
H1313 C1324 0.950 . S
H1314 C1326 0.950 . S
H1315 C1327 0.950 . S
C1316 H1308 0.950 . S
C1316 C1317 1.386 . S
C1316 C1318 1.391 . S
C1317 C1316 1.386 . S
C1317 C1321 1.393 . S
C1318 H1310 0.950 . S
C1318 C1316 1.391 . S
C1318 C1319 1.400 . S
C1319 C1318 1.400 . S
C1319 C1320 1.398 . S
C1319 C1325 1.491 . S
C1320 H1311 0.950 . S
C1320 C1319 1.398 . S
C1320 C1321 1.391 . S
C1321 H1309 0.950 . S
C1321 C1317 1.393 . S
C1321 C1320 1.391 . S
C1322 H1312 0.950 . S
C1322 C1323 1.386 . S
C1322 C1324 1.391 . S
C1323 C1322 1.386 . S
C1323 C1327 1.393 . S
C1324 H1313 0.950 . S
C1324 C1322 1.391 . S
C1324 C1325 1.400 . S
C1325 C1319 1.491 . S
C1325 C1324 1.400 . S
C1325 C1326 1.398 . S
C1326 H1314 0.950 . S
C1326 C1325 1.398 . S
C1326 C1327 1.391 . S
C1327 H1315 0.950 . S
C1327 C1323 1.393 . S
C1327 C1326 1.391 . S
H1328 C1336 0.950 . S
H1329 C1341 0.950 . S
H1330 C1338 0.950 . S
H1331 C1340 0.950 . S
H1332 C1342 0.950 . S
H1333 C1344 0.950 . S
H1334 C1346 0.950 . S
H1335 C1347 0.950 . S
C1336 H1328 0.950 . S
C1336 C1337 1.386 . S
C1336 C1338 1.391 . S
C1337 C1336 1.386 . S
C1337 C1341 1.393 . S
C1338 H1330 0.950 . S
C1338 C1336 1.391 . S
C1338 C1339 1.400 . S
C1339 C1338 1.400 . S
C1339 C1340 1.398 . S
C1339 C1345 1.491 . S
C1340 H1331 0.950 . S
C1340 C1339 1.398 . S
C1340 C1341 1.391 . S
C1341 H1329 0.950 . S
C1341 C1337 1.393 . S
C1341 C1340 1.391 . S
C1342 H1332 0.950 . S
C1342 C1343 1.386 . S
C1342 C1344 1.391 . S
C1343 C1342 1.386 . S
C1343 C1347 1.393 . S
C1344 H1333 0.950 . S
C1344 C1342 1.391 . S
C1344 C1345 1.400 . S
C1345 C1339 1.491 . S
C1345 C1344 1.400 . S
C1345 C1346 1.398 . S
C1346 H1334 0.950 . S
C1346 C1345 1.398 . S
C1346 C1347 1.391 . S
C1347 H1335 0.950 . S
C1347 C1343 1.393 . S
C1347 C1346 1.391 . S
H1348 C1356 0.950 . S
H1349 C1361 0.950 . S
H1350 C1358 0.950 . S
H1351 C1360 0.950 . S
H1352 C1362 0.950 . S
H1353 C1364 0.950 . S
H1354 C1366 0.950 . S
H1355 C1367 0.950 . S
C1356 H1348 0.950 . S
C1356 C1357 1.386 . S
C1356 C1358 1.391 . S
C1357 C1356 1.386 . S
C1357 C1361 1.393 . S
C1358 H1350 0.950 . S
C1358 C1356 1.391 . S
C1358 C1359 1.400 . S
C1359 C1358 1.400 . S
C1359 C1360 1.398 . S
C1359 C1365 1.491 1_655 S
C1360 H1351 0.950 . S
C1360 C1359 1.398 . S
C1360 C1361 1.391 . S
C1361 H1349 0.950 . S
C1361 C1357 1.393 . S
C1361 C1360 1.391 . S
C1362 H1352 0.950 . S
C1362 C1363 1.386 . S
C1362 C1364 1.391 . S
C1363 C1362 1.386 . S
C1363 C1367 1.393 . S
C1364 H1353 0.950 . S
C1364 C1362 1.391 . S
C1364 C1365 1.400 . S
C1365 C1359 1.491 1_455 S
C1365 C1364 1.400 . S
C1365 C1366 1.398 . S
C1366 H1354 0.950 . S
C1366 C1365 1.398 . S
C1366 C1367 1.391 . S
C1367 H1355 0.950 . S
C1367 C1363 1.393 . S
C1367 C1366 1.391 . S
H1368 C1376 0.950 . S
H1369 C1381 0.950 . S
H1370 C1378 0.950 . S
H1371 C1380 0.950 . S
H1372 C1382 0.950 . S
H1373 C1384 0.950 . S
H1374 C1386 0.950 . S
H1375 C1387 0.950 . S
C1376 H1368 0.950 . S
C1376 C1377 1.386 . S
C1376 C1378 1.391 . S
C1377 C1376 1.386 . S
C1377 C1381 1.393 . S
C1378 H1370 0.950 . S
C1378 C1376 1.391 . S
C1378 C1379 1.400 . S
C1379 C1378 1.400 . S
C1379 C1380 1.398 . S
C1379 C1385 1.491 1_655 S
C1380 H1371 0.950 . S
C1380 C1379 1.398 . S
C1380 C1381 1.391 . S
C1381 H1369 0.950 . S
C1381 C1377 1.393 . S
C1381 C1380 1.391 . S
C1382 H1372 0.950 . S
C1382 C1383 1.386 . S
C1382 C1384 1.391 . S
C1383 C1382 1.386 . S
C1383 C1387 1.393 . S
C1384 H1373 0.950 . S
C1384 C1382 1.391 . S
C1384 C1385 1.400 . S
C1385 C1379 1.491 1_455 S
C1385 C1384 1.400 . S
C1385 C1386 1.398 . S
C1386 H1374 0.950 . S
C1386 C1385 1.398 . S
C1386 C1387 1.391 . S
C1387 H1375 0.950 . S
C1387 C1383 1.393 . S
C1387 C1386 1.391 . S
H1388 C1396 0.950 . S
H1389 C1401 0.950 . S
H1390 C1398 0.950 . S
H1391 C1400 0.950 . S
H1392 C1402 0.950 . S
H1393 C1404 0.950 . S
H1394 C1406 0.950 . S
H1395 C1407 0.950 . S
C1396 H1388 0.950 . S
C1396 C1397 1.386 . S
C1396 C1398 1.391 . S
C1397 C1396 1.386 . S
C1397 C1401 1.393 . S
C1398 H1390 0.950 . S
C1398 C1396 1.391 . S
C1398 C1399 1.400 . S
C1399 C1398 1.400 . S
C1399 C1400 1.398 . S
C1399 C1405 1.491 . S
C1400 H1391 0.950 . S
C1400 C1399 1.398 . S
C1400 C1401 1.391 . S
C1401 H1389 0.950 . S
C1401 C1397 1.393 . S
C1401 C1400 1.391 . S
C1402 H1392 0.950 . S
C1402 C1403 1.386 . S
C1402 C1404 1.391 . S
C1403 C1402 1.386 . S
C1403 C1407 1.393 . S
C1404 H1393 0.950 . S
C1404 C1402 1.391 . S
C1404 C1405 1.400 . S
C1405 C1399 1.491 . S
C1405 C1404 1.400 . S
C1405 C1406 1.398 . S
C1406 H1394 0.950 . S
C1406 C1405 1.398 . S
C1406 C1407 1.391 . S
C1407 H1395 0.950 . S
C1407 C1403 1.393 . S
C1407 C1406 1.391 . S
H1408 C1416 0.950 . S
H1409 C1421 0.950 . S
H1410 C1418 0.950 . S
H1411 C1420 0.950 . S
H1412 C1422 0.950 . S
H1413 C1424 0.950 . S
H1414 C1426 0.950 . S
H1415 C1427 0.950 . S
C1416 H1408 0.950 . S
C1416 C1417 1.386 . S
C1416 C1418 1.391 . S
C1417 C1416 1.386 . S
C1417 C1421 1.393 . S
C1418 H1410 0.950 . S
C1418 C1416 1.391 . S
C1418 C1419 1.400 . S
C1419 C1418 1.400 . S
C1419 C1420 1.398 . S
C1419 C1425 1.491 . S
C1420 H1411 0.950 . S
C1420 C1419 1.398 . S
C1420 C1421 1.391 . S
C1421 H1409 0.950 . S
C1421 C1417 1.393 . S
C1421 C1420 1.391 . S
C1422 H1412 0.950 . S
C1422 C1423 1.386 . S
C1422 C1424 1.391 . S
C1423 C1422 1.386 . S
C1423 C1427 1.393 . S
C1424 H1413 0.950 . S
C1424 C1422 1.391 . S
C1424 C1425 1.400 . S
C1425 C1419 1.491 . S
C1425 C1424 1.400 . S
C1425 C1426 1.398 . S
C1426 H1414 0.950 . S
C1426 C1425 1.398 . S
C1426 C1427 1.391 . S
C1427 H1415 0.950 . S
C1427 C1423 1.393 . S
C1427 C1426 1.391 . S
H1428 C1436 0.950 . S
H1429 C1441 0.950 . S
H1430 C1438 0.950 . S
H1431 C1440 0.950 . S
H1432 C1442 0.950 . S
H1433 C1444 0.950 . S
H1434 C1446 0.950 . S
H1435 C1447 0.950 . S
C1436 H1428 0.950 . S
C1436 C1437 1.386 . S
C1436 C1438 1.391 . S
C1437 C1436 1.386 . S
C1437 C1441 1.393 . S
C1438 H1430 0.950 . S
C1438 C1436 1.391 . S
C1438 C1439 1.400 . S
C1439 C1438 1.400 . S
C1439 C1440 1.398 . S
C1439 C1445 1.491 . S
C1440 H1431 0.950 . S
C1440 C1439 1.398 . S
C1440 C1441 1.391 . S
C1441 H1429 0.950 . S
C1441 C1437 1.393 . S
C1441 C1440 1.391 . S
C1442 H1432 0.950 . S
C1442 C1443 1.386 . S
C1442 C1444 1.391 . S
C1443 C1442 1.386 . S
C1443 C1447 1.393 . S
C1444 H1433 0.950 . S
C1444 C1442 1.391 . S
C1444 C1445 1.400 . S
C1445 C1439 1.491 . S
C1445 C1444 1.400 . S
C1445 C1446 1.398 . S
C1446 H1434 0.950 . S
C1446 C1445 1.398 . S
C1446 C1447 1.391 . S
C1447 H1435 0.950 . S
C1447 C1443 1.393 . S
C1447 C1446 1.391 . S
H1448 C1456 0.950 . S
H1449 C1461 0.950 . S
H1450 C1458 0.950 . S
H1451 C1460 0.950 . S
H1452 C1462 0.950 . S
H1453 C1464 0.950 . S
H1454 C1466 0.950 . S
H1455 C1467 0.950 . S
C1456 H1448 0.950 . S
C1456 C1457 1.386 . S
C1456 C1458 1.391 . S
C1457 C1456 1.386 . S
C1457 C1461 1.393 . S
C1458 H1450 0.950 . S
C1458 C1456 1.391 . S
C1458 C1459 1.400 . S
C1459 C1458 1.400 . S
C1459 C1460 1.398 . S
C1459 C1465 1.491 . S
C1460 H1451 0.950 . S
C1460 C1459 1.398 . S
C1460 C1461 1.391 . S
C1461 H1449 0.950 . S
C1461 C1457 1.393 . S
C1461 C1460 1.391 . S
C1462 H1452 0.950 . S
C1462 C1463 1.386 . S
C1462 C1464 1.391 . S
C1463 C1462 1.386 . S
C1463 C1467 1.393 . S
C1464 H1453 0.950 . S
C1464 C1462 1.391 . S
C1464 C1465 1.400 . S
C1465 C1459 1.491 . S
C1465 C1464 1.400 . S
C1465 C1466 1.398 . S
C1466 H1454 0.950 . S
C1466 C1465 1.398 . S
C1466 C1467 1.391 . S
C1467 H1455 0.950 . S
C1467 C1463 1.393 . S
C1467 C1466 1.391 . S
H1468 C1476 0.950 . S
H1469 C1481 0.950 1_556 S
H1470 C1478 0.950 . S
H1471 C1480 0.950 . S
H1472 C1482 0.950 . S
H1473 C1484 0.950 . S
H1474 C1486 0.950 . S
H1475 C1487 0.950 . S
C1476 H1468 0.950 . S
C1476 C1477 1.386 . S
C1476 C1478 1.391 . S
C1477 C1476 1.386 . S
C1477 C1481 1.393 . S
C1478 H1470 0.950 . S
C1478 C1476 1.391 . S
C1478 C1479 1.400 . S
C1479 C1478 1.400 . S
C1479 C1480 1.398 . S
C1479 C1485 1.491 . S
C1480 H1471 0.950 . S
C1480 C1479 1.398 . S
C1480 C1481 1.391 . S
C1481 H1469 0.950 1_554 S
C1481 C1477 1.393 . S
C1481 C1480 1.391 . S
C1482 H1472 0.950 . S
C1482 C1483 1.386 . S
C1482 C1484 1.391 . S
C1483 C1482 1.386 . S
C1483 C1487 1.393 . S
C1484 H1473 0.950 . S
C1484 C1482 1.391 . S
C1484 C1485 1.400 . S
C1485 C1479 1.491 . S
C1485 C1484 1.400 . S
C1485 C1486 1.398 . S
C1486 H1474 0.950 . S
C1486 C1485 1.398 . S
C1486 C1487 1.391 . S
C1487 H1475 0.950 . S
C1487 C1483 1.393 . S
C1487 C1486 1.391 . S
H1488 C1496 0.950 . S
H1489 C1501 0.950 . S
H1490 C1498 0.950 . S
H1491 C1500 0.950 . S
H1492 C1502 0.950 . S
H1493 C1504 0.950 . S
H1494 C1506 0.950 . S
H1495 C1507 0.950 . S
C1496 H1488 0.950 . S
C1496 C1497 1.386 . S
C1496 C1498 1.391 . S
C1497 C1496 1.386 . S
C1497 C1501 1.393 . S
C1498 H1490 0.950 . S
C1498 C1496 1.391 . S
C1498 C1499 1.400 . S
C1499 C1498 1.400 . S
C1499 C1500 1.398 . S
C1499 C1505 1.491 . S
C1500 H1491 0.950 . S
C1500 C1499 1.398 . S
C1500 C1501 1.391 . S
C1501 H1489 0.950 . S
C1501 C1497 1.393 . S
C1501 C1500 1.391 . S
C1502 H1492 0.950 . S
C1502 C1503 1.386 . S
C1502 C1504 1.391 . S
C1503 C1502 1.386 . S
C1503 C1507 1.393 . S
C1504 H1493 0.950 . S
C1504 C1502 1.391 . S
C1504 C1505 1.400 . S
C1505 C1499 1.491 . S
C1505 C1504 1.400 . S
C1505 C1506 1.398 . S
C1506 H1494 0.950 . S
C1506 C1505 1.398 . S
C1506 C1507 1.391 . S
C1507 H1495 0.950 . S
C1507 C1503 1.393 . S
C1507 C1506 1.391 . S
H1508 C1516 0.950 . S
H1509 C1521 0.950 . S
H1510 C1518 0.950 . S
H1511 C1520 0.950 . S
H1512 C1522 0.950 . S
H1513 C1524 0.950 . S
H1514 C1526 0.950 . S
H1515 C1527 0.950 . S
C1516 H1508 0.950 . S
C1516 C1517 1.386 . S
C1516 C1518 1.391 . S
C1517 C1516 1.386 . S
C1517 C1521 1.393 . S
C1518 H1510 0.950 . S
C1518 C1516 1.391 . S
C1518 C1519 1.400 . S
C1519 C1518 1.400 . S
C1519 C1520 1.398 . S
C1519 C1525 1.491 . S
C1520 H1511 0.950 . S
C1520 C1519 1.398 . S
C1520 C1521 1.391 . S
C1521 H1509 0.950 . S
C1521 C1517 1.393 . S
C1521 C1520 1.391 . S
C1522 H1512 0.950 . S
C1522 C1523 1.386 . S
C1522 C1524 1.391 . S
C1523 C1522 1.386 . S
C1523 C1527 1.393 . S
C1524 H1513 0.950 . S
C1524 C1522 1.391 . S
C1524 C1525 1.400 . S
C1525 C1519 1.491 . S
C1525 C1524 1.400 . S
C1525 C1526 1.398 . S
C1526 H1514 0.950 . S
C1526 C1525 1.398 . S
C1526 C1527 1.391 . S
C1527 H1515 0.950 . S
C1527 C1523 1.393 . S
C1527 C1526 1.391 . S
H1528 C1536 0.950 . S
H1529 C1541 0.950 . S
H1530 C1538 0.950 . S
H1531 C1540 0.950 . S
H1532 C1542 0.950 . S
H1533 C1544 0.950 . S
H1534 C1546 0.950 . S
H1535 C1547 0.950 1_556 S
C1536 H1528 0.950 . S
C1536 C1537 1.386 . S
C1536 C1538 1.391 . S
C1537 C1536 1.386 . S
C1537 C1541 1.393 . S
C1538 H1530 0.950 . S
C1538 C1536 1.391 . S
C1538 C1539 1.400 . S
C1539 C1538 1.400 . S
C1539 C1540 1.398 . S
C1539 C1545 1.491 . S
C1540 H1531 0.950 . S
C1540 C1539 1.398 . S
C1540 C1541 1.391 . S
C1541 H1529 0.950 . S
C1541 C1537 1.393 . S
C1541 C1540 1.391 . S
C1542 H1532 0.950 . S
C1542 C1543 1.386 . S
C1542 C1544 1.391 . S
C1543 C1542 1.386 . S
C1543 C1547 1.393 . S
C1544 H1533 0.950 . S
C1544 C1542 1.391 . S
C1544 C1545 1.400 . S
C1545 C1539 1.491 . S
C1545 C1544 1.400 . S
C1545 C1546 1.398 . S
C1546 H1534 0.950 . S
C1546 C1545 1.398 . S
C1546 C1547 1.391 . S
C1547 H1535 0.950 1_554 S
C1547 C1543 1.393 . S
C1547 C1546 1.391 . S
H1548 C1556 0.950 . S
H1549 C1561 0.950 . S
H1550 C1558 0.950 . S
H1551 C1560 0.950 . S
H1552 C1562 0.950 . S
H1553 C1564 0.950 . S
H1554 C1566 0.950 . S
H1555 C1567 0.950 1_554 S
C1556 H1548 0.950 . S
C1556 C1557 1.386 . S
C1556 C1558 1.391 . S
C1557 C1556 1.386 . S
C1557 C1561 1.393 . S
C1558 H1550 0.950 . S
C1558 C1556 1.391 . S
C1558 C1559 1.400 . S
C1559 C1558 1.400 . S
C1559 C1560 1.398 . S
C1559 C1565 1.491 . S
C1560 H1551 0.950 . S
C1560 C1559 1.398 . S
C1560 C1561 1.391 . S
C1561 H1549 0.950 . S
C1561 C1557 1.393 . S
C1561 C1560 1.391 . S
C1562 H1552 0.950 . S
C1562 C1563 1.386 . S
C1562 C1564 1.391 . S
C1563 C1562 1.386 . S
C1563 C1567 1.393 . S
C1564 H1553 0.950 . S
C1564 C1562 1.391 . S
C1564 C1565 1.400 . S
C1565 C1559 1.491 . S
C1565 C1564 1.400 . S
C1565 C1566 1.398 . S
C1566 H1554 0.950 . S
C1566 C1565 1.398 . S
C1566 C1567 1.391 . S
C1567 H1555 0.950 1_556 S
C1567 C1563 1.393 . S
C1567 C1566 1.391 . S
H1568 C1576 0.950 1_554 S
H1569 C1581 0.950 . S
H1570 C1578 0.950 . S
H1571 C1580 0.950 . S
H1572 C1582 0.950 . S
H1573 C1584 0.950 . S
H1574 C1586 0.950 . S
H1575 C1587 0.950 . S
C1576 H1568 0.950 1_556 S
C1576 C1577 1.386 . S
C1576 C1578 1.391 . S
C1577 C1576 1.386 . S
C1577 C1581 1.393 . S
C1578 H1570 0.950 . S
C1578 C1576 1.391 . S
C1578 C1579 1.400 . S
C1579 C1578 1.400 . S
C1579 C1580 1.398 . S
C1579 C1585 1.491 . S
C1580 H1571 0.950 . S
C1580 C1579 1.398 . S
C1580 C1581 1.391 . S
C1581 H1569 0.950 . S
C1581 C1577 1.393 . S
C1581 C1580 1.391 . S
C1582 H1572 0.950 . S
C1582 C1583 1.386 . S
C1582 C1584 1.391 . S
C1583 C1582 1.386 . S
C1583 C1587 1.393 . S
C1584 H1573 0.950 . S
C1584 C1582 1.391 . S
C1584 C1585 1.400 . S
C1585 C1579 1.491 . S
C1585 C1584 1.400 . S
C1585 C1586 1.398 . S
C1586 H1574 0.950 . S
C1586 C1585 1.398 . S
C1586 C1587 1.391 . S
C1587 H1575 0.950 . S
C1587 C1583 1.393 . S
C1587 C1586 1.391 . S
H1588 C1596 0.950 . S
H1589 C1601 0.950 . S
H1590 C1598 0.950 . S
H1591 C1600 0.950 . S
H1592 C1602 0.950 1_556 S
H1593 C1604 0.950 . S
H1594 C1606 0.950 . S
H1595 C1607 0.950 . S
C1596 H1588 0.950 . S
C1596 C1597 1.386 . S
C1596 C1598 1.391 . S
C1597 C1596 1.386 . S
C1597 C1601 1.393 . S
C1598 H1590 0.950 . S
C1598 C1596 1.391 . S
C1598 C1599 1.400 . S
C1599 C1598 1.400 . S
C1599 C1600 1.398 . S
C1599 C1605 1.491 . S
C1600 H1591 0.950 . S
C1600 C1599 1.398 . S
C1600 C1601 1.391 . S
C1601 H1589 0.950 . S
C1601 C1597 1.393 . S
C1601 C1600 1.391 . S
C1602 H1592 0.950 1_554 S
C1602 C1603 1.386 . S
C1602 C1604 1.391 . S
C1603 C1602 1.386 . S
C1603 C1607 1.393 . S
C1604 H1593 0.950 . S
C1604 C1602 1.391 . S
C1604 C1605 1.400 . S
C1605 C1599 1.491 . S
C1605 C1604 1.400 . S
C1605 C1606 1.398 . S
C1606 H1594 0.950 . S
C1606 C1605 1.398 . S
C1606 C1607 1.391 . S
C1607 H1595 0.950 . S
C1607 C1603 1.393 . S
C1607 C1606 1.391 . S
H1608 C1616 0.950 . S
H1609 C1621 0.950 . S
H1610 C1618 0.950 . S
H1611 C1620 0.950 . S
H1612 C1622 0.950 . S
H1613 C1624 0.950 . S
H1614 C1626 0.950 . S
H1615 C1627 0.950 . S
C1616 H1608 0.950 . S
C1616 C1617 1.386 . S
C1616 C1618 1.391 . S
C1617 C1616 1.386 . S
C1617 C1621 1.393 . S
C1618 H1610 0.950 . S
C1618 C1616 1.391 . S
C1618 C1619 1.400 . S
C1619 C1618 1.400 . S
C1619 C1620 1.398 . S
C1619 C1625 1.491 . S
C1620 H1611 0.950 . S
C1620 C1619 1.398 . S
C1620 C1621 1.391 . S
C1621 H1609 0.950 . S
C1621 C1617 1.393 . S
C1621 C1620 1.391 . S
C1622 H1612 0.950 . S
C1622 C1623 1.386 . S
C1622 C1624 1.391 . S
C1623 C1622 1.386 . S
C1623 C1627 1.393 . S
C1624 H1613 0.950 . S
C1624 C1622 1.391 . S
C1624 C1625 1.400 . S
C1625 C1619 1.491 . S
C1625 C1624 1.400 . S
C1625 C1626 1.398 . S
C1626 H1614 0.950 . S
C1626 C1625 1.398 . S
C1626 C1627 1.391 . S
C1627 H1615 0.950 . S
C1627 C1623 1.393 . S
C1627 C1626 1.391 . S
H1628 C1636 0.950 . S
H1629 C1641 0.950 . S
H1630 C1638 0.950 . S
H1631 C1640 0.950 . S
H1632 C1642 0.950 . S
H1633 C1644 0.950 . S
H1634 C1646 0.950 . S
H1635 C1647 0.950 . S
C1636 H1628 0.950 . S
C1636 C1637 1.386 . S
C1636 C1638 1.391 . S
C1637 C1636 1.386 . S
C1637 C1641 1.393 . S
C1638 H1630 0.950 . S
C1638 C1636 1.391 . S
C1638 C1639 1.400 . S
C1639 C1638 1.400 . S
C1639 C1640 1.398 . S
C1639 C1645 1.491 . S
C1640 H1631 0.950 . S
C1640 C1639 1.398 . S
C1640 C1641 1.391 . S
C1641 H1629 0.950 . S
C1641 C1637 1.393 . S
C1641 C1640 1.391 . S
C1642 H1632 0.950 . S
C1642 C1643 1.386 . S
C1642 C1644 1.391 . S
C1643 C1642 1.386 . S
C1643 C1647 1.393 . S
C1644 H1633 0.950 . S
C1644 C1642 1.391 . S
C1644 C1645 1.400 . S
C1645 C1639 1.491 . S
C1645 C1644 1.400 . S
C1645 C1646 1.398 . S
C1646 H1634 0.950 . S
C1646 C1645 1.398 . S
C1646 C1647 1.391 . S
C1647 H1635 0.950 . S
C1647 C1643 1.393 . S
C1647 C1646 1.391 . S
H1648 C1656 0.950 . S
H1649 C1661 0.950 . S
H1650 C1658 0.950 . S
H1651 C1660 0.950 . S
H1652 C1662 0.950 . S
H1653 C1664 0.950 . S
H1654 C1666 0.950 . S
H1655 C1667 0.950 1_556 S
C1656 H1648 0.950 . S
C1656 C1657 1.386 . S
C1656 C1658 1.391 . S
C1657 C1656 1.386 . S
C1657 C1661 1.393 . S
C1658 H1650 0.950 . S
C1658 C1656 1.391 . S
C1658 C1659 1.400 . S
C1659 C1658 1.400 . S
C1659 C1660 1.398 . S
C1659 C1665 1.491 . S
C1660 H1651 0.950 . S
C1660 C1659 1.398 . S
C1660 C1661 1.391 . S
C1661 H1649 0.950 . S
C1661 C1657 1.393 . S
C1661 C1660 1.391 . S
C1662 H1652 0.950 . S
C1662 C1663 1.386 . S
C1662 C1664 1.391 . S
C1663 C1662 1.386 . S
C1663 C1667 1.393 . S
C1664 H1653 0.950 . S
C1664 C1662 1.391 . S
C1664 C1665 1.400 . S
C1665 C1659 1.491 . S
C1665 C1664 1.400 . S
C1665 C1666 1.398 . S
C1666 H1654 0.950 . S
C1666 C1665 1.398 . S
C1666 C1667 1.391 . S
C1667 H1655 0.950 1_554 S
C1667 C1663 1.393 . S
C1667 C1666 1.391 . S
H1668 C1676 0.950 . S
H1669 C1681 0.950 1_554 S
H1670 C1678 0.950 . S
H1671 C1680 0.950 . S
H1672 C1682 0.950 . S
H1673 C1684 0.950 . S
H1674 C1686 0.950 . S
H1675 C1687 0.950 . S
C1676 H1668 0.950 . S
C1676 C1677 1.386 . S
C1676 C1678 1.391 . S
C1677 C1676 1.386 . S
C1677 C1681 1.393 . S
C1678 H1670 0.950 . S
C1678 C1676 1.391 . S
C1678 C1679 1.400 . S
C1679 C1678 1.400 . S
C1679 C1680 1.398 . S
C1679 C1685 1.491 . S
C1680 H1671 0.950 . S
C1680 C1679 1.398 . S
C1680 C1681 1.391 . S
C1681 H1669 0.950 1_556 S
C1681 C1677 1.393 . S
C1681 C1680 1.391 . S
C1682 H1672 0.950 . S
C1682 C1683 1.386 . S
C1682 C1684 1.391 . S
C1683 C1682 1.386 . S
C1683 C1687 1.393 . S
C1684 H1673 0.950 . S
C1684 C1682 1.391 . S
C1684 C1685 1.400 . S
C1685 C1679 1.491 . S
C1685 C1684 1.400 . S
C1685 C1686 1.398 . S
C1686 H1674 0.950 . S
C1686 C1685 1.398 . S
C1686 C1687 1.391 . S
C1687 H1675 0.950 . S
C1687 C1683 1.393 . S
C1687 C1686 1.391 . S
H1688 C1696 0.950 . S
H1689 C1701 0.950 . S
H1690 C1698 0.950 . S
H1691 C1700 0.950 . S
H1692 C1702 0.950 . S
H1693 C1704 0.950 . S
H1694 C1706 0.950 . S
H1695 C1707 0.950 . S
C1696 H1688 0.950 . S
C1696 C1697 1.386 . S
C1696 C1698 1.391 . S
C1697 C1696 1.386 . S
C1697 C1701 1.393 . S
C1698 H1690 0.950 . S
C1698 C1696 1.391 . S
C1698 C1699 1.400 . S
C1699 C1698 1.400 . S
C1699 C1700 1.398 . S
C1699 C1705 1.491 . S
C1700 H1691 0.950 . S
C1700 C1699 1.398 . S
C1700 C1701 1.391 . S
C1701 H1689 0.950 . S
C1701 C1697 1.393 . S
C1701 C1700 1.391 . S
C1702 H1692 0.950 . S
C1702 C1703 1.386 . S
C1702 C1704 1.391 . S
C1703 C1702 1.386 . S
C1703 C1707 1.393 . S
C1704 H1693 0.950 . S
C1704 C1702 1.391 . S
C1704 C1705 1.400 . S
C1705 C1699 1.491 . S
C1705 C1704 1.400 . S
C1705 C1706 1.398 . S
C1706 H1694 0.950 . S
C1706 C1705 1.398 . S
C1706 C1707 1.391 . S
C1707 H1695 0.950 . S
C1707 C1703 1.393 . S
C1707 C1706 1.391 . S
H1708 C1716 0.950 . S
H1709 C1721 0.950 . S
H1710 C1718 0.950 . S
H1711 C1720 0.950 . S
H1712 C1722 0.950 . S
H1713 C1724 0.950 . S
H1714 C1726 0.950 . S
H1715 C1727 0.950 . S
C1716 H1708 0.950 . S
C1716 C1717 1.386 . S
C1716 C1718 1.391 . S
C1717 C1716 1.386 . S
C1717 C1721 1.393 . S
C1718 H1710 0.950 . S
C1718 C1716 1.391 . S
C1718 C1719 1.400 . S
C1719 C1718 1.400 . S
C1719 C1720 1.398 . S
C1719 C1725 1.491 . S
C1720 H1711 0.950 . S
C1720 C1719 1.398 . S
C1720 C1721 1.391 . S
C1721 H1709 0.950 . S
C1721 C1717 1.393 . S
C1721 C1720 1.391 . S
C1722 H1712 0.950 . S
C1722 C1723 1.386 . S
C1722 C1724 1.391 . S
C1723 C1722 1.386 . S
C1723 C1727 1.393 . S
C1724 H1713 0.950 . S
C1724 C1722 1.391 . S
C1724 C1725 1.400 . S
C1725 C1719 1.491 . S
C1725 C1724 1.400 . S
C1725 C1726 1.398 . S
C1726 H1714 0.950 . S
C1726 C1725 1.398 . S
C1726 C1727 1.391 . S
C1727 H1715 0.950 . S
C1727 C1723 1.393 . S
C1727 C1726 1.391 . S
C457 C93 1.333 . S
C463 C9 1.316 . S
C477 C23 1.333 . S
C483 C107 1.316 . S
C497 C65 1.313 . S
C503 C37 1.333 . S
C517 C51 1.325 . S
C523 C79 1.327 . S
C537 C121 1.321 . S
C543 C205 1.330 . S
C557 C219 1.320 . S
C563 C135 1.331 . S
C577 C149 1.320 . S
C583 C177 1.331 . S
C597 C191 1.318 . S
C603 C163 1.332 . S
C617 C233 1.324 . S
C623 C317 1.318 . S
C637 C247 1.319 . S
C643 C331 1.322 . S
C657 C289 1.314 . S
C663 C261 1.334 . S
C677 C303 1.314 . S
C683 C275 1.330 . S
C697 C345 1.316 . S
C703 C429 1.333 . S
C717 C359 1.323 . S
C723 C443 1.329 . S
C737 C401 1.323 . S
C743 C373 1.329 . S
C757 C387 1.320 . S
C763 C415 1.331 . S
C777 C6 1.280 1_556 S
C783 C104 1.299 . S
C797 C62 1.282 1_554 S
C803 C20 1.296 . S
C817 C76 1.300 . S
C823 C34 1.279 . S
C837 C48 1.279 . S
C843 C90 1.300 . S
C857 C118 1.291 1_554 S
C863 C216 1.287 . S
C877 C174 1.281 1_556 S
C883 C132 1.297 . S
C897 C188 1.278 . S
C903 C146 1.300 . S
C917 C202 1.288 . S
C923 C160 1.290 . S
C937 C230 1.286 . S
C943 C328 1.292 . S
C957 C244 1.287 . S
C963 C286 1.290 . S
C977 C300 1.278 . S
C983 C258 1.300 1_556 S
C997 C272 1.279 . S
C1003 C314 1.300 1_554 S
C1017 C342 1.282 . S
C1023 C440 1.296 . S
C1037 C398 1.295 . S
C1043 C356 1.283 . S
C1057 C370 1.294 1_554 S
C1063 C412 1.284 . S
C1077 C384 1.281 . S
C1083 C426 1.297 1_556 S
C1097 C427 1.606 . S
C1103 C7 1.595 . S
C1117 C217 1.598 . S
C1123 C21 1.602 . S
C1137 C35 1.598 . S
C1143 C399 1.603 . S
C1157 C49 1.612 . S
C1163 C189 1.589 . S
C1177 C63 1.595 . S
C1183 C371 1.606 . S
C1197 C77 1.595 . S
C1203 C161 1.605 . S
C1217 C91 1.606 . S
C1223 C343 1.594 . S
C1237 C133 1.597 . S
C1243 C105 1.603 . S
C1257 C315 1.590 . S
C1263 C119 1.610 . S
C1277 C147 1.589 . S
C1283 C287 1.611 . S
C1297 C259 1.604 . S
C1303 C175 1.597 . S
C1317 C231 1.590 . S
C1323 C203 1.610 . S
C1337 C245 1.594 . S
C1343 C441 1.606 . S
C1357 C273 1.610 . S
C1363 C413 1.590 . S
C1377 C301 1.593 . S
C1383 C385 1.607 . S
C1397 C357 1.589 . S
C1403 C329 1.612 . S
C1417 C8 2.052 . S
C1423 C106 2.051 . S
C1437 C22 2.046 . S
C1443 C64 2.045 . S
C1457 C78 2.045 1_556 S
C1463 C36 2.045 . S
C1477 C50 2.051 1_554 S
C1483 C92 2.049 . S
C1497 C218 2.045 . S
C1503 C120 2.045 . S
C1517 C176 2.045 . S
C1523 C134 2.046 . S
C1537 C148 2.050 . S
C1543 C190 2.052 1_554 S
C1557 C204 2.048 . S
C1563 C162 2.050 1_556 S
C1577 C330 2.045 1_556 S
C1583 C232 2.047 . S
C1597 C288 2.045 . S
C1603 C246 2.046 1_554 S
C1617 C302 2.048 . S
C1623 C260 2.046 . S
C1637 C316 2.046 . S
C1643 C274 2.049 . S
C1657 C344 2.046 . S
C1663 C442 2.049 1_554 S
C1677 C358 2.049 1_556 S
C1683 C400 2.051 . S
C1697 C372 2.045 . S
C1703 C414 2.045 . S
C1717 C428 2.046 . S
C1723 C386 2.048 . S
