# Generated by pormake.
# Topology fnt, (5)-cn, num edge types: 1
# Building blocks:
#     Node 0, Type 0, BuildingBlock: XOMCOT_clean_sbu_1, # of connection points: 5
#     Node 1, Type 0, BuildingBlock: XOMCOT_clean_sbu_1, # of connection points: 5
#     Node 2, Type 0, BuildingBlock: XOMCOT_clean_sbu_1, # of connection points: 5
#     Node 3, Type 0, BuildingBlock: XOMCOT_clean_sbu_1, # of connection points: 5
#     Node 4, Type 0, BuildingBlock: XOMCOT_clean_sbu_1, # of connection points: 5
#     Node 5, Type 0, BuildingBlock: XOMCOT_clean_sbu_1, # of connection points: 5
#     Edge 6, Type (0, 0), BuildingBlock: MIFKUJ_clean_linker_0, # of connection points: 2
#     Edge 7, Type (0, 0), BuildingBlock: MIFKUJ_clean_linker_0, # of connection points: 2
#     Edge 8, Type (0, 0), BuildingBlock: MIFKUJ_clean_linker_0, # of connection points: 2
#     Edge 9, Type (0, 0), BuildingBlock: MIFKUJ_clean_linker_0, # of connection points: 2
#     Edge 10, Type (0, 0), BuildingBlock: MIFKUJ_clean_linker_0, # of connection points: 2
#     Edge 11, Type (0, 0), BuildingBlock: MIFKUJ_clean_linker_0, # of connection points: 2
#     Edge 12, Type (0, 0), BuildingBlock: MIFKUJ_clean_linker_0, # of connection points: 2
#     Edge 13, Type (0, 0), BuildingBlock: MIFKUJ_clean_linker_0, # of connection points: 2
#     Edge 14, Type (0, 0), BuildingBlock: MIFKUJ_clean_linker_0, # of connection points: 2
#     Edge 15, Type (0, 0), BuildingBlock: MIFKUJ_clean_linker_0, # of connection points: 2
#     Edge 16, Type (0, 0), BuildingBlock: MIFKUJ_clean_linker_0, # of connection points: 2
#     Edge 17, Type (0, 0), BuildingBlock: MIFKUJ_clean_linker_0, # of connection points: 2
#     Edge 18, Type (0, 0), BuildingBlock: MIFKUJ_clean_linker_0, # of connection points: 2
#     Edge 19, Type (0, 0), BuildingBlock: MIFKUJ_clean_linker_0, # of connection points: 2
#     Edge 20, Type (0, 0), BuildingBlock: MIFKUJ_clean_linker_0, # of connection points: 2
# Relax obj value: 0.140
# Max RMSD: 0.171
# Mean RMSD: 0.171
data_MOF--net-fnt--node1-XOMCOT_clean_sbu_1--edge1-MIFKUJ_clean_linker_0
_symmetry_space_group_name_H-M    P1
_symmetry_Int_Tables_number       1
_symmetry_cell_setting            triclinic
loop_
_symmetry_equiv_pos_as_xyz
'x, y, z'
_cell_length_a     34.745142
_cell_length_b     34.78755
_cell_length_c     60.528026
_cell_angle_alpha  90.0826
_cell_angle_beta   90.008791
_cell_angle_gamma 119.90119
loop_
_atom_site_label
_atom_site_type_symbol
_atom_site_fract_x
_atom_site_fract_y
_atom_site_fract_z
_atom_type_partial_charge
C0 C 0.20878 0.35891 0.06962 0.0
C1 C 0.19837 0.35636 0.09176 0.0
N2 N 0.16156 0.31707 0.09565 0.0
N3 N 0.17906 0.3213 0.05932 0.0
C4 C 0.1508 0.29632 0.07572 0.0
H5 H 0.23538 0.38733 0.06142 0.0
Co6 Co 0.17605 0.31261 0.02813 0.0
C7 C 0.12726 0.21697 1.02146 0.0
O8 O 0.1058 0.22289 1.00514 0.0
N9 N 0.17362 0.30441 0.99632 0.0
C10 C 0.16032 0.30693 0.96043 0.0
C11 C 0.15517 0.31914 0.98131 0.0
C12 C 0.19092 0.28412 0.98369 0.0
N13 N 0.1826 0.28457 0.96175 0.0
O14 O 0.23702 0.3272 0.02777 0.0
H15 H 0.13909 0.33806 0.9849 0.0
H16 H 0.20844 0.26844 0.99055 0.0
O17 O 0.15619 0.2501 0.03253 0.0
C18 C 0.25952 0.36611 1.01968 0.0
O19 O 0.23824 0.3863 1.01288 0.0
N20 N 0.11854 0.3046 0.02892 0.0
C21 C 0.04612 0.31691 0.03467 0.0
C22 C 0.0421 0.27564 0.03913 0.0
C23 C 0.07908 0.27013 0.03627 0.0
C24 C 0.12281 0.34518 0.02545 0.0
C25 C 0.08686 0.35184 0.02769 0.0
H26 H 0.07618 0.23913 0.04131 0.0
H27 H 0.15493 0.37293 1.02122 0.0
H28 H 0.12233 0.26382 0.07308 0.0
H29 H 0.21542 0.38249 0.10382 0.0
H30 H 0.14904 0.31473 0.94531 0.0
H31 H 0.01127 0.24855 0.04538 0.0
H32 H 0.09127 0.38455 0.02481 0.0
C33 C 0.86854 0.228 0.40918 0.0
C34 C 0.8608 0.21511 0.43096 0.0
N35 N 0.85961 0.17598 0.43305 0.0
N36 N 0.87284 0.19761 0.39721 0.0
C37 C 0.86715 0.16619 0.41232 0.0
H38 H 0.86887 0.25691 0.40251 0.0
Co39 Co 0.87718 0.19677 0.36571 0.0
C40 C 0.93502 0.15828 0.35652 0.0
O41 O 0.9169 0.14391 0.33703 0.0
N42 N 0.88088 0.19621 0.33387 0.0
C43 C 0.86102 0.17932 0.29863 0.0
C44 C 0.84645 0.1725 0.3201 0.0
C45 C 0.91614 0.2184 0.31995 0.0
N46 N 0.90509 0.20817 0.29826 0.0
O47 O 0.92196 0.25836 0.3658 0.0
H48 H 0.81254 0.15087 0.32514 0.0
H49 H 0.94945 0.24082 0.32574 0.0
O50 O 0.92136 0.17836 0.36919 0.0
C51 C 0.90099 0.27894 0.36154 0.0
O52 O 0.85845 0.25542 0.35687 0.0
N53 N 0.82954 0.13891 0.36611 0.0
C54 C 0.74744 0.06459 0.37389 0.0
C55 C 0.78503 0.06009 0.37094 0.0
C56 C 0.82643 0.09818 0.36727 0.0
C57 C 0.79282 0.14306 0.3683 0.0
C58 C 0.75155 0.10647 0.37214 0.0
H59 H 0.8555 0.09474 0.36639 0.0
H60 H 0.79601 0.17557 0.36768 0.0
H61 H 0.86739 0.1361 0.40809 0.0
H62 H 0.85425 0.2323 0.44405 0.0
H63 H 0.84029 0.16298 0.28445 0.0
H64 H 0.78265 0.02792 0.37222 0.0
H65 H 0.72301 0.11097 0.37406 0.0
C66 C 0.63438 0.85716 0.73895 0.0
C67 C 0.63578 0.84858 0.76109 0.0
N68 N 0.67496 0.85093 0.76554 0.0
N69 N 0.67254 0.86524 0.7292 0.0
C70 C 0.69669 0.86145 0.74589 0.0
H71 H 0.60645 0.85578 0.73034 0.0
Co72 Co 0.68351 0.87236 0.69822 0.0
C73 C 0.76491 0.86509 0.69656 0.0
O74 O 0.74654 0.83117 0.68299 0.0
N75 N 0.69564 0.87996 0.66639 0.0
C76 C 0.70412 0.86539 0.63127 0.0
C77 C 0.69315 0.84863 0.65222 0.0
C78 C 0.70893 0.91614 0.65304 0.0
N79 N 0.71387 0.90796 0.6315 0.0
O80 O 0.70209 0.93378 0.70119 0.0
H81 H 0.68429 0.81513 0.65653 0.0
H82 H 0.71472 0.94795 0.65889 0.0
O83 O 0.74346 0.88379 0.70329 0.0
C84 C 0.66614 0.93393 0.69709 0.0
O85 O 0.63119 0.89694 0.69063 0.0
N86 N 0.65783 0.81077 0.69607 0.0
C87 C 0.5967 0.72032 0.69775 0.0
C88 C 0.63741 0.7378 0.70897 0.0
C89 C 0.66733 0.78349 0.70827 0.0
C90 C 0.61838 0.79402 0.68516 0.0
C91 C 0.58786 0.74896 0.68537 0.0
H92 H 0.69675 0.79695 0.71844 0.0
H93 H 0.60995 0.81616 0.67669 0.0
H94 H 0.72913 0.86494 0.74357 0.0
H95 H 0.60895 0.83925 0.77274 0.0
H96 H 0.70556 0.84738 0.61701 0.0
H97 H 0.64494 0.71681 0.71915 0.0
H98 H 0.55694 0.73687 0.67642 0.0
C99 C 0.76864 0.64479 0.07657 0.0
C100 C 0.78253 0.65075 0.09824 0.0
N101 N 0.82339 0.68676 0.09955 0.0
N102 N 0.80016 0.67706 0.064 0.0
C103 C 0.83327 0.70211 0.07851 0.0
H104 H 0.73806 0.61754 0.07028 0.0
Co105 Co 0.79738 0.6793 0.03274 0.0
C106 C 0.877 0.76168 1.02055 0.0
O107 O 0.88402 0.74089 1.00428 0.0
N108 N 0.79415 0.68176 1.00074 0.0
C109 C 0.7959 0.66984 0.96457 0.0
C110 C 0.80128 0.65768 0.98538 0.0
C111 C 0.78393 0.70828 0.98837 0.0
N112 N 0.78507 0.70182 0.96627 0.0
O113 O 0.75199 0.69486 0.03523 0.0
H114 H 0.81034 0.6328 0.98855 0.0
H115 H 0.77657 0.73249 0.99544 0.0
O116 O 0.84351 0.74091 0.03322 0.0
C117 C 0.71624 0.65797 0.03261 0.0
O118 O 0.71896 0.62251 0.02798 0.0
N119 N 0.83714 0.65785 0.03141 0.0
C120 C 0.8783 0.60699 0.03434 0.0
C121 C 0.9021 0.65244 0.03919 0.0
C122 C 0.88066 0.67743 0.03784 0.0
C123 C 0.81326 0.61319 0.0282 0.0
C124 C 0.83338 0.58738 0.02889 0.0
H125 H 0.8986 0.71165 0.04297 0.0
H126 H 0.77806 0.59747 0.02492 0.0
H127 H 0.86441 0.73062 0.0737 0.0
H128 H 0.76458 0.62897 0.11184 0.0
H129 H 0.79926 0.65564 0.94927 0.0
H130 H 0.93654 0.66819 0.0443 0.0
H131 H 0.81356 0.55202 0.02589 0.0
C132 C 0.1376 0.77991 0.40327 0.0
C133 C 0.14552 0.78988 0.42544 0.0
N134 N 0.15283 0.83139 0.42895 0.0
N135 N 0.13951 0.81462 0.3925 0.0
C136 C 0.14863 0.84536 0.40858 0.0
H137 H 0.13179 0.74951 0.39542 0.0
Co138 Co 0.13517 0.81834 0.36142 0.0
C139 C 0.13281 0.90087 0.35491 0.0
O140 O 0.15966 0.91103 0.33794 0.0
N141 N 0.13033 0.82201 0.32935 0.0
C142 C 0.14712 0.83647 0.29357 0.0
C143 C 0.16382 0.84164 0.31456 0.0
C144 C 0.0932 0.80525 0.31638 0.0
N145 N 0.10246 0.81312 0.29443 0.0
O146 O 0.07397 0.7738 0.3629 0.0
H147 H 0.19874 0.86014 0.31843 0.0
H148 H 0.05986 0.78717 0.32289 0.0
O149 O 0.12101 0.86513 0.3656 0.0
C150 C 0.07312 0.73842 0.35653 0.0
O151 O 0.11017 0.74077 0.34979 0.0
N152 N 0.19642 0.85649 0.36082 0.0
C153 C 0.28733 0.89009 0.36661 0.0
C154 C 0.26753 0.91532 0.37272 0.0
C155 C 0.22168 0.89771 0.36983 0.0
C156 C 0.21534 0.832 0.35471 0.0
C157 C 0.26062 0.84853 0.35683 0.0
H158 H 0.20652 0.91605 0.37611 0.0
H159 H 0.19471 0.79876 0.34844 0.0
H160 H 0.1534 0.87793 0.40523 0.0
H161 H 0.14631 0.76796 0.43783 0.0
H162 H 0.16702 0.84989 0.27887 0.0
H163 H 0.28671 0.94724 0.38072 0.0
H164 H 0.27426 0.82813 0.35136 0.0
C165 C 0.35554 0.13276 0.73982 0.0
C166 C 0.3509 0.14063 0.76167 0.0
N167 N 0.3128 0.14173 0.76424 0.0
N168 N 0.32052 0.12835 0.72824 0.0
C169 C 0.29489 0.13372 0.74358 0.0
H170 H 0.38364 0.13188 0.73274 0.0
Co171 Co 0.31561 0.12364 0.69696 0.0
C172 C 0.21995 0.07608 0.68769 0.0
O173 O 0.22672 0.1008 0.67012 0.0
N174 N 0.31121 0.11901 0.66516 0.0
C175 C 0.31821 0.13683 0.62944 0.0
C176 C 0.32802 0.15299 0.65066 0.0
C177 C 0.29229 0.08221 0.652 0.0
N178 N 0.29535 0.0922 0.63013 0.0
O179 O 0.32878 0.07629 0.69755 0.0
H180 H 0.34656 0.18767 0.65496 0.0
H181 H 0.27539 0.04875 0.65843 0.0
O182 O 0.25251 0.08224 0.6999 0.0
C183 C 0.36842 0.09181 0.69051 0.0
O184 O 0.39038 0.1333 0.68394 0.0
N185 N 0.30899 0.17381 0.6969 0.0
C186 C 0.32276 0.25921 0.70148 0.0
C187 C 0.27962 0.22281 0.70194 0.0
C188 C 0.2734 0.17991 0.70015 0.0
C189 C 0.35097 0.20916 0.69669 0.0
C190 C 0.35864 0.25209 0.69882 0.0
H191 H 0.24044 0.1524 0.70255 0.0
H192 H 0.37887 0.20367 0.69513 0.0
H193 H 0.26441 0.13322 0.73943 0.0
H194 H 0.37488 0.14625 0.77443 0.0
H195 H 0.32777 0.15673 0.61458 0.0
H196 H 0.25135 0.22744 0.70456 0.0
H197 H 0.39245 0.27958 0.69855 0.0
H198 H 0.31726 0.36267 0.0496 0.0
H199 H 0.39682 0.41733 0.05322 0.0
H200 H 0.39032 0.48234 0.99384 0.0
H201 H 0.31166 0.4281 0.99013 0.0
H202 H 0.46742 0.48105 0.99613 0.0
H203 H 0.37871 0.51794 0.04406 0.0
H204 H 0.32458 0.50224 0.07393 0.0
H205 H 0.40958 0.48588 0.11982 0.0
H206 H 0.4639 0.50078 0.09012 0.0
H207 H 0.66572 0.67707 1.00546 0.0
H208 H 0.5843 0.6345 1.00509 0.0
H209 H 0.58558 0.57519 0.06747 0.0
H210 H 0.66629 0.61918 0.06827 0.0
H211 H 0.51024 0.57415 0.06382 0.0
H212 H 0.59655 0.53266 1.01706 0.0
H213 H 0.65168 0.54648 0.98797 0.0
H214 H 0.57215 0.56806 0.94074 0.0
H215 H 0.51687 0.55504 0.96967 0.0
C216 C 0.33328 0.38785 0.03701 0.0
C217 C 0.30844 0.39138 1.01964 0.0
C218 C 0.3785 0.41931 0.03921 0.0
C219 C 0.39925 0.4544 1.024 0.0
C220 C 0.37503 0.45578 1.00581 0.0
C221 C 0.33006 0.42475 1.00373 0.0
C222 C 0.44513 0.49158 0.02757 0.0
C223 C 0.47667 0.50163 1.01085 0.0
C224 C 0.45737 0.51812 0.04689 0.0
C225 C 0.42515 0.51005 0.06483 0.0
C226 C 0.38573 0.51074 0.06049 0.0
C227 C 0.35502 0.502 0.07739 0.0
C228 C 0.36359 0.49297 0.09875 0.0
C229 C 0.40296 0.49282 0.10327 0.0
C230 C 0.43372 0.50142 0.08641 0.0
C231 C 0.64834 0.65714 1.01972 0.0
C232 C 0.67196 0.65147 0.03696 0.0
C233 C 0.60188 0.63217 1.01934 0.0
C234 C 0.57892 0.60036 0.03586 0.0
C235 C 0.60242 0.5991 0.05443 0.0
C236 C 0.64863 0.62451 0.05496 0.0
C237 C 0.53256 0.56382 0.03232 0.0
C238 C 0.50096 0.55373 0.04906 0.0
C239 C 0.52033 0.53682 1.01311 0.0
C240 C 0.55281 0.54328 0.99556 0.0
C241 C 0.59089 0.54045 1.00048 0.0
C242 C 0.62218 0.54819 0.98403 0.0
C243 C 0.61547 0.55823 0.96253 0.0
C244 C 0.57734 0.56034 0.95741 0.0
C245 C 0.54601 0.55278 0.97382 0.0
H246 H 0.63976 0.56431 0.94982 0.0
H247 H 0.33976 0.48617 0.11181 0.0
H248 H 0.8592 0.31871 0.37946 0.0
H249 H 0.88405 0.3975 0.38112 0.0
H250 H 0.00976 0.42723 0.35268 0.0
H251 H 0.98511 0.34727 0.3516 0.0
H252 H 0.01962 0.48912 0.38376 0.0
H253 H 0.92915 0.42257 0.3199 0.0
H254 H 0.8632 0.36721 0.29948 0.0
H255 H 0.78082 0.40369 0.3365 0.0
H256 H 0.84622 0.45884 0.35738 0.0
H257 H 0.03127 0.68234 0.32302 0.0
H258 H 0.99259 0.60167 0.32626 0.0
H259 H 0.99284 0.61331 0.39724 0.0
H260 H 0.03187 0.6944 0.39392 0.0
H261 H 0.92078 0.53109 0.34414 0.0
H262 H 0.03343 0.54807 0.41773 0.0
H263 H 0.10266 0.60573 0.43509 0.0
H264 H 0.14753 0.67111 0.37252 0.0
H265 H 0.07906 0.61339 0.35473 0.0
C266 C 0.89242 0.342 0.3738 0.0
C267 C 0.9201 0.32699 0.3651 0.0
C268 C 0.90652 0.38705 0.37474 0.0
C269 C 0.94825 0.41819 0.36649 0.0
C270 C 0.97723 0.40363 0.35898 0.0
C271 C 0.96325 0.35813 0.35837 0.0
C272 C 0.9598 0.4653 0.36455 0.0
C273 C -0.00202 0.49825 0.37514 0.0
C274 C 0.93188 0.47741 0.35302 0.0
C275 C 0.89254 0.44459 0.34032 0.0
C276 C 0.89693 0.41859 0.32378 0.0
C277 C 0.85965 0.38727 0.31211 0.0
C278 C 0.81784 0.38187 0.31672 0.0
C279 C 0.81323 0.40788 0.33296 0.0
C280 C 0.8504 0.43921 0.3447 0.0
C281 C 0.02076 0.66752 0.33922 0.0
C282 C 0.03397 0.69425 0.35821 0.0
C283 C -0.00099 0.62145 0.34109 0.0
C284 C 0.99081 0.60158 0.362 0.0
C285 C -0.00063 0.6281 0.38095 0.0
C286 C 0.02098 0.67433 0.37906 0.0
C287 C 0.97994 0.55469 0.36378 0.0
C288 C 0.94207 0.52183 0.353 0.0
C289 C 0.00872 0.54289 0.37465 0.0
C290 C 0.0509 0.57668 0.38499 0.0
C291 C 0.05823 0.57459 0.40767 0.0
C292 C 0.09732 0.60729 0.41758 0.0
C293 C 0.1294 0.64215 0.40493 0.0
C294 C 0.12263 0.64417 0.38231 0.0
C295 C 0.0837 0.61145 0.37231 0.0
H296 H 0.15953 0.66754 0.41266 0.0
H297 H 0.78901 0.35759 0.30767 0.0
H298 H 0.42422 0.09259 0.6596 0.0
H299 H 0.47747 0.06676 0.66348 0.0
H300 H 0.42294 0.01207 0.72742 0.0
H301 H 0.3689 0.03798 0.72345 0.0
H302 H 0.51597 0.0681 0.72756 0.0
H303 H 0.40813 0.94273 0.68704 0.0
H304 H 0.35449 0.90354 0.65709 0.0
H305 H 0.45905 0.96336 0.60914 0.0
H306 H 0.51325 0.00346 0.63878 0.0
H307 H 0.63925 0.95295 0.73507 0.0
H308 H 0.59202 0.9864 0.73652 0.0
H309 H 0.62579 0.02911 0.66889 0.0
H310 H 0.67194 0.99427 0.66734 0.0
H311 H 0.54025 0.97616 0.67281 0.0
H312 H 0.64809 0.10327 0.71306 0.0
H313 H 0.70178 0.14337 0.74286 0.0
H314 H 0.59821 0.08122 0.79116 0.0
H315 H 0.54397 0.04025 0.76166 0.0
C316 C 0.42275 0.07393 0.67421 0.0
C317 C 0.3923 0.06683 0.69113 0.0
C318 C 0.45326 0.05931 0.67645 0.0
C319 C 0.45422 0.03754 0.69574 0.0
C320 C 0.42268 0.02882 0.71239 0.0
C321 C 0.39153 0.04303 0.71001 0.0
C322 C 0.49012 0.02667 0.69869 0.0
C323 C 0.52094 0.04732 0.71586 0.0
C324 C 0.49719 0.00064 0.68304 0.0
C325 C 0.46472 0.97637 0.66515 0.0
C326 C 0.41965 0.94781 0.6701 0.0
C327 C 0.38914 0.92538 0.65317 0.0
C328 C 0.40334 0.93102 0.63122 0.0
C329 C 0.44809 0.95904 0.62615 0.0
C330 C 0.47874 0.98158 0.64301 0.0
C331 C 0.63878 0.97197 0.72101 0.0
C332 C 0.65978 0.97184 0.70122 0.0
C333 C 0.61136 0.99073 0.72175 0.0
C334 C 0.60492 0.00997 0.70274 0.0
C335 C 0.63004 0.01426 0.68373 0.0
C336 C 0.65709 0.99509 0.68295 0.0
C337 C 0.56698 0.01838 0.70143 0.0
C338 C 0.5355 -0.00301 0.68458 0.0
C339 C 0.55947 0.04376 0.71737 0.0
C340 C 0.59204 0.06835 0.73515 0.0
C341 C 0.63682 0.09784 0.73004 0.0
C342 C 0.66735 0.1208 0.74689 0.0
C343 C 0.65344 0.11476 0.7689 0.0
C344 C 0.60894 0.08583 0.77411 0.0
C345 C 0.57828 0.06277 0.75733 0.0
H346 H 0.67712 0.13257 0.78191 0.0
H347 H 0.37967 0.91364 0.61814 0.0
H348 H 0.60689 0.64722 0.69556 0.0
H349 H 0.54822 0.5692 0.69702 0.0
H350 H 0.44998 0.60929 0.70574 0.0
H351 H 0.50835 0.68698 0.70497 0.0
H352 H 0.43325 0.54161 0.73225 0.0
H353 H 0.46391 0.57592 0.65565 0.0
H354 H 0.51084 0.60417 0.62241 0.0
H355 H 0.55164 0.50707 0.63044 0.0
H356 H 0.50543 0.47863 0.66392 0.0
H357 H 0.29977 0.30607 0.67385 0.0
H358 H 0.33139 0.387 0.67403 0.0
H359 H 0.39993 0.3956 0.73495 0.0
H360 H 0.36839 0.31523 0.73474 0.0
H361 H 0.41922 0.44153 0.67045 0.0
H362 H 0.42059 0.48659 0.76352 0.0
H363 H 0.37039 0.45886 0.79563 0.0
H364 H 0.25756 0.39804 0.7523 0.0
H365 H 0.30699 0.42592 0.71993 0.0
C366 C 0.57284 0.6393 0.69804 0.0
C367 C 0.5621 0.6731 0.69984 0.0
C368 C 0.53936 0.59484 0.69869 0.0
C369 C 0.49471 0.58359 0.70111 0.0
C370 C 0.48416 0.61728 0.7037 0.0
C371 C 0.51752 0.66161 0.70306 0.0
C372 C 0.45889 0.53668 0.70061 0.0
C373 C 0.43 0.51967 0.71873 0.0
C374 C 0.45384 0.50856 0.68261 0.0
C375 C 0.48144 0.52536 0.66239 0.0
C376 C 0.48311 0.56078 0.65041 0.0
C377 C 0.50956 0.5768 0.63152 0.0
C378 C 0.53427 0.55748 0.62434 0.0
C379 C 0.5325 0.52202 0.63602 0.0
C380 C 0.50615 0.5059 0.65495 0.0
C381 C 0.32025 0.32531 0.68764 0.0
C382 C 0.3318 0.30493 0.7043 0.0
C383 C 0.33848 0.37135 0.68768 0.0
C384 C 0.36793 0.39722 0.70452 0.0
C385 C 0.3768 0.37628 0.72197 0.0
C386 C 0.35892 0.33047 0.72184 0.0
C387 C 0.3945 0.44601 0.70245 0.0
C388 C 0.42188 0.46349 0.68385 0.0
C389 C 0.39763 0.47462 0.71984 0.0
C390 C 0.3676 0.45816 0.73927 0.0
C391 C 0.38507 0.46753 0.76083 0.0
C392 C 0.35673 0.45172 0.77909 0.0
C393 C 0.31083 0.42662 0.77601 0.0
C394 C 0.29314 0.41736 0.75467 0.0
C395 C 0.32131 0.4331 0.73635 0.0
H396 H 0.28896 0.4144 0.79017 0.0
H397 H 0.55473 0.56993 0.60971 0.0
H398 H 0.9185 0.59539 0.07031 0.0
H399 H 0.93969 0.53834 0.07508 0.0
H400 H 0.90356 0.4974 1.00726 0.0
H401 H 0.88111 0.55331 1.00279 0.0
H402 H 0.86821 0.42789 0.03295 0.0
H403 H 0.0137 0.55712 0.02546 0.0
H404 H 0.07469 0.63194 0.03484 0.0
H405 H 0.08025 0.58833 0.1005 0.0
H406 H 0.01888 0.51335 0.09157 0.0
H407 H 0.99339 0.32496 1.00448 0.0
H408 H 0.95269 0.36482 1.01001 0.0
H409 H 0.98148 0.37452 0.07976 0.0
H410 H 0.02198 0.33418 0.07424 0.0
H411 H 0.01469 0.45516 0.05957 0.0
H412 H 0.87571 0.32154 0.06381 0.0
H413 H 0.81712 0.24684 0.05261 0.0
H414 H 0.80159 0.29866 0.991 0.0
H415 H 0.86054 0.37359 1.00168 0.0
C416 C 0.9161 0.57475 0.05636 0.0
C417 C 0.89847 0.57861 0.03617 0.0
C418 C 0.928 0.54213 0.05909 0.0
C419 C 0.92315 0.51356 0.04152 0.0
C420 C 0.90719 0.51878 1.02109 0.0
C421 C 0.89477 0.55088 1.01848 0.0
C422 C 0.93316 0.47717 0.04442 0.0
C423 C 0.90037 0.43389 0.03862 0.0
C424 C 0.97453 0.48474 0.05255 0.0
C425 C 0.01134 0.52981 0.05794 0.0
C426 C 0.02767 0.5636 0.04196 0.0
C427 C 0.06236 0.60601 0.04718 0.0
C428 C 0.08122 0.61492 0.06827 0.0
C429 C 0.06553 0.58141 0.08418 0.0
C430 C 0.03082 0.53895 0.07905 0.0
C431 C 0.98901 0.3337 1.02111 0.0
C432 C 0.01009 0.32627 0.03899 0.0
C433 C 0.96595 0.35655 1.02428 0.0
C434 C 0.96417 0.37258 0.04533 0.0
C435 C 0.98237 0.36213 0.06347 0.0
C436 C 0.00509 0.33888 0.06034 0.0
C437 C 0.9502 0.40617 0.04752 0.0
C438 C 0.98224 0.44899 0.05428 0.0
C439 C 0.90839 0.39824 0.04001 0.0
C440 C 0.87278 0.35321 0.03351 0.0
C441 C 0.86005 0.31698 0.0478 0.0
C442 C 0.82672 0.27458 0.04156 0.0
C443 C 0.80569 0.268 1.0211 0.0
C444 C 0.8179 0.30381 1.00685 0.0
C445 C 0.85123 0.34627 1.01301 0.0
H446 H 0.77989 0.23515 1.01629 0.0
H447 H 0.10809 0.64777 0.07228 0.0
H448 H 0.3233 0.83961 0.37984 0.0
H449 H 0.40107 0.86191 0.38379 0.0
H450 H 0.43742 -0.00242 0.37001 0.0
H451 H 0.35917 0.97469 0.36415 0.0
H452 H 0.4892 0.97994 0.34843 0.0
H453 H 0.44406 0.95889 0.42366 0.0
H454 H 0.3981 0.92056 0.45609 0.0
H455 H 0.42802 0.81555 0.44819 0.0
H456 H 0.47394 0.85312 0.41554 0.0
H457 H 0.70023 0.05193 0.41122 0.0
H458 H 0.61937 0.0104 0.41344 0.0
H459 H 0.61328 0.95241 0.34955 0.0
H460 H 0.69453 0.99541 0.347 0.0
H461 H 0.54705 0.93153 0.41107 0.0
H462 H 0.54016 0.96629 0.31811 0.0
H463 H 0.59015 0.01591 0.28911 0.0
H464 H 0.66888 0.11235 0.33836 0.0
H465 H 0.61893 0.0637 0.36755 0.0
C466 C 0.34771 0.87418 0.37733 0.0
C467 C 0.33485 0.90522 0.37122 0.0
C468 C 0.39233 0.88703 0.38004 0.0
C469 C 0.42526 0.93152 0.37747 0.0
C470 C 0.41259 0.96298 0.37206 0.0
C471 C 0.3678 0.94995 0.36893 0.0
C472 C 0.47289 0.94459 0.37936 0.0
C473 C 0.50169 0.96929 0.36216 0.0
C474 C 0.48963 0.93133 0.3974 0.0
C475 C 0.4621 0.90863 0.41703 0.0
C476 C 0.44059 0.92746 0.42874 0.0
C477 C 0.41457 0.90589 0.44718 0.0
C478 C 0.40997 0.86554 0.45416 0.0
C479 C 0.43155 0.84677 0.44275 0.0
C480 C 0.45765 0.86823 0.4243 0.0
C481 C 0.68163 0.02871 0.39813 0.0
C482 C 0.70319 0.02696 0.37885 0.0
C483 C 0.63545 0.00501 0.39941 0.0
C484 C 0.61035 0.97923 0.38143 0.0
C485 C 0.63216 0.97278 0.36344 0.0
C486 C 0.67849 -0.00311 0.36207 0.0
C487 C 0.56277 0.96606 0.38 0.0
C488 C 0.53416 0.94159 0.39727 0.0
C489 C 0.54655 0.9811 0.36251 0.0
C490 C 0.57611 0.01109 0.345 0.0
C491 C 0.56802 -0.00183 0.32271 0.0
C492 C 0.59635 0.02613 0.30625 0.0
C493 C 0.63275 0.06718 0.3119 0.0
C494 C 0.64075 0.0805 0.33401 0.0
C495 C 0.61243 0.05276 0.35051 0.0
H496 H 0.65471 0.08871 0.29914 0.0
H497 H 0.38979 0.84885 0.46843 0.0
H498 H 0.04267 0.15074 1.02423 0.0
H499 H 0.01619 0.07338 0.03372 0.0
H500 H 0.15105 0.10301 0.04429 0.0
H501 H 0.17786 0.18165 0.0355 0.0
H502 H 0.09051 0.03157 1.01037 0.0
H503 H 0.10171 0.07173 0.08612 0.0
H504 H 0.09357 0.11037 0.1184 0.0
H505 H 0.95197 0.03933 0.1102 0.0
H506 H 0.95925 0.00079 0.07764 0.0
H507 H 0.96628 0.79754 1.01732 0.0
H508 H 0.02349 0.87339 0.0264 0.0
H509 H 0.92151 0.90406 0.04459 0.0
H510 H 0.86455 0.82731 0.03699 0.0
H511 H 0.98664 0.94587 0.07083 0.0
H512 H 0.97541 0.92652 0.99088 0.0
H513 H 0.97851 0.89245 0.95563 0.0
H514 H 0.11386 0.92837 0.96873 0.0
H515 H 0.11135 0.96225 1.00418 0.0
C516 C 0.06662 0.14089 0.02889 0.0
C517 C 0.1122 0.17169 0.02901 0.0
C518 C 0.05149 0.0969 0.03445 0.0
C519 C 0.08173 0.08284 0.0398 0.0
C520 C 0.12736 0.11363 0.04039 0.0
C521 C 0.14254 0.15822 0.03537 0.0
C522 C 0.06476 0.03495 0.04217 0.0
C523 C 0.06893 0.01256 1.02391 0.0
C524 C 0.03581 0.01074 0.05959 0.0
C525 C 0.03108 0.03342 0.07936 0.0
C526 C 0.06884 0.06454 0.0911 0.0
C527 C 0.06437 0.08641 0.10947 0.0
C528 C 0.02228 0.07733 0.11634 0.0
C529 C 0.98456 0.0463 0.10488 0.0
C530 C 0.98884 0.02436 0.08648 0.0
C531 C 0.95626 0.82059 1.02333 0.0
C532 C 0.91119 0.80714 0.02612 0.0
C533 C 0.98891 0.86386 0.02852 0.0
C534 C 0.97687 0.89482 0.03571 0.0
C535 C 0.93172 0.88085 0.03908 0.0
C536 C 0.89917 0.83719 0.03457 0.0
C537 C 0.0106 0.94235 0.03844 0.0
C538 C 0.00943 0.96455 0.05763 0.0
C539 C 0.04151 0.96667 1.02155 0.0
C540 C 0.043 0.94633 1.00028 0.0
C541 C 0.00572 0.92687 0.98629 0.0
C542 C 0.00738 0.90764 0.96628 0.0
C543 C 0.0463 0.9081 0.95998 0.0
C544 C 0.0837 0.92793 0.97365 0.0
C545 C 0.08218 0.94714 0.9937 0.0
H546 H 0.04753 0.8932 0.94448 0.0
H547 H 0.0189 0.09433 0.13056 0.0
H548 H 0.09061 0.89945 0.39347 0.0
H549 H 0.06611 0.95142 0.40492 0.0
H550 H 0.11749 0.02431 0.34422 0.0
H551 H 0.14291 0.97349 0.33299 0.0
H552 H 0.1354 0.08006 0.37759 0.0
H553 H 0.00591 0.94425 0.35122 0.0
H554 H 0.95229 0.86396 0.35213 0.0
H555 H 0.91819 0.87547 0.41905 0.0
H556 H 0.97204 0.95581 0.41859 0.0
H557 H -0.0031 0.15111 0.33277 0.0
H558 H 0.04085 0.11765 0.34449 0.0
H559 H 0.98582 0.0991 0.41008 0.0
H560 H 0.94239 0.13387 0.3985 0.0
H561 H 0.97379 0.02029 0.38791 0.0
H562 H 0.08985 0.16221 0.40829 0.0
H563 H 0.14097 0.24262 0.40473 0.0
H564 H 0.19868 0.22039 0.34684 0.0
H565 H 0.14747 0.13988 0.34984 0.0
C566 C 0.09679 0.92667 0.38262 0.0
C567 C 0.11836 0.93219 0.36223 0.0
C568 C 0.08284 0.95635 0.38921 0.0
C569 C 0.0897 0.99157 0.37535 0.0
C570 C 0.11207 -0.00245 0.35524 0.0
C571 C 0.12633 0.96826 0.34877 0.0
C572 C 0.07152 0.02096 0.38081 0.0
C573 C 0.10009 0.06706 0.37995 0.0
C574 C 0.02568 0.004 0.38471 0.0
C575 C 0.99338 0.95581 0.38498 0.0
C576 C 0.98721 0.92956 0.36618 0.0
C577 C 0.95675 0.88408 0.3666 0.0
C578 C 0.93197 0.8646 0.38566 0.0
C579 C 0.9375 0.89059 0.40432 0.0
C580 C 0.96797 0.93608 0.40399 0.0
C581 C 0.99505 0.1409 0.34983 0.0
C582 C 0.96638 0.14491 0.36474 0.0
C583 C 0.02026 0.12202 0.35654 0.0
C584 C 0.01666 0.10616 0.37817 0.0
C585 C 0.98922 0.11153 0.39338 0.0
C586 C 0.96464 0.13144 0.38678 0.0
C587 C 0.03738 0.07917 0.38353 0.0
C588 C 0.00931 0.03345 0.38641 0.0
C589 C 0.08355 0.09646 0.38119 0.0
C590 C 0.11467 0.14491 0.37928 0.0
C591 C 0.11323 0.17446 0.39471 0.0
C592 C 0.14227 0.22008 0.3928 0.0
C593 C 0.17304 0.23661 0.37556 0.0
C594 C 0.17486 0.20753 0.3602 0.0
C595 C 0.14588 0.16187 0.36203 0.0
H596 H 0.19549 0.27194 0.37411 0.0
H597 H 0.90839 0.82939 0.38596 0.0
H598 H 0.14915 0.08658 0.67998 0.0
H599 H 0.07311 0.03979 0.69277 0.0
H600 H 0.11081 0.95298 0.72498 0.0
H601 H 0.18812 0.00096 0.7128 0.0
H602 H 0.03006 0.91885 0.68997 0.0
H603 H 0.0887 0.99177 0.75849 0.0
H604 H 0.13593 0.05714 0.78145 0.0
H605 H 0.05782 0.11625 0.7629 0.0
H606 H 0.0113 0.05214 0.73899 0.0
H607 H 0.80058 0.81379 0.70721 0.0
H608 H 0.87754 0.83868 0.71761 0.0
H609 H 0.90764 0.97487 0.71372 0.0
H610 H 0.82992 0.94976 0.70481 0.0
H611 H 0.95723 0.9695 0.744 0.0
H612 H 0.91983 0.9157 0.66828 0.0
H613 H 0.87804 0.85965 0.6396 0.0
H614 H 0.9191 0.77266 0.66789 0.0
H615 H 0.96076 0.82809 0.69689 0.0
C616 C 0.14136 0.05758 0.68981 0.0
C617 C 0.17427 0.04709 0.69532 0.0
C618 C 0.09808 0.03116 0.69722 0.0
C619 C 0.0868 0.99341 0.70992 0.0
C620 C 0.11932 0.98236 0.71533 0.0
C621 C 0.16316 0.00958 0.70836 0.0
C622 C 0.04003 0.9648 0.71611 0.0
C623 C 0.01401 0.92873 0.70232 0.0
C624 C 0.01966 0.97898 0.73181 0.0
C625 C 0.0466 0.01711 0.74677 0.0
C626 C 0.08181 0.01887 0.7591 0.0
C627 C 0.10849 0.05574 0.7723 0.0
C628 C 0.09982 0.09078 0.77369 0.0
C629 C 0.06448 0.08905 0.76183 0.0
C630 C 0.03799 0.05247 0.74839 0.0
C631 C 0.82362 0.849 0.70893 0.0
C632 C 0.8099 0.88004 0.70482 0.0
C633 C 0.86749 0.86319 0.71487 0.0
C634 C 0.8987 0.90867 0.71585 0.0
C635 C 0.88425 0.93959 0.71302 0.0
C636 C 0.83999 0.92533 0.70777 0.0
C637 C 0.94692 0.92434 0.71724 0.0
C638 C 0.97314 0.95819 0.73231 0.0
C639 C 0.96773 0.90892 0.70231 0.0
C640 C 0.94285 0.8757 0.68488 0.0
C641 C 0.91969 0.88449 0.66844 0.0
C642 C 0.89607 0.85287 0.65213 0.0
C643 C 0.89578 0.81255 0.65197 0.0
C644 C 0.91925 0.80385 0.66808 0.0
C645 C 0.94286 0.83534 0.68444 0.0
H646 H 0.87748 0.78811 0.63933 0.0
H647 H 0.12047 0.11925 0.78396 0.0
H648 H 0.25318 0.27063 0.95786 0.0
H649 H 0.27398 0.24298 0.92516 0.0
H650 H 0.15884 0.2282 0.89061 0.0
H651 H 0.13755 0.25453 0.92315 0.0
H652 H 0.16881 0.15971 0.8813 0.0
H653 H 0.265 0.31775 0.88151 0.0
H654 H 0.32038 0.39004 0.89708 0.0
H655 H 0.41404 0.34424 0.90324 0.0
H656 H 0.35897 0.27142 0.88797 0.0
H657 H 0.23555 0.14428 0.77075 0.0
H658 H 0.21178 0.16538 0.80436 0.0
H659 H 0.32936 0.18449 0.838 0.0
H660 H 0.35389 0.16464 0.80476 0.0
H661 H 0.31786 0.25031 0.84798 0.0
H662 H 0.22167 0.09226 0.84702 0.0
H663 H 0.16555 0.01966 0.83207 0.0
H664 H 0.07149 0.06519 0.82732 0.0
H665 H 0.12727 0.13832 0.84194 0.0
C666 C 0.23207 0.26102 0.94339 0.0
C667 C 0.19394 0.26546 0.94319 0.0
C668 C 0.24419 0.24553 0.92456 0.0
C669 C 0.21843 0.234 0.90508 0.0
C670 C 0.17957 0.23697 0.90522 0.0
C671 C 0.16761 0.25251 0.92389 0.0
C672 C 0.23196 0.21967 0.88438 0.0
C673 C 0.20129 0.17982 0.87392 0.0
C674 C 0.27452 0.24524 0.87471 0.0
C675 C 0.30771 0.28899 0.88383 0.0
C676 C 0.29729 0.32298 0.88635 0.0
C677 C 0.32864 0.36406 0.89509 0.0
C678 C 0.37065 0.37168 0.90121 0.0
C679 C 0.38145 0.33826 0.89853 0.0
C680 C 0.3502 0.29709 0.88982 0.0
C681 C 0.25659 0.1529 0.78518 0.0
C682 C 0.2971 0.15258 0.78447 0.0
C683 C 0.24264 0.16479 0.80462 0.0
C684 C 0.26852 0.17644 0.82403 0.0
C685 C 0.30864 0.17591 0.82339 0.0
C686 C 0.32262 0.16416 0.80408 0.0
C687 C 0.2548 0.19013 0.84489 0.0
C688 C 0.28541 0.23003 0.85536 0.0
C689 C 0.21214 0.16459 0.85453 0.0
C690 C 0.17879 0.1209 0.8454 0.0
C691 C 0.18914 0.08692 0.84261 0.0
C692 C 0.15735 0.04564 0.83425 0.0
C693 C 0.11495 0.03779 0.82881 0.0
C694 C 0.1043 0.07127 0.83163 0.0
C695 C 0.136 0.11265 0.83992 0.0
H696 H 0.0904 0.00582 0.82232 0.0
H697 H 0.39488 0.40351 0.90797 0.0
H698 H 0.07222 0.26374 0.10128 0.0
H699 H 0.03079 0.24539 0.13614 0.0
H700 H 0.15326 0.32107 0.17205 0.0
H701 H 0.19477 0.33913 0.13731 0.0
H702 H 0.09776 0.24402 0.19386 0.0
H703 H 0.0867 0.36439 0.16172 0.0
H704 H 0.06918 0.4033 0.13286 0.0
H705 H 0.93295 0.29916 0.13289 0.0
H706 H 0.94977 0.25929 0.16157 0.0
H707 H -0.00369 0.25062 0.29605 0.0
H708 H 0.04232 0.27083 0.26275 0.0
H709 H 0.92458 0.21597 0.22226 0.0
H710 H 0.87907 0.19855 0.25497 0.0
H711 H 0.98085 0.28482 0.20311 0.0
H712 H 0.99061 0.16254 0.23408 0.0
H713 H 0.00665 0.12275 0.26308 0.0
H714 H 0.1428 0.22702 0.2649 0.0
H715 H 0.12742 0.26772 0.23609 0.0
C716 C 0.09044 0.27598 0.11659 0.0
C717 C 0.137 0.30314 0.11634 0.0
C718 C 0.06662 0.26576 0.13659 0.0
C719 C 0.08866 0.2822 0.15691 0.0
C720 C 0.13524 0.308 0.15673 0.0
C721 C 0.159 0.31856 0.13676 0.0
C722 C 0.06329 0.27368 0.17822 0.0
C723 C 0.07249 0.25335 0.19595 0.0
C724 C 0.02968 0.28505 0.18106 0.0
C725 C 0.01958 0.30869 0.16365 0.0
C726 C 0.05309 0.34959 0.15543 0.0
C727 C 0.04328 0.37184 0.13913 0.0
C728 C -1e-05 0.35369 0.13106 0.0
C729 C 0.96646 0.31316 0.13918 0.0
C730 C 0.9761 0.29074 0.15546 0.0
C731 C 0.98009 0.24322 0.28011 0.0
C732 C 0.93339 0.22218 0.27864 0.0
C733 C 0.0066 0.25436 0.26092 0.0
C734 C 0.98725 0.24419 0.23966 0.0
C735 C 0.94083 0.22417 0.23823 0.0
C736 C 0.9145 0.21364 0.25726 0.0
C737 C 0.01459 0.25431 0.21881 0.0
C738 C 0.00593 0.2752 0.20112 0.0
C739 C 0.04834 0.24299 0.21596 0.0
C740 C 0.05776 0.21838 0.2331 0.0
C741 C 0.02391 0.1771 0.24076 0.0
C742 C 0.03288 0.15438 0.25715 0.0
C743 C 0.07568 0.17241 0.26588 0.0
C744 C 0.10964 0.21313 0.25815 0.0
C745 C 0.10083 0.23603 0.24178 0.0
H746 H 0.08256 0.15479 0.27858 0.0
H747 H 0.9924 0.37119 0.11861 0.0
H748 H 0.81947 0.08574 0.43636 0.0
H749 H 0.79573 0.04139 0.47031 0.0
H750 H 0.84902 0.16108 0.50918 0.0
H751 H 0.87375 0.20536 0.47549 0.0
H752 H 0.86714 0.10374 0.52893 0.0
H753 H 0.73592 0.09609 0.4977 0.0
H754 H 0.68051 0.08063 0.46849 0.0
H755 H 0.64743 0.94415 0.46691 0.0
H756 H 0.70313 0.95892 0.49589 0.0
H757 H 0.75993 -0.00097 0.6305 0.0
H758 H 0.78456 0.04661 0.59761 0.0
H759 H 0.72317 0.93066 0.55587 0.0
H760 H 0.69674 0.88365 0.58825 0.0
H761 H 0.7092 0.98822 0.53787 0.0
H762 H 0.84081 0.99448 0.56731 0.0
H763 H 0.89733 0.00831 0.59564 0.0
H764 H 0.93079 0.14476 0.59973 0.0
H765 H 0.87405 0.13158 0.5716 0.0
C766 C 0.82672 0.10266 0.45213 0.0
C767 C 0.84834 0.14931 0.45303 0.0
C768 C 0.81267 0.0772 0.47161 0.0
C769 C 0.8198 0.09766 0.49251 0.0
C770 C 0.84274 0.14422 0.49341 0.0
C771 C 0.85665 0.16961 0.47402 0.0
C772 C 0.80282 0.07094 0.51339 0.0
C773 C 0.83246 0.07884 0.53094 0.0
C774 C 0.75774 0.03771 0.51612 0.0
C775 C 0.72397 0.02871 0.49883 0.0
C776 C 0.71704 0.06284 0.49102 0.0
C777 C 0.68557 0.0542 0.47451 0.0
C778 C 0.66053 0.01145 0.46583 0.0
C779 C 0.66689 0.97725 0.47364 0.0
C780 C 0.69838 0.98573 0.49012 0.0
C781 C 0.75126 0.98368 0.61434 0.0
C782 C 0.72684 0.93712 0.61231 0.0
C783 C 0.76584 0.01099 0.59543 0.0
C784 C 0.7567 0.9925 0.57397 0.0
C785 C 0.73116 0.94618 0.57203 0.0
C786 C 0.7164 0.91907 0.59078 0.0
C787 C 0.7736 0.02064 0.55343 0.0
C788 C 0.7439 0.0131 0.53593 0.0
C789 C 0.81872 0.05391 0.55067 0.0
C790 C 0.85286 0.06192 0.56754 0.0
C791 C 0.86001 0.02735 0.57437 0.0
C792 C 0.89211 0.03508 0.59037 0.0
C793 C 0.91754 0.07736 0.59953 0.0
C794 C 0.91101 0.11202 0.59265 0.0
C795 C 0.8789 0.10444 0.57667 0.0
H796 H 0.94239 0.08328 0.61191 0.0
H797 H 0.63608 0.00479 0.45312 0.0
H798 H 0.64453 0.853 0.80682 0.0
H799 H 0.66354 0.83099 0.84156 0.0
H800 H 0.75582 0.80346 0.80722 0.0
H801 H 0.73582 0.82399 0.77221 0.0
H802 H 0.70902 0.73866 0.83523 0.0
H803 H 0.78951 0.89738 0.84127 0.0
H804 H 0.79905 0.97254 0.84119 0.0
H805 H 0.70676 0.93696 0.89488 0.0
H806 H 0.69621 0.86137 0.8951 0.0
H807 H 0.82336 0.7181 0.92586 0.0
H808 H 0.80472 0.74667 0.89333 0.0
H809 H 0.70941 0.7637 0.93138 0.0
H810 H 0.72823 0.73481 0.96437 0.0
H811 H 0.75454 0.83304 0.90245 0.0
H812 H 0.67517 0.67502 0.89696 0.0
H813 H 0.66605 0.60005 0.89737 0.0
H814 H 0.75585 0.63428 0.84263 0.0
H815 H 0.76605 0.70973 0.84211 0.0
C816 C 0.6688 0.84217 0.80652 0.0
C817 C 0.68846 0.84039 0.78643 0.0
C818 C 0.68004 0.82995 0.82659 0.0
C819 C 0.7116 0.81587 0.8273 0.0
C820 C 0.73147 0.81425 0.8073 0.0
C821 C 0.72023 0.82646 0.7872 0.0
C822 C 0.72287 0.80161 0.84868 0.0
C823 C 0.71958 0.7597 0.84979 0.0
C824 C 0.73536 0.82814 0.8681 0.0
C825 C 0.74173 0.87358 0.86805 0.0
C826 C 0.77099 0.90548 0.85295 0.0
C827 C 0.77663 0.94817 0.8529 0.0
C828 C 0.75344 0.95948 0.86798 0.0
C829 C 0.72465 0.92813 0.88319 0.0
C830 C 0.71886 0.88537 0.8833 0.0
C831 C 0.79835 0.72781 0.92742 0.0
C832 C 0.77684 0.7234 0.94777 0.0
C833 C 0.7877 0.74425 0.9087 0.0
C834 C 0.75486 0.75655 0.90958 0.0
C835 C 0.73467 0.75422 0.93013 0.0
C836 C 0.74551 0.7378 0.94903 0.0
C837 C 0.74118 0.77041 0.88884 0.0
C838 C 0.74391 0.81208 0.88787 0.0
C839 C 0.72807 0.74366 0.86951 0.0
C840 C 0.72165 0.69815 0.86961 0.0
C841 C 0.6932 0.66666 0.8851 0.0
C842 C 0.68781 0.62407 0.88534 0.0
C843 C 0.71042 0.61244 0.87006 0.0
C844 C 0.73838 0.64335 0.85447 0.0
C845 C 0.74395 0.68603 0.85418 0.0
H846 H 0.70622 0.57945 0.87028 0.0
H847 H 0.75785 0.99255 0.86791 0.0
H848 H 0.79605 0.67895 0.14217 0.0
H849 H 0.84184 0.70062 0.17551 0.0
H850 H 0.9598 0.7524 0.13544 0.0
H851 H 0.91387 0.73006 0.1019 0.0
H852 H 0.96233 0.70191 0.16922 0.0
H853 H 0.93155 0.82162 0.16254 0.0
H854 H 0.88381 0.85503 0.15864 0.0
H855 H 0.8183 0.79488 0.21957 0.0
H856 H 0.86527 0.76061 0.22369 0.0
H857 H 0.12335 0.81549 0.25066 0.0
H858 H 0.07454 0.79504 0.21911 0.0
H859 H 0.96243 0.75618 0.26221 0.0
H860 H 0.01193 0.77896 0.29438 0.0
H861 H 0.95413 0.7977 0.22765 0.0
H862 H 0.98394 0.67868 0.23515 0.0
H863 H 0.02959 0.64305 0.23941 0.0
H864 H 0.09378 0.6981 0.17752 0.0
H865 H 0.04895 0.7346 0.17304 0.0
C866 C 0.83173 0.69497 0.14038 0.0
C867 C 0.85109 0.70263 0.11921 0.0
C868 C 0.858 0.7077 0.15954 0.0
C869 C 0.90452 0.72852 0.15817 0.0
C870 C 0.92405 0.7365 0.13705 0.0
C871 C 0.89773 0.72402 0.11782 0.0
C872 C 0.9325 0.74074 0.17873 0.0
C873 C 0.96098 0.7234 0.18182 0.0
C874 C 0.92977 0.76747 0.1957 0.0
C875 C 0.90164 0.78821 0.19331 0.0
C876 C 0.90673 0.81524 0.17502 0.0
C877 C 0.87985 0.83438 0.17279 0.0
C878 C 0.84796 0.82699 0.18882 0.0
C879 C 0.84297 0.80053 0.20715 0.0
C880 C 0.86975 0.78128 0.20946 0.0
C881 C 0.08855 0.80316 0.2538 0.0
C882 C 0.07224 0.7994 0.27554 0.0
C883 C 0.06027 0.79075 0.23545 0.0
C884 C 0.01434 0.77314 0.23802 0.0
C885 C -0.00234 0.76944 0.25962 0.0
C886 C 0.02615 0.78227 0.27812 0.0
C887 C 0.98441 0.75923 0.21808 0.0
C888 C 0.95548 0.77614 0.21509 0.0
C889 C 0.98638 0.73171 0.20126 0.0
C890 C 0.01333 0.7097 0.20386 0.0
C891 C 0.00801 0.68346 0.22253 0.0
C892 C 0.03371 0.66306 0.22497 0.0
C893 C 0.06463 0.66839 0.20877 0.0
C894 C 0.06984 0.69404 0.19007 0.0
C895 C 0.04426 0.71455 0.18756 0.0
H896 H 0.0845 0.65257 0.21069 0.0
H897 H 0.82718 0.84184 0.18706 0.0
H898 H 0.27128 0.1104 0.59054 0.0
H899 H 0.2449 0.06334 0.5579 0.0
H900 H 0.25035 0.95878 0.59335 0.0
H901 H 0.27814 0.00666 0.62625 0.0
H902 H 0.28456 0.96742 0.55235 0.0
H903 H 0.15043 0.95339 0.58143 0.0
H904 H 0.1011 0.97936 0.59606 0.0
H905 H 0.11202 0.04709 0.53511 0.0
H906 H 0.16195 0.02206 0.52022 0.0
H907 H 0.17145 0.80646 0.46878 0.0
H908 H 0.19212 0.84748 0.50324 0.0
H909 H 0.18413 0.95461 0.47216 0.0
H910 H 0.1618 0.91316 0.43754 0.0
H911 H 0.1494 0.94175 0.51206 0.0
H912 H 0.28558 0.95812 0.48351 0.0
H913 H 0.33524 0.9326 0.46888 0.0
H914 H 0.32095 0.86104 0.52891 0.0
H915 H 0.27056 0.88555 0.54377 0.0
C916 C 0.2672 0.07753 0.59151 0.0
C917 C 0.27728 0.06266 0.61118 0.0
C918 C 0.25153 0.0503 0.57276 0.0
C919 C 0.24502 0.00707 0.57301 0.0
C920 C 0.25488 0.99189 0.59262 0.0
C921 C 0.2705 0.01922 0.61153 0.0
C922 C 0.22897 0.97857 0.5526 0.0
C923 C 0.25455 0.96118 0.54379 0.0
C924 C 0.19041 0.97113 0.54091 0.0
C925 C 0.16026 0.98615 0.54978 0.0
C926 C 0.14259 0.97411 0.57121 0.0
C927 C 0.11447 0.98861 0.57953 0.0
C928 C 0.10351 0.01494 0.56654 0.0
C929 C 0.12057 0.02673 0.54517 0.0
C930 C 0.14875 0.01235 0.53677 0.0
C931 C 0.17369 0.83855 0.46897 0.0
C932 C 0.16487 0.85601 0.44979 0.0
C933 C 0.18605 0.86236 0.48893 0.0
C934 C 0.19064 0.90476 0.49046 0.0
C935 C 0.18116 0.92212 0.47156 0.0
C936 C 0.16855 0.89822 0.45155 0.0
C937 C 0.20515 0.9308 0.51171 0.0
C938 C 0.1793 0.94779 0.52067 0.0
C939 C 0.24351 0.93792 0.52352 0.0
C940 C 0.27394 0.9233 0.51466 0.0
C941 C 0.29276 0.93666 0.49352 0.0
C942 C 0.32108 0.92241 0.4852 0.0
C943 C 0.33118 0.89513 0.49794 0.0
C944 C 0.31304 0.88212 0.51905 0.0
C945 C 0.28461 0.89619 0.52743 0.0
H946 H 0.35312 0.88414 0.49151 0.0
H947 H 0.08174 0.02614 0.57302 0.0
loop_
_geom_bond_atom_site_label_1
_geom_bond_atom_site_label_2
_geom_bond_distance
_geom_bond_site_symmetry_2
_ccdc_geom_bond_type
C0 C1 1.351 . S
C0 N3 1.368 . S
C0 H5 0.931 . S
C1 C0 1.351 . S
C1 N2 1.373 . S
C1 H29 0.930 . S
N2 C1 1.373 . S
N2 C4 1.340 . S
N3 C0 1.368 . S
N3 C4 1.321 . S
N3 Co6 2.135 . S
C4 N2 1.340 . S
C4 N3 1.321 . S
C4 H28 0.930 . S
H5 C0 0.931 . S
Co6 N3 2.135 . S
Co6 N9 2.121 1_554 S
Co6 O14 2.055 . S
Co6 O17 2.039 . S
Co6 N20 2.140 . S
C7 O8 1.227 . S
C7 O17 1.265 . S
O8 C7 1.227 . S
N9 Co6 2.121 1_556 S
N9 C11 1.375 . S
N9 C12 1.313 . S
C10 C11 1.338 . S
C10 N13 1.377 . S
C10 H30 0.930 . S
C11 N9 1.375 . S
C11 C10 1.338 . S
C11 H15 0.931 . S
C12 N9 1.313 . S
C12 N13 1.344 . S
C12 H16 0.930 . S
N13 C10 1.377 . S
N13 C12 1.344 . S
O14 Co6 2.055 . S
O14 C18 1.253 . S
H15 C11 0.931 . S
H16 C12 0.930 . S
O17 Co6 2.039 . S
O17 C7 1.265 . S
C18 O14 1.253 . S
C18 O19 1.227 . S
O19 C18 1.227 . S
N20 Co6 2.140 . S
N20 C23 1.346 . S
N20 C24 1.345 1_554 S
C21 C22 1.366 1_556 S
C21 C25 1.407 . S
C22 C21 1.366 1_554 S
C22 C23 1.369 . S
C22 H31 0.929 . S
C23 N20 1.346 . S
C23 C22 1.369 . S
C23 H26 0.928 . S
C24 N20 1.345 1_556 S
C24 C25 1.371 . S
C24 H27 0.931 . S
C25 C21 1.407 . S
C25 C24 1.371 . S
C25 H32 0.930 . S
H26 C23 0.928 . S
H27 C24 0.931 . S
H28 C4 0.930 . S
H29 C1 0.930 . S
H30 C10 0.930 . S
H31 C22 0.929 . S
H32 C25 0.930 . S
C33 C34 1.351 . S
C33 N36 1.368 . S
C33 H38 0.931 . S
C34 C33 1.351 . S
C34 N35 1.373 . S
C34 H62 0.930 . S
N35 C34 1.373 . S
N35 C37 1.340 . S
N36 C33 1.368 . S
N36 C37 1.321 . S
N36 Co39 2.135 . S
C37 N35 1.340 . S
C37 N36 1.321 . S
C37 H61 0.930 . S
H38 C33 0.931 . S
Co39 N36 2.135 . S
Co39 N42 2.121 . S
Co39 O47 2.055 . S
Co39 O50 2.039 . S
Co39 N53 2.140 . S
C40 O41 1.227 . S
C40 O50 1.265 . S
O41 C40 1.227 . S
N42 Co39 2.121 . S
N42 C44 1.375 . S
N42 C45 1.313 . S
C43 C44 1.338 . S
C43 N46 1.377 . S
C43 H63 0.930 . S
C44 N42 1.375 . S
C44 C43 1.338 . S
C44 H48 0.931 . S
C45 N42 1.313 . S
C45 N46 1.344 . S
C45 H49 0.930 . S
N46 C43 1.377 . S
N46 C45 1.344 . S
O47 Co39 2.055 . S
O47 C51 1.253 . S
H48 C44 0.931 . S
H49 C45 0.930 . S
O50 Co39 2.039 . S
O50 C40 1.265 . S
C51 O47 1.253 . S
C51 O52 1.227 . S
O52 C51 1.227 . S
N53 Co39 2.140 . S
N53 C56 1.346 . S
N53 C57 1.345 . S
C54 C55 1.387 . S
C54 C58 1.391 . S
C55 C54 1.387 . S
C55 C56 1.369 . S
C55 H64 0.929 . S
C56 N53 1.346 . S
C56 C55 1.369 . S
C56 H59 0.928 . S
C57 N53 1.345 . S
C57 C58 1.371 . S
C57 H60 0.931 . S
C58 C54 1.391 . S
C58 C57 1.371 . S
C58 H65 0.930 . S
H59 C56 0.928 . S
H60 C57 0.931 . S
H61 C37 0.930 . S
H62 C34 0.930 . S
H63 C43 0.930 . S
H64 C55 0.929 . S
H65 C58 0.930 . S
C66 C67 1.351 . S
C66 N69 1.368 . S
C66 H71 0.931 . S
C67 C66 1.351 . S
C67 N68 1.373 . S
C67 H95 0.930 . S
N68 C67 1.373 . S
N68 C70 1.340 . S
N69 C66 1.368 . S
N69 C70 1.321 . S
N69 Co72 2.135 . S
C70 N68 1.340 . S
C70 N69 1.321 . S
C70 H94 0.930 . S
H71 C66 0.931 . S
Co72 N69 2.135 . S
Co72 N75 2.121 . S
Co72 O80 2.055 . S
Co72 O83 2.039 . S
Co72 N86 2.140 . S
C73 O74 1.227 . S
C73 O83 1.265 . S
O74 C73 1.227 . S
N75 Co72 2.121 . S
N75 C77 1.375 . S
N75 C78 1.313 . S
C76 C77 1.338 . S
C76 N79 1.377 . S
C76 H96 0.930 . S
C77 N75 1.375 . S
C77 C76 1.338 . S
C77 H81 0.931 . S
C78 N75 1.313 . S
C78 N79 1.344 . S
C78 H82 0.930 . S
N79 C76 1.377 . S
N79 C78 1.344 . S
O80 Co72 2.055 . S
O80 C84 1.253 . S
H81 C77 0.931 . S
H82 C78 0.930 . S
O83 Co72 2.039 . S
O83 C73 1.265 . S
C84 O80 1.253 . S
C84 O85 1.227 . S
O85 C84 1.227 . S
N86 Co72 2.140 . S
N86 C89 1.346 . S
N86 C90 1.345 . S
C87 C88 1.387 . S
C87 C91 1.391 . S
C88 C87 1.387 . S
C88 C89 1.369 . S
C88 H97 0.929 . S
C89 N86 1.346 . S
C89 C88 1.369 . S
C89 H92 0.928 . S
C90 N86 1.345 . S
C90 C91 1.371 . S
C90 H93 0.931 . S
C91 C87 1.391 . S
C91 C90 1.371 . S
C91 H98 0.930 . S
H92 C89 0.928 . S
H93 C90 0.931 . S
H94 C70 0.930 . S
H95 C67 0.930 . S
H96 C76 0.930 . S
H97 C88 0.929 . S
H98 C91 0.930 . S
C99 C100 1.351 . S
C99 N102 1.368 . S
C99 H104 0.931 . S
C100 C99 1.351 . S
C100 N101 1.373 . S
C100 H128 0.930 . S
N101 C100 1.373 . S
N101 C103 1.340 . S
N102 C99 1.368 . S
N102 C103 1.321 . S
N102 Co105 2.135 . S
C103 N101 1.340 . S
C103 N102 1.321 . S
C103 H127 0.930 . S
H104 C99 0.931 . S
Co105 N102 2.135 . S
Co105 N108 2.121 1_554 S
Co105 O113 2.055 . S
Co105 O116 2.039 . S
Co105 N119 2.140 . S
C106 O107 1.227 . S
C106 O116 1.265 . S
O107 C106 1.227 . S
N108 Co105 2.121 1_556 S
N108 C110 1.375 . S
N108 C111 1.313 . S
C109 C110 1.338 . S
C109 N112 1.377 . S
C109 H129 0.930 . S
C110 N108 1.375 . S
C110 C109 1.338 . S
C110 H114 0.931 . S
C111 N108 1.313 . S
C111 N112 1.344 . S
C111 H115 0.930 . S
N112 C109 1.377 . S
N112 C111 1.344 . S
O113 Co105 2.055 . S
O113 C117 1.253 . S
H114 C110 0.931 . S
H115 C111 0.930 . S
O116 Co105 2.039 . S
O116 C106 1.265 . S
C117 O113 1.253 . S
C117 O118 1.227 . S
O118 C117 1.227 . S
N119 Co105 2.140 . S
N119 C122 1.346 . S
N119 C123 1.345 1_554 S
C120 C121 1.366 1_556 S
C120 C124 1.407 . S
C121 C120 1.366 1_554 S
C121 C122 1.369 . S
C121 H130 0.929 . S
C122 N119 1.346 . S
C122 C121 1.369 . S
C122 H125 0.928 . S
C123 N119 1.345 1_556 S
C123 C124 1.371 . S
C123 H126 0.931 . S
C124 C120 1.407 . S
C124 C123 1.371 . S
C124 H131 0.930 . S
H125 C122 0.928 . S
H126 C123 0.931 . S
H127 C103 0.930 . S
H128 C100 0.930 . S
H129 C109 0.930 . S
H130 C121 0.929 . S
H131 C124 0.930 . S
C132 C133 1.351 . S
C132 N135 1.368 . S
C132 H137 0.931 . S
C133 C132 1.351 . S
C133 N134 1.373 . S
C133 H161 0.930 . S
N134 C133 1.373 . S
N134 C136 1.340 . S
N135 C132 1.368 . S
N135 C136 1.321 . S
N135 Co138 2.135 . S
C136 N134 1.340 . S
C136 N135 1.321 . S
C136 H160 0.930 . S
H137 C132 0.931 . S
Co138 N135 2.135 . S
Co138 N141 2.121 . S
Co138 O146 2.055 . S
Co138 O149 2.039 . S
Co138 N152 2.140 . S
C139 O140 1.227 . S
C139 O149 1.265 . S
O140 C139 1.227 . S
N141 Co138 2.121 . S
N141 C143 1.375 . S
N141 C144 1.313 . S
C142 C143 1.338 . S
C142 N145 1.377 . S
C142 H162 0.930 . S
C143 N141 1.375 . S
C143 C142 1.338 . S
C143 H147 0.931 . S
C144 N141 1.313 . S
C144 N145 1.344 . S
C144 H148 0.930 . S
N145 C142 1.377 . S
N145 C144 1.344 . S
O146 Co138 2.055 . S
O146 C150 1.253 . S
H147 C143 0.931 . S
H148 C144 0.930 . S
O149 Co138 2.039 . S
O149 C139 1.265 . S
C150 O146 1.253 . S
C150 O151 1.227 . S
O151 C150 1.227 . S
N152 Co138 2.140 . S
N152 C155 1.346 . S
N152 C156 1.345 . S
C153 C154 1.387 . S
C153 C157 1.391 . S
C154 C153 1.387 . S
C154 C155 1.369 . S
C154 H163 0.929 . S
C155 N152 1.346 . S
C155 C154 1.369 . S
C155 H158 0.928 . S
C156 N152 1.345 . S
C156 C157 1.371 . S
C156 H159 0.931 . S
C157 C153 1.391 . S
C157 C156 1.371 . S
C157 H164 0.930 . S
H158 C155 0.928 . S
H159 C156 0.931 . S
H160 C136 0.930 . S
H161 C133 0.930 . S
H162 C142 0.930 . S
H163 C154 0.929 . S
H164 C157 0.930 . S
C165 C166 1.351 . S
C165 N168 1.368 . S
C165 H170 0.931 . S
C166 C165 1.351 . S
C166 N167 1.373 . S
C166 H194 0.930 . S
N167 C166 1.373 . S
N167 C169 1.340 . S
N168 C165 1.368 . S
N168 C169 1.321 . S
N168 Co171 2.135 . S
C169 N167 1.340 . S
C169 N168 1.321 . S
C169 H193 0.930 . S
H170 C165 0.931 . S
Co171 N168 2.135 . S
Co171 N174 2.121 . S
Co171 O179 2.055 . S
Co171 O182 2.039 . S
Co171 N185 2.140 . S
C172 O173 1.227 . S
C172 O182 1.265 . S
O173 C172 1.227 . S
N174 Co171 2.121 . S
N174 C176 1.375 . S
N174 C177 1.313 . S
C175 C176 1.338 . S
C175 N178 1.377 . S
C175 H195 0.930 . S
C176 N174 1.375 . S
C176 C175 1.338 . S
C176 H180 0.931 . S
C177 N174 1.313 . S
C177 N178 1.344 . S
C177 H181 0.930 . S
N178 C175 1.377 . S
N178 C177 1.344 . S
O179 Co171 2.055 . S
O179 C183 1.253 . S
H180 C176 0.931 . S
H181 C177 0.930 . S
O182 Co171 2.039 . S
O182 C172 1.265 . S
C183 O179 1.253 . S
C183 O184 1.227 . S
O184 C183 1.227 . S
N185 Co171 2.140 . S
N185 C188 1.346 . S
N185 C189 1.345 . S
C186 C187 1.387 . S
C186 C190 1.391 . S
C187 C186 1.387 . S
C187 C188 1.369 . S
C187 H196 0.929 . S
C188 N185 1.346 . S
C188 C187 1.369 . S
C188 H191 0.928 . S
C189 N185 1.345 . S
C189 C190 1.371 . S
C189 H192 0.931 . S
C190 C186 1.391 . S
C190 C189 1.371 . S
C190 H197 0.930 . S
H191 C188 0.928 . S
H192 C189 0.931 . S
H193 C169 0.930 . S
H194 C166 0.930 . S
H195 C175 0.930 . S
H196 C187 0.929 . S
H197 C190 0.930 . S
H198 C216 0.951 . S
H199 C218 0.951 . S
H200 C220 0.950 . S
H201 C221 0.950 . S
H202 C223 0.950 1_556 S
H203 C226 0.950 . S
H204 C227 0.950 . S
H205 C229 0.950 . S
H206 C230 0.950 . S
H207 C231 0.951 . S
H208 C233 0.951 . S
H209 C235 0.950 . S
H210 C236 0.950 . S
H211 C238 0.950 . S
H212 C241 0.950 . S
H213 C242 0.950 . S
H214 C244 0.950 . S
H215 C245 0.950 . S
C216 H198 0.951 . S
C216 C217 1.366 . S
C216 C218 1.388 . S
C217 C216 1.366 . S
C217 C221 1.385 . S
C218 H199 0.951 . S
C218 C216 1.388 . S
C218 C219 1.366 . S
C219 C218 1.366 . S
C219 C220 1.414 . S
C219 C222 1.499 . S
C220 H200 0.950 . S
C220 C219 1.414 . S
C220 C221 1.374 . S
C221 H201 0.950 . S
C221 C217 1.385 . S
C221 C220 1.374 . S
C222 C219 1.499 . S
C222 C223 1.373 . S
C222 C224 1.389 . S
C223 H202 0.950 1_554 S
C223 C222 1.373 . S
C223 C239 1.377 . S
C224 C222 1.389 . S
C224 C225 1.524 . S
C224 C238 1.377 . S
C225 C224 1.524 . S
C225 C226 1.397 . S
C225 C230 1.363 . S
C226 H203 0.950 . S
C226 C225 1.397 . S
C226 C227 1.334 . S
C227 H204 0.950 . S
C227 C226 1.334 . S
C227 C228 1.287 . S
C228 C227 1.287 . S
C228 C229 1.524 . S
C228 H247 0.913 . S
C229 H205 0.950 . S
C229 C228 1.524 . S
C229 C230 1.415 . S
C230 H206 0.950 . S
C230 C225 1.363 . S
C230 C229 1.415 . S
C231 H207 0.951 . S
C231 C232 1.366 . S
C231 C233 1.388 . S
C232 C231 1.366 . S
C232 C236 1.385 . S
C233 H208 0.951 . S
C233 C231 1.388 . S
C233 C234 1.366 . S
C234 C233 1.366 . S
C234 C235 1.414 . S
C234 C237 1.499 . S
C235 H209 0.950 . S
C235 C234 1.414 . S
C235 C236 1.374 . S
C236 H210 0.950 . S
C236 C232 1.385 . S
C236 C235 1.374 . S
C237 C234 1.499 . S
C237 C238 1.373 . S
C237 C239 1.389 . S
C238 H211 0.950 . S
C238 C224 1.377 . S
C238 C237 1.373 . S
C239 C223 1.377 . S
C239 C237 1.389 . S
C239 C240 1.524 1_554 S
C240 C239 1.524 1_556 S
C240 C241 1.397 . S
C240 C245 1.363 . S
C241 H212 0.950 . S
C241 C240 1.397 . S
C241 C242 1.334 . S
C242 H213 0.950 . S
C242 C241 1.334 . S
C242 C243 1.287 . S
C243 C242 1.287 . S
C243 C244 1.524 . S
C243 H246 0.999 . S
C244 H214 0.950 . S
C244 C243 1.524 . S
C244 C245 1.415 . S
C245 H215 0.950 . S
C245 C240 1.363 . S
C245 C244 1.415 . S
H246 C243 0.999 . S
H247 C228 0.913 . S
H248 C266 0.951 . S
H249 C268 0.951 . S
H250 C270 0.950 1_455 S
H251 C271 0.950 . S
H252 C273 0.950 . S
H253 C276 0.950 . S
H254 C277 0.950 . S
H255 C279 0.950 . S
H256 C280 0.950 . S
H257 C281 0.951 . S
H258 C283 0.951 . S
H259 C285 0.950 1_655 S
H260 C286 0.950 . S
H261 C288 0.950 . S
H262 C291 0.950 . S
H263 C292 0.950 . S
H264 C294 0.950 . S
H265 C295 0.950 . S
C266 H248 0.951 . S
C266 C267 1.366 . S
C266 C268 1.388 . S
C267 C266 1.366 . S
C267 C271 1.385 . S
C268 H249 0.951 . S
C268 C266 1.388 . S
C268 C269 1.366 . S
C269 C268 1.366 . S
C269 C270 1.414 . S
C269 C272 1.499 . S
C270 H250 0.950 1_655 S
C270 C269 1.414 . S
C270 C271 1.374 . S
C271 H251 0.950 . S
C271 C267 1.385 . S
C271 C270 1.374 . S
C272 C269 1.499 . S
C272 C273 1.373 1_655 S
C272 C274 1.389 . S
C273 H252 0.950 . S
C273 C272 1.373 1_455 S
C273 C289 1.377 . S
C274 C272 1.389 . S
C274 C275 1.524 . S
C274 C288 1.377 . S
C275 C274 1.524 . S
C275 C276 1.397 . S
C275 C280 1.363 . S
C276 H253 0.950 . S
C276 C275 1.397 . S
C276 C277 1.334 . S
C277 H254 0.950 . S
C277 C276 1.334 . S
C277 C278 1.287 . S
C278 C277 1.287 . S
C278 C279 1.524 . S
C278 H297 0.913 . S
C279 H255 0.950 . S
C279 C278 1.524 . S
C279 C280 1.415 . S
C280 H256 0.950 . S
C280 C275 1.363 . S
C280 C279 1.415 . S
C281 H257 0.951 . S
C281 C282 1.366 . S
C281 C283 1.388 . S
C282 C281 1.366 . S
C282 C286 1.385 . S
C283 H258 0.951 . S
C283 C281 1.388 . S
C283 C284 1.366 . S
C284 C283 1.366 . S
C284 C285 1.414 . S
C284 C287 1.499 . S
C285 H259 0.950 1_455 S
C285 C284 1.414 . S
C285 C286 1.374 . S
C286 H260 0.950 . S
C286 C282 1.385 . S
C286 C285 1.374 . S
C287 C284 1.499 . S
C287 C288 1.373 1_455 S
C287 C289 1.389 . S
C288 H261 0.950 . S
C288 C274 1.377 . S
C288 C287 1.373 1_655 S
C289 C273 1.377 . S
C289 C287 1.389 . S
C289 C290 1.524 . S
C290 C289 1.524 . S
C290 C291 1.397 . S
C290 C295 1.363 . S
C291 H262 0.950 . S
C291 C290 1.397 . S
C291 C292 1.334 . S
C292 H263 0.950 . S
C292 C291 1.334 . S
C292 C293 1.287 . S
C293 C292 1.287 . S
C293 C294 1.524 . S
C293 H296 0.999 . S
C294 H264 0.950 . S
C294 C293 1.524 . S
C294 C295 1.415 . S
C295 H265 0.950 . S
C295 C290 1.363 . S
C295 C294 1.415 . S
H296 C293 0.999 . S
H297 C278 0.913 . S
H298 C316 0.951 . S
H299 C318 0.951 . S
H300 C320 0.950 . S
H301 C321 0.950 . S
H302 C323 0.950 . S
H303 C326 0.950 . S
H304 C327 0.950 . S
H305 C329 0.950 . S
H306 C330 0.950 . S
H307 C331 0.951 . S
H308 C333 0.951 . S
H309 C335 0.950 . S
H310 C336 0.950 . S
H311 C338 0.950 . S
H312 C341 0.950 . S
H313 C342 0.950 . S
H314 C344 0.950 . S
H315 C345 0.950 . S
C316 H298 0.951 . S
C316 C317 1.366 . S
C316 C318 1.388 . S
C317 C316 1.366 . S
C317 C321 1.385 . S
C318 H299 0.951 . S
C318 C316 1.388 . S
C318 C319 1.366 . S
C319 C318 1.366 . S
C319 C320 1.414 . S
C319 C322 1.499 . S
C320 H300 0.950 . S
C320 C319 1.414 . S
C320 C321 1.374 . S
C321 H301 0.950 . S
C321 C317 1.385 . S
C321 C320 1.374 . S
C322 C319 1.499 . S
C322 C323 1.373 . S
C322 C324 1.389 1_545 S
C323 H302 0.950 . S
C323 C322 1.373 . S
C323 C339 1.377 . S
C324 C322 1.389 1_565 S
C324 C325 1.524 . S
C324 C338 1.377 . S
C325 C324 1.524 . S
C325 C326 1.397 . S
C325 C330 1.363 . S
C326 H303 0.950 . S
C326 C325 1.397 . S
C326 C327 1.334 . S
C327 H304 0.950 . S
C327 C326 1.334 . S
C327 C328 1.287 . S
C328 C327 1.287 . S
C328 C329 1.524 . S
C328 H347 0.913 . S
C329 H305 0.950 . S
C329 C328 1.524 . S
C329 C330 1.415 . S
C330 H306 0.950 . S
C330 C325 1.363 . S
C330 C329 1.415 . S
C331 H307 0.951 . S
C331 C332 1.366 . S
C331 C333 1.388 . S
C332 C331 1.366 . S
C332 C336 1.385 . S
C333 H308 0.951 . S
C333 C331 1.388 . S
C333 C334 1.366 . S
C334 C333 1.366 . S
C334 C335 1.414 . S
C334 C337 1.499 . S
C335 H309 0.950 . S
C335 C334 1.414 . S
C335 C336 1.374 . S
C336 H310 0.950 . S
C336 C332 1.385 . S
C336 C335 1.374 . S
C337 C334 1.499 . S
C337 C338 1.373 . S
C337 C339 1.389 1_565 S
C338 H311 0.950 . S
C338 C324 1.377 . S
C338 C337 1.373 . S
C339 C323 1.377 . S
C339 C337 1.389 1_545 S
C339 C340 1.524 . S
C340 C339 1.524 . S
C340 C341 1.397 . S
C340 C345 1.363 . S
C341 H312 0.950 . S
C341 C340 1.397 . S
C341 C342 1.334 . S
C342 H313 0.950 . S
C342 C341 1.334 . S
C342 C343 1.287 . S
C343 C342 1.287 . S
C343 C344 1.524 . S
C343 H346 0.999 . S
C344 H314 0.950 . S
C344 C343 1.524 . S
C344 C345 1.415 . S
C345 H315 0.950 . S
C345 C340 1.363 . S
C345 C344 1.415 . S
H346 C343 0.999 . S
H347 C328 0.913 . S
H348 C366 0.951 . S
H349 C368 0.951 . S
H350 C370 0.950 . S
H351 C371 0.950 . S
H352 C373 0.950 . S
H353 C376 0.950 . S
H354 C377 0.950 . S
H355 C379 0.950 . S
H356 C380 0.950 . S
H357 C381 0.951 . S
H358 C383 0.951 . S
H359 C385 0.950 . S
H360 C386 0.950 . S
H361 C388 0.950 . S
H362 C391 0.950 . S
H363 C392 0.950 . S
H364 C394 0.950 . S
H365 C395 0.950 . S
C366 H348 0.951 . S
C366 C367 1.366 . S
C366 C368 1.388 . S
C367 C366 1.366 . S
C367 C371 1.385 . S
C368 H349 0.951 . S
C368 C366 1.388 . S
C368 C369 1.366 . S
C369 C368 1.366 . S
C369 C370 1.414 . S
C369 C372 1.499 . S
C370 H350 0.950 . S
C370 C369 1.414 . S
C370 C371 1.374 . S
C371 H351 0.950 . S
C371 C367 1.385 . S
C371 C370 1.374 . S
C372 C369 1.499 . S
C372 C373 1.373 . S
C372 C374 1.389 . S
C373 H352 0.950 . S
C373 C372 1.373 . S
C373 C389 1.377 . S
C374 C372 1.389 . S
C374 C375 1.524 . S
C374 C388 1.377 . S
C375 C374 1.524 . S
C375 C376 1.397 . S
C375 C380 1.363 . S
C376 H353 0.950 . S
C376 C375 1.397 . S
C376 C377 1.334 . S
C377 H354 0.950 . S
C377 C376 1.334 . S
C377 C378 1.287 . S
C378 C377 1.287 . S
C378 C379 1.524 . S
C378 H397 0.913 . S
C379 H355 0.950 . S
C379 C378 1.524 . S
C379 C380 1.415 . S
C380 H356 0.950 . S
C380 C375 1.363 . S
C380 C379 1.415 . S
C381 H357 0.951 . S
C381 C382 1.366 . S
C381 C383 1.388 . S
C382 C381 1.366 . S
C382 C386 1.385 . S
C383 H358 0.951 . S
C383 C381 1.388 . S
C383 C384 1.366 . S
C384 C383 1.366 . S
C384 C385 1.414 . S
C384 C387 1.499 . S
C385 H359 0.950 . S
C385 C384 1.414 . S
C385 C386 1.374 . S
C386 H360 0.950 . S
C386 C382 1.385 . S
C386 C385 1.374 . S
C387 C384 1.499 . S
C387 C388 1.373 . S
C387 C389 1.389 . S
C388 H361 0.950 . S
C388 C374 1.377 . S
C388 C387 1.373 . S
C389 C373 1.377 . S
C389 C387 1.389 . S
C389 C390 1.524 . S
C390 C389 1.524 . S
C390 C391 1.397 . S
C390 C395 1.363 . S
C391 H362 0.950 . S
C391 C390 1.397 . S
C391 C392 1.334 . S
C392 H363 0.950 . S
C392 C391 1.334 . S
C392 C393 1.287 . S
C393 C392 1.287 . S
C393 C394 1.524 . S
C393 H396 0.999 . S
C394 H364 0.950 . S
C394 C393 1.524 . S
C394 C395 1.415 . S
C395 H365 0.950 . S
C395 C390 1.363 . S
C395 C394 1.415 . S
H396 C393 0.999 . S
H397 C378 0.913 . S
H398 C416 0.951 . S
H399 C418 0.951 . S
H400 C420 0.950 . S
H401 C421 0.950 . S
H402 C423 0.950 . S
H403 C426 0.950 . S
H404 C427 0.950 . S
H405 C429 0.950 . S
H406 C430 0.950 . S
H407 C431 0.951 . S
H408 C433 0.951 . S
H409 C435 0.950 . S
H410 C436 0.950 . S
H411 C438 0.950 1_554 S
H412 C441 0.950 . S
H413 C442 0.950 . S
H414 C444 0.950 . S
H415 C445 0.950 . S
C416 H398 0.951 . S
C416 C417 1.366 1_554 S
C416 C418 1.388 . S
C417 C416 1.366 1_556 S
C417 C421 1.385 . S
C418 H399 0.951 . S
C418 C416 1.388 . S
C418 C419 1.366 1_554 S
C419 C418 1.366 1_556 S
C419 C420 1.414 . S
C419 C422 1.499 . S
C420 H400 0.950 . S
C420 C419 1.414 . S
C420 C421 1.374 . S
C421 H401 0.950 . S
C421 C417 1.385 . S
C421 C420 1.374 . S
C422 C419 1.499 . S
C422 C423 1.373 . S
C422 C424 1.389 1_655 S
C423 H402 0.950 . S
C423 C422 1.373 . S
C423 C439 1.377 . S
C424 C422 1.389 1_455 S
C424 C425 1.524 . S
C424 C438 1.377 . S
C425 C424 1.524 . S
C425 C426 1.397 . S
C425 C430 1.363 1_556 S
C426 H403 0.950 . S
C426 C425 1.397 . S
C426 C427 1.334 . S
C427 H404 0.950 . S
C427 C426 1.334 . S
C427 C428 1.287 . S
C428 C427 1.287 . S
C428 C429 1.524 1_556 S
C428 H447 0.913 . S
C429 H405 0.950 . S
C429 C428 1.524 1_554 S
C429 C430 1.415 . S
C430 H406 0.950 . S
C430 C425 1.363 1_554 S
C430 C429 1.415 . S
C431 H407 0.951 . S
C431 C432 1.366 . S
C431 C433 1.388 . S
C432 C431 1.366 . S
C432 C436 1.385 1_556 S
C433 H408 0.951 . S
C433 C431 1.388 . S
C433 C434 1.366 . S
C434 C433 1.366 . S
C434 C435 1.414 1_556 S
C434 C437 1.499 . S
C435 H409 0.950 . S
C435 C434 1.414 1_554 S
C435 C436 1.374 . S
C436 H410 0.950 . S
C436 C432 1.385 1_554 S
C436 C435 1.374 . S
C437 C434 1.499 . S
C437 C438 1.373 . S
C437 C439 1.389 1_455 S
C438 H411 0.950 1_556 S
C438 C424 1.377 . S
C438 C437 1.373 . S
C439 C423 1.377 . S
C439 C437 1.389 1_655 S
C439 C440 1.524 . S
C440 C439 1.524 . S
C440 C441 1.397 1_556 S
C440 C445 1.363 . S
C441 H412 0.950 . S
C441 C440 1.397 1_554 S
C441 C442 1.334 . S
C442 H413 0.950 . S
C442 C441 1.334 . S
C442 C443 1.287 . S
C443 C442 1.287 . S
C443 C444 1.524 1_554 S
C443 H446 0.999 . S
C444 H414 0.950 . S
C444 C443 1.524 1_556 S
C444 C445 1.415 . S
C445 H415 0.950 . S
C445 C440 1.363 . S
C445 C444 1.415 . S
H446 C443 0.999 . S
H447 C428 0.913 . S
H448 C466 0.951 . S
H449 C468 0.951 . S
H450 C470 0.950 1_545 S
H451 C471 0.950 . S
H452 C473 0.950 . S
H453 C476 0.950 . S
H454 C477 0.950 . S
H455 C479 0.950 . S
H456 C480 0.950 . S
H457 C481 0.951 . S
H458 C483 0.951 . S
H459 C485 0.950 1_565 S
H460 C486 0.950 . S
H461 C488 0.950 . S
H462 C491 0.950 . S
H463 C492 0.950 . S
H464 C494 0.950 . S
H465 C495 0.950 . S
C466 H448 0.951 . S
C466 C467 1.366 . S
C466 C468 1.388 . S
C467 C466 1.366 . S
C467 C471 1.385 . S
C468 H449 0.951 . S
C468 C466 1.388 . S
C468 C469 1.366 . S
C469 C468 1.366 . S
C469 C470 1.414 . S
C469 C472 1.499 . S
C470 H450 0.950 1_565 S
C470 C469 1.414 . S
C470 C471 1.374 . S
C471 H451 0.950 . S
C471 C467 1.385 . S
C471 C470 1.374 . S
C472 C469 1.499 . S
C472 C473 1.373 1_565 S
C472 C474 1.389 . S
C473 H452 0.950 . S
C473 C472 1.373 1_545 S
C473 C489 1.377 . S
C474 C472 1.389 . S
C474 C475 1.524 . S
C474 C488 1.377 . S
C475 C474 1.524 . S
C475 C476 1.397 . S
C475 C480 1.363 . S
C476 H453 0.950 . S
C476 C475 1.397 . S
C476 C477 1.334 . S
C477 H454 0.950 . S
C477 C476 1.334 . S
C477 C478 1.287 . S
C478 C477 1.287 . S
C478 C479 1.524 . S
C478 H497 0.913 . S
C479 H455 0.950 . S
C479 C478 1.524 . S
C479 C480 1.415 . S
C480 H456 0.950 . S
C480 C475 1.363 . S
C480 C479 1.415 . S
C481 H457 0.951 . S
C481 C482 1.366 . S
C481 C483 1.388 . S
C482 C481 1.366 . S
C482 C486 1.385 . S
C483 H458 0.951 . S
C483 C481 1.388 . S
C483 C484 1.366 . S
C484 C483 1.366 . S
C484 C485 1.414 . S
C484 C487 1.499 . S
C485 H459 0.950 1_545 S
C485 C484 1.414 . S
C485 C486 1.374 . S
C486 H460 0.950 . S
C486 C482 1.385 . S
C486 C485 1.374 . S
C487 C484 1.499 . S
C487 C488 1.373 1_545 S
C487 C489 1.389 . S
C488 H461 0.950 . S
C488 C474 1.377 . S
C488 C487 1.373 1_565 S
C489 C473 1.377 . S
C489 C487 1.389 . S
C489 C490 1.524 . S
C490 C489 1.524 . S
C490 C491 1.397 . S
C490 C495 1.363 . S
C491 H462 0.950 . S
C491 C490 1.397 . S
C491 C492 1.334 . S
C492 H463 0.950 . S
C492 C491 1.334 . S
C492 C493 1.287 . S
C493 C492 1.287 . S
C493 C494 1.524 . S
C493 H496 0.999 . S
C494 H464 0.950 . S
C494 C493 1.524 . S
C494 C495 1.415 . S
C495 H465 0.950 . S
C495 C490 1.363 . S
C495 C494 1.415 . S
H496 C493 0.999 . S
H497 C478 0.913 . S
H498 C516 0.951 . S
H499 C518 0.951 1_655 S
H500 C520 0.950 . S
H501 C521 0.950 . S
H502 C523 0.950 . S
H503 C526 0.950 . S
H504 C527 0.950 . S
H505 C529 0.950 . S
H506 C530 0.950 . S
H507 C531 0.951 . S
H508 C533 0.951 1_455 S
H509 C535 0.950 . S
H510 C536 0.950 . S
H511 C538 0.950 . S
H512 C541 0.950 . S
H513 C542 0.950 . S
H514 C544 0.950 . S
H515 C545 0.950 . S
C516 H498 0.951 . S
C516 C517 1.366 . S
C516 C518 1.388 . S
C517 C516 1.366 . S
C517 C521 1.385 . S
C518 H499 0.951 1_455 S
C518 C516 1.388 . S
C518 C519 1.366 . S
C519 C518 1.366 . S
C519 C520 1.414 . S
C519 C522 1.499 . S
C520 H500 0.950 . S
C520 C519 1.414 . S
C520 C521 1.374 . S
C521 H501 0.950 . S
C521 C517 1.385 . S
C521 C520 1.374 . S
C522 C519 1.499 . S
C522 C523 1.373 1_554 S
C522 C524 1.389 1_455 S
C523 H502 0.950 . S
C523 C522 1.373 1_556 S
C523 C539 1.377 1_545 S
C524 C522 1.389 1_655 S
C524 C525 1.524 . S
C524 C538 1.377 1_545 S
C525 C524 1.524 . S
C525 C526 1.397 1_655 S
C525 C530 1.363 . S
C526 H503 0.950 . S
C526 C525 1.397 1_455 S
C526 C527 1.334 . S
C527 H504 0.950 . S
C527 C526 1.334 . S
C527 C528 1.287 1_455 S
C528 C527 1.287 1_655 S
C528 C529 1.524 . S
C528 H547 0.913 . S
C529 H505 0.950 . S
C529 C528 1.524 . S
C529 C530 1.415 . S
C530 H506 0.950 . S
C530 C525 1.363 . S
C530 C529 1.415 . S
C531 H507 0.951 . S
C531 C532 1.366 . S
C531 C533 1.388 . S
C532 C531 1.366 . S
C532 C536 1.385 . S
C533 H508 0.951 1_655 S
C533 C531 1.388 . S
C533 C534 1.366 . S
C534 C533 1.366 . S
C534 C535 1.414 . S
C534 C537 1.499 . S
C535 H509 0.950 . S
C535 C534 1.414 . S
C535 C536 1.374 . S
C536 H510 0.950 . S
C536 C532 1.385 . S
C536 C535 1.374 . S
C537 C534 1.499 . S
C537 C538 1.373 . S
C537 C539 1.389 1_654 S
C538 H511 0.950 . S
C538 C524 1.377 1_565 S
C538 C537 1.373 . S
C539 C523 1.377 1_565 S
C539 C537 1.389 1_456 S
C539 C540 1.524 . S
C540 C539 1.524 . S
C540 C541 1.397 1_455 S
C540 C545 1.363 . S
C541 H512 0.950 . S
C541 C540 1.397 1_655 S
C541 C542 1.334 . S
C542 H513 0.950 . S
C542 C541 1.334 . S
C542 C543 1.287 1_655 S
C543 C542 1.287 1_455 S
C543 C544 1.524 . S
C543 H546 0.999 . S
C544 H514 0.950 . S
C544 C543 1.524 . S
C544 C545 1.415 . S
C545 H515 0.950 . S
C545 C540 1.363 . S
C545 C544 1.415 . S
H546 C543 0.999 . S
H547 C528 0.913 . S
H548 C566 0.951 . S
H549 C568 0.951 . S
H550 C570 0.950 . S
H551 C571 0.950 . S
H552 C573 0.950 . S
H553 C576 0.950 . S
H554 C577 0.950 . S
H555 C579 0.950 . S
H556 C580 0.950 . S
H557 C581 0.951 . S
H558 C583 0.951 . S
H559 C585 0.950 . S
H560 C586 0.950 . S
H561 C588 0.950 . S
H562 C591 0.950 . S
H563 C592 0.950 . S
H564 C594 0.950 . S
H565 C595 0.950 . S
C566 H548 0.951 . S
C566 C567 1.366 . S
C566 C568 1.388 . S
C567 C566 1.366 . S
C567 C571 1.385 . S
C568 H549 0.951 . S
C568 C566 1.388 . S
C568 C569 1.366 . S
C569 C568 1.366 . S
C569 C570 1.414 . S
C569 C572 1.499 . S
C570 H550 0.950 . S
C570 C569 1.414 . S
C570 C571 1.374 . S
C571 H551 0.950 . S
C571 C567 1.385 . S
C571 C570 1.374 . S
C572 C569 1.499 . S
C572 C573 1.373 1_565 S
C572 C574 1.389 1_455 S
C573 H552 0.950 . S
C573 C572 1.373 1_545 S
C573 C589 1.377 . S
C574 C572 1.389 1_655 S
C574 C575 1.524 . S
C574 C588 1.377 . S
C575 C574 1.524 . S
C575 C576 1.397 . S
C575 C580 1.363 . S
C576 H553 0.950 . S
C576 C575 1.397 . S
C576 C577 1.334 . S
C577 H554 0.950 . S
C577 C576 1.334 . S
C577 C578 1.287 . S
C578 C577 1.287 . S
C578 C579 1.524 . S
C578 H597 0.913 . S
C579 H555 0.950 . S
C579 C578 1.524 . S
C579 C580 1.415 . S
C580 H556 0.950 . S
C580 C575 1.363 . S
C580 C579 1.415 . S
C581 H557 0.951 . S
C581 C582 1.366 . S
C581 C583 1.388 . S
C582 C581 1.366 . S
C582 C586 1.385 . S
C583 H558 0.951 . S
C583 C581 1.388 . S
C583 C584 1.366 . S
C584 C583 1.366 . S
C584 C585 1.414 . S
C584 C587 1.499 . S
C585 H559 0.950 . S
C585 C584 1.414 . S
C585 C586 1.374 . S
C586 H560 0.950 . S
C586 C582 1.385 . S
C586 C585 1.374 . S
C587 C584 1.499 . S
C587 C588 1.373 1_545 S
C587 C589 1.389 1_655 S
C588 H561 0.950 . S
C588 C574 1.377 . S
C588 C587 1.373 1_565 S
C589 C573 1.377 . S
C589 C587 1.389 1_455 S
C589 C590 1.524 . S
C590 C589 1.524 . S
C590 C591 1.397 . S
C590 C595 1.363 . S
C591 H562 0.950 . S
C591 C590 1.397 . S
C591 C592 1.334 . S
C592 H563 0.950 . S
C592 C591 1.334 . S
C592 C593 1.287 . S
C593 C592 1.287 . S
C593 C594 1.524 . S
C593 H596 0.999 . S
C594 H564 0.950 . S
C594 C593 1.524 . S
C594 C595 1.415 . S
C595 H565 0.950 . S
C595 C590 1.363 . S
C595 C594 1.415 . S
H596 C593 0.999 . S
H597 C578 0.913 . S
H598 C616 0.951 . S
H599 C618 0.951 . S
H600 C620 0.950 1_565 S
H601 C621 0.950 . S
H602 C623 0.950 . S
H603 C626 0.950 . S
H604 C627 0.950 . S
H605 C629 0.950 . S
H606 C630 0.950 . S
H607 C631 0.951 . S
H608 C633 0.951 . S
H609 C635 0.950 1_545 S
H610 C636 0.950 . S
H611 C638 0.950 . S
H612 C641 0.950 . S
H613 C642 0.950 . S
H614 C644 0.950 . S
H615 C645 0.950 . S
C616 H598 0.951 . S
C616 C617 1.366 . S
C616 C618 1.388 . S
C617 C616 1.366 . S
C617 C621 1.385 . S
C618 H599 0.951 . S
C618 C616 1.388 . S
C618 C619 1.366 . S
C619 C618 1.366 . S
C619 C620 1.414 . S
C619 C622 1.499 . S
C620 H600 0.950 1_545 S
C620 C619 1.414 . S
C620 C621 1.374 . S
C621 H601 0.950 . S
C621 C617 1.385 . S
C621 C620 1.374 . S
C622 C619 1.499 . S
C622 C623 1.373 1_545 S
C622 C624 1.389 . S
C623 H602 0.950 . S
C623 C622 1.373 1_565 S
C623 C639 1.377 1_455 S
C624 C622 1.389 . S
C624 C625 1.524 . S
C624 C638 1.377 1_455 S
C625 C624 1.524 . S
C625 C626 1.397 . S
C625 C630 1.363 . S
C626 H603 0.950 . S
C626 C625 1.397 . S
C626 C627 1.334 . S
C627 H604 0.950 . S
C627 C626 1.334 . S
C627 C628 1.287 . S
C628 C627 1.287 . S
C628 C629 1.524 . S
C628 H647 0.913 . S
C629 H605 0.950 . S
C629 C628 1.524 . S
C629 C630 1.415 . S
C630 H606 0.950 . S
C630 C625 1.363 . S
C630 C629 1.415 . S
C631 H607 0.951 . S
C631 C632 1.366 . S
C631 C633 1.388 . S
C632 C631 1.366 . S
C632 C636 1.385 . S
C633 H608 0.951 . S
C633 C631 1.388 . S
C633 C634 1.366 . S
C634 C633 1.366 . S
C634 C635 1.414 . S
C634 C637 1.499 . S
C635 H609 0.950 1_565 S
C635 C634 1.414 . S
C635 C636 1.374 . S
C636 H610 0.950 . S
C636 C632 1.385 . S
C636 C635 1.374 . S
C637 C634 1.499 . S
C637 C638 1.373 1_565 S
C637 C639 1.389 . S
C638 H611 0.950 . S
C638 C624 1.377 1_655 S
C638 C637 1.373 1_545 S
C639 C623 1.377 1_655 S
C639 C637 1.389 . S
C639 C640 1.524 . S
C640 C639 1.524 . S
C640 C641 1.397 . S
C640 C645 1.363 . S
C641 H612 0.950 . S
C641 C640 1.397 . S
C641 C642 1.334 . S
C642 H613 0.950 . S
C642 C641 1.334 . S
C642 C643 1.287 . S
C643 C642 1.287 . S
C643 C644 1.524 . S
C643 H646 0.999 . S
C644 H614 0.950 . S
C644 C643 1.524 . S
C644 C645 1.415 . S
C645 H615 0.950 . S
C645 C640 1.363 . S
C645 C644 1.415 . S
H646 C643 0.999 . S
H647 C628 0.913 . S
H648 C666 0.951 . S
H649 C668 0.951 . S
H650 C670 0.950 . S
H651 C671 0.950 . S
H652 C673 0.950 . S
H653 C676 0.950 . S
H654 C677 0.950 . S
H655 C679 0.950 . S
H656 C680 0.950 . S
H657 C681 0.951 . S
H658 C683 0.951 . S
H659 C685 0.950 . S
H660 C686 0.950 . S
H661 C688 0.950 . S
H662 C691 0.950 . S
H663 C692 0.950 . S
H664 C694 0.950 . S
H665 C695 0.950 . S
C666 H648 0.951 . S
C666 C667 1.366 . S
C666 C668 1.388 . S
C667 C666 1.366 . S
C667 C671 1.385 . S
C668 H649 0.951 . S
C668 C666 1.388 . S
C668 C669 1.366 . S
C669 C668 1.366 . S
C669 C670 1.414 . S
C669 C672 1.499 . S
C670 H650 0.950 . S
C670 C669 1.414 . S
C670 C671 1.374 . S
C671 H651 0.950 . S
C671 C667 1.385 . S
C671 C670 1.374 . S
C672 C669 1.499 . S
C672 C673 1.373 . S
C672 C674 1.389 . S
C673 H652 0.950 . S
C673 C672 1.373 . S
C673 C689 1.377 . S
C674 C672 1.389 . S
C674 C675 1.524 . S
C674 C688 1.377 . S
C675 C674 1.524 . S
C675 C676 1.397 . S
C675 C680 1.363 . S
C676 H653 0.950 . S
C676 C675 1.397 . S
C676 C677 1.334 . S
C677 H654 0.950 . S
C677 C676 1.334 . S
C677 C678 1.287 . S
C678 C677 1.287 . S
C678 C679 1.524 . S
C678 H697 0.913 . S
C679 H655 0.950 . S
C679 C678 1.524 . S
C679 C680 1.415 . S
C680 H656 0.950 . S
C680 C675 1.363 . S
C680 C679 1.415 . S
C681 H657 0.951 . S
C681 C682 1.366 . S
C681 C683 1.388 . S
C682 C681 1.366 . S
C682 C686 1.385 . S
C683 H658 0.951 . S
C683 C681 1.388 . S
C683 C684 1.366 . S
C684 C683 1.366 . S
C684 C685 1.414 . S
C684 C687 1.499 . S
C685 H659 0.950 . S
C685 C684 1.414 . S
C685 C686 1.374 . S
C686 H660 0.950 . S
C686 C682 1.385 . S
C686 C685 1.374 . S
C687 C684 1.499 . S
C687 C688 1.373 . S
C687 C689 1.389 . S
C688 H661 0.950 . S
C688 C674 1.377 . S
C688 C687 1.373 . S
C689 C673 1.377 . S
C689 C687 1.389 . S
C689 C690 1.524 . S
C690 C689 1.524 . S
C690 C691 1.397 . S
C690 C695 1.363 . S
C691 H662 0.950 . S
C691 C690 1.397 . S
C691 C692 1.334 . S
C692 H663 0.950 . S
C692 C691 1.334 . S
C692 C693 1.287 . S
C693 C692 1.287 . S
C693 C694 1.524 . S
C693 H696 0.999 . S
C694 H664 0.950 . S
C694 C693 1.524 . S
C694 C695 1.415 . S
C695 H665 0.950 . S
C695 C690 1.363 . S
C695 C694 1.415 . S
H696 C693 0.999 . S
H697 C678 0.913 . S
H698 C716 0.951 . S
H699 C718 0.951 . S
H700 C720 0.950 . S
H701 C721 0.950 . S
H702 C723 0.950 . S
H703 C726 0.950 . S
H704 C727 0.950 . S
H705 C729 0.950 . S
H706 C730 0.950 . S
H707 C731 0.951 . S
H708 C733 0.951 1_455 S
H709 C735 0.950 . S
H710 C736 0.950 . S
H711 C738 0.950 . S
H712 C741 0.950 . S
H713 C742 0.950 . S
H714 C744 0.950 . S
H715 C745 0.950 . S
C716 H698 0.951 . S
C716 C717 1.366 . S
C716 C718 1.388 . S
C717 C716 1.366 . S
C717 C721 1.385 . S
C718 H699 0.951 . S
C718 C716 1.388 . S
C718 C719 1.366 . S
C719 C718 1.366 . S
C719 C720 1.414 . S
C719 C722 1.499 . S
C720 H700 0.950 . S
C720 C719 1.414 . S
C720 C721 1.374 . S
C721 H701 0.950 . S
C721 C717 1.385 . S
C721 C720 1.374 . S
C722 C719 1.499 . S
C722 C723 1.373 . S
C722 C724 1.389 . S
C723 H702 0.950 . S
C723 C722 1.373 . S
C723 C739 1.377 . S
C724 C722 1.389 . S
C724 C725 1.524 . S
C724 C738 1.377 1_455 S
C725 C724 1.524 . S
C725 C726 1.397 . S
C725 C730 1.363 1_455 S
C726 H703 0.950 . S
C726 C725 1.397 . S
C726 C727 1.334 . S
C727 H704 0.950 . S
C727 C726 1.334 . S
C727 C728 1.287 . S
C728 C727 1.287 . S
C728 C729 1.524 1_455 S
C728 H747 0.913 . S
C729 H705 0.950 . S
C729 C728 1.524 1_655 S
C729 C730 1.415 . S
C730 H706 0.950 . S
C730 C725 1.363 1_655 S
C730 C729 1.415 . S
C731 H707 0.951 . S
C731 C732 1.366 . S
C731 C733 1.388 . S
C732 C731 1.366 . S
C732 C736 1.385 . S
C733 H708 0.951 1_655 S
C733 C731 1.388 . S
C733 C734 1.366 . S
C734 C733 1.366 . S
C734 C735 1.414 . S
C734 C737 1.499 . S
C735 H709 0.950 . S
C735 C734 1.414 . S
C735 C736 1.374 . S
C736 H710 0.950 . S
C736 C732 1.385 . S
C736 C735 1.374 . S
C737 C734 1.499 . S
C737 C738 1.373 . S
C737 C739 1.389 1_655 S
C738 H711 0.950 . S
C738 C724 1.377 1_655 S
C738 C737 1.373 . S
C739 C723 1.377 . S
C739 C737 1.389 1_455 S
C739 C740 1.524 . S
C740 C739 1.524 . S
C740 C741 1.397 1_455 S
C740 C745 1.363 . S
C741 H712 0.950 . S
C741 C740 1.397 1_655 S
C741 C742 1.334 . S
C742 H713 0.950 . S
C742 C741 1.334 . S
C742 C743 1.287 . S
C743 C742 1.287 . S
C743 C744 1.524 1_655 S
C743 H746 0.999 . S
C744 H714 0.950 . S
C744 C743 1.524 1_455 S
C744 C745 1.415 . S
C745 H715 0.950 . S
C745 C740 1.363 . S
C745 C744 1.415 . S
H746 C743 0.999 . S
H747 C728 0.913 . S
H748 C766 0.951 . S
H749 C768 0.951 . S
H750 C770 0.950 . S
H751 C771 0.950 . S
H752 C773 0.950 . S
H753 C776 0.950 . S
H754 C777 0.950 . S
H755 C779 0.950 1_565 S
H756 C780 0.950 1_565 S
H757 C781 0.951 . S
H758 C783 0.951 1_545 S
H759 C785 0.950 . S
H760 C786 0.950 . S
H761 C788 0.950 1_565 S
H762 C791 0.950 . S
H763 C792 0.950 . S
H764 C794 0.950 . S
H765 C795 0.950 . S
C766 H748 0.951 . S
C766 C767 1.366 . S
C766 C768 1.388 . S
C767 C766 1.366 . S
C767 C771 1.385 . S
C768 H749 0.951 . S
C768 C766 1.388 . S
C768 C769 1.366 . S
C769 C768 1.366 . S
C769 C770 1.414 . S
C769 C772 1.499 . S
C770 H750 0.950 . S
C770 C769 1.414 . S
C770 C771 1.374 . S
C771 H751 0.950 . S
C771 C767 1.385 . S
C771 C770 1.374 . S
C772 C769 1.499 . S
C772 C773 1.373 . S
C772 C774 1.389 . S
C773 H752 0.950 . S
C773 C772 1.373 . S
C773 C789 1.377 . S
C774 C772 1.389 . S
C774 C775 1.524 . S
C774 C788 1.377 . S
C775 C774 1.524 . S
C775 C776 1.397 . S
C775 C780 1.363 . S
C776 H753 0.950 . S
C776 C775 1.397 . S
C776 C777 1.334 . S
C777 H754 0.950 . S
C777 C776 1.334 . S
C777 C778 1.287 . S
C778 C777 1.287 . S
C778 C779 1.524 . S
C778 H797 0.913 . S
C779 H755 0.950 1_545 S
C779 C778 1.524 . S
C779 C780 1.415 . S
C780 H756 0.950 1_545 S
C780 C775 1.363 . S
C780 C779 1.415 . S
C781 H757 0.951 . S
C781 C782 1.366 . S
C781 C783 1.388 . S
C782 C781 1.366 . S
C782 C786 1.385 . S
C783 H758 0.951 1_565 S
C783 C781 1.388 . S
C783 C784 1.366 . S
C784 C783 1.366 . S
C784 C785 1.414 . S
C784 C787 1.499 . S
C785 H759 0.950 . S
C785 C784 1.414 . S
C785 C786 1.374 . S
C786 H760 0.950 . S
C786 C782 1.385 . S
C786 C785 1.374 . S
C787 C784 1.499 . S
C787 C788 1.373 1_565 S
C787 C789 1.389 1_565 S
C788 H761 0.950 1_545 S
C788 C774 1.377 . S
C788 C787 1.373 1_545 S
C789 C773 1.377 . S
C789 C787 1.389 1_545 S
C789 C790 1.524 1_545 S
C790 C789 1.524 1_565 S
C790 C791 1.397 . S
C790 C795 1.363 1_565 S
C791 H762 0.950 . S
C791 C790 1.397 . S
C791 C792 1.334 . S
C792 H763 0.950 . S
C792 C791 1.334 . S
C792 C793 1.287 . S
C793 C792 1.287 . S
C793 C794 1.524 1_565 S
C793 H796 0.999 . S
C794 H764 0.950 . S
C794 C793 1.524 1_545 S
C794 C795 1.415 . S
C795 H765 0.950 . S
C795 C790 1.363 1_545 S
C795 C794 1.415 . S
H796 C793 0.999 . S
H797 C778 0.913 . S
H798 C816 0.951 . S
H799 C818 0.951 . S
H800 C820 0.950 . S
H801 C821 0.950 . S
H802 C823 0.950 . S
H803 C826 0.950 . S
H804 C827 0.950 . S
H805 C829 0.950 . S
H806 C830 0.950 . S
H807 C831 0.951 . S
H808 C833 0.951 . S
H809 C835 0.950 . S
H810 C836 0.950 . S
H811 C838 0.950 . S
H812 C841 0.950 . S
H813 C842 0.950 . S
H814 C844 0.950 . S
H815 C845 0.950 . S
C816 H798 0.951 . S
C816 C817 1.366 . S
C816 C818 1.388 . S
C817 C816 1.366 . S
C817 C821 1.385 . S
C818 H799 0.951 . S
C818 C816 1.388 . S
C818 C819 1.366 . S
C819 C818 1.366 . S
C819 C820 1.414 . S
C819 C822 1.499 . S
C820 H800 0.950 . S
C820 C819 1.414 . S
C820 C821 1.374 . S
C821 H801 0.950 . S
C821 C817 1.385 . S
C821 C820 1.374 . S
C822 C819 1.499 . S
C822 C823 1.373 . S
C822 C824 1.389 . S
C823 H802 0.950 . S
C823 C822 1.373 . S
C823 C839 1.377 . S
C824 C822 1.389 . S
C824 C825 1.524 . S
C824 C838 1.377 . S
C825 C824 1.524 . S
C825 C826 1.397 . S
C825 C830 1.363 . S
C826 H803 0.950 . S
C826 C825 1.397 . S
C826 C827 1.334 . S
C827 H804 0.950 . S
C827 C826 1.334 . S
C827 C828 1.287 . S
C828 C827 1.287 . S
C828 C829 1.524 . S
C828 H847 0.913 . S
C829 H805 0.950 . S
C829 C828 1.524 . S
C829 C830 1.415 . S
C830 H806 0.950 . S
C830 C825 1.363 . S
C830 C829 1.415 . S
C831 H807 0.951 . S
C831 C832 1.366 . S
C831 C833 1.388 . S
C832 C831 1.366 . S
C832 C836 1.385 . S
C833 H808 0.951 . S
C833 C831 1.388 . S
C833 C834 1.366 . S
C834 C833 1.366 . S
C834 C835 1.414 . S
C834 C837 1.499 . S
C835 H809 0.950 . S
C835 C834 1.414 . S
C835 C836 1.374 . S
C836 H810 0.950 . S
C836 C832 1.385 . S
C836 C835 1.374 . S
C837 C834 1.499 . S
C837 C838 1.373 . S
C837 C839 1.389 . S
C838 H811 0.950 . S
C838 C824 1.377 . S
C838 C837 1.373 . S
C839 C823 1.377 . S
C839 C837 1.389 . S
C839 C840 1.524 . S
C840 C839 1.524 . S
C840 C841 1.397 . S
C840 C845 1.363 . S
C841 H812 0.950 . S
C841 C840 1.397 . S
C841 C842 1.334 . S
C842 H813 0.950 . S
C842 C841 1.334 . S
C842 C843 1.287 . S
C843 C842 1.287 . S
C843 C844 1.524 . S
C843 H846 0.999 . S
C844 H814 0.950 . S
C844 C843 1.524 . S
C844 C845 1.415 . S
C845 H815 0.950 . S
C845 C840 1.363 . S
C845 C844 1.415 . S
H846 C843 0.999 . S
H847 C828 0.913 . S
H848 C866 0.951 . S
H849 C868 0.951 . S
H850 C870 0.950 . S
H851 C871 0.950 . S
H852 C873 0.950 1_455 S
H853 C876 0.950 . S
H854 C877 0.950 . S
H855 C879 0.950 . S
H856 C880 0.950 . S
H857 C881 0.951 . S
H858 C883 0.951 . S
H859 C885 0.950 1_655 S
H860 C886 0.950 . S
H861 C888 0.950 . S
H862 C891 0.950 . S
H863 C892 0.950 . S
H864 C894 0.950 . S
H865 C895 0.950 . S
C866 H848 0.951 . S
C866 C867 1.366 . S
C866 C868 1.388 . S
C867 C866 1.366 . S
C867 C871 1.385 . S
C868 H849 0.951 . S
C868 C866 1.388 . S
C868 C869 1.366 . S
C869 C868 1.366 . S
C869 C870 1.414 . S
C869 C872 1.499 . S
C870 H850 0.950 . S
C870 C869 1.414 . S
C870 C871 1.374 . S
C871 H851 0.950 . S
C871 C867 1.385 . S
C871 C870 1.374 . S
C872 C869 1.499 . S
C872 C873 1.373 . S
C872 C874 1.389 . S
C873 H852 0.950 1_655 S
C873 C872 1.373 . S
C873 C889 1.377 1_655 S
C874 C872 1.389 . S
C874 C875 1.524 . S
C874 C888 1.377 . S
C875 C874 1.524 . S
C875 C876 1.397 . S
C875 C880 1.363 . S
C876 H853 0.950 . S
C876 C875 1.397 . S
C876 C877 1.334 . S
C877 H854 0.950 . S
C877 C876 1.334 . S
C877 C878 1.287 . S
C878 C877 1.287 . S
C878 C879 1.524 . S
C878 H897 0.913 . S
C879 H855 0.950 . S
C879 C878 1.524 . S
C879 C880 1.415 . S
C880 H856 0.950 . S
C880 C875 1.363 . S
C880 C879 1.415 . S
C881 H857 0.951 . S
C881 C882 1.366 . S
C881 C883 1.388 . S
C882 C881 1.366 . S
C882 C886 1.385 . S
C883 H858 0.951 . S
C883 C881 1.388 . S
C883 C884 1.366 . S
C884 C883 1.366 . S
C884 C885 1.414 . S
C884 C887 1.499 . S
C885 H859 0.950 1_455 S
C885 C884 1.414 . S
C885 C886 1.374 . S
C886 H860 0.950 . S
C886 C882 1.385 . S
C886 C885 1.374 . S
C887 C884 1.499 . S
C887 C888 1.373 1_455 S
C887 C889 1.389 . S
C888 H861 0.950 . S
C888 C874 1.377 . S
C888 C887 1.373 1_655 S
C889 C873 1.377 1_455 S
C889 C887 1.389 . S
C889 C890 1.524 . S
C890 C889 1.524 . S
C890 C891 1.397 . S
C890 C895 1.363 . S
C891 H862 0.950 . S
C891 C890 1.397 . S
C891 C892 1.334 . S
C892 H863 0.950 . S
C892 C891 1.334 . S
C892 C893 1.287 . S
C893 C892 1.287 . S
C893 C894 1.524 . S
C893 H896 0.999 . S
C894 H864 0.950 . S
C894 C893 1.524 . S
C894 C895 1.415 . S
C895 H865 0.950 . S
C895 C890 1.363 . S
C895 C894 1.415 . S
H896 C893 0.999 . S
H897 C878 0.913 . S
H898 C916 0.951 . S
H899 C918 0.951 . S
H900 C920 0.950 1_565 S
H901 C921 0.950 . S
H902 C923 0.953 1_545 S
H903 C926 0.950 . S
H904 C927 0.950 . S
H905 C929 0.950 . S
H906 C930 0.950 . S
H907 C931 0.951 . S
H908 C933 0.951 . S
H909 C935 0.950 . S
H910 C936 0.950 . S
H911 C938 0.950 . S
H912 C941 0.950 1_545 S
H913 C942 0.950 . S
H914 C944 0.950 . S
H915 C945 0.950 . S
C916 H898 0.951 . S
C916 C917 1.366 . S
C916 C918 1.388 . S
C917 C916 1.366 . S
C917 C921 1.385 . S
C918 H899 0.951 . S
C918 C916 1.388 . S
C918 C919 1.366 . S
C919 C918 1.366 . S
C919 C920 1.414 . S
C919 C922 1.499 . S
C920 H900 0.950 1_545 S
C920 C919 1.414 . S
C920 C921 1.374 . S
C921 H901 0.950 . S
C921 C917 1.385 . S
C921 C920 1.374 . S
C922 C919 1.499 . S
C922 C923 1.373 1_545 S
C922 C924 1.389 1_545 S
C923 H902 0.953 1_565 S
C923 C922 1.373 1_565 S
C923 C939 1.377 . S
C924 C922 1.389 1_565 S
C924 C925 1.524 . S
C924 C938 1.377 . S
C925 C924 1.524 . S
C925 C926 1.397 . S
C925 C930 1.363 1_565 S
C926 H903 0.950 . S
C926 C925 1.397 . S
C926 C927 1.334 . S
C927 H904 0.950 . S
C927 C926 1.334 . S
C927 C928 1.287 . S
C928 C927 1.287 . S
C928 C929 1.524 1_565 S
C928 H947 0.912 1_565 S
C929 H905 0.950 . S
C929 C928 1.524 1_545 S
C929 C930 1.415 . S
C930 H906 0.950 . S
C930 C925 1.363 1_545 S
C930 C929 1.415 . S
C931 H907 0.951 . S
C931 C932 1.366 . S
C931 C933 1.388 . S
C932 C931 1.366 . S
C932 C936 1.385 . S
C933 H908 0.951 . S
C933 C931 1.388 . S
C933 C934 1.366 . S
C934 C933 1.366 . S
C934 C935 1.414 . S
C934 C937 1.499 . S
C935 H909 0.950 . S
C935 C934 1.414 . S
C935 C936 1.374 . S
C936 H910 0.950 . S
C936 C932 1.385 . S
C936 C935 1.374 . S
C937 C934 1.499 . S
C937 C938 1.373 . S
C937 C939 1.389 . S
C938 H911 0.950 . S
C938 C924 1.377 . S
C938 C937 1.373 . S
C939 C923 1.377 . S
C939 C937 1.389 . S
C939 C940 1.524 . S
C940 C939 1.524 . S
C940 C941 1.397 . S
C940 C945 1.363 . S
C941 H912 0.950 1_565 S
C941 C940 1.397 . S
C941 C942 1.334 . S
C942 H913 0.950 . S
C942 C941 1.334 . S
C942 C943 1.287 . S
C943 C942 1.287 . S
C943 C944 1.524 . S
C943 H946 0.999 . S
C944 H914 0.950 . S
C944 C943 1.524 . S
C944 C945 1.415 . S
C945 H915 0.950 . S
C945 C940 1.363 . S
C945 C944 1.415 . S
H946 C943 0.999 . S
H947 C928 0.912 1_545 S
C217 C18 1.609 . S
C232 C117 1.610 . S
C267 C51 1.610 . S
C282 C150 1.610 . S
C317 C183 1.610 . S
C332 C84 1.610 . S
C367 C87 0.821 . S
C382 C186 0.821 . S
C417 C120 0.826 . S
C432 C21 0.826 . S
C467 C153 0.822 . S
C482 C54 0.821 . S
C517 C7 0.463 . S
C532 C106 0.462 . S
C567 C139 0.462 . S
C582 C40 0.462 . S
C617 C172 0.462 . S
C632 C73 0.462 . S
C667 N13 1.665 . S
C682 N167 1.766 . S
C717 N2 1.766 . S
C732 N46 1.667 . S
C767 N35 1.766 . S
C782 N79 1.667 . S
C817 N68 1.766 . S
C832 N112 1.665 . S
C867 N101 1.766 . S
C882 N145 1.665 . S
C917 N178 1.667 . S
C932 N134 1.766 . S
