# Generated by pormake.
# Topology hcp, (12)-cn, num edge types: 1
# Building blocks:
#     Node 0, Type 0, BuildingBlock: BOTCEU_clean_sbu_0, # of connection points: 12
#     Node 1, Type 0, BuildingBlock: BOTCEU_clean_sbu_0, # of connection points: 12
#     Edge 2, Type (0, 0), BuildingBlock: EZIPEK_clean_linker_0, # of connection points: 2
#     Edge 3, Type (0, 0), BuildingBlock: EZIPEK_clean_linker_0, # of connection points: 2
#     Edge 4, Type (0, 0), BuildingBlock: EZIPEK_clean_linker_0, # of connection points: 2
#     Edge 5, Type (0, 0), BuildingBlock: EZIPEK_clean_linker_0, # of connection points: 2
#     Edge 6, Type (0, 0), BuildingBlock: EZIPEK_clean_linker_0, # of connection points: 2
#     Edge 7, Type (0, 0), BuildingBlock: EZIPEK_clean_linker_0, # of connection points: 2
#     Edge 8, Type (0, 0), BuildingBlock: EZIPEK_clean_linker_0, # of connection points: 2
#     Edge 9, Type (0, 0), BuildingBlock: EZIPEK_clean_linker_0, # of connection points: 2
#     Edge 10, Type (0, 0), BuildingBlock: EZIPEK_clean_linker_0, # of connection points: 2
#     Edge 11, Type (0, 0), BuildingBlock: EZIPEK_clean_linker_0, # of connection points: 2
#     Edge 12, Type (0, 0), BuildingBlock: EZIPEK_clean_linker_0, # of connection points: 2
#     Edge 13, Type (0, 0), BuildingBlock: EZIPEK_clean_linker_0, # of connection points: 2
# Relax obj value: 0.170
# Max RMSD: 0.247
# Mean RMSD: 0.247
data_MOF--net-hcp--node1-BOTCEU_clean_sbu_0--edge1-EZIPEK_clean_linker_0
_symmetry_space_group_name_H-M    P1
_symmetry_Int_Tables_number       1
_symmetry_cell_setting            triclinic
loop_
_symmetry_equiv_pos_as_xyz
'x, y, z'
_cell_length_a     22.846038
_cell_length_b     17.786644
_cell_length_c     35.995706
_cell_angle_alpha  100.0729
_cell_angle_beta   87.410842
_cell_angle_gamma 123.45613
loop_
_atom_site_label
_atom_site_type_symbol
_atom_site_fract_x
_atom_site_fract_y
_atom_site_fract_z
_atom_type_partial_charge
C0 C 0.24694 0.03399 0.30579 0.0
C1 C 0.22721 0.94974 0.31335 0.0
C2 C 0.2724 0.96908 0.34351 0.0
N3 N 0.30007 0.09918 0.33044 0.0
N4 N 0.31512 0.06088 0.35354 0.0
C5 C 0.21715 0.05195 0.27508 0.0
H6 H 0.25984 0.11188 0.26357 0.0
H7 H 0.17887 0.06761 0.28739 0.0
H8 H 0.1895 0.99135 0.25205 0.0
C9 C 0.27783 0.90172 0.36007 0.0
H10 H 0.33124 0.93495 0.37348 0.0
H11 H 0.2659 0.84244 0.33787 0.0
H12 H 0.23852 0.87563 0.38168 0.0
C13 C 0.90655 0.4477 0.09747 0.0
C14 C 0.82052 0.44733 0.07161 0.0
C15 C 0.88796 0.46714 0.06619 0.0
N16 N 0.85251 0.41742 0.11977 0.0
N17 N 0.80151 0.41874 0.10496 0.0
H18 H 0.97619 0.40266 0.08868 0.0
H19 H 0.01927 0.52477 0.09889 0.0
H20 H 0.98065 0.45864 0.13654 0.0
C21 C 0.97478 0.45948 0.10621 0.0
H22 H 0.78532 0.43564 0.01527 0.0
H23 H 0.78682 0.52259 0.05002 0.0
H24 H 0.71865 0.40374 0.04974 0.0
C25 C 0.77479 0.45196 0.045 0.0
C26 C 0.36397 0.2787 0.41729 0.0
C27 C 0.44826 0.21429 0.27888 0.0
C28 C 0.70032 0.07265 0.35386 0.0
N29 N 0.73245 0.15682 0.34425 0.0
N30 N 0.7479 0.14921 0.30864 0.0
C31 C 0.68957 1.00927 0.32152 0.0
C32 C 0.72147 0.06118 0.29361 0.0
H33 H 0.71896 0.11917 0.4142 0.0
H34 H 0.71539 0.01521 0.39736 0.0
H35 H 0.63559 1.01031 0.39816 0.0
C36 C 0.69231 0.05431 0.39336 0.0
H37 H 0.75849 0.08475 0.23802 0.0
H38 H 0.68403 0.96956 0.24035 0.0
H39 H 0.7698 1.00525 0.25705 0.0
C40 C 0.73438 0.02892 0.25484 0.0
C41 C 0.30916 0.41543 0.28927 0.0
C42 C 0.24671 0.29567 0.35549 0.0
N43 N 0.34321 0.34646 0.29395 0.0
N44 N 0.31113 0.28453 0.32822 0.0
C45 C 0.23692 0.38773 0.33112 0.0
H46 H 0.2704 0.41391 0.23643 0.0
H47 H 0.32061 0.52483 0.26611 0.0
H48 H 0.36499 0.47239 0.24181 0.0
C49 C 0.31736 0.45986 0.25635 0.0
C50 C 0.19687 0.23032 0.37969 0.0
H51 H 0.14339 0.21422 0.37417 0.0
H52 H 0.21366 0.26287 0.4098 0.0
H53 H 0.19721 0.1672 0.37403 0.0
C54 C 0.89578 0.43675 0.34437 0.0
C55 C 0.66854 0.30262 0.33378 0.0
C56 C 0.62694 0.20987 0.07861 0.0
N57 N 0.64101 0.27945 0.1065 0.0
C58 C 0.55539 0.15869 0.06878 0.0
N59 N 0.58276 0.27492 0.11512 0.0
C60 C 0.52897 0.20252 0.0925 0.0
H61 H 0.69889 0.22982 0.03565 0.0
H62 H 0.65831 0.12127 0.05079 0.0
H63 H 0.72713 0.22567 0.08075 0.0
C64 C 0.68105 0.19543 0.0606 0.0
H65 H 0.44674 0.21511 0.11744 0.0
C66 C 0.45596 0.18108 0.09108 0.0
H67 H 0.44882 0.20642 0.0667 0.0
H68 H 0.4172 0.10584 0.08675 0.0
C69 C 0.80901 0.40222 0.47187 0.0
C70 C 0.85353 0.33487 0.43593 0.0
N71 N 0.76444 0.34966 0.44107 0.0
N72 N 0.79196 0.30905 0.41989 0.0
C73 C 0.86797 0.39746 0.46855 0.0
H74 H 0.82501 0.46933 0.52936 0.0
C75 C 0.80079 0.46367 0.50209 0.0
H76 H 0.7443 0.43543 0.505 0.0
H77 H 0.82908 0.53322 0.495 0.0
H78 H 0.87802 0.25996 0.39159 0.0
H79 H 0.92962 0.30017 0.43601 0.0
C80 C 0.90479 0.3171 0.41601 0.0
H81 H 0.9472 0.37982 0.40599 0.0
C82 C 0.72874 0.54861 0.14316 0.0
C83 C 0.69593 0.25142 0.17883 0.0
C84 C 0.98886 0.52298 0.24573 0.0
N85 N 0.93246 0.45032 0.22512 0.0
C86 C 0.00086 0.60101 0.23479 0.0
C87 C 0.94904 0.56946 0.2063 0.0
N88 N 0.90832 0.47743 0.20174 0.0
C89 C 0.0336 0.51789 0.27287 0.0
H90 H -4e-05 0.47031 0.29189 0.0
H91 H 0.06243 0.49026 0.25684 0.0
H92 H 0.07198 0.58606 0.28991 0.0
C93 C 0.94209 0.62484 0.18222 0.0
H94 H 0.88746 0.58733 0.16975 0.0
H95 H 0.95737 0.69235 0.19901 0.0
H96 H 0.97807 0.63709 0.1589 0.0
C97 C 0.40152 0.08101 0.4593 0.0
C98 C 0.45965 0.11536 0.48487 0.0
C99 C 0.51074 0.19657 0.47425 0.0
N100 N 0.4202 0.14003 0.43475 0.0
N101 N 0.48644 0.20708 0.44357 0.0
H102 H 0.31753 0.97442 0.48519 0.0
H103 H 0.33916 0.93585 0.4406 0.0
H104 H 0.292 0.99088 0.44164 0.0
C105 C 0.33325 0.99034 0.4565 0.0
C106 C 0.5862 0.25405 0.48946 0.0
H107 H 0.58857 0.27656 0.52044 0.0
H108 H 0.6099 0.21329 0.48496 0.0
H109 H 0.61777 0.31502 0.47613 0.0
C110 C 0.87522 0.24692 0.14227 0.0
C111 C 0.77605 0.3466 0.26233 0.0
C112 C 0.56758 0.57998 0.24392 0.0
C113 C 0.5626 0.61916 0.27989 0.0
C114 C 0.51468 0.54537 0.29692 0.0
N115 N 0.52494 0.48839 0.24044 0.0
N116 N 0.49372 0.46731 0.27228 0.0
C117 C 0.60495 0.62866 0.21214 0.0
H118 H 0.62093 0.58816 0.19279 0.0
H119 H 0.56856 0.63575 0.19593 0.0
H120 H 0.65155 0.69813 0.22306 0.0
C121 C 0.48242 0.55073 0.33348 0.0
H122 H 0.45004 0.48252 0.34175 0.0
H123 H 0.52428 0.60002 0.35591 0.0
H124 H 0.44883 0.57673 0.33041 0.0
C125 C 0.91772 0.15779 0.28821 0.0
C126 C 0.98948 0.16603 0.24764 0.0
C127 C 0.98738 0.25218 0.21574 0.0
N128 N 0.89107 0.22989 0.27597 0.0
N129 N 0.92686 0.27811 0.23859 0.0
C130 C 0.91359 0.13503 0.32643 0.0
H131 H 0.96549 0.18257 0.34218 0.0
H132 H 0.9011 0.0645 0.32362 0.0
H133 H 0.87345 0.14225 0.34193 0.0
C134 C 0.03977 0.3056 0.18915 0.0
H135 H 0.09222 0.32264 0.19805 0.0
H136 H 0.02447 0.26296 0.16047 0.0
H137 H 0.04124 0.36875 0.18846 0.0
C138 C 0.33954 0.26807 0.19527 0.0
C139 C 0.59547 0.36139 0.22755 0.0
C140 C 0.55348 0.41253 0.41354 0.0
N141 N 0.58788 0.37104 0.40513 0.0
N142 N 0.64776 0.41475 0.42583 0.0
C143 C 0.58543 0.478 0.44549 0.0
C144 C 0.64665 0.4797 0.45217 0.0
H145 H 0.4779 0.43514 0.39367 0.0
H146 H 0.56044 0.48957 0.37244 0.0
H147 H 0.50065 0.36868 0.35862 0.0
C148 C 0.52017 0.42608 0.38284 0.0
H149 H 0.75222 0.56052 0.47549 0.0
H150 H 0.69843 0.60218 0.49405 0.0
H151 H 0.68546 0.50298 0.5085 0.0
C152 C 0.69922 0.53993 0.48444 0.0
C153 C 0.54695 0.43862 0.09631 0.0
N154 N 0.54692 0.41798 0.13026 0.0
N155 N 0.50062 0.42496 0.15116 0.0
C156 C 0.49834 0.46116 0.09492 0.0
C157 C 0.4696 0.45201 0.13047 0.0
C158 C 0.59011 0.43215 0.06502 0.0
H159 H 0.62122 0.49827 0.05475 0.0
H160 H 0.55482 0.37865 0.04101 0.0
H161 H 0.62579 0.41478 0.07481 0.0
C162 C 0.41321 0.4666 0.14377 0.0
H163 H 0.41608 0.48198 0.17514 0.0
H164 H 0.41804 0.52311 0.13182 0.0
H165 H 0.36129 0.40315 0.13374 0.0
C166 C 0.60086 0.14151 0.40265 0.0
C167 C 0.47574 0.09716 0.33763 0.0
Cu168 Cu 0.35632 0.22664 0.33587 0.0
Cu169 Cu 0.39513 0.14563 0.38578 0.0
Cu170 Cu 0.77184 0.2804 0.36829 0.0
Cu171 Cu 0.82496 0.2531 0.29529 0.0
Cu172 Cu 0.72204 0.37791 0.13271 0.0
Cu173 Cu 0.59467 0.37534 0.14852 0.0
Cu174 Cu 0.88135 0.32593 0.22162 0.0
Cu175 Cu 0.83973 0.38225 0.16592 0.0
Cu176 Cu 0.49343 0.39244 0.19952 0.0
Cu177 Cu 0.41641 0.3467 0.26999 0.0
Cu178 Cu 0.53944 0.2453 0.40263 0.0
Cu179 Cu 0.69103 0.34441 0.41518 0.0
H180 H 0.39654 0.30016 0.44369 0.0
H181 H 0.31038 0.21905 0.42015 0.0
H182 H 0.36083 0.33608 0.41214 0.0
H183 H 0.40679 0.14184 0.27985 0.0
H184 H 0.49894 0.23363 0.29181 0.0
H185 H 0.45457 0.22257 0.24887 0.0
H186 H 0.90155 0.45467 0.31594 0.0
H187 H 0.94843 0.46603 0.35793 0.0
H188 H 0.86893 0.46573 0.36158 0.0
H189 H 0.66441 0.24346 0.31476 0.0
H190 H 0.68491 0.35937 0.31835 0.0
H191 H 0.61649 0.28101 0.34462 0.0
H192 H 0.69087 0.56914 0.14357 0.0
H193 H 0.74783 0.54681 0.11439 0.0
H194 H 0.77373 0.59897 0.16376 0.0
H195 H 0.67673 0.20628 0.15077 0.0
H196 H 0.65094 0.24568 0.19419 0.0
H197 H 0.72177 0.22791 0.19439 0.0
H198 H 0.85079 0.23411 0.11397 0.0
H199 H 0.93256 0.29788 0.14272 0.0
H200 H 0.86529 0.18193 0.14833 0.0
H201 H 0.79735 0.39846 0.24382 0.0
H202 H 0.71818 0.30111 0.25742 0.0
H203 H 0.7892 0.38258 0.29196 0.0
H204 H 0.29561 0.20985 0.2071 0.0
H205 H 0.32976 0.32312 0.1974 0.0
H206 H 0.34326 0.24433 0.16516 0.0
H207 H 0.5838 0.3947 0.25309 0.0
H208 H 0.58325 0.29428 0.23218 0.0
H209 H 0.65199 0.40582 0.22243 0.0
H210 H 0.61912 0.13252 0.3744 0.0
H211 H 0.62891 0.1373 0.42557 0.0
H212 H 0.54443 0.08762 0.40231 0.0
H213 H 0.5286 0.12025 0.32746 0.0
H214 H 0.45972 0.04446 0.35532 0.0
H215 H 0.43718 0.06598 0.31306 0.0
O216 O 0.39362 0.25438 0.38765 0.0
O217 O 0.42824 0.26957 0.29779 0.0
O218 O 0.85632 0.3434 0.34166 0.0
O219 O 0.71626 0.33246 0.36341 0.0
O220 O 0.69633 0.46353 0.15265 0.0
O221 O 0.74301 0.34061 0.17447 0.0
O222 O 0.84643 0.27976 0.16908 0.0
O223 O 0.8048 0.29557 0.25508 0.0
O224 O 0.40119 0.3009 0.21516 0.0
O225 O 0.55535 0.34846 0.19689 0.0
O226 O 0.60935 0.2245 0.41004 0.0
O227 O 0.47626 0.17001 0.35845 0.0
C228 C 0.98903 0.49824 0.77014 0.0
C229 C 0.9614 0.42598 0.78963 0.0
C230 C 0.01271 0.45411 0.81777 0.0
N231 N 0.05269 0.56501 0.78652 0.0
N232 N 0.06712 0.53895 0.81476 0.0
C233 C 0.9534 0.50552 0.73847 0.0
H234 H 0.99186 0.56256 0.72411 0.0
H235 H 0.91326 0.51846 0.75001 0.0
H236 H 0.926 0.44008 0.71789 0.0
C237 C 0.00786 0.40325 0.84792 0.0
H238 H 0.06021 0.43508 0.86247 0.0
H239 H 0.98635 0.33055 0.83539 0.0
H240 H 0.9709 0.40425 0.86876 0.0
C241 C 0.6159 0.99865 0.60566 0.0
C242 C 0.53222 0.88836 0.56456 0.0
C243 C 0.57799 0.9822 0.57187 0.0
N244 N 0.5879 0.91829 0.61868 0.0
N245 N 0.53659 0.85435 0.59384 0.0
H246 H 0.72171 0.10327 0.59838 0.0
H247 H 0.67641 0.14345 0.62776 0.0
H248 H 0.70573 0.07837 0.64557 0.0
C249 C 0.68357 0.08594 0.62079 0.0
H250 H 0.49521 0.83816 0.50609 0.0
H251 H 0.44018 0.86238 0.53575 0.0
H252 H 0.44008 0.76123 0.53679 0.0
C253 C 0.47324 0.83409 0.53433 0.0
C254 C 0.157 0.80735 0.8547 0.0
C255 C 0.18678 0.61283 0.73311 0.0
C256 C 0.43746 0.41813 0.79482 0.0
N257 N 0.47352 0.51012 0.80338 0.0
N258 N 0.50873 0.54567 0.77417 0.0
C259 C 0.45061 0.39298 0.75814 0.0
C260 C 0.4965 0.47653 0.74599 0.0
H261 H 0.38966 0.39435 0.84823 0.0
H262 H 0.40461 0.30803 0.82442 0.0
H263 H 0.3346 0.31269 0.80717 0.0
C264 C 0.38888 0.35518 0.82044 0.0
H265 H 0.55182 0.56202 0.70458 0.0
H266 H 0.48364 0.44324 0.68554 0.0
H267 H 0.5654 0.47116 0.70524 0.0
C268 C 0.52607 0.48964 0.70805 0.0
C269 C 0.06075 0.79415 0.72039 0.0
C270 C 0.02744 0.74867 0.77528 0.0
N271 N 0.09854 0.76381 0.73091 0.0
N272 N 0.0791 0.73777 0.76373 0.0
C273 C 0.01434 0.78485 0.74822 0.0
H274 H 0.02724 0.76286 0.66229 0.0
H275 H 0.05047 0.87444 0.68621 0.0
H276 H 0.11856 0.85267 0.67333 0.0
C277 C 0.06485 0.82349 0.68344 0.0
C278 C 0.98632 0.71548 0.80893 0.0
H279 H 0.00136 0.67539 0.82151 0.0
H280 H 0.92919 0.67258 0.80063 0.0
H281 H -0.00335 0.77529 0.83028 0.0
C282 C 0.61277 0.76179 0.86046 0.0
C283 C 0.34306 0.53386 0.80635 0.0
C284 C 0.44601 0.62428 0.56965 0.0
N285 N 0.41156 0.66006 0.58672 0.0
C286 C 0.4059 0.56026 0.53874 0.0
N287 N 0.34876 0.62209 0.56993 0.0
C288 C 0.34275 0.55782 0.5402 0.0
H289 H 0.55496 0.70985 0.56011 0.0
H290 H 0.53079 0.60722 0.57678 0.0
H291 H 0.53446 0.70036 0.60894 0.0
C292 C 0.52118 0.66258 0.57953 0.0
H293 H 0.23252 0.49076 0.52657 0.0
C294 C 0.27863 0.49225 0.51455 0.0
H295 H 0.2876 0.51158 0.48617 0.0
H296 H 0.26848 0.42264 0.51082 0.0
C297 C 0.41051 0.55665 0.94624 0.0
C298 C 0.49309 0.54523 0.91718 0.0
N299 N 0.41222 0.57072 0.91079 0.0
N300 N 0.46204 0.5655 0.89307 0.0
C301 C 0.46091 0.5389 0.95169 0.0
H302 H 0.32166 0.4962 0.97969 0.0
C303 C 0.36444 0.56549 0.97504 0.0
H304 H 0.34137 0.6001 0.9653 0.0
H305 H 0.39512 0.60489 1.00241 0.0
H306 H 0.5372 0.46514 0.91256 0.0
H307 H 0.59881 0.58582 0.9273 0.0
C308 C 0.55226 0.53357 0.90792 0.0
H309 H 0.5657 0.54065 0.87814 0.0
C310 C 0.40615 0.89284 0.62221 0.0
C311 C 0.44876 0.70746 0.67908 0.0
C312 C 0.67947 1.00438 0.76512 0.0
N313 N 0.63339 0.93248 0.73919 0.0
C314 C 0.69061 0.08334 0.75557 0.0
C315 C 0.64513 0.05209 0.72384 0.0
N316 N 0.61382 0.96076 0.71355 0.0
C317 C 0.72075 1.00006 0.7948 0.0
H318 H 0.69162 0.93085 0.80239 0.0
H319 H 0.772 0.01617 0.78412 0.0
H320 H 0.7317 0.05214 0.82033 0.0
C321 C 0.63259 0.10987 0.7045 0.0
H322 H 0.59355 0.0672 0.6803 0.0
H323 H 0.61181 0.14275 0.72492 0.0
H324 H 0.68297 0.1662 0.69589 0.0
C325 C 0.07382 0.60877 0.91635 0.0
C326 C 0.08423 0.59257 0.9509 0.0
C327 C 0.14717 0.59755 0.94914 0.0
N328 N 0.12812 0.62282 0.89568 0.0
N329 N 0.17129 0.61441 0.91482 0.0
H330 H 0.00727 0.6587 0.91905 0.0
H331 H 0.96217 0.53673 0.90655 0.0
H332 H 0.013 0.60778 0.872 0.0
C333 C 0.01042 0.60251 0.90232 0.0
C334 C 0.18159 0.58304 0.97889 0.0
H335 H 0.17674 0.61498 1.00724 0.0
H336 H 0.1544 0.50846 0.97848 0.0
H337 H 0.23779 0.61239 0.9736 0.0
C338 C 0.66708 0.80859 0.65167 0.0
C339 C 0.49161 0.7637 0.77142 0.0
C340 C 0.29662 0.94918 0.6611 0.0
C341 C 0.30761 1.00385 0.69648 0.0
C342 C 0.2708 0.94125 0.72051 0.0
N343 N 0.26003 0.86006 0.66522 0.0
N344 N 0.24243 0.85612 0.70047 0.0
C345 C 0.30956 0.98125 0.62408 0.0
H346 H 0.29302 0.92377 0.60009 0.0
H347 H 0.27933 1.01219 0.62143 0.0
H348 H 0.36594 0.03583 0.62331 0.0
C349 C 0.2555 0.96159 0.76047 0.0
H350 H 0.2405 0.90404 0.7752 0.0
H351 H 0.30188 0.02629 0.77562 0.0
H352 H 0.21098 0.97031 0.76053 0.0
C353 C 0.70549 0.72174 0.7752 0.0
C354 C 0.76529 0.78533 0.75943 0.0
C355 C 0.7461 0.83279 0.74222 0.0
N356 N 0.65374 0.73192 0.76739 0.0
N357 N 0.67771 0.79749 0.74711 0.0
C358 C 0.69671 0.64953 0.79517 0.0
H359 H 0.74488 0.67662 0.81314 0.0
H360 H 0.68862 0.59091 0.77382 0.0
H361 H 0.65021 0.62479 0.81251 0.0
C362 C 0.79217 0.90848 0.72096 0.0
H363 H 0.84271 0.9594 0.73759 0.0
H364 H 0.80453 0.88041 0.69402 0.0
H365 H 0.766 0.94264 0.71527 0.0
C366 C 0.08687 0.57879 0.64861 0.0
C367 C 0.30454 0.70159 0.66995 0.0
C368 C 0.34845 0.80563 0.93225 0.0
N369 N 0.33092 0.72699 0.90944 0.0
N370 N 0.38476 0.7188 0.9077 0.0
C371 C 0.41743 0.84925 0.94618 0.0
C372 C 0.43873 0.79164 0.93013 0.0
H373 H 0.27173 0.80065 0.9696 0.0
H374 H 0.32556 0.90734 0.9528 0.0
H375 H 0.25679 0.80573 0.92166 0.0
C376 C 0.29774 0.83181 0.94462 0.0
H377 H 0.5145 0.75612 0.91875 0.0
H378 H 0.54978 0.8719 0.94432 0.0
H379 H 0.49872 0.7758 0.96796 0.0
C380 C 0.50457 0.79935 0.94063 0.0
C381 C 0.21255 0.67027 0.52674 0.0
N382 N 0.24705 0.70774 0.56117 0.0
N383 N 0.21275 0.73729 0.5829 0.0
C384 C 0.15235 0.67255 0.5277 0.0
C385 C 0.1567 0.71952 0.56349 0.0
C386 C 0.23264 0.62695 0.49401 0.0
H387 H 0.22921 0.65058 0.4681 0.0
H388 H 0.19463 0.55162 0.48909 0.0
H389 H 0.28713 0.64614 0.49903 0.0
C390 C 0.09917 0.72617 0.58173 0.0
H391 H 0.11894 0.7736 0.60933 0.0
H392 H 0.07859 0.75071 0.56286 0.0
H393 H 0.05511 0.65747 0.58616 0.0
C394 C 0.22353 0.45079 0.90297 0.0
C395 C 0.28267 0.69539 0.81971 0.0
Cu396 Cu 0.11817 0.68421 0.78155 0.0
Cu397 Cu 0.14483 0.63227 0.8458 0.0
Cu398 Cu 0.47318 0.59206 0.84338 0.0
Cu399 Cu 0.56146 0.6755 0.78087 0.0
Cu400 Cu 0.45524 0.77597 0.61349 0.0
Cu401 Cu 0.30953 0.69501 0.58827 0.0
Cu402 Cu 0.61326 0.81453 0.72722 0.0
Cu403 Cu 0.57736 0.87799 0.66684 0.0
Cu404 Cu 0.21897 0.74274 0.63433 0.0
Cu405 Cu 0.16401 0.74473 0.70802 0.0
Cu406 Cu 0.24639 0.62375 0.88891 0.0
Cu407 Cu 0.36336 0.60309 0.88588 0.0
H408 H 0.203 0.85046 0.87539 0.0
H409 H 0.10826 0.77256 0.86993 0.0
H410 H 0.15433 0.85145 0.83746 0.0
H411 H 0.15095 0.55821 0.74917 0.0
H412 H 0.24131 0.63372 0.73931 0.0
H413 H 0.17259 0.58536 0.70259 0.0
H414 H 0.66165 0.78521 0.84536 0.0
H415 H 0.61021 0.7215 0.88149 0.0
H416 H 0.61318 0.82242 0.87504 0.0
H417 H 0.36391 0.55175 0.77858 0.0
H418 H 0.29418 0.53265 0.80982 0.0
H419 H 0.33044 0.4647 0.80771 0.0
H420 H 0.373 0.88058 0.64637 0.0
H421 H 0.39676 0.92576 0.602 0.0
H422 H 0.46142 0.93764 0.63376 0.0
H423 H 0.41003 0.64931 0.65758 0.0
H424 H 0.42081 0.70885 0.70477 0.0
H425 H 0.4898 0.69541 0.6845 0.0
H426 H 0.65132 0.78246 0.6212 0.0
H427 H 0.71067 0.88176 0.65503 0.0
H428 H 0.68437 0.7683 0.66206 0.0
H429 H 0.49637 0.81826 0.75803 0.0
H430 H 0.43546 0.70777 0.77115 0.0
H431 H 0.51382 0.79345 0.80103 0.0
H432 H 0.06511 0.55113 0.67479 0.0
H433 H 0.04295 0.55951 0.62889 0.0
H434 H 0.11646 0.54957 0.63519 0.0
H435 H 0.28566 0.73137 0.69299 0.0
H436 H 0.29774 0.63831 0.67601 0.0
H437 H 0.35997 0.75472 0.66784 0.0
H438 H 0.24537 0.40791 0.89672 0.0
H439 H 0.2264 0.47275 0.9339 0.0
H440 H 0.1679 0.41021 0.89183 0.0
H441 H 0.30177 0.66151 0.79875 0.0
H442 H 0.26399 0.72867 0.80497 0.0
H443 H 0.32659 0.74912 0.84016 0.0
O444 O 0.16418 0.74338 0.83156 0.0
O445 O 0.18149 0.6869 0.74344 0.0
O446 O 0.55549 0.70828 0.83516 0.0
O447 O 0.39218 0.59651 0.83489 0.0
O448 O 0.3948 0.81195 0.60371 0.0
O449 O 0.47709 0.788 0.66582 0.0
O450 O 0.61175 0.80061 0.67148 0.0
O451 O 0.52812 0.73022 0.75208 0.0
O452 O 0.13097 0.67235 0.6572 0.0
O453 O 0.26802 0.68242 0.63696 0.0
O454 O 0.26152 0.52593 0.88592 0.0
O455 O 0.2289 0.63221 0.83833 0.0
C456 C 0.49408 0.01824 0.96961 0.0
C457 C 0.45366 0.92825 0.9777 0.0
C458 C 0.48103 0.98924 0.04563 0.0
C459 C 0.51749 0.07926 0.03761 0.0
N460 N 0.5512 0.1812 0.99315 0.0
N461 N 0.40056 0.82624 0.02278 0.0
C462 C 0.52193 0.09431 0.99988 0.0
C463 C 0.4448 0.91315 0.01558 0.0
N464 N 0.50707 0.03072 0.93297 0.0
N465 N 0.48296 0.97665 0.08187 0.0
H466 H 0.37499 0.76837 1.00154 0.0
H467 H 0.38537 0.8116 0.04967 0.0
H468 H 0.5074 0.03074 0.10476 0.0
H469 H 0.46458 0.91329 0.08904 0.0
H470 H 0.54234 0.0941 0.92532 0.0
H471 H 0.48645 0.97645 0.91007 0.0
H472 H 0.54953 0.19606 0.96666 0.0
H473 H 0.57262 0.2386 0.01467 0.0
C474 C 0.44942 0.45853 0.51748 0.0
C475 C 0.43698 0.52359 0.50894 0.0
C476 C 0.53122 0.57026 0.46379 0.0
C477 C 0.54331 0.50434 0.47196 0.0
N478 N 0.51058 0.38155 0.50525 0.0
N479 N 0.45804 0.63204 0.47015 0.0
C480 C 0.50145 0.44762 0.49857 0.0
C481 C 0.47537 0.57621 0.4807 0.0
N482 N 0.41317 0.40998 0.54528 0.0
N483 N 0.5749 0.62903 0.44055 0.0
H484 H 0.41723 0.63658 0.48177 0.0
H485 H 0.4795 0.66795 0.44801 0.0
H486 H 0.61682 0.62731 0.42874 0.0
H487 H 0.57355 0.68357 0.43509 0.0
H488 H 0.42509 0.37038 0.55718 0.0
H489 H 0.37154 0.41186 0.55748 0.0
H490 H 0.47621 0.32883 0.51956 0.0
H491 H 0.55272 0.37858 0.49551 0.0
C492 C 0.9306 0.43502 1.00462 0.0
C493 C 0.93175 0.49998 0.03411 0.0
C494 C 0.02932 0.62608 1.0073 0.0
C495 C 0.03267 0.56085 0.98003 0.0
N496 N 0.9915 0.40404 0.95361 0.0
N497 N 0.9829 0.65587 0.06595 0.0
C498 C 0.98453 0.4654 0.97883 0.0
C499 C 0.98098 0.59529 0.03599 0.0
N500 N 0.87725 0.34452 1.00113 0.0
N501 N 0.07186 0.71721 1.00543 0.0
H502 H 0.94606 0.63586 0.08652 0.0
H503 H 0.02278 0.72521 0.07162 0.0
H504 H 0.11007 0.74252 0.98575 0.0
H505 H 0.06673 0.76742 0.02177 0.0
H506 H 0.86904 0.29461 0.97812 0.0
H507 H 0.83727 0.32006 0.01989 0.0
H508 H 0.9632 0.33417 0.95403 0.0
H509 H 0.02923 0.42346 0.93356 0.0
C510 C 0.52797 0.08037 0.57099 0.0
C511 C 0.56471 0.04144 0.55285 0.0
C512 C 0.51324 0.02739 0.49148 0.0
C513 C 0.4793 0.07021 0.50889 0.0
N514 N 0.46262 0.14977 0.56513 0.0
N515 N 0.60965 1.0077 0.49549 0.0
C516 C 0.48922 0.10029 0.54872 0.0
C517 C 0.56353 0.0262 0.51291 0.0
N518 N 0.52847 0.09641 0.60942 0.0
N519 N 0.49641 0.98597 0.45445 0.0
H520 H 0.64681 1.00672 0.51091 0.0
H521 H 0.61532 1.00246 0.46646 0.0
H522 H 0.45857 0.98355 0.43826 0.0
H523 H 0.51489 0.94678 0.44103 0.0
H524 H 0.49644 0.11407 0.62436 0.0
H525 H 0.5591 0.08832 0.62657 0.0
H526 H 0.475 0.18424 0.59303 0.0
H527 H 0.43024 0.15973 0.55 0.0
C528 C 0.52559 0.57374 0.05301 0.0
C529 C 0.48106 0.48346 0.06066 0.0
C530 C 0.42904 0.42802 0.99533 0.0
C531 C 0.47436 0.51807 0.98751 0.0
N532 N 0.56029 0.67868 1.00889 0.0
N533 N 0.39365 0.32331 0.03962 0.0
C534 C 0.52144 0.59147 0.01636 0.0
C535 C 0.43308 0.41037 0.032 0.0
N536 N 0.57385 0.64168 0.0806 0.0
N537 N 0.38065 0.36 0.96779 0.0
H538 H 0.39245 0.30897 0.06664 0.0
H539 H 0.36383 0.26464 0.01934 0.0
H540 H 0.37912 0.36915 0.94008 0.0
H541 H 0.3403 0.29537 0.97229 0.0
H542 H 0.61393 0.70656 0.0762 0.0
H543 H 0.57532 0.63207 0.10824 0.0
H544 H 0.58963 0.73723 0.0293 0.0
H545 H 0.56121 0.69331 0.98196 0.0
C546 C 0.9798 0.55225 0.469 0.0
C547 C 0.94052 0.47001 0.48426 0.0
C548 C 0.0458 0.51453 0.52094 0.0
C549 C 0.08308 0.59936 0.50818 0.0
N550 N 0.08588 0.70506 0.47364 0.0
N551 N 0.93262 0.37544 0.52707 0.0
C552 C 0.05021 0.61991 0.48311 0.0
C553 C 0.97268 0.45155 0.51086 0.0
N554 N 0.95072 0.56434 0.44008 0.0
N555 N 0.08258 0.49743 0.54304 0.0
H556 H 0.879 0.32841 0.51998 0.0
H557 H 0.95036 0.36157 0.5494 0.0
H558 H 0.06255 0.43624 0.55274 0.0
H559 H 0.06255 0.43624 0.55274 0.0
H560 H 0.9793 0.61695 0.42469 0.0
H561 H 0.89882 0.51838 0.42947 0.0
H562 H 0.0624 0.72886 0.45934 0.0
H563 H 0.13872 0.7542 0.48205 0.0
C564 C 0.58423 0.85148 0.29917 0.0
C565 C 0.65319 0.90797 0.31671 0.0
C566 C 0.65638 0.77206 0.31637 0.0
C567 C 0.59172 0.71767 0.29434 0.0
N568 N 0.49467 0.70428 0.26281 0.0
N569 N 0.75727 0.92434 0.34035 0.0
C570 C 0.55551 0.75691 0.28538 0.0
C571 C 0.6897 0.86878 0.3252 0.0
N572 N 0.54593 0.88834 0.29629 0.0
N573 N 0.68551 0.731 0.32917 0.0
H574 H 0.78185 0.99472 0.34879 0.0
H575 H 0.79013 0.90172 0.34275 0.0
H576 H 0.66325 0.66057 0.32257 0.0
H577 H 0.72853 0.76531 0.3487 0.0
H578 H 0.49299 0.84962 0.28718 0.0
H579 H 0.56545 0.95731 0.30622 0.0
H580 H 0.47 0.73071 0.25153 0.0
H581 H 0.47081 0.63421 0.25326 0.0
C582 C 0.9558 0.86563 0.77041 0.0
C583 C 0.95384 0.79203 0.74652 0.0
C584 C 0.83123 0.72231 0.7269 0.0
C585 C 0.83067 0.78906 0.75458 0.0
N586 N 0.88896 0.92074 0.80471 0.0
N587 N 0.88909 0.64435 0.70523 0.0
C588 C 0.89215 0.86032 0.7768 0.0
C589 C 0.8916 0.71897 0.72532 0.0
N590 N 0.01866 0.94053 0.78658 0.0
N591 N 0.77471 0.66351 0.70163 0.0
H592 H 0.93259 0.63956 0.70265 0.0
H593 H 0.84263 0.58416 0.6933 0.0
H594 H 0.72894 0.66329 0.70197 0.0
H595 H 0.77545 0.62031 0.67828 0.0
H596 H 0.02462 1.00021 0.80157 0.0
H597 H 0.06626 0.94602 0.78222 0.0
H598 H 0.93029 0.96827 0.82449 0.0
H599 H 0.84307 0.91933 0.80978 0.0
C600 C 0.18379 0.81493 0.26084 0.0
C601 C 0.16959 0.85978 0.29302 0.0
C602 C 0.04309 0.74542 0.28092 0.0
C603 C 0.05771 0.69604 0.25091 0.0
N604 N 0.14018 0.67874 0.21263 0.0
N605 N 0.08816 0.86658 0.33613 0.0
C606 C 0.12763 0.72972 0.2408 0.0
C607 C 0.0998 0.82492 0.30365 0.0
N608 N 0.25071 0.85509 0.24904 0.0
N609 N 0.97488 0.71625 0.28749 0.0
H610 H 0.12846 0.92556 0.35326 0.0
H611 H 0.03949 0.8397 0.34776 0.0
H612 H 0.93204 0.6571 0.27191 0.0
H613 H 0.96031 0.75384 0.30629 0.0
H614 H 0.26356 0.83151 0.22353 0.0
H615 H 0.29351 0.91584 0.26386 0.0
H616 H 0.19003 0.693 0.2069 0.0
H617 H 0.09995 0.61902 0.19579 0.0
C618 C 0.45494 0.25463 0.7311 0.0
C619 C 0.41682 0.29693 0.73646 0.0
C620 C 0.30775 0.14858 0.71195 0.0
C621 C 0.34587 0.10629 0.7065 0.0
N622 N 0.45744 0.12152 0.70351 0.0
N623 N 0.31094 0.28974 0.72442 0.0
C624 C 0.42013 0.16038 0.71356 0.0
C625 C 0.34434 0.24539 0.72451 0.0
N626 N 0.52361 0.3033 0.74455 0.0
N627 N 0.23623 0.09572 0.70585 0.0
H628 H 0.33634 0.3604 0.73314 0.0
H629 H 0.26011 0.25842 0.71281 0.0
H630 H 0.20833 0.02596 0.69444 0.0
H631 H 0.20409 0.11956 0.71382 0.0
H632 H 0.55226 0.27416 0.74574 0.0
H633 H 0.55106 0.37248 0.75688 0.0
H634 H 0.51206 0.15892 0.70386 0.0
H635 H 0.43374 0.05242 0.6918 0.0
C636 C 0.11783 0.35735 0.30985 0.0
C637 C 0.1701 0.3396 0.31246 0.0
C638 C 0.11123 0.20104 0.26598 0.0
C639 C 0.05604 0.214 0.2664 0.0
N640 N -0.00023 0.28885 0.27629 0.0
N641 N 0.23354 0.27602 0.29522 0.0
C642 C 0.05887 0.28986 0.28484 0.0
C643 C 0.17064 0.26902 0.2906 0.0
N644 N 0.12466 0.43367 0.3305 0.0
N645 N 0.10667 0.12892 0.24271 0.0
H646 H 0.3193 0.39274 0.33584 0.0
H647 H 0.23407 0.22295 0.27713 0.0
H648 H 0.06131 0.08092 0.2253 0.0
H649 H 0.1476 0.11905 0.24009 0.0
H650 H 0.08667 0.44866 0.32982 0.0
H651 H 0.16932 0.48092 0.34853 0.0
H652 H 0.00292 0.34806 0.29058 0.0
H653 H 0.91102 0.16719 0.23861 0.0
C654 C 0.83304 0.3279 0.80113 0.0
C655 C 0.89195 0.33832 0.78181 0.0
C656 C 0.81708 0.18757 0.74227 0.0
C657 C 0.7588 0.17363 0.76351 0.0
N658 N 0.71166 0.22484 0.81546 0.0
N659 N 0.94356 0.27441 0.73857 0.0
C660 C 0.76687 0.24232 0.79363 0.0
C661 C 0.88493 0.26711 0.75366 0.0
N662 N 0.84021 0.40048 0.82597 0.0
N663 N 0.80757 0.12582 0.71064 0.0
H664 H -0.00575 0.33244 0.74568 0.0
H665 H 0.94289 0.22029 0.72144 0.0
H666 H 0.75961 0.06492 0.70152 0.0
H667 H 0.84611 0.13806 0.6915 0.0
H668 H 0.79809 0.40083 0.83806 0.0
H669 H 0.88827 0.46324 0.83277 0.0
H670 H 0.7159 0.26777 0.84037 0.0
H671 H 0.66199 0.16406 0.80982 0.0
loop_
_geom_bond_atom_site_label_1
_geom_bond_atom_site_label_2
_geom_bond_distance
_geom_bond_site_symmetry_2
_ccdc_geom_bond_type
C0 C1 1.388 1_545 S
C0 N3 1.338 . S
C0 C5 1.503 . S
C1 C0 1.388 1_565 S
C1 C2 1.396 1_565 S
C2 C1 1.396 1_545 S
C2 N4 1.348 . S
C2 C9 1.504 1_545 S
N3 C0 1.338 . S
N3 N4 1.361 . S
N3 Cu168 1.924 . S
N4 C2 1.348 . S
N4 N3 1.361 . S
N4 Cu169 1.964 . S
C5 C0 1.503 . S
C5 H6 0.979 . S
C5 H7 0.979 1_545 S
C5 H8 0.979 . S
H6 C5 0.979 . S
H7 C5 0.979 1_565 S
H8 C5 0.979 . S
C9 C2 1.504 1_565 S
C9 H10 0.981 1_565 S
C9 H11 0.980 . S
C9 H12 0.979 . S
H10 C9 0.981 1_545 S
H11 C9 0.980 . S
H12 C9 0.979 . S
C13 C15 1.402 . S
C13 N16 1.356 . S
C13 C21 1.481 1_655 S
C14 C15 1.400 . S
C14 N17 1.325 . S
C14 C25 1.503 . S
C15 C13 1.402 . S
C15 C14 1.400 . S
N16 C13 1.356 . S
N16 N17 1.365 . S
N16 Cu175 1.941 . S
N17 C14 1.325 . S
N17 N16 1.365 . S
N17 Cu172 1.924 . S
H18 C21 0.980 . S
H19 C21 0.980 . S
H20 C21 0.980 . S
C21 C13 1.481 1_455 S
C21 H18 0.980 . S
C21 H19 0.980 . S
C21 H20 0.980 . S
H22 C25 0.978 . S
H23 C25 0.978 . S
H24 C25 0.983 . S
C25 C14 1.503 . S
C25 H22 0.978 . S
C25 H23 0.978 . S
C25 H24 0.983 . S
C26 H180 0.979 . S
C26 H181 0.981 . S
C26 H182 0.981 . S
C26 O216 1.438 . S
C27 H183 0.980 . S
C27 H184 0.979 . S
C27 H185 0.980 . S
C27 O217 1.533 . S
C28 N29 1.338 . S
C28 C31 1.388 . S
C28 C36 1.503 . S
N29 C28 1.338 . S
N29 N30 1.361 . S
N29 Cu170 1.924 . S
N30 N29 1.361 . S
N30 C32 1.348 . S
N30 Cu171 1.964 . S
C31 C28 1.388 . S
C31 C32 1.396 . S
C32 N30 1.348 . S
C32 C31 1.396 . S
C32 C40 1.504 . S
H33 C36 0.979 . S
H34 C36 0.979 1_565 S
H35 C36 0.979 1_565 S
C36 C28 1.503 . S
C36 H33 0.979 . S
C36 H34 0.979 1_545 S
C36 H35 0.979 1_545 S
H37 C40 0.981 . S
H38 C40 0.980 . S
H39 C40 0.979 . S
C40 C32 1.504 . S
C40 H37 0.981 . S
C40 H38 0.980 . S
C40 H39 0.979 . S
C41 N43 1.356 . S
C41 C45 1.402 . S
C41 C49 1.481 . S
C42 N44 1.325 . S
C42 C45 1.400 . S
C42 C50 1.503 . S
N43 C41 1.356 . S
N43 N44 1.365 . S
N43 Cu177 1.941 . S
N44 C42 1.325 . S
N44 N43 1.365 . S
N44 Cu168 1.924 . S
C45 C41 1.402 . S
C45 C42 1.400 . S
H46 C49 0.980 . S
H47 C49 0.980 . S
H48 C49 0.980 . S
C49 C41 1.481 . S
C49 H46 0.980 . S
C49 H47 0.980 . S
C49 H48 0.980 . S
C50 C42 1.503 . S
C50 H51 0.978 . S
C50 H52 0.978 . S
C50 H53 0.983 . S
H51 C50 0.978 . S
H52 C50 0.978 . S
H53 C50 0.983 . S
C54 H186 0.979 . S
C54 H187 0.981 . S
C54 H188 0.981 . S
C54 O218 1.438 . S
C55 H189 0.980 . S
C55 H190 0.979 . S
C55 H191 0.980 . S
C55 O219 1.533 . S
C56 N57 1.338 . S
C56 C58 1.388 . S
C56 C64 1.503 . S
N57 C56 1.338 . S
N57 N59 1.361 . S
N57 Cu172 1.924 . S
C58 C56 1.388 . S
C58 C60 1.396 . S
N59 N57 1.361 . S
N59 C60 1.348 . S
N59 Cu173 1.964 . S
C60 C58 1.396 . S
C60 N59 1.348 . S
C60 C66 1.504 . S
H61 C64 0.979 . S
H62 C64 0.979 . S
H63 C64 0.979 . S
C64 C56 1.503 . S
C64 H61 0.979 . S
C64 H62 0.979 . S
C64 H63 0.979 . S
H65 C66 0.981 . S
C66 C60 1.504 . S
C66 H65 0.981 . S
C66 H67 0.979 . S
C66 H68 0.980 . S
H67 C66 0.979 . S
H68 C66 0.980 . S
C69 N71 1.356 . S
C69 C73 1.402 . S
C69 C75 1.481 . S
C70 N72 1.325 . S
C70 C73 1.400 . S
C70 C80 1.503 . S
N71 C69 1.356 . S
N71 N72 1.365 . S
N71 Cu179 1.941 . S
N72 C70 1.325 . S
N72 N71 1.365 . S
N72 Cu170 1.924 . S
C73 C69 1.402 . S
C73 C70 1.400 . S
H74 C75 0.980 . S
C75 C69 1.481 . S
C75 H74 0.980 . S
C75 H76 0.980 . S
C75 H77 0.980 . S
H76 C75 0.980 . S
H77 C75 0.980 . S
H78 C80 0.978 . S
H79 C80 0.978 . S
C80 C70 1.503 . S
C80 H78 0.978 . S
C80 H79 0.978 . S
C80 H81 0.983 . S
H81 C80 0.983 . S
C82 H192 0.979 . S
C82 H193 0.981 . S
C82 H194 0.981 . S
C82 O220 1.438 . S
C83 H195 0.980 . S
C83 H196 0.979 . S
C83 H197 0.980 . S
C83 O221 1.533 . S
C84 N85 1.338 1_455 S
C84 C86 1.388 . S
C84 C89 1.503 . S
N85 C84 1.338 1_655 S
N85 N88 1.361 . S
N85 Cu174 1.924 . S
C86 C84 1.388 . S
C86 C87 1.396 1_455 S
C87 C86 1.396 1_655 S
C87 N88 1.348 . S
C87 C93 1.504 . S
N88 N85 1.361 . S
N88 C87 1.348 . S
N88 Cu175 1.964 . S
C89 C84 1.503 . S
C89 H90 0.979 . S
C89 H91 0.979 . S
C89 H92 0.979 . S
H90 C89 0.979 . S
H91 C89 0.979 . S
H92 C89 0.979 . S
C93 C87 1.504 . S
C93 H94 0.981 . S
C93 H95 0.980 . S
C93 H96 0.979 . S
H94 C93 0.981 . S
H95 C93 0.980 . S
H96 C93 0.979 . S
C97 C98 1.402 . S
C97 N100 1.356 . S
C97 C105 1.481 . S
C98 C97 1.402 . S
C98 C99 1.400 . S
C99 C98 1.400 . S
C99 N101 1.325 . S
C99 C106 1.503 . S
N100 C97 1.356 . S
N100 N101 1.365 . S
N100 Cu169 1.941 . S
N101 C99 1.325 . S
N101 N100 1.365 . S
N101 Cu178 1.924 . S
H102 C105 0.980 . S
H103 C105 0.980 1_565 S
H104 C105 0.980 . S
C105 C97 1.481 . S
C105 H102 0.980 . S
C105 H103 0.980 1_545 S
C105 H104 0.980 . S
C106 C99 1.503 . S
C106 H107 0.978 . S
C106 H108 0.978 . S
C106 H109 0.983 . S
H107 C106 0.978 . S
H108 C106 0.978 . S
H109 C106 0.983 . S
C110 H198 0.979 . S
C110 H199 0.981 . S
C110 H200 0.981 . S
C110 O222 1.438 . S
C111 H201 0.980 . S
C111 H202 0.979 . S
C111 H203 0.980 . S
C111 O223 1.533 . S
C112 C113 1.388 . S
C112 N115 1.338 . S
C112 C117 1.503 . S
C113 C112 1.388 . S
C113 C114 1.396 . S
C114 C113 1.396 . S
C114 N116 1.348 . S
C114 C121 1.504 . S
N115 C112 1.338 . S
N115 N116 1.361 . S
N115 Cu176 1.924 . S
N116 C114 1.348 . S
N116 N115 1.361 . S
N116 Cu177 1.964 . S
C117 C112 1.503 . S
C117 H118 0.979 . S
C117 H119 0.979 . S
C117 H120 0.979 . S
H118 C117 0.979 . S
H119 C117 0.979 . S
H120 C117 0.979 . S
C121 C114 1.504 . S
C121 H122 0.981 . S
C121 H123 0.980 . S
C121 H124 0.979 . S
H122 C121 0.981 . S
H123 C121 0.980 . S
H124 C121 0.979 . S
C125 C126 1.402 1_655 S
C125 N128 1.356 . S
C125 C130 1.481 . S
C126 C125 1.402 1_455 S
C126 C127 1.400 . S
C127 C126 1.400 . S
C127 N129 1.325 . S
C127 C134 1.503 . S
N128 C125 1.356 . S
N128 N129 1.365 1_655 S
N128 Cu171 1.941 . S
N129 C127 1.325 . S
N129 N128 1.365 1_455 S
N129 Cu174 1.924 1_455 S
C130 C125 1.481 . S
C130 H131 0.980 . S
C130 H132 0.980 . S
C130 H133 0.980 . S
H131 C130 0.980 . S
H132 C130 0.980 . S
H133 C130 0.980 . S
C134 C127 1.503 . S
C134 H135 0.978 . S
C134 H136 0.978 . S
C134 H137 0.983 . S
H135 C134 0.978 . S
H136 C134 0.978 . S
H137 C134 0.983 . S
C138 H204 0.979 . S
C138 H205 0.981 . S
C138 H206 0.981 . S
C138 O224 1.438 . S
C139 H207 0.980 . S
C139 H208 0.979 . S
C139 H209 0.980 . S
C139 O225 1.533 . S
C140 N141 1.338 . S
C140 C143 1.388 . S
C140 C148 1.503 . S
N141 C140 1.338 . S
N141 N142 1.361 . S
N141 Cu178 1.924 . S
N142 N141 1.361 . S
N142 C144 1.348 . S
N142 Cu179 1.964 . S
C143 C140 1.388 . S
C143 C144 1.396 . S
C144 N142 1.348 . S
C144 C143 1.396 . S
C144 C152 1.504 . S
H145 C148 0.979 . S
H146 C148 0.979 . S
H147 C148 0.979 . S
C148 C140 1.503 . S
C148 H145 0.979 . S
C148 H146 0.979 . S
C148 H147 0.979 . S
H149 C152 0.981 . S
H150 C152 0.980 . S
H151 C152 0.979 . S
C152 C144 1.504 . S
C152 H149 0.981 . S
C152 H150 0.980 . S
C152 H151 0.979 . S
C153 N154 1.356 . S
C153 C156 1.402 . S
C153 C158 1.481 . S
N154 C153 1.356 . S
N154 N155 1.365 . S
N154 Cu173 1.941 . S
N155 N154 1.365 . S
N155 C157 1.325 . S
N155 Cu176 1.924 . S
C156 C153 1.402 . S
C156 C157 1.400 . S
C157 N155 1.325 . S
C157 C156 1.400 . S
C157 C162 1.503 . S
C158 C153 1.481 . S
C158 H159 0.980 1_554 S
C158 H160 0.980 1_554 S
C158 H161 0.980 . S
H159 C158 0.980 1_556 S
H160 C158 0.980 1_556 S
H161 C158 0.980 . S
C162 C157 1.503 . S
C162 H163 0.978 . S
C162 H164 0.978 . S
C162 H165 0.983 . S
H163 C162 0.978 . S
H164 C162 0.978 . S
H165 C162 0.983 . S
C166 H210 0.979 . S
C166 H211 0.981 . S
C166 H212 0.981 . S
C166 O226 1.438 . S
C167 H213 0.980 . S
C167 H214 0.979 . S
C167 H215 0.980 . S
C167 O227 1.533 . S
Cu168 N3 1.924 . S
Cu168 N44 1.924 . S
Cu168 O216 1.923 . S
Cu168 O217 1.930 . S
Cu169 N4 1.964 . S
Cu169 N100 1.941 . S
Cu169 O216 1.905 . S
Cu169 O227 1.920 . S
Cu170 N29 1.924 . S
Cu170 N72 1.924 . S
Cu170 O218 1.923 . S
Cu170 O219 1.930 . S
Cu171 N30 1.964 . S
Cu171 N128 1.941 . S
Cu171 O218 1.905 . S
Cu171 O223 1.920 . S
Cu172 N17 1.924 . S
Cu172 N57 1.924 . S
Cu172 O220 1.923 . S
Cu172 O221 1.930 . S
Cu173 N59 1.964 . S
Cu173 N154 1.941 . S
Cu173 O220 1.905 . S
Cu173 O225 1.920 . S
Cu174 N85 1.924 . S
Cu174 N129 1.924 1_655 S
Cu174 O222 1.923 . S
Cu174 O223 1.930 . S
Cu175 N16 1.941 . S
Cu175 N88 1.964 . S
Cu175 O221 1.920 . S
Cu175 O222 1.905 . S
Cu176 N115 1.924 . S
Cu176 N155 1.924 . S
Cu176 O224 1.923 . S
Cu176 O225 1.930 . S
Cu177 N43 1.941 . S
Cu177 N116 1.964 . S
Cu177 O217 1.920 . S
Cu177 O224 1.905 . S
Cu178 N101 1.924 . S
Cu178 N141 1.924 . S
Cu178 O226 1.923 . S
Cu178 O227 1.930 . S
Cu179 N71 1.941 . S
Cu179 N142 1.964 . S
Cu179 O219 1.920 . S
Cu179 O226 1.905 . S
H180 C26 0.979 . S
H181 C26 0.981 . S
H182 C26 0.981 . S
H183 C27 0.980 . S
H184 C27 0.979 . S
H185 C27 0.980 . S
H186 C54 0.979 . S
H187 C54 0.981 . S
H188 C54 0.981 . S
H189 C55 0.980 . S
H190 C55 0.979 . S
H191 C55 0.980 . S
H192 C82 0.979 . S
H193 C82 0.981 . S
H194 C82 0.981 . S
H195 C83 0.980 . S
H196 C83 0.979 . S
H197 C83 0.980 . S
H198 C110 0.979 . S
H199 C110 0.981 . S
H200 C110 0.981 . S
H201 C111 0.980 . S
H202 C111 0.979 . S
H203 C111 0.980 . S
H204 C138 0.979 . S
H205 C138 0.981 . S
H206 C138 0.981 . S
H207 C139 0.980 . S
H208 C139 0.979 . S
H209 C139 0.980 . S
H210 C166 0.979 . S
H211 C166 0.981 . S
H212 C166 0.981 . S
H213 C167 0.980 . S
H214 C167 0.979 . S
H215 C167 0.980 . S
O216 C26 1.438 . S
O216 Cu168 1.923 . S
O216 Cu169 1.905 . S
O217 C27 1.533 . S
O217 Cu168 1.930 . S
O217 Cu177 1.920 . S
O218 C54 1.438 . S
O218 Cu170 1.923 . S
O218 Cu171 1.905 . S
O219 C55 1.533 . S
O219 Cu170 1.930 . S
O219 Cu179 1.920 . S
O220 C82 1.438 . S
O220 Cu172 1.923 . S
O220 Cu173 1.905 . S
O221 C83 1.533 . S
O221 Cu172 1.930 . S
O221 Cu175 1.920 . S
O222 C110 1.438 . S
O222 Cu174 1.923 . S
O222 Cu175 1.905 . S
O223 C111 1.533 . S
O223 Cu171 1.920 . S
O223 Cu174 1.930 . S
O224 C138 1.438 . S
O224 Cu176 1.923 . S
O224 Cu177 1.905 . S
O225 C139 1.533 . S
O225 Cu173 1.920 . S
O225 Cu176 1.930 . S
O226 C166 1.438 . S
O226 Cu178 1.923 . S
O226 Cu179 1.905 . S
O227 C167 1.533 . S
O227 Cu169 1.920 . S
O227 Cu178 1.930 . S
C228 C229 1.388 . S
C228 N231 1.338 1_655 S
C228 C233 1.503 . S
C229 C228 1.388 . S
C229 C230 1.396 1_655 S
C230 C229 1.396 1_455 S
C230 N232 1.348 . S
C230 C237 1.504 . S
N231 C228 1.338 1_455 S
N231 N232 1.361 . S
N231 Cu396 1.924 . S
N232 C230 1.348 . S
N232 N231 1.361 . S
N232 Cu397 1.964 . S
C233 C228 1.503 . S
C233 H234 0.979 . S
C233 H235 0.979 . S
C233 H236 0.979 . S
H234 C233 0.979 . S
H235 C233 0.979 . S
H236 C233 0.979 . S
C237 C230 1.504 . S
C237 H238 0.981 . S
C237 H239 0.980 . S
C237 H240 0.979 . S
H238 C237 0.981 . S
H239 C237 0.980 . S
H240 C237 0.979 . S
C241 C243 1.402 . S
C241 N244 1.356 . S
C241 C249 1.481 . S
C242 C243 1.400 . S
C242 N245 1.325 . S
C242 C253 1.503 . S
C243 C241 1.402 . S
C243 C242 1.400 . S
N244 C241 1.356 . S
N244 N245 1.365 . S
N244 Cu403 1.941 . S
N245 C242 1.325 . S
N245 N244 1.365 . S
N245 Cu400 1.924 . S
H246 C249 0.980 . S
H247 C249 0.980 1_545 S
H248 C249 0.980 . S
C249 C241 1.481 . S
C249 H246 0.980 . S
C249 H247 0.980 1_565 S
C249 H248 0.980 . S
H250 C253 0.978 . S
H251 C253 0.978 . S
H252 C253 0.983 . S
C253 C242 1.503 . S
C253 H250 0.978 . S
C253 H251 0.978 . S
C253 H252 0.983 . S
C254 H408 0.979 . S
C254 H409 0.981 . S
C254 H410 0.981 . S
C254 O444 1.438 . S
C255 H411 0.980 . S
C255 H412 0.979 . S
C255 H413 0.980 . S
C255 O445 1.533 . S
C256 N257 1.338 . S
C256 C259 1.388 . S
C256 C264 1.503 . S
N257 C256 1.338 . S
N257 N258 1.361 . S
N257 Cu398 1.924 . S
N258 N257 1.361 . S
N258 C260 1.348 . S
N258 Cu399 1.964 . S
C259 C256 1.388 . S
C259 C260 1.396 . S
C260 N258 1.348 . S
C260 C259 1.396 . S
C260 C268 1.504 . S
H261 C264 0.979 . S
H262 C264 0.979 . S
H263 C264 0.979 . S
C264 C256 1.503 . S
C264 H261 0.979 . S
C264 H262 0.979 . S
C264 H263 0.979 . S
H265 C268 0.981 . S
H266 C268 0.980 . S
H267 C268 0.979 . S
C268 C260 1.504 . S
C268 H265 0.981 . S
C268 H266 0.980 . S
C268 H267 0.979 . S
C269 N271 1.356 . S
C269 C273 1.402 1_455 S
C269 C277 1.481 . S
C270 N272 1.325 . S
C270 C273 1.400 . S
C270 C278 1.503 . S
N271 C269 1.356 . S
N271 N272 1.365 1_455 S
N271 Cu405 1.941 . S
N272 C270 1.325 . S
N272 N271 1.365 1_655 S
N272 Cu396 1.924 1_655 S
C273 C269 1.402 1_655 S
C273 C270 1.400 . S
H274 C277 0.980 . S
H275 C277 0.980 . S
H276 C277 0.980 . S
C277 C269 1.481 . S
C277 H274 0.980 . S
C277 H275 0.980 . S
C277 H276 0.980 . S
C278 C270 1.503 . S
C278 H279 0.978 . S
C278 H280 0.978 . S
C278 H281 0.983 . S
H279 C278 0.978 . S
H280 C278 0.978 . S
H281 C278 0.983 . S
C282 H414 0.979 . S
C282 H415 0.981 . S
C282 H416 0.981 . S
C282 O446 1.438 . S
C283 H417 0.980 . S
C283 H418 0.979 . S
C283 H419 0.980 . S
C283 O447 1.533 . S
C284 N285 1.338 . S
C284 C286 1.388 . S
C284 C292 1.503 . S
N285 C284 1.338 . S
N285 N287 1.361 . S
N285 Cu400 1.924 . S
C286 C284 1.388 . S
C286 C288 1.396 . S
N287 N285 1.361 . S
N287 C288 1.348 . S
N287 Cu401 1.964 . S
C288 C286 1.396 . S
C288 N287 1.348 . S
C288 C294 1.504 . S
H289 C292 0.979 . S
H290 C292 0.979 . S
H291 C292 0.979 . S
C292 C284 1.503 . S
C292 H289 0.979 . S
C292 H290 0.979 . S
C292 H291 0.979 . S
H293 C294 0.981 . S
C294 C288 1.504 . S
C294 H293 0.981 . S
C294 H295 0.979 . S
C294 H296 0.980 . S
H295 C294 0.979 . S
H296 C294 0.980 . S
C297 N299 1.356 . S
C297 C301 1.402 . S
C297 C303 1.481 . S
C298 N300 1.325 . S
C298 C301 1.400 . S
C298 C308 1.503 . S
N299 C297 1.356 . S
N299 N300 1.365 . S
N299 Cu407 1.941 . S
N300 C298 1.325 . S
N300 N299 1.365 . S
N300 Cu398 1.924 . S
C301 C297 1.402 . S
C301 C298 1.400 . S
H302 C303 0.980 1_554 S
C303 C297 1.481 . S
C303 H302 0.980 1_556 S
C303 H304 0.980 . S
C303 H305 0.980 1_556 S
H304 C303 0.980 . S
H305 C303 0.980 1_554 S
H306 C308 0.978 . S
H307 C308 0.978 . S
C308 C298 1.503 . S
C308 H306 0.978 . S
C308 H307 0.978 . S
C308 H309 0.983 . S
H309 C308 0.983 . S
C310 H420 0.979 . S
C310 H421 0.981 . S
C310 H422 0.981 . S
C310 O448 1.438 . S
C311 H423 0.980 . S
C311 H424 0.979 . S
C311 H425 0.980 . S
C311 O449 1.533 . S
C312 N313 1.338 . S
C312 C314 1.388 1_565 S
C312 C317 1.503 . S
N313 C312 1.338 . S
N313 N316 1.361 . S
N313 Cu402 1.924 . S
C314 C312 1.388 1_545 S
C314 C315 1.396 1_545 S
C315 C314 1.396 1_565 S
C315 N316 1.348 . S
C315 C321 1.504 1_565 S
N316 N313 1.361 . S
N316 C315 1.348 . S
N316 Cu403 1.964 . S
C317 C312 1.503 . S
C317 H318 0.979 . S
C317 H319 0.979 1_565 S
C317 H320 0.979 . S
H318 C317 0.979 . S
H319 C317 0.979 1_545 S
H320 C317 0.979 . S
C321 C315 1.504 1_545 S
C321 H322 0.981 1_545 S
C321 H323 0.980 . S
C321 H324 0.979 . S
H322 C321 0.981 1_565 S
H323 C321 0.980 . S
H324 C321 0.979 . S
C325 C326 1.402 . S
C325 N328 1.356 . S
C325 C333 1.481 1_455 S
C326 C325 1.402 . S
C326 C327 1.400 . S
C327 C326 1.400 . S
C327 N329 1.325 . S
C327 C334 1.503 . S
N328 C325 1.356 . S
N328 N329 1.365 . S
N328 Cu397 1.941 . S
N329 C327 1.325 . S
N329 N328 1.365 . S
N329 Cu406 1.924 . S
H330 C333 0.980 . S
H331 C333 0.980 . S
H332 C333 0.980 . S
C333 C325 1.481 1_655 S
C333 H330 0.980 . S
C333 H331 0.980 . S
C333 H332 0.980 . S
C334 C327 1.503 . S
C334 H335 0.978 . S
C334 H336 0.978 . S
C334 H337 0.983 . S
H335 C334 0.978 . S
H336 C334 0.978 . S
H337 C334 0.983 . S
C338 H426 0.979 . S
C338 H427 0.981 . S
C338 H428 0.981 . S
C338 O450 1.438 . S
C339 H429 0.980 . S
C339 H430 0.979 . S
C339 H431 0.980 . S
C339 O451 1.533 . S
C340 C341 1.388 . S
C340 N343 1.338 . S
C340 C345 1.503 . S
C341 C340 1.388 . S
C341 C342 1.396 . S
C342 C341 1.396 . S
C342 N344 1.348 . S
C342 C349 1.504 . S
N343 C340 1.338 . S
N343 N344 1.361 . S
N343 Cu404 1.924 . S
N344 C342 1.348 . S
N344 N343 1.361 . S
N344 Cu405 1.964 . S
C345 C340 1.503 . S
C345 H346 0.979 . S
C345 H347 0.979 1_565 S
C345 H348 0.979 1_565 S
H346 C345 0.979 . S
H347 C345 0.979 1_545 S
H348 C345 0.979 1_545 S
C349 C342 1.504 . S
C349 H350 0.981 . S
C349 H351 0.980 . S
C349 H352 0.979 . S
H350 C349 0.981 . S
H351 C349 0.980 . S
H352 C349 0.979 . S
C353 C354 1.402 . S
C353 N356 1.356 . S
C353 C358 1.481 . S
C354 C353 1.402 . S
C354 C355 1.400 . S
C355 C354 1.400 . S
C355 N357 1.325 . S
C355 C362 1.503 . S
N356 C353 1.356 . S
N356 N357 1.365 . S
N356 Cu399 1.941 . S
N357 C355 1.325 . S
N357 N356 1.365 . S
N357 Cu402 1.924 . S
C358 C353 1.481 . S
C358 H359 0.980 . S
C358 H360 0.980 . S
C358 H361 0.980 . S
H359 C358 0.980 . S
H360 C358 0.980 . S
H361 C358 0.980 . S
C362 C355 1.503 . S
C362 H363 0.978 . S
C362 H364 0.978 . S
C362 H365 0.983 . S
H363 C362 0.978 . S
H364 C362 0.978 . S
H365 C362 0.983 . S
C366 H432 0.979 . S
C366 H433 0.981 . S
C366 H434 0.981 . S
C366 O452 1.438 . S
C367 H435 0.980 . S
C367 H436 0.979 . S
C367 H437 0.980 . S
C367 O453 1.533 . S
C368 N369 1.338 . S
C368 C371 1.388 . S
C368 C376 1.503 . S
N369 C368 1.338 . S
N369 N370 1.361 . S
N369 Cu406 1.924 . S
N370 N369 1.361 . S
N370 C372 1.348 . S
N370 Cu407 1.964 . S
C371 C368 1.388 . S
C371 C372 1.396 . S
C372 N370 1.348 . S
C372 C371 1.396 . S
C372 C380 1.504 . S
H373 C376 0.979 . S
H374 C376 0.979 . S
H375 C376 0.979 . S
C376 C368 1.503 . S
C376 H373 0.979 . S
C376 H374 0.979 . S
C376 H375 0.979 . S
H377 C380 0.981 . S
H378 C380 0.980 . S
H379 C380 0.979 . S
C380 C372 1.504 . S
C380 H377 0.981 . S
C380 H378 0.980 . S
C380 H379 0.979 . S
C381 N382 1.356 . S
C381 C384 1.402 . S
C381 C386 1.481 . S
N382 C381 1.356 . S
N382 N383 1.365 . S
N382 Cu401 1.941 . S
N383 N382 1.365 . S
N383 C385 1.325 . S
N383 Cu404 1.924 . S
C384 C381 1.402 . S
C384 C385 1.400 . S
C385 N383 1.325 . S
C385 C384 1.400 . S
C385 C390 1.503 . S
C386 C381 1.481 . S
C386 H387 0.980 . S
C386 H388 0.980 . S
C386 H389 0.980 . S
H387 C386 0.980 . S
H388 C386 0.980 . S
H389 C386 0.980 . S
C390 C385 1.503 . S
C390 H391 0.978 . S
C390 H392 0.978 . S
C390 H393 0.983 . S
H391 C390 0.978 . S
H392 C390 0.978 . S
H393 C390 0.983 . S
C394 H438 0.979 . S
C394 H439 0.981 . S
C394 H440 0.981 . S
C394 O454 1.438 . S
C395 H441 0.980 . S
C395 H442 0.979 . S
C395 H443 0.980 . S
C395 O455 1.533 . S
Cu396 N231 1.924 . S
Cu396 N272 1.924 1_455 S
Cu396 O444 1.923 . S
Cu396 O445 1.930 . S
Cu397 N232 1.964 . S
Cu397 N328 1.941 . S
Cu397 O444 1.905 . S
Cu397 O455 1.920 . S
Cu398 N257 1.924 . S
Cu398 N300 1.924 . S
Cu398 O446 1.923 . S
Cu398 O447 1.930 . S
Cu399 N258 1.964 . S
Cu399 N356 1.941 . S
Cu399 O446 1.905 . S
Cu399 O451 1.920 . S
Cu400 N245 1.924 . S
Cu400 N285 1.924 . S
Cu400 O448 1.923 . S
Cu400 O449 1.930 . S
Cu401 N287 1.964 . S
Cu401 N382 1.941 . S
Cu401 O448 1.905 . S
Cu401 O453 1.920 . S
Cu402 N313 1.924 . S
Cu402 N357 1.924 . S
Cu402 O450 1.923 . S
Cu402 O451 1.930 . S
Cu403 N244 1.941 . S
Cu403 N316 1.964 . S
Cu403 O449 1.920 . S
Cu403 O450 1.905 . S
Cu404 N343 1.924 . S
Cu404 N383 1.924 . S
Cu404 O452 1.923 . S
Cu404 O453 1.930 . S
Cu405 N271 1.941 . S
Cu405 N344 1.964 . S
Cu405 O445 1.920 . S
Cu405 O452 1.905 . S
Cu406 N329 1.924 . S
Cu406 N369 1.924 . S
Cu406 O454 1.923 . S
Cu406 O455 1.930 . S
Cu407 N299 1.941 . S
Cu407 N370 1.964 . S
Cu407 O447 1.920 . S
Cu407 O454 1.905 . S
H408 C254 0.979 . S
H409 C254 0.981 . S
H410 C254 0.981 . S
H411 C255 0.980 . S
H412 C255 0.979 . S
H413 C255 0.980 . S
H414 C282 0.979 . S
H415 C282 0.981 . S
H416 C282 0.981 . S
H417 C283 0.980 . S
H418 C283 0.979 . S
H419 C283 0.980 . S
H420 C310 0.979 . S
H421 C310 0.981 . S
H422 C310 0.981 . S
H423 C311 0.980 . S
H424 C311 0.979 . S
H425 C311 0.980 . S
H426 C338 0.979 . S
H427 C338 0.981 . S
H428 C338 0.981 . S
H429 C339 0.980 . S
H430 C339 0.979 . S
H431 C339 0.980 . S
H432 C366 0.979 . S
H433 C366 0.981 . S
H434 C366 0.981 . S
H435 C367 0.980 . S
H436 C367 0.979 . S
H437 C367 0.980 . S
H438 C394 0.979 . S
H439 C394 0.981 . S
H440 C394 0.981 . S
H441 C395 0.980 . S
H442 C395 0.979 . S
H443 C395 0.980 . S
O444 C254 1.438 . S
O444 Cu396 1.923 . S
O444 Cu397 1.905 . S
O445 C255 1.533 . S
O445 Cu396 1.930 . S
O445 Cu405 1.920 . S
O446 C282 1.438 . S
O446 Cu398 1.923 . S
O446 Cu399 1.905 . S
O447 C283 1.533 . S
O447 Cu398 1.930 . S
O447 Cu407 1.920 . S
O448 C310 1.438 . S
O448 Cu400 1.923 . S
O448 Cu401 1.905 . S
O449 C311 1.533 . S
O449 Cu400 1.930 . S
O449 Cu403 1.920 . S
O450 C338 1.438 . S
O450 Cu402 1.923 . S
O450 Cu403 1.905 . S
O451 C339 1.533 . S
O451 Cu399 1.920 . S
O451 Cu402 1.930 . S
O452 C366 1.438 . S
O452 Cu404 1.923 . S
O452 Cu405 1.905 . S
O453 C367 1.533 . S
O453 Cu401 1.920 . S
O453 Cu404 1.930 . S
O454 C394 1.438 . S
O454 Cu406 1.923 . S
O454 Cu407 1.905 . S
O455 C395 1.533 . S
O455 Cu397 1.920 . S
O455 Cu406 1.930 . S
C456 C457 1.363 1_545 S
C456 C462 1.379 1_556 S
C456 N464 1.356 . S
C457 C456 1.363 1_565 S
C457 C463 1.363 . S
C458 C459 1.363 1_565 S
C458 C463 1.379 1_554 S
C458 N465 1.356 . S
C459 C458 1.363 1_545 S
C459 C462 1.363 . S
N460 C462 1.356 . S
N460 H472 0.984 . S
N460 H473 0.985 . S
N461 C463 1.356 . S
N461 H466 0.984 . S
N461 H467 0.985 . S
C462 C456 1.379 1_554 S
C462 C459 1.363 . S
C462 N460 1.356 . S
C463 C457 1.363 . S
C463 C458 1.379 1_556 S
C463 N461 1.356 . S
N464 C456 1.356 . S
N464 H470 0.984 . S
N464 H471 0.984 1_545 S
N465 C458 1.356 . S
N465 H468 0.984 1_565 S
N465 H469 0.985 . S
H466 N461 0.984 . S
H467 N461 0.985 . S
H468 N465 0.984 1_545 S
H469 N465 0.985 . S
H470 N464 0.984 . S
H471 N464 0.984 1_565 S
H472 N460 0.984 . S
H473 N460 0.985 . S
C474 C475 1.363 . S
C474 C480 1.379 . S
C474 N482 1.356 . S
C475 C474 1.363 . S
C475 C481 1.363 . S
C476 C477 1.363 . S
C476 C481 1.379 . S
C476 N483 1.356 . S
C477 C476 1.363 . S
C477 C480 1.363 . S
N478 C480 1.356 . S
N478 H490 0.984 . S
N478 H491 0.985 . S
N479 C481 1.356 . S
N479 H484 0.984 . S
N479 H485 0.985 . S
C480 C474 1.379 . S
C480 C477 1.363 . S
C480 N478 1.356 . S
C481 C475 1.363 . S
C481 C476 1.379 . S
C481 N479 1.356 . S
N482 C474 1.356 . S
N482 H488 0.984 . S
N482 H489 0.984 . S
N483 C476 1.356 . S
N483 H486 0.984 . S
N483 H487 0.985 . S
H484 N479 0.984 . S
H485 N479 0.985 . S
H486 N483 0.984 . S
H487 N483 0.985 . S
H488 N482 0.984 . S
H489 N482 0.984 . S
H490 N478 0.984 . S
H491 N478 0.985 . S
C492 C493 1.363 1_655 S
C492 C498 1.379 . S
C492 N500 1.356 . S
C493 C492 1.363 1_455 S
C493 C499 1.363 1_554 S
C494 C495 1.363 1_455 S
C494 C499 1.379 . S
C494 N501 1.356 . S
C495 C494 1.363 1_655 S
C495 C498 1.363 1_556 S
N496 C498 1.356 . S
N496 H508 0.984 . S
N496 H509 0.985 1_554 S
N497 C499 1.356 . S
N497 H502 0.984 1_556 S
N497 H503 0.985 . S
C498 C492 1.379 . S
C498 C495 1.363 1_554 S
C498 N496 1.356 . S
C499 C493 1.363 1_556 S
C499 C494 1.379 . S
C499 N497 1.356 . S
N500 C492 1.356 . S
N500 H506 0.984 . S
N500 H507 0.983 . S
N501 C494 1.356 . S
N501 H504 0.982 . S
N501 H505 0.985 . S
H502 N497 0.984 1_554 S
H503 N497 0.985 . S
H504 N501 0.982 . S
H505 N501 0.985 . S
H506 N500 0.984 . S
H507 N500 0.983 . S
H508 N496 0.984 . S
H509 N496 0.985 1_556 S
C510 C511 1.363 1_545 S
C510 C516 1.379 . S
C510 N518 1.356 . S
C511 C510 1.363 1_565 S
C511 C517 1.363 . S
C512 C513 1.363 1_565 S
C512 C517 1.379 . S
C512 N519 1.356 . S
C513 C512 1.363 1_545 S
C513 C516 1.363 . S
N514 C516 1.356 . S
N514 H526 0.984 . S
N514 H527 0.985 . S
N515 C517 1.356 . S
N515 H520 0.984 . S
N515 H521 0.985 . S
C516 C510 1.379 . S
C516 C513 1.363 . S
C516 N514 1.356 . S
C517 C511 1.363 . S
C517 C512 1.379 . S
C517 N515 1.356 . S
N518 C510 1.356 . S
N518 H524 0.984 . S
N518 H525 0.986 . S
N519 C512 1.356 . S
N519 H522 0.986 . S
N519 H523 0.985 . S
H520 N515 0.984 . S
H521 N515 0.985 . S
H522 N519 0.986 . S
H523 N519 0.985 . S
H524 N518 0.984 . S
H525 N518 0.986 . S
H526 N514 0.984 . S
H527 N514 0.985 . S
C528 C529 1.363 . S
C528 C534 1.379 . S
C528 N536 1.356 . S
C529 C528 1.363 . S
C529 C535 1.363 1_554 S
C530 C531 1.363 . S
C530 C535 1.379 . S
C530 N537 1.356 . S
C531 C530 1.363 . S
C531 C534 1.363 1_556 S
N532 C534 1.356 . S
N532 H544 0.984 . S
N532 H545 0.985 . S
N533 C535 1.356 . S
N533 H538 0.984 . S
N533 H539 0.985 . S
C534 C528 1.379 . S
C534 C531 1.363 1_554 S
C534 N532 1.356 . S
C535 C529 1.363 1_556 S
C535 C530 1.379 . S
C535 N533 1.356 . S
N536 C528 1.356 . S
N536 H542 0.984 . S
N536 H543 0.984 . S
N537 C530 1.356 . S
N537 H540 0.984 . S
N537 H541 0.985 . S
H538 N533 0.984 . S
H539 N533 0.985 . S
H540 N537 0.984 . S
H541 N537 0.985 . S
H542 N536 0.984 . S
H543 N536 0.984 . S
H544 N532 0.984 . S
H545 N532 0.985 . S
C546 C547 1.363 . S
C546 C552 1.379 1_655 S
C546 N554 1.356 . S
C547 C546 1.363 . S
C547 C553 1.363 . S
C548 C549 1.363 . S
C548 C553 1.379 1_455 S
C548 N555 1.356 . S
C549 C548 1.363 . S
C549 C552 1.363 . S
N550 C552 1.356 . S
N550 H562 0.984 . S
N550 H563 0.985 . S
N551 C553 1.356 . S
N551 H556 0.984 . S
N551 H557 0.985 . S
C552 C546 1.379 1_455 S
C552 C549 1.363 . S
C552 N550 1.356 . S
C553 C547 1.363 . S
C553 C548 1.379 1_655 S
C553 N551 1.356 . S
N554 C546 1.356 . S
N554 H560 0.984 . S
N554 H561 0.984 . S
N555 C548 1.356 . S
N555 H558 0.984 . S
N555 H559 0.985 . S
H556 N551 0.984 . S
H557 N551 0.985 . S
H558 N555 0.984 . S
H559 N555 0.985 . S
H560 N554 0.984 . S
H561 N554 0.984 . S
H562 N550 0.984 . S
H563 N550 0.985 . S
C564 C565 1.363 . S
C564 C570 1.379 . S
C564 N572 1.356 . S
C565 C564 1.363 . S
C565 C571 1.363 . S
C566 C567 1.363 . S
C566 C571 1.379 . S
C566 N573 1.356 . S
C567 C566 1.363 . S
C567 C570 1.363 . S
N568 C570 1.356 . S
N568 H580 0.984 . S
N568 H581 0.985 . S
N569 C571 1.356 . S
N569 H574 0.984 1_565 S
N569 H575 0.985 . S
C570 C564 1.379 . S
C570 C567 1.363 . S
C570 N568 1.356 . S
C571 C565 1.363 . S
C571 C566 1.379 . S
C571 N569 1.356 . S
N572 C564 1.356 . S
N572 H578 0.984 . S
N572 H579 0.984 . S
N573 C566 1.356 . S
N573 H576 0.984 . S
N573 H577 0.985 . S
H574 N569 0.984 1_545 S
H575 N569 0.985 . S
H576 N573 0.984 . S
H577 N573 0.985 . S
H578 N572 0.984 . S
H579 N572 0.984 . S
H580 N568 0.984 . S
H581 N568 0.985 . S
C582 C583 1.363 . S
C582 C588 1.379 . S
C582 N590 1.356 . S
C583 C582 1.363 . S
C583 C589 1.363 . S
C584 C585 1.363 . S
C584 C589 1.379 . S
C584 N591 1.356 . S
C585 C584 1.363 . S
C585 C588 1.363 . S
N586 C588 1.356 . S
N586 H598 0.984 . S
N586 H599 0.985 . S
N587 C589 1.356 . S
N587 H592 0.984 . S
N587 H593 0.985 . S
C588 C582 1.379 . S
C588 C585 1.363 . S
C588 N586 1.356 . S
C589 C583 1.363 . S
C589 C584 1.379 . S
C589 N587 1.356 . S
N590 C582 1.356 . S
N590 H596 0.984 . S
N590 H597 0.984 . S
N591 C584 1.356 . S
N591 H594 0.984 . S
N591 H595 0.985 . S
H592 N587 0.984 . S
H593 N587 0.985 . S
H594 N591 0.984 . S
H595 N591 0.985 . S
H596 N590 0.984 . S
H597 N590 0.984 . S
H598 N586 0.984 . S
H599 N586 0.985 . S
C600 C601 1.363 . S
C600 C606 1.379 . S
C600 N608 1.356 . S
C601 C600 1.363 . S
C601 C607 1.363 . S
C602 C603 1.363 . S
C602 C607 1.379 . S
C602 N609 1.356 . S
C603 C602 1.363 . S
C603 C606 1.363 . S
N604 C606 1.356 . S
N604 H616 0.984 . S
N604 H617 0.985 . S
N605 C607 1.356 1_545 S
N605 H610 0.984 . S
N605 H611 0.985 . S
C606 C600 1.379 . S
C606 C603 1.363 . S
C606 N604 1.356 . S
C607 C601 1.363 . S
C607 C602 1.379 . S
C607 N605 1.356 1_565 S
N608 C600 1.356 . S
N608 H614 0.984 . S
N608 H615 0.984 . S
N609 C602 1.356 . S
N609 H612 0.984 . S
N609 H613 0.985 . S
H610 N605 0.984 . S
H611 N605 0.985 . S
H612 N609 0.984 . S
H613 N609 0.985 . S
H614 N608 0.984 . S
H615 N608 0.984 . S
H616 N604 0.984 . S
H617 N604 0.985 . S
C618 C619 1.363 . S
C618 C624 1.379 . S
C618 N626 1.356 . S
C619 C618 1.363 . S
C619 C625 1.363 . S
C620 C621 1.363 . S
C620 C625 1.379 . S
C620 N627 1.356 . S
C621 C620 1.363 . S
C621 C624 1.363 . S
N622 C624 1.356 . S
N622 H634 0.984 . S
N622 H635 0.985 . S
N623 C625 1.356 . S
N623 H628 0.984 . S
N623 H629 0.985 . S
C624 C618 1.379 . S
C624 C621 1.363 . S
C624 N622 1.356 . S
C625 C619 1.363 . S
C625 C620 1.379 . S
C625 N623 1.356 . S
N626 C618 1.356 . S
N626 H632 0.984 . S
N626 H633 0.984 . S
N627 C620 1.356 . S
N627 H630 0.984 1_545 S
N627 H631 0.985 . S
H628 N623 0.984 . S
H629 N623 0.985 . S
H630 N627 0.984 1_565 S
H631 N627 0.985 . S
H632 N626 0.984 . S
H633 N626 0.984 . S
H634 N622 0.984 . S
H635 N622 0.985 . S
C636 C637 1.363 . S
C636 C642 1.379 . S
C636 N644 1.356 . S
C637 C636 1.363 . S
C637 C643 1.363 . S
C638 C639 1.363 . S
C638 C643 1.379 . S
C638 N645 1.356 . S
C639 C638 1.363 . S
C639 C642 1.363 . S
N640 C642 1.356 . S
N640 H652 0.984 . S
N640 H653 0.985 . S
N641 C643 1.356 . S
N641 H646 0.984 . S
N641 H647 0.985 . S
C642 C636 1.379 . S
C642 C639 1.363 . S
C642 N640 1.356 . S
C643 C637 1.363 . S
C643 C638 1.379 . S
C643 N641 1.356 . S
N644 C636 1.356 . S
N644 H650 0.984 . S
N644 H651 0.984 . S
N645 C638 1.356 . S
N645 H648 0.984 . S
N645 H649 0.985 . S
H646 N641 0.984 . S
H647 N641 0.985 . S
H648 N645 0.984 . S
H649 N645 0.985 . S
H650 N644 0.984 . S
H651 N644 0.984 . S
H652 N640 0.984 . S
H653 N640 0.985 . S
C654 C655 1.363 . S
C654 C660 1.379 . S
C654 N662 1.356 . S
C655 C654 1.363 . S
C655 C661 1.363 . S
C656 C657 1.363 . S
C656 C661 1.379 . S
C656 N663 1.356 1_545 S
C657 C656 1.363 . S
C657 C660 1.363 . S
N658 C660 1.356 . S
N658 H670 0.984 . S
N658 H671 0.985 . S
N659 C661 1.356 . S
N659 H664 0.984 . S
N659 H665 0.985 . S
C660 C654 1.379 . S
C660 C657 1.363 . S
C660 N658 1.356 . S
C661 C655 1.363 . S
C661 C656 1.379 . S
C661 N659 1.356 . S
N662 C654 1.356 . S
N662 H668 0.984 . S
N662 H669 0.984 . S
N663 C656 1.356 1_565 S
N663 H666 0.984 . S
N663 H667 0.985 . S
H664 N659 0.984 . S
H665 N659 0.985 . S
H666 N663 0.984 . S
H667 N663 0.985 . S
H668 N662 0.984 . S
H669 N662 0.984 . S
H670 N658 0.984 . S
H671 N658 0.985 . S
C457 C371 1.842 . S
C459 C58 1.842 . S
C475 C286 4.068 . S
C477 C143 4.068 . S
C493 C15 1.984 1_455 S
C495 C326 1.984 1_655 S
C511 C243 3.812 . S
C513 C98 3.812 . S
C529 C156 2.009 . S
C531 C301 2.009 . S
C547 C73 1.408 . S
C549 C384 1.408 . S
C565 C31 1.585 1_565 S
C567 C113 1.585 . S
C583 C273 0.976 . S
C585 C354 0.976 . S
C601 C1 1.604 . S
C603 C86 1.604 . S
C619 C259 1.585 . S
C621 C341 1.585 1_545 S
C637 C45 0.976 . S
C639 C126 0.976 . S
C655 C229 1.604 . S
C657 C314 1.604 . S
