# Generated by pormake.
# Topology lcs, (4)-cn, num edge types: 1
# Building blocks:
#     Node 0, Type 0, BuildingBlock: NAHDIM_clean_sbu_0, # of connection points: 4
#     Node 1, Type 0, BuildingBlock: NAHDIM_clean_sbu_0, # of connection points: 4
#     Node 2, Type 0, BuildingBlock: NAHDIM_clean_sbu_0, # of connection points: 4
#     Node 3, Type 0, BuildingBlock: NAHDIM_clean_sbu_0, # of connection points: 4
#     Node 4, Type 0, BuildingBlock: NAHDIM_clean_sbu_0, # of connection points: 4
#     Node 5, Type 0, BuildingBlock: NAHDIM_clean_sbu_0, # of connection points: 4
#     Node 6, Type 0, BuildingBlock: NAHDIM_clean_sbu_0, # of connection points: 4
#     Node 7, Type 0, BuildingBlock: NAHDIM_clean_sbu_0, # of connection points: 4
#     Node 8, Type 0, BuildingBlock: NAHDIM_clean_sbu_0, # of connection points: 4
#     Node 9, Type 0, BuildingBlock: NAHDIM_clean_sbu_0, # of connection points: 4
#     Node 10, Type 0, BuildingBlock: NAHDIM_clean_sbu_0, # of connection points: 4
#     Node 11, Type 0, BuildingBlock: NAHDIM_clean_sbu_0, # of connection points: 4
#     Node 12, Type 0, BuildingBlock: NAHDIM_clean_sbu_0, # of connection points: 4
#     Node 13, Type 0, BuildingBlock: NAHDIM_clean_sbu_0, # of connection points: 4
#     Node 14, Type 0, BuildingBlock: NAHDIM_clean_sbu_0, # of connection points: 4
#     Node 15, Type 0, BuildingBlock: NAHDIM_clean_sbu_0, # of connection points: 4
#     Node 16, Type 0, BuildingBlock: NAHDIM_clean_sbu_0, # of connection points: 4
#     Node 17, Type 0, BuildingBlock: NAHDIM_clean_sbu_0, # of connection points: 4
#     Node 18, Type 0, BuildingBlock: NAHDIM_clean_sbu_0, # of connection points: 4
#     Node 19, Type 0, BuildingBlock: NAHDIM_clean_sbu_0, # of connection points: 4
#     Node 20, Type 0, BuildingBlock: NAHDIM_clean_sbu_0, # of connection points: 4
#     Node 21, Type 0, BuildingBlock: NAHDIM_clean_sbu_0, # of connection points: 4
#     Node 22, Type 0, BuildingBlock: NAHDIM_clean_sbu_0, # of connection points: 4
#     Node 23, Type 0, BuildingBlock: NAHDIM_clean_sbu_0, # of connection points: 4
#     Edge 24, Type (0, 0), BuildingBlock: CIFDUS_clean_linker_0, # of connection points: 2
#     Edge 25, Type (0, 0), BuildingBlock: CIFDUS_clean_linker_0, # of connection points: 2
#     Edge 26, Type (0, 0), BuildingBlock: CIFDUS_clean_linker_0, # of connection points: 2
#     Edge 27, Type (0, 0), BuildingBlock: CIFDUS_clean_linker_0, # of connection points: 2
#     Edge 28, Type (0, 0), BuildingBlock: CIFDUS_clean_linker_0, # of connection points: 2
#     Edge 29, Type (0, 0), BuildingBlock: CIFDUS_clean_linker_0, # of connection points: 2
#     Edge 30, Type (0, 0), BuildingBlock: CIFDUS_clean_linker_0, # of connection points: 2
#     Edge 31, Type (0, 0), BuildingBlock: CIFDUS_clean_linker_0, # of connection points: 2
#     Edge 32, Type (0, 0), BuildingBlock: CIFDUS_clean_linker_0, # of connection points: 2
#     Edge 33, Type (0, 0), BuildingBlock: CIFDUS_clean_linker_0, # of connection points: 2
#     Edge 34, Type (0, 0), BuildingBlock: CIFDUS_clean_linker_0, # of connection points: 2
#     Edge 35, Type (0, 0), BuildingBlock: CIFDUS_clean_linker_0, # of connection points: 2
#     Edge 36, Type (0, 0), BuildingBlock: CIFDUS_clean_linker_0, # of connection points: 2
#     Edge 37, Type (0, 0), BuildingBlock: CIFDUS_clean_linker_0, # of connection points: 2
#     Edge 38, Type (0, 0), BuildingBlock: CIFDUS_clean_linker_0, # of connection points: 2
#     Edge 39, Type (0, 0), BuildingBlock: CIFDUS_clean_linker_0, # of connection points: 2
#     Edge 40, Type (0, 0), BuildingBlock: CIFDUS_clean_linker_0, # of connection points: 2
#     Edge 41, Type (0, 0), BuildingBlock: CIFDUS_clean_linker_0, # of connection points: 2
#     Edge 42, Type (0, 0), BuildingBlock: CIFDUS_clean_linker_0, # of connection points: 2
#     Edge 43, Type (0, 0), BuildingBlock: CIFDUS_clean_linker_0, # of connection points: 2
#     Edge 44, Type (0, 0), BuildingBlock: CIFDUS_clean_linker_0, # of connection points: 2
#     Edge 45, Type (0, 0), BuildingBlock: CIFDUS_clean_linker_0, # of connection points: 2
#     Edge 46, Type (0, 0), BuildingBlock: CIFDUS_clean_linker_0, # of connection points: 2
#     Edge 47, Type (0, 0), BuildingBlock: CIFDUS_clean_linker_0, # of connection points: 2
#     Edge 48, Type (0, 0), BuildingBlock: CIFDUS_clean_linker_0, # of connection points: 2
#     Edge 49, Type (0, 0), BuildingBlock: CIFDUS_clean_linker_0, # of connection points: 2
#     Edge 50, Type (0, 0), BuildingBlock: CIFDUS_clean_linker_0, # of connection points: 2
#     Edge 51, Type (0, 0), BuildingBlock: CIFDUS_clean_linker_0, # of connection points: 2
#     Edge 52, Type (0, 0), BuildingBlock: CIFDUS_clean_linker_0, # of connection points: 2
#     Edge 53, Type (0, 0), BuildingBlock: CIFDUS_clean_linker_0, # of connection points: 2
#     Edge 54, Type (0, 0), BuildingBlock: CIFDUS_clean_linker_0, # of connection points: 2
#     Edge 55, Type (0, 0), BuildingBlock: CIFDUS_clean_linker_0, # of connection points: 2
#     Edge 56, Type (0, 0), BuildingBlock: CIFDUS_clean_linker_0, # of connection points: 2
#     Edge 57, Type (0, 0), BuildingBlock: CIFDUS_clean_linker_0, # of connection points: 2
#     Edge 58, Type (0, 0), BuildingBlock: CIFDUS_clean_linker_0, # of connection points: 2
#     Edge 59, Type (0, 0), BuildingBlock: CIFDUS_clean_linker_0, # of connection points: 2
#     Edge 60, Type (0, 0), BuildingBlock: CIFDUS_clean_linker_0, # of connection points: 2
#     Edge 61, Type (0, 0), BuildingBlock: CIFDUS_clean_linker_0, # of connection points: 2
#     Edge 62, Type (0, 0), BuildingBlock: CIFDUS_clean_linker_0, # of connection points: 2
#     Edge 63, Type (0, 0), BuildingBlock: CIFDUS_clean_linker_0, # of connection points: 2
#     Edge 64, Type (0, 0), BuildingBlock: CIFDUS_clean_linker_0, # of connection points: 2
#     Edge 65, Type (0, 0), BuildingBlock: CIFDUS_clean_linker_0, # of connection points: 2
#     Edge 66, Type (0, 0), BuildingBlock: CIFDUS_clean_linker_0, # of connection points: 2
#     Edge 67, Type (0, 0), BuildingBlock: CIFDUS_clean_linker_0, # of connection points: 2
#     Edge 68, Type (0, 0), BuildingBlock: CIFDUS_clean_linker_0, # of connection points: 2
#     Edge 69, Type (0, 0), BuildingBlock: CIFDUS_clean_linker_0, # of connection points: 2
#     Edge 70, Type (0, 0), BuildingBlock: CIFDUS_clean_linker_0, # of connection points: 2
#     Edge 71, Type (0, 0), BuildingBlock: CIFDUS_clean_linker_0, # of connection points: 2
# Relax obj value: 0.090
# Max RMSD: 0.163
# Mean RMSD: 0.151
data_MOF--net-lcs--node1-NAHDIM_clean_sbu_0--edge1-CIFDUS_clean_linker_0
_symmetry_space_group_name_H-M    P1
_symmetry_Int_Tables_number       1
_symmetry_cell_setting            triclinic
loop_
_symmetry_equiv_pos_as_xyz
'x, y, z'
_cell_length_a     44.027651
_cell_length_b     42.390939
_cell_length_c     42.411071
_cell_angle_alpha  91.761783
_cell_angle_beta   90.599538
_cell_angle_gamma 91.216662
loop_
_atom_site_label
_atom_site_type_symbol
_atom_site_fract_x
_atom_site_fract_y
_atom_site_fract_z
_atom_type_partial_charge
C0 C 0.91838 0.27243 0.40207 0.0
O1 O 0.91632 0.25945 0.37361 0.0
O2 O 0.97285 0.22104 0.36658 0.0
Zn3 Zn 0.98175 0.2611 0.39208 0.0
O4 O 0.99686 0.2949 0.36375 0.0
C5 C 0.01893 0.22445 0.43222 0.0
O6 O 0.99747 0.20317 0.4257 0.0
O7 O 0.94438 0.27553 0.4153 0.0
C8 C 0.02101 0.28917 0.34868 0.0
O9 O 0.03357 0.26154 0.35151 0.0
C10 C 0.96423 0.21963 0.33788 0.0
O11 O 0.95983 0.24584 0.32288 0.0
O12 O 0.0162 0.25208 0.4219 0.0
C13 C 0.08435 0.73266 0.63428 0.0
O14 O 0.08208 0.73759 0.6649 0.0
O15 O 0.01 0.70859 0.66557 0.0
Zn16 Zn 0.02253 0.74616 0.64046 0.0
O17 O 0.03296 0.78372 0.66923 0.0
C18 C 0.96091 0.75281 0.62046 0.0
O19 O 0.95657 0.74165 0.64865 0.0
O20 O 0.0607 0.73499 0.61709 0.0
C21 C 0.01816 0.80914 0.67052 0.0
O22 O 0.99364 0.81157 0.65295 0.0
C23 C 0.00634 0.70926 0.69527 0.0
O24 O 0.01132 0.7358 0.71147 0.0
O25 O 0.988 0.75665 0.61085 0.0
C26 C 0.44298 0.79334 0.88613 0.0
O27 O 0.44421 0.79829 0.85575 0.0
O28 O 0.48749 0.7252 0.84907 0.0
Zn29 Zn 0.49979 0.76556 0.87282 0.0
O30 O 0.51126 0.80142 0.84486 0.0
C31 C 0.56182 0.75575 0.89127 0.0
O32 O 0.56662 0.76128 0.86142 0.0
O33 O 0.46473 0.7794 0.89932 0.0
C34 C 0.52279 0.79908 0.81758 0.0
O35 O 0.52775 0.77098 0.805 0.0
C36 C 0.47054 0.72348 0.82461 0.0
O37 O 0.46118 0.74959 0.81214 0.0
O38 O 0.53487 0.75654 0.90164 0.0
C39 C 0.56734 0.21365 0.12653 0.0
O40 O 0.5671 0.21392 0.15752 0.0
O41 O 0.50072 0.21275 0.17014 0.0
Zn42 Zn 0.5147 0.24609 0.14056 0.0
O43 O 0.53437 0.2831 0.16412 0.0
C44 C 0.4563 0.24495 0.10694 0.0
O45 O 0.45659 0.21431 0.11076 0.0
O46 O 0.54592 0.22688 0.11201 0.0
C47 C 0.51904 0.30664 0.1734 0.0
O48 O 0.48943 0.30594 0.1691 0.0
C49 C 0.47681 0.21518 0.18644 0.0
O50 O 0.46098 0.24103 0.18508 0.0
O51 O 0.47889 0.26194 0.11646 0.0
C52 C 0.07803 0.75743 0.09837 0.0
O53 O 0.07845 0.75332 0.12895 0.0
O54 O 0.02631 0.71931 0.14463 0.0
Zn55 Zn 0.01568 0.7488 0.10997 0.0
O56 O 0.00347 0.79153 0.12633 0.0
C57 C 0.97925 0.70071 0.07723 0.0
O58 O 0.00185 0.68263 0.08497 0.0
O59 O 0.05274 0.75561 0.08363 0.0
C60 C 0.00253 0.80071 0.15507 0.0
O61 O 0.00961 0.78109 0.17723 0.0
C62 C 0.00768 0.70115 0.15834 0.0
O63 O 0.97854 0.70246 0.15162 0.0
O64 O 0.9809 0.73002 0.08432 0.0
C65 C 0.45544 0.73902 0.38845 0.0
O66 O 0.45605 0.74141 0.35764 0.0
O67 O 0.52396 0.72193 0.34892 0.0
Zn68 Zn 0.51436 0.75935 0.37717 0.0
O69 O 0.49854 0.79618 0.35358 0.0
C70 C 0.57739 0.77104 0.38933 0.0
O71 O 0.57812 0.76315 0.35916 0.0
O72 O 0.47957 0.74558 0.40431 0.0
C73 C 0.51252 0.81994 0.34268 0.0
O74 O 0.5423 0.82182 0.34448 0.0
C75 C 0.53123 0.72183 0.32001 0.0
O76 O 0.53254 0.74857 0.30516 0.0
O77 O 0.55185 0.77166 0.40308 0.0
C78 C 0.54343 0.27779 0.61555 0.0
O79 O 0.54846 0.27083 0.64511 0.0
O80 O 0.50649 0.22101 0.65562 0.0
Zn81 Zn 0.48642 0.25829 0.63593 0.0
O82 O 0.47834 0.29449 0.66676 0.0
C83 C 0.43064 0.22337 0.62893 0.0
O84 O 0.44186 0.21059 0.65422 0.0
O85 O 0.51654 0.27465 0.60445 0.0
C86 C 0.45616 0.29457 0.68573 0.0
O87 O 0.43886 0.26911 0.68756 0.0
C88 C 0.50581 0.21128 0.68367 0.0
O89 O 0.48968 0.22622 0.70505 0.0
O90 O 0.44635 0.24427 0.61518 0.0
C91 C 0.93552 0.22711 0.91946 0.0
O92 O 0.93012 0.23118 0.88934 0.0
O93 O 0.00935 0.22024 0.87479 0.0
Zn94 Zn 0.99265 0.25477 0.90283 0.0
O95 O 0.97386 0.28791 0.8765 0.0
C96 C 0.0529 0.26449 0.93082 0.0
O97 O 0.05871 0.2377 0.91593 0.0
O98 O 0.96117 0.23584 0.93109 0.0
C99 C 0.99081 0.30654 0.86125 0.0
O100 O 0.02043 0.30361 0.86295 0.0
C101 C 0.00376 0.21685 0.84539 0.0
O102 O 0.98581 0.23671 0.83159 0.0
O103 O 0.02637 0.27561 0.92901 0.0
C104 C 0.39355 0.95352 0.30449 0.0
O105 O 0.36553 0.95527 0.31461 0.0
O106 O 0.35195 0.99724 0.23745 0.0
Zn107 Zn 0.37568 0.01048 0.27679 0.0
O108 O 0.34901 0.02015 0.31421 0.0
C109 C 0.38406 0.07544 0.26522 0.0
O110 O 0.35481 0.07436 0.27096 0.0
O111 O 0.40408 0.97547 0.2877 0.0
C112 C 0.32073 0.02554 0.31325 0.0
O113 O 0.3063 0.02432 0.28596 0.0
C114 C 0.33339 0.9739 0.23527 0.0
O115 O 0.32758 0.95756 0.26039 0.0
O116 O 0.39906 0.05021 0.26675 0.0
C117 C 0.16861 0.14244 0.49442 0.0
O118 O 0.17241 0.11233 0.49941 0.0
O119 O 0.21926 0.11746 0.55169 0.0
Zn120 Zn 0.22947 0.14013 0.51194 0.0
O121 O 0.24285 0.11019 0.47732 0.0
C122 C 0.26934 0.17936 0.55055 0.0
O123 O 0.24946 0.17147 0.57196 0.0
O124 O 0.19133 0.16132 0.4979 0.0
C125 C 0.26861 0.0974 0.47935 0.0
O126 O 0.28525 0.10275 0.50494 0.0
C127 C 0.21781 0.08802 0.55632 0.0
O128 O 0.22354 0.06792 0.53306 0.0
O129 O 0.26446 0.17064 0.52197 0.0
C130 C 0.158 0.00421 0.71061 0.0
O131 O 0.15297 0.97408 0.71535 0.0
O132 O 0.10263 0.04632 0.78777 0.0
Zn133 Zn 0.12683 0.01065 0.76954 0.0
O134 O 0.09983 0.9734 0.75724 0.0
C135 C 0.14447 0.99618 0.83118 0.0
O136 O 0.1158 0.00308 0.83527 0.0
O137 O 0.14942 0.02449 0.73118 0.0
C138 C 0.07406 0.97575 0.74387 0.0
O139 O 0.06353 0.00389 0.73863 0.0
C140 C 0.09124 0.06884 0.77289 0.0
O141 O 0.09423 0.06973 0.74213 0.0
O142 O 0.15551 -0.0025 0.80365 0.0
C143 C 0.29152 0.86255 0.9599 0.0
O144 O 0.2666 0.87081 0.9453 0.0
O145 O 0.27294 0.90754 0.0533 0.0
Zn146 Zn 0.25899 0.88723 0.01214 0.0
O147 O 0.24079 0.91882 0.98367 0.0
C148 C 0.20631 0.84535 0.00248 0.0
O149 O 0.20552 0.85699 0.97414 0.0
O150 O 0.29374 0.86699 0.98962 0.0
C151 C 0.21572 0.93193 0.98941 0.0
O152 O 0.20204 0.92655 0.01617 0.0
C153 C 0.28736 0.93378 0.0557 0.0
O154 O 0.294 0.94895 0.03002 0.0
O155 O 0.22725 0.85441 0.02176 0.0
C156 C 0.31969 0.3538 0.05533 0.0
O157 O 0.31985 0.3847 0.0535 0.0
O158 O 0.24593 0.39273 0.06088 0.0
Zn159 Zn 0.26316 0.36387 0.02714 0.0
O160 O 0.28314 0.3882 0.99286 0.0
C161 C 0.20265 0.34537 0.00782 0.0
O162 O 0.19702 0.37361 0.0197 0.0
O163 O 0.29619 0.33814 0.04596 0.0
C164 C 0.2701 0.40357 0.97154 0.0
O165 O 0.24034 0.40518 0.97109 0.0
C166 C 0.24991 0.42253 0.06248 0.0
O167 O 0.26683 0.43631 0.04136 0.0
O168 O 0.22977 0.33564 0.00839 0.0
C169 C 0.70762 0.1161 0.06083 0.0
O170 O 0.72374 0.09557 0.07596 0.0
O171 O 0.76678 0.06887 0.03975 0.0
Zn172 Zn 0.74422 0.09479 0.00854 0.0
O173 O 0.72241 0.06742 0.97557 0.0
C174 C 0.79825 0.13416 -0.00042 0.0
O175 O 0.80492 0.12633 0.02853 0.0
O176 O 0.71261 0.12022 0.03174 0.0
C177 C 0.73397 0.06234 0.9486 0.0
O178 O 0.76142 0.07345 0.94306 0.0
C179 C 0.77643 0.04097 0.03626 0.0
O180 O 0.77268 0.02576 0.00899 0.0
O181 O 0.7735 0.124 0.98691 0.0
C182 C 0.10262 0.5688 0.24182 0.0
O183 O 0.13011 0.57087 0.25416 0.0
O184 O 0.13684 0.48453 0.22252 0.0
Zn185 Zn 0.11077 0.50432 0.25632 0.0
O186 O 0.13542 0.51827 0.29463 0.0
C187 C 0.09188 0.4437 0.27355 0.0
O188 O 0.12071 0.43934 0.2674 0.0
O189 O 0.08905 0.54201 0.23993 0.0
C190 C 0.16412 0.51725 0.29761 0.0
O191 O 0.18033 0.50593 0.2742 0.0
C192 C 0.153 0.49877 0.20253 0.0
O193 O 0.15398 0.52976 0.20294 0.0
O194 O 0.08105 0.47097 0.2702 0.0
C195 C 0.80466 0.8121 0.54849 0.0
O196 O 0.77806 0.81333 0.56219 0.0
O197 O 0.76145 0.88422 0.53818 0.0
Zn198 Zn 0.77629 0.8539 0.50485 0.0
O199 O 0.7944 0.87866 0.46999 0.0
C200 C 0.71609 0.82509 0.5027 0.0
O201 O 0.71523 0.83597 0.53201 0.0
O202 O 0.80872 0.82677 0.52314 0.0
C203 C 0.77772 0.89299 0.45068 0.0
O204 O 0.74807 0.8917 0.45387 0.0
C205 C 0.77864 0.89743 0.55914 0.0
O206 O 0.80782 0.89158 0.55919 0.0
O207 O 0.74039 0.82859 0.48712 0.0
C208 C 0.85354 0.98857 0.19714 0.0
O209 O 0.86473 0.9601 0.19535 0.0
O210 O 0.91604 0.96245 0.24647 0.0
Zn211 Zn 0.88705 0.99683 0.25777 0.0
O212 O 0.90886 0.03747 0.27039 0.0
C213 C 0.87862 0.96987 0.31674 0.0
O214 O 0.90824 0.96876 0.31384 0.0
O215 O 0.85953 0.00637 0.22119 0.0
C216 C 0.93457 0.04001 0.28421 0.0
O217 O 0.94954 0.01449 0.29064 0.0
C218 C 0.93209 0.96045 0.22185 0.0
O219 O 0.93102 0.98287 0.20118 0.0
O220 O 0.86306 0.98177 0.29483 0.0
C221 C 0.22862 0.67283 0.5386 0.0
O222 O 0.25278 0.671 0.55685 0.0
O223 O 0.28448 0.61139 0.52621 0.0
Zn224 Zn 0.26459 0.63702 0.49307 0.0
O225 O 0.24855 0.60853 0.45786 0.0
C226 C 0.31854 0.6766 0.49323 0.0
O227 O 0.31857 0.67061 0.52344 0.0
O228 O 0.22918 0.6609 0.51077 0.0
C229 C 0.26545 0.59624 0.43693 0.0
O230 O 0.29496 0.60145 0.43863 0.0
C231 C 0.2708 0.59642 0.54752 0.0
O232 O 0.24098 0.59639 0.54839 0.0
O233 O 0.29674 0.66595 0.47581 0.0
C234 C 0.34655 0.52591 0.701 0.0
O235 O 0.37632 0.52766 0.69955 0.0
O236 O 0.38629 0.46909 0.75113 0.0
Zn237 Zn 0.36161 0.50719 0.76286 0.0
O238 O 0.38776 0.54587 0.77324 0.0
C239 C 0.34706 0.48016 0.82168 0.0
O240 O 0.37537 0.47131 0.81928 0.0
O241 O 0.33433 0.51712 0.72636 0.0
C242 C 0.41071 0.54648 0.79169 0.0
O243 O 0.41894 0.52035 0.80493 0.0
C244 C 0.41267 0.4694 0.73925 0.0
O245 O 0.42625 0.49654 0.73376 0.0
O246 O 0.3357 0.4965 0.80007 0.0
C247 C 0.60953 0.05983 0.69725 0.0
O248 O 0.63524 0.0546 0.68274 0.0
O249 O 0.64961 0.99056 0.68653 0.0
Zn250 Zn 0.62566 0.00216 0.72535 0.0
O251 O 0.65422 0.01315 0.76153 0.0
C252 C 0.60517 0.93693 0.7251 0.0
O253 O 0.62687 0.93387 0.7043 0.0
O254 O 0.6 0.0401 0.71705 0.0
C255 C 0.64632 0.00896 0.78985 0.0
O256 O 0.61898 -0.00248 0.79537 0.0
C257 C 0.67829 0.98771 0.68673 0.0
O258 O 0.69371 0.99401 0.71293 0.0
O259 O 0.59981 0.9642 0.73691 0.0
C260 C 0.70864 0.68745 0.97319 0.0
O261 O 0.70406 0.68091 0.00286 0.0
O262 O 0.73362 0.62358 0.01377 0.0
Zn263 Zn 0.75775 0.64378 0.97919 0.0
O264 O 0.76921 0.61299 0.94435 0.0
C265 C 0.81186 0.6533 0.0176 0.0
O266 O 0.80265 0.62666 0.02967 0.0
O267 O 0.73095 0.67527 0.95886 0.0
C268 C 0.79101 0.59392 0.94589 0.0
O269 O 0.80654 0.59212 0.97233 0.0
C270 C 0.73674 0.59677 0.02586 0.0
O271 O 0.75797 0.57789 0.01555 0.0
O272 O 0.79579 0.66575 0.99646 0.0
C273 C 0.89321 0.4342 0.77294 0.0
O274 O 0.86367 0.43787 0.77359 0.0
O275 O 0.86231 0.47962 0.7061 0.0
Zn276 Zn 0.8883 0.49266 0.74373 0.0
O277 O 0.86337 0.51031 0.77916 0.0
C278 C 0.92777 0.54846 0.74778 0.0
O279 O 0.91914 0.54983 0.77734 0.0
O280 O 0.90972 0.45507 0.76015 0.0
C281 C 0.84443 0.53228 0.7766 0.0
O282 O 0.83976 0.54451 0.74892 0.0
C283 C 0.83413 0.47257 0.70678 0.0
O284 O 0.81996 0.4732 0.73389 0.0
O285 O 0.91816 0.52578 0.7298 0.0
C286 C 0.75821 0.33819 0.457 0.0
O287 O 0.73247 0.33866 0.44107 0.0
O288 O 0.74608 0.40823 0.53586 0.0
Zn289 Zn 0.72821 0.38247 0.49939 0.0
O290 O 0.71372 0.41042 0.46503 0.0
C291 C 0.69761 0.3414 0.54044 0.0
O292 O 0.72509 0.3415 0.55284 0.0
O293 O 0.7609 0.35424 0.48269 0.0
C294 C 0.73186 0.42128 0.4447 0.0
O295 O 0.76085 0.41477 0.44666 0.0
C296 C 0.7736 0.41784 0.53545 0.0
O297 O 0.78973 0.41242 0.51005 0.0
O298 O 0.69304 0.35696 0.51578 0.0
C299 C 0.65576 0.54 0.18229 0.0
O300 O 0.62718 0.5483 0.18309 0.0
O301 O 0.6128 0.55349 0.25128 0.0
Zn302 Zn 0.63895 0.51623 0.24147 0.0
O303 O 0.61351 0.47795 0.22906 0.0
C304 C 0.69044 0.5021 0.28299 0.0
O305 O 0.70745 0.5066 0.25819 0.0
O306 O 0.66684 0.52583 0.20559 0.0
C307 C 0.62801 0.45275 0.22381 0.0
O308 O 0.6578 0.45373 0.22623 0.0
C309 C 0.5942 0.55208 0.27391 0.0
O310 O 0.59192 0.52587 0.28956 0.0
O311 O 0.66193 0.50566 0.28082 0.0
H312 H 0.10692 0.3823 0.27659 0.0
H313 H 0.03462 0.44647 0.29804 0.0
H314 H 0.00544 0.40375 0.32176 0.0
H315 H 0.00185 0.34889 0.33899 0.0
H316 H 0.07456 0.28519 0.31738 0.0
H317 H 0.10208 0.32707 0.29096 0.0
C318 C 0.08471 0.38697 0.28632 0.0
C319 C 0.0731 0.41758 0.28581 0.0
C320 C 0.06816 0.36241 0.29996 0.0
C321 C 0.04414 0.42312 0.29821 0.0
C322 C 0.02747 0.39873 0.31184 0.0
C323 C 0.02361 0.3441 0.3283 0.0
C324 C 0.03622 0.31399 0.33041 0.0
C325 C 0.03945 0.36838 0.31324 0.0
C326 C 0.06436 0.30816 0.31626 0.0
C327 C 0.08017 0.33212 0.30117 0.0
H328 H 0.90116 0.74785 0.63514 0.0
H329 H 0.96156 0.78076 0.56306 0.0
H330 H 0.91829 0.80047 0.53355 0.0
H331 H 0.86363 0.81066 0.52958 0.0
H332 H 0.80359 0.77846 0.60234 0.0
H333 H 0.84646 0.75602 0.63009 0.0
C334 C 0.90492 0.75917 0.61289 0.0
C335 C 0.93463 0.76295 0.60144 0.0
C336 C 0.87999 0.77065 0.59618 0.0
C337 C 0.93897 0.77758 0.57248 0.0
C338 C 0.91423 0.7889 0.5556 0.0
C339 C 0.85985 0.79851 0.55138 0.0
C340 C 0.83039 0.79639 0.5639 0.0
C341 C 0.88468 0.78591 0.56743 0.0
C342 C 0.82598 0.78055 0.59218 0.0
C343 C 0.85051 0.76774 0.60812 0.0
H344 H 0.40179 0.60339 0.76549 0.0
H345 H 0.45629 0.55758 0.8351 0.0
H346 H 0.48087 0.60806 0.85012 0.0
H347 H 0.48495 0.66553 0.84546 0.0
H348 H 0.43021 0.71139 0.77608 0.0
H349 H 0.40789 0.66046 0.75886 0.0
C350 C 0.41915 0.60438 0.78386 0.0
C351 C 0.42698 0.57674 0.79932 0.0
C352 C 0.43313 0.6335 0.79246 0.0
C353 C 0.44972 0.57847 0.82287 0.0
C354 C 0.46377 0.60736 0.83152 0.0
C355 C 0.4683 0.66441 0.8264 0.0
C356 C 0.45913 0.69233 0.81226 0.0
C357 C 0.45537 0.63507 0.81676 0.0
C358 C 0.43765 0.69033 0.78748 0.0
C359 C 0.42479 0.66121 0.77765 0.0
H360 H 0.61131 0.17781 0.15104 0.0
H361 H 0.57882 0.21392 0.06311 0.0
H362 H 0.61987 0.18755 0.03497 0.0
H363 H 0.66476 0.15375 0.03546 0.0
H364 H 0.69598 0.11707 0.12371 0.0
H365 H 0.65562 0.14426 0.15157 0.0
C366 C 0.61319 0.18002 0.12572 0.0
C367 C 0.59205 0.19785 0.10922 0.0
C368 C 0.63663 0.16469 0.10974 0.0
C369 C 0.59477 0.20029 0.07638 0.0
C370 C 0.61825 0.18525 0.06029 0.0
C371 C 0.6628 0.15182 0.0608 0.0
C372 C 0.68343 0.13343 0.07745 0.0
C373 C 0.6393 0.16734 0.07673 0.0
C374 C 0.68045 0.13103 0.11027 0.0
C375 C 0.65735 0.14658 0.12626 0.0
H376 H 0.04325 0.57618 0.22523 0.0
H377 H 0.13025 0.62515 0.23005 0.0
H378 H 0.10798 0.67123 0.20667 0.0
H379 H 0.06464 0.69657 0.18228 0.0
H380 H 0.97731 0.64834 0.17779 0.0
H381 H -0.00122 0.60325 0.20408 0.0
C382 C 0.05729 0.59698 0.22124 0.0
C383 C 0.08842 0.59709 0.22908 0.0
C384 C 0.04429 0.62356 0.20795 0.0
C385 C 0.10624 0.62437 0.22415 0.0
C386 C 0.09354 0.65076 0.21076 0.0
C387 C 0.05021 0.67632 0.1873 0.0
C388 C 0.01949 0.67572 0.17786 0.0
C389 C 0.06271 0.65046 0.20222 0.0
C390 C 0.00103 0.64943 0.18482 0.0
C391 C 0.01333 0.62355 0.19969 0.0
H392 H 0.58504 0.78455 0.45234 0.0
H393 H 0.63427 0.77562 0.36509 0.0
H394 H 0.68161 0.78975 0.39274 0.0
H395 H 0.70891 0.80635 0.44116 0.0
H396 H 0.66008 0.81578 0.52857 0.0
H397 H 0.61288 0.79943 0.50142 0.0
C398 C 0.60613 0.78566 0.43939 0.0
C399 C 0.60601 0.77919 0.40665 0.0
C400 C 0.63342 0.7938 0.45546 0.0
C401 C 0.63361 0.78056 0.39028 0.0
C402 C 0.66076 0.78863 0.40607 0.0
C403 C 0.68802 0.80458 0.45438 0.0
C404 C 0.68808 0.81239 0.48685 0.0
C405 C 0.66091 0.79549 0.43859 0.0
C406 C 0.66074 0.80996 0.50355 0.0
C407 C 0.63368 0.8007 0.48802 0.0
H408 H 0.48226 0.35316 0.68104 0.0
H409 H 0.40982 0.30279 0.72716 0.0
H410 H 0.39109 0.35238 0.74921 0.0
H411 H 0.39294 0.41014 0.75225 0.0
H412 H 0.46476 0.46088 0.70565 0.0
H413 H 0.48611 0.411 0.6871 0.0
C414 C 0.46259 0.35297 0.69622 0.0
C415 C 0.44734 0.32426 0.70218 0.0
C416 C 0.45165 0.38165 0.70854 0.0
C417 C 0.42193 0.3245 0.722 0.0
C418 C 0.41112 0.35288 0.73458 0.0
C419 C 0.41337 0.41034 0.73818 0.0
C420 C 0.42702 0.43924 0.73007 0.0
C421 C 0.42541 0.38162 0.72746 0.0
C422 C 0.45368 0.439 0.71212 0.0
C423 C 0.46589 0.41047 0.70145 0.0
H424 H 0.87864 0.20692 0.90192 0.0
H425 H 0.94057 0.21232 0.98161 0.0
H426 H 0.90323 0.18496 0.01368 0.0
H427 H 0.85358 0.15812 0.01869 0.0
H428 H 0.79189 0.15258 0.93877 0.0
H429 H 0.82855 0.18149 0.90734 0.0
C430 C 0.88398 0.20222 0.92633 0.0
C431 C 0.91244 0.21158 0.93926 0.0
C432 C 0.86245 0.18641 0.94464 0.0
C433 C 0.91887 0.20536 0.97099 0.0
C434 C 0.89754 0.18968 0.98938 0.0
C435 C 0.84807 0.16335 0.99444 0.0
C436 C 0.82002 0.15308 0.98114 0.0
C437 C 0.86933 0.17989 0.97638 0.0
C438 C 0.8133 0.16014 0.94966 0.0
C439 C 0.83427 0.17665 0.93161 0.0
H440 H 0.24162 0.08525 0.42199 0.0
H441 H 0.32356 0.06905 0.47543 0.0
H442 H 0.34609 0.0436 0.4292 0.0
H443 H 0.34389 0.02909 0.3729 0.0
H444 H 0.2624 0.0459 0.31901 0.0
H445 H 0.2383 0.06774 0.36624 0.0
C446 C 0.26431 0.07591 0.42363 0.0
C447 C 0.28095 0.07932 0.45211 0.0
C448 C 0.27729 0.06154 0.39684 0.0
C449 C 0.31027 0.06692 0.4538 0.0
C450 C 0.32322 0.0524 0.42735 0.0
C451 C 0.32077 0.03732 0.37147 0.0
C452 C 0.3051 0.03611 0.34235 0.0
C453 C 0.30715 0.05008 0.39863 0.0
C454 C 0.27506 0.04665 0.34106 0.0
C455 C 0.26127 0.05922 0.36806 0.0
H456 H 0.17124 0.06423 0.69379 0.0
H457 H 0.17537 0.96725 0.66023 0.0
H458 H 0.19516 0.98444 0.60984 0.0
H459 H 0.2095 0.02721 0.57452 0.0
H460 H 0.20494 0.12406 0.60857 0.0
H461 H 0.18722 0.10662 0.65945 0.0
C462 C 0.1766 0.0468 0.67554 0.0
C463 C 0.17169 0.01452 0.68078 0.0
C464 C 0.18782 0.05681 0.64659 0.0
C465 C 0.17887 0.99228 0.65685 0.0
C466 C 0.19016 0.00208 0.62798 0.0
C467 C 0.20476 0.04448 0.59311 0.0
C468 C 0.20839 0.07689 0.58758 0.0
C469 C 0.19444 0.03432 0.62245 0.0
C470 C 0.20223 0.09895 0.61203 0.0
C471 C 0.19207 0.08903 0.64121 0.0
H472 H 0.12804 0.99466 0.89258 0.0
H473 H 0.20279 0.97513 0.83034 0.0
H474 H 0.23232 0.95576 0.87455 0.0
H475 H 0.23571 0.94162 0.93003 0.0
H476 H 0.16057 0.96026 0.99205 0.0
H477 H 0.1325 0.98313 0.94868 0.0
C478 C 0.15084 0.98629 0.88866 0.0
C479 C 0.16308 0.98608 0.85814 0.0
C480 C 0.16761 0.97507 0.91411 0.0
C481 C 0.19276 0.97542 0.85356 0.0
C482 C 0.20966 0.96433 0.87882 0.0
C483 C 0.21332 0.95097 0.93421 0.0
C484 C 0.20019 0.94904 0.96423 0.0
C485 C 0.19715 0.96367 0.90909 0.0
C486 C 0.17118 0.96136 0.96917 0.0
C487 C 0.15507 0.97434 0.94436 0.0
H488 H 0.27412 0.90978 0.11273 0.0
H489 H 0.32233 0.98664 0.06945 0.0
H490 H 0.33972 0.00659 0.12135 0.0
H491 H 0.34266 0.00115 0.17877 0.0
H492 H 0.29463 0.92401 0.22183 0.0
H493 H 0.27559 0.90539 0.17016 0.0
C494 C 0.28838 0.93095 0.11459 0.0
C495 C 0.29705 0.94657 0.08718 0.0
C496 C 0.29833 0.94225 0.14446 0.0
C497 C 0.31537 0.97408 0.09012 0.0
C498 C 0.32534 0.98551 0.11981 0.0
C499 C 0.32788 0.98036 0.17692 0.0
C500 C 0.32022 0.96393 0.20417 0.0
C501 C 0.31716 0.96963 0.1471 0.0
C502 C 0.30097 0.93709 0.20128 0.0
C503 C 0.2901 0.92637 0.17172 0.0
H504 H 0.32933 0.29041 0.05672 0.0
H505 H 0.37198 0.38126 0.07867 0.0
H506 H 0.4181 0.35556 0.09545 0.0
H507 H 0.44635 0.30766 0.10406 0.0
H508 H 0.40425 0.21647 0.08284 0.0
H509 H 0.35799 0.24202 0.06536 0.0
C510 C 0.34868 0.30457 0.06528 0.0
C511 C 0.34713 0.33773 0.06646 0.0
C512 C 0.3753 0.28964 0.07484 0.0
C513 C 0.37247 0.35571 0.07751 0.0
C514 C 0.39893 0.34105 0.08707 0.0
C515 C 0.42716 0.29329 0.09544 0.0
C516 C 0.42883 0.26018 0.09469 0.0
C517 C 0.40061 0.30808 0.08576 0.0
C518 C 0.40362 0.24201 0.08362 0.0
C519 C 0.37712 0.2566 0.07369 0.0
H520 H 0.98884 0.82534 0.21312 0.0
H521 H 0.9939 0.84884 0.11495 0.0
H522 H 0.97496 0.90133 0.12736 0.0
H523 H 0.95409 0.93954 0.1655 0.0
H524 H 0.9471 0.91534 0.2633 0.0
H525 H 0.9699 0.86439 0.25165 0.0
C526 C 0.98601 0.84202 0.19448 0.0
C527 C 0.99259 0.83306 0.16316 0.0
C528 C 0.97471 0.87209 0.20168 0.0
C529 C 0.98878 0.85499 0.13927 0.0
C530 C 0.97798 0.88508 0.14632 0.0
C531 C 0.95793 0.92329 0.18433 0.0
C532 C 0.94882 0.93118 0.21516 0.0
C533 C 0.97048 0.89374 0.17737 0.0
C534 C 0.95376 0.90977 0.23929 0.0
C535 C 0.96677 0.88059 0.23266 0.0
H536 H 0.21735 0.693 0.59876 0.0
H537 H 0.17559 0.68211 0.5064 0.0
H538 H 0.12754 0.70054 0.52754 0.0
H539 H 0.09674 0.71783 0.57269 0.0
H540 H 0.13857 0.72778 0.66511 0.0
H541 H 0.18707 0.7117 0.64345 0.0
C542 C 0.19783 0.69488 0.58318 0.0
C543 C 0.20012 0.68609 0.55106 0.0
C544 C 0.17014 0.70518 0.59553 0.0
C545 C 0.1745 0.68863 0.53126 0.0
C546 C 0.14696 0.69914 0.54332 0.0
C547 C 0.11649 0.7166 0.58807 0.0
C548 C 0.11391 0.72388 0.62051 0.0
C549 C 0.14441 0.70715 0.5755 0.0
C550 C 0.13979 0.7222 0.64007 0.0
C551 C 0.16761 0.71301 0.62772 0.0
H552 H 0.9953 0.65111 0.66854 0.0
H553 H 0.99062 0.70361 0.75715 0.0
H554 H 0.96762 0.65771 0.78183 0.0
H555 H 0.94613 0.60369 0.77737 0.0
H556 H 0.95031 0.55187 0.68829 0.0
H557 H 0.97641 0.59648 0.66481 0.0
C558 C 0.98943 0.65252 0.69331 0.0
C559 C 0.99447 0.68086 0.71089 0.0
C560 C 0.97604 0.62617 0.70728 0.0
C561 C 0.9869 0.68214 0.74302 0.0
C562 C 0.9737 0.6559 0.75715 0.0
C563 C 0.953 0.60203 0.7529 0.0
C564 C 0.94606 0.57452 0.73459 0.0
C565 C 0.96776 0.62794 0.73938 0.0
C566 C 0.95519 0.57279 0.70292 0.0
C567 C 0.9701 0.59832 0.68942 0.0
H568 H 0.15207 0.20285 0.48284 0.0
H569 H 0.11694 0.10702 0.48475 0.0
H570 H 0.06717 0.12436 0.4679 0.0
H571 H 0.03407 0.16605 0.4505 0.0
H572 H 0.06876 0.26191 0.44743 0.0
H573 H 0.11803 0.24525 0.46723 0.0
C574 C 0.1335 0.18579 0.47965 0.0
C575 C 0.13836 0.15366 0.48488 0.0
C576 C 0.10478 0.1959 0.46983 0.0
C577 C 0.11397 0.13189 0.48077 0.0
C578 C 0.08542 0.14176 0.47115 0.0
C579 C 0.05228 0.18341 0.45443 0.0
C580 C 0.0477 0.21515 0.44738 0.0
C581 C 0.08064 0.17363 0.46536 0.0
C582 C 0.07163 0.23729 0.45263 0.0
C583 C 0.09987 0.22777 0.46385 0.0
H584 H 0.56685 0.44167 0.22013 0.0
H585 H 0.65303 0.39623 0.20819 0.0
H586 H 0.62687 0.34673 0.19307 0.0
H587 H 0.57977 0.31671 0.18172 0.0
H588 H 0.49344 0.36191 0.19321 0.0
H589 H 0.51949 0.41101 0.21031 0.0
C590 C 0.57991 0.42094 0.21425 0.0
C591 C 0.61185 0.42274 0.21514 0.0
C592 C 0.56473 0.39246 0.20557 0.0
C593 C 0.62842 0.39558 0.20762 0.0
C594 C 0.61349 0.36721 0.19898 0.0
C595 C 0.56659 0.33722 0.18815 0.0
C596 C 0.5347 0.33562 0.18606 0.0
C597 C 0.58169 0.36544 0.19769 0.0
C598 C 0.51803 0.36245 0.19455 0.0
C599 C 0.5329 0.3906 0.20426 0.0
H600 H 0.34372 0.83824 0.98285 0.0
H601 H 0.29647 0.85735 0.89599 0.0
H602 H 0.33906 0.83738 0.86563 0.0
H603 H 0.38999 0.8155 0.86365 0.0
H604 H 0.43715 0.79546 0.95027 0.0
H605 H 0.39423 0.81475 0.98081 0.0
C606 C 0.34272 0.83799 0.95728 0.0
C607 C 0.31701 0.8494 0.94174 0.0
C608 C 0.36726 0.82637 0.93992 0.0
C609 C 0.31599 0.84872 0.90858 0.0
C610 C 0.34036 0.83735 0.89117 0.0
C611 C 0.39091 0.81535 0.88922 0.0
C612 C 0.41678 0.80423 0.90466 0.0
C613 C 0.36615 0.8263 0.90659 0.0
C614 C 0.41749 0.80392 0.93779 0.0
C615 C 0.39298 0.81498 0.95528 0.0
H616 H 0.95338 0.42161 0.77932 0.0
H617 H 0.86384 0.38623 0.80221 0.0
H618 H 0.88614 0.34331 0.83087 0.0
H619 H 0.93089 0.31678 0.85091 0.0
H620 H 0.02055 0.35207 0.82846 0.0
H621 H -0.0017 0.394 0.79812 0.0
C622 C 0.93873 0.40442 0.79043 0.0
C623 C 0.90699 0.40724 0.7887 0.0
C624 C 0.9517 0.37983 0.80707 0.0
C625 C 0.88835 0.38471 0.80321 0.0
C626 C 0.90107 0.36014 0.81966 0.0
C627 C 0.9456 0.33359 0.83934 0.0
C628 C 0.97733 0.33137 0.84211 0.0
C629 C 0.9327 0.35766 0.822 0.0
C630 C 0.99603 0.35327 0.8268 0.0
C631 C 0.98334 0.37728 0.80944 0.0
H632 H 0.2944 0.17908 0.6088 0.0
H633 H 0.31186 0.2091 0.51432 0.0
H634 H 0.36323 0.22687 0.53043 0.0
H635 H 0.40404 0.23143 0.57115 0.0
H636 H 0.38642 0.19735 0.66425 0.0
H637 H 0.33435 0.18353 0.64883 0.0
C638 C 0.30925 0.1899 0.59177 0.0
C639 C 0.29927 0.19297 0.56048 0.0
C640 C 0.3389 0.19902 0.6009 0.0
C641 C 0.31902 0.20656 0.5386 0.0
C642 C 0.3484 0.21662 0.54778 0.0
C643 C 0.38872 0.22107 0.58801 0.0
C644 C 0.39914 0.21532 0.61875 0.0
C645 C 0.35876 0.21255 0.5788 0.0
C646 C 0.3791 0.20175 0.64035 0.0
C647 C 0.34924 0.19395 0.63162 0.0
H648 H 0.52478 0.66272 0.34189 0.0
H649 H 0.56045 0.71412 0.26365 0.0
H650 H 0.58167 0.66556 0.2414 0.0
H651 H 0.59307 0.60928 0.24624 0.0
H652 H 0.55739 0.55841 0.3249 0.0
H653 H 0.5331 0.60606 0.34479 0.0
C654 C 0.53702 0.66332 0.31984 0.0
C655 C 0.54129 0.69209 0.30463 0.0
C656 C 0.5493 0.63544 0.30733 0.0
C657 C 0.55689 0.69233 0.27589 0.0
C658 C 0.56913 0.66458 0.26321 0.0
C659 C 0.57979 0.60855 0.26761 0.0
C660 C 0.57733 0.58035 0.28421 0.0
C661 C 0.56595 0.63612 0.27905 0.0
C662 C 0.55982 0.57978 0.31171 0.0
C663 C 0.54594 0.60705 0.32316 0.0
H664 H 0.08377 0.77665 0.03791 0.0
H665 H 0.13526 0.76169 0.1232 0.0
H666 H 0.18033 0.78513 0.09976 0.0
H667 H 0.20379 0.81416 0.05721 0.0
H668 H 0.15247 0.83045 0.97218 0.0
H669 H 0.10879 0.80185 0.99327 0.0
C670 C 0.10495 0.77814 0.05121 0.0
C671 C 0.10602 0.7678 0.0824 0.0
C672 C 0.13077 0.79206 0.03775 0.0
C673 C 0.1337 0.76975 0.09926 0.0
C674 C 0.15951 0.78319 0.0859 0.0
C675 C 0.18316 0.81123 0.04313 0.0
C676 C 0.18127 0.82477 0.01335 0.0
C677 C 0.15808 0.79514 0.05551 0.0
C678 C 0.15449 0.82039 0.99526 0.0
C679 C 0.12946 0.80412 0.00734 0.0
H680 H 0.72066 0.91745 0.5625 0.0
H681 H 0.8068 0.92285 0.61216 0.0
H682 H 0.78372 0.95312 0.65527 0.0
H683 H 0.73838 0.97531 0.68016 0.0
H684 H 0.65231 0.96927 0.63027 0.0
H685 H 0.67622 0.94219 0.58584 0.0
C686 C 0.73448 0.92537 0.58266 0.0
C687 C 0.76535 0.91766 0.58422 0.0
C688 C 0.72107 0.9426 0.60737 0.0
C689 C 0.78295 0.92837 0.6104 0.0
C690 C 0.76976 0.94564 0.6351 0.0
C691 C 0.72489 0.96832 0.65946 0.0
C692 C 0.69355 0.97411 0.6587 0.0
C693 C 0.73873 0.95249 0.63403 0.0
C694 C 0.67646 0.96502 0.6316 0.0
C695 C 0.69009 0.94945 0.60617 0.0
H696 H 0.81794 0.96469 0.329 0.0
H697 H 0.9065 0.94423 0.36709 0.0
H698 H 0.88307 0.9195 0.41206 0.0
H699 H 0.83776 0.90225 0.43988 0.0
H700 H 0.74891 0.92212 0.40237 0.0
H701 H 0.77219 0.94858 0.35798 0.0
C702 C 0.8321 0.95494 0.34721 0.0
C703 C 0.86392 0.95621 0.34455 0.0
C704 C 0.81847 0.94056 0.3731 0.0
C705 C 0.88194 0.9435 0.36841 0.0
C706 C 0.86858 0.92932 0.39419 0.0
C707 C 0.82343 0.91241 0.42206 0.0
C708 C 0.79165 0.91006 0.42439 0.0
C709 C 0.83691 0.92748 0.39663 0.0
C710 C 0.77346 0.92354 0.40114 0.0
C711 C 0.78675 0.93866 0.37572 0.0
H712 H 0.78234 0.06466 0.09607 0.0
H713 H 0.80351 0.98325 0.03736 0.0
H714 H 0.82816 0.95908 0.08236 0.0
H715 H 0.84478 0.96185 0.13819 0.0
H716 H 0.82333 0.04389 0.19601 0.0
H717 H 0.79749 0.06685 0.15148 0.0
C718 C 0.79232 0.04161 0.09299 0.0
C719 C 0.79119 0.02587 0.0633 0.0
C720 C 0.80635 0.0279 0.11886 0.0
C721 C 0.80411 0.99593 0.05993 0.0
C722 C 0.81819 0.98209 0.08566 0.0
C723 C 0.83424 0.98463 0.14111 0.0
C724 C 0.8361 0.00112 0.17043 0.0
C725 C 0.81956 -0.00207 0.11523 0.0
C726 C 0.82238 0.03068 0.17373 0.0
C727 C 0.80761 0.0439 0.14825 0.0
H728 H 0.63537 0.00588 0.85268 0.0
H729 H 0.70467 0.03166 0.78634 0.0
H730 H 0.73868 0.0483 0.82979 0.0
H731 H 0.74782 0.05802 0.88638 0.0
H732 H 0.67807 0.03359 0.95271 0.0
H733 H 0.64531 0.01362 0.90945 0.0
C734 C 0.65795 0.01499 0.84769 0.0
C735 C 0.66734 0.01771 0.81628 0.0
C736 C 0.67734 0.02476 0.87278 0.0
C737 C 0.69676 0.02948 0.81029 0.0
C738 C 0.71626 0.03898 0.83512 0.0
C739 C 0.72558 0.04803 0.89144 0.0
C740 C 0.71538 0.04744 0.92274 0.0
C741 C 0.70666 0.03707 0.86644 0.0
C742 C 0.68645 0.03446 0.92883 0.0
C743 C 0.66766 0.02309 0.90409 0.0
H744 H 0.62085 0.74821 0.87527 0.0
H745 H 0.55971 0.74277 0.95396 0.0
H746 H 0.60069 0.72384 0.98714 0.0
H747 H 0.65278 0.70524 0.99268 0.0
H748 H 0.71335 0.709 0.9134 0.0
H749 H 0.67372 0.73253 0.88171 0.0
C750 C 0.6165 0.74313 0.89974 0.0
C751 C 0.58718 0.74664 0.91201 0.0
C752 C 0.64005 0.73189 0.91858 0.0
C753 C 0.58202 0.74008 0.94383 0.0
C754 C 0.60544 0.72924 0.96284 0.0
C755 C 0.65747 0.71157 0.96861 0.0
C756 C 0.68592 0.70516 0.95538 0.0
C757 C 0.6344 0.72454 0.95031 0.0
C758 C 0.69158 0.7135 0.92412 0.0
C759 C 0.66891 0.7269 0.90594 0.0
H760 H 0.05826 0.11674 0.74926 0.0
H761 H 0.08937 0.07799 0.83661 0.0
H762 H 0.06504 0.12018 0.86646 0.0
H763 H 0.03557 0.16828 0.86805 0.0
H764 H 0.00326 0.20705 0.78127 0.0
H765 H 0.02737 0.16461 0.751 0.0
C766 C 0.05969 0.11754 0.77482 0.0
C767 C 0.0757 0.09427 0.79061 0.0
C768 C 0.04545 0.14185 0.79199 0.0
C769 C 0.07717 0.09554 0.82378 0.0
C770 C 0.0633 0.11971 0.84094 0.0
C771 C 0.03376 0.1675 0.8425 0.0
C772 C 0.01773 0.19087 0.82696 0.0
C773 C 0.04749 0.14301 0.82531 0.0
C774 C 0.01547 0.18934 0.79385 0.0
C775 C 0.02928 0.1651 0.77651 0.0
H776 H 0.86029 0.26916 0.37977 0.0
H777 H 0.91459 0.30276 0.45977 0.0
H778 H 0.86949 0.3247 0.48446 0.0
H779 H 0.81514 0.3362 0.48233 0.0
H780 H 0.76103 0.30316 0.40196 0.0
H781 H 0.80564 0.27898 0.37853 0.0
C782 C 0.8623 0.28116 0.40267 0.0
C783 C 0.89085 0.28443 0.4178 0.0
C784 C 0.83632 0.29385 0.41666 0.0
C785 C 0.89294 0.29996 0.44754 0.0
C786 C 0.86715 0.31254 0.46167 0.0
C787 C 0.81301 0.32352 0.45978 0.0
C788 C 0.78475 0.32161 0.44389 0.0
C789 C 0.8388 0.30989 0.4463 0.0
C790 C 0.78247 0.30507 0.41471 0.0
C791 C 0.80799 0.29126 0.40124 0.0
H792 H 0.56459 0.93356 0.773 0.0
H793 H 0.60984 0.87625 0.7027 0.0
H794 H 0.5868 0.82867 0.72384 0.0
H795 H 0.5563 0.803 0.76421 0.0
H796 H 0.51204 0.86023 0.83528 0.0
H797 H 0.53203 0.90805 0.81175 0.0
C798 C 0.56919 0.9107 0.7621 0.0
C799 C 0.58905 0.90852 0.73642 0.0
C800 C 0.55615 0.88333 0.7746 0.0
C801 C 0.59475 0.87866 0.7226 0.0
C802 C 0.58161 0.85138 0.73468 0.0
C803 C 0.55078 0.82593 0.77439 0.0
C804 C 0.53288 0.82797 0.80159 0.0
C805 C 0.56265 0.85339 0.76097 0.0
C806 C 0.52595 0.85792 0.81446 0.0
C807 C 0.53738 0.88533 0.80103 0.0
H808 H 0.98627 0.16318 0.35423 0.0
H809 H 0.92806 0.20658 0.28632 0.0
H810 H 0.91472 0.15468 0.26277 0.0
H811 H 0.91757 0.09691 0.26336 0.0
H812 H 0.97712 0.05364 0.33015 0.0
H813 H 0.99223 0.10568 0.35211 0.0
C814 C 0.97075 0.16127 0.3342 0.0
C815 C 0.95788 0.18859 0.32222 0.0
C816 C 0.96344 0.13144 0.32062 0.0
C817 C 0.9382 0.18586 0.29597 0.0
C818 C 0.93051 0.15621 0.28256 0.0
C819 C 0.934 0.09888 0.2826 0.0
C820 C 0.94599 0.07147 0.29533 0.0
C821 C 0.94269 0.12884 0.29497 0.0
C822 C 0.96756 0.07439 0.31995 0.0
C823 C 0.9761 0.10412 0.3326 0.0
H824 H 0.56477 0.08671 0.73245 0.0
H825 H 0.61588 0.09748 0.64698 0.0
H826 H 0.58833 0.1451 0.63545 0.0
H827 H 0.54996 0.18365 0.64939 0.0
H828 H 0.4997 0.17477 0.73559 0.0
H829 H 0.52683 0.12655 0.74718 0.0
C830 C 0.56976 0.09944 0.71126 0.0
C831 C 0.59226 0.08847 0.69054 0.0
C832 C 0.5541 0.12718 0.70496 0.0
C833 C 0.59872 0.10541 0.66335 0.0
C834 C 0.58296 0.13265 0.65671 0.0
C835 C 0.54486 0.17118 0.67073 0.0
C836 C 0.52272 0.1827 0.69151 0.0
C837 C 0.56066 0.14374 0.67733 0.0
C838 C 0.51668 0.16643 0.71921 0.0
C839 C 0.53211 0.13881 0.7258 0.0
H840 H 0.14281 0.35917 0.00427 0.0
H841 H 0.20668 0.28711 0.97868 0.0
H842 H 0.16582 0.25532 0.95344 0.0
H843 H 0.11219 0.24861 0.93748 0.0
H844 H 0.04858 0.321 0.96297 0.0
H845 H 0.08916 0.35192 0.9895 0.0
C846 C 0.14784 0.33648 0.99325 0.0
C847 C 0.17781 0.32563 0.99329 0.0
C848 C 0.12428 0.31836 0.97873 0.0
C849 C 0.18383 0.2961 0.97897 0.0
C850 C 0.16047 0.27789 0.9645 0.0
C851 C 0.10715 0.27108 0.94895 0.0
C852 C 0.07736 0.28246 0.94813 0.0
C853 C 0.13064 0.28888 0.96408 0.0
C854 C 0.07128 0.31164 0.96317 0.0
C855 C 0.09449 0.3294 0.97833 0.0
H856 H 0.44502 0.73367 0.4515 0.0
H857 H 0.40199 0.72103 0.35987 0.0
H858 H 0.35542 0.7025 0.38432 0.0
H859 H 0.32742 0.6879 0.43129 0.0
H860 H 0.37003 0.69985 0.52314 0.0
H861 H 0.41602 0.72092 0.49902 0.0
C862 C 0.42543 0.72693 0.43691 0.0
C863 C 0.42712 0.72857 0.40389 0.0
C864 C 0.39857 0.71622 0.45113 0.0
C865 C 0.40144 0.71991 0.38534 0.0
C866 C 0.37472 0.70931 0.39928 0.0
C867 C 0.34664 0.69536 0.44611 0.0
C868 C 0.34527 0.69216 0.47897 0.0
C869 C 0.3731 0.70712 0.4321 0.0
C870 C 0.37044 0.70199 0.49777 0.0
C871 C 0.39682 0.71396 0.48399 0.0
H872 H 0.85456 0.51649 0.83722 0.0
H873 H 0.80009 0.57651 0.77993 0.0
H874 H 0.77698 0.59918 0.82739 0.0
H875 H 0.77434 0.60392 0.88516 0.0
H876 H 0.83055 0.54537 0.94221 0.0
H877 H 0.85071 0.51993 0.89467 0.0
C878 C 0.83748 0.53439 0.83503 0.0
C879 C 0.82916 0.54489 0.80506 0.0
C880 C 0.82463 0.5476 0.86236 0.0
C881 C 0.80701 0.56811 0.80272 0.0
C882 C 0.79377 0.58107 0.82984 0.0
C883 C 0.79074 0.58534 0.88722 0.0
C884 C 0.80099 0.57659 0.91719 0.0
C885 C 0.8027 0.57126 0.85979 0.0
C886 C 0.82238 0.55263 0.91943 0.0
C887 C 0.83395 0.5381 0.89226 0.0
H888 H 0.64251 0.57909 0.13496 0.0
H889 H 0.71108 0.51594 0.16715 0.0
H890 H 0.74157 0.52666 0.12067 0.0
H891 H 0.74905 0.55468 0.07118 0.0
H892 H 0.68139 0.61972 0.04079 0.0
H893 H 0.65015 0.60737 0.08615 0.0
C894 C 0.66409 0.5676 0.1318 0.0
C895 C 0.67447 0.54672 0.15444 0.0
C896 C 0.68163 0.57415 0.10528 0.0
C897 C 0.70261 0.53221 0.1501 0.0
C898 C 0.72002 0.53826 0.12349 0.0
C899 C 0.72735 0.56592 0.07439 0.0
C900 C 0.71747 0.58796 0.05262 0.0
C901 C 0.70978 0.55923 0.10094 0.0
C902 C 0.68951 0.6027 0.05727 0.0
C903 C 0.67163 0.59567 0.0832 0.0
H904 H 0.76348 0.44278 0.39458 0.0
H905 H 0.6737 0.43993 0.43459 0.0
H906 H 0.65347 0.46636 0.38889 0.0
H907 H 0.66065 0.48772 0.33655 0.0
H908 H 0.75005 0.48968 0.29566 0.0
H909 H 0.77106 0.46634 0.34292 0.0
C910 C 0.73953 0.44813 0.39343 0.0
C911 C 0.72012 0.4392 0.41793 0.0
C912 C 0.72794 0.46308 0.36691 0.0
C913 C 0.68914 0.44638 0.41604 0.0
C914 C 0.67753 0.46149 0.38989 0.0
C915 C 0.68479 0.48327 0.33799 0.0
C916 C 0.7037 0.49028 0.31248 0.0
C917 C 0.69663 0.46955 0.36502 0.0
C918 C 0.73494 0.48442 0.31488 0.0
C919 C 0.74697 0.47103 0.34188 0.0
H920 H 0.85653 0.47145 0.64738 0.0
H921 H 0.77475 0.45305 0.69967 0.0
H922 H 0.74827 0.43618 0.65092 0.0
H923 H 0.749 0.42467 0.59382 0.0
H924 H 0.83115 0.44247 0.5419 0.0
H925 H 0.85673 0.46182 0.59022 0.0
C926 C 0.83289 0.46383 0.64817 0.0
C927 C 0.81772 0.46333 0.67719 0.0
C928 C 0.81785 0.45408 0.62012 0.0
C929 C 0.78702 0.45356 0.67769 0.0
C930 C 0.77185 0.44392 0.64981 0.0
C931 C 0.77242 0.43304 0.593 0.0
C932 C 0.78815 0.432 0.56428 0.0
C933 C 0.78713 0.44382 0.62094 0.0
C934 C 0.81851 0.4429 0.56368 0.0
C935 C 0.83319 0.45392 0.59132 0.0
H936 H 0.44188 0.08434 0.24445 0.0
H937 H 0.35862 0.13337 0.26278 0.0
H938 H 0.38076 0.18158 0.24208 0.0
H939 H 0.42252 0.20894 0.21577 0.0
H940 H 0.50534 0.15965 0.19608 0.0
H941 H 0.48467 0.11259 0.22054 0.0
C942 C 0.42867 0.10564 0.24418 0.0
C943 C 0.39857 0.10514 0.25495 0.0
C944 C 0.44141 0.13326 0.23189 0.0
C945 C 0.38178 0.13299 0.25446 0.0
C946 C 0.39442 0.16061 0.24261 0.0
C947 C 0.43619 0.18803 0.21711 0.0
C948 C 0.46534 0.1878 0.20393 0.0
C949 C 0.42403 0.16089 0.23081 0.0
C950 C 0.48274 0.16045 0.20588 0.0
C951 C 0.47093 0.13348 0.21984 0.0
H952 H 0.99517 0.86825 0.6746 0.0
H953 H 0.06833 0.81183 0.70893 0.0
H954 H 0.09088 0.8581 0.73637 0.0
H955 H 0.09173 0.91501 0.74773 0.0
H956 H 0.01936 0.97194 0.7126 0.0
H957 H 0.99451 0.92492 0.68859 0.0
C958 C 0.0159 0.86599 0.6883 0.0
C959 C 0.03014 0.83664 0.68945 0.0
C960 C 0.02899 0.8928 0.70378 0.0
C961 C 0.05695 0.83415 0.70746 0.0
C962 C 0.06991 0.86062 0.72315 0.0
C963 C 0.07039 0.91717 0.73505 0.0
C964 C 0.05758 0.94702 0.73176 0.0
C965 C 0.05642 0.89014 0.72101 0.0
C966 C 0.02983 0.94929 0.71536 0.0
C967 C 0.01562 0.92241 0.70158 0.0
H968 H 0.45177 0.82707 0.34669 0.0
H969 H 0.53322 0.87309 0.31346 0.0
H970 H 0.50351 0.91836 0.29779 0.0
H971 H 0.45439 0.9455 0.29522 0.0
H972 H 0.37392 0.89925 0.3307 0.0
H973 H 0.40339 0.85349 0.34386 0.0
C974 C 0.46311 0.84686 0.33581 0.0
C975 C 0.4947 0.84664 0.33124 0.0
C976 C 0.44607 0.8729 0.32745 0.0
C977 C 0.50894 0.87264 0.31727 0.0
C978 C 0.49196 0.89855 0.30836 0.0
C979 C 0.44333 0.92537 0.30575 0.0
C980 C 0.41198 0.92589 0.31203 0.0
C981 C 0.46053 0.89907 0.31362 0.0
C982 C 0.39801 0.89962 0.32576 0.0
C983 C 0.41482 0.87335 0.33325 0.0
H984 H 0.86001 0.62274 0.04085 0.0
H985 H 0.83094 0.71474 0.01389 0.0
H986 H 0.88077 0.73747 0.02896 0.0
H987 H 0.93211 0.73122 0.05091 0.0
H988 H 0.96163 0.63863 0.07572 0.0
H989 H 0.91216 0.61599 0.05992 0.0
C990 C 0.86456 0.6478 0.03841 0.0
C991 C 0.8418 0.66716 0.02668 0.0
C992 C 0.89336 0.66051 0.04648 0.0
C993 C 0.84813 0.69943 0.02301 0.0
C994 C 0.87658 0.7124 0.03159 0.0
C995 C 0.92778 0.70605 0.05265 0.0
C996 C 0.95046 0.68666 0.0646 0.0
C997 C 0.89932 0.69316 0.04345 0.0
C998 C 0.94461 0.65407 0.06649 0.0
C999 C 0.91626 0.64112 0.05765 0.0
H1000 H 0.6033 0.2771 0.63016 0.0
H1001 H 0.54075 0.30414 0.55729 0.0
H1002 H 0.58317 0.32515 0.52682 0.0
H1003 H 0.63791 0.33763 0.52207 0.0
H1004 H 0.69983 0.30992 0.59538 0.0
H1005 H 0.65767 0.28722 0.62438 0.0
C1006 C 0.59886 0.28754 0.60759 0.0
C1007 C 0.56887 0.28929 0.59614 0.0
C1008 C 0.62326 0.29946 0.59027 0.0
C1009 C 0.56363 0.30257 0.56667 0.0
C1010 C 0.58786 0.31462 0.54927 0.0
C1011 C 0.64221 0.32644 0.54429 0.0
C1012 C 0.67203 0.32567 0.55658 0.0
C1013 C 0.61776 0.31345 0.561 0.0
C1014 C 0.67716 0.31096 0.58535 0.0
C1015 C 0.65304 0.298 0.60203 0.0
H1016 H 0.21446 0.40097 0.10953 0.0
H1017 H 0.25111 0.4868 0.0713 0.0
H1018 H 0.22471 0.51801 0.11147 0.0
H1019 H 0.19043 0.52093 0.15693 0.0
H1020 H 0.1541 0.43472 0.19479 0.0
H1021 H 0.18123 0.40377 0.15527 0.0
C1022 C 0.21678 0.42651 0.10998 0.0
C1023 C 0.23471 0.44149 0.08736 0.0
C1024 C 0.20154 0.4443 0.13306 0.0
C1025 C 0.23745 0.47462 0.0884 0.0
C1026 C 0.22234 0.49251 0.11135 0.0
C1027 C 0.18849 0.49538 0.15658 0.0
C1028 C 0.17015 0.48024 0.17878 0.0
C1029 C 0.20419 0.4776 0.13372 0.0
C1030 C 0.16798 0.44707 0.178 0.0
C1031 C 0.18349 0.42929 0.15538 0.0
H1032 H 0.36627 0.45021 0.87346 0.0
H1033 H 0.2859 0.4871 0.83007 0.0
H1034 H 0.25496 0.46752 0.87315 0.0
H1035 H 0.25057 0.43812 0.92222 0.0
H1036 H 0.33151 0.4017 0.96513 0.0
H1037 H 0.36229 0.42301 0.92317 0.0
C1038 C 0.342 0.45408 0.87341 0.0
C1039 C 0.32842 0.46991 0.84848 0.0
C1040 C 0.32439 0.44277 0.89816 0.0
C1041 C 0.29695 0.47493 0.84897 0.0
C1042 C 0.27922 0.46369 0.87356 0.0
C1043 C 0.27495 0.43497 0.92246 0.0
C1044 C 0.28861 0.41814 0.94672 0.0
C1045 C 0.29266 0.4473 0.89815 0.0
C1046 C 0.32029 0.41443 0.94672 0.0
C1047 C 0.33798 0.42659 0.9227 0.0
H1048 H 0.25002 0.57 0.60126 0.0
H1049 H 0.33211 0.58925 0.54971 0.0
H1050 H 0.36248 0.56792 0.59203 0.0
H1051 H 0.36611 0.54611 0.64454 0.0
H1052 H 0.28447 0.52748 0.69693 0.0
H1053 H 0.25361 0.54614 0.65334 0.0
C1054 C 0.27453 0.56929 0.59917 0.0
C1055 C 0.28872 0.58135 0.57239 0.0
C1056 C 0.29199 0.55725 0.6238 0.0
C1057 C 0.32054 0.58027 0.5701 0.0
C1058 C 0.33798 0.56809 0.59432 0.0
C1059 C 0.34156 0.54596 0.64642 0.0
C1060 C 0.32767 0.53558 0.67404 0.0
C1061 C 0.32399 0.5569 0.62142 0.0
C1062 C 0.29579 0.53545 0.67598 0.0
C1063 C 0.27811 0.54614 0.65106 0.0
H1064 H 0.22486 0.52478 0.31001 0.0
H1065 H 0.13658 0.53922 0.35087 0.0
H1066 H 0.16031 0.56344 0.39799 0.0
H1067 H 0.20567 0.58257 0.42671 0.0
H1068 H 0.29418 0.56931 0.38615 0.0
H1069 H 0.27076 0.54239 0.33993 0.0
C1070 C 0.21083 0.53305 0.3293 0.0
C1071 C 0.17898 0.53032 0.32678 0.0
C1072 C 0.22462 0.54724 0.35638 0.0
C1073 C 0.16115 0.54114 0.35205 0.0
C1074 C 0.17468 0.55502 0.37906 0.0
C1075 C 0.21992 0.57367 0.40787 0.0
C1076 C 0.25163 0.57812 0.40985 0.0
C1077 C 0.20633 0.55851 0.38132 0.0
C1078 C 0.2697 0.56629 0.38523 0.0
C1079 C 0.25632 0.55093 0.35875 0.0
loop_
_geom_bond_atom_site_label_1
_geom_bond_atom_site_label_2
_geom_bond_distance
_geom_bond_site_symmetry_2
_ccdc_geom_bond_type
C0 O1 1.160 . S
C0 O7 1.185 . S
O1 C0 1.160 . S
O2 Zn3 1.894 1_655 S
O2 C10 1.284 . S
Zn3 O2 1.894 1_455 S
Zn3 O4 2.033 . S
Zn3 O7 2.080 1_455 S
Zn3 O12 1.986 . S
O4 Zn3 2.033 . S
O4 C8 1.278 . S
C5 O6 1.203 . S
C5 O12 1.267 . S
O6 C5 1.203 . S
O7 C0 1.185 . S
O7 Zn3 2.080 1_655 S
C8 O4 1.278 . S
C8 O9 1.211 . S
O9 C8 1.211 . S
C10 O2 1.284 . S
C10 O11 1.273 1_655 S
O11 C10 1.273 1_455 S
O12 Zn3 1.986 . S
O12 C5 1.267 . S
C13 O14 1.160 . S
C13 O20 1.185 . S
O14 C13 1.160 . S
O15 Zn16 1.899 1_655 S
O15 C23 1.284 . S
Zn16 O15 1.899 1_455 S
Zn16 O17 2.032 . S
Zn16 O20 2.086 . S
Zn16 O25 1.977 1_455 S
O17 Zn16 2.032 . S
O17 C21 1.278 . S
C18 O19 1.203 . S
C18 O25 1.267 . S
O19 C18 1.203 . S
O20 C13 1.185 . S
O20 Zn16 2.086 . S
C21 O17 1.278 . S
C21 O22 1.198 1_455 S
O22 C21 1.198 1_655 S
C23 O15 1.284 . S
C23 O24 1.273 . S
O24 C23 1.273 . S
O25 Zn16 1.977 1_655 S
O25 C18 1.267 . S
C26 O27 1.160 . S
C26 O33 1.185 . S
O27 C26 1.160 . S
O28 Zn29 1.899 . S
O28 C36 1.284 . S
Zn29 O28 1.899 . S
Zn29 O30 2.032 . S
Zn29 O33 2.086 . S
Zn29 O38 1.977 . S
O30 Zn29 2.032 . S
O30 C34 1.278 . S
C31 O32 1.203 . S
C31 O38 1.267 . S
O32 C31 1.203 . S
O33 C26 1.185 . S
O33 Zn29 2.086 . S
C34 O30 1.278 . S
C34 O35 1.211 . S
O35 C34 1.211 . S
C36 O28 1.284 . S
C36 O37 1.273 . S
O37 C36 1.273 . S
O38 Zn29 1.977 . S
O38 C31 1.267 . S
C39 O40 1.160 . S
C39 O46 1.185 . S
O40 C39 1.160 . S
O41 Zn42 1.899 . S
O41 C49 1.284 . S
Zn42 O41 1.899 . S
Zn42 O43 2.032 . S
Zn42 O46 2.086 . S
Zn42 O51 1.977 . S
O43 Zn42 2.032 . S
O43 C47 1.278 . S
C44 O45 1.203 . S
C44 O51 1.267 . S
O45 C44 1.203 . S
O46 C39 1.185 . S
O46 Zn42 2.086 . S
C47 O43 1.278 . S
C47 O48 1.211 . S
O48 C47 1.211 . S
C49 O41 1.284 . S
C49 O50 1.273 . S
O50 C49 1.273 . S
O51 Zn42 1.977 . S
O51 C44 1.267 . S
C52 O53 1.160 . S
C52 O59 1.185 . S
O53 C52 1.160 . S
O54 Zn55 1.899 . S
O54 C62 1.284 . S
Zn55 O54 1.899 . S
Zn55 O56 2.032 . S
Zn55 O59 2.086 . S
Zn55 O64 1.977 1_455 S
O56 Zn55 2.032 . S
O56 C60 1.278 1_455 S
C57 O58 1.203 . S
C57 O64 1.267 . S
O58 C57 1.203 . S
O59 C52 1.185 . S
O59 Zn55 2.086 . S
C60 O56 1.278 1_655 S
C60 O61 1.211 . S
O61 C60 1.211 . S
C62 O54 1.284 . S
C62 O63 1.273 . S
O63 C62 1.273 . S
O64 Zn55 1.977 1_655 S
O64 C57 1.267 . S
C65 O66 1.160 . S
C65 O72 1.185 . S
O66 C65 1.160 . S
O67 Zn68 1.899 . S
O67 C75 1.284 . S
Zn68 O67 1.899 . S
Zn68 O69 2.032 . S
Zn68 O72 2.086 . S
Zn68 O77 1.977 . S
O69 Zn68 2.032 . S
O69 C73 1.278 . S
C70 O71 1.203 . S
C70 O77 1.267 . S
O71 C70 1.203 . S
O72 C65 1.185 . S
O72 Zn68 2.086 . S
C73 O69 1.278 . S
C73 O74 1.211 . S
O74 C73 1.211 . S
C75 O67 1.284 . S
C75 O76 1.273 . S
O76 C75 1.273 . S
O77 Zn68 1.977 . S
O77 C70 1.267 . S
C78 O79 1.160 . S
C78 O85 1.185 . S
O79 C78 1.160 . S
O80 Zn81 1.899 . S
O80 C88 1.284 . S
Zn81 O80 1.899 . S
Zn81 O82 2.032 . S
Zn81 O85 2.086 . S
Zn81 O90 1.977 . S
O82 Zn81 2.032 . S
O82 C86 1.278 . S
C83 O84 1.203 . S
C83 O90 1.267 . S
O84 C83 1.203 . S
O85 C78 1.185 . S
O85 Zn81 2.086 . S
C86 O82 1.278 . S
C86 O87 1.211 . S
O87 C86 1.211 . S
C88 O80 1.284 . S
C88 O89 1.273 . S
O89 C88 1.273 . S
O90 Zn81 1.977 . S
O90 C83 1.267 . S
C91 O92 1.160 . S
C91 O98 1.185 . S
O92 C91 1.160 . S
O93 Zn94 1.899 . S
O93 C101 1.284 . S
Zn94 O93 1.899 . S
Zn94 O95 2.032 1_455 S
Zn94 O98 2.086 1_455 S
Zn94 O103 1.977 . S
O95 Zn94 2.032 1_655 S
O95 C99 1.278 . S
C96 O97 1.203 . S
C96 O103 1.267 . S
O97 C96 1.203 . S
O98 C91 1.185 . S
O98 Zn94 2.086 1_655 S
C99 O95 1.278 . S
C99 O100 1.211 1_655 S
O100 C99 1.211 1_455 S
C101 O93 1.284 . S
C101 O102 1.273 . S
O102 C101 1.273 . S
O103 Zn94 1.977 . S
O103 C96 1.267 . S
C104 O105 1.160 . S
C104 O111 1.185 . S
O105 C104 1.160 . S
O106 Zn107 1.899 1_565 S
O106 C114 1.284 . S
Zn107 O106 1.899 1_545 S
Zn107 O108 2.032 . S
Zn107 O111 2.086 1_545 S
Zn107 O116 1.977 . S
O108 Zn107 2.032 . S
O108 C112 1.278 . S
C109 O110 1.203 . S
C109 O116 1.267 . S
O110 C109 1.203 . S
O111 C104 1.185 . S
O111 Zn107 2.086 1_565 S
C112 O108 1.278 . S
C112 O113 1.211 . S
O113 C112 1.211 . S
C114 O106 1.284 . S
C114 O115 1.273 1_565 S
O115 C114 1.273 1_545 S
O116 Zn107 1.977 . S
O116 C109 1.267 . S
C117 O118 1.160 . S
C117 O124 1.185 . S
O118 C117 1.160 . S
O119 Zn120 1.899 . S
O119 C127 1.284 . S
Zn120 O119 1.899 . S
Zn120 O121 2.032 . S
Zn120 O124 2.086 . S
Zn120 O129 1.977 . S
O121 Zn120 2.032 . S
O121 C125 1.278 . S
C122 O123 1.203 . S
C122 O129 1.267 . S
O123 C122 1.203 . S
O124 C117 1.185 . S
O124 Zn120 2.086 . S
C125 O121 1.278 . S
C125 O126 1.211 . S
O126 C125 1.211 . S
C127 O119 1.284 . S
C127 O128 1.273 . S
O128 C127 1.273 . S
O129 Zn120 1.977 . S
O129 C122 1.267 . S
C130 O131 1.160 . S
C130 O137 1.185 . S
O131 C130 1.160 . S
O132 Zn133 1.899 . S
O132 C140 1.284 . S
Zn133 O132 1.899 . S
Zn133 O134 2.032 1_545 S
Zn133 O137 2.086 . S
Zn133 O142 1.977 1_545 S
O134 Zn133 2.032 1_565 S
O134 C138 1.278 . S
C135 O136 1.203 . S
C135 O142 1.267 . S
O136 C135 1.203 . S
O137 C130 1.185 . S
O137 Zn133 2.086 . S
C138 O134 1.278 . S
C138 O139 1.211 . S
O139 C138 1.211 . S
C140 O132 1.284 . S
C140 O141 1.273 . S
O141 C140 1.273 . S
O142 Zn133 1.977 1_565 S
O142 C135 1.267 . S
C143 O144 1.160 . S
C143 O150 1.185 . S
O144 C143 1.160 . S
O145 Zn146 1.899 . S
O145 C153 1.284 . S
Zn146 O145 1.899 . S
Zn146 O147 2.032 1_554 S
Zn146 O150 2.086 1_554 S
Zn146 O155 1.977 . S
O147 Zn146 2.032 1_556 S
O147 C151 1.278 . S
C148 O149 1.203 . S
C148 O155 1.267 . S
O149 C148 1.203 . S
O150 C143 1.185 . S
O150 Zn146 2.086 1_556 S
C151 O147 1.278 . S
C151 O152 1.211 . S
O152 C151 1.211 . S
C153 O145 1.284 . S
C153 O154 1.273 . S
O154 C153 1.273 . S
O155 Zn146 1.977 . S
O155 C148 1.267 . S
C156 O157 1.160 . S
C156 O163 1.185 . S
O157 C156 1.160 . S
O158 Zn159 1.899 . S
O158 C166 1.284 . S
Zn159 O158 1.899 . S
Zn159 O160 2.032 1_554 S
Zn159 O163 2.086 . S
Zn159 O168 1.977 1_554 S
O160 Zn159 2.032 1_556 S
O160 C164 1.278 . S
C161 O162 1.203 . S
C161 O168 1.267 . S
O162 C161 1.203 . S
O163 C156 1.185 . S
O163 Zn159 2.086 . S
C164 O160 1.278 . S
C164 O165 1.211 . S
O165 C164 1.211 . S
C166 O158 1.284 . S
C166 O167 1.273 . S
O167 C166 1.273 . S
O168 Zn159 1.977 1_556 S
O168 C161 1.267 . S
C169 O170 1.160 . S
C169 O176 1.185 . S
O170 C169 1.160 . S
O171 Zn172 1.899 . S
O171 C179 1.284 . S
Zn172 O171 1.899 . S
Zn172 O173 2.032 1_554 S
Zn172 O176 2.086 . S
Zn172 O181 1.977 1_554 S
O173 Zn172 2.032 1_556 S
O173 C177 1.278 . S
C174 O175 1.203 . S
C174 O181 1.267 . S
O175 C174 1.203 . S
O176 C169 1.185 . S
O176 Zn172 2.086 . S
C177 O173 1.278 . S
C177 O178 1.211 . S
O178 C177 1.211 . S
C179 O171 1.284 . S
C179 O180 1.273 . S
O180 C179 1.273 . S
O181 Zn172 1.977 1_556 S
O181 C174 1.267 . S
C182 O183 1.160 . S
C182 O189 1.185 . S
O183 C182 1.160 . S
O184 Zn185 1.899 . S
O184 C192 1.284 . S
Zn185 O184 1.899 . S
Zn185 O186 2.032 . S
Zn185 O189 2.086 . S
Zn185 O194 1.977 . S
O186 Zn185 2.032 . S
O186 C190 1.278 . S
C187 O188 1.203 . S
C187 O194 1.267 . S
O188 C187 1.203 . S
O189 C182 1.185 . S
O189 Zn185 2.086 . S
C190 O186 1.278 . S
C190 O191 1.211 . S
O191 C190 1.211 . S
C192 O184 1.284 . S
C192 O193 1.273 . S
O193 C192 1.273 . S
O194 Zn185 1.977 . S
O194 C187 1.267 . S
C195 O196 1.160 . S
C195 O202 1.185 . S
O196 C195 1.160 . S
O197 Zn198 1.899 . S
O197 C205 1.284 . S
Zn198 O197 1.899 . S
Zn198 O199 2.032 . S
Zn198 O202 2.086 . S
Zn198 O207 1.977 . S
O199 Zn198 2.032 . S
O199 C203 1.278 . S
C200 O201 1.203 . S
C200 O207 1.267 . S
O201 C200 1.203 . S
O202 C195 1.185 . S
O202 Zn198 2.086 . S
C203 O199 1.278 . S
C203 O204 1.211 . S
O204 C203 1.211 . S
C205 O197 1.284 . S
C205 O206 1.273 . S
O206 C205 1.273 . S
O207 Zn198 1.977 . S
O207 C200 1.267 . S
C208 O209 1.160 . S
C208 O215 1.185 . S
O209 C208 1.160 . S
O210 Zn211 1.899 . S
O210 C218 1.284 . S
Zn211 O210 1.899 . S
Zn211 O212 2.032 1_565 S
Zn211 O215 2.086 1_565 S
Zn211 O220 1.977 . S
O212 Zn211 2.032 1_545 S
O212 C216 1.278 . S
C213 O214 1.203 . S
C213 O220 1.267 . S
O214 C213 1.203 . S
O215 C208 1.185 . S
O215 Zn211 2.086 1_545 S
C216 O212 1.278 . S
C216 O217 1.211 . S
O217 C216 1.211 . S
C218 O210 1.284 . S
C218 O219 1.273 . S
O219 C218 1.273 . S
O220 Zn211 1.977 . S
O220 C213 1.267 . S
C221 O222 1.160 . S
C221 O228 1.185 . S
O222 C221 1.160 . S
O223 Zn224 1.899 . S
O223 C231 1.284 . S
Zn224 O223 1.899 . S
Zn224 O225 2.032 . S
Zn224 O228 2.086 . S
Zn224 O233 1.977 . S
O225 Zn224 2.032 . S
O225 C229 1.278 . S
C226 O227 1.203 . S
C226 O233 1.267 . S
O227 C226 1.203 . S
O228 C221 1.185 . S
O228 Zn224 2.086 . S
C229 O225 1.278 . S
C229 O230 1.211 . S
O230 C229 1.211 . S
C231 O223 1.284 . S
C231 O232 1.273 . S
O232 C231 1.273 . S
O233 Zn224 1.977 . S
O233 C226 1.267 . S
C234 O235 1.160 . S
C234 O241 1.185 . S
O235 C234 1.160 . S
O236 Zn237 1.899 . S
O236 C244 1.284 . S
Zn237 O236 1.899 . S
Zn237 O238 2.032 . S
Zn237 O241 2.086 . S
Zn237 O246 1.977 . S
O238 Zn237 2.032 . S
O238 C242 1.278 . S
C239 O240 1.203 . S
C239 O246 1.267 . S
O240 C239 1.203 . S
O241 C234 1.185 . S
O241 Zn237 2.086 . S
C242 O238 1.278 . S
C242 O243 1.211 . S
O243 C242 1.211 . S
C244 O236 1.284 . S
C244 O245 1.273 . S
O245 C244 1.273 . S
O246 Zn237 1.977 . S
O246 C239 1.267 . S
C247 O248 1.160 . S
C247 O254 1.185 . S
O248 C247 1.160 . S
O249 Zn250 1.899 1_565 S
O249 C257 1.284 . S
Zn250 O249 1.899 1_545 S
Zn250 O251 2.032 . S
Zn250 O254 2.086 . S
Zn250 O259 1.977 1_545 S
O251 Zn250 2.032 . S
O251 C255 1.278 . S
C252 O253 1.203 . S
C252 O259 1.267 . S
O253 C252 1.203 . S
O254 C247 1.185 . S
O254 Zn250 2.086 . S
C255 O251 1.278 . S
C255 O256 1.211 1_545 S
O256 C255 1.211 1_565 S
C257 O249 1.284 . S
C257 O258 1.273 . S
O258 C257 1.273 . S
O259 Zn250 1.977 1_565 S
O259 C252 1.267 . S
C260 O261 1.160 . S
C260 O267 1.185 . S
O261 C260 1.160 . S
O262 Zn263 1.899 . S
O262 C270 1.284 . S
Zn263 O262 1.899 . S
Zn263 O264 2.032 1_554 S
Zn263 O267 2.086 1_554 S
Zn263 O272 1.977 . S
O264 Zn263 2.032 1_556 S
O264 C268 1.278 . S
C265 O266 1.203 . S
C265 O272 1.267 . S
O266 C265 1.203 . S
O267 C260 1.185 . S
O267 Zn263 2.086 1_556 S
C268 O264 1.278 . S
C268 O269 1.211 . S
O269 C268 1.211 . S
C270 O262 1.284 . S
C270 O271 1.273 . S
O271 C270 1.273 . S
O272 Zn263 1.977 . S
O272 C265 1.267 . S
C273 O274 1.160 . S
C273 O280 1.185 . S
O274 C273 1.160 . S
O275 Zn276 1.899 . S
O275 C283 1.284 . S
Zn276 O275 1.899 . S
Zn276 O277 2.032 . S
Zn276 O280 2.086 . S
Zn276 O285 1.977 . S
O277 Zn276 2.032 . S
O277 C281 1.278 . S
C278 O279 1.203 . S
C278 O285 1.267 . S
O279 C278 1.203 . S
O280 C273 1.185 . S
O280 Zn276 2.086 . S
C281 O277 1.278 . S
C281 O282 1.211 . S
O282 C281 1.211 . S
C283 O275 1.284 . S
C283 O284 1.273 . S
O284 C283 1.273 . S
O285 Zn276 1.977 . S
O285 C278 1.267 . S
C286 O287 1.160 . S
C286 O293 1.185 . S
O287 C286 1.160 . S
O288 Zn289 1.899 . S
O288 C296 1.284 . S
Zn289 O288 1.899 . S
Zn289 O290 2.032 . S
Zn289 O293 2.086 . S
Zn289 O298 1.977 . S
O290 Zn289 2.032 . S
O290 C294 1.278 . S
C291 O292 1.203 . S
C291 O298 1.267 . S
O292 C291 1.203 . S
O293 C286 1.185 . S
O293 Zn289 2.086 . S
C294 O290 1.278 . S
C294 O295 1.211 . S
O295 C294 1.211 . S
C296 O288 1.284 . S
C296 O297 1.273 . S
O297 C296 1.273 . S
O298 Zn289 1.977 . S
O298 C291 1.267 . S
C299 O300 1.160 . S
C299 O306 1.185 . S
O300 C299 1.160 . S
O301 Zn302 1.899 . S
O301 C309 1.284 . S
Zn302 O301 1.899 . S
Zn302 O303 2.032 . S
Zn302 O306 2.086 . S
Zn302 O311 1.977 . S
O303 Zn302 2.032 . S
O303 C307 1.278 . S
C304 O305 1.203 . S
C304 O311 1.267 . S
O305 C304 1.203 . S
O306 C299 1.185 . S
O306 Zn302 2.086 . S
C307 O303 1.278 . S
C307 O308 1.211 . S
O308 C307 1.211 . S
C309 O301 1.284 . S
C309 O310 1.273 . S
O310 C309 1.273 . S
O311 Zn302 1.977 . S
O311 C304 1.267 . S
H312 C318 0.930 . S
H313 C321 0.930 . S
H314 C322 0.930 . S
H315 C323 0.930 . S
H316 C326 0.930 . S
H317 C327 0.930 . S
C318 H312 0.930 . S
C318 C319 1.355 . S
C318 C320 1.415 . S
C319 C318 1.355 . S
C319 C321 1.419 . S
C320 C318 1.415 . S
C320 C325 1.425 . S
C320 C327 1.409 . S
C321 H313 0.930 . S
C321 C319 1.419 . S
C321 C322 1.362 . S
C322 H314 0.930 . S
C322 C321 1.362 . S
C322 C325 1.409 . S
C323 H315 0.930 . S
C323 C324 1.355 . S
C323 C325 1.415 . S
C324 C323 1.355 . S
C324 C326 1.419 . S
C325 C320 1.425 . S
C325 C322 1.409 . S
C325 C323 1.415 . S
C326 H316 0.930 . S
C326 C324 1.419 . S
C326 C327 1.362 . S
C327 H317 0.930 . S
C327 C320 1.409 . S
C327 C326 1.362 . S
H328 C334 0.930 . S
H329 C337 0.930 . S
H330 C338 0.930 . S
H331 C339 0.930 . S
H332 C342 0.930 . S
H333 C343 0.930 . S
C334 H328 0.930 . S
C334 C335 1.355 . S
C334 C336 1.415 . S
C335 C334 1.355 . S
C335 C337 1.419 . S
C336 C334 1.415 . S
C336 C341 1.425 . S
C336 C343 1.409 . S
C337 H329 0.930 . S
C337 C335 1.419 . S
C337 C338 1.362 . S
C338 H330 0.930 . S
C338 C337 1.362 . S
C338 C341 1.409 . S
C339 H331 0.930 . S
C339 C340 1.355 . S
C339 C341 1.415 . S
C340 C339 1.355 . S
C340 C342 1.419 . S
C341 C336 1.425 . S
C341 C338 1.409 . S
C341 C339 1.415 . S
C342 H332 0.930 . S
C342 C340 1.419 . S
C342 C343 1.362 . S
C343 H333 0.930 . S
C343 C336 1.409 . S
C343 C342 1.362 . S
H344 C350 0.930 . S
H345 C353 0.930 . S
H346 C354 0.930 . S
H347 C355 0.930 . S
H348 C358 0.930 . S
H349 C359 0.930 . S
C350 H344 0.930 . S
C350 C351 1.355 . S
C350 C352 1.415 . S
C351 C350 1.355 . S
C351 C353 1.419 . S
C352 C350 1.415 . S
C352 C357 1.425 . S
C352 C359 1.409 . S
C353 H345 0.930 . S
C353 C351 1.419 . S
C353 C354 1.362 . S
C354 H346 0.930 . S
C354 C353 1.362 . S
C354 C357 1.409 . S
C355 H347 0.930 . S
C355 C356 1.355 . S
C355 C357 1.415 . S
C356 C355 1.355 . S
C356 C358 1.419 . S
C357 C352 1.425 . S
C357 C354 1.409 . S
C357 C355 1.415 . S
C358 H348 0.930 . S
C358 C356 1.419 . S
C358 C359 1.362 . S
C359 H349 0.930 . S
C359 C352 1.409 . S
C359 C358 1.362 . S
H360 C366 0.930 . S
H361 C369 0.930 . S
H362 C370 0.930 . S
H363 C371 0.930 . S
H364 C374 0.930 . S
H365 C375 0.930 . S
C366 H360 0.930 . S
C366 C367 1.355 . S
C366 C368 1.415 . S
C367 C366 1.355 . S
C367 C369 1.419 . S
C368 C366 1.415 . S
C368 C373 1.425 . S
C368 C375 1.409 . S
C369 H361 0.930 . S
C369 C367 1.419 . S
C369 C370 1.362 . S
C370 H362 0.930 . S
C370 C369 1.362 . S
C370 C373 1.409 . S
C371 H363 0.930 . S
C371 C372 1.355 . S
C371 C373 1.415 . S
C372 C371 1.355 . S
C372 C374 1.419 . S
C373 C368 1.425 . S
C373 C370 1.409 . S
C373 C371 1.415 . S
C374 H364 0.930 . S
C374 C372 1.419 . S
C374 C375 1.362 . S
C375 H365 0.930 . S
C375 C368 1.409 . S
C375 C374 1.362 . S
H376 C382 0.930 . S
H377 C385 0.930 . S
H378 C386 0.930 . S
H379 C387 0.930 . S
H380 C390 0.930 1_655 S
H381 C391 0.930 1_655 S
C382 H376 0.930 . S
C382 C383 1.355 . S
C382 C384 1.415 . S
C383 C382 1.355 . S
C383 C385 1.419 . S
C384 C382 1.415 . S
C384 C389 1.425 . S
C384 C391 1.409 . S
C385 H377 0.930 . S
C385 C383 1.419 . S
C385 C386 1.362 . S
C386 H378 0.930 . S
C386 C385 1.362 . S
C386 C389 1.409 . S
C387 H379 0.930 . S
C387 C388 1.355 . S
C387 C389 1.415 . S
C388 C387 1.355 . S
C388 C390 1.419 . S
C389 C384 1.425 . S
C389 C386 1.409 . S
C389 C387 1.415 . S
C390 H380 0.930 1_455 S
C390 C388 1.419 . S
C390 C391 1.362 . S
C391 H381 0.930 1_455 S
C391 C384 1.409 . S
C391 C390 1.362 . S
H392 C398 0.930 . S
H393 C401 0.930 . S
H394 C402 0.930 . S
H395 C403 0.930 . S
H396 C406 0.930 . S
H397 C407 0.930 . S
C398 H392 0.930 . S
C398 C399 1.355 . S
C398 C400 1.415 . S
C399 C398 1.355 . S
C399 C401 1.419 . S
C400 C398 1.415 . S
C400 C405 1.425 . S
C400 C407 1.409 . S
C401 H393 0.930 . S
C401 C399 1.419 . S
C401 C402 1.362 . S
C402 H394 0.930 . S
C402 C401 1.362 . S
C402 C405 1.409 . S
C403 H395 0.930 . S
C403 C404 1.355 . S
C403 C405 1.415 . S
C404 C403 1.355 . S
C404 C406 1.419 . S
C405 C400 1.425 . S
C405 C402 1.409 . S
C405 C403 1.415 . S
C406 H396 0.930 . S
C406 C404 1.419 . S
C406 C407 1.362 . S
C407 H397 0.930 . S
C407 C400 1.409 . S
C407 C406 1.362 . S
H408 C414 0.930 . S
H409 C417 0.930 . S
H410 C418 0.930 . S
H411 C419 0.930 . S
H412 C422 0.930 . S
H413 C423 0.930 . S
C414 H408 0.930 . S
C414 C415 1.355 . S
C414 C416 1.415 . S
C415 C414 1.355 . S
C415 C417 1.419 . S
C416 C414 1.415 . S
C416 C421 1.425 . S
C416 C423 1.409 . S
C417 H409 0.930 . S
C417 C415 1.419 . S
C417 C418 1.362 . S
C418 H410 0.930 . S
C418 C417 1.362 . S
C418 C421 1.409 . S
C419 H411 0.930 . S
C419 C420 1.355 . S
C419 C421 1.415 . S
C420 C419 1.355 . S
C420 C422 1.419 . S
C421 C416 1.425 . S
C421 C418 1.409 . S
C421 C419 1.415 . S
C422 H412 0.930 . S
C422 C420 1.419 . S
C422 C423 1.362 . S
C423 H413 0.930 . S
C423 C416 1.409 . S
C423 C422 1.362 . S
H424 C430 0.930 . S
H425 C433 0.930 . S
H426 C434 0.930 . S
H427 C435 0.930 . S
H428 C438 0.930 . S
H429 C439 0.930 . S
C430 H424 0.930 . S
C430 C431 1.355 . S
C430 C432 1.415 . S
C431 C430 1.355 . S
C431 C433 1.419 . S
C432 C430 1.415 . S
C432 C437 1.425 . S
C432 C439 1.409 . S
C433 H425 0.930 . S
C433 C431 1.419 . S
C433 C434 1.362 . S
C434 H426 0.930 . S
C434 C433 1.362 . S
C434 C437 1.409 . S
C435 H427 0.930 . S
C435 C436 1.355 . S
C435 C437 1.415 . S
C436 C435 1.355 . S
C436 C438 1.419 . S
C437 C432 1.425 . S
C437 C434 1.409 . S
C437 C435 1.415 . S
C438 H428 0.930 . S
C438 C436 1.419 . S
C438 C439 1.362 . S
C439 H429 0.930 . S
C439 C432 1.409 . S
C439 C438 1.362 . S
H440 C446 0.930 . S
H441 C449 0.930 . S
H442 C450 0.930 . S
H443 C451 0.930 . S
H444 C454 0.930 . S
H445 C455 0.930 . S
C446 H440 0.930 . S
C446 C447 1.355 . S
C446 C448 1.415 . S
C447 C446 1.355 . S
C447 C449 1.419 . S
C448 C446 1.415 . S
C448 C453 1.425 . S
C448 C455 1.409 . S
C449 H441 0.930 . S
C449 C447 1.419 . S
C449 C450 1.362 . S
C450 H442 0.930 . S
C450 C449 1.362 . S
C450 C453 1.409 . S
C451 H443 0.930 . S
C451 C452 1.355 . S
C451 C453 1.415 . S
C452 C451 1.355 . S
C452 C454 1.419 . S
C453 C448 1.425 . S
C453 C450 1.409 . S
C453 C451 1.415 . S
C454 H444 0.930 . S
C454 C452 1.419 . S
C454 C455 1.362 . S
C455 H445 0.930 . S
C455 C448 1.409 . S
C455 C454 1.362 . S
H456 C462 0.930 . S
H457 C465 0.930 1_565 S
H458 C466 0.930 . S
H459 C467 0.930 . S
H460 C470 0.930 . S
H461 C471 0.930 . S
C462 H456 0.930 . S
C462 C463 1.355 . S
C462 C464 1.415 . S
C463 C462 1.355 . S
C463 C465 1.419 . S
C464 C462 1.415 . S
C464 C469 1.425 . S
C464 C471 1.409 . S
C465 H457 0.930 1_545 S
C465 C463 1.419 . S
C465 C466 1.362 . S
C466 H458 0.930 . S
C466 C465 1.362 . S
C466 C469 1.409 . S
C467 H459 0.930 . S
C467 C468 1.355 . S
C467 C469 1.415 . S
C468 C467 1.355 . S
C468 C470 1.419 . S
C469 C464 1.425 . S
C469 C466 1.409 . S
C469 C467 1.415 . S
C470 H460 0.930 . S
C470 C468 1.419 . S
C470 C471 1.362 . S
C471 H461 0.930 . S
C471 C464 1.409 . S
C471 C470 1.362 . S
H472 C478 0.930 1_545 S
H473 C481 0.930 . S
H474 C482 0.930 . S
H475 C483 0.930 . S
H476 C486 0.930 . S
H477 C487 0.930 1_545 S
C478 H472 0.930 1_565 S
C478 C479 1.355 . S
C478 C480 1.415 . S
C479 C478 1.355 . S
C479 C481 1.419 . S
C480 C478 1.415 . S
C480 C485 1.425 . S
C480 C487 1.409 . S
C481 H473 0.930 . S
C481 C479 1.419 . S
C481 C482 1.362 . S
C482 H474 0.930 . S
C482 C481 1.362 . S
C482 C485 1.409 . S
C483 H475 0.930 . S
C483 C484 1.355 . S
C483 C485 1.415 . S
C484 C483 1.355 . S
C484 C486 1.419 . S
C485 C480 1.425 . S
C485 C482 1.409 . S
C485 C483 1.415 . S
C486 H476 0.930 . S
C486 C484 1.419 . S
C486 C487 1.362 . S
C487 H477 0.930 1_565 S
C487 C480 1.409 . S
C487 C486 1.362 . S
H488 C494 0.930 . S
H489 C497 0.930 . S
H490 C498 0.930 . S
H491 C499 0.930 . S
H492 C502 0.930 . S
H493 C503 0.930 . S
C494 H488 0.930 . S
C494 C495 1.355 . S
C494 C496 1.415 . S
C495 C494 1.355 . S
C495 C497 1.419 . S
C496 C494 1.415 . S
C496 C501 1.425 . S
C496 C503 1.409 . S
C497 H489 0.930 . S
C497 C495 1.419 . S
C497 C498 1.362 . S
C498 H490 0.930 . S
C498 C497 1.362 . S
C498 C501 1.409 . S
C499 H491 0.930 . S
C499 C500 1.355 . S
C499 C501 1.415 . S
C500 C499 1.355 . S
C500 C502 1.419 . S
C501 C496 1.425 . S
C501 C498 1.409 . S
C501 C499 1.415 . S
C502 H492 0.930 . S
C502 C500 1.419 . S
C502 C503 1.362 . S
C503 H493 0.930 . S
C503 C496 1.409 . S
C503 C502 1.362 . S
H504 C510 0.930 . S
H505 C513 0.930 . S
H506 C514 0.930 . S
H507 C515 0.930 . S
H508 C518 0.930 . S
H509 C519 0.930 . S
C510 H504 0.930 . S
C510 C511 1.355 . S
C510 C512 1.415 . S
C511 C510 1.355 . S
C511 C513 1.419 . S
C512 C510 1.415 . S
C512 C517 1.425 . S
C512 C519 1.409 . S
C513 H505 0.930 . S
C513 C511 1.419 . S
C513 C514 1.362 . S
C514 H506 0.930 . S
C514 C513 1.362 . S
C514 C517 1.409 . S
C515 H507 0.930 . S
C515 C516 1.355 . S
C515 C517 1.415 . S
C516 C515 1.355 . S
C516 C518 1.419 . S
C517 C512 1.425 . S
C517 C514 1.409 . S
C517 C515 1.415 . S
C518 H508 0.930 . S
C518 C516 1.419 . S
C518 C519 1.362 . S
C519 H509 0.930 . S
C519 C512 1.409 . S
C519 C518 1.362 . S
H520 C526 0.930 . S
H521 C529 0.930 1_455 S
H522 C530 0.930 1_455 S
H523 C531 0.930 . S
H524 C534 0.930 . S
H525 C535 0.930 . S
C526 H520 0.930 . S
C526 C527 1.355 . S
C526 C528 1.415 . S
C527 C526 1.355 . S
C527 C529 1.419 . S
C528 C526 1.415 . S
C528 C533 1.425 . S
C528 C535 1.409 . S
C529 H521 0.930 1_655 S
C529 C527 1.419 . S
C529 C530 1.362 . S
C530 H522 0.930 1_655 S
C530 C529 1.362 . S
C530 C533 1.409 . S
C531 H523 0.930 . S
C531 C532 1.355 . S
C531 C533 1.415 . S
C532 C531 1.355 . S
C532 C534 1.419 . S
C533 C528 1.425 . S
C533 C530 1.409 . S
C533 C531 1.415 . S
C534 H524 0.930 . S
C534 C532 1.419 . S
C534 C535 1.362 . S
C535 H525 0.930 . S
C535 C528 1.409 . S
C535 C534 1.362 . S
H536 C542 0.930 . S
H537 C545 0.930 . S
H538 C546 0.930 . S
H539 C547 0.930 . S
H540 C550 0.930 . S
H541 C551 0.930 . S
C542 H536 0.930 . S
C542 C543 1.355 . S
C542 C544 1.415 . S
C543 C542 1.355 . S
C543 C545 1.419 . S
C544 C542 1.415 . S
C544 C549 1.425 . S
C544 C551 1.409 . S
C545 H537 0.930 . S
C545 C543 1.419 . S
C545 C546 1.362 . S
C546 H538 0.930 . S
C546 C545 1.362 . S
C546 C549 1.409 . S
C547 H539 0.930 . S
C547 C548 1.355 . S
C547 C549 1.415 . S
C548 C547 1.355 . S
C548 C550 1.419 . S
C549 C544 1.425 . S
C549 C546 1.409 . S
C549 C547 1.415 . S
C550 H540 0.930 . S
C550 C548 1.419 . S
C550 C551 1.362 . S
C551 H541 0.930 . S
C551 C544 1.409 . S
C551 C550 1.362 . S
H552 C558 0.930 . S
H553 C561 0.930 . S
H554 C562 0.930 . S
H555 C563 0.930 . S
H556 C566 0.930 . S
H557 C567 0.930 . S
C558 H552 0.930 . S
C558 C559 1.355 . S
C558 C560 1.415 . S
C559 C558 1.355 . S
C559 C561 1.419 . S
C560 C558 1.415 . S
C560 C565 1.425 . S
C560 C567 1.409 . S
C561 H553 0.930 . S
C561 C559 1.419 . S
C561 C562 1.362 . S
C562 H554 0.930 . S
C562 C561 1.362 . S
C562 C565 1.409 . S
C563 H555 0.930 . S
C563 C564 1.355 . S
C563 C565 1.415 . S
C564 C563 1.355 . S
C564 C566 1.419 . S
C565 C560 1.425 . S
C565 C562 1.409 . S
C565 C563 1.415 . S
C566 H556 0.930 . S
C566 C564 1.419 . S
C566 C567 1.362 . S
C567 H557 0.930 . S
C567 C560 1.409 . S
C567 C566 1.362 . S
H568 C574 0.930 . S
H569 C577 0.930 . S
H570 C578 0.930 . S
H571 C579 0.930 . S
H572 C582 0.930 . S
H573 C583 0.930 . S
C574 H568 0.930 . S
C574 C575 1.355 . S
C574 C576 1.415 . S
C575 C574 1.355 . S
C575 C577 1.419 . S
C576 C574 1.415 . S
C576 C581 1.425 . S
C576 C583 1.409 . S
C577 H569 0.930 . S
C577 C575 1.419 . S
C577 C578 1.362 . S
C578 H570 0.930 . S
C578 C577 1.362 . S
C578 C581 1.409 . S
C579 H571 0.930 . S
C579 C580 1.355 . S
C579 C581 1.415 . S
C580 C579 1.355 . S
C580 C582 1.419 . S
C581 C576 1.425 . S
C581 C578 1.409 . S
C581 C579 1.415 . S
C582 H572 0.930 . S
C582 C580 1.419 . S
C582 C583 1.362 . S
C583 H573 0.930 . S
C583 C576 1.409 . S
C583 C582 1.362 . S
H584 C590 0.930 . S
H585 C593 0.930 . S
H586 C594 0.930 . S
H587 C595 0.930 . S
H588 C598 0.930 . S
H589 C599 0.930 . S
C590 H584 0.930 . S
C590 C591 1.355 . S
C590 C592 1.415 . S
C591 C590 1.355 . S
C591 C593 1.419 . S
C592 C590 1.415 . S
C592 C597 1.425 . S
C592 C599 1.409 . S
C593 H585 0.930 . S
C593 C591 1.419 . S
C593 C594 1.362 . S
C594 H586 0.930 . S
C594 C593 1.362 . S
C594 C597 1.409 . S
C595 H587 0.930 . S
C595 C596 1.355 . S
C595 C597 1.415 . S
C596 C595 1.355 . S
C596 C598 1.419 . S
C597 C592 1.425 . S
C597 C594 1.409 . S
C597 C595 1.415 . S
C598 H588 0.930 . S
C598 C596 1.419 . S
C598 C599 1.362 . S
C599 H589 0.930 . S
C599 C592 1.409 . S
C599 C598 1.362 . S
H600 C606 0.930 . S
H601 C609 0.930 . S
H602 C610 0.930 . S
H603 C611 0.930 . S
H604 C614 0.930 . S
H605 C615 0.930 . S
C606 H600 0.930 . S
C606 C607 1.355 . S
C606 C608 1.415 . S
C607 C606 1.355 . S
C607 C609 1.419 . S
C608 C606 1.415 . S
C608 C613 1.425 . S
C608 C615 1.409 . S
C609 H601 0.930 . S
C609 C607 1.419 . S
C609 C610 1.362 . S
C610 H602 0.930 . S
C610 C609 1.362 . S
C610 C613 1.409 . S
C611 H603 0.930 . S
C611 C612 1.355 . S
C611 C613 1.415 . S
C612 C611 1.355 . S
C612 C614 1.419 . S
C613 C608 1.425 . S
C613 C610 1.409 . S
C613 C611 1.415 . S
C614 H604 0.930 . S
C614 C612 1.419 . S
C614 C615 1.362 . S
C615 H605 0.930 . S
C615 C608 1.409 . S
C615 C614 1.362 . S
H616 C622 0.930 . S
H617 C625 0.930 . S
H618 C626 0.930 . S
H619 C627 0.930 . S
H620 C630 0.930 1_455 S
H621 C631 0.930 . S
C622 H616 0.930 . S
C622 C623 1.355 . S
C622 C624 1.415 . S
C623 C622 1.355 . S
C623 C625 1.419 . S
C624 C622 1.415 . S
C624 C629 1.425 . S
C624 C631 1.409 . S
C625 H617 0.930 . S
C625 C623 1.419 . S
C625 C626 1.362 . S
C626 H618 0.930 . S
C626 C625 1.362 . S
C626 C629 1.409 . S
C627 H619 0.930 . S
C627 C628 1.355 . S
C627 C629 1.415 . S
C628 C627 1.355 . S
C628 C630 1.419 . S
C629 C624 1.425 . S
C629 C626 1.409 . S
C629 C627 1.415 . S
C630 H620 0.930 1_655 S
C630 C628 1.419 . S
C630 C631 1.362 . S
C631 H621 0.930 . S
C631 C624 1.409 . S
C631 C630 1.362 . S
H632 C638 0.930 . S
H633 C641 0.930 . S
H634 C642 0.930 . S
H635 C643 0.930 . S
H636 C646 0.930 . S
H637 C647 0.930 . S
C638 H632 0.930 . S
C638 C639 1.355 . S
C638 C640 1.415 . S
C639 C638 1.355 . S
C639 C641 1.419 . S
C640 C638 1.415 . S
C640 C645 1.425 . S
C640 C647 1.409 . S
C641 H633 0.930 . S
C641 C639 1.419 . S
C641 C642 1.362 . S
C642 H634 0.930 . S
C642 C641 1.362 . S
C642 C645 1.409 . S
C643 H635 0.930 . S
C643 C644 1.355 . S
C643 C645 1.415 . S
C644 C643 1.355 . S
C644 C646 1.419 . S
C645 C640 1.425 . S
C645 C642 1.409 . S
C645 C643 1.415 . S
C646 H636 0.930 . S
C646 C644 1.419 . S
C646 C647 1.362 . S
C647 H637 0.930 . S
C647 C640 1.409 . S
C647 C646 1.362 . S
H648 C654 0.930 . S
H649 C657 0.930 . S
H650 C658 0.930 . S
H651 C659 0.930 . S
H652 C662 0.930 . S
H653 C663 0.930 . S
C654 H648 0.930 . S
C654 C655 1.355 . S
C654 C656 1.415 . S
C655 C654 1.355 . S
C655 C657 1.419 . S
C656 C654 1.415 . S
C656 C661 1.425 . S
C656 C663 1.409 . S
C657 H649 0.930 . S
C657 C655 1.419 . S
C657 C658 1.362 . S
C658 H650 0.930 . S
C658 C657 1.362 . S
C658 C661 1.409 . S
C659 H651 0.930 . S
C659 C660 1.355 . S
C659 C661 1.415 . S
C660 C659 1.355 . S
C660 C662 1.419 . S
C661 C656 1.425 . S
C661 C658 1.409 . S
C661 C659 1.415 . S
C662 H652 0.930 . S
C662 C660 1.419 . S
C662 C663 1.362 . S
C663 H653 0.930 . S
C663 C656 1.409 . S
C663 C662 1.362 . S
H664 C670 0.930 . S
H665 C673 0.930 . S
H666 C674 0.930 . S
H667 C675 0.930 . S
H668 C678 0.930 . S
H669 C679 0.930 . S
C670 H664 0.930 . S
C670 C671 1.355 . S
C670 C672 1.415 . S
C671 C670 1.355 . S
C671 C673 1.419 . S
C672 C670 1.415 . S
C672 C677 1.425 . S
C672 C679 1.409 . S
C673 H665 0.930 . S
C673 C671 1.419 . S
C673 C674 1.362 . S
C674 H666 0.930 . S
C674 C673 1.362 . S
C674 C677 1.409 . S
C675 H667 0.930 . S
C675 C676 1.355 . S
C675 C677 1.415 . S
C676 C675 1.355 . S
C676 C678 1.419 . S
C677 C672 1.425 . S
C677 C674 1.409 . S
C677 C675 1.415 . S
C678 H668 0.930 . S
C678 C676 1.419 . S
C678 C679 1.362 . S
C679 H669 0.930 . S
C679 C672 1.409 . S
C679 C678 1.362 . S
H680 C686 0.930 . S
H681 C689 0.930 . S
H682 C690 0.930 . S
H683 C691 0.930 . S
H684 C694 0.930 . S
H685 C695 0.930 . S
C686 H680 0.930 . S
C686 C687 1.355 . S
C686 C688 1.415 . S
C687 C686 1.355 . S
C687 C689 1.419 . S
C688 C686 1.415 . S
C688 C693 1.425 . S
C688 C695 1.409 . S
C689 H681 0.930 . S
C689 C687 1.419 . S
C689 C690 1.362 . S
C690 H682 0.930 . S
C690 C689 1.362 . S
C690 C693 1.409 . S
C691 H683 0.930 . S
C691 C692 1.355 . S
C691 C693 1.415 . S
C692 C691 1.355 . S
C692 C694 1.419 . S
C693 C688 1.425 . S
C693 C690 1.409 . S
C693 C691 1.415 . S
C694 H684 0.930 . S
C694 C692 1.419 . S
C694 C695 1.362 . S
C695 H685 0.930 . S
C695 C688 1.409 . S
C695 C694 1.362 . S
H696 C702 0.930 . S
H697 C705 0.930 . S
H698 C706 0.930 . S
H699 C707 0.930 . S
H700 C710 0.930 . S
H701 C711 0.930 . S
C702 H696 0.930 . S
C702 C703 1.355 . S
C702 C704 1.415 . S
C703 C702 1.355 . S
C703 C705 1.419 . S
C704 C702 1.415 . S
C704 C709 1.425 . S
C704 C711 1.409 . S
C705 H697 0.930 . S
C705 C703 1.419 . S
C705 C706 1.362 . S
C706 H698 0.930 . S
C706 C705 1.362 . S
C706 C709 1.409 . S
C707 H699 0.930 . S
C707 C708 1.355 . S
C707 C709 1.415 . S
C708 C707 1.355 . S
C708 C710 1.419 . S
C709 C704 1.425 . S
C709 C706 1.409 . S
C709 C707 1.415 . S
C710 H700 0.930 . S
C710 C708 1.419 . S
C710 C711 1.362 . S
C711 H701 0.930 . S
C711 C704 1.409 . S
C711 C710 1.362 . S
H712 C718 0.930 . S
H713 C721 0.930 . S
H714 C722 0.930 . S
H715 C723 0.930 . S
H716 C726 0.930 . S
H717 C727 0.930 . S
C718 H712 0.930 . S
C718 C719 1.355 . S
C718 C720 1.415 . S
C719 C718 1.355 . S
C719 C721 1.419 . S
C720 C718 1.415 . S
C720 C725 1.425 . S
C720 C727 1.409 . S
C721 H713 0.930 . S
C721 C719 1.419 . S
C721 C722 1.362 . S
C722 H714 0.930 . S
C722 C721 1.362 . S
C722 C725 1.409 . S
C723 H715 0.930 . S
C723 C724 1.355 . S
C723 C725 1.415 . S
C724 C723 1.355 . S
C724 C726 1.419 . S
C725 C720 1.425 . S
C725 C722 1.409 . S
C725 C723 1.415 . S
C726 H716 0.930 . S
C726 C724 1.419 . S
C726 C727 1.362 . S
C727 H717 0.930 . S
C727 C720 1.409 . S
C727 C726 1.362 . S
H728 C734 0.930 . S
H729 C737 0.930 . S
H730 C738 0.930 . S
H731 C739 0.930 . S
H732 C742 0.930 . S
H733 C743 0.930 . S
C734 H728 0.930 . S
C734 C735 1.355 . S
C734 C736 1.415 . S
C735 C734 1.355 . S
C735 C737 1.419 . S
C736 C734 1.415 . S
C736 C741 1.425 . S
C736 C743 1.409 . S
C737 H729 0.930 . S
C737 C735 1.419 . S
C737 C738 1.362 . S
C738 H730 0.930 . S
C738 C737 1.362 . S
C738 C741 1.409 . S
C739 H731 0.930 . S
C739 C740 1.355 . S
C739 C741 1.415 . S
C740 C739 1.355 . S
C740 C742 1.419 . S
C741 C736 1.425 . S
C741 C738 1.409 . S
C741 C739 1.415 . S
C742 H732 0.930 . S
C742 C740 1.419 . S
C742 C743 1.362 . S
C743 H733 0.930 . S
C743 C736 1.409 . S
C743 C742 1.362 . S
H744 C750 0.930 . S
H745 C753 0.930 . S
H746 C754 0.930 . S
H747 C755 0.930 . S
H748 C758 0.930 . S
H749 C759 0.930 . S
C750 H744 0.930 . S
C750 C751 1.355 . S
C750 C752 1.415 . S
C751 C750 1.355 . S
C751 C753 1.419 . S
C752 C750 1.415 . S
C752 C757 1.425 . S
C752 C759 1.409 . S
C753 H745 0.930 . S
C753 C751 1.419 . S
C753 C754 1.362 . S
C754 H746 0.930 . S
C754 C753 1.362 . S
C754 C757 1.409 . S
C755 H747 0.930 . S
C755 C756 1.355 . S
C755 C757 1.415 . S
C756 C755 1.355 . S
C756 C758 1.419 . S
C757 C752 1.425 . S
C757 C754 1.409 . S
C757 C755 1.415 . S
C758 H748 0.930 . S
C758 C756 1.419 . S
C758 C759 1.362 . S
C759 H749 0.930 . S
C759 C752 1.409 . S
C759 C758 1.362 . S
H760 C766 0.930 . S
H761 C769 0.930 . S
H762 C770 0.930 . S
H763 C771 0.930 . S
H764 C774 0.930 . S
H765 C775 0.930 . S
C766 H760 0.930 . S
C766 C767 1.355 . S
C766 C768 1.415 . S
C767 C766 1.355 . S
C767 C769 1.419 . S
C768 C766 1.415 . S
C768 C773 1.425 . S
C768 C775 1.409 . S
C769 H761 0.930 . S
C769 C767 1.419 . S
C769 C770 1.362 . S
C770 H762 0.930 . S
C770 C769 1.362 . S
C770 C773 1.409 . S
C771 H763 0.930 . S
C771 C772 1.355 . S
C771 C773 1.415 . S
C772 C771 1.355 . S
C772 C774 1.419 . S
C773 C768 1.425 . S
C773 C770 1.409 . S
C773 C771 1.415 . S
C774 H764 0.930 . S
C774 C772 1.419 . S
C774 C775 1.362 . S
C775 H765 0.930 . S
C775 C768 1.409 . S
C775 C774 1.362 . S
H776 C782 0.930 . S
H777 C785 0.930 . S
H778 C786 0.930 . S
H779 C787 0.930 . S
H780 C790 0.930 . S
H781 C791 0.930 . S
C782 H776 0.930 . S
C782 C783 1.355 . S
C782 C784 1.415 . S
C783 C782 1.355 . S
C783 C785 1.419 . S
C784 C782 1.415 . S
C784 C789 1.425 . S
C784 C791 1.409 . S
C785 H777 0.930 . S
C785 C783 1.419 . S
C785 C786 1.362 . S
C786 H778 0.930 . S
C786 C785 1.362 . S
C786 C789 1.409 . S
C787 H779 0.930 . S
C787 C788 1.355 . S
C787 C789 1.415 . S
C788 C787 1.355 . S
C788 C790 1.419 . S
C789 C784 1.425 . S
C789 C786 1.409 . S
C789 C787 1.415 . S
C790 H780 0.930 . S
C790 C788 1.419 . S
C790 C791 1.362 . S
C791 H781 0.930 . S
C791 C784 1.409 . S
C791 C790 1.362 . S
H792 C798 0.930 . S
H793 C801 0.930 . S
H794 C802 0.930 . S
H795 C803 0.930 . S
H796 C806 0.930 . S
H797 C807 0.930 . S
C798 H792 0.930 . S
C798 C799 1.355 . S
C798 C800 1.415 . S
C799 C798 1.355 . S
C799 C801 1.419 . S
C800 C798 1.415 . S
C800 C805 1.425 . S
C800 C807 1.409 . S
C801 H793 0.930 . S
C801 C799 1.419 . S
C801 C802 1.362 . S
C802 H794 0.930 . S
C802 C801 1.362 . S
C802 C805 1.409 . S
C803 H795 0.930 . S
C803 C804 1.355 . S
C803 C805 1.415 . S
C804 C803 1.355 . S
C804 C806 1.419 . S
C805 C800 1.425 . S
C805 C802 1.409 . S
C805 C803 1.415 . S
C806 H796 0.930 . S
C806 C804 1.419 . S
C806 C807 1.362 . S
C807 H797 0.930 . S
C807 C800 1.409 . S
C807 C806 1.362 . S
H808 C814 0.930 1_455 S
H809 C817 0.930 . S
H810 C818 0.930 . S
H811 C819 0.930 . S
H812 C822 0.930 . S
H813 C823 0.930 1_455 S
C814 H808 0.930 1_655 S
C814 C815 1.355 . S
C814 C816 1.415 . S
C815 C814 1.355 . S
C815 C817 1.419 . S
C816 C814 1.415 . S
C816 C821 1.425 . S
C816 C823 1.409 . S
C817 H809 0.930 . S
C817 C815 1.419 . S
C817 C818 1.362 . S
C818 H810 0.930 . S
C818 C817 1.362 . S
C818 C821 1.409 . S
C819 H811 0.930 . S
C819 C820 1.355 . S
C819 C821 1.415 . S
C820 C819 1.355 . S
C820 C822 1.419 . S
C821 C816 1.425 . S
C821 C818 1.409 . S
C821 C819 1.415 . S
C822 H812 0.930 . S
C822 C820 1.419 . S
C822 C823 1.362 . S
C823 H813 0.930 1_655 S
C823 C816 1.409 . S
C823 C822 1.362 . S
H824 C830 0.930 . S
H825 C833 0.930 . S
H826 C834 0.930 . S
H827 C835 0.930 . S
H828 C838 0.930 . S
H829 C839 0.930 . S
C830 H824 0.930 . S
C830 C831 1.355 . S
C830 C832 1.415 . S
C831 C830 1.355 . S
C831 C833 1.419 . S
C832 C830 1.415 . S
C832 C837 1.425 . S
C832 C839 1.409 . S
C833 H825 0.930 . S
C833 C831 1.419 . S
C833 C834 1.362 . S
C834 H826 0.930 . S
C834 C833 1.362 . S
C834 C837 1.409 . S
C835 H827 0.930 . S
C835 C836 1.355 . S
C835 C837 1.415 . S
C836 C835 1.355 . S
C836 C838 1.419 . S
C837 C832 1.425 . S
C837 C834 1.409 . S
C837 C835 1.415 . S
C838 H828 0.930 . S
C838 C836 1.419 . S
C838 C839 1.362 . S
C839 H829 0.930 . S
C839 C832 1.409 . S
C839 C838 1.362 . S
H840 C846 0.930 . S
H841 C849 0.930 . S
H842 C850 0.930 . S
H843 C851 0.930 . S
H844 C854 0.930 . S
H845 C855 0.930 . S
C846 H840 0.930 . S
C846 C847 1.355 . S
C846 C848 1.415 . S
C847 C846 1.355 . S
C847 C849 1.419 . S
C848 C846 1.415 . S
C848 C853 1.425 . S
C848 C855 1.409 . S
C849 H841 0.930 . S
C849 C847 1.419 . S
C849 C850 1.362 . S
C850 H842 0.930 . S
C850 C849 1.362 . S
C850 C853 1.409 . S
C851 H843 0.930 . S
C851 C852 1.355 . S
C851 C853 1.415 . S
C852 C851 1.355 . S
C852 C854 1.419 . S
C853 C848 1.425 . S
C853 C850 1.409 . S
C853 C851 1.415 . S
C854 H844 0.930 . S
C854 C852 1.419 . S
C854 C855 1.362 . S
C855 H845 0.930 . S
C855 C848 1.409 . S
C855 C854 1.362 . S
H856 C862 0.930 . S
H857 C865 0.930 . S
H858 C866 0.930 . S
H859 C867 0.930 . S
H860 C870 0.930 . S
H861 C871 0.930 . S
C862 H856 0.930 . S
C862 C863 1.355 . S
C862 C864 1.415 . S
C863 C862 1.355 . S
C863 C865 1.419 . S
C864 C862 1.415 . S
C864 C869 1.425 . S
C864 C871 1.409 . S
C865 H857 0.930 . S
C865 C863 1.419 . S
C865 C866 1.362 . S
C866 H858 0.930 . S
C866 C865 1.362 . S
C866 C869 1.409 . S
C867 H859 0.930 . S
C867 C868 1.355 . S
C867 C869 1.415 . S
C868 C867 1.355 . S
C868 C870 1.419 . S
C869 C864 1.425 . S
C869 C866 1.409 . S
C869 C867 1.415 . S
C870 H860 0.930 . S
C870 C868 1.419 . S
C870 C871 1.362 . S
C871 H861 0.930 . S
C871 C864 1.409 . S
C871 C870 1.362 . S
H872 C878 0.930 . S
H873 C881 0.930 . S
H874 C882 0.930 . S
H875 C883 0.930 . S
H876 C886 0.930 . S
H877 C887 0.930 . S
C878 H872 0.930 . S
C878 C879 1.355 . S
C878 C880 1.415 . S
C879 C878 1.355 . S
C879 C881 1.419 . S
C880 C878 1.415 . S
C880 C885 1.425 . S
C880 C887 1.409 . S
C881 H873 0.930 . S
C881 C879 1.419 . S
C881 C882 1.362 . S
C882 H874 0.930 . S
C882 C881 1.362 . S
C882 C885 1.409 . S
C883 H875 0.930 . S
C883 C884 1.355 . S
C883 C885 1.415 . S
C884 C883 1.355 . S
C884 C886 1.419 . S
C885 C880 1.425 . S
C885 C882 1.409 . S
C885 C883 1.415 . S
C886 H876 0.930 . S
C886 C884 1.419 . S
C886 C887 1.362 . S
C887 H877 0.930 . S
C887 C880 1.409 . S
C887 C886 1.362 . S
H888 C894 0.930 . S
H889 C897 0.930 . S
H890 C898 0.930 . S
H891 C899 0.930 . S
H892 C902 0.930 . S
H893 C903 0.930 . S
C894 H888 0.930 . S
C894 C895 1.355 . S
C894 C896 1.415 . S
C895 C894 1.355 . S
C895 C897 1.419 . S
C896 C894 1.415 . S
C896 C901 1.425 . S
C896 C903 1.409 . S
C897 H889 0.930 . S
C897 C895 1.419 . S
C897 C898 1.362 . S
C898 H890 0.930 . S
C898 C897 1.362 . S
C898 C901 1.409 . S
C899 H891 0.930 . S
C899 C900 1.355 . S
C899 C901 1.415 . S
C900 C899 1.355 . S
C900 C902 1.419 . S
C901 C896 1.425 . S
C901 C898 1.409 . S
C901 C899 1.415 . S
C902 H892 0.930 . S
C902 C900 1.419 . S
C902 C903 1.362 . S
C903 H893 0.930 . S
C903 C896 1.409 . S
C903 C902 1.362 . S
H904 C910 0.930 . S
H905 C913 0.930 . S
H906 C914 0.930 . S
H907 C915 0.930 . S
H908 C918 0.930 . S
H909 C919 0.930 . S
C910 H904 0.930 . S
C910 C911 1.355 . S
C910 C912 1.415 . S
C911 C910 1.355 . S
C911 C913 1.419 . S
C912 C910 1.415 . S
C912 C917 1.425 . S
C912 C919 1.409 . S
C913 H905 0.930 . S
C913 C911 1.419 . S
C913 C914 1.362 . S
C914 H906 0.930 . S
C914 C913 1.362 . S
C914 C917 1.409 . S
C915 H907 0.930 . S
C915 C916 1.355 . S
C915 C917 1.415 . S
C916 C915 1.355 . S
C916 C918 1.419 . S
C917 C912 1.425 . S
C917 C914 1.409 . S
C917 C915 1.415 . S
C918 H908 0.930 . S
C918 C916 1.419 . S
C918 C919 1.362 . S
C919 H909 0.930 . S
C919 C912 1.409 . S
C919 C918 1.362 . S
H920 C926 0.930 . S
H921 C929 0.930 . S
H922 C930 0.930 . S
H923 C931 0.930 . S
H924 C934 0.930 . S
H925 C935 0.930 . S
C926 H920 0.930 . S
C926 C927 1.355 . S
C926 C928 1.415 . S
C927 C926 1.355 . S
C927 C929 1.419 . S
C928 C926 1.415 . S
C928 C933 1.425 . S
C928 C935 1.409 . S
C929 H921 0.930 . S
C929 C927 1.419 . S
C929 C930 1.362 . S
C930 H922 0.930 . S
C930 C929 1.362 . S
C930 C933 1.409 . S
C931 H923 0.930 . S
C931 C932 1.355 . S
C931 C933 1.415 . S
C932 C931 1.355 . S
C932 C934 1.419 . S
C933 C928 1.425 . S
C933 C930 1.409 . S
C933 C931 1.415 . S
C934 H924 0.930 . S
C934 C932 1.419 . S
C934 C935 1.362 . S
C935 H925 0.930 . S
C935 C928 1.409 . S
C935 C934 1.362 . S
H936 C942 0.930 . S
H937 C945 0.930 . S
H938 C946 0.930 . S
H939 C947 0.930 . S
H940 C950 0.930 . S
H941 C951 0.930 . S
C942 H936 0.930 . S
C942 C943 1.355 . S
C942 C944 1.415 . S
C943 C942 1.355 . S
C943 C945 1.419 . S
C944 C942 1.415 . S
C944 C949 1.425 . S
C944 C951 1.409 . S
C945 H937 0.930 . S
C945 C943 1.419 . S
C945 C946 1.362 . S
C946 H938 0.930 . S
C946 C945 1.362 . S
C946 C949 1.409 . S
C947 H939 0.930 . S
C947 C948 1.355 . S
C947 C949 1.415 . S
C948 C947 1.355 . S
C948 C950 1.419 . S
C949 C944 1.425 . S
C949 C946 1.409 . S
C949 C947 1.415 . S
C950 H940 0.930 . S
C950 C948 1.419 . S
C950 C951 1.362 . S
C951 H941 0.930 . S
C951 C944 1.409 . S
C951 C950 1.362 . S
H952 C958 0.930 . S
H953 C961 0.930 . S
H954 C962 0.930 . S
H955 C963 0.930 . S
H956 C966 0.930 . S
H957 C967 0.930 . S
C958 H952 0.930 . S
C958 C959 1.355 . S
C958 C960 1.415 . S
C959 C958 1.355 . S
C959 C961 1.419 . S
C960 C958 1.415 . S
C960 C965 1.425 . S
C960 C967 1.409 . S
C961 H953 0.930 . S
C961 C959 1.419 . S
C961 C962 1.362 . S
C962 H954 0.930 . S
C962 C961 1.362 . S
C962 C965 1.409 . S
C963 H955 0.930 . S
C963 C964 1.355 . S
C963 C965 1.415 . S
C964 C963 1.355 . S
C964 C966 1.419 . S
C965 C960 1.425 . S
C965 C962 1.409 . S
C965 C963 1.415 . S
C966 H956 0.930 . S
C966 C964 1.419 . S
C966 C967 1.362 . S
C967 H957 0.930 . S
C967 C960 1.409 . S
C967 C966 1.362 . S
H968 C974 0.930 . S
H969 C977 0.930 . S
H970 C978 0.930 . S
H971 C979 0.930 . S
H972 C982 0.930 . S
H973 C983 0.930 . S
C974 H968 0.930 . S
C974 C975 1.355 . S
C974 C976 1.415 . S
C975 C974 1.355 . S
C975 C977 1.419 . S
C976 C974 1.415 . S
C976 C981 1.425 . S
C976 C983 1.409 . S
C977 H969 0.930 . S
C977 C975 1.419 . S
C977 C978 1.362 . S
C978 H970 0.930 . S
C978 C977 1.362 . S
C978 C981 1.409 . S
C979 H971 0.930 . S
C979 C980 1.355 . S
C979 C981 1.415 . S
C980 C979 1.355 . S
C980 C982 1.419 . S
C981 C976 1.425 . S
C981 C978 1.409 . S
C981 C979 1.415 . S
C982 H972 0.930 . S
C982 C980 1.419 . S
C982 C983 1.362 . S
C983 H973 0.930 . S
C983 C976 1.409 . S
C983 C982 1.362 . S
H984 C990 0.930 . S
H985 C993 0.930 . S
H986 C994 0.930 . S
H987 C995 0.930 . S
H988 C998 0.930 . S
H989 C999 0.930 . S
C990 H984 0.930 . S
C990 C991 1.355 . S
C990 C992 1.415 . S
C991 C990 1.355 . S
C991 C993 1.419 . S
C992 C990 1.415 . S
C992 C997 1.425 . S
C992 C999 1.409 . S
C993 H985 0.930 . S
C993 C991 1.419 . S
C993 C994 1.362 . S
C994 H986 0.930 . S
C994 C993 1.362 . S
C994 C997 1.409 . S
C995 H987 0.930 . S
C995 C996 1.355 . S
C995 C997 1.415 . S
C996 C995 1.355 . S
C996 C998 1.419 . S
C997 C992 1.425 . S
C997 C994 1.409 . S
C997 C995 1.415 . S
C998 H988 0.930 . S
C998 C996 1.419 . S
C998 C999 1.362 . S
C999 H989 0.930 . S
C999 C992 1.409 . S
C999 C998 1.362 . S
H1000 C1006 0.930 . S
H1001 C1009 0.930 . S
H1002 C1010 0.930 . S
H1003 C1011 0.930 . S
H1004 C1014 0.930 . S
H1005 C1015 0.930 . S
C1006 H1000 0.930 . S
C1006 C1007 1.355 . S
C1006 C1008 1.415 . S
C1007 C1006 1.355 . S
C1007 C1009 1.419 . S
C1008 C1006 1.415 . S
C1008 C1013 1.425 . S
C1008 C1015 1.409 . S
C1009 H1001 0.930 . S
C1009 C1007 1.419 . S
C1009 C1010 1.362 . S
C1010 H1002 0.930 . S
C1010 C1009 1.362 . S
C1010 C1013 1.409 . S
C1011 H1003 0.930 . S
C1011 C1012 1.355 . S
C1011 C1013 1.415 . S
C1012 C1011 1.355 . S
C1012 C1014 1.419 . S
C1013 C1008 1.425 . S
C1013 C1010 1.409 . S
C1013 C1011 1.415 . S
C1014 H1004 0.930 . S
C1014 C1012 1.419 . S
C1014 C1015 1.362 . S
C1015 H1005 0.930 . S
C1015 C1008 1.409 . S
C1015 C1014 1.362 . S
H1016 C1022 0.930 . S
H1017 C1025 0.930 . S
H1018 C1026 0.930 . S
H1019 C1027 0.930 . S
H1020 C1030 0.930 . S
H1021 C1031 0.930 . S
C1022 H1016 0.930 . S
C1022 C1023 1.355 . S
C1022 C1024 1.415 . S
C1023 C1022 1.355 . S
C1023 C1025 1.419 . S
C1024 C1022 1.415 . S
C1024 C1029 1.425 . S
C1024 C1031 1.409 . S
C1025 H1017 0.930 . S
C1025 C1023 1.419 . S
C1025 C1026 1.362 . S
C1026 H1018 0.930 . S
C1026 C1025 1.362 . S
C1026 C1029 1.409 . S
C1027 H1019 0.930 . S
C1027 C1028 1.355 . S
C1027 C1029 1.415 . S
C1028 C1027 1.355 . S
C1028 C1030 1.419 . S
C1029 C1024 1.425 . S
C1029 C1026 1.409 . S
C1029 C1027 1.415 . S
C1030 H1020 0.930 . S
C1030 C1028 1.419 . S
C1030 C1031 1.362 . S
C1031 H1021 0.930 . S
C1031 C1024 1.409 . S
C1031 C1030 1.362 . S
H1032 C1038 0.930 . S
H1033 C1041 0.930 . S
H1034 C1042 0.930 . S
H1035 C1043 0.930 . S
H1036 C1046 0.930 . S
H1037 C1047 0.930 . S
C1038 H1032 0.930 . S
C1038 C1039 1.355 . S
C1038 C1040 1.415 . S
C1039 C1038 1.355 . S
C1039 C1041 1.419 . S
C1040 C1038 1.415 . S
C1040 C1045 1.425 . S
C1040 C1047 1.409 . S
C1041 H1033 0.930 . S
C1041 C1039 1.419 . S
C1041 C1042 1.362 . S
C1042 H1034 0.930 . S
C1042 C1041 1.362 . S
C1042 C1045 1.409 . S
C1043 H1035 0.930 . S
C1043 C1044 1.355 . S
C1043 C1045 1.415 . S
C1044 C1043 1.355 . S
C1044 C1046 1.419 . S
C1045 C1040 1.425 . S
C1045 C1042 1.409 . S
C1045 C1043 1.415 . S
C1046 H1036 0.930 . S
C1046 C1044 1.419 . S
C1046 C1047 1.362 . S
C1047 H1037 0.930 . S
C1047 C1040 1.409 . S
C1047 C1046 1.362 . S
H1048 C1054 0.930 . S
H1049 C1057 0.930 . S
H1050 C1058 0.930 . S
H1051 C1059 0.930 . S
H1052 C1062 0.930 . S
H1053 C1063 0.930 . S
C1054 H1048 0.930 . S
C1054 C1055 1.355 . S
C1054 C1056 1.415 . S
C1055 C1054 1.355 . S
C1055 C1057 1.419 . S
C1056 C1054 1.415 . S
C1056 C1061 1.425 . S
C1056 C1063 1.409 . S
C1057 H1049 0.930 . S
C1057 C1055 1.419 . S
C1057 C1058 1.362 . S
C1058 H1050 0.930 . S
C1058 C1057 1.362 . S
C1058 C1061 1.409 . S
C1059 H1051 0.930 . S
C1059 C1060 1.355 . S
C1059 C1061 1.415 . S
C1060 C1059 1.355 . S
C1060 C1062 1.419 . S
C1061 C1056 1.425 . S
C1061 C1058 1.409 . S
C1061 C1059 1.415 . S
C1062 H1052 0.930 . S
C1062 C1060 1.419 . S
C1062 C1063 1.362 . S
C1063 H1053 0.930 . S
C1063 C1056 1.409 . S
C1063 C1062 1.362 . S
H1064 C1070 0.930 . S
H1065 C1073 0.930 . S
H1066 C1074 0.930 . S
H1067 C1075 0.930 . S
H1068 C1078 0.930 . S
H1069 C1079 0.930 . S
C1070 H1064 0.930 . S
C1070 C1071 1.355 . S
C1070 C1072 1.415 . S
C1071 C1070 1.355 . S
C1071 C1073 1.419 . S
C1072 C1070 1.415 . S
C1072 C1077 1.425 . S
C1072 C1079 1.409 . S
C1073 H1065 0.930 . S
C1073 C1071 1.419 . S
C1073 C1074 1.362 . S
C1074 H1066 0.930 . S
C1074 C1073 1.362 . S
C1074 C1077 1.409 . S
C1075 H1067 0.930 . S
C1075 C1076 1.355 . S
C1075 C1077 1.415 . S
C1076 C1075 1.355 . S
C1076 C1078 1.419 . S
C1077 C1072 1.425 . S
C1077 C1074 1.409 . S
C1077 C1075 1.415 . S
C1078 H1068 0.930 . S
C1078 C1076 1.419 . S
C1078 C1079 1.362 . S
C1079 H1069 0.930 . S
C1079 C1072 1.409 . S
C1079 C1078 1.362 . S
C319 C187 1.309 . S
C324 C8 1.267 . S
C335 C18 1.255 . S
C340 C195 1.200 . S
C351 C242 1.294 . S
C356 C36 1.344 . S
C367 C39 1.254 . S
C372 C169 1.179 . S
C383 C182 1.296 . S
C388 C62 1.351 . S
C399 C70 1.205 . S
C404 C200 1.240 . S
C415 C86 1.231 . S
C420 C244 1.294 . S
C431 C91 1.228 . S
C436 C174 1.256 . S
C447 C125 1.237 . S
C452 C112 1.312 . S
C463 C130 1.322 . S
C468 C127 1.349 . S
C479 C135 1.329 . S
C484 C151 1.304 . S
C495 C153 1.336 . S
C500 C114 1.335 . S
C511 C156 1.200 . S
C516 C44 1.238 . S
C527 C60 1.292 . S
C532 C218 1.308 . S
C543 C221 1.253 . S
C548 C13 1.183 . S
C559 C23 1.463 . S
C564 C278 1.427 . S
C575 C117 1.336 . S
C580 C5 1.392 . S
C591 C307 1.381 . S
C596 C47 1.379 . S
C607 C143 1.358 . S
C612 C26 1.357 . S
C623 C273 1.453 . S
C628 C99 1.452 . S
C639 C122 1.386 . S
C644 C83 1.348 . S
C655 C75 1.460 . S
C660 C309 1.449 . S
C671 C52 1.317 . S
C676 C148 1.349 . S
C687 C205 1.460 . S
C692 C257 1.466 . S
C703 C213 1.480 . S
C708 C203 1.467 . S
C719 C179 1.435 . S
C724 C208 1.406 . S
C735 C255 1.442 . S
C740 C177 1.437 . S
C751 C31 1.404 . S
C756 C260 1.397 . S
C767 C140 1.463 . S
C772 C101 1.456 . S
C783 C0 1.371 . S
C788 C286 1.372 . S
C799 C252 1.251 . S
C804 C34 1.305 . S
C815 C10 1.349 . S
C820 C216 1.326 . S
C831 C247 1.302 . S
C836 C88 1.356 . S
C847 C161 1.280 . S
C852 C96 1.246 . S
C863 C65 1.194 . S
C868 C226 1.208 . S
C879 C281 1.314 . S
C884 C268 1.234 . S
C895 C299 1.353 . S
C900 C270 1.358 . S
C911 C294 1.276 . S
C916 C304 1.276 . S
C927 C283 1.331 . S
C932 C296 1.336 . S
C943 C109 1.388 . S
C948 C49 1.451 . S
C959 C21 1.404 . S
C964 C138 1.402 . S
C975 C73 1.488 . S
C980 C104 1.489 . S
C991 C265 1.413 . S
C996 C57 1.359 . S
C1007 C78 1.368 . S
C1012 C291 1.347 . S
C1023 C166 1.462 . S
C1028 C192 1.464 . S
C1039 C239 1.529 . S
C1044 C164 1.477 . S
C1055 C231 1.435 . S
C1060 C234 1.388 . S
C1071 C190 1.418 . S
C1076 C229 1.411 . S
