# Generated by pormake.
# Topology wkt, (7)-cn, num edge types: 1
# Building blocks:
#     Node 0, Type 0, BuildingBlock: HICVOG_clean_sbu_0, # of connection points: 7
#     Node 1, Type 0, BuildingBlock: HICVOG_clean_sbu_0, # of connection points: 7
#     Node 2, Type 0, BuildingBlock: HICVOG_clean_sbu_0, # of connection points: 7
#     Node 3, Type 0, BuildingBlock: HICVOG_clean_sbu_0, # of connection points: 7
#     Node 4, Type 0, BuildingBlock: HICVOG_clean_sbu_0, # of connection points: 7
#     Node 5, Type 0, BuildingBlock: HICVOG_clean_sbu_0, # of connection points: 7
#     Node 6, Type 0, BuildingBlock: HICVOG_clean_sbu_0, # of connection points: 7
#     Node 7, Type 0, BuildingBlock: HICVOG_clean_sbu_0, # of connection points: 7
#     Node 8, Type 0, BuildingBlock: HICVOG_clean_sbu_0, # of connection points: 7
#     Node 9, Type 0, BuildingBlock: HICVOG_clean_sbu_0, # of connection points: 7
#     Node 10, Type 0, BuildingBlock: HICVOG_clean_sbu_0, # of connection points: 7
#     Node 11, Type 0, BuildingBlock: HICVOG_clean_sbu_0, # of connection points: 7
#     Edge 12, Type (0, 0), BuildingBlock: XUDNAN_clean_linker_2, # of connection points: 2
#     Edge 13, Type (0, 0), BuildingBlock: XUDNAN_clean_linker_2, # of connection points: 2
#     Edge 14, Type (0, 0), BuildingBlock: XUDNAN_clean_linker_2, # of connection points: 2
#     Edge 15, Type (0, 0), BuildingBlock: XUDNAN_clean_linker_2, # of connection points: 2
#     Edge 16, Type (0, 0), BuildingBlock: XUDNAN_clean_linker_2, # of connection points: 2
#     Edge 17, Type (0, 0), BuildingBlock: XUDNAN_clean_linker_2, # of connection points: 2
#     Edge 18, Type (0, 0), BuildingBlock: XUDNAN_clean_linker_2, # of connection points: 2
#     Edge 19, Type (0, 0), BuildingBlock: XUDNAN_clean_linker_2, # of connection points: 2
#     Edge 20, Type (0, 0), BuildingBlock: XUDNAN_clean_linker_2, # of connection points: 2
#     Edge 21, Type (0, 0), BuildingBlock: XUDNAN_clean_linker_2, # of connection points: 2
#     Edge 22, Type (0, 0), BuildingBlock: XUDNAN_clean_linker_2, # of connection points: 2
#     Edge 23, Type (0, 0), BuildingBlock: XUDNAN_clean_linker_2, # of connection points: 2
#     Edge 24, Type (0, 0), BuildingBlock: XUDNAN_clean_linker_2, # of connection points: 2
#     Edge 25, Type (0, 0), BuildingBlock: XUDNAN_clean_linker_2, # of connection points: 2
#     Edge 26, Type (0, 0), BuildingBlock: XUDNAN_clean_linker_2, # of connection points: 2
#     Edge 27, Type (0, 0), BuildingBlock: XUDNAN_clean_linker_2, # of connection points: 2
#     Edge 28, Type (0, 0), BuildingBlock: XUDNAN_clean_linker_2, # of connection points: 2
#     Edge 29, Type (0, 0), BuildingBlock: XUDNAN_clean_linker_2, # of connection points: 2
#     Edge 30, Type (0, 0), BuildingBlock: XUDNAN_clean_linker_2, # of connection points: 2
#     Edge 31, Type (0, 0), BuildingBlock: XUDNAN_clean_linker_2, # of connection points: 2
#     Edge 32, Type (0, 0), BuildingBlock: XUDNAN_clean_linker_2, # of connection points: 2
#     Edge 33, Type (0, 0), BuildingBlock: XUDNAN_clean_linker_2, # of connection points: 2
#     Edge 34, Type (0, 0), BuildingBlock: XUDNAN_clean_linker_2, # of connection points: 2
#     Edge 35, Type (0, 0), BuildingBlock: XUDNAN_clean_linker_2, # of connection points: 2
#     Edge 36, Type (0, 0), BuildingBlock: XUDNAN_clean_linker_2, # of connection points: 2
#     Edge 37, Type (0, 0), BuildingBlock: XUDNAN_clean_linker_2, # of connection points: 2
#     Edge 38, Type (0, 0), BuildingBlock: XUDNAN_clean_linker_2, # of connection points: 2
#     Edge 39, Type (0, 0), BuildingBlock: XUDNAN_clean_linker_2, # of connection points: 2
#     Edge 40, Type (0, 0), BuildingBlock: XUDNAN_clean_linker_2, # of connection points: 2
#     Edge 41, Type (0, 0), BuildingBlock: XUDNAN_clean_linker_2, # of connection points: 2
#     Edge 42, Type (0, 0), BuildingBlock: XUDNAN_clean_linker_2, # of connection points: 2
#     Edge 43, Type (0, 0), BuildingBlock: XUDNAN_clean_linker_2, # of connection points: 2
#     Edge 44, Type (0, 0), BuildingBlock: XUDNAN_clean_linker_2, # of connection points: 2
#     Edge 45, Type (0, 0), BuildingBlock: XUDNAN_clean_linker_2, # of connection points: 2
#     Edge 46, Type (0, 0), BuildingBlock: XUDNAN_clean_linker_2, # of connection points: 2
#     Edge 47, Type (0, 0), BuildingBlock: XUDNAN_clean_linker_2, # of connection points: 2
#     Edge 48, Type (0, 0), BuildingBlock: XUDNAN_clean_linker_2, # of connection points: 2
#     Edge 49, Type (0, 0), BuildingBlock: XUDNAN_clean_linker_2, # of connection points: 2
#     Edge 50, Type (0, 0), BuildingBlock: XUDNAN_clean_linker_2, # of connection points: 2
#     Edge 51, Type (0, 0), BuildingBlock: XUDNAN_clean_linker_2, # of connection points: 2
#     Edge 52, Type (0, 0), BuildingBlock: XUDNAN_clean_linker_2, # of connection points: 2
#     Edge 53, Type (0, 0), BuildingBlock: XUDNAN_clean_linker_2, # of connection points: 2
# Relax obj value: 0.192
# Max RMSD: 0.208
# Mean RMSD: 0.208
data_MOF--net-wkt--node1-HICVOG_clean_sbu_0--edge1-XUDNAN_clean_linker_2
_symmetry_space_group_name_H-M    P1
_symmetry_Int_Tables_number       1
_symmetry_cell_setting            triclinic
loop_
_symmetry_equiv_pos_as_xyz
'x, y, z'
_cell_length_a     32.286637
_cell_length_b     32.205553
_cell_length_c     57.000607
_cell_angle_alpha  90.024967
_cell_angle_beta   90.129419
_cell_angle_gamma 119.98946
loop_
_atom_site_label
_atom_site_type_symbol
_atom_site_fract_x
_atom_site_fract_y
_atom_site_fract_z
_atom_type_partial_charge
Zn0 Zn 0.39292 0.45599 0.06842 0.0
C1 C 0.38468 0.34014 0.10491 0.0
N2 N 0.36289 0.35373 0.12084 0.0
C3 C 0.36301 0.39161 0.11082 0.0
N4 N 0.38441 0.40198 0.08964 0.0
N5 N 0.39778 0.36953 0.08575 0.0
C6 C 0.42477 0.30542 0.03291 0.0
O7 O 0.38596 0.3082 0.02953 0.0
O8 O 0.39494 0.51458 0.0869 0.0
Zn9 Zn 0.44216 0.38418 0.06055 0.0
N10 N 0.33632 0.4297 0.04971 0.0
C11 C 0.26221 0.36806 0.03486 0.0
C12 C 0.29932 0.384 0.05117 0.0
C13 C 0.33867 0.45957 0.03242 0.0
N14 N 0.26419 0.39837 1.01774 0.0
C15 C 0.30168 0.44407 1.01594 0.0
O16 O 0.42116 0.40459 0.03123 0.0
C17 C 0.43867 0.4482 0.02527 0.0
O18 O 0.44324 0.47888 0.04085 0.0
H19 H 0.29897 0.36008 0.06458 0.0
H20 H 0.37024 0.49448 0.03141 0.0
C21 C 0.53152 0.46688 0.05405 0.0
C22 C 0.56857 0.51313 0.05978 0.0
C23 C 0.54347 0.49865 0.09965 0.0
C24 C 0.50578 0.45369 0.09358 0.0
N25 N 0.50027 0.43917 0.07084 0.0
N26 N 0.57347 0.52733 0.08266 0.0
H27 H 0.52579 0.45276 0.03648 0.0
C28 C 0.4123 0.55735 0.07888 0.0
O29 O 0.43364 0.56727 0.05838 0.0
O30 O 0.45447 0.33203 0.04855 0.0
H31 H 0.4804 0.43128 0.10674 0.0
H32 H 0.23221 0.33188 0.03569 0.0
H33 H 0.5483 0.51114 0.11761 0.0
Zn34 Zn 0.06866 0.45992 0.22068 0.0
C35 C 0.98186 0.35928 0.26532 0.0
N36 N 1.02101 0.3564 0.2708 0.0
C37 C 0.05283 0.38355 0.25439 0.0
N38 N 0.03385 0.40269 0.23948 0.0
N39 N 0.98911 0.3876 0.24636 0.0
C40 C 0.8533 0.40882 0.24216 0.0
O41 O 0.85972 0.42904 0.22148 0.0
O42 O 0.1334 0.47084 0.20867 0.0
Zn43 Zn 0.94074 0.39871 0.22898 0.0
N44 N 0.07796 0.50927 0.24254 0.0
C45 C 0.04302 0.53885 0.26961 0.0
C46 C 0.03826 0.50695 0.25197 0.0
C47 C 0.12239 0.54172 0.25026 0.0
N48 N 0.08738 0.57239 0.27679 0.0
C49 C 0.12769 0.57526 0.26761 0.0
O50 O 0.96452 0.45489 0.20525 0.0
C51 C 0.99552 0.46675 0.18893 0.0
O52 O 0.03322 0.46424 0.19207 0.0
H53 H 1.00314 0.47975 0.24627 0.0
H54 H 0.15259 0.54057 0.24295 0.0
C55 C 0.88282 0.35033 0.19128 0.0
C56 C 0.86649 0.32009 0.1718 0.0
C57 C 0.91242 0.28503 0.18393 0.0
C58 C 0.92857 0.31543 0.20343 0.0
N59 N 0.91326 0.34743 0.20663 0.0
N60 N 0.8818 0.28805 0.16853 0.0
H61 H 0.87282 0.37731 0.19381 0.0
C62 C 0.13988 0.46684 0.18688 0.0
O63 O 0.10467 0.45618 0.17212 0.0
O64 O 0.88335 0.3962 0.24921 0.0
H65 H 0.95409 0.31448 0.2154 0.0
H66 H 1.01177 0.53732 0.27741 0.0
H67 H 0.92443 0.25956 0.18095 0.0
Zn68 Zn 0.60088 0.94443 0.40348 0.0
C69 C 0.69597 0.06707 0.43813 0.0
N70 N 0.68747 0.03802 0.45664 0.0
C71 C 0.65182 0.99516 0.44912 0.0
N72 N 0.63906 0.99734 0.42665 0.0
N73 N 0.66627 0.04269 0.41998 0.0
C74 C 0.73996 0.14294 0.37467 0.0
O75 O 0.7588 0.1172 0.38179 0.0
O76 O 0.53908 0.88237 0.41592 0.0
Zn77 Zn 0.65272 0.06015 0.38979 0.0
N78 N 0.64598 0.92529 0.39392 0.0
C79 C 0.72314 0.93286 0.39249 0.0
C80 C 0.69216 0.94727 0.40151 0.0
C81 C 0.62979 0.89021 0.37759 0.0
N82 N 0.70673 0.8973 0.3762 0.0
C83 C 0.66059 0.87532 0.36855 0.0
O84 O 0.65471 1.01918 0.36354 0.0
C85 C 0.61373 0.98852 0.35572 0.0
O86 O 0.58201 0.96119 0.37052 0.0
H87 H 0.7051 0.97595 0.41423 0.0
H88 H 0.59338 0.87519 0.3714 0.0
C89 C 0.56954 0.05252 0.36994 0.0
C90 C 0.51993 0.03312 0.36716 0.0
C91 C 0.50895 1.0042 0.4064 0.0
C92 C 0.558 0.02312 0.40883 0.0
N93 N 0.58716 0.04609 0.39039 0.0
N94 N 0.49121 1.00952 0.38575 0.0
H95 H 0.59462 0.0714 0.35607 0.0
C96 C 0.51088 0.87292 0.43341 0.0
O97 O 0.51961 0.90707 0.44858 0.0
O98 O 0.69587 0.12774 0.37837 0.0
H99 H 0.57228 1.01817 0.42504 0.0
H100 H 0.75997 0.94994 0.39829 0.0
H101 H 0.48506 0.98517 0.42075 0.0
Zn102 Zn 0.60023 0.6315 0.55932 0.0
C103 C 0.71705 0.64351 0.58939 0.0
N104 N 0.72205 0.68552 0.5971 0.0
C105 C 0.68809 0.68918 0.58516 0.0
N106 N 0.66306 0.65068 0.57099 0.0
N107 N 0.68149 0.62201 0.57319 0.0
C108 C 0.66095 0.48379 0.58508 0.0
O109 O 0.64682 0.49974 0.60278 0.0
O110 O 0.59677 0.69138 0.55009 0.0
Zn111 Zn 0.66687 0.56609 0.5519 0.0
N112 N 0.55835 0.5974 0.58547 0.0
C113 C 0.54883 0.56042 0.62279 0.0
C114 C 0.5757 0.58096 0.60272 0.0
C115 C 0.51435 0.59281 0.58729 0.0
N116 N 0.50491 0.55576 0.62462 0.0
C117 C 0.48646 0.57116 0.60744 0.0
O118 O 0.61012 0.54103 0.52835 0.0
C119 C 0.58325 0.55604 0.52009 0.0
O120 O 0.57994 0.58931 0.53039 0.0
H121 H 0.61044 0.58424 0.60125 0.0
H122 H 0.5014 0.60497 0.57287 0.0
C123 C 0.71165 0.56384 0.51103 0.0
C124 C 0.74097 0.58168 0.49125 0.0
C125 C 0.77565 0.66022 0.50721 0.0
C126 C 0.74672 0.64207 0.52698 0.0
N127 N 0.71556 0.59417 0.52848 0.0
N128 N 0.7723 0.62969 0.4899 0.0
H129 H 0.68493 0.52631 0.51251 0.0
C130 C 0.60128 0.70412 0.52862 0.0
O131 O 0.60773 0.67825 0.5128 0.0
O132 O 0.66982 0.50581 0.56538 0.0
H133 H 0.74821 0.66614 0.54058 0.0
H134 H 0.5625 0.54774 0.63672 0.0
H135 H 0.80052 0.69825 0.50561 0.0
Zn136 Zn 0.10462 0.66133 0.73992 0.0
C137 C 0.9812 0.64378 0.76916 0.0
N138 N 1.0094 0.66335 0.78813 0.0
C139 C 0.05119 0.6668 0.78169 0.0
N140 N 0.04899 0.64974 0.75971 0.0
N141 N 1.00487 0.63506 0.75177 0.0
C142 C 0.90087 0.55039 0.69304 0.0
O143 O 0.91835 0.52186 0.68935 0.0
O144 O 0.16685 0.66578 0.75554 0.0
Zn145 Zn 0.97473 0.58454 0.72774 0.0
N146 N 0.12328 0.7227 0.72621 0.0
C147 C 0.11405 0.79021 0.7183 0.0
C148 C 0.10045 0.7478 0.73052 0.0
C149 C 0.15867 0.73796 0.7102 0.0
N150 N 0.14966 0.80555 0.70222 0.0
C151 C 0.17256 0.78053 0.69792 0.0
O152 O 1.01597 0.5846 0.70053 0.0
C153 C 0.05887 0.59656 0.69554 0.0
O154 O 0.09264 0.62091 0.71002 0.0
H155 H 0.07171 0.735 0.74309 0.0
H156 H 0.17467 0.71601 0.70672 0.0
C157 C 0.91237 0.49527 0.75126 0.0
C158 C 0.90391 0.45768 0.76668 0.0
C159 C 0.98791 0.49142 0.77153 0.0
C160 C 0.99594 0.52742 0.75569 0.0
N161 N 0.95814 0.52859 0.74592 0.0
N162 N 0.94233 0.45732 0.77643 0.0
H163 H 0.88343 0.49853 0.74366 0.0
C164 C 0.17469 0.6423 0.77142 0.0
O165 O 0.13817 0.60862 0.78296 0.0
O166 O 0.91665 0.57921 0.71043 0.0
H167 H 0.03204 0.55506 0.75159 0.0
H168 H 0.09626 0.81059 0.72145 0.0
H169 H 1.01757 0.49018 0.77967 0.0
Zn170 Zn 0.42579 0.96899 0.88939 0.0
C171 C 0.41412 0.07106 0.92291 0.0
N172 N 0.37197 0.0338 0.93001 0.0
C173 C 0.37028 0.99637 0.9188 0.0
N174 N 0.40954 1.01054 0.90528 0.0
N175 N 0.4376 0.0577 0.90773 0.0
C176 C 0.59703 0.18651 0.90024 0.0
O177 O 0.61088 0.17149 0.88206 0.0
O178 O 0.36481 0.90631 0.88059 0.0
Zn179 Zn 0.49576 0.10256 0.88831 0.0
N180 N 0.46588 0.95979 0.91116 0.0
C181 C 0.5308 0.99644 0.93797 0.0
C182 C 0.5031 1.00019 0.92032 0.0
C183 C 0.45526 0.91557 0.9187 0.0
N184 N 0.52062 0.95235 0.9454 0.0
C185 C 0.48363 0.9113 0.93632 0.0
O186 O 0.51914 0.07384 0.86167 0.0
C187 C 0.49696 0.03423 0.85037 0.0
O188 O 0.46225 0.99743 0.8597 0.0
H189 H 0.51053 0.03504 0.91423 0.0
H190 H 0.42443 0.88486 0.91124 0.0
C191 C 0.50809 0.16486 0.85315 0.0
C192 C 0.49656 0.18334 0.8337 0.0
C193 C 0.41437 0.13624 0.84336 0.0
C194 C 0.42621 0.11758 0.86273 0.0
N195 N 0.47298 0.13255 0.86715 0.0
N196 N 0.44974 0.16851 0.82922 0.0
H197 H 0.54468 0.17431 0.85656 0.0
C198 C 0.34685 0.9021 0.86017 0.0
O199 O 0.36811 0.9379 0.84538 0.0
O200 O 0.55295 0.16213 0.90654 0.0
H201 H 0.39844 0.09027 0.87349 0.0
H202 H 0.56036 0.02823 0.94562 0.0
H203 H 0.37737 0.12461 0.83938 0.0
Zn204 Zn 0.5674 0.64769 0.83007 0.0
C205 C 0.68496 0.6587 0.79439 0.0
N206 N 0.67771 0.68847 0.78082 0.0
C207 C 0.63901 0.68741 0.79017 0.0
N208 N 0.62195 0.65741 0.80895 0.0
N209 N 0.6514 0.63977 0.81169 0.0
C210 C 0.70634 0.62173 0.86552 0.0
O211 O 0.68279 0.64494 0.86815 0.0
O212 O 0.51022 0.65189 0.81315 0.0
Zn213 Zn 0.63802 0.5828 0.82931 0.0
N214 N 0.59697 0.69829 0.85275 0.0
C215 C 0.66493 0.76112 0.87189 0.0
C216 C 0.64463 0.73052 0.85272 0.0
C217 C 0.56897 0.695 0.87114 0.0
N218 N 0.63669 0.7583 0.89015 0.0
C219 C 0.58894 0.72596 0.89033 0.0
O220 O 0.58546 0.55927 0.85393 0.0
C221 C 0.55079 0.56256 0.86246 0.0
O222 O 0.53872 0.59138 0.85369 0.0
H223 H 0.66689 0.73163 0.83834 0.0
H224 H 0.53171 0.66748 0.87094 0.0
C225 C 0.6431 0.50853 0.80289 0.0
C226 C 0.63249 0.47829 0.78315 0.0
C227 C 0.58464 0.50917 0.76782 0.0
C228 C 0.59342 0.53699 0.78782 0.0
N229 N 0.62245 0.53621 0.80488 0.0
N230 N 0.60375 0.48024 0.76614 0.0
H231 H 0.66718 0.51052 0.81658 0.0
C232 C 0.46828 0.6361 0.82185 0.0
O233 O 0.45851 0.61356 0.84204 0.0
O234 O 0.69458 0.59177 0.84877 0.0
H235 H 0.57822 0.56009 0.78952 0.0
H236 H 0.70283 0.78684 0.87228 0.0
H237 H 0.56214 0.50985 0.75391 0.0
Zn238 Zn 0.07657 0.63624 0.98908 0.0
C239 C 0.99184 0.66184 0.94605 0.0
N240 N 0.03292 0.7008 0.93974 0.0
C241 C 0.06602 0.69851 0.95313 0.0
N242 N 0.04535 0.65983 0.96777 0.0
N243 N 0.99864 0.63617 0.9628 0.0
C244 C 0.87857 0.49523 0.95351 0.0
O245 O 0.91731 0.49492 0.9468 0.0
O246 O 0.13687 0.69059 1.00539 0.0
Zn247 Zn 0.94401 0.58985 0.98224 0.0
N248 N 0.08976 0.59709 0.96835 0.0
C249 C 0.05954 0.54131 0.93676 0.0
C250 C 0.05264 0.56733 0.95424 0.0
C251 C 0.13353 0.60132 0.966 0.0
N252 N 0.10313 0.54531 0.93439 0.0
C253 C 0.14063 0.57464 0.94848 0.0
O254 O 0.9596 0.56575 1.01224 0.0
C255 C 0.99454 0.5694 1.02431 0.0
O256 O 0.03728 0.59404 1.01686 0.0
H257 H 1.01803 0.56441 0.95636 0.0
H258 H 0.16181 0.62457 0.97791 0.0
C259 C 0.88059 0.62729 0.99019 0.0
C260 C 0.87112 0.66347 0.99737 0.0
C261 C 0.9504 0.70882 1.01198 0.0
C262 C 0.95949 0.67275 1.00501 0.0
N263 N 0.9245 0.6329 0.99423 0.0
N264 N 0.90643 0.7032 1.00818 0.0
H265 H 0.85359 0.59488 0.98173 0.0
C266 C 0.13026 0.70289 0.02572 0.0
O267 O 0.08648 0.6837 0.03382 0.0
O268 O 0.88318 0.53033 0.96617 0.0
H269 H 0.9945 0.67679 1.00768 0.0
H270 H 0.03041 0.51776 0.92529 0.0
H271 H 0.97793 0.74089 1.02046 0.0
Zn272 Zn 0.40105 0.92732 0.16338 0.0
C273 C 0.39219 0.0373 0.13077 0.0
N274 N 0.36526 1.00329 0.11498 0.0
C275 C 0.36713 0.96445 0.12256 0.0
N276 N 0.39458 0.97404 0.14217 0.0
N277 N 0.41017 0.01992 0.14729 0.0
C278 C 0.44179 0.09438 0.20481 0.0
O279 O 0.42377 0.04849 0.2092 0.0
O280 O 0.39091 0.8617 0.14886 0.0
Zn281 Zn 0.46836 0.06135 0.16511 0.0
N282 N 0.35244 0.91127 0.18646 0.0
C283 C 0.29515 0.92325 0.20687 0.0
C284 C 0.32459 0.93186 0.18746 0.0
C285 C 0.35256 0.88304 0.20401 0.0
N286 N 0.29454 0.8941 0.22426 0.0
C287 C 0.32246 0.87345 0.22336 0.0
O288 O 0.49284 0.0306 0.18849 0.0
C289 C 0.4884 0.99129 0.19582 0.0
O290 O 0.45807 0.95152 0.18652 0.0
H291 H 0.326 0.95558 0.1737 0.0
H292 H 0.37686 0.86917 0.20291 0.0
C293 C 0.54243 0.13821 0.13771 0.0
C294 C 0.57256 0.15607 0.11793 0.0
C295 C 0.53994 0.07617 0.10374 0.0
C296 C 0.51231 0.05886 0.12382 0.0
N297 N 0.51396 0.09013 0.14031 0.0
N298 N 0.56967 0.12399 0.10146 0.0
H299 H 0.54125 0.16134 0.15106 0.0
C300 C 0.41404 0.85335 0.13305 0.0
O301 O 0.44863 0.88986 0.12188 0.0
O302 O 0.46375 0.1109 0.1855 0.0
H303 H 0.48884 0.02074 0.12608 0.0
H304 H 0.27292 0.9395 0.2081 0.0
H305 H 0.53859 0.05183 0.09028 0.0
Zn306 Zn 0.40553 0.45006 0.31514 0.0
C307 C 0.38409 0.33001 0.28366 0.0
N308 N 0.34485 0.32896 0.2749 0.0
C309 C 0.34506 0.36632 0.28548 0.0
N310 N 0.38311 0.38899 0.30033 0.0
N311 N 0.40832 0.36654 0.29897 0.0
C312 C 0.55715 0.3805 0.31402 0.0
O313 O 0.54741 0.3747 0.33656 0.0
O314 O 0.35208 0.45815 0.32928 0.0
Zn315 Zn 0.46445 0.37438 0.31855 0.0
N316 N 0.43951 0.49699 0.2911 0.0
C317 C 0.4647 0.51748 0.25143 0.0
C318 C 0.43819 0.48323 0.26838 0.0
C319 C 0.46605 0.54355 0.29747 0.0
N320 N 0.49158 0.56416 0.25784 0.0
C321 C 0.49267 0.57819 0.28045 0.0
O322 O 0.48438 0.41961 0.34775 0.0
C323 C 0.4741 0.45049 0.35557 0.0
O324 O 0.44696 0.46093 0.34385 0.0
H325 H 0.41741 0.44601 0.26339 0.0
H326 H 0.46722 0.553 0.31579 0.0
C327 C 0.4465 0.27933 0.32313 0.0
C328 C 0.42314 0.23238 0.3319 0.0
C329 C 0.38531 0.25597 0.36054 0.0
C330 C 0.40801 0.30219 0.35141 0.0
N331 N 0.43795 0.3127 0.33289 0.0
N332 N 0.39322 0.2223 0.35056 0.0
H333 H 0.46927 0.28927 0.30794 0.0
C334 C 0.33269 0.4335 0.34766 0.0
O335 O 0.34431 0.4016 0.35436 0.0
O336 O 0.52697 0.38395 0.30062 0.0
H337 H 0.40126 0.32928 0.35867 0.0
H338 H 0.46422 0.507 0.23335 0.0
H339 H 0.36117 0.2467 0.37525 0.0
Zn340 Zn 0.12455 0.47997 0.4888 0.0
C341 C 1.00476 0.36756 0.45945 0.0
N342 N 0.0361 0.3697 0.44334 0.0
C343 C 0.07692 0.40977 0.44947 0.0
N344 N 0.07145 0.43123 0.46874 0.0
N345 N 1.02589 0.40441 0.47499 0.0
C346 C 0.91941 0.35898 0.52919 0.0
O347 O 0.94671 0.39222 0.54435 0.0
O348 O 0.18268 0.53782 0.47122 0.0
Zn349 Zn 0.99292 0.42359 0.49669 0.0
N350 N 0.14952 0.44364 0.50389 0.0
C351 C 0.15121 0.37197 0.51187 0.0
C352 C 0.13642 0.39775 0.49794 0.0
C353 C 0.17665 0.46465 0.52316 0.0
N354 N 0.17824 0.39304 0.53122 0.0
C355 C 0.19145 0.43893 0.53726 0.0
O356 O 0.02907 0.46142 0.52583 0.0
C357 C 0.07097 0.49367 0.53185 0.0
O358 O 0.10654 0.50585 0.51817 0.0
H359 H 0.11366 0.38055 0.48303 0.0
H360 H 0.18522 0.50064 0.52779 0.0
C361 C 0.9372 0.4523 0.46923 0.0
C362 C 0.93189 0.48186 0.45277 0.0
C363 C 1.01578 0.53584 0.45442 0.0
C364 C 1.0206 0.50664 0.47085 0.0
N365 N 0.98127 0.46561 0.47787 0.0
N366 N 0.97172 0.52292 0.44589 0.0
H367 H 0.90735 0.41842 0.47471 0.0
C368 C 0.21247 0.57695 0.48164 0.0
O369 O 0.2051 0.58214 0.50383 0.0
O370 O 0.93097 0.36489 0.50756 0.0
H371 H 0.05554 0.5157 0.47749 0.0
H372 H 0.1409 0.33536 0.50749 0.0
H373 H 0.04673 0.56847 0.44847 0.0
Zn374 Zn 0.60405 0.9668 0.65208 0.0
C375 C 0.70991 0.06312 0.61252 0.0
N376 N 0.71483 0.02548 0.6061 0.0
C377 C 0.68589 0.99057 0.62097 0.0
N378 N 0.66353 1.00656 0.63572 0.0
N379 N 0.67925 0.05251 0.63062 0.0
C380 C 0.65927 0.18704 0.63682 0.0
O381 O 0.64042 0.17777 0.65789 0.0
O382 O 0.6042 0.91322 0.67226 0.0
Zn383 Zn 0.67079 0.10219 0.64855 0.0
N384 N 0.55529 0.94371 0.62742 0.0
C385 C 0.5345 0.93889 0.58688 0.0
C386 C 0.5689 0.95394 0.60453 0.0
C387 C 0.50836 0.91965 0.63323 0.0
N388 N 0.48761 0.91498 0.59273 0.0
C389 C 0.47349 0.90478 0.61547 0.0
O390 O 0.61733 0.08022 0.67358 0.0
C391 C 0.59106 0.04051 0.6839 0.0
O392 O 0.58781 1.00203 0.67618 0.0
H393 H 0.60606 0.97394 0.59977 0.0
H394 H 0.4986 0.91388 0.65156 0.0
C395 C 0.72002 0.15688 0.68716 0.0
C396 C 0.75194 0.17253 0.70602 0.0
C397 C 0.79125 0.13414 0.68924 0.0
C398 C 0.75898 0.11837 0.6705 0.0
N399 N 0.72411 0.1303 0.66985 0.0
N400 N 0.78694 0.16068 0.7066 0.0
H401 H 0.69073 0.16397 0.68674 0.0
C402 C 0.57323 0.89487 0.6886 0.0
O403 O 0.54088 0.90793 0.69059 0.0
O404 O 0.67312 0.15905 0.62827 0.0
H405 H 0.76093 0.09574 0.65706 0.0
H406 H 0.54499 0.94675 0.56869 0.0
H407 H 0.81911 0.12484 0.69014 0.0
H408 H 0.45066 0.65266 0.06684 0.0
H409 H 0.36144 0.5497 0.11949 0.0
H410 H 0.34962 0.61237 0.1385 0.0
H411 H 0.50941 0.75431 0.10594 0.0
H412 H 0.5117 0.79642 0.08444 0.0
H413 H 0.51203 0.74314 0.07514 0.0
H414 H 0.43819 0.72007 0.0488 0.0
H415 H 0.43744 0.77313 0.05812 0.0
H416 H 0.38486 0.71503 0.06161 0.0
H417 H 0.34674 0.68899 0.15139 0.0
H418 H 0.35723 0.76984 0.15791 0.0
H419 H 0.45062 0.82261 0.09741 0.0
C420 C 0.42867 0.64306 0.08242 0.0
C421 C 0.40678 0.59561 0.09149 0.0
C422 C 0.37855 0.58536 0.11203 0.0
C423 C 0.37159 0.62094 0.12296 0.0
C424 C 0.3934 0.66718 0.11338 0.0
C425 C 0.42176 0.67822 0.09364 0.0
C426 C 0.44213 0.73061 0.08691 0.0
C427 C 0.49707 0.75771 0.08819 0.0
C428 C 0.4246 0.73494 0.06241 0.0
C429 C 0.42097 0.74767 0.10587 0.0
C430 C 0.39262 0.71058 0.12093 0.0
C431 C 0.36908 0.71806 0.13966 0.0
C432 C 0.37512 0.76431 0.14321 0.0
C433 C 0.40485 0.80323 0.12828 0.0
C434 C 0.42769 0.79411 0.10928 0.0
H435 H 0.77641 0.41975 0.22876 0.0
H436 H 0.83147 0.37717 0.28796 0.0
H437 H 0.76144 0.3638 0.31141 0.0
H438 H 0.72944 0.48251 0.26107 0.0
H439 H 0.67665 0.46217 0.24317 0.0
H440 H 0.73023 0.4673 0.23069 0.0
H441 H 0.683 0.3784 0.21778 0.0
H442 H 0.62923 0.37299 0.2302 0.0
H443 H 0.64973 0.33271 0.23928 0.0
H444 H 0.68701 0.35777 0.32902 0.0
H445 H 0.61357 0.35752 0.3398 0.0
H446 H 0.60253 0.40235 0.2693 0.0
C447 C 0.77389 0.40763 0.24668 0.0
C448 C 0.81029 0.39995 0.25648 0.0
C449 C 0.80473 0.38357 0.27995 0.0
C450 C 0.76484 0.37584 0.29343 0.0
C451 C 0.73006 0.3841 0.28329 0.0
C452 C 0.73391 0.3993 0.26038 0.0
C453 C 0.69119 0.40534 0.25378 0.0
C454 C 0.70789 0.45744 0.24676 0.0
C455 C 0.66154 0.37028 0.23409 0.0
C456 C 0.66319 0.39229 0.27676 0.0
C457 C 0.68645 0.37995 0.2934 0.0
C458 C 0.66863 0.36727 0.31606 0.0
C459 C 0.6265 0.36741 0.32202 0.0
C460 C 0.60148 0.38014 0.30559 0.0
C461 C 0.62025 0.39238 0.28242 0.0
H462 H 0.27721 0.66665 0.4989 0.0
H463 H 0.24801 0.5769 0.43741 0.0
H464 H 0.32127 0.64121 0.41859 0.0
H465 H 0.32158 0.77864 0.46848 0.0
H466 H 0.36667 0.81274 0.4902 0.0
H467 H 0.31255 0.75935 0.49865 0.0
H468 H 0.36262 0.72439 0.51634 0.0
H469 H 0.4169 0.77766 0.50787 0.0
H470 H 0.40581 0.71967 0.49824 0.0
H471 H 0.40054 0.71725 0.40672 0.0
H472 H 0.47345 0.79671 0.40236 0.0
H473 H 0.44953 0.83717 0.47143 0.0
C474 C 0.28597 0.66031 0.48143 0.0
C475 C 0.25617 0.6162 0.46965 0.0
C476 C 0.26962 0.61007 0.44681 0.0
C477 C 0.31148 0.64654 0.43601 0.0
C478 C 0.33998 0.68944 0.44818 0.0
C479 C 0.32751 0.69641 0.4704 0.0
C480 C 0.36368 0.74582 0.47975 0.0
C481 C 0.33968 0.77591 0.48455 0.0
C482 C 0.38872 0.74162 0.50186 0.0
C483 C 0.39833 0.766 0.45928 0.0
C484 C 0.38441 0.73282 0.4413 0.0
C485 C 0.41137 0.74336 0.42073 0.0
C486 C 0.45296 0.78879 0.4184 0.0
C487 C 0.46753 0.82387 0.43641 0.0
C488 C 0.43958 0.81169 0.45717 0.0
H489 H 0.64928 0.43107 0.62546 0.0
H490 H 0.68438 0.43645 0.55172 0.0
H491 H 0.69003 0.36298 0.55654 0.0
H492 H 0.72843 0.3881 0.64628 0.0
H493 H 0.68737 0.35072 0.66867 0.0
H494 H 0.68784 0.40445 0.65942 0.0
H495 H 0.5974 0.35473 0.64979 0.0
H496 H 0.59668 0.30091 0.65899 0.0
H497 H 0.57612 0.3044 0.63002 0.0
H498 H 0.68942 0.28498 0.56986 0.0
H499 H 0.68269 0.21347 0.59008 0.0
H500 H 0.64812 0.26014 0.6548 0.0
C501 C 0.65834 0.41704 0.61027 0.0
C502 C 0.66614 0.43999 0.58812 0.0
C503 C 0.67809 0.41995 0.56887 0.0
C504 C 0.68141 0.37801 0.57147 0.0
C505 C 0.67301 0.3561 0.59349 0.0
C506 C 0.66197 0.37529 0.61258 0.0
C507 C 0.65405 0.34491 0.63436 0.0
C508 C 0.69165 0.37376 0.6533 0.0
C509 C 0.60303 0.32506 0.64384 0.0
C510 C 0.66125 0.30503 0.62453 0.0
C511 C 0.67258 0.3121 0.60097 0.0
C512 C 0.68057 0.2794 0.58832 0.0
C513 C 0.67664 0.23869 0.59995 0.0
C514 C 0.66466 0.23054 0.62408 0.0
C515 C 0.65711 0.26468 0.63633 0.0
H516 H 0.20576 0.60577 0.80714 0.0
H517 H 0.25686 0.69617 0.74543 0.0
H518 H 0.33703 0.70524 0.75126 0.0
H519 H 0.31563 0.67149 0.84143 0.0
H520 H 0.30988 0.61808 0.85471 0.0
H521 H 0.25722 0.61991 0.84584 0.0
H522 H 0.23046 0.54405 0.82036 0.0
H523 H 0.28313 0.54214 0.82906 0.0
H524 H 0.27044 0.54386 0.79838 0.0
H525 H 0.413 0.70139 0.76347 0.0
H526 H 0.47532 0.68798 0.78158 0.0
H527 H 0.37465 0.60156 0.83562 0.0
C528 C 0.23378 0.62773 0.79486 0.0
C529 C 0.22436 0.65019 0.77574 0.0
C530 C 0.26262 0.67858 0.76024 0.0
C531 C 0.30851 0.68388 0.76341 0.0
C532 C 0.31633 0.66081 0.78228 0.0
C533 C 0.27992 0.63362 0.79786 0.0
C534 C 0.29732 0.61247 0.81675 0.0
C535 C 0.29487 0.63164 0.84112 0.0
C536 C 0.26863 0.55737 0.81609 0.0
C537 C 0.34894 0.63132 0.80928 0.0
C538 C 0.35943 0.65918 0.78935 0.0
C539 C 0.4049 0.67975 0.77914 0.0
C540 C 0.44028 0.67187 0.78956 0.0
C541 C 0.43051 0.64371 0.81014 0.0
C542 C 0.38387 0.62334 0.81994 0.0
H543 H 0.69387 0.24367 0.89139 0.0
H544 H 0.58109 0.23739 0.93503 0.0
H545 H 0.63904 0.31601 0.95249 0.0
H546 H 0.78827 0.29685 0.93412 0.0
H547 H 0.83339 0.33372 0.91309 0.0
H548 H 0.78273 0.27776 0.90397 0.0
H549 H 0.76249 0.32216 0.872 0.0
H550 H 0.81321 0.37819 0.88106 0.0
H551 H 0.75444 0.37166 0.88033 0.0
H552 H 0.71184 0.39862 0.96487 0.0
H553 H 0.7904 0.47115 0.97245 0.0
H554 H 0.85576 0.42195 0.92141 0.0
C555 C 0.68113 0.25854 0.90469 0.0
C556 C 0.63235 0.23348 0.91183 0.0
C557 C 0.61792 0.25507 0.92928 0.0
C558 C 0.65077 0.3001 0.93924 0.0
C559 C 0.69844 0.32375 0.9317 0.0
C560 C 0.71349 0.30336 0.91485 0.0
C561 C 0.76665 0.33547 0.90989 0.0
C562 C 0.79439 0.30939 0.91562 0.0
C563 C 0.77466 0.35288 0.8843 0.0
C564 C 0.77966 0.37685 0.92682 0.0
C565 C 0.73974 0.36989 0.93905 0.0
C566 C 0.74313 0.40394 0.9554 0.0
C567 C 0.78813 0.44533 0.95959 0.0
C568 C 0.82993 0.45274 0.94774 0.0
C569 C 0.82497 0.41774 0.93098 0.0
H570 H 0.36608 0.11822 0.92991 0.0
H571 H 0.50142 0.12568 0.94355 0.0
H572 H 0.52302 0.1924 0.97154 0.0
H573 H 0.40656 0.24888 0.93812 0.0
H574 H 0.35114 0.23443 0.95233 0.0
H575 H 0.35202 0.19537 0.92993 0.0
H576 H 0.31277 0.12423 0.95907 0.0
H577 H 0.31296 0.16315 0.98173 0.0
H578 H 0.34174 0.12828 0.98674 0.0
H579 H 0.52396 0.25077 1.00234 0.0
H580 H 0.50623 0.29783 0.03093 0.0
H581 H 0.36765 0.24672 0.99808 0.0
C582 C 0.40124 0.13562 0.93795 0.0
C583 C 0.43314 0.11858 0.93382 0.0
C584 C 0.47784 0.14029 0.94546 0.0
C585 C 0.48991 0.17757 0.96171 0.0
C586 C 0.45671 0.19238 0.96609 0.0
C587 C 0.41349 0.17236 0.95424 0.0
C588 C 0.38167 0.19043 0.96372 0.0
C589 C 0.37232 0.21899 0.94491 0.0
C590 C 0.33453 0.14906 0.97339 0.0
C591 C 0.413 0.22271 0.98321 0.0
C592 C 0.45637 0.22395 0.98425 0.0
C593 C 0.49028 0.25037 1.00147 0.0
C594 C 0.47977 0.2767 1.01775 0.0
C595 C 0.43543 0.27575 1.01687 0.0
C596 C 0.40185 0.24822 0.99934 0.0
H597 H 0.15945 0.45033 0.14218 0.0
H598 H 0.22135 0.4888 0.21196 0.0
H599 H 0.29154 0.48422 0.19821 0.0
H600 H 0.19147 0.36494 0.13054 0.0
H601 H 0.20437 0.37919 0.09988 0.0
H602 H 0.16235 0.39147 0.11448 0.0
H603 H 0.21125 0.47969 0.10144 0.0
H604 H 0.25498 0.46891 0.08736 0.0
H605 H 0.27338 0.51498 0.10942 0.0
H606 H 0.34875 0.46396 0.17837 0.0
H607 H 0.3891 0.43134 0.15392 0.0
H608 H 0.29237 0.40997 0.09657 0.0
C609 C 0.18821 0.45889 0.15449 0.0
C610 C 0.18466 0.46965 0.17825 0.0
C611 C 0.22307 0.48028 0.19374 0.0
C612 C 0.26323 0.478 0.18603 0.0
C613 C 0.26498 0.46607 0.16264 0.0
C614 C 0.22867 0.45721 0.14702 0.0
C615 C 0.23743 0.44167 0.12328 0.0
C616 C 0.19649 0.39134 0.11668 0.0
C617 C 0.24472 0.47851 0.10425 0.0
C618 C 0.28341 0.44134 0.1282 0.0
C619 C 0.29894 0.45596 0.15096 0.0
C620 C 0.33768 0.45374 0.16036 0.0
C621 C 0.36037 0.43518 0.14636 0.0
C622 C 0.34468 0.41949 0.12316 0.0
C623 C 0.30635 0.42355 0.11384 0.0
H624 H 0.8359 0.20691 0.37529 0.0
H625 H 0.70537 0.16856 0.33707 0.0
H626 H 0.75249 0.22616 0.30585 0.0
H627 H 0.89902 0.33736 0.35828 0.0
H628 H 0.9559 0.33967 0.35678 0.0
H629 H 0.91112 0.29987 0.37725 0.0
H630 H 0.91609 0.22836 0.35959 0.0
H631 H 0.96027 0.26765 0.3389 0.0
H632 H 0.90613 0.21615 0.32858 0.0
H633 H 0.81531 0.27561 0.27539 0.0
H634 H 0.88782 0.32122 0.25115 0.0
H635 H 0.97629 0.33517 0.31115 0.0
C636 C 0.81727 0.21171 0.36064 0.0
C637 C 0.76714 0.18353 0.35856 0.0
C638 C 0.74379 0.19035 0.33912 0.0
C639 C 0.77027 0.2228 0.32124 0.0
C640 C 0.81992 0.24902 0.32341 0.0
C641 C 0.84306 0.24479 0.34296 0.0
C642 C 0.89676 0.27565 0.34069 0.0
C643 C 0.91688 0.31551 0.35936 0.0
C644 C 0.92121 0.24511 0.34201 0.0
C645 C 0.90032 0.29594 0.31633 0.0
C646 C 0.85571 0.28029 0.30659 0.0
C647 C 0.85041 0.28988 0.28321 0.0
C648 C 0.89177 0.31646 0.26959 0.0
C649 C 0.93769 0.33412 0.27952 0.0
C650 C 0.94167 0.32352 0.30321 0.0
H651 H 0.62231 0.90073 0.43678 0.0
H652 H 0.64172 0.99273 0.49617 0.0
H653 H 0.62338 0.92592 0.52314 0.0
H654 H 0.52575 0.78688 0.46305 0.0
H655 H 0.54923 0.75189 0.45009 0.0
H656 H 0.55658 0.80461 0.43533 0.0
H657 H 0.64802 0.83895 0.43403 0.0
H658 H 0.64131 0.78669 0.4489 0.0
H659 H 0.6802 0.84546 0.46095 0.0
H660 H 0.61144 0.8519 0.54393 0.0
H661 H 0.60626 0.77604 0.55663 0.0
H662 H 0.597 0.73277 0.48379 0.0
C663 C 0.62133 0.90648 0.45532 0.0
C664 C 0.63302 0.95196 0.46426 0.0
C665 C 0.63256 0.9581 0.48887 0.0
C666 C 0.62208 0.92031 0.50436 0.0
C667 C 0.61212 0.87631 0.49505 0.0
C668 C 0.61129 0.86904 0.47108 0.0
C669 C 0.60369 0.81957 0.4657 0.0
C670 C 0.55596 0.78893 0.45278 0.0
C671 C 0.64582 0.8229 0.45157 0.0
C672 C 0.60209 0.80096 0.49036 0.0
C673 C 0.60621 0.83391 0.50705 0.0
C674 C 0.60751 0.82551 0.53101 0.0
C675 C 0.60463 0.78233 0.53809 0.0
C676 C 0.60114 0.74834 0.52128 0.0
C677 C 0.59949 0.75788 0.49713 0.0
H678 H 0.74644 0.65442 0.63472 0.0
H679 H 0.74865 0.58564 0.56981 0.0
H680 H 0.78989 0.54848 0.59018 0.0
H681 H 0.86346 0.6849 0.65348 0.0
H682 H 0.84802 0.67508 0.68414 0.0
H683 H 0.81561 0.69273 0.66468 0.0
H684 H 0.7364 0.61839 0.67745 0.0
H685 H 0.76847 0.59961 0.69658 0.0
H686 H 0.72923 0.55944 0.67429 0.0
H687 H 0.83241 0.52012 0.61812 0.0
H688 H 0.87827 0.50855 0.64957 0.0
H689 H 0.85198 0.60008 0.69566 0.0
C690 C 0.75548 0.63143 0.62475 0.0
C691 C 0.743 0.62166 0.60075 0.0
C692 C 0.75609 0.59202 0.58833 0.0
C693 C 0.77991 0.57114 0.59978 0.0
C694 C 0.7909 0.58088 0.62359 0.0
C695 C 0.7795 0.61079 0.63585 0.0
C696 C 0.79732 0.61768 0.66098 0.0
C697 C 0.83325 0.67074 0.66611 0.0
C698 C 0.75534 0.59758 0.67834 0.0
C699 C 0.82147 0.58772 0.66092 0.0
C700 C 0.8167 0.56613 0.63932 0.0
C701 C 0.83631 0.53691 0.63506 0.0
C702 C 0.86221 0.53044 0.65313 0.0
C703 C 0.86887 0.55349 0.67518 0.0
C704 C 0.84758 0.58199 0.67908 0.0
H705 H 0.14381 0.73351 0.76948 0.0
H706 H 0.05507 0.65667 0.82875 0.0
H707 H 0.12333 0.70369 0.85553 0.0
H708 H 0.25932 0.75049 0.79264 0.0
H709 H 0.29208 0.80966 0.78021 0.0
H710 H 0.23848 0.76442 0.766 0.0
H711 H 0.20374 0.82163 0.76784 0.0
H712 H 0.25677 0.86632 0.78257 0.0
H713 H 0.19901 0.845 0.79585 0.0
H714 H 0.20046 0.7637 0.87612 0.0
H715 H 0.27791 0.83293 0.88846 0.0
H716 H 0.31381 0.87294 0.81555 0.0
C717 C 0.13907 0.72533 0.7879 0.0
C718 C 0.09434 0.69054 0.79689 0.0
C719 C 0.08929 0.68265 0.82143 0.0
C720 C 0.12789 0.70915 0.83677 0.0
C721 C 0.17135 0.74389 0.82733 0.0
C722 C 0.17709 0.75198 0.80342 0.0
C723 C 0.22579 0.79447 0.79785 0.0
C724 C 0.25566 0.77879 0.7833 0.0
C725 C 0.22101 0.83419 0.7853 0.0
C726 C 0.24618 0.80966 0.82236 0.0
C727 C 0.21466 0.77959 0.83915 0.0
C728 C 0.22553 0.78718 0.86307 0.0
C729 C 0.26961 0.82659 0.86995 0.0
C730 C 0.3019 0.85842 0.85302 0.0
C731 C 0.2899 0.84937 0.82895 0.0
H732 H 0.74883 0.56678 0.87376 0.0
H733 H 0.75503 0.70005 0.8934 0.0
H734 H 0.82371 0.71992 0.91921 0.0
H735 H 0.78458 0.54422 0.93293 0.0
H736 H 0.81786 0.51882 0.92 0.0
H737 H 0.7662 0.51346 0.90511 0.0
H738 H 0.81925 0.55088 0.86882 0.0
H739 H 0.87183 0.55955 0.884 0.0
H740 H 0.87127 0.61006 0.87069 0.0
H741 H 0.89561 0.72983 0.93948 0.0
H742 H 0.96698 0.72853 0.95393 0.0
H743 H 0.91456 0.58775 0.92329 0.0
C744 C 0.76467 0.60008 0.88353 0.0
C745 C 0.7468 0.6321 0.88139 0.0
C746 C 0.76802 0.67497 0.89473 0.0
C747 C 0.80702 0.68655 0.9095 0.0
C748 C 0.82408 0.6546 0.91105 0.0
C749 C 0.80346 0.61199 0.89867 0.0
C750 C 0.82992 0.58481 0.90323 0.0
C751 C 0.79767 0.53753 0.9161 0.0
C752 C 0.84927 0.5759 0.88031 0.0
C753 C 0.87006 0.62003 0.91907 0.0
C754 C 0.8654 0.65973 0.92353 0.0
C755 C 0.89934 0.69871 0.9364 0.0
C756 C 0.93969 0.69767 0.94451 0.0
C757 C 0.94554 0.6577 0.94006 0.0
C758 C 0.90999 0.61801 0.9275 0.0
H759 H 0.34712 0.9463 0.07593 0.0
H760 H 0.31828 0.87602 0.14351 0.0
H761 H 0.26171 0.79891 0.12474 0.0
H762 H 0.23031 0.88748 0.05561 0.0
H763 H 0.24401 0.88244 0.02546 0.0
H764 H 0.2875 0.93036 0.04349 0.0
H765 H 0.34956 0.90401 0.03445 0.0
H766 H 0.30621 0.85605 1.01625 0.0
H767 H 0.33472 0.84304 0.0401 0.0
H768 H 0.19977 0.73282 0.09979 0.0
H769 H 0.13977 0.68135 0.07033 0.0
H770 H 0.20918 0.79258 1.01798 0.0
C771 C 0.32984 0.91433 0.08665 0.0
C772 C 0.33827 0.91687 0.11117 0.0
C773 C 0.314 0.87464 0.12468 0.0
C774 C 0.28138 0.83073 0.11413 0.0
C775 C 0.27341 0.8296 0.08998 0.0
C776 C 0.29735 0.87021 0.07632 0.0
C777 C 0.2798 0.86006 0.05104 0.0
C778 C 0.25918 0.89197 0.04347 0.0
C779 C 0.31997 0.86615 0.03448 0.0
C780 C 0.24091 0.80781 0.05275 0.0
C781 C 0.23812 0.79097 0.07539 0.0
C782 C 0.20239 0.7453 0.08193 0.0
C783 C 0.1684 0.71634 0.06509 0.0
C784 C 0.17042 0.73268 0.04183 0.0
C785 C 0.20769 0.77875 0.03547 0.0
H786 H 0.45414 0.33339 0.25515 0.0
H787 H 0.33294 0.23897 0.29826 0.0
H788 H 0.34017 0.16967 0.28529 0.0
H789 H 0.4187 0.2548 0.2073 0.0
H790 H 0.4778 0.2691 0.19819 0.0
H791 H 0.4693 0.31303 0.21363 0.0
H792 H 0.53038 0.32107 0.24548 0.0
H793 H 0.53989 0.2779 0.22983 0.0
H794 H 0.52252 0.26815 0.26023 0.0
H795 H 0.35851 0.11094 0.26733 0.0
H796 H 0.37877 0.06325 0.24104 0.0
H797 H 0.48362 0.19339 0.20598 0.0
C798 C 0.43047 0.29829 0.26243 0.0
C799 C 0.39431 0.29139 0.27848 0.0
C800 C 0.36173 0.24479 0.28654 0.0
C801 C 0.36555 0.20535 0.27925 0.0
C802 C 0.40164 0.21306 0.26351 0.0
C803 C 0.43324 0.25818 0.25491 0.0
C804 C 0.46455 0.25525 0.23585 0.0
C805 C 0.45713 0.27417 0.21235 0.0
C806 C 0.51746 0.28218 0.2433 0.0
C807 C 0.445 0.20145 0.23491 0.0
C808 C 0.40966 0.17818 0.2515 0.0
C809 C 0.38591 0.12864 0.25415 0.0
C810 C 0.39775 0.10186 0.23909 0.0
C811 C 0.43249 0.12446 0.22127 0.0
C812 C 0.45674 0.17507 0.21934 0.0
H813 H 0.11496 0.35511 0.4361 0.0
H814 H 0.13707 0.49894 0.43162 0.0
H815 H 0.20585 0.52179 0.4049 0.0
H816 H 0.24066 0.38763 0.43533 0.0
H817 H 0.22924 0.3364 0.41776 0.0
H818 H 0.18378 0.33302 0.43723 0.0
H819 H 0.12439 0.30769 0.40223 0.0
H820 H 0.16987 0.31151 0.38267 0.0
H821 H 0.14052 0.34546 0.37663 0.0
H822 H 0.27049 0.52712 0.37702 0.0
H823 H 0.32642 0.51521 0.35191 0.0
H824 H 0.26154 0.36789 0.37555 0.0
C825 C 0.13512 0.39176 0.42993 0.0
C826 C 0.12193 0.42584 0.43645 0.0
C827 C 0.14807 0.47303 0.42758 0.0
C828 C 0.18677 0.48607 0.41223 0.0
C829 C 0.19895 0.45153 0.40612 0.0
C830 C 0.17402 0.40541 0.41489 0.0
C831 C 0.19315 0.37448 0.40523 0.0
C832 C 0.21289 0.35686 0.42507 0.0
C833 C 0.15468 0.3323 0.39084 0.0
C834 C 0.2328 0.41026 0.38962 0.0
C835 C 0.23549 0.45447 0.39016 0.0
C836 C 0.26877 0.4927 0.3766 0.0
C837 C 0.30027 0.4856 0.36234 0.0
C838 C 0.29831 0.44067 0.36181 0.0
C839 C 0.26408 0.40273 0.37568 0.0
H840 H 0.77061 0.15797 0.62454 0.0
H841 H 0.6926 0.06415 0.56652 0.0
H842 H 0.73121 0.13233 0.53911 0.0
H843 H 0.77564 0.27089 0.60097 0.0
H844 H 0.83516 0.30678 0.61248 0.0
H845 H 0.79315 0.2522 0.62717 0.0
H846 H 0.85642 0.22457 0.62387 0.0
H847 H 0.89632 0.27807 0.608 0.0
H848 H 0.87761 0.22009 0.59525 0.0
H849 H 0.78501 0.2075 0.51738 0.0
H850 H 0.85077 0.28477 0.5029 0.0
H851 H 0.89499 0.33041 0.5748 0.0
C852 C 0.76047 0.15234 0.60623 0.0
C853 C 0.72805 0.10614 0.59763 0.0
C854 C 0.71699 0.09956 0.5734 0.0
C855 C 0.73861 0.13805 0.55772 0.0
C856 C 0.77145 0.18303 0.56654 0.0
C857 C 0.7822 0.19054 0.59025 0.0
C858 C 0.82267 0.24121 0.59472 0.0
C859 C 0.80561 0.2694 0.60974 0.0
C860 C 0.86579 0.24093 0.60612 0.0
C861 C 0.83371 0.26035 0.56981 0.0
C862 C 0.80336 0.22642 0.55386 0.0
C863 C 0.80857 0.23468 0.52972 0.0
C864 C 0.84609 0.27864 0.52164 0.0
C865 C 0.87787 0.31384 0.53767 0.0
C866 C 0.87098 0.30455 0.56207 0.0
H867 H 0.61432 0.83754 0.68532 0.0
H868 H 0.53702 0.87973 0.73284 0.0
H869 H 0.54193 0.82895 0.76385 0.0
H870 H 0.55716 0.71309 0.70526 0.0
H871 H 0.61073 0.70937 0.70196 0.0
H872 H 0.60076 0.74881 0.68338 0.0
H873 H 0.68211 0.8205 0.69641 0.0
H874 H 0.69237 0.78133 0.71499 0.0
H875 H 0.6942 0.83384 0.72723 0.0
H876 H 0.56195 0.77874 0.79111 0.0
H877 H 0.59008 0.72868 0.81069 0.0
H878 H 0.64614 0.71264 0.74444 0.0
C879 C 0.59836 0.83595 0.70224 0.0
C880 C 0.57548 0.86279 0.70665 0.0
C881 C 0.55464 0.8594 0.72898 0.0
C882 C 0.5573 0.8307 0.74677 0.0
C883 C 0.58023 0.80481 0.74194 0.0
C884 C 0.59982 0.80663 0.72011 0.0
C885 C 0.62196 0.77484 0.71939 0.0
C886 C 0.5961 0.73411 0.70143 0.0
C887 C 0.67586 0.8044 0.7142 0.0
C888 C 0.6127 0.75579 0.74431 0.0
C889 C 0.58882 0.77359 0.75714 0.0
C890 C 0.57948 0.76349 0.78104 0.0
C891 C 0.59491 0.73436 0.79203 0.0
C892 C 0.61842 0.71486 0.77905 0.0
C893 C 0.62724 0.72599 0.75487 0.0
H894 H 0.45307 0.52664 0.99682 0.0
H895 H 0.46684 0.39915 0.9973 0.0
H896 H 0.49279 0.41335 0.95635 0.0
H897 H 0.40753 0.51136 0.93715 0.0
H898 H 0.43993 0.57419 0.92981 0.0
H899 H 0.42331 0.55586 0.95982 0.0
H900 H 0.51178 0.60726 0.9726 0.0
H901 H 0.52852 0.6259 0.94265 0.0
H902 H 0.55666 0.59822 0.95858 0.0
H903 H 0.51734 0.43928 0.91551 0.0
H904 H 0.5422 0.47814 0.87689 0.0
H905 H 0.51231 0.58908 0.89975 0.0
C906 C 0.46206 0.5021 0.98833 0.0
C907 C 0.4576 0.46153 1.00063 0.0
C908 C 0.46934 0.43019 0.98856 0.0
C909 C 0.4843 0.43795 0.96513 0.0
C910 C 0.48742 0.47728 0.95342 0.0
C911 C 0.47692 0.50915 0.96446 0.0
C912 C 0.48327 0.54829 0.94717 0.0
C913 C 0.43568 0.54736 0.94326 0.0
C914 C 0.52239 0.59786 0.95576 0.0
C915 C 0.49897 0.53319 0.92493 0.0
C916 C 0.50101 0.49204 0.92916 0.0
C917 C 0.51567 0.47141 0.91193 0.0
C918 C 0.52962 0.49372 0.88992 0.0
C919 C 0.52867 0.53631 0.8849 0.0
C920 C 0.51242 0.55592 0.90271 0.0
H921 H 0.0597 0.51072 0.15252 0.0
H922 H 0.91088 0.45486 0.17118 0.0
H923 H 0.89441 0.4725 0.13119 0.0
H924 H 0.07053 0.60883 0.11609 0.0
H925 H 0.10961 0.60361 0.09525 0.0
H926 H 0.10931 0.58663 0.12538 0.0
H927 H 0.09158 0.50262 0.11158 0.0
H928 H 0.0911 0.51933 0.08146 0.0
H929 H 0.04003 0.46694 0.09334 0.0
H930 H 0.89346 0.4941 0.08843 0.0
H931 H 0.90889 0.52331 0.04766 0.0
H932 H 0.05921 0.56844 0.05656 0.0
C933 C 1.02366 0.50245 0.14829 0.0
C934 C 0.98658 0.48123 0.16525 0.0
C935 C 0.94003 0.47121 0.15877 0.0
C936 C 0.93026 0.48097 0.13596 0.0
C937 C 0.96747 0.5014 0.11969 0.0
C938 C 1.0134 0.5126 0.12564 0.0
C939 C 0.0471 0.53514 0.10492 0.0
C940 C 0.08646 0.58661 0.11076 0.0
C941 C 0.06872 0.50415 0.09739 0.0
C942 C 1.01295 0.53473 0.08634 0.0
C943 C 0.96712 0.51475 0.09521 0.0
C944 C 0.92928 0.50998 0.08139 0.0
C945 C 0.93846 0.52662 0.0581 0.0
C946 C 0.9853 0.54829 0.04857 0.0
C947 C 1.02292 0.55199 0.06306 0.0
H948 H 0.45617 0.93403 0.23577 0.0
H949 H 0.58213 0.05388 0.20532 0.0
H950 H 0.62682 0.06342 0.24207 0.0
H951 H 0.47327 0.9877 0.29271 0.0
H952 H 0.45233 0.93329 0.30934 0.0
H953 H 0.42985 0.93108 0.28012 0.0
H954 H 0.45573 0.87097 0.26699 0.0
H955 H 0.47728 0.87129 0.29623 0.0
H956 H 0.51669 0.88502 0.27149 0.0
H957 H 0.65799 0.06165 0.28198 0.0
H958 H 0.67389 0.05108 0.32296 0.0
H959 H 0.52733 0.93495 0.33044 0.0
C960 C 0.49354 0.96147 0.23669 0.0
C961 C 0.51606 0.9925 0.21727 0.0
C962 C 0.56437 0.02921 0.21964 0.0
C963 C 0.59 0.03497 0.24054 0.0
C964 C 0.56683 1.00436 0.25937 0.0
C965 C 0.51958 0.96846 0.2578 0.0
C966 C 0.50276 0.94267 0.28138 0.0
C967 C 0.46215 0.94906 0.29149 0.0
C968 C 0.48719 0.88931 0.27887 0.0
C969 C 0.54816 0.96921 0.29626 0.0
C970 C 0.58451 1.00453 0.28301 0.0
C971 C 0.62979 0.03404 0.29248 0.0
C972 C 0.63847 0.02754 0.31596 0.0
C973 C 0.60219 0.99188 0.33031 0.0
C974 C 0.55616 0.96231 0.32012 0.0
H975 H 0.53457 0.44143 0.38861 0.0
H976 H 0.44578 0.50633 0.37847 0.0
H977 H 0.46179 0.53593 0.41891 0.0
H978 H 0.50163 0.40517 0.44878 0.0
H979 H 0.56071 0.42027 0.45851 0.0
H980 H 0.5434 0.40359 0.42836 0.0
H981 H 0.61611 0.48317 0.41454 0.0
H982 H 0.6338 0.49978 0.44465 0.0
H983 H 0.62448 0.53922 0.42574 0.0
H984 H 0.48357 0.55657 0.46063 0.0
H985 H 0.51687 0.5743 0.5005 0.0
H986 H 0.59565 0.50048 0.4857 0.0
C987 C 0.51887 0.46223 0.39484 0.0
C988 C 0.48868 0.47123 0.37993 0.0
C989 C 0.46901 0.49868 0.38909 0.0
C990 C 0.47774 0.51567 0.41226 0.0
C991 C 0.50678 0.50568 0.42647 0.0
C992 C 0.52781 0.4803 0.41815 0.0
C993 C 0.55846 0.47592 0.43745 0.0
C994 C 0.53993 0.42309 0.44364 0.0
C995 C 0.61135 0.50102 0.43016 0.0
C996 C 0.5508 0.50238 0.45778 0.0
C997 C 0.52052 0.51883 0.45089 0.0
C998 C 0.50753 0.54407 0.4662 0.0
C999 C 0.52666 0.55386 0.48898 0.0
C1000 C 0.55899 0.53885 0.49663 0.0
C1001 C 0.5707 0.51213 0.4807 0.0
H1002 H 0.99608 0.54161 0.65992 0.0
H1003 H 0.14741 0.6246 0.67663 0.0
H1004 H 0.16674 0.60852 0.63696 0.0
H1005 H 1.00267 0.45034 0.62519 0.0
H1006 H 0.95824 0.44486 0.60428 0.0
H1007 H 0.9562 0.46251 0.63406 0.0
H1008 H 0.95764 0.53897 0.61905 0.0
H1009 H 0.95986 0.52173 0.58921 0.0
H1010 H 1.00525 0.57943 0.59996 0.0
H1011 H 0.16996 0.58458 0.59457 0.0
H1012 H 0.1566 0.55231 0.55421 0.0
H1013 H 1.00324 0.48396 0.56479 0.0
C1014 C 0.03333 0.55621 0.65537 0.0
C1015 C 0.07015 0.58438 0.67175 0.0
C1016 C 0.11836 0.60275 0.66471 0.0
C1017 C 0.12977 0.5939 0.64208 0.0
C1018 C 0.09271 0.56637 0.6264 0.0
C1019 C 0.0454 0.54752 0.6328 0.0
C1020 C 1.01232 0.51897 0.61261 0.0
C1021 C 0.98048 0.46603 0.61945 0.0
C1022 C 0.98198 0.54111 0.60475 0.0
C1023 C 0.04836 0.52479 0.59384 0.0
C1024 C 0.09455 0.5524 0.60213 0.0
C1025 C 0.13387 0.56289 0.58798 0.0
C1026 C 0.12588 0.54445 0.56493 0.0
C1027 C 0.07886 0.51544 0.556 0.0
C1028 C 0.03971 0.50585 0.57086 0.0
H1029 H 0.56667 0.10307 0.81964 0.0
H1030 H 0.45074 0.95503 0.82285 0.0
H1031 H 0.45841 0.94599 0.78094 0.0
H1032 H 0.53981 0.13015 0.76132 0.0
H1033 H 0.60118 0.16415 0.7519 0.0
H1034 H 0.58673 0.16175 0.78258 0.0
H1035 H 0.64465 0.13072 0.79243 0.0
H1036 H 0.65944 0.13334 0.76181 0.0
H1037 H 0.63782 0.07802 0.77775 0.0
H1038 H 0.4742 0.95106 0.73888 0.0
H1039 H 0.50761 0.9661 0.69911 0.0
H1040 H 0.61917 0.10793 0.72049 0.0
C1041 C 0.5432 0.0687 0.81153 0.0
C1042 C 0.5076 0.03 0.825 0.0
C1043 C 0.47797 0.98566 0.81341 0.0
C1044 C 0.48183 0.98 0.78934 0.0
C1045 C 0.51613 1.01862 0.7766 0.0
C1046 C 0.54722 0.06187 0.78717 0.0
C1047 C 0.58261 0.09614 0.76896 0.0
C1048 C 0.57725 0.14069 0.76602 0.0
C1049 C 0.63419 0.11038 0.77565 0.0
C1050 C 0.56637 0.06494 0.7468 0.0
C1051 C 0.52727 0.02076 0.75182 0.0
C1052 C 0.50517 0.98533 0.73475 0.0
C1053 C 0.52454 0.9942 0.71214 0.0
C1054 C 0.56633 0.03785 0.70653 0.0
C1055 C 0.58686 0.07434 0.72405 0.0
H1056 H 0.39915 0.09481 0.09244 0.0
H1057 H 0.3862 0.08689 0.16781 0.0
H1058 H 0.39585 0.16794 0.169 0.0
H1059 H 0.47822 0.22476 0.08567 0.0
H1060 H 0.44597 0.23052 0.06128 0.0
H1061 H 0.44609 0.17519 0.06574 0.0
H1062 H 0.35388 0.12782 0.06651 0.0
H1063 H 0.3533 0.18265 0.0612 0.0
H1064 H 0.32238 0.14614 0.08625 0.0
H1065 H 0.40662 0.24957 0.16201 0.0
H1066 H 0.40196 0.31918 0.14828 0.0
H1067 H 0.39023 0.27012 0.07645 0.0
C1068 C 0.39961 0.11082 0.10921 0.0
C1069 C 0.39746 0.08655 0.13052 0.0
C1070 C 0.39432 0.10727 0.15179 0.0
C1071 C 0.39816 0.15277 0.15243 0.0
C1072 C 0.40238 0.17664 0.13135 0.0
C1073 C 0.40143 0.15581 0.11003 0.0
C1074 C 0.40038 0.18697 0.08997 0.0
C1075 C 0.44536 0.20542 0.07476 0.0
C1076 C 0.35476 0.15923 0.07511 0.0
C1077 C 0.40043 0.22823 0.10337 0.0
C1078 C 0.40294 0.22175 0.1272 0.0
C1079 C 0.40427 0.25469 0.1434 0.0
C1080 C 0.40159 0.29444 0.13529 0.0
C1081 C 0.39653 0.30148 0.11106 0.0
C1082 C 0.39626 0.26762 0.09486 0.0
H1083 H 0.27817 0.37833 0.31141 0.0
H1084 H 0.33066 0.38459 0.24098 0.0
H1085 H 0.26428 0.39344 0.2251 0.0
H1086 H 0.15751 0.31381 0.30009 0.0
H1087 H 0.13909 0.34657 0.31894 0.0
H1088 H 0.19307 0.3454 0.32538 0.0
H1089 H 0.24171 0.43769 0.32478 0.0
H1090 H 0.18782 0.43946 0.3191 0.0
H1091 H 0.23853 0.4701 0.29982 0.0
H1092 H 0.18381 0.38724 0.21653 0.0
H1093 H 0.10472 0.38247 0.21647 0.0
H1094 H 0.10931 0.39176 0.2922 0.0
C1095 C 0.27747 0.3846 0.29285 0.0
C1096 C 0.31119 0.38274 0.27759 0.0
C1097 C 0.30617 0.38702 0.25311 0.0
C1098 C 0.26829 0.39179 0.24388 0.0
C1099 C 0.23533 0.39279 0.25929 0.0
C1100 C 0.24025 0.39071 0.28333 0.0
C1101 C 0.1992 0.39188 0.29591 0.0
C1102 C 0.17053 0.34671 0.31096 0.0
C1103 C 0.21791 0.43755 0.31077 0.0
C1104 C 0.16979 0.39311 0.27527 0.0
C1105 C 0.19109 0.39333 0.25427 0.0
C1106 C 0.16828 0.3899 0.23287 0.0
C1107 C 0.12361 0.38796 0.23291 0.0
C1108 C 0.10234 0.39052 0.2541 0.0
C1109 C 0.12566 0.3922 0.27556 0.0
H1110 H 0.96356 0.27212 0.46993 0.0
H1111 H 0.93062 0.37766 0.44292 0.0
H1112 H 0.84731 0.31355 0.4347 0.0
H1113 H 0.89795 0.18384 0.42694 0.0
H1114 H 0.87817 0.1335 0.4465 0.0
H1115 H 0.93335 0.18812 0.45231 0.0
H1116 H 0.9033 0.19348 0.49374 0.0
H1117 H 0.84847 0.13827 0.48816 0.0
H1118 H 0.84666 0.19119 0.49666 0.0
H1119 H 0.76674 0.23427 0.42726 0.0
H1120 H 0.69855 0.15073 0.42367 0.0
H1121 H 0.78599 0.09775 0.45433 0.0
C1122 C 0.93829 0.28181 0.46299 0.0
C1123 C 0.95294 0.33037 0.45823 0.0
C1124 C 0.91946 0.34125 0.44804 0.0
C1125 C 0.87222 0.30477 0.44291 0.0
C1126 C 0.85886 0.2571 0.44773 0.0
C1127 C 0.89106 0.24574 0.45773 0.0
C1128 C 0.86887 0.19181 0.4603 0.0
C1129 C 0.89622 0.17324 0.44564 0.0
C1130 C 0.8667 0.17787 0.48626 0.0
C1131 C 0.81916 0.17441 0.45032 0.0
C1132 C 0.81389 0.21239 0.44298 0.0
C1133 C 0.77083 0.20445 0.43294 0.0
C1134 C 0.73234 0.15682 0.43067 0.0
C1135 C 0.73712 0.11751 0.43814 0.0
C1136 C 0.78124 0.12693 0.44817 0.0
H1137 H 0.74631 0.78652 0.57968 0.0
H1138 H 0.60586 0.68045 0.60403 0.0
H1139 H 0.58917 0.74464 0.61523 0.0
H1140 H 0.77131 0.87185 0.6252 0.0
H1141 H 0.80174 0.92387 0.60666 0.0
H1142 H 0.80157 0.86946 0.59913 0.0
H1143 H 0.76566 0.86876 0.55833 0.0
H1144 H 0.76606 0.9234 0.56567 0.0
H1145 H 0.71121 0.87128 0.55652 0.0
H1146 H 0.58852 0.82183 0.62455 0.0
H1147 H 0.60336 0.90342 0.63064 0.0
H1148 H 0.74586 0.96144 0.60233 0.0
C1149 C 0.71174 0.77688 0.587 0.0
C1150 C 0.67658 0.72799 0.59011 0.0
C1151 C 0.63242 0.71708 0.6004 0.0
C1152 C 0.62292 0.75361 0.60715 0.0
C1153 C 0.65814 0.80137 0.60371 0.0
C1154 C 0.70166 0.81311 0.59377 0.0
C1155 C 0.73369 0.86734 0.5924 0.0
C1156 C 0.77981 0.8841 0.6067 0.0
C1157 C 0.74481 0.88365 0.5667 0.0
C1158 C 0.70184 0.88428 0.60352 0.0
C1159 C 0.65833 0.84562 0.60978 0.0
C1160 C 0.62283 0.85224 0.61999 0.0
C1161 C 0.63194 0.8993 0.62387 0.0
C1162 C 0.6764 0.93987 0.61805 0.0
C1163 C 0.71157 0.93163 0.60748 0.0
H1164 H 0.75136 0.64636 0.82151 0.0
H1165 H 0.70577 0.64596 0.75005 0.0
H1166 H 0.77406 0.63944 0.73561 0.0
H1167 H 0.8717 0.70609 0.81592 0.0
H1168 H 0.88542 0.66814 0.83364 0.0
H1169 H 0.83154 0.67011 0.83896 0.0
H1170 H 0.78133 0.57873 0.83383 0.0
H1171 H 0.83445 0.57514 0.82801 0.0
H1172 H 0.78586 0.55106 0.80726 0.0
H1173 H 0.8555 0.64729 0.72906 0.0
H1174 H 0.93473 0.65272 0.73077 0.0
H1175 H 0.91917 0.6292 0.80568 0.0
C1176 C 0.75322 0.64099 0.80302 0.0
C1177 C 0.72123 0.64465 0.78717 0.0
C1178 C 0.72898 0.64268 0.76275 0.0
C1179 C 0.76788 0.63894 0.75428 0.0
C1180 C 0.79868 0.63561 0.77033 0.0
C1181 C 0.79084 0.63477 0.79421 0.0
C1182 C 0.829 0.62955 0.80755 0.0
C1183 C 0.856 0.67096 0.82504 0.0
C1184 C 0.8063 0.58073 0.81993 0.0
C1185 C 0.86127 0.63128 0.78758 0.0
C1186 C 0.84299 0.6347 0.76623 0.0
C1187 C 0.86863 0.64149 0.74549 0.0
C1188 C 0.91329 0.64349 0.74649 0.0
C1189 C 0.93171 0.63724 0.7679 0.0
C1190 C 0.90526 0.63176 0.78877 0.0
H1191 H 0.09951 0.79053 0.93939 0.0
H1192 H 0.14965 0.69444 0.96103 0.0
H1193 H 0.23346 0.75939 0.95467 0.0
H1194 H 0.18314 0.84472 0.89258 0.0
H1195 H 0.1891 0.90294 0.89676 0.0
H1196 H 0.13418 0.84974 0.90455 0.0
H1197 H 0.14069 0.88211 0.94687 0.0
H1198 H 0.19538 0.93559 0.93916 0.0
H1199 H 0.19437 0.89976 0.96368 0.0
H1200 H 0.31385 0.83849 0.945 0.0
H1201 H 0.37868 0.91982 0.93397 0.0
H1202 H 0.27372 0.96053 0.91634 0.0
C1203 C 0.128 0.78297 0.94309 0.0
C1204 C 0.11761 0.73729 0.95154 0.0
C1205 C 0.15635 0.72932 0.95563 0.0
C1206 C 0.20418 0.76605 0.95166 0.0
C1207 C 0.21286 0.81058 0.9432 0.0
C1208 C 0.17547 0.81883 0.93895 0.0
C1209 C 0.19321 0.8688 0.92923 0.0
C1210 C 0.17374 0.86638 0.90431 0.0
C1211 C 0.18014 0.8983 0.94572 0.0
C1212 C 0.24671 0.88815 0.92887 0.0
C1213 C 0.25764 0.85417 0.93689 0.0
C1214 C 0.3052 0.86475 0.9384 0.0
C1215 C 0.34198 0.91085 0.93169 0.0
C1216 C 0.33144 0.94593 0.92329 0.0
C1217 C 0.283 0.93417 0.92211 0.0
H1218 H 0.83026 0.69147 0.0299 0.0
H1219 H 0.80173 0.61712 0.96332 0.0
H1220 H 0.71582 0.5885 0.96792 0.0
H1221 H 0.75028 0.60396 0.05866 0.0
H1222 H 0.73089 0.63521 0.078 0.0
H1223 H 0.78946 0.6664 0.0656 0.0
H1224 H 0.77194 0.73006 0.04782 0.0
H1225 H 0.71297 0.69922 0.06054 0.0
H1226 H 0.71997 0.71143 0.02951 0.0
H1227 H 0.63449 0.55066 0.98423 0.0
H1228 H 0.56762 0.50434 1.01051 0.0
H1229 H 0.6491 0.59825 0.06835 0.0
C1230 C 0.80615 0.67133 1.01572 0.0
C1231 C 0.82239 0.65636 0.99637 0.0
C1232 C 0.78989 0.62877 0.9784 0.0
C1233 C 0.74103 0.61281 0.98077 0.0
C1234 C 0.72548 0.62493 1.00112 0.0
C1235 C 0.75732 0.65419 1.01821 0.0
C1236 C 0.73188 0.653 0.04066 0.0
C1237 C 0.75178 0.63873 0.06193 0.0
C1238 C 0.73432 0.7013 0.04487 0.0
C1239 C 0.68166 0.61452 0.03445 0.0
C1240 C 0.67812 0.60065 1.01124 0.0
C1241 C 0.63673 0.56169 1.00235 0.0
C1242 C 0.59896 0.5348 1.01777 0.0
C1243 C 0.60344 0.54604 0.0421 0.0
C1244 C 0.64439 0.58809 0.05002 0.0
H1245 H 0.33273 0.79501 0.21749 0.0
H1246 H 0.29597 0.86977 0.26919 0.0
H1247 H 0.2651 0.79949 0.2951 0.0
H1248 H 0.23744 0.70122 0.2158 0.0
H1249 H 0.25647 0.65744 0.21304 0.0
H1250 H 0.29568 0.71767 0.20423 0.0
H1251 H 0.36113 0.72311 0.23236 0.0
H1252 H 0.32174 0.66194 0.24128 0.0
H1253 H 0.34793 0.7089 0.26299 0.0
H1254 H 0.21485 0.71754 0.30808 0.0
H1255 H 0.14785 0.63531 0.30516 0.0
H1256 H 0.2144 0.6116 0.24447 0.0
C1257 C 0.32116 0.79792 0.23488 0.0
C1258 C 0.317 0.83797 0.24136 0.0
C1259 C 0.29954 0.83941 0.26387 0.0
C1260 C 0.28244 0.79975 0.27883 0.0
C1261 C 0.28328 0.75903 0.27109 0.0
C1262 C 0.30322 0.75825 0.2497 0.0
C1263 C 0.28954 0.70766 0.2426 0.0
C1264 C 0.26846 0.69536 0.2175 0.0
C1265 C 0.33265 0.69996 0.24497 0.0
C1266 C 0.25261 0.6798 0.2612 0.0
C1267 C 0.25205 0.70991 0.27839 0.0
C1268 C 0.21581 0.69353 0.29509 0.0
C1269 C 0.17746 0.64662 0.29312 0.0
C1270 C 0.1749 0.61683 0.27421 0.0
C1271 C 0.21479 0.63271 0.25923 0.0
H1272 H 0.36855 0.13691 0.33952 0.0
H1273 H 0.49518 0.24017 0.30187 0.0
H1274 H 0.51316 0.17757 0.29215 0.0
H1275 H 0.41748 0.09687 0.371 0.0
H1276 H 0.37355 0.03381 0.37181 0.0
H1277 H 0.35523 0.07616 0.36495 0.0
H1278 H 0.31813 0.03164 0.32598 0.0
H1279 H 0.33692 0.98882 0.3328 0.0
H1280 H 0.35411 0.02097 0.3054 0.0
H1281 H 0.53493 0.117 0.29848 0.0
H1282 H 0.56263 0.07528 0.32394 0.0
H1283 H 0.42758 1.01078 0.36127 0.0
C1284 C 0.39914 0.14593 0.32852 0.0
C1285 C 0.43016 0.19379 0.32171 0.0
C1286 C 0.46991 0.20411 0.30729 0.0
C1287 C 0.48043 0.16824 0.30142 0.0
C1288 C 0.45147 0.12218 0.31025 0.0
C1289 C 0.41101 0.11075 0.32332 0.0
C1290 C 0.39333 0.06377 0.33618 0.0
C1291 C 0.38457 0.06805 0.36251 0.0
C1292 C 0.34795 0.02394 0.32437 0.0
C1293 C 0.43521 0.05588 0.33207 0.0
C1294 C 0.46602 0.08723 0.31536 0.0
C1295 C 0.51088 0.0922 0.31146 0.0
C1296 C 0.52684 0.06891 0.32658 0.0
C1297 C 0.49854 0.04233 0.34597 0.0
C1298 C 0.4506 0.03197 0.34707 0.0
H1299 H 0.26383 0.53136 0.54147 0.0
H1300 H 0.19134 0.39582 0.57836 0.0
H1301 H 0.25309 0.42892 0.60924 0.0
H1302 H 0.3688 0.54671 0.54454 0.0
H1303 H 0.40297 0.61066 0.54904 0.0
H1304 H 0.34564 0.58472 0.53518 0.0
H1305 H 0.31663 0.62276 0.56637 0.0
H1306 H 0.37454 0.64963 0.58035 0.0
H1307 H 0.3213 0.61249 0.5971 0.0
H1308 H 0.33011 0.46594 0.62881 0.0
H1309 H 0.41646 0.50023 0.63362 0.0
H1310 H 0.44135 0.61432 0.58509 0.0
C1311 C 0.25951 0.5096 0.55673 0.0
C1312 C 0.22261 0.46131 0.55778 0.0
C1313 C 0.21932 0.43303 0.57737 0.0
C1314 C 0.25391 0.45178 0.59513 0.0
C1315 C 0.29139 0.49889 0.59302 0.0
C1316 C 0.29413 0.52772 0.57439 0.0
C1317 C 0.34259 0.57286 0.57332 0.0
C1318 C 0.36634 0.57897 0.54911 0.0
C1319 C 0.3385 0.61705 0.57968 0.0
C1320 C 0.36844 0.56202 0.59238 0.0
C1321 C 0.33764 0.52049 0.60433 0.0
C1322 C 0.35435 0.49918 0.62008 0.0
C1323 C 0.40373 0.51895 0.62261 0.0
C1324 C 0.4359 0.5592 0.60914 0.0
C1325 C 0.41785 0.58277 0.59514 0.0
H1326 H 0.73295 0.24493 0.70015 0.0
H1327 H 0.76821 0.1711 0.75294 0.0
H1328 H 0.77974 0.23265 0.78195 0.0
H1329 H 0.81804 0.34572 0.70667 0.0
H1330 H 0.79115 0.38293 0.70353 0.0
H1331 H 0.76212 0.32428 0.69118 0.0
H1332 H 0.68565 0.30315 0.71457 0.0
H1333 H 0.71503 0.36241 0.7273 0.0
H1334 H 0.68845 0.31042 0.746 0.0
H1335 H 0.81267 0.30999 0.80032 0.0
H1336 H 0.875 0.39431 0.80298 0.0
H1337 H 0.82496 0.42313 0.73774 0.0
C1338 C 0.74039 0.24047 0.7182 0.0
C1339 C 0.74931 0.20329 0.72447 0.0
C1340 C 0.76115 0.19939 0.74787 0.0
C1341 C 0.76694 0.23384 0.76454 0.0
C1342 C 0.76117 0.27222 0.75749 0.0
C1343 C 0.74756 0.27544 0.73478 0.0
C1344 C 0.75613 0.3253 0.72966 0.0
C1345 C 0.78359 0.3457 0.70645 0.0
C1346 C 0.70849 0.3253 0.72938 0.0
C1347 C 0.78531 0.3516 0.75111 0.0
C1348 C 0.78363 0.31966 0.76791 0.0
C1349 C 0.81352 0.3352 0.78752 0.0
C1350 C 0.84927 0.38335 0.78878 0.0
C1351 C 0.85576 0.41518 0.77021 0.0
C1352 C 0.82085 0.39998 0.7523 0.0
H1353 H 0.49681 0.70678 0.88713 0.0
H1354 H 0.61445 0.75203 0.93599 0.0
H1355 H 0.57405 0.77874 0.9635 0.0
H1356 H 0.49046 0.7959 0.88522 0.0
H1357 H 0.42697 0.77423 0.88488 0.0
H1358 H 0.44846 0.73567 0.87567 0.0
H1359 H 0.39517 0.67253 0.9063 0.0
H1360 H 0.37289 0.71125 0.91565 0.0
H1361 H 0.39867 0.68898 0.93676 0.0
H1362 H 0.54181 0.82741 0.97707 0.0
H1363 H 0.52664 0.89424 0.9735 0.0
H1364 H 0.43012 0.8217 0.91531 0.0
C1365 C 0.5125 0.7193 0.90427 0.0
C1366 C 0.55873 0.72741 0.90943 0.0
C1367 C 0.57904 0.74564 0.93167 0.0
C1368 C 0.55592 0.76036 0.94755 0.0
C1369 C 0.51244 0.75655 0.94097 0.0
C1370 C 0.49014 0.73512 0.91998 0.0
C1371 C 0.45093 0.74623 0.91399 0.0
C1372 C 0.45463 0.76419 0.88849 0.0
C1373 C 0.40151 0.70214 0.91846 0.0
C1374 C 0.46161 0.78491 0.93201 0.0
C1375 C 0.4941 0.78724 0.94862 0.0
C1376 C 0.51555 0.82513 0.96452 0.0
C1377 C 0.50707 0.86346 0.96214 0.0
C1378 C 0.47831 0.86441 0.94357 0.0
C1379 C 0.45245 0.82282 0.92964 0.0
H1380 H 0.66847 0.44414 0.81793 0.0
H1381 H 0.62248 0.4221 0.74517 0.0
H1382 H 0.60552 0.33938 0.74751 0.0
H1383 H 0.70438 0.33893 0.81678 0.0
H1384 H 0.68478 0.32616 0.84682 0.0
H1385 H 0.71683 0.38735 0.83666 0.0
H1386 H 0.64819 0.39949 0.8515 0.0
H1387 H 0.6157 0.33891 0.86122 0.0
H1388 H 0.58814 0.36068 0.84082 0.0
H1389 H 0.55676 0.25858 0.76214 0.0
H1390 H 0.49864 0.19005 0.78585 0.0
H1391 H 0.57869 0.26005 0.84866 0.0
C1392 C 0.65745 0.42311 0.80205 0.0
C1393 C 0.64452 0.43927 0.78175 0.0
C1394 C 0.63117 0.41033 0.7613 0.0
C1395 C 0.62178 0.36306 0.76237 0.0
C1396 C 0.62766 0.34574 0.78375 0.0
C1397 C 0.64806 0.37571 0.80296 0.0
C1398 C 0.64226 0.34693 0.825 0.0
C1399 C 0.68989 0.35002 0.83169 0.0
C1400 C 0.62228 0.36239 0.84578 0.0
C1401 C 0.60696 0.29722 0.81616 0.0
C1402 C 0.60092 0.29673 0.79208 0.0
C1403 C 0.56281 0.25776 0.78076 0.0
C1404 C 0.52947 0.21931 0.79436 0.0
C1405 C 0.53475 0.21994 0.81894 0.0
C1406 C 0.57497 0.25833 0.82975 0.0
H1407 H 0.14849 0.49863 0.93511 0.0
H1408 H 0.23314 0.64527 0.95948 0.0
H1409 H 0.2997 0.6313 0.96835 0.0
H1410 H 0.16517 0.44778 0.97701 0.0
H1411 H 0.17094 0.40104 0.96262 0.0
H1412 H 0.13968 0.42652 0.94828 0.0
H1413 H 0.19577 0.44924 0.91239 0.0
H1414 H 0.22708 0.42276 0.92651 0.0
H1415 H 0.25965 0.48392 0.91643 0.0
H1416 H 0.34101 0.59557 0.98769 0.0
H1417 H 0.3545 0.54413 1.01385 0.0
H1418 H 0.24612 0.4185 0.97676 0.0
C1419 C 0.18199 0.52851 0.94112 0.0
C1420 C 0.18524 0.57249 0.9472 0.0
C1421 C 0.22932 0.61072 0.95532 0.0
C1422 C 0.26768 0.6033 0.96005 0.0
C1423 C 0.26161 0.55778 0.95617 0.0
C1424 C 0.2202 0.52124 0.94621 0.0
C1425 C 0.21796 0.47331 0.94849 0.0
C1426 C 0.17071 0.43504 0.9598 0.0
C1427 C 0.2256 0.45633 0.92453 0.0
C1428 C 0.26051 0.4874 0.96438 0.0
C1429 C 0.28673 0.53658 0.96752 0.0
C1430 C 0.32214 0.55727 0.98464 0.0
C1431 C 0.32947 0.52718 0.99962 0.0
C1432 C 0.3014 0.47652 0.99746 0.0
C1433 C 0.26833 0.45692 0.97881 0.0
H1434 H 0.78916 0.3263 0.1843 0.0
H1435 H 0.86217 0.31186 0.12403 0.0
H1436 H 0.79424 0.298 0.09879 0.0
H1437 H 0.6914 0.23313 0.17642 0.0
H1438 H 0.65038 0.25275 0.18545 0.0
H1439 H 0.71035 0.2835 0.19604 0.0
H1440 H 0.72155 0.36346 0.17976 0.0
H1441 H 0.66075 0.33231 0.16909 0.0
H1442 H 0.70919 0.36797 0.14931 0.0
H1443 H 0.71411 0.26333 0.08307 0.0
H1444 H 0.63139 0.19816 0.08038 0.0
H1445 H 0.60629 0.22918 0.15139 0.0
C1446 C 0.79176 0.32285 0.16555 0.0
C1447 C 0.83081 0.32072 0.15593 0.0
C1448 C 0.83248 0.31389 0.1316 0.0
C1449 C 0.79434 0.30676 0.11713 0.0
C1450 C 0.75473 0.3062 0.12734 0.0
C1451 C 0.75332 0.31428 0.15113 0.0
C1452 C 0.70305 0.29918 0.15911 0.0
C1453 C 0.68797 0.26507 0.18044 0.0
C1454 C 0.69836 0.34337 0.16463 0.0
C1455 C 0.67554 0.27436 0.13705 0.0
C1456 C 0.70618 0.2824 0.11844 0.0
C1457 C 0.68984 0.25739 0.0974 0.0
C1458 C 0.64252 0.21991 0.09613 0.0
C1459 C 0.61249 0.20655 0.11611 0.0
C1460 C 0.628 0.23722 0.13589 0.0
H1461 H 0.57105 0.79706 0.3652 0.0
H1462 H 0.71163 0.86454 0.3331 0.0
H1463 H 0.68173 0.79886 0.3038 0.0
H1464 H 0.54515 0.67981 0.35998 0.0
H1465 H 0.48252 0.65587 0.35373 0.0
H1466 H 0.51449 0.70984 0.37076 0.0
H1467 H 0.48904 0.75467 0.34148 0.0
H1468 H 0.45693 0.70076 0.32426 0.0
H1469 H 0.50213 0.75521 0.31071 0.0
H1470 H 0.63656 0.72313 0.27947 0.0
H1471 H 0.58184 0.64151 0.26412 0.0
H1472 H 0.47145 0.62848 0.31181 0.0
C1473 C 0.59542 0.79908 0.35165 0.0
C1474 C 0.6434 0.83649 0.35106 0.0
C1475 C 0.67459 0.83623 0.33372 0.0
C1476 C 0.65786 0.79941 0.31693 0.0
C1477 C 0.60996 0.76353 0.31783 0.0
C1478 C 0.57932 0.76321 0.3348 0.0
C1479 C 0.5303 0.71947 0.33306 0.0
C1480 C 0.51741 0.68949 0.35572 0.0
C1481 C 0.49237 0.73338 0.32701 0.0
C1482 C 0.5384 0.69426 0.31286 0.0
C1483 C 0.58426 0.72033 0.30402 0.0
C1484 C 0.60043 0.70261 0.28609 0.0
C1485 C 0.56919 0.65645 0.27746 0.0
C1486 C 0.52289 0.62877 0.28708 0.0
C1487 C 0.50698 0.64864 0.30442 0.0
H1488 H 0.84446 0.42794 0.47402 0.0
H1489 H 0.91246 0.51757 0.41349 0.0
H1490 H 0.8429 0.52777 0.40794 0.0
H1491 H 0.70876 0.38724 0.45221 0.0
H1492 H 0.6938 0.38795 0.48259 0.0
H1493 H 0.73353 0.36615 0.47446 0.0
H1494 H 0.79657 0.42595 0.50357 0.0
H1495 H 0.75774 0.44781 0.51151 0.0
H1496 H 0.81689 0.48913 0.50075 0.0
H1497 H 0.79187 0.55848 0.41934 0.0
H1498 H 0.76414 0.60096 0.44493 0.0
H1499 H 0.72463 0.49092 0.49767 0.0
C1500 C 0.84354 0.44708 0.45869 0.0
C1501 C 0.88442 0.47268 0.44451 0.0
C1502 C 0.88187 0.49814 0.42488 0.0
C1503 C 0.84204 0.50368 0.4214 0.0
C1504 C 0.80456 0.48285 0.43746 0.0
C1505 C 0.80402 0.4532 0.45525 0.0
C1506 C 0.76604 0.44419 0.47329 0.0
C1507 C 0.72297 0.39338 0.47045 0.0
C1508 C 0.7856 0.45245 0.49871 0.0
C1509 C 0.75303 0.48122 0.46561 0.0
C1510 C 0.77285 0.50064 0.444 0.0
C1511 C 0.77458 0.54233 0.43576 0.0
C1512 C 0.7592 0.56664 0.45053 0.0
C1513 C 0.74233 0.54923 0.47329 0.0
C1514 C 0.73611 0.50437 0.48012 0.0
H1515 H 0.25351 0.77395 0.70016 0.0
H1516 H 0.17994 0.82819 0.65709 0.0
H1517 H 0.24587 0.85806 0.62823 0.0
H1518 H 0.36734 0.86906 0.69262 0.0
H1519 H 0.39623 0.83352 0.69188 0.0
H1520 H 0.34107 0.81219 0.70759 0.0
H1521 H 0.30272 0.73362 0.6832 0.0
H1522 H 0.35789 0.75469 0.66736 0.0
H1523 H 0.30297 0.73667 0.65162 0.0
H1524 H 0.32217 0.88642 0.6058 0.0
H1525 H 0.40552 0.9166 0.59308 0.0
H1526 H 0.42633 0.8409 0.65078 0.0
C1527 C 0.25041 0.79084 0.68435 0.0
C1528 C 0.21126 0.79798 0.68055 0.0
C1529 C 0.20969 0.82225 0.66019 0.0
C1530 C 0.24662 0.83886 0.64365 0.0
C1531 C 0.28451 0.83071 0.64786 0.0
C1532 C 0.28663 0.80736 0.66776 0.0
C1533 C 0.3328 0.80642 0.66928 0.0
C1534 C 0.361 0.83183 0.69166 0.0
C1535 C 0.32352 0.75478 0.66776 0.0
C1536 C 0.35723 0.83451 0.64752 0.0
C1537 C 0.32857 0.84748 0.63514 0.0
C1538 C 0.34476 0.87606 0.61518 0.0
C1539 C 0.39202 0.89292 0.60809 0.0
C1540 C 0.42236 0.8816 0.62119 0.0
C1541 C 0.40416 0.8508 0.64066 0.0
loop_
_geom_bond_atom_site_label_1
_geom_bond_atom_site_label_2
_geom_bond_distance
_geom_bond_site_symmetry_2
_ccdc_geom_bond_type
Zn0 N4 2.020 . S
Zn0 O8 2.019 . S
Zn0 N10 2.119 . S
Zn0 O18 1.975 . S
C1 N2 1.334 . S
C1 N5 1.336 . S
N2 C1 1.334 . S
N2 C3 1.334 . S
C3 N2 1.334 . S
C3 N4 1.336 . S
N4 Zn0 2.020 . S
N4 C3 1.336 . S
N4 N5 1.354 . S
N5 C1 1.336 . S
N5 N4 1.354 . S
N5 Zn9 2.020 . S
C6 O7 1.244 . S
C6 O30 1.257 . S
O7 C6 1.244 . S
O8 Zn0 2.019 . S
O8 C28 1.257 . S
Zn9 N5 2.020 . S
Zn9 O16 1.975 1_554 S
Zn9 N25 2.119 . S
Zn9 O30 2.019 1_554 S
N10 Zn0 2.119 . S
N10 C12 1.334 1_554 S
N10 C13 1.328 . S
C11 C12 1.391 . S
C11 N14 1.329 . S
C11 H32 0.930 . S
C12 N10 1.334 1_556 S
C12 C11 1.391 . S
C12 H19 0.930 . S
C13 N10 1.328 . S
C13 C15 1.392 1_554 S
C13 H20 0.930 . S
N14 C11 1.329 . S
N14 C15 1.331 . S
C15 C13 1.392 1_556 S
C15 N14 1.331 . S
O16 Zn9 1.975 1_556 S
O16 C17 1.252 . S
C17 O16 1.252 . S
C17 O18 1.252 1_556 S
O18 Zn0 1.975 . S
O18 C17 1.252 1_554 S
H19 C12 0.930 . S
H20 C13 0.930 . S
C21 C22 1.392 . S
C21 N25 1.328 . S
C21 H27 0.930 . S
C22 C21 1.392 . S
C22 N26 1.331 . S
C23 C24 1.391 . S
C23 N26 1.329 . S
C23 H33 0.930 . S
C24 C23 1.391 . S
C24 N25 1.334 . S
C24 H31 0.930 . S
N25 Zn9 2.119 . S
N25 C21 1.328 . S
N25 C24 1.334 . S
N26 C22 1.331 . S
N26 C23 1.329 . S
H27 C21 0.930 . S
C28 O8 1.257 . S
C28 O29 1.244 . S
O29 C28 1.244 . S
O30 C6 1.257 . S
O30 Zn9 2.019 1_556 S
H31 C24 0.930 . S
H32 C11 0.930 . S
H33 C23 0.930 . S
Zn34 N38 2.020 . S
Zn34 O42 2.019 1_655 S
Zn34 N44 2.119 1_655 S
Zn34 O52 1.975 . S
C35 N36 1.334 . S
C35 N39 1.336 . S
N36 C35 1.334 . S
N36 C37 1.334 . S
C37 N36 1.334 . S
C37 N38 1.336 . S
N38 Zn34 2.020 . S
N38 C37 1.336 . S
N38 N39 1.354 . S
N39 C35 1.336 . S
N39 N38 1.354 . S
N39 Zn43 2.020 . S
C40 O41 1.244 . S
C40 O64 1.257 . S
O41 C40 1.244 . S
O42 Zn34 2.019 1_455 S
O42 C62 1.257 . S
Zn43 N39 2.020 . S
Zn43 O50 1.975 . S
Zn43 N59 2.119 . S
Zn43 O64 2.019 . S
N44 Zn34 2.119 1_455 S
N44 C46 1.334 1_455 S
N44 C47 1.328 . S
C45 C46 1.391 1_455 S
C45 N48 1.329 . S
C45 H66 0.930 1_455 S
C46 N44 1.334 1_655 S
C46 C45 1.391 1_655 S
C46 H53 0.930 . S
C47 N44 1.328 . S
C47 C49 1.392 . S
C47 H54 0.930 . S
N48 C45 1.329 . S
N48 C49 1.331 . S
C49 C47 1.392 . S
C49 N48 1.331 . S
O50 Zn43 1.975 . S
O50 C51 1.252 . S
C51 O50 1.252 . S
C51 O52 1.252 . S
O52 Zn34 1.975 . S
O52 C51 1.252 . S
H53 C46 0.930 . S
H54 C47 0.930 . S
C55 C56 1.392 . S
C55 N59 1.328 . S
C55 H61 0.930 . S
C56 C55 1.392 . S
C56 N60 1.331 . S
C57 C58 1.391 . S
C57 N60 1.329 . S
C57 H67 0.930 . S
C58 C57 1.391 . S
C58 N59 1.334 . S
C58 H65 0.930 . S
N59 Zn43 2.119 . S
N59 C55 1.328 . S
N59 C58 1.334 . S
N60 C56 1.331 . S
N60 C57 1.329 . S
H61 C55 0.930 . S
C62 O42 1.257 . S
C62 O63 1.244 . S
O63 C62 1.244 . S
O64 C40 1.257 . S
O64 Zn43 2.019 . S
H65 C58 0.930 . S
H66 C45 0.930 1_655 S
H67 C57 0.930 . S
Zn68 N72 2.020 . S
Zn68 O76 2.019 . S
Zn68 N78 2.119 . S
Zn68 O86 1.975 . S
C69 N70 1.334 . S
C69 N73 1.336 . S
N70 C69 1.334 . S
N70 C71 1.334 . S
C71 N70 1.334 . S
C71 N72 1.336 . S
N72 Zn68 2.020 . S
N72 C71 1.336 . S
N72 N73 1.354 . S
N73 C69 1.336 . S
N73 N72 1.354 . S
N73 Zn77 2.020 . S
C74 O75 1.244 . S
C74 O98 1.257 . S
O75 C74 1.244 . S
O76 Zn68 2.019 . S
O76 C96 1.257 . S
Zn77 N73 2.020 . S
Zn77 O84 1.975 . S
Zn77 N93 2.119 1_565 S
Zn77 O98 2.019 1_565 S
N78 Zn68 2.119 . S
N78 C80 1.334 . S
N78 C81 1.328 . S
C79 C80 1.391 . S
C79 N82 1.329 . S
C79 H100 0.930 . S
C80 N78 1.334 . S
C80 C79 1.391 . S
C80 H87 0.930 . S
C81 N78 1.328 . S
C81 C83 1.392 . S
C81 H88 0.930 . S
N82 C79 1.329 . S
N82 C83 1.331 . S
C83 C81 1.392 . S
C83 N82 1.331 . S
O84 Zn77 1.975 . S
O84 C85 1.252 . S
C85 O84 1.252 . S
C85 O86 1.252 . S
O86 Zn68 1.975 . S
O86 C85 1.252 . S
H87 C80 0.930 . S
H88 C81 0.930 . S
C89 C90 1.392 . S
C89 N93 1.328 . S
C89 H95 0.930 . S
C90 C89 1.392 . S
C90 N94 1.331 . S
C91 C92 1.391 1_545 S
C91 N94 1.329 . S
C91 H101 0.930 1_545 S
C92 C91 1.391 1_565 S
C92 N93 1.334 1_565 S
C92 H99 0.930 . S
N93 Zn77 2.119 1_545 S
N93 C89 1.328 . S
N93 C92 1.334 1_545 S
N94 C90 1.331 . S
N94 C91 1.329 . S
H95 C89 0.930 . S
C96 O76 1.257 . S
C96 O97 1.244 . S
O97 C96 1.244 . S
O98 C74 1.257 . S
O98 Zn77 2.019 1_545 S
H99 C92 0.930 . S
H100 C79 0.930 . S
H101 C91 0.930 1_565 S
Zn102 N106 2.020 . S
Zn102 O110 2.019 . S
Zn102 N112 2.119 . S
Zn102 O120 1.975 . S
C103 N104 1.334 . S
C103 N107 1.336 . S
N104 C103 1.334 . S
N104 C105 1.334 . S
C105 N104 1.334 . S
C105 N106 1.336 . S
N106 Zn102 2.020 . S
N106 C105 1.336 . S
N106 N107 1.354 . S
N107 C103 1.336 . S
N107 N106 1.354 . S
N107 Zn111 2.020 . S
C108 O109 1.244 . S
C108 O132 1.257 . S
O109 C108 1.244 . S
O110 Zn102 2.019 . S
O110 C130 1.257 . S
Zn111 N107 2.020 . S
Zn111 O118 1.975 . S
Zn111 N127 2.119 . S
Zn111 O132 2.019 . S
N112 Zn102 2.119 . S
N112 C114 1.334 . S
N112 C115 1.328 . S
C113 C114 1.391 . S
C113 N116 1.329 . S
C113 H134 0.930 . S
C114 N112 1.334 . S
C114 C113 1.391 . S
C114 H121 0.930 . S
C115 N112 1.328 . S
C115 C117 1.392 . S
C115 H122 0.930 . S
N116 C113 1.329 . S
N116 C117 1.331 . S
C117 C115 1.392 . S
C117 N116 1.331 . S
O118 Zn111 1.975 . S
O118 C119 1.252 . S
C119 O118 1.252 . S
C119 O120 1.252 . S
O120 Zn102 1.975 . S
O120 C119 1.252 . S
H121 C114 0.930 . S
H122 C115 0.930 . S
C123 C124 1.392 . S
C123 N127 1.328 . S
C123 H129 0.930 . S
C124 C123 1.392 . S
C124 N128 1.331 . S
C125 C126 1.391 . S
C125 N128 1.329 . S
C125 H135 0.930 . S
C126 C125 1.391 . S
C126 N127 1.334 . S
C126 H133 0.930 . S
N127 Zn111 2.119 . S
N127 C123 1.328 . S
N127 C126 1.334 . S
N128 C124 1.331 . S
N128 C125 1.329 . S
H129 C123 0.930 . S
C130 O110 1.257 . S
C130 O131 1.244 . S
O131 C130 1.244 . S
O132 C108 1.257 . S
O132 Zn111 2.019 . S
H133 C126 0.930 . S
H134 C113 0.930 . S
H135 C125 0.930 . S
Zn136 N140 2.020 . S
Zn136 O144 2.019 . S
Zn136 N146 2.119 . S
Zn136 O154 1.975 . S
C137 N138 1.334 . S
C137 N141 1.336 . S
N138 C137 1.334 . S
N138 C139 1.334 . S
C139 N138 1.334 . S
C139 N140 1.336 . S
N140 Zn136 2.020 . S
N140 C139 1.336 . S
N140 N141 1.354 . S
N141 C137 1.336 . S
N141 N140 1.354 . S
N141 Zn145 2.020 . S
C142 O143 1.244 . S
C142 O166 1.257 . S
O143 C142 1.244 . S
O144 Zn136 2.019 . S
O144 C164 1.257 . S
Zn145 N141 2.020 . S
Zn145 O152 1.975 . S
Zn145 N161 2.119 1_455 S
Zn145 O166 2.019 1_455 S
N146 Zn136 2.119 . S
N146 C148 1.334 . S
N146 C149 1.328 . S
C147 C148 1.391 . S
C147 N150 1.329 . S
C147 H168 0.930 . S
C148 N146 1.334 . S
C148 C147 1.391 . S
C148 H155 0.930 . S
C149 N146 1.328 . S
C149 C151 1.392 . S
C149 H156 0.930 . S
N150 C147 1.329 . S
N150 C151 1.331 . S
C151 C149 1.392 . S
C151 N150 1.331 . S
O152 Zn145 1.975 . S
O152 C153 1.252 . S
C153 O152 1.252 . S
C153 O154 1.252 . S
O154 Zn136 1.975 . S
O154 C153 1.252 . S
H155 C148 0.930 . S
H156 C149 0.930 . S
C157 C158 1.392 . S
C157 N161 1.328 . S
C157 H163 0.930 . S
C158 C157 1.392 . S
C158 N162 1.331 . S
C159 C160 1.391 1_655 S
C159 N162 1.329 . S
C159 H169 0.930 1_655 S
C160 C159 1.391 1_455 S
C160 N161 1.334 1_455 S
C160 H167 0.930 . S
N161 Zn145 2.119 1_655 S
N161 C157 1.328 . S
N161 C160 1.334 1_655 S
N162 C158 1.331 . S
N162 C159 1.329 . S
H163 C157 0.930 . S
C164 O144 1.257 . S
C164 O165 1.244 . S
O165 C164 1.244 . S
O166 C142 1.257 . S
O166 Zn145 2.019 1_655 S
H167 C160 0.930 . S
H168 C147 0.930 . S
H169 C159 0.930 1_455 S
Zn170 N174 2.020 . S
Zn170 O178 2.019 1_545 S
Zn170 N180 2.119 1_545 S
Zn170 O188 1.975 . S
C171 N172 1.334 . S
C171 N175 1.336 . S
N172 C171 1.334 . S
N172 C173 1.334 . S
C173 N172 1.334 . S
C173 N174 1.336 . S
N174 Zn170 2.020 . S
N174 C173 1.336 . S
N174 N175 1.354 . S
N175 C171 1.336 . S
N175 N174 1.354 . S
N175 Zn179 2.020 . S
C176 O177 1.244 . S
C176 O200 1.257 . S
O177 C176 1.244 . S
O178 Zn170 2.019 1_565 S
O178 C198 1.257 . S
Zn179 N175 2.020 . S
Zn179 O186 1.975 . S
Zn179 N195 2.119 . S
Zn179 O200 2.019 . S
N180 Zn170 2.119 1_565 S
N180 C182 1.334 1_565 S
N180 C183 1.328 . S
C181 C182 1.391 1_565 S
C181 N184 1.329 . S
C181 H202 0.930 1_565 S
C182 N180 1.334 1_545 S
C182 C181 1.391 1_545 S
C182 H189 0.930 . S
C183 N180 1.328 . S
C183 C185 1.392 . S
C183 H190 0.930 . S
N184 C181 1.329 . S
N184 C185 1.331 . S
C185 C183 1.392 . S
C185 N184 1.331 . S
O186 Zn179 1.975 . S
O186 C187 1.252 . S
C187 O186 1.252 . S
C187 O188 1.252 . S
O188 Zn170 1.975 . S
O188 C187 1.252 . S
H189 C182 0.930 . S
H190 C183 0.930 . S
C191 C192 1.392 . S
C191 N195 1.328 . S
C191 H197 0.930 . S
C192 C191 1.392 . S
C192 N196 1.331 . S
C193 C194 1.391 . S
C193 N196 1.329 . S
C193 H203 0.930 . S
C194 C193 1.391 . S
C194 N195 1.334 . S
C194 H201 0.930 . S
N195 Zn179 2.119 . S
N195 C191 1.328 . S
N195 C194 1.334 . S
N196 C192 1.331 . S
N196 C193 1.329 . S
H197 C191 0.930 . S
C198 O178 1.257 . S
C198 O199 1.244 . S
O199 C198 1.244 . S
O200 C176 1.257 . S
O200 Zn179 2.019 . S
H201 C194 0.930 . S
H202 C181 0.930 1_545 S
H203 C193 0.930 . S
Zn204 N208 2.020 . S
Zn204 O212 2.019 . S
Zn204 N214 2.119 . S
Zn204 O222 1.975 . S
C205 N206 1.334 . S
C205 N209 1.336 . S
N206 C205 1.334 . S
N206 C207 1.334 . S
C207 N206 1.334 . S
C207 N208 1.336 . S
N208 Zn204 2.020 . S
N208 C207 1.336 . S
N208 N209 1.354 . S
N209 C205 1.336 . S
N209 N208 1.354 . S
N209 Zn213 2.020 . S
C210 O211 1.244 . S
C210 O234 1.257 . S
O211 C210 1.244 . S
O212 Zn204 2.019 . S
O212 C232 1.257 . S
Zn213 N209 2.020 . S
Zn213 O220 1.975 . S
Zn213 N229 2.119 . S
Zn213 O234 2.019 . S
N214 Zn204 2.119 . S
N214 C216 1.334 . S
N214 C217 1.328 . S
C215 C216 1.391 . S
C215 N218 1.329 . S
C215 H236 0.930 . S
C216 N214 1.334 . S
C216 C215 1.391 . S
C216 H223 0.930 . S
C217 N214 1.328 . S
C217 C219 1.392 . S
C217 H224 0.930 . S
N218 C215 1.329 . S
N218 C219 1.331 . S
C219 C217 1.392 . S
C219 N218 1.331 . S
O220 Zn213 1.975 . S
O220 C221 1.252 . S
C221 O220 1.252 . S
C221 O222 1.252 . S
O222 Zn204 1.975 . S
O222 C221 1.252 . S
H223 C216 0.930 . S
H224 C217 0.930 . S
C225 C226 1.392 . S
C225 N229 1.328 . S
C225 H231 0.930 . S
C226 C225 1.392 . S
C226 N230 1.331 . S
C227 C228 1.391 . S
C227 N230 1.329 . S
C227 H237 0.930 . S
C228 C227 1.391 . S
C228 N229 1.334 . S
C228 H235 0.930 . S
N229 Zn213 2.119 . S
N229 C225 1.328 . S
N229 C228 1.334 . S
N230 C226 1.331 . S
N230 C227 1.329 . S
H231 C225 0.930 . S
C232 O212 1.257 . S
C232 O233 1.244 . S
O233 C232 1.244 . S
O234 C210 1.257 . S
O234 Zn213 2.019 . S
H235 C228 0.930 . S
H236 C215 0.930 . S
H237 C227 0.930 . S
Zn238 N242 2.020 . S
Zn238 O246 2.019 1_656 S
Zn238 N248 2.119 1_655 S
Zn238 O256 1.975 1_556 S
C239 N240 1.334 . S
C239 N243 1.336 . S
N240 C239 1.334 . S
N240 C241 1.334 . S
C241 N240 1.334 . S
C241 N242 1.336 . S
N242 Zn238 2.020 . S
N242 C241 1.336 . S
N242 N243 1.354 . S
N243 C239 1.336 . S
N243 N242 1.354 . S
N243 Zn247 2.020 . S
C244 O245 1.244 . S
C244 O268 1.257 . S
O245 C244 1.244 . S
O246 Zn238 2.019 1_454 S
O246 C266 1.257 . S
Zn247 N243 2.020 . S
Zn247 O254 1.975 . S
Zn247 N263 2.119 . S
Zn247 O268 2.019 . S
N248 Zn238 2.119 1_455 S
N248 C250 1.334 1_455 S
N248 C251 1.328 . S
C249 C250 1.391 1_455 S
C249 N252 1.329 . S
C249 H270 0.930 1_455 S
C250 N248 1.334 1_655 S
C250 C249 1.391 1_655 S
C250 H257 0.930 . S
C251 N248 1.328 . S
C251 C253 1.392 . S
C251 H258 0.930 . S
N252 C249 1.329 . S
N252 C253 1.331 . S
C253 C251 1.392 . S
C253 N252 1.331 . S
O254 Zn247 1.975 . S
O254 C255 1.252 1_556 S
C255 O254 1.252 1_554 S
C255 O256 1.252 . S
O256 Zn238 1.975 1_554 S
O256 C255 1.252 . S
H257 C250 0.930 . S
H258 C251 0.930 . S
C259 C260 1.392 1_556 S
C259 N263 1.328 . S
C259 H265 0.930 . S
C260 C259 1.392 1_554 S
C260 N264 1.331 . S
C261 C262 1.391 . S
C261 N264 1.329 . S
C261 H271 0.930 . S
C262 C261 1.391 . S
C262 N263 1.334 1_554 S
C262 H269 0.930 . S
N263 Zn247 2.119 . S
N263 C259 1.328 . S
N263 C262 1.334 1_556 S
N264 C260 1.331 . S
N264 C261 1.329 . S
H265 C259 0.930 . S
C266 O246 1.257 . S
C266 O267 1.244 . S
O267 C266 1.244 . S
O268 C244 1.257 . S
O268 Zn247 2.019 . S
H269 C262 0.930 . S
H270 C249 0.930 1_655 S
H271 C261 0.930 . S
Zn272 N276 2.020 . S
Zn272 O280 2.019 . S
Zn272 N282 2.119 . S
Zn272 O290 1.975 . S
C273 N274 1.334 . S
C273 N277 1.336 . S
N274 C273 1.334 . S
N274 C275 1.334 . S
C275 N274 1.334 . S
C275 N276 1.336 . S
N276 Zn272 2.020 . S
N276 C275 1.336 . S
N276 N277 1.354 . S
N277 C273 1.336 . S
N277 N276 1.354 . S
N277 Zn281 2.020 . S
C278 O279 1.244 . S
C278 O302 1.257 . S
O279 C278 1.244 . S
O280 Zn272 2.019 . S
O280 C300 1.257 . S
Zn281 N277 2.020 . S
Zn281 O288 1.975 . S
Zn281 N297 2.119 1_565 S
Zn281 O302 2.019 1_565 S
N282 Zn272 2.119 . S
N282 C284 1.334 . S
N282 C285 1.328 . S
C283 C284 1.391 . S
C283 N286 1.329 . S
C283 H304 0.930 . S
C284 N282 1.334 . S
C284 C283 1.391 . S
C284 H291 0.930 . S
C285 N282 1.328 . S
C285 C287 1.392 . S
C285 H292 0.930 . S
N286 C283 1.329 . S
N286 C287 1.331 . S
C287 C285 1.392 . S
C287 N286 1.331 . S
O288 Zn281 1.975 . S
O288 C289 1.252 . S
C289 O288 1.252 . S
C289 O290 1.252 . S
O290 Zn272 1.975 . S
O290 C289 1.252 . S
H291 C284 0.930 . S
H292 C285 0.930 . S
C293 C294 1.392 . S
C293 N297 1.328 . S
C293 H299 0.930 . S
C294 C293 1.392 . S
C294 N298 1.331 . S
C295 C296 1.391 1_545 S
C295 N298 1.329 . S
C295 H305 0.930 1_545 S
C296 C295 1.391 1_565 S
C296 N297 1.334 1_565 S
C296 H303 0.930 . S
N297 Zn281 2.119 1_545 S
N297 C293 1.328 . S
N297 C296 1.334 1_545 S
N298 C294 1.331 . S
N298 C295 1.329 . S
H299 C293 0.930 . S
C300 O280 1.257 . S
C300 O301 1.244 . S
O301 C300 1.244 . S
O302 C278 1.257 . S
O302 Zn281 2.019 1_545 S
H303 C296 0.930 . S
H304 C283 0.930 . S
H305 C295 0.930 1_565 S
Zn306 N310 2.020 . S
Zn306 O314 2.019 . S
Zn306 N316 2.119 . S
Zn306 O324 1.975 . S
C307 N308 1.334 . S
C307 N311 1.336 . S
N308 C307 1.334 . S
N308 C309 1.334 . S
C309 N308 1.334 . S
C309 N310 1.336 . S
N310 Zn306 2.020 . S
N310 C309 1.336 . S
N310 N311 1.354 . S
N311 C307 1.336 . S
N311 N310 1.354 . S
N311 Zn315 2.020 . S
C312 O313 1.244 . S
C312 O336 1.257 . S
O313 C312 1.244 . S
O314 Zn306 2.019 . S
O314 C334 1.257 . S
Zn315 N311 2.020 . S
Zn315 O322 1.975 . S
Zn315 N331 2.119 . S
Zn315 O336 2.019 . S
N316 Zn306 2.119 . S
N316 C318 1.334 . S
N316 C319 1.328 . S
C317 C318 1.391 . S
C317 N320 1.329 . S
C317 H338 0.930 . S
C318 N316 1.334 . S
C318 C317 1.391 . S
C318 H325 0.930 . S
C319 N316 1.328 . S
C319 C321 1.392 . S
C319 H326 0.930 . S
N320 C317 1.329 . S
N320 C321 1.331 . S
C321 C319 1.392 . S
C321 N320 1.331 . S
O322 Zn315 1.975 . S
O322 C323 1.252 . S
C323 O322 1.252 . S
C323 O324 1.252 . S
O324 Zn306 1.975 . S
O324 C323 1.252 . S
H325 C318 0.930 . S
H326 C319 0.930 . S
C327 C328 1.392 . S
C327 N331 1.328 . S
C327 H333 0.930 . S
C328 C327 1.392 . S
C328 N332 1.331 . S
C329 C330 1.391 . S
C329 N332 1.329 . S
C329 H339 0.930 . S
C330 C329 1.391 . S
C330 N331 1.334 . S
C330 H337 0.930 . S
N331 Zn315 2.119 . S
N331 C327 1.328 . S
N331 C330 1.334 . S
N332 C328 1.331 . S
N332 C329 1.329 . S
H333 C327 0.930 . S
C334 O314 1.257 . S
C334 O335 1.244 . S
O335 C334 1.244 . S
O336 C312 1.257 . S
O336 Zn315 2.019 . S
H337 C330 0.930 . S
H338 C317 0.930 . S
H339 C329 0.930 . S
Zn340 N344 2.020 . S
Zn340 O348 2.019 . S
Zn340 N350 2.119 . S
Zn340 O358 1.975 . S
C341 N342 1.334 . S
C341 N345 1.336 . S
N342 C341 1.334 . S
N342 C343 1.334 . S
C343 N342 1.334 . S
C343 N344 1.336 . S
N344 Zn340 2.020 . S
N344 C343 1.336 . S
N344 N345 1.354 . S
N345 C341 1.336 . S
N345 N344 1.354 . S
N345 Zn349 2.020 . S
C346 O347 1.244 . S
C346 O370 1.257 . S
O347 C346 1.244 . S
O348 Zn340 2.019 . S
O348 C368 1.257 . S
Zn349 N345 2.020 . S
Zn349 O356 1.975 . S
Zn349 N365 2.119 1_455 S
Zn349 O370 2.019 1_455 S
N350 Zn340 2.119 . S
N350 C352 1.334 . S
N350 C353 1.328 . S
C351 C352 1.391 . S
C351 N354 1.329 . S
C351 H372 0.930 . S
C352 N350 1.334 . S
C352 C351 1.391 . S
C352 H359 0.930 . S
C353 N350 1.328 . S
C353 C355 1.392 . S
C353 H360 0.930 . S
N354 C351 1.329 . S
N354 C355 1.331 . S
C355 C353 1.392 . S
C355 N354 1.331 . S
O356 Zn349 1.975 . S
O356 C357 1.252 . S
C357 O356 1.252 . S
C357 O358 1.252 . S
O358 Zn340 1.975 . S
O358 C357 1.252 . S
H359 C352 0.930 . S
H360 C353 0.930 . S
C361 C362 1.392 . S
C361 N365 1.328 . S
C361 H367 0.930 . S
C362 C361 1.392 . S
C362 N366 1.331 . S
C363 C364 1.391 1_655 S
C363 N366 1.329 . S
C363 H373 0.930 1_655 S
C364 C363 1.391 1_455 S
C364 N365 1.334 1_455 S
C364 H371 0.930 . S
N365 Zn349 2.119 1_655 S
N365 C361 1.328 . S
N365 C364 1.334 1_655 S
N366 C362 1.331 . S
N366 C363 1.329 . S
H367 C361 0.930 . S
C368 O348 1.257 . S
C368 O369 1.244 . S
O369 C368 1.244 . S
O370 C346 1.257 . S
O370 Zn349 2.019 1_655 S
H371 C364 0.930 . S
H372 C351 0.930 . S
H373 C363 0.930 1_455 S
Zn374 N378 2.020 . S
Zn374 O382 2.019 1_545 S
Zn374 N384 2.119 1_545 S
Zn374 O392 1.975 . S
C375 N376 1.334 . S
C375 N379 1.336 . S
N376 C375 1.334 . S
N376 C377 1.334 . S
C377 N376 1.334 . S
C377 N378 1.336 . S
N378 Zn374 2.020 . S
N378 C377 1.336 . S
N378 N379 1.354 . S
N379 C375 1.336 . S
N379 N378 1.354 . S
N379 Zn383 2.020 . S
C380 O381 1.244 . S
C380 O404 1.257 . S
O381 C380 1.244 . S
O382 Zn374 2.019 1_565 S
O382 C402 1.257 . S
Zn383 N379 2.020 . S
Zn383 O390 1.975 . S
Zn383 N399 2.119 . S
Zn383 O404 2.019 . S
N384 Zn374 2.119 1_565 S
N384 C386 1.334 1_565 S
N384 C387 1.328 . S
C385 C386 1.391 1_565 S
C385 N388 1.329 . S
C385 H406 0.930 1_565 S
C386 N384 1.334 1_545 S
C386 C385 1.391 1_545 S
C386 H393 0.930 . S
C387 N384 1.328 . S
C387 C389 1.392 . S
C387 H394 0.930 . S
N388 C385 1.329 . S
N388 C389 1.331 . S
C389 C387 1.392 . S
C389 N388 1.331 . S
O390 Zn383 1.975 . S
O390 C391 1.252 . S
C391 O390 1.252 . S
C391 O392 1.252 . S
O392 Zn374 1.975 . S
O392 C391 1.252 . S
H393 C386 0.930 . S
H394 C387 0.930 . S
C395 C396 1.392 . S
C395 N399 1.328 . S
C395 H401 0.930 . S
C396 C395 1.392 . S
C396 N400 1.331 . S
C397 C398 1.391 . S
C397 N400 1.329 . S
C397 H407 0.930 . S
C398 C397 1.391 . S
C398 N399 1.334 . S
C398 H405 0.930 . S
N399 Zn383 2.119 . S
N399 C395 1.328 . S
N399 C398 1.334 . S
N400 C396 1.331 . S
N400 C397 1.329 . S
H401 C395 0.930 . S
C402 O382 1.257 . S
C402 O403 1.244 . S
O403 C402 1.244 . S
O404 C380 1.257 . S
O404 Zn383 2.019 . S
H405 C398 0.930 . S
H406 C385 0.930 1_545 S
H407 C397 0.930 . S
H408 C420 0.930 . S
H409 C422 0.930 . S
H410 C423 0.930 . S
H411 C427 0.959 . S
H412 C427 0.959 . S
H413 C427 0.961 . S
H414 C428 0.960 . S
H415 C428 0.961 . S
H416 C428 0.959 . S
H417 C431 0.929 . S
H418 C432 0.931 . S
H419 C434 0.930 . S
C420 H408 0.930 . S
C420 C421 1.399 . S
C420 C425 1.399 . S
C421 C420 1.399 . S
C421 C422 1.376 . S
C422 H409 0.930 . S
C422 C421 1.376 . S
C422 C423 1.388 . S
C423 H410 0.930 . S
C423 C422 1.388 . S
C423 C424 1.390 . S
C424 C423 1.390 . S
C424 C425 1.394 . S
C424 C430 1.465 . S
C425 C420 1.399 . S
C425 C424 1.394 . S
C425 C426 1.516 . S
C426 C425 1.516 . S
C426 C427 1.502 . S
C426 C428 1.561 . S
C426 C429 1.526 . S
C427 H411 0.959 . S
C427 H412 0.959 . S
C427 H413 0.961 . S
C427 C426 1.502 . S
C428 H414 0.960 . S
C428 H415 0.961 . S
C428 H416 0.959 . S
C428 C426 1.561 . S
C429 C426 1.526 . S
C429 C430 1.396 . S
C429 C434 1.390 . S
C430 C424 1.465 . S
C430 C429 1.396 . S
C430 C431 1.399 . S
C431 H417 0.929 . S
C431 C430 1.399 . S
C431 C432 1.385 . S
C432 H418 0.931 . S
C432 C431 1.385 . S
C432 C433 1.389 . S
C433 C432 1.389 . S
C433 C434 1.387 . S
C434 H419 0.930 . S
C434 C429 1.390 . S
C434 C433 1.387 . S
H435 C447 0.930 . S
H436 C449 0.930 . S
H437 C450 0.930 . S
H438 C454 0.959 . S
H439 C454 0.959 . S
H440 C454 0.961 . S
H441 C455 0.960 . S
H442 C455 0.961 . S
H443 C455 0.959 . S
H444 C458 0.929 . S
H445 C459 0.931 . S
H446 C461 0.930 . S
C447 H435 0.930 . S
C447 C448 1.399 . S
C447 C452 1.399 . S
C448 C447 1.399 . S
C448 C449 1.376 . S
C449 H436 0.930 . S
C449 C448 1.376 . S
C449 C450 1.388 . S
C450 H437 0.930 . S
C450 C449 1.388 . S
C450 C451 1.390 . S
C451 C450 1.390 . S
C451 C452 1.394 . S
C451 C457 1.465 . S
C452 C447 1.399 . S
C452 C451 1.394 . S
C452 C453 1.516 . S
C453 C452 1.516 . S
C453 C454 1.502 . S
C453 C455 1.561 . S
C453 C456 1.526 . S
C454 H438 0.959 . S
C454 H439 0.959 . S
C454 H440 0.961 . S
C454 C453 1.502 . S
C455 H441 0.960 . S
C455 H442 0.961 . S
C455 H443 0.959 . S
C455 C453 1.561 . S
C456 C453 1.526 . S
C456 C457 1.396 . S
C456 C461 1.390 . S
C457 C451 1.465 . S
C457 C456 1.396 . S
C457 C458 1.399 . S
C458 H444 0.929 . S
C458 C457 1.399 . S
C458 C459 1.385 . S
C459 H445 0.931 . S
C459 C458 1.385 . S
C459 C460 1.389 . S
C460 C459 1.389 . S
C460 C461 1.387 . S
C461 H446 0.930 . S
C461 C456 1.390 . S
C461 C460 1.387 . S
H462 C474 0.930 . S
H463 C476 0.930 . S
H464 C477 0.930 . S
H465 C481 0.959 . S
H466 C481 0.959 . S
H467 C481 0.961 . S
H468 C482 0.960 . S
H469 C482 0.961 . S
H470 C482 0.959 . S
H471 C485 0.929 . S
H472 C486 0.931 . S
H473 C488 0.930 . S
C474 H462 0.930 . S
C474 C475 1.399 . S
C474 C479 1.399 . S
C475 C474 1.399 . S
C475 C476 1.376 . S
C476 H463 0.930 . S
C476 C475 1.376 . S
C476 C477 1.388 . S
C477 H464 0.930 . S
C477 C476 1.388 . S
C477 C478 1.390 . S
C478 C477 1.390 . S
C478 C479 1.394 . S
C478 C484 1.465 . S
C479 C474 1.399 . S
C479 C478 1.394 . S
C479 C480 1.516 . S
C480 C479 1.516 . S
C480 C481 1.502 . S
C480 C482 1.561 . S
C480 C483 1.526 . S
C481 H465 0.959 . S
C481 H466 0.959 . S
C481 H467 0.961 . S
C481 C480 1.502 . S
C482 H468 0.960 . S
C482 H469 0.961 . S
C482 H470 0.959 . S
C482 C480 1.561 . S
C483 C480 1.526 . S
C483 C484 1.396 . S
C483 C488 1.390 . S
C484 C478 1.465 . S
C484 C483 1.396 . S
C484 C485 1.399 . S
C485 H471 0.929 . S
C485 C484 1.399 . S
C485 C486 1.385 . S
C486 H472 0.931 . S
C486 C485 1.385 . S
C486 C487 1.389 . S
C487 C486 1.389 . S
C487 C488 1.387 . S
C488 H473 0.930 . S
C488 C483 1.390 . S
C488 C487 1.387 . S
H489 C501 0.930 . S
H490 C503 0.930 . S
H491 C504 0.930 . S
H492 C508 0.959 . S
H493 C508 0.959 . S
H494 C508 0.961 . S
H495 C509 0.960 . S
H496 C509 0.961 . S
H497 C509 0.959 . S
H498 C512 0.929 . S
H499 C513 0.931 . S
H500 C515 0.930 . S
C501 H489 0.930 . S
C501 C502 1.399 . S
C501 C506 1.399 . S
C502 C501 1.399 . S
C502 C503 1.376 . S
C503 H490 0.930 . S
C503 C502 1.376 . S
C503 C504 1.388 . S
C504 H491 0.930 . S
C504 C503 1.388 . S
C504 C505 1.390 . S
C505 C504 1.390 . S
C505 C506 1.394 . S
C505 C511 1.465 . S
C506 C501 1.399 . S
C506 C505 1.394 . S
C506 C507 1.516 . S
C507 C506 1.516 . S
C507 C508 1.502 . S
C507 C509 1.561 . S
C507 C510 1.526 . S
C508 H492 0.959 . S
C508 H493 0.959 . S
C508 H494 0.961 . S
C508 C507 1.502 . S
C509 H495 0.960 . S
C509 H496 0.961 . S
C509 H497 0.959 . S
C509 C507 1.561 . S
C510 C507 1.526 . S
C510 C511 1.396 . S
C510 C515 1.390 . S
C511 C505 1.465 . S
C511 C510 1.396 . S
C511 C512 1.399 . S
C512 H498 0.929 . S
C512 C511 1.399 . S
C512 C513 1.385 . S
C513 H499 0.931 . S
C513 C512 1.385 . S
C513 C514 1.389 . S
C514 C513 1.389 . S
C514 C515 1.387 . S
C515 H500 0.930 . S
C515 C510 1.390 . S
C515 C514 1.387 . S
H516 C528 0.930 . S
H517 C530 0.930 . S
H518 C531 0.930 . S
H519 C535 0.959 . S
H520 C535 0.959 . S
H521 C535 0.961 . S
H522 C536 0.960 . S
H523 C536 0.961 . S
H524 C536 0.959 . S
H525 C539 0.929 . S
H526 C540 0.931 . S
H527 C542 0.930 . S
C528 H516 0.930 . S
C528 C529 1.399 . S
C528 C533 1.399 . S
C529 C528 1.399 . S
C529 C530 1.376 . S
C530 H517 0.930 . S
C530 C529 1.376 . S
C530 C531 1.388 . S
C531 H518 0.930 . S
C531 C530 1.388 . S
C531 C532 1.390 . S
C532 C531 1.390 . S
C532 C533 1.394 . S
C532 C538 1.465 . S
C533 C528 1.399 . S
C533 C532 1.394 . S
C533 C534 1.516 . S
C534 C533 1.516 . S
C534 C535 1.502 . S
C534 C536 1.561 . S
C534 C537 1.526 . S
C535 H519 0.959 . S
C535 H520 0.959 . S
C535 H521 0.961 . S
C535 C534 1.502 . S
C536 H522 0.960 . S
C536 H523 0.961 . S
C536 H524 0.959 . S
C536 C534 1.561 . S
C537 C534 1.526 . S
C537 C538 1.396 . S
C537 C542 1.390 . S
C538 C532 1.465 . S
C538 C537 1.396 . S
C538 C539 1.399 . S
C539 H525 0.929 . S
C539 C538 1.399 . S
C539 C540 1.385 . S
C540 H526 0.931 . S
C540 C539 1.385 . S
C540 C541 1.389 . S
C541 C540 1.389 . S
C541 C542 1.387 . S
C542 H527 0.930 . S
C542 C537 1.390 . S
C542 C541 1.387 . S
H543 C555 0.930 . S
H544 C557 0.930 . S
H545 C558 0.930 . S
H546 C562 0.959 . S
H547 C562 0.959 . S
H548 C562 0.961 . S
H549 C563 0.960 . S
H550 C563 0.961 . S
H551 C563 0.959 . S
H552 C566 0.929 . S
H553 C567 0.931 . S
H554 C569 0.930 . S
C555 H543 0.930 . S
C555 C556 1.399 . S
C555 C560 1.399 . S
C556 C555 1.399 . S
C556 C557 1.376 . S
C557 H544 0.930 . S
C557 C556 1.376 . S
C557 C558 1.388 . S
C558 H545 0.930 . S
C558 C557 1.388 . S
C558 C559 1.390 . S
C559 C558 1.390 . S
C559 C560 1.394 . S
C559 C565 1.465 . S
C560 C555 1.399 . S
C560 C559 1.394 . S
C560 C561 1.516 . S
C561 C560 1.516 . S
C561 C562 1.502 . S
C561 C563 1.561 . S
C561 C564 1.526 . S
C562 H546 0.959 . S
C562 H547 0.959 . S
C562 H548 0.961 . S
C562 C561 1.502 . S
C563 H549 0.960 . S
C563 H550 0.961 . S
C563 H551 0.959 . S
C563 C561 1.561 . S
C564 C561 1.526 . S
C564 C565 1.396 . S
C564 C569 1.390 . S
C565 C559 1.465 . S
C565 C564 1.396 . S
C565 C566 1.399 . S
C566 H552 0.929 . S
C566 C565 1.399 . S
C566 C567 1.385 . S
C567 H553 0.931 . S
C567 C566 1.385 . S
C567 C568 1.389 . S
C568 C567 1.389 . S
C568 C569 1.387 . S
C569 H554 0.930 . S
C569 C564 1.390 . S
C569 C568 1.387 . S
H570 C582 0.930 . S
H571 C584 0.930 . S
H572 C585 0.930 . S
H573 C589 0.959 . S
H574 C589 0.959 . S
H575 C589 0.961 . S
H576 C590 0.960 . S
H577 C590 0.961 . S
H578 C590 0.959 . S
H579 C593 0.929 . S
H580 C594 0.931 . S
H581 C596 0.930 . S
C582 H570 0.930 . S
C582 C583 1.399 . S
C582 C587 1.399 . S
C583 C582 1.399 . S
C583 C584 1.376 . S
C584 H571 0.930 . S
C584 C583 1.376 . S
C584 C585 1.388 . S
C585 H572 0.930 . S
C585 C584 1.388 . S
C585 C586 1.390 . S
C586 C585 1.390 . S
C586 C587 1.394 . S
C586 C592 1.465 . S
C587 C582 1.399 . S
C587 C586 1.394 . S
C587 C588 1.516 . S
C588 C587 1.516 . S
C588 C589 1.502 . S
C588 C590 1.561 . S
C588 C591 1.526 . S
C589 H573 0.959 . S
C589 H574 0.959 . S
C589 H575 0.961 . S
C589 C588 1.502 . S
C590 H576 0.960 . S
C590 H577 0.961 . S
C590 H578 0.959 . S
C590 C588 1.561 . S
C591 C588 1.526 . S
C591 C592 1.396 . S
C591 C596 1.390 . S
C592 C586 1.465 . S
C592 C591 1.396 . S
C592 C593 1.399 . S
C593 H579 0.929 . S
C593 C592 1.399 . S
C593 C594 1.385 . S
C594 H580 0.931 . S
C594 C593 1.385 . S
C594 C595 1.389 . S
C595 C594 1.389 . S
C595 C596 1.387 . S
C596 H581 0.930 . S
C596 C591 1.390 . S
C596 C595 1.387 . S
H597 C609 0.930 . S
H598 C611 0.930 . S
H599 C612 0.930 . S
H600 C616 0.959 . S
H601 C616 0.959 . S
H602 C616 0.961 . S
H603 C617 0.960 . S
H604 C617 0.961 . S
H605 C617 0.959 . S
H606 C620 0.929 . S
H607 C621 0.931 . S
H608 C623 0.930 . S
C609 H597 0.930 . S
C609 C610 1.399 . S
C609 C614 1.399 . S
C610 C609 1.399 . S
C610 C611 1.376 . S
C611 H598 0.930 . S
C611 C610 1.376 . S
C611 C612 1.388 . S
C612 H599 0.930 . S
C612 C611 1.388 . S
C612 C613 1.390 . S
C613 C612 1.390 . S
C613 C614 1.394 . S
C613 C619 1.465 . S
C614 C609 1.399 . S
C614 C613 1.394 . S
C614 C615 1.516 . S
C615 C614 1.516 . S
C615 C616 1.502 . S
C615 C617 1.561 . S
C615 C618 1.526 . S
C616 H600 0.959 . S
C616 H601 0.959 . S
C616 H602 0.961 . S
C616 C615 1.502 . S
C617 H603 0.960 . S
C617 H604 0.961 . S
C617 H605 0.959 . S
C617 C615 1.561 . S
C618 C615 1.526 . S
C618 C619 1.396 . S
C618 C623 1.390 . S
C619 C613 1.465 . S
C619 C618 1.396 . S
C619 C620 1.399 . S
C620 H606 0.929 . S
C620 C619 1.399 . S
C620 C621 1.385 . S
C621 H607 0.931 . S
C621 C620 1.385 . S
C621 C622 1.389 . S
C622 C621 1.389 . S
C622 C623 1.387 . S
C623 H608 0.930 . S
C623 C618 1.390 . S
C623 C622 1.387 . S
H624 C636 0.930 . S
H625 C638 0.930 . S
H626 C639 0.930 . S
H627 C643 0.959 . S
H628 C643 0.959 . S
H629 C643 0.961 . S
H630 C644 0.960 . S
H631 C644 0.961 . S
H632 C644 0.959 . S
H633 C647 0.929 . S
H634 C648 0.931 . S
H635 C650 0.930 . S
C636 H624 0.930 . S
C636 C637 1.399 . S
C636 C641 1.399 . S
C637 C636 1.399 . S
C637 C638 1.376 . S
C638 H625 0.930 . S
C638 C637 1.376 . S
C638 C639 1.388 . S
C639 H626 0.930 . S
C639 C638 1.388 . S
C639 C640 1.390 . S
C640 C639 1.390 . S
C640 C641 1.394 . S
C640 C646 1.465 . S
C641 C636 1.399 . S
C641 C640 1.394 . S
C641 C642 1.516 . S
C642 C641 1.516 . S
C642 C643 1.502 . S
C642 C644 1.561 . S
C642 C645 1.526 . S
C643 H627 0.959 . S
C643 H628 0.959 . S
C643 H629 0.961 . S
C643 C642 1.502 . S
C644 H630 0.960 . S
C644 H631 0.961 . S
C644 H632 0.959 . S
C644 C642 1.561 . S
C645 C642 1.526 . S
C645 C646 1.396 . S
C645 C650 1.390 . S
C646 C640 1.465 . S
C646 C645 1.396 . S
C646 C647 1.399 . S
C647 H633 0.929 . S
C647 C646 1.399 . S
C647 C648 1.385 . S
C648 H634 0.931 . S
C648 C647 1.385 . S
C648 C649 1.389 . S
C649 C648 1.389 . S
C649 C650 1.387 . S
C650 H635 0.930 . S
C650 C645 1.390 . S
C650 C649 1.387 . S
H651 C663 0.930 . S
H652 C665 0.930 . S
H653 C666 0.930 . S
H654 C670 0.959 . S
H655 C670 0.959 . S
H656 C670 0.961 . S
H657 C671 0.960 . S
H658 C671 0.961 . S
H659 C671 0.959 . S
H660 C674 0.929 . S
H661 C675 0.931 . S
H662 C677 0.930 . S
C663 H651 0.930 . S
C663 C664 1.399 . S
C663 C668 1.399 . S
C664 C663 1.399 . S
C664 C665 1.376 . S
C665 H652 0.930 . S
C665 C664 1.376 . S
C665 C666 1.388 . S
C666 H653 0.930 . S
C666 C665 1.388 . S
C666 C667 1.390 . S
C667 C666 1.390 . S
C667 C668 1.394 . S
C667 C673 1.465 . S
C668 C663 1.399 . S
C668 C667 1.394 . S
C668 C669 1.516 . S
C669 C668 1.516 . S
C669 C670 1.502 . S
C669 C671 1.561 . S
C669 C672 1.526 . S
C670 H654 0.959 . S
C670 H655 0.959 . S
C670 H656 0.961 . S
C670 C669 1.502 . S
C671 H657 0.960 . S
C671 H658 0.961 . S
C671 H659 0.959 . S
C671 C669 1.561 . S
C672 C669 1.526 . S
C672 C673 1.396 . S
C672 C677 1.390 . S
C673 C667 1.465 . S
C673 C672 1.396 . S
C673 C674 1.399 . S
C674 H660 0.929 . S
C674 C673 1.399 . S
C674 C675 1.385 . S
C675 H661 0.931 . S
C675 C674 1.385 . S
C675 C676 1.389 . S
C676 C675 1.389 . S
C676 C677 1.387 . S
C677 H662 0.930 . S
C677 C672 1.390 . S
C677 C676 1.387 . S
H678 C690 0.930 . S
H679 C692 0.930 . S
H680 C693 0.930 . S
H681 C697 0.959 . S
H682 C697 0.959 . S
H683 C697 0.961 . S
H684 C698 0.960 . S
H685 C698 0.961 . S
H686 C698 0.959 . S
H687 C701 0.929 . S
H688 C702 0.931 . S
H689 C704 0.930 . S
C690 H678 0.930 . S
C690 C691 1.399 . S
C690 C695 1.399 . S
C691 C690 1.399 . S
C691 C692 1.376 . S
C692 H679 0.930 . S
C692 C691 1.376 . S
C692 C693 1.388 . S
C693 H680 0.930 . S
C693 C692 1.388 . S
C693 C694 1.390 . S
C694 C693 1.390 . S
C694 C695 1.394 . S
C694 C700 1.465 . S
C695 C690 1.399 . S
C695 C694 1.394 . S
C695 C696 1.516 . S
C696 C695 1.516 . S
C696 C697 1.502 . S
C696 C698 1.561 . S
C696 C699 1.526 . S
C697 H681 0.959 . S
C697 H682 0.959 . S
C697 H683 0.961 . S
C697 C696 1.502 . S
C698 H684 0.960 . S
C698 H685 0.961 . S
C698 H686 0.959 . S
C698 C696 1.561 . S
C699 C696 1.526 . S
C699 C700 1.396 . S
C699 C704 1.390 . S
C700 C694 1.465 . S
C700 C699 1.396 . S
C700 C701 1.399 . S
C701 H687 0.929 . S
C701 C700 1.399 . S
C701 C702 1.385 . S
C702 H688 0.931 . S
C702 C701 1.385 . S
C702 C703 1.389 . S
C703 C702 1.389 . S
C703 C704 1.387 . S
C704 H689 0.930 . S
C704 C699 1.390 . S
C704 C703 1.387 . S
H705 C717 0.930 . S
H706 C719 0.930 . S
H707 C720 0.930 . S
H708 C724 0.959 . S
H709 C724 0.959 . S
H710 C724 0.961 . S
H711 C725 0.960 . S
H712 C725 0.961 . S
H713 C725 0.959 . S
H714 C728 0.929 . S
H715 C729 0.931 . S
H716 C731 0.930 . S
C717 H705 0.930 . S
C717 C718 1.399 . S
C717 C722 1.399 . S
C718 C717 1.399 . S
C718 C719 1.376 . S
C719 H706 0.930 . S
C719 C718 1.376 . S
C719 C720 1.388 . S
C720 H707 0.930 . S
C720 C719 1.388 . S
C720 C721 1.390 . S
C721 C720 1.390 . S
C721 C722 1.394 . S
C721 C727 1.465 . S
C722 C717 1.399 . S
C722 C721 1.394 . S
C722 C723 1.516 . S
C723 C722 1.516 . S
C723 C724 1.502 . S
C723 C725 1.561 . S
C723 C726 1.526 . S
C724 H708 0.959 . S
C724 H709 0.959 . S
C724 H710 0.961 . S
C724 C723 1.502 . S
C725 H711 0.960 . S
C725 H712 0.961 . S
C725 H713 0.959 . S
C725 C723 1.561 . S
C726 C723 1.526 . S
C726 C727 1.396 . S
C726 C731 1.390 . S
C727 C721 1.465 . S
C727 C726 1.396 . S
C727 C728 1.399 . S
C728 H714 0.929 . S
C728 C727 1.399 . S
C728 C729 1.385 . S
C729 H715 0.931 . S
C729 C728 1.385 . S
C729 C730 1.389 . S
C730 C729 1.389 . S
C730 C731 1.387 . S
C731 H716 0.930 . S
C731 C726 1.390 . S
C731 C730 1.387 . S
H732 C744 0.930 . S
H733 C746 0.930 . S
H734 C747 0.930 . S
H735 C751 0.959 . S
H736 C751 0.959 . S
H737 C751 0.961 . S
H738 C752 0.960 . S
H739 C752 0.961 . S
H740 C752 0.959 . S
H741 C755 0.929 . S
H742 C756 0.931 . S
H743 C758 0.930 . S
C744 H732 0.930 . S
C744 C745 1.399 . S
C744 C749 1.399 . S
C745 C744 1.399 . S
C745 C746 1.376 . S
C746 H733 0.930 . S
C746 C745 1.376 . S
C746 C747 1.388 . S
C747 H734 0.930 . S
C747 C746 1.388 . S
C747 C748 1.390 . S
C748 C747 1.390 . S
C748 C749 1.394 . S
C748 C754 1.465 . S
C749 C744 1.399 . S
C749 C748 1.394 . S
C749 C750 1.516 . S
C750 C749 1.516 . S
C750 C751 1.502 . S
C750 C752 1.561 . S
C750 C753 1.526 . S
C751 H735 0.959 . S
C751 H736 0.959 . S
C751 H737 0.961 . S
C751 C750 1.502 . S
C752 H738 0.960 . S
C752 H739 0.961 . S
C752 H740 0.959 . S
C752 C750 1.561 . S
C753 C750 1.526 . S
C753 C754 1.396 . S
C753 C758 1.390 . S
C754 C748 1.465 . S
C754 C753 1.396 . S
C754 C755 1.399 . S
C755 H741 0.929 . S
C755 C754 1.399 . S
C755 C756 1.385 . S
C756 H742 0.931 . S
C756 C755 1.385 . S
C756 C757 1.389 . S
C757 C756 1.389 . S
C757 C758 1.387 . S
C758 H743 0.930 . S
C758 C753 1.390 . S
C758 C757 1.387 . S
H759 C771 0.930 . S
H760 C773 0.930 . S
H761 C774 0.930 . S
H762 C778 0.959 . S
H763 C778 0.959 . S
H764 C778 0.961 . S
H765 C779 0.960 . S
H766 C779 0.961 . S
H767 C779 0.959 . S
H768 C782 0.929 . S
H769 C783 0.931 . S
H770 C785 0.930 . S
C771 H759 0.930 . S
C771 C772 1.399 . S
C771 C776 1.399 . S
C772 C771 1.399 . S
C772 C773 1.376 . S
C773 H760 0.930 . S
C773 C772 1.376 . S
C773 C774 1.388 . S
C774 H761 0.930 . S
C774 C773 1.388 . S
C774 C775 1.390 . S
C775 C774 1.390 . S
C775 C776 1.394 . S
C775 C781 1.465 . S
C776 C771 1.399 . S
C776 C775 1.394 . S
C776 C777 1.516 . S
C777 C776 1.516 . S
C777 C778 1.502 . S
C777 C779 1.561 . S
C777 C780 1.526 . S
C778 H762 0.959 . S
C778 H763 0.959 . S
C778 H764 0.961 . S
C778 C777 1.502 . S
C779 H765 0.960 . S
C779 H766 0.961 . S
C779 H767 0.959 . S
C779 C777 1.561 . S
C780 C777 1.526 . S
C780 C781 1.396 . S
C780 C785 1.390 . S
C781 C775 1.465 . S
C781 C780 1.396 . S
C781 C782 1.399 . S
C782 H768 0.929 . S
C782 C781 1.399 . S
C782 C783 1.385 . S
C783 H769 0.931 . S
C783 C782 1.385 . S
C783 C784 1.389 . S
C784 C783 1.389 . S
C784 C785 1.387 . S
C785 H770 0.930 . S
C785 C780 1.390 . S
C785 C784 1.387 . S
H786 C798 0.930 . S
H787 C800 0.930 . S
H788 C801 0.930 . S
H789 C805 0.959 . S
H790 C805 0.959 . S
H791 C805 0.961 . S
H792 C806 0.960 . S
H793 C806 0.961 . S
H794 C806 0.959 . S
H795 C809 0.929 . S
H796 C810 0.931 . S
H797 C812 0.930 . S
C798 H786 0.930 . S
C798 C799 1.399 . S
C798 C803 1.399 . S
C799 C798 1.399 . S
C799 C800 1.376 . S
C800 H787 0.930 . S
C800 C799 1.376 . S
C800 C801 1.388 . S
C801 H788 0.930 . S
C801 C800 1.388 . S
C801 C802 1.390 . S
C802 C801 1.390 . S
C802 C803 1.394 . S
C802 C808 1.465 . S
C803 C798 1.399 . S
C803 C802 1.394 . S
C803 C804 1.516 . S
C804 C803 1.516 . S
C804 C805 1.502 . S
C804 C806 1.561 . S
C804 C807 1.526 . S
C805 H789 0.959 . S
C805 H790 0.959 . S
C805 H791 0.961 . S
C805 C804 1.502 . S
C806 H792 0.960 . S
C806 H793 0.961 . S
C806 H794 0.959 . S
C806 C804 1.561 . S
C807 C804 1.526 . S
C807 C808 1.396 . S
C807 C812 1.390 . S
C808 C802 1.465 . S
C808 C807 1.396 . S
C808 C809 1.399 . S
C809 H795 0.929 . S
C809 C808 1.399 . S
C809 C810 1.385 . S
C810 H796 0.931 . S
C810 C809 1.385 . S
C810 C811 1.389 . S
C811 C810 1.389 . S
C811 C812 1.387 . S
C812 H797 0.930 . S
C812 C807 1.390 . S
C812 C811 1.387 . S
H813 C825 0.930 . S
H814 C827 0.930 . S
H815 C828 0.930 . S
H816 C832 0.959 . S
H817 C832 0.959 . S
H818 C832 0.961 . S
H819 C833 0.960 . S
H820 C833 0.961 . S
H821 C833 0.959 . S
H822 C836 0.929 . S
H823 C837 0.931 . S
H824 C839 0.930 . S
C825 H813 0.930 . S
C825 C826 1.399 . S
C825 C830 1.399 . S
C826 C825 1.399 . S
C826 C827 1.376 . S
C827 H814 0.930 . S
C827 C826 1.376 . S
C827 C828 1.388 . S
C828 H815 0.930 . S
C828 C827 1.388 . S
C828 C829 1.390 . S
C829 C828 1.390 . S
C829 C830 1.394 . S
C829 C835 1.465 . S
C830 C825 1.399 . S
C830 C829 1.394 . S
C830 C831 1.516 . S
C831 C830 1.516 . S
C831 C832 1.502 . S
C831 C833 1.561 . S
C831 C834 1.526 . S
C832 H816 0.959 . S
C832 H817 0.959 . S
C832 H818 0.961 . S
C832 C831 1.502 . S
C833 H819 0.960 . S
C833 H820 0.961 . S
C833 H821 0.959 . S
C833 C831 1.561 . S
C834 C831 1.526 . S
C834 C835 1.396 . S
C834 C839 1.390 . S
C835 C829 1.465 . S
C835 C834 1.396 . S
C835 C836 1.399 . S
C836 H822 0.929 . S
C836 C835 1.399 . S
C836 C837 1.385 . S
C837 H823 0.931 . S
C837 C836 1.385 . S
C837 C838 1.389 . S
C838 C837 1.389 . S
C838 C839 1.387 . S
C839 H824 0.930 . S
C839 C834 1.390 . S
C839 C838 1.387 . S
H840 C852 0.930 . S
H841 C854 0.930 . S
H842 C855 0.930 . S
H843 C859 0.959 . S
H844 C859 0.959 . S
H845 C859 0.961 . S
H846 C860 0.960 . S
H847 C860 0.961 . S
H848 C860 0.959 . S
H849 C863 0.929 . S
H850 C864 0.931 . S
H851 C866 0.930 . S
C852 H840 0.930 . S
C852 C853 1.399 . S
C852 C857 1.399 . S
C853 C852 1.399 . S
C853 C854 1.376 . S
C854 H841 0.930 . S
C854 C853 1.376 . S
C854 C855 1.388 . S
C855 H842 0.930 . S
C855 C854 1.388 . S
C855 C856 1.390 . S
C856 C855 1.390 . S
C856 C857 1.394 . S
C856 C862 1.465 . S
C857 C852 1.399 . S
C857 C856 1.394 . S
C857 C858 1.516 . S
C858 C857 1.516 . S
C858 C859 1.502 . S
C858 C860 1.561 . S
C858 C861 1.526 . S
C859 H843 0.959 . S
C859 H844 0.959 . S
C859 H845 0.961 . S
C859 C858 1.502 . S
C860 H846 0.960 . S
C860 H847 0.961 . S
C860 H848 0.959 . S
C860 C858 1.561 . S
C861 C858 1.526 . S
C861 C862 1.396 . S
C861 C866 1.390 . S
C862 C856 1.465 . S
C862 C861 1.396 . S
C862 C863 1.399 . S
C863 H849 0.929 . S
C863 C862 1.399 . S
C863 C864 1.385 . S
C864 H850 0.931 . S
C864 C863 1.385 . S
C864 C865 1.389 . S
C865 C864 1.389 . S
C865 C866 1.387 . S
C866 H851 0.930 . S
C866 C861 1.390 . S
C866 C865 1.387 . S
H867 C879 0.930 . S
H868 C881 0.930 . S
H869 C882 0.930 . S
H870 C886 0.959 . S
H871 C886 0.959 . S
H872 C886 0.961 . S
H873 C887 0.960 . S
H874 C887 0.961 . S
H875 C887 0.959 . S
H876 C890 0.929 . S
H877 C891 0.931 . S
H878 C893 0.930 . S
C879 H867 0.930 . S
C879 C880 1.399 . S
C879 C884 1.399 . S
C880 C879 1.399 . S
C880 C881 1.376 . S
C881 H868 0.930 . S
C881 C880 1.376 . S
C881 C882 1.388 . S
C882 H869 0.930 . S
C882 C881 1.388 . S
C882 C883 1.390 . S
C883 C882 1.390 . S
C883 C884 1.394 . S
C883 C889 1.465 . S
C884 C879 1.399 . S
C884 C883 1.394 . S
C884 C885 1.516 . S
C885 C884 1.516 . S
C885 C886 1.502 . S
C885 C887 1.561 . S
C885 C888 1.526 . S
C886 H870 0.959 . S
C886 H871 0.959 . S
C886 H872 0.961 . S
C886 C885 1.502 . S
C887 H873 0.960 . S
C887 H874 0.961 . S
C887 H875 0.959 . S
C887 C885 1.561 . S
C888 C885 1.526 . S
C888 C889 1.396 . S
C888 C893 1.390 . S
C889 C883 1.465 . S
C889 C888 1.396 . S
C889 C890 1.399 . S
C890 H876 0.929 . S
C890 C889 1.399 . S
C890 C891 1.385 . S
C891 H877 0.931 . S
C891 C890 1.385 . S
C891 C892 1.389 . S
C892 C891 1.389 . S
C892 C893 1.387 . S
C893 H878 0.930 . S
C893 C888 1.390 . S
C893 C892 1.387 . S
H894 C906 0.930 . S
H895 C908 0.930 . S
H896 C909 0.930 . S
H897 C913 0.959 . S
H898 C913 0.959 . S
H899 C913 0.961 . S
H900 C914 0.960 . S
H901 C914 0.961 . S
H902 C914 0.959 . S
H903 C917 0.929 . S
H904 C918 0.931 . S
H905 C920 0.930 . S
C906 H894 0.930 . S
C906 C907 1.399 . S
C906 C911 1.399 . S
C907 C906 1.399 . S
C907 C908 1.376 . S
C908 H895 0.930 . S
C908 C907 1.376 . S
C908 C909 1.388 . S
C909 H896 0.930 . S
C909 C908 1.388 . S
C909 C910 1.390 . S
C910 C909 1.390 . S
C910 C911 1.394 . S
C910 C916 1.465 . S
C911 C906 1.399 . S
C911 C910 1.394 . S
C911 C912 1.516 . S
C912 C911 1.516 . S
C912 C913 1.502 . S
C912 C914 1.561 . S
C912 C915 1.526 . S
C913 H897 0.959 . S
C913 H898 0.959 . S
C913 H899 0.961 . S
C913 C912 1.502 . S
C914 H900 0.960 . S
C914 H901 0.961 . S
C914 H902 0.959 . S
C914 C912 1.561 . S
C915 C912 1.526 . S
C915 C916 1.396 . S
C915 C920 1.390 . S
C916 C910 1.465 . S
C916 C915 1.396 . S
C916 C917 1.399 . S
C917 H903 0.929 . S
C917 C916 1.399 . S
C917 C918 1.385 . S
C918 H904 0.931 . S
C918 C917 1.385 . S
C918 C919 1.389 . S
C919 C918 1.389 . S
C919 C920 1.387 . S
C920 H905 0.930 . S
C920 C915 1.390 . S
C920 C919 1.387 . S
H921 C933 0.930 . S
H922 C935 0.930 . S
H923 C936 0.930 . S
H924 C940 0.959 . S
H925 C940 0.959 . S
H926 C940 0.961 . S
H927 C941 0.960 . S
H928 C941 0.961 . S
H929 C941 0.966 . S
H930 C944 0.929 . S
H931 C945 0.931 . S
H932 C947 0.930 . S
C933 H921 0.930 . S
C933 C934 1.399 . S
C933 C938 1.399 . S
C934 C933 1.399 . S
C934 C935 1.376 . S
C935 H922 0.930 . S
C935 C934 1.376 . S
C935 C936 1.388 . S
C936 H923 0.930 . S
C936 C935 1.388 . S
C936 C937 1.390 . S
C937 C936 1.390 . S
C937 C938 1.394 . S
C937 C943 1.465 . S
C938 C933 1.399 . S
C938 C937 1.394 . S
C938 C939 1.516 . S
C939 C938 1.516 . S
C939 C940 1.502 . S
C939 C941 1.561 . S
C939 C942 1.526 . S
C940 H924 0.959 . S
C940 H925 0.959 . S
C940 H926 0.961 . S
C940 C939 1.502 . S
C941 H927 0.960 . S
C941 H928 0.961 . S
C941 H929 0.966 . S
C941 C939 1.561 . S
C942 C939 1.526 . S
C942 C943 1.396 . S
C942 C947 1.390 . S
C943 C937 1.465 . S
C943 C942 1.396 . S
C943 C944 1.399 . S
C944 H930 0.929 . S
C944 C943 1.399 . S
C944 C945 1.385 . S
C945 H931 0.931 . S
C945 C944 1.385 . S
C945 C946 1.389 . S
C946 C945 1.389 . S
C946 C947 1.387 . S
C947 H932 0.930 . S
C947 C942 1.390 . S
C947 C946 1.387 . S
H948 C960 0.930 . S
H949 C962 0.930 . S
H950 C963 0.930 . S
H951 C967 0.959 . S
H952 C967 0.959 . S
H953 C967 0.961 . S
H954 C968 0.960 . S
H955 C968 0.961 . S
H956 C968 0.959 . S
H957 C971 0.929 . S
H958 C972 0.931 . S
H959 C974 0.930 . S
C960 H948 0.930 . S
C960 C961 1.399 . S
C960 C965 1.399 . S
C961 C960 1.399 . S
C961 C962 1.376 . S
C962 H949 0.930 . S
C962 C961 1.376 . S
C962 C963 1.388 . S
C963 H950 0.930 . S
C963 C962 1.388 . S
C963 C964 1.390 . S
C964 C963 1.390 . S
C964 C965 1.394 . S
C964 C970 1.465 . S
C965 C960 1.399 . S
C965 C964 1.394 . S
C965 C966 1.516 . S
C966 C965 1.516 . S
C966 C967 1.502 . S
C966 C968 1.561 . S
C966 C969 1.526 . S
C967 H951 0.959 . S
C967 H952 0.959 . S
C967 H953 0.961 . S
C967 C966 1.502 . S
C968 H954 0.960 . S
C968 H955 0.961 . S
C968 H956 0.959 . S
C968 C966 1.561 . S
C969 C966 1.526 . S
C969 C970 1.396 . S
C969 C974 1.390 . S
C970 C964 1.465 . S
C970 C969 1.396 . S
C970 C971 1.399 . S
C971 H957 0.929 . S
C971 C970 1.399 . S
C971 C972 1.385 . S
C972 H958 0.931 . S
C972 C971 1.385 . S
C972 C973 1.389 . S
C973 C972 1.389 . S
C973 C974 1.387 . S
C974 H959 0.930 . S
C974 C969 1.390 . S
C974 C973 1.387 . S
H975 C987 0.930 . S
H976 C989 0.930 . S
H977 C990 0.930 . S
H978 C994 0.959 . S
H979 C994 0.959 . S
H980 C994 0.961 . S
H981 C995 0.960 . S
H982 C995 0.961 . S
H983 C995 0.959 . S
H984 C998 0.929 . S
H985 C999 0.931 . S
H986 C1001 0.930 . S
C987 H975 0.930 . S
C987 C988 1.399 . S
C987 C992 1.399 . S
C988 C987 1.399 . S
C988 C989 1.376 . S
C989 H976 0.930 . S
C989 C988 1.376 . S
C989 C990 1.388 . S
C990 H977 0.930 . S
C990 C989 1.388 . S
C990 C991 1.390 . S
C991 C990 1.390 . S
C991 C992 1.394 . S
C991 C997 1.465 . S
C992 C987 1.399 . S
C992 C991 1.394 . S
C992 C993 1.516 . S
C993 C992 1.516 . S
C993 C994 1.502 . S
C993 C995 1.561 . S
C993 C996 1.526 . S
C994 H978 0.959 . S
C994 H979 0.959 . S
C994 H980 0.961 . S
C994 C993 1.502 . S
C995 H981 0.960 . S
C995 H982 0.961 . S
C995 H983 0.959 . S
C995 C993 1.561 . S
C996 C993 1.526 . S
C996 C997 1.396 . S
C996 C1001 1.390 . S
C997 C991 1.465 . S
C997 C996 1.396 . S
C997 C998 1.399 . S
C998 H984 0.929 . S
C998 C997 1.399 . S
C998 C999 1.385 . S
C999 H985 0.931 . S
C999 C998 1.385 . S
C999 C1000 1.389 . S
C1000 C999 1.389 . S
C1000 C1001 1.387 . S
C1001 H986 0.930 . S
C1001 C996 1.390 . S
C1001 C1000 1.387 . S
H1002 C1014 0.930 . S
H1003 C1016 0.930 . S
H1004 C1017 0.930 . S
H1005 C1021 0.959 . S
H1006 C1021 0.959 . S
H1007 C1021 0.961 . S
H1008 C1022 0.960 . S
H1009 C1022 0.961 . S
H1010 C1022 0.959 . S
H1011 C1025 0.929 . S
H1012 C1026 0.931 . S
H1013 C1028 0.930 . S
C1014 H1002 0.930 . S
C1014 C1015 1.399 . S
C1014 C1019 1.399 . S
C1015 C1014 1.399 . S
C1015 C1016 1.376 . S
C1016 H1003 0.930 . S
C1016 C1015 1.376 . S
C1016 C1017 1.388 . S
C1017 H1004 0.930 . S
C1017 C1016 1.388 . S
C1017 C1018 1.390 . S
C1018 C1017 1.390 . S
C1018 C1019 1.394 . S
C1018 C1024 1.465 . S
C1019 C1014 1.399 . S
C1019 C1018 1.394 . S
C1019 C1020 1.516 . S
C1020 C1019 1.516 . S
C1020 C1021 1.502 . S
C1020 C1022 1.561 1_455 S
C1020 C1023 1.526 . S
C1021 H1005 0.959 . S
C1021 H1006 0.959 . S
C1021 H1007 0.961 . S
C1021 C1020 1.502 . S
C1022 H1008 0.960 . S
C1022 H1009 0.961 . S
C1022 H1010 0.959 . S
C1022 C1020 1.561 1_655 S
C1023 C1020 1.526 . S
C1023 C1024 1.396 . S
C1023 C1028 1.390 . S
C1024 C1018 1.465 . S
C1024 C1023 1.396 . S
C1024 C1025 1.399 . S
C1025 H1011 0.929 . S
C1025 C1024 1.399 . S
C1025 C1026 1.385 . S
C1026 H1012 0.931 . S
C1026 C1025 1.385 . S
C1026 C1027 1.389 . S
C1027 C1026 1.389 . S
C1027 C1028 1.387 . S
C1028 H1013 0.930 . S
C1028 C1023 1.390 . S
C1028 C1027 1.387 . S
H1029 C1041 0.930 . S
H1030 C1043 0.930 . S
H1031 C1044 0.930 . S
H1032 C1048 0.959 . S
H1033 C1048 0.959 . S
H1034 C1048 0.961 . S
H1035 C1049 0.960 . S
H1036 C1049 0.961 . S
H1037 C1049 0.959 . S
H1038 C1052 0.942 . S
H1039 C1053 0.931 . S
H1040 C1055 0.930 . S
C1041 H1029 0.930 . S
C1041 C1042 1.399 . S
C1041 C1046 1.399 . S
C1042 C1041 1.399 . S
C1042 C1043 1.376 . S
C1043 H1030 0.930 . S
C1043 C1042 1.376 . S
C1043 C1044 1.388 . S
C1044 H1031 0.930 . S
C1044 C1043 1.388 . S
C1044 C1045 1.390 . S
C1045 C1044 1.390 . S
C1045 C1046 1.394 . S
C1045 C1051 1.465 . S
C1046 C1041 1.399 . S
C1046 C1045 1.394 . S
C1046 C1047 1.516 . S
C1047 C1046 1.516 . S
C1047 C1048 1.502 . S
C1047 C1049 1.561 . S
C1047 C1050 1.526 . S
C1048 H1032 0.959 . S
C1048 H1033 0.959 . S
C1048 H1034 0.961 . S
C1048 C1047 1.502 . S
C1049 H1035 0.960 . S
C1049 H1036 0.961 . S
C1049 H1037 0.959 . S
C1049 C1047 1.561 . S
C1050 C1047 1.526 . S
C1050 C1051 1.396 . S
C1050 C1055 1.390 . S
C1051 C1045 1.465 . S
C1051 C1050 1.396 . S
C1051 C1052 1.399 . S
C1052 H1038 0.942 . S
C1052 C1051 1.399 . S
C1052 C1053 1.385 . S
C1053 H1039 0.931 . S
C1053 C1052 1.385 . S
C1053 C1054 1.389 . S
C1054 C1053 1.389 . S
C1054 C1055 1.387 . S
C1055 H1040 0.930 . S
C1055 C1050 1.390 . S
C1055 C1054 1.387 . S
H1056 C1068 0.930 . S
H1057 C1070 0.930 . S
H1058 C1071 0.930 . S
H1059 C1075 0.959 . S
H1060 C1075 0.959 . S
H1061 C1075 0.961 . S
H1062 C1076 0.960 . S
H1063 C1076 0.961 . S
H1064 C1076 0.959 . S
H1065 C1079 0.929 . S
H1066 C1080 0.931 . S
H1067 C1082 0.930 . S
C1068 H1056 0.930 . S
C1068 C1069 1.399 . S
C1068 C1073 1.399 . S
C1069 C1068 1.399 . S
C1069 C1070 1.376 . S
C1070 H1057 0.930 . S
C1070 C1069 1.376 . S
C1070 C1071 1.388 . S
C1071 H1058 0.930 . S
C1071 C1070 1.388 . S
C1071 C1072 1.390 . S
C1072 C1071 1.390 . S
C1072 C1073 1.394 . S
C1072 C1078 1.465 . S
C1073 C1068 1.399 . S
C1073 C1072 1.394 . S
C1073 C1074 1.516 . S
C1074 C1073 1.516 . S
C1074 C1075 1.502 . S
C1074 C1076 1.561 . S
C1074 C1077 1.526 . S
C1075 H1059 0.959 . S
C1075 H1060 0.959 . S
C1075 H1061 0.961 . S
C1075 C1074 1.502 . S
C1076 H1062 0.960 . S
C1076 H1063 0.961 . S
C1076 H1064 0.959 . S
C1076 C1074 1.561 . S
C1077 C1074 1.526 . S
C1077 C1078 1.396 . S
C1077 C1082 1.390 . S
C1078 C1072 1.465 . S
C1078 C1077 1.396 . S
C1078 C1079 1.399 . S
C1079 H1065 0.929 . S
C1079 C1078 1.399 . S
C1079 C1080 1.385 . S
C1080 H1066 0.931 . S
C1080 C1079 1.385 . S
C1080 C1081 1.389 . S
C1081 C1080 1.389 . S
C1081 C1082 1.387 . S
C1082 H1067 0.930 . S
C1082 C1077 1.390 . S
C1082 C1081 1.387 . S
H1083 C1095 0.930 . S
H1084 C1097 0.930 . S
H1085 C1098 0.930 . S
H1086 C1102 0.959 . S
H1087 C1102 0.959 . S
H1088 C1102 0.961 . S
H1089 C1103 0.960 . S
H1090 C1103 0.961 . S
H1091 C1103 0.959 . S
H1092 C1106 0.929 . S
H1093 C1107 0.931 . S
H1094 C1109 0.930 . S
C1095 H1083 0.930 . S
C1095 C1096 1.399 . S
C1095 C1100 1.399 . S
C1096 C1095 1.399 . S
C1096 C1097 1.376 . S
C1097 H1084 0.930 . S
C1097 C1096 1.376 . S
C1097 C1098 1.388 . S
C1098 H1085 0.930 . S
C1098 C1097 1.388 . S
C1098 C1099 1.390 . S
C1099 C1098 1.390 . S
C1099 C1100 1.394 . S
C1099 C1105 1.465 . S
C1100 C1095 1.399 . S
C1100 C1099 1.394 . S
C1100 C1101 1.516 . S
C1101 C1100 1.516 . S
C1101 C1102 1.502 . S
C1101 C1103 1.561 . S
C1101 C1104 1.526 . S
C1102 H1086 0.959 . S
C1102 H1087 0.959 . S
C1102 H1088 0.961 . S
C1102 C1101 1.502 . S
C1103 H1089 0.960 . S
C1103 H1090 0.961 . S
C1103 H1091 0.959 . S
C1103 C1101 1.561 . S
C1104 C1101 1.526 . S
C1104 C1105 1.396 . S
C1104 C1109 1.390 . S
C1105 C1099 1.465 . S
C1105 C1104 1.396 . S
C1105 C1106 1.399 . S
C1106 H1092 0.929 . S
C1106 C1105 1.399 . S
C1106 C1107 1.385 . S
C1107 H1093 0.931 . S
C1107 C1106 1.385 . S
C1107 C1108 1.389 . S
C1108 C1107 1.389 . S
C1108 C1109 1.387 . S
C1109 H1094 0.930 . S
C1109 C1104 1.390 . S
C1109 C1108 1.387 . S
H1110 C1122 0.930 . S
H1111 C1124 0.930 . S
H1112 C1125 0.930 . S
H1113 C1129 0.959 . S
H1114 C1129 0.959 . S
H1115 C1129 0.961 . S
H1116 C1130 0.960 . S
H1117 C1130 0.961 . S
H1118 C1130 0.959 . S
H1119 C1133 0.929 . S
H1120 C1134 0.931 . S
H1121 C1136 0.930 . S
C1122 H1110 0.930 . S
C1122 C1123 1.399 . S
C1122 C1127 1.399 . S
C1123 C1122 1.399 . S
C1123 C1124 1.376 . S
C1124 H1111 0.930 . S
C1124 C1123 1.376 . S
C1124 C1125 1.388 . S
C1125 H1112 0.930 . S
C1125 C1124 1.388 . S
C1125 C1126 1.390 . S
C1126 C1125 1.390 . S
C1126 C1127 1.394 . S
C1126 C1132 1.465 . S
C1127 C1122 1.399 . S
C1127 C1126 1.394 . S
C1127 C1128 1.516 . S
C1128 C1127 1.516 . S
C1128 C1129 1.502 . S
C1128 C1130 1.561 . S
C1128 C1131 1.526 . S
C1129 H1113 0.959 . S
C1129 H1114 0.959 . S
C1129 H1115 0.961 . S
C1129 C1128 1.502 . S
C1130 H1116 0.960 . S
C1130 H1117 0.961 . S
C1130 H1118 0.959 . S
C1130 C1128 1.561 . S
C1131 C1128 1.526 . S
C1131 C1132 1.396 . S
C1131 C1136 1.390 . S
C1132 C1126 1.465 . S
C1132 C1131 1.396 . S
C1132 C1133 1.399 . S
C1133 H1119 0.929 . S
C1133 C1132 1.399 . S
C1133 C1134 1.385 . S
C1134 H1120 0.931 . S
C1134 C1133 1.385 . S
C1134 C1135 1.389 . S
C1135 C1134 1.389 . S
C1135 C1136 1.387 . S
C1136 H1121 0.930 . S
C1136 C1131 1.390 . S
C1136 C1135 1.387 . S
H1137 C1149 0.930 . S
H1138 C1151 0.930 . S
H1139 C1152 0.930 . S
H1140 C1156 0.959 . S
H1141 C1156 0.959 . S
H1142 C1156 0.961 . S
H1143 C1157 0.960 . S
H1144 C1157 0.961 . S
H1145 C1157 0.959 . S
H1146 C1160 0.929 . S
H1147 C1161 0.931 . S
H1148 C1163 0.930 . S
C1149 H1137 0.930 . S
C1149 C1150 1.399 . S
C1149 C1154 1.399 . S
C1150 C1149 1.399 . S
C1150 C1151 1.376 . S
C1151 H1138 0.930 . S
C1151 C1150 1.376 . S
C1151 C1152 1.388 . S
C1152 H1139 0.930 . S
C1152 C1151 1.388 . S
C1152 C1153 1.390 . S
C1153 C1152 1.390 . S
C1153 C1154 1.394 . S
C1153 C1159 1.465 . S
C1154 C1149 1.399 . S
C1154 C1153 1.394 . S
C1154 C1155 1.516 . S
C1155 C1154 1.516 . S
C1155 C1156 1.502 . S
C1155 C1157 1.561 . S
C1155 C1158 1.526 . S
C1156 H1140 0.959 . S
C1156 H1141 0.959 . S
C1156 H1142 0.961 . S
C1156 C1155 1.502 . S
C1157 H1143 0.960 . S
C1157 H1144 0.961 . S
C1157 H1145 0.959 . S
C1157 C1155 1.561 . S
C1158 C1155 1.526 . S
C1158 C1159 1.396 . S
C1158 C1163 1.390 . S
C1159 C1153 1.465 . S
C1159 C1158 1.396 . S
C1159 C1160 1.399 . S
C1160 H1146 0.929 . S
C1160 C1159 1.399 . S
C1160 C1161 1.385 . S
C1161 H1147 0.931 . S
C1161 C1160 1.385 . S
C1161 C1162 1.389 . S
C1162 C1161 1.389 . S
C1162 C1163 1.387 . S
C1163 H1148 0.930 . S
C1163 C1158 1.390 . S
C1163 C1162 1.387 . S
H1164 C1176 0.930 . S
H1165 C1178 0.930 . S
H1166 C1179 0.930 . S
H1167 C1183 0.959 . S
H1168 C1183 0.959 . S
H1169 C1183 0.961 . S
H1170 C1184 0.960 . S
H1171 C1184 0.961 . S
H1172 C1184 0.959 . S
H1173 C1187 0.929 . S
H1174 C1188 0.931 . S
H1175 C1190 0.930 . S
C1176 H1164 0.930 . S
C1176 C1177 1.399 . S
C1176 C1181 1.399 . S
C1177 C1176 1.399 . S
C1177 C1178 1.376 . S
C1178 H1165 0.930 . S
C1178 C1177 1.376 . S
C1178 C1179 1.388 . S
C1179 H1166 0.930 . S
C1179 C1178 1.388 . S
C1179 C1180 1.390 . S
C1180 C1179 1.390 . S
C1180 C1181 1.394 . S
C1180 C1186 1.465 . S
C1181 C1176 1.399 . S
C1181 C1180 1.394 . S
C1181 C1182 1.516 . S
C1182 C1181 1.516 . S
C1182 C1183 1.502 . S
C1182 C1184 1.561 . S
C1182 C1185 1.526 . S
C1183 H1167 0.959 . S
C1183 H1168 0.959 . S
C1183 H1169 0.961 . S
C1183 C1182 1.502 . S
C1184 H1170 0.960 . S
C1184 H1171 0.961 . S
C1184 H1172 0.959 . S
C1184 C1182 1.561 . S
C1185 C1182 1.526 . S
C1185 C1186 1.396 . S
C1185 C1190 1.390 . S
C1186 C1180 1.465 . S
C1186 C1185 1.396 . S
C1186 C1187 1.399 . S
C1187 H1173 0.929 . S
C1187 C1186 1.399 . S
C1187 C1188 1.385 . S
C1188 H1174 0.931 . S
C1188 C1187 1.385 . S
C1188 C1189 1.389 . S
C1189 C1188 1.389 . S
C1189 C1190 1.387 . S
C1190 H1175 0.930 . S
C1190 C1185 1.390 . S
C1190 C1189 1.387 . S
H1191 C1203 0.930 . S
H1192 C1205 0.930 . S
H1193 C1206 0.930 . S
H1194 C1210 0.959 . S
H1195 C1210 0.959 . S
H1196 C1210 0.961 . S
H1197 C1211 0.960 . S
H1198 C1211 0.961 . S
H1199 C1211 0.959 . S
H1200 C1214 0.929 . S
H1201 C1215 0.931 . S
H1202 C1217 0.930 . S
C1203 H1191 0.930 . S
C1203 C1204 1.399 . S
C1203 C1208 1.399 . S
C1204 C1203 1.399 . S
C1204 C1205 1.376 . S
C1205 H1192 0.930 . S
C1205 C1204 1.376 . S
C1205 C1206 1.388 . S
C1206 H1193 0.930 . S
C1206 C1205 1.388 . S
C1206 C1207 1.390 . S
C1207 C1206 1.390 . S
C1207 C1208 1.394 . S
C1207 C1213 1.465 . S
C1208 C1203 1.399 . S
C1208 C1207 1.394 . S
C1208 C1209 1.516 . S
C1209 C1208 1.516 . S
C1209 C1210 1.502 . S
C1209 C1211 1.561 . S
C1209 C1212 1.526 . S
C1210 H1194 0.959 . S
C1210 H1195 0.959 . S
C1210 H1196 0.961 . S
C1210 C1209 1.502 . S
C1211 H1197 0.960 . S
C1211 H1198 0.961 . S
C1211 H1199 0.959 . S
C1211 C1209 1.561 . S
C1212 C1209 1.526 . S
C1212 C1213 1.396 . S
C1212 C1217 1.390 . S
C1213 C1207 1.465 . S
C1213 C1212 1.396 . S
C1213 C1214 1.399 . S
C1214 H1200 0.929 . S
C1214 C1213 1.399 . S
C1214 C1215 1.385 . S
C1215 H1201 0.931 . S
C1215 C1214 1.385 . S
C1215 C1216 1.389 . S
C1216 C1215 1.389 . S
C1216 C1217 1.387 . S
C1217 H1202 0.930 . S
C1217 C1212 1.390 . S
C1217 C1216 1.387 . S
H1218 C1230 0.930 . S
H1219 C1232 0.930 . S
H1220 C1233 0.930 . S
H1221 C1237 0.959 . S
H1222 C1237 0.959 . S
H1223 C1237 0.961 . S
H1224 C1238 0.960 . S
H1225 C1238 0.961 . S
H1226 C1238 0.959 . S
H1227 C1241 0.929 . S
H1228 C1242 0.920 1_556 S
H1229 C1244 0.930 . S
C1230 H1218 0.930 . S
C1230 C1231 1.399 . S
C1230 C1235 1.399 . S
C1231 C1230 1.399 . S
C1231 C1232 1.376 1_554 S
C1232 H1219 0.930 . S
C1232 C1231 1.376 1_556 S
C1232 C1233 1.388 . S
C1233 H1220 0.930 . S
C1233 C1232 1.388 . S
C1233 C1234 1.390 1_556 S
C1234 C1233 1.390 1_554 S
C1234 C1235 1.394 . S
C1234 C1240 1.465 . S
C1235 C1230 1.399 . S
C1235 C1234 1.394 . S
C1235 C1236 1.516 . S
C1236 C1235 1.516 . S
C1236 C1237 1.502 . S
C1236 C1238 1.561 . S
C1236 C1239 1.526 . S
C1237 H1221 0.959 . S
C1237 H1222 0.959 . S
C1237 H1223 0.961 . S
C1237 C1236 1.502 . S
C1238 H1224 0.960 . S
C1238 H1225 0.961 . S
C1238 H1226 0.959 . S
C1238 C1236 1.561 . S
C1239 C1236 1.526 . S
C1239 C1240 1.396 . S
C1239 C1244 1.390 . S
C1240 C1234 1.465 . S
C1240 C1239 1.396 . S
C1240 C1241 1.399 1_554 S
C1241 H1227 0.929 . S
C1241 C1240 1.399 1_556 S
C1241 C1242 1.380 1_556 S
C1242 H1228 0.920 1_554 S
C1242 C1241 1.380 1_554 S
C1242 C1243 1.405 . S
C1243 C1242 1.405 . S
C1243 C1244 1.387 . S
C1244 H1229 0.930 . S
C1244 C1239 1.390 . S
C1244 C1243 1.387 . S
H1245 C1257 0.930 . S
H1246 C1259 0.930 . S
H1247 C1260 0.930 . S
H1248 C1264 0.959 . S
H1249 C1264 0.959 . S
H1250 C1264 0.961 . S
H1251 C1265 0.960 . S
H1252 C1265 0.961 . S
H1253 C1265 0.959 . S
H1254 C1268 0.929 . S
H1255 C1269 0.931 . S
H1256 C1271 0.930 . S
C1257 H1245 0.930 . S
C1257 C1258 1.399 . S
C1257 C1262 1.399 . S
C1258 C1257 1.399 . S
C1258 C1259 1.376 . S
C1259 H1246 0.930 . S
C1259 C1258 1.376 . S
C1259 C1260 1.388 . S
C1260 H1247 0.930 . S
C1260 C1259 1.388 . S
C1260 C1261 1.390 . S
C1261 C1260 1.390 . S
C1261 C1262 1.394 . S
C1261 C1267 1.465 . S
C1262 C1257 1.399 . S
C1262 C1261 1.394 . S
C1262 C1263 1.516 . S
C1263 C1262 1.516 . S
C1263 C1264 1.502 . S
C1263 C1265 1.561 . S
C1263 C1266 1.526 . S
C1264 H1248 0.959 . S
C1264 H1249 0.959 . S
C1264 H1250 0.961 . S
C1264 C1263 1.502 . S
C1265 H1251 0.960 . S
C1265 H1252 0.961 . S
C1265 H1253 0.959 . S
C1265 C1263 1.561 . S
C1266 C1263 1.526 . S
C1266 C1267 1.396 . S
C1266 C1271 1.390 . S
C1267 C1261 1.465 . S
C1267 C1266 1.396 . S
C1267 C1268 1.399 . S
C1268 H1254 0.929 . S
C1268 C1267 1.399 . S
C1268 C1269 1.385 . S
C1269 H1255 0.931 . S
C1269 C1268 1.385 . S
C1269 C1270 1.389 . S
C1270 C1269 1.389 . S
C1270 C1271 1.387 . S
C1271 H1256 0.930 . S
C1271 C1266 1.390 . S
C1271 C1270 1.387 . S
H1272 C1284 0.930 . S
H1273 C1286 0.930 . S
H1274 C1287 0.930 . S
H1275 C1291 0.959 . S
H1276 C1291 0.959 . S
H1277 C1291 0.961 . S
H1278 C1292 0.960 . S
H1279 C1292 0.961 . S
H1280 C1292 0.959 . S
H1281 C1295 0.929 . S
H1282 C1296 0.931 . S
H1283 C1298 0.930 . S
C1284 H1272 0.930 . S
C1284 C1285 1.399 . S
C1284 C1289 1.399 . S
C1285 C1284 1.399 . S
C1285 C1286 1.376 . S
C1286 H1273 0.930 . S
C1286 C1285 1.376 . S
C1286 C1287 1.388 . S
C1287 H1274 0.930 . S
C1287 C1286 1.388 . S
C1287 C1288 1.390 . S
C1288 C1287 1.390 . S
C1288 C1289 1.394 . S
C1288 C1294 1.465 . S
C1289 C1284 1.399 . S
C1289 C1288 1.394 . S
C1289 C1290 1.516 . S
C1290 C1289 1.516 . S
C1290 C1291 1.502 . S
C1290 C1292 1.561 . S
C1290 C1293 1.526 . S
C1291 H1275 0.959 . S
C1291 H1276 0.959 . S
C1291 H1277 0.961 . S
C1291 C1290 1.502 . S
C1292 H1278 0.960 . S
C1292 H1279 0.961 . S
C1292 H1280 0.959 . S
C1292 C1290 1.561 . S
C1293 C1290 1.526 . S
C1293 C1294 1.396 . S
C1293 C1298 1.390 . S
C1294 C1288 1.465 . S
C1294 C1293 1.396 . S
C1294 C1295 1.399 . S
C1295 H1281 0.929 . S
C1295 C1294 1.399 . S
C1295 C1296 1.385 . S
C1296 H1282 0.931 . S
C1296 C1295 1.385 . S
C1296 C1297 1.389 . S
C1297 C1296 1.389 . S
C1297 C1298 1.387 . S
C1298 H1283 0.930 . S
C1298 C1293 1.390 . S
C1298 C1297 1.387 . S
H1299 C1311 0.930 . S
H1300 C1313 0.930 . S
H1301 C1314 0.930 . S
H1302 C1318 0.959 . S
H1303 C1318 0.959 . S
H1304 C1318 0.961 . S
H1305 C1319 0.960 . S
H1306 C1319 0.961 . S
H1307 C1319 0.959 . S
H1308 C1322 0.929 . S
H1309 C1323 0.931 . S
H1310 C1325 0.930 . S
C1311 H1299 0.930 . S
C1311 C1312 1.399 . S
C1311 C1316 1.399 . S
C1312 C1311 1.399 . S
C1312 C1313 1.376 . S
C1313 H1300 0.930 . S
C1313 C1312 1.376 . S
C1313 C1314 1.388 . S
C1314 H1301 0.930 . S
C1314 C1313 1.388 . S
C1314 C1315 1.390 . S
C1315 C1314 1.390 . S
C1315 C1316 1.394 . S
C1315 C1321 1.465 . S
C1316 C1311 1.399 . S
C1316 C1315 1.394 . S
C1316 C1317 1.516 . S
C1317 C1316 1.516 . S
C1317 C1318 1.502 . S
C1317 C1319 1.561 . S
C1317 C1320 1.526 . S
C1318 H1302 0.959 . S
C1318 H1303 0.959 . S
C1318 H1304 0.961 . S
C1318 C1317 1.502 . S
C1319 H1305 0.960 . S
C1319 H1306 0.961 . S
C1319 H1307 0.959 . S
C1319 C1317 1.561 . S
C1320 C1317 1.526 . S
C1320 C1321 1.396 . S
C1320 C1325 1.390 . S
C1321 C1315 1.465 . S
C1321 C1320 1.396 . S
C1321 C1322 1.399 . S
C1322 H1308 0.929 . S
C1322 C1321 1.399 . S
C1322 C1323 1.385 . S
C1323 H1309 0.931 . S
C1323 C1322 1.385 . S
C1323 C1324 1.389 . S
C1324 C1323 1.389 . S
C1324 C1325 1.387 . S
C1325 H1310 0.930 . S
C1325 C1320 1.390 . S
C1325 C1324 1.387 . S
H1326 C1338 0.930 . S
H1327 C1340 0.930 . S
H1328 C1341 0.930 . S
H1329 C1345 0.959 . S
H1330 C1345 0.959 . S
H1331 C1345 0.961 . S
H1332 C1346 0.960 . S
H1333 C1346 0.961 . S
H1334 C1346 0.959 . S
H1335 C1349 0.929 . S
H1336 C1350 0.931 . S
H1337 C1352 0.930 . S
C1338 H1326 0.930 . S
C1338 C1339 1.399 . S
C1338 C1343 1.399 . S
C1339 C1338 1.399 . S
C1339 C1340 1.376 . S
C1340 H1327 0.930 . S
C1340 C1339 1.376 . S
C1340 C1341 1.388 . S
C1341 H1328 0.930 . S
C1341 C1340 1.388 . S
C1341 C1342 1.390 . S
C1342 C1341 1.390 . S
C1342 C1343 1.394 . S
C1342 C1348 1.465 . S
C1343 C1338 1.399 . S
C1343 C1342 1.394 . S
C1343 C1344 1.516 . S
C1344 C1343 1.516 . S
C1344 C1345 1.502 . S
C1344 C1346 1.561 . S
C1344 C1347 1.526 . S
C1345 H1329 0.959 . S
C1345 H1330 0.959 . S
C1345 H1331 0.961 . S
C1345 C1344 1.502 . S
C1346 H1332 0.960 . S
C1346 H1333 0.961 . S
C1346 H1334 0.959 . S
C1346 C1344 1.561 . S
C1347 C1344 1.526 . S
C1347 C1348 1.396 . S
C1347 C1352 1.390 . S
C1348 C1342 1.465 . S
C1348 C1347 1.396 . S
C1348 C1349 1.399 . S
C1349 H1335 0.929 . S
C1349 C1348 1.399 . S
C1349 C1350 1.385 . S
C1350 H1336 0.931 . S
C1350 C1349 1.385 . S
C1350 C1351 1.389 . S
C1351 C1350 1.389 . S
C1351 C1352 1.387 . S
C1352 H1337 0.930 . S
C1352 C1347 1.390 . S
C1352 C1351 1.387 . S
H1353 C1365 0.930 . S
H1354 C1367 0.930 . S
H1355 C1368 0.930 . S
H1356 C1372 0.959 . S
H1357 C1372 0.959 . S
H1358 C1372 0.961 . S
H1359 C1373 0.960 . S
H1360 C1373 0.961 . S
H1361 C1373 0.959 . S
H1362 C1376 0.929 . S
H1363 C1377 0.931 . S
H1364 C1379 0.930 . S
C1365 H1353 0.930 . S
C1365 C1366 1.399 . S
C1365 C1370 1.399 . S
C1366 C1365 1.399 . S
C1366 C1367 1.376 . S
C1367 H1354 0.930 . S
C1367 C1366 1.376 . S
C1367 C1368 1.388 . S
C1368 H1355 0.930 . S
C1368 C1367 1.388 . S
C1368 C1369 1.390 . S
C1369 C1368 1.390 . S
C1369 C1370 1.394 . S
C1369 C1375 1.465 . S
C1370 C1365 1.399 . S
C1370 C1369 1.394 . S
C1370 C1371 1.516 . S
C1371 C1370 1.516 . S
C1371 C1372 1.502 . S
C1371 C1373 1.561 . S
C1371 C1374 1.526 . S
C1372 H1356 0.959 . S
C1372 H1357 0.959 . S
C1372 H1358 0.961 . S
C1372 C1371 1.502 . S
C1373 H1359 0.960 . S
C1373 H1360 0.961 . S
C1373 H1361 0.959 . S
C1373 C1371 1.561 . S
C1374 C1371 1.526 . S
C1374 C1375 1.396 . S
C1374 C1379 1.390 . S
C1375 C1369 1.465 . S
C1375 C1374 1.396 . S
C1375 C1376 1.399 . S
C1376 H1362 0.929 . S
C1376 C1375 1.399 . S
C1376 C1377 1.385 . S
C1377 H1363 0.931 . S
C1377 C1376 1.385 . S
C1377 C1378 1.389 . S
C1378 C1377 1.389 . S
C1378 C1379 1.387 . S
C1379 H1364 0.930 . S
C1379 C1374 1.390 . S
C1379 C1378 1.387 . S
H1380 C1392 0.930 . S
H1381 C1394 0.930 . S
H1382 C1395 0.930 . S
H1383 C1399 0.959 . S
H1384 C1399 0.959 . S
H1385 C1399 0.961 . S
H1386 C1400 0.960 . S
H1387 C1400 0.961 . S
H1388 C1400 0.959 . S
H1389 C1403 0.929 . S
H1390 C1404 0.931 . S
H1391 C1406 0.930 . S
C1392 H1380 0.930 . S
C1392 C1393 1.399 . S
C1392 C1397 1.399 . S
C1393 C1392 1.399 . S
C1393 C1394 1.376 . S
C1394 H1381 0.930 . S
C1394 C1393 1.376 . S
C1394 C1395 1.388 . S
C1395 H1382 0.930 . S
C1395 C1394 1.388 . S
C1395 C1396 1.390 . S
C1396 C1395 1.390 . S
C1396 C1397 1.394 . S
C1396 C1402 1.465 . S
C1397 C1392 1.399 . S
C1397 C1396 1.394 . S
C1397 C1398 1.516 . S
C1398 C1397 1.516 . S
C1398 C1399 1.502 . S
C1398 C1400 1.561 . S
C1398 C1401 1.526 . S
C1399 H1383 0.959 . S
C1399 H1384 0.959 . S
C1399 H1385 0.961 . S
C1399 C1398 1.502 . S
C1400 H1386 0.960 . S
C1400 H1387 0.961 . S
C1400 H1388 0.959 . S
C1400 C1398 1.561 . S
C1401 C1398 1.526 . S
C1401 C1402 1.396 . S
C1401 C1406 1.390 . S
C1402 C1396 1.465 . S
C1402 C1401 1.396 . S
C1402 C1403 1.399 . S
C1403 H1389 0.929 . S
C1403 C1402 1.399 . S
C1403 C1404 1.385 . S
C1404 H1390 0.931 . S
C1404 C1403 1.385 . S
C1404 C1405 1.389 . S
C1405 C1404 1.389 . S
C1405 C1406 1.387 . S
C1406 H1391 0.930 . S
C1406 C1401 1.390 . S
C1406 C1405 1.387 . S
H1407 C1419 0.930 . S
H1408 C1421 0.930 . S
H1409 C1422 0.930 1_554 S
H1410 C1426 0.959 . S
H1411 C1426 0.959 . S
H1412 C1426 0.961 . S
H1413 C1427 0.960 . S
H1414 C1427 0.961 . S
H1415 C1427 0.959 . S
H1416 C1430 0.929 . S
H1417 C1431 0.931 . S
H1418 C1433 0.930 . S
C1419 H1407 0.930 . S
C1419 C1420 1.399 . S
C1419 C1424 1.399 . S
C1420 C1419 1.399 . S
C1420 C1421 1.376 . S
C1421 H1408 0.930 . S
C1421 C1420 1.376 . S
C1421 C1422 1.388 . S
C1422 H1409 0.930 1_556 S
C1422 C1421 1.388 . S
C1422 C1423 1.390 . S
C1423 C1422 1.390 . S
C1423 C1424 1.394 . S
C1423 C1429 1.465 . S
C1424 C1419 1.399 . S
C1424 C1423 1.394 . S
C1424 C1425 1.516 . S
C1425 C1424 1.516 . S
C1425 C1426 1.502 . S
C1425 C1427 1.561 . S
C1425 C1428 1.526 . S
C1426 H1410 0.959 . S
C1426 H1411 0.959 . S
C1426 H1412 0.961 . S
C1426 C1425 1.502 . S
C1427 H1413 0.960 . S
C1427 H1414 0.961 . S
C1427 H1415 0.959 . S
C1427 C1425 1.561 . S
C1428 C1425 1.526 . S
C1428 C1429 1.396 . S
C1428 C1433 1.390 . S
C1429 C1423 1.465 . S
C1429 C1428 1.396 . S
C1429 C1430 1.399 1_556 S
C1430 H1416 0.929 . S
C1430 C1429 1.399 1_554 S
C1430 C1431 1.385 . S
C1431 H1417 0.931 . S
C1431 C1430 1.385 . S
C1431 C1432 1.389 1_554 S
C1432 C1431 1.389 1_556 S
C1432 C1433 1.387 . S
C1433 H1418 0.930 . S
C1433 C1428 1.390 . S
C1433 C1432 1.387 . S
H1434 C1446 0.930 . S
H1435 C1448 0.930 . S
H1436 C1449 0.930 . S
H1437 C1453 0.959 . S
H1438 C1453 0.959 . S
H1439 C1453 0.961 . S
H1440 C1454 0.960 . S
H1441 C1454 0.961 . S
H1442 C1454 0.959 . S
H1443 C1457 0.929 . S
H1444 C1458 0.931 . S
H1445 C1460 0.930 . S
C1446 H1434 0.930 . S
C1446 C1447 1.399 . S
C1446 C1451 1.399 . S
C1447 C1446 1.399 . S
C1447 C1448 1.376 . S
C1448 H1435 0.930 . S
C1448 C1447 1.376 . S
C1448 C1449 1.388 . S
C1449 H1436 0.930 . S
C1449 C1448 1.388 . S
C1449 C1450 1.390 . S
C1450 C1449 1.390 . S
C1450 C1451 1.394 . S
C1450 C1456 1.465 . S
C1451 C1446 1.399 . S
C1451 C1450 1.394 . S
C1451 C1452 1.516 . S
C1452 C1451 1.516 . S
C1452 C1453 1.502 . S
C1452 C1454 1.561 . S
C1452 C1455 1.526 . S
C1453 H1437 0.959 . S
C1453 H1438 0.959 . S
C1453 H1439 0.961 . S
C1453 C1452 1.502 . S
C1454 H1440 0.960 . S
C1454 H1441 0.961 . S
C1454 H1442 0.959 . S
C1454 C1452 1.561 . S
C1455 C1452 1.526 . S
C1455 C1456 1.396 . S
C1455 C1460 1.390 . S
C1456 C1450 1.465 . S
C1456 C1455 1.396 . S
C1456 C1457 1.399 . S
C1457 H1443 0.929 . S
C1457 C1456 1.399 . S
C1457 C1458 1.385 . S
C1458 H1444 0.931 . S
C1458 C1457 1.385 . S
C1458 C1459 1.389 . S
C1459 C1458 1.389 . S
C1459 C1460 1.387 . S
C1460 H1445 0.930 . S
C1460 C1455 1.390 . S
C1460 C1459 1.387 . S
H1461 C1473 0.930 . S
H1462 C1475 0.930 . S
H1463 C1476 0.930 . S
H1464 C1480 0.959 . S
H1465 C1480 0.959 . S
H1466 C1480 0.961 . S
H1467 C1481 0.960 . S
H1468 C1481 0.961 . S
H1469 C1481 0.959 . S
H1470 C1484 0.929 . S
H1471 C1485 0.931 . S
H1472 C1487 0.930 . S
C1473 H1461 0.930 . S
C1473 C1474 1.399 . S
C1473 C1478 1.399 . S
C1474 C1473 1.399 . S
C1474 C1475 1.376 . S
C1475 H1462 0.930 . S
C1475 C1474 1.376 . S
C1475 C1476 1.388 . S
C1476 H1463 0.930 . S
C1476 C1475 1.388 . S
C1476 C1477 1.390 . S
C1477 C1476 1.390 . S
C1477 C1478 1.394 . S
C1477 C1483 1.465 . S
C1478 C1473 1.399 . S
C1478 C1477 1.394 . S
C1478 C1479 1.516 . S
C1479 C1478 1.516 . S
C1479 C1480 1.502 . S
C1479 C1481 1.561 . S
C1479 C1482 1.526 . S
C1480 H1464 0.959 . S
C1480 H1465 0.959 . S
C1480 H1466 0.961 . S
C1480 C1479 1.502 . S
C1481 H1467 0.960 . S
C1481 H1468 0.961 . S
C1481 H1469 0.959 . S
C1481 C1479 1.561 . S
C1482 C1479 1.526 . S
C1482 C1483 1.396 . S
C1482 C1487 1.390 . S
C1483 C1477 1.465 . S
C1483 C1482 1.396 . S
C1483 C1484 1.399 . S
C1484 H1470 0.929 . S
C1484 C1483 1.399 . S
C1484 C1485 1.385 . S
C1485 H1471 0.931 . S
C1485 C1484 1.385 . S
C1485 C1486 1.389 . S
C1486 C1485 1.389 . S
C1486 C1487 1.387 . S
C1487 H1472 0.930 . S
C1487 C1482 1.390 . S
C1487 C1486 1.387 . S
H1488 C1500 0.930 . S
H1489 C1502 0.930 . S
H1490 C1503 0.930 . S
H1491 C1507 0.959 . S
H1492 C1507 0.959 . S
H1493 C1507 0.961 . S
H1494 C1508 0.960 . S
H1495 C1508 0.961 . S
H1496 C1508 0.959 . S
H1497 C1511 0.929 . S
H1498 C1512 0.931 . S
H1499 C1514 0.930 . S
C1500 H1488 0.930 . S
C1500 C1501 1.399 . S
C1500 C1505 1.399 . S
C1501 C1500 1.399 . S
C1501 C1502 1.376 . S
C1502 H1489 0.930 . S
C1502 C1501 1.376 . S
C1502 C1503 1.388 . S
C1503 H1490 0.930 . S
C1503 C1502 1.388 . S
C1503 C1504 1.390 . S
C1504 C1503 1.390 . S
C1504 C1505 1.394 . S
C1504 C1510 1.465 . S
C1505 C1500 1.399 . S
C1505 C1504 1.394 . S
C1505 C1506 1.516 . S
C1506 C1505 1.516 . S
C1506 C1507 1.502 . S
C1506 C1508 1.561 . S
C1506 C1509 1.526 . S
C1507 H1491 0.959 . S
C1507 H1492 0.959 . S
C1507 H1493 0.961 . S
C1507 C1506 1.502 . S
C1508 H1494 0.960 . S
C1508 H1495 0.961 . S
C1508 H1496 0.959 . S
C1508 C1506 1.561 . S
C1509 C1506 1.526 . S
C1509 C1510 1.396 . S
C1509 C1514 1.390 . S
C1510 C1504 1.465 . S
C1510 C1509 1.396 . S
C1510 C1511 1.399 . S
C1511 H1497 0.929 . S
C1511 C1510 1.399 . S
C1511 C1512 1.385 . S
C1512 H1498 0.931 . S
C1512 C1511 1.385 . S
C1512 C1513 1.389 . S
C1513 C1512 1.389 . S
C1513 C1514 1.387 . S
C1514 H1499 0.930 . S
C1514 C1509 1.390 . S
C1514 C1513 1.387 . S
H1515 C1527 0.930 . S
H1516 C1529 0.930 . S
H1517 C1530 0.930 . S
H1518 C1534 0.959 . S
H1519 C1534 0.959 . S
H1520 C1534 0.961 . S
H1521 C1535 0.960 . S
H1522 C1535 0.961 . S
H1523 C1535 0.959 . S
H1524 C1538 0.929 . S
H1525 C1539 0.931 . S
H1526 C1541 0.930 . S
C1527 H1515 0.930 . S
C1527 C1528 1.399 . S
C1527 C1532 1.399 . S
C1528 C1527 1.399 . S
C1528 C1529 1.376 . S
C1529 H1516 0.930 . S
C1529 C1528 1.376 . S
C1529 C1530 1.388 . S
C1530 H1517 0.930 . S
C1530 C1529 1.388 . S
C1530 C1531 1.390 . S
C1531 C1530 1.390 . S
C1531 C1532 1.394 . S
C1531 C1537 1.465 . S
C1532 C1527 1.399 . S
C1532 C1531 1.394 . S
C1532 C1533 1.516 . S
C1533 C1532 1.516 . S
C1533 C1534 1.502 . S
C1533 C1535 1.561 . S
C1533 C1536 1.526 . S
C1534 H1518 0.959 . S
C1534 H1519 0.959 . S
C1534 H1520 0.961 . S
C1534 C1533 1.502 . S
C1535 H1521 0.960 . S
C1535 H1522 0.961 . S
C1535 H1523 0.959 . S
C1535 C1533 1.561 . S
C1536 C1533 1.526 . S
C1536 C1537 1.396 . S
C1536 C1541 1.390 . S
C1537 C1531 1.465 . S
C1537 C1536 1.396 . S
C1537 C1538 1.399 . S
C1538 H1524 0.929 . S
C1538 C1537 1.399 . S
C1538 C1539 1.385 . S
C1539 H1525 0.931 . S
C1539 C1538 1.385 . S
C1539 C1540 1.389 . S
C1540 C1539 1.389 . S
C1540 C1541 1.387 . S
C1541 H1526 0.930 . S
C1541 C1536 1.390 . S
C1541 C1540 1.387 . S
C421 C28 1.821 . S
C433 C300 1.823 . S
C448 C40 1.829 . S
C460 C312 1.830 . S
C475 C368 1.822 . S
C487 C96 1.823 . S
C502 C108 1.829 . S
C514 C380 1.828 . S
C529 C164 1.821 . S
C541 C232 1.821 . S
C556 C176 1.823 . S
C568 C244 1.824 . S
C583 C171 1.261 . S
C595 C6 1.335 . S
C610 C62 1.322 . S
C622 C3 1.315 . S
C637 C74 1.341 . S
C649 C35 1.278 . S
C664 C71 1.264 . S
C676 C130 1.335 . S
C691 C103 1.283 . S
C703 C142 1.342 . S
C718 C139 1.278 . S
C730 C198 1.328 . S
C745 C210 1.336 . S
C757 C239 1.263 . S
C772 C275 1.326 . S
C784 C266 1.333 . S
C799 C307 1.320 . S
C811 C278 1.335 . S
C826 C343 1.322 . S
C838 C334 1.322 . S
C853 C375 1.272 . S
C865 C346 1.330 . S
C880 C402 1.342 . S
C892 C207 1.275 . S
C907 C17 1.534 . S
C919 C221 1.538 . S
C934 C51 1.540 . S
C946 C255 1.555 . S
C961 C289 1.544 . S
C973 C85 1.535 . S
C988 C323 1.534 . S
C1000 C119 1.544 . S
C1015 C153 1.547 . S
C1027 C357 1.560 . S
C1042 C187 1.539 . S
C1054 C391 1.534 . S
C1069 C273 2.896 1_545 S
C1081 C1 2.874 . S
C1096 C309 2.876 . S
C1108 C37 2.886 1_455 S
C1123 C341 2.879 1_655 S
C1135 C69 2.908 1_545 S
C1150 C105 2.895 . S
C1162 C377 2.909 1_565 S
C1177 C205 2.873 . S
C1189 C137 2.892 1_655 S
C1204 C241 2.891 1_455 S
C1216 C173 2.910 1_565 S
C1231 C260 0.617 . S
C1243 C22 0.636 . S
C1258 C287 0.449 . S
C1270 C49 0.741 . S
C1285 C328 0.620 . S
C1297 C90 0.618 . S
C1312 C355 0.447 . S
C1324 C117 0.755 . S
C1339 C396 0.450 . S
C1351 C158 0.733 . S
C1366 C219 0.458 . S
C1378 C185 0.795 . S
C1393 C226 0.578 . S
C1405 C192 0.526 . S
C1420 C253 0.809 . S
C1432 C15 0.496 . S
C1447 C56 0.450 . S
C1459 C294 0.736 . S
C1474 C83 0.447 . S
C1486 C321 0.752 . S
C1501 C362 0.627 . S
C1513 C124 0.496 . S
C1528 C151 0.476 . S
C1540 C389 0.662 . S
