# Generated by pormake.
# Topology fcp, (5)-cn, num edge types: 1
# Building blocks:
#     Node 0, Type 0, BuildingBlock: XOMCOT_clean_sbu_1, # of connection points: 5
#     Node 1, Type 0, BuildingBlock: XOMCOT_clean_sbu_1, # of connection points: 5
#     Node 2, Type 0, BuildingBlock: XOMCOT_clean_sbu_1, # of connection points: 5
#     Node 3, Type 0, BuildingBlock: XOMCOT_clean_sbu_1, # of connection points: 5
#     Node 4, Type 0, BuildingBlock: XOMCOT_clean_sbu_1, # of connection points: 5
#     Node 5, Type 0, BuildingBlock: XOMCOT_clean_sbu_1, # of connection points: 5
#     Node 6, Type 0, BuildingBlock: XOMCOT_clean_sbu_1, # of connection points: 5
#     Node 7, Type 0, BuildingBlock: XOMCOT_clean_sbu_1, # of connection points: 5
#     Node 8, Type 0, BuildingBlock: XOMCOT_clean_sbu_1, # of connection points: 5
#     Node 9, Type 0, BuildingBlock: XOMCOT_clean_sbu_1, # of connection points: 5
#     Node 10, Type 0, BuildingBlock: XOMCOT_clean_sbu_1, # of connection points: 5
#     Node 11, Type 0, BuildingBlock: XOMCOT_clean_sbu_1, # of connection points: 5
#     Node 12, Type 0, BuildingBlock: XOMCOT_clean_sbu_1, # of connection points: 5
#     Node 13, Type 0, BuildingBlock: XOMCOT_clean_sbu_1, # of connection points: 5
#     Node 14, Type 0, BuildingBlock: XOMCOT_clean_sbu_1, # of connection points: 5
#     Node 15, Type 0, BuildingBlock: XOMCOT_clean_sbu_1, # of connection points: 5
#     Node 16, Type 0, BuildingBlock: XOMCOT_clean_sbu_1, # of connection points: 5
#     Node 17, Type 0, BuildingBlock: XOMCOT_clean_sbu_1, # of connection points: 5
#     Node 18, Type 0, BuildingBlock: XOMCOT_clean_sbu_1, # of connection points: 5
#     Node 19, Type 0, BuildingBlock: XOMCOT_clean_sbu_1, # of connection points: 5
#     Node 20, Type 0, BuildingBlock: XOMCOT_clean_sbu_1, # of connection points: 5
#     Node 21, Type 0, BuildingBlock: XOMCOT_clean_sbu_1, # of connection points: 5
#     Node 22, Type 0, BuildingBlock: XOMCOT_clean_sbu_1, # of connection points: 5
#     Node 23, Type 0, BuildingBlock: XOMCOT_clean_sbu_1, # of connection points: 5
#     Edge 24, Type (0, 0), BuildingBlock: XUDNAN_clean_linker_2, # of connection points: 2
#     Edge 25, Type (0, 0), BuildingBlock: XUDNAN_clean_linker_2, # of connection points: 2
#     Edge 26, Type (0, 0), BuildingBlock: XUDNAN_clean_linker_2, # of connection points: 2
#     Edge 27, Type (0, 0), BuildingBlock: XUDNAN_clean_linker_2, # of connection points: 2
#     Edge 28, Type (0, 0), BuildingBlock: XUDNAN_clean_linker_2, # of connection points: 2
#     Edge 29, Type (0, 0), BuildingBlock: XUDNAN_clean_linker_2, # of connection points: 2
#     Edge 30, Type (0, 0), BuildingBlock: XUDNAN_clean_linker_2, # of connection points: 2
#     Edge 31, Type (0, 0), BuildingBlock: XUDNAN_clean_linker_2, # of connection points: 2
#     Edge 32, Type (0, 0), BuildingBlock: XUDNAN_clean_linker_2, # of connection points: 2
#     Edge 33, Type (0, 0), BuildingBlock: XUDNAN_clean_linker_2, # of connection points: 2
#     Edge 34, Type (0, 0), BuildingBlock: XUDNAN_clean_linker_2, # of connection points: 2
#     Edge 35, Type (0, 0), BuildingBlock: XUDNAN_clean_linker_2, # of connection points: 2
#     Edge 36, Type (0, 0), BuildingBlock: XUDNAN_clean_linker_2, # of connection points: 2
#     Edge 37, Type (0, 0), BuildingBlock: XUDNAN_clean_linker_2, # of connection points: 2
#     Edge 38, Type (0, 0), BuildingBlock: XUDNAN_clean_linker_2, # of connection points: 2
#     Edge 39, Type (0, 0), BuildingBlock: XUDNAN_clean_linker_2, # of connection points: 2
#     Edge 40, Type (0, 0), BuildingBlock: XUDNAN_clean_linker_2, # of connection points: 2
#     Edge 41, Type (0, 0), BuildingBlock: XUDNAN_clean_linker_2, # of connection points: 2
#     Edge 42, Type (0, 0), BuildingBlock: XUDNAN_clean_linker_2, # of connection points: 2
#     Edge 43, Type (0, 0), BuildingBlock: XUDNAN_clean_linker_2, # of connection points: 2
#     Edge 44, Type (0, 0), BuildingBlock: XUDNAN_clean_linker_2, # of connection points: 2
#     Edge 45, Type (0, 0), BuildingBlock: XUDNAN_clean_linker_2, # of connection points: 2
#     Edge 46, Type (0, 0), BuildingBlock: XUDNAN_clean_linker_2, # of connection points: 2
#     Edge 47, Type (0, 0), BuildingBlock: XUDNAN_clean_linker_2, # of connection points: 2
#     Edge 48, Type (0, 0), BuildingBlock: XUDNAN_clean_linker_2, # of connection points: 2
#     Edge 49, Type (0, 0), BuildingBlock: XUDNAN_clean_linker_2, # of connection points: 2
#     Edge 50, Type (0, 0), BuildingBlock: XUDNAN_clean_linker_2, # of connection points: 2
#     Edge 51, Type (0, 0), BuildingBlock: XUDNAN_clean_linker_2, # of connection points: 2
#     Edge 52, Type (0, 0), BuildingBlock: XUDNAN_clean_linker_2, # of connection points: 2
#     Edge 53, Type (0, 0), BuildingBlock: XUDNAN_clean_linker_2, # of connection points: 2
#     Edge 54, Type (0, 0), BuildingBlock: XUDNAN_clean_linker_2, # of connection points: 2
#     Edge 55, Type (0, 0), BuildingBlock: XUDNAN_clean_linker_2, # of connection points: 2
#     Edge 56, Type (0, 0), BuildingBlock: XUDNAN_clean_linker_2, # of connection points: 2
#     Edge 57, Type (0, 0), BuildingBlock: XUDNAN_clean_linker_2, # of connection points: 2
#     Edge 58, Type (0, 0), BuildingBlock: XUDNAN_clean_linker_2, # of connection points: 2
#     Edge 59, Type (0, 0), BuildingBlock: XUDNAN_clean_linker_2, # of connection points: 2
#     Edge 60, Type (0, 0), BuildingBlock: XUDNAN_clean_linker_2, # of connection points: 2
#     Edge 61, Type (0, 0), BuildingBlock: XUDNAN_clean_linker_2, # of connection points: 2
#     Edge 62, Type (0, 0), BuildingBlock: XUDNAN_clean_linker_2, # of connection points: 2
#     Edge 63, Type (0, 0), BuildingBlock: XUDNAN_clean_linker_2, # of connection points: 2
#     Edge 64, Type (0, 0), BuildingBlock: XUDNAN_clean_linker_2, # of connection points: 2
#     Edge 65, Type (0, 0), BuildingBlock: XUDNAN_clean_linker_2, # of connection points: 2
#     Edge 66, Type (0, 0), BuildingBlock: XUDNAN_clean_linker_2, # of connection points: 2
#     Edge 67, Type (0, 0), BuildingBlock: XUDNAN_clean_linker_2, # of connection points: 2
#     Edge 68, Type (0, 0), BuildingBlock: XUDNAN_clean_linker_2, # of connection points: 2
#     Edge 69, Type (0, 0), BuildingBlock: XUDNAN_clean_linker_2, # of connection points: 2
#     Edge 70, Type (0, 0), BuildingBlock: XUDNAN_clean_linker_2, # of connection points: 2
#     Edge 71, Type (0, 0), BuildingBlock: XUDNAN_clean_linker_2, # of connection points: 2
#     Edge 72, Type (0, 0), BuildingBlock: XUDNAN_clean_linker_2, # of connection points: 2
#     Edge 73, Type (0, 0), BuildingBlock: XUDNAN_clean_linker_2, # of connection points: 2
#     Edge 74, Type (0, 0), BuildingBlock: XUDNAN_clean_linker_2, # of connection points: 2
#     Edge 75, Type (0, 0), BuildingBlock: XUDNAN_clean_linker_2, # of connection points: 2
#     Edge 76, Type (0, 0), BuildingBlock: XUDNAN_clean_linker_2, # of connection points: 2
#     Edge 77, Type (0, 0), BuildingBlock: XUDNAN_clean_linker_2, # of connection points: 2
#     Edge 78, Type (0, 0), BuildingBlock: XUDNAN_clean_linker_2, # of connection points: 2
#     Edge 79, Type (0, 0), BuildingBlock: XUDNAN_clean_linker_2, # of connection points: 2
#     Edge 80, Type (0, 0), BuildingBlock: XUDNAN_clean_linker_2, # of connection points: 2
#     Edge 81, Type (0, 0), BuildingBlock: XUDNAN_clean_linker_2, # of connection points: 2
#     Edge 82, Type (0, 0), BuildingBlock: XUDNAN_clean_linker_2, # of connection points: 2
#     Edge 83, Type (0, 0), BuildingBlock: XUDNAN_clean_linker_2, # of connection points: 2
# Relax obj value: 0.100
# Max RMSD: 0.138
# Mean RMSD: 0.138
data_MOF--net-fcp--node1-XOMCOT_clean_sbu_1--edge1-XUDNAN_clean_linker_2
_symmetry_space_group_name_H-M    P1
_symmetry_Int_Tables_number       1
_symmetry_cell_setting            triclinic
loop_
_symmetry_equiv_pos_as_xyz
'x, y, z'
_cell_length_a     51.353521
_cell_length_b     51.421653
_cell_length_c     51.450577
_cell_angle_alpha  90.002986
_cell_angle_beta   89.922056
_cell_angle_gamma 90.108794
loop_
_atom_site_label
_atom_site_type_symbol
_atom_site_fract_x
_atom_site_fract_y
_atom_site_fract_z
_atom_type_partial_charge
C0 C 0.03833 0.32844 0.1792 0.0
C1 C 0.01842 0.33603 0.19541 0.0
N2 N 0.02694 0.35595 0.21021 0.0
N3 N 0.05934 0.34348 0.18364 0.0
C4 C 0.0519 0.35999 0.2027 0.0
H5 H 0.0376 0.31294 0.16501 0.0
Co6 Co 0.09068 0.34042 0.16575 0.0
C7 C 0.11178 0.39495 0.16799 0.0
O8 O 0.11603 0.39573 0.14286 0.0
N9 N 0.12293 0.33657 0.14721 0.0
C10 C 0.1531 0.33618 0.11583 0.0
C11 C 0.12927 0.34563 0.12326 0.0
C12 C 0.14385 0.32187 0.15389 0.0
N13 N 0.16222 0.32124 0.13512 0.0
O14 O 0.10587 0.32523 0.19607 0.0
H15 H 0.11724 0.35792 0.11125 0.0
H16 H 0.14537 0.31079 0.17164 0.0
O17 O 0.10168 0.37471 0.17831 0.0
C18 C 0.10192 0.30088 0.19856 0.0
O19 O 0.08884 0.28866 0.18031 0.0
N20 N 0.07398 0.35335 0.13599 0.0
C21 C 0.04708 0.36535 0.09036 0.0
C22 C 0.0491 0.3836 0.11062 0.0
C23 C 0.06226 0.37703 0.13354 0.0
C24 C 0.07082 0.3349 0.11723 0.0
C25 C 0.05799 0.34063 0.09409 0.0
H26 H 0.0626 0.39078 0.14941 0.0
H27 H 0.07889 0.3157 0.12011 0.0
H28 H 0.06444 0.37486 0.21071 0.0
H29 H 0.99931 0.32719 0.19646 0.0
H30 H 0.1628 0.33964 0.09744 0.0
H31 H 0.04013 0.40257 0.10903 0.0
H32 H 0.05697 0.32583 0.07916 0.0
C33 C 0.81969 0.46598 0.34648 0.0
C34 C 0.81976 0.48869 0.33238 0.0
N35 N 0.83774 0.48664 0.31337 0.0
N36 N 0.83763 0.44969 0.33655 0.0
C37 C 0.84827 0.46273 0.31631 0.0
H38 H 0.80732 0.46151 0.36292 0.0
Co39 Co 0.84324 0.41595 0.34847 0.0
C40 C 0.90175 0.41703 0.33975 0.0
O41 O 0.90712 0.41942 0.36456 0.0
N42 N 0.84772 0.38131 0.35983 0.0
C43 C 0.86224 0.34278 0.37319 0.0
C44 C 0.86909 0.36797 0.36725 0.0
C45 C 0.82814 0.36374 0.3617 0.0
N46 N 0.83641 0.3401 0.36964 0.0
O47 O 0.82863 0.40297 0.31662 0.0
H48 H 0.8885 0.3757 0.36861 0.0
H49 H 0.80813 0.3682 0.35708 0.0
O50 O 0.87807 0.41542 0.33211 0.0
C51 C 0.80383 0.40325 0.3155 0.0
O52 O 0.79079 0.41209 0.33564 0.0
N53 N 0.85566 0.42947 0.38094 0.0
C54 C 0.86722 0.45098 0.42978 0.0
C55 C 0.87572 0.46309 0.40688 0.0
C56 C 0.8696 0.45216 0.38271 0.0
C57 C 0.84639 0.4181 0.40312 0.0
C58 C 0.85238 0.42817 0.42764 0.0
H59 H 0.87631 0.46194 0.36534 0.0
H60 H 0.83359 0.40146 0.40205 0.0
H61 H 0.86299 0.45465 0.30361 0.0
H62 H 0.80763 0.50549 0.33601 0.0
H63 H 0.87528 0.32777 0.38001 0.0
H64 H 0.88708 0.48084 0.40762 0.0
H65 H 0.84468 0.41864 0.44479 0.0
C66 C 0.97402 0.66528 0.16714 0.0
C67 C 0.99537 0.6609 0.18262 0.0
N68 N 0.9871 0.65733 0.20721 0.0
N69 N 0.95218 0.66405 0.18172 0.0
C70 C 0.9609 0.65987 0.20619 0.0
H71 H 0.97459 0.66918 0.14652 0.0
Co72 Co 0.91768 0.66876 0.17044 0.0
C73 C 0.91602 0.6152 0.19622 0.0
O74 O 0.941 0.61031 0.19376 0.0
N75 N 0.8835 0.67439 0.1592 0.0
C76 C 0.84177 0.67106 0.14797 0.0
C77 C 0.86318 0.65779 0.1572 0.0
C78 C 0.8741 0.69738 0.15078 0.0
N79 N 0.84878 0.69596 0.14386 0.0
O80 O 0.9098 0.68665 0.20209 0.0
H81 H 0.86388 0.63727 0.16165 0.0
H82 H 0.88571 0.7149 0.14962 0.0
O83 O 0.9064 0.63623 0.18705 0.0
C84 C 0.91389 0.71108 0.20205 0.0
O85 O 0.92403 0.7219 0.18122 0.0
N86 N 0.92556 0.65323 0.13821 0.0
C87 C 0.94565 0.64059 0.08914 0.0
C88 C 0.94194 0.62131 0.10823 0.0
C89 C 0.93165 0.628 0.13262 0.0
C90 C 0.92774 0.67185 0.1195 0.0
C91 C 0.93738 0.66596 0.09487 0.0
H92 H 0.92968 0.61301 0.14701 0.0
H93 H 0.92309 0.69181 0.12415 0.0
H94 H 0.9481 0.6578 0.22279 0.0
H95 H 0.01546 0.6607 0.17624 0.0
H96 H 0.8228 0.66285 0.14382 0.0
H97 H 0.94796 0.60143 0.10487 0.0
H98 H 0.93894 0.68145 0.08071 0.0
C99 C 0.18098 0.53503 0.33619 0.0
C100 C 0.17494 0.5144 0.32019 0.0
N101 N 0.16244 0.52369 0.29913 0.0
N102 N 0.17202 0.55718 0.32542 0.0
C103 C 0.16103 0.54967 0.3028 0.0
H104 H 0.19141 0.53398 0.3544 0.0
Co105 Co 0.17508 0.59088 0.33829 0.0
C106 C 0.12137 0.61168 0.33451 0.0
O107 O 0.12352 0.62004 0.35857 0.0
N108 N 0.17885 0.6256 0.35025 0.0
C109 C 0.17955 0.66883 0.34708 0.0
C110 C 0.16991 0.6463 0.33674 0.0
C111 C 0.19495 0.63634 0.36818 0.0
N112 N 0.19561 0.66267 0.36674 0.0
O113 O 0.1915 0.6014 0.30643 0.0
H114 H 0.15847 0.64522 0.31916 0.0
H115 H 0.2077 0.62517 0.38051 0.0
O116 O 0.14036 0.59939 0.32402 0.0
C117 C 0.21626 0.60198 0.30826 0.0
O118 O 0.22692 0.59525 0.33047 0.0
N119 N 0.16107 0.57915 0.3705 0.0
C120 C 0.14831 0.55245 0.41664 0.0
C121 C 0.13028 0.55479 0.39621 0.0
C122 C 0.13732 0.56734 0.37309 0.0
C123 C 0.17886 0.57704 0.39002 0.0
C124 C 0.17291 0.56401 0.41318 0.0
H125 H 0.12406 0.56621 0.35689 0.0
H126 H 0.19858 0.58359 0.38689 0.0
H127 H 0.15217 0.56308 0.28923 0.0
H128 H 0.18001 0.49424 0.32345 0.0
H129 H 0.17581 0.68819 0.33977 0.0
H130 H 0.11104 0.54627 0.39753 0.0
H131 H 0.18813 0.56185 0.42753 0.0
C132 C 0.03509 0.69504 0.84878 0.0
C133 C 0.01164 0.69205 0.83624 0.0
N134 N 0.01479 0.67468 0.81689 0.0
N135 N 0.0529 0.67942 0.83759 0.0
C136 C 0.04007 0.66753 0.8179 0.0
H137 H 0.03876 0.70707 0.86563 0.0
Co138 Co 0.08648 0.67508 0.85054 0.0
C139 C 0.09252 0.61863 0.83167 0.0
O140 O 0.09051 0.60692 0.85426 0.0
N141 N 0.12064 0.67156 0.86348 0.0
C142 C 0.15735 0.6571 0.88126 0.0
C143 C 0.13252 0.65053 0.87373 0.0
C144 C 0.13862 0.69075 0.8654 0.0
N145 N 0.16121 0.68245 0.87598 0.0
O146 O 0.09982 0.69426 0.82143 0.0
H147 H 0.12358 0.63182 0.87667 0.0
H148 H 0.13518 0.71052 0.85924 0.0
O149 O 0.09088 0.64339 0.83005 0.0
C150 C 0.09836 0.719 0.82166 0.0
O151 O 0.08796 0.73053 0.84195 0.0
N152 N 0.07253 0.65766 0.87997 0.0
C153 C 0.04616 0.64208 0.92524 0.0
C154 C 0.03947 0.63174 0.90084 0.0
C155 C 0.05279 0.63984 0.87849 0.0
C156 C 0.0794 0.66776 0.9035 0.0
C157 C 0.06694 0.65986 0.92632 0.0
H158 H 0.04633 0.63271 0.85982 0.0
H159 H 0.09401 0.68288 0.90462 0.0
H160 H 0.04862 0.6529 0.80545 0.0
H161 H 0.99352 0.70149 0.84133 0.0
H162 H 0.17115 0.64434 0.89071 0.0
H163 H 0.02322 0.61847 0.89873 0.0
H164 H 0.07318 0.66825 0.94458 0.0
C165 C 0.17941 0.48229 0.66565 0.0
C166 C 0.17344 0.5053 0.67759 0.0
N167 N 0.15789 0.50018 0.69801 0.0
N168 N 0.16733 0.4625 0.67801 0.0
C169 C 0.15516 0.474 0.6984 0.0
H170 H 0.19185 0.48026 0.64886 0.0
Co171 Co 0.16953 0.42799 0.66594 0.0
C172 C 0.11324 0.42652 0.68794 0.0
O173 O 0.10632 0.45071 0.68355 0.0
N174 N 0.17239 0.39398 0.65371 0.0
C175 C 0.1639 0.356 0.63478 0.0
C176 C 0.15406 0.3801 0.64095 0.0
C177 C 0.19311 0.37787 0.65532 0.0
N178 N 0.18833 0.35471 0.64396 0.0
O179 O 0.18572 0.41745 0.69794 0.0
H180 H 0.13472 0.38702 0.63644 0.0
H181 H 0.21138 0.38303 0.66444 0.0
O182 O 0.13579 0.41846 0.68112 0.0
C183 C 0.20845 0.42582 0.70336 0.0
O184 O 0.21943 0.44308 0.68803 0.0
N185 N 0.15581 0.43838 0.63342 0.0
C186 C 0.14518 0.45852 0.58404 0.0
C187 C 0.12484 0.45161 0.60098 0.0
C188 C 0.13057 0.44158 0.6257 0.0
C189 C 0.17563 0.44342 0.6165 0.0
C190 C 0.17083 0.45392 0.59196 0.0
H191 H 0.11465 0.43635 0.63819 0.0
H192 H 0.19551 0.44008 0.62255 0.0
H193 H 0.144 0.46358 0.71289 0.0
H194 H 0.1799 0.52443 0.67156 0.0
H195 H 0.15388 0.34051 0.62461 0.0
H196 H 0.10472 0.45444 0.59538 0.0
H197 H 0.18708 0.45835 0.57926 0.0
C198 C 0.9694 0.31882 0.83577 0.0
C199 C 0.99148 0.32004 0.82065 0.0
N200 N 0.98818 0.33874 0.80259 0.0
N201 N 0.9522 0.33667 0.82737 0.0
C202 C 0.96414 0.34848 0.80704 0.0
H203 H 0.96609 0.30588 0.85202 0.0
Co204 Co 0.9192 0.34165 0.84193 0.0
C205 C 0.91866 0.39984 0.83189 0.0
O206 O 0.92322 0.40613 0.85618 0.0
N207 N 0.88544 0.34579 0.85599 0.0
C208 C 0.84815 0.36049 0.87246 0.0
C209 C 0.87294 0.36715 0.8648 0.0
C210 C 0.86783 0.32639 0.85891 0.0
N211 N 0.84488 0.33479 0.86866 0.0
O212 O 0.90396 0.32598 0.81169 0.0
H213 H 0.88104 0.38639 0.86599 0.0
H214 H 0.87175 0.30643 0.85379 0.0
O215 O 0.91657 0.37599 0.82509 0.0
C216 C 0.90504 0.30123 0.81192 0.0
O217 O 0.91599 0.28946 0.83172 0.0
N218 N 0.93488 0.35478 0.8729 0.0
C219 C 0.95972 0.36667 0.92002 0.0
C220 C 0.96956 0.37599 0.89631 0.0
C221 C 0.95713 0.3695 0.873 0.0
C222 C 0.92565 0.34485 0.89577 0.0
C223 C 0.93739 0.35095 0.91946 0.0
H224 H 0.96545 0.37641 0.85497 0.0
H225 H 0.90943 0.33147 0.89584 0.0
H226 H 0.95531 0.36371 0.79555 0.0
H227 H 0.0088 0.30835 0.8231 0.0
H228 H 0.83381 0.37359 0.88056 0.0
H229 H 0.98717 0.38759 0.89564 0.0
H230 H 0.92911 0.34309 0.93717 0.0
C231 C 0.83171 0.53867 0.67082 0.0
C232 C 0.83898 0.5178 0.68591 0.0
N233 N 0.85403 0.52656 0.70557 0.0
N234 N 0.84221 0.56052 0.68075 0.0
C235 C 0.8553 0.55262 0.70206 0.0
H236 H 0.82036 0.53788 0.65315 0.0
Co237 Co 0.8411 0.59347 0.66572 0.0
C238 C 0.89627 0.61086 0.68166 0.0
O239 O 0.90683 0.61352 0.65856 0.0
N240 N 0.83985 0.62692 0.65057 0.0
C241 C 0.84791 0.66168 0.6259 0.0
C242 C 0.85642 0.63735 0.63293 0.0
C243 C 0.8216 0.64558 0.65414 0.0
N244 N 0.82612 0.66681 0.6394 0.0
O245 O 0.82179 0.60587 0.69521 0.0
H246 H 0.87331 0.62771 0.62498 0.0
H247 H 0.80483 0.64349 0.66669 0.0
O248 O 0.87268 0.60332 0.68396 0.0
C249 C 0.79797 0.59901 0.69645 0.0
O250 O 0.7884 0.58463 0.67762 0.0
N251 N 0.85827 0.57995 0.63631 0.0
C252 C 0.87278 0.55107 0.59248 0.0
C253 C 0.88833 0.55118 0.61499 0.0
C254 C 0.8806 0.56558 0.63683 0.0
C255 C 0.84318 0.58036 0.61453 0.0
C256 C 0.85021 0.5664 0.59236 0.0
H257 H 0.89161 0.56381 0.65461 0.0
H258 H 0.8248 0.5906 0.61481 0.0
H259 H 0.8659 0.56583 0.71449 0.0
H260 H 0.83427 0.49769 0.68197 0.0
H261 H 0.85695 0.67458 0.6119 0.0
H262 H 0.90582 0.53951 0.61608 0.0
H263 H 0.83715 0.5664 0.57586 0.0
C264 C 0.1654 0.0439 0.32331 0.0
C265 C 0.17571 0.01957 0.32741 0.0
N266 N 0.19487 0.0216 0.34519 0.0
N267 N 0.17782 0.06119 0.33857 0.0
C268 C 0.19597 0.04712 0.3514 0.0
H269 H 0.14936 0.04865 0.31057 0.0
Co270 Co 0.16865 0.09616 0.34111 0.0
C271 C 0.18639 0.10143 0.39797 0.0
O272 O 0.16341 0.10049 0.40916 0.0
N273 N 0.15981 0.13162 0.34287 0.0
C274 C 0.14881 0.17143 0.35574 0.0
C275 C 0.15369 0.14639 0.3637 0.0
C276 C 0.15808 0.1481 0.32244 0.0
N277 N 0.15159 0.17248 0.32976 0.0
O278 O 0.19971 0.10528 0.32256 0.0
H279 H 0.15219 0.13954 0.3834 0.0
H280 H 0.16157 0.14234 0.30254 0.0
O281 O 0.18846 0.0997 0.37327 0.0
C282 C 0.19986 0.10329 0.29788 0.0
O283 O 0.17882 0.09474 0.2861 0.0
N284 N 0.13702 0.08657 0.35785 0.0
C285 C 0.08798 0.06778 0.37268 0.0
C286 C 0.11073 0.05714 0.38326 0.0
C287 C 0.1351 0.06685 0.37563 0.0
C288 C 0.11495 0.09679 0.34719 0.0
C289 C 0.09031 0.08812 0.35475 0.0
H290 H 0.15244 0.05778 0.38327 0.0
H291 H 0.11628 0.11102 0.3318 0.0
H292 H 0.209 0.05516 0.36584 0.0
H293 H 0.16938 1.00172 0.31821 0.0
H294 H 0.143 0.18746 0.36808 0.0
H295 H 0.10971 0.04116 0.39695 0.0
H296 H 0.07323 0.09636 0.3456 0.0
C297 C 0.54632 0.34541 0.19229 0.0
C298 C 0.52249 0.33318 0.19047 0.0
N299 N 0.52456 0.31345 0.17332 0.0
N300 N 0.56334 0.33353 0.17629 0.0
C301 C 0.54956 0.31406 0.16511 0.0
H302 H 0.55104 0.36181 0.20458 0.0
Co303 Co 0.59868 0.34151 0.17277 0.0
C304 C 0.59916 0.32769 0.11468 0.0
O305 O 0.59861 0.35128 0.10492 0.0
N306 N 0.63459 0.34858 0.16986 0.0
C307 C 0.67447 0.35885 0.15632 0.0
C308 C 0.64913 0.35443 0.14877 0.0
C309 C 0.65155 0.34967 0.18994 0.0
N310 N 0.67598 0.35591 0.18229 0.0
O311 O 0.60704 0.30893 0.18867 0.0
H312 H 0.64187 0.35622 0.12922 0.0
H313 H 0.64594 0.34629 0.2099 0.0
O314 O 0.5993 0.32426 0.13925 0.0
C315 C 0.60593 0.30854 0.21341 0.0
O316 O 0.59858 0.32973 0.22566 0.0
N317 N 0.59008 0.37502 0.15909 0.0
C318 C 0.57168 0.42634 0.15472 0.0
C319 C 0.55895 0.40575 0.14192 0.0
C320 C 0.5686 0.3802 0.1442 0.0
C321 C 0.60321 0.39513 0.17045 0.0
C322 C 0.59504 0.42072 0.16763 0.0
H323 H 0.5576 0.3644 0.1357 0.0
H324 H 0.61921 0.39155 0.18349 0.0
H325 H 0.55785 0.30008 0.15179 0.0
H326 H 0.50499 0.33849 0.20092 0.0
H327 H 0.69031 0.36468 0.1437 0.0
H328 H 0.54082 0.40897 0.13173 0.0
H329 H 0.60621 0.43583 0.17715 0.0
C330 C 0.8396 0.97642 0.32971 0.0
C331 C 0.82279 0.996 0.33677 0.0
N332 N 0.80567 0.98641 0.35423 0.0
N333 N 0.83321 0.95454 0.34263 0.0
C334 C 0.81237 0.96116 0.35727 0.0
H335 H 0.85577 0.97809 0.3163 0.0
Co336 Co 0.85153 0.9232 0.34087 0.0
C337 C 0.84547 0.90591 0.39673 0.0
O338 O 0.87069 0.90554 0.40059 0.0
N339 N 0.87012 0.89113 0.33865 0.0
C340 C 0.8977 0.85827 0.3454 0.0
C341 C 0.89074 0.88291 0.35285 0.0
C342 C 0.86562 0.87111 0.32204 0.0
N343 N 0.8819 0.85091 0.32602 0.0
O344 O 0.82229 0.90745 0.32322 0.0
H345 H 0.90098 0.89424 0.36722 0.0
H346 H 0.85068 0.87107 0.30727 0.0
O347 O 0.83641 0.91246 0.37453 0.0
C348 C 0.81968 0.91474 0.29965 0.0
O349 O 0.83639 0.93162 0.29012 0.0
N350 N 0.88054 0.94023 0.35592 0.0
C351 C 0.92339 0.97096 0.36994 0.0
C352 C 0.90071 0.9706 0.38525 0.0
C353 C 0.87936 0.9554 0.3777 0.0
C354 C 0.90213 0.94094 0.34045 0.0
C355 C 0.92391 0.95572 0.34734 0.0
H356 H 0.86158 0.95649 0.38891 0.0
H357 H 0.90225 0.93036 0.32228 0.0
H358 H 0.80273 0.94788 0.37044 0.0
H359 H 0.82317 0.01573 0.32948 0.0
H360 H 0.9137 0.84692 0.35305 0.0
H361 H 0.89926 0.98234 0.40266 0.0
H362 H 0.94057 0.95606 0.33441 0.0
C363 C 0.48845 0.67445 0.18998 0.0
C364 C 0.50899 0.69106 0.1849 0.0
N365 N 0.49983 0.71171 0.17164 0.0
N366 N 0.46649 0.68439 0.17964 0.0
C367 C 0.47402 0.70723 0.16892 0.0
H368 H 0.48953 0.65603 0.20007 0.0
Co369 Co 0.43327 0.66909 0.17876 0.0
C370 C 0.42425 0.68476 0.12122 0.0
O371 O 0.42805 0.66269 0.10895 0.0
N372 N 0.39958 0.6543 0.17768 0.0
C373 C 0.36364 0.63475 0.16341 0.0
C374 C 0.38874 0.64175 0.15733 0.0
C375 C 0.38068 0.65431 0.1961 0.0
N376 N 0.35851 0.64273 0.1878 0.0
O377 O 0.41919 0.69913 0.19568 0.0
H378 H 0.39851 0.63754 0.13925 0.0
H379 H 0.38293 0.66301 0.2151 0.0
O380 O 0.4264 0.68599 0.14588 0.0
C381 C 0.4215 0.7006 0.22029 0.0
O382 O 0.43389 0.68195 0.23257 0.0
N383 N 0.44769 0.63858 0.1641 0.0
C384 C 0.47589 0.59275 0.15646 0.0
C385 C 0.48016 0.61443 0.1404 0.0
C386 C 0.46587 0.63739 0.14468 0.0
C387 C 0.44285 0.61727 0.17914 0.0
C388 C 0.4564 0.59416 0.17541 0.0
H389 H 0.47099 0.65472 0.13392 0.0
H390 H 0.42963 0.61867 0.19545 0.0
H391 H 0.46089 0.72012 0.15876 0.0
H392 H 0.52905 0.68825 0.19067 0.0
H393 H 0.35034 0.62421 0.15095 0.0
H394 H 0.49568 0.61429 0.12614 0.0
H395 H 0.45298 0.57805 0.18857 0.0
C396 C 0.16554 0.98195 0.69399 0.0
C397 C 0.17891 1.00495 0.69092 0.0
N398 N 0.20063 1.00013 0.67703 0.0
N399 N 0.17883 0.96269 0.68222 0.0
C400 C 0.20012 0.97436 0.67196 0.0
H401 H 0.14734 0.97934 0.70428 0.0
Co402 Co 0.16875 0.92787 0.68226 0.0
C403 C 0.20698 0.90432 0.64755 0.0
O404 O 0.21242 0.88821 0.66661 0.0
N405 N 0.1585 0.89286 0.68241 0.0
C406 C 0.14541 0.85389 0.66911 0.0
C407 C 0.1511 0.87886 0.66149 0.0
C408 C 0.15679 0.87609 0.7026 0.0
N409 N 0.14904 0.85211 0.69498 0.0
O410 O 0.19788 0.9199 0.70441 0.0
H411 H 0.14996 0.88637 0.64189 0.0
H412 H 0.16151 0.88125 0.72243 0.0
O413 O 0.18945 0.92166 0.65083 0.0
C414 C 0.19477 0.92738 0.72783 0.0
O415 O 0.1728 0.93871 0.73433 0.0
N416 N 0.13908 0.93667 0.66294 0.0
C417 C 0.09246 0.95806 0.64472 0.0
C418 C 0.11584 0.96129 0.63073 0.0
C419 C 0.13906 0.95041 0.64022 0.0
C420 C 0.11646 0.93247 0.67613 0.0
C421 C 0.09297 0.94256 0.66718 0.0
H422 H 0.15719 0.9544 0.63026 0.0
H423 H 0.11684 0.92218 0.69446 0.0
H424 H 0.21526 0.96411 0.66151 0.0
H425 H 0.173 0.0238 0.69816 0.0
H426 H 0.13875 0.83834 0.65658 0.0
H427 H 0.11654 0.97328 0.61345 0.0
H428 H 0.07547 0.93893 0.67838 0.0
C429 C 0.47539 0.34878 0.83415 0.0
C430 C 0.49602 0.33238 0.83896 0.0
N431 N 0.48666 0.31037 0.84971 0.0
N432 N 0.45313 0.33732 0.84216 0.0
C433 C 0.46062 0.31384 0.85127 0.0
H434 H 0.47655 0.36791 0.82549 0.0
Co435 Co 0.41967 0.35153 0.84097 0.0
C436 C 0.40179 0.33661 0.89611 0.0
O437 O 0.3949 0.35965 0.90464 0.0
N438 N 0.38561 0.36591 0.8394 0.0
C439 C 0.35112 0.39162 0.84537 0.0
C440 C 0.37524 0.38471 0.85465 0.0
C441 C 0.36704 0.36157 0.82117 0.0
N442 N 0.34601 0.37693 0.82442 0.0
O443 O 0.40777 0.32119 0.82301 0.0
H444 H 0.38494 0.39388 0.87085 0.0
H445 H 0.36917 0.3483 0.80504 0.0
O446 O 0.4111 0.33393 0.87325 0.0
C447 C 0.4123 0.31945 0.79874 0.0
O448 O 0.4247 0.33855 0.78709 0.0
N449 N 0.43239 0.3818 0.85695 0.0
C450 C 0.45566 0.42873 0.87153 0.0
C451 C 0.45599 0.40717 0.88834 0.0
C452 C 0.44454 0.38362 0.88049 0.0
C453 C 0.43202 0.4025 0.84045 0.0
C454 C 0.44322 0.42615 0.84743 0.0
H455 H 0.44638 0.3667 0.89278 0.0
H456 H 0.42326 0.40043 0.82144 0.0
H457 H 0.44724 0.29961 0.85912 0.0
H458 H 0.51627 0.33617 0.83446 0.0
H459 H 0.3385 0.40658 0.85312 0.0
H460 H 0.46589 0.40819 0.90688 0.0
H461 H 0.44237 0.44224 0.83387 0.0
C462 C 0.8462 0.02988 0.67403 0.0
C463 C 0.82942 0.00973 0.66818 0.0
N464 N 0.80756 0.01989 0.65785 0.0
N465 N 0.83505 0.05256 0.66714 0.0
C466 C 0.81154 0.04585 0.65752 0.0
H467 H 0.8652 0.02816 0.68291 0.0
Co468 Co 0.84792 0.0863 0.67129 0.0
C469 C 0.83159 0.10415 0.61669 0.0
O470 O 0.85475 0.10484 0.60589 0.0
N471 N 0.86016 0.12064 0.67555 0.0
C472 C 0.87798 0.15962 0.66914 0.0
C473 C 0.87365 0.13546 0.65852 0.0
C474 C 0.85657 0.13629 0.69638 0.0
N475 N 0.86708 0.16016 0.69294 0.0
O476 O 0.81776 0.09463 0.69198 0.0
H477 H 0.88026 0.12914 0.63964 0.0
H478 H 0.84662 0.13028 0.71391 0.0
O479 O 0.82893 0.09733 0.64042 0.0
C480 C 0.8178 0.08395 0.71436 0.0
O481 O 0.83757 0.0691 0.72079 0.0
N482 N 0.87866 0.07675 0.65324 0.0
C483 C 0.92596 0.05372 0.63848 0.0
C484 C 0.90324 0.04993 0.62366 0.0
C485 C 0.8797 0.06148 0.63149 0.0
C486 C 0.90066 0.08091 0.66748 0.0
C487 C 0.92445 0.07021 0.66014 0.0
H488 H 0.86202 0.05669 0.62114 0.0
H489 H 0.8996 0.09164 0.68553 0.0
H490 H 0.79755 0.05986 0.65046 0.0
H491 H 0.83282 0.9893 0.67185 0.0
H492 H 0.88802 0.17567 0.65988 0.0
H493 H 0.90324 0.03696 0.60709 0.0
H494 H 0.94137 0.07411 0.67208 0.0
C495 C 0.55226 0.70155 0.8188 0.0
C496 C 0.53269 0.71816 0.82609 0.0
N497 N 0.53151 0.71857 0.85224 0.0
N498 N 0.56363 0.69166 0.8402 0.0
C499 C 0.5504 0.70218 0.86038 0.0
H500 H 0.55775 0.69681 0.79907 0.0
Co501 Co 0.59125 0.66845 0.8387 0.0
C502 C 0.62187 0.67592 0.88789 0.0
O503 O 0.63283 0.65296 0.8857 0.0
N504 N 0.61933 0.64455 0.8358 0.0
C505 C 0.6407 0.60838 0.82525 0.0
C506 C 0.61743 0.61839 0.83375 0.0
C507 C 0.64436 0.64974 0.82895 0.0
N508 N 0.65753 0.62816 0.82189 0.0
O509 O 0.6105 0.6936 0.81866 0.0
H510 H 0.59983 0.60718 0.83623 0.0
H511 H 0.65218 0.66919 0.8269 0.0
O512 O 0.60525 0.68345 0.871 0.0
C513 C 0.61269 0.68815 0.79458 0.0
O514 O 0.60299 0.66617 0.78586 0.0
N515 N 0.57076 0.64347 0.85611 0.0
C516 C 0.54153 0.59994 0.87089 0.0
C517 C 0.55751 0.61288 0.88892 0.0
C518 C 0.57188 0.63479 0.88119 0.0
C519 C 0.55393 0.63229 0.83896 0.0
C520 C 0.53919 0.61058 0.84589 0.0
H521 H 0.58425 0.64398 0.89529 0.0
H522 H 0.55296 0.63959 0.81926 0.0
H523 H 0.55463 0.69803 0.88056 0.0
H524 H 0.5199 0.72867 0.81312 0.0
H525 H 0.64439 0.58828 0.82019 0.0
H526 H 0.55977 0.60556 0.90852 0.0
H527 H 0.52653 0.60184 0.8315 0.0
C528 C 0.33342 0.16616 0.03802 0.0
C529 C 0.33755 0.17855 0.01482 0.0
N530 N 0.35148 0.20023 0.01939 0.0
N531 N 0.34517 0.17952 0.05732 0.0
C532 C 0.35526 0.20081 0.04539 0.0
H533 H 0.32252 0.14837 0.0405 0.0
Co534 Co 0.34531 0.16801 0.09203 0.0
C535 C 0.40013 0.19391 0.09076 0.0
O536 O 0.40695 0.18927 0.06658 0.0
N537 N 0.34493 0.15641 0.1263 0.0
C538 C 0.35766 0.14238 0.16504 0.0
C539 C 0.36566 0.1486 0.14032 0.0
C540 C 0.32448 0.15452 0.14278 0.0
N541 N 0.33175 0.14616 0.16663 0.0
O542 O 0.32751 0.19896 0.10258 0.0
H543 H 0.38542 0.14762 0.13308 0.0
H544 H 0.30477 0.15973 0.13753 0.0
O545 O 0.37822 0.18581 0.09942 0.0
C546 C 0.30376 0.20108 0.09584 0.0
O547 O 0.29334 0.18291 0.0812 0.0
N548 N 0.36063 0.13632 0.08164 0.0
C549 C 0.37264 0.08762 0.06064 0.0
C550 C 0.39247 0.10557 0.06648 0.0
C551 C 0.38603 0.12997 0.07699 0.0
C552 C 0.34149 0.11832 0.07786 0.0
C553 C 0.34695 0.09411 0.06698 0.0
H554 H 0.40148 0.14345 0.08117 0.0
H555 H 0.32153 0.12335 0.08232 0.0
H556 H 0.36573 0.21609 0.05536 0.0
H557 H 0.33105 0.17197 0.99591 0.0
H558 H 0.36999 0.13537 0.18057 0.0
H559 H 0.41264 0.10107 0.06232 0.0
H560 H 0.33114 0.08059 0.06343 0.0
C561 C 0.32198 0.84269 0.98513 0.0
C562 C 0.3281 0.83217 0.00891 0.0
N563 N 0.34739 0.81476 1.00547 0.0
N564 N 0.33749 0.83218 0.96681 0.0
C565 C 0.35259 0.815 0.97973 0.0
H566 H 0.30735 0.85732 0.98139 0.0
Co567 Co 0.3367 0.84179 0.93211 0.0
C568 C 0.39037 0.83028 0.91254 0.0
O569 O 0.39111 0.85253 0.89996 0.0
N570 N 0.3346 0.85114 0.89665 0.0
C571 C 0.33256 0.84582 0.85371 0.0
C572 C 0.3421 0.83595 0.87655 0.0
C573 C 0.31966 0.86966 0.88539 0.0
N574 N 0.31815 0.86695 0.85923 0.0
O575 O 0.31925 0.80999 0.9238 0.0
H576 H 0.35229 0.81768 0.87842 0.0
H577 H 0.30816 0.8834 0.89629 0.0
O578 O 0.37035 0.82441 0.92617 0.0
C579 C 0.29457 0.81125 0.92171 0.0
O580 O 0.28308 0.83369 0.92581 0.0
N581 N 0.3523 0.87396 0.94154 0.0
C582 C 0.36695 0.92073 0.96617 0.0
C583 C 0.38472 0.90016 0.96304 0.0
C584 C 0.3768 0.87676 0.95155 0.0
C585 C 0.33486 0.89376 0.94409 0.0
C586 C 0.34171 0.91718 0.95617 0.0
H587 H 0.39004 0.86057 0.95239 0.0
H588 H 0.31479 0.89065 0.93868 0.0
H589 H 0.3675 0.80331 0.97066 0.0
H590 H 0.31898 0.83688 0.02729 0.0
H591 H 0.33509 0.83722 0.83469 0.0
H592 H 0.40445 0.90155 0.97025 0.0
H593 H 0.32672 0.93168 0.95892 0.0
C594 C 0.34886 0.18943 0.53946 0.0
C595 C 0.33816 0.18447 0.51554 0.0
N596 N 0.3169 0.16944 0.51892 0.0
N597 N 0.33472 0.1773 0.55794 0.0
C598 C 0.31488 0.16592 0.54489 0.0
H599 H 0.36639 0.20052 0.54314 0.0
Co600 Co 0.34436 0.17683 0.593 0.0
C601 C 0.3212 0.12023 0.59094 0.0
O602 O 0.32492 0.11286 0.56678 0.0
N603 N 0.35392 0.17668 0.62796 0.0
C604 C 0.36661 0.16389 0.66716 0.0
C605 C 0.36147 0.15597 0.64217 0.0
C606 C 0.35493 0.19701 0.64457 0.0
N607 N 0.36252 0.18971 0.66863 0.0
O608 O 0.31191 0.19259 0.60258 0.0
H609 H 0.36334 0.13637 0.63478 0.0
H610 H 0.35002 0.21674 0.63913 0.0
O611 O 0.32854 0.14274 0.59851 0.0
C612 C 0.30846 0.2162 0.59588 0.0
O613 O 0.32598 0.22767 0.58119 0.0
N614 N 0.37747 0.16374 0.58363 0.0
C615 C 0.42629 0.16073 0.55973 0.0
C616 C 0.40712 0.14192 0.55464 0.0
C617 C 0.38266 0.14382 0.5668 0.0
C618 C 0.39665 0.1809 0.59015 0.0
C619 C 0.4212 0.17951 0.57878 0.0
H620 H 0.36741 0.13097 0.5606 0.0
H621 H 0.3923 0.19728 0.60256 0.0
H622 H 0.29973 0.15456 0.55411 0.0
H623 H 0.34573 0.19107 0.49703 0.0
H624 H 0.37339 0.15168 0.68288 0.0
H625 H 0.41017 0.1273 0.53979 0.0
H626 H 0.43549 0.19434 0.58341 0.0
C627 C 0.68082 0.17015 0.96887 0.0
C628 C 0.67333 0.18032 0.9924 0.0
N629 N 0.65488 0.19836 0.98807 0.0
N630 N 0.66688 0.18143 0.9498 0.0
C631 C 0.65143 0.19887 0.96204 0.0
H632 H 0.6953 0.15522 0.96583 0.0
Co633 Co 0.67007 0.17207 0.91512 0.0
C634 C 0.61688 0.17857 0.89345 0.0
O635 O 0.6187 0.15559 0.88242 0.0
N636 N 0.67448 0.1631 0.87968 0.0
C637 C 0.67793 0.16895 0.83684 0.0
C638 C 0.6673 0.17832 0.85948 0.0
C639 C 0.69012 0.14497 0.86869 0.0
N640 N 0.69243 0.148 0.84265 0.0
O641 O 0.68596 0.20492 0.90779 0.0
H642 H 0.65633 0.19616 0.86121 0.0
H643 H 0.70139 0.13111 0.87963 0.0
O644 O 0.63564 0.18713 0.90741 0.0
C645 C 0.71076 0.20436 0.90738 0.0
O646 O 0.7225 0.18221 0.9123 0.0
N647 N 0.65627 0.13879 0.92376 0.0
C648 C 0.6441 0.09024 0.94552 0.0
C649 C 0.62514 0.10972 0.9436 0.0
C650 C 0.63185 0.13416 0.93346 0.0
C651 C 0.67497 0.12011 0.92606 0.0
C652 C 0.6693 0.09572 0.93665 0.0
H653 H 0.61774 0.14959 0.93488 0.0
H654 H 0.69494 0.12476 0.92144 0.0
H655 H 0.63751 0.21123 0.95224 0.0
H656 H 0.68091 0.17493 0.01127 0.0
H657 H 0.67587 0.17752 0.81775 0.0
H658 H 0.60572 0.10656 0.95124 0.0
H659 H 0.6847 0.08147 0.93854 0.0
C660 C 0.67275 0.83553 0.53172 0.0
C661 C 0.68892 0.84217 0.51136 0.0
N662 N 0.70852 0.85688 0.52075 0.0
N663 N 0.68191 0.84629 0.5538 0.0
C664 C 0.70374 0.85906 0.54651 0.0
H665 H 0.65575 0.82312 0.53066 0.0
Co666 Co 0.66927 0.84169 0.58764 0.0
C667 C 0.67098 0.89923 0.60079 0.0
O668 O 0.64568 0.90263 0.59955 0.0
N669 N 0.65761 0.83643 0.62194 0.0
C670 C 0.64297 0.83946 0.66252 0.0
C671 C 0.64655 0.85253 0.63946 0.0
C672 C 0.66025 0.81366 0.63478 0.0
N673 N 0.65169 0.81492 0.65963 0.0
O674 O 0.70262 0.82873 0.5983 0.0
H675 H 0.64135 0.87249 0.63607 0.0
H676 H 0.66821 0.79641 0.6258 0.0
O677 O 0.68081 0.87682 0.59658 0.0
C678 C 0.7098 0.80681 0.58927 0.0
O679 O 0.69553 0.79545 0.57138 0.0
N680 N 0.63541 0.85218 0.57667 0.0
C681 C 0.58585 0.85562 0.55402 0.0
C682 C 0.60572 0.87301 0.54687 0.0
C683 C 0.63046 0.87088 0.55835 0.0
C684 C 0.61595 0.8357 0.58418 0.0
C685 C 0.59106 0.83759 0.57377 0.0
H686 H 0.64601 0.88332 0.55147 0.0
H687 H 0.61987 0.81978 0.59725 0.0
H688 H 0.71622 0.86927 0.56003 0.0
H689 H 0.68702 0.8357 0.49143 0.0
H690 H 0.63492 0.84769 0.68012 0.0
H691 H 0.60273 0.88703 0.53146 0.0
H692 H 0.57634 0.82392 0.58022 0.0
C693 C 0.67904 0.84495 0.02914 0.0
C694 C 0.67248 0.82829 0.00935 0.0
N695 N 0.66107 0.80714 0.01979 0.0
N696 N 0.67149 0.83464 0.05206 0.0
C697 C 0.66086 0.81137 0.04577 0.0
H698 H 0.68904 0.86333 0.02693 0.0
Co699 Co 0.67667 0.85072 0.08431 0.0
C700 C 0.62558 0.8431 0.11125 0.0
O701 O 0.62512 0.8678 0.11759 0.0
N702 N 0.68275 0.86741 0.11733 0.0
C703 C 0.6852 0.89726 0.14885 0.0
C704 C 0.67442 0.89114 0.12527 0.0
C705 C 0.69849 0.85954 0.13709 0.0
N706 N 0.70042 0.87743 0.15627 0.0
O707 O 0.69685 0.82126 0.09528 0.0
H708 H 0.66141 0.90375 0.11471 0.0
H709 H 0.70928 0.84152 0.13716 0.0
O710 O 0.64456 0.83419 0.09782 0.0
C711 C 0.71995 0.82488 0.08686 0.0
O712 O 0.72463 0.84621 0.07354 0.0
N713 N 0.65974 0.88055 0.07119 0.0
C714 C 0.64517 0.92556 0.04383 0.0
C715 C 0.6269 0.90577 0.04942 0.0
C716 C 0.63473 0.88311 0.06256 0.0
C717 C 0.6777 0.8993 0.06567 0.0
C718 C 0.67092 0.92177 0.05218 0.0
H719 H 0.62096 0.86738 0.0649 0.0
H720 H 0.6978 0.89632 0.07116 0.0
H721 H 0.6532 0.79778 0.05993 0.0
H722 H 0.67659 0.83112 0.9889 0.0
H723 H 0.6823 0.91512 0.15962 0.0
H724 H 0.60683 0.90742 0.04331 0.0
H725 H 0.68622 0.9355 0.04753 0.0
C726 C 0.34625 0.83274 0.47894 0.0
C727 C 0.3341 0.83852 0.50212 0.0
N728 N 0.31294 0.85318 0.49706 0.0
N729 N 0.33295 0.84383 0.45929 0.0
C730 C 0.31261 0.85585 0.47091 0.0
H731 H 0.36399 0.8217 0.47655 0.0
Co732 Co 0.34161 0.84285 0.42381 0.0
C733 C 0.32243 0.8986 0.41538 0.0
O734 O 0.34515 0.91014 0.41757 0.0
N735 N 0.34936 0.84164 0.38796 0.0
C736 C 0.35905 0.85294 0.34735 0.0
C737 C 0.35434 0.86192 0.37202 0.0
C738 C 0.35152 0.82043 0.37247 0.0
N739 N 0.35729 0.82684 0.34761 0.0
O740 O 0.31151 0.82162 0.41763 0.0
H741 H 0.35531 0.882 0.3779 0.0
H742 H 0.34896 0.80068 0.37929 0.0
O743 O 0.32061 0.87391 0.41761 0.0
C744 C 0.31528 0.79836 0.42539 0.0
O745 O 0.33794 0.79241 0.4356 0.0
N746 N 0.37326 0.86114 0.43088 0.0
C747 C 0.42227 0.8672 0.4538 0.0
C748 C 0.40091 0.88154 0.46292 0.0
C749 C 0.37645 0.87835 0.451 0.0
C750 C 0.3946 0.84914 0.42051 0.0
C751 C 0.41921 0.85249 0.43117 0.0
H752 H 0.35968 0.88731 0.46 0.0
H753 H 0.39256 0.83434 0.40581 0.0
H754 H 0.29776 0.86631 0.46036 0.0
H755 H 0.34081 0.83292 0.52124 0.0
H756 H 0.36418 0.86469 0.33065 0.0
H757 H 0.40245 0.89293 0.48055 0.0
H758 H 0.43524 0.84112 0.42351 0.0
C759 C 0.67177 0.19077 0.47142 0.0
C760 C 0.68311 0.18769 0.49541 0.0
N761 N 0.70088 0.16853 0.49373 0.0
N762 N 0.68204 0.17336 0.45474 0.0
C763 C 0.70007 0.16033 0.46878 0.0
H764 H 0.65649 0.20435 0.46651 0.0
Co765 Co 0.6713 0.16932 0.42032 0.0
C766 C 0.67733 0.11048 0.42063 0.0
O767 O 0.65233 0.10595 0.42342 0.0
N768 N 0.66111 0.16606 0.38517 0.0
C769 C 0.64721 0.15219 0.34661 0.0
C770 C 0.65286 0.14505 0.37171 0.0
C771 C 0.66007 0.18575 0.36773 0.0
N772 N 0.65172 0.17785 0.3441 0.0
O773 O 0.70432 0.18277 0.40906 0.0
H774 H 0.65035 0.12578 0.37944 0.0
H775 H 0.66514 0.20562 0.37234 0.0
O776 O 0.68581 0.13387 0.41931 0.0
C777 C 0.70508 0.20755 0.40986 0.0
O778 O 0.68428 0.22002 0.41796 0.0
N779 N 0.63753 0.15875 0.43215 0.0
C780 C 0.58786 0.15802 0.45508 0.0
C781 C 0.60852 0.14412 0.46619 0.0
C782 C 0.63326 0.14494 0.45456 0.0
C783 C 0.61725 0.17155 0.42076 0.0
C784 C 0.59234 0.17092 0.43149 0.0
H785 H 0.64931 0.13565 0.46445 0.0
H786 H 0.62046 0.18402 0.40422 0.0
H787 H 0.71176 0.14457 0.46117 0.0
H788 H 0.67853 0.19861 0.51281 0.0
H789 H 0.63958 0.13954 0.33161 0.0
H790 H 0.60609 0.13421 0.48461 0.0
H791 H 0.57699 0.18186 0.4221 0.0
H792 H 0.14575 0.47336 0.29812 0.0
H793 H 0.15969 0.54081 0.24937 0.0
H794 H 0.14646 0.51557 0.21079 0.0
H795 H 0.16996 0.42589 0.25411 0.0
H796 H 0.14567 0.40173 0.26182 0.0
H797 H 0.15506 0.42539 0.28586 0.0
H798 H 0.10688 0.43944 0.2909 0.0
H799 H 0.09734 0.41581 0.26684 0.0
H800 H 0.08884 0.44953 0.26262 0.0
H801 H 0.13448 0.48243 0.17724 0.0
H802 H 0.12272 0.44407 0.15099 0.0
H803 H 0.11536 0.39803 0.22138 0.0
C804 C 0.14599 0.4828 0.27933 0.0
C805 C 0.15376 0.50911 0.27678 0.0
C806 C 0.15352 0.52084 0.25187 0.0
C807 C 0.14615 0.5066 0.22981 0.0
C808 C 0.1388 0.4807 0.23298 0.0
C809 C 0.13842 0.46893 0.25711 0.0
C810 C 0.12994 0.44071 0.25506 0.0
C811 C 0.15144 0.42235 0.26478 0.0
C812 C 0.10422 0.43611 0.26973 0.0
C813 C 0.12616 0.43833 0.22594 0.0
C814 C 0.13135 0.46165 0.21361 0.0
C815 C 0.13014 0.46412 0.18669 0.0
C816 C 0.12351 0.44217 0.17194 0.0
C817 C 0.11804 0.41803 0.1841 0.0
C818 C 0.11921 0.41624 0.21151 0.0
H819 H 0.97407 0.35954 0.21507 0.0
H820 H 0.04682 0.38312 0.25112 0.0
H821 H 0.02223 0.40469 0.28611 0.0
H822 H 0.93675 0.41781 0.23205 0.0
H823 H 0.90729 0.39972 0.23819 0.0
H824 H 0.93051 0.388 0.21466 0.0
H825 H 0.93312 0.34399 0.23907 0.0
H826 H 0.90991 0.35556 0.26259 0.0
H827 H 0.94118 0.34374 0.27317 0.0
H828 H 0.99007 0.42064 0.31899 0.0
H829 H 0.95263 0.42987 0.34751 0.0
H830 H 0.90046 0.39596 0.29043 0.0
C831 C 0.98492 0.36925 0.23024 0.0
C832 C 0.01252 0.36956 0.23016 0.0
C833 C 0.02577 0.38282 0.25039 0.0
C834 C 0.01195 0.39509 0.27046 0.0
C835 C 0.98483 0.39412 0.27004 0.0
C836 C 0.97143 0.38162 0.25042 0.0
C837 C 0.94226 0.38242 0.25518 0.0
C838 C 0.92839 0.39791 0.23374 0.0
C839 C 0.93096 0.35479 0.25765 0.0
C840 C 0.9414 0.39674 0.28091 0.0
C841 C 0.96618 0.40349 0.28899 0.0
C842 C 0.97057 0.41569 0.31274 0.0
C843 C 0.94915 0.42079 0.32884 0.0
C844 C 0.92359 0.41372 0.32119 0.0
C845 C 0.9197 0.40192 0.29667 0.0
H846 H 0.88455 0.49442 0.28939 0.0
H847 H 0.80522 0.52304 0.29355 0.0
H848 H 0.8162 0.55776 0.26237 0.0
H849 H 0.91524 0.55608 0.28656 0.0
H850 H 0.9403 0.54636 0.26403 0.0
H851 H 0.92591 0.52271 0.28551 0.0
H852 H 0.91354 0.494 0.24603 0.0
H853 H 0.92795 0.51755 0.2244 0.0
H854 H 0.89453 0.50774 0.22001 0.0
H855 H 0.83613 0.5907 0.23256 0.0
H856 H 0.86373 0.61971 0.20614 0.0
H857 H 0.93019 0.5696 0.22046 0.0
C858 C 0.86939 0.50773 0.2834 0.0
C859 C 0.84401 0.506 0.29401 0.0
C860 C 0.82487 0.52413 0.286 0.0
C861 C 0.83087 0.54383 0.26813 0.0
C862 C 0.85612 0.5452 0.25833 0.0
C863 C 0.87509 0.52762 0.2656 0.0
C864 C 0.90098 0.53411 0.2529 0.0
C865 C 0.92183 0.54018 0.27348 0.0
C866 C 0.90976 0.51203 0.23475 0.0
C867 C 0.89363 0.55825 0.23764 0.0
C868 C 0.86762 0.5642 0.24096 0.0
C869 C 0.85647 0.58609 0.22958 0.0
C870 C 0.87234 0.60245 0.21453 0.0
C871 C 0.89913 0.59688 0.21092 0.0
C872 C 0.90976 0.57433 0.22257 0.0
H873 H 0.11291 0.60609 0.28184 0.0
H874 H 0.07599 0.63186 0.35329 0.0
H875 H 0.03712 0.645 0.3286 0.0
H876 H 0.08997 0.6577 0.24233 0.0
H877 H 0.08487 0.63794 0.21384 0.0
H878 H 0.10928 0.6289 0.23722 0.0
H879 H 0.08784 0.58354 0.24236 0.0
H880 H 0.06344 0.59238 0.21885 0.0
H881 H 0.0538 0.58131 0.25068 0.0
H882 H 1.00288 0.65712 0.2961 0.0
H883 H 0.97572 0.66725 0.25789 0.0
H884 H 0.03458 0.63361 0.20751 0.0
C885 C 0.09652 0.61419 0.29232 0.0
C886 C 0.09753 0.61789 0.31954 0.0
C887 C 0.07575 0.62883 0.33247 0.0
C888 C 0.05352 0.63634 0.31862 0.0
C889 C 0.05328 0.63281 0.2918 0.0
C890 C 0.07415 0.62193 0.27876 0.0
C891 C 0.06919 0.62112 0.24973 0.0
C892 C 0.08954 0.63739 0.23492 0.0
C893 C 0.06852 0.59291 0.23983 0.0
C894 C 0.04245 0.63353 0.24852 0.0
C895 C 0.03356 0.63998 0.27301 0.0
C896 C 0.00954 0.65199 0.27681 0.0
C897 C 0.99419 0.65759 0.25498 0.0
C898 C 1.00291 0.65128 0.22961 0.0
C899 C 0.02739 0.639 0.22652 0.0
H900 H 0.14598 0.49723 0.74975 0.0
H901 H 0.14007 0.54666 0.68172 0.0
H902 H 0.12006 0.58108 0.70824 0.0
H903 H 0.08446 0.51858 0.78058 0.0
H904 H 0.09783 0.51759 0.81294 0.0
H905 H 0.10994 0.49579 0.78831 0.0
H906 H 0.15681 0.5127 0.79627 0.0
H907 H 0.14485 0.53455 0.82085 0.0
H908 H 0.16341 0.54707 0.79383 0.0
H909 H 0.10351 0.61119 0.74194 0.0
H910 H 0.09133 0.63552 0.78134 0.0
H911 H 0.10726 0.56718 0.82831 0.0
C912 C 0.14006 0.51515 0.74047 0.0
C913 C 0.14476 0.51935 0.71371 0.0
C914 C 0.13705 0.54319 0.70225 0.0
C915 C 0.12546 0.56279 0.71711 0.0
C916 C 0.12156 0.55832 0.74347 0.0
C917 C 0.12851 0.53512 0.75514 0.0
C918 C 0.12328 0.53606 0.78417 0.0
C919 C 0.10265 0.5158 0.79196 0.0
C920 C 0.1486 0.53238 0.79969 0.0
C921 C 0.11286 0.56355 0.78695 0.0
C922 C 0.11185 0.5759 0.76314 0.0
C923 C 0.10396 0.60169 0.7607 0.0
C924 C 0.09713 0.61537 0.78323 0.0
C925 C 0.09823 0.60329 0.80795 0.0
C926 C 0.10594 0.57691 0.8097 0.0
H927 H 0.99459 0.38715 0.78161 0.0
H928 H 0.02441 0.30831 0.77945 0.0
H929 H 0.05827 0.32192 0.74825 0.0
H930 H 1.00629 0.40223 0.71274 0.0
H931 H 0.01582 0.43534 0.71929 0.0
H932 H 0.9929 0.41915 0.74037 0.0
H933 H 0.02238 0.42909 0.77995 0.0
H934 H 0.04541 0.44523 0.75902 0.0
H935 H 0.05593 0.41882 0.77948 0.0
H936 H 0.09028 0.34426 0.71917 0.0
H937 H 0.11835 0.37392 0.69393 0.0
H938 H 0.0679 0.43855 0.71418 0.0
C939 C 1.00796 0.37268 0.77421 0.0
C940 C 1.00684 0.34662 0.78305 0.0
C941 C 0.02504 0.3284 0.77323 0.0
C942 C 0.04426 0.33592 0.75536 0.0
C943 C 0.04509 0.36177 0.74736 0.0
C944 C 0.02741 0.3799 0.75637 0.0
C945 C 0.03335 0.40668 0.74539 0.0
C946 C 0.01074 0.41642 0.72844 0.0
C947 C 0.03964 0.42609 0.76726 0.0
C948 C 0.05728 0.40078 0.72907 0.0
C949 C 0.06361 0.37472 0.73042 0.0
C950 C 0.0854 0.36468 0.71779 0.0
C951 C 0.10127 0.38172 0.70352 0.0
C952 C 0.09534 0.40859 0.70193 0.0
C953 C 0.07286 0.4181 0.71475 0.0
H954 H 0.88612 0.39997 0.7895 0.0
H955 H 0.94128 0.44754 0.83218 0.0
H956 H 0.93208 0.48457 0.8031 0.0
H957 H 0.89837 0.4278 0.72472 0.0
H958 H 0.8645 0.42668 0.71562 0.0
H959 H 0.87731 0.4031 0.73811 0.0
H960 H 0.84204 0.41604 0.77174 0.0
H961 H 0.82923 0.43975 0.74945 0.0
H962 H 0.83918 0.44957 0.78157 0.0
H963 H 0.91582 0.51678 0.77083 0.0
H964 H 0.89319 0.54262 0.73794 0.0
H965 H 0.84611 0.47515 0.7177 0.0
C966 C 0.89662 0.41804 0.79232 0.0
C967 C 0.91458 0.42091 0.81289 0.0
C968 C 0.92748 0.44499 0.81647 0.0
C969 C 0.92244 0.46609 0.80003 0.0
C970 C 0.90423 0.46287 0.78027 0.0
C971 C 0.89145 0.43951 0.77633 0.0
C972 C 0.8715 0.44187 0.75475 0.0
C973 C 0.87834 0.42379 0.73195 0.0
C974 C 0.84385 0.43649 0.765 0.0
C975 C 0.87497 0.47022 0.74738 0.0
C976 C 0.89411 0.48185 0.76218 0.0
C977 C 0.90074 0.50791 0.75911 0.0
C978 C 0.88747 0.52254 0.74038 0.0
C979 C 0.86748 0.51124 0.72499 0.0
C980 C 0.8613 0.48461 0.72874 0.0
H981 H 0.01828 0.66077 0.76587 0.0
H982 H 0.96547 0.66402 0.83159 0.0
H983 H 0.93018 0.64613 0.80442 0.0
H984 H 0.97167 0.6808 0.71829 0.0
H985 H 0.98377 0.6598 0.69297 0.0
H986 H 1.00547 0.67138 0.7179 0.0
H987 H 0.01795 0.62391 0.72918 0.0
H988 H 0.99626 0.61219 0.70426 0.0
H989 H 0.99269 0.60087 0.73723 0.0
H990 H 0.90059 0.62847 0.77053 0.0
H991 H 0.87739 0.61445 0.73115 0.0
H992 H 0.94844 0.62382 0.68611 0.0
C993 C 0.99933 0.65744 0.77449 0.0
C994 C 0.99455 0.6638 0.80082 0.0
C995 C 0.96944 0.65955 0.81141 0.0
C996 C 0.94934 0.64922 0.79618 0.0
C997 C 0.95457 0.64337 0.77028 0.0
C998 C 0.97885 0.64744 0.75939 0.0
C999 C 0.97876 0.64062 0.73066 0.0
C1000 C 0.9853 0.66458 0.71398 0.0
C1001 C 0.99753 0.61806 0.72501 0.0
C1002 C 0.95059 0.63231 0.72714 0.0
C1003 C 0.93714 0.63377 0.75037 0.0
C1004 C 0.91089 0.62723 0.7522 0.0
C1005 C 0.89789 0.61924 0.72966 0.0
C1006 C 0.91101 0.61805 0.70542 0.0
C1007 C 0.93781 0.62455 0.70428 0.0
H1008 H 0.18892 0.11553 0.44964 0.0
H1009 H 0.23702 0.10194 0.38147 0.0
H1010 H 0.27575 0.11603 0.40594 0.0
H1011 H 0.22035 0.17282 0.47016 0.0
H1012 H 0.21811 0.16599 0.50446 0.0
H1013 H 0.19426 0.15278 0.48247 0.0
H1014 H 0.20445 0.10626 0.49884 0.0
H1015 H 0.22824 0.11934 0.52103 0.0
H1016 H 0.23752 0.09459 0.49802 0.0
H1017 H 0.30862 0.13444 0.43635 0.0
H1018 H 0.33415 0.15456 0.47149 0.0
H1019 H 0.26532 0.15645 0.52045 0.0
C1020 C 0.20765 0.11509 0.43997 0.0
C1021 C 0.20987 0.1076 0.41358 0.0
C1022 C 0.23475 0.1076 0.40162 0.0
C1023 C 0.25691 0.11555 0.41538 0.0
C1024 C 0.25396 0.12333 0.44115 0.0
C1025 C 0.23004 0.12299 0.45345 0.0
C1026 C 0.23219 0.13333 0.48102 0.0
C1027 C 0.21522 0.15767 0.48473 0.0
C1028 C 0.22519 0.11211 0.5009 0.0
C1029 C 0.26095 0.14 0.48207 0.0
C1030 C 0.2731 0.13396 0.45886 0.0
C1031 C 0.29937 0.13913 0.45466 0.0
C1032 C 0.31366 0.1508 0.47469 0.0
C1033 C 0.30173 0.15726 0.4987 0.0
C1034 C 0.27502 0.15154 0.50243 0.0
H1035 H 0.61065 0.32651 0.06217 0.0
H1036 H 0.59465 0.27665 0.12847 0.0
H1037 H 0.60297 0.23808 0.10152 0.0
H1038 H 0.58288 0.2822 0.0119 0.0
H1039 H 0.60791 0.29009 0.98858 0.0
H1040 H 0.59772 0.314 0.01211 0.0
H1041 H 0.64544 0.31914 0.02758 0.0
H1042 H 0.65575 0.29525 1.00419 0.0
H1043 H 0.66318 0.29083 0.03814 0.0
H1044 H 0.61763 0.20529 0.06955 0.0
H1045 H 0.63701 0.17996 0.03365 0.0
H1046 H 0.6431 0.24994 0.98714 0.0
C1047 C 0.60835 0.30746 0.07085 0.0
C1048 C 0.60189 0.30469 0.09747 0.0
C1049 C 0.59952 0.27939 0.10817 0.0
C1050 C 0.60414 0.25728 0.09298 0.0
C1051 C 0.61101 0.26068 0.06702 0.0
C1052 C 0.61296 0.28507 0.05591 0.0
C1053 C 0.62241 0.28318 0.02797 0.0
C1054 C 0.60148 0.29295 0.00902 0.0
C1055 C 0.64823 0.29797 0.02427 0.0
C1056 C 0.62622 0.25401 0.02547 0.0
C1057 C 0.61929 0.24146 0.04822 0.0
C1058 C 0.62274 0.21481 0.05149 0.0
C1059 C 0.63386 0.20062 0.03109 0.0
C1060 C 0.64134 0.21301 0.00768 0.0
C1061 C 0.63703 0.23998 1.00468 0.0
H1062 H 0.71185 0.86897 0.46915 0.0
H1063 H 0.75686 0.86511 0.54041 0.0
H1064 H 0.79605 0.87887 0.51646 0.0
H1065 H 0.76079 0.8437 0.42719 0.0
H1066 H 0.75331 0.86483 0.40027 0.0
H1067 H 0.72821 0.85604 0.42313 0.0
H1068 H 0.71901 0.90477 0.43193 0.0
H1069 H 0.74409 0.91374 0.40907 0.0
H1070 H 0.74529 0.92578 0.44194 0.0
H1071 H 0.8308 0.89038 0.48483 0.0
H1072 H 0.85905 0.90065 0.44761 0.0
H1073 H 0.79209 0.89785 0.39614 0.0
C1074 C 0.72994 0.87108 0.47971 0.0
C1075 C 0.73117 0.86602 0.50676 0.0
C1076 C 0.75522 0.86923 0.51986 0.0
C1077 C 0.77767 0.87691 0.50637 0.0
C1078 C 0.77582 0.88151 0.47977 0.0
C1079 C 0.75258 0.87893 0.46654 0.0
C1080 C 0.75615 0.88475 0.4378 0.0
C1081 C 0.7492 0.86091 0.42112 0.0
C1082 C 0.74018 0.90868 0.42972 0.0
C1083 C 0.78514 0.89047 0.43691 0.0
C1084 C 0.796 0.88852 0.46139 0.0
C1085 C 0.82251 0.89215 0.46559 0.0
C1086 C 0.83841 0.8979 0.44423 0.0
C1087 C 0.82785 0.90008 0.41887 0.0
C1088 C 0.80076 0.89645 0.41527 0.0
H1089 H 0.36784 0.7661 1.00097 0.0
H1090 H 0.35598 0.82964 0.05513 0.0
H1091 H 0.37668 0.80393 0.08988 0.0
H1092 H 0.35343 0.71531 0.0455 0.0
H1093 H 0.37766 0.69319 0.03313 0.0
H1094 H 0.36348 0.71716 0.01196 0.0
H1095 H 0.40946 0.73472 1.00073 0.0
H1096 H 0.4238 0.71076 0.02187 0.0
H1097 H 0.43089 0.74477 0.02659 0.0
H1098 H 0.39705 0.77124 0.119 0.0
H1099 H 0.41458 0.7329 0.14144 0.0
H1100 H 0.41318 0.68969 0.06885 0.0
C1101 C 0.36996 0.77469 0.02006 0.0
C1102 C 0.36028 0.79988 0.02537 0.0
C1103 C 0.36298 0.8103 0.05071 0.0
C1104 C 0.37489 0.79592 0.07051 0.0
C1105 C 0.38398 0.77109 0.06472 0.0
C1106 C 0.38164 0.76048 0.04016 0.0
C1107 C 0.39196 0.73284 0.03955 0.0
C1108 C 0.37034 0.71349 0.0321 0.0
C1109 C 0.41542 0.73065 0.02109 0.0
C1110 C 0.40013 0.72952 0.06768 0.0
C1111 C 0.39555 0.75195 0.08173 0.0
C1112 C 0.40085 0.75359 0.1082 0.0
C1113 C 0.41083 0.73163 0.12077 0.0
C1114 C 0.41533 0.70818 0.10695 0.0
C1115 C 0.41011 0.7073 0.07996 0.0
H1116 H 0.30318 0.83645 0.54645 0.0
H1117 H 0.28221 0.89592 0.49041 0.0
H1118 H 0.25242 0.91551 0.52253 0.0
H1119 H 0.23993 0.82904 0.57528 0.0
H1120 H 0.25246 0.82456 0.60768 0.0
H1121 H 0.27173 0.81503 0.58001 0.0
H1122 H 0.30962 0.84425 0.59608 0.0
H1123 H 0.29046 0.85388 0.62378 0.0
H1124 H 0.30371 0.87824 0.6023 0.0
H1125 H 0.22501 0.92908 0.5616 0.0
H1126 H 0.20241 0.93484 0.60377 0.0
H1127 H 0.24228 0.86689 0.63393 0.0
C1128 C 0.2925 0.85367 0.54088 0.0
C1129 C 0.29513 0.8645 0.51573 0.0
C1130 C 0.28037 0.88691 0.50932 0.0
C1131 C 0.26347 0.89834 0.52754 0.0
C1132 C 0.26148 0.88718 0.55216 0.0
C1133 C 0.2756 0.86532 0.5588 0.0
C1134 C 0.2701 0.85712 0.58653 0.0
C1135 C 0.25782 0.82982 0.58741 0.0
C1136 C 0.29495 0.85846 0.60315 0.0
C1137 C 0.25072 0.8778 0.59451 0.0
C1138 C 0.24593 0.89499 0.57447 0.0
C1139 C 0.22863 0.9157 0.57741 0.0
C1140 C 0.21587 0.91882 0.60143 0.0
C1141 C 0.22052 0.90135 0.62221 0.0
C1142 C 0.23826 0.88065 0.61853 0.0
H1143 H 0.38499 0.33371 0.94726 0.0
H1144 H 0.40883 0.28606 0.88167 0.0
H1145 H 0.40121 0.24666 0.90748 0.0
H1146 H 0.41265 0.29184 0.99816 0.0
H1147 H 0.38588 0.29697 0.02026 0.0
H1148 H 0.39482 0.32199 0.99737 0.0
H1149 H 0.34769 0.32244 0.97952 0.0
H1150 H 0.33861 0.29744 1.00233 0.0
H1151 H 0.3333 0.29257 0.96805 0.0
H1152 H 0.38873 0.21242 0.93856 0.0
H1153 H 0.372 0.18475 0.97391 0.0
H1154 H 0.35599 0.2532 0.02042 0.0
C1155 C 0.38887 0.31499 0.93843 0.0
C1156 C 0.39785 0.31312 0.91244 0.0
C1157 C 0.4024 0.28819 0.90159 0.0
C1158 C 0.39804 0.26559 0.9161 0.0
C1159 C 0.38913 0.26809 0.94151 0.0
C1160 C 0.38461 0.29207 0.95272 0.0
C1161 C 0.37406 0.28898 0.98018 0.0
C1162 C 0.39299 0.30064 1.00017 0.0
C1163 C 0.34679 0.30107 0.98265 0.0
C1164 C 0.37294 0.25953 0.98236 0.0
C1165 C 0.38188 0.24801 0.95978 0.0
C1166 C 0.38184 0.22118 0.95641 0.0
C1167 C 0.37216 0.20564 0.97652 0.0
C1168 C 0.36266 0.21685 0.9998 0.0
C1169 C 0.36342 0.24417 1.00291 0.0
H1170 H 0.82787 0.11404 0.56407 0.0
H1171 H 0.78251 0.11282 0.63539 0.0
H1172 H 0.74403 0.128 0.61123 0.0
H1173 H 0.79985 0.17124 0.53699 0.0
H1174 H 0.79968 0.15938 0.50402 0.0
H1175 H 0.82367 0.14769 0.52666 0.0
H1176 H 0.80918 0.10026 0.51766 0.0
H1177 H 0.78514 0.11181 0.49496 0.0
H1178 H 0.77544 0.09139 0.52176 0.0
H1179 H 0.71118 0.14563 0.58017 0.0
H1180 H 0.68527 0.1625 0.54349 0.0
H1181 H 0.75086 0.15091 0.49166 0.0
C1182 C 0.80982 0.11685 0.57459 0.0
C1183 C 0.80831 0.11231 0.6017 0.0
C1184 C 0.78424 0.11613 0.61467 0.0
C1185 C 0.76223 0.12478 0.60111 0.0
C1186 C 0.76445 0.12927 0.5745 0.0
C1187 C 0.78752 0.12523 0.56128 0.0
C1188 C 0.78455 0.13163 0.53262 0.0
C1189 C 0.80303 0.15381 0.52461 0.0
C1190 C 0.78883 0.10732 0.51576 0.0
C1191 C 0.75633 0.14029 0.53192 0.0
C1192 C 0.74517 0.13881 0.55634 0.0
C1193 C 0.71964 0.14669 0.56092 0.0
C1194 C 0.70513 0.15639 0.54002 0.0
C1195 C 0.71605 0.15798 0.51478 0.0
C1196 C 0.74194 0.14959 0.5107 0.0
H1197 H 0.63969 0.80563 0.97164 0.0
H1198 H 0.66441 0.75699 0.03578 0.0
H1199 H 0.65493 0.71771 0.00955 0.0
H1200 H 0.5866 0.7626 0.94923 0.0
H1201 H 0.59254 0.76988 0.91547 0.0
H1202 H 0.59947 0.79392 0.94001 0.0
H1203 H 0.64694 0.79741 0.92323 0.0
H1204 H 0.64023 0.77328 0.89878 0.0
H1205 H 0.66665 0.76849 0.9213 0.0
H1206 H 0.64742 0.68417 0.97458 0.0
H1207 H 0.63854 0.65845 0.93507 0.0
H1208 H 0.61657 0.72883 0.89414 0.0
C1209 C 0.64282 0.78668 0.98024 0.0
C1210 C 0.65284 0.7843 1.00573 0.0
C1211 C 0.65651 0.75922 0.01641 0.0
C1212 C 0.6513 0.73685 1.0016 0.0
C1213 C 0.64202 0.73992 0.9763 0.0
C1214 C 0.63737 0.76421 0.96585 0.0
C1215 C 0.62782 0.76222 0.93803 0.0
C1216 C 0.59995 0.77278 0.93555 0.0
C1217 C 0.64653 0.77617 0.91923 0.0
C1218 C 0.6285 0.73302 0.93416 0.0
C1219 C 0.63681 0.72053 0.95646 0.0
C1220 C 0.64052 0.69371 0.95716 0.0
C1221 C 0.63557 0.67929 0.93455 0.0
C1222 C 0.62673 0.69161 0.91156 0.0
C1223 C 0.62297 0.71883 0.91152 0.0
H1224 H 0.51958 0.28804 0.12697 0.0
H1225 H 0.48391 0.29721 0.2029 0.0
H1226 H 0.44915 0.26651 0.19039 0.0
H1227 H 0.46014 0.28496 0.09095 0.0
H1228 H 0.47169 0.26098 0.06815 0.0
H1229 H 0.49436 0.28298 0.08333 0.0
H1230 H 0.5212 0.2439 0.1002 0.0
H1231 H 0.49861 0.22175 0.08507 0.0
H1232 H 0.50536 0.21911 0.11934 0.0
H1233 H 0.41796 0.23533 0.16965 0.0
H1234 H 0.39151 0.20684 0.14164 0.0
H1235 H 0.44694 0.21776 0.07869 0.0
C1236 C 0.50462 0.28337 0.14106 0.0
C1237 C 0.50452 0.2951 0.16597 0.0
C1238 C 0.4843 0.28876 0.18365 0.0
C1239 C 0.46454 0.27118 0.17677 0.0
C1240 C 0.46516 0.26008 0.15208 0.0
C1241 C 0.48461 0.26595 0.13444 0.0
C1242 C 0.4802 0.25188 0.10886 0.0
C1243 C 0.47636 0.27136 0.08651 0.0
C1244 C 0.50268 0.23304 0.10304 0.0
C1245 C 0.45517 0.23729 0.11487 0.0
C1246 C 0.44696 0.24221 0.13998 0.0
C1247 C 0.42421 0.23129 0.14997 0.0
C1248 C 0.4093 0.2151 0.13385 0.0
C1249 C 0.41706 0.20997 0.10788 0.0
C1250 C 0.44047 0.22115 0.09843 0.0
H1251 H 0.42917 0.83092 0.87612 0.0
H1252 H 0.40059 0.787 0.94229 0.0
H1253 H 0.43612 0.75518 0.93634 0.0
H1254 H 0.44401 0.77653 0.83742 0.0
H1255 H 0.47257 0.79084 0.82283 0.0
H1256 H 0.44651 0.81134 0.834 0.0
H1257 H 0.47892 0.83685 0.86305 0.0
H1258 H 0.50512 0.81638 0.85196 0.0
H1259 H 0.4986 0.81949 0.88625 0.0
H1260 H 0.47432 0.72706 0.92175 0.0
H1261 H 0.50941 0.70393 0.89802 0.0
H1262 H 0.51151 0.76585 0.84094 0.0
C1263 C 0.43058 0.81486 0.88965 0.0
C1264 C 0.41222 0.81165 0.90987 0.0
C1265 C 0.41449 0.79 0.92676 0.0
C1266 C 0.43467 0.77184 0.92357 0.0
C1267 C 0.45235 0.77551 0.90329 0.0
C1268 C 0.45036 0.79645 0.88655 0.0
C1269 C 0.4706 0.7951 0.86519 0.0
C1270 C 0.45764 0.79334 0.83828 0.0
C1271 C 0.48943 0.81833 0.86672 0.0
C1272 C 0.48409 0.76996 0.87227 0.0
C1273 C 0.47361 0.75907 0.8945 0.0
C1274 C 0.48273 0.7355 0.90439 0.0
C1275 C 0.50273 0.72256 0.8909 0.0
C1276 C 0.51307 0.73305 0.86762 0.0
C1277 C 0.50381 0.75725 0.85855 0.0
H1278 H 0.22835 1.00154 0.63189 0.0
H1279 H 0.21698 0.04125 0.70534 0.0
H1280 H 0.24879 0.07483 0.69219 0.0
H1281 H 0.29822 0.0156 0.62491 0.0
H1282 H 0.29607 0.02064 0.59031 0.0
H1283 H 0.27388 0.99859 0.60623 0.0
H1284 H 0.23477 0.0241 0.58741 0.0
H1285 H 0.2568 0.04623 0.57148 0.0
H1286 H 0.23229 0.05857 0.59332 0.0
H1287 H 0.28015 0.10501 0.67059 0.0
H1288 H 0.30805 0.13082 0.6414 0.0
H1289 H 0.29898 0.07225 0.5812 0.0
C1290 C 0.23296 0.01708 0.64532 0.0
C1291 C 0.22028 0.01879 0.66968 0.0
C1292 C 0.22634 0.0397 0.68655 0.0
C1293 C 0.2445 0.05876 0.67931 0.0
C1294 C 0.25639 0.05673 0.65505 0.0
C1295 C 0.25088 0.03648 0.63825 0.0
C1296 C 0.26532 0.0398 0.6127 0.0
C1297 C 0.28452 0.01732 0.60829 0.0
C1298 C 0.24615 0.04233 0.58988 0.0
C1299 C 0.27956 0.0652 0.6177 0.0
C1300 C 0.27429 0.07446 0.64236 0.0
C1301 C 0.28456 0.09789 0.65129 0.0
C1302 C 0.30044 0.11242 0.63451 0.0
C1303 C 0.30586 0.1036 0.60896 0.0
C1304 C 0.2954 0.0795 0.60063 0.0
H1305 H 0.53634 0.30911 0.86814 0.0
H1306 H 0.47038 0.26022 0.84837 0.0
H1307 H 0.49592 0.2212 0.85978 0.0
H1308 H 0.58571 0.26794 0.84297 0.0
H1309 H 0.60871 0.27442 0.86861 0.0
H1310 H 0.58488 0.29856 0.86002 0.0
H1311 H 0.56874 0.2998 0.90775 0.0
H1312 H 0.59253 0.27561 0.91647 0.0
H1313 H 0.55854 0.27006 0.92332 0.0
H1314 H 0.52962 0.18745 0.87004 0.0
H1315 H 0.56847 0.16126 0.88045 0.0
H1316 H 0.61229 0.23188 0.89551 0.0
C1317 C 0.52729 0.29019 0.86626 0.0
C1318 C 0.50134 0.28771 0.85731 0.0
C1319 C 0.49009 0.26261 0.85541 0.0
C1320 C 0.50449 0.24034 0.86176 0.0
C1321 C 0.53005 0.24346 0.87033 0.0
C1322 C 0.5413 0.26776 0.87285 0.0
C1323 C 0.56922 0.26568 0.88226 0.0
C1324 C 0.58825 0.27734 0.86227 0.0
C1325 C 0.57244 0.27855 0.90904 0.0
C1326 C 0.57211 0.23639 0.88406 0.0
C1327 C 0.54926 0.22397 0.87708 0.0
C1328 C 0.5475 0.19696 0.87586 0.0
C1329 C 0.56969 0.18225 0.88174 0.0
C1330 C 0.59331 0.19451 0.88899 0.0
C1331 C 0.59437 0.22196 0.89046 0.0
H1332 H 0.80408 0.96958 0.6412 0.0
H1333 H 0.75826 0.03892 0.65601 0.0
H1334 H 0.71877 0.01591 0.64164 0.0
H1335 H 0.76918 0.94862 0.58393 0.0
H1336 H 0.77116 0.91454 0.59186 0.0
H1337 H 0.7962 0.93658 0.60272 0.0
H1338 H 0.78858 0.92191 0.65032 0.0
H1339 H 0.7636 0.89977 0.63959 0.0
H1340 H 0.75631 0.92381 0.66403 0.0
H1341 H 0.68404 0.98539 0.62648 0.0
H1342 H 0.65623 0.94908 0.61201 0.0
H1343 H 0.72422 0.89912 0.60743 0.0
C1344 C 0.78574 0.9799 0.64156 0.0
C1345 C 0.78442 1.00619 0.64962 0.0
C1346 C 0.75998 0.01899 0.64952 0.0
C1347 C 0.73735 1.00603 0.64151 0.0
C1348 C 0.73938 0.98021 0.63363 0.0
C1349 C 0.76291 0.96724 0.63359 0.0
C1350 C 0.7596 0.93938 0.62446 0.0
C1351 C 0.77495 0.9345 0.59924 0.0
C1352 C 0.76749 0.92008 0.64588 0.0
C1353 C 0.73049 0.9387 0.61963 0.0
C1354 C 0.71925 0.9625 0.62495 0.0
C1355 C 0.69261 0.96665 0.62221 0.0
C1356 C 0.67697 0.94587 0.61396 0.0
C1357 C 0.68798 0.9212 0.60858 0.0
C1358 C 0.71517 0.91772 0.61135 0.0
H1359 H 0.55057 0.71287 0.15542 0.0
H1360 H 0.48221 0.76104 0.16663 0.0
H1361 H 0.50674 0.79928 0.15101 0.0
H1362 H 0.59799 0.76004 0.17579 0.0
H1363 H 0.62186 0.75106 0.15171 0.0
H1364 H 0.5989 0.72726 0.1634 0.0
H1365 H 0.58404 0.71825 0.11617 0.0
H1366 H 0.60692 0.74209 0.10433 0.0
H1367 H 0.57289 0.74484 0.09627 0.0
H1368 H 0.53893 0.83262 0.13635 0.0
H1369 H 0.57629 0.85899 0.12186 0.0
H1370 H 0.62412 0.78957 0.11806 0.0
C1371 C 0.54082 0.7315 0.15466 0.0
C1372 C 0.51439 0.73394 0.1623 0.0
C1373 C 0.50228 0.7586 0.16067 0.0
C1374 C 0.51611 0.78047 0.15192 0.0
C1375 C 0.54205 0.77741 0.14455 0.0
C1376 C 0.5543 0.75355 0.14562 0.0
C1377 C 0.58238 0.75571 0.13637 0.0
C1378 C 0.6014 0.74807 0.15812 0.0
C1379 C 0.58681 0.73924 0.11182 0.0
C1380 C 0.58407 0.78459 0.13032 0.0
C1381 C 0.56055 0.79666 0.13528 0.0
C1382 C 0.55737 0.82336 0.13221 0.0
C1383 C 0.57879 0.83819 0.12402 0.0
C1384 C 0.60314 0.82638 0.1187 0.0
C1385 C 0.60568 0.79912 0.12166 0.0
H1386 H 0.24473 0.02318 0.36333 0.0
H1387 H 0.17814 0.97223 0.35297 0.0
H1388 H 0.20297 0.93583 0.37179 0.0
H1389 H 0.293 0.97635 0.3463 0.0
H1390 H 0.31648 0.98736 0.36989 0.0
H1391 H 0.29307 0.00982 0.35676 0.0
H1392 H 0.27761 0.02117 0.40335 0.0
H1393 H 0.30097 0.9987 0.41663 0.0
H1394 H 0.26696 0.99549 0.42474 0.0
H1395 H 0.23506 0.90473 0.3909 0.0
H1396 H 0.27297 0.88042 0.40725 0.0
H1397 H 0.31933 0.95115 0.40495 0.0
C1398 C 0.23533 1.00443 0.3653 0.0
C1399 C 0.20948 1.00055 0.3566 0.0
C1400 C 0.19798 0.9756 0.35916 0.0
C1401 C 0.21187 0.95484 0.37002 0.0
C1402 C 0.23732 0.95926 0.37824 0.0
C1403 C 0.24902 0.98338 0.37595 0.0
C1404 C 0.277 0.98255 0.38537 0.0
C1405 C 0.29601 0.98942 0.36326 0.0
C1406 C 0.28085 1.00055 0.40892 0.0
C1407 C 0.27923 0.95415 0.39307 0.0
C1408 C 0.25602 0.94116 0.389 0.0
C1409 C 0.25333 0.9147 0.39422 0.0
C1410 C 0.27502 0.90105 0.40352 0.0
C1411 C 0.29922 0.9138 0.40739 0.0
C1412 C 0.30114 0.9408 0.40231 0.0
H1413 H 0.8019 0.03893 0.36154 0.0
H1414 H 0.76213 0.96583 0.3766 0.0
H1415 H 0.72664 0.98964 0.39825 0.0
H1416 H 0.78326 0.07136 0.42164 0.0
H1417 H 0.77901 0.10252 0.40619 0.0
H1418 H 0.80225 0.07965 0.39332 0.0
H1419 H 0.77977 0.0819 0.3483 0.0
H1420 H 0.75658 0.10483 0.36101 0.0
H1421 H 0.74538 0.07524 0.34589 0.0
H1422 H 0.69422 0.02146 0.41602 0.0
H1423 H 0.66691 0.05894 0.42808 0.0
H1424 H 0.72744 0.11159 0.40124 0.0
C1425 C 0.78576 0.02784 0.3693 0.0
C1426 C 0.785 1.00036 0.36729 0.0
C1427 C 0.76351 0.98676 0.3781 0.0
C1428 C 0.74315 1.00016 0.3904 0.0
C1429 C 0.74451 0.02719 0.39186 0.0
C1430 C 0.76527 0.04089 0.38163 0.0
C1431 C 0.76154 0.06997 0.38498 0.0
C1432 C 0.78278 0.08155 0.40258 0.0
C1433 C 0.76076 0.08379 0.35847 0.0
C1434 C 0.73517 0.07049 0.39823 0.0
C1435 C 0.72581 0.04558 0.40218 0.0
C1436 C 0.70143 0.04104 0.41318 0.0
C1437 C 0.68605 0.0625 0.41994 0.0
C1438 C 0.69501 0.08825 0.41568 0.0
C1439 C 0.72012 0.09219 0.40503 0.0
H1440 H 0.96718 0.33366 0.96136 0.0
H1441 H 0.98301 0.41245 0.93537 0.0
H1442 H 1.00594 0.42137 0.97666 0.0
H1443 H 0.95505 0.34991 0.02897 0.0
H1444 H 0.97017 0.32064 0.04089 0.0
H1445 H 0.95474 0.32078 0.00946 0.0
H1446 H 0.99763 0.30473 0.98829 0.0
H1447 H 0.0132 0.30459 0.01961 0.0
H1448 H 0.02724 0.32296 0.99323 0.0
H1449 H 0.02816 0.42115 0.02078 0.0
H1450 H 0.04829 0.41154 0.06333 0.0
H1451 H 0.01578 0.33358 0.06072 0.0
C1452 C 0.97506 0.35295 0.96443 0.0
C1453 C 0.97317 0.37237 0.94505 0.0
C1454 C 0.98441 0.39714 0.94975 0.0
C1455 C 0.99732 0.40246 0.97323 0.0
C1456 C 0.99876 0.38285 0.99189 0.0
C1457 C 0.98788 0.35861 0.98772 0.0
C1458 C 0.99249 0.34069 0.01059 0.0
C1459 C 0.96657 0.33254 0.02322 0.0
C1460 C 0.0086 0.31684 1.00243 0.0
C1461 C 1.0079 0.35853 0.02822 0.0
C1462 C 0.01128 0.38279 0.01718 0.0
C1463 C 0.02546 0.40227 0.02968 0.0
C1464 C 0.03668 0.39667 0.05394 0.0
C1465 C 0.03371 0.37179 0.06547 0.0
C1466 C 0.01879 0.35269 0.05241 0.0
H1467 H 0.86254 0.50196 0.44534 0.0
H1468 H 0.88442 0.42544 0.47312 0.0
H1469 H 0.89185 0.44356 0.51701 0.0
H1470 H 0.90844 0.53956 0.48549 0.0
H1471 H 0.88544 0.56539 0.49114 0.0
H1472 H 0.88403 0.54687 0.46143 0.0
H1473 H 0.83574 0.53547 0.47072 0.0
H1474 H 0.837 0.55392 0.50042 0.0
H1475 H 0.82715 0.52026 0.50113 0.0
H1476 H 0.89458 0.46952 0.55842 0.0
H1477 H 0.8903 0.50071 0.59458 0.0
H1478 H 0.86673 0.56057 0.53999 0.0
C1479 C 0.86939 0.48914 0.46055 0.0
C1480 C 0.87306 0.4623 0.45577 0.0
C1481 C 0.88141 0.44603 0.47636 0.0
C1482 C 0.88583 0.45618 0.50131 0.0
C1483 C 0.88176 0.48266 0.50544 0.0
C1484 C 0.87368 0.49892 0.48564 0.0
C1485 C 0.8691 0.52629 0.49563 0.0
C1486 C 0.88788 0.54567 0.48265 0.0
C1487 C 0.84055 0.53445 0.49175 0.0
C1488 C 0.87546 0.52279 0.52419 0.0
C1489 C 0.88303 0.49756 0.52938 0.0
C1490 C 0.88896 0.48941 0.55453 0.0
C1491 C 0.88666 0.50738 0.57496 0.0
C1492 C 0.87833 0.53323 0.57024 0.0
C1493 C 0.87309 0.54098 0.54435 0.0
H1494 H 0.03452 0.67437 0.96641 0.0
H1495 H 0.02194 0.5957 0.93826 0.0
H1496 H 0.99461 0.58649 0.97674 0.0
H1497 H 0.04034 0.65676 0.0344 0.0
H1498 H 0.02447 0.68602 0.04536 0.0
H1499 H 0.04272 0.68616 0.01544 0.0
H1500 H 1.00205 0.70306 0.99093 0.0
H1501 H 0.98361 0.70273 0.02071 0.0
H1502 H 0.97199 0.68499 0.99281 0.0
H1503 H 0.96721 0.58659 0.01841 0.0
H1504 H 0.94411 0.59548 0.05965 0.0
H1505 H 0.97839 0.67277 0.06141 0.0
C1506 C 0.02654 0.65498 0.96839 0.0
C1507 C 0.03057 0.6358 0.94906 0.0
C1508 C 0.01896 0.61094 0.95246 0.0
C1509 C 1.0035 0.60544 0.97438 0.0
C1510 C 0.99995 0.62489 0.99294 0.0
C1511 C 0.01139 0.64908 0.99023 0.0
C1512 C 1.00483 0.66664 0.0129 0.0
C1513 C 0.02956 0.67434 0.02791 0.0
C1514 C 0.98972 0.69078 1.00378 0.0
C1515 C 0.9877 0.64867 0.02876 0.0
C1516 C 0.98496 0.6247 0.01697 0.0
C1517 C 0.96946 0.60524 0.0279 0.0
C1518 C 0.9565 0.61044 0.05146 0.0
C1519 C 0.9592 0.63489 0.06399 0.0
C1520 C 0.97527 0.65404 0.05233 0.0
H1521 H 0.16754 0.5022 0.56305 0.0
H1522 H 0.11126 0.44145 0.54664 0.0
H1523 H 0.10462 0.45969 0.50257 0.0
H1524 H 0.13325 0.5538 0.52808 0.0
H1525 H 0.16293 0.56881 0.51681 0.0
H1526 H 0.16256 0.55135 0.54717 0.0
H1527 H 0.20042 0.52235 0.53089 0.0
H1528 H 0.20083 0.53963 0.50046 0.0
H1529 H 0.19691 0.50479 0.50076 0.0
H1530 H 0.10714 0.48252 0.45907 0.0
H1531 H 0.11594 0.50948 0.4207 0.0
H1532 H 0.16777 0.55801 0.46678 0.0
C1533 C 0.15373 0.49283 0.55019 0.0
C1534 C 0.13996 0.47034 0.55818 0.0
C1535 C 0.12187 0.45876 0.54093 0.0
C1536 C 0.11807 0.46894 0.51587 0.0
C1537 C 0.13218 0.49097 0.5085 0.0
C1538 C 0.14938 0.50298 0.52529 0.0
C1539 C 0.1621 0.52644 0.51263 0.0
C1540 C 0.15476 0.55159 0.52703 0.0
C1541 C 0.19183 0.52309 0.51109 0.0
C1542 C 0.1498 0.52544 0.48587 0.0
C1543 C 0.13268 0.5048 0.48386 0.0
C1544 C 0.12008 0.49908 0.46061 0.0
C1545 C 0.12508 0.51483 0.43886 0.0
C1546 C 0.14233 0.53644 0.44038 0.0
C1547 C 0.1546 0.54173 0.46451 0.0
H1548 H 0.97591 0.96056 0.36618 0.0
H1549 H 0.92131 0.02137 0.38721 0.0
H1550 H 0.95794 0.0517 0.39415 0.0
H1551 H 0.02786 0.97971 0.41185 0.0
H1552 H 0.05343 0.97193 0.38912 0.0
H1553 H 0.02308 0.95428 0.3882 0.0
H1554 H 0.01751 0.96634 0.33963 0.0
H1555 H 0.04779 0.98399 0.34041 0.0
H1556 H 0.0184 1.00007 0.33009 0.0
H1557 H 1.00005 0.07675 0.39415 0.0
H1558 H 0.04473 0.09408 0.38873 0.0
H1559 H 0.07222 0.01699 0.36873 0.0
C1560 C 0.97166 0.98018 0.37251 0.0
C1561 C 0.94566 0.9885 0.37628 0.0
C1562 C 0.94101 0.01436 0.38462 0.0
C1563 C 0.96171 0.03179 0.3885 0.0
C1564 C 0.98704 0.02307 0.38421 0.0
C1565 C 0.99212 0.9978 0.37662 0.0
C1566 C 0.02102 0.99367 0.37217 0.0
C1567 C 0.03199 0.97371 0.39149 0.0
C1568 C 0.02649 0.98555 0.3439 0.0
C1569 C 0.03134 0.02074 0.37777 0.0
C1570 C 0.01142 0.03739 0.38477 0.0
C1571 C 0.01586 0.0638 0.38912 0.0
C1572 C 0.04124 0.07348 0.38596 0.0
C1573 C 0.06191 0.0568 0.37871 0.0
C1574 C 0.05689 0.03003 0.37494 0.0
H1575 H 0.54116 0.45495 0.11961 0.0
H1576 H 0.57352 0.45745 0.19767 0.0
H1577 H 0.55603 0.50107 0.20374 0.0
H1578 H 0.54967 0.52377 0.10403 0.0
H1579 H 0.51875 0.52688 0.08779 0.0
H1580 H 0.53539 0.49605 0.08796 0.0
H1581 H 0.49471 0.47394 0.10796 0.0
H1582 H 0.47789 0.50465 0.10767 0.0
H1583 H 0.48099 0.4867 0.1376 0.0
H1584 H 0.53523 0.54355 0.20284 0.0
H1585 H 0.50772 0.58214 0.19627 0.0
H1586 H 0.48543 0.55365 0.12012 0.0
C1587 C 0.54464 0.46471 0.13792 0.0
C1588 C 0.55976 0.45279 0.15773 0.0
C1589 C 0.56326 0.46627 0.18158 0.0
C1590 C 0.55314 0.49114 0.18541 0.0
C1591 C 0.53897 0.50247 0.16547 0.0
C1592 C 0.53426 0.48973 0.14231 0.0
C1593 C 0.51683 0.50621 0.12492 0.0
C1594 C 0.53101 0.51367 0.09968 0.0
C1595 C 0.49108 0.49203 0.11921 0.0
C1596 C 0.51247 0.52993 0.14214 0.0
C1597 C 0.5258 0.52725 0.16529 0.0
C1598 C 0.52471 0.54596 0.18479 0.0
C1599 C 0.50908 0.5678 0.18089 0.0
C1600 C 0.49459 0.57085 0.15773 0.0
C1601 C 0.4966 0.55188 0.13786 0.0
H1602 H 0.05651 0.98012 0.67743 0.0
H1603 H 0.07307 0.96845 0.59551 0.0
H1604 H 0.03241 0.99183 0.58433 0.0
H1605 H 0.98752 0.96942 0.67323 0.0
H1606 H 0.98014 0.99351 0.69758 0.0
H1607 H 0.01069 0.97644 0.69859 0.0
H1608 H 0.03543 0.02044 0.69818 0.0
H1609 H 1.00496 0.03765 0.69704 0.0
H1610 H 0.02931 0.0434 0.67243 0.0
H1611 H 0.98875 0.01688 0.58269 0.0
H1612 H 0.94767 0.04085 0.5908 0.0
H1613 H 0.96004 0.03299 0.67387 0.0
C1614 C 0.05155 0.98203 0.65708 0.0
C1615 C 0.06804 0.97211 0.63738 0.0
C1616 C 0.06094 0.97594 0.61101 0.0
C1617 C 0.03778 0.98909 0.60448 0.0
C1618 C 0.0219 0.99833 0.6245 0.0
C1619 C 0.02859 0.99486 0.65027 0.0
C1620 C 0.00842 1.00636 0.66833 0.0
C1621 C 0.99596 0.98517 0.68543 0.0
C1622 C 0.02024 0.02826 0.68497 0.0
C1623 C 0.98922 0.01695 0.6488 0.0
C1624 C 0.9972 0.01227 0.62358 0.0
C1625 C 0.98238 0.02057 0.6024 0.0
C1626 C 0.95897 0.03407 0.6072 0.0
C1627 C 0.95057 0.03916 0.63298 0.0
C1628 C 0.96599 0.03012 0.65389 0.0
H1629 H 0.5359 0.55726 0.83954 0.0
H1630 H 0.51769 0.5855 0.91693 0.0
H1631 H 0.49577 0.5437 0.92684 0.0
H1632 H 0.47567 0.52512 0.82853 0.0
H1633 H 0.4901 0.49859 0.81075 0.0
H1634 H 0.50548 0.53007 0.81064 0.0
H1635 H 0.54825 0.5094 0.82751 0.0
H1636 H 0.53297 0.47785 0.82775 0.0
H1637 H 0.5477 0.49041 0.85696 0.0
H1638 H 0.47433 0.49852 0.92738 0.0
H1639 H 0.45457 0.45547 0.91795 0.0
H1640 H 0.48679 0.45825 0.84004 0.0
C1641 C 0.52715 0.55485 0.85855 0.0
C1642 C 0.52843 0.57484 0.87739 0.0
C1643 C 0.51718 0.57047 0.90221 0.0
C1644 C 0.50461 0.5468 0.90798 0.0
C1645 C 0.50355 0.52764 0.88879 0.0
C1646 C 0.51456 0.53151 0.86457 0.0
C1647 C 0.51028 0.50833 0.84698 0.0
C1648 C 0.49443 0.51599 0.82281 0.0
C1649 C 0.53635 0.49576 0.83936 0.0
C1650 C 0.49476 0.49088 0.86488 0.0
C1651 C 0.49122 0.50213 0.88902 0.0
C1652 C 0.47709 0.48955 0.90855 0.0
C1653 C 0.46604 0.46507 0.90308 0.0
C1654 C 0.46897 0.45358 0.87822 0.0
C1655 C 0.48388 0.46663 0.85913 0.0
H1656 H 0.34891 0.06678 0.0178 0.0
H1657 H 0.40879 0.05115 0.07497 0.0
H1658 H 0.4155 0.00742 0.0558 0.0
H1659 H 0.32078 1.00427 0.01639 0.0
H1660 H 0.31485 1.00401 0.98187 0.0
H1661 H 0.3158 0.0344 0.9992 0.0
H1662 H 0.3517 0.05139 0.96807 0.0
H1663 H 0.35075 0.02107 0.95052 0.0
H1664 H 0.38108 0.03275 0.96374 0.0
H1665 H 0.41224 0.96385 0.03297 0.0
H1666 H 0.40208 0.9253 1.00678 0.0
H1667 H 0.34702 0.97084 0.96158 0.0
C1668 C 0.36358 0.0542 0.02613 0.0
C1669 C 0.3783 0.06226 0.04793 0.0
C1670 C 0.39745 0.04538 0.05819 0.0
C1671 C 0.4013 0.02051 0.04747 0.0
C1672 C 0.38616 0.01301 0.02622 0.0
C1673 C 0.36797 0.02953 0.01541 0.0
C1674 C 0.3541 0.01675 0.99272 0.0
C1675 C 0.32464 0.01474 0.99787 0.0
C1676 C 0.35976 0.03136 0.96726 0.0
C1677 C 0.36684 0.99018 0.99284 0.0
C1678 C 0.38521 0.98839 0.01233 0.0
C1679 C 0.39833 0.96524 0.01726 0.0
C1680 C 0.39252 0.94338 1.00194 0.0
C1681 C 0.37393 0.94466 0.98151 0.0
C1682 C 0.36121 0.96871 0.97695 0.0
H1683 H 0.46261 0.12363 0.54406 0.0
H1684 H 0.44203 0.20513 0.53635 0.0
H1685 H 0.48046 0.21245 0.50883 0.0
H1686 H 0.53211 0.13374 0.54758 0.0
H1687 H 0.54046 0.1054 0.52872 0.0
H1688 H 0.51082 0.10581 0.54749 0.0
H1689 H 0.48421 0.0951 0.50612 0.0
H1690 H 0.51379 0.09459 0.48724 0.0
H1691 H 0.48738 0.11562 0.47788 0.0
H1692 H 0.52072 0.21195 0.48336 0.0
H1693 H 0.56167 0.20361 0.46027 0.0
H1694 H 0.55794 0.12229 0.48295 0.0
C1695 C 0.46623 0.14293 0.53643 0.0
C1696 C 0.44949 0.16391 0.54267 0.0
C1697 C 0.45483 0.18889 0.5323 0.0
C1698 C 0.47654 0.19324 0.51651 0.0
C1699 C 0.49286 0.17241 0.51107 0.0
C1700 C 0.48813 0.14772 0.52059 0.0
C1701 C 0.50938 0.12905 0.51183 0.0
C1702 C 0.52406 0.11784 0.53531 0.0
C1703 C 0.498 0.1073 0.49475 0.0
C1704 C 0.52668 0.14724 0.49606 0.0
C1705 C 0.51654 0.17209 0.49592 0.0
C1706 C 0.52877 0.19252 0.48306 0.0
C1707 C 0.55198 0.18749 0.46981 0.0
C1708 C 0.56289 0.16218 0.46931 0.0
C1709 C 0.55008 0.14181 0.48286 0.0
H1710 H 0.66914 0.06854 0.98704 0.0
H1711 H 0.60587 0.05516 0.93303 0.0
H1712 H 0.59753 0.01215 0.95336 0.0
H1713 H 0.69343 1.00422 0.9894 0.0
H1714 H 0.70062 1.00488 0.02368 0.0
H1715 H 0.70099 0.03461 1.0052 0.0
H1716 H 0.66747 0.05489 0.03695 0.0
H1717 H 0.66705 0.02522 0.05557 0.0
H1718 H 0.63709 0.03832 0.04297 0.0
H1719 H 0.59885 0.96884 0.97778 0.0
H1720 H 0.60778 0.93063 1.00523 0.0
H1721 H 0.66717 0.97481 0.04626 0.0
C1722 C 0.65348 0.05654 0.97957 0.0
C1723 C 0.63825 0.06498 0.95835 0.0
C1724 C 0.61773 0.04898 0.94928 0.0
C1725 C 0.6129 0.02455 0.96069 0.0
C1726 C 0.62845 0.01667 0.98149 0.0
C1727 C 0.64808 0.03241 0.99107 0.0
C1728 C 0.66188 0.01963 0.0137 0.0
C1729 C 0.69095 0.0156 0.00762 0.0
C1730 C 0.65814 0.03546 0.03878 0.0
C1731 C 0.64743 0.99394 0.01501 0.0
C1732 C 0.62828 0.9925 0.99625 0.0
C1733 C 0.6135 0.96998 0.99284 0.0
C1734 C 0.61861 0.94834 0.0088 0.0
C1735 C 0.63822 0.9493 0.02824 0.0
C1736 C 0.65233 0.97284 0.03149 0.0
H1737 H 0.45727 0.90248 0.47615 0.0
H1738 H 0.43923 0.82025 0.46905 0.0
H1739 H 0.47854 0.80931 0.49371 0.0
H1740 H 0.52666 0.8961 0.4693 0.0
H1741 H 0.53491 0.92039 0.49318 0.0
H1742 H 0.50465 0.92264 0.47564 0.0
H1743 H 0.47915 0.92385 0.51906 0.0
H1744 H 0.50935 0.92178 0.53674 0.0
H1745 H 0.4839 0.89829 0.54255 0.0
H1746 H 0.51993 0.80629 0.51617 0.0
H1747 H 0.56142 0.81121 0.53895 0.0
H1748 H 0.5543 0.89533 0.53452 0.0
C1749 C 0.46161 0.88226 0.48006 0.0
C1750 C 0.44542 0.86216 0.47032 0.0
C1751 C 0.45162 0.8359 0.47586 0.0
C1752 C 0.47386 0.82947 0.48995 0.0
C1753 C 0.48978 0.84949 0.49867 0.0
C1754 C 0.48404 0.87536 0.49427 0.0
C1755 C 0.50507 0.89272 0.50594 0.0
C1756 C 0.51862 0.90892 0.48475 0.0
C1757 C 0.49368 0.91019 0.52735 0.0
C1758 C 0.52343 0.87242 0.51725 0.0
C1759 C 0.514 0.84769 0.51266 0.0
C1760 C 0.52736 0.82554 0.52034 0.0
C1761 C 0.5509 0.8286 0.53349 0.0
C1762 C 0.56094 0.85367 0.53925 0.0
C1763 C 0.54709 0.87592 0.53064 0.0
H1764 H 0.10427 0.24807 0.20395 0.0
H1765 H 0.12362 0.32014 0.24344 0.0
H1766 H 0.13998 0.29491 0.28102 0.0
H1767 H 0.08187 0.21338 0.25906 0.0
H1768 H 0.09543 0.18269 0.24894 0.0
H1769 H 0.08619 0.20644 0.22498 0.0
H1770 H 0.13281 0.2053 0.20562 0.0
H1771 H 0.14221 0.18153 0.22955 0.0
H1772 H 0.16034 0.21142 0.22647 0.0
H1773 H 0.1521 0.26156 0.31514 0.0
H1774 H 0.16034 0.22292 0.34247 0.0
H1775 H 0.13377 0.17291 0.28001 0.0
C1776 C 0.11203 0.25861 0.22044 0.0
C1777 C 0.11259 0.2861 0.22082 0.0
C1778 C 0.12303 0.29909 0.24273 0.0
C1779 C 0.13235 0.28493 0.26414 0.0
C1780 C 0.13133 0.25782 0.26318 0.0
C1781 C 0.1216 0.24482 0.24179 0.0
C1782 C 0.12238 0.21562 0.24563 0.0
C1783 C 0.09483 0.20385 0.24459 0.0
C1784 C 0.14052 0.20272 0.22563 0.0
C1785 C 0.13366 0.21416 0.27274 0.0
C1786 C 0.13872 0.2387 0.28253 0.0
C1787 C 0.14835 0.24227 0.30758 0.0
C1788 C 0.15283 0.22023 0.32302 0.0
C1789 C 0.14775 0.1949 0.31337 0.0
C1790 C 0.13823 0.19196 0.28779 0.0
H1791 H 0.75123 0.39715 0.31061 0.0
H1792 H 0.82372 0.38771 0.26821 0.0
H1793 H 0.79888 0.37295 0.22964 0.0
H1794 H 0.71816 0.341 0.28341 0.0
H1795 H 0.68697 0.35699 0.28262 0.0
H1796 H 0.7106 0.36587 0.30692 0.0
H1797 H 0.70803 0.414 0.29215 0.0
H1798 H 0.6844 0.4053 0.26784 0.0
H1799 H 0.71385 0.42202 0.25852 0.0
H1800 H 0.76549 0.36073 0.19516 0.0
H1801 H 0.72688 0.3518 0.16801 0.0
H1802 H 0.67666 0.36968 0.2335 0.0
C1803 C 0.76199 0.39189 0.29328 0.0
C1804 C 0.78946 0.39364 0.29242 0.0
C1805 C 0.80269 0.3865 0.26933 0.0
C1806 C 0.78874 0.37809 0.24735 0.0
C1807 C 0.76161 0.37677 0.24886 0.0
C1808 C 0.74843 0.38339 0.27131 0.0
C1809 C 0.71924 0.38076 0.26793 0.0
C1810 C 0.7081 0.35991 0.28631 0.0
C1811 C 0.70559 0.40708 0.27183 0.0
C1812 C 0.71794 0.37202 0.23988 0.0
C1813 C 0.74255 0.3697 0.22922 0.0
C1814 C 0.74615 0.36243 0.20337 0.0
C1815 C 0.72405 0.35756 0.18804 0.0
C1816 C 0.6986 0.36001 0.19851 0.0
C1817 C 0.69572 0.3672 0.22489 0.0
H1818 H 0.88046 0.84446 0.27382 0.0
H1819 H 0.8874 0.80312 0.34674 0.0
H1820 H 0.89323 0.76168 0.32288 0.0
H1821 H 0.84735 0.79279 0.2366 0.0
H1822 H 0.86542 0.79973 0.20735 0.0
H1823 H 0.85864 0.82539 0.23023 0.0
H1824 H 0.90797 0.83572 0.23322 0.0
H1825 H 0.9149 0.81004 0.21049 0.0
H1826 H 0.93037 0.81021 0.24192 0.0
H1827 H 0.89988 0.725 0.29082 0.0
H1828 H 0.90987 0.69657 0.2532 0.0
H1829 H 0.90169 0.76264 0.20145 0.0
C1830 C 0.8826 0.82653 0.28463 0.0
C1831 C 0.88316 0.82674 0.31204 0.0
C1832 C 0.88682 0.80315 0.32571 0.0
C1833 C 0.89004 0.7796 0.31233 0.0
C1834 C 0.88986 0.78005 0.28525 0.0
C1835 C 0.88639 0.80294 0.27154 0.0
C1836 C 0.88926 0.7985 0.24258 0.0
C1837 C 0.86364 0.80445 0.22835 0.0
C1838 C 0.91198 0.81457 0.23141 0.0
C1839 C 0.89524 0.76967 0.24217 0.0
C1840 C 0.89503 0.75924 0.26692 0.0
C1841 C 0.90007 0.73295 0.27135 0.0
C1842 C 0.90569 0.71695 0.24992 0.0
C1843 C 0.90671 0.72747 0.22452 0.0
C1844 C 0.90127 0.75412 0.2207 0.0
H1845 H 0.35181 0.63636 0.23997 0.0
H1846 H 0.31007 0.64139 0.16695 0.0
H1847 H 0.26862 0.6333 0.18993 0.0
H1848 H 0.31486 0.58461 0.26639 0.0
H1849 H 0.31533 0.59675 0.29925 0.0
H1850 H 0.34149 0.60471 0.27732 0.0
H1851 H 0.3337 0.65383 0.28546 0.0
H1852 H 0.30756 0.646 0.30752 0.0
H1853 H 0.30172 0.66726 0.28031 0.0
H1854 H 0.23159 0.62312 0.22089 0.0
H1855 H 0.20243 0.61078 0.2573 0.0
H1856 H 0.26855 0.61186 0.30976 0.0
C1857 C 0.3339 0.63619 0.2289 0.0
C1858 C 0.33423 0.63949 0.20163 0.0
C1859 C 0.31037 0.63864 0.18779 0.0
C1860 C 0.28668 0.63421 0.20071 0.0
C1861 C 0.28708 0.63065 0.22753 0.0
C1862 C 0.31007 0.63161 0.24148 0.0
C1863 C 0.30529 0.62602 0.27 0.0
C1864 C 0.32012 0.60157 0.27874 0.0
C1865 C 0.31249 0.64969 0.28681 0.0
C1866 C 0.27612 0.62142 0.26982 0.0
C1867 C 0.26589 0.62442 0.24521 0.0
C1868 C 0.23939 0.6208 0.24028 0.0
C1869 C 0.22296 0.61381 0.26106 0.0
C1870 C 0.23316 0.61027 0.28636 0.0
C1871 C 0.26009 0.61432 0.29065 0.0
H1872 H 0.10331 0.77208 0.81928 0.0
H1873 H 0.11694 0.7017 0.77471 0.0
H1874 H 0.13335 0.72827 0.73811 0.0
H1875 H 0.08084 0.81109 0.76713 0.0
H1876 H 0.09646 0.84045 0.77831 0.0
H1877 H 0.08686 0.81586 0.80132 0.0
H1878 H 0.13418 0.81362 0.81862 0.0
H1879 H 0.14395 0.8382 0.79561 0.0
H1880 H 0.1605 0.80733 0.79628 0.0
H1881 H 0.14639 0.76258 0.70573 0.0
H1882 H 0.15546 0.80203 0.67995 0.0
H1883 H 0.13372 0.85013 0.74572 0.0
C1884 C 0.10984 0.76219 0.80188 0.0
C1885 C 0.10879 0.73476 0.79985 0.0
C1886 C 0.11758 0.72266 0.77673 0.0
C1887 C 0.12696 0.73759 0.75585 0.0
C1888 C 0.1276 0.76459 0.75847 0.0
C1889 C 0.11939 0.77678 0.78094 0.0
C1890 C 0.12165 0.8061 0.77862 0.0
C1891 C 0.09486 0.81913 0.78151 0.0
C1892 C 0.14124 0.81694 0.79846 0.0
C1893 C 0.13195 0.80856 0.75111 0.0
C1894 C 0.13535 0.78436 0.7399 0.0
C1895 C 0.14389 0.78161 0.71436 0.0
C1896 C 0.14884 0.80415 0.69981 0.0
C1897 C 0.14524 0.8292 0.71076 0.0
C1898 C 0.13698 0.83131 0.7369 0.0
H1899 H 0.32559 0.42097 0.80455 0.0
H1900 H 0.31651 0.33732 0.80629 0.0
H1901 H 0.27738 0.34088 0.77814 0.0
H1902 H 0.25729 0.43868 0.80339 0.0
H1903 H 0.26208 0.46497 0.7807 0.0
H1904 H 0.28792 0.45585 0.80251 0.0
H1905 H 0.31906 0.44923 0.76337 0.0
H1906 H 0.2934 0.45854 0.7415 0.0
H1907 H 0.30956 0.42773 0.73736 0.0
H1908 H 0.23864 0.35422 0.75018 0.0
H1909 H 0.20778 0.37517 0.7197 0.0
H1910 H 0.24499 0.44963 0.7335 0.0
C1911 C 0.31511 0.4035 0.79917 0.0
C1912 C 0.32364 0.3789 0.80776 0.0
C1913 C 0.31004 0.3563 0.79988 0.0
C1914 C 0.28779 0.35819 0.78409 0.0
C1915 C 0.27975 0.38282 0.77602 0.0
C1916 C 0.29332 0.40502 0.78293 0.0
C1917 C 0.28205 0.42894 0.77002 0.0
C1918 C 0.27172 0.44825 0.79037 0.0
C1919 C 0.30221 0.44186 0.75199 0.0
C1920 C 0.26001 0.41679 0.7547 0.0
C1921 C 0.25861 0.39026 0.75881 0.0
C1922 C 0.23962 0.37497 0.7468 0.0
C1923 C 0.22207 0.38704 0.72969 0.0
C1924 C 0.22403 0.41398 0.72436 0.0
C1925 C 0.24307 0.42899 0.73728 0.0
H1926 H 0.92461 0.28346 0.76615 0.0
H1927 H 0.85648 0.28112 0.81575 0.0
H1928 H 0.83752 0.2463 0.78846 0.0
H1929 H 0.89002 0.26831 0.70352 0.0
H1930 H 0.91672 0.2487 0.69206 0.0
H1931 H 0.92288 0.276 0.71316 0.0
H1932 H 0.94707 0.24556 0.74511 0.0
H1933 H 0.94066 0.21812 0.72439 0.0
H1934 H 0.93047 0.21741 0.75792 0.0
H1935 H 0.82881 0.20798 0.7593 0.0
H1936 H 0.82954 0.17107 0.72855 0.0
H1937 H 0.9034 0.19834 0.69784 0.0
C1938 C 0.90523 0.2763 0.77049 0.0
C1939 C 0.89156 0.28532 0.79246 0.0
C1940 C 0.86681 0.27484 0.79849 0.0
C1941 C 0.85599 0.255 0.78319 0.0
C1942 C 0.87022 0.24595 0.76195 0.0
C1943 C 0.89415 0.25651 0.75535 0.0
C1944 C 0.90634 0.24198 0.73279 0.0
C1945 C 0.90914 0.25981 0.70897 0.0
C1946 C 0.93268 0.23006 0.74054 0.0
C1947 C 0.88595 0.22114 0.72827 0.0
C1948 C 0.86521 0.22382 0.74519 0.0
C1949 C 0.84477 0.20593 0.7457 0.0
C1950 C 0.84547 0.18488 0.72834 0.0
C1951 C 0.86646 0.18186 0.7107 0.0
C1952 C 0.88685 0.20037 0.71072 0.0
H1953 H 0.66728 0.59867 0.77956 0.0
H1954 H 0.70147 0.65635 0.83054 0.0
H1955 H 0.74221 0.65528 0.80436 0.0
H1956 H 0.72445 0.56059 0.76775 0.0
H1957 H 0.71656 0.55487 0.7341 0.0
H1958 H 0.69091 0.55997 0.75743 0.0
H1959 H 0.67298 0.59787 0.7295 0.0
H1960 H 0.69862 0.59297 0.70611 0.0
H1961 H 0.69421 0.62446 0.72085 0.0
H1962 H 0.77965 0.64677 0.77207 0.0
H1963 H 0.80895 0.63348 0.73609 0.0
H1964 H 0.74839 0.58269 0.70628 0.0
C1965 C 0.68349 0.61076 0.7855 0.0
C1966 C 0.68151 0.62723 0.80735 0.0
C1967 C 0.70279 0.64347 0.81394 0.0
C1968 C 0.72593 0.64294 0.79922 0.0
C1969 C 0.72723 0.62634 0.77776 0.0
C1970 C 0.70641 0.61073 0.77086 0.0
C1971 C 0.71205 0.59538 0.74645 0.0
C1972 C 0.71093 0.56596 0.75177 0.0
C1973 C 0.69336 0.60314 0.72443 0.0
C1974 C 0.73952 0.60433 0.74083 0.0
C1975 C 0.74808 0.62216 0.75903 0.0
C1976 C 0.77305 0.63289 0.7577 0.0
C1977 C 0.78958 0.6252 0.73723 0.0
C1978 C 0.78097 0.60709 0.71832 0.0
C1979 C 0.7556 0.59664 0.72031 0.0
H1980 H 0.20377 0.10681 0.24482 0.0
H1981 H 0.24794 0.11815 0.31584 0.0
H1982 H 0.2862 0.13152 0.28981 0.0
H1983 H 0.25557 0.08059 0.20664 0.0
H1984 H 0.24575 0.09669 0.17712 0.0
H1985 H 0.22179 0.08847 0.20136 0.0
H1986 H 0.20711 0.13663 0.20326 0.0
H1987 H 0.23108 0.14501 0.17906 0.0
H1988 H 0.23082 0.16165 0.20989 0.0
H1989 H 0.31988 0.14264 0.25598 0.0
H1990 H 0.34657 0.15096 0.21698 0.0
H1991 H 0.28036 0.13267 0.16793 0.0
C1992 C 0.22147 0.1121 0.25495 0.0
C1993 C 0.22287 0.11137 0.28241 0.0
C1994 C 0.2464 0.11856 0.29485 0.0
C1995 C 0.26822 0.1262 0.28022 0.0
C1996 C 0.26615 0.12669 0.2532 0.0
C1997 C 0.24336 0.1199 0.24068 0.0
C1998 C 0.24629 0.12194 0.21141 0.0
C1999 C 0.24211 0.09534 0.19837 0.0
C2000 C 0.22772 0.14253 0.20026 0.0
C2001 C 0.27441 0.13065 0.20938 0.0
C2002 C 0.28548 0.13331 0.23372 0.0
C2003 C 0.3114 0.14063 0.23684 0.0
C2004 C 0.32646 0.14517 0.21453 0.0
C2005 C 0.31563 0.14238 0.18934 0.0
C2006 C 0.28914 0.13525 0.18686 0.0
H2007 H 0.63972 0.22943 0.34234 0.0
H2008 H 0.65352 0.16184 0.29381 0.0
H2009 H 0.64395 0.18797 0.25473 0.0
H2010 H 0.58666 0.25465 0.30655 0.0
H2011 H 0.5958 0.28824 0.3108 0.0
H2012 H 0.60485 0.2645 0.33485 0.0
H2013 H 0.65337 0.27766 0.32984 0.0
H2014 H 0.64444 0.30156 0.30587 0.0
H2015 H 0.66825 0.27705 0.29809 0.0
H2016 H 0.63192 0.22155 0.22079 0.0
H2017 H 0.61822 0.25983 0.19504 0.0
H2018 H 0.61225 0.30505 0.26604 0.0
C2019 C 0.64114 0.22019 0.32351 0.0
C2020 C 0.64736 0.19351 0.32122 0.0
C2021 C 0.6485 0.18213 0.29613 0.0
C2022 C 0.64325 0.19686 0.27379 0.0
C2023 C 0.63689 0.22301 0.27678 0.0
C2024 C 0.63589 0.23459 0.30102 0.0
C2025 C 0.62793 0.26285 0.29901 0.0
C2026 C 0.60229 0.26784 0.31367 0.0
C2027 C 0.6498 0.28084 0.30878 0.0
C2028 C 0.62432 0.26528 0.2699 0.0
C2029 C 0.62974 0.24217 0.25736 0.0
C2030 C 0.62766 0.23976 0.23042 0.0
C2031 C 0.61986 0.26159 0.21595 0.0
C2032 C 0.61407 0.2854 0.22849 0.0
C2033 C 0.61639 0.28711 0.25583 0.0
H2034 H 0.79659 0.93951 0.25937 0.0
H2035 H 0.79706 0.86602 0.30058 0.0
H2036 H 0.76639 0.84765 0.268 0.0
H2037 H 0.7279 0.93809 0.24225 0.0
H2038 H 0.73349 0.95346 0.21125 0.0
H2039 H 0.7548 0.96031 0.23818 0.0
H2040 H 0.79448 0.94648 0.21025 0.0
H2041 H 0.77329 0.93932 0.18334 0.0
H2042 H 0.7949 0.91463 0.1956 0.0
H2043 H 0.73795 0.83679 0.22784 0.0
H2044 H 0.71079 0.83627 0.18783 0.0
H2045 H 0.72798 0.9178 0.1755 0.0
C2046 C 0.79006 0.9196 0.2617 0.0
C2047 C 0.7992 0.90412 0.28241 0.0
C2048 C 0.7901 0.87823 0.28492 0.0
C2049 C 0.77284 0.86763 0.26642 0.0
C2050 C 0.76458 0.88336 0.24586 0.0
C2051 C 0.77259 0.90897 0.24379 0.0
C2052 C 0.76085 0.92211 0.22029 0.0
C2053 C 0.74321 0.94483 0.22849 0.0
C2054 C 0.78215 0.93116 0.20125 0.0
C2055 C 0.74516 0.89989 0.20911 0.0
C2056 C 0.74766 0.87755 0.22386 0.0
C2057 C 0.73564 0.8543 0.21642 0.0
C2058 C 0.72041 0.8541 0.19363 0.0
C2059 C 0.71706 0.87706 0.17883 0.0
C2060 C 0.72979 0.90009 0.18673 0.0
H2061 H 0.41985 0.70663 0.27326 0.0
H2062 H 0.39479 0.74267 0.20121 0.0
H2063 H 0.3736 0.77775 0.22634 0.0
H2064 H 0.36182 0.72131 0.31053 0.0
H2065 H 0.37948 0.72751 0.34015 0.0
H2066 H 0.39223 0.70494 0.31658 0.0
H2067 H 0.4354 0.73105 0.31452 0.0
H2068 H 0.42287 0.75359 0.33819 0.0
H2069 H 0.43447 0.76533 0.30726 0.0
H2070 H 0.35644 0.8096 0.25925 0.0
H2071 H 0.34503 0.83633 0.29747 0.0
H2072 H 0.38064 0.77931 0.3482 0.0
C2073 C 0.40989 0.72186 0.26271 0.0
C2074 C 0.40902 0.7219 0.23521 0.0
C2075 C 0.39574 0.74222 0.22224 0.0
C2076 C 0.38359 0.76219 0.23636 0.0
C2077 C 0.38478 0.7615 0.26343 0.0
C2078 C 0.39758 0.74187 0.27649 0.0
C2079 C 0.39642 0.74592 0.30567 0.0
C2080 C 0.3816 0.72359 0.31902 0.0
C2081 C 0.42392 0.74917 0.31707 0.0
C2082 C 0.3812 0.77111 0.30703 0.0
C2083 C 0.37463 0.7797 0.28243 0.0
C2084 C 0.36139 0.80299 0.27859 0.0
C2085 C 0.35508 0.81808 0.30039 0.0
C2086 C 0.36191 0.80988 0.32578 0.0
C2087 C 0.3748 0.78585 0.32908 0.0
H2088 H 0.30016 0.85096 0.81169 0.0
H2089 H 0.29832 0.91554 0.86612 0.0
H2090 H 0.26838 0.93895 0.83694 0.0
H2091 H 0.29879 0.89048 0.7525 0.0
H2092 H 0.27846 0.8676 0.73535 0.0
H2093 H 0.3006 0.85629 0.76002 0.0
H2094 H 0.26228 0.83407 0.78422 0.0
H2095 H 0.24003 0.84533 0.75969 0.0
H2096 H 0.23429 0.85313 0.79337 0.0
H2097 H 0.23627 0.95391 0.80362 0.0
H2098 H 0.20509 0.96009 0.76771 0.0
H2099 H 0.22964 0.88708 0.73342 0.0
C2100 C 0.294 0.87021 0.8174 0.0
C2101 C 0.30173 0.88129 0.84144 0.0
C2102 C 0.29252 0.90639 0.8481 0.0
C2103 C 0.27563 0.91995 0.83152 0.0
C2104 C 0.26828 0.90832 0.80818 0.0
C2105 C 0.2773 0.8841 0.80101 0.0
C2106 C 0.26578 0.87561 0.77519 0.0
C2107 C 0.28719 0.87231 0.75454 0.0
C2108 C 0.24964 0.85056 0.77832 0.0
C2109 C 0.24856 0.89873 0.76912 0.0
C2110 C 0.2503 0.91734 0.78848 0.0
C2111 C 0.23504 0.93967 0.78818 0.0
C2112 C 0.21735 0.94296 0.76775 0.0
C2113 C 0.21522 0.9242 0.74771 0.0
C2114 C 0.23131 0.90198 0.74822 0.0
H2115 H 0.41013 0.31489 0.74573 0.0
H2116 H 0.39211 0.27358 0.81713 0.0
H2117 H 0.37593 0.23629 0.79139 0.0
H2118 H 0.35387 0.29257 0.70958 0.0
H2119 H 0.3714 0.29015 0.67931 0.0
H2120 H 0.38125 0.31367 0.70334 0.0
H2121 H 0.4279 0.29451 0.70326 0.0
H2122 H 0.41822 0.27101 0.67919 0.0
H2123 H 0.43238 0.26029 0.70937 0.0
H2124 H 0.36336 0.20288 0.75778 0.0
H2125 H 0.35449 0.17617 0.71884 0.0
H2126 H 0.37965 0.23977 0.66947 0.0
C2127 C 0.40278 0.29801 0.756 0.0
C2128 C 0.40246 0.2971 0.78347 0.0
C2129 C 0.39252 0.27471 0.79611 0.0
C2130 C 0.38329 0.25345 0.78166 0.0
C2131 C 0.38391 0.255 0.7546 0.0
C2132 C 0.39328 0.27676 0.7419 0.0
C2133 C 0.39191 0.2735 0.71265 0.0
C2134 C 0.37351 0.29367 0.70051 0.0
C2135 C 0.41923 0.2749 0.70041 0.0
C2136 C 0.38064 0.24633 0.71085 0.0
C2137 C 0.37616 0.236 0.73526 0.0
C2138 C 0.36666 0.21083 0.73858 0.0
C2139 C 0.36179 0.19577 0.71637 0.0
C2140 C 0.36632 0.20592 0.69116 0.0
C2141 C 0.37561 0.23165 0.68846 0.0
H2142 H 0.78695 0.12735 0.72099 0.0
H2143 H 0.80179 0.05011 0.75139 0.0
H2144 H 0.76961 0.05743 0.78621 0.0
H2145 H 0.78223 0.15798 0.78246 0.0
H2146 H 0.75679 0.18027 0.77332 0.0
H2147 H 0.77908 0.16825 0.74912 0.0
H2148 H 0.74037 0.15129 0.72165 0.0
H2149 H 0.7179 0.16339 0.74569 0.0
H2150 H 0.71688 0.12964 0.73625 0.0
H2151 H 0.73781 0.07365 0.8191 0.0
H2152 H 0.70823 0.09798 0.84805 0.0
H2153 H 0.71487 0.16536 0.79762 0.0
C2154 C 0.78293 0.11183 0.73466 0.0
C2155 C 0.79664 0.08806 0.73339 0.0
C2156 C 0.79144 0.06844 0.75201 0.0
C2157 C 0.77316 0.07238 0.77183 0.0
C2158 C 0.76033 0.09616 0.77294 0.0
C2159 C 0.76492 0.11559 0.75489 0.0
C2160 C 0.74963 0.13991 0.76159 0.0
C2161 C 0.76803 0.16295 0.76694 0.0
C2162 C 0.73003 0.14643 0.74001 0.0
C2163 C 0.73587 0.13108 0.78621 0.0
C2164 C 0.74225 0.10574 0.79231 0.0
C2165 C 0.73257 0.0935 0.81449 0.0
C2166 C 0.71591 0.10752 0.83092 0.0
C2167 C 0.70911 0.13358 0.8252 0.0
C2168 C 0.71925 0.14537 0.80241 0.0
H2169 H 0.60353 0.73977 0.7863 0.0
H2170 H 0.6507 0.67488 0.76068 0.0
H2171 H 0.66903 0.70193 0.7253 0.0
H2172 H 0.58566 0.75942 0.72421 0.0
H2173 H 0.58575 0.79385 0.73081 0.0
H2174 H 0.57972 0.77111 0.75671 0.0
H2175 H 0.61785 0.79083 0.78316 0.0
H2176 H 0.62388 0.81382 0.75739 0.0
H2177 H 0.64974 0.79303 0.76863 0.0
H2178 H 0.67945 0.73475 0.69079 0.0
H2179 H 0.68046 0.77028 0.65884 0.0
H2180 H 0.6237 0.81278 0.70491 0.0
C2181 C 0.61839 0.73168 0.77373 0.0
C2182 C 0.62623 0.70556 0.77636 0.0
C2183 C 0.64483 0.69505 0.75902 0.0
C2184 C 0.65532 0.71025 0.73895 0.0
C2185 C 0.64671 0.73581 0.73632 0.0
C2186 C 0.62864 0.74647 0.75321 0.0
C2187 C 0.62059 0.77341 0.74442 0.0
C2188 C 0.59119 0.77449 0.7387 0.0
C2189 C 0.6285 0.79399 0.7646 0.0
C2190 C 0.63654 0.776 0.71974 0.0
C2191 C 0.65177 0.75429 0.71566 0.0
C2192 C 0.66764 0.75189 0.69381 0.0
C2193 C 0.66785 0.77217 0.67557 0.0
C2194 C 0.652 0.7945 0.679 0.0
C2195 C 0.63632 0.79631 0.70161 0.0
H2196 H 0.26218 0.2228 0.0716 0.0
H2197 H 0.30765 0.22676 0.14241 0.0
H2198 H 0.27645 0.25882 0.16053 0.0
H2199 H 0.24539 0.29193 0.06973 0.0
H2200 H 0.21343 0.28565 0.0567 0.0
H2201 H 0.2399 0.26388 0.04943 0.0
H2202 H 0.21276 0.22523 0.06727 0.0
H2203 H 0.18632 0.24689 0.07482 0.0
H2204 H 0.20006 0.2267 0.09992 0.0
H2205 H 0.23726 0.28731 0.17219 0.0
H2206 H 0.19684 0.31379 0.17414 0.0
H2207 H 0.1795 0.29295 0.0945 0.0
C2208 C 0.26573 0.23067 0.0908 0.0
C2209 C 0.28722 0.22238 0.10566 0.0
C2210 C 0.29136 0.23311 0.13066 0.0
C2211 C 0.27367 0.25117 0.14113 0.0
C2212 C 0.25232 0.25859 0.12611 0.0
C2213 C 0.24864 0.24903 0.10126 0.0
C2214 C 0.22435 0.2601 0.08894 0.0
C2215 C 0.23119 0.27636 0.06477 0.0
C2216 C 0.20472 0.23843 0.08236 0.0
C2217 C 0.21458 0.27706 0.11086 0.0
C2218 C 0.23076 0.27581 0.13228 0.0
C2219 C 0.22472 0.28875 0.15537 0.0
C2220 C 0.20174 0.30359 0.15639 0.0
C2221 C 0.18541 0.30562 0.13436 0.0
C2222 C 0.19199 0.29213 0.11141 0.0
H2223 H 0.24223 0.80945 0.91173 0.0
H2224 H 0.31135 0.76103 0.9144 0.0
H2225 H 0.28477 0.72284 0.90195 0.0
H2226 H 0.19799 0.76299 0.93833 0.0
H2227 H 0.17127 0.77236 0.91769 0.0
H2228 H 0.19586 0.79583 0.92627 0.0
H2229 H 0.20449 0.80487 0.87744 0.0
H2230 H 0.17996 0.78138 0.86871 0.0
H2231 H 0.21258 0.77824 0.85615 0.0
H2232 H 0.25027 0.68978 0.89004 0.0
H2233 H 0.21082 0.66448 0.87946 0.0
H2234 H 0.16439 0.73472 0.88476 0.0
C2235 C 0.25186 0.79084 0.90969 0.0
C2236 C 0.27891 0.78823 0.91412 0.0
C2237 C 0.29067 0.76351 0.91113 0.0
C2238 C 0.27573 0.74172 0.90404 0.0
C2239 C 0.2491 0.745 0.89988 0.0
C2240 C 0.23729 0.76896 0.90253 0.0
C2241 C 0.20832 0.7673 0.89717 0.0
C2242 C 0.19243 0.77507 0.9213 0.0
C2243 C 0.20091 0.78393 0.87346 0.0
C2244 C 0.20558 0.73856 0.89134 0.0
C2245 C 0.22932 0.72605 0.89294 0.0
C2246 C 0.23159 0.6994 0.88874 0.0
C2247 C 0.20901 0.68515 0.88289 0.0
C2248 C 0.18439 0.69751 0.88131 0.0
C2249 C 0.18285 0.72466 0.88547 0.0
H2250 H 0.28217 0.25556 0.57232 0.0
H2251 H 0.2878 0.21302 0.64481 0.0
H2252 H 0.25722 0.24412 0.6654 0.0
H2253 H 0.27993 0.3184 0.59802 0.0
H2254 H 0.25625 0.33075 0.57534 0.0
H2255 H 0.27733 0.30443 0.56598 0.0
H2256 H 0.23731 0.27585 0.55463 0.0
H2257 H 0.21608 0.30224 0.56355 0.0
H2258 H 0.21222 0.27084 0.57866 0.0
H2259 H 0.22979 0.28305 0.67907 0.0
H2260 H 0.2025 0.32281 0.68288 0.0
H2261 H 0.21228 0.33753 0.60072 0.0
C2262 C 0.27655 0.25255 0.5924 0.0
C2263 C 0.28719 0.23193 0.60702 0.0
C2264 C 0.27953 0.22854 0.63324 0.0
C2265 C 0.26236 0.24621 0.64511 0.0
C2266 C 0.25268 0.26677 0.63029 0.0
C2267 C 0.25902 0.2696 0.60432 0.0
C2268 C 0.24587 0.29317 0.59258 0.0
C2269 C 0.26605 0.31284 0.58239 0.0
C2270 C 0.22673 0.28503 0.57109 0.0
C2271 C 0.23165 0.30361 0.61614 0.0
C2272 C 0.23599 0.28828 0.6378 0.0
C2273 C 0.22593 0.29491 0.66214 0.0
C2274 C 0.21067 0.31748 0.66421 0.0
C2275 C 0.20544 0.33283 0.64207 0.0
C2276 C 0.21604 0.32583 0.6178 0.0
H2277 H 0.8417 0.28257 0.87767 0.0
H2278 H 0.79496 0.35248 0.87072 0.0
H2279 H 0.75533 0.32683 0.8796 0.0
H2280 H 0.79561 0.23938 0.84648 0.0
H2281 H 0.80297 0.21247 0.86767 0.0
H2282 H 0.82759 0.23646 0.86057 0.0
H2283 H 0.83372 0.24479 0.90989 0.0
H2284 H 0.80908 0.22092 0.91713 0.0
H2285 H 0.80595 0.25357 0.92946 0.0
H2286 H 0.72046 0.29322 0.88942 0.0
H2287 H 0.69367 0.2545 0.89989 0.0
H2288 H 0.76344 0.20697 0.90006 0.0
C2289 C 0.82317 0.29252 0.87774 0.0
C2290 C 0.82162 0.31966 0.87356 0.0
C2291 C 0.79684 0.33183 0.87424 0.0
C2292 C 0.77413 0.31738 0.87909 0.0
C2293 C 0.77641 0.29071 0.88321 0.0
C2294 C 0.80032 0.27841 0.88256 0.0
C2295 C 0.79754 0.24958 0.88785 0.0
C2296 C 0.80645 0.23353 0.86423 0.0
C2297 C 0.81245 0.24177 0.91255 0.0
C2298 C 0.76837 0.24762 0.89181 0.0
C2299 C 0.75647 0.2715 0.88893 0.0
C2300 C 0.72959 0.27442 0.89172 0.0
C2301 C 0.71453 0.25233 0.89766 0.0
C2302 C 0.72642 0.22772 0.90089 0.0
C2303 C 0.75371 0.22549 0.89784 0.0
H2304 H 0.74329 0.77341 0.56571 0.0
H2305 H 0.72239 0.80531 0.64084 0.0
H2306 H 0.75165 0.77369 0.66233 0.0
H2307 H 0.74525 0.70864 0.58332 0.0
H2308 H 0.77309 0.70011 0.56376 0.0
H2309 H 0.75258 0.72676 0.5542 0.0
H2310 H 0.79239 0.7578 0.55363 0.0
H2311 H 0.81316 0.73113 0.56279 0.0
H2312 H 0.81269 0.76039 0.58207 0.0
H2313 H 0.77826 0.73418 0.67554 0.0
H2314 H 0.80513 0.69421 0.67907 0.0
H2315 H 0.8111 0.6907 0.59523 0.0
C2316 C 0.74547 0.77417 0.58664 0.0
C2317 C 0.73082 0.79182 0.60167 0.0
C2318 C 0.73384 0.79218 0.629 0.0
C2319 C 0.75025 0.77417 0.64135 0.0
C2320 C 0.76389 0.75644 0.62599 0.0
C2321 C 0.76218 0.75679 0.59917 0.0
C2322 C 0.77837 0.7354 0.58706 0.0
C2323 C 0.7613 0.71662 0.57116 0.0
C2324 C 0.80047 0.74687 0.57041 0.0
C2325 C 0.78887 0.72242 0.61124 0.0
C2326 C 0.78017 0.73467 0.63355 0.0
C2327 C 0.78566 0.72481 0.65821 0.0
C2328 C 0.80071 0.70209 0.66006 0.0
C2329 C 0.81035 0.68978 0.63743 0.0
C2330 C 0.80438 0.70017 0.61279 0.0
H2331 H 0.79638 0.70338 0.14948 0.0
H2332 H 0.86585 0.73509 0.11319 0.0
H2333 H 0.83988 0.77066 0.09451 0.0
H2334 H 0.75168 0.7186 0.09697 0.0
H2335 H 0.72517 0.72734 0.11823 0.0
H2336 H 0.74898 0.70386 0.12866 0.0
H2337 H 0.75844 0.73154 0.16966 0.0
H2338 H 0.73466 0.75508 0.15935 0.0
H2339 H 0.76761 0.7652 0.166 0.0
H2340 H 0.8073 0.80234 0.07967 0.0
H2341 H 0.76977 0.83005 0.07021 0.0
H2342 H 0.72006 0.77927 0.11623 0.0
C2343 C 0.80601 0.71773 0.13743 0.0
C2344 C 0.83321 0.7165 0.13285 0.0
C2345 C 0.84518 0.73582 0.11726 0.0
C2346 C 0.83055 0.75601 0.10642 0.0
C2347 C 0.80391 0.75674 0.11139 0.0
C2348 C 0.79166 0.73826 0.12658 0.0
C2349 C 0.76276 0.7442 0.12922 0.0
C2350 C 0.74617 0.72219 0.11757 0.0
C2351 C 0.75544 0.74931 0.15776 0.0
C2352 C 0.76078 0.76886 0.11307 0.0
C2353 C 0.78483 0.77553 0.10296 0.0
C2354 C 0.78835 0.79737 0.08747 0.0
C2355 C 0.76679 0.81301 0.08223 0.0
C2356 C 0.74184 0.80693 0.09247 0.0
C2357 C 0.73882 0.78443 0.10807 0.0
H2358 H 0.21122 0.71116 0.35136 0.0
H2359 H 0.21853 0.65481 0.41381 0.0
H2360 H 0.24795 0.68495 0.43701 0.0
H2361 H 0.27611 0.73306 0.35157 0.0
H2362 H 0.26814 0.76652 0.34493 0.0
H2363 H 0.24693 0.74095 0.33382 0.0
H2364 H 0.20818 0.76226 0.35806 0.0
H2365 H 0.2293 0.78792 0.3693 0.0
H2366 H 0.21085 0.76894 0.39235 0.0
H2367 H 0.27848 0.7201 0.45201 0.0
H2368 H 0.30793 0.75762 0.4579 0.0
H2369 H 0.2788 0.79207 0.38675 0.0
C2370 C 0.21847 0.70517 0.37013 0.0
C2371 C 0.21233 0.68046 0.38075 0.0
C2372 C 0.22304 0.67344 0.40511 0.0
C2373 C 0.23963 0.69053 0.41853 0.0
C2374 C 0.24517 0.71468 0.40743 0.0
C2375 C 0.23485 0.72202 0.38382 0.0
C2376 C 0.24451 0.7487 0.37567 0.0
C2377 C 0.25983 0.7472 0.34998 0.0
C2378 C 0.22186 0.7681 0.37374 0.0
C2379 C 0.2622 0.75516 0.39828 0.0
C2380 C 0.26228 0.73524 0.41639 0.0
C2381 C 0.27831 0.73593 0.43816 0.0
C2382 C 0.29497 0.7573 0.4413 0.0
C2383 C 0.29535 0.77781 0.42293 0.0
C2384 C 0.27842 0.77692 0.40138 0.0
H2385 H 0.70855 0.26006 0.40362 0.0
H2386 H 0.75411 0.18931 0.39762 0.0
H2387 H 0.79283 0.21556 0.38543 0.0
H2388 H 0.73839 0.29369 0.34931 0.0
H2389 H 0.73685 0.32496 0.36506 0.0
H2390 H 0.71287 0.30042 0.37243 0.0
H2391 H 0.72414 0.304 0.42141 0.0
H2392 H 0.74815 0.32851 0.4142 0.0
H2393 H 0.75737 0.29963 0.43176 0.0
H2394 H 0.82692 0.2503 0.37542 0.0
H2395 H 0.85308 0.28987 0.36768 0.0
H2396 H 0.78453 0.33739 0.38065 0.0
C2397 C 0.72662 0.24996 0.39967 0.0
C2398 C 0.72833 0.22259 0.40165 0.0
C2399 C 0.75234 0.21024 0.39619 0.0
C2400 C 0.77441 0.225 0.38927 0.0
C2401 C 0.77202 0.25202 0.38773 0.0
C2402 C 0.74864 0.26432 0.39265 0.0
C2403 C 0.75109 0.29355 0.39002 0.0
C2404 C 0.73377 0.30375 0.36789 0.0
C2405 C 0.74482 0.30721 0.41589 0.0
C2406 C 0.77965 0.29594 0.38323 0.0
C2407 C 0.79141 0.27181 0.3819 0.0
C2408 C 0.81785 0.26925 0.37638 0.0
C2409 C 0.83261 0.29191 0.37219 0.0
C2410 C 0.82096 0.31688 0.37356 0.0
C2411 C 0.79405 0.31871 0.37907 0.0
loop_
_geom_bond_atom_site_label_1
_geom_bond_atom_site_label_2
_geom_bond_distance
_geom_bond_site_symmetry_2
_ccdc_geom_bond_type
C0 C1 1.351 . S
C0 N3 1.368 . S
C0 H5 0.931 . S
C1 C0 1.351 . S
C1 N2 1.373 . S
C1 H29 0.930 1_455 S
N2 C1 1.373 . S
N2 C4 1.340 . S
N3 C0 1.368 . S
N3 C4 1.321 . S
N3 Co6 2.135 . S
C4 N2 1.340 . S
C4 N3 1.321 . S
C4 H28 0.930 . S
H5 C0 0.931 . S
Co6 N3 2.135 . S
Co6 N9 2.121 . S
Co6 O14 2.055 . S
Co6 O17 2.039 . S
Co6 N20 2.140 . S
C7 O8 1.227 . S
C7 O17 1.265 . S
O8 C7 1.227 . S
N9 Co6 2.121 . S
N9 C11 1.375 . S
N9 C12 1.313 . S
C10 C11 1.338 . S
C10 N13 1.377 . S
C10 H30 0.930 . S
C11 N9 1.375 . S
C11 C10 1.338 . S
C11 H15 0.931 . S
C12 N9 1.313 . S
C12 N13 1.344 . S
C12 H16 0.930 . S
N13 C10 1.377 . S
N13 C12 1.344 . S
O14 Co6 2.055 . S
O14 C18 1.253 . S
H15 C11 0.931 . S
H16 C12 0.930 . S
O17 Co6 2.039 . S
O17 C7 1.265 . S
C18 O14 1.253 . S
C18 O19 1.227 . S
O19 C18 1.227 . S
N20 Co6 2.140 . S
N20 C23 1.346 . S
N20 C24 1.345 . S
C21 C22 1.387 . S
C21 C25 1.391 . S
C22 C21 1.387 . S
C22 C23 1.369 . S
C22 H31 0.929 . S
C23 N20 1.346 . S
C23 C22 1.369 . S
C23 H26 0.928 . S
C24 N20 1.345 . S
C24 C25 1.371 . S
C24 H27 0.931 . S
C25 C21 1.391 . S
C25 C24 1.371 . S
C25 H32 0.930 . S
H26 C23 0.928 . S
H27 C24 0.931 . S
H28 C4 0.930 . S
H29 C1 0.930 1_655 S
H30 C10 0.930 . S
H31 C22 0.929 . S
H32 C25 0.930 . S
C33 C34 1.351 . S
C33 N36 1.368 . S
C33 H38 0.931 . S
C34 C33 1.351 . S
C34 N35 1.373 . S
C34 H62 0.930 . S
N35 C34 1.373 . S
N35 C37 1.340 . S
N36 C33 1.368 . S
N36 C37 1.321 . S
N36 Co39 2.135 . S
C37 N35 1.340 . S
C37 N36 1.321 . S
C37 H61 0.930 . S
H38 C33 0.931 . S
Co39 N36 2.135 . S
Co39 N42 2.121 . S
Co39 O47 2.055 . S
Co39 O50 2.039 . S
Co39 N53 2.140 . S
C40 O41 1.227 . S
C40 O50 1.265 . S
O41 C40 1.227 . S
N42 Co39 2.121 . S
N42 C44 1.375 . S
N42 C45 1.313 . S
C43 C44 1.338 . S
C43 N46 1.377 . S
C43 H63 0.930 . S
C44 N42 1.375 . S
C44 C43 1.338 . S
C44 H48 0.931 . S
C45 N42 1.313 . S
C45 N46 1.344 . S
C45 H49 0.930 . S
N46 C43 1.377 . S
N46 C45 1.344 . S
O47 Co39 2.055 . S
O47 C51 1.253 . S
H48 C44 0.931 . S
H49 C45 0.930 . S
O50 Co39 2.039 . S
O50 C40 1.265 . S
C51 O47 1.253 . S
C51 O52 1.227 . S
O52 C51 1.227 . S
N53 Co39 2.140 . S
N53 C56 1.346 . S
N53 C57 1.345 . S
C54 C55 1.387 . S
C54 C58 1.391 . S
C55 C54 1.387 . S
C55 C56 1.369 . S
C55 H64 0.929 . S
C56 N53 1.346 . S
C56 C55 1.369 . S
C56 H59 0.928 . S
C57 N53 1.345 . S
C57 C58 1.371 . S
C57 H60 0.931 . S
C58 C54 1.391 . S
C58 C57 1.371 . S
C58 H65 0.930 . S
H59 C56 0.928 . S
H60 C57 0.931 . S
H61 C37 0.930 . S
H62 C34 0.930 . S
H63 C43 0.930 . S
H64 C55 0.929 . S
H65 C58 0.930 . S
C66 C67 1.351 . S
C66 N69 1.368 . S
C66 H71 0.931 . S
C67 C66 1.351 . S
C67 N68 1.373 . S
C67 H95 0.930 1_655 S
N68 C67 1.373 . S
N68 C70 1.340 . S
N69 C66 1.368 . S
N69 C70 1.321 . S
N69 Co72 2.135 . S
C70 N68 1.340 . S
C70 N69 1.321 . S
C70 H94 0.930 . S
H71 C66 0.931 . S
Co72 N69 2.135 . S
Co72 N75 2.121 . S
Co72 O80 2.055 . S
Co72 O83 2.039 . S
Co72 N86 2.140 . S
C73 O74 1.227 . S
C73 O83 1.265 . S
O74 C73 1.227 . S
N75 Co72 2.121 . S
N75 C77 1.375 . S
N75 C78 1.313 . S
C76 C77 1.338 . S
C76 N79 1.377 . S
C76 H96 0.930 . S
C77 N75 1.375 . S
C77 C76 1.338 . S
C77 H81 0.931 . S
C78 N75 1.313 . S
C78 N79 1.344 . S
C78 H82 0.930 . S
N79 C76 1.377 . S
N79 C78 1.344 . S
O80 Co72 2.055 . S
O80 C84 1.253 . S
H81 C77 0.931 . S
H82 C78 0.930 . S
O83 Co72 2.039 . S
O83 C73 1.265 . S
C84 O80 1.253 . S
C84 O85 1.227 . S
O85 C84 1.227 . S
N86 Co72 2.140 . S
N86 C89 1.346 . S
N86 C90 1.345 . S
C87 C88 1.387 . S
C87 C91 1.391 . S
C88 C87 1.387 . S
C88 C89 1.369 . S
C88 H97 0.929 . S
C89 N86 1.346 . S
C89 C88 1.369 . S
C89 H92 0.928 . S
C90 N86 1.345 . S
C90 C91 1.371 . S
C90 H93 0.931 . S
C91 C87 1.391 . S
C91 C90 1.371 . S
C91 H98 0.930 . S
H92 C89 0.928 . S
H93 C90 0.931 . S
H94 C70 0.930 . S
H95 C67 0.930 1_455 S
H96 C76 0.930 . S
H97 C88 0.929 . S
H98 C91 0.930 . S
C99 C100 1.351 . S
C99 N102 1.368 . S
C99 H104 0.931 . S
C100 C99 1.351 . S
C100 N101 1.373 . S
C100 H128 0.930 . S
N101 C100 1.373 . S
N101 C103 1.340 . S
N102 C99 1.368 . S
N102 C103 1.321 . S
N102 Co105 2.135 . S
C103 N101 1.340 . S
C103 N102 1.321 . S
C103 H127 0.930 . S
H104 C99 0.931 . S
Co105 N102 2.135 . S
Co105 N108 2.121 . S
Co105 O113 2.055 . S
Co105 O116 2.039 . S
Co105 N119 2.140 . S
C106 O107 1.227 . S
C106 O116 1.265 . S
O107 C106 1.227 . S
N108 Co105 2.121 . S
N108 C110 1.375 . S
N108 C111 1.313 . S
C109 C110 1.338 . S
C109 N112 1.377 . S
C109 H129 0.930 . S
C110 N108 1.375 . S
C110 C109 1.338 . S
C110 H114 0.931 . S
C111 N108 1.313 . S
C111 N112 1.344 . S
C111 H115 0.930 . S
N112 C109 1.377 . S
N112 C111 1.344 . S
O113 Co105 2.055 . S
O113 C117 1.253 . S
H114 C110 0.931 . S
H115 C111 0.930 . S
O116 Co105 2.039 . S
O116 C106 1.265 . S
C117 O113 1.253 . S
C117 O118 1.227 . S
O118 C117 1.227 . S
N119 Co105 2.140 . S
N119 C122 1.346 . S
N119 C123 1.345 . S
C120 C121 1.387 . S
C120 C124 1.391 . S
C121 C120 1.387 . S
C121 C122 1.369 . S
C121 H130 0.929 . S
C122 N119 1.346 . S
C122 C121 1.369 . S
C122 H125 0.928 . S
C123 N119 1.345 . S
C123 C124 1.371 . S
C123 H126 0.931 . S
C124 C120 1.391 . S
C124 C123 1.371 . S
C124 H131 0.930 . S
H125 C122 0.928 . S
H126 C123 0.931 . S
H127 C103 0.930 . S
H128 C100 0.930 . S
H129 C109 0.930 . S
H130 C121 0.929 . S
H131 C124 0.930 . S
C132 C133 1.351 . S
C132 N135 1.368 . S
C132 H137 0.931 . S
C133 C132 1.351 . S
C133 N134 1.373 . S
C133 H161 0.930 1_455 S
N134 C133 1.373 . S
N134 C136 1.340 . S
N135 C132 1.368 . S
N135 C136 1.321 . S
N135 Co138 2.135 . S
C136 N134 1.340 . S
C136 N135 1.321 . S
C136 H160 0.930 . S
H137 C132 0.931 . S
Co138 N135 2.135 . S
Co138 N141 2.121 . S
Co138 O146 2.055 . S
Co138 O149 2.039 . S
Co138 N152 2.140 . S
C139 O140 1.227 . S
C139 O149 1.265 . S
O140 C139 1.227 . S
N141 Co138 2.121 . S
N141 C143 1.375 . S
N141 C144 1.313 . S
C142 C143 1.338 . S
C142 N145 1.377 . S
C142 H162 0.930 . S
C143 N141 1.375 . S
C143 C142 1.338 . S
C143 H147 0.931 . S
C144 N141 1.313 . S
C144 N145 1.344 . S
C144 H148 0.930 . S
N145 C142 1.377 . S
N145 C144 1.344 . S
O146 Co138 2.055 . S
O146 C150 1.253 . S
H147 C143 0.931 . S
H148 C144 0.930 . S
O149 Co138 2.039 . S
O149 C139 1.265 . S
C150 O146 1.253 . S
C150 O151 1.227 . S
O151 C150 1.227 . S
N152 Co138 2.140 . S
N152 C155 1.346 . S
N152 C156 1.345 . S
C153 C154 1.387 . S
C153 C157 1.391 . S
C154 C153 1.387 . S
C154 C155 1.369 . S
C154 H163 0.929 . S
C155 N152 1.346 . S
C155 C154 1.369 . S
C155 H158 0.928 . S
C156 N152 1.345 . S
C156 C157 1.371 . S
C156 H159 0.931 . S
C157 C153 1.391 . S
C157 C156 1.371 . S
C157 H164 0.930 . S
H158 C155 0.928 . S
H159 C156 0.931 . S
H160 C136 0.930 . S
H161 C133 0.930 1_655 S
H162 C142 0.930 . S
H163 C154 0.929 . S
H164 C157 0.930 . S
C165 C166 1.351 . S
C165 N168 1.368 . S
C165 H170 0.931 . S
C166 C165 1.351 . S
C166 N167 1.373 . S
C166 H194 0.930 . S
N167 C166 1.373 . S
N167 C169 1.340 . S
N168 C165 1.368 . S
N168 C169 1.321 . S
N168 Co171 2.135 . S
C169 N167 1.340 . S
C169 N168 1.321 . S
C169 H193 0.930 . S
H170 C165 0.931 . S
Co171 N168 2.135 . S
Co171 N174 2.121 . S
Co171 O179 2.055 . S
Co171 O182 2.039 . S
Co171 N185 2.140 . S
C172 O173 1.227 . S
C172 O182 1.265 . S
O173 C172 1.227 . S
N174 Co171 2.121 . S
N174 C176 1.375 . S
N174 C177 1.313 . S
C175 C176 1.338 . S
C175 N178 1.377 . S
C175 H195 0.930 . S
C176 N174 1.375 . S
C176 C175 1.338 . S
C176 H180 0.931 . S
C177 N174 1.313 . S
C177 N178 1.344 . S
C177 H181 0.930 . S
N178 C175 1.377 . S
N178 C177 1.344 . S
O179 Co171 2.055 . S
O179 C183 1.253 . S
H180 C176 0.931 . S
H181 C177 0.930 . S
O182 Co171 2.039 . S
O182 C172 1.265 . S
C183 O179 1.253 . S
C183 O184 1.227 . S
O184 C183 1.227 . S
N185 Co171 2.140 . S
N185 C188 1.346 . S
N185 C189 1.345 . S
C186 C187 1.387 . S
C186 C190 1.391 . S
C187 C186 1.387 . S
C187 C188 1.369 . S
C187 H196 0.929 . S
C188 N185 1.346 . S
C188 C187 1.369 . S
C188 H191 0.928 . S
C189 N185 1.345 . S
C189 C190 1.371 . S
C189 H192 0.931 . S
C190 C186 1.391 . S
C190 C189 1.371 . S
C190 H197 0.930 . S
H191 C188 0.928 . S
H192 C189 0.931 . S
H193 C169 0.930 . S
H194 C166 0.930 . S
H195 C175 0.930 . S
H196 C187 0.929 . S
H197 C190 0.930 . S
C198 C199 1.351 . S
C198 N201 1.368 . S
C198 H203 0.931 . S
C199 C198 1.351 . S
C199 N200 1.373 . S
C199 H227 0.930 1_655 S
N200 C199 1.373 . S
N200 C202 1.340 . S
N201 C198 1.368 . S
N201 C202 1.321 . S
N201 Co204 2.135 . S
C202 N200 1.340 . S
C202 N201 1.321 . S
C202 H226 0.930 . S
H203 C198 0.931 . S
Co204 N201 2.135 . S
Co204 N207 2.121 . S
Co204 O212 2.055 . S
Co204 O215 2.039 . S
Co204 N218 2.140 . S
C205 O206 1.227 . S
C205 O215 1.265 . S
O206 C205 1.227 . S
N207 Co204 2.121 . S
N207 C209 1.375 . S
N207 C210 1.313 . S
C208 C209 1.338 . S
C208 N211 1.377 . S
C208 H228 0.930 . S
C209 N207 1.375 . S
C209 C208 1.338 . S
C209 H213 0.931 . S
C210 N207 1.313 . S
C210 N211 1.344 . S
C210 H214 0.930 . S
N211 C208 1.377 . S
N211 C210 1.344 . S
O212 Co204 2.055 . S
O212 C216 1.253 . S
H213 C209 0.931 . S
H214 C210 0.930 . S
O215 Co204 2.039 . S
O215 C205 1.265 . S
C216 O212 1.253 . S
C216 O217 1.227 . S
O217 C216 1.227 . S
N218 Co204 2.140 . S
N218 C221 1.346 . S
N218 C222 1.345 . S
C219 C220 1.387 . S
C219 C223 1.391 . S
C220 C219 1.387 . S
C220 C221 1.369 . S
C220 H229 0.929 . S
C221 N218 1.346 . S
C221 C220 1.369 . S
C221 H224 0.928 . S
C222 N218 1.345 . S
C222 C223 1.371 . S
C222 H225 0.931 . S
C223 C219 1.391 . S
C223 C222 1.371 . S
C223 H230 0.930 . S
H224 C221 0.928 . S
H225 C222 0.931 . S
H226 C202 0.930 . S
H227 C199 0.930 1_455 S
H228 C208 0.930 . S
H229 C220 0.929 . S
H230 C223 0.930 . S
C231 C232 1.351 . S
C231 N234 1.368 . S
C231 H236 0.931 . S
C232 C231 1.351 . S
C232 N233 1.373 . S
C232 H260 0.930 . S
N233 C232 1.373 . S
N233 C235 1.340 . S
N234 C231 1.368 . S
N234 C235 1.321 . S
N234 Co237 2.135 . S
C235 N233 1.340 . S
C235 N234 1.321 . S
C235 H259 0.930 . S
H236 C231 0.931 . S
Co237 N234 2.135 . S
Co237 N240 2.121 . S
Co237 O245 2.055 . S
Co237 O248 2.039 . S
Co237 N251 2.140 . S
C238 O239 1.227 . S
C238 O248 1.265 . S
O239 C238 1.227 . S
N240 Co237 2.121 . S
N240 C242 1.375 . S
N240 C243 1.313 . S
C241 C242 1.338 . S
C241 N244 1.377 . S
C241 H261 0.930 . S
C242 N240 1.375 . S
C242 C241 1.338 . S
C242 H246 0.931 . S
C243 N240 1.313 . S
C243 N244 1.344 . S
C243 H247 0.930 . S
N244 C241 1.377 . S
N244 C243 1.344 . S
O245 Co237 2.055 . S
O245 C249 1.253 . S
H246 C242 0.931 . S
H247 C243 0.930 . S
O248 Co237 2.039 . S
O248 C238 1.265 . S
C249 O245 1.253 . S
C249 O250 1.227 . S
O250 C249 1.227 . S
N251 Co237 2.140 . S
N251 C254 1.346 . S
N251 C255 1.345 . S
C252 C253 1.387 . S
C252 C256 1.391 . S
C253 C252 1.387 . S
C253 C254 1.369 . S
C253 H262 0.929 . S
C254 N251 1.346 . S
C254 C253 1.369 . S
C254 H257 0.928 . S
C255 N251 1.345 . S
C255 C256 1.371 . S
C255 H258 0.931 . S
C256 C252 1.391 . S
C256 C255 1.371 . S
C256 H263 0.930 . S
H257 C254 0.928 . S
H258 C255 0.931 . S
H259 C235 0.930 . S
H260 C232 0.930 . S
H261 C241 0.930 . S
H262 C253 0.929 . S
H263 C256 0.930 . S
C264 C265 1.351 . S
C264 N267 1.368 . S
C264 H269 0.931 . S
C265 C264 1.351 . S
C265 N266 1.373 . S
C265 H293 0.930 1_545 S
N266 C265 1.373 . S
N266 C268 1.340 . S
N267 C264 1.368 . S
N267 C268 1.321 . S
N267 Co270 2.135 . S
C268 N266 1.340 . S
C268 N267 1.321 . S
C268 H292 0.930 . S
H269 C264 0.931 . S
Co270 N267 2.135 . S
Co270 N273 2.121 . S
Co270 O278 2.055 . S
Co270 O281 2.039 . S
Co270 N284 2.140 . S
C271 O272 1.227 . S
C271 O281 1.265 . S
O272 C271 1.227 . S
N273 Co270 2.121 . S
N273 C275 1.375 . S
N273 C276 1.313 . S
C274 C275 1.338 . S
C274 N277 1.377 . S
C274 H294 0.930 . S
C275 N273 1.375 . S
C275 C274 1.338 . S
C275 H279 0.931 . S
C276 N273 1.313 . S
C276 N277 1.344 . S
C276 H280 0.930 . S
N277 C274 1.377 . S
N277 C276 1.344 . S
O278 Co270 2.055 . S
O278 C282 1.253 . S
H279 C275 0.931 . S
H280 C276 0.930 . S
O281 Co270 2.039 . S
O281 C271 1.265 . S
C282 O278 1.253 . S
C282 O283 1.227 . S
O283 C282 1.227 . S
N284 Co270 2.140 . S
N284 C287 1.346 . S
N284 C288 1.345 . S
C285 C286 1.387 . S
C285 C289 1.391 . S
C286 C285 1.387 . S
C286 C287 1.369 . S
C286 H295 0.929 . S
C287 N284 1.346 . S
C287 C286 1.369 . S
C287 H290 0.928 . S
C288 N284 1.345 . S
C288 C289 1.371 . S
C288 H291 0.931 . S
C289 C285 1.391 . S
C289 C288 1.371 . S
C289 H296 0.930 . S
H290 C287 0.928 . S
H291 C288 0.931 . S
H292 C268 0.930 . S
H293 C265 0.930 1_565 S
H294 C274 0.930 . S
H295 C286 0.929 . S
H296 C289 0.930 . S
C297 C298 1.351 . S
C297 N300 1.368 . S
C297 H302 0.931 . S
C298 C297 1.351 . S
C298 N299 1.373 . S
C298 H326 0.930 . S
N299 C298 1.373 . S
N299 C301 1.340 . S
N300 C297 1.368 . S
N300 C301 1.321 . S
N300 Co303 2.135 . S
C301 N299 1.340 . S
C301 N300 1.321 . S
C301 H325 0.930 . S
H302 C297 0.931 . S
Co303 N300 2.135 . S
Co303 N306 2.121 . S
Co303 O311 2.055 . S
Co303 O314 2.039 . S
Co303 N317 2.140 . S
C304 O305 1.227 . S
C304 O314 1.265 . S
O305 C304 1.227 . S
N306 Co303 2.121 . S
N306 C308 1.375 . S
N306 C309 1.313 . S
C307 C308 1.338 . S
C307 N310 1.377 . S
C307 H327 0.930 . S
C308 N306 1.375 . S
C308 C307 1.338 . S
C308 H312 0.931 . S
C309 N306 1.313 . S
C309 N310 1.344 . S
C309 H313 0.930 . S
N310 C307 1.377 . S
N310 C309 1.344 . S
O311 Co303 2.055 . S
O311 C315 1.253 . S
H312 C308 0.931 . S
H313 C309 0.930 . S
O314 Co303 2.039 . S
O314 C304 1.265 . S
C315 O311 1.253 . S
C315 O316 1.227 . S
O316 C315 1.227 . S
N317 Co303 2.140 . S
N317 C320 1.346 . S
N317 C321 1.345 . S
C318 C319 1.387 . S
C318 C322 1.391 . S
C319 C318 1.387 . S
C319 C320 1.369 . S
C319 H328 0.929 . S
C320 N317 1.346 . S
C320 C319 1.369 . S
C320 H323 0.928 . S
C321 N317 1.345 . S
C321 C322 1.371 . S
C321 H324 0.931 . S
C322 C318 1.391 . S
C322 C321 1.371 . S
C322 H329 0.930 . S
H323 C320 0.928 . S
H324 C321 0.931 . S
H325 C301 0.930 . S
H326 C298 0.930 . S
H327 C307 0.930 . S
H328 C319 0.929 . S
H329 C322 0.930 . S
C330 C331 1.351 . S
C330 N333 1.368 . S
C330 H335 0.931 . S
C331 C330 1.351 . S
C331 N332 1.373 . S
C331 H359 0.930 1_565 S
N332 C331 1.373 . S
N332 C334 1.340 . S
N333 C330 1.368 . S
N333 C334 1.321 . S
N333 Co336 2.135 . S
C334 N332 1.340 . S
C334 N333 1.321 . S
C334 H358 0.930 . S
H335 C330 0.931 . S
Co336 N333 2.135 . S
Co336 N339 2.121 . S
Co336 O344 2.055 . S
Co336 O347 2.039 . S
Co336 N350 2.140 . S
C337 O338 1.227 . S
C337 O347 1.265 . S
O338 C337 1.227 . S
N339 Co336 2.121 . S
N339 C341 1.375 . S
N339 C342 1.313 . S
C340 C341 1.338 . S
C340 N343 1.377 . S
C340 H360 0.930 . S
C341 N339 1.375 . S
C341 C340 1.338 . S
C341 H345 0.931 . S
C342 N339 1.313 . S
C342 N343 1.344 . S
C342 H346 0.930 . S
N343 C340 1.377 . S
N343 C342 1.344 . S
O344 Co336 2.055 . S
O344 C348 1.253 . S
H345 C341 0.931 . S
H346 C342 0.930 . S
O347 Co336 2.039 . S
O347 C337 1.265 . S
C348 O344 1.253 . S
C348 O349 1.227 . S
O349 C348 1.227 . S
N350 Co336 2.140 . S
N350 C353 1.346 . S
N350 C354 1.345 . S
C351 C352 1.387 . S
C351 C355 1.391 . S
C352 C351 1.387 . S
C352 C353 1.369 . S
C352 H361 0.929 . S
C353 N350 1.346 . S
C353 C352 1.369 . S
C353 H356 0.928 . S
C354 N350 1.345 . S
C354 C355 1.371 . S
C354 H357 0.931 . S
C355 C351 1.391 . S
C355 C354 1.371 . S
C355 H362 0.930 . S
H356 C353 0.928 . S
H357 C354 0.931 . S
H358 C334 0.930 . S
H359 C331 0.930 1_545 S
H360 C340 0.930 . S
H361 C352 0.929 . S
H362 C355 0.930 . S
C363 C364 1.351 . S
C363 N366 1.368 . S
C363 H368 0.931 . S
C364 C363 1.351 . S
C364 N365 1.373 . S
C364 H392 0.930 . S
N365 C364 1.373 . S
N365 C367 1.340 . S
N366 C363 1.368 . S
N366 C367 1.321 . S
N366 Co369 2.135 . S
C367 N365 1.340 . S
C367 N366 1.321 . S
C367 H391 0.930 . S
H368 C363 0.931 . S
Co369 N366 2.135 . S
Co369 N372 2.121 . S
Co369 O377 2.055 . S
Co369 O380 2.039 . S
Co369 N383 2.140 . S
C370 O371 1.227 . S
C370 O380 1.265 . S
O371 C370 1.227 . S
N372 Co369 2.121 . S
N372 C374 1.375 . S
N372 C375 1.313 . S
C373 C374 1.338 . S
C373 N376 1.377 . S
C373 H393 0.930 . S
C374 N372 1.375 . S
C374 C373 1.338 . S
C374 H378 0.931 . S
C375 N372 1.313 . S
C375 N376 1.344 . S
C375 H379 0.930 . S
N376 C373 1.377 . S
N376 C375 1.344 . S
O377 Co369 2.055 . S
O377 C381 1.253 . S
H378 C374 0.931 . S
H379 C375 0.930 . S
O380 Co369 2.039 . S
O380 C370 1.265 . S
C381 O377 1.253 . S
C381 O382 1.227 . S
O382 C381 1.227 . S
N383 Co369 2.140 . S
N383 C386 1.346 . S
N383 C387 1.345 . S
C384 C385 1.387 . S
C384 C388 1.391 . S
C385 C384 1.387 . S
C385 C386 1.369 . S
C385 H394 0.929 . S
C386 N383 1.346 . S
C386 C385 1.369 . S
C386 H389 0.928 . S
C387 N383 1.345 . S
C387 C388 1.371 . S
C387 H390 0.931 . S
C388 C384 1.391 . S
C388 C387 1.371 . S
C388 H395 0.930 . S
H389 C386 0.928 . S
H390 C387 0.931 . S
H391 C367 0.930 . S
H392 C364 0.930 . S
H393 C373 0.930 . S
H394 C385 0.929 . S
H395 C388 0.930 . S
C396 C397 1.351 . S
C396 N399 1.368 . S
C396 H401 0.931 . S
C397 C396 1.351 . S
C397 N398 1.373 . S
C397 H425 0.930 1_565 S
N398 C397 1.373 . S
N398 C400 1.340 . S
N399 C396 1.368 . S
N399 C400 1.321 . S
N399 Co402 2.135 . S
C400 N398 1.340 . S
C400 N399 1.321 . S
C400 H424 0.930 . S
H401 C396 0.931 . S
Co402 N399 2.135 . S
Co402 N405 2.121 . S
Co402 O410 2.055 . S
Co402 O413 2.039 . S
Co402 N416 2.140 . S
C403 O404 1.227 . S
C403 O413 1.265 . S
O404 C403 1.227 . S
N405 Co402 2.121 . S
N405 C407 1.375 . S
N405 C408 1.313 . S
C406 C407 1.338 . S
C406 N409 1.377 . S
C406 H426 0.930 . S
C407 N405 1.375 . S
C407 C406 1.338 . S
C407 H411 0.931 . S
C408 N405 1.313 . S
C408 N409 1.344 . S
C408 H412 0.930 . S
N409 C406 1.377 . S
N409 C408 1.344 . S
O410 Co402 2.055 . S
O410 C414 1.253 . S
H411 C407 0.931 . S
H412 C408 0.930 . S
O413 Co402 2.039 . S
O413 C403 1.265 . S
C414 O410 1.253 . S
C414 O415 1.227 . S
O415 C414 1.227 . S
N416 Co402 2.140 . S
N416 C419 1.346 . S
N416 C420 1.345 . S
C417 C418 1.387 . S
C417 C421 1.391 . S
C418 C417 1.387 . S
C418 C419 1.369 . S
C418 H427 0.929 . S
C419 N416 1.346 . S
C419 C418 1.369 . S
C419 H422 0.928 . S
C420 N416 1.345 . S
C420 C421 1.371 . S
C420 H423 0.931 . S
C421 C417 1.391 . S
C421 C420 1.371 . S
C421 H428 0.930 . S
H422 C419 0.928 . S
H423 C420 0.931 . S
H424 C400 0.930 . S
H425 C397 0.930 1_545 S
H426 C406 0.930 . S
H427 C418 0.929 . S
H428 C421 0.930 . S
C429 C430 1.351 . S
C429 N432 1.368 . S
C429 H434 0.931 . S
C430 C429 1.351 . S
C430 N431 1.373 . S
C430 H458 0.930 . S
N431 C430 1.373 . S
N431 C433 1.340 . S
N432 C429 1.368 . S
N432 C433 1.321 . S
N432 Co435 2.135 . S
C433 N431 1.340 . S
C433 N432 1.321 . S
C433 H457 0.930 . S
H434 C429 0.931 . S
Co435 N432 2.135 . S
Co435 N438 2.121 . S
Co435 O443 2.055 . S
Co435 O446 2.039 . S
Co435 N449 2.140 . S
C436 O437 1.227 . S
C436 O446 1.265 . S
O437 C436 1.227 . S
N438 Co435 2.121 . S
N438 C440 1.375 . S
N438 C441 1.313 . S
C439 C440 1.338 . S
C439 N442 1.377 . S
C439 H459 0.930 . S
C440 N438 1.375 . S
C440 C439 1.338 . S
C440 H444 0.931 . S
C441 N438 1.313 . S
C441 N442 1.344 . S
C441 H445 0.930 . S
N442 C439 1.377 . S
N442 C441 1.344 . S
O443 Co435 2.055 . S
O443 C447 1.253 . S
H444 C440 0.931 . S
H445 C441 0.930 . S
O446 Co435 2.039 . S
O446 C436 1.265 . S
C447 O443 1.253 . S
C447 O448 1.227 . S
O448 C447 1.227 . S
N449 Co435 2.140 . S
N449 C452 1.346 . S
N449 C453 1.345 . S
C450 C451 1.387 . S
C450 C454 1.391 . S
C451 C450 1.387 . S
C451 C452 1.369 . S
C451 H460 0.929 . S
C452 N449 1.346 . S
C452 C451 1.369 . S
C452 H455 0.928 . S
C453 N449 1.345 . S
C453 C454 1.371 . S
C453 H456 0.931 . S
C454 C450 1.391 . S
C454 C453 1.371 . S
C454 H461 0.930 . S
H455 C452 0.928 . S
H456 C453 0.931 . S
H457 C433 0.930 . S
H458 C430 0.930 . S
H459 C439 0.930 . S
H460 C451 0.929 . S
H461 C454 0.930 . S
C462 C463 1.351 . S
C462 N465 1.368 . S
C462 H467 0.931 . S
C463 C462 1.351 . S
C463 N464 1.373 . S
C463 H491 0.930 1_545 S
N464 C463 1.373 . S
N464 C466 1.340 . S
N465 C462 1.368 . S
N465 C466 1.321 . S
N465 Co468 2.135 . S
C466 N464 1.340 . S
C466 N465 1.321 . S
C466 H490 0.930 . S
H467 C462 0.931 . S
Co468 N465 2.135 . S
Co468 N471 2.121 . S
Co468 O476 2.055 . S
Co468 O479 2.039 . S
Co468 N482 2.140 . S
C469 O470 1.227 . S
C469 O479 1.265 . S
O470 C469 1.227 . S
N471 Co468 2.121 . S
N471 C473 1.375 . S
N471 C474 1.313 . S
C472 C473 1.338 . S
C472 N475 1.377 . S
C472 H492 0.930 . S
C473 N471 1.375 . S
C473 C472 1.338 . S
C473 H477 0.931 . S
C474 N471 1.313 . S
C474 N475 1.344 . S
C474 H478 0.930 . S
N475 C472 1.377 . S
N475 C474 1.344 . S
O476 Co468 2.055 . S
O476 C480 1.253 . S
H477 C473 0.931 . S
H478 C474 0.930 . S
O479 Co468 2.039 . S
O479 C469 1.265 . S
C480 O476 1.253 . S
C480 O481 1.227 . S
O481 C480 1.227 . S
N482 Co468 2.140 . S
N482 C485 1.346 . S
N482 C486 1.345 . S
C483 C484 1.387 . S
C483 C487 1.391 . S
C484 C483 1.387 . S
C484 C485 1.369 . S
C484 H493 0.929 . S
C485 N482 1.346 . S
C485 C484 1.369 . S
C485 H488 0.928 . S
C486 N482 1.345 . S
C486 C487 1.371 . S
C486 H489 0.931 . S
C487 C483 1.391 . S
C487 C486 1.371 . S
C487 H494 0.930 . S
H488 C485 0.928 . S
H489 C486 0.931 . S
H490 C466 0.930 . S
H491 C463 0.930 1_565 S
H492 C472 0.930 . S
H493 C484 0.929 . S
H494 C487 0.930 . S
C495 C496 1.351 . S
C495 N498 1.368 . S
C495 H500 0.931 . S
C496 C495 1.351 . S
C496 N497 1.373 . S
C496 H524 0.930 . S
N497 C496 1.373 . S
N497 C499 1.340 . S
N498 C495 1.368 . S
N498 C499 1.321 . S
N498 Co501 2.135 . S
C499 N497 1.340 . S
C499 N498 1.321 . S
C499 H523 0.930 . S
H500 C495 0.931 . S
Co501 N498 2.135 . S
Co501 N504 2.121 . S
Co501 O509 2.055 . S
Co501 O512 2.039 . S
Co501 N515 2.140 . S
C502 O503 1.227 . S
C502 O512 1.265 . S
O503 C502 1.227 . S
N504 Co501 2.121 . S
N504 C506 1.375 . S
N504 C507 1.313 . S
C505 C506 1.338 . S
C505 N508 1.377 . S
C505 H525 0.930 . S
C506 N504 1.375 . S
C506 C505 1.338 . S
C506 H510 0.931 . S
C507 N504 1.313 . S
C507 N508 1.344 . S
C507 H511 0.930 . S
N508 C505 1.377 . S
N508 C507 1.344 . S
O509 Co501 2.055 . S
O509 C513 1.253 . S
H510 C506 0.931 . S
H511 C507 0.930 . S
O512 Co501 2.039 . S
O512 C502 1.265 . S
C513 O509 1.253 . S
C513 O514 1.227 . S
O514 C513 1.227 . S
N515 Co501 2.140 . S
N515 C518 1.346 . S
N515 C519 1.345 . S
C516 C517 1.387 . S
C516 C520 1.391 . S
C517 C516 1.387 . S
C517 C518 1.369 . S
C517 H526 0.929 . S
C518 N515 1.346 . S
C518 C517 1.369 . S
C518 H521 0.928 . S
C519 N515 1.345 . S
C519 C520 1.371 . S
C519 H522 0.931 . S
C520 C516 1.391 . S
C520 C519 1.371 . S
C520 H527 0.930 . S
H521 C518 0.928 . S
H522 C519 0.931 . S
H523 C499 0.930 . S
H524 C496 0.930 . S
H525 C505 0.930 . S
H526 C517 0.929 . S
H527 C520 0.930 . S
C528 C529 1.351 . S
C528 N531 1.368 . S
C528 H533 0.931 . S
C529 C528 1.351 . S
C529 N530 1.373 . S
C529 H557 0.930 1_554 S
N530 C529 1.373 . S
N530 C532 1.340 . S
N531 C528 1.368 . S
N531 C532 1.321 . S
N531 Co534 2.135 . S
C532 N530 1.340 . S
C532 N531 1.321 . S
C532 H556 0.930 . S
H533 C528 0.931 . S
Co534 N531 2.135 . S
Co534 N537 2.121 . S
Co534 O542 2.055 . S
Co534 O545 2.039 . S
Co534 N548 2.140 . S
C535 O536 1.227 . S
C535 O545 1.265 . S
O536 C535 1.227 . S
N537 Co534 2.121 . S
N537 C539 1.375 . S
N537 C540 1.313 . S
C538 C539 1.338 . S
C538 N541 1.377 . S
C538 H558 0.930 . S
C539 N537 1.375 . S
C539 C538 1.338 . S
C539 H543 0.931 . S
C540 N537 1.313 . S
C540 N541 1.344 . S
C540 H544 0.930 . S
N541 C538 1.377 . S
N541 C540 1.344 . S
O542 Co534 2.055 . S
O542 C546 1.253 . S
H543 C539 0.931 . S
H544 C540 0.930 . S
O545 Co534 2.039 . S
O545 C535 1.265 . S
C546 O542 1.253 . S
C546 O547 1.227 . S
O547 C546 1.227 . S
N548 Co534 2.140 . S
N548 C551 1.346 . S
N548 C552 1.345 . S
C549 C550 1.387 . S
C549 C553 1.391 . S
C550 C549 1.387 . S
C550 C551 1.369 . S
C550 H559 0.929 . S
C551 N548 1.346 . S
C551 C550 1.369 . S
C551 H554 0.928 . S
C552 N548 1.345 . S
C552 C553 1.371 . S
C552 H555 0.931 . S
C553 C549 1.391 . S
C553 C552 1.371 . S
C553 H560 0.930 . S
H554 C551 0.928 . S
H555 C552 0.931 . S
H556 C532 0.930 . S
H557 C529 0.930 1_556 S
H558 C538 0.930 . S
H559 C550 0.929 . S
H560 C553 0.930 . S
C561 C562 1.351 . S
C561 N564 1.368 . S
C561 H566 0.931 . S
C562 C561 1.351 . S
C562 N563 1.373 . S
C562 H590 0.930 1_556 S
N563 C562 1.373 . S
N563 C565 1.340 . S
N564 C561 1.368 . S
N564 C565 1.321 . S
N564 Co567 2.135 . S
C565 N563 1.340 . S
C565 N564 1.321 . S
C565 H589 0.930 . S
H566 C561 0.931 . S
Co567 N564 2.135 . S
Co567 N570 2.121 . S
Co567 O575 2.055 . S
Co567 O578 2.039 . S
Co567 N581 2.140 . S
C568 O569 1.227 . S
C568 O578 1.265 . S
O569 C568 1.227 . S
N570 Co567 2.121 . S
N570 C572 1.375 . S
N570 C573 1.313 . S
C571 C572 1.338 . S
C571 N574 1.377 . S
C571 H591 0.930 . S
C572 N570 1.375 . S
C572 C571 1.338 . S
C572 H576 0.931 . S
C573 N570 1.313 . S
C573 N574 1.344 . S
C573 H577 0.930 . S
N574 C571 1.377 . S
N574 C573 1.344 . S
O575 Co567 2.055 . S
O575 C579 1.253 . S
H576 C572 0.931 . S
H577 C573 0.930 . S
O578 Co567 2.039 . S
O578 C568 1.265 . S
C579 O575 1.253 . S
C579 O580 1.227 . S
O580 C579 1.227 . S
N581 Co567 2.140 . S
N581 C584 1.346 . S
N581 C585 1.345 . S
C582 C583 1.387 . S
C582 C586 1.391 . S
C583 C582 1.387 . S
C583 C584 1.369 . S
C583 H592 0.929 . S
C584 N581 1.346 . S
C584 C583 1.369 . S
C584 H587 0.928 . S
C585 N581 1.345 . S
C585 C586 1.371 . S
C585 H588 0.931 . S
C586 C582 1.391 . S
C586 C585 1.371 . S
C586 H593 0.930 . S
H587 C584 0.928 . S
H588 C585 0.931 . S
H589 C565 0.930 . S
H590 C562 0.930 1_554 S
H591 C571 0.930 . S
H592 C583 0.929 . S
H593 C586 0.930 . S
C594 C595 1.351 . S
C594 N597 1.368 . S
C594 H599 0.931 . S
C595 C594 1.351 . S
C595 N596 1.373 . S
C595 H623 0.930 . S
N596 C595 1.373 . S
N596 C598 1.340 . S
N597 C594 1.368 . S
N597 C598 1.321 . S
N597 Co600 2.135 . S
C598 N596 1.340 . S
C598 N597 1.321 . S
C598 H622 0.930 . S
H599 C594 0.931 . S
Co600 N597 2.135 . S
Co600 N603 2.121 . S
Co600 O608 2.055 . S
Co600 O611 2.039 . S
Co600 N614 2.140 . S
C601 O602 1.227 . S
C601 O611 1.265 . S
O602 C601 1.227 . S
N603 Co600 2.121 . S
N603 C605 1.375 . S
N603 C606 1.313 . S
C604 C605 1.338 . S
C604 N607 1.377 . S
C604 H624 0.930 . S
C605 N603 1.375 . S
C605 C604 1.338 . S
C605 H609 0.931 . S
C606 N603 1.313 . S
C606 N607 1.344 . S
C606 H610 0.930 . S
N607 C604 1.377 . S
N607 C606 1.344 . S
O608 Co600 2.055 . S
O608 C612 1.253 . S
H609 C605 0.931 . S
H610 C606 0.930 . S
O611 Co600 2.039 . S
O611 C601 1.265 . S
C612 O608 1.253 . S
C612 O613 1.227 . S
O613 C612 1.227 . S
N614 Co600 2.140 . S
N614 C617 1.346 . S
N614 C618 1.345 . S
C615 C616 1.387 . S
C615 C619 1.391 . S
C616 C615 1.387 . S
C616 C617 1.369 . S
C616 H625 0.929 . S
C617 N614 1.346 . S
C617 C616 1.369 . S
C617 H620 0.928 . S
C618 N614 1.345 . S
C618 C619 1.371 . S
C618 H621 0.931 . S
C619 C615 1.391 . S
C619 C618 1.371 . S
C619 H626 0.930 . S
H620 C617 0.928 . S
H621 C618 0.931 . S
H622 C598 0.930 . S
H623 C595 0.930 . S
H624 C604 0.930 . S
H625 C616 0.929 . S
H626 C619 0.930 . S
C627 C628 1.351 . S
C627 N630 1.368 . S
C627 H632 0.931 . S
C628 C627 1.351 . S
C628 N629 1.373 . S
C628 H656 0.930 1_556 S
N629 C628 1.373 . S
N629 C631 1.340 . S
N630 C627 1.368 . S
N630 C631 1.321 . S
N630 Co633 2.135 . S
C631 N629 1.340 . S
C631 N630 1.321 . S
C631 H655 0.930 . S
H632 C627 0.931 . S
Co633 N630 2.135 . S
Co633 N636 2.121 . S
Co633 O641 2.055 . S
Co633 O644 2.039 . S
Co633 N647 2.140 . S
C634 O635 1.227 . S
C634 O644 1.265 . S
O635 C634 1.227 . S
N636 Co633 2.121 . S
N636 C638 1.375 . S
N636 C639 1.313 . S
C637 C638 1.338 . S
C637 N640 1.377 . S
C637 H657 0.930 . S
C638 N636 1.375 . S
C638 C637 1.338 . S
C638 H642 0.931 . S
C639 N636 1.313 . S
C639 N640 1.344 . S
C639 H643 0.930 . S
N640 C637 1.377 . S
N640 C639 1.344 . S
O641 Co633 2.055 . S
O641 C645 1.253 . S
H642 C638 0.931 . S
H643 C639 0.930 . S
O644 Co633 2.039 . S
O644 C634 1.265 . S
C645 O641 1.253 . S
C645 O646 1.227 . S
O646 C645 1.227 . S
N647 Co633 2.140 . S
N647 C650 1.346 . S
N647 C651 1.345 . S
C648 C649 1.387 . S
C648 C652 1.391 . S
C649 C648 1.387 . S
C649 C650 1.369 . S
C649 H658 0.929 . S
C650 N647 1.346 . S
C650 C649 1.369 . S
C650 H653 0.928 . S
C651 N647 1.345 . S
C651 C652 1.371 . S
C651 H654 0.931 . S
C652 C648 1.391 . S
C652 C651 1.371 . S
C652 H659 0.930 . S
H653 C650 0.928 . S
H654 C651 0.931 . S
H655 C631 0.930 . S
H656 C628 0.930 1_554 S
H657 C637 0.930 . S
H658 C649 0.929 . S
H659 C652 0.930 . S
C660 C661 1.351 . S
C660 N663 1.368 . S
C660 H665 0.931 . S
C661 C660 1.351 . S
C661 N662 1.373 . S
C661 H689 0.930 . S
N662 C661 1.373 . S
N662 C664 1.340 . S
N663 C660 1.368 . S
N663 C664 1.321 . S
N663 Co666 2.135 . S
C664 N662 1.340 . S
C664 N663 1.321 . S
C664 H688 0.930 . S
H665 C660 0.931 . S
Co666 N663 2.135 . S
Co666 N669 2.121 . S
Co666 O674 2.055 . S
Co666 O677 2.039 . S
Co666 N680 2.140 . S
C667 O668 1.227 . S
C667 O677 1.265 . S
O668 C667 1.227 . S
N669 Co666 2.121 . S
N669 C671 1.375 . S
N669 C672 1.313 . S
C670 C671 1.338 . S
C670 N673 1.377 . S
C670 H690 0.930 . S
C671 N669 1.375 . S
C671 C670 1.338 . S
C671 H675 0.931 . S
C672 N669 1.313 . S
C672 N673 1.344 . S
C672 H676 0.930 . S
N673 C670 1.377 . S
N673 C672 1.344 . S
O674 Co666 2.055 . S
O674 C678 1.253 . S
H675 C671 0.931 . S
H676 C672 0.930 . S
O677 Co666 2.039 . S
O677 C667 1.265 . S
C678 O674 1.253 . S
C678 O679 1.227 . S
O679 C678 1.227 . S
N680 Co666 2.140 . S
N680 C683 1.346 . S
N680 C684 1.345 . S
C681 C682 1.387 . S
C681 C685 1.391 . S
C682 C681 1.387 . S
C682 C683 1.369 . S
C682 H691 0.929 . S
C683 N680 1.346 . S
C683 C682 1.369 . S
C683 H686 0.928 . S
C684 N680 1.345 . S
C684 C685 1.371 . S
C684 H687 0.931 . S
C685 C681 1.391 . S
C685 C684 1.371 . S
C685 H692 0.930 . S
H686 C683 0.928 . S
H687 C684 0.931 . S
H688 C664 0.930 . S
H689 C661 0.930 . S
H690 C670 0.930 . S
H691 C682 0.929 . S
H692 C685 0.930 . S
C693 C694 1.351 . S
C693 N696 1.368 . S
C693 H698 0.931 . S
C694 C693 1.351 . S
C694 N695 1.373 . S
C694 H722 0.930 1_554 S
N695 C694 1.373 . S
N695 C697 1.340 . S
N696 C693 1.368 . S
N696 C697 1.321 . S
N696 Co699 2.135 . S
C697 N695 1.340 . S
C697 N696 1.321 . S
C697 H721 0.930 . S
H698 C693 0.931 . S
Co699 N696 2.135 . S
Co699 N702 2.121 . S
Co699 O707 2.055 . S
Co699 O710 2.039 . S
Co699 N713 2.140 . S
C700 O701 1.227 . S
C700 O710 1.265 . S
O701 C700 1.227 . S
N702 Co699 2.121 . S
N702 C704 1.375 . S
N702 C705 1.313 . S
C703 C704 1.338 . S
C703 N706 1.377 . S
C703 H723 0.930 . S
C704 N702 1.375 . S
C704 C703 1.338 . S
C704 H708 0.931 . S
C705 N702 1.313 . S
C705 N706 1.344 . S
C705 H709 0.930 . S
N706 C703 1.377 . S
N706 C705 1.344 . S
O707 Co699 2.055 . S
O707 C711 1.253 . S
H708 C704 0.931 . S
H709 C705 0.930 . S
O710 Co699 2.039 . S
O710 C700 1.265 . S
C711 O707 1.253 . S
C711 O712 1.227 . S
O712 C711 1.227 . S
N713 Co699 2.140 . S
N713 C716 1.346 . S
N713 C717 1.345 . S
C714 C715 1.387 . S
C714 C718 1.391 . S
C715 C714 1.387 . S
C715 C716 1.369 . S
C715 H724 0.929 . S
C716 N713 1.346 . S
C716 C715 1.369 . S
C716 H719 0.928 . S
C717 N713 1.345 . S
C717 C718 1.371 . S
C717 H720 0.931 . S
C718 C714 1.391 . S
C718 C717 1.371 . S
C718 H725 0.930 . S
H719 C716 0.928 . S
H720 C717 0.931 . S
H721 C697 0.930 . S
H722 C694 0.930 1_556 S
H723 C703 0.930 . S
H724 C715 0.929 . S
H725 C718 0.930 . S
C726 C727 1.351 . S
C726 N729 1.368 . S
C726 H731 0.931 . S
C727 C726 1.351 . S
C727 N728 1.373 . S
C727 H755 0.930 . S
N728 C727 1.373 . S
N728 C730 1.340 . S
N729 C726 1.368 . S
N729 C730 1.321 . S
N729 Co732 2.135 . S
C730 N728 1.340 . S
C730 N729 1.321 . S
C730 H754 0.930 . S
H731 C726 0.931 . S
Co732 N729 2.135 . S
Co732 N735 2.121 . S
Co732 O740 2.055 . S
Co732 O743 2.039 . S
Co732 N746 2.140 . S
C733 O734 1.227 . S
C733 O743 1.265 . S
O734 C733 1.227 . S
N735 Co732 2.121 . S
N735 C737 1.375 . S
N735 C738 1.313 . S
C736 C737 1.338 . S
C736 N739 1.377 . S
C736 H756 0.930 . S
C737 N735 1.375 . S
C737 C736 1.338 . S
C737 H741 0.931 . S
C738 N735 1.313 . S
C738 N739 1.344 . S
C738 H742 0.930 . S
N739 C736 1.377 . S
N739 C738 1.344 . S
O740 Co732 2.055 . S
O740 C744 1.253 . S
H741 C737 0.931 . S
H742 C738 0.930 . S
O743 Co732 2.039 . S
O743 C733 1.265 . S
C744 O740 1.253 . S
C744 O745 1.227 . S
O745 C744 1.227 . S
N746 Co732 2.140 . S
N746 C749 1.346 . S
N746 C750 1.345 . S
C747 C748 1.387 . S
C747 C751 1.391 . S
C748 C747 1.387 . S
C748 C749 1.369 . S
C748 H757 0.929 . S
C749 N746 1.346 . S
C749 C748 1.369 . S
C749 H752 0.928 . S
C750 N746 1.345 . S
C750 C751 1.371 . S
C750 H753 0.931 . S
C751 C747 1.391 . S
C751 C750 1.371 . S
C751 H758 0.930 . S
H752 C749 0.928 . S
H753 C750 0.931 . S
H754 C730 0.930 . S
H755 C727 0.930 . S
H756 C736 0.930 . S
H757 C748 0.929 . S
H758 C751 0.930 . S
C759 C760 1.351 . S
C759 N762 1.368 . S
C759 H764 0.931 . S
C760 C759 1.351 . S
C760 N761 1.373 . S
C760 H788 0.930 . S
N761 C760 1.373 . S
N761 C763 1.340 . S
N762 C759 1.368 . S
N762 C763 1.321 . S
N762 Co765 2.135 . S
C763 N761 1.340 . S
C763 N762 1.321 . S
C763 H787 0.930 . S
H764 C759 0.931 . S
Co765 N762 2.135 . S
Co765 N768 2.121 . S
Co765 O773 2.055 . S
Co765 O776 2.039 . S
Co765 N779 2.140 . S
C766 O767 1.227 . S
C766 O776 1.265 . S
O767 C766 1.227 . S
N768 Co765 2.121 . S
N768 C770 1.375 . S
N768 C771 1.313 . S
C769 C770 1.338 . S
C769 N772 1.377 . S
C769 H789 0.930 . S
C770 N768 1.375 . S
C770 C769 1.338 . S
C770 H774 0.931 . S
C771 N768 1.313 . S
C771 N772 1.344 . S
C771 H775 0.930 . S
N772 C769 1.377 . S
N772 C771 1.344 . S
O773 Co765 2.055 . S
O773 C777 1.253 . S
H774 C770 0.931 . S
H775 C771 0.930 . S
O776 Co765 2.039 . S
O776 C766 1.265 . S
C777 O773 1.253 . S
C777 O778 1.227 . S
O778 C777 1.227 . S
N779 Co765 2.140 . S
N779 C782 1.346 . S
N779 C783 1.345 . S
C780 C781 1.387 . S
C780 C784 1.391 . S
C781 C780 1.387 . S
C781 C782 1.369 . S
C781 H790 0.929 . S
C782 N779 1.346 . S
C782 C781 1.369 . S
C782 H785 0.928 . S
C783 N779 1.345 . S
C783 C784 1.371 . S
C783 H786 0.931 . S
C784 C780 1.391 . S
C784 C783 1.371 . S
C784 H791 0.930 . S
H785 C782 0.928 . S
H786 C783 0.931 . S
H787 C763 0.930 . S
H788 C760 0.930 . S
H789 C769 0.930 . S
H790 C781 0.929 . S
H791 C784 0.930 . S
H792 C804 0.930 . S
H793 C806 0.930 . S
H794 C807 0.930 . S
H795 C811 0.959 . S
H796 C811 0.959 . S
H797 C811 0.961 . S
H798 C812 0.960 . S
H799 C812 0.961 . S
H800 C812 0.959 . S
H801 C815 0.929 . S
H802 C816 0.931 . S
H803 C818 0.930 . S
C804 H792 0.930 . S
C804 C805 1.399 . S
C804 C809 1.399 . S
C805 C804 1.399 . S
C805 C806 1.376 . S
C806 H793 0.930 . S
C806 C805 1.376 . S
C806 C807 1.388 . S
C807 H794 0.930 . S
C807 C806 1.388 . S
C807 C808 1.390 . S
C808 C807 1.390 . S
C808 C809 1.394 . S
C808 C814 1.465 . S
C809 C804 1.399 . S
C809 C808 1.394 . S
C809 C810 1.516 . S
C810 C809 1.516 . S
C810 C811 1.502 . S
C810 C812 1.561 . S
C810 C813 1.526 . S
C811 H795 0.959 . S
C811 H796 0.959 . S
C811 H797 0.961 . S
C811 C810 1.502 . S
C812 H798 0.960 . S
C812 H799 0.961 . S
C812 H800 0.959 . S
C812 C810 1.561 . S
C813 C810 1.526 . S
C813 C814 1.396 . S
C813 C818 1.390 . S
C814 C808 1.465 . S
C814 C813 1.396 . S
C814 C815 1.399 . S
C815 H801 0.929 . S
C815 C814 1.399 . S
C815 C816 1.385 . S
C816 H802 0.931 . S
C816 C815 1.385 . S
C816 C817 1.389 . S
C817 C816 1.389 . S
C817 C818 1.387 . S
C818 H803 0.930 . S
C818 C813 1.390 . S
C818 C817 1.387 . S
H819 C831 0.930 . S
H820 C833 0.930 1_455 S
H821 C834 0.930 . S
H822 C838 0.959 . S
H823 C838 0.959 . S
H824 C838 0.961 . S
H825 C839 0.960 . S
H826 C839 0.961 . S
H827 C839 0.959 . S
H828 C842 0.929 . S
H829 C843 0.931 . S
H830 C845 0.930 . S
C831 H819 0.930 . S
C831 C832 1.399 . S
C831 C836 1.399 . S
C832 C831 1.399 . S
C832 C833 1.376 . S
C833 H820 0.930 1_655 S
C833 C832 1.376 . S
C833 C834 1.388 . S
C834 H821 0.930 . S
C834 C833 1.388 . S
C834 C835 1.390 . S
C835 C834 1.390 . S
C835 C836 1.394 . S
C835 C841 1.465 . S
C836 C831 1.399 . S
C836 C835 1.394 . S
C836 C837 1.516 . S
C837 C836 1.516 . S
C837 C838 1.502 . S
C837 C839 1.561 . S
C837 C840 1.526 . S
C838 H822 0.959 . S
C838 H823 0.959 . S
C838 H824 0.961 . S
C838 C837 1.502 . S
C839 H825 0.960 . S
C839 H826 0.961 . S
C839 H827 0.959 . S
C839 C837 1.561 . S
C840 C837 1.526 . S
C840 C841 1.396 . S
C840 C845 1.390 . S
C841 C835 1.465 . S
C841 C840 1.396 . S
C841 C842 1.399 . S
C842 H828 0.929 . S
C842 C841 1.399 . S
C842 C843 1.385 . S
C843 H829 0.931 . S
C843 C842 1.385 . S
C843 C844 1.389 . S
C844 C843 1.389 . S
C844 C845 1.387 . S
C845 H830 0.930 . S
C845 C840 1.390 . S
C845 C844 1.387 . S
H846 C858 0.930 . S
H847 C860 0.930 . S
H848 C861 0.930 . S
H849 C865 0.959 . S
H850 C865 0.959 . S
H851 C865 0.961 . S
H852 C866 0.960 . S
H853 C866 0.961 . S
H854 C866 0.959 . S
H855 C869 0.929 . S
H856 C870 0.931 . S
H857 C872 0.930 . S
C858 H846 0.930 . S
C858 C859 1.399 . S
C858 C863 1.399 . S
C859 C858 1.399 . S
C859 C860 1.376 . S
C860 H847 0.930 . S
C860 C859 1.376 . S
C860 C861 1.388 . S
C861 H848 0.930 . S
C861 C860 1.388 . S
C861 C862 1.390 . S
C862 C861 1.390 . S
C862 C863 1.394 . S
C862 C868 1.465 . S
C863 C858 1.399 . S
C863 C862 1.394 . S
C863 C864 1.516 . S
C864 C863 1.516 . S
C864 C865 1.502 . S
C864 C866 1.561 . S
C864 C867 1.526 . S
C865 H849 0.959 . S
C865 H850 0.959 . S
C865 H851 0.961 . S
C865 C864 1.502 . S
C866 H852 0.960 . S
C866 H853 0.961 . S
C866 H854 0.959 . S
C866 C864 1.561 . S
C867 C864 1.526 . S
C867 C868 1.396 . S
C867 C872 1.390 . S
C868 C862 1.465 . S
C868 C867 1.396 . S
C868 C869 1.399 . S
C869 H855 0.929 . S
C869 C868 1.399 . S
C869 C870 1.385 . S
C870 H856 0.931 . S
C870 C869 1.385 . S
C870 C871 1.389 . S
C871 C870 1.389 . S
C871 C872 1.387 . S
C872 H857 0.930 . S
C872 C867 1.390 . S
C872 C871 1.387 . S
H873 C885 0.930 . S
H874 C887 0.930 . S
H875 C888 0.930 . S
H876 C892 0.959 . S
H877 C892 0.959 . S
H878 C892 0.961 . S
H879 C893 0.960 . S
H880 C893 0.961 . S
H881 C893 0.959 . S
H882 C896 0.929 . S
H883 C897 0.921 1_655 S
H884 C899 0.930 . S
C885 H873 0.930 . S
C885 C886 1.399 . S
C885 C890 1.399 . S
C886 C885 1.399 . S
C886 C887 1.376 . S
C887 H874 0.930 . S
C887 C886 1.376 . S
C887 C888 1.388 . S
C888 H875 0.930 . S
C888 C887 1.388 . S
C888 C889 1.390 . S
C889 C888 1.390 . S
C889 C890 1.394 . S
C889 C895 1.465 . S
C890 C885 1.399 . S
C890 C889 1.394 . S
C890 C891 1.516 . S
C891 C890 1.516 . S
C891 C892 1.502 . S
C891 C893 1.561 . S
C891 C894 1.526 . S
C892 H876 0.959 . S
C892 H877 0.959 . S
C892 H878 0.961 . S
C892 C891 1.502 . S
C893 H879 0.960 . S
C893 H880 0.961 . S
C893 H881 0.959 . S
C893 C891 1.561 . S
C894 C891 1.526 . S
C894 C895 1.396 . S
C894 C899 1.390 . S
C895 C889 1.465 . S
C895 C894 1.396 . S
C895 C896 1.399 . S
C896 H882 0.929 . S
C896 C895 1.399 . S
C896 C897 1.385 . S
C897 H883 0.921 1_455 S
C897 C896 1.385 . S
C897 C898 1.389 . S
C898 C897 1.389 . S
C898 C899 1.387 . S
C899 H884 0.930 . S
C899 C894 1.390 . S
C899 C898 1.387 . S
H900 C912 0.930 . S
H901 C914 0.930 . S
H902 C915 0.930 . S
H903 C919 0.959 . S
H904 C919 0.959 . S
H905 C919 0.961 . S
H906 C920 0.960 . S
H907 C920 0.961 . S
H908 C920 0.959 . S
H909 C923 0.929 . S
H910 C924 0.931 . S
H911 C926 0.930 . S
C912 H900 0.930 . S
C912 C913 1.399 . S
C912 C917 1.399 . S
C913 C912 1.399 . S
C913 C914 1.376 . S
C914 H901 0.930 . S
C914 C913 1.376 . S
C914 C915 1.388 . S
C915 H902 0.930 . S
C915 C914 1.388 . S
C915 C916 1.390 . S
C916 C915 1.390 . S
C916 C917 1.394 . S
C916 C922 1.465 . S
C917 C912 1.399 . S
C917 C916 1.394 . S
C917 C918 1.516 . S
C918 C917 1.516 . S
C918 C919 1.502 . S
C918 C920 1.561 . S
C918 C921 1.526 . S
C919 H903 0.959 . S
C919 H904 0.959 . S
C919 H905 0.961 . S
C919 C918 1.502 . S
C920 H906 0.960 . S
C920 H907 0.961 . S
C920 H908 0.959 . S
C920 C918 1.561 . S
C921 C918 1.526 . S
C921 C922 1.396 . S
C921 C926 1.390 . S
C922 C916 1.465 . S
C922 C921 1.396 . S
C922 C923 1.399 . S
C923 H909 0.929 . S
C923 C922 1.399 . S
C923 C924 1.385 . S
C924 H910 0.931 . S
C924 C923 1.385 . S
C924 C925 1.389 . S
C925 C924 1.389 . S
C925 C926 1.387 . S
C926 H911 0.930 . S
C926 C921 1.390 . S
C926 C925 1.387 . S
H927 C939 0.930 . S
H928 C941 0.930 . S
H929 C942 0.930 . S
H930 C946 0.959 . S
H931 C946 0.959 . S
H932 C946 0.961 . S
H933 C947 0.960 . S
H934 C947 0.961 . S
H935 C947 0.959 . S
H936 C950 0.929 . S
H937 C951 0.931 . S
H938 C953 0.930 . S
C939 H927 0.930 . S
C939 C940 1.399 . S
C939 C944 1.399 . S
C940 C939 1.399 . S
C940 C941 1.376 . S
C941 H928 0.930 . S
C941 C940 1.376 . S
C941 C942 1.388 . S
C942 H929 0.930 . S
C942 C941 1.388 . S
C942 C943 1.390 . S
C943 C942 1.390 . S
C943 C944 1.394 . S
C943 C949 1.465 . S
C944 C939 1.399 . S
C944 C943 1.394 . S
C944 C945 1.516 . S
C945 C944 1.516 . S
C945 C946 1.502 . S
C945 C947 1.561 . S
C945 C948 1.526 . S
C946 H930 0.959 . S
C946 H931 0.959 . S
C946 H932 0.961 . S
C946 C945 1.502 . S
C947 H933 0.960 . S
C947 H934 0.961 . S
C947 H935 0.959 . S
C947 C945 1.561 . S
C948 C945 1.526 . S
C948 C949 1.396 . S
C948 C953 1.390 . S
C949 C943 1.465 . S
C949 C948 1.396 . S
C949 C950 1.399 . S
C950 H936 0.929 . S
C950 C949 1.399 . S
C950 C951 1.385 . S
C951 H937 0.931 . S
C951 C950 1.385 . S
C951 C952 1.389 . S
C952 C951 1.389 . S
C952 C953 1.387 . S
C953 H938 0.930 . S
C953 C948 1.390 . S
C953 C952 1.387 . S
H954 C966 0.930 . S
H955 C968 0.930 . S
H956 C969 0.930 . S
H957 C973 0.959 . S
H958 C973 0.959 . S
H959 C973 0.961 . S
H960 C974 0.960 . S
H961 C974 0.961 . S
H962 C974 0.959 . S
H963 C977 0.929 . S
H964 C978 0.931 . S
H965 C980 0.930 . S
C966 H954 0.930 . S
C966 C967 1.399 . S
C966 C971 1.399 . S
C967 C966 1.399 . S
C967 C968 1.376 . S
C968 H955 0.930 . S
C968 C967 1.376 . S
C968 C969 1.388 . S
C969 H956 0.930 . S
C969 C968 1.388 . S
C969 C970 1.390 . S
C970 C969 1.390 . S
C970 C971 1.394 . S
C970 C976 1.465 . S
C971 C966 1.399 . S
C971 C970 1.394 . S
C971 C972 1.516 . S
C972 C971 1.516 . S
C972 C973 1.502 . S
C972 C974 1.561 . S
C972 C975 1.526 . S
C973 H957 0.959 . S
C973 H958 0.959 . S
C973 H959 0.961 . S
C973 C972 1.502 . S
C974 H960 0.960 . S
C974 H961 0.961 . S
C974 H962 0.959 . S
C974 C972 1.561 . S
C975 C972 1.526 . S
C975 C976 1.396 . S
C975 C980 1.390 . S
C976 C970 1.465 . S
C976 C975 1.396 . S
C976 C977 1.399 . S
C977 H963 0.929 . S
C977 C976 1.399 . S
C977 C978 1.385 . S
C978 H964 0.931 . S
C978 C977 1.385 . S
C978 C979 1.389 . S
C979 C978 1.389 . S
C979 C980 1.387 . S
C980 H965 0.930 . S
C980 C975 1.390 . S
C980 C979 1.387 . S
H981 C993 0.930 . S
H982 C995 0.930 . S
H983 C996 0.930 . S
H984 C1000 0.959 . S
H985 C1000 0.959 . S
H986 C1000 0.961 . S
H987 C1001 0.960 . S
H988 C1001 0.961 . S
H989 C1001 0.959 . S
H990 C1004 0.929 . S
H991 C1005 0.931 . S
H992 C1007 0.930 . S
C993 H981 0.930 . S
C993 C994 1.399 . S
C993 C998 1.399 . S
C994 C993 1.399 . S
C994 C995 1.376 . S
C995 H982 0.930 . S
C995 C994 1.376 . S
C995 C996 1.388 . S
C996 H983 0.930 . S
C996 C995 1.388 . S
C996 C997 1.390 . S
C997 C996 1.390 . S
C997 C998 1.394 . S
C997 C1003 1.465 . S
C998 C993 1.399 . S
C998 C997 1.394 . S
C998 C999 1.516 . S
C999 C998 1.516 . S
C999 C1000 1.502 . S
C999 C1001 1.561 . S
C999 C1002 1.526 . S
C1000 H984 0.959 . S
C1000 H985 0.959 . S
C1000 H986 0.961 . S
C1000 C999 1.502 . S
C1001 H987 0.960 . S
C1001 H988 0.961 . S
C1001 H989 0.959 . S
C1001 C999 1.561 . S
C1002 C999 1.526 . S
C1002 C1003 1.396 . S
C1002 C1007 1.390 . S
C1003 C997 1.465 . S
C1003 C1002 1.396 . S
C1003 C1004 1.399 . S
C1004 H990 0.929 . S
C1004 C1003 1.399 . S
C1004 C1005 1.385 . S
C1005 H991 0.931 . S
C1005 C1004 1.385 . S
C1005 C1006 1.389 . S
C1006 C1005 1.389 . S
C1006 C1007 1.387 . S
C1007 H992 0.930 . S
C1007 C1002 1.390 . S
C1007 C1006 1.387 . S
H1008 C1020 0.930 . S
H1009 C1022 0.930 . S
H1010 C1023 0.930 . S
H1011 C1027 0.959 . S
H1012 C1027 0.959 . S
H1013 C1027 0.961 . S
H1014 C1028 0.960 . S
H1015 C1028 0.961 . S
H1016 C1028 0.959 . S
H1017 C1031 0.929 . S
H1018 C1032 0.931 . S
H1019 C1034 0.930 . S
C1020 H1008 0.930 . S
C1020 C1021 1.399 . S
C1020 C1025 1.399 . S
C1021 C1020 1.399 . S
C1021 C1022 1.376 . S
C1022 H1009 0.930 . S
C1022 C1021 1.376 . S
C1022 C1023 1.388 . S
C1023 H1010 0.930 . S
C1023 C1022 1.388 . S
C1023 C1024 1.390 . S
C1024 C1023 1.390 . S
C1024 C1025 1.394 . S
C1024 C1030 1.465 . S
C1025 C1020 1.399 . S
C1025 C1024 1.394 . S
C1025 C1026 1.516 . S
C1026 C1025 1.516 . S
C1026 C1027 1.502 . S
C1026 C1028 1.561 . S
C1026 C1029 1.526 . S
C1027 H1011 0.959 . S
C1027 H1012 0.959 . S
C1027 H1013 0.961 . S
C1027 C1026 1.502 . S
C1028 H1014 0.960 . S
C1028 H1015 0.961 . S
C1028 H1016 0.959 . S
C1028 C1026 1.561 . S
C1029 C1026 1.526 . S
C1029 C1030 1.396 . S
C1029 C1034 1.390 . S
C1030 C1024 1.465 . S
C1030 C1029 1.396 . S
C1030 C1031 1.399 . S
C1031 H1017 0.929 . S
C1031 C1030 1.399 . S
C1031 C1032 1.385 . S
C1032 H1018 0.931 . S
C1032 C1031 1.385 . S
C1032 C1033 1.389 . S
C1033 C1032 1.389 . S
C1033 C1034 1.387 . S
C1034 H1019 0.930 . S
C1034 C1029 1.390 . S
C1034 C1033 1.387 . S
H1035 C1047 0.930 . S
H1036 C1049 0.930 . S
H1037 C1050 0.930 . S
H1038 C1054 0.959 . S
H1039 C1054 0.959 . S
H1040 C1054 0.961 . S
H1041 C1055 0.960 . S
H1042 C1055 0.961 . S
H1043 C1055 0.959 . S
H1044 C1058 0.929 . S
H1045 C1059 0.931 . S
H1046 C1061 0.930 1_556 S
C1047 H1035 0.930 . S
C1047 C1048 1.399 . S
C1047 C1052 1.399 . S
C1048 C1047 1.399 . S
C1048 C1049 1.376 . S
C1049 H1036 0.930 . S
C1049 C1048 1.376 . S
C1049 C1050 1.388 . S
C1050 H1037 0.930 . S
C1050 C1049 1.388 . S
C1050 C1051 1.390 . S
C1051 C1050 1.390 . S
C1051 C1052 1.394 . S
C1051 C1057 1.465 . S
C1052 C1047 1.399 . S
C1052 C1051 1.394 . S
C1052 C1053 1.516 . S
C1053 C1052 1.516 . S
C1053 C1054 1.502 . S
C1053 C1055 1.561 . S
C1053 C1056 1.526 . S
C1054 H1038 0.959 . S
C1054 H1039 0.959 . S
C1054 H1040 0.961 . S
C1054 C1053 1.502 . S
C1055 H1041 0.960 . S
C1055 H1042 0.961 . S
C1055 H1043 0.959 . S
C1055 C1053 1.561 . S
C1056 C1053 1.526 . S
C1056 C1057 1.396 . S
C1056 C1061 1.390 . S
C1057 C1051 1.465 . S
C1057 C1056 1.396 . S
C1057 C1058 1.399 . S
C1058 H1044 0.929 . S
C1058 C1057 1.399 . S
C1058 C1059 1.385 . S
C1059 H1045 0.931 . S
C1059 C1058 1.385 . S
C1059 C1060 1.389 . S
C1060 C1059 1.389 . S
C1060 C1061 1.387 . S
C1061 H1046 0.930 1_554 S
C1061 C1056 1.390 . S
C1061 C1060 1.387 . S
H1062 C1074 0.930 . S
H1063 C1076 0.930 . S
H1064 C1077 0.930 . S
H1065 C1081 0.959 . S
H1066 C1081 0.959 . S
H1067 C1081 0.961 . S
H1068 C1082 0.960 . S
H1069 C1082 0.961 . S
H1070 C1082 0.959 . S
H1071 C1085 0.929 . S
H1072 C1086 0.931 . S
H1073 C1088 0.930 . S
C1074 H1062 0.930 . S
C1074 C1075 1.399 . S
C1074 C1079 1.399 . S
C1075 C1074 1.399 . S
C1075 C1076 1.376 . S
C1076 H1063 0.930 . S
C1076 C1075 1.376 . S
C1076 C1077 1.388 . S
C1077 H1064 0.930 . S
C1077 C1076 1.388 . S
C1077 C1078 1.390 . S
C1078 C1077 1.390 . S
C1078 C1079 1.394 . S
C1078 C1084 1.465 . S
C1079 C1074 1.399 . S
C1079 C1078 1.394 . S
C1079 C1080 1.516 . S
C1080 C1079 1.516 . S
C1080 C1081 1.502 . S
C1080 C1082 1.561 . S
C1080 C1083 1.526 . S
C1081 H1065 0.959 . S
C1081 H1066 0.959 . S
C1081 H1067 0.961 . S
C1081 C1080 1.502 . S
C1082 H1068 0.960 . S
C1082 H1069 0.961 . S
C1082 H1070 0.959 . S
C1082 C1080 1.561 . S
C1083 C1080 1.526 . S
C1083 C1084 1.396 . S
C1083 C1088 1.390 . S
C1084 C1078 1.465 . S
C1084 C1083 1.396 . S
C1084 C1085 1.399 . S
C1085 H1071 0.929 . S
C1085 C1084 1.399 . S
C1085 C1086 1.385 . S
C1086 H1072 0.931 . S
C1086 C1085 1.385 . S
C1086 C1087 1.389 . S
C1087 C1086 1.389 . S
C1087 C1088 1.387 . S
C1088 H1073 0.930 . S
C1088 C1083 1.390 . S
C1088 C1087 1.387 . S
H1089 C1101 0.930 . S
H1090 C1103 0.930 . S
H1091 C1104 0.930 . S
H1092 C1108 0.959 . S
H1093 C1108 0.959 . S
H1094 C1108 0.961 . S
H1095 C1109 0.960 . S
H1096 C1109 0.961 . S
H1097 C1109 0.959 . S
H1098 C1112 0.929 . S
H1099 C1113 0.931 . S
H1100 C1115 0.930 . S
C1101 H1089 0.930 . S
C1101 C1102 1.399 . S
C1101 C1106 1.399 . S
C1102 C1101 1.399 . S
C1102 C1103 1.376 . S
C1103 H1090 0.930 . S
C1103 C1102 1.376 . S
C1103 C1104 1.388 . S
C1104 H1091 0.930 . S
C1104 C1103 1.388 . S
C1104 C1105 1.390 . S
C1105 C1104 1.390 . S
C1105 C1106 1.394 . S
C1105 C1111 1.465 . S
C1106 C1101 1.399 . S
C1106 C1105 1.394 . S
C1106 C1107 1.516 . S
C1107 C1106 1.516 . S
C1107 C1108 1.502 . S
C1107 C1109 1.561 . S
C1107 C1110 1.526 . S
C1108 H1092 0.959 . S
C1108 H1093 0.959 . S
C1108 H1094 0.961 . S
C1108 C1107 1.502 . S
C1109 H1095 0.960 . S
C1109 H1096 0.961 . S
C1109 H1097 0.959 . S
C1109 C1107 1.561 . S
C1110 C1107 1.526 . S
C1110 C1111 1.396 . S
C1110 C1115 1.390 . S
C1111 C1105 1.465 . S
C1111 C1110 1.396 . S
C1111 C1112 1.399 . S
C1112 H1098 0.929 . S
C1112 C1111 1.399 . S
C1112 C1113 1.385 . S
C1113 H1099 0.931 . S
C1113 C1112 1.385 . S
C1113 C1114 1.389 . S
C1114 C1113 1.389 . S
C1114 C1115 1.387 . S
C1115 H1100 0.930 . S
C1115 C1110 1.390 . S
C1115 C1114 1.387 . S
H1116 C1128 0.930 . S
H1117 C1130 0.930 . S
H1118 C1131 0.930 . S
H1119 C1135 0.959 . S
H1120 C1135 0.959 . S
H1121 C1135 0.961 . S
H1122 C1136 0.960 . S
H1123 C1136 0.961 . S
H1124 C1136 0.959 . S
H1125 C1139 0.929 . S
H1126 C1140 0.931 . S
H1127 C1142 0.930 . S
C1128 H1116 0.930 . S
C1128 C1129 1.399 . S
C1128 C1133 1.399 . S
C1129 C1128 1.399 . S
C1129 C1130 1.376 . S
C1130 H1117 0.930 . S
C1130 C1129 1.376 . S
C1130 C1131 1.388 . S
C1131 H1118 0.930 . S
C1131 C1130 1.388 . S
C1131 C1132 1.390 . S
C1132 C1131 1.390 . S
C1132 C1133 1.394 . S
C1132 C1138 1.465 . S
C1133 C1128 1.399 . S
C1133 C1132 1.394 . S
C1133 C1134 1.516 . S
C1134 C1133 1.516 . S
C1134 C1135 1.502 . S
C1134 C1136 1.561 . S
C1134 C1137 1.526 . S
C1135 H1119 0.959 . S
C1135 H1120 0.959 . S
C1135 H1121 0.961 . S
C1135 C1134 1.502 . S
C1136 H1122 0.960 . S
C1136 H1123 0.961 . S
C1136 H1124 0.959 . S
C1136 C1134 1.561 . S
C1137 C1134 1.526 . S
C1137 C1138 1.396 . S
C1137 C1142 1.390 . S
C1138 C1132 1.465 . S
C1138 C1137 1.396 . S
C1138 C1139 1.399 . S
C1139 H1125 0.929 . S
C1139 C1138 1.399 . S
C1139 C1140 1.385 . S
C1140 H1126 0.931 . S
C1140 C1139 1.385 . S
C1140 C1141 1.389 . S
C1141 C1140 1.389 . S
C1141 C1142 1.387 . S
C1142 H1127 0.930 . S
C1142 C1137 1.390 . S
C1142 C1141 1.387 . S
H1143 C1155 0.930 . S
H1144 C1157 0.930 . S
H1145 C1158 0.930 . S
H1146 C1162 0.959 . S
H1147 C1162 0.959 . S
H1148 C1162 0.961 . S
H1149 C1163 0.960 . S
H1150 C1163 0.961 . S
H1151 C1163 0.959 . S
H1152 C1166 0.929 . S
H1153 C1167 0.931 . S
H1154 C1169 0.930 . S
C1155 H1143 0.930 . S
C1155 C1156 1.399 . S
C1155 C1160 1.399 . S
C1156 C1155 1.399 . S
C1156 C1157 1.376 . S
C1157 H1144 0.930 . S
C1157 C1156 1.376 . S
C1157 C1158 1.388 . S
C1158 H1145 0.930 . S
C1158 C1157 1.388 . S
C1158 C1159 1.390 . S
C1159 C1158 1.390 . S
C1159 C1160 1.394 . S
C1159 C1165 1.465 . S
C1160 C1155 1.399 . S
C1160 C1159 1.394 . S
C1160 C1161 1.516 . S
C1161 C1160 1.516 . S
C1161 C1162 1.502 . S
C1161 C1163 1.561 . S
C1161 C1164 1.526 . S
C1162 H1146 0.959 . S
C1162 H1147 0.959 . S
C1162 H1148 0.961 . S
C1162 C1161 1.502 . S
C1163 H1149 0.960 . S
C1163 H1150 0.961 . S
C1163 H1151 0.959 . S
C1163 C1161 1.561 . S
C1164 C1161 1.526 . S
C1164 C1165 1.396 . S
C1164 C1169 1.390 . S
C1165 C1159 1.465 . S
C1165 C1164 1.396 . S
C1165 C1166 1.399 . S
C1166 H1152 0.929 . S
C1166 C1165 1.399 . S
C1166 C1167 1.385 . S
C1167 H1153 0.931 . S
C1167 C1166 1.385 . S
C1167 C1168 1.389 . S
C1168 C1167 1.389 . S
C1168 C1169 1.387 . S
C1169 H1154 0.930 . S
C1169 C1164 1.390 . S
C1169 C1168 1.387 . S
H1170 C1182 0.930 . S
H1171 C1184 0.930 . S
H1172 C1185 0.930 . S
H1173 C1189 0.959 . S
H1174 C1189 0.959 . S
H1175 C1189 0.961 . S
H1176 C1190 0.960 . S
H1177 C1190 0.961 . S
H1178 C1190 0.959 . S
H1179 C1193 0.929 . S
H1180 C1194 0.931 . S
H1181 C1196 0.930 . S
C1182 H1170 0.930 . S
C1182 C1183 1.399 . S
C1182 C1187 1.399 . S
C1183 C1182 1.399 . S
C1183 C1184 1.376 . S
C1184 H1171 0.930 . S
C1184 C1183 1.376 . S
C1184 C1185 1.388 . S
C1185 H1172 0.930 . S
C1185 C1184 1.388 . S
C1185 C1186 1.390 . S
C1186 C1185 1.390 . S
C1186 C1187 1.394 . S
C1186 C1192 1.465 . S
C1187 C1182 1.399 . S
C1187 C1186 1.394 . S
C1187 C1188 1.516 . S
C1188 C1187 1.516 . S
C1188 C1189 1.502 . S
C1188 C1190 1.561 . S
C1188 C1191 1.526 . S
C1189 H1173 0.959 . S
C1189 H1174 0.959 . S
C1189 H1175 0.961 . S
C1189 C1188 1.502 . S
C1190 H1176 0.960 . S
C1190 H1177 0.961 . S
C1190 H1178 0.959 . S
C1190 C1188 1.561 . S
C1191 C1188 1.526 . S
C1191 C1192 1.396 . S
C1191 C1196 1.390 . S
C1192 C1186 1.465 . S
C1192 C1191 1.396 . S
C1192 C1193 1.399 . S
C1193 H1179 0.929 . S
C1193 C1192 1.399 . S
C1193 C1194 1.385 . S
C1194 H1180 0.931 . S
C1194 C1193 1.385 . S
C1194 C1195 1.389 . S
C1195 C1194 1.389 . S
C1195 C1196 1.387 . S
C1196 H1181 0.930 . S
C1196 C1191 1.390 . S
C1196 C1195 1.387 . S
H1197 C1209 0.930 . S
H1198 C1211 0.930 . S
H1199 C1212 0.930 . S
H1200 C1216 0.959 . S
H1201 C1216 0.959 . S
H1202 C1216 0.961 . S
H1203 C1217 0.960 . S
H1204 C1217 0.961 . S
H1205 C1217 0.959 . S
H1206 C1220 0.929 . S
H1207 C1221 0.931 . S
H1208 C1223 0.930 . S
C1209 H1197 0.930 . S
C1209 C1210 1.399 . S
C1209 C1214 1.399 . S
C1210 C1209 1.399 . S
C1210 C1211 1.376 . S
C1211 H1198 0.930 . S
C1211 C1210 1.376 . S
C1211 C1212 1.388 . S
C1212 H1199 0.930 . S
C1212 C1211 1.388 . S
C1212 C1213 1.390 . S
C1213 C1212 1.390 . S
C1213 C1214 1.394 . S
C1213 C1219 1.465 . S
C1214 C1209 1.399 . S
C1214 C1213 1.394 . S
C1214 C1215 1.516 . S
C1215 C1214 1.516 . S
C1215 C1216 1.502 . S
C1215 C1217 1.561 . S
C1215 C1218 1.526 . S
C1216 H1200 0.959 . S
C1216 H1201 0.959 . S
C1216 H1202 0.961 . S
C1216 C1215 1.502 . S
C1217 H1203 0.960 . S
C1217 H1204 0.961 . S
C1217 H1205 0.959 . S
C1217 C1215 1.561 . S
C1218 C1215 1.526 . S
C1218 C1219 1.396 . S
C1218 C1223 1.390 . S
C1219 C1213 1.465 . S
C1219 C1218 1.396 . S
C1219 C1220 1.399 . S
C1220 H1206 0.929 . S
C1220 C1219 1.399 . S
C1220 C1221 1.385 . S
C1221 H1207 0.931 . S
C1221 C1220 1.385 . S
C1221 C1222 1.389 . S
C1222 C1221 1.389 . S
C1222 C1223 1.387 . S
C1223 H1208 0.930 . S
C1223 C1218 1.390 . S
C1223 C1222 1.387 . S
H1224 C1236 0.930 . S
H1225 C1238 0.930 . S
H1226 C1239 0.930 . S
H1227 C1243 0.959 . S
H1228 C1243 0.959 . S
H1229 C1243 0.961 . S
H1230 C1244 0.960 . S
H1231 C1244 0.961 . S
H1232 C1244 0.959 . S
H1233 C1247 0.929 . S
H1234 C1248 0.931 . S
H1235 C1250 0.930 . S
C1236 H1224 0.930 . S
C1236 C1237 1.399 . S
C1236 C1241 1.399 . S
C1237 C1236 1.399 . S
C1237 C1238 1.376 . S
C1238 H1225 0.930 . S
C1238 C1237 1.376 . S
C1238 C1239 1.388 . S
C1239 H1226 0.930 . S
C1239 C1238 1.388 . S
C1239 C1240 1.390 . S
C1240 C1239 1.390 . S
C1240 C1241 1.394 . S
C1240 C1246 1.465 . S
C1241 C1236 1.399 . S
C1241 C1240 1.394 . S
C1241 C1242 1.516 . S
C1242 C1241 1.516 . S
C1242 C1243 1.502 . S
C1242 C1244 1.561 . S
C1242 C1245 1.526 . S
C1243 H1227 0.959 . S
C1243 H1228 0.959 . S
C1243 H1229 0.961 . S
C1243 C1242 1.502 . S
C1244 H1230 0.960 . S
C1244 H1231 0.961 . S
C1244 H1232 0.959 . S
C1244 C1242 1.561 . S
C1245 C1242 1.526 . S
C1245 C1246 1.396 . S
C1245 C1250 1.390 . S
C1246 C1240 1.465 . S
C1246 C1245 1.396 . S
C1246 C1247 1.399 . S
C1247 H1233 0.929 . S
C1247 C1246 1.399 . S
C1247 C1248 1.385 . S
C1248 H1234 0.931 . S
C1248 C1247 1.385 . S
C1248 C1249 1.389 . S
C1249 C1248 1.389 . S
C1249 C1250 1.387 . S
C1250 H1235 0.930 . S
C1250 C1245 1.390 . S
C1250 C1249 1.387 . S
H1251 C1263 0.930 . S
H1252 C1265 0.930 . S
H1253 C1266 0.930 . S
H1254 C1270 0.959 . S
H1255 C1270 0.959 . S
H1256 C1270 0.961 . S
H1257 C1271 0.960 . S
H1258 C1271 0.961 . S
H1259 C1271 0.959 . S
H1260 C1274 0.929 . S
H1261 C1275 0.931 . S
H1262 C1277 0.930 . S
C1263 H1251 0.930 . S
C1263 C1264 1.399 . S
C1263 C1268 1.399 . S
C1264 C1263 1.399 . S
C1264 C1265 1.376 . S
C1265 H1252 0.930 . S
C1265 C1264 1.376 . S
C1265 C1266 1.388 . S
C1266 H1253 0.930 . S
C1266 C1265 1.388 . S
C1266 C1267 1.390 . S
C1267 C1266 1.390 . S
C1267 C1268 1.394 . S
C1267 C1273 1.465 . S
C1268 C1263 1.399 . S
C1268 C1267 1.394 . S
C1268 C1269 1.516 . S
C1269 C1268 1.516 . S
C1269 C1270 1.502 . S
C1269 C1271 1.561 . S
C1269 C1272 1.526 . S
C1270 H1254 0.959 . S
C1270 H1255 0.959 . S
C1270 H1256 0.961 . S
C1270 C1269 1.502 . S
C1271 H1257 0.960 . S
C1271 H1258 0.961 . S
C1271 H1259 0.959 . S
C1271 C1269 1.561 . S
C1272 C1269 1.526 . S
C1272 C1273 1.396 . S
C1272 C1277 1.390 . S
C1273 C1267 1.465 . S
C1273 C1272 1.396 . S
C1273 C1274 1.399 . S
C1274 H1260 0.929 . S
C1274 C1273 1.399 . S
C1274 C1275 1.385 . S
C1275 H1261 0.931 . S
C1275 C1274 1.385 . S
C1275 C1276 1.389 . S
C1276 C1275 1.389 . S
C1276 C1277 1.387 . S
C1277 H1262 0.930 . S
C1277 C1272 1.390 . S
C1277 C1276 1.387 . S
H1278 C1290 0.930 . S
H1279 C1292 0.930 . S
H1280 C1293 0.930 . S
H1281 C1297 0.959 . S
H1282 C1297 0.959 . S
H1283 C1297 0.961 . S
H1284 C1298 0.960 . S
H1285 C1298 0.961 . S
H1286 C1298 0.959 . S
H1287 C1301 0.929 . S
H1288 C1302 0.931 . S
H1289 C1304 0.930 . S
C1290 H1278 0.930 . S
C1290 C1291 1.399 . S
C1290 C1295 1.399 . S
C1291 C1290 1.399 . S
C1291 C1292 1.376 . S
C1292 H1279 0.930 . S
C1292 C1291 1.376 . S
C1292 C1293 1.388 . S
C1293 H1280 0.930 . S
C1293 C1292 1.388 . S
C1293 C1294 1.390 . S
C1294 C1293 1.390 . S
C1294 C1295 1.394 . S
C1294 C1300 1.465 . S
C1295 C1290 1.399 . S
C1295 C1294 1.394 . S
C1295 C1296 1.516 . S
C1296 C1295 1.516 . S
C1296 C1297 1.502 . S
C1296 C1298 1.561 . S
C1296 C1299 1.526 . S
C1297 H1281 0.959 . S
C1297 H1282 0.959 . S
C1297 H1283 0.961 . S
C1297 C1296 1.502 . S
C1298 H1284 0.960 . S
C1298 H1285 0.961 . S
C1298 H1286 0.959 . S
C1298 C1296 1.561 . S
C1299 C1296 1.526 . S
C1299 C1300 1.396 . S
C1299 C1304 1.390 . S
C1300 C1294 1.465 . S
C1300 C1299 1.396 . S
C1300 C1301 1.399 . S
C1301 H1287 0.929 . S
C1301 C1300 1.399 . S
C1301 C1302 1.385 . S
C1302 H1288 0.931 . S
C1302 C1301 1.385 . S
C1302 C1303 1.389 . S
C1303 C1302 1.389 . S
C1303 C1304 1.387 . S
C1304 H1289 0.930 . S
C1304 C1299 1.390 . S
C1304 C1303 1.387 . S
H1305 C1317 0.930 . S
H1306 C1319 0.930 . S
H1307 C1320 0.930 . S
H1308 C1324 0.959 . S
H1309 C1324 0.959 . S
H1310 C1324 0.961 . S
H1311 C1325 0.960 . S
H1312 C1325 0.961 . S
H1313 C1325 0.959 . S
H1314 C1328 0.929 . S
H1315 C1329 0.931 . S
H1316 C1331 0.930 . S
C1317 H1305 0.930 . S
C1317 C1318 1.399 . S
C1317 C1322 1.399 . S
C1318 C1317 1.399 . S
C1318 C1319 1.376 . S
C1319 H1306 0.930 . S
C1319 C1318 1.376 . S
C1319 C1320 1.388 . S
C1320 H1307 0.930 . S
C1320 C1319 1.388 . S
C1320 C1321 1.390 . S
C1321 C1320 1.390 . S
C1321 C1322 1.394 . S
C1321 C1327 1.465 . S
C1322 C1317 1.399 . S
C1322 C1321 1.394 . S
C1322 C1323 1.516 . S
C1323 C1322 1.516 . S
C1323 C1324 1.502 . S
C1323 C1325 1.561 . S
C1323 C1326 1.526 . S
C1324 H1308 0.959 . S
C1324 H1309 0.959 . S
C1324 H1310 0.961 . S
C1324 C1323 1.502 . S
C1325 H1311 0.960 . S
C1325 H1312 0.961 . S
C1325 H1313 0.959 . S
C1325 C1323 1.561 . S
C1326 C1323 1.526 . S
C1326 C1327 1.396 . S
C1326 C1331 1.390 . S
C1327 C1321 1.465 . S
C1327 C1326 1.396 . S
C1327 C1328 1.399 . S
C1328 H1314 0.929 . S
C1328 C1327 1.399 . S
C1328 C1329 1.385 . S
C1329 H1315 0.931 . S
C1329 C1328 1.385 . S
C1329 C1330 1.389 . S
C1330 C1329 1.389 . S
C1330 C1331 1.387 . S
C1331 H1316 0.930 . S
C1331 C1326 1.390 . S
C1331 C1330 1.387 . S
H1332 C1344 0.930 . S
H1333 C1346 0.930 1_545 S
H1334 C1347 0.930 . S
H1335 C1351 0.959 . S
H1336 C1351 0.959 . S
H1337 C1351 0.961 . S
H1338 C1352 0.960 . S
H1339 C1352 0.961 . S
H1340 C1352 0.959 . S
H1341 C1355 0.929 . S
H1342 C1356 0.931 . S
H1343 C1358 0.930 . S
C1344 H1332 0.930 . S
C1344 C1345 1.399 . S
C1344 C1349 1.399 . S
C1345 C1344 1.399 . S
C1345 C1346 1.376 . S
C1346 H1333 0.930 1_565 S
C1346 C1345 1.376 . S
C1346 C1347 1.388 . S
C1347 H1334 0.930 . S
C1347 C1346 1.388 . S
C1347 C1348 1.390 . S
C1348 C1347 1.390 . S
C1348 C1349 1.394 . S
C1348 C1354 1.465 . S
C1349 C1344 1.399 . S
C1349 C1348 1.394 . S
C1349 C1350 1.516 . S
C1350 C1349 1.516 . S
C1350 C1351 1.502 . S
C1350 C1352 1.561 . S
C1350 C1353 1.526 . S
C1351 H1335 0.959 . S
C1351 H1336 0.959 . S
C1351 H1337 0.961 . S
C1351 C1350 1.502 . S
C1352 H1338 0.960 . S
C1352 H1339 0.961 . S
C1352 H1340 0.959 . S
C1352 C1350 1.561 . S
C1353 C1350 1.526 . S
C1353 C1354 1.396 . S
C1353 C1358 1.390 . S
C1354 C1348 1.465 . S
C1354 C1353 1.396 . S
C1354 C1355 1.399 . S
C1355 H1341 0.929 . S
C1355 C1354 1.399 . S
C1355 C1356 1.385 . S
C1356 H1342 0.931 . S
C1356 C1355 1.385 . S
C1356 C1357 1.389 . S
C1357 C1356 1.389 . S
C1357 C1358 1.387 . S
C1358 H1343 0.930 . S
C1358 C1353 1.390 . S
C1358 C1357 1.387 . S
H1359 C1371 0.930 . S
H1360 C1373 0.930 . S
H1361 C1374 0.930 . S
H1362 C1378 0.959 . S
H1363 C1378 0.959 . S
H1364 C1378 0.961 . S
H1365 C1379 0.960 . S
H1366 C1379 0.961 . S
H1367 C1379 0.959 . S
H1368 C1382 0.929 . S
H1369 C1383 0.931 . S
H1370 C1385 0.930 . S
C1371 H1359 0.930 . S
C1371 C1372 1.399 . S
C1371 C1376 1.399 . S
C1372 C1371 1.399 . S
C1372 C1373 1.376 . S
C1373 H1360 0.930 . S
C1373 C1372 1.376 . S
C1373 C1374 1.388 . S
C1374 H1361 0.930 . S
C1374 C1373 1.388 . S
C1374 C1375 1.390 . S
C1375 C1374 1.390 . S
C1375 C1376 1.394 . S
C1375 C1381 1.465 . S
C1376 C1371 1.399 . S
C1376 C1375 1.394 . S
C1376 C1377 1.516 . S
C1377 C1376 1.516 . S
C1377 C1378 1.502 . S
C1377 C1379 1.561 . S
C1377 C1380 1.526 . S
C1378 H1362 0.959 . S
C1378 H1363 0.959 . S
C1378 H1364 0.961 . S
C1378 C1377 1.502 . S
C1379 H1365 0.960 . S
C1379 H1366 0.961 . S
C1379 H1367 0.959 . S
C1379 C1377 1.561 . S
C1380 C1377 1.526 . S
C1380 C1381 1.396 . S
C1380 C1385 1.390 . S
C1381 C1375 1.465 . S
C1381 C1380 1.396 . S
C1381 C1382 1.399 . S
C1382 H1368 0.929 . S
C1382 C1381 1.399 . S
C1382 C1383 1.385 . S
C1383 H1369 0.931 . S
C1383 C1382 1.385 . S
C1383 C1384 1.389 . S
C1384 C1383 1.389 . S
C1384 C1385 1.387 . S
C1385 H1370 0.930 . S
C1385 C1380 1.390 . S
C1385 C1384 1.387 . S
H1386 C1398 0.930 1_545 S
H1387 C1400 0.930 . S
H1388 C1401 0.930 . S
H1389 C1405 0.959 . S
H1390 C1405 0.959 . S
H1391 C1405 0.961 . S
H1392 C1406 0.960 . S
H1393 C1406 0.961 . S
H1394 C1406 0.959 . S
H1395 C1409 0.929 . S
H1396 C1410 0.931 . S
H1397 C1412 0.930 . S
C1398 H1386 0.930 1_565 S
C1398 C1399 1.399 . S
C1398 C1403 1.399 . S
C1399 C1398 1.399 . S
C1399 C1400 1.376 . S
C1400 H1387 0.930 . S
C1400 C1399 1.376 . S
C1400 C1401 1.388 . S
C1401 H1388 0.930 . S
C1401 C1400 1.388 . S
C1401 C1402 1.390 . S
C1402 C1401 1.390 . S
C1402 C1403 1.394 . S
C1402 C1408 1.465 . S
C1403 C1398 1.399 . S
C1403 C1402 1.394 . S
C1403 C1404 1.516 . S
C1404 C1403 1.516 . S
C1404 C1405 1.502 . S
C1404 C1406 1.561 . S
C1404 C1407 1.526 . S
C1405 H1389 0.959 . S
C1405 H1390 0.959 . S
C1405 H1391 0.961 . S
C1405 C1404 1.502 . S
C1406 H1392 0.960 . S
C1406 H1393 0.961 . S
C1406 H1394 0.959 . S
C1406 C1404 1.561 . S
C1407 C1404 1.526 . S
C1407 C1408 1.396 . S
C1407 C1412 1.390 . S
C1408 C1402 1.465 . S
C1408 C1407 1.396 . S
C1408 C1409 1.399 . S
C1409 H1395 0.929 . S
C1409 C1408 1.399 . S
C1409 C1410 1.385 . S
C1410 H1396 0.931 . S
C1410 C1409 1.385 . S
C1410 C1411 1.389 . S
C1411 C1410 1.389 . S
C1411 C1412 1.387 . S
C1412 H1397 0.930 . S
C1412 C1407 1.390 . S
C1412 C1411 1.387 . S
H1413 C1425 0.930 . S
H1414 C1427 0.930 1_565 S
H1415 C1428 0.930 . S
H1416 C1432 0.959 . S
H1417 C1432 0.959 . S
H1418 C1432 0.961 . S
H1419 C1433 0.960 . S
H1420 C1433 0.961 . S
H1421 C1433 0.959 . S
H1422 C1436 0.929 . S
H1423 C1437 0.931 . S
H1424 C1439 0.930 . S
C1425 H1413 0.930 . S
C1425 C1426 1.399 . S
C1425 C1430 1.399 . S
C1426 C1425 1.399 . S
C1426 C1427 1.376 . S
C1427 H1414 0.930 1_545 S
C1427 C1426 1.376 . S
C1427 C1428 1.388 . S
C1428 H1415 0.930 . S
C1428 C1427 1.388 . S
C1428 C1429 1.390 . S
C1429 C1428 1.390 . S
C1429 C1430 1.394 . S
C1429 C1435 1.465 . S
C1430 C1425 1.399 . S
C1430 C1429 1.394 . S
C1430 C1431 1.516 . S
C1431 C1430 1.516 . S
C1431 C1432 1.502 . S
C1431 C1433 1.561 . S
C1431 C1434 1.526 . S
C1432 H1416 0.959 . S
C1432 H1417 0.959 . S
C1432 H1418 0.961 . S
C1432 C1431 1.502 . S
C1433 H1419 0.960 . S
C1433 H1420 0.961 . S
C1433 H1421 0.959 . S
C1433 C1431 1.561 . S
C1434 C1431 1.526 . S
C1434 C1435 1.396 . S
C1434 C1439 1.390 . S
C1435 C1429 1.465 . S
C1435 C1434 1.396 . S
C1435 C1436 1.399 . S
C1436 H1422 0.929 . S
C1436 C1435 1.399 . S
C1436 C1437 1.385 . S
C1437 H1423 0.931 . S
C1437 C1436 1.385 . S
C1437 C1438 1.389 . S
C1438 C1437 1.389 . S
C1438 C1439 1.387 . S
C1439 H1424 0.930 . S
C1439 C1434 1.390 . S
C1439 C1438 1.387 . S
H1440 C1452 0.930 . S
H1441 C1454 0.930 . S
H1442 C1455 0.938 . S
H1443 C1459 0.959 . S
H1444 C1459 0.959 . S
H1445 C1459 0.937 1_556 S
H1446 C1460 0.960 . S
H1447 C1460 0.961 1_554 S
H1448 C1460 0.959 . S
H1449 C1463 0.929 . S
H1450 C1464 0.931 . S
H1451 C1466 0.930 . S
C1452 H1440 0.930 . S
C1452 C1453 1.399 . S
C1452 C1457 1.399 . S
C1453 C1452 1.399 . S
C1453 C1454 1.376 . S
C1454 H1441 0.930 . S
C1454 C1453 1.376 . S
C1454 C1455 1.380 1_655 S
C1455 H1442 0.938 . S
C1455 C1454 1.380 1_455 S
C1455 C1456 1.390 . S
C1456 C1455 1.390 . S
C1456 C1457 1.394 1_455 S
C1456 C1462 1.465 1_556 S
C1457 C1452 1.399 . S
C1457 C1456 1.394 1_655 S
C1457 C1458 1.516 1_556 S
C1458 C1457 1.516 1_554 S
C1458 C1459 1.502 . S
C1458 C1460 1.561 1_654 S
C1458 C1461 1.526 1_655 S
C1459 H1443 0.959 . S
C1459 H1444 0.959 . S
C1459 H1445 0.937 1_554 S
C1459 C1458 1.502 . S
C1460 H1446 0.960 . S
C1460 H1447 0.961 1_556 S
C1460 H1448 0.959 . S
C1460 C1458 1.561 1_456 S
C1461 C1458 1.526 1_455 S
C1461 C1462 1.396 . S
C1461 C1466 1.390 . S
C1462 C1456 1.465 1_554 S
C1462 C1461 1.396 . S
C1462 C1463 1.399 . S
C1463 H1449 0.929 . S
C1463 C1462 1.399 . S
C1463 C1464 1.385 . S
C1464 H1450 0.931 . S
C1464 C1463 1.385 . S
C1464 C1465 1.389 . S
C1465 C1464 1.389 . S
C1465 C1466 1.387 . S
C1466 H1451 0.930 . S
C1466 C1461 1.390 . S
C1466 C1465 1.387 . S
H1467 C1479 0.930 . S
H1468 C1481 0.930 . S
H1469 C1482 0.930 . S
H1470 C1486 0.959 . S
H1471 C1486 0.959 . S
H1472 C1486 0.961 . S
H1473 C1487 0.960 . S
H1474 C1487 0.961 . S
H1475 C1487 0.959 . S
H1476 C1490 0.929 . S
H1477 C1491 0.931 . S
H1478 C1493 0.930 . S
C1479 H1467 0.930 . S
C1479 C1480 1.399 . S
C1479 C1484 1.399 . S
C1480 C1479 1.399 . S
C1480 C1481 1.376 . S
C1481 H1468 0.930 . S
C1481 C1480 1.376 . S
C1481 C1482 1.388 . S
C1482 H1469 0.930 . S
C1482 C1481 1.388 . S
C1482 C1483 1.390 . S
C1483 C1482 1.390 . S
C1483 C1484 1.394 . S
C1483 C1489 1.465 . S
C1484 C1479 1.399 . S
C1484 C1483 1.394 . S
C1484 C1485 1.516 . S
C1485 C1484 1.516 . S
C1485 C1486 1.502 . S
C1485 C1487 1.561 . S
C1485 C1488 1.526 . S
C1486 H1470 0.959 . S
C1486 H1471 0.959 . S
C1486 H1472 0.961 . S
C1486 C1485 1.502 . S
C1487 H1473 0.960 . S
C1487 H1474 0.961 . S
C1487 H1475 0.959 . S
C1487 C1485 1.561 . S
C1488 C1485 1.526 . S
C1488 C1489 1.396 . S
C1488 C1493 1.390 . S
C1489 C1483 1.465 . S
C1489 C1488 1.396 . S
C1489 C1490 1.399 . S
C1490 H1476 0.929 . S
C1490 C1489 1.399 . S
C1490 C1491 1.385 . S
C1491 H1477 0.931 . S
C1491 C1490 1.385 . S
C1491 C1492 1.389 . S
C1492 C1491 1.389 . S
C1492 C1493 1.387 . S
C1493 H1478 0.930 . S
C1493 C1488 1.390 . S
C1493 C1492 1.387 . S
H1494 C1506 0.930 . S
H1495 C1508 0.930 . S
H1496 C1509 0.930 . S
H1497 C1513 0.959 . S
H1498 C1513 0.959 . S
H1499 C1513 0.961 . S
H1500 C1514 0.978 1_455 S
H1501 C1514 0.941 1_554 S
H1502 C1514 0.966 . S
H1503 C1517 0.929 . S
H1504 C1518 0.931 . S
H1505 C1520 0.930 . S
C1506 H1494 0.930 . S
C1506 C1507 1.399 . S
C1506 C1511 1.399 . S
C1507 C1506 1.399 . S
C1507 C1508 1.376 . S
C1508 H1495 0.930 . S
C1508 C1507 1.376 . S
C1508 C1509 1.388 1_455 S
C1509 H1496 0.930 . S
C1509 C1508 1.388 1_655 S
C1509 C1510 1.390 . S
C1510 C1509 1.390 . S
C1510 C1511 1.394 1_655 S
C1510 C1516 1.465 1_556 S
C1511 C1506 1.399 . S
C1511 C1510 1.394 1_455 S
C1511 C1512 1.516 1_556 S
C1512 C1511 1.516 1_554 S
C1512 C1513 1.502 . S
C1512 C1514 1.557 1_454 S
C1512 C1515 1.526 1_455 S
C1513 H1497 0.959 . S
C1513 H1498 0.959 . S
C1513 H1499 0.961 . S
C1513 C1512 1.502 . S
C1514 H1500 0.978 1_655 S
C1514 H1501 0.941 1_556 S
C1514 H1502 0.966 . S
C1514 C1512 1.557 1_656 S
C1515 C1512 1.526 1_655 S
C1515 C1516 1.396 . S
C1515 C1520 1.390 . S
C1516 C1510 1.465 1_554 S
C1516 C1515 1.396 . S
C1516 C1517 1.399 . S
C1517 H1503 0.929 . S
C1517 C1516 1.399 . S
C1517 C1518 1.385 . S
C1518 H1504 0.931 . S
C1518 C1517 1.385 . S
C1518 C1519 1.389 . S
C1519 C1518 1.389 . S
C1519 C1520 1.387 . S
C1520 H1505 0.930 . S
C1520 C1515 1.390 . S
C1520 C1519 1.387 . S
H1521 C1533 0.930 . S
H1522 C1535 0.930 . S
H1523 C1536 0.930 . S
H1524 C1540 0.959 . S
H1525 C1540 0.959 . S
H1526 C1540 0.961 . S
H1527 C1541 0.960 . S
H1528 C1541 0.961 . S
H1529 C1541 0.959 . S
H1530 C1544 0.929 . S
H1531 C1545 0.931 . S
H1532 C1547 0.930 . S
C1533 H1521 0.930 . S
C1533 C1534 1.399 . S
C1533 C1538 1.399 . S
C1534 C1533 1.399 . S
C1534 C1535 1.376 . S
C1535 H1522 0.930 . S
C1535 C1534 1.376 . S
C1535 C1536 1.388 . S
C1536 H1523 0.930 . S
C1536 C1535 1.388 . S
C1536 C1537 1.390 . S
C1537 C1536 1.390 . S
C1537 C1538 1.394 . S
C1537 C1543 1.465 . S
C1538 C1533 1.399 . S
C1538 C1537 1.394 . S
C1538 C1539 1.516 . S
C1539 C1538 1.516 . S
C1539 C1540 1.502 . S
C1539 C1541 1.561 . S
C1539 C1542 1.526 . S
C1540 H1524 0.959 . S
C1540 H1525 0.959 . S
C1540 H1526 0.961 . S
C1540 C1539 1.502 . S
C1541 H1527 0.960 . S
C1541 H1528 0.961 . S
C1541 H1529 0.959 . S
C1541 C1539 1.561 . S
C1542 C1539 1.526 . S
C1542 C1543 1.396 . S
C1542 C1547 1.390 . S
C1543 C1537 1.465 . S
C1543 C1542 1.396 . S
C1543 C1544 1.399 . S
C1544 H1530 0.929 . S
C1544 C1543 1.399 . S
C1544 C1545 1.385 . S
C1545 H1531 0.931 . S
C1545 C1544 1.385 . S
C1545 C1546 1.389 . S
C1546 C1545 1.389 . S
C1546 C1547 1.387 . S
C1547 H1532 0.930 . S
C1547 C1542 1.390 . S
C1547 C1546 1.387 . S
H1548 C1560 0.930 . S
H1549 C1562 0.930 1_545 S
H1550 C1563 0.930 . S
H1551 C1567 0.959 . S
H1552 C1567 0.959 . S
H1553 C1567 0.961 . S
H1554 C1568 0.960 1_655 S
H1555 C1568 0.961 . S
H1556 C1568 0.959 1_645 S
H1557 C1571 0.929 . S
H1558 C1572 0.931 . S
H1559 C1574 0.917 1_565 S
C1560 H1548 0.930 . S
C1560 C1561 1.399 . S
C1560 C1565 1.399 . S
C1561 C1560 1.399 . S
C1561 C1562 1.376 . S
C1562 H1549 0.930 1_565 S
C1562 C1561 1.376 . S
C1562 C1563 1.388 1_565 S
C1563 H1550 0.930 . S
C1563 C1562 1.388 1_545 S
C1563 C1564 1.390 . S
C1564 C1563 1.390 . S
C1564 C1565 1.394 1_545 S
C1564 C1570 1.465 1_655 S
C1565 C1560 1.399 . S
C1565 C1564 1.394 1_565 S
C1565 C1566 1.516 1_655 S
C1566 C1565 1.516 1_455 S
C1566 C1567 1.502 . S
C1566 C1568 1.561 . S
C1566 C1569 1.526 1_565 S
C1567 H1551 0.959 . S
C1567 H1552 0.959 . S
C1567 H1553 0.961 . S
C1567 C1566 1.502 . S
C1568 H1554 0.960 1_455 S
C1568 H1555 0.961 . S
C1568 H1556 0.959 1_465 S
C1568 C1566 1.561 . S
C1569 C1566 1.526 1_545 S
C1569 C1570 1.396 . S
C1569 C1574 1.390 . S
C1570 C1564 1.465 1_455 S
C1570 C1569 1.396 . S
C1570 C1571 1.399 . S
C1571 H1557 0.929 . S
C1571 C1570 1.399 . S
C1571 C1572 1.385 . S
C1572 H1558 0.931 . S
C1572 C1571 1.385 . S
C1572 C1573 1.389 . S
C1573 C1572 1.389 . S
C1573 C1574 1.387 . S
C1574 H1559 0.917 1_545 S
C1574 C1569 1.390 . S
C1574 C1573 1.387 . S
H1575 C1587 0.930 . S
H1576 C1589 0.930 . S
H1577 C1590 0.930 . S
H1578 C1594 0.959 . S
H1579 C1594 0.959 . S
H1580 C1594 0.961 . S
H1581 C1595 0.960 . S
H1582 C1595 0.961 . S
H1583 C1595 0.959 . S
H1584 C1598 0.929 . S
H1585 C1599 0.931 . S
H1586 C1601 0.930 . S
C1587 H1575 0.930 . S
C1587 C1588 1.399 . S
C1587 C1592 1.399 . S
C1588 C1587 1.399 . S
C1588 C1589 1.376 . S
C1589 H1576 0.930 . S
C1589 C1588 1.376 . S
C1589 C1590 1.388 . S
C1590 H1577 0.930 . S
C1590 C1589 1.388 . S
C1590 C1591 1.390 . S
C1591 C1590 1.390 . S
C1591 C1592 1.394 . S
C1591 C1597 1.465 . S
C1592 C1587 1.399 . S
C1592 C1591 1.394 . S
C1592 C1593 1.516 . S
C1593 C1592 1.516 . S
C1593 C1594 1.502 . S
C1593 C1595 1.561 . S
C1593 C1596 1.526 . S
C1594 H1578 0.959 . S
C1594 H1579 0.959 . S
C1594 H1580 0.961 . S
C1594 C1593 1.502 . S
C1595 H1581 0.960 . S
C1595 H1582 0.961 . S
C1595 H1583 0.959 . S
C1595 C1593 1.561 . S
C1596 C1593 1.526 . S
C1596 C1597 1.396 . S
C1596 C1601 1.390 . S
C1597 C1591 1.465 . S
C1597 C1596 1.396 . S
C1597 C1598 1.399 . S
C1598 H1584 0.929 . S
C1598 C1597 1.399 . S
C1598 C1599 1.385 . S
C1599 H1585 0.931 . S
C1599 C1598 1.385 . S
C1599 C1600 1.389 . S
C1600 C1599 1.389 . S
C1600 C1601 1.387 . S
C1601 H1586 0.930 . S
C1601 C1596 1.390 . S
C1601 C1600 1.387 . S
H1602 C1614 0.930 . S
H1603 C1616 0.930 . S
H1604 C1617 0.930 . S
H1605 C1621 0.945 1_665 S
H1606 C1621 0.940 1_655 S
H1607 C1621 0.989 . S
H1608 C1622 0.960 . S
H1609 C1622 0.961 . S
H1610 C1622 0.959 . S
H1611 C1625 0.929 1_565 S
H1612 C1626 0.931 . S
H1613 C1628 0.930 . S
C1614 H1602 0.930 . S
C1614 C1615 1.399 . S
C1614 C1619 1.399 . S
C1615 C1614 1.399 . S
C1615 C1616 1.376 . S
C1616 H1603 0.930 . S
C1616 C1615 1.376 . S
C1616 C1617 1.388 . S
C1617 H1604 0.930 . S
C1617 C1616 1.388 . S
C1617 C1618 1.390 . S
C1618 C1617 1.390 . S
C1618 C1619 1.394 . S
C1618 C1624 1.465 1_465 S
C1619 C1614 1.399 . S
C1619 C1618 1.394 . S
C1619 C1620 1.516 1_565 S
C1620 C1619 1.516 1_545 S
C1620 C1621 1.508 . S
C1620 C1622 1.561 . S
C1620 C1623 1.526 1_455 S
C1621 H1605 0.945 1_445 S
C1621 H1606 0.940 1_455 S
C1621 H1607 0.989 . S
C1621 C1620 1.508 . S
C1622 H1608 0.960 . S
C1622 H1609 0.961 . S
C1622 H1610 0.959 . S
C1622 C1620 1.561 . S
C1623 C1620 1.526 1_655 S
C1623 C1624 1.396 . S
C1623 C1628 1.390 . S
C1624 C1618 1.465 1_645 S
C1624 C1623 1.396 . S
C1624 C1625 1.399 . S
C1625 H1611 0.929 1_545 S
C1625 C1624 1.399 . S
C1625 C1626 1.385 . S
C1626 H1612 0.931 . S
C1626 C1625 1.385 . S
C1626 C1627 1.389 . S
C1627 C1626 1.389 . S
C1627 C1628 1.387 . S
C1628 H1613 0.930 . S
C1628 C1623 1.390 . S
C1628 C1627 1.387 . S
H1629 C1641 0.930 . S
H1630 C1643 0.930 . S
H1631 C1644 0.930 . S
H1632 C1648 0.959 . S
H1633 C1648 0.959 . S
H1634 C1648 0.961 . S
H1635 C1649 0.960 . S
H1636 C1649 0.961 . S
H1637 C1649 0.959 . S
H1638 C1652 0.929 . S
H1639 C1653 0.931 . S
H1640 C1655 0.930 . S
C1641 H1629 0.930 . S
C1641 C1642 1.399 . S
C1641 C1646 1.399 . S
C1642 C1641 1.399 . S
C1642 C1643 1.376 . S
C1643 H1630 0.930 . S
C1643 C1642 1.376 . S
C1643 C1644 1.388 . S
C1644 H1631 0.930 . S
C1644 C1643 1.388 . S
C1644 C1645 1.390 . S
C1645 C1644 1.390 . S
C1645 C1646 1.394 . S
C1645 C1651 1.465 . S
C1646 C1641 1.399 . S
C1646 C1645 1.394 . S
C1646 C1647 1.516 . S
C1647 C1646 1.516 . S
C1647 C1648 1.502 . S
C1647 C1649 1.561 . S
C1647 C1650 1.526 . S
C1648 H1632 0.959 . S
C1648 H1633 0.959 . S
C1648 H1634 0.961 . S
C1648 C1647 1.502 . S
C1649 H1635 0.960 . S
C1649 H1636 0.961 . S
C1649 H1637 0.959 . S
C1649 C1647 1.561 . S
C1650 C1647 1.526 . S
C1650 C1651 1.396 . S
C1650 C1655 1.390 . S
C1651 C1645 1.465 . S
C1651 C1650 1.396 . S
C1651 C1652 1.399 . S
C1652 H1638 0.929 . S
C1652 C1651 1.399 . S
C1652 C1653 1.385 . S
C1653 H1639 0.931 . S
C1653 C1652 1.385 . S
C1653 C1654 1.389 . S
C1654 C1653 1.389 . S
C1654 C1655 1.387 . S
C1655 H1640 0.930 . S
C1655 C1650 1.390 . S
C1655 C1654 1.387 . S
H1656 C1668 0.930 1_556 S
H1657 C1670 0.930 . S
H1658 C1671 0.930 . S
H1659 C1675 0.959 . S
H1660 C1675 0.959 . S
H1661 C1675 0.961 . S
H1662 C1676 0.960 . S
H1663 C1676 0.961 . S
H1664 C1676 0.959 . S
H1665 C1679 0.929 . S
H1666 C1680 0.931 . S
H1667 C1682 0.930 . S
C1668 H1656 0.930 1_554 S
C1668 C1669 1.399 . S
C1668 C1673 1.399 1_554 S
C1669 C1668 1.399 . S
C1669 C1670 1.376 . S
C1670 H1657 0.930 . S
C1670 C1669 1.376 . S
C1670 C1671 1.388 . S
C1671 H1658 0.930 . S
C1671 C1670 1.388 . S
C1671 C1672 1.390 . S
C1672 C1671 1.390 . S
C1672 C1673 1.394 1_554 S
C1672 C1678 1.465 1_545 S
C1673 C1668 1.399 1_556 S
C1673 C1672 1.394 1_556 S
C1673 C1674 1.516 . S
C1674 C1673 1.516 . S
C1674 C1675 1.502 . S
C1674 C1676 1.561 . S
C1674 C1677 1.526 1_545 S
C1675 H1659 0.959 . S
C1675 H1660 0.959 . S
C1675 H1661 0.961 . S
C1675 C1674 1.502 . S
C1676 H1662 0.960 . S
C1676 H1663 0.961 . S
C1676 H1664 0.959 . S
C1676 C1674 1.561 . S
C1677 C1674 1.526 1_565 S
C1677 C1678 1.396 1_556 S
C1677 C1682 1.390 . S
C1678 C1672 1.465 1_565 S
C1678 C1677 1.396 1_554 S
C1678 C1679 1.399 . S
C1679 H1665 0.929 . S
C1679 C1678 1.399 . S
C1679 C1680 1.385 . S
C1680 H1666 0.931 . S
C1680 C1679 1.385 . S
C1680 C1681 1.389 1_554 S
C1681 C1680 1.389 1_556 S
C1681 C1682 1.387 . S
C1682 H1667 0.930 . S
C1682 C1677 1.390 . S
C1682 C1681 1.387 . S
H1683 C1695 0.930 . S
H1684 C1697 0.930 . S
H1685 C1698 0.930 . S
H1686 C1702 0.959 . S
H1687 C1702 0.959 . S
H1688 C1702 0.961 . S
H1689 C1703 0.960 . S
H1690 C1703 0.961 . S
H1691 C1703 0.959 . S
H1692 C1706 0.929 . S
H1693 C1707 0.931 . S
H1694 C1709 0.930 . S
C1695 H1683 0.930 . S
C1695 C1696 1.399 . S
C1695 C1700 1.399 . S
C1696 C1695 1.399 . S
C1696 C1697 1.376 . S
C1697 H1684 0.930 . S
C1697 C1696 1.376 . S
C1697 C1698 1.388 . S
C1698 H1685 0.930 . S
C1698 C1697 1.388 . S
C1698 C1699 1.390 . S
C1699 C1698 1.390 . S
C1699 C1700 1.394 . S
C1699 C1705 1.465 . S
C1700 C1695 1.399 . S
C1700 C1699 1.394 . S
C1700 C1701 1.516 . S
C1701 C1700 1.516 . S
C1701 C1702 1.502 . S
C1701 C1703 1.561 . S
C1701 C1704 1.526 . S
C1702 H1686 0.959 . S
C1702 H1687 0.959 . S
C1702 H1688 0.961 . S
C1702 C1701 1.502 . S
C1703 H1689 0.960 . S
C1703 H1690 0.961 . S
C1703 H1691 0.959 . S
C1703 C1701 1.561 . S
C1704 C1701 1.526 . S
C1704 C1705 1.396 . S
C1704 C1709 1.390 . S
C1705 C1699 1.465 . S
C1705 C1704 1.396 . S
C1705 C1706 1.399 . S
C1706 H1692 0.929 . S
C1706 C1705 1.399 . S
C1706 C1707 1.385 . S
C1707 H1693 0.931 . S
C1707 C1706 1.385 . S
C1707 C1708 1.389 . S
C1708 C1707 1.389 . S
C1708 C1709 1.387 . S
C1709 H1694 0.930 . S
C1709 C1704 1.390 . S
C1709 C1708 1.387 . S
H1710 C1722 0.930 1_554 S
H1711 C1724 0.930 . S
H1712 C1725 0.930 . S
H1713 C1729 0.959 . S
H1714 C1729 0.959 . S
H1715 C1729 0.961 . S
H1716 C1730 0.960 . S
H1717 C1730 0.961 . S
H1718 C1730 0.959 . S
H1719 C1733 0.929 . S
H1720 C1734 0.931 . S
H1721 C1736 0.930 . S
C1722 H1710 0.930 1_556 S
C1722 C1723 1.399 . S
C1722 C1727 1.399 1_556 S
C1723 C1722 1.399 . S
C1723 C1724 1.376 . S
C1724 H1711 0.930 . S
C1724 C1723 1.376 . S
C1724 C1725 1.388 . S
C1725 H1712 0.930 . S
C1725 C1724 1.388 . S
C1725 C1726 1.390 . S
C1726 C1725 1.390 . S
C1726 C1727 1.394 1_556 S
C1726 C1732 1.465 1_545 S
C1727 C1722 1.399 1_554 S
C1727 C1726 1.394 1_554 S
C1727 C1728 1.516 . S
C1728 C1727 1.516 . S
C1728 C1729 1.502 . S
C1728 C1730 1.561 . S
C1728 C1731 1.526 1_545 S
C1729 H1713 0.959 . S
C1729 H1714 0.959 . S
C1729 H1715 0.961 . S
C1729 C1728 1.502 . S
C1730 H1716 0.960 . S
C1730 H1717 0.961 . S
C1730 H1718 0.959 . S
C1730 C1728 1.561 . S
C1731 C1728 1.526 1_565 S
C1731 C1732 1.396 1_554 S
C1731 C1736 1.390 . S
C1732 C1726 1.465 1_565 S
C1732 C1731 1.396 1_556 S
C1732 C1733 1.399 . S
C1733 H1719 0.929 . S
C1733 C1732 1.399 . S
C1733 C1734 1.385 . S
C1734 H1720 0.931 . S
C1734 C1733 1.385 . S
C1734 C1735 1.389 1_556 S
C1735 C1734 1.389 1_554 S
C1735 C1736 1.387 . S
C1736 H1721 0.930 . S
C1736 C1731 1.390 . S
C1736 C1735 1.387 . S
H1737 C1749 0.930 . S
H1738 C1751 0.930 . S
H1739 C1752 0.930 . S
H1740 C1756 0.959 . S
H1741 C1756 0.959 . S
H1742 C1756 0.961 . S
H1743 C1757 0.960 . S
H1744 C1757 0.961 . S
H1745 C1757 0.959 . S
H1746 C1760 0.929 . S
H1747 C1761 0.931 . S
H1748 C1763 0.930 . S
C1749 H1737 0.930 . S
C1749 C1750 1.399 . S
C1749 C1754 1.399 . S
C1750 C1749 1.399 . S
C1750 C1751 1.376 . S
C1751 H1738 0.930 . S
C1751 C1750 1.376 . S
C1751 C1752 1.388 . S
C1752 H1739 0.930 . S
C1752 C1751 1.388 . S
C1752 C1753 1.390 . S
C1753 C1752 1.390 . S
C1753 C1754 1.394 . S
C1753 C1759 1.465 . S
C1754 C1749 1.399 . S
C1754 C1753 1.394 . S
C1754 C1755 1.516 . S
C1755 C1754 1.516 . S
C1755 C1756 1.502 . S
C1755 C1757 1.561 . S
C1755 C1758 1.526 . S
C1756 H1740 0.959 . S
C1756 H1741 0.959 . S
C1756 H1742 0.961 . S
C1756 C1755 1.502 . S
C1757 H1743 0.960 . S
C1757 H1744 0.961 . S
C1757 H1745 0.959 . S
C1757 C1755 1.561 . S
C1758 C1755 1.526 . S
C1758 C1759 1.396 . S
C1758 C1763 1.390 . S
C1759 C1753 1.465 . S
C1759 C1758 1.396 . S
C1759 C1760 1.399 . S
C1760 H1746 0.929 . S
C1760 C1759 1.399 . S
C1760 C1761 1.385 . S
C1761 H1747 0.931 . S
C1761 C1760 1.385 . S
C1761 C1762 1.389 . S
C1762 C1761 1.389 . S
C1762 C1763 1.387 . S
C1763 H1748 0.930 . S
C1763 C1758 1.390 . S
C1763 C1762 1.387 . S
H1764 C1776 0.930 . S
H1765 C1778 0.930 . S
H1766 C1779 0.930 . S
H1767 C1783 0.959 . S
H1768 C1783 0.959 . S
H1769 C1783 0.961 . S
H1770 C1784 0.960 . S
H1771 C1784 0.961 . S
H1772 C1784 0.959 . S
H1773 C1787 0.929 . S
H1774 C1788 0.931 . S
H1775 C1790 0.930 . S
C1776 H1764 0.930 . S
C1776 C1777 1.399 . S
C1776 C1781 1.399 . S
C1777 C1776 1.399 . S
C1777 C1778 1.376 . S
C1778 H1765 0.930 . S
C1778 C1777 1.376 . S
C1778 C1779 1.388 . S
C1779 H1766 0.930 . S
C1779 C1778 1.388 . S
C1779 C1780 1.390 . S
C1780 C1779 1.390 . S
C1780 C1781 1.394 . S
C1780 C1786 1.465 . S
C1781 C1776 1.399 . S
C1781 C1780 1.394 . S
C1781 C1782 1.516 . S
C1782 C1781 1.516 . S
C1782 C1783 1.502 . S
C1782 C1784 1.561 . S
C1782 C1785 1.526 . S
C1783 H1767 0.959 . S
C1783 H1768 0.959 . S
C1783 H1769 0.961 . S
C1783 C1782 1.502 . S
C1784 H1770 0.960 . S
C1784 H1771 0.961 . S
C1784 H1772 0.959 . S
C1784 C1782 1.561 . S
C1785 C1782 1.526 . S
C1785 C1786 1.396 . S
C1785 C1790 1.390 . S
C1786 C1780 1.465 . S
C1786 C1785 1.396 . S
C1786 C1787 1.399 . S
C1787 H1773 0.929 . S
C1787 C1786 1.399 . S
C1787 C1788 1.385 . S
C1788 H1774 0.931 . S
C1788 C1787 1.385 . S
C1788 C1789 1.389 . S
C1789 C1788 1.389 . S
C1789 C1790 1.387 . S
C1790 H1775 0.930 . S
C1790 C1785 1.390 . S
C1790 C1789 1.387 . S
H1791 C1803 0.930 . S
H1792 C1805 0.930 . S
H1793 C1806 0.930 . S
H1794 C1810 0.959 . S
H1795 C1810 0.959 . S
H1796 C1810 0.961 . S
H1797 C1811 0.960 . S
H1798 C1811 0.961 . S
H1799 C1811 0.959 . S
H1800 C1814 0.929 . S
H1801 C1815 0.931 . S
H1802 C1817 0.930 . S
C1803 H1791 0.930 . S
C1803 C1804 1.399 . S
C1803 C1808 1.399 . S
C1804 C1803 1.399 . S
C1804 C1805 1.376 . S
C1805 H1792 0.930 . S
C1805 C1804 1.376 . S
C1805 C1806 1.388 . S
C1806 H1793 0.930 . S
C1806 C1805 1.388 . S
C1806 C1807 1.390 . S
C1807 C1806 1.390 . S
C1807 C1808 1.394 . S
C1807 C1813 1.465 . S
C1808 C1803 1.399 . S
C1808 C1807 1.394 . S
C1808 C1809 1.516 . S
C1809 C1808 1.516 . S
C1809 C1810 1.502 . S
C1809 C1811 1.561 . S
C1809 C1812 1.526 . S
C1810 H1794 0.959 . S
C1810 H1795 0.959 . S
C1810 H1796 0.961 . S
C1810 C1809 1.502 . S
C1811 H1797 0.960 . S
C1811 H1798 0.961 . S
C1811 H1799 0.959 . S
C1811 C1809 1.561 . S
C1812 C1809 1.526 . S
C1812 C1813 1.396 . S
C1812 C1817 1.390 . S
C1813 C1807 1.465 . S
C1813 C1812 1.396 . S
C1813 C1814 1.399 . S
C1814 H1800 0.929 . S
C1814 C1813 1.399 . S
C1814 C1815 1.385 . S
C1815 H1801 0.931 . S
C1815 C1814 1.385 . S
C1815 C1816 1.389 . S
C1816 C1815 1.389 . S
C1816 C1817 1.387 . S
C1817 H1802 0.930 . S
C1817 C1812 1.390 . S
C1817 C1816 1.387 . S
H1818 C1830 0.930 . S
H1819 C1832 0.930 . S
H1820 C1833 0.930 . S
H1821 C1837 0.959 . S
H1822 C1837 0.959 . S
H1823 C1837 0.961 . S
H1824 C1838 0.960 . S
H1825 C1838 0.961 . S
H1826 C1838 0.959 . S
H1827 C1841 0.929 . S
H1828 C1842 0.931 . S
H1829 C1844 0.930 . S
C1830 H1818 0.930 . S
C1830 C1831 1.399 . S
C1830 C1835 1.399 . S
C1831 C1830 1.399 . S
C1831 C1832 1.376 . S
C1832 H1819 0.930 . S
C1832 C1831 1.376 . S
C1832 C1833 1.388 . S
C1833 H1820 0.930 . S
C1833 C1832 1.388 . S
C1833 C1834 1.390 . S
C1834 C1833 1.390 . S
C1834 C1835 1.394 . S
C1834 C1840 1.465 . S
C1835 C1830 1.399 . S
C1835 C1834 1.394 . S
C1835 C1836 1.516 . S
C1836 C1835 1.516 . S
C1836 C1837 1.502 . S
C1836 C1838 1.561 . S
C1836 C1839 1.526 . S
C1837 H1821 0.959 . S
C1837 H1822 0.959 . S
C1837 H1823 0.961 . S
C1837 C1836 1.502 . S
C1838 H1824 0.960 . S
C1838 H1825 0.961 . S
C1838 H1826 0.959 . S
C1838 C1836 1.561 . S
C1839 C1836 1.526 . S
C1839 C1840 1.396 . S
C1839 C1844 1.390 . S
C1840 C1834 1.465 . S
C1840 C1839 1.396 . S
C1840 C1841 1.399 . S
C1841 H1827 0.929 . S
C1841 C1840 1.399 . S
C1841 C1842 1.385 . S
C1842 H1828 0.931 . S
C1842 C1841 1.385 . S
C1842 C1843 1.389 . S
C1843 C1842 1.389 . S
C1843 C1844 1.387 . S
C1844 H1829 0.930 . S
C1844 C1839 1.390 . S
C1844 C1843 1.387 . S
H1845 C1857 0.930 . S
H1846 C1859 0.930 . S
H1847 C1860 0.930 . S
H1848 C1864 0.959 . S
H1849 C1864 0.959 . S
H1850 C1864 0.961 . S
H1851 C1865 0.960 . S
H1852 C1865 0.961 . S
H1853 C1865 0.959 . S
H1854 C1868 0.929 . S
H1855 C1869 0.931 . S
H1856 C1871 0.930 . S
C1857 H1845 0.930 . S
C1857 C1858 1.399 . S
C1857 C1862 1.399 . S
C1858 C1857 1.399 . S
C1858 C1859 1.376 . S
C1859 H1846 0.930 . S
C1859 C1858 1.376 . S
C1859 C1860 1.388 . S
C1860 H1847 0.930 . S
C1860 C1859 1.388 . S
C1860 C1861 1.390 . S
C1861 C1860 1.390 . S
C1861 C1862 1.394 . S
C1861 C1867 1.465 . S
C1862 C1857 1.399 . S
C1862 C1861 1.394 . S
C1862 C1863 1.516 . S
C1863 C1862 1.516 . S
C1863 C1864 1.502 . S
C1863 C1865 1.561 . S
C1863 C1866 1.526 . S
C1864 H1848 0.959 . S
C1864 H1849 0.959 . S
C1864 H1850 0.961 . S
C1864 C1863 1.502 . S
C1865 H1851 0.960 . S
C1865 H1852 0.961 . S
C1865 H1853 0.959 . S
C1865 C1863 1.561 . S
C1866 C1863 1.526 . S
C1866 C1867 1.396 . S
C1866 C1871 1.390 . S
C1867 C1861 1.465 . S
C1867 C1866 1.396 . S
C1867 C1868 1.399 . S
C1868 H1854 0.929 . S
C1868 C1867 1.399 . S
C1868 C1869 1.385 . S
C1869 H1855 0.931 . S
C1869 C1868 1.385 . S
C1869 C1870 1.389 . S
C1870 C1869 1.389 . S
C1870 C1871 1.387 . S
C1871 H1856 0.930 . S
C1871 C1866 1.390 . S
C1871 C1870 1.387 . S
H1872 C1884 0.930 . S
H1873 C1886 0.930 . S
H1874 C1887 0.930 . S
H1875 C1891 0.959 . S
H1876 C1891 0.959 . S
H1877 C1891 0.961 . S
H1878 C1892 0.960 . S
H1879 C1892 0.961 . S
H1880 C1892 0.959 . S
H1881 C1895 0.929 . S
H1882 C1896 0.931 . S
H1883 C1898 0.930 . S
C1884 H1872 0.930 . S
C1884 C1885 1.399 . S
C1884 C1889 1.399 . S
C1885 C1884 1.399 . S
C1885 C1886 1.376 . S
C1886 H1873 0.930 . S
C1886 C1885 1.376 . S
C1886 C1887 1.388 . S
C1887 H1874 0.930 . S
C1887 C1886 1.388 . S
C1887 C1888 1.390 . S
C1888 C1887 1.390 . S
C1888 C1889 1.394 . S
C1888 C1894 1.465 . S
C1889 C1884 1.399 . S
C1889 C1888 1.394 . S
C1889 C1890 1.516 . S
C1890 C1889 1.516 . S
C1890 C1891 1.502 . S
C1890 C1892 1.561 . S
C1890 C1893 1.526 . S
C1891 H1875 0.959 . S
C1891 H1876 0.959 . S
C1891 H1877 0.961 . S
C1891 C1890 1.502 . S
C1892 H1878 0.960 . S
C1892 H1879 0.961 . S
C1892 H1880 0.959 . S
C1892 C1890 1.561 . S
C1893 C1890 1.526 . S
C1893 C1894 1.396 . S
C1893 C1898 1.390 . S
C1894 C1888 1.465 . S
C1894 C1893 1.396 . S
C1894 C1895 1.399 . S
C1895 H1881 0.929 . S
C1895 C1894 1.399 . S
C1895 C1896 1.385 . S
C1896 H1882 0.931 . S
C1896 C1895 1.385 . S
C1896 C1897 1.389 . S
C1897 C1896 1.389 . S
C1897 C1898 1.387 . S
C1898 H1883 0.930 . S
C1898 C1893 1.390 . S
C1898 C1897 1.387 . S
H1899 C1911 0.930 . S
H1900 C1913 0.930 . S
H1901 C1914 0.930 . S
H1902 C1918 0.959 . S
H1903 C1918 0.959 . S
H1904 C1918 0.961 . S
H1905 C1919 0.960 . S
H1906 C1919 0.961 . S
H1907 C1919 0.959 . S
H1908 C1922 0.929 . S
H1909 C1923 0.931 . S
H1910 C1925 0.930 . S
C1911 H1899 0.930 . S
C1911 C1912 1.399 . S
C1911 C1916 1.399 . S
C1912 C1911 1.399 . S
C1912 C1913 1.376 . S
C1913 H1900 0.930 . S
C1913 C1912 1.376 . S
C1913 C1914 1.388 . S
C1914 H1901 0.930 . S
C1914 C1913 1.388 . S
C1914 C1915 1.390 . S
C1915 C1914 1.390 . S
C1915 C1916 1.394 . S
C1915 C1921 1.465 . S
C1916 C1911 1.399 . S
C1916 C1915 1.394 . S
C1916 C1917 1.516 . S
C1917 C1916 1.516 . S
C1917 C1918 1.502 . S
C1917 C1919 1.561 . S
C1917 C1920 1.526 . S
C1918 H1902 0.959 . S
C1918 H1903 0.959 . S
C1918 H1904 0.961 . S
C1918 C1917 1.502 . S
C1919 H1905 0.960 . S
C1919 H1906 0.961 . S
C1919 H1907 0.959 . S
C1919 C1917 1.561 . S
C1920 C1917 1.526 . S
C1920 C1921 1.396 . S
C1920 C1925 1.390 . S
C1921 C1915 1.465 . S
C1921 C1920 1.396 . S
C1921 C1922 1.399 . S
C1922 H1908 0.929 . S
C1922 C1921 1.399 . S
C1922 C1923 1.385 . S
C1923 H1909 0.931 . S
C1923 C1922 1.385 . S
C1923 C1924 1.389 . S
C1924 C1923 1.389 . S
C1924 C1925 1.387 . S
C1925 H1910 0.930 . S
C1925 C1920 1.390 . S
C1925 C1924 1.387 . S
H1926 C1938 0.930 . S
H1927 C1940 0.930 . S
H1928 C1941 0.930 . S
H1929 C1945 0.959 . S
H1930 C1945 0.959 . S
H1931 C1945 0.961 . S
H1932 C1946 0.960 . S
H1933 C1946 0.961 . S
H1934 C1946 0.959 . S
H1935 C1949 0.929 . S
H1936 C1950 0.931 . S
H1937 C1952 0.930 . S
C1938 H1926 0.930 . S
C1938 C1939 1.399 . S
C1938 C1943 1.399 . S
C1939 C1938 1.399 . S
C1939 C1940 1.376 . S
C1940 H1927 0.930 . S
C1940 C1939 1.376 . S
C1940 C1941 1.388 . S
C1941 H1928 0.930 . S
C1941 C1940 1.388 . S
C1941 C1942 1.390 . S
C1942 C1941 1.390 . S
C1942 C1943 1.394 . S
C1942 C1948 1.465 . S
C1943 C1938 1.399 . S
C1943 C1942 1.394 . S
C1943 C1944 1.516 . S
C1944 C1943 1.516 . S
C1944 C1945 1.502 . S
C1944 C1946 1.561 . S
C1944 C1947 1.526 . S
C1945 H1929 0.959 . S
C1945 H1930 0.959 . S
C1945 H1931 0.961 . S
C1945 C1944 1.502 . S
C1946 H1932 0.960 . S
C1946 H1933 0.961 . S
C1946 H1934 0.959 . S
C1946 C1944 1.561 . S
C1947 C1944 1.526 . S
C1947 C1948 1.396 . S
C1947 C1952 1.390 . S
C1948 C1942 1.465 . S
C1948 C1947 1.396 . S
C1948 C1949 1.399 . S
C1949 H1935 0.929 . S
C1949 C1948 1.399 . S
C1949 C1950 1.385 . S
C1950 H1936 0.931 . S
C1950 C1949 1.385 . S
C1950 C1951 1.389 . S
C1951 C1950 1.389 . S
C1951 C1952 1.387 . S
C1952 H1937 0.930 . S
C1952 C1947 1.390 . S
C1952 C1951 1.387 . S
H1953 C1965 0.930 . S
H1954 C1967 0.930 . S
H1955 C1968 0.930 . S
H1956 C1972 0.959 . S
H1957 C1972 0.959 . S
H1958 C1972 0.961 . S
H1959 C1973 0.960 . S
H1960 C1973 0.961 . S
H1961 C1973 0.959 . S
H1962 C1976 0.929 . S
H1963 C1977 0.931 . S
H1964 C1979 0.930 . S
C1965 H1953 0.930 . S
C1965 C1966 1.399 . S
C1965 C1970 1.399 . S
C1966 C1965 1.399 . S
C1966 C1967 1.376 . S
C1967 H1954 0.930 . S
C1967 C1966 1.376 . S
C1967 C1968 1.388 . S
C1968 H1955 0.930 . S
C1968 C1967 1.388 . S
C1968 C1969 1.390 . S
C1969 C1968 1.390 . S
C1969 C1970 1.394 . S
C1969 C1975 1.465 . S
C1970 C1965 1.399 . S
C1970 C1969 1.394 . S
C1970 C1971 1.516 . S
C1971 C1970 1.516 . S
C1971 C1972 1.502 . S
C1971 C1973 1.561 . S
C1971 C1974 1.526 . S
C1972 H1956 0.959 . S
C1972 H1957 0.959 . S
C1972 H1958 0.961 . S
C1972 C1971 1.502 . S
C1973 H1959 0.960 . S
C1973 H1960 0.961 . S
C1973 H1961 0.959 . S
C1973 C1971 1.561 . S
C1974 C1971 1.526 . S
C1974 C1975 1.396 . S
C1974 C1979 1.390 . S
C1975 C1969 1.465 . S
C1975 C1974 1.396 . S
C1975 C1976 1.399 . S
C1976 H1962 0.929 . S
C1976 C1975 1.399 . S
C1976 C1977 1.385 . S
C1977 H1963 0.931 . S
C1977 C1976 1.385 . S
C1977 C1978 1.389 . S
C1978 C1977 1.389 . S
C1978 C1979 1.387 . S
C1979 H1964 0.930 . S
C1979 C1974 1.390 . S
C1979 C1978 1.387 . S
H1980 C1992 0.930 . S
H1981 C1994 0.930 . S
H1982 C1995 0.930 . S
H1983 C1999 0.959 . S
H1984 C1999 0.959 . S
H1985 C1999 0.961 . S
H1986 C2000 0.960 . S
H1987 C2000 0.961 . S
H1988 C2000 0.959 . S
H1989 C2003 0.929 . S
H1990 C2004 0.931 . S
H1991 C2006 0.930 . S
C1992 H1980 0.930 . S
C1992 C1993 1.399 . S
C1992 C1997 1.399 . S
C1993 C1992 1.399 . S
C1993 C1994 1.376 . S
C1994 H1981 0.930 . S
C1994 C1993 1.376 . S
C1994 C1995 1.388 . S
C1995 H1982 0.930 . S
C1995 C1994 1.388 . S
C1995 C1996 1.390 . S
C1996 C1995 1.390 . S
C1996 C1997 1.394 . S
C1996 C2002 1.465 . S
C1997 C1992 1.399 . S
C1997 C1996 1.394 . S
C1997 C1998 1.516 . S
C1998 C1997 1.516 . S
C1998 C1999 1.502 . S
C1998 C2000 1.561 . S
C1998 C2001 1.526 . S
C1999 H1983 0.959 . S
C1999 H1984 0.959 . S
C1999 H1985 0.961 . S
C1999 C1998 1.502 . S
C2000 H1986 0.960 . S
C2000 H1987 0.961 . S
C2000 H1988 0.959 . S
C2000 C1998 1.561 . S
C2001 C1998 1.526 . S
C2001 C2002 1.396 . S
C2001 C2006 1.390 . S
C2002 C1996 1.465 . S
C2002 C2001 1.396 . S
C2002 C2003 1.399 . S
C2003 H1989 0.929 . S
C2003 C2002 1.399 . S
C2003 C2004 1.385 . S
C2004 H1990 0.931 . S
C2004 C2003 1.385 . S
C2004 C2005 1.389 . S
C2005 C2004 1.389 . S
C2005 C2006 1.387 . S
C2006 H1991 0.930 . S
C2006 C2001 1.390 . S
C2006 C2005 1.387 . S
H2007 C2019 0.930 . S
H2008 C2021 0.930 . S
H2009 C2022 0.930 . S
H2010 C2026 0.959 . S
H2011 C2026 0.959 . S
H2012 C2026 0.961 . S
H2013 C2027 0.960 . S
H2014 C2027 0.961 . S
H2015 C2027 0.959 . S
H2016 C2030 0.929 . S
H2017 C2031 0.931 . S
H2018 C2033 0.930 . S
C2019 H2007 0.930 . S
C2019 C2020 1.399 . S
C2019 C2024 1.399 . S
C2020 C2019 1.399 . S
C2020 C2021 1.376 . S
C2021 H2008 0.930 . S
C2021 C2020 1.376 . S
C2021 C2022 1.388 . S
C2022 H2009 0.930 . S
C2022 C2021 1.388 . S
C2022 C2023 1.390 . S
C2023 C2022 1.390 . S
C2023 C2024 1.394 . S
C2023 C2029 1.465 . S
C2024 C2019 1.399 . S
C2024 C2023 1.394 . S
C2024 C2025 1.516 . S
C2025 C2024 1.516 . S
C2025 C2026 1.502 . S
C2025 C2027 1.561 . S
C2025 C2028 1.526 . S
C2026 H2010 0.959 . S
C2026 H2011 0.959 . S
C2026 H2012 0.961 . S
C2026 C2025 1.502 . S
C2027 H2013 0.960 . S
C2027 H2014 0.961 . S
C2027 H2015 0.959 . S
C2027 C2025 1.561 . S
C2028 C2025 1.526 . S
C2028 C2029 1.396 . S
C2028 C2033 1.390 . S
C2029 C2023 1.465 . S
C2029 C2028 1.396 . S
C2029 C2030 1.399 . S
C2030 H2016 0.929 . S
C2030 C2029 1.399 . S
C2030 C2031 1.385 . S
C2031 H2017 0.931 . S
C2031 C2030 1.385 . S
C2031 C2032 1.389 . S
C2032 C2031 1.389 . S
C2032 C2033 1.387 . S
C2033 H2018 0.930 . S
C2033 C2028 1.390 . S
C2033 C2032 1.387 . S
H2034 C2046 0.930 . S
H2035 C2048 0.930 . S
H2036 C2049 0.930 . S
H2037 C2053 0.959 . S
H2038 C2053 0.959 . S
H2039 C2053 0.961 . S
H2040 C2054 0.960 . S
H2041 C2054 0.961 . S
H2042 C2054 0.959 . S
H2043 C2057 0.929 . S
H2044 C2058 0.931 . S
H2045 C2060 0.930 . S
C2046 H2034 0.930 . S
C2046 C2047 1.399 . S
C2046 C2051 1.399 . S
C2047 C2046 1.399 . S
C2047 C2048 1.376 . S
C2048 H2035 0.930 . S
C2048 C2047 1.376 . S
C2048 C2049 1.388 . S
C2049 H2036 0.930 . S
C2049 C2048 1.388 . S
C2049 C2050 1.390 . S
C2050 C2049 1.390 . S
C2050 C2051 1.394 . S
C2050 C2056 1.465 . S
C2051 C2046 1.399 . S
C2051 C2050 1.394 . S
C2051 C2052 1.516 . S
C2052 C2051 1.516 . S
C2052 C2053 1.502 . S
C2052 C2054 1.561 . S
C2052 C2055 1.526 . S
C2053 H2037 0.959 . S
C2053 H2038 0.959 . S
C2053 H2039 0.961 . S
C2053 C2052 1.502 . S
C2054 H2040 0.960 . S
C2054 H2041 0.961 . S
C2054 H2042 0.959 . S
C2054 C2052 1.561 . S
C2055 C2052 1.526 . S
C2055 C2056 1.396 . S
C2055 C2060 1.390 . S
C2056 C2050 1.465 . S
C2056 C2055 1.396 . S
C2056 C2057 1.399 . S
C2057 H2043 0.929 . S
C2057 C2056 1.399 . S
C2057 C2058 1.385 . S
C2058 H2044 0.931 . S
C2058 C2057 1.385 . S
C2058 C2059 1.389 . S
C2059 C2058 1.389 . S
C2059 C2060 1.387 . S
C2060 H2045 0.930 . S
C2060 C2055 1.390 . S
C2060 C2059 1.387 . S
H2061 C2073 0.930 . S
H2062 C2075 0.930 . S
H2063 C2076 0.930 . S
H2064 C2080 0.959 . S
H2065 C2080 0.959 . S
H2066 C2080 0.961 . S
H2067 C2081 0.960 . S
H2068 C2081 0.961 . S
H2069 C2081 0.959 . S
H2070 C2084 0.929 . S
H2071 C2085 0.931 . S
H2072 C2087 0.930 . S
C2073 H2061 0.930 . S
C2073 C2074 1.399 . S
C2073 C2078 1.399 . S
C2074 C2073 1.399 . S
C2074 C2075 1.376 . S
C2075 H2062 0.930 . S
C2075 C2074 1.376 . S
C2075 C2076 1.388 . S
C2076 H2063 0.930 . S
C2076 C2075 1.388 . S
C2076 C2077 1.390 . S
C2077 C2076 1.390 . S
C2077 C2078 1.394 . S
C2077 C2083 1.465 . S
C2078 C2073 1.399 . S
C2078 C2077 1.394 . S
C2078 C2079 1.516 . S
C2079 C2078 1.516 . S
C2079 C2080 1.502 . S
C2079 C2081 1.561 . S
C2079 C2082 1.526 . S
C2080 H2064 0.959 . S
C2080 H2065 0.959 . S
C2080 H2066 0.961 . S
C2080 C2079 1.502 . S
C2081 H2067 0.960 . S
C2081 H2068 0.961 . S
C2081 H2069 0.959 . S
C2081 C2079 1.561 . S
C2082 C2079 1.526 . S
C2082 C2083 1.396 . S
C2082 C2087 1.390 . S
C2083 C2077 1.465 . S
C2083 C2082 1.396 . S
C2083 C2084 1.399 . S
C2084 H2070 0.929 . S
C2084 C2083 1.399 . S
C2084 C2085 1.385 . S
C2085 H2071 0.931 . S
C2085 C2084 1.385 . S
C2085 C2086 1.389 . S
C2086 C2085 1.389 . S
C2086 C2087 1.387 . S
C2087 H2072 0.930 . S
C2087 C2082 1.390 . S
C2087 C2086 1.387 . S
H2088 C2100 0.930 . S
H2089 C2102 0.930 . S
H2090 C2103 0.930 . S
H2091 C2107 0.959 . S
H2092 C2107 0.959 . S
H2093 C2107 0.961 . S
H2094 C2108 0.960 . S
H2095 C2108 0.961 . S
H2096 C2108 0.959 . S
H2097 C2111 0.929 . S
H2098 C2112 0.931 . S
H2099 C2114 0.930 . S
C2100 H2088 0.930 . S
C2100 C2101 1.399 . S
C2100 C2105 1.399 . S
C2101 C2100 1.399 . S
C2101 C2102 1.376 . S
C2102 H2089 0.930 . S
C2102 C2101 1.376 . S
C2102 C2103 1.388 . S
C2103 H2090 0.930 . S
C2103 C2102 1.388 . S
C2103 C2104 1.390 . S
C2104 C2103 1.390 . S
C2104 C2105 1.394 . S
C2104 C2110 1.465 . S
C2105 C2100 1.399 . S
C2105 C2104 1.394 . S
C2105 C2106 1.516 . S
C2106 C2105 1.516 . S
C2106 C2107 1.502 . S
C2106 C2108 1.561 . S
C2106 C2109 1.526 . S
C2107 H2091 0.959 . S
C2107 H2092 0.959 . S
C2107 H2093 0.961 . S
C2107 C2106 1.502 . S
C2108 H2094 0.960 . S
C2108 H2095 0.961 . S
C2108 H2096 0.959 . S
C2108 C2106 1.561 . S
C2109 C2106 1.526 . S
C2109 C2110 1.396 . S
C2109 C2114 1.390 . S
C2110 C2104 1.465 . S
C2110 C2109 1.396 . S
C2110 C2111 1.399 . S
C2111 H2097 0.929 . S
C2111 C2110 1.399 . S
C2111 C2112 1.385 . S
C2112 H2098 0.931 . S
C2112 C2111 1.385 . S
C2112 C2113 1.389 . S
C2113 C2112 1.389 . S
C2113 C2114 1.387 . S
C2114 H2099 0.930 . S
C2114 C2109 1.390 . S
C2114 C2113 1.387 . S
H2115 C2127 0.930 . S
H2116 C2129 0.930 . S
H2117 C2130 0.930 . S
H2118 C2134 0.959 . S
H2119 C2134 0.959 . S
H2120 C2134 0.961 . S
H2121 C2135 0.960 . S
H2122 C2135 0.961 . S
H2123 C2135 0.959 . S
H2124 C2138 0.929 . S
H2125 C2139 0.931 . S
H2126 C2141 0.930 . S
C2127 H2115 0.930 . S
C2127 C2128 1.399 . S
C2127 C2132 1.399 . S
C2128 C2127 1.399 . S
C2128 C2129 1.376 . S
C2129 H2116 0.930 . S
C2129 C2128 1.376 . S
C2129 C2130 1.388 . S
C2130 H2117 0.930 . S
C2130 C2129 1.388 . S
C2130 C2131 1.390 . S
C2131 C2130 1.390 . S
C2131 C2132 1.394 . S
C2131 C2137 1.465 . S
C2132 C2127 1.399 . S
C2132 C2131 1.394 . S
C2132 C2133 1.516 . S
C2133 C2132 1.516 . S
C2133 C2134 1.502 . S
C2133 C2135 1.561 . S
C2133 C2136 1.526 . S
C2134 H2118 0.959 . S
C2134 H2119 0.959 . S
C2134 H2120 0.961 . S
C2134 C2133 1.502 . S
C2135 H2121 0.960 . S
C2135 H2122 0.961 . S
C2135 H2123 0.959 . S
C2135 C2133 1.561 . S
C2136 C2133 1.526 . S
C2136 C2137 1.396 . S
C2136 C2141 1.390 . S
C2137 C2131 1.465 . S
C2137 C2136 1.396 . S
C2137 C2138 1.399 . S
C2138 H2124 0.929 . S
C2138 C2137 1.399 . S
C2138 C2139 1.385 . S
C2139 H2125 0.931 . S
C2139 C2138 1.385 . S
C2139 C2140 1.389 . S
C2140 C2139 1.389 . S
C2140 C2141 1.387 . S
C2141 H2126 0.930 . S
C2141 C2136 1.390 . S
C2141 C2140 1.387 . S
H2142 C2154 0.930 . S
H2143 C2156 0.930 . S
H2144 C2157 0.930 . S
H2145 C2161 0.959 . S
H2146 C2161 0.959 . S
H2147 C2161 0.961 . S
H2148 C2162 0.960 . S
H2149 C2162 0.961 . S
H2150 C2162 0.959 . S
H2151 C2165 0.929 . S
H2152 C2166 0.931 . S
H2153 C2168 0.930 . S
C2154 H2142 0.930 . S
C2154 C2155 1.399 . S
C2154 C2159 1.399 . S
C2155 C2154 1.399 . S
C2155 C2156 1.376 . S
C2156 H2143 0.930 . S
C2156 C2155 1.376 . S
C2156 C2157 1.388 . S
C2157 H2144 0.930 . S
C2157 C2156 1.388 . S
C2157 C2158 1.390 . S
C2158 C2157 1.390 . S
C2158 C2159 1.394 . S
C2158 C2164 1.465 . S
C2159 C2154 1.399 . S
C2159 C2158 1.394 . S
C2159 C2160 1.516 . S
C2160 C2159 1.516 . S
C2160 C2161 1.502 . S
C2160 C2162 1.561 . S
C2160 C2163 1.526 . S
C2161 H2145 0.959 . S
C2161 H2146 0.959 . S
C2161 H2147 0.961 . S
C2161 C2160 1.502 . S
C2162 H2148 0.960 . S
C2162 H2149 0.961 . S
C2162 H2150 0.959 . S
C2162 C2160 1.561 . S
C2163 C2160 1.526 . S
C2163 C2164 1.396 . S
C2163 C2168 1.390 . S
C2164 C2158 1.465 . S
C2164 C2163 1.396 . S
C2164 C2165 1.399 . S
C2165 H2151 0.929 . S
C2165 C2164 1.399 . S
C2165 C2166 1.385 . S
C2166 H2152 0.931 . S
C2166 C2165 1.385 . S
C2166 C2167 1.389 . S
C2167 C2166 1.389 . S
C2167 C2168 1.387 . S
C2168 H2153 0.930 . S
C2168 C2163 1.390 . S
C2168 C2167 1.387 . S
H2169 C2181 0.930 . S
H2170 C2183 0.930 . S
H2171 C2184 0.930 . S
H2172 C2188 0.959 . S
H2173 C2188 0.959 . S
H2174 C2188 0.961 . S
H2175 C2189 0.960 . S
H2176 C2189 0.961 . S
H2177 C2189 0.959 . S
H2178 C2192 0.929 . S
H2179 C2193 0.931 . S
H2180 C2195 0.930 . S
C2181 H2169 0.930 . S
C2181 C2182 1.399 . S
C2181 C2186 1.399 . S
C2182 C2181 1.399 . S
C2182 C2183 1.376 . S
C2183 H2170 0.930 . S
C2183 C2182 1.376 . S
C2183 C2184 1.388 . S
C2184 H2171 0.930 . S
C2184 C2183 1.388 . S
C2184 C2185 1.390 . S
C2185 C2184 1.390 . S
C2185 C2186 1.394 . S
C2185 C2191 1.465 . S
C2186 C2181 1.399 . S
C2186 C2185 1.394 . S
C2186 C2187 1.516 . S
C2187 C2186 1.516 . S
C2187 C2188 1.502 . S
C2187 C2189 1.561 . S
C2187 C2190 1.526 . S
C2188 H2172 0.959 . S
C2188 H2173 0.959 . S
C2188 H2174 0.961 . S
C2188 C2187 1.502 . S
C2189 H2175 0.960 . S
C2189 H2176 0.961 . S
C2189 H2177 0.959 . S
C2189 C2187 1.561 . S
C2190 C2187 1.526 . S
C2190 C2191 1.396 . S
C2190 C2195 1.390 . S
C2191 C2185 1.465 . S
C2191 C2190 1.396 . S
C2191 C2192 1.399 . S
C2192 H2178 0.929 . S
C2192 C2191 1.399 . S
C2192 C2193 1.385 . S
C2193 H2179 0.931 . S
C2193 C2192 1.385 . S
C2193 C2194 1.389 . S
C2194 C2193 1.389 . S
C2194 C2195 1.387 . S
C2195 H2180 0.930 . S
C2195 C2190 1.390 . S
C2195 C2194 1.387 . S
H2196 C2208 0.930 . S
H2197 C2210 0.930 . S
H2198 C2211 0.930 . S
H2199 C2215 0.959 . S
H2200 C2215 0.959 . S
H2201 C2215 0.961 . S
H2202 C2216 0.960 . S
H2203 C2216 0.961 . S
H2204 C2216 0.959 . S
H2205 C2219 0.929 . S
H2206 C2220 0.931 . S
H2207 C2222 0.930 . S
C2208 H2196 0.930 . S
C2208 C2209 1.399 . S
C2208 C2213 1.399 . S
C2209 C2208 1.399 . S
C2209 C2210 1.376 . S
C2210 H2197 0.930 . S
C2210 C2209 1.376 . S
C2210 C2211 1.388 . S
C2211 H2198 0.930 . S
C2211 C2210 1.388 . S
C2211 C2212 1.390 . S
C2212 C2211 1.390 . S
C2212 C2213 1.394 . S
C2212 C2218 1.465 . S
C2213 C2208 1.399 . S
C2213 C2212 1.394 . S
C2213 C2214 1.516 . S
C2214 C2213 1.516 . S
C2214 C2215 1.502 . S
C2214 C2216 1.561 . S
C2214 C2217 1.526 . S
C2215 H2199 0.959 . S
C2215 H2200 0.959 . S
C2215 H2201 0.961 . S
C2215 C2214 1.502 . S
C2216 H2202 0.960 . S
C2216 H2203 0.961 . S
C2216 H2204 0.959 . S
C2216 C2214 1.561 . S
C2217 C2214 1.526 . S
C2217 C2218 1.396 . S
C2217 C2222 1.390 . S
C2218 C2212 1.465 . S
C2218 C2217 1.396 . S
C2218 C2219 1.399 . S
C2219 H2205 0.929 . S
C2219 C2218 1.399 . S
C2219 C2220 1.385 . S
C2220 H2206 0.931 . S
C2220 C2219 1.385 . S
C2220 C2221 1.389 . S
C2221 C2220 1.389 . S
C2221 C2222 1.387 . S
C2222 H2207 0.930 . S
C2222 C2217 1.390 . S
C2222 C2221 1.387 . S
H2223 C2235 0.930 . S
H2224 C2237 0.930 . S
H2225 C2238 0.930 . S
H2226 C2242 0.959 . S
H2227 C2242 0.959 . S
H2228 C2242 0.961 . S
H2229 C2243 0.960 . S
H2230 C2243 0.961 . S
H2231 C2243 0.959 . S
H2232 C2246 0.929 . S
H2233 C2247 0.931 . S
H2234 C2249 0.930 . S
C2235 H2223 0.930 . S
C2235 C2236 1.399 . S
C2235 C2240 1.399 . S
C2236 C2235 1.399 . S
C2236 C2237 1.376 . S
C2237 H2224 0.930 . S
C2237 C2236 1.376 . S
C2237 C2238 1.388 . S
C2238 H2225 0.930 . S
C2238 C2237 1.388 . S
C2238 C2239 1.390 . S
C2239 C2238 1.390 . S
C2239 C2240 1.394 . S
C2239 C2245 1.465 . S
C2240 C2235 1.399 . S
C2240 C2239 1.394 . S
C2240 C2241 1.516 . S
C2241 C2240 1.516 . S
C2241 C2242 1.502 . S
C2241 C2243 1.561 . S
C2241 C2244 1.526 . S
C2242 H2226 0.959 . S
C2242 H2227 0.959 . S
C2242 H2228 0.961 . S
C2242 C2241 1.502 . S
C2243 H2229 0.960 . S
C2243 H2230 0.961 . S
C2243 H2231 0.959 . S
C2243 C2241 1.561 . S
C2244 C2241 1.526 . S
C2244 C2245 1.396 . S
C2244 C2249 1.390 . S
C2245 C2239 1.465 . S
C2245 C2244 1.396 . S
C2245 C2246 1.399 . S
C2246 H2232 0.929 . S
C2246 C2245 1.399 . S
C2246 C2247 1.385 . S
C2247 H2233 0.931 . S
C2247 C2246 1.385 . S
C2247 C2248 1.389 . S
C2248 C2247 1.389 . S
C2248 C2249 1.387 . S
C2249 H2234 0.930 . S
C2249 C2244 1.390 . S
C2249 C2248 1.387 . S
H2250 C2262 0.930 . S
H2251 C2264 0.930 . S
H2252 C2265 0.930 . S
H2253 C2269 0.959 . S
H2254 C2269 0.959 . S
H2255 C2269 0.961 . S
H2256 C2270 0.960 . S
H2257 C2270 0.961 . S
H2258 C2270 0.959 . S
H2259 C2273 0.929 . S
H2260 C2274 0.931 . S
H2261 C2276 0.930 . S
C2262 H2250 0.930 . S
C2262 C2263 1.399 . S
C2262 C2267 1.399 . S
C2263 C2262 1.399 . S
C2263 C2264 1.376 . S
C2264 H2251 0.930 . S
C2264 C2263 1.376 . S
C2264 C2265 1.388 . S
C2265 H2252 0.930 . S
C2265 C2264 1.388 . S
C2265 C2266 1.390 . S
C2266 C2265 1.390 . S
C2266 C2267 1.394 . S
C2266 C2272 1.465 . S
C2267 C2262 1.399 . S
C2267 C2266 1.394 . S
C2267 C2268 1.516 . S
C2268 C2267 1.516 . S
C2268 C2269 1.502 . S
C2268 C2270 1.561 . S
C2268 C2271 1.526 . S
C2269 H2253 0.959 . S
C2269 H2254 0.959 . S
C2269 H2255 0.961 . S
C2269 C2268 1.502 . S
C2270 H2256 0.960 . S
C2270 H2257 0.961 . S
C2270 H2258 0.959 . S
C2270 C2268 1.561 . S
C2271 C2268 1.526 . S
C2271 C2272 1.396 . S
C2271 C2276 1.390 . S
C2272 C2266 1.465 . S
C2272 C2271 1.396 . S
C2272 C2273 1.399 . S
C2273 H2259 0.929 . S
C2273 C2272 1.399 . S
C2273 C2274 1.385 . S
C2274 H2260 0.931 . S
C2274 C2273 1.385 . S
C2274 C2275 1.389 . S
C2275 C2274 1.389 . S
C2275 C2276 1.387 . S
C2276 H2261 0.930 . S
C2276 C2271 1.390 . S
C2276 C2275 1.387 . S
H2277 C2289 0.930 . S
H2278 C2291 0.930 . S
H2279 C2292 0.930 . S
H2280 C2296 0.959 . S
H2281 C2296 0.959 . S
H2282 C2296 0.961 . S
H2283 C2297 0.960 . S
H2284 C2297 0.961 . S
H2285 C2297 0.959 . S
H2286 C2300 0.929 . S
H2287 C2301 0.931 . S
H2288 C2303 0.930 . S
C2289 H2277 0.930 . S
C2289 C2290 1.399 . S
C2289 C2294 1.399 . S
C2290 C2289 1.399 . S
C2290 C2291 1.376 . S
C2291 H2278 0.930 . S
C2291 C2290 1.376 . S
C2291 C2292 1.388 . S
C2292 H2279 0.930 . S
C2292 C2291 1.388 . S
C2292 C2293 1.390 . S
C2293 C2292 1.390 . S
C2293 C2294 1.394 . S
C2293 C2299 1.465 . S
C2294 C2289 1.399 . S
C2294 C2293 1.394 . S
C2294 C2295 1.516 . S
C2295 C2294 1.516 . S
C2295 C2296 1.502 . S
C2295 C2297 1.561 . S
C2295 C2298 1.526 . S
C2296 H2280 0.959 . S
C2296 H2281 0.959 . S
C2296 H2282 0.961 . S
C2296 C2295 1.502 . S
C2297 H2283 0.960 . S
C2297 H2284 0.961 . S
C2297 H2285 0.959 . S
C2297 C2295 1.561 . S
C2298 C2295 1.526 . S
C2298 C2299 1.396 . S
C2298 C2303 1.390 . S
C2299 C2293 1.465 . S
C2299 C2298 1.396 . S
C2299 C2300 1.399 . S
C2300 H2286 0.929 . S
C2300 C2299 1.399 . S
C2300 C2301 1.385 . S
C2301 H2287 0.931 . S
C2301 C2300 1.385 . S
C2301 C2302 1.389 . S
C2302 C2301 1.389 . S
C2302 C2303 1.387 . S
C2303 H2288 0.930 . S
C2303 C2298 1.390 . S
C2303 C2302 1.387 . S
H2304 C2316 0.930 . S
H2305 C2318 0.930 . S
H2306 C2319 0.930 . S
H2307 C2323 0.959 . S
H2308 C2323 0.959 . S
H2309 C2323 0.961 . S
H2310 C2324 0.960 . S
H2311 C2324 0.961 . S
H2312 C2324 0.959 . S
H2313 C2327 0.929 . S
H2314 C2328 0.931 . S
H2315 C2330 0.930 . S
C2316 H2304 0.930 . S
C2316 C2317 1.399 . S
C2316 C2321 1.399 . S
C2317 C2316 1.399 . S
C2317 C2318 1.376 . S
C2318 H2305 0.930 . S
C2318 C2317 1.376 . S
C2318 C2319 1.388 . S
C2319 H2306 0.930 . S
C2319 C2318 1.388 . S
C2319 C2320 1.390 . S
C2320 C2319 1.390 . S
C2320 C2321 1.394 . S
C2320 C2326 1.465 . S
C2321 C2316 1.399 . S
C2321 C2320 1.394 . S
C2321 C2322 1.516 . S
C2322 C2321 1.516 . S
C2322 C2323 1.502 . S
C2322 C2324 1.561 . S
C2322 C2325 1.526 . S
C2323 H2307 0.959 . S
C2323 H2308 0.959 . S
C2323 H2309 0.961 . S
C2323 C2322 1.502 . S
C2324 H2310 0.960 . S
C2324 H2311 0.961 . S
C2324 H2312 0.959 . S
C2324 C2322 1.561 . S
C2325 C2322 1.526 . S
C2325 C2326 1.396 . S
C2325 C2330 1.390 . S
C2326 C2320 1.465 . S
C2326 C2325 1.396 . S
C2326 C2327 1.399 . S
C2327 H2313 0.929 . S
C2327 C2326 1.399 . S
C2327 C2328 1.385 . S
C2328 H2314 0.931 . S
C2328 C2327 1.385 . S
C2328 C2329 1.389 . S
C2329 C2328 1.389 . S
C2329 C2330 1.387 . S
C2330 H2315 0.930 . S
C2330 C2325 1.390 . S
C2330 C2329 1.387 . S
H2331 C2343 0.930 . S
H2332 C2345 0.930 . S
H2333 C2346 0.930 . S
H2334 C2350 0.959 . S
H2335 C2350 0.959 . S
H2336 C2350 0.961 . S
H2337 C2351 0.960 . S
H2338 C2351 0.961 . S
H2339 C2351 0.959 . S
H2340 C2354 0.929 . S
H2341 C2355 0.931 . S
H2342 C2357 0.930 . S
C2343 H2331 0.930 . S
C2343 C2344 1.399 . S
C2343 C2348 1.399 . S
C2344 C2343 1.399 . S
C2344 C2345 1.376 . S
C2345 H2332 0.930 . S
C2345 C2344 1.376 . S
C2345 C2346 1.388 . S
C2346 H2333 0.930 . S
C2346 C2345 1.388 . S
C2346 C2347 1.390 . S
C2347 C2346 1.390 . S
C2347 C2348 1.394 . S
C2347 C2353 1.465 . S
C2348 C2343 1.399 . S
C2348 C2347 1.394 . S
C2348 C2349 1.516 . S
C2349 C2348 1.516 . S
C2349 C2350 1.502 . S
C2349 C2351 1.561 . S
C2349 C2352 1.526 . S
C2350 H2334 0.959 . S
C2350 H2335 0.959 . S
C2350 H2336 0.961 . S
C2350 C2349 1.502 . S
C2351 H2337 0.960 . S
C2351 H2338 0.961 . S
C2351 H2339 0.959 . S
C2351 C2349 1.561 . S
C2352 C2349 1.526 . S
C2352 C2353 1.396 . S
C2352 C2357 1.390 . S
C2353 C2347 1.465 . S
C2353 C2352 1.396 . S
C2353 C2354 1.399 . S
C2354 H2340 0.929 . S
C2354 C2353 1.399 . S
C2354 C2355 1.385 . S
C2355 H2341 0.931 . S
C2355 C2354 1.385 . S
C2355 C2356 1.389 . S
C2356 C2355 1.389 . S
C2356 C2357 1.387 . S
C2357 H2342 0.930 . S
C2357 C2352 1.390 . S
C2357 C2356 1.387 . S
H2358 C2370 0.930 . S
H2359 C2372 0.930 . S
H2360 C2373 0.930 . S
H2361 C2377 0.959 . S
H2362 C2377 0.959 . S
H2363 C2377 0.961 . S
H2364 C2378 0.960 . S
H2365 C2378 0.961 . S
H2366 C2378 0.959 . S
H2367 C2381 0.929 . S
H2368 C2382 0.931 . S
H2369 C2384 0.930 . S
C2370 H2358 0.930 . S
C2370 C2371 1.399 . S
C2370 C2375 1.399 . S
C2371 C2370 1.399 . S
C2371 C2372 1.376 . S
C2372 H2359 0.930 . S
C2372 C2371 1.376 . S
C2372 C2373 1.388 . S
C2373 H2360 0.930 . S
C2373 C2372 1.388 . S
C2373 C2374 1.390 . S
C2374 C2373 1.390 . S
C2374 C2375 1.394 . S
C2374 C2380 1.465 . S
C2375 C2370 1.399 . S
C2375 C2374 1.394 . S
C2375 C2376 1.516 . S
C2376 C2375 1.516 . S
C2376 C2377 1.502 . S
C2376 C2378 1.561 . S
C2376 C2379 1.526 . S
C2377 H2361 0.959 . S
C2377 H2362 0.959 . S
C2377 H2363 0.961 . S
C2377 C2376 1.502 . S
C2378 H2364 0.960 . S
C2378 H2365 0.961 . S
C2378 H2366 0.959 . S
C2378 C2376 1.561 . S
C2379 C2376 1.526 . S
C2379 C2380 1.396 . S
C2379 C2384 1.390 . S
C2380 C2374 1.465 . S
C2380 C2379 1.396 . S
C2380 C2381 1.399 . S
C2381 H2367 0.929 . S
C2381 C2380 1.399 . S
C2381 C2382 1.385 . S
C2382 H2368 0.931 . S
C2382 C2381 1.385 . S
C2382 C2383 1.389 . S
C2383 C2382 1.389 . S
C2383 C2384 1.387 . S
C2384 H2369 0.930 . S
C2384 C2379 1.390 . S
C2384 C2383 1.387 . S
H2385 C2397 0.930 . S
H2386 C2399 0.930 . S
H2387 C2400 0.930 . S
H2388 C2404 0.959 . S
H2389 C2404 0.959 . S
H2390 C2404 0.961 . S
H2391 C2405 0.960 . S
H2392 C2405 0.961 . S
H2393 C2405 0.959 . S
H2394 C2408 0.929 . S
H2395 C2409 0.931 . S
H2396 C2411 0.930 . S
C2397 H2385 0.930 . S
C2397 C2398 1.399 . S
C2397 C2402 1.399 . S
C2398 C2397 1.399 . S
C2398 C2399 1.376 . S
C2399 H2386 0.930 . S
C2399 C2398 1.376 . S
C2399 C2400 1.388 . S
C2400 H2387 0.930 . S
C2400 C2399 1.388 . S
C2400 C2401 1.390 . S
C2401 C2400 1.390 . S
C2401 C2402 1.394 . S
C2401 C2407 1.465 . S
C2402 C2397 1.399 . S
C2402 C2401 1.394 . S
C2402 C2403 1.516 . S
C2403 C2402 1.516 . S
C2403 C2404 1.502 . S
C2403 C2405 1.561 . S
C2403 C2406 1.526 . S
C2404 H2388 0.959 . S
C2404 H2389 0.959 . S
C2404 H2390 0.961 . S
C2404 C2403 1.502 . S
C2405 H2391 0.960 . S
C2405 H2392 0.961 . S
C2405 H2393 0.959 . S
C2405 C2403 1.561 . S
C2406 C2403 1.526 . S
C2406 C2407 1.396 . S
C2406 C2411 1.390 . S
C2407 C2401 1.465 . S
C2407 C2406 1.396 . S
C2407 C2408 1.399 . S
C2408 H2394 0.929 . S
C2408 C2407 1.399 . S
C2408 C2409 1.385 . S
C2409 H2395 0.931 . S
C2409 C2408 1.385 . S
C2409 C2410 1.389 . S
C2410 C2409 1.389 . S
C2410 C2411 1.387 . S
C2411 H2396 0.930 . S
C2411 C2406 1.390 . S
C2411 C2410 1.387 . S
C805 N101 1.265 . S
C817 C7 1.327 . S
C832 N2 1.233 1_655 S
C844 C40 1.333 . S
C859 N35 1.234 . S
C871 C73 1.323 . S
C886 C106 1.277 . S
C898 N68 1.319 1_455 S
C913 N167 1.303 . S
C925 C139 1.279 . S
C940 N200 1.257 1_455 S
C952 C172 1.318 . S
C967 C205 1.293 . S
C979 N233 1.315 . S
C994 N134 1.258 1_655 S
C1006 C238 1.318 . S
C1021 C271 1.288 . S
C1033 N596 1.279 . S
C1048 C304 1.298 . S
C1060 N629 1.289 1_554 S
C1075 N662 1.321 . S
C1087 C337 1.283 . S
C1102 N563 1.321 1_554 S
C1114 C370 1.277 . S
C1129 N728 1.320 . S
C1141 C403 1.279 . S
C1156 C436 1.282 . S
C1168 N530 1.313 1_556 S
C1183 C469 1.299 . S
C1195 N761 1.261 . S
C1210 N695 1.236 1_556 S
C1222 C502 1.331 . S
C1237 N299 1.233 . S
C1249 C535 1.330 . S
C1264 C568 1.305 . S
C1276 N497 1.303 . S
C1291 N398 1.265 1_545 S
C1303 C601 1.314 . S
C1318 N431 1.239 . S
C1330 C634 1.333 . S
C1345 N464 1.292 1_565 S
C1357 C667 1.296 . S
C1372 N365 1.242 . S
C1384 C700 1.333 . S
C1399 N266 1.287 1_565 S
C1411 C733 1.300 . S
C1426 N332 1.308 1_545 S
C1438 C766 1.286 . S
C1453 C219 1.814 . S
C1465 C21 1.809 . S
C1480 C54 1.802 . S
C1492 C252 1.813 . S
C1507 C153 1.815 . S
C1519 C87 1.808 . S
C1534 C186 1.802 . S
C1546 C120 1.813 . S
C1561 C351 1.814 . S
C1573 C285 1.807 . S
C1588 C318 1.809 . S
C1600 C384 1.804 . S
C1615 C417 1.812 . S
C1627 C483 1.813 . S
C1642 C516 1.812 . S
C1654 C450 1.803 . S
C1669 C549 1.805 . S
C1681 C582 1.814 . S
C1696 C615 1.808 . S
C1708 C780 1.805 . S
C1723 C648 1.807 . S
C1735 C714 1.815 . S
C1750 C747 1.809 . S
C1762 C681 1.804 . S
C1777 C18 1.116 . S
C1789 N277 1.160 . S
C1804 C51 1.129 . S
C1816 N310 1.161 . S
C1831 N343 1.157 . S
C1843 C84 1.177 . S
C1858 N376 1.168 . S
C1870 C117 1.113 . S
C1885 C150 1.125 . S
C1897 N409 1.169 . S
C1912 N442 1.169 . S
C1924 C183 1.133 . S
C1939 C216 1.179 . S
C1951 N475 1.160 . S
C1966 N508 1.158 . S
C1978 C249 1.139 . S
C1993 C282 1.157 . S
C2005 N541 1.154 . S
C2020 N772 1.158 . S
C2032 C315 1.139 . S
C2047 C348 1.139 . S
C2059 N706 1.170 . S
C2074 C381 1.118 . S
C2086 N739 1.170 . S
C2101 N574 1.163 . S
C2113 C414 1.176 . S
C2128 C447 1.153 . S
C2140 N607 1.156 . S
C2155 C480 1.174 . S
C2167 N640 1.156 . S
C2182 C513 1.126 . S
C2194 N673 1.170 . S
C2209 C546 1.139 . S
C2221 N13 1.170 . S
C2236 C579 1.136 . S
C2248 N145 1.156 . S
C2263 C612 1.113 . S
C2275 N178 1.169 . S
C2290 N211 1.156 . S
C2302 C645 1.129 . S
C2317 C678 1.112 . S
C2329 N244 1.168 . S
C2344 N79 1.158 . S
C2356 C711 1.178 . S
C2371 N112 1.161 . S
C2383 C744 1.169 . S
C2398 C777 1.177 . S
C2410 N46 1.154 . S
