# Generated by pormake.
# Topology smn, (6)-cn, num edge types: 1
# Building blocks:
#     Node 0, Type 0, BuildingBlock: VOLQOD_clean_sbu_1, # of connection points: 6
#     Node 1, Type 0, BuildingBlock: VOLQOD_clean_sbu_1, # of connection points: 6
#     Node 2, Type 0, BuildingBlock: VOLQOD_clean_sbu_1, # of connection points: 6
#     Node 3, Type 0, BuildingBlock: VOLQOD_clean_sbu_1, # of connection points: 6
#     Node 4, Type 0, BuildingBlock: VOLQOD_clean_sbu_1, # of connection points: 6
#     Node 5, Type 0, BuildingBlock: VOLQOD_clean_sbu_1, # of connection points: 6
#     Node 6, Type 0, BuildingBlock: VOLQOD_clean_sbu_1, # of connection points: 6
#     Node 7, Type 0, BuildingBlock: VOLQOD_clean_sbu_1, # of connection points: 6
#     Node 8, Type 0, BuildingBlock: VOLQOD_clean_sbu_1, # of connection points: 6
#     Node 9, Type 0, BuildingBlock: VOLQOD_clean_sbu_1, # of connection points: 6
#     Node 10, Type 0, BuildingBlock: VOLQOD_clean_sbu_1, # of connection points: 6
#     Node 11, Type 0, BuildingBlock: VOLQOD_clean_sbu_1, # of connection points: 6
#     Node 12, Type 0, BuildingBlock: VOLQOD_clean_sbu_1, # of connection points: 6
#     Node 13, Type 0, BuildingBlock: VOLQOD_clean_sbu_1, # of connection points: 6
#     Node 14, Type 0, BuildingBlock: VOLQOD_clean_sbu_1, # of connection points: 6
#     Node 15, Type 0, BuildingBlock: VOLQOD_clean_sbu_1, # of connection points: 6
#     Node 16, Type 0, BuildingBlock: VOLQOD_clean_sbu_1, # of connection points: 6
#     Node 17, Type 0, BuildingBlock: VOLQOD_clean_sbu_1, # of connection points: 6
#     Edge 18, Type (0, 0), BuildingBlock: KIFKEQ_clean_linker_1, # of connection points: 2
#     Edge 19, Type (0, 0), BuildingBlock: KIFKEQ_clean_linker_1, # of connection points: 2
#     Edge 20, Type (0, 0), BuildingBlock: KIFKEQ_clean_linker_1, # of connection points: 2
#     Edge 21, Type (0, 0), BuildingBlock: KIFKEQ_clean_linker_1, # of connection points: 2
#     Edge 22, Type (0, 0), BuildingBlock: KIFKEQ_clean_linker_1, # of connection points: 2
#     Edge 23, Type (0, 0), BuildingBlock: KIFKEQ_clean_linker_1, # of connection points: 2
#     Edge 24, Type (0, 0), BuildingBlock: KIFKEQ_clean_linker_1, # of connection points: 2
#     Edge 25, Type (0, 0), BuildingBlock: KIFKEQ_clean_linker_1, # of connection points: 2
#     Edge 26, Type (0, 0), BuildingBlock: KIFKEQ_clean_linker_1, # of connection points: 2
#     Edge 27, Type (0, 0), BuildingBlock: KIFKEQ_clean_linker_1, # of connection points: 2
#     Edge 28, Type (0, 0), BuildingBlock: KIFKEQ_clean_linker_1, # of connection points: 2
#     Edge 29, Type (0, 0), BuildingBlock: KIFKEQ_clean_linker_1, # of connection points: 2
#     Edge 30, Type (0, 0), BuildingBlock: KIFKEQ_clean_linker_1, # of connection points: 2
#     Edge 31, Type (0, 0), BuildingBlock: KIFKEQ_clean_linker_1, # of connection points: 2
#     Edge 32, Type (0, 0), BuildingBlock: KIFKEQ_clean_linker_1, # of connection points: 2
#     Edge 33, Type (0, 0), BuildingBlock: KIFKEQ_clean_linker_1, # of connection points: 2
#     Edge 34, Type (0, 0), BuildingBlock: KIFKEQ_clean_linker_1, # of connection points: 2
#     Edge 35, Type (0, 0), BuildingBlock: KIFKEQ_clean_linker_1, # of connection points: 2
#     Edge 36, Type (0, 0), BuildingBlock: KIFKEQ_clean_linker_1, # of connection points: 2
#     Edge 37, Type (0, 0), BuildingBlock: KIFKEQ_clean_linker_1, # of connection points: 2
#     Edge 38, Type (0, 0), BuildingBlock: KIFKEQ_clean_linker_1, # of connection points: 2
#     Edge 39, Type (0, 0), BuildingBlock: KIFKEQ_clean_linker_1, # of connection points: 2
#     Edge 40, Type (0, 0), BuildingBlock: KIFKEQ_clean_linker_1, # of connection points: 2
#     Edge 41, Type (0, 0), BuildingBlock: KIFKEQ_clean_linker_1, # of connection points: 2
#     Edge 42, Type (0, 0), BuildingBlock: KIFKEQ_clean_linker_1, # of connection points: 2
#     Edge 43, Type (0, 0), BuildingBlock: KIFKEQ_clean_linker_1, # of connection points: 2
#     Edge 44, Type (0, 0), BuildingBlock: KIFKEQ_clean_linker_1, # of connection points: 2
#     Edge 45, Type (0, 0), BuildingBlock: KIFKEQ_clean_linker_1, # of connection points: 2
#     Edge 46, Type (0, 0), BuildingBlock: KIFKEQ_clean_linker_1, # of connection points: 2
#     Edge 47, Type (0, 0), BuildingBlock: KIFKEQ_clean_linker_1, # of connection points: 2
#     Edge 48, Type (0, 0), BuildingBlock: KIFKEQ_clean_linker_1, # of connection points: 2
#     Edge 49, Type (0, 0), BuildingBlock: KIFKEQ_clean_linker_1, # of connection points: 2
#     Edge 50, Type (0, 0), BuildingBlock: KIFKEQ_clean_linker_1, # of connection points: 2
#     Edge 51, Type (0, 0), BuildingBlock: KIFKEQ_clean_linker_1, # of connection points: 2
#     Edge 52, Type (0, 0), BuildingBlock: KIFKEQ_clean_linker_1, # of connection points: 2
#     Edge 53, Type (0, 0), BuildingBlock: KIFKEQ_clean_linker_1, # of connection points: 2
#     Edge 54, Type (0, 0), BuildingBlock: KIFKEQ_clean_linker_1, # of connection points: 2
#     Edge 55, Type (0, 0), BuildingBlock: KIFKEQ_clean_linker_1, # of connection points: 2
#     Edge 56, Type (0, 0), BuildingBlock: KIFKEQ_clean_linker_1, # of connection points: 2
#     Edge 57, Type (0, 0), BuildingBlock: KIFKEQ_clean_linker_1, # of connection points: 2
#     Edge 58, Type (0, 0), BuildingBlock: KIFKEQ_clean_linker_1, # of connection points: 2
#     Edge 59, Type (0, 0), BuildingBlock: KIFKEQ_clean_linker_1, # of connection points: 2
#     Edge 60, Type (0, 0), BuildingBlock: KIFKEQ_clean_linker_1, # of connection points: 2
#     Edge 61, Type (0, 0), BuildingBlock: KIFKEQ_clean_linker_1, # of connection points: 2
#     Edge 62, Type (0, 0), BuildingBlock: KIFKEQ_clean_linker_1, # of connection points: 2
#     Edge 63, Type (0, 0), BuildingBlock: KIFKEQ_clean_linker_1, # of connection points: 2
#     Edge 64, Type (0, 0), BuildingBlock: KIFKEQ_clean_linker_1, # of connection points: 2
#     Edge 65, Type (0, 0), BuildingBlock: KIFKEQ_clean_linker_1, # of connection points: 2
#     Edge 66, Type (0, 0), BuildingBlock: KIFKEQ_clean_linker_1, # of connection points: 2
#     Edge 67, Type (0, 0), BuildingBlock: KIFKEQ_clean_linker_1, # of connection points: 2
#     Edge 68, Type (0, 0), BuildingBlock: KIFKEQ_clean_linker_1, # of connection points: 2
#     Edge 69, Type (0, 0), BuildingBlock: KIFKEQ_clean_linker_1, # of connection points: 2
#     Edge 70, Type (0, 0), BuildingBlock: KIFKEQ_clean_linker_1, # of connection points: 2
#     Edge 71, Type (0, 0), BuildingBlock: KIFKEQ_clean_linker_1, # of connection points: 2
# Relax obj value: 0.237
# Max RMSD: 0.243
# Mean RMSD: 0.242
data_MOF--net-smn--node1-VOLQOD_clean_sbu_1--edge1-KIFKEQ_clean_linker_1
_symmetry_space_group_name_H-M    P1
_symmetry_Int_Tables_number       1
_symmetry_cell_setting            triclinic
loop_
_symmetry_equiv_pos_as_xyz
'x, y, z'
_cell_length_a     64.578311
_cell_length_b     64.607855
_cell_length_c     21.676201
_cell_angle_alpha  90.0166
_cell_angle_beta   90.005152
_cell_angle_gamma 120.03319
loop_
_atom_site_label
_atom_site_type_symbol
_atom_site_fract_x
_atom_site_fract_y
_atom_site_fract_z
_atom_type_partial_charge
O0 O 0.02345 0.25096 0.66303 0.0
Zn1 Zn -0.00157 0.21955 0.69952 0.0
O2 O 0.01344 0.20801 0.75803 0.0
Zn3 Zn 0.00928 0.17694 0.73405 0.0
Zn4 Zn 0.04697 0.23129 0.76612 0.0
Zn5 Zn -0.00031 0.2049 0.83804 0.0
O6 O 0.9872 0.15007 0.79287 0.0
O7 O 0.97777 0.17108 0.85648 0.0
O8 O 0.98294 0.19568 0.62913 0.0
O9 O 0.99206 0.16776 0.65388 0.0
O10 O 0.04146 0.17923 0.71703 0.0
O11 O 0.06567 0.21847 0.72539 0.0
O12 O 0.05793 0.23653 0.85467 0.0
O13 O 0.97463 0.22659 0.74376 0.0
O14 O 0.02385 0.2158 0.90537 0.0
O15 O 0.98063 0.22106 0.84195 0.0
C16 C 0.04482 0.26614 0.67854 0.0
C17 C 0.97516 0.1513 0.83792 0.0
C18 C 0.06208 0.19784 0.71107 0.0
C19 C 0.98251 0.17607 0.61766 0.0
C20 C 0.04652 0.22823 0.90492 0.0
C21 C 0.97079 0.22747 0.80127 0.0
O22 O 0.05552 0.26178 0.72165 0.0
O23 O 0.7699 0.79369 0.66259 0.0
Zn24 Zn 0.80152 0.79984 0.69576 0.0
O25 O 0.8136 0.82653 0.75264 0.0
Zn26 Zn 0.84435 0.85349 0.72867 0.0
Zn27 Zn 0.79043 0.83632 0.76639 0.0
Zn28 Zn 0.81863 0.81616 0.82941 0.0
O29 O 0.87225 0.85674 0.78183 0.0
O30 O 0.85158 0.82242 0.83232 0.0
O31 O 0.82448 0.80826 0.62326 0.0
O32 O 0.85174 0.84592 0.64558 0.0
O33 O 0.84195 0.88355 0.71677 0.0
O34 O 0.80257 0.86779 0.72571 0.0
O35 O 0.78818 0.84277 0.85682 0.0
O36 O 0.79443 0.76908 0.74113 0.0
O37 O 0.81403 0.83375 0.89861 0.0
O38 O 0.79827 0.78131 0.83853 0.0
C39 C 0.75449 0.7992 0.68057 0.0
C40 C 0.87134 0.83998 0.81503 0.0
C41 C 0.82308 0.88518 0.71173 0.0
C42 C 0.84334 0.82791 0.60976 0.0
C43 C 0.80047 0.8427 0.90283 0.0
C44 C 0.79208 0.76468 0.79903 0.0
O45 O 0.75888 0.81382 0.72503 0.0
O46 O 0.22335 0.99405 0.66134 0.0
Zn47 Zn 0.21795 0.02015 0.69382 0.0
O48 O 0.19112 0.0059 0.75034 0.0
Zn49 Zn 0.16487 0.01067 0.7253 0.0
Zn50 Zn 0.18023 0.97274 0.76475 0.0
Zn51 Zn 0.20205 0.02117 0.82705 0.0
O52 O 0.16379 0.03722 0.77563 0.0
O53 O 0.19695 0.04845 0.82987 0.0
O54 O 0.21016 0.0351 0.62109 0.0
O55 O 0.17201 0.02366 0.63984 0.0
O56 O 0.13376 0.9788 0.7177 0.0
O57 O 0.14826 0.95412 0.72591 0.0
O58 O 0.1743 0.96429 0.8556 0.0
O59 O 0.24885 0.04364 0.73883 0.0
O60 O 0.18433 -0.00048 0.89669 0.0
O61 O 0.2368 0.03489 0.83618 0.0
C62 C 0.21678 0.97277 0.67859 0.0
C63 C 0.18059 0.05217 0.81051 0.0
C64 C 0.13122 0.95792 0.71317 0.0
C65 C 0.19033 0.03344 0.60508 0.0
C66 C 0.17497 0.97699 0.90149 0.0
C67 C 0.25337 0.04547 0.79663 0.0
O68 O 0.20168 0.96272 0.72217 0.0
O69 O 0.03427 0.79751 0.26223 0.0
Zn70 Zn 0.01102 0.80591 0.30479 0.0
O71 O -0.00231 0.81847 0.24612 0.0
Zn72 Zn 0.00342 0.85005 0.26635 0.0
Zn73 Zn 0.01354 0.82167 0.17162 0.0
Zn74 Zn 0.96467 0.79672 0.22956 0.0
O75 O 0.97177 0.84974 0.27527 0.0
O76 O 0.94656 0.81056 0.26824 0.0
O77 O 0.02565 0.82895 0.37705 0.0
O78 O 0.01788 0.85765 0.35018 0.0
O79 O 0.02947 0.87601 0.21135 0.0
O80 O 0.0427 0.85314 0.17104 0.0
O81 O 0.99331 0.82033 0.10096 0.0
O82 O 0.98419 0.77473 0.33635 0.0
O83 O 0.95717 0.79552 0.13809 0.0
O84 O 0.95382 0.76485 0.27164 0.0
C85 C 0.03392 0.79187 0.20555 0.0
C86 C 0.95076 0.83158 0.28057 0.0
C87 C 0.04564 0.87362 0.18372 0.0
C88 C 0.02615 0.84862 0.38828 0.0
C89 C 0.97077 0.80815 0.09407 0.0
C90 C 0.96321 0.75992 0.31714 0.0
O91 O 0.02319 0.79722 0.16489 0.0
O92 O 0.22494 0.25861 0.25799 0.0
Zn93 Zn 0.21532 0.22691 0.30181 0.0
O94 O 0.20238 0.20048 0.24363 0.0
Zn95 Zn 0.17003 0.17606 0.26473 0.0
Zn96 Zn 0.20162 0.21308 0.16559 0.0
Zn97 Zn 0.22294 0.18701 0.23338 0.0
O98 O 0.16828 0.14404 0.2793 0.0
O99 O 0.20691 0.15511 0.2733 0.0
O100 O 0.19209 0.22015 0.37311 0.0
O101 O 0.16212 0.18447 0.34583 0.0
O102 O 0.14532 0.17619 0.20562 0.0
O103 O 0.16971 0.20851 0.15089 0.0
O104 O 0.2062 0.19531 0.09794 0.0
O105 O 0.24585 0.23043 0.336 0.0
O106 O 0.22585 0.17966 0.14352 0.0
O107 O 0.25442 0.20726 0.2778 0.0
C108 C 0.2305 0.26379 0.20125 0.0
C109 C 0.18535 0.13957 0.28564 0.0
C110 C 0.14883 0.19225 0.16598 0.0
C111 C 0.17161 0.20185 0.38354 0.0
C112 C 0.21639 0.1829 0.09556 0.0
C113 C 0.25986 0.22274 0.32064 0.0
O114 O 0.22504 0.24765 0.16071 0.0
O115 O 0.75911 0.98041 0.25233 0.0
Zn116 Zn 0.78917 0.00395 0.30017 0.0
O117 O 0.81636 0.01981 0.24577 0.0
Zn118 Zn 0.84238 0.01437 0.26704 0.0
Zn119 Zn 0.80543 0.00641 0.16742 0.0
Zn120 Zn 0.82747 0.05317 0.23728 0.0
O121 O 0.8734 0.04603 0.28151 0.0
O122 O 0.85847 0.07049 0.28082 0.0
O123 O 0.79712 0.98885 0.37227 0.0
O124 O 0.83444 -0.00158 0.34883 0.0
O125 O 0.84354 0.98953 0.21002 0.0
O126 O 0.80915 0.9781 0.1613 0.0
O127 O 0.82509 0.02934 0.10159 0.0
O128 O 0.78202 0.02876 0.33299 0.0
O129 O 0.83585 0.06379 0.14837 0.0
O130 O 0.80505 0.06204 0.27963 0.0
C131 C 0.75446 0.98225 0.19594 0.0
C132 C 0.87554 0.06653 0.29169 0.0
C133 C 0.82607 0.97453 0.17685 0.0
C134 C 0.81651 0.98896 0.38491 0.0
C135 C 0.83569 0.05205 0.10081 0.0
C136 C 0.78868 0.05041 0.31943 0.0
O137 O 0.77094 0.99527 0.15806 0.0
O138 O 0.69133 0.58843 0.98671 0.0
Zn139 Zn 0.66556 0.55806 0.02543 0.0
O140 O 0.68073 0.54658 0.08168 0.0
Zn141 Zn 0.67326 0.51411 0.06536 0.0
Zn142 Zn 0.71427 0.56773 0.08802 0.0
Zn143 Zn 0.66904 0.54697 0.16043 0.0
O144 O 0.64813 0.49044 0.12686 0.0
O145 O 0.63963 0.51634 0.17134 0.0
O146 O 0.64822 0.53338 0.95743 0.0
O147 O 0.65605 0.50483 0.9853 0.0
O148 O 0.70405 0.51287 0.04922 0.0
O149 O 0.72966 0.55206 0.04565 0.0
O150 O 0.72612 0.57089 0.17589 0.0
O151 O 0.64404 0.56748 0.0732 0.0
O152 O 0.69191 0.54948 0.22566 0.0
O153 O 0.66029 0.57218 0.1664 0.0
C154 C 0.71316 0.60302 -2e-05 0.0
C155 C 0.63433 0.49501 0.15935 0.0
C156 C 0.72477 0.53062 0.03682 0.0
C157 C 0.64687 0.5132 0.94802 0.0
C158 C 0.71463 0.56032 0.22465 0.0
C159 C 0.64715 0.57544 0.12848 0.0
O160 O 0.72403 0.59849 0.04249 0.0
O161 O 0.42874 0.12292 0.98869 0.0
Zn162 Zn 0.45853 0.12709 0.02968 0.0
O163 O 0.46989 0.15383 0.08651 0.0
Zn164 Zn 0.50276 0.17814 0.06972 0.0
Zn165 Zn 0.44943 0.16748 0.08759 0.0
Zn166 Zn 0.46785 0.14177 0.16743 0.0
O167 O 0.52547 0.17752 0.13466 0.0
O168 O 0.49926 0.14643 0.19054 0.0
O169 O 0.48341 0.1338 0.9626 0.0
O170 O 0.51273 0.16955 0.99183 0.0
O171 O 0.50522 0.21034 0.05059 0.0
O172 O 0.46644 0.1987 0.04552 0.0
O173 O 0.44474 0.17652 0.17375 0.0
O174 O 0.44823 0.09587 0.07679 0.0
O175 O 0.46147 0.16032 0.23004 0.0
O176 O 0.4444 0.10705 0.17132 0.0
C177 C 0.41457 0.13093 0.99878 0.0
C178 C 0.52062 0.162 0.17705 0.0
C179 C 0.48827 0.21443 0.03758 0.0
C180 C 0.5041 0.15208 0.95433 0.0
C181 C 0.45222 0.17357 0.22556 0.0
C182 C 0.44073 0.09081 0.13238 0.0
O183 O 0.41917 0.14694 0.03957 0.0
O184 O 0.89561 0.32793 0.9899 0.0
Zn185 Zn 0.89115 0.35352 0.03062 0.0
O186 O 0.8638 0.33802 0.08588 0.0
Zn187 Zn 0.83962 0.34655 0.06674 0.0
Zn188 Zn 0.85008 0.30388 0.08636 0.0
Zn189 Zn 0.87483 0.34779 0.16787 0.0
O190 O 0.83947 0.36978 0.13076 0.0
O191 O 0.8697 0.37436 0.18985 0.0
O192 O 0.88533 0.37227 0.96305 0.0
O193 O 0.84919 0.36541 0.98955 0.0
O194 O 0.8076 0.31691 0.04521 0.0
O195 O 0.81913 0.28969 0.04274 0.0
O196 O 0.84061 0.28978 0.17194 0.0
O197 O 0.92185 0.37418 0.08008 0.0
O198 O 0.85564 0.32243 0.22932 0.0
O199 O 0.90969 0.35955 0.17458 0.0
C200 C 0.88724 0.30566 -0.00032 0.0
C201 C 0.85441 0.3803 0.17445 0.0
C202 C 0.80356 0.29585 0.03287 0.0
C203 C 0.86709 0.37463 0.95347 0.0
C204 C 0.84282 0.2999 0.22392 0.0
C205 C 0.92633 0.37201 0.13643 0.0
O206 O 0.8708 0.29426 0.03941 0.0
O207 O 0.70549 0.13314 0.57711 0.0
Zn208 Zn 0.6829 0.1401 0.62798 0.0
O209 O 0.66419 0.14894 0.57515 0.0
Zn210 Zn 0.6685 0.18015 0.59633 0.0
Zn211 Zn 0.67461 0.14985 0.49292 0.0
Zn212 Zn 0.63078 0.12506 0.57536 0.0
O213 O 0.63637 0.1781 0.61528 0.0
O214 O 0.61333 0.13855 0.61871 0.0
O215 O 0.69993 0.16538 0.69496 0.0
O216 O 0.68613 0.19013 0.67579 0.0
O217 O 0.69082 0.20574 0.53441 0.0
O218 O 0.69816 0.18291 0.47142 0.0
O219 O 0.6483 0.14015 0.4329 0.0
O220 O 0.66025 0.10887 0.66959 0.0
O221 O 0.61622 0.11794 0.48968 0.0
O222 O 0.62499 0.09613 0.62389 0.0
C223 C 0.70358 0.12707 0.52035 0.0
C224 C 0.61648 0.15935 0.62815 0.0
C225 C 0.70205 0.20329 0.48904 0.0
C226 C 0.69811 0.18363 0.70896 0.0
C227 C 0.6258 0.12706 0.4379 0.0
C228 C 0.6383 0.09312 0.66201 0.0
O229 O 0.69001 0.13017 0.48364 0.0
O230 O 0.88196 0.59346 0.57265 0.0
Zn231 Zn 0.87661 0.56428 0.62273 0.0
O232 O 0.8672 0.53669 0.56926 0.0
Zn233 Zn 0.83646 0.50924 0.59333 0.0
Zn234 Zn 0.86451 0.54545 0.4868 0.0
Zn235 Zn 0.89172 0.5279 0.56774 0.0
O236 O 0.84004 0.48036 0.61597 0.0
O237 O 0.87965 0.49744 0.61312 0.0
O238 O 0.85235 0.5557 0.69244 0.0
O239 O 0.8261 0.51766 0.67097 0.0
O240 O 0.80969 0.50311 0.53234 0.0
O241 O 0.83069 0.5328 0.46662 0.0
O242 O 0.87594 0.53072 0.42523 0.0
O243 O 0.90848 0.57372 0.66112 0.0
O244 O 0.89788 0.5203 0.48143 0.0
O245 O 0.92137 0.55181 0.6132 0.0
C246 C 0.88457 0.59728 0.51454 0.0
C247 C 0.85925 0.47981 0.62648 0.0
C248 C 0.81092 0.51571 0.48565 0.0
C249 C 0.83337 0.53603 0.705 0.0
C250 C 0.88906 0.52132 0.42967 0.0
C251 C 0.92453 0.5681 0.65159 0.0
O252 O 0.88038 0.58058 0.47669 0.0
O253 O 0.42645 0.30921 0.57506 0.0
Zn254 Zn 0.45559 0.33307 0.62488 0.0
O255 O 0.48334 0.35075 0.57171 0.0
Zn256 Zn 0.51039 0.34723 0.59772 0.0
Zn257 Zn 0.47459 0.33874 0.48976 0.0
Zn258 Zn 0.49279 0.38416 0.56818 0.0
O259 O 0.54013 0.37965 0.61489 0.0
O260 O 0.52348 0.40254 0.61268 0.0
O261 O 0.46361 0.3174 0.6958 0.0
O262 O 0.50229 0.33094 0.67904 0.0
O263 O 0.51505 0.32447 0.54082 0.0
O264 O 0.48624 0.31659 0.47276 0.0
O265 O 0.49014 0.36434 0.42698 0.0
O266 O 0.44649 0.35614 0.66124 0.0
O267 O 0.50054 0.39718 0.4811 0.0
O268 O 0.46923 0.39066 0.6127 0.0
C269 C 0.42262 0.30782 0.51695 0.0
C270 C 0.54111 0.39964 0.62481 0.0
C271 C 0.5025 0.31308 0.49403 0.0
C272 C 0.48362 0.3195 0.71193 0.0
C273 C 0.49969 0.3869 0.43018 0.0
C274 C 0.45263 0.3779 0.65081 0.0
O275 O 0.43937 0.3201 0.47898 0.0
O276 O 0.34707 0.91571 0.33543 0.0
Zn277 Zn 0.32449 0.8841 0.37466 0.0
O278 O 0.34253 0.87479 0.42882 0.0
Zn279 Zn 0.33843 0.84356 0.4069 0.0
Zn280 Zn 0.37601 0.89889 0.42884 0.0
Zn281 Zn 0.33158 0.87319 0.51138 0.0
O282 O 0.31744 0.81758 0.4693 0.0
O283 O 0.30987 0.83974 0.53384 0.0
O284 O 0.30856 0.85948 0.30577 0.0
O285 O 0.31966 0.83288 0.32919 0.0
O286 O 0.3706 0.84622 0.38546 0.0
O287 O 0.39359 0.8858 0.38415 0.0
O288 O 0.39023 0.90521 0.51478 0.0
O289 O 0.30098 0.89008 0.42419 0.0
O290 O 0.35796 0.88459 0.57233 0.0
O291 O 0.31299 0.88976 0.52017 0.0
C292 C 0.36885 0.93165 0.34409 0.0
C293 C 0.30654 0.8196 0.51599 0.0
C294 C 0.39045 0.86509 0.37319 0.0
C295 C 0.30885 0.84022 0.2943 0.0
C296 C 0.38053 0.89702 0.56706 0.0
C297 C 0.30026 0.89353 0.48204 0.0
O298 O 0.3821 0.9285 0.38216 0.0
O299 O 0.10256 0.45362 0.33442 0.0
Zn300 Zn 0.13426 0.46229 0.37281 0.0
O301 O 0.14421 0.48963 0.42745 0.0
Zn302 Zn 0.17548 0.51662 0.40508 0.0
Zn303 Zn 0.12023 0.49913 0.42925 0.0
Zn304 Zn 0.14626 0.48024 0.50955 0.0
O305 O 0.20169 0.52147 0.46699 0.0
O306 O 0.1797 0.49133 0.53062 0.0
O307 O 0.15876 0.47063 0.30376 0.0
O308 O 0.1857 0.50826 0.32701 0.0
O309 O 0.17288 0.54622 0.38403 0.0
O310 O 0.1333 0.52983 0.38512 0.0
O311 O 0.11444 0.50698 0.51572 0.0
O312 O 0.12774 0.43258 0.42183 0.0
O313 O 0.13578 0.4957 0.57153 0.0
O314 O 0.12892 0.44506 0.51811 0.0
C315 C 0.08674 0.45949 0.34457 0.0
C316 C 0.1998 0.50822 0.51283 0.0
C317 C 0.15398 0.54731 0.37321 0.0
C318 C 0.17814 0.49007 0.29213 0.0
C319 C 0.12321 0.50571 0.56731 0.0
C320 C 0.12446 0.42844 0.4797 0.0
O321 O 0.09022 0.47578 0.38336 0.0
O322 O 0.56693 0.66945 0.33247 0.0
Zn323 Zn 0.55926 0.69335 0.36841 0.0
O324 O 0.53129 0.67588 0.41994 0.0
Zn325 Zn 0.50539 0.68129 0.39649 0.0
Zn326 Zn 0.52053 0.64233 0.42535 0.0
Zn327 Zn 0.54085 0.68804 0.50007 0.0
O328 O 0.50427 0.70685 0.45138 0.0
O329 O 0.53613 0.71541 0.5087 0.0
O330 O 0.55202 0.70961 0.29716 0.0
O331 O 0.51337 0.69627 0.31375 0.0
O332 O 0.47449 0.64969 0.38175 0.0
O333 O 0.48917 0.62495 0.38269 0.0
O334 O 0.51262 0.63039 0.51392 0.0
O335 O 0.58875 0.71593 0.41978 0.0
O336 O 0.52136 0.66388 0.56323 0.0
O337 O 0.57544 0.70095 0.51307 0.0
C338 C 0.56026 0.64752 0.34195 0.0
C339 C 0.52058 0.72038 0.48951 0.0
C340 C 0.47221 0.62911 0.37198 0.0
C341 C 0.53199 0.70736 0.28057 0.0
C342 C 0.51193 0.64128 0.56241 0.0
C343 C 0.59249 0.71438 0.47709 0.0
O344 O 0.54345 0.63475 0.37974 0.0
O345 O 0.37341 0.46255 0.91785 0.0
Zn346 Zn 0.35176 0.47079 0.96883 0.0
O347 O 0.33447 0.48108 0.91659 0.0
Zn348 Zn 0.34054 0.51285 0.93631 0.0
Zn349 Zn 0.34575 0.48176 0.83663 0.0
Zn350 Zn 0.30101 0.45878 0.91271 0.0
O351 O 0.30903 0.51266 0.95205 0.0
O352 O 0.28488 0.47324 0.95765 0.0
O353 O 0.36897 0.49522 0.03756 0.0
O354 O 0.35675 0.52125 0.01802 0.0
O355 O 0.3656 0.53781 0.87662 0.0
O356 O 0.37431 0.51317 0.82582 0.0
O357 O 0.32174 0.47846 0.77417 0.0
O358 O 0.32758 0.43967 0.00704 0.0
O359 O 0.28819 0.45555 0.82536 0.0
O360 O 0.29317 0.42821 0.95773 0.0
C361 C 0.36952 0.45446 0.86267 0.0
C362 C 0.28885 0.49441 0.96595 0.0
C363 C 0.37926 0.53414 0.84097 0.0
C364 C 0.36768 0.51374 0.05199 0.0
C365 C 0.29903 0.46673 0.77643 0.0
C366 C 0.30568 0.42435 0.99684 0.0
O367 O 0.3556 0.4574 0.82682 0.0
O368 O 0.55576 0.92801 0.92432 0.0
Zn369 Zn 0.54696 0.89693 0.9699 0.0
O370 O 0.53607 0.87027 0.91321 0.0
Zn371 Zn 0.50392 0.84484 0.9324 0.0
Zn372 Zn 0.53589 0.88224 0.83381 0.0
Zn373 Zn 0.55814 0.85843 0.90752 0.0
O374 O 0.50377 0.81361 0.94984 0.0
O375 O 0.54295 0.82683 0.94811 0.0
O376 O 0.52268 0.88931 0.03894 0.0
O377 O 0.49421 0.85282 0.01178 0.0
O378 O 0.47956 0.84393 0.86993 0.0
O379 O 0.50373 0.87643 0.81534 0.0
O380 O 0.5422 0.86466 0.76896 0.0
O381 O 0.57783 0.90275 0.00693 0.0
O382 O 0.56274 0.85096 0.81903 0.0
O383 O 0.58864 0.87995 0.95463 0.0
C384 C 0.56268 0.93318 0.8684 0.0
C385 C 0.52158 0.81045 0.95892 0.0
C386 C 0.48295 0.85969 0.82942 0.0
C387 C 0.50258 0.87045 0.04879 0.0
C388 C 0.55337 0.85317 0.76947 0.0
C389 C 0.59283 0.89592 0.99522 0.0
O390 O 0.55869 0.91703 0.82893 0.0
O391 O 0.08756 0.6483 0.92314 0.0
Zn392 Zn 0.11806 0.66986 0.9723 0.0
O393 O 0.14502 0.68654 0.91796 0.0
Zn394 Zn 0.17028 0.67935 0.93307 0.0
Zn395 Zn 0.13316 0.67566 0.83873 0.0
Zn396 Zn 0.15682 0.72007 0.91483 0.0
O397 O 0.20213 0.71036 0.94988 0.0
O398 O 0.18784 0.73532 0.95755 0.0
O399 O 0.12581 0.65272 0.0398 0.0
O400 O 0.16266 0.66181 0.01257 0.0
O401 O 0.1688 0.65451 0.8704 0.0
O402 O 0.13456 0.64646 0.8256 0.0
O403 O 0.15366 0.6993 0.77547 0.0
O404 O 0.11194 0.69433 0.01154 0.0
O405 O 0.16576 0.73293 0.82756 0.0
O406 O 0.13502 0.72861 0.96204 0.0
C407 C 0.08273 0.65272 0.86919 0.0
C408 C 0.20471 0.73075 0.9645 0.0
C409 C 0.1505 0.641 0.83727 0.0
C410 C 0.14499 0.65202 0.04938 0.0
C411 C 0.16526 0.72199 0.77803 0.0
C412 C 0.11883 0.7163 0.00171 0.0
O413 O 0.09918 0.66697 0.83281 0.0
H414 H 0.10656 0.23468 0.68372 0.0
H415 H 0.06211 0.15798 0.6664 0.0
H416 H 0.13521 0.23426 0.61296 0.0
H417 H 0.0917 0.15739 0.59756 0.0
H418 H 0.1244 0.17152 0.4042 0.0
H419 H 0.10106 0.16872 0.49399 0.0
H420 H 0.16442 0.22482 0.58255 0.0
H421 H 0.18783 0.22829 0.4904 0.0
C422 C 0.10317 0.21757 0.66613 0.0
C423 C 0.08167 0.19639 0.6796 0.0
C424 C 0.11983 0.21733 0.62573 0.0
C425 C 0.11561 0.19587 0.59835 0.0
C426 C 0.09518 0.17437 0.61637 0.0
C427 C 0.07829 0.17464 0.65628 0.0
C428 C 0.13349 0.18322 0.44286 0.0
C429 C 0.15799 0.20028 0.4399 0.0
C430 C 0.12008 0.18139 0.49494 0.0
C431 C 0.1308 0.19638 0.54604 0.0
C432 C 0.15549 0.21314 0.54378 0.0
C433 C 0.16893 0.21517 0.49104 0.0
H434 H 0.84875 0.9747 0.40782 0.0
H435 H 0.78943 0.97767 0.49061 0.0
H436 H 0.85215 0.95476 0.49813 0.0
H437 H 0.79355 0.95853 0.58343 0.0
H438 H 0.78562 0.89172 0.68409 0.0
H439 H 0.78549 0.92063 0.614 0.0
H440 H 0.86263 0.95617 0.60167 0.0
H441 H 0.8626 0.92607 0.66964 0.0
C442 C 0.83663 0.97143 0.44592 0.0
C443 C 0.81864 0.97756 0.44179 0.0
C444 C 0.83879 0.96021 0.49832 0.0
C445 C 0.82324 0.95508 0.54861 0.0
C446 C 0.80565 0.96189 0.54529 0.0
C447 C 0.80325 0.97285 0.49217 0.0
C448 C 0.80267 0.90589 0.66735 0.0
C449 C 0.8241 0.90618 0.68128 0.0
C450 C 0.80259 0.92271 0.62732 0.0
C451 C 0.82399 0.94052 0.60087 0.0
C452 C 0.8457 0.94223 0.61963 0.0
C453 C 0.84575 0.92511 0.65907 0.0
H454 H 0.09115 0.95823 0.671 0.0
H455 H 0.12218 0.91276 0.68933 0.0
H456 H 0.06013 0.92842 0.60427 0.0
H457 H 0.09241 0.88397 0.62038 0.0
H458 H 0.03532 0.83217 0.49596 0.0
H459 H 0.05422 0.85524 0.58921 0.0
H460 H 0.06111 0.91853 0.50139 0.0
H461 H 0.04135 0.89539 0.41062 0.0
C462 C 0.09117 0.94177 0.66162 0.0
C463 C 0.10949 0.93818 0.68436 0.0
C464 C 0.07352 0.92475 0.62287 0.0
C465 C 0.0741 0.90402 0.60535 0.0
C466 C 0.09121 0.89957 0.63266 0.0
C467 C 0.10854 0.91633 0.67203 0.0
C468 C 0.04073 0.85097 0.49709 0.0
C469 C 0.03702 0.86198 0.44578 0.0
C470 C 0.05156 0.86423 0.55046 0.0
C471 C 0.05928 0.88885 0.55312 0.0
C472 C 0.05498 0.89957 0.50206 0.0
C473 C 0.04387 0.8863 0.44939 0.0
H474 H 0.14735 0.0606 0.86647 0.0
H475 H 0.21975 0.09507 0.7978 0.0
H476 H 0.15699 0.09697 0.92505 0.0
H477 H 0.22938 0.13102 0.85619 0.0
H478 H 0.24054 0.15981 0.06228 0.0
H479 H 0.23056 0.13136 0.97761 0.0
H480 H 0.17433 0.14451 0.91876 0.0
H481 H 0.18451 0.17333 0.00232 0.0
C482 C 0.16492 0.07627 0.86179 0.0
C483 C 0.18286 0.07515 0.82812 0.0
C484 C 0.17051 0.09698 0.89546 0.0
C485 C 0.19406 0.11652 0.89576 0.0
C486 C 0.21123 0.11607 0.85727 0.0
C487 C 0.20565 0.09559 0.82364 0.0
C488 C 0.22644 0.15707 0.03048 0.0
C489 C 0.21339 0.16885 0.03905 0.0
C490 C 0.22072 0.14081 0.98206 0.0
C491 C 0.20161 0.13576 0.94202 0.0
C492 C 0.18906 0.14808 0.9492 0.0
C493 C 0.19508 0.16468 0.99681 0.0
H494 H 0.84439 0.03298 0.99755 0.0
H495 H 0.86462 0.10029 0.0873 0.0
H496 H 0.87853 0.05339 0.9278 0.0
H497 H 0.89844 0.12045 0.01748 0.0
H498 H 0.97219 0.14261 0.95935 0.0
H499 H 0.9357 0.11633 0.01582 0.0
H500 H 0.8987 0.08705 0.84389 0.0
H501 H 0.93568 0.11347 0.78707 0.0
C502 C 0.8557 0.05218 0.00145 0.0
C503 C 0.852 0.06495 0.04886 0.0
C504 C 0.87527 0.0638 0.96155 0.0
C505 C 0.89145 0.0883 0.96861 0.0
C506 C 0.88656 0.10137 0.01228 0.0
C507 C 0.86703 0.08985 0.05189 0.0
C508 C 0.95652 0.12985 0.93379 0.0
C509 C 0.95665 0.12988 0.86914 0.0
C510 C 0.93556 0.11512 0.96594 0.0
C511 C 0.91426 0.10026 0.93401 0.0
C512 C 0.91489 0.09852 0.86944 0.0
C513 C 0.93604 0.11335 0.83704 0.0
H514 H 0.9112 0.87403 0.87592 0.0
H515 H 0.87891 0.80337 0.79662 0.0
H516 H 0.9397 0.86624 0.93204 0.0
H517 H 0.90719 0.79563 0.85188 0.0
H518 H 0.92506 0.78057 0.05152 0.0
H519 H 0.90591 0.79032 0.96851 0.0
H520 H 0.97278 0.85422 0.92761 0.0
H521 H 0.99215 0.84439 0.01023 0.0
C522 C 0.91093 0.85731 0.86847 0.0
C523 C 0.89292 0.83923 0.83252 0.0
C524 C 0.9271 0.85278 0.90063 0.0
C525 C 0.92527 0.83014 0.89702 0.0
C526 C 0.90872 0.81305 0.85619 0.0
C527 C 0.89268 0.81755 0.82434 0.0
C528 C 0.93581 0.7964 0.02399 0.0
C529 C 0.96008 0.81168 0.03754 0.0
C530 C 0.92488 0.80197 0.97636 0.0
C531 C 0.93791 0.82308 0.94181 0.0
C532 C 0.96237 0.83792 0.95373 0.0
C533 C 0.97342 0.83214 0.00075 0.0
H534 H 0.82636 0.80249 0.50209 0.0
H535 H 0.89019 0.85892 0.58742 0.0
H536 H 0.84901 0.80683 0.40794 0.0
H537 H 0.913 0.86238 0.49583 0.0
H538 H 0.9522 0.87219 0.32537 0.0
H539 H 0.92292 0.87364 0.39362 0.0
H540 H 0.87699 0.79718 0.37374 0.0
H541 H 0.9052 0.79605 0.3032 0.0
C542 C 0.84523 0.81571 0.50077 0.0
C543 C 0.85653 0.83021 0.55219 0.0
C544 C 0.85826 0.81823 0.44689 0.0
C545 C 0.88295 0.83497 0.44392 0.0
C546 C 0.89398 0.84971 0.49532 0.0
C547 C 0.88092 0.8475 0.54844 0.0
C548 C 0.93552 0.85585 0.33422 0.0
C549 C 0.93135 0.83394 0.31 0.0
C550 C 0.9188 0.8566 0.3739 0.0
C551 C 0.89783 0.8354 0.39089 0.0
C552 C 0.8928 0.81392 0.36201 0.0
C553 C 0.90924 0.81325 0.3217 0.0
H554 H 0.14951 0.02303 0.54352 0.0
H555 H 0.22639 0.06746 0.53396 0.0
H556 H 0.14535 0.04326 0.45382 0.0
H557 H 0.22224 0.08827 0.44527 0.0
H558 H 0.21168 0.11765 0.2727 0.0
H559 H 0.21104 0.08709 0.3397 0.0
H560 H 0.14989 0.08173 0.43587 0.0
H561 H 0.15012 0.11173 0.36744 0.0
C562 C 0.16556 0.03706 0.522 0.0
C563 C 0.1883 0.04388 0.5463 0.0
C564 C 0.16314 0.04869 0.47066 0.0
C565 C 0.18339 0.06756 0.44266 0.0
C566 C 0.20622 0.07361 0.46517 0.0
C567 C 0.20865 0.06179 0.51628 0.0
C568 C 0.19771 0.10945 0.30715 0.0
C569 C 0.1811 0.11724 0.31539 0.0
C570 C 0.19748 0.09209 0.34587 0.0
C571 C 0.18078 0.08233 0.39407 0.0
C572 C 0.16296 0.08876 0.39905 0.0
C573 C 0.16304 0.10597 0.3598 0.0
H574 H 0.91428 0.06474 0.33872 0.0
H575 H 0.88507 0.11167 0.31731 0.0
H576 H 0.94492 0.0939 0.40765 0.0
H577 H 0.91439 0.13979 0.38817 0.0
H578 H 0.97273 0.19177 0.50981 0.0
H579 H 0.95277 0.168 0.41834 0.0
H580 H 0.94449 0.10482 0.51011 0.0
H581 H 0.9654 0.12871 0.59925 0.0
C582 C 0.91457 0.08136 0.34796 0.0
C583 C 0.89692 0.0856 0.32343 0.0
C584 C 0.93198 0.098 0.388 0.0
C585 C 0.93187 0.11904 0.40482 0.0
C586 C 0.91528 0.12398 0.37637 0.0
C587 C 0.89819 0.10759 0.33592 0.0
C588 C 0.96672 0.17282 0.51002 0.0
C589 C 0.97047 0.16209 0.56181 0.0
C590 C 0.95528 0.15916 0.45766 0.0
C591 C 0.94692 0.13438 0.45655 0.0
C592 C 0.95109 0.12386 0.50829 0.0
C593 C 0.96286 0.13756 0.55995 0.0
H594 H 0.78621 0.93154 0.17943 0.0
H595 H 0.8608 0.96643 0.12876 0.0
H596 H 0.77912 0.89527 0.12706 0.0
H597 H 0.85361 0.93 0.0745 0.0
H598 H 0.8333 0.85694 0.9963 0.0
H599 H 0.8402 0.88599 0.07729 0.0
H600 H 0.77845 0.88943 0.01505 0.0
H601 H 0.77147 0.86046 0.93457 0.0
C602 C 0.8012 0.93122 0.15792 0.0
C603 C 0.82397 0.95179 0.15712 0.0
C604 C 0.79711 0.9105 0.12781 0.0
C605 C 0.81567 0.90998 0.0956 0.0
C606 C 0.83897 0.92991 0.09911 0.0
C607 C 0.84312 0.95073 0.12999 0.0
C608 C 0.82085 0.86347 0.00082 0.0
C609 C 0.80187 0.85648 0.95871 0.0
C610 C 0.82497 0.88025 0.04691 0.0
C611 C 0.80998 0.89007 0.0523 0.0
C612 C 0.79021 0.88201 0.0125 0.0
C613 C 0.78622 0.86545 0.96616 0.0
H614 H 0.15684 0.93035 0.93536 0.0
H615 H 0.1621 0.99669 0.99505 0.0
H616 H 0.12884 0.90939 0.01869 0.0
H617 H 0.13395 0.97556 0.07854 0.0
H618 H 0.05339 0.91602 0.13375 0.0
H619 H 0.08944 0.94477 0.07749 0.0
H620 H 0.12483 0.90602 0.13287 0.0
H621 H 0.08898 0.87737 0.18781 0.0
C622 C 0.15243 0.94055 0.96701 0.0
C623 C 0.1616 0.96513 0.95828 0.0
C624 C 0.13644 0.92857 0.01494 0.0
C625 C 0.12915 0.94087 0.05492 0.0
C626 C 0.13915 0.96565 0.04809 0.0
C627 C 0.15539 0.97771 0.00051 0.0
C628 C 0.06917 0.9142 0.13541 0.0
C629 C 0.06837 0.89435 0.164 0.0
C630 C 0.08978 0.93059 0.10329 0.0
C631 C 0.10972 0.92727 0.09987 0.0
C632 C 0.10955 0.9087 0.13366 0.0
C633 C 0.08907 0.89238 0.16522 0.0
H634 H 0.09453 0.25524 0.92624 0.0
H635 H 0.02867 0.20061 0.00846 0.0
H636 H 0.11722 0.24588 -0.00047 0.0
H637 H 0.0515 0.19092 0.08073 0.0
H638 H 0.10943 0.19098 0.21773 0.0
H639 H 0.08324 0.20318 0.16583 0.0
H640 H 0.11882 0.20811 0.99307 0.0
H641 H 0.14474 0.19638 0.04457 0.0
C642 C 0.0849 0.24172 0.96098 0.0
C643 C 0.05983 0.22828 0.96045 0.0
C644 C 0.09787 0.23622 0.00264 0.0
C645 C 0.08603 0.21709 0.04421 0.0
C646 C 0.06104 0.20557 0.04873 0.0
C647 C 0.04801 0.2112 0.00726 0.0
C648 C 0.111 0.19401 0.16838 0.0
C649 C 0.12897 0.19281 0.13486 0.0
C650 C 0.0963 0.20124 0.13892 0.0
C651 C 0.09963 0.20738 0.07596 0.0
C652 C 0.11643 0.20433 0.04208 0.0
C653 C 0.13099 0.19724 0.07126 0.0
H654 H 0.78539 0.50856 0.71755 0.0
H655 H 0.84911 0.55797 0.81699 0.0
H656 H 0.76117 0.50403 0.80746 0.0
H657 H 0.82512 0.55231 0.90919 0.0
H658 H 0.77163 0.56368 0.02239 0.0
H659 H 0.79907 0.5631 0.94839 0.0
H660 H 0.74817 0.48924 0.90573 0.0
H661 H 0.71968 0.49049 0.9777 0.0
C662 C 0.79423 0.51826 0.75918 0.0
C663 C 0.81907 0.53388 0.76017 0.0
C664 C 0.78037 0.51538 0.81125 0.0
C665 C 0.79105 0.52767 0.86625 0.0
C666 C 0.8161 0.54286 0.86752 0.0
C667 C 0.82992 0.54618 0.81475 0.0
C668 C 0.7663 0.54713 0.99793 0.0
C669 C 0.74316 0.52731 0.00477 0.0
C670 C 0.78229 0.54673 0.95559 0.0
C671 C 0.77579 0.5263 0.91959 0.0
C672 C 0.75352 0.50559 0.93108 0.0
C673 C 0.73728 0.50613 0.97303 0.0
H674 H 0.52351 0.24065 0.95412 0.0
H675 H 0.46294 0.23731 0.04785 0.0
H676 H 0.5238 0.26976 0.88182 0.0
H677 H 0.46359 0.26688 0.97704 0.0
H678 H 0.44761 0.28486 0.78232 0.0
H679 H 0.45187 0.264 0.8709 0.0
H680 H 0.52877 0.30842 0.86054 0.0
H681 H 0.52455 0.32875 0.77128 0.0
C682 C 0.51088 0.24686 0.96069 0.0
C683 C 0.49307 0.23659 0.00603 0.0
C684 C 0.51095 0.26349 0.91918 0.0
C685 C 0.49334 0.27025 0.92283 0.0
C686 C 0.47695 0.26155 0.97186 0.0
C687 C 0.47675 0.24482 0.01281 0.0
C688 C 0.46538 0.29031 0.79939 0.0
C689 C 0.4857 0.30823 0.76926 0.0
C690 C 0.46787 0.27848 0.85043 0.0
C691 C 0.49072 0.28448 0.87271 0.0
C692 C 0.51096 0.30307 0.84399 0.0
C693 C 0.50848 0.31476 0.79285 0.0
H694 H 0.77836 0.30487 0.94616 0.0
H695 H 0.78037 0.24764 0.04359 0.0
H696 H 0.74972 0.27595 0.87303 0.0
H697 H 0.75125 0.21864 0.97198 0.0
H698 H 0.73298 0.18294 0.78003 0.0
H699 H 0.75433 0.20902 0.86682 0.0
H700 H 0.71099 0.2425 0.85124 0.0
H701 H 0.6902 0.217 0.76372 0.0
C702 C 0.77196 0.28602 0.95328 0.0
C703 C 0.7817 0.27849 5e-05 0.0
C704 C 0.75562 0.26941 0.91128 0.0
C705 C 0.74859 0.24499 0.91587 0.0
C706 C 0.7568 0.23735 0.96606 0.0
C707 C 0.77327 0.25393 0.00749 0.0
C708 C 0.72791 0.19574 0.79547 0.0
C709 C 0.71009 0.19804 0.7645 0.0
C710 C 0.74002 0.21061 0.84551 0.0
C711 C 0.7344 0.22794 0.86597 0.0
C712 C 0.71604 0.22966 0.83612 0.0
C713 C 0.70409 0.21495 0.78597 0.0
H714 H 0.86263 0.50974 0.32366 0.0
H715 H 0.91538 0.49895 0.41856 0.0
H716 H 0.85351 0.47623 0.25609 0.0
H717 H 0.9069 0.46602 0.34913 0.0
H718 H 0.86115 0.38917 0.29606 0.0
H719 H 0.87245 0.42658 0.34832 0.0
H720 H 0.86418 0.45631 0.17762 0.0
H721 H 0.85203 0.41814 0.12554 0.0
C722 C 0.87291 0.50078 0.3288 0.0
C723 C 0.88934 0.50665 0.37762 0.0
C724 C 0.86763 0.48152 0.2899 0.0
C725 C 0.87888 0.46796 0.29863 0.0
C726 C 0.89728 0.4756 0.34277 0.0
C727 C 0.90237 0.49467 0.38211 0.0
C728 C 0.86126 0.40355 0.27004 0.0
C729 C 0.8557 0.40086 0.20698 0.0
C730 C 0.86815 0.42513 0.29963 0.0
C731 C 0.87001 0.4447 0.26666 0.0
C732 C 0.86309 0.4416 0.20416 0.0
C733 C 0.85591 0.41975 0.1745 0.0
H734 H 0.52268 0.43554 0.41762 0.0
H735 H 0.50972 0.37111 0.32334 0.0
H736 H 0.55275 0.45943 0.34097 0.0
H737 H 0.53986 0.39517 0.24659 0.0
H738 H 0.62166 0.44919 0.19568 0.0
H739 H 0.58498 0.42117 0.25123 0.0
H740 H 0.55839 0.47027 0.23078 0.0
H741 H 0.59469 0.49804 0.17671 0.0
C742 C 0.5258 0.42648 0.37979 0.0
C743 C 0.51387 0.40142 0.37695 0.0
C744 C 0.54305 0.44017 0.3358 0.0
C745 C 0.54881 0.42911 0.28814 0.0
C746 C 0.536 0.40412 0.2833 0.0
C747 C 0.51857 0.3904 0.327 0.0
C748 C 0.60772 0.45366 0.20213 0.0
C749 C 0.6112 0.47593 0.18317 0.0
C750 C 0.58675 0.43768 0.23371 0.0
C751 C 0.56905 0.4438 0.24621 0.0
C752 C 0.57193 0.46532 0.22308 0.0
C753 C 0.59274 0.48119 0.19207 0.0
H754 H 0.6405 0.15261 0.33068 0.0
H755 H 0.5769 0.10194 0.4293 0.0
H756 H 0.61635 0.16179 0.26264 0.0
H757 H 0.5526 0.11037 0.35918 0.0
H758 H 0.52207 0.15585 0.29911 0.0
H759 H 0.54771 0.14454 0.35385 0.0
H760 H 0.58614 0.15119 0.18479 0.0
H761 H 0.5607 0.16349 0.13041 0.0
C762 C 0.62126 0.14281 0.33666 0.0
C763 C 0.61067 0.12693 0.38649 0.0
C764 C 0.60741 0.14811 0.29742 0.0
C765 C 0.58265 0.13741 0.30672 0.0
C766 C 0.57178 0.11959 0.35227 0.0
C767 C 0.58566 0.1145 0.39201 0.0
C768 C 0.53636 0.1554 0.27405 0.0
C769 C 0.53957 0.16061 0.21083 0.0
C770 C 0.55077 0.14849 0.30504 0.0
C771 C 0.56849 0.1462 0.27329 0.0
C772 C 0.57256 0.15267 0.21051 0.0
C773 C 0.55822 0.15992 0.17949 0.0
H774 H 0.5521 0.18055 0.94179 0.0
H775 H 0.48935 0.12802 0.84398 0.0
H776 H 0.57682 0.18454 0.85368 0.0
H777 H 0.51411 0.13275 0.75382 0.0
H778 H 0.57119 0.1232 0.64957 0.0
H779 H 0.54257 0.12278 0.72184 0.0
H780 H 0.58841 0.19865 0.75241 0.0
H781 H 0.61796 0.19877 0.68175 0.0
C782 C 0.54352 0.17 0.90103 0.0
C783 C 0.51876 0.1538 0.90005 0.0
C784 C 0.55771 0.17254 0.85 0.0
C785 C 0.54754 0.15917 0.7961 0.0
C786 C 0.52265 0.14317 0.79475 0.0
C787 C 0.50843 0.14039 0.84639 0.0
C788 C 0.57514 0.13994 0.67096 0.0
C789 C 0.59718 0.16095 0.66088 0.0
C790 C 0.55849 0.13972 0.71222 0.0
C791 C 0.56327 0.16056 0.74408 0.0
C792 C 0.58442 0.18208 0.72995 0.0
C793 C 0.60127 0.18226 0.68891 0.0
H794 H 0.83763 0.39286 0.9388 0.0
H795 H 0.89348 0.38658 0.84616 0.0
H796 H 0.83429 0.41421 0.85141 0.0
H797 H 0.88951 0.40742 0.75659 0.0
H798 H 0.89705 0.47378 0.65423 0.0
H799 H 0.89816 0.44601 0.72687 0.0
H800 H 0.82143 0.41159 0.7485 0.0
H801 H 0.82045 0.44041 0.67744 0.0
C802 C 0.84908 0.39584 0.89933 0.0
C803 C 0.86592 0.38809 0.89959 0.0
C804 C 0.84693 0.40788 0.84868 0.0
C805 C 0.86139 0.41235 0.79635 0.0
C806 C 0.87819 0.40446 0.7963 0.0
C807 C 0.88053 0.39256 0.84759 0.0
C808 C 0.88028 0.46013 0.67375 0.0
C809 C 0.85867 0.45968 0.66087 0.0
C810 C 0.88094 0.44399 0.71523 0.0
C811 C 0.85997 0.42675 0.74456 0.0
C812 C 0.83805 0.42507 0.72801 0.0
C813 C 0.83742 0.44144 0.6868 0.0
H814 H 0.62999 0.46573 0.93246 0.0
H815 H 0.63564 0.52755 0.83976 0.0
H816 H 0.60898 0.44096 0.84478 0.0
H817 H 0.61533 0.50276 0.74983 0.0
H818 H 0.54818 0.44395 0.65057 0.0
H819 H 0.57679 0.47309 0.72124 0.0
H820 H 0.6105 0.43012 0.74221 0.0
H821 H 0.58075 0.40002 0.67328 0.0
C822 C 0.62701 0.47413 0.89283 0.0
C823 C 0.63432 0.49861 0.89328 0.0
C824 C 0.61518 0.45991 0.84201 0.0
C825 C 0.61054 0.46979 0.78972 0.0
C826 C 0.61832 0.49445 0.78957 0.0
C827 C 0.62995 0.50869 0.84105 0.0
C828 C 0.56186 0.44075 0.66948 0.0
C829 C 0.56181 0.41932 0.65725 0.0
C830 C 0.5785 0.4577 0.70981 0.0
C831 C 0.59578 0.45386 0.73848 0.0
C832 C 0.59701 0.43336 0.72225 0.0
C833 C 0.58011 0.41619 0.68226 0.0
H834 H 0.47134 0.17527 0.33972 0.0
H835 H 0.4419 0.20977 0.22782 0.0
H836 H 0.4877 0.20905 0.41104 0.0
H837 H 0.45803 0.24323 0.29949 0.0
H838 H 0.51441 0.31129 0.3764 0.0
H839 H 0.50083 0.2746 0.31742 0.0
H840 H 0.47793 0.23349 0.48589 0.0
H841 H 0.49199 0.27055 0.54506 0.0
C842 C 0.46776 0.1897 0.33116 0.0
C843 C 0.45564 0.18998 0.27731 0.0
C844 C 0.47726 0.20909 0.37197 0.0
C845 C 0.47483 0.22907 0.35959 0.0
C846 C 0.46083 0.22835 0.30901 0.0
C847 C 0.45129 0.209 0.26838 0.0
C848 C 0.50759 0.29451 0.40099 0.0
C849 C 0.50447 0.29366 0.4651 0.0
C850 C 0.49933 0.27348 0.36724 0.0
C851 C 0.4876 0.25118 0.39698 0.0
C852 C 0.48674 0.25045 0.46182 0.0
C853 C 0.49511 0.27163 0.49575 0.0
H854 H 0.83664 0.31696 0.33412 0.0
H855 H 0.81074 0.25192 0.228 0.0
H856 H 0.80237 0.29676 0.40309 0.0
H857 H 0.77685 0.23175 0.29766 0.0
H858 H 0.70492 0.21168 0.36727 0.0
H859 H 0.74148 0.23636 0.30934 0.0
H860 H 0.78026 0.264 0.48004 0.0
H861 H 0.74317 0.23945 0.53809 0.0
C862 C 0.82404 0.29818 0.32643 0.0
C863 C 0.82625 0.28616 0.27475 0.0
C864 C 0.80435 0.28667 0.36595 0.0
C865 C 0.78655 0.26293 0.35458 0.0
C866 C 0.7899 0.25033 0.30633 0.0
C867 C 0.80951 0.2618 0.26684 0.0
C868 C 0.72107 0.22378 0.39223 0.0
C869 C 0.7213 0.22392 0.45688 0.0
C870 C 0.7421 0.23754 0.35923 0.0
C871 C 0.76388 0.2515 0.39024 0.0
C872 C 0.76375 0.25328 0.45495 0.0
C873 C 0.74253 0.23951 0.48815 0.0
H874 H 0.80158 0.50898 0.36439 0.0
H875 H 0.77381 0.51853 0.53633 0.0
H876 H 0.77608 0.52012 0.30756 0.0
H877 H 0.7483 0.53012 0.47928 0.0
H878 H 0.69555 0.53379 0.32976 0.0
H879 H 0.71496 0.51856 0.39817 0.0
H880 H 0.78178 0.56163 0.30272 0.0
H881 H 0.76257 0.57672 0.23416 0.0
C882 C 0.78922 0.51251 0.38984 0.0
C883 C 0.78946 0.51278 0.45449 0.0
C884 C 0.77497 0.51931 0.35746 0.0
C885 C 0.76084 0.52673 0.38916 0.0
C886 C 0.75919 0.52465 0.4538 0.0
C887 C 0.7735 0.51772 0.48639 0.0
C888 C 0.71453 0.54047 0.32426 0.0
C889 C 0.72742 0.55621 0.2757 0.0
C890 C 0.72557 0.53163 0.36336 0.0
C891 C 0.74963 0.53834 0.35441 0.0
C892 C 0.76297 0.5556 0.30939 0.0
C893 C 0.75202 0.56448 0.27055 0.0
H894 H 0.43459 0.90199 0.34436 0.0
H895 H 0.39023 0.82532 0.32607 0.0
H896 H 0.46325 0.90181 0.27344 0.0
H897 H 0.41989 0.82496 0.25681 0.0
H898 H 0.45519 0.83956 0.06586 0.0
H899 H 0.43063 0.83632 0.15364 0.0
H900 H 0.49269 0.89265 0.24605 0.0
H901 H 0.51721 0.89661 0.15606 0.0
C902 C 0.43118 0.88493 0.32631 0.0
C903 C 0.40977 0.86369 0.33996 0.0
C904 C 0.44787 0.88482 0.28585 0.0
C905 C 0.44382 0.86343 0.25842 0.0
C906 C 0.42331 0.84188 0.27584 0.0
C907 C 0.40638 0.84202 0.31601 0.0
C908 C 0.46368 0.85123 0.10497 0.0
C909 C 0.48814 0.86853 0.10373 0.0
C910 C 0.44959 0.84916 0.15585 0.0
C911 C 0.4596 0.86412 0.20737 0.0
C912 C 0.48426 0.88104 0.20685 0.0
C913 C 0.49835 0.88335 0.15534 0.0
H914 H 0.19325 0.58624 0.32199 0.0
H915 H 0.11709 0.5551 0.34957 0.0
H916 H 0.19284 0.61584 0.25267 0.0
H917 H 0.11642 0.58342 0.2785 0.0
H918 H 0.12023 0.6414 0.15872 0.0
H919 H 0.12536 0.6216 0.24868 0.0
H920 H 0.1798 0.6143 0.15106 0.0
H921 H 0.17545 0.63494 0.06335 0.0
C922 C 0.17652 0.58589 0.31398 0.0
C923 C 0.15518 0.56801 0.34044 0.0
C924 C 0.1762 0.60269 0.27376 0.0
C925 C 0.15448 0.60176 0.25877 0.0
C926 C 0.13352 0.58493 0.2889 0.0
C927 C 0.13389 0.56842 0.32945 0.0
C928 C 0.1333 0.63559 0.15685 0.0
C929 C 0.14731 0.6396 0.1039 0.0
C930 C 0.1363 0.62425 0.20834 0.0
C931 C 0.15307 0.61634 0.20745 0.0
C932 C 0.16714 0.6206 0.1544 0.0
C933 C 0.16442 0.63221 0.10358 0.0
H934 H 0.35674 0.54356 0.11405 0.0
H935 H 0.40448 0.51489 0.11826 0.0
H936 H 0.37738 0.56896 0.20186 0.0
H937 H 0.42582 0.54104 0.20504 0.0
H938 H 0.45416 0.58112 0.37976 0.0
H939 H 0.4252 0.5506 0.31078 0.0
H940 H 0.41446 0.60412 0.22023 0.0
H941 H 0.44282 0.63443 0.29082 0.0
C942 C 0.37168 0.54268 0.13383 0.0
C943 C 0.37918 0.5274 0.10877 0.0
C944 C 0.38357 0.55733 0.1841 0.0
C945 C 0.40344 0.5573 0.21028 0.0
C946 C 0.4104 0.54135 0.18662 0.0
C947 C 0.39828 0.52644 0.13661 0.0
C948 C 0.44512 0.58621 0.34606 0.0
C949 C 0.45085 0.61018 0.34034 0.0
C950 C 0.42872 0.56876 0.3061 0.0
C951 C 0.41785 0.57493 0.25903 0.0
C952 C 0.42235 0.59863 0.25615 0.0
C953 C 0.43859 0.61607 0.29668 0.0
H954 H 0.57766 0.82935 0.74573 0.0
H955 H 0.52404 0.84355 0.66994 0.0
H956 H 0.56908 0.80006 0.6642 0.0
H957 H 0.51532 0.81399 0.58925 0.0
H958 H 0.48721 0.73069 0.53736 0.0
H959 H 0.49663 0.76719 0.59524 0.0
H960 H 0.57109 0.79799 0.54608 0.0
H961 H 0.56175 0.76195 0.48881 0.0
C962 C 0.56442 0.8266 0.7111 0.0
C963 C 0.55157 0.83879 0.71448 0.0
C964 C 0.55948 0.80983 0.66445 0.0
C965 C 0.54141 0.80472 0.6208 0.0
C966 C 0.52919 0.81751 0.62264 0.0
C967 C 0.53439 0.83457 0.66863 0.0
C968 C 0.50535 0.74565 0.53723 0.0
C969 C 0.5238 0.74355 0.50941 0.0
C970 C 0.51079 0.76644 0.5704 0.0
C971 C 0.53468 0.78513 0.5759 0.0
C972 C 0.55264 0.78369 0.54341 0.0
C973 C 0.54725 0.76313 0.51047 0.0
H974 H 0.30365 0.81202 0.63823 0.0
H975 H 0.26658 0.78177 0.46726 0.0
H976 H 0.26716 0.78666 0.69574 0.0
H977 H 0.22958 0.75649 0.52489 0.0
H978 H 0.17335 0.70399 0.67194 0.0
H979 H 0.20807 0.72417 0.60432 0.0
H980 H 0.23084 0.79021 0.70281 0.0
H981 H 0.19649 0.77012 0.77106 0.0
C982 C 0.28783 0.79924 0.61321 0.0
C983 C 0.28786 0.79866 0.54857 0.0
C984 C 0.26684 0.78507 0.64594 0.0
C985 C 0.24535 0.77021 0.61463 0.0
C986 C 0.24586 0.76793 0.55015 0.0
C987 C 0.26705 0.78212 0.51723 0.0
C988 C 0.18546 0.72296 0.67839 0.0
C989 C 0.18231 0.73536 0.72769 0.0
C990 C 0.2054 0.73446 0.63965 0.0
C991 C 0.22253 0.75854 0.64953 0.0
C992 C 0.2183 0.7714 0.69539 0.0
C993 C 0.19842 0.75995 0.73403 0.0
H994 H 0.20761 0.5134 0.63489 0.0
H995 H 0.23752 0.50578 0.46435 0.0
H996 H 0.23323 0.50279 0.69297 0.0
H997 H 0.26311 0.49461 0.52259 0.0
H998 H 0.31649 0.49252 0.66969 0.0
H999 H 0.2958 0.50636 0.60164 0.0
H1000 H 0.23022 0.46322 0.70215 0.0
H1001 H 0.25082 0.44965 0.77077 0.0
C1002 C 0.22036 0.51028 0.61005 0.0
C1003 C 0.2208 0.51057 0.54538 0.0
C1004 C 0.23469 0.50376 0.64314 0.0
C1005 C 0.24959 0.49711 0.61221 0.0
C1006 C 0.25166 0.49949 0.5476 0.0
C1007 C 0.23729 0.50617 0.51431 0.0
C1008 C 0.29752 0.48557 0.67655 0.0
C1009 C 0.28539 0.47021 0.72641 0.0
C1010 C 0.28572 0.49358 0.63754 0.0
C1011 C 0.2616 0.48643 0.64771 0.0
C1012 C 0.24905 0.46962 0.69438 0.0
C1013 C 0.26078 0.46158 0.73327 0.0
H1014 H 0.16313 0.46589 0.1824 0.0
H1015 H 0.22592 0.51928 0.2781 0.0
H1016 H 0.18754 0.47055 0.09172 0.0
H1017 H 0.2505 0.52299 0.18974 0.0
H1018 H 0.29191 0.53471 0.01899 0.0
H1019 H 0.26286 0.53586 0.08916 0.0
H1020 H 0.21507 0.46025 0.05911 0.0
H1021 H 0.24305 0.45954 0.98706 0.0
C1022 C 0.18219 0.47842 0.18418 0.0
C1023 C 0.19264 0.49207 0.23738 0.0
C1024 C 0.19623 0.48114 0.13228 0.0
C1025 C 0.22114 0.49717 0.13304 0.0
C1026 C 0.23141 0.51091 0.18642 0.0
C1027 C 0.21732 0.50854 0.23761 0.0
C1028 C 0.27488 0.51857 0.02615 0.0
C1029 C 0.27004 0.49698 0.99831 0.0
C1030 C 0.25832 0.5191 0.06699 0.0
C1031 C 0.23673 0.498 0.08119 0.0
C1032 C 0.23129 0.47692 0.04949 0.0
C1033 C 0.24759 0.47648 0.00834 0.0
H1034 H 0.49113 0.69539 0.21761 0.0
H1035 H 0.56754 0.74353 0.21235 0.0
H1036 H 0.48609 0.71533 0.12872 0.0
H1037 H 0.56243 0.764 0.124 0.0
H1038 H 0.55 0.79082 0.94814 0.0
H1039 H 0.55133 0.76177 0.01712 0.0
H1040 H 0.48846 0.75311 0.11125 0.0
H1041 H 0.48684 0.78175 0.04101 0.0
C1042 C 0.50691 0.71022 0.19728 0.0
C1043 C 0.52976 0.71811 0.22253 0.0
C1044 C 0.50397 0.72168 0.14637 0.0
C1045 C 0.52377 0.74141 0.11957 0.0
C1046 C 0.54678 0.74866 0.14309 0.0
C1047 C 0.54975 0.73704 0.19393 0.0
C1048 C 0.53609 0.78221 0.98259 0.0
C1049 C 0.51843 0.78869 0.98968 0.0
C1050 C 0.537 0.76575 0.02246 0.0
C1051 C 0.52035 0.75552 0.07057 0.0
C1052 C 0.50154 0.76057 0.07453 0.0
C1053 C 0.50052 0.77695 0.0342 0.0
H1054 H 0.2885 0.79221 0.28236 0.0
H1055 H 0.30231 0.85556 0.18212 0.0
H1056 H 0.26855 0.76773 0.19297 0.0
H1057 H 0.28368 0.83129 0.0905 0.0
H1058 H 0.21831 0.77749 0.97932 0.0
H1059 H 0.24655 0.80507 0.05279 0.0
H1060 H 0.26995 0.75447 0.09446 0.0
H1061 H 0.24002 0.72586 0.02291 0.0
C1062 C 0.28749 0.80092 0.24068 0.0
C1063 C 0.29663 0.82574 0.23936 0.0
C1064 C 0.27634 0.7869 0.18891 0.0
C1065 C 0.27447 0.79738 0.13389 0.0
C1066 C 0.28429 0.82242 0.13223 0.0
C1067 C 0.29497 0.8364 0.18468 0.0
C1068 C 0.22968 0.77226 0.00345 0.0
C1069 C 0.22645 0.74918 0.9964 0.0
C1070 C 0.24619 0.78832 0.04547 0.0
C1071 C 0.26034 0.78197 0.08098 0.0
C1072 C 0.25882 0.75973 0.06942 0.0
C1073 C 0.24192 0.74341 0.02772 0.0
H1074 H 0.18342 0.62785 0.80168 0.0
H1075 H 0.10763 0.60177 0.81817 0.0
H1076 H 0.17451 0.59108 0.74622 0.0
H1077 H 0.09887 0.56539 0.76423 0.0
H1078 H 0.09806 0.52925 0.57829 0.0
H1079 H 0.10439 0.55956 0.65437 0.0
H1080 H 0.15477 0.54587 0.75116 0.0
H1081 H 0.14852 0.51548 0.67502 0.0
C1082 C 0.16496 0.61411 0.79463 0.0
C1083 C 0.14626 0.61787 0.81289 0.0
C1084 C 0.15983 0.59308 0.76312 0.0
C1085 C 0.13596 0.57559 0.75001 0.0
C1086 C 0.11739 0.57876 0.77238 0.0
C1087 C 0.12248 0.59962 0.8033 0.0
C1088 C 0.11004 0.53225 0.61654 0.0
C1089 C 0.12284 0.52001 0.62023 0.0
C1090 C 0.1137 0.54965 0.66019 0.0
C1091 C 0.1303 0.55524 0.70835 0.0
C1092 C 0.14214 0.54214 0.71405 0.0
C1093 C 0.13831 0.52456 0.6707 0.0
H1094 H 0.42032 0.53365 0.82771 0.0
H1095 H 0.38936 0.57867 0.79986 0.0
H1096 H 0.45571 0.56165 0.77056 0.0
H1097 H 0.42507 0.60689 0.74116 0.0
H1098 H 0.4997 0.6582 0.66355 0.0
H1099 H 0.46996 0.63492 0.74198 0.0
H1100 H 0.45986 0.56977 0.6587 0.0
H1101 H 0.48955 0.5929 0.5804 0.0
C1102 C 0.42128 0.54979 0.80997 0.0
C1103 C 0.40198 0.55387 0.81722 0.0
C1104 C 0.44152 0.56576 0.77707 0.0
C1105 C 0.44293 0.58615 0.75029 0.0
C1106 C 0.42442 0.59125 0.76139 0.0
C1107 C 0.40403 0.57519 0.7949 0.0
C1108 C 0.49148 0.63891 0.66256 0.0
C1109 C 0.49699 0.62739 0.61548 0.0
C1110 C 0.47429 0.62563 0.70725 0.0
C1111 C 0.46251 0.60058 0.7063 0.0
C1112 C 0.46881 0.5891 0.66098 0.0
C1113 C 0.48582 0.60235 0.616 0.0
H1114 H 0.36535 0.87429 0.67833 0.0
H1115 H 0.42937 0.91874 0.57265 0.0
H1116 H 0.38819 0.8636 0.74746 0.0
H1117 H 0.45226 0.90858 0.64308 0.0
H1118 H 0.47716 0.85912 0.70702 0.0
H1119 H 0.45194 0.87089 0.65152 0.0
H1120 H 0.42045 0.87493 0.82384 0.0
H1121 H 0.44556 0.8624 0.87933 0.0
C1122 C 0.38445 0.88243 0.67092 0.0
C1123 C 0.39543 0.89695 0.61892 0.0
C1124 C 0.39751 0.87623 0.71066 0.0
C1125 C 0.42182 0.88458 0.69943 0.0
C1126 C 0.43332 0.90118 0.65157 0.0
C1127 C 0.42026 0.90727 0.61163 0.0
C1128 C 0.46427 0.86178 0.7327 0.0
C1129 C 0.46301 0.85965 0.79709 0.0
C1130 C 0.45019 0.86899 0.7012 0.0
C1131 C 0.43478 0.87461 0.73353 0.0
C1132 C 0.43229 0.87088 0.79776 0.0
C1133 C 0.44638 0.86344 0.82942 0.0
H1134 H 0.09076 0.30227 0.69662 0.0
H1135 H 0.02818 0.28205 0.58405 0.0
H1136 H 0.11176 0.3404 0.64297 0.0
H1137 H 0.0492 0.32048 0.53107 0.0
H1138 H 0.10164 0.38576 0.4166 0.0
H1139 H 0.08358 0.34544 0.46068 0.0
H1140 H 0.10755 0.37598 0.64193 0.0
H1141 H 0.12567 0.41581 0.59845 0.0
C1142 C 0.08145 0.30593 0.66048 0.0
C1143 C 0.05768 0.28917 0.64513 0.0
C1144 C 0.09351 0.3278 0.62977 0.0
C1145 C 0.08209 0.33346 0.58299 0.0
C1146 C 0.05854 0.31651 0.56648 0.0
C1147 C 0.04644 0.2946 0.59728 0.0
C1148 C 0.10326 0.38378 0.4657 0.0
C1149 C 0.11497 0.40396 0.50404 0.0
C1150 C 0.0928 0.36075 0.49095 0.0
C1151 C 0.09416 0.35759 0.55475 0.0
C1152 C 0.10644 0.3778 0.59254 0.0
C1153 C 0.11667 0.40067 0.56756 0.0
H1154 H 0.74084 0.77112 0.57735 0.0
H1155 H 0.7154 0.80334 0.70985 0.0
H1156 H 0.7023 0.75276 0.52514 0.0
H1157 H 0.67687 0.78507 0.65695 0.0
H1158 H 0.6042 0.72138 0.59876 0.0
H1159 H 0.6436 0.74361 0.64478 0.0
H1160 H 0.67541 0.7624 0.46345 0.0
H1161 H 0.6356 0.73977 0.41664 0.0
C1162 C 0.72708 0.77438 0.59526 0.0
C1163 C 0.73116 0.78854 0.64823 0.0
C1164 C 0.70507 0.76402 0.56489 0.0
C1165 C 0.68657 0.76746 0.58696 0.0
C1166 C 0.69074 0.78193 0.63925 0.0
C1167 C 0.71282 0.79241 0.66947 0.0
C1168 C 0.61952 0.73024 0.5684 0.0
C1169 C 0.61673 0.72867 0.50387 0.0
C1170 C 0.64212 0.74319 0.59496 0.0
C1171 C 0.66258 0.75482 0.5578 0.0
C1172 C 0.65991 0.75347 0.49321 0.0
C1173 C 0.63715 0.74061 0.46645 0.0
H1174 H 0.2478 0.98779 0.58108 0.0
H1175 H 0.20808 0.92744 0.70249 0.0
H1176 H 0.26497 0.96639 0.52954 0.0
H1177 H 0.22507 0.90594 0.65008 0.0
H1178 H 0.28738 0.89309 0.60154 0.0
H1179 H 0.26499 0.91048 0.64515 0.0
H1180 H 0.25528 0.9314 0.463 0.0
H1181 H 0.27819 0.91412 0.41883 0.0
C1182 C 0.2426 0.96991 0.59661 0.0
C1183 C 0.22673 0.95944 0.64642 0.0
C1184 C 0.25228 0.95756 0.56657 0.0
C1185 C 0.24637 0.93449 0.58572 0.0
C1186 C 0.23014 0.92381 0.63469 0.0
C1187 C 0.2204 0.93613 0.66467 0.0
C1188 C 0.28038 0.90124 0.5705 0.0
C1189 C 0.28476 0.9024 0.50667 0.0
C1190 C 0.26734 0.91104 0.59558 0.0
C1191 C 0.25838 0.92233 0.55758 0.0
C1192 C 0.26217 0.92298 0.49348 0.0
C1193 C 0.27515 0.91298 0.46817 0.0
H1194 H 0.29595 0.06338 0.7333 0.0
H1195 H 0.26639 0.06203 0.91325 0.0
H1196 H 0.33643 0.08712 0.77612 0.0
H1197 H 0.30628 0.08522 0.95535 0.0
H1198 H 0.37953 0.14287 0.00697 0.0
H1199 H 0.34186 0.12529 0.95052 0.0
H1200 H 0.36132 0.07946 0.85183 0.0
H1201 H 0.39916 0.0972 0.90742 0.0
C1202 C 0.29807 0.06825 0.78166 0.0
C1203 C 0.27799 0.06066 0.81993 0.0
C1204 C 0.32117 0.08173 0.80616 0.0
C1205 C 0.32447 0.08808 0.86902 0.0
C1206 C 0.30435 0.08093 0.9066 0.0
C1207 C 0.28144 0.06739 0.88246 0.0
C1208 C 0.37589 0.12917 0.97294 0.0
C1209 C 0.39224 0.12122 0.96238 0.0
C1210 C 0.35431 0.11912 0.94062 0.0
C1211 C 0.34862 0.10091 0.89705 0.0
C1212 C 0.36533 0.09361 0.88471 0.0
C1213 C 0.3869 0.10363 0.91708 0.0
H1214 H 0.94986 0.22026 0.91362 0.0
H1215 H 0.956 0.25482 0.73838 0.0
H1216 H 0.92725 0.23775 0.9549 0.0
H1217 H 0.93279 0.27225 0.78005 0.0
H1218 H 0.92334 0.32411 0.91429 0.0
H1219 H 0.9403 0.3032 0.85909 0.0
H1220 H 0.8893 0.23705 0.94696 0.0
H1221 H 0.87258 0.25794 0.00311 0.0
C1222 C 0.94615 0.23142 0.88359 0.0
C1223 C 0.95493 0.23634 0.82284 0.0
C1224 C 0.93297 0.24128 0.90719 0.0
C1225 C 0.92824 0.25639 0.87078 0.0
C1226 C 0.93635 0.2608 0.80931 0.0
C1227 C 0.94948 0.25073 0.78537 0.0
C1228 C 0.91564 0.30508 0.92166 0.0
C1229 C 0.89681 0.29277 0.96384 0.0
C1230 C 0.92522 0.29306 0.8895 0.0
C1231 C 0.91619 0.26851 0.89885 0.0
C1232 C 0.89684 0.25605 0.93941 0.0
C1233 C 0.88727 0.26804 0.97159 0.0
H1234 H 0.76698 0.72209 0.73592 0.0
H1235 H 0.7953 0.75161 0.91586 0.0
H1236 H 0.74936 0.68164 0.77916 0.0
H1237 H 0.77765 0.71175 0.95846 0.0
H1238 H 0.76008 0.63798 0.01139 0.0
H1239 H 0.78093 0.67575 0.95576 0.0
H1240 H 0.71652 0.65709 0.8534 0.0
H1241 H 0.69569 0.61912 0.90812 0.0
C1242 C 0.76959 0.71996 0.78436 0.0
C1243 C 0.78237 0.74004 0.82248 0.0
C1244 C 0.75944 0.69687 0.80915 0.0
C1245 C 0.76219 0.69355 0.87218 0.0
C1246 C 0.77549 0.71366 0.9096 0.0
C1247 C 0.78541 0.73657 0.88514 0.0
C1248 C 0.75036 0.64184 0.97684 0.0
C1249 C 0.72612 0.62563 0.96483 0.0
C1250 C 0.76232 0.66348 0.94496 0.0
C1251 C 0.75032 0.66942 0.90044 0.0
C1252 C 0.72632 0.65291 0.88697 0.0
C1253 C 0.71433 0.63125 0.91884 0.0
H1254 H 0.90401 0.64006 0.57709 0.0
H1255 H 0.88437 0.60939 0.39442 0.0
H1256 H 0.9207 0.68008 0.53241 0.0
H1257 H 0.90127 0.64904 0.35025 0.0
H1258 H 0.91832 0.72275 0.29009 0.0
H1259 H 0.89664 0.68415 0.34221 0.0
H1260 H 0.95575 0.70576 0.46838 0.0
H1261 H 0.97721 0.74432 0.41732 0.0
C1262 C 0.90306 0.64182 0.52762 0.0
C1263 C 0.89305 0.62154 0.48935 0.0
C1264 C 0.91272 0.66471 0.50201 0.0
C1265 C 0.91237 0.66772 0.43775 0.0
C1266 C 0.90159 0.64737 0.39992 0.0
C1267 C 0.89209 0.6246 0.42534 0.0
C1268 C 0.92664 0.71931 0.32912 0.0
C1269 C 0.9496 0.7366 0.34911 0.0
C1270 C 0.91423 0.69719 0.35893 0.0
C1271 C 0.92449 0.6919 0.40943 0.0
C1272 C 0.9472 0.70938 0.43021 0.0
C1273 C 0.95961 0.73143 0.40042 0.0
H1274 H 0.29665 0.21423 0.29615 0.0
H1275 H 0.27545 0.25283 0.41989 0.0
H1276 H 0.33533 0.23153 0.34822 0.0
H1277 H 0.31408 0.27024 0.47099 0.0
H1278 H 0.38 0.2848 0.58008 0.0
H1279 H 0.33987 0.26107 0.5362 0.0
H1280 H 0.37042 0.27186 0.35367 0.0
H1281 H 0.41024 0.29511 0.39706 0.0
C1282 C 0.30016 0.22629 0.33453 0.0
C1283 C 0.28301 0.23229 0.35342 0.0
C1284 C 0.32233 0.23623 0.36425 0.0
C1285 C 0.32775 0.25227 0.41364 0.0
C1286 C 0.31035 0.25772 0.43361 0.0
C1287 C 0.28826 0.24789 0.40382 0.0
C1288 C 0.37813 0.28186 0.53069 0.0
C1289 C 0.39831 0.29202 0.49208 0.0
C1290 C 0.35517 0.26838 0.50556 0.0
C1291 C 0.352 0.26465 0.44146 0.0
C1292 C 0.37225 0.27415 0.40326 0.0
C1293 C 0.39509 0.2877 0.4282 0.0
H1294 H 0.80621 0.09834 0.33771 0.0
H1295 H 0.74491 0.02875 0.37397 0.0
H1296 H 0.78655 0.11716 0.39225 0.0
H1297 H 0.72534 0.04761 0.42713 0.0
H1298 H 0.68993 0.09564 0.42585 0.0
H1299 H 0.71156 0.0775 0.38058 0.0
H1300 H 0.76886 0.11489 0.51142 0.0
H1301 H 0.74682 0.1329 0.55828 0.0
C1302 C 0.78857 0.08711 0.35713 0.0
C1303 C 0.77704 0.06209 0.35135 0.0
C1304 C 0.77749 0.09785 0.38873 0.0
C1305 C 0.75455 0.08374 0.41386 0.0
C1306 C 0.74306 0.0588 0.40812 0.0
C1307 C 0.75427 0.04806 0.37767 0.0
C1308 C 0.7071 0.09997 0.44524 0.0
C1309 C 0.71673 0.11568 0.49559 0.0
C1310 C 0.71941 0.08953 0.4194 0.0
C1311 C 0.7418 0.09489 0.44256 0.0
C1312 C 0.7516 0.11063 0.49278 0.0
C1313 C 0.73899 0.12076 0.5197 0.0
H1314 H 0.61353 0.93879 0.05415 0.0
H1315 H 0.62388 0.87908 0.01319 0.0
H1316 H 0.65174 0.95866 0.1082 0.0
H1317 H 0.66219 0.89908 0.06867 0.0
H1318 H 0.71768 0.93885 0.23436 0.0
H1319 H 0.67745 0.91632 0.18867 0.0
H1320 H 0.69562 0.97389 0.06008 0.0
H1321 H 0.73565 0.99603 0.10422 0.0
C1322 C 0.62385 0.92979 0.05716 0.0
C1323 C 0.61577 0.90741 0.02909 0.0
C1324 C 0.64568 0.9412 0.0881 0.0
C1325 C 0.65971 0.9303 0.09259 0.0
C1326 C 0.65148 0.90767 0.06609 0.0
C1327 C 0.62974 0.89639 0.03401 0.0
C1328 C 0.71293 0.94667 0.19665 0.0
C1329 C 0.7297 0.96913 0.17274 0.0
C1330 C 0.69009 0.93376 0.17037 0.0
C1331 C 0.68364 0.94347 0.12101 0.0
C1332 C 0.70023 0.96612 0.09824 0.0
C1333 C 0.72309 0.97872 0.12344 0.0
H1334 H 0.01897 0.75797 0.11741 0.0
H1335 H 0.07675 0.79763 0.24574 0.0
H1336 H 0.04059 0.73947 0.07383 0.0
H1337 H 0.09883 0.77934 0.20063 0.0
H1338 H 0.13562 0.76397 0.02322 0.0
H1339 H 0.11568 0.78163 0.0816 0.0
H1340 H 0.05622 0.71111 0.11799 0.0
H1341 H 0.07601 0.69342 0.06087 0.0
C1342 C 0.03625 0.76255 0.13658 0.0
C1343 C 0.04623 0.77914 0.18493 0.0
C1344 C 0.04856 0.75196 0.11172 0.0
C1345 C 0.07132 0.7581 0.13387 0.0
C1346 C 0.08129 0.77446 0.18282 0.0
C1347 C 0.06865 0.78471 0.20882 0.0
C1348 C 0.11835 0.75228 0.04394 0.0
C1349 C 0.10732 0.72734 0.03716 0.0
C1350 C 0.10711 0.76235 0.07775 0.0
C1351 C 0.08454 0.74764 0.10425 0.0
C1352 C 0.07366 0.72277 0.09798 0.0
C1353 C 0.085 0.7127 0.06522 0.0
H1354 H 0.22503 0.30107 0.24117 0.0
H1355 H 0.26433 0.28256 0.11281 0.0
H1356 H 0.24337 0.34136 0.19559 0.0
H1357 H 0.28288 0.32262 0.06874 0.0
H1358 H 0.32886 0.40424 0.05365 0.0
H1359 H 0.31142 0.3667 0.11067 0.0
H1360 H 0.24074 0.35574 0.07763 0.0
H1361 H 0.25813 0.39333 0.01939 0.0
C1362 C 0.23789 0.30578 0.20415 0.0
C1363 C 0.24331 0.28883 0.18037 0.0
C1364 C 0.24817 0.32864 0.17787 0.0
C1365 C 0.26443 0.33491 0.12873 0.0
C1366 C 0.27047 0.3182 0.10676 0.0
C1367 C 0.25984 0.29533 0.13189 0.0
C1368 C 0.3096 0.39392 0.05867 0.0
C1369 C 0.29484 0.40165 0.03166 0.0
C1370 C 0.29967 0.37249 0.09135 0.0
C1371 C 0.27482 0.35853 0.09865 0.0
C1372 C 0.26 0.36641 0.07302 0.0
C1373 C 0.26992 0.38772 0.03927 0.0
H1374 H 0.96373 0.41516 0.09921 0.0
H1375 H 0.94465 0.35711 0.22714 0.0
H1376 H 0.00367 0.43719 0.14646 0.0
H1377 H 0.98447 0.37877 0.27294 0.0
H1378 H 0.06679 0.41565 0.29004 0.0
H1379 H 0.029 0.39474 0.23378 0.0
H1380 H 0.01757 0.45432 0.26323 0.0
H1381 H 0.05527 0.47524 0.32074 0.0
C1382 C 0.96821 0.40699 0.13663 0.0
C1383 C 0.95115 0.38448 0.15964 0.0
C1384 C 0.99091 0.41962 0.16383 0.0
C1385 C -0.00299 0.40962 0.21327 0.0
C1386 C 0.98021 0.3868 0.23471 0.0
C1387 C 0.95745 0.37446 0.2086 0.0
C1388 C 0.05628 0.42435 0.28442 0.0
C1389 C 0.06393 0.44704 0.31012 0.0
C1390 C 0.03469 0.41237 0.25226 0.0
C1391 C 0.02053 0.42301 0.24406 0.0
C1392 C 0.02833 0.44588 0.26854 0.0
C1393 C 0.04975 0.45771 0.30184 0.0
H1394 H 0.66324 0.61055 0.21403 0.0
H1395 H 0.60275 0.56755 0.096 0.0
H1396 H 0.64141 0.62805 0.26182 0.0
H1397 H 0.58059 0.58496 0.14501 0.0
H1398 H 0.54463 0.60006 0.32012 0.0
H1399 H 0.5652 0.5833 0.26093 0.0
H1400 H 0.62385 0.6545 0.22655 0.0
H1401 H 0.60347 0.67128 0.28479 0.0
C1402 C 0.64533 0.60503 0.19794 0.0
C1403 C 0.63466 0.58775 0.1513 0.0
C1404 C 0.63287 0.61506 0.22522 0.0
C1405 C 0.60933 0.60774 0.20721 0.0
C1406 C 0.59871 0.59075 0.15983 0.0
C1407 C 0.61141 0.581 0.1315 0.0
C1408 C 0.56191 0.6121 0.29991 0.0
C1409 C 0.57248 0.63697 0.30739 0.0
C1410 C 0.57352 0.60253 0.2656 0.0
C1411 C 0.59602 0.61767 0.23918 0.0
C1412 C 0.60652 0.64248 0.24659 0.0
C1413 C 0.59482 0.65203 0.27995 0.0
H1414 H 0.41595 0.96363 0.32011 0.0
H1415 H 0.3443 0.95024 0.28635 0.0
H1416 H 0.43217 0.00069 0.26028 0.0
H1417 H 0.3606 0.98735 0.22749 0.0
H1418 H 0.40553 0.07154 0.21772 0.0
H1419 H 0.38742 0.03177 0.26341 0.0
H1420 H 0.42995 0.01414 0.14433 0.0
H1421 H 0.44788 0.05409 0.09728 0.0
C1422 C 0.4037 0.96859 0.30002 0.0
C1423 C 0.37886 0.9541 0.30825 0.0
C1424 C 0.41296 0.98963 0.26532 0.0
C1425 C 0.39758 0.99673 0.23922 0.0
C1426 C 0.3728 0.98222 0.2472 0.0
C1427 C 0.36352 0.96102 0.28091 0.0
C1428 C 0.41078 0.05907 0.20064 0.0
C1429 C 0.4281 0.06584 0.15405 0.0
C1430 C 0.40037 0.03632 0.22666 0.0
C1431 C 0.40739 0.02002 0.20747 0.0
C1432 C 0.42436 0.02652 0.15998 0.0
C1433 C 0.43444 0.04921 0.13285 0.0
H1434 H 0.5973 0.95207 0.78165 0.0
H1435 H 0.5572 0.97054 0.90748 0.0
H1436 H 0.61672 0.99238 0.73908 0.0
H1437 H 0.57646 0.01107 0.86346 0.0
H1438 H 0.59121 0.06257 0.68844 0.0
H1439 H 0.57425 0.02547 0.74802 0.0
H1440 H 0.64512 0.03648 0.77832 0.0
H1441 H 0.66221 0.07375 0.71963 0.0
C1442 C 0.59278 0.96486 0.80047 0.0
C1443 C 0.5757 0.95824 0.84764 0.0
C1444 C 0.60399 0.98792 0.77632 0.0
C1445 C 0.59802 0.0047 0.79803 0.0
C1446 C 0.58126 -0.00168 0.84602 0.0
C1447 C 0.57039 0.97528 0.87129 0.0
C1448 C 0.60318 0.05713 0.70806 0.0
C1449 C 0.62802 0.07095 0.69896 0.0
C1450 C 0.59348 0.03608 0.74263 0.0
C1451 C 0.60844 0.02829 0.76776 0.0
C1452 C 0.63327 0.0422 0.75935 0.0
C1453 C 0.643 0.06346 0.72576 0.0
H1454 H 0.04597 0.60804 0.8984 0.0
H1455 H 0.06382 0.67021 0.78705 0.0
H1456 H 0.00632 0.58686 0.84958 0.0
H1457 H 0.02435 0.6493 0.73941 0.0
H1458 H 0.94298 0.61074 0.71208 0.0
H1459 H 0.97989 0.63091 0.77213 0.0
H1460 H 0.99344 0.57319 0.73378 0.0
H1461 H 0.9566 0.553 0.67299 0.0
C1462 C 0.04126 0.61727 0.86442 0.0
C1463 C 0.05791 0.64069 0.84627 0.0
C1464 C 0.01873 0.60514 0.83627 0.0
C1465 C 0.01242 0.61649 0.79074 0.0
C1466 C 0.02875 0.64022 0.77463 0.0
C1467 C 0.05133 0.65212 0.80173 0.0
C1468 C 0.95379 0.60231 0.71649 0.0
C1469 C 0.94698 0.58036 0.68744 0.0
C1470 C 0.97488 0.61386 0.75087 0.0
C1471 C 0.98935 0.6035 0.75772 0.0
C1472 C 0.9824 0.58138 0.72966 0.0
C1473 C 0.96149 0.56999 0.69439 0.0
H1474 H 0.46927 0.42528 0.67344 0.0
H1475 H 0.40889 0.35479 0.70644 0.0
H1476 H 0.44938 0.4429 0.73154 0.0
H1477 H 0.38898 0.37252 0.76358 0.0
H1478 H 0.35281 0.4202 0.77436 0.0
H1479 H 0.37324 0.40103 0.72745 0.0
H1480 H 0.43387 0.44124 0.84719 0.0
H1481 H 0.41314 0.46027 0.89541 0.0
C1482 C 0.45175 0.41358 0.69291 0.0
C1483 C 0.44057 0.38866 0.6851 0.0
C1484 C 0.44052 0.42364 0.7266 0.0
C1485 C 0.41775 0.40901 0.75208 0.0
C1486 C 0.40656 0.38414 0.74429 0.0
C1487 C 0.41795 0.37404 0.71162 0.0
C1488 C 0.37041 0.42481 0.79113 0.0
C1489 C 0.38145 0.44175 0.83841 0.0
C1490 C 0.38202 0.41376 0.76445 0.0
C1491 C 0.40509 0.41974 0.78369 0.0
C1492 C 0.41609 0.43645 0.8315 0.0
C1493 C 0.40422 0.44719 0.85923 0.0
loop_
_geom_bond_atom_site_label_1
_geom_bond_atom_site_label_2
_geom_bond_distance
_geom_bond_site_symmetry_2
_ccdc_geom_bond_type
O0 Zn1 1.953 1_455 S
O0 C16 1.225 . S
Zn1 O0 1.953 1_655 S
Zn1 O2 1.949 1_655 S
Zn1 O8 1.919 . S
Zn1 O13 1.924 . S
O2 Zn1 1.949 1_455 S
O2 Zn3 1.923 . S
O2 Zn4 1.950 . S
O2 Zn5 1.943 . S
Zn3 O2 1.923 . S
Zn3 O6 1.933 1_455 S
Zn3 O9 1.941 1_455 S
Zn3 O10 1.965 . S
Zn4 O2 1.950 . S
Zn4 O11 1.938 . S
Zn4 O12 1.906 . S
Zn4 O22 1.953 . S
Zn5 O2 1.943 . S
Zn5 O7 1.932 1_455 S
Zn5 O14 1.972 . S
Zn5 O15 1.915 1_455 S
O6 Zn3 1.933 1_655 S
O6 C17 1.226 . S
O7 Zn5 1.932 1_655 S
O7 C17 1.307 . S
O8 Zn1 1.919 . S
O8 C19 1.253 . S
O9 Zn3 1.941 1_655 S
O9 C19 1.283 . S
O10 Zn3 1.965 . S
O10 C18 1.303 . S
O11 Zn4 1.938 . S
O11 C18 1.247 . S
O12 Zn4 1.906 . S
O12 C20 1.304 . S
O13 Zn1 1.924 . S
O13 C21 1.311 . S
O14 Zn5 1.972 . S
O14 C20 1.272 . S
O15 Zn5 1.915 1_655 S
O15 C21 1.231 . S
C16 O0 1.225 . S
C16 O22 1.298 . S
C17 O6 1.226 . S
C17 O7 1.307 . S
C18 O10 1.303 . S
C18 O11 1.247 . S
C19 O8 1.253 . S
C19 O9 1.283 . S
C20 O12 1.304 . S
C20 O14 1.272 . S
C21 O13 1.311 . S
C21 O15 1.231 . S
O22 Zn4 1.953 . S
O22 C16 1.298 . S
O23 Zn24 1.953 . S
O23 C39 1.225 . S
Zn24 O23 1.953 . S
Zn24 O25 1.949 . S
Zn24 O31 1.919 . S
Zn24 O36 1.924 . S
O25 Zn24 1.949 . S
O25 Zn26 1.923 . S
O25 Zn27 1.950 . S
O25 Zn28 1.945 . S
Zn26 O25 1.923 . S
Zn26 O29 1.933 . S
Zn26 O32 1.941 . S
Zn26 O33 1.965 . S
Zn27 O25 1.950 . S
Zn27 O34 1.938 . S
Zn27 O35 1.906 . S
Zn27 O45 1.953 . S
Zn28 O25 1.945 . S
Zn28 O30 1.932 . S
Zn28 O37 1.977 . S
Zn28 O38 1.910 . S
O29 Zn26 1.933 . S
O29 C40 1.226 . S
O30 Zn28 1.932 . S
O30 C40 1.307 . S
O31 Zn24 1.919 . S
O31 C42 1.253 . S
O32 Zn26 1.941 . S
O32 C42 1.283 . S
O33 Zn26 1.965 . S
O33 C41 1.303 . S
O34 Zn27 1.938 . S
O34 C41 1.247 . S
O35 Zn27 1.906 . S
O35 C43 1.304 . S
O36 Zn24 1.924 . S
O36 C44 1.311 . S
O37 Zn28 1.977 . S
O37 C43 1.272 . S
O38 Zn28 1.910 . S
O38 C44 1.231 . S
C39 O23 1.225 . S
C39 O45 1.298 . S
C40 O29 1.226 . S
C40 O30 1.307 . S
C41 O33 1.303 . S
C41 O34 1.247 . S
C42 O31 1.253 . S
C42 O32 1.283 . S
C43 O35 1.304 . S
C43 O37 1.272 . S
C44 O36 1.311 . S
C44 O38 1.231 . S
O45 Zn27 1.953 . S
O45 C39 1.298 . S
O46 Zn47 1.953 . S
O46 C62 1.225 1_545 S
Zn47 O46 1.953 . S
Zn47 O48 1.949 . S
Zn47 O54 1.919 . S
Zn47 O59 1.924 . S
O48 Zn47 1.949 . S
O48 Zn49 1.923 . S
O48 Zn50 1.950 1_545 S
O48 Zn51 1.945 . S
Zn49 O48 1.923 . S
Zn49 O52 1.933 . S
Zn49 O55 1.941 . S
Zn49 O56 1.965 1_545 S
Zn50 O48 1.950 1_565 S
Zn50 O57 1.938 . S
Zn50 O58 1.906 . S
Zn50 O68 1.953 . S
Zn51 O48 1.945 . S
Zn51 O53 1.932 . S
Zn51 O60 1.977 1_545 S
Zn51 O61 1.910 . S
O52 Zn49 1.933 . S
O52 C63 1.226 . S
O53 Zn51 1.932 . S
O53 C63 1.307 . S
O54 Zn47 1.919 . S
O54 C65 1.253 . S
O55 Zn49 1.941 . S
O55 C65 1.283 . S
O56 Zn49 1.965 1_565 S
O56 C64 1.303 . S
O57 Zn50 1.938 . S
O57 C64 1.247 . S
O58 Zn50 1.906 . S
O58 C66 1.304 . S
O59 Zn47 1.924 . S
O59 C67 1.311 . S
O60 Zn51 1.977 1_565 S
O60 C66 1.272 . S
O61 Zn51 1.910 . S
O61 C67 1.231 . S
C62 O46 1.225 1_565 S
C62 O68 1.298 . S
C63 O52 1.226 . S
C63 O53 1.307 . S
C64 O56 1.303 . S
C64 O57 1.247 . S
C65 O54 1.253 . S
C65 O55 1.283 . S
C66 O58 1.304 . S
C66 O60 1.272 . S
C67 O59 1.311 . S
C67 O61 1.231 . S
O68 Zn50 1.953 . S
O68 C62 1.298 . S
O69 Zn70 1.953 . S
O69 C85 1.225 . S
Zn70 O69 1.953 . S
Zn70 O71 1.949 . S
Zn70 O77 1.919 . S
Zn70 O82 1.924 . S
O71 Zn70 1.949 . S
O71 Zn72 1.923 . S
O71 Zn73 1.950 . S
O71 Zn74 1.945 1_455 S
Zn72 O71 1.923 . S
Zn72 O75 1.933 . S
Zn72 O78 1.941 . S
Zn72 O79 1.965 . S
Zn73 O71 1.950 . S
Zn73 O80 1.938 . S
Zn73 O81 1.906 1_455 S
Zn73 O91 1.953 . S
Zn74 O71 1.945 1_655 S
Zn74 O76 1.932 . S
Zn74 O83 1.977 . S
Zn74 O84 1.910 . S
O75 Zn72 1.933 . S
O75 C86 1.226 1_455 S
O76 Zn74 1.932 . S
O76 C86 1.307 . S
O77 Zn70 1.919 . S
O77 C88 1.253 . S
O78 Zn72 1.941 . S
O78 C88 1.283 . S
O79 Zn72 1.965 . S
O79 C87 1.303 . S
O80 Zn73 1.938 . S
O80 C87 1.247 . S
O81 Zn73 1.906 1_655 S
O81 C89 1.304 . S
O82 Zn70 1.924 . S
O82 C90 1.311 1_455 S
O83 Zn74 1.977 . S
O83 C89 1.272 . S
O84 Zn74 1.910 . S
O84 C90 1.231 . S
C85 O69 1.225 . S
C85 O91 1.298 . S
C86 O75 1.226 1_655 S
C86 O76 1.307 . S
C87 O79 1.303 . S
C87 O80 1.247 . S
C88 O77 1.253 . S
C88 O78 1.283 . S
C89 O81 1.304 . S
C89 O83 1.272 . S
C90 O82 1.311 1_655 S
C90 O84 1.231 . S
O91 Zn73 1.953 . S
O91 C85 1.298 . S
O92 Zn93 1.953 . S
O92 C108 1.225 . S
Zn93 O92 1.953 . S
Zn93 O94 1.949 . S
Zn93 O100 1.919 . S
Zn93 O105 1.924 . S
O94 Zn93 1.949 . S
O94 Zn95 1.923 . S
O94 Zn96 1.950 . S
O94 Zn97 1.945 . S
Zn95 O94 1.923 . S
Zn95 O98 1.933 . S
Zn95 O101 1.941 . S
Zn95 O102 1.965 . S
Zn96 O94 1.950 . S
Zn96 O103 1.938 . S
Zn96 O104 1.906 . S
Zn96 O114 1.953 . S
Zn97 O94 1.945 . S
Zn97 O99 1.932 . S
Zn97 O106 1.977 . S
Zn97 O107 1.910 . S
O98 Zn95 1.933 . S
O98 C109 1.226 . S
O99 Zn97 1.932 . S
O99 C109 1.307 . S
O100 Zn93 1.919 . S
O100 C111 1.253 . S
O101 Zn95 1.941 . S
O101 C111 1.283 . S
O102 Zn95 1.965 . S
O102 C110 1.303 . S
O103 Zn96 1.938 . S
O103 C110 1.247 . S
O104 Zn96 1.906 . S
O104 C112 1.304 . S
O105 Zn93 1.924 . S
O105 C113 1.311 . S
O106 Zn97 1.977 . S
O106 C112 1.272 . S
O107 Zn97 1.910 . S
O107 C113 1.231 . S
C108 O92 1.225 . S
C108 O114 1.298 . S
C109 O98 1.226 . S
C109 O99 1.307 . S
C110 O102 1.303 . S
C110 O103 1.247 . S
C111 O100 1.253 . S
C111 O101 1.283 . S
C112 O104 1.304 . S
C112 O106 1.272 . S
C113 O105 1.311 . S
C113 O107 1.231 . S
O114 Zn96 1.953 . S
O114 C108 1.298 . S
O115 Zn116 1.953 . S
O115 C131 1.225 . S
Zn116 O115 1.953 . S
Zn116 O117 1.949 1_565 S
Zn116 O123 1.919 . S
Zn116 O128 1.924 1_565 S
O117 Zn116 1.949 1_545 S
O117 Zn118 1.915 1_545 S
O117 Zn119 1.950 . S
O117 Zn120 1.945 . S
Zn118 O117 1.915 1_565 S
Zn118 O121 1.931 1_565 S
Zn118 O124 1.947 . S
Zn118 O125 1.972 . S
Zn119 O117 1.950 . S
Zn119 O126 1.938 1_545 S
Zn119 O127 1.906 . S
Zn119 O137 1.953 1_545 S
Zn120 O117 1.945 . S
Zn120 O122 1.932 . S
Zn120 O129 1.977 . S
Zn120 O130 1.910 . S
O121 Zn118 1.931 1_545 S
O121 C132 1.226 . S
O122 Zn120 1.932 . S
O122 C132 1.307 . S
O123 Zn116 1.919 . S
O123 C134 1.253 . S
O124 Zn118 1.947 . S
O124 C134 1.283 . S
O125 Zn118 1.972 . S
O125 C133 1.303 . S
O126 Zn119 1.938 1_565 S
O126 C133 1.247 . S
O127 Zn119 1.906 . S
O127 C135 1.304 . S
O128 Zn116 1.924 1_545 S
O128 C136 1.311 . S
O129 Zn120 1.977 . S
O129 C135 1.272 . S
O130 Zn120 1.910 . S
O130 C136 1.231 . S
C131 O115 1.225 . S
C131 O137 1.298 . S
C132 O121 1.226 . S
C132 O122 1.307 . S
C133 O125 1.303 . S
C133 O126 1.247 . S
C134 O123 1.253 . S
C134 O124 1.283 . S
C135 O127 1.304 . S
C135 O129 1.272 . S
C136 O128 1.311 . S
C136 O130 1.231 . S
O137 Zn119 1.953 1_565 S
O137 C131 1.298 . S
O138 Zn139 1.953 1_556 S
O138 C154 1.225 1_556 S
Zn139 O138 1.953 1_554 S
Zn139 O140 1.949 . S
Zn139 O146 1.919 1_554 S
Zn139 O151 1.924 . S
O140 Zn139 1.949 . S
O140 Zn141 1.923 . S
O140 Zn142 1.950 . S
O140 Zn143 1.945 . S
Zn141 O140 1.923 . S
Zn141 O144 1.933 . S
Zn141 O147 1.941 1_554 S
Zn141 O148 1.965 . S
Zn142 O140 1.950 . S
Zn142 O149 1.938 . S
Zn142 O150 1.906 . S
Zn142 O160 1.953 . S
Zn143 O140 1.945 . S
Zn143 O145 1.932 . S
Zn143 O152 1.977 . S
Zn143 O153 1.910 . S
O144 Zn141 1.933 . S
O144 C155 1.226 . S
O145 Zn143 1.932 . S
O145 C155 1.307 . S
O146 Zn139 1.919 1_556 S
O146 C157 1.253 . S
O147 Zn141 1.941 1_556 S
O147 C157 1.283 . S
O148 Zn141 1.965 . S
O148 C156 1.303 1_554 S
O149 Zn142 1.938 . S
O149 C156 1.247 1_554 S
O150 Zn142 1.906 . S
O150 C158 1.304 . S
O151 Zn139 1.924 . S
O151 C159 1.311 . S
O152 Zn143 1.977 . S
O152 C158 1.272 . S
O153 Zn143 1.910 . S
O153 C159 1.231 . S
C154 O138 1.225 1_554 S
C154 O160 1.298 . S
C155 O144 1.226 . S
C155 O145 1.307 . S
C156 O148 1.303 1_556 S
C156 O149 1.247 1_556 S
C157 O146 1.253 . S
C157 O147 1.283 . S
C158 O150 1.304 . S
C158 O152 1.272 . S
C159 O151 1.311 . S
C159 O153 1.231 . S
O160 Zn142 1.953 . S
O160 C154 1.298 . S
O161 Zn162 1.953 1_556 S
O161 C177 1.225 1_556 S
Zn162 O161 1.953 1_554 S
Zn162 O163 1.949 . S
Zn162 O169 1.919 1_554 S
Zn162 O174 1.924 . S
O163 Zn162 1.949 . S
O163 Zn164 1.923 . S
O163 Zn165 1.950 . S
O163 Zn166 1.945 . S
Zn164 O163 1.923 . S
Zn164 O167 1.933 . S
Zn164 O170 1.941 1_554 S
Zn164 O171 1.965 . S
Zn165 O163 1.950 . S
Zn165 O172 1.938 . S
Zn165 O173 1.906 . S
Zn165 O183 1.953 . S
Zn166 O163 1.945 . S
Zn166 O168 1.932 . S
Zn166 O175 1.977 . S
Zn166 O176 1.910 . S
O167 Zn164 1.933 . S
O167 C178 1.226 . S
O168 Zn166 1.932 . S
O168 C178 1.307 . S
O169 Zn162 1.919 1_556 S
O169 C180 1.253 . S
O170 Zn164 1.941 1_556 S
O170 C180 1.283 . S
O171 Zn164 1.965 . S
O171 C179 1.303 1_554 S
O172 Zn165 1.938 . S
O172 C179 1.247 1_554 S
O173 Zn165 1.906 . S
O173 C181 1.304 . S
O174 Zn162 1.924 . S
O174 C182 1.311 . S
O175 Zn166 1.977 . S
O175 C181 1.272 . S
O176 Zn166 1.910 . S
O176 C182 1.231 . S
C177 O161 1.225 1_554 S
C177 O183 1.298 . S
C178 O167 1.226 . S
C178 O168 1.307 . S
C179 O171 1.303 1_556 S
C179 O172 1.247 1_556 S
C180 O169 1.253 . S
C180 O170 1.283 . S
C181 O173 1.304 . S
C181 O175 1.272 . S
C182 O174 1.311 . S
C182 O176 1.231 . S
O183 Zn165 1.953 . S
O183 C177 1.298 . S
O184 Zn185 1.953 1_556 S
O184 C200 1.225 1_556 S
Zn185 O184 1.953 1_554 S
Zn185 O186 1.949 . S
Zn185 O192 1.919 1_554 S
Zn185 O197 1.924 . S
O186 Zn185 1.949 . S
O186 Zn187 1.923 . S
O186 Zn188 1.950 . S
O186 Zn189 1.945 . S
Zn187 O186 1.923 . S
Zn187 O190 1.933 . S
Zn187 O193 1.941 1_554 S
Zn187 O194 1.965 . S
Zn188 O186 1.950 . S
Zn188 O195 1.938 . S
Zn188 O196 1.906 . S
Zn188 O206 1.953 . S
Zn189 O186 1.945 . S
Zn189 O191 1.932 . S
Zn189 O198 1.977 . S
Zn189 O199 1.910 . S
O190 Zn187 1.933 . S
O190 C201 1.226 . S
O191 Zn189 1.932 . S
O191 C201 1.307 . S
O192 Zn185 1.919 1_556 S
O192 C203 1.253 . S
O193 Zn187 1.941 1_556 S
O193 C203 1.283 . S
O194 Zn187 1.965 . S
O194 C202 1.303 1_554 S
O195 Zn188 1.938 . S
O195 C202 1.247 1_554 S
O196 Zn188 1.906 . S
O196 C204 1.304 . S
O197 Zn185 1.924 . S
O197 C205 1.311 . S
O198 Zn189 1.977 . S
O198 C204 1.272 . S
O199 Zn189 1.910 . S
O199 C205 1.231 . S
C200 O184 1.225 1_554 S
C200 O206 1.298 . S
C201 O190 1.226 . S
C201 O191 1.307 . S
C202 O194 1.303 1_556 S
C202 O195 1.247 1_556 S
C203 O192 1.253 . S
C203 O193 1.283 . S
C204 O196 1.304 . S
C204 O198 1.272 . S
C205 O197 1.311 . S
C205 O199 1.231 . S
O206 Zn188 1.953 . S
O206 C200 1.298 . S
O207 Zn208 1.953 . S
O207 C223 1.225 . S
Zn208 O207 1.953 . S
Zn208 O209 1.949 . S
Zn208 O215 1.919 . S
Zn208 O220 1.924 . S
O209 Zn208 1.949 . S
O209 Zn210 1.923 . S
O209 Zn211 1.950 . S
O209 Zn212 1.945 . S
Zn210 O209 1.923 . S
Zn210 O213 1.933 . S
Zn210 O216 1.941 . S
Zn210 O217 1.965 . S
Zn211 O209 1.950 . S
Zn211 O218 1.938 . S
Zn211 O219 1.906 . S
Zn211 O229 1.953 . S
Zn212 O209 1.945 . S
Zn212 O214 1.932 . S
Zn212 O221 1.977 . S
Zn212 O222 1.910 . S
O213 Zn210 1.933 . S
O213 C224 1.226 . S
O214 Zn212 1.932 . S
O214 C224 1.307 . S
O215 Zn208 1.919 . S
O215 C226 1.253 . S
O216 Zn210 1.941 . S
O216 C226 1.283 . S
O217 Zn210 1.965 . S
O217 C225 1.303 . S
O218 Zn211 1.938 . S
O218 C225 1.247 . S
O219 Zn211 1.906 . S
O219 C227 1.304 . S
O220 Zn208 1.924 . S
O220 C228 1.311 . S
O221 Zn212 1.977 . S
O221 C227 1.272 . S
O222 Zn212 1.910 . S
O222 C228 1.231 . S
C223 O207 1.225 . S
C223 O229 1.298 . S
C224 O213 1.226 . S
C224 O214 1.307 . S
C225 O217 1.303 . S
C225 O218 1.247 . S
C226 O215 1.253 . S
C226 O216 1.283 . S
C227 O219 1.304 . S
C227 O221 1.272 . S
C228 O220 1.311 . S
C228 O222 1.231 . S
O229 Zn211 1.953 . S
O229 C223 1.298 . S
O230 Zn231 1.953 . S
O230 C246 1.225 . S
Zn231 O230 1.953 . S
Zn231 O232 1.949 . S
Zn231 O238 1.919 . S
Zn231 O243 1.924 . S
O232 Zn231 1.949 . S
O232 Zn233 1.923 . S
O232 Zn234 1.950 . S
O232 Zn235 1.945 . S
Zn233 O232 1.923 . S
Zn233 O236 1.933 . S
Zn233 O239 1.941 . S
Zn233 O240 1.965 . S
Zn234 O232 1.950 . S
Zn234 O241 1.938 . S
Zn234 O242 1.906 . S
Zn234 O252 1.953 . S
Zn235 O232 1.945 . S
Zn235 O237 1.932 . S
Zn235 O244 1.977 . S
Zn235 O245 1.910 . S
O236 Zn233 1.933 . S
O236 C247 1.226 . S
O237 Zn235 1.932 . S
O237 C247 1.307 . S
O238 Zn231 1.919 . S
O238 C249 1.253 . S
O239 Zn233 1.941 . S
O239 C249 1.283 . S
O240 Zn233 1.965 . S
O240 C248 1.303 . S
O241 Zn234 1.938 . S
O241 C248 1.247 . S
O242 Zn234 1.906 . S
O242 C250 1.304 . S
O243 Zn231 1.924 . S
O243 C251 1.311 . S
O244 Zn235 1.977 . S
O244 C250 1.272 . S
O245 Zn235 1.910 . S
O245 C251 1.231 . S
C246 O230 1.225 . S
C246 O252 1.298 . S
C247 O236 1.226 . S
C247 O237 1.307 . S
C248 O240 1.303 . S
C248 O241 1.247 . S
C249 O238 1.253 . S
C249 O239 1.283 . S
C250 O242 1.304 . S
C250 O244 1.272 . S
C251 O243 1.311 . S
C251 O245 1.231 . S
O252 Zn234 1.953 . S
O252 C246 1.298 . S
O253 Zn254 1.953 . S
O253 C269 1.225 . S
Zn254 O253 1.953 . S
Zn254 O255 1.949 . S
Zn254 O261 1.919 . S
Zn254 O266 1.924 . S
O255 Zn254 1.949 . S
O255 Zn256 1.923 . S
O255 Zn257 1.950 . S
O255 Zn258 1.945 . S
Zn256 O255 1.923 . S
Zn256 O259 1.933 . S
Zn256 O262 1.941 . S
Zn256 O263 1.965 . S
Zn257 O255 1.950 . S
Zn257 O264 1.938 . S
Zn257 O265 1.906 . S
Zn257 O275 1.953 . S
Zn258 O255 1.945 . S
Zn258 O260 1.932 . S
Zn258 O267 1.977 . S
Zn258 O268 1.910 . S
O259 Zn256 1.933 . S
O259 C270 1.226 . S
O260 Zn258 1.932 . S
O260 C270 1.307 . S
O261 Zn254 1.919 . S
O261 C272 1.253 . S
O262 Zn256 1.941 . S
O262 C272 1.283 . S
O263 Zn256 1.965 . S
O263 C271 1.303 . S
O264 Zn257 1.938 . S
O264 C271 1.247 . S
O265 Zn257 1.906 . S
O265 C273 1.304 . S
O266 Zn254 1.924 . S
O266 C274 1.311 . S
O267 Zn258 1.977 . S
O267 C273 1.272 . S
O268 Zn258 1.910 . S
O268 C274 1.231 . S
C269 O253 1.225 . S
C269 O275 1.298 . S
C270 O259 1.226 . S
C270 O260 1.307 . S
C271 O263 1.303 . S
C271 O264 1.247 . S
C272 O261 1.253 . S
C272 O262 1.283 . S
C273 O265 1.304 . S
C273 O267 1.272 . S
C274 O266 1.311 . S
C274 O268 1.231 . S
O275 Zn257 1.953 . S
O275 C269 1.298 . S
O276 Zn277 1.953 . S
O276 C292 1.225 . S
Zn277 O276 1.953 . S
Zn277 O278 1.949 . S
Zn277 O284 1.919 . S
Zn277 O289 1.924 . S
O278 Zn277 1.949 . S
O278 Zn279 1.923 . S
O278 Zn280 1.950 . S
O278 Zn281 1.945 . S
Zn279 O278 1.923 . S
Zn279 O282 1.933 . S
Zn279 O285 1.941 . S
Zn279 O286 1.965 . S
Zn280 O278 1.950 . S
Zn280 O287 1.938 . S
Zn280 O288 1.906 . S
Zn280 O298 1.953 . S
Zn281 O278 1.945 . S
Zn281 O283 1.932 . S
Zn281 O290 1.977 . S
Zn281 O291 1.910 . S
O282 Zn279 1.933 . S
O282 C293 1.226 . S
O283 Zn281 1.932 . S
O283 C293 1.307 . S
O284 Zn277 1.919 . S
O284 C295 1.253 . S
O285 Zn279 1.941 . S
O285 C295 1.283 . S
O286 Zn279 1.965 . S
O286 C294 1.303 . S
O287 Zn280 1.938 . S
O287 C294 1.247 . S
O288 Zn280 1.906 . S
O288 C296 1.304 . S
O289 Zn277 1.924 . S
O289 C297 1.311 . S
O290 Zn281 1.977 . S
O290 C296 1.272 . S
O291 Zn281 1.910 . S
O291 C297 1.231 . S
C292 O276 1.225 . S
C292 O298 1.298 . S
C293 O282 1.226 . S
C293 O283 1.307 . S
C294 O286 1.303 . S
C294 O287 1.247 . S
C295 O284 1.253 . S
C295 O285 1.283 . S
C296 O288 1.304 . S
C296 O290 1.272 . S
C297 O289 1.311 . S
C297 O291 1.231 . S
O298 Zn280 1.953 . S
O298 C292 1.298 . S
O299 Zn300 1.953 . S
O299 C315 1.225 . S
Zn300 O299 1.953 . S
Zn300 O301 1.949 . S
Zn300 O307 1.919 . S
Zn300 O312 1.924 . S
O301 Zn300 1.949 . S
O301 Zn302 1.923 . S
O301 Zn303 1.950 . S
O301 Zn304 1.945 . S
Zn302 O301 1.923 . S
Zn302 O305 1.933 . S
Zn302 O308 1.941 . S
Zn302 O309 1.965 . S
Zn303 O301 1.950 . S
Zn303 O310 1.938 . S
Zn303 O311 1.906 . S
Zn303 O321 1.953 . S
Zn304 O301 1.945 . S
Zn304 O306 1.932 . S
Zn304 O313 1.977 . S
Zn304 O314 1.910 . S
O305 Zn302 1.933 . S
O305 C316 1.226 . S
O306 Zn304 1.932 . S
O306 C316 1.307 . S
O307 Zn300 1.919 . S
O307 C318 1.253 . S
O308 Zn302 1.941 . S
O308 C318 1.283 . S
O309 Zn302 1.965 . S
O309 C317 1.303 . S
O310 Zn303 1.938 . S
O310 C317 1.247 . S
O311 Zn303 1.906 . S
O311 C319 1.304 . S
O312 Zn300 1.924 . S
O312 C320 1.311 . S
O313 Zn304 1.977 . S
O313 C319 1.272 . S
O314 Zn304 1.910 . S
O314 C320 1.231 . S
C315 O299 1.225 . S
C315 O321 1.298 . S
C316 O305 1.226 . S
C316 O306 1.307 . S
C317 O309 1.303 . S
C317 O310 1.247 . S
C318 O307 1.253 . S
C318 O308 1.283 . S
C319 O311 1.304 . S
C319 O313 1.272 . S
C320 O312 1.311 . S
C320 O314 1.231 . S
O321 Zn303 1.953 . S
O321 C315 1.298 . S
O322 Zn323 1.953 . S
O322 C338 1.225 . S
Zn323 O322 1.953 . S
Zn323 O324 1.949 . S
Zn323 O330 1.919 . S
Zn323 O335 1.924 . S
O324 Zn323 1.949 . S
O324 Zn325 1.923 . S
O324 Zn326 1.950 . S
O324 Zn327 1.945 . S
Zn325 O324 1.923 . S
Zn325 O328 1.933 . S
Zn325 O331 1.941 . S
Zn325 O332 1.965 . S
Zn326 O324 1.950 . S
Zn326 O333 1.938 . S
Zn326 O334 1.906 . S
Zn326 O344 1.953 . S
Zn327 O324 1.945 . S
Zn327 O329 1.932 . S
Zn327 O336 1.977 . S
Zn327 O337 1.910 . S
O328 Zn325 1.933 . S
O328 C339 1.226 . S
O329 Zn327 1.932 . S
O329 C339 1.307 . S
O330 Zn323 1.919 . S
O330 C341 1.253 . S
O331 Zn325 1.941 . S
O331 C341 1.283 . S
O332 Zn325 1.965 . S
O332 C340 1.303 . S
O333 Zn326 1.938 . S
O333 C340 1.247 . S
O334 Zn326 1.906 . S
O334 C342 1.304 . S
O335 Zn323 1.924 . S
O335 C343 1.311 . S
O336 Zn327 1.977 . S
O336 C342 1.272 . S
O337 Zn327 1.910 . S
O337 C343 1.231 . S
C338 O322 1.225 . S
C338 O344 1.298 . S
C339 O328 1.226 . S
C339 O329 1.307 . S
C340 O332 1.303 . S
C340 O333 1.247 . S
C341 O330 1.253 . S
C341 O331 1.283 . S
C342 O334 1.304 . S
C342 O336 1.272 . S
C343 O335 1.311 . S
C343 O337 1.231 . S
O344 Zn326 1.953 . S
O344 C338 1.298 . S
O345 Zn346 1.953 . S
O345 C361 1.225 . S
Zn346 O345 1.953 . S
Zn346 O347 1.949 . S
Zn346 O353 1.919 1_556 S
Zn346 O358 1.924 . S
O347 Zn346 1.949 . S
O347 Zn348 1.923 . S
O347 Zn349 1.950 . S
O347 Zn350 1.945 . S
Zn348 O347 1.923 . S
Zn348 O351 1.933 . S
Zn348 O354 1.941 . S
Zn348 O355 1.965 . S
Zn349 O347 1.950 . S
Zn349 O356 1.938 . S
Zn349 O357 1.906 . S
Zn349 O367 1.953 . S
Zn350 O347 1.945 . S
Zn350 O352 1.932 . S
Zn350 O359 1.977 . S
Zn350 O360 1.910 . S
O351 Zn348 1.933 . S
O351 C362 1.226 . S
O352 Zn350 1.932 . S
O352 C362 1.307 . S
O353 Zn346 1.919 1_554 S
O353 C364 1.253 . S
O354 Zn348 1.941 . S
O354 C364 1.283 1_556 S
O355 Zn348 1.965 . S
O355 C363 1.303 . S
O356 Zn349 1.938 . S
O356 C363 1.247 . S
O357 Zn349 1.906 . S
O357 C365 1.304 . S
O358 Zn346 1.924 . S
O358 C366 1.311 . S
O359 Zn350 1.977 . S
O359 C365 1.272 . S
O360 Zn350 1.910 . S
O360 C366 1.231 . S
C361 O345 1.225 . S
C361 O367 1.298 . S
C362 O351 1.226 . S
C362 O352 1.307 . S
C363 O355 1.303 . S
C363 O356 1.247 . S
C364 O353 1.253 . S
C364 O354 1.283 1_554 S
C365 O357 1.304 . S
C365 O359 1.272 . S
C366 O358 1.311 . S
C366 O360 1.231 . S
O367 Zn349 1.953 . S
O367 C361 1.298 . S
O368 Zn369 1.953 . S
O368 C384 1.225 . S
Zn369 O368 1.953 . S
Zn369 O370 1.949 . S
Zn369 O376 1.919 1_556 S
Zn369 O381 1.924 . S
O370 Zn369 1.949 . S
O370 Zn371 1.923 . S
O370 Zn372 1.950 . S
O370 Zn373 1.945 . S
Zn371 O370 1.923 . S
Zn371 O374 1.933 . S
Zn371 O377 1.941 . S
Zn371 O378 1.965 . S
Zn372 O370 1.950 . S
Zn372 O379 1.938 . S
Zn372 O380 1.906 . S
Zn372 O390 1.953 . S
Zn373 O370 1.945 . S
Zn373 O375 1.932 . S
Zn373 O382 1.977 . S
Zn373 O383 1.910 . S
O374 Zn371 1.933 . S
O374 C385 1.226 . S
O375 Zn373 1.932 . S
O375 C385 1.307 . S
O376 Zn369 1.919 1_554 S
O376 C387 1.253 . S
O377 Zn371 1.941 . S
O377 C387 1.283 1_556 S
O378 Zn371 1.965 . S
O378 C386 1.303 . S
O379 Zn372 1.938 . S
O379 C386 1.247 . S
O380 Zn372 1.906 . S
O380 C388 1.304 . S
O381 Zn369 1.924 . S
O381 C389 1.311 . S
O382 Zn373 1.977 . S
O382 C388 1.272 . S
O383 Zn373 1.910 . S
O383 C389 1.231 . S
C384 O368 1.225 . S
C384 O390 1.298 . S
C385 O374 1.226 . S
C385 O375 1.307 . S
C386 O378 1.303 . S
C386 O379 1.247 . S
C387 O376 1.253 . S
C387 O377 1.283 1_554 S
C388 O380 1.304 . S
C388 O382 1.272 . S
C389 O381 1.311 . S
C389 O383 1.231 . S
O390 Zn372 1.953 . S
O390 C384 1.298 . S
O391 Zn392 1.953 . S
O391 C407 1.225 . S
Zn392 O391 1.953 . S
Zn392 O393 1.949 . S
Zn392 O399 1.919 1_556 S
Zn392 O404 1.924 . S
O393 Zn392 1.949 . S
O393 Zn394 1.923 . S
O393 Zn395 1.950 . S
O393 Zn396 1.945 . S
Zn394 O393 1.923 . S
Zn394 O397 1.933 . S
Zn394 O400 1.941 . S
Zn394 O401 1.965 . S
Zn395 O393 1.950 . S
Zn395 O402 1.938 . S
Zn395 O403 1.906 . S
Zn395 O413 1.953 . S
Zn396 O393 1.945 . S
Zn396 O398 1.932 . S
Zn396 O405 1.977 . S
Zn396 O406 1.910 . S
O397 Zn394 1.933 . S
O397 C408 1.226 . S
O398 Zn396 1.932 . S
O398 C408 1.307 . S
O399 Zn392 1.919 1_554 S
O399 C410 1.253 . S
O400 Zn394 1.941 . S
O400 C410 1.283 1_556 S
O401 Zn394 1.965 . S
O401 C409 1.303 . S
O402 Zn395 1.938 . S
O402 C409 1.247 . S
O403 Zn395 1.906 . S
O403 C411 1.304 . S
O404 Zn392 1.924 . S
O404 C412 1.311 . S
O405 Zn396 1.977 . S
O405 C411 1.272 . S
O406 Zn396 1.910 . S
O406 C412 1.231 . S
C407 O391 1.225 . S
C407 O413 1.298 . S
C408 O397 1.226 . S
C408 O398 1.307 . S
C409 O401 1.303 . S
C409 O402 1.247 . S
C410 O399 1.253 . S
C410 O400 1.283 1_554 S
C411 O403 1.304 . S
C411 O405 1.272 . S
C412 O404 1.311 . S
C412 O406 1.231 . S
O413 Zn395 1.953 . S
O413 C407 1.298 . S
H414 C422 0.950 . S
H415 C427 0.950 . S
H416 C424 0.950 . S
H417 C426 0.950 . S
H418 C428 0.950 . S
H419 C430 0.950 . S
H420 C432 0.950 . S
H421 C433 0.950 . S
C422 H414 0.950 . S
C422 C423 1.386 . S
C422 C424 1.391 . S
C423 C422 1.386 . S
C423 C427 1.393 . S
C424 H416 0.950 . S
C424 C422 1.391 . S
C424 C425 1.400 . S
C425 C424 1.400 . S
C425 C426 1.398 . S
C425 C431 1.491 . S
C426 H417 0.950 . S
C426 C425 1.398 . S
C426 C427 1.391 . S
C427 H415 0.950 . S
C427 C423 1.393 . S
C427 C426 1.391 . S
C428 H418 0.950 . S
C428 C429 1.386 . S
C428 C430 1.391 . S
C429 C428 1.386 . S
C429 C433 1.393 . S
C430 H419 0.950 . S
C430 C428 1.391 . S
C430 C431 1.400 . S
C431 C425 1.491 . S
C431 C430 1.400 . S
C431 C432 1.398 . S
C432 H420 0.950 . S
C432 C431 1.398 . S
C432 C433 1.391 . S
C433 H421 0.950 . S
C433 C429 1.393 . S
C433 C432 1.391 . S
H434 C442 0.950 . S
H435 C447 0.950 . S
H436 C444 0.950 . S
H437 C446 0.950 . S
H438 C448 0.950 . S
H439 C450 0.950 . S
H440 C452 0.950 . S
H441 C453 0.950 . S
C442 H434 0.950 . S
C442 C443 1.386 . S
C442 C444 1.391 . S
C443 C442 1.386 . S
C443 C447 1.393 . S
C444 H436 0.950 . S
C444 C442 1.391 . S
C444 C445 1.400 . S
C445 C444 1.400 . S
C445 C446 1.398 . S
C445 C451 1.491 . S
C446 H437 0.950 . S
C446 C445 1.398 . S
C446 C447 1.391 . S
C447 H435 0.950 . S
C447 C443 1.393 . S
C447 C446 1.391 . S
C448 H438 0.950 . S
C448 C449 1.386 . S
C448 C450 1.391 . S
C449 C448 1.386 . S
C449 C453 1.393 . S
C450 H439 0.950 . S
C450 C448 1.391 . S
C450 C451 1.400 . S
C451 C445 1.491 . S
C451 C450 1.400 . S
C451 C452 1.398 . S
C452 H440 0.950 . S
C452 C451 1.398 . S
C452 C453 1.391 . S
C453 H441 0.950 . S
C453 C449 1.393 . S
C453 C452 1.391 . S
H454 C462 0.950 . S
H455 C467 0.950 . S
H456 C464 0.950 . S
H457 C466 0.950 . S
H458 C468 0.950 . S
H459 C470 0.950 . S
H460 C472 0.950 . S
H461 C473 0.950 . S
C462 H454 0.950 . S
C462 C463 1.386 . S
C462 C464 1.391 . S
C463 C462 1.386 . S
C463 C467 1.393 . S
C464 H456 0.950 . S
C464 C462 1.391 . S
C464 C465 1.400 . S
C465 C464 1.400 . S
C465 C466 1.398 . S
C465 C471 1.491 . S
C466 H457 0.950 . S
C466 C465 1.398 . S
C466 C467 1.391 . S
C467 H455 0.950 . S
C467 C463 1.393 . S
C467 C466 1.391 . S
C468 H458 0.950 . S
C468 C469 1.386 . S
C468 C470 1.391 . S
C469 C468 1.386 . S
C469 C473 1.393 . S
C470 H459 0.950 . S
C470 C468 1.391 . S
C470 C471 1.400 . S
C471 C465 1.491 . S
C471 C470 1.400 . S
C471 C472 1.398 . S
C472 H460 0.950 . S
C472 C471 1.398 . S
C472 C473 1.391 . S
C473 H461 0.950 . S
C473 C469 1.393 . S
C473 C472 1.391 . S
H474 C482 0.950 . S
H475 C487 0.950 . S
H476 C484 0.950 . S
H477 C486 0.950 . S
H478 C488 0.950 . S
H479 C490 0.950 1_556 S
H480 C492 0.950 . S
H481 C493 0.950 . S
C482 H474 0.950 . S
C482 C483 1.386 . S
C482 C484 1.391 . S
C483 C482 1.386 . S
C483 C487 1.393 . S
C484 H476 0.950 . S
C484 C482 1.391 . S
C484 C485 1.400 . S
C485 C484 1.400 . S
C485 C486 1.398 . S
C485 C491 1.491 1_556 S
C486 H477 0.950 . S
C486 C485 1.398 . S
C486 C487 1.391 . S
C487 H475 0.950 . S
C487 C483 1.393 . S
C487 C486 1.391 . S
C488 H478 0.950 . S
C488 C489 1.386 . S
C488 C490 1.391 . S
C489 C488 1.386 . S
C489 C493 1.393 . S
C490 H479 0.950 1_554 S
C490 C488 1.391 . S
C490 C491 1.400 . S
C491 C485 1.491 1_554 S
C491 C490 1.400 . S
C491 C492 1.398 . S
C492 H480 0.950 . S
C492 C491 1.398 . S
C492 C493 1.391 . S
C493 H481 0.950 . S
C493 C489 1.393 . S
C493 C492 1.391 . S
H494 C502 0.950 . S
H495 C507 0.950 . S
H496 C504 0.950 1_556 S
H497 C506 0.950 . S
H498 C508 0.950 . S
H499 C510 0.950 . S
H500 C512 0.950 . S
H501 C513 0.950 . S
C502 H494 0.950 . S
C502 C503 1.386 . S
C502 C504 1.391 . S
C503 C502 1.386 . S
C503 C507 1.393 . S
C504 H496 0.950 1_554 S
C504 C502 1.391 . S
C504 C505 1.400 . S
C505 C504 1.400 . S
C505 C506 1.398 . S
C505 C511 1.491 1_554 S
C506 H497 0.950 . S
C506 C505 1.398 . S
C506 C507 1.391 . S
C507 H495 0.950 . S
C507 C503 1.393 . S
C507 C506 1.391 . S
C508 H498 0.950 . S
C508 C509 1.386 . S
C508 C510 1.391 . S
C509 C508 1.386 . S
C509 C513 1.393 . S
C510 H499 0.950 . S
C510 C508 1.391 . S
C510 C511 1.400 . S
C511 C505 1.491 1_556 S
C511 C510 1.400 . S
C511 C512 1.398 . S
C512 H500 0.950 . S
C512 C511 1.398 . S
C512 C513 1.391 . S
C513 H501 0.950 . S
C513 C509 1.393 . S
C513 C512 1.391 . S
H514 C522 0.950 . S
H515 C527 0.950 . S
H516 C524 0.950 . S
H517 C526 0.950 . S
H518 C528 0.950 . S
H519 C530 0.950 . S
H520 C532 0.950 . S
H521 C533 0.950 . S
C522 H514 0.950 . S
C522 C523 1.386 . S
C522 C524 1.391 . S
C523 C522 1.386 . S
C523 C527 1.393 . S
C524 H516 0.950 . S
C524 C522 1.391 . S
C524 C525 1.400 . S
C525 C524 1.400 . S
C525 C526 1.398 . S
C525 C531 1.491 1_556 S
C526 H517 0.950 . S
C526 C525 1.398 . S
C526 C527 1.391 . S
C527 H515 0.950 . S
C527 C523 1.393 . S
C527 C526 1.391 . S
C528 H518 0.950 . S
C528 C529 1.386 . S
C528 C530 1.391 . S
C529 C528 1.386 . S
C529 C533 1.393 . S
C530 H519 0.950 . S
C530 C528 1.391 . S
C530 C531 1.400 . S
C531 C525 1.491 1_554 S
C531 C530 1.400 . S
C531 C532 1.398 . S
C532 H520 0.950 . S
C532 C531 1.398 . S
C532 C533 1.391 . S
C533 H521 0.950 . S
C533 C529 1.393 . S
C533 C532 1.391 . S
H534 C542 0.950 . S
H535 C547 0.950 . S
H536 C544 0.950 . S
H537 C546 0.950 . S
H538 C548 0.950 . S
H539 C550 0.950 . S
H540 C552 0.950 . S
H541 C553 0.950 . S
C542 H534 0.950 . S
C542 C543 1.386 . S
C542 C544 1.391 . S
C543 C542 1.386 . S
C543 C547 1.393 . S
C544 H536 0.950 . S
C544 C542 1.391 . S
C544 C545 1.400 . S
C545 C544 1.400 . S
C545 C546 1.398 . S
C545 C551 1.491 . S
C546 H537 0.950 . S
C546 C545 1.398 . S
C546 C547 1.391 . S
C547 H535 0.950 . S
C547 C543 1.393 . S
C547 C546 1.391 . S
C548 H538 0.950 . S
C548 C549 1.386 . S
C548 C550 1.391 . S
C549 C548 1.386 . S
C549 C553 1.393 . S
C550 H539 0.950 . S
C550 C548 1.391 . S
C550 C551 1.400 . S
C551 C545 1.491 . S
C551 C550 1.400 . S
C551 C552 1.398 . S
C552 H540 0.950 . S
C552 C551 1.398 . S
C552 C553 1.391 . S
C553 H541 0.950 . S
C553 C549 1.393 . S
C553 C552 1.391 . S
H554 C562 0.950 . S
H555 C567 0.950 . S
H556 C564 0.950 . S
H557 C566 0.950 . S
H558 C568 0.950 . S
H559 C570 0.950 . S
H560 C572 0.950 . S
H561 C573 0.950 . S
C562 H554 0.950 . S
C562 C563 1.386 . S
C562 C564 1.391 . S
C563 C562 1.386 . S
C563 C567 1.393 . S
C564 H556 0.950 . S
C564 C562 1.391 . S
C564 C565 1.400 . S
C565 C564 1.400 . S
C565 C566 1.398 . S
C565 C571 1.491 . S
C566 H557 0.950 . S
C566 C565 1.398 . S
C566 C567 1.391 . S
C567 H555 0.950 . S
C567 C563 1.393 . S
C567 C566 1.391 . S
C568 H558 0.950 . S
C568 C569 1.386 . S
C568 C570 1.391 . S
C569 C568 1.386 . S
C569 C573 1.393 . S
C570 H559 0.950 . S
C570 C568 1.391 . S
C570 C571 1.400 . S
C571 C565 1.491 . S
C571 C570 1.400 . S
C571 C572 1.398 . S
C572 H560 0.950 . S
C572 C571 1.398 . S
C572 C573 1.391 . S
C573 H561 0.950 . S
C573 C569 1.393 . S
C573 C572 1.391 . S
H574 C582 0.950 . S
H575 C587 0.950 . S
H576 C584 0.950 . S
H577 C586 0.950 . S
H578 C588 0.950 . S
H579 C590 0.950 . S
H580 C592 0.950 . S
H581 C593 0.950 . S
C582 H574 0.950 . S
C582 C583 1.386 . S
C582 C584 1.391 . S
C583 C582 1.386 . S
C583 C587 1.393 . S
C584 H576 0.950 . S
C584 C582 1.391 . S
C584 C585 1.400 . S
C585 C584 1.400 . S
C585 C586 1.398 . S
C585 C591 1.491 . S
C586 H577 0.950 . S
C586 C585 1.398 . S
C586 C587 1.391 . S
C587 H575 0.950 . S
C587 C583 1.393 . S
C587 C586 1.391 . S
C588 H578 0.950 . S
C588 C589 1.386 . S
C588 C590 1.391 . S
C589 C588 1.386 . S
C589 C593 1.393 . S
C590 H579 0.950 . S
C590 C588 1.391 . S
C590 C591 1.400 . S
C591 C585 1.491 . S
C591 C590 1.400 . S
C591 C592 1.398 . S
C592 H580 0.950 . S
C592 C591 1.398 . S
C592 C593 1.391 . S
C593 H581 0.950 . S
C593 C589 1.393 . S
C593 C592 1.391 . S
H594 C602 0.950 . S
H595 C607 0.950 . S
H596 C604 0.950 . S
H597 C606 0.950 . S
H598 C608 0.950 . S
H599 C610 0.950 . S
H600 C612 0.950 1_554 S
H601 C613 0.950 . S
C602 H594 0.950 . S
C602 C603 1.386 . S
C602 C604 1.391 . S
C603 C602 1.386 . S
C603 C607 1.393 . S
C604 H596 0.950 . S
C604 C602 1.391 . S
C604 C605 1.400 . S
C605 C604 1.400 . S
C605 C606 1.398 . S
C605 C611 1.491 . S
C606 H597 0.950 . S
C606 C605 1.398 . S
C606 C607 1.391 . S
C607 H595 0.950 . S
C607 C603 1.393 . S
C607 C606 1.391 . S
C608 H598 0.950 . S
C608 C609 1.386 . S
C608 C610 1.391 . S
C609 C608 1.386 . S
C609 C613 1.393 . S
C610 H599 0.950 . S
C610 C608 1.391 . S
C610 C611 1.400 1_556 S
C611 C605 1.491 . S
C611 C610 1.400 1_554 S
C611 C612 1.398 1_554 S
C612 H600 0.950 1_556 S
C612 C611 1.398 1_556 S
C612 C613 1.391 . S
C613 H601 0.950 . S
C613 C609 1.393 . S
C613 C612 1.391 . S
H614 C622 0.950 . S
H615 C627 0.950 . S
H616 C624 0.950 1_554 S
H617 C626 0.950 . S
H618 C628 0.950 . S
H619 C630 0.950 . S
H620 C632 0.950 . S
H621 C633 0.950 . S
C622 H614 0.950 . S
C622 C623 1.386 . S
C622 C624 1.391 . S
C623 C622 1.386 . S
C623 C627 1.393 . S
C624 H616 0.950 1_556 S
C624 C622 1.391 . S
C624 C625 1.400 1_556 S
C625 C624 1.400 1_554 S
C625 C626 1.398 1_554 S
C625 C631 1.491 . S
C626 H617 0.950 . S
C626 C625 1.398 1_556 S
C626 C627 1.391 . S
C627 H615 0.950 . S
C627 C623 1.393 . S
C627 C626 1.391 . S
C628 H618 0.950 . S
C628 C629 1.386 . S
C628 C630 1.391 . S
C629 C628 1.386 . S
C629 C633 1.393 . S
C630 H619 0.950 . S
C630 C628 1.391 . S
C630 C631 1.400 . S
C631 C625 1.491 . S
C631 C630 1.400 . S
C631 C632 1.398 . S
C632 H620 0.950 . S
C632 C631 1.398 . S
C632 C633 1.391 . S
C633 H621 0.950 . S
C633 C629 1.393 . S
C633 C632 1.391 . S
H634 C642 0.950 . S
H635 C647 0.950 . S
H636 C644 0.950 . S
H637 C646 0.950 . S
H638 C648 0.950 . S
H639 C650 0.950 . S
H640 C652 0.950 . S
H641 C653 0.950 . S
C642 H634 0.950 . S
C642 C643 1.386 . S
C642 C644 1.391 . S
C643 C642 1.386 . S
C643 C647 1.393 . S
C644 H636 0.950 . S
C644 C642 1.391 . S
C644 C645 1.400 1_556 S
C645 C644 1.400 1_554 S
C645 C646 1.398 . S
C645 C651 1.491 . S
C646 H637 0.950 . S
C646 C645 1.398 . S
C646 C647 1.391 1_554 S
C647 H635 0.950 . S
C647 C643 1.393 . S
C647 C646 1.391 1_556 S
C648 H638 0.950 . S
C648 C649 1.386 . S
C648 C650 1.391 . S
C649 C648 1.386 . S
C649 C653 1.393 . S
C650 H639 0.950 . S
C650 C648 1.391 . S
C650 C651 1.400 . S
C651 C645 1.491 . S
C651 C650 1.400 . S
C651 C652 1.398 . S
C652 H640 0.950 . S
C652 C651 1.398 . S
C652 C653 1.391 . S
C653 H641 0.950 . S
C653 C649 1.393 . S
C653 C652 1.391 . S
H654 C662 0.950 . S
H655 C667 0.950 . S
H656 C664 0.950 . S
H657 C666 0.950 . S
H658 C668 0.950 . S
H659 C670 0.950 . S
H660 C672 0.950 . S
H661 C673 0.950 . S
C662 H654 0.950 . S
C662 C663 1.386 . S
C662 C664 1.391 . S
C663 C662 1.386 . S
C663 C667 1.393 . S
C664 H656 0.950 . S
C664 C662 1.391 . S
C664 C665 1.400 . S
C665 C664 1.400 . S
C665 C666 1.398 . S
C665 C671 1.491 . S
C666 H657 0.950 . S
C666 C665 1.398 . S
C666 C667 1.391 . S
C667 H655 0.950 . S
C667 C663 1.393 . S
C667 C666 1.391 . S
C668 H658 0.950 . S
C668 C669 1.386 . S
C668 C670 1.391 . S
C669 C668 1.386 . S
C669 C673 1.393 . S
C670 H659 0.950 . S
C670 C668 1.391 . S
C670 C671 1.400 . S
C671 C665 1.491 . S
C671 C670 1.400 . S
C671 C672 1.398 . S
C672 H660 0.950 . S
C672 C671 1.398 . S
C672 C673 1.391 . S
C673 H661 0.950 . S
C673 C669 1.393 . S
C673 C672 1.391 . S
H674 C682 0.950 . S
H675 C687 0.950 . S
H676 C684 0.950 . S
H677 C686 0.950 . S
H678 C688 0.950 . S
H679 C690 0.950 . S
H680 C692 0.950 . S
H681 C693 0.950 . S
C682 H674 0.950 . S
C682 C683 1.386 . S
C682 C684 1.391 . S
C683 C682 1.386 . S
C683 C687 1.393 . S
C684 H676 0.950 . S
C684 C682 1.391 . S
C684 C685 1.400 . S
C685 C684 1.400 . S
C685 C686 1.398 . S
C685 C691 1.491 . S
C686 H677 0.950 . S
C686 C685 1.398 . S
C686 C687 1.391 . S
C687 H675 0.950 . S
C687 C683 1.393 . S
C687 C686 1.391 . S
C688 H678 0.950 . S
C688 C689 1.386 . S
C688 C690 1.391 . S
C689 C688 1.386 . S
C689 C693 1.393 . S
C690 H679 0.950 . S
C690 C688 1.391 . S
C690 C691 1.400 . S
C691 C685 1.491 . S
C691 C690 1.400 . S
C691 C692 1.398 . S
C692 H680 0.950 . S
C692 C691 1.398 . S
C692 C693 1.391 . S
C693 H681 0.950 . S
C693 C689 1.393 . S
C693 C692 1.391 . S
H694 C702 0.950 . S
H695 C707 0.950 . S
H696 C704 0.950 . S
H697 C706 0.950 . S
H698 C708 0.950 . S
H699 C710 0.950 . S
H700 C712 0.950 . S
H701 C713 0.950 . S
C702 H694 0.950 . S
C702 C703 1.386 . S
C702 C704 1.391 . S
C703 C702 1.386 . S
C703 C707 1.393 . S
C704 H696 0.950 . S
C704 C702 1.391 . S
C704 C705 1.400 . S
C705 C704 1.400 . S
C705 C706 1.398 . S
C705 C711 1.491 . S
C706 H697 0.950 . S
C706 C705 1.398 . S
C706 C707 1.391 . S
C707 H695 0.950 . S
C707 C703 1.393 . S
C707 C706 1.391 . S
C708 H698 0.950 . S
C708 C709 1.386 . S
C708 C710 1.391 . S
C709 C708 1.386 . S
C709 C713 1.393 . S
C710 H699 0.950 . S
C710 C708 1.391 . S
C710 C711 1.400 . S
C711 C705 1.491 . S
C711 C710 1.400 . S
C711 C712 1.398 . S
C712 H700 0.950 . S
C712 C711 1.398 . S
C712 C713 1.391 . S
C713 H701 0.950 . S
C713 C709 1.393 . S
C713 C712 1.391 . S
H714 C722 0.950 . S
H715 C727 0.950 . S
H716 C724 0.950 . S
H717 C726 0.950 . S
H718 C728 0.950 . S
H719 C730 0.950 . S
H720 C732 0.950 . S
H721 C733 0.950 . S
C722 H714 0.950 . S
C722 C723 1.386 . S
C722 C724 1.391 . S
C723 C722 1.386 . S
C723 C727 1.393 . S
C724 H716 0.950 . S
C724 C722 1.391 . S
C724 C725 1.400 . S
C725 C724 1.400 . S
C725 C726 1.398 . S
C725 C731 1.491 . S
C726 H717 0.950 . S
C726 C725 1.398 . S
C726 C727 1.391 . S
C727 H715 0.950 . S
C727 C723 1.393 . S
C727 C726 1.391 . S
C728 H718 0.950 . S
C728 C729 1.386 . S
C728 C730 1.391 . S
C729 C728 1.386 . S
C729 C733 1.393 . S
C730 H719 0.950 . S
C730 C728 1.391 . S
C730 C731 1.400 . S
C731 C725 1.491 . S
C731 C730 1.400 . S
C731 C732 1.398 . S
C732 H720 0.950 . S
C732 C731 1.398 . S
C732 C733 1.391 . S
C733 H721 0.950 . S
C733 C729 1.393 . S
C733 C732 1.391 . S
H734 C742 0.950 . S
H735 C747 0.950 . S
H736 C744 0.950 . S
H737 C746 0.950 . S
H738 C748 0.950 . S
H739 C750 0.950 . S
H740 C752 0.950 . S
H741 C753 0.950 . S
C742 H734 0.950 . S
C742 C743 1.386 . S
C742 C744 1.391 . S
C743 C742 1.386 . S
C743 C747 1.393 . S
C744 H736 0.950 . S
C744 C742 1.391 . S
C744 C745 1.400 . S
C745 C744 1.400 . S
C745 C746 1.398 . S
C745 C751 1.491 . S
C746 H737 0.950 . S
C746 C745 1.398 . S
C746 C747 1.391 . S
C747 H735 0.950 . S
C747 C743 1.393 . S
C747 C746 1.391 . S
C748 H738 0.950 . S
C748 C749 1.386 . S
C748 C750 1.391 . S
C749 C748 1.386 . S
C749 C753 1.393 . S
C750 H739 0.950 . S
C750 C748 1.391 . S
C750 C751 1.400 . S
C751 C745 1.491 . S
C751 C750 1.400 . S
C751 C752 1.398 . S
C752 H740 0.950 . S
C752 C751 1.398 . S
C752 C753 1.391 . S
C753 H741 0.950 . S
C753 C749 1.393 . S
C753 C752 1.391 . S
H754 C762 0.950 . S
H755 C767 0.950 . S
H756 C764 0.950 . S
H757 C766 0.950 . S
H758 C768 0.950 . S
H759 C770 0.950 . S
H760 C772 0.950 . S
H761 C773 0.950 . S
C762 H754 0.950 . S
C762 C763 1.386 . S
C762 C764 1.391 . S
C763 C762 1.386 . S
C763 C767 1.393 . S
C764 H756 0.950 . S
C764 C762 1.391 . S
C764 C765 1.400 . S
C765 C764 1.400 . S
C765 C766 1.398 . S
C765 C771 1.491 . S
C766 H757 0.950 . S
C766 C765 1.398 . S
C766 C767 1.391 . S
C767 H755 0.950 . S
C767 C763 1.393 . S
C767 C766 1.391 . S
C768 H758 0.950 . S
C768 C769 1.386 . S
C768 C770 1.391 . S
C769 C768 1.386 . S
C769 C773 1.393 . S
C770 H759 0.950 . S
C770 C768 1.391 . S
C770 C771 1.400 . S
C771 C765 1.491 . S
C771 C770 1.400 . S
C771 C772 1.398 . S
C772 H760 0.950 . S
C772 C771 1.398 . S
C772 C773 1.391 . S
C773 H761 0.950 . S
C773 C769 1.393 . S
C773 C772 1.391 . S
H774 C782 0.950 . S
H775 C787 0.950 . S
H776 C784 0.950 . S
H777 C786 0.950 . S
H778 C788 0.950 . S
H779 C790 0.950 . S
H780 C792 0.950 . S
H781 C793 0.950 . S
C782 H774 0.950 . S
C782 C783 1.386 . S
C782 C784 1.391 . S
C783 C782 1.386 . S
C783 C787 1.393 . S
C784 H776 0.950 . S
C784 C782 1.391 . S
C784 C785 1.400 . S
C785 C784 1.400 . S
C785 C786 1.398 . S
C785 C791 1.491 . S
C786 H777 0.950 . S
C786 C785 1.398 . S
C786 C787 1.391 . S
C787 H775 0.950 . S
C787 C783 1.393 . S
C787 C786 1.391 . S
C788 H778 0.950 . S
C788 C789 1.386 . S
C788 C790 1.391 . S
C789 C788 1.386 . S
C789 C793 1.393 . S
C790 H779 0.950 . S
C790 C788 1.391 . S
C790 C791 1.400 . S
C791 C785 1.491 . S
C791 C790 1.400 . S
C791 C792 1.398 . S
C792 H780 0.950 . S
C792 C791 1.398 . S
C792 C793 1.391 . S
C793 H781 0.950 . S
C793 C789 1.393 . S
C793 C792 1.391 . S
H794 C802 0.950 . S
H795 C807 0.950 . S
H796 C804 0.950 . S
H797 C806 0.950 . S
H798 C808 0.950 . S
H799 C810 0.950 . S
H800 C812 0.950 . S
H801 C813 0.950 . S
C802 H794 0.950 . S
C802 C803 1.386 . S
C802 C804 1.391 . S
C803 C802 1.386 . S
C803 C807 1.393 . S
C804 H796 0.950 . S
C804 C802 1.391 . S
C804 C805 1.400 . S
C805 C804 1.400 . S
C805 C806 1.398 . S
C805 C811 1.491 . S
C806 H797 0.950 . S
C806 C805 1.398 . S
C806 C807 1.391 . S
C807 H795 0.950 . S
C807 C803 1.393 . S
C807 C806 1.391 . S
C808 H798 0.950 . S
C808 C809 1.386 . S
C808 C810 1.391 . S
C809 C808 1.386 . S
C809 C813 1.393 . S
C810 H799 0.950 . S
C810 C808 1.391 . S
C810 C811 1.400 . S
C811 C805 1.491 . S
C811 C810 1.400 . S
C811 C812 1.398 . S
C812 H800 0.950 . S
C812 C811 1.398 . S
C812 C813 1.391 . S
C813 H801 0.950 . S
C813 C809 1.393 . S
C813 C812 1.391 . S
H814 C822 0.950 . S
H815 C827 0.950 . S
H816 C824 0.950 . S
H817 C826 0.950 . S
H818 C828 0.950 . S
H819 C830 0.950 . S
H820 C832 0.950 . S
H821 C833 0.950 . S
C822 H814 0.950 . S
C822 C823 1.386 . S
C822 C824 1.391 . S
C823 C822 1.386 . S
C823 C827 1.393 . S
C824 H816 0.950 . S
C824 C822 1.391 . S
C824 C825 1.400 . S
C825 C824 1.400 . S
C825 C826 1.398 . S
C825 C831 1.491 . S
C826 H817 0.950 . S
C826 C825 1.398 . S
C826 C827 1.391 . S
C827 H815 0.950 . S
C827 C823 1.393 . S
C827 C826 1.391 . S
C828 H818 0.950 . S
C828 C829 1.386 . S
C828 C830 1.391 . S
C829 C828 1.386 . S
C829 C833 1.393 . S
C830 H819 0.950 . S
C830 C828 1.391 . S
C830 C831 1.400 . S
C831 C825 1.491 . S
C831 C830 1.400 . S
C831 C832 1.398 . S
C832 H820 0.950 . S
C832 C831 1.398 . S
C832 C833 1.391 . S
C833 H821 0.950 . S
C833 C829 1.393 . S
C833 C832 1.391 . S
H834 C842 0.950 . S
H835 C847 0.950 . S
H836 C844 0.950 . S
H837 C846 0.950 . S
H838 C848 0.950 . S
H839 C850 0.950 . S
H840 C852 0.950 . S
H841 C853 0.950 . S
C842 H834 0.950 . S
C842 C843 1.386 . S
C842 C844 1.391 . S
C843 C842 1.386 . S
C843 C847 1.393 . S
C844 H836 0.950 . S
C844 C842 1.391 . S
C844 C845 1.400 . S
C845 C844 1.400 . S
C845 C846 1.398 . S
C845 C851 1.491 . S
C846 H837 0.950 . S
C846 C845 1.398 . S
C846 C847 1.391 . S
C847 H835 0.950 . S
C847 C843 1.393 . S
C847 C846 1.391 . S
C848 H838 0.950 . S
C848 C849 1.386 . S
C848 C850 1.391 . S
C849 C848 1.386 . S
C849 C853 1.393 . S
C850 H839 0.950 . S
C850 C848 1.391 . S
C850 C851 1.400 . S
C851 C845 1.491 . S
C851 C850 1.400 . S
C851 C852 1.398 . S
C852 H840 0.950 . S
C852 C851 1.398 . S
C852 C853 1.391 . S
C853 H841 0.950 . S
C853 C849 1.393 . S
C853 C852 1.391 . S
H854 C862 0.950 . S
H855 C867 0.950 . S
H856 C864 0.950 . S
H857 C866 0.950 . S
H858 C868 0.950 . S
H859 C870 0.950 . S
H860 C872 0.950 . S
H861 C873 0.950 . S
C862 H854 0.950 . S
C862 C863 1.386 . S
C862 C864 1.391 . S
C863 C862 1.386 . S
C863 C867 1.393 . S
C864 H856 0.950 . S
C864 C862 1.391 . S
C864 C865 1.400 . S
C865 C864 1.400 . S
C865 C866 1.398 . S
C865 C871 1.491 . S
C866 H857 0.950 . S
C866 C865 1.398 . S
C866 C867 1.391 . S
C867 H855 0.950 . S
C867 C863 1.393 . S
C867 C866 1.391 . S
C868 H858 0.950 . S
C868 C869 1.386 . S
C868 C870 1.391 . S
C869 C868 1.386 . S
C869 C873 1.393 . S
C870 H859 0.950 . S
C870 C868 1.391 . S
C870 C871 1.400 . S
C871 C865 1.491 . S
C871 C870 1.400 . S
C871 C872 1.398 . S
C872 H860 0.950 . S
C872 C871 1.398 . S
C872 C873 1.391 . S
C873 H861 0.950 . S
C873 C869 1.393 . S
C873 C872 1.391 . S
H874 C882 0.950 . S
H875 C887 0.950 . S
H876 C884 0.950 . S
H877 C886 0.950 . S
H878 C888 0.950 . S
H879 C890 0.950 . S
H880 C892 0.950 . S
H881 C893 0.950 . S
C882 H874 0.950 . S
C882 C883 1.386 . S
C882 C884 1.391 . S
C883 C882 1.386 . S
C883 C887 1.393 . S
C884 H876 0.950 . S
C884 C882 1.391 . S
C884 C885 1.400 . S
C885 C884 1.400 . S
C885 C886 1.398 . S
C885 C891 1.491 . S
C886 H877 0.950 . S
C886 C885 1.398 . S
C886 C887 1.391 . S
C887 H875 0.950 . S
C887 C883 1.393 . S
C887 C886 1.391 . S
C888 H878 0.950 . S
C888 C889 1.386 . S
C888 C890 1.391 . S
C889 C888 1.386 . S
C889 C893 1.393 . S
C890 H879 0.950 . S
C890 C888 1.391 . S
C890 C891 1.400 . S
C891 C885 1.491 . S
C891 C890 1.400 . S
C891 C892 1.398 . S
C892 H880 0.950 . S
C892 C891 1.398 . S
C892 C893 1.391 . S
C893 H881 0.950 . S
C893 C889 1.393 . S
C893 C892 1.391 . S
H894 C902 0.950 . S
H895 C907 0.950 . S
H896 C904 0.950 . S
H897 C906 0.950 . S
H898 C908 0.950 . S
H899 C910 0.950 . S
H900 C912 0.950 . S
H901 C913 0.950 . S
C902 H894 0.950 . S
C902 C903 1.386 . S
C902 C904 1.391 . S
C903 C902 1.386 . S
C903 C907 1.393 . S
C904 H896 0.950 . S
C904 C902 1.391 . S
C904 C905 1.400 . S
C905 C904 1.400 . S
C905 C906 1.398 . S
C905 C911 1.491 . S
C906 H897 0.950 . S
C906 C905 1.398 . S
C906 C907 1.391 . S
C907 H895 0.950 . S
C907 C903 1.393 . S
C907 C906 1.391 . S
C908 H898 0.950 . S
C908 C909 1.386 . S
C908 C910 1.391 . S
C909 C908 1.386 . S
C909 C913 1.393 . S
C910 H899 0.950 . S
C910 C908 1.391 . S
C910 C911 1.400 . S
C911 C905 1.491 . S
C911 C910 1.400 . S
C911 C912 1.398 . S
C912 H900 0.950 . S
C912 C911 1.398 . S
C912 C913 1.391 . S
C913 H901 0.950 . S
C913 C909 1.393 . S
C913 C912 1.391 . S
H914 C922 0.950 . S
H915 C927 0.950 . S
H916 C924 0.950 . S
H917 C926 0.950 . S
H918 C928 0.950 . S
H919 C930 0.950 . S
H920 C932 0.950 . S
H921 C933 0.950 . S
C922 H914 0.950 . S
C922 C923 1.386 . S
C922 C924 1.391 . S
C923 C922 1.386 . S
C923 C927 1.393 . S
C924 H916 0.950 . S
C924 C922 1.391 . S
C924 C925 1.400 . S
C925 C924 1.400 . S
C925 C926 1.398 . S
C925 C931 1.491 . S
C926 H917 0.950 . S
C926 C925 1.398 . S
C926 C927 1.391 . S
C927 H915 0.950 . S
C927 C923 1.393 . S
C927 C926 1.391 . S
C928 H918 0.950 . S
C928 C929 1.386 . S
C928 C930 1.391 . S
C929 C928 1.386 . S
C929 C933 1.393 . S
C930 H919 0.950 . S
C930 C928 1.391 . S
C930 C931 1.400 . S
C931 C925 1.491 . S
C931 C930 1.400 . S
C931 C932 1.398 . S
C932 H920 0.950 . S
C932 C931 1.398 . S
C932 C933 1.391 . S
C933 H921 0.950 . S
C933 C929 1.393 . S
C933 C932 1.391 . S
H934 C942 0.950 . S
H935 C947 0.950 . S
H936 C944 0.950 . S
H937 C946 0.950 . S
H938 C948 0.950 . S
H939 C950 0.950 . S
H940 C952 0.950 . S
H941 C953 0.950 . S
C942 H934 0.950 . S
C942 C943 1.386 . S
C942 C944 1.391 . S
C943 C942 1.386 . S
C943 C947 1.393 . S
C944 H936 0.950 . S
C944 C942 1.391 . S
C944 C945 1.400 . S
C945 C944 1.400 . S
C945 C946 1.398 . S
C945 C951 1.491 . S
C946 H937 0.950 . S
C946 C945 1.398 . S
C946 C947 1.391 . S
C947 H935 0.950 . S
C947 C943 1.393 . S
C947 C946 1.391 . S
C948 H938 0.950 . S
C948 C949 1.386 . S
C948 C950 1.391 . S
C949 C948 1.386 . S
C949 C953 1.393 . S
C950 H939 0.950 . S
C950 C948 1.391 . S
C950 C951 1.400 . S
C951 C945 1.491 . S
C951 C950 1.400 . S
C951 C952 1.398 . S
C952 H940 0.950 . S
C952 C951 1.398 . S
C952 C953 1.391 . S
C953 H941 0.950 . S
C953 C949 1.393 . S
C953 C952 1.391 . S
H954 C962 0.950 . S
H955 C967 0.950 . S
H956 C964 0.950 . S
H957 C966 0.950 . S
H958 C968 0.950 . S
H959 C970 0.950 . S
H960 C972 0.950 . S
H961 C973 0.950 . S
C962 H954 0.950 . S
C962 C963 1.386 . S
C962 C964 1.391 . S
C963 C962 1.386 . S
C963 C967 1.393 . S
C964 H956 0.950 . S
C964 C962 1.391 . S
C964 C965 1.400 . S
C965 C964 1.400 . S
C965 C966 1.398 . S
C965 C971 1.491 . S
C966 H957 0.950 . S
C966 C965 1.398 . S
C966 C967 1.391 . S
C967 H955 0.950 . S
C967 C963 1.393 . S
C967 C966 1.391 . S
C968 H958 0.950 . S
C968 C969 1.386 . S
C968 C970 1.391 . S
C969 C968 1.386 . S
C969 C973 1.393 . S
C970 H959 0.950 . S
C970 C968 1.391 . S
C970 C971 1.400 . S
C971 C965 1.491 . S
C971 C970 1.400 . S
C971 C972 1.398 . S
C972 H960 0.950 . S
C972 C971 1.398 . S
C972 C973 1.391 . S
C973 H961 0.950 . S
C973 C969 1.393 . S
C973 C972 1.391 . S
H974 C982 0.950 . S
H975 C987 0.950 . S
H976 C984 0.950 . S
H977 C986 0.950 . S
H978 C988 0.950 . S
H979 C990 0.950 . S
H980 C992 0.950 . S
H981 C993 0.950 . S
C982 H974 0.950 . S
C982 C983 1.386 . S
C982 C984 1.391 . S
C983 C982 1.386 . S
C983 C987 1.393 . S
C984 H976 0.950 . S
C984 C982 1.391 . S
C984 C985 1.400 . S
C985 C984 1.400 . S
C985 C986 1.398 . S
C985 C991 1.491 . S
C986 H977 0.950 . S
C986 C985 1.398 . S
C986 C987 1.391 . S
C987 H975 0.950 . S
C987 C983 1.393 . S
C987 C986 1.391 . S
C988 H978 0.950 . S
C988 C989 1.386 . S
C988 C990 1.391 . S
C989 C988 1.386 . S
C989 C993 1.393 . S
C990 H979 0.950 . S
C990 C988 1.391 . S
C990 C991 1.400 . S
C991 C985 1.491 . S
C991 C990 1.400 . S
C991 C992 1.398 . S
C992 H980 0.950 . S
C992 C991 1.398 . S
C992 C993 1.391 . S
C993 H981 0.950 . S
C993 C989 1.393 . S
C993 C992 1.391 . S
H994 C1002 0.950 . S
H995 C1007 0.950 . S
H996 C1004 0.950 . S
H997 C1006 0.950 . S
H998 C1008 0.950 . S
H999 C1010 0.950 . S
H1000 C1012 0.950 . S
H1001 C1013 0.950 . S
C1002 H994 0.950 . S
C1002 C1003 1.386 . S
C1002 C1004 1.391 . S
C1003 C1002 1.386 . S
C1003 C1007 1.393 . S
C1004 H996 0.950 . S
C1004 C1002 1.391 . S
C1004 C1005 1.400 . S
C1005 C1004 1.400 . S
C1005 C1006 1.398 . S
C1005 C1011 1.491 . S
C1006 H997 0.950 . S
C1006 C1005 1.398 . S
C1006 C1007 1.391 . S
C1007 H995 0.950 . S
C1007 C1003 1.393 . S
C1007 C1006 1.391 . S
C1008 H998 0.950 . S
C1008 C1009 1.386 . S
C1008 C1010 1.391 . S
C1009 C1008 1.386 . S
C1009 C1013 1.393 . S
C1010 H999 0.950 . S
C1010 C1008 1.391 . S
C1010 C1011 1.400 . S
C1011 C1005 1.491 . S
C1011 C1010 1.400 . S
C1011 C1012 1.398 . S
C1012 H1000 0.950 . S
C1012 C1011 1.398 . S
C1012 C1013 1.391 . S
C1013 H1001 0.950 . S
C1013 C1009 1.393 . S
C1013 C1012 1.391 . S
H1014 C1022 0.950 . S
H1015 C1027 0.950 . S
H1016 C1024 0.950 . S
H1017 C1026 0.950 . S
H1018 C1028 0.950 . S
H1019 C1030 0.950 . S
H1020 C1032 0.950 . S
H1021 C1033 0.950 . S
C1022 H1014 0.950 . S
C1022 C1023 1.386 . S
C1022 C1024 1.391 . S
C1023 C1022 1.386 . S
C1023 C1027 1.393 . S
C1024 H1016 0.950 . S
C1024 C1022 1.391 . S
C1024 C1025 1.400 . S
C1025 C1024 1.400 . S
C1025 C1026 1.398 . S
C1025 C1031 1.491 . S
C1026 H1017 0.950 . S
C1026 C1025 1.398 . S
C1026 C1027 1.391 . S
C1027 H1015 0.950 . S
C1027 C1023 1.393 . S
C1027 C1026 1.391 . S
C1028 H1018 0.950 . S
C1028 C1029 1.386 . S
C1028 C1030 1.391 . S
C1029 C1028 1.386 . S
C1029 C1033 1.393 . S
C1030 H1019 0.950 . S
C1030 C1028 1.391 . S
C1030 C1031 1.400 . S
C1031 C1025 1.491 . S
C1031 C1030 1.400 . S
C1031 C1032 1.398 . S
C1032 H1020 0.950 . S
C1032 C1031 1.398 . S
C1032 C1033 1.391 . S
C1033 H1021 0.950 . S
C1033 C1029 1.393 . S
C1033 C1032 1.391 . S
H1034 C1042 0.950 . S
H1035 C1047 0.950 . S
H1036 C1044 0.950 . S
H1037 C1046 0.950 . S
H1038 C1048 0.950 . S
H1039 C1050 0.950 . S
H1040 C1052 0.950 . S
H1041 C1053 0.950 . S
C1042 H1034 0.950 . S
C1042 C1043 1.386 . S
C1042 C1044 1.391 . S
C1043 C1042 1.386 . S
C1043 C1047 1.393 . S
C1044 H1036 0.950 . S
C1044 C1042 1.391 . S
C1044 C1045 1.400 . S
C1045 C1044 1.400 . S
C1045 C1046 1.398 . S
C1045 C1051 1.491 . S
C1046 H1037 0.950 . S
C1046 C1045 1.398 . S
C1046 C1047 1.391 . S
C1047 H1035 0.950 . S
C1047 C1043 1.393 . S
C1047 C1046 1.391 . S
C1048 H1038 0.950 . S
C1048 C1049 1.386 . S
C1048 C1050 1.391 . S
C1049 C1048 1.386 . S
C1049 C1053 1.393 . S
C1050 H1039 0.950 . S
C1050 C1048 1.391 . S
C1050 C1051 1.400 . S
C1051 C1045 1.491 . S
C1051 C1050 1.400 . S
C1051 C1052 1.398 . S
C1052 H1040 0.950 . S
C1052 C1051 1.398 . S
C1052 C1053 1.391 . S
C1053 H1041 0.950 . S
C1053 C1049 1.393 . S
C1053 C1052 1.391 . S
H1054 C1062 0.950 . S
H1055 C1067 0.950 . S
H1056 C1064 0.950 . S
H1057 C1066 0.950 . S
H1058 C1068 0.950 . S
H1059 C1070 0.950 . S
H1060 C1072 0.950 . S
H1061 C1073 0.950 . S
C1062 H1054 0.950 . S
C1062 C1063 1.386 . S
C1062 C1064 1.391 . S
C1063 C1062 1.386 . S
C1063 C1067 1.393 . S
C1064 H1056 0.950 . S
C1064 C1062 1.391 . S
C1064 C1065 1.400 . S
C1065 C1064 1.400 . S
C1065 C1066 1.398 . S
C1065 C1071 1.491 . S
C1066 H1057 0.950 . S
C1066 C1065 1.398 . S
C1066 C1067 1.391 . S
C1067 H1055 0.950 . S
C1067 C1063 1.393 . S
C1067 C1066 1.391 . S
C1068 H1058 0.950 . S
C1068 C1069 1.386 . S
C1068 C1070 1.391 . S
C1069 C1068 1.386 . S
C1069 C1073 1.393 . S
C1070 H1059 0.950 . S
C1070 C1068 1.391 . S
C1070 C1071 1.400 . S
C1071 C1065 1.491 . S
C1071 C1070 1.400 . S
C1071 C1072 1.398 . S
C1072 H1060 0.950 . S
C1072 C1071 1.398 . S
C1072 C1073 1.391 . S
C1073 H1061 0.950 . S
C1073 C1069 1.393 . S
C1073 C1072 1.391 . S
H1074 C1082 0.950 . S
H1075 C1087 0.950 . S
H1076 C1084 0.950 . S
H1077 C1086 0.950 . S
H1078 C1088 0.950 . S
H1079 C1090 0.950 . S
H1080 C1092 0.950 . S
H1081 C1093 0.950 . S
C1082 H1074 0.950 . S
C1082 C1083 1.386 . S
C1082 C1084 1.391 . S
C1083 C1082 1.386 . S
C1083 C1087 1.393 . S
C1084 H1076 0.950 . S
C1084 C1082 1.391 . S
C1084 C1085 1.400 . S
C1085 C1084 1.400 . S
C1085 C1086 1.398 . S
C1085 C1091 1.491 . S
C1086 H1077 0.950 . S
C1086 C1085 1.398 . S
C1086 C1087 1.391 . S
C1087 H1075 0.950 . S
C1087 C1083 1.393 . S
C1087 C1086 1.391 . S
C1088 H1078 0.950 . S
C1088 C1089 1.386 . S
C1088 C1090 1.391 . S
C1089 C1088 1.386 . S
C1089 C1093 1.393 . S
C1090 H1079 0.950 . S
C1090 C1088 1.391 . S
C1090 C1091 1.400 . S
C1091 C1085 1.491 . S
C1091 C1090 1.400 . S
C1091 C1092 1.398 . S
C1092 H1080 0.950 . S
C1092 C1091 1.398 . S
C1092 C1093 1.391 . S
C1093 H1081 0.950 . S
C1093 C1089 1.393 . S
C1093 C1092 1.391 . S
H1094 C1102 0.950 . S
H1095 C1107 0.950 . S
H1096 C1104 0.950 . S
H1097 C1106 0.950 . S
H1098 C1108 0.950 . S
H1099 C1110 0.950 . S
H1100 C1112 0.950 . S
H1101 C1113 0.950 . S
C1102 H1094 0.950 . S
C1102 C1103 1.386 . S
C1102 C1104 1.391 . S
C1103 C1102 1.386 . S
C1103 C1107 1.393 . S
C1104 H1096 0.950 . S
C1104 C1102 1.391 . S
C1104 C1105 1.400 . S
C1105 C1104 1.400 . S
C1105 C1106 1.398 . S
C1105 C1111 1.491 . S
C1106 H1097 0.950 . S
C1106 C1105 1.398 . S
C1106 C1107 1.391 . S
C1107 H1095 0.950 . S
C1107 C1103 1.393 . S
C1107 C1106 1.391 . S
C1108 H1098 0.950 . S
C1108 C1109 1.386 . S
C1108 C1110 1.391 . S
C1109 C1108 1.386 . S
C1109 C1113 1.393 . S
C1110 H1099 0.950 . S
C1110 C1108 1.391 . S
C1110 C1111 1.400 . S
C1111 C1105 1.491 . S
C1111 C1110 1.400 . S
C1111 C1112 1.398 . S
C1112 H1100 0.950 . S
C1112 C1111 1.398 . S
C1112 C1113 1.391 . S
C1113 H1101 0.950 . S
C1113 C1109 1.393 . S
C1113 C1112 1.391 . S
H1114 C1122 0.950 . S
H1115 C1127 0.950 . S
H1116 C1124 0.950 . S
H1117 C1126 0.950 . S
H1118 C1128 0.950 . S
H1119 C1130 0.950 . S
H1120 C1132 0.950 . S
H1121 C1133 0.950 . S
C1122 H1114 0.950 . S
C1122 C1123 1.386 . S
C1122 C1124 1.391 . S
C1123 C1122 1.386 . S
C1123 C1127 1.393 . S
C1124 H1116 0.950 . S
C1124 C1122 1.391 . S
C1124 C1125 1.400 . S
C1125 C1124 1.400 . S
C1125 C1126 1.398 . S
C1125 C1131 1.491 . S
C1126 H1117 0.950 . S
C1126 C1125 1.398 . S
C1126 C1127 1.391 . S
C1127 H1115 0.950 . S
C1127 C1123 1.393 . S
C1127 C1126 1.391 . S
C1128 H1118 0.950 . S
C1128 C1129 1.386 . S
C1128 C1130 1.391 . S
C1129 C1128 1.386 . S
C1129 C1133 1.393 . S
C1130 H1119 0.950 . S
C1130 C1128 1.391 . S
C1130 C1131 1.400 . S
C1131 C1125 1.491 . S
C1131 C1130 1.400 . S
C1131 C1132 1.398 . S
C1132 H1120 0.950 . S
C1132 C1131 1.398 . S
C1132 C1133 1.391 . S
C1133 H1121 0.950 . S
C1133 C1129 1.393 . S
C1133 C1132 1.391 . S
H1134 C1142 0.950 . S
H1135 C1147 0.950 . S
H1136 C1144 0.950 . S
H1137 C1146 0.950 . S
H1138 C1148 0.950 . S
H1139 C1150 0.950 . S
H1140 C1152 0.950 . S
H1141 C1153 0.950 . S
C1142 H1134 0.950 . S
C1142 C1143 1.386 . S
C1142 C1144 1.391 . S
C1143 C1142 1.386 . S
C1143 C1147 1.393 . S
C1144 H1136 0.950 . S
C1144 C1142 1.391 . S
C1144 C1145 1.400 . S
C1145 C1144 1.400 . S
C1145 C1146 1.398 . S
C1145 C1151 1.491 . S
C1146 H1137 0.950 . S
C1146 C1145 1.398 . S
C1146 C1147 1.391 . S
C1147 H1135 0.950 . S
C1147 C1143 1.393 . S
C1147 C1146 1.391 . S
C1148 H1138 0.950 . S
C1148 C1149 1.386 . S
C1148 C1150 1.391 . S
C1149 C1148 1.386 . S
C1149 C1153 1.393 . S
C1150 H1139 0.950 . S
C1150 C1148 1.391 . S
C1150 C1151 1.400 . S
C1151 C1145 1.491 . S
C1151 C1150 1.400 . S
C1151 C1152 1.398 . S
C1152 H1140 0.950 . S
C1152 C1151 1.398 . S
C1152 C1153 1.391 . S
C1153 H1141 0.950 . S
C1153 C1149 1.393 . S
C1153 C1152 1.391 . S
H1154 C1162 0.950 . S
H1155 C1167 0.950 . S
H1156 C1164 0.950 . S
H1157 C1166 0.950 . S
H1158 C1168 0.950 . S
H1159 C1170 0.950 . S
H1160 C1172 0.950 . S
H1161 C1173 0.950 . S
C1162 H1154 0.950 . S
C1162 C1163 1.386 . S
C1162 C1164 1.391 . S
C1163 C1162 1.386 . S
C1163 C1167 1.393 . S
C1164 H1156 0.950 . S
C1164 C1162 1.391 . S
C1164 C1165 1.400 . S
C1165 C1164 1.400 . S
C1165 C1166 1.398 . S
C1165 C1171 1.491 . S
C1166 H1157 0.950 . S
C1166 C1165 1.398 . S
C1166 C1167 1.391 . S
C1167 H1155 0.950 . S
C1167 C1163 1.393 . S
C1167 C1166 1.391 . S
C1168 H1158 0.950 . S
C1168 C1169 1.386 . S
C1168 C1170 1.391 . S
C1169 C1168 1.386 . S
C1169 C1173 1.393 . S
C1170 H1159 0.950 . S
C1170 C1168 1.391 . S
C1170 C1171 1.400 . S
C1171 C1165 1.491 . S
C1171 C1170 1.400 . S
C1171 C1172 1.398 . S
C1172 H1160 0.950 . S
C1172 C1171 1.398 . S
C1172 C1173 1.391 . S
C1173 H1161 0.950 . S
C1173 C1169 1.393 . S
C1173 C1172 1.391 . S
H1174 C1182 0.950 . S
H1175 C1187 0.950 . S
H1176 C1184 0.950 . S
H1177 C1186 0.950 . S
H1178 C1188 0.950 . S
H1179 C1190 0.950 . S
H1180 C1192 0.950 . S
H1181 C1193 0.950 . S
C1182 H1174 0.950 . S
C1182 C1183 1.386 . S
C1182 C1184 1.391 . S
C1183 C1182 1.386 . S
C1183 C1187 1.393 . S
C1184 H1176 0.950 . S
C1184 C1182 1.391 . S
C1184 C1185 1.400 . S
C1185 C1184 1.400 . S
C1185 C1186 1.398 . S
C1185 C1191 1.491 . S
C1186 H1177 0.950 . S
C1186 C1185 1.398 . S
C1186 C1187 1.391 . S
C1187 H1175 0.950 . S
C1187 C1183 1.393 . S
C1187 C1186 1.391 . S
C1188 H1178 0.950 . S
C1188 C1189 1.386 . S
C1188 C1190 1.391 . S
C1189 C1188 1.386 . S
C1189 C1193 1.393 . S
C1190 H1179 0.950 . S
C1190 C1188 1.391 . S
C1190 C1191 1.400 . S
C1191 C1185 1.491 . S
C1191 C1190 1.400 . S
C1191 C1192 1.398 . S
C1192 H1180 0.950 . S
C1192 C1191 1.398 . S
C1192 C1193 1.391 . S
C1193 H1181 0.950 . S
C1193 C1189 1.393 . S
C1193 C1192 1.391 . S
H1194 C1202 0.950 . S
H1195 C1207 0.950 . S
H1196 C1204 0.950 . S
H1197 C1206 0.950 . S
H1198 C1208 0.950 . S
H1199 C1210 0.950 . S
H1200 C1212 0.950 . S
H1201 C1213 0.950 . S
C1202 H1194 0.950 . S
C1202 C1203 1.386 . S
C1202 C1204 1.391 . S
C1203 C1202 1.386 . S
C1203 C1207 1.393 . S
C1204 H1196 0.950 . S
C1204 C1202 1.391 . S
C1204 C1205 1.400 . S
C1205 C1204 1.400 . S
C1205 C1206 1.398 . S
C1205 C1211 1.491 . S
C1206 H1197 0.950 . S
C1206 C1205 1.398 . S
C1206 C1207 1.391 . S
C1207 H1195 0.950 . S
C1207 C1203 1.393 . S
C1207 C1206 1.391 . S
C1208 H1198 0.950 . S
C1208 C1209 1.386 1_554 S
C1208 C1210 1.391 1_554 S
C1209 C1208 1.386 1_556 S
C1209 C1213 1.393 . S
C1210 H1199 0.950 . S
C1210 C1208 1.391 1_556 S
C1210 C1211 1.400 . S
C1211 C1205 1.491 . S
C1211 C1210 1.400 . S
C1211 C1212 1.398 . S
C1212 H1200 0.950 . S
C1212 C1211 1.398 . S
C1212 C1213 1.391 . S
C1213 H1201 0.950 . S
C1213 C1209 1.393 . S
C1213 C1212 1.391 . S
H1214 C1222 0.950 . S
H1215 C1227 0.950 . S
H1216 C1224 0.950 . S
H1217 C1226 0.950 . S
H1218 C1228 0.950 . S
H1219 C1230 0.950 . S
H1220 C1232 0.950 . S
H1221 C1233 0.950 . S
C1222 H1214 0.950 . S
C1222 C1223 1.386 . S
C1222 C1224 1.391 . S
C1223 C1222 1.386 . S
C1223 C1227 1.393 . S
C1224 H1216 0.950 . S
C1224 C1222 1.391 . S
C1224 C1225 1.400 . S
C1225 C1224 1.400 . S
C1225 C1226 1.398 . S
C1225 C1231 1.491 . S
C1226 H1217 0.950 . S
C1226 C1225 1.398 . S
C1226 C1227 1.391 . S
C1227 H1215 0.950 . S
C1227 C1223 1.393 . S
C1227 C1226 1.391 . S
C1228 H1218 0.950 . S
C1228 C1229 1.386 . S
C1228 C1230 1.391 . S
C1229 C1228 1.386 . S
C1229 C1233 1.393 . S
C1230 H1219 0.950 . S
C1230 C1228 1.391 . S
C1230 C1231 1.400 . S
C1231 C1225 1.491 . S
C1231 C1230 1.400 . S
C1231 C1232 1.398 . S
C1232 H1220 0.950 . S
C1232 C1231 1.398 . S
C1232 C1233 1.391 . S
C1233 H1221 0.950 . S
C1233 C1229 1.393 . S
C1233 C1232 1.391 . S
H1234 C1242 0.950 . S
H1235 C1247 0.950 . S
H1236 C1244 0.950 . S
H1237 C1246 0.950 . S
H1238 C1248 0.950 1_554 S
H1239 C1250 0.950 . S
H1240 C1252 0.950 . S
H1241 C1253 0.950 . S
C1242 H1234 0.950 . S
C1242 C1243 1.386 . S
C1242 C1244 1.391 . S
C1243 C1242 1.386 . S
C1243 C1247 1.393 . S
C1244 H1236 0.950 . S
C1244 C1242 1.391 . S
C1244 C1245 1.400 . S
C1245 C1244 1.400 . S
C1245 C1246 1.398 . S
C1245 C1251 1.491 . S
C1246 H1237 0.950 . S
C1246 C1245 1.398 . S
C1246 C1247 1.391 . S
C1247 H1235 0.950 . S
C1247 C1243 1.393 . S
C1247 C1246 1.391 . S
C1248 H1238 0.950 1_556 S
C1248 C1249 1.386 . S
C1248 C1250 1.391 . S
C1249 C1248 1.386 . S
C1249 C1253 1.393 . S
C1250 H1239 0.950 . S
C1250 C1248 1.391 . S
C1250 C1251 1.400 . S
C1251 C1245 1.491 . S
C1251 C1250 1.400 . S
C1251 C1252 1.398 . S
C1252 H1240 0.950 . S
C1252 C1251 1.398 . S
C1252 C1253 1.391 . S
C1253 H1241 0.950 . S
C1253 C1249 1.393 . S
C1253 C1252 1.391 . S
H1254 C1262 0.950 . S
H1255 C1267 0.950 . S
H1256 C1264 0.950 . S
H1257 C1266 0.950 . S
H1258 C1268 0.950 . S
H1259 C1270 0.950 . S
H1260 C1272 0.950 . S
H1261 C1273 0.950 . S
C1262 H1254 0.950 . S
C1262 C1263 1.386 . S
C1262 C1264 1.391 . S
C1263 C1262 1.386 . S
C1263 C1267 1.393 . S
C1264 H1256 0.950 . S
C1264 C1262 1.391 . S
C1264 C1265 1.400 . S
C1265 C1264 1.400 . S
C1265 C1266 1.398 . S
C1265 C1271 1.491 . S
C1266 H1257 0.950 . S
C1266 C1265 1.398 . S
C1266 C1267 1.391 . S
C1267 H1255 0.950 . S
C1267 C1263 1.393 . S
C1267 C1266 1.391 . S
C1268 H1258 0.950 . S
C1268 C1269 1.386 . S
C1268 C1270 1.391 . S
C1269 C1268 1.386 . S
C1269 C1273 1.393 . S
C1270 H1259 0.950 . S
C1270 C1268 1.391 . S
C1270 C1271 1.400 . S
C1271 C1265 1.491 . S
C1271 C1270 1.400 . S
C1271 C1272 1.398 . S
C1272 H1260 0.950 . S
C1272 C1271 1.398 . S
C1272 C1273 1.391 . S
C1273 H1261 0.950 . S
C1273 C1269 1.393 . S
C1273 C1272 1.391 . S
H1274 C1282 0.950 . S
H1275 C1287 0.950 . S
H1276 C1284 0.950 . S
H1277 C1286 0.950 . S
H1278 C1288 0.950 . S
H1279 C1290 0.950 . S
H1280 C1292 0.950 . S
H1281 C1293 0.950 . S
C1282 H1274 0.950 . S
C1282 C1283 1.386 . S
C1282 C1284 1.391 . S
C1283 C1282 1.386 . S
C1283 C1287 1.393 . S
C1284 H1276 0.950 . S
C1284 C1282 1.391 . S
C1284 C1285 1.400 . S
C1285 C1284 1.400 . S
C1285 C1286 1.398 . S
C1285 C1291 1.491 . S
C1286 H1277 0.950 . S
C1286 C1285 1.398 . S
C1286 C1287 1.391 . S
C1287 H1275 0.950 . S
C1287 C1283 1.393 . S
C1287 C1286 1.391 . S
C1288 H1278 0.950 . S
C1288 C1289 1.386 . S
C1288 C1290 1.391 . S
C1289 C1288 1.386 . S
C1289 C1293 1.393 . S
C1290 H1279 0.950 . S
C1290 C1288 1.391 . S
C1290 C1291 1.400 . S
C1291 C1285 1.491 . S
C1291 C1290 1.400 . S
C1291 C1292 1.398 . S
C1292 H1280 0.950 . S
C1292 C1291 1.398 . S
C1292 C1293 1.391 . S
C1293 H1281 0.950 . S
C1293 C1289 1.393 . S
C1293 C1292 1.391 . S
H1294 C1302 0.950 . S
H1295 C1307 0.950 . S
H1296 C1304 0.950 . S
H1297 C1306 0.950 . S
H1298 C1308 0.950 . S
H1299 C1310 0.950 . S
H1300 C1312 0.950 . S
H1301 C1313 0.950 . S
C1302 H1294 0.950 . S
C1302 C1303 1.386 . S
C1302 C1304 1.391 . S
C1303 C1302 1.386 . S
C1303 C1307 1.393 . S
C1304 H1296 0.950 . S
C1304 C1302 1.391 . S
C1304 C1305 1.400 . S
C1305 C1304 1.400 . S
C1305 C1306 1.398 . S
C1305 C1311 1.491 . S
C1306 H1297 0.950 . S
C1306 C1305 1.398 . S
C1306 C1307 1.391 . S
C1307 H1295 0.950 . S
C1307 C1303 1.393 . S
C1307 C1306 1.391 . S
C1308 H1298 0.950 . S
C1308 C1309 1.386 . S
C1308 C1310 1.391 . S
C1309 C1308 1.386 . S
C1309 C1313 1.393 . S
C1310 H1299 0.950 . S
C1310 C1308 1.391 . S
C1310 C1311 1.400 . S
C1311 C1305 1.491 . S
C1311 C1310 1.400 . S
C1311 C1312 1.398 . S
C1312 H1300 0.950 . S
C1312 C1311 1.398 . S
C1312 C1313 1.391 . S
C1313 H1301 0.950 . S
C1313 C1309 1.393 . S
C1313 C1312 1.391 . S
H1314 C1322 0.950 . S
H1315 C1327 0.950 . S
H1316 C1324 0.950 1_556 S
H1317 C1326 0.950 . S
H1318 C1328 0.950 . S
H1319 C1330 0.950 . S
H1320 C1332 0.950 . S
H1321 C1333 0.950 . S
C1322 H1314 0.950 . S
C1322 C1323 1.386 1_556 S
C1322 C1324 1.391 1_556 S
C1323 C1322 1.386 1_554 S
C1323 C1327 1.393 . S
C1324 H1316 0.950 1_554 S
C1324 C1322 1.391 1_554 S
C1324 C1325 1.400 . S
C1325 C1324 1.400 . S
C1325 C1326 1.398 . S
C1325 C1331 1.491 . S
C1326 H1317 0.950 . S
C1326 C1325 1.398 . S
C1326 C1327 1.391 . S
C1327 H1315 0.950 . S
C1327 C1323 1.393 . S
C1327 C1326 1.391 . S
C1328 H1318 0.950 . S
C1328 C1329 1.386 . S
C1328 C1330 1.391 . S
C1329 C1328 1.386 . S
C1329 C1333 1.393 . S
C1330 H1319 0.950 . S
C1330 C1328 1.391 . S
C1330 C1331 1.400 . S
C1331 C1325 1.491 . S
C1331 C1330 1.400 . S
C1331 C1332 1.398 . S
C1332 H1320 0.950 . S
C1332 C1331 1.398 . S
C1332 C1333 1.391 . S
C1333 H1321 0.950 . S
C1333 C1329 1.393 . S
C1333 C1332 1.391 . S
H1334 C1342 0.950 . S
H1335 C1347 0.950 . S
H1336 C1344 0.950 . S
H1337 C1346 0.950 . S
H1338 C1348 0.950 1_556 S
H1339 C1350 0.950 . S
H1340 C1352 0.950 . S
H1341 C1353 0.950 . S
C1342 H1334 0.950 . S
C1342 C1343 1.386 . S
C1342 C1344 1.391 . S
C1343 C1342 1.386 . S
C1343 C1347 1.393 . S
C1344 H1336 0.950 . S
C1344 C1342 1.391 . S
C1344 C1345 1.400 . S
C1345 C1344 1.400 . S
C1345 C1346 1.398 . S
C1345 C1351 1.491 . S
C1346 H1337 0.950 . S
C1346 C1345 1.398 . S
C1346 C1347 1.391 . S
C1347 H1335 0.950 . S
C1347 C1343 1.393 . S
C1347 C1346 1.391 . S
C1348 H1338 0.950 1_554 S
C1348 C1349 1.386 . S
C1348 C1350 1.391 . S
C1349 C1348 1.386 . S
C1349 C1353 1.393 . S
C1350 H1339 0.950 . S
C1350 C1348 1.391 . S
C1350 C1351 1.400 . S
C1351 C1345 1.491 . S
C1351 C1350 1.400 . S
C1351 C1352 1.398 . S
C1352 H1340 0.950 . S
C1352 C1351 1.398 . S
C1352 C1353 1.391 . S
C1353 H1341 0.950 . S
C1353 C1349 1.393 . S
C1353 C1352 1.391 . S
H1354 C1362 0.950 . S
H1355 C1367 0.950 . S
H1356 C1364 0.950 . S
H1357 C1366 0.950 . S
H1358 C1368 0.950 . S
H1359 C1370 0.950 . S
H1360 C1372 0.950 . S
H1361 C1373 0.950 1_556 S
C1362 H1354 0.950 . S
C1362 C1363 1.386 . S
C1362 C1364 1.391 . S
C1363 C1362 1.386 . S
C1363 C1367 1.393 . S
C1364 H1356 0.950 . S
C1364 C1362 1.391 . S
C1364 C1365 1.400 . S
C1365 C1364 1.400 . S
C1365 C1366 1.398 . S
C1365 C1371 1.491 . S
C1366 H1357 0.950 . S
C1366 C1365 1.398 . S
C1366 C1367 1.391 . S
C1367 H1355 0.950 . S
C1367 C1363 1.393 . S
C1367 C1366 1.391 . S
C1368 H1358 0.950 . S
C1368 C1369 1.386 . S
C1368 C1370 1.391 . S
C1369 C1368 1.386 . S
C1369 C1373 1.393 . S
C1370 H1359 0.950 . S
C1370 C1368 1.391 . S
C1370 C1371 1.400 . S
C1371 C1365 1.491 . S
C1371 C1370 1.400 . S
C1371 C1372 1.398 . S
C1372 H1360 0.950 . S
C1372 C1371 1.398 . S
C1372 C1373 1.391 . S
C1373 H1361 0.950 1_554 S
C1373 C1369 1.393 . S
C1373 C1372 1.391 . S
H1374 C1382 0.950 . S
H1375 C1387 0.950 . S
H1376 C1384 0.950 1_455 S
H1377 C1386 0.950 . S
H1378 C1388 0.950 . S
H1379 C1390 0.950 . S
H1380 C1392 0.950 . S
H1381 C1393 0.950 . S
C1382 H1374 0.950 . S
C1382 C1383 1.386 . S
C1382 C1384 1.391 . S
C1383 C1382 1.386 . S
C1383 C1387 1.393 . S
C1384 H1376 0.950 1_655 S
C1384 C1382 1.391 . S
C1384 C1385 1.400 . S
C1385 C1384 1.400 . S
C1385 C1386 1.398 . S
C1385 C1391 1.491 1_655 S
C1386 H1377 0.950 . S
C1386 C1385 1.398 . S
C1386 C1387 1.391 . S
C1387 H1375 0.950 . S
C1387 C1383 1.393 . S
C1387 C1386 1.391 . S
C1388 H1378 0.950 . S
C1388 C1389 1.386 . S
C1388 C1390 1.391 . S
C1389 C1388 1.386 . S
C1389 C1393 1.393 . S
C1390 H1379 0.950 . S
C1390 C1388 1.391 . S
C1390 C1391 1.400 . S
C1391 C1385 1.491 1_455 S
C1391 C1390 1.400 . S
C1391 C1392 1.398 . S
C1392 H1380 0.950 . S
C1392 C1391 1.398 . S
C1392 C1393 1.391 . S
C1393 H1381 0.950 . S
C1393 C1389 1.393 . S
C1393 C1392 1.391 . S
H1394 C1402 0.950 . S
H1395 C1407 0.950 . S
H1396 C1404 0.950 . S
H1397 C1406 0.950 . S
H1398 C1408 0.950 . S
H1399 C1410 0.950 . S
H1400 C1412 0.950 . S
H1401 C1413 0.950 . S
C1402 H1394 0.950 . S
C1402 C1403 1.386 . S
C1402 C1404 1.391 . S
C1403 C1402 1.386 . S
C1403 C1407 1.393 . S
C1404 H1396 0.950 . S
C1404 C1402 1.391 . S
C1404 C1405 1.400 . S
C1405 C1404 1.400 . S
C1405 C1406 1.398 . S
C1405 C1411 1.491 . S
C1406 H1397 0.950 . S
C1406 C1405 1.398 . S
C1406 C1407 1.391 . S
C1407 H1395 0.950 . S
C1407 C1403 1.393 . S
C1407 C1406 1.391 . S
C1408 H1398 0.950 . S
C1408 C1409 1.386 . S
C1408 C1410 1.391 . S
C1409 C1408 1.386 . S
C1409 C1413 1.393 . S
C1410 H1399 0.950 . S
C1410 C1408 1.391 . S
C1410 C1411 1.400 . S
C1411 C1405 1.491 . S
C1411 C1410 1.400 . S
C1411 C1412 1.398 . S
C1412 H1400 0.950 . S
C1412 C1411 1.398 . S
C1412 C1413 1.391 . S
C1413 H1401 0.950 . S
C1413 C1409 1.393 . S
C1413 C1412 1.391 . S
H1414 C1422 0.950 . S
H1415 C1427 0.950 . S
H1416 C1424 0.950 . S
H1417 C1426 0.950 1_545 S
H1418 C1428 0.950 . S
H1419 C1430 0.950 . S
H1420 C1432 0.950 . S
H1421 C1433 0.950 . S
C1422 H1414 0.950 . S
C1422 C1423 1.386 . S
C1422 C1424 1.391 . S
C1423 C1422 1.386 . S
C1423 C1427 1.393 . S
C1424 H1416 0.950 . S
C1424 C1422 1.391 . S
C1424 C1425 1.400 1_565 S
C1425 C1424 1.400 1_545 S
C1425 C1426 1.398 1_545 S
C1425 C1431 1.491 . S
C1426 H1417 0.950 1_565 S
C1426 C1425 1.398 1_565 S
C1426 C1427 1.391 . S
C1427 H1415 0.950 . S
C1427 C1423 1.393 . S
C1427 C1426 1.391 . S
C1428 H1418 0.950 . S
C1428 C1429 1.386 . S
C1428 C1430 1.391 . S
C1429 C1428 1.386 . S
C1429 C1433 1.393 . S
C1430 H1419 0.950 . S
C1430 C1428 1.391 . S
C1430 C1431 1.400 . S
C1431 C1425 1.491 . S
C1431 C1430 1.400 . S
C1431 C1432 1.398 . S
C1432 H1420 0.950 . S
C1432 C1431 1.398 . S
C1432 C1433 1.391 . S
C1433 H1421 0.950 . S
C1433 C1429 1.393 . S
C1433 C1432 1.391 . S
H1434 C1442 0.950 . S
H1435 C1447 0.950 . S
H1436 C1444 0.950 1_545 S
H1437 C1446 0.950 . S
H1438 C1448 0.950 . S
H1439 C1450 0.950 . S
H1440 C1452 0.950 . S
H1441 C1453 0.950 . S
C1442 H1434 0.950 . S
C1442 C1443 1.386 . S
C1442 C1444 1.391 . S
C1443 C1442 1.386 . S
C1443 C1447 1.393 . S
C1444 H1436 0.950 1_565 S
C1444 C1442 1.391 . S
C1444 C1445 1.400 1_565 S
C1445 C1444 1.400 1_545 S
C1445 C1446 1.398 1_545 S
C1445 C1451 1.491 . S
C1446 H1437 0.950 . S
C1446 C1445 1.398 1_565 S
C1446 C1447 1.391 . S
C1447 H1435 0.950 . S
C1447 C1443 1.393 . S
C1447 C1446 1.391 . S
C1448 H1438 0.950 . S
C1448 C1449 1.386 . S
C1448 C1450 1.391 . S
C1449 C1448 1.386 . S
C1449 C1453 1.393 . S
C1450 H1439 0.950 . S
C1450 C1448 1.391 . S
C1450 C1451 1.400 . S
C1451 C1445 1.491 . S
C1451 C1450 1.400 . S
C1451 C1452 1.398 . S
C1452 H1440 0.950 . S
C1452 C1451 1.398 . S
C1452 C1453 1.391 . S
C1453 H1441 0.950 . S
C1453 C1449 1.393 . S
C1453 C1452 1.391 . S
H1454 C1462 0.950 . S
H1455 C1467 0.950 . S
H1456 C1464 0.950 . S
H1457 C1466 0.950 . S
H1458 C1468 0.950 . S
H1459 C1470 0.950 . S
H1460 C1472 0.950 . S
H1461 C1473 0.950 . S
C1462 H1454 0.950 . S
C1462 C1463 1.386 . S
C1462 C1464 1.391 . S
C1463 C1462 1.386 . S
C1463 C1467 1.393 . S
C1464 H1456 0.950 . S
C1464 C1462 1.391 . S
C1464 C1465 1.400 . S
C1465 C1464 1.400 . S
C1465 C1466 1.398 . S
C1465 C1471 1.491 1_455 S
C1466 H1457 0.950 . S
C1466 C1465 1.398 . S
C1466 C1467 1.391 . S
C1467 H1455 0.950 . S
C1467 C1463 1.393 . S
C1467 C1466 1.391 . S
C1468 H1458 0.950 . S
C1468 C1469 1.386 . S
C1468 C1470 1.391 . S
C1469 C1468 1.386 . S
C1469 C1473 1.393 . S
C1470 H1459 0.950 . S
C1470 C1468 1.391 . S
C1470 C1471 1.400 . S
C1471 C1465 1.491 1_655 S
C1471 C1470 1.400 . S
C1471 C1472 1.398 . S
C1472 H1460 0.950 . S
C1472 C1471 1.398 . S
C1472 C1473 1.391 . S
C1473 H1461 0.950 . S
C1473 C1469 1.393 . S
C1473 C1472 1.391 . S
H1474 C1482 0.950 . S
H1475 C1487 0.950 . S
H1476 C1484 0.950 . S
H1477 C1486 0.950 . S
H1478 C1488 0.950 . S
H1479 C1490 0.950 . S
H1480 C1492 0.950 . S
H1481 C1493 0.950 . S
C1482 H1474 0.950 . S
C1482 C1483 1.386 . S
C1482 C1484 1.391 . S
C1483 C1482 1.386 . S
C1483 C1487 1.393 . S
C1484 H1476 0.950 . S
C1484 C1482 1.391 . S
C1484 C1485 1.400 . S
C1485 C1484 1.400 . S
C1485 C1486 1.398 . S
C1485 C1491 1.491 . S
C1486 H1477 0.950 . S
C1486 C1485 1.398 . S
C1486 C1487 1.391 . S
C1487 H1475 0.950 . S
C1487 C1483 1.393 . S
C1487 C1486 1.391 . S
C1488 H1478 0.950 . S
C1488 C1489 1.386 . S
C1488 C1490 1.391 . S
C1489 C1488 1.386 . S
C1489 C1493 1.393 . S
C1490 H1479 0.950 . S
C1490 C1488 1.391 . S
C1490 C1491 1.400 . S
C1491 C1485 1.491 . S
C1491 C1490 1.400 . S
C1491 C1492 1.398 . S
C1492 H1480 0.950 . S
C1492 C1491 1.398 . S
C1492 C1493 1.391 . S
C1493 H1481 0.950 . S
C1493 C1489 1.393 . S
C1493 C1492 1.391 . S
C423 C18 1.367 . S
C429 C111 1.352 . S
C443 C134 1.367 . S
C449 C41 1.377 . S
C463 C64 1.364 . S
C469 C88 1.356 . S
C483 C63 1.633 . S
C489 C112 1.702 . S
C503 C135 1.712 . S
C509 C17 1.651 . S
C523 C40 1.643 . S
C529 C89 1.707 . S
C543 C42 1.707 . S
C549 C86 1.714 . S
C563 C65 1.721 . S
C569 C109 1.724 . S
C583 C132 1.703 . S
C589 C19 1.707 . S
C603 C133 1.329 . S
C609 C43 1.343 . S
C623 C66 1.341 . S
C629 C87 1.329 . S
C643 C20 1.344 . S
C649 C110 1.331 . S
C663 C249 1.363 . S
C669 C156 1.370 . S
C683 C179 1.371 . S
C689 C272 1.364 . S
C703 C202 1.375 . S
C709 C226 1.367 . S
C723 C250 1.715 . S
C729 C201 1.655 . S
C743 C273 1.703 . S
C749 C155 1.634 . S
C763 C227 1.714 . S
C769 C178 1.654 . S
C783 C180 1.707 . S
C789 C224 1.703 . S
C803 C203 1.707 . S
C809 C247 1.703 . S
C823 C157 1.716 . S
C829 C270 1.712 . S
C843 C181 1.333 . S
C849 C271 1.337 . S
C863 C204 1.335 . S
C869 C225 1.333 . S
C883 C248 1.338 . S
C889 C158 1.342 . S
C903 C294 1.371 . S
C909 C387 1.356 . S
C923 C317 1.360 . S
C929 C410 1.352 . S
C943 C364 1.367 . S
C949 C340 1.375 . S
C963 C388 1.711 . S
C969 C339 1.646 . S
C983 C293 1.630 . S
C989 C411 1.701 . S
C1003 C316 1.638 . S
C1009 C365 1.706 . S
C1023 C318 1.707 . S
C1029 C362 1.714 1_554 S
C1043 C341 1.720 . S
C1049 C385 1.717 1_554 S
C1063 C295 1.715 . S
C1069 C408 1.710 1_554 S
C1083 C409 1.342 . S
C1089 C319 1.334 . S
C1103 C363 1.329 . S
C1109 C342 1.343 . S
C1123 C296 1.333 . S
C1129 C386 1.339 . S
C1143 C16 1.349 . S
C1149 C320 1.329 . S
C1163 C39 1.340 . S
C1169 C343 1.319 . S
C1183 C62 1.342 . S
C1189 C297 1.316 . S
C1203 C67 1.317 . S
C1209 C177 1.340 1_556 S
C1223 C21 1.330 . S
C1229 C200 1.349 1_556 S
C1243 C44 1.320 . S
C1249 C154 1.341 1_556 S
C1263 C246 1.410 . S
C1269 C90 1.395 . S
C1283 C113 1.405 . S
C1289 C269 1.417 . S
C1303 C136 1.407 . S
C1309 C223 1.410 . S
C1323 C389 1.400 1_554 S
C1329 C131 1.418 . S
C1343 C85 1.416 . S
C1349 C412 1.392 1_554 S
C1363 C108 1.410 . S
C1369 C366 1.406 1_554 S
C1383 C205 1.318 . S
C1389 C315 1.344 . S
C1403 C159 1.329 . S
C1409 C338 1.344 . S
C1423 C292 1.344 . S
C1429 C182 1.319 . S
C1443 C384 1.416 . S
C1449 C228 1.392 . S
C1463 C407 1.409 . S
C1469 C251 1.405 . S
C1483 C274 1.405 . S
C1489 C361 1.410 . S
