# Generated by pormake.
# Topology afw, (4)-cn, num edge types: 1
# Building blocks:
#     Node 0, Type 0, BuildingBlock: QUQFOY_clean_sbu_1, # of connection points: 4
#     Node 1, Type 0, BuildingBlock: QUQFOY_clean_sbu_1, # of connection points: 4
#     Node 2, Type 0, BuildingBlock: QUQFOY_clean_sbu_1, # of connection points: 4
#     Node 3, Type 0, BuildingBlock: QUQFOY_clean_sbu_1, # of connection points: 4
#     Node 4, Type 0, BuildingBlock: QUQFOY_clean_sbu_1, # of connection points: 4
#     Node 5, Type 0, BuildingBlock: QUQFOY_clean_sbu_1, # of connection points: 4
#     Node 6, Type 0, BuildingBlock: QUQFOY_clean_sbu_1, # of connection points: 4
#     Node 7, Type 0, BuildingBlock: QUQFOY_clean_sbu_1, # of connection points: 4
#     Node 8, Type 0, BuildingBlock: QUQFOY_clean_sbu_1, # of connection points: 4
#     Edge 9, Type (0, 0), BuildingBlock: XIVTED_clean_linker_0, # of connection points: 2
#     Edge 10, Type (0, 0), BuildingBlock: XIVTED_clean_linker_0, # of connection points: 2
#     Edge 11, Type (0, 0), BuildingBlock: XIVTED_clean_linker_0, # of connection points: 2
#     Edge 12, Type (0, 0), BuildingBlock: XIVTED_clean_linker_0, # of connection points: 2
#     Edge 13, Type (0, 0), BuildingBlock: XIVTED_clean_linker_0, # of connection points: 2
#     Edge 14, Type (0, 0), BuildingBlock: XIVTED_clean_linker_0, # of connection points: 2
#     Edge 15, Type (0, 0), BuildingBlock: XIVTED_clean_linker_0, # of connection points: 2
#     Edge 16, Type (0, 0), BuildingBlock: XIVTED_clean_linker_0, # of connection points: 2
#     Edge 17, Type (0, 0), BuildingBlock: XIVTED_clean_linker_0, # of connection points: 2
#     Edge 18, Type (0, 0), BuildingBlock: XIVTED_clean_linker_0, # of connection points: 2
#     Edge 19, Type (0, 0), BuildingBlock: XIVTED_clean_linker_0, # of connection points: 2
#     Edge 20, Type (0, 0), BuildingBlock: XIVTED_clean_linker_0, # of connection points: 2
#     Edge 21, Type (0, 0), BuildingBlock: XIVTED_clean_linker_0, # of connection points: 2
#     Edge 22, Type (0, 0), BuildingBlock: XIVTED_clean_linker_0, # of connection points: 2
#     Edge 23, Type (0, 0), BuildingBlock: XIVTED_clean_linker_0, # of connection points: 2
#     Edge 24, Type (0, 0), BuildingBlock: XIVTED_clean_linker_0, # of connection points: 2
#     Edge 25, Type (0, 0), BuildingBlock: XIVTED_clean_linker_0, # of connection points: 2
#     Edge 26, Type (0, 0), BuildingBlock: XIVTED_clean_linker_0, # of connection points: 2
# Relax obj value: 0.125
# Max RMSD: 0.152
# Mean RMSD: 0.152
data_MOF--net-afw--node1-QUQFOY_clean_sbu_1--edge1-XIVTED_clean_linker_0
_symmetry_space_group_name_H-M    P1
_symmetry_Int_Tables_number       1
_symmetry_cell_setting            triclinic
loop_
_symmetry_equiv_pos_as_xyz
'x, y, z'
_cell_length_a     43.364465
_cell_length_b     43.326599
_cell_length_c     37.231996
_cell_angle_alpha  89.964083
_cell_angle_beta   90.019819
_cell_angle_gamma 120.05688
loop_
_atom_site_label
_atom_site_type_symbol
_atom_site_fract_x
_atom_site_fract_y
_atom_site_fract_z
_atom_type_partial_charge
O0 O 0.05469 0.20329 0.99921 0.0
Cd1 Cd 0.00917 0.20664 0.99296 0.0
Cd2 Cd 0.0113 0.20789 0.06555 0.0
O3 O 0.05929 0.20964 0.05804 0.0
O4 O 0.00931 0.21912 0.94147 0.0
O5 O 0.0137 0.25483 0.98606 0.0
C6 C 0.01312 0.24918 0.95192 0.0
C7 C 0.00719 0.24678 0.10597 0.0
C8 C 0.07122 0.20576 0.02823 0.0
C9 C 0.94938 0.14449 0.03064 0.0
O10 O 0.96591 0.15876 0.0596 0.0
O11 O 0.96125 0.16023 1.00075 0.0
O12 O 0.01111 0.2207 0.11684 0.0
O13 O 0.00657 0.25148 0.07175 0.0
O14 O 0.86609 0.82576 0.05677 0.0
Cd15 Cd 0.81716 0.82181 0.06477 0.0
Cd16 Cd 0.81645 0.82156 0.99204 0.0
O17 O 0.8633 0.82059 0.9978 0.0
O18 O 0.80597 0.80863 0.1163 0.0
O19 O 0.77375 0.77341 0.07179 0.0
C20 C 0.77951 0.77866 0.1059 0.0
C21 C 0.77308 0.78286 0.95171 0.0
C22 C 0.87975 0.82413 0.02714 0.0
C23 C 0.81818 0.88418 0.02909 0.0
O24 O 0.81961 0.87025 0.99956 0.0
O25 O 0.81532 0.8682 0.05861 0.0
O26 O 0.80262 0.80955 0.94076 0.0
O27 O 0.76841 0.77749 0.98593 0.0
O28 O 0.1542 0.97127 0.99817 0.0
Cd29 Cd 0.20351 0.01628 0.9917 0.0
Cd30 Cd 0.20303 0.01477 0.06398 0.0
O31 O 0.15641 0.96686 0.05698 0.0
O32 O 0.21637 0.01528 0.94058 0.0
O33 O 0.24675 0.01095 0.98616 0.0
C34 C 0.24219 0.01116 0.95187 0.0
C35 C 0.24622 0.01889 0.10415 0.0
C36 C 0.14022 0.95494 0.02732 0.0
C37 C 0.20206 0.07674 0.02847 0.0
O38 O 0.19976 0.06037 0.05758 0.0
O39 O 0.20571 0.06457 0.9987 0.0
O40 O 0.21649 0.01542 0.11521 0.0
O41 O 0.25115 0.01907 0.0699 0.0
O42 O 0.63071 0.49135 0.39244 0.0
Cd43 Cd 0.67614 0.54026 0.39945 0.0
Cd44 Cd 0.67575 0.53953 0.32678 0.0
O45 O 0.62749 0.49324 0.33346 0.0
O46 O 0.67489 0.5523 0.45081 0.0
O47 O 0.67167 0.584 0.40589 0.0
C48 C 0.67148 0.57871 0.44007 0.0
C49 C 0.6811 0.58267 0.28574 0.0
C50 C 0.61487 0.47732 0.36312 0.0
C51 C 0.73653 0.53762 0.36375 0.0
O52 O 0.72076 0.53552 0.3343 0.0
O53 O 0.72408 0.54157 0.39319 0.0
O54 O 0.67728 0.55261 0.27528 0.0
O55 O 0.68093 0.588 0.31988 0.0
O56 O 0.53213 0.15779 0.39088 0.0
Cd57 Cd 0.48339 0.15454 0.39798 0.0
Cd58 Cd 0.48346 0.15383 0.32536 0.0
O59 O 0.52992 0.15228 0.33194 0.0
O60 O 0.47145 0.1416 0.44945 0.0
O61 O 0.43963 0.10639 0.40474 0.0
C62 C 0.44498 0.1117 0.4389 0.0
C63 C 0.44003 0.11501 0.2852 0.0
C64 C 0.54597 0.15576 0.36154 0.0
C65 C 0.48537 0.21697 0.36131 0.0
O66 O 0.48709 0.20282 0.33205 0.0
O67 O 0.48203 0.20111 0.39102 0.0
O68 O 0.46982 0.1413 0.27414 0.0
O69 O 0.43517 0.11008 0.31944 0.0
O70 O 0.86376 0.39043 0.39121 0.0
Cd71 Cd 0.86789 0.34529 0.39725 0.0
Cd72 Cd 0.86903 0.34735 0.32493 0.0
O73 O 0.87043 0.39522 0.33242 0.0
O74 O 0.88156 0.34578 0.44836 0.0
O75 O 0.91637 0.35036 0.4028 0.0
C76 C 0.91148 0.34984 0.43709 0.0
C77 C 0.90805 0.3436 0.28443 0.0
C78 C 0.86618 0.40696 0.36219 0.0
C79 C 0.80595 0.28515 0.36001 0.0
O80 O 0.82008 0.30173 0.33101 0.0
O81 O 0.82174 0.2971 0.38985 0.0
O82 O 0.88181 0.34722 0.27361 0.0
O83 O 0.91281 0.34303 0.31864 0.0
O84 O 0.38591 0.86854 0.66623 0.0
Cd85 Cd 0.34075 0.87238 0.659 0.0
Cd86 Cd 0.34084 0.87191 0.73157 0.0
O87 O 0.38868 0.87308 0.72526 0.0
O88 O 0.34228 0.88568 0.60758 0.0
O89 O 0.34569 0.92079 0.65236 0.0
C90 C 0.3459 0.91562 0.6182 0.0
C91 C 0.33641 0.91079 0.77174 0.0
C92 C 0.40143 0.86992 0.69566 0.0
C93 C 0.27971 0.80955 0.69459 0.0
O94 O 0.29535 0.82315 0.72411 0.0
O95 O 0.29254 0.82591 0.66518 0.0
O96 O 0.33936 0.88419 0.7828 0.0
O97 O 0.33683 0.91593 0.7375 0.0
O98 O 0.19776 0.4906 0.72337 0.0
Cd99 Cd 0.14874 0.48679 0.73032 0.0
Cd100 Cd 0.14923 0.48647 0.65777 0.0
O101 O 0.19559 0.48479 0.66447 0.0
O102 O 0.13688 0.47392 0.7818 0.0
O103 O 0.10522 0.43845 0.7372 0.0
C104 C 0.11053 0.44391 0.77134 0.0
C105 C 0.10582 0.44764 0.6176 0.0
C106 C 0.21167 0.4885 0.69409 0.0
C107 C 0.15066 0.54928 0.69392 0.0
O108 O 0.15292 0.53549 0.66463 0.0
O109 O 0.14689 0.5331 0.7235 0.0
O110 O 0.13558 0.47397 0.60654 0.0
O111 O 0.10096 0.44272 0.65185 0.0
O112 O 0.48536 0.63465 0.66645 0.0
Cd113 Cd 0.53422 0.68018 0.65963 0.0
Cd114 Cd 0.53419 0.67863 0.73201 0.0
O115 O 0.48797 0.63031 0.72523 0.0
O116 O 0.54646 0.67958 0.6082 0.0
O117 O 0.57791 0.67577 0.65303 0.0
C118 C 0.5728 0.67601 0.61885 0.0
C119 C 0.57813 0.68368 0.77166 0.0
C120 C 0.4717 0.61822 0.69564 0.0
C121 C 0.53185 0.74001 0.69688 0.0
O122 O 0.52992 0.72369 0.72592 0.0
O123 O 0.53564 0.72807 0.66703 0.0
O124 O 0.54823 0.67954 0.78306 0.0
O125 O 0.5828 0.68395 0.73735 0.0
H126 H 0.19443 0.1108 0.08692 0.0
H127 H 0.1049 0.19782 0.96963 0.0
H128 H 0.19474 0.11216 0.97095 0.0
H129 H 0.1072 0.19909 0.08558 0.0
H130 H 0.14744 0.17658 0.96954 0.0
H131 H 0.1726 0.1529 0.08689 0.0
C132 C 0.19049 0.12039 0.06142 0.0
C133 C 0.19578 0.10735 0.02887 0.0
C134 C 0.13908 0.18202 0.99501 0.0
C135 C 0.17035 0.15531 0.02867 0.0
C136 C 0.11477 0.1942 0.99509 0.0
C137 C 0.10188 0.19961 0.02769 0.0
C138 C 0.15039 0.17487 0.02775 0.0
C139 C 0.116 0.19485 0.0598 0.0
C140 C 0.17796 0.14444 0.06143 0.0
C141 C 0.1906 0.1211 0.99671 0.0
N142 N 0.13903 0.1822 0.05902 0.0
N143 N 0.17761 0.14386 0.99742 0.0
H144 H 0.82425 0.9262 0.97138 0.0
H145 H 0.91659 0.10252 0.08938 0.0
H146 H 0.82732 0.92674 0.08731 0.0
H147 H 0.91264 0.10193 0.97348 0.0
H148 H 0.87405 0.03862 0.08951 0.0
H149 H 0.84626 0.99022 0.97206 0.0
C150 C 0.82897 0.93964 0.99703 0.0
C151 C 0.82456 0.92112 0.02933 0.0
C152 C 0.88206 0.05254 0.06405 0.0
C153 C 0.85021 0.99462 0.03025 0.0
C154 C 0.90636 0.0891 0.06395 0.0
C155 C 0.91877 0.10756 0.03133 0.0
C156 C 0.87026 0.0342 0.03131 0.0
C157 C 0.90421 0.08877 0.99927 0.0
C158 C 0.84161 0.97626 0.99738 0.0
C159 C 0.83074 0.93994 0.06172 0.0
N160 N 0.88117 0.05303 1.00005 0.0
N161 N 0.8438 0.97574 0.06133 0.0
H162 H 0.92094 0.83079 0.96846 0.0
H163 H 0.09901 0.91738 0.08495 0.0
H164 H 0.92335 0.83351 0.0844 0.0
H165 H 0.09665 0.92347 0.96929 0.0
H166 H 0.03501 0.87521 0.08469 0.0
H167 H 0.98498 0.85297 0.96802 0.0
C168 C 0.93477 0.83543 0.99386 0.0
C169 C 0.91679 0.83089 0.02652 0.0
C170 C 0.04859 0.88538 0.05932 0.0
C171 C 0.99024 0.85661 0.02616 0.0
C172 C 0.0852 0.90942 0.05943 0.0
C173 C 0.10318 0.92455 0.02713 0.0
C174 C 0.02977 0.87647 0.02671 0.0
C175 C 0.08385 0.91293 0.9949 0.0
C176 C 0.9714 0.84821 0.99357 0.0
C177 C 0.93614 0.83711 0.05856 0.0
N178 N 0.04813 0.88998 0.99555 0.0
N179 N 0.97188 0.85011 0.05756 0.0
H180 H 0.86267 0.4449 0.30484 0.0
H181 H 0.77166 0.53133 0.42214 0.0
H182 H 0.85406 0.4381 0.42047 0.0
H183 H 0.77024 0.528 0.30621 0.0
H184 H 0.81355 0.50922 0.42225 0.0
H185 H 0.84087 0.48706 0.30542 0.0
C186 C 0.85679 0.4527 0.33042 0.0
C187 C 0.85958 0.43737 0.36262 0.0
C188 C 0.80448 0.51383 0.39677 0.0
C189 C 0.83431 0.48546 0.3634 0.0
C190 C 0.78061 0.52658 0.39667 0.0
C191 C 0.76685 0.53092 0.36412 0.0
C192 C 0.81463 0.50529 0.3641 0.0
C193 C 0.7797 0.52456 0.33198 0.0
C194 C 0.84424 0.47674 0.33071 0.0
C195 C 0.85185 0.4488 0.39494 0.0
N196 N 0.80247 0.51161 0.3328 0.0
N197 N 0.8391 0.47176 0.39446 0.0
H198 H 0.49308 0.25898 0.30304 0.0
H199 H 0.5802 0.43526 0.42124 0.0
H200 H 0.49276 0.25951 0.41901 0.0
H201 H 0.58015 0.43476 0.30526 0.0
H202 H 0.53812 0.37125 0.42085 0.0
H203 H 0.51457 0.32289 0.30331 0.0
C204 C 0.49696 0.27239 0.32859 0.0
C205 C 0.49173 0.2539 0.36107 0.0
C206 C 0.54688 0.38521 0.39547 0.0
C207 C 0.51674 0.32729 0.36154 0.0
C208 C 0.57091 0.42184 0.39566 0.0
C209 C 0.58431 0.44036 0.36322 0.0
C210 C 0.53636 0.36686 0.36262 0.0
C211 C 0.57094 0.42155 0.33094 0.0
C212 C 0.50929 0.30895 0.32872 0.0
C213 C 0.49685 0.27269 0.39331 0.0
N214 N 0.54816 0.38575 0.33147 0.0
N215 N 0.5096 0.30844 0.39272 0.0
H216 H 0.5879 0.16252 0.41951 0.0
H217 H 0.76398 0.25202 0.30141 0.0
H218 H 0.58836 0.16372 0.30354 0.0
H219 H 0.76343 0.24877 0.41733 0.0
H220 H 0.70003 0.20985 0.30144 0.0
H221 H 0.65172 0.18387 0.41899 0.0
C222 C 0.60127 0.16671 0.3939 0.0
C223 C 0.58281 0.16196 0.36152 0.0
C224 C 0.71397 0.21791 0.32687 0.0
C225 C 0.65609 0.18683 0.36075 0.0
C226 C 0.75056 0.242 0.32688 0.0
C227 C 0.76904 0.25454 0.35945 0.0
C228 C 0.69563 0.20648 0.35966 0.0
C229 C 0.75025 0.24025 0.39157 0.0
C230 C 0.63779 0.17895 0.39363 0.0
C231 C 0.60154 0.16743 0.32919 0.0
N232 N 0.71449 0.21745 0.39088 0.0
N233 N 0.63725 0.18013 0.32964 0.0
H234 H 0.43652 0.8631 0.63769 0.0
H235 H 0.52274 0.77286 0.75552 0.0
H236 H 0.43532 0.8611 0.75365 0.0
H237 H 0.52504 0.77601 0.63959 0.0
H238 H 0.50073 0.81482 0.75559 0.0
H239 H 0.47859 0.84126 0.63815 0.0
C240 C 0.44552 0.85862 0.66329 0.0
C241 C 0.43181 0.86333 0.69568 0.0
C242 C 0.50655 0.80677 0.73013 0.0
C243 C 0.47976 0.83791 0.69636 0.0
C244 C 0.51919 0.7828 0.73007 0.0
C245 C 0.52514 0.77034 0.69747 0.0
C246 C 0.49955 0.81817 0.69738 0.0
C247 C 0.52041 0.7845 0.66537 0.0
C248 C 0.46955 0.8461 0.66352 0.0
C249 C 0.4448 0.85746 0.728 0.0
N250 N 0.50736 0.80721 0.66613 0.0
N251 N 0.4676 0.84452 0.7275 0.0
H252 H 0.24408 0.76868 0.63607 0.0
H253 H 0.15427 0.59004 0.75189 0.0
H254 H 0.24597 0.76576 0.75195 0.0
H255 H 0.16186 0.59298 0.63617 0.0
H256 H 0.17562 0.65396 0.75202 0.0
H257 H 0.20205 0.7046 0.63558 0.0
C258 C 0.2352 0.75474 0.66146 0.0
C259 C 0.24917 0.77257 0.69409 0.0
C260 C 0.17211 0.64052 0.72656 0.0
C261 C 0.20124 0.69908 0.69365 0.0
C262 C 0.15982 0.60395 0.72645 0.0
C263 C 0.15691 0.58617 0.694 0.0
C264 C 0.18167 0.65951 0.69403 0.0
C265 C 0.16419 0.60563 0.66187 0.0
C266 C 0.21124 0.71808 0.66113 0.0
C267 C 0.23637 0.75308 0.72612 0.0
N268 N 0.17672 0.64132 0.66274 0.0
N269 N 0.21355 0.71731 0.72507 0.0
H270 H 0.25292 0.49308 0.6362 0.0
H271 H 0.43043 0.58134 0.75351 0.0
H272 H 0.25488 0.49894 0.75203 0.0
H273 H 0.42846 0.58556 0.6377 0.0
H274 H 0.36644 0.53912 0.75328 0.0
H275 H 0.31682 0.5146 0.63644 0.0
C276 C 0.26661 0.49828 0.66174 0.0
C277 C 0.24856 0.49484 0.69412 0.0
C278 C 0.38011 0.54887 0.72789 0.0
C279 C 0.32186 0.51979 0.69452 0.0
C280 C 0.41672 0.57293 0.72798 0.0
C281 C 0.43479 0.5876 0.6956 0.0
C282 C 0.3614 0.53946 0.69521 0.0
C283 C 0.41558 0.57541 0.66336 0.0
C284 C 0.30317 0.51068 0.66183 0.0
C285 C 0.26774 0.5017 0.72637 0.0
N286 N 0.37986 0.55246 0.66402 0.0
N287 N 0.30342 0.51433 0.72571 0.0
H288 H 0.00465 0.24196 0.87915 0.0
H289 H 0.10939 0.45101 0.84411 0.0
H290 H 0.03577 0.31984 0.96395 0.0
H291 H 0.06254 0.37321 0.75923 0.0
H292 H 0.07903 0.40356 0.8883 0.0
H293 H 0.02181 0.28939 0.8349 0.0
C294 C 0.01474 0.26902 0.88849 0.0
C295 C 0.01911 0.27701 0.92532 0.0
C296 C 0.07502 0.39686 0.86003 0.0
C297 C 0.03917 0.33156 0.8747 0.0
C298 C 0.0924 0.42396 0.83474 0.0
C299 C 0.08877 0.416 0.79791 0.0
C300 C 0.05415 0.36142 0.84847 0.0
C301 C 0.06621 0.38052 0.78735 0.0
C302 C 0.0245 0.2961 0.86317 0.0
C303 C 0.03208 0.3125 0.93583 0.0
N304 N 0.05011 0.35446 0.81253 0.0
N305 N 0.04208 0.33854 0.91063 0.0
H306 H 0.70346 0.73256 0.96539 0.0
H307 H 0.64851 0.707 0.7574 0.0
H308 H 0.77818 0.78308 0.87858 0.0
H309 H 0.57316 0.67604 0.84461 0.0
H310 H 0.69658 0.72496 0.80131 0.0
H311 H 0.65579 0.70171 0.9212 0.0
C312 C 0.70993 0.73681 0.93706 0.0
C313 C 0.74477 0.76072 0.92566 0.0
C314 C 0.66946 0.71389 0.81079 0.0
C315 C 0.69042 0.72562 0.87502 0.0
C316 C 0.64201 0.7035 0.78574 0.0
C317 C 0.60684 0.69036 0.79737 0.0
C318 C 0.66164 0.71092 0.8477 0.0
C319 C 0.59995 0.6864 0.83444 0.0
C320 C 0.6827 0.7193 0.91186 0.0
C321 C 0.75163 0.76516 0.88859 0.0
N322 N 0.62711 0.69685 0.85827 0.0
N323 N 0.72468 0.74798 0.86462 0.0
H324 H 0.31699 0.96096 0.75793 0.0
H325 H 0.28945 0.98808 0.96596 0.0
H326 H 0.34198 0.91117 0.84485 0.0
H327 H 0.24431 0.01837 0.87888 0.0
H328 H 0.31924 0.96988 0.92195 0.0
H329 H 0.30061 0.99217 0.80206 0.0
C330 C 0.31947 0.95694 0.78627 0.0
C331 C 0.33049 0.93313 0.79772 0.0
C332 C 0.30309 0.98085 0.91252 0.0
C333 C 0.31176 0.96865 0.8483 0.0
C334 C 0.2862 0.99137 0.93762 0.0
C335 C 0.26405 0.00438 0.92606 0.0
C336 C 0.29792 0.98356 0.87563 0.0
C337 C 0.26084 0.00811 0.88899 0.0
C338 C 0.31001 0.97467 0.81144 0.0
C339 C 0.33327 0.929 0.8348 0.0
N340 N 0.27737 -0.00247 0.86511 0.0
N341 N 0.32374 0.94638 0.85874 0.0
H342 H 0.36992 0.06626 0.29882 0.0
H343 H 0.31621 0.03993 0.09052 0.0
H344 H 0.44551 0.11387 0.21219 0.0
H345 H 0.24066 0.01198 0.17715 0.0
H346 H 0.36377 0.0568 0.13482 0.0
H347 H 0.32226 0.03592 0.25451 0.0
C348 C 0.37657 0.06995 0.27052 0.0
C349 C 0.41167 0.09294 0.25918 0.0
C350 C 0.33671 0.04663 0.14409 0.0
C351 C 0.35735 0.05843 0.20841 0.0
C352 C 0.30954 0.03687 0.11882 0.0
C353 C 0.27449 0.02491 0.13016 0.0
C354 C 0.32871 0.04423 0.18093 0.0
C355 C 0.26738 0.02144 0.1672 0.0
C356 C 0.34935 0.05273 0.24524 0.0
C357 C 0.41877 0.09669 0.22214 0.0
N358 N 0.29427 0.03128 0.19124 0.0
N359 N 0.39183 0.07983 0.1981 0.0
H360 H 0.01585 0.24892 0.17875 0.0
H361 H 0.90989 0.35205 0.21162 0.0
H362 H 0.98411 0.29428 0.0931 0.0
H363 H 0.95631 0.32151 0.29725 0.0
H364 H 0.94081 0.3353 0.1679 0.0
H365 H -0.00157 0.27932 0.22246 0.0
C366 C 0.00557 0.26561 0.16911 0.0
C367 C 0.00108 0.26878 0.13221 0.0
C368 C 0.94461 0.33264 0.19624 0.0
C369 C 0.98072 0.30342 0.18221 0.0
C370 C 0.92692 0.34217 0.22126 0.0
C371 C 0.93024 0.33783 0.25816 0.0
C372 C 0.9655 0.31824 0.20814 0.0
C373 C 0.95286 0.32515 0.26906 0.0
C374 C -0.00434 0.28301 0.19411 0.0
C375 C 0.98788 0.29097 0.12129 0.0
N376 N 0.96928 0.31537 0.24414 0.0
N377 N 0.97773 0.30708 0.1462 0.0
H378 H 0.67372 0.57603 0.21285 0.0
H379 H 0.77937 0.78528 0.17883 0.0
H380 H 0.70427 0.65341 0.29808 0.0
H381 H 0.73129 0.70806 0.09362 0.0
H382 H 0.74927 0.73759 0.22285 0.0
H383 H 0.69158 0.62379 0.16885 0.0
C384 C 0.68385 0.60306 0.22233 0.0
C385 C 0.6878 0.61079 0.25922 0.0
C386 C 0.74494 0.73108 0.19455 0.0
C387 C 0.70866 0.66572 0.20888 0.0
C388 C 0.76218 0.75831 0.16936 0.0
C389 C 0.75808 0.75059 0.13247 0.0
C390 C 0.72376 0.69573 0.18283 0.0
C391 C 0.7353 0.71519 0.12179 0.0
C392 C 0.69401 0.63033 0.19716 0.0
C393 C 0.70088 0.64625 0.26992 0.0
N394 N 0.71933 0.689 0.14686 0.0
N395 N 0.71125 0.67247 0.24486 0.0
H396 H 0.03593 0.39819 0.63128 0.0
H397 H 0.98169 0.37216 0.42313 0.0
H398 H 0.11116 0.44694 0.54454 0.0
H399 H 0.90617 0.34232 0.51005 0.0
H400 H 0.02951 0.38955 0.46723 0.0
H401 H 0.98829 0.36748 0.58705 0.0
C402 C 0.04251 0.40207 0.60297 0.0
C403 C 0.07749 0.42547 0.59158 0.0
C404 C 0.0024 0.37885 0.47661 0.0
C405 C 0.02318 0.39054 0.54089 0.0
C406 C 0.97509 0.3688 0.45145 0.0
C407 C 0.93996 0.35616 0.46294 0.0
C408 C 0.99447 0.37606 0.51348 0.0
C409 C 0.93294 0.35231 0.49998 0.0
C410 C 0.0153 0.38464 0.57773 0.0
C411 C 0.0845 0.42943 0.55453 0.0
N412 N 0.95997 0.36245 0.52392 0.0
N413 N 0.05756 0.41236 0.53053 0.0
H414 H 0.67934 0.58013 0.51292 0.0
H415 H 0.57394 0.68376 0.54596 0.0
H416 H 0.64872 0.62649 0.42728 0.0
H417 H 0.62109 0.65394 0.63148 0.0
H418 H 0.60451 0.66664 0.50214 0.0
H419 H 0.66181 0.61041 0.55665 0.0
C420 C 0.66926 0.59701 0.50329 0.0
C421 C 0.66516 0.60052 0.46637 0.0
C422 C 0.60854 0.66422 0.53048 0.0
C423 C 0.64467 0.63503 0.51641 0.0
C424 C 0.59105 0.67396 0.55555 0.0
C425 C 0.5947 0.66995 0.59246 0.0
C426 C 0.62954 0.64994 0.54234 0.0
C427 C 0.6174 0.65734 0.6033 0.0
C428 C 0.6593 0.61434 0.52831 0.0
C429 C 0.65221 0.62293 0.45547 0.0
N430 N 0.63361 0.64736 0.57834 0.0
N431 N 0.64199 0.63898 0.4804 0.0
H432 H 0.3382 0.9091 0.54535 0.0
H433 H 0.44419 0.11836 0.51179 0.0
H434 H 0.36899 0.9863 0.63078 0.0
H435 H 0.39649 0.04123 0.42644 0.0
H436 H 0.41366 0.07065 0.55572 0.0
H437 H 0.35593 0.95694 0.50148 0.0
C438 C 0.34836 0.9361 0.55491 0.0
C439 C 0.35243 0.94378 0.5918 0.0
C440 C 0.4095 0.06417 0.5274 0.0
C441 C 0.37316 -0.00121 0.54162 0.0
C442 C 0.42698 0.09141 0.50226 0.0
C443 C 0.42314 0.08371 0.46537 0.0
C444 C 0.38834 0.02884 0.51562 0.0
C445 C 0.40032 0.04835 0.45461 0.0
C446 C 0.35844 0.96342 0.52981 0.0
C447 C 0.36551 0.97921 0.6026 0.0
N448 N 0.38412 0.02215 0.47964 0.0
N449 N 0.37583 0.00548 0.57761 0.0
loop_
_geom_bond_atom_site_label_1
_geom_bond_atom_site_label_2
_geom_bond_distance
_geom_bond_site_symmetry_2
_ccdc_geom_bond_type
O0 Cd1 2.223 . S
O0 C8 1.315 . S
Cd1 O0 2.223 . S
Cd1 O4 2.297 . S
Cd1 O5 2.439 . S
Cd1 O11 2.240 1_456 S
Cd2 O3 2.240 . S
Cd2 O10 2.223 1_455 S
Cd2 O12 2.297 1_455 S
Cd2 O13 2.439 1_455 S
O3 Cd2 2.240 . S
O3 C8 1.279 1_554 S
O4 Cd1 2.297 . S
O4 C6 1.247 . S
O5 Cd1 2.439 . S
O5 C6 1.208 . S
C6 O4 1.247 . S
C6 O5 1.208 . S
C7 O12 1.247 . S
C7 O13 1.208 . S
C8 O0 1.315 . S
C8 O3 1.279 1_556 S
C9 O10 1.315 . S
C9 O11 1.279 . S
O10 Cd2 2.223 1_655 S
O10 C9 1.315 . S
O11 Cd1 2.240 1_654 S
O11 C9 1.279 . S
O12 Cd2 2.297 1_655 S
O12 C7 1.247 . S
O13 Cd2 2.439 1_655 S
O13 C7 1.208 . S
O14 Cd15 2.223 . S
O14 C22 1.315 . S
Cd15 O14 2.223 . S
Cd15 O18 2.297 . S
Cd15 O19 2.439 . S
Cd15 O25 2.240 . S
Cd16 O17 2.240 1_556 S
Cd16 O24 2.223 . S
Cd16 O26 2.297 . S
Cd16 O27 2.439 . S
O17 Cd16 2.240 1_554 S
O17 C22 1.279 . S
O18 Cd15 2.297 . S
O18 C20 1.247 . S
O19 Cd15 2.439 . S
O19 C20 1.208 . S
C20 O18 1.247 . S
C20 O19 1.208 . S
C21 O26 1.247 . S
C21 O27 1.208 . S
C22 O14 1.315 . S
C22 O17 1.279 . S
C23 O24 1.315 . S
C23 O25 1.279 1_556 S
O24 Cd16 2.223 . S
O24 C23 1.315 . S
O25 Cd15 2.240 . S
O25 C23 1.279 1_554 S
O26 Cd16 2.297 . S
O26 C21 1.247 . S
O27 Cd16 2.439 . S
O27 C21 1.208 . S
O28 Cd29 2.223 1_565 S
O28 C36 1.315 . S
Cd29 O28 2.223 1_545 S
Cd29 O32 2.297 1_545 S
Cd29 O33 2.439 1_545 S
Cd29 O39 2.240 1_556 S
Cd30 O31 2.240 1_545 S
Cd30 O38 2.223 . S
Cd30 O40 2.297 . S
Cd30 O41 2.439 . S
O31 Cd30 2.240 1_565 S
O31 C36 1.279 1_554 S
O32 Cd29 2.297 1_565 S
O32 C34 1.247 . S
O33 Cd29 2.439 1_565 S
O33 C34 1.208 . S
C34 O32 1.247 . S
C34 O33 1.208 . S
C35 O40 1.247 . S
C35 O41 1.208 . S
C36 O28 1.315 . S
C36 O31 1.279 1_556 S
C37 O38 1.315 . S
C37 O39 1.279 . S
O38 Cd30 2.223 . S
O38 C37 1.315 . S
O39 Cd29 2.240 1_554 S
O39 C37 1.279 . S
O40 Cd30 2.297 . S
O40 C35 1.247 . S
O41 Cd30 2.439 . S
O41 C35 1.208 . S
O42 Cd43 2.223 . S
O42 C50 1.315 . S
Cd43 O42 2.223 . S
Cd43 O46 2.297 . S
Cd43 O47 2.439 . S
Cd43 O53 2.240 . S
Cd44 O45 2.240 . S
Cd44 O52 2.223 . S
Cd44 O54 2.297 . S
Cd44 O55 2.439 . S
O45 Cd44 2.240 . S
O45 C50 1.279 . S
O46 Cd43 2.297 . S
O46 C48 1.247 . S
O47 Cd43 2.439 . S
O47 C48 1.208 . S
C48 O46 1.247 . S
C48 O47 1.208 . S
C49 O54 1.247 . S
C49 O55 1.208 . S
C50 O42 1.315 . S
C50 O45 1.279 . S
C51 O52 1.315 . S
C51 O53 1.279 . S
O52 Cd44 2.223 . S
O52 C51 1.315 . S
O53 Cd43 2.240 . S
O53 C51 1.279 . S
O54 Cd44 2.297 . S
O54 C49 1.247 . S
O55 Cd44 2.439 . S
O55 C49 1.208 . S
O56 Cd57 2.223 . S
O56 C64 1.315 . S
Cd57 O56 2.223 . S
Cd57 O60 2.297 . S
Cd57 O61 2.439 . S
Cd57 O67 2.240 . S
Cd58 O59 2.240 . S
Cd58 O66 2.223 . S
Cd58 O68 2.297 . S
Cd58 O69 2.439 . S
O59 Cd58 2.240 . S
O59 C64 1.279 . S
O60 Cd57 2.297 . S
O60 C62 1.247 . S
O61 Cd57 2.439 . S
O61 C62 1.208 . S
C62 O60 1.247 . S
C62 O61 1.208 . S
C63 O68 1.247 . S
C63 O69 1.208 . S
C64 O56 1.315 . S
C64 O59 1.279 . S
C65 O66 1.315 . S
C65 O67 1.279 . S
O66 Cd58 2.223 . S
O66 C65 1.315 . S
O67 Cd57 2.240 . S
O67 C65 1.279 . S
O68 Cd58 2.297 . S
O68 C63 1.247 . S
O69 Cd58 2.439 . S
O69 C63 1.208 . S
O70 Cd71 2.223 . S
O70 C78 1.315 . S
Cd71 O70 2.223 . S
Cd71 O74 2.297 . S
Cd71 O75 2.439 . S
Cd71 O81 2.240 . S
Cd72 O73 2.240 . S
Cd72 O80 2.223 . S
Cd72 O82 2.297 . S
Cd72 O83 2.439 . S
O73 Cd72 2.240 . S
O73 C78 1.279 . S
O74 Cd71 2.297 . S
O74 C76 1.247 . S
O75 Cd71 2.439 . S
O75 C76 1.208 . S
C76 O74 1.247 . S
C76 O75 1.208 . S
C77 O82 1.247 . S
C77 O83 1.208 . S
C78 O70 1.315 . S
C78 O73 1.279 . S
C79 O80 1.315 . S
C79 O81 1.279 . S
O80 Cd72 2.223 . S
O80 C79 1.315 . S
O81 Cd71 2.240 . S
O81 C79 1.279 . S
O82 Cd72 2.297 . S
O82 C77 1.247 . S
O83 Cd72 2.439 . S
O83 C77 1.208 . S
O84 Cd85 2.223 . S
O84 C92 1.315 . S
Cd85 O84 2.223 . S
Cd85 O88 2.297 . S
Cd85 O89 2.439 . S
Cd85 O95 2.240 . S
Cd86 O87 2.240 . S
Cd86 O94 2.223 . S
Cd86 O96 2.297 . S
Cd86 O97 2.439 . S
O87 Cd86 2.240 . S
O87 C92 1.279 . S
O88 Cd85 2.297 . S
O88 C90 1.247 . S
O89 Cd85 2.439 . S
O89 C90 1.208 . S
C90 O88 1.247 . S
C90 O89 1.208 . S
C91 O96 1.247 . S
C91 O97 1.208 . S
C92 O84 1.315 . S
C92 O87 1.279 . S
C93 O94 1.315 . S
C93 O95 1.279 . S
O94 Cd86 2.223 . S
O94 C93 1.315 . S
O95 Cd85 2.240 . S
O95 C93 1.279 . S
O96 Cd86 2.297 . S
O96 C91 1.247 . S
O97 Cd86 2.439 . S
O97 C91 1.208 . S
O98 Cd99 2.223 . S
O98 C106 1.315 . S
Cd99 O98 2.223 . S
Cd99 O102 2.297 . S
Cd99 O103 2.439 . S
Cd99 O109 2.240 . S
Cd100 O101 2.240 . S
Cd100 O108 2.223 . S
Cd100 O110 2.297 . S
Cd100 O111 2.439 . S
O101 Cd100 2.240 . S
O101 C106 1.279 . S
O102 Cd99 2.297 . S
O102 C104 1.247 . S
O103 Cd99 2.439 . S
O103 C104 1.208 . S
C104 O102 1.247 . S
C104 O103 1.208 . S
C105 O110 1.247 . S
C105 O111 1.208 . S
C106 O98 1.315 . S
C106 O101 1.279 . S
C107 O108 1.315 . S
C107 O109 1.279 . S
O108 Cd100 2.223 . S
O108 C107 1.315 . S
O109 Cd99 2.240 . S
O109 C107 1.279 . S
O110 Cd100 2.297 . S
O110 C105 1.247 . S
O111 Cd100 2.439 . S
O111 C105 1.208 . S
O112 Cd113 2.223 . S
O112 C120 1.315 . S
Cd113 O112 2.223 . S
Cd113 O116 2.297 . S
Cd113 O117 2.439 . S
Cd113 O123 2.240 . S
Cd114 O115 2.240 . S
Cd114 O122 2.223 . S
Cd114 O124 2.297 . S
Cd114 O125 2.439 . S
O115 Cd114 2.240 . S
O115 C120 1.279 . S
O116 Cd113 2.297 . S
O116 C118 1.247 . S
O117 Cd113 2.439 . S
O117 C118 1.208 . S
C118 O116 1.247 . S
C118 O117 1.208 . S
C119 O124 1.247 . S
C119 O125 1.208 . S
C120 O112 1.315 . S
C120 O115 1.279 . S
C121 O122 1.315 . S
C121 O123 1.279 . S
O122 Cd114 2.223 . S
O122 C121 1.315 . S
O123 Cd113 2.240 . S
O123 C121 1.279 . S
O124 Cd114 2.297 . S
O124 C119 1.247 . S
O125 Cd114 2.439 . S
O125 C119 1.208 . S
H126 C132 0.930 . S
H127 C136 0.930 . S
H128 C141 0.929 . S
H129 C139 0.929 . S
H130 C134 0.929 . S
H131 C140 0.929 . S
C132 H126 0.930 . S
C132 C133 1.367 . S
C132 C140 1.378 . S
C133 C132 1.367 . S
C133 C141 1.433 1_554 S
C134 H130 0.929 . S
C134 C136 1.378 . S
C134 C138 1.350 1_556 S
C135 C138 1.463 . S
C135 C140 1.350 . S
C135 N143 1.427 1_554 S
C136 H127 0.930 . S
C136 C134 1.378 . S
C136 C137 1.367 1_556 S
C137 C136 1.367 1_554 S
C137 C139 1.433 . S
C138 C134 1.350 1_554 S
C138 C135 1.463 . S
C138 N142 1.427 . S
C139 H129 0.929 . S
C139 C137 1.433 . S
C139 N142 1.384 . S
C140 H131 0.929 . S
C140 C132 1.378 . S
C140 C135 1.350 . S
C141 H128 0.929 . S
C141 C133 1.433 1_556 S
C141 N143 1.384 . S
N142 C138 1.427 . S
N142 C139 1.384 . S
N143 C135 1.427 1_556 S
N143 C141 1.384 . S
H144 C150 0.930 . S
H145 C154 0.930 . S
H146 C159 0.929 . S
H147 C157 0.929 . S
H148 C152 0.929 . S
H149 C158 0.929 . S
C150 H144 0.930 . S
C150 C151 1.367 1_556 S
C150 C158 1.378 . S
C151 C150 1.367 1_554 S
C151 C159 1.433 . S
C152 H148 0.929 . S
C152 C154 1.378 . S
C152 C156 1.350 . S
C153 C156 1.463 1_565 S
C153 C158 1.350 1_554 S
C153 N161 1.427 . S
C154 H145 0.930 . S
C154 C152 1.378 . S
C154 C155 1.367 . S
C155 C154 1.367 . S
C155 C157 1.433 1_554 S
C156 C152 1.350 . S
C156 C153 1.463 1_545 S
C156 N160 1.427 1_554 S
C157 H147 0.929 . S
C157 C155 1.433 1_556 S
C157 N160 1.384 . S
C158 H149 0.929 . S
C158 C150 1.378 . S
C158 C153 1.350 1_556 S
C159 H146 0.929 . S
C159 C151 1.433 . S
C159 N161 1.384 . S
N160 C156 1.427 1_556 S
N160 C157 1.384 . S
N161 C153 1.427 . S
N161 C159 1.384 . S
H162 C168 0.930 . S
H163 C172 0.930 . S
H164 C177 0.929 . S
H165 C175 0.929 . S
H166 C170 0.929 . S
H167 C176 0.929 . S
C168 H162 0.930 . S
C168 C169 1.367 1_556 S
C168 C176 1.378 . S
C169 C168 1.367 1_554 S
C169 C177 1.433 . S
C170 H166 0.929 . S
C170 C172 1.378 . S
C170 C174 1.350 . S
C171 C174 1.463 1_655 S
C171 C176 1.350 1_554 S
C171 N179 1.427 . S
C172 H163 0.930 . S
C172 C170 1.378 . S
C172 C173 1.367 . S
C173 C172 1.367 . S
C173 C175 1.433 1_554 S
C174 C170 1.350 . S
C174 C171 1.463 1_455 S
C174 N178 1.427 1_554 S
C175 H165 0.929 . S
C175 C173 1.433 1_556 S
C175 N178 1.384 . S
C176 H167 0.929 . S
C176 C168 1.378 . S
C176 C171 1.350 1_556 S
C177 H164 0.929 . S
C177 C169 1.433 . S
C177 N179 1.384 . S
N178 C174 1.427 1_556 S
N178 C175 1.384 . S
N179 C171 1.427 . S
N179 C177 1.384 . S
H180 C186 0.930 . S
H181 C190 0.930 . S
H182 C195 0.929 . S
H183 C193 0.929 . S
H184 C188 0.929 . S
H185 C194 0.929 . S
C186 H180 0.930 . S
C186 C187 1.367 . S
C186 C194 1.378 . S
C187 C186 1.367 . S
C187 C195 1.433 . S
C188 H184 0.929 . S
C188 C190 1.378 . S
C188 C192 1.350 . S
C189 C192 1.463 . S
C189 C194 1.350 . S
C189 N197 1.427 . S
C190 H181 0.930 . S
C190 C188 1.378 . S
C190 C191 1.367 . S
C191 C190 1.367 . S
C191 C193 1.433 . S
C192 C188 1.350 . S
C192 C189 1.463 . S
C192 N196 1.427 . S
C193 H183 0.929 . S
C193 C191 1.433 . S
C193 N196 1.384 . S
C194 H185 0.929 . S
C194 C186 1.378 . S
C194 C189 1.350 . S
C195 H182 0.929 . S
C195 C187 1.433 . S
C195 N197 1.384 . S
N196 C192 1.427 . S
N196 C193 1.384 . S
N197 C189 1.427 . S
N197 C195 1.384 . S
H198 C204 0.930 . S
H199 C208 0.930 . S
H200 C213 0.929 . S
H201 C211 0.929 . S
H202 C206 0.929 . S
H203 C212 0.929 . S
C204 H198 0.930 . S
C204 C205 1.367 . S
C204 C212 1.378 . S
C205 C204 1.367 . S
C205 C213 1.433 . S
C206 H202 0.929 . S
C206 C208 1.378 . S
C206 C210 1.350 . S
C207 C210 1.463 . S
C207 C212 1.350 . S
C207 N215 1.427 . S
C208 H199 0.930 . S
C208 C206 1.378 . S
C208 C209 1.367 . S
C209 C208 1.367 . S
C209 C211 1.433 . S
C210 C206 1.350 . S
C210 C207 1.463 . S
C210 N214 1.427 . S
C211 H201 0.929 . S
C211 C209 1.433 . S
C211 N214 1.384 . S
C212 H203 0.929 . S
C212 C204 1.378 . S
C212 C207 1.350 . S
C213 H200 0.929 . S
C213 C205 1.433 . S
C213 N215 1.384 . S
N214 C210 1.427 . S
N214 C211 1.384 . S
N215 C207 1.427 . S
N215 C213 1.384 . S
H216 C222 0.930 . S
H217 C226 0.930 . S
H218 C231 0.929 . S
H219 C229 0.929 . S
H220 C224 0.929 . S
H221 C230 0.929 . S
C222 H216 0.930 . S
C222 C223 1.367 . S
C222 C230 1.378 . S
C223 C222 1.367 . S
C223 C231 1.433 . S
C224 H220 0.929 . S
C224 C226 1.378 . S
C224 C228 1.350 . S
C225 C228 1.463 . S
C225 C230 1.350 . S
C225 N233 1.427 . S
C226 H217 0.930 . S
C226 C224 1.378 . S
C226 C227 1.367 . S
C227 C226 1.367 . S
C227 C229 1.433 . S
C228 C224 1.350 . S
C228 C225 1.463 . S
C228 N232 1.427 . S
C229 H219 0.929 . S
C229 C227 1.433 . S
C229 N232 1.384 . S
C230 H221 0.929 . S
C230 C222 1.378 . S
C230 C225 1.350 . S
C231 H218 0.929 . S
C231 C223 1.433 . S
C231 N233 1.384 . S
N232 C228 1.427 . S
N232 C229 1.384 . S
N233 C225 1.427 . S
N233 C231 1.384 . S
H234 C240 0.930 . S
H235 C244 0.930 . S
H236 C249 0.929 . S
H237 C247 0.929 . S
H238 C242 0.929 . S
H239 C248 0.929 . S
C240 H234 0.930 . S
C240 C241 1.367 . S
C240 C248 1.378 . S
C241 C240 1.367 . S
C241 C249 1.433 . S
C242 H238 0.929 . S
C242 C244 1.378 . S
C242 C246 1.350 . S
C243 C246 1.463 . S
C243 C248 1.350 . S
C243 N251 1.427 . S
C244 H235 0.930 . S
C244 C242 1.378 . S
C244 C245 1.367 . S
C245 C244 1.367 . S
C245 C247 1.433 . S
C246 C242 1.350 . S
C246 C243 1.463 . S
C246 N250 1.427 . S
C247 H237 0.929 . S
C247 C245 1.433 . S
C247 N250 1.384 . S
C248 H239 0.929 . S
C248 C240 1.378 . S
C248 C243 1.350 . S
C249 H236 0.929 . S
C249 C241 1.433 . S
C249 N251 1.384 . S
N250 C246 1.427 . S
N250 C247 1.384 . S
N251 C243 1.427 . S
N251 C249 1.384 . S
H252 C258 0.930 . S
H253 C262 0.930 . S
H254 C267 0.929 . S
H255 C265 0.929 . S
H256 C260 0.929 . S
H257 C266 0.929 . S
C258 H252 0.930 . S
C258 C259 1.367 . S
C258 C266 1.378 . S
C259 C258 1.367 . S
C259 C267 1.433 . S
C260 H256 0.929 . S
C260 C262 1.378 . S
C260 C264 1.350 . S
C261 C264 1.463 . S
C261 C266 1.350 . S
C261 N269 1.427 . S
C262 H253 0.930 . S
C262 C260 1.378 . S
C262 C263 1.367 . S
C263 C262 1.367 . S
C263 C265 1.433 . S
C264 C260 1.350 . S
C264 C261 1.463 . S
C264 N268 1.427 . S
C265 H255 0.929 . S
C265 C263 1.433 . S
C265 N268 1.384 . S
C266 H257 0.929 . S
C266 C258 1.378 . S
C266 C261 1.350 . S
C267 H254 0.929 . S
C267 C259 1.433 . S
C267 N269 1.384 . S
N268 C264 1.427 . S
N268 C265 1.384 . S
N269 C261 1.427 . S
N269 C267 1.384 . S
H270 C276 0.930 . S
H271 C280 0.930 . S
H272 C285 0.929 . S
H273 C283 0.929 . S
H274 C278 0.929 . S
H275 C284 0.929 . S
C276 H270 0.930 . S
C276 C277 1.367 . S
C276 C284 1.378 . S
C277 C276 1.367 . S
C277 C285 1.433 . S
C278 H274 0.929 . S
C278 C280 1.378 . S
C278 C282 1.350 . S
C279 C282 1.463 . S
C279 C284 1.350 . S
C279 N287 1.427 . S
C280 H271 0.930 . S
C280 C278 1.378 . S
C280 C281 1.367 . S
C281 C280 1.367 . S
C281 C283 1.433 . S
C282 C278 1.350 . S
C282 C279 1.463 . S
C282 N286 1.427 . S
C283 H273 0.929 . S
C283 C281 1.433 . S
C283 N286 1.384 . S
C284 H275 0.929 . S
C284 C276 1.378 . S
C284 C279 1.350 . S
C285 H272 0.929 . S
C285 C277 1.433 . S
C285 N287 1.384 . S
N286 C282 1.427 . S
N286 C283 1.384 . S
N287 C279 1.427 . S
N287 C285 1.384 . S
H288 C294 0.930 . S
H289 C298 0.930 . S
H290 C303 0.929 . S
H291 C301 0.929 . S
H292 C296 0.929 . S
H293 C302 0.929 . S
C294 H288 0.930 . S
C294 C295 1.367 . S
C294 C302 1.378 . S
C295 C294 1.367 . S
C295 C303 1.433 . S
C296 H292 0.929 . S
C296 C298 1.378 . S
C296 C300 1.350 . S
C297 C300 1.463 . S
C297 C302 1.350 . S
C297 N305 1.427 . S
C298 H289 0.930 . S
C298 C296 1.378 . S
C298 C299 1.367 . S
C299 C298 1.367 . S
C299 C301 1.433 . S
C300 C296 1.350 . S
C300 C297 1.463 . S
C300 N304 1.427 . S
C301 H291 0.929 . S
C301 C299 1.433 . S
C301 N304 1.384 . S
C302 H293 0.929 . S
C302 C294 1.378 . S
C302 C297 1.350 . S
C303 H290 0.929 . S
C303 C295 1.433 . S
C303 N305 1.384 . S
N304 C300 1.427 . S
N304 C301 1.384 . S
N305 C297 1.427 . S
N305 C303 1.384 . S
H306 C312 0.930 . S
H307 C316 0.930 . S
H308 C321 0.929 . S
H309 C319 0.929 . S
H310 C314 0.929 . S
H311 C320 0.929 . S
C312 H306 0.930 . S
C312 C313 1.367 . S
C312 C320 1.378 . S
C313 C312 1.367 . S
C313 C321 1.433 . S
C314 H310 0.929 . S
C314 C316 1.378 . S
C314 C318 1.350 . S
C315 C318 1.463 . S
C315 C320 1.350 . S
C315 N323 1.427 . S
C316 H307 0.930 . S
C316 C314 1.378 . S
C316 C317 1.367 . S
C317 C316 1.367 . S
C317 C319 1.433 . S
C318 C314 1.350 . S
C318 C315 1.463 . S
C318 N322 1.427 . S
C319 H309 0.929 . S
C319 C317 1.433 . S
C319 N322 1.384 . S
C320 H311 0.929 . S
C320 C312 1.378 . S
C320 C315 1.350 . S
C321 H308 0.929 . S
C321 C313 1.433 . S
C321 N323 1.384 . S
N322 C318 1.427 . S
N322 C319 1.384 . S
N323 C315 1.427 . S
N323 C321 1.384 . S
H324 C330 0.930 . S
H325 C334 0.930 . S
H326 C339 0.929 . S
H327 C337 0.929 1_545 S
H328 C332 0.929 . S
H329 C338 0.929 . S
C330 H324 0.930 . S
C330 C331 1.367 . S
C330 C338 1.378 . S
C331 C330 1.367 . S
C331 C339 1.433 . S
C332 H328 0.929 . S
C332 C334 1.378 . S
C332 C336 1.350 . S
C333 C336 1.463 . S
C333 C338 1.350 . S
C333 N341 1.427 . S
C334 H325 0.930 . S
C334 C332 1.378 . S
C334 C335 1.367 . S
C335 C334 1.367 . S
C335 C337 1.433 . S
C336 C332 1.350 . S
C336 C333 1.463 . S
C336 N340 1.427 . S
C337 H327 0.929 1_565 S
C337 C335 1.433 . S
C337 N340 1.384 . S
C338 H329 0.929 . S
C338 C330 1.378 . S
C338 C333 1.350 . S
C339 H326 0.929 . S
C339 C331 1.433 . S
C339 N341 1.384 . S
N340 C336 1.427 . S
N340 C337 1.384 . S
N341 C333 1.427 . S
N341 C339 1.384 . S
H342 C348 0.930 . S
H343 C352 0.930 . S
H344 C357 0.929 . S
H345 C355 0.929 . S
H346 C350 0.929 . S
H347 C356 0.929 . S
C348 H342 0.930 . S
C348 C349 1.367 . S
C348 C356 1.378 . S
C349 C348 1.367 . S
C349 C357 1.433 . S
C350 H346 0.929 . S
C350 C352 1.378 . S
C350 C354 1.350 . S
C351 C354 1.463 . S
C351 C356 1.350 . S
C351 N359 1.427 . S
C352 H343 0.930 . S
C352 C350 1.378 . S
C352 C353 1.367 . S
C353 C352 1.367 . S
C353 C355 1.433 . S
C354 C350 1.350 . S
C354 C351 1.463 . S
C354 N358 1.427 . S
C355 H345 0.929 . S
C355 C353 1.433 . S
C355 N358 1.384 . S
C356 H347 0.929 . S
C356 C348 1.378 . S
C356 C351 1.350 . S
C357 H344 0.929 . S
C357 C349 1.433 . S
C357 N359 1.384 . S
N358 C354 1.427 . S
N358 C355 1.384 . S
N359 C351 1.427 . S
N359 C357 1.384 . S
H360 C366 0.930 . S
H361 C370 0.930 . S
H362 C375 0.929 . S
H363 C373 0.929 . S
H364 C368 0.929 . S
H365 C374 0.929 . S
C366 H360 0.930 . S
C366 C367 1.367 . S
C366 C374 1.378 . S
C367 C366 1.367 . S
C367 C375 1.433 . S
C368 H364 0.929 . S
C368 C370 1.378 . S
C368 C372 1.350 . S
C369 C372 1.463 . S
C369 C374 1.350 . S
C369 N377 1.427 . S
C370 H361 0.930 . S
C370 C368 1.378 . S
C370 C371 1.367 . S
C371 C370 1.367 . S
C371 C373 1.433 . S
C372 C368 1.350 . S
C372 C369 1.463 . S
C372 N376 1.427 . S
C373 H363 0.929 . S
C373 C371 1.433 . S
C373 N376 1.384 . S
C374 H365 0.929 . S
C374 C366 1.378 . S
C374 C369 1.350 . S
C375 H362 0.929 . S
C375 C367 1.433 . S
C375 N377 1.384 . S
N376 C372 1.427 . S
N376 C373 1.384 . S
N377 C369 1.427 . S
N377 C375 1.384 . S
H378 C384 0.930 . S
H379 C388 0.930 . S
H380 C393 0.929 . S
H381 C391 0.929 . S
H382 C386 0.929 . S
H383 C392 0.929 . S
C384 H378 0.930 . S
C384 C385 1.367 . S
C384 C392 1.378 . S
C385 C384 1.367 . S
C385 C393 1.433 . S
C386 H382 0.929 . S
C386 C388 1.378 . S
C386 C390 1.350 . S
C387 C390 1.463 . S
C387 C392 1.350 . S
C387 N395 1.427 . S
C388 H379 0.930 . S
C388 C386 1.378 . S
C388 C389 1.367 . S
C389 C388 1.367 . S
C389 C391 1.433 . S
C390 C386 1.350 . S
C390 C387 1.463 . S
C390 N394 1.427 . S
C391 H381 0.929 . S
C391 C389 1.433 . S
C391 N394 1.384 . S
C392 H383 0.929 . S
C392 C384 1.378 . S
C392 C387 1.350 . S
C393 H380 0.929 . S
C393 C385 1.433 . S
C393 N395 1.384 . S
N394 C390 1.427 . S
N394 C391 1.384 . S
N395 C387 1.427 . S
N395 C393 1.384 . S
H396 C402 0.930 . S
H397 C406 0.930 . S
H398 C411 0.929 . S
H399 C409 0.929 . S
H400 C404 0.929 . S
H401 C410 0.929 . S
C402 H396 0.930 . S
C402 C403 1.367 . S
C402 C410 1.378 . S
C403 C402 1.367 . S
C403 C411 1.433 . S
C404 H400 0.929 . S
C404 C406 1.378 1_455 S
C404 C408 1.350 . S
C405 C408 1.463 . S
C405 C410 1.350 . S
C405 N413 1.427 . S
C406 H397 0.930 . S
C406 C404 1.378 1_655 S
C406 C407 1.367 . S
C407 C406 1.367 . S
C407 C409 1.433 . S
C408 C404 1.350 . S
C408 C405 1.463 . S
C408 N412 1.427 1_455 S
C409 H399 0.929 . S
C409 C407 1.433 . S
C409 N412 1.384 . S
C410 H401 0.929 . S
C410 C402 1.378 . S
C410 C405 1.350 . S
C411 H398 0.929 . S
C411 C403 1.433 . S
C411 N413 1.384 . S
N412 C408 1.427 1_655 S
N412 C409 1.384 . S
N413 C405 1.427 . S
N413 C411 1.384 . S
H414 C420 0.930 . S
H415 C424 0.930 . S
H416 C429 0.929 . S
H417 C427 0.929 . S
H418 C422 0.929 . S
H419 C428 0.929 . S
C420 H414 0.930 . S
C420 C421 1.367 . S
C420 C428 1.378 . S
C421 C420 1.367 . S
C421 C429 1.433 . S
C422 H418 0.929 . S
C422 C424 1.378 . S
C422 C426 1.350 . S
C423 C426 1.463 . S
C423 C428 1.350 . S
C423 N431 1.427 . S
C424 H415 0.930 . S
C424 C422 1.378 . S
C424 C425 1.367 . S
C425 C424 1.367 . S
C425 C427 1.433 . S
C426 C422 1.350 . S
C426 C423 1.463 . S
C426 N430 1.427 . S
C427 H417 0.929 . S
C427 C425 1.433 . S
C427 N430 1.384 . S
C428 H419 0.929 . S
C428 C420 1.378 . S
C428 C423 1.350 . S
C429 H416 0.929 . S
C429 C421 1.433 . S
C429 N431 1.384 . S
N430 C426 1.427 . S
N430 C427 1.384 . S
N431 C423 1.427 . S
N431 C429 1.384 . S
H432 C438 0.930 . S
H433 C442 0.930 . S
H434 C447 0.929 . S
H435 C445 0.929 . S
H436 C440 0.929 . S
H437 C446 0.929 . S
C438 H432 0.930 . S
C438 C439 1.367 . S
C438 C446 1.378 . S
C439 C438 1.367 . S
C439 C447 1.433 . S
C440 H436 0.929 . S
C440 C442 1.378 . S
C440 C444 1.350 . S
C441 C444 1.463 . S
C441 C446 1.350 1_545 S
C441 N449 1.427 . S
C442 H433 0.930 . S
C442 C440 1.378 . S
C442 C443 1.367 . S
C443 C442 1.367 . S
C443 C445 1.433 . S
C444 C440 1.350 . S
C444 C441 1.463 . S
C444 N448 1.427 . S
C445 H435 0.929 . S
C445 C443 1.433 . S
C445 N448 1.384 . S
C446 H437 0.929 . S
C446 C438 1.378 . S
C446 C441 1.350 1_565 S
C447 H434 0.929 . S
C447 C439 1.433 . S
C447 N449 1.384 1_565 S
N448 C444 1.427 . S
N448 C445 1.384 . S
N449 C441 1.427 . S
N449 C447 1.384 1_545 S
C133 C37 1.228 . S
C137 C8 1.222 1_554 S
C151 C23 1.227 1_554 S
C155 C9 1.222 . S
C169 C22 1.228 . S
C173 C36 1.233 1_554 S
C187 C78 1.233 . S
C191 C51 1.225 . S
C205 C65 1.226 . S
C209 C50 1.223 . S
C223 C64 1.222 . S
C227 C79 1.227 . S
C241 C92 1.226 . S
C245 C121 1.223 . S
C259 C93 1.229 . S
C263 C107 1.233 . S
C277 C106 1.231 . S
C281 C120 1.231 . S
C295 C6 1.474 . S
C299 C104 1.474 . S
C313 C21 1.480 . S
C317 C119 1.481 . S
C331 C91 1.481 . S
C335 C34 1.482 . S
C349 C63 1.484 . S
C353 C35 1.485 . S
C367 C7 1.472 . S
C371 C77 1.472 . S
C385 C49 1.472 . S
C389 C20 1.472 . S
C403 C105 1.481 . S
C407 C76 1.482 . S
C421 C48 1.472 . S
C425 C118 1.473 . S
C439 C90 1.474 . S
C443 C62 1.474 . S
