# Generated by pormake.
# Topology wim, (6)-cn, num edge types: 1
# Building blocks:
#     Node 0, Type 0, BuildingBlock: OJICUG_clean_sbu_0, # of connection points: 6
#     Node 1, Type 0, BuildingBlock: OJICUG_clean_sbu_0, # of connection points: 6
#     Node 2, Type 0, BuildingBlock: OJICUG_clean_sbu_0, # of connection points: 6
#     Node 3, Type 0, BuildingBlock: OJICUG_clean_sbu_0, # of connection points: 6
#     Node 4, Type 0, BuildingBlock: OJICUG_clean_sbu_0, # of connection points: 6
#     Node 5, Type 0, BuildingBlock: OJICUG_clean_sbu_0, # of connection points: 6
#     Node 6, Type 0, BuildingBlock: OJICUG_clean_sbu_0, # of connection points: 6
#     Node 7, Type 0, BuildingBlock: OJICUG_clean_sbu_0, # of connection points: 6
#     Node 8, Type 0, BuildingBlock: OJICUG_clean_sbu_0, # of connection points: 6
#     Node 9, Type 0, BuildingBlock: OJICUG_clean_sbu_0, # of connection points: 6
#     Node 10, Type 0, BuildingBlock: OJICUG_clean_sbu_0, # of connection points: 6
#     Node 11, Type 0, BuildingBlock: OJICUG_clean_sbu_0, # of connection points: 6
#     Node 12, Type 0, BuildingBlock: OJICUG_clean_sbu_0, # of connection points: 6
#     Node 13, Type 0, BuildingBlock: OJICUG_clean_sbu_0, # of connection points: 6
#     Node 14, Type 0, BuildingBlock: OJICUG_clean_sbu_0, # of connection points: 6
#     Node 15, Type 0, BuildingBlock: OJICUG_clean_sbu_0, # of connection points: 6
#     Node 16, Type 0, BuildingBlock: OJICUG_clean_sbu_0, # of connection points: 6
#     Node 17, Type 0, BuildingBlock: OJICUG_clean_sbu_0, # of connection points: 6
#     Node 18, Type 0, BuildingBlock: OJICUG_clean_sbu_0, # of connection points: 6
#     Node 19, Type 0, BuildingBlock: OJICUG_clean_sbu_0, # of connection points: 6
#     Node 20, Type 0, BuildingBlock: OJICUG_clean_sbu_0, # of connection points: 6
#     Node 21, Type 0, BuildingBlock: OJICUG_clean_sbu_0, # of connection points: 6
#     Node 22, Type 0, BuildingBlock: OJICUG_clean_sbu_0, # of connection points: 6
#     Node 23, Type 0, BuildingBlock: OJICUG_clean_sbu_0, # of connection points: 6
#     Node 24, Type 0, BuildingBlock: OJICUG_clean_sbu_0, # of connection points: 6
#     Node 25, Type 0, BuildingBlock: OJICUG_clean_sbu_0, # of connection points: 6
#     Node 26, Type 0, BuildingBlock: OJICUG_clean_sbu_0, # of connection points: 6
#     Node 27, Type 0, BuildingBlock: OJICUG_clean_sbu_0, # of connection points: 6
#     Node 28, Type 0, BuildingBlock: OJICUG_clean_sbu_0, # of connection points: 6
#     Node 29, Type 0, BuildingBlock: OJICUG_clean_sbu_0, # of connection points: 6
#     Node 30, Type 0, BuildingBlock: OJICUG_clean_sbu_0, # of connection points: 6
#     Node 31, Type 0, BuildingBlock: OJICUG_clean_sbu_0, # of connection points: 6
#     Edge 32, Type (0, 0), None
#     Edge 33, Type (0, 0), None
#     Edge 34, Type (0, 0), None
#     Edge 35, Type (0, 0), None
#     Edge 36, Type (0, 0), None
#     Edge 37, Type (0, 0), None
#     Edge 38, Type (0, 0), None
#     Edge 39, Type (0, 0), None
#     Edge 40, Type (0, 0), None
#     Edge 41, Type (0, 0), None
#     Edge 42, Type (0, 0), None
#     Edge 43, Type (0, 0), None
#     Edge 44, Type (0, 0), None
#     Edge 45, Type (0, 0), None
#     Edge 46, Type (0, 0), None
#     Edge 47, Type (0, 0), None
#     Edge 48, Type (0, 0), None
#     Edge 49, Type (0, 0), None
#     Edge 50, Type (0, 0), None
#     Edge 51, Type (0, 0), None
#     Edge 52, Type (0, 0), None
#     Edge 53, Type (0, 0), None
#     Edge 54, Type (0, 0), None
#     Edge 55, Type (0, 0), None
#     Edge 56, Type (0, 0), None
#     Edge 57, Type (0, 0), None
#     Edge 58, Type (0, 0), None
#     Edge 59, Type (0, 0), None
#     Edge 60, Type (0, 0), None
#     Edge 61, Type (0, 0), None
#     Edge 62, Type (0, 0), None
#     Edge 63, Type (0, 0), None
#     Edge 64, Type (0, 0), None
#     Edge 65, Type (0, 0), None
#     Edge 66, Type (0, 0), None
#     Edge 67, Type (0, 0), None
#     Edge 68, Type (0, 0), None
#     Edge 69, Type (0, 0), None
#     Edge 70, Type (0, 0), None
#     Edge 71, Type (0, 0), None
#     Edge 72, Type (0, 0), None
#     Edge 73, Type (0, 0), None
#     Edge 74, Type (0, 0), None
#     Edge 75, Type (0, 0), None
#     Edge 76, Type (0, 0), None
#     Edge 77, Type (0, 0), None
#     Edge 78, Type (0, 0), None
#     Edge 79, Type (0, 0), None
#     Edge 80, Type (0, 0), None
#     Edge 81, Type (0, 0), None
#     Edge 82, Type (0, 0), None
#     Edge 83, Type (0, 0), None
#     Edge 84, Type (0, 0), None
#     Edge 85, Type (0, 0), None
#     Edge 86, Type (0, 0), None
#     Edge 87, Type (0, 0), None
#     Edge 88, Type (0, 0), None
#     Edge 89, Type (0, 0), None
#     Edge 90, Type (0, 0), None
#     Edge 91, Type (0, 0), None
#     Edge 92, Type (0, 0), None
#     Edge 93, Type (0, 0), None
#     Edge 94, Type (0, 0), None
#     Edge 95, Type (0, 0), None
#     Edge 96, Type (0, 0), None
#     Edge 97, Type (0, 0), None
#     Edge 98, Type (0, 0), None
#     Edge 99, Type (0, 0), None
#     Edge 100, Type (0, 0), None
#     Edge 101, Type (0, 0), None
#     Edge 102, Type (0, 0), None
#     Edge 103, Type (0, 0), None
#     Edge 104, Type (0, 0), None
#     Edge 105, Type (0, 0), None
#     Edge 106, Type (0, 0), None
#     Edge 107, Type (0, 0), None
#     Edge 108, Type (0, 0), None
#     Edge 109, Type (0, 0), None
#     Edge 110, Type (0, 0), None
#     Edge 111, Type (0, 0), None
#     Edge 112, Type (0, 0), None
#     Edge 113, Type (0, 0), None
#     Edge 114, Type (0, 0), None
#     Edge 115, Type (0, 0), None
#     Edge 116, Type (0, 0), None
#     Edge 117, Type (0, 0), None
#     Edge 118, Type (0, 0), None
#     Edge 119, Type (0, 0), None
#     Edge 120, Type (0, 0), None
#     Edge 121, Type (0, 0), None
#     Edge 122, Type (0, 0), None
#     Edge 123, Type (0, 0), None
#     Edge 124, Type (0, 0), None
#     Edge 125, Type (0, 0), None
#     Edge 126, Type (0, 0), None
#     Edge 127, Type (0, 0), None
# Relax obj value: 0.233
# Max RMSD: 0.219
# Mean RMSD: 0.219
data_MOF--net-wim--node1-OJICUG_clean_sbu_0--edge1-none
_symmetry_space_group_name_H-M    P1
_symmetry_Int_Tables_number       1
_symmetry_cell_setting            triclinic
loop_
_symmetry_equiv_pos_as_xyz
'x, y, z'
_cell_length_a     36.968876
_cell_length_b     36.96894
_cell_length_c     14.366501
_cell_angle_alpha  90.000806
_cell_angle_beta   90.000892
_cell_angle_gamma 89.999997
loop_
_atom_site_label
_atom_site_type_symbol
_atom_site_fract_x
_atom_site_fract_y
_atom_site_fract_z
_atom_type_partial_charge
Sc0 Sc 0.96532 0.05008 0.3343 0.0
Sc1 Sc 0.05723 0.06758 0.36549 0.0
Sc2 Sc 0.00247 0.12583 0.23916 0.0
O3 O 0.00853 0.08156 0.31385 0.0
C4 C 0.95758 0.06598 0.12588 0.0
C5 C 0.02685 -0.00542 0.29626 0.0
C6 C 0.07785 0.10324 0.17022 0.0
C7 C 0.00097 0.05574 0.52801 0.0
C8 C 0.93022 0.128 0.34509 0.0
C9 C 0.05773 0.15011 0.40208 0.0
O10 O 0.95909 0.04142 0.18758 0.0
O11 O 0.05333 0.01645 0.29218 0.0
O12 O 0.04487 0.10767 0.14926 0.0
O13 O 0.97281 0.06018 0.47864 0.0
O14 O 0.95942 0.14461 0.32746 0.0
O15 O 0.06344 0.11854 0.43408 0.0
O16 O 0.9265 0.09421 0.33143 0.0
O17 O 0.03181 0.04729 0.49366 0.0
O18 O 0.03939 0.1563 0.32832 0.0
O19 O -0.00197 0.00201 0.34043 0.0
O20 O 0.96577 0.099 0.14217 0.0
O21 O 0.08749 0.0913 0.24961 0.0
Sc22 Sc 0.15517 0.71532 0.58431 0.0
Sc23 Sc 0.13766 0.80723 0.61551 0.0
Sc24 Sc 0.07941 0.75248 0.48917 0.0
O25 O 0.12369 0.75853 0.56387 0.0
C26 C 0.13927 0.70758 0.3759 0.0
C27 C 0.21066 0.77686 0.54627 0.0
C28 C 0.102 0.82785 0.42024 0.0
C29 C 0.1495 0.75097 0.77803 0.0
C30 C 0.07725 0.68022 0.5951 0.0
C31 C 0.05513 0.80773 0.6521 0.0
O32 O 0.16382 0.7091 0.43759 0.0
O33 O 0.18878 0.80333 0.54219 0.0
O34 O 0.09758 0.79487 0.39928 0.0
O35 O 0.14506 0.72281 0.72866 0.0
O36 O 0.06064 0.70942 0.57746 0.0
O37 O 0.0867 0.81344 0.6841 0.0
O38 O 0.11103 0.6765 0.58144 0.0
O39 O 0.15796 0.78181 0.74368 0.0
O40 O 0.04894 0.78939 0.57833 0.0
O41 O 0.20324 0.74804 0.59045 0.0
O42 O 0.10625 0.71577 0.39219 0.0
O43 O 0.11394 0.8375 0.49963 0.0
Sc44 Sc 0.48992 0.90516 0.83431 0.0
Sc45 Sc 0.39801 0.88766 0.86549 0.0
Sc46 Sc 0.45276 0.8294 0.73916 0.0
O47 O 0.44671 0.87368 0.81386 0.0
C48 C 0.49765 0.88926 0.62589 0.0
C49 C 0.42838 0.96065 0.79626 0.0
C50 C 0.37739 0.85199 0.67022 0.0
C51 C 0.45426 0.8995 0.02802 0.0
C52 C 0.52502 0.82725 0.8451 0.0
C53 C 0.39751 0.80512 0.90208 0.0
O54 O 0.49614 0.91381 0.68759 0.0
O55 O 0.40191 0.93879 0.79218 0.0
O56 O 0.41036 0.84757 0.64926 0.0
O57 O 0.48243 0.89506 0.97865 0.0
O58 O 0.49582 0.81063 0.82747 0.0
O59 O 0.3918 0.8367 0.93408 0.0
O60 O 0.52873 0.86102 0.83144 0.0
O61 O 0.42343 0.90795 0.99367 0.0
O62 O 0.41584 0.79894 0.82833 0.0
O63 O 0.4572 0.95323 0.84044 0.0
O64 O 0.48946 0.85624 0.64218 0.0
O65 O 0.36774 0.86394 0.74961 0.0
Sc66 Sc 0.30007 0.23991 0.0843 0.0
Sc67 Sc 0.31758 0.148 0.11549 0.0
Sc68 Sc 0.37583 0.20275 0.98916 0.0
O69 O 0.33155 0.1967 0.06386 0.0
C70 C 0.31597 0.24765 0.87589 0.0
C71 C 0.24458 0.17837 0.04626 0.0
C72 C 0.35324 0.12738 0.92022 0.0
C73 C 0.30574 0.20426 0.27801 0.0
C74 C 0.37799 0.27501 0.0951 0.0
C75 C 0.40011 0.1475 0.15208 0.0
O76 O 0.29142 0.24613 0.93758 0.0
O77 O 0.26645 0.1519 0.04218 0.0
O78 O 0.35766 0.16036 0.89926 0.0
O79 O 0.31018 0.23242 0.22865 0.0
O80 O 0.3946 0.24581 0.07747 0.0
O81 O 0.36854 0.14179 0.18408 0.0
O82 O 0.34421 0.27873 0.08143 0.0
O83 O 0.29728 0.17342 0.24367 0.0
O84 O 0.4063 0.16584 0.07832 0.0
O85 O 0.252 0.20719 0.09044 0.0
O86 O 0.34899 0.23946 0.89218 0.0
O87 O 0.3413 0.11774 0.99961 0.0
Sc88 Sc 0.00246 0.8294 0.30083 0.0
Sc89 Sc 0.05723 0.88766 0.17453 0.0
Sc90 Sc 0.96531 0.90516 0.20569 0.0
O91 O 0.00852 0.87368 0.22615 0.0
C92 C 0.93022 0.82724 0.19484 0.0
C93 C 0.05773 0.80512 0.13797 0.0
C94 C 0.00097 0.8995 1.01198 0.0
C95 C 0.07781 0.85205 0.36986 0.0
C96 C 0.95757 0.88926 0.4141 0.0
C97 C 0.02685 0.96067 0.2437 0.0
O98 O 0.95942 0.81063 0.21247 0.0
O99 O 0.06344 0.83669 0.10596 0.0
O100 O 0.9728 0.89506 0.06135 0.0
O101 O 0.04483 0.84757 0.39079 0.0
O102 O 0.95909 0.91381 0.35241 0.0
O103 O 0.05332 0.93879 0.24781 0.0
O104 O 0.96574 0.85624 0.39778 0.0
O105 O 0.08747 0.86395 0.29045 0.0
O106 O -0.00198 0.95324 0.19957 0.0
O107 O 0.03939 0.79894 0.21171 0.0
O108 O 0.9265 0.86102 0.20855 0.0
O109 O 0.03181 0.90794 0.04633 0.0
Sc110 Sc 0.37582 0.75246 0.55082 0.0
Sc111 Sc 0.31757 0.80723 0.42451 0.0
Sc112 Sc 0.30006 0.71532 0.45568 0.0
O113 O 0.33154 0.75853 0.47613 0.0
C114 C 0.37798 0.68022 0.44483 0.0
C115 C 0.40011 0.80773 0.38795 0.0
C116 C 0.30573 0.75097 0.26197 0.0
C117 C 0.35318 0.82781 0.61985 0.0
C118 C 0.31597 0.70757 0.66408 0.0
C119 C 0.24457 0.77686 0.49369 0.0
O120 O 0.39459 0.70942 0.46246 0.0
O121 O 0.36854 0.81344 0.35594 0.0
O122 O 0.31016 0.72281 0.31134 0.0
O123 O 0.35766 0.79484 0.64077 0.0
O124 O 0.29141 0.7091 0.6024 0.0
O125 O 0.26644 0.80333 0.4978 0.0
O126 O 0.34899 0.71574 0.64777 0.0
O127 O 0.34129 0.83748 0.54043 0.0
O128 O 0.25199 0.74803 0.44955 0.0
O129 O 0.40629 0.78939 0.4617 0.0
O130 O 0.3442 0.6765 0.45854 0.0
O131 O 0.29729 0.78181 0.29631 0.0
Sc132 Sc 0.45278 0.12583 0.80083 0.0
Sc133 Sc 0.39801 0.06758 0.67451 0.0
Sc134 Sc 0.48993 0.05007 0.70569 0.0
O135 O 0.44672 0.08155 0.72614 0.0
C136 C 0.52502 0.12799 0.69484 0.0
C137 C 0.39751 0.15011 0.63795 0.0
C138 C 0.45427 0.05573 0.51197 0.0
C139 C 0.37743 0.10318 0.86985 0.0
C140 C 0.49767 0.06597 0.91409 0.0
C141 C 0.42839 -0.00543 0.74369 0.0
O142 O 0.49582 0.1446 0.71247 0.0
O143 O 0.3918 0.11854 0.60594 0.0
O144 O 0.48244 0.06017 0.56134 0.0
O145 O 0.4104 0.10767 0.89077 0.0
O146 O 0.49615 0.04142 0.85241 0.0
O147 O 0.40192 0.01645 0.74779 0.0
O148 O 0.4895 0.099 0.89778 0.0
O149 O 0.36776 0.09129 0.79043 0.0
O150 O 0.45721 0.00199 0.69957 0.0
O151 O 0.41585 0.1563 0.7117 0.0
O152 O 0.52874 0.09421 0.70854 0.0
O153 O 0.42343 0.04729 0.54631 0.0
Sc154 Sc 0.07941 0.20277 0.05083 0.0
Sc155 Sc 0.13766 0.14801 0.92451 0.0
Sc156 Sc 0.15517 0.23992 0.95569 0.0
O157 O 0.12369 0.19671 0.97614 0.0
C158 C 0.07725 0.27501 0.94485 0.0
C159 C 0.05512 0.1475 0.88795 0.0
C160 C 0.1495 0.20427 0.76198 0.0
C161 C 0.10205 0.12743 0.11985 0.0
C162 C 0.13927 0.24766 0.16409 0.0
C163 C 0.21067 0.17838 0.99369 0.0
O164 O 0.06064 0.24581 0.96247 0.0
O165 O 0.08669 0.1418 0.85594 0.0
O166 O 0.14507 0.23243 0.81135 0.0
O167 O 0.09758 0.1604 0.14077 0.0
O168 O 0.16382 0.24614 0.10241 0.0
O169 O 0.18879 0.15191 0.9978 0.0
O170 O 0.10624 0.2395 0.14778 0.0
O171 O 0.11394 0.11776 0.04043 0.0
O172 O 0.20324 0.2072 0.94956 0.0
O173 O 0.04894 0.16584 0.96171 0.0
O174 O 0.11103 0.27873 0.95855 0.0
O175 O 0.15794 0.17342 0.79631 0.0
Sc176 Sc -0.01009 0.90516 0.70571 0.0
Sc177 Sc 0.898 0.88765 0.67451 0.0
Sc178 Sc 0.95276 0.8294 0.80085 0.0
O179 O 0.94671 0.87368 0.72615 0.0
C180 C 0.02502 0.82725 0.69495 0.0
C181 C 0.95427 0.8995 0.51199 0.0
C182 C 0.89751 0.80512 0.63794 0.0
C183 C 0.92837 0.96066 0.74372 0.0
C184 C -0.00232 0.88926 0.91409 0.0
C185 C 0.8774 0.85198 0.86978 0.0
O186 O 0.02873 0.86103 0.7086 0.0
O187 O 0.92342 0.90793 0.54631 0.0
O188 O 0.91585 0.79893 0.7117 0.0
O189 O 0.95719 0.95323 0.69957 0.0
O190 O -0.01053 0.85624 0.89783 0.0
O191 O 0.86774 0.86393 0.79041 0.0
O192 O -0.00387 0.91382 0.85243 0.0
O193 O 0.9019 0.93878 0.7478 0.0
O194 O 0.91037 0.84758 0.89075 0.0
O195 O -0.01757 0.89506 0.56137 0.0
O196 O -0.00418 0.81064 0.71255 0.0
O197 O 0.8918 0.83668 0.60593 0.0
Sc198 Sc 0.80007 0.23992 0.45567 0.0
Sc199 Sc 0.81758 0.14801 0.42448 0.0
Sc200 Sc 0.87582 0.20277 0.55086 0.0
O201 O 0.83155 0.19671 0.47612 0.0
C202 C 0.87798 0.27503 0.44493 0.0
C203 C 0.80575 0.20427 0.26196 0.0
C204 C 0.90011 0.14753 0.38791 0.0
C205 C 0.74458 0.17838 0.49371 0.0
C206 C 0.81595 0.24766 0.66409 0.0
C207 C 0.85324 0.1274 0.61976 0.0
O208 O 0.8442 0.27874 0.45856 0.0
O209 O 0.79729 0.17343 0.2963 0.0
O210 O 0.90629 0.16585 0.46171 0.0
O211 O 0.752 0.2072 0.44954 0.0
O212 O 0.84897 0.23947 0.64782 0.0
O213 O 0.8413 0.11775 0.54037 0.0
O214 O 0.7914 0.24614 0.60239 0.0
O215 O 0.76645 0.15191 0.49779 0.0
O216 O 0.85763 0.16038 0.64074 0.0
O217 O 0.81018 0.23243 0.31133 0.0
O218 O 0.8946 0.24582 0.46257 0.0
O219 O 0.86854 0.14181 0.3559 0.0
Sc220 Sc 0.46533 0.05007 0.2057 0.0
Sc221 Sc 0.55724 0.06758 0.17451 0.0
Sc222 Sc 0.50247 0.12583 0.30085 0.0
O223 O 0.50853 0.08155 0.22614 0.0
C224 C 0.43021 0.12798 0.19494 0.0
C225 C 0.50097 0.05573 1.01198 0.0
C226 C 0.55773 0.15012 0.13794 0.0
C227 C 0.52687 -0.00542 0.24372 0.0
C228 C 0.45756 0.06597 0.41408 0.0
C229 C 0.57784 0.10325 0.36978 0.0
O230 O 0.42651 0.0942 0.20859 0.0
O231 O 0.53182 0.0473 0.0463 0.0
O232 O 0.53939 0.1563 0.2117 0.0
O233 O 0.49805 0.002 0.19955 0.0
O234 O 0.46577 0.09899 0.39782 0.0
O235 O 0.5875 0.0913 0.29041 0.0
O236 O 0.45911 0.04141 0.35242 0.0
O237 O 0.55334 0.01645 0.24781 0.0
O238 O 0.54487 0.10766 0.39075 0.0
O239 O 0.47281 0.06017 0.06136 0.0
O240 O 0.45942 0.14459 0.21254 0.0
O241 O 0.56344 0.11855 0.10593 0.0
Sc242 Sc 0.65517 0.71532 0.95568 0.0
Sc243 Sc 0.63766 0.80723 0.9245 0.0
Sc244 Sc 0.57942 0.75247 0.05086 0.0
O245 O 0.62369 0.75852 0.97614 0.0
C246 C 0.57725 0.68021 0.94493 0.0
C247 C 0.64948 0.75097 0.76198 0.0
C248 C 0.55512 0.80771 0.88793 0.0
C249 C 0.71066 0.77686 0.99372 0.0
C250 C 0.63928 0.70757 0.16409 0.0
C251 C 0.602 0.82784 0.11977 0.0
O252 O 0.61103 0.6765 0.95857 0.0
O253 O 0.65795 0.78181 0.79632 0.0
O254 O 0.54894 0.78939 0.96172 0.0
O255 O 0.70324 0.74804 0.94954 0.0
O256 O 0.60626 0.71576 0.14782 0.0
O257 O 0.61393 0.83749 0.04039 0.0
O258 O 0.66383 0.7091 0.1024 0.0
O259 O 0.68878 0.80333 0.99781 0.0
O260 O 0.59761 0.79486 0.14075 0.0
O261 O 0.64506 0.7228 0.81134 0.0
O262 O 0.56064 0.70942 0.96257 0.0
O263 O 0.58669 0.81343 0.85591 0.0
Sc264 Sc 0.95278 0.12583 0.73914 0.0
Sc265 Sc 0.89801 0.06758 0.86545 0.0
Sc266 Sc -0.01009 0.05007 0.83427 0.0
O267 O 0.94671 0.08155 0.81383 0.0
C268 C -0.00231 0.06598 0.62591 0.0
C269 C 0.87744 0.1032 0.67011 0.0
C270 C 0.92837 -0.00543 0.7963 0.0
C271 C 0.8975 0.15012 0.90199 0.0
C272 C 0.02502 0.12798 0.8451 0.0
C273 C 0.95428 0.05573 0.028 0.0
O274 O -0.0105 0.099 0.6422 0.0
O275 O 0.86776 0.09129 0.74951 0.0
O276 O 0.9572 0.00199 0.84042 0.0
O277 O 0.91584 0.1563 0.82824 0.0
O278 O 0.02873 0.0942 0.8314 0.0
O279 O 0.92342 0.04732 0.99368 0.0
O280 O -0.00418 0.14459 0.8275 0.0
O281 O 0.89179 0.11855 0.93401 0.0
O282 O -0.01757 0.06016 0.97861 0.0
O283 O 0.91041 0.10765 0.64918 0.0
O284 O -0.00387 0.04141 0.68755 0.0
O285 O 0.90191 0.01645 0.79218 0.0
Sc286 Sc 0.57942 0.20278 0.48913 0.0
Sc287 Sc 0.63766 0.14801 0.61548 0.0
Sc288 Sc 0.65518 0.23992 0.58431 0.0
O289 O 0.62369 0.19672 0.56385 0.0
C290 C 0.63928 0.24767 0.37591 0.0
C291 C 0.60205 0.12744 0.42013 0.0
C292 C 0.71067 0.17838 0.5463 0.0
C293 C 0.55513 0.14752 0.65202 0.0
C294 C 0.57726 0.27502 0.59511 0.0
C295 C 0.64949 0.20427 0.77802 0.0
O296 O 0.60626 0.23951 0.39221 0.0
O297 O 0.61394 0.11776 0.49955 0.0
O298 O 0.70325 0.20721 0.59044 0.0
O299 O 0.54895 0.16585 0.57824 0.0
O300 O 0.61104 0.27874 0.58144 0.0
O301 O 0.65794 0.17343 0.74368 0.0
O302 O 0.56065 0.24582 0.57748 0.0
O303 O 0.58669 0.14181 0.68404 0.0
O304 O 0.64507 0.23244 0.72865 0.0
O305 O 0.59761 0.16041 0.39919 0.0
O306 O 0.66384 0.24614 0.4376 0.0
O307 O 0.68879 0.15191 0.54219 0.0
Sc308 Sc 0.50245 0.82941 0.23914 0.0
Sc309 Sc 0.55723 0.88765 0.36547 0.0
Sc310 Sc 0.46532 0.90517 0.33428 0.0
O311 O 0.50852 0.87369 0.31384 0.0
C312 C 0.45754 0.88926 0.12591 0.0
C313 C 0.5778 0.85204 0.17013 0.0
C314 C 0.52687 0.96067 0.29631 0.0
C315 C 0.55773 0.80512 0.40201 0.0
C316 C 0.43021 0.82726 0.3451 0.0
C317 C 0.50096 0.89951 0.52801 0.0
O318 O 0.46573 0.85624 0.1422 0.0
O319 O 0.58747 0.86394 0.24953 0.0
O320 O 0.49804 0.95324 0.34042 0.0
O321 O 0.53939 0.79894 0.32825 0.0
O322 O 0.4265 0.86104 0.3314 0.0
O323 O 0.53181 0.90792 0.49369 0.0
O324 O 0.45941 0.81064 0.3275 0.0
O325 O 0.56344 0.83668 0.43402 0.0
O326 O 0.4728 0.89508 0.47862 0.0
O327 O 0.54483 0.84758 0.14919 0.0
O328 O 0.45911 0.91382 0.18756 0.0
O329 O 0.55333 0.93879 0.2922 0.0
Sc330 Sc 0.87582 0.75245 0.98913 0.0
Sc331 Sc 0.81758 0.80722 0.11547 0.0
Sc332 Sc 0.80007 0.71531 0.0843 0.0
O333 O 0.83155 0.75851 0.06385 0.0
C334 C 0.81596 0.70756 0.8759 0.0
C335 C 0.85319 0.82779 0.92013 0.0
C336 C 0.74457 0.77686 0.04631 0.0
C337 C 0.90011 0.80771 0.15202 0.0
C338 C 0.87798 0.68021 0.0951 0.0
C339 C 0.80575 0.75096 0.27801 0.0
O340 O 0.84898 0.71573 0.8922 0.0
O341 O 0.8413 0.83747 0.99955 0.0
O342 O 0.75199 0.74803 0.09043 0.0
O343 O 0.90629 0.78939 0.07823 0.0
O344 O 0.8442 0.67649 0.08143 0.0
O345 O 0.7973 0.7818 0.24368 0.0
O346 O 0.89459 0.70941 0.07747 0.0
O347 O 0.86855 0.81342 0.18404 0.0
O348 O 0.81017 0.72279 0.22864 0.0
O349 O 0.85763 0.79482 0.89919 0.0
O350 O 0.7914 0.70909 0.93758 0.0
O351 O 0.76645 0.80332 0.04219 0.0
Sc352 Sc 0.46532 0.55007 0.83431 0.0
Sc353 Sc 0.55723 0.56758 0.86551 0.0
Sc354 Sc 0.50248 0.62582 0.73915 0.0
O355 O 0.50853 0.58155 0.81386 0.0
C356 C 0.45758 0.56597 0.62589 0.0
C357 C 0.52686 0.49458 0.79627 0.0
C358 C 0.57785 0.60323 0.67024 0.0
C359 C 0.50097 0.55573 0.02802 0.0
C360 C 0.43022 0.62799 0.84509 0.0
C361 C 0.55771 0.65011 0.90211 0.0
O362 O 0.4591 0.54142 0.68759 0.0
O363 O 0.55333 0.51645 0.79219 0.0
O364 O 0.54487 0.60765 0.64927 0.0
O365 O 0.47281 0.56017 0.97865 0.0
O366 O 0.45942 0.6446 0.82745 0.0
O367 O 0.56343 0.61854 0.9341 0.0
O368 O 0.42651 0.59421 0.83144 0.0
O369 O 0.53181 0.54728 0.99368 0.0
O370 O 0.53939 0.65629 0.82831 0.0
O371 O 0.49804 0.502 0.84044 0.0
O372 O 0.46577 0.59899 0.64218 0.0
O373 O 0.58749 0.5913 0.74963 0.0
Sc374 Sc 0.65517 0.21533 0.08429 0.0
Sc375 Sc 0.63766 0.30724 0.11551 0.0
Sc376 Sc 0.5794 0.25248 0.98918 0.0
O377 O 0.62368 0.25854 0.06386 0.0
C378 C 0.63925 0.20757 0.87591 0.0
C379 C 0.71066 0.27687 0.04627 0.0
C380 C 0.60199 0.32785 0.92023 0.0
C381 C 0.64953 0.25097 0.27802 0.0
C382 C 0.57725 0.18022 0.09509 0.0
C383 C 0.55512 0.30773 0.1521 0.0
O384 O 0.66381 0.20911 0.93757 0.0
O385 O 0.68878 0.30334 0.0422 0.0
O386 O 0.59756 0.29488 0.89928 0.0
O387 O 0.64507 0.22281 0.22864 0.0
O388 O 0.56064 0.20942 0.07749 0.0
O389 O 0.58669 0.31344 0.18409 0.0
O390 O 0.61103 0.17651 0.08142 0.0
O391 O 0.65794 0.28182 0.2437 0.0
O392 O 0.54893 0.28939 0.07834 0.0
O393 O 0.70324 0.24805 0.09043 0.0
O394 O 0.60623 0.21578 0.89219 0.0
O395 O 0.61394 0.3375 0.99962 0.0
Sc396 Sc -0.01009 0.40517 0.33432 0.0
Sc397 Sc 0.898 0.38766 0.36551 0.0
Sc398 Sc 0.95276 0.32941 0.23916 0.0
O399 O 0.9467 0.37369 0.31387 0.0
C400 C -0.00235 0.38927 0.1259 0.0
C401 C 0.92837 0.46066 0.29626 0.0
C402 C 0.87738 0.352 0.17024 0.0
C403 C 0.95426 0.39951 0.52803 0.0
C404 C 0.02502 0.32725 0.3451 0.0
C405 C 0.89752 0.30513 0.4021 0.0
O406 O -0.00386 0.41382 0.1876 0.0
O407 O 0.9019 0.43879 0.29219 0.0
O408 O 0.91036 0.34759 0.14927 0.0
O409 O -0.01757 0.39507 0.47866 0.0
O410 O -0.00419 0.31064 0.32746 0.0
O411 O 0.8918 0.3367 0.4341 0.0
O412 O 0.02873 0.36103 0.33145 0.0
O413 O 0.92342 0.40796 0.49368 0.0
O414 O 0.91584 0.29895 0.32832 0.0
O415 O 0.95719 0.45324 0.34045 0.0
O416 O -0.01054 0.35625 0.14219 0.0
O417 O 0.86774 0.36394 0.24963 0.0
Sc418 Sc 0.80007 0.7399 0.58428 0.0
Sc419 Sc 0.81758 0.64799 0.61549 0.0
Sc420 Sc 0.87584 0.70275 0.48917 0.0
O421 O 0.83155 0.6967 0.56385 0.0
C422 C 0.81599 0.74767 0.3759 0.0
C423 C 0.74458 0.67836 0.54626 0.0
C424 C 0.85325 0.62738 0.42022 0.0
C425 C 0.80571 0.70426 0.77801 0.0
C426 C 0.87799 0.77501 0.59509 0.0
C427 C 0.90012 0.6475 0.65208 0.0
O428 O 0.79142 0.74612 0.43756 0.0
O429 O 0.76645 0.65189 0.54219 0.0
O430 O 0.85768 0.66036 0.39926 0.0
O431 O 0.81017 0.73242 0.72863 0.0
O432 O 0.8946 0.74581 0.57749 0.0
O433 O 0.86855 0.64178 0.68408 0.0
O434 O 0.8442 0.77872 0.58141 0.0
O435 O 0.7973 0.67341 0.74368 0.0
O436 O 0.9063 0.66584 0.57833 0.0
O437 O 0.752 0.70719 0.59042 0.0
O438 O 0.849 0.73946 0.39218 0.0
O439 O 0.8413 0.61773 0.4996 0.0
Sc440 Sc 0.50246 0.32941 0.80083 0.0
Sc441 Sc 0.55723 0.38766 0.67451 0.0
Sc442 Sc 0.46532 0.40517 0.70569 0.0
O443 O 0.50852 0.37369 0.72613 0.0
C444 C 0.43022 0.32725 0.69484 0.0
C445 C 0.55772 0.30512 0.63794 0.0
C446 C 0.50097 0.39951 0.51197 0.0
C447 C 0.57781 0.35206 0.86985 0.0
C448 C 0.45757 0.38927 0.91409 0.0
C449 C 0.52686 0.46067 0.7437 0.0
O450 O 0.45942 0.31064 0.71248 0.0
O451 O 0.56344 0.33669 0.60594 0.0
O452 O 0.4728 0.39507 0.56134 0.0
O453 O 0.54484 0.34759 0.89078 0.0
O454 O 0.4591 0.41382 0.85241 0.0
O455 O 0.55333 0.43879 0.7478 0.0
O456 O 0.46574 0.35624 0.89778 0.0
O457 O 0.58748 0.36395 0.79043 0.0
O458 O 0.49803 0.45324 0.69956 0.0
O459 O 0.5394 0.29894 0.71172 0.0
O460 O 0.4265 0.36103 0.70854 0.0
O461 O 0.53181 0.40794 0.54631 0.0
Sc462 Sc 0.87583 0.25246 0.05081 0.0
Sc463 Sc 0.81758 0.30724 0.92451 0.0
Sc464 Sc 0.80006 0.21533 0.9557 0.0
O465 O 0.83155 0.25853 0.97614 0.0
C466 C 0.87798 0.18022 0.94484 0.0
C467 C 0.90011 0.30774 0.88795 0.0
C468 C 0.80571 0.25096 0.76197 0.0
C469 C 0.85319 0.32781 0.11985 0.0
C470 C 0.81598 0.20755 0.16407 0.0
C471 C 0.74457 0.27687 0.99369 0.0
O472 O 0.89459 0.20942 0.96244 0.0
O473 O 0.86854 0.31345 0.85594 0.0
O474 O 0.81015 0.22281 0.81136 0.0
O475 O 0.85767 0.29484 0.14077 0.0
O476 O 0.79142 0.20911 0.10242 0.0
O477 O 0.76644 0.30333 0.99779 0.0
O478 O 0.849 0.21574 0.14777 0.0
O479 O 0.84129 0.33748 0.04044 0.0
O480 O 0.75199 0.24804 0.94957 0.0
O481 O 0.9063 0.2894 0.96169 0.0
O482 O 0.8442 0.17651 0.95856 0.0
O483 O 0.7973 0.28182 0.7963 0.0
Sc484 Sc 0.95278 0.62582 0.30083 0.0
Sc485 Sc 0.89801 0.56757 0.1745 0.0
Sc486 Sc -0.01008 0.55006 0.20568 0.0
O487 O 0.94672 0.58154 0.22613 0.0
C488 C 0.02502 0.62798 0.19484 0.0
C489 C 0.89752 0.65011 0.13793 0.0
C490 C 0.95427 0.55573 1.01196 0.0
C491 C 0.87743 0.60318 0.36984 0.0
C492 C -0.00233 0.56596 0.41408 0.0
C493 C 0.92838 0.49457 0.24369 0.0
O494 O -0.00418 0.64459 0.21248 0.0
O495 O 0.8918 0.61854 0.10592 0.0
O496 O -0.01757 0.56016 0.06134 0.0
O497 O 0.9104 0.60765 0.39077 0.0
O498 O -0.00386 0.54141 0.3524 0.0
O499 O 0.90191 0.51645 0.24778 0.0
O500 O -0.0105 0.59899 0.39777 0.0
O501 O 0.86776 0.59129 0.29041 0.0
O502 O 0.95721 0.50199 0.19956 0.0
O503 O 0.91584 0.65629 0.21171 0.0
O504 O 0.02874 0.5942 0.20854 0.0
O505 O 0.92343 0.54729 0.0463 0.0
Sc506 Sc 0.5794 0.70277 0.55082 0.0
Sc507 Sc 0.63765 0.648 0.42451 0.0
Sc508 Sc 0.65517 0.73991 0.45571 0.0
O509 O 0.62368 0.69671 0.47614 0.0
C510 C 0.57725 0.77501 0.44485 0.0
C511 C 0.55512 0.6475 0.38795 0.0
C512 C 0.64953 0.70427 0.26198 0.0
C513 C 0.60205 0.62743 0.61986 0.0
C514 C 0.63925 0.74768 0.66408 0.0
C515 C 0.71067 0.67837 0.49369 0.0
O516 O 0.56064 0.74581 0.46245 0.0
O517 O 0.58669 0.64179 0.35595 0.0
O518 O 0.64508 0.73243 0.31137 0.0
O519 O 0.59756 0.6604 0.64077 0.0
O520 O 0.66381 0.74613 0.60243 0.0
O521 O 0.68879 0.6519 0.49779 0.0
O522 O 0.60623 0.73949 0.64778 0.0
O523 O 0.61395 0.61776 0.54045 0.0
O524 O 0.70324 0.7072 0.44958 0.0
O525 O 0.54893 0.66584 0.4617 0.0
O526 O 0.61103 0.77873 0.45857 0.0
O527 O 0.65793 0.67342 0.2963 0.0
Sc528 Sc 0.48991 0.40517 0.20571 0.0
Sc529 Sc 0.398 0.38765 0.17449 0.0
Sc530 Sc 0.45276 0.32941 0.30085 0.0
O531 O 0.4467 0.37368 0.22614 0.0
C532 C 0.52502 0.32725 0.19495 0.0
C533 C 0.45427 0.39951 1.01197 0.0
C534 C 0.39752 0.30512 0.13791 0.0
C535 C 0.42836 0.46066 0.24371 0.0
C536 C 0.49768 0.38927 0.41408 0.0
C537 C 0.37739 0.35199 0.36977 0.0
O538 O 0.52873 0.36104 0.20859 0.0
O539 O 0.42342 0.40793 0.04629 0.0
O540 O 0.41584 0.29894 0.21171 0.0
O541 O 0.45718 0.45324 0.19956 0.0
O542 O 0.48947 0.35625 0.39782 0.0
O543 O 0.36774 0.36393 0.29038 0.0
O544 O 0.49612 0.41383 0.35242 0.0
O545 O 0.40189 0.43878 0.24779 0.0
O546 O 0.41037 0.3476 0.39074 0.0
O547 O 0.48243 0.39507 0.06136 0.0
O548 O 0.49582 0.31064 0.21255 0.0
O549 O 0.3918 0.33668 0.10591 0.0
Sc550 Sc 0.30007 0.73991 0.9557 0.0
Sc551 Sc 0.31758 0.648 0.92449 0.0
Sc552 Sc 0.37582 0.70276 0.05085 0.0
O553 O 0.33155 0.69671 0.97613 0.0
C554 C 0.37798 0.77503 0.94494 0.0
C555 C 0.30572 0.70428 0.76197 0.0
C556 C 0.40012 0.64752 0.88791 0.0
C557 C 0.24458 0.67837 0.99371 0.0
C558 C 0.31597 0.74768 0.16408 0.0
C559 C 0.35325 0.6274 0.11976 0.0
O560 O 0.3442 0.77873 0.95858 0.0
O561 O 0.2973 0.67343 0.79629 0.0
O562 O 0.4063 0.66585 0.9617 0.0
O563 O 0.252 0.70719 0.94955 0.0
O564 O 0.34899 0.73947 0.14782 0.0
O565 O 0.3413 0.61774 0.04038 0.0
O566 O 0.29141 0.74613 0.10241 0.0
O567 O 0.26645 0.6519 0.99779 0.0
O568 O 0.35765 0.66037 0.14074 0.0
O569 O 0.31016 0.73243 0.81135 0.0
O570 O 0.3946 0.74582 0.96255 0.0
O571 O 0.36855 0.6418 0.85591 0.0
Sc572 Sc 0.96533 0.55006 0.70569 0.0
Sc573 Sc 0.05724 0.56758 0.67449 0.0
Sc574 Sc 0.00248 0.62582 0.80085 0.0
O575 O 0.00854 0.58155 0.72613 0.0
C576 C 0.93022 0.62797 0.69494 0.0
C577 C 0.00097 0.55572 0.51197 0.0
C578 C 0.05772 0.65011 0.63792 0.0
C579 C 0.02688 0.49458 0.74371 0.0
C580 C 0.95756 0.56596 0.91407 0.0
C581 C 0.07785 0.60324 0.86977 0.0
O582 O 0.92651 0.59419 0.70858 0.0
O583 O 0.03182 0.5473 0.54629 0.0
O584 O 0.0394 0.65629 0.7117 0.0
O585 O -0.00194 0.50199 0.69954 0.0
O586 O 0.96577 0.59898 0.89781 0.0
O587 O 0.0875 0.5913 0.79039 0.0
O588 O 0.95912 0.5414 0.85241 0.0
O589 O 0.05335 0.51645 0.74779 0.0
O590 O 0.04487 0.60764 0.89074 0.0
O591 O 0.97281 0.56016 0.56135 0.0
O592 O 0.95942 0.64459 0.71254 0.0
O593 O 0.06344 0.61855 0.60591 0.0
Sc594 Sc 0.15517 0.21532 0.45571 0.0
Sc595 Sc 0.13765 0.30723 0.4245 0.0
Sc596 Sc 0.07941 0.25247 0.55085 0.0
O597 O 0.12368 0.25853 0.47614 0.0
C598 C 0.07725 0.18022 0.44494 0.0
C599 C 0.14951 0.25096 0.26198 0.0
C600 C 0.05512 0.30771 0.38792 0.0
C601 C 0.21066 0.27687 0.49372 0.0
C602 C 0.13926 0.20755 0.66408 0.0
C603 C 0.10199 0.32784 0.61978 0.0
O604 O 0.11103 0.17651 0.45859 0.0
O605 O 0.15793 0.28181 0.2963 0.0
O606 O 0.04894 0.28939 0.46171 0.0
O607 O 0.20324 0.24804 0.44956 0.0
O608 O 0.10625 0.21577 0.64782 0.0
O609 O 0.11393 0.33749 0.5404 0.0
O610 O 0.16382 0.20911 0.60242 0.0
O611 O 0.18878 0.30334 0.4978 0.0
O612 O 0.09759 0.29486 0.64075 0.0
O613 O 0.14507 0.2228 0.31136 0.0
O614 O 0.06064 0.20942 0.46254 0.0
O615 O 0.08669 0.31344 0.35592 0.0
Sc616 Sc 0.45278 0.62582 0.23913 0.0
Sc617 Sc 0.398 0.56758 0.36547 0.0
Sc618 Sc 0.48991 0.55006 0.33428 0.0
O619 O 0.44671 0.58155 0.31384 0.0
C620 C 0.49769 0.56597 0.12592 0.0
C621 C 0.37743 0.60319 0.17012 0.0
C622 C 0.42836 0.49456 0.2963 0.0
C623 C 0.39751 0.65012 0.40201 0.0
C624 C 0.52502 0.62797 0.34509 0.0
C625 C 0.45427 0.55572 0.52801 0.0
O626 O 0.4895 0.59899 0.14221 0.0
O627 O 0.36776 0.5913 0.24953 0.0
O628 O 0.45719 0.50199 0.34043 0.0
O629 O 0.41584 0.65629 0.32824 0.0
O630 O 0.52873 0.59419 0.3314 0.0
O631 O 0.42342 0.54731 0.49369 0.0
O632 O 0.49581 0.64459 0.3275 0.0
O633 O 0.3918 0.61855 0.43403 0.0
O634 O 0.48243 0.56015 0.47862 0.0
O635 O 0.41041 0.60763 0.14919 0.0
O636 O 0.49612 0.5414 0.18756 0.0
O637 O 0.4019 0.51645 0.2922 0.0
Sc638 Sc 0.07941 0.70278 0.98914 0.0
Sc639 Sc 0.13766 0.64801 0.11547 0.0
Sc640 Sc 0.15518 0.73992 0.08429 0.0
O641 O 0.12369 0.69671 0.06385 0.0
C642 C 0.13927 0.74769 0.87592 0.0
C643 C 0.10205 0.62744 0.92013 0.0
C644 C 0.21067 0.67837 0.04631 0.0
C645 C 0.05512 0.64752 0.15202 0.0
C646 C 0.07726 0.77502 0.0951 0.0
C647 C 0.14952 0.70428 0.27802 0.0
O648 O 0.10625 0.7395 0.89221 0.0
O649 O 0.11394 0.61776 0.99954 0.0
O650 O 0.20325 0.7072 0.09043 0.0
O651 O 0.04894 0.66584 0.07825 0.0
O652 O 0.11104 0.77874 0.08142 0.0
O653 O 0.15793 0.67342 0.2437 0.0
O654 O 0.06065 0.74582 0.0775 0.0
O655 O 0.08669 0.6418 0.18403 0.0
O656 O 0.14508 0.73244 0.22863 0.0
O657 O 0.09759 0.66041 0.8992 0.0
O658 O 0.16383 0.74613 0.93757 0.0
O659 O 0.18879 0.65191 0.0422 0.0
Sc660 Sc 0.00246 0.32942 0.73914 0.0
Sc661 Sc 0.05723 0.38765 0.86549 0.0
Sc662 Sc 0.96532 0.40518 0.83429 0.0
O663 O 0.00852 0.37369 0.81385 0.0
C664 C 0.95754 0.38927 0.62592 0.0
C665 C 0.0778 0.35205 0.67014 0.0
C666 C 0.02687 0.46067 0.79631 0.0
C667 C 0.05772 0.30512 0.90203 0.0
C668 C 0.93021 0.32726 0.84509 0.0
C669 C 0.00096 0.39952 0.02802 0.0
O670 O 0.96573 0.35625 0.64221 0.0
O671 O 0.08748 0.36394 0.74955 0.0
O672 O -0.00196 0.45325 0.84043 0.0
O673 O 0.03939 0.29894 0.82825 0.0
O674 O 0.9265 0.36104 0.83141 0.0
O675 O 0.03182 0.40793 0.99371 0.0
O676 O 0.95942 0.31065 0.8275 0.0
O677 O 0.06343 0.33669 0.93404 0.0
O678 O 0.9728 0.39508 0.97863 0.0
O679 O 0.04483 0.3476 0.6492 0.0
O680 O 0.95911 0.41383 0.68757 0.0
O681 O 0.05334 0.43879 0.79221 0.0
Sc682 Sc 0.37583 0.25245 0.48914 0.0
Sc683 Sc 0.31759 0.30722 0.61547 0.0
Sc684 Sc 0.30007 0.21532 0.58428 0.0
O685 O 0.33155 0.25852 0.56384 0.0
C686 C 0.31597 0.20754 0.37591 0.0
C687 C 0.35319 0.3278 0.42012 0.0
C688 C 0.24457 0.27686 0.54631 0.0
C689 C 0.40012 0.30772 0.65202 0.0
C690 C 0.37798 0.18021 0.59509 0.0
C691 C 0.30572 0.25095 0.77801 0.0
O692 O 0.34899 0.21573 0.3922 0.0
O693 O 0.3413 0.33747 0.49953 0.0
O694 O 0.25199 0.24803 0.59041 0.0
O695 O 0.4063 0.28939 0.57824 0.0
O696 O 0.3442 0.1765 0.58141 0.0
O697 O 0.29731 0.28181 0.74369 0.0
O698 O 0.39459 0.20941 0.57749 0.0
O699 O 0.36855 0.31343 0.68403 0.0
O700 O 0.31016 0.22279 0.72862 0.0
O701 O 0.35764 0.29482 0.39919 0.0
O702 O 0.29141 0.2091 0.43756 0.0
O703 O 0.26645 0.30333 0.5422 0.0
loop_
_geom_bond_atom_site_label_1
_geom_bond_atom_site_label_2
_geom_bond_distance
_geom_bond_site_symmetry_2
_ccdc_geom_bond_type
Sc0 O3 2.025 1_655 S
Sc0 O10 2.105 . S
Sc0 O13 2.105 1_655 S
Sc0 O16 2.105 . S
Sc0 O19 2.105 1_655 S
Sc1 O3 2.025 . S
Sc1 O11 2.105 . S
Sc1 O15 2.105 . S
Sc1 O17 2.105 . S
Sc1 O21 2.105 . S
Sc2 O3 2.025 . S
Sc2 O12 2.105 . S
Sc2 O14 2.105 1_455 S
Sc2 O18 2.105 . S
Sc2 O20 2.105 . S
O3 Sc0 2.025 1_455 S
O3 Sc1 2.025 . S
O3 Sc2 2.025 . S
C4 O10 1.268 . S
C4 O20 1.268 1_655 S
C5 O11 1.268 . S
C5 O19 1.268 . S
C6 O12 1.268 . S
C6 O21 1.268 . S
C7 O13 1.268 . S
C7 O17 1.268 . S
C8 O14 1.268 . S
C8 O16 1.268 . S
C9 O15 1.268 . S
C9 O18 1.268 . S
O10 Sc0 2.105 . S
O10 C4 1.268 . S
O11 Sc1 2.105 . S
O11 C5 1.268 . S
O12 Sc2 2.105 . S
O12 C6 1.268 . S
O13 Sc0 2.105 1_455 S
O13 C7 1.268 . S
O14 Sc2 2.105 1_655 S
O14 C8 1.268 . S
O15 Sc1 2.105 . S
O15 C9 1.268 . S
O16 Sc0 2.105 . S
O16 C8 1.268 . S
O17 Sc1 2.105 . S
O17 C7 1.268 . S
O18 Sc2 2.105 . S
O18 C9 1.268 . S
O19 Sc0 2.105 1_455 S
O19 C5 1.268 . S
O20 Sc2 2.105 . S
O20 C4 1.268 1_455 S
O21 Sc1 2.105 . S
O21 C6 1.268 . S
Sc22 O25 2.025 . S
Sc22 O32 2.105 . S
Sc22 O35 2.105 . S
Sc22 O38 2.105 . S
Sc22 O41 2.105 . S
Sc23 O25 2.025 . S
Sc23 O33 2.105 . S
Sc23 O37 2.105 . S
Sc23 O39 2.105 . S
Sc23 O43 2.105 . S
Sc24 O25 2.025 . S
Sc24 O34 2.105 . S
Sc24 O36 2.105 . S
Sc24 O40 2.105 . S
Sc24 O42 2.105 . S
O25 Sc22 2.025 . S
O25 Sc23 2.025 . S
O25 Sc24 2.025 . S
C26 O32 1.268 . S
C26 O42 1.268 . S
C27 O33 1.268 . S
C27 O41 1.268 . S
C28 O34 1.268 . S
C28 O43 1.268 . S
C29 O35 1.268 . S
C29 O39 1.268 . S
C30 O36 1.268 . S
C30 O38 1.268 . S
C31 O37 1.268 . S
C31 O40 1.268 . S
O32 Sc22 2.105 . S
O32 C26 1.268 . S
O33 Sc23 2.105 . S
O33 C27 1.268 . S
O34 Sc24 2.105 . S
O34 C28 1.268 . S
O35 Sc22 2.105 . S
O35 C29 1.268 . S
O36 Sc24 2.105 . S
O36 C30 1.268 . S
O37 Sc23 2.105 . S
O37 C31 1.268 . S
O38 Sc22 2.105 . S
O38 C30 1.268 . S
O39 Sc23 2.105 . S
O39 C29 1.268 . S
O40 Sc24 2.105 . S
O40 C31 1.268 . S
O41 Sc22 2.105 . S
O41 C27 1.268 . S
O42 Sc24 2.105 . S
O42 C26 1.268 . S
O43 Sc23 2.105 . S
O43 C28 1.268 . S
Sc44 O47 2.025 . S
Sc44 O54 2.105 . S
Sc44 O57 2.105 . S
Sc44 O60 2.105 . S
Sc44 O63 2.105 . S
Sc45 O47 2.025 . S
Sc45 O55 2.105 . S
Sc45 O59 2.105 . S
Sc45 O61 2.105 . S
Sc45 O65 2.105 . S
Sc46 O47 2.025 . S
Sc46 O56 2.105 . S
Sc46 O58 2.105 . S
Sc46 O62 2.105 . S
Sc46 O64 2.105 . S
O47 Sc44 2.025 . S
O47 Sc45 2.025 . S
O47 Sc46 2.025 . S
C48 O54 1.268 . S
C48 O64 1.268 . S
C49 O55 1.268 . S
C49 O63 1.268 . S
C50 O56 1.268 . S
C50 O65 1.268 . S
C51 O57 1.262 1_554 S
C51 O61 1.265 1_554 S
C52 O58 1.268 . S
C52 O60 1.268 . S
C53 O59 1.268 . S
C53 O62 1.268 . S
O54 Sc44 2.105 . S
O54 C48 1.268 . S
O55 Sc45 2.105 . S
O55 C49 1.268 . S
O56 Sc46 2.105 . S
O56 C50 1.268 . S
O57 Sc44 2.105 . S
O57 C51 1.262 1_556 S
O58 Sc46 2.105 . S
O58 C52 1.268 . S
O59 Sc45 2.105 . S
O59 C53 1.268 . S
O60 Sc44 2.105 . S
O60 C52 1.268 . S
O61 Sc45 2.105 . S
O61 C51 1.265 1_556 S
O62 Sc46 2.105 . S
O62 C53 1.268 . S
O63 Sc44 2.105 . S
O63 C49 1.268 . S
O64 Sc46 2.105 . S
O64 C48 1.268 . S
O65 Sc45 2.105 . S
O65 C50 1.268 . S
Sc66 O69 2.025 . S
Sc66 O76 2.105 1_554 S
Sc66 O79 2.105 . S
Sc66 O82 2.105 . S
Sc66 O85 2.105 . S
Sc67 O69 2.025 . S
Sc67 O77 2.105 . S
Sc67 O81 2.105 . S
Sc67 O83 2.105 . S
Sc67 O87 2.105 1_554 S
Sc68 O69 2.025 1_556 S
Sc68 O78 2.105 . S
Sc68 O80 2.105 1_556 S
Sc68 O84 2.105 1_556 S
Sc68 O86 2.105 . S
O69 Sc66 2.025 . S
O69 Sc67 2.025 . S
O69 Sc68 2.025 1_554 S
C70 O76 1.268 . S
C70 O86 1.268 . S
C71 O77 1.268 . S
C71 O85 1.268 . S
C72 O78 1.268 . S
C72 O87 1.268 . S
C73 O79 1.268 . S
C73 O83 1.268 . S
C74 O80 1.268 . S
C74 O82 1.268 . S
C75 O81 1.268 . S
C75 O84 1.268 . S
O76 Sc66 2.105 1_556 S
O76 C70 1.268 . S
O77 Sc67 2.105 . S
O77 C71 1.268 . S
O78 Sc68 2.105 . S
O78 C72 1.268 . S
O79 Sc66 2.105 . S
O79 C73 1.268 . S
O80 Sc68 2.105 1_554 S
O80 C74 1.268 . S
O81 Sc67 2.105 . S
O81 C75 1.268 . S
O82 Sc66 2.105 . S
O82 C74 1.268 . S
O83 Sc67 2.105 . S
O83 C73 1.268 . S
O84 Sc68 2.105 1_554 S
O84 C75 1.268 . S
O85 Sc66 2.105 . S
O85 C71 1.268 . S
O86 Sc68 2.105 . S
O86 C70 1.268 . S
O87 Sc67 2.105 1_556 S
O87 C72 1.268 . S
Sc88 O91 2.025 . S
Sc88 O98 2.105 1_455 S
Sc88 O101 2.105 . S
Sc88 O104 2.105 . S
Sc88 O107 2.105 . S
Sc89 O91 2.025 . S
Sc89 O99 2.105 . S
Sc89 O103 2.105 . S
Sc89 O105 2.105 . S
Sc89 O109 2.105 . S
Sc90 O91 2.025 1_655 S
Sc90 O100 2.105 1_655 S
Sc90 O102 2.105 . S
Sc90 O106 2.105 1_655 S
Sc90 O108 2.105 . S
O91 Sc88 2.025 . S
O91 Sc89 2.025 . S
O91 Sc90 2.025 1_455 S
C92 O98 1.268 . S
C92 O108 1.268 . S
C93 O99 1.268 . S
C93 O107 1.268 . S
C94 O100 1.262 1_556 S
C94 O109 1.265 1_556 S
C95 O101 1.268 . S
C95 O105 1.268 . S
C96 O102 1.268 . S
C96 O104 1.268 1_655 S
C97 O103 1.268 . S
C97 O106 1.268 . S
O98 Sc88 2.105 1_655 S
O98 C92 1.268 . S
O99 Sc89 2.105 . S
O99 C93 1.268 . S
O100 Sc90 2.105 1_455 S
O100 C94 1.262 1_554 S
O101 Sc88 2.105 . S
O101 C95 1.268 . S
O102 Sc90 2.105 . S
O102 C96 1.268 . S
O103 Sc89 2.105 . S
O103 C97 1.268 . S
O104 Sc88 2.105 . S
O104 C96 1.268 1_455 S
O105 Sc89 2.105 . S
O105 C95 1.268 . S
O106 Sc90 2.105 1_455 S
O106 C97 1.268 . S
O107 Sc88 2.105 . S
O107 C93 1.268 . S
O108 Sc90 2.105 . S
O108 C92 1.268 . S
O109 Sc89 2.105 . S
O109 C94 1.265 1_554 S
Sc110 O113 2.025 . S
Sc110 O120 2.105 . S
Sc110 O123 2.105 . S
Sc110 O126 2.105 . S
Sc110 O129 2.105 . S
Sc111 O113 2.025 . S
Sc111 O121 2.105 . S
Sc111 O125 2.105 . S
Sc111 O127 2.105 . S
Sc111 O131 2.105 . S
Sc112 O113 2.025 . S
Sc112 O122 2.105 . S
Sc112 O124 2.105 . S
Sc112 O128 2.105 . S
Sc112 O130 2.105 . S
O113 Sc110 2.025 . S
O113 Sc111 2.025 . S
O113 Sc112 2.025 . S
C114 O120 1.268 . S
C114 O130 1.268 . S
C115 O121 1.268 . S
C115 O129 1.268 . S
C116 O122 1.268 . S
C116 O131 1.268 . S
C117 O123 1.268 . S
C117 O127 1.268 . S
C118 O124 1.268 . S
C118 O126 1.268 . S
C119 O125 1.268 . S
C119 O128 1.268 . S
O120 Sc110 2.105 . S
O120 C114 1.268 . S
O121 Sc111 2.105 . S
O121 C115 1.268 . S
O122 Sc112 2.105 . S
O122 C116 1.268 . S
O123 Sc110 2.105 . S
O123 C117 1.268 . S
O124 Sc112 2.105 . S
O124 C118 1.268 . S
O125 Sc111 2.105 . S
O125 C119 1.268 . S
O126 Sc110 2.105 . S
O126 C118 1.268 . S
O127 Sc111 2.105 . S
O127 C117 1.268 . S
O128 Sc112 2.105 . S
O128 C119 1.268 . S
O129 Sc110 2.105 . S
O129 C115 1.268 . S
O130 Sc112 2.105 . S
O130 C114 1.268 . S
O131 Sc111 2.105 . S
O131 C116 1.268 . S
Sc132 O135 2.025 . S
Sc132 O142 2.105 . S
Sc132 O145 2.105 . S
Sc132 O148 2.105 . S
Sc132 O151 2.105 . S
Sc133 O135 2.025 . S
Sc133 O143 2.105 . S
Sc133 O147 2.105 . S
Sc133 O149 2.105 . S
Sc133 O153 2.105 . S
Sc134 O135 2.025 . S
Sc134 O144 2.105 . S
Sc134 O146 2.105 . S
Sc134 O150 2.105 . S
Sc134 O152 2.105 . S
O135 Sc132 2.025 . S
O135 Sc133 2.025 . S
O135 Sc134 2.025 . S
C136 O142 1.268 . S
C136 O152 1.268 . S
C137 O143 1.268 . S
C137 O151 1.268 . S
C138 O144 1.268 . S
C138 O153 1.268 . S
C139 O145 1.268 . S
C139 O149 1.268 . S
C140 O146 1.268 . S
C140 O148 1.268 . S
C141 O147 1.268 . S
C141 O150 1.268 . S
O142 Sc132 2.105 . S
O142 C136 1.268 . S
O143 Sc133 2.105 . S
O143 C137 1.268 . S
O144 Sc134 2.105 . S
O144 C138 1.268 . S
O145 Sc132 2.105 . S
O145 C139 1.268 . S
O146 Sc134 2.105 . S
O146 C140 1.268 . S
O147 Sc133 2.105 . S
O147 C141 1.268 . S
O148 Sc132 2.105 . S
O148 C140 1.268 . S
O149 Sc133 2.105 . S
O149 C139 1.268 . S
O150 Sc134 2.105 . S
O150 C141 1.268 . S
O151 Sc132 2.105 . S
O151 C137 1.268 . S
O152 Sc134 2.105 . S
O152 C136 1.268 . S
O153 Sc133 2.105 . S
O153 C138 1.268 . S
Sc154 O157 2.025 1_554 S
Sc154 O164 2.105 1_554 S
Sc154 O167 2.105 . S
Sc154 O170 2.105 . S
Sc154 O173 2.105 1_554 S
Sc155 O157 2.025 . S
Sc155 O165 2.105 . S
Sc155 O169 2.105 . S
Sc155 O171 2.105 1_556 S
Sc155 O175 2.105 . S
Sc156 O157 2.025 . S
Sc156 O166 2.105 . S
Sc156 O168 2.105 1_556 S
Sc156 O172 2.105 . S
Sc156 O174 2.105 . S
O157 Sc154 2.025 1_556 S
O157 Sc155 2.025 . S
O157 Sc156 2.025 . S
C158 O164 1.268 . S
C158 O174 1.268 . S
C159 O165 1.268 . S
C159 O173 1.268 . S
C160 O166 1.268 . S
C160 O175 1.268 . S
C161 O167 1.268 . S
C161 O171 1.268 . S
C162 O168 1.268 . S
C162 O170 1.268 . S
C163 O169 1.268 . S
C163 O172 1.268 . S
O164 Sc154 2.105 1_556 S
O164 C158 1.268 . S
O165 Sc155 2.105 . S
O165 C159 1.268 . S
O166 Sc156 2.105 . S
O166 C160 1.268 . S
O167 Sc154 2.105 . S
O167 C161 1.268 . S
O168 Sc156 2.105 1_554 S
O168 C162 1.268 . S
O169 Sc155 2.105 . S
O169 C163 1.268 . S
O170 Sc154 2.105 . S
O170 C162 1.268 . S
O171 Sc155 2.105 1_554 S
O171 C161 1.268 . S
O172 Sc156 2.105 . S
O172 C163 1.268 . S
O173 Sc154 2.105 1_556 S
O173 C159 1.268 . S
O174 Sc156 2.105 . S
O174 C158 1.268 . S
O175 Sc155 2.105 . S
O175 C160 1.268 . S
Sc176 O179 2.025 1_455 S
Sc176 O186 2.105 . S
Sc176 O189 2.105 1_455 S
Sc176 O192 2.105 . S
Sc176 O195 2.105 1_455 S
Sc177 O179 2.025 . S
Sc177 O187 2.105 . S
Sc177 O191 2.105 . S
Sc177 O193 2.105 . S
Sc177 O197 2.105 . S
Sc178 O179 2.025 . S
Sc178 O188 2.105 . S
Sc178 O190 2.105 . S
Sc178 O194 2.105 . S
Sc178 O196 2.105 1_655 S
O179 Sc176 2.025 1_655 S
O179 Sc177 2.025 . S
O179 Sc178 2.025 . S
C180 O186 1.268 . S
C180 O196 1.268 . S
C181 O187 1.268 . S
C181 O195 1.268 . S
C182 O188 1.268 . S
C182 O197 1.268 . S
C183 O189 1.268 . S
C183 O193 1.268 . S
C184 O190 1.268 1_455 S
C184 O192 1.268 . S
C185 O191 1.268 . S
C185 O194 1.268 . S
O186 Sc176 2.105 . S
O186 C180 1.268 . S
O187 Sc177 2.105 . S
O187 C181 1.268 . S
O188 Sc178 2.105 . S
O188 C182 1.268 . S
O189 Sc176 2.105 1_655 S
O189 C183 1.268 . S
O190 Sc178 2.105 . S
O190 C184 1.268 1_655 S
O191 Sc177 2.105 . S
O191 C185 1.268 . S
O192 Sc176 2.105 . S
O192 C184 1.268 . S
O193 Sc177 2.105 . S
O193 C183 1.268 . S
O194 Sc178 2.105 . S
O194 C185 1.268 . S
O195 Sc176 2.105 1_655 S
O195 C181 1.268 . S
O196 Sc178 2.105 1_455 S
O196 C180 1.268 . S
O197 Sc177 2.105 . S
O197 C182 1.268 . S
Sc198 O201 2.025 . S
Sc198 O208 2.105 . S
Sc198 O211 2.105 . S
Sc198 O214 2.105 . S
Sc198 O217 2.105 . S
Sc199 O201 2.025 . S
Sc199 O209 2.105 . S
Sc199 O213 2.105 . S
Sc199 O215 2.105 . S
Sc199 O219 2.105 . S
Sc200 O201 2.025 . S
Sc200 O210 2.105 . S
Sc200 O212 2.105 . S
Sc200 O216 2.105 . S
Sc200 O218 2.105 . S
O201 Sc198 2.025 . S
O201 Sc199 2.025 . S
O201 Sc200 2.025 . S
C202 O208 1.268 . S
C202 O218 1.268 . S
C203 O209 1.268 . S
C203 O217 1.268 . S
C204 O210 1.268 . S
C204 O219 1.268 . S
C205 O211 1.268 . S
C205 O215 1.268 . S
C206 O212 1.268 . S
C206 O214 1.268 . S
C207 O213 1.268 . S
C207 O216 1.268 . S
O208 Sc198 2.105 . S
O208 C202 1.268 . S
O209 Sc199 2.105 . S
O209 C203 1.268 . S
O210 Sc200 2.105 . S
O210 C204 1.268 . S
O211 Sc198 2.105 . S
O211 C205 1.268 . S
O212 Sc200 2.105 . S
O212 C206 1.268 . S
O213 Sc199 2.105 . S
O213 C207 1.268 . S
O214 Sc198 2.105 . S
O214 C206 1.268 . S
O215 Sc199 2.105 . S
O215 C205 1.268 . S
O216 Sc200 2.105 . S
O216 C207 1.268 . S
O217 Sc198 2.105 . S
O217 C203 1.268 . S
O218 Sc200 2.105 . S
O218 C202 1.268 . S
O219 Sc199 2.105 . S
O219 C204 1.268 . S
Sc220 O223 2.025 . S
Sc220 O230 2.105 . S
Sc220 O233 2.105 . S
Sc220 O236 2.105 . S
Sc220 O239 2.105 . S
Sc221 O223 2.025 . S
Sc221 O231 2.105 . S
Sc221 O235 2.105 . S
Sc221 O237 2.105 . S
Sc221 O241 2.105 . S
Sc222 O223 2.025 . S
Sc222 O232 2.105 . S
Sc222 O234 2.105 . S
Sc222 O238 2.105 . S
Sc222 O240 2.105 . S
O223 Sc220 2.025 . S
O223 Sc221 2.025 . S
O223 Sc222 2.025 . S
C224 O230 1.268 . S
C224 O240 1.268 . S
C225 O231 1.265 1_556 S
C225 O239 1.262 1_556 S
C226 O232 1.268 . S
C226 O241 1.268 . S
C227 O233 1.268 . S
C227 O237 1.268 . S
C228 O234 1.268 . S
C228 O236 1.268 . S
C229 O235 1.268 . S
C229 O238 1.268 . S
O230 Sc220 2.105 . S
O230 C224 1.268 . S
O231 Sc221 2.105 . S
O231 C225 1.265 1_554 S
O232 Sc222 2.105 . S
O232 C226 1.268 . S
O233 Sc220 2.105 . S
O233 C227 1.268 . S
O234 Sc222 2.105 . S
O234 C228 1.268 . S
O235 Sc221 2.105 . S
O235 C229 1.268 . S
O236 Sc220 2.105 . S
O236 C228 1.268 . S
O237 Sc221 2.105 . S
O237 C227 1.268 . S
O238 Sc222 2.105 . S
O238 C229 1.268 . S
O239 Sc220 2.105 . S
O239 C225 1.262 1_554 S
O240 Sc222 2.105 . S
O240 C224 1.268 . S
O241 Sc221 2.105 . S
O241 C226 1.268 . S
Sc242 O245 2.025 . S
Sc242 O252 2.105 . S
Sc242 O255 2.105 . S
Sc242 O258 2.105 1_556 S
Sc242 O261 2.105 . S
Sc243 O245 2.025 . S
Sc243 O253 2.105 . S
Sc243 O257 2.105 1_556 S
Sc243 O259 2.105 . S
Sc243 O263 2.105 . S
Sc244 O245 2.025 1_554 S
Sc244 O254 2.105 1_554 S
Sc244 O256 2.105 . S
Sc244 O260 2.105 . S
Sc244 O262 2.105 1_554 S
O245 Sc242 2.025 . S
O245 Sc243 2.025 . S
O245 Sc244 2.025 1_556 S
C246 O252 1.268 . S
C246 O262 1.268 . S
C247 O253 1.268 . S
C247 O261 1.268 . S
C248 O254 1.268 . S
C248 O263 1.268 . S
C249 O255 1.268 . S
C249 O259 1.268 . S
C250 O256 1.268 . S
C250 O258 1.268 . S
C251 O257 1.268 . S
C251 O260 1.268 . S
O252 Sc242 2.105 . S
O252 C246 1.268 . S
O253 Sc243 2.105 . S
O253 C247 1.268 . S
O254 Sc244 2.105 1_556 S
O254 C248 1.268 . S
O255 Sc242 2.105 . S
O255 C249 1.268 . S
O256 Sc244 2.105 . S
O256 C250 1.268 . S
O257 Sc243 2.105 1_554 S
O257 C251 1.268 . S
O258 Sc242 2.105 1_554 S
O258 C250 1.268 . S
O259 Sc243 2.105 . S
O259 C249 1.268 . S
O260 Sc244 2.105 . S
O260 C251 1.268 . S
O261 Sc242 2.105 . S
O261 C247 1.268 . S
O262 Sc244 2.105 1_556 S
O262 C246 1.268 . S
O263 Sc243 2.105 . S
O263 C248 1.268 . S
Sc264 O267 2.025 . S
Sc264 O274 2.105 . S
Sc264 O277 2.105 . S
Sc264 O280 2.105 1_655 S
Sc264 O283 2.105 . S
Sc265 O267 2.025 . S
Sc265 O275 2.105 . S
Sc265 O279 2.105 . S
Sc265 O281 2.105 . S
Sc265 O285 2.105 . S
Sc266 O267 2.025 1_455 S
Sc266 O276 2.105 1_455 S
Sc266 O278 2.105 . S
Sc266 O282 2.105 1_455 S
Sc266 O284 2.105 . S
O267 Sc264 2.025 . S
O267 Sc265 2.025 . S
O267 Sc266 2.025 1_655 S
C268 O274 1.268 1_455 S
C268 O284 1.268 . S
C269 O275 1.268 . S
C269 O283 1.268 . S
C270 O276 1.268 . S
C270 O285 1.268 . S
C271 O277 1.268 . S
C271 O281 1.268 . S
C272 O278 1.268 . S
C272 O280 1.268 . S
C273 O279 1.265 1_554 S
C273 O282 1.262 1_554 S
O274 Sc264 2.105 . S
O274 C268 1.268 1_655 S
O275 Sc265 2.105 . S
O275 C269 1.268 . S
O276 Sc266 2.105 1_655 S
O276 C270 1.268 . S
O277 Sc264 2.105 . S
O277 C271 1.268 . S
O278 Sc266 2.105 . S
O278 C272 1.268 . S
O279 Sc265 2.105 . S
O279 C273 1.265 1_556 S
O280 Sc264 2.105 1_455 S
O280 C272 1.268 . S
O281 Sc265 2.105 . S
O281 C271 1.268 . S
O282 Sc266 2.105 1_655 S
O282 C273 1.262 1_556 S
O283 Sc264 2.105 . S
O283 C269 1.268 . S
O284 Sc266 2.105 . S
O284 C268 1.268 . S
O285 Sc265 2.105 . S
O285 C270 1.268 . S
Sc286 O289 2.025 . S
Sc286 O296 2.105 . S
Sc286 O299 2.105 . S
Sc286 O302 2.105 . S
Sc286 O305 2.105 . S
Sc287 O289 2.025 . S
Sc287 O297 2.105 . S
Sc287 O301 2.105 . S
Sc287 O303 2.105 . S
Sc287 O307 2.105 . S
Sc288 O289 2.025 . S
Sc288 O298 2.105 . S
Sc288 O300 2.105 . S
Sc288 O304 2.105 . S
Sc288 O306 2.105 . S
O289 Sc286 2.025 . S
O289 Sc287 2.025 . S
O289 Sc288 2.025 . S
C290 O296 1.268 . S
C290 O306 1.268 . S
C291 O297 1.268 . S
C291 O305 1.268 . S
C292 O298 1.268 . S
C292 O307 1.268 . S
C293 O299 1.268 . S
C293 O303 1.268 . S
C294 O300 1.268 . S
C294 O302 1.268 . S
C295 O301 1.268 . S
C295 O304 1.268 . S
O296 Sc286 2.105 . S
O296 C290 1.268 . S
O297 Sc287 2.105 . S
O297 C291 1.268 . S
O298 Sc288 2.105 . S
O298 C292 1.268 . S
O299 Sc286 2.105 . S
O299 C293 1.268 . S
O300 Sc288 2.105 . S
O300 C294 1.268 . S
O301 Sc287 2.105 . S
O301 C295 1.268 . S
O302 Sc286 2.105 . S
O302 C294 1.268 . S
O303 Sc287 2.105 . S
O303 C293 1.268 . S
O304 Sc288 2.105 . S
O304 C295 1.268 . S
O305 Sc286 2.105 . S
O305 C291 1.268 . S
O306 Sc288 2.105 . S
O306 C290 1.268 . S
O307 Sc287 2.105 . S
O307 C292 1.268 . S
Sc308 O311 2.025 . S
Sc308 O318 2.105 . S
Sc308 O321 2.105 . S
Sc308 O324 2.105 . S
Sc308 O327 2.105 . S
Sc309 O311 2.025 . S
Sc309 O319 2.105 . S
Sc309 O323 2.105 . S
Sc309 O325 2.105 . S
Sc309 O329 2.105 . S
Sc310 O311 2.025 . S
Sc310 O320 2.105 . S
Sc310 O322 2.105 . S
Sc310 O326 2.105 . S
Sc310 O328 2.105 . S
O311 Sc308 2.025 . S
O311 Sc309 2.025 . S
O311 Sc310 2.025 . S
C312 O318 1.268 . S
C312 O328 1.268 . S
C313 O319 1.268 . S
C313 O327 1.268 . S
C314 O320 1.268 . S
C314 O329 1.268 . S
C315 O321 1.268 . S
C315 O325 1.268 . S
C316 O322 1.268 . S
C316 O324 1.268 . S
C317 O323 1.268 . S
C317 O326 1.268 . S
O318 Sc308 2.105 . S
O318 C312 1.268 . S
O319 Sc309 2.105 . S
O319 C313 1.268 . S
O320 Sc310 2.105 . S
O320 C314 1.268 . S
O321 Sc308 2.105 . S
O321 C315 1.268 . S
O322 Sc310 2.105 . S
O322 C316 1.268 . S
O323 Sc309 2.105 . S
O323 C317 1.268 . S
O324 Sc308 2.105 . S
O324 C316 1.268 . S
O325 Sc309 2.105 . S
O325 C315 1.268 . S
O326 Sc310 2.105 . S
O326 C317 1.268 . S
O327 Sc308 2.105 . S
O327 C313 1.268 . S
O328 Sc310 2.105 . S
O328 C312 1.268 . S
O329 Sc309 2.105 . S
O329 C314 1.268 . S
Sc330 O333 2.025 1_556 S
Sc330 O340 2.105 . S
Sc330 O343 2.105 1_556 S
Sc330 O346 2.105 1_556 S
Sc330 O349 2.105 . S
Sc331 O333 2.025 . S
Sc331 O341 2.105 1_554 S
Sc331 O345 2.105 . S
Sc331 O347 2.105 . S
Sc331 O351 2.105 . S
Sc332 O333 2.025 . S
Sc332 O342 2.105 . S
Sc332 O344 2.105 . S
Sc332 O348 2.105 . S
Sc332 O350 2.105 1_554 S
O333 Sc330 2.025 1_554 S
O333 Sc331 2.025 . S
O333 Sc332 2.025 . S
C334 O340 1.268 . S
C334 O350 1.268 . S
C335 O341 1.268 . S
C335 O349 1.268 . S
C336 O342 1.268 . S
C336 O351 1.268 . S
C337 O343 1.268 . S
C337 O347 1.268 . S
C338 O344 1.268 . S
C338 O346 1.268 . S
C339 O345 1.268 . S
C339 O348 1.268 . S
O340 Sc330 2.105 . S
O340 C334 1.268 . S
O341 Sc331 2.105 1_556 S
O341 C335 1.268 . S
O342 Sc332 2.105 . S
O342 C336 1.268 . S
O343 Sc330 2.105 1_554 S
O343 C337 1.268 . S
O344 Sc332 2.105 . S
O344 C338 1.268 . S
O345 Sc331 2.105 . S
O345 C339 1.268 . S
O346 Sc330 2.105 1_554 S
O346 C338 1.268 . S
O347 Sc331 2.105 . S
O347 C337 1.268 . S
O348 Sc332 2.105 . S
O348 C339 1.268 . S
O349 Sc330 2.105 . S
O349 C335 1.268 . S
O350 Sc332 2.105 1_556 S
O350 C334 1.268 . S
O351 Sc331 2.105 . S
O351 C336 1.268 . S
Sc352 O355 2.025 . S
Sc352 O362 2.105 . S
Sc352 O365 2.105 . S
Sc352 O368 2.105 . S
Sc352 O371 2.105 . S
Sc353 O355 2.025 . S
Sc353 O363 2.105 . S
Sc353 O367 2.105 . S
Sc353 O369 2.105 . S
Sc353 O373 2.105 . S
Sc354 O355 2.025 . S
Sc354 O364 2.105 . S
Sc354 O366 2.105 . S
Sc354 O370 2.105 . S
Sc354 O372 2.105 . S
O355 Sc352 2.025 . S
O355 Sc353 2.025 . S
O355 Sc354 2.025 . S
C356 O362 1.268 . S
C356 O372 1.268 . S
C357 O363 1.268 . S
C357 O371 1.268 . S
C358 O364 1.268 . S
C358 O373 1.268 . S
C359 O365 1.262 1_554 S
C359 O369 1.265 1_554 S
C360 O366 1.268 . S
C360 O368 1.268 . S
C361 O367 1.268 . S
C361 O370 1.268 . S
O362 Sc352 2.105 . S
O362 C356 1.268 . S
O363 Sc353 2.105 . S
O363 C357 1.268 . S
O364 Sc354 2.105 . S
O364 C358 1.268 . S
O365 Sc352 2.105 . S
O365 C359 1.262 1_556 S
O366 Sc354 2.105 . S
O366 C360 1.268 . S
O367 Sc353 2.105 . S
O367 C361 1.268 . S
O368 Sc352 2.105 . S
O368 C360 1.268 . S
O369 Sc353 2.105 . S
O369 C359 1.265 1_556 S
O370 Sc354 2.105 . S
O370 C361 1.268 . S
O371 Sc352 2.105 . S
O371 C357 1.268 . S
O372 Sc354 2.105 . S
O372 C356 1.268 . S
O373 Sc353 2.105 . S
O373 C358 1.268 . S
Sc374 O377 2.025 . S
Sc374 O384 2.105 1_554 S
Sc374 O387 2.105 . S
Sc374 O390 2.105 . S
Sc374 O393 2.105 . S
Sc375 O377 2.025 . S
Sc375 O385 2.105 . S
Sc375 O389 2.105 . S
Sc375 O391 2.105 . S
Sc375 O395 2.105 1_554 S
Sc376 O377 2.025 1_556 S
Sc376 O386 2.105 . S
Sc376 O388 2.105 1_556 S
Sc376 O392 2.105 1_556 S
Sc376 O394 2.105 . S
O377 Sc374 2.025 . S
O377 Sc375 2.025 . S
O377 Sc376 2.025 1_554 S
C378 O384 1.268 . S
C378 O394 1.268 . S
C379 O385 1.268 . S
C379 O393 1.268 . S
C380 O386 1.268 . S
C380 O395 1.268 . S
C381 O387 1.268 . S
C381 O391 1.268 . S
C382 O388 1.268 . S
C382 O390 1.268 . S
C383 O389 1.268 . S
C383 O392 1.268 . S
O384 Sc374 2.105 1_556 S
O384 C378 1.268 . S
O385 Sc375 2.105 . S
O385 C379 1.268 . S
O386 Sc376 2.105 . S
O386 C380 1.268 . S
O387 Sc374 2.105 . S
O387 C381 1.268 . S
O388 Sc376 2.105 1_554 S
O388 C382 1.268 . S
O389 Sc375 2.105 . S
O389 C383 1.268 . S
O390 Sc374 2.105 . S
O390 C382 1.268 . S
O391 Sc375 2.105 . S
O391 C381 1.268 . S
O392 Sc376 2.105 1_554 S
O392 C383 1.268 . S
O393 Sc374 2.105 . S
O393 C379 1.268 . S
O394 Sc376 2.105 . S
O394 C378 1.268 . S
O395 Sc375 2.105 1_556 S
O395 C380 1.268 . S
Sc396 O399 2.025 1_455 S
Sc396 O406 2.105 . S
Sc396 O409 2.105 1_455 S
Sc396 O412 2.105 . S
Sc396 O415 2.105 1_455 S
Sc397 O399 2.025 . S
Sc397 O407 2.105 . S
Sc397 O411 2.105 . S
Sc397 O413 2.105 . S
Sc397 O417 2.105 . S
Sc398 O399 2.025 . S
Sc398 O408 2.105 . S
Sc398 O410 2.105 1_655 S
Sc398 O414 2.105 . S
Sc398 O416 2.105 . S
O399 Sc396 2.025 1_655 S
O399 Sc397 2.025 . S
O399 Sc398 2.025 . S
C400 O406 1.268 . S
C400 O416 1.268 1_455 S
C401 O407 1.268 . S
C401 O415 1.268 . S
C402 O408 1.268 . S
C402 O417 1.268 . S
C403 O409 1.268 . S
C403 O413 1.268 . S
C404 O410 1.268 . S
C404 O412 1.268 . S
C405 O411 1.268 . S
C405 O414 1.268 . S
O406 Sc396 2.105 . S
O406 C400 1.268 . S
O407 Sc397 2.105 . S
O407 C401 1.268 . S
O408 Sc398 2.105 . S
O408 C402 1.268 . S
O409 Sc396 2.105 1_655 S
O409 C403 1.268 . S
O410 Sc398 2.105 1_455 S
O410 C404 1.268 . S
O411 Sc397 2.105 . S
O411 C405 1.268 . S
O412 Sc396 2.105 . S
O412 C404 1.268 . S
O413 Sc397 2.105 . S
O413 C403 1.268 . S
O414 Sc398 2.105 . S
O414 C405 1.268 . S
O415 Sc396 2.105 1_655 S
O415 C401 1.268 . S
O416 Sc398 2.105 . S
O416 C400 1.268 1_655 S
O417 Sc397 2.105 . S
O417 C402 1.268 . S
Sc418 O421 2.025 . S
Sc418 O428 2.105 . S
Sc418 O431 2.105 . S
Sc418 O434 2.105 . S
Sc418 O437 2.105 . S
Sc419 O421 2.025 . S
Sc419 O429 2.105 . S
Sc419 O433 2.105 . S
Sc419 O435 2.105 . S
Sc419 O439 2.105 . S
Sc420 O421 2.025 . S
Sc420 O430 2.105 . S
Sc420 O432 2.105 . S
Sc420 O436 2.105 . S
Sc420 O438 2.105 . S
O421 Sc418 2.025 . S
O421 Sc419 2.025 . S
O421 Sc420 2.025 . S
C422 O428 1.268 . S
C422 O438 1.268 . S
C423 O429 1.268 . S
C423 O437 1.268 . S
C424 O430 1.268 . S
C424 O439 1.268 . S
C425 O431 1.268 . S
C425 O435 1.268 . S
C426 O432 1.268 . S
C426 O434 1.268 . S
C427 O433 1.268 . S
C427 O436 1.268 . S
O428 Sc418 2.105 . S
O428 C422 1.268 . S
O429 Sc419 2.105 . S
O429 C423 1.268 . S
O430 Sc420 2.105 . S
O430 C424 1.268 . S
O431 Sc418 2.105 . S
O431 C425 1.268 . S
O432 Sc420 2.105 . S
O432 C426 1.268 . S
O433 Sc419 2.105 . S
O433 C427 1.268 . S
O434 Sc418 2.105 . S
O434 C426 1.268 . S
O435 Sc419 2.105 . S
O435 C425 1.268 . S
O436 Sc420 2.105 . S
O436 C427 1.268 . S
O437 Sc418 2.105 . S
O437 C423 1.268 . S
O438 Sc420 2.105 . S
O438 C422 1.268 . S
O439 Sc419 2.105 . S
O439 C424 1.268 . S
Sc440 O443 2.025 . S
Sc440 O450 2.105 . S
Sc440 O453 2.105 . S
Sc440 O456 2.105 . S
Sc440 O459 2.105 . S
Sc441 O443 2.025 . S
Sc441 O451 2.105 . S
Sc441 O455 2.105 . S
Sc441 O457 2.105 . S
Sc441 O461 2.105 . S
Sc442 O443 2.025 . S
Sc442 O452 2.105 . S
Sc442 O454 2.105 . S
Sc442 O458 2.105 . S
Sc442 O460 2.105 . S
O443 Sc440 2.025 . S
O443 Sc441 2.025 . S
O443 Sc442 2.025 . S
C444 O450 1.268 . S
C444 O460 1.268 . S
C445 O451 1.268 . S
C445 O459 1.268 . S
C446 O452 1.268 . S
C446 O461 1.268 . S
C447 O453 1.268 . S
C447 O457 1.268 . S
C448 O454 1.268 . S
C448 O456 1.268 . S
C449 O455 1.268 . S
C449 O458 1.268 . S
O450 Sc440 2.105 . S
O450 C444 1.268 . S
O451 Sc441 2.105 . S
O451 C445 1.268 . S
O452 Sc442 2.105 . S
O452 C446 1.268 . S
O453 Sc440 2.105 . S
O453 C447 1.268 . S
O454 Sc442 2.105 . S
O454 C448 1.268 . S
O455 Sc441 2.105 . S
O455 C449 1.268 . S
O456 Sc440 2.105 . S
O456 C448 1.268 . S
O457 Sc441 2.105 . S
O457 C447 1.268 . S
O458 Sc442 2.105 . S
O458 C449 1.268 . S
O459 Sc440 2.105 . S
O459 C445 1.268 . S
O460 Sc442 2.105 . S
O460 C444 1.268 . S
O461 Sc441 2.105 . S
O461 C446 1.268 . S
Sc462 O465 2.025 1_554 S
Sc462 O472 2.105 1_554 S
Sc462 O475 2.105 . S
Sc462 O478 2.105 . S
Sc462 O481 2.105 1_554 S
Sc463 O465 2.025 . S
Sc463 O473 2.105 . S
Sc463 O477 2.105 . S
Sc463 O479 2.105 1_556 S
Sc463 O483 2.105 . S
Sc464 O465 2.025 . S
Sc464 O474 2.105 . S
Sc464 O476 2.105 1_556 S
Sc464 O480 2.105 . S
Sc464 O482 2.105 . S
O465 Sc462 2.025 1_556 S
O465 Sc463 2.025 . S
O465 Sc464 2.025 . S
C466 O472 1.268 . S
C466 O482 1.268 . S
C467 O473 1.268 . S
C467 O481 1.268 . S
C468 O474 1.268 . S
C468 O483 1.268 . S
C469 O475 1.268 . S
C469 O479 1.268 . S
C470 O476 1.268 . S
C470 O478 1.268 . S
C471 O477 1.268 . S
C471 O480 1.268 . S
O472 Sc462 2.105 1_556 S
O472 C466 1.268 . S
O473 Sc463 2.105 . S
O473 C467 1.268 . S
O474 Sc464 2.105 . S
O474 C468 1.268 . S
O475 Sc462 2.105 . S
O475 C469 1.268 . S
O476 Sc464 2.105 1_554 S
O476 C470 1.268 . S
O477 Sc463 2.105 . S
O477 C471 1.268 . S
O478 Sc462 2.105 . S
O478 C470 1.268 . S
O479 Sc463 2.105 1_554 S
O479 C469 1.268 . S
O480 Sc464 2.105 . S
O480 C471 1.268 . S
O481 Sc462 2.105 1_556 S
O481 C467 1.268 . S
O482 Sc464 2.105 . S
O482 C466 1.268 . S
O483 Sc463 2.105 . S
O483 C468 1.268 . S
Sc484 O487 2.025 . S
Sc484 O494 2.105 1_655 S
Sc484 O497 2.105 . S
Sc484 O500 2.105 . S
Sc484 O503 2.105 . S
Sc485 O487 2.025 . S
Sc485 O495 2.105 . S
Sc485 O499 2.105 . S
Sc485 O501 2.105 . S
Sc485 O505 2.105 . S
Sc486 O487 2.025 1_455 S
Sc486 O496 2.105 1_455 S
Sc486 O498 2.105 . S
Sc486 O502 2.105 1_455 S
Sc486 O504 2.105 . S
O487 Sc484 2.025 . S
O487 Sc485 2.025 . S
O487 Sc486 2.025 1_655 S
C488 O494 1.268 . S
C488 O504 1.268 . S
C489 O495 1.268 . S
C489 O503 1.268 . S
C490 O496 1.262 1_556 S
C490 O505 1.265 1_556 S
C491 O497 1.268 . S
C491 O501 1.268 . S
C492 O498 1.268 . S
C492 O500 1.268 1_455 S
C493 O499 1.268 . S
C493 O502 1.268 . S
O494 Sc484 2.105 1_455 S
O494 C488 1.268 . S
O495 Sc485 2.105 . S
O495 C489 1.268 . S
O496 Sc486 2.105 1_655 S
O496 C490 1.262 1_554 S
O497 Sc484 2.105 . S
O497 C491 1.268 . S
O498 Sc486 2.105 . S
O498 C492 1.268 . S
O499 Sc485 2.105 . S
O499 C493 1.268 . S
O500 Sc484 2.105 . S
O500 C492 1.268 1_655 S
O501 Sc485 2.105 . S
O501 C491 1.268 . S
O502 Sc486 2.105 1_655 S
O502 C493 1.268 . S
O503 Sc484 2.105 . S
O503 C489 1.268 . S
O504 Sc486 2.105 . S
O504 C488 1.268 . S
O505 Sc485 2.105 . S
O505 C490 1.265 1_554 S
Sc506 O509 2.025 . S
Sc506 O516 2.105 . S
Sc506 O519 2.105 . S
Sc506 O522 2.105 . S
Sc506 O525 2.105 . S
Sc507 O509 2.025 . S
Sc507 O517 2.105 . S
Sc507 O521 2.105 . S
Sc507 O523 2.105 . S
Sc507 O527 2.105 . S
Sc508 O509 2.025 . S
Sc508 O518 2.105 . S
Sc508 O520 2.105 . S
Sc508 O524 2.105 . S
Sc508 O526 2.105 . S
O509 Sc506 2.025 . S
O509 Sc507 2.025 . S
O509 Sc508 2.025 . S
C510 O516 1.268 . S
C510 O526 1.268 . S
C511 O517 1.268 . S
C511 O525 1.268 . S
C512 O518 1.268 . S
C512 O527 1.268 . S
C513 O519 1.268 . S
C513 O523 1.268 . S
C514 O520 1.268 . S
C514 O522 1.268 . S
C515 O521 1.268 . S
C515 O524 1.268 . S
O516 Sc506 2.105 . S
O516 C510 1.268 . S
O517 Sc507 2.105 . S
O517 C511 1.268 . S
O518 Sc508 2.105 . S
O518 C512 1.268 . S
O519 Sc506 2.105 . S
O519 C513 1.268 . S
O520 Sc508 2.105 . S
O520 C514 1.268 . S
O521 Sc507 2.105 . S
O521 C515 1.268 . S
O522 Sc506 2.105 . S
O522 C514 1.268 . S
O523 Sc507 2.105 . S
O523 C513 1.268 . S
O524 Sc508 2.105 . S
O524 C515 1.268 . S
O525 Sc506 2.105 . S
O525 C511 1.268 . S
O526 Sc508 2.105 . S
O526 C510 1.268 . S
O527 Sc507 2.105 . S
O527 C512 1.268 . S
Sc528 O531 2.025 . S
Sc528 O538 2.105 . S
Sc528 O541 2.105 . S
Sc528 O544 2.105 . S
Sc528 O547 2.105 . S
Sc529 O531 2.025 . S
Sc529 O539 2.105 . S
Sc529 O543 2.105 . S
Sc529 O545 2.105 . S
Sc529 O549 2.105 . S
Sc530 O531 2.025 . S
Sc530 O540 2.105 . S
Sc530 O542 2.105 . S
Sc530 O546 2.105 . S
Sc530 O548 2.105 . S
O531 Sc528 2.025 . S
O531 Sc529 2.025 . S
O531 Sc530 2.025 . S
C532 O538 1.268 . S
C532 O548 1.268 . S
C533 O539 1.265 1_556 S
C533 O547 1.262 1_556 S
C534 O540 1.268 . S
C534 O549 1.268 . S
C535 O541 1.268 . S
C535 O545 1.268 . S
C536 O542 1.268 . S
C536 O544 1.268 . S
C537 O543 1.268 . S
C537 O546 1.268 . S
O538 Sc528 2.105 . S
O538 C532 1.268 . S
O539 Sc529 2.105 . S
O539 C533 1.265 1_554 S
O540 Sc530 2.105 . S
O540 C534 1.268 . S
O541 Sc528 2.105 . S
O541 C535 1.268 . S
O542 Sc530 2.105 . S
O542 C536 1.268 . S
O543 Sc529 2.105 . S
O543 C537 1.268 . S
O544 Sc528 2.105 . S
O544 C536 1.268 . S
O545 Sc529 2.105 . S
O545 C535 1.268 . S
O546 Sc530 2.105 . S
O546 C537 1.268 . S
O547 Sc528 2.105 . S
O547 C533 1.262 1_554 S
O548 Sc530 2.105 . S
O548 C532 1.268 . S
O549 Sc529 2.105 . S
O549 C534 1.268 . S
Sc550 O553 2.025 . S
Sc550 O560 2.105 . S
Sc550 O563 2.105 . S
Sc550 O566 2.105 1_556 S
Sc550 O569 2.105 . S
Sc551 O553 2.025 . S
Sc551 O561 2.105 . S
Sc551 O565 2.105 1_556 S
Sc551 O567 2.105 . S
Sc551 O571 2.105 . S
Sc552 O553 2.025 1_554 S
Sc552 O562 2.105 1_554 S
Sc552 O564 2.105 . S
Sc552 O568 2.105 . S
Sc552 O570 2.105 1_554 S
O553 Sc550 2.025 . S
O553 Sc551 2.025 . S
O553 Sc552 2.025 1_556 S
C554 O560 1.268 . S
C554 O570 1.268 . S
C555 O561 1.268 . S
C555 O569 1.268 . S
C556 O562 1.268 . S
C556 O571 1.268 . S
C557 O563 1.268 . S
C557 O567 1.268 . S
C558 O564 1.268 . S
C558 O566 1.268 . S
C559 O565 1.268 . S
C559 O568 1.268 . S
O560 Sc550 2.105 . S
O560 C554 1.268 . S
O561 Sc551 2.105 . S
O561 C555 1.268 . S
O562 Sc552 2.105 1_556 S
O562 C556 1.268 . S
O563 Sc550 2.105 . S
O563 C557 1.268 . S
O564 Sc552 2.105 . S
O564 C558 1.268 . S
O565 Sc551 2.105 1_554 S
O565 C559 1.268 . S
O566 Sc550 2.105 1_554 S
O566 C558 1.268 . S
O567 Sc551 2.105 . S
O567 C557 1.268 . S
O568 Sc552 2.105 . S
O568 C559 1.268 . S
O569 Sc550 2.105 . S
O569 C555 1.268 . S
O570 Sc552 2.105 1_556 S
O570 C554 1.268 . S
O571 Sc551 2.105 . S
O571 C556 1.268 . S
Sc572 O575 2.025 1_655 S
Sc572 O582 2.105 . S
Sc572 O585 2.105 1_655 S
Sc572 O588 2.105 . S
Sc572 O591 2.105 1_655 S
Sc573 O575 2.025 . S
Sc573 O583 2.105 . S
Sc573 O587 2.105 . S
Sc573 O589 2.105 . S
Sc573 O593 2.105 . S
Sc574 O575 2.025 . S
Sc574 O584 2.105 . S
Sc574 O586 2.105 . S
Sc574 O590 2.105 . S
Sc574 O592 2.105 1_455 S
O575 Sc572 2.025 1_455 S
O575 Sc573 2.025 . S
O575 Sc574 2.025 . S
C576 O582 1.268 . S
C576 O592 1.268 . S
C577 O583 1.268 . S
C577 O591 1.268 . S
C578 O584 1.268 . S
C578 O593 1.268 . S
C579 O585 1.268 . S
C579 O589 1.268 . S
C580 O586 1.268 1_655 S
C580 O588 1.268 . S
C581 O587 1.268 . S
C581 O590 1.268 . S
O582 Sc572 2.105 . S
O582 C576 1.268 . S
O583 Sc573 2.105 . S
O583 C577 1.268 . S
O584 Sc574 2.105 . S
O584 C578 1.268 . S
O585 Sc572 2.105 1_455 S
O585 C579 1.268 . S
O586 Sc574 2.105 . S
O586 C580 1.268 1_455 S
O587 Sc573 2.105 . S
O587 C581 1.268 . S
O588 Sc572 2.105 . S
O588 C580 1.268 . S
O589 Sc573 2.105 . S
O589 C579 1.268 . S
O590 Sc574 2.105 . S
O590 C581 1.268 . S
O591 Sc572 2.105 1_455 S
O591 C577 1.268 . S
O592 Sc574 2.105 1_655 S
O592 C576 1.268 . S
O593 Sc573 2.105 . S
O593 C578 1.268 . S
Sc594 O597 2.025 . S
Sc594 O604 2.105 . S
Sc594 O607 2.105 . S
Sc594 O610 2.105 . S
Sc594 O613 2.105 . S
Sc595 O597 2.025 . S
Sc595 O605 2.105 . S
Sc595 O609 2.105 . S
Sc595 O611 2.105 . S
Sc595 O615 2.105 . S
Sc596 O597 2.025 . S
Sc596 O606 2.105 . S
Sc596 O608 2.105 . S
Sc596 O612 2.105 . S
Sc596 O614 2.105 . S
O597 Sc594 2.025 . S
O597 Sc595 2.025 . S
O597 Sc596 2.025 . S
C598 O604 1.268 . S
C598 O614 1.268 . S
C599 O605 1.268 . S
C599 O613 1.268 . S
C600 O606 1.268 . S
C600 O615 1.268 . S
C601 O607 1.268 . S
C601 O611 1.268 . S
C602 O608 1.268 . S
C602 O610 1.268 . S
C603 O609 1.268 . S
C603 O612 1.268 . S
O604 Sc594 2.105 . S
O604 C598 1.268 . S
O605 Sc595 2.105 . S
O605 C599 1.268 . S
O606 Sc596 2.105 . S
O606 C600 1.268 . S
O607 Sc594 2.105 . S
O607 C601 1.268 . S
O608 Sc596 2.105 . S
O608 C602 1.268 . S
O609 Sc595 2.105 . S
O609 C603 1.268 . S
O610 Sc594 2.105 . S
O610 C602 1.268 . S
O611 Sc595 2.105 . S
O611 C601 1.268 . S
O612 Sc596 2.105 . S
O612 C603 1.268 . S
O613 Sc594 2.105 . S
O613 C599 1.268 . S
O614 Sc596 2.105 . S
O614 C598 1.268 . S
O615 Sc595 2.105 . S
O615 C600 1.268 . S
Sc616 O619 2.025 . S
Sc616 O626 2.105 . S
Sc616 O629 2.105 . S
Sc616 O632 2.105 . S
Sc616 O635 2.105 . S
Sc617 O619 2.025 . S
Sc617 O627 2.105 . S
Sc617 O631 2.105 . S
Sc617 O633 2.105 . S
Sc617 O637 2.105 . S
Sc618 O619 2.025 . S
Sc618 O628 2.105 . S
Sc618 O630 2.105 . S
Sc618 O634 2.105 . S
Sc618 O636 2.105 . S
O619 Sc616 2.025 . S
O619 Sc617 2.025 . S
O619 Sc618 2.025 . S
C620 O626 1.268 . S
C620 O636 1.268 . S
C621 O627 1.268 . S
C621 O635 1.268 . S
C622 O628 1.268 . S
C622 O637 1.268 . S
C623 O629 1.268 . S
C623 O633 1.268 . S
C624 O630 1.268 . S
C624 O632 1.268 . S
C625 O631 1.268 . S
C625 O634 1.268 . S
O626 Sc616 2.105 . S
O626 C620 1.268 . S
O627 Sc617 2.105 . S
O627 C621 1.268 . S
O628 Sc618 2.105 . S
O628 C622 1.268 . S
O629 Sc616 2.105 . S
O629 C623 1.268 . S
O630 Sc618 2.105 . S
O630 C624 1.268 . S
O631 Sc617 2.105 . S
O631 C625 1.268 . S
O632 Sc616 2.105 . S
O632 C624 1.268 . S
O633 Sc617 2.105 . S
O633 C623 1.268 . S
O634 Sc618 2.105 . S
O634 C625 1.268 . S
O635 Sc616 2.105 . S
O635 C621 1.268 . S
O636 Sc618 2.105 . S
O636 C620 1.268 . S
O637 Sc617 2.105 . S
O637 C622 1.268 . S
Sc638 O641 2.025 1_556 S
Sc638 O648 2.105 . S
Sc638 O651 2.105 1_556 S
Sc638 O654 2.105 1_556 S
Sc638 O657 2.105 . S
Sc639 O641 2.025 . S
Sc639 O649 2.105 1_554 S
Sc639 O653 2.105 . S
Sc639 O655 2.105 . S
Sc639 O659 2.105 . S
Sc640 O641 2.025 . S
Sc640 O650 2.105 . S
Sc640 O652 2.105 . S
Sc640 O656 2.105 . S
Sc640 O658 2.105 1_554 S
O641 Sc638 2.025 1_554 S
O641 Sc639 2.025 . S
O641 Sc640 2.025 . S
C642 O648 1.268 . S
C642 O658 1.268 . S
C643 O649 1.268 . S
C643 O657 1.268 . S
C644 O650 1.268 . S
C644 O659 1.268 . S
C645 O651 1.268 . S
C645 O655 1.268 . S
C646 O652 1.268 . S
C646 O654 1.268 . S
C647 O653 1.268 . S
C647 O656 1.268 . S
O648 Sc638 2.105 . S
O648 C642 1.268 . S
O649 Sc639 2.105 1_556 S
O649 C643 1.268 . S
O650 Sc640 2.105 . S
O650 C644 1.268 . S
O651 Sc638 2.105 1_554 S
O651 C645 1.268 . S
O652 Sc640 2.105 . S
O652 C646 1.268 . S
O653 Sc639 2.105 . S
O653 C647 1.268 . S
O654 Sc638 2.105 1_554 S
O654 C646 1.268 . S
O655 Sc639 2.105 . S
O655 C645 1.268 . S
O656 Sc640 2.105 . S
O656 C647 1.268 . S
O657 Sc638 2.105 . S
O657 C643 1.268 . S
O658 Sc640 2.105 1_556 S
O658 C642 1.268 . S
O659 Sc639 2.105 . S
O659 C644 1.268 . S
Sc660 O663 2.025 . S
Sc660 O670 2.105 . S
Sc660 O673 2.105 . S
Sc660 O676 2.105 1_455 S
Sc660 O679 2.105 . S
Sc661 O663 2.025 . S
Sc661 O671 2.105 . S
Sc661 O675 2.105 . S
Sc661 O677 2.105 . S
Sc661 O681 2.105 . S
Sc662 O663 2.025 1_655 S
Sc662 O672 2.105 1_655 S
Sc662 O674 2.105 . S
Sc662 O678 2.105 1_655 S
Sc662 O680 2.105 . S
O663 Sc660 2.025 . S
O663 Sc661 2.025 . S
O663 Sc662 2.025 1_455 S
C664 O670 1.268 1_655 S
C664 O680 1.268 . S
C665 O671 1.268 . S
C665 O679 1.268 . S
C666 O672 1.268 . S
C666 O681 1.268 . S
C667 O673 1.268 . S
C667 O677 1.268 . S
C668 O674 1.268 . S
C668 O676 1.268 . S
C669 O675 1.265 1_554 S
C669 O678 1.262 1_554 S
O670 Sc660 2.105 . S
O670 C664 1.268 1_455 S
O671 Sc661 2.105 . S
O671 C665 1.268 . S
O672 Sc662 2.105 1_455 S
O672 C666 1.268 . S
O673 Sc660 2.105 . S
O673 C667 1.268 . S
O674 Sc662 2.105 . S
O674 C668 1.268 . S
O675 Sc661 2.105 . S
O675 C669 1.265 1_556 S
O676 Sc660 2.105 1_655 S
O676 C668 1.268 . S
O677 Sc661 2.105 . S
O677 C667 1.268 . S
O678 Sc662 2.105 1_455 S
O678 C669 1.262 1_556 S
O679 Sc660 2.105 . S
O679 C665 1.268 . S
O680 Sc662 2.105 . S
O680 C664 1.268 . S
O681 Sc661 2.105 . S
O681 C666 1.268 . S
Sc682 O685 2.025 . S
Sc682 O692 2.105 . S
Sc682 O695 2.105 . S
Sc682 O698 2.105 . S
Sc682 O701 2.105 . S
Sc683 O685 2.025 . S
Sc683 O693 2.105 . S
Sc683 O697 2.105 . S
Sc683 O699 2.105 . S
Sc683 O703 2.105 . S
Sc684 O685 2.025 . S
Sc684 O694 2.105 . S
Sc684 O696 2.105 . S
Sc684 O700 2.105 . S
Sc684 O702 2.105 . S
O685 Sc682 2.025 . S
O685 Sc683 2.025 . S
O685 Sc684 2.025 . S
C686 O692 1.268 . S
C686 O702 1.268 . S
C687 O693 1.268 . S
C687 O701 1.268 . S
C688 O694 1.268 . S
C688 O703 1.268 . S
C689 O695 1.268 . S
C689 O699 1.268 . S
C690 O696 1.268 . S
C690 O698 1.268 . S
C691 O697 1.268 . S
C691 O700 1.268 . S
O692 Sc682 2.105 . S
O692 C686 1.268 . S
O693 Sc683 2.105 . S
O693 C687 1.268 . S
O694 Sc684 2.105 . S
O694 C688 1.268 . S
O695 Sc682 2.105 . S
O695 C689 1.268 . S
O696 Sc684 2.105 . S
O696 C690 1.268 . S
O697 Sc683 2.105 . S
O697 C691 1.268 . S
O698 Sc682 2.105 . S
O698 C690 1.268 . S
O699 Sc683 2.105 . S
O699 C689 1.268 . S
O700 Sc684 2.105 . S
O700 C691 1.268 . S
O701 Sc682 2.105 . S
O701 C687 1.268 . S
O702 Sc684 2.105 . S
O702 C686 1.268 . S
O703 Sc683 2.105 . S
O703 C688 1.268 . S
C5 C97 1.348 1_545 S
C27 C119 1.348 . S
C141 C49 1.348 1_545 S
C163 C71 1.348 1_556 S
C183 C270 1.348 1_565 S
C292 C205 1.348 . S
C314 C227 1.348 1_565 S
C336 C249 1.348 1_554 S
C449 C357 1.348 . S
C471 C379 1.348 1_556 S
C493 C401 1.348 . S
C515 C423 1.348 . S
C622 C535 1.348 . S
C644 C557 1.348 1_554 S
C579 C666 1.348 . S
C688 C601 1.348 . S
C4 C273 2.063 . S
C647 C26 2.056 . S
C48 C317 2.056 . S
C70 C691 2.056 . S
C181 C96 2.056 . S
C118 C555 2.056 . S
C225 C140 2.063 . S
C599 C162 2.056 . S
C94 C184 2.063 . S
C206 C468 2.056 . S
C138 C228 2.056 . S
C512 C250 2.056 . S
C7 C268 2.056 . S
C290 C381 2.056 . S
C312 C51 2.063 . S
C425 C334 2.056 . S
C625 C356 2.056 . S
C378 C295 2.056 . S
C400 C669 2.063 . S
C422 C339 2.056 . S
C533 C448 2.063 . S
C470 C203 2.056 . S
C577 C492 2.056 . S
C247 C514 2.056 . S
C446 C536 2.056 . S
C116 C558 2.056 . S
C490 C580 2.063 . S
C160 C602 2.056 . S
C359 C620 2.063 . S
C29 C642 2.056 . S
C403 C664 2.056 . S
C73 C686 2.056 . S
C598 C9 1.255 . S
C31 C180 1.255 . S
C554 C53 1.255 . S
C75 C224 1.255 . S
C646 C93 1.255 . S
C316 C115 1.255 . S
C690 C137 1.255 . S
C159 C272 1.255 . S
C182 C426 1.255 . S
C204 C8 1.255 . S
C382 C226 1.255 . S
C52 C248 1.255 . S
C271 C466 1.255 . S
C293 C136 1.255 . S
C510 C315 1.255 . S
C92 C337 1.255 . S
C246 C361 1.255 . S
C383 C532 1.255 . S
C202 C405 1.255 . S
C576 C427 1.255 . S
C294 C445 1.255 . S
C467 C668 1.255 . S
C489 C338 1.255 . S
C624 C511 1.255 . S
C74 C534 1.255 . S
C360 C556 1.255 . S
C578 C30 1.255 . S
C600 C404 1.255 . S
C114 C623 1.255 . S
C488 C645 1.255 . S
C667 C158 1.255 . S
C444 C689 1.255 . S
C161 C6 1.268 . S
C28 C95 1.268 . S
C50 C117 1.268 . S
C139 C72 1.268 . S
C185 C335 1.268 . S
C269 C207 1.268 . S
C291 C229 1.268 . S
C251 C313 1.268 . S
C358 C513 1.268 . S
C447 C380 1.268 . S
C469 C402 1.268 . S
C491 C424 1.268 . S
C537 C687 1.268 . S
C621 C559 1.268 . S
C581 C643 1.268 . S
C665 C603 1.268 . S
