# Generated by pormake.
# Topology mmt, (4)-cn, num edge types: 1
# Building blocks:
#     Node 0, Type 0, BuildingBlock: AZAVOO_clean_sbu_0, # of connection points: 4
#     Node 1, Type 0, BuildingBlock: AZAVOO_clean_sbu_0, # of connection points: 4
#     Node 2, Type 0, BuildingBlock: AZAVOO_clean_sbu_0, # of connection points: 4
#     Node 3, Type 0, BuildingBlock: AZAVOO_clean_sbu_0, # of connection points: 4
#     Node 4, Type 0, BuildingBlock: AZAVOO_clean_sbu_0, # of connection points: 4
#     Node 5, Type 0, BuildingBlock: AZAVOO_clean_sbu_0, # of connection points: 4
#     Node 6, Type 0, BuildingBlock: AZAVOO_clean_sbu_0, # of connection points: 4
#     Node 7, Type 0, BuildingBlock: AZAVOO_clean_sbu_0, # of connection points: 4
#     Edge 8, Type (0, 0), BuildingBlock: EZIPEK_clean_linker_0, # of connection points: 2
#     Edge 9, Type (0, 0), BuildingBlock: EZIPEK_clean_linker_0, # of connection points: 2
#     Edge 10, Type (0, 0), BuildingBlock: EZIPEK_clean_linker_0, # of connection points: 2
#     Edge 11, Type (0, 0), BuildingBlock: EZIPEK_clean_linker_0, # of connection points: 2
#     Edge 12, Type (0, 0), BuildingBlock: EZIPEK_clean_linker_0, # of connection points: 2
#     Edge 13, Type (0, 0), BuildingBlock: EZIPEK_clean_linker_0, # of connection points: 2
#     Edge 14, Type (0, 0), BuildingBlock: EZIPEK_clean_linker_0, # of connection points: 2
#     Edge 15, Type (0, 0), BuildingBlock: EZIPEK_clean_linker_0, # of connection points: 2
#     Edge 16, Type (0, 0), BuildingBlock: EZIPEK_clean_linker_0, # of connection points: 2
#     Edge 17, Type (0, 0), BuildingBlock: EZIPEK_clean_linker_0, # of connection points: 2
#     Edge 18, Type (0, 0), BuildingBlock: EZIPEK_clean_linker_0, # of connection points: 2
#     Edge 19, Type (0, 0), BuildingBlock: EZIPEK_clean_linker_0, # of connection points: 2
#     Edge 20, Type (0, 0), BuildingBlock: EZIPEK_clean_linker_0, # of connection points: 2
#     Edge 21, Type (0, 0), BuildingBlock: EZIPEK_clean_linker_0, # of connection points: 2
#     Edge 22, Type (0, 0), BuildingBlock: EZIPEK_clean_linker_0, # of connection points: 2
#     Edge 23, Type (0, 0), BuildingBlock: EZIPEK_clean_linker_0, # of connection points: 2
# Relax obj value: 0.092
# Max RMSD: 0.147
# Mean RMSD: 0.147
data_MOF--net-mmt--node1-AZAVOO_clean_sbu_0--edge1-EZIPEK_clean_linker_0
_symmetry_space_group_name_H-M    P1
_symmetry_Int_Tables_number       1
_symmetry_cell_setting            triclinic
loop_
_symmetry_equiv_pos_as_xyz
'x, y, z'
_cell_length_a     14.732913
_cell_length_b     29.945112
_cell_length_c     31.129558
_cell_angle_alpha  90.112011
_cell_angle_beta   89.991137
_cell_angle_gamma 89.912703
loop_
_atom_site_label
_atom_site_type_symbol
_atom_site_fract_x
_atom_site_fract_y
_atom_site_fract_z
_atom_type_partial_charge
Mg0 Mg 0.29375 0.53537 0.38186 0.0
O1 O 0.20664 0.52782 0.32086 0.0
O2 O 0.27928 0.56076 0.2661 0.0
Mg3 Mg 0.41426 0.58772 0.29111 0.0
C4 C 0.21193 0.53916 0.28133 0.0
C5 C 0.16479 0.53248 0.46182 0.0
O6 O 0.22686 0.56029 0.476 0.0
O7 O 0.25716 0.60955 0.38686 0.0
O8 O 0.33833 0.63851 0.3328 0.0
O9 O 0.36986 0.47174 0.36565 0.0
O10 O 0.40687 0.53864 0.34283 0.0
C11 C 0.28487 0.64283 0.36484 0.0
C12 C 0.42109 0.4964 0.34166 0.0
O13 O 0.17276 0.51585 0.42436 0.0
Mg14 Mg 0.20408 0.93317 0.40382 0.0
O15 O 0.298 0.93959 0.34544 0.0
O16 O 0.22151 0.92327 0.28546 0.0
Mg17 Mg 0.08242 0.897 0.30656 0.0
C18 C 0.29347 0.93632 0.30457 0.0
C19 C 0.32828 0.97659 0.47459 0.0
O20 O 0.26063 0.00516 0.47552 0.0
O21 O 0.22569 0.8578 0.40248 0.0
O22 O 0.14984 0.8388 0.3427 0.0
O23 O 0.14454 0.00173 0.39109 0.0
O24 O 0.09208 0.93879 0.36397 0.0
C25 C 0.19775 0.82867 0.3755 0.0
C26 C 0.08813 0.98154 0.3658 0.0
O27 O 0.32571 0.94361 0.44881 0.0
Mg28 Mg 0.80224 0.43426 0.12846 0.0
O29 O 0.70211 0.44367 0.18431 0.0
O30 O 0.76532 0.41577 0.24378 0.0
Mg31 Mg 0.90668 0.38861 0.22621 0.0
C32 C 0.6996 0.4348 0.22432 0.0
C33 C 0.69075 0.47849 0.0519 0.0
O34 O 0.7673 0.49976 0.04514 0.0
O35 O 0.77076 0.3595 0.12505 0.0
O36 O 0.84226 0.33464 0.18395 0.0
O37 O 0.87227 0.49915 0.14586 0.0
O38 O 0.91361 0.4331 0.17033 0.0
C39 C 0.79593 0.32787 0.14989 0.0
C40 C 0.92536 0.47548 0.16995 0.0
O41 O 0.68506 0.45055 0.08247 0.0
Mg42 Mg 0.71821 0.03456 0.15372 0.0
O43 O 0.81642 0.03401 0.21102 0.0
O44 O 0.75455 0.07415 0.26422 0.0
Mg45 Mg 0.61045 0.09474 0.24293 0.0
C46 C 0.81935 0.05089 0.24865 0.0
C47 C 0.82267 0.0009 0.07075 0.0
O48 O 0.73966 -0.00054 0.05544 0.0
O49 O 0.74735 0.10845 0.14014 0.0
O50 O 0.67212 0.14187 0.19377 0.0
O51 O 0.65285 0.97149 0.17846 0.0
O52 O 0.60641 0.03904 0.1959 0.0
C53 C 0.71984 0.14351 0.15966 0.0
C54 C 0.59734 0.99648 0.20007 0.0
O55 O 0.83564 0.0132 0.10942 0.0
Mg56 Mg 0.7311 0.45754 0.64372 0.0
O57 O 0.81616 0.4623 0.7057 0.0
O58 O 0.73493 0.43442 0.76017 0.0
Mg59 Mg 0.59644 0.41321 0.7334 0.0
C60 C 0.80712 0.45223 0.74535 0.0
C61 C 0.85162 0.49382 0.56869 0.0
O62 O 0.7718 0.50893 0.55672 0.0
O63 O 0.75427 0.38197 0.64038 0.0
O64 O 0.66641 0.35803 0.69437 0.0
O65 O 0.6665 0.52449 0.65758 0.0
O66 O 0.61184 0.45983 0.67949 0.0
C67 C 0.72047 0.35057 0.66306 0.0
C68 C 0.60596 0.5026 0.6791 0.0
O69 O 0.8583 0.47153 0.6033 0.0
Mg70 Mg 0.77849 0.05565 0.64533 0.0
O71 O 0.69224 0.05123 0.70705 0.0
O72 O 0.77314 0.07956 0.76154 0.0
Mg73 Mg 0.91209 0.10059 0.73528 0.0
C74 C 0.70107 0.06161 0.74668 0.0
C75 C 0.63587 0.00413 0.58779 0.0
O76 O 0.69076 0.9706 0.59592 0.0
O77 O 0.75603 0.13123 0.64181 0.0
O78 O 0.84334 0.15568 0.69586 0.0
O79 O 0.84284 0.9887 0.65957 0.0
O80 O 0.89689 0.05349 0.68161 0.0
C81 C 0.78973 0.16284 0.66436 0.0
C82 C 0.90286 0.01074 0.68133 0.0
O83 O 0.65236 0.04238 0.60382 0.0
Mg84 Mg 0.23225 0.55702 0.88508 0.0
O85 O 0.31609 0.55326 0.82278 0.0
O86 O 0.23389 0.58162 0.76887 0.0
Mg87 Mg 0.09541 0.60217 0.79648 0.0
C88 C 0.30645 0.56372 0.78329 0.0
C89 C 0.37129 0.50893 0.94696 0.0
O90 O 0.30655 0.47883 0.94761 0.0
O91 O 0.25304 0.63259 0.88938 0.0
O92 O 0.16407 0.65726 0.83608 0.0
O93 O 0.16869 0.49001 0.87048 0.0
O94 O 0.11237 0.55484 0.84982 0.0
C95 C 0.21818 0.6643 0.86743 0.0
C96 C 0.10731 0.51207 0.84956 0.0
O97 O 0.36149 0.54394 0.92436 0.0
Mg98 Mg 0.27647 0.95907 0.88851 0.0
O99 O 0.19205 0.96288 0.82625 0.0
O100 O 0.27382 0.93371 0.77238 0.0
Mg101 Mg 0.41184 0.91253 0.79956 0.0
C102 C 0.20157 0.952 0.78677 0.0
C103 C 0.1296 0.95368 0.96261 0.0
O104 O 0.18123 0.92016 0.97459 0.0
O105 O 0.25223 0.88357 0.89262 0.0
O106 O 0.3407 0.85859 0.83915 0.0
O107 O 0.34219 0.0254 0.87368 0.0
O108 O 0.39592 0.96006 0.85275 0.0
C109 C 0.28614 0.85175 0.87033 0.0
C110 C 0.40232 0.00279 0.85243 0.0
O111 O 0.1495 0.97545 0.92882 0.0
C112 C 0.56854 0.50466 0.30255 0.0
C113 C 0.49128 0.478 0.31184 0.0
C114 C 0.55151 0.42063 0.26282 0.0
C115 C 0.62119 0.45039 0.25012 0.0
N116 N 0.66961 0.52711 0.24593 0.0
N117 N 0.39824 0.41495 0.29013 0.0
C118 C 0.62151 0.49446 0.26613 0.0
C119 C 0.47938 0.43691 0.28919 0.0
N120 N 0.59454 0.53851 0.32931 0.0
N121 N 0.55323 0.37725 0.24927 0.0
H122 H 0.34086 0.42737 0.30558 0.0
H123 H 0.38478 0.38705 0.27113 0.0
H124 H 0.60262 0.36503 0.22825 0.0
H125 H 0.50903 0.35307 0.26111 0.0
H126 H 0.65414 0.5566 0.32449 0.0
H127 H 0.56403 0.54436 0.35902 0.0
H128 H 0.66707 0.56048 0.25556 0.0
H129 H 0.70081 0.52179 0.2163 0.0
C130 C 0.87115 -0.00225 0.30479 0.0
C131 C 0.89045 0.03508 0.27852 0.0
C132 C 0.04258 0.03991 0.31028 0.0
C133 C 0.01909 0.00516 0.33941 0.0
N134 N 0.90071 0.96129 0.37235 0.0
N135 N 0.98891 0.09612 0.25993 0.0
C136 C 0.93 0.98739 0.33915 0.0
C137 C 0.97441 0.05775 0.28254 0.0
N138 N 0.79887 0.97076 0.29581 0.0
N139 N 0.13029 0.05417 0.3073 0.0
H140 H 0.94134 0.109 0.23839 0.0
H141 H 0.04497 0.11667 0.26477 0.0
H142 H 0.18198 0.04204 0.32681 0.0
H143 H 0.1531 0.07566 0.28337 0.0
H144 H 0.7867 0.94091 0.31195 0.0
H145 H 0.75792 0.97521 0.26886 0.0
H146 H 0.8336 0.95078 0.37541 0.0
H147 H 0.94062 0.95462 0.39928 0.0
C148 C 0.08981 0.4892 0.18459 0.0
C149 C 0.99795 0.49556 0.19672 0.0
C150 C 0.04712 0.53638 0.26091 0.0
C151 C 0.13861 0.52524 0.25155 0.0
N152 N 0.2455 0.48302 0.20863 0.0
N153 N 0.88987 0.51629 0.25119 0.0
C154 C 0.15983 0.49967 0.21434 0.0
C155 C 0.97666 0.5169 0.23614 0.0
N156 N 0.11022 0.47343 0.14449 0.0
N157 N 0.02741 0.56637 0.29271 0.0
H158 H 0.83843 0.49999 0.23469 0.0
H159 H 0.8715 0.5274 0.28173 0.0
H160 H 0.07737 0.58217 0.31092 0.0
H161 H 0.96231 0.57884 0.29807 0.0
H162 H 0.17604 0.47248 0.13229 0.0
H163 H 0.06056 0.46514 0.12196 0.0
H164 H 0.26216 0.46034 0.18446 0.0
H165 H 0.29808 0.4881 0.23051 0.0
C166 C 0.46692 0.94252 0.2133 0.0
C167 C 0.52483 0.97724 0.22819 0.0
C168 C 0.42534 0.9878 0.29035 0.0
C169 C 0.37375 0.94975 0.27845 0.0
N170 N 0.36521 0.88315 0.23438 0.0
N171 N 0.57457 0.01941 0.28977 0.0
C172 C 0.40027 0.92468 0.24161 0.0
C173 C 0.50854 0.99596 0.26933 0.0
N174 N 0.47188 0.92778 0.17183 0.0
N175 N 0.39433 0.01751 0.32034 0.0
H176 H 0.63915 0.02164 0.27694 0.0
H177 H 0.56858 0.03068 0.32138 0.0
H178 H 0.33082 0.01525 0.33477 0.0
H179 H 0.42767 0.04745 0.32696 0.0
H180 H 0.42496 0.90554 0.15878 0.0
H181 H 0.51631 0.94108 0.14921 0.0
H182 H 0.38863 0.86229 0.20991 0.0
H183 H 0.32118 0.86743 0.25574 0.0
C184 C 0.46921 0.57154 0.75997 0.0
C185 C 0.38153 0.5532 0.75293 0.0
C186 C 0.43964 0.51247 0.69025 0.0
C187 C 0.52936 0.52487 0.7016 0.0
N188 N 0.63155 0.56515 0.74807 0.0
N189 N 0.28411 0.50306 0.71316 0.0
C190 C 0.54479 0.55459 0.73639 0.0
C191 C 0.36665 0.5232 0.71824 0.0
N192 N 0.47954 0.60602 0.78837 0.0
N193 N 0.42394 0.49141 0.65194 0.0
H194 H 0.22802 0.51024 0.7323 0.0
H195 H 0.27292 0.47665 0.692 0.0
H196 H 0.47563 0.4839 0.63015 0.0
H197 H 0.35921 0.48562 0.63972 0.0
H198 H 0.53965 0.62384 0.79207 0.0
H199 H 0.42519 0.61971 0.80537 0.0
H200 H 0.64768 0.58248 0.77605 0.0
H201 H 0.68844 0.55389 0.73132 0.0
C202 C 0.06896 0.00125 0.69285 0.0
C203 C 0.97928 0.98873 0.70406 0.0
C204 C 0.03909 0.94338 0.76327 0.0
C205 C 0.12652 0.96203 0.75634 0.0
N206 N 0.22409 0.01147 0.71602 0.0
N207 N 0.87692 0.94836 0.75021 0.0
C208 C 0.14163 0.99131 0.72121 0.0
C209 C 0.96369 0.95943 0.73905 0.0
N210 N 0.08491 0.02165 0.6543 0.0
N211 N 0.02888 0.90944 0.79217 0.0
H212 H 0.82027 0.95883 0.73287 0.0
H213 H 0.86036 0.93128 0.77822 0.0
H214 H 0.08311 0.89642 0.80968 0.0
H215 H 0.9691 0.89138 0.79591 0.0
H216 H 0.14972 0.02743 0.64218 0.0
H217 H 0.03343 0.02854 0.63226 0.0
H218 H 0.23541 0.03744 0.69448 0.0
H219 H 0.28002 0.00476 0.73539 0.0
C220 C 0.04594 0.46067 0.79189 0.0
C221 C 0.03068 0.49003 0.827 0.0
C222 C 0.86801 0.4924 0.81038 0.0
C223 C 0.88267 0.4627 0.77541 0.0
N224 N 0.98036 0.40983 0.73959 0.0
N225 N 0.92537 0.52305 0.8771 0.0
C226 C 0.97024 0.44415 0.7682 0.0
C227 C 0.94101 0.50251 0.83851 0.0
N228 N 0.13262 0.45005 0.78002 0.0
N229 N 0.78567 0.51281 0.81563 0.0
H230 H 0.97706 0.53002 0.89902 0.0
H231 H 0.86063 0.52884 0.88937 0.0
H232 H 0.72965 0.50618 0.79629 0.0
H233 H 0.77467 0.53897 0.83711 0.0
H234 H 0.14856 0.43298 0.75183 0.0
H235 H 0.18962 0.461 0.7968 0.0
H236 H 0.04037 0.39185 0.73579 0.0
H237 H 0.92593 0.39641 0.72253 0.0
C238 C 0.46289 0.05349 0.79418 0.0
C239 C 0.4787 0.02422 0.82921 0.0
C240 C 0.64092 0.02139 0.81166 0.0
C241 C 0.62575 0.05107 0.77683 0.0
N242 N 0.52764 0.10383 0.74136 0.0
N243 N 0.58481 0.99084 0.87856 0.0
C244 C 0.53816 0.0697 0.77002 0.0
C245 C 0.56847 0.01143 0.84014 0.0
N246 N 0.37604 0.06435 0.78286 0.0
N247 N 0.72327 0.00091 0.8165 0.0
H248 H 0.53361 0.98396 0.90073 0.0
H249 H 0.64976 0.98485 0.89046 0.0
H250 H 0.779 0.00756 0.797 0.0
H251 H 0.73457 0.9747 0.8378 0.0
H252 H 0.35951 0.08139 0.75481 0.0
H253 H 0.31935 0.0536 0.79997 0.0
H254 H 0.46773 0.12193 0.73784 0.0
H255 H 0.5817 0.11696 0.72388 0.0
C256 C 0.02715 0.55741 0.50307 0.0
C257 C 0.0843 0.52215 0.48883 0.0
C258 C 0.98489 0.46774 0.52437 0.0
C259 C 0.93314 0.50336 0.54209 0.0
N260 N 0.91593 0.58238 0.55517 0.0
N261 N 0.12702 0.4444 0.49205 0.0
C262 C 0.95729 0.54831 0.53333 0.0
C263 C 0.06575 0.47743 0.50112 0.0
N264 N 0.03701 0.59932 0.48635 0.0
N265 N 0.95495 0.42474 0.52819 0.0
H266 H 0.18739 0.45014 0.47548 0.0
H267 H 0.12203 0.41214 0.50428 0.0
H268 H 0.89568 0.41621 0.54452 0.0
H269 H 0.98433 0.39795 0.51191 0.0
H270 H 0.99121 0.62518 0.49209 0.0
H271 H 0.08581 0.60721 0.46331 0.0
H272 H 0.9375 0.61544 0.55351 0.0
H273 H 0.86578 0.57712 0.57826 0.0
C274 C 0.47285 0.01643 0.49316 0.0
C275 C 0.40761 0.98323 0.50322 0.0
C276 C 0.48753 0.96677 0.5706 0.0
C277 C 0.55657 -0.00249 0.55897 0.0
N278 N 0.62348 0.04617 0.50604 0.0
N279 N 0.35758 0.92271 0.54832 0.0
C280 C 0.55136 0.02109 0.51947 0.0
C281 C 0.4166 0.95705 0.54095 0.0
N282 N 0.45958 0.04365 0.45848 0.0
N283 N 0.48742 0.94848 0.61083 0.0
H284 H 0.30253 0.91577 0.52834 0.0
H285 H 0.36663 0.89913 0.57248 0.0
H286 H 0.53738 0.9553 0.63365 0.0
H287 H 0.43397 0.92969 0.62305 0.0
H288 H 0.49853 0.07191 0.45237 0.0
H289 H 0.40566 0.03971 0.43709 0.0
H290 H 0.62823 0.06014 0.47554 0.0
H291 H 0.68269 0.04997 0.52402 0.0
C292 C 0.58415 0.45462 0.99324 0.0
C293 C 0.61084 0.48705 0.02405 0.0
C294 C 0.47831 0.53305 1.00565 0.0
C295 C 0.45503 0.50209 0.97281 0.0
N296 N 0.49469 0.43791 0.92981 0.0
N297 N 0.59175 0.55993 0.05592 0.0
C298 C 0.51026 0.46399 0.96516 0.0
C299 C 0.56071 0.52726 0.02894 0.0
N300 N 0.62913 0.41471 0.99095 0.0
N301 N 0.41923 0.5666 0.01626 0.0
H302 H 0.64907 0.55607 0.07522 0.0
H303 H 0.56449 0.59201 0.05705 0.0
H304 H 0.35752 0.57159 1.00059 0.0
H305 H 0.42728 0.58718 0.04297 0.0
H306 H 0.60624 0.38762 0.97297 0.0
H307 H 0.68657 0.40749 1.00927 0.0
H308 H 0.53818 0.41251 0.91979 0.0
H309 H 0.44247 0.4442 0.90801 0.0
C310 C 0.97743 0.93574 0.99464 0.0
C311 C 0.0497 0.96648 0.98912 0.0
C312 C 0.96865 0.0214 0.03366 0.0
C313 C 0.90092 0.98904 0.04271 0.0
N314 N 0.84804 0.91301 0.03744 0.0
N315 N 0.12176 0.03587 1.00885 0.0
C316 C 0.90709 0.94555 0.02462 0.0
C317 C 0.04734 0.00866 1.01004 0.0
N318 N 0.97441 0.89779 0.97018 0.0
N319 N 0.95623 0.06478 0.04619 0.0
H320 H 0.18084 0.02778 0.99209 0.0
H321 H 0.12802 0.06462 0.02748 0.0
H322 H 0.89919 0.07564 0.06311 0.0
H323 H 0.99826 0.09081 0.03647 0.0
H324 H 0.91866 0.87647 0.96931 0.0
H325 H 0.02427 0.88962 0.94768 0.0
H326 H 0.85518 0.87952 0.02902 0.0
H327 H 0.7964 0.91864 0.05972 0.0
C328 C 0.33098 0.72016 0.38446 0.0
C329 C 0.26005 0.68894 0.37766 0.0
C330 C 0.14868 0.74932 0.38403 0.0
C331 C 0.22023 0.78096 0.38195 0.0
N332 N 0.38074 0.79659 0.37643 0.0
N333 N 0.10012 0.67362 0.36919 0.0
C334 C 0.31193 0.76652 0.38184 0.0
C335 C 0.16824 0.70328 0.37766 0.0
N336 N 0.41646 0.70534 0.39388 0.0
N337 N 0.06226 0.76334 0.39271 0.0
H338 H 0.11122 0.63956 0.36487 0.0
H339 H 0.0332 0.68323 0.36357 0.0
H340 H 0.04614 0.7968 0.3983 0.0
H341 H 0.00868 0.74155 0.39864 0.0
H342 H 0.46908 0.72652 0.40306 0.0
H343 H 0.43203 0.67149 0.39705 0.0
H344 H 0.44789 0.78715 0.37109 0.0
H345 H 0.37017 0.83087 0.37364 0.0
C346 C 0.66846 0.21861 0.13604 0.0
C347 C 0.74144 0.18851 0.14299 0.0
C348 C 0.84859 0.25026 0.13567 0.0
C349 C 0.77528 0.28087 0.13889 0.0
N350 N 0.61395 0.2946 0.14295 0.0
N351 N 0.90257 0.17541 0.15018 0.0
C352 C 0.68451 0.2653 0.1383 0.0
C353 C 0.83229 0.20401 0.14201 0.0
N354 N 0.5838 0.20226 0.12756 0.0
N355 N 0.93373 0.26565 0.12663 0.0
H356 H 0.89395 0.14122 0.1547 0.0
H357 H 0.96901 0.18604 0.15521 0.0
H358 H 0.94705 0.29941 0.12125 0.0
H359 H 0.98861 0.24472 0.12014 0.0
H360 H 0.52922 0.22233 0.1186 0.0
H361 H 0.57089 0.16806 0.1252 0.0
H362 H 0.54717 0.28454 0.14802 0.0
H363 H 0.62263 0.32909 0.14464 0.0
C364 C 0.68023 0.22678 0.65288 0.0
C365 C 0.77041 0.2101 0.65332 0.0
C366 C 0.83025 0.2865 0.65238 0.0
C367 C 0.74004 0.30318 0.65247 0.0
N368 N 0.58177 0.28971 0.63786 0.0
N369 N 0.92881 0.22321 0.63869 0.0
C370 C 0.66585 0.27337 0.64777 0.0
C371 C 0.84467 0.23979 0.64818 0.0
N372 N 0.60851 0.19887 0.65994 0.0
N373 N 0.90194 0.3146 0.6589 0.0
H374 H 0.94093 0.18916 0.63425 0.0
H375 H 0.98385 0.24335 0.63069 0.0
H376 H 0.89513 0.34907 0.66168 0.0
H377 H 0.96781 0.30335 0.66455 0.0
H378 H 0.54262 0.21027 0.6653 0.0
H379 H 0.61533 0.16449 0.66356 0.0
H380 H 0.52679 0.26937 0.63017 0.0
H381 H 0.56971 0.32364 0.63274 0.0
C382 C 0.16237 0.74108 0.88461 0.0
C383 C 0.23692 0.71149 0.87901 0.0
C384 C 0.34082 0.77471 0.88578 0.0
C385 C 0.26648 0.80454 0.88125 0.0
N386 N 0.10449 0.81604 0.87512 0.0
N387 N 0.39901 0.70053 0.8722 0.0
C388 C 0.1764 0.78786 0.88113 0.0
C389 C 0.32695 0.72822 0.87982 0.0
N390 N 0.07838 0.72434 0.89386 0.0
N391 N 0.42461 0.79099 0.89618 0.0
H392 H 0.3926 0.66625 0.86761 0.0
H393 H 0.4648 0.71213 0.86721 0.0
H394 H 0.43618 0.82487 0.90189 0.0
H395 H 0.47968 0.77059 0.90371 0.0
H396 H 0.02317 0.74435 0.90216 0.0
H397 H 0.06656 0.69023 0.89781 0.0
H398 H 0.03867 0.80486 0.86936 0.0
H399 H 0.111 0.85055 0.87299 0.0
loop_
_geom_bond_atom_site_label_1
_geom_bond_atom_site_label_2
_geom_bond_distance
_geom_bond_site_symmetry_2
_ccdc_geom_bond_type
Mg0 O1 2.028 . S
Mg0 O7 1.986 . S
Mg0 O9 2.114 . S
Mg0 O10 2.251 . S
Mg0 O13 2.010 . S
O1 Mg0 2.028 . S
O1 C4 1.250 . S
O2 Mg3 2.028 . S
O2 C4 1.248 . S
Mg3 O2 2.028 . S
Mg3 O8 2.032 . S
Mg3 O10 2.079 . S
C4 O1 1.250 . S
C4 O2 1.248 . S
C5 O6 1.264 . S
C5 O13 1.249 . S
O6 C5 1.264 . S
O7 Mg0 1.986 . S
O7 C11 1.246 . S
O8 Mg3 2.032 . S
O8 C11 1.259 . S
O9 Mg0 2.114 . S
O9 C12 1.252 . S
O10 Mg0 2.251 . S
O10 Mg3 2.079 . S
O10 C12 1.273 . S
C11 O7 1.246 . S
C11 O8 1.259 . S
C12 O9 1.252 . S
C12 O10 1.273 . S
O13 Mg0 2.010 . S
O13 C5 1.249 . S
Mg14 O15 2.028 . S
Mg14 O21 1.986 . S
Mg14 O23 2.114 . S
Mg14 O24 2.251 . S
Mg14 O27 2.010 . S
O15 Mg14 2.028 . S
O15 C18 1.250 . S
O16 Mg17 2.028 . S
O16 C18 1.248 . S
Mg17 O16 2.028 . S
Mg17 O22 2.032 . S
Mg17 O24 2.079 . S
C18 O15 1.250 . S
C18 O16 1.248 . S
C19 O20 1.264 . S
C19 O27 1.249 . S
O20 C19 1.264 . S
O21 Mg14 1.986 . S
O21 C25 1.246 . S
O22 Mg17 2.032 . S
O22 C25 1.259 . S
O23 Mg14 2.114 . S
O23 C26 1.252 . S
O24 Mg14 2.251 . S
O24 Mg17 2.079 . S
O24 C26 1.273 . S
C25 O21 1.246 . S
C25 O22 1.259 . S
C26 O23 1.252 . S
C26 O24 1.273 . S
O27 Mg14 2.010 . S
O27 C19 1.249 . S
Mg28 O29 2.028 . S
Mg28 O35 1.986 . S
Mg28 O37 2.114 . S
Mg28 O38 2.251 . S
Mg28 O41 2.010 . S
O29 Mg28 2.028 . S
O29 C32 1.250 . S
O30 Mg31 2.028 . S
O30 C32 1.248 . S
Mg31 O30 2.028 . S
Mg31 O36 2.032 . S
Mg31 O38 2.079 . S
C32 O29 1.250 . S
C32 O30 1.248 . S
C33 O34 1.264 . S
C33 O41 1.249 . S
O34 C33 1.264 . S
O35 Mg28 1.986 . S
O35 C39 1.246 . S
O36 Mg31 2.032 . S
O36 C39 1.259 . S
O37 Mg28 2.114 . S
O37 C40 1.252 . S
O38 Mg28 2.251 . S
O38 Mg31 2.079 . S
O38 C40 1.273 . S
C39 O35 1.246 . S
C39 O36 1.259 . S
C40 O37 1.252 . S
C40 O38 1.273 . S
O41 Mg28 2.010 . S
O41 C33 1.249 . S
Mg42 O43 2.028 . S
Mg42 O49 1.986 . S
Mg42 O51 2.114 . S
Mg42 O52 2.251 . S
Mg42 O55 2.010 . S
O43 Mg42 2.028 . S
O43 C46 1.250 . S
O44 Mg45 2.028 . S
O44 C46 1.248 . S
Mg45 O44 2.028 . S
Mg45 O50 2.032 . S
Mg45 O52 2.079 . S
C46 O43 1.250 . S
C46 O44 1.248 . S
C47 O48 1.264 . S
C47 O55 1.249 . S
O48 C47 1.264 . S
O49 Mg42 1.986 . S
O49 C53 1.246 . S
O50 Mg45 2.032 . S
O50 C53 1.259 . S
O51 Mg42 2.114 . S
O51 C54 1.252 . S
O52 Mg42 2.251 . S
O52 Mg45 2.079 . S
O52 C54 1.273 . S
C53 O49 1.246 . S
C53 O50 1.259 . S
C54 O51 1.252 . S
C54 O52 1.273 . S
O55 Mg42 2.010 . S
O55 C47 1.249 . S
Mg56 O57 2.028 . S
Mg56 O63 1.986 . S
Mg56 O65 2.114 . S
Mg56 O66 2.251 . S
Mg56 O69 2.010 . S
O57 Mg56 2.028 . S
O57 C60 1.250 . S
O58 Mg59 2.028 . S
O58 C60 1.248 . S
Mg59 O58 2.028 . S
Mg59 O64 2.032 . S
Mg59 O66 2.079 . S
C60 O57 1.250 . S
C60 O58 1.248 . S
C61 O62 1.264 . S
C61 O69 1.249 . S
O62 C61 1.264 . S
O63 Mg56 1.986 . S
O63 C67 1.246 . S
O64 Mg59 2.032 . S
O64 C67 1.259 . S
O65 Mg56 2.114 . S
O65 C68 1.252 . S
O66 Mg56 2.251 . S
O66 Mg59 2.079 . S
O66 C68 1.273 . S
C67 O63 1.246 . S
C67 O64 1.259 . S
C68 O65 1.252 . S
C68 O66 1.273 . S
O69 Mg56 2.010 . S
O69 C61 1.249 . S
Mg70 O71 2.028 . S
Mg70 O77 1.986 . S
Mg70 O79 2.114 . S
Mg70 O80 2.251 . S
Mg70 O83 2.010 . S
O71 Mg70 2.028 . S
O71 C74 1.250 . S
O72 Mg73 2.028 . S
O72 C74 1.248 . S
Mg73 O72 2.028 . S
Mg73 O78 2.032 . S
Mg73 O80 2.079 . S
C74 O71 1.250 . S
C74 O72 1.248 . S
C75 O76 1.264 . S
C75 O83 1.249 . S
O76 C75 1.264 . S
O77 Mg70 1.986 . S
O77 C81 1.246 . S
O78 Mg73 2.032 . S
O78 C81 1.259 . S
O79 Mg70 2.114 . S
O79 C82 1.252 . S
O80 Mg70 2.251 . S
O80 Mg73 2.079 . S
O80 C82 1.273 . S
C81 O77 1.246 . S
C81 O78 1.259 . S
C82 O79 1.252 . S
C82 O80 1.273 . S
O83 Mg70 2.010 . S
O83 C75 1.249 . S
Mg84 O85 2.028 . S
Mg84 O91 1.986 . S
Mg84 O93 2.114 . S
Mg84 O94 2.251 . S
Mg84 O97 2.010 . S
O85 Mg84 2.028 . S
O85 C88 1.250 . S
O86 Mg87 2.028 . S
O86 C88 1.248 . S
Mg87 O86 2.028 . S
Mg87 O92 2.032 . S
Mg87 O94 2.079 . S
C88 O85 1.250 . S
C88 O86 1.248 . S
C89 O90 1.264 . S
C89 O97 1.249 . S
O90 C89 1.264 . S
O91 Mg84 1.986 . S
O91 C95 1.246 . S
O92 Mg87 2.032 . S
O92 C95 1.259 . S
O93 Mg84 2.114 . S
O93 C96 1.252 . S
O94 Mg84 2.251 . S
O94 Mg87 2.079 . S
O94 C96 1.273 . S
C95 O91 1.246 . S
C95 O92 1.259 . S
C96 O93 1.252 . S
C96 O94 1.273 . S
O97 Mg84 2.010 . S
O97 C89 1.249 . S
Mg98 O99 2.028 . S
Mg98 O105 1.986 . S
Mg98 O107 2.114 . S
Mg98 O108 2.251 . S
Mg98 O111 2.010 . S
O99 Mg98 2.028 . S
O99 C102 1.250 . S
O100 Mg101 2.028 . S
O100 C102 1.248 . S
Mg101 O100 2.028 . S
Mg101 O106 2.032 . S
Mg101 O108 2.079 . S
C102 O99 1.250 . S
C102 O100 1.248 . S
C103 O104 1.264 . S
C103 O111 1.249 . S
O104 C103 1.264 . S
O105 Mg98 1.986 . S
O105 C109 1.246 . S
O106 Mg101 2.032 . S
O106 C109 1.259 . S
O107 Mg98 2.114 . S
O107 C110 1.252 . S
O108 Mg98 2.251 . S
O108 Mg101 2.079 . S
O108 C110 1.273 . S
C109 O105 1.246 . S
C109 O106 1.259 . S
C110 O107 1.252 . S
C110 O108 1.273 . S
O111 Mg98 2.010 . S
O111 C103 1.249 . S
C112 C113 1.363 . S
C112 C118 1.379 . S
C112 N120 1.356 . S
C113 C112 1.363 . S
C113 C119 1.363 . S
C114 C115 1.363 . S
C114 C119 1.379 . S
C114 N121 1.356 . S
C115 C114 1.363 . S
C115 C118 1.363 . S
N116 C118 1.356 . S
N116 H128 0.984 . S
N116 H129 0.985 . S
N117 C119 1.356 . S
N117 H122 0.984 . S
N117 H123 0.985 . S
C118 C112 1.379 . S
C118 C115 1.363 . S
C118 N116 1.356 . S
C119 C113 1.363 . S
C119 C114 1.379 . S
C119 N117 1.356 . S
N120 C112 1.356 . S
N120 H126 0.984 . S
N120 H127 0.984 . S
N121 C114 1.356 . S
N121 H124 0.984 . S
N121 H125 0.985 . S
H122 N117 0.984 . S
H123 N117 0.985 . S
H124 N121 0.984 . S
H125 N121 0.985 . S
H126 N120 0.984 . S
H127 N120 0.984 . S
H128 N116 0.984 . S
H129 N116 0.985 . S
C130 C131 1.363 1_565 S
C130 C136 1.379 . S
C130 N138 1.356 1_455 S
C131 C130 1.363 1_545 S
C131 C137 1.363 . S
C132 C133 1.363 1_545 S
C132 C137 1.379 . S
C132 N139 1.356 . S
C133 C132 1.363 1_565 S
C133 C136 1.363 . S
N134 C136 1.356 . S
N134 H146 0.984 . S
N134 H147 0.985 . S
N135 C137 1.356 . S
N135 H140 0.984 . S
N135 H141 0.985 . S
C136 C130 1.379 . S
C136 C133 1.363 . S
C136 N134 1.356 . S
C137 C131 1.363 . S
C137 C132 1.379 . S
C137 N135 1.356 . S
N138 C130 1.356 1_655 S
N138 H144 0.984 . S
N138 H145 0.984 1_565 S
N139 C132 1.356 . S
N139 H142 0.984 . S
N139 H143 0.985 . S
H140 N135 0.984 . S
H141 N135 0.985 . S
H142 N139 0.984 . S
H143 N139 0.985 . S
H144 N138 0.984 . S
H145 N138 0.984 1_545 S
H146 N134 0.984 . S
H147 N134 0.985 . S
C148 C149 1.363 . S
C148 C154 1.379 . S
C148 N156 1.356 . S
C149 C148 1.363 . S
C149 C155 1.363 . S
C150 C151 1.363 . S
C150 C155 1.379 . S
C150 N157 1.356 . S
C151 C150 1.363 . S
C151 C154 1.363 . S
N152 C154 1.356 1_455 S
N152 H164 0.984 . S
N152 H165 0.985 . S
N153 C155 1.356 . S
N153 H158 0.984 . S
N153 H159 0.985 . S
C154 C148 1.379 . S
C154 C151 1.363 . S
C154 N152 1.356 1_655 S
C155 C149 1.363 . S
C155 C150 1.379 . S
C155 N153 1.356 . S
N156 C148 1.356 . S
N156 H162 0.984 . S
N156 H163 0.984 . S
N157 C150 1.356 . S
N157 H160 0.984 . S
N157 H161 0.985 . S
H158 N153 0.984 . S
H159 N153 0.985 . S
H160 N157 0.984 . S
H161 N157 0.985 . S
H162 N156 0.984 . S
H163 N156 0.984 . S
H164 N152 0.984 . S
H165 N152 0.985 . S
C166 C167 1.363 1_565 S
C166 C172 1.379 . S
C166 N174 1.356 . S
C167 C166 1.363 1_545 S
C167 C173 1.363 . S
C168 C169 1.363 . S
C168 C173 1.379 1_565 S
C168 N175 1.356 1_565 S
C169 C168 1.363 . S
C169 C172 1.363 . S
N170 C172 1.356 . S
N170 H182 0.984 . S
N170 H183 0.985 . S
N171 C173 1.356 . S
N171 H176 0.984 . S
N171 H177 0.985 . S
C172 C166 1.379 . S
C172 C169 1.363 . S
C172 N170 1.356 . S
C173 C167 1.363 . S
C173 C168 1.379 1_545 S
C173 N171 1.356 . S
N174 C166 1.356 . S
N174 H180 0.984 . S
N174 H181 0.984 . S
N175 C168 1.356 1_545 S
N175 H178 0.984 1_545 S
N175 H179 0.985 . S
H176 N171 0.984 . S
H177 N171 0.985 . S
H178 N175 0.984 1_565 S
H179 N175 0.985 . S
H180 N174 0.984 . S
H181 N174 0.984 . S
H182 N170 0.984 . S
H183 N170 0.985 . S
C184 C185 1.363 . S
C184 C190 1.379 . S
C184 N192 1.356 . S
C185 C184 1.363 . S
C185 C191 1.363 . S
C186 C187 1.363 . S
C186 C191 1.379 . S
C186 N193 1.356 . S
C187 C186 1.363 . S
C187 C190 1.363 . S
N188 C190 1.356 . S
N188 H200 0.984 . S
N188 H201 0.985 . S
N189 C191 1.356 . S
N189 H194 0.984 . S
N189 H195 0.985 . S
C190 C184 1.379 . S
C190 C187 1.363 . S
C190 N188 1.356 . S
C191 C185 1.363 . S
C191 C186 1.379 . S
C191 N189 1.356 . S
N192 C184 1.356 . S
N192 H198 0.984 . S
N192 H199 0.984 . S
N193 C186 1.356 . S
N193 H196 0.984 . S
N193 H197 0.985 . S
H194 N189 0.984 . S
H195 N189 0.985 . S
H196 N193 0.984 . S
H197 N193 0.985 . S
H198 N192 0.984 . S
H199 N192 0.984 . S
H200 N188 0.984 . S
H201 N188 0.985 . S
C202 C203 1.363 . S
C202 C208 1.379 . S
C202 N210 1.356 . S
C203 C202 1.363 . S
C203 C209 1.363 1_545 S
C204 C205 1.363 . S
C204 C209 1.379 . S
C204 N211 1.356 . S
C205 C204 1.363 . S
C205 C208 1.363 1_565 S
N206 C208 1.356 1_455 S
N206 H218 0.984 . S
N206 H219 0.985 . S
N207 C209 1.356 . S
N207 H212 0.984 . S
N207 H213 0.985 . S
C208 C202 1.379 . S
C208 C205 1.363 1_545 S
C208 N206 1.356 1_655 S
C209 C203 1.363 1_565 S
C209 C204 1.379 . S
C209 N207 1.356 . S
N210 C202 1.356 . S
N210 H216 0.984 . S
N210 H217 0.984 . S
N211 C204 1.356 . S
N211 H214 0.984 1_655 S
N211 H215 0.985 . S
H212 N207 0.984 . S
H213 N207 0.985 . S
H214 N211 0.984 1_455 S
H215 N211 0.985 . S
H216 N210 0.984 . S
H217 N210 0.984 . S
H218 N206 0.984 . S
H219 N206 0.985 . S
C220 C221 1.363 . S
C220 C226 1.379 . S
C220 N228 1.356 . S
C221 C220 1.363 . S
C221 C227 1.363 . S
C222 C223 1.363 . S
C222 C227 1.379 . S
C222 N229 1.356 . S
C223 C222 1.363 . S
C223 C226 1.363 . S
N224 C226 1.356 1_655 S
N224 H236 0.984 . S
N224 H237 0.985 . S
N225 C227 1.356 . S
N225 H230 0.984 . S
N225 H231 0.985 . S
C226 C220 1.379 . S
C226 C223 1.363 . S
C226 N224 1.356 1_455 S
C227 C221 1.363 . S
C227 C222 1.379 . S
C227 N225 1.356 . S
N228 C220 1.356 . S
N228 H234 0.984 . S
N228 H235 0.984 . S
N229 C222 1.356 . S
N229 H232 0.984 1_455 S
N229 H233 0.985 . S
H230 N225 0.984 . S
H231 N225 0.985 . S
H232 N229 0.984 1_655 S
H233 N229 0.985 . S
H234 N228 0.984 . S
H235 N228 0.984 . S
H236 N224 0.984 . S
H237 N224 0.985 . S
C238 C239 1.363 1_545 S
C238 C244 1.379 . S
C238 N246 1.356 . S
C239 C238 1.363 1_565 S
C239 C245 1.363 . S
C240 C241 1.363 1_565 S
C240 C245 1.379 . S
C240 N247 1.356 . S
C241 C240 1.363 1_545 S
C241 C244 1.363 . S
N242 C244 1.356 . S
N242 H254 0.984 . S
N242 H255 0.985 . S
N243 C245 1.356 . S
N243 H248 0.984 . S
N243 H249 0.985 . S
C244 C238 1.379 . S
C244 C241 1.363 . S
C244 N242 1.356 . S
C245 C239 1.363 . S
C245 C240 1.379 . S
C245 N243 1.356 . S
N246 C238 1.356 . S
N246 H252 0.984 . S
N246 H253 0.984 . S
N247 C240 1.356 . S
N247 H250 0.996 . S
N247 H251 0.985 . S
H248 N243 0.984 . S
H249 N243 0.985 . S
H250 N247 0.996 . S
H251 N247 0.985 . S
H252 N246 0.984 . S
H253 N246 0.984 . S
H254 N242 0.984 . S
H255 N242 0.985 . S
C256 C257 1.363 . S
C256 C262 1.379 1_455 S
C256 N264 1.356 . S
C257 C256 1.363 . S
C257 C263 1.363 . S
C258 C259 1.363 . S
C258 C263 1.379 1_655 S
C258 N265 1.356 . S
C259 C258 1.363 . S
C259 C262 1.363 . S
N260 C262 1.356 . S
N260 H272 0.984 . S
N260 H273 0.985 . S
N261 C263 1.356 . S
N261 H266 0.984 . S
N261 H267 0.985 . S
C262 C256 1.379 1_655 S
C262 C259 1.363 . S
C262 N260 1.356 . S
C263 C257 1.363 . S
C263 C258 1.379 1_455 S
C263 N261 1.356 . S
N264 C256 1.356 . S
N264 H270 0.984 . S
N264 H271 0.984 . S
N265 C258 1.356 . S
N265 H268 0.984 . S
N265 H269 0.985 . S
H266 N261 0.984 . S
H267 N261 0.985 . S
H268 N265 0.984 . S
H269 N265 0.985 . S
H270 N264 0.984 . S
H271 N264 0.984 . S
H272 N260 0.984 . S
H273 N260 0.985 . S
C274 C275 1.363 1_545 S
C274 C280 1.379 . S
C274 N282 1.356 . S
C275 C274 1.363 1_565 S
C275 C281 1.363 . S
C276 C277 1.363 1_565 S
C276 C281 1.379 . S
C276 N283 1.356 . S
C277 C276 1.363 1_545 S
C277 C280 1.363 . S
N278 C280 1.356 . S
N278 H290 0.984 . S
N278 H291 0.985 . S
N279 C281 1.356 . S
N279 H284 0.984 . S
N279 H285 0.985 . S
C280 C274 1.379 . S
C280 C277 1.363 . S
C280 N278 1.356 . S
C281 C275 1.363 . S
C281 C276 1.379 . S
C281 N279 1.356 . S
N282 C274 1.356 . S
N282 H288 0.984 . S
N282 H289 0.984 . S
N283 C276 1.356 . S
N283 H286 0.984 . S
N283 H287 0.985 . S
H284 N279 0.984 . S
H285 N279 0.985 . S
H286 N283 0.984 . S
H287 N283 0.985 . S
H288 N282 0.984 . S
H289 N282 0.984 . S
H290 N278 0.984 . S
H291 N278 0.985 . S
C292 C293 1.358 1_556 S
C292 C298 1.384 . S
C292 N300 1.355 1_556 S
C293 C292 1.358 1_554 S
C293 C299 1.363 . S
C294 C295 1.358 1_554 S
C294 C299 1.384 . S
C294 N301 1.355 1_554 S
C295 C294 1.358 1_556 S
C295 C298 1.363 . S
N296 C298 1.356 . S
N296 H308 0.984 . S
N296 H309 0.985 . S
N297 C299 1.356 . S
N297 H302 0.984 . S
N297 H303 0.985 . S
C298 C292 1.384 . S
C298 C295 1.363 . S
C298 N296 1.356 . S
C299 C293 1.363 . S
C299 C294 1.384 . S
C299 N297 1.356 . S
N300 C292 1.355 1_554 S
N300 H306 0.984 1_554 S
N300 H307 0.984 . S
N301 C294 1.355 1_556 S
N301 H304 0.984 . S
N301 H305 0.985 1_556 S
H302 N297 0.984 . S
H303 N297 0.985 . S
H304 N301 0.984 . S
H305 N301 0.985 1_554 S
H306 N300 0.984 1_556 S
H307 N300 0.984 . S
H308 N296 0.984 . S
H309 N296 0.985 . S
C310 C311 1.363 1_655 S
C310 C316 1.379 1_556 S
C310 N318 1.356 . S
C311 C310 1.363 1_455 S
C311 C317 1.363 1_565 S
C312 C313 1.363 1_455 S
C312 C317 1.379 1_554 S
C312 N319 1.356 . S
C313 C312 1.363 1_655 S
C313 C316 1.363 1_545 S
N314 C316 1.356 . S
N314 H326 0.984 . S
N314 H327 0.985 . S
N315 C317 1.356 . S
N315 H320 0.984 . S
N315 H321 0.985 . S
C316 C310 1.379 1_554 S
C316 C313 1.363 1_565 S
C316 N314 1.356 . S
C317 C311 1.363 1_545 S
C317 C312 1.379 1_556 S
C317 N315 1.356 . S
N318 C310 1.356 . S
N318 H324 0.984 . S
N318 H325 0.984 1_655 S
N319 C312 1.356 . S
N319 H322 0.984 1_455 S
N319 H323 0.985 . S
H320 N315 0.984 . S
H321 N315 0.985 . S
H322 N319 0.984 1_655 S
H323 N319 0.985 . S
H324 N318 0.984 . S
H325 N318 0.984 1_455 S
H326 N314 0.984 . S
H327 N314 0.985 . S
C328 C329 1.363 . S
C328 C334 1.379 . S
C328 N336 1.356 . S
C329 C328 1.363 . S
C329 C335 1.363 . S
C330 C331 1.363 . S
C330 C335 1.379 . S
C330 N337 1.356 . S
C331 C330 1.363 . S
C331 C334 1.363 . S
N332 C334 1.356 . S
N332 H344 0.984 . S
N332 H345 0.985 . S
N333 C335 1.356 . S
N333 H338 0.984 . S
N333 H339 0.985 . S
C334 C328 1.379 . S
C334 C331 1.363 . S
C334 N332 1.356 . S
C335 C329 1.363 . S
C335 C330 1.379 . S
C335 N333 1.356 . S
N336 C328 1.356 . S
N336 H342 0.984 . S
N336 H343 0.984 . S
N337 C330 1.356 . S
N337 H340 0.984 . S
N337 H341 0.985 . S
H338 N333 0.984 . S
H339 N333 0.985 . S
H340 N337 0.984 . S
H341 N337 0.985 . S
H342 N336 0.984 . S
H343 N336 0.984 . S
H344 N332 0.984 . S
H345 N332 0.985 . S
C346 C347 1.363 . S
C346 C352 1.379 . S
C346 N354 1.356 . S
C347 C346 1.363 . S
C347 C353 1.363 . S
C348 C349 1.363 . S
C348 C353 1.379 . S
C348 N355 1.356 . S
C349 C348 1.363 . S
C349 C352 1.363 . S
N350 C352 1.356 . S
N350 H362 0.984 . S
N350 H363 0.985 . S
N351 C353 1.356 . S
N351 H356 0.984 . S
N351 H357 0.985 . S
C352 C346 1.379 . S
C352 C349 1.363 . S
C352 N350 1.356 . S
C353 C347 1.363 . S
C353 C348 1.379 . S
C353 N351 1.356 . S
N354 C346 1.356 . S
N354 H360 0.984 . S
N354 H361 0.984 . S
N355 C348 1.356 . S
N355 H358 0.984 . S
N355 H359 0.985 . S
H356 N351 0.984 . S
H357 N351 0.985 . S
H358 N355 0.984 . S
H359 N355 0.985 . S
H360 N354 0.984 . S
H361 N354 0.984 . S
H362 N350 0.984 . S
H363 N350 0.985 . S
C364 C365 1.363 . S
C364 C370 1.379 . S
C364 N372 1.356 . S
C365 C364 1.363 . S
C365 C371 1.363 . S
C366 C367 1.363 . S
C366 C371 1.379 . S
C366 N373 1.356 . S
C367 C366 1.363 . S
C367 C370 1.363 . S
N368 C370 1.356 . S
N368 H380 0.984 . S
N368 H381 0.985 . S
N369 C371 1.356 . S
N369 H374 0.984 . S
N369 H375 0.985 . S
C370 C364 1.379 . S
C370 C367 1.363 . S
C370 N368 1.356 . S
C371 C365 1.363 . S
C371 C366 1.379 . S
C371 N369 1.356 . S
N372 C364 1.356 . S
N372 H378 0.984 . S
N372 H379 0.984 . S
N373 C366 1.356 . S
N373 H376 0.984 . S
N373 H377 0.985 . S
H374 N369 0.984 . S
H375 N369 0.985 . S
H376 N373 0.984 . S
H377 N373 0.985 . S
H378 N372 0.984 . S
H379 N372 0.984 . S
H380 N368 0.984 . S
H381 N368 0.985 . S
C382 C383 1.363 . S
C382 C388 1.379 . S
C382 N390 1.356 . S
C383 C382 1.363 . S
C383 C389 1.363 . S
C384 C385 1.363 . S
C384 C389 1.379 . S
C384 N391 1.356 . S
C385 C384 1.363 . S
C385 C388 1.363 . S
N386 C388 1.356 . S
N386 H398 0.984 . S
N386 H399 0.985 . S
N387 C389 1.356 . S
N387 H392 0.984 . S
N387 H393 0.985 . S
C388 C382 1.379 . S
C388 C385 1.363 . S
C388 N386 1.356 . S
C389 C383 1.363 . S
C389 C384 1.379 . S
C389 N387 1.356 . S
N390 C382 1.356 . S
N390 H396 0.984 . S
N390 H397 0.984 . S
N391 C384 1.356 . S
N391 H394 0.984 . S
N391 H395 0.985 . S
H392 N387 0.984 . S
H393 N387 0.985 . S
H394 N391 0.984 . S
H395 N391 0.985 . S
H396 N390 0.984 . S
H397 N390 0.984 . S
H398 N386 0.984 . S
H399 N386 0.985 . S
C113 C12 1.266 . S
C115 C32 1.230 . S
C131 C46 1.230 1_455 S
C133 C26 1.266 . S
C149 C40 1.266 . S
C151 C4 1.230 1_655 S
C167 C54 1.266 . S
C169 C18 1.230 . S
C185 C88 1.230 . S
C187 C68 1.266 . S
C203 C82 1.266 . S
C205 C102 1.230 1_655 S
C221 C96 1.266 . S
C223 C60 1.230 1_455 S
C239 C110 1.266 . S
C241 C74 1.230 . S
C257 C5 1.429 . S
C259 C61 1.429 . S
C275 C19 1.429 . S
C277 C75 1.429 . S
C293 C33 1.429 . S
C295 C89 1.429 . S
C311 C103 1.429 . S
C313 C47 1.429 . S
C329 C11 1.509 . S
C331 C25 1.509 . S
C347 C53 1.509 . S
C349 C39 1.509 . S
C365 C81 1.509 . S
C367 C67 1.509 . S
C383 C95 1.509 . S
C385 C109 1.509 . S
