# Generated by pormake.
# Topology ilc, (8)-cn, num edge types: 1
# Building blocks:
#     Node 0, Type 0, BuildingBlock: XADDAJ01_clean_sbu_3, # of connection points: 8
#     Node 1, Type 0, BuildingBlock: XADDAJ01_clean_sbu_3, # of connection points: 8
#     Node 2, Type 0, BuildingBlock: XADDAJ01_clean_sbu_3, # of connection points: 8
#     Edge 3, Type (0, 0), BuildingBlock: ZUJKAS_clean_linker_0, # of connection points: 2
#     Edge 4, Type (0, 0), BuildingBlock: ZUJKAS_clean_linker_0, # of connection points: 2
#     Edge 5, Type (0, 0), BuildingBlock: ZUJKAS_clean_linker_0, # of connection points: 2
#     Edge 6, Type (0, 0), BuildingBlock: ZUJKAS_clean_linker_0, # of connection points: 2
#     Edge 7, Type (0, 0), BuildingBlock: ZUJKAS_clean_linker_0, # of connection points: 2
#     Edge 8, Type (0, 0), BuildingBlock: ZUJKAS_clean_linker_0, # of connection points: 2
#     Edge 9, Type (0, 0), BuildingBlock: ZUJKAS_clean_linker_0, # of connection points: 2
#     Edge 10, Type (0, 0), BuildingBlock: ZUJKAS_clean_linker_0, # of connection points: 2
#     Edge 11, Type (0, 0), BuildingBlock: ZUJKAS_clean_linker_0, # of connection points: 2
#     Edge 12, Type (0, 0), BuildingBlock: ZUJKAS_clean_linker_0, # of connection points: 2
#     Edge 13, Type (0, 0), BuildingBlock: ZUJKAS_clean_linker_0, # of connection points: 2
#     Edge 14, Type (0, 0), BuildingBlock: ZUJKAS_clean_linker_0, # of connection points: 2
# Relax obj value: 0.142
# Max RMSD: 0.200
# Mean RMSD: 0.200
data_MOF--net-ilc--node1-XADDAJ01_clean_sbu_3--edge1-ZUJKAS_clean_linker_0
_symmetry_space_group_name_H-M    P1
_symmetry_Int_Tables_number       1
_symmetry_cell_setting            triclinic
loop_
_symmetry_equiv_pos_as_xyz
'x, y, z'
_cell_length_a     27.44067
_cell_length_b     37.891958
_cell_length_c     23.638579
_cell_angle_alpha  100.39799
_cell_angle_beta   78.21113
_cell_angle_gamma 139.78771
loop_
_atom_site_label
_atom_site_type_symbol
_atom_site_fract_x
_atom_site_fract_y
_atom_site_fract_z
_atom_type_partial_charge
C0 C 0.13794 1.00785 0.15205 0.0
C1 C 0.18621 0.05969 0.18024 0.0
C2 C 0.23433 0.07644 0.21851 0.0
C3 C 0.2359 0.04143 0.22613 0.0
C4 C 0.18827 0.98954 0.19833 0.0
C5 C 0.13852 0.97255 0.16141 0.0
O6 O 0.96786 0.99507 0.04524 0.0
Tb7 Tb 0.06939 0.0412 0.08444 0.0
Tb8 Tb 0.93642 0.95688 0.92522 0.0
O9 O 0.10901 0.10702 0.14628 0.0
O10 O 0.86512 0.91611 1.00639 0.0
O11 O 0.12507 0.02211 0.06696 0.0
C12 C 0.93204 0.01529 0.89671 0.0
O13 O 0.03224 0.98335 0.13662 0.0
O14 O 0.042 1.00046 0.95703 0.0
O15 O 0.13708 0.08084 1.0032 0.0
C16 C 0.0882 0.99184 0.11248 0.0
C17 C 0.95141 0.88859 0.85428 0.0
O18 O 0.98304 0.90074 0.89998 0.0
C19 C 0.89981 0.94453 0.0534 0.0
C20 C 0.10705 0.05331 0.95438 0.0
O21 O 0.92599 0.90703 0.85283 0.0
C22 C 0.95207 0.04254 0.84494 0.0
C23 C 0.94745 0.09053 0.79388 0.0
C24 C 0.922 0.05988 0.84104 0.0
C25 C 1.00493 0.05419 0.80044 0.0
C26 C 0.03087 0.08536 0.7544 0.0
C27 C 1.0025 0.10352 0.75147 0.0
C28 C 0.128 0.14799 0.12994 0.0
O29 O 0.12358 0.14856 0.07586 0.0
O30 O 0.87435 0.96148 0.89516 0.0
O31 O 0.98959 0.03488 0.91892 0.0
H32 H 0.18451 0.0863 0.17362 0.0
H33 H 0.26972 0.05249 0.25782 0.0
H34 H 0.10055 0.93223 0.14029 0.0
H35 H 0.88041 0.05051 0.87472 0.0
H36 H 0.02662 0.03977 0.802 0.0
H37 H 1.02216 0.12688 0.71487 0.0
C38 C 0.77436 0.32923 0.45849 0.0
C39 C 0.71978 0.31687 0.50155 0.0
C40 C 0.69003 0.28361 0.54679 0.0
C41 C 0.71588 0.26352 0.5496 0.0
C42 C 0.77258 0.2772 0.50881 0.0
C43 C 0.80213 0.31029 0.46282 0.0
O44 O 0.65475 0.35641 0.4233 0.0
Tb45 Tb 0.76685 0.40118 0.38191 0.0
Tb46 Tb 0.62041 0.29679 0.29168 0.0
O47 O 0.82048 0.47633 0.43182 0.0
O48 O 0.5911 0.27305 0.37999 0.0
O49 O 0.83949 0.41221 0.42197 0.0
C50 C 0.57496 0.33069 0.27221 0.0
O51 O 0.74938 0.33621 0.37399 0.0
O52 O 0.73204 0.34216 0.24773 0.0
O53 O 0.8059 0.4272 0.29332 0.0
C54 C 0.80079 0.3613 0.40923 0.0
C55 C 0.59059 0.20294 0.23799 0.0
O56 O 0.63544 0.22257 0.27683 0.0
C57 C 0.5986 0.30281 0.42442 0.0
C58 C 0.79212 0.39584 0.24765 0.0
O59 O 0.57221 0.22598 0.23478 0.0
C60 C 0.56416 0.34081 0.22093 0.0
C61 C 0.55244 0.38715 0.176 0.0
C62 C 0.57074 0.38187 0.22301 0.0
C63 C 0.54235 0.30699 0.17062 0.0
C64 C 0.5233 0.3119 0.12434 0.0
C65 C 0.52773 0.35144 0.12767 0.0
C66 C 0.80496 0.50056 0.42468 0.0
O67 O 0.76005 0.47989 0.38536 0.0
O68 O 0.53031 0.2791 0.27958 0.0
O69 O 0.64512 0.36379 0.28265 0.0
H70 H 0.70059 0.3331 0.49977 0.0
H71 H 0.69444 0.23925 0.58588 0.0
H72 H 0.8458 0.32092 0.43076 0.0
H73 H 0.58865 0.40875 0.26108 0.0
H74 H 0.53897 0.27629 0.16773 0.0
H75 H 0.51519 0.35622 0.09093 0.0
C76 C 0.47415 0.68366 0.8517 0.0
C77 C 0.42109 0.67347 0.89448 0.0
C78 C 0.41206 0.66029 0.94999 0.0
C79 C 0.45767 0.65893 0.96378 0.0
C80 C 0.51033 0.66815 0.92189 0.0
C81 C 0.51817 0.68012 0.86529 0.0
O82 O 0.35609 0.69115 0.71856 0.0
Tb83 Tb 0.4646 0.74326 0.75237 0.0
Tb84 Tb 0.32919 0.64861 0.59204 0.0
O85 O 0.47434 0.79616 0.81885 0.0
O86 O 0.26546 0.60853 0.6737 0.0
O87 O 0.53786 0.74881 0.78133 0.0
C88 C 0.30241 0.69407 0.56817 0.0
O89 O 0.41829 0.67042 0.77401 0.0
O90 O 0.43217 0.69837 0.63137 0.0
O91 O 0.53268 0.78005 0.6689 0.0
C92 C 0.48168 0.6966 0.79292 0.0
C93 C 0.29101 0.55058 0.54256 0.0
O94 O 0.3041 0.55418 0.59494 0.0
C95 C 0.29495 0.63761 0.72214 0.0
C96 C 0.49843 0.74943 0.62233 0.0
O97 O 0.29621 0.58553 0.52868 0.0
C98 C 0.25288 0.67967 0.52972 0.0
C99 C 0.20211 0.70039 0.48947 0.0
C100 C 0.25223 0.71569 0.52433 0.0
C101 C 0.20439 0.62881 0.49937 0.0
C102 C 0.15562 0.61372 0.46318 0.0
C103 C 0.15402 0.64942 0.45973 0.0
C104 C 0.44158 0.80893 0.81669 0.0
O105 O 0.40157 0.78893 0.77358 0.0
O106 O 0.26549 0.66104 0.61111 0.0
O107 O 0.36107 0.706 0.5431 0.0
H108 H 0.38589 0.67491 0.88455 0.0
H109 H 0.44881 0.64732 1.0067 0.0
H110 H 0.55787 0.68648 0.83225 0.0
H111 H 0.29041 0.7553 0.54702 0.0
H112 H 0.20624 0.6017 0.50281 0.0
H113 H 0.11988 0.63981 0.42961 0.0
H114 H 1.00198 0.01975 0.66293 0.0
H115 H 0.08459 0.0482 0.57315 0.0
H116 H 0.2657 0.2098 0.64938 0.0
H117 H 0.18008 0.18191 0.73801 0.0
H118 H 0.25577 0.21995 0.55208 0.0
H119 H 0.24204 0.06417 0.51322 0.0
H120 H 0.14938 0.03256 0.52656 0.0
H121 H 0.21174 0.07436 0.5832 0.0
C122 C 0.06042 0.06062 0.66102 0.0
C123 C 0.08607 0.09836 0.70737 0.0
C124 C 0.10802 0.07688 0.6099 0.0
C125 C 0.1829 0.13065 0.60508 0.0
C126 C 0.20903 0.1678 0.65251 0.0
H127 H 0.37357 0.14968 0.25957 0.0
H128 H 0.39908 0.19301 0.35637 0.0
C129 C 0.16068 0.15186 0.70319 0.0
C130 C 0.22981 0.14952 0.54839 0.0
H131 H 0.27022 0.10709 0.42901 0.0
C132 C 0.26093 0.19615 0.52584 0.0
C133 C 0.23729 0.11896 0.51394 0.0
C134 C 0.20901 0.07017 0.53591 0.0
C135 C 0.293 0.20992 0.46821 0.0
C136 C 0.294 0.17636 0.4326 0.0
C137 C 0.2694 0.1329 0.45653 0.0
C138 C 0.303 0.17662 0.36894 0.0
C139 C 0.3213 0.25815 0.44481 0.0
C140 C 0.24464 0.15759 0.34225 0.0
C141 C 0.22851 0.13137 0.28776 0.0
C142 C 0.27094 0.12419 0.25943 0.0
C143 C 0.33812 0.15277 0.28151 0.0
C144 C 0.35338 0.17811 0.33657 0.0
H145 H 0.34031 0.28945 0.47963 0.0
H146 H 0.36896 0.27731 0.4102 0.0
H147 H 0.27442 0.24406 0.42615 0.0
H148 H 0.20485 0.15585 0.36658 0.0
H149 H 0.17682 0.11051 0.27201 0.0
H150 H 0.71512 0.35853 0.62136 0.0
H151 H 0.64657 0.34023 0.71724 0.0
H152 H 0.47944 0.16679 0.67783 0.0
H153 H 0.54927 0.1851 0.58254 0.0
H154 H 0.51329 0.29008 0.76903 0.0
H155 H 0.56051 0.1778 0.80789 0.0
H156 H 0.59889 0.21335 0.74249 0.0
H157 H 0.50051 0.14706 0.75213 0.0
C158 C 0.66226 0.31659 0.63257 0.0
C159 C 0.63734 0.27314 0.59513 0.0
C160 C 0.62324 0.30606 0.68737 0.0
C161 C 0.55871 0.25196 0.70517 0.0
C162 C 0.5298 0.2087 0.66539 0.0
H163 H 0.39632 0.24536 0.06966 0.0
H164 H 0.38373 0.21431 0.96759 0.0
C165 C 0.56923 0.21916 0.61092 0.0
C166 C 0.52803 0.24165 0.76699 0.0
H167 H 0.50613 0.18964 0.88608 0.0
C168 C 0.51087 0.26764 0.79463 0.0
C169 C 0.52543 0.21253 0.80033 0.0
C170 C 0.54793 0.18652 0.7744 0.0
C171 C 0.49642 0.26861 0.85504 0.0
C172 C 0.49483 0.24008 0.88829 0.0
C173 C 0.50675 0.21097 0.8603 0.0
C174 C 0.49282 0.24698 0.95209 0.0
C175 C 0.48967 0.30407 0.88283 0.0
C176 C 0.5551 0.27117 0.97819 0.0
C177 C 0.56129 0.28741 0.03663 0.0
C178 C 0.50559 0.28009 0.0695 0.0
C179 C 0.44006 0.25153 0.04476 0.0
C180 C 0.4333 0.23448 0.98648 0.0
H181 H 0.50501 0.3305 0.85125 0.0
H182 H 0.43046 0.27798 0.90189 0.0
H183 H 0.52705 0.33066 0.91817 0.0
H184 H 0.60145 0.28082 0.9525 0.0
H185 H 0.6125 0.30974 0.05478 0.0
H186 H 0.26358 0.56456 0.94494 0.0
H187 H 0.16268 0.52207 0.02537 0.0
H188 H 0.31965 0.6689 0.13112 0.0
H189 H 0.42112 0.71055 0.05182 0.0
H190 H 0.15499 0.49715 0.12226 0.0
H191 H 0.14277 0.63824 0.17281 0.0
H192 H 0.18624 0.63789 0.10441 0.0
H193 H 0.23909 0.67602 0.16664 0.0
C194 C 0.27526 0.58834 0.98467 0.0
C195 C 0.34905 0.64104 0.99229 0.0
C196 C 0.21765 0.56421 0.03019 0.0
C197 C 0.23232 0.59301 0.08313 0.0
C198 C 0.30586 0.64663 0.08986 0.0
H199 H 0.21221 0.58064 0.40259 0.0
H200 H 0.18471 0.54048 0.30581 0.0
C201 C 0.36391 0.67041 0.04479 0.0
C202 C 0.17454 0.56498 0.13384 0.0
H203 H 0.11203 0.5905 0.25452 0.0
C204 C 0.14351 0.5166 0.1504 0.0
C205 C 0.15747 0.58913 0.1699 0.0
C206 C 0.1825 0.63781 0.15208 0.0
C207 C 0.10414 0.49593 0.20528 0.0
C208 C 0.09656 0.52469 0.24431 0.0
C209 C 0.11882 0.56875 0.2249 0.0
C210 C 0.08671 0.52078 0.30753 0.0
C211 C 0.07622 0.44604 0.22268 0.0
C212 C 0.03615 0.51798 0.34282 0.0
C213 C 0.05128 0.54045 0.39923 0.0
C214 C 0.11843 0.56744 0.41987 0.0
C215 C 0.16063 0.56102 0.38808 0.0
C216 C 0.14471 0.53772 0.33223 0.0
H217 H 0.05799 0.41725 0.18492 0.0
H218 H 0.1232 0.45866 0.23891 0.0
H219 H 0.02809 0.42443 0.25733 0.0
H220 H 0.99053 0.5045 0.32471 0.0
H221 H 1.0159 0.54289 0.42372 0.0
H222 H 0.3257 0.80501 0.45336 0.0
H223 H 0.32417 0.85722 0.40745 0.0
H224 H 0.08085 0.73158 0.44665 0.0
H225 H 0.08252 0.68021 0.49362 0.0
H226 H 0.25165 0.81681 0.31138 0.0
H227 H 0.13863 0.86734 0.48171 0.0
H228 H 0.17368 0.84545 0.49833 0.0
H229 H 0.07933 0.79601 0.47737 0.0
C230 C 0.27244 0.7898 0.45435 0.0
C231 C 0.20429 0.73864 0.47707 0.0
C232 C 0.27144 0.81931 0.42755 0.0
C233 C 0.20242 0.79838 0.42352 0.0
C234 C 0.13496 0.74911 0.44987 0.0
H235 H 0.06469 0.88563 0.23668 0.0
H236 H 0.06592 0.83455 0.28584 0.0
C237 C 0.13594 0.71968 0.47662 0.0
C238 C 0.1997 0.82436 0.38608 0.0
H239 H 0.13795 0.87528 0.38389 0.0
C240 C 0.22739 0.83005 0.32738 0.0
C241 C 0.16708 0.84092 0.40672 0.0
C242 C 0.13863 0.83761 0.46959 0.0
C243 C 0.22256 0.85118 0.28864 0.0
C244 C 0.19008 0.86783 0.30928 0.0
C245 C 0.16224 0.86205 0.36795 0.0
C246 C 0.18786 0.894 0.27169 0.0
C247 C 0.25111 0.85453 0.22578 0.0
C248 C 0.25564 0.9434 0.24578 0.0
C249 C 0.25489 0.97214 0.21714 0.0
C250 C 0.1864 0.9524 0.21443 0.0
C251 C 0.11808 0.90139 0.23739 0.0
C252 C 0.11887 0.87255 0.26605 0.0
H253 H 0.25082 0.82464 0.21364 0.0
H254 H 0.21638 0.84696 0.19694 0.0
H255 H 0.31053 0.89607 0.21817 0.0
H256 H 0.30966 0.96129 0.25036 0.0
H257 H 0.30844 1.01147 0.19997 0.0
H258 H 0.27495 0.5378 0.42723 0.0
H259 H 0.249 0.46998 0.35682 0.0
H260 H 0.24175 0.40189 0.49049 0.0
H261 H 0.26744 0.46912 0.56095 0.0
H262 H 0.33792 0.45167 0.32841 0.0
H263 H 0.04024 0.26849 0.41656 0.0
H264 H 0.08807 0.33715 0.43233 0.0
H265 H 0.10907 0.31256 0.46817 0.0
C266 C 0.26744 0.50821 0.4417 0.0
C267 C 0.27313 0.50884 0.49979 0.0
C268 C 0.25281 0.4696 0.40138 0.0
C269 C 0.24277 0.43061 0.41857 0.0
C270 C 0.24829 0.43113 0.47647 0.0
H271 H 0.1382 0.15777 0.24604 0.0
H272 H 0.17094 0.22828 0.31571 0.0
C273 C 0.26327 0.46977 0.51665 0.0
C274 C 0.22782 0.38987 0.37598 0.0
H275 H 0.09523 0.25272 0.34299 0.0
C276 C 0.28475 0.40819 0.33134 0.0
C277 C 0.1587 0.33317 0.38024 0.0
C278 C 0.09508 0.31142 0.42657 0.0
C279 C 0.27476 0.37115 0.29134 0.0
C280 C 0.2053 0.31441 0.2953 0.0
C281 C 0.14849 0.29618 0.34004 0.0
C282 C 0.18943 0.27332 0.25257 0.0
C283 C 0.33935 0.39299 0.24609 0.0
C284 C 0.18886 0.27514 0.19397 0.0
C285 C 0.17014 0.23495 0.15412 0.0
C286 C 0.15113 0.19182 0.17206 0.0
C287 C 0.15247 0.19035 0.23074 0.0
C288 C 0.17112 0.2306 0.27064 0.0
H289 H 0.39475 0.43405 0.25924 0.0
H290 H 0.34248 0.36495 0.23764 0.0
H291 H 0.33015 0.39684 0.20509 0.0
H292 H 0.2014 0.30708 0.17917 0.0
H293 H 0.16953 0.23732 0.10933 0.0
H294 H 0.62972 0.85511 0.59107 0.0
H295 H 0.69629 0.88753 0.49375 0.0
H296 H 0.51848 0.72302 0.42284 0.0
H297 H 0.45176 0.69048 0.51964 0.0
H298 H 0.75055 0.85497 0.42003 0.0
H299 H 0.54295 0.81003 0.31612 0.0
H300 H 0.53913 0.81152 0.39357 0.0
H301 H 0.50319 0.75259 0.3502 0.0
C302 C 0.60416 0.826 0.55462 0.0
C303 C 0.53483 0.77031 0.56309 0.0
C304 C 0.64241 0.84456 0.49903 0.0
C305 C 0.612 0.80788 0.45076 0.0
C306 C 0.54233 0.75237 0.45909 0.0
H307 H 0.76703 0.83831 0.08213 0.0
H308 H 0.69914 0.80401 0.17882 0.0
C309 C 0.50416 0.7338 0.5146 0.0
C310 C 0.65506 0.82705 0.39226 0.0
H311 H 0.64445 0.83455 0.25406 0.0
C312 C 0.72753 0.85079 0.38381 0.0
C313 C 0.62482 0.82122 0.34484 0.0
C314 C 0.54855 0.79792 0.35154 0.0
C315 C 0.77008 0.86812 0.3292 0.0
C316 C 0.74001 0.86255 0.28182 0.0
C317 C 0.66742 0.83864 0.29024 0.0
C318 C 0.78368 0.88263 0.22357 0.0
C319 C 0.84617 0.89117 0.32255 0.0
C320 C 0.85387 0.93818 0.2164 0.0
C321 C 0.89284 0.95777 0.1613 0.0
C322 C 0.86241 0.9223 0.11202 0.0
C323 C 0.79243 0.86659 0.11924 0.0
C324 C 0.75343 0.84697 0.17447 0.0
H325 H 0.85076 0.87782 0.35726 0.0
H326 H 0.85636 0.87858 0.28 0.0
H327 H 0.89163 0.9365 0.32542 0.0
H328 H 0.87758 0.96682 0.25327 0.0
H329 H 0.9457 1.00112 0.15719 0.0
H330 H 0.91237 0.33995 0.53838 0.0
H331 H 0.9435 0.30831 0.588 0.0
H332 H 0.72637 0.141 0.55811 0.0
H333 H 0.69501 0.17271 0.50937 0.0
H334 H 0.74925 0.16594 0.67275 0.0
H335 H 1.00031 0.2338 0.54202 0.0
H336 H 1.01104 0.28742 0.56057 0.0
H337 H 0.94062 0.23074 0.51404 0.0
C338 C 0.87298 0.29641 0.54003 0.0
C339 C 0.80183 0.25872 0.51926 0.0
C340 C 0.89047 0.27829 0.56882 0.0
C341 C 0.83722 0.22216 0.57692 0.0
C342 C 0.76831 0.18444 0.55254 0.0
H343 H 0.80744 0.02792 0.76511 0.0
H344 H 0.77551 0.06027 0.71823 0.0
C345 C 0.75081 0.20251 0.52401 0.0
C346 C 0.84965 0.20297 0.61555 0.0
H347 H 0.96947 0.20304 0.63571 0.0
C348 C 0.79722 0.1738 0.66446 0.0
C349 C 0.91238 0.21347 0.60509 0.0
C350 C 0.96897 0.24262 0.55233 0.0
C351 C 0.80634 0.15549 0.70341 0.0
C352 C 0.86907 0.16598 0.69287 0.0
C353 C 0.92154 0.19523 0.64405 0.0
C354 C 0.88124 0.1463 0.73092 0.0
C355 C 0.74961 0.12608 0.75611 0.0
C356 C 0.95011 0.18371 0.75529 0.0
C357 C 0.96808 0.16522 0.7822 0.0
C358 C 0.91755 0.10894 0.78532 0.0
C359 C 0.84639 0.07148 0.76469 0.0
C360 C 0.82842 0.09001 0.73753 0.0
H361 H 0.7178 0.13451 0.76637 0.0
H362 H 0.70796 0.08133 0.74782 0.0
H363 H 0.778 0.13809 0.79445 0.0
H364 H 0.99178 0.22726 0.75072 0.0
H365 H 1.02391 0.19485 0.79673 0.0
H366 H 0.89436 0.55208 0.51389 0.0
H367 H 0.92763 0.62351 0.58239 0.0
H368 H 0.81049 0.62681 0.49088 0.0
H369 H 0.77653 0.55547 0.42286 0.0
H370 H 1.00563 0.73105 0.56831 0.0
H371 H 0.70461 0.59264 0.6563 0.0
H372 H 0.73617 0.56795 0.61134 0.0
H373 H 0.72182 0.59875 0.5793 0.0
C374 C 0.87602 0.56821 0.50817 0.0
C375 C 0.83177 0.54737 0.46329 0.0
C376 C 0.8952 0.60913 0.54732 0.0
C377 C 0.87012 0.6297 0.54257 0.0
C378 C 0.82903 0.61074 0.49625 0.0
H379 H 0.88166 0.84972 0.75545 0.0
H380 H 0.86678 0.79037 0.67762 0.0
C381 C 0.80993 0.57001 0.45718 0.0
C382 C 0.88427 0.66942 0.58698 0.0
H383 H 0.79336 0.68557 0.68837 0.0
C384 C 0.95929 0.7211 0.59471 0.0
C385 C 0.82377 0.65646 0.62147 0.0
C386 C 0.74206 0.60079 0.61723 0.0
C387 C 0.97528 0.76038 0.63527 0.0
C388 C 0.91469 0.74737 0.66966 0.0
C389 C 0.83978 0.69573 0.66181 0.0
C390 C 0.92741 0.7859 0.71534 0.0
C391 C 0.05686 0.81586 0.64021 0.0
C392 C 0.96588 0.80287 0.76275 0.0
C393 C 0.97422 0.83658 0.80734 0.0
C394 C 0.94399 0.85401 0.80577 0.0
C395 C 0.90577 0.83721 0.75808 0.0
C396 C 0.89724 0.80327 0.71351 0.0
H397 H 0.09466 0.82426 0.60133 0.0
H398 H 0.0628 0.84873 0.64647 0.0
H399 H 0.07647 0.8174 0.67822 0.0
H400 H 0.98817 0.78909 0.76594 0.0
H401 H 1.0038 0.8485 0.84339 0.0
H402 H 0.62115 0.34787 0.53391 0.0
H403 H 0.53591 0.30245 0.62194 0.0
H404 H 0.36988 0.1525 0.52217 0.0
H405 H 0.45648 0.19692 0.43467 0.0
H406 H 0.4174 0.26634 0.66 0.0
H407 H 0.34906 0.0853 0.64159 0.0
H408 H 0.41257 0.13551 0.587 0.0
H409 H 0.31155 0.08109 0.58412 0.0
C410 C 0.56639 0.30507 0.53083 0.0
C411 C 0.54565 0.27584 0.47743 0.0
C412 C 0.51744 0.27899 0.5813 0.0
C413 C 0.44595 0.22334 0.57949 0.0
C414 C 0.42475 0.19476 0.52565 0.0
H415 H 0.06564 1.00998 0.84468 0.0
H416 H 0.14539 0.05235 0.75312 0.0
C417 C 0.47438 0.2204 0.47532 0.0
C418 C 0.39295 0.19681 0.63353 0.0
H419 H 0.26877 0.08179 0.71187 0.0
C420 C 0.38595 0.22625 0.6714 0.0
C421 C 0.35033 0.14395 0.64878 0.0
C422 C 0.35704 0.11018 0.61334 0.0
C423 C 0.33856 0.205 0.72354 0.0
C424 C 0.29527 0.15202 0.73812 0.0
C425 C 0.30118 0.12211 0.70023 0.0
C426 C 0.24542 0.12742 0.79328 0.0
C427 C 0.33522 0.23976 0.76181 0.0
C428 C 0.27481 0.1553 0.84619 0.0
C429 C 0.22864 0.13207 0.8982 0.0
C430 C 0.15257 0.07939 0.89862 0.0
C431 C 0.12352 0.05087 0.84572 0.0
C432 C 0.16927 0.07491 0.79344 0.0
H433 H 0.34732 0.26797 0.73605 0.0
H434 H 0.2792 0.21462 0.78746 0.0
H435 H 0.37936 0.26531 0.79214 0.0
H436 H 0.33389 0.19481 0.84732 0.0
H437 H 0.25346 0.15487 0.93817 0.0
H438 H 0.68389 0.49651 0.1656 0.0
H439 H 0.69913 0.56164 0.12918 0.0
H440 H 0.45592 0.43828 0.1364 0.0
H441 H 0.4409 0.37372 0.17301 0.0
H442 H 0.65146 0.5439 0.02486 0.0
H443 H 0.51703 0.5738 0.20008 0.0
H444 H 0.54068 0.54263 0.21194 0.0
H445 H 0.45418 0.50267 0.18181 0.0
C446 C 0.63383 0.48437 0.16204 0.0
C447 C 0.56119 0.43057 0.1733 0.0
C448 C 0.64251 0.52127 0.14046 0.0
C449 C 0.57866 0.50506 0.13033 0.0
C450 C 0.506 0.45226 0.14493 0.0
H451 H 0.4991 0.59062 0.87872 0.0
H452 H 0.52995 0.55819 0.92691 0.0
C453 C 0.49738 0.41543 0.16618 0.0
C454 C 0.58733 0.54054 0.09872 0.0
H455 H 0.52778 0.59396 0.104 0.0
C456 C 0.62548 0.55564 0.04253 0.0
C457 C 0.5538 0.55614 0.12165 0.0
C458 C 0.51482 0.5434 0.18243 0.0
C459 C 0.62837 0.58394 0.00796 0.0
C460 C 0.59138 0.597 0.02984 0.0
C461 C 0.55587 0.58378 0.08687 0.0
C462 C 0.58579 0.62233 0.99415 0.0
C463 C 0.67074 0.59934 0.94826 0.0
C464 C 0.6084 0.66993 0.01479 0.0
C465 C 0.59065 0.68833 0.9873 0.0
C466 C 0.54999 0.65959 0.9385 0.0
C467 C 0.53209 0.61427 0.91536 0.0
C468 C 0.54948 0.59561 0.94313 0.0
H469 H 0.71467 0.60222 0.94494 0.0
H470 H 0.63016 0.56733 0.91632 0.0
H471 H 0.69849 0.63901 0.93648 0.0
H472 H 0.63635 0.69127 0.054 0.0
H473 H 0.60415 0.72294 1.00647 0.0
H474 H 0.38078 0.84284 0.82504 0.0
H475 H 0.40003 0.9071 0.89679 0.0
H476 H 0.54181 0.92383 0.98208 0.0
H477 H 0.52348 0.86 0.91027 0.0
H478 H 0.36889 0.90381 0.01853 0.0
H479 H 0.67686 0.08244 0.95134 0.0
H480 H 0.61423 0.02004 0.90746 0.0
H481 H 0.64869 0.02411 0.96823 0.0
C482 C 0.4161 0.86014 0.85904 0.0
C483 C 0.45111 0.84651 0.86149 0.0
C484 C 0.42688 0.89682 0.90014 0.0
C485 C 0.47329 0.921 0.94437 0.0
C486 C 0.50692 0.90655 0.94773 0.0
H487 H 0.62993 0.15417 0.22951 0.0
H488 H 0.59591 0.08416 0.15894 0.0
C489 C 0.4961 0.86981 0.90671 0.0
C490 C 0.48716 0.9617 0.98664 0.0
H491 H 0.62814 0.09407 0.03802 0.0
C492 C 0.42548 0.94552 0.02257 0.0
C493 C 0.56095 0.01625 0.9917 0.0
C494 C 0.62896 0.03706 0.95231 0.0
C495 C 0.43601 0.98192 0.06462 0.0
C496 C 0.51004 0.03614 0.07033 0.0
C497 C 0.57143 0.05246 0.0338 0.0
C498 C 0.52597 0.07632 0.11513 0.0
C499 C 0.3683 0.96169 0.10381 0.0
C500 C 0.49768 0.09524 0.11431 0.0
C501 C 0.51733 0.13569 0.15475 0.0
C502 C 0.56567 0.15797 0.19673 0.0
C503 C 0.59264 0.1381 0.19789 0.0
C504 C 0.57331 0.09801 0.15746 0.0
H505 H 0.31831 0.91632 0.10231 0.0
H506 H 0.38217 0.97622 0.14919 0.0
H507 H 0.3524 0.97816 0.09011 0.0
H508 H 0.46188 0.07968 0.08158 0.0
H509 H 0.49558 0.15005 0.15258 0.0
H510 H 0.32834 0.68583 0.83127 0.0
H511 H 0.24716 0.64313 0.92222 0.0
H512 H 0.07679 0.48943 0.82897 0.0
H513 H 0.15967 0.5305 0.73944 0.0
H514 H 0.11659 0.60307 0.95204 0.0
H515 H 0.06911 0.43323 0.95797 0.0
H516 H 0.13789 0.48547 0.90552 0.0
H517 H 0.03897 0.42834 0.89372 0.0
C518 C 0.27466 0.64254 0.83055 0.0
C519 C 0.25112 0.61148 0.77825 0.0
C520 C 0.22792 0.61823 0.88246 0.0
C521 C 0.15608 0.56268 0.88282 0.0
C522 C 0.13279 0.53172 0.83051 0.0
H523 H 0.76997 0.34729 0.14005 0.0
H524 H 0.85711 0.3891 0.05186 0.0
C525 C 0.18024 0.55556 0.77904 0.0
C526 C 0.10312 0.53829 0.9368 0.0
H527 H 0.98643 0.42929 0.02314 0.0
C528 C 0.08865 0.56529 0.96785 0.0
C529 C 0.06491 0.48817 0.95669 0.0
C530 C 0.0791 0.45748 0.92692 0.0
C531 C 0.03666 0.54348 0.01768 0.0
C532 C 0.99996 0.49411 0.03844 0.0
C533 C 1.01423 0.46701 1.00728 0.0
C534 C 0.9463 0.46947 0.0921 0.0
C535 C 1.0197 0.57268 0.04588 0.0
C536 C 0.96705 0.5004 0.14441 0.0
C537 C 0.9172 0.47671 0.195 0.0
C538 C 0.84554 0.42126 0.19441 0.0
C539 C 0.82492 0.39011 0.14214 0.0
C540 C 0.87473 0.41399 0.09157 0.0
H541 H 0.03046 0.59697 0.0143 0.0
H542 H 0.95988 0.54355 0.06535 0.0
H543 H 0.05763 0.6016 0.08037 0.0
H544 H 1.02195 0.54291 0.14628 0.0
H545 H 0.93515 0.50178 0.23459 0.0
loop_
_geom_bond_atom_site_label_1
_geom_bond_atom_site_label_2
_geom_bond_distance
_geom_bond_site_symmetry_2
_ccdc_geom_bond_type
C0 C1 1.386 . S
C0 C5 1.384 1_545 S
C0 C16 1.497 . S
C1 C0 1.386 . S
C1 C2 1.393 1_545 S
C1 H32 0.932 . S
C2 C1 1.393 1_565 S
C2 C3 1.387 . S
C3 C2 1.387 . S
C3 C4 1.392 . S
C3 H33 0.930 . S
C4 C3 1.392 . S
C4 C5 1.402 . S
C5 C0 1.384 1_565 S
C5 C4 1.402 . S
C5 H34 0.930 . S
O6 Tb7 2.288 1_655 S
O6 C19 1.257 1_545 S
Tb7 O6 2.288 1_455 S
Tb7 O9 2.303 . S
Tb7 O11 2.430 . S
Tb7 O13 2.459 . S
Tb7 O15 2.301 1_554 S
Tb7 C16 2.808 . S
Tb8 O10 2.301 1_556 S
Tb8 C12 2.808 . S
Tb8 O14 2.288 1_655 S
Tb8 O21 2.303 . S
Tb8 O30 2.430 . S
Tb8 O31 2.459 . S
O9 Tb7 2.303 . S
O9 C28 1.255 . S
O10 Tb8 2.301 1_554 S
O10 C19 1.237 . S
O11 Tb7 2.430 . S
O11 C16 1.248 . S
C12 Tb8 2.808 . S
C12 C22 1.497 . S
C12 O30 1.248 . S
C12 O31 1.260 . S
O13 Tb7 2.459 . S
O13 C16 1.260 . S
O14 Tb8 2.288 1_455 S
O14 C20 1.257 1_565 S
O15 Tb7 2.301 1_556 S
O15 C20 1.237 . S
C16 C0 1.497 . S
C16 Tb7 2.808 . S
C16 O11 1.248 . S
C16 O13 1.260 . S
C17 O18 1.255 . S
C17 O21 1.255 . S
O18 C17 1.255 . S
C19 O6 1.257 1_565 S
C19 O10 1.237 . S
C20 O14 1.257 1_545 S
C20 O15 1.237 . S
O21 Tb8 2.303 . S
O21 C17 1.255 . S
C22 C12 1.497 . S
C22 C24 1.384 1_565 S
C22 C25 1.386 . S
C23 C24 1.402 . S
C23 C27 1.392 . S
C24 C22 1.384 1_545 S
C24 C23 1.402 . S
C24 H35 0.930 . S
C25 C22 1.386 . S
C25 C26 1.393 1_565 S
C25 H36 0.932 . S
C26 C25 1.393 1_545 S
C26 C27 1.387 . S
C27 C23 1.392 . S
C27 C26 1.387 . S
C27 H37 0.930 . S
C28 O9 1.255 . S
C28 O29 1.255 . S
O29 C28 1.255 . S
O30 Tb8 2.430 . S
O30 C12 1.248 . S
O31 Tb8 2.459 . S
O31 C12 1.260 . S
H32 C1 0.932 . S
H33 C3 0.930 . S
H34 C5 0.930 . S
H35 C24 0.930 . S
H36 C25 0.932 . S
H37 C27 0.930 . S
C38 C39 1.386 . S
C38 C43 1.384 . S
C38 C54 1.497 . S
C39 C38 1.386 . S
C39 C40 1.393 . S
C39 H70 0.932 . S
C40 C39 1.393 . S
C40 C41 1.387 . S
C41 C40 1.387 . S
C41 C42 1.392 . S
C41 H71 0.930 . S
C42 C41 1.392 . S
C42 C43 1.402 . S
C43 C38 1.384 . S
C43 C42 1.402 . S
C43 H72 0.930 . S
O44 Tb45 2.288 . S
O44 C57 1.257 . S
Tb45 O44 2.288 . S
Tb45 O47 2.303 . S
Tb45 O49 2.430 . S
Tb45 O51 2.459 . S
Tb45 O53 2.301 . S
Tb45 C54 2.808 . S
Tb46 O48 2.301 . S
Tb46 C50 2.808 . S
Tb46 O52 2.288 . S
Tb46 O59 2.303 . S
Tb46 O68 2.430 . S
Tb46 O69 2.459 . S
O47 Tb45 2.303 . S
O47 C66 1.255 . S
O48 Tb46 2.301 . S
O48 C57 1.237 . S
O49 Tb45 2.430 . S
O49 C54 1.248 . S
C50 Tb46 2.808 . S
C50 C60 1.497 . S
C50 O68 1.248 . S
C50 O69 1.260 . S
O51 Tb45 2.459 . S
O51 C54 1.260 . S
O52 Tb46 2.288 . S
O52 C58 1.257 . S
O53 Tb45 2.301 . S
O53 C58 1.237 . S
C54 C38 1.497 . S
C54 Tb45 2.808 . S
C54 O49 1.248 . S
C54 O51 1.260 . S
C55 O56 1.255 . S
C55 O59 1.255 . S
O56 C55 1.255 . S
C57 O44 1.257 . S
C57 O48 1.237 . S
C58 O52 1.257 . S
C58 O53 1.237 . S
O59 Tb46 2.303 . S
O59 C55 1.255 . S
C60 C50 1.497 . S
C60 C62 1.384 . S
C60 C63 1.386 . S
C61 C62 1.402 . S
C61 C65 1.392 . S
C62 C60 1.384 . S
C62 C61 1.402 . S
C62 H73 0.930 . S
C63 C60 1.386 . S
C63 C64 1.393 . S
C63 H74 0.932 . S
C64 C63 1.393 . S
C64 C65 1.387 . S
C65 C61 1.392 . S
C65 C64 1.387 . S
C65 H75 0.930 . S
C66 O47 1.255 . S
C66 O67 1.255 . S
O67 C66 1.255 . S
O68 Tb46 2.430 . S
O68 C50 1.248 . S
O69 Tb46 2.459 . S
O69 C50 1.260 . S
H70 C39 0.932 . S
H71 C41 0.930 . S
H72 C43 0.930 . S
H73 C62 0.930 . S
H74 C63 0.932 . S
H75 C65 0.930 . S
C76 C77 1.386 . S
C76 C81 1.384 . S
C76 C92 1.497 . S
C77 C76 1.386 . S
C77 C78 1.393 . S
C77 H108 0.932 . S
C78 C77 1.393 . S
C78 C79 1.387 . S
C79 C78 1.387 . S
C79 C80 1.392 . S
C79 H109 0.930 . S
C80 C79 1.392 . S
C80 C81 1.402 . S
C81 C76 1.384 . S
C81 C80 1.402 . S
C81 H110 0.930 . S
O82 Tb83 2.288 . S
O82 C95 1.257 . S
Tb83 O82 2.288 . S
Tb83 O85 2.303 . S
Tb83 O87 2.430 . S
Tb83 O89 2.459 . S
Tb83 O91 2.301 . S
Tb83 C92 2.808 . S
Tb84 O86 2.301 . S
Tb84 C88 2.808 . S
Tb84 O90 2.288 . S
Tb84 O97 2.303 . S
Tb84 O106 2.430 . S
Tb84 O107 2.459 . S
O85 Tb83 2.303 . S
O85 C104 1.255 . S
O86 Tb84 2.301 . S
O86 C95 1.237 . S
O87 Tb83 2.430 . S
O87 C92 1.248 . S
C88 Tb84 2.808 . S
C88 C98 1.497 . S
C88 O106 1.248 . S
C88 O107 1.260 . S
O89 Tb83 2.459 . S
O89 C92 1.260 . S
O90 Tb84 2.288 . S
O90 C96 1.257 . S
O91 Tb83 2.301 . S
O91 C96 1.237 . S
C92 C76 1.497 . S
C92 Tb83 2.808 . S
C92 O87 1.248 . S
C92 O89 1.260 . S
C93 O94 1.255 . S
C93 O97 1.255 . S
O94 C93 1.255 . S
C95 O82 1.257 . S
C95 O86 1.237 . S
C96 O90 1.257 . S
C96 O91 1.237 . S
O97 Tb84 2.303 . S
O97 C93 1.255 . S
C98 C88 1.497 . S
C98 C100 1.384 . S
C98 C101 1.386 . S
C99 C100 1.402 . S
C99 C103 1.392 . S
C100 C98 1.384 . S
C100 C99 1.402 . S
C100 H111 0.930 . S
C101 C98 1.386 . S
C101 C102 1.393 . S
C101 H112 0.932 . S
C102 C101 1.393 . S
C102 C103 1.387 . S
C103 C99 1.392 . S
C103 C102 1.387 . S
C103 H113 0.930 . S
C104 O85 1.255 . S
C104 O105 1.255 . S
O105 C104 1.255 . S
O106 Tb84 2.430 . S
O106 C88 1.248 . S
O107 Tb84 2.459 . S
O107 C88 1.260 . S
H108 C77 0.932 . S
H109 C79 0.930 . S
H110 C81 0.930 . S
H111 C100 0.930 . S
H112 C101 0.932 . S
H113 C103 0.930 . S
H114 C122 0.929 . S
H115 C124 0.930 . S
H116 C126 0.930 1_455 S
H117 C129 0.929 1_565 S
H118 C132 0.930 . S
H119 C134 0.960 . S
H120 C134 0.960 . S
H121 C134 0.960 . S
C122 H114 0.929 . S
C122 C123 1.377 . S
C122 C124 1.384 . S
C123 C122 1.377 . S
C123 C129 1.390 . S
C124 H115 0.930 . S
C124 C122 1.384 . S
C124 C125 1.372 . S
C125 C124 1.372 . S
C125 C126 1.400 1_545 S
C125 C130 1.490 . S
C126 H116 0.930 1_655 S
C126 C125 1.400 1_565 S
C126 C129 1.386 1_565 S
H127 C143 0.930 . S
H128 C144 0.931 . S
C129 H117 0.929 1_545 S
C129 C123 1.390 . S
C129 C126 1.386 1_545 S
C130 C125 1.490 . S
C130 C132 1.395 1_655 S
C130 C133 1.403 1_545 S
H131 C137 0.930 . S
C132 H118 0.930 . S
C132 C130 1.395 1_455 S
C132 C135 1.403 . S
C133 C130 1.403 1_565 S
C133 C134 1.524 . S
C133 C137 1.400 . S
C134 H119 0.960 . S
C134 H120 0.960 . S
C134 H121 0.960 . S
C134 C133 1.524 . S
C135 C132 1.403 . S
C135 C136 1.392 . S
C135 C139 1.495 . S
C136 C135 1.392 . S
C136 C137 1.385 1_445 S
C136 C138 1.478 . S
C137 H131 0.930 . S
C137 C133 1.400 . S
C137 C136 1.385 1_665 S
C138 C136 1.478 . S
C138 C140 1.381 . S
C138 C144 1.383 . S
C139 C135 1.495 . S
C139 H145 0.959 . S
C139 H146 0.961 . S
C139 H147 0.960 . S
C140 C138 1.381 . S
C140 C141 1.394 1_545 S
C140 H148 0.930 1_455 S
C141 C140 1.394 1_565 S
C141 C142 1.383 . S
C141 H149 0.929 . S
C142 C141 1.383 . S
C142 C143 1.377 . S
C143 H127 0.930 . S
C143 C142 1.377 . S
C143 C144 1.379 1_565 S
C144 H128 0.931 . S
C144 C138 1.383 . S
C144 C143 1.379 1_545 S
H145 C139 0.959 . S
H146 C139 0.961 . S
H147 C139 0.960 . S
H148 C140 0.930 1_655 S
H149 C141 0.929 . S
H150 C158 0.929 . S
H151 C160 0.930 . S
H152 C162 0.930 . S
H153 C165 0.929 . S
H154 C168 0.930 . S
H155 C170 0.960 . S
H156 C170 0.960 . S
H157 C170 0.960 . S
C158 H150 0.929 . S
C158 C159 1.377 . S
C158 C160 1.384 . S
C159 C158 1.377 . S
C159 C165 1.390 . S
C160 H151 0.930 . S
C160 C158 1.384 . S
C160 C161 1.372 . S
C161 C160 1.372 . S
C161 C162 1.400 . S
C161 C166 1.490 . S
C162 H152 0.930 . S
C162 C161 1.400 . S
C162 C165 1.386 . S
H163 C179 0.930 . S
H164 C180 0.931 . S
C165 H153 0.929 . S
C165 C159 1.390 . S
C165 C162 1.386 . S
C166 C161 1.490 . S
C166 C168 1.395 . S
C166 C169 1.403 . S
H167 C173 0.930 . S
C168 H154 0.930 . S
C168 C166 1.395 . S
C168 C171 1.403 . S
C169 C166 1.403 . S
C169 C170 1.524 . S
C169 C173 1.400 . S
C170 H155 0.960 . S
C170 H156 0.960 . S
C170 H157 0.960 . S
C170 C169 1.524 . S
C171 C168 1.403 . S
C171 C172 1.392 . S
C171 C175 1.495 . S
C172 C171 1.392 . S
C172 C173 1.385 . S
C172 C174 1.478 . S
C173 H167 0.930 . S
C173 C169 1.400 . S
C173 C172 1.385 . S
C174 C172 1.478 . S
C174 C176 1.381 . S
C174 C180 1.383 . S
C175 C171 1.495 . S
C175 H181 0.959 . S
C175 H182 0.961 . S
C175 H183 0.960 . S
C176 C174 1.381 . S
C176 C177 1.394 1_556 S
C176 H184 0.930 . S
C177 C176 1.394 1_554 S
C177 C178 1.383 . S
C177 H185 0.929 . S
C178 C177 1.383 . S
C178 C179 1.377 . S
C179 H163 0.930 . S
C179 C178 1.377 . S
C179 C180 1.379 1_554 S
C180 H164 0.931 . S
C180 C174 1.383 . S
C180 C179 1.379 1_556 S
H181 C175 0.959 . S
H182 C175 0.961 . S
H183 C175 0.960 . S
H184 C176 0.930 . S
H185 C177 0.929 . S
H186 C194 0.929 . S
H187 C196 0.930 . S
H188 C198 0.930 . S
H189 C201 0.929 . S
H190 C204 0.930 . S
H191 C206 0.960 . S
H192 C206 0.960 . S
H193 C206 0.960 . S
C194 H186 0.929 . S
C194 C195 1.377 . S
C194 C196 1.384 1_556 S
C195 C194 1.377 . S
C195 C201 1.390 . S
C196 H187 0.930 . S
C196 C194 1.384 1_554 S
C196 C197 1.372 . S
C197 C196 1.372 . S
C197 C198 1.400 . S
C197 C202 1.490 . S
C198 H188 0.930 . S
C198 C197 1.400 . S
C198 C201 1.386 1_554 S
H199 C215 0.930 . S
H200 C216 0.931 . S
C201 H189 0.929 . S
C201 C195 1.390 . S
C201 C198 1.386 1_556 S
C202 C197 1.490 . S
C202 C204 1.395 . S
C202 C205 1.403 . S
H203 C209 0.930 . S
C204 H190 0.930 . S
C204 C202 1.395 . S
C204 C207 1.403 . S
C205 C202 1.403 . S
C205 C206 1.524 . S
C205 C209 1.400 . S
C206 H191 0.960 . S
C206 H192 0.960 . S
C206 H193 0.960 . S
C206 C205 1.524 . S
C207 C204 1.403 . S
C207 C208 1.392 . S
C207 C211 1.495 . S
C208 C207 1.392 . S
C208 C209 1.385 . S
C208 C210 1.478 . S
C209 H203 0.930 . S
C209 C205 1.400 . S
C209 C208 1.385 . S
C210 C208 1.478 . S
C210 C212 1.381 . S
C210 C216 1.383 . S
C211 C207 1.495 . S
C211 H217 0.959 . S
C211 H218 0.961 . S
C211 H219 0.960 . S
C212 C210 1.381 . S
C212 C213 1.394 . S
C212 H220 0.930 . S
C213 C212 1.394 . S
C213 C214 1.383 . S
C213 H221 0.929 . S
C214 C213 1.383 . S
C214 C215 1.377 . S
C215 H199 0.930 . S
C215 C214 1.377 . S
C215 C216 1.379 . S
C216 H200 0.931 . S
C216 C210 1.383 . S
C216 C215 1.379 . S
H217 C211 0.959 . S
H218 C211 0.961 . S
H219 C211 0.960 . S
H220 C212 0.930 . S
H221 C213 0.929 . S
H222 C230 0.929 . S
H223 C232 0.930 . S
H224 C234 0.930 . S
H225 C237 0.929 . S
H226 C240 0.930 . S
H227 C242 0.960 . S
H228 C242 0.960 . S
H229 C242 0.960 . S
C230 H222 0.929 . S
C230 C231 1.377 . S
C230 C232 1.384 . S
C231 C230 1.377 . S
C231 C237 1.390 . S
C232 H223 0.930 . S
C232 C230 1.384 . S
C232 C233 1.372 . S
C233 C232 1.372 . S
C233 C234 1.400 . S
C233 C238 1.490 . S
C234 H224 0.930 . S
C234 C233 1.400 . S
C234 C237 1.386 . S
H235 C251 0.930 . S
H236 C252 0.931 . S
C237 H225 0.929 . S
C237 C231 1.390 . S
C237 C234 1.386 . S
C238 C233 1.490 . S
C238 C240 1.395 . S
C238 C241 1.403 . S
H239 C245 0.930 . S
C240 H226 0.930 . S
C240 C238 1.395 . S
C240 C243 1.403 . S
C241 C238 1.403 . S
C241 C242 1.524 . S
C241 C245 1.400 . S
C242 H227 0.960 . S
C242 H228 0.960 . S
C242 H229 0.960 . S
C242 C241 1.524 . S
C243 C240 1.403 . S
C243 C244 1.392 . S
C243 C247 1.495 . S
C244 C243 1.392 . S
C244 C245 1.385 . S
C244 C246 1.478 . S
C245 H239 0.930 . S
C245 C241 1.400 . S
C245 C244 1.385 . S
C246 C244 1.478 . S
C246 C248 1.381 . S
C246 C252 1.383 . S
C247 C243 1.495 . S
C247 H253 0.959 . S
C247 H254 0.961 . S
C247 H255 0.960 . S
C248 C246 1.381 . S
C248 C249 1.394 . S
C248 H256 0.930 . S
C249 C248 1.394 . S
C249 C250 1.383 . S
C249 H257 0.929 . S
C250 C249 1.383 . S
C250 C251 1.377 . S
C251 H235 0.930 . S
C251 C250 1.377 . S
C251 C252 1.379 . S
C252 H236 0.931 . S
C252 C246 1.383 . S
C252 C251 1.379 . S
H253 C247 0.959 . S
H254 C247 0.961 . S
H255 C247 0.960 . S
H256 C248 0.930 . S
H257 C249 0.929 . S
H258 C266 0.929 . S
H259 C268 0.930 . S
H260 C270 0.930 . S
H261 C273 0.929 . S
H262 C276 0.930 . S
H263 C278 0.960 . S
H264 C278 0.960 . S
H265 C278 0.960 . S
C266 H258 0.929 . S
C266 C267 1.377 . S
C266 C268 1.384 . S
C267 C266 1.377 . S
C267 C273 1.390 . S
C268 H259 0.930 . S
C268 C266 1.384 . S
C268 C269 1.372 . S
C269 C268 1.372 . S
C269 C270 1.400 . S
C269 C274 1.490 . S
C270 H260 0.930 . S
C270 C269 1.400 . S
C270 C273 1.386 . S
H271 C287 0.930 1_655 S
H272 C288 0.931 . S
C273 H261 0.929 . S
C273 C267 1.390 . S
C273 C270 1.386 . S
C274 C269 1.490 . S
C274 C276 1.395 . S
C274 C277 1.403 . S
H275 C281 0.930 . S
C276 H262 0.930 . S
C276 C274 1.395 . S
C276 C279 1.403 . S
C277 C274 1.403 . S
C277 C278 1.524 . S
C277 C281 1.400 . S
C278 H263 0.960 . S
C278 H264 0.960 . S
C278 H265 0.960 . S
C278 C277 1.524 . S
C279 C276 1.403 . S
C279 C280 1.392 . S
C279 C283 1.495 . S
C280 C279 1.392 . S
C280 C281 1.385 . S
C280 C282 1.478 . S
C281 H275 0.930 . S
C281 C277 1.400 . S
C281 C280 1.385 . S
C282 C280 1.478 . S
C282 C284 1.381 . S
C282 C288 1.383 . S
C283 C279 1.495 . S
C283 H289 0.959 . S
C283 H290 0.961 . S
C283 H291 0.960 . S
C284 C282 1.381 . S
C284 C285 1.394 . S
C284 H292 0.930 . S
C285 C284 1.394 . S
C285 C286 1.383 . S
C285 H293 0.929 . S
C286 C285 1.383 . S
C286 C287 1.377 . S
C287 H271 0.930 1_455 S
C287 C286 1.377 . S
C287 C288 1.379 . S
C288 H272 0.931 . S
C288 C282 1.383 . S
C288 C287 1.379 . S
H289 C283 0.959 . S
H290 C283 0.961 . S
H291 C283 0.960 . S
H292 C284 0.930 . S
H293 C285 0.929 . S
H294 C302 0.929 . S
H295 C304 0.930 . S
H296 C306 0.930 . S
H297 C309 0.929 . S
H298 C312 0.930 . S
H299 C314 0.960 . S
H300 C314 0.960 . S
H301 C314 0.960 . S
C302 H294 0.929 . S
C302 C303 1.377 . S
C302 C304 1.384 . S
C303 C302 1.377 . S
C303 C309 1.390 . S
C304 H295 0.930 . S
C304 C302 1.384 . S
C304 C305 1.372 . S
C305 C304 1.372 . S
C305 C306 1.400 . S
C305 C310 1.490 . S
C306 H296 0.930 . S
C306 C305 1.400 . S
C306 C309 1.386 . S
H307 C323 0.930 . S
H308 C324 0.931 . S
C309 H297 0.929 . S
C309 C303 1.390 . S
C309 C306 1.386 . S
C310 C305 1.490 . S
C310 C312 1.395 . S
C310 C313 1.403 . S
H311 C317 0.930 . S
C312 H298 0.930 . S
C312 C310 1.395 . S
C312 C315 1.403 . S
C313 C310 1.403 . S
C313 C314 1.524 . S
C313 C317 1.400 . S
C314 H299 0.960 . S
C314 H300 0.960 . S
C314 H301 0.960 . S
C314 C313 1.524 . S
C315 C312 1.403 . S
C315 C316 1.392 . S
C315 C319 1.495 . S
C316 C315 1.392 . S
C316 C317 1.385 . S
C316 C318 1.478 . S
C317 H311 0.930 . S
C317 C313 1.400 . S
C317 C316 1.385 . S
C318 C316 1.478 . S
C318 C320 1.381 . S
C318 C324 1.383 . S
C319 C315 1.495 . S
C319 H325 0.959 . S
C319 H326 0.961 . S
C319 H327 0.960 . S
C320 C318 1.381 . S
C320 C321 1.394 . S
C320 H328 0.930 . S
C321 C320 1.394 . S
C321 C322 1.383 . S
C321 H329 0.929 . S
C322 C321 1.383 . S
C322 C323 1.377 . S
C323 H307 0.930 . S
C323 C322 1.377 . S
C323 C324 1.379 . S
C324 H308 0.931 . S
C324 C318 1.383 . S
C324 C323 1.379 . S
H325 C319 0.959 . S
H326 C319 0.961 . S
H327 C319 0.960 . S
H328 C320 0.930 . S
H329 C321 0.929 . S
H330 C338 0.929 . S
H331 C340 0.930 . S
H332 C342 0.930 . S
H333 C345 0.929 . S
H334 C348 0.930 . S
H335 C350 0.960 . S
H336 C350 0.960 . S
H337 C350 0.960 . S
C338 H330 0.929 . S
C338 C339 1.377 . S
C338 C340 1.384 . S
C339 C338 1.377 . S
C339 C345 1.390 . S
C340 H331 0.930 . S
C340 C338 1.384 . S
C340 C341 1.372 . S
C341 C340 1.372 . S
C341 C342 1.400 . S
C341 C346 1.490 . S
C342 H332 0.930 . S
C342 C341 1.400 . S
C342 C345 1.386 . S
H343 C359 0.930 . S
H344 C360 0.931 . S
C345 H333 0.929 . S
C345 C339 1.390 . S
C345 C342 1.386 . S
C346 C341 1.490 . S
C346 C348 1.395 . S
C346 C349 1.403 . S
H347 C353 0.930 . S
C348 H334 0.930 . S
C348 C346 1.395 . S
C348 C351 1.403 . S
C349 C346 1.403 . S
C349 C350 1.524 . S
C349 C353 1.400 . S
C350 H335 0.960 . S
C350 H336 0.960 . S
C350 H337 0.960 . S
C350 C349 1.524 . S
C351 C348 1.403 . S
C351 C352 1.392 . S
C351 C355 1.495 . S
C352 C351 1.392 . S
C352 C353 1.385 . S
C352 C354 1.478 . S
C353 H347 0.930 . S
C353 C349 1.400 . S
C353 C352 1.385 . S
C354 C352 1.478 . S
C354 C356 1.381 . S
C354 C360 1.383 . S
C355 C351 1.495 . S
C355 H361 0.959 . S
C355 H362 0.961 . S
C355 H363 0.960 . S
C356 C354 1.381 . S
C356 C357 1.394 . S
C356 H364 0.930 . S
C357 C356 1.394 . S
C357 C358 1.383 . S
C357 H365 0.929 . S
C358 C357 1.383 . S
C358 C359 1.377 . S
C359 H343 0.930 . S
C359 C358 1.377 . S
C359 C360 1.379 . S
C360 H344 0.931 . S
C360 C354 1.383 . S
C360 C359 1.379 . S
H361 C355 0.959 . S
H362 C355 0.961 . S
H363 C355 0.960 . S
H364 C356 0.930 . S
H365 C357 0.929 . S
H366 C374 0.929 . S
H367 C376 0.930 . S
H368 C378 0.930 . S
H369 C381 0.929 . S
H370 C384 0.930 . S
H371 C386 0.960 . S
H372 C386 0.960 . S
H373 C386 0.960 . S
C374 H366 0.929 . S
C374 C375 1.377 . S
C374 C376 1.384 . S
C375 C374 1.377 . S
C375 C381 1.390 . S
C376 H367 0.930 . S
C376 C374 1.384 . S
C376 C377 1.372 . S
C377 C376 1.372 . S
C377 C378 1.400 . S
C377 C382 1.490 . S
C378 H368 0.930 . S
C378 C377 1.400 . S
C378 C381 1.386 . S
H379 C395 0.930 . S
H380 C396 0.931 . S
C381 H369 0.929 . S
C381 C375 1.390 . S
C381 C378 1.386 . S
C382 C377 1.490 . S
C382 C384 1.395 . S
C382 C385 1.403 . S
H383 C389 0.930 . S
C384 H370 0.930 . S
C384 C382 1.395 . S
C384 C387 1.403 . S
C385 C382 1.403 . S
C385 C386 1.524 . S
C385 C389 1.400 . S
C386 H371 0.960 . S
C386 H372 0.960 . S
C386 H373 0.960 . S
C386 C385 1.524 . S
C387 C384 1.403 . S
C387 C388 1.392 . S
C387 C391 1.495 . S
C388 C387 1.392 . S
C388 C389 1.385 . S
C388 C390 1.478 . S
C389 H383 0.930 . S
C389 C385 1.400 . S
C389 C388 1.385 . S
C390 C388 1.478 . S
C390 C392 1.381 . S
C390 C396 1.383 . S
C391 C387 1.495 . S
C391 H397 0.959 . S
C391 H398 0.961 . S
C391 H399 0.960 . S
C392 C390 1.381 . S
C392 C393 1.394 . S
C392 H400 0.929 1_655 S
C393 C392 1.394 . S
C393 C394 1.383 . S
C393 H401 0.929 1_655 S
C394 C393 1.383 . S
C394 C395 1.377 . S
C395 H379 0.930 . S
C395 C394 1.377 . S
C395 C396 1.379 . S
C396 H380 0.931 . S
C396 C390 1.383 . S
C396 C395 1.379 . S
H397 C391 0.959 . S
H398 C391 0.961 . S
H399 C391 0.960 . S
H400 C392 0.929 1_455 S
H401 C393 0.929 1_455 S
H402 C410 0.929 . S
H403 C412 0.930 . S
H404 C414 0.930 . S
H405 C417 0.929 . S
H406 C420 0.930 . S
H407 C422 0.960 . S
H408 C422 0.960 . S
H409 C422 0.960 . S
C410 H402 0.929 . S
C410 C411 1.377 . S
C410 C412 1.384 . S
C411 C410 1.377 . S
C411 C417 1.390 . S
C412 H403 0.930 . S
C412 C410 1.384 . S
C412 C413 1.372 . S
C413 C412 1.372 . S
C413 C414 1.400 . S
C413 C418 1.490 . S
C414 H404 0.930 . S
C414 C413 1.400 . S
C414 C417 1.386 . S
H415 C431 0.930 . S
H416 C432 0.931 . S
C417 H405 0.929 . S
C417 C411 1.390 . S
C417 C414 1.386 . S
C418 C413 1.490 . S
C418 C420 1.395 . S
C418 C421 1.403 . S
H419 C425 0.930 . S
C420 H406 0.930 . S
C420 C418 1.395 . S
C420 C423 1.403 . S
C421 C418 1.403 . S
C421 C422 1.524 . S
C421 C425 1.400 . S
C422 H407 0.960 . S
C422 H408 0.960 . S
C422 H409 0.960 . S
C422 C421 1.524 . S
C423 C420 1.403 . S
C423 C424 1.392 . S
C423 C427 1.495 . S
C424 C423 1.392 . S
C424 C425 1.385 . S
C424 C426 1.478 . S
C425 H419 0.930 . S
C425 C421 1.400 . S
C425 C424 1.385 . S
C426 C424 1.478 . S
C426 C428 1.381 . S
C426 C432 1.383 . S
C427 C423 1.495 . S
C427 H433 0.959 . S
C427 H434 0.961 . S
C427 H435 0.960 . S
C428 C426 1.381 . S
C428 C429 1.394 . S
C428 H436 0.930 . S
C429 C428 1.394 . S
C429 C430 1.383 . S
C429 H437 0.929 . S
C430 C429 1.383 . S
C430 C431 1.377 . S
C431 H415 0.930 . S
C431 C430 1.377 . S
C431 C432 1.379 . S
C432 H416 0.931 . S
C432 C426 1.383 . S
C432 C431 1.379 . S
H433 C427 0.959 . S
H434 C427 0.961 . S
H435 C427 0.960 . S
H436 C428 0.930 . S
H437 C429 0.929 . S
H438 C446 0.929 . S
H439 C448 0.930 . S
H440 C450 0.930 . S
H441 C453 0.929 . S
H442 C456 0.930 . S
H443 C458 0.960 . S
H444 C458 0.960 . S
H445 C458 0.960 . S
C446 H438 0.929 . S
C446 C447 1.377 . S
C446 C448 1.384 . S
C447 C446 1.377 . S
C447 C453 1.390 . S
C448 H439 0.930 . S
C448 C446 1.384 . S
C448 C449 1.372 . S
C449 C448 1.372 . S
C449 C450 1.400 . S
C449 C454 1.490 . S
C450 H440 0.930 . S
C450 C449 1.400 . S
C450 C453 1.386 . S
H451 C467 0.930 . S
H452 C468 0.931 . S
C453 H441 0.929 . S
C453 C447 1.390 . S
C453 C450 1.386 . S
C454 C449 1.490 . S
C454 C456 1.395 1_554 S
C454 C457 1.403 . S
H455 C461 0.930 . S
C456 H442 0.930 . S
C456 C454 1.395 1_556 S
C456 C459 1.403 . S
C457 C454 1.403 . S
C457 C458 1.524 . S
C457 C461 1.400 . S
C458 H443 0.960 . S
C458 H444 0.960 . S
C458 H445 0.960 . S
C458 C457 1.524 . S
C459 C456 1.403 . S
C459 C460 1.392 . S
C459 C463 1.495 . S
C460 C459 1.392 . S
C460 C461 1.385 1_556 S
C460 C462 1.478 . S
C461 H455 0.930 . S
C461 C457 1.400 . S
C461 C460 1.385 1_554 S
C462 C460 1.478 . S
C462 C464 1.381 . S
C462 C468 1.383 . S
C463 C459 1.495 . S
C463 H469 0.959 . S
C463 H470 0.961 . S
C463 H471 0.960 . S
C464 C462 1.381 . S
C464 C465 1.394 . S
C464 H472 0.930 . S
C465 C464 1.394 . S
C465 C466 1.383 . S
C465 H473 0.929 . S
C466 C465 1.383 . S
C466 C467 1.377 . S
C467 H451 0.930 . S
C467 C466 1.377 . S
C467 C468 1.379 . S
C468 H452 0.931 . S
C468 C462 1.383 . S
C468 C467 1.379 . S
H469 C463 0.959 . S
H470 C463 0.961 . S
H471 C463 0.960 . S
H472 C464 0.930 . S
H473 C465 0.929 . S
H474 C482 0.929 . S
H475 C484 0.930 . S
H476 C486 0.930 . S
H477 C489 0.929 . S
H478 C492 0.930 . S
H479 C494 0.960 . S
H480 C494 0.960 . S
H481 C494 0.960 . S
C482 H474 0.929 . S
C482 C483 1.377 . S
C482 C484 1.384 . S
C483 C482 1.377 . S
C483 C489 1.390 . S
C484 H475 0.930 . S
C484 C482 1.384 . S
C484 C485 1.372 . S
C485 C484 1.372 . S
C485 C486 1.400 . S
C485 C490 1.490 . S
C486 H476 0.930 . S
C486 C485 1.400 . S
C486 C489 1.386 . S
H487 C503 0.930 . S
H488 C504 0.931 . S
C489 H477 0.929 . S
C489 C483 1.390 . S
C489 C486 1.386 . S
C490 C485 1.490 . S
C490 C492 1.395 1_556 S
C490 C493 1.403 1_565 S
H491 C497 0.930 . S
C492 H478 0.930 . S
C492 C490 1.395 1_554 S
C492 C495 1.403 . S
C493 C490 1.403 1_545 S
C493 C494 1.524 . S
C493 C497 1.400 . S
C494 H479 0.960 . S
C494 H480 0.960 . S
C494 H481 0.960 . S
C494 C493 1.524 . S
C495 C492 1.403 . S
C495 C496 1.392 1_565 S
C495 C499 1.495 . S
C496 C495 1.392 1_545 S
C496 C497 1.385 1_554 S
C496 C498 1.478 . S
C497 H491 0.930 . S
C497 C493 1.400 . S
C497 C496 1.385 1_556 S
C498 C496 1.478 . S
C498 C500 1.381 . S
C498 C504 1.383 . S
C499 C495 1.495 . S
C499 H505 0.959 . S
C499 H506 0.961 . S
C499 H507 0.960 . S
C500 C498 1.381 . S
C500 C501 1.394 . S
C500 H508 0.930 . S
C501 C500 1.394 . S
C501 C502 1.383 . S
C501 H509 0.929 . S
C502 C501 1.383 . S
C502 C503 1.377 . S
C503 H487 0.930 . S
C503 C502 1.377 . S
C503 C504 1.379 . S
C504 H488 0.931 . S
C504 C498 1.383 . S
C504 C503 1.379 . S
H505 C499 0.959 . S
H506 C499 0.961 . S
H507 C499 0.960 . S
H508 C500 0.930 . S
H509 C501 0.929 . S
H510 C518 0.929 . S
H511 C520 0.930 . S
H512 C522 0.930 . S
H513 C525 0.929 . S
H514 C528 0.930 . S
H515 C530 0.960 . S
H516 C530 0.960 1_556 S
H517 C530 0.960 1_556 S
C518 H510 0.929 . S
C518 C519 1.377 . S
C518 C520 1.384 . S
C519 C518 1.377 . S
C519 C525 1.390 . S
C520 H511 0.930 . S
C520 C518 1.384 . S
C520 C521 1.372 . S
C521 C520 1.372 . S
C521 C522 1.400 . S
C521 C526 1.490 . S
C522 H512 0.930 . S
C522 C521 1.400 . S
C522 C525 1.386 . S
H523 C539 0.930 . S
H524 C540 0.931 . S
C525 H513 0.929 . S
C525 C519 1.390 . S
C525 C522 1.386 . S
C526 C521 1.490 . S
C526 C528 1.395 1_455 S
C526 C529 1.390 1_556 S
H527 C533 0.930 . S
C528 H514 0.930 . S
C528 C526 1.395 1_655 S
C528 C531 1.403 . S
C529 C526 1.390 1_554 S
C529 C530 1.527 . S
C529 C533 1.410 . S
C530 H515 0.960 . S
C530 H516 0.960 1_554 S
C530 H517 0.960 1_554 S
C530 C529 1.527 . S
C531 C528 1.403 . S
C531 C532 1.392 1_556 S
C531 C535 1.495 . S
C532 C531 1.392 1_554 S
C532 C533 1.385 1_655 S
C532 C534 1.478 . S
C533 H527 0.930 . S
C533 C529 1.410 . S
C533 C532 1.385 1_455 S
C534 C532 1.478 . S
C534 C536 1.381 . S
C534 C540 1.383 . S
C535 C531 1.495 . S
C535 H541 0.959 . S
C535 H542 0.962 . S
C535 H543 0.960 1_556 S
C536 C534 1.381 . S
C536 C537 1.394 . S
C536 H544 0.930 . S
C537 C536 1.394 . S
C537 C538 1.383 . S
C537 H545 0.929 . S
C538 C537 1.383 . S
C538 C539 1.377 . S
C539 H523 0.930 . S
C539 C538 1.377 . S
C539 C540 1.379 . S
C540 H524 0.931 . S
C540 C534 1.383 . S
C540 C539 1.379 . S
H541 C535 0.959 . S
H542 C535 0.962 . S
H543 C535 0.960 1_554 S
H544 C536 0.930 . S
H545 C537 0.929 . S
C123 C26 0.334 . S
C142 C2 0.348 . S
C159 C40 0.331 . S
C178 C64 0.379 . S
C195 C78 0.328 . S
C214 C102 0.382 . S
C231 C99 2.626 . S
C250 C4 2.644 . S
C267 C93 1.159 . S
C286 C28 1.119 . S
C303 C96 1.421 . S
C322 C19 1.422 . S
C339 C42 2.623 . S
C358 C23 2.639 . S
C375 C66 1.151 . S
C394 C17 1.171 . S
C411 C57 1.425 . S
C430 C20 1.415 . S
C447 C61 2.628 . S
C466 C80 2.636 . S
C483 C104 1.159 . S
C502 C55 1.122 . S
C519 C95 1.426 . S
C538 C58 1.423 . S
