# Generated by pormake.
# Topology crs, (6)-cn, num edge types: 1
# Building blocks:
#     Node 0, Type 0, BuildingBlock: GEDQOX_clean_sbu_0, # of connection points: 6
#     Node 1, Type 0, BuildingBlock: GEDQOX_clean_sbu_0, # of connection points: 6
#     Node 2, Type 0, BuildingBlock: GEDQOX_clean_sbu_0, # of connection points: 6
#     Node 3, Type 0, BuildingBlock: GEDQOX_clean_sbu_0, # of connection points: 6
#     Node 4, Type 0, BuildingBlock: GEDQOX_clean_sbu_0, # of connection points: 6
#     Node 5, Type 0, BuildingBlock: GEDQOX_clean_sbu_0, # of connection points: 6
#     Node 6, Type 0, BuildingBlock: GEDQOX_clean_sbu_0, # of connection points: 6
#     Node 7, Type 0, BuildingBlock: GEDQOX_clean_sbu_0, # of connection points: 6
#     Node 8, Type 0, BuildingBlock: GEDQOX_clean_sbu_0, # of connection points: 6
#     Node 9, Type 0, BuildingBlock: GEDQOX_clean_sbu_0, # of connection points: 6
#     Node 10, Type 0, BuildingBlock: GEDQOX_clean_sbu_0, # of connection points: 6
#     Node 11, Type 0, BuildingBlock: GEDQOX_clean_sbu_0, # of connection points: 6
#     Node 12, Type 0, BuildingBlock: GEDQOX_clean_sbu_0, # of connection points: 6
#     Node 13, Type 0, BuildingBlock: GEDQOX_clean_sbu_0, # of connection points: 6
#     Node 14, Type 0, BuildingBlock: GEDQOX_clean_sbu_0, # of connection points: 6
#     Node 15, Type 0, BuildingBlock: GEDQOX_clean_sbu_0, # of connection points: 6
#     Edge 16, Type (0, 0), BuildingBlock: AJUNOK_clean_linker_0, # of connection points: 2
#     Edge 17, Type (0, 0), BuildingBlock: AJUNOK_clean_linker_0, # of connection points: 2
#     Edge 18, Type (0, 0), BuildingBlock: AJUNOK_clean_linker_0, # of connection points: 2
#     Edge 19, Type (0, 0), BuildingBlock: AJUNOK_clean_linker_0, # of connection points: 2
#     Edge 20, Type (0, 0), BuildingBlock: AJUNOK_clean_linker_0, # of connection points: 2
#     Edge 21, Type (0, 0), BuildingBlock: AJUNOK_clean_linker_0, # of connection points: 2
#     Edge 22, Type (0, 0), BuildingBlock: AJUNOK_clean_linker_0, # of connection points: 2
#     Edge 23, Type (0, 0), BuildingBlock: AJUNOK_clean_linker_0, # of connection points: 2
#     Edge 24, Type (0, 0), BuildingBlock: AJUNOK_clean_linker_0, # of connection points: 2
#     Edge 25, Type (0, 0), BuildingBlock: AJUNOK_clean_linker_0, # of connection points: 2
#     Edge 26, Type (0, 0), BuildingBlock: AJUNOK_clean_linker_0, # of connection points: 2
#     Edge 27, Type (0, 0), BuildingBlock: AJUNOK_clean_linker_0, # of connection points: 2
#     Edge 28, Type (0, 0), BuildingBlock: AJUNOK_clean_linker_0, # of connection points: 2
#     Edge 29, Type (0, 0), BuildingBlock: AJUNOK_clean_linker_0, # of connection points: 2
#     Edge 30, Type (0, 0), BuildingBlock: AJUNOK_clean_linker_0, # of connection points: 2
#     Edge 31, Type (0, 0), BuildingBlock: AJUNOK_clean_linker_0, # of connection points: 2
#     Edge 32, Type (0, 0), BuildingBlock: AJUNOK_clean_linker_0, # of connection points: 2
#     Edge 33, Type (0, 0), BuildingBlock: AJUNOK_clean_linker_0, # of connection points: 2
#     Edge 34, Type (0, 0), BuildingBlock: AJUNOK_clean_linker_0, # of connection points: 2
#     Edge 35, Type (0, 0), BuildingBlock: AJUNOK_clean_linker_0, # of connection points: 2
#     Edge 36, Type (0, 0), BuildingBlock: AJUNOK_clean_linker_0, # of connection points: 2
#     Edge 37, Type (0, 0), BuildingBlock: AJUNOK_clean_linker_0, # of connection points: 2
#     Edge 38, Type (0, 0), BuildingBlock: AJUNOK_clean_linker_0, # of connection points: 2
#     Edge 39, Type (0, 0), BuildingBlock: AJUNOK_clean_linker_0, # of connection points: 2
#     Edge 40, Type (0, 0), BuildingBlock: AJUNOK_clean_linker_0, # of connection points: 2
#     Edge 41, Type (0, 0), BuildingBlock: AJUNOK_clean_linker_0, # of connection points: 2
#     Edge 42, Type (0, 0), BuildingBlock: AJUNOK_clean_linker_0, # of connection points: 2
#     Edge 43, Type (0, 0), BuildingBlock: AJUNOK_clean_linker_0, # of connection points: 2
#     Edge 44, Type (0, 0), BuildingBlock: AJUNOK_clean_linker_0, # of connection points: 2
#     Edge 45, Type (0, 0), BuildingBlock: AJUNOK_clean_linker_0, # of connection points: 2
#     Edge 46, Type (0, 0), BuildingBlock: AJUNOK_clean_linker_0, # of connection points: 2
#     Edge 47, Type (0, 0), BuildingBlock: AJUNOK_clean_linker_0, # of connection points: 2
#     Edge 48, Type (0, 0), BuildingBlock: AJUNOK_clean_linker_0, # of connection points: 2
#     Edge 49, Type (0, 0), BuildingBlock: AJUNOK_clean_linker_0, # of connection points: 2
#     Edge 50, Type (0, 0), BuildingBlock: AJUNOK_clean_linker_0, # of connection points: 2
#     Edge 51, Type (0, 0), BuildingBlock: AJUNOK_clean_linker_0, # of connection points: 2
#     Edge 52, Type (0, 0), BuildingBlock: AJUNOK_clean_linker_0, # of connection points: 2
#     Edge 53, Type (0, 0), BuildingBlock: AJUNOK_clean_linker_0, # of connection points: 2
#     Edge 54, Type (0, 0), BuildingBlock: AJUNOK_clean_linker_0, # of connection points: 2
#     Edge 55, Type (0, 0), BuildingBlock: AJUNOK_clean_linker_0, # of connection points: 2
#     Edge 56, Type (0, 0), BuildingBlock: AJUNOK_clean_linker_0, # of connection points: 2
#     Edge 57, Type (0, 0), BuildingBlock: AJUNOK_clean_linker_0, # of connection points: 2
#     Edge 58, Type (0, 0), BuildingBlock: AJUNOK_clean_linker_0, # of connection points: 2
#     Edge 59, Type (0, 0), BuildingBlock: AJUNOK_clean_linker_0, # of connection points: 2
#     Edge 60, Type (0, 0), BuildingBlock: AJUNOK_clean_linker_0, # of connection points: 2
#     Edge 61, Type (0, 0), BuildingBlock: AJUNOK_clean_linker_0, # of connection points: 2
#     Edge 62, Type (0, 0), BuildingBlock: AJUNOK_clean_linker_0, # of connection points: 2
#     Edge 63, Type (0, 0), BuildingBlock: AJUNOK_clean_linker_0, # of connection points: 2
# Relax obj value: 0.499
# Max RMSD: 0.494
# Mean RMSD: 0.351
data_MOF--net-crs--node1-GEDQOX_clean_sbu_0--edge1-AJUNOK_clean_linker_0
_symmetry_space_group_name_H-M    P1
_symmetry_Int_Tables_number       1
_symmetry_cell_setting            triclinic
loop_
_symmetry_equiv_pos_as_xyz
'x, y, z'
_cell_length_a     20.721382
_cell_length_b     37.896007
_cell_length_c     51.369208
_cell_angle_alpha  94.058635
_cell_angle_beta   125.83643
_cell_angle_gamma 89.394079
loop_
_atom_site_label
_atom_site_type_symbol
_atom_site_fract_x
_atom_site_fract_y
_atom_site_fract_z
_atom_type_partial_charge
Nd0 Nd 0.36076 0.03499 0.04697 0.0
Nd1 Nd 0.24379 0.0852 0.04408 0.0
C2 C 0.4507 0.99695 0.03414 0.0
C3 C 0.44522 0.96875 0.01085 0.0
C4 C 0.3747 0.9622 0.97962 0.0
C5 C 0.37415 0.94061 0.95603 0.0
C6 C 0.44386 0.92462 0.96315 0.0
C7 C 0.51295 0.92889 0.99502 0.0
C8 C 0.51363 0.95078 0.01859 0.0
C9 C 0.36555 0.04313 0.10325 0.0
C10 C 0.21281 0.99843 0.03955 0.0
C11 C 0.19226 0.1401 0.06169 0.0
C12 C 0.22578 0.17295 0.08388 0.0
C13 C 0.29669 0.17337 0.11551 0.0
C14 C 0.31641 0.20217 0.13815 0.0
C15 C 0.2662 0.23107 0.12936 0.0
C16 C 0.19999 0.23187 0.09719 0.0
C17 C 0.17994 0.20313 0.07475 0.0
C18 C 0.18973 0.06049 0.98228 0.0
C19 C 0.414 0.11879 0.0639 0.0
O20 O 0.42167 1.0275 0.02302 0.0
O21 O 0.43622 0.98826 0.05447 0.0
O22 O 0.38242 1.01416 0.09354 0.0
O23 O 0.35689 0.06676 0.08541 0.0
O24 O 0.25678 0.99525 0.02868 0.0
O25 O 0.2009 0.0302 0.0483 0.0
O26 O 0.2121 0.11039 0.07509 0.0
O27 O 0.18866 0.13841 0.03537 0.0
O28 O 0.14548 0.0656 0.99251 0.0
O29 O 0.26327 0.06768 1.00547 0.0
O30 O 0.33767 0.12293 0.04997 0.0
O31 O 0.44247 0.08653 0.06847 0.0
H32 H 0.32063 0.97481 0.97314 0.0
H33 H 0.31972 0.93734 0.9318 0.0
H34 H 0.56718 0.91641 1.00138 0.0
H35 H 0.56869 0.95483 0.04257 0.0
H36 H 0.33406 0.15062 0.12327 0.0
H37 H 0.36757 0.20079 0.16293 0.0
H38 H 0.15973 0.25352 0.09003 0.0
H39 H 0.12524 0.2035 0.05072 0.0
Nd40 Nd 0.2222 0.3204 0.2789 0.0
Nd41 Nd 0.37441 0.3565 0.29633 0.0
C42 C 0.09021 0.30624 0.2714 0.0
C43 C 0.0934 0.30007 0.30013 0.0
C44 C 0.09822 0.32879 0.32027 0.0
C45 C 0.11373 0.32312 0.34997 0.0
C46 C 0.12555 0.28879 0.36001 0.0
C47 C 0.12501 0.26045 0.34089 0.0
C48 C 0.10806 0.26591 0.31106 0.0
C49 C 0.33207 0.26921 0.29586 0.0
C50 C 0.36676 0.34447 0.35536 0.0
C51 C 0.51218 0.36983 0.30475 0.0
C52 C 0.55829 0.3588 0.29142 0.0
C53 C 0.57614 0.32329 0.28885 0.0
C54 C 0.61603 0.31377 0.27476 0.0
C55 C 0.64036 0.33945 0.26321 0.0
C56 C 0.62619 0.37511 0.2674 0.0
C57 C 0.58556 0.38456 0.28113 0.0
C58 C 0.26392 0.40918 0.2922 0.0
C59 C 0.25155 0.32161 0.22221 0.0
O60 O 0.10875 0.33851 0.26968 0.0
O61 O 0.12416 0.28234 0.26416 0.0
O62 O 0.29486 0.27519 0.309 0.0
O63 O 0.3245 0.29622 0.28031 0.0
O64 O 0.29019 0.33715 0.33285 0.0
O65 O 0.41705 0.34869 0.34793 0.0
O66 O 0.50437 0.34781 0.32148 0.0
O67 O 0.4478 0.38759 0.28651 0.0
O68 O 0.33595 0.41631 0.30109 0.0
O69 O 0.2588 0.37597 0.28691 0.0
O70 O 0.31876 0.33937 0.24361 0.0
O71 O 0.2002 0.31374 0.22873 0.0
H72 H 0.08978 0.3556 0.31307 0.0
H73 H 0.11205 0.34512 0.36421 0.0
H74 H 0.13204 0.23365 0.34806 0.0
H75 H 0.10686 0.24327 0.29664 0.0
H76 H 0.55747 0.30267 0.29693 0.0
H77 H 0.626 0.28605 0.27208 0.0
H78 H 0.64288 0.39566 0.25854 0.0
H79 H 0.57389 0.41219 0.2831 0.0
Nd80 Nd 0.75326 0.30448 0.49659 0.0
Nd81 Nd 0.85001 0.25793 0.49617 0.0
C82 C 0.65298 0.3368 0.50449 0.0
C83 C 0.6076 0.32201 0.51505 0.0
C84 C 0.63992 0.29534 0.53648 0.0
C85 C 0.59995 0.28278 0.54838 0.0
C86 C 0.52617 0.29642 0.53892 0.0
C87 C 0.49056 0.32059 0.51491 0.0
C88 C 0.53154 0.33347 0.50336 0.0
C89 C 0.77273 0.32576 0.45041 0.0
C90 C 0.68249 0.2222 0.47441 0.0
C91 C 0.92929 0.21473 0.48337 0.0
C92 C 0.9659 0.22494 0.46799 0.0
C93 C 0.93473 0.25364 0.4488 0.0
C94 C 0.97185 0.26661 0.43608 0.0
C95 C 0.04091 0.25127 0.44249 0.0
C96 C 0.07418 0.22331 0.46258 0.0
C97 C 0.03661 0.21016 0.47547 0.0
C98 C 0.87234 0.25625 0.55507 0.0
C99 C 0.92683 0.33527 0.52526 0.0
O100 O 0.73036 0.33934 0.52638 0.0
O101 O 0.63237 0.32397 0.47616 0.0
O102 O 0.76362 0.34629 0.46898 0.0
O103 O 0.76582 0.2932 0.45443 0.0
O104 O 0.66649 0.25535 0.47736 0.0
O105 O 0.75137 0.21536 0.47975 0.0
O106 O 0.85145 0.21477 0.46514 0.0
O107 O 0.96123 0.23122 0.51166 0.0
O108 O 0.92914 0.25987 0.55177 0.0
O109 O 0.80627 0.25765 0.52785 0.0
O110 O 0.92353 0.30857 0.50685 0.0
O111 O 0.87332 0.33603 0.53143 0.0
H112 H 0.69772 0.28516 0.54506 0.0
H113 H 0.63027 0.26426 0.56682 0.0
H114 H 0.43302 0.33098 0.50612 0.0
H115 H 0.50507 0.35308 0.48604 0.0
H116 H 0.88148 0.2661 0.44361 0.0
H117 H 0.94511 0.2879 0.42025 0.0
H118 H 0.12705 0.21097 0.46726 0.0
H119 H 0.06233 0.18868 0.4911 0.0
Nd120 Nd 0.92408 0.07347 0.76615 0.0
Nd121 Nd 0.84419 1.02216 0.77749 0.0
C122 C 0.95972 0.12366 0.74145 0.0
C123 C 0.93765 0.13746 0.71034 0.0
C124 C 0.87256 0.15946 0.69242 0.0
C125 C 0.85963 0.17634 0.66612 0.0
C126 C 0.9115 0.17207 0.65682 0.0
C127 C 0.97367 0.14831 0.67359 0.0
C128 C 0.98689 0.13165 0.69997 0.0
C129 C 0.99154 1.00706 0.77346 0.0
C130 C 0.75181 0.03783 0.70253 0.0
C131 C 0.81287 0.97069 0.80275 0.0
C132 C 0.83719 0.95645 0.83415 0.0
C133 C 0.89535 0.93057 0.84897 0.0
C134 C 0.91124 0.91436 0.87612 0.0
C135 C 0.86988 0.92347 0.88962 0.0
C136 C 0.81279 0.94981 0.87513 0.0
C137 C 0.79662 0.96584 0.84796 0.0
C138 C 0.78202 0.08952 0.77275 0.0
C139 C 1.01033 0.06214 0.84114 0.0
O140 O 0.91141 0.128 0.74986 0.0
O141 O 0.99525 0.09363 0.74986 0.0
O142 O 0.02992 0.03726 0.78685 0.0
O143 O 0.91638 1.01194 0.75683 0.0
O144 O 0.80328 0.06497 0.71585 0.0
O145 O 0.7592 1.01286 0.72098 0.0
O146 O 0.86035 0.96732 0.79385 0.0
O147 O 0.77562 1.00035 0.7944 0.0
O148 O 0.74037 0.06004 0.75902 0.0
O149 O 0.85607 0.08313 0.78837 0.0
O150 O 0.96182 0.03394 0.82868 0.0
O151 O 1.00283 0.0861 0.82199 0.0
H152 H 0.83283 0.16467 0.69934 0.0
H153 H 0.81057 0.19398 0.6539 0.0
H154 H 1.01323 0.14278 0.66665 0.0
H155 H 0.03738 0.11484 0.71286 0.0
H156 H 0.92782 0.92224 0.8392 0.0
H157 H 0.95628 0.89465 0.88663 0.0
H158 H 0.77884 0.95753 0.88437 0.0
H159 H 0.7507 0.98516 0.83729 0.0
Nd160 Nd 0.4174 0.74485 0.25456 0.0
Nd161 Nd 0.51597 0.7952 0.258 0.0
C162 C 0.294 0.72087 0.25271 0.0
C163 C 0.25607 0.73104 0.26973 0.0
C164 C 0.22619 0.76489 0.26894 0.0
C165 C 0.19623 0.7742 0.28705 0.0
C166 C 0.19375 0.74981 0.30602 0.0
C167 C 0.22091 0.71565 0.30581 0.0
C168 C 0.25237 0.70661 0.28832 0.0
C169 C 0.54641 0.70233 0.26525 0.0
C170 C 0.52169 0.79231 0.32151 0.0
C171 C 0.62992 0.83558 0.26724 0.0
C172 C 0.65116 0.83545 0.24468 0.0
C173 C 0.69692 0.80822 0.24402 0.0
C174 C 0.70167 0.80313 0.21818 0.0
C175 C 0.6608 0.82518 0.19289 0.0
C176 C 0.6157 0.85244 0.19345 0.0
C177 C 0.61164 0.85786 0.21939 0.0
C178 C 0.37463 0.82789 0.23571 0.0
C179 C 0.41833 0.74576 0.19207 0.0
O180 O 0.28626 0.74146 0.23157 0.0
O181 O 0.36541 0.70837 0.27044 0.0
O182 O 0.48235 0.69158 0.26191 0.0
O183 O 0.54261 0.73609 0.26304 0.0
O184 O 0.47603 0.76377 0.30706 0.0
O185 O 0.54952 0.80822 0.30813 0.0
O186 O 0.64446 0.80679 0.28213 0.0
O187 O 0.55924 0.84703 0.25593 0.0
O188 O 0.40572 0.82477 0.21992 0.0
O189 O 0.41024 0.80684 0.25846 0.0
O190 O 0.47781 0.76876 0.21028 0.0
O191 O 0.37459 0.73544 0.20138 0.0
H192 H 0.2279 0.78456 0.25504 0.0
H193 H 0.17639 0.80082 0.28673 0.0
H194 H 0.22138 0.69628 0.32044 0.0
H195 H 0.27471 0.68035 0.28959 0.0
H196 H 0.72748 0.79034 0.26302 0.0
H197 H 0.73875 0.78269 0.21826 0.0
H198 H 0.58634 0.87039 0.17444 0.0
H199 H 0.57564 0.87896 0.21916 0.0
Nd200 Nd 0.03302 0.80135 0.42954 0.0
Nd201 Nd 0.20379 0.78315 0.4739 0.0
C202 C 0.88979 0.81333 0.37729 0.0
C203 C 0.86567 0.83801 0.35172 0.0
C204 C 0.89262 0.83362 0.33214 0.0
C205 C 0.88059 0.85955 0.31171 0.0
C206 C 0.84221 0.89085 0.31048 0.0
C207 C 0.81161 0.89466 0.32874 0.0
C208 C 0.8226 0.86835 0.34893 0.0
C209 C 0.09716 0.81913 0.49354 0.0
C210 C 0.17127 0.8642 0.46071 0.0
C211 C 0.30439 0.74951 0.52498 0.0
C212 C 0.33952 0.71595 0.53878 0.0
C213 C 0.31958 0.70161 0.55784 0.0
C214 C 0.37044 0.67861 0.58079 0.0
C215 C 0.44161 0.66991 0.58485 0.0
C216 C 0.45375 0.67895 0.56198 0.0
C217 C 0.40282 0.70221 0.53898 0.0
C218 C 0.17631 0.78078 0.41466 0.0
C219 C 0.08397 0.71984 0.44639 0.0
O220 O 0.93096 0.78602 0.37879 0.0
O221 O 0.91736 0.82822 0.40588 0.0
O222 O 0.04349 0.83763 0.47048 0.0
O223 O 0.10833 0.79148 0.48155 0.0
O224 O 0.10311 0.85161 0.43394 0.0
O225 O 0.21961 0.84336 0.48358 0.0
O226 O 0.22858 0.75135 0.5122 0.0
O227 O 0.32832 0.76758 0.51089 0.0
O228 O 0.24618 0.77761 0.44165 0.0
O229 O 0.12347 0.78821 0.41943 0.0
O230 O 0.14011 0.73183 0.44493 0.0
O231 O 0.03107 0.74281 0.44308 0.0
H232 H 0.92609 0.8108 0.3335 0.0
H233 H 0.90512 0.85595 0.29803 0.0
H234 H 0.78123 0.91839 0.32808 0.0
H235 H 0.80042 0.87246 0.36343 0.0
H236 H 0.26991 0.71128 0.55769 0.0
H237 H 0.3596 0.67148 0.59803 0.0
H238 H 0.5079 0.67194 0.56455 0.0
H239 H 0.41775 0.71214 0.52379 0.0
Nd240 Nd 0.59064 0.57351 0.80329 0.0
Nd241 Nd 0.43651 0.56258 0.78752 0.0
C242 C 0.70531 0.59471 0.79856 0.0
C243 C 0.70001 0.61281 0.77269 0.0
C244 C 0.64759 0.64041 0.75878 0.0
C245 C 0.63035 0.65353 0.73083 0.0
C246 C 0.66568 0.64 0.71574 0.0
C247 C 0.72261 0.61383 0.73099 0.0
C248 C 0.73887 0.60011 0.75898 0.0
C249 C 0.56409 0.50166 0.80535 0.0
C250 C 0.43005 0.56104 0.72698 0.0
C251 C 0.32475 0.53704 0.79035 0.0
C252 C 0.35363 0.51765 0.81846 0.0
C253 C 0.43065 0.50535 0.83339 0.0
C254 C 0.47761 0.5012 0.86572 0.0
C255 C 0.44463 0.50228 0.88292 0.0
C256 C 0.36395 0.51078 0.86717 0.0
C257 C 0.3196 0.52013 0.83531 0.0
C258 C 0.45617 0.63309 0.78181 0.0
C259 C 0.58824 0.5762 0.8646 0.0
O260 O 0.68531 0.61281 0.81532 0.0
O261 O 0.67527 0.56244 0.79048 0.0
O262 O 0.63082 0.51942 0.82602 0.0
O263 O 0.51432 0.52209 0.78458 0.0
O264 O 0.50192 0.57622 0.74761 0.0
O265 O 0.39051 0.54909 0.73699 0.0
O266 O 0.34001 0.52222 0.77085 0.0
O267 O 0.34667 0.57055 0.79769 0.0
O268 O 0.39408 0.61281 0.76098 0.0
O269 O 0.50947 0.61498 0.80448 0.0
O270 O 0.51463 0.56566 0.84213 0.0
O271 O 0.63711 0.58306 0.8569 0.0
H272 H 0.61581 0.65062 0.76837 0.0
H273 H 0.5846 0.67286 0.72006 0.0
H274 H 0.75311 0.60315 0.72104 0.0
H275 H 0.77962 0.57871 0.76924 0.0
H276 H 0.45881 0.50334 0.82112 0.0
H277 H 0.54027 0.49691 0.87705 0.0
H278 H 0.33509 0.51047 0.87914 0.0
H279 H 0.26024 0.52983 0.82417 0.0
Nd280 Nd 0.23031 0.51068 0.53049 0.0
Nd281 Nd 0.10135 0.54833 0.53809 0.0
C282 C 0.30793 0.46879 0.51502 0.0
C283 C 0.33268 0.45453 0.49476 0.0
C284 C 0.2767 0.44742 0.46147 0.0
C285 C 0.29765 0.42808 0.44348 0.0
C286 C 0.37484 0.41528 0.45832 0.0
C287 C 0.43213 0.42385 0.49143 0.0
C288 C 0.41098 0.44326 0.50952 0.0
C289 C 0.28581 0.53497 0.59115 0.0
C290 C 0.09287 0.46307 0.5314 0.0
C291 C 0.04192 0.58255 0.56533 0.0
C292 C 0.05444 0.61851 0.58048 0.0
C293 C 0.1317 0.63292 0.60392 0.0
C294 C 0.14225 0.66579 0.62021 0.0
C295 C 0.07581 0.68464 0.61316 0.0
C296 C 0.99898 0.67144 0.58806 0.0
C297 C 0.98837 0.63847 0.5719 0.0
C298 C 0.0519 0.54202 0.47484 0.0
C299 C 0.1946 0.59688 0.52206 0.0
O300 O 0.23406 0.46272 0.50468 0.0
O301 O 0.33966 0.49865 0.53286 0.0
O302 O 0.32852 0.53413 0.58023 0.0
O303 O 0.2175 0.52059 0.57076 0.0
O304 O 0.15925 0.46372 0.53265 0.0
O305 O 0.05724 0.49203 0.53149 0.0
O306 O 0.10191 0.56168 0.58062 0.0
O307 O 1.00542 0.57976 0.53412 0.0
O308 O 1.00801 0.5554 0.48329 0.0
O309 O 0.11377 0.5316 0.49914 0.0
O310 O 0.17636 0.59502 0.54258 0.0
O311 O 0.21662 0.5679 0.513 0.0
H312 H 0.21589 0.4556 0.44951 0.0
H313 H 0.25248 0.42219 0.41791 0.0
H314 H 0.49186 0.41424 0.50358 0.0
H315 H 0.45484 0.4481 0.53531 0.0
H316 H 0.18384 0.61831 0.6105 0.0
H317 H 0.20207 0.67553 0.63952 0.0
H318 H 0.94709 0.68592 0.58199 0.0
H319 H 0.92851 0.62804 0.55345 0.0
Nd320 Nd 0.65768 0.33224 0.10649 0.0
Nd321 Nd 0.78725 0.28691 0.13349 0.0
C322 C 0.62559 0.37586 0.08969 0.0
C323 C 0.60032 0.38353 0.03863 0.0
C324 C 0.65804 0.3837 0.02799 0.0
C325 C 0.65247 0.40971 0.00935 0.0
C326 C 0.58309 0.42836 0.99214 0.0
C327 C 0.51375 0.41487 0.98642 0.0
C328 C 0.51789 0.39117 1.00605 0.0
C329 C 0.68791 0.31621 0.16268 0.0
C330 C 0.82761 0.36668 0.13977 0.0
C331 C 0.89752 0.24413 0.17267 0.0
C332 C 0.88793 0.21919 0.19106 0.0
C333 C 0.87513 0.23241 0.2139 0.0
C334 C 0.83779 0.21111 0.22277 0.0
C335 C 0.81384 0.17599 0.20952 0.0
C336 C 0.83271 0.16178 0.18887 0.0
C337 C 0.87029 0.18316 0.17995 0.0
C338 C 0.70893 0.27749 0.06756 0.0
C339 C 0.61163 0.25013 0.1051 0.0
O340 O 0.61032 0.3801 0.0576 0.0
O341 O 0.58047 0.38177 0.10073 0.0
O342 O 0.6165 0.32011 0.13648 0.0
O343 O 0.74395 0.32234 0.15925 0.0
O344 O 0.77903 0.35976 0.14709 0.0
O345 O 0.84611 0.33746 0.13086 0.0
O346 O 0.89995 0.27787 0.18084 0.0
O347 O 0.85065 0.23695 0.14153 0.0
O348 O 0.78591 0.28163 0.08797 0.0
O349 O 0.67613 0.28158 0.08215 0.0
O350 O 0.68994 0.24809 0.12529 0.0
O351 O 0.57981 0.28008 0.09101 0.0
H352 H 0.71352 0.36999 0.0402 0.0
H353 H 0.70284 0.41564 1.00888 0.0
H354 H 0.45587 0.42432 0.96782 0.0
H355 H 0.46133 0.3853 1.00191 0.0
H356 H 0.88769 0.26002 0.22297 0.0
H357 H 0.82328 0.22285 0.23852 0.0
H358 H 0.81558 0.13462 0.17867 0.0
H359 H 0.8795 0.17231 0.16232 0.0
Nd360 Nd 0.37479 0.05547 0.2713 0.0
Nd361 Nd 0.19544 0.04582 0.23232 0.0
C362 C 0.49957 0.09063 0.28334 0.0
C363 C 0.53299 0.0945 0.26469 0.0
C364 C 0.50285 0.11951 0.24131 0.0
C365 C 0.54046 0.12628 0.22664 0.0
C366 C 0.60896 0.10833 0.23517 0.0
C367 C 0.63481 0.08131 0.25623 0.0
C368 C 0.59744 0.07456 0.27097 0.0
C369 C 0.34454 0.98234 0.25465 0.0
C370 C 0.27448 0.04746 0.19336 0.0
C371 C 0.04954 1.0231 0.21199 0.0
C372 C 1.00787 1.00963 0.22564 0.0
C373 C 0.02826 0.9773 0.24017 0.0
C374 C 0.98721 0.96375 0.25159 0.0
C375 C 0.9246 0.98197 0.249 0.0
C376 C 0.90359 1.01432 0.2346 0.0
C377 C 0.94458 1.02791 0.22289 0.0
C378 C 0.25221 0.11649 0.24701 0.0
C379 C 0.30762 0.0529 0.31389 0.0
O380 O 0.43035 0.10441 0.27116 0.0
O381 O 0.50611 0.06039 0.29566 0.0
O382 O 0.41431 0.99822 0.27316 0.0
O383 O 0.29094 1.00524 0.24663 0.0
O384 O 0.33292 0.06331 0.22051 0.0
O385 O 0.20988 0.03572 0.19022 0.0
O386 O 0.10224 1.00296 0.21286 0.0
O387 O 0.07177 0.05655 0.21771 0.0
O388 O 0.1892 0.10415 0.21899 0.0
O389 O 0.28092 0.09145 0.26546 0.0
O390 O 0.23725 0.04552 0.28584 0.0
O391 O 0.3729 0.0587 0.31552 0.0
H392 H 0.4525 0.13514 0.23541 0.0
H393 H 0.51965 0.14734 0.21054 0.0
H394 H 0.68728 0.06695 0.26288 0.0
H395 H 0.6211 0.05471 0.28825 0.0
H396 H 0.0759 0.96215 0.24264 0.0
H397 H 1.00459 0.93878 0.26259 0.0
H398 H 0.85534 0.02889 0.2322 0.0
H399 H 0.92646 0.05263 0.2115 0.0
Nd400 Nd 0.53532 0.26237 0.79973 0.0
Nd401 Nd 0.63339 0.29719 0.78031 0.0
C402 C 0.46149 0.25136 0.82713 0.0
C403 C 0.48459 0.25591 0.86095 0.0
C404 C 0.47319 0.28773 0.87352 0.0
C405 C 0.50254 0.29259 0.90627 0.0
C406 C 0.5426 0.26546 0.927 0.0
C407 C 0.54967 0.23305 0.91402 0.0
C408 C 0.52084 0.22826 0.88151 0.0
C409 C 0.62755 0.21039 0.79403 0.0
C410 C 0.70093 0.3063 0.85614 0.0
C411 C 0.7183 0.30951 0.75949 0.0
C412 C 0.68467 0.30173 0.72524 0.0
C413 C 0.6368 0.2707 0.70851 0.0
C414 C 0.58663 0.26729 0.67492 0.0
C415 C 0.58411 0.29462 0.65736 0.0
C416 C 0.63522 0.32477 0.67415 0.0
C417 C 0.68426 0.32847 0.70774 0.0
C418 C 0.52911 0.34475 0.77866 0.0
C419 C 0.45955 0.25813 0.72376 0.0
O420 O 0.4516 0.27965 0.81202 0.0
O421 O 0.498 0.22699 0.82161 0.0
O422 O 0.57656 0.20367 0.80009 0.0
O423 O 0.62412 0.24304 0.79044 0.0
O424 O 0.64359 0.28385 0.84885 0.0
O425 O 0.71388 0.31416 0.83482 0.0
O426 O 0.73036 0.28205 0.7758 0.0
O427 O 0.68325 0.33495 0.7648 0.0
O428 O 0.53574 0.33736 0.75524 0.0
O429 O 0.5674 0.32182 0.79944 0.0
O430 O 0.53105 0.26838 0.73293 0.0
O431 O 0.44099 0.25726 0.7444 0.0
H432 H 0.44308 0.30913 0.85821 0.0
H433 H 0.49561 0.3178 0.91555 0.0
H434 H 0.57927 0.21154 0.92931 0.0
H435 H 0.52882 0.20299 0.8727 0.0
H436 H 0.63516 0.24965 0.72134 0.0
H437 H 0.54871 0.2436 0.66273 0.0
H438 H 0.6374 0.34568 0.66134 0.0
H439 H 0.7195 0.3528 0.72004 0.0
Nd440 Nd 0.2141 0.81017 0.78415 0.0
Nd441 Nd 0.29913 0.85381 0.76768 0.0
C442 C 0.13264 0.79565 0.80624 0.0
C443 C 0.1672 0.79308 0.84032 0.0
C444 C 0.13953 0.81502 0.85463 0.0
C445 C 0.18217 0.81916 0.88801 0.0
C446 C 0.25309 0.8013 0.90764 0.0
C447 C 0.28073 0.77921 0.89333 0.0
C448 C 0.23821 0.77516 0.85991 0.0
C449 C 0.33773 0.76795 0.7947 0.0
C450 C 0.37072 0.85793 0.84343 0.0
C451 C 0.34582 0.87815 0.73357 0.0
C452 C 0.32064 0.86945 0.69976 0.0
C453 C 0.32528 0.83525 0.68832 0.0
C454 C 0.29155 0.82715 0.65534 0.0
C455 C 0.25195 0.85295 0.63288 0.0
C456 C 0.25137 0.88749 0.6448 0.0
C457 C 0.28493 0.89554 0.67759 0.0
C458 C 0.19133 0.89216 0.77288 0.0
C459 C 0.1598 0.79332 0.7137 0.0
O460 O 0.13902 0.82759 0.7997 0.0
O461 O 0.15018 0.77098 0.79235 0.0
O462 O 0.2853 0.75933 0.79939 0.0
O463 O 0.32503 0.79889 0.78477 0.0
O464 O 0.30532 0.83947 0.83269 0.0
O465 O 0.38956 0.86549 0.82364 0.0
O466 O 0.38602 0.85518 0.75512 0.0
O467 O 0.29202 0.89281 0.73591 0.0
O468 O 0.26425 0.90226 0.78539 0.0
O469 O 0.17686 0.86122 0.75826 0.0
O470 O 0.22244 0.81366 0.72354 0.0
O471 O 0.13484 0.79083 0.73172 0.0
H472 H 0.0864 0.82994 0.84 0.0
H473 H 0.15897 0.83597 0.89848 0.0
H474 H 0.3356 0.76542 0.90799 0.0
H475 H 0.26254 0.75905 0.84954 0.0
H476 H 0.35233 0.81438 0.70458 0.0
H477 H 0.29389 0.80031 0.64723 0.0
H478 H 0.22431 0.90846 0.62868 0.0
H479 H 0.28113 0.92223 0.68554 0.0
Nd480 Nd 0.96844 0.58026 0.28964 0.0
Nd481 Nd 0.85894 0.52935 0.27958 0.0
C482 C 0.99678 0.63655 0.26712 0.0
C483 C 1.00847 0.65418 0.24391 0.0
C484 C 0.95176 0.67777 0.22228 0.0
C485 C 0.96379 0.69771 0.20288 0.0
C486 C 0.03335 0.69528 0.20378 0.0
C487 C 0.08938 0.67086 0.22498 0.0
C488 C 0.07758 0.65109 0.24466 0.0
C489 C 0.04637 0.51529 0.29949 0.0
C490 C 0.85553 0.53961 0.22063 0.0
C491 C 0.82442 0.47023 0.29678 0.0
C492 C 0.815 0.45054 0.3195 0.0
C493 C 0.86752 0.42347 0.33652 0.0
C494 C 0.85888 0.40249 0.3561 0.0
C495 C 0.79869 0.40807 0.36086 0.0
C496 C 0.74505 0.43504 0.34343 0.0
C497 C 0.7524 0.45548 0.32289 0.0
C498 C 0.77918 0.59389 0.26902 0.0
C499 C 0.97286 0.56861 0.35023 0.0
O500 O 0.92604 0.62414 0.25653 0.0
O501 O 0.05318 0.61952 0.29133 0.0
O502 O 0.07997 0.54551 0.31649 0.0
O503 O 0.97076 0.5201 0.27824 0.0
O504 O 0.92874 0.54624 0.24496 0.0
O505 O 0.80421 0.52976 0.22594 0.0
O506 O 0.89587 0.48072 0.30674 0.0
O507 O 0.77019 0.49102 0.27603 0.0
O508 O 0.74808 0.56325 0.25262 0.0
O509 O 0.85559 0.59016 0.29057 0.0
O510 O 0.90155 0.55729 0.32683 0.0
O511 O 1.02013 0.58158 0.34365 0.0
H512 H 0.89777 0.6815 0.22074 0.0
H513 H 0.91749 0.71512 0.1869 0.0
H514 H 0.14464 0.66764 0.22757 0.0
H515 H 0.12377 0.63382 0.26099 0.0
H516 H 0.91504 0.4177 0.33402 0.0
H517 H 0.89924 0.38114 0.36694 0.0
H518 H 0.69712 0.44065 0.34567 0.0
H519 H 0.7092 0.47535 0.30985 0.0
Nd520 Nd 0.95791 0.83947 0.06095 0.0
Nd521 Nd 0.03646 0.79529 0.05547 0.0
C522 C 0.86185 0.87638 0.06902 0.0
C523 C 0.8171 0.86619 0.0808 0.0
C524 C 0.83687 0.83502 0.09647 0.0
C525 C 0.796 0.82433 0.10833 0.0
C526 C 0.7348 0.84466 0.10446 0.0
C527 C 0.71158 0.8749 0.08719 0.0
C528 C 0.75289 0.88568 0.07517 0.0
C529 C 0.934 0.85762 1.0047 0.0
C530 C 0.88178 0.7583 0.03563 0.0
C531 C 0.15356 0.7676 0.05589 0.0
C532 C 0.19854 0.78163 0.04489 0.0
C533 C 0.16128 0.80287 0.01881 0.0
C534 C 0.20321 0.81517 1.00765 0.0
C535 C 0.28243 0.80581 0.02203 0.0
C536 C 0.32189 0.78748 0.04997 0.0
C537 C 0.28006 0.77574 0.06152 0.0
C538 C 0.04404 0.77584 0.10914 0.0
C539 C 0.10552 0.87371 0.06831 0.0
O540 O 0.9393 0.87772 0.09035 0.0
O541 O 0.83868 0.859 0.04193 0.0
O542 O 0.94605 0.87874 0.02789 0.0
O543 O 0.93752 0.82505 0.01137 0.0
O544 O 0.88597 0.78756 0.05204 0.0
O545 O 0.92913 0.75663 0.0265 0.0
O546 O 0.07855 0.75831 0.03351 0.0
O547 O 0.16464 0.78592 0.08079 0.0
O548 O 0.03595 0.75501 0.08641 0.0
O549 O 0.04924 0.80831 0.10408 0.0
O550 O 0.09161 0.84428 0.05117 0.0
O551 O 0.06956 0.87693 0.08255 0.0
H552 H 0.8857 0.81966 0.10038 0.0
H553 H 0.81634 0.80189 0.12288 0.0
H554 H 0.66543 0.89119 0.08487 0.0
H555 H 0.7365 0.90948 0.06243 0.0
H556 H 0.09894 0.80882 1.00624 0.0
H557 H 0.17141 0.82912 0.98591 0.0
H558 H 0.38303 0.78006 0.06137 0.0
H559 H 0.31055 0.76112 0.08271 0.0
Nd560 Nd 0.48999 1.02312 0.49606 0.0
Nd561 Nd 0.38465 0.08354 0.49969 0.0
C562 C 0.52838 0.96379 0.4795 0.0
C563 C 0.51592 0.93724 0.45468 0.0
C564 C 0.43981 0.92654 0.42676 0.0
C565 C 0.43241 0.90009 0.40451 0.0
C566 C 0.50091 0.88408 0.4105 0.0
C567 C 0.57569 0.89405 0.43892 0.0
C568 C 0.58309 0.92045 0.46068 0.0
C569 C 0.54612 0.03531 0.56071 0.0
C570 C 0.31926 1.00244 0.48239 0.0
C571 C 0.34063 0.1366 0.52227 0.0
C572 C 0.34148 0.15241 0.54985 0.0
C573 C 0.41142 0.15391 0.58153 0.0
C574 C 0.41396 0.17205 0.60686 0.0
C575 C 0.34697 0.18929 0.60122 0.0
C576 C 0.27695 0.18801 0.56961 0.0
C577 C 0.27422 0.16962 0.54417 0.0
C578 C 0.34001 0.06898 0.43627 0.0
C579 C 0.52592 0.10554 0.49055 0.0
O580 O 0.47257 0.96577 0.48405 0.0
O581 O 0.56503 0.99427 0.48419 0.0
O582 O 0.57632 1.01447 0.54991 0.0
O583 O 0.489 0.05128 0.53726 0.0
O584 O 0.36487 0.99865 0.47239 0.0
O585 O 0.3237 0.0319 0.49902 0.0
O586 O 0.40913 0.13566 0.5263 0.0
O587 O 0.29358 0.10888 0.50471 0.0
O588 O 0.30421 0.09179 0.44351 0.0
O589 O 0.39095 0.05546 0.46198 0.0
O590 O 0.48222 0.11498 0.50099 0.0
O591 O 0.53569 0.07168 0.48509 0.0
H592 H 0.3869 0.939 0.42196 0.0
H593 H 0.37425 0.8929 0.38245 0.0
H594 H 0.62903 0.8819 0.44388 0.0
H595 H 0.64178 0.92783 0.48235 0.0
H596 H 0.46473 0.14154 0.5867 0.0
H597 H 0.46893 0.1731 0.63096 0.0
H598 H 0.22464 0.20126 0.56461 0.0
H599 H 0.22002 0.16945 0.51992 0.0
Nd600 Nd 0.77833 0.53596 0.04808 0.0
Nd601 Nd 0.63298 0.57402 0.04181 0.0
C602 C 0.86269 0.49318 0.03683 0.0
C603 C 0.84101 0.46597 0.01065 0.0
C604 C 0.78282 0.47206 0.97825 0.0
C605 C 0.76196 0.44592 0.95372 0.0
C606 C 0.79746 0.41284 0.96108 0.0
C607 C 0.85535 0.40672 0.99348 0.0
C608 C 0.87694 0.43308 0.01805 0.0
C609 C 0.8038 0.56715 0.10312 0.0
C610 C 0.66876 0.48988 0.06428 0.0
C611 C 0.54853 0.61215 0.05544 0.0
C612 C 0.50663 0.63614 0.06453 0.0
C613 C 0.54219 0.66941 0.08072 0.0
C614 C 0.51451 0.68914 0.09605 0.0
C615 C 0.45203 0.67566 0.09637 0.0
C616 C 0.41116 0.6442 0.07747 0.0
C617 C 0.43826 0.62456 0.06158 0.0
C618 C 0.63054 0.57167 0.9872 0.0
C619 C 0.77505 0.62172 0.04829 0.0
O620 O 0.85014 0.52595 0.02933 0.0
O621 O 0.84234 0.4859 0.05562 0.0
O622 O 0.86179 0.56361 0.09997 0.0
O623 O 0.74319 0.5515 0.07955 0.0
O624 O 0.72006 0.48943 0.05652 0.0
O625 O 0.62652 0.51864 0.05998 0.0
O626 O 0.62387 0.61904 0.06823 0.0
O627 O 0.51589 0.58413 0.03447 0.0
O628 O 0.59167 0.5936 0.99321 0.0
O629 O 0.65408 0.54686 1.00589 0.0
O630 O 0.72398 0.62003 0.05584 0.0
O631 O 0.79966 0.59283 0.04108 0.0
H632 H 0.7529 0.49689 0.97179 0.0
H633 H 0.71772 0.45158 0.92895 0.0
H634 H 0.88309 0.38136 0.9998 0.0
H635 H 0.92128 0.4277 0.04289 0.0
H636 H 0.59441 0.67941 0.08313 0.0
H637 H 0.54583 0.71385 0.10967 0.0
H638 H 0.36226 0.63343 0.077 0.0
H639 H 0.40938 0.59916 0.04905 0.0
C640 C 0.22877 0.24355 0.1667 0.0
C641 C 0.26853 0.25509 0.15406 0.0
C642 C 0.21736 0.26646 0.18617 0.0
C643 C 0.24792 0.30156 0.19522 0.0
H644 H 0.20428 0.21665 0.16075 0.0
H645 H 0.18563 0.25614 0.19468 0.0
S646 S 0.3579 0.34495 0.16858 0.0
N647 N 0.3371 0.30435 0.15092 0.0
N648 N 0.3209 0.34683 0.18972 0.0
C649 C 0.28898 0.31344 0.18296 0.0
C650 C 0.2982 0.29035 0.162 0.0
C651 C 1.0134 0.25614 0.3898 0.0
C652 C 0.06815 0.26074 0.42336 0.0
C653 C 0.03373 0.26603 0.37001 0.0
C654 C 0.10972 0.28048 0.38307 0.0
H655 H 0.95408 0.24485 0.37874 0.0
H656 H 0.98961 0.26219 0.34414 0.0
S657 S 0.27412 0.29832 0.46961 0.0
N658 N 0.20054 0.28126 0.46927 0.0
N659 N 0.24052 0.29915 0.43145 0.0
C660 C 0.16563 0.28532 0.41664 0.0
C661 C 0.14441 0.2754 0.43702 0.0
C662 C 0.82662 0.19976 0.60265 0.0
C663 C 0.90256 0.19336 0.63083 0.0
C664 C 0.81717 0.22044 0.57874 0.0
C665 C 0.88306 0.23604 0.5817 0.0
H666 H 0.77366 0.18831 0.59874 0.0
H667 H 0.7575 0.22384 0.55753 0.0
S668 S 0.09495 0.22848 0.65067 0.0
N669 N 0.04504 0.20552 0.66008 0.0
N670 N 0.02725 0.2434 0.61538 0.0
C671 C 0.95917 0.22985 0.60964 0.0
C672 C 0.96889 0.20884 0.63397 0.0
C673 C 0.07805 0.08039 0.92791 0.0
C674 C 0.15245 0.06422 0.94685 0.0
C675 C 0.03613 0.08201 0.89429 0.0
C676 C 0.06573 0.06747 0.87742 0.0
H677 H 0.05049 0.09146 0.93904 0.0
H678 H 0.97799 0.09347 0.88111 0.0
S679 S 0.25869 1.02331 0.91472 0.0
N680 N 0.25562 0.03502 0.94561 0.0
N681 N 0.17546 0.03672 0.88243 0.0
C682 C 0.14092 0.05203 0.89592 0.0
C683 C 0.18462 0.05091 0.93049 0.0
C684 C 0.2631 0.05221 0.11653 0.0
C685 C 0.34179 0.04504 0.12642 0.0
C686 C 0.23869 0.05128 0.13706 0.0
C687 C 0.29125 0.04192 0.16865 0.0
H688 H 0.21695 0.05692 0.09241 0.0
H689 H 0.17871 0.05845 0.1282 0.0
S690 S 0.49666 1.01141 0.20521 0.0
N691 N 0.46752 1.02271 0.16947 0.0
N692 N 0.42196 1.0197 0.20767 0.0
C693 C 0.36824 0.03221 0.17849 0.0
C694 C 0.39329 0.03388 0.15768 0.0
C695 C 0.3359 0.3629 0.41956 0.0
C696 C 0.3909 0.39099 0.43885 0.0
C697 C 0.33632 0.34427 0.39527 0.0
C698 C 0.39041 0.35366 0.38858 0.0
H699 H 0.28843 0.35696 0.42176 0.0
H700 H 0.28897 0.32454 0.37971 0.0
S701 S 0.56494 0.41631 0.43995 0.0
N702 N 0.51466 0.42077 0.45571 0.0
N703 N 0.5145 0.38618 0.40912 0.0
C704 C 0.45364 0.37788 0.4109 0.0
C705 C 0.45377 0.39668 0.43617 0.0
C706 C 0.51618 0.2591 0.57466 0.0
C707 C 0.49817 0.29083 0.55928 0.0
C708 C 0.53581 0.25918 0.60578 0.0
C709 C 0.53462 0.29069 0.62166 0.0
H710 H 0.52624 0.23535 0.56465 0.0
H711 H 0.5605 0.23556 0.61854 0.0
S712 S 0.44949 0.37504 0.58484 0.0
N713 N 0.45173 0.35069 0.55748 0.0
N714 N 0.4843 0.35006 0.61518 0.0
C715 C 0.49831 0.31993 0.60348 0.0
C716 C 0.48004 0.3201 0.57213 0.0
C717 C 0.88892 0.86891 0.92057 0.0
C718 C 0.88634 0.90618 0.91879 0.0
C719 C 0.90224 0.85277 0.94756 0.0
C720 C 0.91357 0.87312 0.97413 0.0
H721 H 0.87989 0.85197 0.90074 0.0
H722 H 0.90437 0.82422 0.94767 0.0
S723 S 0.92061 0.9722 0.98305 0.0
N724 N 0.90293 0.96273 0.94754 0.0
N725 N 0.92451 0.93364 0.9968 0.0
C726 C 0.91151 0.91059 0.97248 0.0
C727 C 0.89912 0.92672 0.94542 0.0
C728 C 0.63522 0.29721 0.19238 0.0
C729 C 0.69565 0.31576 0.19355 0.0
C730 C 0.62198 0.30337 0.21618 0.0
C731 C 0.66805 0.32872 0.24242 0.0
H732 H 0.59404 0.27922 0.17159 0.0
H733 H 0.57139 0.28981 0.21269 0.0
S734 S 0.84463 0.37945 0.26065 0.0
N735 N 0.81 0.35683 0.22588 0.0
N736 N 0.78515 0.3687 0.2707 0.0
C737 C 0.73334 0.34535 0.24549 0.0
C738 C 0.74737 0.3387 0.22118 0.0
C739 C 0.71798 0.37673 0.37741 0.0
C740 C 0.79219 0.38556 0.38336 0.0
C741 C 0.71124 0.35537 0.39762 0.0
C742 C 0.77825 0.341 0.42497 0.0
H743 H 0.66424 0.38688 0.35715 0.0
H744 H 0.65288 0.35094 0.39223 0.0
S745 S 0.98802 0.36162 0.45617 0.0
N746 N 0.93548 0.38185 0.42258 0.0
N747 N 0.92231 0.34155 0.45898 0.0
C748 C 0.85275 0.35066 0.43191 0.0
C749 C 0.85985 0.37269 0.41167 0.0
C750 C 0.6173 0.06895 0.61607 0.0
C751 C 0.57972 0.03764 0.59608 0.0
C752 C 0.66956 0.06865 0.65017 0.0
C753 C 0.68695 0.03711 0.6663 0.0
H754 H 0.61054 0.09353 0.6053 0.0
H755 H 0.69888 0.0935 0.66401 0.0
S756 S 0.59964 0.94809 0.62492 0.0
N757 N 0.56125 0.97427 0.59515 0.0
N758 N 0.65688 0.97391 0.65852 0.0
C759 C 0.64632 1.00595 0.64651 0.0
C760 C 0.59392 1.0062 0.6118 0.0
C761 C 0.4227 0.86969 0.92774 0.0
C762 C 0.44454 0.90583 0.93661 0.0
C763 C 0.40857 0.85346 0.89918 0.0
C764 C 0.41452 0.87265 0.87791 0.0
H765 H 0.41268 0.85425 0.9421 0.0
H766 H 0.38758 0.82603 0.89259 0.0
S767 S 0.48222 0.96676 0.89313 0.0
N768 N 0.48159 0.95925 0.92428 0.0
N769 N 0.45349 0.92902 0.87039 0.0
C770 C 0.44304 0.90802 0.88807 0.0
C771 C 0.45791 0.92453 0.91733 0.0
C772 C 0.54424 0.15176 0.08384 0.0
C773 C 0.46605 0.15206 0.07532 0.0
C774 C 0.59116 0.18347 0.0938 0.0
C775 C 0.56178 0.21686 0.09544 0.0
H776 H 0.56909 0.12701 0.08247 0.0
H777 H 0.65055 0.18186 0.09971 0.0
S778 S 0.36587 0.23229 0.0798 0.0
N779 N 0.36506 0.1892 0.07224 0.0
N780 N 0.45273 0.24776 0.09024 0.0
C781 C 0.4851 0.21744 0.08783 0.0
C782 C 0.4376 0.18539 0.07803 0.0
C783 C 0.74624 0.65865 0.28318 0.0
C784 C 0.72299 0.62287 0.26931 0.0
C785 C 0.6912 0.68428 0.28164 0.0
C786 C 0.60864 0.6761 0.26673 0.0
H787 H 0.80769 0.66731 0.29511 0.0
H788 H 0.71425 0.7108 0.29266 0.0
S789 S 0.5136 0.58725 0.22629 0.0
N790 N 0.60708 0.58234 0.23945 0.0
N791 N 0.50883 0.62846 0.23755 0.0
C792 C 0.58539 0.64059 0.25308 0.0
C793 C 0.64031 0.61494 0.25408 0.0
C794 C 0.20097 0.91572 0.44096 0.0
C795 C 0.19647 0.90186 0.46448 0.0
C796 C 0.23556 0.94957 0.44616 0.0
C797 C 0.26546 0.97135 0.47478 0.0
H798 H 0.18181 0.89954 0.41917 0.0
H799 H 0.24209 0.95815 0.42812 0.0
S800 S 0.2551 0.94914 0.54148 0.0
N801 N 0.21635 0.91356 0.51583 0.0
N802 N 0.27936 0.97762 0.52529 0.0
C803 C 0.2552 0.9588 0.49732 0.0
C804 C 0.22147 0.92391 0.4923 0.0
C805 C 0.34813 0.72013 0.76126 0.0
C806 C 0.38483 0.74002 0.79108 0.0
C807 C 0.37673 0.6872 0.75837 0.0
C808 C 0.44331 0.67206 0.78518 0.0
H809 H 0.29322 0.72888 0.74025 0.0
H810 H 0.34284 0.67236 0.73503 0.0
S811 S 0.57036 0.71638 0.86793 0.0
N812 N 0.49807 0.74419 0.8475 0.0
N813 N 0.55236 0.68264 0.842 0.0
C814 C 0.48515 0.69315 0.81471 0.0
C815 C 0.45551 0.72682 0.8177 0.0
C816 C 0.93144 0.39772 0.51399 0.0
C817 C 0.97301 0.36799 0.53009 0.0
C818 C 0.97095 0.42738 0.51373 0.0
C819 C 0.05432 0.4291 0.52996 0.0
H820 H 0.86729 0.39782 0.50065 0.0
H821 H 0.93541 0.4493 0.50054 0.0
S822 S 0.19184 0.3592 0.578 0.0
N823 N 0.10254 0.34224 0.56348 0.0
N824 N 0.17761 0.39877 0.5642 0.0
C825 C 0.09702 0.3997 0.54659 0.0
C826 C 0.05624 0.36905 0.54639 0.0
C827 C 0.39317 0.92175 0.27467 0.0
C828 C 0.33611 0.94185 0.24915 0.0
C829 C 0.40006 0.88478 0.27055 0.0
C830 C 0.35163 0.86526 0.24035 0.0
H831 H 0.43554 0.93507 0.29829 0.0
H832 H 0.4476 0.87181 0.29106 0.0
S833 S 0.18667 0.90352 0.16537 0.0
N834 N 0.22488 0.93795 0.19242 0.0
N835 N 0.23959 0.86923 0.18432 0.0
C836 C 0.29181 0.88463 0.21458 0.0
C837 C 0.28349 0.92244 0.21902 0.0
C838 C 0.48117 0.44319 0.78356 0.0
C839 C 0.55635 0.46132 0.80048 0.0
C840 C 0.47248 0.40558 0.77798 0.0
C841 C 0.53858 0.38403 0.78908 0.0
H842 H 0.42815 0.45827 0.77423 0.0
H843 H 0.41318 0.39337 0.76418 0.0
S844 S 0.74743 0.41766 0.83081 0.0
N845 N 0.69768 0.45387 0.82607 0.0
N846 N 0.68109 0.38443 0.81528 0.0
C847 C 0.61371 0.40187 0.80545 0.0
C848 C 0.6227 0.43997 0.81127 0.0
C849 C 0.21238 0.81688 0.55259 0.0
C850 C 0.13522 0.82785 0.5289 0.0
C851 C 0.24895 0.8244 0.58586 0.0
C852 C 0.2108 0.84407 0.59721 0.0
H853 H 0.24651 0.80347 0.54555 0.0
H854 H 0.30864 0.81551 0.60282 0.0
S855 S 1.00785 0.87925 0.54551 0.0
N856 N 0.02192 0.85961 0.51955 0.0
N857 N 0.0899 0.87387 0.58162 0.0
C858 C 0.13369 0.8555 0.57378 0.0
C859 C 0.09639 0.84758 0.53989 0.0
C860 C 0.82916 0.93727 0.24445 0.0
C861 C 0.88346 0.96628 0.26182 0.0
C862 C 0.80961 0.91457 0.25966 0.0
C863 C 0.84288 0.92026 0.29268 0.0
H864 H 0.8059 0.93075 0.21949 0.0
H865 H 0.77208 0.89118 0.24605 0.0
S866 S 0.97487 0.99663 0.34714 0.0
N867 N 0.9605 1.00244 0.31253 0.0
N868 N 0.92287 0.96024 0.34092 0.0
C869 C 0.88988 0.95142 0.3093 0.0
C870 C 0.91041 0.97432 0.2939 0.0
C871 C 0.15759 0.77017 0.6664 0.0
C872 C 0.12613 0.7689 0.68435 0.0
C873 C 0.13881 0.7436 0.64236 0.0
C874 C 0.08663 0.71512 0.63502 0.0
H875 H 0.1997 0.79104 0.67182 0.0
H876 H 0.16691 0.74483 0.63007 0.0
S877 S 0.98484 0.69961 0.67337 0.0
N878 N 0.03725 0.73701 0.69182 0.0
N879 N 1.00188 0.68728 0.64652 0.0
C880 C 0.05178 0.71421 0.65157 0.0
C881 C 0.07132 0.74109 0.67621 0.0
C882 C 0.21199 0.79783 0.37823 0.0
C883 C 0.164 0.77709 0.38281 0.0
C884 C 0.21518 0.79064 0.35171 0.0
C885 C 0.17407 0.7611 0.3294 0.0
H886 H 0.24955 0.81928 0.39595 0.0
H887 H 0.25403 0.80729 0.34977 0.0
S888 S 0.03046 0.70126 0.32776 0.0
N889 N 0.06577 0.72845 0.36033 0.0
N890 N 0.07534 0.71354 0.31161 0.0
C891 C 0.122 0.74127 0.33263 0.0
C892 C 0.11635 0.74952 0.35907 0.0
C893 C 0.63903 0.12464 0.19637 0.0
C894 C 0.66281 0.12274 0.22811 0.0
C895 C 0.6899 0.14048 0.19042 0.0
C896 C 0.76516 0.15534 0.21601 0.0
H897 H 0.58078 0.11424 0.17619 0.0
H898 H 0.66914 0.14231 0.16569 0.0
S899 S 0.85293 0.15794 0.30302 0.0
N900 N 0.76507 0.13757 0.28501 0.0
N901 N 0.86042 0.16686 0.27389 0.0
C902 C 0.78925 0.15325 0.24765 0.0
C903 C 0.73804 0.13711 0.25366 0.0
C904 C 0.31155 0.83711 0.98894 0.0
C905 C 0.31199 0.80579 1.00212 0.0
C906 C 0.30204 0.83568 0.95958 0.0
C907 C 0.29183 0.80292 0.94261 0.0
H908 H 0.30994 0.86255 0.99956 0.0
H909 H 0.29499 0.8602 0.94866 0.0
S910 S 0.30097 0.71379 0.96978 0.0
N911 N 0.31313 0.74157 0.99867 0.0
N912 N 0.29325 0.73881 0.94314 0.0
C913 C 0.302 0.77168 0.95755 0.0
C914 C 0.31277 0.77317 0.98756 0.0
C915 C 0.5981 0.68383 0.67406 0.0
C916 C 0.63298 0.6506 0.6825 0.0
C917 C 0.53696 0.68957 0.64228 0.0
C918 C 0.5109 0.66302 0.61733 0.0
H919 H 0.61336 0.70478 0.69246 0.0
H920 H 0.50795 0.71469 0.63729 0.0
S921 S 0.60471 0.57761 0.6236 0.0
N922 N 0.65433 0.59525 0.66117 0.0
N923 N 0.53693 0.60625 0.60119 0.0
C924 C 0.55373 0.63215 0.62423 0.0
C925 C 0.61683 0.6262 0.65688 0.0
C926 C 0.26231 0.07717 0.34794 0.0
C927 C 0.31321 0.05573 0.34438 0.0
C928 C 0.27087 0.08121 0.3775 0.0
C929 C 0.32951 0.06338 0.40454 0.0
H930 H 0.21695 0.09166 0.32804 0.0
H931 H 0.23155 0.09865 0.37923 0.0
S932 S 0.47593 1.00372 0.4068 0.0
N933 N 0.42345 1.01674 0.37 0.0
N934 N 0.43797 1.02291 0.42467 0.0
C935 C 0.37944 0.04148 0.40074 0.0
C936 C 0.37174 0.03807 0.37099 0.0
C937 C 0.10786 0.91072 0.02992 0.0
C938 C 0.13579 0.90487 0.06177 0.0
C939 C 0.13144 0.94113 0.02265 0.0
C940 C 0.18813 0.96581 0.04724 0.0
H941 H 0.06743 0.89161 0.01037 0.0
H942 H 0.10556 0.94515 0.99771 0.0
S943 S 0.3072 0.9521 0.13483 0.0
N944 N 0.23706 0.92057 0.11786 0.0
N945 N 0.29005 0.97448 0.10505 0.0
C946 C 0.2244 0.95715 0.07933 0.0
C947 C 0.19658 0.92743 0.08646 0.0
C948 C 0.60366 0.19786 0.49249 0.0
C949 C 0.63392 0.19281 0.47412 0.0
C950 C 0.56952 0.16964 0.49758 0.0
C951 C 0.56301 0.13479 0.48431 0.0
H952 H 0.6094 0.22365 0.50429 0.0
H953 H 0.54937 0.17526 0.51266 0.0
S954 S 0.61914 0.10864 0.42909 0.0
N955 N 0.64705 0.15098 0.43961 0.0
N956 N 0.58038 0.0982 0.44808 0.0
C957 C 0.58878 0.12975 0.46425 0.0
C958 C 0.62476 0.15858 0.45946 0.0
C959 C 0.16712 0.47299 0.32443 0.0
C960 C 0.09744 0.48608 0.29666 0.0
C961 C 0.21871 0.44824 0.32299 0.0
C962 C 0.20554 0.4347 0.2936 0.0
H963 H 0.18254 0.48213 0.34794 0.0
H964 H 0.27018 0.4398 0.34541 0.0
S965 S 0.03892 0.46247 0.21355 0.0
N966 N 0.02345 0.48403 0.23845 0.0
N967 N 0.11864 0.43903 0.23597 0.0
C968 C 0.13719 0.44792 0.26574 0.0
C969 C 0.08424 0.47289 0.26715 0.0
C970 C 0.10957 0.65023 0.50098 0.0
C971 C 0.16812 0.62864 0.50249 0.0
C972 C 0.07617 0.67811 0.48107 0.0
C973 C 0.10151 0.68562 0.46236 0.0
H974 H 0.08836 0.64505 0.51529 0.0
H975 H 0.03349 0.69445 0.48145 0.0
S976 S 0.26455 0.6397 0.45347 0.0
N977 N 0.19896 0.65326 0.4623 0.0
N978 N 0.19502 0.66633 0.4495 0.0
C979 C 0.16471 0.6616 0.46489 0.0
C980 C 0.19829 0.63272 0.48416 0.0
C981 C 0.78941 0.14877 0.80289 0.0
C982 C 0.74546 0.12301 0.77649 0.0
C983 C 0.75212 0.17781 0.80779 0.0
C984 C 0.66915 0.18261 0.78654 0.0
H985 H 0.85266 0.14584 0.82056 0.0
H986 H 0.78824 0.19595 0.82904 0.0
S987 S 0.52801 0.12562 0.71182 0.0
N988 N 0.61438 0.10681 0.72739 0.0
N989 N 0.54592 0.16019 0.73692 0.0
C990 C 0.62545 0.15788 0.75958 0.0
C991 C 0.66305 0.1286 0.75447 0.0
C992 C 1.01434 0.75237 0.17458 0.0
C993 C 0.04574 0.71797 0.18272 0.0
C994 C 1.01947 0.7727 0.15329 0.0
C995 C 0.05582 0.75992 0.13841 0.0
H996 H 0.98413 0.76381 0.18443 0.0
H997 H 0.99162 0.79797 0.14749 0.0
S998 S 0.15727 0.67419 0.15368 0.0
N999 N 0.12122 0.6742 0.17505 0.0
N1000 N 0.1315 0.71188 0.13643 0.0
C1001 C 0.09149 0.72669 0.14775 0.0
C1002 C 0.08649 0.70605 0.16936 0.0
C1003 C 0.0948 0.55615 0.43948 0.0
C1004 C 0.0361 0.54493 0.44328 0.0
C1005 C 0.0742 0.56582 0.40971 0.0
C1006 C 0.99484 0.56292 0.3826 0.0
H1007 H 0.15682 0.55799 0.45907 0.0
H1008 H 0.12072 0.57472 0.4078 0.0
S1009 S 0.82319 0.52552 0.37924 0.0
N1010 N 0.89951 0.52604 0.41736 0.0
N1011 N 0.85881 0.54197 0.36102 0.0
C1012 C 0.9368 0.54871 0.38592 0.0
C1013 C 0.95808 0.54 0.41628 0.0
C1014 C 0.31246 0.54441 0.67067 0.0
C1015 C 0.39235 0.55704 0.69221 0.0
C1016 C 0.27747 0.53759 0.63779 0.0
C1017 C 0.32076 0.54379 0.62535 0.0
H1018 H 0.27703 0.53889 0.67926 0.0
H1019 H 0.21726 0.52643 0.62233 0.0
S1020 S 0.53341 0.57143 0.6724 0.0
N1021 N 0.51485 0.57211 0.69936 0.0
N1022 N 0.44883 0.56052 0.63733 0.0
C1023 C 0.40046 0.55615 0.64667 0.0
C1024 C 0.43622 0.5626 0.68014 0.0
C1025 C 0.62367 0.81673 0.13727 0.0
C1026 C 0.68079 0.82598 0.17028 0.0
C1027 C 0.64028 0.82313 0.11522 0.0
C1028 C 0.71314 0.83962 0.1261 0.0
H1029 H 0.56625 0.80501 0.12863 0.0
H1030 H 0.5966 0.81534 0.08986 0.0
S1031 S 0.88042 0.86861 0.20991 0.0
N1032 N 0.81222 0.85124 0.21272 0.0
N1033 N 0.84171 0.86508 0.17114 0.0
C1034 C 0.76994 0.84894 0.15894 0.0
C1035 C 0.75417 0.84156 0.18119 0.0
C1036 C 0.90222 0.55823 0.18933 0.0
C1037 C 0.83752 0.54781 0.18986 0.0
C1038 C 0.89045 0.56932 0.16183 0.0
C1039 C 0.81375 0.56982 0.13372 0.0
H1040 H 0.96351 0.55743 0.21023 0.0
H1041 H 0.94195 0.57497 0.16205 0.0
S1042 S 0.62381 0.55295 0.12431 0.0
N1043 N 0.69432 0.54388 0.16153 0.0
N1044 N 0.67103 0.56579 0.10938 0.0
C1045 C 0.74809 0.56308 0.13473 0.0
C1046 C 0.76025 0.55128 0.16281 0.0
C1047 C 0.76777 0.46303 0.11558 0.0
C1048 C 0.68468 0.46371 0.08874 0.0
C1049 C 0.81643 0.43307 0.13175 0.0
C1050 C 0.80278 0.39689 0.11931 0.0
H1051 H 0.79887 0.48862 0.12554 0.0
H1052 H 0.87211 0.43929 0.15509 0.0
S1053 S 0.52654 0.34019 0.04687 0.0
N1054 N 0.536 0.41198 0.05813 0.0
N1055 N 0.68472 0.3422 0.07453 0.0
C1056 C 0.73165 0.38956 0.09088 0.0
C1057 C 0.64648 0.4303 0.08064 0.0
C1058 C 0.37229 0.2043 0.29657 0.0
C1059 C 0.31737 0.23117 0.28068 0.0
C1060 C 0.35164 0.16765 0.28574 0.0
C1061 C 0.27529 0.15574 0.2581 0.0
H1062 H 0.43088 0.21145 0.31834 0.0
H1063 H 0.39564 0.14849 0.29976 0.0
S1064 S 0.10446 0.21382 0.21172 0.0
N1065 N 0.17927 0.24139 0.23857 0.0
N1066 N 0.14247 0.17428 0.21762 0.0
C1067 C 0.21977 0.1822 0.24251 0.0
C1068 C 0.24021 0.21917 0.2539 0.0
C1069 C 0.58946 0.44771 0.95034 0.0
C1070 C 0.57512 0.45653 0.9731 0.0
C1071 C 0.54755 0.46328 0.92167 0.0
C1072 C 0.49369 0.49014 0.91557 0.0
H1073 H 0.62441 0.42518 0.95273 0.0
H1074 H 0.55331 0.45173 0.90331 0.0
S1075 S 0.4502 0.52761 0.97228 0.0
N1076 N 0.51319 0.49605 0.99114 0.0
N1077 N 0.43799 0.52845 0.93755 0.0
C1078 C 0.48633 0.50226 0.94021 0.0
C1079 C 0.52764 0.48522 0.96926 0.0
C1080 C 0.7049 0.27988 0.01753 0.0
C1081 C 0.66427 0.27478 0.03149 0.0
C1082 C 0.66461 0.27787 0.98382 0.0
C1083 C 0.58176 0.27102 0.96249 0.0
H1084 H 0.76864 0.28538 0.03278 0.0
H1085 H 0.69877 0.28134 0.9743 0.0
S1086 S 0.44654 0.25565 0.98598 0.0
N1087 N 0.53542 0.26201 0.02066 0.0
N1088 N 0.46009 0.25948 0.95762 0.0
C1089 C 0.53998 0.26643 0.97592 0.0
C1090 C 0.58106 0.268 0.01027 0.0
C1091 C 0.55345 0.58011 0.92917 0.0
C1092 C 0.62682 0.57264 0.95732 0.0
C1093 C 0.54447 0.58339 0.90036 0.0
C1094 C 0.60861 0.57964 0.89786 0.0
H1095 H 0.50149 0.58325 0.92919 0.0
H1096 H 0.48512 0.58808 0.87944 0.0
S1097 S 0.81944 0.5726 0.96696 0.0
N1098 N 0.76934 0.57051 0.98271 0.0
N1099 N 0.75214 0.57599 0.928 0.0
C1100 C 0.68448 0.5759 0.92648 0.0
C1101 C 0.69362 0.57244 0.95626 0.0
C1102 C 0.84121 0.6937 0.01918 0.0
C1103 C 0.8465 0.72478 0.03714 0.0
C1104 C 0.81931 0.66068 0.02334 0.0
C1105 C 0.80121 0.65705 0.04555 0.0
H1106 H 0.85549 0.69469 1.00205 0.0
H1107 H 0.81611 0.63782 1.00876 0.0
S1108 S 0.81178 0.72913 0.10071 0.0
N1109 N 0.83537 0.74903 0.0796 0.0
N1110 N 0.79359 0.68713 0.08688 0.0
C1111 C 0.80636 0.68775 0.06381 0.0
C1112 C 0.82903 0.72147 0.05973 0.0
C1113 C 0.16687 0.94985 0.79268 0.0
C1114 C 0.13388 0.91813 0.77256 0.0
C1115 C 0.11976 0.97691 0.79279 0.0
C1116 C 0.03559 0.97465 0.77272 0.0
H1117 H 0.23094 0.95429 0.80864 0.0
H1118 H 0.15073 1.0004 0.80886 0.0
S1119 S 0.91637 0.89646 0.71617 0.0
N1120 N 1.00948 0.8854 0.73253 0.0
N1121 N 0.92075 0.93637 0.73259 0.0
C1122 C 1.00073 0.94264 0.75286 0.0
C1123 C 0.04956 0.91456 0.75283 0.0
C1124 C 0.386 0.20682 0.6831 0.0
C1125 C 0.40446 0.2434 0.68979 0.0
C1126 C 0.36148 0.18968 0.65324 0.0
C1127 C 0.35259 0.20866 0.6288 0.0
H1128 H 0.39745 0.19087 0.70197 0.0
H1129 H 0.35404 0.16109 0.64995 0.0
S1130 S 0.37752 0.30589 0.63209 0.0
N1131 N 0.40201 0.29866 0.66813 0.0
N1132 N 0.35284 0.26673 0.61167 0.0
C1133 C 0.3627 0.24571 0.63401 0.0
C1134 C 0.38932 0.263 0.6646 0.0
C1135 C 0.80813 0.34176 0.90729 0.0
C1136 C 0.72758 0.33214 0.8838 0.0
C1137 C 0.83068 0.36735 0.93277 0.0
C1138 C 0.77322 0.38469 0.93496 0.0
H1139 H 0.85367 0.32942 0.90602 0.0
H1140 H 0.89337 0.37422 0.95048 0.0
S1141 S 0.55399 0.37054 0.87791 0.0
N1142 N 0.58998 0.34296 0.86348 0.0
N1143 N 0.63249 0.39053 0.91098 0.0
C1144 C 0.69257 0.37537 0.91131 0.0
C1145 C 0.66972 0.34928 0.88579 0.0
C1146 C 0.55474 0.84764 0.35625 0.0
C1147 C 0.52151 0.81289 0.34694 0.0
C1148 C 0.54287 0.87087 0.37514 0.0
C1149 C 0.49898 0.86021 0.38623 0.0
H1150 H 0.58852 0.85761 0.34816 0.0
H1151 H 0.56961 0.89738 0.38167 0.0
S1152 S 0.40177 0.77201 0.37012 0.0
N1153 N 0.44242 0.76892 0.35043 0.0
N1154 N 0.42312 0.81277 0.38747 0.0
C1155 C 0.46546 0.82568 0.37748 0.0
C1156 C 0.4766 0.8019 0.35769 0.0
C1157 C 0.36352 0.69989 0.11226 0.0
C1158 C 0.43961 0.69133 0.1205 0.0
C1159 C 0.35426 0.71663 0.13538 0.0
C1160 C 0.42102 0.72467 0.16734 0.0
H1161 H 0.31148 0.69479 0.08763 0.0
H1162 H 0.29563 0.72433 0.12799 0.0
S1163 S 0.63033 0.70173 0.20229 0.0
N1164 N 0.58038 0.68802 0.16384 0.0
N1165 N 0.56357 0.71895 0.20664 0.0
C1166 C 0.4961 0.71407 0.17601 0.0
C1167 C 0.50536 0.69749 0.15282 0.0
loop_
_geom_bond_atom_site_label_1
_geom_bond_atom_site_label_2
_geom_bond_distance
_geom_bond_site_symmetry_2
_ccdc_geom_bond_type
Nd0 C2 2.836 . S
Nd0 O20 2.500 . S
Nd0 O21 2.492 . S
Nd0 O22 2.487 . S
Nd0 O23 2.682 1_565 S
Nd0 O24 2.410 . S
Nd0 O29 2.414 1_565 S
Nd0 O31 2.424 1_565 S
Nd1 C11 2.836 . S
Nd1 O23 2.414 . S
Nd1 O25 2.424 1_545 S
Nd1 O26 2.500 . S
Nd1 O27 2.492 . S
Nd1 O28 2.487 . S
Nd1 O29 2.682 . S
Nd1 O30 2.410 . S
C2 Nd0 2.836 . S
C2 C3 1.498 . S
C2 O20 1.258 . S
C2 O21 1.239 . S
C3 C2 1.498 . S
C3 C4 1.366 1_554 S
C3 C8 1.407 . S
C4 C3 1.366 1_556 S
C4 C5 1.392 . S
C4 H32 0.930 . S
C5 C4 1.392 . S
C5 C6 1.398 . S
C5 H33 0.929 . S
C6 C5 1.398 . S
C6 C7 1.352 1_556 S
C7 C6 1.352 1_554 S
C7 C8 1.384 . S
C7 H34 0.930 . S
C8 C3 1.407 . S
C8 C7 1.384 . S
C8 H35 0.929 . S
C9 O22 1.227 1_545 S
C9 O23 1.286 . S
C10 O24 1.251 . S
C10 O25 1.268 . S
C11 Nd1 2.836 . S
C11 C12 1.498 . S
C11 O26 1.258 . S
C11 O27 1.239 . S
C12 C11 1.498 . S
C12 C13 1.366 . S
C12 C17 1.407 . S
C13 C12 1.366 . S
C13 C14 1.392 . S
C13 H36 0.930 . S
C14 C13 1.392 . S
C14 C15 1.398 . S
C14 H37 0.929 . S
C15 C14 1.398 . S
C15 C16 1.352 . S
C16 C15 1.352 . S
C16 C17 1.384 . S
C16 H38 0.930 . S
C17 C12 1.407 . S
C17 C16 1.384 . S
C17 H39 0.929 . S
C18 O28 1.241 . S
C18 O29 1.273 . S
C19 O30 1.251 . S
C19 O31 1.268 . S
O20 Nd0 2.500 . S
O20 C2 1.258 . S
O21 Nd0 2.492 . S
O21 C2 1.239 . S
O22 Nd0 2.487 . S
O22 C9 1.227 1_565 S
O23 Nd0 2.682 1_545 S
O23 Nd1 2.414 . S
O23 C9 1.286 . S
O24 Nd0 2.410 . S
O24 C10 1.251 . S
O25 Nd1 2.424 1_565 S
O25 C10 1.268 . S
O26 Nd1 2.500 . S
O26 C11 1.258 . S
O27 Nd1 2.492 . S
O27 C11 1.239 . S
O28 Nd1 2.487 . S
O28 C18 1.241 . S
O29 Nd0 2.414 1_545 S
O29 Nd1 2.682 . S
O29 C18 1.273 . S
O30 Nd1 2.410 . S
O30 C19 1.251 . S
O31 Nd0 2.424 1_545 S
O31 C19 1.268 . S
H32 C4 0.930 . S
H33 C5 0.929 . S
H34 C7 0.930 . S
H35 C8 0.929 . S
H36 C13 0.930 . S
H37 C14 0.929 . S
H38 C16 0.930 . S
H39 C17 0.929 . S
Nd40 C42 2.836 . S
Nd40 O60 2.500 . S
Nd40 O61 2.492 . S
Nd40 O62 2.487 . S
Nd40 O63 2.682 . S
Nd40 O64 2.410 . S
Nd40 O69 2.414 . S
Nd40 O71 2.424 . S
Nd41 C51 2.836 . S
Nd41 O63 2.414 . S
Nd41 O65 2.424 . S
Nd41 O66 2.500 . S
Nd41 O67 2.492 . S
Nd41 O68 2.487 . S
Nd41 O69 2.682 . S
Nd41 O70 2.410 . S
C42 Nd40 2.836 . S
C42 C43 1.498 . S
C42 O60 1.258 . S
C42 O61 1.239 . S
C43 C42 1.498 . S
C43 C44 1.366 . S
C43 C48 1.407 . S
C44 C43 1.366 . S
C44 C45 1.392 . S
C44 H72 0.930 . S
C45 C44 1.392 . S
C45 C46 1.398 . S
C45 H73 0.929 . S
C46 C45 1.398 . S
C46 C47 1.352 . S
C47 C46 1.352 . S
C47 C48 1.384 . S
C47 H74 0.930 . S
C48 C43 1.407 . S
C48 C47 1.384 . S
C48 H75 0.929 . S
C49 O62 1.241 . S
C49 O63 1.273 . S
C50 O64 1.251 . S
C50 O65 1.268 . S
C51 Nd41 2.836 . S
C51 C52 1.498 . S
C51 O66 1.258 . S
C51 O67 1.239 . S
C52 C51 1.498 . S
C52 C53 1.366 . S
C52 C57 1.407 . S
C53 C52 1.366 . S
C53 C54 1.392 . S
C53 H76 0.930 . S
C54 C53 1.392 . S
C54 C55 1.398 . S
C54 H77 0.929 . S
C55 C54 1.398 . S
C55 C56 1.352 . S
C56 C55 1.352 . S
C56 C57 1.384 . S
C56 H78 0.930 . S
C57 C52 1.407 . S
C57 C56 1.384 . S
C57 H79 0.929 . S
C58 O68 1.241 . S
C58 O69 1.273 . S
C59 O70 1.251 . S
C59 O71 1.268 . S
O60 Nd40 2.500 . S
O60 C42 1.258 . S
O61 Nd40 2.492 . S
O61 C42 1.239 . S
O62 Nd40 2.487 . S
O62 C49 1.241 . S
O63 Nd40 2.682 . S
O63 Nd41 2.414 . S
O63 C49 1.273 . S
O64 Nd40 2.410 . S
O64 C50 1.251 . S
O65 Nd41 2.424 . S
O65 C50 1.268 . S
O66 Nd41 2.500 . S
O66 C51 1.258 . S
O67 Nd41 2.492 . S
O67 C51 1.239 . S
O68 Nd41 2.487 . S
O68 C58 1.241 . S
O69 Nd40 2.414 . S
O69 Nd41 2.682 . S
O69 C58 1.273 . S
O70 Nd41 2.410 . S
O70 C59 1.251 . S
O71 Nd40 2.424 . S
O71 C59 1.268 . S
H72 C44 0.930 . S
H73 C45 0.929 . S
H74 C47 0.930 . S
H75 C48 0.929 . S
H76 C53 0.930 . S
H77 C54 0.929 . S
H78 C56 0.930 . S
H79 C57 0.929 . S
Nd80 C82 2.836 . S
Nd80 O100 2.500 . S
Nd80 O101 2.492 . S
Nd80 O102 2.487 . S
Nd80 O103 2.682 . S
Nd80 O104 2.410 . S
Nd80 O109 2.414 . S
Nd80 O111 2.424 . S
Nd81 C91 2.836 . S
Nd81 O103 2.414 . S
Nd81 O105 2.424 . S
Nd81 O106 2.500 . S
Nd81 O107 2.492 . S
Nd81 O108 2.487 . S
Nd81 O109 2.682 . S
Nd81 O110 2.410 . S
C82 Nd80 2.836 . S
C82 C83 1.498 . S
C82 O100 1.258 . S
C82 O101 1.239 . S
C83 C82 1.498 . S
C83 C84 1.366 . S
C83 C88 1.407 . S
C84 C83 1.366 . S
C84 C85 1.392 . S
C84 H112 0.930 . S
C85 C84 1.392 . S
C85 C86 1.398 . S
C85 H113 0.929 . S
C86 C85 1.398 . S
C86 C87 1.352 . S
C87 C86 1.352 . S
C87 C88 1.384 . S
C87 H114 0.930 . S
C88 C83 1.407 . S
C88 C87 1.384 . S
C88 H115 0.929 . S
C89 O102 1.241 . S
C89 O103 1.273 . S
C90 O104 1.251 . S
C90 O105 1.268 . S
C91 Nd81 2.836 . S
C91 C92 1.498 . S
C91 O106 1.258 . S
C91 O107 1.239 . S
C92 C91 1.498 . S
C92 C93 1.366 . S
C92 C97 1.407 1_655 S
C93 C92 1.366 . S
C93 C94 1.392 1_655 S
C93 H116 0.930 . S
C94 C93 1.392 1_455 S
C94 C95 1.398 . S
C94 H117 0.929 . S
C95 C94 1.398 . S
C95 C96 1.352 . S
C96 C95 1.352 . S
C96 C97 1.384 . S
C96 H118 0.930 . S
C97 C92 1.407 1_455 S
C97 C96 1.384 . S
C97 H119 0.929 . S
C98 O108 1.241 . S
C98 O109 1.273 . S
C99 O110 1.251 . S
C99 O111 1.268 . S
O100 Nd80 2.500 . S
O100 C82 1.258 . S
O101 Nd80 2.492 . S
O101 C82 1.239 . S
O102 Nd80 2.487 . S
O102 C89 1.241 . S
O103 Nd80 2.682 . S
O103 Nd81 2.414 . S
O103 C89 1.273 . S
O104 Nd80 2.410 . S
O104 C90 1.251 . S
O105 Nd81 2.424 . S
O105 C90 1.268 . S
O106 Nd81 2.500 . S
O106 C91 1.258 . S
O107 Nd81 2.492 . S
O107 C91 1.239 . S
O108 Nd81 2.487 . S
O108 C98 1.241 . S
O109 Nd80 2.414 . S
O109 Nd81 2.682 . S
O109 C98 1.273 . S
O110 Nd81 2.410 . S
O110 C99 1.251 . S
O111 Nd80 2.424 . S
O111 C99 1.268 . S
H112 C84 0.930 . S
H113 C85 0.929 . S
H114 C87 0.930 . S
H115 C88 0.929 . S
H116 C93 0.930 . S
H117 C94 0.929 . S
H118 C96 0.930 . S
H119 C97 0.929 . S
Nd120 C122 2.836 . S
Nd120 O140 2.500 . S
Nd120 O141 2.492 . S
Nd120 O142 2.501 . S
Nd120 O143 2.682 1_545 S
Nd120 O144 2.410 . S
Nd120 O149 2.414 . S
Nd120 O151 2.424 1_655 S
Nd121 C131 2.836 . S
Nd121 O143 2.414 . S
Nd121 O145 2.424 . S
Nd121 O146 2.500 . S
Nd121 O147 2.492 . S
Nd121 O148 2.487 1_565 S
Nd121 O149 2.682 1_565 S
Nd121 O150 2.410 1_565 S
C122 Nd120 2.836 . S
C122 C123 1.498 . S
C122 O140 1.258 . S
C122 O141 1.239 . S
C123 C122 1.498 . S
C123 C124 1.366 . S
C123 C128 1.407 . S
C124 C123 1.366 . S
C124 C125 1.392 . S
C124 H152 0.930 . S
C125 C124 1.392 . S
C125 C126 1.398 . S
C125 H153 0.929 . S
C126 C125 1.398 . S
C126 C127 1.352 . S
C127 C126 1.352 . S
C127 C128 1.384 . S
C127 H154 0.930 . S
C128 C123 1.407 . S
C128 C127 1.384 . S
C128 H155 0.929 . S
C129 O142 1.230 1_565 S
C129 O143 1.273 . S
C130 O144 1.251 . S
C130 O145 1.268 1_545 S
C131 Nd121 2.836 . S
C131 C132 1.498 . S
C131 O146 1.258 . S
C131 O147 1.239 . S
C132 C131 1.498 . S
C132 C133 1.366 . S
C132 C137 1.407 . S
C133 C132 1.366 . S
C133 C134 1.392 . S
C133 H156 0.930 . S
C134 C133 1.392 . S
C134 C135 1.398 . S
C134 H157 0.929 . S
C135 C134 1.398 . S
C135 C136 1.352 . S
C136 C135 1.352 . S
C136 C137 1.384 . S
C136 H158 0.930 . S
C137 C132 1.407 . S
C137 C136 1.384 . S
C137 H159 0.929 . S
C138 O148 1.241 . S
C138 O149 1.273 . S
C139 O150 1.251 . S
C139 O151 1.268 1_655 S
O140 Nd120 2.500 . S
O140 C122 1.258 . S
O141 Nd120 2.492 . S
O141 C122 1.239 . S
O142 Nd120 2.501 . S
O142 C129 1.230 1_545 S
O143 Nd120 2.682 1_565 S
O143 Nd121 2.414 . S
O143 C129 1.273 . S
O144 Nd120 2.410 . S
O144 C130 1.251 . S
O145 Nd121 2.424 . S
O145 C130 1.268 1_565 S
O146 Nd121 2.500 . S
O146 C131 1.258 . S
O147 Nd121 2.492 . S
O147 C131 1.239 . S
O148 Nd121 2.487 1_545 S
O148 C138 1.241 . S
O149 Nd120 2.414 . S
O149 Nd121 2.682 1_545 S
O149 C138 1.273 . S
O150 Nd121 2.410 1_545 S
O150 C139 1.251 . S
O151 Nd120 2.424 1_455 S
O151 C139 1.268 1_455 S
H152 C124 0.930 . S
H153 C125 0.929 . S
H154 C127 0.930 . S
H155 C128 0.929 . S
H156 C133 0.930 . S
H157 C134 0.929 . S
H158 C136 0.930 . S
H159 C137 0.929 . S
Nd160 C162 2.836 . S
Nd160 O180 2.500 . S
Nd160 O181 2.492 . S
Nd160 O182 2.487 . S
Nd160 O183 2.682 . S
Nd160 O184 2.410 . S
Nd160 O189 2.414 . S
Nd160 O191 2.424 . S
Nd161 C171 2.836 . S
Nd161 O183 2.414 . S
Nd161 O185 2.424 . S
Nd161 O186 2.500 . S
Nd161 O187 2.492 . S
Nd161 O188 2.487 . S
Nd161 O189 2.682 . S
Nd161 O190 2.410 . S
C162 Nd160 2.836 . S
C162 C163 1.498 . S
C162 O180 1.258 . S
C162 O181 1.239 . S
C163 C162 1.498 . S
C163 C164 1.366 . S
C163 C168 1.407 . S
C164 C163 1.366 . S
C164 C165 1.392 . S
C164 H192 0.930 . S
C165 C164 1.392 . S
C165 C166 1.398 . S
C165 H193 0.929 . S
C166 C165 1.398 . S
C166 C167 1.352 . S
C167 C166 1.352 . S
C167 C168 1.384 . S
C167 H194 0.930 . S
C168 C163 1.407 . S
C168 C167 1.384 . S
C168 H195 0.929 . S
C169 O182 1.241 . S
C169 O183 1.273 . S
C170 O184 1.251 . S
C170 O185 1.268 . S
C171 Nd161 2.836 . S
C171 C172 1.498 . S
C171 O186 1.258 . S
C171 O187 1.239 . S
C172 C171 1.498 . S
C172 C173 1.366 . S
C172 C177 1.407 . S
C173 C172 1.366 . S
C173 C174 1.392 . S
C173 H196 0.930 . S
C174 C173 1.392 . S
C174 C175 1.398 . S
C174 H197 0.929 . S
C175 C174 1.398 . S
C175 C176 1.352 . S
C176 C175 1.352 . S
C176 C177 1.384 . S
C176 H198 0.930 . S
C177 C172 1.407 . S
C177 C176 1.384 . S
C177 H199 0.929 . S
C178 O188 1.241 . S
C178 O189 1.273 . S
C179 O190 1.251 . S
C179 O191 1.268 . S
O180 Nd160 2.500 . S
O180 C162 1.258 . S
O181 Nd160 2.492 . S
O181 C162 1.239 . S
O182 Nd160 2.487 . S
O182 C169 1.241 . S
O183 Nd160 2.682 . S
O183 Nd161 2.414 . S
O183 C169 1.273 . S
O184 Nd160 2.410 . S
O184 C170 1.251 . S
O185 Nd161 2.424 . S
O185 C170 1.268 . S
O186 Nd161 2.500 . S
O186 C171 1.258 . S
O187 Nd161 2.492 . S
O187 C171 1.239 . S
O188 Nd161 2.487 . S
O188 C178 1.241 . S
O189 Nd160 2.414 . S
O189 Nd161 2.682 . S
O189 C178 1.273 . S
O190 Nd161 2.410 . S
O190 C179 1.251 . S
O191 Nd160 2.424 . S
O191 C179 1.268 . S
H192 C164 0.930 . S
H193 C165 0.929 . S
H194 C167 0.930 . S
H195 C168 0.929 . S
H196 C173 0.930 . S
H197 C174 0.929 . S
H198 C176 0.930 . S
H199 C177 0.929 . S
Nd200 C202 2.836 . S
Nd200 O220 2.500 . S
Nd200 O221 2.492 . S
Nd200 O222 2.487 . S
Nd200 O223 2.682 . S
Nd200 O224 2.410 . S
Nd200 O229 2.414 1_655 S
Nd200 O231 2.424 . S
Nd201 C211 2.836 . S
Nd201 O223 2.414 1_455 S
Nd201 O225 2.424 . S
Nd201 O226 2.500 . S
Nd201 O227 2.492 . S
Nd201 O228 2.487 . S
Nd201 O229 2.682 . S
Nd201 O230 2.410 . S
C202 Nd200 2.836 . S
C202 C203 1.498 . S
C202 O220 1.258 . S
C202 O221 1.239 . S
C203 C202 1.498 . S
C203 C204 1.366 . S
C203 C208 1.407 . S
C204 C203 1.366 . S
C204 C205 1.392 . S
C204 H232 0.930 . S
C205 C204 1.392 . S
C205 C206 1.398 . S
C205 H233 0.929 . S
C206 C205 1.398 . S
C206 C207 1.352 . S
C207 C206 1.352 . S
C207 C208 1.384 . S
C207 H234 0.930 . S
C208 C203 1.407 . S
C208 C207 1.384 . S
C208 H235 0.929 . S
C209 O222 1.241 . S
C209 O223 1.273 . S
C210 O224 1.251 1_455 S
C210 O225 1.268 . S
C211 Nd201 2.836 . S
C211 C212 1.498 . S
C211 O226 1.258 . S
C211 O227 1.239 . S
C212 C211 1.498 . S
C212 C213 1.366 . S
C212 C217 1.407 . S
C213 C212 1.366 . S
C213 C214 1.392 . S
C213 H236 0.930 . S
C214 C213 1.392 . S
C214 C215 1.398 . S
C214 H237 0.929 . S
C215 C214 1.398 . S
C215 C216 1.352 . S
C216 C215 1.352 . S
C216 C217 1.384 . S
C216 H238 0.930 . S
C217 C212 1.407 . S
C217 C216 1.384 . S
C217 H239 0.929 . S
C218 O228 1.241 . S
C218 O229 1.273 . S
C219 O230 1.251 1_655 S
C219 O231 1.268 . S
O220 Nd200 2.500 . S
O220 C202 1.258 . S
O221 Nd200 2.492 . S
O221 C202 1.239 . S
O222 Nd200 2.487 . S
O222 C209 1.241 . S
O223 Nd200 2.682 . S
O223 Nd201 2.414 1_655 S
O223 C209 1.273 . S
O224 Nd200 2.410 . S
O224 C210 1.251 1_655 S
O225 Nd201 2.424 . S
O225 C210 1.268 . S
O226 Nd201 2.500 . S
O226 C211 1.258 . S
O227 Nd201 2.492 . S
O227 C211 1.239 . S
O228 Nd201 2.487 . S
O228 C218 1.241 . S
O229 Nd200 2.414 1_455 S
O229 Nd201 2.682 . S
O229 C218 1.273 . S
O230 Nd201 2.410 . S
O230 C219 1.251 1_455 S
O231 Nd200 2.424 . S
O231 C219 1.268 . S
H232 C204 0.930 . S
H233 C205 0.929 . S
H234 C207 0.930 . S
H235 C208 0.929 . S
H236 C213 0.930 . S
H237 C214 0.929 . S
H238 C216 0.930 . S
H239 C217 0.929 . S
Nd240 C242 2.836 . S
Nd240 O260 2.500 . S
Nd240 O261 2.492 . S
Nd240 O262 2.487 . S
Nd240 O263 2.682 . S
Nd240 O264 2.410 . S
Nd240 O269 2.414 . S
Nd240 O271 2.424 . S
Nd241 C251 2.836 . S
Nd241 O263 2.414 . S
Nd241 O265 2.424 . S
Nd241 O266 2.500 . S
Nd241 O267 2.492 . S
Nd241 O268 2.487 . S
Nd241 O269 2.682 . S
Nd241 O270 2.410 . S
C242 Nd240 2.836 . S
C242 C243 1.498 . S
C242 O260 1.258 . S
C242 O261 1.239 . S
C243 C242 1.498 . S
C243 C244 1.366 . S
C243 C248 1.407 . S
C244 C243 1.366 . S
C244 C245 1.392 . S
C244 H272 0.930 . S
C245 C244 1.392 . S
C245 C246 1.398 . S
C245 H273 0.929 . S
C246 C245 1.398 . S
C246 C247 1.352 . S
C247 C246 1.352 . S
C247 C248 1.384 . S
C247 H274 0.930 . S
C248 C243 1.407 . S
C248 C247 1.384 . S
C248 H275 0.929 . S
C249 O262 1.241 . S
C249 O263 1.273 . S
C250 O264 1.251 . S
C250 O265 1.268 . S
C251 Nd241 2.836 . S
C251 C252 1.498 . S
C251 O266 1.258 . S
C251 O267 1.239 . S
C252 C251 1.498 . S
C252 C253 1.366 . S
C252 C257 1.407 . S
C253 C252 1.366 . S
C253 C254 1.392 . S
C253 H276 0.930 . S
C254 C253 1.392 . S
C254 C255 1.398 . S
C254 H277 0.929 . S
C255 C254 1.398 . S
C255 C256 1.352 . S
C256 C255 1.352 . S
C256 C257 1.384 . S
C256 H278 0.930 . S
C257 C252 1.407 . S
C257 C256 1.384 . S
C257 H279 0.929 . S
C258 O268 1.241 . S
C258 O269 1.273 . S
C259 O270 1.251 . S
C259 O271 1.268 . S
O260 Nd240 2.500 . S
O260 C242 1.258 . S
O261 Nd240 2.492 . S
O261 C242 1.239 . S
O262 Nd240 2.487 . S
O262 C249 1.241 . S
O263 Nd240 2.682 . S
O263 Nd241 2.414 . S
O263 C249 1.273 . S
O264 Nd240 2.410 . S
O264 C250 1.251 . S
O265 Nd241 2.424 . S
O265 C250 1.268 . S
O266 Nd241 2.500 . S
O266 C251 1.258 . S
O267 Nd241 2.492 . S
O267 C251 1.239 . S
O268 Nd241 2.487 . S
O268 C258 1.241 . S
O269 Nd240 2.414 . S
O269 Nd241 2.682 . S
O269 C258 1.273 . S
O270 Nd241 2.410 . S
O270 C259 1.251 . S
O271 Nd240 2.424 . S
O271 C259 1.268 . S
H272 C244 0.930 . S
H273 C245 0.929 . S
H274 C247 0.930 . S
H275 C248 0.929 . S
H276 C253 0.930 . S
H277 C254 0.929 . S
H278 C256 0.930 . S
H279 C257 0.929 . S
Nd280 C282 2.836 . S
Nd280 O300 2.500 . S
Nd280 O301 2.492 . S
Nd280 O302 2.487 . S
Nd280 O303 2.682 . S
Nd280 O304 2.410 . S
Nd280 O309 2.414 . S
Nd280 O311 2.424 . S
Nd281 C291 2.836 . S
Nd281 O303 2.414 . S
Nd281 O305 2.424 . S
Nd281 O306 2.500 . S
Nd281 O307 2.492 . S
Nd281 O308 2.487 . S
Nd281 O309 2.682 . S
Nd281 O310 2.410 . S
C282 Nd280 2.836 . S
C282 C283 1.498 . S
C282 O300 1.258 . S
C282 O301 1.239 . S
C283 C282 1.498 . S
C283 C284 1.366 . S
C283 C288 1.407 . S
C284 C283 1.366 . S
C284 C285 1.392 . S
C284 H312 0.930 . S
C285 C284 1.392 . S
C285 C286 1.398 . S
C285 H313 0.929 . S
C286 C285 1.398 . S
C286 C287 1.352 . S
C287 C286 1.352 . S
C287 C288 1.384 . S
C287 H314 0.930 . S
C288 C283 1.407 . S
C288 C287 1.384 . S
C288 H315 0.929 . S
C289 O302 1.241 . S
C289 O303 1.273 . S
C290 O304 1.251 . S
C290 O305 1.268 . S
C291 Nd281 2.836 . S
C291 C292 1.498 . S
C291 O306 1.258 . S
C291 O307 1.239 . S
C292 C291 1.498 . S
C292 C293 1.366 . S
C292 C297 1.407 1_455 S
C293 C292 1.366 . S
C293 C294 1.392 . S
C293 H316 0.930 . S
C294 C293 1.392 . S
C294 C295 1.398 . S
C294 H317 0.929 . S
C295 C294 1.398 . S
C295 C296 1.352 1_455 S
C296 C295 1.352 1_655 S
C296 C297 1.384 . S
C296 H318 0.930 . S
C297 C292 1.407 1_655 S
C297 C296 1.384 . S
C297 H319 0.929 . S
C298 O308 1.241 . S
C298 O309 1.273 . S
C299 O310 1.251 . S
C299 O311 1.268 . S
O300 Nd280 2.500 . S
O300 C282 1.258 . S
O301 Nd280 2.492 . S
O301 C282 1.239 . S
O302 Nd280 2.487 . S
O302 C289 1.241 . S
O303 Nd280 2.682 . S
O303 Nd281 2.414 . S
O303 C289 1.273 . S
O304 Nd280 2.410 . S
O304 C290 1.251 . S
O305 Nd281 2.424 . S
O305 C290 1.268 . S
O306 Nd281 2.500 . S
O306 C291 1.258 . S
O307 Nd281 2.492 . S
O307 C291 1.239 . S
O308 Nd281 2.487 . S
O308 C298 1.241 . S
O309 Nd280 2.414 . S
O309 Nd281 2.682 . S
O309 C298 1.273 . S
O310 Nd281 2.410 . S
O310 C299 1.251 . S
O311 Nd280 2.424 . S
O311 C299 1.268 . S
H312 C284 0.930 . S
H313 C285 0.929 . S
H314 C287 0.930 . S
H315 C288 0.929 . S
H316 C293 0.930 . S
H317 C294 0.929 . S
H318 C296 0.930 . S
H319 C297 0.929 . S
Nd320 C322 2.836 . S
Nd320 O340 2.500 . S
Nd320 O341 2.492 . S
Nd320 O342 2.487 . S
Nd320 O343 2.682 . S
Nd320 O344 2.410 . S
Nd320 O349 2.414 . S
Nd320 O351 2.424 . S
Nd321 C331 2.836 . S
Nd321 O343 2.414 . S
Nd321 O345 2.424 . S
Nd321 O346 2.500 . S
Nd321 O347 2.492 . S
Nd321 O348 2.487 . S
Nd321 O349 2.682 . S
Nd321 O350 2.410 . S
C322 Nd320 2.836 . S
C322 C323 1.498 . S
C322 O340 1.258 . S
C322 O341 1.239 . S
C323 C322 1.498 . S
C323 C324 1.366 . S
C323 C328 1.407 . S
C324 C323 1.366 . S
C324 C325 1.392 . S
C324 H352 0.930 . S
C325 C324 1.392 . S
C325 C326 1.398 . S
C325 H353 0.929 . S
C326 C325 1.398 . S
C326 C327 1.352 . S
C327 C326 1.352 . S
C327 C328 1.384 . S
C327 H354 0.930 . S
C328 C323 1.407 . S
C328 C327 1.384 . S
C328 H355 0.929 . S
C329 O342 1.241 . S
C329 O343 1.273 . S
C330 O344 1.251 . S
C330 O345 1.268 . S
C331 Nd321 2.836 . S
C331 C332 1.498 . S
C331 O346 1.258 . S
C331 O347 1.239 . S
C332 C331 1.498 . S
C332 C333 1.366 . S
C332 C337 1.407 . S
C333 C332 1.366 . S
C333 C334 1.392 . S
C333 H356 0.930 . S
C334 C333 1.392 . S
C334 C335 1.398 . S
C334 H357 0.929 . S
C335 C334 1.398 . S
C335 C336 1.352 . S
C336 C335 1.352 . S
C336 C337 1.384 . S
C336 H358 0.930 1_655 S
C337 C332 1.407 . S
C337 C336 1.384 . S
C337 H359 0.929 . S
C338 O348 1.241 . S
C338 O349 1.273 . S
C339 O350 1.251 . S
C339 O351 1.268 . S
O340 Nd320 2.500 . S
O340 C322 1.258 . S
O341 Nd320 2.492 . S
O341 C322 1.239 . S
O342 Nd320 2.487 . S
O342 C329 1.241 . S
O343 Nd320 2.682 . S
O343 Nd321 2.414 . S
O343 C329 1.273 . S
O344 Nd320 2.410 . S
O344 C330 1.251 . S
O345 Nd321 2.424 . S
O345 C330 1.268 . S
O346 Nd321 2.500 . S
O346 C331 1.258 . S
O347 Nd321 2.492 . S
O347 C331 1.239 . S
O348 Nd321 2.487 . S
O348 C338 1.241 . S
O349 Nd320 2.414 . S
O349 Nd321 2.682 . S
O349 C338 1.273 . S
O350 Nd321 2.410 . S
O350 C339 1.251 . S
O351 Nd320 2.424 . S
O351 C339 1.268 . S
H352 C324 0.930 . S
H353 C325 0.929 . S
H354 C327 0.930 . S
H355 C328 0.929 . S
H356 C333 0.930 . S
H357 C334 0.929 . S
H358 C336 0.930 1_455 S
H359 C337 0.929 . S
Nd360 C362 2.836 . S
Nd360 O380 2.500 . S
Nd360 O381 2.492 . S
Nd360 O382 2.487 1_545 S
Nd360 O383 2.682 1_545 S
Nd360 O384 2.410 . S
Nd360 O389 2.414 . S
Nd360 O391 2.424 . S
Nd361 C371 2.836 1_445 S
Nd361 O383 2.414 1_545 S
Nd361 O385 2.424 . S
Nd361 O386 2.504 1_545 S
Nd361 O387 2.492 1_455 S
Nd361 O388 2.487 . S
Nd361 O389 2.682 . S
Nd361 O390 2.410 . S
C362 Nd360 2.836 . S
C362 C363 1.498 . S
C362 O380 1.258 . S
C362 O381 1.239 . S
C363 C362 1.498 . S
C363 C364 1.366 . S
C363 C368 1.407 . S
C364 C363 1.366 . S
C364 C365 1.392 . S
C364 H392 0.930 . S
C365 C364 1.392 . S
C365 C366 1.398 . S
C365 H393 0.929 . S
C366 C365 1.398 . S
C366 C367 1.352 . S
C367 C366 1.352 . S
C367 C368 1.384 . S
C367 H394 0.930 . S
C368 C363 1.407 . S
C368 C367 1.384 . S
C368 H395 0.929 . S
C369 O382 1.241 . S
C369 O383 1.273 . S
C370 O384 1.251 . S
C370 O385 1.268 . S
C371 Nd361 2.836 1_665 S
C371 C372 1.498 . S
C371 O386 1.252 1_655 S
C371 O387 1.239 1_565 S
C372 C371 1.498 . S
C372 C373 1.366 . S
C372 C377 1.407 . S
C373 C372 1.366 . S
C373 C374 1.392 . S
C373 H396 0.930 . S
C374 C373 1.392 . S
C374 C375 1.398 . S
C374 H397 0.929 . S
C375 C374 1.398 . S
C375 C376 1.352 . S
C376 C375 1.352 . S
C376 C377 1.384 . S
C376 H398 0.930 . S
C377 C372 1.407 . S
C377 C376 1.384 . S
C377 H399 0.929 1_565 S
C378 O388 1.241 . S
C378 O389 1.273 . S
C379 O390 1.251 . S
C379 O391 1.268 . S
O380 Nd360 2.500 . S
O380 C362 1.258 . S
O381 Nd360 2.492 . S
O381 C362 1.239 . S
O382 Nd360 2.487 1_565 S
O382 C369 1.241 . S
O383 Nd360 2.682 1_565 S
O383 Nd361 2.414 1_565 S
O383 C369 1.273 . S
O384 Nd360 2.410 . S
O384 C370 1.251 . S
O385 Nd361 2.424 . S
O385 C370 1.268 . S
O386 Nd361 2.504 1_565 S
O386 C371 1.252 1_455 S
O387 Nd361 2.492 1_655 S
O387 C371 1.239 1_545 S
O388 Nd361 2.487 . S
O388 C378 1.241 . S
O389 Nd360 2.414 . S
O389 Nd361 2.682 . S
O389 C378 1.273 . S
O390 Nd361 2.410 . S
O390 C379 1.251 . S
O391 Nd360 2.424 . S
O391 C379 1.268 . S
H392 C364 0.930 . S
H393 C365 0.929 . S
H394 C367 0.930 . S
H395 C368 0.929 . S
H396 C373 0.930 . S
H397 C374 0.929 . S
H398 C376 0.930 . S
H399 C377 0.929 1_545 S
Nd400 C402 2.836 . S
Nd400 O420 2.500 . S
Nd400 O421 2.492 . S
Nd400 O422 2.487 . S
Nd400 O423 2.682 . S
Nd400 O424 2.410 . S
Nd400 O429 2.414 . S
Nd400 O431 2.424 . S
Nd401 C411 2.836 . S
Nd401 O423 2.414 . S
Nd401 O425 2.424 . S
Nd401 O426 2.500 . S
Nd401 O427 2.492 . S
Nd401 O428 2.487 . S
Nd401 O429 2.682 . S
Nd401 O430 2.410 . S
C402 Nd400 2.836 . S
C402 C403 1.498 . S
C402 O420 1.258 . S
C402 O421 1.239 . S
C403 C402 1.498 . S
C403 C404 1.366 . S
C403 C408 1.407 . S
C404 C403 1.366 . S
C404 C405 1.392 . S
C404 H432 0.930 . S
C405 C404 1.392 . S
C405 C406 1.398 . S
C405 H433 0.929 . S
C406 C405 1.398 . S
C406 C407 1.352 . S
C407 C406 1.352 . S
C407 C408 1.384 . S
C407 H434 0.930 . S
C408 C403 1.407 . S
C408 C407 1.384 . S
C408 H435 0.929 . S
C409 O422 1.241 . S
C409 O423 1.273 . S
C410 O424 1.251 . S
C410 O425 1.268 . S
C411 Nd401 2.836 . S
C411 C412 1.498 . S
C411 O426 1.258 . S
C411 O427 1.239 . S
C412 C411 1.498 . S
C412 C413 1.366 . S
C412 C417 1.407 . S
C413 C412 1.366 . S
C413 C414 1.392 . S
C413 H436 0.930 . S
C414 C413 1.392 . S
C414 C415 1.398 . S
C414 H437 0.929 . S
C415 C414 1.398 . S
C415 C416 1.352 . S
C416 C415 1.352 . S
C416 C417 1.384 . S
C416 H438 0.930 . S
C417 C412 1.407 . S
C417 C416 1.384 . S
C417 H439 0.929 . S
C418 O428 1.241 . S
C418 O429 1.273 . S
C419 O430 1.251 . S
C419 O431 1.268 . S
O420 Nd400 2.500 . S
O420 C402 1.258 . S
O421 Nd400 2.492 . S
O421 C402 1.239 . S
O422 Nd400 2.487 . S
O422 C409 1.241 . S
O423 Nd400 2.682 . S
O423 Nd401 2.414 . S
O423 C409 1.273 . S
O424 Nd400 2.410 . S
O424 C410 1.251 . S
O425 Nd401 2.424 . S
O425 C410 1.268 . S
O426 Nd401 2.500 . S
O426 C411 1.258 . S
O427 Nd401 2.492 . S
O427 C411 1.239 . S
O428 Nd401 2.487 . S
O428 C418 1.241 . S
O429 Nd400 2.414 . S
O429 Nd401 2.682 . S
O429 C418 1.273 . S
O430 Nd401 2.410 . S
O430 C419 1.251 . S
O431 Nd400 2.424 . S
O431 C419 1.268 . S
H432 C404 0.930 . S
H433 C405 0.929 . S
H434 C407 0.930 . S
H435 C408 0.929 . S
H436 C413 0.930 . S
H437 C414 0.929 . S
H438 C416 0.930 . S
H439 C417 0.929 . S
Nd440 C442 2.836 . S
Nd440 O460 2.500 . S
Nd440 O461 2.492 . S
Nd440 O462 2.487 . S
Nd440 O463 2.682 . S
Nd440 O464 2.410 . S
Nd440 O469 2.414 . S
Nd440 O471 2.424 . S
Nd441 C451 2.836 . S
Nd441 O463 2.414 . S
Nd441 O465 2.424 . S
Nd441 O466 2.500 . S
Nd441 O467 2.492 . S
Nd441 O468 2.487 . S
Nd441 O469 2.682 . S
Nd441 O470 2.410 . S
C442 Nd440 2.836 . S
C442 C443 1.498 . S
C442 O460 1.258 . S
C442 O461 1.239 . S
C443 C442 1.498 . S
C443 C444 1.366 . S
C443 C448 1.407 . S
C444 C443 1.366 . S
C444 C445 1.392 . S
C444 H472 0.930 . S
C445 C444 1.392 . S
C445 C446 1.398 . S
C445 H473 0.929 . S
C446 C445 1.398 . S
C446 C447 1.352 . S
C447 C446 1.352 . S
C447 C448 1.384 . S
C447 H474 0.930 . S
C448 C443 1.407 . S
C448 C447 1.384 . S
C448 H475 0.929 . S
C449 O462 1.241 . S
C449 O463 1.273 . S
C450 O464 1.251 . S
C450 O465 1.268 . S
C451 Nd441 2.836 . S
C451 C452 1.498 . S
C451 O466 1.258 . S
C451 O467 1.239 . S
C452 C451 1.498 . S
C452 C453 1.366 . S
C452 C457 1.407 . S
C453 C452 1.366 . S
C453 C454 1.392 . S
C453 H476 0.930 . S
C454 C453 1.392 . S
C454 C455 1.398 . S
C454 H477 0.929 . S
C455 C454 1.398 . S
C455 C456 1.352 . S
C456 C455 1.352 . S
C456 C457 1.384 . S
C456 H478 0.930 . S
C457 C452 1.407 . S
C457 C456 1.384 . S
C457 H479 0.929 . S
C458 O468 1.241 . S
C458 O469 1.273 . S
C459 O470 1.251 . S
C459 O471 1.268 . S
O460 Nd440 2.500 . S
O460 C442 1.258 . S
O461 Nd440 2.492 . S
O461 C442 1.239 . S
O462 Nd440 2.487 . S
O462 C449 1.241 . S
O463 Nd440 2.682 . S
O463 Nd441 2.414 . S
O463 C449 1.273 . S
O464 Nd440 2.410 . S
O464 C450 1.251 . S
O465 Nd441 2.424 . S
O465 C450 1.268 . S
O466 Nd441 2.500 . S
O466 C451 1.258 . S
O467 Nd441 2.492 . S
O467 C451 1.239 . S
O468 Nd441 2.487 . S
O468 C458 1.241 . S
O469 Nd440 2.414 . S
O469 Nd441 2.682 . S
O469 C458 1.273 . S
O470 Nd441 2.410 . S
O470 C459 1.251 . S
O471 Nd440 2.424 . S
O471 C459 1.268 . S
H472 C444 0.930 . S
H473 C445 0.929 . S
H474 C447 0.930 . S
H475 C448 0.929 . S
H476 C453 0.930 . S
H477 C454 0.929 . S
H478 C456 0.930 . S
H479 C457 0.929 . S
Nd480 C482 2.836 . S
Nd480 O500 2.500 . S
Nd480 O501 2.492 1_655 S
Nd480 O502 2.487 1_655 S
Nd480 O503 2.682 . S
Nd480 O504 2.410 . S
Nd480 O509 2.414 . S
Nd480 O511 2.424 1_655 S
Nd481 C491 2.836 . S
Nd481 O503 2.414 . S
Nd481 O505 2.424 . S
Nd481 O506 2.500 . S
Nd481 O507 2.492 . S
Nd481 O508 2.487 . S
Nd481 O509 2.682 . S
Nd481 O510 2.410 . S
C482 Nd480 2.836 . S
C482 C483 1.498 . S
C482 O500 1.258 . S
C482 O501 1.239 1_655 S
C483 C482 1.498 . S
C483 C484 1.366 . S
C483 C488 1.407 1_655 S
C484 C483 1.366 . S
C484 C485 1.392 . S
C484 H512 0.930 . S
C485 C484 1.392 . S
C485 C486 1.397 . S
C485 H513 0.929 . S
C486 C485 1.397 . S
C486 C487 1.353 1_655 S
C487 C486 1.353 1_455 S
C487 C488 1.384 . S
C487 H514 0.930 . S
C488 C483 1.407 1_455 S
C488 C487 1.384 . S
C488 H515 0.929 . S
C489 O502 1.241 . S
C489 O503 1.273 1_455 S
C490 O504 1.251 . S
C490 O505 1.268 . S
C491 Nd481 2.836 . S
C491 C492 1.498 . S
C491 O506 1.258 . S
C491 O507 1.239 . S
C492 C491 1.498 . S
C492 C493 1.366 . S
C492 C497 1.407 . S
C493 C492 1.366 . S
C493 C494 1.392 . S
C493 H516 0.930 . S
C494 C493 1.392 . S
C494 C495 1.398 . S
C494 H517 0.929 . S
C495 C494 1.398 . S
C495 C496 1.352 . S
C496 C495 1.352 . S
C496 C497 1.384 . S
C496 H518 0.930 . S
C497 C492 1.407 . S
C497 C496 1.384 . S
C497 H519 0.929 . S
C498 O508 1.241 . S
C498 O509 1.273 . S
C499 O510 1.251 . S
C499 O511 1.268 1_655 S
O500 Nd480 2.500 . S
O500 C482 1.258 . S
O501 Nd480 2.492 1_455 S
O501 C482 1.239 1_455 S
O502 Nd480 2.487 1_455 S
O502 C489 1.241 . S
O503 Nd480 2.682 . S
O503 Nd481 2.414 . S
O503 C489 1.273 1_655 S
O504 Nd480 2.410 . S
O504 C490 1.251 . S
O505 Nd481 2.424 . S
O505 C490 1.268 . S
O506 Nd481 2.500 . S
O506 C491 1.258 . S
O507 Nd481 2.492 . S
O507 C491 1.239 . S
O508 Nd481 2.487 . S
O508 C498 1.241 . S
O509 Nd480 2.414 . S
O509 Nd481 2.682 . S
O509 C498 1.273 . S
O510 Nd481 2.410 . S
O510 C499 1.251 . S
O511 Nd480 2.424 1_455 S
O511 C499 1.268 1_455 S
H512 C484 0.930 . S
H513 C485 0.929 . S
H514 C487 0.930 . S
H515 C488 0.929 . S
H516 C493 0.930 . S
H517 C494 0.929 . S
H518 C496 0.930 . S
H519 C497 0.929 . S
Nd520 C522 2.836 . S
Nd520 O540 2.500 . S
Nd520 O541 2.492 . S
Nd520 O542 2.487 . S
Nd520 O543 2.682 . S
Nd520 O544 2.410 . S
Nd520 O549 2.414 1_655 S
Nd520 O551 2.424 1_655 S
Nd521 C531 2.836 . S
Nd521 O543 2.414 1_455 S
Nd521 O545 2.424 1_455 S
Nd521 O546 2.500 . S
Nd521 O547 2.492 . S
Nd521 O548 2.487 . S
Nd521 O549 2.682 . S
Nd521 O550 2.410 . S
C522 Nd520 2.836 . S
C522 C523 1.498 . S
C522 O540 1.258 . S
C522 O541 1.239 . S
C523 C522 1.498 . S
C523 C524 1.366 . S
C523 C528 1.407 . S
C524 C523 1.366 . S
C524 C525 1.392 . S
C524 H552 0.930 . S
C525 C524 1.392 . S
C525 C526 1.398 . S
C525 H553 0.929 . S
C526 C525 1.398 . S
C526 C527 1.352 . S
C527 C526 1.352 . S
C527 C528 1.384 . S
C527 H554 0.930 . S
C528 C523 1.407 . S
C528 C527 1.384 . S
C528 H555 0.929 . S
C529 O542 1.241 . S
C529 O543 1.273 . S
C530 O544 1.251 . S
C530 O545 1.268 . S
C531 Nd521 2.836 . S
C531 C532 1.498 . S
C531 O546 1.258 . S
C531 O547 1.239 . S
C532 C531 1.498 . S
C532 C533 1.366 . S
C532 C537 1.407 . S
C533 C532 1.366 . S
C533 C534 1.392 . S
C533 H556 0.929 . S
C534 C533 1.392 . S
C534 C535 1.398 . S
C534 H557 0.929 1_554 S
C535 C534 1.398 . S
C535 C536 1.352 . S
C536 C535 1.352 . S
C536 C537 1.384 . S
C536 H558 0.930 . S
C537 C532 1.407 . S
C537 C536 1.384 . S
C537 H559 0.929 . S
C538 O548 1.241 . S
C538 O549 1.273 . S
C539 O550 1.251 . S
C539 O551 1.268 . S
O540 Nd520 2.500 . S
O540 C522 1.258 . S
O541 Nd520 2.492 . S
O541 C522 1.239 . S
O542 Nd520 2.487 . S
O542 C529 1.241 . S
O543 Nd520 2.682 . S
O543 Nd521 2.414 1_655 S
O543 C529 1.273 . S
O544 Nd520 2.410 . S
O544 C530 1.251 . S
O545 Nd521 2.424 1_655 S
O545 C530 1.268 . S
O546 Nd521 2.500 . S
O546 C531 1.258 . S
O547 Nd521 2.492 . S
O547 C531 1.239 . S
O548 Nd521 2.487 . S
O548 C538 1.241 . S
O549 Nd520 2.414 1_455 S
O549 Nd521 2.682 . S
O549 C538 1.273 . S
O550 Nd521 2.410 . S
O550 C539 1.251 . S
O551 Nd520 2.424 1_455 S
O551 C539 1.268 . S
H552 C524 0.930 . S
H553 C525 0.929 . S
H554 C527 0.930 . S
H555 C528 0.929 . S
H556 C533 0.929 . S
H557 C534 0.929 1_556 S
H558 C536 0.930 . S
H559 C537 0.929 . S
Nd560 C562 2.836 1_545 S
Nd560 O580 2.500 1_545 S
Nd560 O581 2.492 1_545 S
Nd560 O582 2.487 1_545 S
Nd560 O583 2.682 . S
Nd560 O584 2.410 1_545 S
Nd560 O589 2.414 . S
Nd560 O591 2.424 . S
Nd561 C571 2.836 . S
Nd561 O583 2.414 . S
Nd561 O585 2.424 1_545 S
Nd561 O586 2.500 . S
Nd561 O587 2.492 . S
Nd561 O588 2.487 . S
Nd561 O589 2.682 . S
Nd561 O590 2.410 . S
C562 Nd560 2.836 1_565 S
C562 C563 1.498 . S
C562 O580 1.258 . S
C562 O581 1.239 . S
C563 C562 1.498 . S
C563 C564 1.366 . S
C563 C568 1.407 . S
C564 C563 1.366 . S
C564 C565 1.392 . S
C564 H592 0.930 . S
C565 C564 1.392 . S
C565 C566 1.398 . S
C565 H593 0.929 . S
C566 C565 1.398 . S
C566 C567 1.352 . S
C567 C566 1.352 . S
C567 C568 1.384 . S
C567 H594 0.930 . S
C568 C563 1.407 . S
C568 C567 1.384 . S
C568 H595 0.929 . S
C569 O582 1.241 1_545 S
C569 O583 1.273 . S
C570 O584 1.251 . S
C570 O585 1.268 . S
C571 Nd561 2.836 . S
C571 C572 1.498 . S
C571 O586 1.258 . S
C571 O587 1.239 . S
C572 C571 1.498 . S
C572 C573 1.366 . S
C572 C577 1.407 . S
C573 C572 1.366 . S
C573 C574 1.392 . S
C573 H596 0.930 . S
C574 C573 1.392 . S
C574 C575 1.398 . S
C574 H597 0.929 . S
C575 C574 1.398 . S
C575 C576 1.352 . S
C576 C575 1.352 . S
C576 C577 1.384 . S
C576 H598 0.930 . S
C577 C572 1.407 . S
C577 C576 1.384 . S
C577 H599 0.929 . S
C578 O588 1.241 . S
C578 O589 1.273 . S
C579 O590 1.251 . S
C579 O591 1.268 . S
O580 Nd560 2.500 1_565 S
O580 C562 1.258 . S
O581 Nd560 2.492 1_565 S
O581 C562 1.239 . S
O582 Nd560 2.487 1_565 S
O582 C569 1.241 1_565 S
O583 Nd560 2.682 . S
O583 Nd561 2.414 . S
O583 C569 1.273 . S
O584 Nd560 2.410 1_565 S
O584 C570 1.251 . S
O585 Nd561 2.424 1_565 S
O585 C570 1.268 . S
O586 Nd561 2.500 . S
O586 C571 1.258 . S
O587 Nd561 2.492 . S
O587 C571 1.239 . S
O588 Nd561 2.487 . S
O588 C578 1.241 . S
O589 Nd560 2.414 . S
O589 Nd561 2.682 . S
O589 C578 1.273 . S
O590 Nd561 2.410 . S
O590 C579 1.251 . S
O591 Nd560 2.424 . S
O591 C579 1.268 . S
H592 C564 0.930 . S
H593 C565 0.929 . S
H594 C567 0.930 . S
H595 C568 0.929 . S
H596 C573 0.930 . S
H597 C574 0.929 . S
H598 C576 0.930 . S
H599 C577 0.929 . S
Nd600 C602 2.836 . S
Nd600 O620 2.500 1_554 S
Nd600 O621 2.492 . S
Nd600 O622 2.487 . S
Nd600 O623 2.682 . S
Nd600 O624 2.410 . S
Nd600 O629 2.414 1_554 S
Nd600 O631 2.424 . S
Nd601 C611 2.836 . S
Nd601 O623 2.414 . S
Nd601 O625 2.424 . S
Nd601 O626 2.500 . S
Nd601 O627 2.492 . S
Nd601 O628 2.487 1_554 S
Nd601 O629 2.682 1_554 S
Nd601 O630 2.410 . S
C602 Nd600 2.836 . S
C602 C603 1.498 . S
C602 O620 1.258 1_554 S
C602 O621 1.239 . S
C603 C602 1.498 . S
C603 C604 1.366 1_554 S
C603 C608 1.407 . S
C604 C603 1.366 1_556 S
C604 C605 1.392 . S
C604 H632 0.930 . S
C605 C604 1.392 . S
C605 C606 1.398 . S
C605 H633 0.929 . S
C606 C605 1.398 . S
C606 C607 1.352 1_556 S
C607 C606 1.352 1_554 S
C607 C608 1.384 . S
C607 H634 0.930 . S
C608 C603 1.407 . S
C608 C607 1.384 . S
C608 H635 0.929 . S
C609 O622 1.241 . S
C609 O623 1.273 . S
C610 O624 1.251 . S
C610 O625 1.268 . S
C611 Nd601 2.836 . S
C611 C612 1.498 . S
C611 O626 1.258 . S
C611 O627 1.239 . S
C612 C611 1.498 . S
C612 C613 1.366 . S
C612 C617 1.407 . S
C613 C612 1.366 . S
C613 C614 1.392 . S
C613 H636 0.930 . S
C614 C613 1.392 . S
C614 C615 1.398 . S
C614 H637 0.929 . S
C615 C614 1.398 . S
C615 C616 1.352 . S
C616 C615 1.352 . S
C616 C617 1.384 . S
C616 H638 0.930 . S
C617 C612 1.407 . S
C617 C616 1.384 . S
C617 H639 0.929 . S
C618 O628 1.241 . S
C618 O629 1.273 . S
C619 O630 1.251 . S
C619 O631 1.268 . S
O620 Nd600 2.500 1_556 S
O620 C602 1.258 1_556 S
O621 Nd600 2.492 . S
O621 C602 1.239 . S
O622 Nd600 2.487 . S
O622 C609 1.241 . S
O623 Nd600 2.682 . S
O623 Nd601 2.414 . S
O623 C609 1.273 . S
O624 Nd600 2.410 . S
O624 C610 1.251 . S
O625 Nd601 2.424 . S
O625 C610 1.268 . S
O626 Nd601 2.500 . S
O626 C611 1.258 . S
O627 Nd601 2.492 . S
O627 C611 1.239 . S
O628 Nd601 2.487 1_556 S
O628 C618 1.241 . S
O629 Nd600 2.414 1_556 S
O629 Nd601 2.682 1_556 S
O629 C618 1.273 . S
O630 Nd601 2.410 . S
O630 C619 1.251 . S
O631 Nd600 2.424 . S
O631 C619 1.268 . S
H632 C604 0.930 . S
H633 C605 0.929 . S
H634 C607 0.930 . S
H635 C608 0.929 . S
H636 C613 0.930 . S
H637 C614 0.929 . S
H638 C616 0.930 . S
H639 C617 0.929 . S
C640 C641 1.369 . S
C640 C642 1.419 . S
C640 H644 0.930 . S
C641 C640 1.369 . S
C641 C650 1.429 . S
C642 C640 1.419 . S
C642 C643 1.363 . S
C642 H645 0.929 . S
C643 C642 1.363 . S
C643 C649 1.428 . S
H644 C640 0.930 . S
H645 C642 0.929 . S
S646 N647 1.613 . S
S646 N648 1.610 . S
N647 S646 1.613 . S
N647 C650 1.350 . S
N648 S646 1.610 . S
N648 C649 1.351 . S
C649 C643 1.428 . S
C649 N648 1.351 . S
C649 C650 1.434 . S
C650 C641 1.429 . S
C650 N647 1.350 . S
C650 C649 1.434 . S
C651 C652 1.369 . S
C651 C653 1.419 . S
C651 H655 0.930 . S
C652 C651 1.369 . S
C652 C661 1.429 . S
C653 C651 1.419 . S
C653 C654 1.363 . S
C653 H656 0.929 1_455 S
C654 C653 1.363 . S
C654 C660 1.428 . S
H655 C651 0.930 . S
H656 C653 0.929 1_655 S
S657 N658 1.613 . S
S657 N659 1.610 . S
N658 S657 1.613 . S
N658 C661 1.350 . S
N659 S657 1.610 . S
N659 C660 1.351 . S
C660 C654 1.428 . S
C660 N659 1.351 . S
C660 C661 1.434 . S
C661 C652 1.429 . S
C661 N658 1.350 . S
C661 C660 1.434 . S
C662 C663 1.369 . S
C662 C664 1.419 . S
C662 H666 0.930 . S
C663 C662 1.369 . S
C663 C672 1.429 . S
C664 C662 1.419 . S
C664 C665 1.363 . S
C664 H667 0.929 . S
C665 C664 1.363 . S
C665 C671 1.428 . S
H666 C662 0.930 . S
H667 C664 0.929 . S
S668 N669 1.613 . S
S668 N670 1.610 . S
N669 S668 1.613 . S
N669 C672 1.350 1_455 S
N670 S668 1.610 . S
N670 C671 1.351 1_455 S
C671 C665 1.428 . S
C671 N670 1.351 1_655 S
C671 C672 1.434 . S
C672 C663 1.429 . S
C672 N669 1.350 1_655 S
C672 C671 1.434 . S
C673 C674 1.369 . S
C673 C675 1.419 . S
C673 H677 0.930 . S
C674 C673 1.369 . S
C674 C683 1.429 . S
C675 C673 1.419 . S
C675 C676 1.363 . S
C675 H678 0.929 . S
C676 C675 1.363 . S
C676 C682 1.428 . S
H677 C673 0.930 . S
H678 C675 0.929 . S
S679 N680 1.611 1_565 S
S679 N681 1.610 . S
N680 S679 1.611 1_545 S
N680 C683 1.354 . S
N681 S679 1.610 . S
N681 C682 1.351 1_565 S
C682 C676 1.428 . S
C682 N681 1.351 1_545 S
C682 C683 1.434 . S
C683 C674 1.429 . S
C683 N680 1.354 . S
C683 C682 1.434 . S
C684 C685 1.369 . S
C684 C686 1.419 . S
C684 H688 0.930 . S
C685 C684 1.369 . S
C685 C694 1.429 . S
C686 C684 1.419 . S
C686 C687 1.363 . S
C686 H689 0.929 . S
C687 C686 1.363 . S
C687 C693 1.428 . S
H688 C684 0.930 . S
H689 C686 0.929 . S
S690 N691 1.613 . S
S690 N692 1.610 . S
N691 S690 1.613 . S
N691 C694 1.350 . S
N692 S690 1.610 . S
N692 C693 1.351 . S
C693 C687 1.428 . S
C693 N692 1.351 . S
C693 C694 1.434 . S
C694 C685 1.429 . S
C694 N691 1.350 . S
C694 C693 1.434 . S
C695 C696 1.369 . S
C695 C697 1.419 . S
C695 H699 0.930 . S
C696 C695 1.369 . S
C696 C705 1.429 . S
C697 C695 1.419 . S
C697 C698 1.363 . S
C697 H700 0.929 . S
C698 C697 1.363 . S
C698 C704 1.428 . S
H699 C695 0.930 . S
H700 C697 0.929 . S
S701 N702 1.613 . S
S701 N703 1.610 . S
N702 S701 1.613 . S
N702 C705 1.350 . S
N703 S701 1.610 . S
N703 C704 1.351 . S
C704 C698 1.428 . S
C704 N703 1.351 . S
C704 C705 1.434 . S
C705 C696 1.429 . S
C705 N702 1.350 . S
C705 C704 1.434 . S
C706 C707 1.369 . S
C706 C708 1.419 . S
C706 H710 0.930 . S
C707 C706 1.369 . S
C707 C716 1.429 . S
C708 C706 1.419 . S
C708 C709 1.363 . S
C708 H711 0.929 . S
C709 C708 1.363 . S
C709 C715 1.428 . S
H710 C706 0.930 . S
H711 C708 0.929 . S
S712 N713 1.613 . S
S712 N714 1.610 . S
N713 S712 1.613 . S
N713 C716 1.350 . S
N714 S712 1.610 . S
N714 C715 1.351 . S
C715 C709 1.428 . S
C715 N714 1.351 . S
C715 C716 1.434 . S
C716 C707 1.429 . S
C716 N713 1.350 . S
C716 C715 1.434 . S
C717 C718 1.369 . S
C717 C719 1.419 . S
C717 H721 0.930 . S
C718 C717 1.369 . S
C718 C727 1.429 . S
C719 C717 1.419 . S
C719 C720 1.363 . S
C719 H722 0.929 . S
C720 C719 1.363 . S
C720 C726 1.428 . S
H721 C717 0.930 . S
H722 C719 0.929 . S
S723 N724 1.613 1_554 S
S723 N725 1.610 . S
N724 S723 1.613 1_556 S
N724 C727 1.350 . S
N725 S723 1.610 . S
N725 C726 1.351 1_554 S
C726 C720 1.428 . S
C726 N725 1.351 1_556 S
C726 C727 1.434 . S
C727 C718 1.429 . S
C727 N724 1.350 . S
C727 C726 1.434 . S
C728 C729 1.369 . S
C728 C730 1.419 . S
C728 H732 0.930 . S
C729 C728 1.369 . S
C729 C738 1.429 . S
C730 C728 1.419 . S
C730 C731 1.363 . S
C730 H733 0.929 . S
C731 C730 1.363 . S
C731 C737 1.428 . S
H732 C728 0.930 . S
H733 C730 0.929 . S
S734 N735 1.613 . S
S734 N736 1.610 . S
N735 S734 1.613 . S
N735 C738 1.350 . S
N736 S734 1.610 . S
N736 C737 1.351 . S
C737 C731 1.428 . S
C737 N736 1.351 . S
C737 C738 1.434 . S
C738 C729 1.429 . S
C738 N735 1.350 . S
C738 C737 1.434 . S
C739 C740 1.369 . S
C739 C741 1.419 . S
C739 H743 0.930 . S
C740 C739 1.369 . S
C740 C749 1.429 . S
C741 C739 1.419 . S
C741 C742 1.363 . S
C741 H744 0.929 . S
C742 C741 1.363 . S
C742 C748 1.428 . S
H743 C739 0.930 . S
H744 C741 0.929 . S
S745 N746 1.613 . S
S745 N747 1.610 . S
N746 S745 1.613 . S
N746 C749 1.350 . S
N747 S745 1.610 . S
N747 C748 1.351 . S
C748 C742 1.428 . S
C748 N747 1.351 . S
C748 C749 1.434 . S
C749 C740 1.429 . S
C749 N746 1.350 . S
C749 C748 1.434 . S
C750 C751 1.369 . S
C750 C752 1.419 . S
C750 H754 0.930 . S
C751 C750 1.369 . S
C751 C760 1.429 1_545 S
C752 C750 1.419 . S
C752 C753 1.363 . S
C752 H755 0.929 . S
C753 C752 1.363 . S
C753 C759 1.428 1_545 S
H754 C750 0.930 . S
H755 C752 0.929 . S
S756 N757 1.613 . S
S756 N758 1.610 . S
N757 S756 1.613 . S
N757 C760 1.350 . S
N758 S756 1.610 . S
N758 C759 1.351 . S
C759 C753 1.428 1_565 S
C759 N758 1.351 . S
C759 C760 1.434 . S
C760 C751 1.429 1_565 S
C760 N757 1.350 . S
C760 C759 1.434 . S
C761 C762 1.369 . S
C761 C763 1.419 . S
C761 H765 0.930 . S
C762 C761 1.369 . S
C762 C771 1.429 . S
C763 C761 1.419 . S
C763 C764 1.363 . S
C763 H766 0.929 . S
C764 C763 1.363 . S
C764 C770 1.428 . S
H765 C761 0.930 . S
H766 C763 0.929 . S
S767 N768 1.613 . S
S767 N769 1.610 . S
N768 S767 1.613 . S
N768 C771 1.350 . S
N769 S767 1.610 . S
N769 C770 1.351 . S
C770 C764 1.428 . S
C770 N769 1.351 . S
C770 C771 1.434 . S
C771 C762 1.429 . S
C771 N768 1.350 . S
C771 C770 1.434 . S
C772 C773 1.369 . S
C772 C774 1.419 . S
C772 H776 0.930 . S
C773 C772 1.369 . S
C773 C782 1.429 . S
C774 C772 1.419 . S
C774 C775 1.363 . S
C774 H777 0.929 . S
C775 C774 1.363 . S
C775 C781 1.428 . S
H776 C772 0.930 . S
H777 C774 0.929 . S
S778 N779 1.613 . S
S778 N780 1.610 . S
N779 S778 1.613 . S
N779 C782 1.350 . S
N780 S778 1.610 . S
N780 C781 1.351 . S
C781 C775 1.428 . S
C781 N780 1.351 . S
C781 C782 1.434 . S
C782 C773 1.429 . S
C782 N779 1.350 . S
C782 C781 1.434 . S
C783 C784 1.369 . S
C783 C785 1.419 . S
C783 H787 0.930 . S
C784 C783 1.369 . S
C784 C793 1.429 . S
C785 C783 1.419 . S
C785 C786 1.363 . S
C785 H788 0.929 . S
C786 C785 1.363 . S
C786 C792 1.428 . S
H787 C783 0.930 . S
H788 C785 0.929 . S
S789 N790 1.613 . S
S789 N791 1.610 . S
N790 S789 1.613 . S
N790 C793 1.350 . S
N791 S789 1.610 . S
N791 C792 1.351 . S
C792 C786 1.428 . S
C792 N791 1.351 . S
C792 C793 1.434 . S
C793 C784 1.429 . S
C793 N790 1.350 . S
C793 C792 1.434 . S
C794 C795 1.369 . S
C794 C796 1.419 . S
C794 H798 0.930 . S
C795 C794 1.369 . S
C795 C804 1.429 . S
C796 C794 1.419 . S
C796 C797 1.363 . S
C796 H799 0.929 . S
C797 C796 1.363 . S
C797 C803 1.428 . S
H798 C794 0.930 . S
H799 C796 0.929 . S
S800 N801 1.613 . S
S800 N802 1.610 . S
N801 S800 1.613 . S
N801 C804 1.350 . S
N802 S800 1.610 . S
N802 C803 1.351 . S
C803 C797 1.428 . S
C803 N802 1.351 . S
C803 C804 1.434 . S
C804 C795 1.429 . S
C804 N801 1.350 . S
C804 C803 1.434 . S
C805 C806 1.369 . S
C805 C807 1.419 . S
C805 H809 0.930 . S
C806 C805 1.369 . S
C806 C815 1.429 . S
C807 C805 1.419 . S
C807 C808 1.363 . S
C807 H810 0.929 . S
C808 C807 1.363 . S
C808 C814 1.428 . S
H809 C805 0.930 . S
H810 C807 0.929 . S
S811 N812 1.613 . S
S811 N813 1.610 . S
N812 S811 1.613 . S
N812 C815 1.350 . S
N813 S811 1.610 . S
N813 C814 1.351 . S
C814 C808 1.428 . S
C814 N813 1.351 . S
C814 C815 1.434 . S
C815 C806 1.429 . S
C815 N812 1.350 . S
C815 C814 1.434 . S
C816 C817 1.369 . S
C816 C818 1.419 . S
C816 H820 0.930 . S
C817 C816 1.369 . S
C817 C826 1.429 1_655 S
C818 C816 1.419 . S
C818 C819 1.363 1_655 S
C818 H821 0.929 . S
C819 C818 1.363 1_455 S
C819 C825 1.428 . S
H820 C816 0.930 . S
H821 C818 0.929 . S
S822 N823 1.613 . S
S822 N824 1.610 . S
N823 S822 1.613 . S
N823 C826 1.350 . S
N824 S822 1.610 . S
N824 C825 1.351 . S
C825 C819 1.428 . S
C825 N824 1.351 . S
C825 C826 1.434 . S
C826 C817 1.429 1_455 S
C826 N823 1.350 . S
C826 C825 1.434 . S
C827 C828 1.369 . S
C827 C829 1.419 . S
C827 H831 0.930 . S
C828 C827 1.369 . S
C828 C837 1.429 . S
C829 C827 1.419 . S
C829 C830 1.363 . S
C829 H832 0.929 . S
C830 C829 1.363 . S
C830 C836 1.428 . S
H831 C827 0.930 . S
H832 C829 0.929 . S
S833 N834 1.613 . S
S833 N835 1.610 . S
N834 S833 1.613 . S
N834 C837 1.350 . S
N835 S833 1.610 . S
N835 C836 1.351 . S
C836 C830 1.428 . S
C836 N835 1.351 . S
C836 C837 1.434 . S
C837 C828 1.429 . S
C837 N834 1.350 . S
C837 C836 1.434 . S
C838 C839 1.369 . S
C838 C840 1.419 . S
C838 H842 0.930 . S
C839 C838 1.369 . S
C839 C848 1.429 . S
C840 C838 1.419 . S
C840 C841 1.363 . S
C840 H843 0.929 . S
C841 C840 1.363 . S
C841 C847 1.428 . S
H842 C838 0.930 . S
H843 C840 0.929 . S
S844 N845 1.613 . S
S844 N846 1.610 . S
N845 S844 1.613 . S
N845 C848 1.350 . S
N846 S844 1.610 . S
N846 C847 1.351 . S
C847 C841 1.428 . S
C847 N846 1.351 . S
C847 C848 1.434 . S
C848 C839 1.429 . S
C848 N845 1.350 . S
C848 C847 1.434 . S
C849 C850 1.369 . S
C849 C851 1.419 . S
C849 H853 0.930 . S
C850 C849 1.369 . S
C850 C859 1.429 . S
C851 C849 1.419 . S
C851 C852 1.363 . S
C851 H854 0.929 . S
C852 C851 1.363 . S
C852 C858 1.428 . S
H853 C849 0.930 . S
H854 C851 0.929 . S
S855 N856 1.613 . S
S855 N857 1.610 . S
N856 S855 1.613 . S
N856 C859 1.350 . S
N857 S855 1.610 . S
N857 C858 1.351 . S
C858 C852 1.428 . S
C858 N857 1.351 . S
C858 C859 1.434 . S
C859 C850 1.429 . S
C859 N856 1.350 . S
C859 C858 1.434 . S
C860 C861 1.369 . S
C860 C862 1.419 . S
C860 H864 0.930 . S
C861 C860 1.369 . S
C861 C870 1.429 . S
C862 C860 1.419 . S
C862 C863 1.363 . S
C862 H865 0.929 . S
C863 C862 1.363 . S
C863 C869 1.428 . S
H864 C860 0.930 . S
H865 C862 0.929 . S
S866 N867 1.613 . S
S866 N868 1.610 . S
N867 S866 1.613 . S
N867 C870 1.350 . S
N868 S866 1.610 . S
N868 C869 1.351 . S
C869 C863 1.428 . S
C869 N868 1.351 . S
C869 C870 1.434 . S
C870 C861 1.429 . S
C870 N867 1.350 . S
C870 C869 1.434 . S
C871 C872 1.369 . S
C871 C873 1.419 . S
C871 H875 0.930 . S
C872 C871 1.369 . S
C872 C881 1.429 . S
C873 C871 1.419 . S
C873 C874 1.363 . S
C873 H876 0.929 . S
C874 C873 1.363 . S
C874 C880 1.428 . S
H875 C871 0.930 . S
H876 C873 0.929 . S
S877 N878 1.613 1_655 S
S877 N879 1.610 . S
N878 S877 1.613 1_455 S
N878 C881 1.350 . S
N879 S877 1.610 . S
N879 C880 1.351 1_655 S
C880 C874 1.428 . S
C880 N879 1.351 1_455 S
C880 C881 1.434 . S
C881 C872 1.429 . S
C881 N878 1.350 . S
C881 C880 1.434 . S
C882 C883 1.369 . S
C882 C884 1.419 . S
C882 H886 0.930 . S
C883 C882 1.369 . S
C883 C892 1.429 . S
C884 C882 1.419 . S
C884 C885 1.363 . S
C884 H887 0.929 . S
C885 C884 1.363 . S
C885 C891 1.428 . S
H886 C882 0.930 . S
H887 C884 0.929 . S
S888 N889 1.613 . S
S888 N890 1.610 . S
N889 S888 1.613 . S
N889 C892 1.350 1_655 S
N890 S888 1.610 . S
N890 C891 1.351 1_655 S
C891 C885 1.428 . S
C891 N890 1.351 1_455 S
C891 C892 1.434 . S
C892 C883 1.429 . S
C892 N889 1.350 1_455 S
C892 C891 1.434 . S
C893 C894 1.369 . S
C893 C895 1.419 . S
C893 H897 0.930 . S
C894 C893 1.369 . S
C894 C903 1.429 . S
C895 C893 1.419 . S
C895 C896 1.363 . S
C895 H898 0.929 . S
C896 C895 1.363 . S
C896 C902 1.428 . S
H897 C893 0.930 . S
H898 C895 0.929 . S
S899 N900 1.613 . S
S899 N901 1.610 . S
N900 S899 1.613 . S
N900 C903 1.350 . S
N901 S899 1.610 . S
N901 C902 1.351 . S
C902 C896 1.428 . S
C902 N901 1.351 . S
C902 C903 1.434 . S
C903 C894 1.429 . S
C903 N900 1.350 . S
C903 C902 1.434 . S
C904 C905 1.369 1_556 S
C904 C906 1.419 . S
C904 H908 0.930 1_556 S
C905 C904 1.369 1_554 S
C905 C914 1.429 1_554 S
C906 C904 1.419 . S
C906 C907 1.363 . S
C906 H909 0.929 . S
C907 C906 1.363 . S
C907 C913 1.428 . S
H908 C904 0.930 1_554 S
H909 C906 0.929 . S
S910 N911 1.613 . S
S910 N912 1.610 . S
N911 S910 1.613 . S
N911 C914 1.350 . S
N912 S910 1.610 . S
N912 C913 1.351 . S
C913 C907 1.428 . S
C913 N912 1.351 . S
C913 C914 1.434 . S
C914 C905 1.429 1_556 S
C914 N911 1.350 . S
C914 C913 1.434 . S
C915 C916 1.369 . S
C915 C917 1.419 . S
C915 H919 0.930 . S
C916 C915 1.369 . S
C916 C925 1.429 . S
C917 C915 1.419 . S
C917 C918 1.363 . S
C917 H920 0.929 . S
C918 C917 1.363 . S
C918 C924 1.428 . S
H919 C915 0.930 . S
H920 C917 0.929 . S
S921 N922 1.613 . S
S921 N923 1.610 . S
N922 S921 1.613 . S
N922 C925 1.350 . S
N923 S921 1.610 . S
N923 C924 1.351 . S
C924 C918 1.428 . S
C924 N923 1.351 . S
C924 C925 1.434 . S
C925 C916 1.429 . S
C925 N922 1.350 . S
C925 C924 1.434 . S
C926 C927 1.369 . S
C926 C928 1.419 . S
C926 H930 0.930 . S
C927 C926 1.369 . S
C927 C936 1.450 . S
C928 C926 1.419 . S
C928 C929 1.363 . S
C928 H931 0.929 . S
C929 C928 1.363 . S
C929 C935 1.428 . S
H930 C926 0.930 . S
H931 C928 0.929 . S
S932 N933 1.613 . S
S932 N934 1.610 . S
N933 S932 1.613 . S
N933 C936 1.324 1_565 S
N934 S932 1.610 . S
N934 C935 1.351 1_565 S
C935 C929 1.428 . S
C935 N934 1.351 1_545 S
C935 C936 1.437 . S
C936 C927 1.450 . S
C936 N933 1.324 1_545 S
C936 C935 1.437 . S
C937 C938 1.369 . S
C937 C939 1.419 . S
C937 H941 0.930 . S
C938 C937 1.369 . S
C938 C947 1.429 . S
C939 C937 1.419 . S
C939 C940 1.363 . S
C939 H942 0.929 . S
C940 C939 1.363 . S
C940 C946 1.428 . S
H941 C937 0.930 . S
H942 C939 0.929 . S
S943 N944 1.613 . S
S943 N945 1.610 . S
N944 S943 1.613 . S
N944 C947 1.350 . S
N945 S943 1.610 . S
N945 C946 1.351 . S
C946 C940 1.428 . S
C946 N945 1.351 . S
C946 C947 1.434 . S
C947 C938 1.429 . S
C947 N944 1.350 . S
C947 C946 1.434 . S
C948 C949 1.369 . S
C948 C950 1.419 . S
C948 H952 0.930 . S
C949 C948 1.369 . S
C949 C958 1.429 . S
C950 C948 1.419 . S
C950 C951 1.363 . S
C950 H953 0.929 . S
C951 C950 1.363 . S
C951 C957 1.428 . S
H952 C948 0.930 . S
H953 C950 0.929 . S
S954 N955 1.613 . S
S954 N956 1.610 . S
N955 S954 1.613 . S
N955 C958 1.350 . S
N956 S954 1.610 . S
N956 C957 1.351 . S
C957 C951 1.428 . S
C957 N956 1.351 . S
C957 C958 1.434 . S
C958 C949 1.429 . S
C958 N955 1.350 . S
C958 C957 1.434 . S
C959 C960 1.369 . S
C959 C961 1.419 . S
C959 H963 0.930 . S
C960 C959 1.369 . S
C960 C969 1.429 . S
C961 C959 1.419 . S
C961 C962 1.363 . S
C961 H964 0.929 . S
C962 C961 1.363 . S
C962 C968 1.428 . S
H963 C959 0.930 . S
H964 C961 0.929 . S
S965 N966 1.613 . S
S965 N967 1.610 . S
N966 S965 1.613 . S
N966 C969 1.350 . S
N967 S965 1.610 . S
N967 C968 1.351 . S
C968 C962 1.428 . S
C968 N967 1.351 . S
C968 C969 1.434 . S
C969 C960 1.429 . S
C969 N966 1.350 . S
C969 C968 1.434 . S
C970 C971 1.369 . S
C970 C972 1.419 . S
C970 H974 0.930 . S
C971 C970 1.369 . S
C971 C980 1.429 . S
C972 C970 1.419 . S
C972 C973 1.363 . S
C972 H975 0.929 1_455 S
C973 C972 1.363 . S
C973 C979 1.428 . S
H974 C970 0.930 . S
H975 C972 0.929 1_655 S
S976 N977 1.613 . S
S976 N978 1.610 . S
N977 S976 1.613 . S
N977 C980 1.350 . S
N978 S976 1.610 . S
N978 C979 1.351 . S
C979 C973 1.428 . S
C979 N978 1.351 . S
C979 C980 1.434 . S
C980 C971 1.429 . S
C980 N977 1.350 . S
C980 C979 1.434 . S
C981 C982 1.369 . S
C981 C983 1.419 . S
C981 H985 0.930 . S
C982 C981 1.369 . S
C982 C991 1.429 . S
C983 C981 1.419 . S
C983 C984 1.363 . S
C983 H986 0.929 . S
C984 C983 1.363 . S
C984 C990 1.428 . S
H985 C981 0.930 . S
H986 C983 0.929 . S
S987 N988 1.613 . S
S987 N989 1.610 . S
N988 S987 1.613 . S
N988 C991 1.350 . S
N989 S987 1.610 . S
N989 C990 1.351 . S
C990 C984 1.428 . S
C990 N989 1.351 . S
C990 C991 1.434 . S
C991 C982 1.429 . S
C991 N988 1.350 . S
C991 C990 1.434 . S
C992 C993 1.369 1_655 S
C992 C994 1.419 1_655 S
C992 H996 0.930 . S
C993 C992 1.369 1_455 S
C993 C1002 1.429 . S
C994 C992 1.419 1_455 S
C994 C995 1.363 . S
C994 H997 0.929 1_455 S
C995 C994 1.363 . S
C995 C1001 1.428 . S
H996 C992 0.930 . S
H997 C994 0.929 1_655 S
S998 N999 1.613 . S
S998 N1000 1.610 . S
N999 S998 1.613 . S
N999 C1002 1.350 . S
N1000 S998 1.610 . S
N1000 C1001 1.351 . S
C1001 C995 1.428 . S
C1001 N1000 1.351 . S
C1001 C1002 1.434 . S
C1002 C993 1.429 . S
C1002 N999 1.350 . S
C1002 C1001 1.434 . S
C1003 C1004 1.369 . S
C1003 C1005 1.419 . S
C1003 H1007 0.930 . S
C1004 C1003 1.369 . S
C1004 C1013 1.429 1_455 S
C1005 C1003 1.419 . S
C1005 C1006 1.363 . S
C1005 H1008 0.929 . S
C1006 C1005 1.363 . S
C1006 C1012 1.428 1_455 S
H1007 C1003 0.930 . S
H1008 C1005 0.929 . S
S1009 N1010 1.613 . S
S1009 N1011 1.610 . S
N1010 S1009 1.613 . S
N1010 C1013 1.350 . S
N1011 S1009 1.610 . S
N1011 C1012 1.351 . S
C1012 C1006 1.428 1_655 S
C1012 N1011 1.351 . S
C1012 C1013 1.434 . S
C1013 C1004 1.429 1_655 S
C1013 N1010 1.350 . S
C1013 C1012 1.434 . S
C1014 C1015 1.369 . S
C1014 C1016 1.419 . S
C1014 H1018 0.930 . S
C1015 C1014 1.369 . S
C1015 C1024 1.429 . S
C1016 C1014 1.419 . S
C1016 C1017 1.363 . S
C1016 H1019 0.929 . S
C1017 C1016 1.363 . S
C1017 C1023 1.428 . S
H1018 C1014 0.930 . S
H1019 C1016 0.929 . S
S1020 N1021 1.613 . S
S1020 N1022 1.610 . S
N1021 S1020 1.613 . S
N1021 C1024 1.350 . S
N1022 S1020 1.610 . S
N1022 C1023 1.351 . S
C1023 C1017 1.428 . S
C1023 N1022 1.351 . S
C1023 C1024 1.434 . S
C1024 C1015 1.429 . S
C1024 N1021 1.350 . S
C1024 C1023 1.434 . S
C1025 C1026 1.369 . S
C1025 C1027 1.419 . S
C1025 H1029 0.930 . S
C1026 C1025 1.369 . S
C1026 C1035 1.429 . S
C1027 C1025 1.419 . S
C1027 C1028 1.363 . S
C1027 H1030 0.929 . S
C1028 C1027 1.363 . S
C1028 C1034 1.428 . S
H1029 C1025 0.930 . S
H1030 C1027 0.929 . S
S1031 N1032 1.613 . S
S1031 N1033 1.610 . S
N1032 S1031 1.613 . S
N1032 C1035 1.350 . S
N1033 S1031 1.610 . S
N1033 C1034 1.351 . S
C1034 C1028 1.428 . S
C1034 N1033 1.351 . S
C1034 C1035 1.434 . S
C1035 C1026 1.429 . S
C1035 N1032 1.350 . S
C1035 C1034 1.434 . S
C1036 C1037 1.369 . S
C1036 C1038 1.419 . S
C1036 H1040 0.930 . S
C1037 C1036 1.369 . S
C1037 C1046 1.429 . S
C1038 C1036 1.419 . S
C1038 C1039 1.363 . S
C1038 H1041 0.929 . S
C1039 C1038 1.363 . S
C1039 C1045 1.428 . S
H1040 C1036 0.930 . S
H1041 C1038 0.929 . S
S1042 N1043 1.613 . S
S1042 N1044 1.610 . S
N1043 S1042 1.613 . S
N1043 C1046 1.350 . S
N1044 S1042 1.610 . S
N1044 C1045 1.351 . S
C1045 C1039 1.428 . S
C1045 N1044 1.351 . S
C1045 C1046 1.434 . S
C1046 C1037 1.429 . S
C1046 N1043 1.350 . S
C1046 C1045 1.434 . S
C1047 C1048 1.369 . S
C1047 C1049 1.419 . S
C1047 H1051 0.930 . S
C1048 C1047 1.369 . S
C1048 C1057 1.429 . S
C1049 C1047 1.419 . S
C1049 C1050 1.363 . S
C1049 H1052 0.929 . S
C1050 C1049 1.363 . S
C1050 C1056 1.428 . S
H1051 C1047 0.930 . S
H1052 C1049 0.929 . S
S1053 N1054 1.613 . S
S1053 N1055 1.610 . S
N1054 S1053 1.613 . S
N1054 C1057 1.350 . S
N1055 S1053 1.610 . S
N1055 C1056 1.351 . S
C1056 C1050 1.428 . S
C1056 N1055 1.351 . S
C1056 C1057 1.434 . S
C1057 C1048 1.429 . S
C1057 N1054 1.350 . S
C1057 C1056 1.434 . S
C1058 C1059 1.369 . S
C1058 C1060 1.419 . S
C1058 H1062 0.930 . S
C1059 C1058 1.369 . S
C1059 C1068 1.429 . S
C1060 C1058 1.419 . S
C1060 C1061 1.363 . S
C1060 H1063 0.929 . S
C1061 C1060 1.363 . S
C1061 C1067 1.428 . S
H1062 C1058 0.930 . S
H1063 C1060 0.929 . S
S1064 N1065 1.613 . S
S1064 N1066 1.610 . S
N1065 S1064 1.613 . S
N1065 C1068 1.350 . S
N1066 S1064 1.610 . S
N1066 C1067 1.351 . S
C1067 C1061 1.428 . S
C1067 N1066 1.351 . S
C1067 C1068 1.434 . S
C1068 C1059 1.429 . S
C1068 N1065 1.350 . S
C1068 C1067 1.434 . S
C1069 C1070 1.369 1_556 S
C1069 C1071 1.419 . S
C1069 H1073 0.930 1_556 S
C1070 C1069 1.369 1_554 S
C1070 C1079 1.418 1_554 S
C1071 C1069 1.419 . S
C1071 C1072 1.363 . S
C1071 H1074 0.929 . S
C1072 C1071 1.363 . S
C1072 C1078 1.428 . S
H1073 C1069 0.930 1_554 S
H1074 C1071 0.929 . S
S1075 N1076 1.613 1_556 S
S1075 N1077 1.610 . S
N1076 S1075 1.613 1_554 S
N1076 C1079 1.328 1_554 S
N1077 S1075 1.610 . S
N1077 C1078 1.351 . S
C1078 C1072 1.428 . S
C1078 N1077 1.351 . S
C1078 C1079 1.470 . S
C1079 C1070 1.418 1_556 S
C1079 N1076 1.328 1_556 S
C1079 C1078 1.470 . S
C1080 C1081 1.369 1_556 S
C1080 C1082 1.419 . S
C1080 H1084 0.930 . S
C1081 C1080 1.369 1_554 S
C1081 C1090 1.429 . S
C1082 C1080 1.419 . S
C1082 C1083 1.363 . S
C1082 H1085 0.929 . S
C1083 C1082 1.363 . S
C1083 C1089 1.428 . S
H1084 C1080 0.930 . S
H1085 C1082 0.929 . S
S1086 N1087 1.613 . S
S1086 N1088 1.614 1_554 S
N1087 S1086 1.613 . S
N1087 C1090 1.350 . S
N1088 S1086 1.614 1_556 S
N1088 C1089 1.348 . S
C1089 C1083 1.428 . S
C1089 N1088 1.348 . S
C1089 C1090 1.434 1_556 S
C1090 C1081 1.429 . S
C1090 N1087 1.350 . S
C1090 C1089 1.434 1_554 S
C1091 C1092 1.369 . S
C1091 C1093 1.419 . S
C1091 H1095 0.930 . S
C1092 C1091 1.369 . S
C1092 C1101 1.429 . S
C1093 C1091 1.419 . S
C1093 C1094 1.363 . S
C1093 H1096 0.929 . S
C1094 C1093 1.363 . S
C1094 C1100 1.428 . S
H1095 C1091 0.930 . S
H1096 C1093 0.929 . S
S1097 N1098 1.613 . S
S1097 N1099 1.610 . S
N1098 S1097 1.613 . S
N1098 C1101 1.350 . S
N1099 S1097 1.610 . S
N1099 C1100 1.351 . S
C1100 C1094 1.428 . S
C1100 N1099 1.351 . S
C1100 C1101 1.434 . S
C1101 C1092 1.429 . S
C1101 N1098 1.350 . S
C1101 C1100 1.434 . S
C1102 C1103 1.369 . S
C1102 C1104 1.419 . S
C1102 H1106 0.930 . S
C1103 C1102 1.369 . S
C1103 C1112 1.429 . S
C1104 C1102 1.419 . S
C1104 C1105 1.363 . S
C1104 H1107 0.929 . S
C1105 C1104 1.363 . S
C1105 C1111 1.428 . S
H1106 C1102 0.930 . S
H1107 C1104 0.929 . S
S1108 N1109 1.613 . S
S1108 N1110 1.610 . S
N1109 S1108 1.613 . S
N1109 C1112 1.350 . S
N1110 S1108 1.610 . S
N1110 C1111 1.351 . S
C1111 C1105 1.428 . S
C1111 N1110 1.351 . S
C1111 C1112 1.434 . S
C1112 C1103 1.429 . S
C1112 N1109 1.350 . S
C1112 C1111 1.434 . S
C1113 C1114 1.369 . S
C1113 C1115 1.419 . S
C1113 H1117 0.930 . S
C1114 C1113 1.369 . S
C1114 C1123 1.429 . S
C1115 C1113 1.419 . S
C1115 C1116 1.363 . S
C1115 H1118 0.929 . S
C1116 C1115 1.363 . S
C1116 C1122 1.428 1_455 S
H1117 C1113 0.930 . S
H1118 C1115 0.929 . S
S1119 N1120 1.613 . S
S1119 N1121 1.610 . S
N1120 S1119 1.613 . S
N1120 C1123 1.350 1_655 S
N1121 S1119 1.610 . S
N1121 C1122 1.351 . S
C1122 C1116 1.428 1_655 S
C1122 N1121 1.351 . S
C1122 C1123 1.434 1_655 S
C1123 C1114 1.429 . S
C1123 N1120 1.350 1_455 S
C1123 C1122 1.434 1_455 S
C1124 C1125 1.369 . S
C1124 C1126 1.419 . S
C1124 H1128 0.930 . S
C1125 C1124 1.369 . S
C1125 C1134 1.429 . S
C1126 C1124 1.419 . S
C1126 C1127 1.363 . S
C1126 H1129 0.929 . S
C1127 C1126 1.363 . S
C1127 C1133 1.428 . S
H1128 C1124 0.930 . S
H1129 C1126 0.929 . S
S1130 N1131 1.613 . S
S1130 N1132 1.610 . S
N1131 S1130 1.613 . S
N1131 C1134 1.350 . S
N1132 S1130 1.610 . S
N1132 C1133 1.351 . S
C1133 C1127 1.428 . S
C1133 N1132 1.351 . S
C1133 C1134 1.434 . S
C1134 C1125 1.429 . S
C1134 N1131 1.350 . S
C1134 C1133 1.434 . S
C1135 C1136 1.369 . S
C1135 C1137 1.419 . S
C1135 H1139 0.930 . S
C1136 C1135 1.369 . S
C1136 C1145 1.429 . S
C1137 C1135 1.419 . S
C1137 C1138 1.363 . S
C1137 H1140 0.929 . S
C1138 C1137 1.363 . S
C1138 C1144 1.428 . S
H1139 C1135 0.930 . S
H1140 C1137 0.929 . S
S1141 N1142 1.613 . S
S1141 N1143 1.610 . S
N1142 S1141 1.613 . S
N1142 C1145 1.350 . S
N1143 S1141 1.610 . S
N1143 C1144 1.351 . S
C1144 C1138 1.428 . S
C1144 N1143 1.351 . S
C1144 C1145 1.434 . S
C1145 C1136 1.429 . S
C1145 N1142 1.350 . S
C1145 C1144 1.434 . S
C1146 C1147 1.369 . S
C1146 C1148 1.419 . S
C1146 H1150 0.930 . S
C1147 C1146 1.369 . S
C1147 C1156 1.429 . S
C1148 C1146 1.419 . S
C1148 C1149 1.363 . S
C1148 H1151 0.929 . S
C1149 C1148 1.363 . S
C1149 C1155 1.428 . S
H1150 C1146 0.930 . S
H1151 C1148 0.929 . S
S1152 N1153 1.613 . S
S1152 N1154 1.610 . S
N1153 S1152 1.613 . S
N1153 C1156 1.350 . S
N1154 S1152 1.610 . S
N1154 C1155 1.351 . S
C1155 C1149 1.428 . S
C1155 N1154 1.351 . S
C1155 C1156 1.434 . S
C1156 C1147 1.429 . S
C1156 N1153 1.350 . S
C1156 C1155 1.434 . S
C1157 C1158 1.369 . S
C1157 C1159 1.419 . S
C1157 H1161 0.930 . S
C1158 C1157 1.369 . S
C1158 C1167 1.429 . S
C1159 C1157 1.419 . S
C1159 C1160 1.363 . S
C1159 H1162 0.929 . S
C1160 C1159 1.363 . S
C1160 C1166 1.428 . S
H1161 C1157 0.930 . S
H1162 C1159 0.929 . S
S1163 N1164 1.613 . S
S1163 N1165 1.610 . S
N1164 S1163 1.613 . S
N1164 C1167 1.350 . S
N1165 S1163 1.610 . S
N1165 C1166 1.351 . S
C1166 C1160 1.428 . S
C1166 N1165 1.351 . S
C1166 C1167 1.434 . S
C1167 C1158 1.429 . S
C1167 N1164 1.350 . S
C1167 C1166 1.434 . S
C641 C15 1.679 . S
C643 C59 1.824 . S
C652 C95 0.845 . S
C654 C46 0.855 . S
C663 C126 1.912 . S
C665 C98 1.891 . S
C674 C18 2.171 1_556 S
C676 C139 2.237 1_455 S
C685 C9 2.694 . S
C687 C370 2.593 . S
C696 C286 1.761 . S
C698 C50 1.923 . S
C707 C86 0.909 . S
C709 C415 1.062 . S
C718 C135 1.995 . S
C720 C529 1.976 1_556 S
C729 C329 1.498 . S
C731 C55 1.432 . S
C740 C495 2.073 . S
C742 C89 1.968 . S
C751 C569 2.314 . S
C753 C130 2.331 . S
C762 C6 2.534 . S
C764 C450 2.795 . S
C773 C19 1.988 . S
C775 C339 2.034 . S
C784 C498 2.769 . S
C786 C169 2.816 . S
C795 C210 2.202 . S
C797 C570 2.186 . S
C806 C449 1.888 . S
C808 C258 2.000 . S
C817 C99 2.074 . S
C819 C290 1.978 . S
C828 C369 2.130 . S
C830 C178 1.985 . S
C839 C249 2.975 . S
C841 C418 2.452 . S
C850 C209 2.777 1_455 S
C852 C455 2.622 . S
C861 C375 1.356 . S
C863 C206 1.186 . S
C872 C459 1.871 . S
C874 C295 1.706 . S
C883 C218 1.386 . S
C885 C166 1.360 . S
C894 C366 2.957 . S
C896 C335 2.378 . S
C905 C535 0.864 . S
C907 C446 0.990 . S
C916 C246 1.823 . S
C918 C215 2.104 . S
C927 C379 2.185 . S
C929 C578 2.231 . S
C938 C539 2.144 . S
C940 C10 1.935 . S
C949 C90 2.157 . S
C951 C579 2.013 . S
C960 C489 2.957 . S
C962 C58 3.055 . S
C971 C299 2.247 . S
C973 C219 2.387 1_455 S
C982 C138 2.539 . S
C984 C409 2.634 . S
C993 C486 2.077 1_455 S
C995 C538 1.976 . S
C1004 C298 1.643 . S
C1006 C499 1.651 1_455 S
C1015 C250 2.106 . S
C1017 C289 2.182 . S
C1026 C175 0.609 . S
C1028 C526 0.644 . S
C1037 C490 1.380 . S
C1039 C609 1.387 . S
C1048 C610 2.921 . S
C1050 C330 2.949 . S
C1059 C49 2.291 . S
C1061 C378 2.882 . S
C1070 C326 0.589 . S
C1072 C255 0.458 . S
C1081 C338 3.497 . S
C1083 C406 3.329 . S
C1092 C618 2.826 . S
C1094 C259 2.513 . S
C1103 C530 1.997 . S
C1105 C619 1.891 . S
C1114 C458 2.321 . S
C1116 C129 2.311 1_455 S
C1125 C419 2.452 . S
C1127 C575 2.260 . S
C1136 C410 2.590 . S
C1138 C606 2.278 . S
C1147 C170 1.394 . S
C1149 C566 1.314 . S
C1158 C615 2.049 . S
C1160 C179 2.273 . S
