# Generated by pormake.
# Topology snz, (6)-cn, num edge types: 1
# Building blocks:
#     Node 0, Type 0, BuildingBlock: BETFEN_clean_sbu_0, # of connection points: 6
#     Node 1, Type 0, BuildingBlock: BETFEN_clean_sbu_0, # of connection points: 6
#     Node 2, Type 0, BuildingBlock: BETFEN_clean_sbu_0, # of connection points: 6
#     Node 3, Type 0, BuildingBlock: BETFEN_clean_sbu_0, # of connection points: 6
#     Node 4, Type 0, BuildingBlock: BETFEN_clean_sbu_0, # of connection points: 6
#     Node 5, Type 0, BuildingBlock: BETFEN_clean_sbu_0, # of connection points: 6
#     Node 6, Type 0, BuildingBlock: BETFEN_clean_sbu_0, # of connection points: 6
#     Node 7, Type 0, BuildingBlock: BETFEN_clean_sbu_0, # of connection points: 6
#     Node 8, Type 0, BuildingBlock: BETFEN_clean_sbu_0, # of connection points: 6
#     Edge 9, Type (0, 0), BuildingBlock: CIFDUS_clean_linker_0, # of connection points: 2
#     Edge 10, Type (0, 0), BuildingBlock: CIFDUS_clean_linker_0, # of connection points: 2
#     Edge 11, Type (0, 0), BuildingBlock: CIFDUS_clean_linker_0, # of connection points: 2
#     Edge 12, Type (0, 0), BuildingBlock: CIFDUS_clean_linker_0, # of connection points: 2
#     Edge 13, Type (0, 0), BuildingBlock: CIFDUS_clean_linker_0, # of connection points: 2
#     Edge 14, Type (0, 0), BuildingBlock: CIFDUS_clean_linker_0, # of connection points: 2
#     Edge 15, Type (0, 0), BuildingBlock: CIFDUS_clean_linker_0, # of connection points: 2
#     Edge 16, Type (0, 0), BuildingBlock: CIFDUS_clean_linker_0, # of connection points: 2
#     Edge 17, Type (0, 0), BuildingBlock: CIFDUS_clean_linker_0, # of connection points: 2
#     Edge 18, Type (0, 0), BuildingBlock: CIFDUS_clean_linker_0, # of connection points: 2
#     Edge 19, Type (0, 0), BuildingBlock: CIFDUS_clean_linker_0, # of connection points: 2
#     Edge 20, Type (0, 0), BuildingBlock: CIFDUS_clean_linker_0, # of connection points: 2
#     Edge 21, Type (0, 0), BuildingBlock: CIFDUS_clean_linker_0, # of connection points: 2
#     Edge 22, Type (0, 0), BuildingBlock: CIFDUS_clean_linker_0, # of connection points: 2
#     Edge 23, Type (0, 0), BuildingBlock: CIFDUS_clean_linker_0, # of connection points: 2
#     Edge 24, Type (0, 0), BuildingBlock: CIFDUS_clean_linker_0, # of connection points: 2
#     Edge 25, Type (0, 0), BuildingBlock: CIFDUS_clean_linker_0, # of connection points: 2
#     Edge 26, Type (0, 0), BuildingBlock: CIFDUS_clean_linker_0, # of connection points: 2
#     Edge 27, Type (0, 0), BuildingBlock: CIFDUS_clean_linker_0, # of connection points: 2
#     Edge 28, Type (0, 0), BuildingBlock: CIFDUS_clean_linker_0, # of connection points: 2
#     Edge 29, Type (0, 0), BuildingBlock: CIFDUS_clean_linker_0, # of connection points: 2
#     Edge 30, Type (0, 0), BuildingBlock: CIFDUS_clean_linker_0, # of connection points: 2
#     Edge 31, Type (0, 0), BuildingBlock: CIFDUS_clean_linker_0, # of connection points: 2
#     Edge 32, Type (0, 0), BuildingBlock: CIFDUS_clean_linker_0, # of connection points: 2
#     Edge 33, Type (0, 0), BuildingBlock: CIFDUS_clean_linker_0, # of connection points: 2
#     Edge 34, Type (0, 0), BuildingBlock: CIFDUS_clean_linker_0, # of connection points: 2
#     Edge 35, Type (0, 0), BuildingBlock: CIFDUS_clean_linker_0, # of connection points: 2
# Relax obj value: 0.510
# Max RMSD: 0.276
# Mean RMSD: 0.182
data_MOF--net-snz--node1-BETFEN_clean_sbu_0--edge1-CIFDUS_clean_linker_0
_symmetry_space_group_name_H-M    P1
_symmetry_Int_Tables_number       1
_symmetry_cell_setting            triclinic
loop_
_symmetry_equiv_pos_as_xyz
'x, y, z'
_cell_length_a     61.362089
_cell_length_b     48.615191
_cell_length_c     14.00749
_cell_angle_alpha  95.87489
_cell_angle_beta   97.707142
_cell_angle_gamma 121.4714
loop_
_atom_site_label
_atom_site_type_symbol
_atom_site_fract_x
_atom_site_fract_y
_atom_site_fract_z
_atom_type_partial_charge
Pr0 Pr 0.13346 0.49632 0.29964 0.0
Pr1 Pr 0.09409 0.50476 0.30626 0.0
C2 C 0.16962 0.47976 0.32923 0.0
C3 C 0.17633 0.45781 0.37239 0.0
C4 C 0.19634 0.45517 0.34409 0.0
C5 C 0.20443 0.43633 0.38736 0.0
C6 C 0.19272 0.41956 0.46042 0.0
C7 C 0.17216 0.42161 0.48711 0.0
C8 C 0.1641 0.44066 0.44375 0.0
C9 C 0.12008 0.50596 0.10556 0.0
C10 C 0.07323 0.42846 0.23491 0.0
C11 C 0.05928 0.52341 0.30113 0.0
C12 C 0.0519 0.54474 0.25841 0.0
C13 C 1.02569 0.53543 0.24194 0.0
C14 C 1.01833 0.5559 0.20589 0.0
C15 C 1.03712 0.58639 0.18623 0.0
C16 C 0.06345 0.59556 0.20282 0.0
C17 C 0.0707 0.57486 0.23786 0.0
C18 C 0.10837 0.49435 0.49871 0.0
C19 C 0.15118 0.57317 0.33338 0.0
O20 O 0.16981 0.50215 0.38955 0.0
O21 O 0.15081 0.467 0.2509 0.0
O22 O 0.10365 0.48953 0.15744 0.0
O23 O 0.14373 0.51948 0.1575 0.0
O24 O 0.06636 0.44972 0.22914 0.0
O25 O 0.09787 0.43969 0.275 0.0
O26 O 0.05478 0.49749 0.24268 0.0
O27 O 0.08141 0.538 0.36555 0.0
O28 O 0.1242 0.51204 0.44727 0.0
O29 O 0.08474 0.47927 0.44572 0.0
O30 O 0.16036 0.55469 0.35262 0.0
O31 O 0.12611 0.55837 0.29437 0.0
H32 H 0.20601 0.4681 0.28904 0.0
H33 H 0.21991 0.43488 0.36326 0.0
H34 H 0.16274 0.4092 0.54329 0.0
H35 H 0.14863 0.44237 0.46691 0.0
H36 H 1.01084 0.51226 0.25719 0.0
H37 H 0.99781 0.54749 0.19201 0.0
H38 H 0.07856 0.61889 0.18955 0.0
H39 H 0.09102 0.58247 0.24942 0.0
Pr40 Pr 0.64274 0.51346 1.07626 0.0
Pr41 Pr 0.60355 0.52004 1.03525 0.0
C42 C 0.68963 0.51898 1.09806 0.0
C43 C 0.71525 0.53826 1.07077 0.0
C44 C 0.71711 0.54503 0.97598 0.0
C45 C 0.74166 0.56281 0.95185 0.0
C46 C 0.76486 0.5744 1.02211 0.0
C47 C 0.76285 0.56796 0.11731 0.0
C48 C 0.73833 0.55005 0.14118 0.0
C49 C 0.62387 0.51116 0.25612 0.0
C50 C 0.65736 0.58954 1.09867 0.0
C51 C 0.55775 0.51633 1.02507 0.0
C52 C 0.54171 0.51207 1.09809 0.0
C53 C 0.51556 0.5024 1.06853 0.0
C54 C 0.49978 0.49579 0.13737 0.0
C55 C 0.50995 0.49875 0.23685 0.0
C56 C 0.53636 0.50901 0.26616 0.0
C57 C 0.55205 0.51549 0.19734 0.0
C58 C 0.62134 0.52102 0.85299 0.0
C59 C 0.58798 0.44345 1.0219 0.0
O60 O 0.66925 0.49779 1.02835 0.0
O61 O 0.68427 0.53478 0.16165 0.0
O62 O 0.6265 0.53098 0.19825 0.0
O63 O 0.62921 0.49058 0.21699 0.0
O64 O 0.63333 0.5757 0.11095 0.0
O65 O 0.66447 0.56988 1.0643 0.0
O66 O 0.58042 0.54412 1.04287 0.0
O67 O 0.55918 0.4911 0.99637 0.0
O68 O 0.6194 0.50196 0.91273 0.0
O69 O 0.61516 0.54087 0.89011 0.0
O70 O 0.61244 0.45648 1.01489 0.0
O71 O 0.58075 0.46372 1.04836 0.0
H72 H 0.69963 0.53652 0.92048 0.0
H73 H 0.74248 0.56769 0.87826 0.0
H74 H 0.78023 0.57616 0.17293 0.0
H75 H 0.73737 0.54516 0.21477 0.0
H76 H 0.50725 0.49943 0.99204 0.0
H77 H 0.47958 0.48821 0.11268 0.0
H78 H 0.5447 0.51103 0.34174 0.0
H79 H 0.57213 0.52249 0.22117 0.0
Pr80 Pr 0.59464 0.04213 0.8199 0.0
Pr81 Pr 0.64208 0.09697 0.89047 0.0
C82 C 0.54351 0.99315 0.78669 0.0
C83 C 0.52452 0.98078 0.85054 0.0
C84 C 0.5067 0.94681 0.84053 0.0
C85 C 0.48911 0.93501 0.90283 0.0
C86 C 0.48895 0.95707 0.97558 0.0
C87 C 0.50688 0.99107 0.98549 0.0
C88 C 0.52458 1.00279 0.92409 0.0
C89 C 0.61609 0.06245 0.64919 0.0
C90 C 0.59513 0.10994 0.86424 0.0
C91 C 0.69406 0.14306 0.91421 0.0
C92 C 0.7189 0.14412 0.91673 0.0
C93 C 0.74113 0.166 0.99209 0.0
C94 C 0.76506 0.1686 0.99239 0.0
C95 C 0.76747 0.14954 0.91674 0.0
C96 C 0.74503 0.12722 0.84222 0.0
C97 C 0.72108 0.12445 0.84238 0.0
C98 C 0.62061 0.07781 1.06102 0.0
C99 C 0.63843 0.02628 0.88128 0.0
O100 O 0.56244 0.98813 0.80299 0.0
O101 O 0.55158 0.02259 0.77069 0.0
O102 O 0.61798 0.08146 0.72505 0.0
O103 O 0.60438 0.03266 0.66478 0.0
O104 O 0.6204 0.12508 0.86633 0.0
O105 O 0.58187 0.07844 0.86584 0.0
O106 O 0.6772 0.13068 0.83005 0.0
O107 O 0.6827 0.1347 0.98792 0.0
O108 O 0.61835 0.05816 0.98577 0.0
O109 O 0.6328 0.10774 1.04512 0.0
O110 O 0.61327 1.01352 0.86978 0.0
O111 O 0.65378 0.05748 0.87774 0.0
H112 H 0.50646 0.92942 0.78475 0.0
H113 H 0.47543 0.9087 0.89336 0.0
H114 H 0.50747 1.00861 1.04182 0.0
H115 H 0.53839 0.02912 0.93457 0.0
H116 H 0.74009 0.18153 1.05017 0.0
H117 H 0.78189 0.18622 1.05061 0.0
H118 H 0.74596 0.11176 0.78361 0.0
H119 H 0.70433 0.1071 0.78351 0.0
Pr120 Pr 0.80455 0.85602 0.31458 0.0
Pr121 Pr 0.76689 0.8681 0.31778 0.0
C122 C 0.83847 0.83682 0.34907 0.0
C123 C 0.85005 0.81717 0.33268 0.0
C124 C 0.87725 0.83302 0.36254 0.0
C125 C 0.8889 0.81489 0.36482 0.0
C126 C 0.87368 0.78024 0.3361 0.0
C127 C 0.8464 0.76448 0.30139 0.0
C128 C 0.83467 0.78277 0.30028 0.0
C129 C 0.79188 0.86576 0.119 0.0
C130 C 0.74447 0.78913 0.26254 0.0
C131 C 0.73327 0.88865 0.28929 0.0
C132 C 0.72576 0.90771 0.23278 0.0
C133 C 0.70049 0.90143 0.22557 0.0
C134 C 0.69277 0.91942 0.17501 0.0
C135 C 0.71014 0.94423 0.12987 0.0
C136 C 0.73552 0.95036 0.1368 0.0
C137 C 0.74325 0.93225 0.18765 0.0
C138 C 0.77961 0.85858 0.51335 0.0
C139 C 0.82727 0.93295 0.38418 0.0
O140 O 0.81622 0.82341 0.37681 0.0
O141 O 0.84279 0.86011 0.30049 0.0
O142 O 0.77538 0.85001 0.17126 0.0
O143 O 0.81534 0.87805 0.17055 0.0
O144 O 0.7372 0.81028 0.26854 0.0
O145 O 0.76956 0.80037 0.28123 0.0
O146 O 0.72846 0.86087 0.24231 0.0
O147 O 0.75537 0.9048 0.35432 0.0
O148 O 0.79601 0.87441 0.46085 0.0
O149 O 0.75612 0.84615 0.46195 0.0
O150 O 0.83187 0.91028 0.40165 0.0
O151 O 0.80383 0.92309 0.33346 0.0
H152 H 0.88946 0.85948 0.38913 0.0
H153 H 0.9098 0.82817 0.39437 0.0
H154 H 0.83399 0.73798 0.27728 0.0
H155 H 0.81356 0.76996 0.27715 0.0
H156 H 0.68671 0.88273 0.26019 0.0
H157 H 0.67328 0.9143 0.17322 0.0
H158 H 0.74939 0.96899 0.10236 0.0
H159 H 0.76285 0.93748 0.19201 0.0
Pr160 Pr 0.30307 0.84573 0.56279 0.0
Pr161 Pr 0.25969 0.84333 0.51378 0.0
C162 C 0.35172 0.85768 0.57454 0.0
C163 C 0.3679 0.86419 0.50103 0.0
C164 C 0.39237 0.86796 0.52376 0.0
C165 C 0.40811 0.8756 0.4545 0.0
C166 C 0.39962 0.87978 0.36174 0.0
C167 C 0.37484 0.8754 0.33898 0.0
C168 C 0.35912 0.86764 0.40793 0.0
C169 C 0.2837 0.84035 0.74221 0.0
C170 C 0.31007 0.918 0.58324 0.0
C171 C 0.2103 0.83057 0.4796 0.0
C172 C 0.18454 0.81144 0.50585 0.0
C173 C 0.17074 0.82655 0.52075 0.0
C174 C 0.14575 0.80875 0.54064 0.0
C175 C 0.13389 0.77531 0.54587 0.0
C176 C 0.14777 0.76015 0.53096 0.0
C177 C 0.17289 0.77807 0.51144 0.0
C178 C 0.281 0.85046 0.33874 0.0
C179 C 0.25325 0.77167 0.49774 0.0
O180 O 0.33076 0.82812 0.55874 0.0
O181 O 0.34721 0.88042 0.60078 0.0
O182 O 0.28257 0.85745 0.68011 0.0
O183 O 0.29388 0.82476 0.70917 0.0
O184 O 0.28503 0.90022 0.58373 0.0
O185 O 0.32109 0.90223 0.55742 0.0
O186 O 0.22967 0.85521 0.54576 0.0
O187 O 0.21762 0.81435 0.42766 0.0
O188 O 0.28025 0.8317 0.39783 0.0
O189 O 0.27256 0.8679 0.3748 0.0
O190 O 0.27772 0.78941 0.49037 0.0
O191 O 0.24249 0.78751 0.52662 0.0
H192 H 0.39944 0.86544 0.59539 0.0
H193 H 0.42719 0.87908 0.47443 0.0
H194 H 0.36759 0.878 0.26778 0.0
H195 H 0.3402 0.8647 0.38907 0.0
H196 H 0.1792 0.85213 0.51584 0.0
H197 H 0.13552 0.8211 0.55037 0.0
H198 H 0.13933 0.73455 0.53544 0.0
H199 H 0.18311 0.76578 0.50018 0.0
Pr200 Pr 0.26483 0.2688 0.69482 0.0
Pr201 Pr 0.30978 0.32065 0.75074 0.0
C202 C 0.21262 0.22378 0.67594 0.0
C203 C 0.18865 0.22382 0.68317 0.0
C204 C 0.16377 0.19515 0.64412 0.0
C205 C 0.14093 0.19452 0.65219 0.0
C206 C 0.14236 0.22266 0.6993 0.0
C207 C 0.16742 0.25148 0.73765 0.0
C208 C 0.19024 0.25201 0.73001 0.0
C209 C 0.2835 0.2805 0.51425 0.0
C210 C 0.26819 0.3374 0.67873 0.0
C211 C 0.36033 0.37084 0.77982 0.0
C212 C 0.37613 0.39 0.71315 0.0
C213 C 0.40346 0.40636 0.73812 0.0
C214 C 0.41834 0.42068 0.66929 0.0
C215 C 0.40607 0.41875 0.57412 0.0
C216 C 0.37867 0.40326 0.55081 0.0
C217 C 0.36383 0.3889 0.61954 0.0
C218 C 0.29046 0.30693 0.93037 0.0
C219 C 0.31044 0.25328 0.72581 0.0
O220 O 0.2302 0.23418 0.75712 0.0
O221 O 0.22321 0.23418 0.60204 0.0
O222 O 0.28652 0.30279 0.58271 0.0
O223 O 0.27295 0.25268 0.54421 0.0
O224 O 0.29193 0.34644 0.67247 0.0
O225 O 0.25411 0.30945 0.70664 0.0
O226 O 0.34176 0.37506 0.79687 0.0
O227 O 0.3527 0.33992 0.76305 0.0
O228 O 0.28875 0.28582 0.86167 0.0
O229 O 0.2997 0.33447 0.90003 0.0
O230 O 0.28492 0.23854 0.71678 0.0
O231 O 0.32438 0.28502 0.72933 0.0
H232 H 0.16197 0.17309 0.60752 0.0
H233 H 0.1221 0.17201 0.62047 0.0
H234 H 0.16946 0.27355 0.77544 0.0
H235 H 0.20913 0.27439 0.76161 0.0
H236 H 0.41321 0.40702 0.80959 0.0
H237 H 0.43934 0.43201 0.68932 0.0
H238 H 0.36862 0.40168 0.47874 0.0
H239 H 0.34268 0.37603 0.59855 0.0
Pr240 Pr 0.45135 0.18372 0.69211 0.0
Pr241 Pr 0.45561 0.17964 0.87584 0.0
C242 C 0.43866 0.19005 0.50856 0.0
C243 C 0.44187 0.22015 0.48163 0.0
C244 C 0.44949 0.24705 0.55658 0.0
C245 C 0.45876 0.27828 0.53538 0.0
C246 C 0.46055 0.28303 0.43886 0.0
C247 C 0.45018 0.25518 0.3627 0.0
C248 C 0.44112 0.22403 0.38414 0.0
C249 C 0.49321 0.2463 0.80437 0.0
C250 C 0.41381 0.19786 0.80411 0.0
C251 C 0.47734 0.18914 1.06553 0.0
C252 C 0.50022 0.22034 0.12412 0.0
C253 C 0.50487 0.22676 0.22665 0.0
C254 C 0.52327 0.25871 0.28009 0.0
C255 C 0.53695 0.28487 0.23148 0.0
C256 C 0.53396 0.27755 0.12925 0.0
C257 C 0.51576 0.24551 1.07609 0.0
C258 C 0.41526 0.11568 0.76348 0.0
C259 C 0.49192 0.16467 0.76197 0.0
O260 O 0.42129 0.17594 0.56118 0.0
O261 O 0.46059 0.19246 0.54269 0.0
O262 O 0.47094 0.22935 0.82472 0.0
O263 O 0.49461 0.23013 0.72893 0.0
O264 O 0.43213 0.20547 0.88112 0.0
O265 O 0.41355 0.18215 0.72169 0.0
O266 O 0.45625 0.18943 1.03865 0.0
O267 O 0.48214 0.17539 0.9937 0.0
O268 O 0.43718 0.13448 0.74316 0.0
O269 O 0.41336 0.12993 0.84264 0.0
O270 O 0.47198 0.1542 0.688 0.0
O271 O 0.49381 0.18373 0.8403 0.0
H272 H 0.45018 0.24441 0.63264 0.0
H273 H 0.4668 0.29917 0.59549 0.0
H274 H 0.45167 0.2579 0.28762 0.0
H275 H 0.4354 0.20359 0.32561 0.0
H276 H 0.49308 0.2077 0.26485 0.0
H277 H 0.52461 0.26342 0.3586 0.0
H278 H 0.54389 0.2971 1.08974 0.0
H279 H 0.51252 0.24086 0.99667 0.0
Pr280 Pr 0.95155 0.16389 0.85837 0.0
Pr281 Pr 0.95443 0.20169 0.72986 0.0
C282 C 0.95164 0.13261 1.00595 0.0
C283 C 0.97417 0.13528 1.06856 0.0
C284 C 0.99673 0.14377 1.0322 0.0
C285 C 1.0209 0.15754 1.09705 0.0
C286 C 1.02267 0.16253 0.1989 0.0
C287 C 0.99936 0.14928 0.23393 0.0
C288 C 0.9753 0.13611 0.16915 0.0
C289 C 0.92625 0.12259 0.66966 0.0
C290 C 0.90192 0.17338 0.81104 0.0
C291 C 0.96344 0.23772 0.58906 0.0
C292 C 0.98828 0.26137 0.56452 0.0
C293 C 0.98873 0.26548 0.46738 0.0
C294 C 1.01225 0.27884 0.43594 0.0
C295 C 1.03558 0.28774 0.50119 0.0
C296 C 1.03557 0.28811 0.60173 0.0
C297 C 1.012 0.27461 0.63301 0.0
C298 C 0.97948 0.24209 0.91991 0.0
C299 C 1.00317 0.19059 0.77101 0.0
O300 O 0.94614 0.11905 0.91365 0.0
O301 O 0.95108 0.15925 1.01774 0.0
O302 O 0.92297 0.1451 0.70347 0.0
O303 O 0.94533 0.12435 0.72815 0.0
O304 O 0.91075 0.18127 0.73127 0.0
O305 O 0.91613 0.16964 0.88173 0.0
O306 O 0.95724 0.20728 0.57279 0.0
O307 O 0.9597 0.24639 0.67344 0.0
O308 O 0.98306 0.22011 0.88387 0.0
O309 O 0.96032 0.24048 0.86227 0.0
O310 O 0.99464 0.18235 0.85066 0.0
O311 O 0.98932 0.1956 0.70333 0.0
H312 H 0.99619 0.14262 0.95436 0.0
H313 H 1.03847 0.16746 1.0681 0.0
H314 H 1.0 0.15293 0.31212 0.0
H315 H 0.95813 0.12956 0.19855 0.0
H316 H 0.97061 0.25546 0.41368 0.0
H317 H 1.01133 0.2781 0.35789 0.0
H318 H 0.05322 0.29516 0.654 0.0
H319 H 1.01204 0.2717 0.70872 0.0
Pr320 Pr 0.93964 0.64393 0.72757 0.0
Pr321 Pr 0.95311 0.70531 0.80423 0.0
C322 C 0.92839 0.58602 0.62583 0.0
C323 C 0.91466 0.56881 0.5234 0.0
C324 C 0.89114 0.56621 0.48494 0.0
C325 C 0.88615 0.56965 0.38834 0.0
C326 C 0.90509 0.57665 0.33245 0.0
C327 C 0.92442 0.57006 0.36189 0.0
C328 C 0.92932 0.56626 0.45826 0.0
C329 C 0.95973 0.65738 0.93178 0.0
C330 C 0.99857 0.70483 0.72369 0.0
C331 C 0.96152 0.76148 0.90684 0.0
C332 C 0.96446 0.77116 1.01339 0.0
C333 C 0.98607 0.77583 1.07918 0.0
C334 C 0.98277 0.76518 0.16771 0.0
C335 C 0.95793 0.75017 0.19041 0.0
C336 C 0.93892 0.75412 0.13765 0.0
C337 C 0.94218 0.76462 1.04869 0.0
C338 C 0.93316 0.69184 0.60013 0.0
C339 C 0.89526 0.64583 0.80945 0.0
O340 O 0.91444 0.58804 0.68532 0.0
O341 O 0.9505 0.61406 0.63469 0.0
O342 O 0.96974 0.67696 0.87504 0.0
O343 O 0.93761 0.63167 0.88455 0.0
O344 O 0.995 0.71945 0.79806 0.0
O345 O 0.97842 0.67666 0.67028 0.0
O346 O 0.98014 0.75904 0.88046 0.0
O347 O 0.93837 0.73653 0.86067 0.0
O348 O 0.92311 0.67216 0.65661 0.0
O349 O 0.95559 0.71724 0.64703 0.0
O350 O 0.89812 0.63332 0.72827 0.0
O351 O 0.91628 0.67157 0.86866 0.0
H352 H 0.87891 0.56703 0.53277 0.0
H353 H 0.87059 0.57366 0.36578 0.0
H354 H 0.93886 0.5745 0.3184 0.0
H355 H 0.94717 0.56734 0.48588 0.0
H356 H 1.00409 0.78252 1.05611 0.0
H357 H 0.99824 0.76365 0.2087 0.0
H358 H 0.91996 0.74409 0.15634 0.0
H359 H 0.92562 0.7623 1.00101 0.0
H360 H 0.15391 0.53083 0.97384 0.0
H361 H 0.0718 0.46988 0.97312 0.0
H362 H 0.06109 0.4606 0.79288 0.0
H363 H 0.07452 0.46929 0.63032 0.0
H364 H 0.15662 0.5305 0.63113 0.0
H365 H 0.16733 0.53966 0.81135 0.0
C366 C 0.13357 0.51553 0.93492 0.0
C367 C 0.11379 0.50126 0.99114 0.0
C368 C 0.12736 0.51008 0.82853 0.0
C369 C 0.0877 0.4815 0.93548 0.0
C370 C 0.0815 0.47607 0.83087 0.0
C371 C 0.09486 0.48462 0.66926 0.0
C372 C 0.11464 0.49901 0.6131 0.0
C373 C 0.10106 0.4901 0.77567 0.0
C374 C 0.14072 0.51884 0.66876 0.0
C375 C 0.14692 0.52418 0.77335 0.0
H376 H 0.61723 0.55377 0.70279 0.0
H377 H 0.62797 0.47498 0.74925 0.0
H378 H 0.62929 0.46474 0.57549 0.0
H379 H 0.62755 0.47779 0.40576 0.0
H380 H 0.61694 0.55672 0.3599 0.0
H381 H 0.61534 0.56668 0.53327 0.0
C382 C 0.61991 0.5343 0.6756 0.0
C383 C 0.62252 0.51529 0.74287 0.0
C384 C 0.62064 0.52834 0.57314 0.0
C385 C 0.6259 0.49027 0.7025 0.0
C386 C 0.62665 0.48432 0.60172 0.0
C387 C 0.62483 0.49722 0.43302 0.0
C388 C 0.62237 0.51639 0.36601 0.0
C389 C 0.62404 0.5031 0.5355 0.0
C390 C 0.61892 0.54134 0.40646 0.0
C391 C 0.61803 0.54714 0.50704 0.0
H392 H 0.60324 0.02088 0.4658 0.0
H393 H 0.63493 0.12253 0.59097 0.0
H394 H 0.6388 0.13604 0.42742 0.0
H395 H 0.63336 0.11961 0.24439 0.0
H396 H 0.60154 1.01788 0.11949 0.0
H397 H 0.59765 1.00442 0.28296 0.0
C398 C 0.61108 0.04612 0.45815 0.0
C399 C 0.61881 0.07053 0.54465 0.0
C400 C 0.61323 0.05393 0.36139 0.0
C401 C 0.62877 0.10289 0.52902 0.0
C402 C 0.63098 0.11071 0.43405 0.0
C403 C 0.62548 0.09436 0.2521 0.0
C404 C 0.61775 0.06992 0.16567 0.0
C405 C 0.62328 0.08656 0.34889 0.0
C406 C 0.60771 0.03755 0.18137 0.0
C407 C 0.60549 0.02975 0.27629 0.0
H408 H 0.74587 0.83516 0.64588 0.0
H409 H 0.82807 0.89106 0.64419 0.0
H410 H 0.83896 0.89838 0.82387 0.0
H411 H 0.82567 0.88928 0.98656 0.0
H412 H 0.74346 0.83351 0.98818 0.0
H413 H 0.73258 0.8262 0.80854 0.0
C414 C 0.76627 0.84896 0.68415 0.0
C415 C 0.78602 0.86241 0.62744 0.0
C416 C 0.77258 0.85329 0.79021 0.0
C417 C 0.81218 0.88019 0.68225 0.0
C418 C 0.81849 0.88446 0.78652 0.0
C419 C 0.80527 0.87551 0.94827 0.0
C420 C 0.78552 0.86206 1.00496 0.0
C421 C 0.79896 0.87122 0.84222 0.0
C422 C 0.75935 0.84435 0.95015 0.0
C423 C 0.75305 0.84009 0.84589 0.0
H424 H 0.2939 0.81323 0.89825 0.0
H425 H 0.26925 0.87921 0.83834 0.0
H426 H 0.26666 0.88849 1.01085 0.0
H427 H 0.27123 0.87823 0.18327 0.0
H428 H 0.29572 0.81206 0.24271 0.0
H429 H 0.29855 0.80305 1.07049 0.0
C430 C 0.28789 0.82967 0.92222 0.0
C431 C 0.28175 0.84536 0.85156 0.0
C432 C 0.28644 0.83509 1.02398 0.0
C433 C 0.27411 0.86653 0.8878 0.0
C434 C 0.27264 0.87194 0.98786 0.0
C435 C 0.27727 0.86182 0.15923 0.0
C436 C 0.28324 0.84593 0.22964 0.0
C437 C 0.27876 0.85645 1.05746 0.0
C438 C 0.29091 0.8248 0.19335 0.0
C439 C 0.29253 0.81957 1.09348 0.0
H440 H 0.28094 0.25598 1.04219 0.0
H441 H 0.29794 0.35482 1.07712 0.0
H442 H 0.29815 0.35698 0.25198 0.0
H443 H 0.29352 0.33141 0.40273 0.0
H444 H 0.27616 0.23243 0.36799 0.0
H445 H 0.27622 0.23034 0.19314 0.0
C446 C 0.28463 0.27809 1.08726 0.0
C447 C 0.28941 0.30528 1.04142 0.0
C448 C 0.28476 0.2794 0.19184 0.0
C449 C 0.29415 0.33326 0.10589 0.0
C450 C 0.29431 0.33462 0.20798 0.0
C451 C 0.28981 0.30929 0.35768 0.0
C452 C 0.28485 0.28204 0.40344 0.0
C453 C 0.28969 0.30796 0.25318 0.0
C454 C 0.28007 0.25401 0.33913 0.0
C455 C 0.28006 0.25271 0.23709 0.0
H456 H 0.51013 0.32563 0.54313 0.0
H457 H 0.45541 0.31471 0.29224 0.0
H458 H 0.48956 0.33557 0.19868 0.0
H459 H 0.52351 0.32584 0.16923 0.0
H460 H 0.57177 0.32127 0.41097 0.0
H461 H 0.55382 0.33999 0.52733 0.0
C462 C 0.50608 0.3298 0.47003 0.0
C463 C 0.47992 0.3159 0.42098 0.0
C464 C 0.52506 0.33806 0.41367 0.0
C465 C 0.47523 0.32352 0.32935 0.0
C466 C 0.49473 0.3349 0.27513 0.0
C467 C 0.53131 0.33099 0.24771 0.0
C468 C 0.5466 0.31881 0.28215 0.0
C469 C 0.51828 0.33751 0.31252 0.0
C470 C 0.55847 0.32834 0.38294 0.0
C471 C 0.54767 0.33833 0.44957 0.0
H472 H 0.05788 0.2552 0.5593 0.0
H473 H 0.05759 0.31295 0.346 0.0
H474 H 0.06572 0.28084 0.22747 0.0
H475 H 0.0533 0.22427 0.17067 0.0
H476 H 0.0464 0.16279 0.38029 0.0
H477 H 0.06235 0.20897 0.51493 0.0
C478 C 0.06136 0.26238 0.48952 0.0
C479 C 0.05568 0.28519 0.45961 0.0
C480 C 0.06412 0.24226 0.41988 0.0
C481 C 0.06079 0.29453 0.36934 0.0
C482 C 0.06517 0.27588 0.30109 0.0
C483 C 0.0569 0.22154 0.24604 0.0
C484 C 0.0472 0.18983 0.26609 0.0
C485 C 0.06385 0.24753 0.32253 0.0
C486 C 0.0529 0.18682 0.36345 0.0
C487 C 0.06163 0.21322 0.4406 0.0
H488 H 0.94803 0.63671 0.3939 0.0
H489 H 0.87662 0.57962 0.16966 0.0
H490 H 0.88551 0.63004 0.11359 0.0
H491 H 0.91362 0.68972 0.13001 0.0
H492 H 0.98453 0.74664 0.35754 0.0
H493 H 0.97536 0.69634 0.41334 0.0
C494 C 0.93479 0.63518 0.33076 0.0
C495 C 0.91218 0.60453 0.28317 0.0
C496 C 0.93953 0.66411 0.30214 0.0
C497 C 0.89451 0.60293 0.20484 0.0
C498 C 0.89941 0.63172 0.17416 0.0
C499 C 0.92673 0.69139 0.19364 0.0
C500 C 0.94963 0.722 0.24029 0.0
C501 C 0.92169 0.66242 0.22326 0.0
C502 C 0.96678 0.72342 0.32066 0.0
C503 C 0.96168 0.69469 0.35182 0.0
H504 H 0.21691 0.32078 0.6425 0.0
H505 H 0.29578 0.39927 0.64435 0.0
H506 H 0.27959 0.43154 0.58107 0.0
H507 H 0.24329 0.43723 0.51918 0.0
H508 H 0.16399 0.35917 0.51187 0.0
H509 H 0.18006 0.3275 0.58433 0.0
C510 C 0.23054 0.34508 0.62997 0.0
C511 C 0.25759 0.35742 0.64815 0.0
C512 C 0.22102 0.36368 0.59212 0.0
C513 C 0.2749 0.38895 0.63089 0.0
C514 C 0.26565 0.40752 0.59446 0.0
C515 C 0.22942 0.41319 0.53267 0.0
C516 C 0.20239 0.4006 0.50887 0.0
C517 C 0.23877 0.39501 0.57349 0.0
C518 C 0.1849 0.36968 0.52962 0.0
C519 C 0.19409 0.35143 0.57067 0.0
H520 H 0.64811 0.6385 0.15094 0.0
H521 H 0.71002 0.62413 0.10675 0.0
H522 H 0.74192 0.68345 0.15408 0.0
H523 H 0.75283 0.73993 0.20952 0.0
H524 H 0.69113 0.75521 0.24853 0.0
H525 H 0.65898 0.69566 0.20218 0.0
C526 C 0.66857 0.64831 0.15136 0.0
C527 C 0.67643 0.62639 0.12498 0.0
C528 C 0.68705 0.68292 0.17816 0.0
C529 C 0.70315 0.63997 0.12607 0.0
C530 C 0.72153 0.6741 0.15351 0.0
C531 C 0.73235 0.73035 0.20812 0.0
C532 C 0.72464 0.75247 0.23332 0.0
C533 C 0.7138 0.69588 0.18 0.0
C534 C 0.69785 0.73916 0.22984 0.0
C535 C 0.67937 0.70492 0.20324 0.0
H536 H 0.47758 0.90787 1.07664 0.0
H537 H 0.45852 0.97945 1.02259 0.0
H538 H 0.42897 0.96151 0.13579 0.0
H539 H 0.40935 0.92649 0.25305 0.0
H540 H 0.42866 0.85532 0.30996 0.0
H541 H 0.45738 0.87214 0.1932 0.0
C542 C 0.46673 0.91926 1.08903 0.0
C543 C 0.47023 0.94495 1.04139 0.0
C544 C 0.44996 0.90904 0.15512 0.0
C545 C 0.45633 0.95983 1.05908 0.0
C546 C 0.43939 0.94953 0.12357 0.0
C547 C 0.41963 0.91441 0.23911 0.0
C548 C 0.41681 0.88962 0.28989 0.0
C549 C 0.43617 0.92432 0.17242 0.0
C550 C 0.43066 0.87465 0.2724 0.0
C551 C 0.44698 0.88415 0.20534 0.0
H552 H 0.54706 0.08472 0.74952 0.0
H553 H 0.61012 0.17268 0.95106 0.0
H554 H 0.58407 0.19767 0.93711 0.0
H555 H 0.54225 0.19345 0.87128 0.0
H556 H 0.48131 0.10694 0.65802 0.0
H557 H 0.50757 0.08268 0.67212 0.0
C558 C 0.55518 0.10944 0.79027 0.0
C559 C 0.58046 0.12663 0.85237 0.0
C560 C 0.54038 0.12395 0.77943 0.0
C561 C 0.59078 0.15885 0.90304 0.0
C562 C 0.57581 0.17309 0.89511 0.0
C563 C 0.53484 0.16943 0.82712 0.0
C564 C 0.50965 0.15205 0.76367 0.0
C565 C 0.55044 0.15578 0.83405 0.0
C566 C 0.50056 0.12103 0.70679 0.0
C567 C 0.51556 0.10701 0.71531 0.0
H568 H 0.97392 0.29053 1.00213 0.0
H569 H 1.03092 0.26419 1.00272 0.0
H570 H 0.06493 0.3184 0.10552 0.0
H571 H 0.07931 0.37575 0.18573 0.0
H572 H 1.0207 0.39981 0.18199 0.0
H573 H 0.98703 0.34465 1.09184 0.0
C574 C 0.99371 0.2964 1.02559 0.0
C575 C 0.9997 0.27312 0.9937 0.0
C576 C 1.01319 0.32769 1.08434 0.0
C577 C 1.02556 0.2814 1.02579 0.0
C578 C 0.04511 0.3126 1.08445 0.0
C579 C 0.05913 0.36878 0.16648 0.0
C580 C 0.05292 0.39258 0.19074 0.0
C581 C 0.03933 0.33635 0.11292 0.0
C582 C 1.02646 0.38263 0.16433 0.0
C583 C 1.00699 0.35085 0.11229 0.0
H584 H 0.88229 0.663 0.97512 0.0
H585 H 0.84913 0.59317 0.69891 0.0
H586 H 0.80616 0.5657 0.73913 0.0
H587 H 0.77797 0.56024 0.85401 0.0
H588 H 0.81072 0.62911 0.13189 0.0
H589 H 0.85378 0.6577 1.09068 0.0
C590 C 0.86567 0.64176 0.92392 0.0
C591 C 0.86908 0.63016 0.83438 0.0
C592 C 0.84088 0.62571 0.94802 0.0
C593 C 0.84722 0.60268 0.7685 0.0
C594 C 0.82255 0.58687 0.79143 0.0
C595 C 0.79443 0.58175 0.90513 0.0
C596 C 0.79099 0.59247 0.99583 0.0
C597 C 0.81915 0.59804 0.88109 0.0
C598 C 0.81277 0.62007 1.06189 0.0
C599 C 0.83741 0.63656 1.03818 0.0
H600 H 1.00747 0.66747 0.9343 0.0
H601 H 0.94656 0.63452 1.09755 0.0
H602 H 0.96721 0.61286 0.20051 0.0
H603 H 0.99915 0.59673 0.22813 0.0
H604 H 0.05673 0.62415 1.04934 0.0
H605 H 0.04114 0.65479 0.96984 0.0
C606 C 0.99923 0.65651 0.99458 0.0
C607 C 0.97573 0.6529 1.00938 0.0
C608 C 1.01037 0.64245 1.0494 0.0
C609 C 0.96484 0.6379 1.0859 0.0
C610 C 0.97648 0.62517 0.14384 0.0
C611 C 1.00832 0.60935 0.17173 0.0
C612 C 1.02902 0.60769 0.14459 0.0
C613 C 0.99864 0.6261 0.12348 0.0
C614 C 0.04099 0.62506 1.07295 0.0
C615 C 1.03194 0.64249 1.02665 0.0
H616 H 0.59178 0.3947 0.92197 0.0
H617 H 0.53926 0.40874 1.06441 0.0
H618 H 0.50594 0.34963 1.01624 0.0
H619 H 0.49046 0.29323 0.92597 0.0
H620 H 0.54287 0.2806 0.77817 0.0
H621 H 0.57687 0.33888 0.83565 0.0
C622 C 0.57315 0.38487 0.94337 0.0
C623 C 0.56833 0.40662 0.99726 0.0
C624 C 0.55368 0.35063 0.91354 0.0
C625 C 0.54377 0.39299 1.02298 0.0
C626 C 0.52456 0.35898 0.99517 0.0
C627 C 0.50936 0.3032 0.90686 0.0
C628 C 0.51383 0.28214 0.847 0.0
C629 C 0.52907 0.33744 0.93928 0.0
C630 C 0.53859 0.29589 0.82335 0.0
C631 C 0.5582 0.32943 0.85638 0.0
H632 H 0.8799 0.16858 0.97362 0.0
H633 H 0.86481 0.16559 0.6615 0.0
H634 H 0.82238 0.15741 0.66622 0.0
H635 H 0.78947 0.15206 0.75794 0.0
H636 H 0.80401 0.15607 1.07039 0.0
H637 H 0.8464 0.16311 1.06651 0.0
C638 C 0.86728 0.16602 0.90667 0.0
C639 C 0.87579 0.16778 0.81735 0.0
C640 C 0.84267 0.16163 0.90982 0.0
C641 C 0.85907 0.16456 0.73154 0.0
C642 C 0.83465 0.1598 0.73397 0.0
C643 C 0.80175 0.15413 0.82518 0.0
C644 C 0.79333 0.1534 0.91426 0.0
C645 C 0.82624 0.1584 0.82257 0.0
C646 C 0.80993 0.1568 1.00078 0.0
C647 C 0.8342 0.16069 0.99855 0.0
H648 H 0.68912 0.04769 0.96677 0.0
H649 H 0.61193 0.95962 0.8592 0.0
H650 H 0.62759 0.92652 0.92102 0.0
H651 H 0.66232 0.9226 1.01408 0.0
H652 H 0.73917 1.01056 0.12933 0.0
H653 H 0.7247 0.04329 1.0548 0.0
C654 C 0.67584 0.0212 0.95555 0.0
C655 C 0.64931 1.00626 0.90834 0.0
C656 C 0.68488 1.00217 0.99326 0.0
C657 C 0.63238 0.97189 0.89537 0.0
C658 C 0.64132 0.95287 0.93099 0.0
C659 C 0.67595 0.94896 1.02346 0.0
C660 C 0.70181 0.96395 1.07831 0.0
C661 C 0.66737 0.96779 0.98178 0.0
C662 C 0.71923 0.99811 1.08712 0.0
C663 C 0.7109 1.01697 1.04496 0.0
H664 H 0.19984 0.72751 0.45371 0.0
H665 H 0.2724 0.73185 0.48047 0.0
H666 H 0.24816 0.6717 0.43375 0.0
H667 H 0.20572 0.6168 0.38332 0.0
H668 H 0.13366 0.61406 0.35065 0.0
H669 H 0.15802 0.6736 0.40023 0.0
C670 C 0.21041 0.71536 0.44995 0.0
C671 C 0.23807 0.73458 0.47163 0.0
C672 C 0.19626 0.68054 0.42081 0.0
C673 C 0.2512 0.71801 0.46464 0.0
C674 C 0.23728 0.68342 0.43769 0.0
C675 C 0.19535 0.62922 0.38668 0.0
C676 C 0.16761 0.61035 0.36178 0.0
C677 C 0.20971 0.66424 0.41514 0.0
C678 C 0.15481 0.62739 0.36726 0.0
C679 C 0.16881 0.66174 0.39655 0.0
H680 H 0.46006 0.44597 0.21092 0.0
H681 H 0.52173 0.53137 0.42607 0.0
H682 H 0.49481 0.51481 0.5485 0.0
H683 H 0.45415 0.47524 0.59566 0.0
H684 H 0.39297 0.3893 0.38059 0.0
H685 H 0.41899 0.40742 0.25645 0.0
C686 C 0.46746 0.46125 0.28412 0.0
C687 C 0.4929 0.48984 0.30924 0.0
C688 C 0.45192 0.45153 0.35423 0.0
C689 C 0.50234 0.50904 0.40507 0.0
C690 C 0.48692 0.49965 0.47504 0.0
C691 C 0.44654 0.46043 0.52171 0.0
C692 C 0.42159 0.43096 0.49775 0.0
C693 C 0.46178 0.47075 0.45075 0.0
C694 C 0.4119 0.41234 0.40099 0.0
C695 C 0.42687 0.42254 0.32997 0.0
H696 H 0.95005 0.7373 0.48568 0.0
H697 H 0.87957 0.65715 0.5443 0.0
H698 H 0.85375 0.67517 0.45515 0.0
H699 H 0.85287 0.71966 0.38823 0.0
H700 H 0.92312 0.79727 0.31833 0.0
H701 H 0.94728 0.7741 0.38418 0.0
C702 C 0.92891 0.72295 0.47549 0.0
C703 C 0.91686 0.69616 0.52247 0.0
C704 C 0.91421 0.7335 0.42438 0.0
C705 C 0.88943 0.67798 0.50931 0.0
C706 C 0.87465 0.68845 0.45893 0.0
C707 C 0.87321 0.73103 0.38399 0.0
C708 C 0.88628 0.76116 0.35191 0.0
C709 C 0.88704 0.71711 0.42014 0.0
C710 C 0.9127 0.77504 0.34686 0.0
C711 C 0.92657 0.76162 0.38374 0.0
H712 H 0.36459 0.07034 0.77899 0.0
H713 H 0.42706 0.07827 0.64973 0.0
H714 H 0.40071 1.01899 0.58296 0.0
H715 H 0.35999 0.96387 0.56283 0.0
H716 H 0.29643 0.95616 0.6837 0.0
H717 H 0.32274 1.01549 0.75049 0.0
C718 C 0.37242 0.05912 0.73604 0.0
C719 C 0.39805 0.07916 0.72044 0.0
C720 C 0.35681 0.02465 0.69569 0.0
C721 C 0.40756 0.06385 0.66349 0.0
C722 C 0.39244 0.02974 0.62512 0.0
C723 C 0.35177 0.97513 0.60324 0.0
C724 C 0.32602 0.95504 0.61777 0.0
C725 C 0.36703 1.00973 0.64088 0.0
C726 C 0.31598 0.97058 0.6704 0.0
C727 C 0.33114 1.00471 0.70924 0.0
H728 H 0.04701 0.24048 0.72346 0.0
H729 H 1.01363 0.14377 0.79057 0.0
H730 H 0.05305 0.14461 0.77264 0.0
H731 H 0.09736 0.17296 0.74018 0.0
H732 H 0.13221 0.27102 0.68143 0.0
H733 H 0.09279 0.27019 0.69836 0.0
C734 C 0.04839 0.21957 0.73324 0.0
C735 C 1.02724 0.19184 0.75667 0.0
C736 C 0.07165 0.22069 0.72601 0.0
C737 C 1.02954 0.16526 0.77178 0.0
C738 C 0.05212 0.16575 0.76164 0.0
C739 C 0.09624 0.194 0.72947 0.0
C740 C 0.1179 0.22191 0.70875 0.0
C741 C 0.07333 0.1933 0.73872 0.0
C742 C 0.1161 0.24922 0.69802 0.0
C743 C 0.09336 0.24867 0.70685 0.0
H744 H 0.36433 0.17148 0.68834 0.0
H745 H 0.42249 0.25164 0.92546 0.0
H746 H 0.39567 0.2751 0.92303 0.0
H747 H 0.35668 0.2747 0.84889 0.0
H748 H 0.29625 0.19273 0.62212 0.0
H749 H 0.32259 0.16808 0.62555 0.0
C750 C 0.37101 0.19392 0.74008 0.0
C751 C 0.39565 0.20979 0.80685 0.0
C752 C 0.355 0.20703 0.73996 0.0
C753 C 0.40373 0.23873 0.87367 0.0
C754 C 0.38839 0.25229 0.87203 0.0
C755 C 0.34911 0.25122 0.80082 0.0
C756 C 0.32449 0.2357 0.73487 0.0
C757 C 0.36414 0.23692 0.80491 0.0
C758 C 0.31498 0.20516 0.6739 0.0
C759 C 0.33018 0.19118 0.67556 0.0
H760 H 0.82401 0.98842 0.41698 0.0
H761 H 0.87902 0.95824 0.44739 0.0
H762 H 0.91409 1.01377 0.53033 0.0
H763 H 0.92937 0.07035 0.60468 0.0
H764 H 0.87567 0.10235 0.58065 0.0
H765 H 0.84046 0.04753 0.48503 0.0
C766 C 0.84373 0.99412 0.4406 0.0
C767 C 0.84854 0.96862 0.42564 0.0
C768 C 0.86427 0.0267 0.49032 0.0
C769 C 0.87437 0.97684 0.45784 0.0
C770 C 0.89464 1.00882 0.50564 0.0
C771 C 0.91005 0.06557 0.57768 0.0
C772 C 0.90537 0.09074 0.60042 0.0
C773 C 0.88982 0.03383 0.52385 0.0
C774 C 0.88006 0.08373 0.5643 0.0
C775 C 0.85981 0.05218 0.50987 0.0
H776 H 1.01622 0.68121 0.58592 0.0
H777 H 0.04049 0.76597 0.80898 0.0
H778 H 0.08387 0.79456 0.77421 0.0
H779 H 0.11535 0.79617 0.68213 0.0
H780 H 0.09258 0.71238 0.4591 0.0
H781 H 0.04861 0.68278 0.49318 0.0
C782 C 1.03103 0.7059 0.62683 0.0
C783 C 1.02493 0.72127 0.70008 0.0
C784 C 0.05637 0.72246 0.60692 0.0
C785 C 0.04445 0.75333 0.75243 0.0
C786 C 0.0694 0.76985 0.73263 0.0
C787 C 0.10074 0.77152 0.64032 0.0
C788 C 0.10728 0.75667 0.5678 0.0
C789 C 0.07559 0.75473 0.66018 0.0
C790 C 0.08818 0.72438 0.5159 0.0
C791 C 0.06296 0.70749 0.535 0.0
loop_
_geom_bond_atom_site_label_1
_geom_bond_atom_site_label_2
_geom_bond_distance
_geom_bond_site_symmetry_2
_ccdc_geom_bond_type
Pr0 C2 2.880 . S
Pr0 O20 2.562 . S
Pr0 O21 2.490 . S
Pr0 O22 2.695 1_554 S
Pr0 O23 2.512 1_554 S
Pr0 O25 2.437 . S
Pr0 O28 2.436 . S
Pr0 O30 2.438 . S
Pr1 C11 2.865 1_455 S
Pr1 O22 2.436 1_554 S
Pr1 O24 2.438 . S
Pr1 O26 2.562 1_554 S
Pr1 O27 2.490 1_455 S
Pr1 O28 2.695 . S
Pr1 O29 2.512 . S
Pr1 O31 2.437 . S
C2 Pr0 2.880 . S
C2 C3 1.491 . S
C2 O20 1.254 . S
C2 O21 1.225 . S
C3 C2 1.491 . S
C3 C4 1.392 . S
C3 C8 1.356 . S
C4 C3 1.392 . S
C4 C5 1.368 . S
C4 H32 0.929 . S
C5 C4 1.368 . S
C5 C6 1.386 . S
C5 H33 0.929 . S
C6 C5 1.386 . S
C6 C7 1.373 . S
C7 C6 1.373 . S
C7 C8 1.409 . S
C7 H34 0.931 . S
C8 C3 1.356 . S
C8 C7 1.409 . S
C8 H35 0.930 . S
C9 O22 1.270 . S
C9 O23 1.248 . S
C10 O24 1.267 . S
C10 O25 1.278 . S
C11 Pr1 2.865 1_655 S
C11 C12 1.506 . S
C11 O26 1.237 1_654 S
C11 O27 1.228 . S
C12 C11 1.506 . S
C12 C13 1.392 . S
C12 C17 1.354 1_654 S
C13 C12 1.392 . S
C13 C14 1.368 . S
C13 H36 0.929 . S
C14 C13 1.368 . S
C14 C15 1.386 1_554 S
C14 H37 0.929 . S
C15 C14 1.386 1_556 S
C15 C16 1.373 . S
C16 C15 1.373 . S
C16 C17 1.395 1_655 S
C16 H38 0.931 . S
C17 C12 1.354 1_456 S
C17 C16 1.395 1_455 S
C17 H39 0.946 . S
C18 O28 1.270 . S
C18 O29 1.248 . S
C19 O30 1.267 . S
C19 O31 1.278 . S
O20 Pr0 2.562 . S
O20 C2 1.254 . S
O21 Pr0 2.490 . S
O21 C2 1.225 . S
O22 Pr0 2.695 1_556 S
O22 Pr1 2.436 1_556 S
O22 C9 1.270 . S
O23 Pr0 2.512 1_556 S
O23 C9 1.248 . S
O24 Pr1 2.438 . S
O24 C10 1.267 . S
O25 Pr0 2.437 . S
O25 C10 1.278 . S
O26 Pr1 2.562 1_556 S
O26 C11 1.237 1_456 S
O27 Pr1 2.490 1_655 S
O27 C11 1.228 . S
O28 Pr0 2.436 . S
O28 Pr1 2.695 . S
O28 C18 1.270 . S
O29 Pr1 2.512 . S
O29 C18 1.248 . S
O30 Pr0 2.438 . S
O30 C19 1.267 . S
O31 Pr1 2.437 . S
O31 C19 1.278 . S
H32 C4 0.929 . S
H33 C5 0.929 . S
H34 C7 0.931 . S
H35 C8 0.930 . S
H36 C13 0.929 . S
H37 C14 0.929 . S
H38 C16 0.931 . S
H39 C17 0.946 . S
Pr40 C42 2.880 . S
Pr40 O60 2.562 . S
Pr40 O61 2.490 . S
Pr40 O62 2.695 . S
Pr40 O63 2.512 . S
Pr40 O65 2.437 . S
Pr40 O68 2.436 . S
Pr40 O70 2.438 . S
Pr41 C51 2.880 . S
Pr41 O62 2.436 . S
Pr41 O64 2.438 . S
Pr41 O66 2.562 . S
Pr41 O67 2.490 . S
Pr41 O68 2.695 . S
Pr41 O69 2.512 1_554 S
Pr41 O71 2.437 . S
C42 Pr40 2.880 . S
C42 C43 1.491 . S
C42 O60 1.254 . S
C42 O61 1.225 . S
C43 C42 1.491 . S
C43 C44 1.392 . S
C43 C48 1.356 . S
C44 C43 1.392 . S
C44 C45 1.368 . S
C44 H72 0.929 . S
C45 C44 1.368 . S
C45 C46 1.386 . S
C45 H73 0.929 . S
C46 C45 1.386 . S
C46 C47 1.373 . S
C47 C46 1.373 . S
C47 C48 1.409 . S
C47 H74 0.931 . S
C48 C43 1.356 . S
C48 C47 1.409 . S
C48 H75 0.930 . S
C49 O62 1.270 . S
C49 O63 1.248 . S
C50 O64 1.267 . S
C50 O65 1.278 . S
C51 Pr41 2.880 . S
C51 C52 1.491 . S
C51 O66 1.254 . S
C51 O67 1.225 . S
C52 C51 1.491 . S
C52 C53 1.392 . S
C52 C57 1.356 . S
C53 C52 1.392 . S
C53 C54 1.368 . S
C53 H76 0.929 . S
C54 C53 1.368 . S
C54 C55 1.386 . S
C54 H77 0.929 . S
C55 C54 1.386 . S
C55 C56 1.373 . S
C56 C55 1.373 . S
C56 C57 1.409 . S
C56 H78 0.931 . S
C57 C52 1.356 . S
C57 C56 1.409 . S
C57 H79 0.930 . S
C58 O68 1.270 1_556 S
C58 O69 1.248 . S
C59 O70 1.267 . S
C59 O71 1.278 . S
O60 Pr40 2.562 . S
O60 C42 1.254 . S
O61 Pr40 2.490 . S
O61 C42 1.225 . S
O62 Pr40 2.695 . S
O62 Pr41 2.436 . S
O62 C49 1.270 . S
O63 Pr40 2.512 . S
O63 C49 1.248 . S
O64 Pr41 2.438 . S
O64 C50 1.267 . S
O65 Pr40 2.437 . S
O65 C50 1.278 . S
O66 Pr41 2.562 . S
O66 C51 1.254 . S
O67 Pr41 2.490 . S
O67 C51 1.225 . S
O68 Pr40 2.436 . S
O68 Pr41 2.695 . S
O68 C58 1.270 1_554 S
O69 Pr41 2.512 1_556 S
O69 C58 1.248 . S
O70 Pr40 2.438 . S
O70 C59 1.267 . S
O71 Pr41 2.437 . S
O71 C59 1.278 . S
H72 C44 0.929 . S
H73 C45 0.929 . S
H74 C47 0.931 . S
H75 C48 0.930 . S
H76 C53 0.929 . S
H77 C54 0.929 . S
H78 C56 0.931 . S
H79 C57 0.930 . S
Pr80 C82 2.880 . S
Pr80 O100 2.562 . S
Pr80 O101 2.490 . S
Pr80 O102 2.695 . S
Pr80 O103 2.509 1_554 S
Pr80 O105 2.437 . S
Pr80 O108 2.436 . S
Pr80 O110 2.438 . S
Pr81 C91 2.880 . S
Pr81 O102 2.436 . S
Pr81 O104 2.438 . S
Pr81 O106 2.562 . S
Pr81 O107 2.490 . S
Pr81 O108 2.695 . S
Pr81 O109 2.512 . S
Pr81 O111 2.437 . S
C82 Pr80 2.880 . S
C82 C83 1.491 . S
C82 O100 1.254 . S
C82 O101 1.225 . S
C83 C82 1.491 . S
C83 C84 1.392 . S
C83 C88 1.356 . S
C84 C83 1.392 . S
C84 C85 1.368 . S
C84 H112 0.929 . S
C85 C84 1.368 . S
C85 C86 1.386 . S
C85 H113 0.929 1_545 S
C86 C85 1.386 . S
C86 C87 1.373 . S
C87 C86 1.373 . S
C87 C88 1.409 . S
C87 H114 0.931 . S
C88 C83 1.356 . S
C88 C87 1.409 . S
C88 H115 0.930 . S
C89 O102 1.270 . S
C89 O103 1.249 1_554 S
C90 O104 1.267 . S
C90 O105 1.278 . S
C91 Pr81 2.880 . S
C91 C92 1.491 . S
C91 O106 1.254 . S
C91 O107 1.225 . S
C92 C91 1.491 . S
C92 C93 1.392 . S
C92 C97 1.356 . S
C93 C92 1.392 . S
C93 C94 1.368 . S
C93 H116 0.929 . S
C94 C93 1.368 . S
C94 C95 1.386 . S
C94 H117 0.929 . S
C95 C94 1.386 . S
C95 C96 1.373 . S
C96 C95 1.373 . S
C96 C97 1.409 . S
C96 H118 0.931 . S
C97 C92 1.356 . S
C97 C96 1.409 . S
C97 H119 0.930 . S
C98 O108 1.270 . S
C98 O109 1.248 . S
C99 O110 1.267 . S
C99 O111 1.278 . S
O100 Pr80 2.562 . S
O100 C82 1.254 . S
O101 Pr80 2.490 . S
O101 C82 1.225 . S
O102 Pr80 2.695 . S
O102 Pr81 2.436 . S
O102 C89 1.270 . S
O103 Pr80 2.509 1_556 S
O103 C89 1.249 1_556 S
O104 Pr81 2.438 . S
O104 C90 1.267 . S
O105 Pr80 2.437 . S
O105 C90 1.278 . S
O106 Pr81 2.562 . S
O106 C91 1.254 . S
O107 Pr81 2.490 . S
O107 C91 1.225 . S
O108 Pr80 2.436 . S
O108 Pr81 2.695 . S
O108 C98 1.270 . S
O109 Pr81 2.512 . S
O109 C98 1.248 . S
O110 Pr80 2.438 . S
O110 C99 1.267 . S
O111 Pr81 2.437 . S
O111 C99 1.278 . S
H112 C84 0.929 . S
H113 C85 0.929 1_565 S
H114 C87 0.931 . S
H115 C88 0.930 . S
H116 C93 0.929 . S
H117 C94 0.929 . S
H118 C96 0.931 . S
H119 C97 0.930 . S
Pr120 C122 2.880 . S
Pr120 O140 2.562 . S
Pr120 O141 2.490 . S
Pr120 O142 2.695 . S
Pr120 O143 2.512 . S
Pr120 O145 2.437 . S
Pr120 O148 2.436 . S
Pr120 O150 2.438 . S
Pr121 C131 2.880 . S
Pr121 O142 2.436 . S
Pr121 O144 2.438 . S
Pr121 O146 2.562 . S
Pr121 O147 2.490 . S
Pr121 O148 2.695 . S
Pr121 O149 2.512 . S
Pr121 O151 2.437 . S
C122 Pr120 2.880 . S
C122 C123 1.491 . S
C122 O140 1.254 . S
C122 O141 1.225 . S
C123 C122 1.491 . S
C123 C124 1.392 . S
C123 C128 1.356 . S
C124 C123 1.392 . S
C124 C125 1.368 . S
C124 H152 0.929 . S
C125 C124 1.368 . S
C125 C126 1.386 . S
C125 H153 0.929 . S
C126 C125 1.386 . S
C126 C127 1.373 . S
C127 C126 1.373 . S
C127 C128 1.409 . S
C127 H154 0.931 . S
C128 C123 1.356 . S
C128 C127 1.409 . S
C128 H155 0.930 . S
C129 O142 1.270 . S
C129 O143 1.248 . S
C130 O144 1.267 . S
C130 O145 1.278 . S
C131 Pr121 2.880 . S
C131 C132 1.491 . S
C131 O146 1.254 . S
C131 O147 1.225 . S
C132 C131 1.491 . S
C132 C133 1.392 . S
C132 C137 1.356 . S
C133 C132 1.392 . S
C133 C134 1.368 . S
C133 H156 0.929 . S
C134 C133 1.368 . S
C134 C135 1.386 . S
C134 H157 0.929 . S
C135 C134 1.386 . S
C135 C136 1.373 . S
C136 C135 1.373 . S
C136 C137 1.409 . S
C136 H158 0.931 . S
C137 C132 1.356 . S
C137 C136 1.409 . S
C137 H159 0.930 . S
C138 O148 1.270 . S
C138 O149 1.248 . S
C139 O150 1.267 . S
C139 O151 1.278 . S
O140 Pr120 2.562 . S
O140 C122 1.254 . S
O141 Pr120 2.490 . S
O141 C122 1.225 . S
O142 Pr120 2.695 . S
O142 Pr121 2.436 . S
O142 C129 1.270 . S
O143 Pr120 2.512 . S
O143 C129 1.248 . S
O144 Pr121 2.438 . S
O144 C130 1.267 . S
O145 Pr120 2.437 . S
O145 C130 1.278 . S
O146 Pr121 2.562 . S
O146 C131 1.254 . S
O147 Pr121 2.490 . S
O147 C131 1.225 . S
O148 Pr120 2.436 . S
O148 Pr121 2.695 . S
O148 C138 1.270 . S
O149 Pr121 2.512 . S
O149 C138 1.248 . S
O150 Pr120 2.438 . S
O150 C139 1.267 . S
O151 Pr121 2.437 . S
O151 C139 1.278 . S
H152 C124 0.929 . S
H153 C125 0.929 . S
H154 C127 0.931 . S
H155 C128 0.930 . S
H156 C133 0.929 . S
H157 C134 0.929 . S
H158 C136 0.931 . S
H159 C137 0.930 . S
Pr160 C162 2.880 . S
Pr160 O180 2.562 . S
Pr160 O181 2.490 . S
Pr160 O182 2.695 . S
Pr160 O183 2.512 . S
Pr160 O185 2.437 . S
Pr160 O188 2.436 . S
Pr160 O190 2.438 . S
Pr161 C171 2.880 . S
Pr161 O182 2.436 . S
Pr161 O184 2.438 . S
Pr161 O186 2.562 . S
Pr161 O187 2.490 . S
Pr161 O188 2.695 . S
Pr161 O189 2.512 . S
Pr161 O191 2.437 . S
C162 Pr160 2.880 . S
C162 C163 1.491 . S
C162 O180 1.254 . S
C162 O181 1.225 . S
C163 C162 1.491 . S
C163 C164 1.392 . S
C163 C168 1.356 . S
C164 C163 1.392 . S
C164 C165 1.368 . S
C164 H192 0.929 . S
C165 C164 1.368 . S
C165 C166 1.386 . S
C165 H193 0.929 . S
C166 C165 1.386 . S
C166 C167 1.373 . S
C167 C166 1.373 . S
C167 C168 1.409 . S
C167 H194 0.931 . S
C168 C163 1.356 . S
C168 C167 1.409 . S
C168 H195 0.930 . S
C169 O182 1.270 . S
C169 O183 1.248 . S
C170 O184 1.267 . S
C170 O185 1.278 . S
C171 Pr161 2.880 . S
C171 C172 1.491 . S
C171 O186 1.254 . S
C171 O187 1.225 . S
C172 C171 1.491 . S
C172 C173 1.392 . S
C172 C177 1.356 . S
C173 C172 1.392 . S
C173 C174 1.368 . S
C173 H196 0.929 . S
C174 C173 1.368 . S
C174 C175 1.386 . S
C174 H197 0.929 . S
C175 C174 1.386 . S
C175 C176 1.373 . S
C176 C175 1.373 . S
C176 C177 1.409 . S
C176 H198 0.931 . S
C177 C172 1.356 . S
C177 C176 1.409 . S
C177 H199 0.930 . S
C178 O188 1.270 . S
C178 O189 1.248 . S
C179 O190 1.267 . S
C179 O191 1.278 . S
O180 Pr160 2.562 . S
O180 C162 1.254 . S
O181 Pr160 2.490 . S
O181 C162 1.225 . S
O182 Pr160 2.695 . S
O182 Pr161 2.436 . S
O182 C169 1.270 . S
O183 Pr160 2.512 . S
O183 C169 1.248 . S
O184 Pr161 2.438 . S
O184 C170 1.267 . S
O185 Pr160 2.437 . S
O185 C170 1.278 . S
O186 Pr161 2.562 . S
O186 C171 1.254 . S
O187 Pr161 2.490 . S
O187 C171 1.225 . S
O188 Pr160 2.436 . S
O188 Pr161 2.695 . S
O188 C178 1.270 . S
O189 Pr161 2.512 . S
O189 C178 1.248 . S
O190 Pr160 2.438 . S
O190 C179 1.267 . S
O191 Pr161 2.437 . S
O191 C179 1.278 . S
H192 C164 0.929 . S
H193 C165 0.929 . S
H194 C167 0.931 . S
H195 C168 0.930 . S
H196 C173 0.929 . S
H197 C174 0.929 . S
H198 C176 0.931 . S
H199 C177 0.930 . S
Pr200 C202 2.880 . S
Pr200 O220 2.562 . S
Pr200 O221 2.490 . S
Pr200 O222 2.695 . S
Pr200 O223 2.512 . S
Pr200 O225 2.437 . S
Pr200 O228 2.436 . S
Pr200 O230 2.438 . S
Pr201 C211 2.880 . S
Pr201 O222 2.436 . S
Pr201 O224 2.438 . S
Pr201 O226 2.562 . S
Pr201 O227 2.490 . S
Pr201 O228 2.695 . S
Pr201 O229 2.512 . S
Pr201 O231 2.437 . S
C202 Pr200 2.880 . S
C202 C203 1.491 . S
C202 O220 1.254 . S
C202 O221 1.225 . S
C203 C202 1.491 . S
C203 C204 1.392 . S
C203 C208 1.356 . S
C204 C203 1.392 . S
C204 C205 1.368 . S
C204 H232 0.929 . S
C205 C204 1.368 . S
C205 C206 1.386 . S
C205 H233 0.929 . S
C206 C205 1.386 . S
C206 C207 1.373 . S
C207 C206 1.373 . S
C207 C208 1.409 . S
C207 H234 0.931 . S
C208 C203 1.356 . S
C208 C207 1.409 . S
C208 H235 0.930 . S
C209 O222 1.270 . S
C209 O223 1.248 . S
C210 O224 1.267 . S
C210 O225 1.278 . S
C211 Pr201 2.880 . S
C211 C212 1.491 . S
C211 O226 1.254 . S
C211 O227 1.225 . S
C212 C211 1.491 . S
C212 C213 1.392 . S
C212 C217 1.356 . S
C213 C212 1.392 . S
C213 C214 1.368 . S
C213 H236 0.929 . S
C214 C213 1.368 . S
C214 C215 1.386 . S
C214 H237 0.929 . S
C215 C214 1.386 . S
C215 C216 1.373 . S
C216 C215 1.373 . S
C216 C217 1.409 . S
C216 H238 0.931 . S
C217 C212 1.356 . S
C217 C216 1.409 . S
C217 H239 0.930 . S
C218 O228 1.270 . S
C218 O229 1.248 . S
C219 O230 1.267 . S
C219 O231 1.278 . S
O220 Pr200 2.562 . S
O220 C202 1.254 . S
O221 Pr200 2.490 . S
O221 C202 1.225 . S
O222 Pr200 2.695 . S
O222 Pr201 2.436 . S
O222 C209 1.270 . S
O223 Pr200 2.512 . S
O223 C209 1.248 . S
O224 Pr201 2.438 . S
O224 C210 1.267 . S
O225 Pr200 2.437 . S
O225 C210 1.278 . S
O226 Pr201 2.562 . S
O226 C211 1.254 . S
O227 Pr201 2.490 . S
O227 C211 1.225 . S
O228 Pr200 2.436 . S
O228 Pr201 2.695 . S
O228 C218 1.270 . S
O229 Pr201 2.512 . S
O229 C218 1.248 . S
O230 Pr200 2.438 . S
O230 C219 1.267 . S
O231 Pr201 2.437 . S
O231 C219 1.278 . S
H232 C204 0.929 . S
H233 C205 0.929 . S
H234 C207 0.931 . S
H235 C208 0.930 . S
H236 C213 0.929 . S
H237 C214 0.929 . S
H238 C216 0.931 . S
H239 C217 0.930 . S
Pr240 C242 2.880 . S
Pr240 O260 2.562 . S
Pr240 O261 2.490 . S
Pr240 O262 2.695 . S
Pr240 O263 2.512 . S
Pr240 O265 2.437 . S
Pr240 O268 2.436 . S
Pr240 O270 2.438 . S
Pr241 C251 2.880 . S
Pr241 O262 2.436 . S
Pr241 O264 2.438 . S
Pr241 O266 2.562 . S
Pr241 O267 2.490 . S
Pr241 O268 2.695 . S
Pr241 O269 2.512 . S
Pr241 O271 2.437 . S
C242 Pr240 2.880 . S
C242 C243 1.491 . S
C242 O260 1.254 . S
C242 O261 1.225 . S
C243 C242 1.491 . S
C243 C244 1.392 . S
C243 C248 1.356 . S
C244 C243 1.392 . S
C244 C245 1.368 . S
C244 H272 0.929 . S
C245 C244 1.368 . S
C245 C246 1.386 . S
C245 H273 0.929 . S
C246 C245 1.386 . S
C246 C247 1.373 . S
C247 C246 1.373 . S
C247 C248 1.409 . S
C247 H274 0.931 . S
C248 C243 1.356 . S
C248 C247 1.409 . S
C248 H275 0.930 . S
C249 O262 1.270 . S
C249 O263 1.248 . S
C250 O264 1.267 . S
C250 O265 1.278 . S
C251 Pr241 2.880 . S
C251 C252 1.491 1_556 S
C251 O266 1.254 . S
C251 O267 1.225 . S
C252 C251 1.491 1_554 S
C252 C253 1.392 . S
C252 C257 1.356 . S
C253 C252 1.392 . S
C253 C254 1.368 . S
C253 H276 0.929 . S
C254 C253 1.368 . S
C254 C255 1.386 . S
C254 H277 0.929 . S
C255 C254 1.386 . S
C255 C256 1.373 . S
C256 C255 1.373 . S
C256 C257 1.409 . S
C256 H278 0.931 . S
C257 C252 1.356 . S
C257 C256 1.409 . S
C257 H279 0.930 . S
C258 O268 1.270 . S
C258 O269 1.248 . S
C259 O270 1.267 . S
C259 O271 1.278 . S
O260 Pr240 2.562 . S
O260 C242 1.254 . S
O261 Pr240 2.490 . S
O261 C242 1.225 . S
O262 Pr240 2.695 . S
O262 Pr241 2.436 . S
O262 C249 1.270 . S
O263 Pr240 2.512 . S
O263 C249 1.248 . S
O264 Pr241 2.438 . S
O264 C250 1.267 . S
O265 Pr240 2.437 . S
O265 C250 1.278 . S
O266 Pr241 2.562 . S
O266 C251 1.254 . S
O267 Pr241 2.490 . S
O267 C251 1.225 . S
O268 Pr240 2.436 . S
O268 Pr241 2.695 . S
O268 C258 1.270 . S
O269 Pr241 2.512 . S
O269 C258 1.248 . S
O270 Pr240 2.438 . S
O270 C259 1.267 . S
O271 Pr241 2.437 . S
O271 C259 1.278 . S
H272 C244 0.929 . S
H273 C245 0.929 . S
H274 C247 0.931 . S
H275 C248 0.930 . S
H276 C253 0.929 . S
H277 C254 0.929 . S
H278 C256 0.931 . S
H279 C257 0.930 . S
Pr280 C282 2.880 . S
Pr280 O300 2.562 . S
Pr280 O301 2.490 . S
Pr280 O302 2.695 . S
Pr280 O303 2.512 . S
Pr280 O305 2.437 . S
Pr280 O308 2.436 . S
Pr280 O310 2.438 . S
Pr281 C291 2.880 . S
Pr281 O302 2.436 . S
Pr281 O304 2.438 . S
Pr281 O306 2.562 . S
Pr281 O307 2.490 . S
Pr281 O308 2.695 . S
Pr281 O309 2.512 . S
Pr281 O311 2.437 . S
C282 Pr280 2.880 . S
C282 C283 1.491 1_556 S
C282 O300 1.254 . S
C282 O301 1.225 . S
C283 C282 1.491 1_554 S
C283 C284 1.392 . S
C283 C288 1.356 . S
C284 C283 1.392 . S
C284 C285 1.368 . S
C284 H312 0.929 . S
C285 C284 1.368 . S
C285 C286 1.386 . S
C285 H313 0.929 . S
C286 C285 1.386 . S
C286 C287 1.373 . S
C287 C286 1.373 . S
C287 C288 1.409 . S
C287 H314 0.931 . S
C288 C283 1.356 . S
C288 C287 1.409 . S
C288 H315 0.930 . S
C289 O302 1.270 . S
C289 O303 1.248 . S
C290 O304 1.267 . S
C290 O305 1.278 . S
C291 Pr281 2.880 . S
C291 C292 1.491 . S
C291 O306 1.254 . S
C291 O307 1.225 . S
C292 C291 1.491 . S
C292 C293 1.392 . S
C292 C297 1.356 . S
C293 C292 1.392 . S
C293 C294 1.368 . S
C293 H316 0.929 . S
C294 C293 1.368 . S
C294 C295 1.386 . S
C294 H317 0.929 . S
C295 C294 1.386 . S
C295 C296 1.373 . S
C296 C295 1.373 . S
C296 C297 1.409 . S
C296 H318 0.931 . S
C297 C292 1.356 . S
C297 C296 1.409 . S
C297 H319 0.930 . S
C298 O308 1.270 . S
C298 O309 1.248 . S
C299 O310 1.267 . S
C299 O311 1.278 . S
O300 Pr280 2.562 . S
O300 C282 1.254 . S
O301 Pr280 2.490 . S
O301 C282 1.225 . S
O302 Pr280 2.695 . S
O302 Pr281 2.436 . S
O302 C289 1.270 . S
O303 Pr280 2.512 . S
O303 C289 1.248 . S
O304 Pr281 2.438 . S
O304 C290 1.267 . S
O305 Pr280 2.437 . S
O305 C290 1.278 . S
O306 Pr281 2.562 . S
O306 C291 1.254 . S
O307 Pr281 2.490 . S
O307 C291 1.225 . S
O308 Pr280 2.436 . S
O308 Pr281 2.695 . S
O308 C298 1.270 . S
O309 Pr281 2.512 . S
O309 C298 1.248 . S
O310 Pr280 2.438 . S
O310 C299 1.267 . S
O311 Pr281 2.437 . S
O311 C299 1.278 . S
H312 C284 0.929 . S
H313 C285 0.929 . S
H314 C287 0.931 . S
H315 C288 0.930 . S
H316 C293 0.929 . S
H317 C294 0.929 . S
H318 C296 0.931 . S
H319 C297 0.930 . S
Pr320 C322 2.880 . S
Pr320 O340 2.562 . S
Pr320 O341 2.490 . S
Pr320 O342 2.695 . S
Pr320 O343 2.512 . S
Pr320 O345 2.437 . S
Pr320 O348 2.436 . S
Pr320 O350 2.438 . S
Pr321 C331 2.880 . S
Pr321 O342 2.436 . S
Pr321 O344 2.438 . S
Pr321 O346 2.562 . S
Pr321 O347 2.490 . S
Pr321 O348 2.695 . S
Pr321 O349 2.512 . S
Pr321 O351 2.437 . S
C322 Pr320 2.880 . S
C322 C323 1.491 . S
C322 O340 1.254 . S
C322 O341 1.225 . S
C323 C322 1.491 . S
C323 C324 1.392 . S
C323 C328 1.356 . S
C324 C323 1.392 . S
C324 C325 1.368 . S
C324 H352 0.929 . S
C325 C324 1.368 . S
C325 C326 1.386 . S
C325 H353 0.929 . S
C326 C325 1.386 . S
C326 C327 1.373 . S
C327 C326 1.373 . S
C327 C328 1.409 . S
C327 H354 0.931 . S
C328 C323 1.356 . S
C328 C327 1.409 . S
C328 H355 0.930 . S
C329 O342 1.270 . S
C329 O343 1.248 . S
C330 O344 1.267 . S
C330 O345 1.278 . S
C331 Pr321 2.880 . S
C331 C332 1.491 1_556 S
C331 O346 1.254 . S
C331 O347 1.225 . S
C332 C331 1.491 1_554 S
C332 C333 1.392 . S
C332 C337 1.356 . S
C333 C332 1.392 . S
C333 C334 1.368 . S
C333 H356 0.929 . S
C334 C333 1.368 . S
C334 C335 1.386 . S
C334 H357 0.929 . S
C335 C334 1.386 . S
C335 C336 1.373 . S
C336 C335 1.373 . S
C336 C337 1.409 . S
C336 H358 0.931 . S
C337 C332 1.356 . S
C337 C336 1.409 . S
C337 H359 0.930 . S
C338 O348 1.270 . S
C338 O349 1.248 . S
C339 O350 1.267 . S
C339 O351 1.278 . S
O340 Pr320 2.562 . S
O340 C322 1.254 . S
O341 Pr320 2.490 . S
O341 C322 1.225 . S
O342 Pr320 2.695 . S
O342 Pr321 2.436 . S
O342 C329 1.270 . S
O343 Pr320 2.512 . S
O343 C329 1.248 . S
O344 Pr321 2.438 . S
O344 C330 1.267 . S
O345 Pr320 2.437 . S
O345 C330 1.278 . S
O346 Pr321 2.562 . S
O346 C331 1.254 . S
O347 Pr321 2.490 . S
O347 C331 1.225 . S
O348 Pr320 2.436 . S
O348 Pr321 2.695 . S
O348 C338 1.270 . S
O349 Pr321 2.512 . S
O349 C338 1.248 . S
O350 Pr320 2.438 . S
O350 C339 1.267 . S
O351 Pr321 2.437 . S
O351 C339 1.278 . S
H352 C324 0.929 . S
H353 C325 0.929 . S
H354 C327 0.931 . S
H355 C328 0.930 . S
H356 C333 0.929 . S
H357 C334 0.929 . S
H358 C336 0.931 . S
H359 C337 0.930 . S
H360 C366 0.930 . S
H361 C369 0.930 . S
H362 C370 0.930 . S
H363 C371 0.930 . S
H364 C374 0.930 . S
H365 C375 0.930 . S
C366 H360 0.930 . S
C366 C367 1.355 . S
C366 C368 1.415 . S
C367 C366 1.355 . S
C367 C369 1.419 . S
C368 C366 1.415 . S
C368 C373 1.425 . S
C368 C375 1.409 . S
C369 H361 0.930 . S
C369 C367 1.419 . S
C369 C370 1.362 . S
C370 H362 0.930 . S
C370 C369 1.362 . S
C370 C373 1.409 . S
C371 H363 0.930 . S
C371 C372 1.355 . S
C371 C373 1.415 . S
C372 C371 1.355 . S
C372 C374 1.419 . S
C373 C368 1.425 . S
C373 C370 1.409 . S
C373 C371 1.415 . S
C374 H364 0.930 . S
C374 C372 1.419 . S
C374 C375 1.362 . S
C375 H365 0.930 . S
C375 C368 1.409 . S
C375 C374 1.362 . S
H376 C382 0.930 . S
H377 C385 0.930 . S
H378 C386 0.930 . S
H379 C387 0.930 . S
H380 C390 0.930 . S
H381 C391 0.930 . S
C382 H376 0.930 . S
C382 C383 1.355 . S
C382 C384 1.415 . S
C383 C382 1.355 . S
C383 C385 1.419 . S
C384 C382 1.415 . S
C384 C389 1.425 . S
C384 C391 1.409 . S
C385 H377 0.930 . S
C385 C383 1.419 . S
C385 C386 1.362 . S
C386 H378 0.930 . S
C386 C385 1.362 . S
C386 C389 1.409 . S
C387 H379 0.930 . S
C387 C388 1.355 . S
C387 C389 1.415 . S
C388 C387 1.355 . S
C388 C390 1.419 . S
C389 C384 1.425 . S
C389 C386 1.409 . S
C389 C387 1.415 . S
C390 H380 0.930 . S
C390 C388 1.419 . S
C390 C391 1.362 . S
C391 H381 0.930 . S
C391 C384 1.409 . S
C391 C390 1.362 . S
H392 C398 0.930 . S
H393 C401 0.930 . S
H394 C402 0.930 . S
H395 C403 0.930 . S
H396 C406 0.930 . S
H397 C407 0.930 . S
C398 H392 0.930 . S
C398 C399 1.355 . S
C398 C400 1.415 . S
C399 C398 1.355 . S
C399 C401 1.419 . S
C400 C398 1.415 . S
C400 C405 1.425 . S
C400 C407 1.409 . S
C401 H393 0.930 . S
C401 C399 1.419 . S
C401 C402 1.362 . S
C402 H394 0.930 . S
C402 C401 1.362 . S
C402 C405 1.409 . S
C403 H395 0.930 . S
C403 C404 1.355 . S
C403 C405 1.415 . S
C404 C403 1.355 . S
C404 C406 1.419 . S
C405 C400 1.425 . S
C405 C402 1.409 . S
C405 C403 1.415 . S
C406 H396 0.930 . S
C406 C404 1.419 . S
C406 C407 1.362 . S
C407 H397 0.930 . S
C407 C400 1.409 . S
C407 C406 1.362 . S
H408 C414 0.930 . S
H409 C417 0.930 . S
H410 C418 0.930 . S
H411 C419 0.930 . S
H412 C422 0.930 . S
H413 C423 0.930 . S
C414 H408 0.930 . S
C414 C415 1.355 . S
C414 C416 1.415 . S
C415 C414 1.355 . S
C415 C417 1.419 . S
C416 C414 1.415 . S
C416 C421 1.425 . S
C416 C423 1.409 . S
C417 H409 0.930 . S
C417 C415 1.419 . S
C417 C418 1.362 . S
C418 H410 0.930 . S
C418 C417 1.362 . S
C418 C421 1.409 . S
C419 H411 0.930 . S
C419 C420 1.355 . S
C419 C421 1.415 . S
C420 C419 1.355 . S
C420 C422 1.419 . S
C421 C416 1.425 . S
C421 C418 1.409 . S
C421 C419 1.415 . S
C422 H412 0.930 . S
C422 C420 1.419 . S
C422 C423 1.362 . S
C423 H413 0.930 . S
C423 C416 1.409 . S
C423 C422 1.362 . S
H424 C430 0.930 . S
H425 C433 0.930 . S
H426 C434 0.930 . S
H427 C435 0.930 . S
H428 C438 0.930 . S
H429 C439 0.930 . S
C430 H424 0.930 . S
C430 C431 1.355 . S
C430 C432 1.415 . S
C431 C430 1.355 . S
C431 C433 1.419 . S
C432 C430 1.415 . S
C432 C437 1.425 . S
C432 C439 1.409 . S
C433 H425 0.930 . S
C433 C431 1.419 . S
C433 C434 1.362 . S
C434 H426 0.930 . S
C434 C433 1.362 . S
C434 C437 1.409 . S
C435 H427 0.930 . S
C435 C436 1.355 . S
C435 C437 1.415 . S
C436 C435 1.355 . S
C436 C438 1.419 . S
C437 C432 1.425 . S
C437 C434 1.409 . S
C437 C435 1.415 . S
C438 H428 0.930 . S
C438 C436 1.419 . S
C438 C439 1.362 . S
C439 H429 0.930 . S
C439 C432 1.409 . S
C439 C438 1.362 . S
H440 C446 0.930 . S
H441 C449 0.930 . S
H442 C450 0.930 . S
H443 C451 0.930 . S
H444 C454 0.930 . S
H445 C455 0.930 . S
C446 H440 0.930 . S
C446 C447 1.355 . S
C446 C448 1.415 . S
C447 C446 1.355 . S
C447 C449 1.419 . S
C448 C446 1.415 . S
C448 C453 1.425 . S
C448 C455 1.409 . S
C449 H441 0.930 . S
C449 C447 1.419 . S
C449 C450 1.362 . S
C450 H442 0.930 . S
C450 C449 1.362 . S
C450 C453 1.409 . S
C451 H443 0.930 . S
C451 C452 1.355 . S
C451 C453 1.415 . S
C452 C451 1.355 . S
C452 C454 1.419 . S
C453 C448 1.425 . S
C453 C450 1.409 . S
C453 C451 1.415 . S
C454 H444 0.930 . S
C454 C452 1.419 . S
C454 C455 1.362 . S
C455 H445 0.930 . S
C455 C448 1.409 . S
C455 C454 1.362 . S
H456 C462 0.930 . S
H457 C465 0.930 1_556 S
H458 C466 0.930 . S
H459 C467 0.930 . S
H460 C470 0.930 . S
H461 C471 0.930 . S
C462 H456 0.930 . S
C462 C463 1.355 . S
C462 C464 1.415 . S
C463 C462 1.355 . S
C463 C465 1.419 . S
C464 C462 1.415 . S
C464 C469 1.425 . S
C464 C471 1.409 . S
C465 H457 0.930 1_554 S
C465 C463 1.419 . S
C465 C466 1.362 . S
C466 H458 0.930 . S
C466 C465 1.362 . S
C466 C469 1.409 . S
C467 H459 0.930 . S
C467 C468 1.355 . S
C467 C469 1.415 . S
C468 C467 1.355 . S
C468 C470 1.419 . S
C469 C464 1.425 . S
C469 C466 1.409 . S
C469 C467 1.415 . S
C470 H460 0.930 . S
C470 C468 1.419 . S
C470 C471 1.362 . S
C471 H461 0.930 . S
C471 C464 1.409 . S
C471 C470 1.362 . S
H472 C478 0.930 . S
H473 C481 0.930 . S
H474 C482 0.930 . S
H475 C483 0.930 . S
H476 C486 0.930 . S
H477 C487 0.930 . S
C478 H472 0.930 . S
C478 C479 1.355 . S
C478 C480 1.415 . S
C479 C478 1.355 . S
C479 C481 1.419 . S
C480 C478 1.415 . S
C480 C485 1.425 . S
C480 C487 1.409 . S
C481 H473 0.930 . S
C481 C479 1.419 . S
C481 C482 1.362 . S
C482 H474 0.930 . S
C482 C481 1.362 . S
C482 C485 1.409 . S
C483 H475 0.930 . S
C483 C484 1.355 . S
C483 C485 1.415 . S
C484 C483 1.355 . S
C484 C486 1.419 . S
C485 C480 1.425 . S
C485 C482 1.409 . S
C485 C483 1.415 . S
C486 H476 0.930 . S
C486 C484 1.419 . S
C486 C487 1.362 . S
C487 H477 0.930 . S
C487 C480 1.409 . S
C487 C486 1.362 . S
H488 C494 0.930 . S
H489 C497 0.930 . S
H490 C498 0.930 . S
H491 C499 0.930 . S
H492 C502 0.930 . S
H493 C503 0.930 . S
C494 H488 0.930 . S
C494 C495 1.355 . S
C494 C496 1.415 . S
C495 C494 1.355 . S
C495 C497 1.419 . S
C496 C494 1.415 . S
C496 C501 1.425 . S
C496 C503 1.409 . S
C497 H489 0.930 . S
C497 C495 1.419 . S
C497 C498 1.362 . S
C498 H490 0.930 . S
C498 C497 1.362 . S
C498 C501 1.409 . S
C499 H491 0.930 . S
C499 C500 1.355 . S
C499 C501 1.415 . S
C500 C499 1.355 . S
C500 C502 1.419 . S
C501 C496 1.425 . S
C501 C498 1.409 . S
C501 C499 1.415 . S
C502 H492 0.930 . S
C502 C500 1.419 . S
C502 C503 1.362 . S
C503 H493 0.930 . S
C503 C496 1.409 . S
C503 C502 1.362 . S
H504 C510 0.930 . S
H505 C513 0.930 . S
H506 C514 0.930 . S
H507 C515 0.930 . S
H508 C518 0.930 . S
H509 C519 0.930 . S
C510 H504 0.930 . S
C510 C511 1.355 . S
C510 C512 1.415 . S
C511 C510 1.355 . S
C511 C513 1.419 . S
C512 C510 1.415 . S
C512 C517 1.425 . S
C512 C519 1.409 . S
C513 H505 0.930 . S
C513 C511 1.419 . S
C513 C514 1.362 . S
C514 H506 0.930 . S
C514 C513 1.362 . S
C514 C517 1.409 . S
C515 H507 0.930 . S
C515 C516 1.355 . S
C515 C517 1.415 . S
C516 C515 1.355 . S
C516 C518 1.419 . S
C517 C512 1.425 . S
C517 C514 1.409 . S
C517 C515 1.415 . S
C518 H508 0.930 . S
C518 C516 1.419 . S
C518 C519 1.362 . S
C519 H509 0.930 . S
C519 C512 1.409 . S
C519 C518 1.362 . S
H520 C526 0.930 . S
H521 C529 0.930 . S
H522 C530 0.930 . S
H523 C531 0.930 . S
H524 C534 0.930 . S
H525 C535 0.930 . S
C526 H520 0.930 . S
C526 C527 1.355 . S
C526 C528 1.415 . S
C527 C526 1.355 . S
C527 C529 1.419 . S
C528 C526 1.415 . S
C528 C533 1.425 . S
C528 C535 1.409 . S
C529 H521 0.930 . S
C529 C527 1.419 . S
C529 C530 1.362 . S
C530 H522 0.930 . S
C530 C529 1.362 . S
C530 C533 1.409 . S
C531 H523 0.930 . S
C531 C532 1.355 . S
C531 C533 1.415 . S
C532 C531 1.355 . S
C532 C534 1.419 . S
C533 C528 1.425 . S
C533 C530 1.409 . S
C533 C531 1.415 . S
C534 H524 0.930 . S
C534 C532 1.419 . S
C534 C535 1.362 . S
C535 H525 0.930 . S
C535 C528 1.409 . S
C535 C534 1.362 . S
H536 C542 0.930 . S
H537 C545 0.930 . S
H538 C546 0.930 . S
H539 C547 0.961 . S
H540 C550 0.930 . S
H541 C551 0.930 . S
C542 H536 0.930 . S
C542 C543 1.355 1_565 S
C542 C544 1.415 . S
C543 C542 1.355 1_545 S
C543 C545 1.419 . S
C544 C542 1.415 . S
C544 C549 1.425 . S
C544 C551 1.409 . S
C545 H537 0.930 . S
C545 C543 1.419 . S
C545 C546 1.362 . S
C546 H538 0.930 . S
C546 C545 1.362 . S
C546 C549 1.409 1_545 S
C547 H539 0.961 . S
C547 C548 1.355 . S
C547 C549 1.415 . S
C548 C547 1.355 . S
C548 C550 1.419 . S
C549 C544 1.425 . S
C549 C546 1.409 1_565 S
C549 C547 1.415 . S
C550 H540 0.930 . S
C550 C548 1.419 . S
C550 C551 1.362 . S
C551 H541 0.930 . S
C551 C544 1.409 . S
C551 C550 1.362 . S
H552 C558 0.930 1_556 S
H553 C561 0.930 . S
H554 C562 0.930 . S
H555 C563 0.930 . S
H556 C566 0.930 . S
H557 C567 0.930 . S
C558 H552 0.930 1_554 S
C558 C559 1.355 . S
C558 C560 1.415 1_554 S
C559 C558 1.355 . S
C559 C561 1.419 . S
C560 C558 1.415 1_556 S
C560 C565 1.422 1_556 S
C560 C567 1.409 . S
C561 H553 0.930 . S
C561 C559 1.419 . S
C561 C562 1.362 . S
C562 H554 0.930 . S
C562 C561 1.362 . S
C562 C565 1.415 . S
C563 H555 0.930 . S
C563 C564 1.355 . S
C563 C565 1.412 1_556 S
C564 C563 1.355 . S
C564 C566 1.419 . S
C565 C560 1.422 1_554 S
C565 C562 1.415 . S
C565 C563 1.412 1_554 S
C566 H556 0.930 . S
C566 C564 1.419 . S
C566 C567 1.362 . S
C567 H557 0.930 . S
C567 C560 1.409 . S
C567 C566 1.362 . S
H568 C574 0.930 . S
H569 C577 0.930 . S
H570 C578 0.906 1_455 S
H571 C579 0.930 . S
H572 C582 0.930 1_554 S
H573 C583 0.930 . S
C574 H568 0.930 . S
C574 C575 1.355 . S
C574 C576 1.415 . S
C575 C574 1.355 . S
C575 C577 1.419 . S
C576 C574 1.415 . S
C576 C581 1.425 . S
C576 C583 1.409 . S
C577 H569 0.930 . S
C577 C575 1.419 . S
C577 C578 1.367 . S
C578 H570 0.906 1_655 S
C578 C577 1.367 . S
C578 C581 1.428 . S
C579 H571 0.930 . S
C579 C580 1.355 . S
C579 C581 1.415 1_455 S
C580 C579 1.355 . S
C580 C582 1.419 1_455 S
C581 C576 1.425 . S
C581 C578 1.428 . S
C581 C579 1.415 1_655 S
C582 H572 0.930 1_556 S
C582 C580 1.419 1_655 S
C582 C583 1.362 . S
C583 H573 0.930 . S
C583 C576 1.409 . S
C583 C582 1.362 . S
H584 C590 0.930 . S
H585 C593 0.930 . S
H586 C594 0.930 1_554 S
H587 C595 0.930 . S
H588 C598 0.930 . S
H589 C599 0.930 . S
C590 H584 0.930 . S
C590 C591 1.355 . S
C590 C592 1.415 . S
C591 C590 1.355 . S
C591 C593 1.419 . S
C592 C590 1.415 . S
C592 C597 1.425 . S
C592 C599 1.409 . S
C593 H585 0.930 . S
C593 C591 1.419 . S
C593 C594 1.362 . S
C594 H586 0.930 1_556 S
C594 C593 1.362 . S
C594 C597 1.409 . S
C595 H587 0.930 . S
C595 C596 1.355 . S
C595 C597 1.415 1_554 S
C596 C595 1.355 . S
C596 C598 1.419 . S
C597 C592 1.425 . S
C597 C594 1.409 . S
C597 C595 1.415 1_556 S
C598 H588 0.930 . S
C598 C596 1.419 . S
C598 C599 1.362 1_554 S
C599 H589 0.930 . S
C599 C592 1.409 . S
C599 C598 1.362 1_556 S
H600 C606 0.930 . S
H601 C609 0.930 . S
H602 C610 0.930 . S
H603 C611 0.930 1_554 S
H604 C614 0.930 . S
H605 C615 0.930 . S
C606 H600 0.930 . S
C606 C607 1.355 . S
C606 C608 1.415 . S
C607 C606 1.355 . S
C607 C609 1.419 . S
C608 C606 1.415 . S
C608 C613 1.425 . S
C608 C615 1.409 . S
C609 H601 0.930 . S
C609 C607 1.419 . S
C609 C610 1.362 . S
C610 H602 0.930 . S
C610 C609 1.362 . S
C610 C613 1.409 . S
C611 H603 0.930 1_556 S
C611 C612 1.355 . S
C611 C613 1.415 . S
C612 C611 1.355 . S
C612 C614 1.419 . S
C613 C608 1.425 . S
C613 C610 1.409 . S
C613 C611 1.415 . S
C614 H604 0.930 . S
C614 C612 1.419 . S
C614 C615 1.362 . S
C615 H605 0.930 . S
C615 C608 1.409 . S
C615 C614 1.362 . S
H616 C622 0.930 1_554 S
H617 C625 0.929 1_554 S
H618 C626 0.930 . S
H619 C627 0.930 . S
H620 C630 0.930 . S
H621 C631 0.930 . S
C622 H616 0.930 1_556 S
C622 C623 1.355 1_556 S
C622 C624 1.415 . S
C623 C622 1.355 1_554 S
C623 C625 1.418 1_554 S
C624 C622 1.415 . S
C624 C629 1.425 . S
C624 C631 1.409 . S
C625 H617 0.929 1_556 S
C625 C623 1.418 1_556 S
C625 C626 1.364 . S
C626 H618 0.930 . S
C626 C625 1.364 . S
C626 C629 1.409 . S
C627 H619 0.930 . S
C627 C628 1.355 . S
C627 C629 1.415 . S
C628 C627 1.355 . S
C628 C630 1.419 . S
C629 C624 1.425 . S
C629 C626 1.409 . S
C629 C627 1.415 . S
C630 H620 0.930 . S
C630 C628 1.419 . S
C630 C631 1.362 . S
C631 H621 0.930 . S
C631 C624 1.409 . S
C631 C630 1.362 . S
H632 C638 0.930 . S
H633 C641 0.930 . S
H634 C642 0.930 . S
H635 C643 0.930 1_556 S
H636 C646 0.930 . S
H637 C647 0.930 . S
C638 H632 0.930 . S
C638 C639 1.355 . S
C638 C640 1.415 1_556 S
C639 C638 1.355 . S
C639 C641 1.419 . S
C640 C638 1.415 1_554 S
C640 C645 1.425 1_554 S
C640 C647 1.409 . S
C641 H633 0.930 . S
C641 C639 1.419 . S
C641 C642 1.362 . S
C642 H634 0.930 . S
C642 C641 1.362 . S
C642 C645 1.409 . S
C643 H635 0.930 1_554 S
C643 C644 1.355 . S
C643 C645 1.415 1_554 S
C644 C643 1.355 . S
C644 C646 1.419 . S
C645 C640 1.425 1_556 S
C645 C642 1.409 . S
C645 C643 1.415 1_556 S
C646 H636 0.930 . S
C646 C644 1.419 . S
C646 C647 1.362 . S
C647 H637 0.930 . S
C647 C640 1.409 . S
C647 C646 1.362 . S
H648 C654 0.930 . S
H649 C657 0.930 . S
H650 C658 0.930 . S
H651 C659 0.930 1_565 S
H652 C662 0.930 . S
H653 C663 0.930 . S
C654 H648 0.930 . S
C654 C655 1.355 . S
C654 C656 1.415 . S
C655 C654 1.355 . S
C655 C657 1.419 . S
C656 C654 1.415 . S
C656 C661 1.425 . S
C656 C663 1.409 . S
C657 H649 0.930 . S
C657 C655 1.419 . S
C657 C658 1.362 . S
C658 H650 0.930 . S
C658 C657 1.362 . S
C658 C661 1.409 . S
C659 H651 0.930 1_545 S
C659 C660 1.355 . S
C659 C661 1.415 . S
C660 C659 1.355 . S
C660 C662 1.419 . S
C661 C656 1.425 . S
C661 C658 1.409 . S
C661 C659 1.415 . S
C662 H652 0.930 . S
C662 C660 1.419 . S
C662 C663 1.362 . S
C663 H653 0.930 . S
C663 C656 1.409 . S
C663 C662 1.362 . S
H664 C670 0.930 . S
H665 C673 0.930 . S
H666 C674 0.930 . S
H667 C675 0.930 . S
H668 C678 0.930 . S
H669 C679 0.930 . S
C670 H664 0.930 . S
C670 C671 1.355 . S
C670 C672 1.415 . S
C671 C670 1.355 . S
C671 C673 1.419 . S
C672 C670 1.415 . S
C672 C677 1.425 . S
C672 C679 1.409 . S
C673 H665 0.930 . S
C673 C671 1.419 . S
C673 C674 1.362 . S
C674 H666 0.930 . S
C674 C673 1.362 . S
C674 C677 1.409 . S
C675 H667 0.930 . S
C675 C676 1.355 . S
C675 C677 1.415 . S
C676 C675 1.355 . S
C676 C678 1.419 . S
C677 C672 1.425 . S
C677 C674 1.409 . S
C677 C675 1.415 . S
C678 H668 0.930 . S
C678 C676 1.419 . S
C678 C679 1.362 . S
C679 H669 0.930 . S
C679 C672 1.409 . S
C679 C678 1.362 . S
H680 C686 0.930 . S
H681 C689 0.930 . S
H682 C690 0.930 . S
H683 C691 0.930 . S
H684 C694 0.930 . S
H685 C695 0.930 . S
C686 H680 0.930 . S
C686 C687 1.355 . S
C686 C688 1.415 . S
C687 C686 1.355 . S
C687 C689 1.419 . S
C688 C686 1.415 . S
C688 C693 1.425 . S
C688 C695 1.409 . S
C689 H681 0.930 . S
C689 C687 1.419 . S
C689 C690 1.362 . S
C690 H682 0.930 . S
C690 C689 1.362 . S
C690 C693 1.409 . S
C691 H683 0.930 . S
C691 C692 1.355 . S
C691 C693 1.415 . S
C692 C691 1.355 . S
C692 C694 1.419 . S
C693 C688 1.425 . S
C693 C690 1.409 . S
C693 C691 1.415 . S
C694 H684 0.930 . S
C694 C692 1.419 . S
C694 C695 1.362 . S
C695 H685 0.930 . S
C695 C688 1.409 . S
C695 C694 1.362 . S
H696 C702 0.930 . S
H697 C705 0.930 . S
H698 C706 0.930 . S
H699 C707 0.930 . S
H700 C710 0.930 . S
H701 C711 0.930 . S
C702 H696 0.930 . S
C702 C703 1.355 . S
C702 C704 1.415 . S
C703 C702 1.355 . S
C703 C705 1.419 . S
C704 C702 1.415 . S
C704 C709 1.425 . S
C704 C711 1.409 . S
C705 H697 0.930 . S
C705 C703 1.419 . S
C705 C706 1.362 . S
C706 H698 0.930 . S
C706 C705 1.362 . S
C706 C709 1.409 . S
C707 H699 0.930 . S
C707 C708 1.355 . S
C707 C709 1.415 . S
C708 C707 1.355 . S
C708 C710 1.419 . S
C709 C704 1.425 . S
C709 C706 1.409 . S
C709 C707 1.415 . S
C710 H700 0.930 . S
C710 C708 1.419 . S
C710 C711 1.362 . S
C711 H701 0.930 . S
C711 C704 1.409 . S
C711 C710 1.362 . S
H712 C718 0.930 . S
H713 C721 0.930 . S
H714 C722 0.939 . S
H715 C723 0.930 . S
H716 C726 0.930 . S
H717 C727 0.930 . S
C718 H712 0.930 . S
C718 C719 1.355 . S
C718 C720 1.415 . S
C719 C718 1.355 . S
C719 C721 1.419 . S
C720 C718 1.415 . S
C720 C725 1.425 1_545 S
C720 C727 1.409 . S
C721 H713 0.930 . S
C721 C719 1.419 . S
C721 C722 1.358 1_545 S
C722 H714 0.939 . S
C722 C721 1.358 1_565 S
C722 C725 1.405 . S
C723 H715 0.930 . S
C723 C724 1.355 . S
C723 C725 1.415 . S
C724 C723 1.355 . S
C724 C726 1.419 . S
C725 C720 1.425 1_565 S
C725 C722 1.405 . S
C725 C723 1.415 . S
C726 H716 0.930 . S
C726 C724 1.419 . S
C726 C727 1.362 1_565 S
C727 H717 0.930 . S
C727 C720 1.409 . S
C727 C726 1.362 1_545 S
H728 C734 0.929 . S
H729 C737 0.930 . S
H730 C738 0.930 . S
H731 C739 0.930 . S
H732 C742 0.930 . S
H733 C743 0.930 . S
C734 H728 0.929 . S
C734 C735 1.359 1_455 S
C734 C736 1.411 . S
C735 C734 1.359 1_655 S
C735 C737 1.419 . S
C736 C734 1.411 . S
C736 C741 1.425 1_455 S
C736 C743 1.409 . S
C737 H729 0.930 . S
C737 C735 1.419 . S
C737 C738 1.362 . S
C738 H730 0.930 . S
C738 C737 1.362 . S
C738 C741 1.409 . S
C739 H731 0.930 . S
C739 C740 1.355 1_655 S
C739 C741 1.415 . S
C740 C739 1.355 1_455 S
C740 C742 1.419 . S
C741 C736 1.425 1_655 S
C741 C738 1.409 . S
C741 C739 1.415 . S
C742 H732 0.930 . S
C742 C740 1.419 . S
C742 C743 1.362 . S
C743 H733 0.930 . S
C743 C736 1.409 . S
C743 C742 1.362 . S
H744 C750 0.930 . S
H745 C753 0.930 . S
H746 C754 0.930 . S
H747 C755 0.930 . S
H748 C758 0.930 . S
H749 C759 0.930 . S
C750 H744 0.930 . S
C750 C751 1.355 . S
C750 C752 1.415 . S
C751 C750 1.355 . S
C751 C753 1.419 . S
C752 C750 1.415 . S
C752 C757 1.425 . S
C752 C759 1.409 . S
C753 H745 0.930 . S
C753 C751 1.419 . S
C753 C754 1.362 . S
C754 H746 0.930 . S
C754 C753 1.362 . S
C754 C757 1.409 . S
C755 H747 0.930 . S
C755 C756 1.355 . S
C755 C757 1.415 . S
C756 C755 1.355 . S
C756 C758 1.419 . S
C757 C752 1.425 . S
C757 C754 1.409 . S
C757 C755 1.415 . S
C758 H748 0.930 . S
C758 C756 1.419 . S
C758 C759 1.362 . S
C759 H749 0.930 . S
C759 C752 1.409 . S
C759 C758 1.362 . S
H760 C766 0.930 . S
H761 C769 0.930 . S
H762 C770 0.930 . S
H763 C771 0.930 . S
H764 C774 0.930 . S
H765 C775 0.930 . S
C766 H760 0.930 . S
C766 C767 1.355 . S
C766 C768 1.415 1_565 S
C767 C766 1.355 . S
C767 C769 1.419 . S
C768 C766 1.415 1_545 S
C768 C773 1.425 . S
C768 C775 1.409 . S
C769 H761 0.930 . S
C769 C767 1.419 . S
C769 C770 1.362 . S
C770 H762 0.930 . S
C770 C769 1.362 . S
C770 C773 1.409 1_565 S
C771 H763 0.930 . S
C771 C772 1.355 . S
C771 C773 1.415 . S
C772 C771 1.355 . S
C772 C774 1.419 . S
C773 C768 1.425 . S
C773 C770 1.409 1_545 S
C773 C771 1.415 . S
C774 H764 0.930 . S
C774 C772 1.419 . S
C774 C775 1.362 . S
C775 H765 0.930 . S
C775 C768 1.409 . S
C775 C774 1.362 . S
H776 C782 0.930 . S
H777 C785 0.930 . S
H778 C786 0.930 . S
H779 C787 0.930 1_655 S
H780 C790 0.930 . S
H781 C791 0.930 . S
C782 H776 0.930 . S
C782 C783 1.355 . S
C782 C784 1.398 1_655 S
C783 C782 1.355 . S
C783 C785 1.419 . S
C784 C782 1.398 1_455 S
C784 C789 1.397 1_455 S
C784 C791 1.453 . S
C785 H777 0.930 . S
C785 C783 1.419 . S
C785 C786 1.362 . S
C786 H778 0.930 . S
C786 C785 1.362 . S
C786 C789 1.409 . S
C787 H779 0.930 1_455 S
C787 C788 1.355 . S
C787 C789 1.415 1_455 S
C788 C787 1.355 . S
C788 C790 1.419 . S
C789 C784 1.397 1_655 S
C789 C786 1.409 . S
C789 C787 1.415 1_655 S
C790 H780 0.930 . S
C790 C788 1.419 . S
C790 C791 1.362 . S
C791 H781 0.930 . S
C791 C784 1.453 . S
C791 C790 1.362 . S
C367 C9 3.473 . S
C372 C18 3.473 . S
C383 C58 3.555 . S
C388 C49 3.555 . S
C399 C89 3.599 1_556 S
C404 C98 3.599 . S
C415 C138 3.482 . S
C420 C129 3.482 1_556 S
C431 C169 3.566 . S
C436 C178 3.566 1_556 S
C447 C218 3.604 . S
C452 C209 3.604 1_556 S
C463 C246 1.700 . S
C468 C255 1.700 . S
C479 C295 1.937 . S
C484 C286 1.937 . S
C495 C326 1.062 . S
C500 C335 1.062 . S
C511 C210 1.642 . S
C516 C6 1.692 . S
C527 C50 2.702 . S
C532 C130 2.722 . S
C543 C86 1.214 . S
C548 C166 1.211 . S
C559 C90 3.039 . S
C564 C259 3.186 . S
C575 C298 1.259 . S
C580 C10 1.208 1_556 S
C591 C339 2.050 . S
C596 C46 1.872 . S
C607 C329 0.937 . S
C612 C15 0.864 . S
C623 C59 2.251 . S
C628 C249 2.321 . S
C639 C290 3.042 . S
C644 C95 2.849 . S
C655 C99 1.644 . S
C660 C135 1.693 1_545 S
C671 C179 2.681 . S
C676 C19 2.724 . S
C687 C55 1.182 . S
C692 C215 1.181 . S
C703 C338 0.969 . S
C708 C126 0.989 . S
C719 C258 2.342 . S
C724 C170 2.302 . S
C735 C299 3.030 . S
C740 C206 2.797 . S
C751 C250 3.184 . S
C756 C219 3.042 . S
C767 C139 1.136 . S
C772 C289 1.271 . S
C783 C330 2.077 . S
C788 C175 1.907 . S
