# Generated by pormake.
# Topology lta, (4)-cn, num edge types: 1
# Building blocks:
#     Node 0, Type 0, BuildingBlock: NAHDIM_clean_sbu_0, # of connection points: 4
#     Node 1, Type 0, BuildingBlock: NAHDIM_clean_sbu_0, # of connection points: 4
#     Node 2, Type 0, BuildingBlock: NAHDIM_clean_sbu_0, # of connection points: 4
#     Node 3, Type 0, BuildingBlock: NAHDIM_clean_sbu_0, # of connection points: 4
#     Node 4, Type 0, BuildingBlock: NAHDIM_clean_sbu_0, # of connection points: 4
#     Node 5, Type 0, BuildingBlock: NAHDIM_clean_sbu_0, # of connection points: 4
#     Node 6, Type 0, BuildingBlock: NAHDIM_clean_sbu_0, # of connection points: 4
#     Node 7, Type 0, BuildingBlock: NAHDIM_clean_sbu_0, # of connection points: 4
#     Node 8, Type 0, BuildingBlock: NAHDIM_clean_sbu_0, # of connection points: 4
#     Node 9, Type 0, BuildingBlock: NAHDIM_clean_sbu_0, # of connection points: 4
#     Node 10, Type 0, BuildingBlock: NAHDIM_clean_sbu_0, # of connection points: 4
#     Node 11, Type 0, BuildingBlock: NAHDIM_clean_sbu_0, # of connection points: 4
#     Node 12, Type 0, BuildingBlock: NAHDIM_clean_sbu_0, # of connection points: 4
#     Node 13, Type 0, BuildingBlock: NAHDIM_clean_sbu_0, # of connection points: 4
#     Node 14, Type 0, BuildingBlock: NAHDIM_clean_sbu_0, # of connection points: 4
#     Node 15, Type 0, BuildingBlock: NAHDIM_clean_sbu_0, # of connection points: 4
#     Node 16, Type 0, BuildingBlock: NAHDIM_clean_sbu_0, # of connection points: 4
#     Node 17, Type 0, BuildingBlock: NAHDIM_clean_sbu_0, # of connection points: 4
#     Node 18, Type 0, BuildingBlock: NAHDIM_clean_sbu_0, # of connection points: 4
#     Node 19, Type 0, BuildingBlock: NAHDIM_clean_sbu_0, # of connection points: 4
#     Node 20, Type 0, BuildingBlock: NAHDIM_clean_sbu_0, # of connection points: 4
#     Node 21, Type 0, BuildingBlock: NAHDIM_clean_sbu_0, # of connection points: 4
#     Node 22, Type 0, BuildingBlock: NAHDIM_clean_sbu_0, # of connection points: 4
#     Node 23, Type 0, BuildingBlock: NAHDIM_clean_sbu_0, # of connection points: 4
#     Edge 24, Type (0, 0), BuildingBlock: OJICUG_clean_linker_0, # of connection points: 2
#     Edge 25, Type (0, 0), BuildingBlock: OJICUG_clean_linker_0, # of connection points: 2
#     Edge 26, Type (0, 0), BuildingBlock: OJICUG_clean_linker_0, # of connection points: 2
#     Edge 27, Type (0, 0), BuildingBlock: OJICUG_clean_linker_0, # of connection points: 2
#     Edge 28, Type (0, 0), BuildingBlock: OJICUG_clean_linker_0, # of connection points: 2
#     Edge 29, Type (0, 0), BuildingBlock: OJICUG_clean_linker_0, # of connection points: 2
#     Edge 30, Type (0, 0), BuildingBlock: OJICUG_clean_linker_0, # of connection points: 2
#     Edge 31, Type (0, 0), BuildingBlock: OJICUG_clean_linker_0, # of connection points: 2
#     Edge 32, Type (0, 0), BuildingBlock: OJICUG_clean_linker_0, # of connection points: 2
#     Edge 33, Type (0, 0), BuildingBlock: OJICUG_clean_linker_0, # of connection points: 2
#     Edge 34, Type (0, 0), BuildingBlock: OJICUG_clean_linker_0, # of connection points: 2
#     Edge 35, Type (0, 0), BuildingBlock: OJICUG_clean_linker_0, # of connection points: 2
#     Edge 36, Type (0, 0), BuildingBlock: OJICUG_clean_linker_0, # of connection points: 2
#     Edge 37, Type (0, 0), BuildingBlock: OJICUG_clean_linker_0, # of connection points: 2
#     Edge 38, Type (0, 0), BuildingBlock: OJICUG_clean_linker_0, # of connection points: 2
#     Edge 39, Type (0, 0), BuildingBlock: OJICUG_clean_linker_0, # of connection points: 2
#     Edge 40, Type (0, 0), BuildingBlock: OJICUG_clean_linker_0, # of connection points: 2
#     Edge 41, Type (0, 0), BuildingBlock: OJICUG_clean_linker_0, # of connection points: 2
#     Edge 42, Type (0, 0), BuildingBlock: OJICUG_clean_linker_0, # of connection points: 2
#     Edge 43, Type (0, 0), BuildingBlock: OJICUG_clean_linker_0, # of connection points: 2
#     Edge 44, Type (0, 0), BuildingBlock: OJICUG_clean_linker_0, # of connection points: 2
#     Edge 45, Type (0, 0), BuildingBlock: OJICUG_clean_linker_0, # of connection points: 2
#     Edge 46, Type (0, 0), BuildingBlock: OJICUG_clean_linker_0, # of connection points: 2
#     Edge 47, Type (0, 0), BuildingBlock: OJICUG_clean_linker_0, # of connection points: 2
#     Edge 48, Type (0, 0), BuildingBlock: OJICUG_clean_linker_0, # of connection points: 2
#     Edge 49, Type (0, 0), BuildingBlock: OJICUG_clean_linker_0, # of connection points: 2
#     Edge 50, Type (0, 0), BuildingBlock: OJICUG_clean_linker_0, # of connection points: 2
#     Edge 51, Type (0, 0), BuildingBlock: OJICUG_clean_linker_0, # of connection points: 2
#     Edge 52, Type (0, 0), BuildingBlock: OJICUG_clean_linker_0, # of connection points: 2
#     Edge 53, Type (0, 0), BuildingBlock: OJICUG_clean_linker_0, # of connection points: 2
#     Edge 54, Type (0, 0), BuildingBlock: OJICUG_clean_linker_0, # of connection points: 2
#     Edge 55, Type (0, 0), BuildingBlock: OJICUG_clean_linker_0, # of connection points: 2
#     Edge 56, Type (0, 0), BuildingBlock: OJICUG_clean_linker_0, # of connection points: 2
#     Edge 57, Type (0, 0), BuildingBlock: OJICUG_clean_linker_0, # of connection points: 2
#     Edge 58, Type (0, 0), BuildingBlock: OJICUG_clean_linker_0, # of connection points: 2
#     Edge 59, Type (0, 0), BuildingBlock: OJICUG_clean_linker_0, # of connection points: 2
#     Edge 60, Type (0, 0), BuildingBlock: OJICUG_clean_linker_0, # of connection points: 2
#     Edge 61, Type (0, 0), BuildingBlock: OJICUG_clean_linker_0, # of connection points: 2
#     Edge 62, Type (0, 0), BuildingBlock: OJICUG_clean_linker_0, # of connection points: 2
#     Edge 63, Type (0, 0), BuildingBlock: OJICUG_clean_linker_0, # of connection points: 2
#     Edge 64, Type (0, 0), BuildingBlock: OJICUG_clean_linker_0, # of connection points: 2
#     Edge 65, Type (0, 0), BuildingBlock: OJICUG_clean_linker_0, # of connection points: 2
#     Edge 66, Type (0, 0), BuildingBlock: OJICUG_clean_linker_0, # of connection points: 2
#     Edge 67, Type (0, 0), BuildingBlock: OJICUG_clean_linker_0, # of connection points: 2
#     Edge 68, Type (0, 0), BuildingBlock: OJICUG_clean_linker_0, # of connection points: 2
#     Edge 69, Type (0, 0), BuildingBlock: OJICUG_clean_linker_0, # of connection points: 2
#     Edge 70, Type (0, 0), BuildingBlock: OJICUG_clean_linker_0, # of connection points: 2
#     Edge 71, Type (0, 0), BuildingBlock: OJICUG_clean_linker_0, # of connection points: 2
# Relax obj value: 0.178
# Max RMSD: 0.072
# Mean RMSD: 0.072
data_MOF--net-lta--node1-NAHDIM_clean_sbu_0--edge1-OJICUG_clean_linker_0
_symmetry_space_group_name_H-M    P1
_symmetry_Int_Tables_number       1
_symmetry_cell_setting            triclinic
loop_
_symmetry_equiv_pos_as_xyz
'x, y, z'
_cell_length_a     42.227228
_cell_length_b     42.228007
_cell_length_c     42.297828
_cell_angle_alpha  89.98787
_cell_angle_beta   89.99611
_cell_angle_gamma 89.957944
loop_
_atom_site_label
_atom_site_type_symbol
_atom_site_fract_x
_atom_site_fract_y
_atom_site_fract_z
_atom_type_partial_charge
C0 C 0.16433 0.25994 0.49811 0.0
O1 O 0.1554 0.26939 0.52632 0.0
O2 O 0.13386 0.33325 0.52205 0.0
Zn3 Zn 0.12805 0.31399 0.47892 0.0
O4 O 0.14069 0.34654 0.44656 0.0
C5 C 0.06472 0.32977 0.47947 0.0
O6 O 0.07916 0.35694 0.4841 0.0
O7 O 0.1547 0.27497 0.47394 0.0
C8 C 0.12999 0.34694 0.41851 0.0
O9 O 0.1104 0.32457 0.40941 0.0
C10 C 0.15264 0.3562 0.52697 0.0
O11 O 0.17066 0.36632 0.50376 0.0
O12 O 0.08145 0.30512 0.47513 0.0
C13 C 0.71797 0.17269 0.48895 0.0
O14 O 0.68785 0.17917 0.48462 0.0
O15 O 0.67008 0.11381 0.54198 0.0
Zn16 Zn 0.6911 0.11242 0.49918 0.0
O17 O 0.65776 0.12214 0.46667 0.0
C18 C 0.71824 0.05198 0.5147 0.0
O19 O 0.72208 0.06544 0.54244 0.0
O20 O 0.72599 0.14455 0.49599 0.0
C21 C 0.65791 0.11198 0.43842 0.0
O22 O 0.68119 0.09367 0.42887 0.0
C23 C 0.64637 0.13173 0.54683 0.0
O24 O 0.63699 0.15089 0.52422 0.0
O25 O 0.70684 0.06819 0.49208 0.0
C26 C 0.79369 0.70832 0.49132 0.0
O27 O 0.78162 0.68536 0.50848 0.0
O28 O 0.83513 0.64046 0.52079 0.0
Zn29 Zn 0.84004 0.66094 0.47803 0.0
O30 O 0.82217 0.63305 0.444 0.0
C31 C 0.90388 0.68204 0.48855 0.0
O32 O 0.8905 0.69814 0.51153 0.0
O33 O 0.81924 0.70345 0.47631 0.0
C34 C 0.82779 0.63926 0.41517 0.0
O35 O 0.84415 0.66477 0.40814 0.0
C36 C 0.82349 0.6129 0.52397 0.0
O37 O 0.81233 0.59817 0.499 0.0
O38 O 0.88669 0.66521 0.47053 0.0
C39 C 0.23918 0.83099 0.50846 0.0
O40 O 0.24609 0.83831 0.53784 0.0
O41 O 0.3149 0.86205 0.53597 0.0
Zn42 Zn 0.29584 0.8668 0.4926 0.0
O43 O 0.32834 0.85321 0.46083 0.0
C44 C 0.27944 0.93075 0.50848 0.0
O45 O 0.27706 0.9186 0.53697 0.0
O46 O 0.25691 0.84071 0.48628 0.0
C47 C 0.32487 0.85899 0.43158 0.0
O48 O 0.29932 0.87394 0.42197 0.0
C49 C 0.33511 0.84054 0.5418 0.0
O50 O 0.34148 0.81943 0.51988 0.0
O51 O 0.2863 0.91275 0.48541 0.0
C52 C 0.14137 0.74072 0.47836 0.0
O53 O 0.13436 0.73442 0.44876 0.0
O54 O 0.11387 0.66856 0.44599 0.0
Zn55 Zn 0.10515 0.68426 0.49012 0.0
O56 O 0.11833 0.64992 0.52 0.0
C57 C 0.04012 0.67309 0.47983 0.0
O58 O 0.05269 0.64974 0.46358 0.0
O59 O 0.13061 0.72297 0.50005 0.0
C60 C 0.11562 0.65175 0.54982 0.0
O61 O 0.10273 0.67709 0.56247 0.0
C62 C 0.13604 0.64886 0.44087 0.0
O63 O 0.15506 0.64104 0.46418 0.0
O64 O 0.05832 0.69213 0.49437 0.0
C65 C 0.26118 0.16441 0.48466 0.0
O66 O 0.26801 0.15209 0.45696 0.0
O67 O 0.33517 0.12814 0.46292 0.0
Zn68 Zn 0.31412 0.12667 0.50563 0.0
O69 O 0.34676 0.13741 0.53848 0.0
C70 C 0.28939 0.06543 0.49004 0.0
O71 O 0.28835 0.07782 0.46157 0.0
O72 O 0.2778 0.15696 0.50854 0.0
C73 C 0.34585 0.12627 0.56636 0.0
O74 O 0.32222 0.10779 0.57458 0.0
C75 C 0.35893 0.14585 0.45781 0.0
O76 O 0.36863 0.16503 0.48025 0.0
O77 O 0.29892 0.08229 0.513 0.0
C78 C 0.81003 0.27338 0.4819 0.0
O79 O 0.80005 0.30287 0.48144 0.0
O80 O 0.85576 0.33797 0.45262 0.0
Zn81 Zn 0.86544 0.30755 0.48838 0.0
O82 O 0.85319 0.3284 0.52932 0.0
C83 C 0.92822 0.32577 0.4887 0.0
O84 O 0.91271 0.35257 0.49184 0.0
O85 O 0.83958 0.26811 0.484 0.0
C86 C 0.8686 0.32749 0.55507 0.0
O87 O 0.89459 0.31045 0.55681 0.0
C88 C 0.84564 0.36578 0.45833 0.0
O89 O 0.83937 0.37393 0.48762 0.0
O90 O 0.91255 0.30011 0.4873 0.0
C91 C 0.72424 0.82481 0.47393 0.0
O92 O 0.73416 0.84663 0.45412 0.0
O93 O 0.64787 0.86149 0.43755 0.0
Zn94 Zn 0.66959 0.8655 0.47953 0.0
O95 O 0.63574 0.86784 0.51285 0.0
C96 C 0.7057 0.91727 0.50518 0.0
O97 O 0.70491 0.89996 0.53099 0.0
O98 O 0.69765 0.82823 0.48744 0.0
C99 C 0.63446 0.85033 0.53726 0.0
O100 O 0.65675 0.82918 0.54215 0.0
C101 C 0.62395 0.84343 0.43506 0.0
O102 O 0.61531 0.82636 0.45956 0.0
O103 O 0.69341 0.90645 0.48 0.0
C104 C 0.4928 0.17692 0.28706 0.0
O105 O 0.4912 0.18609 0.3167 0.0
O106 O 0.54209 0.1174 0.3373 0.0
Zn107 Zn 0.49884 0.11741 0.31726 0.0
O108 O 0.46681 0.12984 0.35021 0.0
C109 C 0.50714 0.05891 0.28308 0.0
O110 O 0.53149 0.07378 0.27071 0.0
O111 O 0.49662 0.14773 0.28097 0.0
C112 C 0.43794 0.1215 0.34917 0.0
O113 O 0.42798 0.10403 0.32548 0.0
C114 C 0.54779 0.13507 0.36094 0.0
O115 O 0.52573 0.15463 0.37087 0.0
O116 O 0.48958 0.07331 0.30279 0.0
C117 C 0.82609 0.49566 0.24178 0.0
O118 O 0.83029 0.52591 0.24771 0.0
O119 O 0.84499 0.53097 0.31451 0.0
Zn120 Zn 0.86116 0.48875 0.29932 0.0
O121 O 0.85432 0.45544 0.33293 0.0
C122 C 0.92268 0.50879 0.31351 0.0
O123 O 0.90639 0.52085 0.33705 0.0
O124 O 0.83827 0.47527 0.26018 0.0
C125 C 0.85298 0.4623 0.36217 0.0
O126 O 0.85614 0.49191 0.37106 0.0
C127 C 0.81902 0.53548 0.32896 0.0
O128 O 0.79936 0.51168 0.33278 0.0
O129 O 0.90813 0.49323 0.29227 0.0
C130 C 0.49025 0.80999 0.26453 0.0
O131 O 0.50101 0.79964 0.29179 0.0
O132 O 0.43381 0.85703 0.32437 0.0
Zn133 Zn 0.47554 0.86358 0.30254 0.0
O134 O 0.51039 0.8522 0.33303 0.0
C135 C 0.49453 0.92359 0.27204 0.0
O136 O 0.51198 0.90656 0.25274 0.0
O137 O 0.47804 0.83744 0.26305 0.0
C138 C 0.53931 0.85957 0.32934 0.0
O139 O 0.54796 0.87513 0.30388 0.0
C140 C 0.43123 0.83937 0.34855 0.0
O141 O 0.4559 0.82298 0.3581 0.0
O142 O 0.47814 0.90996 0.29321 0.0
C143 C 0.15561 0.49167 0.24398 0.0
O144 O 0.14569 0.46295 0.25063 0.0
O145 O 0.12918 0.46458 0.32014 0.0
Zn146 Zn 0.12273 0.50797 0.30143 0.0
O147 O 0.13532 0.54099 0.33329 0.0
C148 C 0.05901 0.51451 0.31726 0.0
O149 O 0.07271 0.51546 0.34514 0.0
O150 O 0.1482 0.51438 0.26217 0.0
C151 C 0.12605 0.56951 0.3308 0.0
O152 O 0.10861 0.57774 0.30641 0.0
C153 C 0.14743 0.45967 0.34351 0.0
O154 O 0.16458 0.48315 0.35451 0.0
O155 O 0.07618 0.51182 0.29275 0.0
C156 C 0.50928 0.82342 0.72751 0.0
O157 O 0.53634 0.83539 0.71793 0.0
O158 O 0.52483 0.845 0.64645 0.0
Zn159 Zn 0.48584 0.85446 0.67195 0.0
O160 O 0.44839 0.84439 0.64434 0.0
C161 C 0.47533 0.91442 0.70601 0.0
O162 O 0.45825 0.89791 0.72607 0.0
O163 O 0.4844 0.82852 0.71144 0.0
C164 C 0.42185 0.85854 0.64541 0.0
O165 O 0.41741 0.8811 0.66632 0.0
C166 C 0.52765 0.86218 0.62194 0.0
O167 O 0.50554 0.88321 0.61577 0.0
O168 O 0.48785 0.90073 0.68238 0.0
C169 C 0.17306 0.51388 0.71998 0.0
O170 O 0.16567 0.54236 0.70986 0.0
O171 O 0.13454 0.53762 0.65025 0.0
Zn172 Zn 0.13153 0.49417 0.66986 0.0
O173 O 0.14314 0.46186 0.63707 0.0
C174 C 0.06491 0.50195 0.6683 0.0
O175 O 0.07303 0.52023 0.64453 0.0
O176 O 0.1609 0.48987 0.70665 0.0
C177 C 0.13373 0.43333 0.63776 0.0
O178 O 0.1157 0.4238 0.66122 0.0
C179 C 0.14855 0.54209 0.62406 0.0
O180 O 0.16403 0.51853 0.61093 0.0
O181 O 0.08637 0.48731 0.68351 0.0
C182 C 0.48538 0.1491 0.7392 0.0
O183 O 0.45679 0.14181 0.72936 0.0
O184 O 0.46157 0.11672 0.66613 0.0
Zn185 Zn 0.50421 0.11045 0.68634 0.0
O186 O 0.53755 0.12193 0.65442 0.0
C187 C 0.48659 0.05033 0.71288 0.0
O188 O 0.46362 0.06712 0.72549 0.0
O189 O 0.50923 0.13775 0.72482 0.0
C190 C 0.56523 0.11012 0.65452 0.0
O191 O 0.57304 0.0898 0.67673 0.0
C192 C 0.457 0.13731 0.64471 0.0
O193 O 0.48032 0.15623 0.63663 0.0
O194 O 0.50764 0.06424 0.69652 0.0
C195 C 0.83415 0.46898 0.7286 0.0
O196 O 0.84301 0.44008 0.72127 0.0
O197 O 0.86704 0.44055 0.65624 0.0
Zn198 Zn 0.86688 0.48565 0.67106 0.0
O199 O 0.84803 0.51232 0.63665 0.0
C200 C 0.93191 0.48118 0.69036 0.0
O201 O 0.92219 0.45489 0.70384 0.0
O202 O 0.84218 0.49184 0.71086 0.0
C203 C 0.84998 0.54231 0.63751 0.0
O204 O 0.86373 0.55589 0.66185 0.0
C205 C 0.8436 0.42923 0.64125 0.0
O206 O 0.81803 0.44666 0.63781 0.0
O207 O 0.91196 0.49875 0.67633 0.0
C208 C 0.24938 0.51308 0.14735 0.0
O209 O 0.2584 0.54187 0.1398 0.0
O210 O 0.32472 0.53646 0.11562 0.0
Zn211 Zn 0.30363 0.49405 0.11023 0.0
O212 O 0.33485 0.46084 0.12338 0.0
C213 C 0.28773 0.51208 0.04701 0.0
O214 O 0.28688 0.54035 0.05993 0.0
O215 O 0.26489 0.48955 0.13694 0.0
C216 C 0.33083 0.43149 0.11829 0.0
O217 O 0.30511 0.42195 0.10364 0.0
C218 C 0.34496 0.541 0.13736 0.0
O219 O 0.35027 0.51835 0.158 0.0
O220 O 0.29341 0.48815 0.06433 0.0
C221 C 0.26974 0.49618 0.81463 0.0
O222 O 0.27438 0.46835 0.82772 0.0
O223 O 0.341 0.46823 0.84899 0.0
Zn224 Zn 0.32388 0.51255 0.85169 0.0
O225 O 0.359 0.54302 0.84194 0.0
C226 C 0.29759 0.49694 0.91219 0.0
O227 O 0.29471 0.46894 0.89898 0.0
O228 O 0.2882 0.5189 0.82142 0.0
C229 C 0.35981 0.57047 0.85416 0.0
O230 O 0.3367 0.57943 0.87294 0.0
C231 C 0.36323 0.46045 0.83032 0.0
O232 O 0.3749 0.48176 0.81091 0.0
O233 O 0.30886 0.51971 0.89611 0.0
C234 C 0.50361 0.24878 0.83058 0.0
O235 O 0.53205 0.25603 0.84085 0.0
O236 O 0.53074 0.3231 0.86018 0.0
Zn237 Zn 0.48604 0.30678 0.86216 0.0
O238 O 0.45746 0.34065 0.84488 0.0
C239 C 0.48994 0.2829 0.92679 0.0
O240 O 0.51349 0.26557 0.91614 0.0
O241 O 0.48048 0.26681 0.83727 0.0
C242 C 0.42874 0.34302 0.85345 0.0
O243 O 0.41698 0.32188 0.87299 0.0
C244 C 0.53866 0.34337 0.83943 0.0
O245 O 0.51794 0.35185 0.81787 0.0
O246 O 0.47491 0.30072 0.9078 0.0
C247 C 0.74159 0.49177 0.82604 0.0
O248 O 0.73472 0.52069 0.83522 0.0
O249 O 0.67081 0.52003 0.86192 0.0
Zn250 Zn 0.68694 0.47525 0.86336 0.0
O251 O 0.65225 0.44559 0.85004 0.0
C252 C 0.7151 0.48526 0.92417 0.0
O253 O 0.72761 0.50994 0.90997 0.0
O254 O 0.72457 0.46887 0.83544 0.0
C255 C 0.65151 0.41725 0.8601 0.0
O256 O 0.6741 0.40723 0.87898 0.0
C257 C 0.64948 0.52899 0.84274 0.0
O258 O 0.6386 0.50884 0.82172 0.0
O259 O 0.6979 0.46635 0.90838 0.0
C260 C 0.50314 0.73573 0.83181 0.0
O261 O 0.47572 0.72771 0.84409 0.0
O262 O 0.48103 0.66352 0.86523 0.0
Zn263 Zn 0.52433 0.68296 0.86857 0.0
O264 O 0.55543 0.64943 0.85537 0.0
C265 C 0.50812 0.70412 0.93072 0.0
O266 O 0.4803 0.70766 0.91727 0.0
O267 O 0.52779 0.72035 0.8396 0.0
C268 C 0.58239 0.6453 0.86801 0.0
O269 O 0.59166 0.66448 0.89064 0.0
C270 C 0.47436 0.64392 0.84346 0.0
O271 O 0.49588 0.63708 0.82209 0.0
O272 O 0.53142 0.69494 0.91403 0.0
C273 C 0.73169 0.45536 0.15217 0.0
O274 O 0.72959 0.42591 0.14239 0.0
O275 O 0.65401 0.42241 0.12669 0.0
Zn276 Zn 0.67323 0.46485 0.11725 0.0
O277 O 0.63974 0.49782 0.12438 0.0
C278 C 0.70826 0.4806 0.05988 0.0
O279 O 0.72535 0.49905 0.07815 0.0
O280 O 0.71036 0.47508 0.14451 0.0
C281 C 0.64318 0.52689 0.11751 0.0
O282 O 0.66978 0.53645 0.10456 0.0
C283 C 0.63153 0.42032 0.14653 0.0
O284 O 0.62381 0.44538 0.16325 0.0
O285 O 0.68571 0.46465 0.07172 0.0
C286 C 0.48964 0.72653 0.15646 0.0
O287 O 0.47254 0.73321 0.13138 0.0
O288 O 0.53814 0.63943 0.12391 0.0
Zn289 Zn 0.49924 0.66693 0.12461 0.0
O290 O 0.4617 0.63942 0.13461 0.0
C291 C 0.51886 0.69405 0.0659 0.0
O292 O 0.54674 0.69177 0.07951 0.0
O293 O 0.50356 0.69993 0.15818 0.0
C294 C 0.43433 0.64296 0.12265 0.0
O295 O 0.42928 0.66632 0.10276 0.0
C296 C 0.53913 0.6132 0.13858 0.0
O297 O 0.5147 0.60446 0.1557 0.0
O298 O 0.49434 0.68596 0.08132 0.0
C299 C 0.47968 0.26857 0.18661 0.0
O300 O 0.47901 0.29891 0.19344 0.0
O301 O 0.43573 0.31967 0.1306 0.0
Zn302 Zn 0.47704 0.29579 0.12666 0.0
O303 O 0.51283 0.32535 0.13671 0.0
C304 C 0.47095 0.3 0.06072 0.0
O305 O 0.45792 0.32671 0.06993 0.0
O306 O 0.47852 0.26014 0.15781 0.0
C307 C 0.54161 0.31933 0.13043 0.0
O308 O 0.54889 0.29267 0.11615 0.0
C309 C 0.43458 0.34652 0.14413 0.0
O310 O 0.46011 0.35759 0.15798 0.0
O311 O 0.48172 0.28109 0.08151 0.0
C312 C 0.16249 0.42519 0.38927 0.0
C313 C 0.14601 0.42915 0.36068 0.0
H314 H 0.17044 0.39611 0.42989 0.0
C315 C 0.12621 0.40461 0.35 0.0
H316 H 0.178 0.44357 0.39813 0.0
C317 C 0.12188 0.37732 0.36823 0.0
C318 C 0.13719 0.37406 0.39754 0.0
H319 H 0.11327 0.40684 0.32801 0.0
H320 H 0.10575 0.35928 0.35978 0.0
C321 C 0.15809 0.39797 0.40752 0.0
C322 C 0.60802 0.14161 0.42671 0.0
C323 C 0.63114 0.11962 0.41721 0.0
H324 H 0.56386 0.164 0.41626 0.0
C325 C 0.62771 0.10429 0.38793 0.0
H326 H 0.61008 0.15403 0.44903 0.0
C327 C 0.60105 0.10996 0.36911 0.0
C328 C 0.57744 0.13122 0.37915 0.0
H329 H 0.64516 0.0873 0.37989 0.0
H330 H 0.59864 0.09718 0.34704 0.0
C331 C 0.58153 0.14741 0.40786 0.0
C332 C 0.80085 0.58952 0.39746 0.0
C333 C 0.82041 0.61556 0.39055 0.0
H334 H 0.7844 0.54386 0.38283 0.0
C335 C 0.83543 0.61704 0.36096 0.0
H336 H 0.78872 0.58787 0.41997 0.0
C337 C 0.83315 0.59175 0.33984 0.0
C338 C 0.81542 0.56473 0.3477 0.0
H339 H 0.85051 0.63686 0.35484 0.0
H340 H 0.84653 0.59268 0.318 0.0
C341 C 0.79819 0.56441 0.3761 0.0
C342 C 0.35001 0.86305 0.37812 0.0
C343 C 0.35048 0.85108 0.4091 0.0
H344 H 0.37515 0.86859 0.33454 0.0
C345 C 0.3765 0.83278 0.41896 0.0
H346 H 0.33025 0.87711 0.36977 0.0
C347 C 0.40211 0.82768 0.3987 0.0
C348 C 0.40236 0.841 0.36826 0.0
H349 H 0.37745 0.82298 0.44261 0.0
H350 H 0.4222 0.81429 0.40737 0.0
C351 C 0.37575 0.85816 0.35793 0.0
C352 C 0.12612 0.59692 0.61994 0.0
C353 C 0.1432 0.57178 0.60632 0.0
H354 H 0.10407 0.64208 0.61278 0.0
C355 C 0.15279 0.57415 0.57462 0.0
H356 H 0.11843 0.59582 0.64434 0.0
C357 C 0.1443 0.60044 0.55651 0.0
C358 C 0.12627 0.62507 0.56978 0.0
H359 H 0.16599 0.55523 0.5634 0.0
H360 H 0.15146 0.60117 0.53193 0.0
C361 C 0.11785 0.6234 0.60186 0.0
C362 C 0.37487 0.11486 0.61673 0.0
C363 C 0.37267 0.13171 0.58817 0.0
H364 H 0.40321 0.10351 0.65711 0.0
C365 C 0.39732 0.15242 0.57973 0.0
H366 H 0.35624 0.0988 0.62397 0.0
C367 C 0.42417 0.15526 0.59881 0.0
C368 C 0.42704 0.13727 0.6266 0.0
H369 H 0.39626 0.16591 0.55797 0.0
H370 H 0.44313 0.17074 0.59116 0.0
C371 C 0.40182 0.11755 0.63571 0.0
C372 C 0.82479 0.39081 0.60046 0.0
C373 C 0.84738 0.39949 0.62321 0.0
H374 H 0.81373 0.36101 0.56115 0.0
C375 C 0.87523 0.3814 0.62604 0.0
H376 H 0.803 0.40409 0.59779 0.0
C377 C 0.88135 0.35655 0.60507 0.0
C378 C 0.85982 0.3495 0.58078 0.0
H379 H 0.893 0.38733 0.64354 0.0
H380 H 0.90369 0.34406 0.60688 0.0
C381 C 0.83099 0.36614 0.57939 0.0
C382 C 0.57923 0.83671 0.60671 0.0
C383 C 0.55523 0.85898 0.60064 0.0
H384 H 0.62321 0.81649 0.59146 0.0
C385 C 0.55773 0.87847 0.57384 0.0
H386 H 0.57799 0.82137 0.62721 0.0
C387 C 0.58354 0.87572 0.55347 0.0
C388 C 0.6075 0.85339 0.55938 0.0
H389 H 0.5397 0.89591 0.56848 0.0
H390 H 0.58459 0.89109 0.53298 0.0
C391 C 0.60514 0.83393 0.58626 0.0
C392 C 0.40713 0.1571 0.42532 0.0
C393 C 0.37761 0.1421 0.42846 0.0
H394 H 0.44932 0.16234 0.39786 0.0
C395 C 0.36718 0.12183 0.40423 0.0
H396 H 0.41585 0.1729 0.44351 0.0
C397 C 0.38635 0.11586 0.37794 0.0
C398 C 0.41642 0.12985 0.37548 0.0
H399 H 0.34449 0.10999 0.40589 0.0
H400 H 0.37796 0.09957 0.36004 0.0
C401 C 0.42637 0.15096 0.39918 0.0
C402 C 0.8505 0.38167 0.40139 0.0
C403 C 0.84475 0.38993 0.43307 0.0
H404 H 0.8574 0.39812 0.35397 0.0
C405 C 0.8401 0.42195 0.44082 0.0
H406 H 0.85412 0.35719 0.39467 0.0
C407 C 0.84228 0.44534 0.41765 0.0
C408 C 0.84886 0.43721 0.38614 0.0
H409 H 0.83561 0.42914 0.46499 0.0
H410 H 0.83919 0.46985 0.42455 0.0
C411 C 0.85238 0.40511 0.3781 0.0
C412 C 0.5536 0.83381 0.38064 0.0
C413 C 0.56235 0.85279 0.35478 0.0
H414 H 0.56634 0.81562 0.42607 0.0
C415 C 0.59264 0.86654 0.35437 0.0
H416 H 0.53052 0.82266 0.38156 0.0
C417 C 0.61317 0.8626 0.38 0.0
C418 C 0.60389 0.84465 0.40643 0.0
H419 H 0.60013 0.8812 0.33474 0.0
H420 H 0.63598 0.87431 0.37944 0.0
C421 C 0.57419 0.82969 0.40614 0.0
C422 C 0.11711 0.6398 0.38549 0.0
C423 C 0.13696 0.63115 0.41073 0.0
H424 H 0.09834 0.62726 0.34019 0.0
C425 C 0.15548 0.60362 0.40803 0.0
H426 H 0.10265 0.66096 0.38679 0.0
C427 C 0.15279 0.58417 0.38147 0.0
C428 C 0.13177 0.59201 0.35693 0.0
H429 H 0.17106 0.59631 0.42702 0.0
H430 H 0.16651 0.5625 0.38062 0.0
C431 C 0.11465 0.6205 0.35877 0.0
C432 C 0.34924 0.86617 0.59338 0.0
C433 C 0.35472 0.84238 0.57074 0.0
H434 H 0.36604 0.88983 0.63488 0.0
C435 C 0.38089 0.82219 0.5746 0.0
H436 H 0.3292 0.88205 0.59118 0.0
C437 C 0.40206 0.82676 0.59954 0.0
C438 C 0.39746 0.85154 0.62128 0.0
H439 H 0.38575 0.80356 0.55768 0.0
H440 H 0.42255 0.8114 0.60122 0.0
C441 C 0.37037 0.87065 0.61843 0.0
C442 C 0.16186 0.42184 0.587 0.0
C443 C 0.14114 0.41196 0.61108 0.0
H444 H 0.1821 0.41179 0.54176 0.0
C445 C 0.12642 0.38226 0.60851 0.0
H446 H 0.17379 0.4445 0.58837 0.0
C447 C 0.13114 0.36351 0.5817 0.0
C448 C 0.15082 0.37402 0.557 0.0
H449 H 0.11044 0.3739 0.62672 0.0
H450 H 0.11865 0.34118 0.57995 0.0
C451 C 0.16672 0.40303 0.56029 0.0
C452 C 0.6164 0.10135 0.62568 0.0
C453 C 0.5875 0.11762 0.62857 0.0
H454 H 0.65781 0.09311 0.59763 0.0
C455 C 0.57934 0.14022 0.60555 0.0
H456 H 0.62343 0.08387 0.64306 0.0
C457 C 0.59908 0.14561 0.57962 0.0
C458 C 0.62737 0.12844 0.57604 0.0
H459 H 0.55734 0.15334 0.60717 0.0
H460 H 0.59167 0.16264 0.56195 0.0
C461 C 0.63612 0.10666 0.59964 0.0
C462 C 0.8247 0.54672 0.58418 0.0
C463 C 0.83975 0.56133 0.60997 0.0
H464 H 0.80739 0.55164 0.53693 0.0
C465 C 0.84668 0.59382 0.60831 0.0
H466 H 0.8188 0.52176 0.5848 0.0
C467 C 0.84018 0.61097 0.5808 0.0
C468 C 0.82651 0.59598 0.55444 0.0
H469 H 0.85812 0.60582 0.62784 0.0
H470 H 0.8468 0.63573 0.57986 0.0
C471 C 0.81809 0.56388 0.55673 0.0
C472 C 0.35466 0.37708 0.11708 0.0
C473 C 0.35583 0.40871 0.12733 0.0
H474 H 0.37863 0.33245 0.11447 0.0
C475 C 0.3819 0.41885 0.14534 0.0
H476 H 0.33484 0.36852 0.10327 0.0
C477 C 0.40683 0.39819 0.15192 0.0
C478 C 0.40636 0.36696 0.1405 0.0
H479 H 0.38339 0.44299 0.15385 0.0
H480 H 0.42691 0.40706 0.16515 0.0
C481 C 0.37974 0.35641 0.12354 0.0
C482 C 0.4198 0.63605 0.86517 0.0
C483 C 0.44379 0.62692 0.84401 0.0
H484 H 0.37428 0.62557 0.88474 0.0
C485 C 0.43898 0.60032 0.82467 0.0
H486 H 0.42273 0.65657 0.88026 0.0
C487 C 0.4113 0.58243 0.8274 0.0
C488 C 0.38777 0.59095 0.84932 0.0
H489 H 0.45698 0.5927 0.80809 0.0
H490 H 0.40866 0.56156 0.81274 0.0
C491 C 0.392 0.61832 0.8677 0.0
C492 C 0.42262 0.39371 0.82331 0.0
C493 C 0.4101 0.37129 0.84449 0.0
H494 H 0.41745 0.43935 0.80194 0.0
C495 C 0.38064 0.37728 0.85871 0.0
H496 H 0.44518 0.3897 0.8118 0.0
C497 C 0.36483 0.4058 0.85316 0.0
C498 C 0.37805 0.42885 0.83313 0.0
H499 H 0.37029 0.36045 0.87503 0.0
H500 H 0.34265 0.41014 0.8653 0.0
C501 C 0.4067 0.42216 0.81761 0.0
C502 C 0.6195 0.36817 0.86907 0.0
C503 C 0.62424 0.39665 0.85256 0.0
H504 H 0.58871 0.32889 0.87784 0.0
C505 C 0.60184 0.40605 0.82984 0.0
H506 H 0.63638 0.36023 0.88666 0.0
C507 C 0.57468 0.38794 0.82458 0.0
C508 C 0.56921 0.36024 0.84215 0.0
H509 H 0.60493 0.42776 0.81655 0.0
H510 H 0.55747 0.3963 0.80752 0.0
C511 C 0.59218 0.35022 0.86403 0.0
C512 C 0.6455 0.58157 0.86994 0.0
C513 C 0.63451 0.56044 0.8467 0.0
H514 H 0.63781 0.62505 0.89479 0.0
C515 C 0.60771 0.56874 0.82885 0.0
H516 H 0.66619 0.57596 0.88402 0.0
C517 C 0.59141 0.59684 0.83509 0.0
C518 C 0.6016 0.61732 0.85926 0.0
H519 H 0.59869 0.55307 0.8107 0.0
H520 H 0.57031 0.60208 0.82149 0.0
C521 C 0.62924 0.60974 0.87613 0.0
C522 C 0.59054 0.53987 0.14129 0.0
C523 C 0.61721 0.54949 0.12388 0.0
H524 H 0.54518 0.55251 0.15987 0.0
C525 C 0.61855 0.58065 0.11234 0.0
H526 H 0.58885 0.51605 0.15066 0.0
C527 C 0.5934 0.60156 0.11753 0.0
C528 C 0.56653 0.59176 0.13456 0.0
H529 H 0.63879 0.58879 0.09888 0.0
H530 H 0.5949 0.62529 0.10792 0.0
C531 C 0.56553 0.56081 0.14667 0.0
C532 C 0.35991 0.59366 0.11443 0.0
C533 C 0.36549 0.56935 0.13648 0.0
H534 H 0.37715 0.63621 0.09294 0.0
C535 C 0.39247 0.57108 0.15583 0.0
H536 H 0.33924 0.5931 0.09927 0.0
C537 C 0.41428 0.59563 0.15204 0.0
C538 C 0.40946 0.61913 0.12898 0.0
H539 H 0.39744 0.55281 0.17312 0.0
H540 H 0.43535 0.59568 0.16664 0.0
C541 C 0.38163 0.61838 0.1108 0.0
C542 C 0.58106 0.39337 0.16144 0.0
C543 C 0.61061 0.39226 0.14621 0.0
H544 H 0.53607 0.37125 0.16825 0.0
C545 C 0.61838 0.3655 0.12799 0.0
H546 H 0.57434 0.41359 0.17569 0.0
C547 C 0.59641 0.34109 0.12383 0.0
C548 C 0.56619 0.34315 0.13755 0.0
H549 H 0.64102 0.36389 0.11606 0.0
H550 H 0.60268 0.32125 0.10885 0.0
C551 C 0.55903 0.36916 0.15702 0.0
C552 C 0.01362 0.29913 0.47884 0.0
C553 C 0.02978 0.32817 0.48098 0.0
H554 H 0.96867 0.27545 0.47978 0.0
C555 C 0.01226 0.35607 0.48557 0.0
H556 H 0.0265 0.27721 0.47539 0.0
C557 C 0.9794 0.35505 0.48815 0.0
C558 C 0.96315 0.32611 0.4862 0.0
H559 H 0.02391 0.37884 0.48734 0.0
H560 H 0.96677 0.3771 0.49172 0.0
C561 C 0.98055 0.29811 0.48146 0.0
C562 C 0.72624 -0.00202 0.5379 0.0
C563 C 0.72139 0.01728 0.51125 0.0
H564 H 0.72533 0.95099 0.55688 0.0
C565 C 0.71598 0.00289 0.48179 0.0
H566 H 0.7307 0.00832 0.5609 0.0
C567 C 0.71296 0.97007 0.47948 0.0
C568 C 0.71522 0.95094 0.50659 0.0
H569 H 0.71251 0.01706 0.46072 0.0
H570 H 0.70726 0.9599 0.45668 0.0
C571 C 0.72315 0.96509 0.5356 0.0
C572 C 0.95813 0.7004 0.50433 0.0
C573 C 0.93874 0.6813 0.4852 0.0
H574 H 0.00548 0.71294 0.51758 0.0
C575 C 0.95301 0.66037 0.46366 0.0
H576 H 0.94785 0.7168 0.52113 0.0
C577 C 0.98591 0.658 0.46181 0.0
C578 C 0.00533 0.67667 0.48128 0.0
H579 H 0.93878 0.64532 0.44856 0.0
H580 H -0.00392 0.64133 0.44521 0.0
C581 C 0.99113 0.69819 0.5023 0.0
C582 C 0.28033 0.01096 0.46871 0.0
C583 C 0.283 0.03137 0.49479 0.0
H584 H 0.27709 0.96305 0.45258 0.0
C585 C 0.28166 0.0186 0.52545 0.0
H586 H 0.28119 0.02007 0.44479 0.0
C587 C 0.27904 0.98593 0.52991 0.0
C588 C 0.27804 0.96539 0.50381 0.0
H589 H 0.28345 0.03375 0.54603 0.0
H590 H 0.27902 0.97675 0.55383 0.0
C591 C 0.27803 0.97827 0.47317 0.0
C592 C 0.47417 0.97612 0.2896 0.0
C593 C 0.49586 0.95854 0.27152 0.0
H594 H 0.46048 0.0215 0.30708 0.0
C595 C 0.51979 0.9746 0.25493 0.0
H596 H 0.45524 0.96451 0.30242 0.0
C597 C 0.52289 0.00749 0.25771 0.0
C598 C 0.50201 0.02483 0.27699 0.0
H599 H 0.53682 0.96169 0.24076 0.0
H600 H 0.54221 0.01914 0.24553 0.0
C601 C 0.47716 0.00887 0.29224 0.0
C602 C 0.97549 0.50234 0.2869 0.0
C603 C 0.95751 0.51184 0.31321 0.0
H604 H 0.02195 0.49615 0.26733 0.0
C605 C 0.97318 0.52364 0.34003 0.0
H606 H 0.96404 0.49328 0.26585 0.0
C607 C 0.00613 0.525 0.34098 0.0
C608 C 0.02417 0.51496 0.31499 0.0
H609 H 0.96006 0.53123 0.36069 0.0
H610 H 0.01747 0.53368 0.36225 0.0
C611 C 0.00858 0.50409 0.2877 0.0
C612 C 0.45995 0.9664 0.73038 0.0
C613 C 0.47961 0.9489 0.71006 0.0
H614 H 0.44671 0.0124 0.74727 0.0
C615 C 0.50303 0.9648 0.69261 0.0
H616 H 0.44176 0.95477 0.74419 0.0
C617 C 0.50612 -0.0024 0.69463 0.0
C618 C 0.48561 0.01534 0.71388 0.0
H619 H 0.51878 0.95195 0.67698 0.0
H620 H 0.52398 0.0091 0.68028 0.0
C621 C 0.46281 -0.00062 0.73214 0.0
C622 C 0.9888 0.4686 0.70203 0.0
C623 C 0.96607 0.4882 0.68762 0.0
H624 H 0.03809 0.45764 0.70737 0.0
C625 C 0.9763 0.51342 0.66851 0.0
H626 H 0.98165 0.44901 0.71695 0.0
C627 C 0.00845 0.51814 0.66283 0.0
C628 C 0.03115 0.49795 0.67634 0.0
H629 H 0.95944 0.52904 0.65711 0.0
H630 H 0.01546 0.53739 0.64741 0.0
C631 C 0.02109 0.47351 0.69654 0.0
C632 C 0.2917 0.53146 0.95989 0.0
C633 C 0.29119 0.50112 0.94626 0.0
H634 H 0.29052 0.55875 0.00245 0.0
C635 C 0.28666 0.47463 0.96584 0.0
H636 H 0.29495 0.55235 0.94538 0.0
C637 C 0.28437 0.47827 -0.00142 0.0
C638 C 0.28623 0.50851 0.01232 0.0
H639 H 0.28607 0.45094 0.95605 0.0
H640 H 0.28198 0.45732 0.01316 0.0
C641 C 0.28906 0.53513 -0.00741 0.0
C642 C 0.46112 0.30698 0.97235 0.0
C643 C 0.48311 0.28469 0.96105 0.0
H644 H 0.44015 0.32919 0.01255 0.0
C645 C 0.49966 0.2658 0.9829 0.0
H646 H 0.44784 0.32185 0.95621 0.0
C647 C 0.49504 0.26992 0.01544 0.0
C648 C 0.47403 0.2932 0.02661 0.0
H649 H 0.51669 0.24835 0.97493 0.0
H650 H 0.50864 0.2556 0.0318 0.0
C651 C 0.45676 0.31127 0.00471 0.0
C652 C 0.73352 0.50415 0.97729 0.0
C653 C 0.71702 0.48188 0.95887 0.0
H654 H 0.74388 0.52113 0.0239 0.0
C655 C 0.70006 0.45768 0.9741 0.0
H656 H 0.74691 0.52301 0.96623 0.0
C657 C 0.69817 0.45675 0.00696 0.0
C658 C 0.71338 0.47986 0.02537 0.0
H659 H 0.68725 0.44001 0.96064 0.0
H660 H 0.6841 0.43831 0.01789 0.0
C661 C 0.7318 0.50308 0.0103 0.0
C662 C 0.54113 0.70397 0.9799 0.0
C663 C 0.51124 0.70627 0.96547 0.0
H664 H 0.56701 0.6988 0.02305 0.0
C665 C 0.48411 0.70792 0.98466 0.0
H666 H 0.5625 0.70287 0.96576 0.0
C667 C 0.48667 0.70533 0.01749 0.0
C668 C 0.51644 0.70136 0.0318 0.0
H669 H 0.46073 0.70981 0.97429 0.0
H670 H 0.46522 0.70539 0.03155 0.0
C671 C 0.54371 0.7017 0.01275 0.0
C672 C 0.20217 0.22087 0.52144 0.0
C673 C 0.18747 0.23391 0.49465 0.0
H674 H 0.23702 0.18879 0.53929 0.0
C675 C 0.19623 0.22289 0.46452 0.0
H676 H 0.19595 0.22882 0.54499 0.0
C677 C 0.21974 0.19981 0.46125 0.0
C678 C 0.23509 0.18748 0.48803 0.0
H679 H 0.18526 0.23241 0.44341 0.0
H680 H 0.22631 0.19214 0.43771 0.0
C681 C 0.2258 0.19799 0.51817 0.0
C682 C 0.7323 0.22929 0.48001 0.0
C683 C 0.7419 0.19801 0.48603 0.0
H684 H 0.74626 0.27747 0.47383 0.0
C685 C 0.77435 0.19142 0.48949 0.0
H686 H 0.7075 0.23517 0.47711 0.0
C687 C 0.7967 0.21577 0.48746 0.0
C688 C 0.78695 0.24714 0.48208 0.0
H689 H 0.7825 0.16751 0.49402 0.0
H690 H 0.82151 0.21008 0.49064 0.0
C691 C 0.75456 0.25357 0.47811 0.0
C692 C 0.74865 0.74432 0.50477 0.0
C693 C 0.77689 0.73885 0.48813 0.0
H694 H 0.70999 0.77578 0.51345 0.0
C695 C 0.7884 0.76244 0.46765 0.0
H696 H 0.73922 0.72668 0.52082 0.0
C697 C 0.77158 0.79062 0.46338 0.0
C698 C 0.74299 0.79578 0.47952 0.0
H699 H 0.81013 0.75896 0.45452 0.0
H700 H 0.78081 0.80815 0.44709 0.0
C701 C 0.73188 0.77248 0.50053 0.0
C702 C 0.18006 0.7824 0.46207 0.0
C703 C 0.16418 0.76604 0.48622 0.0
H704 H 0.21616 0.81575 0.45017 0.0
C705 C 0.17174 0.77274 0.51791 0.0
H706 H 0.17475 0.77785 0.43744 0.0
C707 C 0.19548 0.79458 0.52525 0.0
C708 C 0.21222 0.80998 0.50104 0.0
H709 H 0.15982 0.76062 0.53708 0.0
H710 H 0.20127 0.7987 0.54985 0.0
C711 C 0.20387 0.80408 0.4694 0.0
C712 C 0.4892 0.19039 0.22948 0.0
C713 C 0.48951 0.20022 0.26123 0.0
H714 H 0.48569 0.20427 0.18091 0.0
C715 C 0.48631 0.23258 0.26817 0.0
H716 H 0.49156 0.16559 0.22337 0.0
C717 C 0.48296 0.25468 0.24389 0.0
C718 C 0.48267 0.24491 0.21214 0.0
H719 H 0.48642 0.24092 0.29238 0.0
H720 H 0.48064 0.27947 0.25007 0.0
C721 C 0.48577 0.21253 0.20515 0.0
C722 C 0.78549 0.50779 0.20061 0.0
C723 C 0.80432 0.48544 0.21645 0.0
H724 H 0.74775 0.51576 0.16795 0.0
C725 C 0.80053 0.45311 0.20939 0.0
H726 H 0.78787 0.53286 0.20546 0.0
C727 C 0.77756 0.44328 0.18773 0.0
C728 C 0.7578 0.46558 0.17298 0.0
H729 H 0.81481 0.43532 0.22111 0.0
H730 H 0.77466 0.41818 0.1833 0.0
C731 C 0.76239 0.49795 0.17921 0.0
C732 C 0.47641 0.77853 0.1818 0.0
C733 C 0.49117 0.74875 0.1834 0.0
H734 H 0.46465 0.82139 0.20616 0.0
C735 C 0.50658 0.73983 0.21149 0.0
H736 H 0.46442 0.78613 0.16047 0.0
C737 C 0.50659 0.75993 0.23766 0.0
C738 C 0.49134 0.78945 0.23629 0.0
H739 H 0.51823 0.71706 0.21351 0.0
H740 H 0.51832 0.75213 0.25906 0.0
C741 C 0.47656 0.79874 0.20798 0.0
C742 C 0.19011 0.47177 0.20021 0.0
C743 C 0.17734 0.49731 0.21721 0.0
H744 H 0.22286 0.45674 0.16471 0.0
C745 C 0.18682 0.52828 0.20948 0.0
H746 H 0.18322 0.44765 0.20552 0.0
C747 C 0.20946 0.53353 0.186 0.0
C748 C 0.2232 0.5079 0.16991 0.0
H749 H 0.17725 0.5485 0.22202 0.0
H750 H 0.21682 0.55761 0.18113 0.0
C751 C 0.21287 0.477 0.17685 0.0
C752 C 0.53428 0.7703 0.79512 0.0
C753 C 0.50485 0.76024 0.80695 0.0
H754 H 0.55879 0.7984 0.76084 0.0
C755 C 0.47698 0.77253 0.79361 0.0
H756 H 0.55619 0.76135 0.80501 0.0
C757 C 0.47847 0.79353 0.76818 0.0
C758 C 0.50787 0.80289 0.75574 0.0
H759 H 0.45393 0.76528 0.80221 0.0
H760 H 0.45653 0.80206 0.75798 0.0
C761 C 0.53578 0.79155 0.76984 0.0
C762 C 0.22632 0.475 0.78051 0.0
C763 C 0.244 0.50089 0.79152 0.0
H764 H 0.19001 0.45879 0.74925 0.0
C765 C 0.23731 0.53129 0.77972 0.0
H766 H 0.23088 0.45129 0.78919 0.0
C767 C 0.21377 0.53563 0.75696 0.0
C768 C 0.19661 0.50962 0.7454 0.0
H769 H 0.25042 0.55177 0.78786 0.0
H770 H 0.20945 0.55929 0.74805 0.0
C771 C 0.20292 0.4793 0.75761 0.0
C772 C 0.46374 0.18878 0.77743 0.0
C773 C 0.48985 0.17254 0.76475 0.0
H774 H 0.44759 0.22556 0.8082 0.0
C775 C 0.52042 0.18018 0.7755 0.0
H776 H 0.43988 0.18341 0.76973 0.0
C777 C 0.52484 0.2043 0.79766 0.0
C778 C 0.49881 0.22138 0.80939 0.0
H779 H 0.54103 0.16799 0.76631 0.0
H780 H 0.54874 0.21011 0.80492 0.0
C781 C 0.46817 0.21299 0.79945 0.0
C782 C 0.77598 0.45487 0.79503 0.0
C783 C 0.76734 0.48599 0.80315 0.0
H784 H 0.80412 0.42507 0.7653 0.0
C785 C 0.78249 0.51144 0.78808 0.0
H786 H 0.76488 0.43474 0.80639 0.0
C787 C 0.80487 0.50588 0.76444 0.0
C788 C 0.81271 0.47476 0.75556 0.0
H789 H 0.77644 0.53568 0.79388 0.0
H790 H 0.81556 0.52601 0.7527 0.0
C791 C 0.79852 0.44931 0.77154 0.0
loop_
_geom_bond_atom_site_label_1
_geom_bond_atom_site_label_2
_geom_bond_distance
_geom_bond_site_symmetry_2
_ccdc_geom_bond_type
C0 O1 1.160 . S
C0 O7 1.185 . S
O1 C0 1.160 . S
O2 Zn3 1.899 . S
O2 C10 1.284 . S
Zn3 O2 1.899 . S
Zn3 O4 2.032 . S
Zn3 O7 2.086 . S
Zn3 O12 1.977 . S
O4 Zn3 2.032 . S
O4 C8 1.278 . S
C5 O6 1.203 . S
C5 O12 1.267 . S
O6 C5 1.203 . S
O7 C0 1.185 . S
O7 Zn3 2.086 . S
C8 O4 1.278 . S
C8 O9 1.211 . S
O9 C8 1.211 . S
C10 O2 1.284 . S
C10 O11 1.273 . S
O11 C10 1.273 . S
O12 Zn3 1.977 . S
O12 C5 1.267 . S
C13 O14 1.160 . S
C13 O20 1.185 . S
O14 C13 1.160 . S
O15 Zn16 1.899 . S
O15 C23 1.284 . S
Zn16 O15 1.899 . S
Zn16 O17 2.032 . S
Zn16 O20 2.086 . S
Zn16 O25 1.977 . S
O17 Zn16 2.032 . S
O17 C21 1.278 . S
C18 O19 1.203 . S
C18 O25 1.267 . S
O19 C18 1.203 . S
O20 C13 1.185 . S
O20 Zn16 2.086 . S
C21 O17 1.278 . S
C21 O22 1.211 . S
O22 C21 1.211 . S
C23 O15 1.284 . S
C23 O24 1.273 . S
O24 C23 1.273 . S
O25 Zn16 1.977 . S
O25 C18 1.267 . S
C26 O27 1.160 . S
C26 O33 1.185 . S
O27 C26 1.160 . S
O28 Zn29 1.899 . S
O28 C36 1.284 . S
Zn29 O28 1.899 . S
Zn29 O30 2.032 . S
Zn29 O33 2.086 . S
Zn29 O38 1.977 . S
O30 Zn29 2.032 . S
O30 C34 1.278 . S
C31 O32 1.203 . S
C31 O38 1.267 . S
O32 C31 1.203 . S
O33 C26 1.185 . S
O33 Zn29 2.086 . S
C34 O30 1.278 . S
C34 O35 1.211 . S
O35 C34 1.211 . S
C36 O28 1.284 . S
C36 O37 1.273 . S
O37 C36 1.273 . S
O38 Zn29 1.977 . S
O38 C31 1.267 . S
C39 O40 1.160 . S
C39 O46 1.185 . S
O40 C39 1.160 . S
O41 Zn42 1.899 . S
O41 C49 1.284 . S
Zn42 O41 1.899 . S
Zn42 O43 2.032 . S
Zn42 O46 2.086 . S
Zn42 O51 1.977 . S
O43 Zn42 2.032 . S
O43 C47 1.278 . S
C44 O45 1.203 . S
C44 O51 1.267 . S
O45 C44 1.203 . S
O46 C39 1.185 . S
O46 Zn42 2.086 . S
C47 O43 1.278 . S
C47 O48 1.211 . S
O48 C47 1.211 . S
C49 O41 1.284 . S
C49 O50 1.273 . S
O50 C49 1.273 . S
O51 Zn42 1.977 . S
O51 C44 1.267 . S
C52 O53 1.160 . S
C52 O59 1.185 . S
O53 C52 1.160 . S
O54 Zn55 1.899 . S
O54 C62 1.284 . S
Zn55 O54 1.899 . S
Zn55 O56 2.032 . S
Zn55 O59 2.086 . S
Zn55 O64 1.977 . S
O56 Zn55 2.032 . S
O56 C60 1.278 . S
C57 O58 1.203 . S
C57 O64 1.267 . S
O58 C57 1.203 . S
O59 C52 1.185 . S
O59 Zn55 2.086 . S
C60 O56 1.278 . S
C60 O61 1.211 . S
O61 C60 1.211 . S
C62 O54 1.284 . S
C62 O63 1.273 . S
O63 C62 1.273 . S
O64 Zn55 1.977 . S
O64 C57 1.267 . S
C65 O66 1.160 . S
C65 O72 1.185 . S
O66 C65 1.160 . S
O67 Zn68 1.899 . S
O67 C75 1.284 . S
Zn68 O67 1.899 . S
Zn68 O69 2.032 . S
Zn68 O72 2.086 . S
Zn68 O77 1.977 . S
O69 Zn68 2.032 . S
O69 C73 1.278 . S
C70 O71 1.203 . S
C70 O77 1.267 . S
O71 C70 1.203 . S
O72 C65 1.185 . S
O72 Zn68 2.086 . S
C73 O69 1.278 . S
C73 O74 1.211 . S
O74 C73 1.211 . S
C75 O67 1.284 . S
C75 O76 1.273 . S
O76 C75 1.273 . S
O77 Zn68 1.977 . S
O77 C70 1.267 . S
C78 O79 1.160 . S
C78 O85 1.185 . S
O79 C78 1.160 . S
O80 Zn81 1.899 . S
O80 C88 1.284 . S
Zn81 O80 1.899 . S
Zn81 O82 2.032 . S
Zn81 O85 2.086 . S
Zn81 O90 1.977 . S
O82 Zn81 2.032 . S
O82 C86 1.278 . S
C83 O84 1.203 . S
C83 O90 1.267 . S
O84 C83 1.203 . S
O85 C78 1.185 . S
O85 Zn81 2.086 . S
C86 O82 1.278 . S
C86 O87 1.211 . S
O87 C86 1.211 . S
C88 O80 1.284 . S
C88 O89 1.273 . S
O89 C88 1.273 . S
O90 Zn81 1.977 . S
O90 C83 1.267 . S
C91 O92 1.160 . S
C91 O98 1.185 . S
O92 C91 1.160 . S
O93 Zn94 1.899 . S
O93 C101 1.284 . S
Zn94 O93 1.899 . S
Zn94 O95 2.032 . S
Zn94 O98 2.086 . S
Zn94 O103 1.977 . S
O95 Zn94 2.032 . S
O95 C99 1.278 . S
C96 O97 1.203 . S
C96 O103 1.267 . S
O97 C96 1.203 . S
O98 C91 1.185 . S
O98 Zn94 2.086 . S
C99 O95 1.278 . S
C99 O100 1.211 . S
O100 C99 1.211 . S
C101 O93 1.284 . S
C101 O102 1.273 . S
O102 C101 1.273 . S
O103 Zn94 1.977 . S
O103 C96 1.267 . S
C104 O105 1.160 . S
C104 O111 1.185 . S
O105 C104 1.160 . S
O106 Zn107 1.899 . S
O106 C114 1.284 . S
Zn107 O106 1.899 . S
Zn107 O108 2.032 . S
Zn107 O111 2.086 . S
Zn107 O116 1.977 . S
O108 Zn107 2.032 . S
O108 C112 1.278 . S
C109 O110 1.203 . S
C109 O116 1.267 . S
O110 C109 1.203 . S
O111 C104 1.185 . S
O111 Zn107 2.086 . S
C112 O108 1.278 . S
C112 O113 1.211 . S
O113 C112 1.211 . S
C114 O106 1.284 . S
C114 O115 1.273 . S
O115 C114 1.273 . S
O116 Zn107 1.977 . S
O116 C109 1.267 . S
C117 O118 1.160 . S
C117 O124 1.185 . S
O118 C117 1.160 . S
O119 Zn120 1.899 . S
O119 C127 1.284 . S
Zn120 O119 1.899 . S
Zn120 O121 2.032 . S
Zn120 O124 2.086 . S
Zn120 O129 1.977 . S
O121 Zn120 2.032 . S
O121 C125 1.278 . S
C122 O123 1.203 . S
C122 O129 1.267 . S
O123 C122 1.203 . S
O124 C117 1.185 . S
O124 Zn120 2.086 . S
C125 O121 1.278 . S
C125 O126 1.211 . S
O126 C125 1.211 . S
C127 O119 1.284 . S
C127 O128 1.273 . S
O128 C127 1.273 . S
O129 Zn120 1.977 . S
O129 C122 1.267 . S
C130 O131 1.160 . S
C130 O137 1.185 . S
O131 C130 1.160 . S
O132 Zn133 1.899 . S
O132 C140 1.284 . S
Zn133 O132 1.899 . S
Zn133 O134 2.032 . S
Zn133 O137 2.086 . S
Zn133 O142 1.977 . S
O134 Zn133 2.032 . S
O134 C138 1.278 . S
C135 O136 1.203 . S
C135 O142 1.267 . S
O136 C135 1.203 . S
O137 C130 1.185 . S
O137 Zn133 2.086 . S
C138 O134 1.278 . S
C138 O139 1.211 . S
O139 C138 1.211 . S
C140 O132 1.284 . S
C140 O141 1.273 . S
O141 C140 1.273 . S
O142 Zn133 1.977 . S
O142 C135 1.267 . S
C143 O144 1.160 . S
C143 O150 1.185 . S
O144 C143 1.160 . S
O145 Zn146 1.899 . S
O145 C153 1.284 . S
Zn146 O145 1.899 . S
Zn146 O147 2.032 . S
Zn146 O150 2.086 . S
Zn146 O155 1.977 . S
O147 Zn146 2.032 . S
O147 C151 1.278 . S
C148 O149 1.203 . S
C148 O155 1.267 . S
O149 C148 1.203 . S
O150 C143 1.185 . S
O150 Zn146 2.086 . S
C151 O147 1.278 . S
C151 O152 1.211 . S
O152 C151 1.211 . S
C153 O145 1.284 . S
C153 O154 1.273 . S
O154 C153 1.273 . S
O155 Zn146 1.977 . S
O155 C148 1.267 . S
C156 O157 1.160 . S
C156 O163 1.185 . S
O157 C156 1.160 . S
O158 Zn159 1.899 . S
O158 C166 1.284 . S
Zn159 O158 1.899 . S
Zn159 O160 2.032 . S
Zn159 O163 2.086 . S
Zn159 O168 1.977 . S
O160 Zn159 2.032 . S
O160 C164 1.278 . S
C161 O162 1.203 . S
C161 O168 1.267 . S
O162 C161 1.203 . S
O163 C156 1.185 . S
O163 Zn159 2.086 . S
C164 O160 1.278 . S
C164 O165 1.211 . S
O165 C164 1.211 . S
C166 O158 1.284 . S
C166 O167 1.273 . S
O167 C166 1.273 . S
O168 Zn159 1.977 . S
O168 C161 1.267 . S
C169 O170 1.160 . S
C169 O176 1.185 . S
O170 C169 1.160 . S
O171 Zn172 1.899 . S
O171 C179 1.284 . S
Zn172 O171 1.899 . S
Zn172 O173 2.032 . S
Zn172 O176 2.086 . S
Zn172 O181 1.977 . S
O173 Zn172 2.032 . S
O173 C177 1.278 . S
C174 O175 1.203 . S
C174 O181 1.267 . S
O175 C174 1.203 . S
O176 C169 1.185 . S
O176 Zn172 2.086 . S
C177 O173 1.278 . S
C177 O178 1.211 . S
O178 C177 1.211 . S
C179 O171 1.284 . S
C179 O180 1.273 . S
O180 C179 1.273 . S
O181 Zn172 1.977 . S
O181 C174 1.267 . S
C182 O183 1.160 . S
C182 O189 1.185 . S
O183 C182 1.160 . S
O184 Zn185 1.899 . S
O184 C192 1.284 . S
Zn185 O184 1.899 . S
Zn185 O186 2.032 . S
Zn185 O189 2.086 . S
Zn185 O194 1.977 . S
O186 Zn185 2.032 . S
O186 C190 1.278 . S
C187 O188 1.203 . S
C187 O194 1.267 . S
O188 C187 1.203 . S
O189 C182 1.185 . S
O189 Zn185 2.086 . S
C190 O186 1.278 . S
C190 O191 1.211 . S
O191 C190 1.211 . S
C192 O184 1.284 . S
C192 O193 1.273 . S
O193 C192 1.273 . S
O194 Zn185 1.977 . S
O194 C187 1.267 . S
C195 O196 1.160 . S
C195 O202 1.185 . S
O196 C195 1.160 . S
O197 Zn198 1.899 . S
O197 C205 1.284 . S
Zn198 O197 1.899 . S
Zn198 O199 2.032 . S
Zn198 O202 2.086 . S
Zn198 O207 1.977 . S
O199 Zn198 2.032 . S
O199 C203 1.278 . S
C200 O201 1.203 . S
C200 O207 1.267 . S
O201 C200 1.203 . S
O202 C195 1.185 . S
O202 Zn198 2.086 . S
C203 O199 1.278 . S
C203 O204 1.211 . S
O204 C203 1.211 . S
C205 O197 1.284 . S
C205 O206 1.273 . S
O206 C205 1.273 . S
O207 Zn198 1.977 . S
O207 C200 1.267 . S
C208 O209 1.160 . S
C208 O215 1.185 . S
O209 C208 1.160 . S
O210 Zn211 1.899 . S
O210 C218 1.284 . S
Zn211 O210 1.899 . S
Zn211 O212 2.032 . S
Zn211 O215 2.086 . S
Zn211 O220 1.977 . S
O212 Zn211 2.032 . S
O212 C216 1.278 . S
C213 O214 1.203 . S
C213 O220 1.267 . S
O214 C213 1.203 . S
O215 C208 1.185 . S
O215 Zn211 2.086 . S
C216 O212 1.278 . S
C216 O217 1.211 . S
O217 C216 1.211 . S
C218 O210 1.284 . S
C218 O219 1.273 . S
O219 C218 1.273 . S
O220 Zn211 1.977 . S
O220 C213 1.267 . S
C221 O222 1.160 . S
C221 O228 1.185 . S
O222 C221 1.160 . S
O223 Zn224 1.899 . S
O223 C231 1.284 . S
Zn224 O223 1.899 . S
Zn224 O225 2.032 . S
Zn224 O228 2.086 . S
Zn224 O233 1.977 . S
O225 Zn224 2.032 . S
O225 C229 1.278 . S
C226 O227 1.203 . S
C226 O233 1.267 . S
O227 C226 1.203 . S
O228 C221 1.185 . S
O228 Zn224 2.086 . S
C229 O225 1.278 . S
C229 O230 1.211 . S
O230 C229 1.211 . S
C231 O223 1.284 . S
C231 O232 1.273 . S
O232 C231 1.273 . S
O233 Zn224 1.977 . S
O233 C226 1.267 . S
C234 O235 1.160 . S
C234 O241 1.185 . S
O235 C234 1.160 . S
O236 Zn237 1.899 . S
O236 C244 1.284 . S
Zn237 O236 1.899 . S
Zn237 O238 2.032 . S
Zn237 O241 2.086 . S
Zn237 O246 1.977 . S
O238 Zn237 2.032 . S
O238 C242 1.278 . S
C239 O240 1.203 . S
C239 O246 1.267 . S
O240 C239 1.203 . S
O241 C234 1.185 . S
O241 Zn237 2.086 . S
C242 O238 1.278 . S
C242 O243 1.211 . S
O243 C242 1.211 . S
C244 O236 1.284 . S
C244 O245 1.273 . S
O245 C244 1.273 . S
O246 Zn237 1.977 . S
O246 C239 1.267 . S
C247 O248 1.160 . S
C247 O254 1.185 . S
O248 C247 1.160 . S
O249 Zn250 1.899 . S
O249 C257 1.284 . S
Zn250 O249 1.899 . S
Zn250 O251 2.032 . S
Zn250 O254 2.086 . S
Zn250 O259 1.977 . S
O251 Zn250 2.032 . S
O251 C255 1.278 . S
C252 O253 1.203 . S
C252 O259 1.267 . S
O253 C252 1.203 . S
O254 C247 1.185 . S
O254 Zn250 2.086 . S
C255 O251 1.278 . S
C255 O256 1.211 . S
O256 C255 1.211 . S
C257 O249 1.284 . S
C257 O258 1.273 . S
O258 C257 1.273 . S
O259 Zn250 1.977 . S
O259 C252 1.267 . S
C260 O261 1.160 . S
C260 O267 1.185 . S
O261 C260 1.160 . S
O262 Zn263 1.899 . S
O262 C270 1.284 . S
Zn263 O262 1.899 . S
Zn263 O264 2.032 . S
Zn263 O267 2.086 . S
Zn263 O272 1.977 . S
O264 Zn263 2.032 . S
O264 C268 1.278 . S
C265 O266 1.203 . S
C265 O272 1.267 . S
O266 C265 1.203 . S
O267 C260 1.185 . S
O267 Zn263 2.086 . S
C268 O264 1.278 . S
C268 O269 1.211 . S
O269 C268 1.211 . S
C270 O262 1.284 . S
C270 O271 1.273 . S
O271 C270 1.273 . S
O272 Zn263 1.977 . S
O272 C265 1.267 . S
C273 O274 1.160 . S
C273 O280 1.185 . S
O274 C273 1.160 . S
O275 Zn276 1.899 . S
O275 C283 1.284 . S
Zn276 O275 1.899 . S
Zn276 O277 2.032 . S
Zn276 O280 2.086 . S
Zn276 O285 1.977 . S
O277 Zn276 2.032 . S
O277 C281 1.278 . S
C278 O279 1.203 . S
C278 O285 1.267 . S
O279 C278 1.203 . S
O280 C273 1.185 . S
O280 Zn276 2.086 . S
C281 O277 1.278 . S
C281 O282 1.211 . S
O282 C281 1.211 . S
C283 O275 1.284 . S
C283 O284 1.273 . S
O284 C283 1.273 . S
O285 Zn276 1.977 . S
O285 C278 1.267 . S
C286 O287 1.160 . S
C286 O293 1.185 . S
O287 C286 1.160 . S
O288 Zn289 1.899 . S
O288 C296 1.284 . S
Zn289 O288 1.899 . S
Zn289 O290 2.032 . S
Zn289 O293 2.086 . S
Zn289 O298 1.977 . S
O290 Zn289 2.032 . S
O290 C294 1.278 . S
C291 O292 1.203 . S
C291 O298 1.267 . S
O292 C291 1.203 . S
O293 C286 1.185 . S
O293 Zn289 2.086 . S
C294 O290 1.278 . S
C294 O295 1.211 . S
O295 C294 1.211 . S
C296 O288 1.284 . S
C296 O297 1.273 . S
O297 C296 1.273 . S
O298 Zn289 1.977 . S
O298 C291 1.267 . S
C299 O300 1.160 . S
C299 O306 1.185 . S
O300 C299 1.160 . S
O301 Zn302 1.899 . S
O301 C309 1.284 . S
Zn302 O301 1.899 . S
Zn302 O303 2.032 . S
Zn302 O306 2.086 . S
Zn302 O311 1.977 . S
O303 Zn302 2.032 . S
O303 C307 1.278 . S
C304 O305 1.203 . S
C304 O311 1.267 . S
O305 C304 1.203 . S
O306 C299 1.185 . S
O306 Zn302 2.086 . S
C307 O303 1.278 . S
C307 O308 1.211 . S
O308 C307 1.211 . S
C309 O301 1.284 . S
C309 O310 1.273 . S
O310 C309 1.273 . S
O311 Zn302 1.977 . S
O311 C304 1.267 . S
C312 C313 1.387 . S
C312 H316 0.950 . S
C312 C321 1.390 . S
C313 C312 1.387 . S
C313 C315 1.387 . S
H314 C321 0.950 . S
C315 C313 1.387 . S
C315 C317 1.390 . S
C315 H319 0.950 . S
H316 C312 0.950 . S
C317 C315 1.390 . S
C317 C318 1.387 . S
C317 H320 0.950 . S
C318 C317 1.387 . S
C318 C321 1.387 . S
H319 C315 0.950 . S
H320 C317 0.950 . S
C321 C312 1.390 . S
C321 H314 0.950 . S
C321 C318 1.387 . S
C322 C323 1.387 . S
C322 H326 0.950 . S
C322 C331 1.390 . S
C323 C322 1.387 . S
C323 C325 1.387 . S
H324 C331 0.950 . S
C325 C323 1.387 . S
C325 C327 1.390 . S
C325 H329 0.950 . S
H326 C322 0.950 . S
C327 C325 1.390 . S
C327 C328 1.387 . S
C327 H330 0.950 . S
C328 C327 1.387 . S
C328 C331 1.387 . S
H329 C325 0.950 . S
H330 C327 0.950 . S
C331 C322 1.390 . S
C331 H324 0.950 . S
C331 C328 1.387 . S
C332 C333 1.387 . S
C332 H336 0.950 . S
C332 C341 1.390 . S
C333 C332 1.387 . S
C333 C335 1.387 . S
H334 C341 0.950 . S
C335 C333 1.387 . S
C335 C337 1.390 . S
C335 H339 0.950 . S
H336 C332 0.950 . S
C337 C335 1.390 . S
C337 C338 1.387 . S
C337 H340 0.950 . S
C338 C337 1.387 . S
C338 C341 1.387 . S
H339 C335 0.950 . S
H340 C337 0.950 . S
C341 C332 1.390 . S
C341 H334 0.950 . S
C341 C338 1.387 . S
C342 C343 1.387 . S
C342 H346 0.950 . S
C342 C351 1.390 . S
C343 C342 1.387 . S
C343 C345 1.387 . S
H344 C351 0.950 . S
C345 C343 1.387 . S
C345 C347 1.390 . S
C345 H349 0.950 . S
H346 C342 0.950 . S
C347 C345 1.390 . S
C347 C348 1.387 . S
C347 H350 0.950 . S
C348 C347 1.387 . S
C348 C351 1.387 . S
H349 C345 0.950 . S
H350 C347 0.950 . S
C351 C342 1.390 . S
C351 H344 0.950 . S
C351 C348 1.387 . S
C352 C353 1.387 . S
C352 H356 0.950 . S
C352 C361 1.390 . S
C353 C352 1.387 . S
C353 C355 1.387 . S
H354 C361 0.950 . S
C355 C353 1.387 . S
C355 C357 1.390 . S
C355 H359 0.950 . S
H356 C352 0.950 . S
C357 C355 1.390 . S
C357 C358 1.387 . S
C357 H360 0.950 . S
C358 C357 1.387 . S
C358 C361 1.387 . S
H359 C355 0.950 . S
H360 C357 0.950 . S
C361 C352 1.390 . S
C361 H354 0.950 . S
C361 C358 1.387 . S
C362 C363 1.387 . S
C362 H366 0.950 . S
C362 C371 1.390 . S
C363 C362 1.387 . S
C363 C365 1.387 . S
H364 C371 0.950 . S
C365 C363 1.387 . S
C365 C367 1.390 . S
C365 H369 0.950 . S
H366 C362 0.950 . S
C367 C365 1.390 . S
C367 C368 1.387 . S
C367 H370 0.950 . S
C368 C367 1.387 . S
C368 C371 1.387 . S
H369 C365 0.950 . S
H370 C367 0.950 . S
C371 C362 1.390 . S
C371 H364 0.950 . S
C371 C368 1.387 . S
C372 C373 1.387 . S
C372 H376 0.950 . S
C372 C381 1.390 . S
C373 C372 1.387 . S
C373 C375 1.387 . S
H374 C381 0.950 . S
C375 C373 1.387 . S
C375 C377 1.390 . S
C375 H379 0.950 . S
H376 C372 0.950 . S
C377 C375 1.390 . S
C377 C378 1.387 . S
C377 H380 0.950 . S
C378 C377 1.387 . S
C378 C381 1.387 . S
H379 C375 0.950 . S
H380 C377 0.950 . S
C381 C372 1.390 . S
C381 H374 0.950 . S
C381 C378 1.387 . S
C382 C383 1.387 . S
C382 H386 0.950 . S
C382 C391 1.390 . S
C383 C382 1.387 . S
C383 C385 1.387 . S
H384 C391 0.950 . S
C385 C383 1.387 . S
C385 C387 1.390 . S
C385 H389 0.950 . S
H386 C382 0.950 . S
C387 C385 1.390 . S
C387 C388 1.387 . S
C387 H390 0.950 . S
C388 C387 1.387 . S
C388 C391 1.387 . S
H389 C385 0.950 . S
H390 C387 0.950 . S
C391 C382 1.390 . S
C391 H384 0.950 . S
C391 C388 1.387 . S
C392 C393 1.387 . S
C392 H396 0.950 . S
C392 C401 1.390 . S
C393 C392 1.387 . S
C393 C395 1.387 . S
H394 C401 0.950 . S
C395 C393 1.387 . S
C395 C397 1.390 . S
C395 H399 0.950 . S
H396 C392 0.950 . S
C397 C395 1.390 . S
C397 C398 1.387 . S
C397 H400 0.950 . S
C398 C397 1.387 . S
C398 C401 1.387 . S
H399 C395 0.950 . S
H400 C397 0.950 . S
C401 C392 1.390 . S
C401 H394 0.950 . S
C401 C398 1.387 . S
C402 C403 1.387 . S
C402 H406 0.950 . S
C402 C411 1.390 . S
C403 C402 1.387 . S
C403 C405 1.387 . S
H404 C411 0.950 . S
C405 C403 1.387 . S
C405 C407 1.390 . S
C405 H409 0.950 . S
H406 C402 0.950 . S
C407 C405 1.390 . S
C407 C408 1.387 . S
C407 H410 0.950 . S
C408 C407 1.387 . S
C408 C411 1.387 . S
H409 C405 0.950 . S
H410 C407 0.950 . S
C411 C402 1.390 . S
C411 H404 0.950 . S
C411 C408 1.387 . S
C412 C413 1.387 . S
C412 H416 0.950 . S
C412 C421 1.390 . S
C413 C412 1.387 . S
C413 C415 1.387 . S
H414 C421 0.950 . S
C415 C413 1.387 . S
C415 C417 1.390 . S
C415 H419 0.950 . S
H416 C412 0.950 . S
C417 C415 1.390 . S
C417 C418 1.387 . S
C417 H420 0.950 . S
C418 C417 1.387 . S
C418 C421 1.387 . S
H419 C415 0.950 . S
H420 C417 0.950 . S
C421 C412 1.390 . S
C421 H414 0.950 . S
C421 C418 1.387 . S
C422 C423 1.387 . S
C422 H426 0.950 . S
C422 C431 1.390 . S
C423 C422 1.387 . S
C423 C425 1.387 . S
H424 C431 0.950 . S
C425 C423 1.387 . S
C425 C427 1.390 . S
C425 H429 0.950 . S
H426 C422 0.950 . S
C427 C425 1.390 . S
C427 C428 1.387 . S
C427 H430 0.950 . S
C428 C427 1.387 . S
C428 C431 1.387 . S
H429 C425 0.950 . S
H430 C427 0.950 . S
C431 C422 1.390 . S
C431 H424 0.950 . S
C431 C428 1.387 . S
C432 C433 1.387 . S
C432 H436 0.950 . S
C432 C441 1.390 . S
C433 C432 1.387 . S
C433 C435 1.387 . S
H434 C441 0.950 . S
C435 C433 1.387 . S
C435 C437 1.390 . S
C435 H439 0.950 . S
H436 C432 0.950 . S
C437 C435 1.390 . S
C437 C438 1.387 . S
C437 H440 0.950 . S
C438 C437 1.387 . S
C438 C441 1.387 . S
H439 C435 0.950 . S
H440 C437 0.950 . S
C441 C432 1.390 . S
C441 H434 0.950 . S
C441 C438 1.387 . S
C442 C443 1.387 . S
C442 H446 0.950 . S
C442 C451 1.390 . S
C443 C442 1.387 . S
C443 C445 1.387 . S
H444 C451 0.950 . S
C445 C443 1.387 . S
C445 C447 1.390 . S
C445 H449 0.950 . S
H446 C442 0.950 . S
C447 C445 1.390 . S
C447 C448 1.387 . S
C447 H450 0.950 . S
C448 C447 1.387 . S
C448 C451 1.387 . S
H449 C445 0.950 . S
H450 C447 0.950 . S
C451 C442 1.390 . S
C451 H444 0.950 . S
C451 C448 1.387 . S
C452 C453 1.387 . S
C452 H456 0.950 . S
C452 C461 1.390 . S
C453 C452 1.387 . S
C453 C455 1.387 . S
H454 C461 0.950 . S
C455 C453 1.387 . S
C455 C457 1.390 . S
C455 H459 0.950 . S
H456 C452 0.950 . S
C457 C455 1.390 . S
C457 C458 1.387 . S
C457 H460 0.950 . S
C458 C457 1.387 . S
C458 C461 1.387 . S
H459 C455 0.950 . S
H460 C457 0.950 . S
C461 C452 1.390 . S
C461 H454 0.950 . S
C461 C458 1.387 . S
C462 C463 1.387 . S
C462 H466 0.950 . S
C462 C471 1.390 . S
C463 C462 1.387 . S
C463 C465 1.387 . S
H464 C471 0.950 . S
C465 C463 1.387 . S
C465 C467 1.390 . S
C465 H469 0.950 . S
H466 C462 0.950 . S
C467 C465 1.390 . S
C467 C468 1.387 . S
C467 H470 0.950 . S
C468 C467 1.387 . S
C468 C471 1.387 . S
H469 C465 0.950 . S
H470 C467 0.950 . S
C471 C462 1.390 . S
C471 H464 0.950 . S
C471 C468 1.387 . S
C472 C473 1.387 . S
C472 H476 0.950 . S
C472 C481 1.390 . S
C473 C472 1.387 . S
C473 C475 1.387 . S
H474 C481 0.950 . S
C475 C473 1.387 . S
C475 C477 1.390 . S
C475 H479 0.950 . S
H476 C472 0.950 . S
C477 C475 1.390 . S
C477 C478 1.387 . S
C477 H480 0.950 . S
C478 C477 1.387 . S
C478 C481 1.387 . S
H479 C475 0.950 . S
H480 C477 0.950 . S
C481 C472 1.390 . S
C481 H474 0.950 . S
C481 C478 1.387 . S
C482 C483 1.387 . S
C482 H486 0.950 . S
C482 C491 1.390 . S
C483 C482 1.387 . S
C483 C485 1.387 . S
H484 C491 0.950 . S
C485 C483 1.387 . S
C485 C487 1.390 . S
C485 H489 0.950 . S
H486 C482 0.950 . S
C487 C485 1.390 . S
C487 C488 1.387 . S
C487 H490 0.950 . S
C488 C487 1.387 . S
C488 C491 1.387 . S
H489 C485 0.950 . S
H490 C487 0.950 . S
C491 C482 1.390 . S
C491 H484 0.950 . S
C491 C488 1.387 . S
C492 C493 1.387 . S
C492 H496 0.950 . S
C492 C501 1.390 . S
C493 C492 1.387 . S
C493 C495 1.387 . S
H494 C501 0.950 . S
C495 C493 1.387 . S
C495 C497 1.390 . S
C495 H499 0.950 . S
H496 C492 0.950 . S
C497 C495 1.390 . S
C497 C498 1.387 . S
C497 H500 0.950 . S
C498 C497 1.387 . S
C498 C501 1.387 . S
H499 C495 0.950 . S
H500 C497 0.950 . S
C501 C492 1.390 . S
C501 H494 0.950 . S
C501 C498 1.387 . S
C502 C503 1.387 . S
C502 H506 0.950 . S
C502 C511 1.390 . S
C503 C502 1.387 . S
C503 C505 1.387 . S
H504 C511 0.950 . S
C505 C503 1.387 . S
C505 C507 1.390 . S
C505 H509 0.950 . S
H506 C502 0.950 . S
C507 C505 1.390 . S
C507 C508 1.387 . S
C507 H510 0.950 . S
C508 C507 1.387 . S
C508 C511 1.387 . S
H509 C505 0.950 . S
H510 C507 0.950 . S
C511 C502 1.390 . S
C511 H504 0.950 . S
C511 C508 1.387 . S
C512 C513 1.387 . S
C512 H516 0.950 . S
C512 C521 1.390 . S
C513 C512 1.387 . S
C513 C515 1.387 . S
H514 C521 0.950 . S
C515 C513 1.387 . S
C515 C517 1.390 . S
C515 H519 0.950 . S
H516 C512 0.950 . S
C517 C515 1.390 . S
C517 C518 1.387 . S
C517 H520 0.950 . S
C518 C517 1.387 . S
C518 C521 1.387 . S
H519 C515 0.950 . S
H520 C517 0.950 . S
C521 C512 1.390 . S
C521 H514 0.950 . S
C521 C518 1.387 . S
C522 C523 1.387 . S
C522 H526 0.950 . S
C522 C531 1.390 . S
C523 C522 1.387 . S
C523 C525 1.387 . S
H524 C531 0.950 . S
C525 C523 1.387 . S
C525 C527 1.390 . S
C525 H529 0.950 . S
H526 C522 0.950 . S
C527 C525 1.390 . S
C527 C528 1.387 . S
C527 H530 0.950 . S
C528 C527 1.387 . S
C528 C531 1.387 . S
H529 C525 0.950 . S
H530 C527 0.950 . S
C531 C522 1.390 . S
C531 H524 0.950 . S
C531 C528 1.387 . S
C532 C533 1.387 . S
C532 H536 0.950 . S
C532 C541 1.390 . S
C533 C532 1.387 . S
C533 C535 1.387 . S
H534 C541 0.950 . S
C535 C533 1.387 . S
C535 C537 1.390 . S
C535 H539 0.950 . S
H536 C532 0.950 . S
C537 C535 1.390 . S
C537 C538 1.387 . S
C537 H540 0.950 . S
C538 C537 1.387 . S
C538 C541 1.387 . S
H539 C535 0.950 . S
H540 C537 0.950 . S
C541 C532 1.390 . S
C541 H534 0.950 . S
C541 C538 1.387 . S
C542 C543 1.387 . S
C542 H546 0.950 . S
C542 C551 1.390 . S
C543 C542 1.387 . S
C543 C545 1.387 . S
H544 C551 0.950 . S
C545 C543 1.387 . S
C545 C547 1.390 . S
C545 H549 0.950 . S
H546 C542 0.950 . S
C547 C545 1.390 . S
C547 C548 1.387 . S
C547 H550 0.950 . S
C548 C547 1.387 . S
C548 C551 1.387 . S
H549 C545 0.950 . S
H550 C547 0.950 . S
C551 C542 1.390 . S
C551 H544 0.950 . S
C551 C548 1.387 . S
C552 C553 1.387 . S
C552 H556 0.950 . S
C552 C561 1.390 1_455 S
C553 C552 1.387 . S
C553 C555 1.387 . S
H554 C561 0.950 . S
C555 C553 1.387 . S
C555 C557 1.390 1_455 S
C555 H559 0.950 . S
H556 C552 0.950 . S
C557 C555 1.390 1_655 S
C557 C558 1.387 . S
C557 H560 0.950 . S
C558 C557 1.387 . S
C558 C561 1.387 . S
H559 C555 0.950 . S
H560 C557 0.950 . S
C561 C552 1.390 1_655 S
C561 H554 0.950 . S
C561 C558 1.387 . S
C562 C563 1.387 . S
C562 H566 0.950 . S
C562 C571 1.390 1_545 S
C563 C562 1.387 . S
C563 C565 1.387 . S
H564 C571 0.950 . S
C565 C563 1.387 . S
C565 C567 1.390 1_545 S
C565 H569 0.950 . S
H566 C562 0.950 . S
C567 C565 1.390 1_565 S
C567 C568 1.387 . S
C567 H570 0.950 . S
C568 C567 1.387 . S
C568 C571 1.387 . S
H569 C565 0.950 . S
H570 C567 0.950 . S
C571 C562 1.390 1_565 S
C571 H564 0.950 . S
C571 C568 1.387 . S
C572 C573 1.387 . S
C572 H576 0.950 . S
C572 C581 1.390 1_655 S
C573 C572 1.387 . S
C573 C575 1.387 . S
H574 C581 0.950 . S
C575 C573 1.387 . S
C575 C577 1.390 1_655 S
C575 H579 0.950 . S
H576 C572 0.950 . S
C577 C575 1.390 1_455 S
C577 C578 1.387 . S
C577 H580 0.950 . S
C578 C577 1.387 . S
C578 C581 1.387 . S
H579 C575 0.950 . S
H580 C577 0.950 . S
C581 C572 1.390 1_455 S
C581 H574 0.950 . S
C581 C578 1.387 . S
C582 C583 1.387 . S
C582 H586 0.950 . S
C582 C591 1.390 1_545 S
C583 C582 1.387 . S
C583 C585 1.387 . S
H584 C591 0.950 . S
C585 C583 1.387 . S
C585 C587 1.390 1_545 S
C585 H589 0.950 . S
H586 C582 0.950 . S
C587 C585 1.390 1_565 S
C587 C588 1.387 . S
C587 H590 0.950 . S
C588 C587 1.387 . S
C588 C591 1.387 . S
H589 C585 0.950 . S
H590 C587 0.950 . S
C591 C582 1.390 1_565 S
C591 H584 0.950 . S
C591 C588 1.387 . S
C592 C593 1.387 . S
C592 H596 0.950 . S
C592 C601 1.390 1_565 S
C593 C592 1.387 . S
C593 C595 1.387 . S
H594 C601 0.950 . S
C595 C593 1.387 . S
C595 C597 1.390 1_565 S
C595 H599 0.950 . S
H596 C592 0.950 . S
C597 C595 1.390 1_545 S
C597 C598 1.387 . S
C597 H600 0.950 . S
C598 C597 1.387 . S
C598 C601 1.387 . S
H599 C595 0.950 . S
H600 C597 0.950 . S
C601 C592 1.390 1_545 S
C601 H594 0.950 . S
C601 C598 1.387 . S
C602 C603 1.387 . S
C602 H606 0.950 . S
C602 C611 1.390 1_655 S
C603 C602 1.387 . S
C603 C605 1.387 . S
H604 C611 0.950 . S
C605 C603 1.387 . S
C605 C607 1.390 1_655 S
C605 H609 0.950 . S
H606 C602 0.950 . S
C607 C605 1.390 1_455 S
C607 C608 1.387 . S
C607 H610 0.950 . S
C608 C607 1.387 . S
C608 C611 1.387 . S
H609 C605 0.950 . S
H610 C607 0.950 . S
C611 C602 1.390 1_455 S
C611 H604 0.950 . S
C611 C608 1.387 . S
C612 C613 1.387 . S
C612 H616 0.950 . S
C612 C621 1.390 1_565 S
C613 C612 1.387 . S
C613 C615 1.387 . S
H614 C621 0.950 . S
C615 C613 1.387 . S
C615 C617 1.390 1_565 S
C615 H619 0.950 . S
H616 C612 0.950 . S
C617 C615 1.390 1_545 S
C617 C618 1.387 . S
C617 H620 0.950 . S
C618 C617 1.387 . S
C618 C621 1.387 . S
H619 C615 0.950 . S
H620 C617 0.950 . S
C621 C612 1.390 1_545 S
C621 H614 0.950 . S
C621 C618 1.387 . S
C622 C623 1.387 . S
C622 H626 0.950 . S
C622 C631 1.390 1_655 S
C623 C622 1.387 . S
C623 C625 1.387 . S
H624 C631 0.950 . S
C625 C623 1.387 . S
C625 C627 1.390 1_655 S
C625 H629 0.950 . S
H626 C622 0.950 . S
C627 C625 1.390 1_455 S
C627 C628 1.387 . S
C627 H630 0.950 . S
C628 C627 1.387 . S
C628 C631 1.387 . S
H629 C625 0.950 . S
H630 C627 0.950 . S
C631 C622 1.390 1_455 S
C631 H624 0.950 . S
C631 C628 1.387 . S
C632 C633 1.387 . S
C632 H636 0.950 . S
C632 C641 1.390 1_556 S
C633 C632 1.387 . S
C633 C635 1.387 . S
H634 C641 0.950 . S
C635 C633 1.387 . S
C635 C637 1.390 1_556 S
C635 H639 0.950 . S
H636 C632 0.950 . S
C637 C635 1.390 1_554 S
C637 C638 1.387 . S
C637 H640 0.950 . S
C638 C637 1.387 . S
C638 C641 1.387 . S
H639 C635 0.950 . S
H640 C637 0.950 . S
C641 C632 1.390 1_554 S
C641 H634 0.950 . S
C641 C638 1.387 . S
C642 C643 1.387 . S
C642 H646 0.950 . S
C642 C651 1.390 1_556 S
C643 C642 1.387 . S
C643 C645 1.387 . S
H644 C651 0.950 . S
C645 C643 1.387 . S
C645 C647 1.390 1_556 S
C645 H649 0.950 . S
H646 C642 0.950 . S
C647 C645 1.390 1_554 S
C647 C648 1.387 . S
C647 H650 0.950 . S
C648 C647 1.387 . S
C648 C651 1.387 . S
H649 C645 0.950 . S
H650 C647 0.950 . S
C651 C642 1.390 1_554 S
C651 H644 0.950 . S
C651 C648 1.387 . S
C652 C653 1.387 . S
C652 H656 0.950 . S
C652 C661 1.390 1_556 S
C653 C652 1.387 . S
C653 C655 1.387 . S
H654 C661 0.950 . S
C655 C653 1.387 . S
C655 C657 1.390 1_556 S
C655 H659 0.950 . S
H656 C652 0.950 . S
C657 C655 1.390 1_554 S
C657 C658 1.387 . S
C657 H660 0.950 . S
C658 C657 1.387 . S
C658 C661 1.387 . S
H659 C655 0.950 . S
H660 C657 0.950 . S
C661 C652 1.390 1_554 S
C661 H654 0.950 . S
C661 C658 1.387 . S
C662 C663 1.387 . S
C662 H666 0.950 . S
C662 C671 1.390 1_556 S
C663 C662 1.387 . S
C663 C665 1.387 . S
H664 C671 0.950 . S
C665 C663 1.387 . S
C665 C667 1.390 1_556 S
C665 H669 0.950 . S
H666 C662 0.950 . S
C667 C665 1.390 1_554 S
C667 C668 1.387 . S
C667 H670 0.950 . S
C668 C667 1.387 . S
C668 C671 1.387 . S
H669 C665 0.950 . S
H670 C667 0.950 . S
C671 C662 1.390 1_554 S
C671 H664 0.950 . S
C671 C668 1.387 . S
C672 C673 1.387 . S
C672 H676 0.950 . S
C672 C681 1.390 . S
C673 C672 1.387 . S
C673 C675 1.387 . S
H674 C681 0.950 . S
C675 C673 1.387 . S
C675 C677 1.390 . S
C675 H679 0.950 . S
H676 C672 0.950 . S
C677 C675 1.390 . S
C677 C678 1.387 . S
C677 H680 0.950 . S
C678 C677 1.387 . S
C678 C681 1.387 . S
H679 C675 0.950 . S
H680 C677 0.950 . S
C681 C672 1.390 . S
C681 H674 0.950 . S
C681 C678 1.387 . S
C682 C683 1.387 . S
C682 H686 0.950 . S
C682 C691 1.390 . S
C683 C682 1.387 . S
C683 C685 1.387 . S
H684 C691 0.950 . S
C685 C683 1.387 . S
C685 C687 1.390 . S
C685 H689 0.950 . S
H686 C682 0.950 . S
C687 C685 1.390 . S
C687 C688 1.387 . S
C687 H690 0.950 . S
C688 C687 1.387 . S
C688 C691 1.387 . S
H689 C685 0.950 . S
H690 C687 0.950 . S
C691 C682 1.390 . S
C691 H684 0.950 . S
C691 C688 1.387 . S
C692 C693 1.387 . S
C692 H696 0.950 . S
C692 C701 1.390 . S
C693 C692 1.387 . S
C693 C695 1.387 . S
H694 C701 0.950 . S
C695 C693 1.387 . S
C695 C697 1.390 . S
C695 H699 0.950 . S
H696 C692 0.950 . S
C697 C695 1.390 . S
C697 C698 1.387 . S
C697 H700 0.950 . S
C698 C697 1.387 . S
C698 C701 1.387 . S
H699 C695 0.950 . S
H700 C697 0.950 . S
C701 C692 1.390 . S
C701 H694 0.950 . S
C701 C698 1.387 . S
C702 C703 1.387 . S
C702 H706 0.950 . S
C702 C711 1.390 . S
C703 C702 1.387 . S
C703 C705 1.387 . S
H704 C711 0.950 . S
C705 C703 1.387 . S
C705 C707 1.390 . S
C705 H709 0.950 . S
H706 C702 0.950 . S
C707 C705 1.390 . S
C707 C708 1.387 . S
C707 H710 0.950 . S
C708 C707 1.387 . S
C708 C711 1.387 . S
H709 C705 0.950 . S
H710 C707 0.950 . S
C711 C702 1.390 . S
C711 H704 0.950 . S
C711 C708 1.387 . S
C712 C713 1.387 . S
C712 H716 0.950 . S
C712 C721 1.390 . S
C713 C712 1.387 . S
C713 C715 1.387 . S
H714 C721 0.950 . S
C715 C713 1.387 . S
C715 C717 1.390 . S
C715 H719 0.950 . S
H716 C712 0.950 . S
C717 C715 1.390 . S
C717 C718 1.387 . S
C717 H720 0.950 . S
C718 C717 1.387 . S
C718 C721 1.387 . S
H719 C715 0.950 . S
H720 C717 0.950 . S
C721 C712 1.390 . S
C721 H714 0.950 . S
C721 C718 1.387 . S
C722 C723 1.387 . S
C722 H726 0.950 . S
C722 C731 1.390 . S
C723 C722 1.387 . S
C723 C725 1.387 . S
H724 C731 0.950 . S
C725 C723 1.387 . S
C725 C727 1.390 . S
C725 H729 0.950 . S
H726 C722 0.950 . S
C727 C725 1.390 . S
C727 C728 1.387 . S
C727 H730 0.950 . S
C728 C727 1.387 . S
C728 C731 1.387 . S
H729 C725 0.950 . S
H730 C727 0.950 . S
C731 C722 1.390 . S
C731 H724 0.950 . S
C731 C728 1.387 . S
C732 C733 1.387 . S
C732 H736 0.950 . S
C732 C741 1.390 . S
C733 C732 1.387 . S
C733 C735 1.387 . S
H734 C741 0.950 . S
C735 C733 1.387 . S
C735 C737 1.390 . S
C735 H739 0.950 . S
H736 C732 0.950 . S
C737 C735 1.390 . S
C737 C738 1.387 . S
C737 H740 0.950 . S
C738 C737 1.387 . S
C738 C741 1.387 . S
H739 C735 0.950 . S
H740 C737 0.950 . S
C741 C732 1.390 . S
C741 H734 0.950 . S
C741 C738 1.387 . S
C742 C743 1.387 . S
C742 H746 0.950 . S
C742 C751 1.390 . S
C743 C742 1.387 . S
C743 C745 1.387 . S
H744 C751 0.950 . S
C745 C743 1.387 . S
C745 C747 1.390 . S
C745 H749 0.950 . S
H746 C742 0.950 . S
C747 C745 1.390 . S
C747 C748 1.387 . S
C747 H750 0.950 . S
C748 C747 1.387 . S
C748 C751 1.387 . S
H749 C745 0.950 . S
H750 C747 0.950 . S
C751 C742 1.390 . S
C751 H744 0.950 . S
C751 C748 1.387 . S
C752 C753 1.387 . S
C752 H756 0.950 . S
C752 C761 1.390 . S
C753 C752 1.387 . S
C753 C755 1.387 . S
H754 C761 0.950 . S
C755 C753 1.387 . S
C755 C757 1.390 . S
C755 H759 0.950 . S
H756 C752 0.950 . S
C757 C755 1.390 . S
C757 C758 1.387 . S
C757 H760 0.950 . S
C758 C757 1.387 . S
C758 C761 1.387 . S
H759 C755 0.950 . S
H760 C757 0.950 . S
C761 C752 1.390 . S
C761 H754 0.950 . S
C761 C758 1.387 . S
C762 C763 1.387 . S
C762 H766 0.950 . S
C762 C771 1.390 . S
C763 C762 1.387 . S
C763 C765 1.387 . S
H764 C771 0.950 . S
C765 C763 1.387 . S
C765 C767 1.390 . S
C765 H769 0.950 . S
H766 C762 0.950 . S
C767 C765 1.390 . S
C767 C768 1.387 . S
C767 H770 0.950 . S
C768 C767 1.387 . S
C768 C771 1.387 . S
H769 C765 0.950 . S
H770 C767 0.950 . S
C771 C762 1.390 . S
C771 H764 0.950 . S
C771 C768 1.387 . S
C772 C773 1.387 . S
C772 H776 0.950 . S
C772 C781 1.390 . S
C773 C772 1.387 . S
C773 C775 1.387 . S
H774 C781 0.950 . S
C775 C773 1.387 . S
C775 C777 1.390 . S
C775 H779 0.950 . S
H776 C772 0.950 . S
C777 C775 1.390 . S
C777 C778 1.387 . S
C777 H780 0.950 . S
C778 C777 1.387 . S
C778 C781 1.387 . S
H779 C775 0.950 . S
H780 C777 0.950 . S
C781 C772 1.390 . S
C781 H774 0.950 . S
C781 C778 1.387 . S
C782 C783 1.387 . S
C782 H786 0.950 . S
C782 C791 1.390 . S
C783 C782 1.387 . S
C783 C785 1.387 . S
H784 C791 0.950 . S
C785 C783 1.387 . S
C785 C787 1.390 . S
C785 H789 0.950 . S
H786 C782 0.950 . S
C787 C785 1.390 . S
C787 C788 1.387 . S
C787 H790 0.950 . S
C788 C787 1.387 . S
C788 C791 1.387 . S
H789 C785 0.950 . S
H790 C787 0.950 . S
C791 C782 1.390 . S
C791 H784 0.950 . S
C791 C788 1.387 . S
C313 C153 1.444 . S
C318 C8 1.414 . S
C323 C21 1.413 . S
C328 C114 1.444 . S
C333 C34 1.412 . S
C338 C127 1.443 . S
C343 C47 1.416 . S
C348 C140 1.442 . S
C353 C179 1.441 . S
C358 C60 1.415 . S
C363 C73 1.414 . S
C368 C192 1.441 . S
C373 C205 1.444 . S
C378 C86 1.414 . S
C383 C166 1.441 . S
C388 C99 1.414 . S
C393 C75 1.444 . S
C398 C112 1.413 . S
C403 C88 1.443 . S
C408 C125 1.415 . S
C413 C138 1.414 . S
C418 C101 1.444 . S
C423 C62 1.441 . S
C428 C151 1.415 . S
C433 C49 1.441 . S
C438 C164 1.415 . S
C443 C177 1.413 . S
C448 C10 1.444 . S
C453 C190 1.414 . S
C458 C23 1.441 . S
C463 C203 1.414 . S
C468 C36 1.444 . S
C473 C216 1.414 . S
C478 C309 1.441 . S
C483 C270 1.441 . S
C488 C229 1.414 . S
C493 C242 1.414 . S
C498 C231 1.444 . S
C503 C255 1.414 . S
C508 C244 1.441 . S
C513 C257 1.441 . S
C518 C268 1.415 . S
C523 C281 1.413 . S
C528 C296 1.444 . S
C533 C218 1.441 . S
C538 C294 1.415 . S
C543 C283 1.444 . S
C548 C307 1.414 . S
C553 C5 1.382 . S
C558 C83 1.382 . S
C563 C18 1.382 . S
C568 C96 1.382 . S
C573 C31 1.382 . S
C578 C57 1.382 . S
C583 C70 1.382 . S
C588 C44 1.382 . S
C593 C135 1.382 . S
C598 C109 1.382 . S
C603 C122 1.382 . S
C608 C148 1.382 . S
C613 C161 1.382 . S
C618 C187 1.382 . S
C623 C200 1.382 . S
C628 C174 1.382 . S
C633 C226 1.382 . S
C638 C213 1.382 . S
C643 C239 1.382 . S
C648 C304 1.382 . S
C653 C252 1.382 . S
C658 C278 1.382 . S
C663 C265 1.382 . S
C668 C291 1.382 . S
C673 C0 1.114 . S
C678 C65 1.116 . S
C683 C13 1.114 . S
C688 C78 1.116 . S
C693 C26 1.114 . S
C698 C91 1.116 . S
C703 C52 1.114 . S
C708 C39 1.116 . S
C713 C104 1.115 . S
C718 C299 1.114 . S
C723 C117 1.114 . S
C728 C273 1.116 . S
C733 C286 1.114 . S
C738 C130 1.116 . S
C743 C143 1.114 . S
C748 C208 1.116 . S
C753 C260 1.116 . S
C758 C156 1.114 . S
C763 C221 1.114 . S
C768 C169 1.116 . S
C773 C182 1.114 . S
C778 C234 1.116 . S
C783 C247 1.116 . S
C788 C195 1.114 . S
