# Generated by pormake.
# Topology ume, (4)-cn, num edge types: 1
# Building blocks:
#     Node 0, Type 0, BuildingBlock: NAWXER_clean_sbu_0, # of connection points: 4
#     Node 1, Type 0, BuildingBlock: NAWXER_clean_sbu_0, # of connection points: 4
#     Node 2, Type 0, BuildingBlock: NAWXER_clean_sbu_0, # of connection points: 4
#     Node 3, Type 0, BuildingBlock: NAWXER_clean_sbu_0, # of connection points: 4
#     Node 4, Type 0, BuildingBlock: NAWXER_clean_sbu_0, # of connection points: 4
#     Node 5, Type 0, BuildingBlock: NAWXER_clean_sbu_0, # of connection points: 4
#     Node 6, Type 0, BuildingBlock: NAWXER_clean_sbu_0, # of connection points: 4
#     Node 7, Type 0, BuildingBlock: NAWXER_clean_sbu_0, # of connection points: 4
#     Node 8, Type 0, BuildingBlock: NAWXER_clean_sbu_0, # of connection points: 4
#     Node 9, Type 0, BuildingBlock: NAWXER_clean_sbu_0, # of connection points: 4
#     Node 10, Type 0, BuildingBlock: NAWXER_clean_sbu_0, # of connection points: 4
#     Node 11, Type 0, BuildingBlock: NAWXER_clean_sbu_0, # of connection points: 4
#     Node 12, Type 0, BuildingBlock: NAWXER_clean_sbu_0, # of connection points: 4
#     Node 13, Type 0, BuildingBlock: NAWXER_clean_sbu_0, # of connection points: 4
#     Node 14, Type 0, BuildingBlock: NAWXER_clean_sbu_0, # of connection points: 4
#     Node 15, Type 0, BuildingBlock: NAWXER_clean_sbu_0, # of connection points: 4
#     Edge 16, Type (0, 0), BuildingBlock: OJICUG_clean_linker_0, # of connection points: 2
#     Edge 17, Type (0, 0), BuildingBlock: OJICUG_clean_linker_0, # of connection points: 2
#     Edge 18, Type (0, 0), BuildingBlock: OJICUG_clean_linker_0, # of connection points: 2
#     Edge 19, Type (0, 0), BuildingBlock: OJICUG_clean_linker_0, # of connection points: 2
#     Edge 20, Type (0, 0), BuildingBlock: OJICUG_clean_linker_0, # of connection points: 2
#     Edge 21, Type (0, 0), BuildingBlock: OJICUG_clean_linker_0, # of connection points: 2
#     Edge 22, Type (0, 0), BuildingBlock: OJICUG_clean_linker_0, # of connection points: 2
#     Edge 23, Type (0, 0), BuildingBlock: OJICUG_clean_linker_0, # of connection points: 2
#     Edge 24, Type (0, 0), BuildingBlock: OJICUG_clean_linker_0, # of connection points: 2
#     Edge 25, Type (0, 0), BuildingBlock: OJICUG_clean_linker_0, # of connection points: 2
#     Edge 26, Type (0, 0), BuildingBlock: OJICUG_clean_linker_0, # of connection points: 2
#     Edge 27, Type (0, 0), BuildingBlock: OJICUG_clean_linker_0, # of connection points: 2
#     Edge 28, Type (0, 0), BuildingBlock: OJICUG_clean_linker_0, # of connection points: 2
#     Edge 29, Type (0, 0), BuildingBlock: OJICUG_clean_linker_0, # of connection points: 2
#     Edge 30, Type (0, 0), BuildingBlock: OJICUG_clean_linker_0, # of connection points: 2
#     Edge 31, Type (0, 0), BuildingBlock: OJICUG_clean_linker_0, # of connection points: 2
#     Edge 32, Type (0, 0), BuildingBlock: OJICUG_clean_linker_0, # of connection points: 2
#     Edge 33, Type (0, 0), BuildingBlock: OJICUG_clean_linker_0, # of connection points: 2
#     Edge 34, Type (0, 0), BuildingBlock: OJICUG_clean_linker_0, # of connection points: 2
#     Edge 35, Type (0, 0), BuildingBlock: OJICUG_clean_linker_0, # of connection points: 2
#     Edge 36, Type (0, 0), BuildingBlock: OJICUG_clean_linker_0, # of connection points: 2
#     Edge 37, Type (0, 0), BuildingBlock: OJICUG_clean_linker_0, # of connection points: 2
#     Edge 38, Type (0, 0), BuildingBlock: OJICUG_clean_linker_0, # of connection points: 2
#     Edge 39, Type (0, 0), BuildingBlock: OJICUG_clean_linker_0, # of connection points: 2
#     Edge 40, Type (0, 0), BuildingBlock: OJICUG_clean_linker_0, # of connection points: 2
#     Edge 41, Type (0, 0), BuildingBlock: OJICUG_clean_linker_0, # of connection points: 2
#     Edge 42, Type (0, 0), BuildingBlock: OJICUG_clean_linker_0, # of connection points: 2
#     Edge 43, Type (0, 0), BuildingBlock: OJICUG_clean_linker_0, # of connection points: 2
#     Edge 44, Type (0, 0), BuildingBlock: OJICUG_clean_linker_0, # of connection points: 2
#     Edge 45, Type (0, 0), BuildingBlock: OJICUG_clean_linker_0, # of connection points: 2
#     Edge 46, Type (0, 0), BuildingBlock: OJICUG_clean_linker_0, # of connection points: 2
#     Edge 47, Type (0, 0), BuildingBlock: OJICUG_clean_linker_0, # of connection points: 2
# Relax obj value: 0.054
# Max RMSD: 0.243
# Mean RMSD: 0.243
data_MOF--net-ume--node1-NAWXER_clean_sbu_0--edge1-OJICUG_clean_linker_0
_symmetry_space_group_name_H-M    P1
_symmetry_Int_Tables_number       1
_symmetry_cell_setting            triclinic
loop_
_symmetry_equiv_pos_as_xyz
'x, y, z'
_cell_length_a     20.988586
_cell_length_b     20.988887
_cell_length_c     81.816932
_cell_angle_alpha  89.984787
_cell_angle_beta   89.989606
_cell_angle_gamma 90.160523
loop_
_atom_site_label
_atom_site_type_symbol
_atom_site_fract_x
_atom_site_fract_y
_atom_site_fract_z
_atom_type_partial_charge
C0 C 0.24365 0.10544 0.35514 0.0
C1 C 0.26455 0.14867 0.29721 0.0
O2 O 0.24397 0.15826 0.34761 0.0
Zn3 Zn 0.24841 0.12502 0.32592 0.0
O4 O 0.24455 0.05332 0.34692 0.0
Zn5 Zn 0.24857 0.02769 0.32119 0.0
O6 O 0.32402 0.97748 0.32058 0.0
O7 O 0.34114 0.07924 0.32586 0.0
O8 O 0.26033 0.08843 0.2998 0.0
O9 O 0.25903 0.18724 0.30904 0.0
O10 O 0.1546 0.08345 0.32205 0.0
O11 O 0.17192 0.98154 0.31747 0.0
C12 C 0.36252 0.02261 0.32365 0.0
C13 C 0.13314 0.02723 0.31904 0.0
C14 C 0.97264 0.86028 0.57332 0.0
C15 C 0.96994 0.63083 0.56882 0.0
O16 O 0.01803 0.82214 0.57041 0.0
Zn17 Zn 0.96823 0.7463 0.57096 0.0
O18 O 0.91604 0.83839 0.57547 0.0
Zn19 Zn 0.871 0.74485 0.57557 0.0
O20 O 0.83725 0.74012 0.59721 0.0
O21 O 0.94217 0.7421 0.5967 0.0
O22 O 0.91346 0.65149 0.57176 0.0
O23 O 0.01525 0.67029 0.56728 0.0
O24 O 0.90764 0.75794 0.54949 0.0
O25 O 0.8088 0.75469 0.55869 0.0
C26 C 0.88984 0.74055 0.60484 0.0
C27 C 0.84736 0.76139 0.54689 0.0
C28 C 0.13148 0.4713 0.82321 0.0
C29 C 0.36103 0.46844 0.819 0.0
O30 O 0.17003 0.51655 0.8203 0.0
Zn31 Zn 0.24543 0.46655 0.8209 0.0
O32 O 0.15288 0.41462 0.82537 0.0
Zn33 Zn 0.24624 0.36937 0.82551 0.0
O34 O 0.2502 0.33524 0.84713 0.0
O35 O 0.24888 0.44019 0.84663 0.0
O36 O 0.34004 0.41193 0.82191 0.0
O37 O 0.32176 0.51362 0.81733 0.0
O38 O 0.23362 0.4061 0.79941 0.0
O39 O 0.23639 0.30729 0.80862 0.0
C40 C 0.24988 0.3878 0.85476 0.0
C41 C 0.22991 0.34582 0.79681 0.0
C42 C 0.52057 0.63169 0.07466 0.0
C43 C 0.52282 0.861 0.06932 0.0
O44 O 0.47454 0.66959 0.07216 0.0
Zn45 Zn 0.52429 0.74506 0.07183 0.0
O46 O 0.57752 0.6538 0.07617 0.0
Zn47 Zn 0.62236 0.74824 0.07575 0.0
O48 O 0.65791 0.75342 0.09734 0.0
O49 O 0.55293 0.75036 0.09723 0.0
O50 O 0.5792 0.84042 0.07225 0.0
O51 O 0.4775 0.82149 0.06787 0.0
O52 O 0.58219 0.72866 0.05026 0.0
O53 O 0.68215 0.74161 0.05798 0.0
C54 C 0.60567 0.75253 0.10516 0.0
C55 C 0.64193 0.72889 0.04688 0.0
C56 C 0.23951 0.38867 0.92548 0.0
C57 C 0.26405 0.35191 0.98368 0.0
O58 O 0.23866 0.33648 0.93332 0.0
Zn59 Zn 0.24425 0.37183 0.95487 0.0
O60 O 0.24189 0.44145 0.93339 0.0
Zn61 Zn 0.24755 0.46985 0.95882 0.0
O62 O 0.3231 0.51952 0.95844 0.0
O63 O 0.33868 0.41653 0.95438 0.0
O64 O 0.26428 0.4117 0.98034 0.0
O65 O 0.25108 0.31184 0.97256 0.0
O66 O 0.15221 0.41491 0.95847 0.0
O67 O 0.17112 0.5166 0.96287 0.0
C68 C 0.36088 0.47343 0.95589 0.0
C69 C 0.13163 0.47125 0.96143 0.0
C70 C 0.60418 0.74174 0.1759 0.0
C71 C 0.63968 0.76451 0.23417 0.0
O72 O 0.65615 0.74057 0.18382 0.0
Zn73 Zn 0.61995 0.7453 0.20532 0.0
O74 O 0.5512 0.74384 0.18374 0.0
Zn75 Zn 0.52207 0.74862 0.20916 0.0
O76 O 0.47273 0.82393 0.20884 0.0
O77 O 0.57582 0.84005 0.20497 0.0
O78 O 0.57992 0.76502 0.23081 0.0
O79 O 0.67968 0.75136 0.22307 0.0
O80 O 0.57581 0.65301 0.20855 0.0
O81 O 0.47432 0.67225 0.21296 0.0
C82 C 0.51891 0.862 0.20644 0.0
C83 C 0.51917 0.63257 0.21138 0.0
C84 C 0.23218 0.14489 0.48378 0.0
C85 C 0.25319 0.10324 0.42587 0.0
O86 O 0.23925 0.18347 0.472 0.0
Zn87 Zn 0.24907 0.12142 0.45512 0.0
O88 O 0.23558 0.08461 0.48117 0.0
Zn89 Zn 0.24758 0.02424 0.45966 0.0
O90 O 0.32363 0.97717 0.46331 0.0
O91 O 0.3425 0.07892 0.45882 0.0
O92 O 0.25166 0.05072 0.43393 0.0
O93 O 0.25371 0.15565 0.43356 0.0
O94 O 0.15545 0.07628 0.45516 0.0
O95 O 0.17186 0.97427 0.46016 0.0
C96 C 0.36315 0.0224 0.46172 0.0
C97 C 0.13365 0.01961 0.45726 0.0
C98 C 0.96924 0.85981 0.7116 0.0
C99 C 0.97204 0.63038 0.70715 0.0
O100 O 0.01455 0.82063 0.71319 0.0
Zn101 Zn 0.96759 0.74434 0.7095 0.0
O102 O 0.91279 0.83878 0.70864 0.0
Zn103 Zn 0.87038 0.74518 0.70484 0.0
O104 O 0.80807 0.73502 0.7217 0.0
O105 O 0.90685 0.73247 0.73094 0.0
O106 O 0.91546 0.65193 0.70497 0.0
O107 O 0.0174 0.66878 0.71009 0.0
O108 O 0.94175 0.74836 0.68375 0.0
O109 O 0.83683 0.74967 0.68319 0.0
C110 C 0.84656 0.72866 0.73352 0.0
C111 C 0.88949 0.74958 0.67559 0.0
C112 C 0.86115 0.51993 0.82348 0.0
C113 C 0.63163 0.5226 0.81929 0.0
O114 O 0.82257 0.47461 0.82067 0.0
Zn115 Zn 0.74718 0.52458 0.82127 0.0
O116 O 0.83975 0.57663 0.82559 0.0
Zn117 Zn 0.74634 0.6218 0.82577 0.0
O118 O 0.74233 0.65617 0.84736 0.0
O119 O 0.74377 0.55123 0.84698 0.0
O120 O 0.65256 0.57919 0.82214 0.0
O121 O 0.67092 0.47739 0.81775 0.0
O122 O 0.75883 0.58478 0.7997 0.0
O123 O 0.75613 0.68372 0.80882 0.0
C124 C 0.74272 0.60372 0.85505 0.0
C125 C 0.76251 0.64503 0.79705 0.0
C126 C 0.38868 0.23983 0.10458 0.0
C127 C 0.35281 0.26363 0.04635 0.0
O128 O 0.3366 0.23888 0.0967 0.0
Zn129 Zn 0.37242 0.2442 0.07519 0.0
O130 O 0.44159 0.24212 0.09672 0.0
Zn131 Zn 0.47043 0.24751 0.0713 0.0
O132 O 0.52013 0.32303 0.07168 0.0
O133 O 0.41714 0.33868 0.07571 0.0
O134 O 0.41257 0.26403 0.04971 0.0
O135 O 0.31268 0.25071 0.05746 0.0
O136 O 0.41567 0.15208 0.07181 0.0
O137 O 0.51733 0.17105 0.06737 0.0
C138 C 0.47408 0.36085 0.07424 0.0
C139 C 0.47207 0.13152 0.0689 0.0
C140 C 0.63305 0.97593 0.32422 0.0
C141 C 0.86237 0.97575 0.31899 0.0
O142 O 0.67095 0.02221 0.32177 0.0
Zn143 Zn 0.74642 0.97307 0.32144 0.0
O144 O 0.65516 0.91911 0.32572 0.0
Zn145 Zn 0.74983 0.87518 0.32534 0.0
O146 O 0.75513 0.83956 0.34687 0.0
O147 O 0.75174 0.94448 0.34689 0.0
O148 O 0.84191 0.91918 0.32189 0.0
O149 O 0.82276 0.02071 0.31748 0.0
O150 O 0.72978 0.91484 0.29986 0.0
O151 O 0.74344 0.81514 0.30767 0.0
C152 C 0.7541 0.8916 0.35475 0.0
C153 C 0.73019 0.85503 0.29654 0.0
C154 C 0.10233 0.25062 0.60482 0.0
C155 C 0.14612 0.22958 0.54698 0.0
O156 O 0.15505 0.25109 0.59725 0.0
Zn157 Zn 0.12174 0.24637 0.5756 0.0
O158 O 0.05014 0.24909 0.59663 0.0
Zn159 Zn 0.02465 0.24493 0.57084 0.0
O160 O 0.97479 0.16913 0.57025 0.0
O161 O 0.07665 0.15285 0.57547 0.0
O162 O 0.08577 0.23305 0.54947 0.0
O163 O 0.18436 0.23646 0.55884 0.0
O164 O 0.07943 0.33975 0.57175 0.0
O165 O 0.97778 0.32099 0.56707 0.0
C166 C 0.02008 0.13098 0.57325 0.0
C167 C 0.02304 0.36045 0.56872 0.0
C168 C 0.7638 0.8458 0.48344 0.0
C169 C 0.74389 0.88897 0.4255 0.0
O170 O 0.75726 0.8074 0.4716 0.0
Zn171 Zn 0.74764 0.86978 0.45475 0.0
O172 O 0.76038 0.9061 0.48088 0.0
Zn173 Zn 0.74901 0.96693 0.45945 0.0
O174 O 0.67298 0.01393 0.46311 0.0
O175 O 0.65415 0.91224 0.45851 0.0
O176 O 0.74525 0.94115 0.4337 0.0
O177 O 0.74332 0.83623 0.43306 0.0
O178 O 0.84121 0.91494 0.45495 0.0
O179 O 0.82476 0.01682 0.4601 0.0
C180 C 0.63348 0.96871 0.46148 0.0
C181 C 0.863 0.97155 0.45716 0.0
C182 C 0.0222 0.13048 0.71158 0.0
C183 C 0.01943 0.35993 0.70713 0.0
O184 O 0.97691 0.16968 0.71317 0.0
Zn185 Zn 0.02388 0.24598 0.70947 0.0
O186 O 0.07865 0.1515 0.7086 0.0
Zn187 Zn 0.12105 0.24509 0.70479 0.0
O188 O 0.18346 0.25516 0.7216 0.0
O189 O 0.08475 0.25787 0.73089 0.0
O190 O 0.07601 0.33838 0.70494 0.0
O191 O 0.97408 0.32153 0.71008 0.0
O192 O 0.04967 0.2421 0.68371 0.0
O193 O 0.15458 0.24065 0.68315 0.0
C194 C 0.14507 0.26162 0.73343 0.0
C195 C 0.10195 0.24087 0.67555 0.0
C196 C 0.63179 0.51931 0.95623 0.0
C197 C 0.86107 0.52139 0.96167 0.0
O198 O 0.66953 0.47324 0.95884 0.0
Zn199 Zn 0.74514 0.52284 0.95918 0.0
O200 O 0.65403 0.57618 0.95469 0.0
Zn201 Zn 0.74842 0.62087 0.95517 0.0
O202 O 0.7539 0.65609 0.93358 0.0
O203 O 0.75073 0.55111 0.93374 0.0
O204 O 0.84047 0.57771 0.95869 0.0
O205 O 0.8216 0.47607 0.9632 0.0
O206 O 0.7287 0.58105 0.98069 0.0
O207 O 0.74178 0.68088 0.97287 0.0
C208 C 0.75306 0.6038 0.92579 0.0
C209 C 0.72901 0.64083 0.98402 0.0
C210 C 0.471 0.13242 0.20675 0.0
C211 C 0.46648 0.36188 0.21112 0.0
O212 O 0.51611 0.17111 0.20969 0.0
Zn213 Zn 0.46571 0.24637 0.2091 0.0
O214 O 0.41424 0.15363 0.20463 0.0
Zn215 Zn 0.36833 0.24651 0.20455 0.0
O216 O 0.3342 0.25048 0.18292 0.0
O217 O 0.43916 0.24983 0.18341 0.0
O218 O 0.41011 0.34049 0.20823 0.0
O219 O 0.51207 0.32299 0.21265 0.0
O220 O 0.40563 0.23474 0.23062 0.0
O221 O 0.3066 0.23619 0.22154 0.0
C222 C 0.3868 0.25055 0.17529 0.0
C223 C 0.34545 0.23061 0.23331 0.0
C224 C 0.97561 0.93892 0.31774 0.0
C225 C 0.93155 0.98908 0.31808 0.0
H226 H 0.07359 0.91164 0.31761 0.0
C227 C 0.95431 0.05223 0.31812 0.0
H228 H 0.95966 0.88979 0.31766 0.0
C229 C 0.01978 0.06486 0.31822 0.0
C230 C 0.06381 0.01462 0.31812 0.0
H231 H 0.92157 0.09201 0.31841 0.0
H232 H 0.03582 0.11395 0.31853 0.0
C233 C 0.04097 0.95154 0.31768 0.0
C234 C 0.04655 0.53955 0.56782 0.0
C235 C 0.98326 0.56165 0.56795 0.0
H236 H 0.10884 0.45886 0.56802 0.0
C237 C 0.93336 0.51701 0.56776 0.0
H238 H 0.0862 0.57269 0.56798 0.0
C239 C 0.94645 0.45174 0.56764 0.0
C240 C 0.00973 0.42964 0.56788 0.0
H241 H 0.88415 0.53243 0.56782 0.0
H242 H 0.9068 0.4186 0.56768 0.0
C243 C 0.05964 0.47428 0.56787 0.0
C244 C 0.54017 0.44565 0.81831 0.0
C245 C 0.56239 0.50904 0.81846 0.0
H246 H 0.45936 0.38302 0.81844 0.0
C247 C 0.51782 0.55875 0.81826 0.0
H248 H 0.57323 0.40613 0.81849 0.0
C249 C 0.45252 0.54539 0.8181 0.0
C250 C 0.43029 0.482 0.8183 0.0
H251 H 0.53333 0.60802 0.81834 0.0
H252 H 0.41945 0.58491 0.81811 0.0
C253 C 0.47486 0.43229 0.81832 0.0
C254 C 0.54798 0.03972 0.06791 0.0
C255 C 0.48494 0.06233 0.06807 0.0
H256 H 0.60944 0.95848 0.06824 0.0
C257 C 0.43458 0.01814 0.06802 0.0
H258 H 0.58791 0.07252 0.06796 0.0
C259 C 0.44697 0.95277 0.06806 0.0
C260 C 0.51001 0.93017 0.06831 0.0
H261 H 0.38551 0.034 0.06811 0.0
H262 H 0.40704 0.91998 0.06822 0.0
C263 C 0.56038 0.97434 0.0681 0.0
C264 C 0.03973 0.54692 0.96267 0.0
C265 C 0.06246 0.48394 0.96246 0.0
H266 H 0.95836 0.60819 0.96253 0.0
C267 C 0.0184 0.43347 0.96266 0.0
H268 H 0.07243 0.58692 0.9625 0.0
C269 C 0.953 0.44571 0.9628 0.0
C270 C 0.93026 0.50869 0.96259 0.0
H271 H 0.03437 0.38444 0.96256 0.0
H272 H 0.92029 0.4057 0.96274 0.0
C273 C 0.97433 0.55916 0.96265 0.0
C274 C 0.54259 0.45377 0.21236 0.0
C275 C 0.47938 0.43119 0.21199 0.0
H276 H 0.60472 0.53481 0.21241 0.0
C277 C 0.42935 0.47546 0.21198 0.0
H278 H 0.58234 0.42097 0.21236 0.0
C279 C 0.4423 0.54088 0.21214 0.0
C280 C 0.50556 0.56338 0.21215 0.0
H281 H 0.3802 0.45964 0.21173 0.0
H282 H 0.40266 0.57379 0.21195 0.0
C283 C 0.55552 0.51909 0.21236 0.0
C284 C 0.47709 0.05872 0.46257 0.0
C285 C 0.43233 0.00892 0.46249 0.0
H286 H 0.57556 0.08505 0.46248 0.0
C287 C 0.4543 0.94558 0.4626 0.0
H288 H 0.46178 0.10796 0.46251 0.0
C289 C 0.51955 0.93234 0.46245 0.0
C290 C 0.56431 0.98214 0.46234 0.0
H291 H 0.42107 0.90601 0.46251 0.0
H292 H 0.53486 0.8831 0.4623 0.0
C293 C 0.54234 0.04547 0.46258 0.0
C294 C 0.94564 0.03875 0.71263 0.0
C295 C 0.00892 0.06123 0.71244 0.0
H296 H 0.88339 0.95768 0.71246 0.0
C297 C 0.05885 0.0169 0.71254 0.0
H298 H 0.90598 0.07165 0.71253 0.0
C299 C 0.04579 0.95155 0.71263 0.0
C300 C 0.98252 0.92906 0.71245 0.0
H301 H 0.10805 0.03261 0.71242 0.0
H302 H 0.08546 0.91865 0.71252 0.0
C303 C 0.93259 0.9734 0.71256 0.0
C304 C 0.54033 0.05001 0.32546 0.0
C305 C 0.56381 0.98744 0.32481 0.0
H306 H 0.45836 0.11015 0.3257 0.0
C307 C 0.52055 0.93632 0.32425 0.0
H308 H 0.57249 0.09042 0.32597 0.0
C309 C 0.45504 0.94768 0.32399 0.0
C310 C 0.43161 0.01033 0.32443 0.0
H311 H 0.53723 0.88757 0.32371 0.0
H312 H 0.42281 0.90735 0.32335 0.0
C313 C 0.47491 0.06133 0.32534 0.0
C314 C 0.04745 0.9531 0.57404 0.0
C315 C 0.98473 0.92949 0.5739 0.0
H316 H 0.10781 0.03535 0.57407 0.0
C317 C 0.93373 0.97266 0.57399 0.0
H318 H 0.08777 0.92099 0.57404 0.0
C319 C 0.94523 0.03817 0.57389 0.0
C320 C 0.00795 0.06178 0.57386 0.0
H321 H 0.88486 0.95591 0.57387 0.0
H322 H 0.90491 0.07028 0.57378 0.0
C323 C 0.05895 0.01861 0.5741 0.0
C324 C 0.01868 0.43293 0.8241 0.0
C325 C 0.06237 0.48372 0.82385 0.0
H326 H 0.92077 0.40455 0.82413 0.0
C327 C 0.03938 0.54655 0.8239 0.0
H328 H 0.03494 0.38399 0.82406 0.0
C329 C 0.97397 0.55836 0.82405 0.0
C330 C 0.93028 0.50756 0.824 0.0
H331 H 0.07188 0.58672 0.82377 0.0
H332 H 0.95771 0.60729 0.82395 0.0
C333 C 0.95328 0.44473 0.8241 0.0
C334 C 0.55988 0.51944 0.07542 0.0
C335 C 0.50875 0.56243 0.07535 0.0
H336 H 0.589 0.42195 0.0751 0.0
C337 C 0.44609 0.5386 0.07546 0.0
H338 H 0.60869 0.53633 0.07533 0.0
C339 C 0.43478 0.47306 0.0754 0.0
C340 C 0.4859 0.43007 0.07511 0.0
H341 H 0.40565 0.57056 0.07547 0.0
H342 H 0.38596 0.45618 0.0753 0.0
C343 C 0.54856 0.4539 0.07525 0.0
C344 C 0.47303 0.43386 0.9551 0.0
C345 C 0.43015 0.4851 0.95517 0.0
H346 H 0.57044 0.40451 0.95542 0.0
C347 C 0.45412 0.54769 0.95502 0.0
H348 H 0.45602 0.38509 0.95522 0.0
C349 C 0.51968 0.55884 0.95506 0.0
C350 C 0.56255 0.50762 0.95537 0.0
H351 H 0.42226 0.5882 0.955 0.0
H352 H 0.53668 0.60762 0.95513 0.0
C353 C 0.53859 0.44501 0.95526 0.0
C354 C 0.55799 0.97473 0.20627 0.0
C355 C 0.50709 0.93121 0.20581 0.0
H356 H 0.58652 0.0726 0.20701 0.0
C357 C 0.44438 0.95441 0.20519 0.0
H358 H 0.60683 0.95828 0.20678 0.0
C359 C 0.43274 0.0198 0.20525 0.0
C360 C 0.48355 0.06334 0.20605 0.0
H361 H 0.40411 0.92206 0.20476 0.0
H362 H 0.38384 0.03612 0.20491 0.0
C363 C 0.54632 0.04019 0.20646 0.0
C364 C 0.97549 0.93292 0.45641 0.0
C365 C 0.9322 0.98381 0.4566 0.0
H366 H 0.07319 0.90434 0.45653 0.0
C367 C 0.95567 0.04659 0.45657 0.0
H368 H 0.95886 0.88402 0.45644 0.0
C369 C 0.02116 0.05825 0.45651 0.0
C370 C 0.06445 0.00736 0.45664 0.0
H371 H 0.92347 0.08683 0.45664 0.0
H372 H 0.03779 0.10715 0.45662 0.0
C373 C 0.04099 0.94458 0.45651 0.0
C374 C 0.94462 0.45234 0.70649 0.0
C375 C 0.00734 0.42908 0.70655 0.0
H376 H 0.88427 0.53427 0.7065 0.0
C377 C 0.05835 0.47252 0.70639 0.0
H378 H 0.9043 0.42001 0.70654 0.0
C379 C 0.04686 0.53797 0.70647 0.0
C380 C 0.98415 0.56123 0.70656 0.0
H381 H 0.10721 0.45604 0.70645 0.0
H382 H 0.08718 0.5703 0.70652 0.0
C383 C 0.93313 0.51779 0.70641 0.0
C384 C 0.2471 0.16164 0.3821 0.0
C385 C 0.24504 0.1043 0.37324 0.0
H386 H 0.25178 0.20624 0.40553 0.0
C387 C 0.2463 0.0463 0.38185 0.0
H388 H 0.24643 0.20719 0.37588 0.0
C389 C 0.24952 0.04574 0.39894 0.0
C390 C 0.25166 0.10317 0.40776 0.0
H391 H 0.24498 0.00126 0.37539 0.0
H392 H 0.25017 0.0003 0.40522 0.0
C393 C 0.25042 0.16108 0.39913 0.0
C394 C 0.8327 0.74333 0.63167 0.0
C395 C 0.89036 0.74193 0.62294 0.0
H396 H 0.78723 0.74733 0.65501 0.0
C397 C 0.94804 0.74372 0.63168 0.0
H398 H 0.78737 0.74224 0.62536 0.0
C399 C 0.94796 0.74678 0.64878 0.0
C400 C 0.89019 0.74823 0.65748 0.0
H401 H 0.99331 0.74292 0.62532 0.0
H402 H 0.99316 0.74785 0.65516 0.0
C403 C 0.83262 0.7465 0.64872 0.0
C404 C 0.24574 0.33077 0.88164 0.0
C405 C 0.24796 0.38834 0.87286 0.0
H406 H 0.2408 0.28568 0.90505 0.0
C407 C 0.24646 0.44611 0.88153 0.0
H408 H 0.24656 0.28537 0.87536 0.0
C409 C 0.24299 0.44627 0.89861 0.0
C410 C 0.24083 0.38866 0.90738 0.0
H411 H 0.24787 0.4913 0.87514 0.0
H412 H 0.24225 0.49161 0.90492 0.0
C413 C 0.24216 0.33092 0.89869 0.0
C414 C 0.66292 0.74899 0.13207 0.0
C415 C 0.60544 0.75096 0.12327 0.0
H416 H 0.70769 0.74403 0.15554 0.0
C417 C 0.54758 0.74922 0.13193 0.0
H418 H 0.70834 0.74999 0.12579 0.0
C419 C 0.5472 0.74561 0.14899 0.0
C420 C 0.60467 0.74355 0.15779 0.0
H421 H 0.50241 0.75045 0.12554 0.0
H422 H 0.50176 0.74458 0.15526 0.0
C423 C 0.66254 0.74528 0.14914 0.0
C424 C 0.74676 0.66113 0.88188 0.0
C425 C 0.74463 0.60344 0.87315 0.0
H426 H 0.7516 0.70654 0.90525 0.0
C427 C 0.74621 0.54579 0.88189 0.0
H428 H 0.74587 0.70644 0.87555 0.0
C429 C 0.74966 0.54587 0.89896 0.0
C430 C 0.75173 0.6036 0.90768 0.0
H431 H 0.74487 0.50051 0.87555 0.0
H432 H 0.75047 0.50061 0.90532 0.0
C433 C 0.75032 0.66121 0.89893 0.0
C434 C 0.33006 0.24622 0.14837 0.0
C435 C 0.38751 0.24867 0.15719 0.0
H436 H 0.28534 0.24099 0.12492 0.0
C437 C 0.44541 0.24735 0.14856 0.0
H438 H 0.28458 0.24691 0.15462 0.0
C439 C 0.44583 0.24377 0.1315 0.0
C440 C 0.38835 0.24134 0.12268 0.0
H441 H 0.49051 0.24893 0.15499 0.0
H442 H 0.49127 0.24313 0.12522 0.0
C443 C 0.33048 0.24255 0.13132 0.0
C444 C 0.75058 0.94857 0.38172 0.0
C445 C 0.75269 0.89119 0.37286 0.0
H446 H 0.74584 0.993 0.40526 0.0
C447 C 0.75135 0.83324 0.38147 0.0
H448 H 0.75134 0.99407 0.37547 0.0
C449 C 0.74783 0.83264 0.39852 0.0
C450 C 0.7457 0.88997 0.40739 0.0
H451 H 0.75267 0.78815 0.37505 0.0
H452 H 0.74702 0.78708 0.40474 0.0
C453 C 0.74719 0.94797 0.3988 0.0
C454 C 0.15902 0.24422 0.64872 0.0
C455 C 0.10136 0.24242 0.65745 0.0
H456 H 0.20452 0.24873 0.6254 0.0
C457 C 0.04368 0.24401 0.64871 0.0
H458 H 0.20436 0.2433 0.65503 0.0
C459 C 0.04377 0.24726 0.63162 0.0
C460 C 0.10155 0.24912 0.62292 0.0
H461 H -0.00158 0.24289 0.65507 0.0
H462 H -0.00142 0.24815 0.62523 0.0
C463 C 0.15911 0.2476 0.63168 0.0
C464 C 0.32828 0.22056 0.27925 0.0
C465 C 0.28168 0.17274 0.28087 0.0
H466 H 0.38637 0.27538 0.26278 0.0
C467 C 0.25451 0.14605 0.26678 0.0
H468 H 0.35035 0.24138 0.28997 0.0
C469 C 0.27354 0.16706 0.2513 0.0
C470 C 0.32172 0.21329 0.24967 0.0
H471 H 0.21868 0.109 0.26776 0.0
H472 H 0.25223 0.14546 0.24058 0.0
C473 C 0.34904 0.23984 0.26376 0.0
C474 C 0.82778 0.77311 0.50104 0.0
C475 C 0.78169 0.82132 0.49969 0.0
H476 H 0.88611 0.71736 0.51717 0.0
C477 C 0.75581 0.84788 0.51393 0.0
H478 H 0.84889 0.75239 0.49019 0.0
C479 C 0.7755 0.82626 0.5293 0.0
C480 C 0.8231 0.77954 0.53065 0.0
H481 H 0.72043 0.88523 0.51317 0.0
H482 H 0.75513 0.8477 0.54015 0.0
C483 C 0.84924 0.75323 0.5164 0.0
C484 C 0.21755 0.32642 0.75097 0.0
C485 C 0.16958 0.27979 0.74966 0.0
H486 H 0.27325 0.38527 0.76705 0.0
C487 C 0.14338 0.25355 0.76392 0.0
H488 H 0.23799 0.3478 0.7401 0.0
C489 C 0.16514 0.27339 0.77927 0.0
C490 C 0.21162 0.3215 0.78058 0.0
H491 H 0.10623 0.21774 0.76319 0.0
H492 H 0.14399 0.25272 0.79013 0.0
C493 C 0.23756 0.34801 0.76631 0.0
C494 C 0.65673 0.63324 1.00804 0.0
C495 C 0.70843 0.66308 1.00026 0.0
H496 H 0.59392 0.63242 0.02869 0.0
C497 C 0.73769 0.71577 1.00776 0.0
H498 H 0.63294 0.59298 1.0024 0.0
C499 C 0.7164 0.73731 0.02302 0.0
C500 C 0.66391 0.70809 0.03063 0.0
H501 H 0.77748 0.73965 1.00193 0.0
H502 H 0.74031 0.77726 0.02877 0.0
C503 C 0.63402 0.65619 0.02296 0.0
C504 C 0.36038 0.33622 0.02238 0.0
C505 C 0.33059 0.2844 0.03012 0.0
H506 H 0.36091 0.39948 1.00182 0.0
C507 C 0.27775 0.25536 0.02264 0.0
H508 H 0.40074 0.35987 0.02802 0.0
C509 C 0.25597 0.27702 1.00744 0.0
C510 C 0.28511 0.32964 0.99987 0.0
H511 H 0.25389 0.2155 0.02844 0.0
H512 H 0.2159 0.25328 1.0017 0.0
C513 C 0.3372 0.35929 1.00752 0.0
C514 C 0.73747 0.77945 0.27292 0.0
C515 C 0.7088 0.83236 0.28039 0.0
H516 H 0.73869 0.71707 0.25209 0.0
C517 C 0.6566 0.86161 0.27275 0.0
H518 H 0.77757 0.75595 0.27864 0.0
C519 C 0.63288 0.83789 0.258 0.0
C520 C 0.6622 0.78576 0.25035 0.0
H521 H 0.6332 0.90198 0.27839 0.0
H522 H 0.5925 0.86128 0.25236 0.0
C523 C 0.71514 0.75712 0.25782 0.0
C524 C 0.16713 0.21723 0.50119 0.0
C525 C 0.21348 0.16921 0.49998 0.0
H526 H 0.10807 0.27297 0.51714 0.0
C527 C 0.23896 0.14287 0.5143 0.0
H528 H 0.14633 0.23777 0.49027 0.0
C529 C 0.21866 0.16461 0.5296 0.0
C530 C 0.17087 0.21118 0.5308 0.0
H531 H 0.27453 0.10568 0.51364 0.0
H532 H 0.23877 0.14339 0.54051 0.0
C533 C 0.14508 0.23721 0.51648 0.0
C534 C 0.84842 0.73715 0.76399 0.0
C535 C 0.8222 0.71061 0.74977 0.0
H536 H 0.84805 0.73835 0.79021 0.0
C537 C 0.77443 0.66382 0.75116 0.0
H538 H 0.88543 0.77309 0.7632 0.0
C539 C 0.75464 0.64236 0.76655 0.0
C540 C 0.7806 0.66917 0.78077 0.0
H541 H 0.75399 0.64221 0.74033 0.0
H542 H 0.71909 0.60498 0.76734 0.0
C543 C 0.82688 0.71744 0.77937 0.0
loop_
_geom_bond_atom_site_label_1
_geom_bond_atom_site_label_2
_geom_bond_distance
_geom_bond_site_symmetry_2
_ccdc_geom_bond_type
C0 O2 1.247 . S
C0 O4 1.258 . S
C1 O8 1.247 . S
C1 O9 1.258 . S
O2 C0 1.247 . S
O2 Zn3 2.028 . S
Zn3 O2 2.028 . S
Zn3 O7 2.035 . S
Zn3 O9 2.035 . S
Zn3 O10 2.028 . S
O4 C0 1.258 . S
O4 Zn5 2.035 . S
Zn5 O4 2.035 . S
Zn5 O6 2.028 . S
Zn5 O8 2.028 . S
Zn5 O11 2.035 . S
O6 Zn5 2.028 . S
O6 C12 1.247 . S
O7 Zn3 2.035 . S
O7 C12 1.258 . S
O8 C1 1.247 . S
O8 Zn5 2.028 . S
O9 C1 1.258 . S
O9 Zn3 2.035 . S
O10 Zn3 2.028 . S
O10 C13 1.247 . S
O11 Zn5 2.035 . S
O11 C13 1.258 . S
C12 O6 1.247 . S
C12 O7 1.258 . S
C13 O10 1.247 . S
C13 O11 1.258 . S
C14 O16 1.247 . S
C14 O18 1.258 . S
C15 O22 1.247 . S
C15 O23 1.258 . S
O16 C14 1.247 . S
O16 Zn17 2.028 . S
Zn17 O16 2.028 . S
Zn17 O21 2.035 . S
Zn17 O23 2.035 . S
Zn17 O24 2.028 . S
O18 C14 1.258 . S
O18 Zn19 2.035 . S
Zn19 O18 2.035 . S
Zn19 O20 2.028 . S
Zn19 O22 2.028 . S
Zn19 O25 2.035 . S
O20 Zn19 2.028 . S
O20 C26 1.247 . S
O21 Zn17 2.035 . S
O21 C26 1.258 . S
O22 C15 1.247 . S
O22 Zn19 2.028 . S
O23 C15 1.258 . S
O23 Zn17 2.035 . S
O24 Zn17 2.028 . S
O24 C27 1.247 . S
O25 Zn19 2.035 . S
O25 C27 1.258 . S
C26 O20 1.247 . S
C26 O21 1.258 . S
C27 O24 1.247 . S
C27 O25 1.258 . S
C28 O30 1.247 . S
C28 O32 1.258 . S
C29 O36 1.247 . S
C29 O37 1.258 . S
O30 C28 1.247 . S
O30 Zn31 2.028 . S
Zn31 O30 2.028 . S
Zn31 O35 2.035 . S
Zn31 O37 2.035 . S
Zn31 O38 2.028 . S
O32 C28 1.258 . S
O32 Zn33 2.035 . S
Zn33 O32 2.035 . S
Zn33 O34 2.028 . S
Zn33 O36 2.028 . S
Zn33 O39 2.035 . S
O34 Zn33 2.028 . S
O34 C40 1.247 . S
O35 Zn31 2.035 . S
O35 C40 1.258 . S
O36 C29 1.247 . S
O36 Zn33 2.028 . S
O37 C29 1.258 . S
O37 Zn31 2.035 . S
O38 Zn31 2.028 . S
O38 C41 1.247 . S
O39 Zn33 2.035 . S
O39 C41 1.258 . S
C40 O34 1.247 . S
C40 O35 1.258 . S
C41 O38 1.247 . S
C41 O39 1.258 . S
C42 O44 1.247 . S
C42 O46 1.258 . S
C43 O50 1.247 . S
C43 O51 1.258 . S
O44 C42 1.247 . S
O44 Zn45 2.028 . S
Zn45 O44 2.028 . S
Zn45 O49 2.035 . S
Zn45 O51 2.035 . S
Zn45 O52 2.028 . S
O46 C42 1.258 . S
O46 Zn47 2.035 . S
Zn47 O46 2.035 . S
Zn47 O48 2.028 . S
Zn47 O50 2.028 . S
Zn47 O53 2.035 . S
O48 Zn47 2.028 . S
O48 C54 1.247 . S
O49 Zn45 2.035 . S
O49 C54 1.258 . S
O50 C43 1.247 . S
O50 Zn47 2.028 . S
O51 C43 1.258 . S
O51 Zn45 2.035 . S
O52 Zn45 2.028 . S
O52 C55 1.247 . S
O53 Zn47 2.035 . S
O53 C55 1.258 . S
C54 O48 1.247 . S
C54 O49 1.258 . S
C55 O52 1.247 . S
C55 O53 1.258 . S
C56 O58 1.247 . S
C56 O60 1.258 . S
C57 O64 1.247 . S
C57 O65 1.258 . S
O58 C56 1.247 . S
O58 Zn59 2.028 . S
Zn59 O58 2.028 . S
Zn59 O63 2.035 . S
Zn59 O65 2.035 . S
Zn59 O66 2.028 . S
O60 C56 1.258 . S
O60 Zn61 2.035 . S
Zn61 O60 2.035 . S
Zn61 O62 2.028 . S
Zn61 O64 2.028 . S
Zn61 O67 2.035 . S
O62 Zn61 2.028 . S
O62 C68 1.247 . S
O63 Zn59 2.035 . S
O63 C68 1.258 . S
O64 C57 1.247 . S
O64 Zn61 2.028 . S
O65 C57 1.258 . S
O65 Zn59 2.035 . S
O66 Zn59 2.028 . S
O66 C69 1.247 . S
O67 Zn61 2.035 . S
O67 C69 1.258 . S
C68 O62 1.247 . S
C68 O63 1.258 . S
C69 O66 1.247 . S
C69 O67 1.258 . S
C70 O72 1.247 . S
C70 O74 1.258 . S
C71 O78 1.247 . S
C71 O79 1.258 . S
O72 C70 1.247 . S
O72 Zn73 2.028 . S
Zn73 O72 2.028 . S
Zn73 O77 2.035 . S
Zn73 O79 2.035 . S
Zn73 O80 2.028 . S
O74 C70 1.258 . S
O74 Zn75 2.035 . S
Zn75 O74 2.035 . S
Zn75 O76 2.028 . S
Zn75 O78 2.028 . S
Zn75 O81 2.035 . S
O76 Zn75 2.028 . S
O76 C82 1.247 . S
O77 Zn73 2.035 . S
O77 C82 1.258 . S
O78 C71 1.247 . S
O78 Zn75 2.028 . S
O79 C71 1.258 . S
O79 Zn73 2.035 . S
O80 Zn73 2.028 . S
O80 C83 1.247 . S
O81 Zn75 2.035 . S
O81 C83 1.258 . S
C82 O76 1.247 . S
C82 O77 1.258 . S
C83 O80 1.247 . S
C83 O81 1.258 . S
C84 O86 1.247 . S
C84 O88 1.258 . S
C85 O92 1.247 . S
C85 O93 1.258 . S
O86 C84 1.247 . S
O86 Zn87 2.028 . S
Zn87 O86 2.028 . S
Zn87 O91 2.035 . S
Zn87 O93 2.035 . S
Zn87 O94 2.028 . S
O88 C84 1.258 . S
O88 Zn89 2.035 . S
Zn89 O88 2.035 . S
Zn89 O90 2.028 . S
Zn89 O92 2.028 . S
Zn89 O95 2.035 . S
O90 Zn89 2.028 . S
O90 C96 1.247 . S
O91 Zn87 2.035 . S
O91 C96 1.258 . S
O92 C85 1.247 . S
O92 Zn89 2.028 . S
O93 C85 1.258 . S
O93 Zn87 2.035 . S
O94 Zn87 2.028 . S
O94 C97 1.247 . S
O95 Zn89 2.035 . S
O95 C97 1.258 . S
C96 O90 1.247 . S
C96 O91 1.258 . S
C97 O94 1.247 . S
C97 O95 1.258 . S
C98 O100 1.247 . S
C98 O102 1.258 . S
C99 O106 1.247 . S
C99 O107 1.258 . S
O100 C98 1.247 . S
O100 Zn101 2.028 . S
Zn101 O100 2.028 . S
Zn101 O105 2.035 . S
Zn101 O107 2.035 . S
Zn101 O108 2.028 . S
O102 C98 1.258 . S
O102 Zn103 2.035 . S
Zn103 O102 2.035 . S
Zn103 O104 2.028 . S
Zn103 O106 2.028 . S
Zn103 O109 2.035 . S
O104 Zn103 2.028 . S
O104 C110 1.247 . S
O105 Zn101 2.035 . S
O105 C110 1.258 . S
O106 C99 1.247 . S
O106 Zn103 2.028 . S
O107 C99 1.258 . S
O107 Zn101 2.035 . S
O108 Zn101 2.028 . S
O108 C111 1.247 . S
O109 Zn103 2.035 . S
O109 C111 1.258 . S
C110 O104 1.247 . S
C110 O105 1.258 . S
C111 O108 1.247 . S
C111 O109 1.258 . S
C112 O114 1.247 . S
C112 O116 1.258 . S
C113 O120 1.247 . S
C113 O121 1.258 . S
O114 C112 1.247 . S
O114 Zn115 2.028 . S
Zn115 O114 2.028 . S
Zn115 O119 2.035 . S
Zn115 O121 2.035 . S
Zn115 O122 2.028 . S
O116 C112 1.258 . S
O116 Zn117 2.035 . S
Zn117 O116 2.035 . S
Zn117 O118 2.028 . S
Zn117 O120 2.028 . S
Zn117 O123 2.035 . S
O118 Zn117 2.028 . S
O118 C124 1.247 . S
O119 Zn115 2.035 . S
O119 C124 1.258 . S
O120 C113 1.247 . S
O120 Zn117 2.028 . S
O121 C113 1.258 . S
O121 Zn115 2.035 . S
O122 Zn115 2.028 . S
O122 C125 1.247 . S
O123 Zn117 2.035 . S
O123 C125 1.258 . S
C124 O118 1.247 . S
C124 O119 1.258 . S
C125 O122 1.247 . S
C125 O123 1.258 . S
C126 O128 1.247 . S
C126 O130 1.258 . S
C127 O134 1.247 . S
C127 O135 1.258 . S
O128 C126 1.247 . S
O128 Zn129 2.028 . S
Zn129 O128 2.028 . S
Zn129 O133 2.035 . S
Zn129 O135 2.035 . S
Zn129 O136 2.028 . S
O130 C126 1.258 . S
O130 Zn131 2.035 . S
Zn131 O130 2.035 . S
Zn131 O132 2.028 . S
Zn131 O134 2.028 . S
Zn131 O137 2.035 . S
O132 Zn131 2.028 . S
O132 C138 1.247 . S
O133 Zn129 2.035 . S
O133 C138 1.258 . S
O134 C127 1.247 . S
O134 Zn131 2.028 . S
O135 C127 1.258 . S
O135 Zn129 2.035 . S
O136 Zn129 2.028 . S
O136 C139 1.247 . S
O137 Zn131 2.035 . S
O137 C139 1.258 . S
C138 O132 1.247 . S
C138 O133 1.258 . S
C139 O136 1.247 . S
C139 O137 1.258 . S
C140 O142 1.247 . S
C140 O144 1.258 . S
C141 O148 1.247 . S
C141 O149 1.258 . S
O142 C140 1.247 . S
O142 Zn143 2.028 . S
Zn143 O142 2.028 . S
Zn143 O147 2.035 . S
Zn143 O149 2.035 . S
Zn143 O150 2.028 . S
O144 C140 1.258 . S
O144 Zn145 2.035 . S
Zn145 O144 2.035 . S
Zn145 O146 2.028 . S
Zn145 O148 2.028 . S
Zn145 O151 2.035 . S
O146 Zn145 2.028 . S
O146 C152 1.247 . S
O147 Zn143 2.035 . S
O147 C152 1.258 . S
O148 C141 1.247 . S
O148 Zn145 2.028 . S
O149 C141 1.258 . S
O149 Zn143 2.035 . S
O150 Zn143 2.028 . S
O150 C153 1.247 . S
O151 Zn145 2.035 . S
O151 C153 1.258 . S
C152 O146 1.247 . S
C152 O147 1.258 . S
C153 O150 1.247 . S
C153 O151 1.258 . S
C154 O156 1.247 . S
C154 O158 1.258 . S
C155 O162 1.247 . S
C155 O163 1.258 . S
O156 C154 1.247 . S
O156 Zn157 2.028 . S
Zn157 O156 2.028 . S
Zn157 O161 2.035 . S
Zn157 O163 2.035 . S
Zn157 O164 2.028 . S
O158 C154 1.258 . S
O158 Zn159 2.035 . S
Zn159 O158 2.035 . S
Zn159 O160 2.028 . S
Zn159 O162 2.028 . S
Zn159 O165 2.035 . S
O160 Zn159 2.028 . S
O160 C166 1.247 . S
O161 Zn157 2.035 . S
O161 C166 1.258 . S
O162 C155 1.247 . S
O162 Zn159 2.028 . S
O163 C155 1.258 . S
O163 Zn157 2.035 . S
O164 Zn157 2.028 . S
O164 C167 1.247 . S
O165 Zn159 2.035 . S
O165 C167 1.258 . S
C166 O160 1.247 . S
C166 O161 1.258 . S
C167 O164 1.247 . S
C167 O165 1.258 . S
C168 O170 1.247 . S
C168 O172 1.258 . S
C169 O176 1.247 . S
C169 O177 1.258 . S
O170 C168 1.247 . S
O170 Zn171 2.028 . S
Zn171 O170 2.028 . S
Zn171 O175 2.035 . S
Zn171 O177 2.035 . S
Zn171 O178 2.028 . S
O172 C168 1.258 . S
O172 Zn173 2.035 . S
Zn173 O172 2.035 . S
Zn173 O174 2.028 . S
Zn173 O176 2.028 . S
Zn173 O179 2.035 . S
O174 Zn173 2.028 . S
O174 C180 1.247 . S
O175 Zn171 2.035 . S
O175 C180 1.258 . S
O176 C169 1.247 . S
O176 Zn173 2.028 . S
O177 C169 1.258 . S
O177 Zn171 2.035 . S
O178 Zn171 2.028 . S
O178 C181 1.247 . S
O179 Zn173 2.035 . S
O179 C181 1.258 . S
C180 O174 1.247 . S
C180 O175 1.258 . S
C181 O178 1.247 . S
C181 O179 1.258 . S
C182 O184 1.247 . S
C182 O186 1.258 . S
C183 O190 1.247 . S
C183 O191 1.258 . S
O184 C182 1.247 . S
O184 Zn185 2.028 . S
Zn185 O184 2.028 . S
Zn185 O189 2.035 . S
Zn185 O191 2.035 . S
Zn185 O192 2.028 . S
O186 C182 1.258 . S
O186 Zn187 2.035 . S
Zn187 O186 2.035 . S
Zn187 O188 2.028 . S
Zn187 O190 2.028 . S
Zn187 O193 2.035 . S
O188 Zn187 2.028 . S
O188 C194 1.247 . S
O189 Zn185 2.035 . S
O189 C194 1.258 . S
O190 C183 1.247 . S
O190 Zn187 2.028 . S
O191 C183 1.258 . S
O191 Zn185 2.035 . S
O192 Zn185 2.028 . S
O192 C195 1.247 . S
O193 Zn187 2.035 . S
O193 C195 1.258 . S
C194 O188 1.247 . S
C194 O189 1.258 . S
C195 O192 1.247 . S
C195 O193 1.258 . S
C196 O198 1.247 . S
C196 O200 1.258 . S
C197 O204 1.247 . S
C197 O205 1.258 . S
O198 C196 1.247 . S
O198 Zn199 2.028 . S
Zn199 O198 2.028 . S
Zn199 O203 2.035 . S
Zn199 O205 2.035 . S
Zn199 O206 2.028 . S
O200 C196 1.258 . S
O200 Zn201 2.035 . S
Zn201 O200 2.035 . S
Zn201 O202 2.028 . S
Zn201 O204 2.028 . S
Zn201 O207 2.035 . S
O202 Zn201 2.028 . S
O202 C208 1.247 . S
O203 Zn199 2.035 . S
O203 C208 1.258 . S
O204 C197 1.247 . S
O204 Zn201 2.028 . S
O205 C197 1.258 . S
O205 Zn199 2.035 . S
O206 Zn199 2.028 . S
O206 C209 1.247 . S
O207 Zn201 2.035 . S
O207 C209 1.258 . S
C208 O202 1.247 . S
C208 O203 1.258 . S
C209 O206 1.247 . S
C209 O207 1.258 . S
C210 O212 1.247 . S
C210 O214 1.258 . S
C211 O218 1.247 . S
C211 O219 1.258 . S
O212 C210 1.247 . S
O212 Zn213 2.028 . S
Zn213 O212 2.028 . S
Zn213 O217 2.035 . S
Zn213 O219 2.035 . S
Zn213 O220 2.028 . S
O214 C210 1.258 . S
O214 Zn215 2.035 . S
Zn215 O214 2.035 . S
Zn215 O216 2.028 . S
Zn215 O218 2.028 . S
Zn215 O221 2.035 . S
O216 Zn215 2.028 . S
O216 C222 1.247 . S
O217 Zn213 2.035 . S
O217 C222 1.258 . S
O218 C211 1.247 . S
O218 Zn215 2.028 . S
O219 C211 1.258 . S
O219 Zn213 2.035 . S
O220 Zn213 2.028 . S
O220 C223 1.247 . S
O221 Zn215 2.035 . S
O221 C223 1.258 . S
C222 O216 1.247 . S
C222 O217 1.258 . S
C223 O220 1.247 . S
C223 O221 1.258 . S
C224 C225 1.387 . S
C224 H228 0.950 . S
C224 C233 1.390 1_665 S
C225 C224 1.387 . S
C225 C227 1.387 . S
H226 C233 0.950 . S
C227 C225 1.387 . S
C227 C229 1.390 1_665 S
C227 H231 0.950 . S
H228 C224 0.950 . S
C229 C227 1.390 1_445 S
C229 C230 1.387 . S
C229 H232 0.950 . S
C230 C229 1.387 . S
C230 C233 1.387 . S
H231 C227 0.950 . S
H232 C229 0.950 . S
C233 C224 1.390 1_445 S
C233 H226 0.950 . S
C233 C230 1.387 . S
C234 C235 1.387 . S
C234 H238 0.950 . S
C234 C243 1.390 1_655 S
C235 C234 1.387 . S
C235 C237 1.387 . S
H236 C243 0.950 . S
C237 C235 1.387 . S
C237 C239 1.390 1_655 S
C237 H241 0.950 . S
H238 C234 0.950 . S
C239 C237 1.390 1_455 S
C239 C240 1.387 . S
C239 H242 0.950 . S
C240 C239 1.387 . S
C240 C243 1.387 . S
H241 C237 0.950 . S
H242 C239 0.950 . S
C243 C234 1.390 1_455 S
C243 H236 0.950 . S
C243 C240 1.387 . S
C244 C245 1.387 . S
C244 H248 0.950 . S
C244 C253 1.390 . S
C245 C244 1.387 . S
C245 C247 1.387 . S
H246 C253 0.950 . S
C247 C245 1.387 . S
C247 C249 1.390 . S
C247 H251 0.950 . S
H248 C244 0.950 . S
C249 C247 1.390 . S
C249 C250 1.387 . S
C249 H252 0.950 . S
C250 C249 1.387 . S
C250 C253 1.387 . S
H251 C247 0.950 . S
H252 C249 0.950 . S
C253 C244 1.390 . S
C253 H246 0.950 . S
C253 C250 1.387 . S
C254 C255 1.387 . S
C254 H258 0.950 . S
C254 C263 1.390 1_545 S
C255 C254 1.387 . S
C255 C257 1.387 . S
H256 C263 0.950 . S
C257 C255 1.387 . S
C257 C259 1.390 1_545 S
C257 H261 0.950 . S
H258 C254 0.950 . S
C259 C257 1.390 1_565 S
C259 C260 1.387 . S
C259 H262 0.950 . S
C260 C259 1.387 . S
C260 C263 1.387 . S
H261 C257 0.950 . S
H262 C259 0.950 . S
C263 C254 1.390 1_565 S
C263 H256 0.950 . S
C263 C260 1.387 . S
C264 C265 1.387 . S
C264 H268 0.950 . S
C264 C273 1.390 1_455 S
C265 C264 1.387 . S
C265 C267 1.387 . S
H266 C273 0.950 . S
C267 C265 1.387 . S
C267 C269 1.390 1_455 S
C267 H271 0.950 . S
H268 C264 0.950 . S
C269 C267 1.390 1_655 S
C269 C270 1.387 . S
C269 H272 0.950 . S
C270 C269 1.387 . S
C270 C273 1.387 . S
H271 C267 0.950 . S
H272 C269 0.950 . S
C273 C264 1.390 1_655 S
C273 H266 0.950 . S
C273 C270 1.387 . S
C274 C275 1.387 . S
C274 H278 0.950 . S
C274 C283 1.390 . S
C275 C274 1.387 . S
C275 C277 1.387 . S
H276 C283 0.950 . S
C277 C275 1.387 . S
C277 C279 1.390 . S
C277 H281 0.950 . S
H278 C274 0.950 . S
C279 C277 1.390 . S
C279 C280 1.387 . S
C279 H282 0.950 . S
C280 C279 1.387 . S
C280 C283 1.387 . S
H281 C277 0.950 . S
H282 C279 0.950 . S
C283 C274 1.390 . S
C283 H276 0.950 . S
C283 C280 1.387 . S
C284 C285 1.387 . S
C284 H288 0.950 . S
C284 C293 1.390 1_545 S
C285 C284 1.387 . S
C285 C287 1.387 . S
H286 C293 0.950 . S
C287 C285 1.387 . S
C287 C289 1.390 1_545 S
C287 H291 0.950 . S
H288 C284 0.950 . S
C289 C287 1.390 1_565 S
C289 C290 1.387 . S
C289 H292 0.950 . S
C290 C289 1.387 . S
C290 C293 1.387 . S
H291 C287 0.950 . S
H292 C289 0.950 . S
C293 C284 1.390 1_565 S
C293 H286 0.950 . S
C293 C290 1.387 . S
C294 C295 1.387 . S
C294 H298 0.950 . S
C294 C303 1.390 1_445 S
C295 C294 1.387 . S
C295 C297 1.387 . S
H296 C303 0.950 . S
C297 C295 1.387 . S
C297 C299 1.390 1_445 S
C297 H301 0.950 . S
H298 C294 0.950 . S
C299 C297 1.390 1_665 S
C299 C300 1.387 . S
C299 H302 0.950 . S
C300 C299 1.387 . S
C300 C303 1.387 . S
H301 C297 0.950 . S
H302 C299 0.950 . S
C303 C294 1.390 1_665 S
C303 H296 0.950 . S
C303 C300 1.387 . S
C304 C305 1.387 . S
C304 H308 0.950 . S
C304 C313 1.390 1_565 S
C305 C304 1.387 . S
C305 C307 1.387 . S
H306 C313 0.950 . S
C307 C305 1.387 . S
C307 C309 1.390 1_565 S
C307 H311 0.950 . S
H308 C304 0.950 . S
C309 C307 1.390 1_545 S
C309 C310 1.387 . S
C309 H312 0.950 . S
C310 C309 1.387 . S
C310 C313 1.387 . S
H311 C307 0.950 . S
H312 C309 0.950 . S
C313 C304 1.390 1_545 S
C313 H306 0.950 . S
C313 C310 1.387 . S
C314 C315 1.387 . S
C314 H318 0.950 . S
C314 C323 1.390 1_665 S
C315 C314 1.387 . S
C315 C317 1.387 . S
H316 C323 0.950 . S
C317 C315 1.387 . S
C317 C319 1.390 1_665 S
C317 H321 0.950 . S
H318 C314 0.950 . S
C319 C317 1.390 1_445 S
C319 C320 1.387 . S
C319 H322 0.950 . S
C320 C319 1.387 . S
C320 C323 1.387 . S
H321 C317 0.950 . S
H322 C319 0.950 . S
C323 C314 1.390 1_445 S
C323 H316 0.950 . S
C323 C320 1.387 . S
C324 C325 1.387 . S
C324 H328 0.950 . S
C324 C333 1.390 1_455 S
C325 C324 1.387 . S
C325 C327 1.387 . S
H326 C333 0.950 . S
C327 C325 1.387 . S
C327 C329 1.390 1_455 S
C327 H331 0.950 . S
H328 C324 0.950 . S
C329 C327 1.390 1_655 S
C329 C330 1.387 . S
C329 H332 0.950 . S
C330 C329 1.387 . S
C330 C333 1.387 . S
H331 C327 0.950 . S
H332 C329 0.950 . S
C333 C324 1.390 1_655 S
C333 H326 0.950 . S
C333 C330 1.387 . S
C334 C335 1.387 . S
C334 H338 0.950 . S
C334 C343 1.390 . S
C335 C334 1.387 . S
C335 C337 1.387 . S
H336 C343 0.950 . S
C337 C335 1.387 . S
C337 C339 1.390 . S
C337 H341 0.950 . S
H338 C334 0.950 . S
C339 C337 1.390 . S
C339 C340 1.387 . S
C339 H342 0.950 . S
C340 C339 1.387 . S
C340 C343 1.387 . S
H341 C337 0.950 . S
H342 C339 0.950 . S
C343 C334 1.390 . S
C343 H336 0.950 . S
C343 C340 1.387 . S
C344 C345 1.387 . S
C344 H348 0.950 . S
C344 C353 1.390 . S
C345 C344 1.387 . S
C345 C347 1.387 . S
H346 C353 0.950 . S
C347 C345 1.387 . S
C347 C349 1.390 . S
C347 H351 0.950 . S
H348 C344 0.950 . S
C349 C347 1.390 . S
C349 C350 1.387 . S
C349 H352 0.950 . S
C350 C349 1.387 . S
C350 C353 1.387 . S
H351 C347 0.950 . S
H352 C349 0.950 . S
C353 C344 1.390 . S
C353 H346 0.950 . S
C353 C350 1.387 . S
C354 C355 1.387 . S
C354 H358 0.950 . S
C354 C363 1.390 1_565 S
C355 C354 1.387 . S
C355 C357 1.387 . S
H356 C363 0.950 . S
C357 C355 1.387 . S
C357 C359 1.390 1_565 S
C357 H361 0.950 . S
H358 C354 0.950 . S
C359 C357 1.390 1_545 S
C359 C360 1.387 . S
C359 H362 0.950 . S
C360 C359 1.387 . S
C360 C363 1.387 . S
H361 C357 0.950 . S
H362 C359 0.950 . S
C363 C354 1.390 1_545 S
C363 H356 0.950 . S
C363 C360 1.387 . S
C364 C365 1.387 . S
C364 H368 0.950 . S
C364 C373 1.390 1_665 S
C365 C364 1.387 . S
C365 C367 1.387 . S
H366 C373 0.950 . S
C367 C365 1.387 . S
C367 C369 1.390 1_665 S
C367 H371 0.950 . S
H368 C364 0.950 . S
C369 C367 1.390 1_445 S
C369 C370 1.387 . S
C369 H372 0.950 . S
C370 C369 1.387 . S
C370 C373 1.387 . S
H371 C367 0.950 . S
H372 C369 0.950 . S
C373 C364 1.390 1_445 S
C373 H366 0.950 . S
C373 C370 1.387 . S
C374 C375 1.387 . S
C374 H378 0.950 . S
C374 C383 1.390 1_455 S
C375 C374 1.387 . S
C375 C377 1.387 . S
H376 C383 0.950 . S
C377 C375 1.387 . S
C377 C379 1.390 1_455 S
C377 H381 0.950 . S
H378 C374 0.950 . S
C379 C377 1.390 1_655 S
C379 C380 1.387 . S
C379 H382 0.950 . S
C380 C379 1.387 . S
C380 C383 1.387 . S
H381 C377 0.950 . S
H382 C379 0.950 . S
C383 C374 1.390 1_655 S
C383 H376 0.950 . S
C383 C380 1.387 . S
C384 C385 1.387 . S
C384 H388 0.950 . S
C384 C393 1.390 . S
C385 C384 1.387 . S
C385 C387 1.387 . S
H386 C393 0.950 . S
C387 C385 1.387 . S
C387 C389 1.390 . S
C387 H391 0.950 1_545 S
H388 C384 0.950 . S
C389 C387 1.390 . S
C389 C390 1.387 . S
C389 H392 0.950 1_545 S
C390 C389 1.387 . S
C390 C393 1.387 . S
H391 C387 0.950 1_565 S
H392 C389 0.950 1_565 S
C393 C384 1.390 . S
C393 H386 0.950 . S
C393 C390 1.387 . S
C394 C395 1.387 . S
C394 H398 0.950 . S
C394 C403 1.390 . S
C395 C394 1.387 . S
C395 C397 1.387 . S
H396 C403 0.950 . S
C397 C395 1.387 . S
C397 C399 1.390 . S
C397 H401 0.950 1_655 S
H398 C394 0.950 . S
C399 C397 1.390 . S
C399 C400 1.387 . S
C399 H402 0.950 1_655 S
C400 C399 1.387 . S
C400 C403 1.387 . S
H401 C397 0.950 1_455 S
H402 C399 0.950 1_455 S
C403 C394 1.390 . S
C403 H396 0.950 . S
C403 C400 1.387 . S
C404 C405 1.387 . S
C404 H408 0.950 . S
C404 C413 1.390 . S
C405 C404 1.387 . S
C405 C407 1.387 . S
H406 C413 0.950 . S
C407 C405 1.387 . S
C407 C409 1.390 . S
C407 H411 0.950 . S
H408 C404 0.950 . S
C409 C407 1.390 . S
C409 C410 1.387 . S
C409 H412 0.950 . S
C410 C409 1.387 . S
C410 C413 1.387 . S
H411 C407 0.950 . S
H412 C409 0.950 . S
C413 C404 1.390 . S
C413 H406 0.950 . S
C413 C410 1.387 . S
C414 C415 1.387 . S
C414 H418 0.950 . S
C414 C423 1.390 . S
C415 C414 1.387 . S
C415 C417 1.387 . S
H416 C423 0.950 . S
C417 C415 1.387 . S
C417 C419 1.390 . S
C417 H421 0.950 . S
H418 C414 0.950 . S
C419 C417 1.390 . S
C419 C420 1.387 . S
C419 H422 0.950 . S
C420 C419 1.387 . S
C420 C423 1.387 . S
H421 C417 0.950 . S
H422 C419 0.950 . S
C423 C414 1.390 . S
C423 H416 0.950 . S
C423 C420 1.387 . S
C424 C425 1.387 . S
C424 H428 0.950 . S
C424 C433 1.390 . S
C425 C424 1.387 . S
C425 C427 1.387 . S
H426 C433 0.950 . S
C427 C425 1.387 . S
C427 C429 1.390 . S
C427 H431 0.950 . S
H428 C424 0.950 . S
C429 C427 1.390 . S
C429 C430 1.387 . S
C429 H432 0.950 . S
C430 C429 1.387 . S
C430 C433 1.387 . S
H431 C427 0.950 . S
H432 C429 0.950 . S
C433 C424 1.390 . S
C433 H426 0.950 . S
C433 C430 1.387 . S
C434 C435 1.387 . S
C434 H438 0.950 . S
C434 C443 1.390 . S
C435 C434 1.387 . S
C435 C437 1.387 . S
H436 C443 0.950 . S
C437 C435 1.387 . S
C437 C439 1.390 . S
C437 H441 0.950 . S
H438 C434 0.950 . S
C439 C437 1.390 . S
C439 C440 1.387 . S
C439 H442 0.950 . S
C440 C439 1.387 . S
C440 C443 1.387 . S
H441 C437 0.950 . S
H442 C439 0.950 . S
C443 C434 1.390 . S
C443 H436 0.950 . S
C443 C440 1.387 . S
C444 C445 1.387 . S
C444 H448 0.950 1_565 S
C444 C453 1.390 . S
C445 C444 1.387 . S
C445 C447 1.387 . S
H446 C453 0.950 1_545 S
C447 C445 1.387 . S
C447 C449 1.390 . S
C447 H451 0.950 . S
H448 C444 0.950 1_545 S
C449 C447 1.390 . S
C449 C450 1.387 . S
C449 H452 0.950 . S
C450 C449 1.387 . S
C450 C453 1.387 . S
H451 C447 0.950 . S
H452 C449 0.950 . S
C453 C444 1.390 . S
C453 H446 0.950 1_565 S
C453 C450 1.387 . S
C454 C455 1.387 . S
C454 H458 0.950 . S
C454 C463 1.390 . S
C455 C454 1.387 . S
C455 C457 1.387 . S
H456 C463 0.950 . S
C457 C455 1.387 . S
C457 C459 1.390 . S
C457 H461 0.950 1_455 S
H458 C454 0.950 . S
C459 C457 1.390 . S
C459 C460 1.387 . S
C459 H462 0.950 1_455 S
C460 C459 1.387 . S
C460 C463 1.387 . S
H461 C457 0.950 1_655 S
H462 C459 0.950 1_655 S
C463 C454 1.390 . S
C463 H456 0.950 . S
C463 C460 1.387 . S
C464 C465 1.387 . S
C464 H468 0.950 . S
C464 C473 1.390 . S
C465 C464 1.387 . S
C465 C467 1.387 . S
H466 C473 0.950 . S
C467 C465 1.387 . S
C467 C469 1.390 . S
C467 H471 0.950 . S
H468 C464 0.950 . S
C469 C467 1.390 . S
C469 C470 1.387 . S
C469 H472 0.950 . S
C470 C469 1.387 . S
C470 C473 1.387 . S
H471 C467 0.950 . S
H472 C469 0.950 . S
C473 C464 1.390 . S
C473 H466 0.950 . S
C473 C470 1.387 . S
C474 C475 1.387 . S
C474 H478 0.950 . S
C474 C483 1.390 . S
C475 C474 1.387 . S
C475 C477 1.387 . S
H476 C483 0.950 . S
C477 C475 1.387 . S
C477 C479 1.390 . S
C477 H481 0.950 . S
H478 C474 0.950 . S
C479 C477 1.390 . S
C479 C480 1.387 . S
C479 H482 0.950 . S
C480 C479 1.387 . S
C480 C483 1.387 . S
H481 C477 0.950 . S
H482 C479 0.950 . S
C483 C474 1.390 . S
C483 H476 0.950 . S
C483 C480 1.387 . S
C484 C485 1.387 . S
C484 H488 0.950 . S
C484 C493 1.390 . S
C485 C484 1.387 . S
C485 C487 1.387 . S
H486 C493 0.950 . S
C487 C485 1.387 . S
C487 C489 1.390 . S
C487 H491 0.950 . S
H488 C484 0.950 . S
C489 C487 1.390 . S
C489 C490 1.387 . S
C489 H492 0.950 . S
C490 C489 1.387 . S
C490 C493 1.387 . S
H491 C487 0.950 . S
H492 C489 0.950 . S
C493 C484 1.390 . S
C493 H486 0.950 . S
C493 C490 1.387 . S
C494 C495 1.375 1_554 S
C494 H498 0.950 . S
C494 C503 1.403 . S
C495 C494 1.375 1_556 S
C495 C497 1.387 . S
H496 C503 0.950 . S
C497 C495 1.387 . S
C497 C499 1.403 . S
C497 H501 0.950 . S
H498 C494 0.950 . S
C499 C497 1.403 . S
C499 C500 1.375 1_556 S
C499 H502 0.950 . S
C500 C499 1.375 1_554 S
C500 C503 1.387 . S
H501 C497 0.950 . S
H502 C499 0.950 . S
C503 C494 1.403 . S
C503 H496 0.950 . S
C503 C500 1.387 . S
C504 C505 1.366 1_556 S
C504 H508 0.949 . S
C504 C513 1.411 . S
C505 C504 1.366 1_554 S
C505 C507 1.387 . S
H506 C513 0.950 . S
C507 C505 1.387 . S
C507 C509 1.411 . S
C507 H511 0.950 . S
H508 C504 0.949 . S
C509 C507 1.411 . S
C509 C510 1.366 1_554 S
C509 H512 0.949 . S
C510 C509 1.366 1_556 S
C510 C513 1.387 . S
H511 C507 0.950 . S
H512 C509 0.949 . S
C513 C504 1.411 . S
C513 H506 0.950 . S
C513 C510 1.387 . S
C514 C515 1.387 . S
C514 H518 0.950 . S
C514 C523 1.390 . S
C515 C514 1.387 . S
C515 C517 1.387 . S
H516 C523 0.950 . S
C517 C515 1.387 . S
C517 C519 1.390 . S
C517 H521 0.950 . S
H518 C514 0.950 . S
C519 C517 1.390 . S
C519 C520 1.387 . S
C519 H522 0.950 . S
C520 C519 1.387 . S
C520 C523 1.387 . S
H521 C517 0.950 . S
H522 C519 0.950 . S
C523 C514 1.390 . S
C523 H516 0.950 . S
C523 C520 1.387 . S
C524 C525 1.387 . S
C524 H528 0.950 . S
C524 C533 1.390 . S
C525 C524 1.387 . S
C525 C527 1.387 . S
H526 C533 0.950 . S
C527 C525 1.387 . S
C527 C529 1.390 . S
C527 H531 0.950 . S
H528 C524 0.950 . S
C529 C527 1.390 . S
C529 C530 1.387 . S
C529 H532 0.950 . S
C530 C529 1.387 . S
C530 C533 1.387 . S
H531 C527 0.950 . S
H532 C529 0.950 . S
C533 C524 1.390 . S
C533 H526 0.950 . S
C533 C530 1.387 . S
C534 C535 1.387 . S
C534 H538 0.950 . S
C534 C543 1.390 . S
C535 C534 1.387 . S
C535 C537 1.387 . S
H536 C543 0.950 . S
C537 C535 1.387 . S
C537 C539 1.390 . S
C537 H541 0.950 . S
H538 C534 0.950 . S
C539 C537 1.390 . S
C539 C540 1.387 . S
C539 H542 0.950 . S
C540 C539 1.387 . S
C540 C543 1.387 . S
H541 C537 0.950 . S
H542 C539 0.950 . S
C543 C534 1.390 . S
C543 H536 0.950 . S
C543 C540 1.387 . S
C225 C141 2.027 . S
C230 C13 2.027 . S
C235 C15 2.026 . S
C240 C167 2.026 . S
C245 C113 2.029 . S
C250 C29 2.029 . S
C255 C139 2.030 . S
C260 C43 2.030 . S
C265 C69 2.027 . S
C270 C197 2.027 . S
C275 C211 2.026 . S
C280 C83 2.026 . S
C285 C96 2.025 . S
C290 C180 2.025 . S
C295 C182 2.025 . S
C300 C98 2.025 . S
C305 C140 1.580 . S
C310 C12 1.580 . S
C315 C14 1.579 . S
C320 C166 1.579 . S
C325 C28 1.579 . S
C330 C112 1.579 . S
C335 C42 1.576 . S
C340 C138 1.576 . S
C345 C68 1.576 . S
C350 C196 1.576 . S
C355 C82 1.575 . S
C360 C210 1.575 . S
C365 C181 1.579 . S
C370 C97 1.579 . S
C375 C183 1.580 . S
C380 C99 1.580 . S
C385 C0 1.620 . S
C390 C85 1.621 . S
C395 C26 1.620 . S
C400 C111 1.621 . S
C405 C40 1.620 . S
C410 C56 1.620 . S
C415 C54 1.620 . S
C420 C70 1.620 . S
C425 C124 1.620 . S
C430 C208 1.620 . S
C435 C222 1.620 . S
C440 C126 1.620 . S
C445 C152 1.622 . S
C450 C169 1.623 . S
C455 C195 1.621 . S
C460 C154 1.620 . S
C465 C1 1.723 . S
C470 C223 1.723 . S
C475 C168 1.722 . S
C480 C27 1.724 . S
C485 C194 1.721 . S
C490 C41 1.724 . S
C495 C209 1.723 . S
C500 C55 1.722 . S
C505 C127 1.723 . S
C510 C57 1.722 . S
C515 C153 1.725 . S
C520 C71 1.725 . S
C525 C84 1.722 . S
C530 C155 1.724 . S
C535 C110 1.722 . S
C540 C125 1.724 . S
