# Generated by pormake.
# Topology wir, (6)-cn, num edge types: 1
# Building blocks:
#     Node 0, Type 0, BuildingBlock: BETDEL_clean_sbu_0, # of connection points: 6
#     Node 1, Type 0, BuildingBlock: BETDEL_clean_sbu_0, # of connection points: 6
#     Node 2, Type 0, BuildingBlock: BETDEL_clean_sbu_0, # of connection points: 6
#     Node 3, Type 0, BuildingBlock: BETDEL_clean_sbu_0, # of connection points: 6
#     Node 4, Type 0, BuildingBlock: BETDEL_clean_sbu_0, # of connection points: 6
#     Node 5, Type 0, BuildingBlock: BETDEL_clean_sbu_0, # of connection points: 6
#     Node 6, Type 0, BuildingBlock: BETDEL_clean_sbu_0, # of connection points: 6
#     Node 7, Type 0, BuildingBlock: BETDEL_clean_sbu_0, # of connection points: 6
#     Node 8, Type 0, BuildingBlock: BETDEL_clean_sbu_0, # of connection points: 6
#     Node 9, Type 0, BuildingBlock: BETDEL_clean_sbu_0, # of connection points: 6
#     Node 10, Type 0, BuildingBlock: BETDEL_clean_sbu_0, # of connection points: 6
#     Node 11, Type 0, BuildingBlock: BETDEL_clean_sbu_0, # of connection points: 6
#     Node 12, Type 0, BuildingBlock: BETDEL_clean_sbu_0, # of connection points: 6
#     Node 13, Type 0, BuildingBlock: BETDEL_clean_sbu_0, # of connection points: 6
#     Node 14, Type 0, BuildingBlock: BETDEL_clean_sbu_0, # of connection points: 6
#     Node 15, Type 0, BuildingBlock: BETDEL_clean_sbu_0, # of connection points: 6
#     Node 16, Type 0, BuildingBlock: BETDEL_clean_sbu_0, # of connection points: 6
#     Node 17, Type 0, BuildingBlock: BETDEL_clean_sbu_0, # of connection points: 6
#     Node 18, Type 0, BuildingBlock: BETDEL_clean_sbu_0, # of connection points: 6
#     Node 19, Type 0, BuildingBlock: BETDEL_clean_sbu_0, # of connection points: 6
#     Node 20, Type 0, BuildingBlock: BETDEL_clean_sbu_0, # of connection points: 6
#     Node 21, Type 0, BuildingBlock: BETDEL_clean_sbu_0, # of connection points: 6
#     Node 22, Type 0, BuildingBlock: BETDEL_clean_sbu_0, # of connection points: 6
#     Node 23, Type 0, BuildingBlock: BETDEL_clean_sbu_0, # of connection points: 6
#     Node 24, Type 0, BuildingBlock: BETDEL_clean_sbu_0, # of connection points: 6
#     Node 25, Type 0, BuildingBlock: BETDEL_clean_sbu_0, # of connection points: 6
#     Node 26, Type 0, BuildingBlock: BETDEL_clean_sbu_0, # of connection points: 6
#     Node 27, Type 0, BuildingBlock: BETDEL_clean_sbu_0, # of connection points: 6
#     Node 28, Type 0, BuildingBlock: BETDEL_clean_sbu_0, # of connection points: 6
#     Node 29, Type 0, BuildingBlock: BETDEL_clean_sbu_0, # of connection points: 6
#     Node 30, Type 0, BuildingBlock: BETDEL_clean_sbu_0, # of connection points: 6
#     Node 31, Type 0, BuildingBlock: BETDEL_clean_sbu_0, # of connection points: 6
#     Edge 32, Type (0, 0), None
#     Edge 33, Type (0, 0), None
#     Edge 34, Type (0, 0), None
#     Edge 35, Type (0, 0), None
#     Edge 36, Type (0, 0), None
#     Edge 37, Type (0, 0), None
#     Edge 38, Type (0, 0), None
#     Edge 39, Type (0, 0), None
#     Edge 40, Type (0, 0), None
#     Edge 41, Type (0, 0), None
#     Edge 42, Type (0, 0), None
#     Edge 43, Type (0, 0), None
#     Edge 44, Type (0, 0), None
#     Edge 45, Type (0, 0), None
#     Edge 46, Type (0, 0), None
#     Edge 47, Type (0, 0), None
#     Edge 48, Type (0, 0), None
#     Edge 49, Type (0, 0), None
#     Edge 50, Type (0, 0), None
#     Edge 51, Type (0, 0), None
#     Edge 52, Type (0, 0), None
#     Edge 53, Type (0, 0), None
#     Edge 54, Type (0, 0), None
#     Edge 55, Type (0, 0), None
#     Edge 56, Type (0, 0), None
#     Edge 57, Type (0, 0), None
#     Edge 58, Type (0, 0), None
#     Edge 59, Type (0, 0), None
#     Edge 60, Type (0, 0), None
#     Edge 61, Type (0, 0), None
#     Edge 62, Type (0, 0), None
#     Edge 63, Type (0, 0), None
#     Edge 64, Type (0, 0), None
#     Edge 65, Type (0, 0), None
#     Edge 66, Type (0, 0), None
#     Edge 67, Type (0, 0), None
#     Edge 68, Type (0, 0), None
#     Edge 69, Type (0, 0), None
#     Edge 70, Type (0, 0), None
#     Edge 71, Type (0, 0), None
#     Edge 72, Type (0, 0), None
#     Edge 73, Type (0, 0), None
#     Edge 74, Type (0, 0), None
#     Edge 75, Type (0, 0), None
#     Edge 76, Type (0, 0), None
#     Edge 77, Type (0, 0), None
#     Edge 78, Type (0, 0), None
#     Edge 79, Type (0, 0), None
#     Edge 80, Type (0, 0), None
#     Edge 81, Type (0, 0), None
#     Edge 82, Type (0, 0), None
#     Edge 83, Type (0, 0), None
#     Edge 84, Type (0, 0), None
#     Edge 85, Type (0, 0), None
#     Edge 86, Type (0, 0), None
#     Edge 87, Type (0, 0), None
#     Edge 88, Type (0, 0), None
#     Edge 89, Type (0, 0), None
#     Edge 90, Type (0, 0), None
#     Edge 91, Type (0, 0), None
#     Edge 92, Type (0, 0), None
#     Edge 93, Type (0, 0), None
#     Edge 94, Type (0, 0), None
#     Edge 95, Type (0, 0), None
#     Edge 96, Type (0, 0), None
#     Edge 97, Type (0, 0), None
#     Edge 98, Type (0, 0), None
#     Edge 99, Type (0, 0), None
#     Edge 100, Type (0, 0), None
#     Edge 101, Type (0, 0), None
#     Edge 102, Type (0, 0), None
#     Edge 103, Type (0, 0), None
#     Edge 104, Type (0, 0), None
#     Edge 105, Type (0, 0), None
#     Edge 106, Type (0, 0), None
#     Edge 107, Type (0, 0), None
#     Edge 108, Type (0, 0), None
#     Edge 109, Type (0, 0), None
#     Edge 110, Type (0, 0), None
#     Edge 111, Type (0, 0), None
#     Edge 112, Type (0, 0), None
#     Edge 113, Type (0, 0), None
#     Edge 114, Type (0, 0), None
#     Edge 115, Type (0, 0), None
#     Edge 116, Type (0, 0), None
#     Edge 117, Type (0, 0), None
#     Edge 118, Type (0, 0), None
#     Edge 119, Type (0, 0), None
#     Edge 120, Type (0, 0), None
#     Edge 121, Type (0, 0), None
#     Edge 122, Type (0, 0), None
#     Edge 123, Type (0, 0), None
#     Edge 124, Type (0, 0), None
#     Edge 125, Type (0, 0), None
#     Edge 126, Type (0, 0), None
#     Edge 127, Type (0, 0), None
# Relax obj value: 0.370
# Max RMSD: 0.197
# Mean RMSD: 0.197
data_MOF--net-wir--node1-BETDEL_clean_sbu_0--edge1-none
_symmetry_space_group_name_H-M    P1
_symmetry_Int_Tables_number       1
_symmetry_cell_setting            triclinic
loop_
_symmetry_equiv_pos_as_xyz
'x, y, z'
_cell_length_a     16.953204
_cell_length_b     17.039413
_cell_length_c     43.781282
_cell_angle_alpha  89.999175
_cell_angle_beta   89.999713
_cell_angle_gamma 90.003922
loop_
_atom_site_label
_atom_site_type_symbol
_atom_site_fract_x
_atom_site_fract_y
_atom_site_fract_z
_atom_type_partial_charge
Dy0 Dy 0.23038 0.21891 0.39473 0.0
C1 C 0.17618 0.03998 0.3249 0.0
C2 C 0.2337 0.36374 0.41738 0.0
Dy3 Dy 0.17907 0.14046 0.37184 0.0
O4 O 0.28807 0.31199 0.42238 0.0
O5 O 0.1874 0.34007 0.39621 0.0
O6 O 0.29104 0.18619 0.43777 0.0
O7 O 0.29788 0.11112 0.398 0.0
C8 C 0.31874 0.12106 0.42665 0.0
C9 C 0.04933 0.23735 0.38188 0.0
O10 O 0.16325 0.04403 0.40348 0.0
O11 O 0.15509 0.15491 0.42966 0.0
O12 O 0.11575 0.05418 0.34218 0.0
O13 O 0.23788 0.07881 0.33339 0.0
O14 O 0.04856 0.16116 0.38437 0.0
O15 O 0.11857 0.25879 0.37558 0.0
O16 O 0.29904 0.24616 0.35135 0.0
O17 O 0.18967 0.20899 0.32894 0.0
C18 C 0.15257 0.07747 0.42936 0.0
C19 C 0.25534 0.24611 0.32656 0.0
Dy20 Dy 0.062 0.98106 0.6468 0.0
C21 C 0.2436 0.92706 0.57564 0.0
C22 C 0.91492 0.98385 0.66858 0.0
Dy23 Dy 0.14488 0.92823 0.62372 0.0
O24 O 0.96712 0.03737 0.67429 0.0
O25 O 0.93983 0.93849 0.64736 0.0
O26 O 0.09584 0.04171 0.68957 0.0
O27 O 0.17164 0.04695 0.64982 0.0
C28 C 0.16183 0.06798 0.67846 0.0
C29 C 0.04737 0.80007 0.63496 0.0
O30 O 0.23887 0.9118 0.65634 0.0
O31 O 0.1253 0.90542 0.68155 0.0
O32 O 0.23037 0.86655 0.59288 0.0
O33 O 0.20594 0.9883 0.58516 0.0
O34 O 0.12403 0.79929 0.63712 0.0
O35 O 0.02577 0.86845 0.62782 0.0
O36 O 0.03765 0.04627 0.60252 0.0
O37 O 0.07447 0.93529 0.58138 0.0
C38 C 0.20312 0.90135 0.68184 0.0
C39 C 0.0382 1.00086 0.57824 0.0
Dy40 Dy 0.30397 0.81015 0.89471 0.0
C41 C 0.35818 0.98909 0.82489 0.0
C42 C 0.30061 0.66534 0.91738 0.0
Dy43 Dy 0.35528 0.8886 0.87183 0.0
O44 O 0.24625 0.71711 0.92237 0.0
O45 O 0.34689 0.68897 0.8962 0.0
O46 O 0.24329 0.84288 0.93775 0.0
O47 O 0.23647 0.91795 0.89798 0.0
C48 C 0.2156 0.90801 0.92663 0.0
C49 C 0.48503 0.79172 0.88187 0.0
O50 O 0.37108 0.98502 0.90347 0.0
O51 O 0.37925 0.87414 0.92964 0.0
O52 O 0.41861 0.97489 0.84217 0.0
O53 O 0.29649 0.95025 0.83338 0.0
O54 O 0.48579 0.86792 0.88435 0.0
O55 O 0.4158 0.77027 0.87558 0.0
O56 O 0.23532 0.78291 0.85133 0.0
O57 O 0.3447 0.82007 0.82893 0.0
C58 C 0.38176 0.95157 0.92935 0.0
C59 C 0.27903 0.78295 0.82654 0.0
Dy60 Dy 0.47238 0.04811 0.14678 0.0
C61 C 0.29079 0.10208 0.07561 0.0
C62 C 0.61944 0.04532 0.16857 0.0
Dy63 Dy 0.38949 0.10094 0.12369 0.0
O64 O 0.56723 0.99179 0.17427 0.0
O65 O 0.59454 0.09068 0.14735 0.0
O66 O 0.43851 0.98747 0.18955 0.0
O67 O 0.36273 0.98224 0.14979 0.0
C68 C 0.37253 0.96121 0.17844 0.0
C69 C 0.48702 0.22909 0.13493 0.0
O70 O 0.2955 0.1174 0.15631 0.0
O71 O 0.40906 0.12376 0.18153 0.0
O72 O 0.30401 0.1626 0.09284 0.0
O73 O 0.32845 0.04086 0.08514 0.0
O74 O 0.41036 0.22989 0.13708 0.0
O75 O 0.50861 0.16071 0.12779 0.0
O76 O 0.49674 0.9829 0.10251 0.0
O77 O 0.45991 0.09387 0.08135 0.0
C78 C 0.33125 0.12783 0.18182 0.0
C79 C 0.49619 0.02831 0.07822 0.0
Dy80 Dy 0.2305 0.80996 0.2293 0.0
C81 C 0.17619 0.98873 0.29912 0.0
C82 C 0.23406 0.66515 0.20663 0.0
Dy83 Dy 0.17912 0.88829 0.25217 0.0
O84 O 0.28827 0.71706 0.20159 0.0
O85 O 0.18793 0.68863 0.22788 0.0
O86 O 0.29117 0.84276 0.18626 0.0
O87 O 0.29792 0.91781 0.22603 0.0
C88 C 0.31881 0.9079 0.19739 0.0
C89 C 0.04941 0.79136 0.24213 0.0
O90 O 0.16327 0.98472 0.22054 0.0
O91 O 0.15515 0.87385 0.19436 0.0
O92 O 0.11577 0.97451 0.28184 0.0
O93 O 0.23791 0.94995 0.29063 0.0
O94 O 0.04862 0.86756 0.23967 0.0
O95 O 0.11866 0.76991 0.24839 0.0
O96 O 0.29916 0.78284 0.27269 0.0
O97 O 0.18968 0.81975 0.29507 0.0
C98 C 0.15261 0.95128 0.19466 0.0
C99 C 0.25541 0.78278 0.29747 0.0
Dy100 Dy 0.47242 0.98101 0.47727 0.0
C101 C 0.29098 0.92704 0.54847 0.0
C102 C 0.61946 0.98392 0.45545 0.0
Dy103 Dy 0.38959 0.92814 0.50036 0.0
O104 O 0.56721 0.03741 0.44976 0.0
O105 O 0.5946 0.93852 0.47667 0.0
O106 O 0.4385 0.04161 0.43449 0.0
O107 O 0.36274 0.04683 0.47426 0.0
C108 C 0.37253 0.06786 0.44561 0.0
C109 C 0.48713 0.80002 0.48911 0.0
O110 O 0.29555 0.91164 0.46776 0.0
O111 O 0.40909 0.90534 0.44253 0.0
O112 O 0.30415 0.8665 0.53123 0.0
O113 O 0.32861 0.98826 0.53891 0.0
O114 O 0.41046 0.7992 0.48697 0.0
O115 O 0.50872 0.86841 0.49624 0.0
O116 O 0.49684 0.0462 0.52154 0.0
O117 O 0.46006 0.93519 0.54268 0.0
C118 C 0.33128 0.90124 0.44225 0.0
C119 C 0.49633 1.00077 0.54582 0.0
Dy120 Dy 0.30384 0.21925 0.72931 0.0
C121 C 0.35817 0.04039 0.79913 0.0
C122 C 0.30032 0.36404 0.70662 0.0
Dy123 Dy 0.35522 0.14088 0.75219 0.0
O124 O 0.24609 0.31215 0.7016 0.0
O125 O 0.34645 0.34056 0.72787 0.0
O126 O 0.24317 0.18643 0.68628 0.0
O127 O 0.23641 0.11139 0.72606 0.0
C128 C 0.21553 0.1213 0.69741 0.0
C129 C 0.48493 0.23781 0.74215 0.0
O130 O 0.37105 0.04447 0.72054 0.0
O131 O 0.3792 0.15536 0.69438 0.0
O132 O 0.41858 0.05462 0.78184 0.0
O133 O 0.29645 0.07919 0.79064 0.0
O134 O 0.48571 0.16162 0.73969 0.0
O135 O 0.41567 0.25926 0.74842 0.0
O136 O 0.23519 0.24639 0.7727 0.0
O137 O 0.34463 0.20939 0.79509 0.0
C138 C 0.38173 0.07793 0.69467 0.0
C139 C 0.27892 0.2464 0.79749 0.0
Dy140 Dy 0.06196 0.0481 0.97725 0.0
C141 C 0.24342 0.10209 1.04844 0.0
C142 C 0.9149 0.04521 0.95546 0.0
Dy143 Dy 0.1448 0.10096 1.00033 0.0
O144 O 0.96714 0.99171 0.94975 0.0
O145 O 0.93977 0.09059 0.97667 0.0
O146 O 0.09585 0.98749 0.93447 0.0
O147 O 0.17163 0.98226 0.97423 0.0
C148 C 0.16183 0.96123 0.94559 0.0
C149 C 0.04729 0.2291 0.98908 0.0
O150 O 0.23882 0.11744 0.96773 0.0
O151 O 0.12527 0.12376 0.9425 0.0
O152 O 0.23025 0.16261 1.0312 0.0
O153 O 0.20578 0.04086 1.03889 0.0
O154 O 0.12396 0.2299 0.98694 0.0
O155 O 0.02568 0.16072 0.99621 0.0
O156 O 0.03756 0.98291 1.02153 0.0
O157 O 0.07433 0.09392 1.04266 0.0
C158 C 0.20309 0.12785 0.94222 0.0
C159 C 0.03807 0.02835 1.04581 0.0
Dy160 Dy 0.84868 0.88839 0.75163 0.0
C161 C 0.79704 0.66006 0.70533 0.0
C162 C 0.85076 0.98947 0.7988 0.0
Dy163 Dy 0.7963 0.80494 0.72835 0.0
O164 O 0.91143 0.97489 0.78166 0.0
O165 O 0.7891 0.95135 0.78978 0.0
O166 O 0.97878 0.8681 0.73855 0.0
O167 O 0.90973 0.77005 0.74772 0.0
C168 C 0.97848 0.79185 0.74056 0.0
C169 C 0.71037 0.90545 0.69607 0.0
O170 O 0.72967 0.77797 0.7723 0.0
O171 O 0.83715 0.82136 0.79479 0.0
O172 O 0.74147 0.71064 0.70031 0.0
O173 O 0.8421 0.6846 0.72675 0.0
O174 O 0.73714 0.83974 0.68516 0.0
O175 O 0.7301 0.91435 0.72492 0.0
O176 O 0.86542 0.98128 0.71868 0.0
O177 O 0.87364 0.86768 0.69396 0.0
C178 C 0.77262 0.78226 0.79729 0.0
C179 C 0.87799 0.94505 0.69346 0.0
Dy180 Dy 0.89745 0.09478 0.50262 0.0
C181 C 0.12715 0.03381 0.45542 0.0
C182 C 0.79332 0.0958 0.54905 0.0
Dy183 Dy 0.9836 0.03913 0.47974 0.0
O184 O 0.80764 0.15593 0.53175 0.0
O185 O 0.83326 0.03498 0.54054 0.0
O186 O 0.9161 0.22486 0.49124 0.0
O187 O 1.01676 0.1555 0.49743 0.0
C188 C 0.99291 0.22461 0.4915 0.0
C189 C 0.87832 0.95864 0.44705 0.0
O190 O 1.00629 0.97612 0.52443 0.0
O191 O 0.96653 0.08675 0.54535 0.0
O192 O 0.07401 0.98053 0.45094 0.0
O193 O 0.10777 0.07619 0.47841 0.0
O194 O 0.94519 0.98316 0.43629 0.0
O195 O 0.87065 0.97751 0.476 0.0
O196 O 0.81078 0.11082 0.46704 0.0
O197 O 0.92967 0.12156 0.44638 0.0
C198 C 1.0036 0.02158 0.54866 0.0
C199 C 0.85291 0.12953 0.44383 0.0
Dy200 Dy 0.6857 0.14073 0.25162 0.0
C201 C 0.73731 0.36908 0.20533 0.0
C202 C 0.68363 0.03963 0.29879 0.0
Dy203 Dy 0.73806 0.22419 0.22835 0.0
O204 O 0.62296 0.05422 0.28165 0.0
O205 O 0.7453 0.07776 0.28978 0.0
O206 O 0.5556 0.16101 0.23856 0.0
O207 O 0.62464 0.25906 0.24773 0.0
C208 C 0.55589 0.23725 0.24057 0.0
C209 C 0.82399 0.12368 0.19606 0.0
O210 O 0.80471 0.25116 0.2723 0.0
O211 O 0.69724 0.20775 0.29479 0.0
O212 O 0.7929 0.3185 0.20031 0.0
O213 O 0.69223 0.34452 0.22675 0.0
O214 O 0.79722 0.18939 0.18515 0.0
O215 O 0.80427 0.11477 0.22492 0.0
O216 O 0.66895 0.04785 0.21868 0.0
O217 O 0.66072 0.16147 0.19396 0.0
C218 C 0.76177 0.24686 0.29729 0.0
C219 C 0.65636 0.08409 0.19345 0.0
Dy220 Dy 0.63697 0.93436 1.00262 0.0
C221 C 0.40719 0.99523 0.95541 0.0
C222 C 0.74115 0.93334 1.04903 0.0
Dy223 Dy 0.55074 0.99001 0.97973 0.0
O224 O 0.72681 0.8732 1.03173 0.0
O225 O 0.70119 0.99415 1.04053 0.0
O226 O 0.61829 0.80429 0.99122 0.0
O227 O 0.51765 0.87366 0.99745 0.0
C228 C 0.54148 0.80456 0.99149 0.0
C229 C 0.65603 0.07052 0.94704 0.0
O230 O 0.52805 0.05302 1.02441 0.0
O231 O 0.56791 0.94244 1.04534 0.0
O232 O 0.46028 0.04856 0.95093 0.0
O233 O 0.42661 0.95285 0.97839 0.0
O234 O 0.58917 0.04599 0.93628 0.0
O235 O 0.66368 0.05165 0.97599 0.0
O236 O 0.7236 0.91837 0.96702 0.0
O237 O 0.6047 0.9076 0.94637 0.0
C238 C 0.5308 1.00758 1.04865 0.0
C239 C 0.68146 0.89964 0.94381 0.0
Dy240 Dy 0.84867 0.1405 0.87237 0.0
C241 C 0.79714 0.36897 0.9187 0.0
C242 C 0.85076 0.0394 0.82521 0.0
Dy243 Dy 0.79627 0.22408 0.89567 0.0
O244 O 0.91142 0.05399 0.84235 0.0
O245 O 0.78909 0.07751 0.83422 0.0
O246 O 0.97875 0.16088 0.88547 0.0
O247 O 0.90967 0.25887 0.87625 0.0
C248 C 0.97841 0.23713 0.88344 0.0
C249 C 0.71034 0.1235 0.92794 0.0
O250 O 0.72971 0.25113 0.85172 0.0
O251 O 0.83709 0.20751 0.8292 0.0
O252 O 0.74148 0.31844 0.9237 0.0
O253 O 0.84228 0.34434 0.89732 0.0
O254 O 0.73711 0.18919 0.93886 0.0
O255 O 0.73009 0.11462 0.89908 0.0
O256 O 0.8654 0.04769 0.90535 0.0
O257 O 0.87361 0.16133 0.93005 0.0
C258 C 0.77263 0.24673 0.82671 0.0
C259 C 0.87797 0.08396 0.93057 0.0
Dy260 Dy 0.63723 0.09469 0.62144 0.0
C261 C 0.40715 0.03428 0.66861 0.0
C262 C 0.74149 0.09578 0.57505 0.0
Dy263 Dy 0.55073 0.03899 0.64432 0.0
O264 O 0.72713 0.15589 0.59236 0.0
O265 O 0.70153 0.03495 0.58354 0.0
O266 O 0.61853 0.2247 0.63293 0.0
O267 O 0.51794 0.15538 0.62655 0.0
C268 C 0.54172 0.22445 0.6326 0.0
C269 C 0.65597 0.95834 0.67696 0.0
O270 O 0.52803 0.97603 0.59963 0.0
O271 O 0.5682 0.08653 0.5787 0.0
O272 O 0.46002 0.98073 0.67308 0.0
O273 O 0.42677 0.07666 0.64565 0.0
O274 O 0.5891 0.98281 0.68774 0.0
O275 O 0.66368 0.97732 0.64803 0.0
O276 O 0.72371 0.11051 0.65711 0.0
O277 O 0.60476 0.12119 0.67773 0.0
C278 C 0.53096 0.02145 0.5754 0.0
C279 C 0.68152 0.12913 0.68032 0.0
Dy280 Dy 0.6857 0.88863 0.37237 0.0
C281 C 0.73727 0.6602 0.41868 0.0
C282 C 0.68363 0.98972 0.3252 0.0
Dy283 Dy 0.73809 0.80509 0.39566 0.0
O284 O 0.62296 0.97514 0.34234 0.0
O285 O 0.74529 0.95161 0.33422 0.0
O286 O 0.55561 0.86828 0.38545 0.0
O287 O 0.62468 0.77027 0.37626 0.0
C288 C 0.55593 0.79203 0.38344 0.0
C289 C 0.82401 0.90566 0.42794 0.0
O290 O 0.80465 0.77805 0.3517 0.0
O291 O 0.69724 0.82162 0.32919 0.0
O292 O 0.79291 0.71073 0.42368 0.0
O293 O 0.69212 0.68481 0.3973 0.0
O294 O 0.79724 0.83996 0.43885 0.0
O295 O 0.80427 0.91455 0.39908 0.0
O296 O 0.66893 0.98145 0.40534 0.0
O297 O 0.66074 0.8678 0.43005 0.0
C298 C 0.76172 0.78242 0.3267 0.0
C299 C 0.65637 0.94518 0.43056 0.0
Dy300 Dy 0.8972 0.93444 0.12143 0.0
C301 C 0.12719 0.99495 0.1686 0.0
C302 C 0.79298 0.93335 0.07503 0.0
Dy303 Dy 0.98362 0.99015 0.1443 0.0
O304 O 0.80733 0.87324 0.09234 0.0
O305 O 0.83294 0.99418 0.08352 0.0
O306 O 0.91588 0.80443 0.13292 0.0
O307 O 1.01649 0.87374 0.12657 0.0
C308 C 0.99269 0.80468 0.1326 0.0
C309 C 0.8784 0.0708 0.17695 0.0
O310 O 1.00632 0.05311 0.09961 0.0
O311 O 0.96625 0.94256 0.07869 0.0
O312 O 0.07429 0.04846 0.17308 0.0
O313 O 0.10762 0.95258 0.14564 0.0
O314 O 0.94527 0.04633 0.18772 0.0
O315 O 0.87067 0.05181 0.14802 0.0
O316 O 0.81067 0.91861 0.15708 0.0
O317 O 0.92959 0.90794 0.17772 0.0
C318 C 1.00345 1.00766 0.07538 0.0
C319 C 0.85283 0.89999 0.1803 0.0
Dy320 Dy 0.73305 0.71021 0.89552 0.0
C321 C 0.68503 0.53772 0.8256 0.0
C322 C 0.70577 0.83655 0.92618 0.0
Dy323 Dy 0.68369 0.63591 0.87306 0.0
O324 O 0.7736 0.82663 0.91261 0.0
O325 O 0.65914 0.7773 0.92487 0.0
O326 O 0.81934 0.69412 0.93285 0.0
O327 O 0.79724 0.59993 0.90086 0.0
C328 C 0.83079 0.62063 0.92651 0.0
C329 C 0.55616 0.73659 0.88104 0.0
O330 O 0.65479 0.53574 0.90174 0.0
O331 O 0.66838 0.63947 0.93131 0.0
O332 O 0.62303 0.55151 0.84212 0.0
O333 O 0.74636 0.57585 0.83512 0.0
O334 O 0.55537 0.66162 0.88689 0.0
O335 O 0.6257 0.75548 0.87344 0.0
O336 O 0.79307 0.75277 0.85189 0.0
O337 O 0.69148 0.69981 0.82878 0.0
C338 C 0.65514 0.56396 0.92892 0.0
C339 C 0.75164 0.74534 0.82668 0.0
Dy340 Dy 0.55645 0.48144 0.14435 0.0
C341 C 0.74113 0.42635 0.07499 0.0
C342 C 0.41109 0.48388 0.16712 0.0
Dy343 Dy 0.63844 0.42905 0.122 0.0
O344 O 0.46221 0.53913 0.17149 0.0
O345 O 0.43449 0.4385 0.14563 0.0
O346 O 0.58482 0.5427 0.18738 0.0
O347 O 0.66578 0.54668 0.14904 0.0
C348 C 0.65216 0.56836 0.17739 0.0
C349 C 0.54125 0.30061 0.13408 0.0
O350 O 0.73309 0.41321 0.15448 0.0
O351 O 0.61959 0.40676 0.1796 0.0
O352 O 0.72556 0.36613 0.0921 0.0
O353 O 0.7026 0.4878 0.08382 0.0
O354 O 0.61789 0.30032 0.13611 0.0
O355 O 0.51946 0.36836 0.1262 0.0
O356 O 0.53293 0.54837 0.1005 0.0
O357 O 0.57005 0.43819 0.07896 0.0
C358 C 0.69736 0.40258 0.17996 0.0
C359 C 0.53397 0.50404 0.07598 0.0
Dy360 Dy 0.80133 0.31893 0.39551 0.0
C361 C 0.84937 0.49141 0.32559 0.0
C362 C 0.8286 0.19262 0.42619 0.0
Dy363 Dy 0.85071 0.39322 0.37305 0.0
O364 O 0.76078 0.20252 0.41261 0.0
O365 O 0.87523 0.25187 0.42488 0.0
O366 O 0.71502 0.33503 0.43284 0.0
O367 O 0.73716 0.42922 0.40085 0.0
C368 C 0.70361 0.40852 0.4265 0.0
C369 C 0.97822 0.29251 0.38103 0.0
O370 O 0.87963 0.49338 0.40173 0.0
O371 O 0.86601 0.38968 0.4313 0.0
O372 O 0.91138 0.47761 0.3421 0.0
O373 O 0.78804 0.45329 0.33512 0.0
O374 O 0.97902 0.36747 0.38688 0.0
O375 O 0.90867 0.27363 0.37343 0.0
O376 O 0.74132 0.27635 0.35189 0.0
O377 O 0.84291 0.32932 0.32877 0.0
C378 C 0.87926 0.46518 0.42891 0.0
C379 C 0.78274 0.28379 0.32667 0.0
Dy380 Dy 0.97791 0.54769 0.64435 0.0
C381 C 0.79338 0.60279 0.57498 0.0
C382 C 0.12328 0.54515 0.66712 0.0
Dy383 Dy 0.89601 0.60009 0.62202 0.0
O384 O 0.0721 0.48995 0.6715 0.0
O385 O 0.09991 0.59051 0.64561 0.0
O386 O 0.94955 0.48642 0.68739 0.0
O387 O 0.86858 0.48247 0.64905 0.0
C388 C 0.8822 0.46077 0.6774 0.0
C389 C 0.99317 0.72855 0.63411 0.0
O390 O 0.8013 0.61596 0.65447 0.0
O391 O 0.91478 0.62236 0.67961 0.0
O392 O 0.80893 0.66302 0.59209 0.0
O393 O 0.83188 0.54134 0.58383 0.0
O394 O 0.91652 0.72883 0.63613 0.0
O395 O 1.01498 0.66079 0.62625 0.0
O396 O 1.0014 0.48077 0.6005 0.0
O397 O 0.96444 0.59102 0.57898 0.0
C398 C 0.83701 0.62656 0.67996 0.0
C399 C 1.00045 0.52514 0.57598 0.0
Dy400 Dy 0.733 0.31881 0.7285 0.0
C401 C 0.68506 0.49162 0.79847 0.0
C402 C 0.70575 0.19219 0.69799 0.0
Dy403 Dy 0.68378 0.39342 0.75101 0.0
O404 O 0.77372 0.20241 0.71142 0.0
O405 O 0.65897 0.2513 0.69934 0.0
O406 O 0.81863 0.33524 0.69095 0.0
O407 O 0.79753 0.42895 0.72325 0.0
C408 C 0.83062 0.40853 0.69747 0.0
C409 C 0.55607 0.29293 0.74304 0.0
O410 O 0.65539 0.49355 0.72224 0.0
O411 O 0.66816 0.38955 0.69275 0.0
O412 O 0.62312 0.47796 0.7819 0.0
O413 O 0.74637 0.45341 0.78899 0.0
O414 O 0.55539 0.3679 0.73719 0.0
O415 O 0.62559 0.27396 0.75064 0.0
O416 O 0.79302 0.27614 0.7721 0.0
O417 O 0.6917 0.32948 0.79528 0.0
C418 C 0.65535 0.46515 0.69509 0.0
C419 C 0.75171 0.28374 0.79734 0.0
Dy420 Dy 0.97783 0.48148 0.97973 0.0
C421 C 0.79321 0.42636 1.04902 0.0
C422 C 0.12321 0.48385 0.95699 0.0
Dy423 Dy 0.89593 0.42906 1.00202 0.0
O424 O 0.07215 0.53917 0.95263 0.0
O425 O 0.09976 0.43848 0.97847 0.0
O426 O 0.94976 0.54292 0.93671 0.0
O427 O 0.86846 0.54661 0.97495 0.0
C428 C 0.88229 0.56843 0.94663 0.0
C429 C 0.99309 0.30062 0.98994 0.0
O430 O 0.80125 0.41313 0.96955 0.0
O431 O 0.91477 0.40684 0.94444 0.0
O432 O 0.80882 0.36611 1.03193 0.0
O433 O 0.83169 0.48782 1.04017 0.0
O434 O 0.91645 0.30033 0.9879 0.0
O435 O 1.0149 0.36837 0.99782 0.0
O436 O 1.00121 0.54843 1.02358 0.0
O437 O 0.96425 0.43816 1.04508 0.0
C438 C 0.83701 0.40257 0.94407 0.0
C439 C 1.00021 0.50407 1.0481 0.0
Dy440 Dy 0.80135 0.71034 0.22848 0.0
C441 C 0.84934 0.53752 0.29846 0.0
C442 C 0.8286 0.83693 0.19796 0.0
Dy443 Dy 0.85058 0.63573 0.251 0.0
O444 O 0.76064 0.82673 0.2114 0.0
O445 O 0.87536 0.77781 0.19931 0.0
O446 O 0.71569 0.6939 0.19095 0.0
O447 O 0.73683 0.60018 0.22324 0.0
C448 C 0.70373 0.62061 0.19746 0.0
C449 C 0.97827 0.73624 0.24302 0.0
O450 O 0.87898 0.5356 0.22224 0.0
O451 O 0.86619 0.63958 0.19274 0.0
O452 O 0.91126 0.5512 0.28189 0.0
O453 O 0.78802 0.57572 0.28898 0.0
O454 O 0.97896 0.66128 0.23717 0.0
O455 O 0.90876 0.75521 0.25062 0.0
O456 O 0.74133 0.75301 0.27209 0.0
O457 O 0.84265 0.69967 0.29527 0.0
C458 C 0.87902 0.56399 0.19508 0.0
C459 C 0.78264 0.74541 0.29733 0.0
Dy460 Dy 0.55658 0.54768 0.47972 0.0
C461 C 0.74132 0.60278 0.54901 0.0
C462 C 0.41119 0.54541 0.45698 0.0
Dy463 Dy 0.63856 0.60009 0.50202 0.0
O464 O 0.46221 0.49005 0.45263 0.0
O465 O 0.4347 0.59081 0.47845 0.0
O466 O 0.58465 0.48626 0.43669 0.0
O467 O 0.66594 0.48254 0.47494 0.0
C468 C 0.65212 0.46074 0.44662 0.0
C469 C 0.54136 0.72852 0.48997 0.0
O470 O 0.73319 0.61601 0.46953 0.0
O471 O 0.61965 0.62233 0.44444 0.0
O472 O 0.7257 0.66303 0.53192 0.0
O473 O 0.70283 0.54133 0.54017 0.0
O474 O 0.61799 0.72882 0.48791 0.0
O475 O 0.51959 0.66077 0.49786 0.0
O476 O 0.53318 0.48071 0.52357 0.0
O477 O 0.57026 0.59093 0.54508 0.0
C478 C 0.69741 0.62659 0.44406 0.0
C479 C 0.53425 0.52505 0.54809 0.0
Dy480 Dy 0.35455 0.38777 0.25184 0.0
C481 C 0.29119 0.16168 0.20708 0.0
C482 C 0.35774 0.48885 0.29904 0.0
Dy483 Dy 0.30021 0.30735 0.22897 0.0
O484 O 0.41809 0.47403 0.28177 0.0
O485 O 0.29592 0.45062 0.29026 0.0
O486 O 0.48437 0.3675 0.23897 0.0
O487 O 0.41444 0.26887 0.24672 0.0
C488 C 0.48359 0.29113 0.24036 0.0
C489 C 0.21539 0.40898 0.19693 0.0
O490 O 0.23318 0.28351 0.2729 0.0
O491 O 0.34453 0.31808 0.29455 0.0
O492 O 0.23975 0.21582 0.20139 0.0
O493 O 0.33635 0.18357 0.22893 0.0
O494 O 0.24082 0.34289 0.18588 0.0
O495 O 0.23596 0.41756 0.22571 0.0
O496 O 0.37094 0.48023 0.21859 0.0
O497 O 0.37745 0.36672 0.19382 0.0
C498 C 0.27796 0.28271 0.29739 0.0
C499 C 0.38167 0.44401 0.19323 0.0
Dy500 Dy 0.39365 0.60091 1.00121 0.0
C501 C 0.61973 0.52341 0.95392 0.0
C502 C 0.29216 0.60206 1.04877 0.0
Dy503 Dy 0.47537 0.54686 0.97777 0.0
O504 O 0.30634 0.66233 1.03152 0.0
O505 O 0.33107 0.54111 1.03969 0.0
O506 O 0.41175 0.73111 0.99 0.0
O507 O 0.513 0.66189 0.99508 0.0
C508 C 0.48858 0.73132 0.9905 0.0
C509 C 0.37188 0.46347 0.94601 0.0
O510 O 0.49789 0.48144 1.0222 0.0
O511 O 0.46447 0.59295 1.04354 0.0
O512 O 0.5589 0.48085 0.94793 0.0
O513 O 0.60416 0.56668 0.97716 0.0
O514 O 0.43668 0.49105 0.93452 0.0
O515 O 0.36466 0.48255 0.97502 0.0
O516 O 0.30172 0.61826 0.96776 0.0
O517 O 0.41682 0.62701 0.94369 0.0
C518 C 0.49915 0.52649 1.04655 0.0
C519 C 0.33913 0.63119 0.9428 0.0
Dy520 Dy 0.17982 0.64133 0.75183 0.0
C521 C 0.24317 0.86742 0.70709 0.0
C522 C 0.17662 0.54028 0.79903 0.0
Dy523 Dy 0.23414 0.72172 0.72895 0.0
O524 O 0.11627 0.55509 0.78176 0.0
O525 O 0.23844 0.57849 0.79024 0.0
O526 O 0.04999 0.6616 0.73895 0.0
O527 O 0.11993 0.76023 0.7467 0.0
C528 C 0.05077 0.73797 0.74034 0.0
C529 C 0.31898 0.62012 0.69691 0.0
O530 O 0.30119 0.74555 0.77288 0.0
O531 O 0.18983 0.71102 0.79453 0.0
O532 O 0.2946 0.81328 0.70138 0.0
O533 O 0.198 0.8455 0.72894 0.0
O534 O 0.29354 0.68622 0.68586 0.0
O535 O 0.29841 0.61153 0.72569 0.0
O536 O 0.16342 0.54883 0.71858 0.0
O537 O 0.15692 0.66234 0.69381 0.0
C538 C 0.2564 0.74636 0.79737 0.0
C539 C 0.1527 0.58504 0.69322 0.0
Dy540 Dy 0.14073 0.42826 0.50121 0.0
C541 C 0.91464 0.50575 0.45391 0.0
C542 C 0.24225 0.42709 0.54875 0.0
Dy543 Dy 0.059 0.48231 0.47777 0.0
O544 O 0.22805 0.36683 0.53151 0.0
O545 O 0.20333 0.48804 0.53968 0.0
O546 O 0.12264 0.29807 0.48999 0.0
O547 O 0.02138 0.36728 0.49508 0.0
C548 C 0.0458 0.29784 0.49049 0.0
C549 C 0.16248 0.56569 0.446 0.0
O550 O 0.03649 0.54773 0.5222 0.0
O551 O 0.06993 0.43622 0.54354 0.0
O552 O 0.97546 0.54832 0.44793 0.0
O553 O 0.9302 0.46248 0.47716 0.0
O554 O 0.09768 0.53811 0.43451 0.0
O555 O 0.1697 0.54662 0.47501 0.0
O556 O 0.23264 0.41091 0.46775 0.0
O557 O 0.11753 0.40215 0.44369 0.0
C558 C 0.03525 0.50268 0.54655 0.0
C559 C 0.19522 0.39796 0.44279 0.0
Dy560 Dy 0.35468 0.64137 0.37222 0.0
C561 C 0.29119 0.86748 0.41697 0.0
C562 C 0.35776 0.5402 0.32505 0.0
Dy563 Dy 0.30031 0.72182 0.39509 0.0
O564 O 0.41816 0.55506 0.3423 0.0
O565 O 0.29597 0.57843 0.33385 0.0
O566 O 0.48449 0.66174 0.38508 0.0
O567 O 0.4145 0.76031 0.3773 0.0
C568 C 0.48366 0.73811 0.38367 0.0
C569 C 0.21553 0.62019 0.42714 0.0
O570 O 0.23329 0.74551 0.35114 0.0
O571 O 0.34466 0.71097 0.3295 0.0
O572 O 0.23976 0.81331 0.42265 0.0
O573 O 0.33634 0.84563 0.39511 0.0
O574 O 0.24097 0.68628 0.43819 0.0
O575 O 0.23609 0.61159 0.39836 0.0
O576 O 0.3711 0.54898 0.40551 0.0
O577 O 0.37758 0.66254 0.43025 0.0
C578 C 0.27807 0.74628 0.32665 0.0
C579 C 0.38181 0.58525 0.43086 0.0
Dy580 Dy 0.14038 0.60094 0.12288 0.0
C581 C 0.91451 0.52343 0.17011 0.0
C582 C 0.24169 0.60208 0.07526 0.0
Dy583 Dy 0.05893 0.54694 0.1463 0.0
O584 O 0.22758 0.66235 0.09251 0.0
O585 O 0.20282 0.54113 0.08437 0.0
O586 O 0.12241 0.73117 0.13407 0.0
O587 O 0.02109 0.66199 0.12909 0.0
C588 C 0.04557 0.73143 0.13362 0.0
C589 C 0.16229 0.46344 0.17806 0.0
O590 O 0.03639 0.48147 0.10187 0.0
O591 O 0.06947 0.5931 0.08057 0.0
O592 O 0.97536 0.48094 0.17614 0.0
O593 O 0.93011 0.56667 0.14686 0.0
O594 O 0.09751 0.49106 0.18956 0.0
O595 O 0.16956 0.48258 0.14906 0.0
O596 O 0.23259 0.61828 0.15622 0.0
O597 O 0.11765 0.627 0.18038 0.0
C598 C 0.03494 0.52655 0.07754 0.0
C599 C 0.19535 0.63115 0.18122 0.0
Dy600 Dy 0.17966 0.38781 0.87223 0.0
C601 C 0.24316 0.1617 0.91695 0.0
C602 C 0.17659 0.48894 0.82505 0.0
Dy603 Dy 0.23402 0.30739 0.8951 0.0
O604 O 0.11619 0.47409 0.8423 0.0
O605 O 0.23838 0.45073 0.83386 0.0
O606 O 0.04984 0.36743 0.8851 0.0
O607 O 0.11984 0.26886 0.87732 0.0
C608 C 0.05067 0.29106 0.88368 0.0
C609 C 0.31882 0.40899 0.92715 0.0
O610 O 0.30105 0.28371 0.85115 0.0
O611 O 0.18966 0.31819 0.82952 0.0
O612 O 0.29457 0.21588 0.92265 0.0
O613 O 0.198 0.18357 0.8951 0.0
O614 O 0.29337 0.3429 0.9382 0.0
O615 O 0.29825 0.4176 0.89837 0.0
O616 O 0.16323 0.48023 0.9055 0.0
O617 O 0.15677 0.36669 0.93026 0.0
C618 C 0.25626 0.2829 0.82667 0.0
C619 C 0.15254 0.44398 0.93086 0.0
Dy620 Dy 0.39403 0.42818 0.62286 0.0
C621 C 0.61988 0.50571 0.67011 0.0
C622 C 0.29273 0.42706 0.57524 0.0
Dy623 Dy 0.47548 0.48219 0.64628 0.0
O624 O 0.30683 0.36679 0.59249 0.0
O625 O 0.33161 0.48801 0.58435 0.0
O626 O 0.412 0.29795 0.63405 0.0
O627 O 0.51332 0.36714 0.62908 0.0
C628 C 0.48884 0.29769 0.63361 0.0
C629 C 0.3721 0.56568 0.67804 0.0
O630 O 0.49804 0.54765 0.60186 0.0
O631 O 0.46495 0.43603 0.58056 0.0
O632 O 0.55902 0.54819 0.67613 0.0
O633 O 0.6043 0.46246 0.64686 0.0
O634 O 0.43688 0.53806 0.68954 0.0
O635 O 0.36484 0.54654 0.64905 0.0
O636 O 0.30181 0.41085 0.6562 0.0
O637 O 0.41675 0.40212 0.68037 0.0
C638 C 0.49949 0.50256 0.57753 0.0
C639 C 0.33905 0.39798 0.6812 0.0
loop_
_geom_bond_atom_site_label_1
_geom_bond_atom_site_label_2
_geom_bond_distance
_geom_bond_site_symmetry_2
_ccdc_geom_bond_type
Dy0 O4 2.398 . S
Dy0 O5 2.491 . S
Dy0 O6 2.403 . S
Dy0 O7 2.664 . S
Dy0 O11 2.326 . S
Dy0 O15 2.310 . S
Dy0 O16 2.351 . S
C1 O12 1.185 . S
C1 O13 1.355 . S
C2 O4 1.185 . S
C2 O5 1.355 . S
Dy3 O7 2.310 . S
Dy3 O10 2.351 . S
Dy3 O12 2.398 . S
Dy3 O13 2.491 . S
Dy3 O14 2.403 . S
Dy3 O15 2.664 . S
Dy3 O17 2.326 . S
O4 Dy0 2.398 . S
O4 C2 1.185 . S
O5 Dy0 2.491 . S
O5 C2 1.355 . S
O6 Dy0 2.403 . S
O6 C8 1.254 . S
O7 Dy0 2.664 . S
O7 Dy3 2.310 . S
O7 C8 1.268 . S
C8 O6 1.254 . S
C8 O7 1.268 . S
C9 O14 1.254 . S
C9 O15 1.268 . S
O10 Dy3 2.351 . S
O10 C18 1.249 . S
O11 Dy0 2.326 . S
O11 C18 1.267 . S
O12 C1 1.185 . S
O12 Dy3 2.398 . S
O13 C1 1.355 . S
O13 Dy3 2.491 . S
O14 Dy3 2.403 . S
O14 C9 1.254 . S
O15 Dy0 2.310 . S
O15 Dy3 2.664 . S
O15 C9 1.268 . S
O16 Dy0 2.351 . S
O16 C19 1.249 . S
O17 Dy3 2.326 . S
O17 C19 1.267 . S
C18 O10 1.249 . S
C18 O11 1.267 . S
C19 O16 1.249 . S
C19 O17 1.267 . S
Dy20 O24 2.398 . S
Dy20 O25 2.491 . S
Dy20 O26 2.403 1_665 S
Dy20 O27 2.664 1_665 S
Dy20 O31 2.326 1_655 S
Dy20 O35 2.310 1_655 S
Dy20 O36 2.351 1_565 S
C21 O32 1.185 . S
C21 O33 1.355 1_565 S
C22 O24 1.185 . S
C22 O25 1.355 . S
Dy23 O27 2.310 1_565 S
Dy23 O30 2.351 . S
Dy23 O32 2.398 . S
Dy23 O33 2.491 1_565 S
Dy23 O34 2.403 . S
Dy23 O35 2.664 . S
Dy23 O37 2.326 . S
O24 Dy20 2.398 . S
O24 C22 1.185 . S
O25 Dy20 2.491 . S
O25 C22 1.355 . S
O26 Dy20 2.403 1_445 S
O26 C28 1.254 . S
O27 Dy20 2.664 1_445 S
O27 Dy23 2.310 1_545 S
O27 C28 1.268 . S
C28 O26 1.254 . S
C28 O27 1.268 . S
C29 O34 1.254 . S
C29 O35 1.268 . S
O30 Dy23 2.351 . S
O30 C38 1.249 . S
O31 Dy20 2.326 1_455 S
O31 C38 1.267 . S
O32 C21 1.185 . S
O32 Dy23 2.398 . S
O33 C21 1.355 1_545 S
O33 Dy23 2.491 1_545 S
O34 Dy23 2.403 . S
O34 C29 1.254 . S
O35 Dy20 2.310 1_455 S
O35 Dy23 2.664 . S
O35 C29 1.268 . S
O36 Dy20 2.351 1_545 S
O36 C39 1.249 1_655 S
O37 Dy23 2.326 . S
O37 C39 1.267 1_565 S
C38 O30 1.249 . S
C38 O31 1.267 . S
C39 O36 1.249 1_455 S
C39 O37 1.267 1_545 S
Dy40 O44 2.398 . S
Dy40 O45 2.491 . S
Dy40 O46 2.403 . S
Dy40 O47 2.664 . S
Dy40 O51 2.326 . S
Dy40 O55 2.310 . S
Dy40 O56 2.351 . S
C41 O52 1.185 . S
C41 O53 1.355 . S
C42 O44 1.185 . S
C42 O45 1.355 . S
Dy43 O47 2.310 . S
Dy43 O50 2.351 . S
Dy43 O52 2.398 . S
Dy43 O53 2.491 . S
Dy43 O54 2.403 . S
Dy43 O55 2.664 . S
Dy43 O57 2.326 . S
O44 Dy40 2.398 . S
O44 C42 1.185 . S
O45 Dy40 2.491 . S
O45 C42 1.355 . S
O46 Dy40 2.403 . S
O46 C48 1.254 . S
O47 Dy40 2.664 . S
O47 Dy43 2.310 . S
O47 C48 1.268 . S
C48 O46 1.254 . S
C48 O47 1.268 . S
C49 O54 1.254 . S
C49 O55 1.268 . S
O50 Dy43 2.351 . S
O50 C58 1.249 . S
O51 Dy40 2.326 . S
O51 C58 1.267 . S
O52 C41 1.185 . S
O52 Dy43 2.398 . S
O53 C41 1.355 . S
O53 Dy43 2.491 . S
O54 Dy43 2.403 . S
O54 C49 1.254 . S
O55 Dy40 2.310 . S
O55 Dy43 2.664 . S
O55 C49 1.268 . S
O56 Dy40 2.351 . S
O56 C59 1.249 . S
O57 Dy43 2.326 . S
O57 C59 1.267 . S
C58 O50 1.249 . S
C58 O51 1.267 . S
C59 O56 1.249 . S
C59 O57 1.267 . S
Dy60 O64 2.398 . S
Dy60 O65 2.491 . S
Dy60 O66 2.403 1_545 S
Dy60 O67 2.664 1_545 S
Dy60 O71 2.326 . S
Dy60 O75 2.310 . S
Dy60 O76 2.351 1_545 S
C61 O72 1.185 . S
C61 O73 1.355 1_545 S
C62 O64 1.185 . S
C62 O65 1.355 . S
Dy63 O67 2.310 1_545 S
Dy63 O70 2.351 . S
Dy63 O72 2.398 . S
Dy63 O73 2.491 1_545 S
Dy63 O74 2.403 . S
Dy63 O75 2.664 . S
Dy63 O77 2.326 . S
O64 Dy60 2.398 . S
O64 C62 1.185 . S
O65 Dy60 2.491 . S
O65 C62 1.355 . S
O66 Dy60 2.403 1_565 S
O66 C68 1.254 . S
O67 Dy60 2.664 1_565 S
O67 Dy63 2.310 1_565 S
O67 C68 1.268 . S
C68 O66 1.254 . S
C68 O67 1.268 . S
C69 O74 1.254 . S
C69 O75 1.268 . S
O70 Dy63 2.351 . S
O70 C78 1.249 . S
O71 Dy60 2.326 . S
O71 C78 1.267 . S
O72 C61 1.185 . S
O72 Dy63 2.398 . S
O73 C61 1.355 1_565 S
O73 Dy63 2.491 1_565 S
O74 Dy63 2.403 . S
O74 C69 1.254 . S
O75 Dy60 2.310 . S
O75 Dy63 2.664 . S
O75 C69 1.268 . S
O76 Dy60 2.351 1_565 S
O76 C79 1.249 . S
O77 Dy63 2.326 . S
O77 C79 1.267 1_545 S
C78 O70 1.249 . S
C78 O71 1.267 . S
C79 O76 1.249 . S
C79 O77 1.267 1_565 S
Dy80 O84 2.398 . S
Dy80 O85 2.491 . S
Dy80 O86 2.403 . S
Dy80 O87 2.664 . S
Dy80 O91 2.326 . S
Dy80 O95 2.310 . S
Dy80 O96 2.351 . S
C81 O92 1.185 . S
C81 O93 1.355 . S
C82 O84 1.185 . S
C82 O85 1.355 . S
Dy83 O87 2.310 . S
Dy83 O90 2.351 . S
Dy83 O92 2.398 . S
Dy83 O93 2.491 . S
Dy83 O94 2.403 . S
Dy83 O95 2.664 . S
Dy83 O97 2.326 . S
O84 Dy80 2.398 . S
O84 C82 1.185 . S
O85 Dy80 2.491 . S
O85 C82 1.355 . S
O86 Dy80 2.403 . S
O86 C88 1.254 . S
O87 Dy80 2.664 . S
O87 Dy83 2.310 . S
O87 C88 1.268 . S
C88 O86 1.254 . S
C88 O87 1.268 . S
C89 O94 1.254 . S
C89 O95 1.268 . S
O90 Dy83 2.351 . S
O90 C98 1.249 . S
O91 Dy80 2.326 . S
O91 C98 1.267 . S
O92 C81 1.185 . S
O92 Dy83 2.398 . S
O93 C81 1.355 . S
O93 Dy83 2.491 . S
O94 Dy83 2.403 . S
O94 C89 1.254 . S
O95 Dy80 2.310 . S
O95 Dy83 2.664 . S
O95 C89 1.268 . S
O96 Dy80 2.351 . S
O96 C99 1.249 . S
O97 Dy83 2.326 . S
O97 C99 1.267 . S
C98 O90 1.249 . S
C98 O91 1.267 . S
C99 O96 1.249 . S
C99 O97 1.267 . S
Dy100 O104 2.398 . S
Dy100 O105 2.491 . S
Dy100 O106 2.403 1_565 S
Dy100 O107 2.664 1_565 S
Dy100 O111 2.326 . S
Dy100 O115 2.310 . S
Dy100 O116 2.351 1_565 S
C101 O112 1.185 . S
C101 O113 1.355 1_565 S
C102 O104 1.185 . S
C102 O105 1.355 . S
Dy103 O107 2.310 1_565 S
Dy103 O110 2.351 . S
Dy103 O112 2.398 . S
Dy103 O113 2.491 1_565 S
Dy103 O114 2.403 . S
Dy103 O115 2.664 . S
Dy103 O117 2.326 . S
O104 Dy100 2.398 . S
O104 C102 1.185 . S
O105 Dy100 2.491 . S
O105 C102 1.355 . S
O106 Dy100 2.403 1_545 S
O106 C108 1.254 . S
O107 Dy100 2.664 1_545 S
O107 Dy103 2.310 1_545 S
O107 C108 1.268 . S
C108 O106 1.254 . S
C108 O107 1.268 . S
C109 O114 1.254 . S
C109 O115 1.268 . S
O110 Dy103 2.351 . S
O110 C118 1.249 . S
O111 Dy100 2.326 . S
O111 C118 1.267 . S
O112 C101 1.185 . S
O112 Dy103 2.398 . S
O113 C101 1.355 1_545 S
O113 Dy103 2.491 1_545 S
O114 Dy103 2.403 . S
O114 C109 1.254 . S
O115 Dy100 2.310 . S
O115 Dy103 2.664 . S
O115 C109 1.268 . S
O116 Dy100 2.351 1_545 S
O116 C119 1.249 . S
O117 Dy103 2.326 . S
O117 C119 1.267 1_565 S
C118 O110 1.249 . S
C118 O111 1.267 . S
C119 O116 1.249 . S
C119 O117 1.267 1_545 S
Dy120 O124 2.398 . S
Dy120 O125 2.491 . S
Dy120 O126 2.403 . S
Dy120 O127 2.664 . S
Dy120 O131 2.326 . S
Dy120 O135 2.310 . S
Dy120 O136 2.351 . S
C121 O132 1.185 . S
C121 O133 1.355 . S
C122 O124 1.185 . S
C122 O125 1.355 . S
Dy123 O127 2.310 . S
Dy123 O130 2.351 . S
Dy123 O132 2.398 . S
Dy123 O133 2.491 . S
Dy123 O134 2.403 . S
Dy123 O135 2.664 . S
Dy123 O137 2.326 . S
O124 Dy120 2.398 . S
O124 C122 1.185 . S
O125 Dy120 2.491 . S
O125 C122 1.355 . S
O126 Dy120 2.403 . S
O126 C128 1.254 . S
O127 Dy120 2.664 . S
O127 Dy123 2.310 . S
O127 C128 1.268 . S
C128 O126 1.254 . S
C128 O127 1.268 . S
C129 O134 1.254 . S
C129 O135 1.268 . S
O130 Dy123 2.351 . S
O130 C138 1.249 . S
O131 Dy120 2.326 . S
O131 C138 1.267 . S
O132 C121 1.185 . S
O132 Dy123 2.398 . S
O133 C121 1.355 . S
O133 Dy123 2.491 . S
O134 Dy123 2.403 . S
O134 C129 1.254 . S
O135 Dy120 2.310 . S
O135 Dy123 2.664 . S
O135 C129 1.268 . S
O136 Dy120 2.351 . S
O136 C139 1.249 . S
O137 Dy123 2.326 . S
O137 C139 1.267 . S
C138 O130 1.249 . S
C138 O131 1.267 . S
C139 O136 1.249 . S
C139 O137 1.267 . S
Dy140 O144 2.398 . S
Dy140 O145 2.491 . S
Dy140 O146 2.403 1_645 S
Dy140 O147 2.664 1_645 S
Dy140 O151 2.326 1_655 S
Dy140 O155 2.310 1_655 S
Dy140 O156 2.351 1_545 S
C141 O152 1.185 . S
C141 O153 1.355 1_545 S
C142 O144 1.185 . S
C142 O145 1.355 . S
Dy143 O147 2.310 1_545 S
Dy143 O150 2.351 . S
Dy143 O152 2.398 . S
Dy143 O153 2.491 1_545 S
Dy143 O154 2.403 . S
Dy143 O155 2.664 . S
Dy143 O157 2.326 . S
O144 Dy140 2.398 . S
O144 C142 1.185 . S
O145 Dy140 2.491 . S
O145 C142 1.355 . S
O146 Dy140 2.403 1_465 S
O146 C148 1.254 . S
O147 Dy140 2.664 1_465 S
O147 Dy143 2.310 1_565 S
O147 C148 1.268 . S
C148 O146 1.254 . S
C148 O147 1.268 . S
C149 O154 1.254 . S
C149 O155 1.268 . S
O150 Dy143 2.351 . S
O150 C158 1.249 . S
O151 Dy140 2.326 1_455 S
O151 C158 1.267 . S
O152 C141 1.185 . S
O152 Dy143 2.398 . S
O153 C141 1.355 1_565 S
O153 Dy143 2.491 1_565 S
O154 Dy143 2.403 . S
O154 C149 1.254 . S
O155 Dy140 2.310 1_455 S
O155 Dy143 2.664 . S
O155 C149 1.268 . S
O156 Dy140 2.351 1_565 S
O156 C159 1.249 1_655 S
O157 Dy143 2.326 . S
O157 C159 1.267 1_545 S
C158 O150 1.249 . S
C158 O151 1.267 . S
C159 O156 1.249 1_455 S
C159 O157 1.267 1_565 S
Dy160 O164 2.398 . S
Dy160 O165 2.491 . S
Dy160 O166 2.403 . S
Dy160 O167 2.664 . S
Dy160 O171 2.326 . S
Dy160 O175 2.310 . S
Dy160 O176 2.351 . S
C161 O172 1.185 . S
C161 O173 1.355 . S
C162 O164 1.185 . S
C162 O165 1.355 . S
Dy163 O167 2.310 . S
Dy163 O170 2.351 . S
Dy163 O172 2.398 . S
Dy163 O173 2.491 . S
Dy163 O174 2.403 . S
Dy163 O175 2.664 . S
Dy163 O177 2.326 . S
O164 Dy160 2.398 . S
O164 C162 1.185 . S
O165 Dy160 2.491 . S
O165 C162 1.355 . S
O166 Dy160 2.403 . S
O166 C168 1.254 . S
O167 Dy160 2.664 . S
O167 Dy163 2.310 . S
O167 C168 1.268 . S
C168 O166 1.254 . S
C168 O167 1.268 . S
C169 O174 1.254 . S
C169 O175 1.268 . S
O170 Dy163 2.351 . S
O170 C178 1.249 . S
O171 Dy160 2.326 . S
O171 C178 1.267 . S
O172 C161 1.185 . S
O172 Dy163 2.398 . S
O173 C161 1.355 . S
O173 Dy163 2.491 . S
O174 Dy163 2.403 . S
O174 C169 1.254 . S
O175 Dy160 2.310 . S
O175 Dy163 2.664 . S
O175 C169 1.268 . S
O176 Dy160 2.351 . S
O176 C179 1.249 . S
O177 Dy163 2.326 . S
O177 C179 1.267 . S
C178 O170 1.249 . S
C178 O171 1.267 . S
C179 O176 1.249 . S
C179 O177 1.267 . S
Dy180 O184 2.398 . S
Dy180 O185 2.491 1_545 S
Dy180 O186 2.403 . S
Dy180 O187 2.664 . S
Dy180 O191 2.326 . S
Dy180 O195 2.310 1_545 S
Dy180 O196 2.351 . S
C181 O192 1.185 . S
C181 O193 1.355 . S
C182 O184 1.185 . S
C182 O185 1.355 1_545 S
Dy183 O187 2.310 1_455 S
Dy183 O190 2.351 1_545 S
Dy183 O192 2.398 . S
Dy183 O193 2.491 . S
Dy183 O194 2.403 1_445 S
Dy183 O195 2.664 1_445 S
Dy183 O197 2.326 1_455 S
O184 Dy180 2.398 . S
O184 C182 1.185 . S
O185 Dy180 2.491 1_565 S
O185 C182 1.355 1_565 S
O186 Dy180 2.403 . S
O186 C188 1.254 . S
O187 Dy180 2.664 . S
O187 Dy183 2.310 1_655 S
O187 C188 1.268 . S
C188 O186 1.254 . S
C188 O187 1.268 . S
C189 O194 1.254 . S
C189 O195 1.268 . S
O190 Dy183 2.351 1_565 S
O190 C198 1.249 1_455 S
O191 Dy180 2.326 . S
O191 C198 1.267 1_545 S
O192 C181 1.185 . S
O192 Dy183 2.398 . S
O193 C181 1.355 . S
O193 Dy183 2.491 . S
O194 Dy183 2.403 1_665 S
O194 C189 1.254 . S
O195 Dy180 2.310 1_565 S
O195 Dy183 2.664 1_665 S
O195 C189 1.268 . S
O196 Dy180 2.351 . S
O196 C199 1.249 . S
O197 Dy183 2.326 1_655 S
O197 C199 1.267 . S
C198 O190 1.249 1_655 S
C198 O191 1.267 1_565 S
C199 O196 1.249 . S
C199 O197 1.267 . S
Dy200 O204 2.398 . S
Dy200 O205 2.491 . S
Dy200 O206 2.403 . S
Dy200 O207 2.664 . S
Dy200 O211 2.326 . S
Dy200 O215 2.310 . S
Dy200 O216 2.351 . S
C201 O212 1.185 . S
C201 O213 1.355 . S
C202 O204 1.185 . S
C202 O205 1.355 . S
Dy203 O207 2.310 . S
Dy203 O210 2.351 . S
Dy203 O212 2.398 . S
Dy203 O213 2.491 . S
Dy203 O214 2.403 . S
Dy203 O215 2.664 . S
Dy203 O217 2.326 . S
O204 Dy200 2.398 . S
O204 C202 1.185 . S
O205 Dy200 2.491 . S
O205 C202 1.355 . S
O206 Dy200 2.403 . S
O206 C208 1.254 . S
O207 Dy200 2.664 . S
O207 Dy203 2.310 . S
O207 C208 1.268 . S
C208 O206 1.254 . S
C208 O207 1.268 . S
C209 O214 1.254 . S
C209 O215 1.268 . S
O210 Dy203 2.351 . S
O210 C218 1.249 . S
O211 Dy200 2.326 . S
O211 C218 1.267 . S
O212 C201 1.185 . S
O212 Dy203 2.398 . S
O213 C201 1.355 . S
O213 Dy203 2.491 . S
O214 Dy203 2.403 . S
O214 C209 1.254 . S
O215 Dy200 2.310 . S
O215 Dy203 2.664 . S
O215 C209 1.268 . S
O216 Dy200 2.351 . S
O216 C219 1.249 . S
O217 Dy203 2.326 . S
O217 C219 1.267 . S
C218 O210 1.249 . S
C218 O211 1.267 . S
C219 O216 1.249 . S
C219 O217 1.267 . S
Dy220 O224 2.398 . S
Dy220 O225 2.491 1_565 S
Dy220 O226 2.403 . S
Dy220 O227 2.664 . S
Dy220 O231 2.326 . S
Dy220 O235 2.310 1_565 S
Dy220 O236 2.351 . S
C221 O232 1.185 . S
C221 O233 1.355 . S
C222 O224 1.185 . S
C222 O225 1.355 1_565 S
Dy223 O227 2.310 . S
Dy223 O230 2.351 1_565 S
Dy223 O232 2.398 . S
Dy223 O233 2.491 . S
Dy223 O234 2.403 1_565 S
Dy223 O235 2.664 1_565 S
Dy223 O237 2.326 . S
O224 Dy220 2.398 . S
O224 C222 1.185 . S
O225 Dy220 2.491 1_545 S
O225 C222 1.355 1_545 S
O226 Dy220 2.403 . S
O226 C228 1.254 . S
O227 Dy220 2.664 . S
O227 Dy223 2.310 . S
O227 C228 1.268 . S
C228 O226 1.254 . S
C228 O227 1.268 . S
C229 O234 1.254 . S
C229 O235 1.268 . S
O230 Dy223 2.351 1_545 S
O230 C238 1.249 . S
O231 Dy220 2.326 . S
O231 C238 1.267 1_565 S
O232 C221 1.185 . S
O232 Dy223 2.398 . S
O233 C221 1.355 . S
O233 Dy223 2.491 . S
O234 Dy223 2.403 1_545 S
O234 C229 1.254 . S
O235 Dy220 2.310 1_545 S
O235 Dy223 2.664 1_545 S
O235 C229 1.268 . S
O236 Dy220 2.351 . S
O236 C239 1.249 . S
O237 Dy223 2.326 . S
O237 C239 1.267 . S
C238 O230 1.249 . S
C238 O231 1.267 1_545 S
C239 O236 1.249 . S
C239 O237 1.267 . S
Dy240 O244 2.398 . S
Dy240 O245 2.491 . S
Dy240 O246 2.403 . S
Dy240 O247 2.664 . S
Dy240 O251 2.326 . S
Dy240 O255 2.310 . S
Dy240 O256 2.351 . S
C241 O252 1.185 . S
C241 O253 1.355 . S
C242 O244 1.185 . S
C242 O245 1.355 . S
Dy243 O247 2.310 . S
Dy243 O250 2.351 . S
Dy243 O252 2.398 . S
Dy243 O253 2.491 . S
Dy243 O254 2.403 . S
Dy243 O255 2.664 . S
Dy243 O257 2.326 . S
O244 Dy240 2.398 . S
O244 C242 1.185 . S
O245 Dy240 2.491 . S
O245 C242 1.355 . S
O246 Dy240 2.403 . S
O246 C248 1.254 . S
O247 Dy240 2.664 . S
O247 Dy243 2.310 . S
O247 C248 1.268 . S
C248 O246 1.254 . S
C248 O247 1.268 . S
C249 O254 1.254 . S
C249 O255 1.268 . S
O250 Dy243 2.351 . S
O250 C258 1.249 . S
O251 Dy240 2.326 . S
O251 C258 1.267 . S
O252 C241 1.185 . S
O252 Dy243 2.398 . S
O253 C241 1.355 . S
O253 Dy243 2.491 . S
O254 Dy243 2.403 . S
O254 C249 1.254 . S
O255 Dy240 2.310 . S
O255 Dy243 2.664 . S
O255 C249 1.268 . S
O256 Dy240 2.351 . S
O256 C259 1.249 . S
O257 Dy243 2.326 . S
O257 C259 1.267 . S
C258 O250 1.249 . S
C258 O251 1.267 . S
C259 O256 1.249 . S
C259 O257 1.267 . S
Dy260 O264 2.398 . S
Dy260 O265 2.491 1_545 S
Dy260 O266 2.403 . S
Dy260 O267 2.664 . S
Dy260 O271 2.326 . S
Dy260 O275 2.310 1_545 S
Dy260 O276 2.351 . S
C261 O272 1.185 . S
C261 O273 1.355 . S
C262 O264 1.185 . S
C262 O265 1.355 1_545 S
Dy263 O267 2.310 . S
Dy263 O270 2.351 1_545 S
Dy263 O272 2.398 . S
Dy263 O273 2.491 . S
Dy263 O274 2.403 1_545 S
Dy263 O275 2.664 1_545 S
Dy263 O277 2.326 . S
O264 Dy260 2.398 . S
O264 C262 1.185 . S
O265 Dy260 2.491 1_565 S
O265 C262 1.355 1_565 S
O266 Dy260 2.403 . S
O266 C268 1.254 . S
O267 Dy260 2.664 . S
O267 Dy263 2.310 . S
O267 C268 1.268 . S
C268 O266 1.254 . S
C268 O267 1.268 . S
C269 O274 1.254 . S
C269 O275 1.268 . S
O270 Dy263 2.351 1_565 S
O270 C278 1.249 . S
O271 Dy260 2.326 . S
O271 C278 1.267 1_545 S
O272 C261 1.185 . S
O272 Dy263 2.398 . S
O273 C261 1.355 . S
O273 Dy263 2.491 . S
O274 Dy263 2.403 1_565 S
O274 C269 1.254 . S
O275 Dy260 2.310 1_565 S
O275 Dy263 2.664 1_565 S
O275 C269 1.268 . S
O276 Dy260 2.351 . S
O276 C279 1.249 . S
O277 Dy263 2.326 . S
O277 C279 1.267 . S
C278 O270 1.249 . S
C278 O271 1.267 1_565 S
C279 O276 1.249 . S
C279 O277 1.267 . S
Dy280 O284 2.398 . S
Dy280 O285 2.491 . S
Dy280 O286 2.403 . S
Dy280 O287 2.664 . S
Dy280 O291 2.326 . S
Dy280 O295 2.310 . S
Dy280 O296 2.351 . S
C281 O292 1.185 . S
C281 O293 1.355 . S
C282 O284 1.185 . S
C282 O285 1.355 . S
Dy283 O287 2.310 . S
Dy283 O290 2.351 . S
Dy283 O292 2.398 . S
Dy283 O293 2.491 . S
Dy283 O294 2.403 . S
Dy283 O295 2.664 . S
Dy283 O297 2.326 . S
O284 Dy280 2.398 . S
O284 C282 1.185 . S
O285 Dy280 2.491 . S
O285 C282 1.355 . S
O286 Dy280 2.403 . S
O286 C288 1.254 . S
O287 Dy280 2.664 . S
O287 Dy283 2.310 . S
O287 C288 1.268 . S
C288 O286 1.254 . S
C288 O287 1.268 . S
C289 O294 1.254 . S
C289 O295 1.268 . S
O290 Dy283 2.351 . S
O290 C298 1.249 . S
O291 Dy280 2.326 . S
O291 C298 1.267 . S
O292 C281 1.185 . S
O292 Dy283 2.398 . S
O293 C281 1.355 . S
O293 Dy283 2.491 . S
O294 Dy283 2.403 . S
O294 C289 1.254 . S
O295 Dy280 2.310 . S
O295 Dy283 2.664 . S
O295 C289 1.268 . S
O296 Dy280 2.351 . S
O296 C299 1.249 . S
O297 Dy283 2.326 . S
O297 C299 1.267 . S
C298 O290 1.249 . S
C298 O291 1.267 . S
C299 O296 1.249 . S
C299 O297 1.267 . S
Dy300 O304 2.398 . S
Dy300 O305 2.491 1_565 S
Dy300 O306 2.403 . S
Dy300 O307 2.664 . S
Dy300 O311 2.326 . S
Dy300 O315 2.310 1_565 S
Dy300 O316 2.351 . S
C301 O312 1.185 . S
C301 O313 1.355 . S
C302 O304 1.185 . S
C302 O305 1.355 1_565 S
Dy303 O307 2.310 1_455 S
Dy303 O310 2.351 1_565 S
Dy303 O312 2.398 . S
Dy303 O313 2.491 . S
Dy303 O314 2.403 1_465 S
Dy303 O315 2.664 1_465 S
Dy303 O317 2.326 1_455 S
O304 Dy300 2.398 . S
O304 C302 1.185 . S
O305 Dy300 2.491 1_545 S
O305 C302 1.355 1_545 S
O306 Dy300 2.403 . S
O306 C308 1.254 . S
O307 Dy300 2.664 . S
O307 Dy303 2.310 1_655 S
O307 C308 1.268 . S
C308 O306 1.254 . S
C308 O307 1.268 . S
C309 O314 1.254 . S
C309 O315 1.268 . S
O310 Dy303 2.351 1_545 S
O310 C318 1.249 1_455 S
O311 Dy300 2.326 . S
O311 C318 1.267 1_565 S
O312 C301 1.185 . S
O312 Dy303 2.398 . S
O313 C301 1.355 . S
O313 Dy303 2.491 . S
O314 Dy303 2.403 1_645 S
O314 C309 1.254 . S
O315 Dy300 2.310 1_545 S
O315 Dy303 2.664 1_645 S
O315 C309 1.268 . S
O316 Dy300 2.351 . S
O316 C319 1.249 . S
O317 Dy303 2.326 1_655 S
O317 C319 1.267 . S
C318 O310 1.249 1_655 S
C318 O311 1.267 1_545 S
C319 O316 1.249 . S
C319 O317 1.267 . S
Dy320 O324 2.398 . S
Dy320 O325 2.491 . S
Dy320 O326 2.403 . S
Dy320 O327 2.664 . S
Dy320 O331 2.326 . S
Dy320 O335 2.310 . S
Dy320 O336 2.351 . S
C321 O332 1.185 . S
C321 O333 1.355 . S
C322 O324 1.185 . S
C322 O325 1.355 . S
Dy323 O327 2.310 . S
Dy323 O330 2.351 . S
Dy323 O332 2.398 . S
Dy323 O333 2.491 . S
Dy323 O334 2.403 . S
Dy323 O335 2.664 . S
Dy323 O337 2.326 . S
O324 Dy320 2.398 . S
O324 C322 1.185 . S
O325 Dy320 2.491 . S
O325 C322 1.355 . S
O326 Dy320 2.403 . S
O326 C328 1.254 . S
O327 Dy320 2.664 . S
O327 Dy323 2.310 . S
O327 C328 1.268 . S
C328 O326 1.254 . S
C328 O327 1.268 . S
C329 O334 1.254 . S
C329 O335 1.268 . S
O330 Dy323 2.351 . S
O330 C338 1.249 . S
O331 Dy320 2.326 . S
O331 C338 1.267 . S
O332 C321 1.185 . S
O332 Dy323 2.398 . S
O333 C321 1.355 . S
O333 Dy323 2.491 . S
O334 Dy323 2.403 . S
O334 C329 1.254 . S
O335 Dy320 2.310 . S
O335 Dy323 2.664 . S
O335 C329 1.268 . S
O336 Dy320 2.351 . S
O336 C339 1.249 . S
O337 Dy323 2.326 . S
O337 C339 1.267 . S
C338 O330 1.249 . S
C338 O331 1.267 . S
C339 O336 1.249 . S
C339 O337 1.267 . S
Dy340 O344 2.398 . S
Dy340 O345 2.491 . S
Dy340 O346 2.403 . S
Dy340 O347 2.664 . S
Dy340 O351 2.326 . S
Dy340 O355 2.310 . S
Dy340 O356 2.351 . S
C341 O352 1.185 . S
C341 O353 1.355 . S
C342 O344 1.185 . S
C342 O345 1.355 . S
Dy343 O347 2.310 . S
Dy343 O350 2.351 . S
Dy343 O352 2.398 . S
Dy343 O353 2.491 . S
Dy343 O354 2.403 . S
Dy343 O355 2.664 . S
Dy343 O357 2.326 . S
O344 Dy340 2.398 . S
O344 C342 1.185 . S
O345 Dy340 2.491 . S
O345 C342 1.355 . S
O346 Dy340 2.403 . S
O346 C348 1.254 . S
O347 Dy340 2.664 . S
O347 Dy343 2.310 . S
O347 C348 1.268 . S
C348 O346 1.254 . S
C348 O347 1.268 . S
C349 O354 1.254 . S
C349 O355 1.268 . S
O350 Dy343 2.351 . S
O350 C358 1.249 . S
O351 Dy340 2.326 . S
O351 C358 1.267 . S
O352 C341 1.185 . S
O352 Dy343 2.398 . S
O353 C341 1.355 . S
O353 Dy343 2.491 . S
O354 Dy343 2.403 . S
O354 C349 1.254 . S
O355 Dy340 2.310 . S
O355 Dy343 2.664 . S
O355 C349 1.268 . S
O356 Dy340 2.351 . S
O356 C359 1.249 . S
O357 Dy343 2.326 . S
O357 C359 1.267 . S
C358 O350 1.249 . S
C358 O351 1.267 . S
C359 O356 1.249 . S
C359 O357 1.267 . S
Dy360 O364 2.398 . S
Dy360 O365 2.491 . S
Dy360 O366 2.403 . S
Dy360 O367 2.664 . S
Dy360 O371 2.326 . S
Dy360 O375 2.310 . S
Dy360 O376 2.351 . S
C361 O372 1.185 . S
C361 O373 1.355 . S
C362 O364 1.185 . S
C362 O365 1.355 . S
Dy363 O367 2.310 . S
Dy363 O370 2.351 . S
Dy363 O372 2.398 . S
Dy363 O373 2.491 . S
Dy363 O374 2.403 . S
Dy363 O375 2.664 . S
Dy363 O377 2.326 . S
O364 Dy360 2.398 . S
O364 C362 1.185 . S
O365 Dy360 2.491 . S
O365 C362 1.355 . S
O366 Dy360 2.403 . S
O366 C368 1.254 . S
O367 Dy360 2.664 . S
O367 Dy363 2.310 . S
O367 C368 1.268 . S
C368 O366 1.254 . S
C368 O367 1.268 . S
C369 O374 1.254 . S
C369 O375 1.268 . S
O370 Dy363 2.351 . S
O370 C378 1.249 . S
O371 Dy360 2.326 . S
O371 C378 1.267 . S
O372 C361 1.185 . S
O372 Dy363 2.398 . S
O373 C361 1.355 . S
O373 Dy363 2.491 . S
O374 Dy363 2.403 . S
O374 C369 1.254 . S
O375 Dy360 2.310 . S
O375 Dy363 2.664 . S
O375 C369 1.268 . S
O376 Dy360 2.351 . S
O376 C379 1.249 . S
O377 Dy363 2.326 . S
O377 C379 1.267 . S
C378 O370 1.249 . S
C378 O371 1.267 . S
C379 O376 1.249 . S
C379 O377 1.267 . S
Dy380 O384 2.398 . S
Dy380 O385 2.491 . S
Dy380 O386 2.403 1_455 S
Dy380 O387 2.664 1_455 S
Dy380 O391 2.326 1_455 S
Dy380 O395 2.310 1_455 S
Dy380 O396 2.351 . S
C381 O392 1.185 . S
C381 O393 1.355 . S
C382 O384 1.185 . S
C382 O385 1.355 . S
Dy383 O387 2.310 . S
Dy383 O390 2.351 . S
Dy383 O392 2.398 . S
Dy383 O393 2.491 . S
Dy383 O394 2.403 . S
Dy383 O395 2.664 . S
Dy383 O397 2.326 . S
O384 Dy380 2.398 . S
O384 C382 1.185 . S
O385 Dy380 2.491 . S
O385 C382 1.355 . S
O386 Dy380 2.403 1_655 S
O386 C388 1.254 . S
O387 Dy380 2.664 1_655 S
O387 Dy383 2.310 . S
O387 C388 1.268 . S
C388 O386 1.254 . S
C388 O387 1.268 . S
C389 O394 1.254 . S
C389 O395 1.268 . S
O390 Dy383 2.351 . S
O390 C398 1.249 . S
O391 Dy380 2.326 1_655 S
O391 C398 1.267 . S
O392 C381 1.185 . S
O392 Dy383 2.398 . S
O393 C381 1.355 . S
O393 Dy383 2.491 . S
O394 Dy383 2.403 . S
O394 C389 1.254 . S
O395 Dy380 2.310 1_655 S
O395 Dy383 2.664 . S
O395 C389 1.268 . S
O396 Dy380 2.351 . S
O396 C399 1.249 1_455 S
O397 Dy383 2.326 . S
O397 C399 1.267 . S
C398 O390 1.249 . S
C398 O391 1.267 . S
C399 O396 1.249 1_655 S
C399 O397 1.267 . S
Dy400 O404 2.398 . S
Dy400 O405 2.491 . S
Dy400 O406 2.403 . S
Dy400 O407 2.664 . S
Dy400 O411 2.326 . S
Dy400 O415 2.310 . S
Dy400 O416 2.351 . S
C401 O412 1.185 . S
C401 O413 1.355 . S
C402 O404 1.185 . S
C402 O405 1.355 . S
Dy403 O407 2.310 . S
Dy403 O410 2.351 . S
Dy403 O412 2.398 . S
Dy403 O413 2.491 . S
Dy403 O414 2.403 . S
Dy403 O415 2.664 . S
Dy403 O417 2.326 . S
O404 Dy400 2.398 . S
O404 C402 1.185 . S
O405 Dy400 2.491 . S
O405 C402 1.355 . S
O406 Dy400 2.403 . S
O406 C408 1.254 . S
O407 Dy400 2.664 . S
O407 Dy403 2.310 . S
O407 C408 1.268 . S
C408 O406 1.254 . S
C408 O407 1.268 . S
C409 O414 1.254 . S
C409 O415 1.268 . S
O410 Dy403 2.351 . S
O410 C418 1.249 . S
O411 Dy400 2.326 . S
O411 C418 1.267 . S
O412 C401 1.185 . S
O412 Dy403 2.398 . S
O413 C401 1.355 . S
O413 Dy403 2.491 . S
O414 Dy403 2.403 . S
O414 C409 1.254 . S
O415 Dy400 2.310 . S
O415 Dy403 2.664 . S
O415 C409 1.268 . S
O416 Dy400 2.351 . S
O416 C419 1.249 . S
O417 Dy403 2.326 . S
O417 C419 1.267 . S
C418 O410 1.249 . S
C418 O411 1.267 . S
C419 O416 1.249 . S
C419 O417 1.267 . S
Dy420 O424 2.398 . S
Dy420 O425 2.491 . S
Dy420 O426 2.403 1_455 S
Dy420 O427 2.664 1_455 S
Dy420 O431 2.326 1_455 S
Dy420 O435 2.310 1_455 S
Dy420 O436 2.351 . S
C421 O432 1.185 . S
C421 O433 1.355 . S
C422 O424 1.185 . S
C422 O425 1.355 . S
Dy423 O427 2.310 . S
Dy423 O430 2.351 . S
Dy423 O432 2.398 . S
Dy423 O433 2.491 . S
Dy423 O434 2.403 . S
Dy423 O435 2.664 . S
Dy423 O437 2.326 . S
O424 Dy420 2.398 . S
O424 C422 1.185 . S
O425 Dy420 2.491 . S
O425 C422 1.355 . S
O426 Dy420 2.403 1_655 S
O426 C428 1.254 . S
O427 Dy420 2.664 1_655 S
O427 Dy423 2.310 . S
O427 C428 1.268 . S
C428 O426 1.254 . S
C428 O427 1.268 . S
C429 O434 1.254 . S
C429 O435 1.268 . S
O430 Dy423 2.351 . S
O430 C438 1.249 . S
O431 Dy420 2.326 1_655 S
O431 C438 1.267 . S
O432 C421 1.185 . S
O432 Dy423 2.398 . S
O433 C421 1.355 . S
O433 Dy423 2.491 . S
O434 Dy423 2.403 . S
O434 C429 1.254 . S
O435 Dy420 2.310 1_655 S
O435 Dy423 2.664 . S
O435 C429 1.268 . S
O436 Dy420 2.351 . S
O436 C439 1.249 1_455 S
O437 Dy423 2.326 . S
O437 C439 1.267 . S
C438 O430 1.249 . S
C438 O431 1.267 . S
C439 O436 1.249 1_655 S
C439 O437 1.267 . S
Dy440 O444 2.398 . S
Dy440 O445 2.491 . S
Dy440 O446 2.403 . S
Dy440 O447 2.664 . S
Dy440 O451 2.326 . S
Dy440 O455 2.310 . S
Dy440 O456 2.351 . S
C441 O452 1.185 . S
C441 O453 1.355 . S
C442 O444 1.185 . S
C442 O445 1.355 . S
Dy443 O447 2.310 . S
Dy443 O450 2.351 . S
Dy443 O452 2.398 . S
Dy443 O453 2.491 . S
Dy443 O454 2.403 . S
Dy443 O455 2.664 . S
Dy443 O457 2.326 . S
O444 Dy440 2.398 . S
O444 C442 1.185 . S
O445 Dy440 2.491 . S
O445 C442 1.355 . S
O446 Dy440 2.403 . S
O446 C448 1.254 . S
O447 Dy440 2.664 . S
O447 Dy443 2.310 . S
O447 C448 1.268 . S
C448 O446 1.254 . S
C448 O447 1.268 . S
C449 O454 1.254 . S
C449 O455 1.268 . S
O450 Dy443 2.351 . S
O450 C458 1.249 . S
O451 Dy440 2.326 . S
O451 C458 1.267 . S
O452 C441 1.185 . S
O452 Dy443 2.398 . S
O453 C441 1.355 . S
O453 Dy443 2.491 . S
O454 Dy443 2.403 . S
O454 C449 1.254 . S
O455 Dy440 2.310 . S
O455 Dy443 2.664 . S
O455 C449 1.268 . S
O456 Dy440 2.351 . S
O456 C459 1.249 . S
O457 Dy443 2.326 . S
O457 C459 1.267 . S
C458 O450 1.249 . S
C458 O451 1.267 . S
C459 O456 1.249 . S
C459 O457 1.267 . S
Dy460 O464 2.398 . S
Dy460 O465 2.491 . S
Dy460 O466 2.403 . S
Dy460 O467 2.664 . S
Dy460 O471 2.326 . S
Dy460 O475 2.310 . S
Dy460 O476 2.351 . S
C461 O472 1.185 . S
C461 O473 1.355 . S
C462 O464 1.185 . S
C462 O465 1.355 . S
Dy463 O467 2.310 . S
Dy463 O470 2.351 . S
Dy463 O472 2.398 . S
Dy463 O473 2.491 . S
Dy463 O474 2.403 . S
Dy463 O475 2.664 . S
Dy463 O477 2.326 . S
O464 Dy460 2.398 . S
O464 C462 1.185 . S
O465 Dy460 2.491 . S
O465 C462 1.355 . S
O466 Dy460 2.403 . S
O466 C468 1.254 . S
O467 Dy460 2.664 . S
O467 Dy463 2.310 . S
O467 C468 1.268 . S
C468 O466 1.254 . S
C468 O467 1.268 . S
C469 O474 1.254 . S
C469 O475 1.268 . S
O470 Dy463 2.351 . S
O470 C478 1.249 . S
O471 Dy460 2.326 . S
O471 C478 1.267 . S
O472 C461 1.185 . S
O472 Dy463 2.398 . S
O473 C461 1.355 . S
O473 Dy463 2.491 . S
O474 Dy463 2.403 . S
O474 C469 1.254 . S
O475 Dy460 2.310 . S
O475 Dy463 2.664 . S
O475 C469 1.268 . S
O476 Dy460 2.351 . S
O476 C479 1.249 . S
O477 Dy463 2.326 . S
O477 C479 1.267 . S
C478 O470 1.249 . S
C478 O471 1.267 . S
C479 O476 1.249 . S
C479 O477 1.267 . S
Dy480 O484 2.398 . S
Dy480 O485 2.491 . S
Dy480 O486 2.403 . S
Dy480 O487 2.664 . S
Dy480 O491 2.326 . S
Dy480 O495 2.310 . S
Dy480 O496 2.351 . S
C481 O492 1.185 . S
C481 O493 1.355 . S
C482 O484 1.185 . S
C482 O485 1.355 . S
Dy483 O487 2.310 . S
Dy483 O490 2.351 . S
Dy483 O492 2.398 . S
Dy483 O493 2.491 . S
Dy483 O494 2.403 . S
Dy483 O495 2.664 . S
Dy483 O497 2.326 . S
O484 Dy480 2.398 . S
O484 C482 1.185 . S
O485 Dy480 2.491 . S
O485 C482 1.355 . S
O486 Dy480 2.403 . S
O486 C488 1.254 . S
O487 Dy480 2.664 . S
O487 Dy483 2.310 . S
O487 C488 1.268 . S
C488 O486 1.254 . S
C488 O487 1.268 . S
C489 O494 1.254 . S
C489 O495 1.268 . S
O490 Dy483 2.351 . S
O490 C498 1.249 . S
O491 Dy480 2.326 . S
O491 C498 1.267 . S
O492 C481 1.185 . S
O492 Dy483 2.398 . S
O493 C481 1.355 . S
O493 Dy483 2.491 . S
O494 Dy483 2.403 . S
O494 C489 1.254 . S
O495 Dy480 2.310 . S
O495 Dy483 2.664 . S
O495 C489 1.268 . S
O496 Dy480 2.351 . S
O496 C499 1.249 . S
O497 Dy483 2.326 . S
O497 C499 1.267 . S
C498 O490 1.249 . S
C498 O491 1.267 . S
C499 O496 1.249 . S
C499 O497 1.267 . S
Dy500 O504 2.398 . S
Dy500 O505 2.491 . S
Dy500 O506 2.403 . S
Dy500 O507 2.664 . S
Dy500 O511 2.326 . S
Dy500 O515 2.310 . S
Dy500 O516 2.351 . S
C501 O512 1.185 . S
C501 O513 1.355 . S
C502 O504 1.185 . S
C502 O505 1.355 . S
Dy503 O507 2.310 . S
Dy503 O510 2.351 . S
Dy503 O512 2.398 . S
Dy503 O513 2.491 . S
Dy503 O514 2.403 . S
Dy503 O515 2.664 . S
Dy503 O517 2.326 . S
O504 Dy500 2.398 . S
O504 C502 1.185 . S
O505 Dy500 2.491 . S
O505 C502 1.355 . S
O506 Dy500 2.403 . S
O506 C508 1.254 . S
O507 Dy500 2.664 . S
O507 Dy503 2.310 . S
O507 C508 1.268 . S
C508 O506 1.254 . S
C508 O507 1.268 . S
C509 O514 1.254 . S
C509 O515 1.268 . S
O510 Dy503 2.351 . S
O510 C518 1.249 . S
O511 Dy500 2.326 . S
O511 C518 1.267 . S
O512 C501 1.185 . S
O512 Dy503 2.398 . S
O513 C501 1.355 . S
O513 Dy503 2.491 . S
O514 Dy503 2.403 . S
O514 C509 1.254 . S
O515 Dy500 2.310 . S
O515 Dy503 2.664 . S
O515 C509 1.268 . S
O516 Dy500 2.351 . S
O516 C519 1.249 . S
O517 Dy503 2.326 . S
O517 C519 1.267 . S
C518 O510 1.249 . S
C518 O511 1.267 . S
C519 O516 1.249 . S
C519 O517 1.267 . S
Dy520 O524 2.398 . S
Dy520 O525 2.491 . S
Dy520 O526 2.403 . S
Dy520 O527 2.664 . S
Dy520 O531 2.326 . S
Dy520 O535 2.310 . S
Dy520 O536 2.351 . S
C521 O532 1.185 . S
C521 O533 1.355 . S
C522 O524 1.185 . S
C522 O525 1.355 . S
Dy523 O527 2.310 . S
Dy523 O530 2.351 . S
Dy523 O532 2.398 . S
Dy523 O533 2.491 . S
Dy523 O534 2.403 . S
Dy523 O535 2.664 . S
Dy523 O537 2.326 . S
O524 Dy520 2.398 . S
O524 C522 1.185 . S
O525 Dy520 2.491 . S
O525 C522 1.355 . S
O526 Dy520 2.403 . S
O526 C528 1.254 . S
O527 Dy520 2.664 . S
O527 Dy523 2.310 . S
O527 C528 1.268 . S
C528 O526 1.254 . S
C528 O527 1.268 . S
C529 O534 1.254 . S
C529 O535 1.268 . S
O530 Dy523 2.351 . S
O530 C538 1.249 . S
O531 Dy520 2.326 . S
O531 C538 1.267 . S
O532 C521 1.185 . S
O532 Dy523 2.398 . S
O533 C521 1.355 . S
O533 Dy523 2.491 . S
O534 Dy523 2.403 . S
O534 C529 1.254 . S
O535 Dy520 2.310 . S
O535 Dy523 2.664 . S
O535 C529 1.268 . S
O536 Dy520 2.351 . S
O536 C539 1.249 . S
O537 Dy523 2.326 . S
O537 C539 1.267 . S
C538 O530 1.249 . S
C538 O531 1.267 . S
C539 O536 1.249 . S
C539 O537 1.267 . S
Dy540 O544 2.398 . S
Dy540 O545 2.491 . S
Dy540 O546 2.403 . S
Dy540 O547 2.664 . S
Dy540 O551 2.326 . S
Dy540 O555 2.310 . S
Dy540 O556 2.351 . S
C541 O552 1.185 . S
C541 O553 1.355 . S
C542 O544 1.185 . S
C542 O545 1.355 . S
Dy543 O547 2.310 1_655 S
Dy543 O550 2.351 . S
Dy543 O552 2.398 . S
Dy543 O553 2.491 . S
Dy543 O554 2.403 1_655 S
Dy543 O555 2.664 1_655 S
Dy543 O557 2.326 1_655 S
O544 Dy540 2.398 . S
O544 C542 1.185 . S
O545 Dy540 2.491 . S
O545 C542 1.355 . S
O546 Dy540 2.403 . S
O546 C548 1.254 . S
O547 Dy540 2.664 . S
O547 Dy543 2.310 1_455 S
O547 C548 1.268 . S
C548 O546 1.254 . S
C548 O547 1.268 . S
C549 O554 1.254 . S
C549 O555 1.268 . S
O550 Dy543 2.351 . S
O550 C558 1.249 1_655 S
O551 Dy540 2.326 . S
O551 C558 1.267 . S
O552 C541 1.185 . S
O552 Dy543 2.398 . S
O553 C541 1.355 . S
O553 Dy543 2.491 . S
O554 Dy543 2.403 1_455 S
O554 C549 1.254 . S
O555 Dy540 2.310 . S
O555 Dy543 2.664 1_455 S
O555 C549 1.268 . S
O556 Dy540 2.351 . S
O556 C559 1.249 . S
O557 Dy543 2.326 1_455 S
O557 C559 1.267 . S
C558 O550 1.249 1_455 S
C558 O551 1.267 . S
C559 O556 1.249 . S
C559 O557 1.267 . S
Dy560 O564 2.398 . S
Dy560 O565 2.491 . S
Dy560 O566 2.403 . S
Dy560 O567 2.664 . S
Dy560 O571 2.326 . S
Dy560 O575 2.310 . S
Dy560 O576 2.351 . S
C561 O572 1.185 . S
C561 O573 1.355 . S
C562 O564 1.185 . S
C562 O565 1.355 . S
Dy563 O567 2.310 . S
Dy563 O570 2.351 . S
Dy563 O572 2.398 . S
Dy563 O573 2.491 . S
Dy563 O574 2.403 . S
Dy563 O575 2.664 . S
Dy563 O577 2.326 . S
O564 Dy560 2.398 . S
O564 C562 1.185 . S
O565 Dy560 2.491 . S
O565 C562 1.355 . S
O566 Dy560 2.403 . S
O566 C568 1.254 . S
O567 Dy560 2.664 . S
O567 Dy563 2.310 . S
O567 C568 1.268 . S
C568 O566 1.254 . S
C568 O567 1.268 . S
C569 O574 1.254 . S
C569 O575 1.268 . S
O570 Dy563 2.351 . S
O570 C578 1.249 . S
O571 Dy560 2.326 . S
O571 C578 1.267 . S
O572 C561 1.185 . S
O572 Dy563 2.398 . S
O573 C561 1.355 . S
O573 Dy563 2.491 . S
O574 Dy563 2.403 . S
O574 C569 1.254 . S
O575 Dy560 2.310 . S
O575 Dy563 2.664 . S
O575 C569 1.268 . S
O576 Dy560 2.351 . S
O576 C579 1.249 . S
O577 Dy563 2.326 . S
O577 C579 1.267 . S
C578 O570 1.249 . S
C578 O571 1.267 . S
C579 O576 1.249 . S
C579 O577 1.267 . S
Dy580 O584 2.398 . S
Dy580 O585 2.491 . S
Dy580 O586 2.403 . S
Dy580 O587 2.664 . S
Dy580 O591 2.326 . S
Dy580 O595 2.310 . S
Dy580 O596 2.351 . S
C581 O592 1.185 . S
C581 O593 1.355 . S
C582 O584 1.185 . S
C582 O585 1.355 . S
Dy583 O587 2.310 1_655 S
Dy583 O590 2.351 . S
Dy583 O592 2.398 . S
Dy583 O593 2.491 . S
Dy583 O594 2.403 1_655 S
Dy583 O595 2.664 1_655 S
Dy583 O597 2.326 1_655 S
O584 Dy580 2.398 . S
O584 C582 1.185 . S
O585 Dy580 2.491 . S
O585 C582 1.355 . S
O586 Dy580 2.403 . S
O586 C588 1.254 . S
O587 Dy580 2.664 . S
O587 Dy583 2.310 1_455 S
O587 C588 1.268 . S
C588 O586 1.254 . S
C588 O587 1.268 . S
C589 O594 1.254 . S
C589 O595 1.268 . S
O590 Dy583 2.351 . S
O590 C598 1.249 1_655 S
O591 Dy580 2.326 . S
O591 C598 1.267 . S
O592 C581 1.185 . S
O592 Dy583 2.398 . S
O593 C581 1.355 . S
O593 Dy583 2.491 . S
O594 Dy583 2.403 1_455 S
O594 C589 1.254 . S
O595 Dy580 2.310 . S
O595 Dy583 2.664 1_455 S
O595 C589 1.268 . S
O596 Dy580 2.351 . S
O596 C599 1.249 . S
O597 Dy583 2.326 1_455 S
O597 C599 1.267 . S
C598 O590 1.249 1_455 S
C598 O591 1.267 . S
C599 O596 1.249 . S
C599 O597 1.267 . S
Dy600 O604 2.398 . S
Dy600 O605 2.491 . S
Dy600 O606 2.403 . S
Dy600 O607 2.664 . S
Dy600 O611 2.326 . S
Dy600 O615 2.310 . S
Dy600 O616 2.351 . S
C601 O612 1.185 . S
C601 O613 1.355 . S
C602 O604 1.185 . S
C602 O605 1.355 . S
Dy603 O607 2.310 . S
Dy603 O610 2.351 . S
Dy603 O612 2.398 . S
Dy603 O613 2.491 . S
Dy603 O614 2.403 . S
Dy603 O615 2.664 . S
Dy603 O617 2.326 . S
O604 Dy600 2.398 . S
O604 C602 1.185 . S
O605 Dy600 2.491 . S
O605 C602 1.355 . S
O606 Dy600 2.403 . S
O606 C608 1.254 . S
O607 Dy600 2.664 . S
O607 Dy603 2.310 . S
O607 C608 1.268 . S
C608 O606 1.254 . S
C608 O607 1.268 . S
C609 O614 1.254 . S
C609 O615 1.268 . S
O610 Dy603 2.351 . S
O610 C618 1.249 . S
O611 Dy600 2.326 . S
O611 C618 1.267 . S
O612 C601 1.185 . S
O612 Dy603 2.398 . S
O613 C601 1.355 . S
O613 Dy603 2.491 . S
O614 Dy603 2.403 . S
O614 C609 1.254 . S
O615 Dy600 2.310 . S
O615 Dy603 2.664 . S
O615 C609 1.268 . S
O616 Dy600 2.351 . S
O616 C619 1.249 . S
O617 Dy603 2.326 . S
O617 C619 1.267 . S
C618 O610 1.249 . S
C618 O611 1.267 . S
C619 O616 1.249 . S
C619 O617 1.267 . S
Dy620 O624 2.398 . S
Dy620 O625 2.491 . S
Dy620 O626 2.403 . S
Dy620 O627 2.664 . S
Dy620 O631 2.326 . S
Dy620 O635 2.310 . S
Dy620 O636 2.351 . S
C621 O632 1.185 . S
C621 O633 1.355 . S
C622 O624 1.185 . S
C622 O625 1.355 . S
Dy623 O627 2.310 . S
Dy623 O630 2.351 . S
Dy623 O632 2.398 . S
Dy623 O633 2.491 . S
Dy623 O634 2.403 . S
Dy623 O635 2.664 . S
Dy623 O637 2.326 . S
O624 Dy620 2.398 . S
O624 C622 1.185 . S
O625 Dy620 2.491 . S
O625 C622 1.355 . S
O626 Dy620 2.403 . S
O626 C628 1.254 . S
O627 Dy620 2.664 . S
O627 Dy623 2.310 . S
O627 C628 1.268 . S
C628 O626 1.254 . S
C628 O627 1.268 . S
C629 O634 1.254 . S
C629 O635 1.268 . S
O630 Dy623 2.351 . S
O630 C638 1.249 . S
O631 Dy620 2.326 . S
O631 C638 1.267 . S
O632 C621 1.185 . S
O632 Dy623 2.398 . S
O633 C621 1.355 . S
O633 Dy623 2.491 . S
O634 Dy623 2.403 . S
O634 C629 1.254 . S
O635 Dy620 2.310 . S
O635 Dy623 2.664 . S
O635 C629 1.268 . S
O636 Dy620 2.351 . S
O636 C639 1.249 . S
O637 Dy623 2.326 . S
O637 C639 1.267 . S
C638 O630 1.249 . S
C638 O631 1.267 . S
C639 O636 1.249 . S
C639 O637 1.267 . S
C2 C559 1.392 . S
C22 C179 1.392 . S
C42 C519 1.392 . S
C219 C62 1.392 . S
C82 C599 1.392 . S
C299 C102 1.392 . S
C639 C122 1.392 . S
C142 C259 1.392 . S
C161 C398 1.392 . S
C181 C18 1.392 . S
C358 C201 1.392 . S
C58 C221 1.392 . S
C241 C438 1.392 . S
C261 C138 1.392 . S
C281 C478 1.392 . S
C98 C301 1.392 . S
C239 C322 1.392 . S
C499 C342 1.392 . S
C199 C362 1.392 . S
C382 C539 1.392 . S
C279 C402 1.392 . S
C619 C422 1.392 . S
C319 C442 1.392 . S
C462 C579 1.392 . S
C481 C78 1.392 . S
C501 C338 1.392 . S
C521 C38 1.392 . S
C541 C378 1.392 . S
C118 C561 1.392 . S
C458 C581 1.392 . S
C601 C158 1.392 . S
C621 C418 1.392 . S
C9 C369 2.226 1_455 S
C389 C29 2.226 1_655 S
C49 C329 2.227 . S
C69 C349 2.226 . S
C449 C89 2.226 1_655 S
C109 C469 2.226 . S
C409 C129 2.227 . S
C149 C429 2.226 1_455 S
C528 C168 2.226 1_455 S
C188 C548 2.226 1_655 S
C208 C488 2.227 . S
C228 C508 2.226 . S
C608 C248 2.226 1_455 S
C628 C268 2.226 . S
C288 C568 2.227 . S
C308 C588 2.226 1_655 S
C19 C498 2.587 . S
C198 C39 2.587 1_665 S
C59 C538 2.587 . S
C79 C238 2.587 1_564 S
C578 C99 2.587 . S
C278 C119 2.587 1_565 S
C139 C618 2.587 . S
C159 C318 2.587 1_466 S
C339 C178 2.587 . S
C379 C218 2.587 . S
C419 C258 2.587 . S
C298 C459 2.587 . S
C359 C518 2.587 1_554 S
C399 C558 2.587 1_655 S
C598 C439 2.587 1_454 S
C638 C479 2.587 . S
C8 C108 3.976 . S
C128 C28 3.976 . S
C148 C48 3.976 . S
C88 C68 3.976 . S
C169 C269 3.976 . S
C189 C289 3.976 . S
C309 C209 3.976 . S
C229 C249 3.976 . S
C328 C428 3.976 . S
C348 C448 3.976 . S
C368 C468 3.976 . S
C408 C388 3.976 . S
C489 C589 3.976 . S
C509 C609 3.976 . S
C629 C529 3.976 . S
C549 C569 3.976 . S
C1 C81 0.933 1_545 S
C21 C101 0.932 . S
C121 C41 0.932 1_545 S
C141 C61 0.932 1_556 S
C162 C242 0.933 1_565 S
C262 C182 0.932 . S
C282 C202 0.932 1_565 S
C302 C222 0.932 1_554 S
C321 C401 0.932 . S
C421 C341 0.932 1_556 S
C361 C441 0.933 . S
C461 C381 0.932 . S
C562 C482 0.932 . S
C502 C582 0.932 1_556 S
C522 C602 0.933 . S
C542 C622 0.932 . S
