# Generated by pormake.
# Topology bcu-h, (3)-cn, num edge types: 1
# Building blocks:
#     Node 0, Type 0, BuildingBlock: OLANEW_clean_sbu_2, # of connection points: 3
#     Node 1, Type 0, BuildingBlock: OLANEW_clean_sbu_2, # of connection points: 3
#     Node 2, Type 0, BuildingBlock: OLANEW_clean_sbu_2, # of connection points: 3
#     Node 3, Type 0, BuildingBlock: OLANEW_clean_sbu_2, # of connection points: 3
#     Node 4, Type 0, BuildingBlock: OLANEW_clean_sbu_2, # of connection points: 3
#     Node 5, Type 0, BuildingBlock: OLANEW_clean_sbu_2, # of connection points: 3
#     Node 6, Type 0, BuildingBlock: OLANEW_clean_sbu_2, # of connection points: 3
#     Node 7, Type 0, BuildingBlock: OLANEW_clean_sbu_2, # of connection points: 3
#     Node 8, Type 0, BuildingBlock: OLANEW_clean_sbu_2, # of connection points: 3
#     Node 9, Type 0, BuildingBlock: OLANEW_clean_sbu_2, # of connection points: 3
#     Node 10, Type 0, BuildingBlock: OLANEW_clean_sbu_2, # of connection points: 3
#     Node 11, Type 0, BuildingBlock: OLANEW_clean_sbu_2, # of connection points: 3
#     Node 12, Type 0, BuildingBlock: OLANEW_clean_sbu_2, # of connection points: 3
#     Node 13, Type 0, BuildingBlock: OLANEW_clean_sbu_2, # of connection points: 3
#     Node 14, Type 0, BuildingBlock: OLANEW_clean_sbu_2, # of connection points: 3
#     Node 15, Type 0, BuildingBlock: OLANEW_clean_sbu_2, # of connection points: 3
#     Edge 16, Type (0, 0), BuildingBlock: EZIPEK_clean_linker_0, # of connection points: 2
#     Edge 17, Type (0, 0), BuildingBlock: EZIPEK_clean_linker_0, # of connection points: 2
#     Edge 18, Type (0, 0), BuildingBlock: EZIPEK_clean_linker_0, # of connection points: 2
#     Edge 19, Type (0, 0), BuildingBlock: EZIPEK_clean_linker_0, # of connection points: 2
#     Edge 20, Type (0, 0), BuildingBlock: EZIPEK_clean_linker_0, # of connection points: 2
#     Edge 21, Type (0, 0), BuildingBlock: EZIPEK_clean_linker_0, # of connection points: 2
#     Edge 22, Type (0, 0), BuildingBlock: EZIPEK_clean_linker_0, # of connection points: 2
#     Edge 23, Type (0, 0), BuildingBlock: EZIPEK_clean_linker_0, # of connection points: 2
#     Edge 24, Type (0, 0), BuildingBlock: EZIPEK_clean_linker_0, # of connection points: 2
#     Edge 25, Type (0, 0), BuildingBlock: EZIPEK_clean_linker_0, # of connection points: 2
#     Edge 26, Type (0, 0), BuildingBlock: EZIPEK_clean_linker_0, # of connection points: 2
#     Edge 27, Type (0, 0), BuildingBlock: EZIPEK_clean_linker_0, # of connection points: 2
#     Edge 28, Type (0, 0), BuildingBlock: EZIPEK_clean_linker_0, # of connection points: 2
#     Edge 29, Type (0, 0), BuildingBlock: EZIPEK_clean_linker_0, # of connection points: 2
#     Edge 30, Type (0, 0), BuildingBlock: EZIPEK_clean_linker_0, # of connection points: 2
#     Edge 31, Type (0, 0), BuildingBlock: EZIPEK_clean_linker_0, # of connection points: 2
#     Edge 32, Type (0, 0), BuildingBlock: EZIPEK_clean_linker_0, # of connection points: 2
#     Edge 33, Type (0, 0), BuildingBlock: EZIPEK_clean_linker_0, # of connection points: 2
#     Edge 34, Type (0, 0), BuildingBlock: EZIPEK_clean_linker_0, # of connection points: 2
#     Edge 35, Type (0, 0), BuildingBlock: EZIPEK_clean_linker_0, # of connection points: 2
#     Edge 36, Type (0, 0), BuildingBlock: EZIPEK_clean_linker_0, # of connection points: 2
#     Edge 37, Type (0, 0), BuildingBlock: EZIPEK_clean_linker_0, # of connection points: 2
#     Edge 38, Type (0, 0), BuildingBlock: EZIPEK_clean_linker_0, # of connection points: 2
#     Edge 39, Type (0, 0), BuildingBlock: EZIPEK_clean_linker_0, # of connection points: 2
# Relax obj value: 0.004
# Max RMSD: 0.045
# Mean RMSD: 0.045
data_MOF--net-bcu-h--node1-OLANEW_clean_sbu_2--edge1-EZIPEK_clean_linker_0
_symmetry_space_group_name_H-M    P1
_symmetry_Int_Tables_number       1
_symmetry_cell_setting            triclinic
loop_
_symmetry_equiv_pos_as_xyz
'x, y, z'
_cell_length_a     44.655337
_cell_length_b     44.499534
_cell_length_c     34.402356
_cell_angle_alpha  89.915449
_cell_angle_beta   89.814238
_cell_angle_gamma 89.994443
loop_
_atom_site_label
_atom_site_type_symbol
_atom_site_fract_x
_atom_site_fract_y
_atom_site_fract_z
_atom_type_partial_charge
O0 O 0.57731 0.01754 0.15144 0.0
Cd1 Cd 0.61359 0.00606 0.10014 0.0
O2 O 0.6096 0.04726 0.18092 0.0
Cd3 Cd 0.64847 0.03883 0.14397 0.0
O4 O 0.69619 0.04209 0.13057 0.0
C5 C 0.7125 0.05173 0.15806 0.0
O6 O 0.7001 0.05819 0.19171 0.0
C7 C 0.58359 0.03585 0.17855 0.0
C8 C 0.58798 0.9756 0.03781 0.0
O9 O 0.60061 0.96124 0.06561 0.0
O10 O 0.58724 0.00436 0.03951 0.0
O11 O 0.49624 0.59611 0.68202 0.0
Cd12 Cd 0.51094 0.63007 0.62934 0.0
O13 O 0.4488 0.60891 0.67537 0.0
Cd14 Cd 0.45669 0.64604 0.6352 0.0
O15 O 0.45319 0.69354 0.61997 0.0
C16 C 0.438 0.70924 0.64374 0.0
O17 O 0.42618 0.69622 0.67447 0.0
C18 C 0.46889 0.5931 0.69163 0.0
C19 C 0.53579 0.59955 0.56638 0.0
O20 O 0.55243 0.61051 0.59314 0.0
O21 O 0.50737 0.60286 0.56938 0.0
O22 O 0.90507 0.48152 0.16111 0.0
Cd23 Cd 0.87005 0.49486 0.10936 0.0
O24 O 0.87293 0.44902 0.18596 0.0
Cd25 Cd 0.83493 0.45847 0.14821 0.0
O26 O 0.78719 0.45523 0.13549 0.0
C27 C 0.77195 0.44086 0.16065 0.0
O28 O 0.7855 0.42975 0.19131 0.0
C29 C 0.89856 0.46141 0.18602 0.0
C30 C 0.89827 0.52314 0.04688 0.0
O31 O 0.88643 0.5385 0.07442 0.0
O32 O 0.89695 0.49441 0.04889 0.0
O33 O 0.0055 0.90539 0.66053 0.0
Cd34 Cd 0.99251 0.86973 0.60926 0.0
O35 O 0.03925 0.87412 0.68413 0.0
Cd36 Cd 0.03076 0.83618 0.64565 0.0
O37 O 0.03458 0.789 0.62915 0.0
C38 C 0.04401 0.77161 0.65577 0.0
O39 O 0.04983 0.7827 0.6903 0.0
C40 C 0.02604 0.8994 0.68483 0.0
C41 C 0.96229 0.89677 0.54773 0.0
O42 O 0.94787 0.8844 0.57578 0.0
O43 O 0.99098 0.89654 0.54881 0.0
O44 O 0.08163 0.97945 0.83012 0.0
Cd45 Cd 0.11749 0.99186 0.88121 0.0
O46 O 0.11397 0.94893 0.80184 0.0
Cd47 Cd 0.15253 0.95777 0.83886 0.0
O48 O 0.20014 0.95423 0.85233 0.0
C49 C 0.21563 0.93982 0.82753 0.0
O50 O 0.20243 0.92878 0.79661 0.0
C51 C 0.08803 0.96058 0.80367 0.0
C52 C 0.09051 0.02119 0.94369 0.0
O53 O 0.10286 0.03608 0.91603 0.0
O54 O 0.09079 0.99243 0.94181 0.0
O55 O 0.4931 0.0955 0.31062 0.0
Cd56 Cd 0.47799 0.12923 0.36323 0.0
O57 O 0.53971 0.11175 0.31393 0.0
Cd58 Cd 0.53111 0.14889 0.35371 0.0
O59 O 0.53485 0.19626 0.36936 0.0
C60 C 0.54739 0.21271 0.34384 0.0
O61 O 0.55633 0.20056 0.31101 0.0
C62 C 0.52023 0.09427 0.29944 0.0
C63 C 0.45297 0.0983 0.42588 0.0
O64 O 0.43642 0.10924 0.39897 0.0
O65 O 0.48138 0.10184 0.42318 0.0
O66 O 0.4137 0.51531 0.84031 0.0
Cd67 Cd 0.37736 0.50299 0.89125 0.0
O68 O 0.38035 0.54329 0.80989 0.0
Cd69 Cd 0.34189 0.53347 0.84702 0.0
O70 O 0.29458 0.53422 0.86311 0.0
C71 C 0.2797 0.55665 0.8509 0.0
O72 O 0.29349 0.57793 0.83132 0.0
C73 C 0.40682 0.53305 0.81274 0.0
C74 C 0.40275 0.47314 0.95432 0.0
O75 O 0.40317 0.5019 0.95227 0.0
O76 O 0.39063 0.45849 0.92644 0.0
O77 O 0.98447 0.40057 0.32204 0.0
Cd78 Cd -0.00212 0.365 0.37335 0.0
O79 O 0.94116 0.3777 0.31318 0.0
Cd80 Cd 0.9495 0.33906 0.35068 0.0
O81 O 0.94608 0.29123 0.36418 0.0
C82 C 0.93317 0.2755 0.33838 0.0
O83 O 0.92359 0.2886 0.30651 0.0
C84 C 0.95921 0.39893 0.30527 0.0
C85 C 0.02602 0.39312 0.43564 0.0
O86 O 0.04133 0.38124 0.40808 0.0
O87 O -0.00261 0.39182 0.43378 0.0
O88 O 0.49583 0.90077 0.79336 0.0
Cd89 Cd 0.51767 0.87311 0.84784 0.0
O90 O 0.45554 0.90664 0.82924 0.0
Cd91 Cd 0.40938 0.92209 0.83522 0.0
O92 O 0.36241 0.93553 0.83524 0.0
C93 C 0.3424 0.91552 0.83969 0.0
O94 O 0.35039 0.88741 0.84506 0.0
C95 C 0.46918 0.91033 0.79712 0.0
C96 C 0.53876 0.90876 0.90832 0.0
O97 O 0.5563 0.90012 0.88095 0.0
O98 O 0.51112 0.90113 0.9067 0.0
O99 O 0.59197 0.49358 0.32169 0.0
Cd100 Cd 0.623 0.51212 0.37498 0.0
O101 O 0.58601 0.45227 0.35577 0.0
Cd102 Cd 0.56899 0.40643 0.36047 0.0
O103 O 0.55431 0.3597 0.35927 0.0
C104 C 0.574 0.33912 0.36018 0.0
O105 O 0.60243 0.34641 0.3627 0.0
C106 C 0.58147 0.46715 0.3248 0.0
C107 C 0.59186 0.5391 0.43588 0.0
O108 O 0.60243 0.55487 0.4078 0.0
O109 O 0.59535 0.51053 0.43476 0.0
O110 O -0.00251 0.58877 0.802 0.0
Cd111 Cd 0.97841 0.61865 0.85635 0.0
O112 O 0.0409 0.58949 0.83162 0.0
Cd113 Cd 0.08862 0.57886 0.83322 0.0
O114 O 0.13679 0.57059 0.83302 0.0
C115 C 0.15152 0.57084 0.86456 0.0
O116 O 0.13755 0.57566 0.89763 0.0
C117 C 0.02508 0.58186 0.80263 0.0
C118 C 0.95376 0.58534 0.91712 0.0
O119 O 0.93724 0.59551 0.88968 0.0
O120 O 0.982 0.59035 0.91548 0.0
O121 O 0.89315 0.99434 0.30541 0.0
Cd122 Cd 0.86329 0.97384 0.35892 0.0
O123 O 0.8983 0.03513 0.34053 0.0
Cd124 Cd 0.91454 0.08114 0.34648 0.0
O125 O 0.92838 0.12813 0.34692 0.0
C126 C 0.90841 0.14833 0.3497 0.0
O127 O 0.88016 0.14048 0.35311 0.0
C128 C 0.9031 0.02092 0.30912 0.0
C129 C 0.89711 0.94998 0.4194 0.0
O130 O 0.88759 0.93319 0.39183 0.0
O131 O 0.89107 0.97812 0.41812 0.0
O132 O 0.99202 0.0901 0.18717 0.0
Cd133 Cd 0.01379 0.1194 0.13394 0.0
O134 O 0.95208 0.0847 0.15085 0.0
Cd135 Cd 0.90617 0.0688 0.14416 0.0
O136 O 0.85918 0.05551 0.14383 0.0
C137 C 0.83937 0.07587 0.14665 0.0
O138 O 0.84762 0.10415 0.1489 0.0
C139 C 0.96553 0.08029 0.18283 0.0
C140 C 0.03726 0.0853 0.07325 0.0
O141 O 0.05399 0.09429 0.10112 0.0
O142 O 0.00932 0.09188 0.07442 0.0
O143 O 0.39645 0.99125 0.66996 0.0
Cd144 Cd 0.36554 0.0092 0.61613 0.0
O145 O 0.40224 0.94949 0.63695 0.0
Cd146 Cd 0.41891 0.90348 0.63306 0.0
O147 O 0.43288 0.85652 0.63426 0.0
C148 C 0.41344 0.83621 0.62837 0.0
O149 O 0.38566 0.84392 0.62082 0.0
C150 C 0.40684 0.96474 0.66754 0.0
C151 C 0.39672 0.0368 0.55562 0.0
O152 O 0.38566 0.05234 0.58354 0.0
O153 O 0.39368 0.00817 0.55672 0.0
O154 O 0.49238 0.40088 0.20149 0.0
Cd155 Cd 0.47064 0.37244 0.14776 0.0
O156 O 0.53226 0.40693 0.16488 0.0
Cd157 Cd 0.57816 0.42289 0.15788 0.0
O158 O 0.62505 0.43654 0.15665 0.0
C159 C 0.64504 0.41662 0.15153 0.0
O160 O 0.63704 0.38852 0.14619 0.0
C161 C 0.51885 0.41077 0.19712 0.0
C162 C 0.45041 0.40741 0.08599 0.0
O163 O 0.43254 0.39925 0.11327 0.0
O164 O 0.47798 0.39959 0.08826 0.0
O165 O 0.09308 0.49454 0.67822 0.0
Cd166 Cd 0.12208 0.47328 0.62446 0.0
O167 O 0.08372 0.53327 0.64061 0.0
Cd168 Cd 0.06518 0.57826 0.63311 0.0
O169 O 0.05048 0.62498 0.63354 0.0
C170 C 0.07012 0.64524 0.63853 0.0
O171 O 0.09837 0.63756 0.64224 0.0
C172 C 0.08147 0.52033 0.67344 0.0
C173 C 0.08828 0.4488 0.56446 0.0
O174 O 0.09789 0.43227 0.5923 0.0
O175 O 0.09402 0.47702 0.56541 0.0
C176 C 0.56749 0.95291 0.93438 0.0
C177 C 0.55039 0.92657 0.94146 0.0
C178 C 0.55407 0.93545 0.01159 0.0
C179 C 0.57453 0.95926 0.00455 0.0
N180 N 0.60533 0.98676 0.9588 0.0
N181 N 0.53272 0.88927 0.98734 0.0
C182 C 0.58249 0.96703 0.9658 0.0
C183 C 0.54505 0.91687 0.98023 0.0
N184 N 0.56857 0.96514 0.89793 0.0
N185 N 0.54232 0.93119 0.04792 0.0
H186 H 0.52685 0.8743 0.96538 0.0
H187 H 0.53127 0.87996 0.01509 0.0
H188 H 0.54746 0.94497 0.07146 0.0
H189 H 0.52506 0.91605 0.05367 0.0
H190 H 0.57823 0.98597 0.89205 0.0
H191 H 0.55707 0.95608 0.87435 0.0
H192 H 0.614 0.99075 0.9311 0.0
H193 H 0.61775 -0.00318 0.98084 0.0
C194 C 0.54185 0.59175 0.49424 0.0
C195 C 0.5492 0.58332 0.5329 0.0
C196 C 0.58625 0.54758 0.50785 0.0
C197 C 0.57665 0.55371 0.46932 0.0
N198 N 0.54037 0.57671 0.4267 0.0
N199 N 0.57317 0.54795 0.5761 0.0
C200 C 0.55299 0.57438 0.46273 0.0
C201 C 0.56989 0.55968 0.53962 0.0
N202 N 0.52545 0.61714 0.48736 0.0
N203 N 0.61183 0.53147 0.51428 0.0
H204 H 0.56082 0.5554 0.6 0.0
H205 H 0.58574 0.52871 0.58178 0.0
H206 H 0.6253 0.52316 0.49195 0.0
H207 H 0.62139 0.5291 0.54171 0.0
H208 H 0.52216 0.62591 0.45961 0.0
H209 H 0.51771 0.63118 0.50943 0.0
H210 H 0.5211 0.58922 0.4213 0.0
H211 H 0.54721 0.56368 0.40311 0.0
C212 C 0.94622 0.57806 0.98905 0.0
C213 C 0.94037 0.56872 0.95034 0.0
C214 C 0.90488 0.53113 0.97486 0.0
C215 C 0.91317 0.53832 0.01358 0.0
N216 N 0.94715 0.56386 0.05691 0.0
N217 N 0.91931 0.53174 0.90701 0.0
C218 C 0.93542 0.56042 0.02053 0.0
C219 C 0.92118 0.54389 0.94338 0.0
N220 N 0.96079 0.60453 -0.00405 0.0
N221 N 0.88058 0.51326 0.96795 0.0
H222 H 0.93163 0.53979 0.88338 0.0
H223 H 0.90799 0.51177 0.90122 0.0
H224 H 0.86728 0.50427 0.99004 0.0
H225 H 0.87179 0.50992 0.94027 0.0
H226 H 0.96281 0.61381 0.02361 0.0
H227 H 0.96812 0.61883 0.97387 0.0
H228 H 0.96555 0.57754 0.06264 0.0
H229 H 0.94066 0.55068 0.08057 0.0
C230 C 0.92332 0.93241 0.52227 0.0
C231 C 0.94613 0.91095 0.51482 0.0
C232 C 0.93967 0.91869 0.44477 0.0
C233 C 0.9143 0.93703 0.45226 0.0
N234 N 0.87821 0.95613 0.49861 0.0
N235 N 0.97177 0.87903 0.46864 0.0
C236 C 0.90507 0.94253 0.49116 0.0
C237 C 0.95322 0.90281 0.47595 0.0
N238 N 0.91975 0.94408 0.55872 0.0
N239 N 0.95161 0.91727 0.40818 0.0
H240 H 0.98133 0.866 0.49053 0.0
H241 H 0.97515 0.8703 0.44088 0.0
H242 H 0.94302 0.92937 0.38475 0.0
H243 H 0.97186 0.90663 0.40202 0.0
H244 H 0.90546 0.962 0.56476 0.0
H245 H 0.93333 0.93812 0.5821 0.0
H246 H 0.86912 0.95781 0.52646 0.0
H247 H 0.8635 0.96289 0.47682 0.0
C248 C 0.08397 0.0292 0.0157 0.0
C249 C 0.07619 0.03691 0.97694 0.0
C250 C 0.04491 0.07805 0.00136 0.0
C251 C 0.05008 0.06825 0.04007 0.0
N252 N 0.06912 0.03004 0.08339 0.0
N253 N 0.0435 0.06411 0.93349 0.0
C254 C 0.06806 0.04251 0.04708 0.0
C255 C 0.05498 0.06003 0.96991 0.0
N256 N 0.10745 0.01028 0.02277 0.0
N257 N 0.03171 0.10524 0.99441 0.0
H258 H 0.04939 0.05068 0.90986 0.0
H259 H 0.02578 0.07867 0.92771 0.0
H260 H 0.02505 0.11984 0.01647 0.0
H261 H 0.03028 0.1147 0.96675 0.0
H262 H 0.11592 0.00643 0.05052 0.0
H263 H 0.12052 0.00088 0.00076 0.0
H264 H 0.07948 0.00954 0.08914 0.0
H265 H 0.05698 0.03847 0.10692 0.0
C266 C 0.4027 0.04558 0.48374 0.0
C267 C 0.41196 0.05171 0.52239 0.0
C268 C 0.44648 0.09024 0.49792 0.0
C269 C 0.43949 0.08185 0.45918 0.0
N270 N 0.4162 0.04637 0.41562 0.0
N271 N 0.44763 0.07503 0.56548 0.0
C272 C 0.41912 0.058 0.45217 0.0
C273 C 0.43532 0.07265 0.52929 0.0
N274 N 0.37738 0.02916 0.477 0.0
N275 N 0.46255 0.11578 0.50502 0.0
H276 H 0.44076 0.06187 0.58898 0.0
H277 H 0.46671 0.08776 0.57114 0.0
H278 H 0.4703 0.12996 0.48305 0.0
H279 H 0.46555 0.12451 0.53282 0.0
H280 H 0.36802 0.02676 0.44947 0.0
H281 H 0.36389 0.02058 0.49917 0.0
H282 H 0.40391 0.027 0.40977 0.0
H283 H 0.4286 0.05406 0.39187 0.0
C284 C 0.44507 0.41495 0.01379 0.0
C285 C 0.43925 0.42496 0.05227 0.0
C286 C 0.40743 0.46518 0.02658 0.0
C287 C 0.41587 0.45713 0.98813 0.0
N288 N 0.44869 0.42878 0.94594 0.0
N289 N 0.42065 0.46397 0.09471 0.0
C290 C 0.43645 0.4333 0.98193 0.0
C291 C 0.4221 0.45138 0.05854 0.0
N292 N 0.45745 0.3873 0.0074 0.0
N293 N 0.38442 0.48488 0.03281 0.0
H294 H 0.43194 0.45518 0.11865 0.0
H295 H 0.41091 0.48486 0.09998 0.0
H296 H 0.37217 0.49466 0.01037 0.0
H297 H 0.37545 0.48906 0.06027 0.0
H298 H 0.45925 0.37778 0.97983 0.0
H299 H 0.46301 0.37247 0.02972 0.0
H300 H 0.46603 0.41361 0.94083 0.0
H301 H 0.44387 0.4424 0.92207 0.0
C302 C 0.04659 0.41653 0.53878 0.0
C303 C 0.07159 0.43543 0.53148 0.0
C304 C 0.06338 0.43022 0.46141 0.0
C305 C 0.04114 0.40813 0.46872 0.0
N306 N 0.01576 0.37591 0.51492 0.0
N307 N 0.10767 0.45511 0.48543 0.0
C308 C 0.03379 0.4001 0.50758 0.0
C309 C 0.08106 0.44095 0.49267 0.0
N310 N 0.03431 0.41504 0.57518 0.0
N311 N 0.06693 0.44187 0.42489 0.0
H312 H 0.12206 0.46227 0.50733 0.0
H313 H 0.11696 0.45686 0.45769 0.0
H314 H 0.05369 0.43549 0.4014 0.0
H315 H 0.08078 0.46017 0.41891 0.0
H316 H 0.01427 0.40394 0.58114 0.0
H317 H 0.04236 0.42751 0.59857 0.0
H318 H 0.01227 0.36731 0.54276 0.0
H319 H 0.00677 0.3625 0.49307 0.0
C320 C 0.56607 0.03562 0.24758 0.0
C321 C 0.5611 0.04414 0.20835 0.0
C322 C 0.52317 0.08066 0.22887 0.0
C323 C 0.5296 0.07349 0.26819 0.0
N324 N 0.55051 0.03955 0.3152 0.0
N325 N 0.53014 0.06862 0.16058 0.0
C326 C 0.5489 0.04933 0.27757 0.0
C327 C 0.5378 0.06444 0.19865 0.0
N328 N 0.58789 0.01508 0.25602 0.0
N329 N 0.50466 0.10427 0.22053 0.0
H330 H 0.54103 0.05779 0.13772 0.0
H331 H 0.51151 0.08085 0.15169 0.0
H332 H 0.49296 0.11613 0.24184 0.0
H333 H 0.50193 0.11321 0.1928 0.0
H334 H 0.59532 0.01042 0.28402 0.0
H335 H 0.59939 0.0032 0.23451 0.0
H336 H 0.56226 0.02053 0.32392 0.0
H337 H 0.53784 0.04919 0.33748 0.0
C338 C 0.42504 0.53302 0.744 0.0
C339 C 0.42917 0.54214 0.78312 0.0
C340 C 0.46541 0.58034 0.76251 0.0
C341 C 0.45992 0.57238 0.72322 0.0
N342 N 0.44132 0.53686 0.67664 0.0
N343 N 0.45839 0.56857 0.8309 0.0
C344 C 0.44193 0.54719 0.71404 0.0
C345 C 0.45132 0.56367 0.7928 0.0
N346 N 0.40427 0.51143 0.73557 0.0
N347 N 0.48239 0.6051 0.77074 0.0
H348 H 0.44783 0.55743 0.85381 0.0
H349 H 0.47635 0.58176 0.83981 0.0
H350 H 0.49359 0.61749 0.74946 0.0
H351 H 0.48417 0.61446 0.79834 0.0
H352 H 0.39738 0.50619 0.70753 0.0
H353 H 0.39305 0.49927 0.75711 0.0
H354 H 0.43064 0.51715 0.66819 0.0
H355 H 0.45381 0.5468 0.65438 0.0
C356 C 0.9299 0.44402 0.28565 0.0
C357 C 0.95045 0.42113 0.27544 0.0
C358 C 0.94455 0.43335 0.20637 0.0
C359 C 0.9202 0.45234 0.21634 0.0
N360 N 0.89074 0.47819 0.26456 0.0
N361 N 0.97905 0.39433 0.22727 0.0
C362 C 0.91349 0.45875 0.25583 0.0
C363 C 0.95879 0.41634 0.23612 0.0
N364 N 0.92627 0.45151 0.3239 0.0
N365 N 0.95358 0.43122 0.16847 0.0
H366 H 0.99068 0.38235 0.24852 0.0
H367 H 0.9836 0.38699 0.19917 0.0
H368 H 0.94307 0.44278 0.14594 0.0
H369 H 0.97278 0.41992 0.15951 0.0
H370 H 0.91338 0.46951 0.33356 0.0
H371 H 0.93826 0.44102 0.3461 0.0
H372 H 0.88213 0.48133 0.2924 0.0
H373 H 0.87969 0.49078 0.24337 0.0
C374 C 0.05394 0.9455 0.70498 0.0
C375 C 0.03478 0.9213 0.71503 0.0
C376 C 0.04263 0.93129 0.78438 0.0
C377 C 0.06568 0.95176 0.77414 0.0
N378 N 0.09203 0.98093 0.72604 0.0
N379 N 0.00829 0.89226 0.76311 0.0
C380 C 0.07059 0.96 0.73476 0.0
C381 C 0.02795 0.9149 0.75449 0.0
N382 N 0.05646 0.95416 0.66696 0.0
N383 N 0.03523 0.92726 0.82264 0.0
H384 H -0.00411 0.8812 0.74181 0.0
H385 H 0.00472 0.88375 0.79091 0.0
H386 H 0.04607 0.93844 0.84517 0.0
H387 H 0.01708 0.91457 0.83219 0.0
H388 H 0.06817 0.97306 0.65766 0.0
H389 H 0.04492 0.94354 0.64455 0.0
H390 H 0.09947 0.9857 0.69803 0.0
H391 H 0.10316 0.99321 0.7474 0.0
C392 C 0.42762 0.91024 0.74834 0.0
C393 C 0.45351 0.92432 0.76376 0.0
C394 C 0.45029 0.96363 0.71385 0.0
C395 C 0.42287 0.95109 0.70085 0.0
N396 N 0.38246 0.91574 0.71023 0.0
N397 N 0.48694 0.96686 0.76554 0.0
C398 C 0.4107 0.92528 0.71935 0.0
C399 C 0.46421 0.95169 0.74768 0.0
N400 N 0.41979 0.882 0.76039 0.0
N401 N 0.4636 0.98621 0.69307 0.0
H402 H 0.49761 0.95889 0.79044 0.0
H403 H 0.49351 0.98849 0.75772 0.0
H404 H 0.45417 0.99544 0.66806 0.0
H405 H 0.48514 0.99403 0.69863 0.0
H406 H 0.40302 0.86934 0.74729 0.0
H407 H 0.43184 0.86998 0.78116 0.0
H408 H 0.37118 0.89903 0.72563 0.0
H409 H 0.36908 0.92639 0.68959 0.0
C410 C 0.5607 0.41162 0.24545 0.0
C411 C 0.53462 0.42531 0.22994 0.0
C412 C 0.53788 0.46532 0.27875 0.0
C413 C 0.56542 0.4531 0.29185 0.0
N414 N 0.60601 0.41789 0.28303 0.0
N415 N 0.50087 0.46757 0.22738 0.0
C416 C 0.57767 0.42713 0.27391 0.0
C417 C 0.52383 0.45283 0.2454 0.0
N418 N 0.56867 0.38329 0.23402 0.0
N419 N 0.52458 0.48814 0.29902 0.0
H420 H 0.49009 0.45917 0.20284 0.0
H421 H 0.49418 0.48926 0.23468 0.0
H422 H 0.53413 0.49781 0.32365 0.0
H423 H 0.50297 0.49577 0.29347 0.0
H424 H 0.58555 0.37089 0.24736 0.0
H425 H 0.55664 0.37095 0.21361 0.0
H426 H 0.61733 0.40107 0.26795 0.0
H427 H 0.6194 0.42887 0.30332 0.0
C428 C 0.06277 0.5802 0.74852 0.0
C429 C 0.03906 0.56612 0.76921 0.0
C430 C 0.04114 0.52324 0.72451 0.0
C431 C 0.0668 0.53596 0.70644 0.0
N432 N 0.10559 0.57379 0.70605 0.0
N433 N 0.00872 0.52218 0.78115 0.0
C434 C 0.07861 0.56371 0.71975 0.0
C435 C 0.029 0.53707 0.75834 0.0
N436 N 0.0695 0.6097 0.75531 0.0
N437 N 0.02772 0.49858 0.70856 0.0
H438 H -0.0005 0.53143 0.80633 0.0
H439 H 0.00301 0.49972 0.77706 0.0
H440 H 0.03582 0.48796 0.68365 0.0
H441 H 0.00713 0.49025 0.71794 0.0
H442 H 0.08435 0.62203 0.73816 0.0
H443 H 0.05809 0.62281 0.77564 0.0
H444 H 0.11681 0.59216 0.71781 0.0
H445 H 0.1182 0.56221 0.68537 0.0
C446 C 0.92347 0.07808 0.23116 0.0
C447 C 0.94984 0.06504 0.21537 0.0
C448 C 0.94692 0.02423 0.26327 0.0
C449 C 0.9191 0.03578 0.27656 0.0
N450 N 0.87801 0.07047 0.26843 0.0
N451 N 0.98418 0.02327 0.21184 0.0
C452 C 0.90655 0.06183 0.25919 0.0
C453 C 0.96095 0.03744 0.2302 0.0
N454 N 0.91516 0.10649 0.22047 0.0
N455 N 0.9605 0.00135 0.28309 0.0
H456 H -0.00507 0.03216 0.18744 0.0
H457 H 0.99112 0.00156 0.21867 0.0
H458 H 0.95099 0.99116 0.3075 0.0
H459 H 0.98228 0.99419 0.27741 0.0
H460 H 0.89798 0.11838 0.23404 0.0
H461 H 0.92718 0.11939 0.20047 0.0
H462 H 0.86649 0.08727 0.25359 0.0
H463 H 0.86469 0.05898 0.28849 0.0
C464 C 0.79598 0.04925 0.17806 0.0
C465 C 0.80718 0.06792 0.14784 0.0
C466 C 0.75613 0.07625 0.12415 0.0
C467 C 0.74517 0.05594 0.15269 0.0
N468 N 0.7552 0.01798 0.20106 0.0
N469 N 0.79895 0.09379 0.08715 0.0
C470 C 0.76528 0.0409 0.17796 0.0
C471 C 0.78755 0.07983 0.11937 0.0
N472 N 0.81426 0.04065 0.20789 0.0
N473 N 0.73662 0.09329 0.10292 0.0
H474 H 0.82188 0.09645 0.08234 0.0
H475 H 0.7859 0.10011 0.06347 0.0
H476 H 0.71342 0.09174 0.10579 0.0
H477 H 0.74342 0.11087 0.08491 0.0
H478 H 0.80645 0.02997 0.23291 0.0
H479 H 0.83682 0.04652 0.20941 0.0
H480 H 0.76938 0.00416 0.21711 0.0
H481 H 0.73296 0.01082 0.20123 0.0
C482 C 0.41648 0.78469 0.59913 0.0
C483 C 0.4217 0.80404 0.63116 0.0
C484 C 0.4431 0.762 0.66779 0.0
C485 C 0.43412 0.742 0.63794 0.0
N486 N 0.40827 0.73365 0.57734 0.0
N487 N 0.43553 0.81026 0.69853 0.0
C488 C 0.41988 0.75314 0.60401 0.0
C489 C 0.43397 0.79253 0.66617 0.0
N490 N 0.40917 0.7965 0.56371 0.0
N491 N 0.46115 0.75202 0.69713 0.0
H492 H 0.4285 0.83259 0.699 0.0
H493 H 0.44116 0.80204 0.72592 0.0
H494 H 0.46891 0.72995 0.69882 0.0
H495 H 0.47089 0.76628 0.71748 0.0
H496 H 0.40816 0.78375 0.53838 0.0
H497 H 0.40698 0.81953 0.55883 0.0
H498 H 0.39472 0.74046 0.55437 0.0
H499 H 0.40991 0.71036 0.57995 0.0
C500 C 0.72736 0.42158 0.12373 0.0
C501 C 0.73918 0.43699 0.15635 0.0
C502 C 0.68937 0.43825 0.18644 0.0
C503 C 0.67719 0.42475 0.15264 0.0
N504 N 0.68334 0.40961 0.08577 0.0
N505 N 0.73053 0.46617 0.21436 0.0
C506 C 0.69583 0.4182 0.12025 0.0
C507 C 0.71989 0.44718 0.18641 0.0
N508 N 0.74621 0.40885 0.09703 0.0
N509 N 0.67229 0.44119 0.21928 0.0
H510 H 0.75263 0.47378 0.21482 0.0
H511 H 0.7168 0.47677 0.23468 0.0
H512 H 0.64997 0.43445 0.2209 0.0
H513 H 0.681 0.44774 0.24601 0.0
H514 H 0.73891 0.39448 0.07514 0.0
H515 H 0.76946 0.41046 0.09865 0.0
H516 H 0.69555 0.40758 0.06006 0.0
H517 H 0.66029 0.40736 0.08192 0.0
C518 C 0.04161 0.68718 0.67052 0.0
C519 C 0.06136 0.67728 0.64076 0.0
C520 C 0.06964 0.72942 0.62023 0.0
C521 C 0.04853 0.73913 0.64849 0.0
N522 N 0.00944 0.72696 0.69439 0.0
N523 N 0.08886 0.68801 0.5819 0.0
C524 C 0.03301 0.71789 0.67181 0.0
C525 C 0.07379 0.69814 0.61397 0.0
N526 N 0.03218 0.66761 0.69871 0.0
N527 N 0.08684 0.74997 0.60076 0.0
H528 H 0.09198 0.66522 0.57605 0.0
H529 H 0.09571 0.70199 0.55925 0.0
H530 H 0.08478 0.7731 0.60468 0.0
H531 H 0.10492 0.74404 0.58317 0.0
H532 H 0.02072 0.67437 0.72362 0.0
H533 H 0.03797 0.64493 0.69903 0.0
H534 H -0.00469 0.71206 0.70893 0.0
H535 H 0.00215 0.74921 0.69555 0.0
C536 C 0.26804 0.94612 0.80297 0.0
C537 C 0.24832 0.93584 0.83254 0.0
C538 C 0.29114 0.91688 0.86966 0.0
C539 C 0.31026 0.92359 0.83777 0.0
N540 N 0.31615 0.94032 0.77133 0.0
N541 N 0.24042 0.90748 0.89161 0.0
C542 C 0.29857 0.93721 0.80371 0.0
C543 C 0.25967 0.92029 0.86541 0.0
N544 N 0.2578 0.96519 0.77478 0.0
N545 N 0.30311 0.90813 0.9044 0.0
H546 H 0.2172 0.90912 0.88942 0.0
H547 H 0.24738 0.89302 0.91364 0.0
H548 H 0.3261 0.90584 0.90882 0.0
H549 H 0.29053 0.90597 0.92981 0.0
H550 H 0.27182 0.97586 0.75483 0.0
H551 H 0.23571 0.97277 0.77375 0.0
H552 H 0.30785 0.94695 0.74439 0.0
H553 H 0.33851 0.93365 0.77028 0.0
C554 C 0.5492 0.29663 0.32464 0.0
C555 C 0.56515 0.30711 0.35757 0.0
C556 C 0.56955 0.25548 0.38193 0.0
C557 C 0.55186 0.2453 0.35036 0.0
N558 N 0.51903 0.25693 0.29686 0.0
N559 N 0.58462 0.29767 0.42177 0.0
C560 C 0.53993 0.26613 0.32326 0.0
C561 C 0.57358 0.28686 0.38751 0.0
N562 N 0.54419 0.31534 0.29377 0.0
N563 N 0.58378 0.23525 0.40544 0.0
H564 H 0.58744 0.32055 0.42718 0.0
H565 H 0.58821 0.28422 0.44613 0.0
H566 H 0.5818 0.21206 0.40215 0.0
H567 H 0.59964 0.24142 0.42608 0.0
H568 H 0.53571 0.30796 0.26728 0.0
H569 H 0.551 0.33774 0.29319 0.0
H570 H 0.5073 0.27171 0.27902 0.0
H571 H 0.51119 0.23487 0.29551 0.0
C572 C 0.20379 0.5891 0.87733 0.0
C573 C 0.18435 0.56618 0.86378 0.0
C574 C 0.22754 0.53673 0.84163 0.0
C575 C 0.24699 0.55873 0.85751 0.0
N576 N 0.25391 0.60242 0.89784 0.0
N577 N 0.17762 0.51541 0.84092 0.0
C578 C 0.23518 0.5839 0.8776 0.0
C579 C 0.1962 0.53913 0.84827 0.0
N580 N 0.19245 0.61641 0.8881 0.0
N581 N 0.23875 0.51438 0.81855 0.0
H582 H 0.15457 0.51619 0.84591 0.0
H583 H 0.18535 0.49409 0.83347 0.0
H584 H 0.26151 0.51192 0.8125 0.0
H585 H 0.22528 0.49983 0.80262 0.0
H586 H 0.20582 0.63501 0.89403 0.0
H587 H 0.16964 0.62139 0.88777 0.0
H588 H 0.24631 0.61931 0.91635 0.0
H589 H 0.27701 0.59906 0.89915 0.0
C590 C 0.90857 0.19975 0.37942 0.0
C591 C 0.91669 0.18054 0.34822 0.0
C592 C 0.94077 0.22287 0.3149 0.0
C593 C 0.92911 0.24269 0.34345 0.0
N594 N 0.8981 0.25065 0.40018 0.0
N595 N 0.93647 0.17456 0.28322 0.0
C596 C 0.91212 0.23133 0.37517 0.0
C597 C 0.93186 0.19223 0.31518 0.0
N598 N 0.8983 0.18777 0.41356 0.0
N599 N 0.96107 0.23312 0.28816 0.0
H600 H 0.92985 0.15213 0.28181 0.0
H601 H 0.94436 0.18287 0.25678 0.0
H602 H 0.96865 0.25529 0.28757 0.0
H603 H 0.97263 0.21903 0.26917 0.0
H604 H 0.895 0.20043 0.43866 0.0
H605 H 0.89586 0.1647 0.418 0.0
H606 H 0.8827 0.24365 0.42111 0.0
H607 H 0.89976 0.27395 0.39791 0.0
loop_
_geom_bond_atom_site_label_1
_geom_bond_atom_site_label_2
_geom_bond_distance
_geom_bond_site_symmetry_2
_ccdc_geom_bond_type
O0 Cd1 2.300 . S
O0 C7 1.275 . S
Cd1 O0 2.300 . S
Cd1 O9 2.381 . S
Cd1 O10 2.378 . S
O2 Cd3 2.385 . S
O2 C7 1.255 . S
Cd3 O2 2.385 . S
Cd3 O4 2.317 . S
O4 Cd3 2.317 . S
O4 C5 1.232 . S
C5 O4 1.232 . S
C5 O6 1.218 . S
O6 C5 1.218 . S
C7 O0 1.275 . S
C7 O2 1.255 . S
C8 O9 1.258 . S
C8 O10 1.256 . S
O9 Cd1 2.381 . S
O9 C8 1.258 . S
O10 Cd1 2.378 . S
O10 C8 1.256 . S
O11 Cd12 2.300 . S
O11 C18 1.275 . S
Cd12 O11 2.300 . S
Cd12 O20 2.381 . S
Cd12 O21 2.378 . S
O13 Cd14 2.385 . S
O13 C18 1.255 . S
Cd14 O13 2.385 . S
Cd14 O15 2.317 . S
O15 Cd14 2.317 . S
O15 C16 1.232 . S
C16 O15 1.232 . S
C16 O17 1.218 . S
O17 C16 1.218 . S
C18 O11 1.275 . S
C18 O13 1.255 . S
C19 O20 1.258 . S
C19 O21 1.256 . S
O20 Cd12 2.381 . S
O20 C19 1.258 . S
O21 Cd12 2.378 . S
O21 C19 1.256 . S
O22 Cd23 2.300 . S
O22 C29 1.275 . S
Cd23 O22 2.300 . S
Cd23 O31 2.381 . S
Cd23 O32 2.378 . S
O24 Cd25 2.385 . S
O24 C29 1.255 . S
Cd25 O24 2.385 . S
Cd25 O26 2.317 . S
O26 Cd25 2.317 . S
O26 C27 1.232 . S
C27 O26 1.232 . S
C27 O28 1.218 . S
O28 C27 1.218 . S
C29 O22 1.275 . S
C29 O24 1.255 . S
C30 O31 1.258 . S
C30 O32 1.256 . S
O31 Cd23 2.381 . S
O31 C30 1.258 . S
O32 Cd23 2.378 . S
O32 C30 1.256 . S
O33 Cd34 2.300 . S
O33 C40 1.275 . S
Cd34 O33 2.300 . S
Cd34 O42 2.381 . S
Cd34 O43 2.378 . S
O35 Cd36 2.385 . S
O35 C40 1.255 . S
Cd36 O35 2.385 . S
Cd36 O37 2.317 . S
O37 Cd36 2.317 . S
O37 C38 1.232 . S
C38 O37 1.232 . S
C38 O39 1.218 . S
O39 C38 1.218 . S
C40 O33 1.275 . S
C40 O35 1.255 . S
C41 O42 1.258 . S
C41 O43 1.256 . S
O42 Cd34 2.381 . S
O42 C41 1.258 . S
O43 Cd34 2.378 . S
O43 C41 1.256 . S
O44 Cd45 2.300 . S
O44 C51 1.275 . S
Cd45 O44 2.300 . S
Cd45 O53 2.381 . S
Cd45 O54 2.378 . S
O46 Cd47 2.385 . S
O46 C51 1.255 . S
Cd47 O46 2.385 . S
Cd47 O48 2.317 . S
O48 Cd47 2.317 . S
O48 C49 1.232 . S
C49 O48 1.232 . S
C49 O50 1.218 . S
O50 C49 1.218 . S
C51 O44 1.275 . S
C51 O46 1.255 . S
C52 O53 1.258 . S
C52 O54 1.256 . S
O53 Cd45 2.381 . S
O53 C52 1.258 . S
O54 Cd45 2.378 . S
O54 C52 1.256 . S
O55 Cd56 2.300 . S
O55 C62 1.275 . S
Cd56 O55 2.300 . S
Cd56 O64 2.381 . S
Cd56 O65 2.378 . S
O57 Cd58 2.385 . S
O57 C62 1.255 . S
Cd58 O57 2.385 . S
Cd58 O59 2.317 . S
O59 Cd58 2.317 . S
O59 C60 1.232 . S
C60 O59 1.232 . S
C60 O61 1.218 . S
O61 C60 1.218 . S
C62 O55 1.275 . S
C62 O57 1.255 . S
C63 O64 1.258 . S
C63 O65 1.256 . S
O64 Cd56 2.381 . S
O64 C63 1.258 . S
O65 Cd56 2.378 . S
O65 C63 1.256 . S
O66 Cd67 2.300 . S
O66 C73 1.275 . S
Cd67 O66 2.300 . S
Cd67 O75 2.381 . S
Cd67 O76 2.378 . S
O68 Cd69 2.385 . S
O68 C73 1.255 . S
Cd69 O68 2.385 . S
Cd69 O70 2.317 . S
O70 Cd69 2.317 . S
O70 C71 1.232 . S
C71 O70 1.232 . S
C71 O72 1.218 . S
O72 C71 1.218 . S
C73 O66 1.275 . S
C73 O68 1.255 . S
C74 O75 1.258 . S
C74 O76 1.256 . S
O75 Cd67 2.381 . S
O75 C74 1.258 . S
O76 Cd67 2.378 . S
O76 C74 1.256 . S
O77 Cd78 2.300 . S
O77 C84 1.275 . S
Cd78 O77 2.300 . S
Cd78 O86 2.381 . S
Cd78 O87 2.378 . S
O79 Cd80 2.385 . S
O79 C84 1.255 . S
Cd80 O79 2.385 . S
Cd80 O81 2.317 . S
O81 Cd80 2.317 . S
O81 C82 1.232 . S
C82 O81 1.232 . S
C82 O83 1.218 . S
O83 C82 1.218 . S
C84 O77 1.275 . S
C84 O79 1.255 . S
C85 O86 1.258 . S
C85 O87 1.256 . S
O86 Cd78 2.381 . S
O86 C85 1.258 . S
O87 Cd78 2.378 . S
O87 C85 1.256 . S
O88 Cd89 2.300 . S
O88 C95 1.275 . S
Cd89 O88 2.300 . S
Cd89 O97 2.381 . S
Cd89 O98 2.378 . S
O90 Cd91 2.385 . S
O90 C95 1.255 . S
Cd91 O90 2.385 . S
Cd91 O92 2.317 . S
O92 Cd91 2.317 . S
O92 C93 1.232 . S
C93 O92 1.232 . S
C93 O94 1.218 . S
O94 C93 1.218 . S
C95 O88 1.275 . S
C95 O90 1.255 . S
C96 O97 1.258 . S
C96 O98 1.256 . S
O97 Cd89 2.381 . S
O97 C96 1.258 . S
O98 Cd89 2.378 . S
O98 C96 1.256 . S
O99 Cd100 2.300 . S
O99 C106 1.275 . S
Cd100 O99 2.300 . S
Cd100 O108 2.381 . S
Cd100 O109 2.378 . S
O101 Cd102 2.385 . S
O101 C106 1.255 . S
Cd102 O101 2.385 . S
Cd102 O103 2.317 . S
O103 Cd102 2.317 . S
O103 C104 1.232 . S
C104 O103 1.232 . S
C104 O105 1.218 . S
O105 C104 1.218 . S
C106 O99 1.275 . S
C106 O101 1.255 . S
C107 O108 1.258 . S
C107 O109 1.256 . S
O108 Cd100 2.381 . S
O108 C107 1.258 . S
O109 Cd100 2.378 . S
O109 C107 1.256 . S
O110 Cd111 2.300 . S
O110 C117 1.275 . S
Cd111 O110 2.300 . S
Cd111 O119 2.381 . S
Cd111 O120 2.378 . S
O112 Cd113 2.385 . S
O112 C117 1.255 . S
Cd113 O112 2.385 . S
Cd113 O114 2.317 . S
O114 Cd113 2.317 . S
O114 C115 1.232 . S
C115 O114 1.232 . S
C115 O116 1.218 . S
O116 C115 1.218 . S
C117 O110 1.275 . S
C117 O112 1.255 . S
C118 O119 1.258 . S
C118 O120 1.256 . S
O119 Cd111 2.381 . S
O119 C118 1.258 . S
O120 Cd111 2.378 . S
O120 C118 1.256 . S
O121 Cd122 2.300 . S
O121 C128 1.275 . S
Cd122 O121 2.300 . S
Cd122 O130 2.381 . S
Cd122 O131 2.378 . S
O123 Cd124 2.385 . S
O123 C128 1.255 . S
Cd124 O123 2.385 . S
Cd124 O125 2.317 . S
O125 Cd124 2.317 . S
O125 C126 1.232 . S
C126 O125 1.232 . S
C126 O127 1.218 . S
O127 C126 1.218 . S
C128 O121 1.275 . S
C128 O123 1.255 . S
C129 O130 1.258 . S
C129 O131 1.256 . S
O130 Cd122 2.381 . S
O130 C129 1.258 . S
O131 Cd122 2.378 . S
O131 C129 1.256 . S
O132 Cd133 2.300 . S
O132 C139 1.275 . S
Cd133 O132 2.300 . S
Cd133 O141 2.381 . S
Cd133 O142 2.378 . S
O134 Cd135 2.385 . S
O134 C139 1.255 . S
Cd135 O134 2.385 . S
Cd135 O136 2.317 . S
O136 Cd135 2.317 . S
O136 C137 1.232 . S
C137 O136 1.232 . S
C137 O138 1.218 . S
O138 C137 1.218 . S
C139 O132 1.275 . S
C139 O134 1.255 . S
C140 O141 1.258 . S
C140 O142 1.256 . S
O141 Cd133 2.381 . S
O141 C140 1.258 . S
O142 Cd133 2.378 . S
O142 C140 1.256 . S
O143 Cd144 2.300 . S
O143 C150 1.275 . S
Cd144 O143 2.300 . S
Cd144 O152 2.381 . S
Cd144 O153 2.378 . S
O145 Cd146 2.385 . S
O145 C150 1.255 . S
Cd146 O145 2.385 . S
Cd146 O147 2.317 . S
O147 Cd146 2.317 . S
O147 C148 1.232 . S
C148 O147 1.232 . S
C148 O149 1.218 . S
O149 C148 1.218 . S
C150 O143 1.275 . S
C150 O145 1.255 . S
C151 O152 1.258 . S
C151 O153 1.256 . S
O152 Cd144 2.381 . S
O152 C151 1.258 . S
O153 Cd144 2.378 . S
O153 C151 1.256 . S
O154 Cd155 2.300 . S
O154 C161 1.275 . S
Cd155 O154 2.300 . S
Cd155 O163 2.381 . S
Cd155 O164 2.378 . S
O156 Cd157 2.385 . S
O156 C161 1.255 . S
Cd157 O156 2.385 . S
Cd157 O158 2.317 . S
O158 Cd157 2.317 . S
O158 C159 1.232 . S
C159 O158 1.232 . S
C159 O160 1.218 . S
O160 C159 1.218 . S
C161 O154 1.275 . S
C161 O156 1.255 . S
C162 O163 1.258 . S
C162 O164 1.256 . S
O163 Cd155 2.381 . S
O163 C162 1.258 . S
O164 Cd155 2.378 . S
O164 C162 1.256 . S
O165 Cd166 2.300 . S
O165 C172 1.275 . S
Cd166 O165 2.300 . S
Cd166 O174 2.381 . S
Cd166 O175 2.378 . S
O167 Cd168 2.385 . S
O167 C172 1.255 . S
Cd168 O167 2.385 . S
Cd168 O169 2.317 . S
O169 Cd168 2.317 . S
O169 C170 1.232 . S
C170 O169 1.232 . S
C170 O171 1.218 . S
O171 C170 1.218 . S
C172 O165 1.275 . S
C172 O167 1.255 . S
C173 O174 1.258 . S
C173 O175 1.256 . S
O174 Cd166 2.381 . S
O174 C173 1.258 . S
O175 Cd166 2.378 . S
O175 C173 1.256 . S
C176 C177 1.363 . S
C176 C182 1.379 . S
C176 N184 1.356 . S
C177 C176 1.363 . S
C177 C183 1.363 1_566 S
C178 C179 1.363 . S
C178 C183 1.379 . S
C178 N185 1.356 . S
C179 C178 1.363 . S
C179 C182 1.363 1_544 S
N180 C182 1.357 1_545 S
N180 H192 0.988 1_545 S
N180 H193 0.980 1_556 S
N181 C183 1.357 1_565 S
N181 H186 0.980 1_554 S
N181 H187 0.988 1_565 S
C182 C176 1.379 . S
C182 C179 1.363 1_566 S
C182 N180 1.357 1_565 S
C183 C177 1.363 1_544 S
C183 C178 1.379 . S
C183 N181 1.357 1_545 S
N184 C176 1.356 . S
N184 H190 0.984 . S
N184 H191 0.984 . S
N185 C178 1.356 . S
N185 H188 0.984 . S
N185 H189 0.985 . S
H186 N181 0.980 1_556 S
H187 N181 0.988 1_545 S
H188 N185 0.984 . S
H189 N185 0.985 . S
H190 N184 0.984 . S
H191 N184 0.984 . S
H192 N180 0.988 1_565 S
H193 N180 0.980 1_554 S
C194 C195 1.363 . S
C194 C200 1.379 . S
C194 N202 1.356 . S
C195 C194 1.363 . S
C195 C201 1.363 . S
C196 C197 1.363 . S
C196 C201 1.379 . S
C196 N203 1.356 . S
C197 C196 1.363 . S
C197 C200 1.363 . S
N198 C200 1.356 . S
N198 H210 0.984 . S
N198 H211 0.985 . S
N199 C201 1.356 . S
N199 H204 0.984 . S
N199 H205 0.985 . S
C200 C194 1.379 . S
C200 C197 1.363 . S
C200 N198 1.356 . S
C201 C195 1.363 . S
C201 C196 1.379 . S
C201 N199 1.356 . S
N202 C194 1.356 . S
N202 H208 0.984 . S
N202 H209 0.984 . S
N203 C196 1.356 . S
N203 H206 0.984 . S
N203 H207 0.985 . S
H204 N199 0.984 . S
H205 N199 0.985 . S
H206 N203 0.984 . S
H207 N203 0.985 . S
H208 N202 0.984 . S
H209 N202 0.984 . S
H210 N198 0.984 . S
H211 N198 0.985 . S
C212 C213 1.363 1_554 S
C212 C218 1.379 . S
C212 N220 1.356 . S
C213 C212 1.363 1_556 S
C213 C219 1.363 1_455 S
C214 C215 1.363 1_556 S
C214 C219 1.379 . S
C214 N221 1.356 . S
C215 C214 1.363 1_554 S
C215 C218 1.363 1_655 S
N216 C218 1.356 . S
N216 H228 0.984 . S
N216 H229 0.985 1_455 S
N217 C219 1.356 . S
N217 H222 0.984 1_655 S
N217 H223 0.985 . S
C218 C212 1.379 . S
C218 C215 1.363 1_455 S
C218 N216 1.356 . S
C219 C213 1.363 1_655 S
C219 C214 1.379 . S
C219 N217 1.356 . S
N220 C212 1.356 . S
N220 H226 0.984 . S
N220 H227 0.984 . S
N221 C214 1.356 . S
N221 H224 0.984 . S
N221 H225 0.985 . S
H222 N217 0.984 1_455 S
H223 N217 0.985 . S
H224 N221 0.984 . S
H225 N221 0.985 . S
H226 N220 0.984 . S
H227 N220 0.984 . S
H228 N216 0.984 . S
H229 N216 0.985 1_655 S
C230 C231 1.363 . S
C230 C236 1.379 1_465 S
C230 N238 1.356 . S
C231 C230 1.363 . S
C231 C237 1.363 . S
C232 C233 1.363 . S
C232 C237 1.379 1_645 S
C232 N239 1.356 . S
C233 C232 1.363 . S
C233 C236 1.363 . S
N234 C236 1.356 . S
N234 H246 0.984 . S
N234 H247 0.985 . S
N235 C237 1.356 . S
N235 H240 0.984 . S
N235 H241 0.985 . S
C236 C230 1.379 1_645 S
C236 C233 1.363 . S
C236 N234 1.356 . S
C237 C231 1.363 . S
C237 C232 1.379 1_465 S
C237 N235 1.356 . S
N238 C230 1.356 . S
N238 H244 0.984 1_455 S
N238 H245 0.984 . S
N239 C232 1.356 . S
N239 H242 0.984 . S
N239 H243 0.985 1_655 S
H240 N235 0.984 . S
H241 N235 0.985 . S
H242 N239 0.984 . S
H243 N239 0.985 1_455 S
H244 N238 0.984 1_655 S
H245 N238 0.984 . S
H246 N234 0.984 . S
H247 N234 0.985 . S
C248 C249 1.363 1_545 S
C248 C254 1.379 1_556 S
C248 N256 1.356 . S
C249 C248 1.363 1_565 S
C249 C255 1.363 1_455 S
C250 C251 1.363 1_565 S
C250 C255 1.379 1_554 S
C250 N257 1.356 . S
C251 C250 1.363 1_545 S
C251 C254 1.363 1_655 S
N252 C254 1.356 . S
N252 H264 0.984 . S
N252 H265 0.985 1_455 S
N253 C255 1.356 . S
N253 H258 0.984 1_655 S
N253 H259 0.985 . S
C254 C248 1.379 1_554 S
C254 C251 1.363 1_455 S
C254 N252 1.356 . S
C255 C249 1.363 1_655 S
C255 C250 1.379 1_556 S
C255 N253 1.356 . S
N256 C248 1.356 . S
N256 H262 0.984 . S
N256 H263 0.984 1_545 S
N257 C250 1.356 . S
N257 H260 0.984 1_565 S
N257 H261 0.985 . S
H258 N253 0.984 1_455 S
H259 N253 0.985 . S
H260 N257 0.984 1_545 S
H261 N257 0.985 . S
H262 N256 0.984 . S
H263 N256 0.984 1_565 S
H264 N252 0.984 . S
H265 N252 0.985 1_655 S
C266 C267 1.363 . S
C266 C272 1.379 . S
C266 N274 1.356 . S
C267 C266 1.363 . S
C267 C273 1.363 1_565 S
C268 C269 1.363 . S
C268 C273 1.379 . S
C268 N275 1.356 . S
C269 C268 1.363 . S
C269 C272 1.363 1_545 S
N270 C272 1.356 . S
N270 H282 0.984 . S
N270 H283 0.985 1_565 S
N271 C273 1.356 . S
N271 H276 0.984 1_545 S
N271 H277 0.985 . S
C272 C266 1.379 . S
C272 C269 1.363 1_565 S
C272 N270 1.356 . S
C273 C267 1.363 1_545 S
C273 C268 1.379 . S
C273 N271 1.356 . S
N274 C266 1.356 . S
N274 H280 0.984 . S
N274 H281 0.984 . S
N275 C268 1.356 . S
N275 H278 0.984 . S
N275 H279 0.985 . S
H276 N271 0.984 1_565 S
H277 N271 0.985 . S
H278 N275 0.984 . S
H279 N275 0.985 . S
H280 N274 0.984 . S
H281 N274 0.984 . S
H282 N270 0.984 . S
H283 N270 0.985 1_545 S
C284 C285 1.363 1_556 S
C284 C290 1.379 . S
C284 N292 1.356 . S
C285 C284 1.363 1_554 S
C285 C291 1.363 . S
C286 C287 1.363 1_554 S
C286 C291 1.379 . S
C286 N293 1.356 . S
C287 C286 1.363 1_556 S
C287 C290 1.363 . S
N288 C290 1.356 . S
N288 H300 0.984 . S
N288 H301 0.985 . S
N289 C291 1.356 . S
N289 H294 0.984 . S
N289 H295 0.985 . S
C290 C284 1.379 . S
C290 C287 1.363 . S
C290 N288 1.356 . S
C291 C285 1.363 . S
C291 C286 1.379 . S
C291 N289 1.356 . S
N292 C284 1.356 . S
N292 H298 0.984 . S
N292 H299 0.984 . S
N293 C286 1.356 . S
N293 H296 0.984 . S
N293 H297 0.985 . S
H294 N289 0.984 . S
H295 N289 0.985 . S
H296 N293 0.984 . S
H297 N293 0.985 . S
H298 N292 0.984 . S
H299 N292 0.984 . S
H300 N288 0.984 . S
H301 N288 0.985 . S
C302 C303 1.363 . S
C302 C308 1.379 . S
C302 N310 1.356 . S
C303 C302 1.363 . S
C303 C309 1.363 1_455 S
C304 C305 1.363 . S
C304 C309 1.379 . S
C304 N311 1.356 . S
C305 C304 1.363 . S
C305 C308 1.363 1_655 S
N306 C308 1.356 1_655 S
N306 H318 0.984 1_655 S
N306 H319 0.985 . S
N307 C309 1.356 1_455 S
N307 H312 0.984 . S
N307 H313 0.985 1_455 S
C308 C302 1.379 . S
C308 C305 1.363 1_455 S
C308 N306 1.356 1_455 S
C309 C303 1.363 1_655 S
C309 C304 1.379 . S
C309 N307 1.356 1_655 S
N310 C302 1.356 . S
N310 H316 0.984 . S
N310 H317 0.984 . S
N311 C304 1.356 . S
N311 H314 0.984 . S
N311 H315 0.985 . S
H312 N307 0.984 . S
H313 N307 0.985 1_655 S
H314 N311 0.984 . S
H315 N311 0.985 . S
H316 N310 0.984 . S
H317 N310 0.984 . S
H318 N306 0.984 1_455 S
H319 N306 0.985 . S
C320 C321 1.363 . S
C320 C326 1.379 . S
C320 N328 1.356 . S
C321 C320 1.363 . S
C321 C327 1.363 . S
C322 C323 1.363 . S
C322 C327 1.379 . S
C322 N329 1.356 . S
C323 C322 1.363 . S
C323 C326 1.363 . S
N324 C326 1.356 . S
N324 H336 0.984 . S
N324 H337 0.985 . S
N325 C327 1.356 . S
N325 H330 0.984 . S
N325 H331 0.985 . S
C326 C320 1.379 . S
C326 C323 1.363 . S
C326 N324 1.356 . S
C327 C321 1.363 . S
C327 C322 1.379 . S
C327 N325 1.356 . S
N328 C320 1.356 . S
N328 H334 0.984 . S
N328 H335 0.984 . S
N329 C322 1.356 . S
N329 H332 0.984 . S
N329 H333 0.985 . S
H330 N325 0.984 . S
H331 N325 0.985 . S
H332 N329 0.984 . S
H333 N329 0.985 . S
H334 N328 0.984 . S
H335 N328 0.984 . S
H336 N324 0.984 . S
H337 N324 0.985 . S
C338 C339 1.363 . S
C338 C344 1.379 . S
C338 N346 1.356 . S
C339 C338 1.363 . S
C339 C345 1.363 . S
C340 C341 1.363 . S
C340 C345 1.379 . S
C340 N347 1.356 . S
C341 C340 1.363 . S
C341 C344 1.363 . S
N342 C344 1.356 . S
N342 H354 0.984 . S
N342 H355 0.985 . S
N343 C345 1.356 . S
N343 H348 0.984 . S
N343 H349 0.985 . S
C344 C338 1.379 . S
C344 C341 1.363 . S
C344 N342 1.356 . S
C345 C339 1.363 . S
C345 C340 1.379 . S
C345 N343 1.356 . S
N346 C338 1.356 . S
N346 H352 0.984 . S
N346 H353 0.984 . S
N347 C340 1.356 . S
N347 H350 0.984 . S
N347 H351 0.985 . S
H348 N343 0.984 . S
H349 N343 0.985 . S
H350 N347 0.984 . S
H351 N347 0.985 . S
H352 N346 0.984 . S
H353 N346 0.984 . S
H354 N342 0.984 . S
H355 N342 0.985 . S
C356 C357 1.363 . S
C356 C362 1.379 . S
C356 N364 1.356 . S
C357 C356 1.363 . S
C357 C363 1.363 . S
C358 C359 1.363 . S
C358 C363 1.379 . S
C358 N365 1.356 . S
C359 C358 1.363 . S
C359 C362 1.363 . S
N360 C362 1.356 . S
N360 H372 0.984 . S
N360 H373 0.985 . S
N361 C363 1.356 . S
N361 H366 0.984 . S
N361 H367 0.985 . S
C362 C356 1.379 . S
C362 C359 1.363 . S
C362 N360 1.356 . S
C363 C357 1.363 . S
C363 C358 1.379 . S
C363 N361 1.356 . S
N364 C356 1.356 . S
N364 H370 0.984 . S
N364 H371 0.984 . S
N365 C358 1.356 . S
N365 H368 0.984 . S
N365 H369 0.985 . S
H366 N361 0.984 . S
H367 N361 0.985 . S
H368 N365 0.984 . S
H369 N365 0.985 . S
H370 N364 0.984 . S
H371 N364 0.984 . S
H372 N360 0.984 . S
H373 N360 0.985 . S
C374 C375 1.363 . S
C374 C380 1.379 . S
C374 N382 1.356 . S
C375 C374 1.363 . S
C375 C381 1.363 . S
C376 C377 1.363 . S
C376 C381 1.379 . S
C376 N383 1.356 . S
C377 C376 1.363 . S
C377 C380 1.363 . S
N378 C380 1.356 . S
N378 H390 0.984 . S
N378 H391 0.985 . S
N379 C381 1.356 . S
N379 H384 0.984 . S
N379 H385 0.985 . S
C380 C374 1.379 . S
C380 C377 1.363 . S
C380 N378 1.356 . S
C381 C375 1.363 . S
C381 C376 1.379 . S
C381 N379 1.356 . S
N382 C374 1.356 . S
N382 H388 0.984 . S
N382 H389 0.984 . S
N383 C376 1.356 . S
N383 H386 0.984 . S
N383 H387 0.985 . S
H384 N379 0.984 . S
H385 N379 0.985 . S
H386 N383 0.984 . S
H387 N383 0.985 . S
H388 N382 0.984 . S
H389 N382 0.984 . S
H390 N378 0.984 . S
H391 N378 0.985 . S
C392 C393 1.363 . S
C392 C398 1.379 . S
C392 N400 1.356 . S
C393 C392 1.363 . S
C393 C399 1.363 . S
C394 C395 1.363 . S
C394 C399 1.379 . S
C394 N401 1.356 . S
C395 C394 1.363 . S
C395 C398 1.363 . S
N396 C398 1.356 . S
N396 H408 0.984 . S
N396 H409 0.985 . S
N397 C399 1.356 . S
N397 H402 0.984 . S
N397 H403 0.985 . S
C398 C392 1.379 . S
C398 C395 1.363 . S
C398 N396 1.356 . S
C399 C393 1.363 . S
C399 C394 1.379 . S
C399 N397 1.356 . S
N400 C392 1.356 . S
N400 H406 0.984 . S
N400 H407 0.984 . S
N401 C394 1.356 . S
N401 H404 0.984 . S
N401 H405 0.985 . S
H402 N397 0.984 . S
H403 N397 0.985 . S
H404 N401 0.984 . S
H405 N401 0.985 . S
H406 N400 0.984 . S
H407 N400 0.984 . S
H408 N396 0.984 . S
H409 N396 0.985 . S
C410 C411 1.363 . S
C410 C416 1.379 . S
C410 N418 1.356 . S
C411 C410 1.363 . S
C411 C417 1.363 . S
C412 C413 1.363 . S
C412 C417 1.379 . S
C412 N419 1.356 . S
C413 C412 1.363 . S
C413 C416 1.363 . S
N414 C416 1.356 . S
N414 H426 0.984 . S
N414 H427 0.985 . S
N415 C417 1.356 . S
N415 H420 0.984 . S
N415 H421 0.985 . S
C416 C410 1.379 . S
C416 C413 1.363 . S
C416 N414 1.356 . S
C417 C411 1.363 . S
C417 C412 1.379 . S
C417 N415 1.356 . S
N418 C410 1.356 . S
N418 H424 0.984 . S
N418 H425 0.984 . S
N419 C412 1.356 . S
N419 H422 0.984 . S
N419 H423 0.985 . S
H420 N415 0.984 . S
H421 N415 0.985 . S
H422 N419 0.984 . S
H423 N419 0.985 . S
H424 N418 0.984 . S
H425 N418 0.984 . S
H426 N414 0.984 . S
H427 N414 0.985 . S
C428 C429 1.363 . S
C428 C434 1.379 . S
C428 N436 1.356 . S
C429 C428 1.363 . S
C429 C435 1.363 . S
C430 C431 1.363 . S
C430 C435 1.379 . S
C430 N437 1.356 . S
C431 C430 1.363 . S
C431 C434 1.363 . S
N432 C434 1.356 . S
N432 H444 0.984 . S
N432 H445 0.985 . S
N433 C435 1.356 . S
N433 H438 0.984 . S
N433 H439 0.985 . S
C434 C428 1.379 . S
C434 C431 1.363 . S
C434 N432 1.356 . S
C435 C429 1.363 . S
C435 C430 1.379 . S
C435 N433 1.356 . S
N436 C428 1.356 . S
N436 H442 0.984 . S
N436 H443 0.984 . S
N437 C430 1.356 . S
N437 H440 0.984 . S
N437 H441 0.985 . S
H438 N433 0.984 . S
H439 N433 0.985 . S
H440 N437 0.984 . S
H441 N437 0.985 . S
H442 N436 0.984 . S
H443 N436 0.984 . S
H444 N432 0.984 . S
H445 N432 0.985 . S
C446 C447 1.363 . S
C446 C452 1.379 . S
C446 N454 1.356 . S
C447 C446 1.363 . S
C447 C453 1.363 . S
C448 C449 1.363 . S
C448 C453 1.379 . S
C448 N455 1.356 . S
C449 C448 1.363 . S
C449 C452 1.363 . S
N450 C452 1.356 . S
N450 H462 0.984 . S
N450 H463 0.985 . S
N451 C453 1.356 . S
N451 H456 0.984 . S
N451 H457 0.985 . S
C452 C446 1.379 . S
C452 C449 1.363 . S
C452 N450 1.356 . S
C453 C447 1.363 . S
C453 C448 1.379 . S
C453 N451 1.356 . S
N454 C446 1.356 . S
N454 H460 0.984 . S
N454 H461 0.984 . S
N455 C448 1.356 . S
N455 H458 0.984 . S
N455 H459 0.985 . S
H456 N451 0.984 . S
H457 N451 0.985 . S
H458 N455 0.984 . S
H459 N455 0.985 . S
H460 N454 0.984 . S
H461 N454 0.984 . S
H462 N450 0.984 . S
H463 N450 0.985 . S
C464 C465 1.363 . S
C464 C470 1.379 . S
C464 N472 1.356 . S
C465 C464 1.363 . S
C465 C471 1.363 . S
C466 C467 1.363 . S
C466 C471 1.379 . S
C466 N473 1.356 . S
C467 C466 1.363 . S
C467 C470 1.363 . S
N468 C470 1.356 . S
N468 H480 0.984 . S
N468 H481 0.985 . S
N469 C471 1.356 . S
N469 H474 0.984 . S
N469 H475 0.985 . S
C470 C464 1.379 . S
C470 C467 1.363 . S
C470 N468 1.356 . S
C471 C465 1.363 . S
C471 C466 1.379 . S
C471 N469 1.356 . S
N472 C464 1.356 . S
N472 H478 0.984 . S
N472 H479 0.984 . S
N473 C466 1.356 . S
N473 H476 0.984 . S
N473 H477 0.985 . S
H474 N469 0.984 . S
H475 N469 0.985 . S
H476 N473 0.984 . S
H477 N473 0.985 . S
H478 N472 0.984 . S
H479 N472 0.984 . S
H480 N468 0.984 . S
H481 N468 0.985 . S
C482 C483 1.363 . S
C482 C488 1.379 . S
C482 N490 1.356 . S
C483 C482 1.363 . S
C483 C489 1.363 . S
C484 C485 1.363 . S
C484 C489 1.379 . S
C484 N491 1.356 . S
C485 C484 1.363 . S
C485 C488 1.363 . S
N486 C488 1.356 . S
N486 H498 0.984 . S
N486 H499 0.985 . S
N487 C489 1.356 . S
N487 H492 0.984 . S
N487 H493 0.985 . S
C488 C482 1.379 . S
C488 C485 1.363 . S
C488 N486 1.356 . S
C489 C483 1.363 . S
C489 C484 1.379 . S
C489 N487 1.356 . S
N490 C482 1.356 . S
N490 H496 0.984 . S
N490 H497 0.984 . S
N491 C484 1.356 . S
N491 H494 0.984 . S
N491 H495 0.985 . S
H492 N487 0.984 . S
H493 N487 0.985 . S
H494 N491 0.984 . S
H495 N491 0.985 . S
H496 N490 0.984 . S
H497 N490 0.984 . S
H498 N486 0.984 . S
H499 N486 0.985 . S
C500 C501 1.363 . S
C500 C506 1.379 . S
C500 N508 1.356 . S
C501 C500 1.363 . S
C501 C507 1.363 . S
C502 C503 1.363 . S
C502 C507 1.379 . S
C502 N509 1.356 . S
C503 C502 1.363 . S
C503 C506 1.363 . S
N504 C506 1.356 . S
N504 H516 0.984 . S
N504 H517 0.985 . S
N505 C507 1.356 . S
N505 H510 0.984 . S
N505 H511 0.985 . S
C506 C500 1.379 . S
C506 C503 1.363 . S
C506 N504 1.356 . S
C507 C501 1.363 . S
C507 C502 1.379 . S
C507 N505 1.356 . S
N508 C500 1.356 . S
N508 H514 0.984 . S
N508 H515 0.984 . S
N509 C502 1.356 . S
N509 H512 0.984 . S
N509 H513 0.985 . S
H510 N505 0.984 . S
H511 N505 0.985 . S
H512 N509 0.984 . S
H513 N509 0.985 . S
H514 N508 0.984 . S
H515 N508 0.984 . S
H516 N504 0.984 . S
H517 N504 0.985 . S
C518 C519 1.363 . S
C518 C524 1.379 . S
C518 N526 1.356 . S
C519 C518 1.363 . S
C519 C525 1.363 . S
C520 C521 1.363 . S
C520 C525 1.379 . S
C520 N527 1.356 . S
C521 C520 1.363 . S
C521 C524 1.363 . S
N522 C524 1.356 . S
N522 H534 0.984 . S
N522 H535 0.985 . S
N523 C525 1.356 . S
N523 H528 0.984 . S
N523 H529 0.985 . S
C524 C518 1.379 . S
C524 C521 1.363 . S
C524 N522 1.356 . S
C525 C519 1.363 . S
C525 C520 1.379 . S
C525 N523 1.356 . S
N526 C518 1.356 . S
N526 H532 0.984 . S
N526 H533 0.984 . S
N527 C520 1.356 . S
N527 H530 0.984 . S
N527 H531 0.985 . S
H528 N523 0.984 . S
H529 N523 0.985 . S
H530 N527 0.984 . S
H531 N527 0.985 . S
H532 N526 0.984 . S
H533 N526 0.984 . S
H534 N522 0.984 . S
H535 N522 0.985 . S
C536 C537 1.363 . S
C536 C542 1.379 . S
C536 N544 1.356 . S
C537 C536 1.363 . S
C537 C543 1.363 . S
C538 C539 1.363 . S
C538 C543 1.379 . S
C538 N545 1.356 . S
C539 C538 1.363 . S
C539 C542 1.363 . S
N540 C542 1.356 . S
N540 H552 0.984 . S
N540 H553 0.985 . S
N541 C543 1.356 . S
N541 H546 0.984 . S
N541 H547 0.985 . S
C542 C536 1.379 . S
C542 C539 1.363 . S
C542 N540 1.356 . S
C543 C537 1.363 . S
C543 C538 1.379 . S
C543 N541 1.356 . S
N544 C536 1.356 . S
N544 H550 0.984 . S
N544 H551 0.984 . S
N545 C538 1.356 . S
N545 H548 0.984 . S
N545 H549 0.985 . S
H546 N541 0.984 . S
H547 N541 0.985 . S
H548 N545 0.984 . S
H549 N545 0.985 . S
H550 N544 0.984 . S
H551 N544 0.984 . S
H552 N540 0.984 . S
H553 N540 0.985 . S
C554 C555 1.363 . S
C554 C560 1.379 . S
C554 N562 1.356 . S
C555 C554 1.363 . S
C555 C561 1.363 . S
C556 C557 1.363 . S
C556 C561 1.379 . S
C556 N563 1.356 . S
C557 C556 1.363 . S
C557 C560 1.363 . S
N558 C560 1.356 . S
N558 H570 0.984 . S
N558 H571 0.985 . S
N559 C561 1.356 . S
N559 H564 0.984 . S
N559 H565 0.985 . S
C560 C554 1.379 . S
C560 C557 1.363 . S
C560 N558 1.356 . S
C561 C555 1.363 . S
C561 C556 1.379 . S
C561 N559 1.356 . S
N562 C554 1.356 . S
N562 H568 0.984 . S
N562 H569 0.984 . S
N563 C556 1.356 . S
N563 H566 0.984 . S
N563 H567 0.985 . S
H564 N559 0.984 . S
H565 N559 0.985 . S
H566 N563 0.984 . S
H567 N563 0.985 . S
H568 N562 0.984 . S
H569 N562 0.984 . S
H570 N558 0.984 . S
H571 N558 0.985 . S
C572 C573 1.363 . S
C572 C578 1.379 . S
C572 N580 1.356 . S
C573 C572 1.363 . S
C573 C579 1.363 . S
C574 C575 1.363 . S
C574 C579 1.379 . S
C574 N581 1.356 . S
C575 C574 1.363 . S
C575 C578 1.363 . S
N576 C578 1.356 . S
N576 H588 0.984 . S
N576 H589 0.985 . S
N577 C579 1.356 . S
N577 H582 0.984 . S
N577 H583 0.985 . S
C578 C572 1.379 . S
C578 C575 1.363 . S
C578 N576 1.356 . S
C579 C573 1.363 . S
C579 C574 1.379 . S
C579 N577 1.356 . S
N580 C572 1.356 . S
N580 H586 0.984 . S
N580 H587 0.984 . S
N581 C574 1.356 . S
N581 H584 0.984 . S
N581 H585 0.985 . S
H582 N577 0.984 . S
H583 N577 0.985 . S
H584 N581 0.984 . S
H585 N581 0.985 . S
H586 N580 0.984 . S
H587 N580 0.984 . S
H588 N576 0.984 . S
H589 N576 0.985 . S
C590 C591 1.363 . S
C590 C596 1.379 . S
C590 N598 1.356 . S
C591 C590 1.363 . S
C591 C597 1.363 . S
C592 C593 1.363 . S
C592 C597 1.379 . S
C592 N599 1.356 . S
C593 C592 1.363 . S
C593 C596 1.363 . S
N594 C596 1.356 . S
N594 H606 0.984 . S
N594 H607 0.985 . S
N595 C597 1.356 . S
N595 H600 0.984 . S
N595 H601 0.985 . S
C596 C590 1.379 . S
C596 C593 1.363 . S
C596 N594 1.356 . S
C597 C591 1.363 . S
C597 C592 1.379 . S
C597 N595 1.356 . S
N598 C590 1.356 . S
N598 H604 0.984 . S
N598 H605 0.984 . S
N599 C592 1.356 . S
N599 H602 0.984 . S
N599 H603 0.985 . S
H600 N595 0.984 . S
H601 N595 0.985 . S
H602 N599 0.984 . S
H603 N599 0.985 . S
H604 N598 0.984 . S
H605 N598 0.984 . S
H606 N594 0.984 . S
H607 N594 0.985 . S
C177 C96 1.619 . S
C179 C8 1.692 . S
C195 C19 1.692 . S
C197 C107 1.619 . S
C213 C118 1.619 . S
C215 C30 1.692 . S
C231 C41 1.692 . S
C233 C129 1.619 . S
C249 C52 1.692 . S
C251 C140 1.619 . S
C267 C151 1.619 . S
C269 C63 1.692 . S
C285 C162 1.619 . S
C287 C74 1.692 . S
C303 C173 1.619 . S
C305 C85 1.692 . S
C321 C7 1.622 . S
C323 C62 1.622 . S
C339 C73 1.622 . S
C341 C18 1.622 . S
C357 C84 1.622 . S
C359 C29 1.622 . S
C375 C40 1.622 . S
C377 C51 1.622 . S
C393 C95 1.532 . S
C395 C150 1.532 . S
C411 C161 1.532 . S
C413 C106 1.532 . S
C429 C117 1.532 . S
C431 C172 1.532 . S
C447 C139 1.532 . S
C449 C128 1.532 . S
C465 C137 1.346 . S
C467 C5 1.462 . S
C483 C148 1.346 . S
C485 C16 1.462 . S
C501 C27 1.461 . S
C503 C159 1.346 . S
C519 C170 1.346 . S
C521 C38 1.462 . S
C537 C49 1.462 . S
C539 C93 1.346 . S
C555 C104 1.346 . S
C557 C60 1.461 . S
C573 C115 1.346 . S
C575 C71 1.461 . S
C591 C126 1.346 . S
C593 C82 1.462 . S
