# Generated by pormake.
# Topology svb, (7)-cn, num edge types: 1
# Building blocks:
#     Node 0, Type 0, BuildingBlock: HICVOG_clean_sbu_0, # of connection points: 7
#     Node 1, Type 0, BuildingBlock: HICVOG_clean_sbu_0, # of connection points: 7
#     Node 2, Type 0, BuildingBlock: HICVOG_clean_sbu_0, # of connection points: 7
#     Node 3, Type 0, BuildingBlock: HICVOG_clean_sbu_0, # of connection points: 7
#     Node 4, Type 0, BuildingBlock: HICVOG_clean_sbu_0, # of connection points: 7
#     Node 5, Type 0, BuildingBlock: HICVOG_clean_sbu_0, # of connection points: 7
#     Node 6, Type 0, BuildingBlock: HICVOG_clean_sbu_0, # of connection points: 7
#     Node 7, Type 0, BuildingBlock: HICVOG_clean_sbu_0, # of connection points: 7
#     Node 8, Type 0, BuildingBlock: HICVOG_clean_sbu_0, # of connection points: 7
#     Node 9, Type 0, BuildingBlock: HICVOG_clean_sbu_0, # of connection points: 7
#     Node 10, Type 0, BuildingBlock: HICVOG_clean_sbu_0, # of connection points: 7
#     Node 11, Type 0, BuildingBlock: HICVOG_clean_sbu_0, # of connection points: 7
#     Node 12, Type 0, BuildingBlock: HICVOG_clean_sbu_0, # of connection points: 7
#     Node 13, Type 0, BuildingBlock: HICVOG_clean_sbu_0, # of connection points: 7
#     Node 14, Type 0, BuildingBlock: HICVOG_clean_sbu_0, # of connection points: 7
#     Node 15, Type 0, BuildingBlock: HICVOG_clean_sbu_0, # of connection points: 7
#     Edge 16, Type (0, 0), BuildingBlock: UVAHIK_clean_linker_0, # of connection points: 2
#     Edge 17, Type (0, 0), BuildingBlock: UVAHIK_clean_linker_0, # of connection points: 2
#     Edge 18, Type (0, 0), BuildingBlock: UVAHIK_clean_linker_0, # of connection points: 2
#     Edge 19, Type (0, 0), BuildingBlock: UVAHIK_clean_linker_0, # of connection points: 2
#     Edge 20, Type (0, 0), BuildingBlock: UVAHIK_clean_linker_0, # of connection points: 2
#     Edge 21, Type (0, 0), BuildingBlock: UVAHIK_clean_linker_0, # of connection points: 2
#     Edge 22, Type (0, 0), BuildingBlock: UVAHIK_clean_linker_0, # of connection points: 2
#     Edge 23, Type (0, 0), BuildingBlock: UVAHIK_clean_linker_0, # of connection points: 2
#     Edge 24, Type (0, 0), BuildingBlock: UVAHIK_clean_linker_0, # of connection points: 2
#     Edge 25, Type (0, 0), BuildingBlock: UVAHIK_clean_linker_0, # of connection points: 2
#     Edge 26, Type (0, 0), BuildingBlock: UVAHIK_clean_linker_0, # of connection points: 2
#     Edge 27, Type (0, 0), BuildingBlock: UVAHIK_clean_linker_0, # of connection points: 2
#     Edge 28, Type (0, 0), BuildingBlock: UVAHIK_clean_linker_0, # of connection points: 2
#     Edge 29, Type (0, 0), BuildingBlock: UVAHIK_clean_linker_0, # of connection points: 2
#     Edge 30, Type (0, 0), BuildingBlock: UVAHIK_clean_linker_0, # of connection points: 2
#     Edge 31, Type (0, 0), BuildingBlock: UVAHIK_clean_linker_0, # of connection points: 2
#     Edge 32, Type (0, 0), BuildingBlock: UVAHIK_clean_linker_0, # of connection points: 2
#     Edge 33, Type (0, 0), BuildingBlock: UVAHIK_clean_linker_0, # of connection points: 2
#     Edge 34, Type (0, 0), BuildingBlock: UVAHIK_clean_linker_0, # of connection points: 2
#     Edge 35, Type (0, 0), BuildingBlock: UVAHIK_clean_linker_0, # of connection points: 2
#     Edge 36, Type (0, 0), BuildingBlock: UVAHIK_clean_linker_0, # of connection points: 2
#     Edge 37, Type (0, 0), BuildingBlock: UVAHIK_clean_linker_0, # of connection points: 2
#     Edge 38, Type (0, 0), BuildingBlock: UVAHIK_clean_linker_0, # of connection points: 2
#     Edge 39, Type (0, 0), BuildingBlock: UVAHIK_clean_linker_0, # of connection points: 2
#     Edge 40, Type (0, 0), BuildingBlock: UVAHIK_clean_linker_0, # of connection points: 2
#     Edge 41, Type (0, 0), BuildingBlock: UVAHIK_clean_linker_0, # of connection points: 2
#     Edge 42, Type (0, 0), BuildingBlock: UVAHIK_clean_linker_0, # of connection points: 2
#     Edge 43, Type (0, 0), BuildingBlock: UVAHIK_clean_linker_0, # of connection points: 2
#     Edge 44, Type (0, 0), BuildingBlock: UVAHIK_clean_linker_0, # of connection points: 2
#     Edge 45, Type (0, 0), BuildingBlock: UVAHIK_clean_linker_0, # of connection points: 2
#     Edge 46, Type (0, 0), BuildingBlock: UVAHIK_clean_linker_0, # of connection points: 2
#     Edge 47, Type (0, 0), BuildingBlock: UVAHIK_clean_linker_0, # of connection points: 2
#     Edge 48, Type (0, 0), BuildingBlock: UVAHIK_clean_linker_0, # of connection points: 2
#     Edge 49, Type (0, 0), BuildingBlock: UVAHIK_clean_linker_0, # of connection points: 2
#     Edge 50, Type (0, 0), BuildingBlock: UVAHIK_clean_linker_0, # of connection points: 2
#     Edge 51, Type (0, 0), BuildingBlock: UVAHIK_clean_linker_0, # of connection points: 2
#     Edge 52, Type (0, 0), BuildingBlock: UVAHIK_clean_linker_0, # of connection points: 2
#     Edge 53, Type (0, 0), BuildingBlock: UVAHIK_clean_linker_0, # of connection points: 2
#     Edge 54, Type (0, 0), BuildingBlock: UVAHIK_clean_linker_0, # of connection points: 2
#     Edge 55, Type (0, 0), BuildingBlock: UVAHIK_clean_linker_0, # of connection points: 2
#     Edge 56, Type (0, 0), BuildingBlock: UVAHIK_clean_linker_0, # of connection points: 2
#     Edge 57, Type (0, 0), BuildingBlock: UVAHIK_clean_linker_0, # of connection points: 2
#     Edge 58, Type (0, 0), BuildingBlock: UVAHIK_clean_linker_0, # of connection points: 2
#     Edge 59, Type (0, 0), BuildingBlock: UVAHIK_clean_linker_0, # of connection points: 2
#     Edge 60, Type (0, 0), BuildingBlock: UVAHIK_clean_linker_0, # of connection points: 2
#     Edge 61, Type (0, 0), BuildingBlock: UVAHIK_clean_linker_0, # of connection points: 2
#     Edge 62, Type (0, 0), BuildingBlock: UVAHIK_clean_linker_0, # of connection points: 2
#     Edge 63, Type (0, 0), BuildingBlock: UVAHIK_clean_linker_0, # of connection points: 2
#     Edge 64, Type (0, 0), BuildingBlock: UVAHIK_clean_linker_0, # of connection points: 2
#     Edge 65, Type (0, 0), BuildingBlock: UVAHIK_clean_linker_0, # of connection points: 2
#     Edge 66, Type (0, 0), BuildingBlock: UVAHIK_clean_linker_0, # of connection points: 2
#     Edge 67, Type (0, 0), BuildingBlock: UVAHIK_clean_linker_0, # of connection points: 2
#     Edge 68, Type (0, 0), BuildingBlock: UVAHIK_clean_linker_0, # of connection points: 2
#     Edge 69, Type (0, 0), BuildingBlock: UVAHIK_clean_linker_0, # of connection points: 2
#     Edge 70, Type (0, 0), BuildingBlock: UVAHIK_clean_linker_0, # of connection points: 2
#     Edge 71, Type (0, 0), BuildingBlock: UVAHIK_clean_linker_0, # of connection points: 2
# Relax obj value: 0.373
# Max RMSD: 0.274
# Mean RMSD: 0.257
data_MOF--net-svb--node1-HICVOG_clean_sbu_0--edge1-UVAHIK_clean_linker_0
_symmetry_space_group_name_H-M    P1
_symmetry_Int_Tables_number       1
_symmetry_cell_setting            triclinic
loop_
_symmetry_equiv_pos_as_xyz
'x, y, z'
_cell_length_a     60.706514
_cell_length_b     66.168182
_cell_length_c     32.666164
_cell_angle_alpha  95.657474
_cell_angle_beta   97.53118
_cell_angle_gamma 89.822293
loop_
_atom_site_label
_atom_site_type_symbol
_atom_site_fract_x
_atom_site_fract_y
_atom_site_fract_z
_atom_type_partial_charge
Zn0 Zn 0.11015 0.34932 0.24981 0.0
C1 C 0.12532 0.40928 0.27071 0.0
N2 N 0.11918 0.40655 0.30794 0.0
C3 C 0.11256 0.38706 0.30344 0.0
N4 N 0.11469 0.3782 0.26523 0.0
N5 N 0.12211 0.3922 0.244 0.0
C6 C 0.15693 0.40581 0.16739 0.0
O7 O 0.16347 0.39298 0.19468 0.0
O8 O 0.07851 0.34134 0.25089 0.0
Zn9 Zn 0.11633 0.39028 0.18358 0.0
N10 N 0.13016 0.33591 0.28926 0.0
C11 C 0.1682 0.33253 0.31606 0.0
C12 C 0.15169 0.34192 0.2912 0.0
C13 C 0.12432 0.32096 0.31175 0.0
N14 N 0.16255 0.31738 0.33786 0.0
C15 C 0.14105 0.31127 0.33665 0.0
O16 O 0.12273 0.36296 0.15462 0.0
C17 C 0.12278 0.34422 0.16007 0.0
O18 O 0.11819 0.33817 0.19374 0.0
H19 H 0.15595 0.35374 0.27289 0.0
H20 H 0.10709 0.31626 0.30919 0.0
C21 C 0.07376 0.38937 0.13068 0.0
C22 C 0.05061 0.39225 0.12294 0.0
C23 C 0.05106 0.40735 0.19207 0.0
C24 C 0.07383 0.40434 0.19961 0.0
N25 N 0.08485 0.39562 0.16887 0.0
N26 N 0.04005 0.40131 0.15409 0.0
H27 H 0.0829 0.38229 0.1069 0.0
C28 C 0.06495 0.34404 0.21885 0.0
O29 O 0.07225 0.3519 0.18773 0.0
O30 O 0.13623 0.40901 0.15889 0.0
H31 H 0.08248 0.4086 0.2301 0.0
H32 H 0.18543 0.33706 0.31766 0.0
H33 H 0.04214 0.41429 0.21632 0.0
Zn34 Zn 0.85736 0.87953 0.36226 0.0
C35 C 0.85516 0.87452 0.23792 0.0
N36 N 0.85052 0.89442 0.24188 0.0
C37 C 0.84748 0.89786 0.28216 0.0
N38 N 0.85085 0.88102 0.30238 0.0
N39 N 0.85497 0.86635 0.27395 0.0
C40 C 0.90354 0.83091 0.30534 0.0
O41 O 0.89791 0.83998 0.34001 0.0
O42 O 0.83671 0.89749 0.39371 0.0
Zn43 Zn 0.85843 0.83778 0.277 0.0
N44 N 0.88854 0.88699 0.37968 0.0
C45 C 0.92379 0.89268 0.35831 0.0
C46 C 0.90125 0.88831 0.34872 0.0
C47 C 0.89774 0.88947 0.42036 0.0
N48 N 0.93294 0.89517 0.39859 0.0
C49 C 0.92078 0.89363 0.43039 0.0
O50 O 0.85072 0.82687 0.32897 0.0
C51 C 0.85007 0.83296 0.36698 0.0
O52 O 0.85288 0.8516 0.38057 0.0
H53 H 0.894 0.88584 0.31664 0.0
H54 H 0.88717 0.88817 0.44417 0.0
C55 C 0.84806 0.81287 0.19858 0.0
C56 C 0.8334 0.80325 0.16541 0.0
C57 C 0.80287 0.81747 0.19663 0.0
C58 C 0.81743 0.82682 0.22944 0.0
N59 N 0.83965 0.82425 0.22994 0.0
N60 N 0.81114 0.80586 0.1657 0.0
H61 H 0.86585 0.81102 0.20003 0.0
C62 C 0.81589 0.89507 0.38272 0.0
O63 O 0.80908 0.88292 0.34919 0.0
O64 O 0.88941 0.8294 0.27295 0.0
H65 H 0.81114 0.83606 0.25449 0.0
H66 H 0.93403 0.89387 0.33393 0.0
H67 H 0.78511 0.8193 0.19584 0.0
Zn68 Zn 0.44269 0.63748 0.61338 0.0
C69 C 0.37835 0.61956 0.58426 0.0
N70 N 0.38194 0.62449 0.5466 0.0
C71 C 0.40295 0.63159 0.55359 0.0
N72 N 0.41174 0.63096 0.59352 0.0
N73 N 0.39612 0.62401 0.61329 0.0
C74 C 0.3861 0.59072 0.69653 0.0
O75 O 0.40595 0.58807 0.68508 0.0
O76 O 0.44806 0.66748 0.62182 0.0
Zn77 Zn 0.39603 0.62863 0.6729 0.0
N78 N 0.46009 0.62448 0.57246 0.0
C79 C 0.4639 0.59416 0.52856 0.0
C80 C 0.45276 0.60547 0.55737 0.0
C81 C 0.47838 0.63272 0.55987 0.0
N82 N 0.48218 0.60217 0.51633 0.0
C83 C 0.48997 0.62115 0.53103 0.0
O84 O 0.42645 0.6253 0.7063 0.0
C85 C 0.44704 0.62424 0.70228 0.0
O86 O 0.45416 0.62743 0.66849 0.0
H87 H 0.43838 0.59912 0.56797 0.0
H88 H 0.48406 0.64775 0.57297 0.0
C89 C 0.38348 0.66413 0.7254 0.0
C90 C 0.37666 0.6845 0.73264 0.0
C91 C 0.37328 0.68729 0.66004 0.0
C92 C 0.3802 0.66737 0.65323 0.0
N93 N 0.38508 0.65607 0.68579 0.0
N94 N 0.37172 0.69531 0.69929 0.0
H95 H 0.3875 0.65472 0.75051 0.0
C96 C 0.44025 0.67641 0.65293 0.0
O97 O 0.42964 0.66563 0.67581 0.0
O98 O 0.37651 0.60763 0.69205 0.0
H99 H 0.38206 0.66115 0.62212 0.0
H100 H 0.45822 0.57901 0.51628 0.0
H101 H 0.3694 0.69642 0.63438 0.0
Zn102 Zn 0.61769 0.13456 0.87981 0.0
C103 C 0.61282 0.14205 0.75829 0.0
N104 N 0.62329 0.12429 0.75429 0.0
C105 C 0.62861 0.12007 0.79392 0.0
N106 N 0.62129 0.13463 0.8212 0.0
N107 N 0.612 0.14859 0.79831 0.0
C108 C 0.55919 0.17704 0.82783 0.0
O109 O 0.56727 0.16934 0.86217 0.0
O110 O 0.64288 0.11886 0.90924 0.0
Zn111 Zn 0.60446 0.17628 0.81333 0.0
N112 N 0.58837 0.12303 0.88274 0.0
C113 C 0.55737 0.10343 0.84806 0.0
C114 C 0.5783 0.11192 0.8481 0.0
C115 C 0.57771 0.12679 0.91697 0.0
N116 N 0.54699 0.10675 0.88234 0.0
C117 C 0.55639 0.11837 0.91688 0.0
O118 O 0.61354 0.18772 0.87267 0.0
C119 C 0.6181 0.18138 0.90827 0.0
O120 O 0.6194 0.16248 0.91258 0.0
H121 H 0.58643 0.10961 0.82055 0.0
H122 H 0.58577 0.13605 0.94388 0.0
C123 C 0.60846 0.20653 0.75554 0.0
C124 C 0.61979 0.21597 0.72752 0.0
C125 C 0.65187 0.19675 0.74711 0.0
C126 C 0.64062 0.18745 0.77479 0.0
N127 N 0.61913 0.1923 0.77815 0.0
N128 N 0.64119 0.21064 0.72401 0.0
H129 H 0.59125 0.20996 0.75838 0.0
C130 C 0.64651 0.12118 0.94871 0.0
O131 O 0.6325 0.13195 0.9691 0.0
O132 O 0.57206 0.18032 0.80154 0.0
H133 H 0.64876 0.17605 0.79286 0.0
H134 H 0.54935 0.09434 0.82088 0.0
H135 H 0.66889 0.19283 0.74369 0.0
Zn136 Zn 0.12223 0.63737 0.37705 0.0
C137 C 0.1182 0.64315 0.25566 0.0
N138 N 0.12862 0.62524 0.25334 0.0
C139 C 0.13477 0.62227 0.29349 0.0
N140 N 0.12797 0.63762 0.31948 0.0
N141 N 0.11858 0.65102 0.29535 0.0
C142 C 0.06376 0.67788 0.32091 0.0
O143 O 0.07166 0.67071 0.35592 0.0
O144 O 0.14537 0.62042 0.40896 0.0
Zn145 Zn 0.10937 0.67848 0.30982 0.0
N146 N 0.09156 0.62758 0.37527 0.0
C147 C 0.05904 0.61455 0.33204 0.0
C148 C 0.08119 0.62052 0.33706 0.0
C149 C 0.08029 0.62906 0.40902 0.0
N150 N 0.04792 0.61586 0.36546 0.0
C151 C 0.0577 0.62293 0.40411 0.0
O152 O 0.1168 0.6895 0.36985 0.0
C153 C 0.12223 0.68361 0.40564 0.0
O154 O 0.12471 0.66487 0.41065 0.0
H155 H 0.08998 0.61951 0.31036 0.0
H156 H 0.08886 0.6348 0.43902 0.0
C157 C 0.11426 0.71105 0.25716 0.0
C158 C 0.12714 0.72441 0.23884 0.0
C159 C 0.15966 0.70674 0.26279 0.0
C160 C 0.14693 0.69371 0.28132 0.0
N161 N 0.12458 0.69617 0.27851 0.0
N162 N 0.14955 0.72186 0.24243 0.0
H163 H 0.09646 0.7129 0.25577 0.0
C164 C 0.16539 0.62331 0.40301 0.0
O165 O 0.16932 0.63564 0.3756 0.0
O166 O 0.07697 0.68172 0.29557 0.0
H167 H 0.15479 0.68189 0.29856 0.0
H168 H 0.0507 0.60892 0.30178 0.0
H169 H 0.1775 0.70506 0.26508 0.0
Zn170 Zn 0.61812 0.88163 0.68214 0.0
C171 C 0.60341 0.89475 0.79786 0.0
N172 N 0.60812 0.91397 0.79188 0.0
C173 C 0.61654 0.91186 0.75572 0.0
N174 N 0.61656 0.89229 0.73945 0.0
N175 N 0.609 0.88145 0.76681 0.0
C176 C 0.56161 0.84956 0.77585 0.0
O177 O 0.55907 0.86705 0.76015 0.0
O178 O 0.63452 0.90002 0.64985 0.0
Zn179 Zn 0.60967 0.85191 0.76645 0.0
N180 N 0.58795 0.87472 0.65466 0.0
C181 C 0.55577 0.85558 0.66223 0.0
C182 C 0.57706 0.86282 0.67715 0.0
C183 C 0.57833 0.87938 0.6165 0.0
N184 N 0.5461 0.86035 0.62479 0.0
C185 C 0.55669 0.87198 0.60127 0.0
O186 O 0.61753 0.83513 0.71373 0.0
C187 C 0.62946 0.83788 0.68531 0.0
O188 O 0.63487 0.85557 0.67788 0.0
H189 H 0.58506 0.85874 0.7064 0.0
H190 H 0.58735 0.88845 0.5983 0.0
C191 C 0.63208 0.82919 0.83133 0.0
C192 C 0.6499 0.82526 0.86175 0.0
C193 C 0.66863 0.85464 0.84667 0.0
C194 C 0.65101 0.8584 0.81672 0.0
N195 N 0.6331 0.84569 0.80966 0.0
N196 N 0.66767 0.83825 0.86827 0.0
H197 H 0.61775 0.81918 0.82425 0.0
C198 C 0.65508 0.9031 0.66262 0.0
O199 O 0.66334 0.89672 0.69824 0.0
O200 O 0.58067 0.84137 0.78037 0.0
H201 H 0.65164 0.8713 0.79897 0.0
H202 H 0.54706 0.84605 0.68001 0.0
H203 H 0.68302 0.86461 0.85264 0.0
Zn204 Zn 0.35861 0.38513 0.86821 0.0
C205 C 0.35774 0.38095 0.74472 0.0
N206 N 0.35114 0.40037 0.7481 0.0
C207 C 0.34735 0.40337 0.78807 0.0
N208 N 0.35205 0.38678 0.80857 0.0
N209 N 0.35793 0.37267 0.78069 0.0
C210 C 0.40685 0.33761 0.81272 0.0
O211 O 0.4008 0.34685 0.84687 0.0
O212 O 0.33859 0.40329 0.90054 0.0
Zn213 Zn 0.36193 0.34423 0.78342 0.0
N214 N 0.38984 0.39235 0.88478 0.0
C215 C 0.4247 0.39995 0.86377 0.0
C216 C 0.40215 0.39562 0.8541 0.0
C217 C 0.39943 0.39281 0.92504 0.0
N218 N 0.43426 0.40044 0.90372 0.0
C219 C 0.42244 0.3969 0.93503 0.0
O220 O 0.35421 0.33292 0.83458 0.0
C221 C 0.35249 0.33854 0.87237 0.0
O222 O 0.3542 0.35716 0.88666 0.0
H223 H 0.39459 0.39481 0.82219 0.0
H224 H 0.38918 0.39001 0.9486 0.0
C225 C 0.35162 0.31811 0.70724 0.0
C226 C 0.33771 0.31063 0.67112 0.0
C227 C 0.30785 0.32969 0.6949 0.0
C228 C 0.32169 0.33706 0.73063 0.0
N229 N 0.34327 0.33123 0.73596 0.0
N230 N 0.31618 0.31677 0.66598 0.0
H231 H 0.369 0.31412 0.71191 0.0
C232 C 0.31769 0.40248 0.88942 0.0
O233 O 0.30998 0.39172 0.85455 0.0
O234 O 0.3931 0.33609 0.77978 0.0
H235 H 0.31549 0.34771 0.75362 0.0
H236 H 0.43464 0.40269 0.83966 0.0
H237 H 0.29069 0.33433 0.68998 0.0
Zn238 Zn 0.9344 0.14272 0.11296 0.0
C239 C 0.8727 0.11897 0.07869 0.0
N240 N 0.87719 0.12416 0.04171 0.0
C241 C 0.8969 0.13371 0.05128 0.0
N242 N 0.90429 0.1341 0.09199 0.0
N243 N 0.8889 0.12546 0.1099 0.0
C244 C 0.88267 0.08982 0.19226 0.0
O245 O 0.90265 0.08928 0.18085 0.0
O246 O 0.93723 0.17286 0.11421 0.0
Zn247 Zn 0.88799 0.1291 0.16969 0.0
N248 N 0.95311 0.12828 0.07624 0.0
C249 C 0.96033 0.09514 0.04605 0.0
C250 C 0.94796 0.10815 0.06986 0.0
C251 C 0.9703 0.1361 0.05942 0.0
N252 N 0.97761 0.10274 0.02989 0.0
C253 C 0.98314 0.12285 0.03575 0.0
O254 O 0.91815 0.12889 0.20495 0.0
C255 C 0.93884 0.13086 0.20316 0.0
O256 O 0.946 0.13536 0.17029 0.0
H257 H 0.93442 0.10223 0.08376 0.0
H258 H 0.97428 0.15213 0.06545 0.0
C259 C 0.87469 0.16325 0.22332 0.0
C260 C 0.86588 0.18276 0.23175 0.0
C261 C 0.8572 0.18496 0.1592 0.0
C262 C 0.86609 0.16583 0.15111 0.0
N263 N 0.87452 0.15525 0.18317 0.0
N264 N 0.85733 0.19292 0.19906 0.0
H265 H 0.88156 0.15443 0.24801 0.0
C266 C 0.92829 0.18302 0.14263 0.0
O267 O 0.91825 0.17326 0.16813 0.0
O268 O 0.87128 0.10586 0.18841 0.0
H269 H 0.86636 0.15954 0.11941 0.0
H270 H 0.95642 0.07908 0.04082 0.0
H271 H 0.85039 0.19352 0.134 0.0
Zn272 Zn 0.89102 0.62182 0.8234 0.0
C273 C 0.91063 0.60784 0.71185 0.0
N274 N 0.90661 0.58853 0.71823 0.0
C275 C 0.89684 0.59057 0.75297 0.0
N276 N 0.8953 0.61021 0.76792 0.0
N277 N 0.90337 0.62111 0.74121 0.0
C278 C 0.95013 0.65504 0.731 0.0
O279 O 0.95429 0.63851 0.74967 0.0
O280 O 0.8742 0.60394 0.85623 0.0
Zn281 Zn 0.90214 0.65071 0.74164 0.0
N282 N 0.92014 0.63032 0.85406 0.0
C283 C 0.95283 0.64923 0.84863 0.0
C284 C 0.93269 0.64037 0.83097 0.0
C285 C 0.92738 0.62846 0.89497 0.0
N286 N 0.95989 0.64768 0.88915 0.0
C287 C 0.94788 0.63753 0.913 0.0
O288 O 0.89589 0.66723 0.79601 0.0
C289 C 0.88178 0.66448 0.82069 0.0
O290 O 0.87287 0.64714 0.82076 0.0
H291 H 0.92672 0.64204 0.79923 0.0
H292 H 0.91716 0.62067 0.91334 0.0
C293 C 0.87845 0.67279 0.6774 0.0
C294 C 0.86009 0.67658 0.648 0.0
C295 C 0.84156 0.64779 0.66627 0.0
C296 C 0.85973 0.64415 0.69517 0.0
N297 N 0.87778 0.65665 0.70015 0.0
N298 N 0.84216 0.66383 0.64357 0.0
H299 H 0.89293 0.68262 0.68289 0.0
C300 C 0.85366 0.60048 0.84386 0.0
O301 O 0.84522 0.60593 0.80751 0.0
O302 O 0.93041 0.66179 0.72533 0.0
H303 H 0.85943 0.63152 0.71373 0.0
H304 H 0.96268 0.65752 0.83048 0.0
H305 H 0.82704 0.63799 0.66197 0.0
Zn306 Zn 0.15021 0.11811 0.64411 0.0
C307 C 0.14826 0.12629 0.7672 0.0
N308 N 0.15842 0.10831 0.76835 0.0
C309 C 0.16336 0.1042 0.72928 0.0
N310 N 0.15584 0.11882 0.70467 0.0
N311 N 0.14708 0.13281 0.72938 0.0
C312 C 0.08966 0.16217 0.72444 0.0
O313 O 0.08708 0.1532 0.68637 0.0
O314 O 0.1735 0.1024 0.6148 0.0
Zn315 Zn 0.13784 0.16005 0.72215 0.0
N316 N 0.12065 0.10654 0.62574 0.0
C317 C 0.08834 0.09004 0.64103 0.0
C318 C 0.10968 0.09789 0.65341 0.0
C319 C 0.11058 0.10854 0.5865 0.0
N320 N 0.07843 0.09177 0.60185 0.0
C321 C 0.08878 0.10103 0.57408 0.0
O322 O 0.13643 0.16902 0.665 0.0
C323 C 0.14203 0.16331 0.62957 0.0
O324 O 0.14907 0.14547 0.62082 0.0
H325 H 0.11741 0.09707 0.68492 0.0
H326 H 0.11947 0.11592 0.56539 0.0
C327 C 0.15306 0.18961 0.79091 0.0
C328 C 0.16866 0.20307 0.81502 0.0
C329 C 0.19569 0.19174 0.77166 0.0
C330 C 0.18013 0.17854 0.74779 0.0
N331 N 0.15913 0.17783 0.75767 0.0
N332 N 0.18959 0.20373 0.80438 0.0
H333 H 0.13613 0.18889 0.79772 0.0
C334 C 0.1942 0.10555 0.62592 0.0
O335 O 0.20061 0.11742 0.66003 0.0
O336 O 0.10906 0.16563 0.74337 0.0
H337 H 0.18461 0.16904 0.72131 0.0
H338 H 0.07957 0.08285 0.66257 0.0
H339 H 0.21246 0.19258 0.76406 0.0
Zn340 Zn 0.57144 0.36198 0.4032 0.0
C341 C 0.63387 0.38426 0.43786 0.0
N342 N 0.629 0.37914 0.4747 0.0
C343 C 0.60904 0.37009 0.4646 0.0
N344 N 0.60189 0.36988 0.42387 0.0
N345 N 0.61767 0.37815 0.4063 0.0
C346 C 0.62759 0.41536 0.33393 0.0
O347 O 0.61011 0.41711 0.35382 0.0
O348 O 0.56849 0.33169 0.398 0.0
Zn349 Zn 0.6183 0.37511 0.34624 0.0
N350 N 0.55316 0.37553 0.44242 0.0
C351 C 0.54873 0.40731 0.48118 0.0
C352 C 0.56005 0.39501 0.45421 0.0
C353 C 0.53498 0.3678 0.45645 0.0
N354 N 0.53058 0.39982 0.49476 0.0
C355 C 0.5231 0.38044 0.48326 0.0
O356 O 0.58794 0.37773 0.31302 0.0
C357 C 0.56721 0.37631 0.31507 0.0
O358 O 0.55993 0.37099 0.34723 0.0
H359 H 0.57423 0.401 0.44233 0.0
H360 H 0.52954 0.35238 0.44593 0.0
C361 C 0.62584 0.33843 0.2917 0.0
C362 C 0.63252 0.31806 0.28418 0.0
C363 C 0.6476 0.31858 0.3552 0.0
C364 C 0.64065 0.33847 0.36258 0.0
N365 N 0.63 0.34814 0.33089 0.0
N366 N 0.64328 0.30887 0.3165 0.0
H367 H 0.61658 0.34618 0.2674 0.0
C368 C 0.57731 0.32297 0.36785 0.0
O369 O 0.58667 0.33419 0.34392 0.0
O370 O 0.63606 0.39786 0.32805 0.0
H371 H 0.64335 0.34597 0.39371 0.0
H372 H 0.55412 0.42281 0.49086 0.0
H373 H 0.65604 0.31075 0.38021 0.0
Zn374 Zn 0.40029 0.82718 0.20008 0.0
C375 C 0.37434 0.88341 0.20907 0.0
N376 N 0.37779 0.88155 0.24997 0.0
C377 C 0.38861 0.86389 0.25254 0.0
N378 N 0.39105 0.85495 0.21416 0.0
N379 N 0.3828 0.86754 0.18695 0.0
C380 C 0.34718 0.88123 0.09907 0.0
O381 O 0.34164 0.87064 0.12816 0.0
O382 O 0.43326 0.82367 0.20169 0.0
Zn383 Zn 0.38947 0.86592 0.12957 0.0
N384 N 0.3878 0.81041 0.23704 0.0
C385 C 0.35597 0.80439 0.2697 0.0
C386 C 0.36637 0.81466 0.24224 0.0
C387 C 0.39922 0.79584 0.25755 0.0
N388 N 0.36743 0.79024 0.29089 0.0
C389 C 0.38876 0.78559 0.28549 0.0
O390 O 0.38506 0.838 0.09863 0.0
C391 C 0.38438 0.81954 0.10613 0.0
O392 O 0.38864 0.81448 0.14283 0.0
H393 H 0.35754 0.82617 0.22547 0.0
H394 H 0.41631 0.79276 0.25311 0.0
C395 C 0.43179 0.87309 0.09752 0.0
C396 C 0.45436 0.87929 0.10248 0.0
C397 C 0.45292 0.88778 0.17448 0.0
C398 C 0.4308 0.88172 0.16943 0.0
N399 N 0.42051 0.87455 0.13125 0.0
N400 N 0.46407 0.88644 0.14113 0.0
H401 H 0.42319 0.86748 0.06747 0.0
C402 C 0.45057 0.83441 0.21442 0.0
O403 O 0.44913 0.85264 0.23365 0.0
O404 O 0.36758 0.88264 0.09426 0.0
H405 H 0.42194 0.88283 0.19608 0.0
H406 H 0.33898 0.80776 0.27445 0.0
H407 H 0.46121 0.89352 0.20472 0.0
Zn408 Zn 0.90001 0.32508 0.70383 0.0
C409 C 0.88691 0.38475 0.70623 0.0
N410 N 0.89461 0.38423 0.7466 0.0
C411 C 0.90161 0.36507 0.74841 0.0
N412 N 0.89823 0.35439 0.71084 0.0
N413 N 0.88967 0.36685 0.68371 0.0
C414 C 0.85019 0.38165 0.59984 0.0
O415 O 0.84519 0.3733 0.63235 0.0
O416 O 0.92914 0.31482 0.72929 0.0
Zn417 Zn 0.88973 0.36089 0.62398 0.0
N418 N 0.87965 0.31491 0.73802 0.0
C419 C 0.84755 0.31856 0.77258 0.0
C420 C 0.86066 0.32498 0.74418 0.0
C421 C 0.88587 0.29842 0.75845 0.0
N422 N 0.85411 0.30246 0.79389 0.0
C423 C 0.87296 0.29206 0.78758 0.0
O424 O 0.87811 0.33304 0.60181 0.0
C425 C 0.8819 0.3149 0.61035 0.0
O426 O 0.8916 0.31091 0.64562 0.0
H427 H 0.85604 0.33814 0.72791 0.0
H428 H 0.90119 0.29086 0.75324 0.0
C429 C 0.93035 0.36922 0.58384 0.0
C430 C 0.95303 0.36554 0.58013 0.0
C431 C 0.95465 0.34332 0.63309 0.0
C432 C 0.93248 0.34706 0.63698 0.0
N433 N 0.92072 0.36006 0.61295 0.0
N434 N 0.96436 0.3527 0.60513 0.0
H435 H 0.92064 0.37909 0.56409 0.0
C436 C 0.94937 0.32018 0.73831 0.0
O437 O 0.9564 0.33737 0.7276 0.0
O438 O 0.8698 0.37969 0.59022 0.0
H439 H 0.92451 0.33929 0.65859 0.0
H440 H 0.83249 0.32653 0.77821 0.0
H441 H 0.96407 0.3328 0.65161 0.0
Zn442 Zn 0.39921 0.15589 0.25546 0.0
C443 C 0.39102 0.09511 0.23988 0.0
N444 N 0.39697 0.0982 0.20265 0.0
C445 C 0.40135 0.11816 0.2064 0.0
N446 N 0.3982 0.12683 0.24415 0.0
N447 N 0.39244 0.1124 0.26619 0.0
C448 C 0.35606 0.10117 0.34498 0.0
O449 O 0.34955 0.1133 0.31631 0.0
O450 O 0.42955 0.16584 0.24985 0.0
Zn451 Zn 0.39751 0.11526 0.32729 0.0
N452 N 0.37632 0.1661 0.21611 0.0
C453 C 0.33753 0.16439 0.19328 0.0
C454 C 0.35593 0.15841 0.21896 0.0
C455 C 0.37919 0.17968 0.18838 0.0
N456 N 0.34024 0.17797 0.16585 0.0
C457 C 0.36048 0.18599 0.16231 0.0
O458 O 0.39173 0.14318 0.35398 0.0
C459 C 0.38989 0.16166 0.34676 0.0
O460 O 0.3922 0.16728 0.3115 0.0
H461 H 0.35408 0.14769 0.24126 0.0
H462 H 0.39574 0.18521 0.18672 0.0
C463 C 0.44006 0.11925 0.38063 0.0
C464 C 0.46326 0.11679 0.38915 0.0
C465 C 0.46245 0.09526 0.32635 0.0
C466 C 0.43965 0.09792 0.31788 0.0
N467 N 0.4288 0.10981 0.34492 0.0
N468 N 0.47368 0.10479 0.36147 0.0
H469 H 0.4312 0.12914 0.40111 0.0
C470 C 0.4444 0.16188 0.27906 0.0
O471 O 0.43878 0.15194 0.30906 0.0
O472 O 0.37674 0.09776 0.35333 0.0
H473 H 0.43081 0.091 0.28934 0.0
H474 H 0.32118 0.15839 0.19517 0.0
H475 H 0.47124 0.08593 0.30484 0.0
Zn476 Zn 0.65405 0.62316 0.15338 0.0
C477 C 0.65583 0.63067 0.27784 0.0
N478 N 0.66288 0.61143 0.27675 0.0
C479 C 0.66587 0.607 0.23662 0.0
N480 N 0.66043 0.62279 0.21381 0.0
N481 N 0.65478 0.6377 0.24044 0.0
C482 C 0.60589 0.67592 0.21491 0.0
O483 O 0.60867 0.66614 0.17897 0.0
O484 O 0.67515 0.60531 0.12255 0.0
Zn485 Zn 0.65155 0.66625 0.23575 0.0
N486 N 0.62306 0.61507 0.13648 0.0
C487 C 0.58818 0.60718 0.157 0.0
C488 C 0.61064 0.61191 0.16704 0.0
C489 C 0.61372 0.61403 0.09598 0.0
N490 N 0.57886 0.60618 0.11683 0.0
C491 C 0.59079 0.60956 0.08556 0.0
O492 O 0.65736 0.6761 0.18186 0.0
C493 C 0.65868 0.66959 0.14435 0.0
O494 O 0.65737 0.65071 0.13216 0.0
H495 H 0.61806 0.61308 0.19909 0.0
H496 H 0.62414 0.61673 0.07265 0.0
C497 C 0.66532 0.69009 0.31372 0.0
C498 C 0.68104 0.69987 0.34488 0.0
C499 C 0.70986 0.68838 0.30573 0.0
C500 C 0.69422 0.67879 0.27503 0.0
N501 N 0.67233 0.67992 0.27949 0.0
N502 N 0.70293 0.69871 0.33965 0.0
H503 H 0.64773 0.6908 0.31608 0.0
C504 C 0.69588 0.60898 0.13188 0.0
O505 O 0.70251 0.62214 0.16391 0.0
O506 O 0.62159 0.67637 0.24468 0.0
H507 H 0.69941 0.67052 0.24773 0.0
H508 H 0.57813 0.60452 0.181 0.0
H509 H 0.72737 0.6877 0.3026 0.0
Zn510 Zn 0.06809 0.86856 0.90117 0.0
C511 C 0.13219 0.88625 0.93281 0.0
N512 N 0.1279 0.88284 0.97094 0.0
C513 C 0.10718 0.87512 0.96381 0.0
N514 N 0.09893 0.87436 0.92322 0.0
N515 N 0.11485 0.88079 0.90331 0.0
C516 C 0.1365 0.91386 0.83715 0.0
O517 O 0.12544 0.91961 0.86817 0.0
O518 O 0.06325 0.83898 0.88124 0.0
Zn519 Zn 0.11414 0.87625 0.84301 0.0
N520 N 0.05003 0.87879 0.94381 0.0
C521 C 0.0458 0.90776 0.99127 0.0
C522 C 0.05712 0.8975 0.96144 0.0
C523 C 0.03161 0.86989 0.95462 0.0
N524 N 0.02739 0.89915 1.00165 0.0
C525 C 0.0197 0.88054 0.98424 0.0
O526 O 0.08445 0.88257 0.81125 0.0
C527 C 0.06427 0.8858 0.81646 0.0
O528 O 0.05715 0.88302 0.85045 0.0
H529 H 0.07144 0.90452 0.95193 0.0
H530 H 0.02595 0.8552 0.93945 0.0
C531 C 0.12151 0.83891 0.78969 0.0
C532 C 0.1263 0.81798 0.78296 0.0
C533 C 0.13006 0.81598 0.85584 0.0
C534 C 0.12538 0.8365 0.86224 0.0
N535 N 0.12122 0.84767 0.82931 0.0
N536 N 0.13041 0.8073 0.81667 0.0
H537 H 0.11828 0.84821 0.76418 0.0
C538 C 0.0461 0.83524 0.85486 0.0
O539 O 0.03179 0.84979 0.8476 0.0
O540 O 0.13529 0.89541 0.82169 0.0
H541 H 0.12512 0.84339 0.89348 0.0
H542 H 0.05136 0.92263 1.00559 0.0
H543 H 0.13339 0.80697 0.88182 0.0
C544 C 0.92624 0.21577 0.18686 0.0
C545 C 0.93099 0.20527 0.14954 0.0
C546 C 0.9321 0.23624 0.19643 0.0
C547 C 0.95202 0.28213 0.15607 0.0
H548 H 0.99489 0.28545 0.25549 0.0
C549 C 0.03011 0.33136 0.17522 0.0
C550 C 0.04197 0.33632 0.21474 0.0
C551 C 0.00994 0.32082 0.17077 0.0
C552 C 0.98254 0.2853 0.22837 0.0
H553 H 0.94343 0.20836 0.09116 0.0
H554 H 0.95365 0.24414 0.10791 0.0
H555 H 0.96982 0.25665 0.23983 0.0
H556 H 0.04099 0.33636 0.28081 0.0
H557 H 0.00518 0.31892 0.27328 0.0
H558 H 0.96506 0.31064 0.14411 0.0
C559 C 0.94552 0.23654 0.12982 0.0
C560 C 0.96816 0.26863 0.21933 0.0
C561 C 0.9399 0.21601 0.12043 0.0
C562 C 0.03237 0.3323 0.24992 0.0
C563 C 0.0119 0.3222 0.24552 0.0
C564 C 0.96614 0.29907 0.16552 0.0
C565 C 0.94249 0.24659 0.16858 0.0
C566 C 0.95347 0.26646 0.18224 0.0
C567 C 1.00095 0.31542 0.20584 0.0
C568 C 0.98235 0.30038 0.20078 0.0
H569 H 0.91911 0.20795 0.20969 0.0
H570 H 0.92949 0.24372 0.2264 0.0
H571 H 0.94063 0.28086 0.12747 0.0
H572 H 0.03708 0.3344 0.14754 0.0
H573 H 1.00227 0.31578 0.13966 0.0
C574 C 0.03078 0.69272 0.34988 0.0
C575 C 0.04125 0.68617 0.31518 0.0
C576 C 0.01299 0.70609 0.34594 0.0
C577 C 0.99555 0.74616 0.2802 0.0
H578 H 0.94821 0.75339 0.34905 0.0
C579 C 0.92968 0.80915 0.26858 0.0
C580 C 0.92332 0.81805 0.30604 0.0
C581 C 0.94472 0.79321 0.2687 0.0
C582 C 0.96154 0.75161 0.32998 0.0
H583 H 0.03955 0.68583 0.24839 0.0
H584 H 0.00799 0.70863 0.24127 0.0
H585 H 0.96938 0.72195 0.34814 0.0
H586 H 0.9291 0.81856 0.37313 0.0
H587 H 0.95552 0.79069 0.37324 0.0
H588 H 0.98768 0.77582 0.26209 0.0
C589 C 0.01405 0.70419 0.27174 0.0
C590 C 0.97353 0.73359 0.32926 0.0
C591 C 0.03198 0.69104 0.27576 0.0
C592 C 0.93363 0.81191 0.34378 0.0
C593 C 0.94854 0.79584 0.34386 0.0
C594 C 0.98347 0.76409 0.28073 0.0
C595 C 0.00532 0.71282 0.30714 0.0
C596 C 0.99079 0.73076 0.30463 0.0
C597 C 0.95353 0.78589 0.30626 0.0
C598 C 0.96654 0.76705 0.30597 0.0
H599 H 0.03755 0.68908 0.38062 0.0
H600 H 0.00659 0.71243 0.37382 0.0
H601 H 0.00911 0.74468 0.26166 0.0
H602 H 0.92209 0.81372 0.23905 0.0
H603 H 0.94838 0.78581 0.2393 0.0
C604 C 0.54472 0.82197 0.80802 0.0
C605 C 0.54212 0.83775 0.78216 0.0
C606 C 0.52808 0.80731 0.80571 0.0
C607 C 0.47223 0.78989 0.75336 0.0
H608 H 0.50422 0.7403 0.7282 0.0
C609 C 0.46092 0.70835 0.64802 0.0
C610 C 0.44529 0.69796 0.66639 0.0
C611 C 0.46859 0.7275 0.66546 0.0
C612 C 0.49507 0.75403 0.73525 0.0
H613 H 0.51913 0.85229 0.73792 0.0
H614 H 0.49034 0.82624 0.73269 0.0
H615 H 0.52459 0.7703 0.76113 0.0
H616 H 0.42378 0.70017 0.71479 0.0
H617 H 0.43726 0.73387 0.74511 0.0
H618 H 0.44268 0.77325 0.72597 0.0
C619 C 0.50505 0.82524 0.75503 0.0
C620 C 0.50666 0.77113 0.75471 0.0
C621 C 0.52161 0.84009 0.7578 0.0
C622 C 0.43608 0.70776 0.70033 0.0
C623 C 0.44364 0.72704 0.71755 0.0
C624 C 0.46052 0.77254 0.73419 0.0
C625 C 0.50879 0.80806 0.77697 0.0
C626 C 0.49547 0.78937 0.76325 0.0
C627 C 0.46058 0.73663 0.70119 0.0
C628 C 0.47204 0.7547 0.72402 0.0
H629 H 0.56022 0.82017 0.82789 0.0
H630 H 0.53111 0.79445 0.82374 0.0
H631 H 0.46325 0.80379 0.75954 0.0
H632 H 0.46813 0.70128 0.6216 0.0
H633 H 0.48154 0.73482 0.65217 0.0
C634 C 0.43655 0.31896 0.85316 0.0
C635 C 0.42649 0.3245 0.81472 0.0
C636 C 0.45126 0.30274 0.85472 0.0
C637 C 0.4855 0.26889 0.79344 0.0
H638 H 0.47033 0.22856 0.86404 0.0
C639 C 0.52781 0.19254 0.78578 0.0
C640 C 0.53751 0.18707 0.82449 0.0
C641 C 0.51132 0.20721 0.78355 0.0
C642 C 0.4748 0.23971 0.84434 0.0
H643 H 0.42554 0.31889 0.74792 0.0
H644 H 0.45139 0.2907 0.75072 0.0
H645 H 0.45064 0.26081 0.8642 0.0
H646 H 0.53594 0.19077 0.89074 0.0
H647 H 0.50738 0.21667 0.88694 0.0
H648 H 0.50982 0.24805 0.77392 0.0
C649 C 0.44774 0.2987 0.77958 0.0
C650 C 0.46367 0.2582 0.84463 0.0
C651 C 0.43293 0.31481 0.77799 0.0
C652 C 0.52876 0.19477 0.8605 0.0
C653 C 0.5124 0.20964 0.8583 0.0
C654 C 0.49668 0.25048 0.79327 0.0
C655 C 0.4563 0.292 0.81791 0.0
C656 C 0.46894 0.27294 0.81917 0.0
C657 C 0.50444 0.21676 0.82001 0.0
C658 C 0.49141 0.23566 0.81862 0.0
H659 H 0.43198 0.32622 0.88199 0.0
H660 H 0.45803 0.29809 0.88467 0.0
H661 H 0.48998 0.28006 0.77378 0.0
H662 H 0.53407 0.18654 0.75748 0.0
H663 H 0.50496 0.21197 0.75349 0.0
C664 C 0.98845 0.66913 0.74924 0.0
C665 C 0.96846 0.66763 0.72215 0.0
C666 C 1.00328 0.68509 0.74811 0.0
C667 C 0.99636 0.73723 0.72476 0.0
H668 H 0.05834 0.74232 0.77195 0.0
C669 C 0.03126 0.81482 0.78942 0.0
C670 C 0.04332 0.81565 0.82923 0.0
C671 C 0.02753 0.79634 0.76521 0.0
C672 C 0.04103 0.74111 0.75866 0.0
H673 H 0.94977 0.67929 0.66856 0.0
H674 H 0.9761 0.70669 0.66537 0.0
H675 H 0.04274 0.7088 0.74505 0.0
H676 H 0.06214 0.79816 0.87419 0.0
H677 H 0.05452 0.76547 0.83279 0.0
H678 H 0.99403 0.76903 0.74031 0.0
C679 C 0.97993 0.69619 0.68868 0.0
C680 C 0.03214 0.72196 0.74311 0.0
C681 C 0.96488 0.68053 0.69041 0.0
C682 C 0.05255 0.79781 0.84372 0.0
C683 C 0.0484 0.77916 0.81978 0.0
C684 C 0.00517 0.75622 0.74026 0.0
C685 C 0.99842 0.69953 0.71942 0.0
C686 C 0.0095 0.71976 0.72716 0.0
C687 C 0.03532 0.77819 0.78069 0.0
C688 C 0.02742 0.75835 0.75852 0.0
H689 H 0.99162 0.65922 0.77381 0.0
H690 H 0.01735 0.68716 0.77224 0.0
H691 H 0.97875 0.73617 0.71369 0.0
H692 H 0.02452 0.82847 0.777 0.0
H693 H 0.01793 0.79621 0.73481 0.0
C694 C 0.05085 0.17525 0.71785 0.0
C695 C 0.07088 0.17188 0.7428 0.0
C696 C 0.03545 0.1889 0.73261 0.0
C697 C 0.03779 0.23581 0.79928 0.0
H698 H 0.97411 0.23498 0.76614 0.0
C699 C 0.95643 0.29163 0.782 0.0
C700 C 0.96477 0.30594 0.75874 0.0
C701 C 0.96947 0.27547 0.79466 0.0
C702 C 0.99182 0.23541 0.77646 0.0
H703 H 0.08927 0.17801 0.80449 0.0
H704 H 0.06234 0.20178 0.8301 0.0
H705 H 0.99469 0.20333 0.76181 0.0
H706 H 0.99383 0.31578 0.73385 0.0
H707 H 0.01673 0.2873 0.75561 0.0
H708 H 0.03506 0.26803 0.81207 0.0
C709 C 0.05877 0.19426 0.79893 0.0
C710 C 1.00358 0.2173 0.77366 0.0
C711 C 0.07414 0.18063 0.78422 0.0
C712 C 0.98703 0.30489 0.75159 0.0
C713 C 1.00011 0.28862 0.76419 0.0
C714 C 0.02604 0.25395 0.80184 0.0
C715 C 0.03986 0.1993 0.77255 0.0
C716 C 0.02676 0.21742 0.78374 0.0
C717 C 0.9911 0.27332 0.78429 0.0
C718 C 1.00305 0.254 0.78917 0.0
H719 H 0.04783 0.16862 0.68593 0.0
H720 H 0.02101 0.19252 0.71153 0.0
H721 H 0.0557 0.23641 0.80692 0.0
H722 H 0.93946 0.29243 0.78891 0.0
H723 H 0.96227 0.26414 0.81087 0.0
C724 C 0.48059 0.17298 0.31973 0.0
C725 C 0.46717 0.16983 0.28128 0.0
C726 C 0.5007 0.18353 0.32326 0.0
C727 C 0.52525 0.22227 0.26886 0.0
H728 H 0.56988 0.22331 0.36556 0.0
C729 C 0.58 0.29213 0.31836 0.0
C730 C 0.57533 0.30083 0.35729 0.0
C731 C 0.57498 0.27174 0.30562 0.0
C732 C 0.55776 0.22299 0.33803 0.0
H733 H 0.46527 0.17299 0.21554 0.0
H734 H 0.501 0.19038 0.22112 0.0
H735 H 0.54588 0.19342 0.34588 0.0
H736 H 0.5639 0.29464 0.41501 0.0
H737 H 0.5551 0.25894 0.39267 0.0
H738 H 0.53688 0.25195 0.26155 0.0
C739 C 0.49556 0.18573 0.24905 0.0
C740 C 0.54385 0.20599 0.32691 0.0
C741 C 0.47513 0.17566 0.24573 0.0
C742 C 0.56734 0.28838 0.3846 0.0
C743 C 0.56257 0.26792 0.37202 0.0
C744 C 0.53945 0.23899 0.27943 0.0
C745 C 0.50808 0.19075 0.28819 0.0
C746 C 0.52659 0.2059 0.29351 0.0
C747 C 0.56552 0.25965 0.33183 0.0
C748 C 0.55507 0.23991 0.31523 0.0
H749 H 0.47492 0.16848 0.34763 0.0
H750 H 0.50959 0.18716 0.35405 0.0
H751 H 0.51213 0.22308 0.24326 0.0
H752 H 0.58638 0.30131 0.29678 0.0
H753 H 0.57746 0.26566 0.27454 0.0
C754 C 0.57333 0.69448 0.18245 0.0
C755 C 0.58754 0.69039 0.21809 0.0
C756 C 0.55937 0.71127 0.1836 0.0
C757 C 0.53545 0.75036 0.25352 0.0
H758 H 0.53482 0.7822 0.15979 0.0
C759 C 0.48792 0.82519 0.248 0.0
C760 C 0.47206 0.82456 0.21257 0.0
C761 C 0.50547 0.81143 0.24944 0.0
C762 C 0.53496 0.7735 0.18623 0.0
H763 H 0.59684 0.69955 0.28378 0.0
H764 H 0.57267 0.72887 0.28561 0.0
H765 H 0.55612 0.75092 0.16139 0.0
H766 H 0.46285 0.81067 0.14986 0.0
H767 H 0.49367 0.78703 0.15191 0.0
H768 H 0.51405 0.77288 0.27807 0.0
C769 C 0.57231 0.71921 0.25677 0.0
C770 C 0.54693 0.75549 0.18697 0.0
C771 C 0.58621 0.70241 0.25566 0.0
C772 C 0.47499 0.81137 0.17744 0.0
C773 C 0.49264 0.7979 0.17862 0.0
C774 C 0.52355 0.76843 0.25286 0.0
C775 C 0.55937 0.72424 0.2204 0.0
C776 C 0.54696 0.74354 0.22026 0.0
C777 C 0.50747 0.7972 0.21521 0.0
C778 C 0.5229 0.77997 0.21886 0.0
H779 H 0.57382 0.6854 0.15312 0.0
H780 H 0.54909 0.71447 0.15533 0.0
H781 H 0.53508 0.74143 0.2795 0.0
H782 H 0.48577 0.83515 0.27555 0.0
H783 H 0.51683 0.81124 0.27789 0.0
C784 C 0.3097 0.41576 0.96065 0.0
C785 C 0.3021 0.41044 0.91843 0.0
C786 C 0.29459 0.42004 0.98919 0.0
C787 C 0.23602 0.43271 1.00051 0.0
H788 H 0.24601 0.40133 0.09521 0.0
C789 C 0.16703 0.41731 0.10124 0.0
C790 C 0.17329 0.41357 0.14273 0.0
C791 C 0.1832 0.42081 0.07573 0.0
C792 C 0.24308 0.41063 0.0696 0.0
H793 H 0.2727 0.40677 0.87274 0.0
H794 H 0.2464 0.41449 0.92248 0.0
H795 H 0.27349 0.40107 0.04756 0.0
H796 H 0.20118 0.41217 0.19097 0.0
H797 H 0.22926 0.41926 0.14737 0.0
H798 H 0.20555 0.44227 0.02253 0.0
C799 C 0.26403 0.41524 0.93355 0.0
C800 C 0.2589 0.41039 0.0421 0.0
C801 C 0.27912 0.41073 0.90506 0.0
C802 C 0.19588 0.41479 0.15896 0.0
C803 C 0.212 0.41864 0.13374 0.0
C804 C 0.22025 0.43315 0.02837 0.0
C805 C 0.27156 0.41936 0.97611 0.0
C806 C 0.25546 0.42121 1.00696 0.0
C807 C 0.20599 0.42094 0.09133 0.0
C808 C 0.22343 0.42191 0.06309 0.0
H809 H 0.32728 0.41569 0.97203 0.0
H810 H 0.30092 0.4234 0.02173 0.0
H811 H 0.23297 0.44132 0.97384 0.0
H812 H 0.14974 0.41631 0.08777 0.0
H813 H 0.17782 0.42233 0.04326 0.0
C814 C 0.82581 0.92894 0.29571 0.0
C815 C 0.84606 0.91871 0.30158 0.0
C816 C 0.82545 0.9502 0.29843 0.0
C817 C 0.86201 0.9968 0.32096 0.0
H818 H 0.82708 0.01305 0.22164 0.0
C819 C 0.89017 0.05854 0.22825 0.0
C820 C 0.87477 0.07266 0.21251 0.0
C821 C 0.8833 0.04239 0.24805 0.0
C822 C 0.83661 0.00892 0.24996 0.0
H823 H 0.88162 0.92246 0.31674 0.0
H824 H 0.88121 0.95922 0.32188 0.0
H825 H 0.82058 0.97992 0.24448 0.0
H826 H 0.83999 0.08089 0.2052 0.0
H827 H 0.82779 0.05206 0.23904 0.0
H828 H 0.87904 0.02537 0.32455 0.0
C829 C 0.86544 0.95117 0.31616 0.0
C830 C 0.83283 0.98992 0.26328 0.0
C831 C 0.86573 0.92998 0.31356 0.0
C832 C 0.85223 0.07024 0.21703 0.0
C833 C 0.84526 0.05379 0.23635 0.0
C834 C 0.86592 0.0157 0.30739 0.0
C835 C 0.84542 0.96153 0.30643 0.0
C836 C 0.84605 0.98329 0.29809 0.0
C837 C 0.86079 0.03975 0.25221 0.0
C838 C 0.85379 0.02164 0.27092 0.0
H839 H 0.81047 0.9205 0.28561 0.0
H840 H 0.80969 0.95766 0.2915 0.0
H841 H 0.87219 0.99241 0.34837 0.0
H842 H 0.90768 0.06 0.22552 0.0
H843 H 0.8956 0.03166 0.2593 0.0
C844 C 0.20506 0.61303 0.41414 0.0
C845 C 0.18436 0.61481 0.42888 0.0
C846 C 0.22395 0.60779 0.43998 0.0
C847 C 0.24761 0.61327 0.54861 0.0
H848 H 0.29466 0.58083 0.50688 0.0
C849 C 0.34032 0.6304 0.59475 0.0
C850 C 0.3558 0.6147 0.59236 0.0
C851 C 0.31753 0.62616 0.58706 0.0
C852 C 0.28162 0.58959 0.51963 0.0
H853 H 0.16702 0.61177 0.48189 0.0
H854 H 0.20032 0.60288 0.5276 0.0
H855 H 0.25783 0.58001 0.46694 0.0
H856 H 0.3598 0.5822 0.58226 0.0
H857 H 0.31984 0.57461 0.56918 0.0
H858 H 0.27172 0.62354 0.60045 0.0
C859 C 0.20182 0.60547 0.49585 0.0
C860 C 0.26054 0.58928 0.49642 0.0
C861 C 0.18276 0.61041 0.46964 0.0
C862 C 0.34813 0.59453 0.58515 0.0
C863 C 0.32528 0.59024 0.57715 0.0
C864 C 0.26877 0.61367 0.57176 0.0
C865 C 0.22269 0.60444 0.48145 0.0
C866 C 0.24351 0.60166 0.50989 0.0
C867 C 0.30975 0.6061 0.57602 0.0
C868 C 0.28625 0.60238 0.55682 0.0
H869 H 0.20681 0.61627 0.38284 0.0
H870 H 0.23977 0.60736 0.42799 0.0
H871 H 0.23488 0.62303 0.5598 0.0
H872 H 0.34575 0.64611 0.59872 0.0
H873 H 0.30616 0.63879 0.58595 0.0
C874 C 0.61104 0.94329 0.72097 0.0
C875 C 0.62574 0.92951 0.73976 0.0
C876 C 0.61678 0.96391 0.7236 0.0
C877 C 0.64714 1.00061 0.79935 0.0
H878 H 0.63504 0.03833 0.7159 0.0
C879 C 0.65236 0.09138 0.77462 0.0
C880 C 0.63827 0.10007 0.80233 0.0
C881 C 0.65569 0.07048 0.77012 0.0
C882 C 0.63869 0.02797 0.73954 0.0
H883 H 0.65836 0.92604 0.77369 0.0
H884 H 0.66852 0.962 0.77804 0.0
H885 H 0.63187 1.0018 0.69538 0.0
H886 H 0.61913 0.09382 0.85116 0.0
H887 H 0.62503 0.05706 0.8435 0.0
H888 H 0.65311 0.02687 0.84374 0.0
C889 C 0.65263 0.95693 0.76115 0.0
C890 C 0.63678 0.00709 0.72774 0.0
C891 C 0.64699 0.93631 0.75795 0.0
C892 C 0.62981 0.08766 0.82921 0.0
C893 C 0.63319 0.06656 0.82474 0.0
C894 C 0.64868 0.02154 0.81127 0.0
C895 C 0.63715 0.97106 0.74583 0.0
C896 C 0.64093 0.99318 0.75751 0.0
C897 C 0.64513 0.05772 0.79345 0.0
C898 C 0.64445 0.03544 0.78146 0.0
H899 H 0.59431 0.93851 0.70799 0.0
H900 H 0.60449 0.97448 0.71159 0.0
H901 H 0.6501 0.99022 0.82308 0.0
H902 H 0.65939 0.1006 0.75381 0.0
H903 H 0.66544 0.06417 0.74652 0.0
C904 C 0.81642 0.58859 0.85777 0.0
C905 C 0.83856 0.59416 0.87271 0.0
C906 C 0.80108 0.58574 0.88523 0.0
C907 C 0.79565 0.58075 0.99692 0.0
H908 H 0.73732 0.60315 0.96707 0.0
C909 C 0.73498 0.60441 0.11578 0.0
C910 C 0.71204 0.60132 0.10363 0.0
C911 C 0.75019 0.59986 0.08756 0.0
C912 C 0.75339 0.59652 0.97568 0.0
H913 H 0.86214 0.60025 0.92841 0.0
H914 H 0.83538 0.59571 0.97631 0.0
H915 H 0.7643 0.60194 0.91812 0.0
H916 H 0.68723 0.59018 0.05255 0.0
H917 H 0.71381 0.58227 1.00322 0.0
H918 H 0.78481 0.57607 0.05524 0.0
C919 C 0.82984 0.5932 0.94333 0.0
C920 C 0.76894 0.59577 0.94749 0.0
C921 C 0.84525 0.59585 0.91579 0.0
C922 C 0.70477 0.59275 0.06299 0.0
C923 C 0.71999 0.58836 0.03461 0.0
C924 C 0.78013 0.58165 0.02527 0.0
C925 C 0.80738 0.58859 0.92847 0.0
C926 C 0.79039 0.58805 0.95777 0.0
C927 C 0.74286 0.59225 0.04631 0.0
C928 C 0.75886 0.58972 0.01515 0.0
H929 H 0.81074 0.58699 0.82475 0.0
H930 H 0.78413 0.58168 0.87245 0.0
H931 H 0.81182 0.57439 1.00581 0.0
H932 H 0.74118 0.61096 0.14684 0.0
H933 H 0.76763 0.60319 0.09761 0.0
C934 C 0.14309 0.93123 0.77518 0.0
C935 C 0.14785 0.92941 0.81787 0.0
C936 C 0.15023 0.94842 0.7584 0.0
C937 C 0.16832 1.00184 0.79436 0.0
H938 H 0.17592 0.00442 0.6789 0.0
C939 C 0.18985 0.07699 0.74405 0.0
C940 C 0.17242 0.08412 0.71671 0.0
C941 C 0.1923 0.05625 0.74763 0.0
C942 C 0.17394 0.00383 0.71124 0.0
H943 H 0.16522 0.94301 0.87596 0.0
H944 H 0.1792 0.97208 0.84661 0.0
H945 H 0.17042 0.97138 0.7045 0.0
H946 H 0.1464 0.07493 0.6666 0.0
H947 H 0.15042 0.0385 0.67316 0.0
H948 H 0.17204 0.03411 0.80126 0.0
C949 C 0.16891 0.96103 0.82608 0.0
C950 C 0.17063 0.98494 0.72597 0.0
C951 C 0.16119 0.94421 0.84297 0.0
C952 C 0.1597 0.06996 0.68843 0.0
C953 C 0.16205 0.04905 0.69217 0.0
C954 C 0.17204 0.02049 0.77991 0.0
C955 C 0.16271 0.96391 0.78389 0.0
C956 C 0.16765 0.98368 0.76783 0.0
C957 C 0.17734 0.04219 0.72391 0.0
C958 C 0.17482 0.02177 0.73825 0.0
H959 H 0.13259 0.92007 0.75529 0.0
H960 H 0.14491 0.94998 0.72594 0.0
H961 H 0.1653 1.00188 0.82629 0.0
H962 H 0.19997 0.08757 0.76614 0.0
H963 H 0.20452 0.05136 0.77182 0.0
C964 C 0.66581 0.4061 0.46881 0.0
C965 C 0.65595 0.39308 0.43487 0.0
C966 C 0.68851 0.41044 0.47404 0.0
C967 C 0.73998 0.38578 0.44894 0.0
H968 H 0.7662 0.43282 0.51825 0.0
C969 C 0.83123 0.38685 0.5287 0.0
C970 C 0.83214 0.39027 0.57206 0.0
C971 C 0.8119 0.39134 0.50276 0.0
C972 C 0.75918 0.41967 0.49853 0.0
H973 H 0.66198 0.37592 0.3776 0.0
H974 H 0.70182 0.38363 0.38633 0.0
H975 H 0.72776 0.43401 0.48549 0.0
H976 H 0.81427 0.40224 0.62216 0.0
H977 H 0.78093 0.41073 0.57699 0.0
H978 H 0.77139 0.37137 0.46289 0.0
C979 C 0.69194 0.39021 0.40945 0.0
C980 C 0.73711 0.42028 0.47986 0.0
C981 C 0.66901 0.38591 0.40416 0.0
C982 C 0.81402 0.39949 0.58884 0.0
C983 C 0.79496 0.4044 0.56296 0.0
C984 C 0.76218 0.3853 0.46713 0.0
C985 C 0.70214 0.40186 0.44542 0.0
C986 C 0.72686 0.40301 0.4564 0.0
C987 C 0.7934 0.3998 0.51972 0.0
C988 C 0.77171 0.40194 0.4935 0.0
H989 H 0.65617 0.41192 0.49301 0.0
H990 H 0.69554 0.41931 0.50235 0.0
H991 H 0.73274 0.37211 0.43147 0.0
H992 H 0.84488 0.37955 0.51498 0.0
H993 H 0.81115 0.38766 0.46955 0.0
C994 C 0.38193 0.91386 0.17359 0.0
C995 C 0.36774 0.90325 0.19469 0.0
C996 C 0.38118 0.93507 0.17563 0.0
C997 C 0.38983 0.97503 0.23085 0.0
H998 H 0.34166 0.01284 0.21047 0.0
C999 C 0.40532 0.06034 0.24066 0.0
C1000 C 0.3889 0.07421 0.25086 0.0
C1001 C 0.40146 0.03954 0.23827 0.0
C1002 C 0.35516 0.00244 0.21721 0.0
H1003 H 0.33979 0.90606 0.22972 0.0
H1004 H 0.33789 0.94303 0.23182 0.0
H1005 H 0.33545 0.97649 0.18926 0.0
H1006 H 0.35549 0.07718 0.26666 0.0
H1007 H 0.34886 0.04046 0.26432 0.0
H1008 H 0.40939 1.00042 0.26017 0.0
C1009 C 0.34985 0.93507 0.21444 0.0
C1010 C 0.35165 0.9817 0.20449 0.0
C1011 C 0.35089 0.91391 0.21305 0.0
C1012 C 0.36876 0.06683 0.26048 0.0
C1013 C 0.36482 0.0458 0.2581 0.0
C1014 C 0.39321 0.99558 0.24427 0.0
C1015 C 0.3659 0.94587 0.19804 0.0
C1016 C 0.36914 0.96791 0.21039 0.0
C1017 C 0.38093 0.0319 0.2457 0.0
C1018 C 0.37612 0.00968 0.23679 0.0
H1019 H 0.39498 0.90613 0.1591 0.0
H1020 H 0.39357 0.94311 0.16227 0.0
H1021 H 0.40339 0.9646 0.23695 0.0
H1022 H 0.42072 0.0656 0.23168 0.0
H1023 H 0.41414 0.02951 0.22774 0.0
C1024 C 0.80665 0.91111 0.45145 0.0
C1025 C 0.7996 0.90305 0.41036 0.0
C1026 C 0.79115 0.91579 0.47914 0.0
C1027 C 0.73094 0.9239 0.48621 0.0
H1028 H 0.74488 0.90229 0.59249 0.0
C1029 C 0.66411 0.90893 0.59172 0.0
C1030 C 0.67039 0.91008 0.63488 0.0
C1031 C 0.67986 0.91197 0.56507 0.0
C1032 C 0.74078 0.90883 0.56338 0.0
H1033 H 0.77064 0.89472 0.36563 0.0
H1034 H 0.74373 0.90291 0.41374 0.0
H1035 H 0.77249 0.90099 0.54485 0.0
H1036 H 0.69772 0.91684 0.68403 0.0
H1037 H 0.72493 0.9228 0.63787 0.0
H1038 H 0.69908 0.93152 0.50461 0.0
C1039 C 0.76119 0.90563 0.42465 0.0
C1040 C 0.7567 0.90805 0.53594 0.0
C1041 C 0.77667 0.90083 0.39707 0.0
C1042 C 0.69239 0.91562 0.65089 0.0
C1043 C 0.70806 0.91886 0.62433 0.0
C1044 C 0.71503 0.92481 0.51381 0.0
C1045 C 0.76825 0.91268 0.46632 0.0
C1046 C 0.7519 0.91531 0.49677 0.0
C1047 C 0.70221 0.91642 0.58097 0.0
C1048 C 0.71962 0.91704 0.55261 0.0
H1049 H 0.82417 0.91304 0.46273 0.0
H1050 H 0.79714 0.92146 0.51088 0.0
H1051 H 0.72678 0.92984 0.45647 0.0
H1052 H 0.64732 0.90459 0.57834 0.0
H1053 H 0.67468 0.9098 0.53193 0.0
C1054 C 0.36167 0.43593 0.82553 0.0
C1055 C 0.34344 0.42388 0.80704 0.0
C1056 C 0.36034 0.45709 0.82811 0.0
C1057 C 0.33037 0.49426 0.76588 0.0
H1058 H 0.37213 0.53134 0.83523 0.0
C1059 C 0.35346 0.57328 0.71883 0.0
C1060 C 0.37647 0.5749 0.71798 0.0
C1061 C 0.34485 0.55773 0.73858 0.0
C1062 C 0.36017 0.52123 0.81587 0.0
H1063 H 0.30895 0.42416 0.78038 0.0
H1064 H 0.30611 0.46116 0.78678 0.0
H1065 H 0.3638 0.49866 0.85883 0.0
H1066 H 0.40853 0.56212 0.73839 0.0
H1067 H 0.3936 0.53541 0.77313 0.0
H1068 H 0.32731 0.51668 0.72245 0.0
C1069 C 0.32168 0.4544 0.79829 0.0
C1070 C 0.35547 0.50246 0.82925 0.0
C1071 C 0.32316 0.43322 0.79522 0.0
C1072 C 0.3907 0.56116 0.73819 0.0
C1073 C 0.38218 0.54599 0.75853 0.0
C1074 C 0.33485 0.51314 0.75281 0.0
C1075 C 0.34067 0.4666 0.81224 0.0
C1076 C 0.34131 0.48831 0.80353 0.0
C1077 C 0.35919 0.54396 0.75864 0.0
C1078 C 0.35055 0.5264 0.77682 0.0
H1079 H 0.37763 0.42913 0.83387 0.0
H1080 H 0.37542 0.4658 0.83876 0.0
H1081 H 0.31959 0.4838 0.74483 0.0
H1082 H 0.34214 0.58369 0.70348 0.0
H1083 H 0.32703 0.5564 0.73807 0.0
C1084 C 0.67329 0.12045 0.01385 0.0
C1085 C 0.66775 0.11452 0.97118 0.0
C1086 C 0.69437 0.11657 0.03425 0.0
C1087 C 0.7456 0.08655 0.02614 0.0
H1088 H 0.77513 0.13383 0.08911 0.0
C1089 C 0.83997 0.09779 0.04878 0.0
C1090 C 0.85053 0.11059 0.08246 0.0
C1091 C 0.81714 0.09407 0.04446 0.0
C1092 C 0.76709 0.12027 0.07265 0.0
H1093 H 0.67972 0.09887 0.91702 0.0
H1094 H 0.71652 0.09199 0.95271 0.0
H1095 H 0.73585 0.1353 0.06294 0.0
H1096 H 0.84558 0.12808 0.13995 0.0
H1097 H 0.80569 0.12128 0.13315 0.0
H1098 H 0.77695 0.07162 0.03516 0.0
C1099 C 0.70451 0.09966 0.97039 0.0
C1100 C 0.74451 0.12116 0.05741 0.0
C1101 C 0.68344 0.10369 0.94987 0.0
C1102 C 0.83806 0.11814 0.11376 0.0
C1103 C 0.81507 0.11442 0.10948 0.0
C1104 C 0.76816 0.08558 0.04172 0.0
C1105 C 0.7104 0.10649 0.0126 0.0
C1106 C 0.73363 0.10451 0.03301 0.0
C1107 C 0.80417 0.10306 0.0738 0.0
C1108 C 0.7794 0.10264 0.06411 0.0
H1109 H 0.6616 0.12876 0.03134 0.0
H1110 H 0.69828 0.1218 0.06687 0.0
H1111 H 0.73761 0.07335 0.00805 0.0
H1112 H 0.84915 0.09173 0.02408 0.0
H1113 H 0.80952 0.08537 0.0164 0.0
C1114 C 0.13061 0.59084 0.32884 0.0
C1115 C 0.14238 0.60201 0.30433 0.0
C1116 C 0.13239 0.56967 0.32655 0.0
C1117 C 0.1619 0.52412 0.29897 0.0
H1118 H 0.10562 0.50286 0.24106 0.0
C1119 C 0.14827 0.43768 0.2524 0.0
C1120 C 0.12766 0.43008 0.25925 0.0
C1121 C 0.15172 0.45871 0.25315 0.0
C1122 C 0.12139 0.5084 0.25769 0.0
H1123 H 0.16698 0.60015 0.26176 0.0
H1124 H 0.17082 0.56323 0.25927 0.0
H1125 H 0.11024 0.5392 0.2606 0.0
H1126 H 0.09467 0.43838 0.27275 0.0
H1127 H 0.10045 0.47449 0.2743 0.0
H1128 H 0.17283 0.49327 0.29784 0.0
C1129 C 0.15997 0.5708 0.27962 0.0
C1130 C 0.12399 0.52925 0.2688 0.0
C1131 C 0.15781 0.5919 0.28119 0.0
C1132 C 0.11045 0.44373 0.26565 0.0
C1133 C 0.11386 0.46458 0.2667 0.0
C1134 C 0.15916 0.5031 0.28866 0.0
C1135 C 0.14641 0.55946 0.30057 0.0
C1136 C 0.14414 0.53725 0.28993 0.0
C1137 C 0.13469 0.47248 0.26152 0.0
C1138 C 0.13872 0.49492 0.26834 0.0
H1139 H 0.11866 0.5981 0.34693 0.0
H1140 H 0.12181 0.56116 0.34307 0.0
H1141 H 0.17768 0.53006 0.31486 0.0
H1142 H 0.1621 0.42753 0.24925 0.0
H1143 H 0.16794 0.46418 0.2487 0.0
C1144 C 0.31708 0.0934 0.35587 0.0
C1145 C 0.3398 0.09455 0.37125 0.0
C1146 C 0.30118 0.09041 0.38214 0.0
C1147 C 0.29397 0.07819 0.48984 0.0
H1148 H 0.23951 0.10828 0.46785 0.0
C1149 C 0.23357 0.10038 0.61127 0.0
C1150 C 0.21062 0.09876 0.59754 0.0
C1151 C 0.24909 0.09652 0.58332 0.0
C1152 C 0.25449 0.09957 0.47418 0.0
H1153 H 0.36373 0.09281 0.42608 0.0
H1154 H 0.33608 0.08835 0.47234 0.0
H1155 H 0.26691 0.1078 0.41992 0.0
H1156 H 0.18609 0.09109 0.54376 0.0
H1157 H 0.21318 0.08465 0.495 0.0
H1158 H 0.28169 0.07089 0.54544 0.0
C1159 C 0.3304 0.0892 0.43974 0.0
C1160 C 0.27026 0.09918 0.4465 0.0
C1161 C 0.34635 0.09179 0.41319 0.0
C1162 C 0.20361 0.09246 0.55546 0.0
C1163 C 0.21913 0.08889 0.52743 0.0
C1164 C 0.27828 0.07885 0.51791 0.0
C1165 C 0.30751 0.08897 0.42483 0.0
C1166 C 0.29031 0.08851 0.45383 0.0
C1167 C 0.24203 0.09124 0.54089 0.0
C1168 C 0.25837 0.08959 0.51041 0.0
H1169 H 0.31153 0.0953 0.32359 0.0
H1170 H 0.28386 0.08967 0.36897 0.0
H1171 H 0.30896 0.06953 0.49645 0.0
H1172 H 0.23955 0.10517 0.64346 0.0
H1173 H 0.26661 0.09856 0.59463 0.0
C1174 C 0.65221 0.43135 0.2891 0.0
C1175 C 0.63544 0.43313 0.31517 0.0
C1176 C 0.65806 0.44801 0.26907 0.0
C1177 C 0.63581 0.4973 0.23724 0.0
H1178 H 0.69739 0.51218 0.23615 0.0
C1179 C 0.6859 0.57508 0.24633 0.0
C1180 C 0.67051 0.58589 0.22118 0.0
C1181 C 0.68493 0.55392 0.24391 0.0
C1182 C 0.68009 0.50816 0.23584 0.0
H1183 H 0.61222 0.45402 0.34151 0.0
H1184 H 0.62253 0.48282 0.30731 0.0
H1185 H 0.6884 0.4803 0.26248 0.0
H1186 H 0.64384 0.58293 0.17014 0.0
H1187 H 0.64213 0.54583 0.16538 0.0
H1188 H 0.6274 0.52557 0.21313 0.0
C1189 C 0.63086 0.46852 0.30147 0.0
C1190 C 0.67494 0.4898 0.25073 0.0
C1191 C 0.62508 0.452 0.32146 0.0
C1192 C 0.65585 0.57505 0.18999 0.0
C1193 C 0.65474 0.55376 0.18766 0.0
C1194 C 0.64093 0.5156 0.22243 0.0
C1195 C 0.64718 0.46671 0.27455 0.0
C1196 C 0.65275 0.48453 0.25303 0.0
C1197 C 0.6684 0.54305 0.21633 0.0
C1198 C 0.66316 0.52164 0.22288 0.0
H1199 H 0.6605 0.41702 0.28353 0.0
H1200 H 0.67073 0.4461 0.24858 0.0
H1201 H 0.61851 0.4935 0.2377 0.0
H1202 H 0.69736 0.5831 0.27076 0.0
H1203 H 0.69574 0.54637 0.26658 0.0
C1204 C 0.16498 0.90833 0.95494 0.0
C1205 C 0.15458 0.89291 0.92655 0.0
C1206 C 0.1879 0.91134 0.9591 0.0
C1207 C 0.23799 0.88105 0.94548 0.0
H1208 H 0.26659 0.93058 1.00057 0.0
C1209 C 0.32956 0.88499 0.02655 0.0
C1210 C 0.32939 0.88898 0.06958 0.0
C1211 C 0.31058 0.88862 0.99888 0.0
C1212 C 0.2589 0.91672 0.98468 0.0
H1213 H 0.15971 0.8694 0.87799 0.0
H1214 H 0.19999 0.875 0.88409 0.0
H1215 H 0.22868 0.93173 0.96512 0.0
H1216 H 0.30998 0.90086 0.1174 0.0
H1217 H 0.27726 0.90816 0.06901 0.0
H1218 H 0.26841 0.86616 0.96551 0.0
C1219 C 0.19043 0.8846 0.90386 0.0
C1220 C 0.2371 0.91728 0.96463 0.0
C1221 C 0.1673 0.88155 0.89981 0.0
C1222 C 0.31053 0.89779 0.08434 0.0
C1223 C 0.29186 0.90197 0.0567 0.0
C1224 C 0.26 0.8806 0.96471 0.0
C1225 C 0.20117 0.89895 0.93493 0.0
C1226 C 0.2259 0.89928 0.94655 0.0
C1227 C 0.29147 0.89687 0.01384 0.0
C1228 C 0.2703 0.89828 0.98593 0.0
H1229 H 0.15553 0.91719 0.97615 0.0
H1230 H 0.19525 0.92236 0.98374 0.0
H1231 H 0.23007 0.86681 0.93239 0.0
H1232 H 0.34381 0.8779 0.0145 0.0
H1233 H 0.3106 0.88447 0.96597 0.0
C1234 C 0.86584 0.56645 0.74655 0.0
C1235 C 0.88677 0.57287 0.7672 0.0
C1236 C 0.86014 0.54581 0.74072 0.0
C1237 C 0.87244 0.49481 0.7697 0.0
H1238 H 0.86814 0.47795 0.65151 0.0
C1239 C 0.85915 0.41157 0.70818 0.0
C1240 C 0.87782 0.40366 0.69122 0.0
C1241 C 0.85544 0.43245 0.71203 0.0
C1242 C 0.86909 0.48248 0.68448 0.0
H1243 H 0.91729 0.56314 0.8011 0.0
H1244 H 0.90674 0.52711 0.79333 0.0
H1245 H 0.86964 0.51426 0.67637 0.0
H1246 H 0.90625 0.41101 0.66179 0.0
H1247 H 0.89928 0.44775 0.667 0.0
H1248 H 0.87198 0.46307 0.7779 0.0
C1249 C 0.89489 0.53801 0.78117 0.0
C1250 C 0.86983 0.50318 0.69871 0.0
C1251 C 0.9008 0.55864 0.78619 0.0
C1252 C 0.89142 0.41672 0.67397 0.0
C1253 C 0.88756 0.43772 0.67743 0.0
C1254 C 0.87116 0.47414 0.75543 0.0
C1255 C 0.87511 0.53134 0.75624 0.0
C1256 C 0.87181 0.50951 0.74148 0.0
C1257 C 0.87029 0.44579 0.6987 0.0
C1258 C 0.86978 0.46778 0.71275 0.0
H1259 H 0.85503 0.57707 0.73064 0.0
H1260 H 0.84475 0.54102 0.72156 0.0
H1261 H 0.87415 0.49931 0.80277 0.0
H1262 H 0.84869 0.40179 0.72238 0.0
H1263 H 0.84192 0.43828 0.72822 0.0
C1264 C 0.148 0.21113 0.87698 0.0
C1265 C 0.16287 0.21698 0.85058 0.0
C1266 C 0.14351 0.22428 0.91122 0.0
C1267 C 0.16604 0.27088 0.97786 0.0
H1268 H 0.10755 0.27246 0.01347 0.0
C1269 C 0.13838 0.33504 0.09322 0.0
C1270 C 0.12772 0.32906 0.12587 0.0
C1271 C 0.14275 0.32085 0.06064 0.0
C1272 C 0.12401 0.27206 1.00404 0.0
H1273 H 0.18425 0.24137 0.83903 0.0
H1274 H 0.17589 0.26444 0.89734 0.0
H1275 H 0.11462 0.24888 0.95435 0.0
H1276 H 0.11307 0.30345 0.14952 0.0
H1277 H 0.12038 0.27875 0.09214 0.0
H1278 H 0.17514 0.29453 0.02686 0.0
C1279 C 0.16818 0.24952 0.89271 0.0
C1280 C 0.12813 0.25848 0.97022 0.0
C1281 C 0.17288 0.23631 0.85895 0.0
C1282 C 0.12142 0.30855 0.12499 0.0
C1283 C 0.12546 0.29443 0.09202 0.0
C1284 C 0.16181 0.28463 0.01121 0.0
C1285 C 0.15361 0.24367 0.91969 0.0
C1286 C 0.1492 0.25776 0.95645 0.0
C1287 C 0.13624 0.30041 0.05955 0.0
C1288 C 0.14075 0.28544 0.02461 0.0
H1289 H 0.14028 0.1962 0.87191 0.0
H1290 H 0.13247 0.21903 0.9315 0.0
H1291 H 0.18264 0.2705 0.9691 0.0
H1292 H 0.14347 0.35069 0.0929 0.0
H1293 H 0.15094 0.32594 0.03591 0.0
C1294 C 0.9824 0.88723 1.00597 0.0
C1295 C 0.99866 0.87301 0.99641 0.0
C1296 C 0.96372 0.88149 0.02285 0.0
C1297 C 0.9452 0.84358 0.08615 0.0
H1298 H 0.8903 0.87345 0.06831 0.0
C1299 C 0.89022 0.8618 0.2143 0.0
C1300 C 0.86749 0.86557 0.20463 0.0
C1301 C 0.9034 0.85661 0.18297 0.0
C1302 C 0.90523 0.86455 0.07333 0.0
H1303 H 0.00762 0.84127 0.99601 0.0
H1304 H 0.97461 0.83105 0.02552 0.0
H1305 H 0.91785 0.87537 0.02129 0.0
H1306 H 0.84049 0.86664 0.15478 0.0
H1307 H 0.86338 0.85706 0.09942 0.0
H1308 H 0.93255 0.83278 0.1383 0.0
C1309 C 0.9765 0.84678 0.01997 0.0
C1310 C 0.92125 0.8659 0.04656 0.0
C1311 C 0.9953 0.85257 1.00267 0.0
C1312 C 0.85796 0.86355 0.16294 0.0
C1313 C 0.87115 0.85822 0.13135 0.0
C1314 C 0.92905 0.84206 0.11275 0.0
C1315 C 0.96063 0.86128 0.03088 0.0
C1316 C 0.94188 0.85618 0.05368 0.0
C1317 C 0.89423 0.85524 0.1409 0.0
C1318 C 0.90923 0.85325 0.10781 0.0
H1319 H 0.9844 0.90309 1.00142 0.0
H1320 H 0.95222 0.89321 0.03139 0.0
H1321 H 0.96081 0.83582 0.09265 0.0
H1322 H 0.89814 0.86412 0.24612 0.0
H1323 H 0.92108 0.85499 0.19186 0.0
C1324 C 0.4109 0.63998 0.48367 0.0
C1325 C 0.41107 0.64555 0.5263 0.0
C1326 C 0.41418 0.65474 0.4569 0.0
C1327 C 0.40441 0.70924 0.45208 0.0
H1328 H 0.43576 0.70375 0.35561 0.0
C1329 C 0.40539 0.77526 0.35343 0.0
C1330 C 0.40026 0.77048 0.31053 0.0
C1331 C 0.41162 0.76002 0.37919 0.0
C1332 C 0.42689 0.70545 0.3824 0.0
H1333 H 0.41353 0.67083 0.57384 0.0
H1334 H 0.42097 0.69616 0.52851 0.0
H1335 H 0.43769 0.67649 0.40182 0.0
H1336 H 0.39835 0.74644 0.26028 0.0
H1337 H 0.40889 0.71952 0.30542 0.0
H1338 H 0.39309 0.73773 0.43272 0.0
C1339 C 0.4185 0.68052 0.51542 0.0
C1340 C 0.42798 0.68985 0.4088 0.0
C1341 C 0.41499 0.66589 0.54179 0.0
C1342 C 0.40257 0.75043 0.29335 0.0
C1343 C 0.4086 0.73507 0.31921 0.0
C1344 C 0.40331 0.7247 0.4259 0.0
C1345 C 0.41733 0.6753 0.47242 0.0
C1346 C 0.41682 0.69166 0.4441 0.0
C1347 C 0.41236 0.7396 0.36261 0.0
C1348 C 0.41458 0.72311 0.39081 0.0
H1349 H 0.40728 0.62443 0.47089 0.0
H1350 H 0.41293 0.65026 0.42388 0.0
H1351 H 0.39504 0.71091 0.47823 0.0
H1352 H 0.40359 0.79065 0.36722 0.0
H1353 H 0.4149 0.76414 0.41235 0.0
C1354 C 0.46934 0.1293 0.46558 0.0
C1355 C 0.47699 0.12691 0.42657 0.0
C1356 C 0.48384 0.13616 0.50133 0.0
C1357 C 0.54386 0.13687 0.53912 0.0
H1358 H 0.52733 0.17054 0.63401 0.0
C1359 C 0.6067 0.15193 0.6859 0.0
C1360 C 0.59838 0.14953 0.72319 0.0
C1361 C 0.59214 0.15424 0.64971 0.0
C1362 C 0.5322 0.16107 0.6078 0.0
H1363 H 0.50532 0.13126 0.39419 0.0
H1364 H 0.53031 0.14345 0.45599 0.0
H1365 H 0.50078 0.16474 0.57073 0.0
H1366 H 0.56848 0.14744 0.75202 0.0
H1367 H 0.54308 0.15163 0.68943 0.0
H1368 H 0.57486 0.13255 0.57611 0.0
C1369 C 0.51337 0.13953 0.45934 0.0
C1370 C 0.51696 0.15773 0.57155 0.0
C1371 C 0.499 0.1326 0.42385 0.0
C1372 C 0.57535 0.15026 0.72413 0.0
C1373 C 0.56077 0.15245 0.688 0.0
C1374 C 0.55901 0.14014 0.57523 0.0
C1375 C 0.50622 0.14082 0.49873 0.0
C1376 C 0.52256 0.14545 0.53683 0.0
C1377 C 0.56893 0.15373 0.64994 0.0
C1378 C 0.55337 0.15213 0.61027 0.0
H1379 H 0.45255 0.12488 0.46885 0.0
H1380 H 0.4778 0.13686 0.53118 0.0
H1381 H 0.54863 0.12698 0.51339 0.0
H1382 H 0.6244 0.15113 0.68437 0.0
H1383 H 0.59906 0.15557 0.62118 0.0
C1384 C 0.13872 0.78839 0.73835 0.0
C1385 C 0.12712 0.80685 0.74111 0.0
C1386 C 0.13827 0.77643 0.70065 0.0
C1387 C 0.12869 0.77608 0.58757 0.0
H1388 H 0.11668 0.71878 0.59099 0.0
C1389 C 0.11649 0.71877 0.43925 0.0
C1390 C 0.12424 0.69885 0.44262 0.0
C1391 C 0.1169 0.73272 0.4745 0.0
C1392 C 0.12041 0.73465 0.58944 0.0
H1393 H 0.10623 0.82723 0.70505 0.0
H1394 H 0.10593 0.80636 0.63876 0.0
H1395 H 0.11721 0.74196 0.65366 0.0
H1396 H 0.13921 0.67827 0.48576 0.0
H1397 H 0.14056 0.70268 0.54688 0.0
H1398 H 0.13237 0.7687 0.52346 0.0
C1399 C 0.11536 0.80131 0.66632 0.0
C1400 C 0.12057 0.74798 0.62542 0.0
C1401 C 0.11564 0.81332 0.70439 0.0
C1402 C 0.13295 0.69341 0.482 0.0
C1403 C 0.13354 0.70741 0.51717 0.0
C1404 C 0.12873 0.76268 0.5515 0.0
C1405 C 0.12632 0.78253 0.6643 0.0
C1406 C 0.12493 0.76881 0.62507 0.0
C1407 C 0.12522 0.72719 0.51406 0.0
C1408 C 0.1248 0.74172 0.55205 0.0
H1409 H 0.14803 0.78292 0.7656 0.0
H1410 H 0.14725 0.76224 0.70001 0.0
H1411 H 0.13223 0.79203 0.58641 0.0
H1412 H 0.10953 0.72347 0.40946 0.0
H1413 H 0.11011 0.74768 0.47079 0.0
C1414 C 0.48652 0.89227 0.07223 0.0
C1415 C 0.46805 0.87906 0.0677 0.0
C1416 C 0.50043 0.89215 0.04156 0.0
C1417 C 0.51891 0.86197 0.95153 0.0
H1418 H 0.53901 0.91481 0.92887 0.0
C1419 C 0.56916 0.9027 0.82907 0.0
C1420 C 0.58803 0.89048 0.82757 0.0
C1421 C 0.55385 0.89947 0.85598 0.0
C1422 C 0.53347 0.8999 0.93443 0.0
H1423 H 0.45018 0.85491 0.02691 0.0
H1424 H 0.47442 0.8551 0.97246 0.0
H1425 H 0.51266 0.91264 0.97787 0.0
H1426 H 0.60592 0.86552 0.85393 0.0
H1427 H 0.5791 0.8599 0.90204 0.0
H1428 H 0.53967 0.84936 0.90704 0.0
C1429 C 0.47802 0.86548 1.0003 0.0
C1430 C 0.51848 0.89865 0.96295 0.0
C1431 C 0.46395 0.86559 0.03129 0.0
C1432 C 0.59137 0.87492 0.85394 0.0
C1433 C 0.57597 0.87171 0.88137 0.0
C1434 C 0.534 0.86323 0.92267 0.0
C1435 C 0.49635 0.8789 1.00506 0.0
C1436 C 0.51116 0.87972 0.97228 0.0
C1437 C 0.55715 0.88416 0.88296 0.0
C1438 C 0.54144 0.88225 0.91385 0.0
H1439 H 0.49035 0.90287 0.09969 0.0
H1440 H 0.51459 0.90244 0.04671 0.0
H1441 H 0.51368 0.84715 0.95822 0.0
H1442 H 0.56601 0.91468 0.80875 0.0
H1443 H 0.53936 0.90908 0.85566 0.0
C1444 C 0.35494 0.30223 0.88808 0.0
C1445 C 0.35133 0.32271 0.90131 0.0
C1446 C 0.3563 0.28746 0.91602 0.0
C1447 C 0.36605 0.28125 0.02898 0.0
H1448 H 0.34382 0.22684 0.99135 0.0
C1449 C 0.3795 0.2147 0.13318 0.0
C1450 C 0.36158 0.20099 0.13126 0.0
C1451 C 0.37914 0.2293 0.10471 0.0
C1452 C 0.34998 0.24199 1.00262 0.0
H1453 H 0.34574 0.34357 0.95438 0.0
H1454 H 0.34733 0.31764 1.00291 0.0
H1455 H 0.33968 0.25295 0.94386 0.0
H1456 H 0.32934 0.1921 0.09709 0.0
H1457 H 0.32851 0.21761 0.04908 0.0
H1458 H 0.37549 0.27038 0.08837 0.0
C1459 C 0.34969 0.31309 0.97104 0.0
C1460 C 0.34787 0.25696 0.97509 0.0
C1461 C 0.34854 0.32794 0.94309 0.0
C1462 C 0.3435 0.20228 0.0999 0.0
C1463 C 0.34309 0.21688 0.07182 0.0
C1464 C 0.36799 0.26628 0.05671 0.0
C1465 C 0.35385 0.29266 0.95798 0.0
C1466 C 0.35586 0.27682 0.98781 0.0
C1467 C 0.36085 0.23065 0.07377 0.0
C1468 C 0.35987 0.24645 0.04395 0.0
H1469 H 0.35744 0.29762 0.85629 0.0
H1470 H 0.3599 0.27202 0.9048 0.0
H1471 H 0.37273 0.29627 0.03981 0.0
H1472 H 0.39362 0.21458 0.15704 0.0
H1473 H 0.39323 0.23954 0.10696 0.0
C1474 C 0.94788 0.12745 0.27948 0.0
C1475 C 0.95502 0.12791 0.24034 0.0
C1476 C 0.96312 0.12475 0.31452 0.0
C1477 C 0.02389 0.12678 0.35374 0.0
H1478 H 0.00516 0.09608 0.43835 0.0
C1479 C 0.06144 0.08803 0.51334 0.0
C1480 C 0.07641 0.10333 0.53244 0.0
C1481 C 0.0479 0.09069 0.47627 0.0
C1482 C 0.01087 0.10447 0.41486 0.0
H1483 H 0.98387 0.12573 0.20744 0.0
H1484 H 0.01029 0.12037 0.26812 0.0
H1485 H 0.97942 0.10089 0.37693 0.0
H1486 H 0.08894 0.1335 0.52735 0.0
H1487 H 0.06494 0.13841 0.46316 0.0
H1488 H 0.05567 0.12965 0.3911 0.0
C1489 C 0.993 0.12263 0.2721 0.0
C1490 C 0.99588 0.10755 0.37977 0.0
C1491 C 0.97778 0.12557 0.23713 0.0
C1492 C 0.07786 0.12126 0.51308 0.0
C1493 C 0.06405 0.12406 0.47619 0.0
C1494 C 0.039 0.12351 0.38872 0.0
C1495 C 0.98591 0.12217 0.31136 0.0
C1496 C 1.0021 0.11882 0.34871 0.0
C1497 C 0.0486 0.10892 0.45759 0.0
C1498 C 0.0327 0.11231 0.41984 0.0
H1499 H 0.93051 0.1294 0.28321 0.0
H1500 H 0.957 0.12492 0.34422 0.0
H1501 H 0.02929 0.13576 0.33086 0.0
H1502 H 0.06005 0.07398 0.52732 0.0
H1503 H 0.03672 0.07844 0.46248 0.0
C1504 C 0.86109 0.79349 0.11526 0.0
C1505 C 0.84117 0.78974 0.13113 0.0
C1506 C 0.86746 0.78077 0.08189 0.0
C1507 C 0.85834 0.72898 0.02885 0.0
H1508 H 0.87635 0.7511 0.93264 0.0
C1509 C 0.85971 0.67859 0.87633 0.0
C1510 C 0.8773 0.68083 0.85306 0.0
C1511 C 0.85665 0.69269 0.90978 0.0
C1512 C 0.87165 0.74465 0.95948 0.0
H1513 H 0.81246 0.76969 0.12436 0.0
H1514 H 0.82361 0.7476 0.06688 0.0
H1515 H 0.86954 0.77402 0.99319 0.0
H1516 H 0.90518 0.70006 0.84627 0.0
H1517 H 0.89997 0.72467 0.90516 0.0
H1518 H 0.86041 0.69971 0.99571 0.0
C1519 C 0.83437 0.76025 0.08018 0.0
C1520 C 0.86776 0.7578 0.99417 0.0
C1521 C 0.8279 0.77302 0.11299 0.0
C1522 C 0.89138 0.69794 0.86337 0.0
C1523 C 0.88838 0.71205 0.89715 0.0
C1524 C 0.86233 0.71589 0.99445 0.0
C1525 C 0.8542 0.76392 0.06416 0.0
C1526 C 0.8606 0.75011 0.0289 0.0
C1527 C 0.8712 0.70939 0.92128 0.0
C1528 C 0.86856 0.72353 0.95888 0.0
H1529 H 0.87153 0.80645 0.128 0.0
H1530 H 0.88284 0.78399 0.0702 0.0
H1531 H 0.85329 0.72254 0.05544 0.0
H1532 H 0.84841 0.66571 0.86914 0.0
H1533 H 0.84288 0.69039 0.92686 0.0
C1534 C 0.13817 0.14224 0.83547 0.0
C1535 C 0.13195 0.13241 0.79557 0.0
C1536 C 0.1223 0.1456 0.86309 0.0
C1537 C 0.08047 0.15651 0.90832 0.0
H1538 H 0.04756 0.10686 0.91346 0.0
C1539 C 1.0028 0.14728 0.99724 0.0
C1540 C 1.00275 0.12946 0.0175 0.0
C1541 C 0.0199 0.15092 0.97358 0.0
C1542 C 0.05664 0.12085 0.91258 0.0
H1543 H 0.10466 0.11873 0.75269 0.0
H1544 H 0.0771 0.12456 0.80042 0.0
H1545 H 0.0743 0.10755 0.86453 0.0
H1546 H 0.02144 0.10251 0.03179 0.0
H1547 H 0.05103 0.10892 0.99125 0.0
H1548 H 0.0625 0.16968 0.95693 0.0
C1549 C 0.09403 0.1297 0.81067 0.0
C1550 C 0.07184 0.1213 0.88424 0.0
C1551 C 0.10976 0.12644 0.78331 0.0
C1552 C 0.02082 0.11621 0.01605 0.0
C1553 C 0.03778 0.11986 0.99275 0.0
C1554 C 0.06493 0.15612 0.93666 0.0
C1555 C 0.10019 0.13881 0.85124 0.0
C1556 C 0.084 0.13906 0.88175 0.0
C1557 C 0.03711 0.1368 0.96993 0.0
C1558 C 0.05306 0.13816 0.93934 0.0
H1559 H 0.15529 0.14683 0.84553 0.0
H1560 H 0.12753 0.15256 0.89425 0.0
H1561 H 0.08955 0.17043 0.90688 0.0
H1562 H 0.98902 0.1577 0.99755 0.0
H1563 H 0.01897 0.1641 0.95624 0.0
C1564 C 0.61238 0.23011 0.65931 0.0
C1565 C 0.60928 0.23127 0.70131 0.0
C1566 C 0.6051 0.24568 0.63508 0.0
C1567 C 0.59856 0.29993 0.64298 0.0
H1568 H 0.56993 0.29015 0.52948 0.0
C1569 C 0.59537 0.36278 0.53097 0.0
C1570 C 0.60042 0.35609 0.49122 0.0
C1571 C 0.59023 0.34867 0.5578 0.0
C1572 C 0.57802 0.29319 0.56106 0.0
H1573 H 0.59584 0.24944 0.75089 0.0
H1574 H 0.58359 0.27715 0.70854 0.0
H1575 H 0.57239 0.26269 0.57449 0.0
H1576 H 0.60514 0.3297 0.44891 0.0
H1577 H 0.59619 0.3052 0.49485 0.0
H1578 H 0.6056 0.32996 0.629 0.0
C1579 C 0.59134 0.26396 0.69435 0.0
C1580 C 0.57928 0.27746 0.58688 0.0
C1581 C 0.59821 0.24809 0.71844 0.0
C1582 C 0.60016 0.33524 0.47861 0.0
C1583 C 0.59514 0.32118 0.50522 0.0
C1584 C 0.59759 0.31561 0.61697 0.0
C1585 C 0.59498 0.26299 0.65254 0.0
C1586 C 0.59012 0.2805 0.62772 0.0
C1587 C 0.59044 0.32763 0.5455 0.0
C1588 C 0.58794 0.31225 0.57522 0.0
H1589 H 0.62091 0.21731 0.64541 0.0
H1590 H 0.60834 0.2446 0.60311 0.0
H1591 H 0.60716 0.30265 0.67426 0.0
H1592 H 0.59585 0.37884 0.54151 0.0
H1593 H 0.58656 0.35423 0.58844 0.0
C1594 C 0.41873 0.84494 0.29421 0.0
C1595 C 0.40207 0.85966 0.29246 0.0
C1596 C 0.43556 0.84543 0.32809 0.0
C1597 C 0.46319 0.88332 0.40951 0.0
H1598 H 0.49444 0.8369 0.45129 0.0
C1599 C 0.52669 0.88881 0.55858 0.0
C1600 C 0.54482 0.87559 0.56039 0.0
C1601 C 0.51067 0.88769 0.52347 0.0
C1602 C 0.48611 0.85004 0.43949 0.0
H1603 H 0.38818 0.88468 0.32877 0.0
H1604 H 0.4169 0.88521 0.38798 0.0
H1605 H 0.46207 0.83155 0.39843 0.0
H1606 H 0.56079 0.85113 0.52695 0.0
H1607 H 0.53303 0.84937 0.46496 0.0
H1608 H 0.48708 0.9018 0.45073 0.0
C1609 C 0.41775 0.87383 0.36204 0.0
C1610 C 0.46746 0.84696 0.40929 0.0
C1611 C 0.40107 0.87334 0.32807 0.0
C1612 C 0.54726 0.86187 0.52574 0.0
C1613 C 0.53115 0.86063 0.49064 0.0
C1614 C 0.48177 0.88639 0.43971 0.0
C1615 C 0.43587 0.86058 0.36155 0.0
C1616 C 0.45561 0.86357 0.39414 0.0
C1617 C 0.51225 0.87306 0.48966 0.0
C1618 C 0.49342 0.86981 0.45531 0.0
H1619 H 0.41983 0.83393 0.26837 0.0
H1620 H 0.44906 0.83475 0.32664 0.0
H1621 H 0.45491 0.89651 0.39783 0.0
H1622 H 0.52412 0.89906 0.58547 0.0
H1623 H 0.49627 0.89736 0.52407 0.0
C1624 C 0.88152 0.18851 0.3081 0.0
C1625 C 0.86576 0.1929 0.27454 0.0
C1626 C 0.88214 0.19977 0.34698 0.0
C1627 C 0.86786 0.25027 0.39178 0.0
H1628 H 0.87375 0.2273 0.49732 0.0
C1629 C 0.86176 0.30146 0.54136 0.0
C1630 C 0.87686 0.29829 0.57651 0.0
C1631 C 0.85915 0.28706 0.5068 0.0
C1632 C 0.87233 0.23397 0.46814 0.0
H1633 H 0.83779 0.2121 0.2565 0.0
H1634 H 0.83905 0.2316 0.32371 0.0
H1635 H 0.87223 0.2048 0.43272 0.0
H1636 H 0.90041 0.27705 0.60354 0.0
H1637 H 0.89628 0.25207 0.54273 0.0
H1638 H 0.86849 0.27935 0.42648 0.0
C1639 C 0.85104 0.21963 0.31988 0.0
C1640 C 0.87144 0.22107 0.43118 0.0
C1641 C 0.85033 0.20839 0.28131 0.0
C1642 C 0.88856 0.27991 0.577 0.0
C1643 C 0.88616 0.26557 0.54211 0.0
C1644 C 0.86894 0.26312 0.42852 0.0
C1645 C 0.86718 0.21573 0.35295 0.0
C1646 C 0.86894 0.22911 0.3926 0.0
C1647 C 0.87183 0.26921 0.50613 0.0
C1648 C 0.87092 0.25518 0.46723 0.0
H1649 H 0.89395 0.17699 0.30415 0.0
H1650 H 0.89487 0.19652 0.37186 0.0
H1651 H 0.86642 0.25696 0.36259 0.0
H1652 H 0.85227 0.31534 0.54014 0.0
H1653 H 0.84746 0.29015 0.4802 0.0
C1654 C 0.53164 0.1052 0.96341 0.0
C1655 C 0.54372 0.12154 0.95279 0.0
C1656 C 0.51785 0.10805 0.99444 0.0
C1657 C 0.48335 0.14513 0.04463 0.0
H1658 H 0.48536 0.1071 0.12805 0.0
C1659 C 0.41112 0.12958 0.13994 0.0
C1660 C 0.41726 0.12626 0.18162 0.0
C1661 C 0.42748 0.13295 0.1146 0.0
C1662 C 0.48468 0.118 0.10528 0.0
H1663 H 0.55067 0.15379 0.96612 0.0
H1664 H 0.52607 0.15887 0.02038 0.0
H1665 H 0.51302 0.10513 0.08011 0.0
H1666 H 0.445 0.12353 0.22951 0.0
H1667 H 0.47343 0.12981 0.18592 0.0
H1668 H 0.45447 0.15757 0.06923 0.0
C1669 C 0.5276 0.14381 1.00481 0.0
C1670 C 0.50047 0.11678 0.07766 0.0
C1671 C 0.54182 0.14086 0.97415 0.0
C1672 C 0.43985 0.12679 0.19782 0.0
C1673 C 0.45612 0.13005 0.17268 0.0
C1674 C 0.46728 0.14618 0.07202 0.0
C1675 C 0.51543 0.1274 0.01515 0.0
C1676 C 0.49986 0.13017 0.04676 0.0
C1677 C 0.4502 0.13258 0.13046 0.0
C1678 C 0.46772 0.13253 0.1025 0.0
H1679 H 0.5327 0.09017 0.94734 0.0
H1680 H 0.50856 0.09516 1.00147 0.0
H1681 H 0.4824 0.15555 0.02089 0.0
H1682 H 0.3938 0.1287 0.1266 0.0
H1683 H 0.42241 0.13462 0.08208 0.0
C1684 C 0.65711 0.67851 0.07072 0.0
C1685 C 0.65981 0.68461 0.11362 0.0
C1686 C 0.65632 0.69294 0.04189 0.0
C1687 C 0.67134 0.74632 0.03183 0.0
H1688 H 0.62729 0.74063 0.93395 0.0
C1689 C 0.67091 0.79996 0.90345 0.0
C1690 C 0.65032 0.80747 0.88661 0.0
C1691 C 0.67199 0.78421 0.9291 0.0
C1692 C 0.63961 0.74249 0.96123 0.0
H1693 H 0.66416 0.71079 0.1596 0.0
H1694 H 0.66282 0.73578 0.10956 0.0
H1695 H 0.62974 0.71475 0.98289 0.0
H1696 H 0.61457 0.80399 0.88403 0.0
H1697 H 0.61652 0.77638 0.92869 0.0
H1698 H 0.68097 0.77418 0.01082 0.0
C1699 C 0.66146 0.71985 0.09812 0.0
C1700 C 0.64119 0.72754 0.98905 0.0
C1701 C 0.66215 0.70547 0.12688 0.0
C1702 C 0.63076 0.79845 0.89564 0.0
C1703 C 0.63186 0.78261 0.92142 0.0
C1704 C 0.66983 0.76119 1.00402 0.0
C1705 C 0.65835 0.71381 0.05524 0.0
C1706 C 0.65703 0.72932 0.02481 0.0
C1707 C 0.65252 0.77548 0.93892 0.0
C1708 C 0.65394 0.7595 0.96835 0.0
H1709 H 0.65518 0.66259 0.05932 0.0
H1710 H 0.65417 0.68774 0.00911 0.0
H1711 H 0.68387 0.74812 0.05881 0.0
H1712 H 0.68635 0.80633 0.89695 0.0
H1713 H 0.68818 0.77887 0.94133 0.0
C1714 C 0.95387 0.90524 0.48122 0.0
C1715 C 0.93269 0.89591 0.47373 0.0
C1716 C 0.96668 0.90575 0.52003 0.0
C1717 C 0.96591 0.90221 0.63106 0.0
H1718 H 0.02643 0.88375 0.62827 0.0
C1719 C 0.02523 0.88794 0.78019 0.0
C1720 C 0.04822 0.8908 0.7805 0.0
C1721 C 0.01036 0.88993 0.74423 0.0
C1722 C 0.00975 0.88934 0.62983 0.0
H1723 H 0.90836 0.88023 0.50283 0.0
H1724 H 0.93069 0.88166 0.571 0.0
H1725 H 1.00167 0.88478 0.56379 0.0
H1726 H 0.07337 0.89929 0.74383 0.0
H1727 H 0.04749 0.90367 0.68197 0.0
H1728 H 0.97412 0.9072 0.69712 0.0
C1729 C 0.93721 0.88854 0.54628 0.0
C1730 C 0.99549 0.88978 0.59272 0.0
C1731 C 0.92436 0.88782 0.50708 0.0
C1732 C 0.05581 0.89675 0.74462 0.0
C1733 C 0.04093 0.89905 0.7089 0.0
C1734 C 0.98032 0.90203 0.66833 0.0
C1735 C 0.95872 0.89711 0.55282 0.0
C1736 C 0.97344 0.89628 0.59283 0.0
C1737 C 0.01804 0.89514 0.70776 0.0
C1738 C 1.00251 0.89565 0.66824 0.0
H1739 H 0.96087 0.9119 0.45676 0.0
H1740 H 0.98304 0.91276 0.52427 0.0
H1741 H 0.94904 0.90741 0.63206 0.0
H1742 H 0.01874 0.88334 0.80722 0.0
H1743 H 0.99295 0.88662 0.7447 0.0
C1744 C 0.65575 0.70696 0.40052 0.0
C1745 C 0.67463 0.71185 0.38247 0.0
C1746 C 0.6506 0.71826 0.43666 0.0
C1747 C 0.67634 0.75444 0.5247 0.0
H1748 H 0.61552 0.76931 0.53665 0.0
C1749 C 0.65371 0.82236 0.63463 0.0
C1750 C 0.63595 0.82034 0.65763 0.0
C1751 C 0.65856 0.80682 0.6051 0.0
C1752 C 0.63256 0.76502 0.53406 0.0
H1753 H 0.70266 0.73264 0.38817 0.0
H1754 H 0.69353 0.75241 0.45009 0.0
H1755 H 0.62331 0.74668 0.47653 0.0
H1756 H 0.60957 0.80021 0.66804 0.0
H1757 H 0.61795 0.77303 0.61581 0.0
H1758 H 0.68563 0.77333 0.58141 0.0
C1759 C 0.68293 0.7396 0.43714 0.0
C1760 C 0.63704 0.75204 0.4996 0.0
C1761 C 0.68811 0.7283 0.40134 0.0
C1762 C 0.62346 0.80217 0.65105 0.0
C1763 C 0.62812 0.78669 0.62093 0.0
C1764 C 0.67188 0.7675 0.55886 0.0
C1765 C 0.66421 0.73469 0.45555 0.0
C1766 C 0.65905 0.74692 0.49402 0.0
C1767 C 0.64562 0.78894 0.59737 0.0
C1768 C 0.64999 0.77326 0.56356 0.0
H1769 H 0.64519 0.69415 0.38741 0.0
H1770 H 0.63619 0.71388 0.45018 0.0
H1771 H 0.69344 0.75042 0.52212 0.0
H1772 H 0.66366 0.83615 0.63888 0.0
H1773 H 0.672 0.80913 0.58723 0.0
C1774 C 0.49884 0.35425 0.50867 0.0
C1775 C 0.50239 0.3741 0.49873 0.0
C1776 C 0.48028 0.34972 0.528 0.0
C1777 C 0.42575 0.3711 0.55389 0.0
H1778 H 0.43658 0.34 0.64881 0.0
C1779 C 0.3616 0.37073 0.66981 0.0
C1780 C 0.37072 0.37274 0.71173 0.0
C1781 C 0.37518 0.36549 0.63877 0.0
C1782 C 0.43323 0.34878 0.62244 0.0
H1783 H 0.48862 0.40442 0.49972 0.0
H1784 H 0.45698 0.39672 0.53339 0.0
H1785 H 0.46483 0.34146 0.60263 0.0
H1786 H 0.40102 0.37146 0.75422 0.0
H1787 H 0.42465 0.3626 0.70089 0.0
H1788 H 0.39492 0.37966 0.57514 0.0
C1789 C 0.46814 0.38448 0.52608 0.0
C1790 C 0.44937 0.34937 0.59552 0.0
C1791 C 0.48655 0.38898 0.50707 0.0
C1792 C 0.39344 0.3692 0.72217 0.0
C1793 C 0.40701 0.36415 0.69139 0.0
C1794 C 0.40973 0.37069 0.58098 0.0
C1795 C 0.46483 0.36489 0.53746 0.0
C1796 C 0.44618 0.36113 0.56167 0.0
C1797 C 0.39823 0.3626 0.6491 0.0
C1798 C 0.41353 0.36008 0.61648 0.0
H1799 H 0.51079 0.34245 0.50311 0.0
H1800 H 0.47822 0.33441 0.53607 0.0
H1801 H 0.42241 0.37993 0.5276 0.0
H1802 H 0.34412 0.37358 0.66106 0.0
H1803 H 0.36768 0.36419 0.60667 0.0
C1804 C 0.90812 0.14315 0.98439 0.0
C1805 C 0.90384 0.14878 0.02508 0.0
C1806 C 0.91033 0.15805 0.95738 0.0
C1807 C 0.91461 0.2146 0.95415 0.0
H1808 H 0.884 0.20271 0.84253 0.0
C1809 C 0.87611 0.27617 0.85448 0.0
C1810 C 0.88002 0.27511 0.81287 0.0
C1811 C 0.88281 0.26048 0.87889 0.0
C1812 C 0.89286 0.20618 0.87343 0.0
H1813 H 0.89749 0.17407 0.06896 0.0
H1814 H 0.90146 0.19992 0.02279 0.0
H1815 H 0.89003 0.17557 0.88807 0.0
H1816 H 0.89362 0.25641 0.76399 0.0
H1817 H 0.90494 0.22879 0.80662 0.0
H1818 H 0.91626 0.24547 0.93998 0.0
C1819 C 0.90414 0.18425 0.01169 0.0
C1820 C 0.89646 0.19059 0.89955 0.0
C1821 C 0.90205 0.16942 0.03849 0.0
C1822 C 0.8906 0.25785 0.79608 0.0
C1823 C 0.89697 0.24197 0.82037 0.0
C1824 C 0.91071 0.2302 0.92824 0.0
C1825 C 0.90784 0.17881 0.97042 0.0
C1826 C 0.90693 0.19467 0.94065 0.0
C1827 C 0.89321 0.24317 0.86208 0.0
C1828 C 0.8994 0.22624 0.88791 0.0
H1829 H 0.90906 0.12725 0.97316 0.0
H1830 H 0.91339 0.15325 0.92599 0.0
H1831 H 0.92322 0.21829 0.98517 0.0
H1832 H 0.86806 0.28928 0.86835 0.0
H1833 H 0.87946 0.26172 0.91081 0.0
C1834 C 0.10384 0.64785 0.18161 0.0
C1835 C 0.10009 0.64741 0.22298 0.0
C1836 C 0.08582 0.6479 0.14991 0.0
C1837 C 0.02476 0.656 0.13053 0.0
H1838 H 0.02804 0.61941 0.03129 0.0
C1839 C 0.96213 0.65546 0.98118 0.0
C1840 C 0.9572 0.63696 0.9568 0.0
C1841 C 0.97724 0.65628 0.01743 0.0
C1842 C 0.02674 0.62949 0.05904 0.0
H1843 H 0.07476 0.64508 0.26312 0.0
H1844 H 0.04357 0.64605 0.20883 0.0
H1845 H 0.06007 0.62341 0.08505 0.0
H1846 H 0.96335 0.60467 0.95183 0.0
H1847 H 0.98967 0.60594 0.01587 0.0
H1848 H 0.99136 0.66194 0.10467 0.0
C1849 C 0.06023 0.64712 0.20066 0.0
C1850 C 0.04525 0.63207 0.08953 0.0
C1851 C 0.07814 0.64692 0.23201 0.0
C1852 C 0.96654 0.61903 0.97065 0.0
C1853 C 0.98187 0.61985 1.00686 0.0
C1854 C 0.00627 0.65348 0.09996 0.0
C1855 C 0.06379 0.64726 0.15909 0.0
C1856 C 0.0445 0.64536 0.12564 0.0
C1857 C 0.98801 0.63861 0.02978 0.0
C1858 C 0.00703 0.6402 0.06382 0.0
H1859 H 0.12063 0.64754 0.17372 0.0
H1860 H 0.08913 0.64803 0.11815 0.0
H1861 H 0.02363 0.66641 0.15792 0.0
H1862 H 0.95545 0.66952 0.97057 0.0
H1863 H 0.98166 0.67098 0.03404 0.0
C1864 C 0.62532 0.28462 0.2419 0.0
C1865 C 0.62769 0.30583 0.24313 0.0
C1866 C 0.62265 0.27238 0.20424 0.0
C1867 C 0.6336 0.2714 0.09531 0.0
H1868 H 0.59686 0.22274 0.08135 0.0
C1869 C 0.62012 0.21738 0.94198 0.0
C1870 C 0.62027 0.19636 0.94578 0.0
C1871 C 0.62058 0.23148 0.97705 0.0
C1872 C 0.60736 0.23616 0.08487 0.0
H1873 H 0.62874 0.33076 0.20499 0.0
H1874 H 0.62371 0.30933 0.13888 0.0
H1875 H 0.59694 0.24636 0.14344 0.0
H1876 H 0.62134 0.17381 0.98993 0.0
H1877 H 0.62224 0.19835 0.05091 0.0
H1878 H 0.64397 0.26109 0.03655 0.0
C1879 C 0.62414 0.3022 0.16741 0.0
C1880 C 0.6074 0.24976 0.12052 0.0
C1881 C 0.62675 0.31453 0.20534 0.0
C1882 C 0.62125 0.18984 0.98569 0.0
C1883 C 0.62156 0.20393 0.0207 0.0
C1884 C 0.63347 0.25781 0.05949 0.0
C1885 C 0.62228 0.28091 0.16642 0.0
C1886 C 0.62078 0.26742 0.1266 0.0
C1887 C 0.62102 0.22493 0.01682 0.0
C1888 C 0.62059 0.23987 0.0541 0.0
H1889 H 0.62579 0.27734 0.2703 0.0
H1890 H 0.62157 0.25609 0.20497 0.0
H1891 H 0.64432 0.28468 0.09907 0.0
H1892 H 0.61933 0.223 0.91178 0.0
H1893 H 0.62 0.24751 0.97287 0.0
C1894 C 0.9874 0.38059 0.56238 0.0
C1895 C 0.96535 0.37414 0.54953 0.0
C1896 C 1.00175 0.38356 0.53345 0.0
C1897 C 0.01 0.36578 0.42589 0.0
H1898 H 0.0592 0.40423 0.44887 0.0
C1899 C 0.07419 0.3774 0.31239 0.0
C1900 C 0.09654 0.38021 0.32955 0.0
C1901 C 0.05761 0.3757 0.33783 0.0
C1902 C 0.04569 0.39324 0.44225 0.0
H1903 H 0.94064 0.36672 0.49614 0.0
H1904 H 0.96566 0.37245 0.44501 0.0
H1905 H 0.02998 0.40612 0.49349 0.0
H1906 H 0.11908 0.38411 0.38677 0.0
H1907 H 0.0901 0.38105 0.43168 0.0
H1908 H 0.02575 0.35314 0.37415 0.0
C1909 C 0.97194 0.37493 0.47771 0.0
C1910 C 0.02886 0.39436 0.46777 0.0
C1911 C 0.95747 0.372 0.50693 0.0
C1912 C 0.10206 0.38125 0.37275 0.0
C1913 C 0.08544 0.37976 0.39836 0.0
C1914 C 0.02677 0.3648 0.40006 0.0
C1915 C 0.99448 0.38013 0.49065 0.0
C1916 C 0.01095 0.38044 0.46043 0.0
C1917 C 0.06295 0.37741 0.3812 0.0
C1918 C 0.045 0.37832 0.40836 0.0
H1919 H 0.99397 0.38219 0.59504 0.0
H1920 H 0.01895 0.38732 0.54485 0.0
H1921 H 0.9967 0.3546 0.41953 0.0
H1922 H 0.0693 0.37804 0.27948 0.0
H1923 H 0.04045 0.37434 0.32365 0.0
C1924 C 0.83861 0.70148 0.6059 0.0
C1925 C 0.85934 0.69399 0.62209 0.0
C1926 C 0.83724 0.71706 0.57979 0.0
C1927 C 0.8693 0.75857 0.54648 0.0
H1928 H 0.82402 0.75357 0.45044 0.0
C1929 C 0.8513 0.82332 0.43989 0.0
C1930 C 0.84837 0.81762 0.39684 0.0
C1931 C 0.85198 0.80862 0.46807 0.0
C1932 C 0.83683 0.75517 0.47699 0.0
H1933 H 0.895 0.69719 0.62264 0.0
H1934 H 0.89254 0.72449 0.57735 0.0
H1935 H 0.82733 0.72725 0.49802 0.0
H1936 H 0.8433 0.79189 0.34987 0.0
H1937 H 0.84443 0.76637 0.39891 0.0
H1938 H 0.87904 0.78635 0.52493 0.0
C1939 C 0.87733 0.71841 0.58552 0.0
C1940 C 0.83858 0.74018 0.50454 0.0
C1941 C 0.87873 0.70275 0.61169 0.0
C1942 C 0.84551 0.79689 0.38275 0.0
C1943 C 0.8461 0.78222 0.41092 0.0
C1944 C 0.86749 0.77364 0.51897 0.0
C1945 C 0.85654 0.72562 0.56891 0.0
C1946 C 0.85484 0.74166 0.53965 0.0
C1947 C 0.84963 0.78786 0.45394 0.0
C1948 C 0.85125 0.7721 0.48382 0.0
H1949 H 0.8233 0.69529 0.61339 0.0
H1950 H 0.82097 0.72246 0.5682 0.0
H1951 H 0.8819 0.76028 0.57335 0.0
H1952 H 0.85359 0.83912 0.45195 0.0
H1953 H 0.85441 0.81352 0.50099 0.0
C1954 C 0.58723 0.61809 0.01058 0.0
C1955 C 0.57886 0.60871 0.04234 0.0
C1956 C 0.57474 0.61814 0.97127 0.0
C1957 C 0.52504 0.59381 0.90454 0.0
H1958 H 0.52514 0.64287 0.84879 0.0
C1959 C 0.45641 0.61258 0.77343 0.0
C1960 C 0.46335 0.62036 0.73862 0.0
C1961 C 0.47172 0.60983 0.80836 0.0
C1962 C 0.5251 0.62898 0.86378 0.0
H1963 H 0.55067 0.59178 0.05662 0.0
H1964 H 0.52893 0.5925 0.98937 0.0
H1965 H 0.54993 0.64045 0.91315 0.0
H1966 H 0.49192 0.63123 0.71326 0.0
H1967 H 0.5185 0.62666 0.77444 0.0
H1968 H 0.49958 0.58271 0.85575 0.0
C1969 C 0.54533 0.5994 0.99427 0.0
C1970 C 0.53941 0.62753 0.90063 0.0
C1971 C 0.55781 0.5992 0.03328 0.0
C1972 C 0.48599 0.62514 0.73945 0.0
C1973 C 0.50122 0.62266 0.77459 0.0
C1974 C 0.51056 0.59537 0.86799 0.0
C1975 C 0.5535 0.60898 0.96271 0.0
C1976 C 0.53942 0.61 0.92181 0.0
C1977 C 0.49425 0.61505 0.8095 0.0
C1978 C 0.5103 0.61304 0.84738 0.0
H1979 H 0.60311 0.6259 0.01602 0.0
H1980 H 0.58172 0.62549 0.94766 0.0
H1981 H 0.52488 0.57987 0.91931 0.0
H1982 H 0.43912 0.60871 0.7738 0.0
H1983 H 0.46582 0.60407 0.83492 0.0
C1984 C 0.35997 0.28043 0.64836 0.0
C1985 C 0.34579 0.29655 0.63838 0.0
C1986 C 0.36582 0.2662 0.61707 0.0
C1987 C 0.34696 0.24675 0.5071 0.0
H1988 H 0.40421 0.22025 0.51554 0.0
C1989 C 0.37699 0.19623 0.37125 0.0
C1990 C 0.38533 0.17713 0.38048 0.0
C1991 C 0.37269 0.21086 0.40303 0.0
C1992 C 0.38811 0.22748 0.51297 0.0
H1993 H 0.32741 0.31094 0.58794 0.0
H1994 H 0.33831 0.28677 0.53334 0.0
H1995 H 0.39645 0.2463 0.57001 0.0
H1996 H 0.39605 0.15852 0.43038 0.0
H1997 H 0.38885 0.18429 0.48596 0.0
H1998 H 0.33893 0.22823 0.4495 0.0
C1999 C 0.34431 0.28455 0.56527 0.0
C2000 C 0.3836 0.24235 0.54422 0.0
C2001 C 0.33818 0.29853 0.59654 0.0
C2002 C 0.3895 0.17305 0.42224 0.0
C2003 C 0.38554 0.18782 0.45407 0.0
C2004 C 0.35161 0.23213 0.47564 0.0
C2005 C 0.35784 0.26793 0.57509 0.0
C2006 C 0.36293 0.2522 0.54173 0.0
C2007 C 0.37698 0.20682 0.44473 0.0
C2008 C 0.3722 0.22233 0.47827 0.0
H2009 H 0.36585 0.27836 0.68042 0.0
H2010 H 0.37602 0.25351 0.62601 0.0
H2011 H 0.33066 0.25355 0.50444 0.0
H2012 H 0.37358 0.19984 0.33942 0.0
H2013 H 0.36622 0.22543 0.39501 0.0
C2014 C 0.51435 0.64886 0.51136 0.0
C2015 C 0.51061 0.62834 0.51659 0.0
C2016 C 0.53298 0.6546 0.49359 0.0
C2017 C 0.58764 0.6353 0.46521 0.0
H2018 H 0.57726 0.67068 0.37709 0.0
C2019 C 0.65227 0.64093 0.35268 0.0
C2020 C 0.64317 0.6395 0.31076 0.0
C2021 C 0.63869 0.64558 0.3839 0.0
C2022 C 0.5805 0.66079 0.40167 0.0
H2023 H 0.52401 0.59799 0.50857 0.0
H2024 H 0.5559 0.60783 0.47761 0.0
H2025 H 0.54861 0.66662 0.42154 0.0
H2026 H 0.61284 0.6412 0.26849 0.0
H2027 H 0.58925 0.64935 0.32215 0.0
H2028 H 0.61878 0.62829 0.4437 0.0
C2029 C 0.54478 0.61962 0.4875 0.0
C2030 C 0.56413 0.65866 0.42754 0.0
C2031 C 0.52626 0.61392 0.50492 0.0
C2032 C 0.62047 0.64323 0.30053 0.0
C2033 C 0.6069 0.64777 0.3315 0.0
C2034 C 0.60391 0.63731 0.43921 0.0
C2035 C 0.54833 0.63998 0.48104 0.0
C2036 C 0.56716 0.64528 0.45868 0.0
C2037 C 0.61565 0.64845 0.37371 0.0
C2038 C 0.60026 0.64952 0.40611 0.0
H2039 H 0.50253 0.66037 0.5195 0.0
H2040 H 0.53523 0.67044 0.48922 0.0
H2041 H 0.59079 0.62521 0.48945 0.0
H2042 H 0.6697 0.6378 0.36129 0.0
H2043 H 0.64611 0.64621 0.416 0.0
C2044 C 0.10155 0.73866 0.18201 0.0
C2045 C 0.11748 0.74168 0.21735 0.0
C2046 C 0.09552 0.75478 0.15797 0.0
C2047 C 0.1184 0.80468 0.13833 0.0
H2048 H 0.06169 0.80948 0.0702 0.0
C2049 C 0.10454 0.87023 0.03765 0.0
C2050 C 0.098 0.86416 0.99539 0.0
C2051 C 0.10194 0.8571 0.06774 0.0
C2052 C 0.07758 0.80834 0.08918 0.0
H2053 H 0.13848 0.76394 0.25696 0.0
H2054 H 0.12712 0.7922 0.21698 0.0
H2055 H 0.06677 0.78298 0.11794 0.0
H2056 H 0.08255 0.83994 0.95206 0.0
H2057 H 0.07744 0.81717 1.00446 0.0
H2058 H 0.12925 0.82988 0.10975 0.0
C2059 C 0.11991 0.77736 0.20632 0.0
C2060 C 0.08057 0.79308 0.1164 0.0
C2061 C 0.12627 0.76122 0.22963 0.0
C2062 C 0.08711 0.84534 0.98426 0.0
C2063 C 0.08441 0.83217 0.01441 0.0
C2064 C 0.11532 0.81999 0.11171 0.0
C2065 C 0.1051 0.77428 0.16921 0.0
C2066 C 0.10111 0.79097 0.14129 0.0
C2067 C 0.0928 0.83754 0.05627 0.0
C2068 C 0.09495 0.822 0.08664 0.0
H2069 H 0.09471 0.72364 0.17173 0.0
H2070 H 0.08419 0.75167 0.12958 0.0
H2071 H 0.13469 0.80331 0.15572 0.0
H2072 H 0.11303 0.88464 0.04722 0.0
H2073 H 0.10825 0.86183 0.09982 0.0
C2074 C 0.04232 0.36907 0.05611 0.0
C2075 C 0.03724 0.38622 0.08217 0.0
C2076 C 0.02873 0.36351 0.0185 0.0
C2077 C 0.98983 0.3861 0.94082 0.0
H2078 H 0.96745 0.33147 0.905 0.0
C2079 C 0.93982 0.37012 0.78268 0.0
C2080 C 0.91924 0.36039 0.78126 0.0
C2081 C 0.95601 0.36941 0.81678 0.0
C2082 C 0.97359 0.34677 0.91473 0.0
H2083 H 0.0138 0.41074 0.08931 0.0
H2084 H 0.99044 0.40117 0.02421 0.0
H2085 H 0.99248 0.33813 0.97067 0.0
H2086 H 0.89935 0.34184 0.81356 0.0
H2087 H 0.92779 0.34093 0.87465 0.0
H2088 H 0.97085 0.39503 0.88609 0.0
C2089 C 0.00491 0.39207 0.03254 0.0
C2090 C 0.98803 0.35054 0.952 0.0
C2091 C 0.01828 0.3975 0.06998 0.0
C2092 C 0.9153 0.34919 0.8139 0.0
C2093 C 0.93156 0.34867 0.84865 0.0
C2094 C 0.97563 0.38235 0.9038 0.0
C2095 C 0.01001 0.37513 1.00622 0.0
C2096 C 0.99605 0.37034 0.96558 0.0
C2097 C 0.95176 0.35946 0.85098 0.0
C2098 C 0.96727 0.36269 0.89026 0.0
H2099 H 0.05651 0.35977 0.06497 0.0
H2100 H 0.03304 0.35038 0.99874 0.0
H2101 H 0.99587 0.40147 0.95024 0.0
H2102 H 0.94312 0.3789 0.75777 0.0
H2103 H 0.97154 0.3775 0.81719 0.0
C2104 C 0.3862 0.68826 0.81139 0.0
C2105 C 0.37486 0.69493 0.77478 0.0
C2106 C 0.38532 0.69944 0.84997 0.0
C2107 C 0.35436 0.74165 0.90194 0.0
H2108 H 0.40846 0.74776 0.97972 0.0
C2109 C 0.37091 0.80815 0.03139 0.0
C2110 C 0.38025 0.80341 0.07097 0.0
C2111 C 0.36852 0.7932 0.99764 0.0
C2112 C 0.39315 0.74602 0.9585 0.0
H2113 H 0.35338 0.7186 0.75089 0.0
H2114 H 0.35253 0.73812 0.81701 0.0
H2115 H 0.40757 0.72447 0.91675 0.0
H2116 H 0.39417 0.77914 0.1061 0.0
H2117 H 0.39033 0.75317 0.04692 0.0
H2118 H 0.34034 0.76392 0.94302 0.0
C2119 C 0.36168 0.72405 0.8164 0.0
C2120 C 0.39258 0.73258 0.92244 0.0
C2121 C 0.36241 0.71287 0.77812 0.0
C2122 C 0.38682 0.7833 0.07609 0.0
C2123 C 0.38477 0.76844 0.04218 0.0
C2124 C 0.35505 0.75527 0.93766 0.0
C2125 C 0.37322 0.71762 0.85293 0.0
C2126 C 0.37326 0.73043 0.89329 0.0
C2127 C 0.37573 0.77326 1.00255 0.0
C2128 C 0.37453 0.75779 0.96607 0.0
H2129 H 0.39629 0.67477 0.81047 0.0
H2130 H 0.39427 0.69387 0.87744 0.0
H2131 H 0.339 0.74008 0.88087 0.0
H2132 H 0.36567 0.82347 0.02636 0.0
H2133 H 0.36164 0.79738 0.96738 0.0
C2134 C 0.94541 0.6012 0.68171 0.0
C2135 C 0.92593 0.61262 0.68243 0.0
C2136 C 0.96036 0.60458 0.6542 0.0
C2137 C 0.97956 0.60331 0.57433 0.0
H2138 H 0.99787 0.6559 0.54711 0.0
C2139 C 0.02572 0.61 0.43497 0.0
C2140 C 0.04403 0.62336 0.43893 0.0
C2141 C 0.01184 0.61031 0.46574 0.0
C2142 C 0.99304 0.64113 0.55473 0.0
H2143 H 0.90662 0.63642 0.65457 0.0
H2144 H 0.93289 0.6423 0.60537 0.0
H2145 H 0.9723 0.65392 0.59915 0.0
H2146 H 0.0616 0.64803 0.47867 0.0
H2147 H 0.0374 0.64821 0.53326 0.0
H2148 H 1.00028 0.59039 0.53089 0.0
C2149 C 0.93672 0.63098 0.62696 0.0
C2150 C 0.9782 0.64 0.58409 0.0
C2151 C 0.92166 0.62762 0.65494 0.0
C2152 C 0.04797 0.63722 0.47479 0.0
C2153 C 0.03391 0.63754 0.50584 0.0
C2154 C 0.99425 0.60443 0.54524 0.0
C2155 C 0.95609 0.61922 0.62593 0.0
C2156 C 0.97135 0.62102 0.59423 0.0
C2157 C 0.01577 0.62394 0.50171 0.0
C2158 C 1.00107 0.6233 0.53473 0.0
H2159 H 0.94923 0.58966 0.70285 0.0
H2160 H 0.97529 0.59553 0.65491 0.0
H2161 H 0.97445 0.58843 0.58096 0.0
H2162 H 0.02203 0.59912 0.40791 0.0
H2163 H 0.99783 0.59986 0.46111 0.0
C2164 C 0.15089 0.27783 0.36249 0.0
C2165 C 0.13634 0.29437 0.36082 0.0
C2166 C 0.14829 0.26269 0.3884 0.0
C2167 C 0.12936 0.25538 0.48635 0.0
H2168 H 0.13364 0.19795 0.45127 0.0
C2169 C 0.12624 0.19501 0.6017 0.0
C2170 C 0.13966 0.17777 0.59735 0.0
C2171 C 0.12367 0.2086 0.5713 0.0
C2172 C 0.13272 0.21392 0.4618 0.0
H2173 H 0.10751 0.30799 0.38472 0.0
H2174 H 0.10321 0.28157 0.43102 0.0
H2175 H 0.13235 0.22257 0.40013 0.0
H2176 H 0.161 0.16137 0.55759 0.0
H2177 H 0.15729 0.18546 0.50536 0.0
H2178 H 0.13081 0.24705 0.54816 0.0
C2179 C 0.11646 0.28028 0.41171 0.0
C2180 C 0.13178 0.228 0.43236 0.0
C2181 C 0.1188 0.29528 0.38504 0.0
C2182 C 0.15048 0.17446 0.56183 0.0
C2183 C 0.14817 0.18823 0.53167 0.0
C2184 C 0.13063 0.24135 0.5159 0.0
C2185 C 0.13134 0.26395 0.4139 0.0
C2186 C 0.13026 0.24888 0.44439 0.0
C2187 C 0.13472 0.20551 0.53595 0.0
C2188 C 0.13252 0.22041 0.50413 0.0
H2189 H 0.16456 0.27677 0.34415 0.0
H2190 H 0.16012 0.2504 0.38971 0.0
H2191 H 0.12854 0.27141 0.49657 0.0
H2192 H 0.11743 0.1979 0.62842 0.0
H2193 H 0.11281 0.22143 0.57543 0.0
C2194 C 0.45516 0.40736 0.98753 0.0
C2195 C 0.43459 0.39706 0.97783 0.0
C2196 C 0.46822 0.40609 0.02561 0.0
C2197 C 0.46816 0.39411 0.13297 0.0
H2198 H 0.53014 0.3816 0.12641 0.0
C2199 C 0.52881 0.37386 0.27536 0.0
C2200 C 0.55113 0.38015 0.27842 0.0
C2201 C 0.5139 0.37654 0.23986 0.0
C2202 C 0.51299 0.38543 0.12904 0.0
H2203 H 0.41161 0.37754 1.00188 0.0
H2204 H 0.43435 0.37574 0.06883 0.0
H2205 H 0.50511 0.38546 0.06327 0.0
H2206 H 0.57506 0.39486 0.24706 0.0
H2207 H 0.54901 0.40009 0.18586 0.0
H2208 H 0.47613 0.39442 0.19888 0.0
C2209 C 0.44019 0.38486 0.04659 0.0
C2210 C 0.49861 0.38755 0.09273 0.0
C2211 C 0.4271 0.386 0.00816 0.0
C2212 C 0.55805 0.38964 0.24558 0.0
C2213 C 0.5431 0.39252 0.21029 0.0
C2214 C 0.48264 0.39219 0.16948 0.0
C2215 C 0.4611 0.39455 0.0553 0.0
C2216 C 0.47606 0.39199 0.09424 0.0
C2217 C 0.52088 0.38576 0.20666 0.0
C2218 C 0.50529 0.38788 0.168 0.0
H2219 H 0.46144 0.41622 0.96533 0.0
H2220 H 0.48408 0.41402 0.03169 0.0
H2221 H 0.4509 0.39767 0.13509 0.0
H2222 H 0.52292 0.36641 0.29999 0.0
H2223 H 0.49705 0.3709 0.23809 0.0
loop_
_geom_bond_atom_site_label_1
_geom_bond_atom_site_label_2
_geom_bond_distance
_geom_bond_site_symmetry_2
_ccdc_geom_bond_type
Zn0 N4 2.020 . S
Zn0 O8 2.019 . S
Zn0 N10 2.119 . S
Zn0 O18 1.975 . S
C1 N2 1.334 . S
C1 N5 1.336 . S
N2 C1 1.334 . S
N2 C3 1.334 . S
C3 N2 1.334 . S
C3 N4 1.336 . S
N4 Zn0 2.020 . S
N4 C3 1.336 . S
N4 N5 1.354 . S
N5 C1 1.336 . S
N5 N4 1.354 . S
N5 Zn9 2.020 . S
C6 O7 1.244 . S
C6 O30 1.257 . S
O7 C6 1.244 . S
O8 Zn0 2.019 . S
O8 C28 1.257 . S
Zn9 N5 2.020 . S
Zn9 O16 1.975 . S
Zn9 N25 2.119 . S
Zn9 O30 2.019 . S
N10 Zn0 2.119 . S
N10 C12 1.334 . S
N10 C13 1.328 . S
C11 C12 1.391 . S
C11 N14 1.329 . S
C11 H32 0.930 . S
C12 N10 1.334 . S
C12 C11 1.391 . S
C12 H19 0.930 . S
C13 N10 1.328 . S
C13 C15 1.392 . S
C13 H20 0.930 . S
N14 C11 1.329 . S
N14 C15 1.331 . S
C15 C13 1.392 . S
C15 N14 1.331 . S
O16 Zn9 1.975 . S
O16 C17 1.252 . S
C17 O16 1.252 . S
C17 O18 1.252 . S
O18 Zn0 1.975 . S
O18 C17 1.252 . S
H19 C12 0.930 . S
H20 C13 0.930 . S
C21 C22 1.392 . S
C21 N25 1.328 . S
C21 H27 0.930 . S
C22 C21 1.392 . S
C22 N26 1.331 . S
C23 C24 1.391 . S
C23 N26 1.329 . S
C23 H33 0.930 . S
C24 C23 1.391 . S
C24 N25 1.334 . S
C24 H31 0.930 . S
N25 Zn9 2.119 . S
N25 C21 1.328 . S
N25 C24 1.334 . S
N26 C22 1.331 . S
N26 C23 1.329 . S
H27 C21 0.930 . S
C28 O8 1.257 . S
C28 O29 1.244 . S
O29 C28 1.244 . S
O30 C6 1.257 . S
O30 Zn9 2.019 . S
H31 C24 0.930 . S
H32 C11 0.930 . S
H33 C23 0.930 . S
Zn34 N38 2.020 . S
Zn34 O42 2.019 . S
Zn34 N44 2.119 . S
Zn34 O52 1.975 . S
C35 N36 1.334 . S
C35 N39 1.336 . S
N36 C35 1.334 . S
N36 C37 1.334 . S
C37 N36 1.334 . S
C37 N38 1.336 . S
N38 Zn34 2.020 . S
N38 C37 1.336 . S
N38 N39 1.354 . S
N39 C35 1.336 . S
N39 N38 1.354 . S
N39 Zn43 2.020 . S
C40 O41 1.244 . S
C40 O64 1.257 . S
O41 C40 1.244 . S
O42 Zn34 2.019 . S
O42 C62 1.257 . S
Zn43 N39 2.020 . S
Zn43 O50 1.975 . S
Zn43 N59 2.119 . S
Zn43 O64 2.019 . S
N44 Zn34 2.119 . S
N44 C46 1.334 . S
N44 C47 1.328 . S
C45 C46 1.391 . S
C45 N48 1.329 . S
C45 H66 0.930 . S
C46 N44 1.334 . S
C46 C45 1.391 . S
C46 H53 0.930 . S
C47 N44 1.328 . S
C47 C49 1.392 . S
C47 H54 0.930 . S
N48 C45 1.329 . S
N48 C49 1.331 . S
C49 C47 1.392 . S
C49 N48 1.331 . S
O50 Zn43 1.975 . S
O50 C51 1.252 . S
C51 O50 1.252 . S
C51 O52 1.252 . S
O52 Zn34 1.975 . S
O52 C51 1.252 . S
H53 C46 0.930 . S
H54 C47 0.930 . S
C55 C56 1.392 . S
C55 N59 1.328 . S
C55 H61 0.930 . S
C56 C55 1.392 . S
C56 N60 1.331 . S
C57 C58 1.391 . S
C57 N60 1.329 . S
C57 H67 0.930 . S
C58 C57 1.391 . S
C58 N59 1.334 . S
C58 H65 0.930 . S
N59 Zn43 2.119 . S
N59 C55 1.328 . S
N59 C58 1.334 . S
N60 C56 1.331 . S
N60 C57 1.329 . S
H61 C55 0.930 . S
C62 O42 1.257 . S
C62 O63 1.244 . S
O63 C62 1.244 . S
O64 C40 1.257 . S
O64 Zn43 2.019 . S
H65 C58 0.930 . S
H66 C45 0.930 . S
H67 C57 0.930 . S
Zn68 N72 2.020 . S
Zn68 O76 2.019 . S
Zn68 N78 2.119 . S
Zn68 O86 1.975 . S
C69 N70 1.334 . S
C69 N73 1.336 . S
N70 C69 1.334 . S
N70 C71 1.334 . S
C71 N70 1.334 . S
C71 N72 1.336 . S
N72 Zn68 2.020 . S
N72 C71 1.336 . S
N72 N73 1.354 . S
N73 C69 1.336 . S
N73 N72 1.354 . S
N73 Zn77 2.020 . S
C74 O75 1.244 . S
C74 O98 1.257 . S
O75 C74 1.244 . S
O76 Zn68 2.019 . S
O76 C96 1.257 . S
Zn77 N73 2.020 . S
Zn77 O84 1.975 . S
Zn77 N93 2.119 . S
Zn77 O98 2.019 . S
N78 Zn68 2.119 . S
N78 C80 1.334 . S
N78 C81 1.328 . S
C79 C80 1.391 . S
C79 N82 1.329 . S
C79 H100 0.930 . S
C80 N78 1.334 . S
C80 C79 1.391 . S
C80 H87 0.930 . S
C81 N78 1.328 . S
C81 C83 1.392 . S
C81 H88 0.930 . S
N82 C79 1.329 . S
N82 C83 1.331 . S
C83 C81 1.392 . S
C83 N82 1.331 . S
O84 Zn77 1.975 . S
O84 C85 1.252 . S
C85 O84 1.252 . S
C85 O86 1.252 . S
O86 Zn68 1.975 . S
O86 C85 1.252 . S
H87 C80 0.930 . S
H88 C81 0.930 . S
C89 C90 1.392 . S
C89 N93 1.328 . S
C89 H95 0.930 . S
C90 C89 1.392 . S
C90 N94 1.331 . S
C91 C92 1.391 . S
C91 N94 1.329 . S
C91 H101 0.930 . S
C92 C91 1.391 . S
C92 N93 1.334 . S
C92 H99 0.930 . S
N93 Zn77 2.119 . S
N93 C89 1.328 . S
N93 C92 1.334 . S
N94 C90 1.331 . S
N94 C91 1.329 . S
H95 C89 0.930 . S
C96 O76 1.257 . S
C96 O97 1.244 . S
O97 C96 1.244 . S
O98 C74 1.257 . S
O98 Zn77 2.019 . S
H99 C92 0.930 . S
H100 C79 0.930 . S
H101 C91 0.930 . S
Zn102 N106 2.020 . S
Zn102 O110 2.019 . S
Zn102 N112 2.119 . S
Zn102 O120 1.975 . S
C103 N104 1.334 . S
C103 N107 1.336 . S
N104 C103 1.334 . S
N104 C105 1.334 . S
C105 N104 1.334 . S
C105 N106 1.336 . S
N106 Zn102 2.020 . S
N106 C105 1.336 . S
N106 N107 1.354 . S
N107 C103 1.336 . S
N107 N106 1.354 . S
N107 Zn111 2.020 . S
C108 O109 1.244 . S
C108 O132 1.257 . S
O109 C108 1.244 . S
O110 Zn102 2.019 . S
O110 C130 1.257 . S
Zn111 N107 2.020 . S
Zn111 O118 1.975 . S
Zn111 N127 2.119 . S
Zn111 O132 2.019 . S
N112 Zn102 2.119 . S
N112 C114 1.334 . S
N112 C115 1.328 . S
C113 C114 1.391 . S
C113 N116 1.329 . S
C113 H134 0.930 . S
C114 N112 1.334 . S
C114 C113 1.391 . S
C114 H121 0.930 . S
C115 N112 1.328 . S
C115 C117 1.392 . S
C115 H122 0.930 . S
N116 C113 1.329 . S
N116 C117 1.331 . S
C117 C115 1.392 . S
C117 N116 1.331 . S
O118 Zn111 1.975 . S
O118 C119 1.252 . S
C119 O118 1.252 . S
C119 O120 1.252 . S
O120 Zn102 1.975 . S
O120 C119 1.252 . S
H121 C114 0.930 . S
H122 C115 0.930 . S
C123 C124 1.392 . S
C123 N127 1.328 . S
C123 H129 0.930 . S
C124 C123 1.392 . S
C124 N128 1.331 . S
C125 C126 1.391 . S
C125 N128 1.329 . S
C125 H135 0.930 . S
C126 C125 1.391 . S
C126 N127 1.334 . S
C126 H133 0.930 . S
N127 Zn111 2.119 . S
N127 C123 1.328 . S
N127 C126 1.334 . S
N128 C124 1.331 . S
N128 C125 1.329 . S
H129 C123 0.930 . S
C130 O110 1.257 . S
C130 O131 1.244 . S
O131 C130 1.244 . S
O132 C108 1.257 . S
O132 Zn111 2.019 . S
H133 C126 0.930 . S
H134 C113 0.930 . S
H135 C125 0.930 . S
Zn136 N140 2.020 . S
Zn136 O144 2.019 . S
Zn136 N146 2.119 . S
Zn136 O154 1.975 . S
C137 N138 1.334 . S
C137 N141 1.336 . S
N138 C137 1.334 . S
N138 C139 1.334 . S
C139 N138 1.334 . S
C139 N140 1.336 . S
N140 Zn136 2.020 . S
N140 C139 1.336 . S
N140 N141 1.354 . S
N141 C137 1.336 . S
N141 N140 1.354 . S
N141 Zn145 2.020 . S
C142 O143 1.244 . S
C142 O166 1.257 . S
O143 C142 1.244 . S
O144 Zn136 2.019 . S
O144 C164 1.257 . S
Zn145 N141 2.020 . S
Zn145 O152 1.975 . S
Zn145 N161 2.119 . S
Zn145 O166 2.019 . S
N146 Zn136 2.119 . S
N146 C148 1.334 . S
N146 C149 1.328 . S
C147 C148 1.391 . S
C147 N150 1.329 . S
C147 H168 0.930 . S
C148 N146 1.334 . S
C148 C147 1.391 . S
C148 H155 0.930 . S
C149 N146 1.328 . S
C149 C151 1.392 . S
C149 H156 0.930 . S
N150 C147 1.329 . S
N150 C151 1.331 . S
C151 C149 1.392 . S
C151 N150 1.331 . S
O152 Zn145 1.975 . S
O152 C153 1.252 . S
C153 O152 1.252 . S
C153 O154 1.252 . S
O154 Zn136 1.975 . S
O154 C153 1.252 . S
H155 C148 0.930 . S
H156 C149 0.930 . S
C157 C158 1.392 . S
C157 N161 1.328 . S
C157 H163 0.930 . S
C158 C157 1.392 . S
C158 N162 1.331 . S
C159 C160 1.391 . S
C159 N162 1.329 . S
C159 H169 0.930 . S
C160 C159 1.391 . S
C160 N161 1.334 . S
C160 H167 0.930 . S
N161 Zn145 2.119 . S
N161 C157 1.328 . S
N161 C160 1.334 . S
N162 C158 1.331 . S
N162 C159 1.329 . S
H163 C157 0.930 . S
C164 O144 1.257 . S
C164 O165 1.244 . S
O165 C164 1.244 . S
O166 C142 1.257 . S
O166 Zn145 2.019 . S
H167 C160 0.930 . S
H168 C147 0.930 . S
H169 C159 0.930 . S
Zn170 N174 2.020 . S
Zn170 O178 2.019 . S
Zn170 N180 2.119 . S
Zn170 O188 1.975 . S
C171 N172 1.334 . S
C171 N175 1.336 . S
N172 C171 1.334 . S
N172 C173 1.334 . S
C173 N172 1.334 . S
C173 N174 1.336 . S
N174 Zn170 2.020 . S
N174 C173 1.336 . S
N174 N175 1.354 . S
N175 C171 1.336 . S
N175 N174 1.354 . S
N175 Zn179 2.020 . S
C176 O177 1.244 . S
C176 O200 1.257 . S
O177 C176 1.244 . S
O178 Zn170 2.019 . S
O178 C198 1.257 . S
Zn179 N175 2.020 . S
Zn179 O186 1.975 . S
Zn179 N195 2.119 . S
Zn179 O200 2.019 . S
N180 Zn170 2.119 . S
N180 C182 1.334 . S
N180 C183 1.328 . S
C181 C182 1.391 . S
C181 N184 1.329 . S
C181 H202 0.930 . S
C182 N180 1.334 . S
C182 C181 1.391 . S
C182 H189 0.930 . S
C183 N180 1.328 . S
C183 C185 1.392 . S
C183 H190 0.930 . S
N184 C181 1.329 . S
N184 C185 1.331 . S
C185 C183 1.392 . S
C185 N184 1.331 . S
O186 Zn179 1.975 . S
O186 C187 1.252 . S
C187 O186 1.252 . S
C187 O188 1.252 . S
O188 Zn170 1.975 . S
O188 C187 1.252 . S
H189 C182 0.930 . S
H190 C183 0.930 . S
C191 C192 1.392 . S
C191 N195 1.328 . S
C191 H197 0.930 . S
C192 C191 1.392 . S
C192 N196 1.331 . S
C193 C194 1.391 . S
C193 N196 1.329 . S
C193 H203 0.930 . S
C194 C193 1.391 . S
C194 N195 1.334 . S
C194 H201 0.930 . S
N195 Zn179 2.119 . S
N195 C191 1.328 . S
N195 C194 1.334 . S
N196 C192 1.331 . S
N196 C193 1.329 . S
H197 C191 0.930 . S
C198 O178 1.257 . S
C198 O199 1.244 . S
O199 C198 1.244 . S
O200 C176 1.257 . S
O200 Zn179 2.019 . S
H201 C194 0.930 . S
H202 C181 0.930 . S
H203 C193 0.930 . S
Zn204 N208 2.020 . S
Zn204 O212 2.019 . S
Zn204 N214 2.119 . S
Zn204 O222 1.975 . S
C205 N206 1.334 . S
C205 N209 1.336 . S
N206 C205 1.334 . S
N206 C207 1.334 . S
C207 N206 1.334 . S
C207 N208 1.336 . S
N208 Zn204 2.020 . S
N208 C207 1.336 . S
N208 N209 1.354 . S
N209 C205 1.336 . S
N209 N208 1.354 . S
N209 Zn213 2.020 . S
C210 O211 1.244 . S
C210 O234 1.257 . S
O211 C210 1.244 . S
O212 Zn204 2.019 . S
O212 C232 1.257 . S
Zn213 N209 2.020 . S
Zn213 O220 1.975 . S
Zn213 N229 2.119 . S
Zn213 O234 2.019 . S
N214 Zn204 2.119 . S
N214 C216 1.334 . S
N214 C217 1.328 . S
C215 C216 1.391 . S
C215 N218 1.329 . S
C215 H236 0.930 . S
C216 N214 1.334 . S
C216 C215 1.391 . S
C216 H223 0.930 . S
C217 N214 1.328 . S
C217 C219 1.392 . S
C217 H224 0.930 . S
N218 C215 1.329 . S
N218 C219 1.331 . S
C219 C217 1.392 . S
C219 N218 1.331 . S
O220 Zn213 1.975 . S
O220 C221 1.252 . S
C221 O220 1.252 . S
C221 O222 1.252 . S
O222 Zn204 1.975 . S
O222 C221 1.252 . S
H223 C216 0.930 . S
H224 C217 0.930 . S
C225 C226 1.392 . S
C225 N229 1.328 . S
C225 H231 0.930 . S
C226 C225 1.392 . S
C226 N230 1.331 . S
C227 C228 1.391 . S
C227 N230 1.329 . S
C227 H237 0.930 . S
C228 C227 1.391 . S
C228 N229 1.334 . S
C228 H235 0.930 . S
N229 Zn213 2.119 . S
N229 C225 1.328 . S
N229 C228 1.334 . S
N230 C226 1.331 . S
N230 C227 1.329 . S
H231 C225 0.930 . S
C232 O212 1.257 . S
C232 O233 1.244 . S
O233 C232 1.244 . S
O234 C210 1.257 . S
O234 Zn213 2.019 . S
H235 C228 0.930 . S
H236 C215 0.930 . S
H237 C227 0.930 . S
Zn238 N242 2.020 . S
Zn238 O246 2.019 . S
Zn238 N248 2.119 . S
Zn238 O256 1.975 . S
C239 N240 1.334 . S
C239 N243 1.336 . S
N240 C239 1.334 . S
N240 C241 1.334 . S
C241 N240 1.334 . S
C241 N242 1.336 . S
N242 Zn238 2.020 . S
N242 C241 1.336 . S
N242 N243 1.354 . S
N243 C239 1.336 . S
N243 N242 1.354 . S
N243 Zn247 2.020 . S
C244 O245 1.244 . S
C244 O268 1.257 . S
O245 C244 1.244 . S
O246 Zn238 2.019 . S
O246 C266 1.257 . S
Zn247 N243 2.020 . S
Zn247 O254 1.975 . S
Zn247 N263 2.119 . S
Zn247 O268 2.019 . S
N248 Zn238 2.119 . S
N248 C250 1.334 . S
N248 C251 1.328 . S
C249 C250 1.391 . S
C249 N252 1.329 . S
C249 H270 0.930 . S
C250 N248 1.334 . S
C250 C249 1.391 . S
C250 H257 0.930 . S
C251 N248 1.328 . S
C251 C253 1.392 . S
C251 H258 0.930 . S
N252 C249 1.329 . S
N252 C253 1.331 . S
C253 C251 1.392 . S
C253 N252 1.331 . S
O254 Zn247 1.975 . S
O254 C255 1.252 . S
C255 O254 1.252 . S
C255 O256 1.252 . S
O256 Zn238 1.975 . S
O256 C255 1.252 . S
H257 C250 0.930 . S
H258 C251 0.930 . S
C259 C260 1.392 . S
C259 N263 1.328 . S
C259 H265 0.930 . S
C260 C259 1.392 . S
C260 N264 1.331 . S
C261 C262 1.391 . S
C261 N264 1.329 . S
C261 H271 0.930 . S
C262 C261 1.391 . S
C262 N263 1.334 . S
C262 H269 0.930 . S
N263 Zn247 2.119 . S
N263 C259 1.328 . S
N263 C262 1.334 . S
N264 C260 1.331 . S
N264 C261 1.329 . S
H265 C259 0.930 . S
C266 O246 1.257 . S
C266 O267 1.244 . S
O267 C266 1.244 . S
O268 C244 1.257 . S
O268 Zn247 2.019 . S
H269 C262 0.930 . S
H270 C249 0.930 . S
H271 C261 0.930 . S
Zn272 N276 2.020 . S
Zn272 O280 2.019 . S
Zn272 N282 2.119 . S
Zn272 O290 1.975 . S
C273 N274 1.334 . S
C273 N277 1.336 . S
N274 C273 1.334 . S
N274 C275 1.334 . S
C275 N274 1.334 . S
C275 N276 1.336 . S
N276 Zn272 2.020 . S
N276 C275 1.336 . S
N276 N277 1.354 . S
N277 C273 1.336 . S
N277 N276 1.354 . S
N277 Zn281 2.020 . S
C278 O279 1.244 . S
C278 O302 1.257 . S
O279 C278 1.244 . S
O280 Zn272 2.019 . S
O280 C300 1.257 . S
Zn281 N277 2.020 . S
Zn281 O288 1.975 . S
Zn281 N297 2.119 . S
Zn281 O302 2.019 . S
N282 Zn272 2.119 . S
N282 C284 1.334 . S
N282 C285 1.328 . S
C283 C284 1.391 . S
C283 N286 1.329 . S
C283 H304 0.930 . S
C284 N282 1.334 . S
C284 C283 1.391 . S
C284 H291 0.930 . S
C285 N282 1.328 . S
C285 C287 1.392 . S
C285 H292 0.930 . S
N286 C283 1.329 . S
N286 C287 1.331 . S
C287 C285 1.392 . S
C287 N286 1.331 . S
O288 Zn281 1.975 . S
O288 C289 1.252 . S
C289 O288 1.252 . S
C289 O290 1.252 . S
O290 Zn272 1.975 . S
O290 C289 1.252 . S
H291 C284 0.930 . S
H292 C285 0.930 . S
C293 C294 1.392 . S
C293 N297 1.328 . S
C293 H299 0.930 . S
C294 C293 1.392 . S
C294 N298 1.331 . S
C295 C296 1.391 . S
C295 N298 1.329 . S
C295 H305 0.930 . S
C296 C295 1.391 . S
C296 N297 1.334 . S
C296 H303 0.930 . S
N297 Zn281 2.119 . S
N297 C293 1.328 . S
N297 C296 1.334 . S
N298 C294 1.331 . S
N298 C295 1.329 . S
H299 C293 0.930 . S
C300 O280 1.257 . S
C300 O301 1.244 . S
O301 C300 1.244 . S
O302 C278 1.257 . S
O302 Zn281 2.019 . S
H303 C296 0.930 . S
H304 C283 0.930 . S
H305 C295 0.930 . S
Zn306 N310 2.020 . S
Zn306 O314 2.019 . S
Zn306 N316 2.119 . S
Zn306 O324 1.975 . S
C307 N308 1.334 . S
C307 N311 1.336 . S
N308 C307 1.334 . S
N308 C309 1.334 . S
C309 N308 1.334 . S
C309 N310 1.336 . S
N310 Zn306 2.020 . S
N310 C309 1.336 . S
N310 N311 1.354 . S
N311 C307 1.336 . S
N311 N310 1.354 . S
N311 Zn315 2.020 . S
C312 O313 1.244 . S
C312 O336 1.257 . S
O313 C312 1.244 . S
O314 Zn306 2.019 . S
O314 C334 1.257 . S
Zn315 N311 2.020 . S
Zn315 O322 1.975 . S
Zn315 N331 2.119 . S
Zn315 O336 2.019 . S
N316 Zn306 2.119 . S
N316 C318 1.334 . S
N316 C319 1.328 . S
C317 C318 1.391 . S
C317 N320 1.329 . S
C317 H338 0.930 . S
C318 N316 1.334 . S
C318 C317 1.391 . S
C318 H325 0.930 . S
C319 N316 1.328 . S
C319 C321 1.392 . S
C319 H326 0.930 . S
N320 C317 1.329 . S
N320 C321 1.331 . S
C321 C319 1.392 . S
C321 N320 1.331 . S
O322 Zn315 1.975 . S
O322 C323 1.252 . S
C323 O322 1.252 . S
C323 O324 1.252 . S
O324 Zn306 1.975 . S
O324 C323 1.252 . S
H325 C318 0.930 . S
H326 C319 0.930 . S
C327 C328 1.392 . S
C327 N331 1.328 . S
C327 H333 0.930 . S
C328 C327 1.392 . S
C328 N332 1.331 . S
C329 C330 1.391 . S
C329 N332 1.329 . S
C329 H339 0.930 . S
C330 C329 1.391 . S
C330 N331 1.334 . S
C330 H337 0.930 . S
N331 Zn315 2.119 . S
N331 C327 1.328 . S
N331 C330 1.334 . S
N332 C328 1.331 . S
N332 C329 1.329 . S
H333 C327 0.930 . S
C334 O314 1.257 . S
C334 O335 1.244 . S
O335 C334 1.244 . S
O336 C312 1.257 . S
O336 Zn315 2.019 . S
H337 C330 0.930 . S
H338 C317 0.930 . S
H339 C329 0.930 . S
Zn340 N344 2.020 . S
Zn340 O348 2.019 . S
Zn340 N350 2.119 . S
Zn340 O358 1.975 . S
C341 N342 1.334 . S
C341 N345 1.336 . S
N342 C341 1.334 . S
N342 C343 1.334 . S
C343 N342 1.334 . S
C343 N344 1.336 . S
N344 Zn340 2.020 . S
N344 C343 1.336 . S
N344 N345 1.354 . S
N345 C341 1.336 . S
N345 N344 1.354 . S
N345 Zn349 2.020 . S
C346 O347 1.244 . S
C346 O370 1.257 . S
O347 C346 1.244 . S
O348 Zn340 2.019 . S
O348 C368 1.257 . S
Zn349 N345 2.020 . S
Zn349 O356 1.975 . S
Zn349 N365 2.119 . S
Zn349 O370 2.019 . S
N350 Zn340 2.119 . S
N350 C352 1.334 . S
N350 C353 1.328 . S
C351 C352 1.391 . S
C351 N354 1.329 . S
C351 H372 0.930 . S
C352 N350 1.334 . S
C352 C351 1.391 . S
C352 H359 0.930 . S
C353 N350 1.328 . S
C353 C355 1.392 . S
C353 H360 0.930 . S
N354 C351 1.329 . S
N354 C355 1.331 . S
C355 C353 1.392 . S
C355 N354 1.331 . S
O356 Zn349 1.975 . S
O356 C357 1.252 . S
C357 O356 1.252 . S
C357 O358 1.252 . S
O358 Zn340 1.975 . S
O358 C357 1.252 . S
H359 C352 0.930 . S
H360 C353 0.930 . S
C361 C362 1.392 . S
C361 N365 1.328 . S
C361 H367 0.930 . S
C362 C361 1.392 . S
C362 N366 1.331 . S
C363 C364 1.391 . S
C363 N366 1.329 . S
C363 H373 0.930 . S
C364 C363 1.391 . S
C364 N365 1.334 . S
C364 H371 0.930 . S
N365 Zn349 2.119 . S
N365 C361 1.328 . S
N365 C364 1.334 . S
N366 C362 1.331 . S
N366 C363 1.329 . S
H367 C361 0.930 . S
C368 O348 1.257 . S
C368 O369 1.244 . S
O369 C368 1.244 . S
O370 C346 1.257 . S
O370 Zn349 2.019 . S
H371 C364 0.930 . S
H372 C351 0.930 . S
H373 C363 0.930 . S
Zn374 N378 2.020 . S
Zn374 O382 2.019 . S
Zn374 N384 2.119 . S
Zn374 O392 1.975 . S
C375 N376 1.334 . S
C375 N379 1.336 . S
N376 C375 1.334 . S
N376 C377 1.334 . S
C377 N376 1.334 . S
C377 N378 1.336 . S
N378 Zn374 2.020 . S
N378 C377 1.336 . S
N378 N379 1.354 . S
N379 C375 1.336 . S
N379 N378 1.354 . S
N379 Zn383 2.020 . S
C380 O381 1.244 . S
C380 O404 1.257 . S
O381 C380 1.244 . S
O382 Zn374 2.019 . S
O382 C402 1.257 . S
Zn383 N379 2.020 . S
Zn383 O390 1.975 . S
Zn383 N399 2.119 . S
Zn383 O404 2.019 . S
N384 Zn374 2.119 . S
N384 C386 1.334 . S
N384 C387 1.328 . S
C385 C386 1.391 . S
C385 N388 1.329 . S
C385 H406 0.930 . S
C386 N384 1.334 . S
C386 C385 1.391 . S
C386 H393 0.930 . S
C387 N384 1.328 . S
C387 C389 1.392 . S
C387 H394 0.930 . S
N388 C385 1.329 . S
N388 C389 1.331 . S
C389 C387 1.392 . S
C389 N388 1.331 . S
O390 Zn383 1.975 . S
O390 C391 1.252 . S
C391 O390 1.252 . S
C391 O392 1.252 . S
O392 Zn374 1.975 . S
O392 C391 1.252 . S
H393 C386 0.930 . S
H394 C387 0.930 . S
C395 C396 1.392 . S
C395 N399 1.328 . S
C395 H401 0.930 . S
C396 C395 1.392 . S
C396 N400 1.331 . S
C397 C398 1.391 . S
C397 N400 1.329 . S
C397 H407 0.930 . S
C398 C397 1.391 . S
C398 N399 1.334 . S
C398 H405 0.930 . S
N399 Zn383 2.119 . S
N399 C395 1.328 . S
N399 C398 1.334 . S
N400 C396 1.331 . S
N400 C397 1.329 . S
H401 C395 0.930 . S
C402 O382 1.257 . S
C402 O403 1.244 . S
O403 C402 1.244 . S
O404 C380 1.257 . S
O404 Zn383 2.019 . S
H405 C398 0.930 . S
H406 C385 0.930 . S
H407 C397 0.930 . S
Zn408 N412 2.020 . S
Zn408 O416 2.019 . S
Zn408 N418 2.119 . S
Zn408 O426 1.975 . S
C409 N410 1.334 . S
C409 N413 1.336 . S
N410 C409 1.334 . S
N410 C411 1.334 . S
C411 N410 1.334 . S
C411 N412 1.336 . S
N412 Zn408 2.020 . S
N412 C411 1.336 . S
N412 N413 1.354 . S
N413 C409 1.336 . S
N413 N412 1.354 . S
N413 Zn417 2.020 . S
C414 O415 1.244 . S
C414 O438 1.257 . S
O415 C414 1.244 . S
O416 Zn408 2.019 . S
O416 C436 1.257 . S
Zn417 N413 2.020 . S
Zn417 O424 1.975 . S
Zn417 N433 2.119 . S
Zn417 O438 2.019 . S
N418 Zn408 2.119 . S
N418 C420 1.334 . S
N418 C421 1.328 . S
C419 C420 1.391 . S
C419 N422 1.329 . S
C419 H440 0.930 . S
C420 N418 1.334 . S
C420 C419 1.391 . S
C420 H427 0.930 . S
C421 N418 1.328 . S
C421 C423 1.392 . S
C421 H428 0.930 . S
N422 C419 1.329 . S
N422 C423 1.331 . S
C423 C421 1.392 . S
C423 N422 1.331 . S
O424 Zn417 1.975 . S
O424 C425 1.252 . S
C425 O424 1.252 . S
C425 O426 1.252 . S
O426 Zn408 1.975 . S
O426 C425 1.252 . S
H427 C420 0.930 . S
H428 C421 0.930 . S
C429 C430 1.392 . S
C429 N433 1.328 . S
C429 H435 0.930 . S
C430 C429 1.392 . S
C430 N434 1.331 . S
C431 C432 1.391 . S
C431 N434 1.329 . S
C431 H441 0.930 . S
C432 C431 1.391 . S
C432 N433 1.334 . S
C432 H439 0.930 . S
N433 Zn417 2.119 . S
N433 C429 1.328 . S
N433 C432 1.334 . S
N434 C430 1.331 . S
N434 C431 1.329 . S
H435 C429 0.930 . S
C436 O416 1.257 . S
C436 O437 1.244 . S
O437 C436 1.244 . S
O438 C414 1.257 . S
O438 Zn417 2.019 . S
H439 C432 0.930 . S
H440 C419 0.930 . S
H441 C431 0.930 . S
Zn442 N446 2.020 . S
Zn442 O450 2.019 . S
Zn442 N452 2.119 . S
Zn442 O460 1.975 . S
C443 N444 1.334 . S
C443 N447 1.336 . S
N444 C443 1.334 . S
N444 C445 1.334 . S
C445 N444 1.334 . S
C445 N446 1.336 . S
N446 Zn442 2.020 . S
N446 C445 1.336 . S
N446 N447 1.354 . S
N447 C443 1.336 . S
N447 N446 1.354 . S
N447 Zn451 2.020 . S
C448 O449 1.244 . S
C448 O472 1.257 . S
O449 C448 1.244 . S
O450 Zn442 2.019 . S
O450 C470 1.257 . S
Zn451 N447 2.020 . S
Zn451 O458 1.975 . S
Zn451 N467 2.119 . S
Zn451 O472 2.019 . S
N452 Zn442 2.119 . S
N452 C454 1.334 . S
N452 C455 1.328 . S
C453 C454 1.391 . S
C453 N456 1.329 . S
C453 H474 0.930 . S
C454 N452 1.334 . S
C454 C453 1.391 . S
C454 H461 0.930 . S
C455 N452 1.328 . S
C455 C457 1.392 . S
C455 H462 0.930 . S
N456 C453 1.329 . S
N456 C457 1.331 . S
C457 C455 1.392 . S
C457 N456 1.331 . S
O458 Zn451 1.975 . S
O458 C459 1.252 . S
C459 O458 1.252 . S
C459 O460 1.252 . S
O460 Zn442 1.975 . S
O460 C459 1.252 . S
H461 C454 0.930 . S
H462 C455 0.930 . S
C463 C464 1.392 . S
C463 N467 1.328 . S
C463 H469 0.930 . S
C464 C463 1.392 . S
C464 N468 1.331 . S
C465 C466 1.391 . S
C465 N468 1.329 . S
C465 H475 0.930 . S
C466 C465 1.391 . S
C466 N467 1.334 . S
C466 H473 0.930 . S
N467 Zn451 2.119 . S
N467 C463 1.328 . S
N467 C466 1.334 . S
N468 C464 1.331 . S
N468 C465 1.329 . S
H469 C463 0.930 . S
C470 O450 1.257 . S
C470 O471 1.244 . S
O471 C470 1.244 . S
O472 C448 1.257 . S
O472 Zn451 2.019 . S
H473 C466 0.930 . S
H474 C453 0.930 . S
H475 C465 0.930 . S
Zn476 N480 2.020 . S
Zn476 O484 2.019 . S
Zn476 N486 2.119 . S
Zn476 O494 1.975 . S
C477 N478 1.334 . S
C477 N481 1.336 . S
N478 C477 1.334 . S
N478 C479 1.334 . S
C479 N478 1.334 . S
C479 N480 1.336 . S
N480 Zn476 2.020 . S
N480 C479 1.336 . S
N480 N481 1.354 . S
N481 C477 1.336 . S
N481 N480 1.354 . S
N481 Zn485 2.020 . S
C482 O483 1.244 . S
C482 O506 1.257 . S
O483 C482 1.244 . S
O484 Zn476 2.019 . S
O484 C504 1.257 . S
Zn485 N481 2.020 . S
Zn485 O492 1.975 . S
Zn485 N501 2.119 . S
Zn485 O506 2.019 . S
N486 Zn476 2.119 . S
N486 C488 1.334 . S
N486 C489 1.328 . S
C487 C488 1.391 . S
C487 N490 1.329 . S
C487 H508 0.930 . S
C488 N486 1.334 . S
C488 C487 1.391 . S
C488 H495 0.930 . S
C489 N486 1.328 . S
C489 C491 1.392 . S
C489 H496 0.930 . S
N490 C487 1.329 . S
N490 C491 1.331 . S
C491 C489 1.392 . S
C491 N490 1.331 . S
O492 Zn485 1.975 . S
O492 C493 1.252 . S
C493 O492 1.252 . S
C493 O494 1.252 . S
O494 Zn476 1.975 . S
O494 C493 1.252 . S
H495 C488 0.930 . S
H496 C489 0.930 . S
C497 C498 1.392 . S
C497 N501 1.328 . S
C497 H503 0.930 . S
C498 C497 1.392 . S
C498 N502 1.331 . S
C499 C500 1.391 . S
C499 N502 1.329 . S
C499 H509 0.930 . S
C500 C499 1.391 . S
C500 N501 1.334 . S
C500 H507 0.930 . S
N501 Zn485 2.119 . S
N501 C497 1.328 . S
N501 C500 1.334 . S
N502 C498 1.331 . S
N502 C499 1.329 . S
H503 C497 0.930 . S
C504 O484 1.257 . S
C504 O505 1.244 . S
O505 C504 1.244 . S
O506 C482 1.257 . S
O506 Zn485 2.019 . S
H507 C500 0.930 . S
H508 C487 0.930 . S
H509 C499 0.930 . S
Zn510 N514 2.020 . S
Zn510 O518 2.019 . S
Zn510 N520 2.119 . S
Zn510 O528 1.975 . S
C511 N512 1.334 . S
C511 N515 1.336 . S
N512 C511 1.334 . S
N512 C513 1.334 . S
C513 N512 1.334 . S
C513 N514 1.336 . S
N514 Zn510 2.020 . S
N514 C513 1.336 . S
N514 N515 1.354 . S
N515 C511 1.336 . S
N515 N514 1.354 . S
N515 Zn519 2.020 . S
C516 O517 1.244 . S
C516 O540 1.257 . S
O517 C516 1.244 . S
O518 Zn510 2.019 . S
O518 C538 1.257 . S
Zn519 N515 2.020 . S
Zn519 O526 1.975 . S
Zn519 N535 2.119 . S
Zn519 O540 2.019 . S
N520 Zn510 2.119 . S
N520 C522 1.334 . S
N520 C523 1.328 . S
C521 C522 1.391 . S
C521 N524 1.329 . S
C521 H542 0.930 . S
C522 N520 1.334 . S
C522 C521 1.391 . S
C522 H529 0.930 . S
C523 N520 1.328 . S
C523 C525 1.392 . S
C523 H530 0.930 . S
N524 C521 1.329 . S
N524 C525 1.331 . S
C525 C523 1.392 . S
C525 N524 1.331 . S
O526 Zn519 1.975 . S
O526 C527 1.252 . S
C527 O526 1.252 . S
C527 O528 1.252 . S
O528 Zn510 1.975 . S
O528 C527 1.252 . S
H529 C522 0.930 . S
H530 C523 0.930 . S
C531 C532 1.392 . S
C531 N535 1.328 . S
C531 H537 0.930 . S
C532 C531 1.392 . S
C532 N536 1.331 . S
C533 C534 1.391 . S
C533 N536 1.329 . S
C533 H543 0.930 . S
C534 C533 1.391 . S
C534 N535 1.334 . S
C534 H541 0.930 . S
N535 Zn519 2.119 . S
N535 C531 1.328 . S
N535 C534 1.334 . S
N536 C532 1.331 . S
N536 C533 1.329 . S
H537 C531 0.930 . S
C538 O518 1.257 . S
C538 O539 1.244 . S
O539 C538 1.244 . S
O540 C516 1.257 . S
O540 Zn519 2.019 . S
H541 C534 0.930 . S
H542 C521 0.930 . S
H543 C533 0.930 . S
C544 C545 1.349 . S
C544 C546 1.333 . S
C544 H569 0.950 . S
C545 C544 1.349 . S
C545 C561 1.349 . S
C546 C544 1.333 . S
C546 C565 1.432 . S
C546 H570 0.939 1_655 S
C547 C564 1.574 1_655 S
C547 C566 1.368 1_655 S
C547 H571 0.949 . S
H548 C552 0.949 . S
C549 C550 1.349 . S
C549 C551 1.327 . S
C549 H572 0.950 . S
C550 C549 1.349 . S
C550 C562 1.349 . S
C551 C549 1.327 . S
C551 C567 1.429 . S
C551 H573 0.950 . S
C552 H548 0.949 . S
C552 C560 1.574 . S
C552 C568 1.368 . S
H553 C561 0.950 . S
H554 C559 0.950 . S
H555 C560 0.949 . S
H556 C562 0.950 . S
H557 C563 0.950 . S
H558 C564 0.949 1_655 S
C559 H554 0.950 . S
C559 C561 1.327 . S
C559 C565 1.429 . S
C560 C552 1.574 . S
C560 H555 0.949 . S
C560 C566 1.368 . S
C561 C545 1.349 . S
C561 H553 0.950 . S
C561 C559 1.327 . S
C562 C550 1.349 . S
C562 H556 0.950 . S
C562 C563 1.327 . S
C563 H557 0.950 . S
C563 C562 1.327 . S
C563 C567 1.429 . S
C564 C547 1.574 1_455 S
C564 H558 0.949 1_455 S
C564 C568 1.368 . S
C565 C546 1.432 . S
C565 C559 1.429 . S
C565 C566 1.523 1_655 S
C566 C547 1.368 1_455 S
C566 C560 1.368 . S
C566 C565 1.523 1_455 S
C567 C551 1.429 . S
C567 C563 1.429 . S
C567 C568 1.523 . S
C568 C552 1.368 . S
C568 C564 1.368 . S
C568 C567 1.523 . S
H569 C544 0.950 . S
H570 C546 0.939 1_455 S
H571 C547 0.949 . S
H572 C549 0.950 . S
H573 C551 0.950 . S
C574 C575 1.349 . S
C574 C576 1.327 . S
C574 H599 0.950 . S
C575 C574 1.349 . S
C575 C591 1.349 . S
C576 C574 1.327 . S
C576 C595 1.429 . S
C576 H600 0.950 1_455 S
C577 C594 1.574 . S
C577 C596 1.368 . S
C577 H601 0.949 1_655 S
H578 C582 0.949 . S
C579 C580 1.349 . S
C579 C581 1.327 . S
C579 H602 0.950 . S
C580 C579 1.349 . S
C580 C592 1.349 . S
C581 C579 1.327 . S
C581 C597 1.429 . S
C581 H603 0.950 . S
C582 H578 0.949 . S
C582 C590 1.574 . S
C582 C598 1.368 . S
H583 C591 0.950 . S
H584 C589 0.950 . S
H585 C590 0.949 . S
H586 C592 0.950 . S
H587 C593 0.950 . S
H588 C594 0.949 . S
C589 H584 0.950 . S
C589 C591 1.327 . S
C589 C595 1.429 . S
C590 C582 1.574 . S
C590 H585 0.949 . S
C590 C596 1.368 . S
C591 C575 1.349 . S
C591 H583 0.950 . S
C591 C589 1.327 . S
C592 C580 1.349 . S
C592 H586 0.950 . S
C592 C593 1.327 . S
C593 H587 0.950 . S
C593 C592 1.327 . S
C593 C597 1.429 . S
C594 C577 1.574 . S
C594 H588 0.949 . S
C594 C598 1.368 . S
C595 C576 1.429 . S
C595 C589 1.429 . S
C595 C596 1.523 1_455 S
C596 C577 1.368 . S
C596 C590 1.368 . S
C596 C595 1.523 1_655 S
C597 C581 1.429 . S
C597 C593 1.429 . S
C597 C598 1.523 . S
C598 C582 1.368 . S
C598 C594 1.368 . S
C598 C597 1.523 . S
H599 C574 0.950 . S
H600 C576 0.950 1_655 S
H601 C577 0.949 1_455 S
H602 C579 0.950 . S
H603 C581 0.950 . S
C604 C605 1.349 . S
C604 C606 1.327 . S
C604 H629 0.950 . S
C605 C604 1.349 . S
C605 C621 1.349 . S
C606 C604 1.327 . S
C606 C625 1.429 . S
C606 H630 0.950 . S
C607 C624 1.574 . S
C607 C626 1.368 . S
C607 H631 0.949 . S
H608 C612 0.949 . S
C609 C610 1.349 . S
C609 C611 1.327 . S
C609 H632 0.950 . S
C610 C609 1.349 . S
C610 C622 1.349 . S
C611 C609 1.327 . S
C611 C627 1.429 . S
C611 H633 0.950 . S
C612 H608 0.949 . S
C612 C620 1.574 . S
C612 C628 1.368 . S
H613 C621 0.950 . S
H614 C619 0.950 . S
H615 C620 0.949 . S
H616 C622 0.950 . S
H617 C623 0.950 . S
H618 C624 0.949 . S
C619 H614 0.950 . S
C619 C621 1.327 . S
C619 C625 1.429 . S
C620 C612 1.574 . S
C620 H615 0.949 . S
C620 C626 1.368 . S
C621 C605 1.349 . S
C621 H613 0.950 . S
C621 C619 1.327 . S
C622 C610 1.349 . S
C622 H616 0.950 . S
C622 C623 1.327 . S
C623 H617 0.950 . S
C623 C622 1.327 . S
C623 C627 1.429 . S
C624 C607 1.574 . S
C624 H618 0.949 . S
C624 C628 1.368 . S
C625 C606 1.429 . S
C625 C619 1.429 . S
C625 C626 1.523 . S
C626 C607 1.368 . S
C626 C620 1.368 . S
C626 C625 1.523 . S
C627 C611 1.429 . S
C627 C623 1.429 . S
C627 C628 1.523 . S
C628 C612 1.368 . S
C628 C624 1.368 . S
C628 C627 1.523 . S
H629 C604 0.950 . S
H630 C606 0.950 . S
H631 C607 0.949 . S
H632 C609 0.950 . S
H633 C611 0.950 . S
C634 C635 1.349 . S
C634 C636 1.327 . S
C634 H659 0.950 . S
C635 C634 1.349 . S
C635 C651 1.349 . S
C636 C634 1.327 . S
C636 C655 1.429 . S
C636 H660 0.950 . S
C637 C654 1.574 . S
C637 C656 1.368 . S
C637 H661 0.949 . S
H638 C642 0.949 . S
C639 C640 1.349 . S
C639 C641 1.327 . S
C639 H662 0.950 . S
C640 C639 1.349 . S
C640 C652 1.349 . S
C641 C639 1.327 . S
C641 C657 1.429 . S
C641 H663 0.950 . S
C642 H638 0.949 . S
C642 C650 1.574 . S
C642 C658 1.368 . S
H643 C651 0.950 . S
H644 C649 0.950 . S
H645 C650 0.949 . S
H646 C652 0.950 . S
H647 C653 0.950 . S
H648 C654 0.949 . S
C649 H644 0.950 . S
C649 C651 1.327 . S
C649 C655 1.429 . S
C650 C642 1.574 . S
C650 H645 0.949 . S
C650 C656 1.368 . S
C651 C635 1.349 . S
C651 H643 0.950 . S
C651 C649 1.327 . S
C652 C640 1.349 . S
C652 H646 0.950 . S
C652 C653 1.327 . S
C653 H647 0.950 . S
C653 C652 1.327 . S
C653 C657 1.429 . S
C654 C637 1.574 . S
C654 H648 0.949 . S
C654 C658 1.368 . S
C655 C636 1.429 . S
C655 C649 1.429 . S
C655 C656 1.523 . S
C656 C637 1.368 . S
C656 C650 1.368 . S
C656 C655 1.523 . S
C657 C641 1.429 . S
C657 C653 1.429 . S
C657 C658 1.523 . S
C658 C642 1.368 . S
C658 C654 1.368 . S
C658 C657 1.523 . S
H659 C634 0.950 . S
H660 C636 0.950 . S
H661 C637 0.949 . S
H662 C639 0.950 . S
H663 C641 0.950 . S
C664 C665 1.349 . S
C664 C666 1.327 . S
C664 H689 0.950 . S
C665 C664 1.349 . S
C665 C681 1.349 . S
C666 C664 1.327 . S
C666 C685 1.429 . S
C666 H690 0.950 . S
C667 C684 1.574 . S
C667 C686 1.368 . S
C667 H691 0.949 . S
H668 C672 0.949 . S
C669 C670 1.349 . S
C669 C671 1.327 . S
C669 H692 0.950 . S
C670 C669 1.349 . S
C670 C682 1.349 . S
C671 C669 1.327 . S
C671 C687 1.429 . S
C671 H693 0.950 1_455 S
C672 H668 0.949 . S
C672 C680 1.574 1_455 S
C672 C688 1.368 1_455 S
H673 C681 0.950 . S
H674 C679 0.950 . S
H675 C680 0.949 . S
H676 C682 0.950 . S
H677 C683 0.950 . S
H678 C684 0.949 . S
C679 H674 0.950 . S
C679 C681 1.327 . S
C679 C685 1.429 . S
C680 C672 1.574 1_655 S
C680 H675 0.949 . S
C680 C686 1.368 . S
C681 C665 1.349 . S
C681 H673 0.950 . S
C681 C679 1.327 . S
C682 C670 1.349 . S
C682 H676 0.950 . S
C682 C683 1.327 . S
C683 H677 0.950 . S
C683 C682 1.327 . S
C683 C687 1.429 . S
C684 C667 1.574 . S
C684 H678 0.949 . S
C684 C688 1.368 . S
C685 C666 1.429 . S
C685 C679 1.429 . S
C685 C686 1.523 . S
C686 C667 1.368 . S
C686 C680 1.368 . S
C686 C685 1.523 . S
C687 C671 1.429 . S
C687 C683 1.429 . S
C687 C688 1.523 1_455 S
C688 C672 1.368 1_655 S
C688 C684 1.368 . S
C688 C687 1.523 1_655 S
H689 C664 0.950 . S
H690 C666 0.950 . S
H691 C667 0.949 . S
H692 C669 0.950 . S
H693 C671 0.950 1_655 S
C694 C695 1.349 . S
C694 C696 1.327 . S
C694 H719 0.950 . S
C695 C694 1.349 . S
C695 C711 1.349 . S
C696 C694 1.327 . S
C696 C715 1.429 . S
C696 H720 0.950 . S
C697 C714 1.574 . S
C697 C716 1.368 . S
C697 H721 0.949 . S
H698 C702 0.949 1_655 S
C699 C700 1.349 . S
C699 C701 1.327 . S
C699 H722 0.950 . S
C700 C699 1.349 . S
C700 C712 1.349 . S
C701 C699 1.327 . S
C701 C717 1.429 . S
C701 H723 0.950 1_655 S
C702 H698 0.949 1_455 S
C702 C710 1.574 . S
C702 C718 1.368 . S
H703 C711 0.950 . S
H704 C709 0.950 . S
H705 C710 0.949 . S
H706 C712 0.950 . S
H707 C713 0.950 . S
H708 C714 0.949 . S
C709 H704 0.950 . S
C709 C711 1.327 . S
C709 C715 1.429 . S
C710 C702 1.574 . S
C710 H705 0.949 . S
C710 C716 1.368 . S
C711 C695 1.349 . S
C711 H703 0.950 . S
C711 C709 1.327 . S
C712 C700 1.349 . S
C712 H706 0.950 . S
C712 C713 1.327 . S
C713 H707 0.950 . S
C713 C712 1.327 . S
C713 C717 1.429 . S
C714 C697 1.574 . S
C714 H708 0.949 . S
C714 C718 1.368 . S
C715 C696 1.429 . S
C715 C709 1.429 . S
C715 C716 1.523 . S
C716 C697 1.368 . S
C716 C710 1.368 . S
C716 C715 1.523 . S
C717 C701 1.429 . S
C717 C713 1.429 . S
C717 C718 1.523 1_655 S
C718 C702 1.368 . S
C718 C714 1.368 . S
C718 C717 1.523 1_455 S
H719 C694 0.950 . S
H720 C696 0.950 . S
H721 C697 0.949 . S
H722 C699 0.950 . S
H723 C701 0.950 1_455 S
C724 C725 1.349 . S
C724 C726 1.327 . S
C724 H749 0.950 . S
C725 C724 1.349 . S
C725 C741 1.349 . S
C726 C724 1.327 . S
C726 C745 1.429 . S
C726 H750 0.950 . S
C727 C744 1.574 . S
C727 C746 1.368 . S
C727 H751 0.949 . S
H728 C732 0.949 . S
C729 C730 1.349 . S
C729 C731 1.327 . S
C729 H752 0.950 . S
C730 C729 1.349 . S
C730 C742 1.349 . S
C731 C729 1.327 . S
C731 C747 1.429 . S
C731 H753 0.950 . S
C732 H728 0.949 . S
C732 C740 1.574 . S
C732 C748 1.368 . S
H733 C741 0.950 . S
H734 C739 0.950 . S
H735 C740 0.949 . S
H736 C742 0.950 . S
H737 C743 0.950 . S
H738 C744 0.949 . S
C739 H734 0.950 . S
C739 C741 1.327 . S
C739 C745 1.429 . S
C740 C732 1.574 . S
C740 H735 0.949 . S
C740 C746 1.368 . S
C741 C725 1.349 . S
C741 H733 0.950 . S
C741 C739 1.327 . S
C742 C730 1.349 . S
C742 H736 0.950 . S
C742 C743 1.327 . S
C743 H737 0.950 . S
C743 C742 1.327 . S
C743 C747 1.429 . S
C744 C727 1.574 . S
C744 H738 0.949 . S
C744 C748 1.368 . S
C745 C726 1.429 . S
C745 C739 1.429 . S
C745 C746 1.523 . S
C746 C727 1.368 . S
C746 C740 1.368 . S
C746 C745 1.523 . S
C747 C731 1.429 . S
C747 C743 1.429 . S
C747 C748 1.523 . S
C748 C732 1.368 . S
C748 C744 1.368 . S
C748 C747 1.523 . S
H749 C724 0.950 . S
H750 C726 0.950 . S
H751 C727 0.949 . S
H752 C729 0.950 . S
H753 C731 0.950 . S
C754 C755 1.349 . S
C754 C756 1.327 . S
C754 H779 0.950 . S
C755 C754 1.349 . S
C755 C771 1.349 . S
C756 C754 1.327 . S
C756 C775 1.429 . S
C756 H780 0.950 . S
C757 C774 1.574 . S
C757 C776 1.368 . S
C757 H781 0.949 . S
H758 C762 0.949 . S
C759 C760 1.349 . S
C759 C761 1.327 . S
C759 H782 0.950 . S
C760 C759 1.349 . S
C760 C772 1.349 . S
C761 C759 1.327 . S
C761 C777 1.429 . S
C761 H783 0.950 . S
C762 H758 0.949 . S
C762 C770 1.574 . S
C762 C778 1.368 . S
H763 C771 0.950 . S
H764 C769 0.950 . S
H765 C770 0.949 . S
H766 C772 0.950 . S
H767 C773 0.950 . S
H768 C774 0.949 . S
C769 H764 0.950 . S
C769 C771 1.327 . S
C769 C775 1.429 . S
C770 C762 1.574 . S
C770 H765 0.949 . S
C770 C776 1.368 . S
C771 C755 1.349 . S
C771 H763 0.950 . S
C771 C769 1.327 . S
C772 C760 1.349 . S
C772 H766 0.950 . S
C772 C773 1.327 . S
C773 H767 0.950 . S
C773 C772 1.327 . S
C773 C777 1.429 . S
C774 C757 1.574 . S
C774 H768 0.949 . S
C774 C778 1.368 . S
C775 C756 1.429 . S
C775 C769 1.429 . S
C775 C776 1.523 . S
C776 C757 1.368 . S
C776 C770 1.368 . S
C776 C775 1.523 . S
C777 C761 1.429 . S
C777 C773 1.429 . S
C777 C778 1.523 . S
C778 C762 1.368 . S
C778 C774 1.368 . S
C778 C777 1.523 . S
H779 C754 0.950 . S
H780 C756 0.950 . S
H781 C757 0.949 . S
H782 C759 0.950 . S
H783 C761 0.950 . S
C784 C785 1.349 . S
C784 C786 1.327 . S
C784 H809 0.950 . S
C785 C784 1.349 . S
C785 C801 1.349 . S
C786 C784 1.327 . S
C786 C805 1.429 . S
C786 H810 0.950 . S
C787 C804 1.574 . S
C787 C806 1.368 . S
C787 H811 0.949 . S
H788 C792 0.949 . S
C789 C790 1.349 . S
C789 C791 1.327 . S
C789 H812 0.950 . S
C790 C789 1.349 . S
C790 C802 1.349 . S
C791 C789 1.327 . S
C791 C807 1.429 . S
C791 H813 0.950 . S
C792 H788 0.949 . S
C792 C800 1.574 1_554 S
C792 C808 1.368 . S
H793 C801 0.950 . S
H794 C799 0.950 . S
H795 C800 0.950 . S
H796 C802 0.950 . S
H797 C803 0.950 . S
H798 C804 0.949 . S
C799 H794 0.950 . S
C799 C801 1.327 . S
C799 C805 1.429 . S
C800 C792 1.574 1_556 S
C800 H795 0.950 . S
C800 C806 1.368 . S
C801 C785 1.349 . S
C801 H793 0.950 . S
C801 C799 1.327 . S
C802 C790 1.349 . S
C802 H796 0.950 . S
C802 C803 1.327 . S
C803 H797 0.950 . S
C803 C802 1.327 . S
C803 C807 1.429 . S
C804 C787 1.574 . S
C804 H798 0.949 . S
C804 C808 1.368 1_556 S
C805 C786 1.429 . S
C805 C799 1.429 . S
C805 C806 1.523 . S
C806 C787 1.368 . S
C806 C800 1.368 . S
C806 C805 1.523 . S
C807 C791 1.429 . S
C807 C803 1.429 . S
C807 C808 1.523 . S
C808 C792 1.368 . S
C808 C804 1.368 1_554 S
C808 C807 1.523 . S
H809 C784 0.950 . S
H810 C786 0.950 . S
H811 C787 0.949 . S
H812 C789 0.950 . S
H813 C791 0.950 . S
C814 C815 1.349 . S
C814 C816 1.327 . S
C814 H839 0.950 . S
C815 C814 1.349 . S
C815 C831 1.349 . S
C816 C814 1.327 . S
C816 C835 1.429 . S
C816 H840 0.950 . S
C817 C834 1.574 . S
C817 C836 1.368 . S
C817 H841 0.949 . S
H818 C822 0.949 . S
C819 C820 1.349 . S
C819 C821 1.327 . S
C819 H842 0.950 . S
C820 C819 1.349 . S
C820 C832 1.349 . S
C821 C819 1.327 . S
C821 C837 1.429 . S
C821 H843 0.950 . S
C822 H818 0.949 . S
C822 C830 1.574 . S
C822 C838 1.368 1_565 S
H823 C831 0.950 . S
H824 C829 0.950 . S
H825 C830 0.949 . S
H826 C832 0.950 . S
H827 C833 0.950 . S
H828 C834 0.949 1_545 S
C829 H824 0.950 . S
C829 C831 1.327 . S
C829 C835 1.429 . S
C830 C822 1.574 . S
C830 H825 0.949 . S
C830 C836 1.368 . S
C831 C815 1.349 . S
C831 H823 0.950 . S
C831 C829 1.327 . S
C832 C820 1.349 . S
C832 H826 0.950 . S
C832 C833 1.327 . S
C833 H827 0.950 . S
C833 C832 1.327 . S
C833 C837 1.429 . S
C834 C817 1.574 . S
C834 H828 0.949 1_565 S
C834 C838 1.368 1_565 S
C835 C816 1.429 . S
C835 C829 1.429 . S
C835 C836 1.523 . S
C836 C817 1.368 . S
C836 C830 1.368 . S
C836 C835 1.523 . S
C837 C821 1.429 . S
C837 C833 1.429 . S
C837 C838 1.523 . S
C838 C822 1.368 1_545 S
C838 C834 1.368 1_545 S
C838 C837 1.523 . S
H839 C814 0.950 . S
H840 C816 0.950 . S
H841 C817 0.949 . S
H842 C819 0.950 . S
H843 C821 0.950 . S
C844 C845 1.349 . S
C844 C846 1.327 . S
C844 H869 0.950 . S
C845 C844 1.349 . S
C845 C861 1.349 . S
C846 C844 1.327 . S
C846 C865 1.429 . S
C846 H870 0.950 . S
C847 C864 1.574 . S
C847 C866 1.368 . S
C847 H871 0.949 . S
H848 C852 0.949 . S
C849 C850 1.349 . S
C849 C851 1.327 . S
C849 H872 0.950 . S
C850 C849 1.349 . S
C850 C862 1.349 . S
C851 C849 1.327 . S
C851 C867 1.429 . S
C851 H873 0.950 . S
C852 H848 0.949 . S
C852 C860 1.574 . S
C852 C868 1.368 . S
H853 C861 0.950 . S
H854 C859 0.950 . S
H855 C860 0.949 . S
H856 C862 0.950 . S
H857 C863 0.950 . S
H858 C864 0.949 . S
C859 H854 0.950 . S
C859 C861 1.327 . S
C859 C865 1.429 . S
C860 C852 1.574 . S
C860 H855 0.949 . S
C860 C866 1.368 . S
C861 C845 1.349 . S
C861 H853 0.950 . S
C861 C859 1.327 . S
C862 C850 1.349 . S
C862 H856 0.950 . S
C862 C863 1.327 . S
C863 H857 0.950 . S
C863 C862 1.327 . S
C863 C867 1.429 . S
C864 C847 1.574 . S
C864 H858 0.949 . S
C864 C868 1.368 . S
C865 C846 1.429 . S
C865 C859 1.429 . S
C865 C866 1.523 . S
C866 C847 1.368 . S
C866 C860 1.368 . S
C866 C865 1.523 . S
C867 C851 1.429 . S
C867 C863 1.429 . S
C867 C868 1.523 . S
C868 C852 1.368 . S
C868 C864 1.368 . S
C868 C867 1.523 . S
H869 C844 0.950 . S
H870 C846 0.950 . S
H871 C847 0.949 . S
H872 C849 0.950 . S
H873 C851 0.950 . S
C874 C875 1.349 . S
C874 C876 1.327 . S
C874 H899 0.950 . S
C875 C874 1.349 . S
C875 C891 1.349 . S
C876 C874 1.327 . S
C876 C895 1.429 . S
C876 H900 0.950 . S
C877 C894 1.574 . S
C877 C896 1.368 1_545 S
C877 H901 0.949 1_545 S
H878 C882 0.949 . S
C879 C880 1.349 . S
C879 C881 1.327 . S
C879 H902 0.950 . S
C880 C879 1.349 . S
C880 C892 1.349 . S
C881 C879 1.327 . S
C881 C897 1.429 . S
C881 H903 0.950 . S
C882 H878 0.949 . S
C882 C890 1.574 . S
C882 C898 1.368 . S
H883 C891 0.950 . S
H884 C889 0.950 . S
H885 C890 0.949 . S
H886 C892 0.950 . S
H887 C893 0.950 . S
H888 C894 0.949 . S
C889 H884 0.950 . S
C889 C891 1.327 . S
C889 C895 1.429 . S
C890 C882 1.574 . S
C890 H885 0.949 . S
C890 C896 1.368 1_545 S
C891 C875 1.349 . S
C891 H883 0.950 . S
C891 C889 1.327 . S
C892 C880 1.349 . S
C892 H886 0.950 . S
C892 C893 1.327 . S
C893 H887 0.950 . S
C893 C892 1.327 . S
C893 C897 1.429 . S
C894 C877 1.574 . S
C894 H888 0.949 . S
C894 C898 1.368 . S
C895 C876 1.429 . S
C895 C889 1.429 . S
C895 C896 1.523 . S
C896 C877 1.368 1_565 S
C896 C890 1.368 1_565 S
C896 C895 1.523 . S
C897 C881 1.429 . S
C897 C893 1.429 . S
C897 C898 1.523 . S
C898 C882 1.368 . S
C898 C894 1.368 . S
C898 C897 1.523 . S
H899 C874 0.950 . S
H900 C876 0.950 . S
H901 C877 0.949 1_565 S
H902 C879 0.950 . S
H903 C881 0.950 . S
C904 C905 1.349 . S
C904 C906 1.327 . S
C904 H929 0.950 . S
C905 C904 1.349 . S
C905 C921 1.349 . S
C906 C904 1.327 . S
C906 C925 1.429 . S
C906 H930 0.950 . S
C907 C924 1.574 . S
C907 C926 1.368 1_554 S
C907 H931 0.949 . S
H908 C912 0.949 . S
C909 C910 1.349 . S
C909 C911 1.327 . S
C909 H932 0.950 . S
C910 C909 1.349 . S
C910 C922 1.349 . S
C911 C909 1.327 . S
C911 C927 1.429 . S
C911 H933 0.950 . S
C912 H908 0.949 . S
C912 C920 1.574 1_554 S
C912 C928 1.368 . S
H913 C921 0.950 . S
H914 C919 0.950 . S
H915 C920 0.949 . S
H916 C922 0.950 . S
H917 C923 0.950 . S
H918 C924 0.949 . S
C919 H914 0.950 . S
C919 C921 1.327 . S
C919 C925 1.429 . S
C920 C912 1.574 1_556 S
C920 H915 0.949 . S
C920 C926 1.368 . S
C921 C905 1.349 . S
C921 H913 0.950 . S
C921 C919 1.327 . S
C922 C910 1.349 . S
C922 H916 0.950 . S
C922 C923 1.327 . S
C923 H917 0.950 . S
C923 C922 1.327 . S
C923 C927 1.429 . S
C924 C907 1.574 . S
C924 H918 0.949 . S
C924 C928 1.368 . S
C925 C906 1.429 . S
C925 C919 1.429 . S
C925 C926 1.523 . S
C926 C907 1.368 1_556 S
C926 C920 1.368 . S
C926 C925 1.523 . S
C927 C911 1.429 . S
C927 C923 1.429 . S
C927 C928 1.523 . S
C928 C912 1.368 . S
C928 C924 1.368 . S
C928 C927 1.523 . S
H929 C904 0.950 . S
H930 C906 0.950 . S
H931 C907 0.949 . S
H932 C909 0.950 . S
H933 C911 0.950 . S
C934 C935 1.349 . S
C934 C936 1.327 . S
C934 H959 0.950 . S
C935 C934 1.349 . S
C935 C951 1.349 . S
C936 C934 1.327 . S
C936 C955 1.429 . S
C936 H960 0.950 . S
C937 C954 1.574 . S
C937 C956 1.368 1_545 S
C937 H961 0.949 . S
H938 C942 0.949 . S
C939 C940 1.349 . S
C939 C941 1.327 . S
C939 H962 0.950 . S
C940 C939 1.349 . S
C940 C952 1.349 . S
C941 C939 1.327 . S
C941 C957 1.429 . S
C941 H963 0.950 . S
C942 H938 0.949 . S
C942 C950 1.615 . S
C942 C958 1.368 . S
H943 C951 0.950 . S
H944 C949 0.950 . S
H945 C950 0.923 1_565 S
H946 C952 0.950 . S
H947 C953 0.950 . S
H948 C954 0.949 . S
C949 H944 0.950 . S
C949 C951 1.327 . S
C949 C955 1.429 . S
C950 C942 1.615 . S
C950 H945 0.923 1_545 S
C950 C956 1.357 1_545 S
C951 C935 1.349 . S
C951 H943 0.950 . S
C951 C949 1.327 . S
C952 C940 1.349 . S
C952 H946 0.950 . S
C952 C953 1.327 . S
C953 H947 0.950 . S
C953 C952 1.327 . S
C953 C957 1.429 . S
C954 C937 1.574 . S
C954 H948 0.949 . S
C954 C958 1.368 . S
C955 C936 1.429 . S
C955 C949 1.429 . S
C955 C956 1.523 . S
C956 C937 1.368 1_565 S
C956 C950 1.357 1_565 S
C956 C955 1.523 . S
C957 C941 1.429 . S
C957 C953 1.429 . S
C957 C958 1.523 . S
C958 C942 1.368 . S
C958 C954 1.368 . S
C958 C957 1.523 . S
H959 C934 0.950 . S
H960 C936 0.950 . S
H961 C937 0.949 . S
H962 C939 0.950 . S
H963 C941 0.950 . S
C964 C965 1.349 . S
C964 C966 1.327 . S
C964 H989 0.950 . S
C965 C964 1.349 . S
C965 C981 1.349 . S
C966 C964 1.327 . S
C966 C985 1.429 . S
C966 H990 0.950 . S
C967 C984 1.574 . S
C967 C986 1.368 . S
C967 H991 0.949 . S
H968 C972 0.949 . S
C969 C970 1.349 . S
C969 C971 1.327 . S
C969 H992 0.950 . S
C970 C969 1.349 . S
C970 C982 1.349 . S
C971 C969 1.327 . S
C971 C987 1.429 . S
C971 H993 0.950 . S
C972 H968 0.949 . S
C972 C980 1.574 . S
C972 C988 1.368 . S
H973 C981 0.950 . S
H974 C979 0.950 . S
H975 C980 0.949 . S
H976 C982 0.950 . S
H977 C983 0.950 . S
H978 C984 0.949 . S
C979 H974 0.950 . S
C979 C981 1.327 . S
C979 C985 1.429 . S
C980 C972 1.574 . S
C980 H975 0.949 . S
C980 C986 1.368 . S
C981 C965 1.349 . S
C981 H973 0.950 . S
C981 C979 1.327 . S
C982 C970 1.349 . S
C982 H976 0.950 . S
C982 C983 1.327 . S
C983 H977 0.950 . S
C983 C982 1.327 . S
C983 C987 1.429 . S
C984 C967 1.574 . S
C984 H978 0.949 . S
C984 C988 1.368 . S
C985 C966 1.429 . S
C985 C979 1.429 . S
C985 C986 1.523 . S
C986 C967 1.368 . S
C986 C980 1.368 . S
C986 C985 1.523 . S
C987 C971 1.429 . S
C987 C983 1.429 . S
C987 C988 1.523 . S
C988 C972 1.368 . S
C988 C984 1.368 . S
C988 C987 1.523 . S
H989 C964 0.950 . S
H990 C966 0.950 . S
H991 C967 0.949 . S
H992 C969 0.950 . S
H993 C971 0.950 . S
C994 C995 1.349 . S
C994 C996 1.327 . S
C994 H1019 0.950 . S
C995 C994 1.349 . S
C995 C1011 1.349 . S
C996 C994 1.327 . S
C996 C1015 1.429 . S
C996 H1020 0.950 . S
C997 C1014 1.574 . S
C997 C1016 1.368 . S
C997 H1021 0.949 . S
H998 C1002 0.949 1_545 S
C999 C1000 1.349 . S
C999 C1001 1.327 . S
C999 H1022 0.950 . S
C1000 C999 1.349 . S
C1000 C1012 1.349 . S
C1001 C999 1.327 . S
C1001 C1017 1.429 . S
C1001 H1023 0.950 . S
C1002 H998 0.949 1_565 S
C1002 C1010 1.574 . S
C1002 C1018 1.368 1_565 S
H1003 C1011 0.950 . S
H1004 C1009 0.950 . S
H1005 C1010 0.949 . S
H1006 C1012 0.950 . S
H1007 C1013 0.950 . S
H1008 C1014 0.949 . S
C1009 H1004 0.950 . S
C1009 C1011 1.327 . S
C1009 C1015 1.429 . S
C1010 C1002 1.574 . S
C1010 H1005 0.949 . S
C1010 C1016 1.368 . S
C1011 C995 1.349 . S
C1011 H1003 0.950 . S
C1011 C1009 1.327 . S
C1012 C1000 1.349 . S
C1012 H1006 0.950 . S
C1012 C1013 1.327 . S
C1013 H1007 0.950 . S
C1013 C1012 1.327 . S
C1013 C1017 1.429 . S
C1014 C997 1.574 . S
C1014 H1008 0.949 . S
C1014 C1018 1.368 1_565 S
C1015 C996 1.429 . S
C1015 C1009 1.429 . S
C1015 C1016 1.523 . S
C1016 C997 1.368 . S
C1016 C1010 1.368 . S
C1016 C1015 1.523 . S
C1017 C1001 1.429 . S
C1017 C1013 1.429 . S
C1017 C1018 1.523 . S
C1018 C1002 1.368 1_545 S
C1018 C1014 1.368 1_545 S
C1018 C1017 1.523 . S
H1019 C994 0.950 . S
H1020 C996 0.950 . S
H1021 C997 0.949 . S
H1022 C999 0.950 . S
H1023 C1001 0.950 . S
C1024 C1025 1.349 . S
C1024 C1026 1.327 . S
C1024 H1049 0.950 . S
C1025 C1024 1.349 . S
C1025 C1041 1.349 . S
C1026 C1024 1.327 . S
C1026 C1045 1.429 . S
C1026 H1050 0.950 . S
C1027 C1044 1.574 . S
C1027 C1046 1.368 . S
C1027 H1051 0.949 . S
H1028 C1032 0.949 . S
C1029 C1030 1.349 . S
C1029 C1031 1.327 . S
C1029 H1052 0.950 . S
C1030 C1029 1.349 . S
C1030 C1042 1.349 . S
C1031 C1029 1.327 . S
C1031 C1047 1.429 . S
C1031 H1053 0.950 . S
C1032 H1028 0.949 . S
C1032 C1040 1.574 . S
C1032 C1048 1.368 . S
H1033 C1041 0.950 . S
H1034 C1039 0.950 . S
H1035 C1040 0.949 . S
H1036 C1042 0.950 . S
H1037 C1043 0.950 . S
H1038 C1044 0.949 . S
C1039 H1034 0.950 . S
C1039 C1041 1.327 . S
C1039 C1045 1.429 . S
C1040 C1032 1.574 . S
C1040 H1035 0.949 . S
C1040 C1046 1.368 . S
C1041 C1025 1.349 . S
C1041 H1033 0.950 . S
C1041 C1039 1.327 . S
C1042 C1030 1.349 . S
C1042 H1036 0.950 . S
C1042 C1043 1.327 . S
C1043 H1037 0.950 . S
C1043 C1042 1.327 . S
C1043 C1047 1.429 . S
C1044 C1027 1.574 . S
C1044 H1038 0.949 . S
C1044 C1048 1.368 . S
C1045 C1026 1.429 . S
C1045 C1039 1.429 . S
C1045 C1046 1.523 . S
C1046 C1027 1.368 . S
C1046 C1040 1.368 . S
C1046 C1045 1.523 . S
C1047 C1031 1.429 . S
C1047 C1043 1.429 . S
C1047 C1048 1.523 . S
C1048 C1032 1.368 . S
C1048 C1044 1.368 . S
C1048 C1047 1.523 . S
H1049 C1024 0.950 . S
H1050 C1026 0.950 . S
H1051 C1027 0.949 . S
H1052 C1029 0.950 . S
H1053 C1031 0.950 . S
C1054 C1055 1.349 . S
C1054 C1056 1.327 . S
C1054 H1079 0.950 . S
C1055 C1054 1.349 . S
C1055 C1071 1.349 . S
C1056 C1054 1.327 . S
C1056 C1075 1.429 . S
C1056 H1080 0.950 . S
C1057 C1074 1.574 . S
C1057 C1076 1.368 . S
C1057 H1081 0.949 . S
H1058 C1062 0.949 . S
C1059 C1060 1.349 . S
C1059 C1061 1.327 . S
C1059 H1082 0.950 . S
C1060 C1059 1.349 . S
C1060 C1072 1.349 . S
C1061 C1059 1.327 . S
C1061 C1077 1.429 . S
C1061 H1083 0.950 . S
C1062 H1058 0.949 . S
C1062 C1070 1.574 . S
C1062 C1078 1.368 . S
H1063 C1071 0.950 . S
H1064 C1069 0.950 . S
H1065 C1070 0.949 . S
H1066 C1072 0.950 . S
H1067 C1073 0.950 . S
H1068 C1074 0.949 . S
C1069 H1064 0.950 . S
C1069 C1071 1.327 . S
C1069 C1075 1.429 . S
C1070 C1062 1.574 . S
C1070 H1065 0.949 . S
C1070 C1076 1.368 . S
C1071 C1055 1.349 . S
C1071 H1063 0.950 . S
C1071 C1069 1.327 . S
C1072 C1060 1.349 . S
C1072 H1066 0.950 . S
C1072 C1073 1.327 . S
C1073 H1067 0.950 . S
C1073 C1072 1.327 . S
C1073 C1077 1.429 . S
C1074 C1057 1.574 . S
C1074 H1068 0.949 . S
C1074 C1078 1.368 . S
C1075 C1056 1.429 . S
C1075 C1069 1.429 . S
C1075 C1076 1.523 . S
C1076 C1057 1.368 . S
C1076 C1070 1.368 . S
C1076 C1075 1.523 . S
C1077 C1061 1.429 . S
C1077 C1073 1.429 . S
C1077 C1078 1.523 . S
C1078 C1062 1.368 . S
C1078 C1074 1.368 . S
C1078 C1077 1.523 . S
H1079 C1054 0.950 . S
H1080 C1056 0.950 . S
H1081 C1057 0.949 . S
H1082 C1059 0.950 . S
H1083 C1061 0.950 . S
C1084 C1085 1.349 . S
C1084 C1086 1.327 . S
C1084 H1109 0.950 . S
C1085 C1084 1.349 . S
C1085 C1101 1.349 . S
C1086 C1084 1.327 . S
C1086 C1105 1.429 . S
C1086 H1110 0.950 1_556 S
C1087 C1104 1.574 1_556 S
C1087 C1106 1.363 1_556 S
C1087 H1111 0.949 . S
H1088 C1092 0.949 . S
C1089 C1090 1.349 . S
C1089 C1091 1.327 . S
C1089 H1112 0.950 . S
C1090 C1089 1.349 . S
C1090 C1102 1.349 . S
C1091 C1089 1.327 . S
C1091 C1107 1.429 . S
C1091 H1113 0.950 . S
C1092 H1088 0.949 . S
C1092 C1100 1.574 . S
C1092 C1108 1.368 . S
H1093 C1101 0.950 . S
H1094 C1099 0.950 . S
H1095 C1100 0.949 . S
H1096 C1102 0.950 . S
H1097 C1103 0.950 . S
H1098 C1104 0.949 . S
C1099 H1094 0.950 . S
C1099 C1101 1.327 . S
C1099 C1105 1.429 . S
C1100 C1092 1.574 . S
C1100 H1095 0.949 . S
C1100 C1106 1.380 . S
C1101 C1085 1.349 . S
C1101 H1093 0.950 . S
C1101 C1099 1.327 . S
C1102 C1090 1.349 . S
C1102 H1096 0.950 . S
C1102 C1103 1.327 . S
C1103 H1097 0.950 . S
C1103 C1102 1.327 . S
C1103 C1107 1.429 . S
C1104 C1087 1.574 1_554 S
C1104 H1098 0.949 . S
C1104 C1108 1.368 . S
C1105 C1086 1.429 . S
C1105 C1099 1.429 . S
C1105 C1106 1.515 1_556 S
C1106 C1087 1.363 1_554 S
C1106 C1100 1.380 . S
C1106 C1105 1.515 1_554 S
C1107 C1091 1.429 . S
C1107 C1103 1.429 . S
C1107 C1108 1.523 . S
C1108 C1092 1.368 . S
C1108 C1104 1.368 . S
C1108 C1107 1.523 . S
H1109 C1084 0.950 . S
H1110 C1086 0.950 1_554 S
H1111 C1087 0.949 . S
H1112 C1089 0.950 . S
H1113 C1091 0.950 . S
C1114 C1115 1.349 . S
C1114 C1116 1.327 . S
C1114 H1139 0.950 . S
C1115 C1114 1.349 . S
C1115 C1131 1.349 . S
C1116 C1114 1.327 . S
C1116 C1135 1.429 . S
C1116 H1140 0.950 . S
C1117 C1134 1.574 . S
C1117 C1136 1.368 . S
C1117 H1141 0.949 . S
H1118 C1122 0.949 . S
C1119 C1120 1.349 . S
C1119 C1121 1.327 . S
C1119 H1142 0.950 . S
C1120 C1119 1.349 . S
C1120 C1132 1.349 . S
C1121 C1119 1.327 . S
C1121 C1137 1.429 . S
C1121 H1143 0.950 . S
C1122 H1118 0.949 . S
C1122 C1130 1.574 . S
C1122 C1138 1.368 . S
H1123 C1131 0.950 . S
H1124 C1129 0.950 . S
H1125 C1130 0.949 . S
H1126 C1132 0.950 . S
H1127 C1133 0.950 . S
H1128 C1134 0.949 . S
C1129 H1124 0.950 . S
C1129 C1131 1.327 . S
C1129 C1135 1.429 . S
C1130 C1122 1.574 . S
C1130 H1125 0.949 . S
C1130 C1136 1.368 . S
C1131 C1115 1.349 . S
C1131 H1123 0.950 . S
C1131 C1129 1.327 . S
C1132 C1120 1.349 . S
C1132 H1126 0.950 . S
C1132 C1133 1.327 . S
C1133 H1127 0.950 . S
C1133 C1132 1.327 . S
C1133 C1137 1.429 . S
C1134 C1117 1.574 . S
C1134 H1128 0.949 . S
C1134 C1138 1.368 . S
C1135 C1116 1.429 . S
C1135 C1129 1.429 . S
C1135 C1136 1.523 . S
C1136 C1117 1.368 . S
C1136 C1130 1.368 . S
C1136 C1135 1.523 . S
C1137 C1121 1.429 . S
C1137 C1133 1.429 . S
C1137 C1138 1.523 . S
C1138 C1122 1.368 . S
C1138 C1134 1.368 . S
C1138 C1137 1.523 . S
H1139 C1114 0.950 . S
H1140 C1116 0.950 . S
H1141 C1117 0.949 . S
H1142 C1119 0.950 . S
H1143 C1121 0.950 . S
C1144 C1145 1.349 . S
C1144 C1146 1.327 . S
C1144 H1169 0.950 . S
C1145 C1144 1.349 . S
C1145 C1161 1.349 . S
C1146 C1144 1.327 . S
C1146 C1165 1.429 . S
C1146 H1170 0.950 . S
C1147 C1164 1.574 . S
C1147 C1166 1.368 . S
C1147 H1171 0.949 . S
H1148 C1152 0.949 . S
C1149 C1150 1.349 . S
C1149 C1151 1.327 . S
C1149 H1172 0.950 . S
C1150 C1149 1.349 . S
C1150 C1162 1.349 . S
C1151 C1149 1.327 . S
C1151 C1167 1.429 . S
C1151 H1173 0.950 . S
C1152 H1148 0.949 . S
C1152 C1160 1.574 . S
C1152 C1168 1.368 . S
H1153 C1161 0.950 . S
H1154 C1159 0.950 . S
H1155 C1160 0.949 . S
H1156 C1162 0.950 . S
H1157 C1163 0.950 . S
H1158 C1164 0.949 . S
C1159 H1154 0.950 . S
C1159 C1161 1.327 . S
C1159 C1165 1.429 . S
C1160 C1152 1.574 . S
C1160 H1155 0.949 . S
C1160 C1166 1.368 . S
C1161 C1145 1.349 . S
C1161 H1153 0.950 . S
C1161 C1159 1.327 . S
C1162 C1150 1.349 . S
C1162 H1156 0.950 . S
C1162 C1163 1.327 . S
C1163 H1157 0.950 . S
C1163 C1162 1.327 . S
C1163 C1167 1.429 . S
C1164 C1147 1.574 . S
C1164 H1158 0.949 . S
C1164 C1168 1.368 . S
C1165 C1146 1.429 . S
C1165 C1159 1.429 . S
C1165 C1166 1.523 . S
C1166 C1147 1.368 . S
C1166 C1160 1.368 . S
C1166 C1165 1.523 . S
C1167 C1151 1.429 . S
C1167 C1163 1.429 . S
C1167 C1168 1.523 . S
C1168 C1152 1.368 . S
C1168 C1164 1.368 . S
C1168 C1167 1.523 . S
H1169 C1144 0.950 . S
H1170 C1146 0.950 . S
H1171 C1147 0.949 . S
H1172 C1149 0.950 . S
H1173 C1151 0.950 . S
C1174 C1175 1.349 . S
C1174 C1176 1.327 . S
C1174 H1199 0.950 . S
C1175 C1174 1.349 . S
C1175 C1191 1.349 . S
C1176 C1174 1.327 . S
C1176 C1195 1.429 . S
C1176 H1200 0.950 . S
C1177 C1194 1.574 . S
C1177 C1196 1.368 . S
C1177 H1201 0.949 . S
H1178 C1182 0.949 . S
C1179 C1180 1.349 . S
C1179 C1181 1.327 . S
C1179 H1202 0.950 . S
C1180 C1179 1.349 . S
C1180 C1192 1.349 . S
C1181 C1179 1.327 . S
C1181 C1197 1.429 . S
C1181 H1203 0.950 . S
C1182 H1178 0.949 . S
C1182 C1190 1.574 . S
C1182 C1198 1.368 . S
H1183 C1191 0.950 . S
H1184 C1189 0.950 . S
H1185 C1190 0.949 . S
H1186 C1192 0.950 . S
H1187 C1193 0.950 . S
H1188 C1194 0.949 . S
C1189 H1184 0.950 . S
C1189 C1191 1.327 . S
C1189 C1195 1.429 . S
C1190 C1182 1.574 . S
C1190 H1185 0.949 . S
C1190 C1196 1.368 . S
C1191 C1175 1.349 . S
C1191 H1183 0.950 . S
C1191 C1189 1.327 . S
C1192 C1180 1.349 . S
C1192 H1186 0.950 . S
C1192 C1193 1.327 . S
C1193 H1187 0.950 . S
C1193 C1192 1.327 . S
C1193 C1197 1.429 . S
C1194 C1177 1.574 . S
C1194 H1188 0.949 . S
C1194 C1198 1.368 . S
C1195 C1176 1.429 . S
C1195 C1189 1.429 . S
C1195 C1196 1.523 . S
C1196 C1177 1.368 . S
C1196 C1190 1.368 . S
C1196 C1195 1.523 . S
C1197 C1181 1.429 . S
C1197 C1193 1.429 . S
C1197 C1198 1.523 . S
C1198 C1182 1.368 . S
C1198 C1194 1.368 . S
C1198 C1197 1.523 . S
H1199 C1174 0.950 . S
H1200 C1176 0.950 . S
H1201 C1177 0.949 . S
H1202 C1179 0.950 . S
H1203 C1181 0.950 . S
C1204 C1205 1.349 . S
C1204 C1206 1.327 . S
C1204 H1229 0.950 . S
C1205 C1204 1.349 . S
C1205 C1221 1.349 . S
C1206 C1204 1.327 . S
C1206 C1225 1.429 . S
C1206 H1230 0.950 . S
C1207 C1224 1.574 . S
C1207 C1226 1.368 . S
C1207 H1231 0.949 . S
H1208 C1212 0.949 . S
C1209 C1210 1.349 . S
C1209 C1211 1.327 . S
C1209 H1232 0.950 . S
C1210 C1209 1.349 . S
C1210 C1222 1.349 . S
C1211 C1209 1.327 . S
C1211 C1227 1.429 . S
C1211 H1233 0.950 1_554 S
C1212 H1208 0.949 . S
C1212 C1220 1.574 1_554 S
C1212 C1228 1.362 1_554 S
H1213 C1221 0.950 . S
H1214 C1219 0.950 . S
H1215 C1220 0.949 . S
H1216 C1222 0.950 . S
H1217 C1223 0.950 . S
H1218 C1224 0.949 . S
C1219 H1214 0.950 . S
C1219 C1221 1.327 . S
C1219 C1225 1.429 . S
C1220 C1212 1.574 1_556 S
C1220 H1215 0.949 . S
C1220 C1226 1.368 . S
C1221 C1205 1.349 . S
C1221 H1213 0.950 . S
C1221 C1219 1.327 . S
C1222 C1210 1.349 . S
C1222 H1216 0.950 . S
C1222 C1223 1.327 . S
C1223 H1217 0.950 . S
C1223 C1222 1.327 . S
C1223 C1227 1.429 . S
C1224 C1207 1.574 . S
C1224 H1218 0.949 . S
C1224 C1228 1.381 . S
C1225 C1206 1.429 . S
C1225 C1219 1.429 . S
C1225 C1226 1.523 . S
C1226 C1207 1.368 . S
C1226 C1220 1.368 . S
C1226 C1225 1.523 . S
C1227 C1211 1.429 . S
C1227 C1223 1.429 . S
C1227 C1228 1.515 1_554 S
C1228 C1212 1.362 1_556 S
C1228 C1224 1.381 . S
C1228 C1227 1.515 1_556 S
H1229 C1204 0.950 . S
H1230 C1206 0.950 . S
H1231 C1207 0.949 . S
H1232 C1209 0.950 . S
H1233 C1211 0.950 1_556 S
C1234 C1235 1.349 . S
C1234 C1236 1.327 . S
C1234 H1259 0.950 . S
C1235 C1234 1.349 . S
C1235 C1251 1.349 . S
C1236 C1234 1.327 . S
C1236 C1255 1.429 . S
C1236 H1260 0.950 . S
C1237 C1254 1.574 . S
C1237 C1256 1.368 . S
C1237 H1261 0.949 . S
H1238 C1242 0.949 . S
C1239 C1240 1.349 . S
C1239 C1241 1.327 . S
C1239 H1262 0.950 . S
C1240 C1239 1.349 . S
C1240 C1252 1.349 . S
C1241 C1239 1.327 . S
C1241 C1257 1.429 . S
C1241 H1263 0.950 . S
C1242 H1238 0.949 . S
C1242 C1250 1.574 . S
C1242 C1258 1.368 . S
H1243 C1251 0.950 . S
H1244 C1249 0.950 . S
H1245 C1250 0.949 . S
H1246 C1252 0.950 . S
H1247 C1253 0.950 . S
H1248 C1254 0.949 . S
C1249 H1244 0.950 . S
C1249 C1251 1.327 . S
C1249 C1255 1.429 . S
C1250 C1242 1.574 . S
C1250 H1245 0.949 . S
C1250 C1256 1.368 . S
C1251 C1235 1.349 . S
C1251 H1243 0.950 . S
C1251 C1249 1.327 . S
C1252 C1240 1.349 . S
C1252 H1246 0.950 . S
C1252 C1253 1.327 . S
C1253 H1247 0.950 . S
C1253 C1252 1.327 . S
C1253 C1257 1.429 . S
C1254 C1237 1.574 . S
C1254 H1248 0.949 . S
C1254 C1258 1.368 . S
C1255 C1236 1.429 . S
C1255 C1249 1.429 . S
C1255 C1256 1.523 . S
C1256 C1237 1.368 . S
C1256 C1250 1.368 . S
C1256 C1255 1.523 . S
C1257 C1241 1.429 . S
C1257 C1253 1.429 . S
C1257 C1258 1.523 . S
C1258 C1242 1.368 . S
C1258 C1254 1.368 . S
C1258 C1257 1.523 . S
H1259 C1234 0.950 . S
H1260 C1236 0.950 . S
H1261 C1237 0.949 . S
H1262 C1239 0.950 . S
H1263 C1241 0.950 . S
C1264 C1265 1.349 . S
C1264 C1266 1.327 . S
C1264 H1289 0.950 . S
C1265 C1264 1.349 . S
C1265 C1281 1.349 . S
C1266 C1264 1.327 . S
C1266 C1285 1.429 . S
C1266 H1290 0.950 . S
C1267 C1284 1.574 . S
C1267 C1286 1.368 . S
C1267 H1291 0.949 . S
H1268 C1272 0.949 . S
C1269 C1270 1.349 . S
C1269 C1271 1.327 . S
C1269 H1292 0.950 . S
C1270 C1269 1.349 . S
C1270 C1282 1.349 . S
C1271 C1269 1.327 . S
C1271 C1287 1.429 . S
C1271 H1293 0.950 . S
C1272 H1268 0.949 . S
C1272 C1280 1.574 . S
C1272 C1288 1.363 1_556 S
H1273 C1281 0.950 . S
H1274 C1279 0.950 . S
H1275 C1280 0.949 . S
H1276 C1282 0.950 . S
H1277 C1283 0.950 . S
H1278 C1284 0.949 1_554 S
C1279 H1274 0.950 . S
C1279 C1281 1.327 . S
C1279 C1285 1.429 . S
C1280 C1272 1.574 . S
C1280 H1275 0.949 . S
C1280 C1286 1.368 . S
C1281 C1265 1.349 . S
C1281 H1273 0.950 . S
C1281 C1279 1.327 . S
C1282 C1270 1.349 . S
C1282 H1276 0.950 . S
C1282 C1283 1.327 . S
C1283 H1277 0.950 . S
C1283 C1282 1.327 . S
C1283 C1287 1.429 . S
C1284 C1267 1.574 . S
C1284 H1278 0.949 1_556 S
C1284 C1288 1.359 1_556 S
C1285 C1266 1.429 . S
C1285 C1279 1.429 . S
C1285 C1286 1.523 . S
C1286 C1267 1.368 . S
C1286 C1280 1.368 . S
C1286 C1285 1.523 . S
C1287 C1271 1.429 . S
C1287 C1283 1.429 . S
C1287 C1288 1.542 . S
C1288 C1272 1.363 1_554 S
C1288 C1284 1.359 1_554 S
C1288 C1287 1.542 . S
H1289 C1264 0.950 . S
H1290 C1266 0.950 . S
H1291 C1267 0.949 . S
H1292 C1269 0.950 . S
H1293 C1271 0.950 . S
C1294 C1295 1.349 . S
C1294 C1296 1.327 . S
C1294 H1319 0.950 . S
C1295 C1294 1.349 . S
C1295 C1311 1.346 1_655 S
C1296 C1294 1.327 . S
C1296 C1315 1.429 1_556 S
C1296 H1320 0.950 . S
C1297 C1314 1.574 . S
C1297 C1316 1.368 . S
C1297 H1321 0.949 . S
H1298 C1302 0.949 . S
C1299 C1300 1.349 . S
C1299 C1301 1.327 . S
C1299 H1322 0.950 . S
C1300 C1299 1.349 . S
C1300 C1312 1.349 . S
C1301 C1299 1.327 . S
C1301 C1317 1.429 . S
C1301 H1323 0.950 . S
C1302 H1298 0.949 . S
C1302 C1310 1.574 . S
C1302 C1318 1.368 . S
H1303 C1311 0.963 . S
H1304 C1309 0.950 . S
H1305 C1310 0.949 . S
H1306 C1312 0.950 . S
H1307 C1313 0.950 . S
H1308 C1314 0.949 . S
C1309 H1304 0.950 . S
C1309 C1311 1.317 1_654 S
C1309 C1315 1.429 . S
C1310 C1302 1.574 . S
C1310 H1305 0.949 . S
C1310 C1316 1.368 . S
C1311 C1295 1.346 1_455 S
C1311 H1303 0.963 . S
C1311 C1309 1.317 1_456 S
C1312 C1300 1.349 . S
C1312 H1306 0.950 . S
C1312 C1313 1.327 . S
C1313 H1307 0.950 . S
C1313 C1312 1.327 . S
C1313 C1317 1.429 . S
C1314 C1297 1.574 . S
C1314 H1308 0.949 . S
C1314 C1318 1.368 . S
C1315 C1296 1.429 1_554 S
C1315 C1309 1.429 . S
C1315 C1316 1.523 . S
C1316 C1297 1.368 . S
C1316 C1310 1.368 . S
C1316 C1315 1.523 . S
C1317 C1301 1.429 . S
C1317 C1313 1.429 . S
C1317 C1318 1.523 . S
C1318 C1302 1.368 . S
C1318 C1314 1.368 . S
C1318 C1317 1.523 . S
H1319 C1294 0.950 . S
H1320 C1296 0.950 . S
H1321 C1297 0.949 . S
H1322 C1299 0.950 . S
H1323 C1301 0.950 . S
C1324 C1325 1.349 . S
C1324 C1326 1.327 . S
C1324 H1349 0.950 . S
C1325 C1324 1.349 . S
C1325 C1341 1.349 . S
C1326 C1324 1.327 . S
C1326 C1345 1.429 . S
C1326 H1350 0.950 . S
C1327 C1344 1.574 . S
C1327 C1346 1.368 . S
C1327 H1351 0.949 . S
H1328 C1332 0.949 . S
C1329 C1330 1.349 . S
C1329 C1331 1.327 . S
C1329 H1352 0.950 . S
C1330 C1329 1.349 . S
C1330 C1342 1.349 . S
C1331 C1329 1.327 . S
C1331 C1347 1.429 . S
C1331 H1353 0.950 . S
C1332 H1328 0.949 . S
C1332 C1340 1.574 . S
C1332 C1348 1.368 . S
H1333 C1341 0.950 . S
H1334 C1339 0.950 . S
H1335 C1340 0.949 . S
H1336 C1342 0.950 . S
H1337 C1343 0.950 . S
H1338 C1344 0.949 . S
C1339 H1334 0.950 . S
C1339 C1341 1.327 . S
C1339 C1345 1.429 . S
C1340 C1332 1.574 . S
C1340 H1335 0.949 . S
C1340 C1346 1.368 . S
C1341 C1325 1.349 . S
C1341 H1333 0.950 . S
C1341 C1339 1.327 . S
C1342 C1330 1.349 . S
C1342 H1336 0.950 . S
C1342 C1343 1.327 . S
C1343 H1337 0.950 . S
C1343 C1342 1.327 . S
C1343 C1347 1.429 . S
C1344 C1327 1.574 . S
C1344 H1338 0.949 . S
C1344 C1348 1.368 . S
C1345 C1326 1.429 . S
C1345 C1339 1.429 . S
C1345 C1346 1.523 . S
C1346 C1327 1.368 . S
C1346 C1340 1.368 . S
C1346 C1345 1.523 . S
C1347 C1331 1.429 . S
C1347 C1343 1.429 . S
C1347 C1348 1.523 . S
C1348 C1332 1.368 . S
C1348 C1344 1.368 . S
C1348 C1347 1.523 . S
H1349 C1324 0.950 . S
H1350 C1326 0.950 . S
H1351 C1327 0.949 . S
H1352 C1329 0.950 . S
H1353 C1331 0.950 . S
C1354 C1355 1.349 . S
C1354 C1356 1.327 . S
C1354 H1379 0.950 . S
C1355 C1354 1.349 . S
C1355 C1371 1.349 . S
C1356 C1354 1.327 . S
C1356 C1375 1.429 . S
C1356 H1380 0.950 . S
C1357 C1374 1.574 . S
C1357 C1376 1.368 . S
C1357 H1381 0.949 . S
H1358 C1362 0.949 . S
C1359 C1360 1.349 . S
C1359 C1361 1.327 . S
C1359 H1382 0.950 . S
C1360 C1359 1.349 . S
C1360 C1372 1.349 . S
C1361 C1359 1.327 . S
C1361 C1377 1.429 . S
C1361 H1383 0.950 . S
C1362 H1358 0.949 . S
C1362 C1370 1.574 . S
C1362 C1378 1.368 . S
H1363 C1371 0.950 . S
H1364 C1369 0.950 . S
H1365 C1370 0.949 . S
H1366 C1372 0.950 . S
H1367 C1373 0.950 . S
H1368 C1374 0.949 . S
C1369 H1364 0.950 . S
C1369 C1371 1.327 . S
C1369 C1375 1.429 . S
C1370 C1362 1.574 . S
C1370 H1365 0.949 . S
C1370 C1376 1.368 . S
C1371 C1355 1.349 . S
C1371 H1363 0.950 . S
C1371 C1369 1.327 . S
C1372 C1360 1.349 . S
C1372 H1366 0.950 . S
C1372 C1373 1.327 . S
C1373 H1367 0.950 . S
C1373 C1372 1.327 . S
C1373 C1377 1.429 . S
C1374 C1357 1.574 . S
C1374 H1368 0.949 . S
C1374 C1378 1.368 . S
C1375 C1356 1.429 . S
C1375 C1369 1.429 . S
C1375 C1376 1.523 . S
C1376 C1357 1.368 . S
C1376 C1370 1.368 . S
C1376 C1375 1.523 . S
C1377 C1361 1.429 . S
C1377 C1373 1.429 . S
C1377 C1378 1.523 . S
C1378 C1362 1.368 . S
C1378 C1374 1.368 . S
C1378 C1377 1.523 . S
H1379 C1354 0.950 . S
H1380 C1356 0.950 . S
H1381 C1357 0.949 . S
H1382 C1359 0.950 . S
H1383 C1361 0.950 . S
C1384 C1385 1.349 . S
C1384 C1386 1.327 . S
C1384 H1409 0.950 . S
C1385 C1384 1.349 . S
C1385 C1401 1.349 . S
C1386 C1384 1.327 . S
C1386 C1405 1.429 . S
C1386 H1410 0.950 . S
C1387 C1404 1.574 . S
C1387 C1406 1.368 . S
C1387 H1411 0.949 . S
H1388 C1392 0.949 . S
C1389 C1390 1.349 . S
C1389 C1391 1.327 . S
C1389 H1412 0.950 . S
C1390 C1389 1.349 . S
C1390 C1402 1.349 . S
C1391 C1389 1.327 . S
C1391 C1407 1.429 . S
C1391 H1413 0.950 . S
C1392 H1388 0.949 . S
C1392 C1400 1.574 . S
C1392 C1408 1.368 . S
H1393 C1401 0.950 . S
H1394 C1399 0.950 . S
H1395 C1400 0.949 . S
H1396 C1402 0.950 . S
H1397 C1403 0.950 . S
H1398 C1404 0.949 . S
C1399 H1394 0.950 . S
C1399 C1401 1.327 . S
C1399 C1405 1.429 . S
C1400 C1392 1.574 . S
C1400 H1395 0.949 . S
C1400 C1406 1.368 . S
C1401 C1385 1.349 . S
C1401 H1393 0.950 . S
C1401 C1399 1.327 . S
C1402 C1390 1.349 . S
C1402 H1396 0.950 . S
C1402 C1403 1.327 . S
C1403 H1397 0.950 . S
C1403 C1402 1.327 . S
C1403 C1407 1.429 . S
C1404 C1387 1.574 . S
C1404 H1398 0.949 . S
C1404 C1408 1.368 . S
C1405 C1386 1.429 . S
C1405 C1399 1.429 . S
C1405 C1406 1.523 . S
C1406 C1387 1.368 . S
C1406 C1400 1.368 . S
C1406 C1405 1.523 . S
C1407 C1391 1.429 . S
C1407 C1403 1.429 . S
C1407 C1408 1.523 . S
C1408 C1392 1.368 . S
C1408 C1404 1.368 . S
C1408 C1407 1.523 . S
H1409 C1384 0.950 . S
H1410 C1386 0.950 . S
H1411 C1387 0.949 . S
H1412 C1389 0.950 . S
H1413 C1391 0.950 . S
C1414 C1415 1.349 . S
C1414 C1416 1.327 . S
C1414 H1439 0.950 1_556 S
C1415 C1414 1.349 . S
C1415 C1431 1.349 . S
C1416 C1414 1.327 . S
C1416 C1435 1.429 . S
C1416 H1440 0.950 . S
C1417 C1434 1.574 . S
C1417 C1436 1.368 . S
C1417 H1441 0.949 . S
H1418 C1422 0.949 . S
C1419 C1420 1.349 . S
C1419 C1421 1.327 . S
C1419 H1442 0.950 . S
C1420 C1419 1.349 . S
C1420 C1432 1.349 . S
C1421 C1419 1.327 . S
C1421 C1437 1.429 . S
C1421 H1443 0.950 . S
C1422 H1418 0.949 . S
C1422 C1430 1.574 . S
C1422 C1438 1.368 . S
H1423 C1431 0.950 . S
H1424 C1429 0.950 . S
H1425 C1430 0.949 . S
H1426 C1432 0.950 . S
H1427 C1433 0.950 . S
H1428 C1434 0.949 . S
C1429 H1424 0.950 . S
C1429 C1431 1.327 . S
C1429 C1435 1.429 . S
C1430 C1422 1.574 . S
C1430 H1425 0.949 . S
C1430 C1436 1.368 . S
C1431 C1415 1.349 . S
C1431 H1423 0.950 . S
C1431 C1429 1.327 . S
C1432 C1420 1.349 . S
C1432 H1426 0.950 . S
C1432 C1433 1.327 . S
C1433 H1427 0.950 . S
C1433 C1432 1.327 . S
C1433 C1437 1.429 . S
C1434 C1417 1.574 . S
C1434 H1428 0.949 . S
C1434 C1438 1.368 . S
C1435 C1416 1.429 . S
C1435 C1429 1.429 . S
C1435 C1436 1.523 . S
C1436 C1417 1.368 . S
C1436 C1430 1.368 . S
C1436 C1435 1.523 . S
C1437 C1421 1.429 . S
C1437 C1433 1.429 . S
C1437 C1438 1.523 . S
C1438 C1422 1.368 . S
C1438 C1434 1.368 . S
C1438 C1437 1.523 . S
H1439 C1414 0.950 1_554 S
H1440 C1416 0.950 . S
H1441 C1417 0.949 . S
H1442 C1419 0.950 . S
H1443 C1421 0.950 . S
C1444 C1445 1.349 . S
C1444 C1446 1.327 . S
C1444 H1469 0.950 . S
C1445 C1444 1.349 . S
C1445 C1461 1.349 . S
C1446 C1444 1.327 . S
C1446 C1465 1.429 . S
C1446 H1470 0.950 . S
C1447 C1464 1.574 . S
C1447 C1466 1.368 . S
C1447 H1471 0.949 . S
H1448 C1452 0.949 . S
C1449 C1450 1.349 . S
C1449 C1451 1.327 . S
C1449 H1472 0.950 . S
C1450 C1449 1.349 . S
C1450 C1462 1.349 . S
C1451 C1449 1.327 . S
C1451 C1467 1.429 . S
C1451 H1473 0.950 . S
C1452 H1448 0.949 . S
C1452 C1460 1.574 1_554 S
C1452 C1468 1.368 . S
H1453 C1461 0.950 . S
H1454 C1459 0.950 . S
H1455 C1460 0.949 . S
H1456 C1462 0.950 . S
H1457 C1463 0.950 . S
H1458 C1464 0.949 . S
C1459 H1454 0.950 . S
C1459 C1461 1.327 . S
C1459 C1465 1.429 . S
C1460 C1452 1.574 1_556 S
C1460 H1455 0.949 . S
C1460 C1466 1.368 1_556 S
C1461 C1445 1.349 . S
C1461 H1453 0.950 . S
C1461 C1459 1.327 . S
C1462 C1450 1.349 . S
C1462 H1456 0.950 . S
C1462 C1463 1.327 . S
C1463 H1457 0.950 . S
C1463 C1462 1.327 . S
C1463 C1467 1.429 . S
C1464 C1447 1.574 . S
C1464 H1458 0.949 . S
C1464 C1468 1.368 . S
C1465 C1446 1.429 . S
C1465 C1459 1.429 . S
C1465 C1466 1.523 1_556 S
C1466 C1447 1.368 . S
C1466 C1460 1.368 1_554 S
C1466 C1465 1.523 1_554 S
C1467 C1451 1.429 . S
C1467 C1463 1.429 . S
C1467 C1468 1.523 . S
C1468 C1452 1.368 . S
C1468 C1464 1.368 . S
C1468 C1467 1.523 . S
H1469 C1444 0.950 . S
H1470 C1446 0.950 . S
H1471 C1447 0.949 . S
H1472 C1449 0.950 . S
H1473 C1451 0.950 . S
C1474 C1475 1.349 . S
C1474 C1476 1.327 . S
C1474 H1499 0.950 . S
C1475 C1474 1.349 . S
C1475 C1491 1.349 . S
C1476 C1474 1.327 . S
C1476 C1495 1.429 1_655 S
C1476 H1500 0.950 . S
C1477 C1494 1.574 . S
C1477 C1496 1.368 . S
C1477 H1501 0.949 . S
H1478 C1482 0.949 . S
C1479 C1480 1.349 . S
C1479 C1481 1.327 . S
C1479 H1502 0.950 . S
C1480 C1479 1.349 . S
C1480 C1492 1.349 . S
C1481 C1479 1.327 . S
C1481 C1497 1.429 . S
C1481 H1503 0.950 . S
C1482 H1478 0.949 . S
C1482 C1490 1.574 . S
C1482 C1498 1.368 . S
H1483 C1491 0.950 . S
H1484 C1489 0.950 . S
H1485 C1490 0.949 . S
H1486 C1492 0.950 . S
H1487 C1493 0.950 . S
H1488 C1494 0.949 . S
C1489 H1484 0.950 . S
C1489 C1491 1.327 1_455 S
C1489 C1495 1.429 . S
C1490 C1482 1.574 . S
C1490 H1485 0.949 . S
C1490 C1496 1.368 . S
C1491 C1475 1.349 . S
C1491 H1483 0.950 . S
C1491 C1489 1.327 1_655 S
C1492 C1480 1.349 . S
C1492 H1486 0.950 . S
C1492 C1493 1.327 . S
C1493 H1487 0.950 . S
C1493 C1492 1.327 . S
C1493 C1497 1.429 . S
C1494 C1477 1.574 . S
C1494 H1488 0.949 . S
C1494 C1498 1.368 . S
C1495 C1476 1.429 1_455 S
C1495 C1489 1.429 . S
C1495 C1496 1.523 . S
C1496 C1477 1.368 . S
C1496 C1490 1.368 . S
C1496 C1495 1.523 . S
C1497 C1481 1.429 . S
C1497 C1493 1.429 . S
C1497 C1498 1.523 . S
C1498 C1482 1.368 . S
C1498 C1494 1.368 . S
C1498 C1497 1.523 . S
H1499 C1474 0.950 . S
H1500 C1476 0.950 . S
H1501 C1477 0.949 . S
H1502 C1479 0.950 . S
H1503 C1481 0.950 . S
C1504 C1505 1.349 . S
C1504 C1506 1.327 . S
C1504 H1529 0.950 . S
C1505 C1504 1.349 . S
C1505 C1521 1.349 . S
C1506 C1504 1.327 . S
C1506 C1525 1.429 . S
C1506 H1530 0.950 . S
C1507 C1524 1.574 . S
C1507 C1526 1.368 . S
C1507 H1531 0.949 . S
H1508 C1512 0.949 . S
C1509 C1510 1.349 . S
C1509 C1511 1.327 . S
C1509 H1532 0.950 . S
C1510 C1509 1.349 . S
C1510 C1522 1.349 . S
C1511 C1509 1.327 . S
C1511 C1527 1.429 . S
C1511 H1533 0.950 . S
C1512 H1508 0.949 . S
C1512 C1520 1.574 1_556 S
C1512 C1528 1.373 . S
H1513 C1521 0.950 . S
H1514 C1519 0.950 . S
H1515 C1520 0.949 . S
H1516 C1522 0.950 . S
H1517 C1523 0.950 . S
H1518 C1524 0.949 . S
C1519 H1514 0.950 . S
C1519 C1521 1.327 . S
C1519 C1525 1.429 . S
C1520 C1512 1.574 1_554 S
C1520 H1515 0.949 . S
C1520 C1526 1.368 . S
C1521 C1505 1.349 . S
C1521 H1513 0.950 . S
C1521 C1519 1.327 . S
C1522 C1510 1.349 . S
C1522 H1516 0.950 . S
C1522 C1523 1.327 . S
C1523 H1517 0.950 . S
C1523 C1522 1.327 . S
C1523 C1527 1.429 . S
C1524 C1507 1.574 . S
C1524 H1518 0.949 . S
C1524 C1528 1.349 1_554 S
C1525 C1506 1.429 . S
C1525 C1519 1.429 . S
C1525 C1526 1.523 . S
C1526 C1507 1.368 . S
C1526 C1520 1.368 . S
C1526 C1525 1.523 . S
C1527 C1511 1.429 . S
C1527 C1523 1.429 . S
C1527 C1528 1.542 . S
C1528 C1512 1.373 . S
C1528 C1524 1.349 1_556 S
C1528 C1527 1.542 . S
H1529 C1504 0.950 . S
H1530 C1506 0.950 . S
H1531 C1507 0.949 . S
H1532 C1509 0.950 . S
H1533 C1511 0.950 . S
C1534 C1535 1.349 . S
C1534 C1536 1.327 . S
C1534 H1559 0.950 . S
C1535 C1534 1.349 . S
C1535 C1551 1.349 . S
C1536 C1534 1.327 . S
C1536 C1555 1.429 . S
C1536 H1560 0.950 . S
C1537 C1554 1.574 . S
C1537 C1556 1.368 . S
C1537 H1561 0.949 . S
H1538 C1542 0.949 . S
C1539 C1540 1.349 . S
C1539 C1541 1.327 1_554 S
C1539 H1562 0.950 1_455 S
C1540 C1539 1.349 . S
C1540 C1552 1.349 . S
C1541 C1539 1.327 1_556 S
C1541 C1557 1.429 . S
C1541 H1563 0.950 . S
C1542 H1538 0.949 . S
C1542 C1550 1.574 . S
C1542 C1558 1.368 . S
H1543 C1551 0.950 . S
H1544 C1549 0.950 . S
H1545 C1550 0.949 . S
H1546 C1552 0.950 . S
H1547 C1553 0.950 . S
H1548 C1554 0.949 . S
C1549 H1544 0.950 . S
C1549 C1551 1.327 . S
C1549 C1555 1.429 . S
C1550 C1542 1.574 . S
C1550 H1545 0.949 . S
C1550 C1556 1.368 . S
C1551 C1535 1.349 . S
C1551 H1543 0.950 . S
C1551 C1549 1.327 . S
C1552 C1540 1.349 . S
C1552 H1546 0.950 . S
C1552 C1553 1.327 1_554 S
C1553 H1547 0.950 . S
C1553 C1552 1.327 1_556 S
C1553 C1557 1.429 . S
C1554 C1537 1.574 . S
C1554 H1548 0.949 . S
C1554 C1558 1.368 . S
C1555 C1536 1.429 . S
C1555 C1549 1.429 . S
C1555 C1556 1.523 . S
C1556 C1537 1.368 . S
C1556 C1550 1.368 . S
C1556 C1555 1.523 . S
C1557 C1541 1.429 . S
C1557 C1553 1.429 . S
C1557 C1558 1.523 . S
C1558 C1542 1.368 . S
C1558 C1554 1.368 . S
C1558 C1557 1.523 . S
H1559 C1534 0.950 . S
H1560 C1536 0.950 . S
H1561 C1537 0.949 . S
H1562 C1539 0.950 1_655 S
H1563 C1541 0.950 . S
C1564 C1565 1.349 . S
C1564 C1566 1.327 . S
C1564 H1589 0.950 . S
C1565 C1564 1.349 . S
C1565 C1581 1.349 . S
C1566 C1564 1.327 . S
C1566 C1585 1.429 . S
C1566 H1590 0.950 . S
C1567 C1584 1.574 . S
C1567 C1586 1.368 . S
C1567 H1591 0.949 . S
H1568 C1572 0.949 . S
C1569 C1570 1.349 . S
C1569 C1571 1.327 . S
C1569 H1592 0.950 . S
C1570 C1569 1.349 . S
C1570 C1582 1.349 . S
C1571 C1569 1.327 . S
C1571 C1587 1.429 . S
C1571 H1593 0.950 . S
C1572 H1568 0.949 . S
C1572 C1580 1.574 . S
C1572 C1588 1.368 . S
H1573 C1581 0.950 . S
H1574 C1579 0.950 . S
H1575 C1580 0.949 . S
H1576 C1582 0.950 . S
H1577 C1583 0.950 . S
H1578 C1584 0.949 . S
C1579 H1574 0.950 . S
C1579 C1581 1.327 . S
C1579 C1585 1.429 . S
C1580 C1572 1.574 . S
C1580 H1575 0.949 . S
C1580 C1586 1.368 . S
C1581 C1565 1.349 . S
C1581 H1573 0.950 . S
C1581 C1579 1.327 . S
C1582 C1570 1.349 . S
C1582 H1576 0.950 . S
C1582 C1583 1.327 . S
C1583 H1577 0.950 . S
C1583 C1582 1.327 . S
C1583 C1587 1.429 . S
C1584 C1567 1.574 . S
C1584 H1578 0.949 . S
C1584 C1588 1.368 . S
C1585 C1566 1.429 . S
C1585 C1579 1.429 . S
C1585 C1586 1.523 . S
C1586 C1567 1.368 . S
C1586 C1580 1.368 . S
C1586 C1585 1.523 . S
C1587 C1571 1.429 . S
C1587 C1583 1.429 . S
C1587 C1588 1.523 . S
C1588 C1572 1.368 . S
C1588 C1584 1.368 . S
C1588 C1587 1.523 . S
H1589 C1564 0.950 . S
H1590 C1566 0.950 . S
H1591 C1567 0.949 . S
H1592 C1569 0.950 . S
H1593 C1571 0.950 . S
C1594 C1595 1.349 . S
C1594 C1596 1.327 . S
C1594 H1619 0.950 . S
C1595 C1594 1.349 . S
C1595 C1611 1.349 . S
C1596 C1594 1.327 . S
C1596 C1615 1.429 . S
C1596 H1620 0.950 . S
C1597 C1614 1.574 . S
C1597 C1616 1.368 . S
C1597 H1621 0.949 . S
H1598 C1602 0.949 . S
C1599 C1600 1.349 . S
C1599 C1601 1.327 . S
C1599 H1622 0.950 . S
C1600 C1599 1.349 . S
C1600 C1612 1.349 . S
C1601 C1599 1.327 . S
C1601 C1617 1.429 . S
C1601 H1623 0.950 . S
C1602 H1598 0.949 . S
C1602 C1610 1.574 . S
C1602 C1618 1.368 . S
H1603 C1611 0.950 . S
H1604 C1609 0.950 . S
H1605 C1610 0.949 . S
H1606 C1612 0.950 . S
H1607 C1613 0.950 . S
H1608 C1614 0.949 . S
C1609 H1604 0.950 . S
C1609 C1611 1.327 . S
C1609 C1615 1.429 . S
C1610 C1602 1.574 . S
C1610 H1605 0.949 . S
C1610 C1616 1.368 . S
C1611 C1595 1.349 . S
C1611 H1603 0.950 . S
C1611 C1609 1.327 . S
C1612 C1600 1.349 . S
C1612 H1606 0.950 . S
C1612 C1613 1.327 . S
C1613 H1607 0.950 . S
C1613 C1612 1.327 . S
C1613 C1617 1.429 . S
C1614 C1597 1.574 . S
C1614 H1608 0.949 . S
C1614 C1618 1.368 . S
C1615 C1596 1.429 . S
C1615 C1609 1.429 . S
C1615 C1616 1.523 . S
C1616 C1597 1.368 . S
C1616 C1610 1.368 . S
C1616 C1615 1.523 . S
C1617 C1601 1.429 . S
C1617 C1613 1.429 . S
C1617 C1618 1.523 . S
C1618 C1602 1.368 . S
C1618 C1614 1.368 . S
C1618 C1617 1.523 . S
H1619 C1594 0.950 . S
H1620 C1596 0.950 . S
H1621 C1597 0.949 . S
H1622 C1599 0.950 . S
H1623 C1601 0.950 . S
C1624 C1625 1.349 . S
C1624 C1626 1.327 . S
C1624 H1649 0.950 . S
C1625 C1624 1.349 . S
C1625 C1641 1.349 . S
C1626 C1624 1.327 . S
C1626 C1645 1.429 . S
C1626 H1650 0.950 . S
C1627 C1644 1.574 . S
C1627 C1646 1.368 . S
C1627 H1651 0.949 . S
H1628 C1632 0.949 . S
C1629 C1630 1.349 . S
C1629 C1631 1.327 . S
C1629 H1652 0.950 . S
C1630 C1629 1.349 . S
C1630 C1642 1.349 . S
C1631 C1629 1.327 . S
C1631 C1647 1.429 . S
C1631 H1653 0.950 . S
C1632 H1628 0.949 . S
C1632 C1640 1.574 . S
C1632 C1648 1.368 . S
H1633 C1641 0.950 . S
H1634 C1639 0.950 . S
H1635 C1640 0.949 . S
H1636 C1642 0.950 . S
H1637 C1643 0.950 . S
H1638 C1644 0.949 . S
C1639 H1634 0.950 . S
C1639 C1641 1.327 . S
C1639 C1645 1.429 . S
C1640 C1632 1.574 . S
C1640 H1635 0.949 . S
C1640 C1646 1.368 . S
C1641 C1625 1.349 . S
C1641 H1633 0.950 . S
C1641 C1639 1.327 . S
C1642 C1630 1.349 . S
C1642 H1636 0.950 . S
C1642 C1643 1.327 . S
C1643 H1637 0.950 . S
C1643 C1642 1.327 . S
C1643 C1647 1.429 . S
C1644 C1627 1.574 . S
C1644 H1638 0.949 . S
C1644 C1648 1.368 . S
C1645 C1626 1.429 . S
C1645 C1639 1.429 . S
C1645 C1646 1.523 . S
C1646 C1627 1.368 . S
C1646 C1640 1.368 . S
C1646 C1645 1.523 . S
C1647 C1631 1.429 . S
C1647 C1643 1.429 . S
C1647 C1648 1.523 . S
C1648 C1632 1.368 . S
C1648 C1644 1.368 . S
C1648 C1647 1.523 . S
H1649 C1624 0.950 . S
H1650 C1626 0.950 . S
H1651 C1627 0.949 . S
H1652 C1629 0.950 . S
H1653 C1631 0.950 . S
C1654 C1655 1.349 . S
C1654 C1656 1.327 . S
C1654 H1679 0.950 . S
C1655 C1654 1.349 . S
C1655 C1671 1.349 . S
C1656 C1654 1.327 . S
C1656 C1675 1.429 . S
C1656 H1680 0.950 . S
C1657 C1674 1.574 . S
C1657 C1676 1.368 . S
C1657 H1681 0.949 . S
H1658 C1662 0.949 . S
C1659 C1660 1.349 . S
C1659 C1661 1.327 . S
C1659 H1682 0.950 . S
C1660 C1659 1.349 . S
C1660 C1672 1.349 . S
C1661 C1659 1.327 . S
C1661 C1677 1.429 . S
C1661 H1683 0.950 . S
C1662 H1658 0.949 . S
C1662 C1670 1.574 . S
C1662 C1678 1.368 . S
H1663 C1671 0.950 1_556 S
H1664 C1669 0.950 . S
H1665 C1670 0.949 . S
H1666 C1672 0.950 . S
H1667 C1673 0.950 . S
H1668 C1674 0.949 . S
C1669 H1664 0.950 . S
C1669 C1671 1.327 . S
C1669 C1675 1.429 . S
C1670 C1662 1.574 . S
C1670 H1665 0.949 . S
C1670 C1676 1.368 . S
C1671 C1655 1.349 . S
C1671 H1663 0.950 1_554 S
C1671 C1669 1.327 . S
C1672 C1660 1.349 . S
C1672 H1666 0.950 . S
C1672 C1673 1.327 . S
C1673 H1667 0.950 . S
C1673 C1672 1.327 . S
C1673 C1677 1.429 . S
C1674 C1657 1.574 . S
C1674 H1668 0.949 . S
C1674 C1678 1.368 . S
C1675 C1656 1.429 . S
C1675 C1669 1.429 . S
C1675 C1676 1.523 . S
C1676 C1657 1.368 . S
C1676 C1670 1.368 . S
C1676 C1675 1.523 . S
C1677 C1661 1.429 . S
C1677 C1673 1.429 . S
C1677 C1678 1.523 . S
C1678 C1662 1.368 . S
C1678 C1674 1.368 . S
C1678 C1677 1.523 . S
H1679 C1654 0.950 . S
H1680 C1656 0.950 . S
H1681 C1657 0.949 . S
H1682 C1659 0.950 . S
H1683 C1661 0.950 . S
C1684 C1685 1.349 . S
C1684 C1686 1.327 . S
C1684 H1709 0.950 . S
C1685 C1684 1.349 . S
C1685 C1701 1.349 . S
C1686 C1684 1.327 . S
C1686 C1705 1.429 . S
C1686 H1710 0.950 . S
C1687 C1704 1.574 1_554 S
C1687 C1706 1.368 1_554 S
C1687 H1711 0.949 . S
H1688 C1692 0.949 . S
C1689 C1690 1.349 . S
C1689 C1691 1.327 . S
C1689 H1712 0.950 . S
C1690 C1689 1.349 . S
C1690 C1702 1.349 . S
C1691 C1689 1.327 . S
C1691 C1707 1.429 . S
C1691 H1713 0.950 . S
C1692 H1688 0.949 . S
C1692 C1700 1.574 . S
C1692 C1708 1.368 . S
H1693 C1701 0.950 . S
H1694 C1699 0.950 . S
H1695 C1700 0.949 . S
H1696 C1702 0.950 . S
H1697 C1703 0.950 . S
H1698 C1704 0.949 . S
C1699 H1694 0.950 . S
C1699 C1701 1.327 . S
C1699 C1705 1.429 . S
C1700 C1692 1.574 . S
C1700 H1695 0.949 . S
C1700 C1706 1.368 . S
C1701 C1685 1.349 . S
C1701 H1693 0.950 . S
C1701 C1699 1.327 . S
C1702 C1690 1.349 . S
C1702 H1696 0.950 . S
C1702 C1703 1.327 . S
C1703 H1697 0.950 . S
C1703 C1702 1.327 . S
C1703 C1707 1.429 . S
C1704 C1687 1.574 1_556 S
C1704 H1698 0.949 . S
C1704 C1708 1.368 . S
C1705 C1686 1.429 . S
C1705 C1699 1.429 . S
C1705 C1706 1.523 1_554 S
C1706 C1687 1.368 1_556 S
C1706 C1700 1.368 . S
C1706 C1705 1.523 1_556 S
C1707 C1691 1.429 . S
C1707 C1703 1.429 . S
C1707 C1708 1.523 . S
C1708 C1692 1.368 . S
C1708 C1704 1.368 . S
C1708 C1707 1.523 . S
H1709 C1684 0.950 . S
H1710 C1686 0.950 . S
H1711 C1687 0.949 . S
H1712 C1689 0.950 . S
H1713 C1691 0.950 . S
C1714 C1715 1.349 . S
C1714 C1716 1.327 . S
C1714 H1739 0.950 . S
C1715 C1714 1.349 . S
C1715 C1731 1.349 . S
C1716 C1714 1.327 . S
C1716 C1735 1.429 . S
C1716 H1740 0.950 . S
C1717 C1734 1.574 . S
C1717 C1736 1.368 . S
C1717 H1741 0.949 . S
H1718 C1722 0.949 . S
C1719 C1720 1.349 . S
C1719 C1721 1.327 1_455 S
C1719 H1742 0.950 . S
C1720 C1719 1.349 . S
C1720 C1732 1.349 . S
C1721 C1719 1.327 1_655 S
C1721 C1737 1.429 . S
C1721 H1743 0.950 . S
C1722 H1718 0.949 . S
C1722 C1730 1.574 . S
C1722 C1738 1.368 . S
H1723 C1731 0.950 . S
H1724 C1729 0.950 . S
H1725 C1730 0.949 . S
H1726 C1732 0.950 . S
H1727 C1733 0.950 . S
H1728 C1734 0.949 . S
C1729 H1724 0.950 . S
C1729 C1731 1.327 . S
C1729 C1735 1.429 . S
C1730 C1722 1.574 . S
C1730 H1725 0.949 . S
C1730 C1736 1.368 . S
C1731 C1715 1.349 . S
C1731 H1723 0.950 . S
C1731 C1729 1.327 . S
C1732 C1720 1.349 . S
C1732 H1726 0.950 . S
C1732 C1733 1.327 . S
C1733 H1727 0.950 . S
C1733 C1732 1.327 . S
C1733 C1737 1.429 1_455 S
C1734 C1717 1.574 . S
C1734 H1728 0.949 . S
C1734 C1738 1.368 . S
C1735 C1716 1.429 . S
C1735 C1729 1.429 . S
C1735 C1736 1.523 . S
C1736 C1717 1.368 . S
C1736 C1730 1.368 . S
C1736 C1735 1.523 . S
C1737 C1721 1.429 . S
C1737 C1733 1.429 1_655 S
C1737 C1738 1.523 . S
C1738 C1722 1.368 . S
C1738 C1734 1.368 . S
C1738 C1737 1.523 . S
H1739 C1714 0.950 . S
H1740 C1716 0.950 . S
H1741 C1717 0.949 . S
H1742 C1719 0.950 . S
H1743 C1721 0.950 . S
C1744 C1745 1.349 . S
C1744 C1746 1.327 . S
C1744 H1769 0.950 . S
C1745 C1744 1.349 . S
C1745 C1761 1.349 . S
C1746 C1744 1.327 . S
C1746 C1765 1.429 . S
C1746 H1770 0.950 . S
C1747 C1764 1.574 . S
C1747 C1766 1.368 . S
C1747 H1771 0.949 . S
H1748 C1752 0.949 . S
C1749 C1750 1.349 . S
C1749 C1751 1.327 . S
C1749 H1772 0.950 . S
C1750 C1749 1.349 . S
C1750 C1762 1.349 . S
C1751 C1749 1.327 . S
C1751 C1767 1.429 . S
C1751 H1773 0.950 . S
C1752 H1748 0.949 . S
C1752 C1760 1.574 . S
C1752 C1768 1.368 . S
H1753 C1761 0.950 . S
H1754 C1759 0.950 . S
H1755 C1760 0.949 . S
H1756 C1762 0.950 . S
H1757 C1763 0.950 . S
H1758 C1764 0.949 . S
C1759 H1754 0.950 . S
C1759 C1761 1.327 . S
C1759 C1765 1.429 . S
C1760 C1752 1.574 . S
C1760 H1755 0.949 . S
C1760 C1766 1.368 . S
C1761 C1745 1.349 . S
C1761 H1753 0.950 . S
C1761 C1759 1.327 . S
C1762 C1750 1.349 . S
C1762 H1756 0.950 . S
C1762 C1763 1.327 . S
C1763 H1757 0.950 . S
C1763 C1762 1.327 . S
C1763 C1767 1.429 . S
C1764 C1747 1.574 . S
C1764 H1758 0.949 . S
C1764 C1768 1.368 . S
C1765 C1746 1.429 . S
C1765 C1759 1.429 . S
C1765 C1766 1.523 . S
C1766 C1747 1.368 . S
C1766 C1760 1.368 . S
C1766 C1765 1.523 . S
C1767 C1751 1.429 . S
C1767 C1763 1.429 . S
C1767 C1768 1.523 . S
C1768 C1752 1.368 . S
C1768 C1764 1.368 . S
C1768 C1767 1.523 . S
H1769 C1744 0.950 . S
H1770 C1746 0.950 . S
H1771 C1747 0.949 . S
H1772 C1749 0.950 . S
H1773 C1751 0.950 . S
C1774 C1775 1.349 . S
C1774 C1776 1.327 . S
C1774 H1799 0.950 . S
C1775 C1774 1.349 . S
C1775 C1791 1.349 . S
C1776 C1774 1.327 . S
C1776 C1795 1.429 . S
C1776 H1800 0.950 . S
C1777 C1794 1.574 . S
C1777 C1796 1.368 . S
C1777 H1801 0.949 . S
H1778 C1782 0.949 . S
C1779 C1780 1.349 . S
C1779 C1781 1.327 . S
C1779 H1802 0.950 . S
C1780 C1779 1.349 . S
C1780 C1792 1.349 . S
C1781 C1779 1.327 . S
C1781 C1797 1.429 . S
C1781 H1803 0.950 . S
C1782 H1778 0.949 . S
C1782 C1790 1.574 . S
C1782 C1798 1.368 . S
H1783 C1791 0.950 . S
H1784 C1789 0.950 . S
H1785 C1790 0.949 . S
H1786 C1792 0.950 . S
H1787 C1793 0.950 . S
H1788 C1794 0.949 . S
C1789 H1784 0.950 . S
C1789 C1791 1.327 . S
C1789 C1795 1.429 . S
C1790 C1782 1.574 . S
C1790 H1785 0.949 . S
C1790 C1796 1.368 . S
C1791 C1775 1.349 . S
C1791 H1783 0.950 . S
C1791 C1789 1.327 . S
C1792 C1780 1.349 . S
C1792 H1786 0.950 . S
C1792 C1793 1.327 . S
C1793 H1787 0.950 . S
C1793 C1792 1.327 . S
C1793 C1797 1.429 . S
C1794 C1777 1.574 . S
C1794 H1788 0.949 . S
C1794 C1798 1.368 . S
C1795 C1776 1.429 . S
C1795 C1789 1.429 . S
C1795 C1796 1.523 . S
C1796 C1777 1.368 . S
C1796 C1790 1.368 . S
C1796 C1795 1.523 . S
C1797 C1781 1.429 . S
C1797 C1793 1.429 . S
C1797 C1798 1.523 . S
C1798 C1782 1.368 . S
C1798 C1794 1.368 . S
C1798 C1797 1.523 . S
H1799 C1774 0.950 . S
H1800 C1776 0.950 . S
H1801 C1777 0.949 . S
H1802 C1779 0.950 . S
H1803 C1781 0.950 . S
C1804 C1805 1.349 . S
C1804 C1806 1.327 1_554 S
C1804 H1829 0.950 . S
C1805 C1804 1.349 . S
C1805 C1821 1.349 . S
C1806 C1804 1.327 1_556 S
C1806 C1825 1.429 . S
C1806 H1830 0.950 . S
C1807 C1824 1.574 . S
C1807 C1826 1.368 . S
C1807 H1831 0.949 . S
H1808 C1812 0.949 . S
C1809 C1810 1.349 . S
C1809 C1811 1.327 . S
C1809 H1832 0.950 . S
C1810 C1809 1.349 . S
C1810 C1822 1.349 . S
C1811 C1809 1.327 . S
C1811 C1827 1.429 . S
C1811 H1833 0.950 . S
C1812 H1808 0.949 . S
C1812 C1820 1.574 . S
C1812 C1828 1.368 . S
H1813 C1821 0.950 . S
H1814 C1819 0.950 . S
H1815 C1820 0.949 . S
H1816 C1822 0.950 . S
H1817 C1823 0.950 . S
H1818 C1824 0.949 . S
C1819 H1814 0.950 . S
C1819 C1821 1.327 . S
C1819 C1825 1.429 1_554 S
C1820 C1812 1.574 . S
C1820 H1815 0.949 . S
C1820 C1826 1.368 . S
C1821 C1805 1.349 . S
C1821 H1813 0.950 . S
C1821 C1819 1.327 . S
C1822 C1810 1.349 . S
C1822 H1816 0.950 . S
C1822 C1823 1.327 . S
C1823 H1817 0.950 . S
C1823 C1822 1.327 . S
C1823 C1827 1.429 . S
C1824 C1807 1.574 . S
C1824 H1818 0.949 . S
C1824 C1828 1.368 . S
C1825 C1806 1.429 . S
C1825 C1819 1.429 1_556 S
C1825 C1826 1.523 . S
C1826 C1807 1.368 . S
C1826 C1820 1.368 . S
C1826 C1825 1.523 . S
C1827 C1811 1.429 . S
C1827 C1823 1.429 . S
C1827 C1828 1.523 . S
C1828 C1812 1.368 . S
C1828 C1824 1.368 . S
C1828 C1827 1.523 . S
H1829 C1804 0.950 . S
H1830 C1806 0.950 . S
H1831 C1807 0.949 . S
H1832 C1809 0.950 . S
H1833 C1811 0.950 . S
C1834 C1835 1.349 . S
C1834 C1836 1.327 . S
C1834 H1859 0.950 . S
C1835 C1834 1.349 . S
C1835 C1851 1.349 . S
C1836 C1834 1.327 . S
C1836 C1855 1.429 . S
C1836 H1860 0.950 . S
C1837 C1854 1.574 . S
C1837 C1856 1.368 1_655 S
C1837 H1861 0.949 . S
H1838 C1842 0.949 . S
C1839 C1840 1.349 1_554 S
C1839 C1841 1.327 . S
C1839 H1862 0.950 . S
C1840 C1839 1.349 1_556 S
C1840 C1852 1.349 . S
C1841 C1839 1.327 . S
C1841 C1857 1.429 . S
C1841 H1863 0.950 . S
C1842 H1838 0.949 . S
C1842 C1850 1.574 . S
C1842 C1858 1.368 1_455 S
H1843 C1851 0.950 . S
H1844 C1849 0.950 . S
H1845 C1850 0.949 . S
H1846 C1852 0.950 . S
H1847 C1853 0.950 . S
H1848 C1854 0.949 . S
C1849 H1844 0.950 . S
C1849 C1851 1.327 . S
C1849 C1855 1.429 . S
C1850 C1842 1.574 . S
C1850 H1845 0.949 . S
C1850 C1856 1.368 . S
C1851 C1835 1.349 . S
C1851 H1843 0.950 . S
C1851 C1849 1.327 . S
C1852 C1840 1.349 . S
C1852 H1846 0.950 . S
C1852 C1853 1.327 1_556 S
C1853 H1847 0.950 . S
C1853 C1852 1.327 1_554 S
C1853 C1857 1.429 . S
C1854 C1837 1.574 . S
C1854 H1848 0.949 . S
C1854 C1858 1.368 . S
C1855 C1836 1.429 . S
C1855 C1849 1.429 . S
C1855 C1856 1.523 . S
C1856 C1837 1.368 1_455 S
C1856 C1850 1.368 . S
C1856 C1855 1.523 . S
C1857 C1841 1.429 . S
C1857 C1853 1.429 . S
C1857 C1858 1.523 . S
C1858 C1842 1.368 1_655 S
C1858 C1854 1.368 . S
C1858 C1857 1.523 . S
H1859 C1834 0.950 . S
H1860 C1836 0.950 . S
H1861 C1837 0.949 . S
H1862 C1839 0.950 . S
H1863 C1841 0.950 . S
C1864 C1865 1.349 . S
C1864 C1866 1.327 . S
C1864 H1889 0.950 . S
C1865 C1864 1.349 . S
C1865 C1881 1.349 . S
C1866 C1864 1.327 . S
C1866 C1885 1.429 . S
C1866 H1890 0.950 . S
C1867 C1884 1.574 . S
C1867 C1886 1.368 . S
C1867 H1891 0.949 . S
H1868 C1872 0.949 . S
C1869 C1870 1.349 . S
C1869 C1871 1.327 . S
C1869 H1892 0.950 . S
C1870 C1869 1.349 . S
C1870 C1882 1.349 . S
C1871 C1869 1.327 . S
C1871 C1887 1.429 . S
C1871 H1893 0.950 . S
C1872 H1868 0.949 . S
C1872 C1880 1.574 . S
C1872 C1888 1.368 . S
H1873 C1881 0.950 . S
H1874 C1879 0.950 . S
H1875 C1880 0.949 . S
H1876 C1882 0.950 . S
H1877 C1883 0.950 1_554 S
H1878 C1884 0.949 1_556 S
C1879 H1874 0.950 . S
C1879 C1881 1.327 . S
C1879 C1885 1.429 . S
C1880 C1872 1.574 . S
C1880 H1875 0.949 . S
C1880 C1886 1.368 . S
C1881 C1865 1.349 . S
C1881 H1873 0.950 . S
C1881 C1879 1.327 . S
C1882 C1870 1.349 . S
C1882 H1876 0.950 . S
C1882 C1883 1.327 . S
C1883 H1877 0.950 1_556 S
C1883 C1882 1.327 . S
C1883 C1887 1.429 . S
C1884 C1867 1.574 . S
C1884 H1878 0.949 1_554 S
C1884 C1888 1.368 . S
C1885 C1866 1.429 . S
C1885 C1879 1.429 . S
C1885 C1886 1.523 . S
C1886 C1867 1.368 . S
C1886 C1880 1.368 . S
C1886 C1885 1.523 . S
C1887 C1871 1.429 . S
C1887 C1883 1.429 . S
C1887 C1888 1.523 1_556 S
C1888 C1872 1.368 . S
C1888 C1884 1.368 . S
C1888 C1887 1.523 1_554 S
H1889 C1864 0.950 . S
H1890 C1866 0.950 . S
H1891 C1867 0.949 . S
H1892 C1869 0.950 . S
H1893 C1871 0.950 . S
C1894 C1895 1.349 . S
C1894 C1896 1.327 . S
C1894 H1919 0.950 . S
C1895 C1894 1.349 . S
C1895 C1911 1.349 . S
C1896 C1894 1.327 . S
C1896 C1915 1.429 . S
C1896 H1920 0.950 . S
C1897 C1914 1.574 . S
C1897 C1916 1.368 . S
C1897 H1921 0.949 . S
H1898 C1902 0.949 . S
C1899 C1900 1.349 . S
C1899 C1901 1.327 . S
C1899 H1922 0.950 . S
C1900 C1899 1.349 . S
C1900 C1912 1.349 . S
C1901 C1899 1.327 . S
C1901 C1917 1.429 . S
C1901 H1923 0.950 . S
C1902 H1898 0.949 . S
C1902 C1910 1.574 1_455 S
C1902 C1918 1.368 . S
H1903 C1911 0.950 . S
H1904 C1909 0.950 . S
H1905 C1910 0.949 . S
H1906 C1912 0.950 . S
H1907 C1913 0.950 . S
H1908 C1914 0.949 . S
C1909 H1904 0.950 . S
C1909 C1911 1.327 . S
C1909 C1915 1.429 . S
C1910 C1902 1.574 1_655 S
C1910 H1905 0.949 . S
C1910 C1916 1.368 . S
C1911 C1895 1.349 . S
C1911 H1903 0.950 . S
C1911 C1909 1.327 . S
C1912 C1900 1.349 . S
C1912 H1906 0.950 . S
C1912 C1913 1.327 . S
C1913 H1907 0.950 . S
C1913 C1912 1.327 . S
C1913 C1917 1.429 . S
C1914 C1897 1.574 . S
C1914 H1908 0.949 . S
C1914 C1918 1.368 1_655 S
C1915 C1896 1.429 . S
C1915 C1909 1.429 . S
C1915 C1916 1.523 . S
C1916 C1897 1.368 . S
C1916 C1910 1.368 . S
C1916 C1915 1.523 . S
C1917 C1901 1.429 . S
C1917 C1913 1.429 . S
C1917 C1918 1.523 . S
C1918 C1902 1.368 . S
C1918 C1914 1.368 1_455 S
C1918 C1917 1.523 . S
H1919 C1894 0.950 . S
H1920 C1896 0.950 . S
H1921 C1897 0.949 . S
H1922 C1899 0.950 . S
H1923 C1901 0.950 . S
C1924 C1925 1.349 . S
C1924 C1926 1.327 . S
C1924 H1949 0.950 . S
C1925 C1924 1.349 . S
C1925 C1941 1.349 . S
C1926 C1924 1.327 . S
C1926 C1945 1.429 . S
C1926 H1950 0.950 . S
C1927 C1944 1.574 . S
C1927 C1946 1.368 . S
C1927 H1951 0.949 . S
H1928 C1932 0.949 . S
C1929 C1930 1.349 . S
C1929 C1931 1.327 . S
C1929 H1952 0.950 . S
C1930 C1929 1.349 . S
C1930 C1942 1.349 . S
C1931 C1929 1.327 . S
C1931 C1947 1.429 . S
C1931 H1953 0.950 . S
C1932 H1928 0.949 . S
C1932 C1940 1.574 . S
C1932 C1948 1.368 . S
H1933 C1941 0.950 . S
H1934 C1939 0.950 . S
H1935 C1940 0.949 . S
H1936 C1942 0.950 . S
H1937 C1943 0.950 . S
H1938 C1944 0.949 . S
C1939 H1934 0.950 . S
C1939 C1941 1.327 . S
C1939 C1945 1.429 . S
C1940 C1932 1.574 . S
C1940 H1935 0.949 . S
C1940 C1946 1.368 . S
C1941 C1925 1.349 . S
C1941 H1933 0.950 . S
C1941 C1939 1.327 . S
C1942 C1930 1.349 . S
C1942 H1936 0.950 . S
C1942 C1943 1.327 . S
C1943 H1937 0.950 . S
C1943 C1942 1.327 . S
C1943 C1947 1.429 . S
C1944 C1927 1.574 . S
C1944 H1938 0.949 . S
C1944 C1948 1.368 . S
C1945 C1926 1.429 . S
C1945 C1939 1.429 . S
C1945 C1946 1.523 . S
C1946 C1927 1.368 . S
C1946 C1940 1.368 . S
C1946 C1945 1.523 . S
C1947 C1931 1.429 . S
C1947 C1943 1.429 . S
C1947 C1948 1.523 . S
C1948 C1932 1.368 . S
C1948 C1944 1.368 . S
C1948 C1947 1.523 . S
H1949 C1924 0.950 . S
H1950 C1926 0.950 . S
H1951 C1927 0.949 . S
H1952 C1929 0.950 . S
H1953 C1931 0.950 . S
C1954 C1955 1.349 1_556 S
C1954 C1956 1.327 . S
C1954 H1979 0.950 . S
C1955 C1954 1.349 1_554 S
C1955 C1971 1.349 1_554 S
C1956 C1954 1.327 . S
C1956 C1975 1.429 . S
C1956 H1980 0.950 . S
C1957 C1974 1.574 . S
C1957 C1976 1.368 . S
C1957 H1981 0.949 . S
H1958 C1962 0.949 . S
C1959 C1960 1.349 . S
C1959 C1961 1.327 . S
C1959 H1982 0.950 . S
C1960 C1959 1.349 . S
C1960 C1972 1.349 . S
C1961 C1959 1.327 . S
C1961 C1977 1.429 . S
C1961 H1983 0.950 . S
C1962 H1958 0.949 . S
C1962 C1970 1.574 . S
C1962 C1978 1.368 . S
H1963 C1971 0.950 1_554 S
H1964 C1969 0.950 . S
H1965 C1970 0.949 . S
H1966 C1972 0.950 . S
H1967 C1973 0.950 . S
H1968 C1974 0.949 . S
C1969 H1964 0.950 . S
C1969 C1971 1.327 . S
C1969 C1975 1.429 . S
C1970 C1962 1.574 . S
C1970 H1965 0.949 . S
C1970 C1976 1.368 . S
C1971 C1955 1.349 1_556 S
C1971 H1963 0.950 1_556 S
C1971 C1969 1.327 . S
C1972 C1960 1.349 . S
C1972 H1966 0.950 . S
C1972 C1973 1.327 . S
C1973 H1967 0.950 . S
C1973 C1972 1.327 . S
C1973 C1977 1.429 . S
C1974 C1957 1.574 . S
C1974 H1968 0.949 . S
C1974 C1978 1.368 . S
C1975 C1956 1.429 . S
C1975 C1969 1.429 . S
C1975 C1976 1.523 . S
C1976 C1957 1.368 . S
C1976 C1970 1.368 . S
C1976 C1975 1.523 . S
C1977 C1961 1.429 . S
C1977 C1973 1.429 . S
C1977 C1978 1.523 . S
C1978 C1962 1.368 . S
C1978 C1974 1.368 . S
C1978 C1977 1.523 . S
H1979 C1954 0.950 . S
H1980 C1956 0.950 . S
H1981 C1957 0.949 . S
H1982 C1959 0.950 . S
H1983 C1961 0.950 . S
C1984 C1985 1.349 . S
C1984 C1986 1.327 . S
C1984 H2009 0.950 . S
C1985 C1984 1.349 . S
C1985 C2001 1.349 . S
C1986 C1984 1.327 . S
C1986 C2005 1.429 . S
C1986 H2010 0.950 . S
C1987 C2004 1.574 . S
C1987 C2006 1.368 . S
C1987 H2011 0.949 . S
H1988 C1992 0.949 . S
C1989 C1990 1.349 . S
C1989 C1991 1.327 . S
C1989 H2012 0.950 . S
C1990 C1989 1.349 . S
C1990 C2002 1.349 . S
C1991 C1989 1.327 . S
C1991 C2007 1.429 . S
C1991 H2013 0.950 . S
C1992 H1988 0.949 . S
C1992 C2000 1.574 . S
C1992 C2008 1.368 . S
H1993 C2001 0.950 . S
H1994 C1999 0.950 . S
H1995 C2000 0.949 . S
H1996 C2002 0.950 . S
H1997 C2003 0.950 . S
H1998 C2004 0.949 . S
C1999 H1994 0.950 . S
C1999 C2001 1.327 . S
C1999 C2005 1.429 . S
C2000 C1992 1.574 . S
C2000 H1995 0.949 . S
C2000 C2006 1.368 . S
C2001 C1985 1.349 . S
C2001 H1993 0.950 . S
C2001 C1999 1.327 . S
C2002 C1990 1.349 . S
C2002 H1996 0.950 . S
C2002 C2003 1.327 . S
C2003 H1997 0.950 . S
C2003 C2002 1.327 . S
C2003 C2007 1.429 . S
C2004 C1987 1.574 . S
C2004 H1998 0.949 . S
C2004 C2008 1.368 . S
C2005 C1986 1.429 . S
C2005 C1999 1.429 . S
C2005 C2006 1.523 . S
C2006 C1987 1.368 . S
C2006 C2000 1.368 . S
C2006 C2005 1.523 . S
C2007 C1991 1.429 . S
C2007 C2003 1.429 . S
C2007 C2008 1.523 . S
C2008 C1992 1.368 . S
C2008 C2004 1.368 . S
C2008 C2007 1.523 . S
H2009 C1984 0.950 . S
H2010 C1986 0.950 . S
H2011 C1987 0.949 . S
H2012 C1989 0.950 . S
H2013 C1991 0.950 . S
C2014 C2015 1.349 . S
C2014 C2016 1.327 . S
C2014 H2039 0.950 . S
C2015 C2014 1.349 . S
C2015 C2031 1.349 . S
C2016 C2014 1.327 . S
C2016 C2035 1.429 . S
C2016 H2040 0.950 . S
C2017 C2034 1.574 . S
C2017 C2036 1.368 . S
C2017 H2041 0.949 . S
H2018 C2022 0.949 . S
C2019 C2020 1.349 . S
C2019 C2021 1.327 . S
C2019 H2042 0.950 . S
C2020 C2019 1.349 . S
C2020 C2032 1.349 . S
C2021 C2019 1.327 . S
C2021 C2037 1.429 . S
C2021 H2043 0.950 . S
C2022 H2018 0.949 . S
C2022 C2030 1.574 . S
C2022 C2038 1.368 . S
H2023 C2031 0.950 . S
H2024 C2029 0.950 . S
H2025 C2030 0.949 . S
H2026 C2032 0.950 . S
H2027 C2033 0.950 . S
H2028 C2034 0.949 . S
C2029 H2024 0.950 . S
C2029 C2031 1.327 . S
C2029 C2035 1.429 . S
C2030 C2022 1.574 . S
C2030 H2025 0.949 . S
C2030 C2036 1.368 . S
C2031 C2015 1.349 . S
C2031 H2023 0.950 . S
C2031 C2029 1.327 . S
C2032 C2020 1.349 . S
C2032 H2026 0.950 . S
C2032 C2033 1.327 . S
C2033 H2027 0.950 . S
C2033 C2032 1.327 . S
C2033 C2037 1.429 . S
C2034 C2017 1.574 . S
C2034 H2028 0.949 . S
C2034 C2038 1.368 . S
C2035 C2016 1.429 . S
C2035 C2029 1.429 . S
C2035 C2036 1.523 . S
C2036 C2017 1.368 . S
C2036 C2030 1.368 . S
C2036 C2035 1.523 . S
C2037 C2021 1.429 . S
C2037 C2033 1.429 . S
C2037 C2038 1.523 . S
C2038 C2022 1.368 . S
C2038 C2034 1.368 . S
C2038 C2037 1.523 . S
H2039 C2014 0.950 . S
H2040 C2016 0.950 . S
H2041 C2017 0.949 . S
H2042 C2019 0.950 . S
H2043 C2021 0.950 . S
C2044 C2045 1.349 . S
C2044 C2046 1.327 . S
C2044 H2069 0.950 . S
C2045 C2044 1.349 . S
C2045 C2061 1.349 . S
C2046 C2044 1.327 . S
C2046 C2065 1.429 . S
C2046 H2070 0.950 . S
C2047 C2064 1.574 . S
C2047 C2066 1.368 . S
C2047 H2071 0.949 . S
H2048 C2052 0.949 . S
C2049 C2050 1.349 . S
C2049 C2051 1.327 1_556 S
C2049 H2072 0.950 . S
C2050 C2049 1.349 . S
C2050 C2062 1.349 . S
C2051 C2049 1.327 1_554 S
C2051 C2067 1.429 . S
C2051 H2073 0.950 . S
C2052 H2048 0.949 . S
C2052 C2060 1.574 . S
C2052 C2068 1.368 . S
H2053 C2061 0.950 . S
H2054 C2059 0.950 . S
H2055 C2060 0.949 . S
H2056 C2062 0.950 . S
H2057 C2063 0.950 . S
H2058 C2064 0.949 . S
C2059 H2054 0.950 . S
C2059 C2061 1.327 . S
C2059 C2065 1.429 . S
C2060 C2052 1.574 . S
C2060 H2055 0.949 . S
C2060 C2066 1.368 . S
C2061 C2045 1.349 . S
C2061 H2053 0.950 . S
C2061 C2059 1.327 . S
C2062 C2050 1.349 . S
C2062 H2056 0.950 . S
C2062 C2063 1.327 . S
C2063 H2057 0.950 . S
C2063 C2062 1.327 . S
C2063 C2067 1.429 1_556 S
C2064 C2047 1.574 . S
C2064 H2058 0.949 . S
C2064 C2068 1.368 . S
C2065 C2046 1.429 . S
C2065 C2059 1.429 . S
C2065 C2066 1.523 . S
C2066 C2047 1.368 . S
C2066 C2060 1.368 . S
C2066 C2065 1.523 . S
C2067 C2051 1.429 . S
C2067 C2063 1.429 1_554 S
C2067 C2068 1.523 . S
C2068 C2052 1.368 . S
C2068 C2064 1.368 . S
C2068 C2067 1.523 . S
H2069 C2044 0.950 . S
H2070 C2046 0.950 . S
H2071 C2047 0.949 . S
H2072 C2049 0.950 . S
H2073 C2051 0.950 . S
C2074 C2075 1.349 . S
C2074 C2076 1.327 1_554 S
C2074 H2099 0.950 . S
C2075 C2074 1.349 . S
C2075 C2091 1.349 1_554 S
C2076 C2074 1.327 1_556 S
C2076 C2095 1.429 . S
C2076 H2100 0.950 . S
C2077 C2094 1.574 1_455 S
C2077 C2096 1.368 . S
C2077 H2101 0.949 . S
H2078 C2082 0.949 . S
C2079 C2080 1.349 . S
C2079 C2081 1.327 . S
C2079 H2102 0.950 . S
C2080 C2079 1.349 . S
C2080 C2092 1.349 . S
C2081 C2079 1.327 . S
C2081 C2097 1.429 . S
C2081 H2103 0.950 . S
C2082 H2078 0.949 . S
C2082 C2090 1.574 1_655 S
C2082 C2098 1.368 . S
H2083 C2091 0.950 . S
H2084 C2089 0.950 . S
H2085 C2090 0.949 . S
H2086 C2092 0.950 . S
H2087 C2093 0.950 . S
H2088 C2094 0.949 . S
C2089 H2084 0.950 . S
C2089 C2091 1.327 . S
C2089 C2095 1.429 . S
C2090 C2082 1.574 1_455 S
C2090 H2085 0.949 . S
C2090 C2096 1.368 . S
C2091 C2075 1.349 1_556 S
C2091 H2083 0.950 . S
C2091 C2089 1.327 . S
C2092 C2080 1.349 . S
C2092 H2086 0.950 . S
C2092 C2093 1.327 . S
C2093 H2087 0.950 . S
C2093 C2092 1.327 . S
C2093 C2097 1.429 . S
C2094 C2077 1.574 1_655 S
C2094 H2088 0.949 . S
C2094 C2098 1.368 . S
C2095 C2076 1.429 . S
C2095 C2089 1.429 . S
C2095 C2096 1.523 . S
C2096 C2077 1.368 . S
C2096 C2090 1.368 . S
C2096 C2095 1.523 . S
C2097 C2081 1.429 . S
C2097 C2093 1.429 . S
C2097 C2098 1.523 . S
C2098 C2082 1.368 . S
C2098 C2094 1.368 . S
C2098 C2097 1.523 . S
H2099 C2074 0.950 . S
H2100 C2076 0.950 . S
H2101 C2077 0.949 . S
H2102 C2079 0.950 . S
H2103 C2081 0.950 . S
C2104 C2105 1.349 . S
C2104 C2106 1.327 . S
C2104 H2129 0.950 . S
C2105 C2104 1.349 . S
C2105 C2121 1.349 . S
C2106 C2104 1.327 . S
C2106 C2125 1.429 . S
C2106 H2130 0.950 . S
C2107 C2124 1.574 . S
C2107 C2126 1.368 . S
C2107 H2131 0.949 . S
H2108 C2112 0.949 . S
C2109 C2110 1.349 . S
C2109 C2111 1.327 . S
C2109 H2132 0.950 . S
C2110 C2109 1.349 . S
C2110 C2122 1.349 . S
C2111 C2109 1.327 . S
C2111 C2127 1.429 . S
C2111 H2133 0.950 . S
C2112 H2108 0.949 . S
C2112 C2120 1.574 . S
C2112 C2128 1.368 . S
H2113 C2121 0.950 . S
H2114 C2119 0.950 . S
H2115 C2120 0.949 . S
H2116 C2122 0.950 . S
H2117 C2123 0.950 . S
H2118 C2124 0.949 . S
C2119 H2114 0.950 . S
C2119 C2121 1.327 . S
C2119 C2125 1.429 . S
C2120 C2112 1.574 . S
C2120 H2115 0.949 . S
C2120 C2126 1.368 . S
C2121 C2105 1.349 . S
C2121 H2113 0.950 . S
C2121 C2119 1.327 . S
C2122 C2110 1.349 . S
C2122 H2116 0.950 . S
C2122 C2123 1.327 . S
C2123 H2117 0.950 . S
C2123 C2122 1.327 . S
C2123 C2127 1.429 . S
C2124 C2107 1.574 . S
C2124 H2118 0.949 . S
C2124 C2128 1.368 . S
C2125 C2106 1.429 . S
C2125 C2119 1.429 . S
C2125 C2126 1.523 . S
C2126 C2107 1.368 . S
C2126 C2120 1.368 . S
C2126 C2125 1.523 . S
C2127 C2111 1.429 . S
C2127 C2123 1.429 . S
C2127 C2128 1.523 1_554 S
C2128 C2112 1.368 . S
C2128 C2124 1.368 . S
C2128 C2127 1.523 1_556 S
H2129 C2104 0.950 . S
H2130 C2106 0.950 . S
H2131 C2107 0.949 . S
H2132 C2109 0.950 . S
H2133 C2111 0.950 . S
C2134 C2135 1.349 . S
C2134 C2136 1.327 . S
C2134 H2159 0.950 . S
C2135 C2134 1.349 . S
C2135 C2151 1.349 . S
C2136 C2134 1.327 . S
C2136 C2155 1.429 . S
C2136 H2160 0.950 . S
C2137 C2154 1.574 1_655 S
C2137 C2156 1.368 . S
C2137 H2161 0.949 . S
H2138 C2142 0.949 . S
C2139 C2140 1.349 . S
C2139 C2141 1.327 . S
C2139 H2162 0.950 . S
C2140 C2139 1.349 . S
C2140 C2152 1.349 . S
C2141 C2139 1.327 . S
C2141 C2157 1.429 . S
C2141 H2163 0.950 . S
C2142 H2138 0.949 . S
C2142 C2150 1.574 . S
C2142 C2158 1.368 . S
H2143 C2151 0.950 . S
H2144 C2149 0.950 . S
H2145 C2150 0.949 . S
H2146 C2152 0.950 . S
H2147 C2153 0.950 . S
H2148 C2154 0.949 . S
C2149 H2144 0.950 . S
C2149 C2151 1.327 . S
C2149 C2155 1.429 . S
C2150 C2142 1.574 . S
C2150 H2145 0.949 . S
C2150 C2156 1.368 1_455 S
C2151 C2135 1.349 . S
C2151 H2143 0.950 . S
C2151 C2149 1.327 . S
C2152 C2140 1.349 . S
C2152 H2146 0.950 . S
C2152 C2153 1.327 . S
C2153 H2147 0.950 . S
C2153 C2152 1.327 . S
C2153 C2157 1.429 . S
C2154 C2137 1.574 1_455 S
C2154 H2148 0.949 . S
C2154 C2158 1.368 . S
C2155 C2136 1.429 . S
C2155 C2149 1.429 . S
C2155 C2156 1.523 . S
C2156 C2137 1.368 . S
C2156 C2150 1.368 1_655 S
C2156 C2155 1.523 . S
C2157 C2141 1.429 . S
C2157 C2153 1.429 . S
C2157 C2158 1.523 . S
C2158 C2142 1.368 . S
C2158 C2154 1.368 . S
C2158 C2157 1.523 . S
H2159 C2134 0.950 . S
H2160 C2136 0.950 . S
H2161 C2137 0.949 . S
H2162 C2139 0.950 . S
H2163 C2141 0.950 . S
C2164 C2165 1.349 . S
C2164 C2166 1.327 . S
C2164 H2189 0.950 . S
C2165 C2164 1.349 . S
C2165 C2181 1.349 . S
C2166 C2164 1.327 . S
C2166 C2185 1.429 . S
C2166 H2190 0.950 . S
C2167 C2184 1.574 . S
C2167 C2186 1.368 . S
C2167 H2191 0.949 . S
H2168 C2172 0.949 . S
C2169 C2170 1.349 . S
C2169 C2171 1.327 . S
C2169 H2192 0.950 . S
C2170 C2169 1.349 . S
C2170 C2182 1.349 . S
C2171 C2169 1.327 . S
C2171 C2187 1.429 . S
C2171 H2193 0.950 . S
C2172 H2168 0.949 . S
C2172 C2180 1.574 . S
C2172 C2188 1.368 . S
H2173 C2181 0.950 . S
H2174 C2179 0.950 . S
H2175 C2180 0.949 . S
H2176 C2182 0.950 . S
H2177 C2183 0.950 . S
H2178 C2184 0.949 . S
C2179 H2174 0.950 . S
C2179 C2181 1.327 . S
C2179 C2185 1.429 . S
C2180 C2172 1.574 . S
C2180 H2175 0.949 . S
C2180 C2186 1.368 . S
C2181 C2165 1.349 . S
C2181 H2173 0.950 . S
C2181 C2179 1.327 . S
C2182 C2170 1.349 . S
C2182 H2176 0.950 . S
C2182 C2183 1.327 . S
C2183 H2177 0.950 . S
C2183 C2182 1.327 . S
C2183 C2187 1.429 . S
C2184 C2167 1.574 . S
C2184 H2178 0.949 . S
C2184 C2188 1.368 . S
C2185 C2166 1.429 . S
C2185 C2179 1.429 . S
C2185 C2186 1.523 . S
C2186 C2167 1.368 . S
C2186 C2180 1.368 . S
C2186 C2185 1.523 . S
C2187 C2171 1.429 . S
C2187 C2183 1.429 . S
C2187 C2188 1.523 . S
C2188 C2172 1.368 . S
C2188 C2184 1.368 . S
C2188 C2187 1.523 . S
H2189 C2164 0.950 . S
H2190 C2166 0.950 . S
H2191 C2167 0.949 . S
H2192 C2169 0.950 . S
H2193 C2171 0.950 . S
C2194 C2195 1.349 . S
C2194 C2196 1.327 1_556 S
C2194 H2219 0.950 . S
C2195 C2194 1.349 . S
C2195 C2211 1.349 1_556 S
C2196 C2194 1.327 1_554 S
C2196 C2215 1.429 . S
C2196 H2220 0.950 . S
C2197 C2214 1.574 . S
C2197 C2216 1.368 . S
C2197 H2221 0.949 . S
H2198 C2202 0.949 . S
C2199 C2200 1.349 . S
C2199 C2201 1.327 . S
C2199 H2222 0.950 . S
C2200 C2199 1.349 . S
C2200 C2212 1.349 . S
C2201 C2199 1.327 . S
C2201 C2217 1.429 . S
C2201 H2223 0.950 . S
C2202 H2198 0.949 . S
C2202 C2210 1.574 . S
C2202 C2218 1.368 . S
H2203 C2211 0.950 . S
H2204 C2209 0.950 . S
H2205 C2210 0.949 . S
H2206 C2212 0.950 . S
H2207 C2213 0.950 . S
H2208 C2214 0.949 . S
C2209 H2204 0.950 . S
C2209 C2211 1.327 . S
C2209 C2215 1.429 . S
C2210 C2202 1.574 . S
C2210 H2205 0.949 . S
C2210 C2216 1.368 . S
C2211 C2195 1.349 1_554 S
C2211 H2203 0.950 . S
C2211 C2209 1.327 . S
C2212 C2200 1.349 . S
C2212 H2206 0.950 . S
C2212 C2213 1.327 . S
C2213 H2207 0.950 . S
C2213 C2212 1.327 . S
C2213 C2217 1.429 . S
C2214 C2197 1.574 . S
C2214 H2208 0.949 . S
C2214 C2218 1.368 . S
C2215 C2196 1.429 . S
C2215 C2209 1.429 . S
C2215 C2216 1.523 . S
C2216 C2197 1.368 . S
C2216 C2210 1.368 . S
C2216 C2215 1.523 . S
C2217 C2201 1.429 . S
C2217 C2213 1.429 . S
C2217 C2218 1.523 . S
C2218 C2202 1.368 . S
C2218 C2214 1.368 . S
C2218 C2217 1.523 . S
H2219 C2194 0.950 . S
H2220 C2196 0.950 . S
H2221 C2197 0.949 . S
H2222 C2199 0.950 . S
H2223 C2201 0.950 . S
C545 C266 0.292 . S
C550 C28 0.474 . S
C575 C142 0.262 . S
C580 C40 0.291 . S
C605 C176 0.474 . S
C610 C96 0.292 . S
C635 C210 0.291 . S
C640 C108 0.262 . S
C665 C278 0.474 . S
C670 C538 0.292 . S
C695 C312 0.291 . S
C700 C436 0.262 . S
C725 C470 0.474 . S
C730 C368 0.292 . S
C755 C482 0.291 . S
C760 C402 0.262 . S
C785 C232 1.398 . S
C790 C6 1.362 . S
C815 C37 1.064 . S
C820 C244 1.187 . S
C845 C164 2.076 . S
C850 C69 1.896 . S
C875 C173 1.645 . S
C880 C105 1.624 . S
C905 C300 1.362 . S
C910 C504 1.398 . S
C935 C516 1.187 . S
C940 C309 1.064 . S
C965 C341 1.896 . S
C970 C414 2.076 . S
C995 C375 1.624 . S
C1000 C443 1.645 . S
C1025 C62 1.398 . S
C1030 C198 1.362 . S
C1055 C207 1.064 . S
C1060 C74 1.187 . S
C1085 C130 2.076 . S
C1090 C239 1.896 . S
C1115 C139 1.624 . S
C1120 C1 1.645 . S
C1145 C448 1.362 . S
C1150 C334 1.398 . S
C1175 C346 1.187 . S
C1180 C479 1.064 . S
C1205 C511 1.896 . S
C1210 C380 2.076 . S
C1235 C275 1.645 . S
C1240 C409 1.624 . S
C1265 C328 1.427 . S
C1270 C17 1.426 . S
C1295 C525 1.582 1_655 S
C1300 C35 1.526 . S
C1325 C71 1.791 . S
C1330 C389 1.853 . S
C1355 C464 0.787 . S
C1360 C103 0.836 . S
C1385 C532 1.282 . S
C1390 C153 1.613 . S
C1415 C396 1.573 1_556 S
C1420 C171 1.827 . S
C1445 C221 2.371 . S
C1450 C457 2.392 . S
C1475 C255 1.333 . S
C1480 C321 1.080 . S
C1505 C56 1.427 . S
C1510 C289 1.426 . S
C1535 C307 1.526 . S
C1540 C253 1.582 1_455 S
C1565 C124 1.853 . S
C1570 C343 1.791 . S
C1595 C377 0.836 . S
C1600 C185 0.787 . S
C1625 C260 1.282 . S
C1630 C425 1.613 . S
C1655 C117 1.573 1_554 S
C1660 C445 1.827 . S
C1685 C493 2.371 . S
C1690 C192 2.392 . S
C1715 C49 1.080 . S
C1720 C527 1.332 . S
C1745 C498 1.427 . S
C1750 C187 1.426 . S
C1775 C355 1.582 . S
C1780 C205 1.526 . S
C1805 C241 1.791 . S
C1810 C423 1.853 . S
C1835 C137 0.836 . S
C1840 C287 0.787 . S
C1865 C362 1.282 . S
C1870 C119 1.613 . S
C1895 C430 1.573 . S
C1900 C3 1.827 . S
C1925 C294 2.392 . S
C1930 C51 2.371 . S
C1955 C491 1.080 . S
C1960 C85 1.332 . S
C1985 C226 1.427 . S
C1990 C459 1.426 . S
C2015 C83 1.582 . S
C2020 C477 1.526 . S
C2045 C158 1.853 . S
C2050 C513 1.791 . S
C2075 C22 0.787 . S
C2080 C411 0.836 . S
C2105 C90 1.282 . S
C2110 C391 1.613 . S
C2135 C273 1.827 . S
C2140 C151 1.573 . S
C2165 C15 2.393 . S
C2170 C323 2.371 . S
C2195 C219 1.080 . S
C2200 C357 1.332 . S
