# Generated by pormake.
# Topology unb, (4)-cn, num edge types: 1
# Building blocks:
#     Node 0, Type 0, BuildingBlock: GALJAG_clean_sbu_0, # of connection points: 4
#     Node 1, Type 0, BuildingBlock: GALJAG_clean_sbu_0, # of connection points: 4
#     Node 2, Type 0, BuildingBlock: GALJAG_clean_sbu_0, # of connection points: 4
#     Node 3, Type 0, BuildingBlock: GALJAG_clean_sbu_0, # of connection points: 4
#     Node 4, Type 0, BuildingBlock: GALJAG_clean_sbu_0, # of connection points: 4
#     Node 5, Type 0, BuildingBlock: GALJAG_clean_sbu_0, # of connection points: 4
#     Node 6, Type 0, BuildingBlock: GALJAG_clean_sbu_0, # of connection points: 4
#     Node 7, Type 0, BuildingBlock: GALJAG_clean_sbu_0, # of connection points: 4
#     Node 8, Type 0, BuildingBlock: GALJAG_clean_sbu_0, # of connection points: 4
#     Node 9, Type 0, BuildingBlock: GALJAG_clean_sbu_0, # of connection points: 4
#     Node 10, Type 0, BuildingBlock: GALJAG_clean_sbu_0, # of connection points: 4
#     Node 11, Type 0, BuildingBlock: GALJAG_clean_sbu_0, # of connection points: 4
#     Node 12, Type 0, BuildingBlock: GALJAG_clean_sbu_0, # of connection points: 4
#     Node 13, Type 0, BuildingBlock: GALJAG_clean_sbu_0, # of connection points: 4
#     Node 14, Type 0, BuildingBlock: GALJAG_clean_sbu_0, # of connection points: 4
#     Node 15, Type 0, BuildingBlock: GALJAG_clean_sbu_0, # of connection points: 4
#     Node 16, Type 0, BuildingBlock: GALJAG_clean_sbu_0, # of connection points: 4
#     Node 17, Type 0, BuildingBlock: GALJAG_clean_sbu_0, # of connection points: 4
#     Edge 18, Type (0, 0), BuildingBlock: CIFDUS_clean_linker_0, # of connection points: 2
#     Edge 19, Type (0, 0), BuildingBlock: CIFDUS_clean_linker_0, # of connection points: 2
#     Edge 20, Type (0, 0), BuildingBlock: CIFDUS_clean_linker_0, # of connection points: 2
#     Edge 21, Type (0, 0), BuildingBlock: CIFDUS_clean_linker_0, # of connection points: 2
#     Edge 22, Type (0, 0), BuildingBlock: CIFDUS_clean_linker_0, # of connection points: 2
#     Edge 23, Type (0, 0), BuildingBlock: CIFDUS_clean_linker_0, # of connection points: 2
#     Edge 24, Type (0, 0), BuildingBlock: CIFDUS_clean_linker_0, # of connection points: 2
#     Edge 25, Type (0, 0), BuildingBlock: CIFDUS_clean_linker_0, # of connection points: 2
#     Edge 26, Type (0, 0), BuildingBlock: CIFDUS_clean_linker_0, # of connection points: 2
#     Edge 27, Type (0, 0), BuildingBlock: CIFDUS_clean_linker_0, # of connection points: 2
#     Edge 28, Type (0, 0), BuildingBlock: CIFDUS_clean_linker_0, # of connection points: 2
#     Edge 29, Type (0, 0), BuildingBlock: CIFDUS_clean_linker_0, # of connection points: 2
#     Edge 30, Type (0, 0), BuildingBlock: CIFDUS_clean_linker_0, # of connection points: 2
#     Edge 31, Type (0, 0), BuildingBlock: CIFDUS_clean_linker_0, # of connection points: 2
#     Edge 32, Type (0, 0), BuildingBlock: CIFDUS_clean_linker_0, # of connection points: 2
#     Edge 33, Type (0, 0), BuildingBlock: CIFDUS_clean_linker_0, # of connection points: 2
#     Edge 34, Type (0, 0), BuildingBlock: CIFDUS_clean_linker_0, # of connection points: 2
#     Edge 35, Type (0, 0), BuildingBlock: CIFDUS_clean_linker_0, # of connection points: 2
#     Edge 36, Type (0, 0), BuildingBlock: CIFDUS_clean_linker_0, # of connection points: 2
#     Edge 37, Type (0, 0), BuildingBlock: CIFDUS_clean_linker_0, # of connection points: 2
#     Edge 38, Type (0, 0), BuildingBlock: CIFDUS_clean_linker_0, # of connection points: 2
#     Edge 39, Type (0, 0), BuildingBlock: CIFDUS_clean_linker_0, # of connection points: 2
#     Edge 40, Type (0, 0), BuildingBlock: CIFDUS_clean_linker_0, # of connection points: 2
#     Edge 41, Type (0, 0), BuildingBlock: CIFDUS_clean_linker_0, # of connection points: 2
#     Edge 42, Type (0, 0), BuildingBlock: CIFDUS_clean_linker_0, # of connection points: 2
#     Edge 43, Type (0, 0), BuildingBlock: CIFDUS_clean_linker_0, # of connection points: 2
#     Edge 44, Type (0, 0), BuildingBlock: CIFDUS_clean_linker_0, # of connection points: 2
#     Edge 45, Type (0, 0), BuildingBlock: CIFDUS_clean_linker_0, # of connection points: 2
#     Edge 46, Type (0, 0), BuildingBlock: CIFDUS_clean_linker_0, # of connection points: 2
#     Edge 47, Type (0, 0), BuildingBlock: CIFDUS_clean_linker_0, # of connection points: 2
#     Edge 48, Type (0, 0), BuildingBlock: CIFDUS_clean_linker_0, # of connection points: 2
#     Edge 49, Type (0, 0), BuildingBlock: CIFDUS_clean_linker_0, # of connection points: 2
#     Edge 50, Type (0, 0), BuildingBlock: CIFDUS_clean_linker_0, # of connection points: 2
#     Edge 51, Type (0, 0), BuildingBlock: CIFDUS_clean_linker_0, # of connection points: 2
#     Edge 52, Type (0, 0), BuildingBlock: CIFDUS_clean_linker_0, # of connection points: 2
#     Edge 53, Type (0, 0), BuildingBlock: CIFDUS_clean_linker_0, # of connection points: 2
# Relax obj value: 0.185
# Max RMSD: 0.139
# Mean RMSD: 0.139
data_MOF--net-unb--node1-GALJAG_clean_sbu_0--edge1-CIFDUS_clean_linker_0
_symmetry_space_group_name_H-M    P1
_symmetry_Int_Tables_number       1
_symmetry_cell_setting            triclinic
loop_
_symmetry_equiv_pos_as_xyz
'x, y, z'
_cell_length_a     54.365196
_cell_length_b     54.313739
_cell_length_c     23.650454
_cell_angle_alpha  90.009597
_cell_angle_beta   89.97328
_cell_angle_gamma 119.93501
loop_
_atom_site_label
_atom_site_type_symbol
_atom_site_fract_x
_atom_site_fract_y
_atom_site_fract_z
_atom_type_partial_charge
In0 In 0.12734 0.26276 0.07905 0.0
O1 O 0.13881 0.30272 0.13119 0.0
O2 O 0.13944 0.26882 0.1736 0.0
C3 C 0.1387 0.28691 0.97565 0.0
C4 C 0.15416 0.23281 0.06181 0.0
C5 C 0.07006 0.23363 0.07546 0.0
O6 O 0.15415 0.29931 0.01804 0.0
O7 O 0.11778 0.26272 0.98578 0.0
O8 O 0.08449 0.22216 0.08881 0.0
O9 O 0.08444 0.26011 0.06778 0.0
C10 C 0.14309 0.29358 0.1769 0.0
O11 O 0.12985 0.22207 0.08399 0.0
O12 O 0.16564 0.25904 0.05155 0.0
In13 In 0.7263 0.8613 0.07644 0.0
O14 O 0.76754 0.90386 0.07962 0.0
O15 O 0.72962 0.90436 0.06099 0.0
C16 C 0.75582 0.8348 0.05116 0.0
C17 C 0.70317 0.84932 0.18246 0.0
C18 C 0.69427 0.84538 0.98191 0.0
O19 O 0.76745 0.86016 0.06819 0.0
O20 O 0.72906 0.82224 0.0494 0.0
O21 O 0.71893 0.86661 0.98407 0.0
O22 O 0.6854 0.83193 0.02795 0.0
C23 C 0.75627 0.91842 0.06587 0.0
O24 O 0.69196 0.85486 0.14145 0.0
O25 O 0.72597 0.84984 0.17017 0.0
In26 In 0.12372 0.86132 0.08532 0.0
O27 O 0.08032 0.85813 0.09191 0.0
O28 O 0.08139 0.82083 0.06975 0.0
C29 C 0.14904 0.91698 0.05783 0.0
C30 C 0.13722 0.85221 0.1916 0.0
C31 C 0.14061 0.84566 0.99127 0.0
O32 O 0.12328 0.90267 0.07197 0.0
O33 O 0.16245 0.90358 0.0602 0.0
O34 O 0.15278 0.84873 0.03841 0.0
O35 O 0.12006 0.85022 0.99212 0.0
C36 C 0.0665 0.83243 0.07697 0.0
O37 O 0.13088 0.83458 0.15192 0.0
O38 O 0.13659 0.8743 0.17795 0.0
In39 In 0.26371 0.12982 0.91712 0.0
O40 O 0.30228 0.13957 0.86453 0.0
O41 O 0.26587 0.13422 0.82042 0.0
C42 C 0.2929 0.15012 0.01356 0.0
C43 C 0.23576 0.15905 0.92715 0.0
C44 C 0.2384 0.07292 0.92893 0.0
O45 O 0.30325 0.16082 0.9661 0.0
O46 O 0.2681 0.12916 0.01208 0.0
O47 O 0.22457 0.08519 0.91641 0.0
O48 O 0.26486 0.08916 0.93248 0.0
C49 C 0.29135 0.13971 0.81771 0.0
O50 O 0.22376 0.13253 0.93448 0.0
O51 O 0.26124 0.17042 0.91118 0.0
In52 In 0.85834 0.13156 0.92512 0.0
O53 O 0.83886 0.14806 0.86119 0.0
O54 O 0.86398 0.13134 0.82889 0.0
C55 C 0.84213 0.14681 0.01993 0.0
C56 C 0.82667 0.07472 0.93762 0.0
C57 C 0.91465 0.16322 0.94414 0.0
O58 O 0.8385 0.15429 0.97155 0.0
O59 O 0.85371 0.13172 0.02006 0.0
O60 O 0.9019 0.13645 0.94179 0.0
O61 O 0.89934 0.17406 0.93361 0.0
C62 C 0.84904 0.14263 0.81822 0.0
O63 O 0.85342 0.08755 0.93524 0.0
O64 O 0.81588 0.09033 0.93023 0.0
In65 In 0.85442 0.71882 0.92736 0.0
O66 O 0.89808 0.75767 0.94199 0.0
O67 O 0.89508 0.71713 0.94145 0.0
C68 C 0.82381 0.74537 0.92898 0.0
C69 C 0.84546 0.69654 0.82147 0.0
C70 C 0.83804 0.69315 0.02918 0.0
O71 O 0.85063 0.75869 0.92851 0.0
O72 O 0.81247 0.7187 0.92505 0.0
O73 O 0.83859 0.67982 0.98576 0.0
O74 O 0.84516 0.7187 0.02052 0.0
C75 C 0.91057 0.74356 0.94857 0.0
O76 O 0.83304 0.68176 0.86454 0.0
O77 O 0.86234 0.72246 0.83184 0.0
In78 In 0.79328 0.58548 0.42517 0.0
O79 O 0.81608 0.62335 0.48675 0.0
O80 O 0.78454 0.58395 0.52004 0.0
C81 C 0.80825 0.61078 0.32299 0.0
C82 C 0.82319 0.55824 0.42043 0.0
C83 C 0.73732 0.55723 0.40141 0.0
O84 O 0.80641 0.62371 0.36596 0.0
O85 O 0.8031 0.58584 0.33235 0.0
O86 O 0.7503 0.54501 0.41956 0.0
O87 O 0.75216 0.58394 0.39865 0.0
C88 C 0.80257 0.60953 0.52989 0.0
O89 O 0.79684 0.54559 0.42997 0.0
O90 O 0.83484 0.58496 0.41748 0.0
In91 In 0.39156 0.19852 0.4144 0.0
O92 O 0.35465 0.19154 0.46929 0.0
O93 O 0.38903 0.19072 0.51032 0.0
C94 C 0.35862 0.18429 0.32185 0.0
C95 C 0.42364 0.25532 0.40094 0.0
C96 C 0.41576 0.16602 0.40074 0.0
O97 O 0.35012 0.17061 0.36744 0.0
O98 O 0.38347 0.20512 0.32326 0.0
O99 O 0.42983 0.19165 0.41625 0.0
O100 O 0.38948 0.15651 0.39577 0.0
C101 C 0.36464 0.1881 0.51471 0.0
O102 O 0.43112 0.23818 0.38309 0.0
O103 O 0.40077 0.24396 0.42874 0.0
In104 In 0.79464 0.19755 0.4231 0.0
O105 O 0.81737 0.18383 0.48586 0.0
O106 O 0.78945 0.19688 0.51924 0.0
C107 C 0.80952 0.1805 0.32904 0.0
C108 C 0.73843 0.16671 0.40255 0.0
C109 C 0.82377 0.25441 0.40964 0.0
O110 O 0.81366 0.1737 0.37772 0.0
O111 O 0.79814 0.19579 0.32839 0.0
O112 O 0.79866 0.24135 0.42815 0.0
O113 O 0.83478 0.23903 0.40179 0.0
C114 C 0.80626 0.18771 0.52924 0.0
O115 O 0.75234 0.19338 0.39844 0.0
O116 O 0.7525 0.15557 0.42038 0.0
In117 In 0.93635 0.4637 0.25257 0.0
O118 O 0.97222 0.47914 0.18875 0.0
O119 O 0.93064 0.46367 0.15638 0.0
C120 C 0.96816 0.47843 0.34665 0.0
C121 C 0.91138 0.49493 0.27389 0.0
C122 C 0.91019 0.40693 0.26622 0.0
O123 O 0.97891 0.48751 0.29852 0.0
O124 O 0.9417 0.46204 0.34683 0.0
O125 O 0.89688 0.42041 0.26436 0.0
O126 O 0.93653 0.42182 0.2574 0.0
C127 C 0.95676 0.47413 0.14578 0.0
O128 O 0.89753 0.46831 0.26799 0.0
O129 O 0.93768 0.50607 0.26516 0.0
In130 In 0.53065 0.46343 0.23362 0.0
O131 O 0.52499 0.41893 0.22123 0.0
O132 O 0.49413 0.42302 0.26903 0.0
C133 C 0.58742 0.49243 0.24772 0.0
C134 C 0.51189 0.47209 0.13398 0.0
C135 C 0.52091 0.48485 0.32735 0.0
O136 O 0.57305 0.46567 0.24918 0.0
O137 O 0.57344 0.50448 0.23515 0.0
O138 O 0.51824 0.49284 0.27874 0.0
O139 O 0.52835 0.46631 0.32805 0.0
C140 C 0.5029 0.40688 0.25149 0.0
O141 O 0.49823 0.46742 0.17947 0.0
O142 O 0.53475 0.47151 0.13817 0.0
In143 In 0.52942 0.06939 0.24408 0.0
O144 O 0.52461 0.03278 0.18939 0.0
O145 O 0.51751 0.06367 0.14987 0.0
C146 C 0.5093 0.0389 0.33898 0.0
C147 C 0.58619 0.09685 0.2576 0.0
C148 C 0.50415 0.10063 0.26253 0.0
O149 O 0.49835 0.02909 0.29127 0.0
O150 O 0.53019 0.06383 0.33832 0.0
O151 O 0.53026 0.11174 0.25147 0.0
O152 O 0.49053 0.07386 0.26032 0.0
C153 C 0.51789 0.04072 0.14498 0.0
O154 O 0.5738 0.10783 0.23139 0.0
O155 O 0.57014 0.07167 0.27373 0.0
In156 In 0.46119 0.94035 0.74145 0.0
O157 O 0.46862 0.97751 0.79617 0.0
O158 O 0.46783 0.94242 0.83778 0.0
C159 C 0.47632 0.97195 0.64682 0.0
C160 C 0.49395 0.91616 0.73169 0.0
C161 C 0.4042 0.91019 0.72881 0.0
O162 O 0.48848 0.98161 0.69352 0.0
O163 O 0.45658 0.9465 0.64802 0.0
O164 O 0.42017 0.90046 0.71538 0.0
O165 O 0.41679 0.93439 0.75158 0.0
C166 C 0.47092 0.96704 0.84199 0.0
O167 O 0.46788 0.90191 0.7439 0.0
O168 O 0.50362 0.94254 0.72763 0.0
In169 In 0.06516 0.5263 0.75061 0.0
O170 O 0.1031 0.57131 0.74348 0.0
O171 O 0.06175 0.56625 0.7431 0.0
C172 C 0.09138 0.49579 0.73384 0.0
C173 C 0.04438 0.51597 0.85694 0.0
C174 C 0.03409 0.50951 0.65558 0.0
O175 O 0.10435 0.52257 0.73146 0.0
O176 O 0.06562 0.48455 0.74784 0.0
O177 O 0.02302 0.50139 0.70382 0.0
O178 O 0.06054 0.52599 0.6557 0.0
C179 C 0.0881 0.58299 0.73886 0.0
O180 O 0.02887 0.50964 0.81365 0.0
O181 O 0.07067 0.52763 0.84679 0.0
In182 In 0.47305 0.53384 0.73121 0.0
O183 O 0.42804 0.5268 0.72446 0.0
O184 O 0.43346 0.49074 0.71839 0.0
C185 C 0.50023 0.59096 0.72138 0.0
C186 C 0.48845 0.52299 0.83248 0.0
C187 C 0.48959 0.51962 0.63569 0.0
O188 O 0.47358 0.57584 0.71812 0.0
O189 O 0.51284 0.57744 0.73299 0.0
O190 O 0.48892 0.50838 0.68266 0.0
O191 O 0.48194 0.53799 0.63696 0.0
C192 C 0.41668 0.50041 0.71577 0.0
O193 O 0.50186 0.52588 0.78733 0.0
O194 O 0.46704 0.52617 0.82741 0.0
In195 In 0.59374 0.8032 0.5798 0.0
O196 O 0.62844 0.81064 0.51503 0.0
O197 O 0.59365 0.81426 0.48593 0.0
C198 C 0.62575 0.81994 0.67436 0.0
C199 C 0.5629 0.82815 0.60631 0.0
C200 C 0.56589 0.74608 0.58961 0.0
O201 O 0.60113 0.79867 0.67244 0.0
O202 O 0.63463 0.83311 0.62803 0.0
O203 O 0.5539 0.75948 0.57255 0.0
O204 O 0.59222 0.76131 0.59799 0.0
C205 C 0.61684 0.81555 0.47385 0.0
O206 O 0.55178 0.80228 0.5931 0.0
O207 O 0.58965 0.84189 0.60339 0.0
In208 In 0.19155 0.7959 0.58837 0.0
O209 O 0.18508 0.82345 0.52233 0.0
O210 O 0.17667 0.78268 0.49692 0.0
C211 C 0.17314 0.80969 0.68273 0.0
C212 C 0.16902 0.7403 0.61397 0.0
C213 C 0.24871 0.82591 0.59704 0.0
O214 O 0.16165 0.80751 0.63509 0.0
O215 O 0.19366 0.80507 0.68219 0.0
O216 O 0.23575 0.80157 0.57481 0.0
O217 O 0.23301 0.83579 0.61133 0.0
C218 C 0.17721 0.80534 0.48317 0.0
O219 O 0.1544 0.75247 0.61321 0.0
O220 O 0.19457 0.75583 0.59939 0.0
In221 In 0.20338 0.39607 0.58147 0.0
O222 O 0.1932 0.35652 0.52897 0.0
O223 O 0.19206 0.39017 0.4866 0.0
C224 C 0.19217 0.37156 0.68459 0.0
C225 C 0.26058 0.42717 0.58681 0.0
C226 C 0.17497 0.42453 0.5974 0.0
O227 O 0.17675 0.35923 0.64214 0.0
O228 O 0.213 0.39583 0.67465 0.0
O229 O 0.19931 0.43581 0.57529 0.0
O230 O 0.16424 0.39844 0.60838 0.0
C231 C 0.18894 0.36561 0.48318 0.0
O232 O 0.24528 0.43788 0.57508 0.0
O233 O 0.24716 0.40048 0.59191 0.0
H234 H 0.17849 0.38077 0.37988 0.0
H235 H 0.18083 0.31231 0.46751 0.0
H236 H 0.16692 0.28401 0.38091 0.0
H237 H 0.1539 0.27852 0.28003 0.0
H238 H 0.1516 0.34702 0.19245 0.0
H239 H 0.16564 0.37536 0.27897 0.0
C240 C 0.17598 0.35967 0.38 0.0
C241 C 0.18071 0.34871 0.43017 0.0
C242 C 0.16795 0.34345 0.32995 0.0
C243 C 0.17734 0.3213 0.42954 0.0
C244 C 0.16937 0.30507 0.37999 0.0
C245 C 0.15648 0.29965 0.2799 0.0
C246 C 0.15168 0.31059 0.22977 0.0
C247 C 0.16459 0.31589 0.32992 0.0
C248 C 0.15514 0.33804 0.23038 0.0
C249 C 0.16318 0.35429 0.27989 0.0
H250 H 0.66647 0.81957 0.43866 0.0
H251 H 0.59522 0.82666 0.37938 0.0
H252 H 0.61554 0.83777 0.2843 0.0
H253 H 0.6536 0.84549 0.21765 0.0
H254 H 0.72476 0.83824 0.27694 0.0
H255 H 0.70449 0.82724 0.37203 0.0
C256 C 0.65539 0.82355 0.40493 0.0
C257 C 0.62935 0.82228 0.41621 0.0
C258 C 0.66721 0.82992 0.35023 0.0
C259 C 0.61529 0.8275 0.37195 0.0
C260 C 0.6269 0.83386 0.3175 0.0
C261 C 0.66467 0.84151 0.2514 0.0
C262 C 0.69068 0.8427 0.24011 0.0
C263 C 0.65285 0.83514 0.3061 0.0
C264 C 0.70472 0.83746 0.28437 0.0
C265 C 0.69314 0.83116 0.33883 0.0
H266 H 0.17441 0.85135 0.44509 0.0
H267 H 0.16169 0.76974 0.39246 0.0
H268 H 0.14816 0.7769 0.29807 0.0
H269 H 0.13992 0.80632 0.23004 0.0
H270 H 0.15237 0.88783 0.2825 0.0
H271 H 0.16592 0.88072 0.37703 0.0
C272 C 0.16869 0.83515 0.41294 0.0
C273 C 0.16911 0.81006 0.42591 0.0
C274 C 0.16083 0.83937 0.35859 0.0
C275 C 0.16157 0.78926 0.38372 0.0
C276 C 0.15381 0.79333 0.32964 0.0
C277 C 0.14557 0.82252 0.26218 0.0
C278 C 0.14511 0.84757 0.24912 0.0
C279 C 0.15335 0.81829 0.31656 0.0
C280 C 0.15251 0.86834 0.29133 0.0
C281 C 0.16029 0.8643 0.34546 0.0
H282 H 0.37897 0.17543 0.6166 0.0
H283 H 0.31266 0.18255 0.5312 0.0
H284 H 0.28364 0.16723 0.61652 0.0
H285 H 0.2769 0.15168 0.71559 0.0
H286 H 0.34338 0.14518 0.80167 0.0
H287 H 0.37231 0.16009 0.71603 0.0
C288 C 0.35824 0.17375 0.61684 0.0
C289 C 0.34804 0.18017 0.56772 0.0
C290 C 0.34154 0.16482 0.66609 0.0
C291 C 0.32106 0.17779 0.56853 0.0
C292 C 0.30438 0.16895 0.61726 0.0
C293 C 0.29763 0.15335 0.71541 0.0
C294 C 0.30792 0.14725 0.76473 0.0
C295 C 0.31434 0.16229 0.66623 0.0
C296 C 0.33495 0.14974 0.76412 0.0
C297 C 0.35156 0.15833 0.71522 0.0
H298 H 0.83887 0.16483 0.55925 0.0
H299 H 0.78635 0.19624 0.62882 0.0
H300 H 0.79503 0.18505 0.72421 0.0
H301 H 0.81723 0.16611 0.78774 0.0
H302 H 0.86946 0.13428 0.71868 0.0
H303 H 0.86115 0.14582 0.6231 0.0
C304 C 0.82938 0.16929 0.59532 0.0
C305 C 0.81202 0.18139 0.58698 0.0
C306 C 0.83435 0.16266 0.65005 0.0
C307 C 0.79981 0.18696 0.6341 0.0
C308 C 0.80474 0.18054 0.68865 0.0
C309 C 0.8268 0.16168 0.75178 0.0
C310 C 0.84393 0.14935 0.76027 0.0
C311 C 0.82191 0.16834 0.6971 0.0
C312 C 0.85617 0.14374 0.71325 0.0
C313 C 0.85144 0.15035 0.65862 0.0
H314 H 0.80865 0.64223 0.78841 0.0
H315 H 0.87162 0.72404 0.7239 0.0
H316 H 0.86405 0.7046 0.62818 0.0
H317 H 0.83953 0.66418 0.56237 0.0
H318 H 0.77635 0.58254 0.62736 0.0
H319 H 0.78399 0.60205 0.72282 0.0
C320 C 0.82073 0.65581 0.75341 0.0
C321 C 0.84069 0.68455 0.76342 0.0
C322 C 0.81622 0.6445 0.69835 0.0
C323 C 0.85611 0.70184 0.71748 0.0
C324 C 0.8518 0.69073 0.66265 0.0
C325 C 0.82743 0.65069 0.59743 0.0
C326 C 0.8074 0.62192 0.58759 0.0
C327 C 0.83191 0.66208 0.65251 0.0
C328 C 0.7919 0.60475 0.63359 0.0
C329 C 0.79626 0.61588 0.68832 0.0
H330 H 0.01206 0.49782 0.11577 0.0
H331 H 0.92798 0.46405 0.04596 0.0
H332 H 0.94779 0.47407 0.95031 0.0
H333 H 0.98899 0.49235 0.88676 0.0
H334 H 0.07306 0.52631 0.95679 0.0
H335 H 0.05322 0.51628 0.05235 0.0
C336 C -0.00195 0.49264 0.07962 0.0
C337 C 0.96859 0.48018 0.08789 0.0
C338 C 0.00959 0.49849 0.02491 0.0
C339 C 0.95073 0.47364 0.04068 0.0
C340 C 0.96204 0.47936 0.98602 0.0
C341 C 0.00298 0.49756 0.92294 0.0
C342 C 0.03245 0.51004 0.91475 0.0
C343 C 0.99143 0.49177 0.97767 0.0
C344 C 0.0503 0.5167 0.962 0.0
C345 C 0.03897 0.51096 0.01662 0.0
H346 H 0.54061 0.48875 0.03484 0.0
H347 H 0.46278 0.47286 0.11518 0.0
H348 H 0.44879 0.48801 0.02964 0.0
H349 H 0.45892 0.50618 0.93174 0.0
H350 H 0.53696 0.52187 0.85239 0.0
H351 H 0.55067 0.5067 0.93778 0.0
C352 C 0.52051 0.48844 0.03349 0.0
C353 C 0.50274 0.47962 0.08112 0.0
C354 C 0.51272 0.4974 0.98444 0.0
C355 C 0.47682 0.47949 0.07891 0.0
C356 C 0.46884 0.48824 0.0301 0.0
C357 C 0.47898 0.50643 0.9334 0.0
C358 C 0.4969 0.5152 0.8859 0.0
C359 C 0.4867 0.4974 0.98265 0.0
C360 C 0.52276 0.51523 0.88842 0.0
C361 C 0.53063 0.50649 0.9372 0.0
H362 H 0.50152 0.0527 0.04509 0.0
H363 H 0.51642 0.99044 0.12739 0.0
H364 H 0.50227 0.96151 0.0417 0.0
H365 H 0.48588 0.95397 0.94281 0.0
H366 H 0.4717 0.01673 0.86058 0.0
H367 H 0.48512 0.04518 0.94669 0.0
C368 C 0.50173 0.03284 0.04418 0.0
C369 C 0.51006 0.02378 0.09241 0.0
C370 C 0.49355 0.01628 0.9948 0.0
C371 C 0.51016 -0.00205 0.0907 0.0
C372 C 0.50201 0.98133 0.04177 0.0
C373 C 0.48558 0.97378 0.94396 0.0
C374 C 0.47777 0.98318 0.89548 0.0
C375 C 0.49364 0.99026 0.99354 0.0
C376 C 0.47764 0.009 0.89738 0.0
C377 C 0.48536 0.02534 0.94657 0.0
H378 H 0.18347 0.33717 0.94164 0.0
H379 H 0.1073 0.26389 0.88068 0.0
H380 H 0.11717 0.28333 0.78505 0.0
H381 H 0.14746 0.32119 0.71848 0.0
H382 H 0.2236 0.39448 0.77951 0.0
H383 H 0.21376 0.37499 0.87508 0.0
C384 C 0.16903 0.32552 0.90741 0.0
C385 C 0.14472 0.29918 0.91821 0.0
C386 C 0.17485 0.33678 0.85244 0.0
C387 C 0.1262 0.28425 0.87346 0.0
C388 C 0.13181 0.29532 0.81872 0.0
C389 C 0.1619 0.33283 0.7527 0.0
C390 C 0.1862 0.35919 0.74194 0.0
C391 C 0.15609 0.32155 0.80768 0.0
C392 C 0.20472 0.3741 0.7867 0.0
C393 C 0.19912 0.36301 0.84141 0.0
H394 H 0.61013 0.79367 0.77592 0.0
H395 H 0.67868 0.86565 0.69137 0.0
H396 H 0.70581 0.87993 0.77959 0.0
H397 H 0.70991 0.87187 0.88043 0.0
H398 H 0.64134 0.79983 0.96481 0.0
H399 H 0.61421 0.78562 0.87665 0.0
C400 C 0.63102 0.81249 0.77675 0.0
C401 C 0.64242 0.8286 0.72722 0.0
C402 C 0.64641 0.82054 0.82748 0.0
C403 C 0.66948 0.8529 0.72894 0.0
C404 C 0.68497 0.86107 0.77934 0.0
C405 C 0.68901 0.85307 0.87956 0.0
C406 C 0.67761 0.83691 0.92905 0.0
C407 C 0.67362 0.84504 0.82881 0.0
C408 C 0.65053 0.81262 0.92729 0.0
C409 C 0.63505 0.80449 0.87692 0.0
H410 H 0.11807 0.83987 0.88669 0.0
H411 H 0.18413 0.83469 0.97771 0.0
H412 H 0.19997 0.82313 0.88991 0.0
H413 H 0.19518 0.81483 0.78753 0.0
H414 H 0.12925 0.82017 0.69633 0.0
H415 H 0.1132 0.83143 0.78424 0.0
C416 C 0.1359 0.83615 0.88736 0.0
C417 C 0.14991 0.8381 0.93861 0.0
C418 C 0.14492 0.82963 0.83678 0.0
C419 C 0.173 0.83328 0.9388 0.0
C420 C 0.18206 0.8267 0.88864 0.0
C421 C 0.17729 0.81847 0.78684 0.0
C422 C 0.16341 0.8167 0.7355 0.0
C423 C 0.16821 0.82489 0.83742 0.0
C424 C 0.14029 0.82144 0.7353 0.0
C425 C 0.1311 0.82786 0.78553 0.0
H426 H 0.37522 0.20803 0.21871 0.0
H427 H 0.30411 0.14128 0.30883 0.0
H428 H 0.27708 0.12535 0.22082 0.0
H429 H 0.27454 0.12934 0.11822 0.0
H430 H 0.34607 0.1954 0.02781 0.0
H431 H 0.37224 0.21275 0.11647 0.0
C432 C 0.35373 0.19011 0.21912 0.0
C433 C 0.34163 0.17576 0.26989 0.0
C434 C 0.33855 0.1809 0.1685 0.0
C435 C 0.31383 0.15258 0.27004 0.0
C436 C 0.29842 0.14346 0.21984 0.0
C437 C 0.29583 0.14758 0.11796 0.0
C438 C 0.30848 0.16103 0.06678 0.0
C439 C 0.31072 0.15727 0.16881 0.0
C440 C 0.336 0.18467 0.06685 0.0
C441 C 0.35093 0.19459 0.11742 0.0
H442 H 0.8491 0.13344 0.12647 0.0
H443 H 0.8168 0.17905 0.03126 0.0
H444 H 0.80379 0.19339 0.11916 0.0
H445 H 0.80194 0.19314 0.2225 0.0
H446 H 0.83433 0.1477 0.31796 0.0
H447 H 0.84706 0.13304 0.23002 0.0
C448 C 0.83918 0.14649 0.12496 0.0
C449 C 0.8339 0.15521 0.07261 0.0
C450 C 0.83185 0.15466 0.17548 0.0
C451 C 0.82106 0.1721 0.07115 0.0
C452 C 0.81364 0.1803 0.12131 0.0
C453 C 0.81178 0.18002 0.2241 0.0
C454 C 0.81724 0.1715 0.27649 0.0
C455 C 0.819 0.17174 0.17362 0.0
C456 C 0.82997 0.15451 0.27802 0.0
C457 C 0.83723 0.14613 0.22784 0.0
H458 H 0.83137 0.64241 0.06417 0.0
H459 H 0.82959 0.71667 0.12319 0.0
H460 H 0.82078 0.69823 0.21953 0.0
H461 H 0.81405 0.66117 0.28766 0.0
H462 H 0.81622 0.58708 0.22869 0.0
H463 H 0.82458 0.60533 0.13226 0.0
C464 C 0.82885 0.65442 0.0981 0.0
C465 C 0.83107 0.68079 0.08654 0.0
C466 C 0.82408 0.64383 0.15366 0.0
C467 C 0.82797 0.69626 0.13098 0.0
C468 C 0.82299 0.68578 0.18617 0.0
C469 C 0.8165 0.64913 0.25371 0.0
C470 C 0.81458 0.62288 0.26536 0.0
C471 C 0.82118 0.65967 0.19812 0.0
C472 C 0.81763 0.60741 0.22088 0.0
C473 C 0.82236 0.61777 0.16562 0.0
H474 H 0.94824 0.46197 0.4525 0.0
H475 H 0.02536 0.5131 0.35823 0.0
H476 H 0.05263 0.52706 0.44622 0.0
H477 H 0.05428 0.52502 0.5495 0.0
H478 H 0.97707 0.47411 0.64368 0.0
H479 H 0.94992 0.45969 0.55562 0.0
C480 C 0.97103 0.47613 0.45119 0.0
C481 C 0.98484 0.48654 0.39915 0.0
C482 C 0.98645 0.48409 0.5017 0.0
C483 C 0.01433 0.50486 0.39793 0.0
C484 C 0.02989 0.51284 0.44812 0.0
C485 C 0.03151 0.51075 0.55075 0.0
C486 C 0.01763 0.50063 0.60283 0.0
C487 C 0.01612 0.50264 0.50018 0.0
C488 C 0.98816 0.48217 0.60397 0.0
C489 C 0.97266 0.47393 0.55374 0.0
H490 H 0.48896 0.53847 0.5302 0.0
H491 H 0.50873 0.48226 0.62373 0.0
H492 H 0.52101 0.46728 0.53597 0.0
H493 H 0.5248 0.46919 0.43326 0.0
H494 H 0.50435 0.52457 0.33868 0.0
H495 H 0.49366 0.54102 0.42679 0.0
C496 C 0.49607 0.52303 0.53131 0.0
C497 C 0.4979 0.51139 0.5831 0.0
C498 C 0.50287 0.51438 0.48079 0.0
C499 C 0.50711 0.49142 0.5842 0.0
C500 C 0.51411 0.48286 0.53415 0.0
C501 C 0.51809 0.48493 0.43188 0.0
C502 C 0.51526 0.49564 0.37979 0.0
C503 C 0.51185 0.49405 0.48229 0.0
C504 C 0.5066 0.51603 0.37848 0.0
C505 C 0.50049 0.5254 0.42872 0.0
H506 H 0.45375 0.95454 0.54279 0.0
H507 H 0.51838 0.02685 0.63385 0.0
H508 H 0.53387 0.05413 0.5461 0.0
H509 H 0.52972 0.05693 0.4438 0.0
H510 H 0.46545 0.98465 0.35215 0.0
H511 H 0.44901 0.95769 0.44033 0.0
C512 C 0.47116 0.9763 0.54341 0.0
C513 C 0.48498 0.98871 0.59446 0.0
C514 C 0.48 0.99174 0.49292 0.0
C515 C 0.50747 0.01689 0.59489 0.0
C516 C 0.51634 0.03246 0.54483 0.0
C517 C 0.51208 0.03529 0.44311 0.0
C518 C 0.49884 0.0227 0.39175 0.0
C519 C 0.50287 0.02001 0.49365 0.0
C520 C 0.47598 0.99471 0.39135 0.0
C521 C 0.4666 0.97933 0.44163 0.0
H522 H 0.20126 0.24969 0.99752 0.0
H523 H 0.13452 0.17667 0.08304 0.0
H524 H 0.1528 0.14694 0.04574 0.0
H525 H 0.18777 0.14169 0.9888 0.0
H526 H 0.25478 0.21485 0.90419 0.0
H527 H 0.23606 0.24442 0.94027 0.0
C528 C 0.19087 0.22733 0.00841 0.0
C529 C 0.16669 0.21544 0.04331 0.0
C530 C 0.20129 0.2103 0.98627 0.0
C531 C 0.15328 0.18637 0.05654 0.0
C532 C 0.16362 0.16932 0.03497 0.0
C533 C 0.19804 0.16403 0.97766 0.0
C534 C 0.2225 0.17603 0.94355 0.0
C535 C 0.1875 0.18102 -0.00049 0.0
C536 C 0.23583 0.20508 0.93013 0.0
C537 C 0.22524 0.22203 0.95102 0.0
H538 H 0.84565 0.04196 0.98532 0.0
H539 H 0.76923 0.04073 0.93156 0.0
H540 H 0.7405 0.99267 0.9693 0.0
H541 H 0.73714 0.9512 0.0183 0.0
H542 H 0.8136 0.9528 0.07327 0.0
H543 H 0.84226 0.00076 0.0353 0.0
C544 C 0.82272 0.03103 0.98128 0.0
C545 C 0.80957 0.04473 0.95525 0.0
C546 C 0.80634 0.00368 0.00415 0.0
C547 C 0.77983 0.03052 0.95111 0.0
C548 C 0.7634 0.00313 0.97297 0.0
C549 C 0.76005 0.96218 0.02255 0.0
C550 C 0.77322 0.94853 0.04882 0.0
C551 C 0.77642 0.9896 -1e-05 0.0
C552 C 0.80295 0.96291 0.05353 0.0
C553 C 0.81936 0.99026 0.0315 0.0
H554 H 0.94218 0.79528 0.99703 0.0
H555 H 0.9449 0.72032 0.94686 0.0
H556 H 0.9929 0.7405 0.98532 0.0
H557 H 0.03423 0.77969 0.03238 0.0
H558 H 0.03103 0.85423 0.08418 0.0
H559 H 0.98286 0.83373 0.04691 0.0
C560 C 0.9534 0.78348 0.9941 0.0
C561 C 0.94019 0.75651 0.96858 0.0
C562 C 0.98071 0.79496 0.01731 0.0
C563 C 0.95474 0.74123 0.96597 0.0
C564 C 0.98211 0.75269 0.98817 0.0
C565 C 0.02286 0.7913 0.03614 0.0
C566 C 0.03618 0.81843 0.06109 0.0
C567 C 0.99527 0.77951 0.01408 0.0
C568 C 0.02121 0.83326 0.06537 0.0
C569 C 0.99374 0.82164 0.04373 0.0
H570 H 0.84366 0.79857 0.9696 0.0
H571 H 0.76648 0.72298 0.92075 0.0
H572 H 0.73843 0.74388 0.95481 0.0
H573 H 0.73584 0.78294 0.00211 0.0
H574 H 0.8132 0.85785 0.05321 0.0
H575 H 0.84115 0.83775 0.01535 0.0
C576 C 0.82072 0.78684 0.96562 0.0
C577 C 0.80716 0.75935 0.9424 0.0
C578 C 0.80475 0.79867 0.9866 0.0
C579 C 0.77741 0.74425 0.93824 0.0
C580 C 0.76136 0.75611 0.95803 0.0
C581 C 0.75881 0.79478 0.00519 0.0
C582 C 0.77241 0.82176 0.03077 0.0
C583 C 0.77479 0.78313 0.98311 0.0
C584 C 0.80219 0.83696 0.03403 0.0
C585 C 0.81821 0.82555 0.01216 0.0
H586 H 0.20257 0.95019 0.01777 0.0
H587 H 0.12374 0.94923 0.04698 0.0
H588 H 0.14367 0.99655 0.00535 0.0
H589 H 0.1838 0.03859 0.96189 0.0
H590 H 0.26303 0.04006 0.93549 0.0
H591 H 0.24251 0.992 0.97378 0.0
C592 C 0.18981 0.96041 0.01529 0.0
C593 C 0.16178 0.94629 0.03571 0.0
C594 C 0.20137 0.98758 0.99114 0.0
C595 C 0.14545 0.95972 0.03186 0.0
C596 C 0.15677 0.98673 0.0078 0.0
C597 C 0.1964 0.02819 0.96376 0.0
C598 C 0.2248 0.04272 0.94553 0.0
C599 C 0.18469 0.00084 0.9872 0.0
C600 C 0.24106 0.02922 0.94905 0.0
C601 C 0.2294 0.00181 0.97122 0.0
H602 H 0.94615 0.14437 0.99779 0.0
H603 H 0.94896 0.22061 0.93699 0.0
H604 H -0.00335 0.24941 0.97612 0.0
H605 H 0.03766 0.25282 0.02671 0.0
H606 H 0.03473 0.17659 0.08814 0.0
H607 H 0.98667 0.1479 0.05078 0.0
C608 C 0.95733 0.16727 0.99267 0.0
C609 C 0.94423 0.18035 0.96401 0.0
C610 C 0.98449 0.1837 0.01618 0.0
C611 C 0.95872 0.21006 0.95852 0.0
C612 C 0.98591 0.22653 0.98114 0.0
C613 C 0.02635 0.22996 0.03264 0.0
C614 C 0.0397 0.21685 0.06031 0.0
C615 C -0.00106 0.21358 0.01023 0.0
C616 C 0.02487 0.1872 0.06723 0.0
C617 C -0.00253 0.17077 0.04551 0.0
H618 H 0.87542 0.58019 0.37283 0.0
H619 H 0.80305 0.5013 0.42654 0.0
H620 H 0.8235 0.4747 0.38348 0.0
H621 H 0.8609 0.47375 0.32728 0.0
H622 H 0.93365 0.55244 0.27431 0.0
H623 H 0.91382 0.57929 0.31946 0.0
C624 C 0.86437 0.55721 0.37595 0.0
C625 C 0.8378 0.54273 0.40298 0.0
C626 C 0.87601 0.54202 0.35017 0.0
C627 C 0.82359 0.51293 0.40618 0.0
C628 C 0.83515 0.4977 0.38117 0.0
C629 C 0.87227 0.49677 0.32513 0.0
C630 C 0.89848 0.51112 0.29688 0.0
C631 C 0.86108 0.512 0.35219 0.0
C632 C 0.91328 0.54095 0.29538 0.0
C633 C 0.90205 0.55628 0.32147 0.0
H634 H 0.46299 0.38151 0.33244 0.0
H635 H 0.51522 0.36615 0.21663 0.0
H636 H 0.4966 0.3183 0.25558 0.0
H637 H 0.46526 0.2809 0.32233 0.0
H638 H 0.41328 0.29677 0.43797 0.0
H639 H 0.43256 0.34474 0.40003 0.0
C640 C 0.47015 0.36762 0.31532 0.0
C641 C 0.49024 0.37722 0.27132 0.0
C642 C 0.45974 0.34046 0.3385 0.0
C643 C 0.49958 0.35913 0.25017 0.0
C644 C 0.48908 0.33187 0.27266 0.0
C645 C 0.45844 0.295 0.33973 0.0
C646 C 0.43796 0.28537 0.38307 0.0
C647 C 0.46924 0.32237 0.31701 0.0
C648 C 0.42911 0.30375 0.40479 0.0
C649 C 0.43998 0.3311 0.38287 0.0
H650 H 0.61493 0.07817 0.32133 0.0
H651 H 0.62438 0.15246 0.23518 0.0
H652 H 0.67206 0.18089 0.27459 0.0
H653 H 0.71036 0.18486 0.33568 0.0
H654 H 0.70124 0.11045 0.42062 0.0
H655 H 0.65377 0.08183 0.38019 0.0
C656 C 0.62754 0.10052 0.31065 0.0
C657 C 0.61618 0.11321 0.27533 0.0
C658 C 0.65473 0.11675 0.33398 0.0
C659 C 0.63271 0.14219 0.26206 0.0
C660 C 0.65988 0.15848 0.28489 0.0
C661 C 0.69787 0.16242 0.34575 0.0
C662 C 0.70908 0.1498 0.38158 0.0
C663 C 0.67092 0.14606 0.32149 0.0
C664 C 0.69291 0.12064 0.39349 0.0
C665 C 0.66587 0.10427 0.37017 0.0
H666 H 0.45042 0.08029 0.30061 0.0
H667 H 0.52957 0.15818 0.27466 0.0
H668 H 0.50989 0.18515 0.31953 0.0
H669 H 0.47013 0.18654 0.3663 0.0
H670 H 0.3907 0.10871 0.38976 0.0
H671 H 0.41075 0.08166 0.34682 0.0
C672 C 0.46328 0.1032 0.30426 0.0
C673 C 0.49135 0.11724 0.28403 0.0
C674 C 0.45194 0.11851 0.33056 0.0
C675 C 0.50782 0.1469 0.28952 0.0
C676 C 0.49666 0.16231 0.31553 0.0
C677 C 0.4574 0.16361 0.36279 0.0
C678 C 0.4291 0.14956 0.38166 0.0
C679 C 0.46882 0.14831 0.3366 0.0
C680 C 0.41261 0.11993 0.37586 0.0
C681 C 0.42399 0.1045 0.35099 0.0
H682 H 0.87399 0.28399 0.35444 0.0
H683 H 0.80378 0.2913 0.41991 0.0
H684 H 0.82351 0.33851 0.37789 0.0
H685 H 0.86022 0.3773 0.32133 0.0
H686 H 0.93103 0.37064 0.25756 0.0
H687 H 0.91122 0.32323 0.29918 0.0
C688 C 0.86318 0.29606 0.36009 0.0
C689 C 0.83753 0.28423 0.39045 0.0
C690 C 0.87446 0.32303 0.33524 0.0
C691 C 0.82365 0.30001 0.39702 0.0
C692 C 0.8348 0.32691 0.37265 0.0
C693 C 0.87112 0.36531 0.31593 0.0
C694 C 0.89686 0.37725 0.28591 0.0
C695 C 0.86001 0.33847 0.34116 0.0
C696 C 0.91105 0.36174 0.28013 0.0
C697 C 0.89984 0.33475 0.30422 0.0
H698 H 0.61629 0.47153 0.30421 0.0
H699 H 0.62433 0.54938 0.23893 0.0
H700 H 0.67112 0.57656 0.2829 0.0
H701 H 0.70919 0.57821 0.34176 0.0
H702 H 0.70062 0.50028 0.40809 0.0
H703 H 0.65429 0.47314 0.36269 0.0
C704 C 0.62846 0.49441 0.29894 0.0
C705 C 0.61701 0.50842 0.26801 0.0
C706 C 0.65498 0.50991 0.32539 0.0
C707 C 0.63281 0.53811 0.26225 0.0
C708 C 0.65945 0.55366 0.28769 0.0
C709 C 0.69704 0.55532 0.34675 0.0
C710 C 0.7082 0.54128 0.37856 0.0
C711 C 0.67058 0.53981 0.31994 0.0
C712 C 0.69239 0.51159 0.3841 0.0
C713 C 0.66599 0.49604 0.35788 0.0
H714 H 0.58237 0.88199 0.64432 0.0
H715 H 0.50547 0.80191 0.61854 0.0
H716 H 0.47753 0.82135 0.65957 0.0
H717 H 0.4748 0.86138 0.70128 0.0
H718 H 0.55148 0.9419 0.72421 0.0
H719 H 0.57968 0.9219 0.6868 0.0
C720 C 0.55949 0.86885 0.64741 0.0
C721 C 0.54601 0.84062 0.62809 0.0
C722 C 0.54354 0.88015 0.67119 0.0
C723 C 0.51636 0.82379 0.63275 0.0
C724 C 0.50036 0.83484 0.65648 0.0
C725 C 0.49772 0.8744 0.69886 0.0
C726 C 0.51107 0.90299 0.71582 0.0
C727 C 0.51372 0.86297 0.67591 0.0
C728 C 0.54074 0.91977 0.71162 0.0
C729 C 0.55686 0.9084 0.68995 0.0
H730 H 0.11674 0.70501 0.65769 0.0
H731 H 0.19656 0.70999 0.61771 0.0
H732 H 0.17926 0.66247 0.65648 0.0
H733 H 0.14125 0.61923 0.7007 0.0
H734 H 0.0611 0.61383 0.73901 0.0
H735 H 0.07888 0.66193 0.70279 0.0
C736 C 0.13028 0.69562 0.65718 0.0
C737 C 0.15782 0.71092 0.63456 0.0
C738 C 0.12025 0.66834 0.67983 0.0
C739 C 0.17521 0.69858 0.63461 0.0
C740 C 0.16538 0.67145 0.65699 0.0
C741 C 0.12781 0.62874 0.70177 0.0
C742 C 0.09997 0.61309 0.72276 0.0
C743 C 0.13797 0.65616 0.67982 0.0
C744 C 0.08267 0.62552 0.72324 0.0
C745 C 0.09276 0.65296 0.70228 0.0
H746 H 0.38261 0.5185 0.67081 0.0
H747 H 0.38481 0.4427 0.71613 0.0
H748 H 0.33726 0.41322 0.67682 0.0
H749 H 0.29512 0.40904 0.62957 0.0
H750 H 0.2933 0.48487 0.5825 0.0
H751 H 0.3409 0.5143 0.62134 0.0
C752 C 0.37251 0.49552 0.67265 0.0
C753 C 0.387 0.48276 0.69691 0.0
C754 C 0.34548 0.47874 0.64875 0.0
C755 C 0.37394 0.45299 0.69804 0.0
C756 C 0.34685 0.43614 0.67528 0.0
C757 C 0.3053 0.432 0.62712 0.0
C758 C 0.29074 0.44475 0.60299 0.0
C759 C 0.33251 0.44879 0.6502 0.0
C760 C 0.30412 0.47453 0.60056 0.0
C761 C 0.33125 0.49138 0.62315 0.0
H762 H 0.12638 0.40617 0.65777 0.0
H763 H 0.19437 0.48079 0.57877 0.0
H764 H 0.17529 0.50971 0.61658 0.0
H765 H 0.13972 0.51396 0.67327 0.0
H766 H 0.07121 0.43928 0.75082 0.0
H767 H 0.09032 0.41028 0.71318 0.0
C768 C 0.13685 0.42871 0.64836 0.0
C769 C 0.1617 0.4413 0.61536 0.0
C770 C 0.12593 0.44526 0.67071 0.0
C771 C 0.17514 0.47056 0.60385 0.0
C772 C 0.16434 0.48715 0.62574 0.0
C773 C 0.12916 0.49139 0.68243 0.0
C774 C 0.10427 0.4788 0.71522 0.0
C775 C 0.13992 0.47478 0.65967 0.0
C776 C 0.09052 0.44947 0.72597 0.0
C777 C 0.10135 0.43287 0.70422 0.0
H778 H 0.47979 0.62024 0.66408 0.0
H779 H 0.556 0.62899 0.73953 0.0
H780 H 0.58335 0.67733 0.70267 0.0
H781 H 0.58577 0.71673 0.64776 0.0
H782 H 0.50977 0.7082 0.57173 0.0
H783 H 0.48224 0.65989 0.60907 0.0
C784 C 0.50231 0.63289 0.67307 0.0
C785 C 0.51584 0.62118 0.70483 0.0
C786 C 0.51801 0.66046 0.65074 0.0
C787 C 0.54509 0.63762 0.71544 0.0
C788 C 0.56077 0.66518 0.69408 0.0
C789 C 0.56324 0.70419 0.6388 0.0
C790 C 0.54985 0.71592 0.60667 0.0
C791 C 0.54751 0.67668 0.66117 0.0
C792 C 0.52059 0.69955 0.59603 0.0
C793 C 0.50481 0.67201 0.61768 0.0
H794 H 0.27728 0.87117 0.66632 0.0
H795 H 0.28778 0.81106 0.56472 0.0
H796 H 0.33652 0.83094 0.59886 0.0
H797 H 0.37589 0.86501 0.65866 0.0
H798 H 0.36508 0.92487 0.76052 0.0
H799 H 0.31649 0.9051 0.72601 0.0
C800 C 0.29034 0.86264 0.65111 0.0
C801 C 0.27903 0.83983 0.61271 0.0
C802 C 0.3181 0.8738 0.67172 0.0
C803 C 0.29608 0.82875 0.594 0.0
C804 C 0.32387 0.83998 0.61378 0.0
C805 C 0.36278 0.87351 0.67377 0.0
C806 C 0.37398 0.89624 0.71236 0.0
C807 C 0.33501 0.86232 0.65307 0.0
C808 C 0.35688 0.90727 0.73104 0.0
C809 C 0.32916 0.89609 0.71108 0.0
loop_
_geom_bond_atom_site_label_1
_geom_bond_atom_site_label_2
_geom_bond_distance
_geom_bond_site_symmetry_2
_ccdc_geom_bond_type
In0 O1 2.294 . S
In0 O2 2.326 . S
In0 O6 2.266 1_554 S
In0 O7 2.326 1_554 S
In0 O8 2.266 . S
In0 O9 2.326 . S
In0 O11 2.294 . S
In0 O12 2.326 . S
O1 In0 2.294 . S
O1 C10 1.240 . S
O2 In0 2.326 . S
O2 C10 1.252 . S
C3 O6 1.252 . S
C3 O7 1.260 . S
C4 O11 1.240 . S
C4 O12 1.252 . S
C5 O8 1.252 . S
C5 O9 1.260 . S
O6 In0 2.266 1_556 S
O6 C3 1.252 . S
O7 In0 2.326 1_556 S
O7 C3 1.260 . S
O8 In0 2.266 . S
O8 C5 1.252 . S
O9 In0 2.326 . S
O9 C5 1.260 . S
C10 O1 1.240 . S
C10 O2 1.252 . S
O11 In0 2.294 . S
O11 C4 1.240 . S
O12 In0 2.326 . S
O12 C4 1.252 . S
In13 O14 2.294 . S
In13 O15 2.326 . S
In13 O19 2.266 . S
In13 O20 2.326 . S
In13 O21 2.266 1_554 S
In13 O22 2.326 1_554 S
In13 O24 2.294 . S
In13 O25 2.326 . S
O14 In13 2.294 . S
O14 C23 1.240 . S
O15 In13 2.326 . S
O15 C23 1.252 . S
C16 O19 1.252 . S
C16 O20 1.260 . S
C17 O24 1.240 . S
C17 O25 1.252 . S
C18 O21 1.252 . S
C18 O22 1.260 . S
O19 In13 2.266 . S
O19 C16 1.252 . S
O20 In13 2.326 . S
O20 C16 1.260 . S
O21 In13 2.266 1_556 S
O21 C18 1.252 . S
O22 In13 2.326 1_556 S
O22 C18 1.260 . S
C23 O14 1.240 . S
C23 O15 1.252 . S
O24 In13 2.294 . S
O24 C17 1.240 . S
O25 In13 2.326 . S
O25 C17 1.252 . S
In26 O27 2.294 . S
In26 O28 2.326 . S
In26 O32 2.266 . S
In26 O33 2.326 . S
In26 O34 2.266 1_554 S
In26 O35 2.326 1_554 S
In26 O37 2.294 . S
In26 O38 2.326 . S
O27 In26 2.294 . S
O27 C36 1.240 . S
O28 In26 2.326 . S
O28 C36 1.252 . S
C29 O32 1.252 . S
C29 O33 1.260 . S
C30 O37 1.240 . S
C30 O38 1.252 . S
C31 O34 1.252 . S
C31 O35 1.260 . S
O32 In26 2.266 . S
O32 C29 1.252 . S
O33 In26 2.326 . S
O33 C29 1.260 . S
O34 In26 2.266 1_556 S
O34 C31 1.252 . S
O35 In26 2.326 1_556 S
O35 C31 1.260 . S
C36 O27 1.240 . S
C36 O28 1.252 . S
O37 In26 2.294 . S
O37 C30 1.240 . S
O38 In26 2.326 . S
O38 C30 1.252 . S
In39 O40 2.294 . S
In39 O41 2.326 . S
In39 O45 2.266 1_556 S
In39 O46 2.326 1_556 S
In39 O47 2.266 . S
In39 O48 2.326 . S
In39 O50 2.294 . S
In39 O51 2.326 . S
O40 In39 2.294 . S
O40 C49 1.240 . S
O41 In39 2.326 . S
O41 C49 1.252 . S
C42 O45 1.252 . S
C42 O46 1.260 . S
C43 O50 1.240 . S
C43 O51 1.252 . S
C44 O47 1.252 . S
C44 O48 1.260 . S
O45 In39 2.266 1_554 S
O45 C42 1.252 . S
O46 In39 2.326 1_554 S
O46 C42 1.260 . S
O47 In39 2.266 . S
O47 C44 1.252 . S
O48 In39 2.326 . S
O48 C44 1.260 . S
C49 O40 1.240 . S
C49 O41 1.252 . S
O50 In39 2.294 . S
O50 C43 1.240 . S
O51 In39 2.326 . S
O51 C43 1.252 . S
In52 O53 2.294 . S
In52 O54 2.326 . S
In52 O58 2.266 1_556 S
In52 O59 2.326 1_556 S
In52 O60 2.266 . S
In52 O61 2.326 . S
In52 O63 2.294 . S
In52 O64 2.326 . S
O53 In52 2.294 . S
O53 C62 1.240 . S
O54 In52 2.326 . S
O54 C62 1.252 . S
C55 O58 1.252 . S
C55 O59 1.260 . S
C56 O63 1.240 . S
C56 O64 1.252 . S
C57 O60 1.252 . S
C57 O61 1.260 . S
O58 In52 2.266 1_554 S
O58 C55 1.252 . S
O59 In52 2.326 1_554 S
O59 C55 1.260 . S
O60 In52 2.266 . S
O60 C57 1.252 . S
O61 In52 2.326 . S
O61 C57 1.260 . S
C62 O53 1.240 . S
C62 O54 1.252 . S
O63 In52 2.294 . S
O63 C56 1.240 . S
O64 In52 2.326 . S
O64 C56 1.252 . S
In65 O66 2.294 . S
In65 O67 2.326 . S
In65 O71 2.266 . S
In65 O72 2.326 . S
In65 O73 2.266 1_556 S
In65 O74 2.326 1_556 S
In65 O76 2.294 . S
In65 O77 2.326 . S
O66 In65 2.294 . S
O66 C75 1.240 . S
O67 In65 2.326 . S
O67 C75 1.252 . S
C68 O71 1.252 . S
C68 O72 1.260 . S
C69 O76 1.240 . S
C69 O77 1.252 . S
C70 O73 1.252 . S
C70 O74 1.260 . S
O71 In65 2.266 . S
O71 C68 1.252 . S
O72 In65 2.326 . S
O72 C68 1.260 . S
O73 In65 2.266 1_554 S
O73 C70 1.252 . S
O74 In65 2.326 1_554 S
O74 C70 1.260 . S
C75 O66 1.240 . S
C75 O67 1.252 . S
O76 In65 2.294 . S
O76 C69 1.240 . S
O77 In65 2.326 . S
O77 C69 1.252 . S
In78 O79 2.294 . S
In78 O80 2.326 . S
In78 O84 2.266 . S
In78 O85 2.326 . S
In78 O86 2.266 . S
In78 O87 2.326 . S
In78 O89 2.294 . S
In78 O90 2.326 . S
O79 In78 2.294 . S
O79 C88 1.240 . S
O80 In78 2.326 . S
O80 C88 1.252 . S
C81 O84 1.252 . S
C81 O85 1.260 . S
C82 O89 1.240 . S
C82 O90 1.252 . S
C83 O86 1.252 . S
C83 O87 1.260 . S
O84 In78 2.266 . S
O84 C81 1.252 . S
O85 In78 2.326 . S
O85 C81 1.260 . S
O86 In78 2.266 . S
O86 C83 1.252 . S
O87 In78 2.326 . S
O87 C83 1.260 . S
C88 O79 1.240 . S
C88 O80 1.252 . S
O89 In78 2.294 . S
O89 C82 1.240 . S
O90 In78 2.326 . S
O90 C82 1.252 . S
In91 O92 2.294 . S
In91 O93 2.326 . S
In91 O97 2.266 . S
In91 O98 2.326 . S
In91 O99 2.266 . S
In91 O100 2.326 . S
In91 O102 2.294 . S
In91 O103 2.326 . S
O92 In91 2.294 . S
O92 C101 1.240 . S
O93 In91 2.326 . S
O93 C101 1.252 . S
C94 O97 1.252 . S
C94 O98 1.260 . S
C95 O102 1.240 . S
C95 O103 1.252 . S
C96 O99 1.252 . S
C96 O100 1.260 . S
O97 In91 2.266 . S
O97 C94 1.252 . S
O98 In91 2.326 . S
O98 C94 1.260 . S
O99 In91 2.266 . S
O99 C96 1.252 . S
O100 In91 2.326 . S
O100 C96 1.260 . S
C101 O92 1.240 . S
C101 O93 1.252 . S
O102 In91 2.294 . S
O102 C95 1.240 . S
O103 In91 2.326 . S
O103 C95 1.252 . S
In104 O105 2.294 . S
In104 O106 2.326 . S
In104 O110 2.266 . S
In104 O111 2.326 . S
In104 O112 2.266 . S
In104 O113 2.326 . S
In104 O115 2.294 . S
In104 O116 2.326 . S
O105 In104 2.294 . S
O105 C114 1.240 . S
O106 In104 2.326 . S
O106 C114 1.252 . S
C107 O110 1.252 . S
C107 O111 1.260 . S
C108 O115 1.240 . S
C108 O116 1.252 . S
C109 O112 1.252 . S
C109 O113 1.260 . S
O110 In104 2.266 . S
O110 C107 1.252 . S
O111 In104 2.326 . S
O111 C107 1.260 . S
O112 In104 2.266 . S
O112 C109 1.252 . S
O113 In104 2.326 . S
O113 C109 1.260 . S
C114 O105 1.240 . S
C114 O106 1.252 . S
O115 In104 2.294 . S
O115 C108 1.240 . S
O116 In104 2.326 . S
O116 C108 1.252 . S
In117 O118 2.294 . S
In117 O119 2.326 . S
In117 O123 2.266 . S
In117 O124 2.326 . S
In117 O125 2.266 . S
In117 O126 2.326 . S
In117 O128 2.294 . S
In117 O129 2.326 . S
O118 In117 2.294 . S
O118 C127 1.240 . S
O119 In117 2.326 . S
O119 C127 1.252 . S
C120 O123 1.252 . S
C120 O124 1.260 . S
C121 O128 1.240 . S
C121 O129 1.252 . S
C122 O125 1.252 . S
C122 O126 1.260 . S
O123 In117 2.266 . S
O123 C120 1.252 . S
O124 In117 2.326 . S
O124 C120 1.260 . S
O125 In117 2.266 . S
O125 C122 1.252 . S
O126 In117 2.326 . S
O126 C122 1.260 . S
C127 O118 1.240 . S
C127 O119 1.252 . S
O128 In117 2.294 . S
O128 C121 1.240 . S
O129 In117 2.326 . S
O129 C121 1.252 . S
In130 O131 2.294 . S
In130 O132 2.326 . S
In130 O136 2.266 . S
In130 O137 2.326 . S
In130 O138 2.266 . S
In130 O139 2.326 . S
In130 O141 2.294 . S
In130 O142 2.326 . S
O131 In130 2.294 . S
O131 C140 1.240 . S
O132 In130 2.326 . S
O132 C140 1.252 . S
C133 O136 1.252 . S
C133 O137 1.260 . S
C134 O141 1.240 . S
C134 O142 1.252 . S
C135 O138 1.252 . S
C135 O139 1.260 . S
O136 In130 2.266 . S
O136 C133 1.252 . S
O137 In130 2.326 . S
O137 C133 1.260 . S
O138 In130 2.266 . S
O138 C135 1.252 . S
O139 In130 2.326 . S
O139 C135 1.260 . S
C140 O131 1.240 . S
C140 O132 1.252 . S
O141 In130 2.294 . S
O141 C134 1.240 . S
O142 In130 2.326 . S
O142 C134 1.252 . S
In143 O144 2.294 . S
In143 O145 2.326 . S
In143 O149 2.266 . S
In143 O150 2.326 . S
In143 O151 2.266 . S
In143 O152 2.326 . S
In143 O154 2.294 . S
In143 O155 2.326 . S
O144 In143 2.294 . S
O144 C153 1.240 . S
O145 In143 2.326 . S
O145 C153 1.252 . S
C146 O149 1.252 . S
C146 O150 1.260 . S
C147 O154 1.240 . S
C147 O155 1.252 . S
C148 O151 1.252 . S
C148 O152 1.260 . S
O149 In143 2.266 . S
O149 C146 1.252 . S
O150 In143 2.326 . S
O150 C146 1.260 . S
O151 In143 2.266 . S
O151 C148 1.252 . S
O152 In143 2.326 . S
O152 C148 1.260 . S
C153 O144 1.240 . S
C153 O145 1.252 . S
O154 In143 2.294 . S
O154 C147 1.240 . S
O155 In143 2.326 . S
O155 C147 1.252 . S
In156 O157 2.294 . S
In156 O158 2.326 . S
In156 O162 2.266 . S
In156 O163 2.326 . S
In156 O164 2.266 . S
In156 O165 2.326 . S
In156 O167 2.294 . S
In156 O168 2.326 . S
O157 In156 2.294 . S
O157 C166 1.240 . S
O158 In156 2.326 . S
O158 C166 1.252 . S
C159 O162 1.252 . S
C159 O163 1.260 . S
C160 O167 1.240 . S
C160 O168 1.252 . S
C161 O164 1.252 . S
C161 O165 1.260 . S
O162 In156 2.266 . S
O162 C159 1.252 . S
O163 In156 2.326 . S
O163 C159 1.260 . S
O164 In156 2.266 . S
O164 C161 1.252 . S
O165 In156 2.326 . S
O165 C161 1.260 . S
C166 O157 1.240 . S
C166 O158 1.252 . S
O167 In156 2.294 . S
O167 C160 1.240 . S
O168 In156 2.326 . S
O168 C160 1.252 . S
In169 O170 2.294 . S
In169 O171 2.326 . S
In169 O175 2.266 . S
In169 O176 2.326 . S
In169 O177 2.266 . S
In169 O178 2.326 . S
In169 O180 2.294 . S
In169 O181 2.326 . S
O170 In169 2.294 . S
O170 C179 1.240 . S
O171 In169 2.326 . S
O171 C179 1.252 . S
C172 O175 1.252 . S
C172 O176 1.260 . S
C173 O180 1.240 . S
C173 O181 1.252 . S
C174 O177 1.252 . S
C174 O178 1.260 . S
O175 In169 2.266 . S
O175 C172 1.252 . S
O176 In169 2.326 . S
O176 C172 1.260 . S
O177 In169 2.266 . S
O177 C174 1.252 . S
O178 In169 2.326 . S
O178 C174 1.260 . S
C179 O170 1.240 . S
C179 O171 1.252 . S
O180 In169 2.294 . S
O180 C173 1.240 . S
O181 In169 2.326 . S
O181 C173 1.252 . S
In182 O183 2.294 . S
In182 O184 2.326 . S
In182 O188 2.266 . S
In182 O189 2.326 . S
In182 O190 2.266 . S
In182 O191 2.326 . S
In182 O193 2.294 . S
In182 O194 2.326 . S
O183 In182 2.294 . S
O183 C192 1.240 . S
O184 In182 2.326 . S
O184 C192 1.252 . S
C185 O188 1.252 . S
C185 O189 1.260 . S
C186 O193 1.240 . S
C186 O194 1.252 . S
C187 O190 1.252 . S
C187 O191 1.260 . S
O188 In182 2.266 . S
O188 C185 1.252 . S
O189 In182 2.326 . S
O189 C185 1.260 . S
O190 In182 2.266 . S
O190 C187 1.252 . S
O191 In182 2.326 . S
O191 C187 1.260 . S
C192 O183 1.240 . S
C192 O184 1.252 . S
O193 In182 2.294 . S
O193 C186 1.240 . S
O194 In182 2.326 . S
O194 C186 1.252 . S
In195 O196 2.294 . S
In195 O197 2.326 . S
In195 O201 2.266 . S
In195 O202 2.326 . S
In195 O203 2.266 . S
In195 O204 2.326 . S
In195 O206 2.294 . S
In195 O207 2.326 . S
O196 In195 2.294 . S
O196 C205 1.240 . S
O197 In195 2.326 . S
O197 C205 1.252 . S
C198 O201 1.252 . S
C198 O202 1.260 . S
C199 O206 1.240 . S
C199 O207 1.252 . S
C200 O203 1.252 . S
C200 O204 1.260 . S
O201 In195 2.266 . S
O201 C198 1.252 . S
O202 In195 2.326 . S
O202 C198 1.260 . S
O203 In195 2.266 . S
O203 C200 1.252 . S
O204 In195 2.326 . S
O204 C200 1.260 . S
C205 O196 1.240 . S
C205 O197 1.252 . S
O206 In195 2.294 . S
O206 C199 1.240 . S
O207 In195 2.326 . S
O207 C199 1.252 . S
In208 O209 2.294 . S
In208 O210 2.326 . S
In208 O214 2.266 . S
In208 O215 2.326 . S
In208 O216 2.266 . S
In208 O217 2.326 . S
In208 O219 2.294 . S
In208 O220 2.326 . S
O209 In208 2.294 . S
O209 C218 1.240 . S
O210 In208 2.326 . S
O210 C218 1.252 . S
C211 O214 1.252 . S
C211 O215 1.260 . S
C212 O219 1.240 . S
C212 O220 1.252 . S
C213 O216 1.252 . S
C213 O217 1.260 . S
O214 In208 2.266 . S
O214 C211 1.252 . S
O215 In208 2.326 . S
O215 C211 1.260 . S
O216 In208 2.266 . S
O216 C213 1.252 . S
O217 In208 2.326 . S
O217 C213 1.260 . S
C218 O209 1.240 . S
C218 O210 1.252 . S
O219 In208 2.294 . S
O219 C212 1.240 . S
O220 In208 2.326 . S
O220 C212 1.252 . S
In221 O222 2.294 . S
In221 O223 2.326 . S
In221 O227 2.266 . S
In221 O228 2.326 . S
In221 O229 2.266 . S
In221 O230 2.326 . S
In221 O232 2.294 . S
In221 O233 2.326 . S
O222 In221 2.294 . S
O222 C231 1.240 . S
O223 In221 2.326 . S
O223 C231 1.252 . S
C224 O227 1.252 . S
C224 O228 1.260 . S
C225 O232 1.240 . S
C225 O233 1.252 . S
C226 O229 1.252 . S
C226 O230 1.260 . S
O227 In221 2.266 . S
O227 C224 1.252 . S
O228 In221 2.326 . S
O228 C224 1.260 . S
O229 In221 2.266 . S
O229 C226 1.252 . S
O230 In221 2.326 . S
O230 C226 1.260 . S
C231 O222 1.240 . S
C231 O223 1.252 . S
O232 In221 2.294 . S
O232 C225 1.240 . S
O233 In221 2.326 . S
O233 C225 1.252 . S
H234 C240 0.930 . S
H235 C243 0.930 . S
H236 C244 0.930 . S
H237 C245 0.930 . S
H238 C248 0.930 . S
H239 C249 0.930 . S
C240 H234 0.930 . S
C240 C241 1.355 . S
C240 C242 1.415 . S
C241 C240 1.355 . S
C241 C243 1.419 . S
C242 C240 1.415 . S
C242 C247 1.425 . S
C242 C249 1.409 . S
C243 H235 0.930 . S
C243 C241 1.419 . S
C243 C244 1.362 . S
C244 H236 0.930 . S
C244 C243 1.362 . S
C244 C247 1.409 . S
C245 H237 0.930 . S
C245 C246 1.355 . S
C245 C247 1.415 . S
C246 C245 1.355 . S
C246 C248 1.419 . S
C247 C242 1.425 . S
C247 C244 1.409 . S
C247 C245 1.415 . S
C248 H238 0.930 . S
C248 C246 1.419 . S
C248 C249 1.362 . S
C249 H239 0.930 . S
C249 C242 1.409 . S
C249 C248 1.362 . S
H250 C256 0.930 . S
H251 C259 0.930 . S
H252 C260 0.930 . S
H253 C261 0.930 . S
H254 C264 0.930 . S
H255 C265 0.930 . S
C256 H250 0.930 . S
C256 C257 1.355 . S
C256 C258 1.415 . S
C257 C256 1.355 . S
C257 C259 1.419 . S
C258 C256 1.415 . S
C258 C263 1.425 . S
C258 C265 1.409 . S
C259 H251 0.930 . S
C259 C257 1.419 . S
C259 C260 1.362 . S
C260 H252 0.930 . S
C260 C259 1.362 . S
C260 C263 1.409 . S
C261 H253 0.930 . S
C261 C262 1.355 . S
C261 C263 1.415 . S
C262 C261 1.355 . S
C262 C264 1.419 . S
C263 C258 1.425 . S
C263 C260 1.409 . S
C263 C261 1.415 . S
C264 H254 0.930 . S
C264 C262 1.419 . S
C264 C265 1.362 . S
C265 H255 0.930 . S
C265 C258 1.409 . S
C265 C264 1.362 . S
H266 C272 0.930 . S
H267 C275 0.930 . S
H268 C276 0.930 . S
H269 C277 0.930 . S
H270 C280 0.930 . S
H271 C281 0.930 . S
C272 H266 0.930 . S
C272 C273 1.355 . S
C272 C274 1.415 . S
C273 C272 1.355 . S
C273 C275 1.419 . S
C274 C272 1.415 . S
C274 C279 1.425 . S
C274 C281 1.409 . S
C275 H267 0.930 . S
C275 C273 1.419 . S
C275 C276 1.362 . S
C276 H268 0.930 . S
C276 C275 1.362 . S
C276 C279 1.409 . S
C277 H269 0.930 . S
C277 C278 1.355 . S
C277 C279 1.415 . S
C278 C277 1.355 . S
C278 C280 1.419 . S
C279 C274 1.425 . S
C279 C276 1.409 . S
C279 C277 1.415 . S
C280 H270 0.930 . S
C280 C278 1.419 . S
C280 C281 1.362 . S
C281 H271 0.930 . S
C281 C274 1.409 . S
C281 C280 1.362 . S
H282 C288 0.930 . S
H283 C291 0.930 . S
H284 C292 0.930 . S
H285 C293 0.930 . S
H286 C296 0.930 . S
H287 C297 0.930 . S
C288 H282 0.930 . S
C288 C289 1.355 . S
C288 C290 1.415 . S
C289 C288 1.355 . S
C289 C291 1.419 . S
C290 C288 1.415 . S
C290 C295 1.425 . S
C290 C297 1.409 . S
C291 H283 0.930 . S
C291 C289 1.419 . S
C291 C292 1.362 . S
C292 H284 0.930 . S
C292 C291 1.362 . S
C292 C295 1.409 . S
C293 H285 0.930 . S
C293 C294 1.355 . S
C293 C295 1.415 . S
C294 C293 1.355 . S
C294 C296 1.419 . S
C295 C290 1.425 . S
C295 C292 1.409 . S
C295 C293 1.415 . S
C296 H286 0.930 . S
C296 C294 1.419 . S
C296 C297 1.362 . S
C297 H287 0.930 . S
C297 C290 1.409 . S
C297 C296 1.362 . S
H298 C304 0.930 . S
H299 C307 0.930 . S
H300 C308 0.930 . S
H301 C309 0.930 . S
H302 C312 0.930 . S
H303 C313 0.930 . S
C304 H298 0.930 . S
C304 C305 1.355 . S
C304 C306 1.415 . S
C305 C304 1.355 . S
C305 C307 1.419 . S
C306 C304 1.415 . S
C306 C311 1.425 . S
C306 C313 1.409 . S
C307 H299 0.930 . S
C307 C305 1.419 . S
C307 C308 1.362 . S
C308 H300 0.930 . S
C308 C307 1.362 . S
C308 C311 1.409 . S
C309 H301 0.930 . S
C309 C310 1.355 . S
C309 C311 1.415 . S
C310 C309 1.355 . S
C310 C312 1.419 . S
C311 C306 1.425 . S
C311 C308 1.409 . S
C311 C309 1.415 . S
C312 H302 0.930 . S
C312 C310 1.419 . S
C312 C313 1.362 . S
C313 H303 0.930 . S
C313 C306 1.409 . S
C313 C312 1.362 . S
H314 C320 0.930 . S
H315 C323 0.930 . S
H316 C324 0.930 . S
H317 C325 0.930 . S
H318 C328 0.930 . S
H319 C329 0.930 . S
C320 H314 0.930 . S
C320 C321 1.355 . S
C320 C322 1.415 . S
C321 C320 1.355 . S
C321 C323 1.419 . S
C322 C320 1.415 . S
C322 C327 1.425 . S
C322 C329 1.409 . S
C323 H315 0.930 . S
C323 C321 1.419 . S
C323 C324 1.362 . S
C324 H316 0.930 . S
C324 C323 1.362 . S
C324 C327 1.409 . S
C325 H317 0.930 . S
C325 C326 1.355 . S
C325 C327 1.415 . S
C326 C325 1.355 . S
C326 C328 1.419 . S
C327 C322 1.425 . S
C327 C324 1.409 . S
C327 C325 1.415 . S
C328 H318 0.930 . S
C328 C326 1.419 . S
C328 C329 1.362 . S
C329 H319 0.930 . S
C329 C322 1.409 . S
C329 C328 1.362 . S
H330 C336 0.930 . S
H331 C339 0.930 . S
H332 C340 0.930 1_556 S
H333 C341 0.930 . S
H334 C344 0.930 . S
H335 C345 0.930 1_554 S
C336 H330 0.930 . S
C336 C337 1.355 1_455 S
C336 C338 1.415 . S
C337 C336 1.355 1_655 S
C337 C339 1.419 . S
C338 C336 1.415 . S
C338 C343 1.425 1_454 S
C338 C345 1.409 1_554 S
C339 H331 0.930 . S
C339 C337 1.419 . S
C339 C340 1.362 . S
C340 H332 0.930 1_554 S
C340 C339 1.362 . S
C340 C343 1.409 1_554 S
C341 H333 0.930 . S
C341 C342 1.355 1_655 S
C341 C343 1.415 . S
C342 C341 1.355 1_455 S
C342 C344 1.419 . S
C343 C338 1.425 1_656 S
C343 C340 1.409 1_556 S
C343 C341 1.415 . S
C344 H334 0.930 . S
C344 C342 1.419 . S
C344 C345 1.362 . S
C345 H335 0.930 1_556 S
C345 C338 1.409 1_556 S
C345 C344 1.362 . S
H346 C352 0.930 . S
H347 C355 0.930 . S
H348 C356 0.930 . S
H349 C357 0.930 . S
H350 C360 0.930 . S
H351 C361 0.930 . S
C352 H346 0.930 . S
C352 C353 1.355 . S
C352 C354 1.415 . S
C353 C352 1.355 . S
C353 C355 1.419 . S
C354 C352 1.415 . S
C354 C359 1.425 1_554 S
C354 C361 1.409 1_554 S
C355 H347 0.930 . S
C355 C353 1.419 . S
C355 C356 1.362 . S
C356 H348 0.930 . S
C356 C355 1.362 . S
C356 C359 1.409 1_554 S
C357 H349 0.930 . S
C357 C358 1.355 . S
C357 C359 1.415 . S
C358 C357 1.355 . S
C358 C360 1.419 . S
C359 C354 1.425 1_556 S
C359 C356 1.409 1_556 S
C359 C357 1.415 . S
C360 H350 0.930 . S
C360 C358 1.419 . S
C360 C361 1.362 . S
C361 H351 0.930 . S
C361 C354 1.409 1_556 S
C361 C360 1.362 . S
H362 C368 0.930 . S
H363 C371 0.930 . S
H364 C372 0.930 . S
H365 C373 0.930 . S
H366 C376 0.930 . S
H367 C377 0.930 . S
C368 H362 0.930 . S
C368 C369 1.355 . S
C368 C370 1.414 1_554 S
C369 C368 1.355 . S
C369 C371 1.419 1_545 S
C370 C368 1.414 1_556 S
C370 C375 1.425 1_546 S
C370 C377 1.409 . S
C371 H363 0.930 . S
C371 C369 1.419 1_565 S
C371 C372 1.362 . S
C372 H364 0.930 . S
C372 C371 1.362 . S
C372 C375 1.410 . S
C373 H365 0.930 . S
C373 C374 1.355 . S
C373 C375 1.414 1_556 S
C374 C373 1.355 . S
C374 C376 1.419 1_565 S
C375 C370 1.425 1_564 S
C375 C372 1.410 . S
C375 C373 1.414 1_554 S
C376 H366 0.930 . S
C376 C374 1.419 1_545 S
C376 C377 1.362 . S
C377 H367 0.930 . S
C377 C370 1.409 . S
C377 C376 1.362 . S
H378 C384 0.930 . S
H379 C387 0.930 . S
H380 C388 0.930 . S
H381 C389 0.930 . S
H382 C392 0.930 . S
H383 C393 0.930 . S
C384 H378 0.930 . S
C384 C385 1.355 . S
C384 C386 1.415 . S
C385 C384 1.355 . S
C385 C387 1.419 . S
C386 C384 1.415 . S
C386 C391 1.425 . S
C386 C393 1.409 . S
C387 H379 0.930 . S
C387 C385 1.419 . S
C387 C388 1.362 . S
C388 H380 0.930 . S
C388 C387 1.362 . S
C388 C391 1.409 . S
C389 H381 0.930 . S
C389 C390 1.355 . S
C389 C391 1.415 . S
C390 C389 1.355 . S
C390 C392 1.419 . S
C391 C386 1.425 . S
C391 C388 1.409 . S
C391 C389 1.415 . S
C392 H382 0.930 . S
C392 C390 1.419 . S
C392 C393 1.362 . S
C393 H383 0.930 . S
C393 C386 1.409 . S
C393 C392 1.362 . S
H394 C400 0.930 . S
H395 C403 0.930 . S
H396 C404 0.930 . S
H397 C405 0.930 . S
H398 C408 0.930 . S
H399 C409 0.930 . S
C400 H394 0.930 . S
C400 C401 1.355 . S
C400 C402 1.415 . S
C401 C400 1.355 . S
C401 C403 1.419 . S
C402 C400 1.415 . S
C402 C407 1.425 . S
C402 C409 1.409 . S
C403 H395 0.930 . S
C403 C401 1.419 . S
C403 C404 1.362 . S
C404 H396 0.930 . S
C404 C403 1.362 . S
C404 C407 1.409 . S
C405 H397 0.930 . S
C405 C406 1.355 . S
C405 C407 1.415 . S
C406 C405 1.355 . S
C406 C408 1.419 . S
C407 C402 1.425 . S
C407 C404 1.409 . S
C407 C405 1.415 . S
C408 H398 0.930 . S
C408 C406 1.419 . S
C408 C409 1.362 . S
C409 H399 0.930 . S
C409 C402 1.409 . S
C409 C408 1.362 . S
H410 C416 0.930 . S
H411 C419 0.930 . S
H412 C420 0.930 . S
H413 C421 0.930 . S
H414 C424 0.930 . S
H415 C425 0.930 . S
C416 H410 0.930 . S
C416 C417 1.355 . S
C416 C418 1.415 . S
C417 C416 1.355 . S
C417 C419 1.419 . S
C418 C416 1.415 . S
C418 C423 1.425 . S
C418 C425 1.409 . S
C419 H411 0.930 . S
C419 C417 1.419 . S
C419 C420 1.362 . S
C420 H412 0.930 . S
C420 C419 1.362 . S
C420 C423 1.409 . S
C421 H413 0.930 . S
C421 C422 1.355 . S
C421 C423 1.415 . S
C422 C421 1.355 . S
C422 C424 1.419 . S
C423 C418 1.425 . S
C423 C420 1.409 . S
C423 C421 1.415 . S
C424 H414 0.930 . S
C424 C422 1.419 . S
C424 C425 1.362 . S
C425 H415 0.930 . S
C425 C418 1.409 . S
C425 C424 1.362 . S
H426 C432 0.930 . S
H427 C435 0.930 . S
H428 C436 0.930 . S
H429 C437 0.930 . S
H430 C440 0.930 . S
H431 C441 0.930 . S
C432 H426 0.930 . S
C432 C433 1.355 . S
C432 C434 1.415 . S
C433 C432 1.355 . S
C433 C435 1.419 . S
C434 C432 1.415 . S
C434 C439 1.425 . S
C434 C441 1.409 . S
C435 H427 0.930 . S
C435 C433 1.419 . S
C435 C436 1.362 . S
C436 H428 0.930 . S
C436 C435 1.362 . S
C436 C439 1.409 . S
C437 H429 0.930 . S
C437 C438 1.355 . S
C437 C439 1.415 . S
C438 C437 1.355 . S
C438 C440 1.419 . S
C439 C434 1.425 . S
C439 C436 1.409 . S
C439 C437 1.415 . S
C440 H430 0.930 . S
C440 C438 1.419 . S
C440 C441 1.362 . S
C441 H431 0.930 . S
C441 C434 1.409 . S
C441 C440 1.362 . S
H442 C448 0.930 . S
H443 C451 0.930 . S
H444 C452 0.930 . S
H445 C453 0.930 . S
H446 C456 0.930 . S
H447 C457 0.930 . S
C448 H442 0.930 . S
C448 C449 1.355 . S
C448 C450 1.415 . S
C449 C448 1.355 . S
C449 C451 1.419 . S
C450 C448 1.415 . S
C450 C455 1.425 . S
C450 C457 1.409 . S
C451 H443 0.930 . S
C451 C449 1.419 . S
C451 C452 1.362 . S
C452 H444 0.930 . S
C452 C451 1.362 . S
C452 C455 1.409 . S
C453 H445 0.930 . S
C453 C454 1.355 . S
C453 C455 1.415 . S
C454 C453 1.355 . S
C454 C456 1.419 . S
C455 C450 1.425 . S
C455 C452 1.409 . S
C455 C453 1.415 . S
C456 H446 0.930 . S
C456 C454 1.419 . S
C456 C457 1.362 . S
C457 H447 0.930 . S
C457 C450 1.409 . S
C457 C456 1.362 . S
H458 C464 0.930 . S
H459 C467 0.930 . S
H460 C468 0.930 . S
H461 C469 0.930 . S
H462 C472 0.930 . S
H463 C473 0.930 . S
C464 H458 0.930 . S
C464 C465 1.355 . S
C464 C466 1.415 . S
C465 C464 1.355 . S
C465 C467 1.419 . S
C466 C464 1.415 . S
C466 C471 1.425 . S
C466 C473 1.409 . S
C467 H459 0.930 . S
C467 C465 1.419 . S
C467 C468 1.362 . S
C468 H460 0.930 . S
C468 C467 1.362 . S
C468 C471 1.409 . S
C469 H461 0.930 . S
C469 C470 1.355 . S
C469 C471 1.415 . S
C470 C469 1.355 . S
C470 C472 1.419 . S
C471 C466 1.425 . S
C471 C468 1.409 . S
C471 C469 1.415 . S
C472 H462 0.930 . S
C472 C470 1.419 . S
C472 C473 1.362 . S
C473 H463 0.930 . S
C473 C466 1.409 . S
C473 C472 1.362 . S
H474 C480 0.930 . S
H475 C483 0.930 . S
H476 C484 0.930 . S
H477 C485 0.930 . S
H478 C488 0.930 . S
H479 C489 0.930 . S
C480 H474 0.930 . S
C480 C481 1.355 . S
C480 C482 1.415 . S
C481 C480 1.355 . S
C481 C483 1.419 . S
C482 C480 1.415 . S
C482 C487 1.426 1_655 S
C482 C489 1.409 1_655 S
C483 H475 0.930 . S
C483 C481 1.419 . S
C483 C484 1.362 . S
C484 H476 0.930 . S
C484 C483 1.362 . S
C484 C487 1.408 1_655 S
C485 H477 0.930 . S
C485 C486 1.355 . S
C485 C487 1.415 . S
C486 C485 1.355 . S
C486 C488 1.419 . S
C487 C482 1.426 1_455 S
C487 C484 1.408 1_455 S
C487 C485 1.415 . S
C488 H478 0.930 . S
C488 C486 1.419 . S
C488 C489 1.362 . S
C489 H479 0.930 . S
C489 C482 1.409 1_455 S
C489 C488 1.362 . S
H490 C496 0.930 . S
H491 C499 0.930 . S
H492 C500 0.930 . S
H493 C501 0.930 . S
H494 C504 0.930 . S
H495 C505 0.930 . S
C496 H490 0.930 . S
C496 C497 1.355 . S
C496 C498 1.415 . S
C497 C496 1.355 . S
C497 C499 1.419 . S
C498 C496 1.415 . S
C498 C503 1.425 . S
C498 C505 1.409 . S
C499 H491 0.930 . S
C499 C497 1.419 . S
C499 C500 1.362 . S
C500 H492 0.930 . S
C500 C499 1.362 . S
C500 C503 1.409 . S
C501 H493 0.930 . S
C501 C502 1.355 . S
C501 C503 1.415 . S
C502 C501 1.355 . S
C502 C504 1.419 . S
C503 C498 1.425 . S
C503 C500 1.409 . S
C503 C501 1.415 . S
C504 H494 0.930 . S
C504 C502 1.419 . S
C504 C505 1.362 . S
C505 H495 0.930 . S
C505 C498 1.409 . S
C505 C504 1.362 . S
H506 C512 0.930 . S
H507 C515 0.930 . S
H508 C516 0.930 . S
H509 C517 0.930 . S
H510 C520 0.930 . S
H511 C521 0.930 . S
C512 H506 0.930 . S
C512 C513 1.355 . S
C512 C514 1.415 . S
C513 C512 1.355 . S
C513 C515 1.419 1_565 S
C514 C512 1.415 . S
C514 C519 1.425 1_565 S
C514 C521 1.409 . S
C515 H507 0.930 . S
C515 C513 1.419 1_545 S
C515 C516 1.362 . S
C516 H508 0.930 . S
C516 C515 1.362 . S
C516 C519 1.409 . S
C517 H509 0.930 . S
C517 C518 1.355 . S
C517 C519 1.415 . S
C518 C517 1.355 . S
C518 C520 1.419 1_545 S
C519 C514 1.425 1_545 S
C519 C516 1.409 . S
C519 C517 1.415 . S
C520 H510 0.930 . S
C520 C518 1.419 1_565 S
C520 C521 1.362 . S
C521 H511 0.930 . S
C521 C514 1.409 . S
C521 C520 1.362 . S
H522 C528 0.930 1_556 S
H523 C531 0.930 . S
H524 C532 0.930 . S
H525 C533 0.930 1_554 S
H526 C536 0.930 . S
H527 C537 0.930 . S
C528 H522 0.930 1_554 S
C528 C529 1.355 . S
C528 C530 1.415 1_554 S
C529 C528 1.355 . S
C529 C531 1.419 . S
C530 C528 1.415 1_556 S
C530 C535 1.425 1_556 S
C530 C537 1.409 . S
C531 H523 0.930 . S
C531 C529 1.419 . S
C531 C532 1.362 . S
C532 H524 0.930 . S
C532 C531 1.362 . S
C532 C535 1.409 . S
C533 H525 0.930 1_556 S
C533 C534 1.355 . S
C533 C535 1.415 1_556 S
C534 C533 1.355 . S
C534 C536 1.419 . S
C535 C530 1.425 1_554 S
C535 C532 1.409 . S
C535 C533 1.415 1_554 S
C536 H526 0.930 . S
C536 C534 1.419 . S
C536 C537 1.362 . S
C537 H527 0.930 . S
C537 C530 1.409 . S
C537 C536 1.362 . S
H538 C544 0.930 . S
H539 C547 0.930 1_554 S
H540 C548 0.930 . S
H541 C549 0.930 . S
H542 C552 0.930 1_556 S
H543 C553 0.930 . S
C544 H538 0.930 . S
C544 C545 1.355 . S
C544 C546 1.429 . S
C545 C544 1.355 . S
C545 C547 1.419 . S
C546 C544 1.429 . S
C546 C551 1.432 1_546 S
C546 C553 1.389 1_545 S
C547 H539 0.930 1_556 S
C547 C545 1.419 . S
C547 C548 1.362 1_556 S
C548 H540 0.930 . S
C548 C547 1.362 1_554 S
C548 C551 1.409 1_545 S
C549 H541 0.930 . S
C549 C550 1.355 . S
C549 C551 1.415 . S
C550 C549 1.355 . S
C550 C552 1.419 . S
C551 C546 1.432 1_564 S
C551 C548 1.409 1_565 S
C551 C549 1.415 . S
C552 H542 0.930 1_554 S
C552 C550 1.419 . S
C552 C553 1.362 1_554 S
C553 H543 0.930 . S
C553 C546 1.389 1_565 S
C553 C552 1.362 1_556 S
H554 C560 0.930 . S
H555 C563 0.930 . S
H556 C564 0.930 1_554 S
H557 C565 0.930 . S
H558 C568 0.930 . S
H559 C569 0.930 1_556 S
C560 H554 0.930 . S
C560 C561 1.355 . S
C560 C562 1.415 . S
C561 C560 1.355 . S
C561 C563 1.419 . S
C562 C560 1.415 . S
C562 C567 1.425 1_656 S
C562 C569 1.409 1_656 S
C563 H555 0.930 . S
C563 C561 1.419 . S
C563 C564 1.362 . S
C564 H556 0.930 1_556 S
C564 C563 1.362 . S
C564 C567 1.409 1_656 S
C565 H557 0.930 . S
C565 C566 1.355 . S
C565 C567 1.415 . S
C566 C565 1.355 . S
C566 C568 1.419 . S
C567 C562 1.425 1_454 S
C567 C564 1.409 1_454 S
C567 C565 1.415 . S
C568 H558 0.930 . S
C568 C566 1.419 . S
C568 C569 1.362 . S
C569 H559 0.930 1_554 S
C569 C562 1.409 1_454 S
C569 C568 1.362 . S
H570 C576 0.930 . S
H571 C579 0.930 . S
H572 C580 0.930 . S
H573 C581 0.930 . S
H574 C584 0.930 . S
H575 C585 0.930 . S
C576 H570 0.930 . S
C576 C577 1.355 . S
C576 C578 1.415 . S
C577 C576 1.355 . S
C577 C579 1.419 1_556 S
C578 C576 1.415 . S
C578 C583 1.425 1_556 S
C578 C585 1.409 . S
C579 H571 0.930 . S
C579 C577 1.419 1_554 S
C579 C580 1.362 . S
C580 H572 0.930 . S
C580 C579 1.362 . S
C580 C583 1.409 . S
C581 H573 0.930 . S
C581 C582 1.355 . S
C581 C583 1.415 . S
C582 C581 1.355 . S
C582 C584 1.419 1_554 S
C583 C578 1.425 1_554 S
C583 C580 1.409 . S
C583 C581 1.415 . S
C584 H574 0.930 . S
C584 C582 1.419 1_556 S
C584 C585 1.362 . S
C585 H575 0.930 . S
C585 C578 1.409 . S
C585 C584 1.362 . S
H586 C592 0.930 . S
H587 C595 0.930 . S
H588 C596 0.930 . S
H589 C597 0.930 . S
H590 C600 0.930 . S
H591 C601 0.930 . S
C592 H586 0.930 . S
C592 C593 1.355 . S
C592 C594 1.415 . S
C593 C592 1.355 . S
C593 C595 1.419 1_554 S
C594 C592 1.415 . S
C594 C599 1.425 1_564 S
C594 C601 1.409 1_565 S
C595 H587 0.930 . S
C595 C593 1.419 1_556 S
C595 C596 1.362 . S
C596 H588 0.930 . S
C596 C595 1.362 . S
C596 C599 1.409 1_565 S
C597 H589 0.930 . S
C597 C598 1.355 . S
C597 C599 1.415 . S
C598 C597 1.355 . S
C598 C600 1.419 1_556 S
C599 C594 1.425 1_546 S
C599 C596 1.409 1_545 S
C599 C597 1.415 . S
C600 H590 0.930 . S
C600 C598 1.419 1_554 S
C600 C601 1.362 . S
C601 H591 0.930 . S
C601 C594 1.409 1_545 S
C601 C600 1.362 . S
H602 C608 0.930 . S
H603 C611 0.930 . S
H604 C612 0.935 . S
H605 C613 0.930 . S
H606 C616 0.930 . S
H607 C617 0.930 1_655 S
C608 H602 0.930 . S
C608 C609 1.355 1_554 S
C608 C610 1.415 . S
C609 C608 1.355 1_556 S
C609 C611 1.419 . S
C610 C608 1.415 . S
C610 C615 1.425 1_654 S
C610 C617 1.409 1_655 S
C611 H603 0.930 . S
C611 C609 1.419 . S
C611 C612 1.362 . S
C612 H604 0.935 . S
C612 C611 1.362 . S
C612 C615 1.409 1_655 S
C613 H605 0.930 . S
C613 C614 1.355 1_556 S
C613 C615 1.415 . S
C614 C613 1.355 1_554 S
C614 C616 1.419 . S
C615 C610 1.425 1_456 S
C615 C612 1.409 1_455 S
C615 C613 1.415 . S
C616 H606 0.930 . S
C616 C614 1.419 . S
C616 C617 1.362 . S
C617 H607 0.930 1_455 S
C617 C610 1.409 1_455 S
C617 C616 1.362 . S
H618 C624 0.930 . S
H619 C627 0.930 . S
H620 C628 0.930 . S
H621 C629 0.930 . S
H622 C632 0.930 . S
H623 C633 0.930 . S
C624 H618 0.930 . S
C624 C625 1.355 . S
C624 C626 1.415 . S
C625 C624 1.355 . S
C625 C627 1.419 . S
C626 C624 1.415 . S
C626 C631 1.425 . S
C626 C633 1.409 . S
C627 H619 0.930 . S
C627 C625 1.419 . S
C627 C628 1.362 . S
C628 H620 0.930 . S
C628 C627 1.362 . S
C628 C631 1.409 . S
C629 H621 0.930 . S
C629 C630 1.355 . S
C629 C631 1.415 . S
C630 C629 1.355 . S
C630 C632 1.419 . S
C631 C626 1.425 . S
C631 C628 1.409 . S
C631 C629 1.415 . S
C632 H622 0.930 . S
C632 C630 1.419 . S
C632 C633 1.362 . S
C633 H623 0.930 . S
C633 C626 1.409 . S
C633 C632 1.362 . S
H634 C640 0.930 . S
H635 C643 0.930 . S
H636 C644 0.930 . S
H637 C645 0.930 . S
H638 C648 0.930 . S
H639 C649 0.930 . S
C640 H634 0.930 . S
C640 C641 1.355 . S
C640 C642 1.415 . S
C641 C640 1.355 . S
C641 C643 1.419 . S
C642 C640 1.415 . S
C642 C647 1.425 . S
C642 C649 1.409 . S
C643 H635 0.930 . S
C643 C641 1.419 . S
C643 C644 1.362 . S
C644 H636 0.930 . S
C644 C643 1.362 . S
C644 C647 1.409 . S
C645 H637 0.930 . S
C645 C646 1.355 . S
C645 C647 1.415 . S
C646 C645 1.355 . S
C646 C648 1.419 . S
C647 C642 1.425 . S
C647 C644 1.409 . S
C647 C645 1.415 . S
C648 H638 0.930 . S
C648 C646 1.419 . S
C648 C649 1.362 . S
C649 H639 0.930 . S
C649 C642 1.409 . S
C649 C648 1.362 . S
H650 C656 0.930 . S
H651 C659 0.930 . S
H652 C660 0.930 . S
H653 C661 0.930 . S
H654 C664 0.930 . S
H655 C665 0.930 . S
C656 H650 0.930 . S
C656 C657 1.355 . S
C656 C658 1.415 . S
C657 C656 1.355 . S
C657 C659 1.419 . S
C658 C656 1.415 . S
C658 C663 1.425 . S
C658 C665 1.409 . S
C659 H651 0.930 . S
C659 C657 1.419 . S
C659 C660 1.362 . S
C660 H652 0.930 . S
C660 C659 1.362 . S
C660 C663 1.409 . S
C661 H653 0.930 . S
C661 C662 1.355 . S
C661 C663 1.415 . S
C662 C661 1.355 . S
C662 C664 1.419 . S
C663 C658 1.425 . S
C663 C660 1.409 . S
C663 C661 1.415 . S
C664 H654 0.930 . S
C664 C662 1.419 . S
C664 C665 1.362 . S
C665 H655 0.930 . S
C665 C658 1.409 . S
C665 C664 1.362 . S
H666 C672 0.930 . S
H667 C675 0.930 . S
H668 C676 0.930 . S
H669 C677 0.930 . S
H670 C680 0.930 . S
H671 C681 0.930 . S
C672 H666 0.930 . S
C672 C673 1.355 . S
C672 C674 1.415 . S
C673 C672 1.355 . S
C673 C675 1.419 . S
C674 C672 1.415 . S
C674 C679 1.425 . S
C674 C681 1.409 . S
C675 H667 0.930 . S
C675 C673 1.419 . S
C675 C676 1.362 . S
C676 H668 0.930 . S
C676 C675 1.362 . S
C676 C679 1.409 . S
C677 H669 0.930 . S
C677 C678 1.355 . S
C677 C679 1.415 . S
C678 C677 1.355 . S
C678 C680 1.419 . S
C679 C674 1.425 . S
C679 C676 1.409 . S
C679 C677 1.415 . S
C680 H670 0.930 . S
C680 C678 1.419 . S
C680 C681 1.362 . S
C681 H671 0.930 . S
C681 C674 1.409 . S
C681 C680 1.362 . S
H682 C688 0.930 . S
H683 C691 0.930 . S
H684 C692 0.930 . S
H685 C693 0.930 . S
H686 C696 0.930 . S
H687 C697 0.930 . S
C688 H682 0.930 . S
C688 C689 1.355 . S
C688 C690 1.415 . S
C689 C688 1.355 . S
C689 C691 1.419 . S
C690 C688 1.415 . S
C690 C695 1.425 . S
C690 C697 1.409 . S
C691 H683 0.930 . S
C691 C689 1.419 . S
C691 C692 1.362 . S
C692 H684 0.930 . S
C692 C691 1.362 . S
C692 C695 1.409 . S
C693 H685 0.930 . S
C693 C694 1.355 . S
C693 C695 1.415 . S
C694 C693 1.355 . S
C694 C696 1.419 . S
C695 C690 1.425 . S
C695 C692 1.409 . S
C695 C693 1.415 . S
C696 H686 0.930 . S
C696 C694 1.419 . S
C696 C697 1.362 . S
C697 H687 0.930 . S
C697 C690 1.409 . S
C697 C696 1.362 . S
H698 C704 0.930 . S
H699 C707 0.930 . S
H700 C708 0.930 . S
H701 C709 0.930 . S
H702 C712 0.930 . S
H703 C713 0.930 . S
C704 H698 0.930 . S
C704 C705 1.355 . S
C704 C706 1.415 . S
C705 C704 1.355 . S
C705 C707 1.419 . S
C706 C704 1.415 . S
C706 C711 1.425 . S
C706 C713 1.409 . S
C707 H699 0.930 . S
C707 C705 1.419 . S
C707 C708 1.362 . S
C708 H700 0.930 . S
C708 C707 1.362 . S
C708 C711 1.409 . S
C709 H701 0.930 . S
C709 C710 1.355 . S
C709 C711 1.415 . S
C710 C709 1.355 . S
C710 C712 1.419 . S
C711 C706 1.425 . S
C711 C708 1.409 . S
C711 C709 1.415 . S
C712 H702 0.930 . S
C712 C710 1.419 . S
C712 C713 1.362 . S
C713 H703 0.930 . S
C713 C706 1.409 . S
C713 C712 1.362 . S
H714 C720 0.930 . S
H715 C723 0.930 . S
H716 C724 0.930 . S
H717 C725 0.930 . S
H718 C728 0.930 . S
H719 C729 0.930 . S
C720 H714 0.930 . S
C720 C721 1.355 . S
C720 C722 1.415 . S
C721 C720 1.355 . S
C721 C723 1.419 . S
C722 C720 1.415 . S
C722 C727 1.425 . S
C722 C729 1.409 . S
C723 H715 0.930 . S
C723 C721 1.419 . S
C723 C724 1.362 . S
C724 H716 0.930 . S
C724 C723 1.362 . S
C724 C727 1.409 . S
C725 H717 0.930 . S
C725 C726 1.355 . S
C725 C727 1.415 . S
C726 C725 1.355 . S
C726 C728 1.419 . S
C727 C722 1.425 . S
C727 C724 1.409 . S
C727 C725 1.415 . S
C728 H718 0.930 . S
C728 C726 1.419 . S
C728 C729 1.362 . S
C729 H719 0.930 . S
C729 C722 1.409 . S
C729 C728 1.362 . S
H730 C736 0.930 . S
H731 C739 0.930 . S
H732 C740 0.930 . S
H733 C741 0.930 . S
H734 C744 0.930 . S
H735 C745 0.930 . S
C736 H730 0.930 . S
C736 C737 1.355 . S
C736 C738 1.415 . S
C737 C736 1.355 . S
C737 C739 1.419 . S
C738 C736 1.415 . S
C738 C743 1.425 . S
C738 C745 1.409 . S
C739 H731 0.930 . S
C739 C737 1.419 . S
C739 C740 1.362 . S
C740 H732 0.930 . S
C740 C739 1.362 . S
C740 C743 1.409 . S
C741 H733 0.930 . S
C741 C742 1.355 . S
C741 C743 1.415 . S
C742 C741 1.355 . S
C742 C744 1.419 . S
C743 C738 1.425 . S
C743 C740 1.409 . S
C743 C741 1.415 . S
C744 H734 0.930 . S
C744 C742 1.419 . S
C744 C745 1.362 . S
C745 H735 0.930 . S
C745 C738 1.409 . S
C745 C744 1.362 . S
H746 C752 0.930 . S
H747 C755 0.930 . S
H748 C756 0.930 . S
H749 C757 0.930 . S
H750 C760 0.930 . S
H751 C761 0.930 . S
C752 H746 0.930 . S
C752 C753 1.355 . S
C752 C754 1.415 . S
C753 C752 1.355 . S
C753 C755 1.419 . S
C754 C752 1.415 . S
C754 C759 1.425 . S
C754 C761 1.409 . S
C755 H747 0.930 . S
C755 C753 1.419 . S
C755 C756 1.362 . S
C756 H748 0.930 . S
C756 C755 1.362 . S
C756 C759 1.409 . S
C757 H749 0.930 . S
C757 C758 1.355 . S
C757 C759 1.415 . S
C758 C757 1.355 . S
C758 C760 1.419 . S
C759 C754 1.425 . S
C759 C756 1.409 . S
C759 C757 1.415 . S
C760 H750 0.930 . S
C760 C758 1.419 . S
C760 C761 1.362 . S
C761 H751 0.930 . S
C761 C754 1.409 . S
C761 C760 1.362 . S
H762 C768 0.930 . S
H763 C771 0.930 . S
H764 C772 0.930 . S
H765 C773 0.930 . S
H766 C776 0.930 . S
H767 C777 0.930 . S
C768 H762 0.930 . S
C768 C769 1.355 . S
C768 C770 1.415 . S
C769 C768 1.355 . S
C769 C771 1.419 . S
C770 C768 1.415 . S
C770 C775 1.425 . S
C770 C777 1.409 . S
C771 H763 0.930 . S
C771 C769 1.419 . S
C771 C772 1.362 . S
C772 H764 0.930 . S
C772 C771 1.362 . S
C772 C775 1.409 . S
C773 H765 0.930 . S
C773 C774 1.355 . S
C773 C775 1.415 . S
C774 C773 1.355 . S
C774 C776 1.419 . S
C775 C770 1.425 . S
C775 C772 1.409 . S
C775 C773 1.415 . S
C776 H766 0.930 . S
C776 C774 1.419 . S
C776 C777 1.362 . S
C777 H767 0.930 . S
C777 C770 1.409 . S
C777 C776 1.362 . S
H778 C784 0.930 . S
H779 C787 0.930 . S
H780 C788 0.930 . S
H781 C789 0.930 . S
H782 C792 0.930 . S
H783 C793 0.930 . S
C784 H778 0.930 . S
C784 C785 1.355 . S
C784 C786 1.415 . S
C785 C784 1.355 . S
C785 C787 1.419 . S
C786 C784 1.415 . S
C786 C791 1.425 . S
C786 C793 1.409 . S
C787 H779 0.930 . S
C787 C785 1.419 . S
C787 C788 1.362 . S
C788 H780 0.930 . S
C788 C787 1.362 . S
C788 C791 1.409 . S
C789 H781 0.930 . S
C789 C790 1.355 . S
C789 C791 1.415 . S
C790 C789 1.355 . S
C790 C792 1.419 . S
C791 C786 1.425 . S
C791 C788 1.409 . S
C791 C789 1.415 . S
C792 H782 0.930 . S
C792 C790 1.419 . S
C792 C793 1.362 . S
C793 H783 0.930 . S
C793 C786 1.409 . S
C793 C792 1.362 . S
H794 C800 0.930 . S
H795 C803 0.930 . S
H796 C804 0.930 . S
H797 C805 0.930 . S
H798 C808 0.930 . S
H799 C809 0.930 . S
C800 H794 0.930 . S
C800 C801 1.355 . S
C800 C802 1.415 . S
C801 C800 1.355 . S
C801 C803 1.419 . S
C802 C800 1.415 . S
C802 C807 1.425 . S
C802 C809 1.409 . S
C803 H795 0.930 . S
C803 C801 1.419 . S
C803 C804 1.362 . S
C804 H796 0.930 . S
C804 C803 1.362 . S
C804 C807 1.409 . S
C805 H797 0.930 . S
C805 C806 1.355 . S
C805 C807 1.415 . S
C806 C805 1.355 . S
C806 C808 1.419 . S
C807 C802 1.425 . S
C807 C804 1.409 . S
C807 C805 1.415 . S
C808 H798 0.930 . S
C808 C806 1.419 . S
C808 C809 1.362 . S
C809 H799 0.930 . S
C809 C802 1.409 . S
C809 C808 1.362 . S
C241 C231 1.839 . S
C246 C10 1.837 . S
C257 C205 1.843 . S
C262 C17 1.843 . S
C273 C218 1.841 . S
C278 C30 1.843 . S
C289 C101 1.840 . S
C294 C49 1.837 . S
C305 C114 1.843 . S
C310 C62 1.841 . S
C321 C69 1.843 . S
C326 C88 1.839 . S
C337 C127 1.843 . S
C342 C173 1.840 . S
C353 C134 1.838 . S
C358 C186 1.837 . S
C369 C153 1.837 . S
C374 C166 1.839 . S
C385 C3 0.458 . S
C390 C224 0.442 . S
C401 C198 0.446 . S
C406 C18 0.468 . S
C417 C31 0.554 . S
C422 C211 0.543 . S
C433 C94 0.554 . S
C438 C42 0.543 . S
C449 C55 0.552 . S
C454 C107 0.552 . S
C465 C70 0.485 . S
C470 C81 0.456 . S
C481 C120 0.466 . S
C486 C174 0.498 . S
C497 C187 0.537 . S
C502 C135 0.553 . S
C513 C159 0.539 . S
C518 C146 0.553 . S
C529 C4 1.834 . S
C534 C43 1.847 . S
C545 C56 1.838 . S
C550 C23 1.825 . S
C561 C75 1.847 . S
C566 C36 1.834 . S
C577 C68 1.704 . S
C582 C16 1.698 . S
C593 C29 1.699 . S
C598 C44 1.711 . S
C609 C57 1.714 . S
C614 C5 1.703 . S
C625 C82 1.815 . S
C630 C121 1.819 . S
C641 C140 1.826 . S
C646 C95 1.840 . S
C657 C147 1.849 . S
C662 C108 1.857 . S
C673 C148 1.698 . S
C678 C96 1.707 . S
C689 C109 1.698 . S
C694 C122 1.705 . S
C705 C133 1.709 . S
C710 C83 1.698 . S
C721 C199 1.816 . S
C726 C160 1.825 . S
C737 C212 1.816 . S
C742 C179 1.815 . S
C753 C192 1.837 . S
C758 C225 1.824 . S
C769 C226 1.699 . S
C774 C172 1.711 . S
C785 C185 1.714 . S
C790 C200 1.707 . S
C801 C213 1.700 . S
C806 C161 1.713 . S
