# Generated by pormake.
# Topology umz, (4)-cn, num edge types: 1
# Building blocks:
#     Node 0, Type 0, BuildingBlock: NAHDIM_clean_sbu_0, # of connection points: 4
#     Node 1, Type 0, BuildingBlock: NAHDIM_clean_sbu_0, # of connection points: 4
#     Node 2, Type 0, BuildingBlock: NAHDIM_clean_sbu_0, # of connection points: 4
#     Node 3, Type 0, BuildingBlock: NAHDIM_clean_sbu_0, # of connection points: 4
#     Node 4, Type 0, BuildingBlock: NAHDIM_clean_sbu_0, # of connection points: 4
#     Node 5, Type 0, BuildingBlock: NAHDIM_clean_sbu_0, # of connection points: 4
#     Node 6, Type 0, BuildingBlock: NAHDIM_clean_sbu_0, # of connection points: 4
#     Node 7, Type 0, BuildingBlock: NAHDIM_clean_sbu_0, # of connection points: 4
#     Node 8, Type 0, BuildingBlock: NAHDIM_clean_sbu_0, # of connection points: 4
#     Node 9, Type 0, BuildingBlock: NAHDIM_clean_sbu_0, # of connection points: 4
#     Node 10, Type 0, BuildingBlock: NAHDIM_clean_sbu_0, # of connection points: 4
#     Node 11, Type 0, BuildingBlock: NAHDIM_clean_sbu_0, # of connection points: 4
#     Node 12, Type 0, BuildingBlock: NAHDIM_clean_sbu_0, # of connection points: 4
#     Node 13, Type 0, BuildingBlock: NAHDIM_clean_sbu_0, # of connection points: 4
#     Node 14, Type 0, BuildingBlock: NAHDIM_clean_sbu_0, # of connection points: 4
#     Node 15, Type 0, BuildingBlock: NAHDIM_clean_sbu_0, # of connection points: 4
#     Edge 16, Type (0, 0), BuildingBlock: CIFDUS_clean_linker_0, # of connection points: 2
#     Edge 17, Type (0, 0), BuildingBlock: CIFDUS_clean_linker_0, # of connection points: 2
#     Edge 18, Type (0, 0), BuildingBlock: CIFDUS_clean_linker_0, # of connection points: 2
#     Edge 19, Type (0, 0), BuildingBlock: CIFDUS_clean_linker_0, # of connection points: 2
#     Edge 20, Type (0, 0), BuildingBlock: CIFDUS_clean_linker_0, # of connection points: 2
#     Edge 21, Type (0, 0), BuildingBlock: CIFDUS_clean_linker_0, # of connection points: 2
#     Edge 22, Type (0, 0), BuildingBlock: CIFDUS_clean_linker_0, # of connection points: 2
#     Edge 23, Type (0, 0), BuildingBlock: CIFDUS_clean_linker_0, # of connection points: 2
#     Edge 24, Type (0, 0), BuildingBlock: CIFDUS_clean_linker_0, # of connection points: 2
#     Edge 25, Type (0, 0), BuildingBlock: CIFDUS_clean_linker_0, # of connection points: 2
#     Edge 26, Type (0, 0), BuildingBlock: CIFDUS_clean_linker_0, # of connection points: 2
#     Edge 27, Type (0, 0), BuildingBlock: CIFDUS_clean_linker_0, # of connection points: 2
#     Edge 28, Type (0, 0), BuildingBlock: CIFDUS_clean_linker_0, # of connection points: 2
#     Edge 29, Type (0, 0), BuildingBlock: CIFDUS_clean_linker_0, # of connection points: 2
#     Edge 30, Type (0, 0), BuildingBlock: CIFDUS_clean_linker_0, # of connection points: 2
#     Edge 31, Type (0, 0), BuildingBlock: CIFDUS_clean_linker_0, # of connection points: 2
#     Edge 32, Type (0, 0), BuildingBlock: CIFDUS_clean_linker_0, # of connection points: 2
#     Edge 33, Type (0, 0), BuildingBlock: CIFDUS_clean_linker_0, # of connection points: 2
#     Edge 34, Type (0, 0), BuildingBlock: CIFDUS_clean_linker_0, # of connection points: 2
#     Edge 35, Type (0, 0), BuildingBlock: CIFDUS_clean_linker_0, # of connection points: 2
#     Edge 36, Type (0, 0), BuildingBlock: CIFDUS_clean_linker_0, # of connection points: 2
#     Edge 37, Type (0, 0), BuildingBlock: CIFDUS_clean_linker_0, # of connection points: 2
#     Edge 38, Type (0, 0), BuildingBlock: CIFDUS_clean_linker_0, # of connection points: 2
#     Edge 39, Type (0, 0), BuildingBlock: CIFDUS_clean_linker_0, # of connection points: 2
#     Edge 40, Type (0, 0), BuildingBlock: CIFDUS_clean_linker_0, # of connection points: 2
#     Edge 41, Type (0, 0), BuildingBlock: CIFDUS_clean_linker_0, # of connection points: 2
#     Edge 42, Type (0, 0), BuildingBlock: CIFDUS_clean_linker_0, # of connection points: 2
#     Edge 43, Type (0, 0), BuildingBlock: CIFDUS_clean_linker_0, # of connection points: 2
#     Edge 44, Type (0, 0), BuildingBlock: CIFDUS_clean_linker_0, # of connection points: 2
#     Edge 45, Type (0, 0), BuildingBlock: CIFDUS_clean_linker_0, # of connection points: 2
#     Edge 46, Type (0, 0), BuildingBlock: CIFDUS_clean_linker_0, # of connection points: 2
#     Edge 47, Type (0, 0), BuildingBlock: CIFDUS_clean_linker_0, # of connection points: 2
# Relax obj value: 0.219
# Max RMSD: 0.162
# Mean RMSD: 0.160
data_MOF--net-umz--node1-NAHDIM_clean_sbu_0--edge1-CIFDUS_clean_linker_0
_symmetry_space_group_name_H-M    P1
_symmetry_Int_Tables_number       1
_symmetry_cell_setting            triclinic
loop_
_symmetry_equiv_pos_as_xyz
'x, y, z'
_cell_length_a     52.932244
_cell_length_b     52.974105
_cell_length_c     19.10012
_cell_angle_alpha  90.073727
_cell_angle_beta   89.960206
_cell_angle_gamma 89.988229
loop_
_atom_site_label
_atom_site_type_symbol
_atom_site_fract_x
_atom_site_fract_y
_atom_site_fract_z
_atom_type_partial_charge
C0 C 0.01633 0.68659 0.10829 0.0
O1 O 0.0111 0.66603 0.07256 0.0
O2 O 0.00355 0.62976 0.22602 0.0
Zn3 Zn 0.03468 0.64898 0.19724 0.0
O4 O 0.05143 0.63331 0.1133 0.0
C5 C 0.05369 0.63898 0.33544 0.0
O6 O 0.02974 0.63445 0.34822 0.0
O7 O 0.02602 0.68444 0.16892 0.0
C8 C 0.06968 0.61777 0.11652 0.0
O9 O 0.07735 0.60961 0.17785 0.0
C10 C 0.99359 0.61188 0.19133 0.0
O11 O 0.0029 0.60592 0.12971 0.0
O12 O 0.06003 0.6475 0.27581 0.0
C13 C 0.81595 0.00351 0.58563 0.0
O14 O 0.83715 0.00053 0.55074 0.0
O15 O 0.87207 0.98443 0.68381 0.0
Zn16 Zn 0.85239 0.01698 0.68257 0.0
O17 O 0.86762 0.04097 0.61291 0.0
C18 C 0.85363 0.02177 0.83506 0.0
O19 O 0.84749 -0.00226 0.83535 0.0
O20 O 0.81702 0.01028 0.64951 0.0
C21 C 0.88679 0.05474 0.62495 0.0
O22 O 0.89833 0.05312 0.68563 0.0
C23 C 0.8923 0.98287 0.7193 0.0
O24 O 0.90041 0.00284 0.75336 0.0
O25 O 0.85466 0.03349 0.77711 0.0
C26 C 0.48377 0.82113 0.14671 0.0
O27 O 0.50174 0.83093 0.18558 0.0
O28 O 0.4874 0.88734 0.19456 0.0
Zn29 Zn 0.45585 0.86846 0.16898 0.0
O30 O 0.43897 0.88411 0.08596 0.0
C31 C 0.44196 0.87333 0.31221 0.0
O32 O 0.46637 0.86992 0.32025 0.0
O33 O 0.4632 0.83308 0.1384 0.0
C34 C 0.42172 0.90077 0.08805 0.0
O35 O 0.41494 0.91045 0.14857 0.0
C36 C 0.50622 0.89235 0.15583 0.0
O37 O 0.50628 0.88478 0.0903 0.0
O38 O 0.43245 0.87106 0.25144 0.0
C39 C 0.68791 0.49726 0.57119 0.0
O40 O 0.66733 0.50392 0.53755 0.0
O41 O 0.63787 0.52258 0.6942 0.0
Zn42 Zn 0.65025 0.48784 0.66899 0.0
O43 O 0.63066 0.47108 0.59109 0.0
C44 C 0.62502 0.47024 0.7875 0.0
O45 O 0.61143 0.4899 0.76947 0.0
O46 O 0.68606 0.4898 0.63432 0.0
C47 C 0.60786 0.4636 0.59222 0.0
O48 O 0.59358 0.46876 0.64659 0.0
C49 C 0.62373 0.53696 0.65841 0.0
O50 O 0.61736 0.5303 0.59454 0.0
O51 O 0.64528 0.46551 0.754 0.0
C52 C 0.0212 0.8085 0.86645 0.0
O53 O 0.02266 0.8292 0.90424 0.0
O54 O 0.00955 0.86922 0.79576 0.0
Zn55 Zn 0.03723 0.84453 0.7729 0.0
O56 O 0.06709 0.85294 0.83362 0.0
C57 C 0.04337 0.86964 0.64256 0.0
O58 O 0.03187 0.88718 0.67923 0.0
O59 O 0.02609 0.80978 0.80132 0.0
C60 C 0.07888 0.87374 0.8289 0.0
O61 O 0.07198 0.89015 0.78114 0.0
C62 C 0.98818 0.86824 0.76569 0.0
O63 O 0.98356 0.84976 0.72159 0.0
O64 O 0.04743 0.84824 0.67076 0.0
C65 C 0.67492 0.00619 0.44014 0.0
O66 O 0.65355 0.00628 0.47516 0.0
O67 O 0.61857 0.99061 0.31939 0.0
Zn68 Zn 0.64065 0.02085 0.33609 0.0
O69 O 0.62483 0.04483 0.40483 0.0
C70 C 0.64218 0.02679 0.18696 0.0
O71 O 0.64471 0.00212 0.18836 0.0
O72 O 0.67453 0.01111 0.37496 0.0
C73 C 0.60307 0.05457 0.39772 0.0
O74 O 0.58916 0.04838 0.34339 0.0
C75 C 0.60162 0.9824 0.3605 0.0
O76 O 0.59867 0.99303 0.42215 0.0
O77 O 0.64246 0.03899 0.24431 0.0
C78 C 0.49034 0.70474 0.88244 0.0
O79 O 0.50502 0.68697 0.90782 0.0
O80 O 0.51145 0.65212 0.7681 0.0
Zn81 Zn 0.47738 0.66302 0.80342 0.0
O82 O 0.46703 0.64443 0.89076 0.0
C83 C 0.45357 0.6289 0.71989 0.0
O84 O 0.46815 0.61546 0.76121 0.0
O85 O 0.47655 0.69964 0.82977 0.0
C86 C 0.44351 0.64238 0.90323 0.0
O87 O 0.42719 0.65159 0.85823 0.0
C88 C 0.52685 0.6385 0.80219 0.0
O89 O 0.52194 0.63307 0.8679 0.0
O90 O 0.45333 0.65278 0.72713 0.0
C91 C 0.82817 0.48259 0.42468 0.0
O92 O 0.84952 0.48317 0.45959 0.0
O93 O 0.88362 0.49157 0.28685 0.0
Zn94 Zn 0.862 0.46332 0.32415 0.0
O95 O 0.87883 0.44585 0.4044 0.0
C96 C 0.86307 0.44301 0.18515 0.0
O97 O 0.86497 0.46698 0.16844 0.0
O98 O 0.8284 0.47553 0.36091 0.0
C99 C 0.89416 0.42748 0.39968 0.0
O100 O 0.90191 0.41992 0.33775 0.0
C101 C 0.89367 0.50934 0.32171 0.0
O102 O 0.8899 0.51064 0.38959 0.0
O103 O 0.8589 0.43712 0.24855 0.0
C104 C 0.9763 0.29708 0.86577 0.0
O105 O 0.95683 0.3019 0.82535 0.0
O106 O 0.97292 0.34472 0.72798 0.0
Zn107 Zn 0.98697 0.3472 0.82603 0.0
O108 O 0.96195 0.3669 0.88496 0.0
C109 C 0.01098 0.39154 0.79936 0.0
O110 O 0.98699 0.39582 0.78635 0.0
O111 O 0.99359 0.31358 0.87148 0.0
C112 C 0.94689 0.35906 0.932 0.0
O113 O 0.94691 0.33511 0.94952 0.0
C114 C 0.94949 0.34872 0.71862 0.0
O115 O 0.93452 0.35 0.77333 0.0
O116 O 0.01763 0.36956 0.81884 0.0
C117 C 0.18179 0.95617 0.33623 0.0
O118 O 0.16812 0.93561 0.33065 0.0
O119 O 0.14231 0.95973 0.15963 0.0
Zn120 Zn 0.14107 0.97558 0.25517 0.0
O121 O 0.11547 0.95808 0.3167 0.0
C122 C 0.11897 0.02388 0.28929 0.0
O123 O 0.12055 0.01542 0.35379 0.0
O124 O 0.17449 0.97617 0.30557 0.0
C125 C 0.10919 0.93491 0.31622 0.0
O126 O 0.11955 0.91943 0.27079 0.0
C127 C 0.1517 0.93893 0.13915 0.0
O128 O 0.16365 0.92434 0.1837 0.0
O129 O 0.12791 0.0106 0.23974 0.0
C130 C 0.55001 0.18873 0.90294 0.0
O131 O 0.57045 0.17491 0.91012 0.0
O132 O 0.54835 0.13795 0.74389 0.0
Zn133 Zn 0.5332 0.14337 0.83933 0.0
O134 O 0.5544 0.12533 0.91079 0.0
C135 C 0.48499 0.12834 0.78494 0.0
O136 O 0.49385 0.13907 0.72801 0.0
O137 O 0.53138 0.17977 0.86909 0.0
C138 C 0.56597 0.10459 0.90144 0.0
O139 O 0.56359 0.0926 0.84156 0.0
C140 C 0.57201 0.13819 0.73291 0.0
O141 O 0.58727 0.14467 0.7841 0.0
O142 O 0.49842 0.12829 0.84008 0.0
C143 C 0.31831 0.542 0.37717 0.0
O144 O 0.32952 0.56414 0.37698 0.0
O145 O 0.36299 0.55652 0.22512 0.0
Zn146 Zn 0.36316 0.53296 0.30875 0.0
O147 O 0.38008 0.55016 0.38988 0.0
C148 C 0.40754 0.51009 0.27077 0.0
O149 O 0.4129 0.53425 0.27521 0.0
O150 O 0.32847 0.52391 0.34358 0.0
C151 C 0.38664 0.53807 0.44415 0.0
O152 O 0.38265 0.51361 0.44707 0.0
C153 C 0.37627 0.57652 0.2278 0.0
O154 O 0.38706 0.58292 0.28708 0.0
O155 O 0.38504 0.50303 0.28361 0.0
C156 C 0.94689 0.18075 0.11741 0.0
O157 O 0.92629 0.16694 0.11745 0.0
O158 O 0.94473 0.13395 0.27723 0.0
Zn159 Zn 0.96401 0.13716 0.18666 0.0
O160 O 0.94617 0.11708 0.11205 0.0
C161 C 0.00907 0.1249 0.26209 0.0
O162 O -0.00259 0.13768 0.31147 0.0
O163 O 0.96628 0.17264 0.14955 0.0
C164 C 0.93479 0.09615 0.11998 0.0
O165 O 0.93529 0.0849 0.18122 0.0
C166 C 0.92088 0.13167 0.28096 0.0
O167 O 0.90729 0.13417 0.22388 0.0
O168 O -0.00131 0.12274 0.20235 0.0
C169 C 0.3001 0.97762 0.58768 0.0
O170 O 0.31167 0.9561 0.59934 0.0
O171 O 0.34422 0.98041 0.75065 0.0
Zn172 Zn 0.34471 0.99438 0.65233 0.0
O173 O 0.36437 0.97028 0.5919 0.0
C174 C 0.36766 0.03906 0.70975 0.0
O175 O 0.35744 0.03058 0.76783 0.0
O176 O 0.31021 -0.00208 0.6095 0.0
C177 C 0.38687 0.96385 0.60657 0.0
O178 O 0.39796 0.97379 0.66162 0.0
C179 C 0.34735 0.95697 0.76152 0.0
O180 O 0.34746 0.94137 0.70803 0.0
O181 O 0.36365 0.02732 0.65274 0.0
C182 C 0.55721 0.31116 0.14525 0.0
O183 O 0.5779 0.32223 0.16762 0.0
O184 O 0.55678 0.36675 0.26466 0.0
Zn185 Zn 0.53807 0.35965 0.1751 0.0
O186 O 0.55586 0.37767 0.09684 0.0
C187 C 0.50629 0.39944 0.19733 0.0
O188 O 0.52919 0.40903 0.19865 0.0
O189 O 0.53645 0.32316 0.14799 0.0
C190 C 0.54342 0.3842 0.04309 0.0
O191 O 0.51934 0.37836 0.03899 0.0
C192 C 0.57926 0.37517 0.26391 0.0
O193 O 0.59181 0.37553 0.20457 0.0
O194 O 0.50384 0.37586 0.18684 0.0
C195 C 0.209 0.53971 0.66456 0.0
O196 O 0.20305 0.55759 0.70934 0.0
O197 O 0.15828 0.54042 0.79328 0.0
Zn198 Zn 0.15895 0.52357 0.69809 0.0
O199 O 0.13551 0.54293 0.6342 0.0
C200 C 0.12078 0.49175 0.73486 0.0
O201 O 0.11207 0.51459 0.74672 0.0
O202 O 0.19339 0.52191 0.65388 0.0
C203 C 0.14213 0.55962 0.59007 0.0
O204 O 0.1662 0.56477 0.58164 0.0
C205 C 0.15036 0.56299 0.79864 0.0
O206 O 0.14666 0.57622 0.74151 0.0
O207 O 0.14312 0.48938 0.71127 0.0
H208 H 0.00933 0.69629 0.97031 0.0
H209 H 0.01868 0.73299 0.17059 0.0
H210 H 0.01896 0.77418 0.11312 0.0
H211 H 0.01952 0.79936 0.00582 0.0
H212 H 0.01264 0.76258 0.8049 0.0
H213 H 0.00828 0.7217 0.86305 0.0
C214 C 0.01112 0.71331 0.00155 0.0
C215 C 0.01404 0.71159 0.07464 0.0
C216 C 0.01187 0.73685 0.96803 0.0
C217 C 0.0165 0.73381 0.11425 0.0
C218 C 0.0167 0.75735 0.08142 0.0
C219 C 0.01682 0.78245 0.97463 0.0
C220 C 0.01651 0.784 0.90107 0.0
C221 C 0.01486 0.75903 0.00828 0.0
C222 C 0.01306 0.76188 0.86156 0.0
C223 C 0.01058 0.73852 0.89478 0.0
H224 H 0.72184 0.00067 0.38383 0.0
H225 H 0.68232 0.00474 0.58131 0.0
H226 H 0.72237 0.00331 0.64412 0.0
H227 H 0.7688 0.00325 0.64296 0.0
H228 H 0.80821 -0.00151 0.4454 0.0
H229 H 0.76809 -0.00227 0.38298 0.0
C230 C 0.72199 0.00107 0.44061 0.0
C231 C 0.69913 0.00302 0.4777 0.0
C232 C 0.7451 0.00022 0.47654 0.0
C233 C 0.69963 0.00329 0.55133 0.0
C234 C 0.72255 0.00255 0.58741 0.0
C235 C 0.76859 0.0019 0.58629 0.0
C236 C 0.79147 0.00114 0.54898 0.0
C237 C 0.74542 0.00139 0.55054 0.0
C238 C 0.79088 -0.00085 0.47554 0.0
C239 C 0.76793 -0.00123 0.43966 0.0
H240 H 0.45832 0.80586 0.03143 0.0
H241 H 0.52009 0.78511 0.16709 0.0
H242 H 0.52832 0.74776 0.09494 0.0
H243 H 0.51748 0.72086 0.99447 0.0
H244 H 0.45628 0.74247 0.85762 0.0
H245 H 0.44858 0.78 0.9288 0.0
C246 C 0.47349 0.79309 0.04562 0.0
C247 C 0.4884 0.79806 0.10505 0.0
C248 C 0.47837 0.77201 0.00333 0.0
C249 C 0.50827 0.7816 0.12185 0.0
C250 C 0.51301 0.7603 0.08053 0.0
C251 C 0.50256 0.73387 0.97985 0.0
C252 C 0.48741 0.7288 0.92091 0.0
C253 C 0.49816 0.75534 0.02119 0.0
C254 C 0.46825 0.74592 0.90259 0.0
C255 C 0.46374 0.76731 0.9435 0.0
H256 H 0.73498 0.49448 0.6277 0.0
H257 H 0.69552 0.49867 0.4304 0.0
H258 H 0.73543 0.49527 0.36727 0.0
H259 H 0.78147 0.4894 0.36788 0.0
H260 H 0.82102 0.48659 0.56533 0.0
H261 H 0.78126 0.49134 0.62829 0.0
C262 C 0.73516 0.49474 0.57092 0.0
C263 C 0.71234 0.49665 0.53388 0.0
C264 C 0.7582 0.49302 0.53482 0.0
C265 C 0.71285 0.49723 0.46026 0.0
C266 C 0.73566 0.49523 0.42401 0.0
C267 C 0.78138 0.48997 0.42465 0.0
C268 C 0.80414 0.48747 0.46174 0.0
C269 C 0.75844 0.49286 0.46072 0.0
C270 C 0.80376 0.48848 0.53535 0.0
C271 C 0.78101 0.49111 0.57154 0.0
H272 H 0.93569 0.26864 0.8986 0.0
H273 H 0.01528 0.27687 0.94161 0.0
H274 H 0.0131 0.24218 0.02607 0.0
H275 H 0.98837 0.20947 0.08734 0.0
H276 H 0.90851 0.20258 0.04496 0.0
H277 H 0.911 0.23711 0.96134 0.0
C278 C 0.95265 0.26272 0.92589 0.0
C279 C 0.97567 0.27512 0.91334 0.0
C280 C 0.95114 0.24322 0.97514 0.0
C281 C -0.00265 0.2675 0.9501 0.0
C282 C 0.99609 0.24775 -0.00143 0.0
C283 C 0.97148 0.21568 0.0603 0.0
C284 C 0.94831 0.20339 0.07238 0.0
C285 C 0.97303 0.23554 0.01173 0.0
C286 C 0.92661 0.21165 0.03671 0.0
C287 C 0.928 0.23135 0.98858 0.0
H288 H 0.27473 0.93755 0.53489 0.0
H289 H 0.27405 0.01901 0.54092 0.0
H290 H 0.2378 0.01964 0.46165 0.0
H291 H 0.20664 -0.00307 0.38942 0.0
H292 H 0.20731 0.91544 0.38582 0.0
H293 H 0.24345 0.915 0.46488 0.0
C294 C 0.26662 0.95547 0.5192 0.0
C295 C 0.27711 0.97819 0.54377 0.0
C296 C 0.24592 0.9557 0.47355 0.0
C297 C 0.2663 0.00123 0.52293 0.0
C298 C 0.24565 0.00161 0.47736 0.0
C299 C 0.21482 0.9791 0.4056 0.0
C300 C 0.20439 0.95626 0.38152 0.0
C301 C 0.23541 0.97895 0.45194 0.0
C302 C 0.21499 0.93329 0.40358 0.0
C303 C 0.23563 0.933 0.44888 0.0
H304 H 0.58412 0.20946 0.99174 0.0
H305 H 0.51038 0.22196 0.9017 0.0
H306 H 0.50551 0.26027 0.97186 0.0
H307 H 0.52224 0.29015 0.05878 0.0
H308 H 0.59621 0.27767 0.14734 0.0
H309 H 0.60075 0.23911 0.07837 0.0
C310 C 0.56702 0.22061 0.98703 0.0
C311 C 0.54768 0.21287 0.94136 0.0
C312 C 0.56427 0.24244 0.02786 0.0
C313 C 0.52561 0.22752 0.93627 0.0
C314 C 0.52276 0.24937 0.97661 0.0
C315 C 0.53924 0.27884 0.06357 0.0
C316 C 0.55882 0.2867 0.10834 0.0
C317 C 0.54191 0.25693 0.02285 0.0
C318 C 0.58085 0.27201 0.11332 0.0
C319 C 0.5835 0.25002 0.07372 0.0
H320 H 0.30309 0.57166 0.484 0.0
H321 H 0.28511 0.50224 0.37667 0.0
H322 H 0.25014 0.49478 0.45826 0.0
H323 H 0.22459 0.50839 0.55948 0.0
H324 H 0.2439 0.57744 0.66746 0.0
H325 H 0.27876 0.58443 0.58649 0.0
C326 C 0.29143 0.55497 0.47797 0.0
C327 C 0.29649 0.53766 0.42389 0.0
C328 C 0.27179 0.55062 0.5256 0.0
C329 C 0.28148 0.51591 0.41768 0.0
C330 C 0.26156 0.51162 0.4644 0.0
C331 C 0.23655 0.52486 0.56567 0.0
C332 C 0.23156 0.5424 0.61945 0.0
C333 C 0.25658 0.52885 0.51865 0.0
C334 C 0.24727 0.56363 0.62666 0.0
C335 C 0.26716 0.56772 0.58016 0.0
H336 H 0.10698 0.58259 0.10161 0.0
H337 H 0.06308 0.63718 0.98592 0.0
H338 H 0.08596 0.62659 0.87931 0.0
H339 H 0.11731 0.60118 0.81798 0.0
H340 H 0.15992 0.54482 0.93027 0.0
H341 H 0.13895 0.5571 0.0395 0.0
C342 C 0.10243 0.59216 0.05307 0.0
C343 C 0.08328 0.61058 0.05183 0.0
C344 C 0.11555 0.58584 0.99149 0.0
C345 C 0.0776 0.6228 0.98843 0.0
C346 C 0.09076 0.61685 0.92737 0.0
C347 C 0.12233 0.59179 0.86646 0.0
C348 C 0.14025 0.57221 0.86611 0.0
C349 C 0.10968 0.59837 0.92827 0.0
C350 C 0.14623 0.56002 0.92927 0.0
C351 C 0.13416 0.56694 0.9916 0.0
H352 H 0.94386 0.12292 0.40602 0.0
H353 H 0.87208 0.11645 0.30009 0.0
H354 H 0.85492 0.09292 0.39895 0.0
H355 H 0.86136 0.07115 0.51064 0.0
H356 H 0.93295 0.07763 0.61717 0.0
H357 H 0.94913 0.10421 0.52265 0.0
C358 C 0.92435 0.11667 0.40489 0.0
C359 C 0.90938 0.12122 0.34533 0.0
C360 C 0.91467 0.10289 0.46158 0.0
C361 C 0.88408 0.11315 0.34507 0.0
C362 C 0.87427 0.09956 0.40145 0.0
C363 C 0.88048 0.07845 0.51333 0.0
C364 C 0.89607 0.07215 0.5703 0.0
C365 C 0.88959 0.09378 0.4591 0.0
C366 C 0.92063 0.0821 0.57366 0.0
C367 C 0.9299 0.09728 0.51963 0.0
H368 H 0.38943 0.94023 0.06684 0.0
H369 H 0.42378 0.87639 0.96287 0.0
H370 H 0.40168 0.88683 0.8551 0.0
H371 H 0.37411 0.91478 0.78882 0.0
H372 H 0.34162 0.98032 0.88849 0.0
H373 H 0.36115 0.96829 -0.00021 0.0
C374 C 0.39202 0.9286 0.02061 0.0
C375 C 0.40832 0.90764 0.02293 0.0
C376 C 0.37947 0.93489 0.95817 0.0
C377 C 0.41152 0.89277 0.96251 0.0
C378 C 0.3988 0.89864 0.90082 0.0
C379 C 0.37093 0.92624 0.83511 0.0
C380 C 0.35631 0.9483 0.83061 0.0
C381 C 0.38287 0.91971 0.89795 0.0
C382 C 0.35275 0.96318 0.8908 0.0
C383 C 0.364 0.95638 0.95429 0.0
H384 H 0.55294 0.39161 0.37736 0.0
H385 H 0.62769 0.39057 0.2868 0.0
H386 H 0.64301 0.41812 0.38017 0.0
H387 H 0.63479 0.44383 0.48425 0.0
H388 H 0.55992 0.44546 0.57415 0.0
H389 H 0.54496 0.41653 0.48349 0.0
C390 C 0.57268 0.39709 0.37858 0.0
C391 C 0.58918 0.389 0.32525 0.0
C392 C 0.58123 0.41335 0.43156 0.0
C393 C 0.61461 0.39652 0.32723 0.0
C394 C 0.62336 0.41237 0.38039 0.0
C395 C 0.61516 0.43797 0.48399 0.0
C396 C 0.59846 0.44695 0.53572 0.0
C397 C 0.60674 0.42122 0.43212 0.0
C398 C 0.57315 0.43895 0.53479 0.0
C399 C 0.5646 0.42232 0.48314 0.0
H400 H 0.14431 0.8903 0.09944 0.0
H401 H 0.14236 0.96687 0.02312 0.0
H402 H 0.1224 0.95269 0.9148 0.0
H403 H 0.10049 0.91958 0.84945 0.0
H404 H 0.09948 0.84342 0.92954 0.0
H405 H 0.12579 0.85631 0.02825 0.0
C406 C 0.1401 0.90375 0.05827 0.0
C407 C 0.14465 0.92957 0.06917 0.0
C408 C 0.12773 0.89558 0.99727 0.0
C409 C 0.13886 0.94689 0.01587 0.0
C410 C 0.12737 0.93881 0.95411 0.0
C411 C 0.10635 0.90569 0.88784 0.0
C412 C 0.09776 0.88067 0.8826 0.0
C413 C 0.12089 0.91336 0.9454 0.0
C414 C 0.10561 0.86289 0.93273 0.0
C415 C 0.12065 0.87024 0.98926 0.0
H416 H 0.54556 0.12129 0.62003 0.0
H417 H 0.62142 0.12903 0.70041 0.0
H418 H 0.63776 0.10466 0.60184 0.0
H419 H 0.63017 0.07846 0.49823 0.0
H420 H 0.55445 0.07059 0.41736 0.0
H421 H 0.5384 0.09776 0.51095 0.0
C422 C 0.56572 0.11793 0.6156 0.0
C423 C 0.58221 0.12679 0.66799 0.0
C424 C 0.57497 0.10366 0.55917 0.0
C425 C 0.60827 0.12239 0.66106 0.0
C426 C 0.61764 0.10833 0.60486 0.0
C427 C 0.61016 0.08275 0.50087 0.0
C428 C 0.59348 0.07227 0.45143 0.0
C429 C 0.60109 0.0984 0.55458 0.0
C430 C 0.56767 0.07833 0.45496 0.0
C431 C 0.55848 0.09384 0.50849 0.0
H432 H 0.42069 0.59949 0.20361 0.0
H433 H 0.3496 0.58118 0.10578 0.0
H434 H 0.36407 0.60054 0.99622 0.0
H435 H 0.39742 0.62192 0.92829 0.0
H436 H 0.46953 0.63699 0.02506 0.0
H437 H 0.45423 0.61939 0.13534 0.0
C438 C 0.40823 0.60001 0.15855 0.0
C439 C 0.38398 0.58932 0.16278 0.0
C440 C 0.41698 0.61032 0.09561 0.0
C441 C 0.36828 0.5895 0.10363 0.0
C442 C 0.37657 0.60048 0.04113 0.0
C443 C 0.40974 0.62135 0.97361 0.0
C444 C 0.43452 0.6308 0.96879 0.0
C445 C 0.40096 0.61081 0.03646 0.0
C446 C 0.45042 0.62971 0.02749 0.0
C447 C 0.44166 0.61977 0.09058 0.0
H448 H 0.90859 0.37767 0.69532 0.0
H449 H 0.97098 0.34172 0.58935 0.0
H450 H 0.95886 0.36234 0.47955 0.0
H451 H 0.93181 0.39269 0.41587 0.0
H452 H 0.87161 0.43056 0.52705 0.0
H453 H 0.88181 0.40724 0.63282 0.0
C454 C 0.91933 0.37396 0.64801 0.0
C455 C 0.94053 0.35806 0.65026 0.0
C456 C 0.91288 0.38658 0.58626 0.0
C457 C 0.95449 0.35383 0.58874 0.0
C458 C 0.94766 0.36572 0.52615 0.0
C459 C 0.92095 0.39578 0.46326 0.0
C460 C 0.90108 0.41342 0.46357 0.0
C461 C 0.92714 0.38252 0.52463 0.0
C462 C 0.88716 0.41728 0.52542 0.0
C463 C 0.89287 0.40385 0.58596 0.0
H464 H 0.914 0.34979 0.0388 0.0
H465 H 0.94062 0.40895 0.90191 0.0
H466 H 0.91405 0.43951 0.96247 0.0
H467 H 0.88632 0.45022 0.0603 0.0
H468 H 0.86102 0.39173 0.201 0.0
H469 H 0.88353 0.36008 0.13183 0.0
C470 C 0.91386 0.36933 0.02191 0.0
C471 C 0.92955 0.37709 0.96653 0.0
C472 C 0.8987 0.38694 0.05745 0.0
C473 C 0.92897 0.40247 0.94494 0.0
C474 C 0.91372 0.41999 0.9794 0.0
C475 C 0.88529 0.4305 0.07518 0.0
C476 C 0.87217 0.4234 0.13605 0.0
C477 C 0.8989 0.41254 0.03655 0.0
C478 C 0.87108 0.39773 0.15451 0.0
C479 C 0.88408 0.37963 0.11524 0.0
H480 H 0.04003 0.91457 0.57677 0.0
H481 H 0.07094 0.83963 0.55306 0.0
H482 H 0.09228 0.85269 0.44516 0.0
H483 H 0.10499 0.88656 0.3635 0.0
H484 H 0.07563 0.96185 0.39353 0.0
H485 H 0.05073 0.9474 0.49308 0.0
C486 C 0.05123 0.90093 0.54784 0.0
C487 C 0.05405 0.8762 0.57331 0.0
C488 C 0.06385 0.90871 0.48717 0.0
C489 C 0.06854 0.85882 0.53476 0.0
C490 C 0.0808 0.8663 0.47319 0.0
C491 C 0.09285 0.89968 0.39128 0.0
C492 C 0.09224 0.92526 0.37144 0.0
C493 C 0.07901 0.89137 0.44973 0.0
C494 C 0.07657 0.94211 0.40813 0.0
C495 C 0.06233 0.93387 0.46506 0.0
H496 H 0.6255 0.07495 0.17412 0.0
H497 H 0.63825 0.00678 0.05517 0.0
H498 H 0.61687 0.02541 0.95429 0.0
H499 H 0.59124 0.05968 0.90372 0.0
H500 H 0.57733 0.12694 0.02594 0.0
H501 H 0.60238 0.10992 0.12166 0.0
C502 C 0.624 0.06426 0.12583 0.0
C503 C 0.63333 0.03943 0.12243 0.0
C504 C 0.6111 0.07478 0.06886 0.0
C505 C 0.63117 0.0259 0.05933 0.0
C506 C 0.61881 0.03649 0.00172 0.0
C507 C 0.5938 0.07065 0.95115 0.0
C508 C 0.58215 0.09441 0.95785 0.0
C509 C 0.60811 0.06066 0.00655 0.0
C510 C 0.58582 0.10847 0.01954 0.0
C511 C 0.60022 0.0988 0.07435 0.0
H512 H 0.39135 0.58875 0.46139 0.0
H513 H 0.40949 0.51743 0.55851 0.0
H514 H 0.43108 0.53951 0.65338 0.0
H515 H 0.44579 0.57876 0.70661 0.0
H516 H 0.42754 0.65027 0.61099 0.0
H517 H 0.40476 0.62831 0.5175 0.0
C518 C 0.40001 0.57802 0.50335 0.0
C519 C 0.39897 0.55147 0.50268 0.0
C520 C 0.41231 0.59083 0.55783 0.0
C521 C 0.41005 0.53787 0.55773 0.0
C522 C 0.42243 0.55047 0.61194 0.0
C523 C 0.4368 0.5896 0.66544 0.0
C524 C 0.43849 0.6161 0.66542 0.0
C525 C 0.42382 0.57691 0.61217 0.0
C526 C 0.42651 0.62985 0.61211 0.0
C527 C 0.41356 0.61731 0.55861 0.0
H528 H 0.87722 0.06704 0.84316 0.0
H529 H 0.85533 0.00295 0.96871 0.0
H530 H 0.87828 0.02047 0.0688 0.0
H531 H 0.90645 0.05301 0.11853 0.0
H532 H 0.92899 0.11612 0.98975 0.0
H533 H 0.90405 0.09973 0.89296 0.0
C534 C 0.87715 0.05698 0.89259 0.0
C535 C 0.86456 0.03369 0.89833 0.0
C536 C 0.89081 0.06681 0.94917 0.0
C537 C 0.86484 0.02093 0.96282 0.0
C538 C 0.87807 0.03087 0.01998 0.0
C539 C 0.90591 0.06316 0.06928 0.0
C540 C 0.91975 0.08568 0.06144 0.0
C541 C 0.8915 0.05359 0.01337 0.0
C542 C 0.9187 0.09866 0.9973 0.0
C543 C 0.90436 0.08936 0.94184 0.0
H544 H 0.36749 0.93672 0.49852 0.0
H545 H 0.43606 0.94856 0.61641 0.0
H546 H 0.45847 0.91904 0.54017 0.0
H547 H 0.45933 0.89247 0.43504 0.0
H548 H 0.39103 0.8817 0.31514 0.0
H549 H 0.36766 0.90786 0.39821 0.0
C550 C 0.38732 0.9328 0.50776 0.0
C551 C 0.40016 0.94509 0.56254 0.0
C552 C 0.40011 0.91592 0.46359 0.0
C553 C 0.42577 0.93953 0.57428 0.0
C554 C 0.4386 0.92262 0.53076 0.0
C555 C 0.43923 0.89545 0.42766 0.0
C556 C 0.42699 0.88527 0.36867 0.0
C557 C 0.42605 0.91102 0.47461 0.0
C558 C 0.40095 0.8894 0.35994 0.0
C559 C 0.38759 0.90446 0.40721 0.0
H560 H 0.59366 0.39071 0.01778 0.0
H561 H 0.5196 0.41368 0.94764 0.0
H562 H 0.53864 0.44243 0.8633 0.0
H563 H 0.57594 0.46178 0.81172 0.0
H564 H 0.65034 0.4378 0.87496 0.0
H565 H 0.63155 0.40855 0.96015 0.0
C566 C 0.58174 0.40196 0.98379 0.0
C567 C 0.55526 0.4002 0.98916 0.0
C568 C 0.59283 0.41828 0.93468 0.0
C569 C 0.54001 0.41465 0.9444 0.0
C570 C 0.55087 0.43117 0.89637 0.0
C571 C 0.58808 0.45024 0.8444 0.0
C572 C 0.61445 0.45215 0.83816 0.0
C573 C 0.57719 0.43328 0.89158 0.0
C574 C 0.62997 0.43668 0.87938 0.0
C575 C 0.61923 0.42003 0.92793 0.0
H576 H 0.14934 0.59538 0.4896 0.0
H577 H 0.091 0.55631 0.60473 0.0
H578 H 0.05862 0.57945 0.54088 0.0
H579 H 0.04676 0.609 0.4486 0.0
H580 H 0.10473 0.64701 0.32965 0.0
H581 H 0.13735 0.62638 0.39977 0.0
C582 C 0.12955 0.59197 0.50084 0.0
C583 C 0.12265 0.57397 0.55148 0.0
C584 C 0.11095 0.60524 0.46358 0.0
C585 C 0.09689 0.56988 0.56561 0.0
C586 C 0.07832 0.58317 0.52929 0.0
C587 C 0.06651 0.6131 0.43856 0.0
C588 C 0.07329 0.62949 0.38387 0.0
C589 C 0.08513 0.60069 0.47774 0.0
C590 C 0.099 0.63444 0.37143 0.0
C591 C 0.11766 0.62255 0.41126 0.0
H592 H 0.91637 0.55089 0.37755 0.0
H593 H 0.90874 0.50877 0.18501 0.0
H594 H 0.93801 0.53741 0.12686 0.0
H595 H 0.96721 0.57333 0.13173 0.0
H596 H 0.97473 0.61558 0.32407 0.0
H597 H 0.94399 0.58809 0.38076 0.0
C598 C 0.92102 0.54803 0.32281 0.0
C599 C 0.91048 0.52759 0.28598 0.0
C600 C 0.9379 0.56459 0.28949 0.0
C601 C 0.91661 0.52428 0.21485 0.0
C602 C 0.93339 0.54065 0.18143 0.0
C603 C 0.96201 0.57665 0.1859 0.0
C604 C 0.97339 0.59642 0.22355 0.0
C605 C 0.94435 0.56071 0.21842 0.0
C606 C 0.96631 0.6005 0.29369 0.0
C607 C 0.94876 0.58473 0.32634 0.0
H608 H 0.93173 0.97186 0.80438 0.0
H609 H 0.88456 0.93989 0.64271 0.0
H610 H 0.90899 0.90077 0.64643 0.0
H611 H 0.94502 0.87649 0.69163 0.0
H612 H 0.99222 0.90888 0.85274 0.0
H613 H 0.96625 0.94688 0.85367 0.0
C614 C 0.92675 0.95634 0.76997 0.0
C615 C 0.90651 0.95889 0.7229 0.0
C616 C 0.94083 0.93394 0.7724 0.0
C617 C 0.90014 0.93847 0.67926 0.0
C618 C 0.91409 0.91608 0.68135 0.0
C619 C 0.94947 0.89173 0.72752 0.0
C620 C 0.97063 0.88987 0.77172 0.0
C621 C 0.93463 0.91371 0.72724 0.0
C622 C 0.9761 0.90982 0.81791 0.0
C623 C 0.96131 0.93162 0.81837 0.0
H624 H 0.51175 0.90883 0.28953 0.0
H625 H 0.54829 0.90957 0.0873 0.0
H626 H 0.58196 0.9362 0.13441 0.0
H627 H 0.59975 0.96092 0.23122 0.0
H628 H 0.56262 0.96078 0.43267 0.0
H629 H 0.53049 0.93199 0.38749 0.0
C630 C 0.52712 0.9147 0.25566 0.0
C631 C 0.52738 0.90735 0.18476 0.0
C632 C 0.54629 0.9301 0.28292 0.0
C633 C 0.54755 0.91502 0.14193 0.0
C634 C 0.56681 0.93026 0.16883 0.0
C635 C 0.58478 0.95443 0.26556 0.0
C636 C 0.58355 0.96311 0.33524 0.0
C637 C 0.56619 0.93814 0.23901 0.0
C638 C 0.564 0.95447 0.37884 0.0
C639 C 0.54558 0.93805 0.353 0.0
H640 H 0.59372 0.573 0.59953 0.0
H641 H 0.62546 0.54925 0.797 0.0
H642 H 0.59998 0.58041 0.85858 0.0
H643 H 0.56538 0.6112 0.85795 0.0
H644 H 0.53379 0.63533 0.66076 0.0
H645 H 0.56271 0.60757 0.59786 0.0
C646 C 0.59532 0.57488 0.6559 0.0
C647 C 0.6112 0.55853 0.69349 0.0
C648 C 0.58051 0.59284 0.69133 0.0
C649 C 0.61327 0.56145 0.76655 0.0
C650 C 0.59863 0.57923 0.80204 0.0
C651 C 0.56507 0.61066 0.80118 0.0
C652 C 0.54721 0.62505 0.76433 0.0
C653 C 0.58167 0.59454 0.76519 0.0
C654 C 0.54728 0.62437 0.69064 0.0
C655 C 0.56374 0.60839 0.6545 0.0
H656 H 0.07112 0.49272 0.76443 0.0
H657 H 0.13335 0.44131 0.73302 0.0
H658 H 0.1051 0.40536 0.75363 0.0
H659 H 0.06213 0.38872 0.77843 0.0
H660 H 0.00048 0.44132 0.80444 0.0
H661 H 0.0292 0.47663 0.78852 0.0
C662 C 0.07863 0.47368 0.76228 0.0
C663 C 0.1043 0.46969 0.74734 0.0
C664 C 0.06235 0.4533 0.7733 0.0
C665 C 0.11361 0.44486 0.74432 0.0
C666 C 0.09748 0.42433 0.7562 0.0
C667 C 0.05512 0.40793 0.78104 0.0
C668 C 0.02924 0.41241 0.79252 0.0
C669 C 0.07175 0.42833 0.77052 0.0
C670 C 0.02029 0.43736 0.79522 0.0
C671 C 0.03669 0.4576 0.78621 0.0
H672 H 0.041 0.10215 0.17019 0.0
H673 H 0.02925 0.11538 0.39086 0.0
H674 H 0.06421 0.08711 0.41886 0.0
H675 H 0.09516 0.05531 0.38101 0.0
H676 H 0.10674 0.04216 0.1601 0.0
H677 H 0.0751 0.07397 0.13209 0.0
C678 C 0.04626 0.09906 0.22439 0.0
C679 C 0.0323 0.11056 0.27832 0.0
C680 C 0.06631 0.0827 0.24019 0.0
C681 C 0.03959 0.10666 0.34826 0.0
C682 C 0.05954 0.09042 0.36439 0.0
C683 C 0.09104 0.05966 0.32673 0.0
C684 C 0.10305 0.04607 0.27286 0.0
C685 C 0.0726 0.07784 0.31083 0.0
C686 C 0.09766 0.05216 0.20275 0.0
C687 C 0.07947 0.0703 0.18657 0.0
H688 H 0.38929 0.05945 0.82537 0.0
H689 H 0.38899 0.06424 0.59976 0.0
H690 H 0.42408 0.09415 0.60368 0.0
H691 H 0.45705 0.11605 0.67059 0.0
H692 H 0.45863 0.10933 0.8958 0.0
H693 H 0.42072 0.08315 0.89255 0.0
C694 C 0.39664 0.0673 0.77705 0.0
C695 C 0.38661 0.05952 0.71237 0.0
C696 C 0.41719 0.08398 0.77959 0.0
C697 C 0.39644 0.06982 0.65026 0.0
C698 C 0.41655 0.08688 0.65244 0.0
C699 C 0.44894 0.10911 0.71904 0.0
C700 C 0.46075 0.1145 0.78329 0.0
C701 C 0.42743 0.09364 0.71672 0.0
C702 C 0.45002 0.10531 0.84558 0.0
C703 C 0.42834 0.09033 0.8438 0.0
H704 H 0.50672 0.45015 0.20073 0.0
H705 H 0.45649 0.38634 0.21829 0.0
H706 H 0.42097 0.41495 0.24139 0.0
H707 H 0.40466 0.45843 0.25994 0.0
H708 H 0.45624 0.52131 0.24101 0.0
H709 H 0.4907 0.49262 0.21514 0.0
C710 C 0.48802 0.44239 0.20955 0.0
C711 C 0.48429 0.41616 0.20829 0.0
C712 C 0.4679 0.45881 0.22272 0.0
C713 C 0.45986 0.4065 0.21909 0.0
C714 C 0.43957 0.42285 0.23243 0.0
C715 C 0.42343 0.46579 0.24992 0.0
C716 C 0.42782 0.492 0.25285 0.0
C717 C 0.44342 0.44909 0.2349 0.0
C718 C 0.45225 0.50126 0.23949 0.0
C719 C 0.47205 0.48487 0.22461 0.0
loop_
_geom_bond_atom_site_label_1
_geom_bond_atom_site_label_2
_geom_bond_distance
_geom_bond_site_symmetry_2
_ccdc_geom_bond_type
C0 O1 1.160 1_455 S
C0 O7 1.185 . S
O1 C0 1.160 1_655 S
O2 Zn3 1.899 1_655 S
O2 C10 1.284 . S
Zn3 O2 1.899 1_455 S
Zn3 O4 2.032 . S
Zn3 O7 2.086 . S
Zn3 O12 1.977 . S
O4 Zn3 2.032 . S
O4 C8 1.278 . S
C5 O6 1.203 . S
C5 O12 1.267 . S
O6 C5 1.203 . S
O7 C0 1.185 . S
O7 Zn3 2.086 . S
C8 O4 1.278 . S
C8 O9 1.211 . S
O9 C8 1.211 . S
C10 O2 1.284 . S
C10 O11 1.273 1_655 S
O11 C10 1.273 1_455 S
O12 Zn3 1.977 . S
O12 C5 1.267 . S
C13 O14 1.160 1_545 S
C13 O20 1.185 . S
O14 C13 1.160 1_565 S
O15 Zn16 1.899 1_565 S
O15 C23 1.284 . S
Zn16 O15 1.899 1_545 S
Zn16 O17 2.032 . S
Zn16 O20 2.086 . S
Zn16 O25 1.977 . S
O17 Zn16 2.032 . S
O17 C21 1.278 . S
C18 O19 1.203 . S
C18 O25 1.267 . S
O19 C18 1.203 . S
O20 C13 1.185 . S
O20 Zn16 2.086 . S
C21 O17 1.278 . S
C21 O22 1.211 . S
O22 C21 1.211 . S
C23 O15 1.284 . S
C23 O24 1.273 1_565 S
O24 C23 1.273 1_545 S
O25 Zn16 1.977 . S
O25 C18 1.267 . S
C26 O27 1.160 . S
C26 O33 1.185 . S
O27 C26 1.160 . S
O28 Zn29 1.899 . S
O28 C36 1.284 . S
Zn29 O28 1.899 . S
Zn29 O30 2.032 . S
Zn29 O33 2.086 . S
Zn29 O38 1.977 . S
O30 Zn29 2.032 . S
O30 C34 1.278 . S
C31 O32 1.203 . S
C31 O38 1.267 . S
O32 C31 1.203 . S
O33 C26 1.185 . S
O33 Zn29 2.086 . S
C34 O30 1.278 . S
C34 O35 1.211 . S
O35 C34 1.211 . S
C36 O28 1.284 . S
C36 O37 1.273 . S
O37 C36 1.273 . S
O38 Zn29 1.977 . S
O38 C31 1.267 . S
C39 O40 1.160 . S
C39 O46 1.185 . S
O40 C39 1.160 . S
O41 Zn42 1.899 . S
O41 C49 1.284 . S
Zn42 O41 1.899 . S
Zn42 O43 2.032 . S
Zn42 O46 2.086 . S
Zn42 O51 1.977 . S
O43 Zn42 2.032 . S
O43 C47 1.278 . S
C44 O45 1.203 . S
C44 O51 1.267 . S
O45 C44 1.203 . S
O46 C39 1.185 . S
O46 Zn42 2.086 . S
C47 O43 1.278 . S
C47 O48 1.211 . S
O48 C47 1.211 . S
C49 O41 1.284 . S
C49 O50 1.273 . S
O50 C49 1.273 . S
O51 Zn42 1.977 . S
O51 C44 1.267 . S
C52 O53 1.160 1_455 S
C52 O59 1.185 . S
O53 C52 1.160 1_655 S
O54 Zn55 1.899 1_655 S
O54 C62 1.284 . S
Zn55 O54 1.899 1_455 S
Zn55 O56 2.032 . S
Zn55 O59 2.086 . S
Zn55 O64 1.977 . S
O56 Zn55 2.032 . S
O56 C60 1.278 . S
C57 O58 1.203 . S
C57 O64 1.267 . S
O58 C57 1.203 . S
O59 C52 1.185 . S
O59 Zn55 2.086 . S
C60 O56 1.278 . S
C60 O61 1.211 . S
O61 C60 1.211 . S
C62 O54 1.284 . S
C62 O63 1.273 1_655 S
O63 C62 1.273 1_455 S
O64 Zn55 1.977 . S
O64 C57 1.267 . S
C65 O66 1.160 1_545 S
C65 O72 1.185 . S
O66 C65 1.160 1_565 S
O67 Zn68 1.899 1_565 S
O67 C75 1.284 . S
Zn68 O67 1.899 1_545 S
Zn68 O69 2.032 . S
Zn68 O72 2.086 . S
Zn68 O77 1.977 . S
O69 Zn68 2.032 . S
O69 C73 1.278 . S
C70 O71 1.203 . S
C70 O77 1.267 . S
O71 C70 1.203 . S
O72 C65 1.185 . S
O72 Zn68 2.086 . S
C73 O69 1.278 . S
C73 O74 1.211 . S
O74 C73 1.211 . S
C75 O67 1.284 . S
C75 O76 1.273 1_565 S
O76 C75 1.273 1_545 S
O77 Zn68 1.977 . S
O77 C70 1.267 . S
C78 O79 1.160 . S
C78 O85 1.185 . S
O79 C78 1.160 . S
O80 Zn81 1.899 . S
O80 C88 1.284 . S
Zn81 O80 1.899 . S
Zn81 O82 2.032 . S
Zn81 O85 2.086 . S
Zn81 O90 1.977 . S
O82 Zn81 2.032 . S
O82 C86 1.278 . S
C83 O84 1.203 . S
C83 O90 1.267 . S
O84 C83 1.203 . S
O85 C78 1.185 . S
O85 Zn81 2.086 . S
C86 O82 1.278 . S
C86 O87 1.211 . S
O87 C86 1.211 . S
C88 O80 1.284 . S
C88 O89 1.273 . S
O89 C88 1.273 . S
O90 Zn81 1.977 . S
O90 C83 1.267 . S
C91 O92 1.160 . S
C91 O98 1.185 . S
O92 C91 1.160 . S
O93 Zn94 1.899 . S
O93 C101 1.284 . S
Zn94 O93 1.899 . S
Zn94 O95 2.032 . S
Zn94 O98 2.086 . S
Zn94 O103 1.977 . S
O95 Zn94 2.032 . S
O95 C99 1.278 . S
C96 O97 1.203 . S
C96 O103 1.267 . S
O97 C96 1.203 . S
O98 C91 1.185 . S
O98 Zn94 2.086 . S
C99 O95 1.278 . S
C99 O100 1.211 . S
O100 C99 1.211 . S
C101 O93 1.284 . S
C101 O102 1.273 . S
O102 C101 1.273 . S
O103 Zn94 1.977 . S
O103 C96 1.267 . S
C104 O105 1.160 . S
C104 O111 1.185 . S
O105 C104 1.160 . S
O106 Zn107 1.899 . S
O106 C114 1.284 . S
Zn107 O106 1.899 . S
Zn107 O108 2.032 . S
Zn107 O111 2.086 . S
Zn107 O116 1.977 1_655 S
O108 Zn107 2.032 . S
O108 C112 1.278 . S
C109 O110 1.203 . S
C109 O116 1.267 . S
O110 C109 1.203 . S
O111 C104 1.185 . S
O111 Zn107 2.086 . S
C112 O108 1.278 . S
C112 O113 1.211 . S
O113 C112 1.211 . S
C114 O106 1.284 . S
C114 O115 1.273 . S
O115 C114 1.273 . S
O116 Zn107 1.977 1_455 S
O116 C109 1.267 . S
C117 O118 1.160 . S
C117 O124 1.185 . S
O118 C117 1.160 . S
O119 Zn120 1.899 . S
O119 C127 1.284 . S
Zn120 O119 1.899 . S
Zn120 O121 2.032 . S
Zn120 O124 2.086 . S
Zn120 O129 1.977 1_565 S
O121 Zn120 2.032 . S
O121 C125 1.278 . S
C122 O123 1.203 . S
C122 O129 1.267 . S
O123 C122 1.203 . S
O124 C117 1.185 . S
O124 Zn120 2.086 . S
C125 O121 1.278 . S
C125 O126 1.211 . S
O126 C125 1.211 . S
C127 O119 1.284 . S
C127 O128 1.273 . S
O128 C127 1.273 . S
O129 Zn120 1.977 1_545 S
O129 C122 1.267 . S
C130 O131 1.160 . S
C130 O137 1.185 . S
O131 C130 1.160 . S
O132 Zn133 1.899 . S
O132 C140 1.284 . S
Zn133 O132 1.899 . S
Zn133 O134 2.032 . S
Zn133 O137 2.086 . S
Zn133 O142 1.977 . S
O134 Zn133 2.032 . S
O134 C138 1.278 . S
C135 O136 1.203 . S
C135 O142 1.267 . S
O136 C135 1.203 . S
O137 C130 1.185 . S
O137 Zn133 2.086 . S
C138 O134 1.278 . S
C138 O139 1.211 . S
O139 C138 1.211 . S
C140 O132 1.284 . S
C140 O141 1.273 . S
O141 C140 1.273 . S
O142 Zn133 1.977 . S
O142 C135 1.267 . S
C143 O144 1.160 . S
C143 O150 1.185 . S
O144 C143 1.160 . S
O145 Zn146 1.899 . S
O145 C153 1.284 . S
Zn146 O145 1.899 . S
Zn146 O147 2.032 . S
Zn146 O150 2.086 . S
Zn146 O155 1.977 . S
O147 Zn146 2.032 . S
O147 C151 1.278 . S
C148 O149 1.203 . S
C148 O155 1.267 . S
O149 C148 1.203 . S
O150 C143 1.185 . S
O150 Zn146 2.086 . S
C151 O147 1.278 . S
C151 O152 1.211 . S
O152 C151 1.211 . S
C153 O145 1.284 . S
C153 O154 1.273 . S
O154 C153 1.273 . S
O155 Zn146 1.977 . S
O155 C148 1.267 . S
C156 O157 1.160 . S
C156 O163 1.185 . S
O157 C156 1.160 . S
O158 Zn159 1.899 . S
O158 C166 1.284 . S
Zn159 O158 1.899 . S
Zn159 O160 2.032 . S
Zn159 O163 2.086 . S
Zn159 O168 1.977 1_655 S
O160 Zn159 2.032 . S
O160 C164 1.278 . S
C161 O162 1.203 . S
C161 O168 1.267 . S
O162 C161 1.203 . S
O163 C156 1.185 . S
O163 Zn159 2.086 . S
C164 O160 1.278 . S
C164 O165 1.211 . S
O165 C164 1.211 . S
C166 O158 1.284 . S
C166 O167 1.273 . S
O167 C166 1.273 . S
O168 Zn159 1.977 1_455 S
O168 C161 1.267 . S
C169 O170 1.160 . S
C169 O176 1.185 . S
O170 C169 1.160 . S
O171 Zn172 1.899 . S
O171 C179 1.284 . S
Zn172 O171 1.899 . S
Zn172 O173 2.032 . S
Zn172 O176 2.086 . S
Zn172 O181 1.977 1_565 S
O173 Zn172 2.032 . S
O173 C177 1.278 . S
C174 O175 1.203 . S
C174 O181 1.267 . S
O175 C174 1.203 . S
O176 C169 1.185 . S
O176 Zn172 2.086 . S
C177 O173 1.278 . S
C177 O178 1.211 . S
O178 C177 1.211 . S
C179 O171 1.284 . S
C179 O180 1.273 . S
O180 C179 1.273 . S
O181 Zn172 1.977 1_545 S
O181 C174 1.267 . S
C182 O183 1.160 . S
C182 O189 1.185 . S
O183 C182 1.160 . S
O184 Zn185 1.899 . S
O184 C192 1.284 . S
Zn185 O184 1.899 . S
Zn185 O186 2.032 . S
Zn185 O189 2.086 . S
Zn185 O194 1.977 . S
O186 Zn185 2.032 . S
O186 C190 1.278 . S
C187 O188 1.203 . S
C187 O194 1.267 . S
O188 C187 1.203 . S
O189 C182 1.185 . S
O189 Zn185 2.086 . S
C190 O186 1.278 . S
C190 O191 1.211 . S
O191 C190 1.211 . S
C192 O184 1.284 . S
C192 O193 1.273 . S
O193 C192 1.273 . S
O194 Zn185 1.977 . S
O194 C187 1.267 . S
C195 O196 1.160 . S
C195 O202 1.185 . S
O196 C195 1.160 . S
O197 Zn198 1.899 . S
O197 C205 1.284 . S
Zn198 O197 1.899 . S
Zn198 O199 2.032 . S
Zn198 O202 2.086 . S
Zn198 O207 1.977 . S
O199 Zn198 2.032 . S
O199 C203 1.278 . S
C200 O201 1.203 . S
C200 O207 1.267 . S
O201 C200 1.203 . S
O202 C195 1.185 . S
O202 Zn198 2.086 . S
C203 O199 1.278 . S
C203 O204 1.211 . S
O204 C203 1.211 . S
C205 O197 1.284 . S
C205 O206 1.273 . S
O206 C205 1.273 . S
O207 Zn198 1.977 . S
O207 C200 1.267 . S
H208 C214 0.930 1_556 S
H209 C217 0.930 . S
H210 C218 0.930 . S
H211 C219 0.930 1_554 S
H212 C222 0.930 1_655 S
H213 C223 0.930 1_655 S
C214 H208 0.930 1_554 S
C214 C215 1.355 . S
C214 C216 1.415 1_554 S
C215 C214 1.355 . S
C215 C217 1.419 . S
C216 C214 1.415 1_556 S
C216 C221 1.425 1_556 S
C216 C223 1.409 . S
C217 H209 0.930 . S
C217 C215 1.419 . S
C217 C218 1.362 . S
C218 H210 0.930 . S
C218 C217 1.362 . S
C218 C221 1.409 . S
C219 H211 0.930 1_556 S
C219 C220 1.355 . S
C219 C221 1.415 1_556 S
C220 C219 1.355 . S
C220 C222 1.419 . S
C221 C216 1.425 1_554 S
C221 C218 1.409 . S
C221 C219 1.415 1_554 S
C222 H212 0.930 1_455 S
C222 C220 1.419 . S
C222 C223 1.362 . S
C223 H213 0.930 1_455 S
C223 C216 1.409 . S
C223 C222 1.362 . S
H224 C230 0.930 . S
H225 C233 0.930 1_565 S
H226 C234 0.930 1_565 S
H227 C235 0.930 . S
H228 C238 0.930 . S
H229 C239 0.930 . S
C230 H224 0.930 . S
C230 C231 1.355 . S
C230 C232 1.415 . S
C231 C230 1.355 . S
C231 C233 1.419 . S
C232 C230 1.415 . S
C232 C237 1.425 . S
C232 C239 1.409 . S
C233 H225 0.930 1_545 S
C233 C231 1.419 . S
C233 C234 1.362 . S
C234 H226 0.930 1_545 S
C234 C233 1.362 . S
C234 C237 1.409 . S
C235 H227 0.930 . S
C235 C236 1.355 . S
C235 C237 1.415 . S
C236 C235 1.355 . S
C236 C238 1.419 . S
C237 C232 1.425 . S
C237 C234 1.409 . S
C237 C235 1.415 . S
C238 H228 0.930 . S
C238 C236 1.419 . S
C238 C239 1.362 . S
C239 H229 0.930 . S
C239 C232 1.409 . S
C239 C238 1.362 . S
H240 C246 0.930 . S
H241 C249 0.930 . S
H242 C250 0.930 . S
H243 C251 0.930 . S
H244 C254 0.930 . S
H245 C255 0.930 . S
C246 H240 0.930 . S
C246 C247 1.355 . S
C246 C248 1.415 1_554 S
C247 C246 1.355 . S
C247 C249 1.419 . S
C248 C246 1.415 1_556 S
C248 C253 1.425 1_556 S
C248 C255 1.409 . S
C249 H241 0.930 . S
C249 C247 1.419 . S
C249 C250 1.362 . S
C250 H242 0.930 . S
C250 C249 1.362 . S
C250 C253 1.409 . S
C251 H243 0.930 . S
C251 C252 1.355 . S
C251 C253 1.415 1_556 S
C252 C251 1.355 . S
C252 C254 1.419 . S
C253 C248 1.425 1_554 S
C253 C250 1.409 . S
C253 C251 1.415 1_554 S
C254 H244 0.930 . S
C254 C252 1.419 . S
C254 C255 1.362 . S
C255 H245 0.930 . S
C255 C248 1.409 . S
C255 C254 1.362 . S
H256 C262 0.930 . S
H257 C265 0.930 . S
H258 C266 0.930 . S
H259 C267 0.930 . S
H260 C270 0.930 . S
H261 C271 0.930 . S
C262 H256 0.930 . S
C262 C263 1.355 . S
C262 C264 1.415 . S
C263 C262 1.355 . S
C263 C265 1.419 . S
C264 C262 1.415 . S
C264 C269 1.425 . S
C264 C271 1.409 . S
C265 H257 0.930 . S
C265 C263 1.419 . S
C265 C266 1.362 . S
C266 H258 0.930 . S
C266 C265 1.362 . S
C266 C269 1.409 . S
C267 H259 0.930 . S
C267 C268 1.355 . S
C267 C269 1.415 . S
C268 C267 1.355 . S
C268 C270 1.419 . S
C269 C264 1.425 . S
C269 C266 1.409 . S
C269 C267 1.415 . S
C270 H260 0.930 . S
C270 C268 1.419 . S
C270 C271 1.362 . S
C271 H261 0.930 . S
C271 C264 1.409 . S
C271 C270 1.362 . S
H272 C278 0.930 . S
H273 C281 0.930 1_455 S
H274 C282 0.930 1_455 S
H275 C283 0.930 . S
H276 C286 0.930 . S
H277 C287 0.930 . S
C278 H272 0.930 . S
C278 C279 1.355 . S
C278 C280 1.415 1_556 S
C279 C278 1.355 . S
C279 C281 1.419 . S
C280 C278 1.415 1_554 S
C280 C285 1.425 1_554 S
C280 C287 1.409 . S
C281 H273 0.930 1_655 S
C281 C279 1.419 . S
C281 C282 1.362 . S
C282 H274 0.930 1_655 S
C282 C281 1.362 . S
C282 C285 1.409 . S
C283 H275 0.930 . S
C283 C284 1.355 . S
C283 C285 1.415 1_554 S
C284 C283 1.355 . S
C284 C286 1.419 . S
C285 C280 1.425 1_556 S
C285 C282 1.409 . S
C285 C283 1.415 1_556 S
C286 H276 0.930 . S
C286 C284 1.419 . S
C286 C287 1.362 . S
C287 H277 0.930 . S
C287 C280 1.409 . S
C287 C286 1.362 . S
H288 C294 0.930 . S
H289 C297 0.930 . S
H290 C298 0.930 . S
H291 C299 0.930 1_545 S
H292 C302 0.930 . S
H293 C303 0.930 . S
C294 H288 0.930 . S
C294 C295 1.355 . S
C294 C296 1.415 . S
C295 C294 1.355 . S
C295 C297 1.419 1_565 S
C296 C294 1.415 . S
C296 C301 1.425 . S
C296 C303 1.409 . S
C297 H289 0.930 . S
C297 C295 1.419 1_545 S
C297 C298 1.362 . S
C298 H290 0.930 . S
C298 C297 1.362 . S
C298 C301 1.409 1_545 S
C299 H291 0.930 1_565 S
C299 C300 1.355 . S
C299 C301 1.415 . S
C300 C299 1.355 . S
C300 C302 1.419 . S
C301 C296 1.425 . S
C301 C298 1.409 1_565 S
C301 C299 1.415 . S
C302 H292 0.930 . S
C302 C300 1.419 . S
C302 C303 1.362 . S
C303 H293 0.930 . S
C303 C296 1.409 . S
C303 C302 1.362 . S
H304 C310 0.930 . S
H305 C313 0.930 . S
H306 C314 0.930 . S
H307 C315 0.930 . S
H308 C318 0.930 . S
H309 C319 0.930 . S
C310 H304 0.930 . S
C310 C311 1.355 . S
C310 C312 1.415 . S
C311 C310 1.355 . S
C311 C313 1.419 . S
C312 C310 1.415 . S
C312 C317 1.425 1_556 S
C312 C319 1.409 1_556 S
C313 H305 0.930 . S
C313 C311 1.419 . S
C313 C314 1.362 . S
C314 H306 0.930 . S
C314 C313 1.362 . S
C314 C317 1.409 1_556 S
C315 H307 0.930 . S
C315 C316 1.355 . S
C315 C317 1.415 . S
C316 C315 1.355 . S
C316 C318 1.419 . S
C317 C312 1.425 1_554 S
C317 C314 1.409 1_554 S
C317 C315 1.415 . S
C318 H308 0.930 . S
C318 C316 1.419 . S
C318 C319 1.362 . S
C319 H309 0.930 . S
C319 C312 1.409 1_554 S
C319 C318 1.362 . S
H320 C326 0.930 . S
H321 C329 0.930 . S
H322 C330 0.930 . S
H323 C331 0.930 . S
H324 C334 0.930 . S
H325 C335 0.930 . S
C326 H320 0.930 . S
C326 C327 1.355 . S
C326 C328 1.415 . S
C327 C326 1.355 . S
C327 C329 1.419 . S
C328 C326 1.415 . S
C328 C333 1.425 . S
C328 C335 1.409 . S
C329 H321 0.930 . S
C329 C327 1.419 . S
C329 C330 1.362 . S
C330 H322 0.930 . S
C330 C329 1.362 . S
C330 C333 1.409 . S
C331 H323 0.930 . S
C331 C332 1.355 . S
C331 C333 1.415 . S
C332 C331 1.355 . S
C332 C334 1.419 . S
C333 C328 1.425 . S
C333 C330 1.409 . S
C333 C331 1.415 . S
C334 H324 0.930 . S
C334 C332 1.419 . S
C334 C335 1.362 . S
C335 H325 0.930 . S
C335 C328 1.409 . S
C335 C334 1.362 . S
H336 C342 0.930 1_554 S
H337 C345 0.930 . S
H338 C346 0.930 . S
H339 C347 0.930 . S
H340 C350 0.930 . S
H341 C351 0.930 . S
C342 H336 0.930 1_556 S
C342 C343 1.355 . S
C342 C344 1.415 . S
C343 C342 1.355 . S
C343 C345 1.419 . S
C344 C342 1.415 . S
C344 C349 1.425 . S
C344 C351 1.409 . S
C345 H337 0.930 . S
C345 C343 1.419 . S
C345 C346 1.362 . S
C346 H338 0.930 . S
C346 C345 1.362 . S
C346 C349 1.409 . S
C347 H339 0.930 . S
C347 C348 1.355 . S
C347 C349 1.415 . S
C348 C347 1.355 . S
C348 C350 1.419 . S
C349 C344 1.425 . S
C349 C346 1.409 . S
C349 C347 1.415 . S
C350 H340 0.930 . S
C350 C348 1.419 . S
C350 C351 1.362 . S
C351 H341 0.930 . S
C351 C344 1.409 . S
C351 C350 1.362 . S
H352 C358 0.930 . S
H353 C361 0.930 . S
H354 C362 0.930 . S
H355 C363 0.930 . S
H356 C366 0.930 . S
H357 C367 0.930 . S
C358 H352 0.930 . S
C358 C359 1.355 . S
C358 C360 1.415 . S
C359 C358 1.355 . S
C359 C361 1.419 . S
C360 C358 1.415 . S
C360 C365 1.425 . S
C360 C367 1.409 . S
C361 H353 0.930 . S
C361 C359 1.419 . S
C361 C362 1.362 . S
C362 H354 0.930 . S
C362 C361 1.362 . S
C362 C365 1.409 . S
C363 H355 0.930 . S
C363 C364 1.355 . S
C363 C365 1.415 . S
C364 C363 1.355 . S
C364 C366 1.419 . S
C365 C360 1.425 . S
C365 C362 1.409 . S
C365 C363 1.415 . S
C366 H356 0.930 . S
C366 C364 1.419 . S
C366 C367 1.362 . S
C367 H357 0.930 . S
C367 C360 1.409 . S
C367 C366 1.362 . S
H368 C374 0.930 1_554 S
H369 C377 0.930 . S
H370 C378 0.930 . S
H371 C379 0.930 . S
H372 C382 0.930 . S
H373 C383 0.930 . S
C374 H368 0.930 1_556 S
C374 C375 1.355 . S
C374 C376 1.415 . S
C375 C374 1.355 . S
C375 C377 1.419 . S
C376 C374 1.415 . S
C376 C381 1.425 . S
C376 C383 1.409 . S
C377 H369 0.930 . S
C377 C375 1.419 . S
C377 C378 1.362 . S
C378 H370 0.930 . S
C378 C377 1.362 . S
C378 C381 1.409 . S
C379 H371 0.930 . S
C379 C380 1.355 . S
C379 C381 1.415 . S
C380 C379 1.355 . S
C380 C382 1.419 . S
C381 C376 1.425 . S
C381 C378 1.409 . S
C381 C379 1.415 . S
C382 H372 0.930 . S
C382 C380 1.419 . S
C382 C383 1.362 . S
C383 H373 0.930 . S
C383 C376 1.409 . S
C383 C382 1.362 . S
H384 C390 0.930 . S
H385 C393 0.930 . S
H386 C394 0.930 . S
H387 C395 0.930 . S
H388 C398 0.930 . S
H389 C399 0.930 . S
C390 H384 0.930 . S
C390 C391 1.355 . S
C390 C392 1.415 . S
C391 C390 1.355 . S
C391 C393 1.419 . S
C392 C390 1.415 . S
C392 C397 1.425 . S
C392 C399 1.409 . S
C393 H385 0.930 . S
C393 C391 1.419 . S
C393 C394 1.362 . S
C394 H386 0.930 . S
C394 C393 1.362 . S
C394 C397 1.409 . S
C395 H387 0.930 . S
C395 C396 1.355 . S
C395 C397 1.415 . S
C396 C395 1.355 . S
C396 C398 1.419 . S
C397 C392 1.425 . S
C397 C394 1.409 . S
C397 C395 1.415 . S
C398 H388 0.930 . S
C398 C396 1.419 . S
C398 C399 1.362 . S
C399 H389 0.930 . S
C399 C392 1.409 . S
C399 C398 1.362 . S
H400 C406 0.930 . S
H401 C409 0.930 . S
H402 C410 0.930 . S
H403 C411 0.930 . S
H404 C414 0.930 . S
H405 C415 0.930 . S
C406 H400 0.930 . S
C406 C407 1.355 . S
C406 C408 1.415 . S
C407 C406 1.355 . S
C407 C409 1.419 . S
C408 C406 1.415 . S
C408 C413 1.425 . S
C408 C415 1.409 . S
C409 H401 0.930 . S
C409 C407 1.419 . S
C409 C410 1.362 . S
C410 H402 0.930 . S
C410 C409 1.362 . S
C410 C413 1.409 . S
C411 H403 0.930 . S
C411 C412 1.355 . S
C411 C413 1.415 . S
C412 C411 1.355 . S
C412 C414 1.419 . S
C413 C408 1.425 . S
C413 C410 1.409 . S
C413 C411 1.415 . S
C414 H404 0.930 . S
C414 C412 1.419 . S
C414 C415 1.362 . S
C415 H405 0.930 . S
C415 C408 1.409 . S
C415 C414 1.362 . S
H416 C422 0.930 . S
H417 C425 0.930 . S
H418 C426 0.930 . S
H419 C427 0.930 . S
H420 C430 0.930 . S
H421 C431 0.930 . S
C422 H416 0.930 . S
C422 C423 1.355 . S
C422 C424 1.415 . S
C423 C422 1.355 . S
C423 C425 1.419 . S
C424 C422 1.415 . S
C424 C429 1.425 . S
C424 C431 1.409 . S
C425 H417 0.930 . S
C425 C423 1.419 . S
C425 C426 1.362 . S
C426 H418 0.930 . S
C426 C425 1.362 . S
C426 C429 1.409 . S
C427 H419 0.930 . S
C427 C428 1.355 . S
C427 C429 1.415 . S
C428 C427 1.355 . S
C428 C430 1.419 . S
C429 C424 1.425 . S
C429 C426 1.409 . S
C429 C427 1.415 . S
C430 H420 0.930 . S
C430 C428 1.419 . S
C430 C431 1.362 . S
C431 H421 0.930 . S
C431 C424 1.409 . S
C431 C430 1.362 . S
H432 C438 0.930 . S
H433 C441 0.930 . S
H434 C442 0.930 . S
H435 C443 0.930 1_556 S
H436 C446 0.930 . S
H437 C447 0.930 . S
C438 H432 0.930 . S
C438 C439 1.355 . S
C438 C440 1.415 . S
C439 C438 1.355 . S
C439 C441 1.419 . S
C440 C438 1.415 . S
C440 C445 1.425 . S
C440 C447 1.409 . S
C441 H433 0.930 . S
C441 C439 1.419 . S
C441 C442 1.362 . S
C442 H434 0.930 . S
C442 C441 1.362 . S
C442 C445 1.409 . S
C443 H435 0.930 1_554 S
C443 C444 1.355 . S
C443 C445 1.415 . S
C444 C443 1.355 . S
C444 C446 1.419 . S
C445 C440 1.425 . S
C445 C442 1.409 . S
C445 C443 1.415 . S
C446 H436 0.930 . S
C446 C444 1.419 . S
C446 C447 1.362 . S
C447 H437 0.930 . S
C447 C440 1.409 . S
C447 C446 1.362 . S
H448 C454 0.930 . S
H449 C457 0.930 . S
H450 C458 0.930 . S
H451 C459 0.930 . S
H452 C462 0.930 . S
H453 C463 0.930 . S
C454 H448 0.930 . S
C454 C455 1.355 . S
C454 C456 1.415 . S
C455 C454 1.355 . S
C455 C457 1.419 . S
C456 C454 1.415 . S
C456 C461 1.425 . S
C456 C463 1.409 . S
C457 H449 0.930 . S
C457 C455 1.419 . S
C457 C458 1.362 . S
C458 H450 0.930 . S
C458 C457 1.362 . S
C458 C461 1.409 . S
C459 H451 0.930 . S
C459 C460 1.355 . S
C459 C461 1.415 . S
C460 C459 1.355 . S
C460 C462 1.419 . S
C461 C456 1.425 . S
C461 C458 1.409 . S
C461 C459 1.415 . S
C462 H452 0.930 . S
C462 C460 1.419 . S
C462 C463 1.362 . S
C463 H453 0.930 . S
C463 C456 1.409 . S
C463 C462 1.362 . S
H464 C470 0.930 . S
H465 C473 0.930 . S
H466 C474 0.930 1_556 S
H467 C475 0.930 . S
H468 C478 0.930 . S
H469 C479 0.930 . S
C470 H464 0.930 . S
C470 C471 1.355 . S
C470 C472 1.415 . S
C471 C470 1.355 . S
C471 C473 1.419 1_554 S
C472 C470 1.415 . S
C472 C477 1.425 . S
C472 C479 1.409 . S
C473 H465 0.930 . S
C473 C471 1.419 1_556 S
C473 C474 1.362 1_556 S
C474 H466 0.930 1_554 S
C474 C473 1.362 1_554 S
C474 C477 1.409 . S
C475 H467 0.930 . S
C475 C476 1.355 . S
C475 C477 1.415 . S
C476 C475 1.355 . S
C476 C478 1.419 . S
C477 C472 1.425 . S
C477 C474 1.409 . S
C477 C475 1.415 . S
C478 H468 0.930 . S
C478 C476 1.419 . S
C478 C479 1.362 . S
C479 H469 0.930 . S
C479 C472 1.409 . S
C479 C478 1.362 . S
H480 C486 0.930 . S
H481 C489 0.930 . S
H482 C490 0.930 . S
H483 C491 0.930 . S
H484 C494 0.930 . S
H485 C495 0.930 . S
C486 H480 0.930 . S
C486 C487 1.355 . S
C486 C488 1.415 . S
C487 C486 1.355 . S
C487 C489 1.419 . S
C488 C486 1.415 . S
C488 C493 1.425 . S
C488 C495 1.409 . S
C489 H481 0.930 . S
C489 C487 1.419 . S
C489 C490 1.362 . S
C490 H482 0.930 . S
C490 C489 1.362 . S
C490 C493 1.409 . S
C491 H483 0.930 . S
C491 C492 1.355 . S
C491 C493 1.415 . S
C492 C491 1.355 . S
C492 C494 1.419 . S
C493 C488 1.425 . S
C493 C490 1.409 . S
C493 C491 1.415 . S
C494 H484 0.930 . S
C494 C492 1.419 . S
C494 C495 1.362 . S
C495 H485 0.930 . S
C495 C488 1.409 . S
C495 C494 1.362 . S
H496 C502 0.930 . S
H497 C505 0.930 . S
H498 C506 0.930 . S
H499 C507 0.930 1_556 S
H500 C510 0.930 . S
H501 C511 0.930 . S
C502 H496 0.930 . S
C502 C503 1.355 . S
C502 C504 1.415 . S
C503 C502 1.355 . S
C503 C505 1.419 . S
C504 C502 1.415 . S
C504 C509 1.425 . S
C504 C511 1.409 . S
C505 H497 0.930 . S
C505 C503 1.419 . S
C505 C506 1.362 . S
C506 H498 0.930 . S
C506 C505 1.362 . S
C506 C509 1.409 . S
C507 H499 0.930 1_554 S
C507 C508 1.355 . S
C507 C509 1.415 . S
C508 C507 1.355 . S
C508 C510 1.419 . S
C509 C504 1.425 . S
C509 C506 1.409 . S
C509 C507 1.415 . S
C510 H500 0.930 . S
C510 C508 1.419 . S
C510 C511 1.362 . S
C511 H501 0.930 . S
C511 C504 1.409 . S
C511 C510 1.362 . S
H512 C518 0.930 . S
H513 C521 0.930 . S
H514 C522 0.930 . S
H515 C523 0.930 . S
H516 C526 0.930 . S
H517 C527 0.930 . S
C518 H512 0.930 . S
C518 C519 1.355 . S
C518 C520 1.415 . S
C519 C518 1.355 . S
C519 C521 1.419 . S
C520 C518 1.415 . S
C520 C525 1.425 . S
C520 C527 1.409 . S
C521 H513 0.930 . S
C521 C519 1.419 . S
C521 C522 1.362 . S
C522 H514 0.930 . S
C522 C521 1.362 . S
C522 C525 1.409 . S
C523 H515 0.930 . S
C523 C524 1.355 . S
C523 C525 1.415 . S
C524 C523 1.355 . S
C524 C526 1.419 . S
C525 C520 1.425 . S
C525 C522 1.409 . S
C525 C523 1.415 . S
C526 H516 0.930 . S
C526 C524 1.419 . S
C526 C527 1.362 . S
C527 H517 0.930 . S
C527 C520 1.409 . S
C527 C526 1.362 . S
H528 C534 0.930 . S
H529 C537 0.930 . S
H530 C538 0.930 . S
H531 C539 0.930 1_554 S
H532 C542 0.930 . S
H533 C543 0.930 . S
C534 H528 0.930 . S
C534 C535 1.355 . S
C534 C536 1.415 . S
C535 C534 1.355 . S
C535 C537 1.419 . S
C536 C534 1.415 . S
C536 C541 1.425 . S
C536 C543 1.409 . S
C537 H529 0.930 . S
C537 C535 1.419 . S
C537 C538 1.362 . S
C538 H530 0.930 . S
C538 C537 1.362 . S
C538 C541 1.409 . S
C539 H531 0.930 1_556 S
C539 C540 1.355 . S
C539 C541 1.415 . S
C540 C539 1.355 . S
C540 C542 1.419 . S
C541 C536 1.425 . S
C541 C538 1.409 . S
C541 C539 1.415 . S
C542 H532 0.930 . S
C542 C540 1.419 . S
C542 C543 1.362 . S
C543 H533 0.930 . S
C543 C536 1.409 . S
C543 C542 1.362 . S
H544 C550 0.930 . S
H545 C553 0.930 . S
H546 C554 0.930 . S
H547 C555 0.930 . S
H548 C558 0.930 . S
H549 C559 0.930 . S
C550 H544 0.930 . S
C550 C551 1.355 . S
C550 C552 1.415 . S
C551 C550 1.355 . S
C551 C553 1.419 . S
C552 C550 1.415 . S
C552 C557 1.425 . S
C552 C559 1.409 . S
C553 H545 0.930 . S
C553 C551 1.419 . S
C553 C554 1.362 . S
C554 H546 0.930 . S
C554 C553 1.362 . S
C554 C557 1.409 . S
C555 H547 0.930 . S
C555 C556 1.355 . S
C555 C557 1.415 . S
C556 C555 1.355 . S
C556 C558 1.419 . S
C557 C552 1.425 . S
C557 C554 1.409 . S
C557 C555 1.415 . S
C558 H548 0.930 . S
C558 C556 1.419 . S
C558 C559 1.362 . S
C559 H549 0.930 . S
C559 C552 1.409 . S
C559 C558 1.362 . S
H560 C566 0.930 1_554 S
H561 C569 0.930 . S
H562 C570 0.930 . S
H563 C571 0.930 . S
H564 C574 0.930 . S
H565 C575 0.930 . S
C566 H560 0.930 1_556 S
C566 C567 1.355 . S
C566 C568 1.415 . S
C567 C566 1.355 . S
C567 C569 1.419 . S
C568 C566 1.415 . S
C568 C573 1.425 . S
C568 C575 1.409 . S
C569 H561 0.930 . S
C569 C567 1.419 . S
C569 C570 1.362 . S
C570 H562 0.930 . S
C570 C569 1.362 . S
C570 C573 1.409 . S
C571 H563 0.930 . S
C571 C572 1.355 . S
C571 C573 1.415 . S
C572 C571 1.355 . S
C572 C574 1.419 . S
C573 C568 1.425 . S
C573 C570 1.409 . S
C573 C571 1.415 . S
C574 H564 0.930 . S
C574 C572 1.419 . S
C574 C575 1.362 . S
C575 H565 0.930 . S
C575 C568 1.409 . S
C575 C574 1.362 . S
H576 C582 0.930 . S
H577 C585 0.930 . S
H578 C586 0.930 . S
H579 C587 0.930 . S
H580 C590 0.930 . S
H581 C591 0.930 . S
C582 H576 0.930 . S
C582 C583 1.355 . S
C582 C584 1.415 . S
C583 C582 1.355 . S
C583 C585 1.419 . S
C584 C582 1.415 . S
C584 C589 1.425 . S
C584 C591 1.409 . S
C585 H577 0.930 . S
C585 C583 1.419 . S
C585 C586 1.362 . S
C586 H578 0.930 . S
C586 C585 1.362 . S
C586 C589 1.409 . S
C587 H579 0.930 . S
C587 C588 1.355 . S
C587 C589 1.415 . S
C588 C587 1.355 . S
C588 C590 1.419 . S
C589 C584 1.425 . S
C589 C586 1.409 . S
C589 C587 1.415 . S
C590 H580 0.930 . S
C590 C588 1.419 . S
C590 C591 1.362 . S
C591 H581 0.930 . S
C591 C584 1.409 . S
C591 C590 1.362 . S
H592 C598 0.930 . S
H593 C601 0.930 . S
H594 C602 0.930 . S
H595 C603 0.930 . S
H596 C606 0.930 . S
H597 C607 0.930 . S
C598 H592 0.930 . S
C598 C599 1.355 . S
C598 C600 1.415 . S
C599 C598 1.355 . S
C599 C601 1.419 . S
C600 C598 1.415 . S
C600 C605 1.425 . S
C600 C607 1.409 . S
C601 H593 0.930 . S
C601 C599 1.419 . S
C601 C602 1.362 . S
C602 H594 0.930 . S
C602 C601 1.362 . S
C602 C605 1.409 . S
C603 H595 0.930 . S
C603 C604 1.355 . S
C603 C605 1.415 . S
C604 C603 1.355 . S
C604 C606 1.419 . S
C605 C600 1.425 . S
C605 C602 1.409 . S
C605 C603 1.415 . S
C606 H596 0.930 . S
C606 C604 1.419 . S
C606 C607 1.362 . S
C607 H597 0.930 . S
C607 C600 1.409 . S
C607 C606 1.362 . S
H608 C614 0.930 . S
H609 C617 0.930 . S
H610 C618 0.930 . S
H611 C619 0.930 . S
H612 C622 0.930 1_455 S
H613 C623 0.930 . S
C614 H608 0.930 . S
C614 C615 1.355 . S
C614 C616 1.415 . S
C615 C614 1.355 . S
C615 C617 1.419 . S
C616 C614 1.415 . S
C616 C621 1.425 . S
C616 C623 1.409 . S
C617 H609 0.930 . S
C617 C615 1.419 . S
C617 C618 1.362 . S
C618 H610 0.930 . S
C618 C617 1.362 . S
C618 C621 1.409 . S
C619 H611 0.930 . S
C619 C620 1.355 . S
C619 C621 1.415 . S
C620 C619 1.355 . S
C620 C622 1.419 . S
C621 C616 1.425 . S
C621 C618 1.409 . S
C621 C619 1.415 . S
C622 H612 0.930 1_655 S
C622 C620 1.419 . S
C622 C623 1.362 . S
C623 H613 0.930 . S
C623 C616 1.409 . S
C623 C622 1.362 . S
H624 C630 0.930 . S
H625 C633 0.930 . S
H626 C634 0.930 . S
H627 C635 0.930 . S
H628 C638 0.930 . S
H629 C639 0.930 . S
C630 H624 0.930 . S
C630 C631 1.355 . S
C630 C632 1.415 . S
C631 C630 1.355 . S
C631 C633 1.419 . S
C632 C630 1.415 . S
C632 C637 1.425 . S
C632 C639 1.409 . S
C633 H625 0.930 . S
C633 C631 1.419 . S
C633 C634 1.362 . S
C634 H626 0.930 . S
C634 C633 1.362 . S
C634 C637 1.409 . S
C635 H627 0.930 . S
C635 C636 1.355 . S
C635 C637 1.415 . S
C636 C635 1.355 . S
C636 C638 1.419 . S
C637 C632 1.425 . S
C637 C634 1.409 . S
C637 C635 1.415 . S
C638 H628 0.930 . S
C638 C636 1.419 . S
C638 C639 1.362 . S
C639 H629 0.930 . S
C639 C632 1.409 . S
C639 C638 1.362 . S
H640 C646 0.930 . S
H641 C649 0.930 . S
H642 C650 0.930 . S
H643 C651 0.930 . S
H644 C654 0.930 . S
H645 C655 0.930 . S
C646 H640 0.930 . S
C646 C647 1.355 . S
C646 C648 1.415 . S
C647 C646 1.355 . S
C647 C649 1.419 . S
C648 C646 1.415 . S
C648 C653 1.425 . S
C648 C655 1.409 . S
C649 H641 0.930 . S
C649 C647 1.419 . S
C649 C650 1.362 . S
C650 H642 0.930 . S
C650 C649 1.362 . S
C650 C653 1.409 . S
C651 H643 0.930 . S
C651 C652 1.355 . S
C651 C653 1.415 . S
C652 C651 1.355 . S
C652 C654 1.419 . S
C653 C648 1.425 . S
C653 C650 1.409 . S
C653 C651 1.415 . S
C654 H644 0.930 . S
C654 C652 1.419 . S
C654 C655 1.362 . S
C655 H645 0.930 . S
C655 C648 1.409 . S
C655 C654 1.362 . S
H656 C662 0.930 . S
H657 C665 0.930 . S
H658 C666 0.930 . S
H659 C667 0.930 . S
H660 C670 0.930 . S
H661 C671 0.930 . S
C662 H656 0.930 . S
C662 C663 1.355 . S
C662 C664 1.415 . S
C663 C662 1.355 . S
C663 C665 1.419 . S
C664 C662 1.415 . S
C664 C669 1.425 . S
C664 C671 1.409 . S
C665 H657 0.930 . S
C665 C663 1.419 . S
C665 C666 1.362 . S
C666 H658 0.930 . S
C666 C665 1.362 . S
C666 C669 1.409 . S
C667 H659 0.930 . S
C667 C668 1.355 . S
C667 C669 1.415 . S
C668 C667 1.355 . S
C668 C670 1.419 . S
C669 C664 1.425 . S
C669 C666 1.409 . S
C669 C667 1.415 . S
C670 H660 0.930 . S
C670 C668 1.419 . S
C670 C671 1.362 . S
C671 H661 0.930 . S
C671 C664 1.409 . S
C671 C670 1.362 . S
H672 C678 0.930 . S
H673 C681 0.930 . S
H674 C682 0.930 . S
H675 C683 0.930 . S
H676 C686 0.930 . S
H677 C687 0.930 . S
C678 H672 0.930 . S
C678 C679 1.355 . S
C678 C680 1.415 . S
C679 C678 1.355 . S
C679 C681 1.419 . S
C680 C678 1.415 . S
C680 C685 1.425 . S
C680 C687 1.409 . S
C681 H673 0.930 . S
C681 C679 1.419 . S
C681 C682 1.362 . S
C682 H674 0.930 . S
C682 C681 1.362 . S
C682 C685 1.409 . S
C683 H675 0.930 . S
C683 C684 1.355 . S
C683 C685 1.415 . S
C684 C683 1.355 . S
C684 C686 1.419 . S
C685 C680 1.425 . S
C685 C682 1.409 . S
C685 C683 1.415 . S
C686 H676 0.930 . S
C686 C684 1.419 . S
C686 C687 1.362 . S
C687 H677 0.930 . S
C687 C680 1.409 . S
C687 C686 1.362 . S
H688 C694 0.930 . S
H689 C697 0.930 . S
H690 C698 0.930 . S
H691 C699 0.930 . S
H692 C702 0.930 . S
H693 C703 0.930 . S
C694 H688 0.930 . S
C694 C695 1.355 . S
C694 C696 1.415 . S
C695 C694 1.355 . S
C695 C697 1.419 . S
C696 C694 1.415 . S
C696 C701 1.425 . S
C696 C703 1.409 . S
C697 H689 0.930 . S
C697 C695 1.419 . S
C697 C698 1.362 . S
C698 H690 0.930 . S
C698 C697 1.362 . S
C698 C701 1.409 . S
C699 H691 0.930 . S
C699 C700 1.355 . S
C699 C701 1.415 . S
C700 C699 1.355 . S
C700 C702 1.419 . S
C701 C696 1.425 . S
C701 C698 1.409 . S
C701 C699 1.415 . S
C702 H692 0.930 . S
C702 C700 1.419 . S
C702 C703 1.362 . S
C703 H693 0.930 . S
C703 C696 1.409 . S
C703 C702 1.362 . S
H704 C710 0.930 . S
H705 C713 0.930 . S
H706 C714 0.930 . S
H707 C715 0.930 . S
H708 C718 0.930 . S
H709 C719 0.930 . S
C710 H704 0.930 . S
C710 C711 1.355 . S
C710 C712 1.415 . S
C711 C710 1.355 . S
C711 C713 1.419 . S
C712 C710 1.415 . S
C712 C717 1.425 . S
C712 C719 1.409 . S
C713 H705 0.930 . S
C713 C711 1.419 . S
C713 C714 1.362 . S
C714 H706 0.930 . S
C714 C713 1.362 . S
C714 C717 1.409 . S
C715 H707 0.930 . S
C715 C716 1.355 . S
C715 C717 1.415 . S
C716 C715 1.355 . S
C716 C718 1.419 . S
C717 C712 1.425 . S
C717 C714 1.409 . S
C717 C715 1.415 . S
C718 H708 0.930 . S
C718 C716 1.419 . S
C718 C719 1.362 . S
C719 H709 0.930 . S
C719 C712 1.409 . S
C719 C718 1.362 . S
C215 C0 1.286 . S
C220 C52 1.257 . S
C231 C65 1.225 . S
C236 C13 1.255 . S
C247 C26 1.263 . S
C252 C78 1.287 . S
C263 C39 1.224 . S
C268 C91 1.247 . S
C279 C104 1.347 . S
C284 C156 1.315 . S
C295 C169 1.336 . S
C300 C117 1.302 . S
C311 C130 1.341 . S
C316 C182 1.302 . S
C327 C143 1.307 . S
C332 C195 1.324 . S
C343 C8 1.277 1_556 S
C348 C205 1.243 . S
C359 C166 1.190 . S
C364 C21 1.228 . S
C375 C34 1.295 1_556 S
C380 C179 1.286 . S
C391 C192 1.190 . S
C396 C47 1.210 . S
C407 C127 1.239 . S
C412 C60 1.274 1_554 S
C423 C140 1.213 . S
C428 C73 1.222 . S
C439 C153 1.286 . S
C444 C86 1.295 1_554 S
C455 C114 1.284 . S
C460 C99 1.298 . S
C471 C112 1.171 1_554 S
C476 C96 1.071 . S
C487 C57 1.127 . S
C492 C125 1.193 . S
C503 C70 1.084 . S
C508 C138 1.203 1_554 S
C519 C151 1.161 . S
C524 C83 1.095 . S
C535 C18 1.095 . S
C540 C164 1.202 1_556 S
C551 C177 1.168 . S
C556 C31 1.078 . S
C567 C190 1.167 1_556 S
C572 C44 1.171 . S
C583 C203 1.194 . S
C588 C5 1.045 . S
C599 C101 1.375 . S
C604 C10 1.378 . S
C615 C23 1.409 . S
C620 C62 1.344 . S
C631 C36 1.399 . S
C636 C75 1.357 . S
C647 C49 1.399 . S
C652 C88 1.353 . S
C663 C200 1.196 . S
C668 C109 1.163 . S
C679 C161 1.155 . S
C684 C122 1.236 . S
C695 C174 1.253 . S
C700 C135 1.224 . S
C711 C187 1.237 . S
C716 C148 1.155 . S
