# Generated by pormake.
# Topology hcp, (12)-cn, num edge types: 1
# Building blocks:
#     Node 0, Type 0, BuildingBlock: ZALLEG_clean_sbu_0, # of connection points: 12
#     Node 1, Type 0, BuildingBlock: ZALLEG_clean_sbu_0, # of connection points: 12
#     Edge 2, Type (0, 0), BuildingBlock: FUNLAD_clean_linker_0, # of connection points: 2
#     Edge 3, Type (0, 0), BuildingBlock: FUNLAD_clean_linker_0, # of connection points: 2
#     Edge 4, Type (0, 0), BuildingBlock: FUNLAD_clean_linker_0, # of connection points: 2
#     Edge 5, Type (0, 0), BuildingBlock: FUNLAD_clean_linker_0, # of connection points: 2
#     Edge 6, Type (0, 0), BuildingBlock: FUNLAD_clean_linker_0, # of connection points: 2
#     Edge 7, Type (0, 0), BuildingBlock: FUNLAD_clean_linker_0, # of connection points: 2
#     Edge 8, Type (0, 0), BuildingBlock: FUNLAD_clean_linker_0, # of connection points: 2
#     Edge 9, Type (0, 0), BuildingBlock: FUNLAD_clean_linker_0, # of connection points: 2
#     Edge 10, Type (0, 0), BuildingBlock: FUNLAD_clean_linker_0, # of connection points: 2
#     Edge 11, Type (0, 0), BuildingBlock: FUNLAD_clean_linker_0, # of connection points: 2
#     Edge 12, Type (0, 0), BuildingBlock: FUNLAD_clean_linker_0, # of connection points: 2
#     Edge 13, Type (0, 0), BuildingBlock: FUNLAD_clean_linker_0, # of connection points: 2
# Relax obj value: 0.186
# Max RMSD: 0.270
# Mean RMSD: 0.270
data_MOF--net-hcp--node1-ZALLEG_clean_sbu_0--edge1-FUNLAD_clean_linker_0
_symmetry_space_group_name_H-M    P1
_symmetry_Int_Tables_number       1
_symmetry_cell_setting            triclinic
loop_
_symmetry_equiv_pos_as_xyz
'x, y, z'
_cell_length_a     21.178365
_cell_length_b     21.099679
_cell_length_c     32.219348
_cell_angle_alpha  89.62753
_cell_angle_beta   90.125675
_cell_angle_gamma 119.87266
loop_
_atom_site_label
_atom_site_type_symbol
_atom_site_fract_x
_atom_site_fract_y
_atom_site_fract_z
_atom_type_partial_charge
H0 H 0.57836 0.16514 0.26284 0.0
O1 O 0.60026 0.21582 0.27298 0.0
Tb2 Tb 0.54162 0.26647 0.25161 0.0
Tb3 Tb 0.60398 0.21693 0.33824 0.0
Tb4 Tb 0.70687 0.27735 0.25148 0.0
O5 O 0.53913 0.26101 0.31712 0.0
O6 O 0.64821 0.32611 0.22801 0.0
O7 O 0.5871 0.37258 0.27404 0.0
O8 O 0.64748 0.32273 0.36169 0.0
O9 O 0.75613 0.38544 0.2739 0.0
O10 O 0.71064 0.27766 0.31705 0.0
H11 H 0.48887 0.23251 0.32784 0.0
H12 H 0.64825 0.32723 0.19731 0.0
Tb13 Tb 0.58525 0.36731 0.33912 0.0
Tb14 Tb 0.69563 0.43216 0.25255 0.0
H15 H 0.55815 0.3948 0.26454 0.0
H16 H 0.64739 0.32215 0.39231 0.0
Tb17 Tb 0.75371 0.38564 0.33919 0.0
H18 H 0.80681 0.41429 0.26392 0.0
H19 H 0.73893 0.25535 0.32767 0.0
O20 O 0.69375 0.43306 0.31802 0.0
H21 H 0.71578 0.48339 0.32878 0.0
O22 O 0.45527 0.15427 0.26531 0.0
O23 O 0.84069 0.49736 0.32641 0.0
O24 O 0.77306 0.33553 0.39263 0.0
O25 O 0.52702 0.32816 0.19895 0.0
O26 O 0.6297 0.13076 0.32521 0.0
O27 O 0.67019 0.51845 0.26692 0.0
O28 O 0.77019 0.44831 0.19926 0.0
O29 O 0.53458 0.19536 0.39135 0.0
O30 O 0.64722 0.20371 0.19802 0.0
O31 O 0.63371 0.43588 0.3922 0.0
O32 O 0.47332 0.34195 0.32655 0.0
O33 O 0.81886 0.3028 0.2653 0.0
O34 O 0.49855 0.11981 0.32498 0.0
O35 O 0.8001 0.52983 0.26528 0.0
O36 O 0.63679 0.44325 0.20037 0.0
O37 O 0.66678 0.21752 0.39493 0.0
O38 O 0.44311 0.27203 0.26468 0.0
O39 O 0.85108 0.37737 0.32583 0.0
O40 O 0.75074 0.44593 0.3961 0.0
O41 O 0.53411 0.20235 0.19743 0.0
O42 O 0.525 0.30295 0.3959 0.0
O43 O 0.77248 0.3366 0.19797 0.0
O44 O 0.70148 0.17281 0.26389 0.0
O45 O 0.5927 0.47317 0.32636 0.0
C46 C 0.44899 0.10711 0.29539 0.0
C47 C 0.84849 0.54348 0.29554 0.0
C48 C 0.73158 0.27005 0.40977 0.0
C49 C 0.57082 0.39726 0.18535 0.0
C50 C 0.66832 0.12414 0.29445 0.0
C51 C 0.62887 0.52347 0.29679 0.0
C52 C 0.79235 0.40343 0.18354 0.0
C53 C 0.51172 0.2367 0.40956 0.0
C54 C 0.58037 0.18253 0.18242 0.0
C55 C 0.69813 0.45906 0.41007 0.0
C56 C 0.42793 0.30443 0.29559 0.0
C57 C 0.86508 0.34243 0.29567 0.0
H58 H 0.15743 0.58015 0.76587 0.0
O59 O 0.20807 0.60373 0.77602 0.0
Tb60 Tb 0.21009 0.61146 0.84119 0.0
Tb61 Tb 0.26004 0.54571 0.7565 0.0
Tb62 Tb 0.26621 0.7092 0.75193 0.0
O63 O 0.25604 0.54753 0.82203 0.0
O64 O 0.26746 0.71731 0.81734 0.0
O65 O 0.31635 0.65952 0.86416 0.0
O66 O 0.36661 0.59531 0.7785 0.0
O67 O 0.37453 0.76271 0.77392 0.0
O68 O 0.31662 0.65139 0.73031 0.0
H69 H 0.22866 0.49771 0.83388 0.0
H70 H 0.24413 0.74519 0.82682 0.0
Tb71 Tb 0.36278 0.59813 0.84353 0.0
Tb72 Tb 0.37594 0.76492 0.8391 0.0
H73 H 0.3165 0.66124 0.89475 0.0
H74 H 0.38979 0.56679 0.77005 0.0
Tb75 Tb 0.42295 0.70297 0.75453 0.0
H76 H 0.40245 0.81319 0.76314 0.0
H77 H 0.31709 0.65003 0.69963 0.0
O78 O 0.42504 0.70561 0.81998 0.0
H79 H 0.47535 0.72925 0.83072 0.0
O80 O 0.11441 0.50385 0.8296 0.0
O81 O 0.51955 0.80935 0.76588 0.0
O82 O 0.43445 0.64179 0.70405 0.0
O83 O 0.21056 0.67737 0.89615 0.0
O84 O 0.19339 0.53281 0.70219 0.0
O85 O 0.43812 0.76747 0.89664 0.0
O86 O 0.36439 0.86003 0.82219 0.0
O87 O 0.26894 0.44945 0.77309 0.0
O88 O 0.16034 0.7005 0.76337 0.0
O89 O 0.46947 0.60806 0.83166 0.0
O90 O 0.3012 0.53921 0.90106 0.0
O91 O 0.32497 0.77643 0.69865 0.0
O92 O 0.14889 0.45859 0.77118 0.0
O93 O 0.48686 0.85238 0.82556 0.0
O94 O 0.32588 0.78648 0.89119 0.0
O95 O 0.32117 0.53006 0.70451 0.0
O96 O 0.19238 0.546 0.89636 0.0
O97 O 0.43635 0.77415 0.69955 0.0
O98 O 0.51159 0.68209 0.77053 0.0
O99 O 0.12138 0.63236 0.82634 0.0
O100 O 0.34012 0.48645 0.83467 0.0
O101 O 0.28789 0.82054 0.76228 0.0
O102 O 0.19307 0.64541 0.69924 0.0
O103 O 0.43176 0.65149 0.89578 0.0
C104 C 0.10186 0.45322 0.80078 0.0
C105 C 0.53314 0.85888 0.7954 0.0
C106 C 0.38938 0.57448 0.69026 0.0
C107 C 0.26175 0.74437 0.90925 0.0
C108 C 0.17211 0.57733 0.68559 0.0
C109 C 0.45353 0.71688 0.91205 0.0
C110 C 0.32767 0.86999 0.79113 0.0
C111 C 0.30257 0.43799 0.8051 0.0
C112 C 0.11245 0.66755 0.79418 0.0
C113 C 0.51886 0.64386 0.80175 0.0
C114 C 0.23544 0.5254 0.91499 0.0
C115 C 0.39155 0.79691 0.68431 0.0
C116 C 0.28286 0.75769 0.98478 0.0
C117 C 0.25534 0.77446 0.94922 0.0
C118 C 0.31437 0.8084 1.01711 0.0
C119 C 0.31756 0.87657 1.0148 0.0
C120 C 0.28264 0.8897 0.98138 0.0
C121 C 0.25301 0.83983 0.94864 0.0
C122 C 0.35866 0.93626 1.04548 0.0
C123 C 0.42137 0.94871 0.06411 0.0
C124 C 0.46692 0.01277 0.09181 0.0
C125 C 0.52069 0.01187 0.11739 0.0
C126 C 0.562 0.06942 0.14506 0.0
C127 C 0.55045 0.12932 0.14767 0.0
H128 H 0.42111 0.08069 0.07275 0.0
C129 C 0.49971 0.13207 0.12051 0.0
C130 C 0.45897 0.07515 0.09287 0.0
H131 H 0.48991 0.1778 0.1214 0.0
H132 H 0.28682 0.7086 0.98565 0.0
H133 H 0.33872 0.79531 1.04294 0.0
H134 H 0.28332 0.94128 0.97895 0.0
H135 H 0.23444 0.85549 0.92111 0.0
H136 H 0.33844 0.97376 1.05036 0.0
H137 H 0.441 0.91076 0.05857 0.0
H138 H 0.52926 0.96537 0.11694 0.0
H139 H 0.60002 0.06515 0.16583 0.0
C140 C 0.49631 0.56794 0.66392 0.0
C141 C 0.42252 0.54793 0.65925 0.0
C142 C 0.53355 0.55402 0.63277 0.0
C143 C 0.49809 0.51984 0.59576 0.0
C144 C 0.42343 0.49732 0.59168 0.0
C145 C 0.38571 0.51052 0.62331 0.0
C146 C 0.53887 0.51358 0.55957 0.0
C147 C 0.60337 0.51476 0.56226 0.0
C148 C 0.64392 0.51348 0.52468 0.0
C149 C 0.67952 0.47214 0.52442 0.0
C150 C 0.70876 0.46252 0.48735 0.0
C151 C 0.70365 0.49498 0.45025 0.0
H152 H 0.62189 0.58683 0.48809 0.0
C153 C 0.67615 0.54345 0.45196 0.0
C154 C 0.6462 0.55221 0.48858 0.0
H155 H 0.67106 0.56895 0.42379 0.0
H156 H 0.5262 0.59667 0.69142 0.0
H157 H 0.59099 0.57351 0.63711 0.0
H158 H 0.39465 0.47116 0.56344 0.0
H159 H 0.32913 0.49496 0.61872 0.0
H160 H 0.51438 0.50779 0.52914 0.0
H161 H 0.62549 0.51318 0.59241 0.0
H162 H 0.68003 0.443 0.55211 0.0
H163 H 0.72884 0.42441 0.48694 0.0
C164 C 0.84636 0.37699 0.122 0.0
C165 C 0.84721 0.42881 0.14961 0.0
C166 C 0.90499 0.39472 0.09541 0.0
C167 C 0.96711 0.46485 0.09596 0.0
C168 C 0.96613 0.51808 0.12181 0.0
C169 C 0.90688 0.50028 0.14845 0.0
C170 C 0.03249 0.4844 0.06933 0.0
C171 C 0.0478 0.43449 0.05301 0.0
C172 C 0.10734 0.45281 1.02232 0.0
C173 C 0.09544 0.40296 0.99039 0.0
C174 C 0.14437 0.42261 0.95717 0.0
C175 C 0.20753 0.49158 0.9559 0.0
H176 H 0.18582 0.55814 1.0477 0.0
C177 C 0.22369 0.53804 0.99016 0.0
C178 C 0.17372 0.51934 1.02292 0.0
H179 H 0.2717 0.59177 0.98967 0.0
H180 H 0.80083 0.32155 0.1218 0.0
H181 H 0.9011 0.35276 0.07476 0.0
H182 H 0.01244 0.57301 0.12243 0.0
H183 H 0.9096 0.54122 0.16964 0.0
H184 H 0.06857 0.54197 0.06255 0.0
H185 H 0.01224 0.37687 0.05961 0.0
H186 H 0.04525 0.35092 0.98937 0.0
H187 H 0.12941 0.38664 0.93064 0.0
C188 C 0.40935 0.91686 0.66091 0.0
C189 C 0.4185 0.85644 0.65297 0.0
C190 C 0.42214 0.96881 0.63007 0.0
C191 C 0.44439 0.96165 0.59014 0.0
C192 C 0.45619 0.90247 0.58264 0.0
C193 C 0.44392 0.85056 0.61386 0.0
C194 C 0.44948 0.01072 0.55493 0.0
C195 C 0.45662 0.07787 0.5593 0.0
C196 C 0.45842 0.12311 0.52296 0.0
C197 C 0.50541 0.19935 0.5229 0.0
C198 C 0.5154 0.24082 0.48663 0.0
C199 C 0.47744 0.20671 0.45018 0.0
H200 H 0.37652 0.03265 0.48722 0.0
C201 C 0.42443 0.13212 0.45189 0.0
C202 C 0.41518 0.09072 0.48776 0.0
H203 H 0.39526 0.10416 0.42405 0.0
H204 H 0.38986 0.92265 0.69091 0.0
H205 H 0.41103 0.0123 0.63728 0.0
H206 H 0.47302 0.89521 0.55215 0.0
H207 H 0.4506 0.80413 0.60679 0.0
H208 H 0.44776 -0.00952 0.52377 0.0
H209 H 0.4656 0.10239 0.5898 0.0
H210 H 0.53851 0.22596 0.54987 0.0
H211 H 0.55804 0.29765 0.48594 0.0
C212 C 0.55682 0.50206 0.16236 0.0
C213 C 0.54412 0.43107 0.15459 0.0
C214 C 0.54449 0.54198 0.13181 0.0
C215 C 0.51922 0.51203 0.09233 0.0
C216 C 0.50376 0.43974 0.08505 0.0
C217 C 0.51548 0.39929 0.11601 0.0
C218 C 0.51489 0.55667 0.05725 0.0
C219 C 0.51066 0.61832 0.06181 0.0
C220 C 0.50968 0.66224 1.02552 0.0
C221 C 0.46364 0.69259 1.02546 0.0
C222 C 0.45362 0.72359 0.98901 0.0
C223 C 0.49027 0.72556 0.95233 0.0
H224 H 0.59068 0.6521 0.98972 0.0
C225 C 0.54342 0.70411 0.95423 0.0
C226 C 0.55261 0.67226 0.99024 0.0
H227 H 0.57197 0.7042 0.92632 0.0
H228 H 0.5789 0.52795 0.19192 0.0
H229 H 0.55842 0.59752 0.1388 0.0
H230 H 0.48451 0.41518 0.05489 0.0
H231 H 0.50596 0.34507 0.10903 0.0
H232 H 0.5148 0.53738 1.02604 0.0
H233 H 0.50344 0.63489 0.09243 0.0
H234 H 0.43106 0.68709 0.05256 0.0
H235 H 0.41171 0.7386 0.98838 0.0
C236 C 0.74525 0.29213 0.48523 0.0
C237 C 0.76012 0.26239 0.45015 0.0
C238 C 0.79553 0.32109 0.518 0.0
C239 C 0.86115 0.31943 0.51662 0.0
C240 C 0.87198 0.28256 0.48359 0.0
C241 C 0.82273 0.25552 0.4504 0.0
C242 C 0.92048 0.35706 0.54802 0.0
C243 C 0.93683 0.42114 0.56646 0.0
C244 C 0.00063 0.46366 0.59501 0.0
C245 C 0.00673 0.52468 0.61639 0.0
C246 C 0.06437 0.56466 0.64424 0.0
C247 C 0.11749 0.54451 0.65147 0.0
H248 H 0.05605 0.40143 0.58476 0.0
C249 C 0.11301 0.48546 0.62888 0.0
C250 C 0.05596 0.44592 0.60106 0.0
H251 H 0.15331 0.46864 0.63322 0.0
H252 H 0.69794 0.29913 0.4855 0.0
H253 H 0.78416 0.34703 0.54352 0.0
H254 H 0.9215 0.27953 0.48187 0.0
H255 H 0.83691 0.23518 0.42324 0.0
H256 H 0.95455 0.33298 0.55339 0.0
H257 H 0.90259 0.44481 0.55974 0.0
H258 H 0.9658 0.54067 0.61222 0.0
H259 H 0.06559 0.60933 0.66129 0.0
C260 C 0.64398 0.00616 0.32654 0.0
C261 C 0.67333 0.057 0.2938 0.0
C262 C 0.64528 0.94092 0.32507 0.0
C263 C 0.67545 0.92499 0.29063 0.0
C264 C 0.7072 0.97681 0.25868 0.0
C265 C 0.70591 0.04216 0.2601 0.0
C266 C 0.67502 0.85512 0.28722 0.0
C267 C 0.62253 0.79266 0.30426 0.0
C268 C 0.62206 0.72275 0.3008 0.0
C269 C 0.58994 0.67072 0.33262 0.0
C270 C 0.59117 0.60534 0.33116 0.0
C271 C 0.62413 0.59074 0.29757 0.0
H272 H 0.67509 0.74455 0.24049 0.0
C273 C 0.65395 0.64184 0.26498 0.0
C274 C 0.65259 0.70702 0.26645 0.0
H275 H 0.67867 0.63183 0.23828 0.0
H276 H 0.61957 0.01635 0.35332 0.0
H277 H 0.62302 0.90351 0.3511 0.0
H278 H 0.73157 0.96598 0.23209 0.0
H279 H 0.7294 0.08031 0.23444 0.0
H280 H 0.71836 0.85526 0.2692 0.0
H281 H 0.57921 0.79254 0.32228 0.0
H282 H 0.5653 0.6814 0.35915 0.0
H283 H 0.5674 0.567 0.35672 0.0
C284 C -0.01439 0.62308 0.81879 0.0
C285 C 0.0431 0.66775 0.79188 0.0
C286 C 0.91897 0.62085 0.8158 0.0
C287 C 0.90873 0.664 0.7861 0.0
C288 C 0.96586 0.70812 0.75898 0.0
C289 C 0.03257 0.71023 0.76188 0.0
C290 C 0.8387 0.6628 0.78176 0.0
C291 C 0.7917 0.64644 0.81344 0.0
C292 C 0.72184 0.64564 0.80923 0.0
C293 C 0.66513 0.60265 0.83685 0.0
C294 C 0.59869 0.60118 0.8342 0.0
C295 C 0.588 0.64318 0.80394 0.0
H296 H 0.75461 0.72432 0.7584 0.0
C297 C 0.64505 0.68662 0.77648 0.0
C298 C 0.71141 0.68825 0.77924 0.0
H299 H 0.63917 0.72054 0.75316 0.0
H300 H -0.00864 0.58859 0.84176 0.0
H301 H 0.87541 0.58395 0.83619 0.0
H302 H 0.95899 0.74138 0.73561 0.0
H303 H 0.07567 0.74503 0.74055 0.0
H304 H 0.82659 0.67703 0.75152 0.0
H305 H 0.80393 0.63224 0.84367 0.0
H306 H 0.67213 0.56985 0.86046 0.0
H307 H 0.55599 0.56732 0.85598 0.0
C308 C 0.3248 0.02101 0.26827 0.0
C309 C 0.38007 0.03697 0.29744 0.0
C310 C 0.25762 0.95729 0.27189 0.0
C311 C 0.24457 0.9077 0.30457 0.0
C312 C 0.29988 0.92336 0.33352 0.0
C313 C 0.36709 0.98718 0.32996 0.0
C314 C 0.17324 0.84078 0.3105 0.0
C315 C 0.12581 0.80766 0.27939 0.0
C316 C 0.05425 0.74114 0.28548 0.0
C317 C -0.0015 0.7264 0.25702 0.0
C318 C 0.93084 0.66322 0.26093 0.0
C319 C 0.91787 0.61316 0.29329 0.0
H320 H 0.08352 0.69923 0.33972 0.0
C321 C 0.97365 0.62814 0.32192 0.0
C322 C 0.04127 0.69123 0.31796 0.0
H323 H 0.96594 0.59037 0.34692 0.0
H324 H 0.33259 0.05841 0.24305 0.0
H325 H 0.21574 0.94863 0.24969 0.0
H326 H 0.29095 0.88626 0.35914 0.0
H327 H 0.40824 -0.00212 0.35317 0.0
H328 H 0.1601 0.8183 0.34172 0.0
H329 H 0.13885 0.83008 0.24816 0.0
H330 H 0.00738 0.76379 0.23157 0.0
H331 H 0.88928 0.65325 0.23814 0.0
C332 C 0.27504 0.31856 0.7743 0.0
C333 C 0.29937 0.3668 0.808 0.0
C334 C 0.27645 0.25329 0.77639 0.0
C335 C 0.30246 0.23534 0.81223 0.0
C336 C 0.32369 0.28192 0.84649 0.0
C337 C 0.32264 0.3473 0.84436 0.0
C338 C 0.30822 0.16861 0.81496 0.0
C339 C 0.3213 0.139 0.78164 0.0
C340 C 0.32667 0.07211 0.78438 0.0
C341 C 0.30324 0.02449 0.75057 0.0
C342 C 0.30414 0.95907 0.7527 0.0
C343 C 0.32991 0.94074 0.78848 0.0
H344 H 0.37525 0.09195 0.84584 0.0
C345 C 0.35606 -0.01016 0.82177 0.0
C346 C 0.35444 0.05504 0.81977 0.0
H347 H 0.37667 0.97752 0.84966 0.0
H348 H 0.25607 0.33165 0.74602 0.0
H349 H 0.25697 0.21712 0.74996 0.0
H350 H 0.34287 0.2686 0.87463 0.0
H351 H 0.34074 0.38274 0.87117 0.0
H352 H 0.30372 0.14476 0.84556 0.0
H353 H 0.32584 0.16274 0.75102 0.0
H354 H 0.28246 0.03706 0.72282 0.0
H355 H 0.28407 0.92277 0.72631 0.0
C356 C 0.3367 0.33327 0.32618 0.0
C357 C 0.35604 0.29992 0.29492 0.0
C358 C 0.27025 0.33195 0.32456 0.0
C359 C 0.22193 0.29768 0.29142 0.0
C360 C 0.24015 0.26237 0.26095 0.0
C361 C 0.30663 0.26369 0.26253 0.0
C362 C 0.15178 0.29678 0.28789 0.0
C363 C 0.14069 0.3491 0.30403 0.0
C364 C 0.07057 0.34821 0.30044 0.0
C365 C 0.05192 0.38282 0.33112 0.0
C366 C -0.01445 0.3817 0.32939 0.0
C367 C 0.93671 0.3464 0.29662 0.0
H368 H 0.03652 0.29002 0.24185 0.0
C369 C 0.95645 0.31367 0.26519 0.0
C370 C 0.02278 0.31476 0.26698 0.0
H371 H 0.92071 0.28693 0.23915 0.0
H372 H 0.37293 0.36085 0.35191 0.0
H373 H 0.25692 0.35726 0.34956 0.0
H374 H 0.20343 0.23481 0.23538 0.0
H375 H 0.31943 0.23697 0.23803 0.0
H376 H 0.10871 0.25217 0.27056 0.0
H377 H 0.18369 0.39372 0.32137 0.0
H378 H 0.08823 0.40969 0.35695 0.0
H379 H 0.97239 0.4078 0.35407 0.0
C380 C 0.00985 0.33462 0.76956 0.0
C381 C 0.0303 0.38579 0.80173 0.0
C382 C 0.94274 0.27035 0.77068 0.0
C383 C 0.89495 0.25564 0.80423 0.0
C384 C 0.91454 0.30746 0.83583 0.0
C385 C 0.98169 0.37183 0.83473 0.0
C386 C 0.82382 0.18758 0.8069 0.0
C387 C 0.81136 0.1245 0.78964 0.0
C388 C 0.74025 0.05636 0.79229 0.0
C389 C 0.72123 0.00409 0.761 0.0
C390 C 0.65407 0.9397 0.76202 0.0
C391 C 0.60485 0.92618 0.79462 0.0
H392 H 0.70579 0.07964 0.85107 0.0
C393 C 0.62476 0.97779 0.82651 0.0
C394 C 0.69188 0.04205 0.82549 0.0
H395 H 0.58871 0.96868 0.85245 0.0
H396 H 0.0454 0.34418 0.74329 0.0
H397 H 0.92831 0.23305 0.7449 0.0
H398 H 0.87824 0.29763 0.86177 0.0
H399 H -0.00445 0.41017 0.85998 0.0
H400 H 0.78122 0.18973 0.82442 0.0
H401 H 0.85406 0.12245 0.77214 0.0
H402 H 0.75798 0.01356 0.73535 0.0
H403 H 0.64071 0.90097 0.73704 0.0
loop_
_geom_bond_atom_site_label_1
_geom_bond_atom_site_label_2
_geom_bond_distance
_geom_bond_site_symmetry_2
_ccdc_geom_bond_type
H0 O1 0.850 . S
O1 H0 0.850 . S
O1 Tb2 2.341 . S
O1 Tb3 2.341 . S
O1 Tb4 2.341 . S
Tb2 O1 2.341 . S
Tb2 O5 2.341 . S
Tb2 O6 2.341 . S
Tb2 O7 2.341 . S
Tb2 O22 2.344 . S
Tb2 O25 2.344 . S
Tb2 O38 2.344 . S
Tb2 O41 2.344 . S
Tb3 O1 2.341 . S
Tb3 O5 2.341 . S
Tb3 O8 2.341 . S
Tb3 O10 2.341 . S
Tb3 O26 2.344 . S
Tb3 O29 2.344 . S
Tb3 O34 2.344 . S
Tb3 O37 2.344 . S
Tb4 O1 2.341 . S
Tb4 O6 2.341 . S
Tb4 O9 2.341 . S
Tb4 O10 2.341 . S
Tb4 O30 2.344 . S
Tb4 O33 2.344 . S
Tb4 O43 2.344 . S
Tb4 O44 2.344 . S
O5 Tb2 2.341 . S
O5 Tb3 2.341 . S
O5 H11 0.850 . S
O5 Tb13 2.341 . S
O6 Tb2 2.341 . S
O6 Tb4 2.341 . S
O6 H12 0.850 . S
O6 Tb14 2.341 . S
O7 Tb2 2.341 . S
O7 Tb13 2.341 . S
O7 Tb14 2.341 . S
O7 H15 0.850 . S
O8 Tb3 2.341 . S
O8 Tb13 2.341 . S
O8 H16 0.850 . S
O8 Tb17 2.341 . S
O9 Tb4 2.341 . S
O9 Tb14 2.341 . S
O9 Tb17 2.341 . S
O9 H18 0.850 . S
O10 Tb3 2.341 . S
O10 Tb4 2.341 . S
O10 Tb17 2.341 . S
O10 H19 0.850 . S
H11 O5 0.850 . S
H12 O6 0.850 . S
Tb13 O5 2.341 . S
Tb13 O7 2.341 . S
Tb13 O8 2.341 . S
Tb13 O20 2.341 . S
Tb13 O31 2.344 . S
Tb13 O32 2.344 . S
Tb13 O42 2.344 . S
Tb13 O45 2.344 . S
Tb14 O6 2.341 . S
Tb14 O7 2.341 . S
Tb14 O9 2.341 . S
Tb14 O20 2.341 . S
Tb14 O27 2.344 . S
Tb14 O28 2.344 . S
Tb14 O35 2.344 . S
Tb14 O36 2.344 . S
H15 O7 0.850 . S
H16 O8 0.850 . S
Tb17 O8 2.341 . S
Tb17 O9 2.341 . S
Tb17 O10 2.341 . S
Tb17 O20 2.341 . S
Tb17 O23 2.344 . S
Tb17 O24 2.344 . S
Tb17 O39 2.344 . S
Tb17 O40 2.344 . S
H18 O9 0.850 . S
H19 O10 0.850 . S
O20 Tb13 2.341 . S
O20 Tb14 2.341 . S
O20 Tb17 2.341 . S
O20 H21 0.850 . S
H21 O20 0.850 . S
O22 Tb2 2.344 . S
O22 C46 1.272 . S
O23 Tb17 2.344 . S
O23 C47 1.272 . S
O24 Tb17 2.344 . S
O24 C48 1.272 . S
O25 Tb2 2.344 . S
O25 C49 1.272 . S
O26 Tb3 2.344 . S
O26 C50 1.272 . S
O27 Tb14 2.344 . S
O27 C51 1.272 . S
O28 Tb14 2.344 . S
O28 C52 1.272 . S
O29 Tb3 2.344 . S
O29 C53 1.272 . S
O30 Tb4 2.344 . S
O30 C54 1.272 . S
O31 Tb13 2.344 . S
O31 C55 1.272 . S
O32 Tb13 2.344 . S
O32 C56 1.272 . S
O33 Tb4 2.344 . S
O33 C57 1.272 . S
O34 Tb3 2.344 . S
O34 C46 1.272 . S
O35 Tb14 2.344 . S
O35 C47 1.272 . S
O36 Tb14 2.344 . S
O36 C49 1.272 . S
O37 Tb3 2.344 . S
O37 C48 1.272 . S
O38 Tb2 2.344 . S
O38 C56 1.272 . S
O39 Tb17 2.344 . S
O39 C57 1.272 . S
O40 Tb17 2.344 . S
O40 C55 1.272 . S
O41 Tb2 2.344 . S
O41 C54 1.272 . S
O42 Tb13 2.344 . S
O42 C53 1.272 . S
O43 Tb4 2.344 . S
O43 C52 1.272 . S
O44 Tb4 2.344 . S
O44 C50 1.272 . S
O45 Tb13 2.344 . S
O45 C51 1.272 . S
C46 O22 1.272 . S
C46 O34 1.272 . S
C47 O23 1.272 . S
C47 O35 1.272 . S
C48 O24 1.272 . S
C48 O37 1.272 . S
C49 O25 1.272 . S
C49 O36 1.272 . S
C50 O26 1.272 . S
C50 O44 1.272 . S
C51 O27 1.272 . S
C51 O45 1.272 . S
C52 O28 1.272 . S
C52 O43 1.272 . S
C53 O29 1.272 . S
C53 O42 1.272 . S
C54 O30 1.272 . S
C54 O41 1.272 . S
C55 O31 1.272 . S
C55 O40 1.272 . S
C56 O32 1.272 . S
C56 O38 1.272 . S
C57 O33 1.272 . S
C57 O39 1.272 . S
H58 O59 0.850 . S
O59 H58 0.850 . S
O59 Tb60 2.341 . S
O59 Tb61 2.341 . S
O59 Tb62 2.341 . S
Tb60 O59 2.341 . S
Tb60 O63 2.341 . S
Tb60 O64 2.341 . S
Tb60 O65 2.341 . S
Tb60 O80 2.344 . S
Tb60 O83 2.344 . S
Tb60 O96 2.344 . S
Tb60 O99 2.344 . S
Tb61 O59 2.341 . S
Tb61 O63 2.341 . S
Tb61 O66 2.341 . S
Tb61 O68 2.341 . S
Tb61 O84 2.344 . S
Tb61 O87 2.344 . S
Tb61 O92 2.344 . S
Tb61 O95 2.344 . S
Tb62 O59 2.341 . S
Tb62 O64 2.341 . S
Tb62 O67 2.341 . S
Tb62 O68 2.341 . S
Tb62 O88 2.344 . S
Tb62 O91 2.344 . S
Tb62 O101 2.344 . S
Tb62 O102 2.344 . S
O63 Tb60 2.341 . S
O63 Tb61 2.341 . S
O63 H69 0.850 . S
O63 Tb71 2.341 . S
O64 Tb60 2.341 . S
O64 Tb62 2.341 . S
O64 H70 0.850 . S
O64 Tb72 2.341 . S
O65 Tb60 2.341 . S
O65 Tb71 2.341 . S
O65 Tb72 2.341 . S
O65 H73 0.850 . S
O66 Tb61 2.341 . S
O66 Tb71 2.341 . S
O66 H74 0.850 . S
O66 Tb75 2.341 . S
O67 Tb62 2.341 . S
O67 Tb72 2.341 . S
O67 Tb75 2.341 . S
O67 H76 0.850 . S
O68 Tb61 2.341 . S
O68 Tb62 2.341 . S
O68 Tb75 2.341 . S
O68 H77 0.850 . S
H69 O63 0.850 . S
H70 O64 0.850 . S
Tb71 O63 2.341 . S
Tb71 O65 2.341 . S
Tb71 O66 2.341 . S
Tb71 O78 2.341 . S
Tb71 O89 2.344 . S
Tb71 O90 2.344 . S
Tb71 O100 2.344 . S
Tb71 O103 2.344 . S
Tb72 O64 2.341 . S
Tb72 O65 2.341 . S
Tb72 O67 2.341 . S
Tb72 O78 2.341 . S
Tb72 O85 2.344 . S
Tb72 O86 2.344 . S
Tb72 O93 2.344 . S
Tb72 O94 2.344 . S
H73 O65 0.850 . S
H74 O66 0.850 . S
Tb75 O66 2.341 . S
Tb75 O67 2.341 . S
Tb75 O68 2.341 . S
Tb75 O78 2.341 . S
Tb75 O81 2.344 . S
Tb75 O82 2.344 . S
Tb75 O97 2.344 . S
Tb75 O98 2.344 . S
H76 O67 0.850 . S
H77 O68 0.850 . S
O78 Tb71 2.341 . S
O78 Tb72 2.341 . S
O78 Tb75 2.341 . S
O78 H79 0.850 . S
H79 O78 0.850 . S
O80 Tb60 2.344 . S
O80 C104 1.272 . S
O81 Tb75 2.344 . S
O81 C105 1.272 . S
O82 Tb75 2.344 . S
O82 C106 1.272 . S
O83 Tb60 2.344 . S
O83 C107 1.272 . S
O84 Tb61 2.344 . S
O84 C108 1.272 . S
O85 Tb72 2.344 . S
O85 C109 1.272 . S
O86 Tb72 2.344 . S
O86 C110 1.272 . S
O87 Tb61 2.344 . S
O87 C111 1.272 . S
O88 Tb62 2.344 . S
O88 C112 1.272 . S
O89 Tb71 2.344 . S
O89 C113 1.272 . S
O90 Tb71 2.344 . S
O90 C114 1.272 . S
O91 Tb62 2.344 . S
O91 C115 1.272 . S
O92 Tb61 2.344 . S
O92 C104 1.272 . S
O93 Tb72 2.344 . S
O93 C105 1.272 . S
O94 Tb72 2.344 . S
O94 C107 1.272 . S
O95 Tb61 2.344 . S
O95 C106 1.272 . S
O96 Tb60 2.344 . S
O96 C114 1.272 . S
O97 Tb75 2.344 . S
O97 C115 1.272 . S
O98 Tb75 2.344 . S
O98 C113 1.272 . S
O99 Tb60 2.344 . S
O99 C112 1.272 . S
O100 Tb71 2.344 . S
O100 C111 1.272 . S
O101 Tb62 2.344 . S
O101 C110 1.272 . S
O102 Tb62 2.344 . S
O102 C108 1.272 . S
O103 Tb71 2.344 . S
O103 C109 1.272 . S
C104 O80 1.272 . S
C104 O92 1.272 . S
C105 O81 1.272 . S
C105 O93 1.272 . S
C106 O82 1.272 . S
C106 O95 1.272 . S
C107 O83 1.272 . S
C107 O94 1.272 . S
C108 O84 1.272 . S
C108 O102 1.272 . S
C109 O85 1.272 . S
C109 O103 1.272 . S
C110 O86 1.272 . S
C110 O101 1.272 . S
C111 O87 1.272 . S
C111 O100 1.272 . S
C112 O88 1.272 . S
C112 O99 1.272 . S
C113 O89 1.272 . S
C113 O98 1.272 . S
C114 O90 1.272 . S
C114 O96 1.272 . S
C115 O91 1.272 . S
C115 O97 1.272 . S
C116 C117 1.386 . S
C116 C118 1.383 . S
C116 H132 0.951 . S
C117 C116 1.386 . S
C117 C121 1.383 . S
C118 C116 1.383 . S
C118 C119 1.402 . S
C118 H133 0.951 . S
C119 C118 1.402 . S
C119 C120 1.375 . S
C119 C122 1.481 . S
C120 C119 1.375 . S
C120 C121 1.367 . S
C120 H134 0.951 . S
C121 C117 1.383 . S
C121 C120 1.367 . S
C121 H135 0.950 . S
C122 C119 1.481 . S
C122 C123 1.297 1_556 S
C122 H136 0.950 1_565 S
C123 C122 1.297 1_554 S
C123 C124 1.479 1_565 S
C123 H137 0.950 . S
C124 C123 1.479 1_545 S
C124 C125 1.375 . S
C124 C130 1.404 . S
C125 C124 1.375 . S
C125 C126 1.369 . S
C125 H138 0.950 1_545 S
C126 C125 1.369 . S
C126 C127 1.392 . S
C126 H139 0.951 . S
C127 C126 1.392 . S
C127 C129 1.384 . S
H128 C130 0.949 . S
C129 C127 1.384 . S
C129 C130 1.385 . S
C129 H131 0.950 . S
C130 C124 1.404 . S
C130 H128 0.949 . S
C130 C129 1.385 . S
H131 C129 0.950 . S
H132 C116 0.951 . S
H133 C118 0.951 . S
H134 C120 0.951 . S
H135 C121 0.950 . S
H136 C122 0.950 1_545 S
H137 C123 0.950 . S
H138 C125 0.950 1_565 S
H139 C126 0.951 . S
C140 C141 1.386 . S
C140 C142 1.383 . S
C140 H156 0.951 . S
C141 C140 1.386 . S
C141 C145 1.383 . S
C142 C140 1.383 . S
C142 C143 1.402 . S
C142 H157 0.951 . S
C143 C142 1.402 . S
C143 C144 1.375 . S
C143 C146 1.481 . S
C144 C143 1.375 . S
C144 C145 1.367 . S
C144 H158 0.951 . S
C145 C141 1.383 . S
C145 C144 1.367 . S
C145 H159 0.950 . S
C146 C143 1.481 . S
C146 C147 1.297 . S
C146 H160 0.950 . S
C147 C146 1.297 . S
C147 C148 1.479 . S
C147 H161 0.950 . S
C148 C147 1.479 . S
C148 C149 1.375 . S
C148 C154 1.404 . S
C149 C148 1.375 . S
C149 C150 1.369 . S
C149 H162 0.950 . S
C150 C149 1.369 . S
C150 C151 1.392 . S
C150 H163 0.951 . S
C151 C150 1.392 . S
C151 C153 1.384 . S
H152 C154 0.949 . S
C153 C151 1.384 . S
C153 C154 1.385 . S
C153 H155 0.950 . S
C154 C148 1.404 . S
C154 H152 0.949 . S
C154 C153 1.385 . S
H155 C153 0.950 . S
H156 C140 0.951 . S
H157 C142 0.951 . S
H158 C144 0.951 . S
H159 C145 0.950 . S
H160 C146 0.950 . S
H161 C147 0.950 . S
H162 C149 0.950 . S
H163 C150 0.951 . S
C164 C165 1.386 . S
C164 C166 1.383 . S
C164 H180 0.951 . S
C165 C164 1.386 . S
C165 C169 1.383 . S
C166 C164 1.383 . S
C166 C167 1.402 . S
C166 H181 0.951 . S
C167 C166 1.402 . S
C167 C168 1.375 . S
C167 C170 1.481 1_654 S
C168 C167 1.375 . S
C168 C169 1.367 . S
C168 H182 0.951 . S
C169 C165 1.383 . S
C169 C168 1.367 . S
C169 H183 0.950 . S
C170 C167 1.481 1_456 S
C170 C171 1.297 . S
C170 H184 0.950 . S
C171 C170 1.297 . S
C171 C172 1.479 . S
C171 H185 0.950 . S
C172 C171 1.479 . S
C172 C173 1.375 . S
C172 C178 1.404 . S
C173 C172 1.375 . S
C173 C174 1.369 . S
C173 H186 0.950 . S
C174 C173 1.369 . S
C174 C175 1.392 . S
C174 H187 0.951 . S
C175 C174 1.392 . S
C175 C177 1.384 . S
H176 C178 0.949 . S
C177 C175 1.384 . S
C177 C178 1.385 . S
C177 H179 0.950 . S
C178 C172 1.404 . S
C178 H176 0.949 . S
C178 C177 1.385 . S
H179 C177 0.950 . S
H180 C164 0.951 . S
H181 C166 0.951 . S
H182 C168 0.951 . S
H183 C169 0.950 . S
H184 C170 0.950 . S
H185 C171 0.950 . S
H186 C173 0.950 . S
H187 C174 0.951 . S
C188 C189 1.386 . S
C188 C190 1.383 . S
C188 H204 0.951 . S
C189 C188 1.386 . S
C189 C193 1.383 . S
C190 C188 1.383 . S
C190 C191 1.402 . S
C190 H205 0.951 1_565 S
C191 C190 1.402 . S
C191 C192 1.375 . S
C191 C194 1.481 . S
C192 C191 1.375 . S
C192 C193 1.367 . S
C192 H206 0.951 . S
C193 C189 1.383 . S
C193 C192 1.367 . S
C193 H207 0.950 . S
C194 C191 1.481 . S
C194 C195 1.297 1_565 S
C194 H208 0.950 . S
C195 C194 1.297 1_545 S
C195 C196 1.479 . S
C195 H209 0.950 . S
C196 C195 1.479 . S
C196 C197 1.375 . S
C196 C202 1.404 . S
C197 C196 1.375 . S
C197 C198 1.369 . S
C197 H210 0.950 . S
C198 C197 1.369 . S
C198 C199 1.392 . S
C198 H211 0.951 . S
C199 C198 1.392 . S
C199 C201 1.384 . S
H200 C202 0.949 . S
C201 C199 1.384 . S
C201 C202 1.385 . S
C201 H203 0.950 . S
C202 C196 1.404 . S
C202 H200 0.949 . S
C202 C201 1.385 . S
H203 C201 0.950 . S
H204 C188 0.951 . S
H205 C190 0.951 1_545 S
H206 C192 0.951 . S
H207 C193 0.950 . S
H208 C194 0.950 . S
H209 C195 0.950 . S
H210 C197 0.950 . S
H211 C198 0.951 . S
C212 C213 1.386 . S
C212 C214 1.383 . S
C212 H228 0.951 . S
C213 C212 1.386 . S
C213 C217 1.383 . S
C214 C212 1.383 . S
C214 C215 1.402 . S
C214 H229 0.951 . S
C215 C214 1.402 . S
C215 C216 1.375 . S
C215 C218 1.481 . S
C216 C215 1.375 . S
C216 C217 1.367 . S
C216 H230 0.951 . S
C217 C213 1.383 . S
C217 C216 1.367 . S
C217 H231 0.950 . S
C218 C215 1.481 . S
C218 C219 1.297 1_554 S
C218 H232 0.950 . S
C219 C218 1.297 1_556 S
C219 C220 1.479 . S
C219 H233 0.950 . S
C220 C219 1.479 . S
C220 C221 1.375 . S
C220 C226 1.404 . S
C221 C220 1.375 . S
C221 C222 1.369 . S
C221 H234 0.950 . S
C222 C221 1.369 . S
C222 C223 1.392 . S
C222 H235 0.951 . S
C223 C222 1.392 . S
C223 C225 1.384 . S
H224 C226 0.949 . S
C225 C223 1.384 . S
C225 C226 1.385 . S
C225 H227 0.950 . S
C226 C220 1.404 . S
C226 H224 0.949 . S
C226 C225 1.385 . S
H227 C225 0.950 . S
H228 C212 0.951 . S
H229 C214 0.951 . S
H230 C216 0.951 . S
H231 C217 0.950 . S
H232 C218 0.950 . S
H233 C219 0.950 . S
H234 C221 0.950 . S
H235 C222 0.951 . S
C236 C237 1.386 . S
C236 C238 1.383 . S
C236 H252 0.951 . S
C237 C236 1.386 . S
C237 C241 1.383 . S
C238 C236 1.383 . S
C238 C239 1.402 . S
C238 H253 0.951 . S
C239 C238 1.402 . S
C239 C240 1.375 . S
C239 C242 1.481 . S
C240 C239 1.375 . S
C240 C241 1.367 . S
C240 H254 0.951 . S
C241 C237 1.383 . S
C241 C240 1.367 . S
C241 H255 0.950 . S
C242 C239 1.481 . S
C242 C243 1.297 . S
C242 H256 0.950 . S
C243 C242 1.297 . S
C243 C244 1.479 1_655 S
C243 H257 0.950 . S
C244 C243 1.479 1_455 S
C244 C245 1.375 . S
C244 C250 1.404 . S
C245 C244 1.375 . S
C245 C246 1.369 . S
C245 H258 0.950 . S
C246 C245 1.369 . S
C246 C247 1.392 . S
C246 H259 0.951 . S
C247 C246 1.392 . S
C247 C249 1.384 . S
H248 C250 0.949 1_655 S
C249 C247 1.384 . S
C249 C250 1.385 . S
C249 H251 0.950 . S
C250 C244 1.404 . S
C250 H248 0.949 1_455 S
C250 C249 1.385 . S
H251 C249 0.950 . S
H252 C236 0.951 . S
H253 C238 0.951 . S
H254 C240 0.951 . S
H255 C241 0.950 . S
H256 C242 0.950 . S
H257 C243 0.950 . S
H258 C245 0.950 . S
H259 C246 0.951 . S
C260 C261 1.386 . S
C260 C262 1.383 1_545 S
C260 H276 0.951 . S
C261 C260 1.386 . S
C261 C265 1.383 . S
C262 C260 1.383 1_565 S
C262 C263 1.402 . S
C262 H277 0.951 . S
C263 C262 1.402 . S
C263 C264 1.375 1_565 S
C263 C266 1.481 . S
C264 C263 1.375 1_545 S
C264 C265 1.367 . S
C264 H278 0.951 . S
C265 C261 1.383 . S
C265 C264 1.367 . S
C265 H279 0.950 . S
C266 C263 1.481 . S
C266 C267 1.297 . S
C266 H280 0.950 . S
C267 C266 1.297 . S
C267 C268 1.479 . S
C267 H281 0.950 . S
C268 C267 1.479 . S
C268 C269 1.375 . S
C268 C274 1.404 . S
C269 C268 1.375 . S
C269 C270 1.369 . S
C269 H282 0.950 . S
C270 C269 1.369 . S
C270 C271 1.392 . S
C270 H283 0.951 . S
C271 C270 1.392 . S
C271 C273 1.384 . S
H272 C274 0.949 . S
C273 C271 1.384 . S
C273 C274 1.385 . S
C273 H275 0.950 . S
C274 C268 1.404 . S
C274 H272 0.949 . S
C274 C273 1.385 . S
H275 C273 0.950 . S
H276 C260 0.951 . S
H277 C262 0.951 . S
H278 C264 0.951 . S
H279 C265 0.950 . S
H280 C266 0.950 . S
H281 C267 0.950 . S
H282 C269 0.950 . S
H283 C270 0.951 . S
C284 C285 1.386 . S
C284 C286 1.383 1_455 S
C284 H300 0.951 . S
C285 C284 1.386 . S
C285 C289 1.383 . S
C286 C284 1.383 1_655 S
C286 C287 1.402 . S
C286 H301 0.951 . S
C287 C286 1.402 . S
C287 C288 1.382 . S
C287 C290 1.481 . S
C288 C287 1.382 . S
C288 C289 1.354 1_655 S
C288 H302 0.957 . S
C289 C285 1.383 . S
C289 C288 1.354 1_455 S
C289 H303 0.950 . S
C290 C287 1.481 . S
C290 C291 1.297 . S
C290 H304 0.950 . S
C291 C290 1.297 . S
C291 C292 1.479 . S
C291 H305 0.950 . S
C292 C291 1.479 . S
C292 C293 1.375 . S
C292 C298 1.404 . S
C293 C292 1.375 . S
C293 C294 1.369 . S
C293 H306 0.950 . S
C294 C293 1.369 . S
C294 C295 1.392 . S
C294 H307 0.951 . S
C295 C294 1.392 . S
C295 C297 1.384 . S
H296 C298 0.949 . S
C297 C295 1.384 . S
C297 C298 1.385 . S
C297 H299 0.950 . S
C298 C292 1.404 . S
C298 H296 0.949 . S
C298 C297 1.385 . S
H299 C297 0.950 . S
H300 C284 0.951 . S
H301 C286 0.951 . S
H302 C288 0.957 . S
H303 C289 0.950 . S
H304 C290 0.950 . S
H305 C291 0.950 . S
H306 C293 0.950 . S
H307 C294 0.951 . S
C308 C309 1.386 . S
C308 C310 1.383 1_545 S
C308 H324 0.951 . S
C309 C308 1.386 . S
C309 C313 1.383 1_545 S
C310 C308 1.383 1_565 S
C310 C311 1.402 . S
C310 H325 0.951 . S
C311 C310 1.402 . S
C311 C312 1.375 . S
C311 C314 1.481 . S
C312 C311 1.375 . S
C312 C313 1.367 . S
C312 H326 0.951 . S
C313 C309 1.383 1_565 S
C313 C312 1.367 . S
C313 H327 0.950 . S
C314 C311 1.481 . S
C314 C315 1.297 . S
C314 H328 0.950 . S
C315 C314 1.297 . S
C315 C316 1.479 . S
C315 H329 0.950 . S
C316 C315 1.479 . S
C316 C317 1.375 . S
C316 C322 1.404 . S
C317 C316 1.375 . S
C317 C318 1.369 1_455 S
C317 H330 0.950 . S
C318 C317 1.369 1_655 S
C318 C319 1.392 . S
C318 H331 0.951 . S
C319 C318 1.392 . S
C319 C321 1.384 . S
H320 C322 0.949 . S
C321 C319 1.384 . S
C321 C322 1.385 1_655 S
C321 H323 0.950 . S
C322 C316 1.404 . S
C322 H320 0.949 . S
C322 C321 1.385 1_455 S
H323 C321 0.950 . S
H324 C308 0.951 . S
H325 C310 0.951 . S
H326 C312 0.951 . S
H327 C313 0.950 . S
H328 C314 0.950 . S
H329 C315 0.950 . S
H330 C317 0.950 . S
H331 C318 0.951 . S
C332 C333 1.386 . S
C332 C334 1.383 . S
C332 H348 0.951 . S
C333 C332 1.386 . S
C333 C337 1.383 . S
C334 C332 1.383 . S
C334 C335 1.402 . S
C334 H349 0.951 . S
C335 C334 1.402 . S
C335 C336 1.375 . S
C335 C338 1.481 . S
C336 C335 1.375 . S
C336 C337 1.367 . S
C336 H350 0.951 . S
C337 C333 1.383 . S
C337 C336 1.367 . S
C337 H351 0.950 . S
C338 C335 1.481 . S
C338 C339 1.297 . S
C338 H352 0.950 . S
C339 C338 1.297 . S
C339 C340 1.479 . S
C339 H353 0.950 . S
C340 C339 1.479 . S
C340 C341 1.375 . S
C340 C346 1.404 . S
C341 C340 1.375 . S
C341 C342 1.369 1_545 S
C341 H354 0.950 . S
C342 C341 1.369 1_565 S
C342 C343 1.392 . S
C342 H355 0.951 . S
C343 C342 1.392 . S
C343 C345 1.384 1_565 S
H344 C346 0.949 . S
C345 C343 1.384 1_545 S
C345 C346 1.385 . S
C345 H347 0.950 1_545 S
C346 C340 1.404 . S
C346 H344 0.949 . S
C346 C345 1.385 . S
H347 C345 0.950 1_565 S
H348 C332 0.951 . S
H349 C334 0.951 . S
H350 C336 0.951 . S
H351 C337 0.950 . S
H352 C338 0.950 . S
H353 C339 0.950 . S
H354 C341 0.950 . S
H355 C342 0.951 . S
C356 C357 1.386 . S
C356 C358 1.383 . S
C356 H372 0.951 . S
C357 C356 1.386 . S
C357 C361 1.383 . S
C358 C356 1.383 . S
C358 C359 1.402 . S
C358 H373 0.951 . S
C359 C358 1.402 . S
C359 C360 1.375 . S
C359 C362 1.481 . S
C360 C359 1.375 . S
C360 C361 1.367 . S
C360 H374 0.951 . S
C361 C357 1.383 . S
C361 C360 1.367 . S
C361 H375 0.950 . S
C362 C359 1.481 . S
C362 C363 1.297 . S
C362 H376 0.950 . S
C363 C362 1.297 . S
C363 C364 1.479 . S
C363 H377 0.950 . S
C364 C363 1.479 . S
C364 C365 1.375 . S
C364 C370 1.404 . S
C365 C364 1.375 . S
C365 C366 1.369 . S
C365 H378 0.950 . S
C366 C365 1.369 . S
C366 C367 1.392 1_455 S
C366 H379 0.951 . S
C367 C366 1.392 1_655 S
C367 C369 1.384 . S
H368 C370 0.949 . S
C369 C367 1.384 . S
C369 C370 1.385 1_655 S
C369 H371 0.950 . S
C370 C364 1.404 . S
C370 H368 0.949 . S
C370 C369 1.385 1_455 S
H371 C369 0.950 . S
H372 C356 0.951 . S
H373 C358 0.951 . S
H374 C360 0.951 . S
H375 C361 0.950 . S
H376 C362 0.950 . S
H377 C363 0.950 . S
H378 C365 0.950 . S
H379 C366 0.951 . S
C380 C381 1.386 . S
C380 C382 1.383 1_455 S
C380 H396 0.951 . S
C381 C380 1.386 . S
C381 C385 1.383 1_455 S
C382 C380 1.383 1_655 S
C382 C383 1.402 . S
C382 H397 0.951 . S
C383 C382 1.402 . S
C383 C384 1.375 . S
C383 C386 1.481 . S
C384 C383 1.375 . S
C384 C385 1.367 . S
C384 H398 0.951 . S
C385 C381 1.383 1_655 S
C385 C384 1.367 . S
C385 H399 0.950 . S
C386 C383 1.481 . S
C386 C387 1.297 . S
C386 H400 0.950 . S
C387 C386 1.297 . S
C387 C388 1.479 . S
C387 H401 0.950 . S
C388 C387 1.479 . S
C388 C389 1.375 . S
C388 C394 1.404 . S
C389 C388 1.375 . S
C389 C390 1.369 1_545 S
C389 H402 0.950 . S
C390 C389 1.369 1_565 S
C390 C391 1.392 . S
C390 H403 0.951 . S
C391 C390 1.392 . S
C391 C393 1.384 . S
H392 C394 0.949 . S
C393 C391 1.384 . S
C393 C394 1.385 1_565 S
C393 H395 0.950 . S
C394 C388 1.404 . S
C394 H392 0.949 . S
C394 C393 1.385 1_545 S
H395 C393 0.950 . S
H396 C380 0.951 . S
H397 C382 0.951 . S
H398 C384 0.951 . S
H399 C385 0.950 . S
H400 C386 0.950 . S
H401 C387 0.950 . S
H402 C389 0.950 . S
H403 C390 0.951 . S
C117 C107 1.763 . S
C127 C54 1.902 . S
C141 C106 1.883 . S
C151 C55 1.734 . S
C165 C52 1.900 . S
C175 C114 1.766 . S
C189 C115 1.893 . S
C199 C53 1.713 . S
C213 C49 1.880 . S
C223 C109 1.766 . S
C237 C48 1.797 . S
C247 C108 1.891 . S
C261 C50 1.071 . S
C271 C51 1.064 . S
C285 C112 1.077 . S
C295 C113 1.033 . S
C309 C46 1.077 . S
C319 C47 1.036 . S
C333 C111 1.049 . S
C343 C110 1.085 . S
C357 C56 1.075 . S
C367 C57 1.055 . S
C381 C104 1.076 . S
C391 C105 1.047 . S
