# Generated by pormake.
# Topology rob, (6)-cn, num edge types: 1
# Building blocks:
#     Node 0, Type 0, BuildingBlock: KUMBOL_clean_sbu_1, # of connection points: 6
#     Node 1, Type 0, BuildingBlock: KUMBOL_clean_sbu_1, # of connection points: 6
#     Node 2, Type 0, BuildingBlock: KUMBOL_clean_sbu_1, # of connection points: 6
#     Node 3, Type 0, BuildingBlock: KUMBOL_clean_sbu_1, # of connection points: 6
#     Edge 4, Type (0, 0), BuildingBlock: KIFKEQ_clean_linker_1, # of connection points: 2
#     Edge 5, Type (0, 0), BuildingBlock: KIFKEQ_clean_linker_1, # of connection points: 2
#     Edge 6, Type (0, 0), BuildingBlock: KIFKEQ_clean_linker_1, # of connection points: 2
#     Edge 7, Type (0, 0), BuildingBlock: KIFKEQ_clean_linker_1, # of connection points: 2
#     Edge 8, Type (0, 0), BuildingBlock: KIFKEQ_clean_linker_1, # of connection points: 2
#     Edge 9, Type (0, 0), BuildingBlock: KIFKEQ_clean_linker_1, # of connection points: 2
#     Edge 10, Type (0, 0), BuildingBlock: KIFKEQ_clean_linker_1, # of connection points: 2
#     Edge 11, Type (0, 0), BuildingBlock: KIFKEQ_clean_linker_1, # of connection points: 2
#     Edge 12, Type (0, 0), BuildingBlock: KIFKEQ_clean_linker_1, # of connection points: 2
#     Edge 13, Type (0, 0), BuildingBlock: KIFKEQ_clean_linker_1, # of connection points: 2
#     Edge 14, Type (0, 0), BuildingBlock: KIFKEQ_clean_linker_1, # of connection points: 2
#     Edge 15, Type (0, 0), BuildingBlock: KIFKEQ_clean_linker_1, # of connection points: 2
# Relax obj value: 0.020
# Max RMSD: 0.112
# Mean RMSD: 0.112
data_MOF--net-rob--node1-KUMBOL_clean_sbu_1--edge1-KIFKEQ_clean_linker_1
_symmetry_space_group_name_H-M    P1
_symmetry_Int_Tables_number       1
_symmetry_cell_setting            triclinic
loop_
_symmetry_equiv_pos_as_xyz
'x, y, z'
_cell_length_a     19.056089
_cell_length_b     23.640815
_cell_length_c     34.330681
_cell_angle_alpha  109.81993
_cell_angle_beta   89.884077
_cell_angle_gamma 89.934343
loop_
_atom_site_label
_atom_site_type_symbol
_atom_site_fract_x
_atom_site_fract_y
_atom_site_fract_z
_atom_type_partial_charge
C0 C 0.11126 0.41705 0.05908 0.0
C1 C 0.99626 0.37349 0.03839 0.0
C2 C 0.06753 0.36714 0.04728 0.0
C3 C 0.96977 0.4304 0.04171 0.0
C4 C 0.08482 0.47428 0.06244 0.0
C5 C 0.01377 0.48071 0.05414 0.0
N6 N 0.17939 0.40983 0.06801 0.0
C7 C 0.22397 0.45767 0.08018 0.0
C8 C 0.13041 0.52353 0.07458 0.0
C9 C 0.20036 0.51513 0.0834 0.0
Gd10 Gd 0.31507 0.19756 0.96564 0.0
Gd11 Gd 0.21274 0.31314 0.06517 0.0
N12 N 0.09426 0.31278 0.04539 0.0
C13 C 0.95313 0.32273 0.02754 0.0
C14 C 0.051 0.26431 0.03769 0.0
C15 C 0.98051 0.26804 0.02762 0.0
H16 H 0.06923 0.22328 0.04087 0.0
H17 H 0.94686 0.22906 0.021 0.0
H18 H 0.46337 0.27517 1.00227 0.0
H19 H 0.27724 0.45186 0.08855 0.0
H20 H 0.58371 0.25402 0.01944 0.0
H21 H 0.89818 0.32571 0.02039 0.0
H22 H 0.91511 0.43614 0.0352 0.0
H23 H 0.22936 0.06569 0.93769 0.0
H24 H 0.11202 0.5682 0.07751 0.0
H25 H 0.23586 0.55301 0.09326 0.0
H26 H 0.58776 0.04027 0.98871 0.0
H27 H 0.99232 0.52442 0.05709 0.0
H28 H 0.37499 0.93062 0.94313 0.0
H29 H 0.25532 0.95986 0.92936 0.0
N30 N 0.33178 0.09656 0.95878 0.0
C31 C 0.39799 0.08154 0.96643 0.0
C32 C 0.28087 0.0538 0.94545 0.0
C33 C 0.36344 0.97733 0.94768 0.0
C34 C 0.29577 0.99368 0.94002 0.0
C35 C 0.41559 0.02136 0.96086 0.0
H36 H 0.49869 0.96089 0.9643 0.0
N37 N 0.42949 0.18463 0.98625 0.0
C38 C 0.44837 0.12663 0.9802 0.0
C39 C 0.56599 0.15887 1.00347 0.0
C40 C 0.51717 0.11231 0.9888 0.0
C41 C 0.47742 0.22989 0.99931 0.0
C42 C 0.54603 0.21786 1.00866 0.0
O43 O 0.19628 0.32509 1.0031 0.0
O44 O 0.2055 0.22857 0.95693 0.0
O45 O 0.36498 0.22213 0.91645 0.0
O46 O 0.32143 0.13336 0.90325 0.0
O47 O 0.19884 0.21212 0.04906 0.0
O48 O 0.20506 0.17462 0.97791 0.0
O49 O 0.33951 0.1902 0.02887 0.0
O50 O 0.32402 0.28718 0.07173 0.0
O51 O 0.16478 0.29354 0.11695 0.0
O52 O 0.22216 0.37615 0.1278 0.0
O53 O 0.33892 0.2969 0.98201 0.0
O54 O 0.31979 0.34467 0.05257 0.0
C55 C 0.18483 0.28479 0.96645 0.0
C56 C 0.18575 0.16979 1.01336 0.0
C57 C 0.32197 0.17279 0.84879 0.0
C58 C 0.34006 0.17796 0.77958 0.0
C59 C 0.22195 0.17287 0.80518 0.0
C60 C 0.24928 0.17056 0.8423 0.0
C61 C 0.26692 0.17681 0.77404 0.0
C62 C 0.36728 0.17594 0.81723 0.0
C63 C 0.3511 0.17071 0.88797 0.0
C64 C 0.53506 0.0522 0.98251 0.0
C65 C 0.48442 1.00693 0.96852 0.0
H66 H 0.61928 0.14972 1.01058 0.0
C67 C 0.34666 0.23254 0.0652 0.0
C68 C 0.3483 0.34216 1.01686 0.0
C69 C 0.12739 0.37866 0.17319 0.0
C70 C 0.05765 0.39293 0.23567 0.0
C71 C 0.04792 0.46387 0.19873 0.0
C72 C 0.09741 0.43116 0.16981 0.0
C73 C 0.02854 0.44523 0.23167 0.0
C74 C 0.10659 0.3593 0.20603 0.0
C75 C 0.18234 0.34522 0.14392 0.0
H76 H 0.16574 0.17132 0.80046 0.0
H77 H 0.21392 0.1665 0.86584 0.0
H78 H 0.24459 0.17805 0.74534 0.0
H79 H 0.42354 0.17738 0.82212 0.0
H80 H 0.02476 0.504 0.19573 0.0
H81 H 0.11265 0.44741 0.14518 0.0
H82 H 0.9901 0.4712 0.25383 0.0
H83 H 0.1296 0.31904 0.20907 0.0
C84 C 0.61206 0.91647 0.05937 0.0
C85 C 0.49697 0.87287 0.03902 0.0
C86 C 0.56831 0.86657 0.0478 0.0
C87 C 0.47047 0.9297 0.04216 0.0
C88 C 0.58558 0.97363 0.06258 0.0
C89 C 0.51449 0.98001 0.05435 0.0
N90 N 0.68028 0.90928 0.06813 0.0
C91 C 0.72489 0.95712 0.08008 0.0
C92 C 0.63121 0.02287 0.07448 0.0
C93 C 0.70123 0.01451 0.08318 0.0
Gd94 Gd 0.81527 0.69738 0.9656 0.0
Gd95 Gd 0.71374 0.81272 0.0655 0.0
N96 N 0.59508 0.81229 0.04605 0.0
C97 C 0.45381 0.82215 0.02849 0.0
C98 C 0.55178 0.76392 0.03876 0.0
C99 C 0.48121 0.76759 0.02881 0.0
H100 H 0.57003 0.72308 0.04221 0.0
H101 H 0.44752 0.72868 0.0225 0.0
H102 H 0.96404 0.77452 1.00181 0.0
H103 H 0.77822 0.95135 0.08836 0.0
H104 H 0.08433 0.75307 0.01885 0.0
H105 H 0.3988 0.82509 0.02145 0.0
H106 H 0.41576 0.9354 0.03572 0.0
H107 H 0.72924 0.56567 0.93755 0.0
H108 H 0.61279 0.06749 0.07731 0.0
H109 H 0.73677 0.05239 0.09285 0.0
H110 H 0.0877 0.53931 0.98806 0.0
H111 H 0.49301 0.02366 0.05719 0.0
H112 H 0.87454 0.43019 0.94266 0.0
H113 H 0.75492 0.45974 0.92906 0.0
N114 N 0.83175 0.5963 0.9586 0.0
C115 C 0.89793 0.5811 0.96617 0.0
C116 C 0.78073 0.55365 0.94524 0.0
C117 C 0.86311 0.47695 0.9473 0.0
C118 C 0.79546 0.49347 0.93973 0.0
C119 C 0.91539 0.52085 0.96047 0.0
H120 H 0.9984 0.46013 0.96364 0.0
N121 N 0.92978 0.68409 0.98595 0.0
C122 C 0.94846 0.62605 0.97991 0.0
C123 C 0.06625 0.65799 1.00297 0.0
C124 C 0.01725 0.61155 0.98838 0.0
C125 C 0.97792 0.72921 0.99888 0.0
C126 C 0.0465 0.71701 1.00816 0.0
O127 O 0.69731 0.82512 1.00354 0.0
O128 O 0.70573 0.72867 0.95722 0.0
O129 O 0.86514 0.72212 0.91646 0.0
O130 O 0.82123 0.63344 0.90309 0.0
O131 O 0.7 0.71162 0.04922 0.0
O132 O 0.7053 0.67456 0.97804 0.0
O133 O 0.83994 0.6899 0.02873 0.0
O134 O 0.82495 0.7867 0.07243 0.0
O135 O 0.66486 0.79411 0.11747 0.0
O136 O 0.72435 0.87561 0.12806 0.0
O137 O 0.83933 0.79668 0.98219 0.0
O138 O 0.82076 0.84415 0.05283 0.0
C139 C 0.68525 0.78496 0.96692 0.0
C140 C 0.6862 0.66961 1.01348 0.0
C141 C 0.82219 0.67311 0.84873 0.0
C142 C 0.8406 0.67839 0.77955 0.0
C143 C 0.72234 0.67381 0.80514 0.0
C144 C 0.74951 0.67129 0.84224 0.0
C145 C 0.76746 0.67759 0.77402 0.0
C146 C 0.86766 0.6761 0.81717 0.0
C147 C 0.85112 0.6708 0.88791 0.0
C148 C 0.035 0.55139 0.98197 0.0
C149 C 0.98422 0.50623 0.96798 0.0
H150 H 0.11955 0.64869 1.00999 0.0
C151 C 0.84853 0.73208 0.06499 0.0
C152 C 0.8492 0.84166 1.01712 0.0
C153 C 0.62971 0.88006 0.17394 0.0
C154 C 0.56053 0.89576 0.23688 0.0
C155 C 0.55447 0.96796 0.20073 0.0
C156 C 0.60225 0.93382 0.17122 0.0
C157 C 0.53408 0.94935 0.23352 0.0
C158 C 0.6079 0.86081 0.20667 0.0
C159 C 0.68367 0.84547 0.14436 0.0
H160 H 0.66614 0.67256 0.80043 0.0
H161 H 0.71402 0.66739 0.86578 0.0
H162 H 0.74523 0.67903 0.74535 0.0
H163 H 0.92391 0.67726 0.82207 0.0
H164 H 0.5335 1.0092 0.19832 0.0
H165 H 0.61831 0.95001 0.14669 0.0
H166 H 0.49694 0.97645 0.25609 0.0
H167 H 0.62909 0.81965 0.20925 0.0
C168 C 0.1545 0.57532 0.46526 0.0
C169 C 0.0311 0.59538 0.48214 0.0
C170 C 0.09924 0.61584 0.47806 0.0
C171 C 0.01917 0.53357 0.47265 0.0
C172 C 0.14285 0.5133 0.45626 0.0
C173 C 0.07493 0.49269 0.45992 0.0
N174 N 0.21878 0.59623 0.45962 0.0
C175 C 0.27364 0.55766 0.44516 0.0
C176 C 0.19947 0.47366 0.44267 0.0
C177 C 0.26518 0.49598 0.43712 0.0
Gd178 Gd 0.32289 0.81886 0.57136 0.0
Gd179 Gd 0.22621 0.69957 0.47091 0.0
N180 N 0.112 0.67521 0.4855 0.0
C181 C 0.97671 0.63756 0.49472 0.0
C182 C 0.05873 0.71624 0.49629 0.0
C183 C 0.99062 0.69825 0.50181 0.0
H184 H 0.06854 0.7628 0.50058 0.0
H185 H 0.94867 0.73105 0.5109 0.0
H186 H 0.46187 0.72542 0.56538 0.0
H187 H 0.32335 0.57423 0.43853 0.0
H188 H 0.58676 0.72084 0.54809 0.0
H189 H 0.92368 0.62365 0.49845 0.0
H190 H 0.96695 0.51684 0.47485 0.0
H191 H 0.26625 0.95248 0.57153 0.0
H192 H 0.19268 0.42571 0.4356 0.0
H193 H 0.30894 0.46557 0.42576 0.0
H194 H 0.63462 0.91296 0.53645 0.0
H195 H 0.06481 0.44512 0.4527 0.0
H196 H 0.44476 0.05284 0.55637 0.0
H197 H 0.31717 0.04642 0.5673 0.0
N198 N 0.36345 0.90566 0.56073 0.0
C199 C 0.43363 0.90781 0.55424 0.0
C200 C 0.32158 0.9544 0.56537 0.0
C201 C 0.42249 0.01113 0.55722 0.0
C202 C 0.35038 1.00771 0.56339 0.0
C203 C 0.46503 0.96082 0.55238 0.0
H204 H 0.56311 1.00318 0.54615 0.0
N205 N 0.44311 0.80732 0.55414 0.0
C206 C 0.47421 0.85691 0.54991 0.0
C207 C 0.5874 0.80767 0.54074 0.0
C208 C 0.54726 0.85832 0.54322 0.0
C209 C 0.48348 0.76038 0.55569 0.0
C210 C 0.55547 0.75881 0.54754 0.0
O211 O 0.18898 0.69519 0.53277 0.0
O212 O 0.21972 0.78387 0.58551 0.0
O213 O 0.37534 0.82221 0.6293 0.0
O214 O 0.3068 0.89517 0.62717 0.0
O215 O 0.19268 0.79749 0.49027 0.0
O216 O 0.21329 0.84594 0.56064 0.0
O217 O 0.3313 0.83088 0.50846 0.0
O218 O 0.33608 0.73263 0.46828 0.0
O219 O 0.18174 0.73 0.42291 0.0
O220 O 0.23275 0.64345 0.40618 0.0
O221 O 0.33517 0.71851 0.55998 0.0
O222 O 0.33466 0.68075 0.48906 0.0
C223 C 0.18323 0.73385 0.57074 0.0
C224 C 0.18002 0.84054 0.52593 0.0
C225 C 0.36117 0.90919 0.6935 0.0
C226 C 0.41526 0.91994 0.76022 0.0
C227 C 0.35001 1.003 0.75137 0.0
C228 C 0.33596 0.96851 0.71035 0.0
C229 C 0.38986 0.97918 0.77611 0.0
C230 C 0.40036 0.88477 0.71885 0.0
C231 C 0.34834 0.87476 0.64923 0.0
C232 C 0.57854 0.91098 0.54111 0.0
C233 C 0.53776 0.96234 0.54643 0.0
H234 H 0.64355 0.80694 0.53552 0.0
C235 C 0.34887 0.78906 0.47357 0.0
C236 C 0.34859 0.67478 0.5249 0.0
C237 C 0.13685 0.65196 0.36492 0.0
C238 C 0.0658 0.64422 0.30427 0.0
C239 C 0.03928 0.58173 0.34557 0.0
C240 C 0.09566 0.60673 0.37146 0.0
C241 C 0.02439 0.60028 0.31207 0.0
C242 C 0.12173 0.67059 0.33098 0.0
C243 C 0.1953 0.67957 0.39324 0.0
H244 H 0.33016 0.04847 0.76397 0.0
H245 H 0.30582 0.98866 0.69171 0.0
H246 H 0.4003 1.00688 0.80788 0.0
H247 H 0.42042 0.83923 0.70633 0.0
H248 H 0.0071 0.5478 0.35148 0.0
H249 H 0.10702 0.59038 0.39638 0.0
H250 H 0.9803 0.58057 0.29226 0.0
H251 H 0.1531 0.7053 0.32539 0.0
C252 C 0.65276 0.07421 0.46586 0.0
C253 C 0.52952 0.09447 0.48318 0.0
C254 C 0.59757 0.11481 0.47877 0.0
C255 C 0.51759 0.03271 0.47396 0.0
C256 C 0.64112 0.01225 0.45716 0.0
C257 C 0.57328 0.99176 0.46119 0.0
N258 N 0.71689 0.09496 0.45979 0.0
C259 C 0.77162 0.05628 0.44519 0.0
C260 C 0.69762 0.97252 0.44344 0.0
C261 C 0.76319 0.99468 0.43746 0.0
Gd262 Gd 0.82195 0.31762 0.57055 0.0
Gd263 Gd 0.72421 0.19816 0.47057 0.0
N264 N 0.61027 0.1741 0.48585 0.0
C265 C 0.47517 0.1367 0.49575 0.0
C266 C 0.55703 0.21517 0.49662 0.0
C267 C 0.48902 0.1973 0.50249 0.0
H268 H 0.56678 0.26164 0.50061 0.0
H269 H 0.4471 0.23013 0.51155 0.0
H270 H 0.96067 0.22409 0.56479 0.0
H271 H 0.82121 0.07271 0.43824 0.0
H272 H 0.08539 0.21884 0.547 0.0
H273 H 0.42221 0.12287 0.49973 0.0
H274 H 0.46542 0.01607 0.47638 0.0
H275 H 0.76573 0.45124 0.57047 0.0
H276 H 0.69083 0.92462 0.43659 0.0
H277 H 0.80685 0.96418 0.426 0.0
H278 H 0.13365 0.4101 0.53405 0.0
H279 H 0.56316 0.94424 0.45416 0.0
H280 H 0.9444 0.55058 0.55415 0.0
H281 H 0.81689 0.54477 0.56565 0.0
N282 N 0.86268 0.40404 0.55943 0.0
C283 C 0.93281 0.40585 0.55264 0.0
C284 C 0.82101 0.45289 0.56406 0.0
C285 C 0.92199 0.50903 0.55524 0.0
C286 C 0.84994 0.50596 0.56174 0.0
C287 C 0.96434 0.45862 0.55041 0.0
H288 H 0.06249 0.50049 0.54369 0.0
N289 N 0.94201 0.30558 0.55299 0.0
C290 C 0.9732 0.35489 0.54837 0.0
C291 C 0.08618 0.30528 0.53906 0.0
C292 C 0.04619 0.35596 0.5414 0.0
C293 C 0.98228 0.2587 0.55472 0.0
C294 C 0.0542 0.25678 0.54631 0.0
O295 O 0.68786 0.19424 0.53268 0.0
O296 O 0.71874 0.28317 0.58514 0.0
O297 O 0.87471 0.32104 0.62841 0.0
O298 O 0.80667 0.39428 0.62624 0.0
O299 O 0.6906 0.29611 0.4899 0.0
O300 O 0.7123 0.3449 0.56013 0.0
O301 O 0.82968 0.32921 0.5075 0.0
O302 O 0.83404 0.23087 0.46738 0.0
O303 O 0.67971 0.22842 0.42249 0.0
O304 O 0.72916 0.14129 0.4059 0.0
O305 O 0.83393 0.21731 0.55927 0.0
O306 O 0.83289 0.17927 0.48835 0.0
C307 C 0.68229 0.2331 0.57059 0.0
C308 C 0.67863 0.33945 0.52554 0.0
C309 C 0.86152 0.40842 0.69247 0.0
C310 C 0.91598 0.41925 0.75911 0.0
C311 C 0.85154 0.50261 0.7501 0.0
C312 C 0.83698 0.46797 0.70918 0.0
C313 C 0.89122 0.47872 0.77487 0.0
C314 C 0.90056 0.38394 0.71784 0.0
C315 C 0.8482 0.37381 0.64828 0.0
C316 C 0.0776 0.40836 0.53891 0.0
C317 C 0.03701 0.4598 0.54417 0.0
H318 H 0.14228 0.30431 0.53364 0.0
C319 C 0.84705 0.28726 0.47263 0.0
C320 C 0.84721 0.1735 0.52421 0.0
C321 C 0.63226 0.15042 0.36547 0.0
C322 C 0.55726 0.14447 0.30663 0.0
C323 C 0.53178 0.08313 0.3489 0.0
C324 C 0.5905 0.10639 0.37313 0.0
C325 C 0.51496 0.10223 0.31592 0.0
C326 C 0.61585 0.16893 0.33162 0.0
C327 C 0.69193 0.17754 0.39297 0.0
H328 H 0.83223 0.54827 0.76261 0.0
H329 H 0.80699 0.48817 0.69052 0.0
H330 H 0.90205 0.50654 0.80655 0.0
H331 H 0.92012 0.33823 0.70541 0.0
H332 H 0.49929 0.05009 0.3557 0.0
H333 H 0.60312 0.08972 0.39771 0.0
H334 H 0.46904 0.08384 0.29742 0.0
H335 H 0.64777 0.20258 0.32508 0.0
H336 H 0.67472 0.61731 0.07276 0.0
H337 H 0.59326 0.60947 0.95386 0.0
H338 H 0.59605 0.5362 0.07319 0.0
H339 H 0.51195 0.53087 0.955 0.0
H340 H 0.41565 0.35477 0.94984 0.0
H341 H 0.50082 0.43039 0.94886 0.0
H342 H 0.47908 0.51421 0.0815 0.0
H343 H 0.39822 0.43569 0.08284 0.0
C344 C 0.63964 0.59829 0.04682 0.0
C345 C 0.64026 0.61927 1.01319 0.0
C346 C 0.59409 0.55213 0.04714 0.0
C347 C 0.54714 0.52681 1.01418 0.0
C348 C 0.54813 0.54814 0.98055 0.0
C349 C 0.59455 0.59346 0.97992 0.0
C350 C 0.42908 0.3892 0.97887 0.0
C351 C 0.39888 0.38956 1.01636 0.0
C352 C 0.47769 0.43305 0.97826 0.0
C353 C 0.49672 0.47905 1.01504 0.0
C354 C 0.46658 0.47925 0.05256 0.0
C355 C 0.41894 0.4347 0.05325 0.0
H356 H 0.35892 0.62479 0.58591 0.0
H357 H 0.44141 0.61116 0.46588 0.0
H358 H 0.43464 0.54138 0.58672 0.0
H359 H 0.51727 0.52896 0.46676 0.0
H360 H 0.59853 0.34745 0.46134 0.0
H361 H 0.51512 0.42571 0.46208 0.0
H362 H 0.55647 0.51691 0.59202 0.0
H363 H 0.63823 0.43756 0.59172 0.0
C364 C 0.39314 0.60388 0.55972 0.0
C365 C 0.39337 0.62381 0.52556 0.0
C366 C 0.43673 0.55631 0.56021 0.0
C367 C 0.48179 0.528 0.52663 0.0
C368 C 0.48217 0.54856 0.4927 0.0
C369 C 0.43863 0.59582 0.49221 0.0
C370 C 0.58977 0.38398 0.49017 0.0
C371 C 0.62591 0.38629 0.52636 0.0
C372 C 0.54208 0.42915 0.49053 0.0
C373 C 0.5294 0.47806 0.52703 0.0
C374 C 0.56436 0.47972 0.56344 0.0
C375 C 0.61182 0.43434 0.56314 0.0
H376 H 0.17476 0.1176 0.07268 0.0
H377 H 0.09296 0.10925 0.95376 0.0
H378 H 0.09655 0.03626 0.07321 0.0
H379 H 0.01203 0.03044 0.95501 0.0
H380 H 0.91629 0.85432 0.95004 0.0
H381 H 1.00119 0.93006 0.94896 0.0
H382 H 0.97988 0.01382 0.08163 0.0
H383 H 0.89931 0.93515 0.08307 0.0
C384 C 0.13969 0.09842 0.04676 0.0
C385 C 0.14008 0.11932 1.0131 0.0
C386 C 0.0944 0.05213 0.04714 0.0
C387 C 0.04746 0.02661 1.01421 0.0
C388 C 0.04821 0.04786 0.98054 0.0
C389 C 0.09441 0.0933 0.97984 0.0
C390 C 0.92978 0.88876 0.97906 0.0
C391 C 0.89976 0.88907 1.01658 0.0
C392 C 0.97823 0.93269 0.97839 0.0
C393 C 0.99727 0.97872 1.01515 0.0
C394 C 0.96736 0.97885 0.0527 0.0
C395 C 0.91989 0.93421 0.05346 0.0
H396 H 0.85814 0.12393 0.58538 0.0
H397 H 0.93991 0.10988 0.46512 0.0
H398 H 0.93461 0.04111 0.58644 0.0
H399 H 0.01666 0.02835 0.46628 0.0
H400 H 0.1001 0.84788 0.46151 0.0
H401 H 0.016 0.92545 0.46195 0.0
H402 H 0.05641 0.01739 0.59191 0.0
H403 H 0.13881 0.93862 0.59193 0.0
C404 C 0.89236 0.10304 0.55919 0.0
C405 C 0.89221 0.1227 0.52491 0.0
C406 C 0.93641 0.05583 0.55983 0.0
C407 C 0.98159 0.02763 0.52629 0.0
C408 C 0.98151 0.04787 0.49221 0.0
C409 C 0.93746 0.09475 0.49155 0.0
C410 C 0.09101 0.88443 0.49029 0.0
C411 C 0.12704 0.8871 0.52658 0.0
C412 C 0.04291 0.92922 0.49047 0.0
C413 C 0.02974 0.97813 0.52688 0.0
C414 C 0.06466 0.98018 0.56339 0.0
C415 C 0.1125 0.93514 0.56328 0.0
H416 H 0.44979 0.21741 0.30416 0.0
H417 H 0.61724 0.11142 0.22994 0.0
H418 H 0.40548 0.23923 0.24408 0.0
H419 H 0.57299 0.13298 0.16914 0.0
H420 H 0.40655 0.12619 0.06536 0.0
H421 H 0.46607 0.10789 0.12323 0.0
H422 H 0.43813 0.29446 0.19791 0.0
H423 H 0.37855 0.31278 0.14101 0.0
C424 C 0.4778 0.1999 0.27501 0.0
C425 C 0.53734 0.16374 0.27157 0.0
C426 C 0.45257 0.21224 0.24061 0.0
C427 C 0.48592 0.18805 0.20185 0.0
C428 C 0.54612 0.15214 0.19854 0.0
C429 C 0.57188 0.14037 0.23327 0.0
C430 C 0.41373 0.16337 0.094 0.0
C431 C 0.38719 0.22084 0.09855 0.0
C432 C 0.44815 0.15293 0.12703 0.0
C433 C 0.45625 0.19964 0.16522 0.0
C434 C 0.43174 0.25732 0.16915 0.0
C435 C 0.3977 0.26779 0.13633 0.0
H436 H 0.49597 0.79153 0.23414 0.0
H437 H 0.57443 0.9586 0.31897 0.0
H438 H 0.44786 0.76612 0.2921 0.0
H439 H 0.52821 0.93326 0.37732 0.0
H440 H 0.36809 0.90094 0.46751 0.0
H441 H 0.42338 0.92533 0.41109 0.0
H442 H 0.4714 0.73723 0.34936 0.0
H443 H 0.41348 0.71285 0.40474 0.0
C444 C 0.50387 0.82229 0.26538 0.0
C445 C 0.53822 0.87722 0.27219 0.0
C446 C 0.47652 0.80782 0.29874 0.0
C447 C 0.48367 0.84767 0.33977 0.0
C448 C 0.52022 0.90187 0.34638 0.0
C449 C 0.54696 0.91645 0.31299 0.0
C450 C 0.39058 0.86486 0.44191 0.0
C451 C 0.38571 0.80489 0.44052 0.0
C452 C 0.42285 0.87885 0.40958 0.0
C453 C 0.45182 0.83328 0.37524 0.0
C454 C 0.44844 0.77351 0.37461 0.0
C455 C 0.41551 0.7595 0.40663 0.0
H456 H 0.66244 0.89871 0.96643 0.0
H457 H 0.61246 0.71301 0.89974 0.0
H458 H 0.59878 0.92895 0.91554 0.0
H459 H 0.55206 0.74257 0.84726 0.0
H460 H 0.39006 0.81989 0.78076 0.0
H461 H 0.45317 0.78686 0.83113 0.0
H462 H 0.6008 0.9326 0.84965 0.0
H463 H 0.5348 0.96704 0.80128 0.0
C464 C 0.63814 0.86421 0.9407 0.0
C465 C 0.64391 0.80326 0.93664 0.0
C466 C 0.602 0.8815 0.91114 0.0
C467 C 0.57022 0.83837 0.87678 0.0
C468 C 0.575 0.77738 0.8733 0.0
C469 C 0.61084 0.76017 0.90305 0.0
C470 C 0.43638 0.84432 0.7955 0.0
C471 C 0.45762 0.89595 0.78729 0.0
C472 C 0.47287 0.82541 0.82432 0.0
C473 C 0.53224 0.85713 0.845 0.0
C474 C 0.55446 0.90775 0.83545 0.0
C475 C 0.51718 0.92724 0.80733 0.0
H476 H 0.62146 0.31531 0.63786 0.0
H477 H 0.62317 0.12521 0.56722 0.0
H478 H 0.53651 0.29811 0.68553 0.0
H479 H 0.53742 0.1081 0.61549 0.0
H480 H 0.45607 0.10933 0.7473 0.0
H481 H 0.53576 0.11857 0.69352 0.0
H482 H 0.40994 0.26465 0.68299 0.0
H483 H 0.33064 0.25546 0.73651 0.0
C484 C 0.60375 0.26976 0.63246 0.0
C485 C 0.62936 0.22162 0.59874 0.0
C486 C 0.5546 0.26002 0.65967 0.0
C487 C 0.53019 0.20183 0.65419 0.0
C488 C 0.55557 0.15343 0.6205 0.0
C489 C 0.60429 0.1633 0.59279 0.0
C490 C 0.44561 0.14334 0.7334 0.0
C491 C 0.38752 0.18201 0.74627 0.0
C492 C 0.49072 0.1482 0.70239 0.0
C493 C 0.47915 0.19247 0.6842 0.0
C494 C 0.42042 0.23041 0.69668 0.0
C495 C 0.37491 0.225 0.72717 0.0
H496 H 0.89764 0.814 0.13622 0.0
H497 H 0.89748 0.62339 0.06699 0.0
H498 H 0.96055 0.79562 0.19206 0.0
H499 H 0.95919 0.60484 0.12399 0.0
H500 H 0.11157 0.59577 0.22471 0.0
H501 H 0.0673 0.61755 0.16415 0.0
H502 H 0.93056 0.75401 0.24438 0.0
H503 H 0.97588 0.73245 0.3043 0.0
C504 C 0.91109 0.76804 0.13282 0.0
C505 C 0.89167 0.72008 0.09724 0.0
C506 C 0.94702 0.75752 0.16504 0.0
C507 C 0.96416 0.69871 0.16283 0.0
C508 C 0.94726 0.65075 0.12655 0.0
C509 C 0.91149 0.66133 0.09401 0.0
C510 C 0.07317 0.63124 0.22912 0.0
C511 C 0.04765 0.66324 0.26888 0.0
C512 C 0.04728 0.6433 0.19456 0.0
C513 C 0.99542 0.68764 0.19934 0.0
C514 C 0.97138 0.72039 0.23953 0.0
C515 C 0.99717 0.70821 0.2739 0.0
H516 H 0.91027 0.21055 0.4035 0.0
H517 H 0.86816 0.3991 0.46686 0.0
H518 H 0.96838 0.23455 0.34803 0.0
H519 H 0.92398 0.42315 0.41044 0.0
H520 H 0.0751 0.45458 0.3176 0.0
H521 H 0.02939 0.4294 0.37619 0.0
H522 H 0.94373 0.26443 0.29115 0.0
H523 H 0.99127 0.28968 0.23297 0.0
C524 C 0.91311 0.25723 0.40552 0.0
C525 C 0.88412 0.30286 0.43958 0.0
C526 C 0.94617 0.27101 0.37347 0.0
C527 C 0.95056 0.33081 0.37427 0.0
C528 C 0.92255 0.37663 0.4088 0.0
C529 C 0.89003 0.36284 0.44113 0.0
C530 C 0.04663 0.41293 0.31174 0.0
C531 C 0.03617 0.37424 0.27098 0.0
C532 C 0.02019 0.39846 0.34524 0.0
C533 C 0.98226 0.34495 0.33871 0.0
C534 C 0.97347 0.30558 0.29767 0.0
C535 C 1.00048 0.31995 0.26422 0.0
H536 H 0.03572 0.46602 0.80006 0.0
H537 H 0.89036 0.31934 0.77978 0.0
H538 H 0.10145 0.4316 0.84853 0.0
H539 H 0.95327 0.28631 0.83023 0.0
H540 H 0.11229 0.21257 0.8992 0.0
H541 H 0.05216 0.24191 0.84651 0.0
H542 H 0.09871 0.42838 0.9146 0.0
H543 H 0.16211 0.39837 0.96568 0.0
C544 C 0.0179 0.42633 0.80618 0.0
C545 C 0.95822 0.39519 0.7862 0.0
C546 C 0.05504 0.40685 0.83435 0.0
C547 C 0.03257 0.35638 0.844 0.0
C548 C 0.97313 0.32475 0.82335 0.0
C549 C 0.93676 0.34367 0.79449 0.0
C550 C 0.11074 0.25969 0.9024 0.0
C551 C 0.14369 0.30288 0.93599 0.0
C552 C 0.07505 0.27678 0.87254 0.0
C553 C 0.07033 0.33773 0.8759 0.0
C554 C 0.10195 0.38095 0.91027 0.0
C555 C 0.13794 0.3638 0.93993 0.0
H556 H 0.12319 0.62597 0.56681 0.0
H557 H 0.12283 0.81576 0.63831 0.0
H558 H 0.03734 0.6087 0.615 0.0
H559 H 0.03785 0.7984 0.6859 0.0
H560 H 0.8316 0.75619 0.7367 0.0
H561 H 0.91088 0.76535 0.68317 0.0
H562 H 0.03614 0.61872 0.69328 0.0
H563 H 0.95647 0.60954 0.74711 0.0
C564 C 0.10461 0.66396 0.59256 0.0
C565 C 0.1301 0.72223 0.59877 0.0
C566 C 0.05585 0.65399 0.62023 0.0
C567 C 0.03086 0.70226 0.65415 0.0
C568 C 0.05565 0.76042 0.65987 0.0
C569 C 0.10482 0.77024 0.6327 0.0
C570 C 0.87574 0.72561 0.72727 0.0
C571 C 0.88818 0.68246 0.74627 0.0
C572 C 0.92123 0.73099 0.69676 0.0
C573 C 0.97979 0.69287 0.68415 0.0
C574 C 0.99121 0.64848 0.70225 0.0
C575 C 0.94613 0.64365 0.73329 0.0
loop_
_geom_bond_atom_site_label_1
_geom_bond_atom_site_label_2
_geom_bond_distance
_geom_bond_site_symmetry_2
_ccdc_geom_bond_type
C0 C2 1.422 . S
C0 C4 1.415 . S
C0 N6 1.369 . S
C1 C2 1.421 1_655 S
C1 C3 1.416 1_554 S
C1 C13 1.422 1_554 S
C2 C0 1.422 . S
C2 C1 1.421 1_455 S
C2 N12 1.359 . S
C3 C1 1.416 1_556 S
C3 C5 1.329 1_556 S
C3 H22 0.931 . S
C4 C0 1.415 . S
C4 C5 1.437 1_455 S
C4 C8 1.413 . S
C5 C3 1.329 1_554 S
C5 C4 1.437 1_655 S
C5 H27 0.929 . S
N6 C0 1.369 . S
N6 C7 1.338 . S
N6 Gd11 2.622 . S
C7 N6 1.338 . S
C7 C9 1.378 . S
C7 H19 0.929 . S
C8 C4 1.413 . S
C8 C9 1.348 . S
C8 H24 0.931 . S
C9 C7 1.378 . S
C9 C8 1.348 . S
C9 H25 0.930 . S
Gd10 N30 2.622 . S
Gd10 N37 2.570 . S
Gd10 O44 2.353 . S
Gd10 O45 2.468 . S
Gd10 O46 2.427 . S
Gd10 O48 2.388 . S
Gd10 O49 2.386 1_556 S
Gd10 O53 2.307 . S
Gd10 C63 2.805 . S
Gd11 N6 2.622 . S
Gd11 N12 2.570 . S
Gd11 O43 2.386 1_554 S
Gd11 O47 2.307 . S
Gd11 O50 2.353 . S
Gd11 O51 2.468 . S
Gd11 O52 2.427 . S
Gd11 O54 2.388 . S
Gd11 C75 2.805 . S
N12 C2 1.359 . S
N12 Gd11 2.570 . S
N12 C14 1.343 . S
C13 C1 1.422 1_556 S
C13 C15 1.325 . S
C13 H21 0.931 . S
C14 N12 1.343 . S
C14 C15 1.387 1_454 S
C14 H16 0.931 . S
C15 C13 1.325 . S
C15 C14 1.387 1_656 S
C15 H17 0.929 . S
H16 C14 0.931 . S
H17 C15 0.929 . S
H18 C41 0.931 . S
H19 C7 0.929 . S
H20 C42 0.929 . S
H21 C13 0.931 . S
H22 C3 0.931 . S
H23 C32 0.929 . S
H24 C8 0.931 . S
H25 C9 0.930 . S
H26 C64 0.934 . S
H27 C5 0.929 . S
H28 C33 0.931 . S
H29 C34 0.930 . S
N30 Gd10 2.622 . S
N30 C31 1.369 . S
N30 C32 1.338 . S
C31 N30 1.369 . S
C31 C35 1.415 . S
C31 C38 1.422 . S
C32 H23 0.929 . S
C32 N30 1.338 . S
C32 C34 1.378 1_545 S
C33 H28 0.931 . S
C33 C34 1.348 . S
C33 C35 1.413 1_565 S
C34 H29 0.930 . S
C34 C32 1.378 1_565 S
C34 C33 1.348 . S
C35 C31 1.415 . S
C35 C33 1.413 1_545 S
C35 C65 1.437 . S
H36 C65 0.929 1_565 S
N37 Gd10 2.570 . S
N37 C38 1.359 . S
N37 C41 1.343 . S
C38 C31 1.422 . S
C38 N37 1.359 . S
C38 C40 1.421 . S
C39 C40 1.422 1_554 S
C39 C42 1.328 . S
C39 H66 0.931 . S
C40 C38 1.421 . S
C40 C39 1.422 1_556 S
C40 C64 1.413 1_556 S
C41 H18 0.931 . S
C41 N37 1.343 . S
C41 C42 1.384 1_556 S
C42 H20 0.929 . S
C42 C39 1.328 . S
C42 C41 1.384 1_554 S
O43 Gd11 2.386 1_556 S
O43 C55 1.265 . S
O44 Gd10 2.353 . S
O44 C55 1.242 . S
O45 Gd10 2.468 . S
O45 C63 1.263 . S
O46 Gd10 2.427 . S
O46 C63 1.252 . S
O47 Gd11 2.307 . S
O47 C56 1.261 1_554 S
O48 Gd10 2.388 . S
O48 C56 1.252 . S
O49 Gd10 2.386 1_554 S
O49 C67 1.265 . S
O50 Gd11 2.353 . S
O50 C67 1.242 . S
O51 Gd11 2.468 . S
O51 C75 1.263 . S
O52 Gd11 2.427 . S
O52 C75 1.252 . S
O53 Gd10 2.307 . S
O53 C68 1.261 1_556 S
O54 Gd11 2.388 . S
O54 C68 1.252 . S
C55 O43 1.265 . S
C55 O44 1.242 . S
C56 O47 1.261 1_556 S
C56 O48 1.252 . S
C57 C60 1.394 . S
C57 C62 1.370 . S
C57 C63 1.500 . S
C58 C61 1.383 . S
C58 C62 1.395 . S
C59 C60 1.396 . S
C59 C61 1.365 . S
C59 H76 0.929 . S
C60 C57 1.394 . S
C60 C59 1.396 . S
C60 H77 0.930 . S
C61 C58 1.383 . S
C61 C59 1.365 . S
C61 H78 0.931 . S
C62 C57 1.370 . S
C62 C58 1.395 . S
C62 H79 0.930 . S
C63 Gd10 2.805 . S
C63 O45 1.263 . S
C63 O46 1.252 . S
C63 C57 1.500 . S
C64 H26 0.934 . S
C64 C40 1.413 1_554 S
C64 C65 1.329 1_554 S
C65 C35 1.437 . S
C65 H36 0.929 1_545 S
C65 C64 1.329 1_556 S
H66 C39 0.931 . S
C67 O49 1.265 . S
C67 O50 1.242 . S
C68 O53 1.261 1_554 S
C68 O54 1.252 . S
C69 C72 1.394 . S
C69 C74 1.370 . S
C69 C75 1.500 . S
C70 C73 1.383 . S
C70 C74 1.395 . S
C71 C72 1.396 . S
C71 C73 1.365 . S
C71 H80 0.929 . S
C72 C69 1.394 . S
C72 C71 1.396 . S
C72 H81 0.930 . S
C73 C70 1.383 . S
C73 C71 1.365 . S
C73 H82 0.931 . S
C74 C69 1.370 . S
C74 C70 1.395 . S
C74 H83 0.930 . S
C75 Gd11 2.805 . S
C75 O51 1.263 . S
C75 O52 1.252 . S
C75 C69 1.500 . S
H76 C59 0.929 . S
H77 C60 0.930 . S
H78 C61 0.931 . S
H79 C62 0.930 . S
H80 C71 0.929 . S
H81 C72 0.930 . S
H82 C73 0.931 . S
H83 C74 0.930 . S
C84 C86 1.422 . S
C84 C88 1.415 . S
C84 N90 1.369 . S
C85 C86 1.421 . S
C85 C87 1.416 1_554 S
C85 C97 1.422 1_554 S
C86 C84 1.422 . S
C86 C85 1.421 . S
C86 N96 1.359 . S
C87 C85 1.416 1_556 S
C87 C89 1.329 1_556 S
C87 H106 0.931 . S
C88 C84 1.415 . S
C88 C89 1.437 . S
C88 C92 1.413 1_565 S
C89 C87 1.329 1_554 S
C89 C88 1.437 . S
C89 H111 0.929 1_565 S
N90 C84 1.369 . S
N90 C91 1.338 . S
N90 Gd95 2.622 . S
C91 N90 1.338 . S
C91 C93 1.378 1_565 S
C91 H103 0.929 . S
C92 C88 1.413 1_545 S
C92 C93 1.348 . S
C92 H108 0.931 . S
C93 C91 1.378 1_545 S
C93 C92 1.348 . S
C93 H109 0.930 . S
Gd94 N114 2.622 . S
Gd94 N121 2.570 . S
Gd94 O128 2.353 . S
Gd94 O129 2.468 . S
Gd94 O130 2.427 . S
Gd94 O132 2.388 . S
Gd94 O133 2.386 1_556 S
Gd94 O137 2.307 . S
Gd94 C147 2.805 . S
Gd95 N90 2.622 . S
Gd95 N96 2.570 . S
Gd95 O127 2.386 1_554 S
Gd95 O131 2.307 . S
Gd95 O134 2.353 . S
Gd95 O135 2.468 . S
Gd95 O136 2.427 . S
Gd95 O138 2.388 . S
Gd95 C159 2.805 . S
N96 C86 1.359 . S
N96 Gd95 2.570 . S
N96 C98 1.343 . S
C97 C85 1.422 1_556 S
C97 C99 1.325 . S
C97 H105 0.931 . S
C98 N96 1.343 . S
C98 C99 1.387 1_554 S
C98 H100 0.931 . S
C99 C97 1.325 . S
C99 C98 1.387 1_556 S
C99 H101 0.929 . S
H100 C98 0.931 . S
H101 C99 0.929 . S
H102 C125 0.931 . S
H103 C91 0.929 . S
H104 C126 0.929 . S
H105 C97 0.931 . S
H106 C87 0.931 . S
H107 C116 0.929 . S
H108 C92 0.931 . S
H109 C93 0.930 . S
H110 C148 0.934 . S
H111 C89 0.929 1_545 S
H112 C117 0.931 . S
H113 C118 0.930 . S
N114 Gd94 2.622 . S
N114 C115 1.369 . S
N114 C116 1.338 . S
C115 N114 1.369 . S
C115 C119 1.415 . S
C115 C122 1.422 . S
C116 H107 0.929 . S
C116 N114 1.338 . S
C116 C118 1.378 . S
C117 H112 0.931 . S
C117 C118 1.348 . S
C117 C119 1.413 . S
C118 H113 0.930 . S
C118 C116 1.378 . S
C118 C117 1.348 . S
C119 C115 1.415 . S
C119 C117 1.413 . S
C119 C149 1.437 1_655 S
H120 C149 0.929 . S
N121 Gd94 2.570 . S
N121 C122 1.359 . S
N121 C125 1.343 . S
C122 C115 1.422 . S
C122 N121 1.359 . S
C122 C124 1.421 1_655 S
C123 C124 1.422 1_554 S
C123 C126 1.328 . S
C123 H150 0.931 . S
C124 C122 1.421 1_455 S
C124 C123 1.422 1_556 S
C124 C148 1.413 1_556 S
C125 H102 0.931 . S
C125 N121 1.343 . S
C125 C126 1.384 1_656 S
C126 H104 0.929 . S
C126 C123 1.328 . S
C126 C125 1.384 1_454 S
O127 Gd95 2.386 1_556 S
O127 C139 1.265 . S
O128 Gd94 2.353 . S
O128 C139 1.242 . S
O129 Gd94 2.468 . S
O129 C147 1.263 . S
O130 Gd94 2.427 . S
O130 C147 1.252 . S
O131 Gd95 2.307 . S
O131 C140 1.261 1_554 S
O132 Gd94 2.388 . S
O132 C140 1.252 . S
O133 Gd94 2.386 1_554 S
O133 C151 1.265 . S
O134 Gd95 2.353 . S
O134 C151 1.242 . S
O135 Gd95 2.468 . S
O135 C159 1.263 . S
O136 Gd95 2.427 . S
O136 C159 1.252 . S
O137 Gd94 2.307 . S
O137 C152 1.261 1_556 S
O138 Gd95 2.388 . S
O138 C152 1.252 . S
C139 O127 1.265 . S
C139 O128 1.242 . S
C140 O131 1.261 1_556 S
C140 O132 1.252 . S
C141 C144 1.394 . S
C141 C146 1.370 . S
C141 C147 1.500 . S
C142 C145 1.383 . S
C142 C146 1.395 . S
C143 C144 1.396 . S
C143 C145 1.365 . S
C143 H160 0.929 . S
C144 C141 1.394 . S
C144 C143 1.396 . S
C144 H161 0.930 . S
C145 C142 1.383 . S
C145 C143 1.365 . S
C145 H162 0.931 . S
C146 C141 1.370 . S
C146 C142 1.395 . S
C146 H163 0.930 . S
C147 Gd94 2.805 . S
C147 O129 1.263 . S
C147 O130 1.252 . S
C147 C141 1.500 . S
C148 H110 0.934 . S
C148 C124 1.413 1_554 S
C148 C149 1.329 1_554 S
C149 C119 1.437 1_455 S
C149 H120 0.929 . S
C149 C148 1.329 1_556 S
H150 C123 0.931 . S
C151 O133 1.265 . S
C151 O134 1.242 . S
C152 O137 1.261 1_554 S
C152 O138 1.252 . S
C153 C156 1.394 . S
C153 C158 1.370 . S
C153 C159 1.500 . S
C154 C157 1.383 . S
C154 C158 1.395 . S
C155 C156 1.396 . S
C155 C157 1.365 . S
C155 H164 0.929 . S
C156 C153 1.394 . S
C156 C155 1.396 . S
C156 H165 0.930 . S
C157 C154 1.383 . S
C157 C155 1.365 . S
C157 H166 0.931 . S
C158 C153 1.370 . S
C158 C154 1.395 . S
C158 H167 0.930 . S
C159 Gd95 2.805 . S
C159 O135 1.263 . S
C159 O136 1.252 . S
C159 C153 1.500 . S
H160 C143 0.929 . S
H161 C144 0.930 . S
H162 C145 0.931 . S
H163 C146 0.930 . S
H164 C155 0.929 . S
H165 C156 0.930 . S
H166 C157 0.931 . S
H167 C158 0.930 . S
C168 C170 1.422 . S
C168 C172 1.415 . S
C168 N174 1.369 . S
C169 C170 1.421 1_655 S
C169 C171 1.417 . S
C169 C181 1.422 . S
C170 C168 1.422 . S
C170 C169 1.421 1_455 S
C170 N180 1.359 . S
C171 C169 1.417 . S
C171 C173 1.329 . S
C171 H190 0.930 . S
C172 C168 1.415 . S
C172 C173 1.437 1_455 S
C172 C176 1.413 . S
C173 C171 1.329 . S
C173 C172 1.437 1_655 S
C173 H195 0.929 . S
N174 C168 1.369 . S
N174 C175 1.338 . S
N174 Gd179 2.622 . S
C175 N174 1.338 . S
C175 C177 1.378 . S
C175 H187 0.929 . S
C176 C172 1.413 . S
C176 C177 1.348 . S
C176 H192 0.931 . S
C177 C175 1.378 . S
C177 C176 1.348 . S
C177 H193 0.930 . S
Gd178 N198 2.622 . S
Gd178 N205 2.570 . S
Gd178 O212 2.353 . S
Gd178 O213 2.468 . S
Gd178 O214 2.427 . S
Gd178 O216 2.388 . S
Gd178 O217 2.386 . S
Gd178 O221 2.307 . S
Gd178 C231 2.805 . S
Gd179 N174 2.622 . S
Gd179 N180 2.570 . S
Gd179 O211 2.386 . S
Gd179 O215 2.307 . S
Gd179 O218 2.353 . S
Gd179 O219 2.468 . S
Gd179 O220 2.427 . S
Gd179 O222 2.388 . S
Gd179 C243 2.805 . S
N180 C170 1.359 . S
N180 Gd179 2.570 . S
N180 C182 1.343 . S
C181 C169 1.422 . S
C181 C183 1.321 . S
C181 H189 0.931 . S
C182 N180 1.343 . S
C182 C183 1.390 1_455 S
C182 H184 0.931 . S
C183 C181 1.321 . S
C183 C182 1.390 1_655 S
C183 H185 0.930 . S
H184 C182 0.931 . S
H185 C183 0.930 . S
H186 C209 0.931 . S
H187 C175 0.929 . S
H188 C210 0.930 . S
H189 C181 0.931 . S
H190 C171 0.930 . S
H191 C200 0.929 . S
H192 C176 0.931 . S
H193 C177 0.930 . S
H194 C232 0.930 . S
H195 C173 0.929 . S
H196 C201 0.931 . S
H197 C202 0.930 . S
N198 Gd178 2.622 . S
N198 C199 1.369 . S
N198 C200 1.338 . S
C199 N198 1.369 . S
C199 C203 1.415 . S
C199 C206 1.422 . S
C200 H191 0.929 . S
C200 N198 1.338 . S
C200 C202 1.378 1_565 S
C201 H196 0.931 . S
C201 C202 1.348 . S
C201 C203 1.413 1_545 S
C202 H197 0.930 . S
C202 C200 1.378 1_545 S
C202 C201 1.348 . S
C203 C199 1.415 . S
C203 C201 1.413 1_565 S
C203 C233 1.437 . S
H204 C233 0.929 1_545 S
N205 Gd178 2.570 . S
N205 C206 1.359 . S
N205 C209 1.343 . S
C206 C199 1.422 . S
C206 N205 1.359 . S
C206 C208 1.421 . S
C207 C208 1.422 . S
C207 C210 1.321 . S
C207 H234 0.931 . S
C208 C206 1.421 . S
C208 C207 1.422 . S
C208 C232 1.417 . S
C209 H186 0.931 . S
C209 N205 1.343 . S
C209 C210 1.390 . S
C210 H188 0.930 . S
C210 C207 1.321 . S
C210 C209 1.390 . S
O211 Gd179 2.386 . S
O211 C223 1.265 . S
O212 Gd178 2.353 . S
O212 C223 1.242 . S
O213 Gd178 2.468 . S
O213 C231 1.263 . S
O214 Gd178 2.427 . S
O214 C231 1.252 . S
O215 Gd179 2.307 . S
O215 C224 1.261 . S
O216 Gd178 2.388 . S
O216 C224 1.252 . S
O217 Gd178 2.386 . S
O217 C235 1.265 . S
O218 Gd179 2.353 . S
O218 C235 1.242 . S
O219 Gd179 2.468 . S
O219 C243 1.263 . S
O220 Gd179 2.427 . S
O220 C243 1.252 . S
O221 Gd178 2.307 . S
O221 C236 1.261 . S
O222 Gd179 2.388 . S
O222 C236 1.252 . S
C223 O211 1.265 . S
C223 O212 1.242 . S
C224 O215 1.261 . S
C224 O216 1.252 . S
C225 C228 1.394 . S
C225 C230 1.370 . S
C225 C231 1.500 . S
C226 C229 1.383 . S
C226 C230 1.395 . S
C227 C228 1.396 . S
C227 C229 1.365 . S
C227 H244 0.929 . S
C228 C225 1.394 . S
C228 C227 1.396 . S
C228 H245 0.930 . S
C229 C226 1.383 . S
C229 C227 1.365 . S
C229 H246 0.931 . S
C230 C225 1.370 . S
C230 C226 1.395 . S
C230 H247 0.930 . S
C231 Gd178 2.805 . S
C231 O213 1.263 . S
C231 O214 1.252 . S
C231 C225 1.500 . S
C232 H194 0.930 . S
C232 C208 1.417 . S
C232 C233 1.329 . S
C233 C203 1.437 . S
C233 H204 0.929 1_565 S
C233 C232 1.329 . S
H234 C207 0.931 . S
C235 O217 1.265 . S
C235 O218 1.242 . S
C236 O221 1.261 . S
C236 O222 1.252 . S
C237 C240 1.394 . S
C237 C242 1.370 . S
C237 C243 1.500 . S
C238 C241 1.383 . S
C238 C242 1.395 . S
C239 C240 1.396 . S
C239 C241 1.365 . S
C239 H248 0.929 . S
C240 C237 1.394 . S
C240 C239 1.396 . S
C240 H249 0.930 . S
C241 C238 1.383 . S
C241 C239 1.365 . S
C241 H250 0.931 . S
C242 C237 1.370 . S
C242 C238 1.395 . S
C242 H251 0.930 . S
C243 Gd179 2.805 . S
C243 O219 1.263 . S
C243 O220 1.252 . S
C243 C237 1.500 . S
H244 C227 0.929 . S
H245 C228 0.930 . S
H246 C229 0.931 . S
H247 C230 0.930 . S
H248 C239 0.929 . S
H249 C240 0.930 . S
H250 C241 0.931 . S
H251 C242 0.930 . S
C252 C254 1.422 . S
C252 C256 1.415 . S
C252 N258 1.369 . S
C253 C254 1.421 . S
C253 C255 1.417 . S
C253 C265 1.422 . S
C254 C252 1.422 . S
C254 C253 1.421 . S
C254 N264 1.359 . S
C255 C253 1.417 . S
C255 C257 1.329 . S
C255 H274 0.930 . S
C256 C252 1.415 . S
C256 C257 1.437 . S
C256 C260 1.413 1_545 S
C257 C255 1.329 . S
C257 C256 1.437 . S
C257 H279 0.929 1_545 S
N258 C252 1.369 . S
N258 C259 1.338 . S
N258 Gd263 2.622 . S
C259 N258 1.338 . S
C259 C261 1.378 1_545 S
C259 H271 0.929 . S
C260 C256 1.413 1_565 S
C260 C261 1.348 . S
C260 H276 0.931 . S
C261 C259 1.378 1_565 S
C261 C260 1.348 . S
C261 H277 0.930 . S
Gd262 N282 2.622 . S
Gd262 N289 2.570 . S
Gd262 O296 2.353 . S
Gd262 O297 2.468 . S
Gd262 O298 2.427 . S
Gd262 O300 2.388 . S
Gd262 O301 2.386 . S
Gd262 O305 2.307 . S
Gd262 C315 2.805 . S
Gd263 N258 2.622 . S
Gd263 N264 2.570 . S
Gd263 O295 2.386 . S
Gd263 O299 2.307 . S
Gd263 O302 2.353 . S
Gd263 O303 2.468 . S
Gd263 O304 2.427 . S
Gd263 O306 2.388 . S
Gd263 C327 2.805 . S
N264 C254 1.359 . S
N264 Gd263 2.570 . S
N264 C266 1.343 . S
C265 C253 1.422 . S
C265 C267 1.321 . S
C265 H273 0.931 . S
C266 N264 1.343 . S
C266 C267 1.390 . S
C266 H268 0.931 . S
C267 C265 1.321 . S
C267 C266 1.390 . S
C267 H269 0.930 . S
H268 C266 0.931 . S
H269 C267 0.930 . S
H270 C293 0.931 . S
H271 C259 0.929 . S
H272 C294 0.930 . S
H273 C265 0.931 . S
H274 C255 0.930 . S
H275 C284 0.929 . S
H276 C260 0.931 . S
H277 C261 0.930 . S
H278 C316 0.930 . S
H279 C257 0.929 1_565 S
H280 C285 0.931 . S
H281 C286 0.930 . S
N282 Gd262 2.622 . S
N282 C283 1.369 . S
N282 C284 1.338 . S
C283 N282 1.369 . S
C283 C287 1.415 . S
C283 C290 1.422 . S
C284 H275 0.929 . S
C284 N282 1.338 . S
C284 C286 1.378 . S
C285 H280 0.931 . S
C285 C286 1.348 . S
C285 C287 1.413 . S
C286 H281 0.930 . S
C286 C284 1.378 . S
C286 C285 1.348 . S
C287 C283 1.415 . S
C287 C285 1.413 . S
C287 C317 1.437 1_655 S
H288 C317 0.929 . S
N289 Gd262 2.570 . S
N289 C290 1.359 . S
N289 C293 1.343 . S
C290 C283 1.422 . S
C290 N289 1.359 . S
C290 C292 1.421 1_655 S
C291 C292 1.422 . S
C291 C294 1.321 . S
C291 H318 0.931 . S
C292 C290 1.421 1_455 S
C292 C291 1.422 . S
C292 C316 1.417 . S
C293 H270 0.931 . S
C293 N289 1.343 . S
C293 C294 1.390 1_655 S
C294 H272 0.930 . S
C294 C291 1.321 . S
C294 C293 1.390 1_455 S
O295 Gd263 2.386 . S
O295 C307 1.265 . S
O296 Gd262 2.353 . S
O296 C307 1.242 . S
O297 Gd262 2.468 . S
O297 C315 1.263 . S
O298 Gd262 2.427 . S
O298 C315 1.252 . S
O299 Gd263 2.307 . S
O299 C308 1.261 . S
O300 Gd262 2.388 . S
O300 C308 1.252 . S
O301 Gd262 2.386 . S
O301 C319 1.265 . S
O302 Gd263 2.353 . S
O302 C319 1.242 . S
O303 Gd263 2.468 . S
O303 C327 1.263 . S
O304 Gd263 2.427 . S
O304 C327 1.252 . S
O305 Gd262 2.307 . S
O305 C320 1.261 . S
O306 Gd263 2.388 . S
O306 C320 1.252 . S
C307 O295 1.265 . S
C307 O296 1.242 . S
C308 O299 1.261 . S
C308 O300 1.252 . S
C309 C312 1.394 . S
C309 C314 1.370 . S
C309 C315 1.500 . S
C310 C313 1.383 . S
C310 C314 1.395 . S
C311 C312 1.396 . S
C311 C313 1.365 . S
C311 H328 0.929 . S
C312 C309 1.394 . S
C312 C311 1.396 . S
C312 H329 0.930 . S
C313 C310 1.383 . S
C313 C311 1.365 . S
C313 H330 0.931 . S
C314 C309 1.370 . S
C314 C310 1.395 . S
C314 H331 0.930 . S
C315 Gd262 2.805 . S
C315 O297 1.263 . S
C315 O298 1.252 . S
C315 C309 1.500 . S
C316 H278 0.930 . S
C316 C292 1.417 . S
C316 C317 1.329 . S
C317 C287 1.437 1_455 S
C317 H288 0.929 . S
C317 C316 1.329 . S
H318 C291 0.931 . S
C319 O301 1.265 . S
C319 O302 1.242 . S
C320 O305 1.261 . S
C320 O306 1.252 . S
C321 C324 1.394 . S
C321 C326 1.370 . S
C321 C327 1.500 . S
C322 C325 1.383 . S
C322 C326 1.395 . S
C323 C324 1.396 . S
C323 C325 1.365 . S
C323 H332 0.929 . S
C324 C321 1.394 . S
C324 C323 1.396 . S
C324 H333 0.930 . S
C325 C322 1.383 . S
C325 C323 1.365 . S
C325 H334 0.931 . S
C326 C321 1.370 . S
C326 C322 1.395 . S
C326 H335 0.930 . S
C327 Gd263 2.805 . S
C327 O303 1.263 . S
C327 O304 1.252 . S
C327 C321 1.500 . S
H328 C311 0.929 . S
H329 C312 0.930 . S
H330 C313 0.931 . S
H331 C314 0.930 . S
H332 C323 0.929 . S
H333 C324 0.930 . S
H334 C325 0.931 . S
H335 C326 0.930 . S
H336 C344 0.950 . S
H337 C349 0.950 . S
H338 C346 0.950 . S
H339 C348 0.950 . S
H340 C350 0.950 . S
H341 C352 0.950 . S
H342 C354 0.950 . S
H343 C355 0.950 . S
C344 H336 0.950 . S
C344 C345 1.356 1_554 S
C344 C346 1.391 . S
C345 C344 1.356 1_556 S
C345 C349 1.414 . S
C346 H338 0.950 . S
C346 C344 1.391 . S
C346 C347 1.398 . S
C347 C346 1.398 . S
C347 C348 1.401 1_554 S
C347 C353 1.489 . S
C348 H339 0.950 . S
C348 C347 1.401 1_556 S
C348 C349 1.391 . S
C349 H337 0.950 . S
C349 C345 1.414 . S
C349 C348 1.391 . S
C350 H340 0.950 . S
C350 C351 1.386 1_556 S
C350 C352 1.391 . S
C351 C350 1.386 1_554 S
C351 C355 1.393 . S
C352 H341 0.950 . S
C352 C350 1.391 . S
C352 C353 1.398 1_556 S
C353 C347 1.489 . S
C353 C352 1.398 1_554 S
C353 C354 1.401 . S
C354 H342 0.950 . S
C354 C353 1.401 . S
C354 C355 1.391 . S
C355 H343 0.950 . S
C355 C351 1.393 . S
C355 C354 1.391 . S
H356 C364 0.950 . S
H357 C369 0.950 . S
H358 C366 0.950 . S
H359 C368 0.950 . S
H360 C370 0.950 . S
H361 C372 0.950 . S
H362 C374 0.950 . S
H363 C375 0.950 . S
C364 H356 0.950 . S
C364 C365 1.386 . S
C364 C366 1.391 . S
C365 C364 1.386 . S
C365 C369 1.393 . S
C366 H358 0.950 . S
C366 C364 1.391 . S
C366 C367 1.400 . S
C367 C366 1.400 . S
C367 C368 1.398 . S
C367 C373 1.491 . S
C368 H359 0.950 . S
C368 C367 1.398 . S
C368 C369 1.391 . S
C369 H357 0.950 . S
C369 C365 1.393 . S
C369 C368 1.391 . S
C370 H360 0.950 . S
C370 C371 1.386 . S
C370 C372 1.391 . S
C371 C370 1.386 . S
C371 C375 1.393 . S
C372 H361 0.950 . S
C372 C370 1.391 . S
C372 C373 1.400 . S
C373 C367 1.491 . S
C373 C372 1.400 . S
C373 C374 1.398 . S
C374 H362 0.950 . S
C374 C373 1.398 . S
C374 C375 1.391 . S
C375 H363 0.950 . S
C375 C371 1.393 . S
C375 C374 1.391 . S
H376 C384 0.950 . S
H377 C389 0.950 . S
H378 C386 0.950 1_655 S
H379 C388 0.950 1_565 S
H380 C390 0.950 . S
H381 C392 0.950 1_455 S
H382 C394 0.950 1_545 S
H383 C395 0.950 . S
C384 H376 0.950 . S
C384 C385 1.386 1_554 S
C384 C386 1.391 . S
C385 C384 1.386 1_556 S
C385 C389 1.393 . S
C386 H378 0.950 1_455 S
C386 C384 1.391 . S
C386 C387 1.397 1_554 S
C387 C386 1.397 1_556 S
C387 C388 1.411 . S
C387 C393 1.483 1_446 S
C388 H379 0.950 1_545 S
C388 C387 1.411 . S
C388 C389 1.391 . S
C389 H377 0.950 . S
C389 C385 1.393 . S
C389 C388 1.391 . S
C390 H380 0.950 . S
C390 C391 1.386 1_556 S
C390 C392 1.391 . S
C391 C390 1.386 1_554 S
C391 C395 1.393 . S
C392 H381 0.950 1_655 S
C392 C390 1.391 . S
C392 C393 1.400 1_556 S
C393 C387 1.483 1_664 S
C393 C392 1.400 1_554 S
C393 C394 1.398 . S
C394 H382 0.950 1_565 S
C394 C393 1.398 . S
C394 C395 1.391 . S
C395 H383 0.950 . S
C395 C391 1.393 . S
C395 C394 1.391 . S
H396 C404 0.950 . S
H397 C409 0.950 . S
H398 C406 0.950 1_455 S
H399 C408 0.950 1_565 S
H400 C410 0.950 . S
H401 C412 0.950 1_655 S
H402 C414 0.950 1_545 S
H403 C415 0.950 . S
C404 H396 0.950 . S
C404 C405 1.386 . S
C404 C406 1.391 . S
C405 C404 1.386 . S
C405 C409 1.393 . S
C406 H398 0.950 1_655 S
C406 C404 1.391 . S
C406 C407 1.400 . S
C407 C406 1.400 . S
C407 C408 1.398 . S
C407 C413 1.491 1_645 S
C408 H399 0.950 1_545 S
C408 C407 1.398 . S
C408 C409 1.391 . S
C409 H397 0.950 . S
C409 C405 1.393 . S
C409 C408 1.391 . S
C410 H400 0.950 . S
C410 C411 1.386 . S
C410 C412 1.391 . S
C411 C410 1.386 . S
C411 C415 1.393 . S
C412 H401 0.950 1_455 S
C412 C410 1.391 . S
C412 C413 1.400 . S
C413 C407 1.491 1_465 S
C413 C412 1.400 . S
C413 C414 1.398 . S
C414 H402 0.950 1_565 S
C414 C413 1.398 . S
C414 C415 1.391 . S
C415 H403 0.950 . S
C415 C411 1.393 . S
C415 C414 1.391 . S
H416 C424 0.950 . S
H417 C429 0.950 . S
H418 C426 0.950 . S
H419 C428 0.950 . S
H420 C430 0.950 . S
H421 C432 0.950 . S
H422 C434 0.950 . S
H423 C435 0.950 . S
C424 H416 0.950 . S
C424 C425 1.386 . S
C424 C426 1.391 . S
C425 C424 1.386 . S
C425 C429 1.393 . S
C426 H418 0.950 . S
C426 C424 1.391 . S
C426 C427 1.400 . S
C427 C426 1.400 . S
C427 C428 1.398 . S
C427 C433 1.491 . S
C428 H419 0.950 . S
C428 C427 1.398 . S
C428 C429 1.391 . S
C429 H417 0.950 . S
C429 C425 1.393 . S
C429 C428 1.391 . S
C430 H420 0.950 . S
C430 C431 1.386 . S
C430 C432 1.391 . S
C431 C430 1.386 . S
C431 C435 1.393 . S
C432 H421 0.950 . S
C432 C430 1.391 . S
C432 C433 1.400 . S
C433 C427 1.491 . S
C433 C432 1.400 . S
C433 C434 1.398 . S
C434 H422 0.950 . S
C434 C433 1.398 . S
C434 C435 1.391 . S
C435 H423 0.950 . S
C435 C431 1.393 . S
C435 C434 1.391 . S
H436 C444 0.950 . S
H437 C449 0.950 . S
H438 C446 0.950 . S
H439 C448 0.950 . S
H440 C450 0.950 . S
H441 C452 0.950 . S
H442 C454 0.950 . S
H443 C455 0.950 . S
C444 H436 0.950 . S
C444 C445 1.386 . S
C444 C446 1.391 . S
C445 C444 1.386 . S
C445 C449 1.393 . S
C446 H438 0.950 . S
C446 C444 1.391 . S
C446 C447 1.400 . S
C447 C446 1.400 . S
C447 C448 1.398 . S
C447 C453 1.491 . S
C448 H439 0.950 . S
C448 C447 1.398 . S
C448 C449 1.391 . S
C449 H437 0.950 . S
C449 C445 1.393 . S
C449 C448 1.391 . S
C450 H440 0.950 . S
C450 C451 1.386 . S
C450 C452 1.391 . S
C451 C450 1.386 . S
C451 C455 1.393 . S
C452 H441 0.950 . S
C452 C450 1.391 . S
C452 C453 1.400 . S
C453 C447 1.491 . S
C453 C452 1.400 . S
C453 C454 1.398 . S
C454 H442 0.950 . S
C454 C453 1.398 . S
C454 C455 1.391 . S
C455 H443 0.950 . S
C455 C451 1.393 . S
C455 C454 1.391 . S
H456 C464 0.950 . S
H457 C469 0.950 . S
H458 C466 0.950 . S
H459 C468 0.950 . S
H460 C470 0.950 . S
H461 C472 0.950 . S
H462 C474 0.950 . S
H463 C475 0.950 . S
C464 H456 0.950 . S
C464 C465 1.386 . S
C464 C466 1.391 . S
C465 C464 1.386 . S
C465 C469 1.393 . S
C466 H458 0.950 . S
C466 C464 1.391 . S
C466 C467 1.400 . S
C467 C466 1.400 . S
C467 C468 1.398 . S
C467 C473 1.491 . S
C468 H459 0.950 . S
C468 C467 1.398 . S
C468 C469 1.391 . S
C469 H457 0.950 . S
C469 C465 1.393 . S
C469 C468 1.391 . S
C470 H460 0.950 . S
C470 C471 1.386 . S
C470 C472 1.391 . S
C471 C470 1.386 . S
C471 C475 1.393 . S
C472 H461 0.950 . S
C472 C470 1.391 . S
C472 C473 1.400 . S
C473 C467 1.491 . S
C473 C472 1.400 . S
C473 C474 1.398 . S
C474 H462 0.950 . S
C474 C473 1.398 . S
C474 C475 1.391 . S
C475 H463 0.950 . S
C475 C471 1.393 . S
C475 C474 1.391 . S
H476 C484 0.950 . S
H477 C489 0.950 . S
H478 C486 0.950 . S
H479 C488 0.950 . S
H480 C490 0.950 . S
H481 C492 0.950 . S
H482 C494 0.950 . S
H483 C495 0.950 . S
C484 H476 0.950 . S
C484 C485 1.386 . S
C484 C486 1.391 . S
C485 C484 1.386 . S
C485 C489 1.393 . S
C486 H478 0.950 . S
C486 C484 1.391 . S
C486 C487 1.400 . S
C487 C486 1.400 . S
C487 C488 1.398 . S
C487 C493 1.491 . S
C488 H479 0.950 . S
C488 C487 1.398 . S
C488 C489 1.391 . S
C489 H477 0.950 . S
C489 C485 1.393 . S
C489 C488 1.391 . S
C490 H480 0.950 . S
C490 C491 1.386 . S
C490 C492 1.391 . S
C491 C490 1.386 . S
C491 C495 1.393 . S
C492 H481 0.950 . S
C492 C490 1.391 . S
C492 C493 1.400 . S
C493 C487 1.491 . S
C493 C492 1.400 . S
C493 C494 1.398 . S
C494 H482 0.950 . S
C494 C493 1.398 . S
C494 C495 1.391 . S
C495 H483 0.950 . S
C495 C491 1.393 . S
C495 C494 1.391 . S
H496 C504 0.950 . S
H497 C509 0.950 . S
H498 C506 0.950 . S
H499 C508 0.950 . S
H500 C510 0.950 . S
H501 C512 0.950 . S
H502 C514 0.950 . S
H503 C515 0.950 . S
C504 H496 0.950 . S
C504 C505 1.386 . S
C504 C506 1.391 . S
C505 C504 1.386 . S
C505 C509 1.393 . S
C506 H498 0.950 . S
C506 C504 1.391 . S
C506 C507 1.400 . S
C507 C506 1.400 . S
C507 C508 1.398 . S
C507 C513 1.491 . S
C508 H499 0.950 . S
C508 C507 1.398 . S
C508 C509 1.391 . S
C509 H497 0.950 . S
C509 C505 1.393 . S
C509 C508 1.391 . S
C510 H500 0.950 . S
C510 C511 1.386 . S
C510 C512 1.391 . S
C511 C510 1.386 . S
C511 C515 1.393 1_455 S
C512 H501 0.950 . S
C512 C510 1.391 . S
C512 C513 1.400 1_455 S
C513 C507 1.491 . S
C513 C512 1.400 1_655 S
C513 C514 1.398 . S
C514 H502 0.950 . S
C514 C513 1.398 . S
C514 C515 1.391 . S
C515 H503 0.950 . S
C515 C511 1.393 1_655 S
C515 C514 1.391 . S
H516 C524 0.950 . S
H517 C529 0.950 . S
H518 C526 0.950 . S
H519 C528 0.950 . S
H520 C530 0.950 . S
H521 C532 0.950 . S
H522 C534 0.950 . S
H523 C535 0.950 . S
C524 H516 0.950 . S
C524 C525 1.386 . S
C524 C526 1.391 . S
C525 C524 1.386 . S
C525 C529 1.393 . S
C526 H518 0.950 . S
C526 C524 1.391 . S
C526 C527 1.400 . S
C527 C526 1.400 . S
C527 C528 1.398 . S
C527 C533 1.491 . S
C528 H519 0.950 . S
C528 C527 1.398 . S
C528 C529 1.391 . S
C529 H517 0.950 . S
C529 C525 1.393 . S
C529 C528 1.391 . S
C530 H520 0.950 . S
C530 C531 1.386 . S
C530 C532 1.391 . S
C531 C530 1.386 . S
C531 C535 1.393 1_455 S
C532 H521 0.950 . S
C532 C530 1.391 . S
C532 C533 1.400 1_455 S
C533 C527 1.491 . S
C533 C532 1.400 1_655 S
C533 C534 1.398 . S
C534 H522 0.950 . S
C534 C533 1.398 . S
C534 C535 1.391 . S
C535 H523 0.950 . S
C535 C531 1.393 1_655 S
C535 C534 1.391 . S
H536 C544 0.950 . S
H537 C549 0.950 . S
H538 C546 0.950 . S
H539 C548 0.950 1_655 S
H540 C550 0.950 . S
H541 C552 0.950 . S
H542 C554 0.950 . S
H543 C555 0.950 . S
C544 H536 0.950 . S
C544 C545 1.386 1_455 S
C544 C546 1.391 . S
C545 C544 1.386 1_655 S
C545 C549 1.393 . S
C546 H538 0.950 . S
C546 C544 1.391 . S
C546 C547 1.400 . S
C547 C546 1.400 . S
C547 C548 1.398 . S
C547 C553 1.491 . S
C548 H539 0.950 1_455 S
C548 C547 1.398 . S
C548 C549 1.391 1_455 S
C549 H537 0.950 . S
C549 C545 1.393 . S
C549 C548 1.391 1_655 S
C550 H540 0.950 . S
C550 C551 1.386 . S
C550 C552 1.391 . S
C551 C550 1.386 . S
C551 C555 1.393 . S
C552 H541 0.950 . S
C552 C550 1.391 . S
C552 C553 1.400 . S
C553 C547 1.491 . S
C553 C552 1.400 . S
C553 C554 1.398 . S
C554 H542 0.950 . S
C554 C553 1.398 . S
C554 C555 1.391 . S
C555 H543 0.950 . S
C555 C551 1.393 . S
C555 C554 1.391 . S
H556 C564 0.950 . S
H557 C569 0.950 . S
H558 C566 0.950 . S
H559 C568 0.950 . S
H560 C570 0.950 1_655 S
H561 C572 0.950 . S
H562 C574 0.950 . S
H563 C575 0.950 . S
C564 H556 0.950 . S
C564 C565 1.386 . S
C564 C566 1.391 . S
C565 C564 1.386 . S
C565 C569 1.393 . S
C566 H558 0.950 . S
C566 C564 1.391 . S
C566 C567 1.400 . S
C567 C566 1.400 . S
C567 C568 1.398 . S
C567 C573 1.491 . S
C568 H559 0.950 . S
C568 C567 1.398 . S
C568 C569 1.391 . S
C569 H557 0.950 . S
C569 C565 1.393 . S
C569 C568 1.391 . S
C570 H560 0.950 1_455 S
C570 C571 1.386 1_455 S
C570 C572 1.391 . S
C571 C570 1.386 1_655 S
C571 C575 1.393 1_655 S
C572 H561 0.950 . S
C572 C570 1.391 . S
C572 C573 1.400 . S
C573 C567 1.491 . S
C573 C572 1.400 . S
C573 C574 1.398 . S
C574 H562 0.950 . S
C574 C573 1.398 . S
C574 C575 1.391 . S
C575 H563 0.950 . S
C575 C571 1.393 1_455 S
C575 C574 1.391 . S
C345 C140 1.521 . S
C351 C68 1.508 . S
C365 C236 1.518 . S
C371 C308 1.518 . S
C385 C56 1.502 . S
C391 C152 1.502 . S
C405 C320 1.516 . S
C411 C224 1.516 . S
C425 C322 1.235 . S
C431 C67 1.301 . S
C445 C154 1.249 . S
C451 C235 1.304 . S
C465 C139 1.310 . S
C471 C226 1.213 . S
C485 C307 1.311 . S
C491 C58 1.252 . S
C505 C151 1.310 . S
C511 C238 1.249 . S
C525 C319 1.304 . S
C531 C70 1.241 . S
C545 C310 1.216 . S
C551 C55 1.308 . S
C565 C223 1.304 . S
C571 C142 1.222 . S
