# Generated by pormake.
# Topology fnl, (5)-cn, num edge types: 1
# Building blocks:
#     Node 0, Type 0, BuildingBlock: BEQFEK_clean_sbu_0, # of connection points: 5
#     Node 1, Type 0, BuildingBlock: BEQFEK_clean_sbu_0, # of connection points: 5
#     Node 2, Type 0, BuildingBlock: BEQFEK_clean_sbu_0, # of connection points: 5
#     Node 3, Type 0, BuildingBlock: BEQFEK_clean_sbu_0, # of connection points: 5
#     Node 4, Type 0, BuildingBlock: BEQFEK_clean_sbu_0, # of connection points: 5
#     Node 5, Type 0, BuildingBlock: BEQFEK_clean_sbu_0, # of connection points: 5
#     Node 6, Type 0, BuildingBlock: BEQFEK_clean_sbu_0, # of connection points: 5
#     Node 7, Type 0, BuildingBlock: BEQFEK_clean_sbu_0, # of connection points: 5
#     Node 8, Type 0, BuildingBlock: BEQFEK_clean_sbu_0, # of connection points: 5
#     Node 9, Type 0, BuildingBlock: BEQFEK_clean_sbu_0, # of connection points: 5
#     Node 10, Type 0, BuildingBlock: BEQFEK_clean_sbu_0, # of connection points: 5
#     Node 11, Type 0, BuildingBlock: BEQFEK_clean_sbu_0, # of connection points: 5
#     Node 12, Type 0, BuildingBlock: BEQFEK_clean_sbu_0, # of connection points: 5
#     Node 13, Type 0, BuildingBlock: BEQFEK_clean_sbu_0, # of connection points: 5
#     Node 14, Type 0, BuildingBlock: BEQFEK_clean_sbu_0, # of connection points: 5
#     Node 15, Type 0, BuildingBlock: BEQFEK_clean_sbu_0, # of connection points: 5
#     Edge 16, Type (0, 0), BuildingBlock: CIFDUS_clean_linker_0, # of connection points: 2
#     Edge 17, Type (0, 0), BuildingBlock: CIFDUS_clean_linker_0, # of connection points: 2
#     Edge 18, Type (0, 0), BuildingBlock: CIFDUS_clean_linker_0, # of connection points: 2
#     Edge 19, Type (0, 0), BuildingBlock: CIFDUS_clean_linker_0, # of connection points: 2
#     Edge 20, Type (0, 0), BuildingBlock: CIFDUS_clean_linker_0, # of connection points: 2
#     Edge 21, Type (0, 0), BuildingBlock: CIFDUS_clean_linker_0, # of connection points: 2
#     Edge 22, Type (0, 0), BuildingBlock: CIFDUS_clean_linker_0, # of connection points: 2
#     Edge 23, Type (0, 0), BuildingBlock: CIFDUS_clean_linker_0, # of connection points: 2
#     Edge 24, Type (0, 0), BuildingBlock: CIFDUS_clean_linker_0, # of connection points: 2
#     Edge 25, Type (0, 0), BuildingBlock: CIFDUS_clean_linker_0, # of connection points: 2
#     Edge 26, Type (0, 0), BuildingBlock: CIFDUS_clean_linker_0, # of connection points: 2
#     Edge 27, Type (0, 0), BuildingBlock: CIFDUS_clean_linker_0, # of connection points: 2
#     Edge 28, Type (0, 0), BuildingBlock: CIFDUS_clean_linker_0, # of connection points: 2
#     Edge 29, Type (0, 0), BuildingBlock: CIFDUS_clean_linker_0, # of connection points: 2
#     Edge 30, Type (0, 0), BuildingBlock: CIFDUS_clean_linker_0, # of connection points: 2
#     Edge 31, Type (0, 0), BuildingBlock: CIFDUS_clean_linker_0, # of connection points: 2
#     Edge 32, Type (0, 0), BuildingBlock: CIFDUS_clean_linker_0, # of connection points: 2
#     Edge 33, Type (0, 0), BuildingBlock: CIFDUS_clean_linker_0, # of connection points: 2
#     Edge 34, Type (0, 0), BuildingBlock: CIFDUS_clean_linker_0, # of connection points: 2
#     Edge 35, Type (0, 0), BuildingBlock: CIFDUS_clean_linker_0, # of connection points: 2
#     Edge 36, Type (0, 0), BuildingBlock: CIFDUS_clean_linker_0, # of connection points: 2
#     Edge 37, Type (0, 0), BuildingBlock: CIFDUS_clean_linker_0, # of connection points: 2
#     Edge 38, Type (0, 0), BuildingBlock: CIFDUS_clean_linker_0, # of connection points: 2
#     Edge 39, Type (0, 0), BuildingBlock: CIFDUS_clean_linker_0, # of connection points: 2
#     Edge 40, Type (0, 0), BuildingBlock: CIFDUS_clean_linker_0, # of connection points: 2
#     Edge 41, Type (0, 0), BuildingBlock: CIFDUS_clean_linker_0, # of connection points: 2
#     Edge 42, Type (0, 0), BuildingBlock: CIFDUS_clean_linker_0, # of connection points: 2
#     Edge 43, Type (0, 0), BuildingBlock: CIFDUS_clean_linker_0, # of connection points: 2
#     Edge 44, Type (0, 0), BuildingBlock: CIFDUS_clean_linker_0, # of connection points: 2
#     Edge 45, Type (0, 0), BuildingBlock: CIFDUS_clean_linker_0, # of connection points: 2
#     Edge 46, Type (0, 0), BuildingBlock: CIFDUS_clean_linker_0, # of connection points: 2
#     Edge 47, Type (0, 0), BuildingBlock: CIFDUS_clean_linker_0, # of connection points: 2
#     Edge 48, Type (0, 0), BuildingBlock: CIFDUS_clean_linker_0, # of connection points: 2
#     Edge 49, Type (0, 0), BuildingBlock: CIFDUS_clean_linker_0, # of connection points: 2
#     Edge 50, Type (0, 0), BuildingBlock: CIFDUS_clean_linker_0, # of connection points: 2
#     Edge 51, Type (0, 0), BuildingBlock: CIFDUS_clean_linker_0, # of connection points: 2
#     Edge 52, Type (0, 0), BuildingBlock: CIFDUS_clean_linker_0, # of connection points: 2
#     Edge 53, Type (0, 0), BuildingBlock: CIFDUS_clean_linker_0, # of connection points: 2
#     Edge 54, Type (0, 0), BuildingBlock: CIFDUS_clean_linker_0, # of connection points: 2
#     Edge 55, Type (0, 0), BuildingBlock: CIFDUS_clean_linker_0, # of connection points: 2
# Relax obj value: 0.399
# Max RMSD: 0.236
# Mean RMSD: 0.236
data_MOF--net-fnl--node1-BEQFEK_clean_sbu_0--edge1-CIFDUS_clean_linker_0
_symmetry_space_group_name_H-M    P1
_symmetry_Int_Tables_number       1
_symmetry_cell_setting            triclinic
loop_
_symmetry_equiv_pos_as_xyz
'x, y, z'
_cell_length_a     32.562071
_cell_length_b     32.382816
_cell_length_c     89.362471
_cell_angle_alpha  89.926239
_cell_angle_beta   90.009406
_cell_angle_gamma 89.891786
loop_
_atom_site_label
_atom_site_type_symbol
_atom_site_fract_x
_atom_site_fract_y
_atom_site_fract_z
_atom_type_partial_charge
Co0 Co 0.99382 0.07235 0.07776 0.0
Co1 Co 0.0102 0.15752 0.09269 0.0
C2 C 0.93147 0.11083 0.09815 0.0
O3 O 0.94252 0.08184 0.08937 0.0
O4 O 0.95453 0.14209 0.10041 0.0
C5 C 0.95642 0.00798 0.05869 0.0
O6 O 0.9194 0.0223 0.06136 0.0
C7 C 0.00288 0.24558 0.10116 0.0
C8 C 0.06833 0.26197 0.10392 0.0
C9 C 0.02903 0.27834 0.10433 0.0
N10 N 0.02586 0.21171 0.09871 0.0
N11 N 0.06489 0.22169 0.10051 0.0
C12 C 0.95688 0.24572 0.10107 0.0
H13 H 0.94507 0.21662 0.10591 0.0
H14 H 0.94576 0.24799 0.08937 0.0
H15 H 0.94442 0.27193 0.10765 0.0
C16 C 0.01043 0.11968 0.05056 0.0
N17 N 0.00726 0.11735 0.06551 0.0
N18 N 0.01256 0.15419 0.07133 0.0
C19 C 0.01817 0.18157 0.06002 0.0
C20 C 0.01649 0.16035 0.0465 0.0
C21 C 0.00978 0.08326 0.04028 0.0
H22 H 0.97781 0.07198 0.03913 0.0
H23 H 0.02176 0.09108 0.02901 0.0
H24 H 0.02927 0.05843 0.04503 0.0
O25 O 0.03925 0.05897 0.09162 0.0
O26 O 0.05036 0.1193 0.10258 0.0
H27 H 0.02591 0.24332 0.05119 0.0
H28 H -0.00375 0.23944 0.06827 0.0
C29 C 0.0231 0.22709 0.06209 0.0
H30 H 0.0509 0.23309 0.06891 0.0
H31 H 0.08928 0.20108 0.09916 0.0
O32 O 0.98756 0.02396 0.06494 0.0
C33 C 0.05844 0.08102 0.10107 0.0
Co34 Co 0.32873 0.88077 0.33029 0.0
Co35 Co 0.24128 0.89062 0.3435 0.0
C36 C 0.29085 0.81621 0.3508 0.0
O37 O 0.31964 0.83056 0.34265 0.0
O38 O 0.25674 0.83548 0.3522 0.0
C39 C 0.391 0.84114 0.31179 0.0
O40 O 0.3709 0.80611 0.31282 0.0
C41 C 0.15189 0.8893 0.35057 0.0
C42 C 0.14061 0.95652 0.35239 0.0
C43 C 0.12123 0.9186 0.35297 0.0
N44 N 0.18756 0.90929 0.34846 0.0
N45 N 0.18056 0.94937 0.34968 0.0
C46 C 0.148 0.84327 0.35088 0.0
H47 H 0.17691 0.82905 0.35495 0.0
H48 H 0.14219 0.83181 0.33939 0.0
H49 H 0.12213 0.83368 0.35819 0.0
C50 C 0.28534 0.89677 0.30214 0.0
N51 N 0.2856 0.89176 0.31707 0.0
N52 N 0.24785 0.89305 0.32221 0.0
C53 C 0.22198 0.89724 0.31046 0.0
C54 C 0.24504 0.90007 0.29737 0.0
C55 C 0.32309 0.89549 0.29256 0.0
H56 H 0.34764 0.91393 0.29789 0.0
H57 H 0.33335 0.86302 0.29141 0.0
H58 H 0.31801 0.90783 0.28118 0.0
O59 O 0.33837 0.92854 0.34338 0.0
O60 O 0.27672 0.93156 0.35382 0.0
H61 H 0.16679 0.92484 0.31867 0.0
H62 H 0.16136 0.90077 0.30056 0.0
C63 C 0.1762 0.89815 0.31171 0.0
H64 H 0.16556 0.86963 0.31736 0.0
H65 H 0.20305 0.972 0.34838 0.0
O66 O 0.37848 0.87298 0.31869 0.0
C67 C 0.31344 0.9444 0.35267 0.0
Co68 Co 0.54074 0.22816 0.58128 0.0
Co69 Co 0.50755 0.1448 0.59378 0.0
C70 C 0.58673 0.18426 0.60493 0.0
O71 O 0.58381 0.21268 0.59521 0.0
O72 O 0.55919 0.15629 0.60606 0.0
C73 C 0.57443 0.30652 0.57838 0.0
O74 O 0.59486 0.29538 0.59041 0.0
C75 C 0.51193 0.05521 0.59884 0.0
C76 C 0.44638 0.03797 0.59983 0.0
C77 C 0.48573 0.02162 0.60023 0.0
N78 N 0.48912 0.08972 0.59769 0.0
N79 N 0.44996 0.07923 0.59843 0.0
C80 C 0.55762 0.05442 0.59716 0.0
H81 H 0.56813 0.08175 0.59071 0.0
H82 H 0.56775 0.02566 0.5915 0.0
H83 H 0.5719 0.05549 0.60842 0.0
C84 C 0.53158 0.18742 0.55277 0.0
N85 N 0.53029 0.18663 0.56775 0.0
N86 N 0.51565 0.15111 0.57245 0.0
C87 C 0.50689 0.12785 0.56028 0.0
C88 C 0.5163 0.15053 0.54746 0.0
C89 C 0.54789 0.2229 0.5438 0.0
H90 H 0.57708 0.23384 0.5488 0.0
H91 H 0.55364 0.21422 0.53198 0.0
H92 H 0.52541 0.24869 0.54413 0.0
O93 O 0.48966 0.24251 0.59216 0.0
O94 O 0.46359 0.18402 0.60087 0.0
H95 H 0.48001 0.07449 0.54951 0.0
H96 H 0.5088 0.06413 0.56642 0.0
C97 C 0.48748 0.08607 0.56087 0.0
H98 H 0.45898 0.08762 0.56763 0.0
H99 H 0.42564 0.10012 0.59753 0.0
O100 O 0.55602 0.27903 0.5709 0.0
C101 C 0.46173 0.22314 0.59923 0.0
Co102 Co 0.17111 0.40742 0.83308 0.0
Co103 Co 0.25914 0.3965 0.84579 0.0
C104 C 0.20904 0.4726 0.85264 0.0
O105 O 0.17971 0.45889 0.84462 0.0
O106 O 0.24233 0.45195 0.85428 0.0
C107 C 0.10567 0.43716 0.81297 0.0
O108 O 0.12437 0.47263 0.81092 0.0
C109 C 0.34845 0.40665 0.85226 0.0
C110 C 0.36812 0.3413 0.85168 0.0
C111 C 0.38277 0.38112 0.85333 0.0
N112 N 0.31517 0.3828 0.85004 0.0
N113 N 0.32721 0.34381 0.84987 0.0
C114 C 0.34758 0.45281 0.85197 0.0
H115 H 0.32167 0.4639 0.84495 0.0
H116 H 0.37697 0.46535 0.84763 0.0
H117 H 0.34293 0.46436 0.86353 0.0
C118 C 0.21287 0.39164 0.80468 0.0
N119 N 0.21361 0.39709 0.81957 0.0
N120 N 0.25165 0.39476 0.82441 0.0
C121 C 0.27665 0.38932 0.81244 0.0
C122 C 0.25259 0.38778 0.79957 0.0
C123 C 0.17486 0.38466 0.79559 0.0
H124 H 0.16199 0.41482 0.79204 0.0
H125 H 0.18152 0.36642 0.78537 0.0
H126 H 0.1521 0.36733 0.80227 0.0
O127 O 0.16367 0.35992 0.84632 0.0
O128 O 0.22562 0.3522 0.8562 0.0
H129 H 0.33089 0.35622 0.81849 0.0
H130 H 0.33646 0.38787 0.80196 0.0
C131 C 0.32239 0.3861 0.81325 0.0
H132 H 0.33463 0.41127 0.82036 0.0
H133 H 0.30756 0.3189 0.84805 0.0
O134 O 0.12014 0.41054 0.82196 0.0
C135 C 0.18817 0.34109 0.855 0.0
Co136 Co 0.97061 0.22838 0.91941 0.0
Co137 Co 0.98207 0.13426 0.9141 0.0
C138 C 0.90537 0.17792 0.90441 0.0
O139 O 0.91972 0.21106 0.9099 0.0
O140 O 0.92589 0.14414 0.9046 0.0
C141 C 0.94512 0.31395 0.93006 0.0
O142 O 0.91037 0.30455 0.93669 0.0
C143 C 0.97691 0.04132 0.9153 0.0
C144 C 0.04312 0.0274 0.91751 0.0
C145 C 0.00485 0.00896 0.91703 0.0
N146 N -0.00198 0.07711 0.91485 0.0
N147 N 0.03752 0.0683 0.91604 0.0
C148 C 0.93109 0.03869 0.91528 0.0
H149 H 0.91748 0.06815 0.91926 0.0
H150 H 0.92058 0.01272 0.92243 0.0
H151 H 0.92037 0.03306 0.90368 0.0
C152 C 0.98707 0.20619 0.95057 0.0
N153 N 0.98251 0.1964 0.93606 0.0
N154 N 0.98478 0.15613 0.93432 0.0
C155 C 0.98933 0.13885 0.94801 0.0
C156 C 0.9914 0.17013 0.95868 0.0
C157 C 0.98427 0.24917 0.95664 0.0
H158 H 0.00264 0.27041 0.94959 0.0
H159 H 0.95176 0.25932 0.95638 0.0
H160 H -0.00466 0.25105 0.96835 0.0
O161 O 0.0166 0.22705 0.9056 0.0
O162 O 0.02532 0.1606 0.90077 0.0
H163 H 0.01985 0.08069 0.94626 0.0
H164 H 0.98954 0.08626 0.96301 0.0
C165 C 0.99085 0.09336 0.95087 0.0
H166 H 0.9649 0.07812 0.94506 0.0
H167 H 0.06073 0.09047 0.91624 0.0
O168 O 0.96727 0.28635 0.9241 0.0
C169 C 0.03554 0.19826 0.89898 0.0
Co170 Co 0.16559 0.85967 0.17308 0.0
Co171 Co 0.25686 0.87334 0.16357 0.0
C172 C 0.21074 0.79599 0.15534 0.0
O173 O 0.17948 0.80869 0.16252 0.0
O174 O 0.24354 0.81757 0.15453 0.0
C175 C 0.08878 0.82271 0.18441 0.0
O176 O 0.09997 0.78593 0.17974 0.0
C177 C 0.34832 0.86563 0.16139 0.0
C178 C 0.36495 0.93135 0.15876 0.0
C179 C 0.38184 0.89219 0.15995 0.0
N180 N 0.31359 0.88834 0.16123 0.0
N181 N 0.32391 0.92753 0.15959 0.0
C182 C 0.3489 0.81952 0.16246 0.0
H183 H 0.3199 0.80643 0.1581 0.0
H184 H 0.35189 0.81033 0.17437 0.0
H185 H 0.37518 0.80654 0.15609 0.0
C186 C 0.19748 0.87901 0.20251 0.0
N187 N 0.20339 0.87228 0.18786 0.0
N188 N 0.24234 0.87714 0.18447 0.0
C189 C 0.26285 0.88658 0.1972 0.0
C190 C 0.23492 0.8877 0.20904 0.0
C191 C 0.15598 0.88156 0.20971 0.0
H192 H 0.14259 0.85015 0.21047 0.0
H193 H 0.15722 0.89535 0.22104 0.0
H194 H 0.13556 0.90104 0.20271 0.0
O195 O 0.16059 0.90554 0.15871 0.0
O196 O 0.22511 0.91471 0.15135 0.0
H197 H 0.31894 0.89594 0.20976 0.0
H198 H 0.32454 0.86845 0.19228 0.0
C199 C 0.30812 0.89392 0.19801 0.0
H200 H 0.31554 0.92311 0.19209 0.0
H201 H 0.30284 0.95184 0.15922 0.0
O202 O 0.1118 0.85367 0.1822 0.0
C203 C 0.1871 0.92408 0.15074 0.0
Co204 Co 0.51175 0.06566 0.42342 0.0
Co205 Co 0.50627 0.15709 0.41291 0.0
C206 C 0.57542 0.1026 0.40289 0.0
O207 O 0.56197 0.07309 0.411 0.0
O208 O 0.55735 0.1377 0.40244 0.0
C209 C 0.53117 0.99256 0.44252 0.0
O210 O 0.56637 0.00765 0.44715 0.0
C211 C 0.51548 0.24804 0.40747 0.0
C212 C 0.44964 0.26502 0.40719 0.0
C213 C 0.48866 0.28125 0.40566 0.0
N214 N 0.49298 0.21385 0.40993 0.0
N215 N 0.45377 0.22442 0.4098 0.0
C216 C 0.56129 0.24831 0.4063 0.0
H217 H 0.5729 0.21733 0.40314 0.0
H218 H 0.57453 0.25649 0.41734 0.0
H219 H 0.57152 0.27161 0.39798 0.0
C220 C 0.49824 0.10335 0.45274 0.0
N221 N 0.50444 0.10636 0.43792 0.0
N222 N 0.50636 0.14541 0.43404 0.0
C223 C 0.50417 0.16865 0.4466 0.0
C224 C 0.49944 0.14245 0.4589 0.0
C225 C 0.48449 0.06479 0.46056 0.0
H226 H 0.46651 0.04516 0.45283 0.0
H227 H 0.51161 0.04751 0.46469 0.0
H228 H 0.46481 0.07226 0.47033 0.0
O229 O 0.46446 0.06405 0.41034 0.0
O230 O 0.46048 0.12837 0.40212 0.0
H231 H 0.47726 0.22827 0.44381 0.0
H232 H 0.51678 0.2261 0.45799 0.0
C233 C 0.50749 0.21468 0.44679 0.0
H234 H 0.53024 0.2249 0.43835 0.0
H235 H 0.42966 0.20372 0.41145 0.0
O236 O 0.50979 0.01183 0.43294 0.0
C237 C 0.44746 0.09138 0.40231 0.0
Co238 Co 0.33203 0.40556 0.6755 0.0
Co239 Co 0.24172 0.39564 0.66527 0.0
C240 C 0.29191 0.47302 0.65874 0.0
O241 O 0.32236 0.46002 0.66636 0.0
O242 O 0.25969 0.45096 0.65709 0.0
C243 C 0.40614 0.42713 0.69279 0.0
O244 O 0.39317 0.46501 0.69514 0.0
C245 C 0.15224 0.4139 0.66231 0.0
C246 C 0.12816 0.35069 0.65933 0.0
C247 C 0.11602 0.39157 0.66055 0.0
N248 N 0.18404 0.38718 0.66232 0.0
N249 N 0.16931 0.34955 0.66046 0.0
C250 C 0.15684 0.4598 0.66333 0.0
H251 H 0.18612 0.46975 0.65822 0.0
H252 H 0.1571 0.46911 0.67527 0.0
H253 H 0.13112 0.4758 0.65758 0.0
C254 C 0.29612 0.38689 0.705 0.0
N255 N 0.29265 0.39219 0.69011 0.0
N256 N 0.25374 0.39082 0.68625 0.0
C257 C 0.23099 0.38634 0.69882 0.0
C258 C 0.25726 0.38334 0.71109 0.0
C259 C 0.33578 0.38917 0.71345 0.0
H260 H 0.35882 0.36894 0.70804 0.0
H261 H 0.3466 0.42154 0.71345 0.0
H262 H 0.33303 0.37942 0.72525 0.0
O263 O 0.33509 0.36319 0.65997 0.0
O264 O 0.27059 0.35084 0.65344 0.0
H265 H 0.17338 0.36142 0.69182 0.0
H266 H 0.17327 0.38139 0.7107 0.0
C267 C 0.18508 0.38628 0.69918 0.0
H268 H 0.17347 0.41616 0.69482 0.0
H269 H 0.1874 0.32293 0.66016 0.0
O270 O 0.38551 0.40264 0.68473 0.0
C271 C 0.30891 0.34323 0.6524 0.0
Co272 Co 0.67069 0.37352 0.67963 0.0
Co273 Co 0.75317 0.40174 0.66582 0.0
C274 C 0.71352 0.31926 0.65819 0.0
O275 O 0.68513 0.32536 0.66768 0.0
O276 O 0.74164 0.34619 0.65605 0.0
C277 C 0.60959 0.32628 0.69677 0.0
O278 O 0.62806 0.29136 0.69349 0.0
C279 C 0.84123 0.39833 0.65897 0.0
C280 C 0.85662 0.4645 0.6567 0.0
C281 C 0.87362 0.42527 0.6564 0.0
N282 N 0.80673 0.42063 0.66063 0.0
N283 N 0.81605 0.46013 0.65914 0.0
C284 C 0.84335 0.35262 0.66126 0.0
H285 H 0.818 0.34228 0.66867 0.0
H286 H 0.87333 0.3435 0.66618 0.0
H287 H 0.83993 0.33703 0.65028 0.0
C288 C 0.71283 0.39253 0.70762 0.0
N289 N 0.71254 0.38945 0.69263 0.0
N290 N 0.74841 0.40052 0.68725 0.0
C291 C 0.7731 0.41056 0.69889 0.0
C292 C 0.75086 0.40646 0.71212 0.0
C293 C 0.67789 0.38012 0.71752 0.0
H294 H 0.65091 0.39961 0.71484 0.0
H295 H 0.67031 0.34734 0.71541 0.0
H296 H 0.68498 0.38327 0.72958 0.0
O297 O 0.65446 0.41948 0.66619 0.0
O298 O 0.71347 0.44262 0.65712 0.0
H299 H 0.81791 0.45266 0.69044 0.0
H300 H 0.83067 0.43071 0.70849 0.0
C301 C 0.8167 0.42431 0.6974 0.0
H302 H 0.83472 0.39999 0.69163 0.0
H303 H 0.79488 0.48419 0.6602 0.0
O304 O 0.62273 0.36026 0.69155 0.0
C305 C 0.67444 0.44471 0.65804 0.0
Co306 Co 0.82701 0.95803 0.17528 0.0
Co307 Co 0.74743 0.91696 0.16333 0.0
C308 C 0.78225 -0.00044 0.1518 0.0
O309 O 0.80765 0.00236 0.16253 0.0
O310 O 0.75835 0.96834 0.15063 0.0
C311 C 0.90886 0.97085 0.17794 0.0
O312 O 0.90505 0.97241 0.16331 0.0
C313 C 0.65819 0.91468 0.15783 0.0
C314 C 0.64678 0.84754 0.15652 0.0
C315 C 0.62718 0.88554 0.15609 0.0
N316 N 0.69424 0.89471 0.1592 0.0
N317 N 0.68722 0.85461 0.15828 0.0
C318 C 0.65363 0.96034 0.15969 0.0
H319 H 0.68018 0.97304 0.16597 0.0
H320 H 0.6246 0.96783 0.16561 0.0
H321 H 0.65284 0.97509 0.14848 0.0
C322 C 0.79197 0.93708 0.20407 0.0
N323 N 0.78837 0.94092 0.18918 0.0
N324 N 0.75378 0.9244 0.18462 0.0
C325 C 0.73346 0.91008 0.19677 0.0
C326 C 0.75703 0.91788 0.20952 0.0
C327 C 0.83143 0.94465 0.21231 0.0
H328 H 0.85671 0.92802 0.20657 0.0
H329 H 0.83844 0.97816 0.21214 0.0
H330 H 0.8308 0.93363 0.22403 0.0
O331 O 0.84367 0.91124 0.16239 0.0
O332 O 0.78831 0.87563 0.15606 0.0
H333 H 0.69812 0.85706 0.19086 0.0
H334 H 0.67983 0.88363 0.20739 0.0
C335 C 0.69335 0.88774 0.19609 0.0
H336 H 0.6715 0.90537 0.18904 0.0
H337 H 0.70995 0.832 0.15926 0.0
O338 O 0.87687 0.97488 0.18579 0.0
C339 C 0.82709 0.88061 0.15588 0.0
Co340 Co 0.83843 0.37964 0.83247 0.0
Co341 Co 0.75123 0.39119 0.84593 0.0
C342 C 0.7965 0.30991 0.84805 0.0
O343 O 0.82523 0.32441 0.83999 0.0
O344 O 0.76586 0.33232 0.85186 0.0
C345 C 0.89746 0.34694 0.81111 0.0
O346 O 0.87504 0.31342 0.80996 0.0
C347 C 0.6611 0.38094 0.8498 0.0
C348 C 0.64271 0.4449 0.85521 0.0
C349 C 0.62695 0.40598 0.85237 0.0
N350 N 0.69518 0.40433 0.85074 0.0
N351 N 0.68387 0.44239 0.85415 0.0
C352 C 0.66167 0.33528 0.84712 0.0
H353 H 0.68938 0.3213 0.85222 0.0
H354 H 0.66259 0.32908 0.83493 0.0
H355 H 0.63399 0.3204 0.85194 0.0
C356 C 0.79924 0.41292 0.806 0.0
N357 N 0.79723 0.40132 0.82037 0.0
N358 N 0.75884 0.40093 0.82481 0.0
C359 C 0.73478 0.41002 0.81282 0.0
C360 C 0.76002 0.41718 0.80044 0.0
C361 C 0.83806 0.42376 0.79799 0.0
H362 H 0.86029 0.43714 0.80601 0.0
H363 H 0.85117 0.39569 0.79276 0.0
H364 H 0.83213 0.44668 0.78898 0.0
O365 O 0.85004 0.41615 0.84927 0.0
O366 O 0.78773 0.43004 0.85813 0.0
H367 H 0.67782 0.43294 0.82133 0.0
H368 H 0.67578 0.41727 0.80191 0.0
C369 C 0.68888 0.40997 0.81306 0.0
H370 H 0.67789 0.37917 0.81664 0.0
H371 H 0.70425 0.46702 0.8553 0.0
O372 O 0.88777 0.37529 0.82027 0.0
C373 C 0.82674 0.43489 0.85843 0.0
Co374 Co 0.67099 0.89493 0.33148 0.0
Co375 Co 0.76 0.88895 0.34347 0.0
C376 C 0.7085 0.96158 0.35118 0.0
O377 O 0.67961 0.94663 0.34319 0.0
O378 O 0.7431 0.94309 0.35243 0.0
C379 C 0.6044 0.92356 0.31189 0.0
O380 O 0.62337 0.95875 0.30957 0.0
C381 C 0.8508 0.89402 0.34788 0.0
C382 C 0.86432 0.82704 0.34862 0.0
C383 C 0.88273 0.86547 0.34865 0.0
N384 N 0.81521 0.87304 0.34726 0.0
N385 N 0.82362 0.83315 0.34795 0.0
C386 C 0.85409 0.93985 0.34624 0.0
H387 H 0.82474 0.95309 0.3421 0.0
H388 H 0.87953 0.94782 0.33849 0.0
H389 H 0.86108 0.95359 0.35732 0.0
C390 C 0.71202 0.87913 0.30274 0.0
N391 N 0.71287 0.88416 0.31768 0.0
N392 N 0.75108 0.88699 0.32222 0.0
C393 C 0.7757 0.88689 0.31002 0.0
C394 C 0.75163 0.88171 0.29729 0.0
C395 C 0.67378 0.87417 0.29361 0.0
H396 H 0.65026 0.8573 0.30011 0.0
H397 H 0.66213 0.90503 0.29028 0.0
H398 H 0.67971 0.85642 0.28326 0.0
O399 O 0.66505 0.84893 0.34524 0.0
O400 O 0.7281 0.84545 0.35447 0.0
H401 H 0.83575 0.86872 0.3171 0.0
H402 H 0.83447 0.89338 0.29898 0.0
C403 C 0.82111 0.89353 0.3104 0.0
H404 H 0.82776 0.92351 0.31585 0.0
H405 H 0.80154 0.80991 0.3473 0.0
O406 O 0.61916 0.89705 0.32086 0.0
C407 C 0.69123 0.83271 0.35392 0.0
Co408 Co 0.44363 0.57113 0.58636 0.0
Co409 Co 0.48724 0.65156 0.5948 0.0
C410 C 0.40217 0.62337 0.60631 0.0
O411 O 0.39739 0.59833 0.59558 0.0
O412 O 0.4356 0.64376 0.60759 0.0
C413 C 0.42228 0.49228 0.59055 0.0
O414 O 0.41136 0.50799 0.60352 0.0
C415 C 0.48426 0.7422 0.59443 0.0
C416 C 0.5482 0.75922 0.5998 0.0
C417 C 0.51016 0.77604 0.5963 0.0
N418 N 0.50616 0.7074 0.59654 0.0
N419 N 0.54436 0.7178 0.59976 0.0
C420 C 0.43923 0.74235 0.59106 0.0
H421 H 0.42497 0.71281 0.59448 0.0
H422 H 0.43465 0.74584 0.57882 0.0
H423 H 0.42375 0.76839 0.59684 0.0
C424 C 0.46799 0.59338 0.55618 0.0
N425 N 0.46488 0.60176 0.57082 0.0
N426 N 0.48198 0.63744 0.57383 0.0
C427 C 0.49611 0.65367 0.56085 0.0
C428 C 0.4874 0.62621 0.54919 0.0
C429 C 0.45685 0.55239 0.54955 0.0
H430 H 0.42296 0.54883 0.54964 0.0
H431 H 0.46856 0.54856 0.53799 0.0
H432 H 0.47025 0.52741 0.55649 0.0
O433 O 0.48679 0.55925 0.60141 0.0
O434 O 0.52762 0.61322 0.60459 0.0
H435 H 0.52377 0.70332 0.54799 0.0
H436 H 0.49748 0.7187 0.56476 0.0
C437 C 0.51723 0.69456 0.55973 0.0
H438 H 0.54628 0.69346 0.56622 0.0
H439 H 0.56786 0.69662 0.60187 0.0
O440 O 0.427 0.51676 0.57962 0.0
C441 C 0.51845 0.57563 0.60727 0.0
Co442 Co 0.01766 0.71676 0.0844 0.0
Co443 Co 0.98604 0.63425 0.09775 0.0
C444 C 0.06963 0.66916 0.10558 0.0
O445 O 0.06499 0.69846 0.09625 0.0
O446 O 0.04141 0.64234 0.10763 0.0
C447 C 0.04689 0.79433 0.06464 0.0
O448 O 0.08519 0.79595 0.06006 0.0
C449 C 0.98526 0.54508 0.10288 0.0
C450 C 0.91882 0.53272 0.10523 0.0
C451 C 0.95685 0.51358 0.1046 0.0
N452 N 0.96491 0.58117 0.10249 0.0
N453 N 0.92528 0.57366 0.10413 0.0
C454 C 0.03029 0.54089 0.09989 0.0
H455 H 0.04191 0.56839 0.09381 0.0
H456 H 0.03673 0.5126 0.09328 0.0
H457 H 0.04682 0.53841 0.11071 0.0
C458 C -0.00178 0.67602 0.05621 0.0
N459 N -0.00066 0.67613 0.07123 0.0
N460 N 0.98786 0.63991 0.07636 0.0
C461 C 0.9799 0.61513 0.0645 0.0
C462 C 0.98579 0.6376 0.0514 0.0
C463 C 0.01241 0.71097 0.04653 0.0
H464 H 0.99401 0.7389 0.04912 0.0
H465 H 0.04521 0.71736 0.04891 0.0
H466 H 0.00917 0.70413 0.03443 0.0
O467 O 0.97364 0.73442 0.09805 0.0
O468 O 0.94759 0.67579 0.10676 0.0
H469 H 0.96064 0.5578 0.05436 0.0
H470 H -0.00543 0.55281 0.07025 0.0
C471 C 0.96845 0.57054 0.06553 0.0
H472 H 0.94178 0.56691 0.07312 0.0
H473 H 0.90249 0.59634 0.10382 0.0
O474 O 0.03532 0.76382 0.07242 0.0
C475 C 0.94785 0.71514 0.10616 0.0
Co476 Co 0.4711 0.72123 0.4285 0.0
Co477 Co 0.50298 0.6391 0.41487 0.0
C478 C 0.42613 0.68156 0.40332 0.0
O479 O 0.42938 0.70947 0.41326 0.0
O480 O 0.45225 0.65202 0.40237 0.0
C481 C 0.42283 0.78712 0.44381 0.0
O482 O 0.38751 0.77318 0.43884 0.0
C483 C 0.51048 0.54969 0.40877 0.0
C484 C 0.57808 0.54342 0.40765 0.0
C485 C 0.54202 0.52091 0.40732 0.0
N486 N 0.52736 0.58735 0.41 0.0
N487 N 0.5677 0.5834 0.4091 0.0
C488 C 0.46554 0.54157 0.41059 0.0
H489 H 0.45016 0.56838 0.41594 0.0
H490 H 0.46049 0.51328 0.41736 0.0
H491 H 0.45164 0.53677 0.39939 0.0
C492 C 0.4758 0.67467 0.45629 0.0
N493 N 0.47956 0.67689 0.44136 0.0
N494 N 0.49322 0.64153 0.43611 0.0
C495 C 0.49873 0.61545 0.44782 0.0
C496 C 0.48786 0.63593 0.46089 0.0
C497 C 0.46118 0.70926 0.46606 0.0
H498 H 0.48184 0.73616 0.46468 0.0
H499 H 0.42977 0.71841 0.46259 0.0
H500 H 0.46057 0.70045 0.47806 0.0
O501 O 0.52289 0.73799 0.41882 0.0
O502 O 0.54549 0.67966 0.40896 0.0
H503 H 0.54323 0.57211 0.43978 0.0
H504 H 0.52187 0.55939 0.45792 0.0
C505 C 0.51497 0.57237 0.44669 0.0
H506 H 0.49174 0.55261 0.44117 0.0
H507 H 0.58832 0.60786 0.41012 0.0
O508 O 0.45606 0.76929 0.4402 0.0
C509 C 0.54951 0.7181 0.41134 0.0
Co510 Co 0.05901 0.57287 0.92857 0.0
Co511 Co 0.00847 0.64753 0.91738 0.0
C512 C 0.09264 0.62229 0.90481 0.0
O513 O 0.09952 0.59935 0.91601 0.0
O514 O 0.0585 0.64162 0.90361 0.0
C515 C 0.10033 0.49996 0.92887 0.0
O516 O 0.11987 0.51349 0.91697 0.0
C517 C -0.00325 0.73747 0.9138 0.0
C518 C 0.93019 0.74194 0.90934 0.0
C519 C 0.96515 0.76573 0.91127 0.0
N520 N 0.98096 0.69909 0.91361 0.0
N521 N 0.94117 0.70202 0.91087 0.0
C522 C 0.04142 0.7463 0.91606 0.0
H523 H 0.06025 0.71914 0.91288 0.0
H524 H 0.04713 0.75277 0.92807 0.0
H525 H 0.05092 0.77364 0.90942 0.0
C526 C 0.03335 0.60167 0.9576 0.0
N527 N 0.03763 0.60782 0.94286 0.0
N528 N 0.0181 0.64143 0.93873 0.0
C529 C 0.0018 0.659 0.95115 0.0
C530 C 0.01116 0.63428 0.96358 0.0
C531 C 0.04286 0.56111 0.96497 0.0
H532 H 0.03283 0.53578 0.95753 0.0
H533 H 0.07649 0.5584 0.96672 0.0
H534 H 0.0267 0.557 0.97577 0.0
O535 O 0.01358 0.54944 0.91628 0.0
O536 O 0.97162 0.60144 0.91072 0.0
H537 H 0.94556 0.69037 0.94631 0.0
H538 H 0.97287 0.71064 0.96237 0.0
C539 C 0.97631 0.69747 0.951 0.0
H540 H 0.99093 0.7209 0.94374 0.0
H541 H 0.9214 0.67677 0.91021 0.0
O542 O 0.08696 0.52639 0.9381 0.0
C543 C 0.98045 0.56299 0.9104 0.0
H544 H 0.01485 0.46843 0.11909 0.0
H545 H 0.9145 0.45868 0.08784 0.0
H546 H 0.92774 0.38475 0.08497 0.0
H547 H 0.96974 0.32392 0.09051 0.0
H548 H 0.06808 0.33232 0.12269 0.0
H549 H 0.05458 0.40617 0.12575 0.0
C550 C -0.00397 0.45 0.11165 0.0
C551 C 0.96406 0.46875 0.10357 0.0
C552 C 0.00357 0.4075 0.11019 0.0
C553 C 0.93925 0.44467 0.09418 0.0
C554 C 0.9469 0.40253 0.09249 0.0
C555 C 0.98736 0.3415 0.09856 0.0
C556 C 0.0191 0.32242 0.10668 0.0
C557 C 0.97907 0.38368 0.1004 0.0
C558 C 0.04318 0.3463 0.11642 0.0
C559 C 0.03547 0.38846 0.11819 0.0
H560 H 0.07351 0.86345 0.3382 0.0
H561 H 0.06822 0.96336 0.36998 0.0
H562 H 0.99334 0.95747 0.37106 0.0
H563 H 0.92937 0.9228 0.36318 0.0
H564 H 0.93609 0.82184 0.33183 0.0
H565 H 0.01055 0.8287 0.33058 0.0
C566 C 0.05617 0.88314 0.34569 0.0
C567 C 0.07641 0.91294 0.35433 0.0
C568 C 0.01334 0.87958 0.34624 0.0
C569 C 0.05323 0.93975 0.36337 0.0
C570 C 0.01047 0.93647 0.36397 0.0
C571 C 0.94717 0.90278 0.35594 0.0
C572 C 0.92739 0.87212 0.34753 0.0
C573 C 0.99015 0.9065 0.35543 0.0
C574 C 0.95079 0.84565 0.33844 0.0
C575 C 0.99331 0.84952 0.33771 0.0
H576 H 0.44985 0.95948 0.58495 0.0
H577 H 0.5446 0.98433 0.61736 0.0
H578 H 0.56048 0.91049 0.61898 0.0
H579 H 0.5465 0.83871 0.61142 0.0
H580 H 0.45496 0.81507 0.57759 0.0
H581 H 0.43846 0.88822 0.57642 0.0
C582 C 0.47397 0.94862 0.59236 0.0
C583 C 0.49618 0.97718 0.60097 0.0
C584 C 0.48318 0.90626 0.59309 0.0
C585 C 0.52753 0.96292 0.61046 0.0
C586 C 0.53643 0.92071 0.61145 0.0
C587 C 0.52292 0.84955 0.60379 0.0
C588 C 0.50083 0.82092 0.59509 0.0
C589 C 0.51439 0.89208 0.60283 0.0
C590 C 0.47097 0.83573 0.58505 0.0
C591 C 0.46191 0.87785 0.58418 0.0
H592 H 0.44583 0.34874 0.83776 0.0
H593 H 0.41799 0.43759 0.87216 0.0
H594 H 0.49137 0.45248 0.87514 0.0
H595 H 0.56364 0.43926 0.86809 0.0
H596 H 0.5901 0.3531 0.83257 0.0
H597 H 0.5173 0.33778 0.83001 0.0
C598 C 0.4559 0.37144 0.84589 0.0
C599 C 0.42668 0.39224 0.85467 0.0
C600 C 0.49794 0.37991 0.84745 0.0
C601 C 0.43994 0.42171 0.86511 0.0
C602 C 0.48188 0.42997 0.86688 0.0
C603 C 0.55343 0.41697 0.85985 0.0
C604 C 0.58258 0.39609 0.85097 0.0
C605 C 0.51118 0.40913 0.85814 0.0
C606 C 0.56877 0.36802 0.84011 0.0
C607 C 0.52695 0.35971 0.83846 0.0
H608 H 0.01081 0.81721 0.92885 0.0
H609 H 0.92036 0.81754 0.89363 0.0
H610 H 0.92179 0.8931 0.89295 0.0
H611 H 0.95166 0.95924 0.90154 0.0
H612 H 0.04394 0.95759 0.93616 0.0
H613 H 0.03938 0.88253 0.93774 0.0
C614 C 0.9921 0.83364 0.92078 0.0
C615 C 0.96649 0.8116 0.91098 0.0
C616 C 0.99327 0.87702 0.9204 0.0
C617 C 0.94078 0.83374 0.90117 0.0
C618 C 0.94157 0.87696 0.90078 0.0
C619 C 0.97013 0.94246 0.90961 0.0
C620 C -0.00213 0.96398 0.9188 0.0
C621 C 0.96796 0.89899 0.91027 0.0
C622 C 0.02236 0.94171 0.92896 0.0
C623 C 0.01984 0.89877 0.92986 0.0
H624 H 0.44151 0.93499 0.14571 0.0
H625 H 0.42359 0.83113 0.17529 0.0
H626 H 0.4974 0.81901 0.17598 0.0
H627 H 0.5676 0.83937 0.16893 0.0
H628 H 0.58583 0.94526 0.1404 0.0
H629 H 0.51158 0.95559 0.13878 0.0
C630 C 0.4537 0.90955 0.15226 0.0
C631 C 0.42667 0.88326 0.16006 0.0
C632 C 0.49641 0.9035 0.15298 0.0
C633 C 0.44317 0.85079 0.16863 0.0
C634 C 0.48561 0.8442 0.16922 0.0
C635 C 0.55526 0.86466 0.16233 0.0
C636 C 0.58219 0.89195 0.15501 0.0
C637 C 0.51252 0.87046 0.1615 0.0
C638 C 0.56583 0.92452 0.14649 0.0
C639 C 0.52334 0.9302 0.14545 0.0
H640 H 0.55008 0.3285 0.41749 0.0
H641 H 0.44483 0.33338 0.38821 0.0
H642 H 0.45257 0.40798 0.38569 0.0
H643 H 0.48731 0.47221 0.39267 0.0
H644 H 0.59232 0.4677 0.42202 0.0
H645 H 0.58735 0.39247 0.42333 0.0
C646 C 0.52957 0.34568 0.41023 0.0
C647 C 0.49723 0.32539 0.40292 0.0
C648 C 0.53394 0.3887 0.40894 0.0
C649 C 0.47002 0.34838 0.39396 0.0
C650 C 0.47436 0.39102 0.39251 0.0
C651 C 0.50881 0.45476 0.39946 0.0
C652 C 0.53953 0.4754 0.40748 0.0
C653 C 0.50575 0.4116 0.40017 0.0
C654 C 0.5682 0.45237 0.4158 0.0
C655 C 0.56535 0.4094 0.41658 0.0
H656 H 0.93733 0.46436 0.6696 0.0
H657 H 0.9085 0.36467 0.63948 0.0
H658 H 0.98137 0.34696 0.63757 0.0
H659 H 0.05291 0.35841 0.64513 0.0
H660 H 0.08121 0.4552 0.6766 0.0
H661 H 0.00921 0.47595 0.67712 0.0
C662 C 0.94715 0.43892 0.66257 0.0
C663 C 0.91772 0.41545 0.65485 0.0
C664 C 0.98902 0.42862 0.66169 0.0
C665 C 0.93062 0.38257 0.64577 0.0
C666 C 0.97225 0.3726 0.64461 0.0
C667 C 0.04336 0.38422 0.65204 0.0
C668 C 0.07273 0.40594 0.66046 0.0
C669 C 0.00166 0.39513 0.65266 0.0
C670 C 0.05975 0.43899 0.6695 0.0
C671 C 0.01837 0.45052 0.66998 0.0
H672 H 0.95456 0.15069 0.02731 0.0
H673 H 0.07628 0.20135 0.03089 0.0
H674 H 0.07946 0.2092 1.00353 0.0
H675 H 0.04937 0.19524 0.97847 0.0
H676 H 0.92963 0.13952 0.9754 0.0
H677 H 0.924 0.13885 1.00273 0.0
C678 C 0.98137 0.16434 0.02206 0.0
C679 C 0.01504 0.1757 0.03095 0.0
C680 C 0.98368 0.16652 0.00645 0.0
C681 C 0.04983 0.19304 0.02419 0.0
C682 C 0.05184 0.19683 0.00858 0.0
C683 C 0.0223 0.18272 0.98388 0.0
C684 C 0.99019 0.16674 0.97512 0.0
C685 C 0.01942 0.18244 0.99958 0.0
C686 C 0.95493 0.1511 0.98206 0.0
C687 C 0.95157 0.15117 0.99761 0.0
H688 H 0.26132 0.95327 0.27477 0.0
H689 H 0.20048 0.8386 0.28492 0.0
H690 H 0.19336 0.82391 0.25817 0.0
H691 H 0.21006 0.84084 0.23211 0.0
H692 H 0.27298 0.95422 0.22172 0.0
H693 H 0.27606 0.97141 0.24846 0.0
C694 C 0.24588 0.92546 0.27103 0.0
C695 C 0.23148 0.89694 0.28166 0.0
C696 C 0.24389 0.91634 0.25571 0.0
C697 C 0.21138 0.86109 0.27686 0.0
C698 C 0.208 0.85239 0.26162 0.0
C699 C 0.22457 0.86924 0.23575 0.0
C700 C 0.24158 0.89615 0.22509 0.0
C701 C 0.22527 0.87918 0.25099 0.0
C702 C 0.26035 0.93281 0.22982 0.0
C703 C 0.26153 0.94286 0.24504 0.0
H704 H 0.47191 0.19145 0.52666 0.0
H705 H 0.55185 0.08662 0.53283 0.0
H706 H 0.55559 0.0769 0.50567 0.0
H707 H 0.5402 0.10143 0.48044 0.0
H708 H 0.45641 0.20308 0.47382 0.0
H709 H 0.45178 0.21265 0.50104 0.0
C710 C 0.48946 0.16605 0.52198 0.0
C711 C 0.51156 0.13961 0.53157 0.0
C712 C 0.49182 0.16113 0.5064 0.0
C713 C 0.53434 0.10689 0.52557 0.0
C714 C 0.53688 0.10175 0.5101 0.0
C715 C 0.5204 0.12533 0.48493 0.0
C716 C 0.4986 0.15148 0.47516 0.0
C717 C 0.51645 0.12922 0.50045 0.0
C718 C 0.474 0.18302 0.48112 0.0
C719 C 0.4709 0.18806 0.49666 0.0
H720 H 0.27937 0.3304 0.73316 0.0
H721 H 0.21637 0.44531 0.72491 0.0
H722 H 0.21393 0.45917 0.75183 0.0
H723 H 0.2318 0.43959 0.77752 0.0
H724 H 0.2954 0.32528 0.78611 0.0
H725 H 0.29807 0.3111 0.7591 0.0
C726 C 0.26456 0.3581 0.73736 0.0
C727 C 0.24778 0.38673 0.7272 0.0
C728 C 0.265 0.36663 0.75276 0.0
C729 C 0.22883 0.42263 0.7326 0.0
C730 C 0.22814 0.43086 0.74793 0.0
C731 C 0.24694 0.41196 0.7734 0.0
C732 C 0.2638 0.38365 0.78364 0.0
C733 C 0.24683 0.40347 0.75805 0.0
C734 C 0.28303 0.3478 0.77834 0.0
C735 C 0.28379 0.3394 0.76297 0.0
H736 H 0.79155 0.36968 0.77884 0.0
H737 H 0.7087 0.47175 0.78585 0.0
H738 H 0.70246 0.48102 0.7586 0.0
H739 H 0.72121 0.45938 0.73283 0.0
H740 H 0.8071 0.35959 0.72649 0.0
H741 H 0.81416 0.35186 0.75363 0.0
C742 C 0.77227 0.39416 0.7744 0.0
C743 C 0.75046 0.41996 0.78427 0.0
C744 C 0.77072 0.40052 0.75894 0.0
C745 C 0.7251 0.45107 0.77843 0.0
C746 C 0.72218 0.45677 0.7629 0.0
C747 C 0.7424 0.43689 0.73749 0.0
C748 C 0.76405 0.4103 0.72782 0.0
C749 C 0.74525 0.43193 0.75307 0.0
C750 C 0.79086 0.38073 0.73379 0.0
C751 C 0.79422 0.37585 0.74926 0.0
H752 H 0.76578 0.96435 0.23421 0.0
H753 H 0.73592 0.84105 0.21984 0.0
H754 H 0.73513 0.81761 0.24595 0.0
H755 H 0.74472 0.83236 0.2729 0.0
H756 H 0.77814 0.9551 0.28682 0.0
H757 H 0.77871 0.97818 0.26074 0.0
C758 C 0.75898 0.93236 0.23684 0.0
C759 C 0.75067 0.9045 0.22519 0.0
C760 C 0.76081 0.9188 0.25171 0.0
C761 C 0.74168 0.8632 0.22866 0.0
C762 C 0.74196 0.84969 0.24354 0.0
C763 C 0.75285 0.86392 0.27011 0.0
C764 C 0.76164 0.89205 0.28163 0.0
C765 C 0.75207 0.87711 0.25514 0.0
C766 C 0.77197 0.93289 0.27805 0.0
C767 C 0.77159 0.9462 0.26319 0.0
H768 H 0.54661 0.64345 0.48201 0.0
H769 H 0.42342 0.60022 0.47439 0.0
H770 H 0.41163 0.59592 0.50139 0.0
H771 H 0.43431 0.61063 0.52689 0.0
H772 H 0.55913 0.64839 0.5351 0.0
H773 H 0.57216 0.65056 0.50806 0.0
C774 C 0.51785 0.6316 0.48636 0.0
C775 C 0.48615 0.62117 0.47641 0.0
C776 C 0.51119 0.6299 0.50189 0.0
C777 C 0.44845 0.60719 0.48197 0.0
C778 C 0.44153 0.60548 0.49736 0.0
C779 C 0.46454 0.61888 0.52276 0.0
C780 C 0.49557 0.62982 0.53293 0.0
C781 C 0.4723 0.61783 0.50737 0.0
C782 C 0.53444 0.6409 0.52746 0.0
C783 C 0.54206 0.64145 0.51203 0.0
H784 H 0.05757 0.61818 0.98779 0.0
H785 H 0.93572 0.65713 0.97511 0.0
H786 H 0.9151 0.65775 1.00148 0.0
H787 H 0.9329 0.64794 0.02833 0.0
H788 H 0.05191 0.59945 0.04002 0.0
H789 H 0.07168 0.5984 0.01363 0.0
C790 C 0.02625 0.62622 0.99074 0.0
C791 C -0.00158 0.63803 0.97949 0.0
C792 C 0.01376 0.62316 0.00568 0.0
C793 C 0.95819 0.64909 0.98355 0.0
C794 C 0.94613 0.64857 0.99861 0.0
C795 C 0.96244 0.63553 0.02496 0.0
C796 C 0.9908 0.62308 0.03594 0.0
C797 C 0.97363 0.63538 0.00976 0.0
C798 C 0.02944 0.60816 0.03164 0.0
C799 C 0.04097 0.60839 0.01662 0.0
H800 H 0.15128 -0.00137 0.15539 0.0
H801 H 0.18823 0.91386 0.12081 0.0
H802 H 0.15312 0.95608 0.10194 0.0
H803 H 0.10695 0.01411 0.09572 0.0
H804 H 0.074 0.10167 0.13003 0.0
H805 H 0.11299 0.062 0.14852 0.0
C806 C 0.15229 0.99008 0.14366 0.0
C807 C 0.17226 0.95348 0.13939 0.0
C808 C 0.13261 0.01489 0.13287 0.0
C809 C 0.17335 0.94228 0.12424 0.0
C810 C 0.15307 0.96623 0.11349 0.0
C811 C 0.10886 0.02479 0.1072 0.0
C812 C 0.08733 0.06055 0.11154 0.0
C813 C 0.13188 0.00216 0.11773 0.0
C814 C 0.09039 0.07431 0.1264 0.0
C815 C 0.11248 0.05149 0.13701 0.0
H816 H 0.35953 0.01278 0.34731 0.0
H817 H 0.30151 0.94277 0.38247 0.0
H818 H 0.33421 0.98618 0.40136 0.0
H819 H 0.38559 0.03858 0.40777 0.0
H820 H 0.44093 0.11164 0.37288 0.0
H821 H 0.40202 0.07355 0.35393 0.0
C822 C 0.35364 0.00767 0.35911 0.0
C823 C 0.32869 0.97455 0.36359 0.0
C824 C 0.37183 0.03336 0.3699 0.0
C825 C 0.32067 0.96822 0.37885 0.0
C826 C 0.33941 0.99291 0.38963 0.0
C827 C 0.38812 0.04688 0.39603 0.0
C828 C 0.41607 0.07751 0.39164 0.0
C829 C 0.36582 0.02486 0.38528 0.0
C830 C 0.41924 0.0883 0.37647 0.0
C831 C 0.39743 0.06619 0.36564 0.0
H832 H 0.40841 0.20056 0.62168 0.0
H833 H 0.43862 0.30134 0.59197 0.0
H834 H 0.38902 0.34552 0.60453 0.0
H835 H 0.34291 0.3584 0.62571 0.0
H836 H 0.31418 0.25996 0.6563 0.0
H837 H 0.35668 0.21197 0.64167 0.0
C838 C 0.40362 0.23195 0.61781 0.0
C839 C 0.42767 0.24759 0.60597 0.0
C840 C 0.37524 0.25772 0.62529 0.0
C841 C 0.42103 0.28848 0.60114 0.0
C842 C 0.39255 0.31388 0.60831 0.0
C843 C 0.34496 0.32607 0.62884 0.0
C844 C 0.3249 0.31233 0.6418 0.0
C845 C 0.37027 0.29921 0.62062 0.0
C846 C 0.32858 0.27079 0.6461 0.0
C847 C 0.35328 0.24356 0.63783 0.0
H848 H 0.10713 0.23527 0.90592 0.0
H849 H 0.03519 0.1916 0.86875 0.0
H850 H 0.07909 0.22992 0.85131 0.0
H851 H 0.13184 0.28347 0.8472 0.0
H852 H 0.20569 0.32499 0.88427 0.0
H853 H 0.1677 0.27946 0.90123 0.0
C854 C 0.10212 0.23305 0.89394 0.0
C855 C 0.06836 0.21047 0.88854 0.0
C856 C 0.12744 0.25524 0.88404 0.0
C857 C 0.06151 0.2082 0.87308 0.0
C858 C 0.08629 0.23051 0.86315 0.0
C859 C 0.14015 0.28182 0.85895 0.0
C860 C 0.17121 0.30782 0.86454 0.0
C861 C 0.11843 0.25528 0.86857 0.0
C862 C 0.18199 0.3052 0.87972 0.0
C863 C 0.16009 0.27937 0.88942 0.0
H864 H 0.89477 0.16475 0.87487 0.0
H865 H 0.83236 0.20642 0.91453 0.0
H866 H 0.78383 0.24587 0.89932 0.0
H867 H 0.7721 0.28275 0.87557 0.0
H868 H 0.83929 0.24561 0.83624 0.0
H869 H 0.8721 0.18997 0.85025 0.0
C870 C 0.8691 0.18058 0.88009 0.0
C871 C 0.86706 0.18267 0.89576 0.0
C872 C 0.84285 0.20527 0.87128 0.0
C873 C 0.83427 0.20411 0.90245 0.0
C874 C 0.80692 0.22727 0.89375 0.0
C875 C 0.79257 0.26139 0.86993 0.0
C876 C 0.8038 0.26884 0.85496 0.0
C877 C 0.81273 0.23035 0.87824 0.0
C878 C 0.83055 0.24092 0.84782 0.0
C879 C 0.84955 0.20916 0.85586 0.0
H880 H 0.66066 0.22155 0.60184 0.0
H881 H 0.58315 0.16181 0.63443 0.0
H882 H 0.6228 0.19321 0.65467 0.0
H883 H 0.66895 0.24926 0.66261 0.0
H884 H 0.74419 0.31131 0.62983 0.0
H885 H 0.71666 0.2668 0.61022 0.0
C886 C 0.65331 0.21428 0.61339 0.0
C887 C 0.61852 0.18995 0.61663 0.0
C888 C 0.67544 0.2335 0.62494 0.0
C889 C 0.60968 0.1804 0.63162 0.0
C890 C 0.63209 0.19882 0.6432 0.0
C891 C 0.68029 0.25223 0.65125 0.0
C892 C 0.70798 0.28425 0.64765 0.0
C893 C 0.66346 0.22722 0.63995 0.0
C894 C 0.7228 0.28718 0.63292 0.0
C895 C 0.70672 0.26194 0.62166 0.0
H896 H 0.65333 0.02344 0.34623 0.0
H897 H 0.73962 0.97761 0.37891 0.0
H898 H 0.70923 0.02228 0.39798 0.0
H899 H 0.64993 0.06476 0.40627 0.0
H900 H 0.56659 0.11364 0.37321 0.0
H901 H 0.60395 0.07767 0.35342 0.0
C902 C 0.66625 0.02411 0.35742 0.0
C903 C 0.69826 0.9967 0.36119 0.0
C904 C 0.64868 0.05001 0.36834 0.0
C905 C 0.71496 -0.00171 0.37569 0.0
C906 C 0.69731 0.02358 0.38666 0.0
C907 C 0.64101 0.0687 0.39466 0.0
C908 C 0.60561 0.09179 0.39118 0.0
C909 C 0.66299 0.04819 0.38327 0.0
C910 C 0.59409 0.09651 0.37613 0.0
C911 C 0.61518 0.07555 0.36481 0.0
H912 H 0.8139 0.07709 0.15191 0.0
H913 H 0.77156 0.98131 0.12222 0.0
H914 H 0.81075 0.0117 0.10169 0.0
H915 H 0.86833 0.05639 0.09389 0.0
H916 H 0.91127 0.15141 0.12388 0.0
H917 H 0.86053 0.13061 0.14244 0.0
C918 C 0.81197 0.06378 0.14079 0.0
C919 C 0.79034 0.02656 0.13869 0.0
C920 C 0.83569 0.08066 0.12916 0.0
C921 C 0.78786 0.00993 0.12419 0.0
C922 C 0.81088 0.02695 0.11248 0.0
C923 C 0.86594 0.07321 0.10434 0.0
C924 C 0.89432 0.10482 0.10759 0.0
C925 C 0.83675 0.06087 0.11508 0.0
C926 C 0.89022 0.12672 0.12109 0.0
C927 C 0.86124 0.11472 0.13178 0.0
H928 H 0.59312 0.44424 0.65168 0.0
H929 H 0.70388 0.51354 0.64349 0.0
H930 H 0.66548 0.56174 0.62756 0.0
H931 H 0.60006 0.58301 0.61527 0.0
H932 H 0.4913 0.50984 0.62295 0.0
H933 H 0.52924 0.46464 0.63965 0.0
C934 C 0.60896 0.47004 0.64653 0.0
C935 C 0.65135 0.47527 0.64886 0.0
C936 C 0.58695 0.497 0.63717 0.0
C937 C 0.67126 0.50871 0.6419 0.0
C938 C 0.6493 0.53631 0.63278 0.0
C939 C 0.58474 0.55734 0.6207 0.0
C940 C 0.54287 0.54992 0.6178 0.0
C941 C 0.60709 0.53063 0.63023 0.0
C942 C 0.52354 0.51622 0.62483 0.0
C943 C 0.54518 0.4903 0.63446 0.0
H944 H 0.90229 0.57526 0.8993 0.0
H945 H -0.00196 0.4833 0.90324 0.0
H946 H 0.95805 0.43548 0.88827 0.0
H947 H 0.89821 0.42086 0.87264 0.0
H948 H 0.80012 0.50983 0.86923 0.0
H949 H 0.83842 0.55753 0.88543 0.0
C950 C 0.91426 0.54468 0.89696 0.0
C951 C 0.95352 0.53331 0.90229 0.0
C952 C 0.89073 0.51678 0.88836 0.0
C953 C 0.96818 0.49323 0.89927 0.0
C954 C 0.94533 0.46573 0.89065 0.0
C955 C 0.88503 0.45058 0.87555 0.0
C956 C 0.84658 0.46202 0.86966 0.0
C957 C 0.90696 0.4774 0.88493 0.0
C958 C 0.82961 0.50033 0.87368 0.0
C959 C 0.85165 0.52764 0.88286 0.0
H960 H 0.95812 0.79395 0.11487 0.0
H961 H 0.87525 0.69094 0.11939 0.0
H962 H 0.83 0.73282 0.13531 0.0
H963 H 0.81388 0.7998 0.14771 0.0
H964 H 0.90012 0.90033 0.14349 0.0
H965 H 0.94417 0.85818 0.12781 0.0
C966 C 0.93003 0.78058 0.11924 0.0
C967 C 0.91979 0.73958 0.11576 0.0
C968 C 0.90483 0.8044 0.12854 0.0
C969 C 0.88371 0.72256 0.12182 0.0
C970 C 0.85786 0.74649 0.13092 0.0
C971 C 0.84235 0.8123 0.14335 0.0
C972 C 0.85368 0.85315 0.14683 0.0
C973 C 0.86805 0.7876 0.13432 0.0
C974 C 0.89081 0.86889 0.14118 0.0
C975 C 0.916 0.84489 0.1321 0.0
H976 H 0.66873 0.84742 0.38215 0.0
H977 H 0.67805 0.75113 0.34916 0.0
H978 H 0.63907 0.70421 0.36538 0.0
H979 H 0.59481 0.6943 0.38734 0.0
H980 H 0.58003 0.7935 0.41912 0.0
H981 H 0.62902 0.83554 0.40514 0.0
C982 C 0.66316 0.81572 0.37879 0.0
C983 C 0.67652 0.80216 0.36472 0.0
C984 C 0.63927 0.78981 0.38786 0.0
C985 C 0.66843 0.76164 0.36012 0.0
C986 C 0.64592 0.73508 0.36933 0.0
C987 C 0.60291 0.72481 0.39136 0.0
C988 C 0.58355 0.7409 0.40417 0.0
C989 C 0.63004 0.74932 0.38299 0.0
C990 C 0.5942 0.78057 0.40921 0.0
C991 C 0.62219 0.80464 0.40122 0.0
H992 H 0.3497 0.7144 0.40598 0.0
H993 H 0.43584 0.66802 0.37344 0.0
H994 H 0.39687 0.70132 0.35334 0.0
H995 H 0.34621 0.7544 0.34589 0.0
H996 H 0.25938 0.79973 0.37845 0.0
H997 H 0.29005 0.75542 0.39758 0.0
C998 C 0.35909 0.7104 0.39442 0.0
C999 C 0.39585 0.68913 0.39121 0.0
C1000 C 0.33672 0.73 0.38295 0.0
C1001 C 0.4076 0.68401 0.3762 0.0
C1002 C 0.38555 0.70351 0.36472 0.0
C1003 C 0.33321 0.75365 0.35707 0.0
C1004 C 0.30095 0.78091 0.36079 0.0
C1005 C 0.35123 0.72821 0.36807 0.0
C1006 C 0.28417 0.7792 0.37526 0.0
C1007 C 0.30199 0.75409 0.38627 0.0
H1008 H 0.16586 0.72737 0.16106 0.0
H1009 H 0.23875 0.78602 0.12687 0.0
H1010 H 0.20571 0.74365 0.10774 0.0
H1011 H 0.14487 0.7029 0.10053 0.0
H1012 H 0.07151 0.64494 0.13479 0.0
H1013 H 0.11652 0.67311 0.15408 0.0
C1014 C 0.17571 0.72959 0.14948 0.0
C1015 C 0.20421 0.76022 0.14534 0.0
C1016 C 0.15586 0.70577 0.13852 0.0
C1017 C 0.21695 0.76267 0.13035 0.0
C1018 C 0.1976 0.7388 0.11937 0.0
C1019 C 0.13964 0.69519 0.1122 0.0
C1020 C 0.10435 0.67261 0.11624 0.0
C1021 C 0.16529 0.71215 0.12326 0.0
C1022 C 0.09828 0.66236 0.13136 0.0
C1023 C 0.12381 0.67888 0.14243 0.0
H1024 H 0.17214 0.59648 0.90454 0.0
H1025 H 0.07154 0.62788 0.87523 0.0
H1026 H 0.10303 0.58775 0.85514 0.0
H1027 H 0.15082 0.53202 0.84795 0.0
H1028 H 0.24994 0.49858 0.87769 0.0
H1029 H 0.22746 0.55119 0.89548 0.0
C1030 C 0.15785 0.59586 0.89358 0.0
C1031 C 0.11907 0.61464 0.89152 0.0
C1032 C 0.1753 0.57124 0.88227 0.0
C1033 C 0.10128 0.61383 0.87719 0.0
C1034 C 0.11899 0.59021 0.86574 0.0
C1035 C 0.16809 0.53682 0.85818 0.0
C1036 C 0.20154 0.51063 0.86161 0.0
C1037 C 0.15465 0.56685 0.86847 0.0
C1038 C 0.22393 0.5179 0.87479 0.0
C1039 C 0.21095 0.54794 0.88502 0.0
H1040 H 0.34655 0.53533 0.66354 0.0
H1041 H 0.24911 0.49713 0.63391 0.0
H1042 H 0.26925 0.55001 0.61588 0.0
H1043 H 0.32334 0.5961 0.60648 0.0
H1044 H 0.422 0.63268 0.6358 0.0
H1045 H 0.39165 0.59288 0.65615 0.0
C1046 C 0.32905 0.53926 0.6533 0.0
C1047 C 0.297 0.51157 0.64992 0.0
C1048 C 0.34114 0.56946 0.64288 0.0
C1049 C 0.27416 0.51764 0.63675 0.0
C1050 C 0.2858 0.54782 0.62638 0.0
C1051 C 0.33728 0.59675 0.61751 0.0
C1052 C 0.37537 0.61664 0.6195 0.0
C1053 C 0.3205 0.57243 0.62901 0.0
C1054 C 0.39278 0.61761 0.63389 0.0
C1055 C 0.37577 0.5942 0.6455 0.0
H1056 H 0.91823 0.93626 0.06449 0.0
H1057 H 0.01124 0.99151 0.03673 0.0
H1058 H 0.04559 0.92511 0.03403 0.0
H1059 H 0.05845 0.85723 0.0451 0.0
H1060 H 0.9677 0.80282 0.07426 0.0
H1061 H 0.92297 0.86252 0.07075 0.0
C1062 C 0.94479 0.93314 0.05724 0.0
C1063 C 0.96296 0.96849 0.05115 0.0
C1064 C 0.96563 0.8953 0.05646 0.0
C1065 C -0.00272 0.96455 0.04174 0.0
C1066 C 0.01721 0.9267 0.04035 0.0
C1067 C 0.02862 0.85814 0.05049 0.0
C1068 C 0.01713 0.82661 0.0604 0.0
C1069 C 0.00337 0.89277 0.04863 0.0
C1070 C 0.97781 0.82744 0.06692 0.0
C1071 C 0.9521 0.86147 0.06488 0.0
H1072 H 0.42097 0.90816 0.29801 0.0
H1073 H 0.44924 0.78105 0.3082 0.0
H1074 H 0.5224 0.79504 0.30466 0.0
H1075 H 0.57626 0.84715 0.30636 0.0
H1076 H 0.54728 0.97599 0.29972 0.0
H1077 H 0.47618 0.95772 0.29381 0.0
C1078 C 0.4431 0.88324 0.29896 0.0
C1079 C 0.43038 0.84413 0.30395 0.0
C1080 C 0.48485 0.89222 0.29789 0.0
C1081 C 0.45871 0.81159 0.30465 0.0
C1082 C 0.50047 0.81975 0.3028 0.0
C1083 C 0.55459 0.8712 0.30329 0.0
C1084 C 0.56614 0.913 0.30412 0.0
C1085 C 0.51375 0.8606 0.30067 0.0
C1086 C 0.53856 0.94374 0.29952 0.0
C1087 C 0.49799 0.93327 0.29622 0.0
H1088 H 0.54422 0.34622 0.60205 0.0
H1089 H 0.55706 0.35431 0.55413 0.0
H1090 H 0.50763 0.41156 0.55348 0.0
H1091 H 0.45795 0.45569 0.56652 0.0
H1092 H 0.44235 0.44345 0.61435 0.0
H1093 H 0.49447 0.38952 0.61496 0.0
C1094 C 0.53718 0.36143 0.59153 0.0
C1095 C 0.55481 0.34711 0.57819 0.0
C1096 C 0.50708 0.39214 0.59117 0.0
C1097 C 0.5444 0.3658 0.56454 0.0
C1098 C 0.51569 0.39785 0.56416 0.0
C1099 C 0.46564 0.44096 0.57706 0.0
C1100 C 0.44644 0.4538 0.59038 0.0
C1101 C 0.49609 0.41046 0.57738 0.0
C1102 C 0.45646 0.43409 0.60392 0.0
C1103 C 0.4867 0.40366 0.60432 0.0
H1104 H 0.08101 0.36035 0.80618 0.0
H1105 H 0.04738 0.48856 0.80094 0.0
H1106 H 0.97739 0.46802 0.79427 0.0
H1107 H 0.9243 0.41596 0.79775 0.0
H1108 H 0.95705 0.28919 0.80642 0.0
H1109 H 0.0297 0.30633 0.80326 0.0
C1110 C 0.05872 0.38384 0.80317 0.0
C1111 C 0.06851 0.42596 0.80465 0.0
C1112 C 0.01856 0.37185 0.80007 0.0
C1113 C 0.04 0.45602 0.80022 0.0
C1114 C 8e-05 0.44424 0.79648 0.0
C1115 C 0.9472 0.3918 0.79838 0.0
C1116 C 0.93592 0.35181 0.80285 0.0
C1117 C 0.98854 0.40254 0.79754 0.0
C1118 C 0.96541 0.32032 0.80319 0.0
C1119 C 0.00687 0.3303 0.80159 0.0
H1120 H -0.00557 0.34792 0.90982 0.0
H1121 H 0.93882 0.37034 0.95286 0.0
H1122 H 0.98507 0.4292 0.95678 0.0
H1123 H 0.04489 0.46943 0.94872 0.0
H1124 H 0.10108 0.44471 0.90582 0.0
H1125 H 0.0524 0.38898 0.90153 0.0
C1126 C 0.99204 0.36611 0.91999 0.0
C1127 C 0.96363 0.355 0.9311 0.0
C1128 C 0.01974 0.39807 0.9224 0.0
C1129 C 0.96027 0.3788 0.94412 0.0
C1130 C 0.98717 0.4118 0.94645 0.0
C1131 C 0.04653 0.45198 0.93841 0.0
C1132 C 0.07634 0.46162 0.92753 0.0
C1133 C 0.01778 0.4208 0.93584 0.0
C1134 C 0.07855 0.43798 0.91439 0.0
C1135 C 0.05041 0.40648 0.91184 0.0
H1136 H 0.06244 0.88043 0.20366 0.0
H1137 H 0.01968 0.78729 0.17299 0.0
H1138 H 0.95529 0.82512 0.16965 0.0
H1139 H 0.92029 0.89206 0.17071 0.0
H1140 H 0.96537 0.98815 0.1996 0.0
H1141 H 0.02079 0.94228 0.20827 0.0
C1142 C 0.03832 0.86776 0.19668 0.0
C1143 C 0.04598 0.83207 0.18818 0.0
C1144 C 0.00299 0.89114 0.19401 0.0
C1145 C 0.01444 0.81498 0.17951 0.0
C1146 C 0.97804 0.83704 0.17737 0.0
C1147 C 0.94229 0.90281 0.17891 0.0
C1148 C 0.94048 0.94367 0.18405 0.0
C1149 C 0.9736 0.87647 0.18369 0.0
C1150 C 0.96752 0.95708 0.19519 0.0
C1151 C -0.00124 0.93082 0.20019 0.0
H1152 H 0.48489 0.81404 0.46098 0.0
H1153 H 0.37047 0.85299 0.44106 0.0
H1154 H 0.39288 0.92489 0.44217 0.0
H1155 H 0.45118 0.97188 0.44224 0.0
H1156 H 0.56933 0.93112 0.45859 0.0
H1157 H 0.53944 0.8643 0.46544 0.0
C1158 C 0.46435 0.83848 0.45732 0.0
C1159 C 0.42684 0.82842 0.45041 0.0
C1160 C 0.4788 0.87901 0.45687 0.0
C1161 C 0.39977 0.86005 0.44619 0.0
C1162 C 0.41289 0.90105 0.44661 0.0
C1163 C 0.47043 0.94859 0.44746 0.0
C1164 C 0.51282 0.95556 0.44934 0.0
C1165 C 0.45346 0.91018 0.4508 0.0
C1166 C 0.5369 0.9259 0.45669 0.0
C1167 C 0.51979 0.88784 0.4606 0.0
H1168 H 0.58134 0.38634 0.71458 0.0
H1169 H 0.54785 0.26931 0.69525 0.0
H1170 H 0.47543 0.28922 0.69604 0.0
H1171 H 0.42763 0.34689 0.6945 0.0
H1172 H 0.46429 0.46842 0.70923 0.0
H1173 H 0.52991 0.44017 0.71789 0.0
C1174 C 0.55799 0.36465 0.71106 0.0
C1175 C 0.56958 0.32737 0.70422 0.0
C1176 C 0.5174 0.37801 0.71012 0.0
C1177 C 0.53945 0.29858 0.70027 0.0
C1178 C 0.4982 0.31034 0.70045 0.0
C1179 C 0.44971 0.36729 0.69977 0.0
C1180 C 0.44214 0.41009 0.70059 0.0
C1181 C 0.48766 0.35126 0.70403 0.0
C1182 C 0.47014 0.43565 0.70804 0.0
C1183 C 0.50747 0.41946 0.71303 0.0
loop_
_geom_bond_atom_site_label_1
_geom_bond_atom_site_label_2
_geom_bond_distance
_geom_bond_site_symmetry_2
_ccdc_geom_bond_type
Co0 O3 1.970 1_455 S
Co0 N17 1.989 . S
Co0 O25 1.967 . S
Co0 O32 1.920 . S
Co1 O4 1.966 1_455 S
Co1 N10 2.022 . S
Co1 N18 1.993 . S
Co1 O26 1.941 . S
C2 O3 1.258 . S
C2 O4 1.263 . S
O3 Co0 1.970 1_655 S
O3 C2 1.258 . S
O4 Co1 1.966 1_655 S
O4 C2 1.263 . S
C5 O6 1.235 1_565 S
C5 O32 1.289 1_665 S
O6 C5 1.235 1_545 S
C7 C9 1.400 . S
C7 N10 1.351 1_655 S
C7 C12 1.501 . S
C8 C9 1.387 1_455 S
C8 N11 1.341 . S
C9 C7 1.400 . S
C9 C8 1.387 1_655 S
N10 Co1 2.022 . S
N10 C7 1.351 1_455 S
N10 N11 1.365 . S
N11 C8 1.341 . S
N11 N10 1.365 . S
N11 H31 0.862 . S
C12 C7 1.501 . S
C12 H13 0.961 . S
C12 H14 0.961 . S
C12 H15 0.960 . S
H13 C12 0.961 . S
H14 C12 0.961 . S
H15 C12 0.960 . S
C16 N17 1.342 . S
C16 C20 1.401 . S
C16 C21 1.499 . S
N17 Co0 1.989 . S
N17 C16 1.342 . S
N17 N18 1.388 . S
N18 Co1 1.993 . S
N18 N17 1.388 . S
N18 C19 1.346 . S
C19 N18 1.346 . S
C19 C20 1.396 . S
C19 C29 1.510 . S
C20 C16 1.401 . S
C20 C19 1.396 . S
C21 C16 1.499 . S
C21 H22 0.959 . S
C21 H23 0.962 . S
C21 H24 0.961 . S
H22 C21 0.959 . S
H23 C21 0.962 . S
H24 C21 0.961 . S
O25 Co0 1.967 . S
O25 C33 1.258 . S
O26 Co1 1.941 . S
O26 C33 1.266 . S
H27 C29 0.959 . S
H28 C29 0.961 1_655 S
C29 C19 1.510 . S
C29 H27 0.959 . S
C29 H28 0.961 1_455 S
C29 H30 0.960 . S
H30 C29 0.960 . S
H31 N11 0.862 . S
O32 Co0 1.920 . S
O32 C5 1.289 1_445 S
C33 O25 1.258 . S
C33 O26 1.266 . S
Co34 O37 1.970 . S
Co34 N51 1.989 . S
Co34 O59 1.967 . S
Co34 O66 1.920 . S
Co35 O38 1.966 . S
Co35 N44 2.022 . S
Co35 N52 1.993 . S
Co35 O60 1.941 . S
C36 O37 1.258 . S
C36 O38 1.263 . S
O37 Co34 1.970 . S
O37 C36 1.258 . S
O38 Co35 1.966 . S
O38 C36 1.263 . S
C39 O40 1.235 . S
C39 O66 1.289 . S
O40 C39 1.235 . S
C41 C43 1.400 . S
C41 N44 1.351 . S
C41 C46 1.501 . S
C42 C43 1.387 . S
C42 N45 1.341 . S
C43 C41 1.400 . S
C43 C42 1.387 . S
N44 Co35 2.022 . S
N44 C41 1.351 . S
N44 N45 1.365 . S
N45 C42 1.341 . S
N45 N44 1.365 . S
N45 H65 0.862 . S
C46 C41 1.501 . S
C46 H47 0.961 . S
C46 H48 0.961 . S
C46 H49 0.960 . S
H47 C46 0.961 . S
H48 C46 0.961 . S
H49 C46 0.960 . S
C50 N51 1.342 . S
C50 C54 1.401 . S
C50 C55 1.499 . S
N51 Co34 1.989 . S
N51 C50 1.342 . S
N51 N52 1.388 . S
N52 Co35 1.993 . S
N52 N51 1.388 . S
N52 C53 1.346 . S
C53 N52 1.346 . S
C53 C54 1.396 . S
C53 C63 1.510 . S
C54 C50 1.401 . S
C54 C53 1.396 . S
C55 C50 1.499 . S
C55 H56 0.959 . S
C55 H57 0.960 . S
C55 H58 0.961 . S
H56 C55 0.959 . S
H57 C55 0.960 . S
H58 C55 0.961 . S
O59 Co34 1.967 . S
O59 C67 1.258 . S
O60 Co35 1.941 . S
O60 C67 1.266 . S
H61 C63 0.959 . S
H62 C63 0.961 . S
C63 C53 1.510 . S
C63 H61 0.959 . S
C63 H62 0.961 . S
C63 H64 0.960 . S
H64 C63 0.960 . S
H65 N45 0.862 . S
O66 Co34 1.920 . S
O66 C39 1.289 . S
C67 O59 1.258 . S
C67 O60 1.266 . S
Co68 O71 1.970 . S
Co68 N85 1.989 . S
Co68 O93 1.967 . S
Co68 O100 1.920 . S
Co69 O72 1.966 . S
Co69 N78 2.022 . S
Co69 N86 1.993 . S
Co69 O94 1.941 . S
C70 O71 1.258 . S
C70 O72 1.263 . S
O71 Co68 1.970 . S
O71 C70 1.258 . S
O72 Co69 1.966 . S
O72 C70 1.263 . S
C73 O74 1.235 . S
C73 O100 1.289 . S
O74 C73 1.235 . S
C75 C77 1.400 . S
C75 N78 1.351 . S
C75 C80 1.501 . S
C76 C77 1.387 . S
C76 N79 1.341 . S
C77 C75 1.400 . S
C77 C76 1.387 . S
N78 Co69 2.022 . S
N78 C75 1.351 . S
N78 N79 1.365 . S
N79 C76 1.341 . S
N79 N78 1.365 . S
N79 H99 0.862 . S
C80 C75 1.501 . S
C80 H81 0.961 . S
C80 H82 0.961 . S
C80 H83 0.960 . S
H81 C80 0.961 . S
H82 C80 0.961 . S
H83 C80 0.960 . S
C84 N85 1.342 . S
C84 C88 1.401 . S
C84 C89 1.499 . S
N85 Co68 1.989 . S
N85 C84 1.342 . S
N85 N86 1.388 . S
N86 Co69 1.993 . S
N86 N85 1.388 . S
N86 C87 1.346 . S
C87 N86 1.346 . S
C87 C88 1.396 . S
C87 C97 1.510 . S
C88 C84 1.401 . S
C88 C87 1.396 . S
C89 C84 1.499 . S
C89 H90 0.959 . S
C89 H91 0.960 . S
C89 H92 0.961 . S
H90 C89 0.959 . S
H91 C89 0.960 . S
H92 C89 0.961 . S
O93 Co68 1.967 . S
O93 C101 1.258 . S
O94 Co69 1.941 . S
O94 C101 1.266 . S
H95 C97 0.959 . S
H96 C97 0.961 . S
C97 C87 1.510 . S
C97 H95 0.959 . S
C97 H96 0.961 . S
C97 H98 0.960 . S
H98 C97 0.960 . S
H99 N79 0.862 . S
O100 Co68 1.920 . S
O100 C73 1.289 . S
C101 O93 1.258 . S
C101 O94 1.266 . S
Co102 O105 1.970 . S
Co102 N119 1.989 . S
Co102 O127 1.967 . S
Co102 O134 1.920 . S
Co103 O106 1.966 . S
Co103 N112 2.022 . S
Co103 N120 1.993 . S
Co103 O128 1.941 . S
C104 O105 1.258 . S
C104 O106 1.263 . S
O105 Co102 1.970 . S
O105 C104 1.258 . S
O106 Co103 1.966 . S
O106 C104 1.263 . S
C107 O108 1.235 . S
C107 O134 1.289 . S
O108 C107 1.235 . S
C109 C111 1.400 . S
C109 N112 1.351 . S
C109 C114 1.501 . S
C110 C111 1.387 . S
C110 N113 1.341 . S
C111 C109 1.400 . S
C111 C110 1.387 . S
N112 Co103 2.022 . S
N112 C109 1.351 . S
N112 N113 1.365 . S
N113 C110 1.341 . S
N113 N112 1.365 . S
N113 H133 0.862 . S
C114 C109 1.501 . S
C114 H115 0.961 . S
C114 H116 0.961 . S
C114 H117 0.960 . S
H115 C114 0.961 . S
H116 C114 0.961 . S
H117 C114 0.960 . S
C118 N119 1.342 . S
C118 C122 1.401 . S
C118 C123 1.499 . S
N119 Co102 1.989 . S
N119 C118 1.342 . S
N119 N120 1.388 . S
N120 Co103 1.993 . S
N120 N119 1.388 . S
N120 C121 1.346 . S
C121 N120 1.346 . S
C121 C122 1.396 . S
C121 C131 1.510 . S
C122 C118 1.401 . S
C122 C121 1.396 . S
C123 C118 1.499 . S
C123 H124 0.959 . S
C123 H125 0.960 . S
C123 H126 0.961 . S
H124 C123 0.959 . S
H125 C123 0.960 . S
H126 C123 0.961 . S
O127 Co102 1.967 . S
O127 C135 1.258 . S
O128 Co103 1.941 . S
O128 C135 1.266 . S
H129 C131 0.959 . S
H130 C131 0.961 . S
C131 C121 1.510 . S
C131 H129 0.959 . S
C131 H130 0.961 . S
C131 H132 0.960 . S
H132 C131 0.960 . S
H133 N113 0.862 . S
O134 Co102 1.920 . S
O134 C107 1.289 . S
C135 O127 1.258 . S
C135 O128 1.266 . S
Co136 O139 1.970 1_455 S
Co136 N153 1.989 . S
Co136 O161 1.967 . S
Co136 O168 1.920 . S
Co137 O140 1.966 1_455 S
Co137 N146 2.022 . S
Co137 N154 1.993 . S
Co137 O162 1.941 . S
C138 O139 1.258 . S
C138 O140 1.263 . S
O139 Co136 1.970 1_655 S
O139 C138 1.258 . S
O140 Co137 1.966 1_655 S
O140 C138 1.263 . S
C141 O142 1.235 . S
C141 O168 1.289 1_655 S
O142 C141 1.235 . S
C143 C145 1.400 . S
C143 N146 1.351 1_655 S
C143 C148 1.501 . S
C144 C145 1.387 1_455 S
C144 N147 1.341 . S
C145 C143 1.400 . S
C145 C144 1.387 1_655 S
N146 Co137 2.022 . S
N146 C143 1.351 1_455 S
N146 N147 1.365 . S
N147 C144 1.341 . S
N147 N146 1.365 . S
N147 H167 0.862 . S
C148 C143 1.501 . S
C148 H149 0.961 . S
C148 H150 0.961 . S
C148 H151 0.960 . S
H149 C148 0.961 . S
H150 C148 0.961 . S
H151 C148 0.960 . S
C152 N153 1.342 . S
C152 C156 1.401 . S
C152 C157 1.499 . S
N153 Co136 1.989 . S
N153 C152 1.342 . S
N153 N154 1.388 . S
N154 Co137 1.993 . S
N154 N153 1.388 . S
N154 C155 1.346 . S
C155 N154 1.346 . S
C155 C156 1.396 . S
C155 C165 1.510 . S
C156 C152 1.401 . S
C156 C155 1.396 . S
C157 C152 1.499 . S
C157 H158 0.959 . S
C157 H159 0.960 . S
C157 H160 0.961 . S
H158 C157 0.959 . S
H159 C157 0.960 . S
H160 C157 0.961 . S
O161 Co136 1.967 . S
O161 C169 1.258 . S
O162 Co137 1.941 . S
O162 C169 1.266 . S
H163 C165 0.959 . S
H164 C165 0.961 1_655 S
C165 C155 1.510 . S
C165 H163 0.959 . S
C165 H164 0.961 1_455 S
C165 H166 0.960 . S
H166 C165 0.960 . S
H167 N147 0.862 . S
O168 Co136 1.920 . S
O168 C141 1.289 1_455 S
C169 O161 1.258 . S
C169 O162 1.266 . S
Co170 O173 1.970 . S
Co170 N187 1.989 . S
Co170 O195 1.967 . S
Co170 O202 1.920 . S
Co171 O174 1.966 . S
Co171 N180 2.022 . S
Co171 N188 1.993 . S
Co171 O196 1.941 . S
C172 O173 1.258 . S
C172 O174 1.263 . S
O173 Co170 1.970 . S
O173 C172 1.258 . S
O174 Co171 1.966 . S
O174 C172 1.263 . S
C175 O176 1.235 . S
C175 O202 1.289 . S
O176 C175 1.235 . S
C177 C179 1.400 . S
C177 N180 1.351 . S
C177 C182 1.501 . S
C178 C179 1.387 . S
C178 N181 1.341 . S
C179 C177 1.400 . S
C179 C178 1.387 . S
N180 Co171 2.022 . S
N180 C177 1.351 . S
N180 N181 1.365 . S
N181 C178 1.341 . S
N181 N180 1.365 . S
N181 H201 0.862 . S
C182 C177 1.501 . S
C182 H183 0.961 . S
C182 H184 0.961 . S
C182 H185 0.960 . S
H183 C182 0.961 . S
H184 C182 0.961 . S
H185 C182 0.960 . S
C186 N187 1.342 . S
C186 C190 1.401 . S
C186 C191 1.499 . S
N187 Co170 1.989 . S
N187 C186 1.342 . S
N187 N188 1.388 . S
N188 Co171 1.993 . S
N188 N187 1.388 . S
N188 C189 1.346 . S
C189 N188 1.346 . S
C189 C190 1.396 . S
C189 C199 1.510 . S
C190 C186 1.401 . S
C190 C189 1.396 . S
C191 C186 1.499 . S
C191 H192 0.959 . S
C191 H193 0.960 . S
C191 H194 0.961 . S
H192 C191 0.959 . S
H193 C191 0.960 . S
H194 C191 0.961 . S
O195 Co170 1.967 . S
O195 C203 1.258 . S
O196 Co171 1.941 . S
O196 C203 1.266 . S
H197 C199 0.959 . S
H198 C199 0.961 . S
C199 C189 1.510 . S
C199 H197 0.959 . S
C199 H198 0.961 . S
C199 H200 0.960 . S
H200 C199 0.960 . S
H201 N181 0.862 . S
O202 Co170 1.920 . S
O202 C175 1.289 . S
C203 O195 1.258 . S
C203 O196 1.266 . S
Co204 O207 1.970 . S
Co204 N221 1.989 . S
Co204 O229 1.967 . S
Co204 O236 1.920 . S
Co205 O208 1.966 . S
Co205 N214 2.022 . S
Co205 N222 1.993 . S
Co205 O230 1.941 . S
C206 O207 1.258 . S
C206 O208 1.263 . S
O207 Co204 1.970 . S
O207 C206 1.258 . S
O208 Co205 1.966 . S
O208 C206 1.263 . S
C209 O210 1.235 1_565 S
C209 O236 1.289 1_565 S
O210 C209 1.235 1_545 S
C211 C213 1.400 . S
C211 N214 1.351 . S
C211 C216 1.501 . S
C212 C213 1.387 . S
C212 N215 1.341 . S
C213 C211 1.400 . S
C213 C212 1.387 . S
N214 Co205 2.022 . S
N214 C211 1.351 . S
N214 N215 1.365 . S
N215 C212 1.341 . S
N215 N214 1.365 . S
N215 H235 0.862 . S
C216 C211 1.501 . S
C216 H217 0.961 . S
C216 H218 0.961 . S
C216 H219 0.960 . S
H217 C216 0.961 . S
H218 C216 0.961 . S
H219 C216 0.960 . S
C220 N221 1.342 . S
C220 C224 1.401 . S
C220 C225 1.499 . S
N221 Co204 1.989 . S
N221 C220 1.342 . S
N221 N222 1.388 . S
N222 Co205 1.993 . S
N222 N221 1.388 . S
N222 C223 1.346 . S
C223 N222 1.346 . S
C223 C224 1.396 . S
C223 C233 1.510 . S
C224 C220 1.401 . S
C224 C223 1.396 . S
C225 C220 1.499 . S
C225 H226 0.959 . S
C225 H227 0.960 . S
C225 H228 0.961 . S
H226 C225 0.959 . S
H227 C225 0.960 . S
H228 C225 0.961 . S
O229 Co204 1.967 . S
O229 C237 1.258 . S
O230 Co205 1.941 . S
O230 C237 1.266 . S
H231 C233 0.959 . S
H232 C233 0.961 . S
C233 C223 1.510 . S
C233 H231 0.959 . S
C233 H232 0.961 . S
C233 H234 0.960 . S
H234 C233 0.960 . S
H235 N215 0.862 . S
O236 Co204 1.920 . S
O236 C209 1.289 1_545 S
C237 O229 1.258 . S
C237 O230 1.266 . S
Co238 O241 1.970 . S
Co238 N255 1.989 . S
Co238 O263 1.967 . S
Co238 O270 1.920 . S
Co239 O242 1.966 . S
Co239 N248 2.022 . S
Co239 N256 1.993 . S
Co239 O264 1.941 . S
C240 O241 1.258 . S
C240 O242 1.263 . S
O241 Co238 1.970 . S
O241 C240 1.258 . S
O242 Co239 1.966 . S
O242 C240 1.263 . S
C243 O244 1.235 . S
C243 O270 1.289 . S
O244 C243 1.235 . S
C245 C247 1.400 . S
C245 N248 1.351 . S
C245 C250 1.501 . S
C246 C247 1.387 . S
C246 N249 1.341 . S
C247 C245 1.400 . S
C247 C246 1.387 . S
N248 Co239 2.022 . S
N248 C245 1.351 . S
N248 N249 1.365 . S
N249 C246 1.341 . S
N249 N248 1.365 . S
N249 H269 0.862 . S
C250 C245 1.501 . S
C250 H251 0.961 . S
C250 H252 0.961 . S
C250 H253 0.960 . S
H251 C250 0.961 . S
H252 C250 0.961 . S
H253 C250 0.960 . S
C254 N255 1.342 . S
C254 C258 1.401 . S
C254 C259 1.499 . S
N255 Co238 1.989 . S
N255 C254 1.342 . S
N255 N256 1.388 . S
N256 Co239 1.993 . S
N256 N255 1.388 . S
N256 C257 1.346 . S
C257 N256 1.346 . S
C257 C258 1.396 . S
C257 C267 1.510 . S
C258 C254 1.401 . S
C258 C257 1.396 . S
C259 C254 1.499 . S
C259 H260 0.959 . S
C259 H261 0.960 . S
C259 H262 0.961 . S
H260 C259 0.959 . S
H261 C259 0.960 . S
H262 C259 0.961 . S
O263 Co238 1.967 . S
O263 C271 1.258 . S
O264 Co239 1.941 . S
O264 C271 1.266 . S
H265 C267 0.959 . S
H266 C267 0.961 . S
C267 C257 1.510 . S
C267 H265 0.959 . S
C267 H266 0.961 . S
C267 H268 0.960 . S
H268 C267 0.960 . S
H269 N249 0.862 . S
O270 Co238 1.920 . S
O270 C243 1.289 . S
C271 O263 1.258 . S
C271 O264 1.266 . S
Co272 O275 1.970 . S
Co272 N289 1.989 . S
Co272 O297 1.967 . S
Co272 O304 1.920 . S
Co273 O276 1.966 . S
Co273 N282 2.022 . S
Co273 N290 1.993 . S
Co273 O298 1.941 . S
C274 O275 1.258 . S
C274 O276 1.263 . S
O275 Co272 1.970 . S
O275 C274 1.258 . S
O276 Co273 1.966 . S
O276 C274 1.263 . S
C277 O278 1.235 . S
C277 O304 1.289 . S
O278 C277 1.235 . S
C279 C281 1.400 . S
C279 N282 1.351 . S
C279 C284 1.501 . S
C280 C281 1.387 . S
C280 N283 1.341 . S
C281 C279 1.400 . S
C281 C280 1.387 . S
N282 Co273 2.022 . S
N282 C279 1.351 . S
N282 N283 1.365 . S
N283 C280 1.341 . S
N283 N282 1.365 . S
N283 H303 0.862 . S
C284 C279 1.501 . S
C284 H285 0.961 . S
C284 H286 0.961 . S
C284 H287 0.960 . S
H285 C284 0.961 . S
H286 C284 0.961 . S
H287 C284 0.960 . S
C288 N289 1.342 . S
C288 C292 1.401 . S
C288 C293 1.499 . S
N289 Co272 1.989 . S
N289 C288 1.342 . S
N289 N290 1.388 . S
N290 Co273 1.993 . S
N290 N289 1.388 . S
N290 C291 1.346 . S
C291 N290 1.346 . S
C291 C292 1.396 . S
C291 C301 1.510 . S
C292 C288 1.401 . S
C292 C291 1.396 . S
C293 C288 1.499 . S
C293 H294 0.959 . S
C293 H295 0.960 . S
C293 H296 0.961 . S
H294 C293 0.959 . S
H295 C293 0.960 . S
H296 C293 0.961 . S
O297 Co272 1.967 . S
O297 C305 1.258 . S
O298 Co273 1.941 . S
O298 C305 1.266 . S
H299 C301 0.959 . S
H300 C301 0.961 . S
C301 C291 1.510 . S
C301 H299 0.959 . S
C301 H300 0.961 . S
C301 H302 0.960 . S
H302 C301 0.960 . S
H303 N283 0.862 . S
O304 Co272 1.920 . S
O304 C277 1.289 . S
C305 O297 1.258 . S
C305 O298 1.266 . S
Co306 O309 1.970 . S
Co306 N323 1.989 . S
Co306 O331 1.967 . S
Co306 O338 1.920 . S
Co307 O310 1.966 . S
Co307 N316 2.022 . S
Co307 N324 1.993 . S
Co307 O332 1.941 . S
C308 O309 1.258 . S
C308 O310 1.263 . S
O309 Co306 1.970 . S
O309 C308 1.258 . S
O310 Co307 1.966 . S
O310 C308 1.263 . S
C311 O312 1.235 . S
C311 O338 1.289 . S
O312 C311 1.235 . S
C313 C315 1.400 . S
C313 N316 1.351 . S
C313 C318 1.501 . S
C314 C315 1.387 . S
C314 N317 1.341 . S
C315 C313 1.400 . S
C315 C314 1.387 . S
N316 Co307 2.022 . S
N316 C313 1.351 . S
N316 N317 1.365 . S
N317 C314 1.341 . S
N317 N316 1.365 . S
N317 H337 0.862 . S
C318 C313 1.501 . S
C318 H319 0.961 . S
C318 H320 0.961 . S
C318 H321 0.960 . S
H319 C318 0.961 . S
H320 C318 0.961 . S
H321 C318 0.960 . S
C322 N323 1.342 . S
C322 C326 1.401 . S
C322 C327 1.499 . S
N323 Co306 1.989 . S
N323 C322 1.342 . S
N323 N324 1.388 . S
N324 Co307 1.993 . S
N324 N323 1.388 . S
N324 C325 1.346 . S
C325 N324 1.346 . S
C325 C326 1.396 . S
C325 C335 1.510 . S
C326 C322 1.401 . S
C326 C325 1.396 . S
C327 C322 1.499 . S
C327 H328 0.959 . S
C327 H329 0.960 . S
C327 H330 0.961 . S
H328 C327 0.959 . S
H329 C327 0.960 . S
H330 C327 0.961 . S
O331 Co306 1.967 . S
O331 C339 1.258 . S
O332 Co307 1.941 . S
O332 C339 1.266 . S
H333 C335 0.959 . S
H334 C335 0.961 . S
C335 C325 1.510 . S
C335 H333 0.959 . S
C335 H334 0.961 . S
C335 H336 0.960 . S
H336 C335 0.960 . S
H337 N317 0.862 . S
O338 Co306 1.920 . S
O338 C311 1.289 . S
C339 O331 1.258 . S
C339 O332 1.266 . S
Co340 O343 1.970 . S
Co340 N357 1.989 . S
Co340 O365 1.967 . S
Co340 O372 1.920 . S
Co341 O344 1.966 . S
Co341 N350 2.022 . S
Co341 N358 1.993 . S
Co341 O366 1.941 . S
C342 O343 1.258 . S
C342 O344 1.263 . S
O343 Co340 1.970 . S
O343 C342 1.258 . S
O344 Co341 1.966 . S
O344 C342 1.263 . S
C345 O346 1.235 . S
C345 O372 1.289 . S
O346 C345 1.235 . S
C347 C349 1.400 . S
C347 N350 1.351 . S
C347 C352 1.501 . S
C348 C349 1.387 . S
C348 N351 1.341 . S
C349 C347 1.400 . S
C349 C348 1.387 . S
N350 Co341 2.022 . S
N350 C347 1.351 . S
N350 N351 1.365 . S
N351 C348 1.341 . S
N351 N350 1.365 . S
N351 H371 0.862 . S
C352 C347 1.501 . S
C352 H353 0.961 . S
C352 H354 0.961 . S
C352 H355 0.960 . S
H353 C352 0.961 . S
H354 C352 0.961 . S
H355 C352 0.960 . S
C356 N357 1.342 . S
C356 C360 1.401 . S
C356 C361 1.499 . S
N357 Co340 1.989 . S
N357 C356 1.342 . S
N357 N358 1.388 . S
N358 Co341 1.993 . S
N358 N357 1.388 . S
N358 C359 1.346 . S
C359 N358 1.346 . S
C359 C360 1.396 . S
C359 C369 1.510 . S
C360 C356 1.401 . S
C360 C359 1.396 . S
C361 C356 1.499 . S
C361 H362 0.959 . S
C361 H363 0.960 . S
C361 H364 0.961 . S
H362 C361 0.959 . S
H363 C361 0.960 . S
H364 C361 0.961 . S
O365 Co340 1.967 . S
O365 C373 1.258 . S
O366 Co341 1.941 . S
O366 C373 1.266 . S
H367 C369 0.959 . S
H368 C369 0.961 . S
C369 C359 1.510 . S
C369 H367 0.959 . S
C369 H368 0.961 . S
C369 H370 0.960 . S
H370 C369 0.960 . S
H371 N351 0.862 . S
O372 Co340 1.920 . S
O372 C345 1.289 . S
C373 O365 1.258 . S
C373 O366 1.266 . S
Co374 O377 1.970 . S
Co374 N391 1.989 . S
Co374 O399 1.967 . S
Co374 O406 1.920 . S
Co375 O378 1.966 . S
Co375 N384 2.022 . S
Co375 N392 1.993 . S
Co375 O400 1.941 . S
C376 O377 1.258 . S
C376 O378 1.263 . S
O377 Co374 1.970 . S
O377 C376 1.258 . S
O378 Co375 1.966 . S
O378 C376 1.263 . S
C379 O380 1.235 . S
C379 O406 1.289 . S
O380 C379 1.235 . S
C381 C383 1.400 . S
C381 N384 1.351 . S
C381 C386 1.501 . S
C382 C383 1.387 . S
C382 N385 1.341 . S
C383 C381 1.400 . S
C383 C382 1.387 . S
N384 Co375 2.022 . S
N384 C381 1.351 . S
N384 N385 1.365 . S
N385 C382 1.341 . S
N385 N384 1.365 . S
N385 H405 0.862 . S
C386 C381 1.501 . S
C386 H387 0.961 . S
C386 H388 0.961 . S
C386 H389 0.960 . S
H387 C386 0.961 . S
H388 C386 0.961 . S
H389 C386 0.960 . S
C390 N391 1.342 . S
C390 C394 1.401 . S
C390 C395 1.499 . S
N391 Co374 1.989 . S
N391 C390 1.342 . S
N391 N392 1.388 . S
N392 Co375 1.993 . S
N392 N391 1.388 . S
N392 C393 1.346 . S
C393 N392 1.346 . S
C393 C394 1.396 . S
C393 C403 1.510 . S
C394 C390 1.401 . S
C394 C393 1.396 . S
C395 C390 1.499 . S
C395 H396 0.959 . S
C395 H397 0.960 . S
C395 H398 0.961 . S
H396 C395 0.959 . S
H397 C395 0.960 . S
H398 C395 0.961 . S
O399 Co374 1.967 . S
O399 C407 1.258 . S
O400 Co375 1.941 . S
O400 C407 1.266 . S
H401 C403 0.959 . S
H402 C403 0.961 . S
C403 C393 1.510 . S
C403 H401 0.959 . S
C403 H402 0.961 . S
C403 H404 0.960 . S
H404 C403 0.960 . S
H405 N385 0.862 . S
O406 Co374 1.920 . S
O406 C379 1.289 . S
C407 O399 1.258 . S
C407 O400 1.266 . S
Co408 O411 1.970 . S
Co408 N425 1.989 . S
Co408 O433 1.967 . S
Co408 O440 1.920 . S
Co409 O412 1.966 . S
Co409 N418 2.022 . S
Co409 N426 1.993 . S
Co409 O434 1.941 . S
C410 O411 1.258 . S
C410 O412 1.263 . S
O411 Co408 1.970 . S
O411 C410 1.258 . S
O412 Co409 1.966 . S
O412 C410 1.263 . S
C413 O414 1.235 . S
C413 O440 1.289 . S
O414 C413 1.235 . S
C415 C417 1.400 . S
C415 N418 1.351 . S
C415 C420 1.501 . S
C416 C417 1.387 . S
C416 N419 1.341 . S
C417 C415 1.400 . S
C417 C416 1.387 . S
N418 Co409 2.022 . S
N418 C415 1.351 . S
N418 N419 1.365 . S
N419 C416 1.341 . S
N419 N418 1.365 . S
N419 H439 0.862 . S
C420 C415 1.501 . S
C420 H421 0.961 . S
C420 H422 0.961 . S
C420 H423 0.960 . S
H421 C420 0.961 . S
H422 C420 0.961 . S
H423 C420 0.960 . S
C424 N425 1.342 . S
C424 C428 1.401 . S
C424 C429 1.499 . S
N425 Co408 1.989 . S
N425 C424 1.342 . S
N425 N426 1.388 . S
N426 Co409 1.993 . S
N426 N425 1.388 . S
N426 C427 1.346 . S
C427 N426 1.346 . S
C427 C428 1.396 . S
C427 C437 1.510 . S
C428 C424 1.401 . S
C428 C427 1.396 . S
C429 C424 1.499 . S
C429 H430 0.959 . S
C429 H431 0.960 . S
C429 H432 0.961 . S
H430 C429 0.959 . S
H431 C429 0.960 . S
H432 C429 0.961 . S
O433 Co408 1.967 . S
O433 C441 1.258 . S
O434 Co409 1.941 . S
O434 C441 1.266 . S
H435 C437 0.959 . S
H436 C437 0.961 . S
C437 C427 1.510 . S
C437 H435 0.959 . S
C437 H436 0.961 . S
C437 H438 0.960 . S
H438 C437 0.960 . S
H439 N419 0.862 . S
O440 Co408 1.920 . S
O440 C413 1.289 . S
C441 O433 1.258 . S
C441 O434 1.266 . S
Co442 O445 1.970 . S
Co442 N459 1.989 1_455 S
Co442 O467 1.967 1_455 S
Co442 O474 1.920 1_455 S
Co443 O446 1.966 1_655 S
Co443 N452 2.022 . S
Co443 N460 1.993 . S
Co443 O468 1.941 . S
C444 O445 1.258 . S
C444 O446 1.263 . S
O445 Co442 1.970 . S
O445 C444 1.258 . S
O446 Co443 1.966 1_455 S
O446 C444 1.263 . S
C447 O448 1.235 . S
C447 O474 1.289 1_455 S
O448 C447 1.235 . S
C449 C451 1.400 . S
C449 N452 1.351 1_455 S
C449 C454 1.501 . S
C450 C451 1.387 1_655 S
C450 N453 1.341 . S
C451 C449 1.400 . S
C451 C450 1.387 1_455 S
N452 Co443 2.022 . S
N452 C449 1.351 1_655 S
N452 N453 1.365 . S
N453 C450 1.341 . S
N453 N452 1.365 . S
N453 H473 0.862 . S
C454 C449 1.501 . S
C454 H455 0.961 . S
C454 H456 0.961 . S
C454 H457 0.960 . S
H455 C454 0.961 . S
H456 C454 0.961 . S
H457 C454 0.960 . S
C458 N459 1.342 . S
C458 C462 1.401 . S
C458 C463 1.499 . S
N459 Co442 1.989 1_655 S
N459 C458 1.342 . S
N459 N460 1.388 . S
N460 Co443 1.993 . S
N460 N459 1.388 . S
N460 C461 1.345 . S
C461 N460 1.345 . S
C461 C462 1.396 . S
C461 C471 1.510 . S
C462 C458 1.401 . S
C462 C461 1.396 . S
C463 C458 1.499 . S
C463 H464 0.959 . S
C463 H465 0.960 1_655 S
C463 H466 0.961 . S
H464 C463 0.959 . S
H465 C463 0.960 1_455 S
H466 C463 0.961 . S
O467 Co442 1.967 1_655 S
O467 C475 1.258 . S
O468 Co443 1.941 . S
O468 C475 1.266 . S
H469 C471 0.959 . S
H470 C471 0.961 1_455 S
C471 C461 1.510 . S
C471 H469 0.959 . S
C471 H470 0.961 1_655 S
C471 H472 0.959 1_655 S
H472 C471 0.959 1_455 S
H473 N453 0.862 . S
O474 Co442 1.920 1_655 S
O474 C447 1.289 1_655 S
C475 O467 1.258 . S
C475 O468 1.266 . S
Co476 O479 1.970 . S
Co476 N493 1.989 . S
Co476 O501 1.967 . S
Co476 O508 1.920 . S
Co477 O480 1.966 . S
Co477 N486 2.022 . S
Co477 N494 1.993 . S
Co477 O502 1.941 . S
C478 O479 1.258 . S
C478 O480 1.263 . S
O479 Co476 1.970 . S
O479 C478 1.258 . S
O480 Co477 1.966 . S
O480 C478 1.263 . S
C481 O482 1.235 . S
C481 O508 1.289 . S
O482 C481 1.235 . S
C483 C485 1.400 . S
C483 N486 1.351 . S
C483 C488 1.501 . S
C484 C485 1.387 . S
C484 N487 1.341 . S
C485 C483 1.400 . S
C485 C484 1.387 . S
N486 Co477 2.022 . S
N486 C483 1.351 . S
N486 N487 1.365 . S
N487 C484 1.341 . S
N487 N486 1.365 . S
N487 H507 0.862 . S
C488 C483 1.501 . S
C488 H489 0.961 . S
C488 H490 0.961 . S
C488 H491 0.960 . S
H489 C488 0.961 . S
H490 C488 0.961 . S
H491 C488 0.960 . S
C492 N493 1.342 . S
C492 C496 1.401 . S
C492 C497 1.499 . S
N493 Co476 1.989 . S
N493 C492 1.342 . S
N493 N494 1.388 . S
N494 Co477 1.993 . S
N494 N493 1.388 . S
N494 C495 1.346 . S
C495 N494 1.346 . S
C495 C496 1.396 . S
C495 C505 1.510 . S
C496 C492 1.401 . S
C496 C495 1.396 . S
C497 C492 1.499 . S
C497 H498 0.959 . S
C497 H499 0.960 . S
C497 H500 0.961 . S
H498 C497 0.959 . S
H499 C497 0.960 . S
H500 C497 0.961 . S
O501 Co476 1.967 . S
O501 C509 1.258 . S
O502 Co477 1.941 . S
O502 C509 1.266 . S
H503 C505 0.959 . S
H504 C505 0.961 . S
C505 C495 1.510 . S
C505 H503 0.959 . S
C505 H504 0.961 . S
C505 H506 0.960 . S
H506 C505 0.960 . S
H507 N487 0.862 . S
O508 Co476 1.920 . S
O508 C481 1.289 . S
C509 O501 1.258 . S
C509 O502 1.266 . S
Co510 O513 1.970 . S
Co510 N527 1.989 1_455 S
Co510 O535 1.967 1_455 S
Co510 O542 1.920 1_455 S
Co511 O514 1.966 1_655 S
Co511 N520 2.022 . S
Co511 N528 1.994 1_655 S
Co511 O536 1.941 . S
C512 O513 1.258 . S
C512 O514 1.263 . S
O513 Co510 1.970 . S
O513 C512 1.258 . S
O514 Co511 1.966 1_455 S
O514 C512 1.263 . S
C515 O516 1.235 . S
C515 O542 1.289 1_455 S
O516 C515 1.235 . S
C517 C519 1.400 . S
C517 N520 1.351 1_455 S
C517 C522 1.501 . S
C518 C519 1.387 1_655 S
C518 N521 1.341 . S
C519 C517 1.400 . S
C519 C518 1.387 1_455 S
N520 Co511 2.022 . S
N520 C517 1.351 1_655 S
N520 N521 1.365 . S
N521 C518 1.341 . S
N521 N520 1.365 . S
N521 H541 0.862 . S
C522 C517 1.501 . S
C522 H523 0.961 . S
C522 H524 0.961 . S
C522 H525 0.960 . S
H523 C522 0.961 . S
H524 C522 0.961 . S
H525 C522 0.960 . S
C526 N527 1.342 . S
C526 C530 1.401 . S
C526 C531 1.499 . S
N527 Co510 1.989 1_655 S
N527 C526 1.342 . S
N527 N528 1.388 1_655 S
N528 Co511 1.994 1_455 S
N528 N527 1.388 1_455 S
N528 C529 1.346 1_455 S
C529 N528 1.346 1_655 S
C529 C530 1.396 . S
C529 C539 1.510 . S
C530 C526 1.401 . S
C530 C529 1.396 . S
C531 C526 1.499 . S
C531 H532 0.959 . S
C531 H533 0.960 1_655 S
C531 H534 0.961 . S
H532 C531 0.959 . S
H533 C531 0.960 1_455 S
H534 C531 0.961 . S
O535 Co510 1.967 1_655 S
O535 C543 1.258 . S
O536 Co511 1.941 . S
O536 C543 1.266 . S
H537 C539 0.959 . S
H538 C539 0.961 1_455 S
C539 C529 1.510 . S
C539 H537 0.959 . S
C539 H538 0.961 1_655 S
C539 H540 0.959 1_655 S
H540 C539 0.959 1_455 S
H541 N521 0.862 . S
O542 Co510 1.920 1_655 S
O542 C515 1.289 1_655 S
C543 O535 1.258 . S
C543 O536 1.266 . S
H544 C550 0.930 . S
H545 C553 0.930 . S
H546 C554 0.930 . S
H547 C555 0.930 . S
H548 C558 0.930 . S
H549 C559 0.930 . S
C550 H544 0.930 . S
C550 C551 1.355 . S
C550 C552 1.415 . S
C551 C550 1.355 . S
C551 C553 1.419 1_455 S
C552 C550 1.415 . S
C552 C557 1.425 1_455 S
C552 C559 1.409 . S
C553 H545 0.930 . S
C553 C551 1.419 1_655 S
C553 C554 1.362 . S
C554 H546 0.930 . S
C554 C553 1.362 . S
C554 C557 1.409 . S
C555 H547 0.930 . S
C555 C556 1.355 . S
C555 C557 1.415 . S
C556 C555 1.355 . S
C556 C558 1.419 1_655 S
C557 C552 1.425 1_655 S
C557 C554 1.409 . S
C557 C555 1.415 . S
C558 H548 0.930 . S
C558 C556 1.419 1_455 S
C558 C559 1.362 . S
C559 H549 0.930 . S
C559 C552 1.409 . S
C559 C558 1.362 . S
H560 C566 0.930 . S
H561 C569 0.930 . S
H562 C570 0.930 . S
H563 C571 0.930 . S
H564 C574 0.930 . S
H565 C575 0.930 . S
C566 H560 0.930 . S
C566 C567 1.355 . S
C566 C568 1.415 . S
C567 C566 1.355 . S
C567 C569 1.419 . S
C568 C566 1.415 . S
C568 C573 1.425 . S
C568 C575 1.409 1_455 S
C569 H561 0.930 . S
C569 C567 1.419 . S
C569 C570 1.362 . S
C570 H562 0.930 . S
C570 C569 1.362 . S
C570 C573 1.409 . S
C571 H563 0.930 . S
C571 C572 1.355 . S
C571 C573 1.415 1_655 S
C572 C571 1.355 . S
C572 C574 1.419 . S
C573 C568 1.425 . S
C573 C570 1.409 . S
C573 C571 1.415 1_455 S
C574 H564 0.930 . S
C574 C572 1.419 . S
C574 C575 1.362 . S
C575 H565 0.930 . S
C575 C568 1.409 1_655 S
C575 C574 1.362 . S
H576 C582 0.930 . S
H577 C585 0.930 . S
H578 C586 0.930 . S
H579 C587 0.930 . S
H580 C590 0.930 . S
H581 C591 0.930 . S
C582 H576 0.930 . S
C582 C583 1.355 . S
C582 C584 1.415 . S
C583 C582 1.355 . S
C583 C585 1.419 . S
C584 C582 1.415 . S
C584 C589 1.425 . S
C584 C591 1.409 . S
C585 H577 0.930 . S
C585 C583 1.419 . S
C585 C586 1.362 . S
C586 H578 0.930 . S
C586 C585 1.362 . S
C586 C589 1.409 . S
C587 H579 0.930 . S
C587 C588 1.355 . S
C587 C589 1.415 . S
C588 C587 1.355 . S
C588 C590 1.419 . S
C589 C584 1.425 . S
C589 C586 1.409 . S
C589 C587 1.415 . S
C590 H580 0.930 . S
C590 C588 1.419 . S
C590 C591 1.362 . S
C591 H581 0.930 . S
C591 C584 1.409 . S
C591 C590 1.362 . S
H592 C598 0.930 . S
H593 C601 0.930 . S
H594 C602 0.930 . S
H595 C603 0.930 . S
H596 C606 0.930 . S
H597 C607 0.930 . S
C598 H592 0.930 . S
C598 C599 1.355 . S
C598 C600 1.415 . S
C599 C598 1.355 . S
C599 C601 1.419 . S
C600 C598 1.415 . S
C600 C605 1.425 . S
C600 C607 1.409 . S
C601 H593 0.930 . S
C601 C599 1.419 . S
C601 C602 1.362 . S
C602 H594 0.930 . S
C602 C601 1.362 . S
C602 C605 1.409 . S
C603 H595 0.930 . S
C603 C604 1.355 . S
C603 C605 1.415 . S
C604 C603 1.355 . S
C604 C606 1.419 . S
C605 C600 1.425 . S
C605 C602 1.409 . S
C605 C603 1.415 . S
C606 H596 0.930 . S
C606 C604 1.419 . S
C606 C607 1.362 . S
C607 H597 0.930 . S
C607 C600 1.409 . S
C607 C606 1.362 . S
H608 C614 0.930 . S
H609 C617 0.930 . S
H610 C618 0.930 . S
H611 C619 0.930 . S
H612 C622 0.930 . S
H613 C623 0.930 . S
C614 H608 0.930 . S
C614 C615 1.355 . S
C614 C616 1.415 . S
C615 C614 1.355 . S
C615 C617 1.419 1_455 S
C616 C614 1.415 . S
C616 C621 1.425 1_455 S
C616 C623 1.409 . S
C617 H609 0.930 . S
C617 C615 1.419 1_655 S
C617 C618 1.362 . S
C618 H610 0.930 . S
C618 C617 1.362 . S
C618 C621 1.409 . S
C619 H611 0.930 . S
C619 C620 1.355 . S
C619 C621 1.415 . S
C620 C619 1.355 . S
C620 C622 1.419 1_655 S
C621 C616 1.425 1_655 S
C621 C618 1.409 . S
C621 C619 1.415 . S
C622 H612 0.930 . S
C622 C620 1.419 1_455 S
C622 C623 1.362 . S
C623 H613 0.930 . S
C623 C616 1.409 . S
C623 C622 1.362 . S
H624 C630 0.930 . S
H625 C633 0.930 . S
H626 C634 0.930 . S
H627 C635 0.930 . S
H628 C638 0.930 . S
H629 C639 0.930 . S
C630 H624 0.930 . S
C630 C631 1.355 . S
C630 C632 1.415 . S
C631 C630 1.355 . S
C631 C633 1.419 . S
C632 C630 1.415 . S
C632 C637 1.425 . S
C632 C639 1.409 . S
C633 H625 0.930 . S
C633 C631 1.419 . S
C633 C634 1.362 . S
C634 H626 0.930 . S
C634 C633 1.362 . S
C634 C637 1.409 . S
C635 H627 0.930 . S
C635 C636 1.355 . S
C635 C637 1.415 . S
C636 C635 1.355 . S
C636 C638 1.419 . S
C637 C632 1.425 . S
C637 C634 1.409 . S
C637 C635 1.415 . S
C638 H628 0.930 . S
C638 C636 1.419 . S
C638 C639 1.362 . S
C639 H629 0.930 . S
C639 C632 1.409 . S
C639 C638 1.362 . S
H640 C646 0.930 . S
H641 C649 0.930 . S
H642 C650 0.930 . S
H643 C651 0.930 . S
H644 C654 0.930 . S
H645 C655 0.930 . S
C646 H640 0.930 . S
C646 C647 1.355 . S
C646 C648 1.415 . S
C647 C646 1.355 . S
C647 C649 1.419 . S
C648 C646 1.415 . S
C648 C653 1.425 . S
C648 C655 1.409 . S
C649 H641 0.930 . S
C649 C647 1.419 . S
C649 C650 1.362 . S
C650 H642 0.930 . S
C650 C649 1.362 . S
C650 C653 1.409 . S
C651 H643 0.930 . S
C651 C652 1.355 . S
C651 C653 1.415 . S
C652 C651 1.355 . S
C652 C654 1.419 . S
C653 C648 1.425 . S
C653 C650 1.409 . S
C653 C651 1.415 . S
C654 H644 0.930 . S
C654 C652 1.419 . S
C654 C655 1.362 . S
C655 H645 0.930 . S
C655 C648 1.409 . S
C655 C654 1.362 . S
H656 C662 0.930 . S
H657 C665 0.930 . S
H658 C666 0.930 . S
H659 C667 0.930 . S
H660 C670 0.930 . S
H661 C671 0.930 . S
C662 H656 0.930 . S
C662 C663 1.355 . S
C662 C664 1.415 . S
C663 C662 1.355 . S
C663 C665 1.419 . S
C664 C662 1.415 . S
C664 C669 1.425 1_655 S
C664 C671 1.409 1_655 S
C665 H657 0.930 . S
C665 C663 1.419 . S
C665 C666 1.362 . S
C666 H658 0.930 . S
C666 C665 1.362 . S
C666 C669 1.409 1_655 S
C667 H659 0.930 . S
C667 C668 1.355 . S
C667 C669 1.415 . S
C668 C667 1.355 . S
C668 C670 1.419 . S
C669 C664 1.425 1_455 S
C669 C666 1.409 1_455 S
C669 C667 1.415 . S
C670 H660 0.930 . S
C670 C668 1.419 . S
C670 C671 1.362 . S
C671 H661 0.930 . S
C671 C664 1.409 1_455 S
C671 C670 1.362 . S
H672 C678 0.930 . S
H673 C681 0.930 . S
H674 C682 0.930 . S
H675 C683 0.930 . S
H676 C686 0.930 . S
H677 C687 0.930 . S
C678 H672 0.930 . S
C678 C679 1.355 . S
C678 C680 1.415 . S
C679 C678 1.355 . S
C679 C681 1.419 . S
C680 C678 1.415 . S
C680 C685 1.425 1_554 S
C680 C687 1.409 1_554 S
C681 H673 0.930 . S
C681 C679 1.419 . S
C681 C682 1.362 . S
C682 H674 0.930 . S
C682 C681 1.362 . S
C682 C685 1.409 1_554 S
C683 H675 0.930 . S
C683 C684 1.355 . S
C683 C685 1.415 . S
C684 C683 1.355 . S
C684 C686 1.419 . S
C685 C680 1.425 1_556 S
C685 C682 1.409 1_556 S
C685 C683 1.415 . S
C686 H676 0.930 . S
C686 C684 1.419 . S
C686 C687 1.362 . S
C687 H677 0.930 . S
C687 C680 1.409 1_556 S
C687 C686 1.362 . S
H688 C694 0.930 . S
H689 C697 0.930 . S
H690 C698 0.930 . S
H691 C699 0.930 . S
H692 C702 0.930 . S
H693 C703 0.930 . S
C694 H688 0.930 . S
C694 C695 1.355 . S
C694 C696 1.415 . S
C695 C694 1.355 . S
C695 C697 1.419 . S
C696 C694 1.415 . S
C696 C701 1.425 . S
C696 C703 1.409 . S
C697 H689 0.930 . S
C697 C695 1.419 . S
C697 C698 1.362 . S
C698 H690 0.930 . S
C698 C697 1.362 . S
C698 C701 1.409 . S
C699 H691 0.930 . S
C699 C700 1.355 . S
C699 C701 1.415 . S
C700 C699 1.355 . S
C700 C702 1.419 . S
C701 C696 1.425 . S
C701 C698 1.409 . S
C701 C699 1.415 . S
C702 H692 0.930 . S
C702 C700 1.419 . S
C702 C703 1.362 . S
C703 H693 0.930 . S
C703 C696 1.409 . S
C703 C702 1.362 . S
H704 C710 0.930 . S
H705 C713 0.930 . S
H706 C714 0.930 . S
H707 C715 0.930 . S
H708 C718 0.930 . S
H709 C719 0.930 . S
C710 H704 0.930 . S
C710 C711 1.355 . S
C710 C712 1.415 . S
C711 C710 1.355 . S
C711 C713 1.419 . S
C712 C710 1.415 . S
C712 C717 1.425 . S
C712 C719 1.409 . S
C713 H705 0.930 . S
C713 C711 1.419 . S
C713 C714 1.362 . S
C714 H706 0.930 . S
C714 C713 1.362 . S
C714 C717 1.409 . S
C715 H707 0.930 . S
C715 C716 1.355 . S
C715 C717 1.415 . S
C716 C715 1.355 . S
C716 C718 1.419 . S
C717 C712 1.425 . S
C717 C714 1.409 . S
C717 C715 1.415 . S
C718 H708 0.930 . S
C718 C716 1.419 . S
C718 C719 1.362 . S
C719 H709 0.930 . S
C719 C712 1.409 . S
C719 C718 1.362 . S
H720 C726 0.930 . S
H721 C729 0.930 . S
H722 C730 0.930 . S
H723 C731 0.930 . S
H724 C734 0.930 . S
H725 C735 0.930 . S
C726 H720 0.930 . S
C726 C727 1.355 . S
C726 C728 1.415 . S
C727 C726 1.355 . S
C727 C729 1.419 . S
C728 C726 1.415 . S
C728 C733 1.425 . S
C728 C735 1.409 . S
C729 H721 0.930 . S
C729 C727 1.419 . S
C729 C730 1.362 . S
C730 H722 0.930 . S
C730 C729 1.362 . S
C730 C733 1.409 . S
C731 H723 0.930 . S
C731 C732 1.355 . S
C731 C733 1.415 . S
C732 C731 1.355 . S
C732 C734 1.419 . S
C733 C728 1.425 . S
C733 C730 1.409 . S
C733 C731 1.415 . S
C734 H724 0.930 . S
C734 C732 1.419 . S
C734 C735 1.362 . S
C735 H725 0.930 . S
C735 C728 1.409 . S
C735 C734 1.362 . S
H736 C742 0.930 . S
H737 C745 0.930 . S
H738 C746 0.930 . S
H739 C747 0.930 . S
H740 C750 0.930 . S
H741 C751 0.930 . S
C742 H736 0.930 . S
C742 C743 1.355 . S
C742 C744 1.415 . S
C743 C742 1.355 . S
C743 C745 1.419 . S
C744 C742 1.415 . S
C744 C749 1.425 . S
C744 C751 1.409 . S
C745 H737 0.930 . S
C745 C743 1.419 . S
C745 C746 1.362 . S
C746 H738 0.930 . S
C746 C745 1.362 . S
C746 C749 1.409 . S
C747 H739 0.930 . S
C747 C748 1.355 . S
C747 C749 1.415 . S
C748 C747 1.355 . S
C748 C750 1.419 . S
C749 C744 1.425 . S
C749 C746 1.409 . S
C749 C747 1.415 . S
C750 H740 0.930 . S
C750 C748 1.419 . S
C750 C751 1.362 . S
C751 H741 0.930 . S
C751 C744 1.409 . S
C751 C750 1.362 . S
H752 C758 0.930 . S
H753 C761 0.930 . S
H754 C762 0.930 . S
H755 C763 0.930 . S
H756 C766 0.930 . S
H757 C767 0.930 . S
C758 H752 0.930 . S
C758 C759 1.355 . S
C758 C760 1.415 . S
C759 C758 1.355 . S
C759 C761 1.419 . S
C760 C758 1.415 . S
C760 C765 1.425 . S
C760 C767 1.409 . S
C761 H753 0.930 . S
C761 C759 1.419 . S
C761 C762 1.362 . S
C762 H754 0.930 . S
C762 C761 1.362 . S
C762 C765 1.409 . S
C763 H755 0.930 . S
C763 C764 1.355 . S
C763 C765 1.415 . S
C764 C763 1.355 . S
C764 C766 1.419 . S
C765 C760 1.425 . S
C765 C762 1.409 . S
C765 C763 1.415 . S
C766 H756 0.930 . S
C766 C764 1.419 . S
C766 C767 1.362 . S
C767 H757 0.930 . S
C767 C760 1.409 . S
C767 C766 1.362 . S
H768 C774 0.930 . S
H769 C777 0.930 . S
H770 C778 0.930 . S
H771 C779 0.930 . S
H772 C782 0.930 . S
H773 C783 0.930 . S
C774 H768 0.930 . S
C774 C775 1.355 . S
C774 C776 1.415 . S
C775 C774 1.355 . S
C775 C777 1.419 . S
C776 C774 1.415 . S
C776 C781 1.425 . S
C776 C783 1.409 . S
C777 H769 0.930 . S
C777 C775 1.419 . S
C777 C778 1.362 . S
C778 H770 0.930 . S
C778 C777 1.362 . S
C778 C781 1.409 . S
C779 H771 0.930 . S
C779 C780 1.355 . S
C779 C781 1.415 . S
C780 C779 1.355 . S
C780 C782 1.419 . S
C781 C776 1.425 . S
C781 C778 1.409 . S
C781 C779 1.415 . S
C782 H772 0.930 . S
C782 C780 1.419 . S
C782 C783 1.362 . S
C783 H773 0.930 . S
C783 C776 1.409 . S
C783 C782 1.362 . S
H784 C790 0.930 . S
H785 C793 0.930 . S
H786 C794 0.930 . S
H787 C795 0.930 . S
H788 C798 0.930 . S
H789 C799 0.930 . S
C790 H784 0.930 . S
C790 C791 1.355 . S
C790 C792 1.415 . S
C791 C790 1.355 . S
C791 C793 1.419 . S
C792 C790 1.415 . S
C792 C797 1.425 1_556 S
C792 C799 1.409 1_556 S
C793 H785 0.930 . S
C793 C791 1.419 . S
C793 C794 1.362 . S
C794 H786 0.930 . S
C794 C793 1.362 . S
C794 C797 1.409 1_556 S
C795 H787 0.930 . S
C795 C796 1.355 . S
C795 C797 1.415 . S
C796 C795 1.355 . S
C796 C798 1.419 . S
C797 C792 1.425 1_554 S
C797 C794 1.409 1_554 S
C797 C795 1.415 . S
C798 H788 0.930 . S
C798 C796 1.419 . S
C798 C799 1.362 . S
C799 H789 0.930 . S
C799 C792 1.409 1_554 S
C799 C798 1.362 . S
H800 C806 0.930 . S
H801 C809 0.930 . S
H802 C810 0.930 . S
H803 C811 0.930 . S
H804 C814 0.930 . S
H805 C815 0.930 . S
C806 H800 0.930 . S
C806 C807 1.355 1_545 S
C806 C808 1.415 . S
C807 C806 1.355 1_565 S
C807 C809 1.419 . S
C808 C806 1.415 . S
C808 C813 1.425 . S
C808 C815 1.409 . S
C809 H801 0.930 . S
C809 C807 1.419 . S
C809 C810 1.362 . S
C810 H802 0.930 . S
C810 C809 1.362 . S
C810 C813 1.409 1_565 S
C811 H803 0.930 . S
C811 C812 1.355 . S
C811 C813 1.415 . S
C812 C811 1.355 . S
C812 C814 1.419 . S
C813 C808 1.425 . S
C813 C810 1.409 1_545 S
C813 C811 1.415 . S
C814 H804 0.930 . S
C814 C812 1.419 . S
C814 C815 1.362 . S
C815 H805 0.930 . S
C815 C808 1.409 . S
C815 C814 1.362 . S
H816 C822 0.930 . S
H817 C825 0.930 . S
H818 C826 0.930 . S
H819 C827 0.930 . S
H820 C830 0.930 . S
H821 C831 0.930 . S
C822 H816 0.930 . S
C822 C823 1.355 1_545 S
C822 C824 1.415 . S
C823 C822 1.355 1_565 S
C823 C825 1.419 . S
C824 C822 1.415 . S
C824 C829 1.425 . S
C824 C831 1.409 . S
C825 H817 0.930 . S
C825 C823 1.419 . S
C825 C826 1.362 . S
C826 H818 0.930 . S
C826 C825 1.362 . S
C826 C829 1.409 1_565 S
C827 H819 0.930 . S
C827 C828 1.355 . S
C827 C829 1.415 . S
C828 C827 1.355 . S
C828 C830 1.419 . S
C829 C824 1.425 . S
C829 C826 1.409 1_545 S
C829 C827 1.415 . S
C830 H820 0.930 . S
C830 C828 1.419 . S
C830 C831 1.362 . S
C831 H821 0.930 . S
C831 C824 1.409 . S
C831 C830 1.362 . S
H832 C838 0.930 . S
H833 C841 0.930 . S
H834 C842 0.930 . S
H835 C843 0.930 . S
H836 C846 0.930 . S
H837 C847 0.930 . S
C838 H832 0.930 . S
C838 C839 1.355 . S
C838 C840 1.415 . S
C839 C838 1.355 . S
C839 C841 1.419 . S
C840 C838 1.415 . S
C840 C845 1.425 . S
C840 C847 1.409 . S
C841 H833 0.930 . S
C841 C839 1.419 . S
C841 C842 1.362 . S
C842 H834 0.930 . S
C842 C841 1.362 . S
C842 C845 1.409 . S
C843 H835 0.930 . S
C843 C844 1.355 . S
C843 C845 1.415 . S
C844 C843 1.355 . S
C844 C846 1.419 . S
C845 C840 1.425 . S
C845 C842 1.409 . S
C845 C843 1.415 . S
C846 H836 0.930 . S
C846 C844 1.419 . S
C846 C847 1.362 . S
C847 H837 0.930 . S
C847 C840 1.409 . S
C847 C846 1.362 . S
H848 C854 0.930 . S
H849 C857 0.930 . S
H850 C858 0.930 . S
H851 C859 0.930 . S
H852 C862 0.930 . S
H853 C863 0.930 . S
C854 H848 0.930 . S
C854 C855 1.355 . S
C854 C856 1.415 . S
C855 C854 1.355 . S
C855 C857 1.419 . S
C856 C854 1.415 . S
C856 C861 1.425 . S
C856 C863 1.409 . S
C857 H849 0.930 . S
C857 C855 1.419 . S
C857 C858 1.362 . S
C858 H850 0.930 . S
C858 C857 1.362 . S
C858 C861 1.409 . S
C859 H851 0.930 . S
C859 C860 1.355 . S
C859 C861 1.415 . S
C860 C859 1.355 . S
C860 C862 1.419 . S
C861 C856 1.425 . S
C861 C858 1.409 . S
C861 C859 1.415 . S
C862 H852 0.930 . S
C862 C860 1.419 . S
C862 C863 1.362 . S
C863 H853 0.930 . S
C863 C856 1.409 . S
C863 C862 1.362 . S
H864 C870 0.930 . S
H865 C873 0.930 . S
H866 C874 0.930 . S
H867 C875 0.930 . S
H868 C878 0.930 . S
H869 C879 0.930 . S
C870 H864 0.930 . S
C870 C871 1.355 . S
C870 C872 1.415 . S
C871 C870 1.355 . S
C871 C873 1.419 . S
C872 C870 1.415 . S
C872 C877 1.425 . S
C872 C879 1.409 . S
C873 H865 0.930 . S
C873 C871 1.419 . S
C873 C874 1.362 . S
C874 H866 0.930 . S
C874 C873 1.362 . S
C874 C877 1.409 . S
C875 H867 0.930 . S
C875 C876 1.355 . S
C875 C877 1.415 . S
C876 C875 1.355 . S
C876 C878 1.419 . S
C877 C872 1.425 . S
C877 C874 1.409 . S
C877 C875 1.415 . S
C878 H868 0.930 . S
C878 C876 1.419 . S
C878 C879 1.362 . S
C879 H869 0.930 . S
C879 C872 1.409 . S
C879 C878 1.362 . S
H880 C886 0.930 . S
H881 C889 0.930 . S
H882 C890 0.930 . S
H883 C891 0.930 . S
H884 C894 0.930 . S
H885 C895 0.930 . S
C886 H880 0.930 . S
C886 C887 1.355 . S
C886 C888 1.415 . S
C887 C886 1.355 . S
C887 C889 1.419 . S
C888 C886 1.415 . S
C888 C893 1.425 . S
C888 C895 1.409 . S
C889 H881 0.930 . S
C889 C887 1.419 . S
C889 C890 1.362 . S
C890 H882 0.930 . S
C890 C889 1.362 . S
C890 C893 1.409 . S
C891 H883 0.930 . S
C891 C892 1.355 . S
C891 C893 1.415 . S
C892 C891 1.355 . S
C892 C894 1.419 . S
C893 C888 1.425 . S
C893 C890 1.409 . S
C893 C891 1.415 . S
C894 H884 0.930 . S
C894 C892 1.419 . S
C894 C895 1.362 . S
C895 H885 0.930 . S
C895 C888 1.409 . S
C895 C894 1.362 . S
H896 C902 0.930 . S
H897 C905 0.930 . S
H898 C906 0.930 . S
H899 C907 0.930 . S
H900 C910 0.930 . S
H901 C911 0.930 1_565 S
C902 H896 0.930 . S
C902 C903 1.355 . S
C902 C904 1.415 1_565 S
C903 C902 1.355 . S
C903 C905 1.419 1_565 S
C904 C902 1.415 1_545 S
C904 C909 1.425 . S
C904 C911 1.409 . S
C905 H897 0.930 . S
C905 C903 1.419 1_545 S
C905 C906 1.362 . S
C906 H898 0.930 . S
C906 C905 1.362 . S
C906 C909 1.409 . S
C907 H899 0.930 . S
C907 C908 1.355 . S
C907 C909 1.415 . S
C908 C907 1.355 . S
C908 C910 1.419 . S
C909 C904 1.425 . S
C909 C906 1.409 . S
C909 C907 1.415 . S
C910 H900 0.930 . S
C910 C908 1.419 . S
C910 C911 1.362 . S
C911 H901 0.930 1_545 S
C911 C904 1.409 . S
C911 C910 1.362 . S
H912 C918 0.930 . S
H913 C921 0.930 . S
H914 C922 0.930 . S
H915 C923 0.930 . S
H916 C926 0.930 . S
H917 C927 0.930 1_565 S
C918 H912 0.930 . S
C918 C919 1.355 . S
C918 C920 1.415 1_565 S
C919 C918 1.355 . S
C919 C921 1.419 1_565 S
C920 C918 1.415 1_545 S
C920 C925 1.425 . S
C920 C927 1.409 . S
C921 H913 0.930 . S
C921 C919 1.419 1_545 S
C921 C922 1.362 . S
C922 H914 0.930 . S
C922 C921 1.362 . S
C922 C925 1.409 . S
C923 H915 0.930 . S
C923 C924 1.355 . S
C923 C925 1.415 . S
C924 C923 1.355 . S
C924 C926 1.419 . S
C925 C920 1.425 . S
C925 C922 1.409 . S
C925 C923 1.415 . S
C926 H916 0.930 . S
C926 C924 1.419 . S
C926 C927 1.362 . S
C927 H917 0.930 1_545 S
C927 C920 1.409 . S
C927 C926 1.362 . S
H928 C934 0.930 . S
H929 C937 0.930 . S
H930 C938 0.930 . S
H931 C939 0.930 . S
H932 C942 0.930 . S
H933 C943 0.930 . S
C934 H928 0.930 . S
C934 C935 1.355 . S
C934 C936 1.415 . S
C935 C934 1.355 . S
C935 C937 1.419 . S
C936 C934 1.415 . S
C936 C941 1.425 . S
C936 C943 1.409 . S
C937 H929 0.930 . S
C937 C935 1.419 . S
C937 C938 1.362 . S
C938 H930 0.930 . S
C938 C937 1.362 . S
C938 C941 1.409 . S
C939 H931 0.930 . S
C939 C940 1.355 . S
C939 C941 1.415 . S
C940 C939 1.355 . S
C940 C942 1.419 . S
C941 C936 1.425 . S
C941 C938 1.409 . S
C941 C939 1.415 . S
C942 H932 0.930 . S
C942 C940 1.419 . S
C942 C943 1.362 . S
C943 H933 0.930 . S
C943 C936 1.409 . S
C943 C942 1.362 . S
H944 C950 0.930 . S
H945 C953 0.930 . S
H946 C954 0.930 . S
H947 C955 0.930 . S
H948 C958 0.930 . S
H949 C959 0.930 . S
C950 H944 0.930 . S
C950 C951 1.355 . S
C950 C952 1.415 . S
C951 C950 1.355 . S
C951 C953 1.419 . S
C952 C950 1.415 . S
C952 C957 1.425 . S
C952 C959 1.409 . S
C953 H945 0.930 . S
C953 C951 1.419 . S
C953 C954 1.362 . S
C954 H946 0.930 . S
C954 C953 1.362 . S
C954 C957 1.409 . S
C955 H947 0.930 . S
C955 C956 1.355 . S
C955 C957 1.415 . S
C956 C955 1.355 . S
C956 C958 1.419 . S
C957 C952 1.425 . S
C957 C954 1.409 . S
C957 C955 1.415 . S
C958 H948 0.930 . S
C958 C956 1.419 . S
C958 C959 1.362 . S
C959 H949 0.930 . S
C959 C952 1.409 . S
C959 C958 1.362 . S
H960 C966 0.930 . S
H961 C969 0.930 . S
H962 C970 0.930 . S
H963 C971 0.930 . S
H964 C974 0.930 . S
H965 C975 0.930 . S
C966 H960 0.930 . S
C966 C967 1.355 . S
C966 C968 1.415 . S
C967 C966 1.355 . S
C967 C969 1.419 . S
C968 C966 1.415 . S
C968 C973 1.425 . S
C968 C975 1.409 . S
C969 H961 0.930 . S
C969 C967 1.419 . S
C969 C970 1.362 . S
C970 H962 0.930 . S
C970 C969 1.362 . S
C970 C973 1.409 . S
C971 H963 0.930 . S
C971 C972 1.355 . S
C971 C973 1.415 . S
C972 C971 1.355 . S
C972 C974 1.419 . S
C973 C968 1.425 . S
C973 C970 1.409 . S
C973 C971 1.415 . S
C974 H964 0.930 . S
C974 C972 1.419 . S
C974 C975 1.362 . S
C975 H965 0.930 . S
C975 C968 1.409 . S
C975 C974 1.362 . S
H976 C982 0.930 . S
H977 C985 0.930 . S
H978 C986 0.930 . S
H979 C987 0.930 . S
H980 C990 0.930 . S
H981 C991 0.930 . S
C982 H976 0.930 . S
C982 C983 1.355 . S
C982 C984 1.415 . S
C983 C982 1.355 . S
C983 C985 1.419 . S
C984 C982 1.415 . S
C984 C989 1.425 . S
C984 C991 1.409 . S
C985 H977 0.930 . S
C985 C983 1.419 . S
C985 C986 1.362 . S
C986 H978 0.930 . S
C986 C985 1.362 . S
C986 C989 1.409 . S
C987 H979 0.930 . S
C987 C988 1.355 . S
C987 C989 1.415 . S
C988 C987 1.355 . S
C988 C990 1.419 . S
C989 C984 1.425 . S
C989 C986 1.409 . S
C989 C987 1.415 . S
C990 H980 0.930 . S
C990 C988 1.419 . S
C990 C991 1.362 . S
C991 H981 0.930 . S
C991 C984 1.409 . S
C991 C990 1.362 . S
H992 C998 0.930 . S
H993 C1001 0.930 . S
H994 C1002 0.930 . S
H995 C1003 0.930 . S
H996 C1006 0.930 . S
H997 C1007 0.930 . S
C998 H992 0.930 . S
C998 C999 1.355 . S
C998 C1000 1.415 . S
C999 C998 1.355 . S
C999 C1001 1.419 . S
C1000 C998 1.415 . S
C1000 C1005 1.425 . S
C1000 C1007 1.409 . S
C1001 H993 0.930 . S
C1001 C999 1.419 . S
C1001 C1002 1.362 . S
C1002 H994 0.930 . S
C1002 C1001 1.362 . S
C1002 C1005 1.409 . S
C1003 H995 0.930 . S
C1003 C1004 1.355 . S
C1003 C1005 1.415 . S
C1004 C1003 1.355 . S
C1004 C1006 1.419 . S
C1005 C1000 1.425 . S
C1005 C1002 1.409 . S
C1005 C1003 1.415 . S
C1006 H996 0.930 . S
C1006 C1004 1.419 . S
C1006 C1007 1.362 . S
C1007 H997 0.930 . S
C1007 C1000 1.409 . S
C1007 C1006 1.362 . S
H1008 C1014 0.930 . S
H1009 C1017 0.930 . S
H1010 C1018 0.930 . S
H1011 C1019 0.930 . S
H1012 C1022 0.930 . S
H1013 C1023 0.930 . S
C1014 H1008 0.930 . S
C1014 C1015 1.355 . S
C1014 C1016 1.415 . S
C1015 C1014 1.355 . S
C1015 C1017 1.419 . S
C1016 C1014 1.415 . S
C1016 C1021 1.425 . S
C1016 C1023 1.409 . S
C1017 H1009 0.930 . S
C1017 C1015 1.419 . S
C1017 C1018 1.362 . S
C1018 H1010 0.930 . S
C1018 C1017 1.362 . S
C1018 C1021 1.409 . S
C1019 H1011 0.930 . S
C1019 C1020 1.355 . S
C1019 C1021 1.415 . S
C1020 C1019 1.355 . S
C1020 C1022 1.419 . S
C1021 C1016 1.425 . S
C1021 C1018 1.409 . S
C1021 C1019 1.415 . S
C1022 H1012 0.930 . S
C1022 C1020 1.419 . S
C1022 C1023 1.362 . S
C1023 H1013 0.930 . S
C1023 C1016 1.409 . S
C1023 C1022 1.362 . S
H1024 C1030 0.930 . S
H1025 C1033 0.930 . S
H1026 C1034 0.930 . S
H1027 C1035 0.930 . S
H1028 C1038 0.930 . S
H1029 C1039 0.930 . S
C1030 H1024 0.930 . S
C1030 C1031 1.355 . S
C1030 C1032 1.415 . S
C1031 C1030 1.355 . S
C1031 C1033 1.419 . S
C1032 C1030 1.415 . S
C1032 C1037 1.425 . S
C1032 C1039 1.409 . S
C1033 H1025 0.930 . S
C1033 C1031 1.419 . S
C1033 C1034 1.362 . S
C1034 H1026 0.930 . S
C1034 C1033 1.362 . S
C1034 C1037 1.409 . S
C1035 H1027 0.930 . S
C1035 C1036 1.355 . S
C1035 C1037 1.415 . S
C1036 C1035 1.355 . S
C1036 C1038 1.419 . S
C1037 C1032 1.425 . S
C1037 C1034 1.409 . S
C1037 C1035 1.415 . S
C1038 H1028 0.930 . S
C1038 C1036 1.419 . S
C1038 C1039 1.362 . S
C1039 H1029 0.930 . S
C1039 C1032 1.409 . S
C1039 C1038 1.362 . S
H1040 C1046 0.930 . S
H1041 C1049 0.930 . S
H1042 C1050 0.930 . S
H1043 C1051 0.930 . S
H1044 C1054 0.930 . S
H1045 C1055 0.930 . S
C1046 H1040 0.930 . S
C1046 C1047 1.355 . S
C1046 C1048 1.415 . S
C1047 C1046 1.355 . S
C1047 C1049 1.419 . S
C1048 C1046 1.415 . S
C1048 C1053 1.425 . S
C1048 C1055 1.409 . S
C1049 H1041 0.930 . S
C1049 C1047 1.419 . S
C1049 C1050 1.362 . S
C1050 H1042 0.930 . S
C1050 C1049 1.362 . S
C1050 C1053 1.409 . S
C1051 H1043 0.930 . S
C1051 C1052 1.355 . S
C1051 C1053 1.415 . S
C1052 C1051 1.355 . S
C1052 C1054 1.419 . S
C1053 C1048 1.425 . S
C1053 C1050 1.409 . S
C1053 C1051 1.415 . S
C1054 H1044 0.930 . S
C1054 C1052 1.419 . S
C1054 C1055 1.362 . S
C1055 H1045 0.930 . S
C1055 C1048 1.409 . S
C1055 C1054 1.362 . S
H1056 C1062 0.930 . S
H1057 C1065 0.930 . S
H1058 C1066 0.930 . S
H1059 C1067 0.930 . S
H1060 C1070 0.930 . S
H1061 C1071 0.930 . S
C1062 H1056 0.930 . S
C1062 C1063 1.355 . S
C1062 C1064 1.415 . S
C1063 C1062 1.355 . S
C1063 C1065 1.419 1_655 S
C1064 C1062 1.415 . S
C1064 C1069 1.425 1_655 S
C1064 C1071 1.409 . S
C1065 H1057 0.930 . S
C1065 C1063 1.419 1_455 S
C1065 C1066 1.362 . S
C1066 H1058 0.930 . S
C1066 C1065 1.362 . S
C1066 C1069 1.409 . S
C1067 H1059 0.930 . S
C1067 C1068 1.355 . S
C1067 C1069 1.415 . S
C1068 C1067 1.355 . S
C1068 C1070 1.419 1_455 S
C1069 C1064 1.425 1_455 S
C1069 C1066 1.409 . S
C1069 C1067 1.415 . S
C1070 H1060 0.930 . S
C1070 C1068 1.419 1_655 S
C1070 C1071 1.362 . S
C1071 H1061 0.930 . S
C1071 C1064 1.409 . S
C1071 C1070 1.362 . S
H1072 C1078 0.930 . S
H1073 C1081 0.930 . S
H1074 C1082 0.930 . S
H1075 C1083 0.930 . S
H1076 C1086 0.930 . S
H1077 C1087 0.930 . S
C1078 H1072 0.930 . S
C1078 C1079 1.355 . S
C1078 C1080 1.415 . S
C1079 C1078 1.355 . S
C1079 C1081 1.419 . S
C1080 C1078 1.415 . S
C1080 C1085 1.425 . S
C1080 C1087 1.409 . S
C1081 H1073 0.930 . S
C1081 C1079 1.419 . S
C1081 C1082 1.362 . S
C1082 H1074 0.930 . S
C1082 C1081 1.362 . S
C1082 C1085 1.409 . S
C1083 H1075 0.930 . S
C1083 C1084 1.355 . S
C1083 C1085 1.415 . S
C1084 C1083 1.355 . S
C1084 C1086 1.419 . S
C1085 C1080 1.425 . S
C1085 C1082 1.409 . S
C1085 C1083 1.415 . S
C1086 H1076 0.930 . S
C1086 C1084 1.419 . S
C1086 C1087 1.362 . S
C1087 H1077 0.930 . S
C1087 C1080 1.409 . S
C1087 C1086 1.362 . S
H1088 C1094 0.930 . S
H1089 C1097 0.930 . S
H1090 C1098 0.930 . S
H1091 C1099 0.930 . S
H1092 C1102 0.930 . S
H1093 C1103 0.930 . S
C1094 H1088 0.930 . S
C1094 C1095 1.355 . S
C1094 C1096 1.415 . S
C1095 C1094 1.355 . S
C1095 C1097 1.419 . S
C1096 C1094 1.415 . S
C1096 C1101 1.425 . S
C1096 C1103 1.409 . S
C1097 H1089 0.930 . S
C1097 C1095 1.419 . S
C1097 C1098 1.362 . S
C1098 H1090 0.930 . S
C1098 C1097 1.362 . S
C1098 C1101 1.409 . S
C1099 H1091 0.930 . S
C1099 C1100 1.355 . S
C1099 C1101 1.415 . S
C1100 C1099 1.355 . S
C1100 C1102 1.419 . S
C1101 C1096 1.425 . S
C1101 C1098 1.409 . S
C1101 C1099 1.415 . S
C1102 H1092 0.930 . S
C1102 C1100 1.419 . S
C1102 C1103 1.362 . S
C1103 H1093 0.930 . S
C1103 C1096 1.409 . S
C1103 C1102 1.362 . S
H1104 C1110 0.930 . S
H1105 C1113 0.930 . S
H1106 C1114 0.930 . S
H1107 C1115 0.930 . S
H1108 C1118 0.930 . S
H1109 C1119 0.930 1_455 S
C1110 H1104 0.930 . S
C1110 C1111 1.355 . S
C1110 C1112 1.415 . S
C1111 C1110 1.355 . S
C1111 C1113 1.419 . S
C1112 C1110 1.415 . S
C1112 C1117 1.425 1_455 S
C1112 C1119 1.409 1_455 S
C1113 H1105 0.930 . S
C1113 C1111 1.419 . S
C1113 C1114 1.362 . S
C1114 H1106 0.930 . S
C1114 C1113 1.362 . S
C1114 C1117 1.409 1_455 S
C1115 H1107 0.930 . S
C1115 C1116 1.355 . S
C1115 C1117 1.415 . S
C1116 C1115 1.355 . S
C1116 C1118 1.419 . S
C1117 C1112 1.425 1_655 S
C1117 C1114 1.409 1_655 S
C1117 C1115 1.415 . S
C1118 H1108 0.930 . S
C1118 C1116 1.419 . S
C1118 C1119 1.362 . S
C1119 H1109 0.930 1_655 S
C1119 C1112 1.409 1_655 S
C1119 C1118 1.362 . S
H1120 C1126 0.930 1_455 S
H1121 C1129 0.930 . S
H1122 C1130 0.930 . S
H1123 C1131 0.930 . S
H1124 C1134 0.930 . S
H1125 C1135 0.930 . S
C1126 H1120 0.930 1_655 S
C1126 C1127 1.355 . S
C1126 C1128 1.415 1_655 S
C1127 C1126 1.355 . S
C1127 C1129 1.419 . S
C1128 C1126 1.415 1_455 S
C1128 C1133 1.425 . S
C1128 C1135 1.409 . S
C1129 H1121 0.930 . S
C1129 C1127 1.419 . S
C1129 C1130 1.362 . S
C1130 H1122 0.930 . S
C1130 C1129 1.362 . S
C1130 C1133 1.409 1_655 S
C1131 H1123 0.930 . S
C1131 C1132 1.355 . S
C1131 C1133 1.415 . S
C1132 C1131 1.355 . S
C1132 C1134 1.419 . S
C1133 C1128 1.425 . S
C1133 C1130 1.409 1_455 S
C1133 C1131 1.415 . S
C1134 H1124 0.930 . S
C1134 C1132 1.419 . S
C1134 C1135 1.362 . S
C1135 H1125 0.930 . S
C1135 C1128 1.409 . S
C1135 C1134 1.362 . S
H1136 C1142 0.930 . S
H1137 C1145 0.930 . S
H1138 C1146 0.930 . S
H1139 C1147 0.930 . S
H1140 C1150 0.930 . S
H1141 C1151 0.929 1_455 S
C1142 H1136 0.930 . S
C1142 C1143 1.355 . S
C1142 C1144 1.415 . S
C1143 C1142 1.355 . S
C1143 C1145 1.419 . S
C1144 C1142 1.415 . S
C1144 C1149 1.425 1_455 S
C1144 C1151 1.409 1_455 S
C1145 H1137 0.930 . S
C1145 C1143 1.419 . S
C1145 C1146 1.362 . S
C1146 H1138 0.930 . S
C1146 C1145 1.362 . S
C1146 C1149 1.409 1_455 S
C1147 H1139 0.930 . S
C1147 C1148 1.355 . S
C1147 C1149 1.415 . S
C1148 C1147 1.355 . S
C1148 C1150 1.419 . S
C1149 C1144 1.425 1_655 S
C1149 C1146 1.409 1_655 S
C1149 C1147 1.415 . S
C1150 H1140 0.930 . S
C1150 C1148 1.419 . S
C1150 C1151 1.362 . S
C1151 H1141 0.929 1_655 S
C1151 C1144 1.409 1_655 S
C1151 C1150 1.362 . S
H1152 C1158 0.930 . S
H1153 C1161 0.930 . S
H1154 C1162 0.930 . S
H1155 C1163 0.930 . S
H1156 C1166 0.930 . S
H1157 C1167 0.930 . S
C1158 H1152 0.930 . S
C1158 C1159 1.355 . S
C1158 C1160 1.415 . S
C1159 C1158 1.355 . S
C1159 C1161 1.419 . S
C1160 C1158 1.415 . S
C1160 C1165 1.425 . S
C1160 C1167 1.409 . S
C1161 H1153 0.930 . S
C1161 C1159 1.419 . S
C1161 C1162 1.362 . S
C1162 H1154 0.930 . S
C1162 C1161 1.362 . S
C1162 C1165 1.409 . S
C1163 H1155 0.930 . S
C1163 C1164 1.355 . S
C1163 C1165 1.415 . S
C1164 C1163 1.355 . S
C1164 C1166 1.419 . S
C1165 C1160 1.425 . S
C1165 C1162 1.409 . S
C1165 C1163 1.415 . S
C1166 H1156 0.930 . S
C1166 C1164 1.419 . S
C1166 C1167 1.362 . S
C1167 H1157 0.930 . S
C1167 C1160 1.409 . S
C1167 C1166 1.362 . S
H1168 C1174 0.930 . S
H1169 C1177 0.930 . S
H1170 C1178 0.930 . S
H1171 C1179 0.930 . S
H1172 C1182 0.930 . S
H1173 C1183 0.930 . S
C1174 H1168 0.930 . S
C1174 C1175 1.355 . S
C1174 C1176 1.415 . S
C1175 C1174 1.355 . S
C1175 C1177 1.419 . S
C1176 C1174 1.415 . S
C1176 C1181 1.425 . S
C1176 C1183 1.409 . S
C1177 H1169 0.930 . S
C1177 C1175 1.419 . S
C1177 C1178 1.362 . S
C1178 H1170 0.930 . S
C1178 C1177 1.362 . S
C1178 C1181 1.409 . S
C1179 H1171 0.930 . S
C1179 C1180 1.355 . S
C1179 C1181 1.415 . S
C1180 C1179 1.355 . S
C1180 C1182 1.419 . S
C1181 C1176 1.425 . S
C1181 C1178 1.409 . S
C1181 C1179 1.415 . S
C1182 H1172 0.930 . S
C1182 C1180 1.419 . S
C1182 C1183 1.362 . S
C1183 H1173 0.930 . S
C1183 C1176 1.409 . S
C1183 C1182 1.362 . S
C551 C451 1.118 . S
C556 C9 1.121 . S
C567 C43 1.091 . S
C572 C383 1.091 . S
C583 C77 1.169 1_565 S
C588 C417 1.166 . S
C599 C111 1.121 . S
C604 C349 1.118 . S
C615 C519 1.090 . S
C620 C145 1.090 1_565 S
C631 C179 1.223 . S
C636 C315 1.225 . S
C647 C213 1.091 . S
C652 C485 1.091 . S
C663 C281 1.134 . S
C668 C247 1.131 . S
C679 C20 1.607 . S
C684 C156 1.611 . S
C695 C54 1.603 . S
C700 C190 1.619 . S
C711 C88 1.637 . S
C716 C224 1.634 . S
C727 C258 1.603 . S
C732 C122 1.620 . S
C743 C360 1.620 . S
C748 C292 1.603 . S
C759 C326 1.636 . S
C764 C394 1.610 . S
C775 C496 1.604 . S
C780 C428 1.619 . S
C791 C530 1.640 . S
C796 C462 1.630 . S
C807 C203 1.141 . S
C812 C33 1.193 . S
C823 C67 1.133 . S
C828 C237 1.199 . S
C839 C101 1.151 . S
C844 C271 1.176 . S
C855 C169 1.134 . S
C860 C135 1.198 . S
C871 C138 1.446 . S
C876 C342 1.434 . S
C887 C70 1.501 . S
C892 C274 1.440 . S
C903 C376 1.456 . S
C908 C206 1.429 . S
C919 C308 1.493 . S
C924 C2 1.433 . S
C935 C305 1.194 . S
C940 C441 1.140 . S
C951 C543 1.133 . S
C956 C373 1.196 . S
C967 C475 1.197 . S
C972 C339 1.135 . S
C983 C407 1.198 . S
C988 C509 1.132 . S
C999 C478 1.494 . S
C1004 C36 1.503 . S
C1015 C172 1.500 . S
C1020 C444 1.439 . S
C1031 C512 1.463 . S
C1036 C104 1.511 . S
C1047 C240 1.507 . S
C1052 C410 1.450 . S
C1063 C5 0.460 . S
C1068 C447 0.469 . S
C1079 C39 0.500 . S
C1084 C379 0.535 . S
C1095 C73 0.511 . S
C1100 C413 0.447 . S
C1111 C107 0.536 . S
C1116 C345 0.474 . S
C1127 C141 0.525 . S
C1132 C515 0.455 . S
C1143 C175 0.481 . S
C1148 C311 0.536 . S
C1159 C481 0.495 . S
C1164 C209 0.536 . S
C1175 C277 0.508 . S
C1180 C243 0.530 . S
