# Generated by pormake.
# Topology bcs, (6)-cn, num edge types: 1
# Building blocks:
#     Node 0, Type 0, BuildingBlock: BETDEL_clean_sbu_0, # of connection points: 6
#     Node 1, Type 0, BuildingBlock: BETDEL_clean_sbu_0, # of connection points: 6
#     Node 2, Type 0, BuildingBlock: BETDEL_clean_sbu_0, # of connection points: 6
#     Node 3, Type 0, BuildingBlock: BETDEL_clean_sbu_0, # of connection points: 6
#     Node 4, Type 0, BuildingBlock: BETDEL_clean_sbu_0, # of connection points: 6
#     Node 5, Type 0, BuildingBlock: BETDEL_clean_sbu_0, # of connection points: 6
#     Node 6, Type 0, BuildingBlock: BETDEL_clean_sbu_0, # of connection points: 6
#     Node 7, Type 0, BuildingBlock: BETDEL_clean_sbu_0, # of connection points: 6
#     Node 8, Type 0, BuildingBlock: BETDEL_clean_sbu_0, # of connection points: 6
#     Node 9, Type 0, BuildingBlock: BETDEL_clean_sbu_0, # of connection points: 6
#     Node 10, Type 0, BuildingBlock: BETDEL_clean_sbu_0, # of connection points: 6
#     Node 11, Type 0, BuildingBlock: BETDEL_clean_sbu_0, # of connection points: 6
#     Node 12, Type 0, BuildingBlock: BETDEL_clean_sbu_0, # of connection points: 6
#     Node 13, Type 0, BuildingBlock: BETDEL_clean_sbu_0, # of connection points: 6
#     Node 14, Type 0, BuildingBlock: BETDEL_clean_sbu_0, # of connection points: 6
#     Node 15, Type 0, BuildingBlock: BETDEL_clean_sbu_0, # of connection points: 6
#     Edge 16, Type (0, 0), BuildingBlock: KIFKEQ_clean_linker_1, # of connection points: 2
#     Edge 17, Type (0, 0), BuildingBlock: KIFKEQ_clean_linker_1, # of connection points: 2
#     Edge 18, Type (0, 0), BuildingBlock: KIFKEQ_clean_linker_1, # of connection points: 2
#     Edge 19, Type (0, 0), BuildingBlock: KIFKEQ_clean_linker_1, # of connection points: 2
#     Edge 20, Type (0, 0), BuildingBlock: KIFKEQ_clean_linker_1, # of connection points: 2
#     Edge 21, Type (0, 0), BuildingBlock: KIFKEQ_clean_linker_1, # of connection points: 2
#     Edge 22, Type (0, 0), BuildingBlock: KIFKEQ_clean_linker_1, # of connection points: 2
#     Edge 23, Type (0, 0), BuildingBlock: KIFKEQ_clean_linker_1, # of connection points: 2
#     Edge 24, Type (0, 0), BuildingBlock: KIFKEQ_clean_linker_1, # of connection points: 2
#     Edge 25, Type (0, 0), BuildingBlock: KIFKEQ_clean_linker_1, # of connection points: 2
#     Edge 26, Type (0, 0), BuildingBlock: KIFKEQ_clean_linker_1, # of connection points: 2
#     Edge 27, Type (0, 0), BuildingBlock: KIFKEQ_clean_linker_1, # of connection points: 2
#     Edge 28, Type (0, 0), BuildingBlock: KIFKEQ_clean_linker_1, # of connection points: 2
#     Edge 29, Type (0, 0), BuildingBlock: KIFKEQ_clean_linker_1, # of connection points: 2
#     Edge 30, Type (0, 0), BuildingBlock: KIFKEQ_clean_linker_1, # of connection points: 2
#     Edge 31, Type (0, 0), BuildingBlock: KIFKEQ_clean_linker_1, # of connection points: 2
#     Edge 32, Type (0, 0), BuildingBlock: KIFKEQ_clean_linker_1, # of connection points: 2
#     Edge 33, Type (0, 0), BuildingBlock: KIFKEQ_clean_linker_1, # of connection points: 2
#     Edge 34, Type (0, 0), BuildingBlock: KIFKEQ_clean_linker_1, # of connection points: 2
#     Edge 35, Type (0, 0), BuildingBlock: KIFKEQ_clean_linker_1, # of connection points: 2
#     Edge 36, Type (0, 0), BuildingBlock: KIFKEQ_clean_linker_1, # of connection points: 2
#     Edge 37, Type (0, 0), BuildingBlock: KIFKEQ_clean_linker_1, # of connection points: 2
#     Edge 38, Type (0, 0), BuildingBlock: KIFKEQ_clean_linker_1, # of connection points: 2
#     Edge 39, Type (0, 0), BuildingBlock: KIFKEQ_clean_linker_1, # of connection points: 2
#     Edge 40, Type (0, 0), BuildingBlock: KIFKEQ_clean_linker_1, # of connection points: 2
#     Edge 41, Type (0, 0), BuildingBlock: KIFKEQ_clean_linker_1, # of connection points: 2
#     Edge 42, Type (0, 0), BuildingBlock: KIFKEQ_clean_linker_1, # of connection points: 2
#     Edge 43, Type (0, 0), BuildingBlock: KIFKEQ_clean_linker_1, # of connection points: 2
#     Edge 44, Type (0, 0), BuildingBlock: KIFKEQ_clean_linker_1, # of connection points: 2
#     Edge 45, Type (0, 0), BuildingBlock: KIFKEQ_clean_linker_1, # of connection points: 2
#     Edge 46, Type (0, 0), BuildingBlock: KIFKEQ_clean_linker_1, # of connection points: 2
#     Edge 47, Type (0, 0), BuildingBlock: KIFKEQ_clean_linker_1, # of connection points: 2
#     Edge 48, Type (0, 0), BuildingBlock: KIFKEQ_clean_linker_1, # of connection points: 2
#     Edge 49, Type (0, 0), BuildingBlock: KIFKEQ_clean_linker_1, # of connection points: 2
#     Edge 50, Type (0, 0), BuildingBlock: KIFKEQ_clean_linker_1, # of connection points: 2
#     Edge 51, Type (0, 0), BuildingBlock: KIFKEQ_clean_linker_1, # of connection points: 2
#     Edge 52, Type (0, 0), BuildingBlock: KIFKEQ_clean_linker_1, # of connection points: 2
#     Edge 53, Type (0, 0), BuildingBlock: KIFKEQ_clean_linker_1, # of connection points: 2
#     Edge 54, Type (0, 0), BuildingBlock: KIFKEQ_clean_linker_1, # of connection points: 2
#     Edge 55, Type (0, 0), BuildingBlock: KIFKEQ_clean_linker_1, # of connection points: 2
#     Edge 56, Type (0, 0), BuildingBlock: KIFKEQ_clean_linker_1, # of connection points: 2
#     Edge 57, Type (0, 0), BuildingBlock: KIFKEQ_clean_linker_1, # of connection points: 2
#     Edge 58, Type (0, 0), BuildingBlock: KIFKEQ_clean_linker_1, # of connection points: 2
#     Edge 59, Type (0, 0), BuildingBlock: KIFKEQ_clean_linker_1, # of connection points: 2
#     Edge 60, Type (0, 0), BuildingBlock: KIFKEQ_clean_linker_1, # of connection points: 2
#     Edge 61, Type (0, 0), BuildingBlock: KIFKEQ_clean_linker_1, # of connection points: 2
#     Edge 62, Type (0, 0), BuildingBlock: KIFKEQ_clean_linker_1, # of connection points: 2
#     Edge 63, Type (0, 0), BuildingBlock: KIFKEQ_clean_linker_1, # of connection points: 2
# Relax obj value: 0.150
# Max RMSD: 0.236
# Mean RMSD: 0.194
data_MOF--net-bcs--node1-BETDEL_clean_sbu_0--edge1-KIFKEQ_clean_linker_1
_symmetry_space_group_name_H-M    P1
_symmetry_Int_Tables_number       1
_symmetry_cell_setting            triclinic
loop_
_symmetry_equiv_pos_as_xyz
'x, y, z'
_cell_length_a     36.721257
_cell_length_b     38.152827
_cell_length_c     35.068393
_cell_angle_alpha  91.025267
_cell_angle_beta   93.842352
_cell_angle_gamma 103.74444
loop_
_atom_site_label
_atom_site_type_symbol
_atom_site_fract_x
_atom_site_fract_y
_atom_site_fract_z
_atom_type_partial_charge
Dy0 Dy 0.02453 0.97391 0.96668 0.0
C1 C 0.95092 0.05243 0.06297 0.0
C2 C 0.06598 0.93633 0.92893 0.0
Dy3 Dy 0.99693 0.02306 0.02177 0.0
O4 O 0.03962 0.92261 0.95084 0.0
O5 O 0.06914 0.97086 0.92638 0.0
O6 O 0.9702 0.93234 0.97026 0.0
O7 O 0.99409 0.96597 0.01805 0.0
C8 C 0.96609 0.94192 0.00515 0.0
C9 C 0.05423 0.05652 0.98235 0.0
O10 O 0.03244 -0.00083 0.06283 0.0
O11 O 0.06877 0.98544 0.01603 0.0
O12 O 0.98683 0.0658 0.06182 0.0
O13 O 0.94047 0.02272 0.04238 0.0
O14 O 0.04879 0.06752 0.0163 0.0
O15 O 0.02705 0.03123 0.97033 0.0
O16 O 0.98605 0.99258 0.92407 0.0
O17 O 0.95538 0.01657 0.97033 0.0
C18 C 0.06297 0.98982 0.05254 0.0
C19 C 0.95817 0.0064 0.93442 0.0
Dy20 Dy 0.27714 0.72746 0.24678 0.0
C21 C 0.19976 0.83566 0.20005 0.0
C22 C 0.31429 0.67825 0.27401 0.0
Dy23 Dy 0.23483 0.78576 0.2298 0.0
O24 O 0.28363 0.67063 0.25173 0.0
O25 O 0.32438 0.71272 0.282 0.0
O26 O 0.26914 0.71052 0.18465 0.0
O27 O 0.2275 0.73006 0.2099 0.0
C28 C 0.23726 0.71938 0.17888 0.0
C29 C 0.27523 0.79413 0.29733 0.0
O30 O 0.19064 0.74658 0.25748 0.0
O31 O 0.23191 0.71646 0.28776 0.0
O32 O 0.23332 0.84291 0.21693 0.0
O33 O 0.18531 0.80109 0.19917 0.0
O34 O 0.2439 0.8041 0.29176 0.0
O35 O 0.28432 0.78314 0.2662 0.0
O36 O 0.32174 0.76721 0.22113 0.0
O37 O 0.28049 0.79582 0.18874 0.0
C38 C 0.19844 0.7238 0.28292 0.0
C39 C 0.31434 0.78947 0.19503 0.0
Dy40 Dy 0.49583 0.00469 0.53034 0.0
C41 C 0.54798 0.97105 0.38758 0.0
C42 C 0.46942 0.02536 0.59563 0.0
Dy43 Dy 0.52806 0.99688 0.45384 0.0
O44 O 0.45025 0.00206 0.57012 0.0
O45 O 0.50339 0.03762 0.58559 0.0
O46 O 0.46232 0.94728 0.52321 0.0
O47 O 0.473 0.9792 0.47508 0.0
C48 C 0.45885 0.94805 0.48617 0.0
C49 C 0.56611 0.05357 0.49735 0.0
O50 O 0.48449 0.02642 0.43535 0.0
O51 O 0.47903 0.04879 0.49601 0.0
O52 O 0.56115 0.00359 0.40176 0.0
O53 O 0.5239 0.95271 0.40955 0.0
O54 O 0.56401 0.0533 0.46024 0.0
O55 O 0.55112 0.02275 0.50889 0.0
O56 O 0.53679 0.97271 0.55004 0.0
O57 O 0.54975 0.95603 0.48926 0.0
C58 C 0.47294 0.04897 0.45824 0.0
C59 C 0.55212 0.95318 0.52705 0.0
Dy60 Dy 0.29415 0.22172 0.75194 0.0
C61 C 0.21174 0.32884 0.77656 0.0
C62 C 0.33559 0.17376 0.73629 0.0
Dy63 Dy 0.24873 0.27889 0.75436 0.0
O64 O 0.34933 0.20727 0.74692 0.0
O65 O 0.29909 0.1664 0.73357 0.0
O66 O 0.31151 0.23314 0.81417 0.0
O67 O 0.3029 0.27498 0.77914 0.0
C68 C 0.30928 0.26651 0.81293 0.0
C69 C 0.22941 0.23207 0.69452 0.0
O70 O 0.29971 0.30943 0.72815 0.0
O71 O 0.31423 0.25806 0.70394 0.0
O72 O 0.21493 0.31983 0.74132 0.0
O73 O 0.22926 0.31103 0.79956 0.0
O74 O 0.2261 0.26517 0.69371 0.0
O75 O 0.23906 0.22507 0.72801 0.0
O76 O 0.2471 0.19049 0.78317 0.0
O77 O 0.22072 0.23873 0.79614 0.0
C78 C 0.31776 0.29348 0.70436 0.0
C79 C 0.22331 0.20495 0.80109 0.0
Dy80 Dy 0.04476 0.97932 0.50448 0.0
C81 C 0.93341 0.05747 0.45277 0.0
C82 C 0.09854 0.94846 0.53788 0.0
Dy83 Dy 0.98404 0.02217 0.48493 0.0
O84 O 0.07887 0.93746 0.50594 0.0
O85 O 0.0891 0.97667 0.55158 0.0
O86 O 0.02727 0.94632 0.44992 0.0
O87 O 0.98776 0.96665 0.47808 0.0
C88 C 0.99308 0.95041 0.44829 0.0
C89 C 0.03531 0.04992 0.54178 0.0
O90 O 0.95342 0.98491 0.5273 0.0
O91 O 1.00439 0.96292 0.55073 0.0
O92 O 0.96761 0.07248 0.46559 0.0
O93 O 0.92659 0.02285 0.45745 0.0
O94 O 1.00086 0.05331 0.54066 0.0
O95 O 0.04095 0.03475 0.51142 0.0
O96 O 0.07498 0.01916 0.46424 0.0
O97 O 0.02091 0.03135 0.43497 0.0
C98 C 0.96907 0.96592 0.55217 0.0
C99 C 0.05763 0.03314 0.43602 0.0
Dy100 Dy 0.25938 0.75942 0.76344 0.0
C101 C 0.32638 0.70542 0.63951 0.0
C102 C 0.23206 0.79372 0.81937 0.0
Dy103 Dy 0.29959 0.74145 0.6948 0.0
O104 O 0.21783 0.7608 0.80679 0.0
O105 O 0.26201 0.80777 0.80204 0.0
O106 O 0.2181 0.7059 0.756 0.0
O107 O 0.2412 0.73236 0.70785 0.0
C108 C 0.22089 0.70369 0.71938 0.0
C109 C 0.33816 0.79607 0.74091 0.0
O110 O 0.26483 0.77519 0.66502 0.0
O111 O 0.24995 0.80059 0.7208 0.0
O112 O 0.3396 0.73924 0.64946 0.0
O113 O 0.29797 0.69165 0.65908 0.0
O114 O 0.34188 0.79515 0.70437 0.0
O115 O 0.31724 0.76716 0.75054 0.0
O116 O 0.29299 0.7253 0.79329 0.0
O117 O 0.30693 0.6991 0.73752 0.0
C118 C 0.25103 0.79957 0.68301 0.0
C119 C 0.30519 0.69994 0.77532 0.0
Dy120 Dy 0.53851 0.97925 0.97247 0.0
C121 C 0.44596 0.06474 0.04763 0.0
C122 C 0.57856 0.93963 0.93308 0.0
Dy123 Dy 0.48502 0.02599 0.0055 0.0
O124 O 0.59289 0.96886 0.95377 0.0
O125 O 0.54208 0.93218 0.93348 0.0
O126 O 0.57536 0.99167 0.02681 0.0
O127 O 0.54518 0.02906 0.00692 0.0
C128 C 0.56593 0.02166 0.03417 0.0
C129 C 0.45669 0.98171 0.94524 0.0
O130 O 0.51256 0.06257 0.96151 0.0
O131 O 0.53485 0.01942 0.9277 0.0
O132 O 0.43444 0.03091 0.03683 0.0
O133 O 0.47924 0.07748 0.03569 0.0
O134 O 0.4457 0.01098 0.95237 0.0
O135 O 0.47861 0.9762 0.97225 0.0
O136 O 0.5071 0.94113 0.01233 0.0
O137 O 0.48888 0.98453 0.04962 0.0
C138 C 0.52671 0.0514 0.93098 0.0
C139 C 0.49347 0.95133 0.04362 0.0
Dy140 Dy 0.28691 0.24462 0.27753 0.0
C141 C 0.20397 0.29339 0.15466 0.0
C142 C 0.31973 0.20767 0.33066 0.0
Dy143 Dy 0.23592 0.25533 0.20706 0.0
O144 O 0.33056 0.24227 0.3257 0.0
O145 O 0.29059 0.19392 0.30747 0.0
O146 O 0.32435 0.30031 0.27161 0.0
O147 O 0.29574 0.27091 0.22324 0.0
C148 C 0.31571 0.30121 0.23504 0.0
C149 C 0.20701 0.19873 0.24953 0.0
O150 O 0.27295 0.226 0.17683 0.0
O151 O 0.299 0.20622 0.23226 0.0
O152 O 0.19308 0.25862 0.15853 0.0
O153 O 0.23275 0.30669 0.17846 0.0
O154 O 0.19832 0.1997 0.21295 0.0
O155 O 0.2271 0.22902 0.26127 0.0
O156 O 0.25018 0.27462 0.30777 0.0
O157 O 0.22268 0.29278 0.25227 0.0
C158 C 0.29339 0.20564 0.1943 0.0
C159 C 0.22871 0.29403 0.29017 0.0
Dy160 Dy 0.54674 0.48434 0.0139 0.0
C161 C 0.42196 0.53258 0.93333 0.0
C162 C 0.60482 0.46346 0.05233 0.0
Dy163 Dy 0.4802 0.51514 0.97525 0.0
O164 O 0.59486 0.45725 0.01608 0.0
O165 O 0.58413 0.48269 0.06721 0.0
O166 O 0.514 0.42751 0.00057 0.0
O167 O 0.50422 0.46924 0.96642 0.0
C168 C 0.49244 0.43652 0.97372 0.0
C169 C 0.53394 0.56298 0.01611 0.0
O170 O 0.45101 0.47908 0.01997 0.0
O171 O 0.50416 0.47423 0.05805 0.0
O172 O 0.42848 0.53744 0.97024 0.0
O173 O 0.44634 0.51687 0.91981 0.0
O174 O 0.51195 0.57223 0.98977 0.0
O175 O 0.52245 0.5301 0.0228 0.0
O176 O 0.57618 0.52053 0.96934 0.0
O177 O 0.52301 0.52548 0.93146 0.0
C178 C 0.46708 0.46899 0.05179 0.0
C179 C 0.56006 0.53067 0.93759 0.0
Dy180 Dy 0.71611 0.24853 0.29346 0.0
C181 C 0.7835 0.19508 0.16976 0.0
C182 C 0.68428 0.28029 0.34825 0.0
Dy183 Dy 0.7573 0.23153 0.22481 0.0
O184 O 0.66715 0.25266 0.32654 0.0
O185 O 0.7193 0.2904 0.34057 0.0
O186 O 0.67928 0.19237 0.28839 0.0
O187 O 0.69939 0.2191 0.2391 0.0
C188 C 0.68205 0.18968 0.25181 0.0
C189 C 0.79276 0.29016 0.26633 0.0
O190 O 0.7219 0.26363 0.19472 0.0
O191 O 0.70719 0.28978 0.25022 0.0
O192 O 0.79713 0.22885 0.17968 0.0
O193 O 0.755 0.18155 0.18928 0.0
O194 O 0.79588 0.28672 0.22983 0.0
O195 O 0.77422 0.26113 0.27892 0.0
O196 O 0.75171 0.21618 0.32444 0.0
O197 O 0.77335 0.19519 0.2696 0.0
C198 C 0.70876 0.28847 0.21243 0.0
C199 C 0.77022 0.19522 0.30713 0.0
Dy200 Dy 0.03389 0.47407 0.47527 0.0
C201 C 0.94281 0.56289 0.5454 0.0
C202 C 0.07382 0.43395 0.43598 0.0
Dy203 Dy 0.98211 0.52257 0.5058 0.0
O204 O 0.08757 0.45818 0.46292 0.0
O205 O 0.03785 0.43159 0.4302 0.0
O206 O 0.0694 0.48586 0.53053 0.0
O207 O 0.04192 0.52445 0.50858 0.0
C208 C 0.0614 0.51677 0.53667 0.0
C209 C 0.95487 0.47979 0.44427 0.0
O210 O 0.01644 0.56122 0.46848 0.0
O211 O 0.03797 0.51871 0.43307 0.0
O212 O 0.92914 0.54028 0.51698 0.0
O213 O 0.97827 0.56354 0.55235 0.0
O214 O 0.94711 0.51083 0.4502 0.0
O215 O 0.97407 0.47209 0.47258 0.0
O216 O 1.00163 0.43623 0.51566 0.0
O217 O 0.97841 0.47922 0.54843 0.0
C218 C 0.03262 0.55172 0.43859 0.0
C219 C 0.98491 0.44657 0.54486 0.0
Dy220 Dy 0.77923 0.72228 0.23877 0.0
C221 C 0.69314 0.82855 0.25573 0.0
C222 C 0.82007 0.67367 0.22285 0.0
Dy223 Dy 0.73234 0.77852 0.24055 0.0
O224 O 0.83249 0.70326 0.24328 0.0
O225 O 0.78516 0.67056 0.21075 0.0
O226 O 0.79747 0.73517 0.30047 0.0
O227 O 0.78738 0.77597 0.26499 0.0
C228 C 0.79562 0.76868 0.29886 0.0
C229 C 0.71816 0.73353 0.1797 0.0
O230 O 0.77977 0.80938 0.20975 0.0
O231 O 0.80172 0.75957 0.19217 0.0
O232 O 0.68023 0.79943 0.23462 0.0
O233 O 0.7274 0.83021 0.26906 0.0
O234 O 0.71567 0.76686 0.17827 0.0
O235 O 0.72477 0.72538 0.21361 0.0
O236 O 0.73196 0.69142 0.27 0.0
O237 O 0.70884 0.74088 0.2864 0.0
C238 C 0.8009 0.79402 0.18902 0.0
C239 C 0.70993 0.70653 0.28984 0.0
Dy240 Dy 0.78986 0.20765 0.75123 0.0
C241 C 0.72231 0.32516 0.71973 0.0
C242 C 0.81983 0.15543 0.78348 0.0
Dy243 Dy 0.75319 0.26996 0.74218 0.0
O244 O 0.81306 0.15815 0.74696 0.0
O245 O 0.81044 0.18123 0.8021 0.0
O246 O 0.78256 0.19576 0.68801 0.0
O247 O 0.74267 0.21668 0.71471 0.0
C248 C 0.75253 0.20804 0.68285 0.0
C249 C 0.79096 0.26886 0.81039 0.0
O250 O 0.70275 0.22834 0.75523 0.0
O251 O 0.73595 0.18838 0.78006 0.0
O252 O 0.7245 0.31427 0.75439 0.0
O253 O 0.73696 0.30586 0.69706 0.0
O254 O 0.75998 0.27941 0.80569 0.0
O255 O 0.8009 0.2613 0.77823 0.0
O256 O 0.83933 0.24729 0.73225 0.0
O257 O 0.80598 0.28921 0.71199 0.0
C258 C 0.70448 0.1996 0.77499 0.0
C259 C 0.83681 0.27676 0.71418 0.0
Dy260 Dy 0.78602 0.74379 0.77763 0.0
C261 C 0.70226 0.7916 0.65446 0.0
C262 C 0.81739 0.70544 0.83029 0.0
Dy263 Dy 0.73458 0.75376 0.70702 0.0
O264 O 0.82911 0.74005 0.8258 0.0
O265 O 0.78815 0.69249 0.80695 0.0
O266 O 0.8238 0.79901 0.77151 0.0
O267 O 0.79459 0.76982 0.72312 0.0
C268 C 0.81489 0.80005 0.73499 0.0
C269 C 0.70643 0.69763 0.75043 0.0
O270 O 0.77083 0.72359 0.67681 0.0
O271 O 0.79916 0.70625 0.73232 0.0
O272 O 0.69131 0.75687 0.65869 0.0
O273 O 0.73125 0.80493 0.678 0.0
O274 O 0.69738 0.69799 0.71386 0.0
O275 O 0.72629 0.72815 0.76158 0.0
O276 O 0.75032 0.7749 0.80765 0.0
O277 O 0.72147 0.79141 0.75199 0.0
C278 C 0.79251 0.70446 0.69444 0.0
C279 C 0.72839 0.79369 0.7898 0.0
Dy280 Dy 0.54068 0.50342 0.53686 0.0
C281 C 0.45773 0.51517 0.39513 0.0
C282 C 0.57769 0.48768 0.60183 0.0
Dy283 Dy 0.49189 0.49741 0.46083 0.0
O284 O 0.59138 0.51272 0.57859 0.0
O285 O 0.54332 0.4719 0.59006 0.0
O286 O 0.57222 0.55878 0.52169 0.0
O287 O 0.55074 0.51868 0.47859 0.0
C288 C 0.56696 0.55141 0.48508 0.0
C289 C 0.46538 0.44911 0.51226 0.0
O290 O 0.52828 0.46176 0.44377 0.0
O291 O 0.55348 0.45617 0.50547 0.0
O292 O 0.44163 0.49174 0.41892 0.0
O293 O 0.49272 0.5281 0.40683 0.0
O294 O 0.45951 0.44227 0.47556 0.0
O295 O 0.48181 0.48178 0.519 0.0
O296 O 0.50199 0.53659 0.55443 0.0
O297 O 0.47984 0.54502 0.49237 0.0
C298 C 0.54828 0.44667 0.46851 0.0
C299 C 0.48315 0.55283 0.52969 0.0
Dy300 Dy 0.99392 0.50377 0.03243 0.0
C301 C 0.04243 0.4612 0.89053 0.0
C302 C 0.97323 0.53205 0.09708 0.0
Dy303 Dy 0.02311 0.49224 0.95427 0.0
O304 O 0.96018 0.49913 0.08396 0.0
O305 O 0.99804 0.54939 0.07515 0.0
O306 O 0.95856 0.44696 0.02889 0.0
O307 O 0.96933 0.47592 0.97876 0.0
C308 C 0.95517 0.44557 0.99179 0.0
C309 C 0.0627 0.54996 -0.00462 0.0
O310 O 0.97896 0.52091 0.93499 0.0
O311 O 0.97216 0.54345 -0.00459 0.0
O312 O 0.05376 0.4952 0.90054 0.0
O313 O 0.02003 0.44451 0.91498 0.0
O314 O 0.06001 0.54859 0.95825 0.0
O315 O 0.04775 0.51968 0.00798 0.0
O316 O 0.03799 0.47503 0.0519 0.0
O317 O 0.04545 0.45302 0.99144 0.0
C318 C 0.96647 0.54311 0.95755 0.0
C319 C 0.05085 0.45311 0.02931 0.0
H320 H 0.17966 0.22716 0.85215 0.0
H321 H 0.21254 0.13246 0.81102 0.0
H322 H 0.14077 0.19047 0.8974 0.0
H323 H 0.17385 0.09601 0.85649 0.0
H324 H 0.10671 0.11944 -0.00039 0.0
H325 H 0.14908 0.15529 0.95616 0.0
H326 H 0.10518 0.07543 0.8653 0.0
H327 H 0.06296 0.03979 0.90855 0.0
C328 C 0.17856 0.19855 0.85269 0.0
C329 C 0.19908 0.1827 0.8279 0.0
C330 C 0.15657 0.17765 0.87884 0.0
C331 C 0.15445 0.14047 0.88048 0.0
C332 C 0.17482 0.12459 0.85562 0.0
C333 C 0.19703 0.14551 0.82968 0.0
C334 C 0.10641 0.10951 0.97043 0.0
C335 C 0.08167 0.07692 0.95736 0.0
C336 C 0.13043 0.13006 0.94557 0.0
C337 C 0.13027 0.11814 0.90739 0.0
C338 C 0.10614 0.08507 0.89468 0.0
C339 C 0.08197 0.06472 0.91941 0.0
H340 H 0.04576 0.96575 0.12339 0.0
H341 H 0.13496 0.98423 0.04636 0.0
H342 H 0.08088 0.93247 0.16476 0.0
H343 H 0.17013 0.95132 0.08803 0.0
H344 H 0.23172 0.90599 0.18709 0.0
H345 H 0.20118 0.95024 0.15724 0.0
H346 H 0.09537 0.87046 0.14735 0.0
H347 H 0.12595 0.82613 0.17654 0.0
C348 C 0.07334 0.96368 0.1159 0.0
C349 C 0.08754 0.97732 0.08151 0.0
C350 C 0.09324 0.94442 0.13942 0.0
C351 C 0.12794 0.93911 0.12929 0.0
C352 C 0.14347 0.95517 0.0965 0.0
C353 C 0.12331 0.9739 0.07265 0.0
C354 C 0.20189 0.89808 0.17874 0.0
C355 C 0.18112 0.86271 0.18384 0.0
C356 C 0.1845 0.92333 0.16174 0.0
C357 C 0.14596 0.91374 0.1503 0.0
C358 C 0.12504 0.87863 0.15641 0.0
C359 C 0.14254 0.85323 0.17278 0.0
H360 H 0.41161 0.88594 0.50736 0.0
H361 H 0.45078 0.94604 0.40875 0.0
H362 H 0.36742 0.8409 0.46517 0.0
H363 H 0.40808 0.90047 0.36691 0.0
H364 H 0.2618 0.82046 0.36635 0.0
H365 H 0.309 0.85141 0.41627 0.0
H366 H 0.39699 0.82849 0.35148 0.0
H367 H 0.35001 0.79696 0.30203 0.0
C368 C 0.41128 0.88911 0.47671 0.0
C369 C 0.4347 0.91926 0.46119 0.0
C370 C 0.3861 0.86345 0.45274 0.0
C371 C 0.38481 0.86724 0.41298 0.0
C372 C 0.40907 0.89677 0.39749 0.0
C373 C 0.43348 0.92278 0.42141 0.0
C374 C 0.29115 0.82129 0.36333 0.0
C375 C 0.3024 0.80686 0.33024 0.0
C376 C 0.31803 0.83876 0.39188 0.0
C377 C 0.35643 0.84238 0.38735 0.0
C378 C 0.36748 0.82604 0.35539 0.0
C379 C 0.34062 0.80807 0.3272 0.0
H380 H 0.31438 0.10046 0.73347 0.0
H381 H 0.4078 0.19055 0.71759 0.0
H382 H 0.3505 0.05885 0.71175 0.0
H383 H 0.44301 0.14968 0.69323 0.0
H384 H 0.5052 0.07324 0.65287 0.0
H385 H 0.47544 0.10447 0.69864 0.0
H386 H 0.36615 0.04283 0.65258 0.0
H387 H 0.396 0.01054 0.6092 0.0
C388 C 0.34272 0.11124 0.72531 0.0
C389 C 0.35826 0.14853 0.72653 0.0
C390 C 0.36339 0.08752 0.71274 0.0
C391 C 0.39953 0.10082 0.70002 0.0
C392 C 0.41558 0.13822 0.70319 0.0
C393 C 0.39525 0.16179 0.71672 0.0
C394 C 0.47488 0.06589 0.65347 0.0
C395 C 0.45278 0.03996 0.62733 0.0
C396 C 0.45777 0.08391 0.67939 0.0
C397 C 0.41828 0.07674 0.67896 0.0
C398 C 0.39655 0.04895 0.65433 0.0
C399 C 0.41367 0.03057 0.62905 0.0
H400 H 0.11278 0.88453 0.51612 0.0
H401 H 0.14439 0.97004 0.60286 0.0
H402 H 0.15282 0.85093 0.55002 0.0
H403 H 0.18572 0.93715 0.63629 0.0
H404 H 0.21385 0.84786 0.71005 0.0
H405 H 0.18054 0.88555 0.67381 0.0
H406 H 0.21507 0.84685 0.56876 0.0
H407 H 0.24754 0.80794 0.60519 0.0
C408 C 0.1288 0.89638 0.5422 0.0
C409 C 0.12531 0.92977 0.55701 0.0
C410 C 0.15201 0.87723 0.56155 0.0
C411 C 0.17254 0.89114 0.59609 0.0
C412 C 0.16986 0.92521 0.61018 0.0
C413 C 0.14638 0.94423 0.59094 0.0
C414 C 0.21464 0.84745 0.67923 0.0
C415 C 0.23329 0.82461 0.66058 0.0
C416 C 0.19566 0.8694 0.65837 0.0
C417 C 0.19496 0.86938 0.61823 0.0
C418 C 0.21446 0.84721 0.59959 0.0
C419 C 0.23332 0.82503 0.6205 0.0
H420 H 0.34058 0.79335 0.81778 0.0
H421 H 0.37928 0.86369 0.72608 0.0
H422 H 0.3723 0.84025 0.86453 0.0
H423 H 0.41136 0.91123 0.7735 0.0
H424 H 0.41689 0.99342 0.88022 0.0
H425 H 0.39087 0.94973 0.82734 0.0
H426 H 0.44066 0.87073 0.8835 0.0
H427 H 0.46606 0.91394 0.93623 0.0
C428 C 0.35598 0.81889 0.80763 0.0
C429 C 0.3577 0.82496 0.76839 0.0
C430 C 0.37428 0.84564 0.8344 0.0
C431 C 0.3945 0.87911 0.82251 0.0
C432 C 0.39589 0.88553 0.78324 0.0
C433 C 0.37776 0.85844 0.75626 0.0
C434 C 0.42243 0.96678 0.88093 0.0
C435 C 0.44323 0.95683 0.91219 0.0
C436 C 0.40786 0.942 0.85066 0.0
C437 C 0.41367 0.90694 0.85161 0.0
C438 C 0.43557 0.89754 0.88233 0.0
C439 C 0.45023 0.92228 0.91234 0.0
H440 H 0.38359 0.03803 0.0861 0.0
H441 H 0.45763 0.13832 0.0575 0.0
H442 H 0.34605 0.07151 0.12056 0.0
H443 H 0.41949 0.17196 0.09136 0.0
H444 H 0.31454 0.21553 0.12056 0.0
H445 H 0.35164 0.18206 0.08512 0.0
H446 H 0.35529 0.11302 0.18064 0.0
H447 H 0.31896 0.14674 0.21628 0.0
C448 C 0.39185 0.06726 0.08715 0.0
C449 C 0.42371 0.08548 0.06912 0.0
C450 C 0.37035 0.08646 0.10699 0.0
C451 C 0.37962 0.12448 0.10871 0.0
C452 C 0.41135 0.14273 0.09037 0.0
C453 C 0.43334 0.12346 0.07117 0.0
C454 C 0.32299 0.19303 0.1339 0.0
C455 C 0.31356 0.18382 0.1713 0.0
C456 C 0.34455 0.17404 0.11368 0.0
C457 C 0.35655 0.14483 0.13 0.0
C458 C 0.3464 0.13519 0.16707 0.0
C459 C 0.32559 0.15461 0.18755 0.0
H460 H 0.03229 0.05997 0.36983 0.0
H461 H 0.1344 0.0531 0.43481 0.0
H462 H 0.06949 0.09723 0.32366 0.0
H463 H 0.17148 0.09023 0.38855 0.0
H464 H 0.14992 0.13903 0.23046 0.0
H465 H 0.11453 0.09629 0.27383 0.0
H466 H 0.18369 0.15402 0.37019 0.0
H467 H 0.21876 0.19664 0.32697 0.0
C468 C 0.06265 0.06609 0.37414 0.0
C469 C 0.08025 0.05352 0.40622 0.0
C470 C 0.08401 0.08734 0.34751 0.0
C471 C 0.12353 0.0969 0.35241 0.0
C472 C 0.14112 0.08375 0.38408 0.0
C473 C 0.11979 0.06223 0.41052 0.0
C474 C 0.15771 0.14237 0.26089 0.0
C475 C 0.18719 0.17119 0.27526 0.0
C476 C 0.13731 0.11802 0.28576 0.0
C477 C 0.14619 0.12169 0.32556 0.0
C478 C 0.17631 0.15007 0.33973 0.0
C479 C 0.19639 0.17459 0.31493 0.0
H480 H 0.84402 0.21962 0.12879 0.0
H481 H 0.76735 0.12205 0.16098 0.0
H482 H 0.88315 0.1837 0.10126 0.0
H483 H 0.80705 0.0861 0.13469 0.0
H484 H 0.87471 0.03212 0.0569 0.0
H485 H 0.83121 0.06656 0.07802 0.0
H486 H 0.92512 0.14904 0.12799 0.0
H487 H 0.96855 0.11506 0.1057 0.0
C488 C 0.83532 0.19045 0.12944 0.0
C489 C 0.80292 0.17352 0.14709 0.0
C490 C 0.85789 0.16991 0.11413 0.0
C491 C 0.84858 0.13212 0.11652 0.0
C492 C 0.81493 0.11514 0.13229 0.0
C493 C 0.7922 0.1357 0.14733 0.0
C494 C 0.88594 0.05747 0.0727 0.0
C495 C 0.92487 0.07108 0.0797 0.0
C496 C 0.86107 0.07717 0.08478 0.0
C497 C 0.87475 0.11072 0.10424 0.0
C498 C 0.91375 0.12369 0.11224 0.0
C499 C 0.93861 0.10409 0.09994 0.0
H500 H 0.05083 0.62413 0.45338 0.0
H501 H 0.05064 0.54321 0.36529 0.0
H502 H 0.0853 0.67074 0.41379 0.0
H503 H 0.08461 0.59037 0.32547 0.0
H504 H 0.12467 0.69806 0.25978 0.0
H505 H 0.07675 0.65869 0.29564 0.0
H506 H 0.15766 0.66734 0.39258 0.0
H507 H 0.20571 0.70556 0.35658 0.0
C508 C 0.0573 0.61641 0.42521 0.0
C509 C 0.04851 0.58003 0.41248 0.0
C510 C 0.0769 0.64309 0.40269 0.0
C511 C 0.08723 0.63382 0.36688 0.0
C512 C 0.07644 0.59789 0.353 0.0
C513 C 0.0574 0.57103 0.37583 0.0
C514 C 0.13185 0.69196 0.28899 0.0
C515 C 0.16863 0.70448 0.30562 0.0
C516 C 0.10464 0.66952 0.30926 0.0
C517 C 0.11386 0.66042 0.3466 0.0
C518 C 0.15011 0.67443 0.36382 0.0
C519 C 0.17748 0.69602 0.34329 0.0
H520 H 0.57949 0.95232 0.6014 0.0
H521 H 0.57363 0.8974 0.49153 0.0
H522 H 0.61611 0.91234 0.62941 0.0
H523 H 0.61014 0.8571 0.51989 0.0
H524 H 0.64017 0.76936 0.60367 0.0
H525 H 0.6036 0.80771 0.57094 0.0
H526 H 0.68148 0.90263 0.62171 0.0
H527 H 0.71799 0.86466 0.6538 0.0
C528 C 0.58585 0.93164 0.58322 0.0
C529 C 0.5737 0.92821 0.54416 0.0
C530 C 0.60702 0.90884 0.59926 0.0
C531 C 0.61615 0.88167 0.57681 0.0
C532 C 0.60341 0.87769 0.53792 0.0
C533 C 0.58269 0.90092 0.52168 0.0
C534 C 0.64966 0.79843 0.60734 0.0
C535 C 0.68188 0.814 0.63132 0.0
C536 C 0.62878 0.82036 0.58863 0.0
C537 C 0.63947 0.85817 0.5941 0.0
C538 C 0.67223 0.8736 0.61734 0.0
C539 C 0.69328 0.85181 0.63553 0.0
H540 H 0.42955 0.45553 0.94482 0.0
H541 H 0.47528 0.36394 0.97069 0.0
H542 H 0.3718 0.41544 0.91651 0.0
H543 H 0.41872 0.32368 0.94126 0.0
H544 H 0.32058 0.25283 0.88794 0.0
H545 H 0.35384 0.29634 0.93786 0.0
H546 H 0.35952 0.38232 0.85794 0.0
H547 H 0.32466 0.33926 0.80929 0.0
C548 C 0.42726 0.42685 0.94399 0.0
C549 C 0.45705 0.41275 0.95843 0.0
C550 C 0.39415 0.40384 0.92827 0.0
C551 C 0.39075 0.36637 0.9262 0.0
C552 C 0.41998 0.35232 0.94281 0.0
C553 C 0.45271 0.37535 0.95909 0.0
C554 C 0.32811 0.28123 0.88164 0.0
C555 C 0.32144 0.2928 0.84472 0.0
C556 C 0.34714 0.30608 0.91007 0.0
C557 C 0.36038 0.34257 0.9015 0.0
C558 C 0.34981 0.35447 0.86564 0.0
C559 C 0.33021 0.32973 0.83751 0.0
H560 H 0.80078 0.84083 0.29741 0.0
H561 H 0.83888 0.75909 0.36186 0.0
H562 H 0.84674 0.88793 0.33496 0.0
H563 H 0.88529 0.80622 0.39862 0.0
H564 H 0.99658 0.89593 0.39883 0.0
H565 H 0.94341 0.85238 0.36616 0.0
H566 H 0.86671 0.90998 0.41087 0.0
H567 H 0.91976 0.95307 0.4445 0.0
C568 C 0.8183 0.83303 0.32021 0.0
C569 C 0.81671 0.79647 0.32659 0.0
C570 C 0.84454 0.85988 0.34149 0.0
C571 C 0.86965 0.85032 0.3689 0.0
C572 C 0.86633 0.81391 0.37711 0.0
C573 C 0.83972 0.7871 0.3563 0.0
C574 C 0.96843 0.89953 0.40128 0.0
C575 C 0.9621 0.92769 0.42412 0.0
C576 C 0.93815 0.87456 0.38292 0.0
C577 C 0.90131 0.87787 0.3867 0.0
C578 C 0.89502 0.90704 0.40786 0.0
C579 C 0.92528 0.93167 0.4268 0.0
H580 H 0.46122 0.55838 0.60179 0.0
H581 H 0.45696 0.60389 0.49002 0.0
H582 H 0.4212 0.59607 0.6241 0.0
H583 H 0.41722 0.64197 0.51275 0.0
H584 H 0.38517 0.73023 0.59573 0.0
H585 H 0.42379 0.69429 0.56641 0.0
H586 H 0.35082 0.5968 0.60371 0.0
H587 H 0.31196 0.63247 0.63238 0.0
C588 C 0.45218 0.57675 0.58215 0.0
C589 C 0.46214 0.57814 0.54415 0.0
C590 C 0.42904 0.59805 0.59483 0.0
C591 C 0.41595 0.62153 0.56995 0.0
C592 C 0.42698 0.62398 0.53237 0.0
C593 C 0.44962 0.60219 0.51945 0.0
C594 C 0.377 0.70108 0.59687 0.0
C595 C 0.34576 0.68405 0.61635 0.0
C596 C 0.39905 0.68061 0.58019 0.0
C597 C 0.39043 0.64295 0.58338 0.0
C598 C 0.35822 0.62588 0.60136 0.0
C599 C 0.33589 0.64624 0.61746 0.0
H600 H 0.52924 0.03316 0.85648 0.0
H601 H 0.54744 0.12503 0.93537 0.0
H602 H 0.56315 0.07149 0.80926 0.0
H603 H 0.58169 0.16339 0.88801 0.0
H604 H 0.64177 0.22257 0.78948 0.0
H605 H 0.58619 0.18846 0.81904 0.0
H606 H 0.63437 0.09562 0.82359 0.0
H607 H 0.68969 0.12946 0.79458 0.0
C608 C 0.5396 0.06177 0.86327 0.0
C609 C 0.5369 0.0761 0.89983 0.0
C610 C 0.5588 0.08363 0.83623 0.0
C611 C 0.57561 0.12001 0.84551 0.0
C612 C 0.5689 0.13532 0.8803 0.0
C613 C 0.54948 0.1134 0.90741 0.0
C614 C 0.64014 0.1947 0.79638 0.0
C615 C 0.67005 0.17862 0.79016 0.0
C616 C 0.60842 0.17532 0.81316 0.0
C617 C 0.60601 0.13948 0.82312 0.0
C618 C 0.63532 0.12308 0.8155 0.0
C619 C 0.66716 0.14255 0.79936 0.0
H620 H 0.07033 0.39596 -0.0053 0.0
H621 H 0.0819 0.45517 0.1028 0.0
H622 H 0.10792 0.35662 0.02262 0.0
H623 H 0.1195 0.41585 0.13054 0.0
H624 H 0.22024 0.36646 0.15334 0.0
H625 H 0.18322 0.4044 0.122 0.0
H626 H 0.10384 0.30929 0.07355 0.0
H627 H 0.14102 0.27108 0.10531 0.0
C628 C 0.08087 0.40062 0.0244 0.0
C629 C 0.07317 0.42884 0.04648 0.0
C630 C 0.10223 0.37792 0.04041 0.0
C631 C 0.11681 0.38322 0.0787 0.0
C632 C 0.10901 0.41134 0.1008 0.0
C633 C 0.08727 0.43375 0.08496 0.0
C634 C 0.1951 0.3536 0.13569 0.0
C635 C 0.18346 0.31579 0.13181 0.0
C636 C 0.17374 0.37536 0.11798 0.0
C637 C 0.1404 0.35985 0.09564 0.0
C638 C 0.12947 0.32201 0.09052 0.0
C639 C 0.1507 0.30015 0.10866 0.0
H640 H 0.63681 0.55826 0.9427 0.0
H641 H 0.53749 0.54885 0.86619 0.0
H642 H 0.67454 0.59523 0.89656 0.0
H643 H 0.57488 0.58614 0.8207 0.0
H644 H 0.65538 0.63351 0.73213 0.0
H645 H 0.62263 0.58967 0.77598 0.0
H646 H 0.68327 0.65546 0.87213 0.0
H647 H 0.71617 0.6988 0.82831 0.0
C648 C 0.62303 0.56372 0.91595 0.0
C649 C 0.584 0.5505 0.90835 0.0
C650 C 0.64465 0.58521 0.88957 0.0
C651 C 0.62784 0.5939 0.85481 0.0
C652 C 0.589 0.57975 0.84683 0.0
C653 C 0.56743 0.55846 0.87319 0.0
C654 C 0.6619 0.63838 0.76263 0.0
C655 C 0.68828 0.66968 0.77671 0.0
C656 C 0.643 0.61336 0.78783 0.0
C657 C 0.65008 0.61898 0.82776 0.0
C658 C 0.67732 0.64988 0.84167 0.0
C659 C 0.69608 0.6749 0.8165 0.0
H660 H 0.72808 0.3087 0.14095 0.0
H661 H 0.66246 0.3316 0.23177 0.0
H662 H 0.70945 0.35507 0.10305 0.0
H663 H 0.64205 0.37681 0.19309 0.0
H664 H 0.62903 0.4736 0.12796 0.0
H665 H 0.65823 0.43401 0.16714 0.0
H666 H 0.65892 0.36667 0.06674 0.0
H667 H 0.63179 0.4073 0.02774 0.0
C668 C 0.70926 0.32338 0.15266 0.0
C669 C 0.69653 0.31628 0.18928 0.0
C670 C 0.69844 0.34999 0.13082 0.0
C671 C 0.67403 0.36983 0.14473 0.0
C672 C 0.66142 0.36271 0.18155 0.0
C673 C 0.6728 0.33648 0.20367 0.0
C674 C 0.63635 0.45078 0.11428 0.0
C675 C 0.62822 0.44353 0.07485 0.0
C676 C 0.65261 0.42775 0.13677 0.0
C677 C 0.66055 0.39664 0.12039 0.0
C678 C 0.65378 0.39046 0.08053 0.0
C679 C 0.63809 0.41377 0.05803 0.0
H680 H 0.95491 0.40872 0.43841 0.0
H681 H 0.91102 0.49177 0.38276 0.0
H682 H 0.91627 0.36347 0.39302 0.0
H683 H 0.8723 0.4464 0.33732 0.0
H684 H 0.80272 0.29272 0.34378 0.0
H685 H 0.84504 0.33983 0.38433 0.0
H686 H 0.87797 0.40097 0.28457 0.0
H687 H 0.83552 0.35369 0.24383 0.0
C688 C 0.93737 0.41731 0.41614 0.0
C689 C 0.93552 0.45353 0.41416 0.0
C690 C 0.91516 0.39146 0.3904 0.0
C691 C 0.89107 0.40153 0.36212 0.0
C692 C 0.89071 0.43806 0.3589 0.0
C693 C 0.91271 0.4639 0.38488 0.0
C694 C 0.81886 0.31631 0.33056 0.0
C695 C 0.81614 0.31965 0.29078 0.0
C696 C 0.84323 0.34305 0.35368 0.0
C697 C 0.86499 0.37368 0.3374 0.0
C698 C 0.86146 0.37753 0.29769 0.0
C699 C 0.8373 0.35056 0.27449 0.0
H700 H 0.56866 0.53464 0.40978 0.0
H701 H 0.6041 0.62235 0.49388 0.0
H702 H 0.59989 0.57321 0.36122 0.0
H703 H 0.63642 0.66085 0.44539 0.0
H704 H 0.66385 0.72794 0.33913 0.0
H705 H 0.62609 0.6913 0.38532 0.0
H706 H 0.66537 0.59876 0.34914 0.0
H707 H 0.70249 0.63493 0.30272 0.0
C708 C 0.58288 0.56231 0.41777 0.0
C709 C 0.58402 0.57559 0.45552 0.0
C710 C 0.60103 0.58428 0.39005 0.0
C711 C 0.62086 0.61995 0.39956 0.0
C712 C 0.6211 0.63356 0.43715 0.0
C713 C 0.60285 0.61151 0.46493 0.0
C714 C 0.66427 0.69973 0.34089 0.0
C715 C 0.68622 0.68438 0.31722 0.0
C716 C 0.64279 0.67883 0.36749 0.0
C717 C 0.64272 0.64217 0.3708 0.0
C718 C 0.6644 0.62681 0.34689 0.0
C719 C 0.6859 0.64766 0.32043 0.0
H720 H 0.86733 0.28228 0.81244 0.0
H721 H 0.77552 0.2872 0.88161 0.0
H722 H 0.91158 0.31963 0.86064 0.0
H723 H 0.81993 0.32407 0.93006 0.0
H724 H 0.94636 0.43957 0.9143 0.0
H725 H 0.91118 0.38767 0.87494 0.0
H726 H 0.88104 0.32867 0.97662 0.0
H727 H 0.91755 0.38041 0.01626 0.0
C728 C 0.85678 0.2903 0.83852 0.0
C729 C 0.81802 0.28245 0.84318 0.0
C730 C 0.88206 0.31173 0.86595 0.0
C731 C 0.86897 0.32495 0.89867 0.0
C732 C 0.83066 0.31407 0.90507 0.0
C733 C 0.8053 0.29311 0.87736 0.0
C734 C 0.93294 0.41527 0.92824 0.0
C735 C 0.93482 0.41383 0.96823 0.0
C736 C 0.91295 0.38556 0.90575 0.0
C737 C 0.89382 0.35416 0.92287 0.0
C738 C 0.89581 0.35257 0.96288 0.0
C739 C 0.91652 0.38211 0.98543 0.0
H740 H 0.84191 0.7714 0.13536 0.0
H741 H 0.8103 0.86616 0.1783 0.0
H742 H 0.87878 0.80799 0.08857 0.0
H743 H 0.8467 0.90237 0.13127 0.0
H744 H 0.95647 0.95891 0.07844 0.0
H745 H 0.91437 0.9231 0.12151 0.0
H746 H 0.87042 0.84351 0.03036 0.0
H747 H 0.913 0.87947 0.98709 0.0
C748 C 0.84275 0.79996 0.1348 0.0
C749 C 0.82338 0.81591 0.16071 0.0
C750 C 0.86356 0.8208 0.10778 0.0
C751 C 0.86551 0.85796 0.10632 0.0
C752 C 0.84592 0.87383 0.13201 0.0
C753 C 0.82503 0.85302 0.15889 0.0
C754 C 0.93752 0.93397 0.06748 0.0
C755 C 0.93798 0.92179 0.02956 0.0
C756 C 0.91335 0.91355 0.09209 0.0
C757 C 0.88927 0.88049 0.07928 0.0
C758 C 0.88904 0.86873 0.04102 0.0
C759 C 0.91314 0.88935 0.01626 0.0
H760 H 0.83098 0.1466 0.85921 0.0
H761 H 0.84489 0.10159 0.7488 0.0
H762 H 0.85928 0.1023 0.89049 0.0
H763 H 0.87313 0.05642 0.78035 0.0
H764 H 0.9708 0.02594 0.86094 0.0
H765 H 0.93233 0.05631 0.81975 0.0
H766 H 0.84721 0.03786 0.90131 0.0
H767 H 0.88601 0.00859 0.94274 0.0
C768 C 0.83982 0.12693 0.84164 0.0
C769 C 0.83586 0.12748 0.80166 0.0
C770 C 0.85572 0.10129 0.85955 0.0
C771 C 0.86806 0.07556 0.83788 0.0
C772 C 0.86389 0.07593 0.79774 0.0
C773 C 0.84772 0.10166 0.77975 0.0
C774 C 0.94335 0.02743 0.86939 0.0
C775 C 0.93157 0.01555 0.90522 0.0
C776 C 0.92132 0.04481 0.84584 0.0
C777 C 0.88718 0.0502 0.85778 0.0
C778 C 0.87385 0.03494 0.89184 0.0
C779 C 0.89595 0.01802 0.91546 0.0
H780 H 0.67812 0.20735 0.67796 0.0
H781 H 0.76525 0.18194 0.61336 0.0
H782 H 0.63054 0.17545 0.62933 0.0
H783 H 0.71742 0.15067 0.56421 0.0
H784 H 0.61409 0.11444 0.4747 0.0
H785 H 0.65896 0.15996 0.5156 0.0
H786 H 0.61838 0.10333 0.61558 0.0
H787 H 0.57485 0.05721 0.57492 0.0
C788 C 0.68719 0.19583 0.65287 0.0
C789 C 0.72529 0.19649 0.64966 0.0
C790 C 0.65995 0.17759 0.62515 0.0
C791 C 0.67047 0.16045 0.59343 0.0
C792 C 0.70876 0.16383 0.58847 0.0
C793 C 0.73603 0.18158 0.61656 0.0
C794 C 0.61459 0.11196 0.50544 0.0
C795 C 0.59091 0.08247 0.52178 0.0
C796 C 0.64017 0.13794 0.52869 0.0
C797 C 0.64169 0.13516 0.56855 0.0
C798 C 0.61722 0.10627 0.58487 0.0
C799 C 0.59234 0.07993 0.56166 0.0
H800 H 0.52451 0.90281 0.35754 0.0
H801 H 0.60664 0.00337 0.34698 0.0
H802 H 0.55843 0.87253 0.31555 0.0
H803 H 0.6405 0.97314 0.30438 0.0
H804 H 0.62074 0.82617 0.2315 0.0
H805 H 0.58214 0.86594 0.25242 0.0
H806 H 0.67767 0.92893 0.32209 0.0
H807 H 0.71624 0.88952 0.30073 0.0
C808 C 0.54925 0.91861 0.3453 0.0
C809 C 0.56341 0.95517 0.35586 0.0
C810 C 0.56857 0.90135 0.32107 0.0
C811 C 0.60237 0.92043 0.30712 0.0
C812 C 0.6148 0.95773 0.31523 0.0
C813 C 0.59538 0.97502 0.33941 0.0
C814 C 0.63354 0.84889 0.25081 0.0
C815 C 0.67122 0.85465 0.26498 0.0
C816 C 0.61149 0.87159 0.26274 0.0
C817 C 0.62686 0.90041 0.28896 0.0
C818 C 0.66516 0.90722 0.30147 0.0
C819 C 0.68716 0.88449 0.28958 0.0
H820 H 0.75871 0.17029 0.37974 0.0
H821 H 0.83012 0.17096 0.28652 0.0
H822 H 0.79605 0.13543 0.41729 0.0
H823 H 0.86742 0.1373 0.32421 0.0
H824 H 0.95073 0.12565 0.42736 0.0
H825 H 0.90885 0.15798 0.39391 0.0
H826 H 0.815 0.06676 0.40353 0.0
H827 H 0.85728 0.0337 0.43632 0.0
C828 C 0.78221 0.16301 0.36729 0.0
C829 C 0.79139 0.17335 0.33015 0.0
C830 C 0.8034 0.143 0.38866 0.0
C831 C 0.83454 0.13386 0.37353 0.0
C832 C 0.84357 0.14412 0.33649 0.0
C833 C 0.82207 0.1633 0.31492 0.0
C834 C 0.92114 0.1125 0.42252 0.0
C835 C 0.90724 0.07712 0.43422 0.0
C836 C 0.89725 0.13101 0.40342 0.0
C837 C 0.8588 0.11482 0.39631 0.0
C838 C 0.84454 0.07983 0.40896 0.0
C839 C 0.86869 0.06093 0.42746 0.0
H840 H 0.61075 0.18202 0.22233 0.0
H841 H 0.70458 0.13218 0.22531 0.0
H842 H 0.57695 0.13741 0.1733 0.0
H843 H 0.67207 0.08861 0.17511 0.0
H844 H 0.59808 0.00166 0.09933 0.0
H845 H 0.62078 0.0384 0.15754 0.0
H846 H 0.58331 0.12743 0.10673 0.0
H847 H 0.55947 0.09006 0.0491 0.0
C848 C 0.62375 0.16107 0.21267 0.0
C849 C 0.65996 0.16013 0.22707 0.0
C850 C 0.60472 0.13585 0.18446 0.0
C851 C 0.62195 0.10968 0.17003 0.0
C852 C 0.65776 0.10808 0.18588 0.0
C853 C 0.67655 0.1331 0.21433 0.0
C854 C 0.59446 0.02901 0.10086 0.0
C855 C 0.57742 0.04329 0.0698 0.0
C856 C 0.60753 0.05006 0.13409 0.0
C857 C 0.60414 0.08593 0.13668 0.0
C858 C 0.58592 0.09975 0.1059 0.0
C859 C 0.57251 0.07852 0.07279 0.0
H860 H 0.67086 0.82306 0.76346 0.0
H861 H 0.73845 0.81394 0.8668 0.0
H862 H 0.63535 0.8572 0.79881 0.0
H863 H 0.7026 0.84869 0.90237 0.0
H864 H 0.6547 0.94718 0.93929 0.0
H865 H 0.69139 0.91163 0.90644 0.0
H866 H 0.58923 0.8472 0.84877 0.0
H867 H 0.55258 0.88263 0.88186 0.0
C868 C 0.67836 0.82839 0.79377 0.0
C869 C 0.70776 0.81559 0.81215 0.0
C870 C 0.65765 0.84785 0.81413 0.0
C871 C 0.66585 0.85561 0.85353 0.0
C872 C 0.6956 0.84334 0.872 0.0
C873 C 0.7161 0.82333 0.85163 0.0
C874 C 0.64008 0.92537 0.91964 0.0
C875 C 0.6007 0.91783 0.91308 0.0
C876 C 0.66111 0.90483 0.90099 0.0
C877 C 0.64337 0.87652 0.87486 0.0
C878 C 0.60392 0.86899 0.86841 0.0
C879 C 0.58285 0.88922 0.88745 0.0
H880 H 0.89221 0.94923 0.55341 0.0
H881 H 0.99262 0.93487 0.61621 0.0
H882 H 0.85367 0.91163 0.59849 0.0
H883 H 0.95403 0.89742 0.66125 0.0
H884 H 0.80299 0.80333 0.65752 0.0
H885 H 0.83905 0.84602 0.61482 0.0
H886 H 0.90946 0.90097 0.71179 0.0
H887 H 0.87305 0.85846 0.75458 0.0
C888 C 0.90612 0.93839 0.57701 0.0
C889 C 0.9456 0.94511 0.58107 0.0
C890 C 0.88398 0.91662 0.60271 0.0
C891 C 0.90073 0.90144 0.63346 0.0
C892 C 0.94021 0.90893 0.63809 0.0
C893 C 0.96234 0.93027 0.61211 0.0
C894 C 0.82583 0.82482 0.66978 0.0
C895 C 0.83512 0.82753 0.70945 0.0
C896 C 0.84647 0.84934 0.64531 0.0
C897 C 0.87724 0.87688 0.65985 0.0
C898 C 0.88616 0.87988 0.69962 0.0
C899 C 0.86518 0.85564 0.72416 0.0
H900 H 0.16379 0.76921 0.8462 0.0
H901 H 0.25474 0.86444 0.84358 0.0
H902 H 0.1251 0.80475 0.87401 0.0
H903 H 0.21642 0.90022 0.87333 0.0
H904 H 0.11908 0.95774 0.87755 0.0
H905 H 0.16257 0.92342 0.85529 0.0
H906 H 0.11592 0.83665 0.92868 0.0
H907 H 0.0716 0.86994 0.94899 0.0
C908 C 0.17583 0.79766 0.8526 0.0
C909 C 0.21211 0.81419 0.84272 0.0
C910 C 0.15369 0.81809 0.86866 0.0
C911 C 0.16758 0.85543 0.87573 0.0
C912 C 0.20468 0.87164 0.86757 0.0
C913 C 0.22677 0.85116 0.85103 0.0
C914 C 0.11812 0.93119 0.8885 0.0
C915 C 0.09178 0.91615 0.91442 0.0
C916 C 0.14324 0.91173 0.87621 0.0
C917 C 0.14265 0.87722 0.89016 0.0
C918 C 0.11665 0.86277 0.91674 0.0
C919 C 0.09127 0.88187 0.92843 0.0
H920 H 0.99925 0.37981 0.55596 0.0
H921 H 0.93974 0.45493 0.60062 0.0
H922 H 0.9737 0.33667 0.60393 0.0
H923 H 0.91367 0.41207 0.64688 0.0
H924 H 0.87863 0.34213 0.73829 0.0
H925 H 0.9257 0.38226 0.70298 0.0
H926 H 0.91282 0.29878 0.61447 0.0
H927 H 0.86751 0.25818 0.65137 0.0
C928 C 0.98091 0.38715 0.57601 0.0
C929 C 0.97139 0.42068 0.57439 0.0
C930 C 0.96633 0.36251 0.60343 0.0
C931 C 0.94193 0.37104 0.62944 0.0
C932 C 0.93319 0.4049 0.62809 0.0
C933 C 0.94787 0.42944 0.6011 0.0
C934 C 0.88694 0.33226 0.71185 0.0
C935 C 0.86967 0.29763 0.697 0.0
C936 C 0.9136 0.35512 0.69154 0.0
C937 C 0.92226 0.34398 0.65546 0.0
C938 C 0.90694 0.30814 0.64221 0.0
C939 C 0.88087 0.28498 0.66307 0.0
H940 H 0.44152 0.04698 0.38513 0.0
H941 H 0.45479 0.10719 0.49275 0.0
H942 H 0.4041 0.08628 0.3574 0.0
H943 H 0.41727 0.14675 0.46467 0.0
H944 H 0.38324 0.23107 0.37921 0.0
H945 H 0.42056 0.19356 0.41215 0.0
H946 H 0.34041 0.09754 0.36699 0.0
H947 H 0.30327 0.13475 0.33452 0.0
C948 C 0.43662 0.06868 0.40288 0.0
C949 C 0.45113 0.0738 0.44124 0.0
C950 C 0.41494 0.09109 0.38701 0.0
C951 C 0.40751 0.11949 0.40891 0.0
C952 C 0.42262 0.12517 0.44705 0.0
C953 C 0.44395 0.10239 0.46315 0.0
C954 C 0.37342 0.20195 0.37684 0.0
C955 C 0.34042 0.18584 0.35422 0.0
C956 C 0.39473 0.1805 0.39569 0.0
C957 C 0.38364 0.14258 0.39179 0.0
C958 C 0.35001 0.12664 0.37008 0.0
C959 C 0.3286 0.14799 0.35169 0.0
H960 H 0.54976 0.63564 0.02125 0.0
H961 H 0.59676 0.54461 0.04584 0.0
H962 H 0.60535 0.67603 0.05267 0.0
H963 H 0.65332 0.5848 0.0765 0.0
H964 H 0.70067 0.66069 0.18413 0.0
H965 H 0.66432 0.61773 0.13596 0.0
H966 H 0.67081 0.70341 0.05561 0.0
H967 H 0.70583 0.74675 0.10482 0.0
C968 C 0.57236 0.62438 0.03305 0.0
C969 C 0.56869 0.58703 0.03264 0.0
C970 C 0.60447 0.64749 0.05055 0.0
C971 C 0.63372 0.63358 0.06735 0.0
C972 C 0.63093 0.59625 0.06454 0.0
C973 C 0.5985 0.57317 0.04748 0.0
C974 C 0.69503 0.67013 0.15589 0.0
C975 C 0.70478 0.70698 0.1483 0.0
C976 C 0.67449 0.64548 0.12811 0.0
C977 C 0.66392 0.65738 0.09224 0.0
C978 C 0.67764 0.6937 0.08339 0.0
C979 C 0.69771 0.71844 0.11141 0.0
H980 H 0.18407 0.24071 0.63288 0.0
H981 H 0.22676 0.16028 0.69505 0.0
H982 H 0.13866 0.19287 0.59608 0.0
H983 H 0.18159 0.11239 0.65744 0.0
H984 H 0.1093 0.04942 0.54414 0.0
H985 H 0.16145 0.09218 0.57959 0.0
H986 H 0.08248 0.14374 0.62963 0.0
H987 H 0.03025 0.10055 0.59516 0.0
C988 C 0.18436 0.21285 0.63798 0.0
C989 C 0.20839 0.204 0.66706 0.0
C990 C 0.15834 0.18563 0.61713 0.0
C991 C 0.15657 0.14933 0.62466 0.0
C992 C 0.18259 0.14036 0.65149 0.0
C993 C 0.20831 0.16764 0.67281 0.0
C994 C 0.1031 0.06937 0.56342 0.0
C995 C 0.06591 0.0719 0.56698 0.0
C996 C 0.13285 0.09377 0.58344 0.0
C997 C 0.12561 0.12124 0.60659 0.0
C998 C 0.08843 0.12286 0.6114 0.0
C999 C 0.0587 0.09813 0.59194 0.0
H1000 H 0.7151 0.3409 0.39278 0.0
H1001 H 0.60971 0.26566 0.35811 0.0
H1002 H 0.68111 0.37902 0.42573 0.0
H1003 H 0.57589 0.30372 0.39078 0.0
H1004 H 0.53431 0.40957 0.39971 0.0
H1005 H 0.56725 0.36635 0.37533 0.0
H1006 H 0.63793 0.37901 0.48054 0.0
H1007 H 0.60499 0.42223 0.50518 0.0
C1008 C 0.68478 0.33224 0.39283 0.0
C1009 C 0.66495 0.30055 0.3728 0.0
C1010 C 0.66538 0.35396 0.41167 0.0
C1011 C 0.6259 0.3444 0.41038 0.0
C1012 C 0.60629 0.31187 0.39175 0.0
C1013 C 0.62567 0.29005 0.37328 0.0
C1014 C 0.55673 0.40303 0.41774 0.0
C1015 C 0.56707 0.41935 0.45432 0.0
C1016 C 0.57541 0.37813 0.40388 0.0
C1017 C 0.60505 0.36938 0.42614 0.0
C1018 C 0.61527 0.38547 0.4628 0.0
C1019 C 0.59627 0.41004 0.47689 0.0
H1020 H 0.47026 0.87917 0.02849 0.0
H1021 H 0.48055 0.96098 0.11826 0.0
H1022 H 0.43126 0.83508 0.06747 0.0
H1023 H 0.44207 0.9163 0.15745 0.0
H1024 H 0.38825 0.80871 0.21916 0.0
H1025 H 0.43967 0.84447 0.18497 0.0
H1026 H 0.36145 0.84894 0.08872 0.0
H1027 H 0.30975 0.81405 0.12311 0.0
C1028 C 0.46527 0.88744 0.05701 0.0
C1029 C 0.47787 0.92355 0.07027 0.0
C1030 C 0.44296 0.86224 0.07912 0.0
C1031 C 0.43383 0.87272 0.11499 0.0
C1032 C 0.44911 0.9079 0.12975 0.0
C1033 C 0.47084 0.93335 0.10735 0.0
C1034 C 0.38218 0.81704 0.19053 0.0
C1035 C 0.34522 0.80886 0.17359 0.0
C1036 C 0.41147 0.83737 0.17119 0.0
C1037 C 0.40415 0.84885 0.13443 0.0
C1038 C 0.36746 0.83982 0.11703 0.0
C1039 C 0.33804 0.82022 0.13668 0.0
H1040 H 0.93492 0.54065 0.88424 0.0
H1041 H 0.9483 0.60125 0.99165 0.0
H1042 H 0.89825 0.58059 0.85611 0.0
H1043 H 0.91166 0.64126 0.9633 0.0
H1044 H 0.88081 0.72699 0.87918 0.0
H1045 H 0.91682 0.68809 0.91153 0.0
H1046 H 0.83521 0.59377 0.86462 0.0
H1047 H 0.79932 0.6324 0.83271 0.0
C1048 C 0.93013 0.5625 0.90185 0.0
C1049 C 0.94449 0.56763 0.94025 0.0
C1050 C 0.90893 0.58527 0.88577 0.0
C1051 C 0.90194 0.614 0.90753 0.0
C1052 C 0.91673 0.61948 0.94576 0.0
C1053 C 0.93753 0.5964 0.96202 0.0
C1054 C 0.87039 0.69795 0.87629 0.0
C1055 C 0.83732 0.68273 0.8534 0.0
C1056 C 0.89095 0.6757 0.89478 0.0
C1057 C 0.87904 0.63786 0.89027 0.0
C1058 C 0.84542 0.62279 0.86818 0.0
C1059 C 0.82473 0.64495 0.85014 0.0
H1060 H 0.489 0.44864 0.1226 0.0
H1061 H 0.39022 0.44302 0.04634 0.0
H1062 H 0.45063 0.41102 0.16727 0.0
H1063 H 0.35162 0.4058 0.09157 0.0
H1064 H 0.36833 0.36398 0.25477 0.0
H1065 H 0.40272 0.40785 0.21196 0.0
H1066 H 0.34116 0.34496 0.1144 0.0
H1067 H 0.30659 0.3016 0.15719 0.0
C1068 C 0.459 0.43981 0.1155 0.0
C1069 C 0.44284 0.44893 0.08066 0.0
C1070 C 0.43688 0.41832 0.14136 0.0
C1071 C 0.39792 0.40516 0.13314 0.0
C1072 C 0.38158 0.41501 0.09871 0.0
C1073 C 0.40372 0.43665 0.07286 0.0
C1074 C 0.36196 0.35976 0.22418 0.0
C1075 C 0.33482 0.32926 0.2094 0.0
C1076 C 0.38182 0.38478 0.19959 0.0
C1077 C 0.37494 0.37999 0.15958 0.0
C1078 C 0.34699 0.34989 0.14496 0.0
C1079 C 0.32726 0.32487 0.16953 0.0
H1080 H 0.41949 0.53839 0.85625 0.0
H1081 H 0.36952 0.56704 0.95656 0.0
H1082 H 0.38813 0.57646 0.81798 0.0
H1083 H 0.33622 0.60385 0.91791 0.0
H1084 H 0.32695 0.70386 0.85155 0.0
H1085 H 0.35004 0.6596 0.88897 0.0
H1086 H 0.33396 0.58842 0.78867 0.0
H1087 H 0.31267 0.63372 0.7509 0.0
C1088 C 0.40087 0.55208 0.8699 0.0
C1089 C 0.39711 0.54995 0.90941 0.0
C1090 C 0.38268 0.5739 0.84788 0.0
C1091 C 0.35982 0.59376 0.86476 0.0
C1092 C 0.35431 0.58977 0.904 0.0
C1093 C 0.373 0.56831 0.92614 0.0
C1094 C 0.32828 0.67872 0.83751 0.0
C1095 C 0.31826 0.67242 0.79819 0.0
C1096 C 0.34121 0.65307 0.85909 0.0
C1097 C 0.34389 0.62015 0.84205 0.0
C1098 C 0.33301 0.61362 0.80277 0.0
C1099 C 0.32066 0.63957 0.78106 0.0
H1100 H 0.1044 0.50444 0.59863 0.0
H1101 H 0.06151 0.58788 0.54255 0.0
H1102 H 0.14217 0.54947 0.64498 0.0
H1103 H 0.09925 0.63282 0.58884 0.0
H1104 H 0.17634 0.64038 0.73994 0.0
H1105 H 0.13452 0.59401 0.6977 0.0
H1106 H 0.17049 0.6567 0.59976 0.0
H1107 H 0.21229 0.70291 0.64185 0.0
C1108 C 0.10274 0.53233 0.59658 0.0
C1109 C 0.08043 0.54289 0.567 0.0
C1110 C 0.12419 0.55798 0.62308 0.0
C1111 C 0.1238 0.59452 0.62007 0.0
C1112 C 0.10034 0.60481 0.59133 0.0
C1113 C 0.07864 0.57914 0.56509 0.0
C1114 C 0.17531 0.64409 0.70936 0.0
C1115 C 0.19725 0.67513 0.69401 0.0
C1116 C 0.15152 0.61763 0.68531 0.0
C1117 C 0.14913 0.62211 0.64566 0.0
C1118 C 0.17146 0.65299 0.63034 0.0
C1119 C 0.1955 0.67923 0.65433 0.0
H1120 H 0.33034 0.36627 0.69585 0.0
H1121 H 0.36014 0.27098 0.65195 0.0
H1122 H 0.36864 0.40266 0.65032 0.0
H1123 H 0.39916 0.3077 0.60682 0.0
H1124 H 0.42447 0.37964 0.50179 0.0
H1125 H 0.3909 0.34119 0.54944 0.0
H1126 H 0.43363 0.42544 0.6363 0.0
H1127 H 0.46616 0.46413 0.58844 0.0
C1128 C 0.34528 0.35309 0.6767 0.0
C1129 C 0.34206 0.31568 0.67748 0.0
C1130 C 0.36747 0.37403 0.65075 0.0
C1131 C 0.38702 0.35808 0.62502 0.0
C1132 C 0.38412 0.32071 0.62602 0.0
C1133 C 0.36188 0.29972 0.652 0.0
C1134 C 0.42683 0.38976 0.53114 0.0
C1135 C 0.44773 0.42483 0.54147 0.0
C1136 C 0.40783 0.3677 0.55847 0.0
C1137 C 0.40944 0.38036 0.59661 0.0
C1138 C 0.43136 0.41512 0.60704 0.0
C1139 C 0.45024 0.43715 0.57972 0.0
H1140 H 0.16135 0.71042 0.17473 0.0
H1141 H 0.25257 0.69458 0.11003 0.0
H1142 H 0.11603 0.67458 0.12634 0.0
H1143 H 0.20707 0.65927 0.06126 0.0
H1144 H 0.07081 0.55507 0.07283 0.0
H1145 H 0.11025 0.60421 0.11301 0.0
H1146 H 0.14762 0.66159 0.01237 0.0
H1147 H 0.10674 0.61279 0.97183 0.0
C1148 C 0.17166 0.70012 0.14966 0.0
C1149 C 0.21038 0.70469 0.14626 0.0
C1150 C 0.14576 0.67963 0.1221 0.0
C1151 C 0.15823 0.66408 0.09043 0.0
C1152 C 0.19687 0.67118 0.08543 0.0
C1153 C 0.22282 0.69118 0.11333 0.0
C1154 C 0.08671 0.57853 0.05927 0.0
C1155 C 0.0855 0.58036 0.01932 0.0
C1156 C 0.10922 0.60662 0.08224 0.0
C1157 C 0.13159 0.63668 0.06565 0.0
C1158 C 0.13039 0.63868 0.02568 0.0
C1159 C 0.10713 0.61085 0.00263 0.0
H1160 H 0.67852 0.35721 0.76122 0.0
H1161 H 0.72587 0.35835 0.65166 0.0
H1162 H 0.64566 0.40314 0.74022 0.0
H1163 H 0.69353 0.40461 0.63093 0.0
H1164 H 0.65372 0.50588 0.61444 0.0
H1165 H 0.69223 0.47088 0.64894 0.0
H1166 H 0.592 0.39999 0.68646 0.0
H1167 H 0.55338 0.43468 0.65153 0.0
C1168 C 0.68221 0.36762 0.73284 0.0
C1169 C 0.70448 0.35425 0.70789 0.0
C1170 C 0.66345 0.39381 0.72091 0.0
C1171 C 0.66731 0.40746 0.68413 0.0
C1172 C 0.69054 0.39483 0.65964 0.0
C1173 C 0.70877 0.36823 0.67133 0.0
C1174 C 0.64 0.48345 0.63096 0.0
C1175 C 0.60063 0.47267 0.63011 0.0
C1176 C 0.66201 0.46335 0.65044 0.0
C1177 C 0.64496 0.43259 0.66985 0.0
C1178 C 0.60577 0.42369 0.67175 0.0
C1179 C 0.58371 0.4435 0.6518 0.0
H1180 H 0.89352 0.67944 0.24513 0.0
H1181 H 0.79876 0.61204 0.17832 0.0
H1182 H 0.93382 0.64143 0.22411 0.0
H1183 H 0.83908 0.57427 0.15685 0.0
H1184 H 0.914 0.50086 0.13743 0.0
H1185 H 0.87802 0.53202 0.17654 0.0
H1186 H 0.95783 0.63322 0.16147 0.0
H1187 H 0.99391 0.602 0.12286 0.0
C1188 C 0.88127 0.65625 0.22626 0.0
C1189 C 0.8432 0.64875 0.21299 0.0
C1190 C 0.90432 0.63458 0.21421 0.0
C1191 C 0.88963 0.60499 0.18877 0.0
C1192 C 0.8511 0.59663 0.17686 0.0
C1193 C 0.82808 0.61837 0.18886 0.0
C1194 C 0.9243 0.52961 0.14334 0.0
C1195 C 0.95641 0.54919 0.12688 0.0
C1196 C 0.90361 0.54744 0.16548 0.0
C1197 C 0.91484 0.58507 0.17158 0.0
C1198 C 0.94858 0.60416 0.15745 0.0
C1199 C 0.96918 0.58634 0.13524 0.0
H1200 H 0.86973 0.56588 0.52983 0.0
H1201 H 0.96621 0.60804 0.60865 0.0
H1202 H 0.83298 0.59968 0.56477 0.0
H1203 H 0.92963 0.64218 0.64356 0.0
H1204 H 0.84228 0.6657 0.72119 0.0
H1205 H 0.87803 0.6324 0.68499 0.0
H1206 H 0.8261 0.66059 0.57957 0.0
H1207 H 0.78982 0.69391 0.61597 0.0
C1208 C 0.88315 0.58251 0.55459 0.0
C1209 C 0.92091 0.58418 0.56651 0.0
C1210 C 0.86211 0.60209 0.57453 0.0
C1211 C 0.87814 0.62374 0.60716 0.0
C1212 C 0.91606 0.62549 0.61891 0.0
C1213 C 0.93718 0.60606 0.59879 0.0
C1214 C 0.83823 0.66484 0.69028 0.0
C1215 C 0.81296 0.6827 0.67165 0.0
C1216 C 0.8591 0.64586 0.66943 0.0
C1217 C 0.85534 0.64388 0.62921 0.0
C1218 C 0.82963 0.66124 0.6105 0.0
C1219 C 0.80883 0.68048 0.63141 0.0
H1220 H 0.38238 0.49897 0.37633 0.0
H1221 H 0.48718 0.56995 0.34952 0.0
H1222 H 0.34773 0.5366 0.34083 0.0
H1223 H 0.45257 0.60731 0.31344 0.0
H1224 H 0.38058 0.69162 0.31717 0.0
H1225 H 0.41607 0.64808 0.33815 0.0
H1226 H 0.33177 0.56201 0.27942 0.0
H1227 H 0.29598 0.60572 0.25882 0.0
C1228 C 0.39795 0.52198 0.3618 0.0
C1229 C 0.43736 0.53191 0.36601 0.0
C1230 C 0.37813 0.54351 0.34145 0.0
C1231 C 0.39749 0.57526 0.32502 0.0
C1232 C 0.43696 0.58339 0.32653 0.0
C1233 C 0.45675 0.56186 0.34686 0.0
C1234 C 0.36973 0.66341 0.30871 0.0
C1235 C 0.33555 0.65191 0.28662 0.0
C1236 C 0.3902 0.63854 0.32033 0.0
C1237 C 0.37683 0.60167 0.31011 0.0
C1238 C 0.34267 0.59022 0.28779 0.0
C1239 C 0.32223 0.61518 0.27605 0.0
H1240 H 0.19 0.33586 0.84785 0.0
H1241 H 0.17773 0.37214 0.73274 0.0
H1242 H 0.14413 0.36818 0.86758 0.0
H1243 H 0.13209 0.40536 0.75296 0.0
H1244 H 0.09547 0.49163 0.84221 0.0
H1245 H 0.1354 0.46019 0.80833 0.0
H1246 H 0.07003 0.35801 0.84366 0.0
H1247 H 0.02986 0.3891 0.8769 0.0
C1248 C 0.17782 0.35113 0.82691 0.0
C1249 C 0.18722 0.35154 0.78881 0.0
C1250 C 0.15142 0.36933 0.83811 0.0
C1251 C 0.13441 0.38869 0.81155 0.0
C1252 C 0.14482 0.39036 0.77375 0.0
C1253 C 0.17085 0.37152 0.76231 0.0
C1254 C 0.08894 0.46239 0.84161 0.0
C1255 C 0.06 0.44273 0.8625 0.0
C1256 C 0.11173 0.4445 0.8223 0.0
C1257 C 0.10593 0.4069 0.82408 0.0
C1258 C 0.07512 0.38711 0.84233 0.0
C1259 C 0.05213 0.40488 0.86117 0.0
H1260 H 0.17704 0.33048 0.26294 0.0
H1261 H 0.23143 0.3058 0.36869 0.0
H1262 H 0.14006 0.36293 0.29846 0.0
H1263 H 0.19397 0.33852 0.40448 0.0
H1264 H 0.14762 0.43337 0.45117 0.0
H1265 H 0.18527 0.39964 0.41739 0.0
H1266 H 0.08852 0.35232 0.34055 0.0
H1267 H 0.05093 0.38627 0.37442 0.0
C1268 C 0.1813 0.33196 0.29384 0.0
C1269 C 0.2075 0.31532 0.31278 0.0
C1270 C 0.15969 0.35046 0.3143 0.0
C1271 C 0.16361 0.35328 0.35449 0.0
C1272 C 0.19023 0.33716 0.37355 0.0
C1273 C 0.21173 0.31828 0.353 0.0
C1274 C 0.13434 0.41569 0.42711 0.0
C1275 C 0.09623 0.41263 0.41546 0.0
C1276 C 0.15592 0.39613 0.40784 0.0
C1277 C 0.14015 0.37316 0.37607 0.0
C1278 C 0.10188 0.37001 0.36457 0.0
C1279 C 0.0802 0.38935 0.38409 0.0
loop_
_geom_bond_atom_site_label_1
_geom_bond_atom_site_label_2
_geom_bond_distance
_geom_bond_site_symmetry_2
_ccdc_geom_bond_type
Dy0 O4 2.398 1_655 S
Dy0 O5 2.491 1_655 S
Dy0 O6 2.403 . S
Dy0 O7 2.664 1_556 S
Dy0 O11 2.326 1_656 S
Dy0 O15 2.310 1_665 S
Dy0 O16 2.351 . S
C1 O12 1.185 . S
C1 O13 1.355 . S
C2 O4 1.185 . S
C2 O5 1.355 . S
Dy3 O7 2.310 1_445 S
Dy3 O10 2.351 . S
Dy3 O12 2.398 1_455 S
Dy3 O13 2.491 1_455 S
Dy3 O14 2.403 . S
Dy3 O15 2.664 1_554 S
Dy3 O17 2.326 1_454 S
O4 Dy0 2.398 1_455 S
O4 C2 1.185 . S
O5 Dy0 2.491 1_455 S
O5 C2 1.355 . S
O6 Dy0 2.403 . S
O6 C8 1.254 1_556 S
O7 Dy0 2.664 1_554 S
O7 Dy3 2.310 1_665 S
O7 C8 1.268 . S
C8 O6 1.254 1_554 S
C8 O7 1.268 . S
C9 O14 1.254 1_556 S
C9 O15 1.268 . S
O10 Dy3 2.351 . S
O10 C18 1.249 1_545 S
O11 Dy0 2.326 1_454 S
O11 C18 1.267 . S
O12 C1 1.185 . S
O12 Dy3 2.398 1_655 S
O13 C1 1.355 . S
O13 Dy3 2.491 1_655 S
O14 Dy3 2.403 . S
O14 C9 1.254 1_554 S
O15 Dy0 2.310 1_445 S
O15 Dy3 2.664 1_556 S
O15 C9 1.268 . S
O16 Dy0 2.351 . S
O16 C19 1.249 1_565 S
O17 Dy3 2.326 1_656 S
O17 C19 1.267 . S
C18 O10 1.249 1_565 S
C18 O11 1.267 . S
C19 O16 1.249 1_545 S
C19 O17 1.267 . S
Dy20 O24 2.398 . S
Dy20 O25 2.491 . S
Dy20 O26 2.403 . S
Dy20 O27 2.664 . S
Dy20 O31 2.326 . S
Dy20 O35 2.310 . S
Dy20 O36 2.351 . S
C21 O32 1.185 . S
C21 O33 1.355 . S
C22 O24 1.185 . S
C22 O25 1.355 . S
Dy23 O27 2.310 . S
Dy23 O30 2.351 . S
Dy23 O32 2.398 . S
Dy23 O33 2.491 . S
Dy23 O34 2.403 . S
Dy23 O35 2.664 . S
Dy23 O37 2.326 . S
O24 Dy20 2.398 . S
O24 C22 1.185 . S
O25 Dy20 2.491 . S
O25 C22 1.355 . S
O26 Dy20 2.403 . S
O26 C28 1.254 . S
O27 Dy20 2.664 . S
O27 Dy23 2.310 . S
O27 C28 1.268 . S
C28 O26 1.254 . S
C28 O27 1.268 . S
C29 O34 1.254 . S
C29 O35 1.268 . S
O30 Dy23 2.351 . S
O30 C38 1.249 . S
O31 Dy20 2.326 . S
O31 C38 1.267 . S
O32 C21 1.185 . S
O32 Dy23 2.398 . S
O33 C21 1.355 . S
O33 Dy23 2.491 . S
O34 Dy23 2.403 . S
O34 C29 1.254 . S
O35 Dy20 2.310 . S
O35 Dy23 2.664 . S
O35 C29 1.268 . S
O36 Dy20 2.351 . S
O36 C39 1.249 . S
O37 Dy23 2.326 . S
O37 C39 1.267 . S
C38 O30 1.249 . S
C38 O31 1.267 . S
C39 O36 1.249 . S
C39 O37 1.267 . S
Dy40 O44 2.398 1_565 S
Dy40 O45 2.491 1_565 S
Dy40 O46 2.403 . S
Dy40 O47 2.664 . S
Dy40 O51 2.326 1_565 S
Dy40 O55 2.310 1_565 S
Dy40 O56 2.351 . S
C41 O52 1.185 . S
C41 O53 1.355 . S
C42 O44 1.185 . S
C42 O45 1.355 . S
Dy43 O47 2.310 1_545 S
Dy43 O50 2.351 . S
Dy43 O52 2.398 1_545 S
Dy43 O53 2.491 1_545 S
Dy43 O54 2.403 . S
Dy43 O55 2.664 . S
Dy43 O57 2.326 1_545 S
O44 Dy40 2.398 1_545 S
O44 C42 1.185 . S
O45 Dy40 2.491 1_545 S
O45 C42 1.355 . S
O46 Dy40 2.403 . S
O46 C48 1.254 . S
O47 Dy40 2.664 . S
O47 Dy43 2.310 1_565 S
O47 C48 1.268 . S
C48 O46 1.254 . S
C48 O47 1.268 . S
C49 O54 1.254 . S
C49 O55 1.268 . S
O50 Dy43 2.351 . S
O50 C58 1.249 . S
O51 Dy40 2.326 1_545 S
O51 C58 1.267 . S
O52 C41 1.185 . S
O52 Dy43 2.398 1_565 S
O53 C41 1.355 . S
O53 Dy43 2.491 1_565 S
O54 Dy43 2.403 . S
O54 C49 1.254 . S
O55 Dy40 2.310 1_545 S
O55 Dy43 2.664 . S
O55 C49 1.268 . S
O56 Dy40 2.351 . S
O56 C59 1.249 . S
O57 Dy43 2.326 1_565 S
O57 C59 1.267 . S
C58 O50 1.249 . S
C58 O51 1.267 . S
C59 O56 1.249 . S
C59 O57 1.267 . S
Dy60 O64 2.398 . S
Dy60 O65 2.491 . S
Dy60 O66 2.403 . S
Dy60 O67 2.664 . S
Dy60 O71 2.326 . S
Dy60 O75 2.310 . S
Dy60 O76 2.351 . S
C61 O72 1.185 . S
C61 O73 1.355 . S
C62 O64 1.185 . S
C62 O65 1.355 . S
Dy63 O67 2.310 . S
Dy63 O70 2.351 . S
Dy63 O72 2.398 . S
Dy63 O73 2.491 . S
Dy63 O74 2.403 . S
Dy63 O75 2.664 . S
Dy63 O77 2.326 . S
O64 Dy60 2.398 . S
O64 C62 1.185 . S
O65 Dy60 2.491 . S
O65 C62 1.355 . S
O66 Dy60 2.403 . S
O66 C68 1.254 . S
O67 Dy60 2.664 . S
O67 Dy63 2.310 . S
O67 C68 1.268 . S
C68 O66 1.254 . S
C68 O67 1.268 . S
C69 O74 1.254 . S
C69 O75 1.268 . S
O70 Dy63 2.351 . S
O70 C78 1.249 . S
O71 Dy60 2.326 . S
O71 C78 1.267 . S
O72 C61 1.185 . S
O72 Dy63 2.398 . S
O73 C61 1.355 . S
O73 Dy63 2.491 . S
O74 Dy63 2.403 . S
O74 C69 1.254 . S
O75 Dy60 2.310 . S
O75 Dy63 2.664 . S
O75 C69 1.268 . S
O76 Dy60 2.351 . S
O76 C79 1.249 . S
O77 Dy63 2.326 . S
O77 C79 1.267 . S
C78 O70 1.249 . S
C78 O71 1.267 . S
C79 O76 1.249 . S
C79 O77 1.267 . S
Dy80 O84 2.398 . S
Dy80 O85 2.491 . S
Dy80 O86 2.403 1_455 S
Dy80 O87 2.664 1_455 S
Dy80 O91 2.326 1_455 S
Dy80 O95 2.310 1_565 S
Dy80 O96 2.351 1_565 S
C81 O92 1.185 . S
C81 O93 1.355 . S
C82 O84 1.185 . S
C82 O85 1.355 . S
Dy83 O87 2.310 1_545 S
Dy83 O90 2.351 1_545 S
Dy83 O92 2.398 . S
Dy83 O93 2.491 . S
Dy83 O94 2.403 1_655 S
Dy83 O95 2.664 1_655 S
Dy83 O97 2.326 1_655 S
O84 Dy80 2.398 . S
O84 C82 1.185 . S
O85 Dy80 2.491 . S
O85 C82 1.355 . S
O86 Dy80 2.403 1_655 S
O86 C88 1.254 . S
O87 Dy80 2.664 1_655 S
O87 Dy83 2.310 1_565 S
O87 C88 1.268 . S
C88 O86 1.254 . S
C88 O87 1.268 . S
C89 O94 1.254 . S
C89 O95 1.268 . S
O90 Dy83 2.351 1_565 S
O90 C98 1.249 . S
O91 Dy80 2.326 1_655 S
O91 C98 1.267 . S
O92 C81 1.185 . S
O92 Dy83 2.398 . S
O93 C81 1.355 . S
O93 Dy83 2.491 . S
O94 Dy83 2.403 1_455 S
O94 C89 1.254 . S
O95 Dy80 2.310 1_545 S
O95 Dy83 2.664 1_455 S
O95 C89 1.268 . S
O96 Dy80 2.351 1_545 S
O96 C99 1.249 . S
O97 Dy83 2.326 1_455 S
O97 C99 1.267 . S
C98 O90 1.249 . S
C98 O91 1.267 . S
C99 O96 1.249 . S
C99 O97 1.267 . S
Dy100 O104 2.398 . S
Dy100 O105 2.491 . S
Dy100 O106 2.403 . S
Dy100 O107 2.664 . S
Dy100 O111 2.326 . S
Dy100 O115 2.310 . S
Dy100 O116 2.351 . S
C101 O112 1.185 . S
C101 O113 1.355 . S
C102 O104 1.185 . S
C102 O105 1.355 . S
Dy103 O107 2.310 . S
Dy103 O110 2.351 . S
Dy103 O112 2.398 . S
Dy103 O113 2.491 . S
Dy103 O114 2.403 . S
Dy103 O115 2.664 . S
Dy103 O117 2.326 . S
O104 Dy100 2.398 . S
O104 C102 1.185 . S
O105 Dy100 2.491 . S
O105 C102 1.355 . S
O106 Dy100 2.403 . S
O106 C108 1.254 . S
O107 Dy100 2.664 . S
O107 Dy103 2.310 . S
O107 C108 1.268 . S
C108 O106 1.254 . S
C108 O107 1.268 . S
C109 O114 1.254 . S
C109 O115 1.268 . S
O110 Dy103 2.351 . S
O110 C118 1.249 . S
O111 Dy100 2.326 . S
O111 C118 1.267 . S
O112 C101 1.185 . S
O112 Dy103 2.398 . S
O113 C101 1.355 . S
O113 Dy103 2.491 . S
O114 Dy103 2.403 . S
O114 C109 1.254 . S
O115 Dy100 2.310 . S
O115 Dy103 2.664 . S
O115 C109 1.268 . S
O116 Dy100 2.351 . S
O116 C119 1.249 . S
O117 Dy103 2.326 . S
O117 C119 1.267 . S
C118 O110 1.249 . S
C118 O111 1.267 . S
C119 O116 1.249 . S
C119 O117 1.267 . S
Dy120 O124 2.398 1_554 S
Dy120 O125 2.491 1_554 S
Dy120 O126 2.403 1_565 S
Dy120 O127 2.664 1_565 S
Dy120 O131 2.326 1_564 S
Dy120 O135 2.310 1_554 S
Dy120 O136 2.351 . S
C121 O132 1.185 . S
C121 O133 1.355 . S
C122 O124 1.185 . S
C122 O125 1.355 . S
Dy123 O127 2.310 1_556 S
Dy123 O130 2.351 . S
Dy123 O132 2.398 1_556 S
Dy123 O133 2.491 1_556 S
Dy123 O134 2.403 1_545 S
Dy123 O135 2.664 1_545 S
Dy123 O137 2.326 1_546 S
O124 Dy120 2.398 1_556 S
O124 C122 1.185 . S
O125 Dy120 2.491 1_556 S
O125 C122 1.355 . S
O126 Dy120 2.403 1_545 S
O126 C128 1.254 . S
O127 Dy120 2.664 1_545 S
O127 Dy123 2.310 1_554 S
O127 C128 1.268 . S
C128 O126 1.254 . S
C128 O127 1.268 . S
C129 O134 1.254 . S
C129 O135 1.268 . S
O130 Dy123 2.351 . S
O130 C138 1.249 . S
O131 Dy120 2.326 1_546 S
O131 C138 1.267 . S
O132 C121 1.185 . S
O132 Dy123 2.398 1_554 S
O133 C121 1.355 . S
O133 Dy123 2.491 1_554 S
O134 Dy123 2.403 1_565 S
O134 C129 1.254 . S
O135 Dy120 2.310 1_556 S
O135 Dy123 2.664 1_565 S
O135 C129 1.268 . S
O136 Dy120 2.351 . S
O136 C139 1.249 . S
O137 Dy123 2.326 1_564 S
O137 C139 1.267 . S
C138 O130 1.249 . S
C138 O131 1.267 . S
C139 O136 1.249 . S
C139 O137 1.267 . S
Dy140 O144 2.398 . S
Dy140 O145 2.491 . S
Dy140 O146 2.403 . S
Dy140 O147 2.664 . S
Dy140 O151 2.326 . S
Dy140 O155 2.310 . S
Dy140 O156 2.351 . S
C141 O152 1.185 . S
C141 O153 1.355 . S
C142 O144 1.185 . S
C142 O145 1.355 . S
Dy143 O147 2.310 . S
Dy143 O150 2.351 . S
Dy143 O152 2.398 . S
Dy143 O153 2.491 . S
Dy143 O154 2.403 . S
Dy143 O155 2.664 . S
Dy143 O157 2.326 . S
O144 Dy140 2.398 . S
O144 C142 1.185 . S
O145 Dy140 2.491 . S
O145 C142 1.355 . S
O146 Dy140 2.403 . S
O146 C148 1.254 . S
O147 Dy140 2.664 . S
O147 Dy143 2.310 . S
O147 C148 1.268 . S
C148 O146 1.254 . S
C148 O147 1.268 . S
C149 O154 1.254 . S
C149 O155 1.268 . S
O150 Dy143 2.351 . S
O150 C158 1.249 . S
O151 Dy140 2.326 . S
O151 C158 1.267 . S
O152 C141 1.185 . S
O152 Dy143 2.398 . S
O153 C141 1.355 . S
O153 Dy143 2.491 . S
O154 Dy143 2.403 . S
O154 C149 1.254 . S
O155 Dy140 2.310 . S
O155 Dy143 2.664 . S
O155 C149 1.268 . S
O156 Dy140 2.351 . S
O156 C159 1.249 . S
O157 Dy143 2.326 . S
O157 C159 1.267 . S
C158 O150 1.249 . S
C158 O151 1.267 . S
C159 O156 1.249 . S
C159 O157 1.267 . S
Dy160 O164 2.398 . S
Dy160 O165 2.491 . S
Dy160 O166 2.403 1_554 S
Dy160 O167 2.664 1_554 S
Dy160 O171 2.326 . S
Dy160 O175 2.310 . S
Dy160 O176 2.351 1_554 S
C161 O172 1.185 . S
C161 O173 1.355 . S
C162 O164 1.185 . S
C162 O165 1.355 . S
Dy163 O167 2.310 . S
Dy163 O170 2.351 1_556 S
Dy163 O172 2.398 . S
Dy163 O173 2.491 . S
Dy163 O174 2.403 1_556 S
Dy163 O175 2.664 1_556 S
Dy163 O177 2.326 . S
O164 Dy160 2.398 . S
O164 C162 1.185 . S
O165 Dy160 2.491 . S
O165 C162 1.355 . S
O166 Dy160 2.403 1_556 S
O166 C168 1.254 . S
O167 Dy160 2.664 1_556 S
O167 Dy163 2.310 . S
O167 C168 1.268 . S
C168 O166 1.254 . S
C168 O167 1.268 . S
C169 O174 1.254 . S
C169 O175 1.268 . S
O170 Dy163 2.351 1_554 S
O170 C178 1.249 . S
O171 Dy160 2.326 . S
O171 C178 1.267 . S
O172 C161 1.185 . S
O172 Dy163 2.398 . S
O173 C161 1.355 . S
O173 Dy163 2.491 . S
O174 Dy163 2.403 1_554 S
O174 C169 1.254 . S
O175 Dy160 2.310 . S
O175 Dy163 2.664 1_554 S
O175 C169 1.268 . S
O176 Dy160 2.351 1_556 S
O176 C179 1.249 . S
O177 Dy163 2.326 . S
O177 C179 1.267 . S
C178 O170 1.249 . S
C178 O171 1.267 . S
C179 O176 1.249 . S
C179 O177 1.267 . S
Dy180 O184 2.398 . S
Dy180 O185 2.491 . S
Dy180 O186 2.403 . S
Dy180 O187 2.664 . S
Dy180 O191 2.326 . S
Dy180 O195 2.310 . S
Dy180 O196 2.351 . S
C181 O192 1.185 . S
C181 O193 1.355 . S
C182 O184 1.185 . S
C182 O185 1.355 . S
Dy183 O187 2.310 . S
Dy183 O190 2.351 . S
Dy183 O192 2.398 . S
Dy183 O193 2.491 . S
Dy183 O194 2.403 . S
Dy183 O195 2.664 . S
Dy183 O197 2.326 . S
O184 Dy180 2.398 . S
O184 C182 1.185 . S
O185 Dy180 2.491 . S
O185 C182 1.355 . S
O186 Dy180 2.403 . S
O186 C188 1.254 . S
O187 Dy180 2.664 . S
O187 Dy183 2.310 . S
O187 C188 1.268 . S
C188 O186 1.254 . S
C188 O187 1.268 . S
C189 O194 1.254 . S
C189 O195 1.268 . S
O190 Dy183 2.351 . S
O190 C198 1.249 . S
O191 Dy180 2.326 . S
O191 C198 1.267 . S
O192 C181 1.185 . S
O192 Dy183 2.398 . S
O193 C181 1.355 . S
O193 Dy183 2.491 . S
O194 Dy183 2.403 . S
O194 C189 1.254 . S
O195 Dy180 2.310 . S
O195 Dy183 2.664 . S
O195 C189 1.268 . S
O196 Dy180 2.351 . S
O196 C199 1.249 . S
O197 Dy183 2.326 . S
O197 C199 1.267 . S
C198 O190 1.249 . S
C198 O191 1.267 . S
C199 O196 1.249 . S
C199 O197 1.267 . S
Dy200 O204 2.398 . S
Dy200 O205 2.491 . S
Dy200 O206 2.403 . S
Dy200 O207 2.664 . S
Dy200 O211 2.326 . S
Dy200 O215 2.310 1_455 S
Dy200 O216 2.351 1_455 S
C201 O212 1.185 . S
C201 O213 1.355 . S
C202 O204 1.185 . S
C202 O205 1.355 . S
Dy203 O207 2.310 1_655 S
Dy203 O210 2.351 1_655 S
Dy203 O212 2.398 . S
Dy203 O213 2.491 . S
Dy203 O214 2.403 . S
Dy203 O215 2.664 . S
Dy203 O217 2.326 . S
O204 Dy200 2.398 . S
O204 C202 1.185 . S
O205 Dy200 2.491 . S
O205 C202 1.355 . S
O206 Dy200 2.403 . S
O206 C208 1.254 . S
O207 Dy200 2.664 . S
O207 Dy203 2.310 1_455 S
O207 C208 1.268 . S
C208 O206 1.254 . S
C208 O207 1.268 . S
C209 O214 1.254 . S
C209 O215 1.268 . S
O210 Dy203 2.351 1_455 S
O210 C218 1.249 . S
O211 Dy200 2.326 . S
O211 C218 1.267 . S
O212 C201 1.185 . S
O212 Dy203 2.398 . S
O213 C201 1.355 . S
O213 Dy203 2.491 . S
O214 Dy203 2.403 . S
O214 C209 1.254 . S
O215 Dy200 2.310 1_655 S
O215 Dy203 2.664 . S
O215 C209 1.268 . S
O216 Dy200 2.351 1_655 S
O216 C219 1.249 . S
O217 Dy203 2.326 . S
O217 C219 1.267 . S
C218 O210 1.249 . S
C218 O211 1.267 . S
C219 O216 1.249 . S
C219 O217 1.267 . S
Dy220 O224 2.398 . S
Dy220 O225 2.491 . S
Dy220 O226 2.403 . S
Dy220 O227 2.664 . S
Dy220 O231 2.326 . S
Dy220 O235 2.310 . S
Dy220 O236 2.351 . S
C221 O232 1.185 . S
C221 O233 1.355 . S
C222 O224 1.185 . S
C222 O225 1.355 . S
Dy223 O227 2.310 . S
Dy223 O230 2.351 . S
Dy223 O232 2.398 . S
Dy223 O233 2.491 . S
Dy223 O234 2.403 . S
Dy223 O235 2.664 . S
Dy223 O237 2.326 . S
O224 Dy220 2.398 . S
O224 C222 1.185 . S
O225 Dy220 2.491 . S
O225 C222 1.355 . S
O226 Dy220 2.403 . S
O226 C228 1.254 . S
O227 Dy220 2.664 . S
O227 Dy223 2.310 . S
O227 C228 1.268 . S
C228 O226 1.254 . S
C228 O227 1.268 . S
C229 O234 1.254 . S
C229 O235 1.268 . S
O230 Dy223 2.351 . S
O230 C238 1.249 . S
O231 Dy220 2.326 . S
O231 C238 1.267 . S
O232 C221 1.185 . S
O232 Dy223 2.398 . S
O233 C221 1.355 . S
O233 Dy223 2.491 . S
O234 Dy223 2.403 . S
O234 C229 1.254 . S
O235 Dy220 2.310 . S
O235 Dy223 2.664 . S
O235 C229 1.268 . S
O236 Dy220 2.351 . S
O236 C239 1.249 . S
O237 Dy223 2.326 . S
O237 C239 1.267 . S
C238 O230 1.249 . S
C238 O231 1.267 . S
C239 O236 1.249 . S
C239 O237 1.267 . S
Dy240 O244 2.398 . S
Dy240 O245 2.491 . S
Dy240 O246 2.403 . S
Dy240 O247 2.664 . S
Dy240 O251 2.326 . S
Dy240 O255 2.310 . S
Dy240 O256 2.351 . S
C241 O252 1.185 . S
C241 O253 1.355 . S
C242 O244 1.185 . S
C242 O245 1.355 . S
Dy243 O247 2.310 . S
Dy243 O250 2.351 . S
Dy243 O252 2.398 . S
Dy243 O253 2.491 . S
Dy243 O254 2.403 . S
Dy243 O255 2.664 . S
Dy243 O257 2.326 . S
O244 Dy240 2.398 . S
O244 C242 1.185 . S
O245 Dy240 2.491 . S
O245 C242 1.355 . S
O246 Dy240 2.403 . S
O246 C248 1.254 . S
O247 Dy240 2.664 . S
O247 Dy243 2.310 . S
O247 C248 1.268 . S
C248 O246 1.254 . S
C248 O247 1.268 . S
C249 O254 1.254 . S
C249 O255 1.268 . S
O250 Dy243 2.351 . S
O250 C258 1.249 . S
O251 Dy240 2.326 . S
O251 C258 1.267 . S
O252 C241 1.185 . S
O252 Dy243 2.398 . S
O253 C241 1.355 . S
O253 Dy243 2.491 . S
O254 Dy243 2.403 . S
O254 C249 1.254 . S
O255 Dy240 2.310 . S
O255 Dy243 2.664 . S
O255 C249 1.268 . S
O256 Dy240 2.351 . S
O256 C259 1.249 . S
O257 Dy243 2.326 . S
O257 C259 1.267 . S
C258 O250 1.249 . S
C258 O251 1.267 . S
C259 O256 1.249 . S
C259 O257 1.267 . S
Dy260 O264 2.398 . S
Dy260 O265 2.491 . S
Dy260 O266 2.403 . S
Dy260 O267 2.664 . S
Dy260 O271 2.326 . S
Dy260 O275 2.310 . S
Dy260 O276 2.351 . S
C261 O272 1.185 . S
C261 O273 1.355 . S
C262 O264 1.185 . S
C262 O265 1.355 . S
Dy263 O267 2.310 . S
Dy263 O270 2.351 . S
Dy263 O272 2.398 . S
Dy263 O273 2.491 . S
Dy263 O274 2.403 . S
Dy263 O275 2.664 . S
Dy263 O277 2.326 . S
O264 Dy260 2.398 . S
O264 C262 1.185 . S
O265 Dy260 2.491 . S
O265 C262 1.355 . S
O266 Dy260 2.403 . S
O266 C268 1.254 . S
O267 Dy260 2.664 . S
O267 Dy263 2.310 . S
O267 C268 1.268 . S
C268 O266 1.254 . S
C268 O267 1.268 . S
C269 O274 1.254 . S
C269 O275 1.268 . S
O270 Dy263 2.351 . S
O270 C278 1.249 . S
O271 Dy260 2.326 . S
O271 C278 1.267 . S
O272 C261 1.185 . S
O272 Dy263 2.398 . S
O273 C261 1.355 . S
O273 Dy263 2.491 . S
O274 Dy263 2.403 . S
O274 C269 1.254 . S
O275 Dy260 2.310 . S
O275 Dy263 2.664 . S
O275 C269 1.268 . S
O276 Dy260 2.351 . S
O276 C279 1.249 . S
O277 Dy263 2.326 . S
O277 C279 1.267 . S
C278 O270 1.249 . S
C278 O271 1.267 . S
C279 O276 1.249 . S
C279 O277 1.267 . S
Dy280 O284 2.398 . S
Dy280 O285 2.491 . S
Dy280 O286 2.403 . S
Dy280 O287 2.664 . S
Dy280 O291 2.326 . S
Dy280 O295 2.310 . S
Dy280 O296 2.351 . S
C281 O292 1.185 . S
C281 O293 1.355 . S
C282 O284 1.185 . S
C282 O285 1.355 . S
Dy283 O287 2.310 . S
Dy283 O290 2.351 . S
Dy283 O292 2.398 . S
Dy283 O293 2.491 . S
Dy283 O294 2.403 . S
Dy283 O295 2.664 . S
Dy283 O297 2.326 . S
O284 Dy280 2.398 . S
O284 C282 1.185 . S
O285 Dy280 2.491 . S
O285 C282 1.355 . S
O286 Dy280 2.403 . S
O286 C288 1.254 . S
O287 Dy280 2.664 . S
O287 Dy283 2.310 . S
O287 C288 1.268 . S
C288 O286 1.254 . S
C288 O287 1.268 . S
C289 O294 1.254 . S
C289 O295 1.268 . S
O290 Dy283 2.351 . S
O290 C298 1.249 . S
O291 Dy280 2.326 . S
O291 C298 1.267 . S
O292 C281 1.185 . S
O292 Dy283 2.398 . S
O293 C281 1.355 . S
O293 Dy283 2.491 . S
O294 Dy283 2.403 . S
O294 C289 1.254 . S
O295 Dy280 2.310 . S
O295 Dy283 2.664 . S
O295 C289 1.268 . S
O296 Dy280 2.351 . S
O296 C299 1.249 . S
O297 Dy283 2.326 . S
O297 C299 1.267 . S
C298 O290 1.249 . S
C298 O291 1.267 . S
C299 O296 1.249 . S
C299 O297 1.267 . S
Dy300 O304 2.398 . S
Dy300 O305 2.491 . S
Dy300 O306 2.403 1_554 S
Dy300 O307 2.664 1_554 S
Dy300 O311 2.326 1_554 S
Dy300 O315 2.310 1_655 S
Dy300 O316 2.351 1_655 S
C301 O312 1.185 . S
C301 O313 1.355 . S
C302 O304 1.185 . S
C302 O305 1.355 . S
Dy303 O307 2.310 1_455 S
Dy303 O310 2.351 1_455 S
Dy303 O312 2.398 . S
Dy303 O313 2.491 . S
Dy303 O314 2.403 1_556 S
Dy303 O315 2.664 1_556 S
Dy303 O317 2.326 1_556 S
O304 Dy300 2.398 . S
O304 C302 1.185 . S
O305 Dy300 2.491 . S
O305 C302 1.355 . S
O306 Dy300 2.403 1_556 S
O306 C308 1.254 . S
O307 Dy300 2.664 1_556 S
O307 Dy303 2.310 1_655 S
O307 C308 1.268 . S
C308 O306 1.254 . S
C308 O307 1.268 . S
C309 O314 1.254 . S
C309 O315 1.268 . S
O310 Dy303 2.351 1_655 S
O310 C318 1.249 . S
O311 Dy300 2.326 1_556 S
O311 C318 1.267 . S
O312 C301 1.185 . S
O312 Dy303 2.398 . S
O313 C301 1.355 . S
O313 Dy303 2.491 . S
O314 Dy303 2.403 1_554 S
O314 C309 1.254 . S
O315 Dy300 2.310 1_455 S
O315 Dy303 2.664 1_554 S
O315 C309 1.268 . S
O316 Dy300 2.351 1_455 S
O316 C319 1.249 . S
O317 Dy303 2.326 1_554 S
O317 C319 1.267 . S
C318 O310 1.249 . S
C318 O311 1.267 . S
C319 O316 1.249 . S
C319 O317 1.267 . S
H320 C328 0.950 . S
H321 C333 0.950 . S
H322 C330 0.950 . S
H323 C332 0.950 . S
H324 C334 0.950 . S
H325 C336 0.950 . S
H326 C338 0.950 . S
H327 C339 0.950 . S
C328 H320 0.950 . S
C328 C329 1.386 . S
C328 C330 1.391 . S
C329 C328 1.386 . S
C329 C333 1.393 . S
C330 H322 0.950 . S
C330 C328 1.391 . S
C330 C331 1.400 . S
C331 C330 1.400 . S
C331 C332 1.398 . S
C331 C337 1.491 . S
C332 H323 0.950 . S
C332 C331 1.398 . S
C332 C333 1.391 . S
C333 H321 0.950 . S
C333 C329 1.393 . S
C333 C332 1.391 . S
C334 H324 0.950 . S
C334 C335 1.386 . S
C334 C336 1.391 . S
C335 C334 1.386 . S
C335 C339 1.393 . S
C336 H325 0.950 . S
C336 C334 1.391 . S
C336 C337 1.400 . S
C337 C331 1.491 . S
C337 C336 1.400 . S
C337 C338 1.398 . S
C338 H326 0.950 . S
C338 C337 1.398 . S
C338 C339 1.391 . S
C339 H327 0.950 . S
C339 C335 1.393 . S
C339 C338 1.391 . S
H340 C348 0.950 . S
H341 C353 0.950 . S
H342 C350 0.950 . S
H343 C352 0.950 . S
H344 C354 0.950 . S
H345 C356 0.950 . S
H346 C358 0.950 . S
H347 C359 0.950 . S
C348 H340 0.950 . S
C348 C349 1.386 . S
C348 C350 1.391 . S
C349 C348 1.386 . S
C349 C353 1.393 . S
C350 H342 0.950 . S
C350 C348 1.391 . S
C350 C351 1.400 . S
C351 C350 1.400 . S
C351 C352 1.398 . S
C351 C357 1.491 . S
C352 H343 0.950 . S
C352 C351 1.398 . S
C352 C353 1.391 . S
C353 H341 0.950 . S
C353 C349 1.393 . S
C353 C352 1.391 . S
C354 H344 0.950 . S
C354 C355 1.386 . S
C354 C356 1.391 . S
C355 C354 1.386 . S
C355 C359 1.393 . S
C356 H345 0.950 . S
C356 C354 1.391 . S
C356 C357 1.400 . S
C357 C351 1.491 . S
C357 C356 1.400 . S
C357 C358 1.398 . S
C358 H346 0.950 . S
C358 C357 1.398 . S
C358 C359 1.391 . S
C359 H347 0.950 . S
C359 C355 1.393 . S
C359 C358 1.391 . S
H360 C368 0.950 . S
H361 C373 0.950 . S
H362 C370 0.950 . S
H363 C372 0.950 . S
H364 C374 0.950 . S
H365 C376 0.950 . S
H366 C378 0.950 . S
H367 C379 0.950 . S
C368 H360 0.950 . S
C368 C369 1.386 . S
C368 C370 1.391 . S
C369 C368 1.386 . S
C369 C373 1.393 . S
C370 H362 0.950 . S
C370 C368 1.391 . S
C370 C371 1.400 . S
C371 C370 1.400 . S
C371 C372 1.398 . S
C371 C377 1.491 . S
C372 H363 0.950 . S
C372 C371 1.398 . S
C372 C373 1.391 . S
C373 H361 0.950 . S
C373 C369 1.393 . S
C373 C372 1.391 . S
C374 H364 0.950 . S
C374 C375 1.386 . S
C374 C376 1.391 . S
C375 C374 1.386 . S
C375 C379 1.393 . S
C376 H365 0.950 . S
C376 C374 1.391 . S
C376 C377 1.400 . S
C377 C371 1.491 . S
C377 C376 1.400 . S
C377 C378 1.398 . S
C378 H366 0.950 . S
C378 C377 1.398 . S
C378 C379 1.391 . S
C379 H367 0.950 . S
C379 C375 1.393 . S
C379 C378 1.391 . S
H380 C388 0.950 . S
H381 C393 0.950 . S
H382 C390 0.950 . S
H383 C392 0.950 . S
H384 C394 0.950 . S
H385 C396 0.950 . S
H386 C398 0.950 . S
H387 C399 0.950 . S
C388 H380 0.950 . S
C388 C389 1.386 . S
C388 C390 1.391 . S
C389 C388 1.386 . S
C389 C393 1.393 . S
C390 H382 0.950 . S
C390 C388 1.391 . S
C390 C391 1.400 . S
C391 C390 1.400 . S
C391 C392 1.398 . S
C391 C397 1.491 . S
C392 H383 0.950 . S
C392 C391 1.398 . S
C392 C393 1.391 . S
C393 H381 0.950 . S
C393 C389 1.393 . S
C393 C392 1.391 . S
C394 H384 0.950 . S
C394 C395 1.386 . S
C394 C396 1.391 . S
C395 C394 1.386 . S
C395 C399 1.393 . S
C396 H385 0.950 . S
C396 C394 1.391 . S
C396 C397 1.400 . S
C397 C391 1.491 . S
C397 C396 1.400 . S
C397 C398 1.398 . S
C398 H386 0.950 . S
C398 C397 1.398 . S
C398 C399 1.391 . S
C399 H387 0.950 . S
C399 C395 1.393 . S
C399 C398 1.391 . S
H400 C408 0.950 . S
H401 C413 0.950 . S
H402 C410 0.950 . S
H403 C412 0.950 . S
H404 C414 0.950 . S
H405 C416 0.950 . S
H406 C418 0.950 . S
H407 C419 0.950 . S
C408 H400 0.950 . S
C408 C409 1.386 . S
C408 C410 1.391 . S
C409 C408 1.386 . S
C409 C413 1.393 . S
C410 H402 0.950 . S
C410 C408 1.391 . S
C410 C411 1.400 . S
C411 C410 1.400 . S
C411 C412 1.398 . S
C411 C417 1.491 . S
C412 H403 0.950 . S
C412 C411 1.398 . S
C412 C413 1.391 . S
C413 H401 0.950 . S
C413 C409 1.393 . S
C413 C412 1.391 . S
C414 H404 0.950 . S
C414 C415 1.386 . S
C414 C416 1.391 . S
C415 C414 1.386 . S
C415 C419 1.393 . S
C416 H405 0.950 . S
C416 C414 1.391 . S
C416 C417 1.400 . S
C417 C411 1.491 . S
C417 C416 1.400 . S
C417 C418 1.398 . S
C418 H406 0.950 . S
C418 C417 1.398 . S
C418 C419 1.391 . S
C419 H407 0.950 . S
C419 C415 1.393 . S
C419 C418 1.391 . S
H420 C428 0.950 . S
H421 C433 0.950 . S
H422 C430 0.950 . S
H423 C432 0.950 . S
H424 C434 0.950 . S
H425 C436 0.950 . S
H426 C438 0.950 . S
H427 C439 0.950 . S
C428 H420 0.950 . S
C428 C429 1.386 . S
C428 C430 1.391 . S
C429 C428 1.386 . S
C429 C433 1.393 . S
C430 H422 0.950 . S
C430 C428 1.391 . S
C430 C431 1.400 . S
C431 C430 1.400 . S
C431 C432 1.398 . S
C431 C437 1.491 . S
C432 H423 0.950 . S
C432 C431 1.398 . S
C432 C433 1.391 . S
C433 H421 0.950 . S
C433 C429 1.393 . S
C433 C432 1.391 . S
C434 H424 0.950 . S
C434 C435 1.386 . S
C434 C436 1.391 . S
C435 C434 1.386 . S
C435 C439 1.393 . S
C436 H425 0.950 . S
C436 C434 1.391 . S
C436 C437 1.400 . S
C437 C431 1.491 . S
C437 C436 1.400 . S
C437 C438 1.398 . S
C438 H426 0.950 . S
C438 C437 1.398 . S
C438 C439 1.391 . S
C439 H427 0.950 . S
C439 C435 1.393 . S
C439 C438 1.391 . S
H440 C448 0.950 . S
H441 C453 0.950 . S
H442 C450 0.950 . S
H443 C452 0.950 . S
H444 C454 0.950 . S
H445 C456 0.950 . S
H446 C458 0.950 . S
H447 C459 0.950 . S
C448 H440 0.950 . S
C448 C449 1.386 . S
C448 C450 1.391 . S
C449 C448 1.386 . S
C449 C453 1.393 . S
C450 H442 0.950 . S
C450 C448 1.391 . S
C450 C451 1.400 . S
C451 C450 1.400 . S
C451 C452 1.398 . S
C451 C457 1.491 . S
C452 H443 0.950 . S
C452 C451 1.398 . S
C452 C453 1.391 . S
C453 H441 0.950 . S
C453 C449 1.393 . S
C453 C452 1.391 . S
C454 H444 0.950 . S
C454 C455 1.386 . S
C454 C456 1.391 . S
C455 C454 1.386 . S
C455 C459 1.393 . S
C456 H445 0.950 . S
C456 C454 1.391 . S
C456 C457 1.400 . S
C457 C451 1.491 . S
C457 C456 1.400 . S
C457 C458 1.398 . S
C458 H446 0.950 . S
C458 C457 1.398 . S
C458 C459 1.391 . S
C459 H447 0.950 . S
C459 C455 1.393 . S
C459 C458 1.391 . S
H460 C468 0.950 . S
H461 C473 0.950 . S
H462 C470 0.950 . S
H463 C472 0.950 . S
H464 C474 0.950 . S
H465 C476 0.950 . S
H466 C478 0.950 . S
H467 C479 0.950 . S
C468 H460 0.950 . S
C468 C469 1.386 . S
C468 C470 1.391 . S
C469 C468 1.386 . S
C469 C473 1.393 . S
C470 H462 0.950 . S
C470 C468 1.391 . S
C470 C471 1.400 . S
C471 C470 1.400 . S
C471 C472 1.398 . S
C471 C477 1.491 . S
C472 H463 0.950 . S
C472 C471 1.398 . S
C472 C473 1.391 . S
C473 H461 0.950 . S
C473 C469 1.393 . S
C473 C472 1.391 . S
C474 H464 0.950 . S
C474 C475 1.386 . S
C474 C476 1.391 . S
C475 C474 1.386 . S
C475 C479 1.393 . S
C476 H465 0.950 . S
C476 C474 1.391 . S
C476 C477 1.400 . S
C477 C471 1.491 . S
C477 C476 1.400 . S
C477 C478 1.398 . S
C478 H466 0.950 . S
C478 C477 1.398 . S
C478 C479 1.391 . S
C479 H467 0.950 . S
C479 C475 1.393 . S
C479 C478 1.391 . S
H480 C488 0.950 . S
H481 C493 0.950 . S
H482 C490 0.950 . S
H483 C492 0.950 . S
H484 C494 0.950 . S
H485 C496 0.950 . S
H486 C498 0.950 . S
H487 C499 0.950 . S
C488 H480 0.950 . S
C488 C489 1.386 . S
C488 C490 1.391 . S
C489 C488 1.386 . S
C489 C493 1.393 . S
C490 H482 0.950 . S
C490 C488 1.391 . S
C490 C491 1.400 . S
C491 C490 1.400 . S
C491 C492 1.398 . S
C491 C497 1.491 . S
C492 H483 0.950 . S
C492 C491 1.398 . S
C492 C493 1.391 . S
C493 H481 0.950 . S
C493 C489 1.393 . S
C493 C492 1.391 . S
C494 H484 0.950 . S
C494 C495 1.386 . S
C494 C496 1.391 . S
C495 C494 1.386 . S
C495 C499 1.393 . S
C496 H485 0.950 . S
C496 C494 1.391 . S
C496 C497 1.400 . S
C497 C491 1.491 . S
C497 C496 1.400 . S
C497 C498 1.398 . S
C498 H486 0.950 . S
C498 C497 1.398 . S
C498 C499 1.391 . S
C499 H487 0.950 . S
C499 C495 1.393 . S
C499 C498 1.391 . S
H500 C508 0.950 . S
H501 C513 0.950 . S
H502 C510 0.950 . S
H503 C512 0.950 . S
H504 C514 0.950 . S
H505 C516 0.950 . S
H506 C518 0.950 . S
H507 C519 0.950 . S
C508 H500 0.950 . S
C508 C509 1.386 . S
C508 C510 1.391 . S
C509 C508 1.386 . S
C509 C513 1.393 . S
C510 H502 0.950 . S
C510 C508 1.391 . S
C510 C511 1.400 . S
C511 C510 1.400 . S
C511 C512 1.398 . S
C511 C517 1.491 . S
C512 H503 0.950 . S
C512 C511 1.398 . S
C512 C513 1.391 . S
C513 H501 0.950 . S
C513 C509 1.393 . S
C513 C512 1.391 . S
C514 H504 0.950 . S
C514 C515 1.386 . S
C514 C516 1.391 . S
C515 C514 1.386 . S
C515 C519 1.393 . S
C516 H505 0.950 . S
C516 C514 1.391 . S
C516 C517 1.400 . S
C517 C511 1.491 . S
C517 C516 1.400 . S
C517 C518 1.398 . S
C518 H506 0.950 . S
C518 C517 1.398 . S
C518 C519 1.391 . S
C519 H507 0.950 . S
C519 C515 1.393 . S
C519 C518 1.391 . S
H520 C528 0.950 . S
H521 C533 0.950 . S
H522 C530 0.950 . S
H523 C532 0.950 . S
H524 C534 0.950 . S
H525 C536 0.950 . S
H526 C538 0.950 . S
H527 C539 0.950 . S
C528 H520 0.950 . S
C528 C529 1.386 . S
C528 C530 1.391 . S
C529 C528 1.386 . S
C529 C533 1.393 . S
C530 H522 0.950 . S
C530 C528 1.391 . S
C530 C531 1.400 . S
C531 C530 1.400 . S
C531 C532 1.398 . S
C531 C537 1.491 . S
C532 H523 0.950 . S
C532 C531 1.398 . S
C532 C533 1.391 . S
C533 H521 0.950 . S
C533 C529 1.393 . S
C533 C532 1.391 . S
C534 H524 0.950 . S
C534 C535 1.386 . S
C534 C536 1.391 . S
C535 C534 1.386 . S
C535 C539 1.393 . S
C536 H525 0.950 . S
C536 C534 1.391 . S
C536 C537 1.400 . S
C537 C531 1.491 . S
C537 C536 1.400 . S
C537 C538 1.398 . S
C538 H526 0.950 . S
C538 C537 1.398 . S
C538 C539 1.391 . S
C539 H527 0.950 . S
C539 C535 1.393 . S
C539 C538 1.391 . S
H540 C548 0.950 . S
H541 C553 0.950 . S
H542 C550 0.950 . S
H543 C552 0.950 . S
H544 C554 0.950 . S
H545 C556 0.950 . S
H546 C558 0.950 . S
H547 C559 0.950 . S
C548 H540 0.950 . S
C548 C549 1.386 . S
C548 C550 1.391 . S
C549 C548 1.386 . S
C549 C553 1.393 . S
C550 H542 0.950 . S
C550 C548 1.391 . S
C550 C551 1.400 . S
C551 C550 1.400 . S
C551 C552 1.398 . S
C551 C557 1.491 . S
C552 H543 0.950 . S
C552 C551 1.398 . S
C552 C553 1.391 . S
C553 H541 0.950 . S
C553 C549 1.393 . S
C553 C552 1.391 . S
C554 H544 0.950 . S
C554 C555 1.386 . S
C554 C556 1.391 . S
C555 C554 1.386 . S
C555 C559 1.393 . S
C556 H545 0.950 . S
C556 C554 1.391 . S
C556 C557 1.400 . S
C557 C551 1.491 . S
C557 C556 1.400 . S
C557 C558 1.398 . S
C558 H546 0.950 . S
C558 C557 1.398 . S
C558 C559 1.391 . S
C559 H547 0.950 . S
C559 C555 1.393 . S
C559 C558 1.391 . S
H560 C568 0.950 . S
H561 C573 0.950 . S
H562 C570 0.950 . S
H563 C572 0.950 . S
H564 C574 0.950 . S
H565 C576 0.950 . S
H566 C578 0.950 . S
H567 C579 0.950 . S
C568 H560 0.950 . S
C568 C569 1.386 . S
C568 C570 1.391 . S
C569 C568 1.386 . S
C569 C573 1.393 . S
C570 H562 0.950 . S
C570 C568 1.391 . S
C570 C571 1.400 . S
C571 C570 1.400 . S
C571 C572 1.398 . S
C571 C577 1.491 . S
C572 H563 0.950 . S
C572 C571 1.398 . S
C572 C573 1.391 . S
C573 H561 0.950 . S
C573 C569 1.393 . S
C573 C572 1.391 . S
C574 H564 0.950 . S
C574 C575 1.386 . S
C574 C576 1.391 . S
C575 C574 1.386 . S
C575 C579 1.393 . S
C576 H565 0.950 . S
C576 C574 1.391 . S
C576 C577 1.400 . S
C577 C571 1.491 . S
C577 C576 1.400 . S
C577 C578 1.398 . S
C578 H566 0.950 . S
C578 C577 1.398 . S
C578 C579 1.391 . S
C579 H567 0.950 . S
C579 C575 1.393 . S
C579 C578 1.391 . S
H580 C588 0.950 . S
H581 C593 0.950 . S
H582 C590 0.950 . S
H583 C592 0.950 . S
H584 C594 0.950 . S
H585 C596 0.950 . S
H586 C598 0.950 . S
H587 C599 0.950 . S
C588 H580 0.950 . S
C588 C589 1.386 . S
C588 C590 1.391 . S
C589 C588 1.386 . S
C589 C593 1.393 . S
C590 H582 0.950 . S
C590 C588 1.391 . S
C590 C591 1.400 . S
C591 C590 1.400 . S
C591 C592 1.398 . S
C591 C597 1.491 . S
C592 H583 0.950 . S
C592 C591 1.398 . S
C592 C593 1.391 . S
C593 H581 0.950 . S
C593 C589 1.393 . S
C593 C592 1.391 . S
C594 H584 0.950 . S
C594 C595 1.386 . S
C594 C596 1.391 . S
C595 C594 1.386 . S
C595 C599 1.393 . S
C596 H585 0.950 . S
C596 C594 1.391 . S
C596 C597 1.400 . S
C597 C591 1.491 . S
C597 C596 1.400 . S
C597 C598 1.398 . S
C598 H586 0.950 . S
C598 C597 1.398 . S
C598 C599 1.391 . S
C599 H587 0.950 . S
C599 C595 1.393 . S
C599 C598 1.391 . S
H600 C608 0.950 . S
H601 C613 0.950 . S
H602 C610 0.950 . S
H603 C612 0.950 . S
H604 C614 0.950 . S
H605 C616 0.950 . S
H606 C618 0.950 . S
H607 C619 0.950 . S
C608 H600 0.950 . S
C608 C609 1.386 . S
C608 C610 1.391 . S
C609 C608 1.386 . S
C609 C613 1.393 . S
C610 H602 0.950 . S
C610 C608 1.391 . S
C610 C611 1.400 . S
C611 C610 1.400 . S
C611 C612 1.398 . S
C611 C617 1.491 . S
C612 H603 0.950 . S
C612 C611 1.398 . S
C612 C613 1.391 . S
C613 H601 0.950 . S
C613 C609 1.393 . S
C613 C612 1.391 . S
C614 H604 0.950 . S
C614 C615 1.386 . S
C614 C616 1.391 . S
C615 C614 1.386 . S
C615 C619 1.393 . S
C616 H605 0.950 . S
C616 C614 1.391 . S
C616 C617 1.400 . S
C617 C611 1.491 . S
C617 C616 1.400 . S
C617 C618 1.398 . S
C618 H606 0.950 . S
C618 C617 1.398 . S
C618 C619 1.391 . S
C619 H607 0.950 . S
C619 C615 1.393 . S
C619 C618 1.391 . S
H620 C628 0.950 . S
H621 C633 0.950 . S
H622 C630 0.950 . S
H623 C632 0.950 . S
H624 C634 0.950 . S
H625 C636 0.950 . S
H626 C638 0.950 . S
H627 C639 0.950 . S
C628 H620 0.950 . S
C628 C629 1.386 . S
C628 C630 1.391 . S
C629 C628 1.386 . S
C629 C633 1.393 . S
C630 H622 0.950 . S
C630 C628 1.391 . S
C630 C631 1.400 . S
C631 C630 1.400 . S
C631 C632 1.398 . S
C631 C637 1.491 . S
C632 H623 0.950 . S
C632 C631 1.398 . S
C632 C633 1.391 . S
C633 H621 0.950 . S
C633 C629 1.393 . S
C633 C632 1.391 . S
C634 H624 0.950 . S
C634 C635 1.386 . S
C634 C636 1.391 . S
C635 C634 1.386 . S
C635 C639 1.393 . S
C636 H625 0.950 . S
C636 C634 1.391 . S
C636 C637 1.400 . S
C637 C631 1.491 . S
C637 C636 1.400 . S
C637 C638 1.398 . S
C638 H626 0.950 . S
C638 C637 1.398 . S
C638 C639 1.391 . S
C639 H627 0.950 . S
C639 C635 1.393 . S
C639 C638 1.391 . S
H640 C648 0.950 . S
H641 C653 0.950 . S
H642 C650 0.950 . S
H643 C652 0.950 . S
H644 C654 0.950 . S
H645 C656 0.950 . S
H646 C658 0.950 . S
H647 C659 0.950 . S
C648 H640 0.950 . S
C648 C649 1.386 . S
C648 C650 1.391 . S
C649 C648 1.386 . S
C649 C653 1.393 . S
C650 H642 0.950 . S
C650 C648 1.391 . S
C650 C651 1.400 . S
C651 C650 1.400 . S
C651 C652 1.398 . S
C651 C657 1.491 . S
C652 H643 0.950 . S
C652 C651 1.398 . S
C652 C653 1.391 . S
C653 H641 0.950 . S
C653 C649 1.393 . S
C653 C652 1.391 . S
C654 H644 0.950 . S
C654 C655 1.386 . S
C654 C656 1.391 . S
C655 C654 1.386 . S
C655 C659 1.393 . S
C656 H645 0.950 . S
C656 C654 1.391 . S
C656 C657 1.400 . S
C657 C651 1.491 . S
C657 C656 1.400 . S
C657 C658 1.398 . S
C658 H646 0.950 . S
C658 C657 1.398 . S
C658 C659 1.391 . S
C659 H647 0.950 . S
C659 C655 1.393 . S
C659 C658 1.391 . S
H660 C668 0.950 . S
H661 C673 0.950 . S
H662 C670 0.950 . S
H663 C672 0.950 . S
H664 C674 0.950 . S
H665 C676 0.950 . S
H666 C678 0.950 . S
H667 C679 0.950 . S
C668 H660 0.950 . S
C668 C669 1.386 . S
C668 C670 1.391 . S
C669 C668 1.386 . S
C669 C673 1.393 . S
C670 H662 0.950 . S
C670 C668 1.391 . S
C670 C671 1.400 . S
C671 C670 1.400 . S
C671 C672 1.398 . S
C671 C677 1.491 . S
C672 H663 0.950 . S
C672 C671 1.398 . S
C672 C673 1.391 . S
C673 H661 0.950 . S
C673 C669 1.393 . S
C673 C672 1.391 . S
C674 H664 0.950 . S
C674 C675 1.386 . S
C674 C676 1.391 . S
C675 C674 1.386 . S
C675 C679 1.393 . S
C676 H665 0.950 . S
C676 C674 1.391 . S
C676 C677 1.400 . S
C677 C671 1.491 . S
C677 C676 1.400 . S
C677 C678 1.398 . S
C678 H666 0.950 . S
C678 C677 1.398 . S
C678 C679 1.391 . S
C679 H667 0.950 . S
C679 C675 1.393 . S
C679 C678 1.391 . S
H680 C688 0.950 . S
H681 C693 0.950 . S
H682 C690 0.950 . S
H683 C692 0.950 . S
H684 C694 0.950 . S
H685 C696 0.950 . S
H686 C698 0.950 . S
H687 C699 0.950 . S
C688 H680 0.950 . S
C688 C689 1.386 . S
C688 C690 1.391 . S
C689 C688 1.386 . S
C689 C693 1.393 . S
C690 H682 0.950 . S
C690 C688 1.391 . S
C690 C691 1.400 . S
C691 C690 1.400 . S
C691 C692 1.398 . S
C691 C697 1.491 . S
C692 H683 0.950 . S
C692 C691 1.398 . S
C692 C693 1.391 . S
C693 H681 0.950 . S
C693 C689 1.393 . S
C693 C692 1.391 . S
C694 H684 0.950 . S
C694 C695 1.386 . S
C694 C696 1.391 . S
C695 C694 1.386 . S
C695 C699 1.393 . S
C696 H685 0.950 . S
C696 C694 1.391 . S
C696 C697 1.400 . S
C697 C691 1.491 . S
C697 C696 1.400 . S
C697 C698 1.398 . S
C698 H686 0.950 . S
C698 C697 1.398 . S
C698 C699 1.391 . S
C699 H687 0.950 . S
C699 C695 1.393 . S
C699 C698 1.391 . S
H700 C708 0.950 . S
H701 C713 0.950 . S
H702 C710 0.950 . S
H703 C712 0.950 . S
H704 C714 0.950 . S
H705 C716 0.950 . S
H706 C718 0.950 . S
H707 C719 0.950 . S
C708 H700 0.950 . S
C708 C709 1.386 . S
C708 C710 1.391 . S
C709 C708 1.386 . S
C709 C713 1.393 . S
C710 H702 0.950 . S
C710 C708 1.391 . S
C710 C711 1.400 . S
C711 C710 1.400 . S
C711 C712 1.398 . S
C711 C717 1.491 . S
C712 H703 0.950 . S
C712 C711 1.398 . S
C712 C713 1.391 . S
C713 H701 0.950 . S
C713 C709 1.393 . S
C713 C712 1.391 . S
C714 H704 0.950 . S
C714 C715 1.386 . S
C714 C716 1.391 . S
C715 C714 1.386 . S
C715 C719 1.393 . S
C716 H705 0.950 . S
C716 C714 1.391 . S
C716 C717 1.400 . S
C717 C711 1.491 . S
C717 C716 1.400 . S
C717 C718 1.398 . S
C718 H706 0.950 . S
C718 C717 1.398 . S
C718 C719 1.391 . S
C719 H707 0.950 . S
C719 C715 1.393 . S
C719 C718 1.391 . S
H720 C728 0.950 . S
H721 C733 0.950 . S
H722 C730 0.950 . S
H723 C732 0.950 . S
H724 C734 0.950 . S
H725 C736 0.950 . S
H726 C738 0.950 . S
H727 C739 0.950 . S
C728 H720 0.950 . S
C728 C729 1.386 . S
C728 C730 1.391 . S
C729 C728 1.386 . S
C729 C733 1.393 . S
C730 H722 0.950 . S
C730 C728 1.391 . S
C730 C731 1.400 . S
C731 C730 1.400 . S
C731 C732 1.398 . S
C731 C737 1.491 . S
C732 H723 0.950 . S
C732 C731 1.398 . S
C732 C733 1.391 . S
C733 H721 0.950 . S
C733 C729 1.393 . S
C733 C732 1.391 . S
C734 H724 0.950 . S
C734 C735 1.386 . S
C734 C736 1.391 . S
C735 C734 1.386 . S
C735 C739 1.393 . S
C736 H725 0.950 . S
C736 C734 1.391 . S
C736 C737 1.400 . S
C737 C731 1.491 . S
C737 C736 1.400 . S
C737 C738 1.398 . S
C738 H726 0.950 . S
C738 C737 1.398 . S
C738 C739 1.391 . S
C739 H727 0.950 . S
C739 C735 1.393 . S
C739 C738 1.391 . S
H740 C748 0.950 . S
H741 C753 0.950 . S
H742 C750 0.950 . S
H743 C752 0.950 . S
H744 C754 0.950 . S
H745 C756 0.950 . S
H746 C758 0.950 . S
H747 C759 0.950 . S
C748 H740 0.950 . S
C748 C749 1.386 . S
C748 C750 1.391 . S
C749 C748 1.386 . S
C749 C753 1.393 . S
C750 H742 0.950 . S
C750 C748 1.391 . S
C750 C751 1.400 . S
C751 C750 1.400 . S
C751 C752 1.398 . S
C751 C757 1.491 . S
C752 H743 0.950 . S
C752 C751 1.398 . S
C752 C753 1.391 . S
C753 H741 0.950 . S
C753 C749 1.393 . S
C753 C752 1.391 . S
C754 H744 0.950 . S
C754 C755 1.386 . S
C754 C756 1.391 . S
C755 C754 1.386 . S
C755 C759 1.393 . S
C756 H745 0.950 . S
C756 C754 1.391 . S
C756 C757 1.400 . S
C757 C751 1.491 . S
C757 C756 1.400 . S
C757 C758 1.398 . S
C758 H746 0.950 . S
C758 C757 1.398 . S
C758 C759 1.391 . S
C759 H747 0.950 . S
C759 C755 1.393 . S
C759 C758 1.391 . S
H760 C768 0.950 . S
H761 C773 0.950 . S
H762 C770 0.950 . S
H763 C772 0.950 . S
H764 C774 0.950 . S
H765 C776 0.950 . S
H766 C778 0.950 . S
H767 C779 0.950 . S
C768 H760 0.950 . S
C768 C769 1.386 . S
C768 C770 1.391 . S
C769 C768 1.386 . S
C769 C773 1.393 . S
C770 H762 0.950 . S
C770 C768 1.391 . S
C770 C771 1.400 . S
C771 C770 1.400 . S
C771 C772 1.398 . S
C771 C777 1.491 . S
C772 H763 0.950 . S
C772 C771 1.398 . S
C772 C773 1.391 . S
C773 H761 0.950 . S
C773 C769 1.393 . S
C773 C772 1.391 . S
C774 H764 0.950 . S
C774 C775 1.386 . S
C774 C776 1.391 . S
C775 C774 1.386 . S
C775 C779 1.393 . S
C776 H765 0.950 . S
C776 C774 1.391 . S
C776 C777 1.400 . S
C777 C771 1.491 . S
C777 C776 1.400 . S
C777 C778 1.398 . S
C778 H766 0.950 . S
C778 C777 1.398 . S
C778 C779 1.391 . S
C779 H767 0.950 . S
C779 C775 1.393 . S
C779 C778 1.391 . S
H780 C788 0.950 . S
H781 C793 0.950 . S
H782 C790 0.950 . S
H783 C792 0.950 . S
H784 C794 0.950 . S
H785 C796 0.950 . S
H786 C798 0.950 . S
H787 C799 0.950 . S
C788 H780 0.950 . S
C788 C789 1.386 . S
C788 C790 1.391 . S
C789 C788 1.386 . S
C789 C793 1.393 . S
C790 H782 0.950 . S
C790 C788 1.391 . S
C790 C791 1.400 . S
C791 C790 1.400 . S
C791 C792 1.398 . S
C791 C797 1.491 . S
C792 H783 0.950 . S
C792 C791 1.398 . S
C792 C793 1.391 . S
C793 H781 0.950 . S
C793 C789 1.393 . S
C793 C792 1.391 . S
C794 H784 0.950 . S
C794 C795 1.386 . S
C794 C796 1.391 . S
C795 C794 1.386 . S
C795 C799 1.393 . S
C796 H785 0.950 . S
C796 C794 1.391 . S
C796 C797 1.400 . S
C797 C791 1.491 . S
C797 C796 1.400 . S
C797 C798 1.398 . S
C798 H786 0.950 . S
C798 C797 1.398 . S
C798 C799 1.391 . S
C799 H787 0.950 . S
C799 C795 1.393 . S
C799 C798 1.391 . S
H800 C808 0.950 . S
H801 C813 0.950 . S
H802 C810 0.950 . S
H803 C812 0.950 . S
H804 C814 0.950 . S
H805 C816 0.950 . S
H806 C818 0.950 . S
H807 C819 0.950 . S
C808 H800 0.950 . S
C808 C809 1.386 . S
C808 C810 1.391 . S
C809 C808 1.386 . S
C809 C813 1.393 . S
C810 H802 0.950 . S
C810 C808 1.391 . S
C810 C811 1.400 . S
C811 C810 1.400 . S
C811 C812 1.398 . S
C811 C817 1.491 . S
C812 H803 0.950 . S
C812 C811 1.398 . S
C812 C813 1.391 . S
C813 H801 0.950 . S
C813 C809 1.393 . S
C813 C812 1.391 . S
C814 H804 0.950 . S
C814 C815 1.386 . S
C814 C816 1.391 . S
C815 C814 1.386 . S
C815 C819 1.393 . S
C816 H805 0.950 . S
C816 C814 1.391 . S
C816 C817 1.400 . S
C817 C811 1.491 . S
C817 C816 1.400 . S
C817 C818 1.398 . S
C818 H806 0.950 . S
C818 C817 1.398 . S
C818 C819 1.391 . S
C819 H807 0.950 . S
C819 C815 1.393 . S
C819 C818 1.391 . S
H820 C828 0.950 . S
H821 C833 0.950 . S
H822 C830 0.950 . S
H823 C832 0.950 . S
H824 C834 0.950 . S
H825 C836 0.950 . S
H826 C838 0.950 . S
H827 C839 0.950 . S
C828 H820 0.950 . S
C828 C829 1.386 . S
C828 C830 1.391 . S
C829 C828 1.386 . S
C829 C833 1.393 . S
C830 H822 0.950 . S
C830 C828 1.391 . S
C830 C831 1.400 . S
C831 C830 1.400 . S
C831 C832 1.398 . S
C831 C837 1.491 . S
C832 H823 0.950 . S
C832 C831 1.398 . S
C832 C833 1.391 . S
C833 H821 0.950 . S
C833 C829 1.393 . S
C833 C832 1.391 . S
C834 H824 0.950 . S
C834 C835 1.386 . S
C834 C836 1.391 . S
C835 C834 1.386 . S
C835 C839 1.393 . S
C836 H825 0.950 . S
C836 C834 1.391 . S
C836 C837 1.400 . S
C837 C831 1.491 . S
C837 C836 1.400 . S
C837 C838 1.398 . S
C838 H826 0.950 . S
C838 C837 1.398 . S
C838 C839 1.391 . S
C839 H827 0.950 . S
C839 C835 1.393 . S
C839 C838 1.391 . S
H840 C848 0.950 . S
H841 C853 0.950 . S
H842 C850 0.950 . S
H843 C852 0.950 . S
H844 C854 0.950 . S
H845 C856 0.950 . S
H846 C858 0.950 . S
H847 C859 0.950 . S
C848 H840 0.950 . S
C848 C849 1.386 . S
C848 C850 1.391 . S
C849 C848 1.386 . S
C849 C853 1.393 . S
C850 H842 0.950 . S
C850 C848 1.391 . S
C850 C851 1.400 . S
C851 C850 1.400 . S
C851 C852 1.398 . S
C851 C857 1.491 . S
C852 H843 0.950 . S
C852 C851 1.398 . S
C852 C853 1.391 . S
C853 H841 0.950 . S
C853 C849 1.393 . S
C853 C852 1.391 . S
C854 H844 0.950 . S
C854 C855 1.386 . S
C854 C856 1.391 . S
C855 C854 1.386 . S
C855 C859 1.393 . S
C856 H845 0.950 . S
C856 C854 1.391 . S
C856 C857 1.400 . S
C857 C851 1.491 . S
C857 C856 1.400 . S
C857 C858 1.398 . S
C858 H846 0.950 . S
C858 C857 1.398 . S
C858 C859 1.391 . S
C859 H847 0.950 . S
C859 C855 1.393 . S
C859 C858 1.391 . S
H860 C868 0.950 . S
H861 C873 0.950 . S
H862 C870 0.950 . S
H863 C872 0.950 . S
H864 C874 0.950 . S
H865 C876 0.950 . S
H866 C878 0.950 . S
H867 C879 0.950 . S
C868 H860 0.950 . S
C868 C869 1.386 . S
C868 C870 1.391 . S
C869 C868 1.386 . S
C869 C873 1.393 . S
C870 H862 0.950 . S
C870 C868 1.391 . S
C870 C871 1.400 . S
C871 C870 1.400 . S
C871 C872 1.398 . S
C871 C877 1.491 . S
C872 H863 0.950 . S
C872 C871 1.398 . S
C872 C873 1.391 . S
C873 H861 0.950 . S
C873 C869 1.393 . S
C873 C872 1.391 . S
C874 H864 0.950 . S
C874 C875 1.386 . S
C874 C876 1.391 . S
C875 C874 1.386 . S
C875 C879 1.393 . S
C876 H865 0.950 . S
C876 C874 1.391 . S
C876 C877 1.400 . S
C877 C871 1.491 . S
C877 C876 1.400 . S
C877 C878 1.398 . S
C878 H866 0.950 . S
C878 C877 1.398 . S
C878 C879 1.391 . S
C879 H867 0.950 . S
C879 C875 1.393 . S
C879 C878 1.391 . S
H880 C888 0.950 . S
H881 C893 0.950 . S
H882 C890 0.950 . S
H883 C892 0.950 . S
H884 C894 0.950 . S
H885 C896 0.950 . S
H886 C898 0.950 . S
H887 C899 0.950 . S
C888 H880 0.950 . S
C888 C889 1.386 . S
C888 C890 1.391 . S
C889 C888 1.386 . S
C889 C893 1.393 . S
C890 H882 0.950 . S
C890 C888 1.391 . S
C890 C891 1.400 . S
C891 C890 1.400 . S
C891 C892 1.398 . S
C891 C897 1.491 . S
C892 H883 0.950 . S
C892 C891 1.398 . S
C892 C893 1.391 . S
C893 H881 0.950 . S
C893 C889 1.393 . S
C893 C892 1.391 . S
C894 H884 0.950 . S
C894 C895 1.386 . S
C894 C896 1.391 . S
C895 C894 1.386 . S
C895 C899 1.393 . S
C896 H885 0.950 . S
C896 C894 1.391 . S
C896 C897 1.400 . S
C897 C891 1.491 . S
C897 C896 1.400 . S
C897 C898 1.398 . S
C898 H886 0.950 . S
C898 C897 1.398 . S
C898 C899 1.391 . S
C899 H887 0.950 . S
C899 C895 1.393 . S
C899 C898 1.391 . S
H900 C908 0.950 . S
H901 C913 0.950 . S
H902 C910 0.950 . S
H903 C912 0.950 . S
H904 C914 0.950 . S
H905 C916 0.950 . S
H906 C918 0.950 . S
H907 C919 0.950 . S
C908 H900 0.950 . S
C908 C909 1.386 . S
C908 C910 1.391 . S
C909 C908 1.386 . S
C909 C913 1.393 . S
C910 H902 0.950 . S
C910 C908 1.391 . S
C910 C911 1.400 . S
C911 C910 1.400 . S
C911 C912 1.398 . S
C911 C917 1.491 . S
C912 H903 0.950 . S
C912 C911 1.398 . S
C912 C913 1.391 . S
C913 H901 0.950 . S
C913 C909 1.393 . S
C913 C912 1.391 . S
C914 H904 0.950 . S
C914 C915 1.386 . S
C914 C916 1.391 . S
C915 C914 1.386 . S
C915 C919 1.393 . S
C916 H905 0.950 . S
C916 C914 1.391 . S
C916 C917 1.400 . S
C917 C911 1.491 . S
C917 C916 1.400 . S
C917 C918 1.398 . S
C918 H906 0.950 . S
C918 C917 1.398 . S
C918 C919 1.391 . S
C919 H907 0.950 . S
C919 C915 1.393 . S
C919 C918 1.391 . S
H920 C928 0.950 . S
H921 C933 0.950 . S
H922 C930 0.950 . S
H923 C932 0.950 . S
H924 C934 0.950 . S
H925 C936 0.950 . S
H926 C938 0.950 . S
H927 C939 0.950 . S
C928 H920 0.950 . S
C928 C929 1.386 . S
C928 C930 1.391 . S
C929 C928 1.386 . S
C929 C933 1.393 . S
C930 H922 0.950 . S
C930 C928 1.391 . S
C930 C931 1.400 . S
C931 C930 1.400 . S
C931 C932 1.398 . S
C931 C937 1.491 . S
C932 H923 0.950 . S
C932 C931 1.398 . S
C932 C933 1.391 . S
C933 H921 0.950 . S
C933 C929 1.393 . S
C933 C932 1.391 . S
C934 H924 0.950 . S
C934 C935 1.386 . S
C934 C936 1.391 . S
C935 C934 1.386 . S
C935 C939 1.393 . S
C936 H925 0.950 . S
C936 C934 1.391 . S
C936 C937 1.400 . S
C937 C931 1.491 . S
C937 C936 1.400 . S
C937 C938 1.398 . S
C938 H926 0.950 . S
C938 C937 1.398 . S
C938 C939 1.391 . S
C939 H927 0.950 . S
C939 C935 1.393 . S
C939 C938 1.391 . S
H940 C948 0.950 . S
H941 C953 0.950 . S
H942 C950 0.950 . S
H943 C952 0.950 . S
H944 C954 0.950 . S
H945 C956 0.950 . S
H946 C958 0.950 . S
H947 C959 0.950 . S
C948 H940 0.950 . S
C948 C949 1.386 . S
C948 C950 1.391 . S
C949 C948 1.386 . S
C949 C953 1.393 . S
C950 H942 0.950 . S
C950 C948 1.391 . S
C950 C951 1.400 . S
C951 C950 1.400 . S
C951 C952 1.398 . S
C951 C957 1.491 . S
C952 H943 0.950 . S
C952 C951 1.398 . S
C952 C953 1.391 . S
C953 H941 0.950 . S
C953 C949 1.393 . S
C953 C952 1.391 . S
C954 H944 0.950 . S
C954 C955 1.386 . S
C954 C956 1.391 . S
C955 C954 1.386 . S
C955 C959 1.393 . S
C956 H945 0.950 . S
C956 C954 1.391 . S
C956 C957 1.400 . S
C957 C951 1.491 . S
C957 C956 1.400 . S
C957 C958 1.398 . S
C958 H946 0.950 . S
C958 C957 1.398 . S
C958 C959 1.391 . S
C959 H947 0.950 . S
C959 C955 1.393 . S
C959 C958 1.391 . S
H960 C968 0.950 . S
H961 C973 0.950 . S
H962 C970 0.950 . S
H963 C972 0.950 . S
H964 C974 0.950 . S
H965 C976 0.950 . S
H966 C978 0.950 . S
H967 C979 0.950 . S
C968 H960 0.950 . S
C968 C969 1.386 . S
C968 C970 1.391 . S
C969 C968 1.386 . S
C969 C973 1.393 . S
C970 H962 0.950 . S
C970 C968 1.391 . S
C970 C971 1.400 . S
C971 C970 1.400 . S
C971 C972 1.398 . S
C971 C977 1.491 . S
C972 H963 0.950 . S
C972 C971 1.398 . S
C972 C973 1.391 . S
C973 H961 0.950 . S
C973 C969 1.393 . S
C973 C972 1.391 . S
C974 H964 0.950 . S
C974 C975 1.386 . S
C974 C976 1.391 . S
C975 C974 1.386 . S
C975 C979 1.393 . S
C976 H965 0.950 . S
C976 C974 1.391 . S
C976 C977 1.400 . S
C977 C971 1.491 . S
C977 C976 1.400 . S
C977 C978 1.398 . S
C978 H966 0.950 . S
C978 C977 1.398 . S
C978 C979 1.391 . S
C979 H967 0.950 . S
C979 C975 1.393 . S
C979 C978 1.391 . S
H980 C988 0.950 . S
H981 C993 0.950 . S
H982 C990 0.950 . S
H983 C992 0.950 . S
H984 C994 0.950 . S
H985 C996 0.950 . S
H986 C998 0.950 . S
H987 C999 0.950 . S
C988 H980 0.950 . S
C988 C989 1.386 . S
C988 C990 1.391 . S
C989 C988 1.386 . S
C989 C993 1.393 . S
C990 H982 0.950 . S
C990 C988 1.391 . S
C990 C991 1.400 . S
C991 C990 1.400 . S
C991 C992 1.398 . S
C991 C997 1.491 . S
C992 H983 0.950 . S
C992 C991 1.398 . S
C992 C993 1.391 . S
C993 H981 0.950 . S
C993 C989 1.393 . S
C993 C992 1.391 . S
C994 H984 0.950 . S
C994 C995 1.386 . S
C994 C996 1.391 . S
C995 C994 1.386 . S
C995 C999 1.393 . S
C996 H985 0.950 . S
C996 C994 1.391 . S
C996 C997 1.400 . S
C997 C991 1.491 . S
C997 C996 1.400 . S
C997 C998 1.398 . S
C998 H986 0.950 . S
C998 C997 1.398 . S
C998 C999 1.391 . S
C999 H987 0.950 . S
C999 C995 1.393 . S
C999 C998 1.391 . S
H1000 C1008 0.950 . S
H1001 C1013 0.950 . S
H1002 C1010 0.950 . S
H1003 C1012 0.950 . S
H1004 C1014 0.950 . S
H1005 C1016 0.950 . S
H1006 C1018 0.950 . S
H1007 C1019 0.950 . S
C1008 H1000 0.950 . S
C1008 C1009 1.386 . S
C1008 C1010 1.391 . S
C1009 C1008 1.386 . S
C1009 C1013 1.393 . S
C1010 H1002 0.950 . S
C1010 C1008 1.391 . S
C1010 C1011 1.400 . S
C1011 C1010 1.400 . S
C1011 C1012 1.398 . S
C1011 C1017 1.491 . S
C1012 H1003 0.950 . S
C1012 C1011 1.398 . S
C1012 C1013 1.391 . S
C1013 H1001 0.950 . S
C1013 C1009 1.393 . S
C1013 C1012 1.391 . S
C1014 H1004 0.950 . S
C1014 C1015 1.386 . S
C1014 C1016 1.391 . S
C1015 C1014 1.386 . S
C1015 C1019 1.393 . S
C1016 H1005 0.950 . S
C1016 C1014 1.391 . S
C1016 C1017 1.400 . S
C1017 C1011 1.491 . S
C1017 C1016 1.400 . S
C1017 C1018 1.398 . S
C1018 H1006 0.950 . S
C1018 C1017 1.398 . S
C1018 C1019 1.391 . S
C1019 H1007 0.950 . S
C1019 C1015 1.393 . S
C1019 C1018 1.391 . S
H1020 C1028 0.950 . S
H1021 C1033 0.950 . S
H1022 C1030 0.950 . S
H1023 C1032 0.950 . S
H1024 C1034 0.950 . S
H1025 C1036 0.950 . S
H1026 C1038 0.950 . S
H1027 C1039 0.950 . S
C1028 H1020 0.950 . S
C1028 C1029 1.386 . S
C1028 C1030 1.391 . S
C1029 C1028 1.386 . S
C1029 C1033 1.393 . S
C1030 H1022 0.950 . S
C1030 C1028 1.391 . S
C1030 C1031 1.400 . S
C1031 C1030 1.400 . S
C1031 C1032 1.398 . S
C1031 C1037 1.491 . S
C1032 H1023 0.950 . S
C1032 C1031 1.398 . S
C1032 C1033 1.391 . S
C1033 H1021 0.950 . S
C1033 C1029 1.393 . S
C1033 C1032 1.391 . S
C1034 H1024 0.950 . S
C1034 C1035 1.386 . S
C1034 C1036 1.391 . S
C1035 C1034 1.386 . S
C1035 C1039 1.393 . S
C1036 H1025 0.950 . S
C1036 C1034 1.391 . S
C1036 C1037 1.400 . S
C1037 C1031 1.491 . S
C1037 C1036 1.400 . S
C1037 C1038 1.398 . S
C1038 H1026 0.950 . S
C1038 C1037 1.398 . S
C1038 C1039 1.391 . S
C1039 H1027 0.950 . S
C1039 C1035 1.393 . S
C1039 C1038 1.391 . S
H1040 C1048 0.950 . S
H1041 C1053 0.950 . S
H1042 C1050 0.950 . S
H1043 C1052 0.950 . S
H1044 C1054 0.950 . S
H1045 C1056 0.950 . S
H1046 C1058 0.950 . S
H1047 C1059 0.950 . S
C1048 H1040 0.950 . S
C1048 C1049 1.386 . S
C1048 C1050 1.391 . S
C1049 C1048 1.386 . S
C1049 C1053 1.393 . S
C1050 H1042 0.950 . S
C1050 C1048 1.391 . S
C1050 C1051 1.400 . S
C1051 C1050 1.400 . S
C1051 C1052 1.398 . S
C1051 C1057 1.491 . S
C1052 H1043 0.950 . S
C1052 C1051 1.398 . S
C1052 C1053 1.391 . S
C1053 H1041 0.950 . S
C1053 C1049 1.393 . S
C1053 C1052 1.391 . S
C1054 H1044 0.950 . S
C1054 C1055 1.386 . S
C1054 C1056 1.391 . S
C1055 C1054 1.386 . S
C1055 C1059 1.393 . S
C1056 H1045 0.950 . S
C1056 C1054 1.391 . S
C1056 C1057 1.400 . S
C1057 C1051 1.491 . S
C1057 C1056 1.400 . S
C1057 C1058 1.398 . S
C1058 H1046 0.950 . S
C1058 C1057 1.398 . S
C1058 C1059 1.391 . S
C1059 H1047 0.950 . S
C1059 C1055 1.393 . S
C1059 C1058 1.391 . S
H1060 C1068 0.950 . S
H1061 C1073 0.950 . S
H1062 C1070 0.950 . S
H1063 C1072 0.950 . S
H1064 C1074 0.950 . S
H1065 C1076 0.950 . S
H1066 C1078 0.950 . S
H1067 C1079 0.950 . S
C1068 H1060 0.950 . S
C1068 C1069 1.386 . S
C1068 C1070 1.391 . S
C1069 C1068 1.386 . S
C1069 C1073 1.393 . S
C1070 H1062 0.950 . S
C1070 C1068 1.391 . S
C1070 C1071 1.400 . S
C1071 C1070 1.400 . S
C1071 C1072 1.398 . S
C1071 C1077 1.491 . S
C1072 H1063 0.950 . S
C1072 C1071 1.398 . S
C1072 C1073 1.391 . S
C1073 H1061 0.950 . S
C1073 C1069 1.393 . S
C1073 C1072 1.391 . S
C1074 H1064 0.950 . S
C1074 C1075 1.386 . S
C1074 C1076 1.391 . S
C1075 C1074 1.386 . S
C1075 C1079 1.393 . S
C1076 H1065 0.950 . S
C1076 C1074 1.391 . S
C1076 C1077 1.400 . S
C1077 C1071 1.491 . S
C1077 C1076 1.400 . S
C1077 C1078 1.398 . S
C1078 H1066 0.950 . S
C1078 C1077 1.398 . S
C1078 C1079 1.391 . S
C1079 H1067 0.950 . S
C1079 C1075 1.393 . S
C1079 C1078 1.391 . S
H1080 C1088 0.950 . S
H1081 C1093 0.950 . S
H1082 C1090 0.950 . S
H1083 C1092 0.950 . S
H1084 C1094 0.950 . S
H1085 C1096 0.950 . S
H1086 C1098 0.950 . S
H1087 C1099 0.950 . S
C1088 H1080 0.950 . S
C1088 C1089 1.386 . S
C1088 C1090 1.391 . S
C1089 C1088 1.386 . S
C1089 C1093 1.393 . S
C1090 H1082 0.950 . S
C1090 C1088 1.391 . S
C1090 C1091 1.400 . S
C1091 C1090 1.400 . S
C1091 C1092 1.398 . S
C1091 C1097 1.491 . S
C1092 H1083 0.950 . S
C1092 C1091 1.398 . S
C1092 C1093 1.391 . S
C1093 H1081 0.950 . S
C1093 C1089 1.393 . S
C1093 C1092 1.391 . S
C1094 H1084 0.950 . S
C1094 C1095 1.386 . S
C1094 C1096 1.391 . S
C1095 C1094 1.386 . S
C1095 C1099 1.393 . S
C1096 H1085 0.950 . S
C1096 C1094 1.391 . S
C1096 C1097 1.400 . S
C1097 C1091 1.491 . S
C1097 C1096 1.400 . S
C1097 C1098 1.398 . S
C1098 H1086 0.950 . S
C1098 C1097 1.398 . S
C1098 C1099 1.391 . S
C1099 H1087 0.950 . S
C1099 C1095 1.393 . S
C1099 C1098 1.391 . S
H1100 C1108 0.950 . S
H1101 C1113 0.950 . S
H1102 C1110 0.950 . S
H1103 C1112 0.950 . S
H1104 C1114 0.950 . S
H1105 C1116 0.950 . S
H1106 C1118 0.950 . S
H1107 C1119 0.950 . S
C1108 H1100 0.950 . S
C1108 C1109 1.386 . S
C1108 C1110 1.391 . S
C1109 C1108 1.386 . S
C1109 C1113 1.393 . S
C1110 H1102 0.950 . S
C1110 C1108 1.391 . S
C1110 C1111 1.400 . S
C1111 C1110 1.400 . S
C1111 C1112 1.398 . S
C1111 C1117 1.491 . S
C1112 H1103 0.950 . S
C1112 C1111 1.398 . S
C1112 C1113 1.391 . S
C1113 H1101 0.950 . S
C1113 C1109 1.393 . S
C1113 C1112 1.391 . S
C1114 H1104 0.950 . S
C1114 C1115 1.386 . S
C1114 C1116 1.391 . S
C1115 C1114 1.386 . S
C1115 C1119 1.393 . S
C1116 H1105 0.950 . S
C1116 C1114 1.391 . S
C1116 C1117 1.400 . S
C1117 C1111 1.491 . S
C1117 C1116 1.400 . S
C1117 C1118 1.398 . S
C1118 H1106 0.950 . S
C1118 C1117 1.398 . S
C1118 C1119 1.391 . S
C1119 H1107 0.950 . S
C1119 C1115 1.393 . S
C1119 C1118 1.391 . S
H1120 C1128 0.950 . S
H1121 C1133 0.950 . S
H1122 C1130 0.950 . S
H1123 C1132 0.950 . S
H1124 C1134 0.950 . S
H1125 C1136 0.950 . S
H1126 C1138 0.950 . S
H1127 C1139 0.950 . S
C1128 H1120 0.950 . S
C1128 C1129 1.386 . S
C1128 C1130 1.391 . S
C1129 C1128 1.386 . S
C1129 C1133 1.393 . S
C1130 H1122 0.950 . S
C1130 C1128 1.391 . S
C1130 C1131 1.400 . S
C1131 C1130 1.400 . S
C1131 C1132 1.398 . S
C1131 C1137 1.491 . S
C1132 H1123 0.950 . S
C1132 C1131 1.398 . S
C1132 C1133 1.391 . S
C1133 H1121 0.950 . S
C1133 C1129 1.393 . S
C1133 C1132 1.391 . S
C1134 H1124 0.950 . S
C1134 C1135 1.386 . S
C1134 C1136 1.391 . S
C1135 C1134 1.386 . S
C1135 C1139 1.393 . S
C1136 H1125 0.950 . S
C1136 C1134 1.391 . S
C1136 C1137 1.400 . S
C1137 C1131 1.491 . S
C1137 C1136 1.400 . S
C1137 C1138 1.398 . S
C1138 H1126 0.950 . S
C1138 C1137 1.398 . S
C1138 C1139 1.391 . S
C1139 H1127 0.950 . S
C1139 C1135 1.393 . S
C1139 C1138 1.391 . S
H1140 C1148 0.950 . S
H1141 C1153 0.950 . S
H1142 C1150 0.950 . S
H1143 C1152 0.950 . S
H1144 C1154 0.950 . S
H1145 C1156 0.950 . S
H1146 C1158 0.950 . S
H1147 C1159 0.950 . S
C1148 H1140 0.950 . S
C1148 C1149 1.386 . S
C1148 C1150 1.391 . S
C1149 C1148 1.386 . S
C1149 C1153 1.393 . S
C1150 H1142 0.950 . S
C1150 C1148 1.391 . S
C1150 C1151 1.400 . S
C1151 C1150 1.400 . S
C1151 C1152 1.398 . S
C1151 C1157 1.491 . S
C1152 H1143 0.950 . S
C1152 C1151 1.398 . S
C1152 C1153 1.391 . S
C1153 H1141 0.950 . S
C1153 C1149 1.393 . S
C1153 C1152 1.391 . S
C1154 H1144 0.950 . S
C1154 C1155 1.386 . S
C1154 C1156 1.391 . S
C1155 C1154 1.386 . S
C1155 C1159 1.393 . S
C1156 H1145 0.950 . S
C1156 C1154 1.391 . S
C1156 C1157 1.400 . S
C1157 C1151 1.491 . S
C1157 C1156 1.400 . S
C1157 C1158 1.398 . S
C1158 H1146 0.950 . S
C1158 C1157 1.398 . S
C1158 C1159 1.391 . S
C1159 H1147 0.950 . S
C1159 C1155 1.393 . S
C1159 C1158 1.391 . S
H1160 C1168 0.950 . S
H1161 C1173 0.950 . S
H1162 C1170 0.950 . S
H1163 C1172 0.950 . S
H1164 C1174 0.950 . S
H1165 C1176 0.950 . S
H1166 C1178 0.950 . S
H1167 C1179 0.950 . S
C1168 H1160 0.950 . S
C1168 C1169 1.386 . S
C1168 C1170 1.391 . S
C1169 C1168 1.386 . S
C1169 C1173 1.393 . S
C1170 H1162 0.950 . S
C1170 C1168 1.391 . S
C1170 C1171 1.400 . S
C1171 C1170 1.400 . S
C1171 C1172 1.398 . S
C1171 C1177 1.491 . S
C1172 H1163 0.950 . S
C1172 C1171 1.398 . S
C1172 C1173 1.391 . S
C1173 H1161 0.950 . S
C1173 C1169 1.393 . S
C1173 C1172 1.391 . S
C1174 H1164 0.950 . S
C1174 C1175 1.386 . S
C1174 C1176 1.391 . S
C1175 C1174 1.386 . S
C1175 C1179 1.393 . S
C1176 H1165 0.950 . S
C1176 C1174 1.391 . S
C1176 C1177 1.400 . S
C1177 C1171 1.491 . S
C1177 C1176 1.400 . S
C1177 C1178 1.398 . S
C1178 H1166 0.950 . S
C1178 C1177 1.398 . S
C1178 C1179 1.391 . S
C1179 H1167 0.950 . S
C1179 C1175 1.393 . S
C1179 C1178 1.391 . S
H1180 C1188 0.950 . S
H1181 C1193 0.950 . S
H1182 C1190 0.950 . S
H1183 C1192 0.950 . S
H1184 C1194 0.950 . S
H1185 C1196 0.950 . S
H1186 C1198 0.950 . S
H1187 C1199 0.950 . S
C1188 H1180 0.950 . S
C1188 C1189 1.386 . S
C1188 C1190 1.391 . S
C1189 C1188 1.386 . S
C1189 C1193 1.393 . S
C1190 H1182 0.950 . S
C1190 C1188 1.391 . S
C1190 C1191 1.400 . S
C1191 C1190 1.400 . S
C1191 C1192 1.398 . S
C1191 C1197 1.491 . S
C1192 H1183 0.950 . S
C1192 C1191 1.398 . S
C1192 C1193 1.391 . S
C1193 H1181 0.950 . S
C1193 C1189 1.393 . S
C1193 C1192 1.391 . S
C1194 H1184 0.950 . S
C1194 C1195 1.386 . S
C1194 C1196 1.391 . S
C1195 C1194 1.386 . S
C1195 C1199 1.393 . S
C1196 H1185 0.950 . S
C1196 C1194 1.391 . S
C1196 C1197 1.400 . S
C1197 C1191 1.491 . S
C1197 C1196 1.400 . S
C1197 C1198 1.398 . S
C1198 H1186 0.950 . S
C1198 C1197 1.398 . S
C1198 C1199 1.391 . S
C1199 H1187 0.950 . S
C1199 C1195 1.393 . S
C1199 C1198 1.391 . S
H1200 C1208 0.950 . S
H1201 C1213 0.950 . S
H1202 C1210 0.950 . S
H1203 C1212 0.950 . S
H1204 C1214 0.950 . S
H1205 C1216 0.950 . S
H1206 C1218 0.950 . S
H1207 C1219 0.950 . S
C1208 H1200 0.950 . S
C1208 C1209 1.386 . S
C1208 C1210 1.391 . S
C1209 C1208 1.386 . S
C1209 C1213 1.393 . S
C1210 H1202 0.950 . S
C1210 C1208 1.391 . S
C1210 C1211 1.400 . S
C1211 C1210 1.400 . S
C1211 C1212 1.398 . S
C1211 C1217 1.491 . S
C1212 H1203 0.950 . S
C1212 C1211 1.398 . S
C1212 C1213 1.391 . S
C1213 H1201 0.950 . S
C1213 C1209 1.393 . S
C1213 C1212 1.391 . S
C1214 H1204 0.950 . S
C1214 C1215 1.386 . S
C1214 C1216 1.391 . S
C1215 C1214 1.386 . S
C1215 C1219 1.393 . S
C1216 H1205 0.950 . S
C1216 C1214 1.391 . S
C1216 C1217 1.400 . S
C1217 C1211 1.491 . S
C1217 C1216 1.400 . S
C1217 C1218 1.398 . S
C1218 H1206 0.950 . S
C1218 C1217 1.398 . S
C1218 C1219 1.391 . S
C1219 H1207 0.950 . S
C1219 C1215 1.393 . S
C1219 C1218 1.391 . S
H1220 C1228 0.950 . S
H1221 C1233 0.950 . S
H1222 C1230 0.950 . S
H1223 C1232 0.950 . S
H1224 C1234 0.950 . S
H1225 C1236 0.950 . S
H1226 C1238 0.950 . S
H1227 C1239 0.950 . S
C1228 H1220 0.950 . S
C1228 C1229 1.386 . S
C1228 C1230 1.391 . S
C1229 C1228 1.386 . S
C1229 C1233 1.393 . S
C1230 H1222 0.950 . S
C1230 C1228 1.391 . S
C1230 C1231 1.400 . S
C1231 C1230 1.400 . S
C1231 C1232 1.398 . S
C1231 C1237 1.491 . S
C1232 H1223 0.950 . S
C1232 C1231 1.398 . S
C1232 C1233 1.391 . S
C1233 H1221 0.950 . S
C1233 C1229 1.393 . S
C1233 C1232 1.391 . S
C1234 H1224 0.950 . S
C1234 C1235 1.386 . S
C1234 C1236 1.391 . S
C1235 C1234 1.386 . S
C1235 C1239 1.393 . S
C1236 H1225 0.950 . S
C1236 C1234 1.391 . S
C1236 C1237 1.400 . S
C1237 C1231 1.491 . S
C1237 C1236 1.400 . S
C1237 C1238 1.398 . S
C1238 H1226 0.950 . S
C1238 C1237 1.398 . S
C1238 C1239 1.391 . S
C1239 H1227 0.950 . S
C1239 C1235 1.393 . S
C1239 C1238 1.391 . S
H1240 C1248 0.950 . S
H1241 C1253 0.950 . S
H1242 C1250 0.950 . S
H1243 C1252 0.950 . S
H1244 C1254 0.950 . S
H1245 C1256 0.950 . S
H1246 C1258 0.950 . S
H1247 C1259 0.950 . S
C1248 H1240 0.950 . S
C1248 C1249 1.386 . S
C1248 C1250 1.391 . S
C1249 C1248 1.386 . S
C1249 C1253 1.393 . S
C1250 H1242 0.950 . S
C1250 C1248 1.391 . S
C1250 C1251 1.400 . S
C1251 C1250 1.400 . S
C1251 C1252 1.398 . S
C1251 C1257 1.491 . S
C1252 H1243 0.950 . S
C1252 C1251 1.398 . S
C1252 C1253 1.391 . S
C1253 H1241 0.950 . S
C1253 C1249 1.393 . S
C1253 C1252 1.391 . S
C1254 H1244 0.950 . S
C1254 C1255 1.386 . S
C1254 C1256 1.391 . S
C1255 C1254 1.386 . S
C1255 C1259 1.393 . S
C1256 H1245 0.950 . S
C1256 C1254 1.391 . S
C1256 C1257 1.400 . S
C1257 C1251 1.491 . S
C1257 C1256 1.400 . S
C1257 C1258 1.398 . S
C1258 H1246 0.950 . S
C1258 C1257 1.398 . S
C1258 C1259 1.391 . S
C1259 H1247 0.950 . S
C1259 C1255 1.393 . S
C1259 C1258 1.391 . S
H1260 C1268 0.950 . S
H1261 C1273 0.950 . S
H1262 C1270 0.950 . S
H1263 C1272 0.950 . S
H1264 C1274 0.950 . S
H1265 C1276 0.950 . S
H1266 C1278 0.950 . S
H1267 C1279 0.950 . S
C1268 H1260 0.950 . S
C1268 C1269 1.386 . S
C1268 C1270 1.391 . S
C1269 C1268 1.386 . S
C1269 C1273 1.393 . S
C1270 H1262 0.950 . S
C1270 C1268 1.391 . S
C1270 C1271 1.400 . S
C1271 C1270 1.400 . S
C1271 C1272 1.398 . S
C1271 C1277 1.491 . S
C1272 H1263 0.950 . S
C1272 C1271 1.398 . S
C1272 C1273 1.391 . S
C1273 H1261 0.950 . S
C1273 C1269 1.393 . S
C1273 C1272 1.391 . S
C1274 H1264 0.950 . S
C1274 C1275 1.386 . S
C1274 C1276 1.391 . S
C1275 C1274 1.386 . S
C1275 C1279 1.393 . S
C1276 H1265 0.950 . S
C1276 C1274 1.391 . S
C1276 C1277 1.400 . S
C1277 C1271 1.491 . S
C1277 C1276 1.400 . S
C1277 C1278 1.398 . S
C1278 H1266 0.950 . S
C1278 C1277 1.398 . S
C1278 C1279 1.391 . S
C1279 H1267 0.950 . S
C1279 C1275 1.393 . S
C1279 C1278 1.391 . S
C329 C79 1.362 . S
C335 C9 1.375 . S
C349 C18 1.409 . S
C355 C21 1.416 . S
C369 C48 0.843 . S
C375 C29 0.855 . S
C389 C62 1.123 . S
C395 C42 1.127 . S
C409 C82 1.751 . S
C415 C118 1.741 . S
C429 C109 0.826 . S
C435 C129 0.839 . S
C449 C121 1.985 . S
C455 C158 1.958 . S
C469 C99 1.401 . S
C475 C149 1.412 . S
C489 C181 1.376 . S
C495 C1 1.376 . S
C509 C218 1.408 . S
C515 C38 1.415 . S
C529 C59 1.740 . S
C535 C261 1.748 . S
C549 C168 0.757 . S
C555 C68 0.759 . S
C569 C228 0.812 . S
C575 C88 0.815 . S
C589 C299 1.685 . S
C595 C101 1.699 . S
C609 C138 1.214 . S
C615 C258 1.217 . S
C629 C319 1.684 . S
C635 C141 1.690 . S
C649 C179 1.371 . S
C655 C269 1.379 . S
C669 C198 1.625 . S
C675 C162 1.640 . S
C689 C209 0.754 . S
C695 C189 0.750 . S
C709 C288 1.439 . S
C715 C239 1.425 . S
C729 C249 0.683 . S
C735 C308 0.690 . S
C749 C238 1.366 . S
C755 C8 1.376 . S
C769 C242 1.430 . S
C775 C19 1.394 . S
C789 C248 0.864 . S
C795 C49 0.835 . S
C809 C41 1.129 . S
C815 C221 1.108 . S
C829 C199 1.758 . S
C835 C81 1.760 . S
C849 C188 0.838 . S
C855 C128 0.830 . S
C869 C279 1.954 . S
C875 C122 1.993 . S
C889 C98 1.402 . S
C895 C268 1.417 . S
C909 C102 1.362 . S
C915 C2 1.364 . S
C929 C219 1.433 . S
C935 C259 1.441 . S
C949 C58 1.732 . S
C955 C142 1.752 . S
C969 C169 0.765 . S
C975 C229 0.747 . S
C989 C69 0.800 . S
C995 C89 0.820 . S
C1009 C182 1.706 . S
C1015 C298 1.685 . S
C1029 C139 1.225 . S
C1035 C39 1.221 . S
C1049 C318 1.679 . S
C1055 C262 1.696 . S
C1069 C178 1.384 . S
C1075 C148 1.389 . S
C1089 C161 1.646 . S
C1095 C119 1.635 . S
C1109 C208 0.737 . S
C1115 C108 0.726 . S
C1129 C78 1.414 . S
C1135 C289 1.425 . S
C1149 C28 0.707 . S
C1155 C309 0.697 . S
C1169 C241 1.104 . S
C1175 C282 1.107 . S
C1189 C222 1.171 . S
C1195 C302 1.214 . S
C1209 C201 1.949 . S
C1215 C278 1.924 . S
C1229 C281 1.109 . S
C1235 C22 1.093 . S
C1249 C61 1.172 . S
C1255 C301 1.207 . S
C1269 C159 1.917 . S
C1275 C202 1.948 . S
