# Generated by pormake.
# Topology unx, (4)-cn, num edge types: 1
# Building blocks:
#     Node 0, Type 0, BuildingBlock: GALJAG_clean_sbu_0, # of connection points: 4
#     Node 1, Type 0, BuildingBlock: GALJAG_clean_sbu_0, # of connection points: 4
#     Node 2, Type 0, BuildingBlock: GALJAG_clean_sbu_0, # of connection points: 4
#     Node 3, Type 0, BuildingBlock: GALJAG_clean_sbu_0, # of connection points: 4
#     Node 4, Type 0, BuildingBlock: GALJAG_clean_sbu_0, # of connection points: 4
#     Node 5, Type 0, BuildingBlock: GALJAG_clean_sbu_0, # of connection points: 4
#     Node 6, Type 0, BuildingBlock: GALJAG_clean_sbu_0, # of connection points: 4
#     Node 7, Type 0, BuildingBlock: GALJAG_clean_sbu_0, # of connection points: 4
#     Node 8, Type 0, BuildingBlock: GALJAG_clean_sbu_0, # of connection points: 4
#     Node 9, Type 0, BuildingBlock: GALJAG_clean_sbu_0, # of connection points: 4
#     Node 10, Type 0, BuildingBlock: GALJAG_clean_sbu_0, # of connection points: 4
#     Node 11, Type 0, BuildingBlock: GALJAG_clean_sbu_0, # of connection points: 4
#     Node 12, Type 0, BuildingBlock: GALJAG_clean_sbu_0, # of connection points: 4
#     Node 13, Type 0, BuildingBlock: GALJAG_clean_sbu_0, # of connection points: 4
#     Node 14, Type 0, BuildingBlock: GALJAG_clean_sbu_0, # of connection points: 4
#     Node 15, Type 0, BuildingBlock: GALJAG_clean_sbu_0, # of connection points: 4
#     Node 16, Type 0, BuildingBlock: GALJAG_clean_sbu_0, # of connection points: 4
#     Node 17, Type 0, BuildingBlock: GALJAG_clean_sbu_0, # of connection points: 4
#     Node 18, Type 0, BuildingBlock: GALJAG_clean_sbu_0, # of connection points: 4
#     Node 19, Type 0, BuildingBlock: GALJAG_clean_sbu_0, # of connection points: 4
#     Node 20, Type 0, BuildingBlock: GALJAG_clean_sbu_0, # of connection points: 4
#     Node 21, Type 0, BuildingBlock: GALJAG_clean_sbu_0, # of connection points: 4
#     Node 22, Type 0, BuildingBlock: GALJAG_clean_sbu_0, # of connection points: 4
#     Node 23, Type 0, BuildingBlock: GALJAG_clean_sbu_0, # of connection points: 4
#     Node 24, Type 0, BuildingBlock: GALJAG_clean_sbu_0, # of connection points: 4
#     Node 25, Type 0, BuildingBlock: GALJAG_clean_sbu_0, # of connection points: 4
#     Node 26, Type 0, BuildingBlock: GALJAG_clean_sbu_0, # of connection points: 4
#     Node 27, Type 0, BuildingBlock: GALJAG_clean_sbu_0, # of connection points: 4
#     Node 28, Type 0, BuildingBlock: GALJAG_clean_sbu_0, # of connection points: 4
#     Node 29, Type 0, BuildingBlock: GALJAG_clean_sbu_0, # of connection points: 4
#     Node 30, Type 0, BuildingBlock: GALJAG_clean_sbu_0, # of connection points: 4
#     Node 31, Type 0, BuildingBlock: GALJAG_clean_sbu_0, # of connection points: 4
#     Node 32, Type 0, BuildingBlock: GALJAG_clean_sbu_0, # of connection points: 4
#     Node 33, Type 0, BuildingBlock: GALJAG_clean_sbu_0, # of connection points: 4
#     Node 34, Type 0, BuildingBlock: GALJAG_clean_sbu_0, # of connection points: 4
#     Node 35, Type 0, BuildingBlock: GALJAG_clean_sbu_0, # of connection points: 4
#     Node 36, Type 0, BuildingBlock: GALJAG_clean_sbu_0, # of connection points: 4
#     Node 37, Type 0, BuildingBlock: GALJAG_clean_sbu_0, # of connection points: 4
#     Node 38, Type 0, BuildingBlock: GALJAG_clean_sbu_0, # of connection points: 4
#     Node 39, Type 0, BuildingBlock: GALJAG_clean_sbu_0, # of connection points: 4
#     Node 40, Type 0, BuildingBlock: GALJAG_clean_sbu_0, # of connection points: 4
#     Node 41, Type 0, BuildingBlock: GALJAG_clean_sbu_0, # of connection points: 4
#     Node 42, Type 0, BuildingBlock: GALJAG_clean_sbu_0, # of connection points: 4
#     Node 43, Type 0, BuildingBlock: GALJAG_clean_sbu_0, # of connection points: 4
#     Node 44, Type 0, BuildingBlock: GALJAG_clean_sbu_0, # of connection points: 4
#     Node 45, Type 0, BuildingBlock: GALJAG_clean_sbu_0, # of connection points: 4
#     Node 46, Type 0, BuildingBlock: GALJAG_clean_sbu_0, # of connection points: 4
#     Node 47, Type 0, BuildingBlock: GALJAG_clean_sbu_0, # of connection points: 4
#     Edge 48, Type (0, 0), None
#     Edge 49, Type (0, 0), None
#     Edge 50, Type (0, 0), None
#     Edge 51, Type (0, 0), None
#     Edge 52, Type (0, 0), None
#     Edge 53, Type (0, 0), None
#     Edge 54, Type (0, 0), None
#     Edge 55, Type (0, 0), None
#     Edge 56, Type (0, 0), None
#     Edge 57, Type (0, 0), None
#     Edge 58, Type (0, 0), None
#     Edge 59, Type (0, 0), None
#     Edge 60, Type (0, 0), None
#     Edge 61, Type (0, 0), None
#     Edge 62, Type (0, 0), None
#     Edge 63, Type (0, 0), None
#     Edge 64, Type (0, 0), None
#     Edge 65, Type (0, 0), None
#     Edge 66, Type (0, 0), None
#     Edge 67, Type (0, 0), None
#     Edge 68, Type (0, 0), None
#     Edge 69, Type (0, 0), None
#     Edge 70, Type (0, 0), None
#     Edge 71, Type (0, 0), None
#     Edge 72, Type (0, 0), None
#     Edge 73, Type (0, 0), None
#     Edge 74, Type (0, 0), None
#     Edge 75, Type (0, 0), None
#     Edge 76, Type (0, 0), None
#     Edge 77, Type (0, 0), None
#     Edge 78, Type (0, 0), None
#     Edge 79, Type (0, 0), None
#     Edge 80, Type (0, 0), None
#     Edge 81, Type (0, 0), None
#     Edge 82, Type (0, 0), None
#     Edge 83, Type (0, 0), None
#     Edge 84, Type (0, 0), None
#     Edge 85, Type (0, 0), None
#     Edge 86, Type (0, 0), None
#     Edge 87, Type (0, 0), None
#     Edge 88, Type (0, 0), None
#     Edge 89, Type (0, 0), None
#     Edge 90, Type (0, 0), None
#     Edge 91, Type (0, 0), None
#     Edge 92, Type (0, 0), None
#     Edge 93, Type (0, 0), None
#     Edge 94, Type (0, 0), None
#     Edge 95, Type (0, 0), None
#     Edge 96, Type (0, 0), None
#     Edge 97, Type (0, 0), None
#     Edge 98, Type (0, 0), None
#     Edge 99, Type (0, 0), None
#     Edge 100, Type (0, 0), None
#     Edge 101, Type (0, 0), None
#     Edge 102, Type (0, 0), None
#     Edge 103, Type (0, 0), None
#     Edge 104, Type (0, 0), None
#     Edge 105, Type (0, 0), None
#     Edge 106, Type (0, 0), None
#     Edge 107, Type (0, 0), None
#     Edge 108, Type (0, 0), None
#     Edge 109, Type (0, 0), None
#     Edge 110, Type (0, 0), None
#     Edge 111, Type (0, 0), None
#     Edge 112, Type (0, 0), None
#     Edge 113, Type (0, 0), None
#     Edge 114, Type (0, 0), None
#     Edge 115, Type (0, 0), None
#     Edge 116, Type (0, 0), None
#     Edge 117, Type (0, 0), None
#     Edge 118, Type (0, 0), None
#     Edge 119, Type (0, 0), None
#     Edge 120, Type (0, 0), None
#     Edge 121, Type (0, 0), None
#     Edge 122, Type (0, 0), None
#     Edge 123, Type (0, 0), None
#     Edge 124, Type (0, 0), None
#     Edge 125, Type (0, 0), None
#     Edge 126, Type (0, 0), None
#     Edge 127, Type (0, 0), None
#     Edge 128, Type (0, 0), None
#     Edge 129, Type (0, 0), None
#     Edge 130, Type (0, 0), None
#     Edge 131, Type (0, 0), None
#     Edge 132, Type (0, 0), None
#     Edge 133, Type (0, 0), None
#     Edge 134, Type (0, 0), None
#     Edge 135, Type (0, 0), None
#     Edge 136, Type (0, 0), None
#     Edge 137, Type (0, 0), None
#     Edge 138, Type (0, 0), None
#     Edge 139, Type (0, 0), None
#     Edge 140, Type (0, 0), None
#     Edge 141, Type (0, 0), None
#     Edge 142, Type (0, 0), None
#     Edge 143, Type (0, 0), None
# Relax obj value: 0.526
# Max RMSD: 0.260
# Mean RMSD: 0.214
data_MOF--net-unx--node1-GALJAG_clean_sbu_0--edge1-none
_symmetry_space_group_name_H-M    P1
_symmetry_Int_Tables_number       1
_symmetry_cell_setting            triclinic
loop_
_symmetry_equiv_pos_as_xyz
'x, y, z'
_cell_length_a     23.934863
_cell_length_b     24.036056
_cell_length_c     23.841205
_cell_angle_alpha  89.930997
_cell_angle_beta   90.045882
_cell_angle_gamma 90.214466
loop_
_atom_site_label
_atom_site_type_symbol
_atom_site_fract_x
_atom_site_fract_y
_atom_site_fract_z
_atom_type_partial_charge
In0 In 0.25161 0.53135 0.27014 0.0
O1 O 0.32118 0.58137 0.30719 0.0
O2 O 0.32069 0.49307 0.32441 0.0
C3 C 0.18285 0.55644 0.18629 0.0
C4 C 0.31597 0.51158 0.18452 0.0
C5 C 0.16777 0.53416 0.34383 0.0
O6 O 0.21007 0.59324 0.21371 0.0
O7 O 0.18829 0.50641 0.20297 0.0
O8 O 0.19082 0.48853 0.32948 0.0
O9 O 0.19041 0.57806 0.32449 0.0
C10 C 0.34664 0.53936 0.32719 0.0
O11 O 0.28686 0.47238 0.20656 0.0
O12 O 0.31312 0.55926 0.20721 0.0
In13 In 0.62672 0.28686 0.48416 0.0
O14 O 0.55336 0.29172 0.42396 0.0
O15 O 0.63365 0.27265 0.39022 0.0
C16 C 0.60185 0.38723 0.5332 0.0
C17 C 0.61608 0.18064 0.52785 0.0
C18 C 0.72479 0.33474 0.45972 0.0
O19 O 0.57759 0.37071 0.48924 0.0
O20 O 0.63048 0.35003 0.55693 0.0
O21 O 0.70744 0.33017 0.50939 0.0
O22 O 0.69928 0.30413 0.42503 0.0
C23 C 0.58257 0.282 0.38068 0.0
O24 O 0.66104 0.20808 0.52708 0.0
O25 O 0.57478 0.20782 0.51015 0.0
In26 In 0.97548 0.92418 0.6025 0.0
O27 O 0.93596 0.94029 0.68574 0.0
O28 O 0.91455 0.99491 0.61735 0.0
C29 C 0.01555 0.82971 0.57226 0.0
C30 C 0.88176 0.87487 0.56815 0.0
C31 C 0.08037 0.96649 0.60142 0.0
O32 O 1.00542 0.84039 0.62361 0.0
O33 O 1.00748 0.86823 0.53663 0.0
O34 O 0.04425 0.97904 0.56442 0.0
O35 O 0.06156 0.93773 0.64198 0.0
C36 C 0.90332 0.97734 0.66638 0.0
O37 O 0.90677 0.91039 0.53666 0.0
O38 O 0.90511 0.86414 0.61468 0.0
In39 In 0.42337 0.05031 0.92265 0.0
O40 O 0.48882 0.11769 0.90336 0.0
O41 O 0.40876 0.11865 0.86091 0.0
C42 C 0.42555 0.94635 0.9665 0.0
C43 C 0.36325 0.12416 0.97803 0.0
C44 C 0.44836 1.0083 0.82667 0.0
O45 O 0.46359 0.98203 0.97683 0.0
O46 O 0.38393 0.96528 0.93958 0.0
O47 O 0.39796 0.01951 0.83952 0.0
O48 O 0.48565 0.01617 0.86386 0.0
C49 C 0.45591 0.14171 0.86847 0.0
O50 O 0.34178 0.0908 0.94257 0.0
O51 O 0.41291 0.11311 0.99328 0.0
In52 In 0.05593 0.42389 0.91553 0.0
O53 O 0.02551 0.34015 0.89427 0.0
O54 O 0.02357 0.36761 0.9813 0.0
C55 C 0.12818 0.47757 0.85167 0.0
C56 C 0.95127 0.46613 0.91652 0.0
C57 C 0.14948 0.37438 0.94954 0.0
O58 O 0.0953 0.44054 0.83229 0.0
O59 O 0.11716 0.49489 0.90078 0.0
O60 O 0.12473 0.40968 0.9812 0.0
O61 O 0.126 0.36399 0.90299 0.0
C62 C 0.01534 0.32921 0.94559 0.0
O63 O 0.98743 0.47861 0.95358 0.0
O64 O 0.96993 0.43742 0.87603 0.0
In65 In 0.924 0.47295 0.09478 0.0
O66 O 0.89785 0.50346 0.17769 0.0
O67 O 0.98569 0.50776 0.15415 0.0
C68 C 0.86368 0.39891 0.03921 0.0
C69 C 0.92646 0.57691 0.05088 0.0
C70 C 0.95662 0.38169 0.14893 0.0
O71 O 0.84228 0.43222 0.07457 0.0
O72 O 0.91344 0.41005 0.02421 0.0
O73 O 0.98959 0.40609 0.11425 0.0
O74 O 0.90944 0.40433 0.15631 0.0
C75 C 0.9481 0.51525 0.19099 0.0
O76 O 0.96443 0.54142 0.04064 0.0
O77 O 0.88478 0.55775 0.07769 0.0
In78 In 0.77867 0.03154 0.24789 0.0
O79 O 0.82104 0.09329 0.30406 0.0
O80 O 0.84184 1.00639 0.31505 0.0
C81 C 0.68357 0.03909 0.19093 0.0
C82 C 0.86239 0.03411 0.17413 0.0
C83 C 0.71431 0.01235 0.33369 0.0
O84 O 0.7093 0.08125 0.21055 0.0
O85 O 0.70926 0.99286 0.19403 0.0
O86 O 0.74292 0.97296 0.31181 0.0
O87 O 0.71762 0.05996 0.31074 0.0
C88 C 0.8479 0.05641 0.33155 0.0
O89 O 0.83896 0.98854 0.18868 0.0
O90 O 0.84016 0.0781 0.19326 0.0
In91 In 0.12765 0.23657 0.5338 0.0
O92 O 0.20846 0.19403 0.5086 0.0
O93 O 0.20033 0.21992 0.59297 0.0
C94 C 0.1163 0.34264 0.49009 0.0
C95 C 0.10285 0.13601 0.48468 0.0
C96 C 0.08371 0.24123 0.63729 0.0
O97 O 0.16146 0.31585 0.49095 0.0
O98 O 0.0752 0.31485 0.50771 0.0
O99 O 0.05446 0.23107 0.59405 0.0
O100 O 0.13476 0.25102 0.62772 0.0
C101 C 0.22587 0.18958 0.55828 0.0
O102 O 0.07863 0.15232 0.52864 0.0
O103 O 0.13147 0.17344 0.46101 0.0
In104 In 0.10736 0.97279 0.42264 0.0
O105 O 0.18896 0.93235 0.44284 0.0
O106 O 0.11778 0.90987 0.49335 0.0
C107 C 0.08251 0.01499 0.32657 0.0
C108 C 0.07494 0.88147 0.36833 0.0
C109 C 0.10518 0.07666 0.46649 0.0
O110 O 0.13289 1.00374 0.33957 0.0
O111 O 0.04518 1.00708 0.36367 0.0
O112 O 0.06712 0.04097 0.47674 0.0
O113 O 0.1468 0.05779 0.43964 0.0
C114 C 0.16747 0.8989 0.47826 0.0
O115 O 0.04198 0.9054 0.40311 0.0
O116 O 0.1221 0.90455 0.36095 0.0
In117 In 0.27916 0.49195 0.77009 0.0
O118 O 0.24373 0.55069 0.70625 0.0
O119 O 0.21768 0.46374 0.70723 0.0
C120 C 0.36298 0.48909 0.84392 0.0
C121 C 0.18416 0.48421 0.82711 0.0
C122 C 0.34793 0.46704 0.68633 0.0
O123 O 0.33997 0.53474 0.82941 0.0
O124 O 0.34032 0.4452 0.82466 0.0
O125 O 0.32081 0.43018 0.71381 0.0
O126 O 0.34241 0.51705 0.70291 0.0
C127 C 0.2147 0.51137 0.68435 0.0
O128 O 0.20956 0.44211 0.80735 0.0
O129 O 0.21014 0.53047 0.82409 0.0
In130 In 0.90408 0.73677 0.98359 0.0
O131 O 0.97738 0.73195 0.92343 0.0
O132 O 0.89707 0.7511 0.88961 0.0
C133 C 0.92892 0.63632 0.03273 0.0
C134 C 0.91476 0.84289 0.02734 0.0
C135 C 0.80599 0.68887 0.95919 0.0
O136 O 0.95321 0.65292 0.98882 0.0
O137 O 0.90031 0.6735 0.05639 0.0
O138 O 0.82338 0.69345 1.00886 0.0
O139 O 0.83146 0.71949 0.92444 0.0
C140 C 0.94814 0.74171 0.88012 0.0
O141 O 0.86977 0.8155 0.02636 0.0
O142 O 0.95606 0.81572 0.00975 0.0
In143 In 0.55537 0.09888 0.10242 0.0
O144 O 0.59489 0.08252 0.18571 0.0
O145 O 0.61639 0.02816 0.11728 0.0
C146 C 0.51515 0.19348 0.07248 0.0
C147 C 0.64903 0.14835 0.06807 0.0
C148 C 0.45051 0.05648 0.10123 0.0
O149 O 0.52545 0.18256 0.12378 0.0
O150 O 0.52314 0.15513 0.03674 0.0
O151 O 0.48661 0.04405 0.06426 0.0
O152 O 0.46934 0.08514 0.14181 0.0
C153 C 0.62758 0.0456 0.16635 0.0
O154 O 0.62396 0.11294 0.03655 0.0
O155 O 0.62576 0.15889 0.11461 0.0
In156 In 0.53078 0.35037 0.01257 0.0
O157 O 0.62299 0.37242 0.02395 0.0
O158 O 0.60214 0.30019 0.97675 0.0
C159 C 0.49515 0.404 0.10647 0.0
C160 C 0.49846 0.36603 0.90568 0.0
C161 C 0.51368 0.25011 0.05409 0.0
O162 O 0.53307 0.42432 0.07539 0.0
O163 O 0.46946 0.36391 0.08428 0.0
O164 O 0.49052 0.26494 1.00897 0.0
O165 O 0.54589 0.28499 0.07655 0.0
C166 C 0.63998 0.33116 0.99592 0.0
O167 O 0.46653 0.34495 0.94196 0.0
O168 O 0.54163 0.38837 0.92585 0.0
In169 In 0.03461 0.75109 0.26336 0.0
O170 O 0.98888 0.69258 0.32236 0.0
O171 O 0.07884 0.69603 0.32594 0.0
C172 C 0.01321 0.83723 0.20067 0.0
C173 C 0.06015 0.83196 0.33522 0.0
C174 C 0.04434 0.69517 0.16771 0.0
O175 O 0.97433 0.81397 0.22934 0.0
O176 O 0.0613 0.8153 0.20286 0.0
O177 O 0.08608 0.71551 0.19385 0.0
O178 O 0.99765 0.69723 0.19318 0.0
C179 C 0.03369 0.6778 0.34724 0.0
O180 O 0.09719 0.8058 0.30726 0.0
O181 O 1.00991 0.8159 0.32834 0.0
In182 In 0.42554 0.41761 0.54007 0.0
O183 O 0.34184 0.39271 0.51038 0.0
O184 O 0.36614 0.4799 0.50706 0.0
C185 C 0.47912 0.3535 0.6122 0.0
C186 C 0.46937 0.42101 0.43551 0.0
C187 C 0.37742 0.45212 0.63444 0.0
O188 O 0.4419 0.33451 0.57917 0.0
O189 O 0.49644 0.40239 0.60154 0.0
O190 O 0.41216 0.48375 0.60852 0.0
O191 O 0.36679 0.40577 0.6115 0.0
C192 C 0.32882 0.44294 0.4996 0.0
O193 O 0.48157 0.45703 0.47262 0.0
O194 O 0.44033 0.38038 0.45324 0.0
In195 In 0.99074 0.62482 0.77624 0.0
O196 O 0.9333 0.54981 0.78134 0.0
O197 O 0.8968 0.62905 0.7643 0.0
C198 C 0.04218 0.5995 0.87592 0.0
C199 C 0.03141 0.61689 0.66834 0.0
C200 C 0.96635 0.72177 0.82516 0.0
O201 O 0.99717 0.57647 0.86096 0.0
O202 O 0.06551 0.6271 0.83736 0.0
O203 O 0.01588 0.70513 0.81973 0.0
O204 O 0.93133 0.69601 0.7951 0.0
C205 C 0.8891 0.5777 0.77321 0.0
O206 O 0.03114 0.66107 0.69672 0.0
O207 O 0.01482 0.57495 0.69537 0.0
In208 In 0.10519 0.606 0.03993 0.0
O209 O 0.11851 0.53985 0.10852 0.0
O210 O 0.16406 0.61775 0.11131 0.0
C211 C 0.0613 0.60262 0.93534 0.0
C212 C 0.05177 0.67005 0.11199 0.0
C213 C 0.20181 0.58041 0.9996 0.0
O214 O 0.04913 0.56659 0.97252 0.0
O215 O 0.09033 0.64326 0.95301 0.0
O216 O 0.18893 0.63067 0.01022 0.0
O217 O 0.16441 0.54354 1.00715 0.0
C218 C 0.15334 0.57142 0.13436 0.0
O219 O 0.08897 0.68907 0.07896 0.0
O220 O 0.03433 0.62122 0.10133 0.0
In221 In 0.4902 0.89871 0.2412 0.0
O222 O 0.43277 0.97332 0.23602 0.0
O223 O 0.39627 0.89387 0.25325 0.0
C224 C 0.54146 0.924 0.14138 0.0
C225 C 0.53129 0.90705 0.34903 0.0
C226 C 0.46553 0.80151 0.19252 0.0
O227 O 0.49654 0.94684 0.1563 0.0
O228 O 0.56481 0.89665 0.18001 0.0
O229 O 0.5151 0.81842 0.19799 0.0
O230 O 0.43065 0.82714 0.22257 0.0
C231 C 0.38858 0.94514 0.24423 0.0
O232 O 0.53078 0.86282 0.32072 0.0
O233 O 0.51468 0.94886 0.32197 0.0
In234 In 0.49632 0.27226 0.76362 0.0
O235 O 0.55655 0.20937 0.72972 0.0
O236 O 0.46959 0.20815 0.70311 0.0
C237 C 0.49708 0.34542 0.84746 0.0
C238 C 0.48658 0.32834 0.66795 0.0
C239 C 0.47073 0.19129 0.83543 0.0
O240 O 0.54194 0.33072 0.82273 0.0
O241 O 0.45196 0.32719 0.82605 0.0
O242 O 0.43372 0.21751 0.80739 0.0
O243 O 0.521 0.20735 0.82868 0.0
C244 C 0.51766 0.18619 0.701 0.0
O245 O 0.44485 0.30796 0.69404 0.0
O246 O 0.53328 0.32623 0.69348 0.0
In247 In 0.53981 0.39883 0.2765 0.0
O248 O 0.53345 0.44718 0.36111 0.0
O249 O 0.46508 0.39656 0.33757 0.0
C250 C 0.64143 0.44598 0.27344 0.0
C251 C 0.56429 0.30192 0.32567 0.0
C252 C 0.49919 0.40656 0.16851 0.0
O253 O 0.59723 0.47387 0.28143 0.0
O254 O 0.63373 0.39463 0.26466 0.0
O255 O 0.49945 0.36243 0.19707 0.0
O256 O 0.51567 0.44858 0.1954 0.0
C257 C 0.48847 0.42412 0.37609 0.0
O258 O 0.51474 0.31852 0.32017 0.0
O259 O 0.59927 0.32769 0.29557 0.0
In260 In 0.24117 0.03324 0.62342 0.0
O261 O 0.23635 0.09193 0.54882 0.0
O262 O 0.25521 0.12666 0.62906 0.0
C263 C 0.13996 0.9846 0.59909 0.0
C264 C 0.34715 0.98952 0.61321 0.0
C265 C 0.19592 0.05802 0.7228 0.0
O266 O 0.15622 0.02868 0.5754 0.0
O267 O 0.17767 0.96067 0.62704 0.0
O268 O 0.19885 1.00879 0.70504 0.0
O269 O 0.22651 0.09209 0.69649 0.0
C270 C 0.2459 0.13534 0.57757 0.0
O271 O 0.31938 0.98994 0.65804 0.0
O272 O 0.32033 1.00763 0.57161 0.0
In273 In 0.85996 0.99856 0.99886 0.0
O274 O 0.93361 0.93568 0.99503 0.0
O275 O 0.87467 0.92672 0.06008 0.0
C276 C 0.83854 0.01513 0.88992 0.0
C277 C 0.75906 0.9585 0.01864 0.0
C278 C 0.87641 0.10596 0.02766 0.0
O279 O 0.87975 0.98654 0.90615 0.0
O280 O 0.80846 0.03438 0.92835 0.0
O281 O 0.85355 0.07117 0.05987 0.0
O282 O 0.90013 0.08422 0.98601 0.0
C283 C 0.91382 0.90448 0.03309 0.0
O284 O 0.77658 1.00127 0.04385 0.0
O285 O 0.7917 0.93753 0.98325 0.0
In286 In 1.00286 0.50354 0.35119 0.0
O287 O 0.93968 0.50425 0.42547 0.0
O288 O 0.9302 0.56376 0.36113 0.0
C289 C 0.02021 0.39462 0.3361 0.0
C290 C 0.96383 0.51775 0.24882 0.0
C291 C 0.10988 0.53505 0.36499 0.0
O292 O 0.99076 0.41263 0.37612 0.0
O293 O 0.03998 0.4313 0.30416 0.0
O294 O 0.07431 0.56527 0.34099 0.0
O295 O 0.08908 0.49459 0.39147 0.0
C296 C 0.90819 0.54007 0.40269 0.0
O297 O 1.00628 0.54417 0.26558 0.0
O298 O 0.94265 0.48375 0.28294 0.0
In299 In 0.24791 0.74795 0.49343 0.0
O300 O 0.21169 0.81758 0.44285 0.0
O301 O 0.19358 0.81689 0.53154 0.0
C302 C 0.33044 0.67929 0.46549 0.0
C303 C 0.33421 0.8107 0.51696 0.0
C304 C 0.17429 0.66389 0.49119 0.0
O305 O 0.30345 0.70771 0.42926 0.0
O306 O 0.31414 0.68374 0.51607 0.0
O307 O 0.18922 0.68688 0.53709 0.0
O308 O 0.19286 0.68679 0.44687 0.0
C309 C 0.19129 0.84284 0.485 0.0
O310 O 0.31124 0.78077 0.55511 0.0
O311 O 0.31201 0.80959 0.46863 0.0
In312 In 0.02703 1.00312 0.16655 0.0
O313 O 0.95617 0.06498 0.17681 0.0
O314 O 0.94062 0.9943 0.12659 0.0
C315 C 0.06641 0.01731 0.26883 0.0
C316 C 1.0091 0.89413 0.18142 0.0
C317 C 0.12204 0.03929 0.11481 0.0
O318 O 0.02405 0.04363 0.25215 0.0
O319 O 0.08725 0.98332 0.23471 0.0
O320 O 0.09011 1.00357 0.09219 0.0
O321 O 0.10028 0.06316 0.15625 0.0
C322 C 0.92027 0.03483 0.15295 0.0
O323 O 0.03804 0.91244 0.14103 0.0
O324 O 0.99002 0.93054 0.21382 0.0
In325 In 0.74796 0.77572 0.52411 0.0
O326 O 0.68944 0.83672 0.48056 0.0
O327 O 0.69332 0.83675 0.57077 0.0
C328 C 0.83403 0.71323 0.50054 0.0
C329 C 0.83073 0.84448 0.55227 0.0
C330 C 0.69098 0.68073 0.53268 0.0
O331 O 0.81115 0.74313 0.46242 0.0
O332 O 0.81186 0.71422 0.54884 0.0
O333 O 0.71159 0.70608 0.57478 0.0
O334 O 0.69324 0.70663 0.4861 0.0
C335 C 0.67474 0.85964 0.5265 0.0
O336 O 0.8036 0.81594 0.58842 0.0
O337 O 0.81443 0.84012 0.50165 0.0
In338 In 0.79062 0.5324 0.89446 0.0
O339 O 0.83272 0.50826 0.81278 0.0
O340 O 0.80519 0.59143 0.8213 0.0
C341 C 0.68441 0.48854 0.90484 0.0
C342 C 0.89175 0.48414 0.91877 0.0
C343 C 0.78608 0.63447 0.94 0.0
O344 O 0.71227 0.48872 0.86005 0.0
O345 O 0.7113 0.50681 0.94636 0.0
O346 O 0.7956 0.59113 0.96889 0.0
O347 O 0.77681 0.62572 0.88853 0.0
C348 C 0.83567 0.55754 0.79501 0.0
O349 O 0.8757 0.52821 0.94231 0.0
O350 O 0.85388 0.46006 0.89098 0.0
In351 In 0.35998 0.52444 0.01931 0.0
O352 O 0.37948 0.53654 0.11215 0.0
O353 O 0.30816 0.48828 0.08962 0.0
C354 C 0.41387 0.61879 0.98483 0.0
C355 C 0.37676 0.41731 0.99024 0.0
C356 C 0.25931 0.5642 0.99933 0.0
O357 O 0.4334 0.58804 0.02332 0.0
O358 O 0.37501 0.59592 0.95763 0.0
O359 O 0.27639 0.52114 0.97458 0.0
O360 O 0.29223 0.58558 0.0344 0.0
C361 C 0.3381 0.50781 0.12819 0.0
O362 O 0.35368 0.45195 0.95816 0.0
O363 O 0.40045 0.43918 0.03198 0.0
In364 In 0.28287 0.27511 0.99332 0.0
O365 O 0.21973 0.24228 0.05517 0.0
O366 O 0.21868 0.21352 0.96874 0.0
C367 C 0.35639 0.35921 0.99121 0.0
C368 C 0.33943 0.18021 0.98479 0.0
C369 C 0.20033 0.34386 0.9653 0.0
O370 O 0.34157 0.33603 0.03709 0.0
O371 O 0.33783 0.33644 0.94684 0.0
O372 O 0.22724 0.31547 0.92909 0.0
O373 O 0.21669 0.33931 0.01588 0.0
C374 C 0.19663 0.2124 0.0171 0.0
O375 O 0.31891 0.20557 0.94267 0.0
O376 O 0.33731 0.20606 0.03133 0.0
In377 In 0.28968 0.98977 0.12315 0.0
O378 O 0.21153 0.0329 0.15785 0.0
O379 O 0.21047 0.01571 0.07133 0.0
C380 C 0.33509 0.96491 0.22249 0.0
C381 C 0.28485 0.88768 0.07744 0.0
C382 C 0.39091 0.03839 0.09885 0.0
O383 O 0.33209 0.01418 0.20474 0.0
O384 O 0.30449 0.93081 0.19626 0.0
O385 O 0.37459 0.99436 0.07517 0.0
O386 O 0.35323 0.06229 0.12675 0.0
C387 C 0.18372 0.03357 0.113 0.0
O388 O 0.29436 0.93112 0.04864 0.0
O389 O 0.27561 0.89635 0.12891 0.0
In390 In 0.67089 0.02508 0.499 0.0
O391 O 0.59725 0.08798 0.49526 0.0
O392 O 0.65631 0.09667 0.56034 0.0
C393 C 0.6924 1.00879 0.39011 0.0
C394 C 0.77182 0.06505 0.51884 0.0
C395 C 0.65442 0.91763 0.52765 0.0
O396 O 0.65129 0.03752 0.40621 0.0
O397 O 0.72231 0.98923 0.42861 0.0
O398 O 0.67737 0.95226 0.55992 0.0
O399 O 0.63057 0.93952 0.48605 0.0
C400 C 0.6171 0.11901 0.5334 0.0
O401 O 0.7543 0.02222 0.54403 0.0
O402 O 0.73914 0.08615 0.48345 0.0
In403 In 0.52785 0.51979 0.85142 0.0
O404 O 0.52435 0.47925 0.76586 0.0
O405 O 0.58796 0.53968 0.78316 0.0
C406 C 0.42087 0.48818 0.86518 0.0
C407 C 0.62265 0.48333 0.90287 0.0
C408 C 0.51042 0.62872 0.8362 0.0
O409 O 0.45643 0.45804 0.84121 0.0
O410 O 0.44166 0.5286 0.89167 0.0
O411 O 0.53983 0.61066 0.87632 0.0
O412 O 0.49073 0.59209 0.80423 0.0
C413 C 0.5668 0.50567 0.74909 0.0
O414 O 0.59121 0.51912 0.92564 0.0
O415 O 0.60054 0.45957 0.86142 0.0
In416 In 0.53437 0.77206 0.75397 0.0
O417 O 0.58534 0.80844 0.82364 0.0
O418 O 0.49674 0.82526 0.82405 0.0
C419 C 0.55944 0.69134 0.68203 0.0
C420 C 0.51418 0.68562 0.81675 0.0
C421 C 0.53379 0.84563 0.6703 0.0
O422 O 0.59662 0.7178 0.70983 0.0
O423 O 0.50922 0.70706 0.68904 0.0
O424 O 0.48888 0.83041 0.69487 0.0
O425 O 0.57886 0.82758 0.69173 0.0
C426 C 0.54338 0.82811 0.84965 0.0
O427 O 0.47489 0.70833 0.78837 0.0
O428 O 0.56213 0.70822 0.81428 0.0
In429 In 0.03067 0.17232 1.00542 0.0
O430 O 0.96639 0.17757 0.07588 0.0
O431 O 0.04148 0.1348 0.09234 0.0
C432 C 0.01387 0.27258 0.96399 0.0
C433 C 0.13993 0.19157 0.0222 0.0
C434 C 0.99533 0.11863 0.91121 0.0
O435 O 0.99043 0.2575 1.0089 0.0
O436 O 0.04625 0.23799 0.94175 0.0
O437 O 0.03289 0.09834 0.94262 0.0
O438 O 0.96971 0.15864 0.93321 0.0
C439 C 0.99833 0.15694 0.11232 0.0
O440 O 0.12265 0.15007 0.9945 0.0
O441 O 0.10235 0.22277 0.04097 0.0
In442 In 0.92641 0.1059 0.47766 0.0
O443 O 0.91222 0.03969 0.40929 0.0
O444 O 0.86759 0.11774 0.40626 0.0
C445 C 0.9705 0.10229 0.58216 0.0
C446 C 0.98036 0.1701 0.40557 0.0
C447 C 0.82952 0.08099 0.51832 0.0
O448 O 0.98232 0.06631 0.54498 0.0
O449 O 0.94175 0.14296 0.5645 0.0
O450 O 0.84301 0.13114 0.50736 0.0
O451 O 0.86643 0.04389 0.51093 0.0
C452 C 0.87771 0.07134 0.38337 0.0
O453 O 0.94343 0.18905 0.43873 0.0
O454 O 0.99727 0.12115 0.41607 0.0
In455 In 0.04091 0.12432 0.7414 0.0
O456 O 0.01593 0.20456 0.69792 0.0
O457 O 0.10048 0.19582 0.72248 0.0
C458 C 0.99989 0.11624 0.8492 0.0
C459 C 0.98958 0.09907 0.6416 0.0
C460 C 0.14249 0.07782 0.74453 0.0
O461 O 1.00059 0.16044 0.82077 0.0
O462 O 0.01624 0.07431 0.8223 0.0
O463 O 0.09827 0.04964 0.73646 0.0
O464 O 0.13487 0.12909 0.75345 0.0
C465 C 0.06551 0.2214 0.69238 0.0
O466 O 0.03447 0.07615 0.65662 0.0
O467 O 0.96626 0.12642 0.68014 0.0
In468 In 0.50013 0.85109 0.50529 0.0
O469 O 0.54025 0.76587 0.50904 0.0
O470 O 0.48465 0.78554 0.44163 0.0
C471 C 0.53249 0.86655 0.61215 0.0
C472 C 0.5356 0.90468 0.41106 0.0
C473 C 0.39089 0.83163 0.52198 0.0
O474 O 0.5644 0.84581 0.57585 0.0
O475 O 0.48939 0.88881 0.59205 0.0
O476 O 0.40808 0.87312 0.49413 0.0
O477 O 0.42854 0.80056 0.54097 0.0
C478 C 0.51694 0.75089 0.46402 0.0
O479 O 0.49791 0.92497 0.44221 0.0
O480 O 0.56128 0.86477 0.43333 0.0
In481 In 0.60453 0.91729 0.9775 0.0
O482 O 0.54868 0.95683 0.04471 0.0
O483 O 0.58924 0.88015 0.0644 0.0
C484 C 0.65328 0.95175 0.8832 0.0
C485 C 0.70139 0.94244 0.01818 0.0
C486 C 0.55055 0.85317 0.90546 0.0
O487 O 0.61875 0.98342 0.90894 0.0
O488 O 0.66339 0.90536 0.90625 0.0
O489 O 0.58749 0.83418 0.93869 0.0
O490 O 0.53358 0.9021 0.9159 0.0
C491 C 0.5605 0.92081 0.08196 0.0
O492 O 0.68799 0.89225 1.00739 0.0
O493 O 0.66439 0.97946 0.01064 0.0
In494 In 0.74015 0.49119 0.39462 0.0
O495 O 0.69782 0.5154 0.31296 0.0
O496 O 0.7254 0.43223 0.32158 0.0
C497 C 0.84644 0.53487 0.40473 0.0
C498 C 0.63911 0.53948 0.41898 0.0
C499 C 0.74473 0.38912 0.4404 0.0
O500 O 0.81845 0.53475 0.35998 0.0
O501 O 0.81964 0.51671 0.44636 0.0
O502 O 0.73533 0.43246 0.4692 0.0
O503 O 0.75386 0.39786 0.38891 0.0
C504 C 0.69486 0.46613 0.29526 0.0
O505 O 0.6552 0.49535 0.44252 0.0
O506 O 0.67693 0.56358 0.39113 0.0
In507 In 0.17058 0.49859 0.51911 0.0
O508 O 0.17691 0.57127 0.45803 0.0
O509 O 0.13009 0.58383 0.53179 0.0
C510 C 0.27129 0.45901 0.49926 0.0
C511 C 0.19255 0.51504 0.62798 0.0
C512 C 0.11684 0.40428 0.48459 0.0
O513 O 0.25408 0.50201 0.47435 0.0
O514 O 0.23847 0.43758 0.5344 0.0
O515 O 0.09719 0.43492 0.523 0.0
O516 O 0.15569 0.4272 0.45744 0.0
C517 C 0.15389 0.60579 0.49014 0.0
O518 O 0.15123 0.48622 0.61195 0.0
O519 O 0.22239 0.53471 0.58941 0.0
In520 In 0.50383 0.02036 0.66672 0.0
O521 O 0.49271 0.11114 0.64132 0.0
O522 O 0.54101 0.09282 0.71398 0.0
C523 C 0.40885 0.9841 0.61507 0.0
C524 C 0.61053 0.98856 0.65289 0.0
C525 C 0.46451 1.00604 0.76897 0.0
O526 O 0.44058 0.02001 0.59243 0.0
O527 O 0.43077 0.9601 0.65643 0.0
O528 O 0.50704 0.97995 0.75247 0.0
O529 O 0.44348 0.03987 0.7347 0.0
C530 C 0.52176 0.12934 0.68167 0.0
O531 O 0.57468 0.95845 0.67688 0.0
O532 O 0.59011 0.02917 0.62659 0.0
In533 In 0.78272 0.24776 0.02417 0.0
O534 O 0.72719 0.20725 0.08841 0.0
O535 O 0.71624 0.1834 1.0016 0.0
C536 C 0.83968 0.34278 0.0325 0.0
C537 C 0.85596 0.1639 0.02653 0.0
C538 C 0.69656 0.31026 1.00088 0.0
O539 O 0.81927 0.31736 0.07469 0.0
O540 O 0.83724 0.31695 0.98596 0.0
O541 O 0.71934 0.28055 0.96266 0.0
O542 O 0.71886 0.3091 0.04916 0.0
C543 C 0.70002 0.17883 0.05222 0.0
O544 O 0.84117 0.18692 0.9806 0.0
O545 O 0.83749 0.18667 0.07083 0.0
In546 In 0.99641 0.25134 0.25399 0.0
O547 O 0.05581 0.31509 0.28842 0.0
O548 O 0.96856 0.31511 0.31415 0.0
C549 C 0.99702 0.17791 0.1704 0.0
C550 C 0.98748 0.1952 0.34972 0.0
C551 C 0.97133 0.33211 0.18193 0.0
O552 O 0.04192 0.19309 0.19504 0.0
O553 O 0.95192 0.19588 0.19174 0.0
O554 O 0.93415 0.30559 0.20968 0.0
O555 O 0.02156 0.31641 0.18904 0.0
C556 C 0.01649 0.33774 0.3167 0.0
O557 O 0.94548 0.21484 0.32363 0.0
O558 O 0.03411 0.19812 0.32419 0.0
In559 In 0.99978 0.67298 0.51225 0.0
O560 O 0.03988 0.7585 0.50853 0.0
O561 O 0.98489 0.73817 0.5763 0.0
C562 C 0.03219 0.65727 0.40552 0.0
C563 C 0.03538 0.61936 0.6063 0.0
C564 C 0.89059 0.69231 0.49551 0.0
O565 O 0.06412 0.67835 0.44181 0.0
O566 O 0.98898 0.63496 0.42561 0.0
O567 O 0.90758 0.65091 0.52347 0.0
O568 O 0.92842 0.72331 0.47637 0.0
C569 C 0.01694 0.77316 0.55375 0.0
O570 O 0.99736 0.59909 0.5753 0.0
O571 O 0.06124 0.6593 0.58397 0.0
In572 In 0.75229 0.99172 0.74775 0.0
O573 O 0.69196 0.0348 0.68845 0.0
O574 O 0.6907 0.94523 0.69322 0.0
C575 C 0.81663 1.01138 0.8335 0.0
C576 C 0.68315 0.9667 0.83143 0.0
C577 C 0.84736 0.98393 0.69091 0.0
O578 O 0.7879 0.05064 0.81139 0.0
O579 O 0.81345 0.96371 0.81081 0.0
O580 O 0.82163 0.94184 0.71076 0.0
O581 O 0.82168 0.03017 0.69372 0.0
C582 C 0.66845 0.98924 0.67404 0.0
O583 O 0.71008 0.92987 0.80408 0.0
O584 O 0.6891 0.01672 0.81479 0.0
In585 In 0.4031 0.78641 0.034 0.0
O586 O 0.45217 0.87062 0.02872 0.0
O587 O 0.3992 0.8496 0.96112 0.0
C588 C 0.44721 0.78172 0.13747 0.0
C589 C 0.30497 0.83348 0.05829 0.0
C590 C 0.41432 0.6804 0.99045 0.0
O591 O 0.47641 0.79185 0.09421 0.0
O592 O 0.39614 0.77191 0.12795 0.0
O593 O 0.36912 0.70713 0.99143 0.0
O594 O 0.4555 0.70822 1.00783 0.0
C595 C 0.42787 0.88699 0.98475 0.0
O596 O 0.3223 0.82905 1.00862 0.0
O597 O 0.33051 0.80314 0.09311 0.0
In598 In 0.4749 0.59965 0.41569 0.0
O599 O 0.50523 0.68343 0.39436 0.0
O600 O 0.50728 0.65583 0.48143 0.0
C601 C 0.4026 0.54612 0.35182 0.0
C602 C 0.57959 0.55747 0.4167 0.0
C603 C 0.38133 0.64892 0.44975 0.0
O604 O 0.43539 0.58323 0.33243 0.0
O605 O 0.41372 0.52865 0.4009 0.0
O606 O 0.40619 0.61357 0.48139 0.0
O607 O 0.40472 0.65948 0.4032 0.0
C608 C 0.51543 0.69428 0.44568 0.0
O609 O 0.54348 0.54488 0.45374 0.0
O610 O 0.56086 0.58627 0.3762 0.0
In611 In 0.60667 0.55055 0.59509 0.0
O612 O 0.56629 0.48211 0.54096 0.0
O613 O 0.64594 0.46577 0.57817 0.0
C614 C 0.57412 0.64178 0.64912 0.0
C615 C 0.58252 0.50818 0.69128 0.0
C616 C 0.66696 0.62463 0.53952 0.0
O617 O 0.54113 0.61744 0.61441 0.0
O618 O 0.6213 0.61911 0.65657 0.0
O619 O 0.68838 0.59129 0.57496 0.0
O620 O 0.61721 0.61348 0.52442 0.0
C621 C 0.60428 0.44663 0.55129 0.0
O622 O 0.63279 0.51993 0.67807 0.0
O623 O 0.54493 0.51572 0.65437 0.0
loop_
_geom_bond_atom_site_label_1
_geom_bond_atom_site_label_2
_geom_bond_distance
_geom_bond_site_symmetry_2
_ccdc_geom_bond_type
In0 O1 2.294 . S
In0 O2 2.326 . S
In0 O6 2.266 . S
In0 O7 2.326 . S
In0 O8 2.266 . S
In0 O9 2.326 . S
In0 O11 2.294 . S
In0 O12 2.326 . S
O1 In0 2.294 . S
O1 C10 1.240 . S
O2 In0 2.326 . S
O2 C10 1.252 . S
C3 O6 1.252 . S
C3 O7 1.260 . S
C4 O11 1.240 . S
C4 O12 1.252 . S
C5 O8 1.252 . S
C5 O9 1.260 . S
O6 In0 2.266 . S
O6 C3 1.252 . S
O7 In0 2.326 . S
O7 C3 1.260 . S
O8 In0 2.266 . S
O8 C5 1.252 . S
O9 In0 2.326 . S
O9 C5 1.260 . S
C10 O1 1.240 . S
C10 O2 1.252 . S
O11 In0 2.294 . S
O11 C4 1.240 . S
O12 In0 2.326 . S
O12 C4 1.252 . S
In13 O14 2.294 . S
In13 O15 2.326 . S
In13 O19 2.266 . S
In13 O20 2.326 . S
In13 O21 2.266 . S
In13 O22 2.326 . S
In13 O24 2.294 . S
In13 O25 2.326 . S
O14 In13 2.294 . S
O14 C23 1.240 . S
O15 In13 2.326 . S
O15 C23 1.252 . S
C16 O19 1.252 . S
C16 O20 1.260 . S
C17 O24 1.240 . S
C17 O25 1.252 . S
C18 O21 1.252 . S
C18 O22 1.260 . S
O19 In13 2.266 . S
O19 C16 1.252 . S
O20 In13 2.326 . S
O20 C16 1.260 . S
O21 In13 2.266 . S
O21 C18 1.252 . S
O22 In13 2.326 . S
O22 C18 1.260 . S
C23 O14 1.240 . S
C23 O15 1.252 . S
O24 In13 2.294 . S
O24 C17 1.240 . S
O25 In13 2.326 . S
O25 C17 1.252 . S
In26 O27 2.294 . S
In26 O28 2.326 . S
In26 O32 2.266 . S
In26 O33 2.326 . S
In26 O34 2.266 . S
In26 O35 2.326 . S
In26 O37 2.294 . S
In26 O38 2.326 . S
O27 In26 2.294 . S
O27 C36 1.240 . S
O28 In26 2.326 . S
O28 C36 1.252 . S
C29 O32 1.252 . S
C29 O33 1.260 . S
C30 O37 1.240 . S
C30 O38 1.252 . S
C31 O34 1.252 1_455 S
C31 O35 1.260 1_455 S
O32 In26 2.266 . S
O32 C29 1.252 . S
O33 In26 2.326 . S
O33 C29 1.260 . S
O34 In26 2.266 . S
O34 C31 1.252 1_655 S
O35 In26 2.326 . S
O35 C31 1.260 1_655 S
C36 O27 1.240 . S
C36 O28 1.252 . S
O37 In26 2.294 . S
O37 C30 1.240 . S
O38 In26 2.326 . S
O38 C30 1.252 . S
In39 O40 2.294 . S
In39 O41 2.326 . S
In39 O45 2.266 . S
In39 O46 2.326 . S
In39 O47 2.266 . S
In39 O48 2.326 . S
In39 O50 2.294 . S
In39 O51 2.326 . S
O40 In39 2.294 . S
O40 C49 1.240 . S
O41 In39 2.326 . S
O41 C49 1.252 . S
C42 O45 1.252 1_565 S
C42 O46 1.260 1_565 S
C43 O50 1.240 . S
C43 O51 1.252 . S
C44 O47 1.252 . S
C44 O48 1.260 . S
O45 In39 2.266 . S
O45 C42 1.252 1_545 S
O46 In39 2.326 . S
O46 C42 1.260 1_545 S
O47 In39 2.266 . S
O47 C44 1.252 . S
O48 In39 2.326 . S
O48 C44 1.260 . S
C49 O40 1.240 . S
C49 O41 1.252 . S
O50 In39 2.294 . S
O50 C43 1.240 . S
O51 In39 2.326 . S
O51 C43 1.252 . S
In52 O53 2.294 . S
In52 O54 2.326 . S
In52 O58 2.266 . S
In52 O59 2.326 . S
In52 O60 2.266 . S
In52 O61 2.326 . S
In52 O63 2.294 . S
In52 O64 2.326 . S
O53 In52 2.294 . S
O53 C62 1.240 . S
O54 In52 2.326 . S
O54 C62 1.252 . S
C55 O58 1.252 . S
C55 O59 1.260 . S
C56 O63 1.240 1_655 S
C56 O64 1.252 1_655 S
C57 O60 1.252 . S
C57 O61 1.260 . S
O58 In52 2.266 . S
O58 C55 1.252 . S
O59 In52 2.326 . S
O59 C55 1.260 . S
O60 In52 2.266 . S
O60 C57 1.252 . S
O61 In52 2.326 . S
O61 C57 1.260 . S
C62 O53 1.240 . S
C62 O54 1.252 . S
O63 In52 2.294 . S
O63 C56 1.240 1_455 S
O64 In52 2.326 . S
O64 C56 1.252 1_455 S
In65 O66 2.294 . S
In65 O67 2.326 . S
In65 O71 2.266 . S
In65 O72 2.326 . S
In65 O73 2.266 . S
In65 O74 2.326 . S
In65 O76 2.294 . S
In65 O77 2.326 . S
O66 In65 2.294 . S
O66 C75 1.240 . S
O67 In65 2.326 . S
O67 C75 1.252 . S
C68 O71 1.252 . S
C68 O72 1.260 . S
C69 O76 1.240 . S
C69 O77 1.252 . S
C70 O73 1.252 . S
C70 O74 1.260 . S
O71 In65 2.266 . S
O71 C68 1.252 . S
O72 In65 2.326 . S
O72 C68 1.260 . S
O73 In65 2.266 . S
O73 C70 1.252 . S
O74 In65 2.326 . S
O74 C70 1.260 . S
C75 O66 1.240 . S
C75 O67 1.252 . S
O76 In65 2.294 . S
O76 C69 1.240 . S
O77 In65 2.326 . S
O77 C69 1.252 . S
In78 O79 2.294 . S
In78 O80 2.326 . S
In78 O84 2.266 . S
In78 O85 2.326 1_545 S
In78 O86 2.266 1_545 S
In78 O87 2.326 . S
In78 O89 2.294 1_545 S
In78 O90 2.326 . S
O79 In78 2.294 . S
O79 C88 1.240 . S
O80 In78 2.326 . S
O80 C88 1.252 . S
C81 O84 1.252 . S
C81 O85 1.260 1_545 S
C82 O89 1.240 . S
C82 O90 1.252 1_565 S
C83 O86 1.252 . S
C83 O87 1.260 1_565 S
O84 In78 2.266 . S
O84 C81 1.252 . S
O85 In78 2.326 1_565 S
O85 C81 1.260 1_565 S
O86 In78 2.266 1_565 S
O86 C83 1.252 . S
O87 In78 2.326 . S
O87 C83 1.260 1_545 S
C88 O79 1.240 . S
C88 O80 1.252 . S
O89 In78 2.294 1_565 S
O89 C82 1.240 . S
O90 In78 2.326 . S
O90 C82 1.252 1_545 S
In91 O92 2.294 . S
In91 O93 2.326 . S
In91 O97 2.266 . S
In91 O98 2.326 . S
In91 O99 2.266 . S
In91 O100 2.326 . S
In91 O102 2.294 . S
In91 O103 2.326 . S
O92 In91 2.294 . S
O92 C101 1.240 . S
O93 In91 2.326 . S
O93 C101 1.252 . S
C94 O97 1.252 . S
C94 O98 1.260 . S
C95 O102 1.240 . S
C95 O103 1.252 . S
C96 O99 1.252 . S
C96 O100 1.260 . S
O97 In91 2.266 . S
O97 C94 1.252 . S
O98 In91 2.326 . S
O98 C94 1.260 . S
O99 In91 2.266 . S
O99 C96 1.252 . S
O100 In91 2.326 . S
O100 C96 1.260 . S
C101 O92 1.240 . S
C101 O93 1.252 . S
O102 In91 2.294 . S
O102 C95 1.240 . S
O103 In91 2.326 . S
O103 C95 1.252 . S
In104 O105 2.294 . S
In104 O106 2.326 . S
In104 O110 2.266 . S
In104 O111 2.326 . S
In104 O112 2.266 . S
In104 O113 2.326 . S
In104 O115 2.294 . S
In104 O116 2.326 . S
O105 In104 2.294 . S
O105 C114 1.240 . S
O106 In104 2.326 . S
O106 C114 1.252 . S
C107 O110 1.252 . S
C107 O111 1.260 . S
C108 O115 1.240 . S
C108 O116 1.252 . S
C109 O112 1.252 1_545 S
C109 O113 1.260 1_545 S
O110 In104 2.266 . S
O110 C107 1.252 . S
O111 In104 2.326 . S
O111 C107 1.260 . S
O112 In104 2.266 . S
O112 C109 1.252 1_565 S
O113 In104 2.326 . S
O113 C109 1.260 1_565 S
C114 O105 1.240 . S
C114 O106 1.252 . S
O115 In104 2.294 . S
O115 C108 1.240 . S
O116 In104 2.326 . S
O116 C108 1.252 . S
In117 O118 2.294 . S
In117 O119 2.326 . S
In117 O123 2.266 . S
In117 O124 2.326 . S
In117 O125 2.266 . S
In117 O126 2.326 . S
In117 O128 2.294 . S
In117 O129 2.326 . S
O118 In117 2.294 . S
O118 C127 1.240 . S
O119 In117 2.326 . S
O119 C127 1.252 . S
C120 O123 1.252 . S
C120 O124 1.260 . S
C121 O128 1.240 . S
C121 O129 1.252 . S
C122 O125 1.252 . S
C122 O126 1.260 . S
O123 In117 2.266 . S
O123 C120 1.252 . S
O124 In117 2.326 . S
O124 C120 1.260 . S
O125 In117 2.266 . S
O125 C122 1.252 . S
O126 In117 2.326 . S
O126 C122 1.260 . S
C127 O118 1.240 . S
C127 O119 1.252 . S
O128 In117 2.294 . S
O128 C121 1.240 . S
O129 In117 2.326 . S
O129 C121 1.252 . S
In130 O131 2.294 . S
In130 O132 2.326 . S
In130 O136 2.266 1_556 S
In130 O137 2.326 1_556 S
In130 O138 2.266 . S
In130 O139 2.326 . S
In130 O141 2.294 . S
In130 O142 2.326 1_556 S
O131 In130 2.294 . S
O131 C140 1.240 . S
O132 In130 2.326 . S
O132 C140 1.252 . S
C133 O136 1.252 . S
C133 O137 1.260 . S
C134 O141 1.240 . S
C134 O142 1.252 1_556 S
C135 O138 1.252 . S
C135 O139 1.260 . S
O136 In130 2.266 1_554 S
O136 C133 1.252 . S
O137 In130 2.326 1_554 S
O137 C133 1.260 . S
O138 In130 2.266 . S
O138 C135 1.252 . S
O139 In130 2.326 . S
O139 C135 1.260 . S
C140 O131 1.240 . S
C140 O132 1.252 . S
O141 In130 2.294 . S
O141 C134 1.240 . S
O142 In130 2.326 1_554 S
O142 C134 1.252 1_554 S
In143 O144 2.294 . S
In143 O145 2.326 . S
In143 O149 2.266 . S
In143 O150 2.326 . S
In143 O151 2.266 . S
In143 O152 2.326 . S
In143 O154 2.294 . S
In143 O155 2.326 . S
O144 In143 2.294 . S
O144 C153 1.240 . S
O145 In143 2.326 . S
O145 C153 1.252 . S
C146 O149 1.252 . S
C146 O150 1.260 . S
C147 O154 1.240 . S
C147 O155 1.252 . S
C148 O151 1.252 . S
C148 O152 1.260 . S
O149 In143 2.266 . S
O149 C146 1.252 . S
O150 In143 2.326 . S
O150 C146 1.260 . S
O151 In143 2.266 . S
O151 C148 1.252 . S
O152 In143 2.326 . S
O152 C148 1.260 . S
C153 O144 1.240 . S
C153 O145 1.252 . S
O154 In143 2.294 . S
O154 C147 1.240 . S
O155 In143 2.326 . S
O155 C147 1.252 . S
In156 O157 2.294 . S
In156 O158 2.326 1_554 S
In156 O162 2.266 . S
In156 O163 2.326 . S
In156 O164 2.266 . S
In156 O165 2.326 . S
In156 O167 2.294 1_554 S
In156 O168 2.326 1_554 S
O157 In156 2.294 . S
O157 C166 1.240 1_554 S
O158 In156 2.326 1_556 S
O158 C166 1.252 . S
C159 O162 1.252 . S
C159 O163 1.260 . S
C160 O167 1.240 . S
C160 O168 1.252 . S
C161 O164 1.252 . S
C161 O165 1.260 . S
O162 In156 2.266 . S
O162 C159 1.252 . S
O163 In156 2.326 . S
O163 C159 1.260 . S
O164 In156 2.266 . S
O164 C161 1.252 . S
O165 In156 2.326 . S
O165 C161 1.260 . S
C166 O157 1.240 1_556 S
C166 O158 1.252 . S
O167 In156 2.294 1_556 S
O167 C160 1.240 . S
O168 In156 2.326 1_556 S
O168 C160 1.252 . S
In169 O170 2.293 1_455 S
In169 O171 2.326 1_455 S
In169 O175 2.266 1_455 S
In169 O176 2.326 . S
In169 O177 2.267 . S
In169 O178 2.325 1_455 S
In169 O180 2.295 . S
In169 O181 2.326 . S
O170 In169 2.293 1_655 S
O170 C179 1.240 . S
O171 In169 2.326 1_655 S
O171 C179 1.270 . S
C172 O175 1.252 . S
C172 O176 1.260 1_655 S
C173 O180 1.240 . S
C173 O181 1.252 . S
C174 O177 1.252 . S
C174 O178 1.260 1_455 S
O175 In169 2.266 1_655 S
O175 C172 1.252 . S
O176 In169 2.326 . S
O176 C172 1.260 1_455 S
O177 In169 2.267 . S
O177 C174 1.252 . S
O178 In169 2.325 1_655 S
O178 C174 1.260 1_655 S
C179 O170 1.240 . S
C179 O171 1.270 . S
O180 In169 2.295 . S
O180 C173 1.240 . S
O181 In169 2.326 . S
O181 C173 1.252 . S
In182 O183 2.294 . S
In182 O184 2.326 . S
In182 O188 2.266 . S
In182 O189 2.326 . S
In182 O190 2.266 . S
In182 O191 2.326 . S
In182 O193 2.294 . S
In182 O194 2.326 . S
O183 In182 2.294 . S
O183 C192 1.240 . S
O184 In182 2.326 . S
O184 C192 1.252 . S
C185 O188 1.252 . S
C185 O189 1.260 . S
C186 O193 1.240 . S
C186 O194 1.252 . S
C187 O190 1.252 . S
C187 O191 1.260 . S
O188 In182 2.266 . S
O188 C185 1.252 . S
O189 In182 2.326 . S
O189 C185 1.260 . S
O190 In182 2.266 . S
O190 C187 1.252 . S
O191 In182 2.326 . S
O191 C187 1.260 . S
C192 O183 1.240 . S
C192 O184 1.252 . S
O193 In182 2.294 . S
O193 C186 1.240 . S
O194 In182 2.326 . S
O194 C186 1.252 . S
In195 O196 2.294 1_655 S
In195 O197 2.326 . S
In195 O201 2.266 1_655 S
In195 O202 2.326 1_655 S
In195 O203 2.266 . S
In195 O204 2.326 . S
In195 O206 2.294 . S
In195 O207 2.326 1_655 S
O196 In195 2.294 1_455 S
O196 C205 1.240 1_455 S
O197 In195 2.326 . S
O197 C205 1.252 . S
C198 O201 1.252 . S
C198 O202 1.260 . S
C199 O206 1.240 1_455 S
C199 O207 1.252 . S
C200 O203 1.252 . S
C200 O204 1.260 . S
O201 In195 2.266 1_455 S
O201 C198 1.252 . S
O202 In195 2.326 1_455 S
O202 C198 1.260 . S
O203 In195 2.266 . S
O203 C200 1.252 . S
O204 In195 2.326 . S
O204 C200 1.260 . S
C205 O196 1.240 1_655 S
C205 O197 1.252 . S
O206 In195 2.294 . S
O206 C199 1.240 1_655 S
O207 In195 2.326 1_455 S
O207 C199 1.252 . S
In208 O209 2.294 . S
In208 O210 2.326 . S
In208 O214 2.266 1_554 S
In208 O215 2.326 1_554 S
In208 O216 2.266 . S
In208 O217 2.326 1_554 S
In208 O219 2.294 . S
In208 O220 2.326 . S
O209 In208 2.294 . S
O209 C218 1.240 . S
O210 In208 2.326 . S
O210 C218 1.252 . S
C211 O214 1.252 . S
C211 O215 1.260 . S
C212 O219 1.240 . S
C212 O220 1.252 . S
C213 O216 1.252 1_556 S
C213 O217 1.260 . S
O214 In208 2.266 1_556 S
O214 C211 1.252 . S
O215 In208 2.326 1_556 S
O215 C211 1.260 . S
O216 In208 2.266 . S
O216 C213 1.252 1_554 S
O217 In208 2.326 1_556 S
O217 C213 1.260 . S
C218 O209 1.240 . S
C218 O210 1.252 . S
O219 In208 2.294 . S
O219 C212 1.240 . S
O220 In208 2.326 . S
O220 C212 1.252 . S
In221 O222 2.294 . S
In221 O223 2.326 . S
In221 O227 2.266 . S
In221 O228 2.326 . S
In221 O229 2.266 . S
In221 O230 2.326 . S
In221 O232 2.294 . S
In221 O233 2.326 . S
O222 In221 2.294 . S
O222 C231 1.240 . S
O223 In221 2.326 . S
O223 C231 1.252 . S
C224 O227 1.252 . S
C224 O228 1.260 . S
C225 O232 1.240 . S
C225 O233 1.252 . S
C226 O229 1.252 . S
C226 O230 1.260 . S
O227 In221 2.266 . S
O227 C224 1.252 . S
O228 In221 2.326 . S
O228 C224 1.260 . S
O229 In221 2.266 . S
O229 C226 1.252 . S
O230 In221 2.326 . S
O230 C226 1.260 . S
C231 O222 1.240 . S
C231 O223 1.252 . S
O232 In221 2.294 . S
O232 C225 1.240 . S
O233 In221 2.326 . S
O233 C225 1.252 . S
In234 O235 2.294 . S
In234 O236 2.326 . S
In234 O240 2.266 . S
In234 O241 2.326 . S
In234 O242 2.266 . S
In234 O243 2.326 . S
In234 O245 2.294 . S
In234 O246 2.326 . S
O235 In234 2.294 . S
O235 C244 1.240 . S
O236 In234 2.326 . S
O236 C244 1.252 . S
C237 O240 1.252 . S
C237 O241 1.260 . S
C238 O245 1.240 . S
C238 O246 1.252 . S
C239 O242 1.252 . S
C239 O243 1.260 . S
O240 In234 2.266 . S
O240 C237 1.252 . S
O241 In234 2.326 . S
O241 C237 1.260 . S
O242 In234 2.266 . S
O242 C239 1.252 . S
O243 In234 2.326 . S
O243 C239 1.260 . S
C244 O235 1.240 . S
C244 O236 1.252 . S
O245 In234 2.294 . S
O245 C238 1.240 . S
O246 In234 2.326 . S
O246 C238 1.252 . S
In247 O248 2.294 . S
In247 O249 2.326 . S
In247 O253 2.266 . S
In247 O254 2.326 . S
In247 O255 2.266 . S
In247 O256 2.326 . S
In247 O258 2.294 . S
In247 O259 2.326 . S
O248 In247 2.294 . S
O248 C257 1.240 . S
O249 In247 2.326 . S
O249 C257 1.252 . S
C250 O253 1.252 . S
C250 O254 1.260 . S
C251 O258 1.240 . S
C251 O259 1.252 . S
C252 O255 1.252 . S
C252 O256 1.260 . S
O253 In247 2.266 . S
O253 C250 1.252 . S
O254 In247 2.326 . S
O254 C250 1.260 . S
O255 In247 2.266 . S
O255 C252 1.252 . S
O256 In247 2.326 . S
O256 C252 1.260 . S
C257 O248 1.240 . S
C257 O249 1.252 . S
O258 In247 2.294 . S
O258 C251 1.240 . S
O259 In247 2.326 . S
O259 C251 1.252 . S
In260 O261 2.294 . S
In260 O262 2.327 . S
In260 O266 2.266 1_545 S
In260 O267 2.325 1_545 S
In260 O268 2.266 . S
In260 O269 2.326 . S
In260 O271 2.294 1_545 S
In260 O272 2.326 1_545 S
O261 In260 2.294 . S
O261 C270 1.240 . S
O262 In260 2.327 . S
O262 C270 1.252 . S
C263 O266 1.252 . S
C263 O267 1.260 . S
C264 O271 1.247 . S
C264 O272 1.252 . S
C265 O268 1.252 . S
C265 O269 1.260 . S
O266 In260 2.266 1_565 S
O266 C263 1.252 . S
O267 In260 2.325 1_565 S
O267 C263 1.260 . S
O268 In260 2.266 . S
O268 C265 1.252 . S
O269 In260 2.326 . S
O269 C265 1.260 . S
C270 O261 1.240 . S
C270 O262 1.252 . S
O271 In260 2.294 1_565 S
O271 C264 1.247 . S
O272 In260 2.326 1_565 S
O272 C264 1.252 . S
In273 O274 2.294 . S
In273 O275 2.327 1_556 S
In273 O279 2.265 . S
In273 O280 2.325 . S
In273 O281 2.267 1_556 S
In273 O282 2.326 1_556 S
In273 O284 2.295 1_556 S
In273 O285 2.326 . S
O274 In273 2.294 . S
O274 C283 1.240 1_556 S
O275 In273 2.327 1_554 S
O275 C283 1.252 . S
C276 O279 1.252 . S
C276 O280 1.260 . S
C277 O284 1.240 . S
C277 O285 1.252 1_554 S
C278 O281 1.252 1_545 S
C278 O282 1.260 1_545 S
O279 In273 2.265 . S
O279 C276 1.252 . S
O280 In273 2.325 . S
O280 C276 1.260 . S
O281 In273 2.267 1_554 S
O281 C278 1.252 1_565 S
O282 In273 2.326 1_554 S
O282 C278 1.260 1_565 S
C283 O274 1.240 1_554 S
C283 O275 1.252 . S
O284 In273 2.295 1_554 S
O284 C277 1.240 . S
O285 In273 2.326 . S
O285 C277 1.252 1_556 S
In286 O287 2.294 . S
In286 O288 2.326 . S
In286 O292 2.266 . S
In286 O293 2.326 . S
In286 O294 2.283 . S
In286 O295 2.326 . S
In286 O297 2.294 . S
In286 O298 2.326 . S
O287 In286 2.294 . S
O287 C296 1.240 . S
O288 In286 2.326 . S
O288 C296 1.252 . S
C289 O292 1.252 . S
C289 O293 1.260 . S
C290 O297 1.240 . S
C290 O298 1.252 . S
C291 O294 1.244 1_455 S
C291 O295 1.260 1_455 S
O292 In286 2.266 . S
O292 C289 1.252 . S
O293 In286 2.326 . S
O293 C289 1.260 . S
O294 In286 2.283 . S
O294 C291 1.244 1_655 S
O295 In286 2.326 . S
O295 C291 1.260 1_655 S
C296 O287 1.240 . S
C296 O288 1.252 . S
O297 In286 2.294 . S
O297 C290 1.240 . S
O298 In286 2.326 . S
O298 C290 1.252 . S
In299 O300 2.294 . S
In299 O301 2.326 . S
In299 O305 2.266 . S
In299 O306 2.326 . S
In299 O307 2.266 . S
In299 O308 2.326 . S
In299 O310 2.294 . S
In299 O311 2.326 . S
O300 In299 2.294 . S
O300 C309 1.240 . S
O301 In299 2.326 . S
O301 C309 1.252 . S
C302 O305 1.252 . S
C302 O306 1.260 . S
C303 O310 1.240 . S
C303 O311 1.252 . S
C304 O307 1.252 . S
C304 O308 1.260 . S
O305 In299 2.266 . S
O305 C302 1.252 . S
O306 In299 2.326 . S
O306 C302 1.260 . S
O307 In299 2.266 . S
O307 C304 1.252 . S
O308 In299 2.326 . S
O308 C304 1.260 . S
C309 O300 1.240 . S
C309 O301 1.252 . S
O310 In299 2.294 . S
O310 C303 1.240 . S
O311 In299 2.326 . S
O311 C303 1.252 . S
In312 O313 2.293 1_565 S
In312 O314 2.326 1_565 S
In312 O318 2.266 1_565 S
In312 O319 2.326 . S
In312 O320 2.266 1_565 S
In312 O321 2.325 1_565 S
In312 O323 2.295 . S
In312 O324 2.327 . S
O313 In312 2.293 1_545 S
O313 C322 1.240 1_455 S
O314 In312 2.326 1_545 S
O314 C322 1.252 1_455 S
C315 O318 1.252 1_565 S
C315 O319 1.260 . S
C316 O323 1.240 . S
C316 O324 1.252 . S
C317 O320 1.252 . S
C317 O321 1.260 . S
O318 In312 2.266 1_545 S
O318 C315 1.252 1_545 S
O319 In312 2.326 . S
O319 C315 1.260 . S
O320 In312 2.266 1_545 S
O320 C317 1.252 . S
O321 In312 2.325 1_545 S
O321 C317 1.260 . S
C322 O313 1.240 1_655 S
C322 O314 1.252 1_655 S
O323 In312 2.295 . S
O323 C316 1.240 . S
O324 In312 2.327 . S
O324 C316 1.252 . S
In325 O326 2.294 . S
In325 O327 2.326 . S
In325 O331 2.266 . S
In325 O332 2.326 . S
In325 O333 2.266 . S
In325 O334 2.326 . S
In325 O336 2.294 . S
In325 O337 2.326 . S
O326 In325 2.294 . S
O326 C335 1.240 . S
O327 In325 2.326 . S
O327 C335 1.252 . S
C328 O331 1.252 . S
C328 O332 1.260 . S
C329 O336 1.240 . S
C329 O337 1.252 . S
C330 O333 1.252 . S
C330 O334 1.260 . S
O331 In325 2.266 . S
O331 C328 1.252 . S
O332 In325 2.326 . S
O332 C328 1.260 . S
O333 In325 2.266 . S
O333 C330 1.252 . S
O334 In325 2.326 . S
O334 C330 1.260 . S
C335 O326 1.240 . S
C335 O327 1.252 . S
O336 In325 2.294 . S
O336 C329 1.240 . S
O337 In325 2.326 . S
O337 C329 1.252 . S
In338 O339 2.294 . S
In338 O340 2.326 . S
In338 O344 2.266 . S
In338 O345 2.326 . S
In338 O346 2.266 . S
In338 O347 2.326 . S
In338 O349 2.294 . S
In338 O350 2.326 . S
O339 In338 2.294 . S
O339 C348 1.240 . S
O340 In338 2.326 . S
O340 C348 1.252 . S
C341 O344 1.252 . S
C341 O345 1.260 . S
C342 O349 1.240 . S
C342 O350 1.252 . S
C343 O346 1.252 . S
C343 O347 1.260 . S
O344 In338 2.266 . S
O344 C341 1.252 . S
O345 In338 2.326 . S
O345 C341 1.260 . S
O346 In338 2.266 . S
O346 C343 1.252 . S
O347 In338 2.326 . S
O347 C343 1.260 . S
C348 O339 1.240 . S
C348 O340 1.252 . S
O349 In338 2.294 . S
O349 C342 1.240 . S
O350 In338 2.326 . S
O350 C342 1.252 . S
In351 O352 2.295 . S
In351 O353 2.327 . S
In351 O357 2.266 . S
In351 O358 2.324 1_554 S
In351 O359 2.265 1_554 S
In351 O360 2.326 . S
In351 O362 2.293 1_554 S
In351 O363 2.326 1_554 S
O352 In351 2.295 . S
O352 C361 1.240 . S
O353 In351 2.327 . S
O353 C361 1.252 . S
C354 O357 1.252 1_556 S
C354 O358 1.260 . S
C355 O362 1.240 . S
C355 O363 1.252 . S
C356 O359 1.252 . S
C356 O360 1.260 1_556 S
O357 In351 2.266 . S
O357 C354 1.252 1_554 S
O358 In351 2.324 1_556 S
O358 C354 1.260 . S
O359 In351 2.265 1_556 S
O359 C356 1.252 . S
O360 In351 2.326 . S
O360 C356 1.260 1_554 S
C361 O352 1.240 . S
C361 O353 1.252 . S
O362 In351 2.293 1_556 S
O362 C355 1.240 . S
O363 In351 2.326 1_556 S
O363 C355 1.252 . S
In364 O365 2.295 1_556 S
In364 O366 2.326 . S
In364 O370 2.267 1_556 S
In364 O371 2.325 . S
In364 O372 2.265 . S
In364 O373 2.325 . S
In364 O375 2.293 . S
In364 O376 2.327 1_556 S
O365 In364 2.295 1_554 S
O365 C374 1.240 . S
O366 In364 2.326 . S
O366 C374 1.252 1_556 S
C367 O370 1.252 . S
C367 O371 1.260 1_554 S
C368 O375 1.240 . S
C368 O376 1.252 1_556 S
C369 O372 1.252 . S
C369 O373 1.260 . S
O370 In364 2.267 1_554 S
O370 C367 1.252 . S
O371 In364 2.325 . S
O371 C367 1.260 1_556 S
O372 In364 2.265 . S
O372 C369 1.252 . S
O373 In364 2.325 . S
O373 C369 1.260 . S
C374 O365 1.240 . S
C374 O366 1.252 1_554 S
O375 In364 2.293 . S
O375 C368 1.240 . S
O376 In364 2.327 1_554 S
O376 C368 1.252 1_554 S
In377 O378 2.294 . S
In377 O379 2.326 1_565 S
In377 O383 2.266 . S
In377 O384 2.326 . S
In377 O385 2.266 1_565 S
In377 O386 2.325 1_565 S
In377 O388 2.294 . S
In377 O389 2.327 . S
O378 In377 2.294 . S
O378 C387 1.237 1_565 S
O379 In377 2.326 1_545 S
O379 C387 1.252 . S
C380 O383 1.252 . S
C380 O384 1.260 . S
C381 O388 1.240 . S
C381 O389 1.252 . S
C382 O385 1.252 . S
C382 O386 1.260 . S
O383 In377 2.266 . S
O383 C380 1.252 . S
O384 In377 2.326 . S
O384 C380 1.260 . S
O385 In377 2.266 1_545 S
O385 C382 1.252 . S
O386 In377 2.325 1_545 S
O386 C382 1.260 . S
C387 O378 1.237 1_545 S
C387 O379 1.252 . S
O388 In377 2.294 . S
O388 C381 1.240 . S
O389 In377 2.327 . S
O389 C381 1.252 . S
In390 O391 2.294 . S
In390 O392 2.326 . S
In390 O396 2.266 . S
In390 O397 2.326 . S
In390 O398 2.266 . S
In390 O399 2.326 . S
In390 O401 2.294 . S
In390 O402 2.326 . S
O391 In390 2.294 . S
O391 C400 1.240 . S
O392 In390 2.326 . S
O392 C400 1.252 . S
C393 O396 1.252 . S
C393 O397 1.260 . S
C394 O401 1.240 . S
C394 O402 1.252 . S
C395 O398 1.252 1_565 S
C395 O399 1.260 1_565 S
O396 In390 2.266 . S
O396 C393 1.252 . S
O397 In390 2.326 . S
O397 C393 1.260 . S
O398 In390 2.266 . S
O398 C395 1.252 1_545 S
O399 In390 2.326 . S
O399 C395 1.260 1_545 S
C400 O391 1.240 . S
C400 O392 1.252 . S
O401 In390 2.294 . S
O401 C394 1.240 . S
O402 In390 2.326 . S
O402 C394 1.252 . S
In403 O404 2.294 . S
In403 O405 2.326 . S
In403 O409 2.266 . S
In403 O410 2.326 . S
In403 O411 2.266 . S
In403 O412 2.326 . S
In403 O414 2.294 . S
In403 O415 2.326 . S
O404 In403 2.294 . S
O404 C413 1.240 . S
O405 In403 2.326 . S
O405 C413 1.252 . S
C406 O409 1.252 . S
C406 O410 1.260 . S
C407 O414 1.240 . S
C407 O415 1.252 . S
C408 O411 1.252 . S
C408 O412 1.260 . S
O409 In403 2.266 . S
O409 C406 1.252 . S
O410 In403 2.326 . S
O410 C406 1.260 . S
O411 In403 2.266 . S
O411 C408 1.252 . S
O412 In403 2.326 . S
O412 C408 1.260 . S
C413 O404 1.240 . S
C413 O405 1.252 . S
O414 In403 2.294 . S
O414 C407 1.240 . S
O415 In403 2.326 . S
O415 C407 1.252 . S
In416 O417 2.294 . S
In416 O418 2.326 . S
In416 O422 2.266 . S
In416 O423 2.326 . S
In416 O424 2.266 . S
In416 O425 2.326 . S
In416 O427 2.294 . S
In416 O428 2.326 . S
O417 In416 2.294 . S
O417 C426 1.240 . S
O418 In416 2.326 . S
O418 C426 1.252 . S
C419 O422 1.252 . S
C419 O423 1.260 . S
C420 O427 1.240 . S
C420 O428 1.252 . S
C421 O424 1.252 . S
C421 O425 1.260 . S
O422 In416 2.266 . S
O422 C419 1.252 . S
O423 In416 2.326 . S
O423 C419 1.260 . S
O424 In416 2.266 . S
O424 C421 1.252 . S
O425 In416 2.326 . S
O425 C421 1.260 . S
C426 O417 1.240 . S
C426 O418 1.252 . S
O427 In416 2.294 . S
O427 C420 1.240 . S
O428 In416 2.326 . S
O428 C420 1.252 . S
In429 O430 2.294 1_456 S
In429 O431 2.326 1_556 S
In429 O435 2.266 1_455 S
In429 O436 2.326 . S
In429 O437 2.266 . S
In429 O438 2.326 1_455 S
In429 O440 2.294 . S
In429 O441 2.326 1_556 S
O430 In429 2.294 1_654 S
O430 C439 1.240 . S
O431 In429 2.326 1_554 S
O431 C439 1.252 1_455 S
C432 O435 1.252 1_455 S
C432 O436 1.260 . S
C433 O440 1.240 1_554 S
C433 O441 1.252 . S
C434 O437 1.252 1_655 S
C434 O438 1.260 . S
O435 In429 2.266 1_655 S
O435 C432 1.252 1_655 S
O436 In429 2.326 . S
O436 C432 1.260 . S
O437 In429 2.266 . S
O437 C434 1.252 1_455 S
O438 In429 2.326 1_655 S
O438 C434 1.260 . S
C439 O430 1.240 . S
C439 O431 1.252 1_655 S
O440 In429 2.294 . S
O440 C433 1.240 1_556 S
O441 In429 2.326 1_554 S
O441 C433 1.252 . S
In442 O443 2.294 . S
In442 O444 2.326 . S
In442 O448 2.266 . S
In442 O449 2.326 . S
In442 O450 2.266 . S
In442 O451 2.326 . S
In442 O453 2.294 . S
In442 O454 2.326 . S
O443 In442 2.294 . S
O443 C452 1.240 . S
O444 In442 2.326 . S
O444 C452 1.252 . S
C445 O448 1.252 . S
C445 O449 1.260 . S
C446 O453 1.240 . S
C446 O454 1.252 . S
C447 O450 1.252 . S
C447 O451 1.260 . S
O448 In442 2.266 . S
O448 C445 1.252 . S
O449 In442 2.326 . S
O449 C445 1.260 . S
O450 In442 2.266 . S
O450 C447 1.252 . S
O451 In442 2.326 . S
O451 C447 1.260 . S
C452 O443 1.240 . S
C452 O444 1.252 . S
O453 In442 2.294 . S
O453 C446 1.240 . S
O454 In442 2.326 . S
O454 C446 1.252 . S
In455 O456 2.294 . S
In455 O457 2.326 . S
In455 O461 2.266 . S
In455 O462 2.326 1_455 S
In455 O463 2.266 . S
In455 O464 2.326 . S
In455 O466 2.294 1_455 S
In455 O467 2.326 1_455 S
O456 In455 2.294 . S
O456 C465 1.240 . S
O457 In455 2.326 . S
O457 C465 1.252 . S
C458 O461 1.252 1_655 S
C458 O462 1.260 . S
C459 O466 1.240 . S
C459 O467 1.252 . S
C460 O463 1.252 . S
C460 O464 1.260 . S
O461 In455 2.266 . S
O461 C458 1.252 1_455 S
O462 In455 2.326 1_655 S
O462 C458 1.260 . S
O463 In455 2.266 . S
O463 C460 1.252 . S
O464 In455 2.326 . S
O464 C460 1.260 . S
C465 O456 1.240 . S
C465 O457 1.252 . S
O466 In455 2.294 1_655 S
O466 C459 1.240 . S
O467 In455 2.326 1_655 S
O467 C459 1.252 . S
In468 O469 2.294 . S
In468 O470 2.326 . S
In468 O474 2.266 . S
In468 O475 2.326 . S
In468 O476 2.266 . S
In468 O477 2.326 . S
In468 O479 2.294 . S
In468 O480 2.326 . S
O469 In468 2.294 . S
O469 C478 1.240 . S
O470 In468 2.326 . S
O470 C478 1.252 . S
C471 O474 1.252 . S
C471 O475 1.260 . S
C472 O479 1.240 . S
C472 O480 1.252 . S
C473 O476 1.252 . S
C473 O477 1.260 . S
O474 In468 2.266 . S
O474 C471 1.252 . S
O475 In468 2.326 . S
O475 C471 1.260 . S
O476 In468 2.266 . S
O476 C473 1.252 . S
O477 In468 2.326 . S
O477 C473 1.260 . S
C478 O469 1.240 . S
C478 O470 1.252 . S
O479 In468 2.294 . S
O479 C472 1.240 . S
O480 In468 2.326 . S
O480 C472 1.252 . S
In481 O482 2.294 1_556 S
In481 O483 2.326 1_556 S
In481 O487 2.266 . S
In481 O488 2.326 . S
In481 O489 2.266 . S
In481 O490 2.326 . S
In481 O492 2.294 . S
In481 O493 2.326 1_556 S
O482 In481 2.294 1_554 S
O482 C491 1.240 . S
O483 In481 2.326 1_554 S
O483 C491 1.252 . S
C484 O487 1.252 . S
C484 O488 1.260 . S
C485 O492 1.240 1_554 S
C485 O493 1.252 . S
C486 O489 1.252 . S
C486 O490 1.260 . S
O487 In481 2.266 . S
O487 C484 1.252 . S
O488 In481 2.326 . S
O488 C484 1.260 . S
O489 In481 2.266 . S
O489 C486 1.252 . S
O490 In481 2.326 . S
O490 C486 1.260 . S
C491 O482 1.240 . S
C491 O483 1.252 . S
O492 In481 2.294 . S
O492 C485 1.240 1_556 S
O493 In481 2.326 1_554 S
O493 C485 1.252 . S
In494 O495 2.294 . S
In494 O496 2.326 . S
In494 O500 2.266 . S
In494 O501 2.326 . S
In494 O502 2.266 . S
In494 O503 2.326 . S
In494 O505 2.294 . S
In494 O506 2.326 . S
O495 In494 2.294 . S
O495 C504 1.240 . S
O496 In494 2.326 . S
O496 C504 1.252 . S
C497 O500 1.252 . S
C497 O501 1.260 . S
C498 O505 1.240 . S
C498 O506 1.252 . S
C499 O502 1.252 . S
C499 O503 1.260 . S
O500 In494 2.266 . S
O500 C497 1.252 . S
O501 In494 2.326 . S
O501 C497 1.260 . S
O502 In494 2.266 . S
O502 C499 1.252 . S
O503 In494 2.326 . S
O503 C499 1.260 . S
C504 O495 1.240 . S
C504 O496 1.252 . S
O505 In494 2.294 . S
O505 C498 1.240 . S
O506 In494 2.326 . S
O506 C498 1.252 . S
In507 O508 2.294 . S
In507 O509 2.326 . S
In507 O513 2.266 . S
In507 O514 2.326 . S
In507 O515 2.266 . S
In507 O516 2.326 . S
In507 O518 2.294 . S
In507 O519 2.326 . S
O508 In507 2.294 . S
O508 C517 1.240 . S
O509 In507 2.326 . S
O509 C517 1.252 . S
C510 O513 1.252 . S
C510 O514 1.260 . S
C511 O518 1.240 . S
C511 O519 1.252 . S
C512 O515 1.252 . S
C512 O516 1.260 . S
O513 In507 2.266 . S
O513 C510 1.252 . S
O514 In507 2.326 . S
O514 C510 1.260 . S
O515 In507 2.266 . S
O515 C512 1.252 . S
O516 In507 2.326 . S
O516 C512 1.260 . S
C517 O508 1.240 . S
C517 O509 1.252 . S
O518 In507 2.294 . S
O518 C511 1.240 . S
O519 In507 2.326 . S
O519 C511 1.252 . S
In520 O521 2.295 . S
In520 O522 2.327 . S
In520 O526 2.266 1_545 S
In520 O527 2.325 1_545 S
In520 O528 2.266 1_545 S
In520 O529 2.326 . S
In520 O531 2.293 1_545 S
In520 O532 2.326 1_545 S
O521 In520 2.295 . S
O521 C530 1.240 . S
O522 In520 2.327 . S
O522 C530 1.252 . S
C523 O526 1.252 . S
C523 O527 1.260 . S
C524 O531 1.240 . S
C524 O532 1.252 . S
C525 O528 1.252 1_545 S
C525 O529 1.260 . S
O526 In520 2.266 1_565 S
O526 C523 1.252 . S
O527 In520 2.325 1_565 S
O527 C523 1.260 . S
O528 In520 2.266 1_565 S
O528 C525 1.252 1_565 S
O529 In520 2.326 . S
O529 C525 1.260 . S
C530 O521 1.240 . S
C530 O522 1.252 . S
O531 In520 2.293 1_565 S
O531 C524 1.240 . S
O532 In520 2.326 1_565 S
O532 C524 1.252 . S
In533 O534 2.295 . S
In533 O535 2.327 . S
In533 O539 2.267 . S
In533 O540 2.325 1_554 S
In533 O541 2.265 1_554 S
In533 O542 2.326 . S
In533 O544 2.293 1_554 S
In533 O545 2.326 . S
O534 In533 2.295 . S
O534 C543 1.240 . S
O535 In533 2.327 . S
O535 C543 1.252 . S
C536 O539 1.252 . S
C536 O540 1.260 1_554 S
C537 O544 1.240 . S
C537 O545 1.252 1_556 S
C538 O541 1.252 . S
C538 O542 1.260 1_556 S
O539 In533 2.267 . S
O539 C536 1.252 . S
O540 In533 2.325 1_556 S
O540 C536 1.260 1_556 S
O541 In533 2.265 1_556 S
O541 C538 1.252 . S
O542 In533 2.326 . S
O542 C538 1.260 1_554 S
C543 O534 1.240 . S
C543 O535 1.252 . S
O544 In533 2.293 1_556 S
O544 C537 1.240 . S
O545 In533 2.326 . S
O545 C537 1.252 1_554 S
In546 O547 2.294 1_655 S
In546 O548 2.326 . S
In546 O552 2.267 1_655 S
In546 O553 2.326 1_655 S
In546 O554 2.266 . S
In546 O555 2.325 . S
In546 O557 2.294 . S
In546 O558 2.327 1_655 S
O547 In546 2.294 1_455 S
O547 C556 1.240 . S
O548 In546 2.326 . S
O548 C556 1.252 1_655 S
C549 O552 1.252 . S
C549 O553 1.260 . S
C550 O557 1.240 . S
C550 O558 1.252 1_655 S
C551 O554 1.252 . S
C551 O555 1.260 . S
O552 In546 2.267 1_455 S
O552 C549 1.252 . S
O553 In546 2.326 1_455 S
O553 C549 1.260 . S
O554 In546 2.266 . S
O554 C551 1.252 . S
O555 In546 2.325 . S
O555 C551 1.260 . S
C556 O547 1.240 . S
C556 O548 1.252 1_455 S
O557 In546 2.294 . S
O557 C550 1.240 . S
O558 In546 2.327 1_455 S
O558 C550 1.252 1_455 S
In559 O560 2.294 1_655 S
In559 O561 2.326 . S
In559 O565 2.266 1_655 S
In559 O566 2.324 1_655 S
In559 O567 2.266 . S
In559 O568 2.326 . S
In559 O570 2.294 . S
In559 O571 2.326 1_655 S
O560 In559 2.294 1_455 S
O560 C569 1.240 1_455 S
O561 In559 2.326 . S
O561 C569 1.252 . S
C562 O565 1.252 . S
C562 O566 1.267 . S
C563 O570 1.240 1_455 S
C563 O571 1.252 . S
C564 O567 1.252 . S
C564 O568 1.260 . S
O565 In559 2.266 1_455 S
O565 C562 1.252 . S
O566 In559 2.324 1_455 S
O566 C562 1.267 . S
O567 In559 2.266 . S
O567 C564 1.252 . S
O568 In559 2.326 . S
O568 C564 1.260 . S
C569 O560 1.240 1_655 S
C569 O561 1.252 . S
O570 In559 2.294 . S
O570 C563 1.240 1_655 S
O571 In559 2.326 1_455 S
O571 C563 1.252 . S
In572 O573 2.294 1_565 S
In572 O574 2.326 . S
In572 O578 2.266 1_565 S
In572 O579 2.326 . S
In572 O580 2.266 . S
In572 O581 2.326 1_565 S
In572 O583 2.294 . S
In572 O584 2.326 . S
O573 In572 2.294 1_545 S
O573 C582 1.240 . S
O574 In572 2.326 . S
O574 C582 1.252 1_565 S
C575 O578 1.252 . S
C575 O579 1.260 1_545 S
C576 O583 1.240 . S
C576 O584 1.252 . S
C577 O580 1.252 . S
C577 O581 1.260 1_565 S
O578 In572 2.266 1_545 S
O578 C575 1.252 . S
O579 In572 2.326 . S
O579 C575 1.260 1_565 S
O580 In572 2.266 . S
O580 C577 1.252 . S
O581 In572 2.326 1_545 S
O581 C577 1.260 1_545 S
C582 O573 1.240 . S
C582 O574 1.252 1_545 S
O583 In572 2.294 . S
O583 C576 1.240 . S
O584 In572 2.326 . S
O584 C576 1.252 . S
In585 O586 2.294 1_554 S
In585 O587 2.326 1_554 S
In585 O591 2.266 . S
In585 O592 2.326 . S
In585 O593 2.266 . S
In585 O594 2.326 1_554 S
In585 O596 2.294 . S
In585 O597 2.326 . S
O586 In585 2.294 1_556 S
O586 C595 1.240 . S
O587 In585 2.326 1_556 S
O587 C595 1.252 . S
C588 O591 1.252 . S
C588 O592 1.260 . S
C589 O596 1.240 . S
C589 O597 1.252 . S
C590 O593 1.252 1_556 S
C590 O594 1.260 . S
O591 In585 2.266 . S
O591 C588 1.252 . S
O592 In585 2.326 . S
O592 C588 1.260 . S
O593 In585 2.266 . S
O593 C590 1.252 1_554 S
O594 In585 2.326 1_556 S
O594 C590 1.260 . S
C595 O586 1.240 . S
C595 O587 1.252 . S
O596 In585 2.294 . S
O596 C589 1.240 . S
O597 In585 2.326 . S
O597 C589 1.252 . S
In598 O599 2.294 . S
In598 O600 2.326 . S
In598 O604 2.266 . S
In598 O605 2.326 . S
In598 O606 2.266 . S
In598 O607 2.326 . S
In598 O609 2.294 . S
In598 O610 2.326 . S
O599 In598 2.294 . S
O599 C608 1.240 . S
O600 In598 2.326 . S
O600 C608 1.252 . S
C601 O604 1.252 . S
C601 O605 1.260 . S
C602 O609 1.240 . S
C602 O610 1.252 . S
C603 O606 1.252 . S
C603 O607 1.260 . S
O604 In598 2.266 . S
O604 C601 1.252 . S
O605 In598 2.326 . S
O605 C601 1.260 . S
O606 In598 2.266 . S
O606 C603 1.252 . S
O607 In598 2.326 . S
O607 C603 1.260 . S
C608 O599 1.240 . S
C608 O600 1.252 . S
O609 In598 2.294 . S
O609 C602 1.240 . S
O610 In598 2.326 . S
O610 C602 1.252 . S
In611 O612 2.294 . S
In611 O613 2.326 . S
In611 O617 2.266 . S
In611 O618 2.326 . S
In611 O619 2.266 . S
In611 O620 2.326 . S
In611 O622 2.294 . S
In611 O623 2.326 . S
O612 In611 2.294 . S
O612 C621 1.240 . S
O613 In611 2.326 . S
O613 C621 1.252 . S
C614 O617 1.252 . S
C614 O618 1.260 . S
C615 O622 1.240 . S
C615 O623 1.252 . S
C616 O619 1.252 . S
C616 O620 1.260 . S
O617 In611 2.266 . S
O617 C614 1.252 . S
O618 In611 2.326 . S
O618 C614 1.260 . S
O619 In611 2.266 . S
O619 C616 1.252 . S
O620 In611 2.326 . S
O620 C616 1.260 . S
C621 O612 1.240 . S
C621 O613 1.252 . S
O622 In611 2.294 . S
O622 C615 1.240 . S
O623 In611 2.326 . S
O623 C615 1.252 . S
C361 C4 1.423 . S
C18 C499 1.326 . S
C30 C329 1.033 . S
C525 C44 1.025 . S
C369 C57 1.042 . S
C75 C290 1.137 . S
C393 C83 1.381 1_545 S
C101 C270 1.248 . S
C465 C96 1.263 . S
C432 C62 1.088 . S
C70 C551 1.008 . S
C452 C88 1.100 . S
C108 C173 1.022 . S
C187 C122 1.029 . S
C200 C140 1.169 . S
C161 C146 1.161 . S
C172 C316 1.577 1_655 S
C192 C510 1.393 . S
C348 C205 1.447 . S
C356 C213 1.313 . S
C231 C380 1.420 . S
C239 C49 1.051 . S
C251 C23 1.203 . S
C575 C276 1.334 1_545 S
C603 C302 1.015 . S
C315 C107 1.058 . S
C343 C135 1.326 . S
C328 C564 1.639 . S
C433 C374 1.633 . S
C447 C394 1.272 . S
C420 C408 1.651 . S
C226 C588 1.230 . S
C473 C303 1.707 . S
C277 C485 1.280 . S
C615 C413 1.111 . S
C381 C589 1.250 . S
C127 C511 1.411 . S
C147 C543 1.077 . S
C166 C538 1.579 . S
C250 C504 1.416 . S
C244 C530 1.602 . S
C289 C556 1.632 1_655 S
C265 C460 1.422 . S
C576 C484 1.128 . S
C608 C478 1.050 . S
C614 C419 1.025 . S
C569 C29 1.141 . S
C218 C3 1.045 . S
C10 C601 2.067 . S
C16 C621 1.944 . S
C36 C577 2.095 . S
C42 C595 2.025 . S
C55 C121 2.062 . S
C69 C133 1.943 . S
C81 C153 2.076 . S
C95 C109 1.972 . S
C94 C512 3.024 . S
C56 C342 2.245 . S
C68 C536 2.436 . S
C82 C322 2.926 1_565 S
C114 C309 2.397 . S
C120 C406 3.012 . S
C134 C283 3.100 1_556 S
C382 C148 2.313 . S
C159 C252 2.702 . S
C174 C212 2.436 . S
C257 C186 1.974 . S
C563 C199 2.631 . S
C198 C211 2.052 . S
C472 C225 2.831 . S
C160 C237 2.868 . S
C523 C264 3.096 . S
C537 C278 2.998 1_556 S
C296 C497 3.048 . S
C517 C304 3.136 . S
C317 C387 3.103 . S
C395 C335 3.146 . S
C341 C407 3.068 . S
C367 C355 2.909 1_554 S
C354 C590 2.983 . S
C616 C330 2.440 . S
C368 C43 2.322 . S
C17 C400 3.163 . S
C486 C426 2.263 . S
C458 C434 2.879 . S
C224 C491 2.058 . S
C446 C550 2.272 . S
C459 C445 2.043 . S
C185 C238 2.474 . S
C421 C471 2.846 . S
C602 C498 2.288 . S
C524 C582 2.892 1_565 S
C5 C291 3.024 . S
C263 C31 2.324 . S
C439 C549 2.820 1_655 S
C179 C562 2.838 1_655 S
