# Generated by pormake.
# Topology whk, (6)-cn, num edge types: 1
# Building blocks:
#     Node 0, Type 0, BuildingBlock: BETDEL_clean_sbu_0, # of connection points: 6
#     Node 1, Type 0, BuildingBlock: BETDEL_clean_sbu_0, # of connection points: 6
#     Node 2, Type 0, BuildingBlock: BETDEL_clean_sbu_0, # of connection points: 6
#     Node 3, Type 0, BuildingBlock: BETDEL_clean_sbu_0, # of connection points: 6
#     Node 4, Type 0, BuildingBlock: BETDEL_clean_sbu_0, # of connection points: 6
#     Node 5, Type 0, BuildingBlock: BETDEL_clean_sbu_0, # of connection points: 6
#     Node 6, Type 0, BuildingBlock: BETDEL_clean_sbu_0, # of connection points: 6
#     Node 7, Type 0, BuildingBlock: BETDEL_clean_sbu_0, # of connection points: 6
#     Node 8, Type 0, BuildingBlock: BETDEL_clean_sbu_0, # of connection points: 6
#     Node 9, Type 0, BuildingBlock: BETDEL_clean_sbu_0, # of connection points: 6
#     Node 10, Type 0, BuildingBlock: BETDEL_clean_sbu_0, # of connection points: 6
#     Node 11, Type 0, BuildingBlock: BETDEL_clean_sbu_0, # of connection points: 6
#     Node 12, Type 0, BuildingBlock: BETDEL_clean_sbu_0, # of connection points: 6
#     Node 13, Type 0, BuildingBlock: BETDEL_clean_sbu_0, # of connection points: 6
#     Node 14, Type 0, BuildingBlock: BETDEL_clean_sbu_0, # of connection points: 6
#     Node 15, Type 0, BuildingBlock: BETDEL_clean_sbu_0, # of connection points: 6
#     Edge 16, Type (0, 0), BuildingBlock: CIFDUS_clean_linker_0, # of connection points: 2
#     Edge 17, Type (0, 0), BuildingBlock: CIFDUS_clean_linker_0, # of connection points: 2
#     Edge 18, Type (0, 0), BuildingBlock: CIFDUS_clean_linker_0, # of connection points: 2
#     Edge 19, Type (0, 0), BuildingBlock: CIFDUS_clean_linker_0, # of connection points: 2
#     Edge 20, Type (0, 0), BuildingBlock: CIFDUS_clean_linker_0, # of connection points: 2
#     Edge 21, Type (0, 0), BuildingBlock: CIFDUS_clean_linker_0, # of connection points: 2
#     Edge 22, Type (0, 0), BuildingBlock: CIFDUS_clean_linker_0, # of connection points: 2
#     Edge 23, Type (0, 0), BuildingBlock: CIFDUS_clean_linker_0, # of connection points: 2
#     Edge 24, Type (0, 0), BuildingBlock: CIFDUS_clean_linker_0, # of connection points: 2
#     Edge 25, Type (0, 0), BuildingBlock: CIFDUS_clean_linker_0, # of connection points: 2
#     Edge 26, Type (0, 0), BuildingBlock: CIFDUS_clean_linker_0, # of connection points: 2
#     Edge 27, Type (0, 0), BuildingBlock: CIFDUS_clean_linker_0, # of connection points: 2
#     Edge 28, Type (0, 0), BuildingBlock: CIFDUS_clean_linker_0, # of connection points: 2
#     Edge 29, Type (0, 0), BuildingBlock: CIFDUS_clean_linker_0, # of connection points: 2
#     Edge 30, Type (0, 0), BuildingBlock: CIFDUS_clean_linker_0, # of connection points: 2
#     Edge 31, Type (0, 0), BuildingBlock: CIFDUS_clean_linker_0, # of connection points: 2
#     Edge 32, Type (0, 0), BuildingBlock: CIFDUS_clean_linker_0, # of connection points: 2
#     Edge 33, Type (0, 0), BuildingBlock: CIFDUS_clean_linker_0, # of connection points: 2
#     Edge 34, Type (0, 0), BuildingBlock: CIFDUS_clean_linker_0, # of connection points: 2
#     Edge 35, Type (0, 0), BuildingBlock: CIFDUS_clean_linker_0, # of connection points: 2
#     Edge 36, Type (0, 0), BuildingBlock: CIFDUS_clean_linker_0, # of connection points: 2
#     Edge 37, Type (0, 0), BuildingBlock: CIFDUS_clean_linker_0, # of connection points: 2
#     Edge 38, Type (0, 0), BuildingBlock: CIFDUS_clean_linker_0, # of connection points: 2
#     Edge 39, Type (0, 0), BuildingBlock: CIFDUS_clean_linker_0, # of connection points: 2
#     Edge 40, Type (0, 0), BuildingBlock: CIFDUS_clean_linker_0, # of connection points: 2
#     Edge 41, Type (0, 0), BuildingBlock: CIFDUS_clean_linker_0, # of connection points: 2
#     Edge 42, Type (0, 0), BuildingBlock: CIFDUS_clean_linker_0, # of connection points: 2
#     Edge 43, Type (0, 0), BuildingBlock: CIFDUS_clean_linker_0, # of connection points: 2
#     Edge 44, Type (0, 0), BuildingBlock: CIFDUS_clean_linker_0, # of connection points: 2
#     Edge 45, Type (0, 0), BuildingBlock: CIFDUS_clean_linker_0, # of connection points: 2
#     Edge 46, Type (0, 0), BuildingBlock: CIFDUS_clean_linker_0, # of connection points: 2
#     Edge 47, Type (0, 0), BuildingBlock: CIFDUS_clean_linker_0, # of connection points: 2
#     Edge 48, Type (0, 0), BuildingBlock: CIFDUS_clean_linker_0, # of connection points: 2
#     Edge 49, Type (0, 0), BuildingBlock: CIFDUS_clean_linker_0, # of connection points: 2
#     Edge 50, Type (0, 0), BuildingBlock: CIFDUS_clean_linker_0, # of connection points: 2
#     Edge 51, Type (0, 0), BuildingBlock: CIFDUS_clean_linker_0, # of connection points: 2
#     Edge 52, Type (0, 0), BuildingBlock: CIFDUS_clean_linker_0, # of connection points: 2
#     Edge 53, Type (0, 0), BuildingBlock: CIFDUS_clean_linker_0, # of connection points: 2
#     Edge 54, Type (0, 0), BuildingBlock: CIFDUS_clean_linker_0, # of connection points: 2
#     Edge 55, Type (0, 0), BuildingBlock: CIFDUS_clean_linker_0, # of connection points: 2
#     Edge 56, Type (0, 0), BuildingBlock: CIFDUS_clean_linker_0, # of connection points: 2
#     Edge 57, Type (0, 0), BuildingBlock: CIFDUS_clean_linker_0, # of connection points: 2
#     Edge 58, Type (0, 0), BuildingBlock: CIFDUS_clean_linker_0, # of connection points: 2
#     Edge 59, Type (0, 0), BuildingBlock: CIFDUS_clean_linker_0, # of connection points: 2
#     Edge 60, Type (0, 0), BuildingBlock: CIFDUS_clean_linker_0, # of connection points: 2
#     Edge 61, Type (0, 0), BuildingBlock: CIFDUS_clean_linker_0, # of connection points: 2
#     Edge 62, Type (0, 0), BuildingBlock: CIFDUS_clean_linker_0, # of connection points: 2
#     Edge 63, Type (0, 0), BuildingBlock: CIFDUS_clean_linker_0, # of connection points: 2
# Relax obj value: 0.459
# Max RMSD: 0.289
# Mean RMSD: 0.289
data_MOF--net-whk--node1-BETDEL_clean_sbu_0--edge1-CIFDUS_clean_linker_0
_symmetry_space_group_name_H-M    P1
_symmetry_Int_Tables_number       1
_symmetry_cell_setting            triclinic
loop_
_symmetry_equiv_pos_as_xyz
'x, y, z'
_cell_length_a     34.151754
_cell_length_b     34.150425
_cell_length_c     35.792009
_cell_angle_alpha  89.980432
_cell_angle_beta   90.080896
_cell_angle_gamma 89.772673
loop_
_atom_site_label
_atom_site_type_symbol
_atom_site_fract_x
_atom_site_fract_y
_atom_site_fract_z
_atom_type_partial_charge
Dy0 Dy 0.57326 0.21341 0.42326 0.0
C1 C 0.44309 0.12952 0.45917 0.0
C2 C 0.64174 0.24661 0.40275 0.0
Dy3 Dy 0.51134 0.17124 0.46022 0.0
O4 O 0.61379 0.23783 0.37984 0.0
O5 O 0.63145 0.23867 0.43673 0.0
O6 O 0.55034 0.19139 0.36875 0.0
O7 O 0.55117 0.15397 0.41443 0.0
C8 C 0.54479 0.1557 0.37957 0.0
C9 C 0.54602 0.22276 0.50558 0.0
O10 O 0.55968 0.13134 0.47996 0.0
O11 O 0.60896 0.17228 0.4594 0.0
O12 O 0.45926 0.14381 0.48924 0.0
O13 O 0.46466 0.13737 0.43034 0.0
O14 O 0.53145 0.18977 0.51758 0.0
O15 O 0.53785 0.22781 0.47155 0.0
O16 O 0.52964 0.26144 0.41662 0.0
O17 O 0.47774 0.22419 0.43712 0.0
C18 C 0.59729 0.14092 0.47812 0.0
C19 C 0.49176 0.25696 0.42221 0.0
Dy20 Dy 0.28959 0.58098 0.3998 0.0
C21 C 0.38149 0.46107 0.45065 0.0
C22 C 0.2499 0.6403 0.36583 0.0
Dy23 Dy 0.33627 0.52733 0.44465 0.0
O24 O 0.2843 0.62783 0.35643 0.0
O25 O 0.23719 0.62045 0.39423 0.0
O26 O 0.30983 0.54792 0.35001 0.0
O27 O 0.34995 0.55986 0.39265 0.0
C28 C 0.34636 0.54632 0.35971 0.0
C29 C 0.2799 0.56256 0.48495 0.0
O30 O 0.37067 0.58091 0.45982 0.0
O31 O 0.32328 0.62301 0.43638 0.0
O32 O 0.36659 0.48013 0.47889 0.0
O33 O 0.37274 0.47909 0.41985 0.0
O34 O 0.31333 0.55143 0.49937 0.0
O35 O 0.27749 0.55072 0.45166 0.0
O36 O 0.24782 0.53166 0.39372 0.0
O37 O 0.28646 0.48756 0.42613 0.0
C38 C 0.356 0.6167 0.45559 0.0
C39 C 0.25436 0.49607 0.40668 0.0
Dy40 Dy 0.93127 0.29183 0.41937 0.0
C41 C 0.0604 0.37864 0.455 0.0
C42 C 0.86763 0.24999 0.39872 0.0
Dy43 Dy 0.99294 0.33609 0.45703 0.0
O44 O 0.88868 0.24321 0.42818 0.0
O45 O 0.88119 0.27991 0.38078 0.0
O46 O 0.95426 0.31389 0.36489 0.0
O47 O 0.95295 0.3513 0.41089 0.0
C48 C 0.95987 0.34957 0.37613 0.0
C49 C 0.95902 0.28379 0.50195 0.0
O50 O 0.94341 0.3748 0.475 0.0
O51 O 0.89528 0.33078 0.45731 0.0
O52 O 0.04409 0.3657 0.48555 0.0
O53 O 0.03931 0.36913 0.42626 0.0
O54 O 0.97317 0.31689 0.51421 0.0
O55 O 0.96734 0.27913 0.46786 0.0
O56 O 0.97814 0.24868 0.40674 0.0
O57 O 0.02748 0.28377 0.43535 0.0
C58 C 0.90629 0.36338 0.47454 0.0
C59 C 0.01511 0.25272 0.41647 0.0
Dy60 Dy 0.21039 0.92601 0.40771 0.0
C61 C 0.1208 0.04844 0.45225 0.0
C62 C 0.24657 0.86226 0.37784 0.0
Dy63 Dy 0.16495 0.98167 0.44941 0.0
O64 O 0.23656 0.89321 0.35929 0.0
O65 O 0.23783 0.86691 0.41278 0.0
O66 O 0.18541 0.95266 0.3556 0.0
O67 O 0.14927 0.94481 0.4013 0.0
C68 C 0.14964 0.95459 0.36723 0.0
C69 C 0.21681 0.94627 0.49326 0.0
O70 O 0.12932 0.92949 0.46698 0.0
O71 O 0.17351 0.88509 0.44198 0.0
O72 O 0.13552 0.03073 0.48137 0.0
O73 O 0.12905 0.02881 0.42224 0.0
O74 O 0.18295 0.95895 0.50522 0.0
O75 O 0.22304 0.95681 0.4598 0.0
O76 O 0.25614 0.97199 0.40541 0.0
O77 O 0.21599 0.0197 0.43011 0.0
C78 C 0.14204 0.893 0.46225 0.0
C79 C 0.24956 0.00884 0.41443 0.0
Dy80 Dy 0.08038 0.79417 0.15501 0.0
C81 C 0.95226 0.88895 0.12018 0.0
C82 C 0.14801 0.76169 0.17962 0.0
Dy83 Dy 0.01605 0.84151 0.11522 0.0
O84 O 0.11674 0.76538 0.19975 0.0
O85 O 0.1415 0.77401 0.14593 0.0
O86 O 0.05388 0.81535 0.2085 0.0
O87 O 0.05548 0.85289 0.16316 0.0
C88 C 0.04716 0.8509 0.19756 0.0
C89 C 0.04126 0.78427 0.0694 0.0
O90 O 0.06718 0.87657 0.09545 0.0
O91 O 0.11621 0.83688 0.12118 0.0
O92 O 0.97638 0.88851 0.0919 0.0
O93 O 0.96306 0.86359 0.14524 0.0
O94 O 0.01534 0.81032 0.05876 0.0
O95 O 0.05141 0.79204 0.10231 0.0
O96 O 0.0364 0.74681 0.14892 0.0
O97 O 0.98378 0.78818 0.137 0.0
C98 C 0.10459 0.86672 0.09992 0.0
C99 C 0.99839 0.75273 0.14406 0.0
Dy100 Dy 0.71427 0.08864 0.16964 0.0
C101 C 0.62445 0.95609 0.14564 0.0
C102 C 0.7416 0.15918 0.19109 0.0
Dy103 Dy 0.67153 0.019 0.13527 0.0
O104 O 0.74505 0.12754 0.21082 0.0
O105 O 0.72565 0.15155 0.15909 0.0
O106 O 0.69281 0.0665 0.2248 0.0
O107 O 0.6565 0.06269 0.17867 0.0
C108 C 0.65802 0.05733 0.21363 0.0
C109 C 0.73009 0.04034 0.089 0.0
O110 O 0.63571 0.06622 0.10785 0.0
O111 O 0.67261 0.11865 0.13037 0.0
O112 O 0.63745 0.96743 0.11315 0.0
O113 O 0.63694 0.979 0.17189 0.0
O114 O 0.70709 0.01075 0.08186 0.0
O115 O 0.72017 0.05495 0.11985 0.0
O116 O 0.76356 0.04624 0.16635 0.0
O117 O 0.72305 0.99207 0.16608 0.0
C118 C 0.64402 0.10425 0.10931 0.0
C119 C 0.75834 0.008 0.16902 0.0
Dy120 Dy 0.43306 0.71472 0.16451 0.0
C121 C 0.56058 0.6268 0.12541 0.0
C122 C 0.37119 0.75552 0.19202 0.0
Dy123 Dy 0.49199 0.66861 0.12559 0.0
O124 O 0.38394 0.72253 0.20507 0.0
O125 O 0.39193 0.76597 0.1634 0.0
O126 O 0.46209 0.69722 0.21741 0.0
O127 O 0.45537 0.65528 0.17524 0.0
C128 C 0.46592 0.66051 0.20901 0.0
C129 C 0.45956 0.7251 0.08221 0.0
O130 O 0.44176 0.63096 0.10908 0.0
O131 O 0.39565 0.67769 0.12568 0.0
O132 O 0.54243 0.63889 0.09539 0.0
O133 O 0.54029 0.63611 0.15467 0.0
O134 O 0.47239 0.69196 0.06865 0.0
O135 O 0.46844 0.72688 0.11622 0.0
O136 O 0.48113 0.75813 0.17206 0.0
O137 O 0.52931 0.71708 0.14965 0.0
C138 C 0.40524 0.64422 0.10894 0.0
C139 C 0.51841 0.75073 0.16495 0.0
Dy140 Dy 0.79 0.43533 0.1749 0.0
C141 C 0.89475 0.54494 0.12208 0.0
C142 C 0.74292 0.3804 0.20595 0.0
Dy143 Dy 0.84005 0.48724 0.12908 0.0
O144 O 0.77543 0.39279 0.22021 0.0
O145 O 0.73641 0.39785 0.17434 0.0
O146 O 0.81831 0.46107 0.2256 0.0
O147 O 0.85184 0.45023 0.17822 0.0
C148 C 0.85358 0.46073 0.21213 0.0
C149 C 0.78046 0.45701 0.0906 0.0
O150 O 0.8677 0.43104 0.10997 0.0
O151 O 0.82139 0.39115 0.1384 0.0
O152 O 0.86514 0.54015 0.09959 0.0
O153 O 0.89497 0.51762 0.14722 0.0
O154 O 0.81398 0.46571 0.07497 0.0
O155 O 0.77993 0.46844 0.12416 0.0
O156 O 0.75324 0.48821 0.18263 0.0
O157 O 0.79606 0.53072 0.15352 0.0
C158 C 0.85249 0.39593 0.11652 0.0
C159 C 0.76299 0.52377 0.17194 0.0
Dy160 Dy 0.48467 0.8377 0.62943 0.0
C161 C 0.35777 0.79358 0.71281 0.0
C162 C 0.55537 0.87475 0.62582 0.0
Dy163 Dy 0.4247 0.80405 0.67339 0.0
O164 O 0.534 0.86596 0.59675 0.0
O165 O 0.53786 0.86362 0.65604 0.0
O166 O 0.46334 0.81368 0.57414 0.0
O167 O 0.45395 0.78179 0.62349 0.0
C168 C 0.4462 0.7833 0.58899 0.0
C169 C 0.46501 0.8581 0.71164 0.0
O170 O 0.46532 0.75339 0.68241 0.0
O171 O 0.51655 0.78507 0.65346 0.0
O172 O 0.37316 0.8268 0.70443 0.0
O173 O 0.37842 0.76507 0.69869 0.0
O174 O 0.46128 0.82201 0.72188 0.0
O175 O 0.45285 0.86128 0.67823 0.0
O176 O 0.43687 0.87787 0.61069 0.0
O177 O 0.39006 0.83299 0.62745 0.0
C178 C 0.50249 0.75454 0.67202 0.0
C179 C 0.40034 0.86526 0.60952 0.0
Dy180 Dy 0.67027 0.49602 0.62173 0.0
C181 C 0.75272 0.3649 0.67154 0.0
C182 C 0.62446 0.56162 0.62424 0.0
Dy183 Dy 0.71678 0.43378 0.65611 0.0
O184 O 0.64207 0.54866 0.59437 0.0
O185 O 0.63138 0.53838 0.65216 0.0
O186 O 0.68754 0.47738 0.56339 0.0
O187 O 0.72699 0.47091 0.60831 0.0
C188 C 0.72127 0.46329 0.57432 0.0
C189 C 0.65921 0.45977 0.70164 0.0
O190 O 0.7631 0.4793 0.65982 0.0
O191 O 0.72157 0.53067 0.64601 0.0
O192 O 0.7437 0.391 0.69639 0.0
O193 O 0.74406 0.37768 0.63846 0.0
O194 O 0.69519 0.45408 0.71193 0.0
O195 O 0.6571 0.45413 0.66677 0.0
O196 O 0.63162 0.44717 0.60246 0.0
O197 O 0.67509 0.39851 0.62061 0.0
C198 C 0.75662 0.51735 0.65645 0.0
C199 C 0.64263 0.40988 0.60329 0.0
Dy200 Dy 0.02688 0.66968 0.63929 0.0
C201 C 0.14469 0.73139 0.72837 0.0
C202 C 0.96393 0.62121 0.62833 0.0
Dy203 Dy 0.08229 0.70981 0.68613 0.0
O204 O 0.96528 0.6578 0.61844 0.0
O205 O 0.99747 0.61097 0.64224 0.0
O206 O 0.04939 0.69376 0.58477 0.0
O207 O 0.05375 0.72725 0.63407 0.0
C208 C 0.06344 0.72559 0.6 0.0
C209 C 0.04223 0.65484 0.7238 0.0
O210 O 0.03738 0.75659 0.69089 0.0
O211 O 0.98903 0.71726 0.66594 0.0
O212 O 0.13047 0.69654 0.72617 0.0
O213 O 0.12491 0.7551 0.7069 0.0
O214 O 0.04482 0.69113 0.73381 0.0
O215 O 0.05662 0.65155 0.6913 0.0
O216 O 0.08 0.6384 0.61692 0.0
O217 O 0.12319 0.68104 0.64523 0.0
C218 C 1.0004 0.75063 0.68177 0.0
C219 C 0.11611 0.65127 0.62256 0.0
Dy220 Dy 0.83837 0.01119 0.62346 0.0
C221 C 0.74684 0.1373 0.67297 0.0
C222 C 0.88337 0.94481 0.6276 0.0
Dy223 Dy 0.79036 0.07269 0.65797 0.0
O224 O 0.86836 0.95892 0.59683 0.0
O225 O 0.87476 0.96765 0.65537 0.0
O226 O 0.81882 0.02874 0.56532 0.0
O227 O 0.78049 0.03435 0.61099 0.0
C228 C 0.78486 0.04177 0.57675 0.0
C229 C 0.84724 0.04661 0.7041 0.0
O230 O 0.7477 0.02488 0.66855 0.0
O231 O 0.78789 0.97543 0.64655 0.0
O232 O 0.77225 0.12185 0.69552 0.0
O233 O 0.745 0.11709 0.64241 0.0
O234 O 0.81105 0.05215 0.71391 0.0
O235 O 0.8503 0.05294 0.66925 0.0
O236 O 0.87558 0.06088 0.60391 0.0
O237 O 0.83022 0.10844 0.62069 0.0
C238 C 0.75482 0.98745 0.66232 0.0
C239 C 0.86315 0.09776 0.60371 0.0
Dy240 Dy 0.98482 0.16725 0.95414 0.0
C241 C 0.86799 0.2486 0.87751 0.0
C242 C 0.05125 0.12257 0.95864 0.0
Dy243 Dy 0.93039 0.21181 0.90994 0.0
O244 O 0.02797 0.12982 0.98675 0.0
O245 O 0.03761 0.13886 0.92857 0.0
O246 O 0.96485 0.19377 1.00894 0.0
O247 O 0.96334 0.22709 0.95955 0.0
C248 C 0.9533 0.22645 0.99342 0.0
C249 C 0.9564 0.14775 0.87296 0.0
O250 O 0.97863 0.25462 0.90241 0.0
O251 O 0.02451 0.21552 0.93158 0.0
O252 O 0.89478 0.22932 0.85989 0.0
O253 O 0.87599 0.2482 0.91291 0.0
O254 O 0.95688 0.18302 0.85984 0.0
O255 O 0.9466 0.14955 0.90707 0.0
O256 O 0.93202 0.13265 0.97108 0.0
O257 O 0.88995 0.18113 0.9504 0.0
C258 C 0.01516 0.24766 0.91251 0.0
C259 C 0.89665 0.14866 0.96978 0.0
Dy260 Dy 0.34377 0.98589 0.94806 0.0
C261 C 0.24931 0.86628 0.87863 0.0
C262 C 0.39084 0.05001 0.94475 0.0
Dy263 Dy 0.28889 0.92824 0.90758 0.0
O264 O 0.39522 0.02137 0.96864 0.0
O265 O 0.36136 0.04317 0.92283 0.0
O266 O 0.31848 0.98246 1.007 0.0
O267 O 0.29458 0.95158 0.96252 0.0
C268 C 0.2906 0.95857 0.99676 0.0
C269 C 0.33996 0.96641 0.86309 0.0
O270 O 0.24474 0.97453 0.91781 0.0
O271 O 0.28998 0.02275 0.93319 0.0
O272 O 0.27514 0.88687 0.86114 0.0
O273 O 0.24492 0.88019 0.91213 0.0
O274 O 0.30269 0.96308 0.85648 0.0
O275 O 0.347 0.95245 0.89525 0.0
O276 O 0.37797 0.9304 0.95946 0.0
O277 O 0.33113 0.88703 0.93614 0.0
C278 C 0.25358 0.01116 0.9258 0.0
C279 C 0.3645 0.89422 0.95404 0.0
Dy280 Dy 0.52538 0.33794 0.94871 0.0
C281 C 0.64427 0.24814 0.88216 0.0
C282 C 0.45959 0.38335 0.95223 0.0
Dy283 Dy 0.58325 0.29034 0.90958 0.0
O284 O 0.47668 0.36729 0.98099 0.0
O285 O 0.47928 0.37569 0.92212 0.0
O286 O 0.54591 0.32033 1.00552 0.0
O287 O 0.54957 0.28018 0.96046 0.0
C288 C 0.55883 0.28634 0.99424 0.0
C289 C 0.55472 0.34974 0.86745 0.0
O290 O 0.53609 0.24661 0.90456 0.0
O291 O 0.48763 0.2879 0.92622 0.0
O292 O 0.6267 0.27637 0.86478 0.0
O293 O 0.62875 0.24318 0.91484 0.0
O294 O 0.55703 0.31361 0.85638 0.0
O295 O 0.564 0.35089 0.90161 0.0
O296 O 0.57812 0.3738 0.96484 0.0
O297 O 0.62288 0.32681 0.94531 0.0
C298 C 0.49904 0.25367 0.91215 0.0
C299 C 0.61456 0.36007 0.96267 0.0
Dy300 Dy 0.17155 0.51285 0.95609 0.0
C301 C 0.25061 0.63993 0.89452 0.0
C302 C 0.13108 0.44385 0.95562 0.0
Dy303 Dy 0.21436 0.57447 0.91918 0.0
O304 O 0.14437 0.46093 0.98563 0.0
O305 O 0.13913 0.46497 0.92655 0.0
O306 O 0.1876 0.53485 1.01359 0.0
O307 O 0.22731 0.54064 0.96891 0.0
C308 C 0.22093 0.54948 1.00259 0.0
C309 C 0.163 0.53947 0.8732 0.0
O310 O 0.26086 0.53009 0.91039 0.0
O311 O 0.22517 0.47936 0.93583 0.0
O312 O 0.22069 0.62375 0.87876 0.0
O313 O 0.2608 0.62041 0.92407 0.0
O314 O 0.19955 0.54538 0.86544 0.0
O315 O 0.15672 0.54933 0.9069 0.0
O316 O 0.13035 0.56088 0.97249 0.0
O317 O 0.17345 0.60984 0.95545 0.0
C318 C 0.257 0.4928 0.91893 0.0
C319 C 0.14069 0.59823 0.97182 0.0
H320 H 0.53125 0.14948 0.30476 0.0
H321 H 0.59 0.09177 0.39632 0.0
H322 H 0.6273 0.05178 0.35233 0.0
H323 H 0.65109 0.04126 0.28778 0.0
H324 H 0.59087 0.09718 0.19614 0.0
H325 H 0.54606 0.12904 0.2399 0.0
C326 C 0.55129 0.12723 0.31507 0.0
C327 C 0.55797 0.12398 0.35384 0.0
C328 C 0.57288 0.10428 0.28948 0.0
C329 C 0.58408 0.09497 0.36673 0.0
C330 C 0.60578 0.07226 0.3415 0.0
C331 C 0.62735 0.05944 0.27737 0.0
C332 C 0.62462 0.06702 0.23873 0.0
C333 C 0.60161 0.07781 0.3028 0.0
C334 C 0.59368 0.09066 0.22565 0.0
C335 C 0.56819 0.10924 0.25076 0.0
H336 H 0.4227 0.59271 0.20726 0.0
H337 H 0.49187 0.6652 0.28028 0.0
H338 H 0.46567 0.6313 0.3348 0.0
H339 H 0.4142 0.58944 0.36202 0.0
H340 H 0.34374 0.51818 0.28899 0.0
H341 H 0.37959 0.54237 0.23477 0.0
C342 C 0.43311 0.6001 0.23501 0.0
C343 C 0.45908 0.63171 0.23959 0.0
C344 C 0.41707 0.58102 0.26654 0.0
C345 C 0.47187 0.64107 0.2759 0.0
C346 C 0.45662 0.62186 0.30721 0.0
C347 C 0.40761 0.57817 0.3344 0.0
C348 C 0.37599 0.55225 0.32966 0.0
C349 C 0.42786 0.59299 0.303 0.0
C350 C 0.36778 0.53825 0.2935 0.0
C351 C 0.38813 0.55231 0.26234 0.0
H352 H 0.97139 0.35437 0.30087 0.0
H353 H 0.92128 0.41741 0.39371 0.0
H354 H 0.88743 0.46144 0.35059 0.0
H355 H 0.86377 0.47528 0.28653 0.0
H356 H 0.91557 0.41369 0.19363 0.0
H357 H 0.95733 0.3767 0.23644 0.0
C358 C 0.95396 0.37846 0.31164 0.0
C359 C 0.94859 0.38216 0.35052 0.0
C360 C 0.93437 0.40379 0.28656 0.0
C361 C 0.92601 0.41369 0.364 0.0
C362 C 0.9063 0.43879 0.33928 0.0
C363 C 0.88501 0.45458 0.2756 0.0
C364 C 0.88601 0.447 0.23688 0.0
C365 C 0.90902 0.43316 0.3005 0.0
C366 C 0.91393 0.42017 0.22321 0.0
C367 C 0.9377 0.39868 0.24777 0.0
H368 H 0.14288 0.97106 0.29286 0.0
H369 H 0.08581 0.90927 0.38254 0.0
H370 H 0.04446 0.8751 0.33753 0.0
H371 H 0.03212 0.85498 0.27219 0.0
H372 H 0.08775 0.91801 0.1825 0.0
H373 H 0.12118 0.95976 0.22772 0.0
C374 C 0.12059 0.95097 0.30259 0.0
C375 C 0.11788 0.94251 0.34107 0.0
C376 C 0.09682 0.9312 0.27641 0.0
C377 C 0.0887 0.91645 0.35319 0.0
C378 C 0.06516 0.89658 0.32736 0.0
C379 C 0.05059 0.87868 0.26254 0.0
C380 C 0.05762 0.88299 0.22395 0.0
C381 C 0.07003 0.90257 0.28883 0.0
C382 C 0.08165 0.91392 0.21194 0.0
C383 C 0.10115 0.93765 0.23788 0.0
H384 H 0.41298 0.93241 0.8631 0.0
H385 H 0.32822 0.98759 0.79064 0.0
H386 H 0.36413 0.96465 0.73582 0.0
H387 H 0.41299 0.91939 0.70871 0.0
H388 H 0.49585 0.86172 0.78129 0.0
H389 H 0.46812 0.89565 0.83533 0.0
C390 C 0.40301 0.94045 0.83535 0.0
C391 C 0.36761 0.96144 0.83113 0.0
C392 C 0.4234 0.92627 0.80373 0.0
C393 C 0.35519 0.97135 0.79481 0.0
C394 C 0.37565 0.95801 0.76335 0.0
C395 C 0.42598 0.91542 0.73612 0.0
C396 C 0.45662 0.88804 0.74086 0.0
C397 C 0.4089 0.93408 0.76742 0.0
C398 C 0.47249 0.88278 0.77681 0.0
C399 C 0.45633 0.9019 0.80783 0.0
H400 H 0.54202 0.35513 0.79209 0.0
H401 H 0.59639 0.41544 0.88433 0.0
H402 H 0.63053 0.45842 0.84094 0.0
H403 H 0.65258 0.47244 0.77654 0.0
H404 H 0.59587 0.41462 0.68419 0.0
H405 H 0.55484 0.37795 0.72754 0.0
C406 C 0.56052 0.37837 0.80268 0.0
C407 C 0.56695 0.38154 0.84146 0.0
C408 C 0.58011 0.40334 0.77744 0.0
C409 C 0.59088 0.41206 0.85469 0.0
C410 C 0.61072 0.43661 0.82982 0.0
C411 C 0.63042 0.45267 0.76592 0.0
C412 C 0.62766 0.44614 0.72716 0.0
C413 C 0.6067 0.43159 0.7911 0.0
C414 C 0.59871 0.42041 0.71383 0.0
C415 C 0.57537 0.39907 0.73868 0.0
H416 H 0.08826 0.58894 0.72083 0.0
H417 H 0.01367 0.65538 0.79454 0.0
H418 H 0.04001 0.61999 0.84842 0.0
H419 H 0.09286 0.57903 0.87532 0.0
H420 H 0.16953 0.51512 0.8015 0.0
H421 H 0.13354 0.53991 0.74736 0.0
C422 C 0.07673 0.5947 0.7485 0.0
C423 C 0.04911 0.62502 0.75356 0.0
C424 C 0.093 0.57503 0.77965 0.0
C425 C 0.03489 0.63224 0.78981 0.0
C426 C 0.05024 0.61222 0.82075 0.0
C427 C 0.1008 0.56944 0.8475 0.0
C428 C 0.13403 0.54536 0.84255 0.0
C429 C 0.0806 0.58481 0.81619 0.0
C430 C 0.14411 0.53365 0.80613 0.0
C431 C 0.12372 0.54805 0.77505 0.0
H432 H 0.84793 0.03601 0.77972 0.0
H433 H 0.91692 0.08289 0.68948 0.0
H434 H 0.9604 0.11459 0.73444 0.0
H435 H 0.97297 0.13697 0.79914 0.0
H436 H 0.90501 0.08882 0.88948 0.0
H437 H 0.86774 0.04934 0.84509 0.0
C438 C 0.87309 0.05232 0.76992 0.0
C439 C 0.8788 0.05728 0.73115 0.0
C440 C 0.89807 0.07068 0.79607 0.0
C441 C 0.91169 0.07845 0.71902 0.0
C442 C 0.93648 0.0969 0.74481 0.0
C443 C 0.95077 0.11696 0.80921 0.0
C444 C 0.94174 0.11621 0.84769 0.0
C445 C 0.92915 0.09438 0.78337 0.0
C446 C 0.91282 0.09005 0.86018 0.0
C447 C 0.89115 0.06766 0.83467 0.0
H448 H 0.41178 0.09377 0.39884 0.0
H449 H 0.38815 0.12118 0.51421 0.0
H450 H 0.32371 0.09013 0.50917 0.0
H451 H 0.27502 0.05299 0.47228 0.0
H452 H 0.30146 0.02141 0.35852 0.0
H453 H 0.36353 0.05693 0.3622 0.0
C454 C 0.39251 0.09295 0.42289 0.0
C455 C 0.4047 0.10965 0.45689 0.0
C456 C 0.35581 0.07473 0.41983 0.0
C457 C 0.3795 0.10831 0.48782 0.0
C458 C 0.3426 0.09074 0.48487 0.0
C459 C 0.29403 0.0548 0.44808 0.0
C460 C 0.28343 0.03552 0.41484 0.0
C461 C 0.33045 0.07379 0.45102 0.0
C462 C 0.30883 0.03669 0.3841 0.0
C463 C 0.3444 0.05668 0.38633 0.0
H464 H 0.41481 0.42196 0.39309 0.0
H465 H 0.39113 0.4126 0.51103 0.0
H466 H 0.41942 0.34645 0.5117 0.0
H467 H 0.45219 0.29159 0.47868 0.0
H468 H 0.47963 0.30337 0.36183 0.0
H469 H 0.44787 0.36786 0.36043 0.0
C470 C 0.41596 0.4055 0.41899 0.0
C471 C 0.40101 0.4222 0.45202 0.0
C472 C 0.43235 0.36763 0.41912 0.0
C473 C 0.40271 0.40051 0.48532 0.0
C474 C 0.41864 0.36259 0.48564 0.0
C475 C 0.45024 0.308 0.45278 0.0
C476 C 0.46705 0.29244 0.42006 0.0
C477 C 0.43344 0.34578 0.45267 0.0
C478 C 0.46599 0.31449 0.38702 0.0
C479 C 0.44821 0.35146 0.38636 0.0
H480 H 0.09267 0.41011 0.39312 0.0
H481 H 0.11435 0.39064 0.51039 0.0
H482 H 0.17898 0.42104 0.50448 0.0
H483 H 0.22817 0.45548 0.46626 0.0
H484 H 0.20389 0.47922 0.35024 0.0
H485 H 0.14172 0.444 0.35499 0.0
C486 C 0.11155 0.41254 0.4174 0.0
C487 C 0.09878 0.39832 0.4522 0.0
C488 C 0.14838 0.43029 0.41379 0.0
C489 C 0.12347 0.40165 0.4834 0.0
C490 C 0.16048 0.41881 0.47995 0.0
C491 C 0.20967 0.45197 0.44183 0.0
C492 C 0.22085 0.46901 0.40767 0.0
C493 C 0.17321 0.4333 0.44529 0.0
C494 C 0.19607 0.46567 0.37656 0.0
C495 C 0.16044 0.4459 0.3794 0.0
H496 H 0.08862 0.08568 0.39299 0.0
H497 H 0.1128 0.09953 0.51052 0.0
H498 H 0.08664 0.16643 0.50845 0.0
H499 H 0.05522 0.22029 0.47342 0.0
H500 H 0.02667 0.20438 0.35715 0.0
H501 H 0.05716 0.13927 0.3581 0.0
C502 C 0.08802 0.10332 0.41819 0.0
C503 C 0.10243 0.08771 0.45192 0.0
C504 C 0.07286 0.14158 0.41675 0.0
C505 C 0.10155 0.11083 0.48432 0.0
C506 C 0.08688 0.14915 0.48306 0.0
C507 C 0.05672 0.2029 0.44809 0.0
C508 C 0.03984 0.21734 0.41494 0.0
C509 C 0.07254 0.16485 0.44941 0.0
C510 C 0.04034 0.19405 0.38267 0.0
C511 C 0.05735 0.15675 0.38336 0.0
H512 H 0.89122 0.87933 0.16708 0.0
H513 H 0.93706 0.95695 0.08288 0.0
H514 H 0.882 1.00201 0.09274 0.0
H515 H 0.8212 0.01915 0.1255 0.0
H516 H 0.77175 0.93874 0.20521 0.0
H517 H 0.82828 0.89483 0.1974 0.0
C518 C 0.88907 0.90613 0.1509 0.0
C519 C 0.91814 0.91509 0.12447 0.0
C520 C 0.85704 0.93138 0.15626 0.0
C521 C 0.91493 0.94954 0.10332 0.0
C522 C 0.88362 0.97532 0.10909 0.0
C523 C 0.8231 0.99221 0.14148 0.0
C524 C 0.793 0.9824 0.16653 0.0
C525 C 0.85468 0.9666 0.13563 0.0
C526 C 0.79498 0.94695 0.1862 0.0
C527 C 0.82713 0.92189 0.1816 0.0
H528 H 0.50925 0.82298 0.19599 0.0
H529 H 0.58967 0.75326 0.13064 0.0
H530 H 0.62837 0.81122 0.11698 0.0
H531 H 0.63719 0.88278 0.12008 0.0
H532 H 0.56028 0.95164 0.18931 0.0
H533 H 0.5219 0.89326 0.20435 0.0
C534 C 0.53563 0.82033 0.17933 0.0
C535 C 0.54625 0.78382 0.16418 0.0
C536 C 0.55784 0.85384 0.17147 0.0
C537 C 0.58072 0.78091 0.14282 0.0
C538 C 0.60273 0.81416 0.13458 0.0
C539 C 0.6118 0.88482 0.13817 0.0
C540 C 0.60071 0.92123 0.15286 0.0
C541 C 0.59102 0.85092 0.14795 0.0
C542 C 0.56871 0.92374 0.17728 0.0
C543 C 0.547 0.89043 0.18604 0.0
H544 H 0.60072 0.60731 0.18779 0.0
H545 H 0.61047 0.60927 0.06771 0.0
H546 H 0.67746 0.58335 0.07219 0.0
H547 H 0.7317 0.55648 0.1104 0.0
H548 H 0.71955 0.55073 0.23002 0.0
H549 H 0.65549 0.58305 0.22585 0.0
C550 C 0.61748 0.60206 0.16255 0.0
C551 C 0.60054 0.60983 0.12741 0.0
C552 C 0.65583 0.58726 0.16543 0.0
C553 C 0.62273 0.60314 0.09503 0.0
C554 C 0.66109 0.58858 0.09763 0.0
C555 C 0.71557 0.56372 0.13558 0.0
C556 C 0.73073 0.55252 0.17063 0.0
C557 C 0.67789 0.58038 0.13269 0.0
C558 C 0.70886 0.56019 0.20295 0.0
C559 C 0.67204 0.57809 0.20046 0.0
H560 H 0.01751 0.67659 0.15738 0.0
H561 H 0.92185 0.75028 0.12078 0.0
H562 H 0.8826 0.69231 0.10723 0.0
H563 H 0.87545 0.62024 0.10556 0.0
H564 H 0.96994 0.54739 0.14552 0.0
H565 H 0.01005 0.60537 0.15698 0.0
C566 C 0.98795 0.68012 0.14675 0.0
C567 C 0.97271 0.71792 0.1403 0.0
C568 C 0.9656 0.64668 0.13887 0.0
C569 C 0.93432 0.72167 0.1264 0.0
C570 C 0.91193 0.68847 0.1183 0.0
C571 C 0.90508 0.61719 0.11615 0.0
C572 C 0.92012 0.57971 0.12408 0.0
C573 C 0.92737 0.6508 0.12411 0.0
C574 C 0.95806 0.57601 0.13881 0.0
C575 C 0.98083 0.60913 0.14563 0.0
H576 H 0.71702 0.96087 0.60208 0.0
H577 H 0.71587 0.9578 0.72235 0.0
H578 H 0.65425 0.92094 0.72125 0.0
H579 H 0.5993 0.89302 0.68597 0.0
H580 H 0.59808 0.89973 0.56563 0.0
H581 H 0.66201 0.93226 0.56661 0.0
C582 C 0.70352 0.95131 0.62795 0.0
C583 C 0.72106 0.96096 0.66229 0.0
C584 C 0.66754 0.93152 0.62696 0.0
C585 C 0.70302 0.94987 0.69573 0.0
C586 C 0.66777 0.92913 0.69502 0.0
C587 C 0.61308 0.90147 0.65991 0.0
C588 C 0.59405 0.89405 0.62572 0.0
C589 C 0.64951 0.92035 0.66081 0.0
C590 C 0.61218 0.90519 0.59224 0.0
C591 C 0.64871 0.9237 0.59283 0.0
H592 H 0.57885 0.58598 0.68178 0.0
H593 H 0.62287 0.62147 0.57411 0.0
H594 H 0.59154 0.68557 0.58128 0.0
H595 H 0.55156 0.7311 0.61778 0.0
H596 H 0.5027 0.69467 0.72316 0.0
H597 H 0.53646 0.63127 0.71761 0.0
C598 C 0.5814 0.60776 0.65986 0.0
C599 C 0.60315 0.59915 0.62746 0.0
C600 C 0.5629 0.64436 0.66403 0.0
C601 C 0.60613 0.62741 0.59918 0.0
C602 C 0.58842 0.66409 0.60338 0.0
C603 C 0.54885 0.70957 0.63992 0.0
C604 C 0.52549 0.71782 0.67134 0.0
C605 C 0.56695 0.67291 0.63574 0.0
C606 C 0.52106 0.68913 0.69906 0.0
C607 C 0.54014 0.65288 0.69574 0.0
H608 H 0.88738 0.64523 0.62722 0.0
H609 H 0.96088 0.54278 0.63755 0.0
H610 H 0.90355 0.50242 0.64994 0.0
H611 H 0.8332 0.49611 0.65861 0.0
H612 H 0.75818 0.59757 0.64822 0.0
H613 H 0.81551 0.6386 0.63613 0.0
C614 C 0.89065 0.61397 0.63166 0.0
C615 C 0.92828 0.59689 0.63108 0.0
C616 C 0.85745 0.59094 0.6396 0.0
C617 C 0.93223 0.55653 0.63756 0.0
C618 C 0.89948 0.53348 0.64494 0.0
C619 C 0.82917 0.52729 0.65423 0.0
C620 C 0.79123 0.54367 0.65468 0.0
C621 C 0.86205 0.55042 0.64642 0.0
C622 C 0.78696 0.58413 0.64841 0.0
C623 C 0.81975 0.60757 0.64115 0.0
H624 H 0.91981 0.91659 0.68933 0.0
H625 H 0.89082 0.88664 0.57562 0.0
H626 H 0.92024 0.82167 0.58414 0.0
H627 H 0.956 0.77408 0.62349 0.0
H628 H 0.98968 0.8062 0.73536 0.0
H629 H 0.9559 0.86929 0.72846 0.0
C630 C 0.92003 0.89585 0.66639 0.0
C631 C 0.90328 0.90642 0.63183 0.0
C632 C 0.93728 0.85874 0.67145 0.0
C633 C 0.9038 0.8793 0.60236 0.0
C634 C 0.92038 0.84207 0.60733 0.0
C635 C 0.95498 0.79454 0.64666 0.0
C636 C 0.97429 0.78519 0.6803 0.0
C637 C 0.93717 0.83145 0.64176 0.0
C638 C 0.97426 0.81252 0.70956 0.0
C639 C 0.95532 0.84869 0.70545 0.0
H640 H 0.11285 0.13021 0.91203 0.0
H641 H 0.07329 0.06571 1.0083 0.0
H642 H 0.13354 0.02628 1.00729 0.0
H643 H 0.19602 0.0084 0.97697 0.0
H644 H 0.23745 0.07544 0.8832 0.0
H645 H 0.1781 0.11631 0.88541 0.0
C646 C 0.11756 0.10762 0.93288 0.0
C647 C 0.08855 0.10043 0.95995 0.0
C648 C 0.15256 0.08579 0.93255 0.0
C649 C 0.09518 0.0716 0.98718 0.0
C650 C 0.12956 0.04909 0.98654 0.0
C651 C 0.19209 0.0322 0.95728 0.0
C652 C 0.22071 0.03894 0.9298 0.0
C653 C 0.15822 0.05565 0.9591 0.0
C654 C 0.21575 0.07 0.90462 0.0
C655 C 0.18178 0.09311 0.9058 0.0
H656 H 0.36998 0.12114 0.9175 0.0
H657 H 0.46694 0.05758 0.96588 0.0
H658 H 0.50919 0.11473 0.9577 0.0
H659 H 0.51856 0.18195 0.93618 0.0
H660 H 0.4206 0.249 0.89456 0.0
H661 H 0.37838 0.19104 0.90032 0.0
C662 C 0.40037 0.11996 0.9263 0.0
C663 C 0.41559 0.08521 0.94198 0.0
C664 C 0.42411 0.1533 0.92243 0.0
C665 C 0.45472 0.08404 0.9538 0.0
C666 C 0.47883 0.11661 0.94897 0.0
C667 C 0.48799 0.1839 0.92817 0.0
C668 C 0.47278 0.21943 0.91425 0.0
C669 C 0.46387 0.15122 0.93312 0.0
C670 C 0.43295 0.22181 0.9049 0.0
C671 C 0.40892 0.18875 0.90831 0.0
H672 H 0.42326 0.41836 0.89397 0.0
H673 H 0.40859 0.39013 1.01054 0.0
H674 H 0.34217 0.41747 1.00918 0.0
H675 H 0.28886 0.45086 0.97499 0.0
H676 H 0.30567 0.48327 0.85982 0.0
H677 H 0.37038 0.45198 0.86002 0.0
C678 C 0.40555 0.41835 0.91911 0.0
C679 C 0.42074 0.40244 0.95235 0.0
C680 C 0.36759 0.43421 0.91809 0.0
C681 C 0.39757 0.40253 0.98471 0.0
C682 C 0.35953 0.41789 0.98386 0.0
C683 C 0.30641 0.4501 0.94975 0.0
C684 C 0.2924 0.46829 0.91711 0.0
C685 C 0.34421 0.43371 0.95067 0.0
C686 C 0.31578 0.46866 0.88494 0.0
C687 C 0.35282 0.45116 0.8852 0.0
H688 H 0.09894 0.40993 0.89475 0.0
H689 H 0.12163 0.39035 1.01182 0.0
H690 H 0.09223 0.32511 1.00736 0.0
H691 H 0.05739 0.27491 0.97059 0.0
H692 H 0.03024 0.29711 0.8549 0.0
H693 H 0.06488 0.35974 0.85799 0.0
C694 C 0.09746 0.39136 0.9193 0.0
C695 C 0.11228 0.40494 0.95363 0.0
C696 C 0.08024 0.35418 0.91653 0.0
C697 C 0.11017 0.38062 0.98518 0.0
C698 C 0.09356 0.34327 0.98256 0.0
C699 C 0.06011 0.29303 0.94583 0.0
C700 C 0.04228 0.28112 0.91225 0.0
C701 C 0.0784 0.32979 0.9484 0.0
C702 C 0.04449 0.30545 0.88075 0.0
C703 C 0.06391 0.34137 0.88266 0.0
H704 H 0.69818 0.204 0.43255 0.0
H705 H 0.67514 0.28943 0.34656 0.0
H706 H 0.7454 0.29152 0.33131 0.0
H707 H 0.81323 0.27558 0.34969 0.0
H708 H 0.83435 0.19052 0.43681 0.0
H709 H 0.76415 0.18017 0.44343 0.0
C710 C 0.70865 0.22316 0.41053 0.0
C711 C 0.68257 0.24788 0.39167 0.0
C712 C 0.74826 0.22362 0.40188 0.0
C713 C 0.69552 0.27118 0.36201 0.0
C714 C 0.73537 0.27211 0.35324 0.0
C715 C 0.80239 0.25395 0.36929 0.0
C716 C 0.82837 0.2345 0.39346 0.0
C717 C 0.76207 0.24932 0.3739 0.0
C718 C 0.8145 0.20611 0.41836 0.0
C719 C 0.7745 0.2005 0.42241 0.0
H720 H 0.28619 0.6944 0.32357 0.0
H721 H 0.17978 0.67197 0.38474 0.0
H722 H 0.1661 0.74207 0.3877 0.0
H723 H 0.1928 0.80806 0.3866 0.0
H724 H 0.3018 0.83144 0.33067 0.0
H725 H 0.30651 0.76228 0.31169 0.0
C726 C 0.25936 0.70488 0.3364 0.0
C727 C 0.23452 0.6786 0.35496 0.0
C728 C 0.25299 0.74516 0.33987 0.0
C729 C 0.19951 0.69204 0.37089 0.0
C730 C 0.19194 0.73202 0.37291 0.0
C731 C 0.21728 0.79792 0.36979 0.0
C732 C 0.2477 0.8236 0.36099 0.0
C733 C 0.21989 0.75862 0.35987 0.0
C734 C 0.2787 0.81132 0.33828 0.0
C735 C 0.28125 0.77204 0.3275 0.0
H736 H 0.31603 0.7231 0.23592 0.0
H737 H 0.34017 0.8234 0.16632 0.0
H738 H 0.27028 0.83735 0.16131 0.0
H739 H 0.20402 0.81215 0.1647 0.0
H740 H 0.17841 0.70982 0.2306 0.0
H741 H 0.2477 0.70504 0.24924 0.0
C742 C 0.30593 0.74871 0.2207 0.0
C743 C 0.33263 0.77162 0.20051 0.0
C744 C 0.26578 0.75524 0.21638 0.0
C745 C 0.31974 0.80511 0.18145 0.0
C746 C 0.27991 0.81283 0.17831 0.0
C747 C 0.21369 0.78896 0.18338 0.0
C748 C 0.18731 0.76029 0.19515 0.0
C749 C 0.2529 0.78652 0.1935 0.0
C750 C 0.19906 0.73139 0.22057 0.0
C751 C 0.23839 0.72885 0.23123 0.0
H752 H 0.77263 0.32629 0.25289 0.0
H753 H 0.67501 0.35051 0.17962 0.0
H754 H 0.66291 0.28056 0.17281 0.0
H755 H 0.6904 0.21497 0.17493 0.0
H756 H 0.79078 0.18958 0.2441 0.0
H757 H 0.79218 0.25813 0.26518 0.0
C758 C 0.7478 0.31619 0.23663 0.0
C759 C 0.72545 0.34293 0.21569 0.0
C760 C 0.74277 0.27608 0.23092 0.0
C761 C 0.69289 0.33003 0.19535 0.0
C762 C 0.68637 0.29015 0.19104 0.0
C763 C 0.71254 0.22449 0.19472 0.0
C764 C 0.74167 0.19844 0.20676 0.0
C765 C 0.713 0.26328 0.20635 0.0
C766 C 0.769 0.21003 0.23372 0.0
C767 C 0.76957 0.24891 0.24585 0.0
H768 H 0.17947 0.80175 0.73634 0.0
H769 H 0.19675 0.67806 0.75468 0.0
H770 H 0.26731 0.68744 0.75856 0.0
H771 H 0.32345 0.72835 0.74058 0.0
H772 H 0.30592 0.85226 0.72365 0.0
H773 H 0.23624 0.84543 0.73607 0.0
C774 C 0.19868 0.77716 0.74238 0.0
C775 C 0.18354 0.73925 0.74365 0.0
C776 C 0.23917 0.78263 0.74403 0.0
C777 C 0.20818 0.70753 0.75263 0.0
C778 C 0.24853 0.71277 0.75462 0.0
C779 C 0.30442 0.75386 0.7406 0.0
C780 C 0.31905 0.7903 0.72977 0.0
C781 C 0.26437 0.74977 0.7477 0.0
C782 C 0.29479 0.82361 0.73099 0.0
C783 C 0.25496 0.8198 0.73803 0.0
H784 H 0.76851 0.19072 0.7244 0.0
H785 H 0.69722 0.17446 0.6259 0.0
H786 H 0.69326 0.24513 0.61712 0.0
H787 H 0.71741 0.30972 0.63231 0.0
H788 H 0.78778 0.32808 0.73084 0.0
H789 H 0.7857 0.2575 0.74458 0.0
C790 C 0.75116 0.20279 0.70171 0.0
C791 C 0.73372 0.17785 0.67539 0.0
C792 C 0.75017 0.24328 0.69615 0.0
C793 C 0.71105 0.19342 0.64626 0.0
C794 C 0.7092 0.23367 0.64097 0.0
C795 C 0.7327 0.29821 0.65659 0.0
C796 C 0.75414 0.32321 0.6798 0.0
C797 C 0.73022 0.25852 0.66468 0.0
C798 C 0.77222 0.30866 0.71212 0.0
C799 C 0.77061 0.26863 0.72009 0.0
H800 H 0.81559 0.19677 0.8973 0.0
H801 H 0.83179 0.29906 0.82874 0.0
H802 H 0.761 0.30135 0.81561 0.0
H803 H 0.69475 0.28116 0.83417 0.0
H804 H 0.67989 0.18295 0.90864 0.0
H805 H 0.75038 0.17073 0.90793 0.0
C806 C 0.80344 0.21921 0.87909 0.0
C807 C 0.82772 0.2484 0.86472 0.0
C808 C 0.76332 0.2207 0.87273 0.0
C809 C 0.8128 0.27692 0.84049 0.0
C810 C 0.77262 0.27809 0.83306 0.0
C811 C 0.70693 0.25631 0.84917 0.0
C812 C 0.6828 0.23325 0.87195 0.0
C813 C 0.7475 0.25112 0.85045 0.0
C814 C 0.69839 0.20112 0.89127 0.0
C815 C 0.73855 0.19441 0.89113 0.0
H816 H 0.29559 0.81417 0.90912 0.0
H817 H 0.19929 0.82677 0.83221 0.0
H818 H 0.19621 0.75514 0.82502 0.0
H819 H 0.21725 0.68992 0.8459 0.0
H820 H 0.31131 0.67872 0.926 0.0
H821 H 0.3208 0.74955 0.92515 0.0
C822 C 0.2742 0.801 0.89056 0.0
C823 C 0.24702 0.82463 0.87189 0.0
C824 C 0.273 0.76058 0.88658 0.0
C825 C 0.2198 0.80833 0.84728 0.0
C826 C 0.21839 0.76772 0.84297 0.0
C827 C 0.24042 0.70299 0.86244 0.0
C828 C 0.26326 0.67969 0.88641 0.0
C829 C 0.24435 0.74362 0.86313 0.0
C830 C 0.29335 0.69648 0.90758 0.0
C831 C 0.2985 0.73683 0.90736 0.0
H832 H 0.67568 0.13457 0.46332 0.0
H833 H 0.58676 0.09461 0.53967 0.0
H834 H 0.63665 0.0607 0.57685 0.0
H835 H 0.70612 0.04424 0.58914 0.0
H836 H 0.79449 0.08047 0.51068 0.0
H837 H 0.74447 0.11382 0.47296 0.0
C838 C 0.66715 0.11824 0.48797 0.0
C839 C 0.62735 0.11736 0.49869 0.0
C840 C 0.69604 0.09824 0.50899 0.0
C841 C 0.61697 0.0957 0.53057 0.0
C842 C 0.64559 0.07644 0.55201 0.0
C843 C 0.71438 0.05932 0.56368 0.0
C844 C 0.75408 0.06005 0.55283 0.0
C845 C 0.68527 0.0778 0.54172 0.0
C846 C 0.76421 0.07937 0.5196 0.0
C847 C 0.73559 0.09857 0.49809 0.0
H848 H 0.4152 0.78039 0.51821 0.0
H849 H 0.44709 0.70732 0.61177 0.0
H850 H 0.42529 0.64925 0.57804 0.0
H851 H 0.39489 0.61877 0.52254 0.0
H852 H 0.35796 0.69213 0.43096 0.0
H853 H 0.38391 0.74985 0.46283 0.0
C854 C 0.41749 0.75171 0.53107 0.0
C855 C 0.43288 0.74836 0.56748 0.0
C856 C 0.40394 0.71821 0.51173 0.0
C857 C 0.43525 0.71094 0.58388 0.0
C858 C 0.42285 0.67757 0.56453 0.0
C859 C 0.39303 0.64732 0.50937 0.0
C860 C 0.37485 0.65094 0.47417 0.0
C861 C 0.40691 0.68076 0.5285 0.0
C862 C 0.37191 0.68839 0.45794 0.0
C863 C 0.3867 0.72151 0.47621 0.0
H864 H 0.82752 0.36776 0.46128 0.0
H865 H 0.91792 0.41099 0.5346 0.0
H866 H 0.86878 0.44563 0.57175 0.0
H867 H 0.79986 0.46194 0.58479 0.0
H868 H 0.70956 0.42277 0.50951 0.0
H869 H 0.75874 0.38832 0.47172 0.0
C870 C 0.83645 0.38491 0.4853 0.0
C871 C 0.87641 0.38658 0.49523 0.0
C872 C 0.808 0.4054 0.50623 0.0
C873 C 0.88749 0.4093 0.5262 0.0
C874 C 0.85935 0.429 0.54758 0.0
C875 C 0.791 0.446 0.55999 0.0
C876 C 0.75112 0.44469 0.54999 0.0
C877 C 0.81952 0.427 0.53806 0.0
C878 C 0.74009 0.4243 0.51763 0.0
C879 C 0.7682 0.4045 0.49613 0.0
H880 H 0.08524 0.73008 0.52652 0.0
H881 H 0.06915 0.80056 0.6253 0.0
H882 H 0.08804 0.85916 0.59077 0.0
H883 H 0.11159 0.89062 0.53278 0.0
H884 H 0.13178 0.81954 0.43519 0.0
H885 H 0.10857 0.76157 0.46847 0.0
C886 C 0.08581 0.75829 0.54041 0.0
C887 C 0.07575 0.76079 0.57847 0.0
C888 C 0.09724 0.79205 0.52041 0.0
C889 C 0.07687 0.79762 0.59609 0.0
C890 C 0.08756 0.83129 0.5763 0.0
C891 C 0.1101 0.86258 0.51865 0.0
C892 C 0.12283 0.85955 0.48138 0.0
C893 C 0.09794 0.82894 0.53845 0.0
C894 C 0.12182 0.82274 0.46377 0.0
C895 C 0.10873 0.78949 0.48286 0.0
H896 H 0.21629 0.93905 0.97796 0.0
H897 H 0.29671 0.94065 0.07073 0.0
H898 H 0.24653 0.91198 0.11133 0.0
H899 H 0.17943 0.88579 0.12004 0.0
H900 H 0.09706 0.89298 1.02884 0.0
H901 H 0.14779 0.91994 0.9883 0.0
C902 C 0.22271 0.93343 1.00712 0.0
C903 C 0.26015 0.94174 1.02133 0.0
C904 C 0.19314 0.91891 1.03065 0.0
C905 C 0.26804 0.93445 0.05922 0.0
C906 C 0.23936 0.91812 0.08241 0.0
C907 C 0.17259 0.89369 0.0914 0.0
C908 C 0.13454 0.88738 0.07744 0.0
C909 C 0.20173 0.91022 0.06844 0.0
C910 C 0.12598 0.89792 0.04036 0.0
C911 C 0.15507 0.91303 1.01705 0.0
H912 H 0.63751 0.18262 0.11935 0.0
H913 H 0.60215 0.08957 0.04524 0.0
H914 H 0.57311 0.13774 1.00249 0.0
H915 H 0.56045 0.20693 0.98497 0.0
H916 H 0.59383 0.29892 0.06094 0.0
H917 H 0.62158 0.25058 0.10392 0.0
C918 C 0.62326 0.17274 0.09395 0.0
C919 C 0.62222 0.13249 0.08544 0.0
C920 C 0.60669 0.20051 0.06963 0.0
C921 C 0.60321 0.12031 0.0526 0.0
C922 C 0.58687 0.14788 1.028 0.0
C923 C 0.57373 0.21625 1.01097 0.0
C924 C 0.57525 0.25641 1.01976 0.0
C925 C 0.58891 0.18813 1.03598 0.0
C926 C 0.59228 0.26817 0.05363 0.0
C927 C 0.60813 0.24056 0.07821 0.0
H928 H 0.30001 0.54955 0.99441 0.0
H929 H 0.20793 0.59161 0.06629 0.0
H930 H 0.25636 0.62509 0.10557 0.0
H931 H 0.32537 0.64344 0.1188 0.0
H932 H 0.41725 0.59654 0.04913 0.0
H933 H 0.36874 0.56389 1.01004 0.0
C934 C 0.29058 0.56598 1.01875 0.0
C935 C 0.2504 0.56828 1.02734 0.0
C936 C 0.31869 0.58429 0.04169 0.0
C937 C 0.23867 0.5893 0.05918 0.0
C938 C 0.26639 0.60853 0.08157 0.0
C939 C 0.33474 0.62594 0.09516 0.0
C940 C 0.37505 0.62264 0.08696 0.0
C941 C 0.30654 0.60639 0.07304 0.0
C942 C 0.38658 0.5995 0.05634 0.0
C943 C 0.35879 0.5809 1.03378 0.0
H944 H 0.89881 0.39216 0.05421 0.0
H945 H 0.84577 0.31967 0.13872 0.0
H946 H 0.87347 0.26114 0.10955 0.0
H947 H 0.91202 0.22984 0.05893 0.0
H948 H 0.96129 0.30235 0.97246 0.0
H949 H 0.93621 0.36103 1.00333 0.0
C950 C 0.89351 0.3636 0.0664 0.0
C951 C 0.8703 0.36054 0.09877 0.0
C952 C 0.90895 0.32979 0.04901 0.0
C953 C 0.86339 0.32308 0.1138 0.0
C954 C 0.87932 0.28947 0.09714 0.0
C955 C 0.91747 0.25854 0.04711 0.0
C956 C 0.93875 0.26167 1.01359 0.0
C957 C 0.90205 0.29237 0.06462 0.0
C958 C 0.94501 0.29905 0.99823 0.0
C959 C 0.93067 0.33271 1.01589 0.0
H960 H 0.32112 0.86125 0.61453 0.0
H961 H 0.4137 0.91382 0.55005 0.0
H962 H 0.36531 0.94263 0.50754 0.0
H963 H 0.29632 0.9518 0.48784 0.0
H964 H 0.20407 0.90237 0.55485 0.0
H965 H 0.25255 0.87319 0.59697 0.0
C966 C 0.33073 0.87912 0.59124 0.0
C967 C 0.371 0.88522 0.58541 0.0
C968 C 0.30274 0.89595 0.56717 0.0
C969 C 0.3829 0.90879 0.55531 0.0
C970 C 0.35523 0.92511 0.53085 0.0
C971 C 0.28698 0.93453 0.51164 0.0
C972 C 0.24676 0.92894 0.51819 0.0
C973 C 0.31506 0.91865 0.53632 0.0
C974 C 0.2349 0.90704 0.54935 0.0
C975 C 0.26259 0.89036 0.5734 0.0
H976 H 0.63896 0.33153 0.61764 0.0
H977 H 0.59408 0.42072 0.54349 0.0
H978 H 0.56026 0.37075 0.50677 0.0
H979 H 0.54558 0.30133 0.49415 0.0
H980 H 0.58668 0.2125 0.57044 0.0
H981 H 0.61975 0.26259 0.60796 0.0
C982 C 0.62157 0.34007 0.59357 0.0
C983 C 0.61923 0.37987 0.58322 0.0
C984 C 0.6017 0.31117 0.57288 0.0
C985 C 0.59624 0.3904 0.55219 0.0
C986 C 0.57706 0.36179 0.53104 0.0
C987 C 0.5617 0.29301 0.51908 0.0
C988 C 0.56399 0.25327 0.52944 0.0
C989 C 0.57993 0.32206 0.54087 0.0
C990 C 0.58449 0.2429 0.56201 0.0
C991 C 0.6035 0.27153 0.58335 0.0
H992 H 0.27842 0.59381 0.55537 0.0
H993 H 0.20359 0.56287 0.46296 0.0
H994 H 0.14616 0.58512 0.49767 0.0
H995 H 0.11674 0.6148 0.55417 0.0
H996 H 0.19211 0.64915 0.64511 0.0
H997 H 0.24913 0.62419 0.61152 0.0
C998 C 0.24951 0.59188 0.54294 0.0
C999 C 0.24541 0.57656 0.50665 0.0
C1000 C 0.21644 0.60535 0.56293 0.0
C1001 C 0.20772 0.57457 0.49081 0.0
C1002 C 0.17474 0.58724 0.51071 0.0
C1003 C 0.14559 0.61644 0.56675 0.0
C1004 C 0.14997 0.63367 0.60226 0.0
C1005 C 0.17865 0.60279 0.5468 0.0
C1006 C 0.18777 0.6361 0.61783 0.0
C1007 C 0.22051 0.62182 0.59861 0.0
H1008 H 0.86529 0.17687 0.61541 0.0
H1009 H 0.91081 0.08621 0.5435 0.0
H1010 H 0.94375 0.13549 0.50532 0.0
H1011 H 0.9585 0.20478 0.49125 0.0
H1012 H 0.91728 0.29501 0.56577 0.0
H1013 H 0.88382 0.24576 0.60385 0.0
C1014 C 0.88258 0.16788 0.59148 0.0
C1015 C 0.88542 0.12779 0.58233 0.0
C1016 C 0.90212 0.19642 0.56997 0.0
C1017 C 0.90827 0.11674 0.55139 0.0
C1018 C 0.92698 0.14497 0.52938 0.0
C1019 C 0.94224 0.21358 0.5159 0.0
C1020 C 0.94015 0.25352 0.52561 0.0
C1021 C 0.92392 0.18493 0.53822 0.0
C1022 C 0.91938 0.26447 0.55781 0.0
C1023 C 0.90018 0.2363 0.57953 0.0
H1024 H 0.87502 0.07211 0.98211 0.0
H1025 H 0.84645 0.19126 1.01143 0.0
H1026 H 0.79403 0.16853 0.05229 0.0
H1027 H 0.75545 0.11483 0.07956 0.0
H1028 H 0.77854 0.99606 0.04553 0.0
H1029 H 0.83366 0.01817 1.00707 0.0
C1030 C 0.85727 0.09296 0.9975 0.0
C1031 C 0.86468 0.13333 0.99378 0.0
C1032 C 0.82608 0.07967 1.02018 0.0
C1033 C 0.84117 0.16007 1.01359 0.0
C1034 C 0.81124 0.14709 1.03709 0.0
C1035 C 0.77262 0.09386 0.06369 0.0
C1036 C 0.7631 0.05389 0.06543 0.0
C1037 C 0.8033 0.107 0.04057 0.0
C1038 C 0.78523 0.02702 0.04444 0.0
C1039 C 0.8168 0.03967 1.02252 0.0
H1040 H 0.40766 0.8909 1.01847 0.0
H1041 H 0.36728 0.81943 0.92713 0.0
H1042 H 0.39447 0.76098 0.95713 0.0
H1043 H 0.42702 0.72903 1.01153 0.0
H1044 H 0.4631 0.80083 0.10442 0.0
H1045 H 0.44075 0.85946 0.07195 0.0
C1046 C 0.40546 0.86265 1.00481 0.0
C1047 C 0.38564 0.8598 0.97039 0.0
C1048 C 0.42022 0.82878 1.02283 0.0
C1049 C 0.38235 0.82265 0.95359 0.0
C1050 C 0.39787 0.78907 0.97081 0.0
C1051 C 0.43024 0.75755 1.02444 0.0
C1052 C 0.44685 0.76029 0.06043 0.0
C1053 C 0.41641 0.79157 1.00578 0.0
C1054 C 0.45036 0.79759 0.07686 0.0
C1055 C 0.43761 0.83134 0.05825 0.0
H1056 H 0.77646 0.42553 1.02075 0.0
H1057 H 0.70508 0.45688 0.11544 0.0
H1058 H 0.64667 0.43304 0.08325 0.0
H1059 H 0.61587 0.40051 1.02878 0.0
H1060 H 0.68833 0.3659 0.93587 0.0
H1061 H 0.74576 0.39398 0.96626 0.0
C1062 C 0.74807 0.4273 1.0342 0.0
C1063 C 0.74519 0.44294 0.07042 0.0
C1064 C 0.71458 0.413 1.01569 0.0
C1065 C 0.70819 0.44481 0.08761 0.0
C1066 C 0.67469 0.43126 0.06916 0.0
C1067 C 0.64413 0.39977 1.01501 0.0
C1068 C 0.64775 0.3814 0.97999 0.0
C1069 C 0.67748 0.41502 1.03324 0.0
C1070 C 0.68474 0.37992 0.96281 0.0
C1071 C 0.71767 0.39588 0.98022 0.0
H1072 H 0.04911 0.70691 0.08531 0.0
H1073 H 0.07251 0.79286 1.00023 0.0
H1074 H 0.10518 0.74287 0.96199 0.0
H1075 H 0.12902 0.67489 0.95389 0.0
H1076 H 0.09998 0.58779 1.03644 0.0
H1077 H 0.06713 0.63771 0.07436 0.0
C1078 C 0.06132 0.71458 0.05837 0.0
C1079 C 0.05895 0.75351 0.04569 0.0
C1080 C 0.07886 0.68539 1.03608 0.0
C1081 C 0.07413 0.76303 1.01046 0.0
C1082 C 0.09284 0.73448 0.98868 0.0
C1083 C 0.11517 0.66684 0.98003 0.0
C1084 C 0.11706 0.62771 0.99242 0.0
C1085 C 0.09563 0.6956 1.00132 0.0
C1086 C 0.0987 0.61761 1.02616 0.0
C1087 C 0.08015 0.64621 0.04798 0.0
loop_
_geom_bond_atom_site_label_1
_geom_bond_atom_site_label_2
_geom_bond_distance
_geom_bond_site_symmetry_2
_ccdc_geom_bond_type
Dy0 O4 2.398 . S
Dy0 O5 2.491 . S
Dy0 O6 2.403 . S
Dy0 O7 2.664 . S
Dy0 O11 2.326 . S
Dy0 O15 2.310 . S
Dy0 O16 2.351 . S
C1 O12 1.185 . S
C1 O13 1.355 . S
C2 O4 1.185 . S
C2 O5 1.355 . S
Dy3 O7 2.310 . S
Dy3 O10 2.351 . S
Dy3 O12 2.398 . S
Dy3 O13 2.491 . S
Dy3 O14 2.403 . S
Dy3 O15 2.664 . S
Dy3 O17 2.326 . S
O4 Dy0 2.398 . S
O4 C2 1.185 . S
O5 Dy0 2.491 . S
O5 C2 1.355 . S
O6 Dy0 2.403 . S
O6 C8 1.254 . S
O7 Dy0 2.664 . S
O7 Dy3 2.310 . S
O7 C8 1.268 . S
C8 O6 1.254 . S
C8 O7 1.268 . S
C9 O14 1.254 . S
C9 O15 1.268 . S
O10 Dy3 2.351 . S
O10 C18 1.249 . S
O11 Dy0 2.326 . S
O11 C18 1.267 . S
O12 C1 1.185 . S
O12 Dy3 2.398 . S
O13 C1 1.355 . S
O13 Dy3 2.491 . S
O14 Dy3 2.403 . S
O14 C9 1.254 . S
O15 Dy0 2.310 . S
O15 Dy3 2.664 . S
O15 C9 1.268 . S
O16 Dy0 2.351 . S
O16 C19 1.249 . S
O17 Dy3 2.326 . S
O17 C19 1.267 . S
C18 O10 1.249 . S
C18 O11 1.267 . S
C19 O16 1.249 . S
C19 O17 1.267 . S
Dy20 O24 2.398 . S
Dy20 O25 2.491 . S
Dy20 O26 2.403 . S
Dy20 O27 2.664 . S
Dy20 O31 2.326 . S
Dy20 O35 2.310 . S
Dy20 O36 2.351 . S
C21 O32 1.185 . S
C21 O33 1.355 . S
C22 O24 1.185 . S
C22 O25 1.355 . S
Dy23 O27 2.310 . S
Dy23 O30 2.351 . S
Dy23 O32 2.398 . S
Dy23 O33 2.491 . S
Dy23 O34 2.403 . S
Dy23 O35 2.664 . S
Dy23 O37 2.326 . S
O24 Dy20 2.398 . S
O24 C22 1.185 . S
O25 Dy20 2.491 . S
O25 C22 1.355 . S
O26 Dy20 2.403 . S
O26 C28 1.254 . S
O27 Dy20 2.664 . S
O27 Dy23 2.310 . S
O27 C28 1.268 . S
C28 O26 1.254 . S
C28 O27 1.268 . S
C29 O34 1.254 . S
C29 O35 1.268 . S
O30 Dy23 2.351 . S
O30 C38 1.249 . S
O31 Dy20 2.326 . S
O31 C38 1.267 . S
O32 C21 1.185 . S
O32 Dy23 2.398 . S
O33 C21 1.355 . S
O33 Dy23 2.491 . S
O34 Dy23 2.403 . S
O34 C29 1.254 . S
O35 Dy20 2.310 . S
O35 Dy23 2.664 . S
O35 C29 1.268 . S
O36 Dy20 2.351 . S
O36 C39 1.249 . S
O37 Dy23 2.326 . S
O37 C39 1.267 . S
C38 O30 1.249 . S
C38 O31 1.267 . S
C39 O36 1.249 . S
C39 O37 1.267 . S
Dy40 O44 2.398 . S
Dy40 O45 2.491 . S
Dy40 O46 2.403 . S
Dy40 O47 2.664 . S
Dy40 O51 2.326 . S
Dy40 O55 2.310 . S
Dy40 O56 2.351 . S
C41 O52 1.185 . S
C41 O53 1.355 . S
C42 O44 1.185 . S
C42 O45 1.355 . S
Dy43 O47 2.310 . S
Dy43 O50 2.351 . S
Dy43 O52 2.398 1_655 S
Dy43 O53 2.491 1_655 S
Dy43 O54 2.403 . S
Dy43 O55 2.664 . S
Dy43 O57 2.326 1_655 S
O44 Dy40 2.398 . S
O44 C42 1.185 . S
O45 Dy40 2.491 . S
O45 C42 1.355 . S
O46 Dy40 2.403 . S
O46 C48 1.254 . S
O47 Dy40 2.664 . S
O47 Dy43 2.310 . S
O47 C48 1.268 . S
C48 O46 1.254 . S
C48 O47 1.268 . S
C49 O54 1.254 . S
C49 O55 1.268 . S
O50 Dy43 2.351 . S
O50 C58 1.249 . S
O51 Dy40 2.326 . S
O51 C58 1.267 . S
O52 C41 1.185 . S
O52 Dy43 2.398 1_455 S
O53 C41 1.355 . S
O53 Dy43 2.491 1_455 S
O54 Dy43 2.403 . S
O54 C49 1.254 . S
O55 Dy40 2.310 . S
O55 Dy43 2.664 . S
O55 C49 1.268 . S
O56 Dy40 2.351 . S
O56 C59 1.249 1_655 S
O57 Dy43 2.326 1_455 S
O57 C59 1.267 . S
C58 O50 1.249 . S
C58 O51 1.267 . S
C59 O56 1.249 1_455 S
C59 O57 1.267 . S
Dy60 O64 2.398 . S
Dy60 O65 2.491 . S
Dy60 O66 2.403 . S
Dy60 O67 2.664 . S
Dy60 O71 2.326 . S
Dy60 O75 2.310 . S
Dy60 O76 2.351 . S
C61 O72 1.185 . S
C61 O73 1.355 . S
C62 O64 1.185 . S
C62 O65 1.355 . S
Dy63 O67 2.310 . S
Dy63 O70 2.351 . S
Dy63 O72 2.398 1_565 S
Dy63 O73 2.491 1_565 S
Dy63 O74 2.403 . S
Dy63 O75 2.664 . S
Dy63 O77 2.326 1_565 S
O64 Dy60 2.398 . S
O64 C62 1.185 . S
O65 Dy60 2.491 . S
O65 C62 1.355 . S
O66 Dy60 2.403 . S
O66 C68 1.254 . S
O67 Dy60 2.664 . S
O67 Dy63 2.310 . S
O67 C68 1.268 . S
C68 O66 1.254 . S
C68 O67 1.268 . S
C69 O74 1.254 . S
C69 O75 1.268 . S
O70 Dy63 2.351 . S
O70 C78 1.249 . S
O71 Dy60 2.326 . S
O71 C78 1.267 . S
O72 C61 1.185 . S
O72 Dy63 2.398 1_545 S
O73 C61 1.355 . S
O73 Dy63 2.491 1_545 S
O74 Dy63 2.403 . S
O74 C69 1.254 . S
O75 Dy60 2.310 . S
O75 Dy63 2.664 . S
O75 C69 1.268 . S
O76 Dy60 2.351 . S
O76 C79 1.249 1_565 S
O77 Dy63 2.326 1_545 S
O77 C79 1.267 . S
C78 O70 1.249 . S
C78 O71 1.267 . S
C79 O76 1.249 1_545 S
C79 O77 1.267 . S
Dy80 O84 2.398 . S
Dy80 O85 2.491 . S
Dy80 O86 2.403 . S
Dy80 O87 2.664 . S
Dy80 O91 2.326 . S
Dy80 O95 2.310 . S
Dy80 O96 2.351 . S
C81 O92 1.185 . S
C81 O93 1.355 . S
C82 O84 1.185 . S
C82 O85 1.355 . S
Dy83 O87 2.310 . S
Dy83 O90 2.351 . S
Dy83 O92 2.398 1_455 S
Dy83 O93 2.491 1_455 S
Dy83 O94 2.403 . S
Dy83 O95 2.664 . S
Dy83 O97 2.326 1_455 S
O84 Dy80 2.398 . S
O84 C82 1.185 . S
O85 Dy80 2.491 . S
O85 C82 1.355 . S
O86 Dy80 2.403 . S
O86 C88 1.254 . S
O87 Dy80 2.664 . S
O87 Dy83 2.310 . S
O87 C88 1.268 . S
C88 O86 1.254 . S
C88 O87 1.268 . S
C89 O94 1.254 . S
C89 O95 1.268 . S
O90 Dy83 2.351 . S
O90 C98 1.249 . S
O91 Dy80 2.326 . S
O91 C98 1.267 . S
O92 C81 1.185 . S
O92 Dy83 2.398 1_655 S
O93 C81 1.355 . S
O93 Dy83 2.491 1_655 S
O94 Dy83 2.403 . S
O94 C89 1.254 . S
O95 Dy80 2.310 . S
O95 Dy83 2.664 . S
O95 C89 1.268 . S
O96 Dy80 2.351 . S
O96 C99 1.249 1_455 S
O97 Dy83 2.326 1_655 S
O97 C99 1.267 . S
C98 O90 1.249 . S
C98 O91 1.267 . S
C99 O96 1.249 1_655 S
C99 O97 1.267 . S
Dy100 O104 2.398 . S
Dy100 O105 2.491 . S
Dy100 O106 2.403 . S
Dy100 O107 2.664 . S
Dy100 O111 2.326 . S
Dy100 O115 2.310 . S
Dy100 O116 2.351 . S
C101 O112 1.185 . S
C101 O113 1.355 . S
C102 O104 1.185 . S
C102 O105 1.355 . S
Dy103 O107 2.310 . S
Dy103 O110 2.351 . S
Dy103 O112 2.398 1_545 S
Dy103 O113 2.491 1_545 S
Dy103 O114 2.403 . S
Dy103 O115 2.664 . S
Dy103 O117 2.326 1_545 S
O104 Dy100 2.398 . S
O104 C102 1.185 . S
O105 Dy100 2.491 . S
O105 C102 1.355 . S
O106 Dy100 2.403 . S
O106 C108 1.254 . S
O107 Dy100 2.664 . S
O107 Dy103 2.310 . S
O107 C108 1.268 . S
C108 O106 1.254 . S
C108 O107 1.268 . S
C109 O114 1.254 . S
C109 O115 1.268 . S
O110 Dy103 2.351 . S
O110 C118 1.249 . S
O111 Dy100 2.326 . S
O111 C118 1.267 . S
O112 C101 1.185 . S
O112 Dy103 2.398 1_565 S
O113 C101 1.355 . S
O113 Dy103 2.491 1_565 S
O114 Dy103 2.403 . S
O114 C109 1.254 . S
O115 Dy100 2.310 . S
O115 Dy103 2.664 . S
O115 C109 1.268 . S
O116 Dy100 2.351 . S
O116 C119 1.249 1_545 S
O117 Dy103 2.326 1_565 S
O117 C119 1.267 . S
C118 O110 1.249 . S
C118 O111 1.267 . S
C119 O116 1.249 1_565 S
C119 O117 1.267 . S
Dy120 O124 2.398 . S
Dy120 O125 2.491 . S
Dy120 O126 2.403 . S
Dy120 O127 2.664 . S
Dy120 O131 2.326 . S
Dy120 O135 2.310 . S
Dy120 O136 2.351 . S
C121 O132 1.185 . S
C121 O133 1.355 . S
C122 O124 1.185 . S
C122 O125 1.355 . S
Dy123 O127 2.310 . S
Dy123 O130 2.351 . S
Dy123 O132 2.398 . S
Dy123 O133 2.491 . S
Dy123 O134 2.403 . S
Dy123 O135 2.664 . S
Dy123 O137 2.326 . S
O124 Dy120 2.398 . S
O124 C122 1.185 . S
O125 Dy120 2.491 . S
O125 C122 1.355 . S
O126 Dy120 2.403 . S
O126 C128 1.254 . S
O127 Dy120 2.664 . S
O127 Dy123 2.310 . S
O127 C128 1.268 . S
C128 O126 1.254 . S
C128 O127 1.268 . S
C129 O134 1.254 . S
C129 O135 1.268 . S
O130 Dy123 2.351 . S
O130 C138 1.249 . S
O131 Dy120 2.326 . S
O131 C138 1.267 . S
O132 C121 1.185 . S
O132 Dy123 2.398 . S
O133 C121 1.355 . S
O133 Dy123 2.491 . S
O134 Dy123 2.403 . S
O134 C129 1.254 . S
O135 Dy120 2.310 . S
O135 Dy123 2.664 . S
O135 C129 1.268 . S
O136 Dy120 2.351 . S
O136 C139 1.249 . S
O137 Dy123 2.326 . S
O137 C139 1.267 . S
C138 O130 1.249 . S
C138 O131 1.267 . S
C139 O136 1.249 . S
C139 O137 1.267 . S
Dy140 O144 2.398 . S
Dy140 O145 2.491 . S
Dy140 O146 2.403 . S
Dy140 O147 2.664 . S
Dy140 O151 2.326 . S
Dy140 O155 2.310 . S
Dy140 O156 2.351 . S
C141 O152 1.185 . S
C141 O153 1.355 . S
C142 O144 1.185 . S
C142 O145 1.355 . S
Dy143 O147 2.310 . S
Dy143 O150 2.351 . S
Dy143 O152 2.398 . S
Dy143 O153 2.491 . S
Dy143 O154 2.403 . S
Dy143 O155 2.664 . S
Dy143 O157 2.326 . S
O144 Dy140 2.398 . S
O144 C142 1.185 . S
O145 Dy140 2.491 . S
O145 C142 1.355 . S
O146 Dy140 2.403 . S
O146 C148 1.254 . S
O147 Dy140 2.664 . S
O147 Dy143 2.310 . S
O147 C148 1.268 . S
C148 O146 1.254 . S
C148 O147 1.268 . S
C149 O154 1.254 . S
C149 O155 1.268 . S
O150 Dy143 2.351 . S
O150 C158 1.249 . S
O151 Dy140 2.326 . S
O151 C158 1.267 . S
O152 C141 1.185 . S
O152 Dy143 2.398 . S
O153 C141 1.355 . S
O153 Dy143 2.491 . S
O154 Dy143 2.403 . S
O154 C149 1.254 . S
O155 Dy140 2.310 . S
O155 Dy143 2.664 . S
O155 C149 1.268 . S
O156 Dy140 2.351 . S
O156 C159 1.249 . S
O157 Dy143 2.326 . S
O157 C159 1.267 . S
C158 O150 1.249 . S
C158 O151 1.267 . S
C159 O156 1.249 . S
C159 O157 1.267 . S
Dy160 O164 2.398 . S
Dy160 O165 2.491 . S
Dy160 O166 2.403 . S
Dy160 O167 2.664 . S
Dy160 O171 2.326 . S
Dy160 O175 2.310 . S
Dy160 O176 2.351 . S
C161 O172 1.185 . S
C161 O173 1.355 . S
C162 O164 1.185 . S
C162 O165 1.355 . S
Dy163 O167 2.310 . S
Dy163 O170 2.351 . S
Dy163 O172 2.398 . S
Dy163 O173 2.491 . S
Dy163 O174 2.403 . S
Dy163 O175 2.664 . S
Dy163 O177 2.326 . S
O164 Dy160 2.398 . S
O164 C162 1.185 . S
O165 Dy160 2.491 . S
O165 C162 1.355 . S
O166 Dy160 2.403 . S
O166 C168 1.254 . S
O167 Dy160 2.664 . S
O167 Dy163 2.310 . S
O167 C168 1.268 . S
C168 O166 1.254 . S
C168 O167 1.268 . S
C169 O174 1.254 . S
C169 O175 1.268 . S
O170 Dy163 2.351 . S
O170 C178 1.249 . S
O171 Dy160 2.326 . S
O171 C178 1.267 . S
O172 C161 1.185 . S
O172 Dy163 2.398 . S
O173 C161 1.355 . S
O173 Dy163 2.491 . S
O174 Dy163 2.403 . S
O174 C169 1.254 . S
O175 Dy160 2.310 . S
O175 Dy163 2.664 . S
O175 C169 1.268 . S
O176 Dy160 2.351 . S
O176 C179 1.249 . S
O177 Dy163 2.326 . S
O177 C179 1.267 . S
C178 O170 1.249 . S
C178 O171 1.267 . S
C179 O176 1.249 . S
C179 O177 1.267 . S
Dy180 O184 2.398 . S
Dy180 O185 2.491 . S
Dy180 O186 2.403 . S
Dy180 O187 2.664 . S
Dy180 O191 2.326 . S
Dy180 O195 2.310 . S
Dy180 O196 2.351 . S
C181 O192 1.185 . S
C181 O193 1.355 . S
C182 O184 1.185 . S
C182 O185 1.355 . S
Dy183 O187 2.310 . S
Dy183 O190 2.351 . S
Dy183 O192 2.398 . S
Dy183 O193 2.491 . S
Dy183 O194 2.403 . S
Dy183 O195 2.664 . S
Dy183 O197 2.326 . S
O184 Dy180 2.398 . S
O184 C182 1.185 . S
O185 Dy180 2.491 . S
O185 C182 1.355 . S
O186 Dy180 2.403 . S
O186 C188 1.254 . S
O187 Dy180 2.664 . S
O187 Dy183 2.310 . S
O187 C188 1.268 . S
C188 O186 1.254 . S
C188 O187 1.268 . S
C189 O194 1.254 . S
C189 O195 1.268 . S
O190 Dy183 2.351 . S
O190 C198 1.249 . S
O191 Dy180 2.326 . S
O191 C198 1.267 . S
O192 C181 1.185 . S
O192 Dy183 2.398 . S
O193 C181 1.355 . S
O193 Dy183 2.491 . S
O194 Dy183 2.403 . S
O194 C189 1.254 . S
O195 Dy180 2.310 . S
O195 Dy183 2.664 . S
O195 C189 1.268 . S
O196 Dy180 2.351 . S
O196 C199 1.249 . S
O197 Dy183 2.326 . S
O197 C199 1.267 . S
C198 O190 1.249 . S
C198 O191 1.267 . S
C199 O196 1.249 . S
C199 O197 1.267 . S
Dy200 O204 2.398 1_455 S
Dy200 O205 2.491 1_455 S
Dy200 O206 2.403 . S
Dy200 O207 2.664 . S
Dy200 O211 2.326 1_455 S
Dy200 O215 2.310 . S
Dy200 O216 2.351 . S
C201 O212 1.185 . S
C201 O213 1.355 . S
C202 O204 1.185 . S
C202 O205 1.355 . S
Dy203 O207 2.310 . S
Dy203 O210 2.351 . S
Dy203 O212 2.398 . S
Dy203 O213 2.491 . S
Dy203 O214 2.403 . S
Dy203 O215 2.664 . S
Dy203 O217 2.326 . S
O204 Dy200 2.398 1_655 S
O204 C202 1.185 . S
O205 Dy200 2.491 1_655 S
O205 C202 1.355 . S
O206 Dy200 2.403 . S
O206 C208 1.254 . S
O207 Dy200 2.664 . S
O207 Dy203 2.310 . S
O207 C208 1.268 . S
C208 O206 1.254 . S
C208 O207 1.268 . S
C209 O214 1.254 . S
C209 O215 1.268 . S
O210 Dy203 2.351 . S
O210 C218 1.249 1_455 S
O211 Dy200 2.326 1_655 S
O211 C218 1.267 . S
O212 C201 1.185 . S
O212 Dy203 2.398 . S
O213 C201 1.355 . S
O213 Dy203 2.491 . S
O214 Dy203 2.403 . S
O214 C209 1.254 . S
O215 Dy200 2.310 . S
O215 Dy203 2.664 . S
O215 C209 1.268 . S
O216 Dy200 2.351 . S
O216 C219 1.249 . S
O217 Dy203 2.326 . S
O217 C219 1.267 . S
C218 O210 1.249 1_655 S
C218 O211 1.267 . S
C219 O216 1.249 . S
C219 O217 1.267 . S
Dy220 O224 2.398 1_545 S
Dy220 O225 2.491 1_545 S
Dy220 O226 2.403 . S
Dy220 O227 2.664 . S
Dy220 O231 2.326 1_545 S
Dy220 O235 2.310 . S
Dy220 O236 2.351 . S
C221 O232 1.185 . S
C221 O233 1.355 . S
C222 O224 1.185 . S
C222 O225 1.355 . S
Dy223 O227 2.310 . S
Dy223 O230 2.351 . S
Dy223 O232 2.398 . S
Dy223 O233 2.491 . S
Dy223 O234 2.403 . S
Dy223 O235 2.664 . S
Dy223 O237 2.326 . S
O224 Dy220 2.398 1_565 S
O224 C222 1.185 . S
O225 Dy220 2.491 1_565 S
O225 C222 1.355 . S
O226 Dy220 2.403 . S
O226 C228 1.254 . S
O227 Dy220 2.664 . S
O227 Dy223 2.310 . S
O227 C228 1.268 . S
C228 O226 1.254 . S
C228 O227 1.268 . S
C229 O234 1.254 . S
C229 O235 1.268 . S
O230 Dy223 2.351 . S
O230 C238 1.249 1_545 S
O231 Dy220 2.326 1_565 S
O231 C238 1.267 . S
O232 C221 1.185 . S
O232 Dy223 2.398 . S
O233 C221 1.355 . S
O233 Dy223 2.491 . S
O234 Dy223 2.403 . S
O234 C229 1.254 . S
O235 Dy220 2.310 . S
O235 Dy223 2.664 . S
O235 C229 1.268 . S
O236 Dy220 2.351 . S
O236 C239 1.249 . S
O237 Dy223 2.326 . S
O237 C239 1.267 . S
C238 O230 1.249 1_565 S
C238 O231 1.267 . S
C239 O236 1.249 . S
C239 O237 1.267 . S
Dy240 O244 2.398 1_655 S
Dy240 O245 2.491 1_655 S
Dy240 O246 2.403 . S
Dy240 O247 2.664 . S
Dy240 O251 2.326 1_655 S
Dy240 O255 2.310 . S
Dy240 O256 2.351 . S
C241 O252 1.185 . S
C241 O253 1.355 . S
C242 O244 1.185 . S
C242 O245 1.355 . S
Dy243 O247 2.310 . S
Dy243 O250 2.351 . S
Dy243 O252 2.398 . S
Dy243 O253 2.491 . S
Dy243 O254 2.403 . S
Dy243 O255 2.664 . S
Dy243 O257 2.326 . S
O244 Dy240 2.398 1_455 S
O244 C242 1.185 . S
O245 Dy240 2.491 1_455 S
O245 C242 1.355 . S
O246 Dy240 2.403 . S
O246 C248 1.254 . S
O247 Dy240 2.664 . S
O247 Dy243 2.310 . S
O247 C248 1.268 . S
C248 O246 1.254 . S
C248 O247 1.268 . S
C249 O254 1.254 . S
C249 O255 1.268 . S
O250 Dy243 2.351 . S
O250 C258 1.249 1_655 S
O251 Dy240 2.326 1_455 S
O251 C258 1.267 . S
O252 C241 1.185 . S
O252 Dy243 2.398 . S
O253 C241 1.355 . S
O253 Dy243 2.491 . S
O254 Dy243 2.403 . S
O254 C249 1.254 . S
O255 Dy240 2.310 . S
O255 Dy243 2.664 . S
O255 C249 1.268 . S
O256 Dy240 2.351 . S
O256 C259 1.249 . S
O257 Dy243 2.326 . S
O257 C259 1.267 . S
C258 O250 1.249 1_455 S
C258 O251 1.267 . S
C259 O256 1.249 . S
C259 O257 1.267 . S
Dy260 O264 2.398 1_565 S
Dy260 O265 2.491 1_565 S
Dy260 O266 2.403 . S
Dy260 O267 2.664 . S
Dy260 O271 2.326 1_565 S
Dy260 O275 2.310 . S
Dy260 O276 2.351 . S
C261 O272 1.185 . S
C261 O273 1.355 . S
C262 O264 1.185 . S
C262 O265 1.355 . S
Dy263 O267 2.310 . S
Dy263 O270 2.351 . S
Dy263 O272 2.398 . S
Dy263 O273 2.491 . S
Dy263 O274 2.403 . S
Dy263 O275 2.664 . S
Dy263 O277 2.326 . S
O264 Dy260 2.398 1_545 S
O264 C262 1.185 . S
O265 Dy260 2.491 1_545 S
O265 C262 1.355 . S
O266 Dy260 2.403 . S
O266 C268 1.254 . S
O267 Dy260 2.664 . S
O267 Dy263 2.310 . S
O267 C268 1.268 . S
C268 O266 1.254 . S
C268 O267 1.268 . S
C269 O274 1.254 . S
C269 O275 1.268 . S
O270 Dy263 2.351 . S
O270 C278 1.249 1_565 S
O271 Dy260 2.326 1_545 S
O271 C278 1.267 . S
O272 C261 1.185 . S
O272 Dy263 2.398 . S
O273 C261 1.355 . S
O273 Dy263 2.491 . S
O274 Dy263 2.403 . S
O274 C269 1.254 . S
O275 Dy260 2.310 . S
O275 Dy263 2.664 . S
O275 C269 1.268 . S
O276 Dy260 2.351 . S
O276 C279 1.249 . S
O277 Dy263 2.326 . S
O277 C279 1.267 . S
C278 O270 1.249 1_545 S
C278 O271 1.267 . S
C279 O276 1.249 . S
C279 O277 1.267 . S
Dy280 O284 2.398 . S
Dy280 O285 2.491 . S
Dy280 O286 2.403 . S
Dy280 O287 2.664 . S
Dy280 O291 2.326 . S
Dy280 O295 2.310 . S
Dy280 O296 2.351 . S
C281 O292 1.185 . S
C281 O293 1.355 . S
C282 O284 1.185 . S
C282 O285 1.355 . S
Dy283 O287 2.310 . S
Dy283 O290 2.351 . S
Dy283 O292 2.398 . S
Dy283 O293 2.491 . S
Dy283 O294 2.403 . S
Dy283 O295 2.664 . S
Dy283 O297 2.326 . S
O284 Dy280 2.398 . S
O284 C282 1.185 . S
O285 Dy280 2.491 . S
O285 C282 1.355 . S
O286 Dy280 2.403 . S
O286 C288 1.254 . S
O287 Dy280 2.664 . S
O287 Dy283 2.310 . S
O287 C288 1.268 . S
C288 O286 1.254 . S
C288 O287 1.268 . S
C289 O294 1.254 . S
C289 O295 1.268 . S
O290 Dy283 2.351 . S
O290 C298 1.249 . S
O291 Dy280 2.326 . S
O291 C298 1.267 . S
O292 C281 1.185 . S
O292 Dy283 2.398 . S
O293 C281 1.355 . S
O293 Dy283 2.491 . S
O294 Dy283 2.403 . S
O294 C289 1.254 . S
O295 Dy280 2.310 . S
O295 Dy283 2.664 . S
O295 C289 1.268 . S
O296 Dy280 2.351 . S
O296 C299 1.249 . S
O297 Dy283 2.326 . S
O297 C299 1.267 . S
C298 O290 1.249 . S
C298 O291 1.267 . S
C299 O296 1.249 . S
C299 O297 1.267 . S
Dy300 O304 2.398 . S
Dy300 O305 2.491 . S
Dy300 O306 2.403 . S
Dy300 O307 2.664 . S
Dy300 O311 2.326 . S
Dy300 O315 2.310 . S
Dy300 O316 2.351 . S
C301 O312 1.185 . S
C301 O313 1.355 . S
C302 O304 1.185 . S
C302 O305 1.355 . S
Dy303 O307 2.310 . S
Dy303 O310 2.351 . S
Dy303 O312 2.398 . S
Dy303 O313 2.491 . S
Dy303 O314 2.403 . S
Dy303 O315 2.664 . S
Dy303 O317 2.326 . S
O304 Dy300 2.398 . S
O304 C302 1.185 . S
O305 Dy300 2.491 . S
O305 C302 1.355 . S
O306 Dy300 2.403 . S
O306 C308 1.254 . S
O307 Dy300 2.664 . S
O307 Dy303 2.310 . S
O307 C308 1.268 . S
C308 O306 1.254 . S
C308 O307 1.268 . S
C309 O314 1.254 . S
C309 O315 1.268 . S
O310 Dy303 2.351 . S
O310 C318 1.249 . S
O311 Dy300 2.326 . S
O311 C318 1.267 . S
O312 C301 1.185 . S
O312 Dy303 2.398 . S
O313 C301 1.355 . S
O313 Dy303 2.491 . S
O314 Dy303 2.403 . S
O314 C309 1.254 . S
O315 Dy300 2.310 . S
O315 Dy303 2.664 . S
O315 C309 1.268 . S
O316 Dy300 2.351 . S
O316 C319 1.249 . S
O317 Dy303 2.326 . S
O317 C319 1.267 . S
C318 O310 1.249 . S
C318 O311 1.267 . S
C319 O316 1.249 . S
C319 O317 1.267 . S
H320 C326 0.930 . S
H321 C329 0.930 . S
H322 C330 0.930 . S
H323 C331 0.930 . S
H324 C334 0.930 . S
H325 C335 0.930 . S
C326 H320 0.930 . S
C326 C327 1.355 . S
C326 C328 1.415 . S
C327 C326 1.355 . S
C327 C329 1.419 . S
C328 C326 1.415 . S
C328 C333 1.425 . S
C328 C335 1.409 . S
C329 H321 0.930 . S
C329 C327 1.419 . S
C329 C330 1.362 . S
C330 H322 0.930 . S
C330 C329 1.362 . S
C330 C333 1.409 . S
C331 H323 0.930 . S
C331 C332 1.355 . S
C331 C333 1.415 . S
C332 C331 1.355 . S
C332 C334 1.419 . S
C333 C328 1.425 . S
C333 C330 1.409 . S
C333 C331 1.415 . S
C334 H324 0.930 . S
C334 C332 1.419 . S
C334 C335 1.362 . S
C335 H325 0.930 . S
C335 C328 1.409 . S
C335 C334 1.362 . S
H336 C342 0.930 . S
H337 C345 0.930 . S
H338 C346 0.930 . S
H339 C347 0.930 . S
H340 C350 0.930 . S
H341 C351 0.930 . S
C342 H336 0.930 . S
C342 C343 1.355 . S
C342 C344 1.415 . S
C343 C342 1.355 . S
C343 C345 1.419 . S
C344 C342 1.415 . S
C344 C349 1.425 . S
C344 C351 1.409 . S
C345 H337 0.930 . S
C345 C343 1.419 . S
C345 C346 1.362 . S
C346 H338 0.930 . S
C346 C345 1.362 . S
C346 C349 1.409 . S
C347 H339 0.930 . S
C347 C348 1.355 . S
C347 C349 1.415 . S
C348 C347 1.355 . S
C348 C350 1.419 . S
C349 C344 1.425 . S
C349 C346 1.409 . S
C349 C347 1.415 . S
C350 H340 0.930 . S
C350 C348 1.419 . S
C350 C351 1.362 . S
C351 H341 0.930 . S
C351 C344 1.409 . S
C351 C350 1.362 . S
H352 C358 0.930 . S
H353 C361 0.930 . S
H354 C362 0.930 . S
H355 C363 0.930 . S
H356 C366 0.930 . S
H357 C367 0.930 . S
C358 H352 0.930 . S
C358 C359 1.355 . S
C358 C360 1.415 . S
C359 C358 1.355 . S
C359 C361 1.419 . S
C360 C358 1.415 . S
C360 C365 1.425 . S
C360 C367 1.409 . S
C361 H353 0.930 . S
C361 C359 1.419 . S
C361 C362 1.362 . S
C362 H354 0.930 . S
C362 C361 1.362 . S
C362 C365 1.409 . S
C363 H355 0.930 . S
C363 C364 1.355 . S
C363 C365 1.415 . S
C364 C363 1.355 . S
C364 C366 1.419 . S
C365 C360 1.425 . S
C365 C362 1.409 . S
C365 C363 1.415 . S
C366 H356 0.930 . S
C366 C364 1.419 . S
C366 C367 1.362 . S
C367 H357 0.930 . S
C367 C360 1.409 . S
C367 C366 1.362 . S
H368 C374 0.930 . S
H369 C377 0.930 . S
H370 C378 0.930 . S
H371 C379 0.930 . S
H372 C382 0.930 . S
H373 C383 0.930 . S
C374 H368 0.930 . S
C374 C375 1.355 . S
C374 C376 1.415 . S
C375 C374 1.355 . S
C375 C377 1.419 . S
C376 C374 1.415 . S
C376 C381 1.425 . S
C376 C383 1.409 . S
C377 H369 0.930 . S
C377 C375 1.419 . S
C377 C378 1.362 . S
C378 H370 0.930 . S
C378 C377 1.362 . S
C378 C381 1.409 . S
C379 H371 0.930 . S
C379 C380 1.355 . S
C379 C381 1.415 . S
C380 C379 1.355 . S
C380 C382 1.419 . S
C381 C376 1.425 . S
C381 C378 1.409 . S
C381 C379 1.415 . S
C382 H372 0.930 . S
C382 C380 1.419 . S
C382 C383 1.362 . S
C383 H373 0.930 . S
C383 C376 1.409 . S
C383 C382 1.362 . S
H384 C390 0.930 . S
H385 C393 0.930 . S
H386 C394 0.930 . S
H387 C395 0.930 . S
H388 C398 0.930 . S
H389 C399 0.930 . S
C390 H384 0.930 . S
C390 C391 1.355 . S
C390 C392 1.415 . S
C391 C390 1.355 . S
C391 C393 1.419 . S
C392 C390 1.415 . S
C392 C397 1.425 . S
C392 C399 1.409 . S
C393 H385 0.930 . S
C393 C391 1.419 . S
C393 C394 1.362 . S
C394 H386 0.930 . S
C394 C393 1.362 . S
C394 C397 1.409 . S
C395 H387 0.930 . S
C395 C396 1.355 . S
C395 C397 1.415 . S
C396 C395 1.355 . S
C396 C398 1.419 . S
C397 C392 1.425 . S
C397 C394 1.409 . S
C397 C395 1.415 . S
C398 H388 0.930 . S
C398 C396 1.419 . S
C398 C399 1.362 . S
C399 H389 0.930 . S
C399 C392 1.409 . S
C399 C398 1.362 . S
H400 C406 0.930 . S
H401 C409 0.930 . S
H402 C410 0.930 . S
H403 C411 0.930 . S
H404 C414 0.930 . S
H405 C415 0.930 . S
C406 H400 0.930 . S
C406 C407 1.355 . S
C406 C408 1.415 . S
C407 C406 1.355 . S
C407 C409 1.419 . S
C408 C406 1.415 . S
C408 C413 1.425 . S
C408 C415 1.409 . S
C409 H401 0.930 . S
C409 C407 1.419 . S
C409 C410 1.362 . S
C410 H402 0.930 . S
C410 C409 1.362 . S
C410 C413 1.409 . S
C411 H403 0.930 . S
C411 C412 1.355 . S
C411 C413 1.415 . S
C412 C411 1.355 . S
C412 C414 1.419 . S
C413 C408 1.425 . S
C413 C410 1.409 . S
C413 C411 1.415 . S
C414 H404 0.930 . S
C414 C412 1.419 . S
C414 C415 1.362 . S
C415 H405 0.930 . S
C415 C408 1.409 . S
C415 C414 1.362 . S
H416 C422 0.930 . S
H417 C425 0.930 . S
H418 C426 0.930 . S
H419 C427 0.930 . S
H420 C430 0.930 . S
H421 C431 0.930 . S
C422 H416 0.930 . S
C422 C423 1.355 . S
C422 C424 1.415 . S
C423 C422 1.355 . S
C423 C425 1.419 . S
C424 C422 1.415 . S
C424 C429 1.425 . S
C424 C431 1.409 . S
C425 H417 0.930 . S
C425 C423 1.419 . S
C425 C426 1.362 . S
C426 H418 0.930 . S
C426 C425 1.362 . S
C426 C429 1.409 . S
C427 H419 0.930 . S
C427 C428 1.355 . S
C427 C429 1.415 . S
C428 C427 1.355 . S
C428 C430 1.419 . S
C429 C424 1.425 . S
C429 C426 1.409 . S
C429 C427 1.415 . S
C430 H420 0.930 . S
C430 C428 1.419 . S
C430 C431 1.362 . S
C431 H421 0.930 . S
C431 C424 1.409 . S
C431 C430 1.362 . S
H432 C438 0.930 . S
H433 C441 0.930 . S
H434 C442 0.930 . S
H435 C443 0.930 . S
H436 C446 0.930 . S
H437 C447 0.930 . S
C438 H432 0.930 . S
C438 C439 1.355 . S
C438 C440 1.415 . S
C439 C438 1.355 . S
C439 C441 1.419 . S
C440 C438 1.415 . S
C440 C445 1.425 . S
C440 C447 1.409 . S
C441 H433 0.930 . S
C441 C439 1.419 . S
C441 C442 1.362 . S
C442 H434 0.930 . S
C442 C441 1.362 . S
C442 C445 1.409 . S
C443 H435 0.930 . S
C443 C444 1.355 . S
C443 C445 1.415 . S
C444 C443 1.355 . S
C444 C446 1.419 . S
C445 C440 1.425 . S
C445 C442 1.409 . S
C445 C443 1.415 . S
C446 H436 0.930 . S
C446 C444 1.419 . S
C446 C447 1.362 . S
C447 H437 0.930 . S
C447 C440 1.409 . S
C447 C446 1.362 . S
H448 C454 0.930 . S
H449 C457 0.930 . S
H450 C458 0.930 . S
H451 C459 0.930 . S
H452 C462 0.930 . S
H453 C463 0.930 . S
C454 H448 0.930 . S
C454 C455 1.355 . S
C454 C456 1.415 . S
C455 C454 1.355 . S
C455 C457 1.419 . S
C456 C454 1.415 . S
C456 C461 1.425 . S
C456 C463 1.409 . S
C457 H449 0.930 . S
C457 C455 1.419 . S
C457 C458 1.362 . S
C458 H450 0.930 . S
C458 C457 1.362 . S
C458 C461 1.409 . S
C459 H451 0.930 . S
C459 C460 1.355 . S
C459 C461 1.415 . S
C460 C459 1.355 . S
C460 C462 1.419 . S
C461 C456 1.425 . S
C461 C458 1.409 . S
C461 C459 1.415 . S
C462 H452 0.930 . S
C462 C460 1.419 . S
C462 C463 1.362 . S
C463 H453 0.930 . S
C463 C456 1.409 . S
C463 C462 1.362 . S
H464 C470 0.930 . S
H465 C473 0.930 . S
H466 C474 0.930 . S
H467 C475 0.930 . S
H468 C478 0.930 . S
H469 C479 0.930 . S
C470 H464 0.930 . S
C470 C471 1.355 . S
C470 C472 1.415 . S
C471 C470 1.355 . S
C471 C473 1.419 . S
C472 C470 1.415 . S
C472 C477 1.425 . S
C472 C479 1.409 . S
C473 H465 0.930 . S
C473 C471 1.419 . S
C473 C474 1.362 . S
C474 H466 0.930 . S
C474 C473 1.362 . S
C474 C477 1.409 . S
C475 H467 0.930 . S
C475 C476 1.355 . S
C475 C477 1.415 . S
C476 C475 1.355 . S
C476 C478 1.419 . S
C477 C472 1.425 . S
C477 C474 1.409 . S
C477 C475 1.415 . S
C478 H468 0.930 . S
C478 C476 1.419 . S
C478 C479 1.362 . S
C479 H469 0.930 . S
C479 C472 1.409 . S
C479 C478 1.362 . S
H480 C486 0.930 . S
H481 C489 0.930 . S
H482 C490 0.930 . S
H483 C491 0.930 . S
H484 C494 0.930 . S
H485 C495 0.930 . S
C486 H480 0.930 . S
C486 C487 1.355 . S
C486 C488 1.415 . S
C487 C486 1.355 . S
C487 C489 1.419 . S
C488 C486 1.415 . S
C488 C493 1.425 . S
C488 C495 1.409 . S
C489 H481 0.930 . S
C489 C487 1.419 . S
C489 C490 1.362 . S
C490 H482 0.930 . S
C490 C489 1.362 . S
C490 C493 1.409 . S
C491 H483 0.930 . S
C491 C492 1.355 . S
C491 C493 1.415 . S
C492 C491 1.355 . S
C492 C494 1.419 . S
C493 C488 1.425 . S
C493 C490 1.409 . S
C493 C491 1.415 . S
C494 H484 0.930 . S
C494 C492 1.419 . S
C494 C495 1.362 . S
C495 H485 0.930 . S
C495 C488 1.409 . S
C495 C494 1.362 . S
H496 C502 0.930 . S
H497 C505 0.930 . S
H498 C506 0.930 . S
H499 C507 0.930 . S
H500 C510 0.930 . S
H501 C511 0.930 . S
C502 H496 0.930 . S
C502 C503 1.355 . S
C502 C504 1.415 . S
C503 C502 1.355 . S
C503 C505 1.419 . S
C504 C502 1.415 . S
C504 C509 1.425 . S
C504 C511 1.409 . S
C505 H497 0.930 . S
C505 C503 1.419 . S
C505 C506 1.362 . S
C506 H498 0.930 . S
C506 C505 1.362 . S
C506 C509 1.409 . S
C507 H499 0.930 . S
C507 C508 1.355 . S
C507 C509 1.415 . S
C508 C507 1.355 . S
C508 C510 1.419 . S
C509 C504 1.425 . S
C509 C506 1.409 . S
C509 C507 1.415 . S
C510 H500 0.930 . S
C510 C508 1.419 . S
C510 C511 1.362 . S
C511 H501 0.930 . S
C511 C504 1.409 . S
C511 C510 1.362 . S
H512 C518 0.930 . S
H513 C521 0.930 . S
H514 C522 0.930 . S
H515 C523 0.930 . S
H516 C526 0.930 . S
H517 C527 0.930 . S
C518 H512 0.930 . S
C518 C519 1.355 . S
C518 C520 1.415 . S
C519 C518 1.355 . S
C519 C521 1.419 . S
C520 C518 1.415 . S
C520 C525 1.425 . S
C520 C527 1.409 . S
C521 H513 0.930 . S
C521 C519 1.419 . S
C521 C522 1.362 . S
C522 H514 0.930 . S
C522 C521 1.362 . S
C522 C525 1.409 . S
C523 H515 0.930 . S
C523 C524 1.355 . S
C523 C525 1.415 . S
C524 C523 1.355 . S
C524 C526 1.419 . S
C525 C520 1.425 . S
C525 C522 1.409 . S
C525 C523 1.415 . S
C526 H516 0.930 . S
C526 C524 1.419 . S
C526 C527 1.362 . S
C527 H517 0.930 . S
C527 C520 1.409 . S
C527 C526 1.362 . S
H528 C534 0.930 . S
H529 C537 0.930 . S
H530 C538 0.930 . S
H531 C539 0.930 . S
H532 C542 0.930 . S
H533 C543 0.930 . S
C534 H528 0.930 . S
C534 C535 1.355 . S
C534 C536 1.415 . S
C535 C534 1.355 . S
C535 C537 1.419 . S
C536 C534 1.415 . S
C536 C541 1.425 . S
C536 C543 1.409 . S
C537 H529 0.930 . S
C537 C535 1.419 . S
C537 C538 1.362 . S
C538 H530 0.930 . S
C538 C537 1.362 . S
C538 C541 1.409 . S
C539 H531 0.930 . S
C539 C540 1.355 . S
C539 C541 1.415 . S
C540 C539 1.355 . S
C540 C542 1.419 . S
C541 C536 1.425 . S
C541 C538 1.409 . S
C541 C539 1.415 . S
C542 H532 0.930 . S
C542 C540 1.419 . S
C542 C543 1.362 . S
C543 H533 0.930 . S
C543 C536 1.409 . S
C543 C542 1.362 . S
H544 C550 0.930 . S
H545 C553 0.930 . S
H546 C554 0.930 . S
H547 C555 0.930 . S
H548 C558 0.930 . S
H549 C559 0.930 . S
C550 H544 0.930 . S
C550 C551 1.355 . S
C550 C552 1.415 . S
C551 C550 1.355 . S
C551 C553 1.419 . S
C552 C550 1.415 . S
C552 C557 1.425 . S
C552 C559 1.409 . S
C553 H545 0.930 . S
C553 C551 1.419 . S
C553 C554 1.362 . S
C554 H546 0.930 . S
C554 C553 1.362 . S
C554 C557 1.409 . S
C555 H547 0.930 . S
C555 C556 1.355 . S
C555 C557 1.415 . S
C556 C555 1.355 . S
C556 C558 1.419 . S
C557 C552 1.425 . S
C557 C554 1.409 . S
C557 C555 1.415 . S
C558 H548 0.930 . S
C558 C556 1.419 . S
C558 C559 1.362 . S
C559 H549 0.930 . S
C559 C552 1.409 . S
C559 C558 1.362 . S
H560 C566 0.930 . S
H561 C569 0.930 . S
H562 C570 0.930 . S
H563 C571 0.930 . S
H564 C574 0.930 . S
H565 C575 0.930 . S
C566 H560 0.930 . S
C566 C567 1.355 . S
C566 C568 1.415 . S
C567 C566 1.355 . S
C567 C569 1.419 . S
C568 C566 1.415 . S
C568 C573 1.425 . S
C568 C575 1.409 . S
C569 H561 0.930 . S
C569 C567 1.419 . S
C569 C570 1.362 . S
C570 H562 0.930 . S
C570 C569 1.362 . S
C570 C573 1.409 . S
C571 H563 0.930 . S
C571 C572 1.355 . S
C571 C573 1.415 . S
C572 C571 1.355 . S
C572 C574 1.419 . S
C573 C568 1.425 . S
C573 C570 1.409 . S
C573 C571 1.415 . S
C574 H564 0.930 . S
C574 C572 1.419 . S
C574 C575 1.362 . S
C575 H565 0.930 . S
C575 C568 1.409 . S
C575 C574 1.362 . S
H576 C582 0.930 . S
H577 C585 0.930 . S
H578 C586 0.930 . S
H579 C587 0.930 . S
H580 C590 0.930 . S
H581 C591 0.930 . S
C582 H576 0.930 . S
C582 C583 1.355 . S
C582 C584 1.415 . S
C583 C582 1.355 . S
C583 C585 1.419 . S
C584 C582 1.415 . S
C584 C589 1.425 . S
C584 C591 1.409 . S
C585 H577 0.930 . S
C585 C583 1.419 . S
C585 C586 1.362 . S
C586 H578 0.930 . S
C586 C585 1.362 . S
C586 C589 1.409 . S
C587 H579 0.930 . S
C587 C588 1.355 . S
C587 C589 1.415 . S
C588 C587 1.355 . S
C588 C590 1.419 . S
C589 C584 1.425 . S
C589 C586 1.409 . S
C589 C587 1.415 . S
C590 H580 0.930 . S
C590 C588 1.419 . S
C590 C591 1.362 . S
C591 H581 0.930 . S
C591 C584 1.409 . S
C591 C590 1.362 . S
H592 C598 0.930 . S
H593 C601 0.930 . S
H594 C602 0.930 . S
H595 C603 0.930 . S
H596 C606 0.930 . S
H597 C607 0.930 . S
C598 H592 0.930 . S
C598 C599 1.355 . S
C598 C600 1.415 . S
C599 C598 1.355 . S
C599 C601 1.419 . S
C600 C598 1.415 . S
C600 C605 1.425 . S
C600 C607 1.409 . S
C601 H593 0.930 . S
C601 C599 1.419 . S
C601 C602 1.362 . S
C602 H594 0.930 . S
C602 C601 1.362 . S
C602 C605 1.409 . S
C603 H595 0.930 . S
C603 C604 1.355 . S
C603 C605 1.415 . S
C604 C603 1.355 . S
C604 C606 1.419 . S
C605 C600 1.425 . S
C605 C602 1.409 . S
C605 C603 1.415 . S
C606 H596 0.930 . S
C606 C604 1.419 . S
C606 C607 1.362 . S
C607 H597 0.930 . S
C607 C600 1.409 . S
C607 C606 1.362 . S
H608 C614 0.930 . S
H609 C617 0.930 . S
H610 C618 0.930 . S
H611 C619 0.930 . S
H612 C622 0.930 . S
H613 C623 0.930 . S
C614 H608 0.930 . S
C614 C615 1.355 . S
C614 C616 1.415 . S
C615 C614 1.355 . S
C615 C617 1.419 . S
C616 C614 1.415 . S
C616 C621 1.425 . S
C616 C623 1.409 . S
C617 H609 0.930 . S
C617 C615 1.419 . S
C617 C618 1.362 . S
C618 H610 0.930 . S
C618 C617 1.362 . S
C618 C621 1.409 . S
C619 H611 0.930 . S
C619 C620 1.355 . S
C619 C621 1.415 . S
C620 C619 1.355 . S
C620 C622 1.419 . S
C621 C616 1.425 . S
C621 C618 1.409 . S
C621 C619 1.415 . S
C622 H612 0.930 . S
C622 C620 1.419 . S
C622 C623 1.362 . S
C623 H613 0.930 . S
C623 C616 1.409 . S
C623 C622 1.362 . S
H624 C630 0.930 . S
H625 C633 0.930 . S
H626 C634 0.930 . S
H627 C635 0.930 . S
H628 C638 0.930 1_455 S
H629 C639 0.930 . S
C630 H624 0.930 . S
C630 C631 1.355 . S
C630 C632 1.415 . S
C631 C630 1.355 . S
C631 C633 1.419 . S
C632 C630 1.415 . S
C632 C637 1.425 . S
C632 C639 1.409 . S
C633 H625 0.930 . S
C633 C631 1.419 . S
C633 C634 1.362 . S
C634 H626 0.930 . S
C634 C633 1.362 . S
C634 C637 1.409 . S
C635 H627 0.930 . S
C635 C636 1.355 . S
C635 C637 1.415 . S
C636 C635 1.355 . S
C636 C638 1.419 . S
C637 C632 1.425 . S
C637 C634 1.409 . S
C637 C635 1.415 . S
C638 H628 0.930 1_655 S
C638 C636 1.419 . S
C638 C639 1.362 . S
C639 H629 0.930 . S
C639 C632 1.409 . S
C639 C638 1.362 . S
H640 C646 0.930 . S
H641 C649 0.930 . S
H642 C650 0.930 . S
H643 C651 0.930 . S
H644 C654 0.930 . S
H645 C655 0.930 . S
C646 H640 0.930 . S
C646 C647 1.355 . S
C646 C648 1.415 . S
C647 C646 1.355 . S
C647 C649 1.419 . S
C648 C646 1.415 . S
C648 C653 1.425 . S
C648 C655 1.409 . S
C649 H641 0.930 . S
C649 C647 1.419 . S
C649 C650 1.362 . S
C650 H642 0.930 . S
C650 C649 1.362 . S
C650 C653 1.409 . S
C651 H643 0.930 . S
C651 C652 1.355 . S
C651 C653 1.415 . S
C652 C651 1.355 . S
C652 C654 1.419 . S
C653 C648 1.425 . S
C653 C650 1.409 . S
C653 C651 1.415 . S
C654 H644 0.930 . S
C654 C652 1.419 . S
C654 C655 1.362 . S
C655 H645 0.930 . S
C655 C648 1.409 . S
C655 C654 1.362 . S
H656 C662 0.930 . S
H657 C665 0.930 . S
H658 C666 0.930 . S
H659 C667 0.930 . S
H660 C670 0.930 . S
H661 C671 0.930 . S
C662 H656 0.930 . S
C662 C663 1.355 . S
C662 C664 1.415 . S
C663 C662 1.355 . S
C663 C665 1.419 . S
C664 C662 1.415 . S
C664 C669 1.425 . S
C664 C671 1.409 . S
C665 H657 0.930 . S
C665 C663 1.419 . S
C665 C666 1.362 . S
C666 H658 0.930 . S
C666 C665 1.362 . S
C666 C669 1.409 . S
C667 H659 0.930 . S
C667 C668 1.355 . S
C667 C669 1.415 . S
C668 C667 1.355 . S
C668 C670 1.419 . S
C669 C664 1.425 . S
C669 C666 1.409 . S
C669 C667 1.415 . S
C670 H660 0.930 . S
C670 C668 1.419 . S
C670 C671 1.362 . S
C671 H661 0.930 . S
C671 C664 1.409 . S
C671 C670 1.362 . S
H672 C678 0.930 . S
H673 C681 0.930 . S
H674 C682 0.930 . S
H675 C683 0.930 . S
H676 C686 0.930 . S
H677 C687 0.930 . S
C678 H672 0.930 . S
C678 C679 1.355 . S
C678 C680 1.415 . S
C679 C678 1.355 . S
C679 C681 1.419 . S
C680 C678 1.415 . S
C680 C685 1.425 . S
C680 C687 1.409 . S
C681 H673 0.930 . S
C681 C679 1.419 . S
C681 C682 1.362 . S
C682 H674 0.930 . S
C682 C681 1.362 . S
C682 C685 1.409 . S
C683 H675 0.930 . S
C683 C684 1.355 . S
C683 C685 1.415 . S
C684 C683 1.355 . S
C684 C686 1.419 . S
C685 C680 1.425 . S
C685 C682 1.409 . S
C685 C683 1.415 . S
C686 H676 0.930 . S
C686 C684 1.419 . S
C686 C687 1.362 . S
C687 H677 0.930 . S
C687 C680 1.409 . S
C687 C686 1.362 . S
H688 C694 0.930 . S
H689 C697 0.930 . S
H690 C698 0.930 . S
H691 C699 0.930 . S
H692 C702 0.930 1_655 S
H693 C703 0.930 . S
C694 H688 0.930 . S
C694 C695 1.355 . S
C694 C696 1.415 . S
C695 C694 1.355 . S
C695 C697 1.419 . S
C696 C694 1.415 . S
C696 C701 1.425 . S
C696 C703 1.409 . S
C697 H689 0.930 . S
C697 C695 1.419 . S
C697 C698 1.362 . S
C698 H690 0.930 . S
C698 C697 1.362 . S
C698 C701 1.409 . S
C699 H691 0.930 . S
C699 C700 1.355 . S
C699 C701 1.415 . S
C700 C699 1.355 . S
C700 C702 1.419 . S
C701 C696 1.425 . S
C701 C698 1.409 . S
C701 C699 1.415 . S
C702 H692 0.930 1_455 S
C702 C700 1.419 . S
C702 C703 1.362 . S
C703 H693 0.930 . S
C703 C696 1.409 . S
C703 C702 1.362 . S
H704 C710 0.930 . S
H705 C713 0.930 . S
H706 C714 0.930 . S
H707 C715 0.930 . S
H708 C718 0.930 . S
H709 C719 0.930 . S
C710 H704 0.930 . S
C710 C711 1.355 . S
C710 C712 1.415 . S
C711 C710 1.355 . S
C711 C713 1.419 . S
C712 C710 1.415 . S
C712 C717 1.425 . S
C712 C719 1.409 . S
C713 H705 0.930 . S
C713 C711 1.419 . S
C713 C714 1.362 . S
C714 H706 0.930 . S
C714 C713 1.362 . S
C714 C717 1.409 . S
C715 H707 0.930 . S
C715 C716 1.355 . S
C715 C717 1.415 . S
C716 C715 1.355 . S
C716 C718 1.419 . S
C717 C712 1.425 . S
C717 C714 1.409 . S
C717 C715 1.415 . S
C718 H708 0.930 . S
C718 C716 1.419 . S
C718 C719 1.362 . S
C719 H709 0.930 . S
C719 C712 1.409 . S
C719 C718 1.362 . S
H720 C726 0.930 . S
H721 C729 0.930 . S
H722 C730 0.930 . S
H723 C731 0.930 . S
H724 C734 0.930 . S
H725 C735 0.930 . S
C726 H720 0.930 . S
C726 C727 1.355 . S
C726 C728 1.415 . S
C727 C726 1.355 . S
C727 C729 1.419 . S
C728 C726 1.415 . S
C728 C733 1.425 . S
C728 C735 1.409 . S
C729 H721 0.930 . S
C729 C727 1.419 . S
C729 C730 1.362 . S
C730 H722 0.930 . S
C730 C729 1.362 . S
C730 C733 1.409 . S
C731 H723 0.930 . S
C731 C732 1.355 . S
C731 C733 1.415 . S
C732 C731 1.355 . S
C732 C734 1.419 . S
C733 C728 1.425 . S
C733 C730 1.409 . S
C733 C731 1.415 . S
C734 H724 0.930 . S
C734 C732 1.419 . S
C734 C735 1.362 . S
C735 H725 0.930 . S
C735 C728 1.409 . S
C735 C734 1.362 . S
H736 C742 0.930 . S
H737 C745 0.930 . S
H738 C746 0.930 . S
H739 C747 0.930 . S
H740 C750 0.930 . S
H741 C751 0.930 . S
C742 H736 0.930 . S
C742 C743 1.355 . S
C742 C744 1.415 . S
C743 C742 1.355 . S
C743 C745 1.419 . S
C744 C742 1.415 . S
C744 C749 1.425 . S
C744 C751 1.409 . S
C745 H737 0.930 . S
C745 C743 1.419 . S
C745 C746 1.362 . S
C746 H738 0.930 . S
C746 C745 1.362 . S
C746 C749 1.409 . S
C747 H739 0.930 . S
C747 C748 1.355 . S
C747 C749 1.415 . S
C748 C747 1.355 . S
C748 C750 1.419 . S
C749 C744 1.425 . S
C749 C746 1.409 . S
C749 C747 1.415 . S
C750 H740 0.930 . S
C750 C748 1.419 . S
C750 C751 1.362 . S
C751 H741 0.930 . S
C751 C744 1.409 . S
C751 C750 1.362 . S
H752 C758 0.930 . S
H753 C761 0.930 . S
H754 C762 0.930 . S
H755 C763 0.930 . S
H756 C766 0.930 . S
H757 C767 0.930 . S
C758 H752 0.930 . S
C758 C759 1.355 . S
C758 C760 1.415 . S
C759 C758 1.355 . S
C759 C761 1.419 . S
C760 C758 1.415 . S
C760 C765 1.425 . S
C760 C767 1.409 . S
C761 H753 0.930 . S
C761 C759 1.419 . S
C761 C762 1.362 . S
C762 H754 0.930 . S
C762 C761 1.362 . S
C762 C765 1.409 . S
C763 H755 0.930 . S
C763 C764 1.355 . S
C763 C765 1.415 . S
C764 C763 1.355 . S
C764 C766 1.419 . S
C765 C760 1.425 . S
C765 C762 1.409 . S
C765 C763 1.415 . S
C766 H756 0.930 . S
C766 C764 1.419 . S
C766 C767 1.362 . S
C767 H757 0.930 . S
C767 C760 1.409 . S
C767 C766 1.362 . S
H768 C774 0.930 . S
H769 C777 0.930 . S
H770 C778 0.930 . S
H771 C779 0.930 . S
H772 C782 0.930 . S
H773 C783 0.930 . S
C774 H768 0.930 . S
C774 C775 1.355 . S
C774 C776 1.415 . S
C775 C774 1.355 . S
C775 C777 1.419 . S
C776 C774 1.415 . S
C776 C781 1.425 . S
C776 C783 1.409 . S
C777 H769 0.930 . S
C777 C775 1.419 . S
C777 C778 1.362 . S
C778 H770 0.930 . S
C778 C777 1.362 . S
C778 C781 1.409 . S
C779 H771 0.930 . S
C779 C780 1.355 . S
C779 C781 1.415 . S
C780 C779 1.355 . S
C780 C782 1.419 . S
C781 C776 1.425 . S
C781 C778 1.409 . S
C781 C779 1.415 . S
C782 H772 0.930 . S
C782 C780 1.419 . S
C782 C783 1.362 . S
C783 H773 0.930 . S
C783 C776 1.409 . S
C783 C782 1.362 . S
H784 C790 0.930 . S
H785 C793 0.930 . S
H786 C794 0.930 . S
H787 C795 0.930 . S
H788 C798 0.930 . S
H789 C799 0.930 . S
C790 H784 0.930 . S
C790 C791 1.355 . S
C790 C792 1.415 . S
C791 C790 1.355 . S
C791 C793 1.419 . S
C792 C790 1.415 . S
C792 C797 1.425 . S
C792 C799 1.409 . S
C793 H785 0.930 . S
C793 C791 1.419 . S
C793 C794 1.362 . S
C794 H786 0.930 . S
C794 C793 1.362 . S
C794 C797 1.409 . S
C795 H787 0.930 . S
C795 C796 1.355 . S
C795 C797 1.415 . S
C796 C795 1.355 . S
C796 C798 1.419 . S
C797 C792 1.425 . S
C797 C794 1.409 . S
C797 C795 1.415 . S
C798 H788 0.930 . S
C798 C796 1.419 . S
C798 C799 1.362 . S
C799 H789 0.930 . S
C799 C792 1.409 . S
C799 C798 1.362 . S
H800 C806 0.930 . S
H801 C809 0.930 . S
H802 C810 0.930 . S
H803 C811 0.930 . S
H804 C814 0.930 . S
H805 C815 0.930 . S
C806 H800 0.930 . S
C806 C807 1.355 . S
C806 C808 1.415 . S
C807 C806 1.355 . S
C807 C809 1.419 . S
C808 C806 1.415 . S
C808 C813 1.425 . S
C808 C815 1.409 . S
C809 H801 0.930 . S
C809 C807 1.419 . S
C809 C810 1.362 . S
C810 H802 0.930 . S
C810 C809 1.362 . S
C810 C813 1.409 . S
C811 H803 0.930 . S
C811 C812 1.355 . S
C811 C813 1.415 . S
C812 C811 1.355 . S
C812 C814 1.419 . S
C813 C808 1.425 . S
C813 C810 1.409 . S
C813 C811 1.415 . S
C814 H804 0.930 . S
C814 C812 1.419 . S
C814 C815 1.362 . S
C815 H805 0.930 . S
C815 C808 1.409 . S
C815 C814 1.362 . S
H816 C822 0.930 . S
H817 C825 0.930 . S
H818 C826 0.930 . S
H819 C827 0.930 . S
H820 C830 0.930 . S
H821 C831 0.930 . S
C822 H816 0.930 . S
C822 C823 1.355 . S
C822 C824 1.415 . S
C823 C822 1.355 . S
C823 C825 1.419 . S
C824 C822 1.415 . S
C824 C829 1.425 . S
C824 C831 1.409 . S
C825 H817 0.930 . S
C825 C823 1.419 . S
C825 C826 1.362 . S
C826 H818 0.930 . S
C826 C825 1.362 . S
C826 C829 1.409 . S
C827 H819 0.930 . S
C827 C828 1.355 . S
C827 C829 1.415 . S
C828 C827 1.355 . S
C828 C830 1.419 . S
C829 C824 1.425 . S
C829 C826 1.409 . S
C829 C827 1.415 . S
C830 H820 0.930 . S
C830 C828 1.419 . S
C830 C831 1.362 . S
C831 H821 0.930 . S
C831 C824 1.409 . S
C831 C830 1.362 . S
H832 C838 0.930 . S
H833 C841 0.930 . S
H834 C842 0.930 . S
H835 C843 0.930 . S
H836 C846 0.930 . S
H837 C847 0.930 . S
C838 H832 0.930 . S
C838 C839 1.355 . S
C838 C840 1.415 . S
C839 C838 1.355 . S
C839 C841 1.419 . S
C840 C838 1.415 . S
C840 C845 1.425 . S
C840 C847 1.409 . S
C841 H833 0.930 . S
C841 C839 1.419 . S
C841 C842 1.362 . S
C842 H834 0.930 . S
C842 C841 1.362 . S
C842 C845 1.409 . S
C843 H835 0.930 . S
C843 C844 1.355 . S
C843 C845 1.415 . S
C844 C843 1.355 . S
C844 C846 1.419 . S
C845 C840 1.425 . S
C845 C842 1.409 . S
C845 C843 1.415 . S
C846 H836 0.930 . S
C846 C844 1.419 . S
C846 C847 1.362 . S
C847 H837 0.930 . S
C847 C840 1.409 . S
C847 C846 1.362 . S
H848 C854 0.930 . S
H849 C857 0.930 . S
H850 C858 0.930 . S
H851 C859 0.930 . S
H852 C862 0.930 . S
H853 C863 0.930 . S
C854 H848 0.930 . S
C854 C855 1.355 . S
C854 C856 1.415 . S
C855 C854 1.355 . S
C855 C857 1.419 . S
C856 C854 1.415 . S
C856 C861 1.425 . S
C856 C863 1.409 . S
C857 H849 0.930 . S
C857 C855 1.419 . S
C857 C858 1.362 . S
C858 H850 0.930 . S
C858 C857 1.362 . S
C858 C861 1.409 . S
C859 H851 0.930 . S
C859 C860 1.355 . S
C859 C861 1.415 . S
C860 C859 1.355 . S
C860 C862 1.419 . S
C861 C856 1.425 . S
C861 C858 1.409 . S
C861 C859 1.415 . S
C862 H852 0.930 . S
C862 C860 1.419 . S
C862 C863 1.362 . S
C863 H853 0.930 . S
C863 C856 1.409 . S
C863 C862 1.362 . S
H864 C870 0.930 . S
H865 C873 0.930 . S
H866 C874 0.930 . S
H867 C875 0.930 . S
H868 C878 0.930 . S
H869 C879 0.930 . S
C870 H864 0.930 . S
C870 C871 1.355 . S
C870 C872 1.415 . S
C871 C870 1.355 . S
C871 C873 1.419 . S
C872 C870 1.415 . S
C872 C877 1.425 . S
C872 C879 1.409 . S
C873 H865 0.930 . S
C873 C871 1.419 . S
C873 C874 1.362 . S
C874 H866 0.930 . S
C874 C873 1.362 . S
C874 C877 1.409 . S
C875 H867 0.930 . S
C875 C876 1.355 . S
C875 C877 1.415 . S
C876 C875 1.355 . S
C876 C878 1.419 . S
C877 C872 1.425 . S
C877 C874 1.409 . S
C877 C875 1.415 . S
C878 H868 0.930 . S
C878 C876 1.419 . S
C878 C879 1.362 . S
C879 H869 0.930 . S
C879 C872 1.409 . S
C879 C878 1.362 . S
H880 C886 0.930 . S
H881 C889 0.930 . S
H882 C890 0.930 . S
H883 C891 0.930 . S
H884 C894 0.930 . S
H885 C895 0.930 . S
C886 H880 0.930 . S
C886 C887 1.355 . S
C886 C888 1.415 . S
C887 C886 1.355 . S
C887 C889 1.419 . S
C888 C886 1.415 . S
C888 C893 1.425 . S
C888 C895 1.409 . S
C889 H881 0.930 . S
C889 C887 1.419 . S
C889 C890 1.362 . S
C890 H882 0.930 . S
C890 C889 1.362 . S
C890 C893 1.409 . S
C891 H883 0.930 . S
C891 C892 1.355 . S
C891 C893 1.415 . S
C892 C891 1.355 . S
C892 C894 1.419 . S
C893 C888 1.425 . S
C893 C890 1.409 . S
C893 C891 1.415 . S
C894 H884 0.930 . S
C894 C892 1.419 . S
C894 C895 1.362 . S
C895 H885 0.930 . S
C895 C888 1.409 . S
C895 C894 1.362 . S
H896 C902 0.930 . S
H897 C905 0.930 . S
H898 C906 0.930 . S
H899 C907 0.930 . S
H900 C910 0.930 . S
H901 C911 0.930 . S
C902 H896 0.930 . S
C902 C903 1.355 . S
C902 C904 1.415 1_556 S
C903 C902 1.355 . S
C903 C905 1.419 1_556 S
C904 C902 1.415 1_554 S
C904 C909 1.425 . S
C904 C911 1.409 1_554 S
C905 H897 0.930 . S
C905 C903 1.419 1_554 S
C905 C906 1.362 . S
C906 H898 0.930 . S
C906 C905 1.362 . S
C906 C909 1.409 . S
C907 H899 0.930 . S
C907 C908 1.355 . S
C907 C909 1.415 . S
C908 C907 1.355 . S
C908 C910 1.419 . S
C909 C904 1.425 . S
C909 C906 1.409 . S
C909 C907 1.415 . S
C910 H900 0.930 . S
C910 C908 1.419 . S
C910 C911 1.362 1_554 S
C911 H901 0.930 . S
C911 C904 1.409 1_556 S
C911 C910 1.362 1_556 S
H912 C918 0.930 . S
H913 C921 0.930 . S
H914 C922 0.930 . S
H915 C923 0.929 . S
H916 C926 0.930 . S
H917 C927 0.932 . S
C918 H912 0.930 . S
C918 C919 1.355 . S
C918 C920 1.415 . S
C919 C918 1.355 . S
C919 C921 1.419 . S
C920 C918 1.415 . S
C920 C925 1.425 . S
C920 C927 1.392 1_554 S
C921 H913 0.930 . S
C921 C919 1.419 . S
C921 C922 1.362 . S
C922 H914 0.930 . S
C922 C921 1.362 . S
C922 C925 1.409 . S
C923 H915 0.929 . S
C923 C924 1.356 . S
C923 C925 1.413 1_556 S
C924 C923 1.356 . S
C924 C926 1.419 . S
C925 C920 1.425 . S
C925 C922 1.409 . S
C925 C923 1.413 1_554 S
C926 H916 0.930 . S
C926 C924 1.419 . S
C926 C927 1.379 . S
C927 H917 0.932 . S
C927 C920 1.392 1_556 S
C927 C926 1.379 . S
H928 C934 0.930 . S
H929 C937 0.930 . S
H930 C938 0.930 . S
H931 C939 0.930 . S
H932 C942 0.930 . S
H933 C943 0.930 . S
C934 H928 0.930 . S
C934 C935 1.355 . S
C934 C936 1.408 1_556 S
C935 C934 1.355 . S
C935 C937 1.419 1_556 S
C936 C934 1.408 1_554 S
C936 C941 1.436 . S
C936 C943 1.406 1_554 S
C937 H929 0.930 . S
C937 C935 1.419 1_554 S
C937 C938 1.362 . S
C938 H930 0.930 . S
C938 C937 1.362 . S
C938 C941 1.409 . S
C939 H931 0.930 . S
C939 C940 1.355 . S
C939 C941 1.415 . S
C940 C939 1.355 . S
C940 C942 1.419 . S
C941 C936 1.436 . S
C941 C938 1.409 . S
C941 C939 1.415 . S
C942 H932 0.930 . S
C942 C940 1.419 . S
C942 C943 1.362 1_554 S
C943 H933 0.930 . S
C943 C936 1.406 1_556 S
C943 C942 1.362 1_556 S
H944 C950 0.930 . S
H945 C953 0.930 . S
H946 C954 0.930 . S
H947 C955 0.930 . S
H948 C958 0.930 . S
H949 C959 0.930 . S
C950 H944 0.930 . S
C950 C951 1.355 . S
C950 C952 1.415 . S
C951 C950 1.355 . S
C951 C953 1.419 . S
C952 C950 1.415 . S
C952 C957 1.425 . S
C952 C959 1.409 1_554 S
C953 H945 0.930 . S
C953 C951 1.419 . S
C953 C954 1.362 . S
C954 H946 0.930 . S
C954 C953 1.362 . S
C954 C957 1.409 . S
C955 H947 0.930 . S
C955 C956 1.355 1_554 S
C955 C957 1.415 . S
C956 C955 1.355 1_556 S
C956 C958 1.419 . S
C957 C952 1.425 . S
C957 C954 1.409 . S
C957 C955 1.415 . S
C958 H948 0.930 . S
C958 C956 1.419 . S
C958 C959 1.362 . S
C959 H949 0.930 . S
C959 C952 1.409 1_556 S
C959 C958 1.362 . S
H960 C966 0.930 . S
H961 C969 0.930 . S
H962 C970 0.930 . S
H963 C971 0.930 . S
H964 C974 0.930 . S
H965 C975 0.930 . S
C966 H960 0.930 . S
C966 C967 1.355 . S
C966 C968 1.415 . S
C967 C966 1.355 . S
C967 C969 1.419 . S
C968 C966 1.415 . S
C968 C973 1.425 . S
C968 C975 1.409 . S
C969 H961 0.930 . S
C969 C967 1.419 . S
C969 C970 1.362 . S
C970 H962 0.930 . S
C970 C969 1.362 . S
C970 C973 1.409 . S
C971 H963 0.930 . S
C971 C972 1.355 . S
C971 C973 1.415 . S
C972 C971 1.355 . S
C972 C974 1.419 . S
C973 C968 1.425 . S
C973 C970 1.409 . S
C973 C971 1.415 . S
C974 H964 0.930 . S
C974 C972 1.419 . S
C974 C975 1.362 . S
C975 H965 0.930 . S
C975 C968 1.409 . S
C975 C974 1.362 . S
H976 C982 0.930 . S
H977 C985 0.930 . S
H978 C986 0.930 . S
H979 C987 0.930 . S
H980 C990 0.930 . S
H981 C991 0.930 . S
C982 H976 0.930 . S
C982 C983 1.355 . S
C982 C984 1.415 . S
C983 C982 1.355 . S
C983 C985 1.419 . S
C984 C982 1.415 . S
C984 C989 1.425 . S
C984 C991 1.409 . S
C985 H977 0.930 . S
C985 C983 1.419 . S
C985 C986 1.362 . S
C986 H978 0.930 . S
C986 C985 1.362 . S
C986 C989 1.409 . S
C987 H979 0.930 . S
C987 C988 1.355 . S
C987 C989 1.415 . S
C988 C987 1.355 . S
C988 C990 1.419 . S
C989 C984 1.425 . S
C989 C986 1.409 . S
C989 C987 1.415 . S
C990 H980 0.930 . S
C990 C988 1.419 . S
C990 C991 1.362 . S
C991 H981 0.930 . S
C991 C984 1.409 . S
C991 C990 1.362 . S
H992 C998 0.930 . S
H993 C1001 0.930 . S
H994 C1002 0.930 . S
H995 C1003 0.930 . S
H996 C1006 0.930 . S
H997 C1007 0.930 . S
C998 H992 0.930 . S
C998 C999 1.355 . S
C998 C1000 1.415 . S
C999 C998 1.355 . S
C999 C1001 1.419 . S
C1000 C998 1.415 . S
C1000 C1005 1.425 . S
C1000 C1007 1.409 . S
C1001 H993 0.930 . S
C1001 C999 1.419 . S
C1001 C1002 1.362 . S
C1002 H994 0.930 . S
C1002 C1001 1.362 . S
C1002 C1005 1.409 . S
C1003 H995 0.930 . S
C1003 C1004 1.355 . S
C1003 C1005 1.415 . S
C1004 C1003 1.355 . S
C1004 C1006 1.419 . S
C1005 C1000 1.425 . S
C1005 C1002 1.409 . S
C1005 C1003 1.415 . S
C1006 H996 0.930 . S
C1006 C1004 1.419 . S
C1006 C1007 1.362 . S
C1007 H997 0.930 . S
C1007 C1000 1.409 . S
C1007 C1006 1.362 . S
H1008 C1014 0.930 . S
H1009 C1017 0.930 . S
H1010 C1018 0.930 . S
H1011 C1019 0.930 . S
H1012 C1022 0.930 . S
H1013 C1023 0.930 . S
C1014 H1008 0.930 . S
C1014 C1015 1.355 . S
C1014 C1016 1.415 . S
C1015 C1014 1.355 . S
C1015 C1017 1.419 . S
C1016 C1014 1.415 . S
C1016 C1021 1.425 . S
C1016 C1023 1.409 . S
C1017 H1009 0.930 . S
C1017 C1015 1.419 . S
C1017 C1018 1.362 . S
C1018 H1010 0.930 . S
C1018 C1017 1.362 . S
C1018 C1021 1.409 . S
C1019 H1011 0.930 . S
C1019 C1020 1.355 . S
C1019 C1021 1.415 . S
C1020 C1019 1.355 . S
C1020 C1022 1.419 . S
C1021 C1016 1.425 . S
C1021 C1018 1.409 . S
C1021 C1019 1.415 . S
C1022 H1012 0.930 . S
C1022 C1020 1.419 . S
C1022 C1023 1.362 . S
C1023 H1013 0.930 . S
C1023 C1016 1.409 . S
C1023 C1022 1.362 . S
H1024 C1030 0.930 . S
H1025 C1033 0.930 . S
H1026 C1034 0.930 1_554 S
H1027 C1035 0.930 . S
H1028 C1038 0.930 . S
H1029 C1039 0.930 . S
C1030 H1024 0.930 . S
C1030 C1031 1.355 . S
C1030 C1032 1.415 . S
C1031 C1030 1.355 . S
C1031 C1033 1.419 . S
C1032 C1030 1.415 . S
C1032 C1037 1.425 . S
C1032 C1039 1.409 . S
C1033 H1025 0.930 . S
C1033 C1031 1.419 . S
C1033 C1034 1.362 . S
C1034 H1026 0.930 1_556 S
C1034 C1033 1.362 . S
C1034 C1037 1.409 . S
C1035 H1027 0.930 . S
C1035 C1036 1.355 . S
C1035 C1037 1.415 1_554 S
C1036 C1035 1.355 . S
C1036 C1038 1.419 1_554 S
C1037 C1032 1.425 . S
C1037 C1034 1.409 . S
C1037 C1035 1.415 1_556 S
C1038 H1028 0.930 . S
C1038 C1036 1.419 1_556 S
C1038 C1039 1.362 . S
C1039 H1029 0.930 . S
C1039 C1032 1.409 . S
C1039 C1038 1.362 . S
H1040 C1046 0.930 . S
H1041 C1049 0.930 . S
H1042 C1050 0.930 . S
H1043 C1051 0.930 . S
H1044 C1054 0.930 . S
H1045 C1055 0.930 . S
C1046 H1040 0.930 . S
C1046 C1047 1.355 . S
C1046 C1048 1.415 . S
C1047 C1046 1.355 . S
C1047 C1049 1.419 . S
C1048 C1046 1.415 . S
C1048 C1053 1.425 . S
C1048 C1055 1.409 1_556 S
C1049 H1041 0.930 . S
C1049 C1047 1.419 . S
C1049 C1050 1.362 . S
C1050 H1042 0.930 . S
C1050 C1049 1.362 . S
C1050 C1053 1.409 . S
C1051 H1043 0.930 . S
C1051 C1052 1.355 1_556 S
C1051 C1053 1.415 . S
C1052 C1051 1.355 1_554 S
C1052 C1054 1.419 . S
C1053 C1048 1.425 . S
C1053 C1050 1.409 . S
C1053 C1051 1.415 . S
C1054 H1044 0.930 . S
C1054 C1052 1.419 . S
C1054 C1055 1.362 . S
C1055 H1045 0.930 . S
C1055 C1048 1.409 1_554 S
C1055 C1054 1.362 . S
H1056 C1062 0.930 . S
H1057 C1065 0.930 . S
H1058 C1066 0.930 . S
H1059 C1067 0.930 . S
H1060 C1070 0.930 . S
H1061 C1071 0.930 . S
C1062 H1056 0.930 . S
C1062 C1063 1.355 1_556 S
C1062 C1064 1.415 . S
C1063 C1062 1.355 1_554 S
C1063 C1065 1.419 . S
C1064 C1062 1.415 . S
C1064 C1069 1.425 . S
C1064 C1071 1.409 . S
C1065 H1057 0.930 . S
C1065 C1063 1.419 . S
C1065 C1066 1.362 . S
C1066 H1058 0.930 . S
C1066 C1065 1.362 . S
C1066 C1069 1.409 1_554 S
C1067 H1059 0.930 . S
C1067 C1068 1.355 . S
C1067 C1069 1.415 . S
C1068 C1067 1.355 . S
C1068 C1070 1.419 . S
C1069 C1064 1.425 . S
C1069 C1066 1.409 1_556 S
C1069 C1067 1.415 . S
C1070 H1060 0.930 . S
C1070 C1068 1.419 . S
C1070 C1071 1.362 . S
C1071 H1061 0.930 . S
C1071 C1064 1.409 . S
C1071 C1070 1.362 . S
H1072 C1078 0.930 . S
H1073 C1081 0.930 . S
H1074 C1082 0.930 . S
H1075 C1083 0.930 . S
H1076 C1086 0.930 . S
H1077 C1087 0.930 1_554 S
C1078 H1072 0.930 . S
C1078 C1079 1.355 . S
C1078 C1080 1.415 1_554 S
C1079 C1078 1.355 . S
C1079 C1081 1.419 1_554 S
C1080 C1078 1.415 1_556 S
C1080 C1085 1.425 . S
C1080 C1087 1.409 . S
C1081 H1073 0.930 . S
C1081 C1079 1.419 1_556 S
C1081 C1082 1.362 . S
C1082 H1074 0.930 . S
C1082 C1081 1.362 . S
C1082 C1085 1.409 . S
C1083 H1075 0.930 . S
C1083 C1084 1.355 . S
C1083 C1085 1.415 . S
C1084 C1083 1.355 . S
C1084 C1086 1.419 . S
C1085 C1080 1.425 . S
C1085 C1082 1.409 . S
C1085 C1083 1.415 . S
C1086 H1076 0.930 . S
C1086 C1084 1.419 . S
C1086 C1087 1.362 . S
C1087 H1077 0.930 1_556 S
C1087 C1080 1.409 . S
C1087 C1086 1.362 . S
C327 C8 1.790 . S
C332 C108 1.866 . S
C343 C128 1.848 . S
C348 C28 1.816 . S
C359 C48 1.857 . S
C364 C148 1.798 . S
C375 C68 1.812 . S
C380 C88 1.842 . S
C391 C269 1.848 . S
C396 C169 1.815 . S
C407 C289 1.802 . S
C412 C189 1.853 . S
C423 C209 1.835 . S
C428 C309 1.829 . S
C439 C229 1.845 . S
C444 C249 1.809 . S
C455 C1 1.767 . S
C460 C79 1.702 . S
C471 C21 1.811 . S
C476 C19 1.641 . S
C487 C41 1.809 . S
C492 C39 1.656 . S
C503 C61 1.788 . S
C508 C59 1.696 . S
C519 C81 1.761 . S
C524 C119 1.698 . S
C535 C139 1.611 . S
C540 C101 1.779 . S
C551 C121 1.809 . S
C556 C159 1.659 . S
C567 C99 1.642 . S
C572 C141 1.760 . S
C583 C238 1.684 . S
C588 C162 1.755 . S
C599 C182 1.788 . S
C604 C178 1.697 . S
C615 C202 1.766 . S
C620 C198 1.627 . S
C631 C222 1.811 . S
C636 C218 1.646 . S
C647 C242 1.758 . S
C652 C278 1.694 . S
C663 C262 1.773 . S
C668 C298 1.703 . S
C679 C282 1.810 . S
C684 C318 1.623 . S
C695 C302 1.811 . S
C700 C258 1.647 . S
C711 C2 0.349 . S
C716 C42 0.350 . S
C727 C22 0.499 . S
C732 C62 0.453 . S
C743 C122 0.497 . S
C748 C82 0.449 . S
C759 C142 0.485 . S
C764 C102 0.423 . S
C775 C201 0.502 . S
C780 C161 0.486 . S
C791 C221 0.488 . S
C796 C181 0.429 . S
C807 C241 0.498 . S
C812 C281 0.496 . S
C823 C261 0.459 . S
C828 C301 0.501 . S
C839 C18 1.623 . S
C844 C228 1.612 . S
C855 C168 1.612 . S
C860 C38 1.623 . S
C871 C58 1.626 . S
C876 C188 1.625 . S
C887 C208 1.621 . S
C892 C78 1.623 . S
C903 C268 1.629 . S
C908 C98 1.626 . S
C919 C118 1.623 . S
C924 C288 1.612 . S
C935 C308 1.629 . S
C940 C138 1.626 . S
C951 C158 1.622 . S
C956 C248 1.614 . S
C967 C179 1.626 . S
C972 C69 1.625 . S
C983 C199 1.626 . S
C988 C9 1.622 . S
C999 C29 1.629 . S
C1004 C219 1.626 . S
C1015 C239 1.623 . S
C1020 C49 1.613 . S
C1031 C259 1.625 . S
C1036 C109 1.629 . S
C1047 C279 1.623 . S
C1052 C129 1.612 . S
C1063 C149 1.621 . S
C1068 C299 1.623 . S
C1079 C89 1.629 . S
C1084 C319 1.626 . S
