# Generated by pormake.
# Topology ukm, (4)-cn, num edge types: 1
# Building blocks:
#     Node 0, Type 0, BuildingBlock: QUQFOY_clean_sbu_1, # of connection points: 4
#     Node 1, Type 0, BuildingBlock: QUQFOY_clean_sbu_1, # of connection points: 4
#     Node 2, Type 0, BuildingBlock: QUQFOY_clean_sbu_1, # of connection points: 4
#     Node 3, Type 0, BuildingBlock: QUQFOY_clean_sbu_1, # of connection points: 4
#     Node 4, Type 0, BuildingBlock: QUQFOY_clean_sbu_1, # of connection points: 4
#     Node 5, Type 0, BuildingBlock: QUQFOY_clean_sbu_1, # of connection points: 4
#     Node 6, Type 0, BuildingBlock: QUQFOY_clean_sbu_1, # of connection points: 4
#     Node 7, Type 0, BuildingBlock: QUQFOY_clean_sbu_1, # of connection points: 4
#     Node 8, Type 0, BuildingBlock: QUQFOY_clean_sbu_1, # of connection points: 4
#     Node 9, Type 0, BuildingBlock: QUQFOY_clean_sbu_1, # of connection points: 4
#     Node 10, Type 0, BuildingBlock: QUQFOY_clean_sbu_1, # of connection points: 4
#     Node 11, Type 0, BuildingBlock: QUQFOY_clean_sbu_1, # of connection points: 4
#     Node 12, Type 0, BuildingBlock: QUQFOY_clean_sbu_1, # of connection points: 4
#     Node 13, Type 0, BuildingBlock: QUQFOY_clean_sbu_1, # of connection points: 4
#     Node 14, Type 0, BuildingBlock: QUQFOY_clean_sbu_1, # of connection points: 4
#     Node 15, Type 0, BuildingBlock: QUQFOY_clean_sbu_1, # of connection points: 4
#     Node 16, Type 0, BuildingBlock: QUQFOY_clean_sbu_1, # of connection points: 4
#     Node 17, Type 0, BuildingBlock: QUQFOY_clean_sbu_1, # of connection points: 4
#     Node 18, Type 0, BuildingBlock: QUQFOY_clean_sbu_1, # of connection points: 4
#     Node 19, Type 0, BuildingBlock: QUQFOY_clean_sbu_1, # of connection points: 4
#     Node 20, Type 0, BuildingBlock: QUQFOY_clean_sbu_1, # of connection points: 4
#     Node 21, Type 0, BuildingBlock: QUQFOY_clean_sbu_1, # of connection points: 4
#     Node 22, Type 0, BuildingBlock: QUQFOY_clean_sbu_1, # of connection points: 4
#     Node 23, Type 0, BuildingBlock: QUQFOY_clean_sbu_1, # of connection points: 4
#     Node 24, Type 0, BuildingBlock: QUQFOY_clean_sbu_1, # of connection points: 4
#     Node 25, Type 0, BuildingBlock: QUQFOY_clean_sbu_1, # of connection points: 4
#     Node 26, Type 0, BuildingBlock: QUQFOY_clean_sbu_1, # of connection points: 4
#     Node 27, Type 0, BuildingBlock: QUQFOY_clean_sbu_1, # of connection points: 4
#     Node 28, Type 0, BuildingBlock: QUQFOY_clean_sbu_1, # of connection points: 4
#     Node 29, Type 0, BuildingBlock: QUQFOY_clean_sbu_1, # of connection points: 4
#     Node 30, Type 0, BuildingBlock: QUQFOY_clean_sbu_1, # of connection points: 4
#     Node 31, Type 0, BuildingBlock: QUQFOY_clean_sbu_1, # of connection points: 4
#     Edge 32, Type (0, 0), BuildingBlock: OJICUG_clean_linker_0, # of connection points: 2
#     Edge 33, Type (0, 0), BuildingBlock: OJICUG_clean_linker_0, # of connection points: 2
#     Edge 34, Type (0, 0), BuildingBlock: OJICUG_clean_linker_0, # of connection points: 2
#     Edge 35, Type (0, 0), BuildingBlock: OJICUG_clean_linker_0, # of connection points: 2
#     Edge 36, Type (0, 0), BuildingBlock: OJICUG_clean_linker_0, # of connection points: 2
#     Edge 37, Type (0, 0), BuildingBlock: OJICUG_clean_linker_0, # of connection points: 2
#     Edge 38, Type (0, 0), BuildingBlock: OJICUG_clean_linker_0, # of connection points: 2
#     Edge 39, Type (0, 0), BuildingBlock: OJICUG_clean_linker_0, # of connection points: 2
#     Edge 40, Type (0, 0), BuildingBlock: OJICUG_clean_linker_0, # of connection points: 2
#     Edge 41, Type (0, 0), BuildingBlock: OJICUG_clean_linker_0, # of connection points: 2
#     Edge 42, Type (0, 0), BuildingBlock: OJICUG_clean_linker_0, # of connection points: 2
#     Edge 43, Type (0, 0), BuildingBlock: OJICUG_clean_linker_0, # of connection points: 2
#     Edge 44, Type (0, 0), BuildingBlock: OJICUG_clean_linker_0, # of connection points: 2
#     Edge 45, Type (0, 0), BuildingBlock: OJICUG_clean_linker_0, # of connection points: 2
#     Edge 46, Type (0, 0), BuildingBlock: OJICUG_clean_linker_0, # of connection points: 2
#     Edge 47, Type (0, 0), BuildingBlock: OJICUG_clean_linker_0, # of connection points: 2
#     Edge 48, Type (0, 0), BuildingBlock: OJICUG_clean_linker_0, # of connection points: 2
#     Edge 49, Type (0, 0), BuildingBlock: OJICUG_clean_linker_0, # of connection points: 2
#     Edge 50, Type (0, 0), BuildingBlock: OJICUG_clean_linker_0, # of connection points: 2
#     Edge 51, Type (0, 0), BuildingBlock: OJICUG_clean_linker_0, # of connection points: 2
#     Edge 52, Type (0, 0), BuildingBlock: OJICUG_clean_linker_0, # of connection points: 2
#     Edge 53, Type (0, 0), BuildingBlock: OJICUG_clean_linker_0, # of connection points: 2
#     Edge 54, Type (0, 0), BuildingBlock: OJICUG_clean_linker_0, # of connection points: 2
#     Edge 55, Type (0, 0), BuildingBlock: OJICUG_clean_linker_0, # of connection points: 2
#     Edge 56, Type (0, 0), BuildingBlock: OJICUG_clean_linker_0, # of connection points: 2
#     Edge 57, Type (0, 0), BuildingBlock: OJICUG_clean_linker_0, # of connection points: 2
#     Edge 58, Type (0, 0), BuildingBlock: OJICUG_clean_linker_0, # of connection points: 2
#     Edge 59, Type (0, 0), BuildingBlock: OJICUG_clean_linker_0, # of connection points: 2
#     Edge 60, Type (0, 0), BuildingBlock: OJICUG_clean_linker_0, # of connection points: 2
#     Edge 61, Type (0, 0), BuildingBlock: OJICUG_clean_linker_0, # of connection points: 2
#     Edge 62, Type (0, 0), BuildingBlock: OJICUG_clean_linker_0, # of connection points: 2
#     Edge 63, Type (0, 0), BuildingBlock: OJICUG_clean_linker_0, # of connection points: 2
#     Edge 64, Type (0, 0), BuildingBlock: OJICUG_clean_linker_0, # of connection points: 2
#     Edge 65, Type (0, 0), BuildingBlock: OJICUG_clean_linker_0, # of connection points: 2
#     Edge 66, Type (0, 0), BuildingBlock: OJICUG_clean_linker_0, # of connection points: 2
#     Edge 67, Type (0, 0), BuildingBlock: OJICUG_clean_linker_0, # of connection points: 2
#     Edge 68, Type (0, 0), BuildingBlock: OJICUG_clean_linker_0, # of connection points: 2
#     Edge 69, Type (0, 0), BuildingBlock: OJICUG_clean_linker_0, # of connection points: 2
#     Edge 70, Type (0, 0), BuildingBlock: OJICUG_clean_linker_0, # of connection points: 2
#     Edge 71, Type (0, 0), BuildingBlock: OJICUG_clean_linker_0, # of connection points: 2
#     Edge 72, Type (0, 0), BuildingBlock: OJICUG_clean_linker_0, # of connection points: 2
#     Edge 73, Type (0, 0), BuildingBlock: OJICUG_clean_linker_0, # of connection points: 2
#     Edge 74, Type (0, 0), BuildingBlock: OJICUG_clean_linker_0, # of connection points: 2
#     Edge 75, Type (0, 0), BuildingBlock: OJICUG_clean_linker_0, # of connection points: 2
#     Edge 76, Type (0, 0), BuildingBlock: OJICUG_clean_linker_0, # of connection points: 2
#     Edge 77, Type (0, 0), BuildingBlock: OJICUG_clean_linker_0, # of connection points: 2
#     Edge 78, Type (0, 0), BuildingBlock: OJICUG_clean_linker_0, # of connection points: 2
#     Edge 79, Type (0, 0), BuildingBlock: OJICUG_clean_linker_0, # of connection points: 2
#     Edge 80, Type (0, 0), BuildingBlock: OJICUG_clean_linker_0, # of connection points: 2
#     Edge 81, Type (0, 0), BuildingBlock: OJICUG_clean_linker_0, # of connection points: 2
#     Edge 82, Type (0, 0), BuildingBlock: OJICUG_clean_linker_0, # of connection points: 2
#     Edge 83, Type (0, 0), BuildingBlock: OJICUG_clean_linker_0, # of connection points: 2
#     Edge 84, Type (0, 0), BuildingBlock: OJICUG_clean_linker_0, # of connection points: 2
#     Edge 85, Type (0, 0), BuildingBlock: OJICUG_clean_linker_0, # of connection points: 2
#     Edge 86, Type (0, 0), BuildingBlock: OJICUG_clean_linker_0, # of connection points: 2
#     Edge 87, Type (0, 0), BuildingBlock: OJICUG_clean_linker_0, # of connection points: 2
#     Edge 88, Type (0, 0), BuildingBlock: OJICUG_clean_linker_0, # of connection points: 2
#     Edge 89, Type (0, 0), BuildingBlock: OJICUG_clean_linker_0, # of connection points: 2
#     Edge 90, Type (0, 0), BuildingBlock: OJICUG_clean_linker_0, # of connection points: 2
#     Edge 91, Type (0, 0), BuildingBlock: OJICUG_clean_linker_0, # of connection points: 2
#     Edge 92, Type (0, 0), BuildingBlock: OJICUG_clean_linker_0, # of connection points: 2
#     Edge 93, Type (0, 0), BuildingBlock: OJICUG_clean_linker_0, # of connection points: 2
#     Edge 94, Type (0, 0), BuildingBlock: OJICUG_clean_linker_0, # of connection points: 2
#     Edge 95, Type (0, 0), BuildingBlock: OJICUG_clean_linker_0, # of connection points: 2
# Relax obj value: 0.221
# Max RMSD: 0.205
# Mean RMSD: 0.205
data_MOF--net-ukm--node1-QUQFOY_clean_sbu_1--edge1-OJICUG_clean_linker_0
_symmetry_space_group_name_H-M    P1
_symmetry_Int_Tables_number       1
_symmetry_cell_setting            triclinic
loop_
_symmetry_equiv_pos_as_xyz
'x, y, z'
_cell_length_a     23.084511
_cell_length_b     77.637497
_cell_length_c     30.454509
_cell_angle_alpha  89.987951
_cell_angle_beta   90.056769
_cell_angle_gamma 90.039749
loop_
_atom_site_label
_atom_site_type_symbol
_atom_site_fract_x
_atom_site_fract_y
_atom_site_fract_z
_atom_type_partial_charge
O0 O 0.11934 0.34924 0.29122 0.0
Cd1 Cd 0.16393 0.32679 0.27749 0.0
Cd2 Cd 0.04879 0.32027 0.26354 0.0
O3 O 0.02826 0.34151 0.30089 0.0
O4 O 0.24389 0.33614 0.28462 0.0
O5 O 0.21274 0.31394 0.32293 0.0
C6 C 0.25374 0.32468 0.31408 0.0
C7 C 0.02106 0.2918 0.26476 0.0
C8 C 0.06741 0.35303 0.3013 0.0
C9 C 0.1232 0.32251 0.18666 0.0
O10 O 0.07341 0.32616 0.20139 0.0
O11 O 0.16495 0.31953 0.21273 0.0
O12 O 0.98446 0.30373 0.25434 0.0
O13 O 0.07079 0.29638 0.28074 0.0
O14 O 0.09629 0.9207 0.31198 0.0
Cd15 Cd 0.0548 0.93905 0.27427 0.0
Cd16 Cd 0.1746 0.94447 0.26803 0.0
O17 O 0.18783 0.92842 0.32027 0.0
O18 O 0.9752 0.92915 0.27819 0.0
O19 O 0.99572 0.95509 0.30286 0.0
C20 C 0.95837 0.94287 0.29798 0.0
C21 C 0.20611 0.97197 0.25117 0.0
C22 C 0.14618 0.91823 0.32858 0.0
C23 C 0.1152 0.93274 0.18974 0.0
O24 O 0.16093 0.93116 0.21224 0.0
O25 O 0.069 0.93845 0.20721 0.0
O26 O 0.24207 0.95924 0.25307 0.0
O27 O 0.15349 0.96942 0.2644 0.0
O28 O 0.17291 0.92286 0.88066 0.0
Cd29 Cd 0.20703 0.94099 0.92268 0.0
Cd30 Cd 0.08739 0.9457 0.92158 0.0
O31 O 0.08128 0.92956 0.86854 0.0
O32 O 0.28751 0.93171 0.92441 0.0
O33 O 0.26834 0.95769 0.89961 0.0
C34 C 0.30582 0.94569 0.90665 0.0
C35 C 0.06394 0.97404 0.9347 0.0
C36 C 0.12502 0.92005 0.86134 0.0
C37 C 0.13639 0.93393 0.00339 0.0
O38 O 0.09213 0.93292 -0.02097 0.0
O39 O 0.18459 0.9392 -0.01182 0.0
O40 O 0.02388 0.96249 0.9303 0.0
O41 O 0.11686 0.9698 0.92555 0.0
O42 O 0.15658 0.34439 0.89248 0.0
Cd43 Cd 0.11331 0.32209 0.90959 0.0
Cd44 Cd 0.2299 0.31668 0.9231 0.0
O45 O 0.24812 0.33723 0.88261 0.0
O46 O 0.03338 0.33164 0.90475 0.0
O47 O 0.06093 0.30898 0.86683 0.0
C48 C 0.02108 0.31997 0.87641 0.0
C49 C 0.25785 0.28826 0.92474 0.0
C50 C 0.20792 0.34839 0.88125 0.0
C51 C 0.15681 0.3199 0.0003 0.0
O52 O 0.20596 0.32373 -0.01537 0.0
O53 O 0.11509 0.3159 -0.02493 0.0
O54 O 0.29461 0.30039 0.93331 0.0
O55 O 0.20766 0.29252 0.90904 0.0
O56 O 0.91766 0.69456 0.73944 0.0
Cd57 Cd 0.94507 0.70097 0.67866 0.0
Cd58 Cd 0.82533 0.69499 0.66673 0.0
O59 O 0.82743 0.70315 0.73106 0.0
O60 O 0.018 0.71328 0.69389 0.0
O61 O 0.94026 0.7263 0.66699 0.0
C62 C 0.99058 0.7274 0.6856 0.0
C63 C 0.73459 0.69651 0.63109 0.0
C64 C 0.87001 0.69944 0.7557 0.0
C65 C 0.92151 0.66847 0.64116 0.0
O66 O 0.87029 0.67255 0.65265 0.0
O67 O 0.96138 0.67978 0.64025 0.0
O68 O 0.74505 0.68557 0.66174 0.0
O69 O 0.77534 0.70715 0.62081 0.0
O70 O 0.83926 0.08262 0.74486 0.0
Cd71 Cd 0.81668 0.07545 0.68329 0.0
Cd72 Cd 0.93032 0.08103 0.67082 0.0
O73 O 0.92949 0.07424 0.73587 0.0
O74 O 0.75342 0.05878 0.69384 0.0
O75 O 0.84106 0.05146 0.6699 0.0
C76 C 0.79145 0.04692 0.68615 0.0
C77 C 0.01895 0.07726 0.6342 0.0
C78 C 0.88763 0.0782 0.76088 0.0
C79 C 0.8361 0.1074 0.64366 0.0
O80 O 0.88747 0.10359 0.6553 0.0
O81 O 0.79683 0.09592 0.64341 0.0
O82 O 1.01138 0.08929 0.66256 0.0
O83 O 0.9763 0.06695 0.62654 0.0
O84 O 0.95707 0.07506 0.96546 0.0
Cd85 Cd 0.97886 0.06663 0.02614 0.0
Cd86 Cd 0.859 0.06903 0.03586 0.0
O87 O 0.86748 0.06529 0.96952 0.0
O88 O 0.0469 0.05163 0.01558 0.0
O89 O 0.95978 0.04189 0.03461 0.0
C90 C 1.0115 0.03881 0.02003 0.0
C91 C 0.76389 0.06487 0.06267 0.0
C92 C 0.90983 0.07092 0.94711 0.0
C93 C 0.94603 0.09642 0.07247 0.0
O94 O 0.89653 0.09131 0.05948 0.0
O95 O 0.98962 0.08646 0.07019 0.0
O96 O 0.77745 0.07759 0.03787 0.0
O97 O 0.80412 0.05399 0.07226 0.0
O98 O 0.81609 0.69661 0.96297 0.0
Cd99 Cd 0.80564 0.70166 0.02781 0.0
Cd100 Cd 0.9217 0.69732 0.02804 0.0
O101 O 0.90654 0.7056 0.96502 0.0
O102 O 0.7447 0.71946 0.02987 0.0
O103 O 0.83793 0.72448 0.04397 0.0
C104 C 0.78654 0.73036 0.03558 0.0
C105 C 0.01813 0.69978 0.05325 0.0
C106 C 0.86128 0.70173 0.94336 0.0
C107 C 0.83693 0.66914 0.06061 0.0
O108 O 0.8852 0.67396 0.04472 0.0
O109 O 0.79616 0.67995 0.06573 0.0
O110 O 1.00335 0.68915 0.02296 0.0
O111 O 0.9784 0.70968 0.06899 0.0
O112 O 0.18858 0.84618 0.78523 0.0
Cd113 Cd 0.22822 0.82318 0.76849 0.0
Cd114 Cd 0.11065 0.81813 0.76803 0.0
O115 O 0.10095 0.8392 0.80792 0.0
O116 O 0.31029 0.83126 0.76743 0.0
O117 O 0.28047 0.81096 0.81263 0.0
C118 C 0.3217 0.82086 0.79912 0.0
C119 C 0.06854 0.79122 0.76455 0.0
C120 C 0.14039 0.85044 0.80237 0.0
C121 C 0.16945 0.81882 0.68473 0.0
O122 O 0.12656 0.82489 0.70533 0.0
O123 O 0.21495 0.81436 0.70527 0.0
O124 O 0.03768 0.80499 0.75997 0.0
O125 O 0.12136 0.79289 0.77831 0.0
O126 O 0.15595 0.41973 0.81127 0.0
Cd127 Cd 0.10508 0.43645 0.77514 0.0
Cd128 Cd 0.22209 0.44112 0.74847 0.0
O129 O 0.24824 0.42567 0.7992 0.0
O130 O 0.02842 0.4268 0.79279 0.0
O131 O 0.05197 0.45384 0.80538 0.0
C132 C 0.01483 0.4415 0.80905 0.0
C133 C 0.24351 0.46934 0.7305 0.0
C134 C 0.20941 0.41693 0.81856 0.0
C135 C 0.14202 0.42832 0.68235 0.0
O136 O 0.19404 0.42789 0.69548 0.0
O137 O 0.10176 0.43341 0.70771 0.0
O138 O 0.28167 0.45729 0.72566 0.0
O139 O 0.19545 0.46556 0.75023 0.0
O140 O 0.10775 0.42535 0.36796 0.0
Cd141 Cd 0.15288 0.4418 0.40859 0.0
Cd142 Cd 0.03382 0.44707 0.42685 0.0
O143 O 0.01432 0.43068 0.37598 0.0
O144 O 0.23156 0.43248 0.39543 0.0
O145 O 0.20974 0.4597 0.38435 0.0
C146 C 0.24722 0.44744 0.38195 0.0
C147 C 0.01514 0.47591 0.43841 0.0
C148 C 0.05519 0.42222 0.3583 0.0
C149 C 0.10423 0.43301 0.49837 0.0
O150 O 0.05335 0.43475 0.48344 0.0
O151 O 0.14817 0.43677 0.47506 0.0
O152 O 0.97431 0.46456 0.44185 0.0
O153 O 0.06502 0.47097 0.42355 0.0
O154 O 0.10364 0.84227 0.40041 0.0
Cd155 Cd 0.0714 0.81859 0.41906 0.0
Cd156 Cd 0.18762 0.81505 0.4099 0.0
O157 O 0.1897 0.83704 0.37222 0.0
O158 O 0.98931 0.8258 0.42856 0.0
O159 O 0.01291 0.80609 0.37992 0.0
C160 C 0.97343 0.81551 0.3978 0.0
C161 C 0.21622 0.78693 0.40288 0.0
C162 C 0.14892 0.84752 0.3808 0.0
C163 C 0.14301 0.81472 0.49838 0.0
O164 O 0.18428 0.82019 0.47485 0.0
O165 O 0.09498 0.81046 0.48098 0.0
O166 O 0.25426 0.79916 0.40536 0.0
O167 O 0.16239 0.79109 0.39684 0.0
O168 O 0.93976 0.18324 0.24728 0.0
Cd169 Cd 0.96385 0.19387 0.18966 0.0
Cd170 Cd 0.84494 0.1891 0.17071 0.0
O171 O 0.84735 0.18963 0.2386 0.0
O172 O 0.02468 0.2109 0.20514 0.0
O173 O 0.93648 0.21804 0.18206 0.0
C174 C 0.98575 0.22263 0.19882 0.0
C175 C 0.75258 0.19243 0.1384 0.0
C176 C 0.8894 0.18507 0.26301 0.0
C177 C 0.94367 0.16665 0.12907 0.0
O178 O 0.89141 0.1702 0.13867 0.0
O179 O 0.98491 0.17608 0.14263 0.0
O180 O 0.76669 0.17897 0.16044 0.0
O181 O 0.7902 0.20467 0.13575 0.0
O182 O 0.84883 0.58929 0.23929 0.0
Cd183 Cd 0.82356 0.5754 0.18668 0.0
Cd184 Cd 0.94298 0.58037 0.16553 0.0
O185 O 0.9413 0.58271 0.23321 0.0
O186 O 0.75831 0.56124 0.20921 0.0
O187 O 0.84318 0.55036 0.18915 0.0
C188 C 0.79298 0.5482 0.2073 0.0
C189 C 0.03559 0.57644 0.13436 0.0
C190 C 0.89909 0.58842 0.25572 0.0
C191 C 0.84081 0.59967 0.11825 0.0
O192 O 0.89359 0.59726 0.12866 0.0
O193 O 0.80096 0.59038 0.13444 0.0
O194 O 0.02 0.59074 0.15187 0.0
O195 O 0.99924 0.56383 0.1355 0.0
O196 O 0.95939 0.58483 0.46185 0.0
Cd197 Cd 0.96869 0.57315 0.52073 0.0
Cd198 Cd 0.8485 0.57875 0.52735 0.0
O199 O 0.86401 0.58241 0.46127 0.0
O200 O 0.02777 0.55492 0.51218 0.0
O201 O 0.9341 0.54965 0.52277 0.0
C202 C 0.98518 0.54407 0.51242 0.0
C203 C 0.7508 0.57378 0.5468 0.0
C204 C 0.91137 0.58601 0.44197 0.0
C205 C 0.9377 0.59898 0.58428 0.0
O206 O 0.88714 0.5959 0.56972 0.0
O207 O 0.98079 0.59007 0.5718 0.0
O208 O 0.76851 0.58831 0.53188 0.0
O209 O 0.78818 0.56149 0.54956 0.0
O210 O 0.81347 0.1908 0.46595 0.0
Cd211 Cd 0.7939 0.20237 0.52338 0.0
Cd212 Cd 0.91646 0.19755 0.53859 0.0
O213 O 0.90791 0.19497 0.47136 0.0
O214 O 0.72993 0.21849 0.50941 0.0
O215 O 0.81918 0.22684 0.52691 0.0
C216 C 0.76793 0.23068 0.51253 0.0
C217 C 0.01348 0.2004 0.56302 0.0
C218 C 0.86353 0.19071 0.44904 0.0
C219 C 0.81995 0.17693 0.58875 0.0
O220 O 0.87173 0.18037 0.57752 0.0
O221 O 0.77765 0.18549 0.57351 0.0
O222 O 0.99384 0.18646 0.546 0.0
O223 O 0.97851 0.21331 0.56546 0.0
O224 O 0.65347 0.34375 0.82184 0.0
Cd225 Cd 0.69365 0.32645 0.78054 0.0
Cd226 Cd 0.57249 0.32167 0.77226 0.0
O227 O 0.56011 0.33755 0.82495 0.0
O228 O 0.77293 0.33649 0.78512 0.0
O229 O 0.75436 0.30982 0.80494 0.0
C230 C 0.79109 0.32227 0.8016 0.0
C231 C 0.54689 0.29351 0.75861 0.0
C232 C 0.6031 0.34659 0.83702 0.0
C233 C 0.63334 0.33402 0.69494 0.0
O234 O 0.58572 0.33445 0.71545 0.0
O235 O 0.6795 0.32901 0.71387 0.0
O236 O 0.50815 0.30553 0.75937 0.0
O237 O 0.5991 0.29728 0.771 0.0
O238 O 0.67226 0.92368 0.8126 0.0
Cd239 Cd 0.62433 0.94498 0.79427 0.0
Cd240 Cd 0.73822 0.95112 0.77383 0.0
O241 O 0.76334 0.93219 0.81699 0.0
O242 O 0.5463 0.93483 0.80534 0.0
O243 O 0.57431 0.95897 0.83671 0.0
C244 C 0.53503 0.94734 0.83148 0.0
C245 C 0.76241 0.97959 0.76457 0.0
C246 C 0.72499 0.92061 0.82192 0.0
C247 C 0.65934 0.94484 0.7015 0.0
O248 O 0.71 0.94178 0.71544 0.0
O249 O 0.61953 0.94929 0.72789 0.0
O250 O 0.79973 0.96757 0.75662 0.0
O251 O 0.71439 0.97542 0.78387 0.0
O252 O 0.6034 0.91805 0.40935 0.0
Cd253 Cd 0.64845 0.94032 0.42403 0.0
Cd254 Cd 0.53408 0.94598 0.44326 0.0
O255 O 0.51154 0.92559 0.40362 0.0
O256 O 0.72795 0.93119 0.41315 0.0
O257 O 0.69466 0.95406 0.37866 0.0
C258 C 0.7361 0.94319 0.38484 0.0
C259 C 0.50703 0.97444 0.44668 0.0
C260 C 0.55104 0.91426 0.4006 0.0
C261 C 0.61353 0.94234 0.51668 0.0
O262 O 0.56301 0.9387 0.50334 0.0
O263 O 0.6532 0.94624 0.48957 0.0
O264 O 0.47078 0.96238 0.45686 0.0
O265 O 0.55567 0.97012 0.42857 0.0
O266 O 0.61571 0.34967 0.38351 0.0
Cd267 Cd 0.5752 0.331 0.42058 0.0
Cd268 Cd 0.69545 0.32612 0.42869 0.0
O269 O 0.70901 0.34354 0.37946 0.0
O270 O 0.49527 0.34057 0.41591 0.0
O271 O 0.51695 0.31463 0.39197 0.0
C272 C 0.47906 0.3267 0.39653 0.0
C273 C 0.72061 0.29764 0.43716 0.0
C274 C 0.66624 0.353 0.36925 0.0
C275 C 0.63348 0.33627 0.50775 0.0
O276 O 0.6813 0.33722 0.48761 0.0
O277 O 0.58748 0.33178 0.48774 0.0
O278 O 0.75945 0.30964 0.43911 0.0
O279 O 0.66867 0.30178 0.42494 0.0
O280 O 0.45259 0.68514 0.21566 0.0
Cd281 Cd 0.46758 0.69794 0.15904 0.0
Cd282 Cd 0.34824 0.69186 0.14472 0.0
O283 O 0.35741 0.68735 0.21116 0.0
O284 O 0.52682 0.71552 0.17344 0.0
O285 O 0.43502 0.72167 0.15773 0.0
C286 C 0.48529 0.72669 0.17173 0.0
C287 C 0.25189 0.6963 0.12106 0.0
C288 C 0.4029 0.68356 0.23272 0.0
C289 C 0.44494 0.6733 0.09096 0.0
O290 O 0.39283 0.67581 0.1028 0.0
O291 O 0.486 0.68217 0.10704 0.0
O292 O 0.27009 0.6816 0.13454 0.0
O293 O 0.28797 0.70898 0.12181 0.0
O294 O 0.3308 0.07053 0.21978 0.0
Cd295 Cd 0.31103 0.06255 0.15841 0.0
Cd296 Cd 0.43268 0.06541 0.15302 0.0
O297 O 0.42016 0.06052 0.21859 0.0
O298 O 0.23979 0.04875 0.16801 0.0
O299 O 0.32498 0.03745 0.15006 0.0
C300 C 0.27244 0.03531 0.16403 0.0
C301 C 0.5297 0.0627 0.12911 0.0
C302 C 0.37646 0.066 0.23969 0.0
C303 C 0.34616 0.09282 0.11507 0.0
O304 O 0.39488 0.08767 0.12954 0.0
O305 O 0.30262 0.08278 0.1153 0.0
O306 O 0.51334 0.07472 0.15513 0.0
O307 O 0.49133 0.05162 0.11689 0.0
O308 O 0.43026 0.07803 0.4446 0.0
Cd309 Cd 0.4463 0.07229 0.50825 0.0
Cd310 Cd 0.33153 0.07813 0.51346 0.0
O311 O 0.33904 0.07 0.44964 0.0
O312 O 0.51001 0.05536 0.5041 0.0
O313 O 0.41996 0.04865 0.52372 0.0
C314 C 0.471 0.04372 0.51126 0.0
C315 C 0.23952 0.07538 0.54572 0.0
C316 C 0.38341 0.07335 0.42655 0.0
C317 C 0.42261 0.10505 0.54301 0.0
O318 O 0.37255 0.10099 0.52891 0.0
O319 O 0.46183 0.09364 0.54636 0.0
O320 O 0.24999 0.08654 0.51562 0.0
O321 O 0.28105 0.06523 0.55729 0.0
O322 O 0.3274 0.67964 0.43338 0.0
Cd323 Cd 0.30147 0.69185 0.48843 0.0
Cd324 Cd 0.42186 0.68735 0.50979 0.0
O325 O 0.42054 0.6851 0.44215 0.0
O326 O 0.23674 0.707 0.46919 0.0
O327 O 0.32267 0.71677 0.49065 0.0
C328 C 0.27242 0.71975 0.47327 0.0
C329 C 0.51415 0.69214 0.54122 0.0
C330 C 0.37842 0.68019 0.41824 0.0
C331 C 0.32175 0.66647 0.55491 0.0
O332 O 0.37437 0.66976 0.54574 0.0
O333 O 0.2809 0.67531 0.53842 0.0
O334 O 0.50007 0.67773 0.52349 0.0
O335 O 0.47637 0.70437 0.54027 0.0
O336 O 0.60032 0.84298 0.33402 0.0
Cd337 Cd 0.65077 0.82742 0.29456 0.0
Cd338 Cd 0.53364 0.82198 0.26862 0.0
O339 O 0.5083 0.83746 0.31949 0.0
O340 O 0.7276 0.83671 0.31349 0.0
O341 O 0.70599 0.80922 0.31948 0.0
C342 C 0.74273 0.82151 0.32544 0.0
C343 C 0.51381 0.79351 0.25323 0.0
C344 C 0.5467 0.84574 0.3406 0.0
C345 C 0.61099 0.8371 0.20272 0.0
O346 O 0.55885 0.83507 0.21452 0.0
O347 O 0.65258 0.83326 0.22836 0.0
O348 O 0.47451 0.80522 0.2483 0.0
O349 O 0.56243 0.79784 0.27147 0.0
O350 O 0.61226 0.42862 0.30265 0.0
Cd351 Cd 0.57456 0.45163 0.28437 0.0
Cd352 Cd 0.69334 0.45599 0.2855 0.0
O353 O 0.7014 0.43446 0.32405 0.0
O354 O 0.49352 0.44283 0.27964 0.0
O355 O 0.51675 0.46388 0.32461 0.0
C356 C 0.47788 0.45351 0.30951 0.0
C357 C 0.73022 0.48342 0.28775 0.0
C358 C 0.6603 0.42374 0.3189 0.0
C359 C 0.63563 0.45485 0.20043 0.0
O360 O 0.68012 0.45017 0.22158 0.0
O361 O 0.58945 0.45901 0.22047 0.0
O362 O 0.76408 0.47033 0.28242 0.0
O363 O 0.67691 0.48059 0.29896 0.0
O364 O 0.66217 0.42024 0.91339 0.0
Cd365 Cd 0.70097 0.44351 0.92858 0.0
Cd366 Cd 0.58518 0.44849 0.93025 0.0
O367 O 0.57405 0.42709 0.89169 0.0
O368 O 0.78325 0.4357 0.92945 0.0
O369 O 0.75237 0.45577 0.88398 0.0
C370 C 0.79409 0.4461 0.89767 0.0
C371 C 0.55297 0.47641 0.92813 0.0
C372 C 0.61353 0.41588 0.89711 0.0
C373 C 0.64413 0.44865 0.01335 0.0
O374 O 0.59966 0.44284 -0.00595 0.0
O375 O 0.68909 0.45258 -0.0085 0.0
O376 O 0.51705 0.46383 0.93413 0.0
O377 O 0.60543 0.47279 0.91613 0.0
O378 O 0.68011 0.84958 0.89082 0.0
Cd379 Cd 0.62869 0.83298 0.92675 0.0
Cd380 Cd 0.74445 0.8285 0.95581 0.0
O381 O 0.77197 0.84433 0.90635 0.0
O382 O 0.55221 0.84206 0.90667 0.0
O383 O 0.57753 0.81503 0.89643 0.0
C384 C 0.53997 0.82714 0.89104 0.0
C385 C 0.76155 0.7998 0.96996 0.0
C386 C 0.73373 0.85266 0.88525 0.0
C387 C 0.66252 0.84126 0.02072 0.0
O388 O 0.71531 0.84106 0.00945 0.0
O389 O 0.62304 0.83671 -0.00608 0.0
O390 O 0.80131 0.81123 -0.02299 0.0
O391 O 0.71433 0.80458 0.95042 0.0
O392 O 0.45232 0.18847 0.72036 0.0
Cd393 Cd 0.46889 0.20025 0.66268 0.0
Cd394 Cd 0.3463 0.19598 0.65174 0.0
O395 O 0.35838 0.19383 0.71879 0.0
O396 O 0.53409 0.21611 0.67539 0.0
O397 O 0.44421 0.2248 0.66119 0.0
C398 C 0.49623 0.22839 0.67438 0.0
C399 C 0.24866 0.1996 0.62962 0.0
C400 C 0.40363 0.18906 0.73935 0.0
C401 C 0.43833 0.17478 0.59883 0.0
O402 O 0.3875 0.17825 0.61221 0.0
O403 O 0.48165 0.1835 0.61175 0.0
O404 O 0.26738 0.18564 0.6471 0.0
O405 O 0.285 0.21212 0.62555 0.0
O406 O 0.32361 0.5718 0.7133 0.0
Cd407 Cd 0.30505 0.56485 0.65074 0.0
Cd408 Cd 0.42229 0.57057 0.64314 0.0
O409 O 0.41499 0.56391 0.70814 0.0
O410 O 0.24044 0.54832 0.65807 0.0
O411 O 0.32938 0.5408 0.63765 0.0
C412 C 0.27843 0.53635 0.65148 0.0
C413 C 0.51728 0.56921 0.6144 0.0
C414 C 0.37123 0.56785 0.73131 0.0
C415 C 0.32921 0.59688 0.61175 0.0
O416 O 0.37965 0.59285 0.62508 0.0
O417 O 0.28925 0.58561 0.61047 0.0
O418 O 0.50208 0.58049 0.64292 0.0
O419 O 0.47886 0.55813 0.60222 0.0
O420 O 0.43758 0.57775 0.9344 0.0
Cd421 Cd 0.4617 0.57176 -0.00359 0.0
Cd422 Cd 0.34534 0.57683 0.00758 0.0
O423 O 0.3481 0.56862 0.94344 0.0
O424 O 0.53021 0.55693 -0.01368 0.0
O425 O 0.44579 0.54724 0.01126 0.0
C426 C 0.49661 0.54406 -0.00484 0.0
C427 C 0.2553 0.57427 0.04354 0.0
C428 C 0.39002 0.57258 0.91842 0.0
C429 C 0.43781 0.60417 0.03286 0.0
O430 O 0.38702 0.59985 0.02085 0.0
O431 O 0.47796 0.59299 0.03464 0.0
O432 O 0.26393 0.58522 0.0126 0.0
O433 O 0.29755 0.56419 0.05391 0.0
O434 O 0.34128 0.18094 0.94398 0.0
Cd435 Cd 0.3205 0.1912 0.00272 0.0
Cd436 Cd 0.43953 0.18723 0.01682 0.0
O437 O 0.43327 0.18835 0.94911 0.0
O438 O 0.25812 0.20801 -0.01027 0.0
O439 O 0.34742 0.21544 0.00965 0.0
C440 C 0.29706 0.21986 -0.00545 0.0
C441 C 0.53252 0.19152 0.04726 0.0
C442 C 0.39013 0.18344 0.92627 0.0
C443 C 0.34602 0.16355 0.06049 0.0
O444 O 0.39724 0.16744 0.04875 0.0
O445 O 0.30349 0.17304 0.04982 0.0
O446 O 0.51971 0.17816 0.02437 0.0
O447 O 0.49313 0.20317 0.05167 0.0
C448 C 0.08478 0.40116 0.30221 0.0
C449 C 0.04398 0.40625 0.33363 0.0
H450 H 0.12386 0.38037 0.26768 0.0
C451 C 1.00392 0.39405 0.34945 0.0
H452 H 0.11611 0.41029 0.28951 0.0
C453 C 1.00874 0.37664 0.33727 0.0
C454 C 0.05388 0.37137 0.30945 0.0
H455 H 0.97251 0.39762 0.37423 0.0
H456 H 0.98001 0.36723 0.35194 0.0
C457 C 0.08975 0.38394 0.29034 0.0
C458 C 0.20252 0.89102 0.33915 0.0
C459 C 0.15559 0.90164 0.35076 0.0
H460 H 0.23707 0.86528 0.3387 0.0
C461 C 0.10986 0.89466 0.37511 0.0
H462 H 0.23781 0.89608 0.31956 0.0
C463 C 0.1089 0.87722 0.38529 0.0
C464 C 0.15362 0.8662 0.37124 0.0
H465 H 0.073 0.90254 0.38415 0.0
H466 H 0.07177 0.87231 0.40308 0.0
C467 C 0.20153 0.87337 0.34931 0.0
C468 C 0.07487 0.8922 0.84539 0.0
C469 C 0.12025 0.90381 0.83679 0.0
H470 H 0.04582 0.86589 0.84202 0.0
C471 C 0.16885 0.8981 0.81352 0.0
H472 H 0.03741 0.89626 0.8641 0.0
C473 C 0.17412 0.88089 0.80167 0.0
C474 C 0.13097 0.86886 0.81294 0.0
H475 H 0.20458 0.90677 0.80681 0.0
H476 H 0.21332 0.87695 0.78494 0.0
C477 C 0.08021 0.87478 0.83354 0.0
C478 C 0.18633 0.39627 0.87732 0.0
C479 C 0.22377 0.40125 0.84349 0.0
H480 H 0.15248 0.37566 0.91558 0.0
C481 C 0.26356 0.38919 0.8267 0.0
H482 H 0.15534 0.40532 0.89084 0.0
C483 C 0.26156 0.37192 0.84062 0.0
C484 C 0.21951 0.36669 0.87115 0.0
H485 H 0.2924 0.3927 0.80012 0.0
H486 H 0.28976 0.36254 0.82532 0.0
C487 C 0.18418 0.37921 0.89095 0.0
C488 C 0.98785 0.62713 0.59662 0.0
C489 C 0.94518 0.61512 0.609 0.0
H490 H 0.01368 0.65379 0.59659 0.0
C491 C 0.89992 0.62043 0.6364 0.0
H492 H 0.02271 0.62338 0.57486 0.0
C493 C 0.89416 0.63766 0.64793 0.0
C494 C 0.93358 0.65006 0.63241 0.0
H495 H 0.86643 0.61144 0.6463 0.0
H496 H 0.85715 0.64134 0.66766 0.0
C497 C 0.98215 0.64456 0.60839 0.0
C498 C 0.77631 0.13104 0.60888 0.0
C499 C 0.82292 0.12573 0.63529 0.0
H500 H 0.73758 0.15215 0.57382 0.0
C501 C 0.85966 0.13827 0.65363 0.0
H502 H 0.74683 0.12166 0.59493 0.0
C503 C 0.85369 0.15552 0.6425 0.0
C504 C 0.81096 0.16069 0.61263 0.0
H505 H 0.89492 0.13469 0.6753 0.0
H506 H 0.88541 0.16466 0.65465 0.0
C507 C 0.77045 0.14849 0.59745 0.0
C508 C 0.91094 0.14364 0.07932 0.0
C509 C 0.95418 0.15002 0.10719 0.0
H510 H 0.87455 0.12194 0.04719 0.0
C511 C 0.99918 0.13896 0.12067 0.0
H512 H 0.87591 0.15187 0.06827 0.0
C513 C 0.99829 0.12144 0.10874 0.0
C514 C 0.95208 0.11489 0.08366 0.0
H515 H 0.03268 0.14355 0.14267 0.0
H516 H 0.03199 0.11295 0.12071 0.0
C517 C 0.9098 0.12636 0.06784 0.0
C518 C 0.86766 0.62157 0.06348 0.0
C519 C 0.82739 0.61561 0.09427 0.0
H520 H 0.90198 0.64306 0.02893 0.0
C521 C 0.78434 0.62691 0.10976 0.0
H522 H 0.90125 0.61312 0.0511 0.0
C523 C 0.78519 0.64436 0.09758 0.0
C524 C 0.82919 0.65059 0.06995 0.0
H525 H 0.75327 0.62264 0.13407 0.0
H526 H 0.75376 0.65309 0.11175 0.0
C527 C 0.86854 0.63882 0.05143 0.0
C528 C 0.64495 0.38532 0.90147 0.0
C529 C 0.60388 0.39745 0.88705 0.0
H530 H 0.67528 0.35938 0.89817 0.0
C531 C 0.55556 0.39168 0.86304 0.0
H532 H 0.682 0.38917 0.92102 0.0
C533 C 0.55129 0.37432 0.85057 0.0
C534 C 0.59531 0.36262 0.86201 0.0
H535 H 0.52276 0.40068 0.85207 0.0
H536 H 0.51626 0.37039 0.82908 0.0
C537 C 0.64074 0.36814 0.88905 0.0
C538 C 0.78451 0.88098 0.87888 0.0
C539 C 0.74846 0.86827 0.86028 0.0
H540 H 0.80531 0.90804 0.88138 0.0
C541 C 0.71357 0.87254 0.82429 0.0
H542 H 0.81126 0.878 0.90712 0.0
C543 C 0.70953 0.88952 0.81033 0.0
C544 C 0.74044 0.90262 0.83193 0.0
H545 H 0.68545 0.86299 0.80941 0.0
H546 H 0.67937 0.89257 0.78415 0.0
C547 C 0.78062 0.89816 0.86462 0.0
C548 C 0.56898 0.86629 0.39984 0.0
C549 C 0.53186 0.86132 0.36573 0.0
H550 H 0.60367 0.88702 0.43736 0.0
C551 C 0.49269 0.87345 0.34832 0.0
H552 H 0.59947 0.8572 0.41383 0.0
C553 C 0.49546 0.89078 0.36156 0.0
C554 C 0.53762 0.89599 0.39204 0.0
H555 H 0.46408 0.86995 0.32156 0.0
H556 H 0.46809 0.90021 0.34556 0.0
C557 C 0.57192 0.88343 0.41276 0.0
C558 C 0.6286 0.37615 0.32205 0.0
C559 C 0.67428 0.36972 0.34744 0.0
H560 H 0.58833 0.39806 0.29369 0.0
C561 C 0.71933 0.38088 0.36017 0.0
H562 H 0.5933 0.36782 0.31195 0.0
C563 C 0.71619 0.39853 0.35027 0.0
C564 C 0.6679 0.40512 0.32767 0.0
H565 H 0.75459 0.37623 0.38045 0.0
H566 H 0.75007 0.40705 0.36185 0.0
C567 C 0.62542 0.39359 0.31228 0.0
C568 C 0.41062 0.63484 0.02359 0.0
C569 C 0.44898 0.62262 0.04136 0.0
H570 H 0.38125 0.6609 0.02407 0.0
C571 C 0.49496 0.6283 0.06793 0.0
H572 H 0.37574 0.63098 0.00187 0.0
C573 C 0.49854 0.64571 0.08018 0.0
C574 C 0.4563 0.65751 0.06576 0.0
H575 H 0.52563 0.61919 0.0815 0.0
H576 H 0.53093 0.64957 0.104 0.0
C577 C 0.41428 0.65207 0.03561 0.0
C578 C 0.3839 0.13989 0.10604 0.0
C579 C 0.33785 0.14662 0.0815 0.0
H580 H 0.42272 0.11792 0.13502 0.0
C581 C 0.29111 0.13578 0.07043 0.0
H582 H 0.4204 0.14793 0.11516 0.0
C583 C 0.2925 0.1182 0.08164 0.0
C584 C 0.34083 0.11132 0.1037 0.0
H585 H 0.25538 0.14064 0.05097 0.0
H586 H 0.257 0.10993 0.07176 0.0
C587 C 0.38548 0.12255 0.11685 0.0
C588 C 0.39515 0.13583 0.53585 0.0
C589 C 0.43427 0.12346 0.55201 0.0
H590 H 0.36759 0.16206 0.53668 0.0
C591 C 0.48233 0.12902 0.57663 0.0
H592 H 0.35852 0.13213 0.51568 0.0
C593 C 0.48793 0.14646 0.58814 0.0
C594 C 0.44562 0.15845 0.57498 0.0
H595 H 0.51364 0.11981 0.58891 0.0
H596 H 0.52248 0.15028 0.61019 0.0
C597 C 0.40077 0.15308 0.54719 0.0
C598 C 0.35078 0.64488 0.60986 0.0
C599 C 0.3104 0.65024 0.57839 0.0
H600 H 0.38803 0.62392 0.64475 0.0
C601 C 0.26991 0.63827 0.56204 0.0
H602 H 0.38241 0.65385 0.62296 0.0
C603 C 0.27353 0.62082 0.57416 0.0
C604 C 0.3179 0.61528 0.60244 0.0
H605 H 0.23882 0.64207 0.53721 0.0
H606 H 0.24418 0.61159 0.55939 0.0
C607 C 0.35451 0.62765 0.62171 0.0
C608 C 0.39179 0.34088 0.36551 0.0
C609 C 0.42023 0.32559 0.3774 0.0
H610 H 0.31751 0.35243 0.33577 0.0
C611 C 0.3925 0.30973 0.36974 0.0
H612 H 0.41208 0.3533 0.37074 0.0
C613 C 0.33708 0.30927 0.35053 0.0
C614 C 0.30977 0.32463 0.33753 0.0
H615 H 0.41349 0.29775 0.37866 0.0
H616 H 0.31646 0.29695 0.34463 0.0
C617 C 0.33766 0.34039 0.34532 0.0
C618 C 0.8712 0.92809 0.32744 0.0
C619 C 0.89968 0.94359 0.31748 0.0
H620 H 0.79782 0.91595 0.35692 0.0
C621 C 0.87252 0.95928 0.32804 0.0
H622 H 0.89099 0.91578 0.31998 0.0
C623 C 0.81788 0.95935 0.34845 0.0
C624 C 0.79076 0.94374 0.35971 0.0
H625 H 0.89352 0.97142 0.32071 0.0
H626 H 0.79787 0.97153 0.35677 0.0
C627 C 0.81787 0.92816 0.34877 0.0
C628 C 0.44846 0.96312 0.86188 0.0
C629 C 0.47905 0.94771 0.85487 0.0
H630 H 0.36844 0.97464 0.88321 0.0
C631 C 0.45386 0.93206 0.86765 0.0
H632 H 0.46698 0.97535 0.85204 0.0
C633 C 0.39875 0.93168 0.88617 0.0
C634 C 0.36663 0.94691 0.89141 0.0
H635 H 0.47661 0.92001 0.8628 0.0
H636 H 0.38047 0.91928 0.89484 0.0
C637 C 0.39218 0.9627 0.8795 0.0
C638 C 0.87978 0.33632 0.83076 0.0
C639 C 0.85097 0.32109 0.81876 0.0
H640 H 0.95544 0.34776 0.85869 0.0
C641 C 0.87944 0.30523 0.82445 0.0
H642 H 0.85902 0.34875 0.82702 0.0
C643 C 0.93587 0.3047 0.84187 0.0
C644 C 0.96363 0.31999 0.85498 0.0
H645 H 0.85822 0.2933 0.81539 0.0
H646 H 0.95704 0.29237 0.84625 0.0
C647 C 0.93501 0.33576 0.84909 0.0
C648 C 0.64905 0.6802 0.6042 0.0
C649 C 0.67853 0.69596 0.60751 0.0
H650 H 0.57492 0.66671 0.58012 0.0
C651 C 0.65362 0.71076 0.58866 0.0
H652 H 0.66726 0.66856 0.61819 0.0
C653 C 0.59946 0.70976 0.56758 0.0
C654 C 0.57059 0.69387 0.5639 0.0
H655 H 0.67544 0.72308 0.59088 0.0
H656 H 0.58066 0.72132 0.55363 0.0
C657 C 0.59621 0.67912 0.58221 0.0
C658 C 0.10193 0.06035 0.60256 0.0
C659 C 0.07418 0.07617 0.61015 0.0
H660 H 0.17779 0.04766 0.57717 0.0
C661 C 0.10081 0.09145 0.59612 0.0
H662 H 0.08223 0.04842 0.61342 0.0
C663 C 0.15398 0.09098 0.57454 0.0
C664 C 0.18267 0.07527 0.56781 0.0
H665 H 0.08022 0.1038 0.60159 0.0
H666 H 0.17331 0.103 0.56394 0.0
C667 C 0.15649 0.05992 0.58218 0.0
C668 C 0.61854 0.07839 0.10683 0.0
C669 C 0.58973 0.06261 0.11225 0.0
H670 H 0.69558 0.09134 0.08634 0.0
C671 C 0.61899 0.04725 0.1019 0.0
H672 H 0.59703 0.09043 0.11437 0.0
C673 C 0.67658 0.04776 0.08691 0.0
C674 C 0.70468 0.06366 0.08074 0.0
H675 H 0.59771 0.03492 0.10598 0.0
H676 H 0.6986 0.03582 0.0792 0.0
C677 C 0.67495 0.07892 0.09069 0.0
C678 C 0.11032 0.6843 0.06741 0.0
C679 C 0.07803 0.69957 0.07059 0.0
H680 H 0.18978 0.67137 0.08138 0.0
C681 C 0.10356 0.7141 0.09028 0.0
H682 H 0.09182 0.67285 0.05264 0.0
C683 C 0.16083 0.71335 0.106 0.0
C684 C 0.19244 0.69791 0.10341 0.0
H685 H 0.07959 0.72604 0.09304 0.0
H686 H 0.17989 0.72469 0.12091 0.0
C687 C 0.16644 0.68343 0.08407 0.0
C688 C 0.46357 0.83842 0.84148 0.0
C689 C 0.48563 0.82463 0.86609 0.0
H690 H 0.39558 0.84784 0.80049 0.0
C691 C 0.45441 0.80907 0.86744 0.0
H692 H 0.48685 0.85053 0.83965 0.0
C693 C 0.40085 0.80764 0.84565 0.0
C694 C 0.37891 0.82156 0.82114 0.0
H695 H 0.47049 0.79826 0.88633 0.0
H696 H 0.37672 0.79571 0.84795 0.0
C697 C 0.41135 0.83684 0.81885 0.0
C698 C 0.87353 0.45998 0.85286 0.0
C699 C 0.85144 0.44573 0.876 0.0
H700 H 0.94405 0.47004 0.81424 0.0
C701 C 0.88422 0.43051 0.8777 0.0
H702 H 0.84912 0.47186 0.85109 0.0
C703 C 0.93712 0.42935 0.85593 0.0
C704 C 0.95947 0.44351 0.83284 0.0
H705 H 0.8683 0.41928 0.89502 0.0
H706 H 0.96076 0.41731 0.85733 0.0
C707 C 0.92774 0.45896 0.83198 0.0
C708 C 0.38717 0.43726 0.32388 0.0
C709 C 0.4183 0.45274 0.32739 0.0
H710 H 0.30954 0.42351 0.33884 0.0
C711 C 0.39221 0.46688 0.34844 0.0
H712 H 0.40607 0.42609 0.3081 0.0
C713 C 0.3357 0.46549 0.36537 0.0
C714 C 0.30545 0.44979 0.36261 0.0
H715 H 0.41526 0.47898 0.35154 0.0
H716 H 0.3163 0.4765 0.38148 0.0
C717 C 0.33186 0.43575 0.3417 0.0
C718 C 0.82348 0.83206 0.37205 0.0
C719 C 0.7999 0.81882 0.34629 0.0
H720 H 0.89572 0.84116 0.4091 0.0
C721 C 0.83268 0.80381 0.33917 0.0
H722 H 0.79911 0.84373 0.37825 0.0
C723 C 0.8892 0.80247 0.35616 0.0
C724 C 0.91287 0.8159 0.38153 0.0
H725 H 0.81549 0.79345 0.31922 0.0
H726 H 0.91444 0.79104 0.34921 0.0
C727 C 0.87885 0.83054 0.38988 0.0
C728 C 0.66815 0.20842 0.10455 0.0
C729 C 0.69648 0.1929 0.11485 0.0
H730 H 0.59273 0.22026 0.07571 0.0
C731 C 0.67078 0.17726 0.10229 0.0
H732 H 0.68707 0.22066 0.11391 0.0
C733 C 0.61827 0.17706 0.07978 0.0
C734 C 0.58915 0.19246 0.07002 0.0
H735 H 0.69167 0.16508 0.10943 0.0
H736 H 0.59994 0.16471 0.07066 0.0
C737 C 0.6143 0.2082 0.08284 0.0
C738 C 0.16823 0.58969 0.07059 0.0
C739 C 0.19953 0.57425 0.0674 0.0
H740 H 0.09281 0.60242 0.09479 0.0
C741 C 0.17667 0.55924 0.08664 0.0
H742 H 0.18485 0.60148 0.0563 0.0
C743 C 0.12268 0.55969 0.10799 0.0
C744 C 0.09197 0.57527 0.11153 0.0
H745 H 0.19994 0.54716 0.08451 0.0
H746 H 0.10543 0.54798 0.12223 0.0
C747 C 0.11557 0.59024 0.09283 0.0
C748 C 0.66231 0.55598 0.5653 0.0
C749 C 0.69052 0.57202 0.56275 0.0
H750 H 0.58404 0.54246 0.58271 0.0
C751 C 0.66081 0.58686 0.57635 0.0
H752 H 0.68423 0.54434 0.55494 0.0
C753 C 0.60476 0.58574 0.59296 0.0
C754 C 0.57622 0.56981 0.59547 0.0
H755 H 0.68136 0.5994 0.57504 0.0
H756 H 0.58354 0.59746 0.60367 0.0
C757 C 0.6051 0.55491 0.58096 0.0
C758 C 0.10133 0.18527 0.59008 0.0
C759 C 0.07341 0.20089 0.58052 0.0
H760 H 0.17748 0.17273 0.61333 0.0
C761 C 0.10341 0.21643 0.5877 0.0
H762 H 0.07945 0.17306 0.58523 0.0
C763 C 0.16076 0.21622 0.60344 0.0
C764 C 0.18828 0.2005 0.61312 0.0
H765 H 0.08293 0.22866 0.58056 0.0
H766 H 0.18331 0.22831 0.60831 0.0
C767 C 0.15765 0.18508 0.60646 0.0
C768 C 0.95075 0.25278 0.21214 0.0
C769 C 0.99511 0.24044 0.21499 0.0
H770 H 0.92346 0.2785 0.22663 0.0
C771 C 0.0466 0.24483 0.2371 0.0
H772 H 0.9102 0.24977 0.19594 0.0
C773 C 0.0539 0.26124 0.25532 0.0
C774 C 1.0099 0.27367 0.25186 0.0
H775 H 0.08138 0.23556 0.24048 0.0
H776 H 0.09465 0.26429 0.27118 0.0
C777 C 0.95806 0.2692 0.23032 0.0
C778 C 0.27821 0.99003 0.21023 0.0
C779 C 0.22316 0.98835 0.22956 0.0
H780 H 0.33638 1.00589 0.17331 0.0
C781 C 0.18306 1.00182 0.22436 0.0
H782 H 0.30993 0.97981 0.21299 0.0
C783 C 0.19805 0.01673 0.20107 0.0
C784 C 0.25342 0.0185 0.18227 0.0
H785 H 0.14 1.00086 0.23823 0.0
H786 H 0.16657 0.02702 0.19863 0.0
C787 C 0.29312 1.0049 0.18683 0.0
C788 C 0.08211 0.01857 -0.0155 0.0
C789 C 0.0266 0.02167 0.00184 0.0
H790 H 0.13728 1.00127 0.94906 0.0
C791 C 0.98338 0.00912 -0.004 0.0
H792 H 0.11626 0.02805 -0.01204 0.0
C793 C 0.99509 0.99396 -0.02713 0.0
C794 C 0.05044 0.99089 0.95524 0.0
H795 H 0.93993 0.01117 0.00832 0.0
H796 H 0.96074 0.98456 0.96921 0.0
C797 C 0.09396 1.00332 0.96163 0.0
C798 C 0.33065 0.25001 -0.02092 0.0
C799 C 0.28646 0.23755 -0.022 0.0
H800 H 0.3569 0.27562 0.96215 0.0
C801 C 0.234 0.24163 0.95687 0.0
H802 H 0.3719 0.24723 -0.0055 0.0
C803 C 0.22571 0.25782 0.93767 0.0
C804 C 0.26965 0.27035 0.93916 0.0
H805 H 0.1993 0.23227 0.95486 0.0
H806 H 0.18434 0.26062 0.92247 0.0
C807 C 0.32232 0.26622 0.95994 0.0
C808 C 0.06552 0.74479 0.72574 0.0
C809 C 0.01216 0.744 0.70341 0.0
H810 H 0.12466 0.76012 0.76344 0.0
C811 C 0.97647 0.75866 0.70332 0.0
H812 H 0.09378 0.73367 0.727 0.0
C813 C 0.99365 0.77371 0.72501 0.0
C814 C 0.0471 0.77452 0.74721 0.0
H815 H 0.9347 0.75844 0.68709 0.0
H816 H 0.96533 0.78481 0.72368 0.0
C817 C 0.08285 0.75988 0.74727 0.0
C818 C 0.8213 1.00108 0.72229 0.0
C819 C 0.77093 0.9971 0.74623 0.0
H820 H 0.86674 0.01972 0.68354 0.0
C821 C 0.72605 0.0093 0.7479 0.0
H822 H 0.85641 0.99188 0.71978 0.0
C823 C 0.73156 0.02514 0.72641 0.0
C824 C 0.78213 0.02919 0.7028 0.0
H825 H 0.68628 1.00655 0.7654 0.0
H826 H 0.69651 0.03435 0.7291 0.0
C827 C 0.82686 0.01694 0.70088 0.0
C828 C 0.81985 0.77681 0.00743 0.0
C829 C 0.76784 0.78209 -0.01254 0.0
H830 H 0.86626 0.75646 0.03931 0.0
C831 C 0.72053 0.7707 -0.01276 0.0
H832 H 0.8569 0.78537 0.0087 0.0
C833 C 0.72552 0.75426 0.0056 0.0
C834 C 0.77807 0.74876 0.02435 0.0
H835 H 0.67953 0.77445 -0.02719 0.0
H836 H 0.68865 0.74565 0.00368 0.0
C837 C 0.82497 0.76032 0.02554 0.0
C838 C 0.31137 0.50611 0.66632 0.0
C839 C 0.26713 0.51854 0.667 0.0
H840 H 0.3391 0.48101 0.68648 0.0
C841 C 0.21497 0.5146 0.68867 0.0
H842 H 0.35234 0.50878 0.6504 0.0
C843 C 0.20774 0.49878 0.71003 0.0
C844 C 0.25243 0.4865 0.71014 0.0
H845 H 0.18015 0.52392 0.69027 0.0
H846 H 0.16706 0.4962 0.72646 0.0
C847 C 0.30406 0.49027 0.68758 0.0
C848 C 0.0539 0.50502 0.45879 0.0
C849 C 1.00681 0.4936 0.45567 0.0
H850 H 0.08443 0.52968 0.48007 0.0
C851 C 0.95302 0.49868 0.47306 0.0
H852 H 0.09613 0.50146 0.44627 0.0
C853 C 0.94642 0.51483 0.49286 0.0
C854 C 0.99351 0.52626 0.49593 0.0
H855 H 0.91597 0.49013 0.47163 0.0
H856 H 0.90418 0.51842 0.5053 0.0
C857 C 0.04736 0.52114 0.47874 0.0
C858 C 0.30077 0.74972 0.45125 0.0
C859 C 0.25804 0.73689 0.45469 0.0
H860 H 0.32173 0.77533 0.43078 0.0
C861 C 0.20271 0.74018 0.43718 0.0
H862 H 0.34412 0.74753 0.46369 0.0
C863 C 0.18993 0.75611 0.41789 0.0
C864 C 0.23231 0.76909 0.41537 0.0
H865 H 0.16898 0.73049 0.43873 0.0
H866 H 0.14633 0.75841 0.40611 0.0
C867 C 0.28813 0.76559 0.4317 0.0
C868 C 0.70911 0.51439 0.27104 0.0
C869 C 0.74894 0.50073 0.27286 0.0
H870 H 0.69131 0.53993 0.24825 0.0
C871 C 0.80382 0.50295 0.25358 0.0
H872 H 0.66627 0.51307 0.28512 0.0
C873 C 0.81783 0.51825 0.23176 0.0
C874 C 0.77738 0.53171 0.22881 0.0
H875 H 0.83542 0.49265 0.254 0.0
H876 H 0.86031 0.51947 0.217 0.0
C877 C 0.7232 0.52971 0.24932 0.0
C878 C 0.70039 0.25176 0.47693 0.0
C879 C 0.75505 0.24808 0.4951 0.0
H880 H 0.64693 0.27013 0.44358 0.0
C881 C 0.79889 0.2606 0.49236 0.0
H882 H 0.66581 0.24234 0.47802 0.0
C883 C 0.78829 0.27644 0.47201 0.0
C884 C 0.73358 0.28015 0.45398 0.0
H885 H 0.8417 0.25811 0.50549 0.0
H886 H 0.82288 0.28586 0.47099 0.0
C887 C 0.68976 0.26762 0.45664 0.0
C888 C 0.57696 0.26408 0.73342 0.0
C889 C 0.53335 0.27652 0.73891 0.0
H890 H 0.59989 0.23933 0.70789 0.0
C891 C 0.47808 0.27327 0.72124 0.0
H892 H 0.62021 0.26626 0.74609 0.0
C893 C 0.46663 0.25793 0.69875 0.0
C894 C 0.51016 0.24547 0.69341 0.0
H895 H 0.44363 0.28265 0.72438 0.0
H896 H 0.42335 0.25575 0.68615 0.0
C897 C 0.56549 0.24873 0.71097 0.0
C898 C 0.43729 0.01325 0.5008 0.0
C899 C 0.4817 0.0256 0.49813 0.0
H900 H 0.40986 0.98756 0.48579 0.0
C901 C 0.53376 0.0211 0.47707 0.0
H902 H 0.39634 0.01634 0.51622 0.0
C903 C 0.54108 1.00472 0.45881 0.0
C904 C 0.49662 0.99239 0.46132 0.0
H905 H 0.56864 0.03036 0.47385 0.0
H906 H 0.58197 1.00167 0.44324 0.0
C907 C 0.44473 0.99682 0.48272 0.0
C908 C 0.45328 0.77174 0.21319 0.0
C909 C 0.50563 0.77613 0.23407 0.0
H910 H 0.40604 0.75284 0.17646 0.0
C911 C 0.55183 0.76437 0.23277 0.0
H912 H 0.41698 0.78057 0.21319 0.0
C913 C 0.54584 0.74859 0.21111 0.0
C914 C 0.49343 0.74416 0.19037 0.0
H915 H 0.59298 0.76742 0.24803 0.0
H916 H 0.58215 0.73976 0.21119 0.0
C917 C 0.44721 0.75592 0.19166 0.0
C918 C 0.48334 0.49718 0.96222 0.0
C919 C 0.53722 0.49408 0.94216 0.0
H920 H 0.4289 0.51517 -0.00417 0.0
C921 C 0.5785 0.50739 0.9414 0.0
H922 H 0.45078 0.48716 0.96399 0.0
C923 C 0.56619 0.52341 0.96026 0.0
C924 C 0.51239 0.52648 -0.01952 0.0
H925 H 0.62075 0.50537 0.92685 0.0
H926 H 0.59871 0.53345 0.95855 0.0
C927 C 0.47112 0.51317 -0.0188 0.0
C928 C 0.18818 0.32145 0.12156 0.0
C929 C 0.13203 0.32157 0.13908 0.0
H930 H 0.24004 0.32092 0.06357 0.0
C931 C 0.08406 0.32083 0.11073 0.0
H932 H 0.22588 0.32202 0.14273 0.0
C933 C 0.09212 0.32006 0.06552 0.0
C934 C 0.14824 0.32021 0.04796 0.0
H935 H 0.04024 0.32078 0.12343 0.0
H936 H 0.05439 0.31957 0.04437 0.0
C937 C 0.19623 0.32088 0.0763 0.0
C938 C 0.07485 0.93158 0.07011 0.0
C939 C 0.12995 0.9308 0.05056 0.0
H940 H 0.0268 0.93283 0.13005 0.0
C941 C 0.17904 0.92853 0.07693 0.0
H942 H 0.03618 0.93329 0.0504 0.0
C943 C 0.17354 0.92806 0.12234 0.0
C944 C 0.11892 0.93013 0.14211 0.0
H945 H 0.22188 0.9277 0.06258 0.0
H946 H 0.21259 0.92697 0.14189 0.0
C947 C 0.0694 0.93136 0.11565 0.0
C948 C 0.81265 0.70034 0.82509 0.0
C949 C 0.8661 0.70119 0.80343 0.0
H950 H 0.76919 0.69973 0.88709 0.0
C951 C 0.91724 0.70328 0.82786 0.0
H952 H 0.77271 0.69879 0.80681 0.0
C953 C 0.91531 0.70398 0.87334 0.0
C954 C 0.86225 0.70242 0.89528 0.0
H955 H 0.95902 0.70424 0.81183 0.0
H956 H 0.95564 0.70529 0.89127 0.0
C957 C 0.81077 0.70082 0.87086 0.0
C958 C 0.84398 0.0755 0.83493 0.0
C959 C 0.89366 0.0767 0.80853 0.0
H960 H 0.81027 0.0725 0.89975 0.0
C961 C 0.94869 0.07595 0.82791 0.0
H962 H 0.80098 0.07589 0.82067 0.0
C963 C 0.95395 0.07414 0.87319 0.0
C964 C 0.90423 0.07279 0.89951 0.0
H965 H 0.9876 0.07684 0.80817 0.0
H966 H 0.99691 0.07361 0.88749 0.0
C967 C 0.84923 0.07343 0.88008 0.0
C968 C 0.1085 0.81484 0.6187 0.0
C969 C 0.16401 0.81641 0.63728 0.0
H970 H 0.05841 0.81282 0.55999 0.0
C971 C 0.21292 0.81613 0.61017 0.0
H972 H 0.07006 0.81474 0.6391 0.0
C973 C 0.20613 0.81516 0.56475 0.0
C974 C 0.15041 0.81418 0.54612 0.0
H975 H 0.25607 0.81723 0.6239 0.0
H976 H 0.24442 0.81544 0.54422 0.0
C977 C 0.10177 0.81362 0.57349 0.0
C978 C 0.17664 0.42339 0.60607 0.0
C979 C 0.13026 0.42559 0.63543 0.0
H980 H 0.20469 0.42404 0.53931 0.0
C981 C 0.07391 0.42751 0.61884 0.0
H982 H 0.22056 0.42166 0.61783 0.0
C983 C 0.06486 0.42877 0.57373 0.0
C984 C 0.1121 0.42826 0.54467 0.0
H985 H 0.03725 0.42902 0.64067 0.0
H986 H 0.02134 0.43121 0.56196 0.0
C987 C 0.16767 0.42481 0.56105 0.0
C988 C 0.82641 0.18537 0.32942 0.0
C989 C 0.8817 0.18389 0.31077 0.0
H990 H 0.77725 0.18853 0.38815 0.0
C991 C 0.93047 0.18286 0.33834 0.0
H992 H 0.78805 0.18605 0.30897 0.0
C993 C 0.92441 0.18445 0.38359 0.0
C994 C 0.86944 0.18689 0.40206 0.0
H995 H 0.97372 0.18162 0.32494 0.0
H996 H 0.96293 0.18427 0.40394 0.0
C997 C 0.82029 0.18677 0.37475 0.0
C998 C 0.96152 0.58787 0.36975 0.0
C999 C 0.91099 0.58999 0.3949 0.0
H1000 H 0.99753 0.5858 0.30531 0.0
C1001 C 0.85894 0.59435 0.37403 0.0
H1002 H 1.00243 0.58464 0.38513 0.0
C1003 C 0.85632 0.59522 0.3285 0.0
C1004 C 0.90558 0.59148 0.30308 0.0
H1005 H 0.81962 0.59636 0.39274 0.0
H1006 H 0.81477 0.59779 0.31331 0.0
C1007 C 0.95878 0.58854 0.32407 0.0
C1008 C 0.58059 0.33863 0.57871 0.0
C1009 C 0.63306 0.33855 0.55558 0.0
H1010 H 0.53956 0.33752 0.64134 0.0
C1011 C 0.68564 0.33913 0.57888 0.0
H1012 H 0.53945 0.33838 0.56156 0.0
C1013 C 0.6858 0.3385 0.62453 0.0
C1014 C 0.63339 0.33747 0.64757 0.0
H1015 H 0.72686 0.33921 0.56191 0.0
H1016 H 0.72697 0.33817 0.64162 0.0
C1017 C 0.58074 0.33819 0.62439 0.0
C1018 C 0.5793 0.94271 0.59402 0.0
C1019 C 0.62538 0.94254 0.56393 0.0
H1020 H 0.55403 0.94368 0.66144 0.0
C1021 C 0.6826 0.94282 0.57937 0.0
H1022 H 0.5347 0.94256 0.58293 0.0
C1023 C 0.6936 0.94332 0.62427 0.0
C1024 C 0.64752 0.94374 0.65433 0.0
H1025 H 0.71887 0.94265 0.55682 0.0
H1026 H 0.7382 0.94363 0.63534 0.0
C1027 C 0.5903 0.94341 0.6389 0.0
C1028 C 0.44186 0.67925 0.35208 0.0
C1029 C 0.38681 0.67741 0.37096 0.0
H1030 H 0.49027 0.68244 0.29298 0.0
C1031 C 0.3384 0.67491 0.34361 0.0
H1032 H 0.48001 0.68098 0.37235 0.0
C1033 C 0.34415 0.67589 0.29824 0.0
C1034 C 0.39844 0.6792 0.27949 0.0
H1035 H 0.29541 0.67321 0.35717 0.0
H1036 H 0.30564 0.67487 0.27803 0.0
C1037 C 0.44767 0.68007 0.30661 0.0
C1038 C 0.43328 0.06988 0.35491 0.0
C1039 C 0.3815 0.07127 0.37885 0.0
H1040 H 0.47221 0.06688 0.29174 0.0
C1041 C 0.32819 0.07049 0.35691 0.0
H1042 H 0.475 0.07029 0.3712 0.0
C1043 C 0.32667 0.06866 0.31152 0.0
C1044 C 0.37844 0.06736 0.28755 0.0
H1045 H 0.28772 0.0715 0.37471 0.0
H1046 H 0.28495 0.06824 0.29524 0.0
C1047 C 0.43174 0.06782 0.30957 0.0
C1048 C 0.59049 0.84342 0.08134 0.0
C1049 C 0.64821 0.84424 0.06713 0.0
H1050 H 0.53327 0.84074 0.13584 0.0
C1051 C 0.69283 0.84564 0.0984 0.0
H1052 H 0.55515 0.84258 0.058 0.0
C1053 C 0.68039 0.84445 0.143 0.0
C1054 C 0.62313 0.842 0.15702 0.0
H1055 H 0.73778 0.84653 0.08848 0.0
H1056 H 0.71594 0.84452 0.16626 0.0
C1057 C 0.57802 0.84237 0.12598 0.0
C1058 C 0.58853 0.45185 0.08259 0.0
C1059 C 0.64224 0.45119 0.06095 0.0
H1060 H 0.5443 0.4538 0.14401 0.0
C1061 C 0.69355 0.45282 0.08518 0.0
H1062 H 0.54824 0.45085 0.06449 0.0
C1063 C 0.69122 0.45441 0.13066 0.0
C1064 C 0.63753 0.45463 0.15239 0.0
H1065 H 0.73543 0.45245 0.06918 0.0
H1066 H 0.73149 0.45528 0.14883 0.0
C1067 C 0.58618 0.45367 0.12798 0.0
C1068 C 0.34696 0.18322 0.80717 0.0
C1069 C 0.4007 0.18546 0.78659 0.0
H1070 H 0.3016 0.18051 0.86768 0.0
C1071 C 0.45161 0.1853 0.81197 0.0
H1072 H 0.30713 0.18312 0.78833 0.0
C1073 C 0.44852 0.18394 0.8575 0.0
C1074 C 0.39454 0.18252 0.87824 0.0
H1075 H 0.49374 0.18695 0.7969 0.0
H1076 H 0.48821 0.18452 0.87645 0.0
C1077 C 0.34391 0.18166 0.85261 0.0
C1078 C 0.43486 0.57027 0.84469 0.0
C1079 C 0.3847 0.57082 0.87073 0.0
H1080 H 0.46985 0.5687 0.77997 0.0
C1081 C 0.33007 0.56976 0.85079 0.0
H1082 H 0.4776 0.57088 0.85935 0.0
C1083 C 0.32568 0.56863 0.80528 0.0
C1084 C 0.37589 0.5683 0.77924 0.0
H1085 H 0.29081 0.57012 0.87023 0.0
H1086 H 0.28301 0.56806 0.79052 0.0
C1087 C 0.4305 0.56892 0.79932 0.0
loop_
_geom_bond_atom_site_label_1
_geom_bond_atom_site_label_2
_geom_bond_distance
_geom_bond_site_symmetry_2
_ccdc_geom_bond_type
O0 Cd1 2.223 . S
O0 C8 1.315 . S
Cd1 O0 2.223 . S
Cd1 O4 2.297 . S
Cd1 O5 2.439 . S
Cd1 O11 2.240 . S
Cd2 O3 2.240 . S
Cd2 O10 2.223 . S
Cd2 O12 2.297 . S
Cd2 O13 2.439 . S
O3 Cd2 2.240 . S
O3 C8 1.279 . S
O4 Cd1 2.297 . S
O4 C6 1.247 . S
O5 Cd1 2.439 . S
O5 C6 1.208 . S
C6 O4 1.247 . S
C6 O5 1.208 . S
C7 O12 1.247 . S
C7 O13 1.208 . S
C8 O0 1.315 . S
C8 O3 1.279 . S
C9 O10 1.315 . S
C9 O11 1.279 . S
O10 Cd2 2.223 . S
O10 C9 1.315 . S
O11 Cd1 2.240 . S
O11 C9 1.279 . S
O12 Cd2 2.297 . S
O12 C7 1.247 . S
O13 Cd2 2.439 . S
O13 C7 1.208 . S
O14 Cd15 2.223 . S
O14 C22 1.315 . S
Cd15 O14 2.223 . S
Cd15 O18 2.297 1_455 S
Cd15 O19 2.439 . S
Cd15 O25 2.240 . S
Cd16 O17 2.240 . S
Cd16 O24 2.223 . S
Cd16 O26 2.297 . S
Cd16 O27 2.439 . S
O17 Cd16 2.240 . S
O17 C22 1.279 . S
O18 Cd15 2.297 1_655 S
O18 C20 1.247 . S
O19 Cd15 2.439 . S
O19 C20 1.208 1_455 S
C20 O18 1.247 . S
C20 O19 1.208 1_655 S
C21 O26 1.247 . S
C21 O27 1.208 . S
C22 O14 1.315 . S
C22 O17 1.279 . S
C23 O24 1.315 . S
C23 O25 1.279 . S
O24 Cd16 2.223 . S
O24 C23 1.315 . S
O25 Cd15 2.240 . S
O25 C23 1.279 . S
O26 Cd16 2.297 . S
O26 C21 1.247 . S
O27 Cd16 2.439 . S
O27 C21 1.208 . S
O28 Cd29 2.223 . S
O28 C36 1.315 . S
Cd29 O28 2.223 . S
Cd29 O32 2.297 . S
Cd29 O33 2.439 . S
Cd29 O39 2.240 1_556 S
Cd30 O31 2.240 . S
Cd30 O38 2.223 1_556 S
Cd30 O40 2.297 . S
Cd30 O41 2.439 . S
O31 Cd30 2.240 . S
O31 C36 1.279 . S
O32 Cd29 2.297 . S
O32 C34 1.247 . S
O33 Cd29 2.439 . S
O33 C34 1.208 . S
C34 O32 1.247 . S
C34 O33 1.208 . S
C35 O40 1.247 . S
C35 O41 1.208 . S
C36 O28 1.315 . S
C36 O31 1.279 . S
C37 O38 1.315 . S
C37 O39 1.279 . S
O38 Cd30 2.223 1_554 S
O38 C37 1.315 . S
O39 Cd29 2.240 1_554 S
O39 C37 1.279 . S
O40 Cd30 2.297 . S
O40 C35 1.247 . S
O41 Cd30 2.439 . S
O41 C35 1.208 . S
O42 Cd43 2.223 . S
O42 C50 1.315 . S
Cd43 O42 2.223 . S
Cd43 O46 2.297 1_455 S
Cd43 O47 2.439 . S
Cd43 O53 2.240 1_556 S
Cd44 O45 2.240 . S
Cd44 O52 2.223 1_556 S
Cd44 O54 2.297 . S
Cd44 O55 2.439 . S
O45 Cd44 2.240 . S
O45 C50 1.279 . S
O46 Cd43 2.297 1_655 S
O46 C48 1.247 . S
O47 Cd43 2.439 . S
O47 C48 1.208 1_455 S
C48 O46 1.247 . S
C48 O47 1.208 1_655 S
C49 O54 1.247 . S
C49 O55 1.208 . S
C50 O42 1.315 . S
C50 O45 1.279 . S
C51 O52 1.315 . S
C51 O53 1.279 . S
O52 Cd44 2.223 1_554 S
O52 C51 1.315 . S
O53 Cd43 2.240 1_554 S
O53 C51 1.279 . S
O54 Cd44 2.297 . S
O54 C49 1.247 . S
O55 Cd44 2.439 . S
O55 C49 1.208 . S
O56 Cd57 2.223 . S
O56 C64 1.315 . S
Cd57 O56 2.223 . S
Cd57 O60 2.297 . S
Cd57 O61 2.439 . S
Cd57 O67 2.240 . S
Cd58 O59 2.240 . S
Cd58 O66 2.223 . S
Cd58 O68 2.297 . S
Cd58 O69 2.439 . S
O59 Cd58 2.240 . S
O59 C64 1.279 . S
O60 Cd57 2.297 . S
O60 C62 1.247 . S
O61 Cd57 2.439 . S
O61 C62 1.208 . S
C62 O60 1.247 . S
C62 O61 1.208 . S
C63 O68 1.247 . S
C63 O69 1.208 . S
C64 O56 1.315 . S
C64 O59 1.279 . S
C65 O66 1.315 . S
C65 O67 1.279 . S
O66 Cd58 2.223 . S
O66 C65 1.315 . S
O67 Cd57 2.240 . S
O67 C65 1.279 . S
O68 Cd58 2.297 . S
O68 C63 1.247 . S
O69 Cd58 2.439 . S
O69 C63 1.208 . S
O70 Cd71 2.223 . S
O70 C78 1.315 . S
Cd71 O70 2.223 . S
Cd71 O74 2.297 . S
Cd71 O75 2.439 . S
Cd71 O81 2.240 . S
Cd72 O73 2.240 . S
Cd72 O80 2.223 . S
Cd72 O82 2.297 1_655 S
Cd72 O83 2.439 . S
O73 Cd72 2.240 . S
O73 C78 1.279 . S
O74 Cd71 2.297 . S
O74 C76 1.247 . S
O75 Cd71 2.439 . S
O75 C76 1.208 . S
C76 O74 1.247 . S
C76 O75 1.208 . S
C77 O82 1.247 . S
C77 O83 1.208 1_455 S
C78 O70 1.315 . S
C78 O73 1.279 . S
C79 O80 1.315 . S
C79 O81 1.279 . S
O80 Cd72 2.223 . S
O80 C79 1.315 . S
O81 Cd71 2.240 . S
O81 C79 1.279 . S
O82 Cd72 2.297 1_455 S
O82 C77 1.247 . S
O83 Cd72 2.439 . S
O83 C77 1.208 1_655 S
O84 Cd85 2.223 1_556 S
O84 C92 1.315 . S
Cd85 O84 2.223 1_554 S
Cd85 O88 2.297 . S
Cd85 O89 2.439 . S
Cd85 O95 2.240 . S
Cd86 O87 2.240 1_554 S
Cd86 O94 2.223 . S
Cd86 O96 2.297 . S
Cd86 O97 2.439 . S
O87 Cd86 2.240 1_556 S
O87 C92 1.279 . S
O88 Cd85 2.297 . S
O88 C90 1.247 . S
O89 Cd85 2.439 . S
O89 C90 1.208 . S
C90 O88 1.247 . S
C90 O89 1.208 . S
C91 O96 1.247 . S
C91 O97 1.208 . S
C92 O84 1.315 . S
C92 O87 1.279 . S
C93 O94 1.315 . S
C93 O95 1.279 . S
O94 Cd86 2.223 . S
O94 C93 1.315 . S
O95 Cd85 2.240 . S
O95 C93 1.279 . S
O96 Cd86 2.297 . S
O96 C91 1.247 . S
O97 Cd86 2.439 . S
O97 C91 1.208 . S
O98 Cd99 2.223 1_556 S
O98 C106 1.315 . S
Cd99 O98 2.223 1_554 S
Cd99 O102 2.297 . S
Cd99 O103 2.439 . S
Cd99 O109 2.240 . S
Cd100 O101 2.240 1_554 S
Cd100 O108 2.223 . S
Cd100 O110 2.297 1_655 S
Cd100 O111 2.439 . S
O101 Cd100 2.240 1_556 S
O101 C106 1.279 . S
O102 Cd99 2.297 . S
O102 C104 1.247 . S
O103 Cd99 2.439 . S
O103 C104 1.208 . S
C104 O102 1.247 . S
C104 O103 1.208 . S
C105 O110 1.247 . S
C105 O111 1.208 1_455 S
C106 O98 1.315 . S
C106 O101 1.279 . S
C107 O108 1.315 . S
C107 O109 1.279 . S
O108 Cd100 2.223 . S
O108 C107 1.315 . S
O109 Cd99 2.240 . S
O109 C107 1.279 . S
O110 Cd100 2.297 1_455 S
O110 C105 1.247 . S
O111 Cd100 2.439 . S
O111 C105 1.208 1_655 S
O112 Cd113 2.223 . S
O112 C120 1.315 . S
Cd113 O112 2.223 . S
Cd113 O116 2.297 . S
Cd113 O117 2.439 . S
Cd113 O123 2.240 . S
Cd114 O115 2.240 . S
Cd114 O122 2.223 . S
Cd114 O124 2.297 . S
Cd114 O125 2.439 . S
O115 Cd114 2.240 . S
O115 C120 1.279 . S
O116 Cd113 2.297 . S
O116 C118 1.247 . S
O117 Cd113 2.439 . S
O117 C118 1.208 . S
C118 O116 1.247 . S
C118 O117 1.208 . S
C119 O124 1.247 . S
C119 O125 1.208 . S
C120 O112 1.315 . S
C120 O115 1.279 . S
C121 O122 1.315 . S
C121 O123 1.279 . S
O122 Cd114 2.223 . S
O122 C121 1.315 . S
O123 Cd113 2.240 . S
O123 C121 1.279 . S
O124 Cd114 2.297 . S
O124 C119 1.247 . S
O125 Cd114 2.439 . S
O125 C119 1.208 . S
O126 Cd127 2.223 . S
O126 C134 1.315 . S
Cd127 O126 2.223 . S
Cd127 O130 2.297 1_455 S
Cd127 O131 2.439 . S
Cd127 O137 2.240 . S
Cd128 O129 2.240 . S
Cd128 O136 2.223 . S
Cd128 O138 2.297 . S
Cd128 O139 2.439 . S
O129 Cd128 2.240 . S
O129 C134 1.279 . S
O130 Cd127 2.297 1_655 S
O130 C132 1.247 . S
O131 Cd127 2.439 . S
O131 C132 1.208 1_455 S
C132 O130 1.247 . S
C132 O131 1.208 1_655 S
C133 O138 1.247 . S
C133 O139 1.208 . S
C134 O126 1.315 . S
C134 O129 1.279 . S
C135 O136 1.315 . S
C135 O137 1.279 . S
O136 Cd128 2.223 . S
O136 C135 1.315 . S
O137 Cd127 2.240 . S
O137 C135 1.279 . S
O138 Cd128 2.297 . S
O138 C133 1.247 . S
O139 Cd128 2.439 . S
O139 C133 1.208 . S
O140 Cd141 2.223 . S
O140 C148 1.315 . S
Cd141 O140 2.223 . S
Cd141 O144 2.297 . S
Cd141 O145 2.439 . S
Cd141 O151 2.240 . S
Cd142 O143 2.240 . S
Cd142 O150 2.223 . S
Cd142 O152 2.297 . S
Cd142 O153 2.439 . S
O143 Cd142 2.240 . S
O143 C148 1.279 . S
O144 Cd141 2.297 . S
O144 C146 1.247 . S
O145 Cd141 2.439 . S
O145 C146 1.208 . S
C146 O144 1.247 . S
C146 O145 1.208 . S
C147 O152 1.247 . S
C147 O153 1.208 . S
C148 O140 1.315 . S
C148 O143 1.279 . S
C149 O150 1.315 . S
C149 O151 1.279 . S
O150 Cd142 2.223 . S
O150 C149 1.315 . S
O151 Cd141 2.240 . S
O151 C149 1.279 . S
O152 Cd142 2.297 . S
O152 C147 1.247 . S
O153 Cd142 2.439 . S
O153 C147 1.208 . S
O154 Cd155 2.223 . S
O154 C162 1.315 . S
Cd155 O154 2.223 . S
Cd155 O158 2.297 1_455 S
Cd155 O159 2.439 . S
Cd155 O165 2.240 . S
Cd156 O157 2.240 . S
Cd156 O164 2.223 . S
Cd156 O166 2.297 . S
Cd156 O167 2.439 . S
O157 Cd156 2.240 . S
O157 C162 1.279 . S
O158 Cd155 2.297 1_655 S
O158 C160 1.247 . S
O159 Cd155 2.439 . S
O159 C160 1.208 1_455 S
C160 O158 1.247 . S
C160 O159 1.208 1_655 S
C161 O166 1.247 . S
C161 O167 1.208 . S
C162 O154 1.315 . S
C162 O157 1.279 . S
C163 O164 1.315 . S
C163 O165 1.279 . S
O164 Cd156 2.223 . S
O164 C163 1.315 . S
O165 Cd155 2.240 . S
O165 C163 1.279 . S
O166 Cd156 2.297 . S
O166 C161 1.247 . S
O167 Cd156 2.439 . S
O167 C161 1.208 . S
O168 Cd169 2.223 . S
O168 C176 1.315 . S
Cd169 O168 2.223 . S
Cd169 O172 2.297 . S
Cd169 O173 2.439 . S
Cd169 O179 2.240 . S
Cd170 O171 2.240 . S
Cd170 O178 2.223 . S
Cd170 O180 2.297 . S
Cd170 O181 2.439 . S
O171 Cd170 2.240 . S
O171 C176 1.279 . S
O172 Cd169 2.297 . S
O172 C174 1.247 . S
O173 Cd169 2.439 . S
O173 C174 1.208 . S
C174 O172 1.247 . S
C174 O173 1.208 . S
C175 O180 1.247 . S
C175 O181 1.208 . S
C176 O168 1.315 . S
C176 O171 1.279 . S
C177 O178 1.315 . S
C177 O179 1.279 . S
O178 Cd170 2.223 . S
O178 C177 1.315 . S
O179 Cd169 2.240 . S
O179 C177 1.279 . S
O180 Cd170 2.297 . S
O180 C175 1.247 . S
O181 Cd170 2.439 . S
O181 C175 1.208 . S
O182 Cd183 2.223 . S
O182 C190 1.315 . S
Cd183 O182 2.223 . S
Cd183 O186 2.297 . S
Cd183 O187 2.439 . S
Cd183 O193 2.240 . S
Cd184 O185 2.240 . S
Cd184 O192 2.223 . S
Cd184 O194 2.297 1_655 S
Cd184 O195 2.439 . S
O185 Cd184 2.240 . S
O185 C190 1.279 . S
O186 Cd183 2.297 . S
O186 C188 1.247 . S
O187 Cd183 2.439 . S
O187 C188 1.208 . S
C188 O186 1.247 . S
C188 O187 1.208 . S
C189 O194 1.247 . S
C189 O195 1.208 1_455 S
C190 O182 1.315 . S
C190 O185 1.279 . S
C191 O192 1.315 . S
C191 O193 1.279 . S
O192 Cd184 2.223 . S
O192 C191 1.315 . S
O193 Cd183 2.240 . S
O193 C191 1.279 . S
O194 Cd184 2.297 1_455 S
O194 C189 1.247 . S
O195 Cd184 2.439 . S
O195 C189 1.208 1_655 S
O196 Cd197 2.223 . S
O196 C204 1.315 . S
Cd197 O196 2.223 . S
Cd197 O200 2.297 . S
Cd197 O201 2.439 . S
Cd197 O207 2.240 . S
Cd198 O199 2.240 . S
Cd198 O206 2.223 . S
Cd198 O208 2.297 . S
Cd198 O209 2.439 . S
O199 Cd198 2.240 . S
O199 C204 1.279 . S
O200 Cd197 2.297 . S
O200 C202 1.247 . S
O201 Cd197 2.439 . S
O201 C202 1.208 . S
C202 O200 1.247 . S
C202 O201 1.208 . S
C203 O208 1.247 . S
C203 O209 1.208 . S
C204 O196 1.315 . S
C204 O199 1.279 . S
C205 O206 1.315 . S
C205 O207 1.279 . S
O206 Cd198 2.223 . S
O206 C205 1.315 . S
O207 Cd197 2.240 . S
O207 C205 1.279 . S
O208 Cd198 2.297 . S
O208 C203 1.247 . S
O209 Cd198 2.439 . S
O209 C203 1.208 . S
O210 Cd211 2.223 . S
O210 C218 1.315 . S
Cd211 O210 2.223 . S
Cd211 O214 2.297 . S
Cd211 O215 2.439 . S
Cd211 O221 2.240 . S
Cd212 O213 2.240 . S
Cd212 O220 2.223 . S
Cd212 O222 2.297 1_655 S
Cd212 O223 2.439 . S
O213 Cd212 2.240 . S
O213 C218 1.279 . S
O214 Cd211 2.297 . S
O214 C216 1.247 . S
O215 Cd211 2.439 . S
O215 C216 1.208 . S
C216 O214 1.247 . S
C216 O215 1.208 . S
C217 O222 1.247 . S
C217 O223 1.208 1_455 S
C218 O210 1.315 . S
C218 O213 1.279 . S
C219 O220 1.315 . S
C219 O221 1.279 . S
O220 Cd212 2.223 . S
O220 C219 1.315 . S
O221 Cd211 2.240 . S
O221 C219 1.279 . S
O222 Cd212 2.297 1_455 S
O222 C217 1.247 . S
O223 Cd212 2.439 . S
O223 C217 1.208 1_655 S
O224 Cd225 2.223 . S
O224 C232 1.315 . S
Cd225 O224 2.223 . S
Cd225 O228 2.297 . S
Cd225 O229 2.439 . S
Cd225 O235 2.240 . S
Cd226 O227 2.240 . S
Cd226 O234 2.223 . S
Cd226 O236 2.297 . S
Cd226 O237 2.439 . S
O227 Cd226 2.240 . S
O227 C232 1.279 . S
O228 Cd225 2.297 . S
O228 C230 1.247 . S
O229 Cd225 2.439 . S
O229 C230 1.208 . S
C230 O228 1.247 . S
C230 O229 1.208 . S
C231 O236 1.247 . S
C231 O237 1.208 . S
C232 O224 1.315 . S
C232 O227 1.279 . S
C233 O234 1.315 . S
C233 O235 1.279 . S
O234 Cd226 2.223 . S
O234 C233 1.315 . S
O235 Cd225 2.240 . S
O235 C233 1.279 . S
O236 Cd226 2.297 . S
O236 C231 1.247 . S
O237 Cd226 2.439 . S
O237 C231 1.208 . S
O238 Cd239 2.223 . S
O238 C246 1.315 . S
Cd239 O238 2.223 . S
Cd239 O242 2.297 . S
Cd239 O243 2.439 . S
Cd239 O249 2.240 . S
Cd240 O241 2.240 . S
Cd240 O248 2.223 . S
Cd240 O250 2.297 . S
Cd240 O251 2.439 . S
O241 Cd240 2.240 . S
O241 C246 1.279 . S
O242 Cd239 2.297 . S
O242 C244 1.247 . S
O243 Cd239 2.439 . S
O243 C244 1.208 . S
C244 O242 1.247 . S
C244 O243 1.208 . S
C245 O250 1.247 . S
C245 O251 1.208 . S
C246 O238 1.315 . S
C246 O241 1.279 . S
C247 O248 1.315 . S
C247 O249 1.279 . S
O248 Cd240 2.223 . S
O248 C247 1.315 . S
O249 Cd239 2.240 . S
O249 C247 1.279 . S
O250 Cd240 2.297 . S
O250 C245 1.247 . S
O251 Cd240 2.439 . S
O251 C245 1.208 . S
O252 Cd253 2.223 . S
O252 C260 1.315 . S
Cd253 O252 2.223 . S
Cd253 O256 2.297 . S
Cd253 O257 2.439 . S
Cd253 O263 2.240 . S
Cd254 O255 2.240 . S
Cd254 O262 2.223 . S
Cd254 O264 2.297 . S
Cd254 O265 2.439 . S
O255 Cd254 2.240 . S
O255 C260 1.279 . S
O256 Cd253 2.297 . S
O256 C258 1.247 . S
O257 Cd253 2.439 . S
O257 C258 1.208 . S
C258 O256 1.247 . S
C258 O257 1.208 . S
C259 O264 1.247 . S
C259 O265 1.208 . S
C260 O252 1.315 . S
C260 O255 1.279 . S
C261 O262 1.315 . S
C261 O263 1.279 . S
O262 Cd254 2.223 . S
O262 C261 1.315 . S
O263 Cd253 2.240 . S
O263 C261 1.279 . S
O264 Cd254 2.297 . S
O264 C259 1.247 . S
O265 Cd254 2.439 . S
O265 C259 1.208 . S
O266 Cd267 2.223 . S
O266 C274 1.315 . S
Cd267 O266 2.223 . S
Cd267 O270 2.297 . S
Cd267 O271 2.439 . S
Cd267 O277 2.240 . S
Cd268 O269 2.240 . S
Cd268 O276 2.223 . S
Cd268 O278 2.297 . S
Cd268 O279 2.439 . S
O269 Cd268 2.240 . S
O269 C274 1.279 . S
O270 Cd267 2.297 . S
O270 C272 1.247 . S
O271 Cd267 2.439 . S
O271 C272 1.208 . S
C272 O270 1.247 . S
C272 O271 1.208 . S
C273 O278 1.247 . S
C273 O279 1.208 . S
C274 O266 1.315 . S
C274 O269 1.279 . S
C275 O276 1.315 . S
C275 O277 1.279 . S
O276 Cd268 2.223 . S
O276 C275 1.315 . S
O277 Cd267 2.240 . S
O277 C275 1.279 . S
O278 Cd268 2.297 . S
O278 C273 1.247 . S
O279 Cd268 2.439 . S
O279 C273 1.208 . S
O280 Cd281 2.223 . S
O280 C288 1.315 . S
Cd281 O280 2.223 . S
Cd281 O284 2.297 . S
Cd281 O285 2.439 . S
Cd281 O291 2.240 . S
Cd282 O283 2.240 . S
Cd282 O290 2.223 . S
Cd282 O292 2.297 . S
Cd282 O293 2.439 . S
O283 Cd282 2.240 . S
O283 C288 1.279 . S
O284 Cd281 2.297 . S
O284 C286 1.247 . S
O285 Cd281 2.439 . S
O285 C286 1.208 . S
C286 O284 1.247 . S
C286 O285 1.208 . S
C287 O292 1.247 . S
C287 O293 1.208 . S
C288 O280 1.315 . S
C288 O283 1.279 . S
C289 O290 1.315 . S
C289 O291 1.279 . S
O290 Cd282 2.223 . S
O290 C289 1.315 . S
O291 Cd281 2.240 . S
O291 C289 1.279 . S
O292 Cd282 2.297 . S
O292 C287 1.247 . S
O293 Cd282 2.439 . S
O293 C287 1.208 . S
O294 Cd295 2.223 . S
O294 C302 1.315 . S
Cd295 O294 2.223 . S
Cd295 O298 2.297 . S
Cd295 O299 2.439 . S
Cd295 O305 2.240 . S
Cd296 O297 2.240 . S
Cd296 O304 2.223 . S
Cd296 O306 2.297 . S
Cd296 O307 2.439 . S
O297 Cd296 2.240 . S
O297 C302 1.279 . S
O298 Cd295 2.297 . S
O298 C300 1.247 . S
O299 Cd295 2.439 . S
O299 C300 1.208 . S
C300 O298 1.247 . S
C300 O299 1.208 . S
C301 O306 1.247 . S
C301 O307 1.208 . S
C302 O294 1.315 . S
C302 O297 1.279 . S
C303 O304 1.315 . S
C303 O305 1.279 . S
O304 Cd296 2.223 . S
O304 C303 1.315 . S
O305 Cd295 2.240 . S
O305 C303 1.279 . S
O306 Cd296 2.297 . S
O306 C301 1.247 . S
O307 Cd296 2.439 . S
O307 C301 1.208 . S
O308 Cd309 2.223 . S
O308 C316 1.315 . S
Cd309 O308 2.223 . S
Cd309 O312 2.297 . S
Cd309 O313 2.439 . S
Cd309 O319 2.240 . S
Cd310 O311 2.240 . S
Cd310 O318 2.223 . S
Cd310 O320 2.297 . S
Cd310 O321 2.439 . S
O311 Cd310 2.240 . S
O311 C316 1.279 . S
O312 Cd309 2.297 . S
O312 C314 1.247 . S
O313 Cd309 2.439 . S
O313 C314 1.208 . S
C314 O312 1.247 . S
C314 O313 1.208 . S
C315 O320 1.247 . S
C315 O321 1.208 . S
C316 O308 1.315 . S
C316 O311 1.279 . S
C317 O318 1.315 . S
C317 O319 1.279 . S
O318 Cd310 2.223 . S
O318 C317 1.315 . S
O319 Cd309 2.240 . S
O319 C317 1.279 . S
O320 Cd310 2.297 . S
O320 C315 1.247 . S
O321 Cd310 2.439 . S
O321 C315 1.208 . S
O322 Cd323 2.223 . S
O322 C330 1.315 . S
Cd323 O322 2.223 . S
Cd323 O326 2.297 . S
Cd323 O327 2.439 . S
Cd323 O333 2.240 . S
Cd324 O325 2.240 . S
Cd324 O332 2.223 . S
Cd324 O334 2.297 . S
Cd324 O335 2.439 . S
O325 Cd324 2.240 . S
O325 C330 1.279 . S
O326 Cd323 2.297 . S
O326 C328 1.247 . S
O327 Cd323 2.439 . S
O327 C328 1.208 . S
C328 O326 1.247 . S
C328 O327 1.208 . S
C329 O334 1.247 . S
C329 O335 1.208 . S
C330 O322 1.315 . S
C330 O325 1.279 . S
C331 O332 1.315 . S
C331 O333 1.279 . S
O332 Cd324 2.223 . S
O332 C331 1.315 . S
O333 Cd323 2.240 . S
O333 C331 1.279 . S
O334 Cd324 2.297 . S
O334 C329 1.247 . S
O335 Cd324 2.439 . S
O335 C329 1.208 . S
O336 Cd337 2.223 . S
O336 C344 1.315 . S
Cd337 O336 2.223 . S
Cd337 O340 2.297 . S
Cd337 O341 2.439 . S
Cd337 O347 2.240 . S
Cd338 O339 2.240 . S
Cd338 O346 2.223 . S
Cd338 O348 2.297 . S
Cd338 O349 2.439 . S
O339 Cd338 2.240 . S
O339 C344 1.279 . S
O340 Cd337 2.297 . S
O340 C342 1.247 . S
O341 Cd337 2.439 . S
O341 C342 1.208 . S
C342 O340 1.247 . S
C342 O341 1.208 . S
C343 O348 1.247 . S
C343 O349 1.208 . S
C344 O336 1.315 . S
C344 O339 1.279 . S
C345 O346 1.315 . S
C345 O347 1.279 . S
O346 Cd338 2.223 . S
O346 C345 1.315 . S
O347 Cd337 2.240 . S
O347 C345 1.279 . S
O348 Cd338 2.297 . S
O348 C343 1.247 . S
O349 Cd338 2.439 . S
O349 C343 1.208 . S
O350 Cd351 2.223 . S
O350 C358 1.315 . S
Cd351 O350 2.223 . S
Cd351 O354 2.297 . S
Cd351 O355 2.439 . S
Cd351 O361 2.240 . S
Cd352 O353 2.240 . S
Cd352 O360 2.223 . S
Cd352 O362 2.297 . S
Cd352 O363 2.439 . S
O353 Cd352 2.240 . S
O353 C358 1.279 . S
O354 Cd351 2.297 . S
O354 C356 1.247 . S
O355 Cd351 2.439 . S
O355 C356 1.208 . S
C356 O354 1.247 . S
C356 O355 1.208 . S
C357 O362 1.247 . S
C357 O363 1.208 . S
C358 O350 1.315 . S
C358 O353 1.279 . S
C359 O360 1.315 . S
C359 O361 1.279 . S
O360 Cd352 2.223 . S
O360 C359 1.315 . S
O361 Cd351 2.240 . S
O361 C359 1.279 . S
O362 Cd352 2.297 . S
O362 C357 1.247 . S
O363 Cd352 2.439 . S
O363 C357 1.208 . S
O364 Cd365 2.223 . S
O364 C372 1.315 . S
Cd365 O364 2.223 . S
Cd365 O368 2.297 . S
Cd365 O369 2.439 . S
Cd365 O375 2.240 1_556 S
Cd366 O367 2.240 . S
Cd366 O374 2.223 1_556 S
Cd366 O376 2.297 . S
Cd366 O377 2.439 . S
O367 Cd366 2.240 . S
O367 C372 1.279 . S
O368 Cd365 2.297 . S
O368 C370 1.247 . S
O369 Cd365 2.439 . S
O369 C370 1.208 . S
C370 O368 1.247 . S
C370 O369 1.208 . S
C371 O376 1.247 . S
C371 O377 1.208 . S
C372 O364 1.315 . S
C372 O367 1.279 . S
C373 O374 1.315 . S
C373 O375 1.279 . S
O374 Cd366 2.223 1_554 S
O374 C373 1.315 . S
O375 Cd365 2.240 1_554 S
O375 C373 1.279 . S
O376 Cd366 2.297 . S
O376 C371 1.247 . S
O377 Cd366 2.439 . S
O377 C371 1.208 . S
O378 Cd379 2.223 . S
O378 C386 1.315 . S
Cd379 O378 2.223 . S
Cd379 O382 2.297 . S
Cd379 O383 2.439 . S
Cd379 O389 2.240 1_556 S
Cd380 O381 2.240 . S
Cd380 O388 2.223 1_556 S
Cd380 O390 2.297 . S
Cd380 O391 2.439 . S
O381 Cd380 2.240 . S
O381 C386 1.279 . S
O382 Cd379 2.297 . S
O382 C384 1.247 . S
O383 Cd379 2.439 . S
O383 C384 1.208 . S
C384 O382 1.247 . S
C384 O383 1.208 . S
C385 O390 1.247 . S
C385 O391 1.208 . S
C386 O378 1.315 . S
C386 O381 1.279 . S
C387 O388 1.315 . S
C387 O389 1.279 . S
O388 Cd380 2.223 1_554 S
O388 C387 1.315 . S
O389 Cd379 2.240 1_554 S
O389 C387 1.279 . S
O390 Cd380 2.297 . S
O390 C385 1.247 . S
O391 Cd380 2.439 . S
O391 C385 1.208 . S
O392 Cd393 2.223 . S
O392 C400 1.315 . S
Cd393 O392 2.223 . S
Cd393 O396 2.297 . S
Cd393 O397 2.439 . S
Cd393 O403 2.240 . S
Cd394 O395 2.240 . S
Cd394 O402 2.223 . S
Cd394 O404 2.297 . S
Cd394 O405 2.439 . S
O395 Cd394 2.240 . S
O395 C400 1.279 . S
O396 Cd393 2.297 . S
O396 C398 1.247 . S
O397 Cd393 2.439 . S
O397 C398 1.208 . S
C398 O396 1.247 . S
C398 O397 1.208 . S
C399 O404 1.247 . S
C399 O405 1.208 . S
C400 O392 1.315 . S
C400 O395 1.279 . S
C401 O402 1.315 . S
C401 O403 1.279 . S
O402 Cd394 2.223 . S
O402 C401 1.315 . S
O403 Cd393 2.240 . S
O403 C401 1.279 . S
O404 Cd394 2.297 . S
O404 C399 1.247 . S
O405 Cd394 2.439 . S
O405 C399 1.208 . S
O406 Cd407 2.223 . S
O406 C414 1.315 . S
Cd407 O406 2.223 . S
Cd407 O410 2.297 . S
Cd407 O411 2.439 . S
Cd407 O417 2.240 . S
Cd408 O409 2.240 . S
Cd408 O416 2.223 . S
Cd408 O418 2.297 . S
Cd408 O419 2.439 . S
O409 Cd408 2.240 . S
O409 C414 1.279 . S
O410 Cd407 2.297 . S
O410 C412 1.247 . S
O411 Cd407 2.439 . S
O411 C412 1.208 . S
C412 O410 1.247 . S
C412 O411 1.208 . S
C413 O418 1.247 . S
C413 O419 1.208 . S
C414 O406 1.315 . S
C414 O409 1.279 . S
C415 O416 1.315 . S
C415 O417 1.279 . S
O416 Cd408 2.223 . S
O416 C415 1.315 . S
O417 Cd407 2.240 . S
O417 C415 1.279 . S
O418 Cd408 2.297 . S
O418 C413 1.247 . S
O419 Cd408 2.439 . S
O419 C413 1.208 . S
O420 Cd421 2.223 1_556 S
O420 C428 1.315 . S
Cd421 O420 2.223 1_554 S
Cd421 O424 2.297 . S
Cd421 O425 2.439 . S
Cd421 O431 2.240 . S
Cd422 O423 2.240 1_554 S
Cd422 O430 2.223 . S
Cd422 O432 2.297 . S
Cd422 O433 2.439 . S
O423 Cd422 2.240 1_556 S
O423 C428 1.279 . S
O424 Cd421 2.297 . S
O424 C426 1.247 . S
O425 Cd421 2.439 . S
O425 C426 1.208 . S
C426 O424 1.247 . S
C426 O425 1.208 . S
C427 O432 1.247 . S
C427 O433 1.208 . S
C428 O420 1.315 . S
C428 O423 1.279 . S
C429 O430 1.315 . S
C429 O431 1.279 . S
O430 Cd422 2.223 . S
O430 C429 1.315 . S
O431 Cd421 2.240 . S
O431 C429 1.279 . S
O432 Cd422 2.297 . S
O432 C427 1.247 . S
O433 Cd422 2.439 . S
O433 C427 1.208 . S
O434 Cd435 2.223 1_556 S
O434 C442 1.315 . S
Cd435 O434 2.223 1_554 S
Cd435 O438 2.297 . S
Cd435 O439 2.439 . S
Cd435 O445 2.240 . S
Cd436 O437 2.240 1_554 S
Cd436 O444 2.223 . S
Cd436 O446 2.297 . S
Cd436 O447 2.439 . S
O437 Cd436 2.240 1_556 S
O437 C442 1.279 . S
O438 Cd435 2.297 . S
O438 C440 1.247 . S
O439 Cd435 2.439 . S
O439 C440 1.208 . S
C440 O438 1.247 . S
C440 O439 1.208 . S
C441 O446 1.247 . S
C441 O447 1.208 . S
C442 O434 1.315 . S
C442 O437 1.279 . S
C443 O444 1.315 . S
C443 O445 1.279 . S
O444 Cd436 2.223 . S
O444 C443 1.315 . S
O445 Cd435 2.240 . S
O445 C443 1.279 . S
O446 Cd436 2.297 . S
O446 C441 1.247 . S
O447 Cd436 2.439 . S
O447 C441 1.208 . S
C448 C449 1.387 . S
C448 H452 0.950 . S
C448 C457 1.390 . S
C449 C448 1.387 . S
C449 C451 1.387 . S
H450 C457 0.950 . S
C451 C449 1.387 . S
C451 C453 1.390 . S
C451 H455 0.950 . S
H452 C448 0.950 . S
C453 C451 1.390 . S
C453 C454 1.387 . S
C453 H456 0.950 . S
C454 C453 1.387 . S
C454 C457 1.387 . S
H455 C451 0.950 . S
H456 C453 0.950 . S
C457 C448 1.390 . S
C457 H450 0.950 . S
C457 C454 1.387 . S
C458 C459 1.387 . S
C458 H462 0.950 . S
C458 C467 1.390 . S
C459 C458 1.387 . S
C459 C461 1.387 . S
H460 C467 0.950 . S
C461 C459 1.387 . S
C461 C463 1.390 . S
C461 H465 0.950 . S
H462 C458 0.950 . S
C463 C461 1.390 . S
C463 C464 1.387 . S
C463 H466 0.950 . S
C464 C463 1.387 . S
C464 C467 1.387 . S
H465 C461 0.950 . S
H466 C463 0.950 . S
C467 C458 1.390 . S
C467 H460 0.950 . S
C467 C464 1.387 . S
C468 C469 1.387 . S
C468 H472 0.950 . S
C468 C477 1.390 . S
C469 C468 1.387 . S
C469 C471 1.387 . S
H470 C477 0.950 . S
C471 C469 1.387 . S
C471 C473 1.390 . S
C471 H475 0.950 . S
H472 C468 0.950 . S
C473 C471 1.390 . S
C473 C474 1.387 . S
C473 H476 0.950 . S
C474 C473 1.387 . S
C474 C477 1.387 . S
H475 C471 0.950 . S
H476 C473 0.950 . S
C477 C468 1.390 . S
C477 H470 0.950 . S
C477 C474 1.387 . S
C478 C479 1.387 . S
C478 H482 0.950 . S
C478 C487 1.390 . S
C479 C478 1.387 . S
C479 C481 1.387 . S
H480 C487 0.950 . S
C481 C479 1.387 . S
C481 C483 1.390 . S
C481 H485 0.950 . S
H482 C478 0.950 . S
C483 C481 1.390 . S
C483 C484 1.387 . S
C483 H486 0.950 . S
C484 C483 1.387 . S
C484 C487 1.387 . S
H485 C481 0.950 . S
H486 C483 0.950 . S
C487 C478 1.390 . S
C487 H480 0.950 . S
C487 C484 1.387 . S
C488 C489 1.387 . S
C488 H492 0.950 . S
C488 C497 1.390 . S
C489 C488 1.387 . S
C489 C491 1.387 . S
H490 C497 0.950 . S
C491 C489 1.387 . S
C491 C493 1.390 . S
C491 H495 0.950 . S
H492 C488 0.950 . S
C493 C491 1.390 . S
C493 C494 1.387 . S
C493 H496 0.950 . S
C494 C493 1.387 . S
C494 C497 1.387 . S
H495 C491 0.950 . S
H496 C493 0.950 . S
C497 C488 1.390 . S
C497 H490 0.950 . S
C497 C494 1.387 . S
C498 C499 1.387 . S
C498 H502 0.950 . S
C498 C507 1.390 . S
C499 C498 1.387 . S
C499 C501 1.387 . S
H500 C507 0.950 . S
C501 C499 1.387 . S
C501 C503 1.390 . S
C501 H505 0.950 . S
H502 C498 0.950 . S
C503 C501 1.390 . S
C503 C504 1.387 . S
C503 H506 0.950 . S
C504 C503 1.387 . S
C504 C507 1.387 . S
H505 C501 0.950 . S
H506 C503 0.950 . S
C507 C498 1.390 . S
C507 H500 0.950 . S
C507 C504 1.387 . S
C508 C509 1.387 . S
C508 H512 0.950 . S
C508 C517 1.390 . S
C509 C508 1.387 . S
C509 C511 1.387 . S
H510 C517 0.950 . S
C511 C509 1.387 . S
C511 C513 1.390 . S
C511 H515 0.950 . S
H512 C508 0.950 . S
C513 C511 1.390 . S
C513 C514 1.387 . S
C513 H516 0.950 . S
C514 C513 1.387 . S
C514 C517 1.387 . S
H515 C511 0.950 . S
H516 C513 0.950 . S
C517 C508 1.390 . S
C517 H510 0.950 . S
C517 C514 1.387 . S
C518 C519 1.387 . S
C518 H522 0.950 . S
C518 C527 1.390 . S
C519 C518 1.387 . S
C519 C521 1.387 . S
H520 C527 0.950 . S
C521 C519 1.387 . S
C521 C523 1.390 . S
C521 H525 0.950 . S
H522 C518 0.950 . S
C523 C521 1.390 . S
C523 C524 1.387 . S
C523 H526 0.950 . S
C524 C523 1.387 . S
C524 C527 1.387 . S
H525 C521 0.950 . S
H526 C523 0.950 . S
C527 C518 1.390 . S
C527 H520 0.950 . S
C527 C524 1.387 . S
C528 C529 1.387 . S
C528 H532 0.950 . S
C528 C537 1.390 . S
C529 C528 1.387 . S
C529 C531 1.387 . S
H530 C537 0.950 . S
C531 C529 1.387 . S
C531 C533 1.390 . S
C531 H535 0.950 . S
H532 C528 0.950 . S
C533 C531 1.390 . S
C533 C534 1.387 . S
C533 H536 0.950 . S
C534 C533 1.387 . S
C534 C537 1.387 . S
H535 C531 0.950 . S
H536 C533 0.950 . S
C537 C528 1.390 . S
C537 H530 0.950 . S
C537 C534 1.387 . S
C538 C539 1.387 . S
C538 H542 0.950 . S
C538 C547 1.390 . S
C539 C538 1.387 . S
C539 C541 1.387 . S
H540 C547 0.950 . S
C541 C539 1.387 . S
C541 C543 1.390 . S
C541 H545 0.950 . S
H542 C538 0.950 . S
C543 C541 1.390 . S
C543 C544 1.387 . S
C543 H546 0.950 . S
C544 C543 1.387 . S
C544 C547 1.387 . S
H545 C541 0.950 . S
H546 C543 0.950 . S
C547 C538 1.390 . S
C547 H540 0.950 . S
C547 C544 1.387 . S
C548 C549 1.387 . S
C548 H552 0.950 . S
C548 C557 1.390 . S
C549 C548 1.387 . S
C549 C551 1.387 . S
H550 C557 0.950 . S
C551 C549 1.387 . S
C551 C553 1.390 . S
C551 H555 0.950 . S
H552 C548 0.950 . S
C553 C551 1.390 . S
C553 C554 1.387 . S
C553 H556 0.950 . S
C554 C553 1.387 . S
C554 C557 1.387 . S
H555 C551 0.950 . S
H556 C553 0.950 . S
C557 C548 1.390 . S
C557 H550 0.950 . S
C557 C554 1.387 . S
C558 C559 1.387 . S
C558 H562 0.950 . S
C558 C567 1.390 . S
C559 C558 1.387 . S
C559 C561 1.387 . S
H560 C567 0.950 . S
C561 C559 1.387 . S
C561 C563 1.390 . S
C561 H565 0.950 . S
H562 C558 0.950 . S
C563 C561 1.390 . S
C563 C564 1.387 . S
C563 H566 0.950 . S
C564 C563 1.387 . S
C564 C567 1.387 . S
H565 C561 0.950 . S
H566 C563 0.950 . S
C567 C558 1.390 . S
C567 H560 0.950 . S
C567 C564 1.387 . S
C568 C569 1.387 . S
C568 H572 0.950 . S
C568 C577 1.390 . S
C569 C568 1.387 . S
C569 C571 1.387 . S
H570 C577 0.950 . S
C571 C569 1.387 . S
C571 C573 1.390 . S
C571 H575 0.950 . S
H572 C568 0.950 . S
C573 C571 1.390 . S
C573 C574 1.387 . S
C573 H576 0.950 . S
C574 C573 1.387 . S
C574 C577 1.387 . S
H575 C571 0.950 . S
H576 C573 0.950 . S
C577 C568 1.390 . S
C577 H570 0.950 . S
C577 C574 1.387 . S
C578 C579 1.387 . S
C578 H582 0.950 . S
C578 C587 1.390 . S
C579 C578 1.387 . S
C579 C581 1.387 . S
H580 C587 0.950 . S
C581 C579 1.387 . S
C581 C583 1.390 . S
C581 H585 0.950 . S
H582 C578 0.950 . S
C583 C581 1.390 . S
C583 C584 1.387 . S
C583 H586 0.950 . S
C584 C583 1.387 . S
C584 C587 1.387 . S
H585 C581 0.950 . S
H586 C583 0.950 . S
C587 C578 1.390 . S
C587 H580 0.950 . S
C587 C584 1.387 . S
C588 C589 1.387 . S
C588 H592 0.950 . S
C588 C597 1.390 . S
C589 C588 1.387 . S
C589 C591 1.387 . S
H590 C597 0.950 . S
C591 C589 1.387 . S
C591 C593 1.390 . S
C591 H595 0.950 . S
H592 C588 0.950 . S
C593 C591 1.390 . S
C593 C594 1.387 . S
C593 H596 0.950 . S
C594 C593 1.387 . S
C594 C597 1.387 . S
H595 C591 0.950 . S
H596 C593 0.950 . S
C597 C588 1.390 . S
C597 H590 0.950 . S
C597 C594 1.387 . S
C598 C599 1.387 . S
C598 H602 0.950 . S
C598 C607 1.390 . S
C599 C598 1.387 . S
C599 C601 1.387 . S
H600 C607 0.950 . S
C601 C599 1.387 . S
C601 C603 1.390 . S
C601 H605 0.950 . S
H602 C598 0.950 . S
C603 C601 1.390 . S
C603 C604 1.387 . S
C603 H606 0.950 . S
C604 C603 1.387 . S
C604 C607 1.387 . S
H605 C601 0.950 . S
H606 C603 0.950 . S
C607 C598 1.390 . S
C607 H600 0.950 . S
C607 C604 1.387 . S
C608 C609 1.387 . S
C608 H612 0.950 . S
C608 C617 1.390 . S
C609 C608 1.387 . S
C609 C611 1.387 . S
H610 C617 0.950 . S
C611 C609 1.387 . S
C611 C613 1.390 . S
C611 H615 0.950 . S
H612 C608 0.950 . S
C613 C611 1.390 . S
C613 C614 1.387 . S
C613 H616 0.950 . S
C614 C613 1.387 . S
C614 C617 1.387 . S
H615 C611 0.950 . S
H616 C613 0.950 . S
C617 C608 1.390 . S
C617 H610 0.950 . S
C617 C614 1.387 . S
C618 C619 1.387 . S
C618 H622 0.950 . S
C618 C627 1.390 . S
C619 C618 1.387 . S
C619 C621 1.387 . S
H620 C627 0.950 . S
C621 C619 1.387 . S
C621 C623 1.390 . S
C621 H625 0.950 . S
H622 C618 0.950 . S
C623 C621 1.390 . S
C623 C624 1.387 . S
C623 H626 0.950 . S
C624 C623 1.387 . S
C624 C627 1.387 . S
H625 C621 0.950 . S
H626 C623 0.950 . S
C627 C618 1.390 . S
C627 H620 0.950 . S
C627 C624 1.387 . S
C628 C629 1.387 . S
C628 H632 0.950 . S
C628 C637 1.390 . S
C629 C628 1.387 . S
C629 C631 1.387 . S
H630 C637 0.950 . S
C631 C629 1.387 . S
C631 C633 1.390 . S
C631 H635 0.950 . S
H632 C628 0.950 . S
C633 C631 1.390 . S
C633 C634 1.387 . S
C633 H636 0.950 . S
C634 C633 1.387 . S
C634 C637 1.387 . S
H635 C631 0.950 . S
H636 C633 0.950 . S
C637 C628 1.390 . S
C637 H630 0.950 . S
C637 C634 1.387 . S
C638 C639 1.387 . S
C638 H642 0.950 . S
C638 C647 1.390 . S
C639 C638 1.387 . S
C639 C641 1.387 . S
H640 C647 0.950 . S
C641 C639 1.387 . S
C641 C643 1.390 . S
C641 H645 0.950 . S
H642 C638 0.950 . S
C643 C641 1.390 . S
C643 C644 1.387 . S
C643 H646 0.950 . S
C644 C643 1.387 . S
C644 C647 1.387 . S
H645 C641 0.950 . S
H646 C643 0.950 . S
C647 C638 1.390 . S
C647 H640 0.950 . S
C647 C644 1.387 . S
C648 C649 1.387 . S
C648 H652 0.950 . S
C648 C657 1.390 . S
C649 C648 1.387 . S
C649 C651 1.387 . S
H650 C657 0.950 . S
C651 C649 1.387 . S
C651 C653 1.390 . S
C651 H655 0.950 . S
H652 C648 0.950 . S
C653 C651 1.390 . S
C653 C654 1.387 . S
C653 H656 0.950 . S
C654 C653 1.387 . S
C654 C657 1.387 . S
H655 C651 0.950 . S
H656 C653 0.950 . S
C657 C648 1.390 . S
C657 H650 0.950 . S
C657 C654 1.387 . S
C658 C659 1.387 . S
C658 H662 0.950 . S
C658 C667 1.390 . S
C659 C658 1.387 . S
C659 C661 1.387 . S
H660 C667 0.950 . S
C661 C659 1.387 . S
C661 C663 1.390 . S
C661 H665 0.950 . S
H662 C658 0.950 . S
C663 C661 1.390 . S
C663 C664 1.387 . S
C663 H666 0.950 . S
C664 C663 1.387 . S
C664 C667 1.387 . S
H665 C661 0.950 . S
H666 C663 0.950 . S
C667 C658 1.390 . S
C667 H660 0.950 . S
C667 C664 1.387 . S
C668 C669 1.387 . S
C668 H672 0.950 . S
C668 C677 1.390 . S
C669 C668 1.387 . S
C669 C671 1.387 . S
H670 C677 0.950 . S
C671 C669 1.387 . S
C671 C673 1.390 . S
C671 H675 0.950 . S
H672 C668 0.950 . S
C673 C671 1.390 . S
C673 C674 1.387 . S
C673 H676 0.950 . S
C674 C673 1.387 . S
C674 C677 1.387 . S
H675 C671 0.950 . S
H676 C673 0.950 . S
C677 C668 1.390 . S
C677 H670 0.950 . S
C677 C674 1.387 . S
C678 C679 1.387 . S
C678 H682 0.950 . S
C678 C687 1.390 . S
C679 C678 1.387 . S
C679 C681 1.387 . S
H680 C687 0.950 . S
C681 C679 1.387 . S
C681 C683 1.390 . S
C681 H685 0.950 . S
H682 C678 0.950 . S
C683 C681 1.390 . S
C683 C684 1.387 . S
C683 H686 0.950 . S
C684 C683 1.387 . S
C684 C687 1.387 . S
H685 C681 0.950 . S
H686 C683 0.950 . S
C687 C678 1.390 . S
C687 H680 0.950 . S
C687 C684 1.387 . S
C688 C689 1.387 . S
C688 H692 0.950 . S
C688 C697 1.390 . S
C689 C688 1.387 . S
C689 C691 1.387 . S
H690 C697 0.950 . S
C691 C689 1.387 . S
C691 C693 1.390 . S
C691 H695 0.950 . S
H692 C688 0.950 . S
C693 C691 1.390 . S
C693 C694 1.387 . S
C693 H696 0.950 . S
C694 C693 1.387 . S
C694 C697 1.387 . S
H695 C691 0.950 . S
H696 C693 0.950 . S
C697 C688 1.390 . S
C697 H690 0.950 . S
C697 C694 1.387 . S
C698 C699 1.387 . S
C698 H702 0.950 . S
C698 C707 1.390 . S
C699 C698 1.387 . S
C699 C701 1.387 . S
H700 C707 0.950 . S
C701 C699 1.387 . S
C701 C703 1.390 . S
C701 H705 0.950 . S
H702 C698 0.950 . S
C703 C701 1.390 . S
C703 C704 1.387 . S
C703 H706 0.950 . S
C704 C703 1.387 . S
C704 C707 1.387 . S
H705 C701 0.950 . S
H706 C703 0.950 . S
C707 C698 1.390 . S
C707 H700 0.950 . S
C707 C704 1.387 . S
C708 C709 1.387 . S
C708 H712 0.950 . S
C708 C717 1.390 . S
C709 C708 1.387 . S
C709 C711 1.387 . S
H710 C717 0.950 . S
C711 C709 1.387 . S
C711 C713 1.390 . S
C711 H715 0.950 . S
H712 C708 0.950 . S
C713 C711 1.390 . S
C713 C714 1.387 . S
C713 H716 0.950 . S
C714 C713 1.387 . S
C714 C717 1.387 . S
H715 C711 0.950 . S
H716 C713 0.950 . S
C717 C708 1.390 . S
C717 H710 0.950 . S
C717 C714 1.387 . S
C718 C719 1.387 . S
C718 H722 0.950 . S
C718 C727 1.390 . S
C719 C718 1.387 . S
C719 C721 1.387 . S
H720 C727 0.950 . S
C721 C719 1.387 . S
C721 C723 1.390 . S
C721 H725 0.950 . S
H722 C718 0.950 . S
C723 C721 1.390 . S
C723 C724 1.387 . S
C723 H726 0.950 . S
C724 C723 1.387 . S
C724 C727 1.387 . S
H725 C721 0.950 . S
H726 C723 0.950 . S
C727 C718 1.390 . S
C727 H720 0.950 . S
C727 C724 1.387 . S
C728 C729 1.387 . S
C728 H732 0.950 . S
C728 C737 1.390 . S
C729 C728 1.387 . S
C729 C731 1.387 . S
H730 C737 0.950 . S
C731 C729 1.387 . S
C731 C733 1.390 . S
C731 H735 0.950 . S
H732 C728 0.950 . S
C733 C731 1.390 . S
C733 C734 1.387 . S
C733 H736 0.950 . S
C734 C733 1.387 . S
C734 C737 1.387 . S
H735 C731 0.950 . S
H736 C733 0.950 . S
C737 C728 1.390 . S
C737 H730 0.950 . S
C737 C734 1.387 . S
C738 C739 1.387 . S
C738 H742 0.950 . S
C738 C747 1.390 . S
C739 C738 1.387 . S
C739 C741 1.387 . S
H740 C747 0.950 . S
C741 C739 1.387 . S
C741 C743 1.390 . S
C741 H745 0.950 . S
H742 C738 0.950 . S
C743 C741 1.390 . S
C743 C744 1.387 . S
C743 H746 0.950 . S
C744 C743 1.387 . S
C744 C747 1.387 . S
H745 C741 0.950 . S
H746 C743 0.950 . S
C747 C738 1.390 . S
C747 H740 0.950 . S
C747 C744 1.387 . S
C748 C749 1.387 . S
C748 H752 0.950 . S
C748 C757 1.390 . S
C749 C748 1.387 . S
C749 C751 1.387 . S
H750 C757 0.950 . S
C751 C749 1.387 . S
C751 C753 1.390 . S
C751 H755 0.950 . S
H752 C748 0.950 . S
C753 C751 1.390 . S
C753 C754 1.387 . S
C753 H756 0.950 . S
C754 C753 1.387 . S
C754 C757 1.387 . S
H755 C751 0.950 . S
H756 C753 0.950 . S
C757 C748 1.390 . S
C757 H750 0.950 . S
C757 C754 1.387 . S
C758 C759 1.387 . S
C758 H762 0.950 . S
C758 C767 1.390 . S
C759 C758 1.387 . S
C759 C761 1.387 . S
H760 C767 0.950 . S
C761 C759 1.387 . S
C761 C763 1.390 . S
C761 H765 0.950 . S
H762 C758 0.950 . S
C763 C761 1.390 . S
C763 C764 1.387 . S
C763 H766 0.950 . S
C764 C763 1.387 . S
C764 C767 1.387 . S
H765 C761 0.950 . S
H766 C763 0.950 . S
C767 C758 1.390 . S
C767 H760 0.950 . S
C767 C764 1.387 . S
C768 C769 1.387 . S
C768 H772 0.950 . S
C768 C777 1.390 . S
C769 C768 1.387 . S
C769 C771 1.387 1_655 S
H770 C777 0.950 . S
C771 C769 1.387 1_455 S
C771 C773 1.390 . S
C771 H775 0.950 . S
H772 C768 0.950 . S
C773 C771 1.390 . S
C773 C774 1.387 . S
C773 H776 0.950 . S
C774 C773 1.387 . S
C774 C777 1.387 1_455 S
H775 C771 0.950 . S
H776 C773 0.950 . S
C777 C768 1.390 . S
C777 H770 0.950 . S
C777 C774 1.387 1_655 S
C778 C779 1.387 . S
C778 H782 0.950 . S
C778 C787 1.390 1_565 S
C779 C778 1.387 . S
C779 C781 1.387 . S
H780 C787 0.950 . S
C781 C779 1.387 . S
C781 C783 1.390 1_565 S
C781 H785 0.950 . S
H782 C778 0.950 . S
C783 C781 1.390 1_545 S
C783 C784 1.387 . S
C783 H786 0.950 . S
C784 C783 1.387 . S
C784 C787 1.387 . S
H785 C781 0.950 . S
H786 C783 0.950 . S
C787 C778 1.390 1_545 S
C787 H780 0.950 . S
C787 C784 1.387 . S
C788 C789 1.387 1_455 S
C788 H792 0.950 . S
C788 C797 1.390 1_545 S
C789 C788 1.387 1_655 S
C789 C791 1.387 1_554 S
H790 C797 0.950 . S
C791 C789 1.387 1_556 S
C791 C793 1.390 1_545 S
C791 H795 0.950 . S
H792 C788 0.950 . S
C793 C791 1.390 1_565 S
C793 C794 1.387 1_655 S
C793 H796 0.950 . S
C794 C793 1.387 1_455 S
C794 C797 1.387 1_556 S
H795 C791 0.950 . S
H796 C793 0.950 . S
C797 C788 1.390 1_565 S
C797 H790 0.950 . S
C797 C794 1.387 1_554 S
C798 C799 1.387 . S
C798 H802 0.950 . S
C798 C807 1.390 . S
C799 C798 1.387 . S
C799 C801 1.387 1_554 S
H800 C807 0.950 . S
C801 C799 1.387 1_556 S
C801 C803 1.390 . S
C801 H805 0.950 . S
H802 C798 0.950 . S
C803 C801 1.390 . S
C803 C804 1.387 . S
C803 H806 0.950 . S
C804 C803 1.387 . S
C804 C807 1.387 1_556 S
H805 C801 0.950 . S
H806 C803 0.950 . S
C807 C798 1.390 . S
C807 H800 0.950 . S
C807 C804 1.387 1_554 S
C808 C809 1.387 1_455 S
C808 H812 0.950 . S
C808 C817 1.390 . S
C809 C808 1.387 1_655 S
C809 C811 1.387 . S
H810 C817 0.950 . S
C811 C809 1.387 . S
C811 C813 1.390 . S
C811 H815 0.950 . S
H812 C808 0.950 . S
C813 C811 1.390 . S
C813 C814 1.387 1_655 S
C813 H816 0.950 . S
C814 C813 1.387 1_455 S
C814 C817 1.387 . S
H815 C811 0.950 . S
H816 C813 0.950 . S
C817 C808 1.390 . S
C817 H810 0.950 . S
C817 C814 1.387 . S
C818 C819 1.387 . S
C818 H822 0.950 . S
C818 C827 1.390 . S
C819 C818 1.387 . S
C819 C821 1.387 1_565 S
H820 C827 0.950 . S
C821 C819 1.387 1_545 S
C821 C823 1.390 . S
C821 H825 0.950 . S
H822 C818 0.950 . S
C823 C821 1.390 . S
C823 C824 1.387 . S
C823 H826 0.950 . S
C824 C823 1.387 . S
C824 C827 1.387 1_545 S
H825 C821 0.950 . S
H826 C823 0.950 . S
C827 C818 1.390 . S
C827 H820 0.950 . S
C827 C824 1.387 1_565 S
C828 C829 1.387 . S
C828 H832 0.950 . S
C828 C837 1.390 . S
C829 C828 1.387 . S
C829 C831 1.387 1_556 S
H830 C837 0.950 . S
C831 C829 1.387 1_554 S
C831 C833 1.390 . S
C831 H835 0.950 . S
H832 C828 0.950 . S
C833 C831 1.390 . S
C833 C834 1.387 . S
C833 H836 0.950 . S
C834 C833 1.387 . S
C834 C837 1.387 1_554 S
H835 C831 0.950 . S
H836 C833 0.950 . S
C837 C828 1.390 . S
C837 H830 0.950 . S
C837 C834 1.387 1_556 S
C838 C839 1.387 . S
C838 H842 0.950 . S
C838 C847 1.390 . S
C839 C838 1.387 . S
C839 C841 1.387 . S
H840 C847 0.950 . S
C841 C839 1.387 . S
C841 C843 1.390 . S
C841 H845 0.950 . S
H842 C838 0.950 . S
C843 C841 1.390 . S
C843 C844 1.387 . S
C843 H846 0.950 . S
C844 C843 1.387 . S
C844 C847 1.387 . S
H845 C841 0.950 . S
H846 C843 0.950 . S
C847 C838 1.390 . S
C847 H840 0.950 . S
C847 C844 1.387 . S
C848 C849 1.387 . S
C848 H852 0.950 . S
C848 C857 1.390 . S
C849 C848 1.387 . S
C849 C851 1.387 1_455 S
H850 C857 0.950 . S
C851 C849 1.387 1_655 S
C851 C853 1.390 . S
C851 H855 0.950 . S
H852 C848 0.950 . S
C853 C851 1.390 . S
C853 C854 1.387 . S
C853 H856 0.950 . S
C854 C853 1.387 . S
C854 C857 1.387 1_655 S
H855 C851 0.950 . S
H856 C853 0.950 . S
C857 C848 1.390 . S
C857 H850 0.950 . S
C857 C854 1.387 1_455 S
C858 C859 1.387 . S
C858 H862 0.950 . S
C858 C867 1.390 . S
C859 C858 1.387 . S
C859 C861 1.387 . S
H860 C867 0.950 . S
C861 C859 1.387 . S
C861 C863 1.390 . S
C861 H865 0.950 . S
H862 C858 0.950 . S
C863 C861 1.390 . S
C863 C864 1.387 . S
C863 H866 0.950 . S
C864 C863 1.387 . S
C864 C867 1.387 . S
H865 C861 0.950 . S
H866 C863 0.950 . S
C867 C858 1.390 . S
C867 H860 0.950 . S
C867 C864 1.387 . S
C868 C869 1.387 . S
C868 H872 0.950 . S
C868 C877 1.390 . S
C869 C868 1.387 . S
C869 C871 1.387 . S
H870 C877 0.950 . S
C871 C869 1.387 . S
C871 C873 1.390 . S
C871 H875 0.950 . S
H872 C868 0.950 . S
C873 C871 1.390 . S
C873 C874 1.387 . S
C873 H876 0.950 . S
C874 C873 1.387 . S
C874 C877 1.387 . S
H875 C871 0.950 . S
H876 C873 0.950 . S
C877 C868 1.390 . S
C877 H870 0.950 . S
C877 C874 1.387 . S
C878 C879 1.387 . S
C878 H882 0.950 . S
C878 C887 1.390 . S
C879 C878 1.387 . S
C879 C881 1.387 . S
H880 C887 0.950 . S
C881 C879 1.387 . S
C881 C883 1.390 . S
C881 H885 0.950 . S
H882 C878 0.950 . S
C883 C881 1.390 . S
C883 C884 1.387 . S
C883 H886 0.950 . S
C884 C883 1.387 . S
C884 C887 1.387 . S
H885 C881 0.950 . S
H886 C883 0.950 . S
C887 C878 1.390 . S
C887 H880 0.950 . S
C887 C884 1.387 . S
C888 C889 1.387 . S
C888 H892 0.950 . S
C888 C897 1.390 . S
C889 C888 1.387 . S
C889 C891 1.387 . S
H890 C897 0.950 . S
C891 C889 1.387 . S
C891 C893 1.390 . S
C891 H895 0.950 . S
H892 C888 0.950 . S
C893 C891 1.390 . S
C893 C894 1.387 . S
C893 H896 0.950 . S
C894 C893 1.387 . S
C894 C897 1.387 . S
H895 C891 0.950 . S
H896 C893 0.950 . S
C897 C888 1.390 . S
C897 H890 0.950 . S
C897 C894 1.387 . S
C898 C899 1.387 1_565 S
C898 H902 0.950 . S
C898 C907 1.390 . S
C899 C898 1.387 1_545 S
C899 C901 1.387 . S
H900 C907 0.950 . S
C901 C899 1.387 . S
C901 C903 1.390 . S
C901 H905 0.950 . S
H902 C898 0.950 . S
C903 C901 1.390 . S
C903 C904 1.387 1_545 S
C903 H906 0.950 . S
C904 C903 1.387 1_565 S
C904 C907 1.387 . S
H905 C901 0.950 . S
H906 C903 0.950 . S
C907 C898 1.390 . S
C907 H900 0.950 . S
C907 C904 1.387 . S
C908 C909 1.387 . S
C908 H912 0.950 . S
C908 C917 1.390 . S
C909 C908 1.387 . S
C909 C911 1.387 . S
H910 C917 0.950 . S
C911 C909 1.387 . S
C911 C913 1.390 . S
C911 H915 0.950 . S
H912 C908 0.950 . S
C913 C911 1.390 . S
C913 C914 1.387 . S
C913 H916 0.950 . S
C914 C913 1.387 . S
C914 C917 1.387 . S
H915 C911 0.950 . S
H916 C913 0.950 . S
C917 C908 1.390 . S
C917 H910 0.950 . S
C917 C914 1.387 . S
C918 C919 1.387 1_554 S
C918 H922 0.950 . S
C918 C927 1.390 . S
C919 C918 1.387 1_556 S
C919 C921 1.387 . S
H920 C927 0.950 . S
C921 C919 1.387 . S
C921 C923 1.390 . S
C921 H925 0.950 . S
H922 C918 0.950 . S
C923 C921 1.390 . S
C923 C924 1.387 1_556 S
C923 H926 0.950 . S
C924 C923 1.387 1_554 S
C924 C927 1.387 . S
H925 C921 0.950 . S
H926 C923 0.950 . S
C927 C918 1.390 . S
C927 H920 0.950 . S
C927 C924 1.387 . S
C928 C929 1.387 . S
C928 H932 0.950 . S
C928 C937 1.390 . S
C929 C928 1.387 . S
C929 C931 1.387 . S
H930 C937 0.950 . S
C931 C929 1.387 . S
C931 C933 1.390 . S
C931 H935 0.950 . S
H932 C928 0.950 . S
C933 C931 1.390 . S
C933 C934 1.387 . S
C933 H936 0.950 . S
C934 C933 1.387 . S
C934 C937 1.387 . S
H935 C931 0.950 . S
H936 C933 0.950 . S
C937 C928 1.390 . S
C937 H930 0.950 . S
C937 C934 1.387 . S
C938 C939 1.387 . S
C938 H942 0.950 . S
C938 C947 1.390 . S
C939 C938 1.387 . S
C939 C941 1.387 . S
H940 C947 0.950 . S
C941 C939 1.387 . S
C941 C943 1.390 . S
C941 H945 0.950 . S
H942 C938 0.950 . S
C943 C941 1.390 . S
C943 C944 1.387 . S
C943 H946 0.950 . S
C944 C943 1.387 . S
C944 C947 1.387 . S
H945 C941 0.950 . S
H946 C943 0.950 . S
C947 C938 1.390 . S
C947 H940 0.950 . S
C947 C944 1.387 . S
C948 C949 1.387 . S
C948 H952 0.950 . S
C948 C957 1.390 . S
C949 C948 1.387 . S
C949 C951 1.387 . S
H950 C957 0.950 . S
C951 C949 1.387 . S
C951 C953 1.390 . S
C951 H955 0.950 . S
H952 C948 0.950 . S
C953 C951 1.390 . S
C953 C954 1.387 . S
C953 H956 0.950 . S
C954 C953 1.387 . S
C954 C957 1.387 . S
H955 C951 0.950 . S
H956 C953 0.950 . S
C957 C948 1.390 . S
C957 H950 0.950 . S
C957 C954 1.387 . S
C958 C959 1.387 . S
C958 H962 0.950 . S
C958 C967 1.390 . S
C959 C958 1.387 . S
C959 C961 1.387 . S
H960 C967 0.950 . S
C961 C959 1.387 . S
C961 C963 1.390 . S
C961 H965 0.950 . S
H962 C958 0.950 . S
C963 C961 1.390 . S
C963 C964 1.387 . S
C963 H966 0.950 . S
C964 C963 1.387 . S
C964 C967 1.387 . S
H965 C961 0.950 . S
H966 C963 0.950 . S
C967 C958 1.390 . S
C967 H960 0.950 . S
C967 C964 1.387 . S
C968 C969 1.387 . S
C968 H972 0.950 . S
C968 C977 1.390 . S
C969 C968 1.387 . S
C969 C971 1.387 . S
H970 C977 0.950 . S
C971 C969 1.387 . S
C971 C973 1.390 . S
C971 H975 0.950 . S
H972 C968 0.950 . S
C973 C971 1.390 . S
C973 C974 1.387 . S
C973 H976 0.950 . S
C974 C973 1.387 . S
C974 C977 1.387 . S
H975 C971 0.950 . S
H976 C973 0.950 . S
C977 C968 1.390 . S
C977 H970 0.950 . S
C977 C974 1.387 . S
C978 C979 1.387 . S
C978 H982 0.950 . S
C978 C987 1.390 . S
C979 C978 1.387 . S
C979 C981 1.387 . S
H980 C987 0.950 . S
C981 C979 1.387 . S
C981 C983 1.390 . S
C981 H985 0.950 . S
H982 C978 0.950 . S
C983 C981 1.390 . S
C983 C984 1.387 . S
C983 H986 0.950 . S
C984 C983 1.387 . S
C984 C987 1.387 . S
H985 C981 0.950 . S
H986 C983 0.950 . S
C987 C978 1.390 . S
C987 H980 0.950 . S
C987 C984 1.387 . S
C988 C989 1.387 . S
C988 H992 0.950 . S
C988 C997 1.390 . S
C989 C988 1.387 . S
C989 C991 1.387 . S
H990 C997 0.950 . S
C991 C989 1.387 . S
C991 C993 1.390 . S
C991 H995 0.950 . S
H992 C988 0.950 . S
C993 C991 1.390 . S
C993 C994 1.387 . S
C993 H996 0.950 . S
C994 C993 1.387 . S
C994 C997 1.387 . S
H995 C991 0.950 . S
H996 C993 0.950 . S
C997 C988 1.390 . S
C997 H990 0.950 . S
C997 C994 1.387 . S
C998 C999 1.387 . S
C998 H1002 0.950 . S
C998 C1007 1.390 . S
C999 C998 1.387 . S
C999 C1001 1.387 . S
H1000 C1007 0.950 . S
C1001 C999 1.387 . S
C1001 C1003 1.390 . S
C1001 H1005 0.950 . S
H1002 C998 0.950 . S
C1003 C1001 1.390 . S
C1003 C1004 1.387 . S
C1003 H1006 0.950 . S
C1004 C1003 1.387 . S
C1004 C1007 1.387 . S
H1005 C1001 0.950 . S
H1006 C1003 0.950 . S
C1007 C998 1.390 . S
C1007 H1000 0.950 . S
C1007 C1004 1.387 . S
C1008 C1009 1.387 . S
C1008 H1012 0.950 . S
C1008 C1017 1.390 . S
C1009 C1008 1.387 . S
C1009 C1011 1.387 . S
H1010 C1017 0.950 . S
C1011 C1009 1.387 . S
C1011 C1013 1.390 . S
C1011 H1015 0.950 . S
H1012 C1008 0.950 . S
C1013 C1011 1.390 . S
C1013 C1014 1.387 . S
C1013 H1016 0.950 . S
C1014 C1013 1.387 . S
C1014 C1017 1.387 . S
H1015 C1011 0.950 . S
H1016 C1013 0.950 . S
C1017 C1008 1.390 . S
C1017 H1010 0.950 . S
C1017 C1014 1.387 . S
C1018 C1019 1.387 . S
C1018 H1022 0.950 . S
C1018 C1027 1.390 . S
C1019 C1018 1.387 . S
C1019 C1021 1.387 . S
H1020 C1027 0.950 . S
C1021 C1019 1.387 . S
C1021 C1023 1.390 . S
C1021 H1025 0.950 . S
H1022 C1018 0.950 . S
C1023 C1021 1.390 . S
C1023 C1024 1.387 . S
C1023 H1026 0.950 . S
C1024 C1023 1.387 . S
C1024 C1027 1.387 . S
H1025 C1021 0.950 . S
H1026 C1023 0.950 . S
C1027 C1018 1.390 . S
C1027 H1020 0.950 . S
C1027 C1024 1.387 . S
C1028 C1029 1.387 . S
C1028 H1032 0.950 . S
C1028 C1037 1.390 . S
C1029 C1028 1.387 . S
C1029 C1031 1.387 . S
H1030 C1037 0.950 . S
C1031 C1029 1.387 . S
C1031 C1033 1.390 . S
C1031 H1035 0.950 . S
H1032 C1028 0.950 . S
C1033 C1031 1.390 . S
C1033 C1034 1.387 . S
C1033 H1036 0.950 . S
C1034 C1033 1.387 . S
C1034 C1037 1.387 . S
H1035 C1031 0.950 . S
H1036 C1033 0.950 . S
C1037 C1028 1.390 . S
C1037 H1030 0.950 . S
C1037 C1034 1.387 . S
C1038 C1039 1.387 . S
C1038 H1042 0.950 . S
C1038 C1047 1.390 . S
C1039 C1038 1.387 . S
C1039 C1041 1.387 . S
H1040 C1047 0.950 . S
C1041 C1039 1.387 . S
C1041 C1043 1.390 . S
C1041 H1045 0.950 . S
H1042 C1038 0.950 . S
C1043 C1041 1.390 . S
C1043 C1044 1.387 . S
C1043 H1046 0.950 . S
C1044 C1043 1.387 . S
C1044 C1047 1.387 . S
H1045 C1041 0.950 . S
H1046 C1043 0.950 . S
C1047 C1038 1.390 . S
C1047 H1040 0.950 . S
C1047 C1044 1.387 . S
C1048 C1049 1.387 . S
C1048 H1052 0.950 . S
C1048 C1057 1.390 . S
C1049 C1048 1.387 . S
C1049 C1051 1.387 . S
H1050 C1057 0.950 . S
C1051 C1049 1.387 . S
C1051 C1053 1.390 . S
C1051 H1055 0.950 . S
H1052 C1048 0.950 . S
C1053 C1051 1.390 . S
C1053 C1054 1.387 . S
C1053 H1056 0.950 . S
C1054 C1053 1.387 . S
C1054 C1057 1.387 . S
H1055 C1051 0.950 . S
H1056 C1053 0.950 . S
C1057 C1048 1.390 . S
C1057 H1050 0.950 . S
C1057 C1054 1.387 . S
C1058 C1059 1.387 . S
C1058 H1062 0.950 . S
C1058 C1067 1.390 . S
C1059 C1058 1.387 . S
C1059 C1061 1.387 . S
H1060 C1067 0.950 . S
C1061 C1059 1.387 . S
C1061 C1063 1.390 . S
C1061 H1065 0.950 . S
H1062 C1058 0.950 . S
C1063 C1061 1.390 . S
C1063 C1064 1.387 . S
C1063 H1066 0.950 . S
C1064 C1063 1.387 . S
C1064 C1067 1.387 . S
H1065 C1061 0.950 . S
H1066 C1063 0.950 . S
C1067 C1058 1.390 . S
C1067 H1060 0.950 . S
C1067 C1064 1.387 . S
C1068 C1069 1.387 . S
C1068 H1072 0.950 . S
C1068 C1077 1.390 . S
C1069 C1068 1.387 . S
C1069 C1071 1.387 . S
H1070 C1077 0.950 . S
C1071 C1069 1.387 . S
C1071 C1073 1.390 . S
C1071 H1075 0.950 . S
H1072 C1068 0.950 . S
C1073 C1071 1.390 . S
C1073 C1074 1.387 . S
C1073 H1076 0.950 . S
C1074 C1073 1.387 . S
C1074 C1077 1.387 . S
H1075 C1071 0.950 . S
H1076 C1073 0.950 . S
C1077 C1068 1.390 . S
C1077 H1070 0.950 . S
C1077 C1074 1.387 . S
C1078 C1079 1.387 . S
C1078 H1082 0.950 . S
C1078 C1087 1.390 . S
C1079 C1078 1.387 . S
C1079 C1081 1.387 . S
H1080 C1087 0.950 . S
C1081 C1079 1.387 . S
C1081 C1083 1.390 . S
C1081 H1085 0.950 . S
H1082 C1078 0.950 . S
C1083 C1081 1.390 . S
C1083 C1084 1.387 . S
C1083 H1086 0.950 . S
C1084 C1083 1.387 . S
C1084 C1087 1.387 . S
H1085 C1081 0.950 . S
H1086 C1083 0.950 . S
C1087 C1078 1.390 . S
C1087 H1080 0.950 . S
C1087 C1084 1.387 . S
C449 C148 1.452 . S
C454 C8 1.452 . S
C459 C22 1.454 . S
C464 C162 1.454 . S
C469 C36 1.454 . S
C474 C120 1.454 . S
C479 C134 1.452 . S
C484 C50 1.452 . S
C489 C205 1.452 . S
C494 C65 1.452 . S
C499 C79 1.452 . S
C504 C219 1.452 . S
C509 C177 1.454 . S
C514 C93 1.454 . S
C519 C191 1.453 . S
C524 C107 1.453 . S
C529 C372 1.452 . S
C534 C232 1.452 . S
C539 C386 1.454 . S
C544 C246 1.454 . S
C549 C344 1.452 . S
C554 C260 1.452 . S
C559 C274 1.452 . S
C564 C358 1.452 . S
C569 C429 1.454 . S
C574 C289 1.454 . S
C579 C443 1.453 . S
C584 C303 1.453 . S
C589 C317 1.454 . S
C594 C401 1.454 . S
C599 C331 1.453 . S
C604 C415 1.453 . S
C609 C272 1.365 . S
C614 C6 1.365 . S
C619 C20 1.365 . S
C624 C258 1.365 . S
C629 C244 1.370 . S
C634 C34 1.370 . S
C639 C230 1.365 . S
C644 C48 1.365 . S
C649 C63 1.370 . S
C654 C329 1.370 . S
C659 C77 1.365 . S
C664 C315 1.365 . S
C669 C301 1.370 . S
C674 C91 1.370 . S
C679 C105 1.370 . S
C684 C287 1.370 . S
C689 C384 1.365 . S
C694 C118 1.365 . S
C699 C370 1.370 . S
C704 C132 1.370 . S
C709 C356 1.365 . S
C714 C146 1.365 . S
C719 C342 1.365 . S
C724 C160 1.365 . S
C729 C175 1.365 . S
C734 C441 1.365 . S
C739 C427 1.370 . S
C744 C189 1.370 . S
C749 C203 1.365 . S
C754 C413 1.365 . S
C759 C217 1.370 . S
C764 C399 1.370 . S
C769 C174 1.514 . S
C774 C7 1.514 . S
C779 C21 1.514 . S
C784 C300 1.514 . S
C789 C90 1.511 . S
C794 C35 1.511 . S
C799 C440 1.513 . S
C804 C49 1.513 . S
C809 C62 1.511 . S
C814 C119 1.511 . S
C819 C245 1.512 . S
C824 C76 1.512 . S
C829 C385 1.514 . S
C834 C104 1.514 . S
C839 C412 1.511 . S
C844 C133 1.511 . S
C849 C147 1.511 . S
C854 C202 1.511 . S
C859 C328 1.514 . S
C864 C161 1.514 . S
C869 C357 1.512 . S
C874 C188 1.512 . S
C879 C216 1.512 . S
C884 C273 1.512 . S
C889 C231 1.513 . S
C894 C398 1.513 . S
C899 C314 1.513 . S
C904 C259 1.513 . S
C909 C343 1.512 . S
C914 C286 1.512 . S
C919 C371 1.512 . S
C924 C426 1.512 . S
C929 C9 1.338 . S
C934 C51 1.338 . S
C939 C37 1.339 . S
C944 C23 1.339 . S
C949 C64 1.338 . S
C954 C106 1.338 . S
C959 C78 1.339 . S
C964 C92 1.339 . S
C969 C121 1.338 . S
C974 C163 1.338 . S
C979 C135 1.338 . S
C984 C149 1.338 . S
C989 C176 1.339 . S
C994 C218 1.339 . S
C999 C204 1.338 . S
C1004 C190 1.338 . S
C1009 C275 1.339 . S
C1014 C233 1.339 . S
C1019 C261 1.339 . S
C1024 C247 1.339 . S
C1029 C330 1.339 . S
C1034 C288 1.339 . S
C1039 C316 1.339 . S
C1044 C302 1.339 . S
C1049 C387 1.338 . S
C1054 C345 1.338 . S
C1059 C373 1.339 . S
C1064 C359 1.339 . S
C1069 C400 1.339 . S
C1074 C442 1.339 . S
C1079 C428 1.338 . S
C1084 C414 1.338 . S
