# Generated by pormake.
# Topology und, (4)-cn, num edge types: 1
# Building blocks:
#     Node 0, Type 0, BuildingBlock: CEKHIL_clean_sbu_0, # of connection points: 4
#     Node 1, Type 0, BuildingBlock: CEKHIL_clean_sbu_0, # of connection points: 4
#     Node 2, Type 0, BuildingBlock: CEKHIL_clean_sbu_0, # of connection points: 4
#     Node 3, Type 0, BuildingBlock: CEKHIL_clean_sbu_0, # of connection points: 4
#     Node 4, Type 0, BuildingBlock: CEKHIL_clean_sbu_0, # of connection points: 4
#     Node 5, Type 0, BuildingBlock: CEKHIL_clean_sbu_0, # of connection points: 4
#     Node 6, Type 0, BuildingBlock: CEKHIL_clean_sbu_0, # of connection points: 4
#     Node 7, Type 0, BuildingBlock: CEKHIL_clean_sbu_0, # of connection points: 4
#     Node 8, Type 0, BuildingBlock: CEKHIL_clean_sbu_0, # of connection points: 4
#     Node 9, Type 0, BuildingBlock: CEKHIL_clean_sbu_0, # of connection points: 4
#     Node 10, Type 0, BuildingBlock: CEKHIL_clean_sbu_0, # of connection points: 4
#     Node 11, Type 0, BuildingBlock: CEKHIL_clean_sbu_0, # of connection points: 4
#     Node 12, Type 0, BuildingBlock: CEKHIL_clean_sbu_0, # of connection points: 4
#     Node 13, Type 0, BuildingBlock: CEKHIL_clean_sbu_0, # of connection points: 4
#     Node 14, Type 0, BuildingBlock: CEKHIL_clean_sbu_0, # of connection points: 4
#     Node 15, Type 0, BuildingBlock: CEKHIL_clean_sbu_0, # of connection points: 4
#     Edge 16, Type (0, 0), BuildingBlock: XUDNAN_clean_linker_2, # of connection points: 2
#     Edge 17, Type (0, 0), BuildingBlock: XUDNAN_clean_linker_2, # of connection points: 2
#     Edge 18, Type (0, 0), BuildingBlock: XUDNAN_clean_linker_2, # of connection points: 2
#     Edge 19, Type (0, 0), BuildingBlock: XUDNAN_clean_linker_2, # of connection points: 2
#     Edge 20, Type (0, 0), BuildingBlock: XUDNAN_clean_linker_2, # of connection points: 2
#     Edge 21, Type (0, 0), BuildingBlock: XUDNAN_clean_linker_2, # of connection points: 2
#     Edge 22, Type (0, 0), BuildingBlock: XUDNAN_clean_linker_2, # of connection points: 2
#     Edge 23, Type (0, 0), BuildingBlock: XUDNAN_clean_linker_2, # of connection points: 2
#     Edge 24, Type (0, 0), BuildingBlock: XUDNAN_clean_linker_2, # of connection points: 2
#     Edge 25, Type (0, 0), BuildingBlock: XUDNAN_clean_linker_2, # of connection points: 2
#     Edge 26, Type (0, 0), BuildingBlock: XUDNAN_clean_linker_2, # of connection points: 2
#     Edge 27, Type (0, 0), BuildingBlock: XUDNAN_clean_linker_2, # of connection points: 2
#     Edge 28, Type (0, 0), BuildingBlock: XUDNAN_clean_linker_2, # of connection points: 2
#     Edge 29, Type (0, 0), BuildingBlock: XUDNAN_clean_linker_2, # of connection points: 2
#     Edge 30, Type (0, 0), BuildingBlock: XUDNAN_clean_linker_2, # of connection points: 2
#     Edge 31, Type (0, 0), BuildingBlock: XUDNAN_clean_linker_2, # of connection points: 2
#     Edge 32, Type (0, 0), BuildingBlock: XUDNAN_clean_linker_2, # of connection points: 2
#     Edge 33, Type (0, 0), BuildingBlock: XUDNAN_clean_linker_2, # of connection points: 2
#     Edge 34, Type (0, 0), BuildingBlock: XUDNAN_clean_linker_2, # of connection points: 2
#     Edge 35, Type (0, 0), BuildingBlock: XUDNAN_clean_linker_2, # of connection points: 2
#     Edge 36, Type (0, 0), BuildingBlock: XUDNAN_clean_linker_2, # of connection points: 2
#     Edge 37, Type (0, 0), BuildingBlock: XUDNAN_clean_linker_2, # of connection points: 2
#     Edge 38, Type (0, 0), BuildingBlock: XUDNAN_clean_linker_2, # of connection points: 2
#     Edge 39, Type (0, 0), BuildingBlock: XUDNAN_clean_linker_2, # of connection points: 2
#     Edge 40, Type (0, 0), BuildingBlock: XUDNAN_clean_linker_2, # of connection points: 2
#     Edge 41, Type (0, 0), BuildingBlock: XUDNAN_clean_linker_2, # of connection points: 2
#     Edge 42, Type (0, 0), BuildingBlock: XUDNAN_clean_linker_2, # of connection points: 2
#     Edge 43, Type (0, 0), BuildingBlock: XUDNAN_clean_linker_2, # of connection points: 2
#     Edge 44, Type (0, 0), BuildingBlock: XUDNAN_clean_linker_2, # of connection points: 2
#     Edge 45, Type (0, 0), BuildingBlock: XUDNAN_clean_linker_2, # of connection points: 2
#     Edge 46, Type (0, 0), BuildingBlock: XUDNAN_clean_linker_2, # of connection points: 2
#     Edge 47, Type (0, 0), BuildingBlock: XUDNAN_clean_linker_2, # of connection points: 2
# Relax obj value: 0.006
# Max RMSD: 0.041
# Mean RMSD: 0.041
data_MOF--net-und--node1-CEKHIL_clean_sbu_0--edge1-XUDNAN_clean_linker_2
_symmetry_space_group_name_H-M    P1
_symmetry_Int_Tables_number       1
_symmetry_cell_setting            triclinic
loop_
_symmetry_equiv_pos_as_xyz
'x, y, z'
_cell_length_a     59.252063
_cell_length_b     59.306517
_cell_length_c     21.913261
_cell_angle_alpha  90.010277
_cell_angle_beta   89.945434
_cell_angle_gamma 93.602958
loop_
_atom_site_label
_atom_site_type_symbol
_atom_site_fract_x
_atom_site_fract_y
_atom_site_fract_z
_atom_type_partial_charge
Co0 Co 0.25587 0.35447 0.05733 0.0
O1 O 0.2446 0.37816 0.10712 0.0
O2 O 0.22858 0.36547 0.0218 0.0
C3 C 0.26154 0.33133 0.13701 0.0
O4 O 0.26227 0.32933 0.99565 0.0
Co5 Co 0.30465 0.3392 0.07589 0.0
O6 O 0.29353 0.31291 0.02643 0.0
C7 C 0.29742 0.38113 1.00671 0.0
C8 C 0.22804 0.37889 0.06882 0.0
C9 C 0.2763 0.31352 0.99187 0.0
O10 O 0.27576 0.37736 0.00974 0.0
O11 O 0.31136 0.36874 0.03335 0.0
O12 O 0.24161 0.33179 0.11255 0.0
O13 O 0.27671 0.34566 0.11527 0.0
Co14 Co 0.91739 0.03241 0.24703 0.0
O15 O 0.89428 0.04117 0.19054 0.0
O16 O 0.90364 0.05905 0.2762 0.0
C17 C 0.94326 0.0266 0.17382 0.0
O18 O 0.94072 0.0299 0.31551 0.0
Co19 Co 0.93897 0.98611 0.24579 0.0
O20 O 0.96027 0.99879 0.30834 0.0
C21 C 0.89204 0.98985 0.29128 0.0
C22 C 0.89143 0.05806 0.22691 0.0
C23 C 0.95651 0.01747 0.33384 0.0
O24 O 0.89445 0.01164 0.29172 0.0
O25 O 0.90697 0.9774 0.26936 0.0
O26 O 0.9408 0.04692 0.19399 0.0
O27 O 0.92973 0.01097 0.1966 0.0
Co28 Co 0.25688 0.68842 0.52627 0.0
O29 O 0.26036 0.66787 0.59239 0.0
O30 O 0.28335 0.67063 0.51323 0.0
C31 C 0.25137 0.71772 0.58904 0.0
O32 O 0.25787 0.70899 0.45035 0.0
Co33 Co 0.21151 0.7117 0.51293 0.0
O34 O 0.22958 0.73252 0.45866 0.0
C35 C 0.21474 0.66401 0.47356 0.0
C36 C 0.27841 0.66149 0.56613 0.0
C37 C 0.24744 0.72642 0.43269 0.0
O38 O 0.23627 0.66522 0.48277 0.0
O39 O 0.20208 0.68004 0.48691 0.0
O40 O 0.27175 0.71277 0.57495 0.0
O41 O 0.23539 0.70433 0.56735 0.0
Co42 Co 0.58824 1.00254 0.77493 0.0
O43 O 0.60837 0.99234 0.71247 0.0
O44 O 0.60685 0.9798 0.80753 0.0
C45 C 0.55725 1.00067 0.71512 0.0
O46 O 0.56921 0.00775 0.85137 0.0
Co47 Co 0.56332 0.04634 0.76405 0.0
O48 O 0.54549 0.03523 0.83587 0.0
C49 C 0.61192 0.04883 0.79651 0.0
C50 C 0.61569 0.97874 0.7533 0.0
C51 C 0.55267 0.01945 0.86853 0.0
O52 O 0.61138 0.02716 0.79998 0.0
O53 O 0.59495 0.05954 0.77897 0.0
O54 O 0.56382 0.98275 0.74229 0.0
O55 O 0.57024 0.01885 0.72186 0.0
Co56 Co 0.76793 0.68309 0.00888 0.0
O57 O 0.77595 0.6653 0.94023 0.0
O58 O 0.79165 0.66282 0.031 0.0
C59 C 0.76984 0.71559 0.95497 0.0
O60 O 0.76373 0.70043 0.08927 0.0
Co61 Co 0.72364 0.70766 1.00297 0.0
O62 O 0.7371 0.72518 0.07235 0.0
C63 C 0.72178 0.65897 0.03068 0.0
C64 C 0.791 0.6566 0.97389 0.0
C65 C 0.75257 0.71757 0.10541 0.0
O66 O 0.74347 0.6596 0.03263 0.0
O67 O 0.71053 0.67591 0.01628 0.0
O68 O 0.78776 0.70798 0.97942 0.0
O69 O 0.75152 0.70266 0.96048 0.0
Co70 Co 0.08588 0.01589 0.78435 0.0
O71 O 0.10678 0.00387 0.84111 0.0
O72 O 0.10275 0.99275 0.74526 0.0
C73 C 0.0564 0.0139 0.84962 0.0
O74 O 0.0648 0.0242 0.71396 0.0
Co75 Co 0.06619 0.06157 0.81521 0.0
O76 O 0.04556 0.05342 0.74681 0.0
C77 C 0.11182 0.06152 0.76208 0.0
C78 C 0.11264 0.99059 0.7979 0.0
C79 C 0.04928 0.03839 0.70708 0.0
O80 O 0.10952 0.03987 0.75763 0.0
O81 O 0.09695 0.07333 0.78687 0.0
O82 O 0.06152 0.99638 0.81821 0.0
O83 O 0.07042 0.03143 0.84485 0.0
Co84 Co 0.7359 0.3556 0.5041 0.0
O85 O 0.72572 0.37652 0.44378 0.0
O86 O 0.71298 0.3737 0.53847 0.0
C87 C 0.73361 0.32542 0.4412 0.0
O88 O 0.74125 0.33568 0.57866 0.0
Co89 Co 0.77938 0.33028 0.48956 0.0
O90 O 0.7682 0.31164 0.55968 0.0
C91 C 0.78239 0.37815 0.52994 0.0
C92 C 0.71178 0.38304 0.48492 0.0
C93 C 0.7528 0.31878 0.59382 0.0
O94 O 0.76069 0.37826 0.53109 0.0
O95 O 0.79291 0.36118 0.51153 0.0
O96 O 0.71587 0.33177 0.46967 0.0
O97 O 0.75196 0.33813 0.4487 0.0
Co98 Co 0.42102 0.02275 0.31392 0.0
O99 O 0.39685 0.03284 0.36418 0.0
O100 O 0.40942 0.05006 0.28025 0.0
C101 C 0.44401 0.01634 0.39362 0.0
O102 O 0.4465 0.01773 0.25204 0.0
Co103 Co 0.43745 0.97413 0.32873 0.0
O104 O 0.46353 0.9865 0.28017 0.0
C105 C 0.39562 0.98136 0.25896 0.0
C106 C 0.39571 0.04964 0.32682 0.0
C107 C 0.4626 0.00409 0.2471 0.0
O108 O 0.39876 1.003 0.26403 0.0
O109 O 0.40824 0.96743 0.28481 0.0
O110 O 0.44331 0.0366 0.37133 0.0
O111 O 0.43004 1.00136 0.36979 0.0
Co112 Co 0.7507 0.85161 0.55418 0.0
O113 O 0.74508 0.87378 0.61468 0.0
O114 O 0.72222 0.86581 0.53724 0.0
C115 C 0.75899 0.82551 0.62441 0.0
O116 O 0.75174 0.82798 0.48473 0.0
Co117 Co 0.79894 0.83395 0.54796 0.0
O118 O 0.7827 0.80886 0.50378 0.0
C119 C 0.79023 0.87835 0.49401 0.0
C120 C 0.72619 0.87699 0.58782 0.0
C121 C 0.7641 0.81099 0.47588 0.0
O122 O 0.76889 0.87523 0.50481 0.0
O123 O 0.80482 0.86452 0.51051 0.0
O124 O 0.73819 0.82793 0.60873 0.0
O125 O 0.77377 0.83968 0.6001 0.0
Co126 Co 0.41789 0.53917 0.75905 0.0
O127 O 0.39696 0.54788 0.69708 0.0
O128 O 0.39811 0.56101 0.79163 0.0
C129 C 0.44851 0.5424 0.69772 0.0
O130 O 0.43773 0.53525 0.8346 0.0
Co131 Co 0.44475 0.49659 0.74732 0.0
O132 O 0.4625 0.50879 0.81785 0.0
C133 C 0.39695 0.49199 0.78708 0.0
C134 C 0.38905 0.56125 0.73755 0.0
C135 C 0.45491 0.52428 0.8508 0.0
O136 O 0.39611 0.51361 0.78643 0.0
O137 O 0.41438 0.48192 0.76995 0.0
O138 O 0.44114 0.56 0.72468 0.0
O139 O 0.43645 0.52367 0.70545 0.0
Co140 Co 0.75669 0.18764 0.04393 0.0
O141 O 0.76503 0.16482 0.10032 0.0
O142 O 0.78505 0.17511 0.01879 0.0
C143 C 0.74892 0.21242 0.11853 0.0
O144 O 0.75333 0.2119 0.97743 0.0
Co145 Co 0.7079 0.20447 0.04824 0.0
O146 O 0.72228 0.23005 1.00178 0.0
C147 C 0.71638 0.16127 0.98642 0.0
C148 C 0.78311 0.16291 0.0682 0.0
C149 C 0.74031 0.22846 0.97077 0.0
O150 O 0.73792 0.16432 0.9948 0.0
O151 O 0.70201 0.17458 1.00726 0.0
O152 O 0.76954 0.21103 0.09952 0.0
O153 O 0.73423 0.19809 0.09476 0.0
Co154 Co 0.08843 0.50501 0.24831 0.0
O155 O 0.10672 0.49602 0.18166 0.0
O156 O 0.10832 0.48135 0.27383 0.0
C157 C 0.05627 0.50277 0.19232 0.0
O158 O 0.07039 0.51069 0.32713 0.0
Co159 Co 0.06443 0.5498 0.23119 0.0
O160 O 0.04867 0.53974 0.30672 0.0
C161 C 0.11232 0.55143 0.27011 0.0
C162 C 0.11501 0.48128 0.21706 0.0
C163 C 0.055 0.52428 0.34206 0.0
O164 O 0.11194 0.52971 0.27162 0.0
O165 O 0.09567 0.56238 0.25162 0.0
O166 O 0.06342 0.48502 0.21878 0.0
O167 O 0.06956 0.52078 0.19671 0.0
Co168 Co 0.26871 0.18645 0.51711 0.0
O169 O 0.27375 0.16751 0.44808 0.0
O170 O 0.29175 0.16505 0.53557 0.0
C171 C 0.27086 0.21859 0.46156 0.0
O172 O 0.26812 0.20465 0.59723 0.0
Co173 Co 0.22626 0.21406 0.51956 0.0
O174 O 0.24226 0.2306 0.58667 0.0
C175 C 0.22218 0.1658 0.5542 0.0
C176 C 0.28926 0.15833 0.47916 0.0
C177 C 0.25828 0.22226 0.61613 0.0
O178 O 0.24367 0.1646 0.54761 0.0
O179 O 0.2119 0.18362 0.54195 0.0
O180 O 0.28894 0.21001 0.48215 0.0
O181 O 0.25213 0.20676 0.47135 0.0
Co182 Co 0.58538 0.51947 0.2989 0.0
O183 O 0.60761 0.50972 0.35482 0.0
O184 O 0.59613 0.49037 0.27322 0.0
C185 C 0.561 0.52839 0.37335 0.0
O186 O 0.56147 0.5248 0.23317 0.0
Co187 Co 0.5735 0.56983 0.30573 0.0
O188 O 0.5476 0.55845 0.25479 0.0
C189 C 0.61602 0.5579 0.24762 0.0
C190 C 0.60843 0.49157 0.32255 0.0
C191 C 0.54698 0.53995 0.22491 0.0
O192 O 0.60954 0.53677 0.24934 0.0
O193 O 0.60517 0.57337 0.2731 0.0
O194 O 0.56137 0.50776 0.35389 0.0
O195 O 0.57638 0.54233 0.35078 0.0
Co196 Co 0.24609 0.85916 0.98157 0.0
O197 O 0.24065 0.88035 0.91884 0.0
O198 O 0.22194 0.87903 1.00543 0.0
C199 C 0.24411 0.82945 0.91698 0.0
O200 O 0.24827 0.83708 0.05441 0.0
Co201 Co 0.29074 0.83566 0.96665 0.0
O202 O 0.27531 0.81431 0.02432 0.0
C203 C 0.29213 0.8815 0.01791 0.0
C204 C 0.22453 0.88777 0.95095 0.0
C205 C 0.25926 0.81893 0.06008 0.0
O206 O 0.2704 0.88077 0.01674 0.0
O207 O 0.30362 0.86568 0.9967 0.0
O208 O 0.22615 0.83673 0.94186 0.0
O209 O 0.26261 0.84167 0.9272 0.0
Co210 Co 0.92006 0.52127 0.79071 0.0
O211 O 0.89621 0.53009 0.84464 0.0
O212 O 0.90757 0.54864 0.76158 0.0
C213 C 0.94438 0.51436 0.86664 0.0
O214 O 0.94477 0.51855 0.72567 0.0
Co215 Co 0.93904 0.47378 0.79319 0.0
O216 O 0.96175 0.4858 0.73334 0.0
C217 C 0.89465 0.48013 0.7356 0.0
C218 C 0.89447 0.54744 0.80931 0.0
C219 C 0.9599 0.50506 0.70884 0.0
O220 O 0.89752 0.50177 0.74115 0.0
O221 O 0.90835 0.46643 0.7578 0.0
O222 O 0.94265 0.53485 0.84694 0.0
O223 O 0.93075 0.49911 0.84231 0.0
H224 H 0.23301 0.2991 0.19285 0.0
H225 H 0.30166 0.32942 0.19616 0.0
H226 H 0.31044 0.30547 0.28361 0.0
H227 H 0.226 0.29367 0.35657 0.0
H228 H 0.21029 0.26669 0.35241 0.0
H229 H 0.20893 0.28653 0.29045 0.0
H230 H 0.22185 0.2564 0.21458 0.0
H231 H 0.22304 0.23641 0.27616 0.0
H232 H 0.24763 0.24272 0.22923 0.0
H233 H 0.31221 0.2784 0.36904 0.0
H234 H 0.30758 0.24765 0.44443 0.0
H235 H 0.23787 0.23434 0.38723 0.0
C236 C 0.24987 0.30066 0.21204 0.0
C237 C 0.26664 0.31616 0.18784 0.0
C238 C 0.28853 0.31768 0.21397 0.0
C239 C 0.29368 0.30422 0.26383 0.0
C240 C 0.27675 0.2893 0.28705 0.0
C241 C 0.25534 0.28727 0.26194 0.0
C242 C 0.24055 0.26933 0.29483 0.0
C243 C 0.22024 0.27968 0.32538 0.0
C244 C 0.23282 0.25008 0.25109 0.0
C245 C 0.2571 0.26153 0.34193 0.0
C246 C 0.27781 0.27345 0.33675 0.0
C247 C 0.29606 0.26898 0.3738 0.0
C248 C 0.29325 0.25151 0.41651 0.0
C249 C 0.27237 0.23868 0.42176 0.0
C250 C 0.25395 0.24405 0.38468 0.0
H251 H 0.98669 0.99311 0.39958 0.0
H252 H 0.95747 0.05845 0.3914 0.0
H253 H 0.97904 0.07055 0.48289 0.0
H254 H 0.98541 0.98798 0.56238 0.0
H255 H 0.0119 0.97476 0.56805 0.0
H256 H 0.99502 0.97122 0.5 0.0
H257 H 0.029 0.98655 0.43459 0.0
H258 H 0.04601 0.99011 0.50244 0.0
H259 H 0.0427 0.01376 0.45228 0.0
H260 H 1.00226 0.07547 0.57564 0.0
H261 H 0.02609 0.07339 0.66625 0.0
H262 H 0.04127 0.00484 0.61815 0.0
C263 C 0.98498 0.01005 0.41666 0.0
C264 C 0.97033 0.02485 0.38785 0.0
C265 C 0.96848 0.04677 0.41231 0.0
C266 C 0.98072 0.05383 0.46432 0.0
C267 C 0.9948 0.03882 0.49168 0.0
C268 C 0.99707 0.0174 0.46893 0.0
C269 C 0.01297 0.00451 0.50867 0.0
C270 C 1.00058 0.98337 0.53642 0.0
C271 C 0.03392 0.99838 0.47231 0.0
C272 C 0.01915 0.02207 0.55746 0.0
C273 C 0.00841 0.04169 0.54626 0.0
C274 C 0.0108 0.06024 0.58486 0.0
C275 C 0.02439 0.05878 0.63658 0.0
C276 C 0.03562 0.03888 0.64998 0.0
C277 C 0.03307 0.02031 0.60926 0.0
H278 H 0.28162 0.74683 0.65053 0.0
H279 H 0.21001 0.72784 0.62963 0.0
H280 H 0.20124 0.7535 0.7131 0.0
H281 H 0.2818 0.75107 0.81269 0.0
H282 H 0.30132 0.7756 0.81635 0.0
H283 H 0.30254 0.75624 0.75323 0.0
H284 H 0.29794 0.78898 0.67688 0.0
H285 H 0.29705 0.80849 0.73974 0.0
H286 H 0.27434 0.80651 0.68495 0.0
H287 H 0.19998 0.77831 0.80165 0.0
H288 H 0.2055 0.80599 0.88406 0.0
H289 H 0.27777 0.81139 0.8476 0.0
C290 C 0.2641 0.74835 0.66306 0.0
C291 C 0.24649 0.73528 0.6338 0.0
C292 C 0.22377 0.73766 0.65143 0.0
C293 C 0.2186 0.75211 0.69897 0.0
C294 C 0.23632 0.76425 0.72802 0.0
C295 C 0.25857 0.76295 0.71033 0.0
C296 C 0.2742 0.77823 0.74944 0.0
C297 C 0.29095 0.76445 0.78503 0.0
C298 C 0.28661 0.79665 0.71042 0.0
C299 C 0.25716 0.78813 0.79188 0.0
C300 C 0.23549 0.77952 0.77881 0.0
C301 C 0.2168 0.78543 0.81201 0.0
C302 C 0.22018 0.80113 0.85894 0.0
C303 C 0.24205 0.81101 0.87189 0.0
C304 C 0.26087 0.80416 0.8385 0.0
H305 H 0.46084 0.02774 0.13758 0.0
H306 H 0.50423 0.9873 0.24665 0.0
H307 H 0.53184 0.98754 0.16291 0.0
H308 H 0.47039 1.00082 0.99687 0.0
H309 H 0.47085 0.02602 0.95082 0.0
H310 H 0.45491 0.0245 0.02087 0.0
H311 H 0.47682 0.06079 0.06007 0.0
H312 H 0.49264 0.06258 0.98977 0.0
H313 H 0.5073 0.06212 0.06176 0.0
H314 H 0.55336 0.98904 0.06543 0.0
H315 H 0.56919 0.99472 0.96213 0.0
H316 H 0.51295 0.03491 0.91459 0.0
C317 C 0.47639 0.0194 0.14429 0.0
C318 C 0.48027 0.00748 0.19895 0.0
C319 C 0.50072 0.99646 0.20532 0.0
C320 C 0.51658 0.99648 0.15793 0.0
C321 C 0.51195 0.00769 0.10409 0.0
C322 C 0.49255 0.01922 0.09706 0.0
C323 C 0.4916 0.02932 0.03339 0.0
C324 C 0.4707 0.01958 0.99844 0.0
C325 C 0.49213 0.05524 0.03645 0.0
C326 C 0.5133 0.02136 1.00588 0.0
C327 C 0.52471 0.00887 0.04757 0.0
C328 C 0.54472 0.99901 0.03251 0.0
C329 C 0.55353 1.00223 0.97347 0.0
C330 C 0.54245 0.01532 0.92999 0.0
C331 C 0.52198 0.02494 0.94673 0.0
H332 H 0.24542 0.82514 0.18125 0.0
H333 H 0.26295 0.77411 0.05024 0.0
H334 H 0.2642 0.74613 0.1322 0.0
H335 H 0.27957 0.80788 0.30279 0.0
H336 H 0.2595 0.81195 0.36302 0.0
H337 H 0.25872 0.82852 0.29423 0.0
H338 H 0.21679 0.81506 0.27692 0.0
H339 H 0.21729 0.79892 0.3465 0.0
H340 H 0.20883 0.78522 0.276 0.0
H341 H 0.26805 0.72452 0.22792 0.0
H342 H 0.26535 0.7078 0.33111 0.0
H343 H 0.24242 0.7708 0.40179 0.0
C344 C 0.24887 0.80794 0.16977 0.0
C345 C 0.25435 0.80198 0.10918 0.0
C346 C 0.25898 0.77925 0.09629 0.0
C347 C 0.25985 0.76316 0.1426 0.0
C348 C 0.25563 0.76976 0.20204 0.0
C349 C 0.2495 0.79132 0.21587 0.0
C350 C 0.2453 0.79344 0.28406 0.0
C351 C 0.26176 0.81152 0.31269 0.0
C352 C 0.22058 0.79845 0.2966 0.0
C353 C 0.25032 0.76987 0.30575 0.0
C354 C 0.25666 0.75668 0.25765 0.0
C355 C 0.26283 0.73456 0.26605 0.0
C356 C 0.26152 0.72527 0.32494 0.0
C357 C 0.25372 0.73794 0.37448 0.0
C358 C 0.24847 0.7607 0.36474 0.0
H359 H 0.47724 0.04351 0.45071 0.0
H360 H 0.44528 0.97556 0.44911 0.0
H361 H 0.46959 0.96497 0.53392 0.0
H362 H 0.53354 0.02683 0.48229 0.0
H363 H 0.54081 0.05059 0.53131 0.0
H364 H 0.52051 0.05318 0.47099 0.0
H365 H 0.49121 0.06586 0.54969 0.0
H366 H 0.51138 0.06316 0.61034 0.0
H367 H 0.48403 0.04809 0.6145 0.0
H368 H 0.497 0.96135 0.61798 0.0
H369 H 0.5278 0.96441 0.69367 0.0
H370 H 0.54269 0.03445 0.64179 0.0
C371 C 0.47539 0.02643 0.46831 0.0
C372 C 0.45933 0.01038 0.44339 0.0
C373 C 0.45746 0.98816 0.46742 0.0
C374 C 0.47114 0.98197 0.51578 0.0
C375 C 0.48667 0.99815 0.53965 0.0
C376 C 0.48904 0.01988 0.51666 0.0
C377 C 0.50756 0.03374 0.55 0.0
C378 C 0.52674 0.04154 0.50602 0.0
C379 C 0.49796 0.0539 0.5831 0.0
C380 C 0.51519 0.01633 0.595 0.0
C381 C 0.50278 0.99598 0.58834 0.0
C382 C 0.50684 0.97719 0.62382 0.0
C383 C 0.52434 0.97911 0.66674 0.0
C384 C 0.5376 0.99965 0.67366 0.0
C385 C 0.53274 0.01856 0.63777 0.0
H386 H 0.24461 0.26227 0.66236 0.0
H387 H 0.28542 0.20618 0.70652 0.0
H388 H 0.29292 0.22275 0.80876 0.0
H389 H 0.2794 0.30537 0.73992 0.0
H390 H 0.25566 0.32056 0.76494 0.0
H391 H 0.25376 0.3043 0.69551 0.0
H392 H 0.21792 0.28215 0.73692 0.0
H393 H 0.21985 0.29815 0.80681 0.0
H394 H 0.21912 0.26773 0.80915 0.0
H395 H 0.29535 0.24511 0.90662 0.0
H396 H 0.29506 0.27271 0.9904 0.0
H397 H 0.25256 0.31452 0.88271 0.0
C398 C 0.25521 0.25341 0.69328 0.0
C399 C 0.26439 0.23279 0.67614 0.0
C400 C 0.27825 0.22197 0.71824 0.0
C401 C 0.2825 0.23121 0.77657 0.0
C402 C 0.27284 0.25132 0.79212 0.0
C403 C 0.25965 0.2624 0.75146 0.0
C404 C 0.25151 0.28396 0.77904 0.0
C405 C 0.26063 0.30478 0.7427 0.0
C406 C 0.22556 0.28292 0.78323 0.0
C407 C 0.26216 0.28333 0.84187 0.0
C408 C 0.27431 0.26429 0.8484 0.0
C409 C 0.28594 0.26007 0.90188 0.0
C410 C 0.28563 0.27591 0.94931 0.0
C411 C 0.27379 0.29589 0.94341 0.0
C412 C 0.26157 0.29937 0.8891 0.0
H413 H 0.0419 0.04749 0.92476 0.0
H414 H 0.02811 0.97721 0.87337 0.0
H415 H 0.9982 0.97333 0.95113 0.0
H416 H 0.03362 0.04005 0.0851 0.0
H417 H 0.01978 0.06594 0.09642 0.0
H418 H 0.0399 0.06383 0.03531 0.0
H419 H 0.00987 0.07508 0.95703 0.0
H420 H 0.98971 0.07743 0.01797 0.0
H421 H 0.98293 0.0592 0.95387 0.0
H422 H 0.97166 0.97597 0.03635 0.0
H423 H 0.94684 0.98581 0.12059 0.0
H424 H 0.97602 0.05489 0.11741 0.0
C425 C 0.03241 0.03137 0.9296 0.0
C426 C 0.03736 0.01262 0.89314 0.0
C427 C 0.02462 0.9918 0.90074 0.0
C428 C 0.00763 0.9894 0.94491 0.0
C429 C 1.00343 0.00801 0.98081 0.0
C430 C 0.01518 0.02869 0.97341 0.0
C431 C 0.00703 0.04589 0.01842 0.0
C432 C 0.02623 0.05442 0.06135 0.0
C433 C 0.99677 0.06557 0.98481 0.0
C434 C 0.98904 0.03151 0.05244 0.0
C435 C 0.98746 0.0097 0.02993 0.0
C436 C 0.97256 0.99303 0.05415 0.0
C437 C 0.95858 0.99881 0.10222 0.0
C438 C 0.95943 0.02115 0.12549 0.0
C439 C 0.97497 0.03771 0.10043 0.0
H440 H 0.73651 0.73183 0.88286 0.0
H441 H 0.80746 0.74278 0.93078 0.0
H442 H 0.81232 0.77178 0.85061 0.0
H443 H 0.7434 0.73699 0.72351 0.0
H444 H 0.71822 0.75188 0.71083 0.0
H445 H 0.71963 0.73289 0.77463 0.0
H446 H 0.71036 0.76499 0.84906 0.0
H447 H 0.70855 0.78399 0.78536 0.0
H448 H 0.72743 0.79124 0.84778 0.0
H449 H 0.81038 0.79733 0.761 0.0
H450 H 0.80071 0.82117 0.67377 0.0
H451 H 0.7309 0.7944 0.68456 0.0
C452 C 0.75295 0.74063 0.87718 0.0
C453 C 0.77162 0.73504 0.91296 0.0
C454 C 0.79291 0.74681 0.90391 0.0
C455 C 0.79588 0.76325 0.85835 0.0
C456 C 0.77735 0.76786 0.82257 0.0
C457 C 0.75621 0.7572 0.83196 0.0
C458 C 0.73921 0.7652 0.78645 0.0
C459 C 0.72956 0.74556 0.7465 0.0
C460 C 0.72027 0.77707 0.81912 0.0
C461 C 0.75421 0.78178 0.74966 0.0
C462 C 0.77615 0.78296 0.77117 0.0
C463 C 0.79321 0.79674 0.74403 0.0
C464 C 0.78758 0.81012 0.69434 0.0
C465 C 0.76506 0.80966 0.6726 0.0
C466 C 0.74825 0.7951 0.70027 0.0
H467 H 0.76762 0.30962 0.37041 0.0
H468 H 0.6962 0.29842 0.41304 0.0
H469 H 0.6926 0.26862 0.33466 0.0
H470 H 0.76258 0.3022 0.20959 0.0
H471 H 0.78818 0.28761 0.20121 0.0
H472 H 0.78562 0.3076 0.26233 0.0
H473 H 0.7946 0.27696 0.3414 0.0
H474 H 0.7974 0.25693 0.28046 0.0
H475 H 0.77791 0.25047 0.34214 0.0
H476 H 0.69608 0.2415 0.24943 0.0
H477 H 0.707 0.21648 0.16623 0.0
H478 H 0.77636 0.24447 0.17858 0.0
C479 C 0.75129 0.30072 0.36365 0.0
C480 C 0.73217 0.30634 0.39779 0.0
C481 C 0.71108 0.29439 0.3875 0.0
C482 C 0.70884 0.27747 0.34297 0.0
C483 C 0.72788 0.27262 0.30934 0.0
C484 C 0.74876 0.28369 0.3194 0.0
C485 C 0.76645 0.2752 0.27646 0.0
C486 C 0.77628 0.29429 0.23494 0.0
C487 C 0.7852 0.26423 0.31226 0.0
C488 C 0.75216 0.25776 0.24048 0.0
C489 C 0.72996 0.25666 0.2602 0.0
C490 C 0.71344 0.24209 0.23376 0.0
C491 C 0.71981 0.228 0.18639 0.0
C492 C 0.74253 0.2285 0.16601 0.0
C493 C 0.75887 0.24371 0.19322 0.0
H494 H 0.76104 0.22494 0.85726 0.0
H495 H 0.72892 0.27184 0.97655 0.0
H496 H 0.72933 0.29986 0.89395 0.0
H497 H 0.79718 0.26894 0.77409 0.0
H498 H 0.79393 0.25439 0.70211 0.0
H499 H 0.79316 0.23856 0.77238 0.0
H500 H 0.75413 0.21986 0.74194 0.0
H501 H 0.75461 0.23589 0.67213 0.0
H502 H 0.73125 0.23745 0.72442 0.0
H503 H 0.72897 0.32123 0.79688 0.0
H504 H 0.73235 0.33682 0.6928 0.0
H505 H 0.7659 0.27742 0.6345 0.0
C506 C 0.75473 0.24135 0.86637 0.0
C507 C 0.74493 0.24615 0.92353 0.0
C508 C 0.73642 0.2677 0.93319 0.0
C509 C 0.73655 0.28378 0.88649 0.0
C510 C 0.7454 0.27826 0.83007 0.0
C511 C 0.75474 0.25779 0.81985 0.0
C512 C 0.76247 0.25613 0.75388 0.0
C513 C 0.78822 0.25441 0.75042 0.0
C514 C 0.74986 0.23614 0.72118 0.0
C515 C 0.75557 0.27861 0.72882 0.0
C516 C 0.74568 0.29101 0.77369 0.0
C517 C 0.73698 0.31184 0.76144 0.0
C518 C 0.73882 0.32049 0.70197 0.0
C519 C 0.74945 0.30846 0.65531 0.0
C520 C 0.75784 0.28715 0.66918 0.0
H521 H 0.74425 0.76079 0.13989 0.0
H522 H 0.76837 0.69817 0.20949 0.0
H523 H 0.77008 0.71456 0.3134 0.0
H524 H 0.77992 0.79773 0.23565 0.0
H525 H 0.75889 0.81814 0.24502 0.0
H526 H 0.75916 0.80121 0.17685 0.0
H527 H 0.71741 0.78758 0.19655 0.0
H528 H 0.71715 0.80414 0.26547 0.0
H529 H 0.7097 0.77422 0.26813 0.0
H530 H 0.76829 0.73724 0.40943 0.0
H531 H 0.76899 0.7664 0.48945 0.0
H532 H 0.74721 0.81529 0.3583 0.0
C533 C 0.74998 0.75053 0.17698 0.0
C534 C 0.75611 0.72809 0.16655 0.0
C535 C 0.76373 0.71537 0.2162 0.0
C536 C 0.76453 0.72449 0.27546 0.0
C537 C 0.75788 0.74644 0.28426 0.0
C538 C 0.75117 0.75948 0.23624 0.0
C539 C 0.746 0.78301 0.25769 0.0
C540 C 0.76195 0.80109 0.22699 0.0
C541 C 0.72108 0.78749 0.24627 0.0
C542 C 0.75087 0.78121 0.32549 0.0
C543 C 0.75738 0.75982 0.33969 0.0
C544 C 0.76326 0.75402 0.39877 0.0
C545 C 0.76349 0.77071 0.444 0.0
C546 C 0.75801 0.79309 0.43031 0.0
C547 C 0.75099 0.79824 0.37047 0.0
H548 H 0.54688 0.51458 0.11802 0.0
H549 H 0.50671 0.55934 0.22371 0.0
H550 H 0.47882 0.55952 0.14088 0.0
H551 H 0.53843 0.54007 0.97497 0.0
H552 H 0.53623 0.5142 0.93159 0.0
H553 H 0.55246 0.51575 1.00107 0.0
H554 H 0.5286 0.48133 0.04454 0.0
H555 H 0.51247 0.47951 0.97484 0.0
H556 H 0.49823 0.48192 0.04705 0.0
H557 H 0.4567 0.55766 0.04446 0.0
H558 H 0.44013 0.55134 0.94224 0.0
H559 H 0.4938 0.50745 0.89743 0.0
C560 C 0.53196 0.52397 0.12419 0.0
C561 C 0.52907 0.53697 0.17753 0.0
C562 C 0.50944 0.54934 0.18329 0.0
C563 C 0.49343 0.54957 0.13645 0.0
C564 C 0.49709 0.53725 0.08378 0.0
C565 C 0.51568 0.52444 0.07745 0.0
C566 C 0.51574 0.51338 0.0149 0.0
C567 C 0.53698 0.52133 0.9785 0.0
C568 C 0.51363 0.4875 0.0207 0.0
C569 C 0.49454 0.52229 0.98715 0.0
C570 C 0.48407 0.53602 0.0278 0.0
C571 C 0.46461 0.54676 0.01232 0.0
C572 C 0.45537 0.54315 0.95393 0.0
C573 C 0.46553 0.52886 0.91151 0.0
C574 C 0.48548 0.5184 0.92866 0.0
H575 H 0.03878 0.48805 0.41503 0.0
H576 H 0.04814 0.56118 0.40881 0.0
H577 H 0.02639 0.56398 0.50364 0.0
H578 H 0.98248 0.48569 0.46692 0.0
H579 H 0.98462 0.46204 0.5178 0.0
H580 H 1.00297 0.46511 0.4524 0.0
H581 H 0.03808 0.46392 0.52233 0.0
H582 H 0.01981 0.46059 0.58796 0.0
H583 H 0.0414 0.48338 0.58537 0.0
H584 H 1.0001 0.55972 0.59121 0.0
H585 H 0.97363 0.54802 0.67413 0.0
H586 H 0.98173 0.47769 0.62929 0.0
C587 C 0.03677 0.50454 0.43477 0.0
C588 C 0.04519 0.52441 0.40445 0.0
C589 C 0.04178 0.54574 0.43104 0.0
C590 C 0.02944 0.54755 0.485 0.0
C591 C 0.02062 0.52785 0.51264 0.0
C592 C 0.02434 0.5067 0.48928 0.0
C593 C 0.01198 0.4884 0.52746 0.0
C594 C 0.99448 0.47449 0.48882 0.0
C595 C 0.02883 0.47317 0.55757 0.0
C596 C 1.00052 0.50265 0.57471 0.0
C597 C 0.00572 0.52537 0.565 0.0
C598 C 0.99617 0.54195 0.60006 0.0
C599 C 0.98105 0.53517 0.64684 0.0
C600 C 0.97576 0.51199 0.65869 0.0
C601 C 0.98573 0.49555 0.62205 0.0
H602 H 0.0409 0.536 0.11865 0.0
H603 H 0.02709 0.46614 0.17358 0.0
H604 H 0.99663 0.46198 0.09716 0.0
H605 H 0.98171 0.54809 0.08823 0.0
H606 H 0.98912 0.56571 0.02331 0.0
H607 H 0.0088 0.5637 0.08541 0.0
H608 H 0.03924 0.55157 0.00927 0.0
H609 H 0.01958 0.55325 0.94708 0.0
H610 H 0.03314 0.52737 0.96089 0.0
H611 H 0.97009 0.46425 0.01032 0.0
H612 H 0.9464 0.4737 0.92288 0.0
H613 H 0.97658 0.54236 0.9242 0.0
C614 C 0.03117 0.51996 0.11532 0.0
C615 C 0.03632 0.50138 0.15203 0.0
C616 C 0.0234 0.4806 0.14599 0.0
C617 C 0.00609 0.47806 0.10265 0.0
C618 C 1.00185 0.49648 0.06602 0.0
C619 C 0.01378 0.51713 0.07228 0.0
C620 C 0.00614 0.534 0.02582 0.0
C621 C 0.99582 0.55406 0.0576 0.0
C622 C 0.02569 0.54201 0.98326 0.0
C623 C 0.9883 0.51947 0.99198 0.0
C624 C 0.98619 0.49789 0.01598 0.0
C625 C 0.97138 0.48115 0.99149 0.0
C626 C 0.95809 0.48667 0.94162 0.0
C627 C 0.95961 0.50878 0.91691 0.0
C628 C 0.975 0.52535 0.94233 0.0
H629 H 0.46452 0.50911 0.62567 0.0
H630 H 0.4757 0.5801 0.67203 0.0
H631 H 0.50572 0.58423 0.59388 0.0
H632 H 0.52355 0.49872 0.59601 0.0
H633 H 0.51675 0.47979 0.53339 0.0
H634 H 0.49692 0.48226 0.59501 0.0
H635 H 0.46611 0.4921 0.51725 0.0
H636 H 0.48591 0.48991 0.45548 0.0
H637 H 0.47154 0.51554 0.46578 0.0
H638 H 0.53328 0.58108 0.50777 0.0
H639 H 0.55799 0.57033 0.42313 0.0
H640 H 0.52877 0.50144 0.4327 0.0
C641 C 0.47347 0.52545 0.61991 0.0
C642 C 0.46781 0.54429 0.65493 0.0
C643 C 0.4798 0.56543 0.64576 0.0
C644 C 0.49684 0.56796 0.60141 0.0
C645 C 0.50169 0.54918 0.56676 0.0
C646 C 0.4905 0.52829 0.57579 0.0
C647 C 0.49871 0.51091 0.53169 0.0
C648 C 0.50964 0.49179 0.56609 0.0
C649 C 0.47942 0.50157 0.49009 0.0
C650 C 0.51614 0.52534 0.49617 0.0
C651 C 0.51759 0.54736 0.51711 0.0
C652 C 0.53237 0.56387 0.49114 0.0
C653 C 0.54628 0.55762 0.44299 0.0
C654 C 0.54528 0.53508 0.4214 0.0
C655 C 0.52988 0.51882 0.44817 0.0
H656 H 0.15193 0.46013 0.2657 0.0
H657 H 0.10968 0.46379 0.10477 0.0
H658 H 0.13327 0.43762 0.05079 0.0
H659 H 0.20421 0.45984 0.18422 0.0
H660 H 0.21705 0.44024 0.23434 0.0
H661 H 0.19591 0.45799 0.26333 0.0
H662 H 0.17205 0.42267 0.30135 0.0
H663 H 0.19321 0.40482 0.27282 0.0
H664 H 0.16424 0.40025 0.24843 0.0
H665 H 0.16163 0.41203 0.01195 0.0
H666 H 0.19375 0.38849 0.99105 0.0
H667 H 0.21914 0.40197 0.17408 0.0
C668 C 0.14751 0.45507 0.21954 0.0
C669 C 0.1289 0.46396 0.18954 0.0
C670 C 0.12389 0.45727 0.12865 0.0
C671 C 0.13716 0.44235 0.09749 0.0
C672 C 0.15563 0.43423 0.12745 0.0
C673 C 0.16091 0.44028 0.18704 0.0
C674 C 0.18244 0.42974 0.20697 0.0
C675 C 0.201 0.44805 0.22316 0.0
C676 C 0.17769 0.41339 0.26057 0.0
C677 C 0.18834 0.4171 0.14924 0.0
C678 C 0.17251 0.4198 0.10417 0.0
C679 C 0.17418 0.40974 0.04688 0.0
C680 C 0.19249 0.39643 0.03532 0.0
C681 C 0.20903 0.39346 0.08061 0.0
C682 C 0.20687 0.40404 0.13825 0.0
H683 H 0.82432 0.88018 0.41242 0.0
H684 H 0.77616 0.92186 0.49945 0.0
H685 H 0.79512 0.95597 0.45092 0.0
H686 H 0.87174 0.916 0.43235 0.0
H687 H 0.88441 0.90969 0.36002 0.0
H688 H 0.86545 0.88899 0.39634 0.0
H689 H 0.84022 0.88674 0.29954 0.0
H690 H 0.85925 0.90735 0.26261 0.0
H691 H 0.82961 0.91221 0.26882 0.0
H692 H 0.8233 0.98603 0.40044 0.0
H693 H 0.85541 0.00768 0.34992 0.0
H694 H 0.8828 0.94445 0.2959 0.0
C695 C 0.8175 0.89644 0.42055 0.0
C696 C 0.79891 0.8985 0.45973 0.0
C697 C 0.79037 0.92 0.46911 0.0
C698 C 0.80108 0.93941 0.44192 0.0
C699 C 0.81993 0.93682 0.40472 0.0
C700 C 0.82771 0.9157 0.39341 0.0
C701 C 0.84864 0.91704 0.3542 0.0
C702 C 0.86873 0.90737 0.38776 0.0
C703 C 0.84415 0.90514 0.29264 0.0
C704 C 0.85199 0.94227 0.34643 0.0
C705 C 0.83537 0.95361 0.37542 0.0
C706 C 0.83617 0.97723 0.37684 0.0
C707 C 0.85448 0.9894 0.34815 0.0
C708 C 0.8717 0.97787 0.31872 0.0
C709 C 0.87001 0.954 0.31752 0.0
H710 H 0.31543 0.63886 0.5238 0.0
H711 H 0.27438 0.64925 0.68463 0.0
H712 H 0.29816 0.62525 0.74456 0.0
H713 H 0.32425 0.57975 0.55562 0.0
H714 H 0.35303 0.5813 0.52847 0.0
H715 H 0.33301 0.59973 0.49691 0.0
H716 H 0.35967 0.6345 0.52466 0.0
H717 H 0.37973 0.61615 0.55644 0.0
H718 H 0.36907 0.63834 0.6024 0.0
H719 H 0.32699 0.6019 0.78982 0.0
H720 H 0.35787 0.57733 0.81501 0.0
H721 H 0.37936 0.57912 0.62565 0.0
C722 C 0.31146 0.63599 0.57151 0.0
C723 C 0.29297 0.64604 0.59925 0.0
C724 C 0.28833 0.64177 0.66192 0.0
C725 C 0.30181 0.62817 0.69671 0.0
C726 C 0.31988 0.61862 0.66842 0.0
C727 C 0.32466 0.62205 0.60718 0.0
C728 C 0.34497 0.60919 0.58849 0.0
C729 C 0.33841 0.59144 0.53947 0.0
C730 C 0.36452 0.62553 0.56671 0.0
C731 C 0.35066 0.59813 0.64873 0.0
C732 C 0.33611 0.60411 0.69432 0.0
C733 C 0.3384 0.59688 0.75444 0.0
C734 C 0.356 0.583 0.76841 0.0
C735 C 0.3708 0.57618 0.72229 0.0
C736 C 0.36804 0.58384 0.66165 0.0
H737 H 0.67818 0.15956 0.91878 0.0
H738 H 0.73316 0.11905 0.97324 0.0
H739 H 0.71396 0.08569 0.92211 0.0
H740 H 0.63452 0.11971 0.94647 0.0
H741 H 0.61757 0.12734 0.88233 0.0
H742 H 0.63699 0.1481 0.91668 0.0
H743 H 0.65648 0.15562 0.81199 0.0
H744 H 0.63698 0.13494 0.77709 0.0
H745 H 0.66701 0.13237 0.76983 0.0
H746 H 0.68577 0.0559 0.87461 0.0
H747 H 0.65285 0.03333 0.8324 0.0
H748 H 0.61755 0.09471 0.80888 0.0
C749 C 0.68641 0.14376 0.9193 0.0
C750 C 0.70708 0.1418 0.9502 0.0
C751 C 0.71736 0.1209 0.94948 0.0
C752 C 0.70654 0.1019 0.9207 0.0
C753 C 0.68575 0.10433 0.8921 0.0
C754 C 0.67603 0.1249 0.8906 0.0
C755 C 0.65316 0.12318 0.85999 0.0
C756 C 0.63447 0.12997 0.90401 0.0
C757 C 0.65344 0.13736 0.80123 0.0
C758 C 0.65104 0.09823 0.84598 0.0
C759 C 0.66998 0.08756 0.86433 0.0
C760 C 0.67104 0.0642 0.85926 0.0
C761 C 0.65221 0.05151 0.83534 0.0
C762 C 0.63257 0.06221 0.81694 0.0
C763 C 0.6323 0.08593 0.82171 0.0
H764 H 0.11205 0.59316 0.3204 0.0
H765 H 0.15648 0.53947 0.28224 0.0
H766 H 0.18824 0.56207 0.33129 0.0
H767 H 0.15127 0.64014 0.29565 0.0
H768 H 0.14054 0.65625 0.35787 0.0
H769 H 0.12206 0.63589 0.31846 0.0
H770 H 0.11216 0.6159 0.42124 0.0
H771 H 0.13073 0.63614 0.46093 0.0
H772 H 0.13459 0.60637 0.46837 0.0
H773 H 0.2153 0.5919 0.38441 0.0
H774 H 0.23422 0.62489 0.43728 0.0
H775 H 0.17033 0.65694 0.44231 0.0
C776 C 0.12851 0.58619 0.32144 0.0
C777 C 0.13191 0.56473 0.29656 0.0
C778 C 0.15358 0.55599 0.30062 0.0
C779 C 0.17167 0.56869 0.32842 0.0
C780 C 0.16762 0.58984 0.35272 0.0
C781 C 0.14646 0.59835 0.34974 0.0
C782 C 0.14596 0.62103 0.38075 0.0
C783 C 0.13959 0.6394 0.33546 0.0
C784 C 0.12991 0.61977 0.4361 0.0
C785 C 0.17031 0.62437 0.40052 0.0
C786 C 0.18266 0.60629 0.38432 0.0
C787 C 0.2057 0.60607 0.39747 0.0
C788 C 0.2163 0.62488 0.42753 0.0
C789 C 0.20382 0.64358 0.44414 0.0
C790 C 0.18049 0.64302 0.4306 0.0
H791 H 0.62956 0.96501 0.63961 0.0
H792 H 0.64061 0.95567 0.83358 0.0
H793 H 0.66908 0.9283 0.81048 0.0
H794 H 0.6347 0.90624 0.59765 0.0
H795 H 0.64895 0.91271 0.52647 0.0
H796 H 0.62949 0.93191 0.55741 0.0
H797 H 0.66071 0.96443 0.55371 0.0
H798 H 0.68025 0.94537 0.52261 0.0
H799 H 0.68734 0.961 0.59124 0.0
H800 H 0.69669 0.90331 0.76821 0.0
H801 H 0.72203 0.88055 0.70913 0.0
H802 H 0.6929 0.90367 0.54025 0.0
C803 C 0.63805 0.95724 0.67715 0.0
C804 C 0.63294 0.96254 0.73856 0.0
C805 C 0.64422 0.95187 0.78636 0.0
C806 C 0.66042 0.9363 0.77365 0.0
C807 C 0.66499 0.93138 0.71286 0.0
C808 C 0.65413 0.94136 0.66524 0.0
C809 C 0.6622 0.93265 0.60408 0.0
C810 C 0.64267 0.92013 0.56936 0.0
C811 C 0.67329 0.95202 0.56565 0.0
C812 C 0.67953 0.91644 0.62494 0.0
C813 C 0.68075 0.91616 0.688 0.0
C814 C 0.69582 0.90328 0.71888 0.0
C815 C 0.71021 0.89045 0.6847 0.0
C816 C 0.70948 0.8903 0.62001 0.0
C817 C 0.69369 0.90328 0.58959 0.0
H818 H 0.39734 0.44917 0.83214 0.0
H819 H 0.35292 0.50356 0.80244 0.0
H820 H 0.32151 0.48063 0.85148 0.0
H821 H 0.35623 0.40223 0.8084 0.0
H822 H 0.36778 0.38563 0.86832 0.0
H823 H 0.38589 0.40577 0.82681 0.0
H824 H 0.3983 0.42515 0.92857 0.0
H825 H 0.38018 0.40514 0.97033 0.0
H826 H 0.3771 0.43499 0.97944 0.0
H827 H 0.29497 0.45111 0.90684 0.0
H828 H 0.27704 0.41918 0.96653 0.0
H829 H 0.34025 0.386 0.96178 0.0
C830 C 0.38093 0.45618 0.83485 0.0
C831 C 0.37754 0.47807 0.81272 0.0
C832 C 0.35589 0.48677 0.81875 0.0
C833 C 0.33794 0.47385 0.84645 0.0
C834 C 0.342 0.45238 0.86836 0.0
C835 C 0.36305 0.44374 0.863 0.0
C836 C 0.36366 0.42091 0.89322 0.0
C837 C 0.36868 0.40256 0.84638 0.0
C838 C 0.38082 0.4216 0.94601 0.0
C839 C 0.33967 0.41794 0.91654 0.0
C840 C 0.32725 0.43609 0.90153 0.0
C841 C 0.3046 0.43684 0.9188 0.0
C842 C 0.29454 0.41864 0.9526 0.0
C843 C 0.30725 0.40016 0.96932 0.0
C844 C 0.33005 0.39993 0.95045 0.0
H845 H 0.80482 0.12599 0.0236 0.0
H846 H 0.80278 0.17275 0.17528 0.0
H847 H 0.83084 0.15159 0.23062 0.0
H848 H 0.80788 0.0767 0.11481 0.0
H849 H 0.82691 0.06269 0.0654 0.0
H850 H 0.80827 0.08255 0.03407 0.0
H851 H 0.8425 0.10573 0.98718 0.0
H852 H 0.86123 0.08579 0.01785 0.0
H853 H 0.86571 0.11541 0.03564 0.0
H854 H 0.85717 0.12477 0.27241 0.0
H855 H 0.88147 0.0939 0.29775 0.0
H856 H 0.86653 0.06303 0.12144 0.0
C857 C 0.81079 0.13197 0.06776 0.0
C858 C 0.80199 0.15118 0.095 0.0
C859 C 0.80957 0.1582 0.15359 0.0
C860 C 0.82545 0.14628 0.1854 0.0
C861 C 0.83352 0.12716 0.15828 0.0
C862 C 0.82659 0.11999 0.10077 0.0
C863 C 0.83722 0.09812 0.08413 0.0
C864 C 0.81898 0.07888 0.07401 0.0
C865 C 0.85258 0.10147 0.02786 0.0
C866 C 0.85096 0.09416 0.14136 0.0
C867 C 0.84857 0.11122 0.18328 0.0
C868 C 0.85928 0.11134 0.23987 0.0
C869 C 0.87302 0.09366 0.25393 0.0
C870 C 0.87592 0.07599 0.21177 0.0
C871 C 0.86462 0.07625 0.15477 0.0
H872 H 0.81196 0.61873 0.01736 0.0
H873 H 0.80816 0.66369 0.86194 0.0
H874 H 0.83422 0.64104 0.80459 0.0
H875 H 0.87167 0.60668 0.99816 0.0
H876 H 0.86718 0.57729 0.0185 0.0
H877 H 0.84917 0.59777 0.04988 0.0
H878 H 0.81399 0.57456 0.00853 0.0
H879 H 0.8319 0.5541 0.97668 0.0
H880 H 0.81231 0.5678 0.92838 0.0
H881 H 0.85979 0.61375 0.76216 0.0
H882 H 0.88384 0.58261 0.73684 0.0
H883 H 0.87086 0.55352 0.91628 0.0
C884 C 0.81695 0.62388 0.97165 0.0
C885 C 0.80808 0.64302 0.94416 0.0
C886 C 0.81465 0.64905 0.88383 0.0
C887 C 0.82951 0.63632 0.8508 0.0
C888 C 0.83763 0.61735 0.87828 0.0
C889 C 0.83166 0.61102 0.93721 0.0
C890 C 0.84231 0.5892 0.95418 0.0
C891 C 0.85855 0.59297 0.0084 0.0
C892 C 0.82403 0.5703 0.96774 0.0
C893 C 0.85507 0.58445 0.89569 0.0
C894 C 0.85215 0.60103 0.85278 0.0
C895 C 0.86223 0.60061 0.79532 0.0
C896 C 0.87585 0.58283 0.78129 0.0
C897 C 0.87918 0.56556 0.8243 0.0
C898 C 0.86851 0.56638 0.8822 0.0
H899 H 0.17938 0.16543 0.60136 0.0
H900 H 0.23471 0.12218 0.56977 0.0
H901 H 0.21277 0.09059 0.62052 0.0
H902 H 0.16531 0.14494 0.74974 0.0
H903 H 0.13531 0.14702 0.73999 0.0
H904 H 0.15494 0.16576 0.69872 0.0
H905 H 0.13635 0.15286 0.59641 0.0
H906 H 0.11653 0.13423 0.6374 0.0
H907 H 0.13374 0.12318 0.57793 0.0
H908 H 0.18421 0.06363 0.67514 0.0
H909 H 0.15197 0.04398 0.7292 0.0
H910 H 0.11666 0.10594 0.72798 0.0
C911 C 0.18687 0.14927 0.60433 0.0
C912 C 0.20875 0.14628 0.58107 0.0
C913 C 0.21796 0.12489 0.587 0.0
C914 C 0.20563 0.10686 0.61581 0.0
C915 C 0.18421 0.11054 0.63885 0.0
C916 C 0.17497 0.13125 0.63341 0.0
C917 C 0.15192 0.13114 0.66322 0.0
C918 C 0.15189 0.14823 0.71605 0.0
C919 C 0.13355 0.13561 0.61591 0.0
C920 C 0.14957 0.10711 0.68643 0.0
C921 C 0.16826 0.09539 0.67169 0.0
C922 C 0.16955 0.0727 0.68713 0.0
C923 C 0.15117 0.06169 0.71788 0.0
C924 C 0.13186 0.07346 0.7334 0.0
C925 C 0.13128 0.09652 0.71773 0.0
H926 H 0.70656 0.40675 0.37805 0.0
H927 H 0.67706 0.39502 0.55761 0.0
H928 H 0.64621 0.41927 0.53111 0.0
H929 H 0.6938 0.46549 0.36774 0.0
H930 H 0.68778 0.4643 0.28715 0.0
H931 H 0.7074 0.4457 0.31975 0.0
H932 H 0.68383 0.41126 0.27553 0.0
H933 H 0.66396 0.42975 0.24343 0.0
H934 H 0.6542 0.40726 0.29411 0.0
H935 H 0.6189 0.44462 0.48677 0.0
H936 H 0.59793 0.47238 0.42978 0.0
H937 H 0.64434 0.46843 0.27766 0.0
C938 C 0.69364 0.40936 0.41185 0.0
C939 C 0.69423 0.39894 0.47002 0.0
C940 C 0.67704 0.40283 0.51295 0.0
C941 C 0.65936 0.41649 0.49816 0.0
C942 C 0.6591 0.42622 0.44029 0.0
C943 C 0.67587 0.42308 0.39793 0.0
C944 C 0.67182 0.43619 0.33968 0.0
C945 C 0.69136 0.45398 0.32791 0.0
C946 C 0.66824 0.42015 0.28495 0.0
C947 C 0.65015 0.44721 0.35604 0.0
C948 C 0.64313 0.44102 0.41428 0.0
C949 C 0.62413 0.44947 0.44104 0.0
C950 C 0.61229 0.46514 0.40824 0.0
C951 C 0.61931 0.47216 0.34913 0.0
C952 C 0.6383 0.46284 0.32214 0.0
H953 H 0.39382 0.94003 0.20559 0.0
H954 H 0.3562 1.00019 0.2224 0.0
H955 H 0.32545 0.98184 0.15911 0.0
H956 H 0.37897 0.92738 0.04965 0.0
H957 H 0.37761 0.89729 0.06221 0.0
H958 H 0.39635 0.91557 0.1075 0.0
H959 H 0.37762 0.89918 0.20636 0.0
H960 H 0.35884 0.88086 0.16144 0.0
H961 H 0.34746 0.89985 0.21607 0.0
H962 H 0.29776 0.95496 0.09849 0.0
H963 H 0.27717 0.92365 0.04267 0.0
H964 H 0.33484 0.88275 0.0643 0.0
C965 C 0.37914 0.94947 0.19617 0.0
C966 C 0.37729 0.97148 0.21944 0.0
C967 C 0.35794 0.98328 0.20505 0.0
C968 C 0.34042 0.97297 0.16928 0.0
C969 C 0.34276 0.95106 0.14771 0.0
C970 C 0.36182 0.93962 0.16032 0.0
C971 C 0.36057 0.9163 0.1324 0.0
C972 C 0.3795 0.91401 0.08513 0.0
C973 C 0.36115 0.89798 0.18203 0.0
C974 C 0.33768 0.91615 0.10229 0.0
C975 C 0.3275 0.93622 0.11169 0.0
C976 C 0.30574 0.93932 0.09033 0.0
C977 C 0.29417 0.92144 0.05878 0.0
C978 C 0.3045 0.90084 0.04846 0.0
C979 C 0.32659 0.89839 0.07031 0.0
H980 H 0.82625 0.37931 0.56753 0.0
H981 H 0.76926 0.42139 0.55054 0.0
H982 H 0.79212 0.45332 0.59741 0.0
H983 H 0.84329 0.39915 0.71307 0.0
H984 H 0.87303 0.39732 0.69805 0.0
H985 H 0.85264 0.37872 0.65921 0.0
H986 H 0.86892 0.39242 0.55472 0.0
H987 H 0.88942 0.41104 0.5933 0.0
H988 H 0.87082 0.4222 0.53739 0.0
H989 H 0.82202 0.48062 0.64928 0.0
H990 H 0.8548 0.49931 0.70409 0.0
H991 H 0.89036 0.4378 0.68798 0.0
C992 C 0.81859 0.39531 0.5726 0.0
C993 C 0.79603 0.3979 0.55467 0.0
C994 C 0.78658 0.41904 0.56365 0.0
C995 C 0.79944 0.43727 0.59014 0.0
C996 C 0.82163 0.434 0.60779 0.0
C997 C 0.83099 0.41344 0.59948 0.0
C998 C 0.85462 0.41357 0.62514 0.0
C999 C 0.85596 0.39617 0.67693 0.0
C1000 C 0.87196 0.40958 0.57461 0.0
C1001 C 0.85723 0.43743 0.64921 0.0
C1002 C 0.8382 0.44915 0.63865 0.0
C1003 C 0.83699 0.47154 0.65768 0.0
C1004 C 0.85568 0.48204 0.68865 0.0
C1005 C 0.8751 0.47001 0.70075 0.0
C1006 C 0.87574 0.44749 0.68012 0.0
H1007 H 0.31573 0.12539 0.52804 0.0
H1008 H 0.29775 0.15739 0.3582 0.0
H1009 H 0.32336 0.13391 0.30187 0.0
H1010 H 0.37466 0.11871 0.49167 0.0
H1011 H 0.37534 0.09116 0.52608 0.0
H1012 H 0.3561 0.11104 0.55455 0.0
H1013 H 0.32244 0.08169 0.53759 0.0
H1014 H 0.3416 0.06172 0.5092 0.0
H1015 H 0.31803 0.06925 0.46314 0.0
H1016 H 0.35181 0.1081 0.26312 0.0
H1017 H 0.37893 0.0788 0.24395 0.0
H1018 H 0.37688 0.06108 0.43607 0.0
C1019 C 0.31727 0.12743 0.47908 0.0
C1020 C 0.3047 0.14329 0.44768 0.0
C1021 C 0.30704 0.14529 0.38342 0.0
C1022 C 0.32166 0.13209 0.35083 0.0
C1023 C 0.33375 0.11661 0.38276 0.0
C1024 C 0.33157 0.11394 0.44529 0.0
C1025 C 0.34595 0.09528 0.46756 0.0
C1026 C 0.36409 0.10461 0.51263 0.0
C1027 C 0.33111 0.07583 0.49605 0.0
C1028 C 0.35651 0.08808 0.4079 0.0
C1029 C 0.34944 0.10084 0.35972 0.0
C1030 C 0.35735 0.09784 0.3004 0.0
C1031 C 0.37278 0.08122 0.2899 0.0
C1032 C 0.37984 0.06755 0.33826 0.0
C1033 C 0.37156 0.0711 0.39799 0.0
H1034 H 0.64883 0.59015 0.27629 0.0
H1035 H 0.62653 0.54351 0.13331 0.0
H1036 H 0.65457 0.56209 0.06255 0.0
H1037 H 0.65506 0.63765 0.19198 0.0
H1038 H 0.68042 0.64961 0.22795 0.0
H1039 H 0.66152 0.63041 0.26969 0.0
H1040 H 0.69416 0.60439 0.291 0.0
H1041 H 0.71335 0.62375 0.25002 0.0
H1042 H 0.71047 0.59441 0.2282 0.0
H1043 H 0.68014 0.59028 1.00336 0.0
H1044 H 0.70389 0.62319 0.96411 0.0
H1045 H 0.71063 0.64981 0.14752 0.0
C1046 C 0.65043 0.58341 0.23065 0.0
C1047 C 0.63573 0.56539 0.21009 0.0
C1048 C 0.63797 0.55709 0.15001 0.0
C1049 C 0.65376 0.56761 0.10953 0.0
C1050 C 0.6675 0.58595 0.13059 0.0
C1051 C 0.66638 0.59337 0.19032 0.0
C1052 C 0.68203 0.61414 0.20099 0.0
C1053 C 0.66896 0.63412 0.22396 0.0
C1054 C 0.70114 0.60885 0.24517 0.0
C1055 C 0.69101 0.61819 0.1371 0.0
C1056 C 0.6827 0.60163 0.0971 0.0
C1057 C 0.68722 0.60297 0.03457 0.0
C1058 C 0.70059 0.62167 0.01261 0.0
C1059 C 0.70915 0.63861 0.05322 0.0
C1060 C 0.7045 0.63673 0.11604 0.0
H1061 H 0.19044 0.91322 1.00129 0.0
H1062 H 0.2231 0.89672 0.83059 0.0
H1063 H 0.19762 0.91984 0.77443 0.0
H1064 H 0.13348 0.91425 0.94015 0.0
H1065 H 0.12605 0.93832 0.98438 0.0
H1066 H 0.14653 0.91983 0.01335 0.0
H1067 H 0.17574 0.95389 0.02531 0.0
H1068 H 0.15531 0.97249 0.99666 0.0
H1069 H 0.18256 0.97171 0.96036 0.0
H1070 H 0.16832 0.94346 0.73396 0.0
H1071 H 0.13844 0.9698 0.71383 0.0
H1072 H 0.12539 0.97378 0.90837 0.0
C1073 C 0.1922 0.91456 0.95223 0.0
C1074 C 0.20891 0.90302 0.92082 0.0
C1075 C 0.21063 0.90535 0.85636 0.0
C1076 C 0.19611 0.91842 0.82352 0.0
C1077 C 0.17987 0.92946 0.85533 0.0
C1078 C 0.17789 0.92801 0.9182 0.0
C1079 C 0.15924 0.94247 0.94037 0.0
C1080 C 0.1402 0.92784 0.9714 0.0
C1081 C 0.16879 0.96126 0.98321 0.0
C1082 C 0.15133 0.95212 0.88021 0.0
C1083 C 0.1633 0.94407 0.83175 0.0
C1084 C 0.15885 0.95005 0.77151 0.0
C1085 C 0.14183 0.96494 0.76041 0.0
C1086 C 0.12974 0.97394 0.80936 0.0
C1087 C 0.13453 0.96732 0.86999 0.0
loop_
_geom_bond_atom_site_label_1
_geom_bond_atom_site_label_2
_geom_bond_distance
_geom_bond_site_symmetry_2
_ccdc_geom_bond_type
Co0 O1 2.216 . S
Co0 O2 2.091 . S
Co0 O4 2.004 1_554 S
Co0 O10 2.021 1_554 S
Co0 O12 2.137 . S
Co0 O13 2.244 . S
O1 Co0 2.216 . S
O1 C8 1.247 . S
O2 Co0 2.091 . S
O2 C8 1.261 . S
C3 O12 1.247 . S
C3 O13 1.272 . S
O4 Co0 2.004 1_556 S
O4 C9 1.259 . S
Co5 O6 2.061 1_554 S
Co5 O11 2.054 . S
Co5 O13 2.135 . S
O6 Co5 2.061 1_556 S
O6 C9 1.235 . S
C7 O10 1.238 . S
C7 O11 1.236 1_556 S
C8 O1 1.247 . S
C8 O2 1.261 . S
C9 O4 1.259 . S
C9 O6 1.235 . S
O10 Co0 2.021 1_556 S
O10 C7 1.238 . S
O11 Co5 2.054 . S
O11 C7 1.236 1_554 S
O12 Co0 2.137 . S
O12 C3 1.247 . S
O13 Co0 2.244 . S
O13 C3 1.272 . S
O13 Co5 2.135 . S
Co14 O15 2.216 . S
Co14 O16 2.091 . S
Co14 O18 2.004 . S
Co14 O24 2.021 . S
Co14 O26 2.137 . S
Co14 O27 2.244 . S
O15 Co14 2.216 . S
O15 C22 1.247 . S
O16 Co14 2.091 . S
O16 C22 1.261 . S
C17 O26 1.247 . S
C17 O27 1.272 . S
O18 Co14 2.004 . S
O18 C23 1.259 . S
Co19 O20 2.061 . S
Co19 O25 2.052 . S
Co19 O27 2.135 1_565 S
O20 Co19 2.061 . S
O20 C23 1.235 1_565 S
C21 O24 1.238 1_565 S
C21 O25 1.241 . S
C22 O15 1.247 . S
C22 O16 1.261 . S
C23 O18 1.259 . S
C23 O20 1.235 1_545 S
O24 Co14 2.021 . S
O24 C21 1.238 1_545 S
O25 Co19 2.052 . S
O25 C21 1.241 . S
O26 Co14 2.137 . S
O26 C17 1.247 . S
O27 Co14 2.244 . S
O27 C17 1.272 . S
O27 Co19 2.135 1_545 S
Co28 O29 2.216 . S
Co28 O30 2.091 . S
Co28 O32 2.004 . S
Co28 O38 2.021 . S
Co28 O40 2.137 . S
Co28 O41 2.244 . S
O29 Co28 2.216 . S
O29 C36 1.247 . S
O30 Co28 2.091 . S
O30 C36 1.261 . S
C31 O40 1.247 . S
C31 O41 1.272 . S
O32 Co28 2.004 . S
O32 C37 1.259 . S
Co33 O34 2.061 . S
Co33 O39 2.052 . S
Co33 O41 2.135 . S
O34 Co33 2.061 . S
O34 C37 1.235 . S
C35 O38 1.238 . S
C35 O39 1.241 . S
C36 O29 1.247 . S
C36 O30 1.261 . S
C37 O32 1.259 . S
C37 O34 1.235 . S
O38 Co28 2.021 . S
O38 C35 1.238 . S
O39 Co33 2.052 . S
O39 C35 1.241 . S
O40 Co28 2.137 . S
O40 C31 1.247 . S
O41 Co28 2.244 . S
O41 C31 1.272 . S
O41 Co33 2.135 . S
Co42 O43 2.216 . S
Co42 O44 2.091 1_545 S
Co42 O46 2.004 . S
Co42 O52 2.021 . S
Co42 O54 2.137 1_545 S
Co42 O55 2.244 . S
O43 Co42 2.216 . S
O43 C50 1.247 1_545 S
O44 Co42 2.091 1_565 S
O44 C50 1.261 . S
C45 O54 1.247 1_545 S
C45 O55 1.272 . S
O46 Co42 2.004 . S
O46 C51 1.259 . S
Co47 O48 2.061 . S
Co47 O53 2.052 . S
Co47 O55 2.135 . S
O48 Co47 2.061 . S
O48 C51 1.235 . S
C49 O52 1.238 . S
C49 O53 1.241 . S
C50 O43 1.247 1_565 S
C50 O44 1.261 . S
C51 O46 1.259 . S
C51 O48 1.235 . S
O52 Co42 2.021 . S
O52 C49 1.238 . S
O53 Co47 2.052 . S
O53 C49 1.241 . S
O54 Co42 2.137 1_565 S
O54 C45 1.247 1_565 S
O55 Co42 2.244 . S
O55 C45 1.272 . S
O55 Co47 2.135 . S
Co56 O57 2.216 1_554 S
Co56 O58 2.091 . S
Co56 O60 2.004 . S
Co56 O66 2.021 . S
Co56 O68 2.137 1_554 S
Co56 O69 2.244 1_554 S
O57 Co56 2.216 1_556 S
O57 C64 1.247 . S
O58 Co56 2.091 . S
O58 C64 1.261 1_554 S
C59 O68 1.247 . S
C59 O69 1.272 . S
O60 Co56 2.004 . S
O60 C65 1.259 . S
Co61 O62 2.061 . S
Co61 O67 2.052 . S
Co61 O69 2.135 1_554 S
O62 Co61 2.061 . S
O62 C65 1.235 . S
C63 O66 1.238 . S
C63 O67 1.241 . S
C64 O57 1.247 . S
C64 O58 1.261 1_556 S
C65 O60 1.259 . S
C65 O62 1.235 . S
O66 Co56 2.021 . S
O66 C63 1.238 . S
O67 Co61 2.052 . S
O67 C63 1.241 . S
O68 Co56 2.137 1_556 S
O68 C59 1.247 . S
O69 Co56 2.244 1_556 S
O69 C59 1.272 . S
O69 Co61 2.135 1_556 S
Co70 O71 2.216 . S
Co70 O72 2.091 1_545 S
Co70 O74 2.004 . S
Co70 O80 2.021 . S
Co70 O82 2.137 1_545 S
Co70 O83 2.244 . S
O71 Co70 2.216 . S
O71 C78 1.247 1_545 S
O72 Co70 2.091 1_565 S
O72 C78 1.261 . S
C73 O82 1.247 1_545 S
C73 O83 1.272 . S
O74 Co70 2.004 . S
O74 C79 1.259 . S
Co75 O76 2.061 . S
Co75 O81 2.052 . S
Co75 O83 2.135 . S
O76 Co75 2.061 . S
O76 C79 1.235 . S
C77 O80 1.238 . S
C77 O81 1.241 . S
C78 O71 1.247 1_565 S
C78 O72 1.261 . S
C79 O74 1.259 . S
C79 O76 1.235 . S
O80 Co70 2.021 . S
O80 C77 1.238 . S
O81 Co75 2.052 . S
O81 C77 1.241 . S
O82 Co70 2.137 1_565 S
O82 C73 1.247 1_565 S
O83 Co70 2.244 . S
O83 C73 1.272 . S
O83 Co75 2.135 . S
Co84 O85 2.216 . S
Co84 O86 2.091 . S
Co84 O88 2.004 . S
Co84 O94 2.021 . S
Co84 O96 2.137 . S
Co84 O97 2.244 . S
O85 Co84 2.216 . S
O85 C92 1.247 . S
O86 Co84 2.091 . S
O86 C92 1.261 . S
C87 O96 1.247 . S
C87 O97 1.272 . S
O88 Co84 2.004 . S
O88 C93 1.259 . S
Co89 O90 2.061 . S
Co89 O95 2.052 . S
Co89 O97 2.135 . S
O90 Co89 2.061 . S
O90 C93 1.235 . S
C91 O94 1.238 . S
C91 O95 1.241 . S
C92 O85 1.247 . S
C92 O86 1.261 . S
C93 O88 1.259 . S
C93 O90 1.235 . S
O94 Co84 2.021 . S
O94 C91 1.238 . S
O95 Co89 2.052 . S
O95 C91 1.241 . S
O96 Co84 2.137 . S
O96 C87 1.247 . S
O97 Co84 2.244 . S
O97 C87 1.272 . S
O97 Co89 2.135 . S
Co98 O99 2.216 . S
Co98 O100 2.091 . S
Co98 O102 2.004 . S
Co98 O108 2.021 . S
Co98 O110 2.137 . S
Co98 O111 2.244 . S
O99 Co98 2.216 . S
O99 C106 1.247 . S
O100 Co98 2.091 . S
O100 C106 1.261 . S
C101 O110 1.247 . S
C101 O111 1.272 . S
O102 Co98 2.004 . S
O102 C107 1.259 . S
Co103 O104 2.061 . S
Co103 O109 2.052 . S
Co103 O111 2.135 1_565 S
O104 Co103 2.061 . S
O104 C107 1.235 1_565 S
C105 O108 1.238 1_565 S
C105 O109 1.241 . S
C106 O99 1.247 . S
C106 O100 1.261 . S
C107 O102 1.259 . S
C107 O104 1.235 1_545 S
O108 Co98 2.021 . S
O108 C105 1.238 1_545 S
O109 Co103 2.052 . S
O109 C105 1.241 . S
O110 Co98 2.137 . S
O110 C101 1.247 . S
O111 Co98 2.244 . S
O111 C101 1.272 . S
O111 Co103 2.135 1_545 S
Co112 O113 2.216 . S
Co112 O114 2.091 . S
Co112 O116 2.004 . S
Co112 O122 2.021 . S
Co112 O124 2.137 . S
Co112 O125 2.244 . S
O113 Co112 2.216 . S
O113 C120 1.247 . S
O114 Co112 2.091 . S
O114 C120 1.261 . S
C115 O124 1.247 . S
C115 O125 1.272 . S
O116 Co112 2.004 . S
O116 C121 1.259 . S
Co117 O118 2.061 . S
Co117 O123 2.052 . S
Co117 O125 2.135 . S
O118 Co117 2.061 . S
O118 C121 1.235 . S
C119 O122 1.238 . S
C119 O123 1.241 . S
C120 O113 1.247 . S
C120 O114 1.261 . S
C121 O116 1.259 . S
C121 O118 1.235 . S
O122 Co112 2.021 . S
O122 C119 1.238 . S
O123 Co117 2.052 . S
O123 C119 1.241 . S
O124 Co112 2.137 . S
O124 C115 1.247 . S
O125 Co112 2.244 . S
O125 C115 1.272 . S
O125 Co117 2.135 . S
Co126 O127 2.216 . S
Co126 O128 2.091 . S
Co126 O130 2.004 . S
Co126 O136 2.021 . S
Co126 O138 2.137 . S
Co126 O139 2.244 . S
O127 Co126 2.216 . S
O127 C134 1.247 . S
O128 Co126 2.091 . S
O128 C134 1.261 . S
C129 O138 1.247 . S
C129 O139 1.272 . S
O130 Co126 2.004 . S
O130 C135 1.259 . S
Co131 O132 2.061 . S
Co131 O137 2.052 . S
Co131 O139 2.135 . S
O132 Co131 2.061 . S
O132 C135 1.235 . S
C133 O136 1.238 . S
C133 O137 1.241 . S
C134 O127 1.247 . S
C134 O128 1.261 . S
C135 O130 1.259 . S
C135 O132 1.235 . S
O136 Co126 2.021 . S
O136 C133 1.238 . S
O137 Co131 2.052 . S
O137 C133 1.241 . S
O138 Co126 2.137 . S
O138 C129 1.247 . S
O139 Co126 2.244 . S
O139 C129 1.272 . S
O139 Co131 2.135 . S
Co140 O141 2.216 . S
Co140 O142 2.091 . S
Co140 O144 2.004 1_554 S
Co140 O150 2.021 1_554 S
Co140 O152 2.137 . S
Co140 O153 2.244 . S
O141 Co140 2.216 . S
O141 C148 1.247 . S
O142 Co140 2.091 . S
O142 C148 1.261 . S
C143 O152 1.247 . S
C143 O153 1.272 . S
O144 Co140 2.004 1_556 S
O144 C149 1.259 . S
Co145 O146 2.061 1_554 S
Co145 O151 2.054 . S
Co145 O153 2.135 . S
O146 Co145 2.061 1_556 S
O146 C149 1.235 . S
C147 O150 1.238 . S
C147 O151 1.236 1_556 S
C148 O141 1.247 . S
C148 O142 1.261 . S
C149 O144 1.259 . S
C149 O146 1.235 . S
O150 Co140 2.021 1_556 S
O150 C147 1.238 . S
O151 Co145 2.054 . S
O151 C147 1.236 1_554 S
O152 Co140 2.137 . S
O152 C143 1.247 . S
O153 Co140 2.244 . S
O153 C143 1.272 . S
O153 Co145 2.135 . S
Co154 O155 2.216 . S
Co154 O156 2.091 . S
Co154 O158 2.004 . S
Co154 O164 2.021 . S
Co154 O166 2.137 . S
Co154 O167 2.244 . S
O155 Co154 2.216 . S
O155 C162 1.247 . S
O156 Co154 2.091 . S
O156 C162 1.261 . S
C157 O166 1.247 . S
C157 O167 1.272 . S
O158 Co154 2.004 . S
O158 C163 1.259 . S
Co159 O160 2.061 . S
Co159 O165 2.052 . S
Co159 O167 2.135 . S
O160 Co159 2.061 . S
O160 C163 1.235 . S
C161 O164 1.238 . S
C161 O165 1.241 . S
C162 O155 1.247 . S
C162 O156 1.261 . S
C163 O158 1.259 . S
C163 O160 1.235 . S
O164 Co154 2.021 . S
O164 C161 1.238 . S
O165 Co159 2.052 . S
O165 C161 1.241 . S
O166 Co154 2.137 . S
O166 C157 1.247 . S
O167 Co154 2.244 . S
O167 C157 1.272 . S
O167 Co159 2.135 . S
Co168 O169 2.216 . S
Co168 O170 2.091 . S
Co168 O172 2.004 . S
Co168 O178 2.021 . S
Co168 O180 2.137 . S
Co168 O181 2.244 . S
O169 Co168 2.216 . S
O169 C176 1.247 . S
O170 Co168 2.091 . S
O170 C176 1.261 . S
C171 O180 1.247 . S
C171 O181 1.272 . S
O172 Co168 2.004 . S
O172 C177 1.259 . S
Co173 O174 2.061 . S
Co173 O179 2.052 . S
Co173 O181 2.135 . S
O174 Co173 2.061 . S
O174 C177 1.235 . S
C175 O178 1.238 . S
C175 O179 1.241 . S
C176 O169 1.247 . S
C176 O170 1.261 . S
C177 O172 1.259 . S
C177 O174 1.235 . S
O178 Co168 2.021 . S
O178 C175 1.238 . S
O179 Co173 2.052 . S
O179 C175 1.241 . S
O180 Co168 2.137 . S
O180 C171 1.247 . S
O181 Co168 2.244 . S
O181 C171 1.272 . S
O181 Co173 2.135 . S
Co182 O183 2.216 . S
Co182 O184 2.091 . S
Co182 O186 2.004 . S
Co182 O192 2.021 . S
Co182 O194 2.137 . S
Co182 O195 2.244 . S
O183 Co182 2.216 . S
O183 C190 1.247 . S
O184 Co182 2.091 . S
O184 C190 1.261 . S
C185 O194 1.247 . S
C185 O195 1.272 . S
O186 Co182 2.004 . S
O186 C191 1.259 . S
Co187 O188 2.061 . S
Co187 O193 2.052 . S
Co187 O195 2.135 . S
O188 Co187 2.061 . S
O188 C191 1.235 . S
C189 O192 1.238 . S
C189 O193 1.241 . S
C190 O183 1.247 . S
C190 O184 1.261 . S
C191 O186 1.259 . S
C191 O188 1.235 . S
O192 Co182 2.021 . S
O192 C189 1.238 . S
O193 Co187 2.052 . S
O193 C189 1.241 . S
O194 Co182 2.137 . S
O194 C185 1.247 . S
O195 Co182 2.244 . S
O195 C185 1.272 . S
O195 Co187 2.135 . S
Co196 O197 2.216 1_554 S
Co196 O198 2.091 . S
Co196 O200 2.004 . S
Co196 O206 2.021 . S
Co196 O208 2.137 1_554 S
Co196 O209 2.244 1_554 S
O197 Co196 2.216 1_556 S
O197 C204 1.247 . S
O198 Co196 2.091 . S
O198 C204 1.261 1_554 S
C199 O208 1.247 . S
C199 O209 1.272 . S
O200 Co196 2.004 . S
O200 C205 1.259 . S
Co201 O202 2.061 . S
Co201 O207 2.052 . S
Co201 O209 2.135 1_554 S
O202 Co201 2.061 . S
O202 C205 1.235 . S
C203 O206 1.238 . S
C203 O207 1.241 . S
C204 O197 1.247 . S
C204 O198 1.261 1_556 S
C205 O200 1.259 . S
C205 O202 1.235 . S
O206 Co196 2.021 . S
O206 C203 1.238 . S
O207 Co201 2.052 . S
O207 C203 1.241 . S
O208 Co196 2.137 1_556 S
O208 C199 1.247 . S
O209 Co196 2.244 1_556 S
O209 C199 1.272 . S
O209 Co201 2.135 1_556 S
Co210 O211 2.216 . S
Co210 O212 2.091 . S
Co210 O214 2.004 . S
Co210 O220 2.021 . S
Co210 O222 2.137 . S
Co210 O223 2.244 . S
O211 Co210 2.216 . S
O211 C218 1.247 . S
O212 Co210 2.091 . S
O212 C218 1.261 . S
C213 O222 1.247 . S
C213 O223 1.272 . S
O214 Co210 2.004 . S
O214 C219 1.259 . S
Co215 O216 2.061 . S
Co215 O221 2.052 . S
Co215 O223 2.135 . S
O216 Co215 2.061 . S
O216 C219 1.235 . S
C217 O220 1.238 . S
C217 O221 1.241 . S
C218 O211 1.247 . S
C218 O212 1.261 . S
C219 O214 1.259 . S
C219 O216 1.235 . S
O220 Co210 2.021 . S
O220 C217 1.238 . S
O221 Co215 2.052 . S
O221 C217 1.241 . S
O222 Co210 2.137 . S
O222 C213 1.247 . S
O223 Co210 2.244 . S
O223 C213 1.272 . S
O223 Co215 2.135 . S
H224 C236 0.930 . S
H225 C238 0.930 . S
H226 C239 0.930 . S
H227 C243 0.959 . S
H228 C243 0.959 . S
H229 C243 0.961 . S
H230 C244 0.960 . S
H231 C244 0.961 . S
H232 C244 0.959 . S
H233 C247 0.929 . S
H234 C248 0.931 . S
H235 C250 0.930 . S
C236 H224 0.930 . S
C236 C237 1.399 . S
C236 C241 1.399 . S
C237 C236 1.399 . S
C237 C238 1.376 . S
C238 H225 0.930 . S
C238 C237 1.376 . S
C238 C239 1.388 . S
C239 H226 0.930 . S
C239 C238 1.388 . S
C239 C240 1.390 . S
C240 C239 1.390 . S
C240 C241 1.394 . S
C240 C246 1.465 . S
C241 C236 1.399 . S
C241 C240 1.394 . S
C241 C242 1.516 . S
C242 C241 1.516 . S
C242 C243 1.502 . S
C242 C244 1.561 . S
C242 C245 1.526 . S
C243 H227 0.959 . S
C243 H228 0.959 . S
C243 H229 0.961 . S
C243 C242 1.502 . S
C244 H230 0.960 . S
C244 H231 0.961 . S
C244 H232 0.959 . S
C244 C242 1.561 . S
C245 C242 1.526 . S
C245 C246 1.396 . S
C245 C250 1.390 . S
C246 C240 1.465 . S
C246 C245 1.396 . S
C246 C247 1.399 . S
C247 H233 0.929 . S
C247 C246 1.399 . S
C247 C248 1.385 . S
C248 H234 0.931 . S
C248 C247 1.385 . S
C248 C249 1.389 . S
C249 C248 1.389 . S
C249 C250 1.387 . S
C250 H235 0.930 . S
C250 C245 1.390 . S
C250 C249 1.387 . S
H251 C263 0.930 1_565 S
H252 C265 0.930 . S
H253 C266 0.930 . S
H254 C270 0.959 . S
H255 C270 0.959 . S
H256 C270 0.961 . S
H257 C271 0.960 . S
H258 C271 0.961 . S
H259 C271 0.959 . S
H260 C274 0.929 . S
H261 C275 0.931 . S
H262 C277 0.906 1_565 S
C263 H251 0.930 1_545 S
C263 C264 1.399 . S
C263 C268 1.399 . S
C264 C263 1.399 . S
C264 C265 1.376 . S
C265 H252 0.930 . S
C265 C264 1.376 . S
C265 C266 1.388 . S
C266 H253 0.930 . S
C266 C265 1.388 . S
C266 C267 1.390 . S
C267 C266 1.390 . S
C267 C268 1.394 . S
C267 C273 1.465 1_655 S
C268 C263 1.399 . S
C268 C267 1.394 . S
C268 C269 1.535 1_545 S
C269 C268 1.535 1_565 S
C269 C270 1.522 . S
C269 C271 1.539 1_655 S
C269 C272 1.508 1_665 S
C270 H254 0.959 . S
C270 H255 0.959 . S
C270 H256 0.961 . S
C270 C269 1.522 . S
C271 H257 0.960 . S
C271 H258 0.961 . S
C271 H259 0.959 . S
C271 C269 1.539 1_455 S
C272 C269 1.508 1_445 S
C272 C273 1.396 . S
C272 C277 1.397 . S
C273 C267 1.465 1_455 S
C273 C272 1.396 . S
C273 C274 1.399 . S
C274 H260 0.929 . S
C274 C273 1.399 . S
C274 C275 1.385 . S
C275 H261 0.931 . S
C275 C274 1.385 . S
C275 C276 1.389 . S
C276 C275 1.389 . S
C276 C277 1.404 . S
C277 H262 0.906 1_545 S
C277 C272 1.397 . S
C277 C276 1.404 . S
H278 C290 0.930 . S
H279 C292 0.930 . S
H280 C293 0.930 . S
H281 C297 0.959 . S
H282 C297 0.959 . S
H283 C297 0.961 . S
H284 C298 0.960 . S
H285 C298 0.961 . S
H286 C298 0.959 . S
H287 C301 0.929 . S
H288 C302 0.931 . S
H289 C304 0.930 . S
C290 H278 0.930 . S
C290 C291 1.399 . S
C290 C295 1.399 . S
C291 C290 1.399 . S
C291 C292 1.376 . S
C292 H279 0.930 . S
C292 C291 1.376 . S
C292 C293 1.388 . S
C293 H280 0.930 . S
C293 C292 1.388 . S
C293 C294 1.390 . S
C294 C293 1.390 . S
C294 C295 1.394 . S
C294 C300 1.465 . S
C295 C290 1.399 . S
C295 C294 1.394 . S
C295 C296 1.516 . S
C296 C295 1.516 . S
C296 C297 1.502 . S
C296 C298 1.561 . S
C296 C299 1.526 . S
C297 H281 0.959 . S
C297 H282 0.959 . S
C297 H283 0.961 . S
C297 C296 1.502 . S
C298 H284 0.960 . S
C298 H285 0.961 . S
C298 H286 0.959 . S
C298 C296 1.561 . S
C299 C296 1.526 . S
C299 C300 1.396 . S
C299 C304 1.390 . S
C300 C294 1.465 . S
C300 C299 1.396 . S
C300 C301 1.399 . S
C301 H287 0.929 . S
C301 C300 1.399 . S
C301 C302 1.385 . S
C302 H288 0.931 . S
C302 C301 1.385 . S
C302 C303 1.389 . S
C303 C302 1.389 . S
C303 C304 1.387 . S
C304 H289 0.930 . S
C304 C299 1.390 . S
C304 C303 1.387 . S
H305 C317 0.930 . S
H306 C319 0.930 . S
H307 C320 0.930 . S
H308 C324 0.959 1_565 S
H309 C324 0.959 . S
H310 C324 0.961 . S
H311 C325 0.960 . S
H312 C325 0.961 . S
H313 C325 0.959 . S
H314 C328 0.929 . S
H315 C329 0.931 . S
H316 C331 0.930 . S
C317 H305 0.930 . S
C317 C318 1.399 . S
C317 C322 1.399 . S
C318 C317 1.399 . S
C318 C319 1.376 . S
C319 H306 0.930 . S
C319 C318 1.376 . S
C319 C320 1.388 . S
C320 H307 0.930 . S
C320 C319 1.388 . S
C320 C321 1.390 . S
C321 C320 1.390 . S
C321 C322 1.394 . S
C321 C327 1.465 . S
C322 C317 1.399 . S
C322 C321 1.394 . S
C322 C323 1.516 1_554 S
C323 C322 1.516 1_556 S
C323 C324 1.502 . S
C323 C325 1.561 . S
C323 C326 1.526 . S
C324 H308 0.959 1_545 S
C324 H309 0.959 . S
C324 H310 0.961 . S
C324 C323 1.502 . S
C325 H311 0.960 . S
C325 H312 0.961 . S
C325 H313 0.959 . S
C325 C323 1.561 . S
C326 C323 1.526 . S
C326 C327 1.396 1_556 S
C326 C331 1.390 . S
C327 C321 1.465 . S
C327 C326 1.396 1_554 S
C327 C328 1.399 . S
C328 H314 0.929 . S
C328 C327 1.399 . S
C328 C329 1.385 1_554 S
C329 H315 0.931 . S
C329 C328 1.385 1_556 S
C329 C330 1.389 . S
C330 C329 1.389 . S
C330 C331 1.387 . S
C331 H316 0.930 . S
C331 C326 1.390 . S
C331 C330 1.387 . S
H332 C344 0.930 . S
H333 C346 0.930 . S
H334 C347 0.930 . S
H335 C351 0.959 . S
H336 C351 0.959 . S
H337 C351 0.961 . S
H338 C352 0.960 . S
H339 C352 0.961 . S
H340 C352 0.959 . S
H341 C355 0.929 . S
H342 C356 0.931 . S
H343 C358 0.930 . S
C344 H332 0.930 . S
C344 C345 1.399 . S
C344 C349 1.399 . S
C345 C344 1.399 . S
C345 C346 1.376 . S
C346 H333 0.930 . S
C346 C345 1.376 . S
C346 C347 1.388 . S
C347 H334 0.930 . S
C347 C346 1.388 . S
C347 C348 1.390 . S
C348 C347 1.390 . S
C348 C349 1.394 . S
C348 C354 1.465 . S
C349 C344 1.399 . S
C349 C348 1.394 . S
C349 C350 1.516 . S
C350 C349 1.516 . S
C350 C351 1.502 . S
C350 C352 1.561 . S
C350 C353 1.526 . S
C351 H335 0.959 . S
C351 H336 0.959 . S
C351 H337 0.961 . S
C351 C350 1.502 . S
C352 H338 0.960 . S
C352 H339 0.961 . S
C352 H340 0.959 . S
C352 C350 1.561 . S
C353 C350 1.526 . S
C353 C354 1.396 . S
C353 C358 1.390 . S
C354 C348 1.465 . S
C354 C353 1.396 . S
C354 C355 1.399 . S
C355 H341 0.929 . S
C355 C354 1.399 . S
C355 C356 1.385 . S
C356 H342 0.931 . S
C356 C355 1.385 . S
C356 C357 1.389 . S
C357 C356 1.389 . S
C357 C358 1.387 . S
C358 H343 0.930 . S
C358 C353 1.390 . S
C358 C357 1.387 . S
H359 C371 0.930 . S
H360 C373 0.930 . S
H361 C374 0.930 . S
H362 C378 0.959 . S
H363 C378 0.959 . S
H364 C378 0.961 . S
H365 C379 0.960 . S
H366 C379 0.961 . S
H367 C379 0.959 . S
H368 C382 0.929 . S
H369 C383 0.931 . S
H370 C385 0.930 . S
C371 H359 0.930 . S
C371 C372 1.399 . S
C371 C376 1.399 . S
C372 C371 1.399 . S
C372 C373 1.376 1_545 S
C373 H360 0.930 . S
C373 C372 1.376 1_565 S
C373 C374 1.388 . S
C374 H361 0.930 . S
C374 C373 1.388 . S
C374 C375 1.390 1_565 S
C375 C374 1.390 1_545 S
C375 C376 1.394 . S
C375 C381 1.465 . S
C376 C371 1.399 . S
C376 C375 1.394 . S
C376 C377 1.516 . S
C377 C376 1.516 . S
C377 C378 1.502 . S
C377 C379 1.561 . S
C377 C380 1.526 . S
C378 H362 0.959 . S
C378 H363 0.959 . S
C378 H364 0.961 . S
C378 C377 1.502 . S
C379 H365 0.960 . S
C379 H366 0.961 . S
C379 H367 0.959 . S
C379 C377 1.561 . S
C380 C377 1.526 . S
C380 C381 1.396 . S
C380 C385 1.390 . S
C381 C375 1.465 . S
C381 C380 1.396 . S
C381 C382 1.399 1_545 S
C382 H368 0.929 . S
C382 C381 1.399 1_565 S
C382 C383 1.385 . S
C383 H369 0.931 . S
C383 C382 1.385 . S
C383 C384 1.389 1_565 S
C384 C383 1.389 1_545 S
C384 C385 1.387 . S
C385 H370 0.930 . S
C385 C380 1.390 . S
C385 C384 1.387 . S
H386 C398 0.930 . S
H387 C400 0.930 . S
H388 C401 0.930 . S
H389 C405 0.959 . S
H390 C405 0.959 . S
H391 C405 0.961 . S
H392 C406 0.960 . S
H393 C406 0.961 . S
H394 C406 0.959 . S
H395 C409 0.929 . S
H396 C410 0.931 . S
H397 C412 0.930 . S
C398 H386 0.930 . S
C398 C399 1.399 . S
C398 C403 1.399 . S
C399 C398 1.399 . S
C399 C400 1.376 . S
C400 H387 0.930 . S
C400 C399 1.376 . S
C400 C401 1.388 . S
C401 H388 0.930 . S
C401 C400 1.388 . S
C401 C402 1.390 . S
C402 C401 1.390 . S
C402 C403 1.394 . S
C402 C408 1.465 . S
C403 C398 1.399 . S
C403 C402 1.394 . S
C403 C404 1.516 . S
C404 C403 1.516 . S
C404 C405 1.502 . S
C404 C406 1.561 . S
C404 C407 1.526 . S
C405 H389 0.959 . S
C405 H390 0.959 . S
C405 H391 0.961 . S
C405 C404 1.502 . S
C406 H392 0.960 . S
C406 H393 0.961 . S
C406 H394 0.959 . S
C406 C404 1.561 . S
C407 C404 1.526 . S
C407 C408 1.396 . S
C407 C412 1.390 . S
C408 C402 1.465 . S
C408 C407 1.396 . S
C408 C409 1.399 . S
C409 H395 0.929 . S
C409 C408 1.399 . S
C409 C410 1.385 . S
C410 H396 0.931 . S
C410 C409 1.385 . S
C410 C411 1.389 . S
C411 C410 1.389 . S
C411 C412 1.387 . S
C412 H397 0.930 . S
C412 C407 1.390 . S
C412 C411 1.387 . S
H413 C425 0.930 . S
H414 C427 0.930 . S
H415 C428 0.930 . S
H416 C432 0.959 . S
H417 C432 0.959 . S
H418 C432 0.961 . S
H419 C433 0.960 . S
H420 C433 0.961 1_554 S
H421 C433 0.959 . S
H422 C436 0.929 . S
H423 C437 0.931 . S
H424 C439 0.930 . S
C425 H413 0.930 . S
C425 C426 1.399 . S
C425 C430 1.399 . S
C426 C425 1.399 . S
C426 C427 1.376 1_545 S
C427 H414 0.930 . S
C427 C426 1.376 1_565 S
C427 C428 1.388 . S
C428 H415 0.930 . S
C428 C427 1.388 . S
C428 C429 1.390 1_565 S
C429 C428 1.390 1_545 S
C429 C430 1.394 . S
C429 C435 1.465 1_456 S
C430 C425 1.399 . S
C430 C429 1.394 . S
C430 C431 1.539 1_556 S
C431 C430 1.539 1_554 S
C431 C432 1.525 . S
C431 C433 1.535 1_454 S
C431 C434 1.505 1_455 S
C432 H416 0.959 . S
C432 H417 0.959 . S
C432 H418 0.961 . S
C432 C431 1.525 . S
C433 H419 0.960 . S
C433 H420 0.961 1_556 S
C433 H421 0.959 . S
C433 C431 1.535 1_656 S
C434 C431 1.505 1_655 S
C434 C435 1.396 . S
C434 C439 1.390 . S
C435 C429 1.465 1_654 S
C435 C434 1.396 . S
C435 C436 1.399 1_545 S
C436 H422 0.929 . S
C436 C435 1.399 1_565 S
C436 C437 1.385 . S
C437 H423 0.931 . S
C437 C436 1.385 . S
C437 C438 1.389 1_565 S
C438 C437 1.389 1_545 S
C438 C439 1.387 . S
C439 H424 0.930 . S
C439 C434 1.390 . S
C439 C438 1.387 . S
H440 C452 0.930 . S
H441 C454 0.930 . S
H442 C455 0.930 . S
H443 C459 0.959 . S
H444 C459 0.959 . S
H445 C459 0.961 . S
H446 C460 0.960 . S
H447 C460 0.961 . S
H448 C460 0.959 . S
H449 C463 0.929 . S
H450 C464 0.931 . S
H451 C466 0.930 . S
C452 H440 0.930 . S
C452 C453 1.399 . S
C452 C457 1.399 . S
C453 C452 1.399 . S
C453 C454 1.376 . S
C454 H441 0.930 . S
C454 C453 1.376 . S
C454 C455 1.388 . S
C455 H442 0.930 . S
C455 C454 1.388 . S
C455 C456 1.390 . S
C456 C455 1.390 . S
C456 C457 1.394 . S
C456 C462 1.465 . S
C457 C452 1.399 . S
C457 C456 1.394 . S
C457 C458 1.516 . S
C458 C457 1.516 . S
C458 C459 1.502 . S
C458 C460 1.561 . S
C458 C461 1.526 . S
C459 H443 0.959 . S
C459 H444 0.959 . S
C459 H445 0.961 . S
C459 C458 1.502 . S
C460 H446 0.960 . S
C460 H447 0.961 . S
C460 H448 0.959 . S
C460 C458 1.561 . S
C461 C458 1.526 . S
C461 C462 1.396 . S
C461 C466 1.390 . S
C462 C456 1.465 . S
C462 C461 1.396 . S
C462 C463 1.399 . S
C463 H449 0.929 . S
C463 C462 1.399 . S
C463 C464 1.385 . S
C464 H450 0.931 . S
C464 C463 1.385 . S
C464 C465 1.389 . S
C465 C464 1.389 . S
C465 C466 1.387 . S
C466 H451 0.930 . S
C466 C461 1.390 . S
C466 C465 1.387 . S
H467 C479 0.930 . S
H468 C481 0.930 . S
H469 C482 0.930 . S
H470 C486 0.959 . S
H471 C486 0.959 . S
H472 C486 0.961 . S
H473 C487 0.960 . S
H474 C487 0.961 . S
H475 C487 0.959 . S
H476 C490 0.929 . S
H477 C491 0.931 . S
H478 C493 0.930 . S
C479 H467 0.930 . S
C479 C480 1.399 . S
C479 C484 1.399 . S
C480 C479 1.399 . S
C480 C481 1.376 . S
C481 H468 0.930 . S
C481 C480 1.376 . S
C481 C482 1.388 . S
C482 H469 0.930 . S
C482 C481 1.388 . S
C482 C483 1.390 . S
C483 C482 1.390 . S
C483 C484 1.394 . S
C483 C489 1.465 . S
C484 C479 1.399 . S
C484 C483 1.394 . S
C484 C485 1.516 . S
C485 C484 1.516 . S
C485 C486 1.502 . S
C485 C487 1.561 . S
C485 C488 1.526 . S
C486 H470 0.959 . S
C486 H471 0.959 . S
C486 H472 0.961 . S
C486 C485 1.502 . S
C487 H473 0.960 . S
C487 H474 0.961 . S
C487 H475 0.959 . S
C487 C485 1.561 . S
C488 C485 1.526 . S
C488 C489 1.396 . S
C488 C493 1.390 . S
C489 C483 1.465 . S
C489 C488 1.396 . S
C489 C490 1.399 . S
C490 H476 0.929 . S
C490 C489 1.399 . S
C490 C491 1.385 . S
C491 H477 0.931 . S
C491 C490 1.385 . S
C491 C492 1.389 . S
C492 C491 1.389 . S
C492 C493 1.387 . S
C493 H478 0.930 . S
C493 C488 1.390 . S
C493 C492 1.387 . S
H494 C506 0.930 . S
H495 C508 0.930 . S
H496 C509 0.930 . S
H497 C513 0.959 . S
H498 C513 0.959 . S
H499 C513 0.961 . S
H500 C514 0.960 . S
H501 C514 0.961 . S
H502 C514 0.959 . S
H503 C517 0.929 . S
H504 C518 0.931 . S
H505 C520 0.930 . S
C506 H494 0.930 . S
C506 C507 1.399 . S
C506 C511 1.399 . S
C507 C506 1.399 . S
C507 C508 1.376 . S
C508 H495 0.930 . S
C508 C507 1.376 . S
C508 C509 1.388 . S
C509 H496 0.930 . S
C509 C508 1.388 . S
C509 C510 1.390 . S
C510 C509 1.390 . S
C510 C511 1.394 . S
C510 C516 1.465 . S
C511 C506 1.399 . S
C511 C510 1.394 . S
C511 C512 1.516 . S
C512 C511 1.516 . S
C512 C513 1.502 . S
C512 C514 1.561 . S
C512 C515 1.526 . S
C513 H497 0.959 . S
C513 H498 0.959 . S
C513 H499 0.961 . S
C513 C512 1.502 . S
C514 H500 0.960 . S
C514 H501 0.961 . S
C514 H502 0.959 . S
C514 C512 1.561 . S
C515 C512 1.526 . S
C515 C516 1.396 . S
C515 C520 1.390 . S
C516 C510 1.465 . S
C516 C515 1.396 . S
C516 C517 1.399 . S
C517 H503 0.929 . S
C517 C516 1.399 . S
C517 C518 1.385 . S
C518 H504 0.931 . S
C518 C517 1.385 . S
C518 C519 1.389 . S
C519 C518 1.389 . S
C519 C520 1.387 . S
C520 H505 0.930 . S
C520 C515 1.390 . S
C520 C519 1.387 . S
H521 C533 0.930 . S
H522 C535 0.930 . S
H523 C536 0.930 . S
H524 C540 0.959 . S
H525 C540 0.959 . S
H526 C540 0.961 . S
H527 C541 0.960 . S
H528 C541 0.961 . S
H529 C541 0.959 . S
H530 C544 0.929 . S
H531 C545 0.931 . S
H532 C547 0.930 . S
C533 H521 0.930 . S
C533 C534 1.399 . S
C533 C538 1.399 . S
C534 C533 1.399 . S
C534 C535 1.376 . S
C535 H522 0.930 . S
C535 C534 1.376 . S
C535 C536 1.388 . S
C536 H523 0.930 . S
C536 C535 1.388 . S
C536 C537 1.390 . S
C537 C536 1.390 . S
C537 C538 1.394 . S
C537 C543 1.465 . S
C538 C533 1.399 . S
C538 C537 1.394 . S
C538 C539 1.516 . S
C539 C538 1.516 . S
C539 C540 1.502 . S
C539 C541 1.561 . S
C539 C542 1.526 . S
C540 H524 0.959 . S
C540 H525 0.959 . S
C540 H526 0.961 . S
C540 C539 1.502 . S
C541 H527 0.960 . S
C541 H528 0.961 . S
C541 H529 0.959 . S
C541 C539 1.561 . S
C542 C539 1.526 . S
C542 C543 1.396 . S
C542 C547 1.390 . S
C543 C537 1.465 . S
C543 C542 1.396 . S
C543 C544 1.399 . S
C544 H530 0.929 . S
C544 C543 1.399 . S
C544 C545 1.385 . S
C545 H531 0.931 . S
C545 C544 1.385 . S
C545 C546 1.389 . S
C546 C545 1.389 . S
C546 C547 1.387 . S
C547 H532 0.930 . S
C547 C542 1.390 . S
C547 C546 1.387 . S
H548 C560 0.930 . S
H549 C562 0.930 . S
H550 C563 0.930 . S
H551 C567 0.959 . S
H552 C567 0.959 . S
H553 C567 0.961 . S
H554 C568 0.960 . S
H555 C568 0.961 . S
H556 C568 0.959 . S
H557 C571 0.929 1_554 S
H558 C572 0.931 . S
H559 C574 0.930 . S
C560 H548 0.930 . S
C560 C561 1.399 . S
C560 C565 1.399 . S
C561 C560 1.399 . S
C561 C562 1.376 . S
C562 H549 0.930 . S
C562 C561 1.376 . S
C562 C563 1.388 . S
C563 H550 0.930 . S
C563 C562 1.388 . S
C563 C564 1.390 . S
C564 C563 1.390 . S
C564 C565 1.394 . S
C564 C570 1.465 . S
C565 C560 1.399 . S
C565 C564 1.394 . S
C565 C566 1.516 . S
C566 C565 1.516 . S
C566 C567 1.502 1_554 S
C566 C568 1.561 . S
C566 C569 1.526 1_554 S
C567 H551 0.959 . S
C567 H552 0.959 . S
C567 H553 0.961 . S
C567 C566 1.502 1_556 S
C568 H554 0.960 . S
C568 H555 0.961 . S
C568 H556 0.959 . S
C568 C566 1.561 . S
C569 C566 1.526 1_556 S
C569 C570 1.396 1_556 S
C569 C574 1.390 . S
C570 C564 1.465 . S
C570 C569 1.396 1_554 S
C570 C571 1.399 1_554 S
C571 H557 0.929 1_556 S
C571 C570 1.399 1_556 S
C571 C572 1.385 . S
C572 H558 0.931 . S
C572 C571 1.385 . S
C572 C573 1.389 . S
C573 C572 1.389 . S
C573 C574 1.387 . S
C574 H559 0.930 . S
C574 C569 1.390 . S
C574 C573 1.387 . S
H575 C587 0.930 . S
H576 C589 0.930 . S
H577 C590 0.930 . S
H578 C594 0.959 . S
H579 C594 0.959 . S
H580 C594 0.961 . S
H581 C595 0.960 . S
H582 C595 0.961 . S
H583 C595 0.959 . S
H584 C598 0.929 . S
H585 C599 0.931 . S
H586 C601 0.930 . S
C587 H575 0.930 . S
C587 C588 1.399 . S
C587 C592 1.399 . S
C588 C587 1.399 . S
C588 C589 1.376 . S
C589 H576 0.930 . S
C589 C588 1.376 . S
C589 C590 1.388 . S
C590 H577 0.930 . S
C590 C589 1.388 . S
C590 C591 1.390 . S
C591 C590 1.390 . S
C591 C592 1.394 . S
C591 C597 1.465 1_455 S
C592 C587 1.399 . S
C592 C591 1.394 . S
C592 C593 1.516 . S
C593 C592 1.516 . S
C593 C594 1.502 1_455 S
C593 C595 1.561 . S
C593 C596 1.526 1_455 S
C594 H578 0.959 . S
C594 H579 0.959 . S
C594 H580 0.961 . S
C594 C593 1.502 1_655 S
C595 H581 0.960 . S
C595 H582 0.961 . S
C595 H583 0.959 . S
C595 C593 1.561 . S
C596 C593 1.526 1_655 S
C596 C597 1.396 . S
C596 C601 1.390 . S
C597 C591 1.465 1_655 S
C597 C596 1.396 . S
C597 C598 1.399 . S
C598 H584 0.929 . S
C598 C597 1.399 . S
C598 C599 1.385 . S
C599 H585 0.931 . S
C599 C598 1.385 . S
C599 C600 1.389 . S
C600 C599 1.389 . S
C600 C601 1.387 . S
C601 H586 0.930 . S
C601 C596 1.390 . S
C601 C600 1.387 . S
H602 C614 0.930 . S
H603 C616 0.930 . S
H604 C617 0.930 . S
H605 C621 0.959 . S
H606 C621 0.959 . S
H607 C621 0.961 . S
H608 C622 0.960 . S
H609 C622 0.961 1_655 S
H610 C622 0.959 1_556 S
H611 C625 0.929 1_455 S
H612 C626 0.931 . S
H613 C628 0.930 . S
C614 H602 0.930 . S
C614 C615 1.399 . S
C614 C619 1.399 . S
C615 C614 1.399 . S
C615 C616 1.376 . S
C616 H603 0.930 . S
C616 C615 1.376 . S
C616 C617 1.388 . S
C617 H604 0.930 . S
C617 C616 1.388 . S
C617 C618 1.390 . S
C618 C617 1.390 . S
C618 C619 1.394 . S
C618 C624 1.465 1_454 S
C619 C614 1.399 . S
C619 C618 1.394 . S
C619 C620 1.516 1_455 S
C620 C619 1.516 1_655 S
C620 C621 1.502 . S
C620 C622 1.561 1_655 S
C620 C623 1.526 1_554 S
C621 H605 0.959 . S
C621 H606 0.959 . S
C621 H607 0.961 . S
C621 C620 1.502 . S
C622 H608 0.960 . S
C622 H609 0.961 1_455 S
C622 H610 0.959 1_554 S
C622 C620 1.561 1_455 S
C623 C620 1.526 1_556 S
C623 C624 1.396 . S
C623 C628 1.390 . S
C624 C618 1.465 1_656 S
C624 C623 1.396 . S
C624 C625 1.399 . S
C625 H611 0.929 1_655 S
C625 C624 1.399 . S
C625 C626 1.385 . S
C626 H612 0.931 . S
C626 C625 1.385 . S
C626 C627 1.389 . S
C627 C626 1.389 . S
C627 C628 1.387 . S
C628 H613 0.930 . S
C628 C623 1.390 . S
C628 C627 1.387 . S
H629 C641 0.930 . S
H630 C643 0.930 . S
H631 C644 0.930 . S
H632 C648 0.959 . S
H633 C648 0.959 . S
H634 C648 0.961 . S
H635 C649 0.960 . S
H636 C649 0.961 . S
H637 C649 0.959 . S
H638 C652 0.929 . S
H639 C653 0.931 . S
H640 C655 0.930 . S
C641 H629 0.930 . S
C641 C642 1.399 . S
C641 C646 1.399 . S
C642 C641 1.399 . S
C642 C643 1.376 . S
C643 H630 0.930 . S
C643 C642 1.376 . S
C643 C644 1.388 . S
C644 H631 0.930 . S
C644 C643 1.388 . S
C644 C645 1.390 . S
C645 C644 1.390 . S
C645 C646 1.394 . S
C645 C651 1.465 . S
C646 C641 1.399 . S
C646 C645 1.394 . S
C646 C647 1.516 . S
C647 C646 1.516 . S
C647 C648 1.502 . S
C647 C649 1.561 . S
C647 C650 1.526 . S
C648 H632 0.959 . S
C648 H633 0.959 . S
C648 H634 0.961 . S
C648 C647 1.502 . S
C649 H635 0.960 . S
C649 H636 0.961 . S
C649 H637 0.959 . S
C649 C647 1.561 . S
C650 C647 1.526 . S
C650 C651 1.396 . S
C650 C655 1.390 . S
C651 C645 1.465 . S
C651 C650 1.396 . S
C651 C652 1.399 . S
C652 H638 0.929 . S
C652 C651 1.399 . S
C652 C653 1.385 . S
C653 H639 0.931 . S
C653 C652 1.385 . S
C653 C654 1.389 . S
C654 C653 1.389 . S
C654 C655 1.387 . S
C655 H640 0.930 . S
C655 C650 1.390 . S
C655 C654 1.387 . S
H656 C668 0.930 . S
H657 C670 0.930 . S
H658 C671 0.930 . S
H659 C675 0.959 . S
H660 C675 0.959 . S
H661 C675 0.961 . S
H662 C676 0.960 . S
H663 C676 0.961 . S
H664 C676 0.959 . S
H665 C679 0.929 . S
H666 C680 0.931 1_556 S
H667 C682 0.930 . S
C668 H656 0.930 . S
C668 C669 1.399 . S
C668 C673 1.399 . S
C669 C668 1.399 . S
C669 C670 1.376 . S
C670 H657 0.930 . S
C670 C669 1.376 . S
C670 C671 1.388 . S
C671 H658 0.930 . S
C671 C670 1.388 . S
C671 C672 1.390 . S
C672 C671 1.390 . S
C672 C673 1.394 . S
C672 C678 1.465 . S
C673 C668 1.399 . S
C673 C672 1.394 . S
C673 C674 1.516 . S
C674 C673 1.516 . S
C674 C675 1.502 . S
C674 C676 1.561 . S
C674 C677 1.526 . S
C675 H659 0.959 . S
C675 H660 0.959 . S
C675 H661 0.961 . S
C675 C674 1.502 . S
C676 H662 0.960 . S
C676 H663 0.961 . S
C676 H664 0.959 . S
C676 C674 1.561 . S
C677 C674 1.526 . S
C677 C678 1.396 . S
C677 C682 1.390 . S
C678 C672 1.465 . S
C678 C677 1.396 . S
C678 C679 1.399 . S
C679 H665 0.929 . S
C679 C678 1.399 . S
C679 C680 1.385 . S
C680 H666 0.931 1_554 S
C680 C679 1.385 . S
C680 C681 1.389 . S
C681 C680 1.389 . S
C681 C682 1.387 . S
C682 H667 0.930 . S
C682 C677 1.390 . S
C682 C681 1.387 . S
H683 C695 0.930 . S
H684 C697 0.930 . S
H685 C698 0.930 . S
H686 C702 0.959 . S
H687 C702 0.959 . S
H688 C702 0.961 . S
H689 C703 0.960 . S
H690 C703 0.961 . S
H691 C703 0.959 . S
H692 C706 0.929 . S
H693 C707 0.915 1_545 S
H694 C709 0.930 . S
C695 H683 0.930 . S
C695 C696 1.399 . S
C695 C700 1.399 . S
C696 C695 1.399 . S
C696 C697 1.376 . S
C697 H684 0.930 . S
C697 C696 1.376 . S
C697 C698 1.388 . S
C698 H685 0.930 . S
C698 C697 1.388 . S
C698 C699 1.390 . S
C699 C698 1.390 . S
C699 C700 1.394 . S
C699 C705 1.465 . S
C700 C695 1.399 . S
C700 C699 1.394 . S
C700 C701 1.516 . S
C701 C700 1.516 . S
C701 C702 1.502 . S
C701 C703 1.561 . S
C701 C704 1.526 . S
C702 H686 0.959 . S
C702 H687 0.959 . S
C702 H688 0.961 . S
C702 C701 1.502 . S
C703 H689 0.960 . S
C703 H690 0.961 . S
C703 H691 0.959 . S
C703 C701 1.561 . S
C704 C701 1.526 . S
C704 C705 1.396 . S
C704 C709 1.390 . S
C705 C699 1.465 . S
C705 C704 1.396 . S
C705 C706 1.399 . S
C706 H692 0.929 . S
C706 C705 1.399 . S
C706 C707 1.385 . S
C707 H693 0.915 1_565 S
C707 C706 1.385 . S
C707 C708 1.389 . S
C708 C707 1.389 . S
C708 C709 1.387 . S
C709 H694 0.930 . S
C709 C704 1.390 . S
C709 C708 1.387 . S
H710 C722 0.930 . S
H711 C724 0.930 . S
H712 C725 0.930 . S
H713 C729 0.959 . S
H714 C729 0.959 . S
H715 C729 0.961 . S
H716 C730 0.960 . S
H717 C730 0.961 . S
H718 C730 0.959 . S
H719 C733 0.929 . S
H720 C734 0.931 . S
H721 C736 0.930 . S
C722 H710 0.930 . S
C722 C723 1.399 . S
C722 C727 1.399 . S
C723 C722 1.399 . S
C723 C724 1.376 . S
C724 H711 0.930 . S
C724 C723 1.376 . S
C724 C725 1.388 . S
C725 H712 0.930 . S
C725 C724 1.388 . S
C725 C726 1.390 . S
C726 C725 1.390 . S
C726 C727 1.394 . S
C726 C732 1.465 . S
C727 C722 1.399 . S
C727 C726 1.394 . S
C727 C728 1.516 . S
C728 C727 1.516 . S
C728 C729 1.502 . S
C728 C730 1.561 . S
C728 C731 1.526 . S
C729 H713 0.959 . S
C729 H714 0.959 . S
C729 H715 0.961 . S
C729 C728 1.502 . S
C730 H716 0.960 . S
C730 H717 0.961 . S
C730 H718 0.959 . S
C730 C728 1.561 . S
C731 C728 1.526 . S
C731 C732 1.396 . S
C731 C736 1.390 . S
C732 C726 1.465 . S
C732 C731 1.396 . S
C732 C733 1.399 . S
C733 H719 0.929 . S
C733 C732 1.399 . S
C733 C734 1.385 . S
C734 H720 0.931 . S
C734 C733 1.385 . S
C734 C735 1.389 . S
C735 C734 1.389 . S
C735 C736 1.387 . S
C736 H721 0.930 . S
C736 C731 1.390 . S
C736 C735 1.387 . S
H737 C749 0.930 . S
H738 C751 0.930 . S
H739 C752 0.930 1_554 S
H740 C756 0.959 . S
H741 C756 0.959 . S
H742 C756 0.961 . S
H743 C757 0.960 . S
H744 C757 0.961 . S
H745 C757 0.959 . S
H746 C760 0.929 . S
H747 C761 0.931 . S
H748 C763 0.930 . S
C749 H737 0.930 . S
C749 C750 1.399 . S
C749 C754 1.399 . S
C750 C749 1.399 . S
C750 C751 1.376 1_556 S
C751 H738 0.930 . S
C751 C750 1.376 1_554 S
C751 C752 1.388 1_554 S
C752 H739 0.930 1_556 S
C752 C751 1.388 1_556 S
C752 C753 1.390 . S
C753 C752 1.390 . S
C753 C754 1.394 . S
C753 C759 1.465 . S
C754 C749 1.399 . S
C754 C753 1.394 . S
C754 C755 1.516 . S
C755 C754 1.516 . S
C755 C756 1.502 . S
C755 C757 1.561 . S
C755 C758 1.526 . S
C756 H740 0.959 . S
C756 H741 0.959 . S
C756 H742 0.961 . S
C756 C755 1.502 . S
C757 H743 0.960 . S
C757 H744 0.961 . S
C757 H745 0.959 . S
C757 C755 1.561 . S
C758 C755 1.526 . S
C758 C759 1.396 . S
C758 C763 1.390 . S
C759 C753 1.465 . S
C759 C758 1.396 . S
C759 C760 1.399 . S
C760 H746 0.929 . S
C760 C759 1.399 . S
C760 C761 1.385 . S
C761 H747 0.931 . S
C761 C760 1.385 . S
C761 C762 1.389 . S
C762 C761 1.389 . S
C762 C763 1.387 . S
C763 H748 0.930 . S
C763 C758 1.390 . S
C763 C762 1.387 . S
H764 C776 0.930 . S
H765 C778 0.930 . S
H766 C779 0.930 . S
H767 C783 0.959 . S
H768 C783 0.959 . S
H769 C783 0.961 . S
H770 C784 0.960 . S
H771 C784 0.961 . S
H772 C784 0.959 . S
H773 C787 0.929 . S
H774 C788 0.931 . S
H775 C790 0.930 . S
C776 H764 0.930 . S
C776 C777 1.399 . S
C776 C781 1.399 . S
C777 C776 1.399 . S
C777 C778 1.376 . S
C778 H765 0.930 . S
C778 C777 1.376 . S
C778 C779 1.388 . S
C779 H766 0.930 . S
C779 C778 1.388 . S
C779 C780 1.390 . S
C780 C779 1.390 . S
C780 C781 1.394 . S
C780 C786 1.465 . S
C781 C776 1.399 . S
C781 C780 1.394 . S
C781 C782 1.516 . S
C782 C781 1.516 . S
C782 C783 1.502 . S
C782 C784 1.561 . S
C782 C785 1.526 . S
C783 H767 0.959 . S
C783 H768 0.959 . S
C783 H769 0.961 . S
C783 C782 1.502 . S
C784 H770 0.960 . S
C784 H771 0.961 . S
C784 H772 0.959 . S
C784 C782 1.561 . S
C785 C782 1.526 . S
C785 C786 1.396 . S
C785 C790 1.390 . S
C786 C780 1.465 . S
C786 C785 1.396 . S
C786 C787 1.399 . S
C787 H773 0.929 . S
C787 C786 1.399 . S
C787 C788 1.385 . S
C788 H774 0.931 . S
C788 C787 1.385 . S
C788 C789 1.389 . S
C789 C788 1.389 . S
C789 C790 1.387 . S
C790 H775 0.930 . S
C790 C785 1.390 . S
C790 C789 1.387 . S
H791 C803 0.930 . S
H792 C805 0.930 . S
H793 C806 0.930 . S
H794 C810 0.959 . S
H795 C810 0.959 . S
H796 C810 0.961 . S
H797 C811 0.960 . S
H798 C811 0.961 . S
H799 C811 0.959 . S
H800 C814 0.929 . S
H801 C815 0.931 . S
H802 C817 0.930 . S
C803 H791 0.930 . S
C803 C804 1.399 . S
C803 C808 1.399 . S
C804 C803 1.399 . S
C804 C805 1.376 . S
C805 H792 0.930 . S
C805 C804 1.376 . S
C805 C806 1.388 . S
C806 H793 0.930 . S
C806 C805 1.388 . S
C806 C807 1.390 . S
C807 C806 1.390 . S
C807 C808 1.394 . S
C807 C813 1.465 . S
C808 C803 1.399 . S
C808 C807 1.394 . S
C808 C809 1.516 . S
C809 C808 1.516 . S
C809 C810 1.502 . S
C809 C811 1.561 . S
C809 C812 1.526 . S
C810 H794 0.959 . S
C810 H795 0.959 . S
C810 H796 0.961 . S
C810 C809 1.502 . S
C811 H797 0.960 . S
C811 H798 0.961 . S
C811 H799 0.959 . S
C811 C809 1.561 . S
C812 C809 1.526 . S
C812 C813 1.396 . S
C812 C817 1.390 . S
C813 C807 1.465 . S
C813 C812 1.396 . S
C813 C814 1.399 . S
C814 H800 0.929 . S
C814 C813 1.399 . S
C814 C815 1.385 . S
C815 H801 0.931 . S
C815 C814 1.385 . S
C815 C816 1.389 . S
C816 C815 1.389 . S
C816 C817 1.387 . S
C817 H802 0.930 . S
C817 C812 1.390 . S
C817 C816 1.387 . S
H818 C830 0.930 . S
H819 C832 0.930 . S
H820 C833 0.930 . S
H821 C837 0.959 . S
H822 C837 0.959 1_554 S
H823 C837 0.961 . S
H824 C838 0.962 . S
H825 C838 0.975 . S
H826 C838 0.953 1_556 S
H827 C841 0.929 . S
H828 C842 0.931 . S
H829 C844 0.930 1_554 S
C830 H818 0.930 . S
C830 C831 1.399 . S
C830 C835 1.399 . S
C831 C830 1.399 . S
C831 C832 1.376 . S
C832 H819 0.930 . S
C832 C831 1.376 . S
C832 C833 1.388 . S
C833 H820 0.930 . S
C833 C832 1.388 . S
C833 C834 1.390 . S
C834 C833 1.390 . S
C834 C835 1.394 . S
C834 C840 1.465 . S
C835 C830 1.399 . S
C835 C834 1.394 . S
C835 C836 1.516 . S
C836 C835 1.516 . S
C836 C837 1.502 . S
C836 C838 1.552 1_556 S
C836 C839 1.526 . S
C837 H821 0.959 . S
C837 H822 0.959 1_556 S
C837 H823 0.961 . S
C837 C836 1.502 . S
C838 H824 0.962 . S
C838 H825 0.975 . S
C838 H826 0.953 1_554 S
C838 C836 1.552 1_554 S
C839 C836 1.526 . S
C839 C840 1.396 . S
C839 C844 1.390 . S
C840 C834 1.465 . S
C840 C839 1.396 . S
C840 C841 1.399 . S
C841 H827 0.929 . S
C841 C840 1.399 . S
C841 C842 1.385 . S
C842 H828 0.931 . S
C842 C841 1.385 . S
C842 C843 1.389 . S
C843 C842 1.389 . S
C843 C844 1.387 . S
C844 H829 0.930 1_556 S
C844 C839 1.390 . S
C844 C843 1.387 . S
H845 C857 0.930 . S
H846 C859 0.930 . S
H847 C860 0.930 . S
H848 C864 0.959 . S
H849 C864 0.959 . S
H850 C864 0.961 . S
H851 C865 0.960 . S
H852 C865 0.961 . S
H853 C865 0.959 . S
H854 C868 0.929 . S
H855 C869 0.931 . S
H856 C871 0.930 . S
C857 H845 0.930 . S
C857 C858 1.399 . S
C857 C862 1.399 . S
C858 C857 1.399 . S
C858 C859 1.376 . S
C859 H846 0.930 . S
C859 C858 1.376 . S
C859 C860 1.388 . S
C860 H847 0.930 . S
C860 C859 1.388 . S
C860 C861 1.390 . S
C861 C860 1.390 . S
C861 C862 1.394 . S
C861 C867 1.465 . S
C862 C857 1.399 . S
C862 C861 1.394 . S
C862 C863 1.516 . S
C863 C862 1.516 . S
C863 C864 1.502 . S
C863 C865 1.561 . S
C863 C866 1.526 . S
C864 H848 0.959 . S
C864 H849 0.959 . S
C864 H850 0.961 . S
C864 C863 1.502 . S
C865 H851 0.960 . S
C865 H852 0.961 . S
C865 H853 0.959 . S
C865 C863 1.561 . S
C866 C863 1.526 . S
C866 C867 1.396 . S
C866 C871 1.390 . S
C867 C861 1.465 . S
C867 C866 1.396 . S
C867 C868 1.399 . S
C868 H854 0.929 . S
C868 C867 1.399 . S
C868 C869 1.385 . S
C869 H855 0.931 . S
C869 C868 1.385 . S
C869 C870 1.389 . S
C870 C869 1.389 . S
C870 C871 1.387 . S
C871 H856 0.930 . S
C871 C866 1.390 . S
C871 C870 1.387 . S
H872 C884 0.930 . S
H873 C886 0.930 . S
H874 C887 0.930 . S
H875 C891 0.959 . S
H876 C891 0.959 . S
H877 C891 0.961 . S
H878 C892 0.960 . S
H879 C892 0.961 . S
H880 C892 0.959 . S
H881 C895 0.929 . S
H882 C896 0.931 . S
H883 C898 0.930 . S
C884 H872 0.930 . S
C884 C885 1.399 . S
C884 C889 1.399 . S
C885 C884 1.399 . S
C885 C886 1.376 . S
C886 H873 0.930 . S
C886 C885 1.376 . S
C886 C887 1.388 . S
C887 H874 0.930 . S
C887 C886 1.388 . S
C887 C888 1.390 . S
C888 C887 1.390 . S
C888 C889 1.394 . S
C888 C894 1.465 . S
C889 C884 1.399 . S
C889 C888 1.394 . S
C889 C890 1.516 . S
C890 C889 1.516 . S
C890 C891 1.502 . S
C890 C892 1.561 . S
C890 C893 1.526 . S
C891 H875 0.959 . S
C891 H876 0.959 . S
C891 H877 0.961 . S
C891 C890 1.502 . S
C892 H878 0.960 . S
C892 H879 0.961 . S
C892 H880 0.959 . S
C892 C890 1.561 . S
C893 C890 1.526 . S
C893 C894 1.396 . S
C893 C898 1.390 . S
C894 C888 1.465 . S
C894 C893 1.396 . S
C894 C895 1.399 . S
C895 H881 0.929 . S
C895 C894 1.399 . S
C895 C896 1.385 . S
C896 H882 0.931 . S
C896 C895 1.385 . S
C896 C897 1.389 . S
C897 C896 1.389 . S
C897 C898 1.387 . S
C898 H883 0.930 . S
C898 C893 1.390 . S
C898 C897 1.387 . S
H899 C911 0.930 . S
H900 C913 0.930 . S
H901 C914 0.930 . S
H902 C918 0.959 . S
H903 C918 0.959 . S
H904 C918 0.961 . S
H905 C919 0.960 . S
H906 C919 0.961 . S
H907 C919 0.959 . S
H908 C922 0.929 . S
H909 C923 0.931 . S
H910 C925 0.930 . S
C911 H899 0.930 . S
C911 C912 1.399 . S
C911 C916 1.399 . S
C912 C911 1.399 . S
C912 C913 1.376 . S
C913 H900 0.930 . S
C913 C912 1.376 . S
C913 C914 1.388 . S
C914 H901 0.930 . S
C914 C913 1.388 . S
C914 C915 1.390 . S
C915 C914 1.390 . S
C915 C916 1.394 . S
C915 C921 1.465 . S
C916 C911 1.399 . S
C916 C915 1.394 . S
C916 C917 1.516 . S
C917 C916 1.516 . S
C917 C918 1.502 . S
C917 C919 1.561 . S
C917 C920 1.526 . S
C918 H902 0.959 . S
C918 H903 0.959 . S
C918 H904 0.961 . S
C918 C917 1.502 . S
C919 H905 0.960 . S
C919 H906 0.961 . S
C919 H907 0.959 . S
C919 C917 1.561 . S
C920 C917 1.526 . S
C920 C921 1.396 . S
C920 C925 1.390 . S
C921 C915 1.465 . S
C921 C920 1.396 . S
C921 C922 1.399 . S
C922 H908 0.929 . S
C922 C921 1.399 . S
C922 C923 1.385 . S
C923 H909 0.931 . S
C923 C922 1.385 . S
C923 C924 1.389 . S
C924 C923 1.389 . S
C924 C925 1.387 . S
C925 H910 0.930 . S
C925 C920 1.390 . S
C925 C924 1.387 . S
H926 C938 0.930 . S
H927 C940 0.930 . S
H928 C941 0.930 . S
H929 C945 0.959 . S
H930 C945 0.959 . S
H931 C945 0.961 . S
H932 C946 0.960 . S
H933 C946 0.961 . S
H934 C946 0.959 . S
H935 C949 0.929 . S
H936 C950 0.931 . S
H937 C952 0.930 . S
C938 H926 0.930 . S
C938 C939 1.399 . S
C938 C943 1.399 . S
C939 C938 1.399 . S
C939 C940 1.376 . S
C940 H927 0.930 . S
C940 C939 1.376 . S
C940 C941 1.388 . S
C941 H928 0.930 . S
C941 C940 1.388 . S
C941 C942 1.390 . S
C942 C941 1.390 . S
C942 C943 1.394 . S
C942 C948 1.465 . S
C943 C938 1.399 . S
C943 C942 1.394 . S
C943 C944 1.516 . S
C944 C943 1.516 . S
C944 C945 1.502 . S
C944 C946 1.561 . S
C944 C947 1.526 . S
C945 H929 0.959 . S
C945 H930 0.959 . S
C945 H931 0.961 . S
C945 C944 1.502 . S
C946 H932 0.960 . S
C946 H933 0.961 . S
C946 H934 0.959 . S
C946 C944 1.561 . S
C947 C944 1.526 . S
C947 C948 1.396 . S
C947 C952 1.390 . S
C948 C942 1.465 . S
C948 C947 1.396 . S
C948 C949 1.399 . S
C949 H935 0.929 . S
C949 C948 1.399 . S
C949 C950 1.385 . S
C950 H936 0.931 . S
C950 C949 1.385 . S
C950 C951 1.389 . S
C951 C950 1.389 . S
C951 C952 1.387 . S
C952 H937 0.930 . S
C952 C947 1.390 . S
C952 C951 1.387 . S
H953 C965 0.930 . S
H954 C967 0.884 1_545 S
H955 C968 0.930 . S
H956 C972 0.959 . S
H957 C972 0.959 . S
H958 C972 0.961 . S
H959 C973 0.960 . S
H960 C973 0.961 . S
H961 C973 0.959 . S
H962 C976 0.929 . S
H963 C977 0.931 . S
H964 C979 0.930 . S
C965 H953 0.930 . S
C965 C966 1.399 . S
C965 C970 1.399 . S
C966 C965 1.399 . S
C966 C967 1.376 . S
C967 H954 0.884 1_565 S
C967 C966 1.376 . S
C967 C968 1.388 . S
C968 H955 0.930 . S
C968 C967 1.388 . S
C968 C969 1.390 . S
C969 C968 1.390 . S
C969 C970 1.394 . S
C969 C975 1.465 . S
C970 C965 1.399 . S
C970 C969 1.394 . S
C970 C971 1.516 . S
C971 C970 1.516 . S
C971 C972 1.502 . S
C971 C973 1.561 . S
C971 C974 1.526 . S
C972 H956 0.959 . S
C972 H957 0.959 . S
C972 H958 0.961 . S
C972 C971 1.502 . S
C973 H959 0.960 . S
C973 H960 0.961 . S
C973 H961 0.959 . S
C973 C971 1.561 . S
C974 C971 1.526 . S
C974 C975 1.396 . S
C974 C979 1.390 . S
C975 C969 1.465 . S
C975 C974 1.396 . S
C975 C976 1.399 . S
C976 H962 0.929 . S
C976 C975 1.399 . S
C976 C977 1.385 . S
C977 H963 0.931 . S
C977 C976 1.385 . S
C977 C978 1.389 . S
C978 C977 1.389 . S
C978 C979 1.387 . S
C979 H964 0.930 . S
C979 C974 1.390 . S
C979 C978 1.387 . S
H980 C992 0.930 . S
H981 C994 0.930 . S
H982 C995 0.930 . S
H983 C999 0.959 . S
H984 C999 0.959 . S
H985 C999 0.961 . S
H986 C1000 0.960 . S
H987 C1000 0.961 . S
H988 C1000 0.959 . S
H989 C1003 0.929 . S
H990 C1004 0.931 . S
H991 C1006 0.930 . S
C992 H980 0.930 . S
C992 C993 1.399 . S
C992 C997 1.399 . S
C993 C992 1.399 . S
C993 C994 1.376 . S
C994 H981 0.930 . S
C994 C993 1.376 . S
C994 C995 1.388 . S
C995 H982 0.930 . S
C995 C994 1.388 . S
C995 C996 1.390 . S
C996 C995 1.390 . S
C996 C997 1.394 . S
C996 C1002 1.465 . S
C997 C992 1.399 . S
C997 C996 1.394 . S
C997 C998 1.516 . S
C998 C997 1.516 . S
C998 C999 1.502 . S
C998 C1000 1.561 . S
C998 C1001 1.526 . S
C999 H983 0.959 . S
C999 H984 0.959 . S
C999 H985 0.961 . S
C999 C998 1.502 . S
C1000 H986 0.960 . S
C1000 H987 0.961 . S
C1000 H988 0.959 . S
C1000 C998 1.561 . S
C1001 C998 1.526 . S
C1001 C1002 1.396 . S
C1001 C1006 1.390 . S
C1002 C996 1.465 . S
C1002 C1001 1.396 . S
C1002 C1003 1.399 . S
C1003 H989 0.929 . S
C1003 C1002 1.399 . S
C1003 C1004 1.385 . S
C1004 H990 0.931 . S
C1004 C1003 1.385 . S
C1004 C1005 1.389 . S
C1005 C1004 1.389 . S
C1005 C1006 1.387 . S
C1006 H991 0.930 . S
C1006 C1001 1.390 . S
C1006 C1005 1.387 . S
H1007 C1019 0.930 . S
H1008 C1021 0.930 . S
H1009 C1022 0.930 . S
H1010 C1026 0.959 . S
H1011 C1026 0.959 . S
H1012 C1026 0.961 . S
H1013 C1027 0.960 . S
H1014 C1027 0.961 . S
H1015 C1027 0.959 . S
H1016 C1030 0.929 . S
H1017 C1031 0.931 . S
H1018 C1033 0.930 . S
C1019 H1007 0.930 . S
C1019 C1020 1.399 . S
C1019 C1024 1.399 . S
C1020 C1019 1.399 . S
C1020 C1021 1.376 . S
C1021 H1008 0.930 . S
C1021 C1020 1.376 . S
C1021 C1022 1.388 . S
C1022 H1009 0.930 . S
C1022 C1021 1.388 . S
C1022 C1023 1.390 . S
C1023 C1022 1.390 . S
C1023 C1024 1.394 . S
C1023 C1029 1.465 . S
C1024 C1019 1.399 . S
C1024 C1023 1.394 . S
C1024 C1025 1.516 . S
C1025 C1024 1.516 . S
C1025 C1026 1.502 . S
C1025 C1027 1.561 . S
C1025 C1028 1.526 . S
C1026 H1010 0.959 . S
C1026 H1011 0.959 . S
C1026 H1012 0.961 . S
C1026 C1025 1.502 . S
C1027 H1013 0.960 . S
C1027 H1014 0.961 . S
C1027 H1015 0.959 . S
C1027 C1025 1.561 . S
C1028 C1025 1.526 . S
C1028 C1029 1.396 . S
C1028 C1033 1.390 . S
C1029 C1023 1.465 . S
C1029 C1028 1.396 . S
C1029 C1030 1.399 . S
C1030 H1016 0.929 . S
C1030 C1029 1.399 . S
C1030 C1031 1.385 . S
C1031 H1017 0.931 . S
C1031 C1030 1.385 . S
C1031 C1032 1.389 . S
C1032 C1031 1.389 . S
C1032 C1033 1.387 . S
C1033 H1018 0.930 . S
C1033 C1028 1.390 . S
C1033 C1032 1.387 . S
H1034 C1046 0.930 . S
H1035 C1048 0.930 . S
H1036 C1049 0.930 . S
H1037 C1053 0.959 . S
H1038 C1053 0.959 . S
H1039 C1053 0.961 . S
H1040 C1054 0.960 . S
H1041 C1054 0.961 . S
H1042 C1054 0.959 . S
H1043 C1057 0.929 . S
H1044 C1058 0.931 . S
H1045 C1060 0.930 . S
C1046 H1034 0.930 . S
C1046 C1047 1.399 . S
C1046 C1051 1.399 . S
C1047 C1046 1.399 . S
C1047 C1048 1.376 . S
C1048 H1035 0.930 . S
C1048 C1047 1.376 . S
C1048 C1049 1.388 . S
C1049 H1036 0.930 . S
C1049 C1048 1.388 . S
C1049 C1050 1.390 . S
C1050 C1049 1.390 . S
C1050 C1051 1.394 . S
C1050 C1056 1.465 . S
C1051 C1046 1.399 . S
C1051 C1050 1.394 . S
C1051 C1052 1.516 . S
C1052 C1051 1.516 . S
C1052 C1053 1.502 . S
C1052 C1054 1.561 . S
C1052 C1055 1.526 . S
C1053 H1037 0.959 . S
C1053 H1038 0.959 . S
C1053 H1039 0.961 . S
C1053 C1052 1.502 . S
C1054 H1040 0.960 . S
C1054 H1041 0.961 . S
C1054 H1042 0.959 . S
C1054 C1052 1.561 . S
C1055 C1052 1.526 . S
C1055 C1056 1.396 . S
C1055 C1060 1.390 . S
C1056 C1050 1.465 . S
C1056 C1055 1.396 . S
C1056 C1057 1.399 . S
C1057 H1043 0.929 . S
C1057 C1056 1.399 . S
C1057 C1058 1.385 . S
C1058 H1044 0.931 . S
C1058 C1057 1.385 . S
C1058 C1059 1.389 . S
C1059 C1058 1.389 . S
C1059 C1060 1.387 . S
C1060 H1045 0.930 . S
C1060 C1055 1.390 . S
C1060 C1059 1.387 . S
H1061 C1073 0.930 . S
H1062 C1075 0.930 . S
H1063 C1076 0.930 . S
H1064 C1080 0.959 . S
H1065 C1080 0.959 . S
H1066 C1080 0.961 . S
H1067 C1081 0.960 1_554 S
H1068 C1081 0.961 . S
H1069 C1081 0.959 1_554 S
H1070 C1084 0.929 . S
H1071 C1085 0.931 . S
H1072 C1087 0.930 . S
C1073 H1061 0.930 . S
C1073 C1074 1.399 . S
C1073 C1078 1.399 . S
C1074 C1073 1.399 . S
C1074 C1075 1.376 . S
C1075 H1062 0.930 . S
C1075 C1074 1.376 . S
C1075 C1076 1.388 . S
C1076 H1063 0.930 . S
C1076 C1075 1.388 . S
C1076 C1077 1.390 . S
C1077 C1076 1.390 . S
C1077 C1078 1.394 . S
C1077 C1083 1.465 . S
C1078 C1073 1.399 . S
C1078 C1077 1.394 . S
C1078 C1079 1.516 . S
C1079 C1078 1.516 . S
C1079 C1080 1.502 . S
C1079 C1081 1.561 . S
C1079 C1082 1.526 . S
C1080 H1064 0.959 . S
C1080 H1065 0.959 . S
C1080 H1066 0.961 . S
C1080 C1079 1.502 . S
C1081 H1067 0.960 1_556 S
C1081 H1068 0.961 . S
C1081 H1069 0.959 1_556 S
C1081 C1079 1.561 . S
C1082 C1079 1.526 . S
C1082 C1083 1.396 . S
C1082 C1087 1.390 . S
C1083 C1077 1.465 . S
C1083 C1082 1.396 . S
C1083 C1084 1.399 . S
C1084 H1070 0.929 . S
C1084 C1083 1.399 . S
C1084 C1085 1.385 . S
C1085 H1071 0.931 . S
C1085 C1084 1.385 . S
C1085 C1086 1.389 . S
C1086 C1085 1.389 . S
C1086 C1087 1.387 . S
C1087 H1072 0.930 . S
C1087 C1082 1.390 . S
C1087 C1086 1.387 . S
C237 C3 1.489 . S
C249 C171 1.496 . S
C264 C23 1.334 . S
C276 C79 1.295 . S
C291 C31 1.493 . S
C303 C199 1.492 . S
C318 C107 1.309 . S
C330 C51 1.333 . S
C345 C205 1.329 . S
C357 C37 1.314 . S
C372 C101 1.506 . S
C384 C45 1.482 . S
C399 C177 1.303 . S
C411 C9 1.323 . S
C426 C73 1.481 . S
C438 C17 1.508 . S
C453 C59 1.488 . S
C465 C115 1.497 . S
C480 C87 1.487 . S
C492 C143 1.498 . S
C507 C149 1.289 . S
C519 C93 1.343 . S
C534 C65 1.303 . S
C546 C121 1.323 . S
C561 C191 1.290 . S
C573 C135 1.345 . S
C588 C163 1.297 . S
C600 C219 1.342 . S
C615 C157 1.491 . S
C627 C213 1.502 . S
C642 C129 1.486 . S
C654 C185 1.506 . S
C669 C162 1.476 . S
C681 C8 1.481 . S
C696 C119 1.488 . S
C708 C21 1.481 . S
C723 C36 1.482 . S
C735 C134 1.485 . S
C750 C147 1.485 . S
C762 C49 1.467 . S
C777 C161 1.475 . S
C789 C35 1.454 . S
C804 C50 1.484 . S
C816 C120 1.482 . S
C831 C133 1.484 . S
C843 C7 1.465 . S
C858 C148 1.475 . S
C870 C22 1.477 . S
C885 C64 1.475 . S
C897 C218 1.477 . S
C912 C175 1.484 . S
C924 C77 1.487 . S
C939 C92 1.476 . S
C951 C190 1.475 . S
C966 C105 1.487 . S
C978 C203 1.488 . S
C993 C91 1.468 . S
C1005 C217 1.462 . S
C1020 C176 1.479 . S
C1032 C106 1.481 . S
C1047 C189 1.434 . S
C1059 C63 1.437 . S
C1074 C204 1.484 . S
C1086 C78 1.484 . S
