# Generated by pormake.
# Topology umg, (4)-cn, num edge types: 1
# Building blocks:
#     Node 0, Type 0, BuildingBlock: ESEHIV_clean_sbu_0, # of connection points: 4
#     Node 1, Type 0, BuildingBlock: ESEHIV_clean_sbu_0, # of connection points: 4
#     Node 2, Type 0, BuildingBlock: ESEHIV_clean_sbu_0, # of connection points: 4
#     Node 3, Type 0, BuildingBlock: ESEHIV_clean_sbu_0, # of connection points: 4
#     Node 4, Type 0, BuildingBlock: ESEHIV_clean_sbu_0, # of connection points: 4
#     Node 5, Type 0, BuildingBlock: ESEHIV_clean_sbu_0, # of connection points: 4
#     Node 6, Type 0, BuildingBlock: ESEHIV_clean_sbu_0, # of connection points: 4
#     Node 7, Type 0, BuildingBlock: ESEHIV_clean_sbu_0, # of connection points: 4
#     Node 8, Type 0, BuildingBlock: ESEHIV_clean_sbu_0, # of connection points: 4
#     Node 9, Type 0, BuildingBlock: ESEHIV_clean_sbu_0, # of connection points: 4
#     Node 10, Type 0, BuildingBlock: ESEHIV_clean_sbu_0, # of connection points: 4
#     Node 11, Type 0, BuildingBlock: ESEHIV_clean_sbu_0, # of connection points: 4
#     Edge 12, Type (0, 0), BuildingBlock: MIFKUJ_clean_linker_0, # of connection points: 2
#     Edge 13, Type (0, 0), BuildingBlock: MIFKUJ_clean_linker_0, # of connection points: 2
#     Edge 14, Type (0, 0), BuildingBlock: MIFKUJ_clean_linker_0, # of connection points: 2
#     Edge 15, Type (0, 0), BuildingBlock: MIFKUJ_clean_linker_0, # of connection points: 2
#     Edge 16, Type (0, 0), BuildingBlock: MIFKUJ_clean_linker_0, # of connection points: 2
#     Edge 17, Type (0, 0), BuildingBlock: MIFKUJ_clean_linker_0, # of connection points: 2
#     Edge 18, Type (0, 0), BuildingBlock: MIFKUJ_clean_linker_0, # of connection points: 2
#     Edge 19, Type (0, 0), BuildingBlock: MIFKUJ_clean_linker_0, # of connection points: 2
#     Edge 20, Type (0, 0), BuildingBlock: MIFKUJ_clean_linker_0, # of connection points: 2
#     Edge 21, Type (0, 0), BuildingBlock: MIFKUJ_clean_linker_0, # of connection points: 2
#     Edge 22, Type (0, 0), BuildingBlock: MIFKUJ_clean_linker_0, # of connection points: 2
#     Edge 23, Type (0, 0), BuildingBlock: MIFKUJ_clean_linker_0, # of connection points: 2
#     Edge 24, Type (0, 0), BuildingBlock: MIFKUJ_clean_linker_0, # of connection points: 2
#     Edge 25, Type (0, 0), BuildingBlock: MIFKUJ_clean_linker_0, # of connection points: 2
#     Edge 26, Type (0, 0), BuildingBlock: MIFKUJ_clean_linker_0, # of connection points: 2
#     Edge 27, Type (0, 0), BuildingBlock: MIFKUJ_clean_linker_0, # of connection points: 2
#     Edge 28, Type (0, 0), BuildingBlock: MIFKUJ_clean_linker_0, # of connection points: 2
#     Edge 29, Type (0, 0), BuildingBlock: MIFKUJ_clean_linker_0, # of connection points: 2
#     Edge 30, Type (0, 0), BuildingBlock: MIFKUJ_clean_linker_0, # of connection points: 2
#     Edge 31, Type (0, 0), BuildingBlock: MIFKUJ_clean_linker_0, # of connection points: 2
#     Edge 32, Type (0, 0), BuildingBlock: MIFKUJ_clean_linker_0, # of connection points: 2
#     Edge 33, Type (0, 0), BuildingBlock: MIFKUJ_clean_linker_0, # of connection points: 2
#     Edge 34, Type (0, 0), BuildingBlock: MIFKUJ_clean_linker_0, # of connection points: 2
#     Edge 35, Type (0, 0), BuildingBlock: MIFKUJ_clean_linker_0, # of connection points: 2
# Relax obj value: 0.032
# Max RMSD: 0.100
# Mean RMSD: 0.081
data_MOF--net-umg--node1-ESEHIV_clean_sbu_0--edge1-MIFKUJ_clean_linker_0
_symmetry_space_group_name_H-M    P1
_symmetry_Int_Tables_number       1
_symmetry_cell_setting            triclinic
loop_
_symmetry_equiv_pos_as_xyz
'x, y, z'
_cell_length_a     37.956551
_cell_length_b     43.222589
_cell_length_c     115.54661
_cell_angle_alpha  89.831549
_cell_angle_beta   90.213384
_cell_angle_gamma 115.98106
loop_
_atom_site_label
_atom_site_type_symbol
_atom_site_fract_x
_atom_site_fract_y
_atom_site_fract_z
_atom_type_partial_charge
Cu0 Cu 0.31281 0.57971 0.10591 0.0
N1 N 0.3199 0.60391 0.09188 0.0
N2 N 0.32397 0.61788 0.07306 0.0
C3 C 0.32075 0.5935 0.08092 0.0
C4 C 0.32536 0.64465 0.07936 0.0
C5 C 0.32266 0.63591 0.09089 0.0
O6 O 0.34676 0.55613 0.10688 0.0
C7 C 0.23077 0.54075 0.10078 0.0
O8 O 0.24237 0.54112 0.09007 0.0
H9 H 0.31738 0.56812 0.0787 0.0
H10 H 0.32199 0.65165 0.09806 0.0
N11 N 0.33127 0.612 0.11785 0.0
N12 N 0.33959 0.63597 0.1354 0.0
C13 C 0.31726 0.60867 0.12872 0.0
C14 C 0.36367 0.64216 0.11766 0.0
C15 C 0.36875 0.65711 0.12843 0.0
C16 C 0.3518 0.53611 0.0997 0.0
O17 O 0.32883 0.52516 0.09061 0.0
H18 H 0.2915 0.5865 0.13168 0.0
H19 H 0.38283 0.65215 0.11028 0.0
O20 O 0.25645 0.55282 0.10878 0.0
H21 H 0.32801 0.66888 0.07593 0.0
H22 H 0.39287 0.68109 0.13103 0.0
Cu23 Cu 0.74649 0.26966 0.43282 0.0
N24 N 0.73278 0.22265 0.43307 0.0
N25 N 0.69451 0.16598 0.43386 0.0
C26 C 0.69668 0.19776 0.43532 0.0
C27 C 0.73082 0.17118 0.43059 0.0
C28 C 0.75438 0.2062 0.43011 0.0
O29 O 0.71759 0.27713 0.44545 0.0
C30 C 0.7345 0.30683 0.41323 0.0
O31 O 0.74424 0.33386 0.41993 0.0
H32 H 0.67211 0.20298 0.43751 0.0
H33 H 0.78479 0.21879 0.42751 0.0
N34 N 0.80007 0.29487 0.43579 0.0
N35 N 0.85962 0.339 0.43738 0.0
C36 C 0.82416 0.32692 0.43217 0.0
C37 C 0.82108 0.28634 0.44346 0.0
C38 C 0.85779 0.31347 0.44447 0.0
C39 C 0.72749 0.30553 0.45072 0.0
O40 O 0.75566 0.33374 0.44651 0.0
H41 H 0.81522 0.34183 0.42635 0.0
H42 H 0.80988 0.26255 0.44833 0.0
O43 O 0.73312 0.27905 0.41739 0.0
H44 H 0.73967 0.15117 0.42857 0.0
H45 H 0.88101 0.31462 0.45017 0.0
Cu46 Cu 0.49116 0.75088 0.75282 0.0
N47 N 0.52084 0.7267 0.7555 0.0
N48 N 0.53597 0.6825 0.75754 0.0
C49 C 0.50869 0.69266 0.75404 0.0
C50 C 0.56636 0.71129 0.76143 0.0
C51 C 0.55689 0.7385 0.76018 0.0
O52 O 0.45945 0.74386 0.76655 0.0
C53 C 0.47788 0.72838 0.72993 0.0
O54 O 0.51304 0.73009 0.73134 0.0
H55 H 0.47998 0.67562 0.75073 0.0
H56 H 0.57473 0.76491 0.7627 0.0
N57 N 0.5234 0.79782 0.75125 0.0
N58 N 0.54177 0.85454 0.75049 0.0
C59 C 0.51343 0.82342 0.75362 0.0
C60 C 0.55918 0.81306 0.74645 0.0
C61 C 0.57069 0.84805 0.74601 0.0
C62 C 0.43082 0.71524 0.76904 0.0
O63 O 0.41841 0.69037 0.76135 0.0
H64 H 0.48558 0.81906 0.75738 0.0
H65 H 0.57519 0.79955 0.74314 0.0
O66 O 0.46149 0.73562 0.73842 0.0
H67 H 0.59352 0.71265 0.7649 0.0
H68 H 0.5976 0.86698 0.74225 0.0
Cu69 Cu 0.75006 0.45306 0.10261 0.0
N70 N 0.74052 0.42646 0.08928 0.0
N71 N 0.73549 0.41257 0.07057 0.0
C72 C 0.73412 0.43488 0.0785 0.0
C73 C 0.74282 0.38922 0.07657 0.0
C74 C 0.74588 0.39785 0.08812 0.0
O75 O 0.7206 0.48046 0.10092 0.0
C76 C 0.83107 0.4947 0.11114 0.0
O77 O 0.81735 0.50309 0.12042 0.0
H78 H 0.73102 0.45802 0.07644 0.0
H79 H 0.75339 0.38518 0.09513 0.0
N80 N 0.72938 0.42288 0.11511 0.0
N81 N 0.71696 0.3999 0.13289 0.0
C82 C 0.74137 0.4264 0.12624 0.0
C83 C 0.6964 0.3932 0.11471 0.0
C84 C 0.6887 0.37894 0.12562 0.0
C85 C 0.70601 0.48938 0.10948 0.0
O86 O 0.71627 0.4852 0.12002 0.0
H87 H 0.76714 0.44803 0.12942 0.0
H88 H 0.67867 0.38307 0.10704 0.0
O89 O 0.80749 0.47688 0.10323 0.0
H90 H 0.74677 0.36801 0.07284 0.0
H91 H 0.66349 0.35552 0.12805 0.0
Cu92 Cu 0.28633 0.74582 0.43383 0.0
N93 N 0.30319 0.79323 0.43216 0.0
N94 N 0.34261 0.84974 0.43184 0.0
C95 C 0.33739 0.81859 0.43582 0.0
C96 C 0.31014 0.84369 0.42557 0.0
C97 C 0.28592 0.80884 0.42579 0.0
O98 O 0.30594 0.73699 0.44838 0.0
C99 C 0.33218 0.74642 0.4144 0.0
O100 O 0.35735 0.77609 0.41864 0.0
H101 H 0.35901 0.81402 0.44071 0.0
H102 H 0.2583 0.79561 0.42128 0.0
N103 N 0.23187 0.72383 0.43512 0.0
N104 N 0.17123 0.68126 0.436 0.0
C105 C 0.20759 0.69171 0.43162 0.0
C106 C 0.21004 0.73399 0.44186 0.0
C107 C 0.17262 0.70769 0.44246 0.0
C108 C 0.34087 0.74286 0.45099 0.0
O109 O 0.3683 0.75443 0.44304 0.0
H110 H 0.21708 0.67543 0.42672 0.0
H111 H 0.22125 0.75801 0.44657 0.0
O112 O 0.30123 0.72833 0.4201 0.0
H113 H 0.3046 0.86295 0.42096 0.0
H114 H 0.14872 0.70739 0.44762 0.0
Cu115 Cu 0.5674 0.28161 0.74919 0.0
N116 N 0.53409 0.30306 0.74863 0.0
N117 N 0.51243 0.34345 0.74982 0.0
C118 C 0.54139 0.33456 0.75261 0.0
C119 C 0.48573 0.31623 0.74396 0.0
C120 C 0.4992 0.29143 0.74323 0.0
O121 O 0.60101 0.29764 0.76273 0.0
C122 C 0.60691 0.3172 0.72891 0.0
O123 O 0.60393 0.34357 0.73361 0.0
H124 H 0.56824 0.35129 0.75695 0.0
H125 H 0.48509 0.26699 0.73881 0.0
N126 N 0.53754 0.2344 0.75119 0.0
N127 N 0.52128 0.17808 0.75229 0.0
C128 C 0.54879 0.20945 0.74903 0.0
C129 C 0.50183 0.21846 0.756 0.0
C130 C 0.49164 0.18374 0.75666 0.0
C131 C 0.6277 0.32788 0.76453 0.0
O132 O 0.637 0.35114 0.75631 0.0
H133 H 0.57681 0.21442 0.74525 0.0
H134 H 0.48486 0.23132 0.75911 0.0
O135 O 0.59493 0.289 0.7345 0.0
H136 H 0.45868 0.31451 0.74027 0.0
H137 H 0.46504 0.16444 0.76045 0.0
Cu138 Cu 0.49546 0.75348 0.58956 0.0
N139 N 0.52405 0.80047 0.59241 0.0
N140 N 0.54 0.85666 0.59317 0.0
C141 C 0.51819 0.82653 0.58779 0.0
C142 C 0.56047 0.84929 0.60141 0.0
C143 C 0.55063 0.81463 0.6009 0.0
O144 O 0.47129 0.74697 0.5744 0.0
C145 C 0.44574 0.74914 0.60855 0.0
O146 O 0.44907 0.77913 0.60491 0.0
H147 H 0.49661 0.82308 0.58114 0.0
H148 H 0.56071 0.80038 0.60665 0.0
N149 N 0.52882 0.7322 0.58913 0.0
N150 N 0.5481 0.69018 0.58935 0.0
C151 C 0.51844 0.69874 0.59135 0.0
C152 C 0.56634 0.74542 0.58563 0.0
C153 C 0.57834 0.71952 0.58575 0.0
C154 C 0.43811 0.74555 0.57173 0.0
O155 O 0.41521 0.7476 0.57989 0.0
H156 H 0.48919 0.68076 0.59395 0.0
H157 H 0.58343 0.77181 0.58293 0.0
O158 O 0.46014 0.73294 0.60248 0.0
H159 H 0.58029 0.86751 0.60756 0.0
H160 H 0.60696 0.72206 0.58329 0.0
Cu161 Cu 0.73257 0.45537 0.91501 0.0
N162 N 0.71489 0.42936 0.92847 0.0
N163 N 0.70576 0.41545 0.9472 0.0
C164 C 0.73012 0.43713 0.93922 0.0
C165 C 0.67423 0.39323 0.94125 0.0
C166 C 0.67998 0.40185 0.9297 0.0
O167 O 0.78969 0.48162 0.91653 0.0
C168 C 0.69521 0.49793 0.90603 0.0
O169 O 0.71664 0.50424 0.89665 0.0
H170 H 0.75722 0.45943 0.94125 0.0
H171 H 0.65935 0.38998 0.92274 0.0
N172 N 0.72134 0.42426 0.9027 0.0
N173 N 0.70936 0.40007 0.88512 0.0
C174 C 0.71333 0.42759 0.89151 0.0
C175 C 0.72242 0.39362 0.9034 0.0
C176 C 0.71497 0.37863 0.89262 0.0
C177 C 0.81297 0.48725 0.90799 0.0
O178 O 0.7983 0.48017 0.89749 0.0
H179 H 0.71091 0.44979 0.88806 0.0
H180 H 0.72909 0.38327 0.91119 0.0
O181 O 0.70063 0.48084 0.91428 0.0
H182 H 0.6484 0.37287 0.94504 0.0
H183 H 0.71504 0.35433 0.89041 0.0
Cu184 Cu 0.30262 0.7515 0.27162 0.0
N185 N 0.24787 0.7293 0.27254 0.0
N186 N 0.18654 0.68734 0.27238 0.0
C187 C 0.22401 0.69712 0.26904 0.0
C188 C 0.18681 0.71474 0.27803 0.0
C189 C 0.22466 0.74049 0.27815 0.0
O190 O 0.3193 0.73604 0.2578 0.0
C191 C 0.30759 0.71593 0.29176 0.0
O192 O 0.27761 0.68999 0.28709 0.0
H193 H 0.23414 0.68079 0.26447 0.0
H194 H 0.23489 0.76512 0.28245 0.0
N195 N 0.31894 0.79873 0.26978 0.0
N196 N 0.35764 0.85524 0.2686 0.0
C197 C 0.35439 0.82441 0.2723 0.0
C198 C 0.2991 0.8138 0.26434 0.0
C199 C 0.32287 0.84863 0.2636 0.0
C200 C 0.31609 0.70599 0.25579 0.0
O201 O 0.30326 0.68245 0.26394 0.0
H202 H 0.37791 0.82033 0.27627 0.0
H203 H 0.26984 0.8002 0.26083 0.0
O204 O 0.32426 0.74398 0.2861 0.0
H205 H 0.1619 0.71552 0.28231 0.0
H206 H 0.31537 0.86756 0.25953 0.0
Cu207 Cu 0.56508 0.2799 0.58697 0.0
N208 N 0.53208 0.23262 0.58629 0.0
N209 N 0.51293 0.17577 0.586 0.0
C210 C 0.54125 0.20705 0.58308 0.0
C211 C 0.48478 0.18182 0.59117 0.0
C212 C 0.49666 0.21684 0.59134 0.0
O213 O 0.59932 0.29445 0.57358 0.0
C214 C 0.6186 0.31515 0.60571 0.0
O215 O 0.63363 0.34247 0.59902 0.0
H216 H 0.56922 0.21123 0.57948 0.0
H217 H 0.48165 0.23003 0.59551 0.0
N218 N 0.5349 0.30441 0.58641 0.0
N219 N 0.51855 0.34825 0.58664 0.0
C220 C 0.54571 0.33732 0.58961 0.0
C221 C 0.49973 0.2942 0.58127 0.0
C222 C 0.48952 0.3211 0.58141 0.0
C223 C 0.62561 0.28501 0.57092 0.0
O224 O 0.63363 0.26518 0.57803 0.0
H225 H 0.57372 0.35349 0.59349 0.0
H226 H 0.48329 0.2693 0.5773 0.0
O227 O 0.59159 0.28736 0.60182 0.0
H228 H 0.45834 0.16242 0.59502 0.0
H229 H 0.4631 0.32088 0.57776 0.0
Cu230 Cu 0.29145 0.57326 0.91714 0.0
N231 N 0.30376 0.60044 0.93051 0.0
N232 N 0.31472 0.61658 0.94909 0.0
C233 C 0.30855 0.59125 0.94136 0.0
C234 C 0.31457 0.64286 0.94277 0.0
C235 C 0.30784 0.63285 0.93135 0.0
O236 O 0.23522 0.54114 0.91704 0.0
C237 C 0.337 0.53993 0.90759 0.0
O238 O 0.31671 0.53598 0.89801 0.0
H239 H 0.30572 0.56592 0.94356 0.0
H240 H 0.30545 0.64798 0.92419 0.0
N241 N 0.29644 0.60157 0.90435 0.0
N242 N 0.30789 0.62486 0.88665 0.0
C243 C 0.31967 0.60915 0.89491 0.0
C244 C 0.26981 0.61345 0.90199 0.0
C245 C 0.2767 0.62771 0.89111 0.0
C246 C 0.21181 0.53789 0.92537 0.0
O247 O 0.22627 0.55099 0.93551 0.0
H248 H 0.34304 0.60152 0.89378 0.0
H249 H 0.24565 0.61017 0.90759 0.0
O250 O 0.32865 0.55292 0.91645 0.0
H251 H 0.31878 0.66759 0.94612 0.0
H252 H 0.25922 0.63818 0.88662 0.0
Cu253 Cu 0.75041 0.28592 0.26853 0.0
N254 N 0.8054 0.30738 0.2682 0.0
N255 N 0.86691 0.34909 0.26891 0.0
C256 C 0.82905 0.33955 0.27176 0.0
C257 C 0.86718 0.32138 0.26363 0.0
C258 C 0.8293 0.29576 0.26321 0.0
O259 O 0.73043 0.30606 0.25659 0.0
C260 C 0.73458 0.31517 0.28902 0.0
O261 O 0.74623 0.34375 0.283 0.0
H262 H 0.81851 0.35601 0.27607 0.0
H263 H 0.81979 0.27091 0.25915 0.0
N264 N 0.73159 0.23973 0.26427 0.0
N265 N 0.69125 0.18376 0.2624 0.0
C266 C 0.70254 0.21193 0.26919 0.0
C267 C 0.73877 0.22868 0.25407 0.0
C268 C 0.71409 0.19422 0.25291 0.0
C269 C 0.74596 0.33741 0.25336 0.0
O270 O 0.77504 0.36032 0.25936 0.0
H271 H 0.68807 0.21291 0.27714 0.0
H272 H 0.75885 0.24508 0.2476 0.0
O273 O 0.73287 0.28813 0.28417 0.0
H274 H 0.89255 0.32024 0.2598 0.0
H275 H 0.71197 0.17838 0.24545 0.0
H276 H 0.29857 0.6546 0.96503 0.0
H277 H 0.30381 0.65232 0.98597 0.0
H278 H 0.34214 0.57245 0.98272 0.0
H279 H 0.33738 0.57481 0.96161 0.0
H280 H 0.28768 0.55796 0.99988 0.0
H281 H 0.40785 0.65279 0.98932 0.0
H282 H 0.45022 0.70724 0.97955 0.0
H283 H 0.39451 0.75942 0.99819 0.0
H284 H 0.3514 0.70516 1.00795 0.0
H285 H 0.34392 0.57544 0.06007 0.0
H286 H 0.34461 0.57227 0.03892 0.0
H287 H 0.30548 0.65187 0.03649 0.0
H288 H 0.30409 0.65485 0.05749 0.0
H289 H 0.36626 0.6643 0.0221 0.0
H290 H 0.2431 0.56824 0.03159 0.0
H291 H 0.20064 0.51363 0.04125 0.0
H292 H 0.26284 0.46366 0.02466 0.0
H293 H 0.30605 0.51814 0.01502 0.0
C294 C 0.30865 0.63683 0.96869 0.0
C295 C 0.31792 0.61513 0.96154 0.0
C296 C 0.31148 0.63547 0.98072 0.0
C297 C 0.32386 0.61253 0.98593 0.0
C298 C 0.33258 0.5904 0.97888 0.0
C299 C 0.32977 0.59175 0.96681 0.0
C300 C 0.32746 0.61184 0.99875 0.0
C301 C 0.30543 0.58106 1.00474 0.0
C302 C 0.35019 0.64207 1.00511 0.0
C303 C 0.37619 0.67483 0.9993 0.0
C304 C 0.40443 0.67582 0.99127 0.0
C305 C 0.42862 0.70666 0.98575 0.0
C306 C 0.42501 0.73676 0.98823 0.0
C307 C 0.39726 0.73608 0.99627 0.0
C308 C 0.37297 0.7053 1.00181 0.0
C309 C 0.33507 0.59203 0.05505 0.0
C310 C 0.3241 0.61551 0.06057 0.0
C311 C 0.33557 0.59023 0.04295 0.0
C312 C 0.325 0.61178 0.03611 0.0
C313 C 0.314 0.63513 0.04158 0.0
C314 C 0.3134 0.6369 0.05364 0.0
C315 C 0.32582 0.61063 0.02325 0.0
C316 C 0.34881 0.64111 0.01725 0.0
C317 C 0.30406 0.58011 0.01691 0.0
C318 C 0.27811 0.54736 0.02269 0.0
C319 C 0.24795 0.54568 0.03008 0.0
C320 C 0.2237 0.51474 0.03554 0.0
C321 C 0.22912 0.48522 0.0336 0.0
C322 C 0.25873 0.48656 0.02617 0.0
C323 C 0.2831 0.51746 0.02071 0.0
H324 H 0.21031 0.46128 0.03783 0.0
H325 H 0.44376 0.76061 0.98395 0.0
H326 H 0.74359 0.36357 0.40036 0.0
H327 H 0.73927 0.36721 0.37925 0.0
H328 H 0.70767 0.25874 0.37648 0.0
H329 H 0.71217 0.25491 0.39742 0.0
H330 H 0.76613 0.29558 0.36199 0.0
H331 H 0.64045 0.29034 0.37203 0.0
H332 H 0.59571 0.30909 0.38196 0.0
H333 H 0.65215 0.408 0.3655 0.0
H334 H 0.69759 0.38998 0.3556 0.0
H335 H 0.71043 0.26057 0.30395 0.0
H336 H 0.70626 0.26168 0.32501 0.0
H337 H 0.73997 0.37076 0.32393 0.0
H338 H 0.74382 0.36987 0.30278 0.0
H339 H 0.68297 0.33807 0.34029 0.0
H340 H 0.8076 0.34377 0.33005 0.0
H341 H 0.85295 0.32593 0.32004 0.0
H342 H 0.79998 0.22766 0.33704 0.0
H343 H 0.75389 0.24475 0.34703 0.0
C344 C 0.73527 0.34043 0.39526 0.0
C345 C 0.72842 0.30899 0.4006 0.0
C346 C 0.73273 0.34253 0.38319 0.0
C347 C 0.72313 0.31323 0.37627 0.0
C348 C 0.71531 0.28173 0.38162 0.0
C349 C 0.71782 0.27959 0.39363 0.0
C350 C 0.72317 0.31536 0.36341 0.0
C351 C 0.74755 0.30449 0.35726 0.0
C352 C 0.69997 0.32808 0.35722 0.0
C353 C 0.6727 0.33894 0.36318 0.0
C354 C 0.64355 0.31619 0.37061 0.0
C355 C 0.61801 0.32667 0.37622 0.0
C356 C 0.62116 0.35975 0.37439 0.0
C357 C 0.64979 0.3824 0.36693 0.0
C358 C 0.67542 0.37206 0.36131 0.0
C359 C 0.71655 0.28478 0.30815 0.0
C360 C 0.72784 0.31521 0.30166 0.0
C361 C 0.71425 0.28537 0.32021 0.0
C362 C 0.72345 0.31641 0.32606 0.0
C363 C 0.73288 0.34655 0.3196 0.0
C364 C 0.73514 0.34598 0.3075 0.0
C365 C 0.72524 0.31753 0.33892 0.0
C366 C 0.70152 0.32922 0.34505 0.0
C367 C 0.74921 0.30572 0.34514 0.0
C368 C 0.77706 0.29543 0.33921 0.0
C369 C 0.80543 0.31826 0.33159 0.0
C370 C 0.83129 0.3083 0.32593 0.0
C371 C 0.82929 0.27565 0.32789 0.0
C372 C 0.80147 0.25293 0.33553 0.0
C373 C 0.77548 0.26275 0.3412 0.0
H374 H 0.84934 0.26798 0.3235 0.0
H375 H 0.60136 0.36781 0.37873 0.0
H376 H 0.48593 0.6874 0.71353 0.0
H377 H 0.46764 0.6838 0.69314 0.0
H378 H 0.4144 0.75235 0.69919 0.0
H379 H 0.43126 0.75475 0.71984 0.0
H380 H 0.37477 0.70707 0.68261 0.0
H381 H 0.50891 0.78339 0.68953 0.0
H382 H 0.57576 0.80164 0.69721 0.0
H383 H 0.58832 0.724 0.67693 0.0
H384 H 0.52128 0.70493 0.66926 0.0
H385 H 0.41436 0.7776 0.62423 0.0
H386 H 0.40691 0.76662 0.6451 0.0
H387 H 0.44365 0.68592 0.64126 0.0
H388 H 0.45086 0.69642 0.62044 0.0
H389 H 0.48938 0.73833 0.65672 0.0
H390 H 0.35299 0.66505 0.64911 0.0
H391 H 0.28727 0.65143 0.64133 0.0
H392 H 0.28095 0.73021 0.66256 0.0
H393 H 0.34692 0.74464 0.67035 0.0
C394 C 0.46956 0.7011 0.71056 0.0
C395 C 0.46035 0.72163 0.71822 0.0
C396 C 0.45927 0.69917 0.69889 0.0
C397 C 0.44067 0.71862 0.69454 0.0
C398 C 0.429 0.73731 0.70232 0.0
C399 C 0.4386 0.73866 0.71411 0.0
C400 C 0.43675 0.72163 0.6818 0.0
C401 C 0.39988 0.71424 0.67696 0.0
C402 C 0.46949 0.731 0.67437 0.0
C403 C 0.50994 0.74252 0.67891 0.0
C404 C 0.52583 0.77005 0.68677 0.0
C405 C 0.56376 0.78056 0.69111 0.0
C406 C 0.58623 0.76394 0.68758 0.0
C407 C 0.57085 0.73682 0.67967 0.0
C408 C 0.5329 0.72616 0.67531 0.0
C409 C 0.41991 0.75693 0.62778 0.0
C410 C 0.43356 0.73812 0.62066 0.0
C411 C 0.41555 0.75065 0.63971 0.0
C412 C 0.42489 0.72555 0.64473 0.0
C413 C 0.43635 0.70545 0.63756 0.0
C414 C 0.44034 0.71145 0.62564 0.0
C415 C 0.42731 0.72297 0.65751 0.0
C416 C 0.46417 0.7309 0.66236 0.0
C417 C 0.39476 0.71485 0.66489 0.0
C418 C 0.35508 0.70616 0.66023 0.0
C419 C 0.33776 0.67969 0.65204 0.0
C420 C 0.30041 0.67177 0.64765 0.0
C421 C 0.27999 0.69001 0.65142 0.0
C422 C 0.29683 0.71614 0.65963 0.0
C423 C 0.33418 0.72417 0.66405 0.0
H424 H 0.25108 0.68383 0.64801 0.0
H425 H 0.6156 0.77211 0.69095 0.0
H426 H 0.68682 0.43079 0.05831 0.0
H427 H 0.68294 0.43383 0.0371 0.0
H428 H 0.77728 0.40442 0.03376 0.0
H429 H 0.78055 0.40055 0.0549 0.0
H430 H 0.77985 0.46639 0.0195 0.0
H431 H 0.70081 0.34516 0.02889 0.0
H432 H 0.64788 0.29825 0.0395 0.0
H433 H 0.56408 0.33103 0.02604 0.0
H434 H 0.61669 0.37849 0.01549 0.0
H435 H 0.77117 0.42791 0.95951 0.0
H436 H 0.77771 0.42974 0.98065 0.0
H437 H 0.65702 0.41219 0.98382 0.0
H438 H 0.65015 0.40842 0.96276 0.0
H439 H 0.66794 0.37553 0.99869 0.0
H440 H 0.74098 0.49397 0.98876 0.0
H441 H 0.79099 0.54443 0.97871 0.0
H442 H 0.88206 0.52311 0.99345 0.0
H443 H 0.83255 0.47223 1.00347 0.0
C444 C 0.70673 0.42513 0.05301 0.0
C445 C 0.73375 0.41519 0.05819 0.0
C446 C 0.70452 0.42685 0.04095 0.0
C447 C 0.72987 0.41937 0.03392 0.0
C448 C 0.75755 0.41032 0.03907 0.0
C449 C 0.75917 0.40786 0.05111 0.0
C450 C 0.72658 0.41973 0.02117 0.0
C451 C 0.75567 0.44643 0.01488 0.0
C452 C 0.69435 0.39425 0.01527 0.0
C453 C 0.66273 0.36558 0.02152 0.0
C454 C 0.67116 0.34256 0.02829 0.0
C455 C 0.64121 0.31583 0.03427 0.0
C456 C 0.60266 0.31173 0.03347 0.0
C457 C 0.59397 0.33428 0.02666 0.0
C458 C 0.62383 0.36108 0.02068 0.0
C459 C 0.74623 0.42458 0.96478 0.0
C460 C 0.71016 0.41788 0.95957 0.0
C461 C 0.74997 0.42586 0.97685 0.0
C462 C 0.71801 0.42162 0.98391 0.0
C463 C 0.6821 0.41539 0.97863 0.0
C464 C 0.67814 0.41325 0.9666 0.0
C465 C 0.72135 0.4224 0.99679 0.0
C466 C 0.69221 0.39579 1.00318 0.0
C467 C 0.75314 0.44851 1.00278 0.0
C468 C 0.78302 0.47908 0.99677 0.0
C469 C 0.77166 0.49989 0.98979 0.0
C470 C 0.79992 0.52859 0.98411 0.0
C471 C 0.83967 0.53692 0.98542 0.0
C472 C 0.85125 0.5166 0.99243 0.0
C473 C 0.82311 0.48784 0.99812 0.0
H474 H 0.86151 0.55915 0.98102 0.0
H475 H 0.57951 0.29102 0.0381 0.0
H476 H 0.36476 0.76591 0.30484 0.0
H477 H 0.37442 0.76525 0.32579 0.0
H478 H 0.28216 0.66174 0.32759 0.0
H479 H 0.27226 0.66213 0.30672 0.0
H480 H 0.27118 0.70467 0.3428 0.0
H481 H 0.37584 0.67662 0.33223 0.0
H482 H 0.43583 0.68432 0.32188 0.0
H483 H 0.49919 0.783 0.33791 0.0
H484 H 0.43942 0.77611 0.34824 0.0
H485 H 0.2869 0.68669 0.40279 0.0
H486 H 0.28839 0.67554 0.3821 0.0
H487 H 0.38723 0.77474 0.37782 0.0
H488 H 0.38676 0.78557 0.39851 0.0
H489 H 0.39506 0.73024 0.36383 0.0
H490 H 0.29187 0.76233 0.37269 0.0
H491 H 0.23267 0.75788 0.38278 0.0
H492 H 0.16742 0.65561 0.36951 0.0
H493 H 0.22642 0.65931 0.35947 0.0
C494 C 0.347 0.74277 0.30966 0.0
C495 C 0.31759 0.71414 0.30409 0.0
C496 C 0.35262 0.74241 0.32164 0.0
C497 C 0.329 0.71342 0.32826 0.0
C498 C 0.30066 0.6844 0.32266 0.0
C499 C 0.29514 0.68466 0.3107 0.0
C500 C 0.33161 0.71431 0.3411 0.0
C501 C 0.29809 0.7096 0.34741 0.0
C502 C 0.36701 0.72181 0.34709 0.0
C503 C 0.40304 0.72596 0.34093 0.0
C504 C 0.40248 0.70008 0.33348 0.0
C505 C 0.43647 0.70428 0.32763 0.0
C506 C 0.47128 0.73417 0.32922 0.0
C507 C 0.4722 0.75988 0.33668 0.0
C508 C 0.43828 0.75582 0.34255 0.0
C509 C 0.3094 0.70586 0.39749 0.0
C510 C 0.33641 0.73719 0.4023 0.0
C511 C 0.3101 0.69954 0.38564 0.0
C512 C 0.33736 0.72465 0.37833 0.0
C513 C 0.3658 0.75503 0.38325 0.0
C514 C 0.36541 0.76121 0.3951 0.0
C515 C 0.33457 0.72051 0.36552 0.0
C516 C 0.36804 0.72486 0.35922 0.0
C517 C 0.29923 0.71313 0.35948 0.0
C518 C 0.26365 0.71095 0.36544 0.0
C519 C 0.26496 0.73881 0.37199 0.0
C520 C 0.23144 0.73643 0.37769 0.0
C521 C 0.19634 0.70644 0.37682 0.0
C522 C 0.19465 0.6788 0.3702 0.0
C523 C 0.22811 0.68103 0.3645 0.0
H524 H 0.17042 0.70464 0.38124 0.0
H525 H 0.49756 0.73737 0.32468 0.0
H526 H 0.59607 0.26383 0.71438 0.0
H527 H 0.60854 0.26671 0.69361 0.0
H528 H 0.65835 0.37759 0.6949 0.0
H529 H 0.6445 0.37476 0.71562 0.0
H530 H 0.60984 0.35644 0.67793 0.0
H531 H 0.71496 0.33112 0.69015 0.0
H532 H 0.7458 0.29948 0.7006 0.0
H533 H 0.67415 0.20753 0.68182 0.0
H534 H 0.64253 0.2385 0.67136 0.0
H535 H 0.6618 0.37295 0.61854 0.0
H536 H 0.67103 0.3765 0.63958 0.0
H537 H 0.60742 0.26607 0.64212 0.0
H538 H 0.59834 0.26225 0.62117 0.0
H539 H 0.66996 0.29145 0.65706 0.0
H540 H 0.56115 0.31557 0.64642 0.0
H541 H 0.52983 0.34679 0.63595 0.0
H542 H 0.60925 0.44137 0.652 0.0
H543 H 0.64144 0.41075 0.66243 0.0
C544 C 0.61027 0.28887 0.71029 0.0
C545 C 0.61924 0.31907 0.71666 0.0
C546 C 0.61757 0.2905 0.69838 0.0
C547 C 0.63481 0.32241 0.69264 0.0
C548 C 0.64498 0.35265 0.69909 0.0
C549 C 0.63716 0.351 0.71096 0.0
C550 C 0.63958 0.32412 0.67981 0.0
C551 C 0.62381 0.34282 0.67341 0.0
C552 C 0.65696 0.30574 0.67382 0.0
C553 C 0.67618 0.2871 0.68003 0.0
C554 C 0.70562 0.3041 0.6883 0.0
C555 C 0.72327 0.28629 0.69422 0.0
C556 C 0.71189 0.2515 0.69189 0.0
C557 C 0.68293 0.23448 0.68362 0.0
C558 C 0.66518 0.25216 0.67767 0.0
C559 C 0.65037 0.34938 0.62355 0.0
C560 C 0.62901 0.31735 0.61817 0.0
C561 C 0.65553 0.35146 0.63558 0.0
C562 C 0.63945 0.32157 0.64244 0.0
C563 C 0.62003 0.28947 0.63702 0.0
C564 C 0.61472 0.28737 0.62502 0.0
C565 C 0.64021 0.32367 0.65529 0.0
C566 C 0.65672 0.30554 0.66165 0.0
C567 C 0.62359 0.3426 0.66127 0.0
C568 C 0.604 0.36095 0.65509 0.0
C569 C 0.57212 0.34307 0.64765 0.0
C570 C 0.55419 0.36064 0.64173 0.0
C571 C 0.56763 0.39606 0.64328 0.0
C572 C 0.59893 0.41395 0.65078 0.0
C573 C 0.61703 0.3965 0.6567 0.0
H574 H 0.55371 0.40963 0.63869 0.0
H575 H 0.72557 0.23775 0.69649 0.0
H576 H 0.34983 0.74955 0.23766 0.0
H577 H 0.35302 0.73446 0.21749 0.0
H578 H 0.29776 0.62665 0.22645 0.0
H579 H 0.29519 0.64161 0.24676 0.0
H580 H 0.35422 0.63937 0.21068 0.0
H581 H 0.24441 0.66465 0.21442 0.0
H582 H 0.20936 0.69862 0.2201 0.0
H583 H 0.28307 0.78092 0.19774 0.0
H584 H 0.31896 0.74763 0.19205 0.0
H585 H 0.30491 0.58662 0.15177 0.0
H586 H 0.29931 0.59552 0.17247 0.0
H587 H 0.35883 0.7054 0.16736 0.0
H588 H 0.36368 0.69671 0.14667 0.0
H589 H 0.29572 0.68737 0.18138 0.0
H590 H 0.40693 0.66132 0.17835 0.0
H591 H 0.44032 0.62589 0.17274 0.0
H592 H 0.36076 0.54267 0.19375 0.0
H593 H 0.32656 0.57746 0.19937 0.0
C594 C 0.3387 0.72261 0.23538 0.0
C595 C 0.32197 0.69678 0.24383 0.0
C596 C 0.34036 0.71401 0.22382 0.0
C597 C 0.32484 0.67939 0.2204 0.0
C598 C 0.30971 0.65354 0.22887 0.0
C599 C 0.30829 0.66214 0.24049 0.0
C600 C 0.32338 0.6704 0.20793 0.0
C601 C 0.34091 0.64945 0.20429 0.0
C602 C 0.3063 0.68374 0.19955 0.0
C603 C 0.28459 0.70375 0.20288 0.0
C604 C 0.25333 0.69009 0.21077 0.0
C605 C 0.23328 0.70921 0.21399 0.0
C606 C 0.24404 0.74194 0.2093 0.0
C607 C 0.2748 0.75558 0.20137 0.0
C608 C 0.29498 0.73658 0.19814 0.0
C609 C 0.31641 0.61267 0.15503 0.0
C610 C 0.33493 0.64097 0.14755 0.0
C611 C 0.31351 0.61772 0.16689 0.0
C612 C 0.32907 0.65113 0.1715 0.0
C613 C 0.34676 0.67938 0.16401 0.0
C614 C 0.34978 0.67437 0.15219 0.0
C615 C 0.3272 0.65691 0.18411 0.0
C616 C 0.30887 0.67717 0.18777 0.0
C617 C 0.34324 0.64268 0.1925 0.0
C618 C 0.36394 0.62185 0.18918 0.0
C619 C 0.39638 0.63537 0.18171 0.0
C620 C 0.41548 0.61542 0.17854 0.0
C621 C 0.4026 0.58202 0.18286 0.0
C622 C 0.37067 0.56853 0.19039 0.0
C623 C 0.35143 0.58835 0.19358 0.0
H624 H 0.41742 0.56661 0.18039 0.0
H625 H 0.2285 0.75671 0.2118 0.0
H626 H 0.72665 0.35953 0.46295 0.0
H627 H 0.70865 0.35962 0.48328 0.0
H628 H 0.68083 0.25168 0.48586 0.0
H629 H 0.69618 0.25103 0.46547 0.0
H630 H 0.63198 0.26054 0.49792 0.0
H631 H 0.77238 0.32242 0.49547 0.0
H632 H 0.83497 0.36764 0.4883 0.0
H633 H 0.80462 0.4456 0.50146 0.0
H634 H 0.7416 0.40082 0.50858 0.0
H635 H 0.65616 0.24871 0.55855 0.0
H636 H 0.67507 0.25629 0.53809 0.0
H637 H 0.65241 0.34557 0.53622 0.0
H638 H 0.63253 0.33771 0.5566 0.0
H639 H 0.72605 0.34898 0.52422 0.0
H640 H 0.58456 0.28232 0.52712 0.0
H641 H 0.52518 0.23435 0.53484 0.0
H642 H 0.56324 0.16167 0.52126 0.0
H643 H 0.6232 0.20929 0.51363 0.0
C644 C 0.71608 0.33575 0.46783 0.0
C645 C 0.71287 0.30531 0.4626 0.0
C646 C 0.7062 0.33587 0.4795 0.0
C647 C 0.69432 0.30585 0.48627 0.0
C648 C 0.68994 0.27524 0.48091 0.0
C649 C 0.69875 0.27489 0.4692 0.0
C650 C 0.68711 0.3061 0.49896 0.0
C651 C 0.65289 0.27978 0.50362 0.0
C652 C 0.71396 0.33133 0.50653 0.0
C653 C 0.75211 0.35828 0.50244 0.0
C654 C 0.77898 0.34921 0.49678 0.0
C655 C 0.81453 0.37476 0.49273 0.0
C656 C 0.82371 0.40948 0.49439 0.0
C657 C 0.79744 0.4187 0.50016 0.0
C658 C 0.76182 0.39325 0.50421 0.0
C659 C 0.65592 0.27035 0.55385 0.0
C660 C 0.64271 0.29254 0.55916 0.0
C661 C 0.66663 0.27458 0.54216 0.0
C662 C 0.66497 0.30141 0.53567 0.0
C663 C 0.65395 0.32477 0.54111 0.0
C664 C 0.6425 0.32016 0.55273 0.0
C665 C 0.6715 0.3033 0.523 0.0
C666 C 0.70538 0.32995 0.51841 0.0
C667 C 0.64488 0.27799 0.51551 0.0
C668 C 0.60853 0.24936 0.51991 0.0
C669 C 0.58042 0.25612 0.52587 0.0
C670 C 0.54663 0.229 0.53021 0.0
C671 C 0.54049 0.19499 0.52857 0.0
C672 C 0.56806 0.18803 0.52254 0.0
C673 C 0.60193 0.21507 0.51819 0.0
H674 H 0.51433 0.17402 0.53194 0.0
H675 H 0.85121 0.42922 0.49123 0.0
H676 H 0.46861 0.74856 0.78862 0.0
H677 H 0.4479 0.73304 0.8087 0.0
H678 H 0.33952 0.65094 0.79689 0.0
H679 H 0.36057 0.66557 0.77671 0.0
H680 H 0.33893 0.70112 0.81634 0.0
H681 H 0.39465 0.6245 0.80427 0.0
H682 H 0.44718 0.61293 0.79586 0.0
H683 H 0.52606 0.67223 0.82273 0.0
H684 H 0.47432 0.68526 0.83108 0.0
H685 H 0.26304 0.61039 0.86753 0.0
H686 H 0.28486 0.62563 0.84759 0.0
H687 H 0.40523 0.67291 0.85922 0.0
H688 H 0.38306 0.6559 0.87924 0.0
H689 H 0.40231 0.64297 0.83978 0.0
H690 H 0.35237 0.72091 0.85214 0.0
H691 H 0.30495 0.73909 0.86065 0.0
H692 H 0.22155 0.68495 0.83403 0.0
H693 H 0.26829 0.66603 0.82544 0.0
C694 C 0.44014 0.72745 0.79027 0.0
C695 C 0.41616 0.70827 0.78108 0.0
C696 C 0.42848 0.71856 0.80175 0.0
C697 C 0.39234 0.69078 0.80424 0.0
C698 C 0.36757 0.67245 0.79511 0.0
C699 C 0.37962 0.68081 0.78361 0.0
C700 C 0.381 0.68032 0.81639 0.0
C701 C 0.3523 0.68798 0.82145 0.0
C702 C 0.39977 0.66449 0.82313 0.0
C703 C 0.43073 0.65625 0.81821 0.0
C704 C 0.42332 0.63546 0.80831 0.0
C705 C 0.45294 0.62855 0.80356 0.0
C706 C 0.48994 0.64178 0.80876 0.0
C707 C 0.4974 0.66202 0.8187 0.0
C708 C 0.46795 0.66924 0.82343 0.0
C709 C 0.29414 0.62398 0.86581 0.0
C710 C 0.32141 0.63245 0.8749 0.0
C711 C 0.30664 0.63285 0.85442 0.0
C712 C 0.34669 0.65141 0.85188 0.0
C713 C 0.37414 0.65887 0.86093 0.0
C714 C 0.36158 0.64923 0.87235 0.0
C715 C 0.35952 0.66324 0.83981 0.0
C716 C 0.38873 0.65607 0.83474 0.0
C717 C 0.34185 0.6803 0.83312 0.0
C718 C 0.31372 0.69181 0.83821 0.0
C719 C 0.32382 0.7127 0.84814 0.0
C720 C 0.29708 0.72315 0.85297 0.0
C721 C 0.26023 0.71311 0.8479 0.0
C722 C 0.25009 0.69267 0.83795 0.0
C723 C 0.27671 0.68211 0.83309 0.0
H724 H 0.23956 0.72123 0.85165 0.0
H725 H 0.51279 0.6363 0.80508 0.0
H726 H 0.75334 0.44984 0.14896 0.0
H727 H 0.75587 0.44218 0.16985 0.0
H728 H 0.68775 0.33263 0.16586 0.0
H729 H 0.68545 0.33998 0.14497 0.0
H730 H 0.6609 0.35734 0.18363 0.0
H731 H 0.7856 0.3667 0.17052 0.0
H732 H 0.84914 0.39427 0.16046 0.0
H733 H 0.88397 0.48296 0.18236 0.0
H734 H 0.82037 0.45609 0.19245 0.0
H735 H 0.6972 0.29432 0.23688 0.0
H736 H 0.68921 0.30854 0.21691 0.0
H737 H 0.76448 0.41566 0.22362 0.0
H738 H 0.7734 0.4015 0.24359 0.0
H739 H 0.7871 0.39613 0.20473 0.0
H740 H 0.6641 0.38541 0.21876 0.0
H741 H 0.60059 0.35793 0.22883 0.0
H742 H 0.56232 0.27245 0.20537 0.0
H743 H 0.62581 0.2992 0.19525 0.0
C744 C 0.73928 0.42406 0.15248 0.0
C745 C 0.71924 0.39552 0.14523 0.0
C746 C 0.74062 0.41974 0.16445 0.0
C747 C 0.72214 0.3868 0.16942 0.0
C748 C 0.70203 0.35831 0.16223 0.0
C749 C 0.7007 0.36259 0.15027 0.0
C750 C 0.72378 0.38188 0.18211 0.0
C751 C 0.68848 0.36552 0.18824 0.0
C752 C 0.75976 0.39342 0.18817 0.0
C753 C 0.79806 0.40954 0.18215 0.0
C754 C 0.80668 0.3922 0.17313 0.0
C755 C 0.84273 0.40768 0.16743 0.0
C756 C 0.87053 0.44039 0.17075 0.0
C757 C 0.86238 0.45765 0.17979 0.0
C758 C 0.82635 0.4423 0.1855 0.0
C759 C 0.7115 0.32103 0.23419 0.0
C760 C 0.73605 0.34676 0.24185 0.0
C761 C 0.7068 0.32915 0.22275 0.0
C762 C 0.72607 0.36323 0.21874 0.0
C763 C 0.74938 0.38917 0.22649 0.0
C764 C 0.7543 0.38104 0.23793 0.0
C765 C 0.72416 0.37133 0.20629 0.0
C766 C 0.75946 0.38823 0.20018 0.0
C767 C 0.68815 0.36034 0.20026 0.0
C768 C 0.64986 0.34421 0.2063 0.0
C769 C 0.64225 0.36064 0.2158 0.0
C770 C 0.60623 0.34521 0.22151 0.0
C771 C 0.57747 0.31343 0.21776 0.0
C772 C 0.58464 0.29705 0.20827 0.0
C773 C 0.62062 0.31236 0.20254 0.0
H774 H 0.54961 0.30153 0.22219 0.0
H775 H 0.89842 0.45233 0.16633 0.0
H776 H 0.48279 0.74853 0.55293 0.0
H777 H 0.4652 0.74599 0.53253 0.0
H778 H 0.3501 0.7342 0.54186 0.0
H779 H 0.3675 0.73675 0.56244 0.0
H780 H 0.34937 0.68901 0.52422 0.0
H781 H 0.41476 0.80984 0.53284 0.0
H782 H 0.46855 0.86286 0.54039 0.0
H783 H 0.54829 0.85213 0.51628 0.0
H784 H 0.49508 0.79872 0.50871 0.0
H785 H 0.292 0.72602 0.46964 0.0
H786 H 0.30839 0.72414 0.48992 0.0
H787 H 0.42791 0.74963 0.48057 0.0
H788 H 0.4119 0.75251 0.46015 0.0
H789 H 0.42669 0.78712 0.49834 0.0
H790 H 0.36259 0.6671 0.48948 0.0
H791 H 0.30994 0.61328 0.48199 0.0
H792 H 0.22925 0.62116 0.5064 0.0
H793 H 0.2813 0.67531 0.51394 0.0
C794 C 0.45364 0.74529 0.5507 0.0
C795 C 0.42657 0.74297 0.55935 0.0
C796 C 0.44371 0.74396 0.539 0.0
C797 C 0.4065 0.74024 0.53568 0.0
C798 C 0.37903 0.73715 0.54426 0.0
C799 C 0.38905 0.73872 0.55601 0.0
C800 C 0.39669 0.74 0.52322 0.0
C801 C 0.36587 0.71061 0.51858 0.0
C802 C 0.41902 0.76782 0.51581 0.0
C803 C 0.45101 0.80009 0.52028 0.0
C804 C 0.44383 0.81863 0.52921 0.0
C805 C 0.47421 0.84878 0.53349 0.0
C806 C 0.51184 0.86081 0.52884 0.0
C807 C 0.51914 0.84276 0.51988 0.0
C808 C 0.48888 0.81256 0.51559 0.0
C809 C 0.32175 0.73096 0.47184 0.0
C810 C 0.35064 0.73936 0.46322 0.0
C811 C 0.33104 0.7297 0.48348 0.0
C812 C 0.36928 0.73628 0.4868 0.0
C813 C 0.39816 0.74438 0.47822 0.0
C814 C 0.38895 0.74589 0.46654 0.0
C815 C 0.37927 0.73604 0.49927 0.0
C816 C 0.41016 0.7654 0.50394 0.0
C817 C 0.35714 0.70807 0.50668 0.0
C818 C 0.32578 0.67544 0.5022 0.0
C819 C 0.33355 0.6575 0.49319 0.0
C820 C 0.30382 0.62691 0.48895 0.0
C821 C 0.26625 0.61385 0.4937 0.0
C822 C 0.25836 0.63132 0.50272 0.0
C823 C 0.28797 0.66194 0.50699 0.0
H824 H 0.24328 0.59017 0.4904 0.0
H825 H 0.53531 0.88416 0.53216 0.0
H826 H 0.67619 0.33944 0.87359 0.0
H827 H 0.66784 0.33108 0.85271 0.0
H828 H 0.71868 0.441 0.84765 0.0
H829 H 0.72741 0.44962 0.86858 0.0
H830 H 0.65486 0.40828 0.83395 0.0
H831 H 0.7724 0.39781 0.84232 0.0
H832 H 0.81428 0.37615 0.85253 0.0
H833 H 0.7392 0.27329 0.84143 0.0
H834 H 0.69652 0.29427 0.83129 0.0
H835 H 0.67195 0.39266 0.77309 0.0
H836 H 0.69173 0.40861 0.79324 0.0
H837 H 0.63939 0.30135 0.80289 0.0
H838 H 0.61974 0.28518 0.78282 0.0
H839 H 0.70971 0.33783 0.81384 0.0
H840 H 0.59004 0.34845 0.80658 0.0
H841 H 0.54903 0.37051 0.79608 0.0
H842 H 0.62946 0.47405 0.80497 0.0
H843 H 0.67134 0.45262 0.81536 0.0
C844 C 0.68586 0.36189 0.86806 0.0
C845 C 0.70277 0.39521 0.8728 0.0
C846 C 0.68101 0.35706 0.8561 0.0
C847 C 0.69319 0.38543 0.84859 0.0
C848 C 0.70913 0.41873 0.85328 0.0
C849 C 0.71398 0.4236 0.86526 0.0
C850 C 0.68939 0.38012 0.83586 0.0
C851 C 0.66743 0.39338 0.82952 0.0
C852 C 0.70537 0.36031 0.83008 0.0
C853 C 0.73108 0.34759 0.83612 0.0
C854 C 0.76465 0.37053 0.84212 0.0
C855 C 0.78856 0.35838 0.84789 0.0
C856 C 0.77936 0.32335 0.84765 0.0
C857 C 0.74627 0.30041 0.84161 0.0
C858 C 0.72223 0.31243 0.83585 0.0
C859 C 0.66517 0.37244 0.77947 0.0
C860 C 0.64402 0.33764 0.77636 0.0
C861 C 0.67632 0.38162 0.79099 0.0
C862 C 0.66655 0.35617 0.79959 0.0
C863 C 0.64713 0.32141 0.7964 0.0
C864 C 0.63583 0.31222 0.78492 0.0
C865 C 0.67474 0.36555 0.81199 0.0
C866 C 0.69751 0.35302 0.81826 0.0
C867 C 0.65959 0.38609 0.81769 0.0
C868 C 0.63405 0.39896 0.81163 0.0
C869 C 0.59913 0.37594 0.80623 0.0
C870 C 0.57572 0.38832 0.8003 0.0
C871 C 0.5867 0.42367 0.79983 0.0
C872 C 0.62104 0.44668 0.80532 0.0
C873 C 0.64462 0.43443 0.81123 0.0
H874 H 0.56856 0.43321 0.79522 0.0
H875 H 0.79791 0.31399 0.85211 0.0
H876 H 0.88945 0.52532 0.12736 0.0
H877 H 0.95717 0.5327 0.12656 0.0
H878 H 0.9362 0.4884 0.09237 0.0
H879 H 0.86855 0.48053 0.09316 0.0
H880 H 0.97285 0.4606 0.10507 0.0
H881 H 0.99184 0.57596 0.09714 0.0
H882 H 0.98658 0.63 0.10071 0.0
H883 H 0.04952 0.64363 0.13271 0.0
H884 H 0.05472 0.58939 0.1294 0.0
H885 H 0.16829 0.5104 0.08607 0.0
H886 H 0.10087 0.50166 0.089 0.0
H887 H 0.13017 0.54227 0.12359 0.0
H888 H 0.19796 0.55126 0.1207 0.0
H889 H 0.0896 0.57129 0.11201 0.0
H890 H 0.07331 0.4569 0.11928 0.0
H891 H 0.07898 0.40321 0.11538 0.0
H892 H 1.01113 0.38801 0.08429 0.0
H893 H 1.00551 0.44189 0.08791 0.0
C894 C 0.89934 0.51751 0.11961 0.0
C895 C 0.87336 0.50236 0.11033 0.0
C896 C 0.9382 0.52178 0.11916 0.0
C897 C 0.95209 0.51124 0.10937 0.0
C898 C 0.92634 0.49664 0.10003 0.0
C899 C 0.88758 0.49233 0.10049 0.0
C900 C 0.99297 0.5144 0.10894 0.0
C901 C 0.99835 0.48493 0.10645 0.0
C902 C 0.02644 0.54587 0.11106 0.0
C903 C 1.02327 0.57842 0.11309 0.0
C904 C 1.00426 0.59032 0.10499 0.0
C905 C 1.00135 0.62102 0.10695 0.0
C906 C 1.0176 0.64018 0.11695 0.0
C907 C 0.03688 0.62872 0.12498 0.0
C908 C 0.03984 0.59802 0.12306 0.0
C909 C 0.16037 0.51705 0.09437 0.0
C910 C 0.1887 0.53147 0.10315 0.0
C911 C 0.12166 0.51198 0.09604 0.0
C912 C 0.11019 0.52116 0.10654 0.0
C913 C 0.13821 0.53498 0.11541 0.0
C914 C 0.17695 0.53987 0.11377 0.0
C915 C 0.06943 0.51757 0.10802 0.0
C916 C 0.06407 0.54693 0.1107 0.0
C917 C 0.03596 0.48603 0.10603 0.0
C918 C 0.0393 0.45362 0.10382 0.0
C919 C 0.05987 0.44227 0.11156 0.0
C920 C 0.06302 0.41177 0.10941 0.0
C921 C 0.04551 0.39226 0.09958 0.0
C922 C 1.02472 0.40317 0.09189 0.0
C923 C 1.02151 0.43367 0.09399 0.0
H924 H 0.04797 0.36864 0.09793 0.0
H925 H 1.01533 0.66395 0.11845 0.0
H926 H 0.63186 0.15153 0.44776 0.0
H927 H 0.57217 0.09743 0.4489 0.0
H928 H 0.61846 0.05303 0.4232 0.0
H929 H 0.67831 0.10695 0.42212 0.0
H930 H 0.51784 0.06462 0.43373 0.0
H931 H 0.58369 0.96728 0.42733 0.0
H932 H 0.64457 0.96231 0.43188 0.0
H933 H 0.66711 0.0321 0.46036 0.0
H934 H 0.60613 0.03713 0.45609 0.0
H935 H 0.36995 0.90296 0.41664 0.0
H936 H 0.42961 0.95668 0.41837 0.0
H937 H 0.45414 0.92362 0.45144 0.0
H938 H 0.39452 0.8695 0.44966 0.0
H939 H 0.51865 0.9511 0.43936 0.0
H940 H 0.41907 0.98543 0.44923 0.0
H941 H 0.35747 0.9909 0.4468 0.0
H942 H 0.40112 0.04812 0.41539 0.0
H943 H 0.46281 0.0426 0.41754 0.0
C944 C 0.62933 0.13025 0.44235 0.0
C945 C 0.65993 0.1336 0.43486 0.0
C946 C 0.59519 0.0993 0.44302 0.0
C947 C 0.59083 0.07097 0.43622 0.0
C948 C 0.62135 0.07423 0.42872 0.0
C949 C 0.65563 0.10512 0.42811 0.0
C950 C 0.55395 0.03837 0.43672 0.0
C951 C 0.51806 0.03982 0.43498 0.0
C952 C 0.55399 1.00598 0.43859 0.0
C953 C 0.59051 1.00282 0.44131 0.0
C954 C 0.60156 0.98145 0.43459 0.0
C955 C 0.6361 0.97865 0.43712 0.0
C956 C 0.65975 0.99696 0.44638 0.0
C957 C 0.64884 0.01803 0.45316 0.0
C958 C 0.61432 0.0209 0.45068 0.0
C959 C 0.38772 0.90726 0.42435 0.0
C960 C 0.37728 0.88197 0.43305 0.0
C961 C 0.42193 0.93803 0.42533 0.0
C962 C 0.44622 0.9445 0.43511 0.0
C963 C 0.43593 0.91927 0.4438 0.0
C964 C 0.40184 0.88833 0.44278 0.0
C965 C 0.48264 0.97732 0.43615 0.0
C966 C 0.51844 0.97592 0.43815 0.0
C967 C 0.48243 1.00983 0.43481 0.0
C968 C 0.44544 1.01335 0.4335 0.0
C969 C 0.41543 0.99898 0.44176 0.0
C970 C 0.38051 1.00212 0.44044 0.0
C971 C 0.37535 0.01978 0.43093 0.0
C972 C 0.40514 0.03442 0.42274 0.0
C973 C 0.44011 0.03132 0.42401 0.0
H974 H 0.34829 0.02218 0.42992 0.0
H975 H 0.68649 0.99477 0.44831 0.0
H976 H 0.47408 0.37207 0.73707 0.0
H977 H 0.47727 0.42926 0.73934 0.0
H978 H 0.55488 0.448 0.76859 0.0
H979 H 0.55074 0.39016 0.76663 0.0
H980 H 0.50143 0.47265 0.77241 0.0
H981 H 0.59124 0.48053 0.74224 0.0
H982 H 0.61197 0.46403 0.724 0.0
H983 H 0.52756 0.48567 0.70517 0.0
H984 H 0.50591 0.50182 0.72332 0.0
H985 H 0.57165 0.6552 0.77193 0.0
H986 H 0.56692 0.59694 0.7713 0.0
H987 H 0.48813 0.57314 0.74214 0.0
H988 H 0.49346 0.63158 0.74255 0.0
H989 H 0.54431 0.55169 0.73865 0.0
H990 H 0.45193 0.54039 0.76872 0.0
H991 H 0.42983 0.55595 0.78687 0.0
H992 H 0.51936 0.54168 0.80572 0.0
H993 H 0.54187 0.52583 0.78764 0.0
C994 C 0.49133 0.38802 0.74411 0.0
C995 C 0.51239 0.37649 0.75161 0.0
C996 C 0.49345 0.42092 0.74532 0.0
C997 C 0.51691 0.44316 0.754 0.0
C998 C 0.53685 0.43137 0.76177 0.0
C999 C 0.5347 0.39839 0.76057 0.0
C1000 C 0.52127 0.47895 0.75473 0.0
C1001 C 0.51134 0.4901 0.76508 0.0
C1002 C 0.53356 0.50155 0.74511 0.0
C1003 C 0.54672 0.49209 0.73416 0.0
C1004 C 0.5769 0.48154 0.73422 0.0
C1005 C 0.58884 0.47228 0.7239 0.0
C1006 C 0.57103 0.47373 0.71344 0.0
C1007 C 0.5413 0.48453 0.71328 0.0
C1008 C 0.52921 0.49376 0.72358 0.0
C1009 C 0.55352 0.63765 0.76534 0.0
C1010 C 0.53291 0.64805 0.75729 0.0
C1011 C 0.55053 0.60424 0.76507 0.0
C1012 C 0.52687 0.58058 0.75674 0.0
C1013 C 0.50645 0.59094 0.74866 0.0
C1014 C 0.5093 0.62427 0.74896 0.0
C1015 C 0.52405 0.54525 0.75628 0.0
C1016 C 0.53445 0.53425 0.74598 0.0
C1017 C 0.51223 0.52284 0.76594 0.0
C1018 C 0.49881 0.53227 0.77682 0.0
C1019 C 0.46706 0.54079 0.77672 0.0
C1020 C 0.45441 0.54959 0.787 0.0
C1021 C 0.47335 0.55004 0.79744 0.0
C1022 C 0.50478 0.54141 0.79763 0.0
C1023 C 0.5174 0.53238 0.78737 0.0
H1024 H 0.46358 0.55697 0.80539 0.0
H1025 H 0.58032 0.46655 0.70545 0.0
H1026 H 0.54202 0.15219 0.56859 0.0
H1027 H 0.54773 0.09755 0.56819 0.0
H1028 H 0.49677 0.07282 0.60223 0.0
H1029 H 0.49013 0.1267 0.60254 0.0
H1030 H 0.57651 0.06991 0.59675 0.0
H1031 H 0.43932 0.03094 0.58507 0.0
H1032 H 0.38805 0.03279 0.57231 0.0
H1033 H 0.44219 1.01094 0.54289 0.0
H1034 H 0.49415 1.00948 0.55548 0.0
H1035 H 0.5408 0.90075 0.60972 0.0
H1036 H 0.53753 0.95542 0.607 0.0
H1037 H 0.53322 0.94113 0.56996 0.0
H1038 H 0.5345 0.88526 0.57279 0.0
H1039 H 0.48646 0.96672 0.57486 0.0
H1040 H 0.61903 0.99958 0.58516 0.0
H1041 H 0.67471 1.00029 0.59641 0.0
H1042 H 0.63758 0.03746 0.62616 0.0
H1043 H 0.58134 0.03653 0.61514 0.0
C1044 C 0.53189 0.13491 0.57593 0.0
C1045 C 0.51539 0.14347 0.58555 0.0
C1046 C 0.53509 0.10381 0.57569 0.0
C1047 C 0.52259 0.08125 0.58518 0.0
C1048 C 0.50644 0.0899 0.59482 0.0
C1049 C 0.50244 0.12052 0.59495 0.0
C1050 C 0.52701 0.04887 0.58524 0.0
C1051 C 0.55673 0.04719 0.59205 0.0
C1052 C 0.50217 0.01986 0.57872 0.0
C1053 C 0.47086 0.02056 0.57119 0.0
C1054 C 0.44052 0.02691 0.57587 0.0
C1055 C 0.41129 0.02779 0.56867 0.0
C1056 C 0.41194 0.02211 0.55679 0.0
C1057 C 0.44177 1.01541 0.55209 0.0
C1058 C 0.4711 1.01454 0.55925 0.0
C1059 C 0.53942 0.90942 0.601 0.0
C1060 C 0.53837 0.88903 0.59145 0.0
C1061 C 0.53772 0.94078 0.59943 0.0
C1062 C 0.53621 0.95308 0.58825 0.0
C1063 C 0.53461 0.93244 0.57868 0.0
C1064 C 0.5354 0.90058 0.58028 0.0
C1065 C 0.53559 0.98713 0.58665 0.0
C1066 C 0.50667 0.98933 0.57951 0.0
C1067 C 0.56189 1.01697 0.59267 0.0
C1068 C 0.59579 0.01773 0.59934 0.0
C1069 C 0.62259 1.0077 0.59412 0.0
C1070 C 0.65427 1.00816 0.60046 0.0
C1071 C 0.65963 0.01885 0.612 0.0
C1072 C 0.63337 0.02917 0.61722 0.0
C1073 C 0.60161 0.02872 0.61093 0.0
H1074 H 0.68417 0.01918 0.61689 0.0
H1075 H 0.38927 0.02279 0.55123 0.0
H1076 H 0.37522 0.5294 0.88906 0.0
H1077 H 0.43594 0.52294 0.88909 0.0
H1078 H 0.43939 0.52785 0.92639 0.0
H1079 H 0.37939 0.53581 0.92636 0.0
H1080 H 0.50869 0.56425 0.91918 0.0
H1081 H 0.41468 0.45026 0.91014 0.0
H1082 H 0.35979 0.40448 0.89975 0.0
H1083 H 0.42612 0.43165 0.86823 0.0
H1084 H 0.48125 0.47792 0.8784 0.0
H1085 H 0.65178 0.49772 0.92499 0.0
H1086 H 0.59198 0.50601 0.92544 0.0
H1087 H 0.60054 0.52431 0.88864 0.0
H1088 H 0.66065 0.51644 0.88812 0.0
H1089 H 0.52564 0.47554 0.89589 0.0
H1090 H 0.62066 0.58993 0.90623 0.0
H1091 H 0.67488 0.63262 0.91775 0.0
H1092 H 0.60462 0.59986 0.94846 0.0
H1093 H 0.55014 0.55663 0.93714 0.0
C1094 C 0.38862 0.52874 0.89729 0.0
C1095 C 0.37217 0.53295 0.90771 0.0
C1096 C 0.42343 0.5249 0.8973 0.0
C1097 C 0.44233 0.52435 0.90775 0.0
C1098 C 0.42565 0.52817 0.91819 0.0
C1099 C 0.39112 0.53255 0.91817 0.0
C1100 C 0.48 0.52091 0.90777 0.0
C1101 C 0.51203 0.54446 0.91421 0.0
C1102 C 0.48508 0.4955 0.90117 0.0
C1103 C 0.45195 0.46779 0.89501 0.0
C1104 C 0.41745 0.44666 0.90097 0.0
C1105 C 0.38631 0.42059 0.89513 0.0
C1106 C 0.38943 0.41523 0.88333 0.0
C1107 C 0.42373 0.43587 0.87736 0.0
C1108 C 0.45494 0.46201 0.88316 0.0
C1109 C 0.64127 0.50396 0.917 0.0
C1110 C 0.66121 0.5065 0.90652 0.0
C1111 C 0.60702 0.5087 0.91728 0.0
C1112 C 0.59167 0.5158 0.90707 0.0
C1113 C 0.61176 0.51882 0.89662 0.0
C1114 C 0.64632 0.51454 0.89636 0.0
C1115 C 0.55398 0.51889 0.90724 0.0
C1116 C 0.52205 0.49525 0.90084 0.0
C1117 C 0.54878 0.54374 0.91405 0.0
C1118 C 0.58146 0.56981 0.92085 0.0
C1119 C 0.61689 0.59163 0.91545 0.0
C1120 C 0.64765 0.61596 0.92195 0.0
C1121 C 0.64324 0.61889 0.93384 0.0
C1122 C 0.60801 0.59754 0.93925 0.0
C1123 C 0.57717 0.57314 0.9328 0.0
H1124 H 0.66709 0.63775 0.93885 0.0
H1125 H 0.36529 0.39502 0.87882 0.0
H1126 H 0.19049 0.62627 0.27073 0.0
H1127 H 0.13584 0.56901 0.26989 0.0
H1128 H 0.05421 0.6137 0.27122 0.0
H1129 H 0.10897 0.6713 0.27205 0.0
H1130 H 0.03297 0.56055 0.28584 0.0
H1131 H 0.0708 0.58054 0.24598 0.0
H1132 H 0.11671 0.5961 0.22956 0.0
H1133 H 0.1429 0.51128 0.2375 0.0
H1134 H 0.09754 0.49549 0.25408 0.0
H1135 H 0.86286 0.41025 0.27012 0.0
H1136 H 0.91743 0.46754 0.27085 0.0
H1137 H 0.99921 0.42296 0.2703 0.0
H1138 H 0.94458 0.3653 0.26966 0.0
H1139 H 1.02024 0.47604 0.25521 0.0
H1140 H 0.9824 0.45631 0.29513 0.0
H1141 H 0.93642 0.44093 0.31153 0.0
H1142 H 0.91002 0.52549 0.30336 0.0
H1143 H 0.95544 0.54109 0.2868 0.0
C1144 C 0.16099 0.62408 0.27065 0.0
C1145 C 0.15419 0.65351 0.27139 0.0
C1146 C 0.12969 0.59122 0.2702 0.0
C1147 C 0.09086 0.58701 0.27037 0.0
C1148 C 0.08392 0.6163 0.27109 0.0
C1149 C 0.11524 0.64921 0.27157 0.0
C1150 C 0.05756 0.552 0.27009 0.0
C1151 C 0.02987 0.54225 0.27905 0.0
C1152 C 0.05401 0.52779 0.26138 0.0
C1153 C 0.08103 0.53702 0.25134 0.0
C1154 C 0.08655 0.56535 0.24428 0.0
C1155 C 0.11245 0.57419 0.23493 0.0
C1156 C 0.13279 0.55475 0.23251 0.0
C1157 C 0.12716 0.52634 0.2394 0.0
C1158 C 0.10133 0.51741 0.24876 0.0
C1159 C 0.89235 0.41244 0.27036 0.0
C1160 C 0.89921 0.38298 0.2699 0.0
C1161 C 0.92361 0.44534 0.27073 0.0
C1162 C 0.96245 0.44959 0.27073 0.0
C1163 C 0.96948 0.42031 0.27029 0.0
C1164 C 0.9382 0.38735 0.26991 0.0
C1165 C 0.99568 0.48462 0.27097 0.0
C1166 C 1.02335 0.49436 0.262 0.0
C1167 C 0.99918 0.50885 0.27965 0.0
C1168 C 0.97206 0.49967 0.28966 0.0
C1169 C 0.96657 0.47148 0.29678 0.0
C1170 C 0.94065 0.46274 0.30611 0.0
C1171 C 0.92024 0.48217 0.30847 0.0
C1172 C 0.92581 0.51044 0.30152 0.0
C1173 C 0.95167 0.51926 0.29216 0.0
H1174 H 0.90017 0.47536 0.3157 0.0
H1175 H 0.15284 0.56165 0.22527 0.0
H1176 H 0.66127 0.48135 0.08997 0.0
H1177 H 0.60179 0.48962 0.08809 0.0
H1178 H 0.61631 0.52718 0.12318 0.0
H1179 H 0.67497 0.51772 0.12523 0.0
H1180 H 0.54438 0.48457 0.12042 0.0
H1181 H 0.6324 0.58056 0.09799 0.0
H1182 H 0.68088 0.6103 0.08274 0.0
H1183 H 0.59833 0.55032 0.05672 0.0
H1184 H 0.5495 0.51991 0.07183 0.0
H1185 H 0.40373 0.55258 0.11785 0.0
H1186 H 0.46357 0.54471 0.11921 0.0
H1187 H 0.43916 0.49548 0.0858 0.0
H1188 H 0.37923 0.5034 0.08433 0.0
H1189 H 0.51529 0.54352 0.08747 0.0
H1190 H 0.42701 0.44851 0.11046 0.0
H1191 H 0.37909 0.42065 0.12601 0.0
H1192 H 0.46363 0.48176 0.15141 0.0
H1193 H 0.51192 0.51033 0.13599 0.0
C1194 C 0.65219 0.49192 0.09723 0.0
C1195 C 0.67308 0.49895 0.10774 0.0
C1196 C 0.61807 0.49672 0.09614 0.0
C1197 C 0.60438 0.50935 0.10545 0.0
C1198 C 0.62592 0.51729 0.11585 0.0
C1199 C 0.65971 0.51206 0.11699 0.0
C1200 C 0.5668 0.51278 0.10459 0.0
C1201 C 0.53842 0.49797 0.11329 0.0
C1202 C 0.55816 0.52946 0.09516 0.0
C1203 C 0.58744 0.54772 0.08606 0.0
C1204 C 0.62469 0.57353 0.08903 0.0
C1205 C 0.65221 0.59054 0.08041 0.0
C1206 C 0.64273 0.58214 0.06878 0.0
C1207 C 0.60565 0.55677 0.06574 0.0
C1208 C 0.57803 0.53966 0.07432 0.0
C1209 C 0.41078 0.53974 0.11082 0.0
C1210 C 0.38641 0.52854 0.10099 0.0
C1211 C 0.44509 0.5352 0.11163 0.0
C1212 C 0.45596 0.51932 0.10263 0.0
C1213 C 0.43152 0.50782 0.09285 0.0
C1214 C 0.39706 0.51219 0.09206 0.0
C1215 C 0.49323 0.51552 0.10332 0.0
C1216 C 0.52143 0.5302 0.09459 0.0
C1217 C 0.5019 0.49902 0.11277 0.0
C1218 C 0.47296 0.48178 0.12206 0.0
C1219 C 0.43529 0.4562 0.11935 0.0
C1220 C 0.40807 0.44024 0.12815 0.0
C1221 C 0.41827 0.44949 0.13969 0.0
C1222 C 0.45575 0.47465 0.14247 0.0
C1223 C 0.48307 0.4907 0.13371 0.0
H1224 H 0.39716 0.43711 0.14649 0.0
H1225 H 0.66408 0.59534 0.06211 0.0
H1226 H 0.90962 0.37543 0.45441 0.0
H1227 H 0.96212 0.43402 0.45314 0.0
H1228 H 0.93382 0.43911 0.41723 0.0
H1229 H 0.88098 0.38027 0.41846 0.0
H1230 H 1.01748 0.46392 0.42264 0.0
H1231 H 0.90376 0.47846 0.43497 0.0
H1232 H 0.84706 0.46595 0.44768 0.0
H1233 H 0.92369 0.50123 0.47714 0.0
H1234 H 0.98082 0.51353 0.46461 0.0
H1235 H 0.14049 0.6432 0.41688 0.0
H1236 H 0.08577 0.58534 0.41605 0.0
H1237 H 0.07819 0.58403 0.45337 0.0
H1238 H 0.1308 0.64268 0.454 0.0
H1239 H 1.00999 0.55654 0.44623 0.0
H1240 H 0.12208 0.53874 0.436 0.0
H1241 H 0.18117 0.54737 0.42495 0.0
H1242 H 0.11256 0.51475 0.39383 0.0
H1243 H 0.05313 0.50632 0.40468 0.0
C1244 C 0.9148 0.38885 0.44621 0.0
C1245 C 0.8912 0.37321 0.43652 0.0
C1246 C 0.94465 0.42239 0.44551 0.0
C1247 C 0.95173 0.44092 0.4351 0.0
C1248 C 0.92878 0.42522 0.42534 0.0
C1249 C 0.89851 0.39176 0.42607 0.0
C1250 C 0.98266 0.47691 0.43454 0.0
C1251 C 1.01573 0.4844 0.42764 0.0
C1252 C 0.98078 0.50321 0.44137 0.0
C1253 C 0.94654 0.49668 0.44886 0.0
C1254 C 0.9085 0.48338 0.44416 0.0
C1255 C 0.87628 0.47635 0.45134 0.0
C1256 C 0.88176 0.48271 0.46322 0.0
C1257 C 0.91949 0.4963 0.46793 0.0
C1258 C 0.9518 0.50335 0.4608 0.0
C1259 C 0.12687 0.63036 0.42485 0.0
C1260 C 0.13959 0.64717 0.43549 0.0
C1261 C 0.09584 0.59722 0.42441 0.0
C1262 C 0.07804 0.57971 0.43467 0.0
C1263 C 0.09107 0.59675 0.44531 0.0
C1264 C 0.1212 0.63022 0.4457 0.0
C1265 C 0.04567 0.54394 0.4344 0.0
C1266 C 1.01207 0.53635 0.44115 0.0
C1267 C 0.0476 0.5173 0.42766 0.0
C1268 C 0.08326 0.52226 0.42113 0.0
C1269 C 0.11966 0.53363 0.42679 0.0
C1270 C 0.15319 0.53846 0.42056 0.0
C1271 C 0.15064 0.53172 0.40869 0.0
C1272 C 0.11451 0.52002 0.40303 0.0
C1273 C 0.08088 0.51519 0.40921 0.0
H1274 H 0.17664 0.53547 0.40389 0.0
H1275 H 0.85677 0.47717 0.46876 0.0
H1276 H 0.58732 0.16824 0.75131 0.0
H1277 H 0.59119 0.11339 0.75091 0.0
H1278 H 0.46512 0.05912 0.75211 0.0
H1279 H 0.46086 0.11386 0.75233 0.0
H1280 H 0.49925 0.03235 0.76731 0.0
H1281 H 0.51284 0.06404 0.72718 0.0
H1282 H 0.54133 0.10218 0.71041 0.0
H1283 H 0.65342 0.10427 0.71759 0.0
H1284 H 0.62571 0.0665 0.73452 0.0
H1285 H 0.47689 0.86609 0.75163 0.0
H1286 H 0.47472 0.92156 0.7523 0.0
H1287 H 0.60093 0.97359 0.75107 0.0
H1288 H 0.60348 0.9181 0.75057 0.0
H1289 H 0.56783 1.00194 0.73608 0.0
H1290 H 0.55394 0.96955 0.77607 0.0
H1291 H 0.52541 0.93156 0.79288 0.0
H1292 H 0.41383 0.93086 0.78597 0.0
H1293 H 0.44157 0.96848 0.76901 0.0
C1294 C 0.56033 0.14474 0.75133 0.0
C1295 C 0.52374 0.14566 0.75183 0.0
C1296 C 0.56263 0.11333 0.75115 0.0
C1297 C 0.52843 0.08213 0.75141 0.0
C1298 C 0.4919 0.08288 0.75194 0.0
C1299 C 0.48955 0.11427 0.7521 0.0
C1300 C 0.53076 0.04871 0.75126 0.0
C1301 C 0.51379 0.0255 0.7604 0.0
C1302 C 0.55058 0.04014 0.74239 0.0
C1303 C 0.56729 0.06273 0.73219 0.0
C1304 C 0.54364 0.07286 0.72524 0.0
C1305 C 0.55964 0.09437 0.7157 0.0
C1306 C 0.59919 0.10572 0.71295 0.0
C1307 C 0.6228 0.0955 0.71974 0.0
C1308 C 0.60696 0.07401 0.7293 0.0
C1309 C 0.50429 0.88919 0.75167 0.0
C1310 C 0.54041 0.88741 0.75109 0.0
C1311 C 0.50296 0.92099 0.75202 0.0
C1312 C 0.53767 0.95175 0.75183 0.0
C1313 C 0.57376 0.95017 0.7512 0.0
C1314 C 0.57514 0.91837 0.75088 0.0
C1315 C 0.53621 0.98553 0.75212 0.0
C1316 C 0.55334 1.00882 0.743 0.0
C1317 C 0.51653 0.99417 0.761 0.0
C1318 C 0.49975 0.97156 0.7712 0.0
C1319 C 0.52323 0.96106 0.77808 0.0
C1320 C 0.50722 0.93964 0.78764 0.0
C1321 C 0.4678 0.92872 0.79047 0.0
C1322 C 0.44434 0.93929 0.78376 0.0
C1323 C 0.46021 0.96069 0.77417 0.0
H1324 H 0.45546 0.91214 0.79788 0.0
H1325 H 0.61152 0.12238 0.70556 0.0
H1326 H 0.50402 0.63898 0.60405 0.0
H1327 H 0.50022 0.58107 0.60512 0.0
H1328 H 0.58433 0.60635 0.57744 0.0
H1329 H 0.58865 0.66439 0.57648 0.0
H1330 H 0.47611 0.53067 0.59058 0.0
H1331 H 0.63751 0.56144 0.57983 0.0
H1332 H 0.70381 0.60838 0.58274 0.0
H1333 H 0.66379 0.64278 0.61256 0.0
H1334 H 0.59741 0.59579 0.60992 0.0
H1335 H 0.48798 0.38012 0.57237 0.0
H1336 H 0.49367 0.43834 0.57424 0.0
H1337 H 0.56145 0.45265 0.60552 0.0
H1338 H 0.55632 0.39438 0.60356 0.0
H1339 H 0.59337 0.50816 0.59287 0.0
H1340 H 0.46366 0.43808 0.60611 0.0
H1341 H 0.39681 0.39078 0.60535 0.0
H1342 H 0.37242 0.43451 0.5747 0.0
H1343 H 0.43933 0.48185 0.57519 0.0
C1344 C 0.52172 0.63219 0.5982 0.0
C1345 C 0.54673 0.65635 0.59021 0.0
C1346 C 0.51956 0.59907 0.59883 0.0
C1347 C 0.54227 0.58932 0.59145 0.0
C1348 C 0.56715 0.61339 0.58341 0.0
C1349 C 0.5696 0.64662 0.58287 0.0
C1350 C 0.53909 0.55373 0.59193 0.0
C1351 C 0.50178 0.52581 0.59111 0.0
C1352 C 0.57244 0.54716 0.59286 0.0
C1353 C 0.6124 0.57527 0.5946 0.0
C1354 C 0.6429 0.57893 0.58703 0.0
C1355 C 0.68049 0.60557 0.58863 0.0
C1356 C 0.68797 0.62861 0.59781 0.0
C1357 C 0.65792 0.62499 0.60543 0.0
C1358 C 0.6203 0.59839 0.60388 0.0
C1359 C 0.50374 0.39549 0.57972 0.0
C1360 C 0.52146 0.38251 0.58787 0.0
C1361 C 0.507 0.42885 0.58078 0.0
C1362 C 0.52749 0.44982 0.59012 0.0
C1363 C 0.54548 0.43701 0.59824 0.0
C1364 C 0.54255 0.40371 0.59711 0.0
C1365 C 0.53047 0.4852 0.5913 0.0
C1366 C 0.56771 0.51306 0.5924 0.0
C1367 C 0.49698 0.49169 0.59093 0.0
C1368 C 0.45663 0.46337 0.59064 0.0
C1369 C 0.44413 0.43749 0.59917 0.0
C1370 C 0.40621 0.41069 0.59879 0.0
C1371 C 0.38041 0.4096 0.58997 0.0
C1372 C 0.39245 0.43538 0.58152 0.0
C1373 C 0.43035 0.46222 0.58185 0.0
H1374 H 0.35107 0.38883 0.58969 0.0
H1375 H 0.71708 0.64923 0.59902 0.0
H1376 H 0.17305 0.52748 0.9045 0.0
H1377 H 0.1049 0.51715 0.90129 0.0
H1378 H 0.08602 0.51215 0.93816 0.0
H1379 H 0.15378 0.52211 0.94143 0.0
H1380 H 1.02234 0.46469 0.9271 0.0
H1381 H 0.10662 0.58579 0.92324 0.0
H1382 H 0.16241 0.63637 0.91516 0.0
H1383 H 0.11175 0.61097 0.88118 0.0
H1384 H 0.05592 0.55988 0.88903 0.0
H1385 H 0.85188 0.49298 0.92863 0.0
H1386 H 0.91934 0.50092 0.93141 0.0
H1387 H 0.93708 0.50888 0.89448 0.0
H1388 H 0.87002 0.50144 0.89164 0.0
H1389 H 1.00131 0.55422 0.90524 0.0
H1390 H 0.91693 0.43362 0.90895 0.0
H1391 H 0.86165 0.38221 0.9168 0.0
H1392 H 0.91254 0.40594 0.95079 0.0
H1393 H 0.96788 0.4578 0.94316 0.0
C1394 C 0.15418 0.52345 0.91192 0.0
C1395 C 0.16906 0.52578 0.92323 0.0
C1396 C 0.11526 0.51784 0.91008 0.0
C1397 C 0.09038 0.51447 0.91949 0.0
C1398 C 0.10456 0.51482 0.93075 0.0
C1399 C 0.14343 0.52056 0.9326 0.0
C1400 C 0.05034 0.51234 0.91769 0.0
C1401 C 1.01782 0.48446 0.92243 0.0
C1402 C 0.04414 0.53778 0.91141 0.0
C1403 C 0.0773 0.56882 0.9067 0.0
C1404 C 0.1075 0.59087 0.91403 0.0
C1405 C 0.13912 0.61963 0.90949 0.0
C1406 C 0.14068 0.62682 0.89766 0.0
C1407 C 0.11053 0.60533 0.89034 0.0
C1408 C 0.07888 0.57647 0.89483 0.0
C1409 C 0.87028 0.49692 0.9211 0.0
C1410 C 0.85529 0.4964 0.9099 0.0
C1411 C 0.90884 0.5012 0.9227 0.0
C1412 C 0.93327 0.5049 0.91314 0.0
C1413 C 0.91891 0.50593 0.902 0.0
C1414 C 0.88041 0.50163 0.90039 0.0
C1415 C 0.97324 0.50658 0.91469 0.0
C1416 C 1.00577 0.5344 0.90991 0.0
C1417 C 0.97945 0.48104 0.92091 0.0
C1418 C 0.94634 0.44978 0.92551 0.0
C1419 C 0.91618 0.42802 0.91811 0.0
C1420 C 0.88486 0.39878 0.92252 0.0
C1421 C 0.88353 0.39086 0.93429 0.0
C1422 C 0.91358 0.41213 0.94168 0.0
C1423 C 0.94495 0.44144 0.93732 0.0
H1424 H 0.85926 0.36821 0.93769 0.0
H1425 H 0.1652 0.64909 0.89416 0.0
H1426 H 0.38013 0.90587 0.25254 0.0
H1427 H 0.43883 0.96092 0.25293 0.0
H1428 H 0.472 0.934 0.2858 0.0
H1429 H 0.41313 0.87853 0.28542 0.0
H1430 H 0.47763 1.00398 0.28408 0.0
H1431 H 0.51936 0.92778 0.26435 0.0
H1432 H 0.51423 0.88476 0.24965 0.0
H1433 H 0.52031 0.9552 0.22258 0.0
H1434 H 0.52488 0.99847 0.23713 0.0
H1435 H 0.66784 0.14759 0.28236 0.0
H1436 H 0.61276 0.09041 0.28484 0.0
H1437 H 0.58405 0.08934 0.24859 0.0
H1438 H 0.63987 0.14543 0.24608 0.0
H1439 H 0.57837 0.03056 0.25356 0.0
H1440 H 0.53092 0.10464 0.27204 0.0
H1441 H 0.53225 0.14833 0.28594 0.0
H1442 H 0.53276 0.08396 0.31426 0.0
H1443 H 0.53192 0.04005 0.30051 0.0
C1444 C 0.39972 0.91176 0.2599 0.0
C1445 C 0.392 0.88789 0.26896 0.0
C1446 C 0.43334 0.94313 0.26008 0.0
C1447 C 0.45979 0.95147 0.26938 0.0
C1448 C 0.45193 0.92802 0.27855 0.0
C1449 C 0.4185 0.89632 0.27829 0.0
C1450 C 0.49591 0.98451 0.26932 0.0
C1451 C 0.50007 1.00971 0.27754 0.0
C1452 C 0.52457 0.99215 0.26061 0.0
C1453 C 0.52213 0.96626 0.25184 0.0
C1454 C 0.51928 0.934 0.25527 0.0
C1455 C 0.51653 0.90958 0.24696 0.0
C1456 C 0.51686 0.91721 0.23519 0.0
C1457 C 0.52003 0.94931 0.2317 0.0
C1458 C 0.52274 0.9738 0.23998 0.0
C1459 C 0.64957 0.13503 0.27498 0.0
C1460 C 0.65819 0.15077 0.26403 0.0
C1461 C 0.618 0.10244 0.27638 0.0
C1462 C 0.59378 0.08548 0.26692 0.0
C1463 C 0.60229 0.10158 0.25603 0.0
C1464 C 0.63422 0.13368 0.25458 0.0
C1465 C 0.56 0.05077 0.26818 0.0
C1466 C 0.55623 0.02503 0.26018 0.0
C1467 C 0.53136 0.04292 0.27698 0.0
C1468 C 0.53182 0.06925 0.28525 0.0
C1469 C 0.53162 0.09992 0.28123 0.0
C1470 C 0.53223 0.1247 0.28908 0.0
C1471 C 0.53272 0.11897 0.30098 0.0
C1472 C 0.53246 0.08839 0.30505 0.0
C1473 C 0.53189 0.06354 0.29723 0.0
H1474 H 0.53319 0.13818 0.30704 0.0
H1475 H 0.51472 0.89828 0.22877 0.0
loop_
_geom_bond_atom_site_label_1
_geom_bond_atom_site_label_2
_geom_bond_distance
_geom_bond_site_symmetry_2
_ccdc_geom_bond_type
Cu0 N1 1.999 . S
Cu0 O6 1.974 . S
Cu0 N11 1.985 . S
Cu0 O20 1.959 . S
N1 Cu0 1.999 . S
N1 C3 1.263 . S
N1 C5 1.389 . S
N2 C3 1.358 . S
N2 C4 1.400 . S
C3 N1 1.263 . S
C3 N2 1.358 . S
C3 H9 0.930 . S
C4 N2 1.400 . S
C4 C5 1.351 . S
C4 H21 0.930 . S
C5 N1 1.389 . S
C5 C4 1.351 . S
C5 H10 0.930 . S
O6 Cu0 1.974 . S
O6 C16 1.282 . S
C7 O8 1.261 . S
C7 O20 1.251 . S
O8 C7 1.261 . S
H9 C3 0.930 . S
H10 C5 0.930 . S
N11 Cu0 1.985 . S
N11 C13 1.335 . S
N11 C14 1.390 . S
N12 C13 1.345 . S
N12 C15 1.336 . S
C13 N11 1.335 . S
C13 N12 1.345 . S
C13 H18 0.930 . S
C14 N11 1.390 . S
C14 C15 1.346 . S
C14 H19 0.930 . S
C15 N12 1.336 . S
C15 C14 1.346 . S
C15 H22 0.929 . S
C16 O6 1.282 . S
C16 O17 1.216 . S
O17 C16 1.216 . S
H18 C13 0.930 . S
H19 C14 0.930 . S
O20 Cu0 1.959 . S
O20 C7 1.251 . S
H21 C4 0.930 . S
H22 C15 0.929 . S
Cu23 N24 1.999 . S
Cu23 O29 1.974 . S
Cu23 N34 1.985 . S
Cu23 O43 1.959 . S
N24 Cu23 1.999 . S
N24 C26 1.263 . S
N24 C28 1.389 . S
N25 C26 1.358 . S
N25 C27 1.400 . S
C26 N24 1.263 . S
C26 N25 1.358 . S
C26 H32 0.930 . S
C27 N25 1.400 . S
C27 C28 1.351 . S
C27 H44 0.930 . S
C28 N24 1.389 . S
C28 C27 1.351 . S
C28 H33 0.930 . S
O29 Cu23 1.974 . S
O29 C39 1.282 . S
C30 O31 1.261 . S
C30 O43 1.251 . S
O31 C30 1.261 . S
H32 C26 0.930 . S
H33 C28 0.930 . S
N34 Cu23 1.985 . S
N34 C36 1.335 . S
N34 C37 1.390 . S
N35 C36 1.345 . S
N35 C38 1.336 . S
C36 N34 1.335 . S
C36 N35 1.345 . S
C36 H41 0.930 . S
C37 N34 1.390 . S
C37 C38 1.346 . S
C37 H42 0.930 . S
C38 N35 1.336 . S
C38 C37 1.346 . S
C38 H45 0.929 . S
C39 O29 1.282 . S
C39 O40 1.216 . S
O40 C39 1.216 . S
H41 C36 0.930 . S
H42 C37 0.930 . S
O43 Cu23 1.959 . S
O43 C30 1.251 . S
H44 C27 0.930 . S
H45 C38 0.929 . S
Cu46 N47 1.999 . S
Cu46 O52 1.974 . S
Cu46 N57 1.985 . S
Cu46 O66 1.959 . S
N47 Cu46 1.999 . S
N47 C49 1.263 . S
N47 C51 1.389 . S
N48 C49 1.358 . S
N48 C50 1.400 . S
C49 N47 1.263 . S
C49 N48 1.358 . S
C49 H55 0.930 . S
C50 N48 1.400 . S
C50 C51 1.351 . S
C50 H67 0.930 . S
C51 N47 1.389 . S
C51 C50 1.351 . S
C51 H56 0.930 . S
O52 Cu46 1.974 . S
O52 C62 1.282 . S
C53 O54 1.261 . S
C53 O66 1.251 . S
O54 C53 1.261 . S
H55 C49 0.930 . S
H56 C51 0.930 . S
N57 Cu46 1.985 . S
N57 C59 1.335 . S
N57 C60 1.390 . S
N58 C59 1.345 . S
N58 C61 1.336 . S
C59 N57 1.335 . S
C59 N58 1.345 . S
C59 H64 0.930 . S
C60 N57 1.390 . S
C60 C61 1.346 . S
C60 H65 0.930 . S
C61 N58 1.336 . S
C61 C60 1.346 . S
C61 H68 0.929 . S
C62 O52 1.282 . S
C62 O63 1.216 . S
O63 C62 1.216 . S
H64 C59 0.930 . S
H65 C60 0.930 . S
O66 Cu46 1.959 . S
O66 C53 1.251 . S
H67 C50 0.930 . S
H68 C61 0.929 . S
Cu69 N70 1.999 . S
Cu69 O75 1.974 . S
Cu69 N80 1.985 . S
Cu69 O89 1.959 . S
N70 Cu69 1.999 . S
N70 C72 1.263 . S
N70 C74 1.389 . S
N71 C72 1.358 . S
N71 C73 1.400 . S
C72 N70 1.263 . S
C72 N71 1.358 . S
C72 H78 0.930 . S
C73 N71 1.400 . S
C73 C74 1.351 . S
C73 H90 0.930 . S
C74 N70 1.389 . S
C74 C73 1.351 . S
C74 H79 0.930 . S
O75 Cu69 1.974 . S
O75 C85 1.282 . S
C76 O77 1.261 . S
C76 O89 1.251 . S
O77 C76 1.261 . S
H78 C72 0.930 . S
H79 C74 0.930 . S
N80 Cu69 1.985 . S
N80 C82 1.335 . S
N80 C83 1.390 . S
N81 C82 1.345 . S
N81 C84 1.336 . S
C82 N80 1.335 . S
C82 N81 1.345 . S
C82 H87 0.930 . S
C83 N80 1.390 . S
C83 C84 1.346 . S
C83 H88 0.930 . S
C84 N81 1.336 . S
C84 C83 1.346 . S
C84 H91 0.929 . S
C85 O75 1.282 . S
C85 O86 1.216 . S
O86 C85 1.216 . S
H87 C82 0.930 . S
H88 C83 0.930 . S
O89 Cu69 1.959 . S
O89 C76 1.251 . S
H90 C73 0.930 . S
H91 C84 0.929 . S
Cu92 N93 1.999 . S
Cu92 O98 1.974 . S
Cu92 N103 1.985 . S
Cu92 O112 1.959 . S
N93 Cu92 1.999 . S
N93 C95 1.263 . S
N93 C97 1.389 . S
N94 C95 1.358 . S
N94 C96 1.400 . S
C95 N93 1.263 . S
C95 N94 1.358 . S
C95 H101 0.930 . S
C96 N94 1.400 . S
C96 C97 1.351 . S
C96 H113 0.930 . S
C97 N93 1.389 . S
C97 C96 1.351 . S
C97 H102 0.930 . S
O98 Cu92 1.974 . S
O98 C108 1.282 . S
C99 O100 1.261 . S
C99 O112 1.251 . S
O100 C99 1.261 . S
H101 C95 0.930 . S
H102 C97 0.930 . S
N103 Cu92 1.985 . S
N103 C105 1.335 . S
N103 C106 1.390 . S
N104 C105 1.345 . S
N104 C107 1.336 . S
C105 N103 1.335 . S
C105 N104 1.345 . S
C105 H110 0.930 . S
C106 N103 1.390 . S
C106 C107 1.346 . S
C106 H111 0.930 . S
C107 N104 1.336 . S
C107 C106 1.346 . S
C107 H114 0.929 . S
C108 O98 1.282 . S
C108 O109 1.216 . S
O109 C108 1.216 . S
H110 C105 0.930 . S
H111 C106 0.930 . S
O112 Cu92 1.959 . S
O112 C99 1.251 . S
H113 C96 0.930 . S
H114 C107 0.929 . S
Cu115 N116 1.999 . S
Cu115 O121 1.974 . S
Cu115 N126 1.985 . S
Cu115 O135 1.959 . S
N116 Cu115 1.999 . S
N116 C118 1.263 . S
N116 C120 1.389 . S
N117 C118 1.358 . S
N117 C119 1.400 . S
C118 N116 1.263 . S
C118 N117 1.358 . S
C118 H124 0.930 . S
C119 N117 1.400 . S
C119 C120 1.351 . S
C119 H136 0.930 . S
C120 N116 1.389 . S
C120 C119 1.351 . S
C120 H125 0.930 . S
O121 Cu115 1.974 . S
O121 C131 1.282 . S
C122 O123 1.261 . S
C122 O135 1.251 . S
O123 C122 1.261 . S
H124 C118 0.930 . S
H125 C120 0.930 . S
N126 Cu115 1.985 . S
N126 C128 1.335 . S
N126 C129 1.390 . S
N127 C128 1.345 . S
N127 C130 1.336 . S
C128 N126 1.335 . S
C128 N127 1.345 . S
C128 H133 0.930 . S
C129 N126 1.390 . S
C129 C130 1.346 . S
C129 H134 0.930 . S
C130 N127 1.336 . S
C130 C129 1.346 . S
C130 H137 0.929 . S
C131 O121 1.282 . S
C131 O132 1.216 . S
O132 C131 1.216 . S
H133 C128 0.930 . S
H134 C129 0.930 . S
O135 Cu115 1.959 . S
O135 C122 1.251 . S
H136 C119 0.930 . S
H137 C130 0.929 . S
Cu138 N139 1.999 . S
Cu138 O144 1.974 . S
Cu138 N149 1.985 . S
Cu138 O158 1.959 . S
N139 Cu138 1.999 . S
N139 C141 1.263 . S
N139 C143 1.389 . S
N140 C141 1.358 . S
N140 C142 1.400 . S
C141 N139 1.263 . S
C141 N140 1.358 . S
C141 H147 0.930 . S
C142 N140 1.400 . S
C142 C143 1.351 . S
C142 H159 0.930 . S
C143 N139 1.389 . S
C143 C142 1.351 . S
C143 H148 0.930 . S
O144 Cu138 1.974 . S
O144 C154 1.282 . S
C145 O146 1.261 . S
C145 O158 1.251 . S
O146 C145 1.261 . S
H147 C141 0.930 . S
H148 C143 0.930 . S
N149 Cu138 1.985 . S
N149 C151 1.335 . S
N149 C152 1.390 . S
N150 C151 1.345 . S
N150 C153 1.336 . S
C151 N149 1.335 . S
C151 N150 1.345 . S
C151 H156 0.930 . S
C152 N149 1.390 . S
C152 C153 1.346 . S
C152 H157 0.930 . S
C153 N150 1.336 . S
C153 C152 1.346 . S
C153 H160 0.929 . S
C154 O144 1.282 . S
C154 O155 1.216 . S
O155 C154 1.216 . S
H156 C151 0.930 . S
H157 C152 0.930 . S
O158 Cu138 1.959 . S
O158 C145 1.251 . S
H159 C142 0.930 . S
H160 C153 0.929 . S
Cu161 N162 1.999 . S
Cu161 O167 1.974 . S
Cu161 N172 1.985 . S
Cu161 O181 1.959 . S
N162 Cu161 1.999 . S
N162 C164 1.263 . S
N162 C166 1.389 . S
N163 C164 1.358 . S
N163 C165 1.400 . S
C164 N162 1.263 . S
C164 N163 1.358 . S
C164 H170 0.930 . S
C165 N163 1.400 . S
C165 C166 1.351 . S
C165 H182 0.930 . S
C166 N162 1.389 . S
C166 C165 1.351 . S
C166 H171 0.930 . S
O167 Cu161 1.974 . S
O167 C177 1.282 . S
C168 O169 1.261 . S
C168 O181 1.251 . S
O169 C168 1.261 . S
H170 C164 0.930 . S
H171 C166 0.930 . S
N172 Cu161 1.985 . S
N172 C174 1.335 . S
N172 C175 1.390 . S
N173 C174 1.345 . S
N173 C176 1.336 . S
C174 N172 1.335 . S
C174 N173 1.345 . S
C174 H179 0.930 . S
C175 N172 1.390 . S
C175 C176 1.346 . S
C175 H180 0.930 . S
C176 N173 1.336 . S
C176 C175 1.346 . S
C176 H183 0.929 . S
C177 O167 1.282 . S
C177 O178 1.216 . S
O178 C177 1.216 . S
H179 C174 0.930 . S
H180 C175 0.930 . S
O181 Cu161 1.959 . S
O181 C168 1.251 . S
H182 C165 0.930 . S
H183 C176 0.929 . S
Cu184 N185 1.999 . S
Cu184 O190 1.974 . S
Cu184 N195 1.985 . S
Cu184 O204 1.959 . S
N185 Cu184 1.999 . S
N185 C187 1.263 . S
N185 C189 1.389 . S
N186 C187 1.358 . S
N186 C188 1.400 . S
C187 N185 1.263 . S
C187 N186 1.358 . S
C187 H193 0.930 . S
C188 N186 1.400 . S
C188 C189 1.351 . S
C188 H205 0.930 . S
C189 N185 1.389 . S
C189 C188 1.351 . S
C189 H194 0.930 . S
O190 Cu184 1.974 . S
O190 C200 1.282 . S
C191 O192 1.261 . S
C191 O204 1.251 . S
O192 C191 1.261 . S
H193 C187 0.930 . S
H194 C189 0.930 . S
N195 Cu184 1.985 . S
N195 C197 1.335 . S
N195 C198 1.390 . S
N196 C197 1.345 . S
N196 C199 1.336 . S
C197 N195 1.335 . S
C197 N196 1.345 . S
C197 H202 0.930 . S
C198 N195 1.390 . S
C198 C199 1.346 . S
C198 H203 0.930 . S
C199 N196 1.336 . S
C199 C198 1.346 . S
C199 H206 0.929 . S
C200 O190 1.282 . S
C200 O201 1.216 . S
O201 C200 1.216 . S
H202 C197 0.930 . S
H203 C198 0.930 . S
O204 Cu184 1.959 . S
O204 C191 1.251 . S
H205 C188 0.930 . S
H206 C199 0.929 . S
Cu207 N208 1.999 . S
Cu207 O213 1.974 . S
Cu207 N218 1.985 . S
Cu207 O227 1.959 . S
N208 Cu207 1.999 . S
N208 C210 1.263 . S
N208 C212 1.389 . S
N209 C210 1.358 . S
N209 C211 1.400 . S
C210 N208 1.263 . S
C210 N209 1.358 . S
C210 H216 0.930 . S
C211 N209 1.400 . S
C211 C212 1.351 . S
C211 H228 0.930 . S
C212 N208 1.389 . S
C212 C211 1.351 . S
C212 H217 0.930 . S
O213 Cu207 1.974 . S
O213 C223 1.282 . S
C214 O215 1.261 . S
C214 O227 1.251 . S
O215 C214 1.261 . S
H216 C210 0.930 . S
H217 C212 0.930 . S
N218 Cu207 1.985 . S
N218 C220 1.335 . S
N218 C221 1.390 . S
N219 C220 1.345 . S
N219 C222 1.336 . S
C220 N218 1.335 . S
C220 N219 1.345 . S
C220 H225 0.930 . S
C221 N218 1.390 . S
C221 C222 1.346 . S
C221 H226 0.930 . S
C222 N219 1.336 . S
C222 C221 1.346 . S
C222 H229 0.929 . S
C223 O213 1.282 . S
C223 O224 1.216 . S
O224 C223 1.216 . S
H225 C220 0.930 . S
H226 C221 0.930 . S
O227 Cu207 1.959 . S
O227 C214 1.251 . S
H228 C211 0.930 . S
H229 C222 0.929 . S
Cu230 N231 1.999 . S
Cu230 O236 1.974 . S
Cu230 N241 1.985 . S
Cu230 O250 1.959 . S
N231 Cu230 1.999 . S
N231 C233 1.263 . S
N231 C235 1.389 . S
N232 C233 1.358 . S
N232 C234 1.400 . S
C233 N231 1.263 . S
C233 N232 1.358 . S
C233 H239 0.930 . S
C234 N232 1.400 . S
C234 C235 1.351 . S
C234 H251 0.930 . S
C235 N231 1.389 . S
C235 C234 1.351 . S
C235 H240 0.930 . S
O236 Cu230 1.974 . S
O236 C246 1.282 . S
C237 O238 1.261 . S
C237 O250 1.251 . S
O238 C237 1.261 . S
H239 C233 0.930 . S
H240 C235 0.930 . S
N241 Cu230 1.985 . S
N241 C243 1.335 . S
N241 C244 1.390 . S
N242 C243 1.345 . S
N242 C245 1.336 . S
C243 N241 1.335 . S
C243 N242 1.345 . S
C243 H248 0.930 . S
C244 N241 1.390 . S
C244 C245 1.346 . S
C244 H249 0.930 . S
C245 N242 1.336 . S
C245 C244 1.346 . S
C245 H252 0.929 . S
C246 O236 1.282 . S
C246 O247 1.216 . S
O247 C246 1.216 . S
H248 C243 0.930 . S
H249 C244 0.930 . S
O250 Cu230 1.959 . S
O250 C237 1.251 . S
H251 C234 0.930 . S
H252 C245 0.929 . S
Cu253 N254 1.999 . S
Cu253 O259 1.974 . S
Cu253 N264 1.985 . S
Cu253 O273 1.959 . S
N254 Cu253 1.999 . S
N254 C256 1.263 . S
N254 C258 1.389 . S
N255 C256 1.358 . S
N255 C257 1.400 . S
C256 N254 1.263 . S
C256 N255 1.358 . S
C256 H262 0.930 . S
C257 N255 1.400 . S
C257 C258 1.351 . S
C257 H274 0.930 . S
C258 N254 1.389 . S
C258 C257 1.351 . S
C258 H263 0.930 . S
O259 Cu253 1.974 . S
O259 C269 1.282 . S
C260 O261 1.261 . S
C260 O273 1.251 . S
O261 C260 1.261 . S
H262 C256 0.930 . S
H263 C258 0.930 . S
N264 Cu253 1.985 . S
N264 C266 1.335 . S
N264 C267 1.390 . S
N265 C266 1.345 . S
N265 C268 1.336 . S
C266 N264 1.335 . S
C266 N265 1.345 . S
C266 H271 0.930 . S
C267 N264 1.390 . S
C267 C268 1.346 . S
C267 H272 0.930 . S
C268 N265 1.336 . S
C268 C267 1.346 . S
C268 H275 0.929 . S
C269 O259 1.282 . S
C269 O270 1.216 . S
O270 C269 1.216 . S
H271 C266 0.930 . S
H272 C267 0.930 . S
O273 Cu253 1.959 . S
O273 C260 1.251 . S
H274 C257 0.930 . S
H275 C268 0.929 . S
H276 C294 0.951 . S
H277 C296 0.951 . S
H278 C298 0.950 . S
H279 C299 0.950 . S
H280 C301 0.950 . S
H281 C304 0.950 . S
H282 C305 0.950 . S
H283 C307 0.950 . S
H284 C308 0.950 . S
H285 C309 0.951 . S
H286 C311 0.951 . S
H287 C313 0.950 . S
H288 C314 0.950 . S
H289 C316 0.950 . S
H290 C319 0.950 . S
H291 C320 0.950 . S
H292 C322 0.950 . S
H293 C323 0.950 . S
C294 H276 0.951 . S
C294 C295 1.366 . S
C294 C296 1.388 . S
C295 C294 1.366 . S
C295 C299 1.385 . S
C296 H277 0.951 . S
C296 C294 1.388 . S
C296 C297 1.366 . S
C297 C296 1.366 . S
C297 C298 1.414 . S
C297 C300 1.499 . S
C298 H278 0.950 . S
C298 C297 1.414 . S
C298 C299 1.374 . S
C299 H279 0.950 . S
C299 C295 1.385 . S
C299 C298 1.374 . S
C300 C297 1.499 . S
C300 C301 1.373 . S
C300 C302 1.389 . S
C301 H280 0.950 . S
C301 C300 1.373 . S
C301 C317 1.377 1_556 S
C302 C300 1.389 . S
C302 C303 1.524 . S
C302 C316 1.377 1_556 S
C303 C302 1.524 . S
C303 C304 1.397 . S
C303 C308 1.363 . S
C304 H281 0.950 . S
C304 C303 1.397 . S
C304 C305 1.334 . S
C305 H282 0.950 . S
C305 C304 1.334 . S
C305 C306 1.287 . S
C306 C305 1.287 . S
C306 C307 1.524 . S
C306 H325 0.913 . S
C307 H283 0.950 . S
C307 C306 1.524 . S
C307 C308 1.415 . S
C308 H284 0.950 . S
C308 C303 1.363 . S
C308 C307 1.415 . S
C309 H285 0.951 . S
C309 C310 1.366 . S
C309 C311 1.388 . S
C310 C309 1.366 . S
C310 C314 1.385 . S
C311 H286 0.951 . S
C311 C309 1.388 . S
C311 C312 1.366 . S
C312 C311 1.366 . S
C312 C313 1.414 . S
C312 C315 1.499 . S
C313 H287 0.950 . S
C313 C312 1.414 . S
C313 C314 1.374 . S
C314 H288 0.950 . S
C314 C310 1.385 . S
C314 C313 1.374 . S
C315 C312 1.499 . S
C315 C316 1.373 . S
C315 C317 1.389 . S
C316 H289 0.950 . S
C316 C302 1.377 1_554 S
C316 C315 1.373 . S
C317 C301 1.377 1_554 S
C317 C315 1.389 . S
C317 C318 1.524 . S
C318 C317 1.524 . S
C318 C319 1.397 . S
C318 C323 1.363 . S
C319 H290 0.950 . S
C319 C318 1.397 . S
C319 C320 1.334 . S
C320 H291 0.950 . S
C320 C319 1.334 . S
C320 C321 1.287 . S
C321 C320 1.287 . S
C321 C322 1.524 . S
C321 H324 0.999 . S
C322 H292 0.950 . S
C322 C321 1.524 . S
C322 C323 1.415 . S
C323 H293 0.950 . S
C323 C318 1.363 . S
C323 C322 1.415 . S
H324 C321 0.999 . S
H325 C306 0.913 . S
H326 C344 0.951 . S
H327 C346 0.951 . S
H328 C348 0.950 . S
H329 C349 0.950 . S
H330 C351 0.950 . S
H331 C354 0.950 . S
H332 C355 0.950 . S
H333 C357 0.950 . S
H334 C358 0.950 . S
H335 C359 0.951 . S
H336 C361 0.951 . S
H337 C363 0.950 . S
H338 C364 0.950 . S
H339 C366 0.950 . S
H340 C369 0.950 . S
H341 C370 0.950 . S
H342 C372 0.950 . S
H343 C373 0.950 . S
C344 H326 0.951 . S
C344 C345 1.366 . S
C344 C346 1.388 . S
C345 C344 1.366 . S
C345 C349 1.385 . S
C346 H327 0.951 . S
C346 C344 1.388 . S
C346 C347 1.366 . S
C347 C346 1.366 . S
C347 C348 1.414 . S
C347 C350 1.499 . S
C348 H328 0.950 . S
C348 C347 1.414 . S
C348 C349 1.374 . S
C349 H329 0.950 . S
C349 C345 1.385 . S
C349 C348 1.374 . S
C350 C347 1.499 . S
C350 C351 1.373 . S
C350 C352 1.389 . S
C351 H330 0.950 . S
C351 C350 1.373 . S
C351 C367 1.377 . S
C352 C350 1.389 . S
C352 C353 1.524 . S
C352 C366 1.377 . S
C353 C352 1.524 . S
C353 C354 1.397 . S
C353 C358 1.363 . S
C354 H331 0.950 . S
C354 C353 1.397 . S
C354 C355 1.334 . S
C355 H332 0.950 . S
C355 C354 1.334 . S
C355 C356 1.287 . S
C356 C355 1.287 . S
C356 C357 1.524 . S
C356 H375 0.913 . S
C357 H333 0.950 . S
C357 C356 1.524 . S
C357 C358 1.415 . S
C358 H334 0.950 . S
C358 C353 1.363 . S
C358 C357 1.415 . S
C359 H335 0.951 . S
C359 C360 1.366 . S
C359 C361 1.388 . S
C360 C359 1.366 . S
C360 C364 1.385 . S
C361 H336 0.951 . S
C361 C359 1.388 . S
C361 C362 1.366 . S
C362 C361 1.366 . S
C362 C363 1.414 . S
C362 C365 1.499 . S
C363 H337 0.950 . S
C363 C362 1.414 . S
C363 C364 1.374 . S
C364 H338 0.950 . S
C364 C360 1.385 . S
C364 C363 1.374 . S
C365 C362 1.499 . S
C365 C366 1.373 . S
C365 C367 1.389 . S
C366 H339 0.950 . S
C366 C352 1.377 . S
C366 C365 1.373 . S
C367 C351 1.377 . S
C367 C365 1.389 . S
C367 C368 1.524 . S
C368 C367 1.524 . S
C368 C369 1.397 . S
C368 C373 1.363 . S
C369 H340 0.950 . S
C369 C368 1.397 . S
C369 C370 1.334 . S
C370 H341 0.950 . S
C370 C369 1.334 . S
C370 C371 1.287 . S
C371 C370 1.287 . S
C371 C372 1.524 . S
C371 H374 0.999 . S
C372 H342 0.950 . S
C372 C371 1.524 . S
C372 C373 1.415 . S
C373 H343 0.950 . S
C373 C368 1.363 . S
C373 C372 1.415 . S
H374 C371 0.999 . S
H375 C356 0.913 . S
H376 C394 0.951 . S
H377 C396 0.951 . S
H378 C398 0.950 . S
H379 C399 0.950 . S
H380 C401 0.950 . S
H381 C404 0.950 . S
H382 C405 0.950 . S
H383 C407 0.950 . S
H384 C408 0.950 . S
H385 C409 0.951 . S
H386 C411 0.951 . S
H387 C413 0.950 . S
H388 C414 0.950 . S
H389 C416 0.950 . S
H390 C419 0.950 . S
H391 C420 0.950 . S
H392 C422 0.950 . S
H393 C423 0.950 . S
C394 H376 0.951 . S
C394 C395 1.366 . S
C394 C396 1.388 . S
C395 C394 1.366 . S
C395 C399 1.385 . S
C396 H377 0.951 . S
C396 C394 1.388 . S
C396 C397 1.366 . S
C397 C396 1.366 . S
C397 C398 1.414 . S
C397 C400 1.499 . S
C398 H378 0.950 . S
C398 C397 1.414 . S
C398 C399 1.374 . S
C399 H379 0.950 . S
C399 C395 1.385 . S
C399 C398 1.374 . S
C400 C397 1.499 . S
C400 C401 1.373 . S
C400 C402 1.389 . S
C401 H380 0.950 . S
C401 C400 1.373 . S
C401 C417 1.377 . S
C402 C400 1.389 . S
C402 C403 1.524 . S
C402 C416 1.377 . S
C403 C402 1.524 . S
C403 C404 1.397 . S
C403 C408 1.363 . S
C404 H381 0.950 . S
C404 C403 1.397 . S
C404 C405 1.334 . S
C405 H382 0.950 . S
C405 C404 1.334 . S
C405 C406 1.287 . S
C406 C405 1.287 . S
C406 C407 1.524 . S
C406 H425 0.913 . S
C407 H383 0.950 . S
C407 C406 1.524 . S
C407 C408 1.415 . S
C408 H384 0.950 . S
C408 C403 1.363 . S
C408 C407 1.415 . S
C409 H385 0.951 . S
C409 C410 1.366 . S
C409 C411 1.388 . S
C410 C409 1.366 . S
C410 C414 1.385 . S
C411 H386 0.951 . S
C411 C409 1.388 . S
C411 C412 1.366 . S
C412 C411 1.366 . S
C412 C413 1.414 . S
C412 C415 1.499 . S
C413 H387 0.950 . S
C413 C412 1.414 . S
C413 C414 1.374 . S
C414 H388 0.950 . S
C414 C410 1.385 . S
C414 C413 1.374 . S
C415 C412 1.499 . S
C415 C416 1.373 . S
C415 C417 1.389 . S
C416 H389 0.950 . S
C416 C402 1.377 . S
C416 C415 1.373 . S
C417 C401 1.377 . S
C417 C415 1.389 . S
C417 C418 1.524 . S
C418 C417 1.524 . S
C418 C419 1.397 . S
C418 C423 1.363 . S
C419 H390 0.950 . S
C419 C418 1.397 . S
C419 C420 1.334 . S
C420 H391 0.950 . S
C420 C419 1.334 . S
C420 C421 1.287 . S
C421 C420 1.287 . S
C421 C422 1.524 . S
C421 H424 0.999 . S
C422 H392 0.950 . S
C422 C421 1.524 . S
C422 C423 1.415 . S
C423 H393 0.950 . S
C423 C418 1.363 . S
C423 C422 1.415 . S
H424 C421 0.999 . S
H425 C406 0.913 . S
H426 C444 0.951 . S
H427 C446 0.951 . S
H428 C448 0.950 . S
H429 C449 0.950 . S
H430 C451 0.950 . S
H431 C454 0.950 . S
H432 C455 0.950 . S
H433 C457 0.950 . S
H434 C458 0.950 . S
H435 C459 0.951 . S
H436 C461 0.951 . S
H437 C463 0.950 . S
H438 C464 0.950 . S
H439 C466 0.950 . S
H440 C469 0.950 . S
H441 C470 0.950 . S
H442 C472 0.950 . S
H443 C473 0.950 . S
C444 H426 0.951 . S
C444 C445 1.366 . S
C444 C446 1.388 . S
C445 C444 1.366 . S
C445 C449 1.385 . S
C446 H427 0.951 . S
C446 C444 1.388 . S
C446 C447 1.366 . S
C447 C446 1.366 . S
C447 C448 1.414 . S
C447 C450 1.499 . S
C448 H428 0.950 . S
C448 C447 1.414 . S
C448 C449 1.374 . S
C449 H429 0.950 . S
C449 C445 1.385 . S
C449 C448 1.374 . S
C450 C447 1.499 . S
C450 C451 1.373 . S
C450 C452 1.389 . S
C451 H430 0.950 . S
C451 C450 1.373 . S
C451 C467 1.377 1_554 S
C452 C450 1.389 . S
C452 C453 1.524 . S
C452 C466 1.377 1_554 S
C453 C452 1.524 . S
C453 C454 1.397 . S
C453 C458 1.363 . S
C454 H431 0.950 . S
C454 C453 1.397 . S
C454 C455 1.334 . S
C455 H432 0.950 . S
C455 C454 1.334 . S
C455 C456 1.287 . S
C456 C455 1.287 . S
C456 C457 1.524 . S
C456 H475 0.913 . S
C457 H433 0.950 . S
C457 C456 1.524 . S
C457 C458 1.415 . S
C458 H434 0.950 . S
C458 C453 1.363 . S
C458 C457 1.415 . S
C459 H435 0.951 . S
C459 C460 1.366 . S
C459 C461 1.388 . S
C460 C459 1.366 . S
C460 C464 1.385 . S
C461 H436 0.951 . S
C461 C459 1.388 . S
C461 C462 1.366 . S
C462 C461 1.366 . S
C462 C463 1.414 . S
C462 C465 1.499 . S
C463 H437 0.950 . S
C463 C462 1.414 . S
C463 C464 1.374 . S
C464 H438 0.950 . S
C464 C460 1.385 . S
C464 C463 1.374 . S
C465 C462 1.499 . S
C465 C466 1.373 . S
C465 C467 1.389 . S
C466 H439 0.950 . S
C466 C452 1.377 1_556 S
C466 C465 1.373 . S
C467 C451 1.377 1_556 S
C467 C465 1.389 . S
C467 C468 1.524 . S
C468 C467 1.524 . S
C468 C469 1.397 . S
C468 C473 1.363 . S
C469 H440 0.950 . S
C469 C468 1.397 . S
C469 C470 1.334 . S
C470 H441 0.950 . S
C470 C469 1.334 . S
C470 C471 1.287 . S
C471 C470 1.287 . S
C471 C472 1.524 . S
C471 H474 0.999 . S
C472 H442 0.950 . S
C472 C471 1.524 . S
C472 C473 1.415 . S
C473 H443 0.950 . S
C473 C468 1.363 . S
C473 C472 1.415 . S
H474 C471 0.999 . S
H475 C456 0.913 . S
H476 C494 0.951 . S
H477 C496 0.951 . S
H478 C498 0.950 . S
H479 C499 0.950 . S
H480 C501 0.950 . S
H481 C504 0.950 . S
H482 C505 0.950 . S
H483 C507 0.950 . S
H484 C508 0.950 . S
H485 C509 0.951 . S
H486 C511 0.951 . S
H487 C513 0.950 . S
H488 C514 0.950 . S
H489 C516 0.950 . S
H490 C519 0.950 . S
H491 C520 0.950 . S
H492 C522 0.950 . S
H493 C523 0.950 . S
C494 H476 0.951 . S
C494 C495 1.366 . S
C494 C496 1.388 . S
C495 C494 1.366 . S
C495 C499 1.385 . S
C496 H477 0.951 . S
C496 C494 1.388 . S
C496 C497 1.366 . S
C497 C496 1.366 . S
C497 C498 1.414 . S
C497 C500 1.499 . S
C498 H478 0.950 . S
C498 C497 1.414 . S
C498 C499 1.374 . S
C499 H479 0.950 . S
C499 C495 1.385 . S
C499 C498 1.374 . S
C500 C497 1.499 . S
C500 C501 1.373 . S
C500 C502 1.389 . S
C501 H480 0.950 . S
C501 C500 1.373 . S
C501 C517 1.377 . S
C502 C500 1.389 . S
C502 C503 1.524 . S
C502 C516 1.377 . S
C503 C502 1.524 . S
C503 C504 1.397 . S
C503 C508 1.363 . S
C504 H481 0.950 . S
C504 C503 1.397 . S
C504 C505 1.334 . S
C505 H482 0.950 . S
C505 C504 1.334 . S
C505 C506 1.287 . S
C506 C505 1.287 . S
C506 C507 1.524 . S
C506 H525 0.913 . S
C507 H483 0.950 . S
C507 C506 1.524 . S
C507 C508 1.415 . S
C508 H484 0.950 . S
C508 C503 1.363 . S
C508 C507 1.415 . S
C509 H485 0.951 . S
C509 C510 1.366 . S
C509 C511 1.388 . S
C510 C509 1.366 . S
C510 C514 1.385 . S
C511 H486 0.951 . S
C511 C509 1.388 . S
C511 C512 1.366 . S
C512 C511 1.366 . S
C512 C513 1.414 . S
C512 C515 1.499 . S
C513 H487 0.950 . S
C513 C512 1.414 . S
C513 C514 1.374 . S
C514 H488 0.950 . S
C514 C510 1.385 . S
C514 C513 1.374 . S
C515 C512 1.499 . S
C515 C516 1.373 . S
C515 C517 1.389 . S
C516 H489 0.950 . S
C516 C502 1.377 . S
C516 C515 1.373 . S
C517 C501 1.377 . S
C517 C515 1.389 . S
C517 C518 1.524 . S
C518 C517 1.524 . S
C518 C519 1.397 . S
C518 C523 1.363 . S
C519 H490 0.950 . S
C519 C518 1.397 . S
C519 C520 1.334 . S
C520 H491 0.950 . S
C520 C519 1.334 . S
C520 C521 1.287 . S
C521 C520 1.287 . S
C521 C522 1.524 . S
C521 H524 0.999 . S
C522 H492 0.950 . S
C522 C521 1.524 . S
C522 C523 1.415 . S
C523 H493 0.950 . S
C523 C518 1.363 . S
C523 C522 1.415 . S
H524 C521 0.999 . S
H525 C506 0.913 . S
H526 C544 0.951 . S
H527 C546 0.951 . S
H528 C548 0.950 . S
H529 C549 0.950 . S
H530 C551 0.950 . S
H531 C554 0.950 . S
H532 C555 0.950 . S
H533 C557 0.950 . S
H534 C558 0.950 . S
H535 C559 0.951 . S
H536 C561 0.951 . S
H537 C563 0.950 . S
H538 C564 0.950 . S
H539 C566 0.950 . S
H540 C569 0.950 . S
H541 C570 0.950 . S
H542 C572 0.950 . S
H543 C573 0.950 . S
C544 H526 0.951 . S
C544 C545 1.366 . S
C544 C546 1.388 . S
C545 C544 1.366 . S
C545 C549 1.385 . S
C546 H527 0.951 . S
C546 C544 1.388 . S
C546 C547 1.366 . S
C547 C546 1.366 . S
C547 C548 1.414 . S
C547 C550 1.499 . S
C548 H528 0.950 . S
C548 C547 1.414 . S
C548 C549 1.374 . S
C549 H529 0.950 . S
C549 C545 1.385 . S
C549 C548 1.374 . S
C550 C547 1.499 . S
C550 C551 1.373 . S
C550 C552 1.389 . S
C551 H530 0.950 . S
C551 C550 1.373 . S
C551 C567 1.377 . S
C552 C550 1.389 . S
C552 C553 1.524 . S
C552 C566 1.377 . S
C553 C552 1.524 . S
C553 C554 1.397 . S
C553 C558 1.363 . S
C554 H531 0.950 . S
C554 C553 1.397 . S
C554 C555 1.334 . S
C555 H532 0.950 . S
C555 C554 1.334 . S
C555 C556 1.287 . S
C556 C555 1.287 . S
C556 C557 1.524 . S
C556 H575 0.913 . S
C557 H533 0.950 . S
C557 C556 1.524 . S
C557 C558 1.415 . S
C558 H534 0.950 . S
C558 C553 1.363 . S
C558 C557 1.415 . S
C559 H535 0.951 . S
C559 C560 1.366 . S
C559 C561 1.388 . S
C560 C559 1.366 . S
C560 C564 1.385 . S
C561 H536 0.951 . S
C561 C559 1.388 . S
C561 C562 1.366 . S
C562 C561 1.366 . S
C562 C563 1.414 . S
C562 C565 1.499 . S
C563 H537 0.950 . S
C563 C562 1.414 . S
C563 C564 1.374 . S
C564 H538 0.950 . S
C564 C560 1.385 . S
C564 C563 1.374 . S
C565 C562 1.499 . S
C565 C566 1.373 . S
C565 C567 1.389 . S
C566 H539 0.950 . S
C566 C552 1.377 . S
C566 C565 1.373 . S
C567 C551 1.377 . S
C567 C565 1.389 . S
C567 C568 1.524 . S
C568 C567 1.524 . S
C568 C569 1.397 . S
C568 C573 1.363 . S
C569 H540 0.950 . S
C569 C568 1.397 . S
C569 C570 1.334 . S
C570 H541 0.950 . S
C570 C569 1.334 . S
C570 C571 1.287 . S
C571 C570 1.287 . S
C571 C572 1.524 . S
C571 H574 0.999 . S
C572 H542 0.950 . S
C572 C571 1.524 . S
C572 C573 1.415 . S
C573 H543 0.950 . S
C573 C568 1.363 . S
C573 C572 1.415 . S
H574 C571 0.999 . S
H575 C556 0.913 . S
H576 C594 0.951 . S
H577 C596 0.951 . S
H578 C598 0.950 . S
H579 C599 0.950 . S
H580 C601 0.950 . S
H581 C604 0.950 . S
H582 C605 0.950 . S
H583 C607 0.950 . S
H584 C608 0.950 . S
H585 C609 0.951 . S
H586 C611 0.951 . S
H587 C613 0.950 . S
H588 C614 0.950 . S
H589 C616 0.950 . S
H590 C619 0.950 . S
H591 C620 0.950 . S
H592 C622 0.950 . S
H593 C623 0.950 . S
C594 H576 0.951 . S
C594 C595 1.366 . S
C594 C596 1.388 . S
C595 C594 1.366 . S
C595 C599 1.385 . S
C596 H577 0.951 . S
C596 C594 1.388 . S
C596 C597 1.366 . S
C597 C596 1.366 . S
C597 C598 1.414 . S
C597 C600 1.499 . S
C598 H578 0.950 . S
C598 C597 1.414 . S
C598 C599 1.374 . S
C599 H579 0.950 . S
C599 C595 1.385 . S
C599 C598 1.374 . S
C600 C597 1.499 . S
C600 C601 1.373 . S
C600 C602 1.389 . S
C601 H580 0.950 . S
C601 C600 1.373 . S
C601 C617 1.377 . S
C602 C600 1.389 . S
C602 C603 1.524 . S
C602 C616 1.377 . S
C603 C602 1.524 . S
C603 C604 1.397 . S
C603 C608 1.363 . S
C604 H581 0.950 . S
C604 C603 1.397 . S
C604 C605 1.334 . S
C605 H582 0.950 . S
C605 C604 1.334 . S
C605 C606 1.287 . S
C606 C605 1.287 . S
C606 C607 1.524 . S
C606 H625 0.913 . S
C607 H583 0.950 . S
C607 C606 1.524 . S
C607 C608 1.415 . S
C608 H584 0.950 . S
C608 C603 1.363 . S
C608 C607 1.415 . S
C609 H585 0.951 . S
C609 C610 1.366 . S
C609 C611 1.388 . S
C610 C609 1.366 . S
C610 C614 1.385 . S
C611 H586 0.951 . S
C611 C609 1.388 . S
C611 C612 1.366 . S
C612 C611 1.366 . S
C612 C613 1.414 . S
C612 C615 1.499 . S
C613 H587 0.950 . S
C613 C612 1.414 . S
C613 C614 1.374 . S
C614 H588 0.950 . S
C614 C610 1.385 . S
C614 C613 1.374 . S
C615 C612 1.499 . S
C615 C616 1.373 . S
C615 C617 1.389 . S
C616 H589 0.950 . S
C616 C602 1.377 . S
C616 C615 1.373 . S
C617 C601 1.377 . S
C617 C615 1.389 . S
C617 C618 1.524 . S
C618 C617 1.524 . S
C618 C619 1.397 . S
C618 C623 1.363 . S
C619 H590 0.950 . S
C619 C618 1.397 . S
C619 C620 1.334 . S
C620 H591 0.950 . S
C620 C619 1.334 . S
C620 C621 1.287 . S
C621 C620 1.287 . S
C621 C622 1.524 . S
C621 H624 0.999 . S
C622 H592 0.950 . S
C622 C621 1.524 . S
C622 C623 1.415 . S
C623 H593 0.950 . S
C623 C618 1.363 . S
C623 C622 1.415 . S
H624 C621 0.999 . S
H625 C606 0.913 . S
H626 C644 0.951 . S
H627 C646 0.951 . S
H628 C648 0.950 . S
H629 C649 0.950 . S
H630 C651 0.950 . S
H631 C654 0.950 . S
H632 C655 0.950 . S
H633 C657 0.950 . S
H634 C658 0.950 . S
H635 C659 0.951 . S
H636 C661 0.951 . S
H637 C663 0.950 . S
H638 C664 0.950 . S
H639 C666 0.950 . S
H640 C669 0.950 . S
H641 C670 0.950 . S
H642 C672 0.950 . S
H643 C673 0.950 . S
C644 H626 0.951 . S
C644 C645 1.366 . S
C644 C646 1.388 . S
C645 C644 1.366 . S
C645 C649 1.385 . S
C646 H627 0.951 . S
C646 C644 1.388 . S
C646 C647 1.366 . S
C647 C646 1.366 . S
C647 C648 1.414 . S
C647 C650 1.499 . S
C648 H628 0.950 . S
C648 C647 1.414 . S
C648 C649 1.374 . S
C649 H629 0.950 . S
C649 C645 1.385 . S
C649 C648 1.374 . S
C650 C647 1.499 . S
C650 C651 1.373 . S
C650 C652 1.389 . S
C651 H630 0.950 . S
C651 C650 1.373 . S
C651 C667 1.377 . S
C652 C650 1.389 . S
C652 C653 1.524 . S
C652 C666 1.377 . S
C653 C652 1.524 . S
C653 C654 1.397 . S
C653 C658 1.363 . S
C654 H631 0.950 . S
C654 C653 1.397 . S
C654 C655 1.334 . S
C655 H632 0.950 . S
C655 C654 1.334 . S
C655 C656 1.287 . S
C656 C655 1.287 . S
C656 C657 1.524 . S
C656 H675 0.913 . S
C657 H633 0.950 . S
C657 C656 1.524 . S
C657 C658 1.415 . S
C658 H634 0.950 . S
C658 C653 1.363 . S
C658 C657 1.415 . S
C659 H635 0.951 . S
C659 C660 1.366 . S
C659 C661 1.388 . S
C660 C659 1.366 . S
C660 C664 1.385 . S
C661 H636 0.951 . S
C661 C659 1.388 . S
C661 C662 1.366 . S
C662 C661 1.366 . S
C662 C663 1.414 . S
C662 C665 1.499 . S
C663 H637 0.950 . S
C663 C662 1.414 . S
C663 C664 1.374 . S
C664 H638 0.950 . S
C664 C660 1.385 . S
C664 C663 1.374 . S
C665 C662 1.499 . S
C665 C666 1.373 . S
C665 C667 1.389 . S
C666 H639 0.950 . S
C666 C652 1.377 . S
C666 C665 1.373 . S
C667 C651 1.377 . S
C667 C665 1.389 . S
C667 C668 1.524 . S
C668 C667 1.524 . S
C668 C669 1.397 . S
C668 C673 1.363 . S
C669 H640 0.950 . S
C669 C668 1.397 . S
C669 C670 1.334 . S
C670 H641 0.950 . S
C670 C669 1.334 . S
C670 C671 1.287 . S
C671 C670 1.287 . S
C671 C672 1.524 . S
C671 H674 0.999 . S
C672 H642 0.950 . S
C672 C671 1.524 . S
C672 C673 1.415 . S
C673 H643 0.950 . S
C673 C668 1.363 . S
C673 C672 1.415 . S
H674 C671 0.999 . S
H675 C656 0.913 . S
H676 C694 0.951 . S
H677 C696 0.951 . S
H678 C698 0.950 . S
H679 C699 0.950 . S
H680 C701 0.950 . S
H681 C704 0.950 . S
H682 C705 0.950 . S
H683 C707 0.950 . S
H684 C708 0.950 . S
H685 C709 0.951 . S
H686 C711 0.951 . S
H687 C713 0.950 . S
H688 C714 0.950 . S
H689 C716 0.950 . S
H690 C719 0.950 . S
H691 C720 0.950 . S
H692 C722 0.950 . S
H693 C723 0.950 . S
C694 H676 0.951 . S
C694 C695 1.366 . S
C694 C696 1.388 . S
C695 C694 1.366 . S
C695 C699 1.385 . S
C696 H677 0.951 . S
C696 C694 1.388 . S
C696 C697 1.366 . S
C697 C696 1.366 . S
C697 C698 1.414 . S
C697 C700 1.499 . S
C698 H678 0.950 . S
C698 C697 1.414 . S
C698 C699 1.374 . S
C699 H679 0.950 . S
C699 C695 1.385 . S
C699 C698 1.374 . S
C700 C697 1.499 . S
C700 C701 1.373 . S
C700 C702 1.389 . S
C701 H680 0.950 . S
C701 C700 1.373 . S
C701 C717 1.377 . S
C702 C700 1.389 . S
C702 C703 1.524 . S
C702 C716 1.377 . S
C703 C702 1.524 . S
C703 C704 1.397 . S
C703 C708 1.363 . S
C704 H681 0.950 . S
C704 C703 1.397 . S
C704 C705 1.334 . S
C705 H682 0.950 . S
C705 C704 1.334 . S
C705 C706 1.287 . S
C706 C705 1.287 . S
C706 C707 1.524 . S
C706 H725 0.913 . S
C707 H683 0.950 . S
C707 C706 1.524 . S
C707 C708 1.415 . S
C708 H684 0.950 . S
C708 C703 1.363 . S
C708 C707 1.415 . S
C709 H685 0.951 . S
C709 C710 1.366 . S
C709 C711 1.388 . S
C710 C709 1.366 . S
C710 C714 1.385 . S
C711 H686 0.951 . S
C711 C709 1.388 . S
C711 C712 1.366 . S
C712 C711 1.366 . S
C712 C713 1.414 . S
C712 C715 1.499 . S
C713 H687 0.950 . S
C713 C712 1.414 . S
C713 C714 1.374 . S
C714 H688 0.950 . S
C714 C710 1.385 . S
C714 C713 1.374 . S
C715 C712 1.499 . S
C715 C716 1.373 . S
C715 C717 1.389 . S
C716 H689 0.950 . S
C716 C702 1.377 . S
C716 C715 1.373 . S
C717 C701 1.377 . S
C717 C715 1.389 . S
C717 C718 1.524 . S
C718 C717 1.524 . S
C718 C719 1.397 . S
C718 C723 1.363 . S
C719 H690 0.950 . S
C719 C718 1.397 . S
C719 C720 1.334 . S
C720 H691 0.950 . S
C720 C719 1.334 . S
C720 C721 1.287 . S
C721 C720 1.287 . S
C721 C722 1.524 . S
C721 H724 0.999 . S
C722 H692 0.950 . S
C722 C721 1.524 . S
C722 C723 1.415 . S
C723 H693 0.950 . S
C723 C718 1.363 . S
C723 C722 1.415 . S
H724 C721 0.999 . S
H725 C706 0.913 . S
H726 C744 0.951 . S
H727 C746 0.951 . S
H728 C748 0.950 . S
H729 C749 0.950 . S
H730 C751 0.950 . S
H731 C754 0.950 . S
H732 C755 0.950 . S
H733 C757 0.950 . S
H734 C758 0.950 . S
H735 C759 0.951 . S
H736 C761 0.951 . S
H737 C763 0.950 . S
H738 C764 0.950 . S
H739 C766 0.950 . S
H740 C769 0.950 . S
H741 C770 0.950 . S
H742 C772 0.950 . S
H743 C773 0.950 . S
C744 H726 0.951 . S
C744 C745 1.366 . S
C744 C746 1.388 . S
C745 C744 1.366 . S
C745 C749 1.385 . S
C746 H727 0.951 . S
C746 C744 1.388 . S
C746 C747 1.366 . S
C747 C746 1.366 . S
C747 C748 1.414 . S
C747 C750 1.499 . S
C748 H728 0.950 . S
C748 C747 1.414 . S
C748 C749 1.374 . S
C749 H729 0.950 . S
C749 C745 1.385 . S
C749 C748 1.374 . S
C750 C747 1.499 . S
C750 C751 1.373 . S
C750 C752 1.389 . S
C751 H730 0.950 . S
C751 C750 1.373 . S
C751 C767 1.377 . S
C752 C750 1.389 . S
C752 C753 1.524 . S
C752 C766 1.377 . S
C753 C752 1.524 . S
C753 C754 1.397 . S
C753 C758 1.363 . S
C754 H731 0.950 . S
C754 C753 1.397 . S
C754 C755 1.334 . S
C755 H732 0.950 . S
C755 C754 1.334 . S
C755 C756 1.287 . S
C756 C755 1.287 . S
C756 C757 1.524 . S
C756 H775 0.913 . S
C757 H733 0.950 . S
C757 C756 1.524 . S
C757 C758 1.415 . S
C758 H734 0.950 . S
C758 C753 1.363 . S
C758 C757 1.415 . S
C759 H735 0.951 . S
C759 C760 1.366 . S
C759 C761 1.388 . S
C760 C759 1.366 . S
C760 C764 1.385 . S
C761 H736 0.951 . S
C761 C759 1.388 . S
C761 C762 1.366 . S
C762 C761 1.366 . S
C762 C763 1.414 . S
C762 C765 1.499 . S
C763 H737 0.950 . S
C763 C762 1.414 . S
C763 C764 1.374 . S
C764 H738 0.950 . S
C764 C760 1.385 . S
C764 C763 1.374 . S
C765 C762 1.499 . S
C765 C766 1.373 . S
C765 C767 1.389 . S
C766 H739 0.950 . S
C766 C752 1.377 . S
C766 C765 1.373 . S
C767 C751 1.377 . S
C767 C765 1.389 . S
C767 C768 1.524 . S
C768 C767 1.524 . S
C768 C769 1.397 . S
C768 C773 1.363 . S
C769 H740 0.950 . S
C769 C768 1.397 . S
C769 C770 1.334 . S
C770 H741 0.950 . S
C770 C769 1.334 . S
C770 C771 1.287 . S
C771 C770 1.287 . S
C771 C772 1.524 . S
C771 H774 0.999 . S
C772 H742 0.950 . S
C772 C771 1.524 . S
C772 C773 1.415 . S
C773 H743 0.950 . S
C773 C768 1.363 . S
C773 C772 1.415 . S
H774 C771 0.999 . S
H775 C756 0.913 . S
H776 C794 0.951 . S
H777 C796 0.951 . S
H778 C798 0.950 . S
H779 C799 0.950 . S
H780 C801 0.950 . S
H781 C804 0.950 . S
H782 C805 0.950 . S
H783 C807 0.950 . S
H784 C808 0.950 . S
H785 C809 0.951 . S
H786 C811 0.951 . S
H787 C813 0.950 . S
H788 C814 0.950 . S
H789 C816 0.950 . S
H790 C819 0.950 . S
H791 C820 0.950 . S
H792 C822 0.950 . S
H793 C823 0.950 . S
C794 H776 0.951 . S
C794 C795 1.366 . S
C794 C796 1.388 . S
C795 C794 1.366 . S
C795 C799 1.385 . S
C796 H777 0.951 . S
C796 C794 1.388 . S
C796 C797 1.366 . S
C797 C796 1.366 . S
C797 C798 1.414 . S
C797 C800 1.499 . S
C798 H778 0.950 . S
C798 C797 1.414 . S
C798 C799 1.374 . S
C799 H779 0.950 . S
C799 C795 1.385 . S
C799 C798 1.374 . S
C800 C797 1.499 . S
C800 C801 1.373 . S
C800 C802 1.389 . S
C801 H780 0.950 . S
C801 C800 1.373 . S
C801 C817 1.377 . S
C802 C800 1.389 . S
C802 C803 1.524 . S
C802 C816 1.377 . S
C803 C802 1.524 . S
C803 C804 1.397 . S
C803 C808 1.363 . S
C804 H781 0.950 . S
C804 C803 1.397 . S
C804 C805 1.334 . S
C805 H782 0.950 . S
C805 C804 1.334 . S
C805 C806 1.287 . S
C806 C805 1.287 . S
C806 C807 1.524 . S
C806 H825 0.913 . S
C807 H783 0.950 . S
C807 C806 1.524 . S
C807 C808 1.415 . S
C808 H784 0.950 . S
C808 C803 1.363 . S
C808 C807 1.415 . S
C809 H785 0.951 . S
C809 C810 1.366 . S
C809 C811 1.388 . S
C810 C809 1.366 . S
C810 C814 1.385 . S
C811 H786 0.951 . S
C811 C809 1.388 . S
C811 C812 1.366 . S
C812 C811 1.366 . S
C812 C813 1.414 . S
C812 C815 1.499 . S
C813 H787 0.950 . S
C813 C812 1.414 . S
C813 C814 1.374 . S
C814 H788 0.950 . S
C814 C810 1.385 . S
C814 C813 1.374 . S
C815 C812 1.499 . S
C815 C816 1.373 . S
C815 C817 1.389 . S
C816 H789 0.950 . S
C816 C802 1.377 . S
C816 C815 1.373 . S
C817 C801 1.377 . S
C817 C815 1.389 . S
C817 C818 1.524 . S
C818 C817 1.524 . S
C818 C819 1.397 . S
C818 C823 1.363 . S
C819 H790 0.950 . S
C819 C818 1.397 . S
C819 C820 1.334 . S
C820 H791 0.950 . S
C820 C819 1.334 . S
C820 C821 1.287 . S
C821 C820 1.287 . S
C821 C822 1.524 . S
C821 H824 0.999 . S
C822 H792 0.950 . S
C822 C821 1.524 . S
C822 C823 1.415 . S
C823 H793 0.950 . S
C823 C818 1.363 . S
C823 C822 1.415 . S
H824 C821 0.999 . S
H825 C806 0.913 . S
H826 C844 0.951 . S
H827 C846 0.951 . S
H828 C848 0.950 . S
H829 C849 0.950 . S
H830 C851 0.950 . S
H831 C854 0.950 . S
H832 C855 0.950 . S
H833 C857 0.950 . S
H834 C858 0.950 . S
H835 C859 0.951 . S
H836 C861 0.951 . S
H837 C863 0.950 . S
H838 C864 0.950 . S
H839 C866 0.950 . S
H840 C869 0.950 . S
H841 C870 0.950 . S
H842 C872 0.950 . S
H843 C873 0.950 . S
C844 H826 0.951 . S
C844 C845 1.366 . S
C844 C846 1.388 . S
C845 C844 1.366 . S
C845 C849 1.385 . S
C846 H827 0.951 . S
C846 C844 1.388 . S
C846 C847 1.366 . S
C847 C846 1.366 . S
C847 C848 1.414 . S
C847 C850 1.499 . S
C848 H828 0.950 . S
C848 C847 1.414 . S
C848 C849 1.374 . S
C849 H829 0.950 . S
C849 C845 1.385 . S
C849 C848 1.374 . S
C850 C847 1.499 . S
C850 C851 1.373 . S
C850 C852 1.389 . S
C851 H830 0.950 . S
C851 C850 1.373 . S
C851 C867 1.377 . S
C852 C850 1.389 . S
C852 C853 1.524 . S
C852 C866 1.377 . S
C853 C852 1.524 . S
C853 C854 1.397 . S
C853 C858 1.363 . S
C854 H831 0.950 . S
C854 C853 1.397 . S
C854 C855 1.334 . S
C855 H832 0.950 . S
C855 C854 1.334 . S
C855 C856 1.287 . S
C856 C855 1.287 . S
C856 C857 1.524 . S
C856 H875 0.913 . S
C857 H833 0.950 . S
C857 C856 1.524 . S
C857 C858 1.415 . S
C858 H834 0.950 . S
C858 C853 1.363 . S
C858 C857 1.415 . S
C859 H835 0.951 . S
C859 C860 1.366 . S
C859 C861 1.388 . S
C860 C859 1.366 . S
C860 C864 1.385 . S
C861 H836 0.951 . S
C861 C859 1.388 . S
C861 C862 1.366 . S
C862 C861 1.366 . S
C862 C863 1.414 . S
C862 C865 1.499 . S
C863 H837 0.950 . S
C863 C862 1.414 . S
C863 C864 1.374 . S
C864 H838 0.950 . S
C864 C860 1.385 . S
C864 C863 1.374 . S
C865 C862 1.499 . S
C865 C866 1.373 . S
C865 C867 1.389 . S
C866 H839 0.950 . S
C866 C852 1.377 . S
C866 C865 1.373 . S
C867 C851 1.377 . S
C867 C865 1.389 . S
C867 C868 1.524 . S
C868 C867 1.524 . S
C868 C869 1.397 . S
C868 C873 1.363 . S
C869 H840 0.950 . S
C869 C868 1.397 . S
C869 C870 1.334 . S
C870 H841 0.950 . S
C870 C869 1.334 . S
C870 C871 1.287 . S
C871 C870 1.287 . S
C871 C872 1.524 . S
C871 H874 0.999 . S
C872 H842 0.950 . S
C872 C871 1.524 . S
C872 C873 1.415 . S
C873 H843 0.950 . S
C873 C868 1.363 . S
C873 C872 1.415 . S
H874 C871 0.999 . S
H875 C856 0.913 . S
H876 C894 0.951 . S
H877 C896 0.951 . S
H878 C898 0.950 . S
H879 C899 0.950 . S
H880 C901 0.950 . S
H881 C904 0.950 . S
H882 C905 0.950 . S
H883 C907 0.950 . S
H884 C908 0.950 . S
H885 C909 0.951 . S
H886 C911 0.951 . S
H887 C913 0.950 . S
H888 C914 0.950 . S
H889 C916 0.950 . S
H890 C919 0.950 . S
H891 C920 0.950 . S
H892 C922 0.950 . S
H893 C923 0.950 . S
C894 H876 0.951 . S
C894 C895 1.366 . S
C894 C896 1.388 . S
C895 C894 1.366 . S
C895 C899 1.385 . S
C896 H877 0.951 . S
C896 C894 1.388 . S
C896 C897 1.366 . S
C897 C896 1.366 . S
C897 C898 1.414 . S
C897 C900 1.499 . S
C898 H878 0.950 . S
C898 C897 1.414 . S
C898 C899 1.374 . S
C899 H879 0.950 . S
C899 C895 1.385 . S
C899 C898 1.374 . S
C900 C897 1.499 . S
C900 C901 1.373 . S
C900 C902 1.389 . S
C901 H880 0.950 . S
C901 C900 1.373 . S
C901 C917 1.377 1_655 S
C902 C900 1.389 . S
C902 C903 1.524 . S
C902 C916 1.377 1_655 S
C903 C902 1.524 . S
C903 C904 1.397 . S
C903 C908 1.363 1_655 S
C904 H881 0.950 . S
C904 C903 1.397 . S
C904 C905 1.334 . S
C905 H882 0.950 . S
C905 C904 1.334 . S
C905 C906 1.287 . S
C906 C905 1.287 . S
C906 C907 1.524 1_655 S
C906 H925 0.913 . S
C907 H883 0.950 . S
C907 C906 1.524 1_455 S
C907 C908 1.415 . S
C908 H884 0.950 . S
C908 C903 1.363 1_455 S
C908 C907 1.415 . S
C909 H885 0.951 . S
C909 C910 1.366 . S
C909 C911 1.388 . S
C910 C909 1.366 . S
C910 C914 1.385 . S
C911 H886 0.951 . S
C911 C909 1.388 . S
C911 C912 1.366 . S
C912 C911 1.366 . S
C912 C913 1.414 . S
C912 C915 1.499 . S
C913 H887 0.950 . S
C913 C912 1.414 . S
C913 C914 1.374 . S
C914 H888 0.950 . S
C914 C910 1.385 . S
C914 C913 1.374 . S
C915 C912 1.499 . S
C915 C916 1.373 . S
C915 C917 1.389 . S
C916 H889 0.950 . S
C916 C902 1.377 1_455 S
C916 C915 1.373 . S
C917 C901 1.377 1_455 S
C917 C915 1.389 . S
C917 C918 1.524 . S
C918 C917 1.524 . S
C918 C919 1.397 . S
C918 C923 1.363 1_455 S
C919 H890 0.950 . S
C919 C918 1.397 . S
C919 C920 1.334 . S
C920 H891 0.950 . S
C920 C919 1.334 . S
C920 C921 1.287 . S
C921 C920 1.287 . S
C921 C922 1.524 1_455 S
C921 H924 0.999 . S
C922 H892 0.950 . S
C922 C921 1.524 1_655 S
C922 C923 1.415 . S
C923 H893 0.950 . S
C923 C918 1.363 1_655 S
C923 C922 1.415 . S
H924 C921 0.999 . S
H925 C906 0.913 . S
H926 C944 0.951 . S
H927 C946 0.951 . S
H928 C948 0.950 . S
H929 C949 0.950 . S
H930 C951 0.950 . S
H931 C954 0.950 . S
H932 C955 0.950 . S
H933 C957 0.950 . S
H934 C958 0.950 . S
H935 C959 0.951 . S
H936 C961 0.951 . S
H937 C963 0.950 . S
H938 C964 0.950 . S
H939 C966 0.950 . S
H940 C969 0.950 . S
H941 C970 0.950 . S
H942 C972 0.950 . S
H943 C973 0.950 . S
C944 H926 0.951 . S
C944 C945 1.366 . S
C944 C946 1.388 . S
C945 C944 1.366 . S
C945 C949 1.385 . S
C946 H927 0.951 . S
C946 C944 1.388 . S
C946 C947 1.366 . S
C947 C946 1.366 . S
C947 C948 1.414 . S
C947 C950 1.499 . S
C948 H928 0.950 . S
C948 C947 1.414 . S
C948 C949 1.374 . S
C949 H929 0.950 . S
C949 C945 1.385 . S
C949 C948 1.374 . S
C950 C947 1.499 . S
C950 C951 1.373 . S
C950 C952 1.390 . S
C951 H930 0.950 . S
C951 C950 1.373 . S
C951 C967 1.376 1_545 S
C952 C950 1.390 . S
C952 C953 1.524 1_545 S
C952 C966 1.376 1_545 S
C953 C952 1.524 1_565 S
C953 C954 1.397 1_565 S
C953 C958 1.363 . S
C954 H931 0.950 . S
C954 C953 1.397 1_545 S
C954 C955 1.334 . S
C955 H932 0.950 . S
C955 C954 1.334 . S
C955 C956 1.287 1_545 S
C956 C955 1.287 1_565 S
C956 C957 1.524 . S
C956 H975 0.913 . S
C957 H933 0.950 . S
C957 C956 1.524 . S
C957 C958 1.415 . S
C958 H934 0.950 . S
C958 C953 1.363 . S
C958 C957 1.415 . S
C959 H935 0.951 . S
C959 C960 1.366 . S
C959 C961 1.388 . S
C960 C959 1.366 . S
C960 C964 1.385 . S
C961 H936 0.951 . S
C961 C959 1.388 . S
C961 C962 1.366 . S
C962 C961 1.366 . S
C962 C963 1.414 . S
C962 C965 1.499 . S
C963 H937 0.950 . S
C963 C962 1.414 . S
C963 C964 1.374 . S
C964 H938 0.950 . S
C964 C960 1.385 . S
C964 C963 1.374 . S
C965 C962 1.499 . S
C965 C966 1.373 . S
C965 C967 1.390 . S
C966 H939 0.950 . S
C966 C952 1.376 1_565 S
C966 C965 1.373 . S
C967 C951 1.376 1_565 S
C967 C965 1.390 . S
C967 C968 1.524 1_565 S
C968 C967 1.524 1_545 S
C968 C969 1.397 1_545 S
C968 C973 1.363 . S
C969 H940 0.950 . S
C969 C968 1.397 1_565 S
C969 C970 1.334 . S
C970 H941 0.950 . S
C970 C969 1.334 . S
C970 C971 1.287 1_565 S
C971 C970 1.287 1_545 S
C971 C972 1.524 . S
C971 H974 0.999 . S
C972 H942 0.950 . S
C972 C971 1.524 . S
C972 C973 1.415 . S
C973 H943 0.950 . S
C973 C968 1.363 . S
C973 C972 1.415 . S
H974 C971 0.999 . S
H975 C956 0.913 . S
H976 C994 0.951 . S
H977 C996 0.951 . S
H978 C998 0.950 . S
H979 C999 0.950 . S
H980 C1001 0.950 . S
H981 C1004 0.950 . S
H982 C1005 0.950 . S
H983 C1007 0.950 . S
H984 C1008 0.950 . S
H985 C1009 0.951 . S
H986 C1011 0.951 . S
H987 C1013 0.950 . S
H988 C1014 0.950 . S
H989 C1016 0.950 . S
H990 C1019 0.950 . S
H991 C1020 0.950 . S
H992 C1022 0.950 . S
H993 C1023 0.950 . S
C994 H976 0.951 . S
C994 C995 1.366 . S
C994 C996 1.388 . S
C995 C994 1.366 . S
C995 C999 1.385 . S
C996 H977 0.951 . S
C996 C994 1.388 . S
C996 C997 1.366 . S
C997 C996 1.366 . S
C997 C998 1.414 . S
C997 C1000 1.499 . S
C998 H978 0.950 . S
C998 C997 1.414 . S
C998 C999 1.374 . S
C999 H979 0.950 . S
C999 C995 1.385 . S
C999 C998 1.374 . S
C1000 C997 1.499 . S
C1000 C1001 1.373 . S
C1000 C1002 1.389 . S
C1001 H980 0.950 . S
C1001 C1000 1.373 . S
C1001 C1017 1.377 . S
C1002 C1000 1.389 . S
C1002 C1003 1.524 . S
C1002 C1016 1.377 . S
C1003 C1002 1.524 . S
C1003 C1004 1.397 . S
C1003 C1008 1.363 . S
C1004 H981 0.950 . S
C1004 C1003 1.397 . S
C1004 C1005 1.334 . S
C1005 H982 0.950 . S
C1005 C1004 1.334 . S
C1005 C1006 1.287 . S
C1006 C1005 1.287 . S
C1006 C1007 1.524 . S
C1006 H1025 0.913 . S
C1007 H983 0.950 . S
C1007 C1006 1.524 . S
C1007 C1008 1.415 . S
C1008 H984 0.950 . S
C1008 C1003 1.363 . S
C1008 C1007 1.415 . S
C1009 H985 0.951 . S
C1009 C1010 1.366 . S
C1009 C1011 1.388 . S
C1010 C1009 1.366 . S
C1010 C1014 1.385 . S
C1011 H986 0.951 . S
C1011 C1009 1.388 . S
C1011 C1012 1.366 . S
C1012 C1011 1.366 . S
C1012 C1013 1.414 . S
C1012 C1015 1.499 . S
C1013 H987 0.950 . S
C1013 C1012 1.414 . S
C1013 C1014 1.374 . S
C1014 H988 0.950 . S
C1014 C1010 1.385 . S
C1014 C1013 1.374 . S
C1015 C1012 1.499 . S
C1015 C1016 1.373 . S
C1015 C1017 1.389 . S
C1016 H989 0.950 . S
C1016 C1002 1.377 . S
C1016 C1015 1.373 . S
C1017 C1001 1.377 . S
C1017 C1015 1.389 . S
C1017 C1018 1.524 . S
C1018 C1017 1.524 . S
C1018 C1019 1.397 . S
C1018 C1023 1.363 . S
C1019 H990 0.950 . S
C1019 C1018 1.397 . S
C1019 C1020 1.334 . S
C1020 H991 0.950 . S
C1020 C1019 1.334 . S
C1020 C1021 1.287 . S
C1021 C1020 1.287 . S
C1021 C1022 1.524 . S
C1021 H1024 0.999 . S
C1022 H992 0.950 . S
C1022 C1021 1.524 . S
C1022 C1023 1.415 . S
C1023 H993 0.950 . S
C1023 C1018 1.363 . S
C1023 C1022 1.415 . S
H1024 C1021 0.999 . S
H1025 C1006 0.913 . S
H1026 C1044 0.951 . S
H1027 C1046 0.951 . S
H1028 C1048 0.950 . S
H1029 C1049 0.950 . S
H1030 C1051 0.950 . S
H1031 C1054 0.950 . S
H1032 C1055 0.950 . S
H1033 C1057 0.950 . S
H1034 C1058 0.950 . S
H1035 C1059 0.951 . S
H1036 C1061 0.951 . S
H1037 C1063 0.950 . S
H1038 C1064 0.950 . S
H1039 C1066 0.950 . S
H1040 C1069 0.950 . S
H1041 C1070 0.950 . S
H1042 C1072 0.950 . S
H1043 C1073 0.950 . S
C1044 H1026 0.951 . S
C1044 C1045 1.366 . S
C1044 C1046 1.388 . S
C1045 C1044 1.366 . S
C1045 C1049 1.385 . S
C1046 H1027 0.951 . S
C1046 C1044 1.388 . S
C1046 C1047 1.366 . S
C1047 C1046 1.366 . S
C1047 C1048 1.414 . S
C1047 C1050 1.499 . S
C1048 H1028 0.950 . S
C1048 C1047 1.414 . S
C1048 C1049 1.374 . S
C1049 H1029 0.950 . S
C1049 C1045 1.385 . S
C1049 C1048 1.374 . S
C1050 C1047 1.499 . S
C1050 C1051 1.373 . S
C1050 C1052 1.389 . S
C1051 H1030 0.950 . S
C1051 C1050 1.373 . S
C1051 C1067 1.377 1_545 S
C1052 C1050 1.389 . S
C1052 C1053 1.524 . S
C1052 C1066 1.377 1_545 S
C1053 C1052 1.524 . S
C1053 C1054 1.397 . S
C1053 C1058 1.363 1_545 S
C1054 H1031 0.950 . S
C1054 C1053 1.397 . S
C1054 C1055 1.334 . S
C1055 H1032 0.950 . S
C1055 C1054 1.334 . S
C1055 C1056 1.287 . S
C1056 C1055 1.287 . S
C1056 C1057 1.524 1_545 S
C1056 H1075 0.913 . S
C1057 H1033 0.950 . S
C1057 C1056 1.524 1_565 S
C1057 C1058 1.415 . S
C1058 H1034 0.950 . S
C1058 C1053 1.363 1_565 S
C1058 C1057 1.415 . S
C1059 H1035 0.951 . S
C1059 C1060 1.366 . S
C1059 C1061 1.388 . S
C1060 C1059 1.366 . S
C1060 C1064 1.385 . S
C1061 H1036 0.951 . S
C1061 C1059 1.388 . S
C1061 C1062 1.366 . S
C1062 C1061 1.366 . S
C1062 C1063 1.414 . S
C1062 C1065 1.499 . S
C1063 H1037 0.950 . S
C1063 C1062 1.414 . S
C1063 C1064 1.374 . S
C1064 H1038 0.950 . S
C1064 C1060 1.385 . S
C1064 C1063 1.374 . S
C1065 C1062 1.499 . S
C1065 C1066 1.373 . S
C1065 C1067 1.389 . S
C1066 H1039 0.950 . S
C1066 C1052 1.377 1_565 S
C1066 C1065 1.373 . S
C1067 C1051 1.377 1_565 S
C1067 C1065 1.389 . S
C1067 C1068 1.524 . S
C1068 C1067 1.524 . S
C1068 C1069 1.397 . S
C1068 C1073 1.363 1_565 S
C1069 H1040 0.950 . S
C1069 C1068 1.397 . S
C1069 C1070 1.334 . S
C1070 H1041 0.950 . S
C1070 C1069 1.334 . S
C1070 C1071 1.287 . S
C1071 C1070 1.287 . S
C1071 C1072 1.524 1_565 S
C1071 H1074 0.999 . S
C1072 H1042 0.950 . S
C1072 C1071 1.524 1_545 S
C1072 C1073 1.415 . S
C1073 H1043 0.950 . S
C1073 C1068 1.363 1_545 S
C1073 C1072 1.415 . S
H1074 C1071 0.999 . S
H1075 C1056 0.913 . S
H1076 C1094 0.951 . S
H1077 C1096 0.951 . S
H1078 C1098 0.950 . S
H1079 C1099 0.950 . S
H1080 C1101 0.950 . S
H1081 C1104 0.950 . S
H1082 C1105 0.950 . S
H1083 C1107 0.950 . S
H1084 C1108 0.950 . S
H1085 C1109 0.951 . S
H1086 C1111 0.951 . S
H1087 C1113 0.950 . S
H1088 C1114 0.950 . S
H1089 C1116 0.950 . S
H1090 C1119 0.950 . S
H1091 C1120 0.950 . S
H1092 C1122 0.950 . S
H1093 C1123 0.950 . S
C1094 H1076 0.951 . S
C1094 C1095 1.366 . S
C1094 C1096 1.388 . S
C1095 C1094 1.366 . S
C1095 C1099 1.385 . S
C1096 H1077 0.951 . S
C1096 C1094 1.388 . S
C1096 C1097 1.366 . S
C1097 C1096 1.366 . S
C1097 C1098 1.414 . S
C1097 C1100 1.499 . S
C1098 H1078 0.950 . S
C1098 C1097 1.414 . S
C1098 C1099 1.374 . S
C1099 H1079 0.950 . S
C1099 C1095 1.385 . S
C1099 C1098 1.374 . S
C1100 C1097 1.499 . S
C1100 C1101 1.373 . S
C1100 C1102 1.389 . S
C1101 H1080 0.950 . S
C1101 C1100 1.373 . S
C1101 C1117 1.377 . S
C1102 C1100 1.389 . S
C1102 C1103 1.524 . S
C1102 C1116 1.377 . S
C1103 C1102 1.524 . S
C1103 C1104 1.397 . S
C1103 C1108 1.363 . S
C1104 H1081 0.950 . S
C1104 C1103 1.397 . S
C1104 C1105 1.334 . S
C1105 H1082 0.950 . S
C1105 C1104 1.334 . S
C1105 C1106 1.287 . S
C1106 C1105 1.287 . S
C1106 C1107 1.524 . S
C1106 H1125 0.913 . S
C1107 H1083 0.950 . S
C1107 C1106 1.524 . S
C1107 C1108 1.415 . S
C1108 H1084 0.950 . S
C1108 C1103 1.363 . S
C1108 C1107 1.415 . S
C1109 H1085 0.951 . S
C1109 C1110 1.366 . S
C1109 C1111 1.388 . S
C1110 C1109 1.366 . S
C1110 C1114 1.385 . S
C1111 H1086 0.951 . S
C1111 C1109 1.388 . S
C1111 C1112 1.366 . S
C1112 C1111 1.366 . S
C1112 C1113 1.414 . S
C1112 C1115 1.499 . S
C1113 H1087 0.950 . S
C1113 C1112 1.414 . S
C1113 C1114 1.374 . S
C1114 H1088 0.950 . S
C1114 C1110 1.385 . S
C1114 C1113 1.374 . S
C1115 C1112 1.499 . S
C1115 C1116 1.373 . S
C1115 C1117 1.389 . S
C1116 H1089 0.950 . S
C1116 C1102 1.377 . S
C1116 C1115 1.373 . S
C1117 C1101 1.377 . S
C1117 C1115 1.389 . S
C1117 C1118 1.524 . S
C1118 C1117 1.524 . S
C1118 C1119 1.397 . S
C1118 C1123 1.363 . S
C1119 H1090 0.950 . S
C1119 C1118 1.397 . S
C1119 C1120 1.334 . S
C1120 H1091 0.950 . S
C1120 C1119 1.334 . S
C1120 C1121 1.287 . S
C1121 C1120 1.287 . S
C1121 C1122 1.524 . S
C1121 H1124 0.999 . S
C1122 H1092 0.950 . S
C1122 C1121 1.524 . S
C1122 C1123 1.415 . S
C1123 H1093 0.950 . S
C1123 C1118 1.363 . S
C1123 C1122 1.415 . S
H1124 C1121 0.999 . S
H1125 C1106 0.913 . S
H1126 C1144 0.951 . S
H1127 C1146 0.951 . S
H1128 C1148 0.950 . S
H1129 C1149 0.950 . S
H1130 C1151 0.950 . S
H1131 C1154 0.950 . S
H1132 C1155 0.950 . S
H1133 C1157 0.950 . S
H1134 C1158 0.950 . S
H1135 C1159 0.951 . S
H1136 C1161 0.951 . S
H1137 C1163 0.950 . S
H1138 C1164 0.950 . S
H1139 C1166 0.950 . S
H1140 C1169 0.950 . S
H1141 C1170 0.950 . S
H1142 C1172 0.950 . S
H1143 C1173 0.950 . S
C1144 H1126 0.951 . S
C1144 C1145 1.366 . S
C1144 C1146 1.388 . S
C1145 C1144 1.366 . S
C1145 C1149 1.385 . S
C1146 H1127 0.951 . S
C1146 C1144 1.388 . S
C1146 C1147 1.366 . S
C1147 C1146 1.366 . S
C1147 C1148 1.414 . S
C1147 C1150 1.499 . S
C1148 H1128 0.950 . S
C1148 C1147 1.414 . S
C1148 C1149 1.374 . S
C1149 H1129 0.950 . S
C1149 C1145 1.385 . S
C1149 C1148 1.374 . S
C1150 C1147 1.499 . S
C1150 C1151 1.373 . S
C1150 C1152 1.389 . S
C1151 H1130 0.950 . S
C1151 C1150 1.373 . S
C1151 C1167 1.377 1_455 S
C1152 C1150 1.389 . S
C1152 C1153 1.524 . S
C1152 C1166 1.377 1_455 S
C1153 C1152 1.524 . S
C1153 C1154 1.397 . S
C1153 C1158 1.363 . S
C1154 H1131 0.950 . S
C1154 C1153 1.397 . S
C1154 C1155 1.334 . S
C1155 H1132 0.950 . S
C1155 C1154 1.334 . S
C1155 C1156 1.287 . S
C1156 C1155 1.287 . S
C1156 C1157 1.524 . S
C1156 H1175 0.913 . S
C1157 H1133 0.950 . S
C1157 C1156 1.524 . S
C1157 C1158 1.415 . S
C1158 H1134 0.950 . S
C1158 C1153 1.363 . S
C1158 C1157 1.415 . S
C1159 H1135 0.951 . S
C1159 C1160 1.366 . S
C1159 C1161 1.388 . S
C1160 C1159 1.366 . S
C1160 C1164 1.385 . S
C1161 H1136 0.951 . S
C1161 C1159 1.388 . S
C1161 C1162 1.366 . S
C1162 C1161 1.366 . S
C1162 C1163 1.414 . S
C1162 C1165 1.499 . S
C1163 H1137 0.950 . S
C1163 C1162 1.414 . S
C1163 C1164 1.374 . S
C1164 H1138 0.950 . S
C1164 C1160 1.385 . S
C1164 C1163 1.374 . S
C1165 C1162 1.499 . S
C1165 C1166 1.373 . S
C1165 C1167 1.389 . S
C1166 H1139 0.950 . S
C1166 C1152 1.377 1_655 S
C1166 C1165 1.373 . S
C1167 C1151 1.377 1_655 S
C1167 C1165 1.389 . S
C1167 C1168 1.524 . S
C1168 C1167 1.524 . S
C1168 C1169 1.397 . S
C1168 C1173 1.363 . S
C1169 H1140 0.950 . S
C1169 C1168 1.397 . S
C1169 C1170 1.334 . S
C1170 H1141 0.950 . S
C1170 C1169 1.334 . S
C1170 C1171 1.287 . S
C1171 C1170 1.287 . S
C1171 C1172 1.524 . S
C1171 H1174 0.999 . S
C1172 H1142 0.950 . S
C1172 C1171 1.524 . S
C1172 C1173 1.415 . S
C1173 H1143 0.950 . S
C1173 C1168 1.363 . S
C1173 C1172 1.415 . S
H1174 C1171 0.999 . S
H1175 C1156 0.913 . S
H1176 C1194 0.951 . S
H1177 C1196 0.951 . S
H1178 C1198 0.950 . S
H1179 C1199 0.950 . S
H1180 C1201 0.950 . S
H1181 C1204 0.950 . S
H1182 C1205 0.950 . S
H1183 C1207 0.950 . S
H1184 C1208 0.950 . S
H1185 C1209 0.951 . S
H1186 C1211 0.951 . S
H1187 C1213 0.950 . S
H1188 C1214 0.950 . S
H1189 C1216 0.950 . S
H1190 C1219 0.950 . S
H1191 C1220 0.950 . S
H1192 C1222 0.950 . S
H1193 C1223 0.950 . S
C1194 H1176 0.951 . S
C1194 C1195 1.366 . S
C1194 C1196 1.388 . S
C1195 C1194 1.366 . S
C1195 C1199 1.385 . S
C1196 H1177 0.951 . S
C1196 C1194 1.388 . S
C1196 C1197 1.366 . S
C1197 C1196 1.366 . S
C1197 C1198 1.414 . S
C1197 C1200 1.499 . S
C1198 H1178 0.950 . S
C1198 C1197 1.414 . S
C1198 C1199 1.374 . S
C1199 H1179 0.950 . S
C1199 C1195 1.385 . S
C1199 C1198 1.374 . S
C1200 C1197 1.499 . S
C1200 C1201 1.373 . S
C1200 C1202 1.389 . S
C1201 H1180 0.950 . S
C1201 C1200 1.373 . S
C1201 C1217 1.377 . S
C1202 C1200 1.389 . S
C1202 C1203 1.524 . S
C1202 C1216 1.377 . S
C1203 C1202 1.524 . S
C1203 C1204 1.397 . S
C1203 C1208 1.363 . S
C1204 H1181 0.950 . S
C1204 C1203 1.397 . S
C1204 C1205 1.334 . S
C1205 H1182 0.950 . S
C1205 C1204 1.334 . S
C1205 C1206 1.287 . S
C1206 C1205 1.287 . S
C1206 C1207 1.524 . S
C1206 H1225 0.913 . S
C1207 H1183 0.950 . S
C1207 C1206 1.524 . S
C1207 C1208 1.415 . S
C1208 H1184 0.950 . S
C1208 C1203 1.363 . S
C1208 C1207 1.415 . S
C1209 H1185 0.951 . S
C1209 C1210 1.366 . S
C1209 C1211 1.388 . S
C1210 C1209 1.366 . S
C1210 C1214 1.385 . S
C1211 H1186 0.951 . S
C1211 C1209 1.388 . S
C1211 C1212 1.366 . S
C1212 C1211 1.366 . S
C1212 C1213 1.414 . S
C1212 C1215 1.499 . S
C1213 H1187 0.950 . S
C1213 C1212 1.414 . S
C1213 C1214 1.374 . S
C1214 H1188 0.950 . S
C1214 C1210 1.385 . S
C1214 C1213 1.374 . S
C1215 C1212 1.499 . S
C1215 C1216 1.373 . S
C1215 C1217 1.389 . S
C1216 H1189 0.950 . S
C1216 C1202 1.377 . S
C1216 C1215 1.373 . S
C1217 C1201 1.377 . S
C1217 C1215 1.389 . S
C1217 C1218 1.524 . S
C1218 C1217 1.524 . S
C1218 C1219 1.397 . S
C1218 C1223 1.363 . S
C1219 H1190 0.950 . S
C1219 C1218 1.397 . S
C1219 C1220 1.334 . S
C1220 H1191 0.950 . S
C1220 C1219 1.334 . S
C1220 C1221 1.287 . S
C1221 C1220 1.287 . S
C1221 C1222 1.524 . S
C1221 H1224 0.999 . S
C1222 H1192 0.950 . S
C1222 C1221 1.524 . S
C1222 C1223 1.415 . S
C1223 H1193 0.950 . S
C1223 C1218 1.363 . S
C1223 C1222 1.415 . S
H1224 C1221 0.999 . S
H1225 C1206 0.913 . S
H1226 C1244 0.951 . S
H1227 C1246 0.951 . S
H1228 C1248 0.950 . S
H1229 C1249 0.950 . S
H1230 C1251 0.950 . S
H1231 C1254 0.950 . S
H1232 C1255 0.950 . S
H1233 C1257 0.950 . S
H1234 C1258 0.968 . S
H1235 C1259 0.951 . S
H1236 C1261 0.951 . S
H1237 C1263 0.950 . S
H1238 C1264 0.950 . S
H1239 C1266 0.950 . S
H1240 C1269 0.950 . S
H1241 C1270 0.950 . S
H1242 C1272 0.950 . S
H1243 C1273 0.968 . S
C1244 H1226 0.951 . S
C1244 C1245 1.366 . S
C1244 C1246 1.388 . S
C1245 C1244 1.366 . S
C1245 C1249 1.385 . S
C1246 H1227 0.951 . S
C1246 C1244 1.388 . S
C1246 C1247 1.366 . S
C1247 C1246 1.366 . S
C1247 C1248 1.414 . S
C1247 C1250 1.499 . S
C1248 H1228 0.950 . S
C1248 C1247 1.414 . S
C1248 C1249 1.374 . S
C1249 H1229 0.950 . S
C1249 C1245 1.385 . S
C1249 C1248 1.374 . S
C1250 C1247 1.499 . S
C1250 C1251 1.373 . S
C1250 C1252 1.389 . S
C1251 H1230 0.950 . S
C1251 C1250 1.373 . S
C1251 C1267 1.377 1_655 S
C1252 C1250 1.389 . S
C1252 C1253 1.524 . S
C1252 C1266 1.377 1_655 S
C1253 C1252 1.524 . S
C1253 C1254 1.397 . S
C1253 C1258 1.363 . S
C1254 H1231 0.950 . S
C1254 C1253 1.397 . S
C1254 C1255 1.334 . S
C1255 H1232 0.950 . S
C1255 C1254 1.334 . S
C1255 C1256 1.287 . S
C1256 C1255 1.287 . S
C1256 C1257 1.524 . S
C1256 H1275 0.913 . S
C1257 H1233 0.950 . S
C1257 C1256 1.524 . S
C1257 C1258 1.415 . S
C1258 H1234 0.968 . S
C1258 C1253 1.363 . S
C1258 C1257 1.415 . S
C1259 H1235 0.951 . S
C1259 C1260 1.366 . S
C1259 C1261 1.388 . S
C1260 C1259 1.366 . S
C1260 C1264 1.385 . S
C1261 H1236 0.951 . S
C1261 C1259 1.388 . S
C1261 C1262 1.366 . S
C1262 C1261 1.366 . S
C1262 C1263 1.414 . S
C1262 C1265 1.499 . S
C1263 H1237 0.950 . S
C1263 C1262 1.414 . S
C1263 C1264 1.374 . S
C1264 H1238 0.950 . S
C1264 C1260 1.385 . S
C1264 C1263 1.374 . S
C1265 C1262 1.499 . S
C1265 C1266 1.373 . S
C1265 C1267 1.389 . S
C1266 H1239 0.950 . S
C1266 C1252 1.377 1_455 S
C1266 C1265 1.373 . S
C1267 C1251 1.377 1_455 S
C1267 C1265 1.389 . S
C1267 C1268 1.524 . S
C1268 C1267 1.524 . S
C1268 C1269 1.397 . S
C1268 C1273 1.363 . S
C1269 H1240 0.950 . S
C1269 C1268 1.397 . S
C1269 C1270 1.334 . S
C1270 H1241 0.950 . S
C1270 C1269 1.334 . S
C1270 C1271 1.287 . S
C1271 C1270 1.287 . S
C1271 C1272 1.524 . S
C1271 H1274 0.999 . S
C1272 H1242 0.950 . S
C1272 C1271 1.524 . S
C1272 C1273 1.415 . S
C1273 H1243 0.968 . S
C1273 C1268 1.363 . S
C1273 C1272 1.415 . S
H1274 C1271 0.999 . S
H1275 C1256 0.913 . S
H1276 C1294 0.951 . S
H1277 C1296 0.951 . S
H1278 C1298 0.950 . S
H1279 C1299 0.950 . S
H1280 C1301 0.950 . S
H1281 C1304 0.950 . S
H1282 C1305 0.950 . S
H1283 C1307 0.950 . S
H1284 C1308 0.950 . S
H1285 C1309 0.951 . S
H1286 C1311 0.951 . S
H1287 C1313 0.950 . S
H1288 C1314 0.950 . S
H1289 C1316 0.950 . S
H1290 C1319 0.950 . S
H1291 C1320 0.950 . S
H1292 C1322 0.950 . S
H1293 C1323 0.950 . S
C1294 H1276 0.951 . S
C1294 C1295 1.366 . S
C1294 C1296 1.388 . S
C1295 C1294 1.366 . S
C1295 C1299 1.385 . S
C1296 H1277 0.951 . S
C1296 C1294 1.388 . S
C1296 C1297 1.366 . S
C1297 C1296 1.366 . S
C1297 C1298 1.414 . S
C1297 C1300 1.499 . S
C1298 H1278 0.950 . S
C1298 C1297 1.414 . S
C1298 C1299 1.374 . S
C1299 H1279 0.950 . S
C1299 C1295 1.385 . S
C1299 C1298 1.374 . S
C1300 C1297 1.499 . S
C1300 C1301 1.373 . S
C1300 C1302 1.389 . S
C1301 H1280 0.950 . S
C1301 C1300 1.373 . S
C1301 C1317 1.377 1_545 S
C1302 C1300 1.389 . S
C1302 C1303 1.524 . S
C1302 C1316 1.377 1_545 S
C1303 C1302 1.524 . S
C1303 C1304 1.397 . S
C1303 C1308 1.363 . S
C1304 H1281 0.950 . S
C1304 C1303 1.397 . S
C1304 C1305 1.334 . S
C1305 H1282 0.950 . S
C1305 C1304 1.334 . S
C1305 C1306 1.287 . S
C1306 C1305 1.287 . S
C1306 C1307 1.524 . S
C1306 H1325 0.913 . S
C1307 H1283 0.950 . S
C1307 C1306 1.524 . S
C1307 C1308 1.415 . S
C1308 H1284 0.950 . S
C1308 C1303 1.363 . S
C1308 C1307 1.415 . S
C1309 H1285 0.951 . S
C1309 C1310 1.366 . S
C1309 C1311 1.388 . S
C1310 C1309 1.366 . S
C1310 C1314 1.385 . S
C1311 H1286 0.951 . S
C1311 C1309 1.388 . S
C1311 C1312 1.366 . S
C1312 C1311 1.366 . S
C1312 C1313 1.414 . S
C1312 C1315 1.499 . S
C1313 H1287 0.950 . S
C1313 C1312 1.414 . S
C1313 C1314 1.374 . S
C1314 H1288 0.950 . S
C1314 C1310 1.385 . S
C1314 C1313 1.374 . S
C1315 C1312 1.499 . S
C1315 C1316 1.373 . S
C1315 C1317 1.389 . S
C1316 H1289 0.950 . S
C1316 C1302 1.377 1_565 S
C1316 C1315 1.373 . S
C1317 C1301 1.377 1_565 S
C1317 C1315 1.389 . S
C1317 C1318 1.524 . S
C1318 C1317 1.524 . S
C1318 C1319 1.397 . S
C1318 C1323 1.363 . S
C1319 H1290 0.950 . S
C1319 C1318 1.397 . S
C1319 C1320 1.334 . S
C1320 H1291 0.950 . S
C1320 C1319 1.334 . S
C1320 C1321 1.287 . S
C1321 C1320 1.287 . S
C1321 C1322 1.524 . S
C1321 H1324 0.999 . S
C1322 H1292 0.950 . S
C1322 C1321 1.524 . S
C1322 C1323 1.415 . S
C1323 H1293 0.950 . S
C1323 C1318 1.363 . S
C1323 C1322 1.415 . S
H1324 C1321 0.999 . S
H1325 C1306 0.913 . S
H1326 C1344 0.951 . S
H1327 C1346 0.951 . S
H1328 C1348 0.950 . S
H1329 C1349 0.950 . S
H1330 C1351 0.950 . S
H1331 C1354 0.950 . S
H1332 C1355 0.950 . S
H1333 C1357 0.950 . S
H1334 C1358 0.950 . S
H1335 C1359 0.951 . S
H1336 C1361 0.951 . S
H1337 C1363 0.950 . S
H1338 C1364 0.950 . S
H1339 C1366 0.950 . S
H1340 C1369 0.950 . S
H1341 C1370 0.950 . S
H1342 C1372 0.950 . S
H1343 C1373 0.950 . S
C1344 H1326 0.951 . S
C1344 C1345 1.366 . S
C1344 C1346 1.388 . S
C1345 C1344 1.366 . S
C1345 C1349 1.385 . S
C1346 H1327 0.951 . S
C1346 C1344 1.388 . S
C1346 C1347 1.366 . S
C1347 C1346 1.366 . S
C1347 C1348 1.414 . S
C1347 C1350 1.499 . S
C1348 H1328 0.950 . S
C1348 C1347 1.414 . S
C1348 C1349 1.374 . S
C1349 H1329 0.950 . S
C1349 C1345 1.385 . S
C1349 C1348 1.374 . S
C1350 C1347 1.499 . S
C1350 C1351 1.373 . S
C1350 C1352 1.389 . S
C1351 H1330 0.950 . S
C1351 C1350 1.373 . S
C1351 C1367 1.377 . S
C1352 C1350 1.389 . S
C1352 C1353 1.524 . S
C1352 C1366 1.377 . S
C1353 C1352 1.524 . S
C1353 C1354 1.397 . S
C1353 C1358 1.363 . S
C1354 H1331 0.950 . S
C1354 C1353 1.397 . S
C1354 C1355 1.334 . S
C1355 H1332 0.950 . S
C1355 C1354 1.334 . S
C1355 C1356 1.287 . S
C1356 C1355 1.287 . S
C1356 C1357 1.524 . S
C1356 H1375 0.913 . S
C1357 H1333 0.950 . S
C1357 C1356 1.524 . S
C1357 C1358 1.415 . S
C1358 H1334 0.950 . S
C1358 C1353 1.363 . S
C1358 C1357 1.415 . S
C1359 H1335 0.951 . S
C1359 C1360 1.366 . S
C1359 C1361 1.388 . S
C1360 C1359 1.366 . S
C1360 C1364 1.385 . S
C1361 H1336 0.951 . S
C1361 C1359 1.388 . S
C1361 C1362 1.366 . S
C1362 C1361 1.366 . S
C1362 C1363 1.414 . S
C1362 C1365 1.499 . S
C1363 H1337 0.950 . S
C1363 C1362 1.414 . S
C1363 C1364 1.374 . S
C1364 H1338 0.950 . S
C1364 C1360 1.385 . S
C1364 C1363 1.374 . S
C1365 C1362 1.499 . S
C1365 C1366 1.373 . S
C1365 C1367 1.389 . S
C1366 H1339 0.950 . S
C1366 C1352 1.377 . S
C1366 C1365 1.373 . S
C1367 C1351 1.377 . S
C1367 C1365 1.389 . S
C1367 C1368 1.524 . S
C1368 C1367 1.524 . S
C1368 C1369 1.397 . S
C1368 C1373 1.363 . S
C1369 H1340 0.950 . S
C1369 C1368 1.397 . S
C1369 C1370 1.334 . S
C1370 H1341 0.950 . S
C1370 C1369 1.334 . S
C1370 C1371 1.287 . S
C1371 C1370 1.287 . S
C1371 C1372 1.524 . S
C1371 H1374 0.999 . S
C1372 H1342 0.950 . S
C1372 C1371 1.524 . S
C1372 C1373 1.415 . S
C1373 H1343 0.950 . S
C1373 C1368 1.363 . S
C1373 C1372 1.415 . S
H1374 C1371 0.999 . S
H1375 C1356 0.913 . S
H1376 C1394 0.951 . S
H1377 C1396 0.951 . S
H1378 C1398 0.950 . S
H1379 C1399 0.950 . S
H1380 C1401 0.950 . S
H1381 C1404 0.950 . S
H1382 C1405 0.950 . S
H1383 C1407 0.950 . S
H1384 C1408 0.950 . S
H1385 C1409 0.951 . S
H1386 C1411 0.951 . S
H1387 C1413 0.950 . S
H1388 C1414 0.950 . S
H1389 C1416 0.950 . S
H1390 C1419 0.950 . S
H1391 C1420 0.950 . S
H1392 C1422 0.950 . S
H1393 C1423 0.950 . S
C1394 H1376 0.951 . S
C1394 C1395 1.366 . S
C1394 C1396 1.388 . S
C1395 C1394 1.366 . S
C1395 C1399 1.385 . S
C1396 H1377 0.951 . S
C1396 C1394 1.388 . S
C1396 C1397 1.366 . S
C1397 C1396 1.366 . S
C1397 C1398 1.414 . S
C1397 C1400 1.499 . S
C1398 H1378 0.950 . S
C1398 C1397 1.414 . S
C1398 C1399 1.374 . S
C1399 H1379 0.950 . S
C1399 C1395 1.385 . S
C1399 C1398 1.374 . S
C1400 C1397 1.499 . S
C1400 C1401 1.373 . S
C1400 C1402 1.389 . S
C1401 H1380 0.950 . S
C1401 C1400 1.373 . S
C1401 C1417 1.377 1_455 S
C1402 C1400 1.389 . S
C1402 C1403 1.524 . S
C1402 C1416 1.377 1_455 S
C1403 C1402 1.524 . S
C1403 C1404 1.397 . S
C1403 C1408 1.363 . S
C1404 H1381 0.950 . S
C1404 C1403 1.397 . S
C1404 C1405 1.334 . S
C1405 H1382 0.950 . S
C1405 C1404 1.334 . S
C1405 C1406 1.287 . S
C1406 C1405 1.287 . S
C1406 C1407 1.524 . S
C1406 H1425 0.913 . S
C1407 H1383 0.950 . S
C1407 C1406 1.524 . S
C1407 C1408 1.415 . S
C1408 H1384 0.950 . S
C1408 C1403 1.363 . S
C1408 C1407 1.415 . S
C1409 H1385 0.951 . S
C1409 C1410 1.366 . S
C1409 C1411 1.388 . S
C1410 C1409 1.366 . S
C1410 C1414 1.385 . S
C1411 H1386 0.951 . S
C1411 C1409 1.388 . S
C1411 C1412 1.366 . S
C1412 C1411 1.366 . S
C1412 C1413 1.414 . S
C1412 C1415 1.499 . S
C1413 H1387 0.950 . S
C1413 C1412 1.414 . S
C1413 C1414 1.374 . S
C1414 H1388 0.950 . S
C1414 C1410 1.385 . S
C1414 C1413 1.374 . S
C1415 C1412 1.499 . S
C1415 C1416 1.373 . S
C1415 C1417 1.389 . S
C1416 H1389 0.950 . S
C1416 C1402 1.377 1_655 S
C1416 C1415 1.373 . S
C1417 C1401 1.377 1_655 S
C1417 C1415 1.389 . S
C1417 C1418 1.524 . S
C1418 C1417 1.524 . S
C1418 C1419 1.397 . S
C1418 C1423 1.363 . S
C1419 H1390 0.950 . S
C1419 C1418 1.397 . S
C1419 C1420 1.334 . S
C1420 H1391 0.950 . S
C1420 C1419 1.334 . S
C1420 C1421 1.287 . S
C1421 C1420 1.287 . S
C1421 C1422 1.524 . S
C1421 H1424 0.999 . S
C1422 H1392 0.950 . S
C1422 C1421 1.524 . S
C1422 C1423 1.415 . S
C1423 H1393 0.950 . S
C1423 C1418 1.363 . S
C1423 C1422 1.415 . S
H1424 C1421 0.999 . S
H1425 C1406 0.913 . S
H1426 C1444 0.951 . S
H1427 C1446 0.951 . S
H1428 C1448 0.950 . S
H1429 C1449 0.950 . S
H1430 C1451 0.950 . S
H1431 C1454 0.950 . S
H1432 C1455 0.950 . S
H1433 C1457 0.950 . S
H1434 C1458 0.950 1_545 S
H1435 C1459 0.951 . S
H1436 C1461 0.951 . S
H1437 C1463 0.950 . S
H1438 C1464 0.950 . S
H1439 C1466 0.950 . S
H1440 C1469 0.950 . S
H1441 C1470 0.950 . S
H1442 C1472 0.950 . S
H1443 C1473 0.950 1_565 S
C1444 H1426 0.951 . S
C1444 C1445 1.366 . S
C1444 C1446 1.388 . S
C1445 C1444 1.366 . S
C1445 C1449 1.385 . S
C1446 H1427 0.951 . S
C1446 C1444 1.388 . S
C1446 C1447 1.366 . S
C1447 C1446 1.366 . S
C1447 C1448 1.414 . S
C1447 C1450 1.499 . S
C1448 H1428 0.950 . S
C1448 C1447 1.414 . S
C1448 C1449 1.374 . S
C1449 H1429 0.950 . S
C1449 C1445 1.385 . S
C1449 C1448 1.374 . S
C1450 C1447 1.499 . S
C1450 C1451 1.373 . S
C1450 C1452 1.389 . S
C1451 H1430 0.950 . S
C1451 C1450 1.373 . S
C1451 C1467 1.377 1_565 S
C1452 C1450 1.389 . S
C1452 C1453 1.524 . S
C1452 C1466 1.377 1_565 S
C1453 C1452 1.524 . S
C1453 C1454 1.397 . S
C1453 C1458 1.363 . S
C1454 H1431 0.950 . S
C1454 C1453 1.397 . S
C1454 C1455 1.334 . S
C1455 H1432 0.950 . S
C1455 C1454 1.334 . S
C1455 C1456 1.287 . S
C1456 C1455 1.287 . S
C1456 C1457 1.524 . S
C1456 H1475 0.913 . S
C1457 H1433 0.950 . S
C1457 C1456 1.524 . S
C1457 C1458 1.415 . S
C1458 H1434 0.950 1_565 S
C1458 C1453 1.363 . S
C1458 C1457 1.415 . S
C1459 H1435 0.951 . S
C1459 C1460 1.366 . S
C1459 C1461 1.388 . S
C1460 C1459 1.366 . S
C1460 C1464 1.385 . S
C1461 H1436 0.951 . S
C1461 C1459 1.388 . S
C1461 C1462 1.366 . S
C1462 C1461 1.366 . S
C1462 C1463 1.414 . S
C1462 C1465 1.499 . S
C1463 H1437 0.950 . S
C1463 C1462 1.414 . S
C1463 C1464 1.374 . S
C1464 H1438 0.950 . S
C1464 C1460 1.385 . S
C1464 C1463 1.374 . S
C1465 C1462 1.499 . S
C1465 C1466 1.373 . S
C1465 C1467 1.389 . S
C1466 H1439 0.950 . S
C1466 C1452 1.377 1_545 S
C1466 C1465 1.373 . S
C1467 C1451 1.377 1_545 S
C1467 C1465 1.389 . S
C1467 C1468 1.524 . S
C1468 C1467 1.524 . S
C1468 C1469 1.397 . S
C1468 C1473 1.363 . S
C1469 H1440 0.950 . S
C1469 C1468 1.397 . S
C1469 C1470 1.334 . S
C1470 H1441 0.950 . S
C1470 C1469 1.334 . S
C1470 C1471 1.287 . S
C1471 C1470 1.287 . S
C1471 C1472 1.524 . S
C1471 H1474 0.999 . S
C1472 H1442 0.950 . S
C1472 C1471 1.524 . S
C1472 C1473 1.415 . S
C1473 H1443 0.950 1_545 S
C1473 C1468 1.363 . S
C1473 C1472 1.415 . S
H1474 C1471 0.999 . S
H1475 C1456 0.913 . S
C295 N232 1.629 . S
C310 N2 1.628 . S
C345 C30 1.667 . S
C360 C260 1.669 . S
C395 C53 1.668 . S
C410 C145 1.667 . S
C445 N71 1.629 . S
C460 N163 1.628 . S
C495 C191 1.669 . S
C510 C99 1.666 . S
C545 C122 1.668 . S
C560 C214 1.666 . S
C595 C200 1.672 . S
C610 N12 1.677 . S
C645 C39 1.660 . S
C660 C223 1.660 . S
C695 C62 1.672 . S
C710 N242 1.677 . S
C745 N81 1.677 . S
C760 C269 1.673 . S
C795 C154 1.660 . S
C810 C108 1.660 . S
C845 N173 1.677 . S
C860 C131 1.672 . S
C895 C76 1.069 . S
C910 C7 1.069 . S
C945 N25 1.013 . S
C960 N94 1.013 . S
C995 N117 0.963 . S
C1010 N48 0.962 . S
C1045 N209 1.012 . S
C1060 N140 1.013 . S
C1095 C237 1.069 . S
C1110 C168 1.069 . S
C1145 N186 0.962 . S
C1160 N255 0.963 . S
C1195 C85 2.034 . S
C1210 C16 2.035 . S
C1245 N35 1.907 . S
C1260 N104 1.907 . S
C1295 N127 1.952 . S
C1310 N58 1.953 . S
C1345 N150 1.906 . S
C1360 N219 1.906 . S
C1395 C246 2.034 . S
C1410 C177 2.034 . S
C1445 N196 1.953 . S
C1460 N265 1.953 . S
