# Generated by pormake.
# Topology neb, (4)-cn, num edge types: 1
# Building blocks:
#     Node 0, Type 0, BuildingBlock: CEKHIL_clean_sbu_0, # of connection points: 4
#     Node 1, Type 0, BuildingBlock: CEKHIL_clean_sbu_0, # of connection points: 4
#     Node 2, Type 0, BuildingBlock: CEKHIL_clean_sbu_0, # of connection points: 4
#     Node 3, Type 0, BuildingBlock: CEKHIL_clean_sbu_0, # of connection points: 4
#     Node 4, Type 0, BuildingBlock: CEKHIL_clean_sbu_0, # of connection points: 4
#     Node 5, Type 0, BuildingBlock: CEKHIL_clean_sbu_0, # of connection points: 4
#     Node 6, Type 0, BuildingBlock: CEKHIL_clean_sbu_0, # of connection points: 4
#     Node 7, Type 0, BuildingBlock: CEKHIL_clean_sbu_0, # of connection points: 4
#     Node 8, Type 0, BuildingBlock: CEKHIL_clean_sbu_0, # of connection points: 4
#     Node 9, Type 0, BuildingBlock: CEKHIL_clean_sbu_0, # of connection points: 4
#     Node 10, Type 0, BuildingBlock: CEKHIL_clean_sbu_0, # of connection points: 4
#     Node 11, Type 0, BuildingBlock: CEKHIL_clean_sbu_0, # of connection points: 4
#     Node 12, Type 0, BuildingBlock: CEKHIL_clean_sbu_0, # of connection points: 4
#     Node 13, Type 0, BuildingBlock: CEKHIL_clean_sbu_0, # of connection points: 4
#     Node 14, Type 0, BuildingBlock: CEKHIL_clean_sbu_0, # of connection points: 4
#     Node 15, Type 0, BuildingBlock: CEKHIL_clean_sbu_0, # of connection points: 4
#     Edge 16, Type (0, 0), BuildingBlock: CIFDUS_clean_linker_0, # of connection points: 2
#     Edge 17, Type (0, 0), BuildingBlock: CIFDUS_clean_linker_0, # of connection points: 2
#     Edge 18, Type (0, 0), BuildingBlock: CIFDUS_clean_linker_0, # of connection points: 2
#     Edge 19, Type (0, 0), BuildingBlock: CIFDUS_clean_linker_0, # of connection points: 2
#     Edge 20, Type (0, 0), BuildingBlock: CIFDUS_clean_linker_0, # of connection points: 2
#     Edge 21, Type (0, 0), BuildingBlock: CIFDUS_clean_linker_0, # of connection points: 2
#     Edge 22, Type (0, 0), BuildingBlock: CIFDUS_clean_linker_0, # of connection points: 2
#     Edge 23, Type (0, 0), BuildingBlock: CIFDUS_clean_linker_0, # of connection points: 2
#     Edge 24, Type (0, 0), BuildingBlock: CIFDUS_clean_linker_0, # of connection points: 2
#     Edge 25, Type (0, 0), BuildingBlock: CIFDUS_clean_linker_0, # of connection points: 2
#     Edge 26, Type (0, 0), BuildingBlock: CIFDUS_clean_linker_0, # of connection points: 2
#     Edge 27, Type (0, 0), BuildingBlock: CIFDUS_clean_linker_0, # of connection points: 2
#     Edge 28, Type (0, 0), BuildingBlock: CIFDUS_clean_linker_0, # of connection points: 2
#     Edge 29, Type (0, 0), BuildingBlock: CIFDUS_clean_linker_0, # of connection points: 2
#     Edge 30, Type (0, 0), BuildingBlock: CIFDUS_clean_linker_0, # of connection points: 2
#     Edge 31, Type (0, 0), BuildingBlock: CIFDUS_clean_linker_0, # of connection points: 2
#     Edge 32, Type (0, 0), BuildingBlock: CIFDUS_clean_linker_0, # of connection points: 2
#     Edge 33, Type (0, 0), BuildingBlock: CIFDUS_clean_linker_0, # of connection points: 2
#     Edge 34, Type (0, 0), BuildingBlock: CIFDUS_clean_linker_0, # of connection points: 2
#     Edge 35, Type (0, 0), BuildingBlock: CIFDUS_clean_linker_0, # of connection points: 2
#     Edge 36, Type (0, 0), BuildingBlock: CIFDUS_clean_linker_0, # of connection points: 2
#     Edge 37, Type (0, 0), BuildingBlock: CIFDUS_clean_linker_0, # of connection points: 2
#     Edge 38, Type (0, 0), BuildingBlock: CIFDUS_clean_linker_0, # of connection points: 2
#     Edge 39, Type (0, 0), BuildingBlock: CIFDUS_clean_linker_0, # of connection points: 2
#     Edge 40, Type (0, 0), BuildingBlock: CIFDUS_clean_linker_0, # of connection points: 2
#     Edge 41, Type (0, 0), BuildingBlock: CIFDUS_clean_linker_0, # of connection points: 2
#     Edge 42, Type (0, 0), BuildingBlock: CIFDUS_clean_linker_0, # of connection points: 2
#     Edge 43, Type (0, 0), BuildingBlock: CIFDUS_clean_linker_0, # of connection points: 2
#     Edge 44, Type (0, 0), BuildingBlock: CIFDUS_clean_linker_0, # of connection points: 2
#     Edge 45, Type (0, 0), BuildingBlock: CIFDUS_clean_linker_0, # of connection points: 2
#     Edge 46, Type (0, 0), BuildingBlock: CIFDUS_clean_linker_0, # of connection points: 2
#     Edge 47, Type (0, 0), BuildingBlock: CIFDUS_clean_linker_0, # of connection points: 2
# Relax obj value: 0.002
# Max RMSD: 0.027
# Mean RMSD: 0.027
data_MOF--net-neb--node1-CEKHIL_clean_sbu_0--edge1-CIFDUS_clean_linker_0
_symmetry_space_group_name_H-M    P1
_symmetry_Int_Tables_number       1
_symmetry_cell_setting            triclinic
loop_
_symmetry_equiv_pos_as_xyz
'x, y, z'
_cell_length_a     36.234396
_cell_length_b     19.791885
_cell_length_c     65.274289
_cell_angle_alpha  89.965679
_cell_angle_beta   92.928722
_cell_angle_gamma 90.037336
loop_
_atom_site_label
_atom_site_type_symbol
_atom_site_fract_x
_atom_site_fract_y
_atom_site_fract_z
_atom_type_partial_charge
Co0 Co 0.12069 0.10609 0.46436 0.0
O1 O 0.10966 0.0452 0.48623 0.0
O2 O 0.06724 0.10069 0.46764 0.0
C3 C 0.16518 0.16342 0.48275 0.0
O4 O 0.12343 0.17603 0.44095 0.0
Co5 Co 0.19795 0.09819 0.44708 0.0
O6 O 0.18372 0.18636 0.43478 0.0
C7 C 0.14255 0.99705 0.43351 0.0
C8 C 0.07511 0.05974 0.4829 0.0
C9 C 0.15031 0.20604 0.43226 0.0
O10 O 0.11872 0.02849 0.444 0.0
O11 O 0.1766 0.01443 0.43363 0.0
O12 O 0.13053 0.17816 0.48398 0.0
O13 O 0.17185 0.1101 0.47202 0.0
Co14 Co 0.1324 0.10028 0.81967 0.0
O15 O 0.14492 0.03697 0.79852 0.0
O16 O 0.18522 0.08691 0.82012 0.0
C17 C 0.09351 0.16396 0.79941 0.0
O18 O 0.13133 0.17087 0.84238 0.0
Co19 Co 0.05368 0.11532 0.83455 0.0
O20 O 0.07303 0.19655 0.84937 0.0
C21 C 0.0993 1.00058 0.84977 0.0
C22 C 0.17924 0.04732 0.80441 0.0
C23 C 0.1077 0.20664 0.8517 0.0
O24 O 0.12684 0.02444 0.84027 0.0
O25 O 0.06697 0.0268 0.84819 0.0
O26 O 0.12901 0.17259 0.79945 0.0
O27 O 0.08259 0.11357 0.81027 0.0
Co28 Co 0.86982 0.92369 0.57752 0.0
O29 O 0.87957 0.98863 0.55639 0.0
O30 O 0.9229 0.93222 0.57406 0.0
C31 C 0.82522 0.8685 0.55847 0.0
O32 O 0.86943 0.84987 0.59992 0.0
Co33 Co 0.7921 0.91849 0.59534 0.0
O34 O 0.81009 0.83141 0.60695 0.0
C35 C 0.8439 0.02743 0.60851 0.0
C36 C 0.91432 0.97464 0.55929 0.0
C37 C 0.84422 0.81571 0.60876 0.0
O38 O 0.87008 0.99854 0.59899 0.0
O39 O 0.81048 0.0061 0.60743 0.0
O40 O 0.85982 0.85442 0.55651 0.0
O41 O 0.81898 0.91822 0.57061 0.0
Co42 Co 0.87412 0.88176 0.21138 0.0
O43 O 0.8592 0.94407 0.23231 0.0
O44 O 0.82087 0.89063 0.21048 0.0
C45 C 0.91425 0.82259 0.23241 0.0
O46 O 0.87718 0.81089 0.18883 0.0
Co47 Co 0.95365 0.86942 0.19728 0.0
O48 O 0.93587 0.78799 0.18201 0.0
C49 C 0.90717 0.98366 0.18213 0.0
C50 C 0.8253 0.93038 0.22625 0.0
C51 C 0.90136 0.7764 0.17952 0.0
O52 O 0.879 0.95802 0.19072 0.0
O53 O 0.93972 0.95863 0.18439 0.0
O54 O 0.87902 0.81028 0.23196 0.0
O55 O 0.92402 0.87282 0.2212 0.0
Co56 Co 0.13316 0.61606 0.96301 0.0
O57 O 0.11767 0.55597 0.98436 0.0
O58 O 0.07989 0.61962 0.96506 0.0
C59 C 0.181 0.66301 0.98172 0.0
O60 O 0.13891 0.68632 0.94011 0.0
Co61 Co 0.21037 0.60124 0.94523 0.0
O62 O 0.19849 0.68938 0.93207 0.0
C63 C 0.15106 0.50606 0.93209 0.0
C64 C 0.08412 0.57593 0.97992 0.0
C65 C 0.16565 0.71252 0.93041 0.0
O66 O 0.12788 0.54065 0.94213 0.0
O67 O 0.18571 0.51924 0.9326 0.0
O68 O 0.14743 0.68445 0.98352 0.0
O69 O 0.18412 0.61061 0.97014 0.0
Co70 Co 0.12226 0.59156 0.31917 0.0
O71 O 0.13223 0.52612 0.29808 0.0
O72 O 0.17519 0.57721 0.31758 0.0
C73 C 0.08144 0.65323 0.29924 0.0
O74 O 0.12344 0.66435 0.34161 0.0
Co75 Co 0.04459 0.60871 0.3357 0.0
O76 O 0.06573 0.68912 0.35015 0.0
C77 C 0.09022 0.49241 0.3497 0.0
C78 C 0.16713 0.5364 0.30237 0.0
C79 C 0.10044 0.69977 0.35161 0.0
O80 O 0.11799 0.51693 0.34046 0.0
O81 O 0.05786 0.51847 0.3481 0.0
O82 O 0.1168 0.66228 0.29836 0.0
O83 O 0.07182 0.60423 0.31096 0.0
Co84 Co 0.88616 0.36772 0.068 0.0
O85 O 0.90293 0.42693 0.04687 0.0
O86 O 0.93995 0.36758 0.06785 0.0
C87 C 0.84197 0.31569 0.04789 0.0
O88 O 0.87843 0.29894 0.09112 0.0
Co89 Co 0.8069 0.38155 0.08243 0.0
O90 O 0.81759 0.29407 0.09624 0.0
C91 C 0.86333 0.47892 0.09759 0.0
C92 C 0.93639 0.40967 0.05252 0.0
C93 C 0.8504 0.27209 0.09956 0.0
O94 O 0.88774 0.44503 0.08827 0.0
O95 O 0.82885 0.46439 0.09616 0.0
O96 O 0.87624 0.29665 0.04789 0.0
O97 O 0.83592 0.36935 0.05855 0.0
Co98 Co 0.89026 0.42289 0.717 0.0
O99 O 0.87868 0.48509 0.73849 0.0
O100 O 0.83679 0.43418 0.71824 0.0
C101 C 0.93068 0.36 0.73665 0.0
O102 O 0.89283 0.35274 0.6938 0.0
Co103 Co 0.96992 0.41984 0.70245 0.0
O104 O 0.953 0.33567 0.68849 0.0
C105 C 0.92042 0.52926 0.68766 0.0
C106 C 0.84407 0.47392 0.73385 0.0
C107 C 0.91902 0.32031 0.68529 0.0
O108 O 0.89363 0.50035 0.69662 0.0
O109 O 0.95379 0.5079 0.68949 0.0
O110 O 0.89538 0.34975 0.73685 0.0
O111 O 0.94035 0.41229 0.72623 0.0
Co112 Co 0.62648 0.11873 0.95916 0.0
O113 O 0.60814 0.06059 0.98021 0.0
O114 O 0.57258 0.11732 0.95785 0.0
C115 C 0.66809 0.17322 0.98051 0.0
O116 O 0.63501 0.18701 0.93613 0.0
Co117 Co 0.70816 0.11338 0.94746 0.0
O118 O 0.69597 0.19754 0.93207 0.0
C119 C 0.65662 0.00683 0.9322 0.0
C120 C 0.57502 0.0782 0.97391 0.0
C121 C 0.6627 0.21596 0.928 0.0
O122 O 0.62909 0.03972 0.93919 0.0
O123 O 0.69031 0.02502 0.93558 0.0
O124 O 0.63362 0.19135 0.97935 0.0
O125 O 0.67573 0.12028 0.96997 0.0
Co126 Co 0.62913 0.09792 0.32192 0.0
O127 O 0.64336 0.03486 0.30091 0.0
O128 O 0.6822 0.09474 0.32077 0.0
C129 C 0.58393 0.14965 0.30231 0.0
O130 O 0.62727 0.17064 0.34392 0.0
Co131 Co 0.55181 0.10673 0.33975 0.0
O132 O 0.56997 0.19025 0.35382 0.0
C133 C 0.60244 0.99551 0.35278 0.0
C134 C 0.67731 0.05255 0.30566 0.0
C135 C 0.60431 0.20421 0.35434 0.0
O136 O 0.62923 0.02345 0.3435 0.0
O137 O 0.56925 0.01791 0.35143 0.0
O138 O 0.61835 0.16638 0.30064 0.0
O139 O 0.57823 0.10043 0.31473 0.0
Co140 Co 0.3768 0.92015 0.07056 0.0
O141 O 0.39125 0.98308 0.04938 0.0
O142 O 0.4299 0.92252 0.06907 0.0
C143 C 0.33104 0.86933 0.05105 0.0
O144 O 0.37479 0.84711 0.09265 0.0
Co145 Co 0.29962 0.91155 0.08863 0.0
O146 O 0.31744 0.82762 0.10256 0.0
C147 C 0.35099 0.02192 0.10185 0.0
C148 C 0.42515 0.96466 0.05391 0.0
C149 C 0.35175 0.81349 0.10308 0.0
O150 O 0.37753 0.99462 0.0922 0.0
O151 O 0.31782 0.99929 0.10067 0.0
O152 O 0.36533 0.85199 0.04929 0.0
O153 O 0.32577 0.91845 0.06355 0.0
Co154 Co 0.37385 0.87334 0.70927 0.0
O155 O 0.35722 0.92906 0.73112 0.0
O156 O 0.32016 0.87285 0.70927 0.0
C157 C 0.41738 0.81827 0.7289 0.0
O158 O 0.38122 0.80778 0.6855 0.0
Co159 Co 0.45288 0.88755 0.69497 0.0
O160 O 0.44187 0.80201 0.68016 0.0
C161 C 0.39721 0.98711 0.68055 0.0
C162 C 0.32381 0.91163 0.72536 0.0
C163 C 0.40886 0.78121 0.67673 0.0
O164 O 0.37278 0.95333 0.68993 0.0
O165 O 0.43154 0.97147 0.68156 0.0
O166 O 0.38303 0.79957 0.7284 0.0
O167 O 0.42408 0.87322 0.71891 0.0
Co168 Co 0.63732 0.61026 0.46615 0.0
O169 O 0.62539 0.54847 0.48752 0.0
O170 O 0.58408 0.60953 0.46976 0.0
C171 C 0.68457 0.66027 0.48435 0.0
O172 O 0.6409 0.68158 0.44333 0.0
Co173 Co 0.71338 0.59807 0.44727 0.0
O174 O 0.70074 0.68822 0.4358 0.0
C175 C 0.65447 0.50223 0.43434 0.0
C176 C 0.59116 0.56586 0.4844 0.0
C177 C 0.66766 0.71015 0.43418 0.0
O178 O 0.63197 0.53529 0.44521 0.0
O179 O 0.68892 0.51659 0.43406 0.0
O180 O 0.65067 0.67894 0.48646 0.0
O181 O 0.68867 0.60809 0.47271 0.0
Co182 Co 0.62748 0.61465 0.8198 0.0
O183 O 0.64036 0.55009 0.79928 0.0
O184 O 0.68123 0.60549 0.81898 0.0
C185 C 0.5865 0.67107 0.79869 0.0
O186 O 0.62327 0.68796 0.84209 0.0
Co187 Co 0.5469 0.61943 0.83335 0.0
O188 O 0.56259 0.70755 0.84518 0.0
C189 C 0.59678 0.51179 0.84976 0.0
C190 C 0.67473 0.56338 0.80386 0.0
C191 C 0.5964 0.72283 0.84907 0.0
O192 O 0.6242 0.5395 0.841 0.0
O193 O 0.56355 0.53353 0.84729 0.0
O194 O 0.62151 0.68461 0.79876 0.0
O195 O 0.57772 0.62078 0.81011 0.0
Co196 Co 0.37674 0.39232 0.56625 0.0
O197 O 0.3855 0.4587 0.54536 0.0
O198 O 0.42935 0.40874 0.56463 0.0
C199 C 0.33629 0.33009 0.54651 0.0
O200 O 0.37858 0.3194 0.58862 0.0
Co201 Co 0.29908 0.37396 0.58292 0.0
O202 O 0.32091 0.29388 0.59717 0.0
C203 C 0.34479 0.48999 0.59706 0.0
C204 C 0.42051 0.45029 0.5497 0.0
C205 C 0.35568 0.28375 0.59862 0.0
O206 O 0.3723 0.46618 0.58755 0.0
O207 O 0.3125 0.46349 0.59569 0.0
O208 O 0.37165 0.32177 0.54536 0.0
O209 O 0.32658 0.37872 0.5583 0.0
Co210 Co 0.38607 0.40594 0.21536 0.0
O211 O 0.37299 0.46569 0.23714 0.0
O212 O 0.33287 0.40248 0.21935 0.0
C213 C 0.43492 0.35835 0.23308 0.0
O214 O 0.39047 0.33582 0.19224 0.0
Co215 Co 0.46187 0.42229 0.19607 0.0
O216 O 0.45007 0.33251 0.18409 0.0
C217 C 0.40124 0.51575 0.18362 0.0
C218 C 0.33913 0.44552 0.23423 0.0
C219 C 0.41727 0.30911 0.18266 0.0
O220 O 0.37909 0.48175 0.19456 0.0
O221 O 0.43582 0.50264 0.18325 0.0
O222 O 0.4015 0.33723 0.23544 0.0
O223 O 0.43751 0.41113 0.22154 0.0
H224 H 0.26288 0.35368 0.54088 0.0
H225 H 0.34869 0.21733 0.52362 0.0
H226 H 0.30382 0.15403 0.50183 0.0
H227 H 0.23962 0.13751 0.48764 0.0
H228 H 0.15499 0.27687 0.50486 0.0
H229 H 0.19991 0.33891 0.52643 0.0
C230 C 0.27177 0.30992 0.53244 0.0
C231 C 0.309 0.29008 0.53395 0.0
C232 C 0.24599 0.27443 0.51976 0.0
C233 C 0.32012 0.23359 0.52275 0.0
C234 C 0.29449 0.19744 0.51025 0.0
C235 C 0.23115 0.18166 0.49603 0.0
C236 C 0.19394 0.20226 0.49465 0.0
C237 C 0.25729 0.21749 0.50857 0.0
C238 C 0.18339 0.25962 0.50564 0.0
C239 C 0.20906 0.29523 0.51806 0.0
H240 H 0.98411 0.92835 0.55312 0.0
H241 H 0.90498 0.07951 0.53251 0.0
H242 H 0.94623 0.11728 0.50637 0.0
H243 H 0.00505 0.10709 0.4889 0.0
H244 H 0.08376 0.95517 0.50957 0.0
H245 H 0.04254 0.91786 0.53566 0.0
C246 C 0.9761 0.97008 0.54307 0.0
C247 C 0.94155 1.00123 0.54494 0.0
C248 C 0.99978 0.991 0.52775 0.0
C249 C 0.93146 0.05464 0.53153 0.0
C250 C 0.95499 0.07617 0.51646 0.0
C251 C 0.01294 0.06533 0.49895 0.0
C252 C 0.04747 0.03394 0.49714 0.0
C253 C 0.98915 0.0444 0.51426 0.0
C254 C 0.05737 0.98037 0.51053 0.0
C255 C 0.03385 0.95904 0.52558 0.0
H256 H 0.32685 0.97503 0.76215 0.0
H257 H 0.24967 0.89296 0.71616 0.0
H258 H 0.19805 0.92478 0.73702 0.0
H259 H 0.17495 0.97771 0.7682 0.0
H260 H 0.25303 0.05866 0.81399 0.0
H261 H 0.30418 0.02467 0.79341 0.0
C262 C 0.29874 0.96424 0.75659 0.0
C263 C 0.29214 0.93208 0.73751 0.0
C264 C 0.26935 0.98203 0.76873 0.0
C265 C 0.25553 0.91795 0.73072 0.0
C266 C 0.22602 0.93599 0.74268 0.0
C267 C 0.20318 0.98731 0.77377 0.0
C268 C 0.21009 0.0207 0.79266 0.0
C269 C 0.2326 0.96811 0.76172 0.0
C270 C 0.24685 0.03303 0.79956 0.0
C271 C 0.27616 0.01383 0.78775 0.0
H272 H 0.01897 0.14968 0.79317 0.0
H273 H 0.11026 0.27675 0.77775 0.0
H274 H 0.06853 0.34795 0.75661 0.0
H275 H 0.00571 0.37461 0.7424 0.0
H276 H 0.91478 0.24652 0.75784 0.0
H277 H 0.9566 0.1755 0.77879 0.0
C278 C 0.0297 0.19306 0.78523 0.0
C279 C 0.06767 0.20784 0.7871 0.0
C280 C 0.00556 0.23367 0.77296 0.0
C281 C 0.08113 0.26414 0.77662 0.0
C282 C 0.05728 0.30494 0.76447 0.0
C283 C 0.99513 0.33101 0.75029 0.0
C284 C 0.95714 0.31611 0.74855 0.0
C285 C 0.01941 0.29018 0.76248 0.0
C286 C 0.94388 0.25938 0.75891 0.0
C287 C 0.96777 0.21863 0.77096 0.0
H288 H 0.83126 0.77043 0.52945 0.0
H289 H 0.75131 0.88806 0.56086 0.0
H290 H 0.70116 0.83495 0.54038 0.0
H291 H 0.67989 0.75648 0.51343 0.0
H292 H 0.75888 0.63721 0.48192 0.0
H293 H 0.80959 0.68998 0.50245 0.0
C294 C 0.80284 0.78413 0.53187 0.0
C295 C 0.79505 0.83317 0.54668 0.0
C296 C 0.77402 0.7535 0.51993 0.0
C297 C 0.7581 0.85051 0.54959 0.0
C298 C 0.72938 0.82027 0.53785 0.0
C299 C 0.70821 0.74209 0.51096 0.0
C300 C 0.71563 0.69314 0.49612 0.0
C301 C 0.73702 0.77206 0.52292 0.0
C302 C 0.75245 0.67486 0.49323 0.0
C303 C 0.78142 0.70492 0.505 0.0
H304 H 0.67486 0.98847 0.26848 0.0
H305 H 0.75075 0.06942 0.31532 0.0
H306 H 0.80285 0.04182 0.29461 0.0
H307 H 0.82718 0.99516 0.26312 0.0
H308 H 0.75165 0.91416 0.21613 0.0
H309 H 0.69933 0.94205 0.23677 0.0
C310 C 0.70282 0.99951 0.27422 0.0
C311 C 0.7088 0.03068 0.29351 0.0
C312 C 0.73281 0.98423 0.26207 0.0
C313 C 0.74525 0.04529 0.30059 0.0
C314 C 0.77513 0.02975 0.2887 0.0
C315 C 0.79926 0.98416 0.25729 0.0
C316 C 0.79344 0.95288 0.23802 0.0
C317 C 0.76927 0.9996 0.26937 0.0
C318 C 0.75702 0.93847 0.23085 0.0
C319 C 0.72703 0.95413 0.2427 0.0
H320 H 0.98853 0.84327 0.23804 0.0
H321 H 0.90021 0.71462 0.25683 0.0
H322 H 0.94365 0.65229 0.27959 0.0
H323 H 0.00692 0.63385 0.29421 0.0
H324 H 0.09524 0.76214 0.27523 0.0
H325 H 0.0517 0.82513 0.25274 0.0
C326 C 0.9788 0.80146 0.24707 0.0
C327 C 0.94113 0.78364 0.24567 0.0
C328 C 1.00396 0.76588 0.26023 0.0
C329 C 0.92903 0.72943 0.25755 0.0
C330 C 0.95387 0.69377 0.27063 0.0
C331 C 0.0166 0.67581 0.28523 0.0
C332 C 0.05433 0.69321 0.28645 0.0
C333 C 0.9914 0.71159 0.27214 0.0
C334 C 0.06638 0.74759 0.27462 0.0
C335 C 0.04149 0.78363 0.26169 0.0
H336 H 0.3329 0.76719 0.02273 0.0
H337 H 0.25806 0.89653 0.05394 0.0
H338 H 0.20551 0.84532 0.0351 0.0
H339 H 0.18036 0.76428 1.00971 0.0
H340 H 0.25424 0.63352 0.97846 0.0
H341 H 0.30736 0.68483 0.99721 0.0
C342 C 0.30509 0.78394 0.02544 0.0
C343 C 0.29954 0.83565 0.03977 0.0
C344 C 0.27471 0.75421 1.01446 0.0
C345 C 0.26326 0.85685 0.04304 0.0
C346 C 0.23308 0.82764 0.03223 0.0
C347 C 0.20808 0.74711 1.00694 0.0
C348 C 0.21328 0.69523 0.99268 0.0
C349 C 0.23844 0.77646 0.01788 0.0
C350 C 0.24942 0.67341 0.98936 0.0
C351 C 0.27984 0.7027 1.0001 0.0
H352 H 0.08639 0.49027 1.01278 0.0
H353 H 0.01073 0.60503 0.97319 0.0
H354 H 0.95882 0.56452 0.99231 0.0
H355 H 0.93476 0.49632 0.02012 0.0
H356 H 0.01005 0.38152 0.05987 0.0
H357 H 0.06221 0.42246 0.0409 0.0
C358 C 0.05854 0.5064 1.0083 0.0
C359 C 0.05255 0.55066 0.99149 0.0
C360 C 0.02873 0.48301 0.01944 0.0
C361 C 0.01624 0.57106 0.986 0.0
C362 C 0.98649 0.54791 0.99695 0.0
C363 C 0.96257 0.48027 0.02471 0.0
C364 C 0.9684 0.43578 0.04146 0.0
C365 C 0.9924 0.5039 1.01369 0.0
C366 C 0.0047 0.41568 0.0471 0.0
C367 C 0.03455 0.43904 0.03622 0.0
H368 H 0.2666 0.40396 0.23575 0.0
H369 H 0.34698 0.53974 0.26436 0.0
H370 H 0.30216 0.57665 0.28849 0.0
H371 H 0.23985 0.57203 0.30158 0.0
H372 H 0.1585 0.43865 0.27292 0.0
H373 H 0.20373 0.39906 0.24911 0.0
C374 C 0.27422 0.44182 0.2472 0.0
C375 C 0.31025 0.46897 0.24809 0.0
C376 C 0.24811 0.46307 0.26126 0.0
C377 C 0.31956 0.51782 0.26318 0.0
C378 C 0.29391 0.539 0.2771 0.0
C379 C 0.2321 0.53375 0.29028 0.0
C380 C 0.1958 0.50819 0.28919 0.0
C381 C 0.25812 0.51197 0.27635 0.0
C382 C 0.18624 0.45916 0.27422 0.0
C383 C 0.2121 0.43661 0.2605 0.0
H384 H 0.73988 0.13767 0.98802 0.0
H385 H 0.65967 0.28849 1.00289 0.0
H386 H 0.70586 0.34526 0.0255 0.0
H387 H 0.76945 0.35213 0.04108 0.0
H388 H 0.84902 0.2002 0.026 0.0
H389 H 0.80272 0.14377 1.00368 0.0
C390 C 0.7325 0.18309 0.99615 0.0
C391 C 0.69639 0.20885 0.99371 0.0
C392 C 0.75911 0.21518 1.00923 0.0
C393 C 0.68729 0.26761 1.00445 0.0
C394 C 0.71369 0.30006 0.01743 0.0
C395 C 0.77655 0.30651 0.03298 0.0
C396 C 0.81271 0.28054 0.03523 0.0
C397 C 0.74971 0.27425 0.01998 0.0
C398 C 0.82147 0.22143 0.02457 0.0
C399 C 0.79499 0.18908 1.01174 0.0
H400 H 0.74604 0.6081 0.8006 0.0
H401 H 0.66834 0.45833 0.77718 0.0
H402 H 0.71242 0.41985 0.75273 0.0
H403 H 0.77308 0.42914 0.7374 0.0
H404 H 0.85111 0.57806 0.76093 0.0
H405 H 0.80706 0.61667 0.78545 0.0
C406 C 0.73898 0.56649 0.79033 0.0
C407 C 0.7039 0.53609 0.79087 0.0
C408 C 0.76442 0.54494 0.77598 0.0
C409 C 0.69512 0.48273 0.7772 0.0
C410 C 0.72028 0.46077 0.76308 0.0
C411 C 0.78024 0.47057 0.74772 0.0
C412 C 0.8153 0.5009 0.74715 0.0
C413 C 0.75491 0.49189 0.76214 0.0
C414 C 0.82428 0.55386 0.76092 0.0
C415 C 0.79913 0.57585 0.77507 0.0
H416 H 0.57513 0.01275 1.01052 0.0
H417 H 0.50149 0.10381 0.96443 0.0
H418 H 0.4487 0.07944 0.98531 0.0
H419 H 0.42337 0.03209 0.01697 0.0
H420 H 0.49824 0.9423 0.06278 0.0
H421 H 0.55038 0.96706 0.04186 0.0
C422 C 0.54753 0.02693 1.00491 0.0
C423 C 0.54239 0.05971 0.9858 0.0
C424 C 0.5174 0.01356 0.01711 0.0
C425 C 0.50634 0.07818 0.97898 0.0
C426 C 0.47611 0.06449 0.99098 0.0
C427 C 0.45114 0.01853 0.02245 0.0
C428 C 0.45673 0.98549 0.04154 0.0
C429 C 0.48129 0.03245 1.01016 0.0
C430 C 0.49296 0.96782 0.04824 0.0
C431 C 0.52289 0.98175 0.03623 0.0
H432 H 0.43418 0.25678 0.26078 0.0
H433 H 0.50846 0.38737 0.22966 0.0
H434 H 0.56144 0.33511 0.24839 0.0
H435 H 0.58658 0.25205 0.27398 0.0
H436 H 0.51088 0.1234 0.30496 0.0
H437 H 0.45874 0.17537 0.28604 0.0
C438 C 0.46195 0.27377 0.25802 0.0
C439 C 0.46733 0.32585 0.24382 0.0
C440 C 0.49212 0.24397 0.26893 0.0
C441 C 0.50354 0.34733 0.24051 0.0
C442 C 0.53384 0.31751 0.25124 0.0
C443 C 0.55866 0.23563 0.27661 0.0
C444 C 0.55275 0.18387 0.29092 0.0
C445 C 0.52848 0.26586 0.26558 0.0
C446 C 0.51636 0.16309 0.29409 0.0
C447 C 0.48642 0.19273 0.28324 0.0
H448 H 0.49001 0.85232 0.73662 0.0
H449 H 0.40794 0.70358 0.75082 0.0
H450 H 0.4524 0.64649 0.77408 0.0
H451 H 0.5144 0.63867 0.79072 0.0
H452 H 0.59726 0.78546 0.77639 0.0
H453 H 0.55277 0.84351 0.7531 0.0
C454 C 0.48197 0.80723 0.74473 0.0
C455 C 0.44568 0.78239 0.74197 0.0
C456 C 0.50776 0.77446 0.75822 0.0
C457 C 0.43568 0.72392 0.75263 0.0
C458 C 0.46107 0.6912 0.76601 0.0
C459 C 0.52267 0.68356 0.78258 0.0
C460 C 0.55902 0.70781 0.78534 0.0
C461 C 0.49711 0.71617 0.76902 0.0
C462 C 0.56939 0.76578 0.77456 0.0
C463 C 0.54398 0.79895 0.76119 0.0
H464 H 0.4939 0.42143 0.54921 0.0
H465 H 0.40974 0.55055 0.52126 0.0
H466 H 0.45447 0.59759 0.49834 0.0
H467 H 0.51771 0.60042 0.4856 0.0
H468 H 0.60095 0.46886 0.51351 0.0
H469 H 0.55655 0.4245 0.53675 0.0
C470 C 0.48542 0.46032 0.53825 0.0
C471 C 0.44855 0.48251 0.53704 0.0
C472 C 0.51115 0.48644 0.52486 0.0
C473 C 0.43798 0.53253 0.52257 0.0
C474 C 0.46354 0.55937 0.50938 0.0
C475 C 0.52603 0.56188 0.49671 0.0
C476 C 0.56268 0.53811 0.4977 0.0
C477 C 0.50019 0.53629 0.51023 0.0
C478 C 0.57298 0.48828 0.51231 0.0
C479 C 0.54759 0.4628 0.52571 0.0
H480 H 0.06153 0.77257 0.37869 0.0
H481 H 0.17135 0.74881 0.35698 0.0
H482 H 0.19416 0.83699 0.38062 0.0
H483 H 0.18282 0.92183 0.40726 0.0
H484 H 0.07276 0.94412 0.42888 0.0
H485 H 0.05044 0.85535 0.40554 0.0
C486 C 0.09049 0.78656 0.37902 0.0
C487 C 0.11458 0.75386 0.3659 0.0
C488 C 0.1035 0.83707 0.39274 0.0
C489 C 0.15206 0.77284 0.36681 0.0
C490 C 0.16517 0.82336 0.38037 0.0
C491 C 0.15397 0.90716 0.40699 0.0
C492 C 0.12961 0.94014 0.41993 0.0
C493 C 0.14113 0.8559 0.39341 0.0
C494 C 0.09229 0.92006 0.4192 0.0
C495 C 0.07941 0.86921 0.40579 0.0
H496 H 0.08504 0.24627 0.41208 0.0
H497 H 0.20082 0.29706 0.41998 0.0
H498 H 0.19315 0.38637 0.39463 0.0
H499 H 0.15416 0.45065 0.36978 0.0
H500 H 0.03808 0.40342 0.36211 0.0
H501 H 0.04544 0.31271 0.38738 0.0
C502 C 0.10847 0.27727 0.40839 0.0
C503 C 0.14346 0.2642 0.41798 0.0
C504 C 0.10402 0.32915 0.39355 0.0
C505 C 0.17354 0.30508 0.41283 0.0
C506 C 0.16928 0.35643 0.39824 0.0
C507 C 0.13055 0.42007 0.37345 0.0
C508 C 0.09571 0.43381 0.36389 0.0
C509 C 0.13478 0.36862 0.38834 0.0
C510 C 0.0653 0.39413 0.36917 0.0
C511 C 0.06943 0.34221 0.38371 0.0
H512 H 0.06757 0.28577 0.87674 0.0
H513 H 0.17904 0.24892 0.85901 0.0
H514 H 0.20205 0.33658 0.88255 0.0
H515 H 0.1908 0.42424 0.90786 0.0
H516 H 0.07953 0.46176 0.92579 0.0
H517 H 0.0564 0.37302 0.90253 0.0
C518 C 0.09691 0.29686 0.87798 0.0
C519 C 0.12145 0.26057 0.86601 0.0
C520 C 0.1101 0.34739 0.89163 0.0
C521 C 0.15941 0.27577 0.86796 0.0
C522 C 0.17266 0.32599 0.88145 0.0
C523 C 0.16147 0.41304 0.90681 0.0
C524 C 0.13703 0.45001 0.91864 0.0
C525 C 0.14828 0.36213 0.89334 0.0
C526 C 0.0991 0.43437 0.91693 0.0
C527 C 0.08578 0.38361 0.90359 0.0
H528 H 0.0989 0.76122 0.91464 0.0
H529 H 0.21668 0.79264 0.913 0.0
H530 H 0.20675 0.88137 0.88755 0.0
H531 H 0.16508 0.9505 0.86548 0.0
H532 H 0.04722 0.92121 0.8671 0.0
H533 H 0.05688 0.83153 0.8925 0.0
C534 C 0.12238 0.78777 0.90883 0.0
C535 C 0.15849 0.76974 0.91584 0.0
C536 C 0.11656 0.83907 0.89396 0.0
C537 C 0.18853 0.8048 0.90795 0.0
C538 C 0.18294 0.85574 0.8933 0.0
C539 C 0.14146 0.9242 0.87122 0.0
C540 C 0.10548 0.94277 0.86422 0.0
C541 C 0.14713 0.87308 0.88608 0.0
C542 C 0.07528 0.90827 0.87212 0.0
C543 C 0.08075 0.85692 0.88674 0.0
H544 H 0.85094 0.27479 0.67042 0.0
H545 H 0.96795 0.2379 0.66697 0.0
H546 H 0.95549 0.14712 0.64259 0.0
H547 H 0.91164 0.0762 0.62227 0.0
H548 H 0.7946 0.11194 0.62581 0.0
H549 H 0.80698 0.20431 0.64977 0.0
C550 C 0.87372 0.24687 0.66439 0.0
C551 C 0.91031 0.26375 0.67069 0.0
C552 C 0.86646 0.19411 0.65019 0.0
C553 C 0.9394 0.22665 0.66253 0.0
C554 C 0.93238 0.17442 0.64849 0.0
C555 C 0.88883 0.10445 0.62814 0.0
C556 C 0.85227 0.0866 0.62214 0.0
C557 C 0.89604 0.1576 0.64217 0.0
C558 C 0.82312 0.12395 0.63011 0.0
C559 C 0.83011 0.17703 0.6439 0.0
H560 H 0.85389 0.56615 0.66957 0.0
H561 H 0.969 0.62279 0.67358 0.0
H562 H 0.95651 0.7145 0.64911 0.0
H563 H 0.9125 0.77964 0.62636 0.0
H564 H 0.79777 0.71929 0.62224 0.0
H565 H 0.81071 0.62857 0.64656 0.0
C566 C 0.87625 0.59884 0.66525 0.0
C567 C 0.91229 0.58753 0.67361 0.0
C568 C 0.86902 0.65096 0.65089 0.0
C569 C 0.94092 0.6301 0.66749 0.0
C570 C 0.93383 0.68264 0.65341 0.0
C571 C 0.89042 0.74632 0.63065 0.0
C572 C 0.85414 0.75714 0.62243 0.0
C573 C 0.89796 0.69354 0.6449 0.0
C574 C 0.82594 0.71313 0.62833 0.0
C575 C 0.83324 0.66092 0.64232 0.0
H576 H 0.82185 0.55635 0.12239 0.0
H577 H 0.93361 0.52865 0.10388 0.0
H578 H 0.95508 0.61733 0.12752 0.0
H579 H 0.94254 0.70172 0.15385 0.0
H580 H 0.83078 0.72946 0.17231 0.0
H581 H 0.80918 0.64181 0.14835 0.0
C582 C 0.8509 0.5698 0.1234 0.0
C583 C 0.87598 0.53545 0.11129 0.0
C584 C 0.86321 0.62079 0.13714 0.0
C585 C 0.91355 0.55387 0.11296 0.0
C586 C 0.92594 0.60465 0.12653 0.0
C587 C 0.91344 0.68863 0.15269 0.0
C588 C 0.88843 0.72236 0.16499 0.0
C589 C 0.90107 0.63818 0.13879 0.0
C590 C 0.85078 0.70462 0.16311 0.0
C591 C 0.83833 0.65439 0.14937 0.0
H592 H 0.84286 0.03204 0.16364 0.0
H593 H 0.96056 0.06721 0.16823 0.0
H594 H 0.95395 0.15752 0.14292 0.0
H595 H 0.91493 0.22623 0.11884 0.0
H596 H 0.79728 0.18998 0.1142 0.0
H597 H 0.80391 0.10097 0.13981 0.0
C598 C 0.86703 0.05986 0.15928 0.0
C599 C 0.90212 0.04249 0.16795 0.0
C600 C 0.86318 0.11155 0.14443 0.0
C601 C 0.93313 0.07902 0.16186 0.0
C602 C 0.92945 0.13079 0.14729 0.0
C603 C 0.89078 0.19861 0.12333 0.0
C604 C 0.85569 0.21524 0.11447 0.0
C605 C 0.89465 0.14721 0.1383 0.0
C606 C 0.82471 0.17886 0.12069 0.0
C607 C 0.82839 0.12774 0.13543 0.0
H608 H 0.65851 0.75067 0.87376 0.0
H609 H 0.55003 0.82722 0.85603 0.0
H610 H 0.55782 0.91867 0.88076 0.0
H611 H 0.59502 0.97761 0.90779 0.0
H612 H 0.70385 0.90284 0.9254 0.0
H613 H 0.69609 0.81051 0.90079 0.0
C614 C 0.63677 0.78775 0.87517 0.0
C615 C 0.60373 0.78161 0.86299 0.0
C616 C 0.64122 0.84048 0.88969 0.0
C617 C 0.57573 0.8301 0.86523 0.0
C618 C 0.58007 0.88259 0.87944 0.0
C619 C 0.61685 0.94066 0.90642 0.0
C620 C 0.64986 0.94726 0.91856 0.0
C621 C 0.61252 0.88805 0.89192 0.0
C622 C 0.67808 0.89925 0.91629 0.0
C623 C 0.67376 0.84637 0.90213 0.0
H624 H 0.59666 0.27165 0.91416 0.0
H625 H 0.71434 0.28655 0.90748 0.0
H626 H 0.70464 0.37705 0.88253 0.0
H627 H 0.66293 0.45366 0.86263 0.0
H628 H 0.54525 0.43863 0.86948 0.0
H629 H 0.55499 0.34725 0.89404 0.0
C630 C 0.62023 0.29461 0.90728 0.0
C631 C 0.65617 0.27187 0.91286 0.0
C632 C 0.61454 0.34702 0.89281 0.0
C633 C 0.68628 0.30265 0.90364 0.0
C634 C 0.68081 0.35462 0.88928 0.0
C635 C 0.63937 0.43024 0.86939 0.0
C636 C 0.60342 0.45357 0.86405 0.0
C637 C 0.64507 0.37738 0.88373 0.0
C638 C 0.57333 0.42226 0.87315 0.0
C639 C 0.57881 0.36976 0.8873 0.0
H640 H 0.56708 0.2789 0.38195 0.0
H641 H 0.67471 0.25427 0.35736 0.0
H642 H 0.69959 0.34269 0.38003 0.0
H643 H 0.69121 0.42703 0.40683 0.0
H644 H 0.58378 0.45218 0.43158 0.0
H645 H 0.55872 0.36356 0.40893 0.0
C646 C 0.59596 0.29294 0.38147 0.0
C647 C 0.61886 0.25965 0.36788 0.0
C648 C 0.6103 0.34389 0.39467 0.0
C649 C 0.65629 0.27868 0.36762 0.0
C650 C 0.67064 0.32935 0.38062 0.0
C651 C 0.66233 0.41311 0.40738 0.0
C652 C 0.63955 0.44654 0.421 0.0
C653 C 0.64796 0.36218 0.39424 0.0
C654 C 0.60211 0.42759 0.42132 0.0
C655 C 0.58767 0.37684 0.40832 0.0
H656 H 0.60225 0.74841 0.41454 0.0
H657 H 0.71753 0.80273 0.42187 0.0
H658 H 0.7084 0.89283 0.3967 0.0
H659 H 0.66785 0.95673 0.37225 0.0
H660 H 0.55253 0.90266 0.36497 0.0
H661 H 0.56168 0.81231 0.39006 0.0
C662 C 0.62526 0.78041 0.41079 0.0
C663 C 0.66048 0.76855 0.42016 0.0
C664 C 0.61999 0.83204 0.39602 0.0
C665 C 0.69008 0.81029 0.41489 0.0
C666 C 0.68496 0.86192 0.40042 0.0
C667 C 0.64484 0.9247 0.37598 0.0
C668 C 0.60961 0.93669 0.36664 0.0
C669 C 0.65011 0.87301 0.39072 0.0
C670 C 0.58 0.89495 0.37191 0.0
C671 C 0.58514 0.8432 0.38634 0.0
H672 H 0.35115 0.26436 0.16527 0.0
H673 H 0.46832 0.224 0.16741 0.0
H674 H 0.45891 0.13461 0.14207 0.0
H675 H 0.41746 0.06701 0.11897 0.0
H676 H 0.30032 0.10806 0.11684 0.0
H677 H 0.30984 0.19738 0.1421 0.0
C678 C 0.37458 0.23564 0.16034 0.0
C679 C 0.41034 0.25123 0.16836 0.0
C680 C 0.3691 0.18436 0.14549 0.0
C681 C 0.44039 0.21357 0.16155 0.0
C682 C 0.43511 0.1623 0.14696 0.0
C683 C 0.39408 0.09595 0.12386 0.0
C684 C 0.35827 0.08038 0.1159 0.0
C685 C 0.39961 0.14742 0.13868 0.0
C686 C 0.32828 0.11836 0.12266 0.0
C687 C 0.33362 0.16963 0.13721 0.0
H688 H 0.43795 0.59138 0.15623 0.0
H689 H 0.33013 0.56466 0.18037 0.0
H690 H 0.30521 0.65308 0.15746 0.0
H691 H 0.31399 0.73815 0.13047 0.0
H692 H 0.42214 0.76363 0.10657 0.0
H693 H 0.44667 0.67539 0.12943 0.0
C694 C 0.40899 0.60485 0.15661 0.0
C695 C 0.38607 0.57113 0.17015 0.0
C696 C 0.39476 0.65553 0.14333 0.0
C697 C 0.34856 0.58954 0.17021 0.0
C698 C 0.33422 0.64015 0.15705 0.0
C699 C 0.34291 0.72435 0.13019 0.0
C700 C 0.36607 0.75792 0.11672 0.0
C701 C 0.35705 0.67343 0.14351 0.0
C702 C 0.40353 0.7391 0.11671 0.0
C703 C 0.41768 0.68852 0.12982 0.0
H704 H 0.34288 0.72908 0.66148 0.0
H705 H 0.46097 0.70845 0.65746 0.0
H706 H 0.4517 0.61949 0.63203 0.0
H707 H 0.41037 0.54592 0.61107 0.0
H708 H 0.2923 0.56542 0.61523 0.0
H709 H 0.30144 0.65617 0.64018 0.0
C710 C 0.36661 0.70509 0.65509 0.0
C711 C 0.40255 0.72581 0.66151 0.0
C712 C 0.36118 0.65364 0.64033 0.0
C713 C 0.43291 0.69396 0.65291 0.0
C714 C 0.4277 0.6429 0.63828 0.0
C715 C 0.38659 0.57032 0.61728 0.0
C716 C 0.35072 0.54851 0.61118 0.0
C717 C 0.39198 0.62228 0.63186 0.0
C718 C 0.3203 0.58075 0.61959 0.0
C719 C 0.32546 0.63276 0.63394 0.0
H720 H 0.31675 0.21111 0.62564 0.0
H721 H 0.42679 0.23592 0.60428 0.0
H722 H 0.4496 0.14832 0.62817 0.0
H723 H 0.43803 0.06323 0.65477 0.0
H724 H 0.3276 0.04005 0.67586 0.0
H725 H 0.3055 0.12877 0.65249 0.0
C726 C 0.34577 0.19747 0.62609 0.0
C727 C 0.36991 0.23015 0.613 0.0
C728 C 0.35873 0.14736 0.63992 0.0
C729 C 0.40746 0.21175 0.61408 0.0
C730 C 0.42056 0.16161 0.62777 0.0
C731 C 0.40916 0.07779 0.65439 0.0
C732 C 0.3846 0.04449 0.66714 0.0
C733 C 0.39642 0.12894 0.64075 0.0
C734 C 0.34726 0.06432 0.66629 0.0
C735 C 0.3345 0.11514 0.65286 0.0
loop_
_geom_bond_atom_site_label_1
_geom_bond_atom_site_label_2
_geom_bond_distance
_geom_bond_site_symmetry_2
_ccdc_geom_bond_type
Co0 O1 2.216 . S
Co0 O2 2.091 . S
Co0 O4 2.004 . S
Co0 O10 2.021 . S
Co0 O12 2.137 . S
Co0 O13 2.244 . S
O1 Co0 2.216 . S
O1 C8 1.247 . S
O2 Co0 2.091 . S
O2 C8 1.261 . S
C3 O12 1.247 . S
C3 O13 1.272 . S
O4 Co0 2.004 . S
O4 C9 1.259 . S
Co5 O6 2.061 . S
Co5 O11 2.052 . S
Co5 O13 2.135 . S
O6 Co5 2.061 . S
O6 C9 1.235 . S
C7 O10 1.238 . S
C7 O11 1.241 . S
C8 O1 1.247 . S
C8 O2 1.261 . S
C9 O4 1.259 . S
C9 O6 1.235 . S
O10 Co0 2.021 . S
O10 C7 1.238 . S
O11 Co5 2.052 . S
O11 C7 1.241 . S
O12 Co0 2.137 . S
O12 C3 1.247 . S
O13 Co0 2.244 . S
O13 C3 1.272 . S
O13 Co5 2.135 . S
Co14 O15 2.216 . S
Co14 O16 2.091 . S
Co14 O18 2.004 . S
Co14 O24 2.021 . S
Co14 O26 2.137 . S
Co14 O27 2.244 . S
O15 Co14 2.216 . S
O15 C22 1.247 . S
O16 Co14 2.091 . S
O16 C22 1.261 . S
C17 O26 1.247 . S
C17 O27 1.272 . S
O18 Co14 2.004 . S
O18 C23 1.259 . S
Co19 O20 2.061 . S
Co19 O25 2.052 . S
Co19 O27 2.135 . S
O20 Co19 2.061 . S
O20 C23 1.235 . S
C21 O24 1.238 . S
C21 O25 1.241 . S
C22 O15 1.247 . S
C22 O16 1.261 . S
C23 O18 1.259 . S
C23 O20 1.235 . S
O24 Co14 2.021 . S
O24 C21 1.238 . S
O25 Co19 2.052 . S
O25 C21 1.241 . S
O26 Co14 2.137 . S
O26 C17 1.247 . S
O27 Co14 2.244 . S
O27 C17 1.272 . S
O27 Co19 2.135 . S
Co28 O29 2.216 . S
Co28 O30 2.091 . S
Co28 O32 2.004 . S
Co28 O38 2.021 . S
Co28 O40 2.137 . S
Co28 O41 2.244 . S
O29 Co28 2.216 . S
O29 C36 1.247 . S
O30 Co28 2.091 . S
O30 C36 1.261 . S
C31 O40 1.247 . S
C31 O41 1.272 . S
O32 Co28 2.004 . S
O32 C37 1.259 . S
Co33 O34 2.061 . S
Co33 O39 2.052 . S
Co33 O41 2.135 . S
O34 Co33 2.061 . S
O34 C37 1.235 . S
C35 O38 1.238 . S
C35 O39 1.241 . S
C36 O29 1.247 . S
C36 O30 1.261 . S
C37 O32 1.259 . S
C37 O34 1.235 . S
O38 Co28 2.021 . S
O38 C35 1.238 . S
O39 Co33 2.052 . S
O39 C35 1.241 . S
O40 Co28 2.137 . S
O40 C31 1.247 . S
O41 Co28 2.244 . S
O41 C31 1.272 . S
O41 Co33 2.135 . S
Co42 O43 2.216 . S
Co42 O44 2.091 . S
Co42 O46 2.004 . S
Co42 O52 2.021 . S
Co42 O54 2.137 . S
Co42 O55 2.244 . S
O43 Co42 2.216 . S
O43 C50 1.247 . S
O44 Co42 2.091 . S
O44 C50 1.261 . S
C45 O54 1.247 . S
C45 O55 1.272 . S
O46 Co42 2.004 . S
O46 C51 1.259 . S
Co47 O48 2.061 . S
Co47 O53 2.052 . S
Co47 O55 2.135 . S
O48 Co47 2.061 . S
O48 C51 1.235 . S
C49 O52 1.238 . S
C49 O53 1.241 . S
C50 O43 1.247 . S
C50 O44 1.261 . S
C51 O46 1.259 . S
C51 O48 1.235 . S
O52 Co42 2.021 . S
O52 C49 1.238 . S
O53 Co47 2.052 . S
O53 C49 1.241 . S
O54 Co42 2.137 . S
O54 C45 1.247 . S
O55 Co42 2.244 . S
O55 C45 1.272 . S
O55 Co47 2.135 . S
Co56 O57 2.216 . S
Co56 O58 2.091 . S
Co56 O60 2.004 . S
Co56 O66 2.021 . S
Co56 O68 2.137 . S
Co56 O69 2.244 . S
O57 Co56 2.216 . S
O57 C64 1.247 . S
O58 Co56 2.091 . S
O58 C64 1.261 . S
C59 O68 1.247 . S
C59 O69 1.272 . S
O60 Co56 2.004 . S
O60 C65 1.259 . S
Co61 O62 2.061 . S
Co61 O67 2.052 . S
Co61 O69 2.135 . S
O62 Co61 2.061 . S
O62 C65 1.235 . S
C63 O66 1.238 . S
C63 O67 1.241 . S
C64 O57 1.247 . S
C64 O58 1.261 . S
C65 O60 1.259 . S
C65 O62 1.235 . S
O66 Co56 2.021 . S
O66 C63 1.238 . S
O67 Co61 2.052 . S
O67 C63 1.241 . S
O68 Co56 2.137 . S
O68 C59 1.247 . S
O69 Co56 2.244 . S
O69 C59 1.272 . S
O69 Co61 2.135 . S
Co70 O71 2.216 . S
Co70 O72 2.091 . S
Co70 O74 2.004 . S
Co70 O80 2.021 . S
Co70 O82 2.137 . S
Co70 O83 2.244 . S
O71 Co70 2.216 . S
O71 C78 1.247 . S
O72 Co70 2.091 . S
O72 C78 1.261 . S
C73 O82 1.247 . S
C73 O83 1.272 . S
O74 Co70 2.004 . S
O74 C79 1.259 . S
Co75 O76 2.061 . S
Co75 O81 2.052 . S
Co75 O83 2.135 . S
O76 Co75 2.061 . S
O76 C79 1.235 . S
C77 O80 1.238 . S
C77 O81 1.241 . S
C78 O71 1.247 . S
C78 O72 1.261 . S
C79 O74 1.259 . S
C79 O76 1.235 . S
O80 Co70 2.021 . S
O80 C77 1.238 . S
O81 Co75 2.052 . S
O81 C77 1.241 . S
O82 Co70 2.137 . S
O82 C73 1.247 . S
O83 Co70 2.244 . S
O83 C73 1.272 . S
O83 Co75 2.135 . S
Co84 O85 2.216 . S
Co84 O86 2.091 . S
Co84 O88 2.004 . S
Co84 O94 2.021 . S
Co84 O96 2.137 . S
Co84 O97 2.244 . S
O85 Co84 2.216 . S
O85 C92 1.247 . S
O86 Co84 2.091 . S
O86 C92 1.261 . S
C87 O96 1.247 . S
C87 O97 1.272 . S
O88 Co84 2.004 . S
O88 C93 1.259 . S
Co89 O90 2.061 . S
Co89 O95 2.052 . S
Co89 O97 2.135 . S
O90 Co89 2.061 . S
O90 C93 1.235 . S
C91 O94 1.238 . S
C91 O95 1.241 . S
C92 O85 1.247 . S
C92 O86 1.261 . S
C93 O88 1.259 . S
C93 O90 1.235 . S
O94 Co84 2.021 . S
O94 C91 1.238 . S
O95 Co89 2.052 . S
O95 C91 1.241 . S
O96 Co84 2.137 . S
O96 C87 1.247 . S
O97 Co84 2.244 . S
O97 C87 1.272 . S
O97 Co89 2.135 . S
Co98 O99 2.216 . S
Co98 O100 2.091 . S
Co98 O102 2.004 . S
Co98 O108 2.021 . S
Co98 O110 2.137 . S
Co98 O111 2.244 . S
O99 Co98 2.216 . S
O99 C106 1.247 . S
O100 Co98 2.091 . S
O100 C106 1.261 . S
C101 O110 1.247 . S
C101 O111 1.272 . S
O102 Co98 2.004 . S
O102 C107 1.259 . S
Co103 O104 2.061 . S
Co103 O109 2.052 . S
Co103 O111 2.135 . S
O104 Co103 2.061 . S
O104 C107 1.235 . S
C105 O108 1.238 . S
C105 O109 1.241 . S
C106 O99 1.247 . S
C106 O100 1.261 . S
C107 O102 1.259 . S
C107 O104 1.235 . S
O108 Co98 2.021 . S
O108 C105 1.238 . S
O109 Co103 2.052 . S
O109 C105 1.241 . S
O110 Co98 2.137 . S
O110 C101 1.247 . S
O111 Co98 2.244 . S
O111 C101 1.272 . S
O111 Co103 2.135 . S
Co112 O113 2.216 . S
Co112 O114 2.091 . S
Co112 O116 2.004 . S
Co112 O122 2.021 . S
Co112 O124 2.137 . S
Co112 O125 2.244 . S
O113 Co112 2.216 . S
O113 C120 1.247 . S
O114 Co112 2.091 . S
O114 C120 1.261 . S
C115 O124 1.247 . S
C115 O125 1.272 . S
O116 Co112 2.004 . S
O116 C121 1.259 . S
Co117 O118 2.061 . S
Co117 O123 2.052 . S
Co117 O125 2.135 . S
O118 Co117 2.061 . S
O118 C121 1.235 . S
C119 O122 1.238 . S
C119 O123 1.241 . S
C120 O113 1.247 . S
C120 O114 1.261 . S
C121 O116 1.259 . S
C121 O118 1.235 . S
O122 Co112 2.021 . S
O122 C119 1.238 . S
O123 Co117 2.052 . S
O123 C119 1.241 . S
O124 Co112 2.137 . S
O124 C115 1.247 . S
O125 Co112 2.244 . S
O125 C115 1.272 . S
O125 Co117 2.135 . S
Co126 O127 2.216 . S
Co126 O128 2.091 . S
Co126 O130 2.004 . S
Co126 O136 2.021 . S
Co126 O138 2.137 . S
Co126 O139 2.244 . S
O127 Co126 2.216 . S
O127 C134 1.247 . S
O128 Co126 2.091 . S
O128 C134 1.261 . S
C129 O138 1.247 . S
C129 O139 1.272 . S
O130 Co126 2.004 . S
O130 C135 1.259 . S
Co131 O132 2.061 . S
Co131 O137 2.052 . S
Co131 O139 2.135 . S
O132 Co131 2.061 . S
O132 C135 1.235 . S
C133 O136 1.238 . S
C133 O137 1.241 . S
C134 O127 1.247 . S
C134 O128 1.261 . S
C135 O130 1.259 . S
C135 O132 1.235 . S
O136 Co126 2.021 . S
O136 C133 1.238 . S
O137 Co131 2.052 . S
O137 C133 1.241 . S
O138 Co126 2.137 . S
O138 C129 1.247 . S
O139 Co126 2.244 . S
O139 C129 1.272 . S
O139 Co131 2.135 . S
Co140 O141 2.216 . S
Co140 O142 2.091 . S
Co140 O144 2.004 . S
Co140 O150 2.021 . S
Co140 O152 2.137 . S
Co140 O153 2.244 . S
O141 Co140 2.216 . S
O141 C148 1.247 . S
O142 Co140 2.091 . S
O142 C148 1.261 . S
C143 O152 1.247 . S
C143 O153 1.272 . S
O144 Co140 2.004 . S
O144 C149 1.259 . S
Co145 O146 2.061 . S
Co145 O151 2.052 . S
Co145 O153 2.135 . S
O146 Co145 2.061 . S
O146 C149 1.235 . S
C147 O150 1.238 . S
C147 O151 1.241 . S
C148 O141 1.247 . S
C148 O142 1.261 . S
C149 O144 1.259 . S
C149 O146 1.235 . S
O150 Co140 2.021 . S
O150 C147 1.238 . S
O151 Co145 2.052 . S
O151 C147 1.241 . S
O152 Co140 2.137 . S
O152 C143 1.247 . S
O153 Co140 2.244 . S
O153 C143 1.272 . S
O153 Co145 2.135 . S
Co154 O155 2.216 . S
Co154 O156 2.091 . S
Co154 O158 2.004 . S
Co154 O164 2.021 . S
Co154 O166 2.137 . S
Co154 O167 2.244 . S
O155 Co154 2.216 . S
O155 C162 1.247 . S
O156 Co154 2.091 . S
O156 C162 1.261 . S
C157 O166 1.247 . S
C157 O167 1.272 . S
O158 Co154 2.004 . S
O158 C163 1.259 . S
Co159 O160 2.061 . S
Co159 O165 2.052 . S
Co159 O167 2.135 . S
O160 Co159 2.061 . S
O160 C163 1.235 . S
C161 O164 1.238 . S
C161 O165 1.241 . S
C162 O155 1.247 . S
C162 O156 1.261 . S
C163 O158 1.259 . S
C163 O160 1.235 . S
O164 Co154 2.021 . S
O164 C161 1.238 . S
O165 Co159 2.052 . S
O165 C161 1.241 . S
O166 Co154 2.137 . S
O166 C157 1.247 . S
O167 Co154 2.244 . S
O167 C157 1.272 . S
O167 Co159 2.135 . S
Co168 O169 2.216 . S
Co168 O170 2.091 . S
Co168 O172 2.004 . S
Co168 O178 2.021 . S
Co168 O180 2.137 . S
Co168 O181 2.244 . S
O169 Co168 2.216 . S
O169 C176 1.247 . S
O170 Co168 2.091 . S
O170 C176 1.261 . S
C171 O180 1.247 . S
C171 O181 1.272 . S
O172 Co168 2.004 . S
O172 C177 1.259 . S
Co173 O174 2.061 . S
Co173 O179 2.052 . S
Co173 O181 2.135 . S
O174 Co173 2.061 . S
O174 C177 1.235 . S
C175 O178 1.238 . S
C175 O179 1.241 . S
C176 O169 1.247 . S
C176 O170 1.261 . S
C177 O172 1.259 . S
C177 O174 1.235 . S
O178 Co168 2.021 . S
O178 C175 1.238 . S
O179 Co173 2.052 . S
O179 C175 1.241 . S
O180 Co168 2.137 . S
O180 C171 1.247 . S
O181 Co168 2.244 . S
O181 C171 1.272 . S
O181 Co173 2.135 . S
Co182 O183 2.216 . S
Co182 O184 2.091 . S
Co182 O186 2.004 . S
Co182 O192 2.021 . S
Co182 O194 2.137 . S
Co182 O195 2.244 . S
O183 Co182 2.216 . S
O183 C190 1.247 . S
O184 Co182 2.091 . S
O184 C190 1.261 . S
C185 O194 1.247 . S
C185 O195 1.272 . S
O186 Co182 2.004 . S
O186 C191 1.259 . S
Co187 O188 2.061 . S
Co187 O193 2.052 . S
Co187 O195 2.135 . S
O188 Co187 2.061 . S
O188 C191 1.235 . S
C189 O192 1.238 . S
C189 O193 1.241 . S
C190 O183 1.247 . S
C190 O184 1.261 . S
C191 O186 1.259 . S
C191 O188 1.235 . S
O192 Co182 2.021 . S
O192 C189 1.238 . S
O193 Co187 2.052 . S
O193 C189 1.241 . S
O194 Co182 2.137 . S
O194 C185 1.247 . S
O195 Co182 2.244 . S
O195 C185 1.272 . S
O195 Co187 2.135 . S
Co196 O197 2.216 . S
Co196 O198 2.091 . S
Co196 O200 2.004 . S
Co196 O206 2.021 . S
Co196 O208 2.137 . S
Co196 O209 2.244 . S
O197 Co196 2.216 . S
O197 C204 1.247 . S
O198 Co196 2.091 . S
O198 C204 1.261 . S
C199 O208 1.247 . S
C199 O209 1.272 . S
O200 Co196 2.004 . S
O200 C205 1.259 . S
Co201 O202 2.061 . S
Co201 O207 2.052 . S
Co201 O209 2.135 . S
O202 Co201 2.061 . S
O202 C205 1.235 . S
C203 O206 1.238 . S
C203 O207 1.241 . S
C204 O197 1.247 . S
C204 O198 1.261 . S
C205 O200 1.259 . S
C205 O202 1.235 . S
O206 Co196 2.021 . S
O206 C203 1.238 . S
O207 Co201 2.052 . S
O207 C203 1.241 . S
O208 Co196 2.137 . S
O208 C199 1.247 . S
O209 Co196 2.244 . S
O209 C199 1.272 . S
O209 Co201 2.135 . S
Co210 O211 2.216 . S
Co210 O212 2.091 . S
Co210 O214 2.004 . S
Co210 O220 2.021 . S
Co210 O222 2.137 . S
Co210 O223 2.244 . S
O211 Co210 2.216 . S
O211 C218 1.247 . S
O212 Co210 2.091 . S
O212 C218 1.261 . S
C213 O222 1.247 . S
C213 O223 1.272 . S
O214 Co210 2.004 . S
O214 C219 1.259 . S
Co215 O216 2.061 . S
Co215 O221 2.052 . S
Co215 O223 2.135 . S
O216 Co215 2.061 . S
O216 C219 1.235 . S
C217 O220 1.238 . S
C217 O221 1.241 . S
C218 O211 1.247 . S
C218 O212 1.261 . S
C219 O214 1.259 . S
C219 O216 1.235 . S
O220 Co210 2.021 . S
O220 C217 1.238 . S
O221 Co215 2.052 . S
O221 C217 1.241 . S
O222 Co210 2.137 . S
O222 C213 1.247 . S
O223 Co210 2.244 . S
O223 C213 1.272 . S
O223 Co215 2.135 . S
H224 C230 0.930 . S
H225 C233 0.930 . S
H226 C234 0.930 . S
H227 C235 0.930 . S
H228 C238 0.930 . S
H229 C239 0.930 . S
C230 H224 0.930 . S
C230 C231 1.355 . S
C230 C232 1.415 . S
C231 C230 1.355 . S
C231 C233 1.419 . S
C232 C230 1.415 . S
C232 C237 1.425 . S
C232 C239 1.409 . S
C233 H225 0.930 . S
C233 C231 1.419 . S
C233 C234 1.362 . S
C234 H226 0.930 . S
C234 C233 1.362 . S
C234 C237 1.409 . S
C235 H227 0.930 . S
C235 C236 1.355 . S
C235 C237 1.415 . S
C236 C235 1.355 . S
C236 C238 1.419 . S
C237 C232 1.425 . S
C237 C234 1.409 . S
C237 C235 1.415 . S
C238 H228 0.930 . S
C238 C236 1.419 . S
C238 C239 1.362 . S
C239 H229 0.930 . S
C239 C232 1.409 . S
C239 C238 1.362 . S
H240 C246 0.930 1_455 S
H241 C249 0.930 . S
H242 C250 0.930 . S
H243 C251 0.930 1_655 S
H244 C254 0.930 . S
H245 C255 0.930 . S
C246 H240 0.930 1_655 S
C246 C247 1.355 . S
C246 C248 1.415 1_655 S
C247 C246 1.355 . S
C247 C249 1.419 . S
C248 C246 1.415 1_455 S
C248 C253 1.425 1_465 S
C248 C255 1.409 . S
C249 H241 0.930 . S
C249 C247 1.419 . S
C249 C250 1.362 1_565 S
C250 H242 0.930 . S
C250 C249 1.362 1_545 S
C250 C253 1.409 . S
C251 H243 0.930 1_455 S
C251 C252 1.355 . S
C251 C253 1.415 1_455 S
C252 C251 1.355 . S
C252 C254 1.419 . S
C253 C248 1.425 1_645 S
C253 C250 1.409 . S
C253 C251 1.415 1_655 S
C254 H244 0.930 . S
C254 C252 1.419 . S
C254 C255 1.362 1_545 S
C255 H245 0.930 . S
C255 C248 1.409 . S
C255 C254 1.362 1_565 S
H256 C262 0.930 1_545 S
H257 C265 0.930 . S
H258 C266 0.930 . S
H259 C267 0.930 1_565 S
H260 C270 0.930 . S
H261 C271 0.930 . S
C262 H256 0.930 1_565 S
C262 C263 1.355 . S
C262 C264 1.415 1_565 S
C263 C262 1.355 . S
C263 C265 1.419 . S
C264 C262 1.415 1_545 S
C264 C269 1.425 1_545 S
C264 C271 1.409 . S
C265 H257 0.930 . S
C265 C263 1.419 . S
C265 C266 1.362 . S
C266 H258 0.930 . S
C266 C265 1.362 . S
C266 C269 1.409 . S
C267 H259 0.930 1_545 S
C267 C268 1.355 . S
C267 C269 1.415 1_545 S
C268 C267 1.355 . S
C268 C270 1.419 . S
C269 C264 1.425 1_565 S
C269 C266 1.409 . S
C269 C267 1.415 1_565 S
C270 H260 0.930 . S
C270 C268 1.419 . S
C270 C271 1.362 . S
C271 H261 0.930 . S
C271 C264 1.409 . S
C271 C270 1.362 . S
H272 C278 0.930 . S
H273 C281 0.930 . S
H274 C282 0.930 . S
H275 C283 0.930 . S
H276 C286 0.930 . S
H277 C287 0.930 . S
C278 H272 0.930 . S
C278 C279 1.355 . S
C278 C280 1.415 1_455 S
C279 C278 1.355 . S
C279 C281 1.419 . S
C280 C278 1.415 1_655 S
C280 C285 1.425 1_655 S
C280 C287 1.409 . S
C281 H273 0.930 . S
C281 C279 1.419 . S
C281 C282 1.362 . S
C282 H274 0.930 . S
C282 C281 1.362 . S
C282 C285 1.409 . S
C283 H275 0.930 . S
C283 C284 1.355 . S
C283 C285 1.415 1_655 S
C284 C283 1.355 . S
C284 C286 1.419 . S
C285 C280 1.425 1_455 S
C285 C282 1.409 . S
C285 C283 1.415 1_455 S
C286 H276 0.930 . S
C286 C284 1.419 . S
C286 C287 1.362 . S
C287 H277 0.930 . S
C287 C280 1.409 . S
C287 C286 1.362 . S
H288 C294 0.930 . S
H289 C297 0.930 . S
H290 C298 0.930 . S
H291 C299 0.930 . S
H292 C302 0.930 . S
H293 C303 0.930 . S
C294 H288 0.930 . S
C294 C295 1.355 . S
C294 C296 1.415 . S
C295 C294 1.355 . S
C295 C297 1.419 . S
C296 C294 1.415 . S
C296 C301 1.425 . S
C296 C303 1.409 . S
C297 H289 0.930 . S
C297 C295 1.419 . S
C297 C298 1.362 . S
C298 H290 0.930 . S
C298 C297 1.362 . S
C298 C301 1.409 . S
C299 H291 0.930 . S
C299 C300 1.355 . S
C299 C301 1.415 . S
C300 C299 1.355 . S
C300 C302 1.419 . S
C301 C296 1.425 . S
C301 C298 1.409 . S
C301 C299 1.415 . S
C302 H292 0.930 . S
C302 C300 1.419 . S
C302 C303 1.362 . S
C303 H293 0.930 . S
C303 C296 1.409 . S
C303 C302 1.362 . S
H304 C310 0.930 . S
H305 C313 0.930 . S
H306 C314 0.931 . S
H307 C315 0.930 . S
H308 C318 0.930 . S
H309 C319 0.931 . S
C310 H304 0.930 . S
C310 C311 1.355 . S
C310 C312 1.415 . S
C311 C310 1.355 . S
C311 C313 1.419 . S
C312 C310 1.415 . S
C312 C317 1.425 1_545 S
C312 C319 1.409 1_545 S
C313 H305 0.930 . S
C313 C311 1.419 . S
C313 C314 1.362 . S
C314 H306 0.931 . S
C314 C313 1.362 . S
C314 C317 1.409 1_545 S
C315 H307 0.930 . S
C315 C316 1.355 . S
C315 C317 1.415 . S
C316 C315 1.355 . S
C316 C318 1.419 . S
C317 C312 1.425 1_565 S
C317 C314 1.409 1_565 S
C317 C315 1.415 . S
C318 H308 0.930 . S
C318 C316 1.419 . S
C318 C319 1.362 . S
C319 H309 0.931 . S
C319 C312 1.409 1_565 S
C319 C318 1.362 . S
H320 C326 0.930 . S
H321 C329 0.930 . S
H322 C330 0.930 . S
H323 C331 0.930 . S
H324 C334 0.930 . S
H325 C335 0.930 . S
C326 H320 0.930 . S
C326 C327 1.355 . S
C326 C328 1.415 1_655 S
C327 C326 1.355 . S
C327 C329 1.419 . S
C328 C326 1.415 1_455 S
C328 C333 1.425 1_455 S
C328 C335 1.409 . S
C329 H321 0.930 . S
C329 C327 1.419 . S
C329 C330 1.362 . S
C330 H322 0.930 . S
C330 C329 1.362 . S
C330 C333 1.409 . S
C331 H323 0.930 . S
C331 C332 1.355 . S
C331 C333 1.415 1_455 S
C332 C331 1.355 . S
C332 C334 1.419 . S
C333 C328 1.425 1_655 S
C333 C330 1.409 . S
C333 C331 1.415 1_655 S
C334 H324 0.930 . S
C334 C332 1.419 . S
C334 C335 1.362 . S
C335 H325 0.930 . S
C335 C328 1.409 . S
C335 C334 1.362 . S
H336 C342 0.948 . S
H337 C345 0.930 . S
H338 C346 0.930 . S
H339 C347 0.948 . S
H340 C350 0.930 . S
H341 C351 0.930 . S
C342 H336 0.948 . S
C342 C343 1.355 . S
C342 C344 1.415 1_554 S
C343 C342 1.355 . S
C343 C345 1.419 . S
C344 C342 1.415 1_556 S
C344 C349 1.425 1_556 S
C344 C351 1.409 . S
C345 H337 0.930 . S
C345 C343 1.419 . S
C345 C346 1.362 . S
C346 H338 0.930 . S
C346 C345 1.362 . S
C346 C349 1.409 . S
C347 H339 0.948 . S
C347 C348 1.355 . S
C347 C349 1.415 1_556 S
C348 C347 1.355 . S
C348 C350 1.419 . S
C349 C344 1.425 1_554 S
C349 C346 1.409 . S
C349 C347 1.415 1_554 S
C350 H340 0.930 . S
C350 C348 1.419 . S
C350 C351 1.362 . S
C351 H341 0.930 . S
C351 C344 1.409 . S
C351 C350 1.362 . S
H352 C358 0.930 1_554 S
H353 C361 0.930 . S
H354 C362 0.930 . S
H355 C363 0.930 1_556 S
H356 C366 0.930 . S
H357 C367 0.930 . S
C358 H352 0.930 1_556 S
C358 C359 1.355 . S
C358 C360 1.415 1_556 S
C359 C358 1.355 . S
C359 C361 1.419 . S
C360 C358 1.415 1_554 S
C360 C365 1.425 1_454 S
C360 C367 1.409 . S
C361 H353 0.930 . S
C361 C359 1.419 . S
C361 C362 1.362 1_455 S
C362 H354 0.930 . S
C362 C361 1.362 1_655 S
C362 C365 1.409 . S
C363 H355 0.930 1_554 S
C363 C364 1.355 . S
C363 C365 1.415 1_554 S
C364 C363 1.355 . S
C364 C366 1.419 . S
C365 C360 1.425 1_656 S
C365 C362 1.409 . S
C365 C363 1.415 1_556 S
C366 H356 0.930 . S
C366 C364 1.419 . S
C366 C367 1.362 1_655 S
C367 H357 0.930 . S
C367 C360 1.409 . S
C367 C366 1.362 1_455 S
H368 C374 0.930 . S
H369 C377 0.930 . S
H370 C378 0.930 . S
H371 C379 0.930 . S
H372 C382 0.930 . S
H373 C383 0.930 . S
C374 H368 0.930 . S
C374 C375 1.355 . S
C374 C376 1.415 . S
C375 C374 1.355 . S
C375 C377 1.419 . S
C376 C374 1.415 . S
C376 C381 1.425 . S
C376 C383 1.409 . S
C377 H369 0.930 . S
C377 C375 1.419 . S
C377 C378 1.362 . S
C378 H370 0.930 . S
C378 C377 1.362 . S
C378 C381 1.409 . S
C379 H371 0.930 . S
C379 C380 1.355 . S
C379 C381 1.415 . S
C380 C379 1.355 . S
C380 C382 1.419 . S
C381 C376 1.425 . S
C381 C378 1.409 . S
C381 C379 1.415 . S
C382 H372 0.930 . S
C382 C380 1.419 . S
C382 C383 1.362 . S
C383 H373 0.930 . S
C383 C376 1.409 . S
C383 C382 1.362 . S
H384 C390 0.930 . S
H385 C393 0.930 . S
H386 C394 0.930 . S
H387 C395 0.930 . S
H388 C398 0.930 . S
H389 C399 0.930 . S
C390 H384 0.930 . S
C390 C391 1.355 . S
C390 C392 1.415 . S
C391 C390 1.355 . S
C391 C393 1.419 . S
C392 C390 1.415 . S
C392 C397 1.425 1_556 S
C392 C399 1.409 1_556 S
C393 H385 0.930 . S
C393 C391 1.419 . S
C393 C394 1.362 . S
C394 H386 0.930 . S
C394 C393 1.362 . S
C394 C397 1.409 1_556 S
C395 H387 0.930 . S
C395 C396 1.355 . S
C395 C397 1.415 . S
C396 C395 1.355 . S
C396 C398 1.419 . S
C397 C392 1.425 1_554 S
C397 C394 1.409 1_554 S
C397 C395 1.415 . S
C398 H388 0.930 . S
C398 C396 1.419 . S
C398 C399 1.362 . S
C399 H389 0.930 . S
C399 C392 1.409 1_554 S
C399 C398 1.362 . S
H400 C406 0.930 . S
H401 C409 0.930 . S
H402 C410 0.930 . S
H403 C411 0.930 . S
H404 C414 0.930 . S
H405 C415 0.930 . S
C406 H400 0.930 . S
C406 C407 1.355 . S
C406 C408 1.415 . S
C407 C406 1.355 . S
C407 C409 1.419 . S
C408 C406 1.415 . S
C408 C413 1.425 . S
C408 C415 1.409 . S
C409 H401 0.930 . S
C409 C407 1.419 . S
C409 C410 1.362 . S
C410 H402 0.930 . S
C410 C409 1.362 . S
C410 C413 1.409 . S
C411 H403 0.930 . S
C411 C412 1.355 . S
C411 C413 1.415 . S
C412 C411 1.355 . S
C412 C414 1.419 . S
C413 C408 1.425 . S
C413 C410 1.409 . S
C413 C411 1.415 . S
C414 H404 0.930 . S
C414 C412 1.419 . S
C414 C415 1.362 . S
C415 H405 0.930 . S
C415 C408 1.409 . S
C415 C414 1.362 . S
H416 C422 0.930 1_565 S
H417 C425 0.930 . S
H418 C426 0.930 . S
H419 C427 0.930 1_545 S
H420 C430 0.930 . S
H421 C431 0.930 . S
C422 H416 0.930 1_545 S
C422 C423 1.355 . S
C422 C424 1.415 1_545 S
C423 C422 1.355 . S
C423 C425 1.419 . S
C424 C422 1.415 1_565 S
C424 C429 1.425 1_566 S
C424 C431 1.409 . S
C425 H417 0.930 . S
C425 C423 1.419 . S
C425 C426 1.362 1_556 S
C426 H418 0.930 . S
C426 C425 1.362 1_554 S
C426 C429 1.409 . S
C427 H419 0.930 1_565 S
C427 C428 1.355 . S
C427 C429 1.415 1_565 S
C428 C427 1.355 . S
C428 C430 1.419 . S
C429 C424 1.425 1_544 S
C429 C426 1.409 . S
C429 C427 1.415 1_545 S
C430 H420 0.930 . S
C430 C428 1.419 . S
C430 C431 1.362 1_554 S
C431 H421 0.930 . S
C431 C424 1.409 . S
C431 C430 1.362 1_556 S
H432 C438 0.930 . S
H433 C441 0.930 . S
H434 C442 0.930 . S
H435 C443 0.930 . S
H436 C446 0.930 . S
H437 C447 0.930 . S
C438 H432 0.930 . S
C438 C439 1.355 . S
C438 C440 1.415 . S
C439 C438 1.355 . S
C439 C441 1.419 . S
C440 C438 1.415 . S
C440 C445 1.425 . S
C440 C447 1.409 . S
C441 H433 0.930 . S
C441 C439 1.419 . S
C441 C442 1.362 . S
C442 H434 0.930 . S
C442 C441 1.362 . S
C442 C445 1.409 . S
C443 H435 0.930 . S
C443 C444 1.355 . S
C443 C445 1.415 . S
C444 C443 1.355 . S
C444 C446 1.419 . S
C445 C440 1.425 . S
C445 C442 1.409 . S
C445 C443 1.415 . S
C446 H436 0.930 . S
C446 C444 1.419 . S
C446 C447 1.362 . S
C447 H437 0.930 . S
C447 C440 1.409 . S
C447 C446 1.362 . S
H448 C454 0.930 . S
H449 C457 0.930 . S
H450 C458 0.930 . S
H451 C459 0.930 . S
H452 C462 0.930 . S
H453 C463 0.930 . S
C454 H448 0.930 . S
C454 C455 1.355 . S
C454 C456 1.415 . S
C455 C454 1.355 . S
C455 C457 1.419 . S
C456 C454 1.415 . S
C456 C461 1.425 . S
C456 C463 1.409 . S
C457 H449 0.930 . S
C457 C455 1.419 . S
C457 C458 1.362 . S
C458 H450 0.930 . S
C458 C457 1.362 . S
C458 C461 1.409 . S
C459 H451 0.930 . S
C459 C460 1.355 . S
C459 C461 1.415 . S
C460 C459 1.355 . S
C460 C462 1.419 . S
C461 C456 1.425 . S
C461 C458 1.409 . S
C461 C459 1.415 . S
C462 H452 0.930 . S
C462 C460 1.419 . S
C462 C463 1.362 . S
C463 H453 0.930 . S
C463 C456 1.409 . S
C463 C462 1.362 . S
H464 C470 0.930 . S
H465 C473 0.930 . S
H466 C474 0.930 . S
H467 C475 0.930 . S
H468 C478 0.930 . S
H469 C479 0.930 . S
C470 H464 0.930 . S
C470 C471 1.355 . S
C470 C472 1.415 . S
C471 C470 1.355 . S
C471 C473 1.419 . S
C472 C470 1.415 . S
C472 C477 1.425 . S
C472 C479 1.409 . S
C473 H465 0.930 . S
C473 C471 1.419 . S
C473 C474 1.362 . S
C474 H466 0.930 . S
C474 C473 1.362 . S
C474 C477 1.409 . S
C475 H467 0.930 . S
C475 C476 1.355 . S
C475 C477 1.415 . S
C476 C475 1.355 . S
C476 C478 1.419 . S
C477 C472 1.425 . S
C477 C474 1.409 . S
C477 C475 1.415 . S
C478 H468 0.930 . S
C478 C476 1.419 . S
C478 C479 1.362 . S
C479 H469 0.930 . S
C479 C472 1.409 . S
C479 C478 1.362 . S
H480 C486 0.930 . S
H481 C489 0.930 . S
H482 C490 0.930 . S
H483 C491 0.930 . S
H484 C494 0.930 . S
H485 C495 0.930 . S
C486 H480 0.930 . S
C486 C487 1.355 . S
C486 C488 1.415 . S
C487 C486 1.355 . S
C487 C489 1.419 . S
C488 C486 1.415 . S
C488 C493 1.425 . S
C488 C495 1.409 . S
C489 H481 0.930 . S
C489 C487 1.419 . S
C489 C490 1.362 . S
C490 H482 0.930 . S
C490 C489 1.362 . S
C490 C493 1.409 . S
C491 H483 0.930 . S
C491 C492 1.355 . S
C491 C493 1.415 . S
C492 C491 1.355 . S
C492 C494 1.419 . S
C493 C488 1.425 . S
C493 C490 1.409 . S
C493 C491 1.415 . S
C494 H484 0.930 . S
C494 C492 1.419 . S
C494 C495 1.362 . S
C495 H485 0.930 . S
C495 C488 1.409 . S
C495 C494 1.362 . S
H496 C502 0.930 . S
H497 C505 0.930 . S
H498 C506 0.930 . S
H499 C507 0.930 . S
H500 C510 0.930 . S
H501 C511 0.930 . S
C502 H496 0.930 . S
C502 C503 1.355 . S
C502 C504 1.415 . S
C503 C502 1.355 . S
C503 C505 1.419 . S
C504 C502 1.415 . S
C504 C509 1.425 . S
C504 C511 1.409 . S
C505 H497 0.930 . S
C505 C503 1.419 . S
C505 C506 1.362 . S
C506 H498 0.930 . S
C506 C505 1.362 . S
C506 C509 1.409 . S
C507 H499 0.930 . S
C507 C508 1.355 . S
C507 C509 1.415 . S
C508 C507 1.355 . S
C508 C510 1.419 . S
C509 C504 1.425 . S
C509 C506 1.409 . S
C509 C507 1.415 . S
C510 H500 0.930 . S
C510 C508 1.419 . S
C510 C511 1.362 . S
C511 H501 0.930 . S
C511 C504 1.409 . S
C511 C510 1.362 . S
H512 C518 0.930 . S
H513 C521 0.930 . S
H514 C522 0.930 . S
H515 C523 0.930 . S
H516 C526 0.930 . S
H517 C527 0.930 . S
C518 H512 0.930 . S
C518 C519 1.355 . S
C518 C520 1.415 . S
C519 C518 1.355 . S
C519 C521 1.419 . S
C520 C518 1.415 . S
C520 C525 1.425 . S
C520 C527 1.409 . S
C521 H513 0.930 . S
C521 C519 1.419 . S
C521 C522 1.362 . S
C522 H514 0.930 . S
C522 C521 1.362 . S
C522 C525 1.409 . S
C523 H515 0.930 . S
C523 C524 1.355 . S
C523 C525 1.415 . S
C524 C523 1.355 . S
C524 C526 1.419 . S
C525 C520 1.425 . S
C525 C522 1.409 . S
C525 C523 1.415 . S
C526 H516 0.930 . S
C526 C524 1.419 . S
C526 C527 1.362 . S
C527 H517 0.930 . S
C527 C520 1.409 . S
C527 C526 1.362 . S
H528 C534 0.930 . S
H529 C537 0.930 . S
H530 C538 0.930 . S
H531 C539 0.930 . S
H532 C542 0.930 . S
H533 C543 0.930 . S
C534 H528 0.930 . S
C534 C535 1.355 . S
C534 C536 1.415 . S
C535 C534 1.355 . S
C535 C537 1.419 . S
C536 C534 1.415 . S
C536 C541 1.425 . S
C536 C543 1.409 . S
C537 H529 0.930 . S
C537 C535 1.419 . S
C537 C538 1.362 . S
C538 H530 0.930 . S
C538 C537 1.362 . S
C538 C541 1.409 . S
C539 H531 0.930 . S
C539 C540 1.355 . S
C539 C541 1.415 . S
C540 C539 1.355 . S
C540 C542 1.419 . S
C541 C536 1.425 . S
C541 C538 1.409 . S
C541 C539 1.415 . S
C542 H532 0.930 . S
C542 C540 1.419 . S
C542 C543 1.362 . S
C543 H533 0.930 . S
C543 C536 1.409 . S
C543 C542 1.362 . S
H544 C550 0.930 . S
H545 C553 0.930 . S
H546 C554 0.930 . S
H547 C555 0.930 . S
H548 C558 0.930 1_565 S
H549 C559 0.930 . S
C550 H544 0.930 . S
C550 C551 1.355 . S
C550 C552 1.415 . S
C551 C550 1.355 . S
C551 C553 1.419 . S
C552 C550 1.415 . S
C552 C557 1.425 . S
C552 C559 1.409 . S
C553 H545 0.930 . S
C553 C551 1.419 . S
C553 C554 1.362 . S
C554 H546 0.930 . S
C554 C553 1.362 . S
C554 C557 1.409 . S
C555 H547 0.930 . S
C555 C556 1.355 . S
C555 C557 1.415 . S
C556 C555 1.355 . S
C556 C558 1.419 . S
C557 C552 1.425 . S
C557 C554 1.409 . S
C557 C555 1.415 . S
C558 H548 0.930 1_545 S
C558 C556 1.419 . S
C558 C559 1.362 . S
C559 H549 0.930 . S
C559 C552 1.409 . S
C559 C558 1.362 . S
H560 C566 0.930 . S
H561 C569 0.930 . S
H562 C570 0.930 . S
H563 C571 0.930 . S
H564 C574 0.930 . S
H565 C575 0.930 . S
C566 H560 0.930 . S
C566 C567 1.355 . S
C566 C568 1.415 . S
C567 C566 1.355 . S
C567 C569 1.419 . S
C568 C566 1.415 . S
C568 C573 1.425 . S
C568 C575 1.409 . S
C569 H561 0.930 . S
C569 C567 1.419 . S
C569 C570 1.362 . S
C570 H562 0.930 . S
C570 C569 1.362 . S
C570 C573 1.409 . S
C571 H563 0.930 . S
C571 C572 1.355 . S
C571 C573 1.415 . S
C572 C571 1.355 . S
C572 C574 1.419 . S
C573 C568 1.425 . S
C573 C570 1.409 . S
C573 C571 1.415 . S
C574 H564 0.930 . S
C574 C572 1.419 . S
C574 C575 1.362 . S
C575 H565 0.930 . S
C575 C568 1.409 . S
C575 C574 1.362 . S
H576 C582 0.930 . S
H577 C585 0.930 . S
H578 C586 0.930 . S
H579 C587 0.930 . S
H580 C590 0.930 . S
H581 C591 0.930 . S
C582 H576 0.930 . S
C582 C583 1.355 . S
C582 C584 1.415 . S
C583 C582 1.355 . S
C583 C585 1.419 . S
C584 C582 1.415 . S
C584 C589 1.425 . S
C584 C591 1.409 . S
C585 H577 0.930 . S
C585 C583 1.419 . S
C585 C586 1.362 . S
C586 H578 0.930 . S
C586 C585 1.362 . S
C586 C589 1.409 . S
C587 H579 0.930 . S
C587 C588 1.355 . S
C587 C589 1.415 . S
C588 C587 1.355 . S
C588 C590 1.419 . S
C589 C584 1.425 . S
C589 C586 1.409 . S
C589 C587 1.415 . S
C590 H580 0.930 . S
C590 C588 1.419 . S
C590 C591 1.362 . S
C591 H581 0.930 . S
C591 C584 1.409 . S
C591 C590 1.362 . S
H592 C598 0.930 . S
H593 C601 0.930 . S
H594 C602 0.930 . S
H595 C603 0.930 . S
H596 C606 0.930 . S
H597 C607 0.930 . S
C598 H592 0.930 . S
C598 C599 1.355 . S
C598 C600 1.415 . S
C599 C598 1.355 . S
C599 C601 1.419 . S
C600 C598 1.415 . S
C600 C605 1.425 . S
C600 C607 1.409 . S
C601 H593 0.930 . S
C601 C599 1.419 . S
C601 C602 1.362 . S
C602 H594 0.930 . S
C602 C601 1.362 . S
C602 C605 1.409 . S
C603 H595 0.930 . S
C603 C604 1.355 . S
C603 C605 1.415 . S
C604 C603 1.355 . S
C604 C606 1.419 . S
C605 C600 1.425 . S
C605 C602 1.409 . S
C605 C603 1.415 . S
C606 H596 0.930 . S
C606 C604 1.419 . S
C606 C607 1.362 . S
C607 H597 0.930 . S
C607 C600 1.409 . S
C607 C606 1.362 . S
H608 C614 0.930 . S
H609 C617 0.930 . S
H610 C618 0.930 . S
H611 C619 0.930 . S
H612 C622 0.930 . S
H613 C623 0.930 . S
C614 H608 0.930 . S
C614 C615 1.355 . S
C614 C616 1.415 . S
C615 C614 1.355 . S
C615 C617 1.419 . S
C616 C614 1.415 . S
C616 C621 1.425 . S
C616 C623 1.409 . S
C617 H609 0.930 . S
C617 C615 1.419 . S
C617 C618 1.362 . S
C618 H610 0.930 . S
C618 C617 1.362 . S
C618 C621 1.409 . S
C619 H611 0.930 . S
C619 C620 1.355 . S
C619 C621 1.415 . S
C620 C619 1.355 . S
C620 C622 1.419 . S
C621 C616 1.425 . S
C621 C618 1.409 . S
C621 C619 1.415 . S
C622 H612 0.930 . S
C622 C620 1.419 . S
C622 C623 1.362 . S
C623 H613 0.930 . S
C623 C616 1.409 . S
C623 C622 1.362 . S
H624 C630 0.930 . S
H625 C633 0.930 . S
H626 C634 0.930 . S
H627 C635 0.930 . S
H628 C638 0.930 . S
H629 C639 0.930 . S
C630 H624 0.930 . S
C630 C631 1.355 . S
C630 C632 1.415 . S
C631 C630 1.355 . S
C631 C633 1.419 . S
C632 C630 1.415 . S
C632 C637 1.425 . S
C632 C639 1.409 . S
C633 H625 0.930 . S
C633 C631 1.419 . S
C633 C634 1.362 . S
C634 H626 0.930 . S
C634 C633 1.362 . S
C634 C637 1.409 . S
C635 H627 0.930 . S
C635 C636 1.355 . S
C635 C637 1.415 . S
C636 C635 1.355 . S
C636 C638 1.419 . S
C637 C632 1.425 . S
C637 C634 1.409 . S
C637 C635 1.415 . S
C638 H628 0.930 . S
C638 C636 1.419 . S
C638 C639 1.362 . S
C639 H629 0.930 . S
C639 C632 1.409 . S
C639 C638 1.362 . S
H640 C646 0.930 . S
H641 C649 0.930 . S
H642 C650 0.930 . S
H643 C651 0.930 . S
H644 C654 0.930 . S
H645 C655 0.930 . S
C646 H640 0.930 . S
C646 C647 1.355 . S
C646 C648 1.415 . S
C647 C646 1.355 . S
C647 C649 1.419 . S
C648 C646 1.415 . S
C648 C653 1.425 . S
C648 C655 1.409 . S
C649 H641 0.930 . S
C649 C647 1.419 . S
C649 C650 1.362 . S
C650 H642 0.930 . S
C650 C649 1.362 . S
C650 C653 1.409 . S
C651 H643 0.930 . S
C651 C652 1.355 . S
C651 C653 1.415 . S
C652 C651 1.355 . S
C652 C654 1.419 . S
C653 C648 1.425 . S
C653 C650 1.409 . S
C653 C651 1.415 . S
C654 H644 0.930 . S
C654 C652 1.419 . S
C654 C655 1.362 . S
C655 H645 0.930 . S
C655 C648 1.409 . S
C655 C654 1.362 . S
H656 C662 0.930 . S
H657 C665 0.930 . S
H658 C666 0.930 . S
H659 C667 0.930 . S
H660 C670 0.930 1_545 S
H661 C671 0.930 . S
C662 H656 0.930 . S
C662 C663 1.355 . S
C662 C664 1.415 . S
C663 C662 1.355 . S
C663 C665 1.419 . S
C664 C662 1.415 . S
C664 C669 1.425 . S
C664 C671 1.409 . S
C665 H657 0.930 . S
C665 C663 1.419 . S
C665 C666 1.362 . S
C666 H658 0.930 . S
C666 C665 1.362 . S
C666 C669 1.409 . S
C667 H659 0.930 . S
C667 C668 1.355 . S
C667 C669 1.415 . S
C668 C667 1.355 . S
C668 C670 1.419 . S
C669 C664 1.425 . S
C669 C666 1.409 . S
C669 C667 1.415 . S
C670 H660 0.930 1_565 S
C670 C668 1.419 . S
C670 C671 1.362 . S
C671 H661 0.930 . S
C671 C664 1.409 . S
C671 C670 1.362 . S
H672 C678 0.930 . S
H673 C681 0.930 . S
H674 C682 0.930 . S
H675 C683 0.930 . S
H676 C686 0.930 1_565 S
H677 C687 0.930 . S
C678 H672 0.930 . S
C678 C679 1.355 . S
C678 C680 1.415 . S
C679 C678 1.355 . S
C679 C681 1.419 . S
C680 C678 1.415 . S
C680 C685 1.425 . S
C680 C687 1.409 . S
C681 H673 0.930 . S
C681 C679 1.419 . S
C681 C682 1.362 . S
C682 H674 0.930 . S
C682 C681 1.362 . S
C682 C685 1.409 . S
C683 H675 0.930 . S
C683 C684 1.355 . S
C683 C685 1.415 . S
C684 C683 1.355 . S
C684 C686 1.419 . S
C685 C680 1.425 . S
C685 C682 1.409 . S
C685 C683 1.415 . S
C686 H676 0.930 1_545 S
C686 C684 1.419 . S
C686 C687 1.362 . S
C687 H677 0.930 . S
C687 C680 1.409 . S
C687 C686 1.362 . S
H688 C694 0.930 . S
H689 C697 0.930 . S
H690 C698 0.930 . S
H691 C699 0.930 . S
H692 C702 0.930 . S
H693 C703 0.930 . S
C694 H688 0.930 . S
C694 C695 1.355 . S
C694 C696 1.415 . S
C695 C694 1.355 . S
C695 C697 1.419 . S
C696 C694 1.415 . S
C696 C701 1.425 . S
C696 C703 1.409 . S
C697 H689 0.930 . S
C697 C695 1.419 . S
C697 C698 1.362 . S
C698 H690 0.930 . S
C698 C697 1.362 . S
C698 C701 1.409 . S
C699 H691 0.930 . S
C699 C700 1.355 . S
C699 C701 1.415 . S
C700 C699 1.355 . S
C700 C702 1.419 . S
C701 C696 1.425 . S
C701 C698 1.409 . S
C701 C699 1.415 . S
C702 H692 0.930 . S
C702 C700 1.419 . S
C702 C703 1.362 . S
C703 H693 0.930 . S
C703 C696 1.409 . S
C703 C702 1.362 . S
H704 C710 0.930 . S
H705 C713 0.930 . S
H706 C714 0.930 . S
H707 C715 0.930 . S
H708 C718 0.930 . S
H709 C719 0.930 . S
C710 H704 0.930 . S
C710 C711 1.355 . S
C710 C712 1.415 . S
C711 C710 1.355 . S
C711 C713 1.419 . S
C712 C710 1.415 . S
C712 C717 1.425 . S
C712 C719 1.409 . S
C713 H705 0.930 . S
C713 C711 1.419 . S
C713 C714 1.362 . S
C714 H706 0.930 . S
C714 C713 1.362 . S
C714 C717 1.409 . S
C715 H707 0.930 . S
C715 C716 1.355 . S
C715 C717 1.415 . S
C716 C715 1.355 . S
C716 C718 1.419 . S
C717 C712 1.425 . S
C717 C714 1.409 . S
C717 C715 1.415 . S
C718 H708 0.930 . S
C718 C716 1.419 . S
C718 C719 1.362 . S
C719 H709 0.930 . S
C719 C712 1.409 . S
C719 C718 1.362 . S
H720 C726 0.930 . S
H721 C729 0.930 . S
H722 C730 0.930 . S
H723 C731 0.930 . S
H724 C734 0.930 . S
H725 C735 0.930 . S
C726 H720 0.930 . S
C726 C727 1.355 . S
C726 C728 1.415 . S
C727 C726 1.355 . S
C727 C729 1.419 . S
C728 C726 1.415 . S
C728 C733 1.425 . S
C728 C735 1.409 . S
C729 H721 0.930 . S
C729 C727 1.419 . S
C729 C730 1.362 . S
C730 H722 0.930 . S
C730 C729 1.362 . S
C730 C733 1.409 . S
C731 H723 0.930 . S
C731 C732 1.355 . S
C731 C733 1.415 . S
C732 C731 1.355 . S
C732 C734 1.419 . S
C733 C728 1.425 . S
C733 C730 1.409 . S
C733 C731 1.415 . S
C734 H724 0.930 . S
C734 C732 1.419 . S
C734 C735 1.362 . S
C735 H725 0.930 . S
C735 C728 1.409 . S
C735 C734 1.362 . S
C231 C199 1.479 . S
C236 C3 1.479 . S
C247 C36 1.492 . S
C252 C8 1.492 . S
C263 C162 1.491 . S
C268 C22 1.491 . S
C279 C17 1.478 . S
C284 C101 1.478 . S
C295 C31 1.492 . S
C300 C171 1.492 . S
C311 C134 1.495 . S
C316 C50 1.495 . S
C327 C45 1.478 . S
C332 C73 1.478 . S
C343 C143 1.498 . S
C348 C59 1.498 . S
C359 C64 1.496 . S
C364 C92 1.496 . S
C375 C218 1.494 . S
C380 C78 1.494 . S
C391 C115 1.478 . S
C396 C87 1.478 . S
C407 C190 1.492 . S
C412 C106 1.492 . S
C423 C120 1.490 . S
C428 C148 1.490 . S
C439 C213 1.499 . S
C444 C129 1.499 . S
C455 C157 1.482 . S
C460 C185 1.482 . S
C471 C204 1.492 . S
C476 C176 1.492 . S
C487 C79 1.448 . S
C492 C7 1.447 1_565 S
C503 C9 1.407 . S
C508 C77 1.400 . S
C519 C23 1.425 . S
C524 C63 1.407 . S
C535 C65 1.406 . S
C540 C21 1.397 1_565 S
C551 C107 1.407 . S
C556 C35 1.398 1_545 S
C567 C105 1.395 . S
C572 C37 1.407 . S
C583 C91 1.439 . S
C588 C51 1.436 . S
C599 C49 1.396 1_545 S
C604 C93 1.406 . S
C615 C191 1.410 . S
C620 C119 1.405 1_565 S
C631 C121 1.425 . S
C636 C189 1.408 . S
C647 C135 1.449 . S
C652 C175 1.440 . S
C663 C177 1.408 . S
C668 C133 1.395 1_565 S
C679 C219 1.406 . S
C684 C147 1.396 1_545 S
C695 C217 1.441 . S
C700 C149 1.439 . S
C711 C163 1.406 . S
C716 C203 1.397 . S
C727 C205 1.449 . S
C732 C161 1.441 1_545 S
