# Generated by pormake.
# Topology ure, (4)-cn, num edge types: 1
# Building blocks:
#     Node 0, Type 0, BuildingBlock: ICAMEG_clean_sbu_1, # of connection points: 4
#     Node 1, Type 0, BuildingBlock: ICAMEG_clean_sbu_1, # of connection points: 4
#     Node 2, Type 0, BuildingBlock: ICAMEG_clean_sbu_1, # of connection points: 4
#     Node 3, Type 0, BuildingBlock: ICAMEG_clean_sbu_1, # of connection points: 4
#     Node 4, Type 0, BuildingBlock: ICAMEG_clean_sbu_1, # of connection points: 4
#     Node 5, Type 0, BuildingBlock: ICAMEG_clean_sbu_1, # of connection points: 4
#     Node 6, Type 0, BuildingBlock: ICAMEG_clean_sbu_1, # of connection points: 4
#     Node 7, Type 0, BuildingBlock: ICAMEG_clean_sbu_1, # of connection points: 4
#     Node 8, Type 0, BuildingBlock: ICAMEG_clean_sbu_1, # of connection points: 4
#     Node 9, Type 0, BuildingBlock: ICAMEG_clean_sbu_1, # of connection points: 4
#     Node 10, Type 0, BuildingBlock: ICAMEG_clean_sbu_1, # of connection points: 4
#     Node 11, Type 0, BuildingBlock: ICAMEG_clean_sbu_1, # of connection points: 4
#     Node 12, Type 0, BuildingBlock: ICAMEG_clean_sbu_1, # of connection points: 4
#     Node 13, Type 0, BuildingBlock: ICAMEG_clean_sbu_1, # of connection points: 4
#     Node 14, Type 0, BuildingBlock: ICAMEG_clean_sbu_1, # of connection points: 4
#     Node 15, Type 0, BuildingBlock: ICAMEG_clean_sbu_1, # of connection points: 4
#     Edge 16, Type (0, 0), BuildingBlock: TEMPAE_clean_linker_10, # of connection points: 2
#     Edge 17, Type (0, 0), BuildingBlock: TEMPAE_clean_linker_10, # of connection points: 2
#     Edge 18, Type (0, 0), BuildingBlock: TEMPAE_clean_linker_10, # of connection points: 2
#     Edge 19, Type (0, 0), BuildingBlock: TEMPAE_clean_linker_10, # of connection points: 2
#     Edge 20, Type (0, 0), BuildingBlock: TEMPAE_clean_linker_10, # of connection points: 2
#     Edge 21, Type (0, 0), BuildingBlock: TEMPAE_clean_linker_10, # of connection points: 2
#     Edge 22, Type (0, 0), BuildingBlock: TEMPAE_clean_linker_10, # of connection points: 2
#     Edge 23, Type (0, 0), BuildingBlock: TEMPAE_clean_linker_10, # of connection points: 2
#     Edge 24, Type (0, 0), BuildingBlock: TEMPAE_clean_linker_10, # of connection points: 2
#     Edge 25, Type (0, 0), BuildingBlock: TEMPAE_clean_linker_10, # of connection points: 2
#     Edge 26, Type (0, 0), BuildingBlock: TEMPAE_clean_linker_10, # of connection points: 2
#     Edge 27, Type (0, 0), BuildingBlock: TEMPAE_clean_linker_10, # of connection points: 2
#     Edge 28, Type (0, 0), BuildingBlock: TEMPAE_clean_linker_10, # of connection points: 2
#     Edge 29, Type (0, 0), BuildingBlock: TEMPAE_clean_linker_10, # of connection points: 2
#     Edge 30, Type (0, 0), BuildingBlock: TEMPAE_clean_linker_10, # of connection points: 2
#     Edge 31, Type (0, 0), BuildingBlock: TEMPAE_clean_linker_10, # of connection points: 2
#     Edge 32, Type (0, 0), BuildingBlock: TEMPAE_clean_linker_10, # of connection points: 2
#     Edge 33, Type (0, 0), BuildingBlock: TEMPAE_clean_linker_10, # of connection points: 2
#     Edge 34, Type (0, 0), BuildingBlock: TEMPAE_clean_linker_10, # of connection points: 2
#     Edge 35, Type (0, 0), BuildingBlock: TEMPAE_clean_linker_10, # of connection points: 2
#     Edge 36, Type (0, 0), BuildingBlock: TEMPAE_clean_linker_10, # of connection points: 2
#     Edge 37, Type (0, 0), BuildingBlock: TEMPAE_clean_linker_10, # of connection points: 2
#     Edge 38, Type (0, 0), BuildingBlock: TEMPAE_clean_linker_10, # of connection points: 2
#     Edge 39, Type (0, 0), BuildingBlock: TEMPAE_clean_linker_10, # of connection points: 2
#     Edge 40, Type (0, 0), BuildingBlock: TEMPAE_clean_linker_10, # of connection points: 2
#     Edge 41, Type (0, 0), BuildingBlock: TEMPAE_clean_linker_10, # of connection points: 2
#     Edge 42, Type (0, 0), BuildingBlock: TEMPAE_clean_linker_10, # of connection points: 2
#     Edge 43, Type (0, 0), BuildingBlock: TEMPAE_clean_linker_10, # of connection points: 2
#     Edge 44, Type (0, 0), BuildingBlock: TEMPAE_clean_linker_10, # of connection points: 2
#     Edge 45, Type (0, 0), BuildingBlock: TEMPAE_clean_linker_10, # of connection points: 2
#     Edge 46, Type (0, 0), BuildingBlock: TEMPAE_clean_linker_10, # of connection points: 2
#     Edge 47, Type (0, 0), BuildingBlock: TEMPAE_clean_linker_10, # of connection points: 2
# Relax obj value: 0.298
# Max RMSD: 0.316
# Mean RMSD: 0.229
data_MOF--net-ure--node1-ICAMEG_clean_sbu_1--edge1-TEMPAE_clean_linker_10
_symmetry_space_group_name_H-M    P1
_symmetry_Int_Tables_number       1
_symmetry_cell_setting            triclinic
loop_
_symmetry_equiv_pos_as_xyz
'x, y, z'
_cell_length_a     32.703926
_cell_length_b     34.069026
_cell_length_c     33.025699
_cell_angle_alpha  94.255988
_cell_angle_beta   94.40566
_cell_angle_gamma 98.986931
loop_
_atom_site_label
_atom_site_type_symbol
_atom_site_fract_x
_atom_site_fract_y
_atom_site_fract_z
_atom_type_partial_charge
Co0 Co 0.3099 0.31944 0.2837 0.0
Co1 Co 0.29345 0.21696 0.29178 0.0
O2 O 0.27955 0.26522 0.26975 0.0
C3 C 0.23473 0.36833 0.28801 0.0
O4 O 0.19416 0.36074 0.28859 0.0
C5 C 0.29839 0.20047 0.20291 0.0
O6 O 0.32016 0.23615 0.20232 0.0
O7 O 0.35337 0.23345 0.28544 0.0
O8 O 0.36532 0.30018 0.28258 0.0
H9 H 0.37413 0.14058 0.38485 0.0
H10 H 0.24231 0.30977 0.21658 0.0
O11 O 0.25405 0.33817 0.28666 0.0
H12 H 0.37176 0.32938 0.14863 0.0
H13 H 0.36648 0.45975 0.25073 0.0
H14 H 0.35745 0.36748 0.35844 0.0
H15 H 0.37431 0.33531 0.22325 0.0
H16 H 0.32479 0.39426 0.23706 0.0
O17 O 0.28592 0.18849 0.23612 0.0
H18 H 0.35567 0.20091 0.35592 0.0
H19 H 0.2611 0.12979 0.27476 0.0
H20 H 0.3874 0.4371 0.37553 0.0
H21 H 0.23866 0.30751 0.14189 0.0
H22 H 0.39755 0.48274 0.32113 0.0
H23 H 0.30374 0.31682 0.10719 0.0
O24 O 0.30919 0.31123 0.34395 0.0
H25 H 0.14106 0.19466 0.24521 0.0
H26 H 0.24536 0.18192 0.35737 0.0
H27 H 0.1709 0.16168 0.36562 0.0
H28 H 0.11816 0.16788 0.30918 0.0
H29 H 0.21584 0.21515 0.23859 0.0
H30 H 0.27876 0.06872 0.30255 0.0
H31 H 0.33532 0.07392 0.35821 0.0
O32 O 0.30012 0.24444 0.34733 0.0
C33 C 0.37735 0.2661 0.28224 0.0
C34 C 0.34929 0.13795 0.36068 0.0
C35 C 0.29581 0.09761 0.31443 0.0
N36 N 0.30723 0.16891 0.31382 0.0
C37 C 0.33865 0.172 0.34424 0.0
C38 C 0.28607 0.13229 0.2987 0.0
C39 C 0.32759 0.10055 0.34568 0.0
C40 C 0.27086 0.31583 0.20214 0.0
N41 N 0.30845 0.32348 0.22491 0.0
C42 C 0.26855 0.31383 0.1596 0.0
C43 C 0.30504 0.31893 0.14014 0.0
C44 C 0.34323 0.32621 0.16335 0.0
C45 C 0.34441 0.32869 0.20582 0.0
C46 C 0.3641 0.43966 0.27461 0.0
C47 C 0.35762 0.38712 0.33444 0.0
C48 C 0.34165 0.40118 0.26661 0.0
N49 N 0.33947 0.37451 0.29595 0.0
C50 C 0.37632 0.4267 0.34437 0.0
C51 C 0.38143 0.45253 0.31393 0.0
C52 C 0.30503 0.28005 0.36389 0.0
C53 C 0.16372 0.19194 0.27008 0.0
C54 C 0.22256 0.18524 0.33295 0.0
C55 C 0.18046 0.17347 0.33766 0.0
C56 C 0.15089 0.17692 0.30597 0.0
N57 N 0.23489 0.20019 0.29778 0.0
C58 C 0.2061 0.2035 0.26651 0.0
Co59 Co 1.00736 0.05909 0.54546 0.0
Co60 Co 0.97014 0.95764 0.52955 0.0
O61 O 1.00512 0.00655 0.51611 0.0
C62 C 0.98131 0.08959 0.4672 0.0
O63 O 0.94722 0.06308 0.46216 0.0
C64 C 0.05558 0.93577 0.5207 0.0
O65 O 0.07233 0.97197 0.53554 0.0
O66 O 0.98942 0.96824 0.58943 0.0
O67 O 1.00482 0.03504 0.59817 0.0
H68 H 0.85783 0.88049 0.60068 0.0
H69 H 0.0706 0.04771 0.48806 0.0
O70 O 0.01059 0.08578 0.49359 0.0
H71 H 0.15002 0.08878 0.62148 0.0
H72 H 0.06158 0.20567 0.57915 0.0
H73 H 0.9628 0.09038 0.61261 0.0
H74 H 0.0737 0.08276 0.61439 0.0
H75 H 0.05728 0.1399 0.54116 0.0
O76 O 0.01623 0.92502 0.51955 0.0
H77 H 0.90851 0.93922 0.58953 0.0
H78 H 0.95607 0.87219 0.4956 0.0
H79 H 0.96611 0.15572 0.6514 0.0
H80 H 0.14704 0.05411 0.49349 0.0
H81 H 0.01587 0.21389 0.63484 0.0
H82 H 0.18726 0.07457 0.56064 0.0
O83 O 0.94533 0.05376 0.5398 0.0
H84 H 0.98998 0.93999 0.38065 0.0
H85 H 0.88671 0.93558 0.4822 0.0
H86 H 0.86314 0.91713 0.40947 0.0
H87 H 0.91567 0.91732 0.35871 0.0
H88 H 0.01209 0.95885 0.45325 0.0
H89 H 0.90776 0.81195 0.50774 0.0
H90 H 0.85757 0.81602 0.56009 0.0
O91 O 0.92279 0.98779 0.53809 0.0
C92 C 0.99915 0.00103 0.61219 0.0
C93 C 0.87965 0.87822 0.57793 0.0
C94 C 0.90768 0.83979 0.52577 0.0
N95 N 0.93501 0.90933 0.54171 0.0
C96 C 0.9083 0.91148 0.57132 0.0
C97 C 0.9353 0.87394 0.51936 0.0
C98 C 0.87947 0.84211 0.55508 0.0
C99 C 0.08791 0.05693 0.51733 0.0
N100 N 0.0676 0.06442 0.55101 0.0
C101 C 0.13118 0.06036 0.52024 0.0
C102 C 0.15372 0.07175 0.55793 0.0
C103 C 0.13284 0.07962 0.59209 0.0
C104 C 0.08954 0.0758 0.58802 0.0
C105 C 0.0398 0.18053 0.5867 0.0
C106 C 0.98446 0.11558 0.60512 0.0
C107 C 0.03705 0.14323 0.56511 0.0
N108 N 0.00989 0.11122 0.57468 0.0
C109 C 0.98619 0.15249 0.62721 0.0
C110 C 0.01414 0.18512 0.61793 0.0
C111 C 0.91634 0.02388 0.5394 0.0
C112 C 0.96711 0.93902 0.40273 0.0
C113 C 0.90941 0.93688 0.46 0.0
C114 C 0.8959 0.92623 0.41893 0.0
C115 C 0.92517 0.92668 0.39036 0.0
N116 N 0.95087 0.94731 0.47214 0.0
C117 C 0.97944 0.94951 0.44395 0.0
Co118 Co 0.24845 0.6925 0.82873 0.0
Co119 Co 0.27022 0.79021 0.80606 0.0
O120 O 0.27655 0.73351 0.79693 0.0
C121 C 0.31652 0.65197 0.8607 0.0
O122 O 0.31 0.66535 0.89759 0.0
C123 C 0.2772 0.77656 0.71443 0.0
O124 O 0.26807 0.73767 0.71451 0.0
O125 O 0.20877 0.77471 0.79376 0.0
O126 O 0.19665 0.71798 0.8256 0.0
H127 H 0.20404 0.90377 0.86245 0.0
H128 H 0.28482 0.66981 0.75286 0.0
O129 O 0.29868 0.66497 0.82989 0.0
H130 H 0.14001 0.59968 0.73564 0.0
H131 H 0.21435 0.55561 0.87881 0.0
H132 H 0.20059 0.69721 0.90059 0.0
H133 H 0.1667 0.64318 0.79818 0.0
H134 H 0.2377 0.60256 0.82867 0.0
O135 O 0.27748 0.79903 0.74712 0.0
H136 H 0.21338 0.83352 0.8512 0.0
H137 H 0.31307 0.86662 0.77894 0.0
H138 H 0.17912 0.65158 0.9523 0.0
H139 H 0.25984 0.62609 0.6901 0.0
H140 H 0.18737 0.58043 0.94213 0.0
H141 H 0.18714 0.59037 0.68141 0.0
O142 O 0.27116 0.72527 0.8801 0.0
H143 H 0.41925 0.7829 0.78353 0.0
H144 H 0.32598 0.84121 0.87264 0.0
H145 H 0.40194 0.85605 0.89 0.0
H146 H 0.44895 0.82765 0.84503 0.0
H147 H 0.34335 0.76761 0.76785 0.0
H148 H 0.30465 0.93722 0.7892 0.0
H149 H 0.24992 0.95623 0.83135 0.0
O150 O 0.26334 0.78636 0.86538 0.0
C151 C 0.18422 0.74653 0.8073 0.0
C152 C 0.22799 0.89587 0.84399 0.0
C153 C 0.28442 0.91464 0.80286 0.0
N154 N 0.26362 0.84586 0.81432 0.0
C155 C 0.23339 0.85611 0.83746 0.0
C156 C 0.28892 0.87456 0.79701 0.0
C157 C 0.25373 0.92528 0.82653 0.0
C158 C 0.25292 0.65484 0.74899 0.0
N159 N 0.22692 0.65975 0.77875 0.0
C160 C 0.239 0.63002 0.71346 0.0
C161 C 0.19814 0.61006 0.70855 0.0
C162 C 0.17173 0.61526 0.73897 0.0
C163 C 0.18681 0.6403 0.7741 0.0
C164 C 0.21196 0.58674 0.88401 0.0
C165 C 0.20397 0.66622 0.89569 0.0
C166 C 0.22442 0.6134 0.85544 0.0
N167 N 0.22147 0.65293 0.86205 0.0
C168 C 0.19197 0.64058 0.92526 0.0
C169 C 0.19663 0.60069 0.91957 0.0
C170 C 0.26916 0.76135 0.89098 0.0
C171 C 0.399 0.79592 0.80318 0.0
C172 C 0.34623 0.82833 0.85297 0.0
C173 C 0.38918 0.83705 0.86293 0.0
C174 C 0.41566 0.82089 0.83773 0.0
N175 N 0.33007 0.80398 0.81884 0.0
C176 C 0.35592 0.78761 0.79429 0.0
Co177 Co 0.55565 0.93944 0.06005 0.0
Co178 Co 0.52021 0.97288 0.97158 0.0
O179 O 0.52767 0.97825 0.03193 0.0
C180 C 0.49127 0.96003 0.11681 0.0
O181 O 0.4793 0.98687 0.09409 0.0
C182 C 0.53508 0.05722 0.9493 0.0
O183 O 0.5662 0.04834 0.92947 0.0
O184 O 0.58241 0.98261 0.9719 0.0
O185 O 0.59439 0.9372 0.01556 0.0
H186 H 0.55616 0.92711 0.83253 0.0
H187 H 0.55254 0.02027 0.10166 0.0
O188 O 0.51901 0.93998 0.10624 0.0
H189 H 0.69976 0.00393 0.1158 0.0
H190 H 0.60494 0.87128 0.18075 0.0
H191 H 0.58649 0.86579 0.03079 0.0
H192 H 0.64715 0.95159 0.07827 0.0
H193 H 0.5802 0.92629 0.14688 0.0
O194 O 0.51725 0.03203 0.97191 0.0
H195 H 0.5626 0.93381 0.90766 0.0
H196 H 0.46427 0.00185 0.90787 0.0
H197 H 0.61404 0.8115 0.06352 0.0
H198 H 0.60377 0.07267 0.14045 0.0
H199 H 0.62291 0.81375 0.13909 0.0
H200 H 0.67811 0.06428 0.14824 0.0
O201 O 0.51447 0.89606 0.03112 0.0
H202 H 0.38592 2e-05 0.02297 0.0
H203 H 0.44988 0.91171 0.93061 0.0
H204 H 0.37391 0.8984 0.93573 0.0
H205 H 0.34167 0.94278 0.98186 0.0
H206 H 0.46147 0.01197 0.01758 0.0
H207 H 0.45681 0.99592 0.83277 0.0
H208 H 0.50293 0.95827 0.79454 0.0
O209 O 0.52056 0.91339 0.9681 0.0
C210 C 0.60643 0.96143 0.9895 0.0
C211 C 0.5359 0.94362 0.84883 0.0
C212 C 0.48014 0.98222 0.84896 0.0
N213 N 0.51399 0.96834 0.91226 0.0
C214 C 0.53944 0.94758 0.89141 0.0
C215 C 0.48456 0.98552 0.89153 0.0
C216 C 0.50603 0.9611 0.82754 0.0
C217 C 0.58444 0.016 0.10536 0.0
N218 N 0.59634 0.98205 0.0889 0.0
C219 C 0.61354 0.04607 0.12709 0.0
C220 C 0.65521 0.04152 0.13129 0.0
C221 C 0.66737 0.00747 0.1133 0.0
C222 C 0.63737 0.97793 0.09212 0.0
C223 C 0.60148 0.87011 0.1478 0.0
C224 C 0.59132 0.86763 0.06365 0.0
C225 C 0.58722 0.90109 0.12838 0.0
N226 N 0.58171 0.89936 0.08675 0.0
C227 C 0.6066 0.83657 0.08203 0.0
C228 C 0.61146 0.83778 0.12441 0.0
C229 C 0.5105 0.88728 0.99288 0.0
C230 C 0.39967 0.98048 0.00261 0.0
C231 C 0.43603 0.93103 0.95104 0.0
C232 C 0.39307 0.9234 0.95364 0.0
C233 C 0.37488 0.94834 0.97959 0.0
N234 N 0.46018 0.96269 0.97371 0.0
C235 C 0.44247 0.98716 -0.00067 0.0
Co236 Co 0.30145 0.72337 0.23024 0.0
Co237 Co 0.30779 0.75267 0.33185 0.0
O238 O 0.2831 0.75575 0.27556 0.0
C239 C 0.28289 0.7977 0.18992 0.0
O240 O 0.26866 0.81479 0.22164 0.0
C241 C 0.22016 0.77178 0.34302 0.0
O242 O 0.20987 0.76784 0.30355 0.0
O243 O 0.28621 0.69363 0.32656 0.0
O244 O 0.31046 0.68057 0.26647 0.0
H245 H 0.39324 0.69461 0.43775 0.0
H246 H 0.21858 0.74955 0.22062 0.0
O247 O 0.29459 0.76392 0.19075 0.0
H248 H 0.1905 0.60343 0.19155 0.0
H249 H 0.30159 0.66481 0.08522 0.0
H250 H 0.37056 0.67673 0.22457 0.0
H251 H 0.26198 0.63844 0.20997 0.0
H252 H 0.2754 0.70338 0.14099 0.0
O253 O 0.25538 0.76418 0.357 0.0
H254 H 0.35968 0.69854 0.36921 0.0
H255 H 0.30735 0.79843 0.41281 0.0
H256 H 0.39657 0.63675 0.16998 0.0
H257 H 0.14671 0.71585 0.2018 0.0
H258 H 0.36221 0.63085 0.09956 0.0
H259 H 0.13221 0.64219 0.18706 0.0
O260 O 0.35882 0.75102 0.24477 0.0
H261 H 0.2979 0.89755 0.31995 0.0
H262 H 0.38923 0.80288 0.36199 0.0
H263 H 0.41523 0.87505 0.37247 0.0
H264 H 0.36867 0.92288 0.35321 0.0
H265 H 0.27342 0.82523 0.3093 0.0
H266 H 0.33927 0.79468 0.48206 0.0
H267 H 0.38282 0.74258 0.49501 0.0
O268 O 0.36257 0.74288 0.31123 0.0
C269 C 0.29574 0.66914 0.29894 0.0
C270 C 0.374 0.71713 0.43271 0.0
C271 C 0.34375 0.77332 0.45755 0.0
N272 N 0.33156 0.74866 0.38687 0.0
C273 C 0.35506 0.71965 0.39385 0.0
C274 C 0.32549 0.7751 0.41824 0.0
C275 C 0.36824 0.74414 0.46476 0.0
C276 C 0.21275 0.71767 0.21387 0.0
N277 N 0.24471 0.69626 0.21587 0.0
C278 C 0.17186 0.69864 0.20341 0.0
C279 C 0.16373 0.65732 0.19521 0.0
C280 C 0.1964 0.63556 0.19773 0.0
C281 C 0.23686 0.65562 0.20825 0.0
C282 C 0.31673 0.66718 0.11578 0.0
C283 C 0.35498 0.67391 0.19419 0.0
C284 C 0.30216 0.68909 0.14749 0.0
N285 N 0.32118 0.69211 0.18623 0.0
C286 C 0.37008 0.65142 0.1633 0.0
C287 C 0.35081 0.64812 0.12383 0.0
C288 C 0.37982 0.75093 0.2787 0.0
C289 C 0.3181 0.87693 0.32934 0.0
C290 C 0.36904 0.82344 0.35258 0.0
C291 C 0.38397 0.86432 0.35873 0.0
C292 C 0.35798 0.89116 0.34762 0.0
N293 N 0.32916 0.80963 0.33628 0.0
C294 C 0.30425 0.83584 0.32364 0.0
Co295 Co 0.52783 0.04876 0.47589 0.0
Co296 Co 0.53843 0.95562 0.50194 0.0
O297 O 0.51659 0.00585 0.51188 0.0
C298 C 0.55566 0.12063 0.53292 0.0
O299 O 0.59153 0.12265 0.51717 0.0
C300 C 0.44993 0.92156 0.515 0.0
O301 O 0.43612 0.93869 0.48352 0.0
O302 O 0.50891 0.94732 0.44601 0.0
O303 O 0.52669 0.00925 0.42742 0.0
H304 H 0.60282 0.85549 0.41932 0.0
H305 H 0.45664 0.04619 0.52642 0.0
O306 O 0.52778 0.0899 0.52329 0.0
H307 H 0.39623 0.04472 0.38472 0.0
H308 H 0.51449 0.18122 0.42146 0.0
H309 H 0.58088 0.06117 0.40756 0.0
H310 H 0.47157 0.04787 0.39992 0.0
H311 H 0.49863 0.12712 0.46612 0.0
O312 O 0.48883 0.92598 0.52552 0.0
H313 H 0.57791 0.91931 0.43381 0.0
H314 H 0.54197 0.88397 0.54828 0.0
H315 H 0.59235 0.11201 0.35837 0.0
H316 H 0.38095 0.04361 0.51264 0.0
H317 H 0.56274 0.17386 0.36748 0.0
H318 H 0.35027 0.04287 0.44132 0.0
O319 O 0.58854 0.04921 0.48874 0.0
H320 H 0.55234 0.99394 0.65292 0.0
H321 H 0.62464 0.95054 0.53609 0.0
H322 H 0.66292 0.96479 0.60416 0.0
H323 H 0.62674 0.98663 0.66323 0.0
H324 H 0.51538 0.98001 0.58409 0.0
H325 H 0.56633 0.81965 0.53496 0.0
H326 H 0.59709 0.80511 0.47012 0.0
O327 O 0.58981 0.98375 0.47969 0.0
C328 C 0.51232 0.97232 0.41909 0.0
C329 C 0.58956 0.86151 0.44773 0.0
C330 C 0.56903 0.84138 0.51261 0.0
N331 N 0.55866 0.90547 0.49192 0.0
C332 C 0.57547 0.89764 0.45614 0.0
C333 C 0.5552 0.87782 0.51994 0.0
C334 C 0.5863 0.83325 0.47623 0.0
C335 C 0.4435 0.0461 0.49536 0.0
N336 N 0.46852 0.0473 0.46407 0.0
C337 C 0.40063 0.04455 0.48772 0.0
C338 C 0.38343 0.04411 0.44771 0.0
C339 C 0.40916 0.04522 0.41594 0.0
C340 C 0.45185 0.04685 0.42475 0.0
C341 C 0.52892 0.15482 0.41799 0.0
C342 C 0.56583 0.08718 0.4105 0.0
C343 C 0.52052 0.12429 0.44359 0.0
N344 N 0.53956 0.09131 0.4402 0.0
C345 C 0.57317 0.11616 0.38304 0.0
C346 C 0.55563 0.15065 0.38763 0.0
C347 C 0.60828 0.01986 0.48556 0.0
C348 C 0.56843 0.98441 0.62744 0.0
C349 C 0.60865 0.96012 0.56157 0.0
C350 C 0.6305 0.96806 0.60009 0.0
C351 C 0.61018 0.98031 0.6332 0.0
N352 N 0.56775 0.96444 0.55609 0.0
C353 C 0.54762 0.97636 0.58843 0.0
Co354 Co 0.26917 0.32594 0.74047 0.0
Co355 Co 0.2817 0.27549 0.8243 0.0
O356 O 0.29393 0.28359 0.7671 0.0
C357 C 0.28304 0.27027 0.66705 0.0
O358 O 0.30222 0.24663 0.68862 0.0
C359 C 0.36647 0.24756 0.81857 0.0
O360 O 0.36679 0.25235 0.77951 0.0
O361 O 0.30908 0.33191 0.84001 0.0
O362 O 0.26967 0.35729 0.79422 0.0
H363 H 0.23171 0.31803 0.95825 0.0
H364 H 0.35124 0.30355 0.72185 0.0
O365 O 0.26738 0.29831 0.68441 0.0
H366 H 0.37554 0.45028 0.73905 0.0
H367 H 0.24569 0.41942 0.6323 0.0
H368 H 0.20276 0.37182 0.76237 0.0
H369 H 0.30722 0.41247 0.74913 0.0
H370 H 0.2785 0.36743 0.66366 0.0
O371 O 0.33691 0.25705 0.83841 0.0
H372 H 0.24592 0.32378 0.88649 0.0
H373 H 0.294 0.21483 0.88353 0.0
H374 H 0.17057 0.42512 0.73292 0.0
H375 H 0.42009 0.34016 0.71225 0.0
H376 H 0.19166 0.4491 0.66718 0.0
H377 H 0.4327 0.41422 0.72054 0.0
O378 O 0.2134 0.29562 0.74726 0.0
H379 H 0.26481 0.14061 0.74497 0.0
H380 H 0.20415 0.22474 0.84421 0.0
H381 H 0.16819 0.15667 0.82246 0.0
H382 H 0.1986 0.11389 0.77267 0.0
H383 H 0.29929 0.20895 0.76693 0.0
H384 H 0.28065 0.20814 0.9554 0.0
H385 H 0.24909 0.25989 0.99317 0.0
O386 O 0.22483 0.29195 0.81433 0.0
C387 C 0.29627 0.36161 0.82496 0.0
C388 C 0.24537 0.29523 0.94207 0.0
C389 C 0.2729 0.23359 0.94048 0.0
N390 N 0.27052 0.26958 0.88069 0.0
C391 C 0.2534 0.29828 0.90139 0.0
C392 C 0.28052 0.23764 0.89982 0.0
C393 C 0.25517 0.26262 0.96166 0.0
C394 C 0.35594 0.33558 0.72506 0.0
N395 N 0.32428 0.35551 0.73443 0.0
C396 C 0.3953 0.35627 0.71984 0.0
C397 C 0.40238 0.3978 0.72455 0.0
C398 C 0.37032 0.41803 0.73487 0.0
C399 C 0.33149 0.39632 0.74019 0.0
C400 C 0.23606 0.40912 0.66084 0.0
C401 C 0.2125 0.38225 0.73397 0.0
C402 C 0.25425 0.37933 0.67859 0.0
N403 N 0.2427 0.36646 0.71496 0.0
C404 C 0.19401 0.4124 0.71735 0.0
C405 C 0.20588 0.42585 0.68049 0.0
C406 C 0.20025 0.28874 0.78178 0.0
C407 C 0.25154 0.15875 0.76714 0.0
C408 C 0.21803 0.2063 0.8229 0.0
C409 C 0.19732 0.16775 0.81057 0.0
C410 C 0.21435 0.1438 0.78259 0.0
N411 N 0.2549 0.2207 0.80809 0.0
C412 C 0.2713 0.19751 0.7801 0.0
Co413 Co 0.99326 0.92977 0.9644 0.0
Co414 Co 0.99092 0.02662 0.00459 0.0
O415 O 0.00933 0.97395 0.00701 0.0
C416 C 0.99105 0.88623 0.04284 0.0
O417 O 1.0044 0.9184 0.06762 0.0
C418 C 0.0826 0.04853 0.00799 0.0
O419 O 0.08288 0.02046 0.97858 0.0
O420 O 1.00191 0.03077 0.94592 0.0
O421 O 1.00219 0.96772 0.92272 0.0
H422 H 0.91299 0.1274 0.94449 0.0
H423 H 0.06462 0.93201 0.02778 0.0
O424 O 0.98426 0.88847 0.00465 0.0
H425 H 0.1218 0.90818 0.89623 0.0
H426 H 0.98523 0.79046 0.89744 0.0
H427 H 0.9555 0.92512 0.87841 0.0
H428 H 0.04885 0.91686 0.89842 0.0
H429 H 1.00037 0.84229 0.95408 0.0
O430 O 0.04859 0.05422 0.02192 0.0
H431 H 0.93475 0.0617 0.948 0.0
H432 H 0.00893 0.10247 0.05884 0.0
H433 H 0.94537 0.87562 0.82025 0.0
H434 H 0.13761 0.92324 0.02693 0.0
H435 H 0.9597 0.80784 0.82903 0.0
H436 H 0.16684 0.91107 0.9608 0.0
O437 O 0.93282 0.93601 0.96565 0.0
H438 H 0.02458 0.00394 0.15126 0.0
H439 H 0.91855 0.03806 0.05144 0.0
H440 H 0.90306 0.0329 0.12292 0.0
H441 H 0.95632 0.01579 0.17342 0.0
H442 H 0.0386 0.00893 0.07934 0.0
H443 H 0.9878 0.16877 0.05666 0.0
H444 H 0.93955 0.18165 -0.0008 0.0
O445 O 0.93314 0.00037 0.9876 0.0
C446 C 1.00476 0.00429 0.91752 0.0
C447 C 0.93387 0.12223 0.96985 0.0
C448 C 0.97597 0.14542 0.03272 0.0
N449 N 0.973 0.07821 0.00365 0.0
C450 C 0.94629 0.08501 0.972 0.0
C451 C 0.98787 0.10785 0.03376 0.0
C452 C 0.94884 0.1526 0.00047 0.0
C453 C 0.07644 0.92586 -0.00109 0.0
N454 N 0.05149 0.92342 0.96336 0.0
C455 C 0.11815 0.92133 -0.00141 0.0
C456 C 0.13458 0.91463 0.9615 0.0
C457 C 0.10933 0.91297 0.92529 0.0
C458 C 0.0678 0.91772 0.92681 0.0
C459 C 0.9784 0.81995 0.8932 0.0
C460 C 0.96246 0.89592 0.88328 0.0
C461 C 0.98604 0.84947 0.92566 0.0
N462 N 0.97768 0.88704 0.92069 0.0
C463 C 0.95616 0.86769 0.84986 0.0
C464 C 0.96393 0.82946 0.85498 0.0
C465 C 0.91434 0.96561 0.97494 0.0
C466 C 1.00115 0.01148 0.12956 0.0
C467 C 0.94183 0.03041 0.07316 0.0
C468 C 0.93292 0.02766 0.11364 0.0
C469 C 0.96283 0.01809 0.14197 0.0
N470 N 0.97949 0.02385 0.06121 0.0
C471 C 0.00897 0.01449 0.08882 0.0
Co472 Co 0.81228 0.19544 0.73273 0.0
Co473 Co 0.81186 0.23604 0.83014 0.0
O474 O 0.79191 0.2334 0.77157 0.0
C475 C 0.79634 0.2637 0.68207 0.0
O476 O 0.77879 0.28225 0.71058 0.0
C477 C 0.73453 0.24171 0.87252 0.0
O478 O 0.73899 0.20807 0.88803 0.0
O479 O 0.78573 0.17859 0.82949 0.0
O480 O 0.81524 0.15659 0.77522 0.0
H481 H 0.87266 0.18078 0.95371 0.0
H482 H 0.72943 0.22187 0.71858 0.0
O483 O 0.8104 0.23167 0.68799 0.0
H484 H 0.70252 0.07616 0.68678 0.0
H485 H 0.82768 0.12557 0.59551 0.0
H486 H 0.87851 0.14547 0.74114 0.0
H487 H 0.77256 0.11051 0.71222 0.0
H488 H 0.79603 0.16868 0.64318 0.0
O489 O 0.75828 0.25458 0.84559 0.0
H490 H 0.85044 0.18115 0.88066 0.0
H491 H 0.81228 0.29371 0.90354 0.0
H492 H 0.90954 0.10077 0.69473 0.0
H493 H 0.65886 0.18865 0.69387 0.0
H494 H 0.88403 0.09059 0.6213 0.0
H495 H 0.64494 0.11521 0.67739 0.0
O496 O 0.86909 0.22285 0.74989 0.0
H497 H 0.81019 0.37859 0.80213 0.0
H498 H 0.89464 0.28487 0.85981 0.0
H499 H 0.92366 0.35639 0.86368 0.0
H500 H 0.88047 0.40384 0.83662 0.0
H501 H 0.78255 0.30661 0.79821 0.0
H502 H 0.83554 0.29516 0.97634 0.0
H503 H 0.86581 0.2382 0.00204 0.0
O504 O 0.86772 0.22056 0.81708 0.0
C505 C 0.79391 0.15029 0.80544 0.0
C506 C 0.8598 0.20581 0.94286 0.0
C507 C 0.83872 0.26989 0.95567 0.0
N508 N 0.83012 0.23738 0.88775 0.0
C509 C 0.84697 0.20611 0.90157 0.0
C510 C 0.82573 0.26894 0.91431 0.0
C511 C 0.85578 0.238 0.97001 0.0
C512 C 0.72406 0.19013 0.71114 0.0
N513 N 0.75582 0.16863 0.7154 0.0
C514 C 0.68378 0.17134 0.69737 0.0
C515 C 0.67596 0.13014 0.6882 0.0
C516 C 0.70823 0.10823 0.69342 0.0
C517 C 0.74799 0.128 0.70759 0.0
C518 C 0.83856 0.12942 0.62753 0.0
C519 C 0.86669 0.14073 0.7094 0.0
C520 C 0.82107 0.15409 0.65468 0.0
N521 N 0.83507 0.1594 0.69517 0.0
C522 C 0.88459 0.11552 0.6832 0.0
C523 C 0.87035 0.10988 0.642 0.0
C524 C 0.88761 0.22633 0.78547 0.0
C525 C 0.82898 0.35814 0.81464 0.0
C526 C 0.8762 0.30515 0.84653 0.0
C527 C 0.8927 0.34568 0.84917 0.0
C528 C 0.86857 0.37231 0.8337 0.0
N529 N 0.83666 0.2916 0.82919 0.0
C530 C 0.81352 0.31739 0.81249 0.0
Co531 Co 0.05247 0.55147 0.96581 0.0
Co532 Co 0.05032 0.46165 0.00515 0.0
O533 O 0.03345 0.51509 0.00681 0.0
C534 C 0.04517 0.60746 0.04122 0.0
O535 O 0.03143 0.57829 0.06301 0.0
C536 C 0.95979 0.43856 0.0191 0.0
O537 O 0.94862 0.45692 0.98747 0.0
O538 O 0.02121 0.44905 0.94932 0.0
O539 O 0.0492 0.50499 0.92368 0.0
H540 H 0.10466 0.34548 0.93799 0.0
H541 H 0.97473 0.55595 0.00694 0.0
O542 O 0.05559 0.6001 0.00536 0.0
H543 H 0.93399 0.55707 0.8604 0.0
H544 H 0.07191 0.68024 0.89777 0.0
H545 H 0.10576 0.54453 0.89701 0.0
H546 H 1.0059 0.55217 0.88438 0.0
H547 H 0.04363 0.63519 0.94707 0.0
O548 O 0.99821 0.43928 0.02991 0.0
H549 H 0.08594 0.41292 0.94314 0.0
H550 H 0.04716 0.39655 0.06141 0.0
H551 H 0.12709 0.58613 0.84222 0.0
H552 H 0.90253 0.56078 0.98423 0.0
H553 H 0.11152 0.65505 0.84329 0.0
H554 H 0.8816 0.56146 0.91044 0.0
O555 O 0.11084 0.54798 0.98538 0.0
H556 H 0.06383 0.51855 0.15122 0.0
H557 H 0.13345 0.45232 0.04471 0.0
H558 H 0.17059 0.47198 0.11273 0.0
H559 H 0.13578 0.50539 0.16659 0.0
H560 H 0.02799 0.49879 0.0825 0.0
H561 H 0.06516 0.3288 0.05743 0.0
H562 H 0.09426 0.3029 0.99542 0.0
O563 O 0.10439 0.48171 0.98179 0.0
C564 C 0.02841 0.46983 0.91939 0.0
C565 C 0.09208 0.35646 0.96521 0.0
C566 C 0.06985 0.34708 0.03222 0.0
N567 N 0.0656 0.40875 0.0026 0.0
C568 C 0.0815 0.39466 0.96834 0.0
C569 C 0.05958 0.38543 0.03425 0.0
C570 C 0.08621 0.33257 0.99743 0.0
C571 C 0.96636 0.55689 0.97492 0.0
N572 N 0.99523 0.55508 0.94735 0.0
C573 C 0.92517 0.55935 0.96215 0.0
C574 C 0.91343 0.55969 0.92075 0.0
C575 C 0.94281 0.55732 0.8927 0.0
C576 C 0.98368 0.5548 0.90658 0.0
C577 C 0.07799 0.64994 0.89652 0.0
C578 C 0.09651 0.57356 0.89648 0.0
C579 C 0.06325 0.62455 0.92531 0.0
N580 N 0.07296 0.5869 0.92545 0.0
C581 C 0.10927 0.59723 0.86555 0.0
C582 C 0.10042 0.63587 0.86603 0.0
C583 C 0.12672 0.51624 0.98699 0.0
C584 C 0.07935 0.50405 0.128 0.0
C585 C 0.11809 0.46696 0.06789 0.0
C586 C 0.13926 0.47792 0.10642 0.0
C587 C 0.11972 0.49666 0.13661 0.0
N588 N 0.07864 0.47469 0.05953 0.0
C589 C 0.05919 0.49277 0.08907 0.0
Co590 Co 0.75964 0.81109 0.22045 0.0
Co591 Co 0.76999 0.76735 0.30891 0.0
O592 O 0.78136 0.77042 0.25126 0.0
C593 C 0.76185 0.74238 0.15671 0.0
O594 O 0.77963 0.72138 0.18253 0.0
C595 C 0.85279 0.75623 0.34705 0.0
O596 O 0.85448 0.79048 0.36868 0.0
O597 O 0.8005 0.82331 0.32083 0.0
O598 O 0.76614 0.84885 0.27064 0.0
H599 H 0.73012 0.82128 0.44347 0.0
H600 H 0.83598 0.77818 0.19887 0.0
O601 O 0.75203 0.77585 0.1682 0.0
H602 H 0.87572 0.9242 0.20723 0.0
H603 H 0.73685 0.88918 0.09927 0.0
H604 H 0.70257 0.86837 0.23952 0.0
H605 H 0.80539 0.89404 0.22095 0.0
H606 H 0.76618 0.83881 0.13678 0.0
O607 O 0.82286 0.74438 0.3195 0.0
H608 H 0.74259 0.82261 0.37084 0.0
H609 H 0.7762 0.70707 0.36983 0.0
H610 H 0.67589 0.92159 0.2042 0.0
H611 H 0.9063 0.80707 0.18425 0.0
H612 H 0.69279 0.93195 0.13344 0.0
H613 H 0.92676 0.88068 0.18833 0.0
O614 O 0.70298 0.78774 0.23213 0.0
H615 H 0.74836 0.62761 0.24133 0.0
H616 H 0.68803 0.72347 0.32834 0.0
H617 H 0.64828 0.65625 0.30882 0.0
H618 H 0.6784 0.60774 0.26504 0.0
H619 H 0.78684 0.69541 0.26108 0.0
H620 H 0.76422 0.70455 0.44249 0.0
H621 H 0.74096 0.76194 0.47977 0.0
O622 O 0.71554 0.78815 0.2997 0.0
C623 C 0.7904 0.85293 0.30316 0.0
C624 C 0.74026 0.79609 0.42755 0.0
C625 C 0.75942 0.73058 0.427 0.0
N626 N 0.76013 0.76499 0.36607 0.0
C627 C 0.74737 0.79667 0.38641 0.0
C628 C 0.76621 0.73222 0.38587 0.0
C629 C 0.74636 0.76279 0.44791 0.0
C630 C 0.84397 0.81007 0.19985 0.0
N631 N 0.81569 0.8341 0.20933 0.0
C632 C 0.88418 0.82637 0.19191 0.0
C633 C 0.89567 0.86766 0.19429 0.0
C634 C 0.86705 0.89207 0.20478 0.0
C635 C 0.82711 0.8747 0.21238 0.0
C636 C 0.72978 0.88522 0.13024 0.0
C637 C 0.7109 0.87327 0.20906 0.0
C638 C 0.74572 0.85625 0.15149 0.0
N639 N 0.7364 0.8507 0.19055 0.0
C640 C 0.69549 0.90334 0.18914 0.0
C641 C 0.70494 0.90917 0.14942 0.0
C642 C 0.69055 0.78559 0.26755 0.0
C643 C 0.7349 0.64847 0.26045 0.0
C644 C 0.70139 0.70263 0.30917 0.0
C645 C 0.67873 0.66454 0.29832 0.0
C646 C 0.69565 0.63734 0.27375 0.0
N647 N 0.73978 0.71346 0.29579 0.0
C648 C 0.7566 0.68688 0.27181 0.0
Co649 Co 0.04033 0.44697 0.55754 0.0
Co650 Co 1.00864 0.46438 0.4591 0.0
O651 O 0.01032 0.4761 0.51882 0.0
C652 C 0.9805 0.42199 0.61687 0.0
O653 O 0.98068 0.3851 0.60232 0.0
C654 C 1.00838 0.55405 0.47197 0.0
O655 O 0.01255 0.55348 0.51173 0.0
O656 O 0.07106 0.47118 0.46243 0.0
O657 O 0.08471 0.44269 0.51998 0.0
H658 H 0.04885 0.3955 0.33174 0.0
H659 H 0.01638 0.52339 0.5872 0.0
O660 O 0.99736 0.45078 0.59783 0.0
H661 H 0.16916 0.54416 0.61131 0.0
H662 H 0.09896 0.4172 0.69576 0.0
H663 H 0.07846 0.37374 0.5489 0.0
H664 H 0.13033 0.47922 0.58182 0.0
H665 H 0.06665 0.45742 0.64747 0.0
O666 O 0.00983 0.52261 0.44887 0.0
H667 H 0.04998 0.41167 0.40584 0.0
H668 H 0.96532 0.49258 0.38612 0.0
H669 H 0.11213 0.33321 0.59605 0.0
H670 H 0.0538 0.58863 0.61762 0.0
H671 H 0.12186 0.35444 0.6702 0.0
H672 H 0.13074 0.59954 0.62938 0.0
O673 O 1.00849 0.39561 0.53144 0.0
H674 H 0.86932 0.49659 0.49435 0.0
H675 H 0.94082 0.40474 0.41416 0.0
H676 H 0.86403 0.39501 0.4084 0.0
H677 H 0.82791 0.44102 0.44853 0.0
H678 H 0.94545 0.50541 0.49918 0.0
H679 H 0.96377 0.47764 0.3118 0.0
H680 H 1.00546 0.42853 0.28414 0.0
O681 O 1.00596 0.406 0.46519 0.0
C682 C 0.09543 0.45573 0.48654 0.0
C683 C 0.03044 0.41686 0.34342 0.0
C684 C 0.98277 0.46302 0.33223 0.0
N685 N 1.00755 0.45285 0.40042 0.0
C686 C 0.03088 0.42609 0.38538 0.0
C687 C 0.98396 0.47151 0.37438 0.0
C688 C 1.00613 0.43544 0.31673 0.0
C689 C 0.04987 0.52777 0.59251 0.0
N690 N 0.07117 0.4976 0.5822 0.0
C691 C 0.07089 0.56482 0.60968 0.0
C692 C 0.11408 0.5709 0.6163 0.0
C693 C 0.13562 0.53991 0.60603 0.0
C694 C 0.11351 0.50325 0.58895 0.0
C695 C 0.09476 0.4075 0.66357 0.0
C696 C 0.08306 0.38351 0.58104 0.0
C697 C 0.07635 0.43014 0.63605 0.0
N698 N 0.06996 0.41768 0.5954 0.0
C699 C 0.10208 0.36036 0.60762 0.0
C700 C 0.10756 0.3723 0.6492 0.0
C701 C 1.0017 0.38301 0.49384 0.0
C702 C 0.88475 0.47648 0.47633 0.0
C703 C 0.92532 0.42517 0.43155 0.0
C704 C 0.88187 0.41934 0.42825 0.0
C705 C 0.86154 0.44526 0.45075 0.0
N706 N 0.94802 0.45653 0.45588 0.0
C707 C 0.92812 0.48156 0.47866 0.0
Co708 Co 0.52418 0.57011 0.04996 0.0
Co709 Co 0.49953 0.46756 0.03573 0.0
O710 O 0.52767 0.5189 0.02055 0.0
C711 C 0.49623 0.59914 0.97068 0.0
O712 O 0.46185 0.57308 0.9673 0.0
C713 C 0.57091 0.41951 0.03668 0.0
O714 O 0.56664 0.41274 0.07488 0.0
O715 O 0.52386 0.48021 0.09406 0.0
O716 O 0.52427 0.54621 0.1031 0.0
H717 H 0.4161 0.37918 0.12425 0.0
H718 H 0.59019 0.56319 0.99456 0.0
O719 O 0.52527 0.59691 0.99795 0.0
H720 H 0.66433 0.61968 0.12677 0.0
H721 H 0.56001 0.71928 0.08133 0.0
H722 H 0.47499 0.59573 0.11619 0.0
H723 H 0.58789 0.60317 0.11899 0.0
H724 H 0.56481 0.6545 0.04521 0.0
O725 O 0.54904 0.44248 0.01921 0.0
H726 H 0.45004 0.44273 0.10303 0.0
H727 H 0.48975 0.38263 -0.00045 0.0
H728 H 0.4696 0.66001 0.15341 0.0
H729 H 0.66674 0.57986 0.0007 0.0
H730 H 0.5121 0.72234 0.13586 0.0
H731 H 0.7043 0.60848 0.06714 0.0
O732 O 0.46208 0.55752 0.04342 0.0
H733 H 0.50583 0.44909 0.88455 0.0
H734 H 0.41395 0.43658 0.99614 0.0
H735 H 0.3855 0.41259 0.92573 0.0
H736 H 0.43271 0.41631 0.87004 0.0
H737 H 0.53282 0.47331 0.95509 0.0
H738 H 0.45559 0.31798 0.0194 0.0
H739 H 0.41835 0.31584 0.08225 0.0
O740 O 0.44887 0.4915 0.04946 0.0
C741 C 0.52686 0.51274 0.117 0.0
C742 C 0.43205 0.37941 0.0968 0.0
C743 C 0.45437 0.34521 0.03803 0.0
N744 N 0.47229 0.41643 0.05039 0.0
C745 C 0.45155 0.41546 0.08472 0.0
C746 C 0.47378 0.3819 0.02701 0.0
C747 C 0.43345 0.34403 0.07326 0.0
C748 C 0.60634 0.57539 0.02365 0.0
N749 N 0.58454 0.58187 0.05652 0.0
C750 C 0.64968 0.5848 0.02692 0.0
C751 C 0.67075 0.60083 0.06422 0.0
C752 C 0.64835 0.60706 0.09769 0.0
C753 C 0.60504 0.59727 0.09325 0.0
C754 C 0.54125 0.69231 0.0892 0.0
C755 C 0.49376 0.62271 0.1085 0.0
C756 C 0.54364 0.65552 0.06867 0.0
N757 N 0.52029 0.62123 0.0786 0.0
C758 C 0.49047 0.65903 0.12961 0.0
C759 C 0.51438 0.69401 0.11981 0.0
C760 C 0.43702 0.52546 0.04717 0.0
C761 C 0.48541 0.44646 0.90883 0.0
C762 C 0.43405 0.43992 0.9717 0.0
C763 C 0.41784 0.42601 0.93196 0.0
C764 C 0.4441 0.42846 0.90063 0.0
N765 N 0.47527 0.45541 0.97987 0.0
C766 C 0.50047 0.46012 0.94885 0.0
Co767 Co 0.81589 0.80306 0.79196 0.0
Co768 Co 0.78654 0.70195 0.77572 0.0
O769 O 0.78347 0.75599 0.76024 0.0
C770 C 0.75252 0.85562 0.80319 0.0
O771 O 0.75284 0.84649 0.84111 0.0
C772 C 0.79573 0.6951 0.68649 0.0
O773 O 0.82066 0.72952 0.68975 0.0
O774 O 0.84756 0.71209 0.7735 0.0
O775 O 0.86319 0.77328 0.80661 0.0
H776 H 0.84654 0.60079 0.85492 0.0
H777 H 0.78503 0.81064 0.70625 0.0
O778 O 0.77095 0.836 0.77762 0.0
H779 H 0.93796 0.83976 0.71067 0.0
H780 H 0.87148 0.94943 0.81488 0.0
H781 H 0.85278 0.82211 0.87812 0.0
H782 H 0.9035 0.82682 0.77302 0.0
H783 H 0.84341 0.88715 0.77372 0.0
O784 O 0.77986 0.68115 0.71741 0.0
H785 H 0.84004 0.66839 0.83611 0.0
H786 H 0.7417 0.62039 0.74595 0.0
H787 H 0.87399 0.88479 0.92157 0.0
H788 H 0.8183 0.82423 0.64294 0.0
H789 H 0.88481 0.94928 0.88934 0.0
H790 H 0.89556 0.83769 0.64506 0.0
O791 O 0.78914 0.78564 0.84154 0.0
H792 H 0.63974 0.70503 0.7206 0.0
H793 H 0.72813 0.66665 0.83381 0.0
H794 H 0.65204 0.65542 0.83584 0.0
H795 H 0.60725 0.67448 0.7788 0.0
H796 H 0.71606 0.71645 0.72029 0.0
H797 H 0.74734 0.55223 0.76361 0.0
H798 H 0.79997 0.54211 0.81857 0.0
O799 O 0.79266 0.72044 0.83511 0.0
C800 C 0.87356 0.74099 0.79134 0.0
C801 C 0.82336 0.60481 0.83105 0.0
C802 C 0.76773 0.57756 0.77976 0.0
N803 N 0.79027 0.64838 0.79024 0.0
C804 C 0.81946 0.64303 0.82034 0.0
C805 C 0.76473 0.61623 0.76985 0.0
C806 C 0.79726 0.57191 0.8106 0.0
C807 C 0.81852 0.81763 0.70741 0.0
N808 N 0.84228 0.81777 0.74331 0.0
C809 C 0.83719 0.82507 0.67147 0.0
C810 C 0.88044 0.83275 0.67258 0.0
C811 C 0.90437 0.8337 0.70942 0.0
C812 C 0.88466 0.82622 0.74465 0.0
C813 C 0.86625 0.92179 0.82922 0.0
C814 C 0.85558 0.84999 0.86425 0.0
C815 C 0.8516 0.88603 0.80582 0.0
N816 N 0.84607 0.85063 0.82336 0.0
C817 C 0.86776 0.88552 0.88904 0.0
C818 C 0.87325 0.92161 0.87119 0.0
C819 C 0.78756 0.75187 0.85624 0.0
C820 C 0.65891 0.69666 0.74568 0.0
C821 C 0.70894 0.67554 0.80921 0.0
C822 C 0.66582 0.66887 0.81037 0.0
C823 C 0.64071 0.67953 0.77834 0.0
N824 N 0.72658 0.6924 0.77711 0.0
C825 C 0.70215 0.70299 0.74564 0.0
Co826 Co 0.7441 0.18943 0.30205 0.0
Co827 Co 0.77344 0.29175 0.30161 0.0
O828 O 0.77844 0.23639 0.28356 0.0
C829 C 0.80712 0.1439 0.33626 0.0
O830 O 0.7975 0.15521 0.37268 0.0
C831 C 0.77572 0.29348 0.21012 0.0
O832 O 0.75436 0.2573 0.20354 0.0
O833 O 0.71205 0.28068 0.28582 0.0
O834 O 0.69346 0.21636 0.29828 0.0
H835 H 0.71064 0.39799 0.37687 0.0
H836 H 0.79436 0.18065 0.23219 0.0
O837 O 0.79318 0.15971 0.30511 0.0
H838 H 0.6492 0.13372 0.17684 0.0
H839 H 0.69455 0.04211 0.30562 0.0
H840 H 0.68886 0.17644 0.36903 0.0
H841 H 0.66652 0.15294 0.25037 0.0
H842 H 0.72843 0.10158 0.27619 0.0
O843 O 0.7842 0.30994 0.24631 0.0
H844 H 0.71613 0.32916 0.35185 0.0
H845 H 0.82137 0.37176 0.29025 0.0
H846 H 0.66029 0.11756 0.40283 0.0
H847 H 0.7789 0.15994 0.15872 0.0
H848 H 0.66172 0.04966 0.37055 0.0
H849 H 0.70574 0.13719 0.13042 0.0
O850 O 0.75769 0.21158 0.36004 0.0
H851 H 0.9232 0.29299 0.27634 0.0
H852 H 0.82776 0.3263 0.37722 0.0
H853 H 0.90321 0.3384 0.39653 0.0
H854 H 0.9515 0.32477 0.34493 0.0
H855 H 0.84738 0.27786 0.25943 0.0
H856 H 0.81704 0.44102 0.31462 0.0
H857 H 0.7615 0.45449 0.35845 0.0
O858 O 0.76359 0.27749 0.35775 0.0
C859 C 0.68457 0.25012 0.28908 0.0
C860 C 0.73499 0.39251 0.35779 0.0
C861 C 0.79466 0.41666 0.32281 0.0
N862 N 0.76898 0.34639 0.31955 0.0
C863 C 0.73821 0.35359 0.34346 0.0
C864 C 0.79685 0.37736 0.30896 0.0
C865 C 0.76352 0.4242 0.34743 0.0
C866 C 0.76254 0.17 0.22021 0.0
N867 N 0.73116 0.16886 0.24535 0.0
C868 C 0.75395 0.15854 0.17856 0.0
C869 C 0.7129 0.14586 0.16269 0.0
C870 C 0.68116 0.14397 0.18868 0.0
C871 C 0.69099 0.15537 0.2302 0.0
C872 C 0.6937 0.07146 0.32009 0.0
C873 C 0.69078 0.14711 0.35522 0.0
C874 C 0.71217 0.10541 0.30307 0.0
N875 N 0.71088 0.14276 0.32078 0.0
C876 C 0.67414 0.1138 0.37437 0.0
C877 C 0.67519 0.07573 0.35639 0.0
C878 C 0.76122 0.2467 0.37739 0.0
C879 C 0.90242 0.30016 0.29874 0.0
C880 C 0.8484 0.3183 0.35521 0.0
C881 C 0.89119 0.32592 0.36612 0.0
C882 C 0.9183 0.31767 0.33733 0.0
N883 N 0.83298 0.30181 0.31703 0.0
C884 C 0.85942 0.29196 0.28925 0.0
Co885 Co 0.48344 0.43161 0.45788 0.0
Co886 Co 0.47627 0.52527 0.50253 0.0
O887 O 0.4948 0.47294 0.50333 0.0
C888 C 0.46891 0.3833 0.53197 0.0
O889 O 0.47592 0.41451 0.55886 0.0
C890 C 0.56747 0.54723 0.50763 0.0
O891 O 0.56719 0.51911 0.4782 0.0
O892 O 0.48927 0.53282 0.44461 0.0
O893 O 0.49788 0.4723 0.42001 0.0
H894 H 0.39222 0.62496 0.44972 0.0
H895 H 0.54534 0.42685 0.52823 0.0
O896 O 0.4694 0.38752 0.49402 0.0
H897 H 0.62262 0.41957 0.40638 0.0
H898 H 0.497 0.30113 0.38365 0.0
H899 H 0.45404 0.43167 0.37081 0.0
H900 H 0.54871 0.42622 0.39986 0.0
H901 H 0.49764 0.34706 0.44431 0.0
O902 O 0.53365 0.55311 0.52201 0.0
H903 H 0.41942 0.56149 0.44766 0.0
H904 H 0.49266 0.599 0.55969 0.0
H905 H 0.45345 0.38693 0.30957 0.0
H906 H 0.61907 0.41974 0.536 0.0
H907 H 0.47814 0.32323 0.31561 0.0
H908 H 0.65839 0.41606 0.4748 0.0
O909 O 0.42222 0.43743 0.45206 0.0
H910 H 0.50623 0.49653 0.648 0.0
H911 H 0.40174 0.53233 0.54762 0.0
H912 H 0.38405 0.52316 0.61793 0.0
H913 H 0.4365 0.50513 0.66869 0.0
H914 H 0.52245 0.50551 0.57722 0.0
H915 H 0.46709 0.66347 0.56247 0.0
H916 H 0.41612 0.67662 0.50757 0.0
O917 O 0.41947 0.49813 0.48286 0.0
C918 C 0.49793 0.50886 0.41632 0.0
C919 C 0.41445 0.61971 0.47389 0.0
C920 C 0.45646 0.64125 0.53717 0.0
N921 N 0.45732 0.57644 0.50367 0.0
C922 C 0.42982 0.5837 0.47296 0.0
C923 C 0.47097 0.60478 0.53533 0.0
C924 C 0.42785 0.64861 0.5063 0.0
C925 C 0.5617 0.42446 0.50133 0.0
N926 N 0.54196 0.4258 0.46357 0.0
C927 C 0.60372 0.4208 0.50597 0.0
C928 C 0.6258 0.41884 0.47165 0.0
C929 C 0.60576 0.4208 0.43327 0.0
C930 C 0.56373 0.42448 0.42981 0.0
C931 C 0.48602 0.3292 0.38086 0.0
C932 C 0.46149 0.40248 0.37432 0.0
C933 C 0.48551 0.35515 0.41533 0.0
N934 N 0.47377 0.39163 0.41177 0.0
C935 C 0.46177 0.37747 0.33926 0.0
C936 C 0.47489 0.34109 0.34271 0.0
C937 C 0.40195 0.46505 0.46401 0.0
C938 C 0.48313 0.50444 0.62618 0.0
C939 C 0.42469 0.52433 0.56947 0.0
C940 C 0.41453 0.5193 0.60928 0.0
C941 C 0.44399 0.50923 0.63776 0.0
N942 N 0.46313 0.51951 0.55833 0.0
C943 C 0.4922 0.50973 0.5861 0.0
C944 C 0.27813 0.19319 0.12766 0.0
C945 C 0.28212 0.17589 0.16469 0.0
C946 C 0.25339 0.17203 0.0939 0.0
C947 C 0.23218 0.13309 0.09773 0.0
C948 C 0.24019 0.11409 0.1335 0.0
C949 C 0.26517 0.13572 0.1665 0.0
C950 C 0.24681 0.19284 0.05575 0.0
C951 C 0.21857 0.0725 0.13888 0.0
C952 C 0.11988 0.10358 0.05725 0.0
C953 C 0.12174 0.073 0.02691 0.0
C954 C 0.15596 0.12492 0.07873 0.0
C955 C 0.19516 0.11579 0.0695 0.0
C956 C 0.19758 0.08677 0.03715 0.0
C957 C 0.16069 0.06543 0.01631 0.0
C958 C 0.15181 0.15568 0.11299 0.0
C959 C 0.23885 0.07689 0.02583 0.0
H960 H 0.29168 0.22409 0.12589 0.0
H961 H 0.26906 0.12189 0.19477 0.0
H962 H 0.24354 0.17162 0.02808 0.0
H963 H 0.21777 0.2058 0.05654 0.0
H964 H 0.27288 0.21746 0.05328 0.0
H965 H 0.23259 0.06005 0.1658 0.0
H966 H 0.18535 0.07327 0.1431 0.0
H967 H 0.21976 0.05206 0.11142 0.0
H968 H 0.09001 0.11014 0.0653 0.0
H969 H 0.16242 0.04214 0.9926 0.0
H970 H 0.17147 0.18452 0.1091 0.0
H971 H 0.16272 0.14567 0.14258 0.0
H972 H 0.11923 0.16082 0.1146 0.0
H973 H 0.26242 0.10428 0.02711 0.0
H974 H 0.2362 0.06114 0.99482 0.0
H975 H 0.2503 0.05719 0.04788 0.0
C976 C 0.11833 0.92595 0.48369 0.0
C977 C 0.08137 0.90939 0.49943 0.0
C978 C 0.14089 0.90227 0.45988 0.0
C979 C 0.1269 0.86062 0.45213 0.0
C980 C 0.09058 0.8435 0.46941 0.0
C981 C 0.06797 0.86805 0.49221 0.0
C982 C 0.17914 0.92209 0.44201 0.0
C983 C 0.07556 0.79914 0.4637 0.0
C984 C 0.1597 0.80773 0.3561 0.0
C985 C 0.19397 0.79127 0.37137 0.0
C986 C 0.13741 0.8297 0.38202 0.0
C987 C 0.14924 0.83542 0.42458 0.0
C988 C 0.18299 0.81785 0.44038 0.0
C989 C 0.2049 0.79623 0.41373 0.0
C990 C 0.10164 0.84763 0.36365 0.0
C991 C 0.19672 0.82266 0.48541 0.0
H992 H 0.12892 0.95785 0.48869 0.0
H993 H 0.03966 0.85482 0.50437 0.0
H994 H 0.20628 0.90794 0.45139 0.0
H995 H 0.1744 0.918 0.40822 0.0
H996 H 0.18663 0.95455 0.45159 0.0
H997 H 0.04647 0.7904 0.4784 0.0
H998 H 0.07025 0.78905 0.43074 0.0
H999 H 0.09978 0.7832 0.47696 0.0
H1000 H 0.15083 0.80436 0.32358 0.0
H1001 H 0.23112 0.78369 0.42617 0.0
H1002 H 0.1081 0.88057 0.36994 0.0
H1003 H 0.07284 0.83674 0.3779 0.0
H1004 H 0.09592 0.84023 0.33016 0.0
H1005 H 0.21063 0.85419 0.49459 0.0
H1006 H 0.22007 0.80345 0.4935 0.0
H1007 H 0.1697 0.81532 0.5034 0.0
C1008 C 0.43568 0.88339 0.57581 0.0
C1009 C 0.42061 0.89727 0.53946 0.0
C1010 C 0.40889 0.86148 0.60028 0.0
C1011 C 0.36569 0.85276 0.58823 0.0
C1012 C 0.35029 0.86564 0.551 0.0
C1013 C 0.37788 0.88792 0.52717 0.0
C1014 C 0.42682 0.84846 0.63968 0.0
C1015 C 0.30458 0.85679 0.53677 0.0
C1016 C 0.30692 0.77211 0.64617 0.0
C1017 C 0.2938 0.79511 0.67825 0.0
C1018 C 0.32845 0.79035 0.61527 0.0
C1019 C 0.33692 0.83257 0.61633 0.0
C1020 C 0.32156 0.85575 0.6473 0.0
C1021 C 0.30024 0.83682 0.6777 0.0
C1022 C 0.34356 0.7645 0.58236 0.0
C1023 C 0.32966 0.90078 0.64972 0.0
H1024 H 0.46858 0.89024 0.58569 0.0
H1025 H 0.36587 0.89817 0.49903 0.0
H1026 H 0.41378 0.86292 0.66586 0.0
H1027 H 0.41806 0.81573 0.64042 0.0
H1028 H 0.46125 0.85618 0.64391 0.0
H1029 H 0.29846 0.86311 0.50453 0.0
H1030 H 0.29184 0.82512 0.53983 0.0
H1031 H 0.28744 0.87539 0.55613 0.0
H1032 H 0.30195 0.7399 0.64611 0.0
H1033 H 0.28978 0.85497 0.70192 0.0
H1034 H 0.37794 0.77124 0.58319 0.0
H1035 H 0.3308 0.77115 0.55202 0.0
H1036 H 0.33429 0.73217 0.58557 0.0
H1037 H 0.36344 0.91168 0.65673 0.0
H1038 H 0.31277 0.9144 0.67358 0.0
H1039 H 0.32027 0.91133 0.61996 0.0
C1040 C 0.47093 0.08889 0.9388 0.0
C1041 C 0.51402 0.09109 0.93706 0.0
C1042 C 0.44908 0.11671 0.9209 0.0
C1043 C 0.47083 0.14862 0.90183 0.0
C1044 C 0.51469 0.15235 0.90208 0.0
C1045 C 0.5356 0.12327 0.91902 0.0
C1046 C 0.40231 0.11067 0.92059 0.0
C1047 C 0.53946 0.18662 0.8836 0.0
C1048 C 0.41013 0.19301 0.81753 0.0
C1049 C 0.39685 0.22517 0.83892 0.0
C1050 C 0.43447 0.16824 0.83749 0.0
C1051 C 0.44727 0.17651 0.87975 0.0
C1052 C 0.43555 0.21016 0.90104 0.0
C1053 C 0.40981 0.23347 0.88064 0.0
C1054 C 0.445 0.13216 0.81365 0.0
C1055 C 0.44961 0.22118 0.94559 0.0
H1056 H 0.45373 0.06406 0.95226 0.0
H1057 H 0.56887 0.1254 0.91758 0.0
H1058 H 0.39225 0.13778 0.93457 0.0
H1059 H 0.38806 0.10564 0.88865 0.0
H1060 H 0.39004 0.08485 0.93728 0.0
H1061 H 0.57346 0.18651 0.88799 0.0
H1062 H 0.53017 0.18515 0.85044 0.0
H1063 H 0.53277 0.21538 0.89741 0.0
H1064 H 0.39977 0.18599 0.78547 0.0
H1065 H 0.39969 0.25827 0.89741 0.0
H1066 H 0.43149 0.10465 0.82708 0.0
H1067 H 0.47915 0.13318 0.81555 0.0
H1068 H 0.43307 0.12997 0.78101 0.0
H1069 H 0.43472 0.19802 0.96408 0.0
H1070 H 0.44166 0.25042 0.95665 0.0
H1071 H 0.48374 0.22245 0.95093 0.0
C1072 C 0.67481 0.25244 0.91401 0.0
C1073 C 0.70803 0.26836 0.89241 0.0
C1074 C 0.65232 0.27734 0.93651 0.0
C1075 C 0.66376 0.31944 0.93853 0.0
C1076 C 0.69716 0.33567 0.91659 0.0
C1077 C 0.71843 0.31008 0.89349 0.0
C1078 C 0.61638 0.2585 0.95838 0.0
C1079 C 0.71138 0.38015 0.91857 0.0
C1080 C 0.58527 0.3865 0.96954 0.0
C1081 C 0.59636 0.39576 0.01156 0.0
C1082 C 0.60663 0.36171 0.94566 0.0
C1083 C 0.64095 0.3464 0.96369 0.0
C1084 C 0.65302 0.35652 0.00591 0.0
C1085 C 0.63021 0.38038 0.02938 0.0
C1086 C 0.59178 0.35115 0.9012 0.0
C1087 C 0.68992 0.34185 0.02643 0.0
H1088 H 0.66647 0.22033 0.9135 0.0
H1089 H 0.74441 0.32284 0.87757 0.0
H1090 H 0.6218 0.26796 0.99148 0.0
H1091 H 0.58743 0.26882 0.94694 0.0
H1092 H 0.61155 0.2254 0.95424 0.0
H1093 H 0.73747 0.3882 0.89951 0.0
H1094 H 0.68523 0.39525 0.90827 0.0
H1095 H 0.72161 0.39191 0.95059 0.0
H1096 H 0.55885 0.39762 0.95542 0.0
H1097 H 0.6391 0.38724 0.06173 0.0
H1098 H 0.58276 0.31833 0.89524 0.0
H1099 H 0.61726 0.36047 0.88191 0.0
H1100 H 0.56473 0.36547 0.89165 0.0
H1101 H 0.68304 0.30899 0.02712 0.0
H1102 H 0.69803 0.35555 0.05819 0.0
H1103 H 0.71741 0.34856 0.0089 0.0
C1104 C 0.88548 0.41702 0.0349 0.0
C1105 C 0.92811 0.41573 0.04239 0.0
C1106 C 0.85596 0.39602 0.05785 0.0
C1107 C 0.86933 0.37308 0.08893 0.0
C1108 C 0.91214 0.37073 0.09566 0.0
C1109 C 0.94084 0.39211 0.07257 0.0
C1110 C 0.81066 0.39933 0.04965 0.0
C1111 C 0.92787 0.34619 0.12794 0.0
C1112 C 0.81203 0.35518 0.18337 0.0
C1113 C 0.79433 0.31469 0.17635 0.0
C1114 C 0.83444 0.375 0.1542 0.0
C1115 C 0.83965 0.35394 0.11685 0.0
C1116 C 0.82015 0.31358 0.10865 0.0
C1117 C 0.79752 0.29448 0.1384 0.0
C1118 C 0.85435 0.41804 0.16434 0.0
C1119 C 0.8242 0.29022 0.06895 0.0
H1120 H 0.87518 0.43495 0.01157 0.0
H1121 H 0.97352 0.39038 0.07849 0.0
H1122 H 0.79128 0.36932 0.04637 0.0
H1123 H 0.80052 0.41643 0.07591 0.0
H1124 H 0.80462 0.41452 0.02169 0.0
H1125 H 0.9617 0.34548 0.12772 0.0
H1126 H 0.92194 0.3587 0.15853 0.0
H1127 H 0.91093 0.31511 0.12331 0.0
H1128 H 0.80934 0.37135 0.21231 0.0
H1129 H 0.78376 0.26331 0.13252 0.0
H1130 H 0.84681 0.43617 0.13909 0.0
H1131 H 0.88866 0.42011 0.16807 0.0
H1132 H 0.84414 0.43125 0.19288 0.0
H1133 H 0.80837 0.3033 0.04358 0.0
H1134 H 0.81022 0.25829 0.06852 0.0
H1135 H 0.8574 0.29213 0.06312 0.0
C1136 C 0.99854 0.59541 0.41293 0.0
C1137 C 0.99268 0.58812 0.45355 0.0
C1138 C 0.97966 0.62453 0.39378 0.0
C1139 C 0.953 0.64598 0.4152 0.0
C1140 C 0.94751 0.63911 0.45643 0.0
C1141 C 0.96785 0.61078 0.47521 0.0
C1142 C 0.98756 0.63172 0.35031 0.0
C1143 C 0.9186 0.66039 0.48022 0.0
C1144 C 0.91971 0.74207 0.38111 0.0
C1145 C 0.88063 0.72796 0.36016 0.0
C1146 C 0.94444 0.71565 0.39744 0.0
C1147 C 0.92918 0.67412 0.39416 0.0
C1148 C 0.88994 0.65968 0.37246 0.0
C1149 C 0.86653 0.68664 0.35519 0.0
C1150 C 0.98656 0.73237 0.41894 0.0
C1151 C 0.87175 0.61589 0.36903 0.0
H1152 H 0.0176 0.57799 0.39594 0.0
H1153 H 0.96257 0.60497 0.50637 0.0
H1154 H 0.95863 0.62151 0.33005 0.0
H1155 H 0.99678 0.6641 0.34753 0.0
H1156 H 0.01228 0.61574 0.33933 0.0
H1157 H 0.91802 0.65209 0.5121 0.0
H1158 H 0.9281 0.69315 0.4809 0.0
H1159 H 0.88656 0.65305 0.46499 0.0
H1160 H 0.93087 0.77393 0.38501 0.0
H1161 H 0.83617 0.67541 0.33944 0.0
H1162 H 0.01058 0.71609 0.40699 0.0
H1163 H 0.98642 0.72841 0.45196 0.0
H1164 H 0.99542 0.76461 0.41517 0.0
H1165 H 0.89331 0.59798 0.35494 0.0
H1166 H 0.84121 0.60932 0.35061 0.0
H1167 H 0.86759 0.60595 0.39992 0.0
C1168 C 0.60822 0.59705 0.56045 0.0
C1169 C 0.60709 0.57198 0.52466 0.0
C1170 C 0.6457 0.61915 0.5785 0.0
C1171 C 0.68301 0.6165 0.56003 0.0
C1172 C 0.68182 0.59291 0.52272 0.0
C1173 C 0.64384 0.57054 0.50564 0.0
C1174 C 0.64555 0.6438 0.6185 0.0
C1175 C 0.72073 0.58991 0.50169 0.0
C1176 C 0.76697 0.69519 0.61437 0.0
C1177 C 0.77971 0.67415 0.6466 0.0
C1178 C 0.73868 0.67559 0.58226 0.0
C1179 C 0.72312 0.63444 0.58308 0.0
C1180 C 0.74048 0.61238 0.61271 0.0
C1181 C 0.76864 0.6326 0.64415 0.0
C1182 C 0.72206 0.69971 0.55018 0.0
C1183 C 0.72531 0.56838 0.61448 0.0
H1184 H 0.57994 0.59854 0.57519 0.0
H1185 H 0.64309 0.5516 0.47763 0.0
H1186 H 0.6635 0.63144 0.64301 0.0
H1187 H 0.66075 0.67495 0.61639 0.0
H1188 H 0.61362 0.64434 0.62761 0.0
H1189 H 0.71338 0.57905 0.46898 0.0
H1190 H 0.74154 0.61916 0.50402 0.0
H1191 H 0.73803 0.56857 0.5166 0.0
H1192 H 0.77578 0.72735 0.61619 0.0
H1193 H 0.77914 0.61633 0.66892 0.0
H1194 H 0.6913 0.70653 0.55773 0.0
H1195 H 0.71768 0.68269 0.51976 0.0
H1196 H 0.74312 0.72837 0.5485 0.0
H1197 H 0.6939 0.5642 0.62567 0.0
H1198 H 0.74623 0.55466 0.63531 0.0
H1199 H 0.72274 0.55224 0.58377 0.0
C1200 C 0.33055 0.30944 0.43566 0.0
C1201 C 0.30186 0.28346 0.40851 0.0
C1202 C 0.32854 0.30893 0.47823 0.0
C1203 C 0.29805 0.28089 0.49369 0.0
C1204 C 0.26912 0.25482 0.46615 0.0
C1205 C 0.27098 0.25699 0.42419 0.0
C1206 C 0.35841 0.33875 0.50657 0.0
C1207 C 0.2364 0.22407 0.48091 0.0
C1208 C 0.31263 0.2494 0.60189 0.0
C1209 C 0.28515 0.27004 0.62212 0.0
C1210 C 0.31772 0.25314 0.56024 0.0
C1211 C 0.29538 0.27864 0.53848 0.0
C1212 C 0.26749 0.29928 0.55876 0.0
C1213 C 0.26238 0.29438 0.59995 0.0
C1214 C 0.34735 0.2301 0.53968 0.0
C1215 C 0.24342 0.32714 0.53714 0.0
H1216 H 0.3548 0.32954 0.42367 0.0
H1217 H 0.24821 0.23745 0.40341 0.0
H1218 H 0.34101 0.36 0.52214 0.0
H1219 H 0.37375 0.32349 0.53053 0.0
H1220 H 0.38251 0.35602 0.49008 0.0
H1221 H 0.21731 0.20496 0.4554 0.0
H1222 H 0.25142 0.20463 0.50089 0.0
H1223 H 0.21539 0.23905 0.49933 0.0
H1224 H 0.33074 0.2309 0.61871 0.0
H1225 H 0.2408 0.31032 0.615 0.0
H1226 H 0.37531 0.25101 0.53356 0.0
H1227 H 0.33279 0.21496 0.50997 0.0
H1228 H 0.35731 0.20729 0.55885 0.0
H1229 H 0.26557 0.35113 0.5261 0.0
H1230 H 0.22289 0.341 0.55722 0.0
H1231 H 0.2241 0.31105 0.5101 0.0
C1232 C 0.03944 -0.0015 0.8541 0.0
C1233 C 0.00928 0.01421 0.87526 0.0
C1234 C 0.03798 0.99676 0.81147 0.0
C1235 C 1.00533 0.01089 0.78926 0.0
C1236 C 0.97561 0.02832 0.81059 0.0
C1237 C 0.97794 0.02977 0.85349 0.0
C1238 C 0.07057 0.9784 0.79015 0.0
C1239 C 0.94011 0.0434 0.78803 0.0
C1240 C 0.02271 0.03594 0.68125 0.0
C1241 C 1.00236 0.00138 0.65753 0.0
C1242 C 0.0236 0.03942 0.72384 0.0
C1243 C 1.00296 0.00782 0.74376 0.0
C1244 C 0.98186 0.97288 0.72028 0.0
C1245 C 0.98227 0.96984 0.67742 0.0
C1246 C 0.04666 0.07712 0.7475 0.0
C1247 C 0.95883 0.93869 0.7403 0.0
H1248 H 0.06326 0.98587 0.87097 0.0
H1249 H 0.9538 0.04065 0.86974 0.0
H1250 H 0.05565 0.95104 0.77097 0.0
H1251 H 0.08577 -0.00059 0.76963 0.0
H1252 H 0.09487 0.97036 0.81196 0.0
H1253 H 0.92173 0.05908 0.80898 0.0
H1254 H 0.95187 0.06409 0.76559 0.0
H1255 H 0.91916 0.01787 0.77073 0.0
H1256 H 0.03789 0.06083 0.66657 0.0
H1257 H 0.96585 0.94331 0.65951 0.0
H1258 H 0.07126 0.06976 0.76935 0.0
H1259 H 0.02503 0.09165 0.76554 0.0
H1260 H 0.06134 0.09889 0.72736 0.0
H1261 H 0.93693 0.91816 0.71796 0.0
H1262 H 0.94106 0.9497 0.76486 0.0
H1263 H 0.98148 0.92151 0.7544 0.0
C1264 C 0.27119 0.8145 0.94857 0.0
C1265 C 0.27161 0.7744 0.93519 0.0
C1266 C 0.2722 0.82686 0.99028 0.0
C1267 C 0.27344 0.79846 0.01934 0.0
C1268 C 0.27383 0.75801 0.00602 0.0
C1269 C 0.27311 0.74655 0.96426 0.0
C1270 C 0.27209 0.87026 0.00326 0.0
C1271 C 0.2752 0.72668 0.03594 0.0
C1272 C 0.3165 0.81992 0.12957 0.0
C1273 C 0.28017 0.81317 0.14962 0.0
C1274 C 0.3147 0.81913 0.08694 0.0
C1275 C 0.27554 0.81059 0.06387 0.0
C1276 C 0.23866 0.80738 0.08426 0.0
C1277 C 0.24146 0.80877 0.12709 0.0
C1278 C 0.35481 0.82323 0.06663 0.0
C1279 C 0.19628 0.79824 0.06089 0.0
H1280 H 0.27005 0.83635 0.92645 0.0
H1281 H 0.27338 0.71554 0.95444 0.0
H1282 H 0.24546 0.87327 0.0215 0.0
H1283 H 0.30087 0.88265 0.02303 0.0
H1284 H 0.27005 0.88845 0.97683 0.0
H1285 H 0.27408 0.69635 0.02055 0.0
H1286 H 0.30415 0.73418 0.05671 0.0
H1287 H 0.24867 0.72607 0.05503 0.0
H1288 H 0.34642 0.82252 0.14707 0.0
H1289 H 0.2134 0.80248 0.14257 0.0
H1290 H 0.35332 0.84187 0.04058 0.0
H1291 H 0.35997 0.79331 0.0545 0.0
H1292 H 0.38196 0.83662 0.08828 0.0
H1293 H 0.19476 0.81661 0.03462 0.0
H1294 H 0.17121 0.80352 0.08051 0.0
H1295 H 0.19023 0.76645 0.0486 0.0
C1296 C 0.46266 0.96342 0.35724 0.0
C1297 C 0.50145 0.95893 0.37569 0.0
C1298 C 0.45533 0.96161 0.31457 0.0
C1299 C 0.4874 0.95436 0.28993 0.0
C1300 C 0.52599 0.94773 0.30857 0.0
C1301 C 0.53265 0.95044 0.35131 0.0
C1302 C 0.41389 0.96907 0.29598 0.0
C1303 C 0.56118 0.94038 0.28345 0.0
C1304 C 0.46967 0.92325 0.17615 0.0
C1305 C 0.48168 0.95961 0.15968 0.0
C1306 C 0.46866 0.92148 0.21848 0.0
C1307 C 0.48199 0.95656 0.24491 0.0
C1308 C 0.49287 0.99356 0.22823 0.0
C1309 C 0.49199 0.99469 0.18572 0.0
C1310 C 0.45489 0.88193 0.23504 0.0
C1311 C 0.5076 0.03164 0.25534 0.0
H1312 H 0.43876 0.97041 0.37627 0.0
H1313 H 0.56297 0.94798 0.36571 0.0
H1314 H 0.41809 0.99072 0.27257 0.0
H1315 H 0.39627 0.94074 0.28056 0.0
H1316 H 0.39499 0.98077 0.3192 0.0
H1317 H 0.58848 0.93394 0.30244 0.0
H1318 H 0.55063 0.91494 0.26011 0.0
H1319 H 0.5712 0.96703 0.26706 0.0
H1320 H 0.46211 0.89606 0.15593 0.0
H1321 H 0.50217 0.02264 0.17299 0.0
H1322 H 0.43101 0.8848 0.25671 0.0
H1323 H 0.48166 0.87249 0.2522 0.0
H1324 H 0.44179 0.85831 0.21044 0.0
H1325 H 0.48452 0.03634 0.27739 0.0
H1326 H 0.5129 0.05819 0.23765 0.0
H1327 H 0.53712 0.02931 0.27326 0.0
C1328 C 0.44314 0.27887 0.24703 0.0
C1329 C 0.4218 0.26359 0.27919 0.0
C1330 C 0.48563 0.27639 0.24472 0.0
C1331 C 0.50766 0.25976 0.27619 0.0
C1332 C 0.48553 0.24333 0.308 0.0
C1333 C 0.44281 0.24452 0.30844 0.0
C1334 C 0.50685 0.29132 0.20853 0.0
C1335 C 0.50636 0.22447 0.34204 0.0
C1336 C 0.61006 0.22094 0.26677 0.0
C1337 C 0.63972 0.25384 0.28276 0.0
C1338 C 0.56741 0.2232 0.26225 0.0
C1339 C 0.55342 0.25886 0.27572 0.0
C1340 C 0.58335 0.2925 0.29145 0.0
C1341 C 0.62602 0.28971 0.29414 0.0
C1342 C 0.53745 0.18684 0.24389 0.0
C1343 C 0.5707 0.33078 0.30815 0.0
H1344 H 0.42655 0.29226 0.22348 0.0
H1345 H 0.42616 0.23196 0.33286 0.0
H1346 H 0.5309 0.31767 0.21849 0.0
H1347 H 0.52282 0.2679 0.19461 0.0
H1348 H 0.48462 0.29987 0.1849 0.0
H1349 H 0.49051 0.2274 0.37043 0.0
H1350 H 0.50386 0.19217 0.33296 0.0
H1351 H 0.53962 0.23764 0.34887 0.0
H1352 H 0.62004 0.19318 0.25754 0.0
H1353 H 0.64857 0.31522 0.30686 0.0
H1354 H 0.55315 0.16659 0.22475 0.0
H1355 H 0.5112 0.19527 0.22495 0.0
H1356 H 0.5245 0.16993 0.2687 0.0
H1357 H 0.54496 0.33903 0.28851 0.0
H1358 H 0.59704 0.35604 0.31141 0.0
H1359 H 0.55996 0.32654 0.33879 0.0
C1360 C 0.98206 0.31298 0.51249 0.0
C1361 C 0.99126 0.33937 0.4826 0.0
C1362 C 0.97612 0.27156 0.50299 0.0
C1363 C 0.97977 0.25604 0.46265 0.0
C1364 C 0.98749 0.28237 0.43198 0.0
C1365 C 0.9926 0.32372 0.44218 0.0
C1366 C 0.96802 0.24441 0.53661 0.0
C1367 C 0.99157 0.26695 0.38864 0.0
C1368 C 0.01861 0.15721 0.45838 0.0
C1369 C 0.98127 0.13006 0.45372 0.0
C1370 C 0.0186 0.19832 0.45938 0.0
C1371 C 0.98035 0.21266 0.45411 0.0
C1372 C 0.94291 0.18531 0.44474 0.0
C1373 C 0.94374 0.14415 0.44491 0.0
C1374 C 0.05928 0.22642 0.46952 0.0
C1375 C 0.90179 0.19963 0.43728 0.0
H1376 H 0.98044 0.32463 0.54363 0.0
H1377 H 0.99917 0.34374 0.41865 0.0
H1378 H 0.93821 0.2238 0.52888 0.0
H1379 H 0.99288 0.22588 0.5396 0.0
H1380 H 0.96674 0.26117 0.56654 0.0
H1381 H 1.00528 0.29098 0.37043 0.0
H1382 H 0.01128 0.24326 0.38771 0.0
H1383 H 0.96035 0.25356 0.37395 0.0
H1384 H 0.04778 0.14645 0.4645 0.0
H1385 H 0.91474 0.12341 0.44108 0.0
H1386 H 0.05926 0.24249 0.50002 0.0
H1387 H 0.06314 0.24911 0.44712 0.0
H1388 H 0.08648 0.21053 0.46993 0.0
H1389 H 0.89357 0.21432 0.46596 0.0
H1390 H 0.87625 0.17481 0.42622 0.0
H1391 H 0.90407 0.22213 0.41457 0.0
C1392 C 0.93986 0.74891 0.75876 0.0
C1393 C 0.91805 0.73818 0.79214 0.0
C1394 C 0.9832 0.75093 0.76032 0.0
C1395 C 1.00514 0.74107 0.79585 0.0
C1396 C 0.98265 0.72833 0.82896 0.0
C1397 C 0.93929 0.72708 0.82671 0.0
C1398 C 1.00557 0.76416 0.72412 0.0
C1399 C 1.00395 0.71563 0.8667 0.0
C1400 C 0.11185 0.71149 0.78689 0.0
C1401 C 0.13876 0.74648 0.80201 0.0
C1402 C 0.0685 0.7093 0.7848 0.0
C1403 C 0.05135 0.74326 0.79773 0.0
C1404 C 0.07849 0.7793 0.81172 0.0
C1405 C 0.12185 0.78044 0.81365 0.0
C1406 C 0.04114 0.67043 0.76904 0.0
C1407 C 0.06208 0.81631 0.82632 0.0
H1408 H 0.92305 0.75654 0.73168 0.0
H1409 H 0.92211 0.71828 0.85227 0.0
H1410 H 0.02833 0.79169 0.73339 0.0
H1411 H 0.02326 0.74088 0.71297 0.0
H1412 H 0.98391 0.77022 0.69861 0.0
H1413 H 0.98481 0.7166 0.89302 0.0
H1414 H 1.00879 0.68437 0.86038 0.0
H1415 H 0.03463 0.7346 0.87532 0.0
H1416 H 0.12467 0.68564 0.77647 0.0
H1417 H 0.14247 0.80761 0.82537 0.0
H1418 H 0.05938 0.6474 0.75827 0.0
H1419 H 0.01891 0.67534 0.74353 0.0
H1420 H 0.02265 0.65868 0.79356 0.0
H1421 H 0.03479 0.8209 0.80621 0.0
H1422 H 0.08612 0.84344 0.82791 0.0
H1423 H 0.05224 0.81278 0.85739 0.0
C1424 C 0.53389 0.66594 0.95837 0.0
C1425 C 0.49721 0.63785 0.95262 0.0
C1426 C 0.533 0.70658 0.95529 0.0
C1427 C 0.49468 0.71933 0.94474 0.0
C1428 C 0.45873 0.69052 0.93316 0.0
C1429 C 0.46032 0.65001 0.93758 0.0
C1430 C 0.57221 0.73607 0.96813 0.0
C1431 C 0.41753 0.70219 0.91967 0.0
C1432 C 0.48666 0.81621 0.00479 0.0
C1433 C 0.49975 0.84451 0.97775 0.0
C1434 C 0.48235 0.77528 0.99335 0.0
C1435 C 0.4913 0.76213 0.95381 0.0
C1436 C 0.50136 0.79034 0.92527 0.0
C1437 C 0.50544 0.83133 0.93755 0.0
C1438 C 0.46991 0.74612 0.02427 0.0
C1439 C 0.50899 0.77715 0.88227 0.0
H1440 H 0.56283 0.65668 0.96894 0.0
H1441 H 0.43193 0.62852 0.9323 0.0
H1442 H 0.57649 0.75971 0.94679 0.0
H1443 H 0.56973 0.75075 -0.00119 0.0
H1444 H 0.60028 0.72142 0.96966 0.0
H1445 H 0.40178 0.68114 0.89389 0.0
H1446 H 0.39723 0.69998 0.94512 0.0
H1447 H 0.42068 0.73291 0.90993 0.0
H1448 H 0.48113 0.82602 0.03559 0.0
H1449 H 0.51473 0.85296 0.91616 0.0
H1450 H 0.49401 0.72696 0.029 0.0
H1451 H 0.4405 0.7263 0.01262 0.0
H1452 H 0.46543 0.76125 0.05421 0.0
H1453 H 0.53476 0.75947 0.88258 0.0
H1454 H 0.51689 0.80276 0.86378 0.0
H1455 H 0.48081 0.75747 0.86725 0.0
C1456 C 0.61956 0.74689 0.25243 0.0
C1457 C 0.64564 0.78072 0.27155 0.0
C1458 C 0.57655 0.74144 0.25571 0.0
C1459 C 0.55921 0.77127 0.27757 0.0
C1460 C 0.5856 0.8057 0.29678 0.0
C1461 C 0.62874 0.80965 0.29414 0.0
C1462 C 0.54977 0.70366 0.23603 0.0
C1463 C 0.56821 0.83864 0.31939 0.0
C1464 C 0.44547 0.77441 0.24711 0.0
C1465 C 0.42584 0.75724 0.27941 0.0
C1466 C 0.48885 0.7798 0.24658 0.0
C1467 C 0.51329 0.76713 0.27881 0.0
C1468 C 0.49376 0.7497 0.31148 0.0
C1469 C 0.45029 0.74539 0.31163 0.0
C1470 C 0.50859 0.79895 0.21142 0.0
C1471 C 0.51865 0.73472 0.34576 0.0
H1472 H 0.633 0.72438 0.2354 0.0
H1473 H 0.64919 0.83583 0.30877 0.0
H1474 H 0.5353 0.6864 0.25992 0.0
H1475 H 0.52415 0.71085 0.21535 0.0
H1476 H 0.56778 0.68443 0.21833 0.0
H1477 H 0.59274 0.86414 0.33121 0.0
H1478 H 0.54481 0.84969 0.29894 0.0
H1479 H 0.55209 0.82703 0.34543 0.0
H1480 H 0.42687 0.7838 0.22215 0.0
H1481 H 0.4354 0.73186 0.33656 0.0
H1482 H 0.52713 0.77864 0.19607 0.0
H1483 H 0.53031 0.82657 0.22302 0.0
H1484 H 0.48523 0.80658 0.18836 0.0
H1485 H 0.53586 0.71161 0.33328 0.0
H1486 H 0.49876 0.72171 0.3688 0.0
H1487 H 0.54205 0.75941 0.36125 0.0
C1488 C 0.56728 0.19501 0.54466 0.0
C1489 C 0.54292 0.15823 0.54964 0.0
C1490 C 0.5515 0.23088 0.5501 0.0
C1491 C 0.51072 0.23031 0.56211 0.0
C1492 C 0.48758 0.19372 0.57114 0.0
C1493 C 0.50372 0.15807 0.5643 0.0
C1494 C 0.57721 0.26892 0.53939 0.0
C1495 C 0.44449 0.19116 0.58505 0.0
C1496 C 0.48753 0.33574 0.58286 0.0
C1497 C 0.46987 0.34231 0.54437 0.0
C1498 C 0.49769 0.29806 0.59056 0.0
C1499 C 0.49087 0.26675 0.5588 0.0
C1500 C 0.46947 0.27231 0.5213 0.0
C1501 C 0.45879 0.30973 0.51482 0.0
C1502 C 0.51778 0.29235 0.63187 0.0
C1503 C 0.46052 0.23962 0.48679 0.0
H1504 H 0.59767 0.19568 0.53351 0.0
H1505 H 0.48467 0.1299 0.56857 0.0
H1506 H 0.56149 0.27997 0.51252 0.0
H1507 H 0.58011 0.29245 0.56499 0.0
H1508 H 0.6089 0.26463 0.53211 0.0
H1509 H 0.4401 0.16958 0.60859 0.0
H1510 H 0.43785 0.22037 0.59767 0.0
H1511 H 0.4215 0.17966 0.55875 0.0
H1512 H 0.49563 0.36045 0.60617 0.0
H1513 H 0.44382 0.31406 0.48542 0.0
H1514 H 0.55142 0.29194 0.62992 0.0
H1515 H 0.50395 0.26329 0.64213 0.0
H1516 H 0.51429 0.31663 0.6551 0.0
H1517 H 0.44266 0.24846 0.45991 0.0
H1518 H 0.44256 0.21243 0.49718 0.0
H1519 H 0.49019 0.23176 0.47705 0.0
C1520 C 0.1352 0.30429 0.81013 0.0
C1521 C 0.15491 0.27965 0.78488 0.0
C1522 C 0.09193 0.29614 0.81274 0.0
C1523 C 0.06814 0.26158 0.79086 0.0
C1524 C 0.08839 0.23593 0.76636 0.0
C1525 C 0.13139 0.2457 0.76311 0.0
C1526 C 0.07156 0.32496 0.83817 0.0
C1527 C 0.0646 0.19824 0.7434 0.0
C1528 C 0.95868 0.22407 0.82049 0.0
C1529 C 0.93379 0.23648 0.78899 0.0
C1530 C 1.00248 0.23189 0.82159 0.0
C1531 C 0.02178 0.25367 0.79119 0.0
C1532 C 0.99664 0.26729 0.76013 0.0
C1533 C 0.95319 0.2581 0.75914 0.0
C1534 C 0.02809 0.2158 0.85451 0.0
C1535 C 0.01563 0.29133 0.72759 0.0
H1536 H 0.15352 0.33054 0.82698 0.0
H1537 H 0.14685 0.22637 0.74406 0.0
H1538 H 0.04649 0.3353 0.81923 0.0
H1539 H 0.05693 0.30978 0.86324 0.0
H1540 H 0.09404 0.35142 0.85166 0.0
H1541 H 0.08539 0.17995 0.72838 0.0
H1542 H 0.04666 0.1799 0.76448 0.0
H1543 H 0.04195 0.20582 0.71967 0.0
H1544 H 0.94394 0.20718 0.84349 0.0
H1545 H 0.93424 0.26808 0.73482 0.0
H1546 H 0.04991 0.24049 0.87206 0.0
H1547 H 0.04712 0.19513 0.84043 0.0
H1548 H 1.00851 0.19961 0.87598 0.0
H1549 H 0.03784 0.31756 0.74189 0.0
H1550 H 0.99185 0.30195 0.70716 0.0
H1551 H 0.03337 0.27296 0.70867 0.0
C1552 C 0.96958 0.81246 0.03258 0.0
C1553 C 0.99254 0.84572 0.05622 0.0
C1554 C 0.9778 0.77376 0.03731 0.0
C1555 C 0.00963 0.7679 0.06676 0.0
C1556 C 0.0306 0.80094 0.09304 0.0
C1557 C 0.02182 0.83954 0.08746 0.0
C1558 C 0.95456 0.73963 0.00852 0.0
C1559 C 0.06442 0.796 0.12508 0.0
C1560 C 0.01367 0.65855 0.08233 0.0
C1561 C 0.0417 0.64952 0.05424 0.0
C1562 C 1.00451 0.69756 0.08859 0.0
C1563 C 0.02389 0.7282 0.06633 0.0
C1564 C 0.05423 0.71971 0.04001 0.0
C1565 C 0.06275 0.68063 0.03438 0.0
C1566 C 0.9723 0.70539 0.1172 0.0
C1567 C 0.07592 0.75133 0.01573 0.0
H1568 H 0.94663 0.81694 0.00859 0.0
H1569 H 0.03988 0.86504 0.10573 0.0
H1570 H 0.97613 0.72888 0.98749 0.0
H1571 H 0.9423 0.71426 0.02572 0.0
H1572 H 0.92824 0.74847 0.98996 0.0
H1573 H 0.0728 0.82279 0.1472 0.0
H1574 H 0.05469 0.76962 0.14194 0.0
H1575 H 0.09263 0.79092 0.11014 0.0
H1576 H 0.99716 0.63478 0.09778 0.0
H1577 H 0.08486 0.67412 0.01301 0.0
H1578 H 0.9434 0.70946 0.09924 0.0
H1579 H 0.98328 0.73326 0.13721 0.0
H1580 H 0.96464 0.68042 0.13655 0.0
H1581 H 0.10122 0.74084 -0.00059 0.0
H1582 H 0.08934 0.77844 0.036 0.0
H1583 H 0.05306 0.76007 0.9929 0.0
C1584 C 0.27568 0.43271 0.32157 0.0
C1585 C 0.25328 0.41092 0.28701 0.0
C1586 C 0.28503 0.47482 0.32406 0.0
C1587 C 0.269 0.49588 0.29275 0.0
C1588 C 0.24598 0.47403 0.25794 0.0
C1589 C 0.23877 0.432 0.25539 0.0
C1590 C 0.31125 0.49706 0.36063 0.0
C1591 C 0.22744 0.49512 0.22416 0.0
C1592 C 0.25705 0.60496 0.31999 0.0
C1593 C 0.29111 0.62555 0.30303 0.0
C1594 C 0.24898 0.56283 0.31651 0.0
C1595 C 0.27631 0.54073 0.2965 0.0
C1596 C 0.3112 0.56172 0.28016 0.0
C1597 C 0.31821 0.60356 0.28379 0.0
C1598 C 0.21069 0.54269 0.33392 0.0
C1599 C 0.34134 0.54015 0.25867 0.0
H1600 H 0.28469 0.41695 0.34723 0.0
H1601 H 0.21984 0.41547 0.22937 0.0
H1602 H 0.3383 0.51674 0.35076 0.0
H1603 H 0.29306 0.51659 0.3776 0.0
H1604 H 0.32286 0.4764 0.38128 0.0
H1605 H 0.21072 0.47395 0.19885 0.0
H1606 H 0.20533 0.51353 0.23654 0.0
H1607 H 0.25217 0.51563 0.21165 0.0
H1608 H 0.23558 0.62167 0.33428 0.0
H1609 H 0.34477 0.61924 0.27064 0.0
H1610 H 0.19958 0.51211 0.3194 0.0
H1611 H 0.18499 0.56033 0.3303 0.0
H1612 H 0.21791 0.54127 0.3671 0.0
H1613 H 0.3593 0.52597 0.28153 0.0
H1614 H 0.36351 0.56052 0.24287 0.0
H1615 H 0.32467 0.51623 0.23601 0.0
C1616 C 0.80797 0.08361 0.82206 0.0
C1617 C 0.77912 0.10818 0.81156 0.0
C1618 C 0.79689 0.04188 0.81825 0.0
C1619 C 0.75621 0.02397 0.80163 0.0
C1620 C 0.72688 0.04901 0.79104 0.0
C1621 C 0.73843 0.09077 0.79724 0.0
C1622 C 0.83005 0.0176 0.83013 0.0
C1623 C 0.68373 0.0322 0.77179 0.0
C1624 C 0.76162 0.91666 0.76405 0.0
C1625 C 0.74281 0.89569 0.79456 0.0
C1626 C 0.7628 0.95815 0.76365 0.0
C1627 C 0.74531 0.97934 0.79486 0.0
C1628 C 0.72136 0.95731 0.82216 0.0
C1629 C 0.72042 0.91585 0.82152 0.0
C1630 C 0.78461 0.9791 0.73069 0.0
C1631 C 0.69716 0.97674 0.85291 0.0
H1632 H 0.8398 0.09707 0.83201 0.0
H1633 H 0.71639 0.10988 0.78811 0.0
H1634 H 0.81694 0.98758 0.83842 0.0
H1635 H 0.84896 0.01402 0.80409 0.0
H1636 H 0.85145 0.03321 0.85616 0.0
H1637 H 0.67102 0.05373 0.75266 0.0
H1638 H 0.68315 0.00389 0.75266 0.0
H1639 H 0.66263 0.02632 0.79614 0.0
H1640 H 0.77773 0.90129 0.74192 0.0
H1641 H 0.70367 0.89945 0.84363 0.0
H1642 H 0.81863 0.98444 0.73911 0.0
H1643 H 0.77433 0.00808 0.72586 0.0
H1644 H 0.77891 0.96003 0.70139 0.0
H1645 H 0.70848 0.00907 0.86012 0.0
H1646 H 0.69809 0.96206 0.88169 0.0
H1647 H 0.66406 0.97261 0.8407 0.0
C1648 C 0.37506 0.5584 0.02899 0.0
C1649 C 0.39146 0.52699 0.04601 0.0
C1650 C 0.33182 0.55722 0.02169 0.0
C1651 C 0.30384 0.52495 0.03395 0.0
C1652 C 0.32041 0.49529 0.05512 0.0
C1653 C 0.36377 0.49602 0.0597 0.0
C1654 C 0.31627 0.58989 -0.00067 0.0
C1655 C 0.2932 0.46248 0.07341 0.0
C1656 C 0.19214 0.54676 0.02938 0.0
C1657 C 0.17213 0.51917 0.99771 0.0
C1658 C 0.23416 0.54766 0.04299 0.0
C1659 C 0.2578 0.52174 0.02293 0.0
C1660 C 0.23728 0.49326 0.9912 0.0
C1661 C 0.19469 0.49201 0.97947 0.0
C1662 C 0.25158 0.57527 0.08026 0.0
C1663 C 0.25956 0.46292 0.97038 0.0
H1664 H 0.39607 0.58303 0.01922 0.0
H1665 H 0.3759 0.47217 0.07419 0.0
H1666 H 0.29457 0.57675 0.9725 0.0
H1667 H 0.29905 0.60741 0.01965 0.0
H1668 H 0.34202 0.61086 0.98884 0.0
H1669 H 0.30483 0.46123 0.10572 0.0
H1670 H 0.26009 0.46628 0.07244 0.0
H1671 H 0.29554 0.43328 0.05721 0.0
H1672 H 0.17437 0.56665 0.04491 0.0
H1673 H 0.17899 0.46981 0.95581 0.0
H1674 H 0.28504 0.57544 0.08882 0.0
H1675 H 0.23411 0.56624 0.10652 0.0
H1676 H 0.24647 0.60605 0.07521 0.0
H1677 H 0.29128 0.47638 0.96422 0.0
H1678 H 0.24223 0.4489 0.94139 0.0
H1679 H 0.26243 0.43871 0.9905 0.0
C1680 C 0.81251 0.08119 0.29358 0.0
C1681 C 0.82201 0.10493 0.33071 0.0
C1682 C 0.81459 0.04017 0.2913 0.0
C1683 C 0.82783 0.02276 0.32669 0.0
C1684 C 0.84195 0.04747 0.36295 0.0
C1685 C 0.83854 0.08818 0.36465 0.0
C1686 C 0.79912 0.01497 0.25192 0.0
C1687 C 0.85788 0.03032 0.40076 0.0
C1688 C 0.77493 0.91637 0.33413 0.0
C1689 C 0.80453 0.89421 0.32047 0.0
C1690 C 0.78285 0.95822 0.3377 0.0
C1691 C 0.82139 0.97844 0.32728 0.0
C1692 C 0.85208 0.95609 0.31506 0.0
C1693 C 0.84311 0.91413 0.31159 0.0
C1694 C 0.74846 0.98066 0.34895 0.0
C1695 C 0.89339 0.97643 0.3035 0.0
H1696 H 0.80021 0.09383 0.26699 0.0
H1697 H 0.84663 0.10639 0.39328 0.0
H1698 H 0.82046 0.99369 0.24452 0.0
H1699 H 0.76833 0.99714 0.2553 0.0
H1700 H 0.79571 0.03345 0.22591 0.0
H1701 H 0.86928 0.05379 0.42587 0.0
H1702 H 0.8328 0.00872 0.4113 0.0
H1703 H 0.88356 0.01383 0.39388 0.0
H1704 H 0.74442 0.9009 0.33926 0.0
H1705 H 0.86526 0.89687 0.29939 0.0
H1706 H 0.73653 0.99373 0.32159 0.0
H1707 H 0.76025 0.0056 0.37252 0.0
H1708 H 0.72209 0.96102 0.36014 0.0
H1709 H 0.88857 0.99546 0.27828 0.0
H1710 H 0.91357 0.95475 0.29375 0.0
H1711 H 0.90992 0.99625 0.32982 0.0
C1712 C 0.84595 0.93652 -0.00166 0.0
C1713 C 0.8684 0.96061 0.9724 0.0
C1714 C 0.80339 0.93772 0.00171 0.0
C1715 C 0.7823 0.96197 0.97695 0.0
C1716 C 0.80517 0.98624 0.95065 0.0
C1717 C 0.84792 0.98582 0.9494 0.0
C1718 C 0.78197 0.91581 0.03422 0.0
C1719 C 0.78508 0.01242 0.92301 0.0
C1720 C 0.66413 0.93291 0.95914 0.0
C1721 C 0.65046 0.96451 0.98098 0.0
C1722 C 0.70687 0.93188 0.9572 0.0
C1723 C 0.73668 0.96243 0.97895 0.0
C1724 C 0.72277 0.99387 0.00193 0.0
C1725 C 0.6799 0.99496 0.00189 0.0
C1726 C 0.72004 0.89788 0.93215 0.0
C1727 C 0.75313 0.02595 0.02729 0.0
H1728 H 0.86225 0.91864 0.01781 0.0
H1729 H 0.86555 0.00546 0.93028 0.0
H1730 H 0.77359 0.93793 0.05723 0.0
H1731 H 0.75265 0.89671 0.02125 0.0
H1732 H 0.80196 0.89704 0.04995 0.0
H1733 H 0.776 0.99517 0.89317 0.0
H1734 H 0.75681 0.02186 0.93428 0.0
H1735 H 0.80721 0.0395 0.91805 0.0
H1736 H 0.6413 0.90868 0.94406 0.0
H1737 H 0.66929 0.01867 0.01993 0.0
H1738 H 0.73317 0.87769 0.95254 0.0
H1739 H 0.74471 0.90938 0.91275 0.0
H1740 H 0.69355 0.88001 0.91247 0.0
H1741 H 0.73728 0.04509 0.04752 0.0
H1742 H 0.77114 0.04519 0.00701 0.0
H1743 H 0.77562 0.01233 0.04636 0.0
C1744 C 0.32289 0.58992 0.81741 0.0
C1745 C 0.33159 0.61311 0.855 0.0
C1746 C 0.32542 0.54902 0.81448 0.0
C1747 C 0.3378 0.53109 0.84977 0.0
C1748 C 0.35147 0.55533 0.88636 0.0
C1749 C 0.34775 0.59596 0.88873 0.0
C1750 C 0.31129 0.52444 0.77448 0.0
C1751 C 0.36665 0.53774 0.92401 0.0
C1752 C 0.28114 0.42575 0.85453 0.0
C1753 C 0.31073 0.40272 0.84274 0.0
C1754 C 0.29033 0.46751 0.85848 0.0
C1755 C 0.33001 0.48678 0.85004 0.0
C1756 C 0.36061 0.46357 0.83965 0.0
C1757 C 0.35064 0.42165 0.83653 0.0
C1758 C 0.25653 0.49105 0.8687 0.0
C1759 C 0.40284 0.48298 0.82937 0.0
H1760 H 0.31079 0.60281 0.79089 0.0
H1761 H 0.35522 0.61372 0.91768 0.0
H1762 H 0.33287 0.50324 0.7677 0.0
H1763 H 0.2802 0.50658 0.77651 0.0
H1764 H 0.30902 0.5434 0.74869 0.0
H1765 H 0.38359 0.56131 0.94673 0.0
H1766 H 0.33964 0.52192 0.93772 0.0
H1767 H 0.38734 0.51582 0.91673 0.0
H1768 H 0.24989 0.41104 0.85812 0.0
H1769 H 0.37275 0.40368 0.82559 0.0
H1770 H 0.24913 0.50848 0.84283 0.0
H1771 H 0.26745 0.51249 0.89576 0.0
H1772 H 0.22746 0.47172 0.8749 0.0
H1773 H 0.42112 0.46091 0.81659 0.0
H1774 H 0.42057 0.49918 0.85722 0.0
H1775 H 0.39969 0.50523 0.80692 0.0
C1776 C 0.16772 0.4438 0.50674 0.0
C1777 C 0.13846 0.45201 0.47633 0.0
C1778 C 0.20888 0.44144 0.49898 0.0
C1779 C 0.22145 0.44626 0.45935 0.0
C1780 C 0.19125 0.45137 0.42773 0.0
C1781 C 0.1504 0.45497 0.43668 0.0
C1782 C 0.23913 0.43589 0.5342 0.0
C1783 C 0.20201 0.45301 0.38448 0.0
C1784 C 0.33524 0.49252 0.4661 0.0
C1785 C 0.3554 0.45961 0.45743 0.0
C1786 C 0.29178 0.48882 0.46365 0.0
C1787 C 0.26694 0.45107 0.45303 0.0
C1788 C 0.28669 0.41801 0.44196 0.0
C1789 C 0.33065 0.42267 0.44433 0.0
C1790 C 0.27243 0.52547 0.47347 0.0
C1791 C 0.26209 0.37723 0.42899 0.0
H1792 H 0.15891 0.4399 0.53727 0.0
H1793 H 0.12779 0.45976 0.41256 0.0
H1794 H 0.26442 0.42033 0.52417 0.0
H1795 H 0.25351 0.46562 0.54912 0.0
H1796 H 0.22306 0.41883 0.5574 0.0
H1797 H 0.17573 0.45869 0.36359 0.0
H1798 H 0.22888 0.47675 0.38326 0.0
H1799 H 0.21107 0.42429 0.37365 0.0
H1800 H 0.35343 0.52161 0.47533 0.0
H1801 H 0.34553 0.39723 0.43679 0.0
H1802 H 0.25806 0.52305 0.50273 0.0
H1803 H 0.24748 0.52781 0.44942 0.0
H1804 H 0.29556 0.55334 0.47615 0.0
H1805 H 0.26533 0.35765 0.45395 0.0
H1806 H 0.27477 0.3638 0.40198 0.0
H1807 H 0.22855 0.37753 0.42148 0.0
C1808 C 0.77347 0.71068 0.91493 0.0
C1809 C 0.78126 0.74852 0.90006 0.0
C1810 C 0.76818 0.70643 0.95619 0.0
C1811 C 0.77235 0.74082 0.98383 0.0
C1812 C 0.78062 0.77914 0.96927 0.0
C1813 C 0.78414 0.78254 0.92745 0.0
C1814 C 0.75828 0.66506 0.97023 0.0
C1815 C 0.78624 0.81659 0.99789 0.0
C1816 C 0.72738 0.73669 0.08647 0.0
C1817 C 0.76241 0.73364 0.1125 0.0
C1818 C 0.72974 0.73741 0.04426 0.0
C1819 C 0.7685 0.73661 0.02802 0.0
C1820 C 0.8038 0.73265 0.05421 0.0
C1821 C 0.80015 0.73064 0.09615 0.0
C1822 C 0.6911 0.74045 0.01733 0.0
C1823 C 0.84594 0.73289 0.03833 0.0
H1824 H 0.77147 0.68407 0.89433 0.0
H1825 H 0.79001 0.81189 0.91645 0.0
H1826 H 0.78383 0.65961 0.9921 0.0
H1827 H 0.7296 0.66239 0.98645 0.0
H1828 H 0.75381 0.64143 0.9445 0.0
H1829 H 0.7966 0.84375 0.98233 0.0
H1830 H 0.75646 0.81961 0.0108 0.0
H1831 H 0.80949 0.81496 0.02377 0.0
H1832 H 0.6984 0.7397 0.09937 0.0
H1833 H 0.82749 0.72953 0.11654 0.0
H1834 H 0.68665 0.71741 0.99111 0.0
H1835 H 0.69451 0.76999 0.00481 0.0
H1836 H 0.66276 0.7368 0.03412 0.0
H1837 H 0.84427 0.70912 0.01315 0.0
H1838 H 0.87001 0.72849 0.06245 0.0
H1839 H 0.85599 0.7618 0.02574 0.0
C1840 C 0.48058 0.53615 0.3502 0.0
C1841 C 0.50945 0.52218 0.37666 0.0
C1842 C 0.48597 0.5367 0.30827 0.0
C1843 C 0.52088 0.52275 0.29269 0.0
C1844 C 0.55141 0.51119 0.31998 0.0
C1845 C 0.54523 0.51093 0.36151 0.0
C1846 C 0.45293 0.54972 0.28033 0.0
C1847 C 0.5896 0.49708 0.30506 0.0
C1848 C 0.51229 0.4797 0.18153 0.0
C1849 C 0.53023 0.51268 0.16228 0.0
C1850 C 0.50886 0.48258 0.22394 0.0
C1851 C 0.52491 0.51891 0.24784 0.0
C1852 C 0.54496 0.55153 0.22885 0.0
C1853 C 0.54682 0.54817 0.18646 0.0
C1854 C 0.48688 0.44716 0.24303 0.0
C1855 C 0.56348 0.59048 0.25308 0.0
H1856 H 0.45242 0.5439 0.36168 0.0
H1857 H 0.56739 0.49977 0.382 0.0
H1858 H 0.46709 0.57038 0.25898 0.0
H1859 H 0.43509 0.52321 0.26172 0.0
H1860 H 0.43106 0.56477 0.29761 0.0
H1861 H 0.61207 0.4925 0.33058 0.0
H1862 H 0.58036 0.46844 0.28589 0.0
H1863 H 0.60548 0.51898 0.28579 0.0
H1864 H 0.49923 0.45224 0.16331 0.0
H1865 H 0.56065 0.57391 0.17218 0.0
H1866 H 0.45996 0.45561 0.25814 0.0
H1867 H 0.50815 0.43778 0.26691 0.0
H1868 H 0.47555 0.42129 0.22031 0.0
H1869 H 0.53831 0.60493 0.26529 0.0
H1870 H 0.58151 0.61157 0.23439 0.0
H1871 H 0.58429 0.58507 0.27952 0.0
C1872 C 0.75811 0.22018 0.4464 0.0
C1873 C 0.76384 0.25273 0.42262 0.0
C1874 C 0.7619 0.22592 0.48919 0.0
C1875 C 0.77261 0.2651 0.50871 0.0
C1876 C 0.77792 0.29806 0.48495 0.0
C1877 C 0.7729 0.29153 0.44232 0.0
C1878 C 0.75545 0.1899 0.5134 0.0
C1879 C 0.79006 0.34022 0.50452 0.0
C1880 C 0.75414 0.27873 0.6209 0.0
C1881 C 0.79271 0.27386 0.63954 0.0
C1882 C 0.74734 0.27716 0.57819 0.0
C1883 C 0.78021 0.27137 0.55392 0.0
C1884 C 0.82001 0.26924 0.57294 0.0
C1885 C 0.8256 0.27 0.61551 0.0
C1886 C 0.70427 0.27873 0.55902 0.0
C1887 C 0.85613 0.26384 0.54834 0.0
H1888 H 0.75079 0.19012 0.43166 0.0
H1889 H 0.77683 0.31705 0.42448 0.0
H1890 H 0.78603 0.18418 0.52646 0.0
H1891 H 0.7365 0.19508 0.53914 0.0
H1892 H 0.73984 0.16274 0.49421 0.0
H1893 H 0.79222 0.36268 0.48171 0.0
H1894 H 0.7671 0.34706 0.52594 0.0
H1895 H 0.82064 0.34329 0.52255 0.0
H1896 H 0.72845 0.2807 0.63945 0.0
H1897 H 0.85531 0.26577 0.63001 0.0
H1898 H 0.69073 0.24908 0.54334 0.0
H1899 H 0.70556 0.30056 0.53566 0.0
H1900 H 0.68317 0.2869 0.58192 0.0
H1901 H 0.85098 0.23317 0.53297 0.0
H1902 H 0.88608 0.26846 0.56772 0.0
H1903 H 0.85873 0.28493 0.52427 0.0
C1904 C 0.95939 0.39774 0.68324 0.0
C1905 C 0.97476 0.42951 0.6609 0.0
C1906 C 0.96298 0.40178 0.7261 0.0
C1907 C 0.98296 0.43823 0.74723 0.0
C1908 C 0.9962 0.47114 0.72492 0.0
C1909 C 0.99137 0.46655 0.68208 0.0
C1910 C 0.94704 0.36651 0.74883 0.0
C1911 C 0.01805 0.5105 0.74611 0.0
C1912 C 0.97479 0.46032 0.8608 0.0
C1913 C 0.01344 0.45342 0.87747 0.0
C1914 C 0.96416 0.45513 0.81847 0.0
C1915 C 0.9923 0.44128 0.79244 0.0
C1916 C 0.03051 0.43219 0.80953 0.0
C1917 C 0.04087 0.43894 0.85187 0.0
C1918 C 0.92416 0.46706 0.80141 0.0
C1919 C 0.06156 0.4177 0.78287 0.0
H1920 H 0.94616 0.36909 0.66726 0.0
H1921 H 1.00337 0.49135 0.66529 0.0
H1922 H 0.97329 0.35684 0.76665 0.0
H1923 H 0.92544 0.37524 0.77082 0.0
H1924 H 0.93051 0.34087 0.72805 0.0
H1925 H 0.02214 0.53434 0.72486 0.0
H1926 H 1.00059 0.52041 0.7714 0.0
H1927 H 0.04921 0.50683 0.75962 0.0
H1928 H 0.95389 0.47202 0.88072 0.0
H1929 H 0.07113 0.43449 0.8648 0.0
H1930 H 0.90642 0.44281 0.77971 0.0
H1931 H 0.93128 0.49365 0.78418 0.0
H1932 H 0.90423 0.47446 0.82571 0.0
H1933 H 0.0463 0.39186 0.7617 0.0
H1934 H 0.08816 0.40883 0.80096 0.0
H1935 H 0.07383 0.44175 0.76403 0.0
C1936 C 0.85937 0.05962 0.51344 0.0
C1937 C 0.87243 0.03072 0.53732 0.0
C1938 C 0.81687 0.06175 0.5055 0.0
C1939 C 0.78677 0.03585 0.52379 0.0
C1940 C 0.80023 0.00916 0.55097 0.0
C1941 C 0.84269 0.00614 0.55648 0.0
C1942 C 0.80421 0.08976 0.47528 0.0
C1943 C 0.76964 0.98286 0.57334 0.0
C1944 C 0.67509 0.05691 0.5212 0.0
C1945 C 0.65438 0.02713 0.49179 0.0
C1946 C 0.71808 0.06022 0.53206 0.0
C1947 C 0.74128 0.03405 0.51196 0.0
C1948 C 0.7206 0.00482 0.48123 0.0
C1949 C 0.67742 0.00138 0.47194 0.0
C1950 C 0.73826 0.09067 0.56613 0.0
C1951 C 0.74397 0.97649 0.45875 0.0
H1952 H 0.88218 0.07907 0.49894 0.0
H1953 H 0.85263 0.98427 0.57564 0.0
H1954 H 0.79093 0.07216 0.44632 0.0
H1955 H 0.7798 0.10582 0.4865 0.0
H1956 H 0.83096 0.11202 0.46868 0.0
H1957 H 0.78544 0.96842 0.59779 0.0
H1958 H 0.74763 0.00051 0.58713 0.0
H1959 H 0.75108 0.95913 0.55164 0.0
H1960 H 0.65728 0.07634 0.53727 0.0
H1961 H 0.66152 0.97816 0.44937 0.0
H1962 H 0.76159 0.11294 0.55409 0.0
H1963 H 0.75484 0.07595 0.58976 0.0
H1964 H 0.71539 0.10667 0.58079 0.0
H1965 H 0.72391 0.95714 0.43407 0.0
H1966 H 0.75681 0.95704 0.4802 0.0
H1967 H 0.77061 0.99359 0.44549 0.0
loop_
_geom_bond_atom_site_label_1
_geom_bond_atom_site_label_2
_geom_bond_distance
_geom_bond_site_symmetry_2
_ccdc_geom_bond_type
Co0 O2 2.143 . S
Co0 O8 2.074 . S
Co0 O11 2.093 . S
Co0 O24 2.097 . S
Co0 N41 2.151 . S
Co0 N49 2.214 . S
Co1 O2 2.160 . S
Co1 O7 2.058 . S
Co1 O17 2.057 . S
Co1 O32 2.037 . S
Co1 N36 2.145 . S
Co1 N57 2.257 . S
O2 Co0 2.143 . S
O2 Co1 2.160 . S
C3 O4 1.278 . S
C3 O11 1.224 . S
O4 C3 1.278 . S
C5 O6 1.245 . S
C5 O17 1.232 . S
O6 C5 1.245 . S
O7 Co1 2.058 . S
O7 C33 1.269 . S
O8 Co0 2.074 . S
O8 C33 1.257 . S
H9 C34 0.930 . S
H10 C40 0.930 . S
O11 Co0 2.093 . S
O11 C3 1.224 . S
H12 C44 0.929 . S
H13 C46 0.930 . S
H14 C47 0.930 . S
H15 C45 0.929 . S
H16 C48 0.928 . S
O17 Co1 2.057 . S
O17 C5 1.232 . S
H18 C37 0.929 . S
H19 C38 0.929 . S
H20 C50 0.931 . S
H21 C42 0.929 . S
H22 C51 0.930 . S
H23 C43 0.931 . S
O24 Co0 2.097 . S
O24 C52 1.214 . S
H25 C53 0.929 . S
H26 C54 0.929 . S
H27 C55 0.930 . S
H28 C56 0.929 . S
H29 C58 0.930 . S
H30 C35 0.930 . S
H31 C39 0.930 . S
O32 Co1 2.037 . S
O32 C52 1.234 . S
C33 O7 1.269 . S
C33 O8 1.257 . S
C34 H9 0.930 . S
C34 C37 1.388 . S
C34 C39 1.418 . S
C35 H30 0.930 . S
C35 C38 1.404 . S
C35 C39 1.353 . S
N36 Co1 2.145 . S
N36 C37 1.397 . S
N36 C38 1.334 . S
C37 H18 0.929 . S
C37 C34 1.388 . S
C37 N36 1.397 . S
C38 H19 0.929 . S
C38 C35 1.404 . S
C38 N36 1.334 . S
C39 H31 0.930 . S
C39 C34 1.418 . S
C39 C35 1.353 . S
C40 H10 0.930 . S
C40 N41 1.330 . S
C40 C42 1.446 . S
N41 Co0 2.151 . S
N41 C40 1.330 . S
N41 C45 1.418 . S
C42 H21 0.929 . S
C42 C40 1.446 . S
C42 C43 1.332 . S
C43 H23 0.931 . S
C43 C42 1.332 . S
C43 C44 1.267 . S
C44 H12 0.929 . S
C44 C43 1.267 . S
C44 C45 1.251 . S
C45 H15 0.929 . S
C45 N41 1.418 . S
C45 C44 1.251 . S
C46 H13 0.930 . S
C46 C48 1.406 . S
C46 C51 1.261 . S
C47 H14 0.930 . S
C47 N49 1.325 . S
C47 C50 1.357 . S
C48 H16 0.928 . S
C48 C46 1.406 . S
C48 N49 1.261 . S
N49 Co0 2.214 . S
N49 C47 1.325 . S
N49 C48 1.261 . S
C50 H20 0.931 . S
C50 C47 1.357 . S
C50 C51 1.312 . S
C51 H22 0.930 . S
C51 C46 1.261 . S
C51 C50 1.312 . S
C52 O24 1.214 . S
C52 O32 1.234 . S
C53 H25 0.929 . S
C53 C56 1.391 . S
C53 C58 1.391 . S
C54 H26 0.929 . S
C54 C55 1.390 . S
C54 N57 1.391 . S
C55 H27 0.930 . S
C55 C54 1.390 . S
C55 C56 1.392 . S
C56 H28 0.929 . S
C56 C53 1.391 . S
C56 C55 1.392 . S
N57 Co1 2.257 . S
N57 C54 1.391 . S
N57 C58 1.388 . S
C58 H29 0.930 . S
C58 C53 1.391 . S
C58 N57 1.388 . S
Co59 O61 2.143 . S
Co59 O67 2.074 . S
Co59 O70 2.093 . S
Co59 O83 2.097 . S
Co59 N100 2.151 1_655 S
Co59 N108 2.214 . S
Co60 O61 2.160 1_565 S
Co60 O66 2.058 . S
Co60 O76 2.057 1_655 S
Co60 O91 2.037 . S
Co60 N95 2.145 . S
Co60 N116 2.257 . S
O61 Co59 2.143 . S
O61 Co60 2.160 1_545 S
C62 O63 1.278 . S
C62 O70 1.224 . S
O63 C62 1.278 . S
C64 O65 1.245 1_565 S
C64 O76 1.232 . S
O65 C64 1.245 1_545 S
O66 Co60 2.058 . S
O66 C92 1.269 . S
O67 Co59 2.074 . S
O67 C92 1.257 1_545 S
H68 C93 0.930 . S
H69 C99 0.930 . S
O70 Co59 2.093 . S
O70 C62 1.224 . S
H71 C103 0.929 . S
H72 C105 0.930 . S
H73 C106 0.930 . S
H74 C104 0.929 . S
H75 C107 0.928 . S
O76 Co60 2.057 1_455 S
O76 C64 1.232 . S
H77 C96 0.929 . S
H78 C97 0.929 . S
H79 C109 0.931 . S
H80 C101 0.929 . S
H81 C110 0.930 . S
H82 C102 0.931 . S
O83 Co59 2.097 . S
O83 C111 1.214 . S
H84 C112 0.929 . S
H85 C113 0.929 . S
H86 C114 0.930 . S
H87 C115 0.929 1_545 S
H88 C117 0.930 1_545 S
H89 C94 0.930 . S
H90 C98 0.930 . S
O91 Co60 2.037 . S
O91 C111 1.234 1_565 S
C92 O66 1.269 . S
C92 O67 1.257 1_565 S
C93 H68 0.930 . S
C93 C96 1.388 . S
C93 C98 1.418 . S
C94 H89 0.930 . S
C94 C97 1.404 . S
C94 C98 1.353 . S
N95 Co60 2.145 . S
N95 C96 1.397 . S
N95 C97 1.334 . S
C96 H77 0.929 . S
C96 C93 1.388 . S
C96 N95 1.397 . S
C97 H78 0.929 . S
C97 C94 1.404 . S
C97 N95 1.334 . S
C98 H90 0.930 . S
C98 C93 1.418 . S
C98 C94 1.353 . S
C99 H69 0.930 . S
C99 N100 1.330 . S
C99 C101 1.446 . S
N100 Co59 2.151 1_455 S
N100 C99 1.330 . S
N100 C104 1.418 . S
C101 H80 0.929 . S
C101 C99 1.446 . S
C101 C102 1.332 . S
C102 H82 0.931 . S
C102 C101 1.332 . S
C102 C103 1.267 . S
C103 H71 0.929 . S
C103 C102 1.267 . S
C103 C104 1.251 . S
C104 H74 0.929 . S
C104 N100 1.418 . S
C104 C103 1.251 . S
C105 H72 0.930 . S
C105 C107 1.406 . S
C105 C110 1.261 . S
C106 H73 0.930 . S
C106 N108 1.325 . S
C106 C109 1.357 . S
C107 H75 0.928 . S
C107 C105 1.406 . S
C107 N108 1.261 . S
N108 Co59 2.214 . S
N108 C106 1.325 . S
N108 C107 1.261 . S
C109 H79 0.931 . S
C109 C106 1.357 . S
C109 C110 1.312 . S
C110 H81 0.930 . S
C110 C105 1.261 . S
C110 C109 1.312 . S
C111 O83 1.214 . S
C111 O91 1.234 1_545 S
C112 H84 0.929 . S
C112 C115 1.391 1_545 S
C112 C117 1.391 1_545 S
C113 H85 0.929 . S
C113 C114 1.390 . S
C113 N116 1.391 . S
C114 H86 0.930 . S
C114 C113 1.390 . S
C114 C115 1.392 . S
C115 H87 0.929 1_565 S
C115 C112 1.391 1_565 S
C115 C114 1.392 . S
N116 Co60 2.257 . S
N116 C113 1.391 . S
N116 C117 1.389 . S
C117 H88 0.930 1_565 S
C117 C112 1.391 1_565 S
C117 N116 1.389 . S
Co118 O120 2.143 . S
Co118 O126 2.074 . S
Co118 O129 2.093 . S
Co118 O142 2.097 . S
Co118 N159 2.151 . S
Co118 N167 2.214 . S
Co119 O120 2.160 . S
Co119 O125 2.058 . S
Co119 O135 2.057 . S
Co119 O150 2.037 . S
Co119 N154 2.145 . S
Co119 N175 2.257 . S
O120 Co118 2.143 . S
O120 Co119 2.160 . S
C121 O122 1.278 . S
C121 O129 1.224 . S
O122 C121 1.278 . S
C123 O124 1.245 . S
C123 O135 1.232 . S
O124 C123 1.245 . S
O125 Co119 2.058 . S
O125 C151 1.269 . S
O126 Co118 2.074 . S
O126 C151 1.257 . S
H127 C152 0.930 . S
H128 C158 0.930 . S
O129 Co118 2.093 . S
O129 C121 1.224 . S
H130 C162 0.929 . S
H131 C164 0.930 . S
H132 C165 0.930 . S
H133 C163 0.929 . S
H134 C166 0.928 . S
O135 Co119 2.057 . S
O135 C123 1.232 . S
H136 C155 0.929 . S
H137 C156 0.929 . S
H138 C168 0.931 . S
H139 C160 0.929 . S
H140 C169 0.930 . S
H141 C161 0.931 . S
O142 Co118 2.097 . S
O142 C170 1.214 . S
H143 C171 0.929 . S
H144 C172 0.929 . S
H145 C173 0.930 . S
H146 C174 0.929 . S
H147 C176 0.930 . S
H148 C153 0.930 . S
H149 C157 0.930 . S
O150 Co119 2.037 . S
O150 C170 1.234 . S
C151 O125 1.269 . S
C151 O126 1.257 . S
C152 H127 0.930 . S
C152 C155 1.388 . S
C152 C157 1.418 . S
C153 H148 0.930 . S
C153 C156 1.404 . S
C153 C157 1.353 . S
N154 Co119 2.145 . S
N154 C155 1.397 . S
N154 C156 1.334 . S
C155 H136 0.929 . S
C155 C152 1.388 . S
C155 N154 1.397 . S
C156 H137 0.929 . S
C156 C153 1.404 . S
C156 N154 1.334 . S
C157 H149 0.930 . S
C157 C152 1.418 . S
C157 C153 1.353 . S
C158 H128 0.930 . S
C158 N159 1.330 . S
C158 C160 1.446 . S
N159 Co118 2.151 . S
N159 C158 1.330 . S
N159 C163 1.418 . S
C160 H139 0.929 . S
C160 C158 1.446 . S
C160 C161 1.332 . S
C161 H141 0.931 . S
C161 C160 1.332 . S
C161 C162 1.267 . S
C162 H130 0.929 . S
C162 C161 1.267 . S
C162 C163 1.251 . S
C163 H133 0.929 . S
C163 N159 1.418 . S
C163 C162 1.251 . S
C164 H131 0.930 . S
C164 C166 1.406 . S
C164 C169 1.261 . S
C165 H132 0.930 . S
C165 N167 1.325 . S
C165 C168 1.357 . S
C166 H134 0.928 . S
C166 C164 1.406 . S
C166 N167 1.261 . S
N167 Co118 2.214 . S
N167 C165 1.325 . S
N167 C166 1.261 . S
C168 H138 0.931 . S
C168 C165 1.357 . S
C168 C169 1.312 . S
C169 H140 0.930 . S
C169 C164 1.261 . S
C169 C168 1.312 . S
C170 O142 1.214 . S
C170 O150 1.234 . S
C171 H143 0.929 . S
C171 C174 1.391 . S
C171 C176 1.391 . S
C172 H144 0.929 . S
C172 C173 1.390 . S
C172 N175 1.391 . S
C173 H145 0.930 . S
C173 C172 1.390 . S
C173 C174 1.392 . S
C174 H146 0.929 . S
C174 C171 1.391 . S
C174 C173 1.392 . S
N175 Co119 2.257 . S
N175 C172 1.391 . S
N175 C176 1.388 . S
C176 H147 0.930 . S
C176 C171 1.391 . S
C176 N175 1.388 . S
Co177 O179 2.143 . S
Co177 O185 2.074 1_554 S
Co177 O188 2.093 . S
Co177 O201 2.097 . S
Co177 N218 2.151 . S
Co177 N226 2.214 . S
Co178 O179 2.160 1_556 S
Co178 O184 2.058 . S
Co178 O194 2.057 . S
Co178 O209 2.037 . S
Co178 N213 2.145 . S
Co178 N234 2.257 . S
O179 Co177 2.143 . S
O179 Co178 2.160 1_554 S
C180 O181 1.278 . S
C180 O188 1.224 . S
O181 C180 1.278 . S
C182 O183 1.245 . S
C182 O194 1.232 1_545 S
O183 C182 1.245 . S
O184 Co178 2.058 . S
O184 C210 1.269 . S
O185 Co177 2.074 1_556 S
O185 C210 1.257 . S
H186 C211 0.930 . S
H187 C217 0.930 . S
O188 Co177 2.093 . S
O188 C180 1.224 . S
H189 C221 0.929 . S
H190 C223 0.930 . S
H191 C224 0.930 . S
H192 C222 0.929 1_565 S
H193 C225 0.928 . S
O194 Co178 2.057 . S
O194 C182 1.232 1_565 S
H195 C214 0.929 . S
H196 C215 0.929 . S
H197 C227 0.931 . S
H198 C219 0.929 . S
H199 C228 0.930 . S
H200 C220 0.931 . S
O201 Co177 2.097 . S
O201 C229 1.214 1_554 S
H202 C230 0.929 . S
H203 C231 0.929 . S
H204 C232 0.930 . S
H205 C233 0.929 . S
H206 C235 0.930 . S
H207 C212 0.930 . S
H208 C216 0.930 . S
O209 Co178 2.037 . S
O209 C229 1.234 . S
C210 O184 1.269 . S
C210 O185 1.257 . S
C211 H186 0.930 . S
C211 C214 1.388 . S
C211 C216 1.418 . S
C212 H207 0.930 . S
C212 C215 1.404 . S
C212 C216 1.353 . S
N213 Co178 2.145 . S
N213 C214 1.397 . S
N213 C215 1.334 . S
C214 H195 0.929 . S
C214 C211 1.388 . S
C214 N213 1.397 . S
C215 H196 0.929 . S
C215 C212 1.404 . S
C215 N213 1.334 . S
C216 H208 0.930 . S
C216 C211 1.418 . S
C216 C212 1.353 . S
C217 H187 0.930 . S
C217 N218 1.330 1_545 S
C217 C219 1.446 . S
N218 Co177 2.151 . S
N218 C217 1.330 1_565 S
N218 C222 1.418 1_565 S
C219 H198 0.929 . S
C219 C217 1.446 . S
C219 C220 1.332 . S
C220 H200 0.931 . S
C220 C219 1.332 . S
C220 C221 1.267 . S
C221 H189 0.929 . S
C221 C220 1.267 . S
C221 C222 1.251 . S
C222 H192 0.929 1_545 S
C222 N218 1.418 1_545 S
C222 C221 1.251 . S
C223 H190 0.930 . S
C223 C225 1.406 . S
C223 C228 1.261 . S
C224 H191 0.930 . S
C224 N226 1.325 . S
C224 C227 1.357 . S
C225 H193 0.928 . S
C225 C223 1.406 . S
C225 N226 1.261 . S
N226 Co177 2.214 . S
N226 C224 1.325 . S
N226 C225 1.261 . S
C227 H197 0.931 . S
C227 C224 1.357 . S
C227 C228 1.312 . S
C228 H199 0.930 . S
C228 C223 1.261 . S
C228 C227 1.312 . S
C229 O201 1.214 1_556 S
C229 O209 1.234 . S
C230 H202 0.929 . S
C230 C233 1.391 . S
C230 C235 1.391 . S
C231 H203 0.929 . S
C231 C232 1.390 . S
C231 N234 1.391 . S
C232 H204 0.930 . S
C232 C231 1.390 . S
C232 C233 1.392 . S
C233 H205 0.929 . S
C233 C230 1.391 . S
C233 C232 1.392 . S
N234 Co178 2.257 . S
N234 C231 1.391 . S
N234 C235 1.388 . S
C235 H206 0.930 . S
C235 C230 1.391 . S
C235 N234 1.388 . S
Co236 O238 2.143 . S
Co236 O244 2.074 . S
Co236 O247 2.093 . S
Co236 O260 2.097 . S
Co236 N277 2.151 . S
Co236 N285 2.214 . S
Co237 O238 2.160 . S
Co237 O243 2.058 . S
Co237 O253 2.057 . S
Co237 O268 2.037 . S
Co237 N272 2.145 . S
Co237 N293 2.257 . S
O238 Co236 2.143 . S
O238 Co237 2.160 . S
C239 O240 1.278 . S
C239 O247 1.224 . S
O240 C239 1.278 . S
C241 O242 1.245 . S
C241 O253 1.232 . S
O242 C241 1.245 . S
O243 Co237 2.058 . S
O243 C269 1.269 . S
O244 Co236 2.074 . S
O244 C269 1.257 . S
H245 C270 0.930 . S
H246 C276 0.930 . S
O247 Co236 2.093 . S
O247 C239 1.224 . S
H248 C280 0.929 . S
H249 C282 0.930 . S
H250 C283 0.930 . S
H251 C281 0.929 . S
H252 C284 0.928 . S
O253 Co237 2.057 . S
O253 C241 1.232 . S
H254 C273 0.929 . S
H255 C274 0.929 . S
H256 C286 0.931 . S
H257 C278 0.929 . S
H258 C287 0.930 . S
H259 C279 0.931 . S
O260 Co236 2.097 . S
O260 C288 1.214 . S
H261 C289 0.929 . S
H262 C290 0.929 . S
H263 C291 0.930 . S
H264 C292 0.929 . S
H265 C294 0.930 . S
H266 C271 0.930 . S
H267 C275 0.930 . S
O268 Co237 2.037 . S
O268 C288 1.234 . S
C269 O243 1.269 . S
C269 O244 1.257 . S
C270 H245 0.930 . S
C270 C273 1.388 . S
C270 C275 1.418 . S
C271 H266 0.930 . S
C271 C274 1.404 . S
C271 C275 1.353 . S
N272 Co237 2.145 . S
N272 C273 1.397 . S
N272 C274 1.334 . S
C273 H254 0.929 . S
C273 C270 1.388 . S
C273 N272 1.397 . S
C274 H255 0.929 . S
C274 C271 1.404 . S
C274 N272 1.334 . S
C275 H267 0.930 . S
C275 C270 1.418 . S
C275 C271 1.353 . S
C276 H246 0.930 . S
C276 N277 1.330 . S
C276 C278 1.446 . S
N277 Co236 2.151 . S
N277 C276 1.330 . S
N277 C281 1.418 . S
C278 H257 0.929 . S
C278 C276 1.446 . S
C278 C279 1.332 . S
C279 H259 0.931 . S
C279 C278 1.332 . S
C279 C280 1.267 . S
C280 H248 0.929 . S
C280 C279 1.267 . S
C280 C281 1.251 . S
C281 H251 0.929 . S
C281 N277 1.418 . S
C281 C280 1.251 . S
C282 H249 0.930 . S
C282 C284 1.406 . S
C282 C287 1.261 . S
C283 H250 0.930 . S
C283 N285 1.325 . S
C283 C286 1.357 . S
C284 H252 0.928 . S
C284 C282 1.406 . S
C284 N285 1.261 . S
N285 Co236 2.214 . S
N285 C283 1.325 . S
N285 C284 1.261 . S
C286 H256 0.931 . S
C286 C283 1.357 . S
C286 C287 1.312 . S
C287 H258 0.930 . S
C287 C282 1.261 . S
C287 C286 1.312 . S
C288 O260 1.214 . S
C288 O268 1.234 . S
C289 H261 0.929 . S
C289 C292 1.391 . S
C289 C294 1.391 . S
C290 H262 0.929 . S
C290 C291 1.390 . S
C290 N293 1.391 . S
C291 H263 0.930 . S
C291 C290 1.390 . S
C291 C292 1.392 . S
C292 H264 0.929 . S
C292 C289 1.391 . S
C292 C291 1.392 . S
N293 Co237 2.257 . S
N293 C290 1.391 . S
N293 C294 1.388 . S
C294 H265 0.930 . S
C294 C289 1.391 . S
C294 N293 1.388 . S
Co295 O297 2.143 . S
Co295 O303 2.074 1_545 S
Co295 O306 2.093 . S
Co295 O319 2.097 . S
Co295 N336 2.151 . S
Co295 N344 2.214 . S
Co296 O297 2.160 1_565 S
Co296 O302 2.058 . S
Co296 O312 2.057 . S
Co296 O327 2.037 . S
Co296 N331 2.145 . S
Co296 N352 2.257 . S
O297 Co295 2.143 . S
O297 Co296 2.160 1_545 S
C298 O299 1.278 . S
C298 O306 1.224 . S
O299 C298 1.278 . S
C300 O301 1.245 . S
C300 O312 1.232 . S
O301 C300 1.245 . S
O302 Co296 2.058 . S
O302 C328 1.269 . S
O303 Co295 2.074 1_565 S
O303 C328 1.257 . S
H304 C329 0.930 . S
H305 C335 0.930 . S
O306 Co295 2.093 . S
O306 C298 1.224 . S
H307 C339 0.929 . S
H308 C341 0.930 . S
H309 C342 0.930 . S
H310 C340 0.929 . S
H311 C343 0.928 . S
O312 Co296 2.057 . S
O312 C300 1.232 . S
H313 C332 0.929 . S
H314 C333 0.929 . S
H315 C345 0.931 . S
H316 C337 0.929 . S
H317 C346 0.930 . S
H318 C338 0.931 . S
O319 Co295 2.097 . S
O319 C347 1.214 . S
H320 C348 0.929 . S
H321 C349 0.929 . S
H322 C350 0.930 . S
H323 C351 0.929 . S
H324 C353 0.930 . S
H325 C330 0.930 . S
H326 C334 0.930 . S
O327 Co296 2.037 . S
O327 C347 1.234 1_565 S
C328 O302 1.269 . S
C328 O303 1.257 . S
C329 H304 0.930 . S
C329 C332 1.388 . S
C329 C334 1.418 . S
C330 H325 0.930 . S
C330 C333 1.404 . S
C330 C334 1.353 . S
N331 Co296 2.145 . S
N331 C332 1.397 . S
N331 C333 1.334 . S
C332 H313 0.929 . S
C332 C329 1.388 . S
C332 N331 1.397 . S
C333 H314 0.929 . S
C333 C330 1.404 . S
C333 N331 1.334 . S
C334 H326 0.930 . S
C334 C329 1.418 . S
C334 C330 1.353 . S
C335 H305 0.930 . S
C335 N336 1.330 . S
C335 C337 1.446 . S
N336 Co295 2.151 . S
N336 C335 1.330 . S
N336 C340 1.418 . S
C337 H316 0.929 . S
C337 C335 1.446 . S
C337 C338 1.332 . S
C338 H318 0.931 . S
C338 C337 1.332 . S
C338 C339 1.267 . S
C339 H307 0.929 . S
C339 C338 1.267 . S
C339 C340 1.251 . S
C340 H310 0.929 . S
C340 N336 1.418 . S
C340 C339 1.251 . S
C341 H308 0.930 . S
C341 C343 1.406 . S
C341 C346 1.261 . S
C342 H309 0.930 . S
C342 N344 1.325 . S
C342 C345 1.357 . S
C343 H311 0.928 . S
C343 C341 1.406 . S
C343 N344 1.261 . S
N344 Co295 2.214 . S
N344 C342 1.325 . S
N344 C343 1.261 . S
C345 H315 0.931 . S
C345 C342 1.357 . S
C345 C346 1.312 . S
C346 H317 0.930 . S
C346 C341 1.261 . S
C346 C345 1.312 . S
C347 O319 1.214 . S
C347 O327 1.234 1_545 S
C348 H320 0.929 . S
C348 C351 1.391 . S
C348 C353 1.391 . S
C349 H321 0.929 . S
C349 C350 1.390 1_565 S
C349 N352 1.391 . S
C350 H322 0.930 . S
C350 C349 1.390 1_545 S
C350 C351 1.392 . S
C351 H323 0.929 . S
C351 C348 1.391 . S
C351 C350 1.392 . S
N352 Co296 2.257 . S
N352 C349 1.391 . S
N352 C353 1.388 1_565 S
C353 H324 0.930 . S
C353 C348 1.391 . S
C353 N352 1.388 1_545 S
Co354 O356 2.143 . S
Co354 O362 2.074 . S
Co354 O365 2.093 . S
Co354 O378 2.097 . S
Co354 N395 2.151 . S
Co354 N403 2.214 . S
Co355 O356 2.160 . S
Co355 O361 2.058 . S
Co355 O371 2.057 . S
Co355 O386 2.037 . S
Co355 N390 2.145 . S
Co355 N411 2.257 . S
O356 Co354 2.143 . S
O356 Co355 2.160 . S
C357 O358 1.278 . S
C357 O365 1.224 . S
O358 C357 1.278 . S
C359 O360 1.245 . S
C359 O371 1.232 . S
O360 C359 1.245 . S
O361 Co355 2.058 . S
O361 C387 1.269 . S
O362 Co354 2.074 . S
O362 C387 1.257 . S
H363 C388 0.930 . S
H364 C394 0.930 . S
O365 Co354 2.093 . S
O365 C357 1.224 . S
H366 C398 0.929 . S
H367 C400 0.930 . S
H368 C401 0.930 . S
H369 C399 0.929 . S
H370 C402 0.928 . S
O371 Co355 2.057 . S
O371 C359 1.232 . S
H372 C391 0.929 . S
H373 C392 0.929 . S
H374 C404 0.931 . S
H375 C396 0.929 . S
H376 C405 0.930 . S
H377 C397 0.931 . S
O378 Co354 2.097 . S
O378 C406 1.214 . S
H379 C407 0.929 . S
H380 C408 0.929 . S
H381 C409 0.930 . S
H382 C410 0.929 . S
H383 C412 0.930 . S
H384 C389 0.930 . S
H385 C393 0.930 . S
O386 Co355 2.037 . S
O386 C406 1.234 . S
C387 O361 1.269 . S
C387 O362 1.257 . S
C388 H363 0.930 . S
C388 C391 1.388 . S
C388 C393 1.418 . S
C389 H384 0.930 . S
C389 C392 1.404 . S
C389 C393 1.353 . S
N390 Co355 2.145 . S
N390 C391 1.397 . S
N390 C392 1.334 . S
C391 H372 0.929 . S
C391 C388 1.388 . S
C391 N390 1.397 . S
C392 H373 0.929 . S
C392 C389 1.404 . S
C392 N390 1.334 . S
C393 H385 0.930 . S
C393 C388 1.418 . S
C393 C389 1.353 . S
C394 H364 0.930 . S
C394 N395 1.330 . S
C394 C396 1.446 . S
N395 Co354 2.151 . S
N395 C394 1.330 . S
N395 C399 1.418 . S
C396 H375 0.929 . S
C396 C394 1.446 . S
C396 C397 1.332 . S
C397 H377 0.931 . S
C397 C396 1.332 . S
C397 C398 1.267 . S
C398 H366 0.929 . S
C398 C397 1.267 . S
C398 C399 1.251 . S
C399 H369 0.929 . S
C399 N395 1.418 . S
C399 C398 1.251 . S
C400 H367 0.930 . S
C400 C402 1.406 . S
C400 C405 1.261 . S
C401 H368 0.930 . S
C401 N403 1.325 . S
C401 C404 1.357 . S
C402 H370 0.928 . S
C402 C400 1.406 . S
C402 N403 1.261 . S
N403 Co354 2.214 . S
N403 C401 1.325 . S
N403 C402 1.261 . S
C404 H374 0.931 . S
C404 C401 1.357 . S
C404 C405 1.312 . S
C405 H376 0.930 . S
C405 C400 1.261 . S
C405 C404 1.312 . S
C406 O378 1.214 . S
C406 O386 1.234 . S
C407 H379 0.929 . S
C407 C410 1.391 . S
C407 C412 1.391 . S
C408 H380 0.929 . S
C408 C409 1.390 . S
C408 N411 1.391 . S
C409 H381 0.930 . S
C409 C408 1.390 . S
C409 C410 1.392 . S
C410 H382 0.929 . S
C410 C407 1.391 . S
C410 C409 1.392 . S
N411 Co355 2.257 . S
N411 C408 1.391 . S
N411 C412 1.388 . S
C412 H383 0.930 . S
C412 C407 1.391 . S
C412 N411 1.388 . S
Co413 O415 2.143 . S
Co413 O421 2.074 . S
Co413 O424 2.093 . S
Co413 O437 2.097 . S
Co413 N454 2.151 1_655 S
Co413 N462 2.214 . S
Co414 O415 2.160 1_545 S
Co414 O420 2.058 . S
Co414 O430 2.057 1_656 S
Co414 O445 2.037 1_545 S
Co414 N449 2.145 1_556 S
Co414 N470 2.257 1_546 S
O415 Co413 2.143 . S
O415 Co414 2.160 1_565 S
C416 O417 1.278 . S
C416 O424 1.224 1_554 S
O417 C416 1.278 . S
C418 O419 1.245 1_545 S
C418 O430 1.232 . S
O419 C418 1.245 1_565 S
O420 Co414 2.058 . S
O420 C446 1.269 1_545 S
O421 Co413 2.074 . S
O421 C446 1.257 . S
H422 C447 0.930 . S
H423 C453 0.930 . S
O424 Co413 2.093 . S
O424 C416 1.224 1_556 S
H425 C457 0.929 . S
H426 C459 0.930 . S
H427 C460 0.930 . S
H428 C458 0.929 . S
H429 C461 0.928 . S
O430 Co414 2.057 1_454 S
O430 C418 1.232 . S
H431 C450 0.929 . S
H432 C451 0.913 1_455 S
H433 C463 0.931 . S
H434 C455 0.929 . S
H435 C464 0.930 . S
H436 C456 0.931 . S
O437 Co413 2.097 . S
O437 C465 1.214 . S
H438 C466 0.929 . S
H439 C467 0.930 1_545 S
H440 C468 0.930 . S
H441 C469 0.929 . S
H442 C471 0.930 1_455 S
H443 C448 0.930 . S
H444 C452 0.930 . S
O445 Co414 2.037 1_565 S
O445 C465 1.234 . S
C446 O420 1.269 1_565 S
C446 O421 1.257 . S
C447 H422 0.930 . S
C447 C450 1.388 . S
C447 C452 1.418 1_556 S
C448 H443 0.930 . S
C448 C451 1.404 . S
C448 C452 1.353 . S
N449 Co414 2.145 1_554 S
N449 C450 1.397 1_554 S
N449 C451 1.334 . S
C450 H431 0.929 . S
C450 C447 1.388 . S
C450 N449 1.397 1_556 S
C451 H432 0.913 1_655 S
C451 C448 1.404 . S
C451 N449 1.334 . S
C452 H444 0.930 . S
C452 C447 1.418 1_554 S
C452 C448 1.353 . S
C453 H423 0.930 . S
C453 N454 1.330 . S
C453 C455 1.446 . S
N454 Co413 2.151 1_455 S
N454 C453 1.330 . S
N454 C458 1.418 . S
C455 H434 0.929 . S
C455 C453 1.446 . S
C455 C456 1.332 . S
C456 H436 0.931 . S
C456 C455 1.332 . S
C456 C457 1.267 . S
C457 H425 0.929 . S
C457 C456 1.267 . S
C457 C458 1.251 . S
C458 H428 0.929 . S
C458 N454 1.418 . S
C458 C457 1.251 . S
C459 H426 0.930 . S
C459 C461 1.406 . S
C459 C464 1.261 . S
C460 H427 0.930 . S
C460 N462 1.325 . S
C460 C463 1.357 . S
C461 H429 0.928 . S
C461 C459 1.406 . S
C461 N462 1.261 . S
N462 Co413 2.214 . S
N462 C460 1.325 . S
N462 C461 1.261 . S
C463 H433 0.931 . S
C463 C460 1.357 . S
C463 C464 1.312 . S
C464 H435 0.930 . S
C464 C459 1.261 . S
C464 C463 1.312 . S
C465 O437 1.214 . S
C465 O445 1.234 . S
C466 H438 0.929 . S
C466 C469 1.391 . S
C466 C471 1.391 . S
C467 H439 0.930 1_565 S
C467 C468 1.390 . S
C467 N470 1.391 . S
C468 H440 0.930 . S
C468 C467 1.390 . S
C468 C469 1.392 . S
C469 H441 0.929 . S
C469 C466 1.391 . S
C469 C468 1.392 . S
N470 Co414 2.257 1_564 S
N470 C467 1.391 . S
N470 C471 1.388 . S
C471 H442 0.930 1_655 S
C471 C466 1.391 . S
C471 N470 1.388 . S
Co472 O474 2.143 . S
Co472 O480 2.074 . S
Co472 O483 2.093 . S
Co472 O496 2.097 . S
Co472 N513 2.151 . S
Co472 N521 2.214 . S
Co473 O474 2.160 . S
Co473 O479 2.058 . S
Co473 O489 2.057 . S
Co473 O504 2.037 . S
Co473 N508 2.145 . S
Co473 N529 2.257 . S
O474 Co472 2.143 . S
O474 Co473 2.160 . S
C475 O476 1.278 . S
C475 O483 1.224 . S
O476 C475 1.278 . S
C477 O478 1.245 . S
C477 O489 1.232 . S
O478 C477 1.245 . S
O479 Co473 2.058 . S
O479 C505 1.269 . S
O480 Co472 2.074 . S
O480 C505 1.257 . S
H481 C506 0.930 . S
H482 C512 0.930 . S
O483 Co472 2.093 . S
O483 C475 1.224 . S
H484 C516 0.929 . S
H485 C518 0.930 . S
H486 C519 0.930 . S
H487 C517 0.929 . S
H488 C520 0.928 . S
O489 Co473 2.057 . S
O489 C477 1.232 . S
H490 C509 0.929 . S
H491 C510 0.929 . S
H492 C522 0.931 . S
H493 C514 0.929 . S
H494 C523 0.930 . S
H495 C515 0.931 . S
O496 Co472 2.097 . S
O496 C524 1.214 . S
H497 C525 0.929 . S
H498 C526 0.929 . S
H499 C527 0.930 . S
H500 C528 0.929 . S
H501 C530 0.930 . S
H502 C507 0.930 . S
H503 C511 0.930 . S
O504 Co473 2.037 . S
O504 C524 1.234 . S
C505 O479 1.269 . S
C505 O480 1.257 . S
C506 H481 0.930 . S
C506 C509 1.388 . S
C506 C511 1.418 . S
C507 H502 0.930 . S
C507 C510 1.404 . S
C507 C511 1.353 . S
N508 Co473 2.145 . S
N508 C509 1.397 . S
N508 C510 1.334 . S
C509 H490 0.929 . S
C509 C506 1.388 . S
C509 N508 1.397 . S
C510 H491 0.929 . S
C510 C507 1.404 . S
C510 N508 1.334 . S
C511 H503 0.930 . S
C511 C506 1.418 . S
C511 C507 1.353 . S
C512 H482 0.930 . S
C512 N513 1.330 . S
C512 C514 1.446 . S
N513 Co472 2.151 . S
N513 C512 1.330 . S
N513 C517 1.418 . S
C514 H493 0.929 . S
C514 C512 1.446 . S
C514 C515 1.332 . S
C515 H495 0.931 . S
C515 C514 1.332 . S
C515 C516 1.267 . S
C516 H484 0.929 . S
C516 C515 1.267 . S
C516 C517 1.251 . S
C517 H487 0.929 . S
C517 N513 1.418 . S
C517 C516 1.251 . S
C518 H485 0.930 . S
C518 C520 1.406 . S
C518 C523 1.261 . S
C519 H486 0.930 . S
C519 N521 1.325 . S
C519 C522 1.357 . S
C520 H488 0.928 . S
C520 C518 1.406 . S
C520 N521 1.261 . S
N521 Co472 2.214 . S
N521 C519 1.325 . S
N521 C520 1.261 . S
C522 H492 0.931 . S
C522 C519 1.357 . S
C522 C523 1.312 . S
C523 H494 0.930 . S
C523 C518 1.261 . S
C523 C522 1.312 . S
C524 O496 1.214 . S
C524 O504 1.234 . S
C525 H497 0.929 . S
C525 C528 1.391 . S
C525 C530 1.391 . S
C526 H498 0.929 . S
C526 C527 1.390 . S
C526 N529 1.391 . S
C527 H499 0.930 . S
C527 C526 1.390 . S
C527 C528 1.392 . S
C528 H500 0.929 . S
C528 C525 1.391 . S
C528 C527 1.392 . S
N529 Co473 2.257 . S
N529 C526 1.391 . S
N529 C530 1.388 . S
C530 H501 0.930 . S
C530 C525 1.391 . S
C530 N529 1.388 . S
Co531 O533 2.143 1_456 S
Co531 O539 2.074 . S
Co531 O542 2.093 . S
Co531 O555 2.097 . S
Co531 N572 2.151 1_455 S
Co531 N580 2.214 . S
Co532 O533 2.160 1_455 S
Co532 O538 2.058 1_454 S
Co532 O548 2.057 1_455 S
Co532 O563 2.033 1_554 S
Co532 N567 2.145 . S
Co532 N588 2.257 . S
O533 Co531 2.143 1_654 S
O533 Co532 2.160 1_655 S
C534 O535 1.279 . S
C534 O542 1.220 1_654 S
O535 C534 1.279 . S
C536 O537 1.245 . S
C536 O548 1.232 . S
O537 C536 1.245 . S
O538 Co532 2.058 1_656 S
O538 C564 1.269 . S
O539 Co531 2.074 . S
O539 C564 1.257 1_455 S
H540 C565 0.916 1_556 S
H541 C571 0.930 . S
O542 Co531 2.093 . S
O542 C534 1.220 1_456 S
H543 C575 0.929 . S
H544 C577 0.930 . S
H545 C578 0.930 . S
H546 C576 0.929 . S
H547 C579 0.928 . S
O548 Co532 2.057 1_655 S
O548 C536 1.232 . S
H549 C568 0.929 1_556 S
H550 C569 0.929 1_655 S
H551 C581 0.931 . S
H552 C573 0.929 . S
H553 C582 0.930 . S
H554 C574 0.931 . S
O555 Co531 2.097 . S
O555 C583 1.214 . S
H556 C584 0.929 . S
H557 C585 0.929 . S
H558 C586 0.930 . S
H559 C587 0.929 . S
H560 C589 0.930 1_655 S
H561 C566 0.930 . S
H562 C570 0.930 . S
O563 Co532 2.033 1_556 S
O563 C583 1.239 . S
C564 O538 1.269 . S
C564 O539 1.257 1_655 S
C565 H540 0.916 1_554 S
C565 C568 1.388 . S
C565 C570 1.418 . S
C566 H561 0.930 . S
C566 C569 1.404 . S
C566 C570 1.353 . S
N567 Co532 2.145 . S
N567 C568 1.397 . S
N567 C569 1.334 . S
C568 H549 0.929 1_554 S
C568 C565 1.388 . S
C568 N567 1.397 . S
C569 H550 0.929 1_455 S
C569 C566 1.404 . S
C569 N567 1.334 . S
C570 H562 0.930 . S
C570 C565 1.418 . S
C570 C566 1.353 . S
C571 H541 0.930 . S
C571 N572 1.330 . S
C571 C573 1.446 . S
N572 Co531 2.151 1_655 S
N572 C571 1.330 . S
N572 C576 1.418 . S
C573 H552 0.929 . S
C573 C571 1.446 . S
C573 C574 1.332 . S
C574 H554 0.931 . S
C574 C573 1.332 . S
C574 C575 1.267 . S
C575 H543 0.929 . S
C575 C574 1.267 . S
C575 C576 1.251 . S
C576 H546 0.929 . S
C576 N572 1.418 . S
C576 C575 1.251 . S
C577 H544 0.930 . S
C577 C579 1.406 . S
C577 C582 1.261 . S
C578 H545 0.930 . S
C578 N580 1.325 . S
C578 C581 1.357 . S
C579 H547 0.928 . S
C579 C577 1.406 . S
C579 N580 1.261 . S
N580 Co531 2.214 . S
N580 C578 1.325 . S
N580 C579 1.261 . S
C581 H551 0.931 . S
C581 C578 1.357 . S
C581 C582 1.312 . S
C582 H553 0.930 . S
C582 C577 1.261 . S
C582 C581 1.312 . S
C583 O555 1.214 . S
C583 O563 1.239 . S
C584 H556 0.929 . S
C584 C587 1.391 . S
C584 C589 1.391 . S
C585 H557 0.929 . S
C585 C586 1.390 . S
C585 N588 1.391 . S
C586 H558 0.930 . S
C586 C585 1.390 . S
C586 C587 1.392 . S
C587 H559 0.929 . S
C587 C584 1.391 . S
C587 C586 1.392 . S
N588 Co532 2.257 . S
N588 C585 1.391 . S
N588 C589 1.388 . S
C589 H560 0.930 1_455 S
C589 C584 1.391 . S
C589 N588 1.388 . S
Co590 O592 2.143 . S
Co590 O598 2.074 . S
Co590 O601 2.093 . S
Co590 O614 2.097 . S
Co590 N631 2.151 . S
Co590 N639 2.214 . S
Co591 O592 2.160 . S
Co591 O597 2.058 . S
Co591 O607 2.057 . S
Co591 O622 2.037 . S
Co591 N626 2.145 . S
Co591 N647 2.257 . S
O592 Co590 2.143 . S
O592 Co591 2.160 . S
C593 O594 1.278 . S
C593 O601 1.224 . S
O594 C593 1.278 . S
C595 O596 1.245 . S
C595 O607 1.232 . S
O596 C595 1.245 . S
O597 Co591 2.058 . S
O597 C623 1.269 . S
O598 Co590 2.074 . S
O598 C623 1.257 . S
H599 C624 0.930 . S
H600 C630 0.930 . S
O601 Co590 2.093 . S
O601 C593 1.224 . S
H602 C634 0.929 . S
H603 C636 0.930 . S
H604 C637 0.930 . S
H605 C635 0.929 . S
H606 C638 0.928 . S
O607 Co591 2.057 . S
O607 C595 1.232 . S
H608 C627 0.929 . S
H609 C628 0.929 . S
H610 C640 0.931 . S
H611 C632 0.929 . S
H612 C641 0.930 . S
H613 C633 0.931 . S
O614 Co590 2.097 . S
O614 C642 1.214 . S
H615 C643 0.929 . S
H616 C644 0.929 . S
H617 C645 0.930 . S
H618 C646 0.929 . S
H619 C648 0.930 . S
H620 C625 0.930 . S
H621 C629 0.930 . S
O622 Co591 2.037 . S
O622 C642 1.234 . S
C623 O597 1.269 . S
C623 O598 1.257 . S
C624 H599 0.930 . S
C624 C627 1.388 . S
C624 C629 1.418 . S
C625 H620 0.930 . S
C625 C628 1.404 . S
C625 C629 1.353 . S
N626 Co591 2.145 . S
N626 C627 1.397 . S
N626 C628 1.334 . S
C627 H608 0.929 . S
C627 C624 1.388 . S
C627 N626 1.397 . S
C628 H609 0.929 . S
C628 C625 1.404 . S
C628 N626 1.334 . S
C629 H621 0.930 . S
C629 C624 1.418 . S
C629 C625 1.353 . S
C630 H600 0.930 . S
C630 N631 1.330 . S
C630 C632 1.446 . S
N631 Co590 2.151 . S
N631 C630 1.330 . S
N631 C635 1.418 . S
C632 H611 0.929 . S
C632 C630 1.446 . S
C632 C633 1.332 . S
C633 H613 0.931 . S
C633 C632 1.332 . S
C633 C634 1.267 . S
C634 H602 0.929 . S
C634 C633 1.267 . S
C634 C635 1.251 . S
C635 H605 0.929 . S
C635 N631 1.418 . S
C635 C634 1.251 . S
C636 H603 0.930 . S
C636 C638 1.406 . S
C636 C641 1.261 . S
C637 H604 0.930 . S
C637 N639 1.325 . S
C637 C640 1.357 . S
C638 H606 0.928 . S
C638 C636 1.406 . S
C638 N639 1.261 . S
N639 Co590 2.214 . S
N639 C637 1.325 . S
N639 C638 1.261 . S
C640 H610 0.931 . S
C640 C637 1.357 . S
C640 C641 1.312 . S
C641 H612 0.930 . S
C641 C636 1.261 . S
C641 C640 1.312 . S
C642 O614 1.214 . S
C642 O622 1.234 . S
C643 H615 0.929 . S
C643 C646 1.391 . S
C643 C648 1.391 . S
C644 H616 0.929 . S
C644 C645 1.390 . S
C644 N647 1.391 . S
C645 H617 0.930 . S
C645 C644 1.390 . S
C645 C646 1.392 . S
C646 H618 0.929 . S
C646 C643 1.391 . S
C646 C645 1.392 . S
N647 Co591 2.257 . S
N647 C644 1.391 . S
N647 C648 1.388 . S
C648 H619 0.930 . S
C648 C643 1.391 . S
C648 N647 1.388 . S
Co649 O651 2.143 . S
Co649 O657 2.074 . S
Co649 O660 2.093 . S
Co649 O673 2.097 . S
Co649 N690 2.151 . S
Co649 N698 2.214 . S
Co650 O651 2.160 . S
Co650 O656 2.058 . S
Co650 O666 2.057 1_455 S
Co650 O681 2.037 . S
Co650 N685 2.145 1_455 S
Co650 N706 2.257 1_455 S
O651 Co649 2.143 . S
O651 Co650 2.160 . S
C652 O653 1.278 . S
C652 O660 1.224 1_655 S
O653 C652 1.278 . S
C654 O655 1.245 1_655 S
C654 O666 1.232 . S
O655 C654 1.245 1_455 S
O656 Co650 2.058 . S
O656 C682 1.269 . S
O657 Co649 2.074 . S
O657 C682 1.257 . S
H658 C683 0.930 1_455 S
H659 C689 0.930 . S
O660 Co649 2.093 . S
O660 C652 1.224 1_455 S
H661 C693 0.929 . S
H662 C695 0.930 . S
H663 C696 0.930 . S
H664 C694 0.929 . S
H665 C697 0.928 . S
O666 Co650 2.057 1_655 S
O666 C654 1.232 . S
H667 C686 0.929 . S
H668 C687 0.929 . S
H669 C699 0.931 . S
H670 C691 0.929 . S
H671 C700 0.930 . S
H672 C692 0.931 . S
O673 Co649 2.097 . S
O673 C701 1.214 . S
H674 C702 0.929 . S
H675 C703 0.929 . S
H676 C704 0.930 . S
H677 C705 0.929 . S
H678 C707 0.930 . S
H679 C684 0.930 . S
H680 C688 0.930 . S
O681 Co650 2.037 . S
O681 C701 1.234 . S
C682 O656 1.269 . S
C682 O657 1.257 . S
C683 H658 0.930 1_655 S
C683 C686 1.388 1_655 S
C683 C688 1.418 . S
C684 H679 0.930 . S
C684 C687 1.404 . S
C684 C688 1.353 . S
N685 Co650 2.145 1_655 S
N685 C686 1.397 1_655 S
N685 C687 1.334 . S
C686 H667 0.929 . S
C686 C683 1.388 1_455 S
C686 N685 1.397 1_455 S
C687 H668 0.929 . S
C687 C684 1.404 . S
C687 N685 1.334 . S
C688 H680 0.930 . S
C688 C683 1.418 . S
C688 C684 1.353 . S
C689 H659 0.930 . S
C689 N690 1.330 . S
C689 C691 1.446 . S
N690 Co649 2.151 . S
N690 C689 1.330 . S
N690 C694 1.418 . S
C691 H670 0.929 . S
C691 C689 1.446 . S
C691 C692 1.332 . S
C692 H672 0.931 . S
C692 C691 1.332 . S
C692 C693 1.267 . S
C693 H661 0.929 . S
C693 C692 1.267 . S
C693 C694 1.251 . S
C694 H664 0.929 . S
C694 N690 1.418 . S
C694 C693 1.251 . S
C695 H662 0.930 . S
C695 C697 1.406 . S
C695 C700 1.261 . S
C696 H663 0.930 . S
C696 N698 1.325 . S
C696 C699 1.357 . S
C697 H665 0.928 . S
C697 C695 1.406 . S
C697 N698 1.261 . S
N698 Co649 2.214 . S
N698 C696 1.325 . S
N698 C697 1.261 . S
C699 H669 0.931 . S
C699 C696 1.357 . S
C699 C700 1.312 . S
C700 H671 0.930 . S
C700 C695 1.261 . S
C700 C699 1.312 . S
C701 O673 1.214 . S
C701 O681 1.234 . S
C702 H674 0.929 . S
C702 C705 1.391 . S
C702 C707 1.391 . S
C703 H675 0.929 . S
C703 C704 1.390 . S
C703 N706 1.391 . S
C704 H676 0.930 . S
C704 C703 1.390 . S
C704 C705 1.392 . S
C705 H677 0.929 . S
C705 C702 1.391 . S
C705 C704 1.392 . S
N706 Co650 2.257 1_655 S
N706 C703 1.391 . S
N706 C707 1.388 . S
C707 H678 0.930 . S
C707 C702 1.391 . S
C707 N706 1.388 . S
Co708 O710 2.143 . S
Co708 O716 2.074 . S
Co708 O719 2.093 . S
Co708 O732 2.097 . S
Co708 N749 2.151 . S
Co708 N757 2.214 . S
Co709 O710 2.160 1_556 S
Co709 O715 2.058 1_556 S
Co709 O725 2.057 . S
Co709 O740 2.037 1_556 S
Co709 N744 2.145 . S
Co709 N765 2.257 . S
O710 Co708 2.143 . S
O710 Co709 2.160 1_554 S
C711 O712 1.278 . S
C711 O719 1.224 1_556 S
O712 C711 1.278 . S
C713 O714 1.245 . S
C713 O725 1.232 . S
O714 C713 1.245 . S
O715 Co709 2.058 1_554 S
O715 C741 1.269 . S
O716 Co708 2.074 . S
O716 C741 1.257 . S
H717 C742 0.930 1_554 S
H718 C748 0.930 . S
O719 Co708 2.093 . S
O719 C711 1.224 1_554 S
H720 C752 0.929 . S
H721 C754 0.930 . S
H722 C755 0.930 . S
H723 C753 0.929 . S
H724 C756 0.928 . S
O725 Co709 2.057 . S
O725 C713 1.232 . S
H726 C745 0.943 . S
H727 C746 0.929 . S
H728 C758 0.931 . S
H729 C750 0.929 . S
H730 C759 0.930 . S
H731 C751 0.931 . S
O732 Co708 2.097 . S
O732 C760 1.214 . S
H733 C761 0.929 . S
H734 C762 0.929 . S
H735 C763 0.930 . S
H736 C764 0.929 . S
H737 C766 0.930 . S
H738 C743 0.930 . S
H739 C747 0.930 . S
O740 Co709 2.037 1_554 S
O740 C760 1.234 . S
C741 O715 1.269 . S
C741 O716 1.257 . S
C742 H717 0.930 1_556 S
C742 C745 1.386 1_556 S
C742 C747 1.418 . S
C743 H738 0.930 . S
C743 C746 1.404 . S
C743 C747 1.353 . S
N744 Co709 2.145 . S
N744 C745 1.385 1_556 S
N744 C746 1.334 . S
C745 H726 0.943 . S
C745 C742 1.386 1_554 S
C745 N744 1.385 1_554 S
C746 H727 0.929 . S
C746 C743 1.404 . S
C746 N744 1.334 . S
C747 H739 0.930 . S
C747 C742 1.418 . S
C747 C743 1.353 . S
C748 H718 0.930 . S
C748 N749 1.330 . S
C748 C750 1.446 . S
N749 Co708 2.151 . S
N749 C748 1.330 . S
N749 C753 1.418 . S
C750 H729 0.929 . S
C750 C748 1.446 . S
C750 C751 1.332 . S
C751 H731 0.931 . S
C751 C750 1.332 . S
C751 C752 1.267 . S
C752 H720 0.929 . S
C752 C751 1.267 . S
C752 C753 1.251 . S
C753 H723 0.929 . S
C753 N749 1.418 . S
C753 C752 1.251 . S
C754 H721 0.930 . S
C754 C756 1.406 . S
C754 C759 1.261 . S
C755 H722 0.930 . S
C755 N757 1.325 . S
C755 C758 1.357 . S
C756 H724 0.928 . S
C756 C754 1.406 . S
C756 N757 1.261 . S
N757 Co708 2.214 . S
N757 C755 1.325 . S
N757 C756 1.261 . S
C758 H728 0.931 . S
C758 C755 1.357 . S
C758 C759 1.312 . S
C759 H730 0.930 . S
C759 C754 1.261 . S
C759 C758 1.312 . S
C760 O732 1.214 . S
C760 O740 1.234 . S
C761 H733 0.929 . S
C761 C764 1.391 . S
C761 C766 1.391 . S
C762 H734 0.929 . S
C762 C763 1.390 . S
C762 N765 1.391 . S
C763 H735 0.930 . S
C763 C762 1.390 . S
C763 C764 1.392 . S
C764 H736 0.929 . S
C764 C761 1.391 . S
C764 C763 1.392 . S
N765 Co709 2.257 . S
N765 C762 1.391 . S
N765 C766 1.388 . S
C766 H737 0.930 . S
C766 C761 1.391 . S
C766 N765 1.388 . S
Co767 O769 2.143 . S
Co767 O775 2.074 . S
Co767 O778 2.093 . S
Co767 O791 2.097 . S
Co767 N808 2.151 . S
Co767 N816 2.214 . S
Co768 O769 2.160 . S
Co768 O774 2.058 . S
Co768 O784 2.057 . S
Co768 O799 2.037 . S
Co768 N803 2.145 . S
Co768 N824 2.257 . S
O769 Co767 2.143 . S
O769 Co768 2.160 . S
C770 O771 1.278 . S
C770 O778 1.224 . S
O771 C770 1.278 . S
C772 O773 1.245 . S
C772 O784 1.232 . S
O773 C772 1.245 . S
O774 Co768 2.058 . S
O774 C800 1.269 . S
O775 Co767 2.074 . S
O775 C800 1.257 . S
H776 C801 0.930 . S
H777 C807 0.930 . S
O778 Co767 2.093 . S
O778 C770 1.224 . S
H779 C811 0.929 . S
H780 C813 0.930 . S
H781 C814 0.930 . S
H782 C812 0.929 . S
H783 C815 0.928 . S
O784 Co768 2.057 . S
O784 C772 1.232 . S
H785 C804 0.929 . S
H786 C805 0.929 . S
H787 C817 0.931 . S
H788 C809 0.929 . S
H789 C818 0.930 1_455 S
H790 C810 0.931 . S
O791 Co767 2.097 . S
O791 C819 1.214 . S
H792 C820 0.929 . S
H793 C821 0.929 . S
H794 C822 0.930 . S
H795 C823 0.929 . S
H796 C825 0.930 . S
H797 C802 0.930 . S
H798 C806 0.930 . S
O799 Co768 2.037 . S
O799 C819 1.234 . S
C800 O774 1.269 . S
C800 O775 1.257 . S
C801 H776 0.930 . S
C801 C804 1.388 . S
C801 C806 1.418 . S
C802 H797 0.930 . S
C802 C805 1.404 . S
C802 C806 1.353 . S
N803 Co768 2.145 . S
N803 C804 1.397 . S
N803 C805 1.334 . S
C804 H785 0.929 . S
C804 C801 1.388 . S
C804 N803 1.397 . S
C805 H786 0.929 . S
C805 C802 1.404 . S
C805 N803 1.334 . S
C806 H798 0.930 . S
C806 C801 1.418 . S
C806 C802 1.353 . S
C807 H777 0.930 . S
C807 N808 1.330 . S
C807 C809 1.446 . S
N808 Co767 2.151 . S
N808 C807 1.330 . S
N808 C812 1.418 . S
C809 H788 0.929 . S
C809 C807 1.446 . S
C809 C810 1.332 . S
C810 H790 0.931 . S
C810 C809 1.332 . S
C810 C811 1.267 . S
C811 H779 0.929 . S
C811 C810 1.267 . S
C811 C812 1.251 . S
C812 H782 0.929 . S
C812 N808 1.418 . S
C812 C811 1.251 . S
C813 H780 0.930 . S
C813 C815 1.406 . S
C813 C818 1.261 . S
C814 H781 0.930 . S
C814 N816 1.325 . S
C814 C817 1.357 . S
C815 H783 0.928 . S
C815 C813 1.406 . S
C815 N816 1.261 . S
N816 Co767 2.214 . S
N816 C814 1.325 . S
N816 C815 1.261 . S
C817 H787 0.931 . S
C817 C814 1.357 . S
C817 C818 1.312 . S
C818 H789 0.930 1_655 S
C818 C813 1.261 . S
C818 C817 1.312 . S
C819 O791 1.214 . S
C819 O799 1.234 . S
C820 H792 0.929 . S
C820 C823 1.391 . S
C820 C825 1.391 . S
C821 H793 0.929 . S
C821 C822 1.390 . S
C821 N824 1.391 . S
C822 H794 0.930 . S
C822 C821 1.390 . S
C822 C823 1.392 . S
C823 H795 0.929 . S
C823 C820 1.391 . S
C823 C822 1.392 . S
N824 Co768 2.257 . S
N824 C821 1.391 . S
N824 C825 1.388 . S
C825 H796 0.930 . S
C825 C820 1.391 . S
C825 N824 1.388 . S
Co826 O828 2.143 . S
Co826 O834 2.074 . S
Co826 O837 2.093 . S
Co826 O850 2.097 . S
Co826 N867 2.151 . S
Co826 N875 2.214 . S
Co827 O828 2.160 . S
Co827 O833 2.058 . S
Co827 O843 2.057 . S
Co827 O858 2.037 . S
Co827 N862 2.145 . S
Co827 N883 2.257 . S
O828 Co826 2.143 . S
O828 Co827 2.160 . S
C829 O830 1.278 . S
C829 O837 1.224 . S
O830 C829 1.278 . S
C831 O832 1.245 . S
C831 O843 1.232 . S
O832 C831 1.245 . S
O833 Co827 2.058 . S
O833 C859 1.269 . S
O834 Co826 2.074 . S
O834 C859 1.257 . S
H835 C860 0.930 . S
H836 C866 0.930 . S
O837 Co826 2.093 . S
O837 C829 1.224 . S
H838 C870 0.929 . S
H839 C872 0.930 . S
H840 C873 0.930 . S
H841 C871 0.929 . S
H842 C874 0.928 . S
O843 Co827 2.057 . S
O843 C831 1.232 . S
H844 C863 0.929 . S
H845 C864 0.929 . S
H846 C876 0.931 . S
H847 C868 0.929 . S
H848 C877 0.930 . S
H849 C869 0.931 . S
O850 Co826 2.097 . S
O850 C878 1.214 . S
H851 C879 0.929 . S
H852 C880 0.929 . S
H853 C881 0.930 . S
H854 C882 0.929 . S
H855 C884 0.930 . S
H856 C861 0.930 . S
H857 C865 0.930 . S
O858 Co827 2.037 . S
O858 C878 1.234 . S
C859 O833 1.269 . S
C859 O834 1.257 . S
C860 H835 0.930 . S
C860 C863 1.388 . S
C860 C865 1.418 . S
C861 H856 0.930 . S
C861 C864 1.404 . S
C861 C865 1.353 . S
N862 Co827 2.145 . S
N862 C863 1.397 . S
N862 C864 1.334 . S
C863 H844 0.929 . S
C863 C860 1.388 . S
C863 N862 1.397 . S
C864 H845 0.929 . S
C864 C861 1.404 . S
C864 N862 1.334 . S
C865 H857 0.930 . S
C865 C860 1.418 . S
C865 C861 1.353 . S
C866 H836 0.930 . S
C866 N867 1.330 . S
C866 C868 1.446 . S
N867 Co826 2.151 . S
N867 C866 1.330 . S
N867 C871 1.418 . S
C868 H847 0.929 . S
C868 C866 1.446 . S
C868 C869 1.332 . S
C869 H849 0.931 . S
C869 C868 1.332 . S
C869 C870 1.267 . S
C870 H838 0.929 . S
C870 C869 1.267 . S
C870 C871 1.251 . S
C871 H841 0.929 . S
C871 N867 1.418 . S
C871 C870 1.251 . S
C872 H839 0.930 . S
C872 C874 1.406 . S
C872 C877 1.261 . S
C873 H840 0.930 . S
C873 N875 1.325 . S
C873 C876 1.357 . S
C874 H842 0.928 . S
C874 C872 1.406 . S
C874 N875 1.261 . S
N875 Co826 2.214 . S
N875 C873 1.325 . S
N875 C874 1.261 . S
C876 H846 0.931 . S
C876 C873 1.357 . S
C876 C877 1.312 . S
C877 H848 0.930 . S
C877 C872 1.261 . S
C877 C876 1.312 . S
C878 O850 1.214 . S
C878 O858 1.234 . S
C879 H851 0.929 . S
C879 C882 1.391 . S
C879 C884 1.391 . S
C880 H852 0.929 . S
C880 C881 1.390 . S
C880 N883 1.391 . S
C881 H853 0.930 . S
C881 C880 1.390 . S
C881 C882 1.392 . S
C882 H854 0.929 . S
C882 C879 1.391 . S
C882 C881 1.392 . S
N883 Co827 2.257 . S
N883 C880 1.391 . S
N883 C884 1.388 . S
C884 H855 0.930 . S
C884 C879 1.391 . S
C884 N883 1.388 . S
Co885 O887 2.143 . S
Co885 O893 2.074 . S
Co885 O896 2.093 . S
Co885 O909 2.097 . S
Co885 N926 2.151 . S
Co885 N934 2.214 . S
Co886 O887 2.160 . S
Co886 O892 2.058 . S
Co886 O902 2.057 . S
Co886 O917 2.037 . S
Co886 N921 2.145 . S
Co886 N942 2.257 . S
O887 Co885 2.143 . S
O887 Co886 2.160 . S
C888 O889 1.278 . S
C888 O896 1.224 . S
O889 C888 1.278 . S
C890 O891 1.245 . S
C890 O902 1.232 . S
O891 C890 1.245 . S
O892 Co886 2.058 . S
O892 C918 1.269 . S
O893 Co885 2.074 . S
O893 C918 1.257 . S
H894 C919 0.930 . S
H895 C925 0.930 . S
O896 Co885 2.093 . S
O896 C888 1.224 . S
H897 C929 0.929 . S
H898 C931 0.930 . S
H899 C932 0.930 . S
H900 C930 0.929 . S
H901 C933 0.928 . S
O902 Co886 2.057 . S
O902 C890 1.232 . S
H903 C922 0.929 . S
H904 C923 0.929 . S
H905 C935 0.931 . S
H906 C927 0.929 . S
H907 C936 0.930 . S
H908 C928 0.931 . S
O909 Co885 2.097 . S
O909 C937 1.214 . S
H910 C938 0.929 . S
H911 C939 0.929 . S
H912 C940 0.930 . S
H913 C941 0.929 . S
H914 C943 0.930 . S
H915 C920 0.930 . S
H916 C924 0.930 . S
O917 Co886 2.037 . S
O917 C937 1.234 . S
C918 O892 1.269 . S
C918 O893 1.257 . S
C919 H894 0.930 . S
C919 C922 1.388 . S
C919 C924 1.418 . S
C920 H915 0.930 . S
C920 C923 1.404 . S
C920 C924 1.353 . S
N921 Co886 2.145 . S
N921 C922 1.397 . S
N921 C923 1.334 . S
C922 H903 0.929 . S
C922 C919 1.388 . S
C922 N921 1.397 . S
C923 H904 0.929 . S
C923 C920 1.404 . S
C923 N921 1.334 . S
C924 H916 0.930 . S
C924 C919 1.418 . S
C924 C920 1.353 . S
C925 H895 0.930 . S
C925 N926 1.330 . S
C925 C927 1.446 . S
N926 Co885 2.151 . S
N926 C925 1.330 . S
N926 C930 1.418 . S
C927 H906 0.929 . S
C927 C925 1.446 . S
C927 C928 1.332 . S
C928 H908 0.931 . S
C928 C927 1.332 . S
C928 C929 1.267 . S
C929 H897 0.929 . S
C929 C928 1.267 . S
C929 C930 1.251 . S
C930 H900 0.929 . S
C930 N926 1.418 . S
C930 C929 1.251 . S
C931 H898 0.930 . S
C931 C933 1.406 . S
C931 C936 1.261 . S
C932 H899 0.930 . S
C932 N934 1.325 . S
C932 C935 1.357 . S
C933 H901 0.928 . S
C933 C931 1.406 . S
C933 N934 1.261 . S
N934 Co885 2.214 . S
N934 C932 1.325 . S
N934 C933 1.261 . S
C935 H905 0.931 . S
C935 C932 1.357 . S
C935 C936 1.312 . S
C936 H907 0.930 . S
C936 C931 1.261 . S
C936 C935 1.312 . S
C937 O909 1.214 . S
C937 O917 1.234 . S
C938 H910 0.929 . S
C938 C941 1.391 . S
C938 C943 1.391 . S
C939 H911 0.929 . S
C939 C940 1.390 . S
C939 N942 1.391 . S
C940 H912 0.930 . S
C940 C939 1.390 . S
C940 C941 1.392 . S
C941 H913 0.929 . S
C941 C938 1.391 . S
C941 C940 1.392 . S
N942 Co886 2.257 . S
N942 C939 1.391 . S
N942 C943 1.388 . S
C943 H914 0.930 . S
C943 C938 1.391 . S
C943 N942 1.388 . S
C944 C945 1.391 . S
C944 C946 1.394 . S
C944 H960 0.931 . S
C945 C944 1.391 . S
C945 C949 1.376 . S
C946 C944 1.394 . S
C946 C947 1.369 . S
C946 C950 1.531 . S
C947 C946 1.369 . S
C947 C948 1.410 . S
C947 C955 1.503 . S
C948 C947 1.410 . S
C948 C949 1.392 . S
C948 C951 1.511 . S
C949 C945 1.376 . S
C949 C948 1.392 . S
C949 H961 0.929 . S
C950 C946 1.531 . S
C950 H962 0.960 . S
C950 H963 0.962 . S
C950 H964 0.960 . S
C951 C948 1.511 . S
C951 H965 0.961 . S
C951 H966 0.961 . S
C951 H967 0.961 . S
C952 C953 1.370 . S
C952 C954 1.363 . S
C952 H968 0.931 . S
C953 C952 1.370 . S
C953 C957 1.408 . S
C954 C952 1.363 . S
C954 C955 1.370 . S
C954 C958 1.524 . S
C955 C947 1.503 . S
C955 C954 1.370 . S
C955 C956 1.403 . S
C956 C955 1.403 . S
C956 C957 1.404 . S
C956 C959 1.539 . S
C957 C953 1.408 . S
C957 C956 1.404 . S
C957 H969 0.930 . S
C958 C954 1.524 . S
C958 H970 0.956 . S
C958 H971 0.961 . S
C958 H972 0.961 . S
C959 C956 1.539 . S
C959 H973 0.958 . S
C959 H974 0.961 . S
C959 H975 0.960 . S
H960 C944 0.931 . S
H961 C949 0.929 . S
H962 C950 0.960 . S
H963 C950 0.962 . S
H964 C950 0.960 . S
H965 C951 0.961 . S
H966 C951 0.961 . S
H967 C951 0.961 . S
H968 C952 0.931 . S
H969 C957 0.930 . S
H970 C958 0.956 . S
H971 C958 0.961 . S
H972 C958 0.961 . S
H973 C959 0.958 . S
H974 C959 0.961 . S
H975 C959 0.960 . S
C976 C977 1.391 . S
C976 C978 1.394 . S
C976 H992 0.931 . S
C977 C976 1.391 . S
C977 C981 1.376 . S
C978 C976 1.394 . S
C978 C979 1.369 . S
C978 C982 1.531 . S
C979 C978 1.369 . S
C979 C980 1.410 . S
C979 C987 1.503 . S
C980 C979 1.410 . S
C980 C981 1.392 . S
C980 C983 1.511 . S
C981 C977 1.376 . S
C981 C980 1.392 . S
C981 H993 0.929 . S
C982 C978 1.531 . S
C982 H994 0.960 . S
C982 H995 0.962 . S
C982 H996 0.960 . S
C983 C980 1.511 . S
C983 H997 0.961 . S
C983 H998 0.961 . S
C983 H999 0.961 . S
C984 C985 1.370 . S
C984 C986 1.363 . S
C984 H1000 0.931 . S
C985 C984 1.370 . S
C985 C989 1.408 . S
C986 C984 1.363 . S
C986 C987 1.370 . S
C986 C990 1.524 . S
C987 C979 1.503 . S
C987 C986 1.370 . S
C987 C988 1.403 . S
C988 C987 1.403 . S
C988 C989 1.404 . S
C988 C991 1.539 . S
C989 C985 1.408 . S
C989 C988 1.404 . S
C989 H1001 0.930 . S
C990 C986 1.524 . S
C990 H1002 0.956 . S
C990 H1003 0.961 . S
C990 H1004 0.961 . S
C991 C988 1.539 . S
C991 H1005 0.958 . S
C991 H1006 0.961 . S
C991 H1007 0.960 . S
H992 C976 0.931 . S
H993 C981 0.929 . S
H994 C982 0.960 . S
H995 C982 0.962 . S
H996 C982 0.960 . S
H997 C983 0.961 . S
H998 C983 0.961 . S
H999 C983 0.961 . S
H1000 C984 0.931 . S
H1001 C989 0.930 . S
H1002 C990 0.956 . S
H1003 C990 0.961 . S
H1004 C990 0.961 . S
H1005 C991 0.958 . S
H1006 C991 0.961 . S
H1007 C991 0.960 . S
C1008 C1009 1.391 . S
C1008 C1010 1.394 . S
C1008 H1024 0.931 . S
C1009 C1008 1.391 . S
C1009 C1013 1.376 . S
C1010 C1008 1.394 . S
C1010 C1011 1.369 . S
C1010 C1014 1.531 . S
C1011 C1010 1.369 . S
C1011 C1012 1.410 . S
C1011 C1019 1.503 . S
C1012 C1011 1.410 . S
C1012 C1013 1.392 . S
C1012 C1015 1.511 . S
C1013 C1009 1.376 . S
C1013 C1012 1.392 . S
C1013 H1025 0.929 . S
C1014 C1010 1.531 . S
C1014 H1026 0.960 . S
C1014 H1027 0.962 . S
C1014 H1028 0.960 . S
C1015 C1012 1.511 . S
C1015 H1029 0.961 . S
C1015 H1030 0.961 . S
C1015 H1031 0.961 . S
C1016 C1017 1.370 . S
C1016 C1018 1.363 . S
C1016 H1032 0.931 . S
C1017 C1016 1.370 . S
C1017 C1021 1.408 . S
C1018 C1016 1.363 . S
C1018 C1019 1.370 . S
C1018 C1022 1.524 . S
C1019 C1011 1.503 . S
C1019 C1018 1.370 . S
C1019 C1020 1.403 . S
C1020 C1019 1.403 . S
C1020 C1021 1.404 . S
C1020 C1023 1.539 . S
C1021 C1017 1.408 . S
C1021 C1020 1.404 . S
C1021 H1033 0.930 . S
C1022 C1018 1.524 . S
C1022 H1034 0.956 . S
C1022 H1035 0.961 . S
C1022 H1036 0.961 . S
C1023 C1020 1.539 . S
C1023 H1037 0.958 . S
C1023 H1038 0.961 . S
C1023 H1039 0.960 . S
H1024 C1008 0.931 . S
H1025 C1013 0.929 . S
H1026 C1014 0.960 . S
H1027 C1014 0.962 . S
H1028 C1014 0.960 . S
H1029 C1015 0.961 . S
H1030 C1015 0.961 . S
H1031 C1015 0.961 . S
H1032 C1016 0.931 . S
H1033 C1021 0.930 . S
H1034 C1022 0.956 . S
H1035 C1022 0.961 . S
H1036 C1022 0.961 . S
H1037 C1023 0.958 . S
H1038 C1023 0.961 . S
H1039 C1023 0.960 . S
C1040 C1041 1.391 . S
C1040 C1042 1.394 . S
C1040 H1056 0.931 . S
C1041 C1040 1.391 . S
C1041 C1045 1.376 . S
C1042 C1040 1.394 . S
C1042 C1043 1.369 . S
C1042 C1046 1.531 . S
C1043 C1042 1.369 . S
C1043 C1044 1.410 . S
C1043 C1051 1.503 . S
C1044 C1043 1.410 . S
C1044 C1045 1.392 . S
C1044 C1047 1.511 . S
C1045 C1041 1.376 . S
C1045 C1044 1.392 . S
C1045 H1057 0.929 . S
C1046 C1042 1.531 . S
C1046 H1058 0.960 . S
C1046 H1059 0.962 . S
C1046 H1060 0.960 . S
C1047 C1044 1.511 . S
C1047 H1061 0.961 . S
C1047 H1062 0.961 . S
C1047 H1063 0.961 . S
C1048 C1049 1.370 . S
C1048 C1050 1.363 . S
C1048 H1064 0.931 . S
C1049 C1048 1.370 . S
C1049 C1053 1.408 . S
C1050 C1048 1.363 . S
C1050 C1051 1.370 . S
C1050 C1054 1.524 . S
C1051 C1043 1.503 . S
C1051 C1050 1.370 . S
C1051 C1052 1.403 . S
C1052 C1051 1.403 . S
C1052 C1053 1.404 . S
C1052 C1055 1.539 . S
C1053 C1049 1.408 . S
C1053 C1052 1.404 . S
C1053 H1065 0.930 . S
C1054 C1050 1.524 . S
C1054 H1066 0.956 . S
C1054 H1067 0.961 . S
C1054 H1068 0.961 . S
C1055 C1052 1.539 . S
C1055 H1069 0.958 . S
C1055 H1070 0.961 . S
C1055 H1071 0.960 . S
H1056 C1040 0.931 . S
H1057 C1045 0.929 . S
H1058 C1046 0.960 . S
H1059 C1046 0.962 . S
H1060 C1046 0.960 . S
H1061 C1047 0.961 . S
H1062 C1047 0.961 . S
H1063 C1047 0.961 . S
H1064 C1048 0.931 . S
H1065 C1053 0.930 . S
H1066 C1054 0.956 . S
H1067 C1054 0.961 . S
H1068 C1054 0.961 . S
H1069 C1055 0.958 . S
H1070 C1055 0.961 . S
H1071 C1055 0.960 . S
C1072 C1073 1.391 . S
C1072 C1074 1.394 . S
C1072 H1088 0.931 . S
C1073 C1072 1.391 . S
C1073 C1077 1.376 . S
C1074 C1072 1.394 . S
C1074 C1075 1.369 . S
C1074 C1078 1.531 . S
C1075 C1074 1.369 . S
C1075 C1076 1.410 . S
C1075 C1083 1.503 . S
C1076 C1075 1.410 . S
C1076 C1077 1.392 . S
C1076 C1079 1.511 . S
C1077 C1073 1.376 . S
C1077 C1076 1.392 . S
C1077 H1089 0.929 . S
C1078 C1074 1.531 . S
C1078 H1090 0.960 . S
C1078 H1091 0.962 . S
C1078 H1092 0.960 . S
C1079 C1076 1.511 . S
C1079 H1093 0.961 . S
C1079 H1094 0.961 . S
C1079 H1095 0.961 . S
C1080 C1081 1.370 . S
C1080 C1082 1.363 . S
C1080 H1096 0.931 . S
C1081 C1080 1.370 . S
C1081 C1085 1.408 . S
C1082 C1080 1.363 . S
C1082 C1083 1.370 . S
C1082 C1086 1.524 . S
C1083 C1075 1.503 . S
C1083 C1082 1.370 . S
C1083 C1084 1.403 . S
C1084 C1083 1.403 . S
C1084 C1085 1.404 . S
C1084 C1087 1.539 . S
C1085 C1081 1.408 . S
C1085 C1084 1.404 . S
C1085 H1097 0.930 1_556 S
C1086 C1082 1.524 . S
C1086 H1098 0.956 . S
C1086 H1099 0.961 . S
C1086 H1100 0.961 . S
C1087 C1084 1.539 . S
C1087 H1101 0.958 1_556 S
C1087 H1102 0.961 1_556 S
C1087 H1103 0.960 . S
H1088 C1072 0.931 . S
H1089 C1077 0.929 . S
H1090 C1078 0.960 . S
H1091 C1078 0.962 . S
H1092 C1078 0.960 . S
H1093 C1079 0.961 . S
H1094 C1079 0.961 . S
H1095 C1079 0.961 . S
H1096 C1080 0.931 . S
H1097 C1085 0.930 1_554 S
H1098 C1086 0.956 . S
H1099 C1086 0.961 . S
H1100 C1086 0.961 . S
H1101 C1087 0.958 1_554 S
H1102 C1087 0.961 1_554 S
H1103 C1087 0.960 . S
C1104 C1105 1.391 . S
C1104 C1106 1.394 . S
C1104 H1120 0.931 . S
C1105 C1104 1.391 . S
C1105 C1109 1.376 . S
C1106 C1104 1.394 . S
C1106 C1107 1.369 . S
C1106 C1110 1.531 . S
C1107 C1106 1.369 . S
C1107 C1108 1.410 . S
C1107 C1115 1.503 . S
C1108 C1107 1.410 . S
C1108 C1109 1.392 . S
C1108 C1111 1.511 . S
C1109 C1105 1.376 . S
C1109 C1108 1.392 . S
C1109 H1121 0.929 . S
C1110 C1106 1.531 . S
C1110 H1122 0.960 . S
C1110 H1123 0.962 . S
C1110 H1124 0.960 . S
C1111 C1108 1.511 . S
C1111 H1125 0.961 . S
C1111 H1126 0.961 . S
C1111 H1127 0.961 . S
C1112 C1113 1.370 . S
C1112 C1114 1.363 . S
C1112 H1128 0.931 . S
C1113 C1112 1.370 . S
C1113 C1117 1.408 . S
C1114 C1112 1.363 . S
C1114 C1115 1.370 . S
C1114 C1118 1.524 . S
C1115 C1107 1.503 . S
C1115 C1114 1.370 . S
C1115 C1116 1.403 . S
C1116 C1115 1.403 . S
C1116 C1117 1.404 . S
C1116 C1119 1.539 . S
C1117 C1113 1.408 . S
C1117 C1116 1.404 . S
C1117 H1129 0.930 . S
C1118 C1114 1.524 . S
C1118 H1130 0.956 . S
C1118 H1131 0.961 . S
C1118 H1132 0.961 . S
C1119 C1116 1.539 . S
C1119 H1133 0.958 . S
C1119 H1134 0.961 . S
C1119 H1135 0.960 . S
H1120 C1104 0.931 . S
H1121 C1109 0.929 . S
H1122 C1110 0.960 . S
H1123 C1110 0.962 . S
H1124 C1110 0.960 . S
H1125 C1111 0.961 . S
H1126 C1111 0.961 . S
H1127 C1111 0.961 . S
H1128 C1112 0.931 . S
H1129 C1117 0.930 . S
H1130 C1118 0.956 . S
H1131 C1118 0.961 . S
H1132 C1118 0.961 . S
H1133 C1119 0.958 . S
H1134 C1119 0.961 . S
H1135 C1119 0.960 . S
C1136 C1137 1.391 . S
C1136 C1138 1.394 . S
C1136 H1152 0.909 1_655 S
C1137 C1136 1.391 . S
C1137 C1141 1.376 . S
C1138 C1136 1.394 . S
C1138 C1139 1.369 . S
C1138 C1142 1.531 . S
C1139 C1138 1.369 . S
C1139 C1140 1.410 . S
C1139 C1147 1.503 . S
C1140 C1139 1.410 . S
C1140 C1141 1.392 . S
C1140 C1143 1.511 . S
C1141 C1137 1.376 . S
C1141 C1140 1.392 . S
C1141 H1153 0.929 . S
C1142 C1138 1.531 . S
C1142 H1154 0.960 . S
C1142 H1155 0.962 1_655 S
C1142 H1156 0.960 . S
C1143 C1140 1.511 . S
C1143 H1157 0.961 . S
C1143 H1158 0.961 . S
C1143 H1159 0.961 . S
C1144 C1145 1.370 . S
C1144 C1146 1.363 . S
C1144 H1160 0.931 . S
C1145 C1144 1.370 . S
C1145 C1149 1.408 . S
C1146 C1144 1.363 . S
C1146 C1147 1.370 . S
C1146 C1150 1.524 . S
C1147 C1139 1.503 . S
C1147 C1146 1.370 . S
C1147 C1148 1.403 . S
C1148 C1147 1.403 . S
C1148 C1149 1.404 . S
C1148 C1151 1.539 . S
C1149 C1145 1.408 . S
C1149 C1148 1.404 . S
C1149 H1161 0.930 . S
C1150 C1146 1.524 . S
C1150 H1162 0.956 1_655 S
C1150 H1163 0.961 . S
C1150 H1164 0.961 . S
C1151 C1148 1.539 . S
C1151 H1165 0.958 . S
C1151 H1166 0.961 . S
C1151 H1167 0.960 . S
H1152 C1136 0.909 1_455 S
H1153 C1141 0.929 . S
H1154 C1142 0.960 . S
H1155 C1142 0.962 1_455 S
H1156 C1142 0.960 . S
H1157 C1143 0.961 . S
H1158 C1143 0.961 . S
H1159 C1143 0.961 . S
H1160 C1144 0.931 . S
H1161 C1149 0.930 . S
H1162 C1150 0.956 1_455 S
H1163 C1150 0.961 . S
H1164 C1150 0.961 . S
H1165 C1151 0.958 . S
H1166 C1151 0.961 . S
H1167 C1151 0.960 . S
C1168 C1169 1.391 . S
C1168 C1170 1.394 . S
C1168 H1184 0.931 . S
C1169 C1168 1.391 . S
C1169 C1173 1.376 . S
C1170 C1168 1.394 . S
C1170 C1171 1.369 . S
C1170 C1174 1.531 . S
C1171 C1170 1.369 . S
C1171 C1172 1.410 . S
C1171 C1179 1.503 . S
C1172 C1171 1.410 . S
C1172 C1173 1.392 . S
C1172 C1175 1.511 . S
C1173 C1169 1.376 . S
C1173 C1172 1.392 . S
C1173 H1185 0.929 . S
C1174 C1170 1.531 . S
C1174 H1186 0.960 . S
C1174 H1187 0.962 . S
C1174 H1188 0.960 . S
C1175 C1172 1.511 . S
C1175 H1189 0.961 . S
C1175 H1190 0.961 . S
C1175 H1191 0.961 . S
C1176 C1177 1.370 . S
C1176 C1178 1.363 . S
C1176 H1192 0.931 . S
C1177 C1176 1.370 . S
C1177 C1181 1.408 . S
C1178 C1176 1.363 . S
C1178 C1179 1.370 . S
C1178 C1182 1.524 . S
C1179 C1171 1.503 . S
C1179 C1178 1.370 . S
C1179 C1180 1.403 . S
C1180 C1179 1.403 . S
C1180 C1181 1.404 . S
C1180 C1183 1.539 . S
C1181 C1177 1.408 . S
C1181 C1180 1.404 . S
C1181 H1193 0.930 . S
C1182 C1178 1.524 . S
C1182 H1194 0.956 . S
C1182 H1195 0.961 . S
C1182 H1196 0.961 . S
C1183 C1180 1.539 . S
C1183 H1197 0.958 . S
C1183 H1198 0.961 . S
C1183 H1199 0.960 . S
H1184 C1168 0.931 . S
H1185 C1173 0.929 . S
H1186 C1174 0.960 . S
H1187 C1174 0.962 . S
H1188 C1174 0.960 . S
H1189 C1175 0.961 . S
H1190 C1175 0.961 . S
H1191 C1175 0.961 . S
H1192 C1176 0.931 . S
H1193 C1181 0.930 . S
H1194 C1182 0.956 . S
H1195 C1182 0.961 . S
H1196 C1182 0.961 . S
H1197 C1183 0.958 . S
H1198 C1183 0.961 . S
H1199 C1183 0.960 . S
C1200 C1201 1.391 . S
C1200 C1202 1.394 . S
C1200 H1216 0.931 . S
C1201 C1200 1.391 . S
C1201 C1205 1.376 . S
C1202 C1200 1.394 . S
C1202 C1203 1.369 . S
C1202 C1206 1.531 . S
C1203 C1202 1.369 . S
C1203 C1204 1.410 . S
C1203 C1211 1.503 . S
C1204 C1203 1.410 . S
C1204 C1205 1.392 . S
C1204 C1207 1.511 . S
C1205 C1201 1.376 . S
C1205 C1204 1.392 . S
C1205 H1217 0.929 . S
C1206 C1202 1.531 . S
C1206 H1218 0.960 . S
C1206 H1219 0.962 . S
C1206 H1220 0.960 . S
C1207 C1204 1.511 . S
C1207 H1221 0.961 . S
C1207 H1222 0.961 . S
C1207 H1223 0.961 . S
C1208 C1209 1.370 . S
C1208 C1210 1.363 . S
C1208 H1224 0.931 . S
C1209 C1208 1.370 . S
C1209 C1213 1.408 . S
C1210 C1208 1.363 . S
C1210 C1211 1.370 . S
C1210 C1214 1.524 . S
C1211 C1203 1.503 . S
C1211 C1210 1.370 . S
C1211 C1212 1.403 . S
C1212 C1211 1.403 . S
C1212 C1213 1.404 . S
C1212 C1215 1.539 . S
C1213 C1209 1.408 . S
C1213 C1212 1.404 . S
C1213 H1225 0.930 . S
C1214 C1210 1.524 . S
C1214 H1226 0.956 . S
C1214 H1227 0.961 . S
C1214 H1228 0.961 . S
C1215 C1212 1.539 . S
C1215 H1229 0.958 . S
C1215 H1230 0.961 . S
C1215 H1231 0.960 . S
H1216 C1200 0.931 . S
H1217 C1205 0.929 . S
H1218 C1206 0.960 . S
H1219 C1206 0.962 . S
H1220 C1206 0.960 . S
H1221 C1207 0.961 . S
H1222 C1207 0.961 . S
H1223 C1207 0.961 . S
H1224 C1208 0.931 . S
H1225 C1213 0.930 . S
H1226 C1214 0.956 . S
H1227 C1214 0.961 . S
H1228 C1214 0.961 . S
H1229 C1215 0.958 . S
H1230 C1215 0.961 . S
H1231 C1215 0.960 . S
C1232 C1233 1.391 . S
C1232 C1234 1.394 . S
C1232 H1248 0.931 1_655 S
C1233 C1232 1.391 . S
C1233 C1237 1.376 1_565 S
C1234 C1232 1.394 . S
C1234 C1235 1.369 . S
C1234 C1238 1.531 1_655 S
C1235 C1234 1.369 . S
C1235 C1236 1.410 1_565 S
C1235 C1243 1.503 . S
C1236 C1235 1.410 1_545 S
C1236 C1237 1.392 . S
C1236 C1239 1.511 . S
C1237 C1233 1.376 1_545 S
C1237 C1236 1.392 . S
C1237 H1249 0.929 . S
C1238 C1234 1.531 1_455 S
C1238 H1250 0.959 1_455 S
C1238 H1251 0.962 . S
C1238 H1252 0.960 . S
C1239 C1236 1.511 . S
C1239 H1253 0.961 . S
C1239 H1254 0.961 . S
C1239 H1255 0.961 . S
C1240 C1241 1.370 1_545 S
C1240 C1242 1.363 . S
C1240 H1256 0.931 1_655 S
C1241 C1240 1.370 1_565 S
C1241 C1245 1.408 . S
C1242 C1240 1.363 . S
C1242 C1243 1.370 1_545 S
C1242 C1246 1.524 1_655 S
C1243 C1235 1.503 . S
C1243 C1242 1.370 1_565 S
C1243 C1244 1.403 . S
C1244 C1243 1.403 . S
C1244 C1245 1.404 . S
C1244 C1247 1.539 . S
C1245 C1241 1.408 . S
C1245 C1244 1.404 . S
C1245 H1257 0.930 . S
C1246 C1242 1.524 1_455 S
C1246 H1258 0.956 . S
C1246 H1259 0.961 . S
C1246 H1260 0.961 . S
C1247 C1244 1.539 . S
C1247 H1261 0.958 . S
C1247 H1262 0.961 . S
C1247 H1263 0.960 . S
H1248 C1232 0.931 1_455 S
H1249 C1237 0.929 . S
H1250 C1238 0.959 1_655 S
H1251 C1238 0.962 . S
H1252 C1238 0.960 . S
H1253 C1239 0.961 . S
H1254 C1239 0.961 . S
H1255 C1239 0.961 . S
H1256 C1240 0.931 1_455 S
H1257 C1245 0.930 . S
H1258 C1246 0.956 . S
H1259 C1246 0.961 . S
H1260 C1246 0.961 . S
H1261 C1247 0.958 . S
H1262 C1247 0.961 . S
H1263 C1247 0.960 . S
C1264 C1265 1.391 . S
C1264 C1266 1.394 . S
C1264 H1280 0.931 . S
C1265 C1264 1.391 . S
C1265 C1269 1.376 . S
C1266 C1264 1.394 . S
C1266 C1267 1.369 1_556 S
C1266 C1270 1.531 1_556 S
C1267 C1266 1.369 1_554 S
C1267 C1268 1.410 . S
C1267 C1275 1.503 . S
C1268 C1267 1.410 . S
C1268 C1269 1.392 1_554 S
C1268 C1271 1.511 . S
C1269 C1265 1.376 . S
C1269 C1268 1.392 1_556 S
C1269 H1281 0.929 . S
C1270 C1266 1.531 1_554 S
C1270 H1282 0.960 . S
C1270 H1283 0.962 . S
C1270 H1284 0.960 1_554 S
C1271 C1268 1.511 . S
C1271 H1285 0.961 . S
C1271 H1286 0.961 . S
C1271 H1287 0.961 . S
C1272 C1273 1.370 . S
C1272 C1274 1.363 . S
C1272 H1288 0.931 . S
C1273 C1272 1.370 . S
C1273 C1277 1.408 . S
C1274 C1272 1.363 . S
C1274 C1275 1.370 . S
C1274 C1278 1.524 . S
C1275 C1267 1.503 . S
C1275 C1274 1.370 . S
C1275 C1276 1.403 . S
C1276 C1275 1.403 . S
C1276 C1277 1.404 . S
C1276 C1279 1.539 . S
C1277 C1273 1.408 . S
C1277 C1276 1.404 . S
C1277 H1289 0.930 . S
C1278 C1274 1.524 . S
C1278 H1290 0.956 . S
C1278 H1291 0.961 . S
C1278 H1292 0.961 . S
C1279 C1276 1.539 . S
C1279 H1293 0.958 . S
C1279 H1294 0.961 . S
C1279 H1295 0.960 . S
H1280 C1264 0.931 . S
H1281 C1269 0.929 . S
H1282 C1270 0.960 . S
H1283 C1270 0.962 . S
H1284 C1270 0.960 1_556 S
H1285 C1271 0.961 . S
H1286 C1271 0.961 . S
H1287 C1271 0.961 . S
H1288 C1272 0.931 . S
H1289 C1277 0.930 . S
H1290 C1278 0.956 . S
H1291 C1278 0.961 . S
H1292 C1278 0.961 . S
H1293 C1279 0.958 . S
H1294 C1279 0.961 . S
H1295 C1279 0.960 . S
C1296 C1297 1.391 . S
C1296 C1298 1.394 . S
C1296 H1312 0.931 . S
C1297 C1296 1.391 . S
C1297 C1301 1.376 . S
C1298 C1296 1.394 . S
C1298 C1299 1.369 . S
C1298 C1302 1.531 . S
C1299 C1298 1.369 . S
C1299 C1300 1.410 . S
C1299 C1307 1.503 . S
C1300 C1299 1.410 . S
C1300 C1301 1.392 . S
C1300 C1303 1.511 . S
C1301 C1297 1.376 . S
C1301 C1300 1.392 . S
C1301 H1313 0.929 . S
C1302 C1298 1.531 . S
C1302 H1314 0.960 . S
C1302 H1315 0.962 . S
C1302 H1316 0.960 . S
C1303 C1300 1.511 . S
C1303 H1317 0.961 . S
C1303 H1318 0.961 . S
C1303 H1319 0.961 . S
C1304 C1305 1.370 . S
C1304 C1306 1.363 . S
C1304 H1320 0.931 . S
C1305 C1304 1.370 . S
C1305 C1309 1.408 . S
C1306 C1304 1.363 . S
C1306 C1307 1.370 . S
C1306 C1310 1.524 . S
C1307 C1299 1.503 . S
C1307 C1306 1.370 . S
C1307 C1308 1.403 . S
C1308 C1307 1.403 . S
C1308 C1309 1.404 . S
C1308 C1311 1.539 1_565 S
C1309 C1305 1.408 . S
C1309 C1308 1.404 . S
C1309 H1321 0.930 1_565 S
C1310 C1306 1.524 . S
C1310 H1322 0.956 . S
C1310 H1323 0.961 . S
C1310 H1324 0.961 . S
C1311 C1308 1.539 1_545 S
C1311 H1325 0.958 . S
C1311 H1326 0.961 . S
C1311 H1327 0.960 . S
H1312 C1296 0.931 . S
H1313 C1301 0.929 . S
H1314 C1302 0.960 . S
H1315 C1302 0.962 . S
H1316 C1302 0.960 . S
H1317 C1303 0.961 . S
H1318 C1303 0.961 . S
H1319 C1303 0.961 . S
H1320 C1304 0.931 . S
H1321 C1309 0.930 1_545 S
H1322 C1310 0.956 . S
H1323 C1310 0.961 . S
H1324 C1310 0.961 . S
H1325 C1311 0.958 . S
H1326 C1311 0.961 . S
H1327 C1311 0.960 . S
C1328 C1329 1.391 . S
C1328 C1330 1.394 . S
C1328 H1344 0.931 . S
C1329 C1328 1.391 . S
C1329 C1333 1.376 . S
C1330 C1328 1.394 . S
C1330 C1331 1.369 . S
C1330 C1334 1.531 . S
C1331 C1330 1.369 . S
C1331 C1332 1.410 . S
C1331 C1339 1.503 . S
C1332 C1331 1.410 . S
C1332 C1333 1.392 . S
C1332 C1335 1.511 . S
C1333 C1329 1.376 . S
C1333 C1332 1.392 . S
C1333 H1345 0.929 . S
C1334 C1330 1.531 . S
C1334 H1346 0.960 . S
C1334 H1347 0.962 . S
C1334 H1348 0.960 . S
C1335 C1332 1.511 . S
C1335 H1349 0.961 . S
C1335 H1350 0.961 . S
C1335 H1351 0.961 . S
C1336 C1337 1.370 . S
C1336 C1338 1.363 . S
C1336 H1352 0.931 . S
C1337 C1336 1.370 . S
C1337 C1341 1.408 . S
C1338 C1336 1.363 . S
C1338 C1339 1.370 . S
C1338 C1342 1.524 . S
C1339 C1331 1.503 . S
C1339 C1338 1.370 . S
C1339 C1340 1.403 . S
C1340 C1339 1.403 . S
C1340 C1341 1.404 . S
C1340 C1343 1.539 . S
C1341 C1337 1.408 . S
C1341 C1340 1.404 . S
C1341 H1353 0.930 . S
C1342 C1338 1.524 . S
C1342 H1354 0.956 . S
C1342 H1355 0.961 . S
C1342 H1356 0.961 . S
C1343 C1340 1.539 . S
C1343 H1357 0.958 . S
C1343 H1358 0.961 . S
C1343 H1359 0.960 . S
H1344 C1328 0.931 . S
H1345 C1333 0.929 . S
H1346 C1334 0.960 . S
H1347 C1334 0.962 . S
H1348 C1334 0.960 . S
H1349 C1335 0.961 . S
H1350 C1335 0.961 . S
H1351 C1335 0.961 . S
H1352 C1336 0.931 . S
H1353 C1341 0.930 . S
H1354 C1342 0.956 . S
H1355 C1342 0.961 . S
H1356 C1342 0.961 . S
H1357 C1343 0.958 . S
H1358 C1343 0.961 . S
H1359 C1343 0.960 . S
C1360 C1361 1.391 1_655 S
C1360 C1362 1.394 . S
C1360 H1376 0.931 . S
C1361 C1360 1.391 1_455 S
C1361 C1365 1.376 . S
C1362 C1360 1.394 . S
C1362 C1363 1.369 1_655 S
C1362 C1366 1.531 . S
C1363 C1362 1.369 1_455 S
C1363 C1364 1.410 . S
C1363 C1371 1.503 . S
C1364 C1363 1.410 . S
C1364 C1365 1.392 . S
C1364 C1367 1.511 . S
C1365 C1361 1.376 . S
C1365 C1364 1.392 . S
C1365 H1377 0.929 . S
C1366 C1362 1.531 . S
C1366 H1378 0.960 . S
C1366 H1379 0.962 . S
C1366 H1380 0.960 . S
C1367 C1364 1.511 . S
C1367 H1381 0.961 . S
C1367 H1382 0.961 . S
C1367 H1383 0.961 . S
C1368 C1369 1.368 . S
C1368 C1370 1.363 . S
C1368 H1384 0.931 . S
C1369 C1368 1.368 . S
C1369 C1373 1.408 1_455 S
C1370 C1368 1.363 . S
C1370 C1371 1.370 . S
C1370 C1374 1.524 . S
C1371 C1363 1.503 . S
C1371 C1370 1.370 . S
C1371 C1372 1.403 . S
C1372 C1371 1.403 . S
C1372 C1373 1.406 1_455 S
C1372 C1375 1.539 . S
C1373 C1369 1.408 1_655 S
C1373 C1372 1.406 1_655 S
C1373 H1385 0.928 . S
C1374 C1370 1.524 . S
C1374 H1386 0.956 1_455 S
C1374 H1387 0.961 . S
C1374 H1388 0.961 . S
C1375 C1372 1.539 . S
C1375 H1389 0.958 1_455 S
C1375 H1390 0.961 . S
C1375 H1391 0.960 . S
H1376 C1360 0.931 . S
H1377 C1365 0.929 . S
H1378 C1366 0.960 . S
H1379 C1366 0.962 . S
H1380 C1366 0.960 . S
H1381 C1367 0.961 . S
H1382 C1367 0.961 . S
H1383 C1367 0.961 . S
H1384 C1368 0.931 . S
H1385 C1373 0.928 . S
H1386 C1374 0.956 1_655 S
H1387 C1374 0.961 . S
H1388 C1374 0.961 . S
H1389 C1375 0.958 1_655 S
H1390 C1375 0.961 . S
H1391 C1375 0.960 . S
C1392 C1393 1.391 . S
C1392 C1394 1.394 . S
C1392 H1408 0.931 . S
C1393 C1392 1.391 . S
C1393 C1397 1.376 . S
C1394 C1392 1.394 . S
C1394 C1395 1.369 1_655 S
C1394 C1398 1.531 . S
C1395 C1394 1.369 1_455 S
C1395 C1396 1.410 1_455 S
C1395 C1403 1.503 . S
C1396 C1395 1.410 1_655 S
C1396 C1397 1.392 . S
C1396 C1399 1.511 1_655 S
C1397 C1393 1.376 . S
C1397 C1396 1.392 . S
C1397 H1409 0.929 . S
C1398 C1394 1.531 . S
C1398 H1410 0.960 1_655 S
C1398 H1411 0.962 . S
C1398 H1412 0.960 . S
C1399 C1396 1.511 1_455 S
C1399 H1413 0.961 . S
C1399 H1414 0.961 . S
C1399 H1415 0.961 . S
C1400 C1401 1.370 . S
C1400 C1402 1.363 . S
C1400 H1416 0.931 . S
C1401 C1400 1.370 . S
C1401 C1405 1.408 . S
C1402 C1400 1.363 . S
C1402 C1403 1.370 . S
C1402 C1406 1.524 . S
C1403 C1395 1.503 . S
C1403 C1402 1.370 . S
C1403 C1404 1.403 . S
C1404 C1403 1.403 . S
C1404 C1405 1.404 . S
C1404 C1407 1.539 . S
C1405 C1401 1.408 . S
C1405 C1404 1.404 . S
C1405 H1417 0.930 . S
C1406 C1402 1.524 . S
C1406 H1418 0.956 . S
C1406 H1419 0.961 . S
C1406 H1420 0.961 . S
C1407 C1404 1.539 . S
C1407 H1421 0.958 . S
C1407 H1422 0.961 . S
C1407 H1423 0.960 . S
H1408 C1392 0.931 . S
H1409 C1397 0.929 . S
H1410 C1398 0.960 1_455 S
H1411 C1398 0.962 . S
H1412 C1398 0.960 . S
H1413 C1399 0.961 . S
H1414 C1399 0.961 . S
H1415 C1399 0.961 . S
H1416 C1400 0.931 . S
H1417 C1405 0.930 . S
H1418 C1406 0.956 . S
H1419 C1406 0.961 . S
H1420 C1406 0.961 . S
H1421 C1407 0.958 . S
H1422 C1407 0.961 . S
H1423 C1407 0.960 . S
C1424 C1425 1.391 1_554 S
C1424 C1426 1.394 . S
C1424 H1440 0.931 . S
C1425 C1424 1.391 1_556 S
C1425 C1429 1.376 . S
C1426 C1424 1.394 . S
C1426 C1427 1.369 1_554 S
C1426 C1430 1.531 . S
C1427 C1426 1.369 1_556 S
C1427 C1428 1.410 . S
C1427 C1435 1.503 . S
C1428 C1427 1.410 . S
C1428 C1429 1.392 . S
C1428 C1431 1.511 . S
C1429 C1425 1.376 . S
C1429 C1428 1.392 . S
C1429 H1441 0.929 . S
C1430 C1426 1.531 . S
C1430 H1442 0.960 . S
C1430 H1443 0.962 . S
C1430 H1444 0.960 . S
C1431 C1428 1.511 . S
C1431 H1445 0.961 . S
C1431 H1446 0.961 . S
C1431 H1447 0.961 . S
C1432 C1433 1.370 1_554 S
C1432 C1434 1.363 1_554 S
C1432 H1448 0.931 . S
C1433 C1432 1.370 1_556 S
C1433 C1437 1.408 . S
C1434 C1432 1.363 1_556 S
C1434 C1435 1.370 . S
C1434 C1438 1.524 1_556 S
C1435 C1427 1.503 . S
C1435 C1434 1.370 . S
C1435 C1436 1.403 . S
C1436 C1435 1.403 . S
C1436 C1437 1.404 . S
C1436 C1439 1.539 . S
C1437 C1433 1.408 . S
C1437 C1436 1.404 . S
C1437 H1449 0.930 . S
C1438 C1434 1.524 1_554 S
C1438 H1450 0.956 . S
C1438 H1451 0.961 1_554 S
C1438 H1452 0.961 . S
C1439 C1436 1.539 . S
C1439 H1453 0.958 . S
C1439 H1454 0.961 . S
C1439 H1455 0.960 . S
H1440 C1424 0.931 . S
H1441 C1429 0.929 . S
H1442 C1430 0.960 . S
H1443 C1430 0.962 . S
H1444 C1430 0.960 . S
H1445 C1431 0.961 . S
H1446 C1431 0.961 . S
H1447 C1431 0.961 . S
H1448 C1432 0.931 . S
H1449 C1437 0.930 . S
H1450 C1438 0.956 . S
H1451 C1438 0.961 1_556 S
H1452 C1438 0.961 . S
H1453 C1439 0.958 . S
H1454 C1439 0.961 . S
H1455 C1439 0.960 . S
C1456 C1457 1.391 . S
C1456 C1458 1.394 . S
C1456 H1472 0.931 . S
C1457 C1456 1.391 . S
C1457 C1461 1.376 . S
C1458 C1456 1.394 . S
C1458 C1459 1.369 . S
C1458 C1462 1.531 . S
C1459 C1458 1.369 . S
C1459 C1460 1.410 . S
C1459 C1467 1.503 . S
C1460 C1459 1.410 . S
C1460 C1461 1.392 . S
C1460 C1463 1.511 . S
C1461 C1457 1.376 . S
C1461 C1460 1.392 . S
C1461 H1473 0.929 . S
C1462 C1458 1.531 . S
C1462 H1474 0.960 . S
C1462 H1475 0.962 . S
C1462 H1476 0.960 . S
C1463 C1460 1.511 . S
C1463 H1477 0.961 . S
C1463 H1478 0.961 . S
C1463 H1479 0.961 . S
C1464 C1465 1.370 . S
C1464 C1466 1.363 . S
C1464 H1480 0.931 . S
C1465 C1464 1.370 . S
C1465 C1469 1.408 . S
C1466 C1464 1.363 . S
C1466 C1467 1.370 . S
C1466 C1470 1.524 . S
C1467 C1459 1.503 . S
C1467 C1466 1.370 . S
C1467 C1468 1.403 . S
C1468 C1467 1.403 . S
C1468 C1469 1.404 . S
C1468 C1471 1.539 . S
C1469 C1465 1.408 . S
C1469 C1468 1.404 . S
C1469 H1481 0.930 . S
C1470 C1466 1.524 . S
C1470 H1482 0.956 . S
C1470 H1483 0.961 . S
C1470 H1484 0.961 . S
C1471 C1468 1.539 . S
C1471 H1485 0.958 . S
C1471 H1486 0.961 . S
C1471 H1487 0.960 . S
H1472 C1456 0.931 . S
H1473 C1461 0.929 . S
H1474 C1462 0.960 . S
H1475 C1462 0.962 . S
H1476 C1462 0.960 . S
H1477 C1463 0.961 . S
H1478 C1463 0.961 . S
H1479 C1463 0.961 . S
H1480 C1464 0.931 . S
H1481 C1469 0.930 . S
H1482 C1470 0.956 . S
H1483 C1470 0.961 . S
H1484 C1470 0.961 . S
H1485 C1471 0.958 . S
H1486 C1471 0.961 . S
H1487 C1471 0.960 . S
C1488 C1489 1.391 . S
C1488 C1490 1.394 . S
C1488 H1504 0.931 . S
C1489 C1488 1.391 . S
C1489 C1493 1.376 . S
C1490 C1488 1.394 . S
C1490 C1491 1.369 . S
C1490 C1494 1.531 . S
C1491 C1490 1.369 . S
C1491 C1492 1.410 . S
C1491 C1499 1.503 . S
C1492 C1491 1.410 . S
C1492 C1493 1.392 . S
C1492 C1495 1.511 . S
C1493 C1489 1.376 . S
C1493 C1492 1.392 . S
C1493 H1505 0.929 . S
C1494 C1490 1.531 . S
C1494 H1506 0.960 . S
C1494 H1507 0.962 . S
C1494 H1508 0.960 . S
C1495 C1492 1.511 . S
C1495 H1509 0.961 . S
C1495 H1510 0.961 . S
C1495 H1511 0.961 . S
C1496 C1497 1.370 . S
C1496 C1498 1.363 . S
C1496 H1512 0.931 . S
C1497 C1496 1.370 . S
C1497 C1501 1.408 . S
C1498 C1496 1.363 . S
C1498 C1499 1.370 . S
C1498 C1502 1.524 . S
C1499 C1491 1.503 . S
C1499 C1498 1.370 . S
C1499 C1500 1.403 . S
C1500 C1499 1.403 . S
C1500 C1501 1.404 . S
C1500 C1503 1.539 . S
C1501 C1497 1.408 . S
C1501 C1500 1.404 . S
C1501 H1513 0.930 . S
C1502 C1498 1.524 . S
C1502 H1514 0.956 . S
C1502 H1515 0.961 . S
C1502 H1516 0.961 . S
C1503 C1500 1.539 . S
C1503 H1517 0.958 . S
C1503 H1518 0.961 . S
C1503 H1519 0.960 . S
H1504 C1488 0.931 . S
H1505 C1493 0.929 . S
H1506 C1494 0.960 . S
H1507 C1494 0.962 . S
H1508 C1494 0.960 . S
H1509 C1495 0.961 . S
H1510 C1495 0.961 . S
H1511 C1495 0.961 . S
H1512 C1496 0.931 . S
H1513 C1501 0.930 . S
H1514 C1502 0.956 . S
H1515 C1502 0.961 . S
H1516 C1502 0.961 . S
H1517 C1503 0.958 . S
H1518 C1503 0.961 . S
H1519 C1503 0.960 . S
C1520 C1521 1.391 . S
C1520 C1522 1.394 . S
C1520 H1536 0.931 . S
C1521 C1520 1.391 . S
C1521 C1525 1.376 . S
C1522 C1520 1.394 . S
C1522 C1523 1.369 . S
C1522 C1526 1.531 . S
C1523 C1522 1.369 . S
C1523 C1524 1.410 . S
C1523 C1531 1.503 . S
C1524 C1523 1.410 . S
C1524 C1525 1.392 . S
C1524 C1527 1.511 . S
C1525 C1521 1.376 . S
C1525 C1524 1.392 . S
C1525 H1537 0.929 . S
C1526 C1522 1.531 . S
C1526 H1538 0.960 . S
C1526 H1539 0.962 . S
C1526 H1540 0.960 . S
C1527 C1524 1.511 . S
C1527 H1541 0.961 . S
C1527 H1542 0.961 . S
C1527 H1543 0.961 . S
C1528 C1529 1.370 . S
C1528 C1530 1.363 1_655 S
C1528 H1544 0.931 . S
C1529 C1528 1.370 . S
C1529 C1533 1.408 . S
C1530 C1528 1.363 1_455 S
C1530 C1531 1.370 . S
C1530 C1534 1.524 . S
C1531 C1523 1.503 . S
C1531 C1530 1.370 . S
C1531 C1532 1.403 . S
C1532 C1531 1.403 . S
C1532 C1533 1.404 1_455 S
C1532 C1535 1.539 . S
C1533 C1529 1.408 . S
C1533 C1532 1.404 1_655 S
C1533 H1545 0.930 . S
C1534 C1530 1.524 . S
C1534 H1546 0.956 . S
C1534 H1547 0.961 . S
C1534 H1548 0.961 . S
C1535 C1532 1.539 . S
C1535 H1549 0.958 . S
C1535 H1550 0.961 . S
C1535 H1551 0.960 . S
H1536 C1520 0.931 . S
H1537 C1525 0.929 . S
H1538 C1526 0.960 . S
H1539 C1526 0.962 . S
H1540 C1526 0.960 . S
H1541 C1527 0.961 . S
H1542 C1527 0.961 . S
H1543 C1527 0.961 . S
H1544 C1528 0.931 . S
H1545 C1533 0.930 . S
H1546 C1534 0.956 . S
H1547 C1534 0.961 . S
H1548 C1534 0.961 . S
H1549 C1535 0.958 . S
H1550 C1535 0.961 . S
H1551 C1535 0.960 . S
C1552 C1553 1.391 1_556 S
C1552 C1554 1.394 . S
C1552 H1568 0.931 . S
C1553 C1552 1.391 1_554 S
C1553 C1557 1.376 1_655 S
C1554 C1552 1.394 . S
C1554 C1555 1.369 1_556 S
C1554 C1558 1.531 . S
C1555 C1554 1.369 1_554 S
C1555 C1556 1.410 1_655 S
C1555 C1563 1.503 . S
C1556 C1555 1.410 1_455 S
C1556 C1557 1.392 . S
C1556 C1559 1.511 . S
C1557 C1553 1.376 1_455 S
C1557 C1556 1.392 . S
C1557 H1569 0.929 . S
C1558 C1554 1.531 . S
C1558 H1570 0.960 . S
C1558 H1571 0.962 . S
C1558 H1572 0.960 . S
C1559 C1556 1.511 . S
C1559 H1573 0.961 . S
C1559 H1574 0.961 . S
C1559 H1575 0.961 . S
C1560 C1561 1.370 . S
C1560 C1562 1.363 . S
C1560 H1576 0.931 . S
C1561 C1560 1.370 . S
C1561 C1565 1.408 1_654 S
C1562 C1560 1.363 . S
C1562 C1563 1.370 . S
C1562 C1566 1.524 . S
C1563 C1555 1.503 . S
C1563 C1562 1.370 . S
C1563 C1564 1.403 1_654 S
C1564 C1563 1.403 1_456 S
C1564 C1565 1.404 . S
C1564 C1567 1.539 . S
C1565 C1561 1.408 1_456 S
C1565 C1564 1.404 . S
C1565 H1577 0.930 . S
C1566 C1562 1.524 . S
C1566 H1578 0.956 . S
C1566 H1579 0.961 . S
C1566 H1580 0.961 . S
C1567 C1564 1.539 . S
C1567 H1581 0.958 . S
C1567 H1582 0.961 . S
C1567 H1583 0.960 . S
H1568 C1552 0.931 . S
H1569 C1557 0.929 . S
H1570 C1558 0.960 . S
H1571 C1558 0.962 . S
H1572 C1558 0.960 . S
H1573 C1559 0.961 . S
H1574 C1559 0.961 . S
H1575 C1559 0.961 . S
H1576 C1560 0.931 . S
H1577 C1565 0.930 . S
H1578 C1566 0.956 . S
H1579 C1566 0.961 . S
H1580 C1566 0.961 . S
H1581 C1567 0.958 . S
H1582 C1567 0.961 . S
H1583 C1567 0.960 . S
C1584 C1585 1.391 . S
C1584 C1586 1.394 . S
C1584 H1600 0.931 . S
C1585 C1584 1.391 . S
C1585 C1589 1.376 . S
C1586 C1584 1.394 . S
C1586 C1587 1.369 . S
C1586 C1590 1.531 . S
C1587 C1586 1.369 . S
C1587 C1588 1.410 . S
C1587 C1595 1.503 . S
C1588 C1587 1.410 . S
C1588 C1589 1.392 . S
C1588 C1591 1.511 . S
C1589 C1585 1.376 . S
C1589 C1588 1.392 . S
C1589 H1601 0.929 . S
C1590 C1586 1.531 . S
C1590 H1602 0.960 . S
C1590 H1603 0.962 . S
C1590 H1604 0.960 . S
C1591 C1588 1.511 . S
C1591 H1605 0.961 . S
C1591 H1606 0.961 . S
C1591 H1607 0.961 . S
C1592 C1593 1.370 . S
C1592 C1594 1.363 . S
C1592 H1608 0.931 . S
C1593 C1592 1.370 . S
C1593 C1597 1.408 . S
C1594 C1592 1.363 . S
C1594 C1595 1.370 . S
C1594 C1598 1.524 . S
C1595 C1587 1.503 . S
C1595 C1594 1.370 . S
C1595 C1596 1.403 . S
C1596 C1595 1.403 . S
C1596 C1597 1.404 . S
C1596 C1599 1.539 . S
C1597 C1593 1.408 . S
C1597 C1596 1.404 . S
C1597 H1609 0.930 . S
C1598 C1594 1.524 . S
C1598 H1610 0.956 . S
C1598 H1611 0.961 . S
C1598 H1612 0.961 . S
C1599 C1596 1.539 . S
C1599 H1613 0.958 . S
C1599 H1614 0.961 . S
C1599 H1615 0.960 . S
H1600 C1584 0.931 . S
H1601 C1589 0.929 . S
H1602 C1590 0.960 . S
H1603 C1590 0.962 . S
H1604 C1590 0.960 . S
H1605 C1591 0.961 . S
H1606 C1591 0.961 . S
H1607 C1591 0.961 . S
H1608 C1592 0.931 . S
H1609 C1597 0.930 . S
H1610 C1598 0.956 . S
H1611 C1598 0.961 . S
H1612 C1598 0.961 . S
H1613 C1599 0.958 . S
H1614 C1599 0.961 . S
H1615 C1599 0.960 . S
C1616 C1617 1.391 . S
C1616 C1618 1.394 . S
C1616 H1632 0.931 . S
C1617 C1616 1.391 . S
C1617 C1621 1.376 . S
C1618 C1616 1.394 . S
C1618 C1619 1.369 . S
C1618 C1622 1.531 . S
C1619 C1618 1.369 . S
C1619 C1620 1.410 . S
C1619 C1627 1.503 . S
C1620 C1619 1.410 . S
C1620 C1621 1.392 . S
C1620 C1623 1.511 . S
C1621 C1617 1.376 . S
C1621 C1620 1.392 . S
C1621 H1633 0.929 . S
C1622 C1618 1.531 . S
C1622 H1634 0.960 . S
C1622 H1635 0.962 . S
C1622 H1636 0.960 . S
C1623 C1620 1.511 . S
C1623 H1637 0.961 . S
C1623 H1638 0.961 . S
C1623 H1639 0.961 . S
C1624 C1625 1.370 . S
C1624 C1626 1.363 . S
C1624 H1640 0.931 . S
C1625 C1624 1.370 . S
C1625 C1629 1.408 . S
C1626 C1624 1.363 . S
C1626 C1627 1.370 1_565 S
C1626 C1630 1.524 1_565 S
C1627 C1619 1.503 . S
C1627 C1626 1.370 1_545 S
C1627 C1628 1.403 1_545 S
C1628 C1627 1.403 1_565 S
C1628 C1629 1.404 . S
C1628 C1631 1.539 1_565 S
C1629 C1625 1.408 . S
C1629 C1628 1.404 . S
C1629 H1641 0.930 . S
C1630 C1626 1.524 1_545 S
C1630 H1642 0.956 . S
C1630 H1643 0.961 . S
C1630 H1644 0.961 . S
C1631 C1628 1.539 1_545 S
C1631 H1645 0.958 . S
C1631 H1646 0.961 1_545 S
C1631 H1647 0.960 . S
H1632 C1616 0.931 . S
H1633 C1621 0.929 . S
H1634 C1622 0.960 . S
H1635 C1622 0.962 . S
H1636 C1622 0.960 . S
H1637 C1623 0.961 . S
H1638 C1623 0.961 . S
H1639 C1623 0.961 . S
H1640 C1624 0.931 . S
H1641 C1629 0.930 . S
H1642 C1630 0.956 . S
H1643 C1630 0.961 . S
H1644 C1630 0.961 . S
H1645 C1631 0.958 . S
H1646 C1631 0.961 1_565 S
H1647 C1631 0.960 . S
C1648 C1649 1.391 1_556 S
C1648 C1650 1.394 . S
C1648 H1664 0.931 . S
C1649 C1648 1.391 1_554 S
C1649 C1653 1.376 . S
C1650 C1648 1.394 . S
C1650 C1651 1.369 . S
C1650 C1654 1.531 . S
C1651 C1650 1.369 . S
C1651 C1652 1.410 1_556 S
C1651 C1659 1.503 . S
C1652 C1651 1.410 1_554 S
C1652 C1653 1.392 . S
C1652 C1655 1.511 . S
C1653 C1649 1.376 . S
C1653 C1652 1.392 . S
C1653 H1665 0.929 . S
C1654 C1650 1.531 . S
C1654 H1666 0.960 . S
C1654 H1667 0.943 1_556 S
C1654 H1668 0.960 . S
C1655 C1652 1.511 . S
C1655 H1669 0.961 . S
C1655 H1670 0.961 . S
C1655 H1671 0.961 1_554 S
C1656 C1657 1.370 1_554 S
C1656 C1658 1.363 . S
C1656 H1672 0.931 . S
C1657 C1656 1.370 1_556 S
C1657 C1661 1.408 . S
C1658 C1656 1.363 . S
C1658 C1659 1.370 1_554 S
C1658 C1662 1.524 . S
C1659 C1651 1.503 . S
C1659 C1658 1.370 1_556 S
C1659 C1660 1.403 . S
C1660 C1659 1.403 . S
C1660 C1661 1.404 . S
C1660 C1663 1.539 . S
C1661 C1657 1.408 . S
C1661 C1660 1.404 . S
C1661 H1673 0.930 . S
C1662 C1658 1.524 . S
C1662 H1674 0.956 . S
C1662 H1675 0.961 . S
C1662 H1676 0.961 . S
C1663 C1660 1.539 . S
C1663 H1677 0.958 . S
C1663 H1678 0.961 . S
C1663 H1679 0.960 . S
H1664 C1648 0.931 . S
H1665 C1653 0.929 . S
H1666 C1654 0.960 . S
H1667 C1654 0.943 1_554 S
H1668 C1654 0.960 . S
H1669 C1655 0.961 . S
H1670 C1655 0.961 . S
H1671 C1655 0.961 1_556 S
H1672 C1656 0.931 . S
H1673 C1661 0.930 . S
H1674 C1662 0.956 . S
H1675 C1662 0.961 . S
H1676 C1662 0.961 . S
H1677 C1663 0.958 . S
H1678 C1663 0.961 . S
H1679 C1663 0.960 . S
C1680 C1681 1.391 . S
C1680 C1682 1.394 . S
C1680 H1696 0.931 . S
C1681 C1680 1.391 . S
C1681 C1685 1.376 . S
C1682 C1680 1.394 . S
C1682 C1683 1.369 . S
C1682 C1686 1.531 1_545 S
C1683 C1682 1.369 . S
C1683 C1684 1.410 . S
C1683 C1691 1.503 1_545 S
C1684 C1683 1.410 . S
C1684 C1685 1.392 . S
C1684 C1687 1.511 . S
C1685 C1681 1.376 . S
C1685 C1684 1.392 . S
C1685 H1697 0.929 . S
C1686 C1682 1.531 1_565 S
C1686 H1698 0.960 . S
C1686 H1699 0.962 . S
C1686 H1700 0.960 1_565 S
C1687 C1684 1.511 . S
C1687 H1701 0.961 . S
C1687 H1702 0.961 . S
C1687 H1703 0.961 . S
C1688 C1689 1.370 . S
C1688 C1690 1.363 . S
C1688 H1704 0.931 . S
C1689 C1688 1.370 . S
C1689 C1693 1.408 . S
C1690 C1688 1.363 . S
C1690 C1691 1.370 . S
C1690 C1694 1.524 . S
C1691 C1683 1.503 1_565 S
C1691 C1690 1.370 . S
C1691 C1692 1.403 . S
C1692 C1691 1.403 . S
C1692 C1693 1.404 . S
C1692 C1695 1.539 . S
C1693 C1689 1.408 . S
C1693 C1692 1.404 . S
C1693 H1705 0.930 . S
C1694 C1690 1.524 . S
C1694 H1706 0.956 . S
C1694 H1707 0.961 1_565 S
C1694 H1708 0.961 . S
C1695 C1692 1.539 . S
C1695 H1709 0.958 . S
C1695 H1710 0.961 . S
C1695 H1711 0.960 1_565 S
H1696 C1680 0.931 . S
H1697 C1685 0.929 . S
H1698 C1686 0.960 . S
H1699 C1686 0.962 . S
H1700 C1686 0.960 1_545 S
H1701 C1687 0.961 . S
H1702 C1687 0.961 . S
H1703 C1687 0.961 . S
H1704 C1688 0.931 . S
H1705 C1693 0.930 . S
H1706 C1694 0.956 . S
H1707 C1694 0.961 1_545 S
H1708 C1694 0.961 . S
H1709 C1695 0.958 . S
H1710 C1695 0.961 . S
H1711 C1695 0.960 1_545 S
C1712 C1713 1.391 . S
C1712 C1714 1.394 . S
C1712 H1728 0.931 . S
C1713 C1712 1.391 . S
C1713 C1717 1.376 . S
C1714 C1712 1.394 . S
C1714 C1715 1.369 . S
C1714 C1718 1.531 1_556 S
C1715 C1714 1.369 . S
C1715 C1716 1.410 . S
C1715 C1723 1.503 . S
C1716 C1715 1.410 . S
C1716 C1717 1.392 . S
C1716 C1719 1.511 1_565 S
C1717 C1713 1.376 . S
C1717 C1716 1.392 . S
C1717 H1729 0.929 . S
C1718 C1714 1.531 1_554 S
C1718 H1730 0.960 . S
C1718 H1731 0.962 1_554 S
C1718 H1732 0.960 . S
C1719 C1716 1.511 1_545 S
C1719 H1733 0.961 . S
C1719 H1734 0.959 1_545 S
C1719 H1735 0.961 . S
C1720 C1721 1.370 . S
C1720 C1722 1.363 . S
C1720 H1736 0.931 . S
C1721 C1720 1.370 . S
C1721 C1725 1.408 . S
C1722 C1720 1.363 . S
C1722 C1723 1.370 . S
C1722 C1726 1.524 . S
C1723 C1715 1.503 . S
C1723 C1722 1.370 . S
C1723 C1724 1.403 . S
C1724 C1723 1.403 . S
C1724 C1725 1.404 . S
C1724 C1727 1.539 1_556 S
C1725 C1721 1.408 . S
C1725 C1724 1.404 . S
C1725 H1737 0.930 1_556 S
C1726 C1722 1.524 . S
C1726 H1738 0.956 . S
C1726 H1739 0.961 . S
C1726 H1740 0.961 . S
C1727 C1724 1.539 1_554 S
C1727 H1741 0.958 . S
C1727 H1742 0.961 1_565 S
C1727 H1743 0.960 1_565 S
H1728 C1712 0.931 . S
H1729 C1717 0.929 . S
H1730 C1718 0.960 . S
H1731 C1718 0.962 1_556 S
H1732 C1718 0.960 . S
H1733 C1719 0.961 . S
H1734 C1719 0.959 1_565 S
H1735 C1719 0.961 . S
H1736 C1720 0.931 . S
H1737 C1725 0.930 1_554 S
H1738 C1726 0.956 . S
H1739 C1726 0.961 . S
H1740 C1726 0.961 . S
H1741 C1727 0.958 . S
H1742 C1727 0.961 1_545 S
H1743 C1727 0.960 1_545 S
C1744 C1745 1.391 . S
C1744 C1746 1.394 . S
C1744 H1760 0.931 . S
C1745 C1744 1.391 . S
C1745 C1749 1.376 . S
C1746 C1744 1.394 . S
C1746 C1747 1.369 . S
C1746 C1750 1.531 . S
C1747 C1746 1.369 . S
C1747 C1748 1.410 . S
C1747 C1755 1.503 . S
C1748 C1747 1.410 . S
C1748 C1749 1.392 . S
C1748 C1751 1.511 . S
C1749 C1745 1.376 . S
C1749 C1748 1.392 . S
C1749 H1761 0.929 . S
C1750 C1746 1.531 . S
C1750 H1762 0.960 . S
C1750 H1763 0.962 . S
C1750 H1764 0.960 . S
C1751 C1748 1.511 . S
C1751 H1765 0.961 . S
C1751 H1766 0.961 . S
C1751 H1767 0.961 . S
C1752 C1753 1.370 . S
C1752 C1754 1.363 . S
C1752 H1768 0.931 . S
C1753 C1752 1.370 . S
C1753 C1757 1.408 . S
C1754 C1752 1.363 . S
C1754 C1755 1.370 . S
C1754 C1758 1.524 . S
C1755 C1747 1.503 . S
C1755 C1754 1.370 . S
C1755 C1756 1.403 . S
C1756 C1755 1.403 . S
C1756 C1757 1.404 . S
C1756 C1759 1.539 . S
C1757 C1753 1.408 . S
C1757 C1756 1.404 . S
C1757 H1769 0.930 . S
C1758 C1754 1.524 . S
C1758 H1770 0.956 . S
C1758 H1771 0.961 . S
C1758 H1772 0.961 . S
C1759 C1756 1.539 . S
C1759 H1773 0.958 . S
C1759 H1774 0.961 . S
C1759 H1775 0.960 . S
H1760 C1744 0.931 . S
H1761 C1749 0.929 . S
H1762 C1750 0.960 . S
H1763 C1750 0.962 . S
H1764 C1750 0.960 . S
H1765 C1751 0.961 . S
H1766 C1751 0.961 . S
H1767 C1751 0.961 . S
H1768 C1752 0.931 . S
H1769 C1757 0.930 . S
H1770 C1758 0.956 . S
H1771 C1758 0.961 . S
H1772 C1758 0.961 . S
H1773 C1759 0.958 . S
H1774 C1759 0.961 . S
H1775 C1759 0.960 . S
C1776 C1777 1.391 . S
C1776 C1778 1.394 . S
C1776 H1792 0.931 . S
C1777 C1776 1.391 . S
C1777 C1781 1.376 . S
C1778 C1776 1.394 . S
C1778 C1779 1.369 . S
C1778 C1782 1.531 . S
C1779 C1778 1.369 . S
C1779 C1780 1.410 . S
C1779 C1787 1.503 . S
C1780 C1779 1.410 . S
C1780 C1781 1.392 . S
C1780 C1783 1.511 . S
C1781 C1777 1.376 . S
C1781 C1780 1.392 . S
C1781 H1793 0.929 . S
C1782 C1778 1.531 . S
C1782 H1794 0.960 . S
C1782 H1795 0.962 . S
C1782 H1796 0.960 . S
C1783 C1780 1.511 . S
C1783 H1797 0.961 . S
C1783 H1798 0.961 . S
C1783 H1799 0.961 . S
C1784 C1785 1.370 . S
C1784 C1786 1.363 . S
C1784 H1800 0.931 . S
C1785 C1784 1.370 . S
C1785 C1789 1.408 . S
C1786 C1784 1.363 . S
C1786 C1787 1.370 . S
C1786 C1790 1.524 . S
C1787 C1779 1.503 . S
C1787 C1786 1.370 . S
C1787 C1788 1.403 . S
C1788 C1787 1.403 . S
C1788 C1789 1.404 . S
C1788 C1791 1.539 . S
C1789 C1785 1.408 . S
C1789 C1788 1.404 . S
C1789 H1801 0.930 . S
C1790 C1786 1.524 . S
C1790 H1802 0.956 . S
C1790 H1803 0.961 . S
C1790 H1804 0.961 . S
C1791 C1788 1.539 . S
C1791 H1805 0.958 . S
C1791 H1806 0.961 . S
C1791 H1807 0.960 . S
H1792 C1776 0.931 . S
H1793 C1781 0.929 . S
H1794 C1782 0.960 . S
H1795 C1782 0.962 . S
H1796 C1782 0.960 . S
H1797 C1783 0.961 . S
H1798 C1783 0.961 . S
H1799 C1783 0.961 . S
H1800 C1784 0.931 . S
H1801 C1789 0.930 . S
H1802 C1790 0.956 . S
H1803 C1790 0.961 . S
H1804 C1790 0.961 . S
H1805 C1791 0.958 . S
H1806 C1791 0.961 . S
H1807 C1791 0.960 . S
C1808 C1809 1.391 . S
C1808 C1810 1.394 . S
C1808 H1824 0.931 . S
C1809 C1808 1.391 . S
C1809 C1813 1.376 . S
C1810 C1808 1.394 . S
C1810 C1811 1.369 1_556 S
C1810 C1814 1.529 1_556 S
C1811 C1810 1.369 1_554 S
C1811 C1812 1.410 . S
C1811 C1819 1.503 . S
C1812 C1811 1.410 . S
C1812 C1813 1.392 1_554 S
C1812 C1815 1.511 . S
C1813 C1809 1.376 . S
C1813 C1812 1.392 1_556 S
C1813 H1825 0.929 . S
C1814 C1810 1.529 1_554 S
C1814 H1826 0.963 . S
C1814 H1827 0.963 . S
C1814 H1828 0.958 1_554 S
C1815 C1812 1.511 . S
C1815 H1829 0.961 . S
C1815 H1830 0.961 . S
C1815 H1831 0.961 . S
C1816 C1817 1.370 . S
C1816 C1818 1.363 . S
C1816 H1832 0.931 . S
C1817 C1816 1.370 . S
C1817 C1821 1.408 . S
C1818 C1816 1.363 . S
C1818 C1819 1.370 . S
C1818 C1822 1.524 . S
C1819 C1811 1.503 . S
C1819 C1818 1.370 . S
C1819 C1820 1.403 . S
C1820 C1819 1.403 . S
C1820 C1821 1.404 . S
C1820 C1823 1.539 . S
C1821 C1817 1.408 . S
C1821 C1820 1.404 . S
C1821 H1833 0.930 . S
C1822 C1818 1.524 . S
C1822 H1834 0.956 . S
C1822 H1835 0.961 . S
C1822 H1836 0.961 . S
C1823 C1820 1.539 . S
C1823 H1837 0.958 . S
C1823 H1838 0.961 . S
C1823 H1839 0.960 . S
H1824 C1808 0.931 . S
H1825 C1813 0.929 . S
H1826 C1814 0.963 . S
H1827 C1814 0.963 . S
H1828 C1814 0.958 1_556 S
H1829 C1815 0.961 . S
H1830 C1815 0.961 . S
H1831 C1815 0.961 . S
H1832 C1816 0.931 . S
H1833 C1821 0.930 . S
H1834 C1822 0.956 . S
H1835 C1822 0.961 . S
H1836 C1822 0.961 . S
H1837 C1823 0.958 . S
H1838 C1823 0.961 . S
H1839 C1823 0.960 . S
C1840 C1841 1.391 . S
C1840 C1842 1.394 . S
C1840 H1856 0.931 . S
C1841 C1840 1.391 . S
C1841 C1845 1.376 . S
C1842 C1840 1.394 . S
C1842 C1843 1.369 . S
C1842 C1846 1.531 . S
C1843 C1842 1.369 . S
C1843 C1844 1.410 . S
C1843 C1851 1.503 . S
C1844 C1843 1.410 . S
C1844 C1845 1.392 . S
C1844 C1847 1.511 . S
C1845 C1841 1.376 . S
C1845 C1844 1.392 . S
C1845 H1857 0.929 . S
C1846 C1842 1.531 . S
C1846 H1858 0.960 . S
C1846 H1859 0.962 . S
C1846 H1860 0.960 . S
C1847 C1844 1.511 . S
C1847 H1861 0.961 . S
C1847 H1862 0.961 . S
C1847 H1863 0.961 . S
C1848 C1849 1.370 . S
C1848 C1850 1.363 . S
C1848 H1864 0.931 . S
C1849 C1848 1.370 . S
C1849 C1853 1.408 . S
C1850 C1848 1.363 . S
C1850 C1851 1.370 . S
C1850 C1854 1.524 . S
C1851 C1843 1.503 . S
C1851 C1850 1.370 . S
C1851 C1852 1.403 . S
C1852 C1851 1.403 . S
C1852 C1853 1.404 . S
C1852 C1855 1.539 . S
C1853 C1849 1.408 . S
C1853 C1852 1.404 . S
C1853 H1865 0.930 . S
C1854 C1850 1.524 . S
C1854 H1866 0.956 . S
C1854 H1867 0.961 . S
C1854 H1868 0.961 . S
C1855 C1852 1.539 . S
C1855 H1869 0.958 . S
C1855 H1870 0.961 . S
C1855 H1871 0.960 . S
H1856 C1840 0.931 . S
H1857 C1845 0.929 . S
H1858 C1846 0.960 . S
H1859 C1846 0.962 . S
H1860 C1846 0.960 . S
H1861 C1847 0.961 . S
H1862 C1847 0.961 . S
H1863 C1847 0.961 . S
H1864 C1848 0.931 . S
H1865 C1853 0.930 . S
H1866 C1854 0.956 . S
H1867 C1854 0.961 . S
H1868 C1854 0.961 . S
H1869 C1855 0.958 . S
H1870 C1855 0.961 . S
H1871 C1855 0.960 . S
C1872 C1873 1.391 . S
C1872 C1874 1.394 . S
C1872 H1888 0.931 . S
C1873 C1872 1.391 . S
C1873 C1877 1.376 . S
C1874 C1872 1.394 . S
C1874 C1875 1.369 . S
C1874 C1878 1.531 . S
C1875 C1874 1.369 . S
C1875 C1876 1.410 . S
C1875 C1883 1.503 . S
C1876 C1875 1.410 . S
C1876 C1877 1.392 . S
C1876 C1879 1.511 . S
C1877 C1873 1.376 . S
C1877 C1876 1.392 . S
C1877 H1889 0.929 . S
C1878 C1874 1.531 . S
C1878 H1890 0.960 . S
C1878 H1891 0.962 . S
C1878 H1892 0.960 . S
C1879 C1876 1.511 . S
C1879 H1893 0.961 . S
C1879 H1894 0.961 . S
C1879 H1895 0.961 . S
C1880 C1881 1.370 . S
C1880 C1882 1.363 . S
C1880 H1896 0.931 . S
C1881 C1880 1.370 . S
C1881 C1885 1.408 . S
C1882 C1880 1.363 . S
C1882 C1883 1.370 . S
C1882 C1886 1.524 . S
C1883 C1875 1.503 . S
C1883 C1882 1.370 . S
C1883 C1884 1.403 . S
C1884 C1883 1.403 . S
C1884 C1885 1.404 . S
C1884 C1887 1.539 . S
C1885 C1881 1.408 . S
C1885 C1884 1.404 . S
C1885 H1897 0.930 . S
C1886 C1882 1.524 . S
C1886 H1898 0.956 . S
C1886 H1899 0.961 . S
C1886 H1900 0.961 . S
C1887 C1884 1.539 . S
C1887 H1901 0.958 . S
C1887 H1902 0.961 . S
C1887 H1903 0.960 . S
H1888 C1872 0.931 . S
H1889 C1877 0.929 . S
H1890 C1878 0.960 . S
H1891 C1878 0.962 . S
H1892 C1878 0.960 . S
H1893 C1879 0.961 . S
H1894 C1879 0.961 . S
H1895 C1879 0.961 . S
H1896 C1880 0.931 . S
H1897 C1885 0.930 . S
H1898 C1886 0.956 . S
H1899 C1886 0.961 . S
H1900 C1886 0.961 . S
H1901 C1887 0.958 . S
H1902 C1887 0.961 . S
H1903 C1887 0.960 . S
C1904 C1905 1.391 . S
C1904 C1906 1.394 . S
C1904 H1920 0.931 . S
C1905 C1904 1.391 . S
C1905 C1909 1.376 1_655 S
C1906 C1904 1.394 . S
C1906 C1907 1.369 . S
C1906 C1910 1.531 . S
C1907 C1906 1.369 . S
C1907 C1908 1.410 1_655 S
C1907 C1915 1.503 . S
C1908 C1907 1.410 1_455 S
C1908 C1909 1.392 . S
C1908 C1911 1.511 . S
C1909 C1905 1.376 1_455 S
C1909 C1908 1.392 . S
C1909 H1921 0.929 . S
C1910 C1906 1.531 . S
C1910 H1922 0.960 . S
C1910 H1923 0.962 . S
C1910 H1924 0.960 . S
C1911 C1908 1.511 . S
C1911 H1925 0.961 . S
C1911 H1926 0.961 . S
C1911 H1927 0.961 . S
C1912 C1913 1.370 . S
C1912 C1914 1.363 . S
C1912 H1928 0.931 . S
C1913 C1912 1.370 . S
C1913 C1917 1.408 1_655 S
C1914 C1912 1.363 . S
C1914 C1915 1.370 . S
C1914 C1918 1.524 . S
C1915 C1907 1.503 . S
C1915 C1914 1.370 . S
C1915 C1916 1.403 1_655 S
C1916 C1915 1.403 1_455 S
C1916 C1917 1.404 . S
C1916 C1919 1.539 . S
C1917 C1913 1.408 1_455 S
C1917 C1916 1.404 . S
C1917 H1929 0.930 . S
C1918 C1914 1.524 . S
C1918 H1930 0.956 . S
C1918 H1931 0.961 . S
C1918 H1932 0.961 . S
C1919 C1916 1.539 . S
C1919 H1933 0.958 . S
C1919 H1934 0.961 . S
C1919 H1935 0.960 . S
H1920 C1904 0.931 . S
H1921 C1909 0.929 . S
H1922 C1910 0.960 . S
H1923 C1910 0.962 . S
H1924 C1910 0.960 . S
H1925 C1911 0.961 . S
H1926 C1911 0.961 . S
H1927 C1911 0.961 . S
H1928 C1912 0.931 . S
H1929 C1917 0.930 . S
H1930 C1918 0.956 . S
H1931 C1918 0.961 . S
H1932 C1918 0.961 . S
H1933 C1919 0.958 . S
H1934 C1919 0.961 . S
H1935 C1919 0.960 . S
C1936 C1937 1.391 . S
C1936 C1938 1.394 . S
C1936 H1952 0.931 . S
C1937 C1936 1.391 . S
C1937 C1941 1.376 1_545 S
C1938 C1936 1.394 . S
C1938 C1939 1.369 . S
C1938 C1942 1.531 . S
C1939 C1938 1.369 . S
C1939 C1940 1.410 1_545 S
C1939 C1947 1.503 . S
C1940 C1939 1.410 1_565 S
C1940 C1941 1.392 . S
C1940 C1943 1.511 . S
C1941 C1937 1.376 1_565 S
C1941 C1940 1.392 . S
C1941 H1953 0.929 . S
C1942 C1938 1.531 . S
C1942 H1954 0.960 . S
C1942 H1955 0.962 . S
C1942 H1956 0.960 . S
C1943 C1940 1.511 . S
C1943 H1957 0.961 . S
C1943 H1958 0.961 . S
C1943 H1959 0.961 . S
C1944 C1945 1.370 . S
C1944 C1946 1.363 . S
C1944 H1960 0.931 . S
C1945 C1944 1.370 . S
C1945 C1949 1.408 . S
C1946 C1944 1.363 . S
C1946 C1947 1.370 . S
C1946 C1950 1.524 . S
C1947 C1939 1.503 . S
C1947 C1946 1.370 . S
C1947 C1948 1.403 . S
C1948 C1947 1.403 . S
C1948 C1949 1.404 . S
C1948 C1951 1.539 1_545 S
C1949 C1945 1.408 . S
C1949 C1948 1.404 . S
C1949 H1961 0.930 1_545 S
C1950 C1946 1.524 . S
C1950 H1962 0.956 . S
C1950 H1963 0.961 . S
C1950 H1964 0.961 . S
C1951 C1948 1.539 1_565 S
C1951 H1965 0.958 1_565 S
C1951 H1966 0.961 . S
C1951 H1967 0.960 . S
H1952 C1936 0.931 . S
H1953 C1941 0.929 . S
H1954 C1942 0.960 . S
H1955 C1942 0.962 . S
H1956 C1942 0.960 . S
H1957 C1943 0.961 . S
H1958 C1943 0.961 . S
H1959 C1943 0.961 . S
H1960 C1944 0.931 . S
H1961 C1949 0.930 1_565 S
H1962 C1950 0.956 . S
H1963 C1950 0.961 . S
H1964 C1950 0.961 . S
H1965 C1951 0.958 1_545 S
H1966 C1951 0.961 . S
H1967 C1951 0.960 . S
C945 C5 1.785 . S
C953 C418 1.783 . S
C977 C64 1.880 . S
C985 C241 1.890 . S
C1009 C300 1.725 . S
C1017 C123 1.741 . S
C1041 C182 1.926 . S
C1049 C359 1.904 . S
C1073 C477 1.882 . S
C1081 C713 1.889 . S
C1105 C536 1.732 . S
C1113 C831 1.743 . S
C1137 C654 1.938 . S
C1145 C595 1.892 . S
C1169 C890 1.785 . S
C1177 C772 1.785 . S
C1201 C52 1.071 . S
C1209 C357 1.021 . S
C1233 C446 1.625 . S
C1241 C92 1.663 . S
C1265 C170 0.996 . S
C1273 C239 0.974 . S
C1297 C328 1.796 . S
C1305 C180 1.840 . S
C1329 C33 1.224 . S
C1337 C859 1.276 . S
C1361 C701 0.622 . S
C1369 C62 0.667 1_455 S
C1393 C800 1.225 . S
C1401 C151 1.276 . S
C1425 C711 0.716 . S
C1433 C229 0.619 . S
C1457 C642 1.973 . S
C1465 C288 1.989 . S
C1489 C298 0.961 . S
C1497 C888 1.026 . S
C1521 C406 1.988 . S
C1529 C524 1.983 . S
C1553 C416 1.021 . S
C1561 C534 0.997 . S
C1585 C3 1.588 . S
C1593 C269 1.626 . S
C1617 C505 1.643 . S
C1625 C770 1.618 . S
C1649 C760 1.597 . S
C1657 C583 1.607 . S
C1681 C829 1.260 . S
C1689 C623 1.191 . S
C1713 C465 1.439 . S
C1721 C210 1.420 . S
C1745 C121 1.240 . S
C1753 C387 1.204 . S
C1777 C682 1.427 . S
C1785 C937 1.456 . S
C1809 C819 1.071 . S
C1817 C593 1.059 . S
C1841 C918 1.670 . S
C1849 C741 1.649 . S
C1873 C878 0.978 . S
C1881 C475 0.944 . S
C1905 C652 1.806 . S
C1913 C564 1.837 . S
C1937 C111 1.598 . S
C1945 C347 1.608 . S
