# Generated by pormake.
# Topology sxg, (6)-cn, num edge types: 1
# Building blocks:
#     Node 0, Type 0, BuildingBlock: MIFKUJ_clean_sbu_0, # of connection points: 6
#     Node 1, Type 0, BuildingBlock: MIFKUJ_clean_sbu_0, # of connection points: 6
#     Node 2, Type 0, BuildingBlock: MIFKUJ_clean_sbu_0, # of connection points: 6
#     Node 3, Type 0, BuildingBlock: MIFKUJ_clean_sbu_0, # of connection points: 6
#     Node 4, Type 0, BuildingBlock: MIFKUJ_clean_sbu_0, # of connection points: 6
#     Node 5, Type 0, BuildingBlock: MIFKUJ_clean_sbu_0, # of connection points: 6
#     Node 6, Type 0, BuildingBlock: MIFKUJ_clean_sbu_0, # of connection points: 6
#     Node 7, Type 0, BuildingBlock: MIFKUJ_clean_sbu_0, # of connection points: 6
#     Node 8, Type 0, BuildingBlock: MIFKUJ_clean_sbu_0, # of connection points: 6
#     Node 9, Type 0, BuildingBlock: MIFKUJ_clean_sbu_0, # of connection points: 6
#     Node 10, Type 0, BuildingBlock: MIFKUJ_clean_sbu_0, # of connection points: 6
#     Node 11, Type 0, BuildingBlock: MIFKUJ_clean_sbu_0, # of connection points: 6
#     Node 12, Type 0, BuildingBlock: MIFKUJ_clean_sbu_0, # of connection points: 6
#     Node 13, Type 0, BuildingBlock: MIFKUJ_clean_sbu_0, # of connection points: 6
#     Node 14, Type 0, BuildingBlock: MIFKUJ_clean_sbu_0, # of connection points: 6
#     Node 15, Type 0, BuildingBlock: MIFKUJ_clean_sbu_0, # of connection points: 6
#     Node 16, Type 0, BuildingBlock: MIFKUJ_clean_sbu_0, # of connection points: 6
#     Node 17, Type 0, BuildingBlock: MIFKUJ_clean_sbu_0, # of connection points: 6
#     Node 18, Type 0, BuildingBlock: MIFKUJ_clean_sbu_0, # of connection points: 6
#     Node 19, Type 0, BuildingBlock: MIFKUJ_clean_sbu_0, # of connection points: 6
#     Node 20, Type 0, BuildingBlock: MIFKUJ_clean_sbu_0, # of connection points: 6
#     Node 21, Type 0, BuildingBlock: MIFKUJ_clean_sbu_0, # of connection points: 6
#     Node 22, Type 0, BuildingBlock: MIFKUJ_clean_sbu_0, # of connection points: 6
#     Node 23, Type 0, BuildingBlock: MIFKUJ_clean_sbu_0, # of connection points: 6
#     Edge 24, Type (0, 0), BuildingBlock: XIVTED_clean_linker_0, # of connection points: 2
#     Edge 25, Type (0, 0), BuildingBlock: XIVTED_clean_linker_0, # of connection points: 2
#     Edge 26, Type (0, 0), BuildingBlock: XIVTED_clean_linker_0, # of connection points: 2
#     Edge 27, Type (0, 0), BuildingBlock: XIVTED_clean_linker_0, # of connection points: 2
#     Edge 28, Type (0, 0), BuildingBlock: XIVTED_clean_linker_0, # of connection points: 2
#     Edge 29, Type (0, 0), BuildingBlock: XIVTED_clean_linker_0, # of connection points: 2
#     Edge 30, Type (0, 0), BuildingBlock: XIVTED_clean_linker_0, # of connection points: 2
#     Edge 31, Type (0, 0), BuildingBlock: XIVTED_clean_linker_0, # of connection points: 2
#     Edge 32, Type (0, 0), BuildingBlock: XIVTED_clean_linker_0, # of connection points: 2
#     Edge 33, Type (0, 0), BuildingBlock: XIVTED_clean_linker_0, # of connection points: 2
#     Edge 34, Type (0, 0), BuildingBlock: XIVTED_clean_linker_0, # of connection points: 2
#     Edge 35, Type (0, 0), BuildingBlock: XIVTED_clean_linker_0, # of connection points: 2
#     Edge 36, Type (0, 0), BuildingBlock: XIVTED_clean_linker_0, # of connection points: 2
#     Edge 37, Type (0, 0), BuildingBlock: XIVTED_clean_linker_0, # of connection points: 2
#     Edge 38, Type (0, 0), BuildingBlock: XIVTED_clean_linker_0, # of connection points: 2
#     Edge 39, Type (0, 0), BuildingBlock: XIVTED_clean_linker_0, # of connection points: 2
#     Edge 40, Type (0, 0), BuildingBlock: XIVTED_clean_linker_0, # of connection points: 2
#     Edge 41, Type (0, 0), BuildingBlock: XIVTED_clean_linker_0, # of connection points: 2
#     Edge 42, Type (0, 0), BuildingBlock: XIVTED_clean_linker_0, # of connection points: 2
#     Edge 43, Type (0, 0), BuildingBlock: XIVTED_clean_linker_0, # of connection points: 2
#     Edge 44, Type (0, 0), BuildingBlock: XIVTED_clean_linker_0, # of connection points: 2
#     Edge 45, Type (0, 0), BuildingBlock: XIVTED_clean_linker_0, # of connection points: 2
#     Edge 46, Type (0, 0), BuildingBlock: XIVTED_clean_linker_0, # of connection points: 2
#     Edge 47, Type (0, 0), BuildingBlock: XIVTED_clean_linker_0, # of connection points: 2
#     Edge 48, Type (0, 0), BuildingBlock: XIVTED_clean_linker_0, # of connection points: 2
#     Edge 49, Type (0, 0), BuildingBlock: XIVTED_clean_linker_0, # of connection points: 2
#     Edge 50, Type (0, 0), BuildingBlock: XIVTED_clean_linker_0, # of connection points: 2
#     Edge 51, Type (0, 0), BuildingBlock: XIVTED_clean_linker_0, # of connection points: 2
#     Edge 52, Type (0, 0), BuildingBlock: XIVTED_clean_linker_0, # of connection points: 2
#     Edge 53, Type (0, 0), BuildingBlock: XIVTED_clean_linker_0, # of connection points: 2
#     Edge 54, Type (0, 0), BuildingBlock: XIVTED_clean_linker_0, # of connection points: 2
#     Edge 55, Type (0, 0), BuildingBlock: XIVTED_clean_linker_0, # of connection points: 2
#     Edge 56, Type (0, 0), BuildingBlock: XIVTED_clean_linker_0, # of connection points: 2
#     Edge 57, Type (0, 0), BuildingBlock: XIVTED_clean_linker_0, # of connection points: 2
#     Edge 58, Type (0, 0), BuildingBlock: XIVTED_clean_linker_0, # of connection points: 2
#     Edge 59, Type (0, 0), BuildingBlock: XIVTED_clean_linker_0, # of connection points: 2
#     Edge 60, Type (0, 0), BuildingBlock: XIVTED_clean_linker_0, # of connection points: 2
#     Edge 61, Type (0, 0), BuildingBlock: XIVTED_clean_linker_0, # of connection points: 2
#     Edge 62, Type (0, 0), BuildingBlock: XIVTED_clean_linker_0, # of connection points: 2
#     Edge 63, Type (0, 0), BuildingBlock: XIVTED_clean_linker_0, # of connection points: 2
#     Edge 64, Type (0, 0), BuildingBlock: XIVTED_clean_linker_0, # of connection points: 2
#     Edge 65, Type (0, 0), BuildingBlock: XIVTED_clean_linker_0, # of connection points: 2
#     Edge 66, Type (0, 0), BuildingBlock: XIVTED_clean_linker_0, # of connection points: 2
#     Edge 67, Type (0, 0), BuildingBlock: XIVTED_clean_linker_0, # of connection points: 2
#     Edge 68, Type (0, 0), BuildingBlock: XIVTED_clean_linker_0, # of connection points: 2
#     Edge 69, Type (0, 0), BuildingBlock: XIVTED_clean_linker_0, # of connection points: 2
#     Edge 70, Type (0, 0), BuildingBlock: XIVTED_clean_linker_0, # of connection points: 2
#     Edge 71, Type (0, 0), BuildingBlock: XIVTED_clean_linker_0, # of connection points: 2
#     Edge 72, Type (0, 0), BuildingBlock: XIVTED_clean_linker_0, # of connection points: 2
#     Edge 73, Type (0, 0), BuildingBlock: XIVTED_clean_linker_0, # of connection points: 2
#     Edge 74, Type (0, 0), BuildingBlock: XIVTED_clean_linker_0, # of connection points: 2
#     Edge 75, Type (0, 0), BuildingBlock: XIVTED_clean_linker_0, # of connection points: 2
#     Edge 76, Type (0, 0), BuildingBlock: XIVTED_clean_linker_0, # of connection points: 2
#     Edge 77, Type (0, 0), BuildingBlock: XIVTED_clean_linker_0, # of connection points: 2
#     Edge 78, Type (0, 0), BuildingBlock: XIVTED_clean_linker_0, # of connection points: 2
#     Edge 79, Type (0, 0), BuildingBlock: XIVTED_clean_linker_0, # of connection points: 2
#     Edge 80, Type (0, 0), BuildingBlock: XIVTED_clean_linker_0, # of connection points: 2
#     Edge 81, Type (0, 0), BuildingBlock: XIVTED_clean_linker_0, # of connection points: 2
#     Edge 82, Type (0, 0), BuildingBlock: XIVTED_clean_linker_0, # of connection points: 2
#     Edge 83, Type (0, 0), BuildingBlock: XIVTED_clean_linker_0, # of connection points: 2
#     Edge 84, Type (0, 0), BuildingBlock: XIVTED_clean_linker_0, # of connection points: 2
#     Edge 85, Type (0, 0), BuildingBlock: XIVTED_clean_linker_0, # of connection points: 2
#     Edge 86, Type (0, 0), BuildingBlock: XIVTED_clean_linker_0, # of connection points: 2
#     Edge 87, Type (0, 0), BuildingBlock: XIVTED_clean_linker_0, # of connection points: 2
#     Edge 88, Type (0, 0), BuildingBlock: XIVTED_clean_linker_0, # of connection points: 2
#     Edge 89, Type (0, 0), BuildingBlock: XIVTED_clean_linker_0, # of connection points: 2
#     Edge 90, Type (0, 0), BuildingBlock: XIVTED_clean_linker_0, # of connection points: 2
#     Edge 91, Type (0, 0), BuildingBlock: XIVTED_clean_linker_0, # of connection points: 2
#     Edge 92, Type (0, 0), BuildingBlock: XIVTED_clean_linker_0, # of connection points: 2
#     Edge 93, Type (0, 0), BuildingBlock: XIVTED_clean_linker_0, # of connection points: 2
#     Edge 94, Type (0, 0), BuildingBlock: XIVTED_clean_linker_0, # of connection points: 2
#     Edge 95, Type (0, 0), BuildingBlock: XIVTED_clean_linker_0, # of connection points: 2
# Relax obj value: 0.175
# Max RMSD: 0.247
# Mean RMSD: 0.247
data_MOF--net-sxg--node1-MIFKUJ_clean_sbu_0--edge1-XIVTED_clean_linker_0
_symmetry_space_group_name_H-M    P1
_symmetry_Int_Tables_number       1
_symmetry_cell_setting            triclinic
loop_
_symmetry_equiv_pos_as_xyz
'x, y, z'
_cell_length_a     47.147724
_cell_length_b     47.099742
_cell_length_c     47.080437
_cell_angle_alpha  90.00647
_cell_angle_beta   89.972388
_cell_angle_gamma 90.066878
loop_
_atom_site_label
_atom_site_type_symbol
_atom_site_fract_x
_atom_site_fract_y
_atom_site_fract_z
_atom_type_partial_charge
Zn0 Zn 0.03961 0.28187 0.25174 0.0
Zn1 Zn -0.00082 0.33403 0.24653 0.0
C2 C 0.06756 0.27595 0.19652 0.0
O3 O 0.05047 0.25414 0.19327 0.0
C4 C 0.98107 0.32693 0.30248 0.0
O5 O 0.99324 0.35201 0.3035 0.0
O6 O 0.05416 0.24419 0.26607 0.0
O7 O 0.04922 0.31334 0.28084 0.0
O8 O 0.03682 0.34975 0.25411 0.0
C9 C 0.07557 0.24163 0.28225 0.0
O10 O 0.08799 0.26459 0.29211 0.0
O11 O 0.06579 0.29088 0.21895 0.0
C12 C 0.94521 0.35514 0.2401 0.0
O13 O 0.94179 0.3275 0.23832 0.0
O14 O 0.9702 0.36506 0.24259 0.0
O15 O -0.00114 0.31264 0.21055 0.0
O16 O 0.00014 0.27311 0.235 0.0
O17 O 0.98342 0.31223 0.27994 0.0
C18 C 0.0531 0.33883 0.27246 0.0
C19 C 0.99307 0.28657 0.21272 0.0
Zn20 Zn 0.45515 0.71061 0.75149 0.0
Zn21 Zn 0.49335 0.66081 0.74163 0.0
C22 C 0.43032 0.72001 0.69616 0.0
O23 O 0.44426 0.7441 0.69807 0.0
C24 C 0.51426 0.66206 0.79746 0.0
O25 O 0.50857 0.63491 0.79439 0.0
O26 O 0.43617 0.74615 0.7665 0.0
O27 O 0.44547 0.67749 0.77843 0.0
O28 O 0.45543 0.64448 0.74684 0.0
C29 C 0.40927 0.7468 0.76471 0.0
O30 O 0.39573 0.72384 0.75649 0.0
O31 O 0.43286 0.70175 0.71588 0.0
C32 C 0.54781 0.63824 0.73705 0.0
O33 O 0.5531 0.66555 0.73931 0.0
O34 O 0.52215 0.62997 0.73547 0.0
O35 O 0.49548 0.68644 0.70867 0.0
O36 O 0.49503 0.7225 0.73808 0.0
O37 O 0.50721 0.67918 0.77779 0.0
C38 C 0.44069 0.65312 0.7676 0.0
C39 C 0.50221 0.71178 0.71436 0.0
Zn40 Zn 0.54049 0.22272 0.75278 0.0
Zn41 Zn 0.49694 0.16666 0.74542 0.0
C42 C 0.57284 0.20442 0.8025 0.0
O43 O 0.55033 0.18952 0.80951 0.0
C44 C 0.49001 0.17607 0.68767 0.0
O45 O 0.50188 0.15084 0.68733 0.0
O46 O 0.54857 0.26043 0.73405 0.0
O47 O 0.54986 0.19 0.72511 0.0
O48 O 0.53606 0.15288 0.74973 0.0
C49 C 0.57018 0.26273 0.71804 0.0
O50 O 0.58436 0.23972 0.71124 0.0
O51 O 0.57245 0.21964 0.78026 0.0
C52 C 0.44441 0.14441 0.73846 0.0
O53 O 0.44079 0.17207 0.73848 0.0
O54 O 0.46939 0.13453 0.74094 0.0
O55 O 0.48274 0.18598 0.77889 0.0
O56 O 0.50484 0.22739 0.77793 0.0
O57 O 0.4901 0.19009 0.7107 0.0
C58 C 0.5546 0.16517 0.7347 0.0
C59 C 0.48557 0.21112 0.7877 0.0
Zn60 Zn 0.95001 0.77537 0.25744 0.0
Zn61 Zn 0.01368 0.82672 0.23856 0.0
C62 C 0.9164 0.79553 0.30515 0.0
O63 O 0.94066 0.80527 0.31483 0.0
C64 C 0.04538 0.81303 0.19356 0.0
O65 O 0.03869 0.83997 0.19078 0.0
O66 O 0.94171 0.74037 0.23444 0.0
O67 O 0.95499 0.81054 0.23362 0.0
O68 O 0.98242 0.84375 0.21605 0.0
C69 C 0.92099 0.73982 0.2172 0.0
O70 O 0.90694 0.7634 0.2123 0.0
O71 O 0.9158 0.78219 0.28171 0.0
C72 C 0.06703 0.84758 0.25416 0.0
O73 O 0.07093 0.82017 0.25754 0.0
O74 O 0.04261 0.85666 0.24735 0.0
O75 O 0.99685 0.81202 0.27508 0.0
O76 O 0.98417 0.76819 0.28253 0.0
O77 O 0.03441 0.7989 0.21382 0.0
C78 C 0.95801 0.83273 0.21858 0.0
C79 C 0.00201 0.78807 0.28619 0.0
Zn80 Zn 0.24821 0.043 0.28068 0.0
Zn81 Zn 0.24977 0.00366 0.33278 0.0
C82 C 0.19168 0.06591 0.27679 0.0
O83 O 0.19128 0.05119 0.25308 0.0
C84 C 0.30565 0.98759 0.32421 0.0
O85 O 0.30677 -0.00104 0.34967 0.0
O86 O 0.25898 0.06069 0.24327 0.0
O87 O 0.2787 0.05531 0.3092 0.0
O88 O 0.25669 0.04133 0.34819 0.0
C89 C 0.25682 0.08754 0.24196 0.0
O90 O 0.24984 0.10174 0.26494 0.0
O91 O 0.21324 0.06427 0.29287 0.0
C92 C 0.25386 0.95008 0.35875 0.0
O93 O 0.25758 0.94297 0.33203 0.0
O94 O 0.24885 0.97588 0.36499 0.0
O95 O 0.21356 -0.00066 0.31282 0.0
O96 O 0.23577 0.00218 0.27204 0.0
O97 O 0.28304 0.99039 0.30978 0.0
C98 C 0.2742 0.05747 0.3358 0.0
C99 C 0.21626 0.99147 0.28732 0.0
Zn100 Zn 0.25232 0.96168 0.77662 0.0
Zn101 Zn 0.25327 0.00678 0.82954 0.0
C102 C 0.3005 0.92859 0.76264 0.0
O103 O 0.29571 0.94096 0.73809 0.0
C104 C 0.1977 0.02169 0.82213 0.0
O105 O 0.19805 0.01034 0.84761 0.0
O106 O 0.23558 0.94723 0.73982 0.0
O107 O 0.22342 0.95333 0.80808 0.0
O108 O 0.24442 0.97013 0.84669 0.0
C109 C 0.22474 0.92253 0.73879 0.0
O110 O 0.22231 0.90785 0.7624 0.0
O111 O 0.28514 0.93516 0.78383 0.0
C112 C 0.25309 0.06188 0.85238 0.0
O113 O 0.25136 0.06752 0.82511 0.0
O114 O 0.25565 0.03618 0.86035 0.0
O115 O 0.28941 0.00789 0.809 0.0
O116 O 0.26944 0.00043 0.76745 0.0
O117 O 0.21999 0.0205 0.80696 0.0
C118 C 0.22672 0.95367 0.83494 0.0
C119 C 0.28867 0.01189 0.78249 0.0
Zn120 Zn 0.74671 0.45947 0.72317 0.0
Zn121 Zn 0.74238 0.50192 0.67221 0.0
C122 C 0.69091 0.43398 0.72784 0.0
O123 O 0.68963 0.44896 0.75136 0.0
C124 C 0.79668 0.52399 0.67842 0.0
O125 O 0.79618 0.51634 0.65158 0.0
O126 O 0.7598 0.44194 0.76025 0.0
O127 O 0.77564 0.45003 0.69146 0.0
O128 O 0.74854 0.4641 0.65607 0.0
C129 C 0.77415 0.41912 0.76151 0.0
O130 O 0.78279 0.4072 0.73781 0.0
O131 O 0.71285 0.43579 0.71227 0.0
C132 C 0.74111 0.5562 0.64658 0.0
O133 O 0.74299 0.56353 0.67345 0.0
O134 O 0.73879 0.53003 0.64022 0.0
O135 O 0.70688 0.50348 0.69391 0.0
O136 O 0.73102 0.49913 0.73354 0.0
O137 O 0.77611 0.51671 0.69434 0.0
C138 C 0.76669 0.44705 0.66605 0.0
C139 C 0.70914 0.5077 0.72028 0.0
Zn140 Zn 0.75152 0.54011 0.21285 0.0
Zn141 Zn 0.74649 0.49612 0.16035 0.0
C142 C 0.80845 0.56416 0.21228 0.0
O143 O 0.81375 0.545 0.23182 0.0
C144 C 0.68987 0.4837 0.17059 0.0
O145 O 0.68939 0.49153 0.1438 0.0
O146 O 0.73888 0.55625 0.25078 0.0
O147 O 0.72128 0.54928 0.18238 0.0
O148 O 0.74601 0.53512 0.14535 0.0
C149 C 0.72355 0.57831 0.25323 0.0
O150 O 0.71376 0.59063 0.23021 0.0
O151 O 0.78392 0.56524 0.20122 0.0
C152 C 0.73933 0.44228 0.13645 0.0
O153 O 0.73803 0.43671 0.16376 0.0
O154 O 0.74355 0.46777 0.12846 0.0
O155 O 0.78176 0.48619 0.1795 0.0
O156 O 0.76884 0.50086 0.22209 0.0
O157 O 0.7126 0.48722 0.18468 0.0
C158 C 0.72932 0.55282 0.15674 0.0
C159 C 0.7838 0.48491 0.20621 0.0
Zn160 Zn 0.27912 0.25294 0.03772 0.0
Zn161 Zn 0.32915 0.2375 0.0026 0.0
C162 C 0.25914 0.2037 0.06575 0.0
O163 O 0.23571 0.21162 0.0529 0.0
C164 C 0.32982 0.2949 0.98475 0.0
O165 O 0.35525 0.29346 0.99604 0.0
O166 O 0.24382 0.27198 0.05322 0.0
O167 O 0.31456 0.27636 0.04947 0.0
O168 O 0.34535 0.24241 0.0404 0.0
C169 C 0.24323 0.28051 0.07884 0.0
O170 O 0.26677 0.28006 0.09375 0.0
O171 O 0.28176 0.21778 0.06164 0.0
C172 C 0.35073 0.2298 0.94871 0.0
O173 O 0.32324 0.23121 0.94437 0.0
O174 O 0.35994 0.23006 0.97409 0.0
O175 O 0.30175 0.20586 0.001 0.0
O176 O 0.26862 0.23825 0.99778 0.0
O177 O 0.31302 0.27394 0.98734 0.0
C178 C 0.33816 0.26406 0.05458 0.0
C179 C 0.27741 0.21326 0.99259 0.0
Zn180 Zn 0.78031 0.24401 0.96383 0.0
Zn181 Zn 0.82775 0.25407 0.00613 0.0
C182 C 0.77037 0.2977 0.9353 0.0
O183 O 0.74628 0.2966 0.9493 0.0
C184 C 0.82498 0.19839 0.02782 0.0
O185 O 0.85228 0.20126 0.02298 0.0
O186 O 0.74688 0.22581 0.94471 0.0
O187 O 0.81423 0.21746 0.95724 0.0
O188 O 0.84626 0.24919 0.96898 0.0
C189 C 0.74923 0.22176 0.91814 0.0
O190 O 0.77348 0.2277 0.9057 0.0
O191 O 0.78863 0.27823 0.93914 0.0
C192 C 0.85104 0.25772 0.06138 0.0
O193 O 0.82438 0.2528 0.06791 0.0
O194 O 0.85791 0.26076 0.03542 0.0
O195 O 0.80247 0.28737 0.00685 0.0
O196 O 0.76582 0.25903 0.00222 0.0
O197 O 0.80828 0.21803 0.01978 0.0
C198 C 0.83855 0.22865 0.95349 0.0
C199 C 0.7764 0.28241 0.01058 0.0
Zn200 Zn 0.70905 0.74703 0.46112 0.0
Zn201 Zn 0.66102 0.73871 0.50461 0.0
C202 C 0.72 0.69419 0.43095 0.0
O203 O 0.74321 0.694 0.44639 0.0
C204 C 0.66751 0.79669 0.51889 0.0
O205 O 0.64148 0.79692 0.50893 0.0
O206 O 0.74245 0.767 0.44373 0.0
O207 O 0.67484 0.77325 0.4546 0.0
O208 O 0.64228 0.74257 0.46763 0.0
C209 C 0.73987 0.7747 0.41799 0.0
O210 O 0.71548 0.77061 0.40511 0.0
O211 O 0.70204 0.71398 0.43455 0.0
C212 C 0.63831 0.74004 0.5601 0.0
O213 O 0.66527 0.74391 0.56604 0.0
O214 O 0.63096 0.73552 0.5345 0.0
O215 O 0.68466 0.70439 0.50627 0.0
O216 O 0.72277 0.73035 0.49924 0.0
O217 O 0.68209 0.77408 0.51677 0.0
C218 C 0.65023 0.76252 0.45154 0.0
C219 C 0.71111 0.70791 0.50873 0.0
Zn220 Zn 0.22202 0.75126 0.53361 0.0
Zn221 Zn 0.16875 0.76236 0.49526 0.0
C222 C 0.22699 0.8049 0.56364 0.0
O223 O 0.24964 0.80807 0.54768 0.0
C224 C 0.16902 0.70976 0.46802 0.0
O225 O 0.14237 0.71217 0.47583 0.0
O226 O 0.25895 0.73634 0.54938 0.0
O227 O 0.19071 0.72173 0.53977 0.0
O228 O 0.15554 0.75186 0.53325 0.0
C229 C 0.25972 0.72137 0.57184 0.0
O230 O 0.23576 0.71355 0.58378 0.0
O231 O 0.21171 0.78286 0.56062 0.0
C232 C 0.14202 0.78251 0.44596 0.0
O233 O 0.16856 0.78918 0.4406 0.0
O234 O 0.13574 0.77173 0.46991 0.0
O235 O 0.19353 0.7961 0.49652 0.0
O236 O 0.23156 0.76934 0.4952 0.0
O237 O 0.1866 0.72886 0.47557 0.0
C238 C 0.16626 0.73108 0.54652 0.0
C239 C 0.21933 0.7928 0.49003 0.0
Zn240 Zn 0.00621 0.65519 0.74741 0.0
Zn241 Zn 0.94443 0.711 0.74868 0.0
C242 C 0.03948 0.65758 0.69928 0.0
O243 O 0.03565 0.63016 0.70276 0.0
C244 C 0.91702 0.7034 0.80334 0.0
O245 O 0.93882 0.71811 0.81259 0.0
O246 O 0.03408 0.62813 0.76445 0.0
O247 O 0.98937 0.6818 0.77639 0.0
O248 O 0.97881 0.72637 0.7699 0.0
C249 C 0.05964 0.6365 0.76666 0.0
O250 O 0.06562 0.66336 0.76196 0.0
O251 O 0.02695 0.67474 0.71593 0.0
C252 C 0.89972 0.74307 0.72437 0.0
O253 O 0.88563 0.72038 0.73243 0.0
O254 O 0.9266 0.74306 0.72638 0.0
O255 O 0.9599 0.6785 0.72591 0.0
O256 O 0.97292 0.6346 0.73148 0.0
O257 O 0.91559 0.69696 0.77716 0.0
C258 C 0.99608 0.70774 0.77903 0.0
C259 C 0.95331 0.65231 0.72646 0.0
Zn260 Zn 0.49452 0.33156 0.25705 0.0
Zn261 Zn 0.53406 0.28204 0.24981 0.0
C262 C 0.47991 0.32857 0.19902 0.0
O263 O 0.48624 0.35565 0.20132 0.0
C264 C 0.56117 0.27059 0.30396 0.0
O265 O 0.54801 0.24608 0.30175 0.0
O266 O 0.4662 0.36326 0.25902 0.0
O267 O 0.4869 0.30686 0.28968 0.0
O268 O 0.49448 0.26912 0.26322 0.0
C269 C 0.44078 0.35644 0.253 0.0
O270 O 0.43463 0.32964 0.24831 0.0
O271 O 0.48457 0.31226 0.22004 0.0
C272 C 0.57877 0.24983 0.22641 0.0
O273 O 0.59179 0.27406 0.23116 0.0
O274 O 0.55247 0.2479 0.23196 0.0
O275 O 0.54352 0.31614 0.22407 0.0
O276 O 0.53311 0.3474 0.257 0.0
O277 O 0.55733 0.28933 0.28494 0.0
C278 C 0.48274 0.28088 0.28451 0.0
C279 C 0.54834 0.33983 0.23623 0.0
Zn280 Zn 0.49336 0.8349 0.24901 0.0
Zn281 Zn 0.45681 0.78007 0.24895 0.0
C282 C 0.5125 0.82685 0.30355 0.0
O283 O 0.50491 0.85368 0.30306 0.0
C284 C 0.43229 0.77544 0.19348 0.0
O285 O 0.4495 0.75358 0.19178 0.0
O286 O 0.52201 0.86664 0.24665 0.0
O287 O 0.49497 0.81581 0.21201 0.0
O288 O 0.49704 0.7743 0.23267 0.0
C289 C 0.54732 0.85734 0.24757 0.0
O290 O 0.55145 0.82978 0.24875 0.0
O291 O 0.50729 0.81144 0.28198 0.0
C292 C 0.41868 0.73956 0.27406 0.0
O293 O 0.40576 0.76299 0.28188 0.0
O294 O 0.44197 0.74138 0.26055 0.0
O295 O 0.44505 0.80899 0.27981 0.0
O296 O 0.45578 0.84917 0.25778 0.0
O297 O 0.43235 0.79052 0.21583 0.0
C298 C 0.50488 0.79096 0.21289 0.0
C299 C 0.44097 0.83542 0.27549 0.0
Zn300 Zn 0.99458 0.16324 0.74541 0.0
Zn301 Zn 0.03649 0.21554 0.74685 0.0
C302 C 0.97213 0.17016 0.79874 0.0
O303 O 0.98022 0.14347 0.79796 0.0
C304 C 0.06443 0.2189 0.69189 0.0
O305 O 0.04807 0.24121 0.68852 0.0
O306 O 0.9661 0.1319 0.74038 0.0
O307 O 0.99709 0.18288 0.70841 0.0
O308 O 0.99691 0.22347 0.73086 0.0
C309 C 0.94025 0.13959 0.7401 0.0
O310 O 0.93423 0.16682 0.74068 0.0
O311 O 0.97807 0.18614 0.77774 0.0
C312 C 0.06859 0.25835 0.77884 0.0
O313 O 0.07494 0.23743 0.79614 0.0
O314 O 0.05206 0.25374 0.75804 0.0
O315 O 0.04593 0.18662 0.77796 0.0
O316 O 0.03053 0.14705 0.75769 0.0
O317 O 0.06206 0.20413 0.71437 0.0
C318 C 0.99069 0.20887 0.70909 0.0
C319 C 0.04678 0.15973 0.77496 0.0
Zn320 Zn 0.75384 0.0001 0.66395 0.0
Zn321 Zn 0.74476 0.958 0.71563 0.0
C322 C 0.70233 0.02822 0.66939 0.0
O323 O 0.70329 0.02234 0.64212 0.0
C324 C 0.7933 0.92535 0.7306 0.0
O325 O 0.78797 0.93705 0.75537 0.0
O326 O 0.76323 0.02914 0.6341 0.0
O327 O 0.78857 0.99401 0.68699 0.0
O328 O 0.76152 0.99723 0.72453 0.0
C329 C 0.76469 0.05493 0.64203 0.0
O330 O 0.7631 0.06086 0.66926 0.0
O331 O 0.72174 0.01855 0.68547 0.0
C332 C 0.71614 0.91894 0.75328 0.0
O333 O 0.71239 0.90488 0.72947 0.0
O334 O 0.72783 0.94327 0.7524 0.0
O335 O 0.71799 0.94778 0.68261 0.0
O336 O 0.7399 0.96581 0.64504 0.0
O337 O 0.77822 0.93219 0.70933 0.0
C338 C 0.78529 0.00144 0.71256 0.0
C339 C 0.72223 0.94864 0.65584 0.0
Zn340 Zn 0.75473 0.98745 0.16975 0.0
Zn341 Zn 0.74464 0.04246 0.22184 0.0
C342 C 0.81262 0.97768 0.17132 0.0
O343 O 0.80941 0.98644 0.14501 0.0
C344 C 0.69379 0.07377 0.20484 0.0
O345 O 0.68317 0.04879 0.19839 0.0
O346 O 0.7538 0.95954 0.13747 0.0
O347 O 0.72407 0.97548 0.19508 0.0
O348 O 0.71856 0.00833 0.22839 0.0
C349 C 0.76059 0.93391 0.1426 0.0
O350 O 0.76722 0.92657 0.1687 0.0
O351 O 0.79203 0.98046 0.18846 0.0
C352 C 0.77898 0.0737 0.26143 0.0
O353 O 0.78641 0.08717 0.23814 0.0
O354 O 0.76268 0.05228 0.25946 0.0
O355 O 0.77371 0.04481 0.18965 0.0
O356 O 0.75057 0.02631 0.15368 0.0
O357 O 0.71886 0.07549 0.21457 0.0
C358 C 0.71206 0.98455 0.21733 0.0
C359 C 0.76435 0.04676 0.16438 0.0
Zn360 Zn 0.25854 0.49973 0.33419 0.0
Zn361 Zn 0.2456 0.5355 0.28288 0.0
C362 C 0.20399 0.47542 0.33278 0.0
O363 O 0.20621 0.48214 0.35978 0.0
C364 C 0.29864 0.56505 0.27105 0.0
O365 O 0.29914 0.54886 0.24833 0.0
O366 O 0.26608 0.47242 0.36602 0.0
O367 O 0.29201 0.49917 0.30917 0.0
O368 O 0.26301 0.49669 0.27295 0.0
C369 C 0.26519 0.44636 0.35894 0.0
O370 O 0.26248 0.43976 0.33195 0.0
O371 O 0.22349 0.48317 0.31575 0.0
C372 C 0.21686 0.57395 0.24571 0.0
O373 O 0.21607 0.58938 0.26895 0.0
O374 O 0.22737 0.54916 0.24685 0.0
O375 O 0.21894 0.5449 0.31633 0.0
O376 O 0.25139 0.53784 0.34916 0.0
O377 O 0.27839 0.56242 0.28869 0.0
C378 C 0.28718 0.49184 0.28383 0.0
C379 C 0.23015 0.5515 0.34009 0.0
Zn380 Zn 0.24125 0.48589 0.83405 0.0
Zn381 Zn 0.25409 0.45165 0.78358 0.0
C382 C 0.29342 0.51405 0.83161 0.0
O383 O 0.29125 0.50809 0.8588 0.0
C384 C 0.20296 0.42123 0.77082 0.0
O385 O 0.2053 0.43533 0.74685 0.0
O386 O 0.23142 0.5149 0.86323 0.0
O387 O 0.20722 0.4808 0.80974 0.0
O388 O 0.23596 0.49043 0.77486 0.0
C389 C 0.22812 0.53932 0.85228 0.0
O390 O 0.22752 0.54169 0.82451 0.0
O391 O 0.27463 0.50463 0.81464 0.0
C392 C 0.28125 0.41351 0.74548 0.0
O393 O 0.2828 0.3982 0.76876 0.0
O394 O 0.27098 0.43837 0.74687 0.0
O395 O 0.28213 0.44214 0.81582 0.0
O396 O 0.25449 0.45156 0.85257 0.0
O397 O 0.22146 0.4249 0.79009 0.0
C398 C 0.21138 0.49208 0.78576 0.0
C399 C 0.27574 0.43902 0.84198 0.0
Zn400 Zn 0.65932 0.75865 0.99847 0.0
Zn401 Zn 0.70735 0.74595 0.95792 0.0
C402 C 0.66229 0.70466 0.02374 0.0
O403 O 0.63487 0.70742 0.01964 0.0
C404 C 0.71798 0.79903 0.92787 0.0
O405 O 0.74091 0.79977 0.94371 0.0
O406 O 0.62991 0.76591 0.02825 0.0
O407 O 0.68428 0.79233 0.99715 0.0
O408 O 0.72043 0.76323 0.99603 0.0
C409 C 0.63995 0.76958 0.05303 0.0
O410 O 0.66756 0.77144 0.05635 0.0
O411 O 0.67892 0.72357 0.01388 0.0
C412 C 0.74046 0.71599 0.91687 0.0
O413 O 0.71622 0.71657 0.90312 0.0
O414 O 0.74165 0.72641 0.94174 0.0
O415 O 0.67298 0.71953 0.95147 0.0
O416 O 0.64079 0.75162 0.96196 0.0
O417 O 0.70052 0.77866 0.93093 0.0
C418 C 0.70999 0.78721 0.00265 0.0
C419 C 0.64854 0.73039 0.94746 0.0
Zn420 Zn 0.16949 0.7474 0.98072 0.0
Zn421 Zn 0.22676 0.73507 0.03488 0.0
C422 C 0.1686 0.80711 0.97266 0.0
O423 O 0.14267 0.80464 0.98259 0.0
C424 C 0.21931 0.68178 0.06519 0.0
O425 O 0.23183 0.67064 0.04291 0.0
O426 O 0.13711 0.74193 0.95362 0.0
O427 O 0.19847 0.71937 0.96952 0.0
O428 O 0.23419 0.71189 -0.00055 0.0
C429 C 0.13997 0.75141 0.92848 0.0
O430 O 0.16361 0.76434 0.92132 0.0
O431 O 0.18494 0.78574 0.97316 0.0
C432 C 0.26418 0.76961 0.06837 0.0
O433 O 0.24022 0.77735 0.0803 0.0
O434 O 0.2635 0.75258 0.04746 0.0
O435 O 0.19589 0.76418 0.03223 0.0
O436 O 0.15612 0.74355 0.02021 0.0
O437 O 0.21502 0.70839 0.06604 0.0
C438 C 0.22165 0.70736 0.97596 0.0
C439 C 0.17176 0.75435 0.03917 0.0
Zn440 Zn 0.3332 0.25559 0.50047 0.0
Zn441 Zn 0.28132 0.24635 0.53848 0.0
C442 C 0.32724 0.20171 0.47918 0.0
O443 O 0.35293 0.20162 0.48995 0.0
C444 C 0.2761 0.29993 0.56859 0.0
O445 O 0.25385 0.3039 0.55229 0.0
O446 O 0.36342 0.26143 0.47104 0.0
O447 O 0.31169 0.29125 0.50418 0.0
O448 O 0.27324 0.26562 0.49993 0.0
C449 C 0.35375 0.26394 0.44594 0.0
O450 O 0.32621 0.26608 0.44228 0.0
O451 O 0.31155 0.22331 0.48299 0.0
C452 C 0.24206 0.22062 0.57759 0.0
O453 O 0.26543 0.21742 0.59244 0.0
O454 O 0.24368 0.23142 0.55289 0.0
O455 O 0.31259 0.21707 0.54742 0.0
O456 O 0.35014 0.243 0.53597 0.0
O457 O 0.29081 0.27757 0.56567 0.0
C458 C 0.28636 0.28887 0.49585 0.0
C459 C 0.33892 0.22298 0.54999 0.0
Zn460 Zn 0.83038 0.24686 0.4988 0.0
Zn461 Zn 0.77759 0.25036 0.45849 0.0
C462 C 0.82615 0.29929 0.52526 0.0
O463 O 0.85275 0.29833 0.51696 0.0
C464 C 0.77251 0.19417 0.43346 0.0
O465 O 0.74952 0.19265 0.44917 0.0
O466 O 0.86198 0.23901 0.52598 0.0
O467 O 0.80903 0.21081 0.49567 0.0
O468 O 0.77026 0.23578 0.49916 0.0
C469 C 0.85505 0.23837 0.55207 0.0
O470 O 0.82815 0.24036 0.55907 0.0
O471 O 0.80948 0.27936 0.51771 0.0
C472 C 0.73519 0.27991 0.42361 0.0
O473 O 0.75702 0.294 0.41345 0.0
O474 O 0.73914 0.26174 0.44317 0.0
O475 O 0.80769 0.27993 0.44639 0.0
O476 O 0.84677 0.25987 0.46311 0.0
O477 O 0.78792 0.21629 0.43477 0.0
C478 C 0.7839 0.21318 0.50453 0.0
C479 C 0.8346 0.27681 0.44619 0.0
H480 H 0.07781 0.34073 0.3256 0.0
H481 H 0.19146 0.45836 0.27859 0.0
H482 H 0.08367 0.37553 0.24105 0.0
H483 H 0.16667 0.44579 0.366 0.0
H484 H 0.15676 0.42251 0.26428 0.0
H485 H 0.11587 0.37339 0.34078 0.0
C486 C 0.08732 0.35499 0.31026 0.0
C487 C 0.07747 0.3558 0.28219 0.0
C488 C 0.15886 0.42769 0.28659 0.0
C489 C 0.1207 0.3927 0.2991 0.0
C490 C 0.17859 0.44822 0.29475 0.0
C491 C 0.18178 0.45529 0.32349 0.0
C492 C 0.14238 0.41392 0.30733 0.0
C493 C 0.16471 0.44121 0.34356 0.0
C494 C 0.10882 0.37368 0.31889 0.0
C495 C 0.09039 0.37461 0.26303 0.0
N496 N 0.14579 0.42112 0.33511 0.0
N497 N 0.1113 0.39227 0.27182 0.0
H498 H 0.30507 0.53057 0.77706 0.0
H499 H 0.41796 0.6497 0.82145 0.0
H500 H 0.33064 0.54459 0.86401 0.0
H501 H 0.41071 0.61503 0.73692 0.0
H502 H 0.38112 0.61621 0.83751 0.0
H503 H 0.33944 0.56637 0.76184 0.0
C504 C 0.31803 0.54103 0.79292 0.0
C505 C 0.31516 0.5344 0.8218 0.0
C506 C 0.38762 0.61608 0.81544 0.0
C507 C 0.35422 0.57563 0.80461 0.0
C508 C 0.40846 0.63522 0.8063 0.0
C509 C 0.41751 0.63484 0.77794 0.0
C510 C 0.37557 0.59696 0.79589 0.0
C511 C 0.40461 0.61571 0.75909 0.0
C512 C 0.33758 0.5615 0.78425 0.0
C513 C 0.33232 0.54885 0.84148 0.0
N514 N 0.3843 0.5976 0.76838 0.0
N515 N 0.35109 0.56886 0.83253 0.0
H516 H 0.58293 0.16727 0.68375 0.0
H517 H 0.69066 0.0425 0.7247 0.0
H518 H 0.58265 0.12544 0.76524 0.0
H519 H 0.66728 0.06212 0.63825 0.0
H520 H 0.65732 0.07882 0.74129 0.0
H521 H 0.62094 0.13512 0.66809 0.0
C522 C 0.59118 0.1516 0.69842 0.0
C523 C 0.57954 0.14868 0.72566 0.0
C524 C 0.65952 0.07508 0.71869 0.0
C525 C 0.62278 0.1122 0.70813 0.0
C526 C 0.67845 0.05434 0.70924 0.0
C527 C 0.6815 0.04905 0.68009 0.0
C528 C 0.64386 0.09088 0.69883 0.0
C529 C 0.66536 0.06524 0.66095 0.0
C530 C 0.61266 0.13319 0.68947 0.0
C531 C 0.59085 0.12805 0.7439 0.0
N532 N 0.64729 0.08547 0.67065 0.0
N533 N 0.61183 0.11057 0.73481 0.0
H534 H 0.90666 0.83855 0.24447 0.0
H535 H 0.85407 0.9579 0.13597 0.0
H536 H 0.9539 0.86372 0.17015 0.0
H537 H 0.82223 0.95002 0.22165 0.0
H538 H 0.88674 0.91885 0.14513 0.0
H539 H 0.87017 0.87362 0.23244 0.0
C540 C 0.90892 0.85094 0.22521 0.0
C541 C 0.93328 0.84854 0.2083 0.0
C542 C 0.87276 0.92584 0.16199 0.0
C543 C 0.89208 0.88862 0.19465 0.0
C544 C 0.85426 0.94831 0.15687 0.0
C545 C 0.83548 0.95739 0.17813 0.0
C546 C 0.87246 0.91229 0.18853 0.0
C547 C 0.83643 0.94381 0.20468 0.0
C548 C 0.88833 0.87115 0.21856 0.0
C549 C 0.93547 0.86522 0.18379 0.0
N550 N 0.85454 0.92185 0.2091 0.0
N551 N 0.91517 0.88468 0.17773 0.0
H552 H 0.34641 0.14745 0.47738 0.0
H553 H 0.28023 0.11412 0.32502 0.0
H554 H 0.29175 0.20636 0.43355 0.0
H555 H 0.29957 0.049 0.38636 0.0
H556 H 0.2948 0.15032 0.35988 0.0
H557 H 0.33812 0.11257 0.43977 0.0
C558 C 0.33244 0.15289 0.45995 0.0
C559 C 0.31944 0.17959 0.45864 0.0
C560 C 0.29624 0.12806 0.36543 0.0
C561 C 0.31063 0.14031 0.41531 0.0
C562 C 0.28833 0.10752 0.34551 0.0
C563 C 0.28878 0.07878 0.35306 0.0
C564 C 0.30498 0.1195 0.39265 0.0
C565 C 0.29894 0.07107 0.37992 0.0
C566 C 0.32786 0.1331 0.43848 0.0
C567 C 0.30175 0.18577 0.43551 0.0
N568 N 0.30659 0.09134 0.39883 0.0
N569 N 0.29799 0.16629 0.41456 0.0
H570 H 0.205 0.96456 0.88725 0.0
H571 H 0.20919 0.80768 0.93174 0.0
H572 H 0.21268 0.89867 0.82405 0.0
H573 H 0.14393 0.85987 0.96948 0.0
H574 H 0.21695 0.84399 0.89588 0.0
H575 H 0.18619 0.92949 0.92088 0.0
C576 C 0.2022 0.94279 0.88035 0.0
C577 C 0.21057 0.93424 0.85306 0.0
C578 C 0.20092 0.84743 0.91202 0.0
C579 C 0.19005 0.89441 0.89134 0.0
C580 C 0.19673 0.82697 0.93277 0.0
C581 C 0.17587 0.83083 0.95368 0.0
C582 C 0.18472 0.87227 0.91257 0.0
C583 C 0.16024 0.85617 0.95372 0.0
C584 C 0.19145 0.92295 0.89946 0.0
C585 C 0.20648 0.90596 0.84496 0.0
N586 N 0.16519 0.87623 0.93352 0.0
N587 N 0.19712 0.88678 0.86434 0.0
H588 H 0.86027 0.33436 0.55627 0.0
H589 H 0.73416 0.41953 0.62778 0.0
H590 H 0.7723 0.31243 0.54333 0.0
H591 H 0.81847 0.41966 0.66331 0.0
H592 H 0.7483 0.38234 0.59479 0.0
H593 H 0.84608 0.36811 0.59302 0.0
C594 C 0.83792 0.33677 0.561 0.0
C595 C 0.81738 0.32069 0.54651 0.0
C596 C 0.76371 0.3903 0.60988 0.0
C597 C 0.8011 0.35925 0.5887 0.0
C598 C 0.75572 0.41162 0.62866 0.0
C599 C 0.7753 0.42284 0.64812 0.0
C600 C 0.7917 0.38036 0.61009 0.0
C601 C 0.80279 0.41156 0.64861 0.0
C602 C 0.82991 0.35587 0.58218 0.0
C603 C 0.78881 0.32448 0.55384 0.0
N604 N 0.81033 0.39112 0.62953 0.0
N605 N 0.7815 0.34353 0.57429 0.0
H606 H 0.67943 0.58299 0.16124 0.0
H607 H 0.71737 0.68828 0.03316 0.0
H608 H 0.75707 0.57782 0.11299 0.0
H609 H 0.63128 0.67077 0.05911 0.0
H610 H 0.73406 0.65288 0.06744 0.0
H611 H 0.66311 0.621 0.12926 0.0
C612 C 0.69309 0.59003 0.14412 0.0
C613 C 0.71947 0.5771 0.13953 0.0
C614 C 0.71151 0.65677 0.06552 0.0
C615 C 0.70122 0.62042 0.10326 0.0
C616 C 0.70199 0.67691 0.04594 0.0
C617 C 0.67289 0.68229 0.04307 0.0
C618 C 0.69182 0.64225 0.08265 0.0
C619 C 0.6539 0.66708 0.06038 0.0
C620 C 0.68375 0.61153 0.12583 0.0
C621 C 0.7364 0.58697 0.11704 0.0
N622 N 0.66369 0.64785 0.07951 0.0
N623 N 0.72703 0.60803 0.0998 0.0
H624 H 0.34305 0.31805 0.07696 0.0
H625 H 0.46641 0.27394 0.1846 0.0
H626 H 0.37872 0.23382 0.08161 0.0
H627 H 0.45101 0.36104 0.16061 0.0
H628 H 0.43133 0.25869 0.14956 0.0
H629 H 0.37901 0.33433 0.11126 0.0
C630 C 0.35827 0.30302 0.08532 0.0
C631 C 0.35805 0.27463 0.07635 0.0
C632 C 0.4358 0.28114 0.1518 0.0
C633 C 0.3989 0.2929 0.11531 0.0
C634 C 0.4559 0.28982 0.17172 0.0
C635 C 0.46171 0.31877 0.17546 0.0
C636 C 0.42111 0.30156 0.13578 0.0
C637 C 0.44732 0.33847 0.15829 0.0
C638 C 0.37886 0.31231 0.10467 0.0
C639 C 0.37829 0.25597 0.08773 0.0
N640 N 0.42748 0.32952 0.13935 0.0
N641 N 0.3978 0.26541 0.10662 0.0
H642 H 0.83856 0.17775 0.92473 0.0
H643 H 0.95765 0.22472 0.81354 0.0
H644 H 0.88106 0.25887 0.92888 0.0
H645 H 0.94227 0.13704 0.83546 0.0
H646 H 0.924 0.23907 0.8507 0.0
H647 H 0.87095 0.16364 0.88629 0.0
C648 C 0.85463 0.19255 0.91754 0.0
C649 C 0.85735 0.21936 0.93018 0.0
C650 C 0.92813 0.21671 0.84735 0.0
C651 C 0.89394 0.20366 0.8862 0.0
C652 C 0.94729 0.20855 0.82621 0.0
C653 C 0.95295 0.1797 0.82161 0.0
C654 C 0.9142 0.19584 0.86354 0.0
C655 C 0.9388 0.15955 0.8385 0.0
C656 C 0.8731 0.1845 0.89572 0.0
C657 C 0.87846 0.23783 0.91999 0.0
N658 N 0.91995 0.16799 0.85859 0.0
N659 N 0.89585 0.22969 0.89853 0.0
H660 H 0.5244 0.77191 0.31855 0.0
H661 H 0.65144 0.81311 0.42231 0.0
H662 H 0.54466 0.8589 0.33922 0.0
H663 H 0.60463 0.73464 0.43005 0.0
H664 H 0.61749 0.82886 0.38595 0.0
H665 H 0.55884 0.75618 0.35432 0.0
C666 C 0.53596 0.78764 0.33073 0.0
C667 C 0.53152 0.81669 0.32617 0.0
C668 C 0.61475 0.80822 0.39574 0.0
C669 C 0.57119 0.79899 0.36637 0.0
C670 C 0.63411 0.79923 0.41633 0.0
C671 C 0.63067 0.77267 0.42934 0.0
C672 C 0.59226 0.79026 0.38783 0.0
C673 C 0.6079 0.75542 0.42078 0.0
C674 C 0.55557 0.7787 0.35104 0.0
C675 C 0.54718 0.83627 0.34234 0.0
N676 N 0.58964 0.76445 0.40048 0.0
N677 N 0.5665 0.82706 0.36159 0.0
H678 H 0.13146 0.76072 0.58088 0.0
H679 H 0.07498 0.62609 0.66587 0.0
H680 H 0.16668 0.67703 0.56907 0.0
H681 H 0.05125 0.71257 0.68485 0.0
H682 H 0.10928 0.64368 0.63111 0.0
H683 H 0.10313 0.74302 0.62009 0.0
C684 C 0.13317 0.7385 0.58659 0.0
C685 C 0.15101 0.72013 0.57145 0.0
C686 C 0.09663 0.65878 0.64296 0.0
C687 C 0.11841 0.69961 0.61638 0.0
C688 C 0.07691 0.64878 0.66267 0.0
C689 C 0.05998 0.66792 0.67803 0.0
C690 C 0.09927 0.68809 0.63847 0.0
C691 C 0.06366 0.69705 0.67331 0.0
C692 C 0.11706 0.72843 0.6091 0.0
C693 C 0.15295 0.69175 0.58014 0.0
N694 N 0.0828 0.70622 0.65383 0.0
N695 N 0.13648 0.68219 0.60191 0.0
H696 H 0.9275 0.61684 0.76369 0.0
H697 H 0.82657 0.5604 0.64509 0.0
H698 H 0.91336 0.66338 0.68624 0.0
H699 H 0.81224 0.53839 0.73292 0.0
H700 H 0.85874 0.598 0.66014 0.0
H701 H 0.88449 0.58916 0.75459 0.0
C702 C 0.91478 0.62172 0.74516 0.0
C703 C 0.92388 0.64218 0.72554 0.0
C704 C 0.84845 0.58509 0.67616 0.0
C705 C 0.87553 0.60997 0.71443 0.0
C706 C 0.83038 0.56332 0.66759 0.0
C707 C 0.81708 0.5459 0.6878 0.0
C708 C 0.85379 0.58922 0.70516 0.0
C709 C 0.82233 0.55115 0.71666 0.0
C710 C 0.89035 0.60588 0.73992 0.0
C711 C 0.90689 0.64777 0.70184 0.0
N712 N 0.84063 0.57212 0.72451 0.0
N713 N 0.88383 0.63121 0.69653 0.0
H714 H 0.57031 0.34529 0.18243 0.0
H715 H 0.68162 0.46564 0.22534 0.0
H716 H 0.57716 0.37848 0.26758 0.0
H717 H 0.64832 0.45701 0.14035 0.0
H718 H 0.64826 0.42907 0.2414 0.0
H719 H 0.60496 0.38101 0.16651 0.0
C720 C 0.5793 0.3599 0.19776 0.0
C721 C 0.57073 0.35923 0.22625 0.0
C722 C 0.64818 0.4354 0.21929 0.0
C723 C 0.61015 0.39972 0.2084 0.0
C724 C 0.66708 0.45633 0.21016 0.0
C725 C 0.6676 0.46454 0.18153 0.0
C726 C 0.63005 0.42231 0.19955 0.0
C727 C 0.64848 0.45155 0.16268 0.0
C728 C 0.59885 0.38034 0.18868 0.0
C729 C 0.58296 0.37859 0.24533 0.0
N730 N 0.63063 0.4309 0.17197 0.0
N731 N 0.60209 0.39802 0.23608 0.0
H732 H 0.44602 0.87012 0.32097 0.0
H733 H 0.30277 0.94971 0.28013 0.0
H734 H 0.38589 0.83758 0.26032 0.0
H735 H 0.35493 0.97407 0.35149 0.0
H736 H 0.3333 0.90862 0.27247 0.0
H737 H 0.41195 0.90695 0.33454 0.0
C738 C 0.42516 0.87022 0.31131 0.0
C739 C 0.41833 0.85077 0.28994 0.0
C740 C 0.33809 0.92298 0.28979 0.0
C741 C 0.38002 0.89341 0.30403 0.0
C742 C 0.32088 0.94667 0.29394 0.0
C743 C 0.32635 0.96542 0.31645 0.0
C744 C 0.36106 0.9181 0.30813 0.0
C745 C 0.34996 0.96021 0.33384 0.0
C746 C 0.40589 0.89139 0.31873 0.0
C747 C 0.39153 0.85205 0.2773 0.0
N748 N 0.36644 0.93703 0.32932 0.0
N749 N 0.37341 0.87333 0.28426 0.0
H750 H 0.14336 0.01946 0.84109 0.0
H751 H 0.10283 0.17254 0.78133 0.0
H752 H 0.19953 0.0684 0.78771 0.0
H753 H 0.04033 0.108 0.79901 0.0
H754 H 0.1404 0.13871 0.79418 0.0
H755 H 0.10656 0.05542 0.83439 0.0
C756 C 0.14778 0.03762 0.82767 0.0
C757 C 0.17433 0.04088 0.81467 0.0
C758 C 0.11841 0.1322 0.79565 0.0
C759 C 0.13284 0.08237 0.80772 0.0
C760 C 0.09706 0.15153 0.78875 0.0
C761 C 0.06865 0.14282 0.78912 0.0
C762 C 0.11104 0.10433 0.80334 0.0
C763 C 0.06211 0.11533 0.7984 0.0
C764 C 0.1269 0.05816 0.82403 0.0
C765 C 0.17915 0.06492 0.79774 0.0
N766 N 0.08318 0.09696 0.80508 0.0
N767 N 0.15862 0.08494 0.79492 0.0
H768 H 0.70313 0.95686 0.602 0.0
H769 H 0.70521 0.79405 0.56289 0.0
H770 H 0.71279 0.89242 0.66631 0.0
H771 H 0.65039 0.85205 0.51805 0.0
H772 H 0.71543 0.83145 0.59762 0.0
H773 H 0.68907 0.92005 0.56791 0.0
C774 C 0.70182 0.93498 0.60901 0.0
C775 C 0.70895 0.92757 0.63696 0.0
C776 C 0.70126 0.83595 0.58009 0.0
C777 C 0.69402 0.8855 0.59798 0.0
C778 C 0.69572 0.81479 0.56008 0.0
C779 C 0.677 0.82005 0.53752 0.0
C780 C 0.6885 0.86268 0.57715 0.0
C781 C 0.66497 0.84718 0.53513 0.0
C782 C 0.69391 0.91406 0.58958 0.0
C783 C 0.70714 0.89897 0.64501 0.0
N784 N 0.67106 0.8676 0.55463 0.0
N785 N 0.70031 0.87884 0.62544 0.0
H786 H 0.77036 0.17963 0.03643 0.0
H787 H 0.81054 0.08201 0.16899 0.0
H788 H 0.85671 0.16584 0.06351 0.0
H789 H 0.73634 0.0662 0.11773 0.0
H790 H 0.82477 0.11949 0.13563 0.0
H791 H 0.75459 0.14374 0.07093 0.0
C792 C 0.78598 0.16896 0.04947 0.0
C793 C 0.8149 0.17554 0.04691 0.0
C794 C 0.80534 0.10783 0.1318 0.0
C795 C 0.797 0.13519 0.08673 0.0
C796 C 0.79714 0.0866 0.15088 0.0
C797 C 0.77239 0.07083 0.14592 0.0
C798 C 0.78834 0.11367 0.10798 0.0
C799 C 0.75578 0.07765 0.12212 0.0
C800 C 0.77698 0.14857 0.06914 0.0
C801 C 0.83423 0.16122 0.06451 0.0
N802 N 0.764 0.09861 0.10406 0.0
N803 N 0.82492 0.1419 0.0838 0.0
H804 H 0.135 0.66982 0.44309 0.0
H805 H 0.263 0.587 0.37069 0.0
H806 H 0.22227 0.69721 0.44828 0.0
H807 H 0.17595 0.57267 0.34641 0.0
H808 H 0.24802 0.62642 0.4005 0.0
H809 H 0.14908 0.63273 0.40962 0.0
C810 C 0.15715 0.66799 0.43729 0.0
C811 C 0.17755 0.68658 0.44864 0.0
C812 C 0.23212 0.6148 0.38863 0.0
C813 C 0.19368 0.64425 0.41024 0.0
C814 C 0.24064 0.59221 0.3717 0.0
C815 C 0.22059 0.57641 0.35637 0.0
C816 C 0.20323 0.62147 0.39073 0.0
C817 C 0.192 0.58435 0.358 0.0
C818 C 0.1651 0.64692 0.41802 0.0
C819 C 0.20587 0.6833 0.4402 0.0
N820 N 0.18406 0.6062 0.37523 0.0
N821 N 0.21309 0.66247 0.42159 0.0
H822 H 0.34971 0.34941 0.98472 0.0
H823 H 0.29098 0.38453 0.83025 0.0
H824 H 0.29625 0.29158 0.93787 0.0
H825 H 0.29454 0.44872 0.89544 0.0
H826 H 0.30694 0.34913 0.86518 0.0
H827 H 0.3417 0.3856 0.94791 0.0
C828 C 0.33618 0.34444 0.96679 0.0
C829 C 0.32329 0.31771 0.96443 0.0
C830 C 0.30473 0.37111 0.87158 0.0
C831 C 0.31511 0.35824 0.92209 0.0
C832 C 0.296 0.39126 0.85168 0.0
C833 C 0.2915 0.41936 0.86019 0.0
C834 C 0.30947 0.37945 0.89983 0.0
C835 C 0.29777 0.42712 0.88825 0.0
C836 C 0.33178 0.36495 0.94584 0.0
C837 C 0.30619 0.31212 0.94069 0.0
N838 N 0.30643 0.40721 0.90718 0.0
N839 N 0.30278 0.33217 0.92027 0.0
H840 H 0.54351 0.62916 0.83527 0.0
H841 H 0.60835 0.76044 0.91968 0.0
H842 H 0.5278 0.71656 0.81257 0.0
H843 H 0.64527 0.67675 0.92405 0.0
H844 H 0.57551 0.7437 0.88355 0.0
H845 H 0.5772 0.64518 0.8714 0.0
C846 C 0.54691 0.65174 0.83807 0.0
C847 C 0.53271 0.6716 0.82095 0.0
C848 C 0.59076 0.72894 0.89234 0.0
C849 C 0.57132 0.68993 0.86211 0.0
C850 C 0.60946 0.73843 0.91308 0.0
C851 C 0.62941 0.71986 0.92502 0.0
C852 C 0.59162 0.7005 0.88365 0.0
C853 C 0.63017 0.69171 0.91535 0.0
C854 C 0.56633 0.6608 0.85853 0.0
C855 C 0.53818 0.70053 0.82534 0.0
N856 N 0.6113 0.68276 0.89533 0.0
N857 N 0.557 0.70881 0.84554 0.0
H858 H 0.05652 0.75696 0.18145 0.0
H859 H 0.18361 0.79734 0.07621 0.0
H860 H 0.08584 0.84229 0.16518 0.0
H861 H 0.13315 0.72147 0.06674 0.0
H862 H 0.1572 0.8088 0.11951 0.0
H863 H 0.09332 0.73901 0.14895 0.0
C864 C 0.07079 0.77182 0.17121 0.0
C865 C 0.06785 0.80112 0.17546 0.0
C866 C 0.15228 0.78938 0.1082 0.0
C867 C 0.10998 0.78091 0.13917 0.0
C868 C 0.16746 0.78276 0.08366 0.0
C869 C 0.16013 0.75871 0.06778 0.0
C870 C 0.12991 0.77166 0.11689 0.0
C871 C 0.13898 0.74052 0.07822 0.0
C872 C 0.09172 0.76163 0.15281 0.0
C873 C 0.087 0.81955 0.162 0.0
N874 N 0.12436 0.74751 0.10204 0.0
N875 N 0.10719 0.80915 0.1444 0.0
H876 H 0.48678 0.15508 0.63368 0.0
H877 H 0.3315 0.21699 0.60697 0.0
H878 H 0.44476 0.21209 0.69186 0.0
H879 H 0.3885 0.19676 0.53833 0.0
H880 H 0.36879 0.20389 0.64106 0.0
H881 H 0.44741 0.16117 0.60021 0.0
C882 C 0.46948 0.16915 0.63924 0.0
C883 C 0.46914 0.18324 0.66547 0.0
C884 C 0.37285 0.20178 0.61852 0.0
C885 C 0.42377 0.18941 0.62792 0.0
C886 C 0.35151 0.20879 0.59918 0.0
C887 C 0.3571 0.20771 0.57 0.0
C888 C 0.39962 0.19338 0.60839 0.0
C889 C 0.38351 0.19767 0.56076 0.0
C890 C 0.44698 0.1724 0.62028 0.0
C891 C 0.44606 0.20102 0.67175 0.0
N892 N 0.4039 0.19096 0.57992 0.0
N893 N 0.42414 0.20338 0.65321 0.0
H894 H 0.82533 0.28163 0.38904 0.0
H895 H 0.97938 0.3453 0.3573 0.0
H896 H 0.88529 0.30221 0.45501 0.0
H897 H 0.93465 0.2922 0.29751 0.0
H898 H 0.94152 0.33729 0.39198 0.0
H899 H 0.86114 0.29476 0.35324 0.0
C900 C 0.84572 0.28973 0.39592 0.0
C901 C 0.85249 0.29097 0.42487 0.0
C902 C 0.94008 0.32728 0.37131 0.0
C903 C 0.89335 0.30549 0.38445 0.0
C904 C 0.96172 0.3317 0.3516 0.0
C905 C 0.96028 0.31915 0.32463 0.0
C906 C 0.91653 0.31062 0.36383 0.0
C907 C 0.93679 0.30194 0.31823 0.0
C908 C 0.86622 0.29679 0.37558 0.0
C909 C 0.87934 0.30103 0.43282 0.0
N910 N 0.91569 0.29834 0.33764 0.0
N911 N 0.89883 0.30785 0.41273 0.0
H912 H 0.14294 0.0761 0.24675 0.0
H913 H 0.11948 0.22762 0.31768 0.0
H914 H 0.19105 0.10615 0.31876 0.0
H915 H 0.06157 0.19121 0.25669 0.0
H916 H 0.14419 0.18213 0.32041 0.0
H917 H 0.11102 0.11664 0.25199 0.0
C918 C 0.14658 0.091 0.2639 0.0
C919 C 0.16987 0.08784 0.28217 0.0
C920 C 0.12588 0.18398 0.30667 0.0
C921 C 0.1336 0.1345 0.28809 0.0
C922 C 0.11176 0.20999 0.30508 0.0
C923 C 0.08857 0.21335 0.28673 0.0
C924 C 0.11696 0.16122 0.28954 0.0
C925 C 0.07943 0.18967 0.27103 0.0
C926 C 0.12835 0.11417 0.26688 0.0
C927 C 0.17347 0.10778 0.30407 0.0
N928 N 0.09386 0.16473 0.27254 0.0
N929 N 0.15575 0.13042 0.30619 0.0
H930 H 0.32649 0.90593 0.80978 0.0
H931 H 0.3621 0.76167 0.73556 0.0
H932 H 0.31852 0.89534 0.71906 0.0
H933 H 0.4217 0.7939 0.79721 0.0
H934 H 0.33803 0.80756 0.73562 0.0
H935 H 0.35519 0.86222 0.81159 0.0
C936 C 0.33098 0.89458 0.79028 0.0
C937 C 0.32011 0.9042 0.76423 0.0
C938 C 0.35631 0.80451 0.74922 0.0
C939 C 0.35199 0.85429 0.76634 0.0
C940 C 0.3699 0.77831 0.74941 0.0
C941 C 0.39386 0.77401 0.76648 0.0
C942 C 0.36626 0.82641 0.76674 0.0
C943 C 0.40328 0.79647 0.78373 0.0
C944 C 0.34734 0.8698 0.79135 0.0
C945 C 0.32654 0.88876 0.73958 0.0
N946 N 0.38925 0.82177 0.78366 0.0
N947 N 0.34165 0.86432 0.7413 0.0
H948 H 0.63992 0.42599 0.75469 0.0
H949 H 0.61456 0.2756 0.68285 0.0
H950 H 0.69119 0.39364 0.68595 0.0
H951 H 0.55472 0.31427 0.74044 0.0
H952 H 0.64035 0.32049 0.68034 0.0
H953 H 0.60618 0.3873 0.74694 0.0
C954 C 0.64395 0.41092 0.73778 0.0
C955 C 0.66862 0.41284 0.72121 0.0
C956 C 0.62134 0.31932 0.69321 0.0
C957 C 0.63017 0.36838 0.71233 0.0
C958 C 0.60656 0.29366 0.69462 0.0
C959 C 0.58264 0.29102 0.71218 0.0
C960 C 0.61237 0.34246 0.70975 0.0
C961 C 0.57317 0.31524 0.72678 0.0
C962 C 0.62463 0.38886 0.73332 0.0
C963 C 0.67258 0.39287 0.69942 0.0
N964 N 0.58831 0.33981 0.7256 0.0
N965 N 0.65377 0.37128 0.69586 0.0
H966 H 0.86278 0.56934 0.23235 0.0
H967 H 0.87484 0.73013 0.18314 0.0
H968 H 0.80188 0.61029 0.17755 0.0
H969 H 0.94048 0.68645 0.22971 0.0
H970 H 0.85102 0.68476 0.17529 0.0
H971 H 0.89448 0.60999 0.22645 0.0
C972 C 0.8562 0.58672 0.21882 0.0
C973 C 0.82943 0.58662 0.20583 0.0
C974 C 0.87086 0.68502 0.18686 0.0
C975 C 0.86552 0.63333 0.19914 0.0
C976 C 0.88451 0.71096 0.19132 0.0
C977 C 0.90942 0.7122 0.20758 0.0
C978 C 0.88206 0.66017 0.19896 0.0
C979 C 0.9211 0.68659 0.21739 0.0
C980 C 0.87434 0.60993 0.21542 0.0
C981 C 0.82217 0.6096 0.18828 0.0
N982 N 0.90708 0.66169 0.21333 0.0
N983 N 0.83993 0.63218 0.18577 0.0
H984 H 0.28866 0.07388 0.19502 0.0
H985 H 0.21294 0.18629 0.09566 0.0
H986 H 0.22762 0.13446 0.2264 0.0
H987 H 0.303 0.17214 0.08721 0.0
H988 H 0.21248 0.15525 0.13729 0.0
H989 H 0.28924 0.09927 0.14915 0.0
C990 C 0.27541 0.09244 0.1922 0.0
C991 C 0.25824 0.10232 0.21446 0.0
C992 C 0.23223 0.15871 0.12604 0.0
C993 C 0.25816 0.1305 0.16239 0.0
C994 C 0.23252 0.17622 0.10223 0.0
C995 C 0.25811 0.18194 0.08819 0.0
C996 C 0.25758 0.14639 0.13548 0.0
C997 C 0.28289 0.16842 0.0977 0.0
C998 C 0.27578 0.10682 0.1662 0.0
C999 C 0.2414 0.12638 0.20986 0.0
N1000 N 0.28205 0.1512 0.12088 0.0
N1001 N 0.24157 0.1395 0.18424 0.0
H1002 H 0.23876 0.94173 0.68559 0.0
H1003 H 0.19003 0.79845 0.60809 0.0
H1004 H 0.19817 0.87179 0.72881 0.0
H1005 H 0.25063 0.85731 0.57248 0.0
H1006 H 0.18458 0.82977 0.64916 0.0
H1007 H 0.23478 0.91563 0.64082 0.0
C1008 C 0.22863 0.92107 0.68563 0.0
C1009 C 0.21903 0.9088 0.71107 0.0
C1010 C 0.19888 0.83593 0.63223 0.0
C1011 C 0.21451 0.87884 0.65991 0.0
C1012 C 0.20194 0.81812 0.60872 0.0
C1013 C 0.22109 0.82512 0.58696 0.0
C1014 C 0.21487 0.86105 0.6339 0.0
C1015 C 0.23589 0.85092 0.58892 0.0
C1016 C 0.2265 0.90614 0.66008 0.0
C1017 C 0.2061 0.88197 0.70978 0.0
N1018 N 0.23257 0.86789 0.61205 0.0
N1019 N 0.20436 0.86782 0.68467 0.0
H1020 H 0.80729 0.3727 0.77287 0.0
H1021 H 0.73916 0.34567 0.92528 0.0
H1022 H 0.74983 0.43168 0.81297 0.0
H1023 H 0.81102 0.29858 0.89366 0.0
H1024 H 0.74337 0.37805 0.88487 0.0
H1025 H 0.80972 0.34585 0.81725 0.0
C1026 C 0.79538 0.38017 0.79107 0.0
C1027 C 0.77818 0.4044 0.78908 0.0
C1028 C 0.7584 0.36081 0.88692 0.0
C1029 C 0.78064 0.37354 0.83995 0.0
C1030 C 0.75599 0.34229 0.90998 0.0
C1031 C 0.77463 0.31925 0.91277 0.0
C1032 C 0.77939 0.35608 0.86625 0.0
C1033 C 0.79613 0.31601 0.89236 0.0
C1034 C 0.79681 0.36483 0.81644 0.0
C1035 C 0.76332 0.4131 0.81345 0.0
N1036 N 0.79771 0.33401 0.86981 0.0
N1037 N 0.76465 0.39752 0.83775 0.0
H1038 H 0.74811 0.56385 0.30408 0.0
H1039 H 0.6798 0.69451 0.38891 0.0
H1040 H 0.68944 0.62345 0.26681 0.0
H1041 H 0.75228 0.64729 0.41885 0.0
H1042 H 0.67745 0.66351 0.34733 0.0
H1043 H 0.7442 0.58913 0.34932 0.0
C1044 C 0.73418 0.58207 0.30545 0.0
C1045 C 0.71927 0.59167 0.28148 0.0
C1046 C 0.69374 0.6598 0.3631 0.0
C1047 C 0.71473 0.62072 0.33329 0.0
C1048 C 0.69505 0.67743 0.38693 0.0
C1049 C 0.71645 0.67368 0.40731 0.0
C1050 C 0.71387 0.63811 0.35964 0.0
C1051 C 0.73557 0.65114 0.40357 0.0
C1052 C 0.73205 0.59655 0.33129 0.0
C1053 C 0.70151 0.61539 0.28462 0.0
N1054 N 0.73392 0.6343 0.38014 0.0
N1055 N 0.69983 0.62915 0.30998 0.0
H1056 H 0.23427 0.30647 0.13001 0.0
H1057 H 0.07553 0.25152 0.1442 0.0
H1058 H 0.18972 0.26626 0.06077 0.0
H1059 H 0.11275 0.31211 0.20206 0.0
H1060 H 0.11667 0.25701 0.1129 0.0
H1061 H 0.18969 0.30941 0.15635 0.0
C1062 C 0.21504 0.29859 0.12019 0.0
C1063 C 0.21578 0.28602 0.09318 0.0
C1064 C 0.11567 0.26933 0.13229 0.0
C1065 C 0.16467 0.28888 0.12345 0.0
C1066 C 0.09221 0.26616 0.15021 0.0
C1067 C 0.09077 0.28119 0.17592 0.0
C1068 C 0.13804 0.28738 0.14032 0.0
C1069 C 0.11297 0.29998 0.18252 0.0
C1070 C 0.18957 0.30028 0.13524 0.0
C1071 C 0.19016 0.27619 0.08151 0.0
N1072 N 0.13581 0.30228 0.16502 0.0
N1073 N 0.16572 0.27747 0.09686 0.0
H1074 H 0.74496 0.22162 0.86041 0.0
H1075 H 0.58002 0.18208 0.856 0.0
H1076 H 0.69642 0.20499 0.93643 0.0
H1077 H 0.62506 0.22453 0.78831 0.0
H1078 H 0.62377 0.18242 0.88436 0.0
H1079 H 0.70239 0.21407 0.83212 0.0
C1080 C 0.72541 0.21606 0.87117 0.0
C1081 C 0.7242 0.21417 0.90087 0.0
C1082 C 0.62396 0.19157 0.86326 0.0
C1083 C 0.67529 0.20558 0.86851 0.0
C1084 C 0.59908 0.19135 0.84708 0.0
C1085 C 0.59887 0.20348 0.81986 0.0
C1086 C 0.64873 0.20367 0.8519 0.0
C1087 C 0.62416 0.21514 0.80928 0.0
C1088 C 0.70107 0.21189 0.85498 0.0
C1089 C 0.69823 0.20687 0.91359 0.0
N1090 N 0.64802 0.21493 0.82531 0.0
N1091 N 0.67471 0.20294 0.89732 0.0
H1092 H 0.74285 0.78635 0.36123 0.0
H1093 H 0.91093 0.8099 0.36133 0.0
H1094 H 0.79362 0.78572 0.43754 0.0
H1095 H 0.86195 0.78844 0.28689 0.0
H1096 H 0.86704 0.8108 0.38925 0.0
H1097 H 0.7853 0.79718 0.33362 0.0
C1098 C 0.76286 0.7888 0.37225 0.0
C1099 C 0.76475 0.78473 0.40171 0.0
C1100 C 0.86594 0.80612 0.36676 0.0
C1101 C 0.81345 0.79706 0.37016 0.0
C1102 C 0.89094 0.80566 0.35081 0.0
C1103 C 0.89009 0.79868 0.32185 0.0
C1104 C 0.83998 0.79983 0.35355 0.0
C1105 C 0.86362 0.7935 0.30926 0.0
C1106 C 0.78711 0.79491 0.35644 0.0
C1107 C 0.79125 0.78838 0.41483 0.0
N1108 N 0.83964 0.79405 0.32521 0.0
N1109 N 0.81464 0.79413 0.39892 0.0
H1110 H 0.42229 0.75189 0.64821 0.0
H1111 H 0.26987 0.68659 0.61731 0.0
H1112 H 0.38883 0.67937 0.69322 0.0
H1113 H 0.31182 0.7445 0.55992 0.0
H1114 H 0.31384 0.6825 0.64446 0.0
H1115 H 0.38286 0.74853 0.61463 0.0
C1116 C 0.40683 0.73507 0.65085 0.0
C1117 C 0.40874 0.71603 0.67369 0.0
C1118 C 0.31354 0.69585 0.62574 0.0
C1119 C 0.36337 0.71225 0.63553 0.0
C1120 C 0.2884 0.69822 0.61023 0.0
C1121 C 0.28706 0.71608 0.58641 0.0
C1122 C 0.33744 0.71173 0.61762 0.0
C1123 C 0.31182 0.73053 0.57818 0.0
C1124 C 0.38433 0.73314 0.63165 0.0
C1125 C 0.38817 0.69456 0.67598 0.0
N1126 N 0.33588 0.72832 0.59396 0.0
N1127 N 0.36616 0.69348 0.65737 0.0
H1128 H 0.80964 0.89029 0.77337 0.0
H1129 H 0.91732 0.79114 0.6959 0.0
H1130 H 0.82074 0.90457 0.68348 0.0
H1131 H 0.84772 0.75689 0.74472 0.0
H1132 H 0.8932 0.83767 0.69557 0.0
H1133 H 0.83663 0.84618 0.76911 0.0
C1134 C 0.8182 0.88444 0.75284 0.0
C1135 C 0.81281 0.90096 0.72868 0.0
C1136 C 0.88327 0.81974 0.70602 0.0
C1137 C 0.84383 0.85082 0.72387 0.0
C1138 C 0.8969 0.79331 0.70621 0.0
C1139 C 0.88442 0.77013 0.72028 0.0
C1140 C 0.85767 0.82298 0.72083 0.0
C1141 C 0.85801 0.77408 0.73344 0.0
C1142 C 0.83339 0.85922 0.75043 0.0
C1143 C 0.8243 0.89223 0.70255 0.0
N1144 N 0.84577 0.80011 0.73383 0.0
N1145 N 0.83941 0.86766 0.70078 0.0
H1146 H 0.63646 0.07785 0.19539 0.0
H1147 H 0.63561 0.24657 0.21588 0.0
H1148 H 0.71132 0.12876 0.20965 0.0
H1149 H 0.55951 0.19549 0.21715 0.0
H1150 H 0.66331 0.20406 0.20605 0.0
H1151 H 0.60773 0.1212 0.19603 0.0
C1152 C 0.64688 0.09814 0.19839 0.0
C1153 C 0.67629 0.09968 0.20275 0.0
C1154 C 0.64053 0.20214 0.2083 0.0
C1155 C 0.64364 0.14921 0.20347 0.0
C1156 C 0.62466 0.22645 0.21386 0.0
C1157 C 0.5952 0.22457 0.21764 0.0
C1158 C 0.62691 0.17568 0.20648 0.0
C1159 C 0.5822 0.19789 0.21459 0.0
C1160 C 0.63047 0.12283 0.19883 0.0
C1161 C 0.68869 0.12652 0.20649 0.0
N1162 N 0.59818 0.17443 0.20937 0.0
N1163 N 0.67229 0.15017 0.20687 0.0
H1164 H 0.37265 0.72766 0.30726 0.0
H1165 H 0.34708 0.57457 0.24013 0.0
H1166 H 0.43206 0.68822 0.24976 0.0
H1167 H 0.29856 0.60775 0.31046 0.0
H1168 H 0.37943 0.61507 0.24414 0.0
H1169 H 0.34623 0.68317 0.30971 0.0
C1170 C 0.38031 0.70955 0.29534 0.0
C1171 C 0.4045 0.71176 0.27812 0.0
C1172 C 0.36185 0.61334 0.25886 0.0
C1173 C 0.3741 0.66069 0.28059 0.0
C1174 C 0.34334 0.59025 0.25654 0.0
C1175 C 0.3199 0.5879 0.2748 0.0
C1176 C 0.35673 0.63438 0.27938 0.0
C1177 C 0.31624 0.60874 0.29581 0.0
C1178 C 0.3652 0.6841 0.29677 0.0
C1179 C 0.41348 0.6875 0.26327 0.0
N1180 N 0.33426 0.63122 0.29732 0.0
N1181 N 0.39809 0.66307 0.26458 0.0
H1182 H 0.06565 0.30349 0.74231 0.0
H1183 H 0.19293 0.38738 0.81704 0.0
H1184 H 0.1061 0.27588 0.81979 0.0
H1185 H 0.16027 0.40763 0.73381 0.0
H1186 H 0.15654 0.35073 0.82184 0.0
H1187 H 0.09516 0.34606 0.74264 0.0
C1188 C 0.08049 0.30651 0.75961 0.0
C1189 C 0.08363 0.28587 0.7809 0.0
C1190 C 0.15724 0.3633 0.8026 0.0
C1191 C 0.11763 0.33459 0.78127 0.0
C1192 C 0.17801 0.38424 0.79983 0.0
C1193 C 0.17985 0.40039 0.77484 0.0
C1194 C 0.13815 0.35845 0.78023 0.0
C1195 C 0.1598 0.39553 0.75335 0.0
C1196 C 0.09742 0.33082 0.75971 0.0
C1197 C 0.10314 0.29107 0.8028 0.0
N1198 N 0.1399 0.37488 0.75647 0.0
N1199 N 0.11956 0.31481 0.8023 0.0
H1200 H 0.74753 0.84835 0.91866 0.0
H1201 H 0.68508 0.87092 0.76344 0.0
H1202 H 0.67935 0.79759 0.88443 0.0
H1203 H 0.73619 0.93402 0.8059 0.0
H1204 H 0.68202 0.84425 0.80787 0.0
H1205 H 0.7433 0.88046 0.87802 0.0
C1206 C 0.73153 0.84406 0.90272 0.0
C1207 C 0.71392 0.8201 0.90486 0.0
C1208 C 0.69362 0.86411 0.80758 0.0
C1209 C 0.70913 0.85666 0.85815 0.0
C1210 C 0.69539 0.87935 0.78219 0.0
C1211 C 0.71102 0.90468 0.78088 0.0
C1212 C 0.70796 0.87401 0.8318 0.0
C1213 C 0.72388 0.91461 0.80591 0.0
C1214 C 0.72908 0.86245 0.87955 0.0
C1215 C 0.69345 0.81573 0.88364 0.0
N1216 N 0.72237 0.89907 0.83024 0.0
N1217 N 0.69184 0.83363 0.86104 0.0
H1218 H 0.81405 0.11843 0.27366 0.0
H1219 H 0.74573 0.143 0.42603 0.0
H1220 H 0.7571 0.05853 0.31331 0.0
H1221 H 0.81317 0.19487 0.39192 0.0
H1222 H 0.75249 0.1095 0.38692 0.0
H1223 H 0.81732 0.1442 0.31854 0.0
C1224 C 0.80255 0.11044 0.29191 0.0
C1225 C 0.78498 0.08649 0.28957 0.0
C1226 C 0.76604 0.12804 0.38817 0.0
C1227 C 0.78831 0.11616 0.34102 0.0
C1228 C 0.76215 0.14721 0.41049 0.0
C1229 C 0.77864 0.17198 0.41205 0.0
C1230 C 0.78637 0.13383 0.3671 0.0
C1231 C 0.79979 0.17618 0.39145 0.0
C1232 C 0.80441 0.12519 0.31757 0.0
C1233 C 0.77074 0.07702 0.31404 0.0
N1234 N 0.80279 0.15751 0.36965 0.0
N1235 N 0.77238 0.09212 0.33861 0.0
H1236 H 0.19246 0.69789 0.11413 0.0
H1237 H 0.22352 0.55079 0.19267 0.0
H1238 H 0.23032 0.62522 0.07306 0.0
H1239 H 0.19459 0.62656 0.23535 0.0
H1240 H 0.21839 0.57509 0.14713 0.0
H1241 H 0.18559 0.66947 0.15694 0.0
C1242 C 0.19916 0.67589 0.11404 0.0
C1243 C 0.21241 0.66403 0.09012 0.0
C1244 C 0.21286 0.58629 0.16644 0.0
C1245 C 0.20461 0.6314 0.13911 0.0
C1246 C 0.2157 0.5724 0.19247 0.0
C1247 C 0.20985 0.5868 0.21793 0.0
C1248 C 0.2041 0.61477 0.16585 0.0
C1249 C 0.19966 0.61474 0.2163 0.0
C1250 C 0.1952 0.65967 0.1385 0.0
C1251 C 0.22029 0.63532 0.0911 0.0
N1252 N 0.19737 0.62789 0.19073 0.0
N1253 N 0.21652 0.62005 0.11531 0.0
H1254 H 0.26917 0.43485 0.69272 0.0
H1255 H 0.31275 0.29178 0.61271 0.0
H1256 H 0.30587 0.36211 0.73465 0.0
H1257 H 0.25368 0.35273 0.57828 0.0
H1258 H 0.3193 0.32223 0.65411 0.0
H1259 H 0.27257 0.40975 0.64737 0.0
C1260 C 0.27834 0.41378 0.69235 0.0
C1261 C 0.28697 0.4004 0.71757 0.0
C1262 C 0.30511 0.32906 0.63738 0.0
C1263 C 0.29083 0.37166 0.66581 0.0
C1264 C 0.3014 0.31174 0.61368 0.0
C1265 C 0.28237 0.31961 0.59216 0.0
C1266 C 0.28987 0.35453 0.6395 0.0
C1267 C 0.26831 0.34573 0.59455 0.0
C1268 C 0.28014 0.39944 0.66648 0.0
C1269 C 0.29872 0.37311 0.71578 0.0
N1270 N 0.27223 0.36223 0.61791 0.0
N1271 N 0.30014 0.35956 0.69036 0.0
H1272 H 0.91349 0.71294 0.86054 0.0
H1273 H 0.74564 0.69334 0.86357 0.0
H1274 H 0.8648 0.68194 0.78932 0.0
H1275 H 0.79514 0.71818 0.93661 0.0
H1276 H 0.78949 0.68415 0.83756 0.0
H1277 H 0.87111 0.71003 0.89018 0.0
C1278 C 0.89396 0.70521 0.8512 0.0
C1279 C 0.89261 0.69801 0.82231 0.0
C1280 C 0.79078 0.6913 0.85938 0.0
C1281 C 0.8439 0.69486 0.8561 0.0
C1282 C 0.76572 0.69656 0.87427 0.0
C1283 C 0.76669 0.70687 0.90222 0.0
C1284 C 0.81704 0.69658 0.87246 0.0
C1285 C 0.79335 0.71046 0.91503 0.0
C1286 C 0.86974 0.70356 0.86816 0.0
C1287 C 0.86678 0.68791 0.81144 0.0
N1288 N 0.81745 0.70563 0.89994 0.0
N1289 N 0.84336 0.68697 0.82826 0.0
H1290 H 0.31723 0.75092 0.05372 0.0
H1291 H 0.38918 0.81433 0.19372 0.0
H1292 H 0.27362 0.80451 0.11395 0.0
H1293 H 0.42628 0.74789 0.14261 0.0
H1294 H 0.35058 0.81834 0.15939 0.0
H1295 H 0.36102 0.75732 0.08067 0.0
C1296 C 0.31692 0.76437 0.07238 0.0
C1297 C 0.29159 0.77685 0.08184 0.0
C1298 C 0.36732 0.80308 0.15555 0.0
C1299 C 0.34165 0.78413 0.11283 0.0
C1300 C 0.38941 0.8008 0.17511 0.0
C1301 C 0.4108 0.78046 0.17121 0.0
C1302 C 0.36664 0.78495 0.13189 0.0
C1303 C 0.41007 0.76365 0.14662 0.0
C1304 C 0.34194 0.76792 0.08781 0.0
C1305 C 0.29256 0.7942 0.10606 0.0
N1306 N 0.38819 0.76611 0.128 0.0
N1307 N 0.31712 0.7971 0.12088 0.0
H1308 H 0.18918 0.23479 0.55765 0.0
H1309 H 0.10942 0.18277 0.69865 0.0
H1310 H 0.23116 0.19387 0.62804 0.0
H1311 H 0.07354 0.24291 0.6396 0.0
H1312 H 0.15118 0.1787 0.66816 0.0
H1313 H 0.14391 0.22999 0.58275 0.0
C1314 C 0.18886 0.22448 0.57821 0.0
C1315 C 0.21409 0.21495 0.59087 0.0
C1316 C 0.13405 0.19259 0.66174 0.0
C1317 C 0.16234 0.20943 0.61967 0.0
C1318 C 0.11012 0.19483 0.67908 0.0
C1319 C 0.08804 0.21346 0.67183 0.0
C1320 C 0.13589 0.2089 0.63684 0.0
C1321 C 0.09017 0.22852 0.64617 0.0
C1322 C 0.16302 0.22186 0.59256 0.0
C1323 C 0.21232 0.20174 0.61755 0.0
N1324 N 0.11375 0.22603 0.62968 0.0
N1325 N 0.18695 0.1995 0.6311 0.0
H1326 H 0.57453 0.23584 0.34876 0.0
H1327 H 0.71826 0.31812 0.38313 0.0
H1328 H 0.59804 0.31522 0.30935 0.0
H1329 H 0.68771 0.24752 0.43302 0.0
H1330 H 0.67321 0.31876 0.35751 0.0
H1331 H 0.61447 0.24097 0.38151 0.0
C1332 C 0.5879 0.25449 0.34717 0.0
C1333 C 0.58307 0.27498 0.32608 0.0
C1334 C 0.67623 0.30331 0.37426 0.0
C1335 C 0.62901 0.28086 0.36334 0.0
C1336 C 0.70199 0.30292 0.3889 0.0
C1337 C 0.70692 0.28258 0.41011 0.0
C1338 C 0.65529 0.28302 0.38064 0.0
C1339 C 0.68494 0.26351 0.41674 0.0
C1340 C 0.61071 0.25742 0.36589 0.0
C1341 C 0.60102 0.29879 0.32515 0.0
N1342 N 0.66023 0.26399 0.40185 0.0
N1343 N 0.62335 0.3009 0.34327 0.0
H1344 H 0.00179 0.29149 0.1565 0.0
H1345 H 0.84472 0.24482 0.11777 0.0
H1346 H 0.94541 0.25347 0.21774 0.0
H1347 H 0.90754 0.26936 0.05567 0.0
H1348 H 0.88159 0.24476 0.15433 0.0
H1349 H 0.96866 0.27926 0.11872 0.0
C1350 C 0.98256 0.28001 0.16181 0.0
C1351 C 0.97612 0.27353 0.1901 0.0
C1352 C 0.88731 0.24996 0.13266 0.0
C1353 C 0.93764 0.26023 0.14721 0.0
C1354 C 0.86625 0.25022 0.11182 0.0
C1355 C 0.87301 0.25751 0.08369 0.0
C1356 C 0.91525 0.25723 0.12533 0.0
C1357 C 0.9013 0.2639 0.07711 0.0
C1358 C 0.9636 0.27311 0.1403 0.0
C1359 C 0.95107 0.25866 0.19606 0.0
N1360 N 0.92131 0.26382 0.09781 0.0
N1361 N 0.93238 0.25293 0.17477 0.0
H1362 H 0.58075 0.73625 0.5547 0.0
H1363 H 0.55197 0.74101 0.72187 0.0
H1364 H 0.64668 0.74983 0.61688 0.0
H1365 H 0.49048 0.71652 0.65875 0.0
H1366 H 0.58465 0.75512 0.68356 0.0
H1367 H 0.54548 0.73881 0.59242 0.0
C1368 C 0.58782 0.73978 0.5763 0.0
C1369 C 0.61674 0.74228 0.58272 0.0
C1370 C 0.56375 0.74726 0.67816 0.0
C1371 C 0.5764 0.74536 0.6261 0.0
C1372 C 0.54508 0.73954 0.69997 0.0
C1373 C 0.51877 0.72749 0.69322 0.0
C1374 C 0.55576 0.74289 0.64968 0.0
C1375 C 0.51077 0.72556 0.66466 0.0
C1376 C 0.56765 0.74139 0.59785 0.0
C1377 C 0.62462 0.74733 0.61106 0.0
N1378 N 0.5293 0.73287 0.64393 0.0
N1379 N 0.60456 0.74843 0.63178 0.0
H1380 H 0.33782 0.21912 0.8935 0.0
H1381 H 0.49377 0.24811 0.83257 0.0
H1382 H 0.40771 0.24234 0.948 0.0
H1383 H 0.43066 0.19572 0.79178 0.0
H1384 H 0.46 0.25683 0.87175 0.0
H1385 H 0.36963 0.22068 0.85274 0.0
C1386 C 0.3599 0.22453 0.8969 0.0
C1387 C 0.37026 0.23016 0.92422 0.0
C1388 C 0.45362 0.24369 0.85399 0.0
C1389 C 0.40675 0.23236 0.87753 0.0
C1390 C 0.47272 0.23893 0.83163 0.0
C1391 C 0.46505 0.22091 0.80919 0.0
C1392 C 0.42675 0.23068 0.85338 0.0
C1393 C 0.43757 0.20944 0.80889 0.0
C1394 C 0.37803 0.22549 0.8736 0.0
C1395 C 0.39902 0.23735 0.92731 0.0
N1396 N 0.41952 0.21442 0.83067 0.0
N1397 N 0.41636 0.2382 0.90419 0.0
H1398 H 0.14298 0.81729 0.39977 0.0
H1399 H 0.01459 0.7422 0.32012 0.0
H1400 H 0.09324 0.75155 0.43983 0.0
H1401 H 0.03765 0.82968 0.30511 0.0
H1402 H 0.04848 0.74087 0.35966 0.0
H1403 H 0.10928 0.81797 0.36022 0.0
C1404 C 0.12485 0.80313 0.4003 0.0
C1405 C 0.12069 0.78452 0.42316 0.0
C1406 C 0.04611 0.76026 0.34753 0.0
C1407 C 0.08256 0.78475 0.37783 0.0
C1408 C 0.02692 0.76102 0.32492 0.0
C1409 C 0.02344 0.78604 0.30906 0.0
C1410 C 0.06217 0.78452 0.354 0.0
C1411 C 0.03992 0.8098 0.31636 0.0
C1412 C 0.10569 0.80353 0.37777 0.0
C1413 C 0.09697 0.76649 0.42274 0.0
N1414 N 0.05865 0.80842 0.33818 0.0
N1415 N 0.07887 0.76686 0.40026 0.0
H1416 H 0.18992 0.98441 0.23571 0.0
H1417 H 0.11647 0.83898 0.28254 0.0
H1418 H 0.20243 0.94488 0.31737 0.0
H1419 H 0.07287 0.90014 0.23012 0.0
H1420 H 0.15673 0.8716 0.28601 0.0
H1421 H 0.15508 0.94697 0.2239 0.0
C1422 C 0.1858 0.96753 0.25078 0.0
C1423 C 0.19883 0.96759 0.27752 0.0
C1424 C 0.13838 0.87774 0.27361 0.0
C1425 C 0.15988 0.92517 0.26425 0.0
C1426 C 0.11544 0.85923 0.27168 0.0
C1427 C 0.09124 0.86714 0.2564 0.0
C1428 C 0.13725 0.90411 0.25979 0.0
C1429 C 0.09102 0.89354 0.24255 0.0
C1430 C 0.16592 0.94643 0.24417 0.0
C1431 C 0.19275 0.94554 0.29655 0.0
N1432 N 0.11376 0.91119 0.24457 0.0
N1433 N 0.17372 0.9252 0.28954 0.0
H1434 H 0.39097 0.15889 0.75354 0.0
H1435 H 0.31684 0.00947 0.73145 0.0
H1436 H 0.44096 0.08782 0.7244 0.0
H1437 H 0.30585 0.06082 0.80654 0.0
H1438 H 0.35399 0.04285 0.71509 0.0
H1439 H 0.3502 0.12744 0.75869 0.0
C1440 C 0.39325 0.13674 0.74776 0.0
C1441 C 0.41941 0.12577 0.73886 0.0
C1442 C 0.34303 0.04676 0.73494 0.0
C1443 C 0.37278 0.09002 0.74429 0.0
C1444 C 0.3219 0.02798 0.74413 0.0
C1445 C 0.3085 0.03255 0.77033 0.0
C1446 C 0.34981 0.0704 0.75176 0.0
C1447 C 0.31578 0.05659 0.78625 0.0
C1448 C 0.37 0.11889 0.75073 0.0
C1449 C 0.42117 0.09691 0.73171 0.0
N1450 N 0.33587 0.07471 0.77665 0.0
N1451 N 0.39805 0.07984 0.73468 0.0
H1452 H 0.71271 0.55885 0.74746 0.0
H1453 H 0.54466 0.58016 0.73564 0.0
H1454 H 0.65399 0.49336 0.7224 0.0
H1455 H 0.60426 0.64925 0.74469 0.0
H1456 H 0.58382 0.54654 0.74021 0.0
H1457 H 0.67238 0.59046 0.75738 0.0
C1458 C 0.69128 0.55087 0.7451 0.0
C1459 C 0.68641 0.52362 0.73426 0.0
C1460 C 0.58831 0.56907 0.74129 0.0
C1461 C 0.64057 0.55946 0.74469 0.0
C1462 C 0.56598 0.58827 0.73852 0.0
C1463 C 0.57124 0.61756 0.73935 0.0
C1464 C 0.61613 0.5792 0.74491 0.0
C1465 C 0.59926 0.62684 0.74356 0.0
C1466 C 0.66833 0.56893 0.75036 0.0
C1467 C 0.65842 0.5143 0.73084 0.0
N1468 N 0.62068 0.60773 0.74603 0.0
N1469 N 0.63653 0.53227 0.73578 0.0
H1470 H 0.94178 0.41156 0.25494 0.0
H1471 H 0.79098 0.4313 0.1877 0.0
H1472 H 0.89132 0.34103 0.22519 0.0
H1473 H 0.82138 0.49033 0.25075 0.0
H1474 H 0.82841 0.39835 0.20085 0.0
H1475 H 0.89937 0.44183 0.25301 0.0
C1476 C 0.92183 0.40247 0.24803 0.0
C1477 C 0.92013 0.37387 0.23979 0.0
C1478 C 0.82672 0.41829 0.21219 0.0
C1479 C 0.87186 0.40817 0.23766 0.0
C1480 C 0.80534 0.4371 0.20469 0.0
C1481 C 0.80325 0.46358 0.21808 0.0
C1482 C 0.84673 0.42628 0.23272 0.0
C1483 C 0.82238 0.47009 0.23994 0.0
C1484 C 0.89765 0.41965 0.24722 0.0
C1485 C 0.89369 0.36302 0.23147 0.0
N1486 N 0.84382 0.45173 0.24625 0.0
N1487 N 0.87072 0.38025 0.23029 0.0
H1488 H 0.26384 0.15928 0.00518 0.0
H1489 H 0.24756 0.11878 0.84211 0.0
H1490 H 0.25764 0.22175 0.93867 0.0
H1491 H 0.25224 0.05774 0.91036 0.0
H1492 H 0.24433 0.15692 0.87715 0.0
H1493 H 0.25083 0.1223 0.97131 0.0
C1494 C 0.25891 0.1652 0.98349 0.0
C1495 C 0.26177 0.19338 0.97452 0.0
C1496 C 0.24583 0.13517 0.88445 0.0
C1497 C 0.24812 0.15121 0.93536 0.0
C1498 C 0.24785 0.11338 0.86447 0.0
C1499 C 0.25062 0.08505 0.87335 0.0
C1500 C 0.24663 0.12859 0.91352 0.0
C1501 C 0.25053 0.07929 0.90255 0.0
C1502 C 0.25172 0.14412 0.9641 0.0
C1503 C 0.2554 0.20017 0.94629 0.0
N1504 N 0.24878 0.10089 0.92157 0.0
N1505 N 0.24939 0.17907 0.92746 0.0
H1506 H 0.74439 0.27695 0.05876 0.0
H1507 H 0.74167 0.44551 0.07838 0.0
H1508 H 0.77136 0.33722 0.99542 0.0
H1509 H 0.73041 0.38593 0.14718 0.0
H1510 H 0.74102 0.40595 0.04482 0.0
H1511 H 0.72709 0.31651 0.08819 0.0
C1512 C 0.74576 0.29846 0.05072 0.0
C1513 C 0.75934 0.3041 0.02488 0.0
C1514 C 0.73843 0.40156 0.06725 0.0
C1515 C 0.74023 0.3491 0.05819 0.0
C1516 C 0.73887 0.42414 0.08642 0.0
C1517 C 0.73664 0.41897 0.11564 0.0
C1518 C 0.73585 0.37361 0.07739 0.0
C1519 C 0.73265 0.39086 0.12483 0.0
C1520 C 0.73618 0.321 0.06754 0.0
C1521 C 0.76111 0.33221 0.01539 0.0
N1522 N 0.73269 0.36919 0.10579 0.0
N1523 N 0.75193 0.35371 0.03216 0.0
H1524 H 0.74512 0.71503 0.5553 0.0
H1525 H 0.7371 0.54882 0.58907 0.0
H1526 H 0.71173 0.6518 0.49822 0.0
H1527 H 0.75145 0.61306 0.65292 0.0
H1528 H 0.73947 0.58547 0.55249 0.0
H1529 H 0.76008 0.67691 0.58778 0.0
C1530 C 0.74185 0.69308 0.54924 0.0
C1531 C 0.7271 0.6863 0.52434 0.0
C1532 C 0.74228 0.59152 0.5745 0.0
C1533 C 0.74351 0.64301 0.56113 0.0
C1534 C 0.7408 0.57062 0.59541 0.0
C1535 C 0.74345 0.57797 0.62413 0.0
C1536 C 0.74642 0.62001 0.58235 0.0
C1537 C 0.74873 0.60652 0.63105 0.0
C1538 C 0.75007 0.6714 0.56782 0.0
C1539 C 0.72292 0.65771 0.51743 0.0
N1540 N 0.74979 0.62656 0.61031 0.0
N1541 N 0.73082 0.63709 0.53586 0.0
H1542 H 0.25873 0.78993 0.44714 0.0
H1543 H 0.24177 0.95578 0.41527 0.0
H1544 H 0.21221 0.84872 0.49966 0.0
H1545 H 0.27045 0.89483 0.35306 0.0
H1546 H 0.24173 0.91834 0.45111 0.0
H1547 H 0.27445 0.82996 0.41743 0.0
C1548 C 0.25244 0.81132 0.45276 0.0
C1549 C 0.23384 0.81618 0.47544 0.0
C1550 C 0.24826 0.91322 0.42966 0.0
C1551 C 0.25142 0.86161 0.4419 0.0
C1552 C 0.24823 0.93457 0.4092 0.0
C1553 C 0.25557 0.92825 0.38106 0.0
C1554 C 0.25569 0.88539 0.42191 0.0
C1555 C 0.26411 0.90048 0.37443 0.0
C1556 C 0.2612 0.83406 0.43577 0.0
C1557 C 0.22617 0.84416 0.48196 0.0
N1558 N 0.26369 0.87996 0.39468 0.0
N1559 N 0.23477 0.8658 0.46511 0.0
H1560 H 0.02026 0.76021 0.78809 0.0
H1561 H 0.09774 0.71181 0.92948 0.0
H1562 H 0.02319 0.673 0.8163 0.0
H1563 H 0.13181 0.78014 0.8787 0.0
H1564 H 0.06297 0.70221 0.89216 0.0
H1565 H 0.05544 0.77243 0.82477 0.0
C1566 C 0.02835 0.74368 0.80186 0.0
C1567 C 0.01871 0.71559 0.79923 0.0
C1568 C 0.07805 0.71934 0.88926 0.0
C1569 C 0.05812 0.72948 0.84124 0.0
C1570 C 0.09774 0.72493 0.91058 0.0
C1571 C 0.11776 0.74664 0.90702 0.0
C1572 C 0.07806 0.7359 0.86448 0.0
C1573 C 0.11685 0.76301 0.88209 0.0
C1574 C 0.04835 0.75065 0.82269 0.0
C1575 C 0.02994 0.69494 0.81754 0.0
N1576 N 0.09721 0.75737 0.86171 0.0
N1577 N 0.04879 0.70236 0.83795 0.0
H1578 H 0.42571 0.27845 0.27913 0.0
H1579 H 0.40997 0.2492 0.44484 0.0
H1580 H 0.49481 0.25201 0.33264 0.0
H1581 H 0.34007 0.27178 0.39016 0.0
H1582 H 0.4402 0.24406 0.40297 0.0
H1583 H 0.39247 0.26833 0.31779 0.0
C1584 C 0.43366 0.26939 0.29872 0.0
C1585 C 0.46281 0.26568 0.30281 0.0
C1586 C 0.41821 0.25002 0.40011 0.0
C1587 C 0.42539 0.25532 0.34745 0.0
C1588 C 0.40102 0.25321 0.42404 0.0
C1589 C 0.37259 0.26138 0.42101 0.0
C1590 C 0.40695 0.25525 0.37298 0.0
C1591 C 0.36196 0.26575 0.39351 0.0
C1592 C 0.4148 0.26395 0.3209 0.0
C1593 C 0.47235 0.2547 0.3287 0.0
N1594 N 0.3792 0.26286 0.37059 0.0
N1595 N 0.4537 0.25028 0.35026 0.0
H1596 H 0.58786 0.74444 0.05866 0.0
H1597 H 0.54496 0.82664 0.19306 0.0
H1598 H 0.65018 0.79348 0.10455 0.0
H1599 H 0.5162 0.73989 0.18638 0.0
H1600 H 0.5804 0.81749 0.15682 0.0
H1601 H 0.55743 0.7446 0.10115 0.0
C1602 C 0.59506 0.75529 0.07763 0.0
C1603 C 0.62129 0.76941 0.07808 0.0
C1604 C 0.56666 0.8003 0.16357 0.0
C1605 C 0.58691 0.76952 0.12623 0.0
C1606 C 0.54644 0.80545 0.1843 0.0
C1607 C 0.52788 0.78384 0.19299 0.0
C1608 C 0.56771 0.77367 0.15052 0.0
C1609 C 0.53038 0.75696 0.1804 0.0
C1610 C 0.57792 0.755 0.10185 0.0
C1611 C 0.62997 0.78261 0.10328 0.0
N1612 N 0.54968 0.75271 0.15922 0.0
N1613 N 0.61258 0.78278 0.12623 0.0
H1614 H 0.91131 0.2259 0.54611 0.0
H1615 H 0.9473 0.2476 0.71082 0.0
H1616 H 0.84877 0.25053 0.60843 0.0
H1617 H 0.99691 0.19616 0.65362 0.0
H1618 H 0.91547 0.25962 0.67117 0.0
H1619 H 0.94724 0.22504 0.58352 0.0
C1620 C 0.90517 0.23117 0.56765 0.0
C1621 C 0.87699 0.23786 0.5743 0.0
C1622 C 0.93359 0.24604 0.66732 0.0
C1623 C 0.91794 0.23731 0.617 0.0
C1624 C 0.95179 0.2394 0.6898 0.0
C1625 C 0.9744 0.22065 0.68534 0.0
C1626 C 0.93851 0.23411 0.64038 0.0
C1627 C 0.97939 0.2104 0.65786 0.0
C1628 C 0.92566 0.23074 0.58894 0.0
C1629 C 0.8702 0.24479 0.6025 0.0
N1630 N 0.96148 0.21714 0.63642 0.0
N1631 N 0.89056 0.24426 0.62289 0.0
H1632 H 0.84123 0.98987 0.71274 0.0
H1633 H 0.88334 0.14912 0.74604 0.0
H1634 H 0.78032 0.05188 0.74102 0.0
H1635 H 0.94468 0.08173 0.7369 0.0
H1636 H 0.84542 0.11375 0.74683 0.0
H1637 H 0.8796 0.02237 0.72526 0.0
C1638 C 0.83607 0.01022 0.72216 0.0
C1639 C 0.80777 0.0184 0.72582 0.0
C1640 C 0.86719 0.10669 0.7449 0.0
C1641 C 0.85135 0.05606 0.73932 0.0
C1642 C 0.88885 0.12688 0.74421 0.0
C1643 C 0.91721 0.11837 0.74098 0.0
C1644 C 0.8739 0.07781 0.74206 0.0
C1645 C 0.92311 0.08926 0.7391 0.0
C1646 C 0.85791 0.0288 0.72923 0.0
C1647 C 0.80198 0.04487 0.73806 0.0
N1648 N 0.90161 0.07005 0.73941 0.0
N1649 N 0.82365 0.06308 0.7439 0.0
H1650 H 0.66269 0.00157 0.2434 0.0
H1651 H 0.60293 0.84257 0.24595 0.0
H1652 H 0.70988 0.92726 0.21831 0.0
H1653 H 0.54805 0.91582 0.24999 0.0
H1654 H 0.64386 0.87384 0.24518 0.0
H1655 H 0.6222 0.97078 0.25566 0.0
C1656 C 0.66469 0.97878 0.24107 0.0
C1657 C 0.68941 0.96686 0.22958 0.0
C1658 C 0.62291 0.88316 0.24634 0.0
C1659 C 0.64364 0.93186 0.24333 0.0
C1660 C 0.59945 0.86529 0.24675 0.0
C1661 C 0.57199 0.87663 0.24771 0.0
C1662 C 0.61902 0.91268 0.24686 0.0
C1663 C 0.56888 0.90625 0.24891 0.0
C1664 C 0.6416 0.9613 0.24781 0.0
C1665 C 0.69102 0.93729 0.22677 0.0
N1666 N 0.59219 0.92334 0.24831 0.0
N1667 N 0.66841 0.92085 0.23345 0.0
H1668 H 0.38575 0.34921 0.23609 0.0
H1669 H 0.34275 0.5049 0.28273 0.0
H1670 H 0.44537 0.41351 0.26283 0.0
H1671 H 0.28234 0.44392 0.25106 0.0
H1672 H 0.38136 0.4743 0.26716 0.0
H1673 H 0.34857 0.38524 0.23418 0.0
C1674 C 0.39105 0.37093 0.24149 0.0
C1675 C 0.41856 0.37828 0.25026 0.0
C1676 C 0.35973 0.46768 0.26312 0.0
C1677 C 0.37617 0.4196 0.24791 0.0
C1678 C 0.33772 0.48519 0.27195 0.0
C1679 C 0.30951 0.47658 0.26846 0.0
C1680 C 0.35345 0.44103 0.25136 0.0
C1681 C 0.30393 0.45112 0.25416 0.0
C1682 C 0.36984 0.39151 0.2402 0.0
C1683 C 0.42435 0.40681 0.25643 0.0
N1684 N 0.3258 0.43384 0.24663 0.0
N1685 N 0.40325 0.42635 0.25544 0.0
H1686 H 0.15507 0.48258 0.78626 0.0
H1687 H 0.11684 0.64536 0.76082 0.0
H1688 H 0.21752 0.54467 0.76128 0.0
H1689 H 0.05486 0.57948 0.77588 0.0
H1690 H 0.15405 0.60918 0.75947 0.0
H1691 H 0.1178 0.51755 0.7788 0.0
C1692 C 0.1608 0.50354 0.77865 0.0
C1693 C 0.18927 0.51094 0.77457 0.0
C1694 C 0.1323 0.60269 0.76303 0.0
C1695 C 0.14691 0.55141 0.76688 0.0
C1696 C 0.11108 0.62333 0.76411 0.0
C1697 C 0.08269 0.61543 0.76865 0.0
C1698 C 0.12506 0.57399 0.76665 0.0
C1699 C 0.07643 0.58658 0.77245 0.0
C1700 C 0.13957 0.52356 0.77456 0.0
C1701 C 0.19571 0.53823 0.76457 0.0
N1702 N 0.09744 0.56696 0.7714 0.0
N1703 N 0.17465 0.55776 0.76156 0.0
H1704 H 0.70871 0.84384 0.99475 0.0
H1705 H 0.77376 0.87732 0.14632 0.0
H1706 H 0.74711 0.77928 0.04691 0.0
H1707 H 0.74663 0.9415 0.08678 0.0
H1708 H 0.7689 0.84147 0.10901 0.0
H1709 H 0.72773 0.88022 0.02619 0.0
C1710 C 0.7216 0.83743 0.01269 0.0
C1711 C 0.7262 0.80865 0.0185 0.0
C1712 C 0.76434 0.86344 0.10405 0.0
C1713 C 0.74747 0.85008 0.05509 0.0
C1714 C 0.76698 0.88392 0.12536 0.0
C1715 C 0.76009 0.91239 0.11978 0.0
C1716 C 0.75459 0.87151 0.07705 0.0
C1717 C 0.75178 0.91976 0.09217 0.0
C1718 C 0.73244 0.85817 0.03067 0.0
C1719 C 0.74317 0.80134 0.0418 0.0
N1720 N 0.74899 0.89941 0.07196 0.0
N1721 N 0.75279 0.82197 0.05966 0.0
H1722 H 0.22049 0.59394 0.83523 0.0
H1723 H 0.25241 0.65954 0.98828 0.0
H1724 H 0.24145 0.54334 0.90878 0.0
H1725 H 0.21459 0.70583 0.91887 0.0
H1726 H 0.25904 0.61878 0.95657 0.0
H1727 H 0.22707 0.63676 0.86343 0.0
C1728 C 0.22632 0.59183 0.85738 0.0
C1729 C 0.23006 0.56506 0.86982 0.0
C1730 C 0.2497 0.63805 0.94824 0.0
C1731 C 0.23798 0.614 0.9021 0.0
C1732 C 0.24615 0.66135 0.96623 0.0
C1733 C 0.23234 0.68571 0.95626 0.0
C1734 C 0.23954 0.63947 0.92023 0.0
C1735 C 0.22477 0.68712 0.92751 0.0
C1736 C 0.23026 0.6163 0.87341 0.0
C1737 C 0.23794 0.56359 0.8985 0.0
N1738 N 0.22815 0.66416 0.91057 0.0
N1739 N 0.24156 0.58779 0.91376 0.0
H1740 H 0.25384 0.28557 0.44759 0.0
H1741 H 0.2731 0.45171 0.41628 0.0
H1742 H 0.29293 0.3449 0.50534 0.0
H1743 H 0.25444 0.38983 0.35122 0.0
H1744 H 0.2712 0.41399 0.45185 0.0
H1745 H 0.2437 0.3251 0.41494 0.0
C1746 C 0.25957 0.30701 0.45367 0.0
C1747 C 0.27441 0.31215 0.47892 0.0
C1748 C 0.26744 0.40869 0.42978 0.0
C1749 C 0.2633 0.35702 0.44197 0.0
C1750 C 0.26862 0.4302 0.40948 0.0
C1751 C 0.26435 0.42384 0.38071 0.0
C1752 C 0.26181 0.38064 0.4213 0.0
C1753 C 0.25829 0.39562 0.37314 0.0
C1754 C 0.25408 0.32946 0.435 0.0
C1755 C 0.2817 0.34015 0.48584 0.0
N1756 N 0.2573 0.37502 0.39331 0.0
N1757 N 0.27625 0.36152 0.46738 0.0
H1758 H 0.75702 0.21785 0.55602 0.0
H1759 H 0.76854 0.05041 0.58424 0.0
H1760 H 0.78657 0.15704 0.49437 0.0
H1761 H 0.75993 0.11212 0.65152 0.0
H1762 H 0.76678 0.08883 0.54952 0.0
H1763 H 0.74848 0.17867 0.58964 0.0
C1764 C 0.7609 0.19618 0.54936 0.0
C1765 C 0.77252 0.19046 0.52258 0.0
C1766 C 0.76526 0.09398 0.57189 0.0
C1767 C 0.76329 0.14597 0.56061 0.0
C1768 C 0.76638 0.07205 0.59173 0.0
C1769 C 0.76471 0.07807 0.62084 0.0
C1770 C 0.76235 0.12218 0.58116 0.0
C1771 C 0.76162 0.10653 0.62928 0.0
C1772 C 0.75637 0.17393 0.56857 0.0
C1773 C 0.7777 0.16219 0.51496 0.0
N1774 N 0.76059 0.12756 0.60953 0.0
N1775 N 0.77319 0.14101 0.53392 0.0
loop_
_geom_bond_atom_site_label_1
_geom_bond_atom_site_label_2
_geom_bond_distance
_geom_bond_site_symmetry_2
_ccdc_geom_bond_type
Zn0 O6 1.969 . S
Zn0 O7 1.965 . S
Zn0 O11 2.024 . S
Zn0 O16 1.969 . S
Zn1 O8 1.969 1_655 S
Zn1 O14 1.969 . S
Zn1 O15 1.965 . S
Zn1 O17 2.024 . S
C2 O3 1.229 . S
C2 O11 1.058 . S
O3 C2 1.229 . S
C4 O5 1.229 . S
C4 O17 1.058 . S
O5 C4 1.229 . S
O6 Zn0 1.969 . S
O6 C9 1.267 . S
O7 Zn0 1.965 . S
O7 C18 1.260 . S
O8 Zn1 1.969 1_455 S
O8 C18 1.258 . S
C9 O6 1.267 . S
C9 O10 1.228 . S
O10 C9 1.228 . S
O11 Zn0 2.024 . S
O11 C2 1.058 . S
C12 O13 1.228 . S
C12 O14 1.267 . S
O13 C12 1.228 . S
O14 Zn1 1.969 . S
O14 C12 1.267 . S
O15 Zn1 1.965 . S
O15 C19 1.260 . S
O16 Zn0 1.969 . S
O16 C19 1.258 1_455 S
O17 Zn1 2.024 . S
O17 C4 1.058 . S
C18 O7 1.260 . S
C18 O8 1.258 . S
C19 O15 1.260 . S
C19 O16 1.258 1_655 S
Zn20 O26 1.969 . S
Zn20 O27 1.965 . S
Zn20 O31 2.024 . S
Zn20 O36 1.969 . S
Zn21 O28 1.969 . S
Zn21 O34 1.969 . S
Zn21 O35 1.965 . S
Zn21 O37 2.024 . S
C22 O23 1.229 . S
C22 O31 1.058 . S
O23 C22 1.229 . S
C24 O25 1.229 . S
C24 O37 1.058 . S
O25 C24 1.229 . S
O26 Zn20 1.969 . S
O26 C29 1.267 . S
O27 Zn20 1.965 . S
O27 C38 1.260 . S
O28 Zn21 1.969 . S
O28 C38 1.258 . S
C29 O26 1.267 . S
C29 O30 1.228 . S
O30 C29 1.228 . S
O31 Zn20 2.024 . S
O31 C22 1.058 . S
C32 O33 1.228 . S
C32 O34 1.267 . S
O33 C32 1.228 . S
O34 Zn21 1.969 . S
O34 C32 1.267 . S
O35 Zn21 1.965 . S
O35 C39 1.260 . S
O36 Zn20 1.969 . S
O36 C39 1.258 . S
O37 Zn21 2.024 . S
O37 C24 1.058 . S
C38 O27 1.260 . S
C38 O28 1.258 . S
C39 O35 1.260 . S
C39 O36 1.258 . S
Zn40 O46 1.969 . S
Zn40 O47 1.965 . S
Zn40 O51 2.024 . S
Zn40 O56 1.969 . S
Zn41 O48 1.969 . S
Zn41 O54 1.969 . S
Zn41 O55 1.965 . S
Zn41 O57 2.024 . S
C42 O43 1.229 . S
C42 O51 1.058 . S
O43 C42 1.229 . S
C44 O45 1.229 . S
C44 O57 1.058 . S
O45 C44 1.229 . S
O46 Zn40 1.969 . S
O46 C49 1.267 . S
O47 Zn40 1.965 . S
O47 C58 1.260 . S
O48 Zn41 1.969 . S
O48 C58 1.258 . S
C49 O46 1.267 . S
C49 O50 1.228 . S
O50 C49 1.228 . S
O51 Zn40 2.024 . S
O51 C42 1.058 . S
C52 O53 1.228 . S
C52 O54 1.267 . S
O53 C52 1.228 . S
O54 Zn41 1.969 . S
O54 C52 1.267 . S
O55 Zn41 1.965 . S
O55 C59 1.260 . S
O56 Zn40 1.969 . S
O56 C59 1.258 . S
O57 Zn41 2.024 . S
O57 C44 1.058 . S
C58 O47 1.260 . S
C58 O48 1.258 . S
C59 O55 1.260 . S
C59 O56 1.258 . S
Zn60 O66 1.969 . S
Zn60 O67 1.965 . S
Zn60 O71 2.024 . S
Zn60 O76 1.969 . S
Zn61 O68 1.969 1_455 S
Zn61 O74 1.969 . S
Zn61 O75 1.965 . S
Zn61 O77 2.024 . S
C62 O63 1.229 . S
C62 O71 1.058 . S
O63 C62 1.229 . S
C64 O65 1.229 . S
C64 O77 1.058 . S
O65 C64 1.229 . S
O66 Zn60 1.969 . S
O66 C69 1.267 . S
O67 Zn60 1.965 . S
O67 C78 1.260 . S
O68 Zn61 1.969 1_655 S
O68 C78 1.258 . S
C69 O66 1.267 . S
C69 O70 1.228 . S
O70 C69 1.228 . S
O71 Zn60 2.024 . S
O71 C62 1.058 . S
C72 O73 1.228 . S
C72 O74 1.267 . S
O73 C72 1.228 . S
O74 Zn61 1.969 . S
O74 C72 1.267 . S
O75 Zn61 1.965 . S
O75 C79 1.260 . S
O76 Zn60 1.969 . S
O76 C79 1.258 1_655 S
O77 Zn61 2.024 . S
O77 C64 1.058 . S
C78 O67 1.260 . S
C78 O68 1.258 . S
C79 O75 1.260 . S
C79 O76 1.258 1_455 S
Zn80 O86 1.969 . S
Zn80 O87 1.965 . S
Zn80 O91 2.024 . S
Zn80 O96 1.969 . S
Zn81 O88 1.969 1_565 S
Zn81 O94 1.969 . S
Zn81 O95 1.965 . S
Zn81 O97 2.024 . S
C82 O83 1.229 . S
C82 O91 1.058 . S
O83 C82 1.229 . S
C84 O85 1.229 . S
C84 O97 1.058 . S
O85 C84 1.229 . S
O86 Zn80 1.969 . S
O86 C89 1.267 . S
O87 Zn80 1.965 . S
O87 C98 1.260 . S
O88 Zn81 1.969 1_545 S
O88 C98 1.258 . S
C89 O86 1.267 . S
C89 O90 1.228 . S
O90 C89 1.228 . S
O91 Zn80 2.024 . S
O91 C82 1.058 . S
C92 O93 1.228 . S
C92 O94 1.267 . S
O93 C92 1.228 . S
O94 Zn81 1.969 . S
O94 C92 1.267 . S
O95 Zn81 1.965 . S
O95 C99 1.260 . S
O96 Zn80 1.969 . S
O96 C99 1.258 1_545 S
O97 Zn81 2.024 . S
O97 C84 1.058 . S
C98 O87 1.260 . S
C98 O88 1.258 . S
C99 O95 1.260 . S
C99 O96 1.258 1_565 S
Zn100 O106 1.969 . S
Zn100 O107 1.965 . S
Zn100 O111 2.024 . S
Zn100 O116 1.969 . S
Zn101 O108 1.969 1_545 S
Zn101 O114 1.969 . S
Zn101 O115 1.965 . S
Zn101 O117 2.024 . S
C102 O103 1.229 . S
C102 O111 1.058 . S
O103 C102 1.229 . S
C104 O105 1.229 . S
C104 O117 1.058 . S
O105 C104 1.229 . S
O106 Zn100 1.969 . S
O106 C109 1.267 . S
O107 Zn100 1.965 . S
O107 C118 1.260 . S
O108 Zn101 1.969 1_565 S
O108 C118 1.258 . S
C109 O106 1.267 . S
C109 O110 1.228 . S
O110 C109 1.228 . S
O111 Zn100 2.024 . S
O111 C102 1.058 . S
C112 O113 1.228 . S
C112 O114 1.267 . S
O113 C112 1.228 . S
O114 Zn101 1.969 . S
O114 C112 1.267 . S
O115 Zn101 1.965 . S
O115 C119 1.260 . S
O116 Zn100 1.969 . S
O116 C119 1.258 1_565 S
O117 Zn101 2.024 . S
O117 C104 1.058 . S
C118 O107 1.260 . S
C118 O108 1.258 . S
C119 O115 1.260 . S
C119 O116 1.258 1_545 S
Zn120 O126 1.969 . S
Zn120 O127 1.965 . S
Zn120 O131 2.024 . S
Zn120 O136 1.969 . S
Zn121 O128 1.969 . S
Zn121 O134 1.969 . S
Zn121 O135 1.965 . S
Zn121 O137 2.024 . S
C122 O123 1.229 . S
C122 O131 1.058 . S
O123 C122 1.229 . S
C124 O125 1.229 . S
C124 O137 1.058 . S
O125 C124 1.229 . S
O126 Zn120 1.969 . S
O126 C129 1.267 . S
O127 Zn120 1.965 . S
O127 C138 1.260 . S
O128 Zn121 1.969 . S
O128 C138 1.258 . S
C129 O126 1.267 . S
C129 O130 1.228 . S
O130 C129 1.228 . S
O131 Zn120 2.024 . S
O131 C122 1.058 . S
C132 O133 1.228 . S
C132 O134 1.267 . S
O133 C132 1.228 . S
O134 Zn121 1.969 . S
O134 C132 1.267 . S
O135 Zn121 1.965 . S
O135 C139 1.260 . S
O136 Zn120 1.969 . S
O136 C139 1.258 . S
O137 Zn121 2.024 . S
O137 C124 1.058 . S
C138 O127 1.260 . S
C138 O128 1.258 . S
C139 O135 1.260 . S
C139 O136 1.258 . S
Zn140 O146 1.969 . S
Zn140 O147 1.965 . S
Zn140 O151 2.024 . S
Zn140 O156 1.969 . S
Zn141 O148 1.969 . S
Zn141 O154 1.969 . S
Zn141 O155 1.965 . S
Zn141 O157 2.024 . S
C142 O143 1.229 . S
C142 O151 1.058 . S
O143 C142 1.229 . S
C144 O145 1.229 . S
C144 O157 1.058 . S
O145 C144 1.229 . S
O146 Zn140 1.969 . S
O146 C149 1.267 . S
O147 Zn140 1.965 . S
O147 C158 1.260 . S
O148 Zn141 1.969 . S
O148 C158 1.258 . S
C149 O146 1.267 . S
C149 O150 1.228 . S
O150 C149 1.228 . S
O151 Zn140 2.024 . S
O151 C142 1.058 . S
C152 O153 1.228 . S
C152 O154 1.267 . S
O153 C152 1.228 . S
O154 Zn141 1.969 . S
O154 C152 1.267 . S
O155 Zn141 1.965 . S
O155 C159 1.260 . S
O156 Zn140 1.969 . S
O156 C159 1.258 . S
O157 Zn141 2.024 . S
O157 C144 1.058 . S
C158 O147 1.260 . S
C158 O148 1.258 . S
C159 O155 1.260 . S
C159 O156 1.258 . S
Zn160 O166 1.969 . S
Zn160 O167 1.965 . S
Zn160 O171 2.024 . S
Zn160 O176 1.969 . S
Zn161 O168 1.969 1_556 S
Zn161 O174 1.969 . S
Zn161 O175 1.965 . S
Zn161 O177 2.024 . S
C162 O163 1.229 . S
C162 O171 1.058 . S
O163 C162 1.229 . S
C164 O165 1.229 . S
C164 O177 1.058 . S
O165 C164 1.229 . S
O166 Zn160 1.969 . S
O166 C169 1.267 . S
O167 Zn160 1.965 . S
O167 C178 1.260 . S
O168 Zn161 1.969 1_554 S
O168 C178 1.258 . S
C169 O166 1.267 . S
C169 O170 1.228 . S
O170 C169 1.228 . S
O171 Zn160 2.024 . S
O171 C162 1.058 . S
C172 O173 1.228 . S
C172 O174 1.267 . S
O173 C172 1.228 . S
O174 Zn161 1.969 . S
O174 C172 1.267 . S
O175 Zn161 1.965 . S
O175 C179 1.260 . S
O176 Zn160 1.969 . S
O176 C179 1.258 1_554 S
O177 Zn161 2.024 . S
O177 C164 1.058 . S
C178 O167 1.260 . S
C178 O168 1.258 . S
C179 O175 1.260 . S
C179 O176 1.258 1_556 S
Zn180 O186 1.969 . S
Zn180 O187 1.965 . S
Zn180 O191 2.024 . S
Zn180 O196 1.969 . S
Zn181 O188 1.969 1_554 S
Zn181 O194 1.969 . S
Zn181 O195 1.965 . S
Zn181 O197 2.024 . S
C182 O183 1.229 . S
C182 O191 1.058 . S
O183 C182 1.229 . S
C184 O185 1.229 . S
C184 O197 1.058 . S
O185 C184 1.229 . S
O186 Zn180 1.969 . S
O186 C189 1.267 . S
O187 Zn180 1.965 . S
O187 C198 1.260 . S
O188 Zn181 1.969 1_556 S
O188 C198 1.258 . S
C189 O186 1.267 . S
C189 O190 1.228 . S
O190 C189 1.228 . S
O191 Zn180 2.024 . S
O191 C182 1.058 . S
C192 O193 1.228 . S
C192 O194 1.267 . S
O193 C192 1.228 . S
O194 Zn181 1.969 . S
O194 C192 1.267 . S
O195 Zn181 1.965 . S
O195 C199 1.260 . S
O196 Zn180 1.969 . S
O196 C199 1.258 1_556 S
O197 Zn181 2.024 . S
O197 C184 1.058 . S
C198 O187 1.260 . S
C198 O188 1.258 . S
C199 O195 1.260 . S
C199 O196 1.258 1_554 S
Zn200 O206 1.969 . S
Zn200 O207 1.965 . S
Zn200 O211 2.024 . S
Zn200 O216 1.969 . S
Zn201 O208 1.969 . S
Zn201 O214 1.969 . S
Zn201 O215 1.965 . S
Zn201 O217 2.024 . S
C202 O203 1.229 . S
C202 O211 1.058 . S
O203 C202 1.229 . S
C204 O205 1.229 . S
C204 O217 1.058 . S
O205 C204 1.229 . S
O206 Zn200 1.969 . S
O206 C209 1.267 . S
O207 Zn200 1.965 . S
O207 C218 1.260 . S
O208 Zn201 1.969 . S
O208 C218 1.258 . S
C209 O206 1.267 . S
C209 O210 1.228 . S
O210 C209 1.228 . S
O211 Zn200 2.024 . S
O211 C202 1.058 . S
C212 O213 1.228 . S
C212 O214 1.267 . S
O213 C212 1.228 . S
O214 Zn201 1.969 . S
O214 C212 1.267 . S
O215 Zn201 1.965 . S
O215 C219 1.260 . S
O216 Zn200 1.969 . S
O216 C219 1.258 . S
O217 Zn201 2.024 . S
O217 C204 1.058 . S
C218 O207 1.260 . S
C218 O208 1.258 . S
C219 O215 1.260 . S
C219 O216 1.258 . S
Zn220 O226 1.969 . S
Zn220 O227 1.965 . S
Zn220 O231 2.024 . S
Zn220 O236 1.969 . S
Zn221 O228 1.969 . S
Zn221 O234 1.969 . S
Zn221 O235 1.965 . S
Zn221 O237 2.024 . S
C222 O223 1.229 . S
C222 O231 1.058 . S
O223 C222 1.229 . S
C224 O225 1.229 . S
C224 O237 1.058 . S
O225 C224 1.229 . S
O226 Zn220 1.969 . S
O226 C229 1.267 . S
O227 Zn220 1.965 . S
O227 C238 1.260 . S
O228 Zn221 1.969 . S
O228 C238 1.258 . S
C229 O226 1.267 . S
C229 O230 1.228 . S
O230 C229 1.228 . S
O231 Zn220 2.024 . S
O231 C222 1.058 . S
C232 O233 1.228 . S
C232 O234 1.267 . S
O233 C232 1.228 . S
O234 Zn221 1.969 . S
O234 C232 1.267 . S
O235 Zn221 1.965 . S
O235 C239 1.260 . S
O236 Zn220 1.969 . S
O236 C239 1.258 . S
O237 Zn221 2.024 . S
O237 C224 1.058 . S
C238 O227 1.260 . S
C238 O228 1.258 . S
C239 O235 1.260 . S
C239 O236 1.258 . S
Zn240 O246 1.969 . S
Zn240 O247 1.965 . S
Zn240 O251 2.024 . S
Zn240 O256 1.969 1_455 S
Zn241 O248 1.969 . S
Zn241 O254 1.969 . S
Zn241 O255 1.965 . S
Zn241 O257 2.024 . S
C242 O243 1.229 . S
C242 O251 1.058 . S
O243 C242 1.229 . S
C244 O245 1.229 . S
C244 O257 1.058 . S
O245 C244 1.229 . S
O246 Zn240 1.969 . S
O246 C249 1.267 . S
O247 Zn240 1.965 . S
O247 C258 1.260 . S
O248 Zn241 1.969 . S
O248 C258 1.258 1_655 S
C249 O246 1.267 . S
C249 O250 1.228 . S
O250 C249 1.228 . S
O251 Zn240 2.024 . S
O251 C242 1.058 . S
C252 O253 1.228 . S
C252 O254 1.267 . S
O253 C252 1.228 . S
O254 Zn241 1.969 . S
O254 C252 1.267 . S
O255 Zn241 1.965 . S
O255 C259 1.260 . S
O256 Zn240 1.969 1_655 S
O256 C259 1.258 . S
O257 Zn241 2.024 . S
O257 C244 1.058 . S
C258 O247 1.260 . S
C258 O248 1.258 1_455 S
C259 O255 1.260 . S
C259 O256 1.258 . S
Zn260 O266 1.969 . S
Zn260 O267 1.965 . S
Zn260 O271 2.024 . S
Zn260 O276 1.969 . S
Zn261 O268 1.969 . S
Zn261 O274 1.969 . S
Zn261 O275 1.965 . S
Zn261 O277 2.024 . S
C262 O263 1.229 . S
C262 O271 1.058 . S
O263 C262 1.229 . S
C264 O265 1.229 . S
C264 O277 1.058 . S
O265 C264 1.229 . S
O266 Zn260 1.969 . S
O266 C269 1.267 . S
O267 Zn260 1.965 . S
O267 C278 1.260 . S
O268 Zn261 1.969 . S
O268 C278 1.258 . S
C269 O266 1.267 . S
C269 O270 1.228 . S
O270 C269 1.228 . S
O271 Zn260 2.024 . S
O271 C262 1.058 . S
C272 O273 1.228 . S
C272 O274 1.267 . S
O273 C272 1.228 . S
O274 Zn261 1.969 . S
O274 C272 1.267 . S
O275 Zn261 1.965 . S
O275 C279 1.260 . S
O276 Zn260 1.969 . S
O276 C279 1.258 . S
O277 Zn261 2.024 . S
O277 C264 1.058 . S
C278 O267 1.260 . S
C278 O268 1.258 . S
C279 O275 1.260 . S
C279 O276 1.258 . S
Zn280 O286 1.969 . S
Zn280 O287 1.965 . S
Zn280 O291 2.024 . S
Zn280 O296 1.969 . S
Zn281 O288 1.969 . S
Zn281 O294 1.969 . S
Zn281 O295 1.965 . S
Zn281 O297 2.024 . S
C282 O283 1.229 . S
C282 O291 1.058 . S
O283 C282 1.229 . S
C284 O285 1.229 . S
C284 O297 1.058 . S
O285 C284 1.229 . S
O286 Zn280 1.969 . S
O286 C289 1.267 . S
O287 Zn280 1.965 . S
O287 C298 1.260 . S
O288 Zn281 1.969 . S
O288 C298 1.258 . S
C289 O286 1.267 . S
C289 O290 1.228 . S
O290 C289 1.228 . S
O291 Zn280 2.024 . S
O291 C282 1.058 . S
C292 O293 1.228 . S
C292 O294 1.267 . S
O293 C292 1.228 . S
O294 Zn281 1.969 . S
O294 C292 1.267 . S
O295 Zn281 1.965 . S
O295 C299 1.260 . S
O296 Zn280 1.969 . S
O296 C299 1.258 . S
O297 Zn281 2.024 . S
O297 C284 1.058 . S
C298 O287 1.260 . S
C298 O288 1.258 . S
C299 O295 1.260 . S
C299 O296 1.258 . S
Zn300 O306 1.969 . S
Zn300 O307 1.965 . S
Zn300 O311 2.024 . S
Zn300 O316 1.969 1_655 S
Zn301 O308 1.969 . S
Zn301 O314 1.969 . S
Zn301 O315 1.965 . S
Zn301 O317 2.024 . S
C302 O303 1.229 . S
C302 O311 1.058 . S
O303 C302 1.229 . S
C304 O305 1.229 . S
C304 O317 1.058 . S
O305 C304 1.229 . S
O306 Zn300 1.969 . S
O306 C309 1.267 . S
O307 Zn300 1.965 . S
O307 C318 1.260 . S
O308 Zn301 1.969 . S
O308 C318 1.258 1_455 S
C309 O306 1.267 . S
C309 O310 1.228 . S
O310 C309 1.228 . S
O311 Zn300 2.024 . S
O311 C302 1.058 . S
C312 O313 1.228 . S
C312 O314 1.267 . S
O313 C312 1.228 . S
O314 Zn301 1.969 . S
O314 C312 1.267 . S
O315 Zn301 1.965 . S
O315 C319 1.260 . S
O316 Zn300 1.969 1_455 S
O316 C319 1.258 . S
O317 Zn301 2.024 . S
O317 C304 1.058 . S
C318 O307 1.260 . S
C318 O308 1.258 1_655 S
C319 O315 1.260 . S
C319 O316 1.258 . S
Zn320 O326 1.969 . S
Zn320 O327 1.965 . S
Zn320 O331 2.024 . S
Zn320 O336 1.969 1_545 S
Zn321 O328 1.969 . S
Zn321 O334 1.969 . S
Zn321 O335 1.965 . S
Zn321 O337 2.024 . S
C322 O323 1.229 . S
C322 O331 1.058 . S
O323 C322 1.229 . S
C324 O325 1.229 . S
C324 O337 1.058 . S
O325 C324 1.229 . S
O326 Zn320 1.969 . S
O326 C329 1.267 . S
O327 Zn320 1.965 . S
O327 C338 1.260 . S
O328 Zn321 1.969 . S
O328 C338 1.258 1_565 S
C329 O326 1.267 . S
C329 O330 1.228 . S
O330 C329 1.228 . S
O331 Zn320 2.024 . S
O331 C322 1.058 . S
C332 O333 1.228 . S
C332 O334 1.267 . S
O333 C332 1.228 . S
O334 Zn321 1.969 . S
O334 C332 1.267 . S
O335 Zn321 1.965 . S
O335 C339 1.260 . S
O336 Zn320 1.969 1_565 S
O336 C339 1.258 . S
O337 Zn321 2.024 . S
O337 C324 1.058 . S
C338 O327 1.260 . S
C338 O328 1.258 1_545 S
C339 O335 1.260 . S
C339 O336 1.258 . S
Zn340 O346 1.969 . S
Zn340 O347 1.965 . S
Zn340 O351 2.024 . S
Zn340 O356 1.969 1_565 S
Zn341 O348 1.969 . S
Zn341 O354 1.969 . S
Zn341 O355 1.965 . S
Zn341 O357 2.024 . S
C342 O343 1.229 . S
C342 O351 1.058 . S
O343 C342 1.229 . S
C344 O345 1.229 . S
C344 O357 1.058 . S
O345 C344 1.229 . S
O346 Zn340 1.969 . S
O346 C349 1.267 . S
O347 Zn340 1.965 . S
O347 C358 1.260 . S
O348 Zn341 1.969 . S
O348 C358 1.258 1_545 S
C349 O346 1.267 . S
C349 O350 1.228 . S
O350 C349 1.228 . S
O351 Zn340 2.024 . S
O351 C342 1.058 . S
C352 O353 1.228 . S
C352 O354 1.267 . S
O353 C352 1.228 . S
O354 Zn341 1.969 . S
O354 C352 1.267 . S
O355 Zn341 1.965 . S
O355 C359 1.260 . S
O356 Zn340 1.969 1_545 S
O356 C359 1.258 . S
O357 Zn341 2.024 . S
O357 C344 1.058 . S
C358 O347 1.260 . S
C358 O348 1.258 1_565 S
C359 O355 1.260 . S
C359 O356 1.258 . S
Zn360 O366 1.969 . S
Zn360 O367 1.965 . S
Zn360 O371 2.024 . S
Zn360 O376 1.969 . S
Zn361 O368 1.969 . S
Zn361 O374 1.969 . S
Zn361 O375 1.965 . S
Zn361 O377 2.024 . S
C362 O363 1.229 . S
C362 O371 1.058 . S
O363 C362 1.229 . S
C364 O365 1.229 . S
C364 O377 1.058 . S
O365 C364 1.229 . S
O366 Zn360 1.969 . S
O366 C369 1.267 . S
O367 Zn360 1.965 . S
O367 C378 1.260 . S
O368 Zn361 1.969 . S
O368 C378 1.258 . S
C369 O366 1.267 . S
C369 O370 1.228 . S
O370 C369 1.228 . S
O371 Zn360 2.024 . S
O371 C362 1.058 . S
C372 O373 1.228 . S
C372 O374 1.267 . S
O373 C372 1.228 . S
O374 Zn361 1.969 . S
O374 C372 1.267 . S
O375 Zn361 1.965 . S
O375 C379 1.260 . S
O376 Zn360 1.969 . S
O376 C379 1.258 . S
O377 Zn361 2.024 . S
O377 C364 1.058 . S
C378 O367 1.260 . S
C378 O368 1.258 . S
C379 O375 1.260 . S
C379 O376 1.258 . S
Zn380 O386 1.969 . S
Zn380 O387 1.965 . S
Zn380 O391 2.024 . S
Zn380 O396 1.969 . S
Zn381 O388 1.969 . S
Zn381 O394 1.969 . S
Zn381 O395 1.965 . S
Zn381 O397 2.024 . S
C382 O383 1.229 . S
C382 O391 1.058 . S
O383 C382 1.229 . S
C384 O385 1.229 . S
C384 O397 1.058 . S
O385 C384 1.229 . S
O386 Zn380 1.969 . S
O386 C389 1.267 . S
O387 Zn380 1.965 . S
O387 C398 1.260 . S
O388 Zn381 1.969 . S
O388 C398 1.258 . S
C389 O386 1.267 . S
C389 O390 1.228 . S
O390 C389 1.228 . S
O391 Zn380 2.024 . S
O391 C382 1.058 . S
C392 O393 1.228 . S
C392 O394 1.267 . S
O393 C392 1.228 . S
O394 Zn381 1.969 . S
O394 C392 1.267 . S
O395 Zn381 1.965 . S
O395 C399 1.260 . S
O396 Zn380 1.969 . S
O396 C399 1.258 . S
O397 Zn381 2.024 . S
O397 C384 1.058 . S
C398 O387 1.260 . S
C398 O388 1.258 . S
C399 O395 1.260 . S
C399 O396 1.258 . S
Zn400 O406 1.969 . S
Zn400 O407 1.965 . S
Zn400 O411 2.024 . S
Zn400 O416 1.969 1_554 S
Zn401 O408 1.969 . S
Zn401 O414 1.969 . S
Zn401 O415 1.965 . S
Zn401 O417 2.024 . S
C402 O403 1.229 . S
C402 O411 1.058 . S
O403 C402 1.229 . S
C404 O405 1.229 . S
C404 O417 1.058 . S
O405 C404 1.229 . S
O406 Zn400 1.969 . S
O406 C409 1.267 . S
O407 Zn400 1.965 . S
O407 C418 1.260 . S
O408 Zn401 1.969 . S
O408 C418 1.258 1_556 S
C409 O406 1.267 . S
C409 O410 1.228 . S
O410 C409 1.228 . S
O411 Zn400 2.024 . S
O411 C402 1.058 . S
C412 O413 1.228 . S
C412 O414 1.267 . S
O413 C412 1.228 . S
O414 Zn401 1.969 . S
O414 C412 1.267 . S
O415 Zn401 1.965 . S
O415 C419 1.260 . S
O416 Zn400 1.969 1_556 S
O416 C419 1.258 . S
O417 Zn401 2.024 . S
O417 C404 1.058 . S
C418 O407 1.260 . S
C418 O408 1.258 1_554 S
C419 O415 1.260 . S
C419 O416 1.258 . S
Zn420 O426 1.969 . S
Zn420 O427 1.965 . S
Zn420 O431 2.024 . S
Zn420 O436 1.969 1_556 S
Zn421 O428 1.969 . S
Zn421 O434 1.969 . S
Zn421 O435 1.965 . S
Zn421 O437 2.024 . S
C422 O423 1.229 . S
C422 O431 1.058 . S
O423 C422 1.229 . S
C424 O425 1.229 . S
C424 O437 1.058 . S
O425 C424 1.229 . S
O426 Zn420 1.969 . S
O426 C429 1.267 . S
O427 Zn420 1.965 . S
O427 C438 1.260 . S
O428 Zn421 1.969 . S
O428 C438 1.258 1_554 S
C429 O426 1.267 . S
C429 O430 1.228 . S
O430 C429 1.228 . S
O431 Zn420 2.024 . S
O431 C422 1.058 . S
C432 O433 1.228 . S
C432 O434 1.267 . S
O433 C432 1.228 . S
O434 Zn421 1.969 . S
O434 C432 1.267 . S
O435 Zn421 1.965 . S
O435 C439 1.260 . S
O436 Zn420 1.969 1_554 S
O436 C439 1.258 . S
O437 Zn421 2.024 . S
O437 C424 1.058 . S
C438 O427 1.260 . S
C438 O428 1.258 1_556 S
C439 O435 1.260 . S
C439 O436 1.258 . S
Zn440 O446 1.969 . S
Zn440 O447 1.965 . S
Zn440 O451 2.024 . S
Zn440 O456 1.969 . S
Zn441 O448 1.969 . S
Zn441 O454 1.969 . S
Zn441 O455 1.965 . S
Zn441 O457 2.024 . S
C442 O443 1.229 . S
C442 O451 1.058 . S
O443 C442 1.229 . S
C444 O445 1.229 . S
C444 O457 1.058 . S
O445 C444 1.229 . S
O446 Zn440 1.969 . S
O446 C449 1.267 . S
O447 Zn440 1.965 . S
O447 C458 1.260 . S
O448 Zn441 1.969 . S
O448 C458 1.258 . S
C449 O446 1.267 . S
C449 O450 1.228 . S
O450 C449 1.228 . S
O451 Zn440 2.024 . S
O451 C442 1.058 . S
C452 O453 1.228 . S
C452 O454 1.267 . S
O453 C452 1.228 . S
O454 Zn441 1.969 . S
O454 C452 1.267 . S
O455 Zn441 1.965 . S
O455 C459 1.260 . S
O456 Zn440 1.969 . S
O456 C459 1.258 . S
O457 Zn441 2.024 . S
O457 C444 1.058 . S
C458 O447 1.260 . S
C458 O448 1.258 . S
C459 O455 1.260 . S
C459 O456 1.258 . S
Zn460 O466 1.969 . S
Zn460 O467 1.965 . S
Zn460 O471 2.024 . S
Zn460 O476 1.969 . S
Zn461 O468 1.969 . S
Zn461 O474 1.969 . S
Zn461 O475 1.965 . S
Zn461 O477 2.024 . S
C462 O463 1.229 . S
C462 O471 1.058 . S
O463 C462 1.229 . S
C464 O465 1.229 . S
C464 O477 1.058 . S
O465 C464 1.229 . S
O466 Zn460 1.969 . S
O466 C469 1.267 . S
O467 Zn460 1.965 . S
O467 C478 1.260 . S
O468 Zn461 1.969 . S
O468 C478 1.258 . S
C469 O466 1.267 . S
C469 O470 1.228 . S
O470 C469 1.228 . S
O471 Zn460 2.024 . S
O471 C462 1.058 . S
C472 O473 1.228 . S
C472 O474 1.267 . S
O473 C472 1.228 . S
O474 Zn461 1.969 . S
O474 C472 1.267 . S
O475 Zn461 1.965 . S
O475 C479 1.260 . S
O476 Zn460 1.969 . S
O476 C479 1.258 . S
O477 Zn461 2.024 . S
O477 C464 1.058 . S
C478 O467 1.260 . S
C478 O468 1.258 . S
C479 O475 1.260 . S
C479 O476 1.258 . S
H480 C486 0.930 . S
H481 C490 0.930 . S
H482 C495 0.929 . S
H483 C493 0.929 . S
H484 C488 0.929 . S
H485 C494 0.929 . S
C486 H480 0.930 . S
C486 C487 1.367 . S
C486 C494 1.378 . S
C487 C486 1.367 . S
C487 C495 1.433 . S
C488 H484 0.929 . S
C488 C490 1.378 . S
C488 C492 1.350 . S
C489 C492 1.463 . S
C489 C494 1.350 . S
C489 N497 1.427 . S
C490 H481 0.930 . S
C490 C488 1.378 . S
C490 C491 1.367 . S
C491 C490 1.367 . S
C491 C493 1.433 . S
C492 C488 1.350 . S
C492 C489 1.463 . S
C492 N496 1.427 . S
C493 H483 0.929 . S
C493 C491 1.433 . S
C493 N496 1.384 . S
C494 H485 0.929 . S
C494 C486 1.378 . S
C494 C489 1.350 . S
C495 H482 0.929 . S
C495 C487 1.433 . S
C495 N497 1.384 . S
N496 C492 1.427 . S
N496 C493 1.384 . S
N497 C489 1.427 . S
N497 C495 1.384 . S
H498 C504 0.930 . S
H499 C508 0.930 . S
H500 C513 0.929 . S
H501 C511 0.929 . S
H502 C506 0.929 . S
H503 C512 0.929 . S
C504 H498 0.930 . S
C504 C505 1.367 . S
C504 C512 1.378 . S
C505 C504 1.367 . S
C505 C513 1.433 . S
C506 H502 0.929 . S
C506 C508 1.378 . S
C506 C510 1.350 . S
C507 C510 1.463 . S
C507 C512 1.350 . S
C507 N515 1.427 . S
C508 H499 0.930 . S
C508 C506 1.378 . S
C508 C509 1.367 . S
C509 C508 1.367 . S
C509 C511 1.433 . S
C510 C506 1.350 . S
C510 C507 1.463 . S
C510 N514 1.427 . S
C511 H501 0.929 . S
C511 C509 1.433 . S
C511 N514 1.384 . S
C512 H503 0.929 . S
C512 C504 1.378 . S
C512 C507 1.350 . S
C513 H500 0.929 . S
C513 C505 1.433 . S
C513 N515 1.384 . S
N514 C510 1.427 . S
N514 C511 1.384 . S
N515 C507 1.427 . S
N515 C513 1.384 . S
H516 C522 0.930 . S
H517 C526 0.930 . S
H518 C531 0.929 . S
H519 C529 0.929 . S
H520 C524 0.929 . S
H521 C530 0.929 . S
C522 H516 0.930 . S
C522 C523 1.367 . S
C522 C530 1.378 . S
C523 C522 1.367 . S
C523 C531 1.433 . S
C524 H520 0.929 . S
C524 C526 1.378 . S
C524 C528 1.350 . S
C525 C528 1.463 . S
C525 C530 1.350 . S
C525 N533 1.427 . S
C526 H517 0.930 . S
C526 C524 1.378 . S
C526 C527 1.367 . S
C527 C526 1.367 . S
C527 C529 1.433 . S
C528 C524 1.350 . S
C528 C525 1.463 . S
C528 N532 1.427 . S
C529 H519 0.929 . S
C529 C527 1.433 . S
C529 N532 1.384 . S
C530 H521 0.929 . S
C530 C522 1.378 . S
C530 C525 1.350 . S
C531 H518 0.929 . S
C531 C523 1.433 . S
C531 N533 1.384 . S
N532 C528 1.427 . S
N532 C529 1.384 . S
N533 C525 1.427 . S
N533 C531 1.384 . S
H534 C540 0.930 . S
H535 C544 0.930 . S
H536 C549 0.929 . S
H537 C547 0.929 . S
H538 C542 0.929 . S
H539 C548 0.929 . S
C540 H534 0.930 . S
C540 C541 1.367 . S
C540 C548 1.378 . S
C541 C540 1.367 . S
C541 C549 1.433 . S
C542 H538 0.929 . S
C542 C544 1.378 . S
C542 C546 1.350 . S
C543 C546 1.463 . S
C543 C548 1.350 . S
C543 N551 1.427 . S
C544 H535 0.930 . S
C544 C542 1.378 . S
C544 C545 1.367 . S
C545 C544 1.367 . S
C545 C547 1.433 . S
C546 C542 1.350 . S
C546 C543 1.463 . S
C546 N550 1.427 . S
C547 H537 0.929 . S
C547 C545 1.433 . S
C547 N550 1.384 . S
C548 H539 0.929 . S
C548 C540 1.378 . S
C548 C543 1.350 . S
C549 H536 0.929 . S
C549 C541 1.433 . S
C549 N551 1.384 . S
N550 C546 1.427 . S
N550 C547 1.384 . S
N551 C543 1.427 . S
N551 C549 1.384 . S
H552 C558 0.930 . S
H553 C562 0.930 . S
H554 C567 0.929 . S
H555 C565 0.929 . S
H556 C560 0.929 . S
H557 C566 0.929 . S
C558 H552 0.930 . S
C558 C559 1.367 . S
C558 C566 1.378 . S
C559 C558 1.367 . S
C559 C567 1.433 . S
C560 H556 0.929 . S
C560 C562 1.378 . S
C560 C564 1.350 . S
C561 C564 1.463 . S
C561 C566 1.350 . S
C561 N569 1.427 . S
C562 H553 0.930 . S
C562 C560 1.378 . S
C562 C563 1.367 . S
C563 C562 1.367 . S
C563 C565 1.433 . S
C564 C560 1.350 . S
C564 C561 1.463 . S
C564 N568 1.427 . S
C565 H555 0.929 . S
C565 C563 1.433 . S
C565 N568 1.384 . S
C566 H557 0.929 . S
C566 C558 1.378 . S
C566 C561 1.350 . S
C567 H554 0.929 . S
C567 C559 1.433 . S
C567 N569 1.384 . S
N568 C564 1.427 . S
N568 C565 1.384 . S
N569 C561 1.427 . S
N569 C567 1.384 . S
H570 C576 0.930 . S
H571 C580 0.930 . S
H572 C585 0.929 . S
H573 C583 0.929 . S
H574 C578 0.929 . S
H575 C584 0.929 . S
C576 H570 0.930 . S
C576 C577 1.367 . S
C576 C584 1.378 . S
C577 C576 1.367 . S
C577 C585 1.433 . S
C578 H574 0.929 . S
C578 C580 1.378 . S
C578 C582 1.350 . S
C579 C582 1.463 . S
C579 C584 1.350 . S
C579 N587 1.427 . S
C580 H571 0.930 . S
C580 C578 1.378 . S
C580 C581 1.367 . S
C581 C580 1.367 . S
C581 C583 1.433 . S
C582 C578 1.350 . S
C582 C579 1.463 . S
C582 N586 1.427 . S
C583 H573 0.929 . S
C583 C581 1.433 . S
C583 N586 1.384 . S
C584 H575 0.929 . S
C584 C576 1.378 . S
C584 C579 1.350 . S
C585 H572 0.929 . S
C585 C577 1.433 . S
C585 N587 1.384 . S
N586 C582 1.427 . S
N586 C583 1.384 . S
N587 C579 1.427 . S
N587 C585 1.384 . S
H588 C594 0.930 . S
H589 C598 0.930 . S
H590 C603 0.929 . S
H591 C601 0.929 . S
H592 C596 0.929 . S
H593 C602 0.929 . S
C594 H588 0.930 . S
C594 C595 1.367 . S
C594 C602 1.378 . S
C595 C594 1.367 . S
C595 C603 1.433 . S
C596 H592 0.929 . S
C596 C598 1.378 . S
C596 C600 1.350 . S
C597 C600 1.463 . S
C597 C602 1.350 . S
C597 N605 1.427 . S
C598 H589 0.930 . S
C598 C596 1.378 . S
C598 C599 1.367 . S
C599 C598 1.367 . S
C599 C601 1.433 . S
C600 C596 1.350 . S
C600 C597 1.463 . S
C600 N604 1.427 . S
C601 H591 0.929 . S
C601 C599 1.433 . S
C601 N604 1.384 . S
C602 H593 0.929 . S
C602 C594 1.378 . S
C602 C597 1.350 . S
C603 H590 0.929 . S
C603 C595 1.433 . S
C603 N605 1.384 . S
N604 C600 1.427 . S
N604 C601 1.384 . S
N605 C597 1.427 . S
N605 C603 1.384 . S
H606 C612 0.930 . S
H607 C616 0.930 . S
H608 C621 0.929 . S
H609 C619 0.929 . S
H610 C614 0.929 . S
H611 C620 0.929 . S
C612 H606 0.930 . S
C612 C613 1.367 . S
C612 C620 1.378 . S
C613 C612 1.367 . S
C613 C621 1.433 . S
C614 H610 0.929 . S
C614 C616 1.378 . S
C614 C618 1.350 . S
C615 C618 1.463 . S
C615 C620 1.350 . S
C615 N623 1.427 . S
C616 H607 0.930 . S
C616 C614 1.378 . S
C616 C617 1.367 . S
C617 C616 1.367 . S
C617 C619 1.433 . S
C618 C614 1.350 . S
C618 C615 1.463 . S
C618 N622 1.427 . S
C619 H609 0.929 . S
C619 C617 1.433 . S
C619 N622 1.384 . S
C620 H611 0.929 . S
C620 C612 1.378 . S
C620 C615 1.350 . S
C621 H608 0.929 . S
C621 C613 1.433 . S
C621 N623 1.384 . S
N622 C618 1.427 . S
N622 C619 1.384 . S
N623 C615 1.427 . S
N623 C621 1.384 . S
H624 C630 0.930 . S
H625 C634 0.930 . S
H626 C639 0.929 . S
H627 C637 0.929 . S
H628 C632 0.929 . S
H629 C638 0.929 . S
C630 H624 0.930 . S
C630 C631 1.367 . S
C630 C638 1.378 . S
C631 C630 1.367 . S
C631 C639 1.433 . S
C632 H628 0.929 . S
C632 C634 1.378 . S
C632 C636 1.350 . S
C633 C636 1.463 . S
C633 C638 1.350 . S
C633 N641 1.427 . S
C634 H625 0.930 . S
C634 C632 1.378 . S
C634 C635 1.367 . S
C635 C634 1.367 . S
C635 C637 1.433 . S
C636 C632 1.350 . S
C636 C633 1.463 . S
C636 N640 1.427 . S
C637 H627 0.929 . S
C637 C635 1.433 . S
C637 N640 1.384 . S
C638 H629 0.929 . S
C638 C630 1.378 . S
C638 C633 1.350 . S
C639 H626 0.929 . S
C639 C631 1.433 . S
C639 N641 1.384 . S
N640 C636 1.427 . S
N640 C637 1.384 . S
N641 C633 1.427 . S
N641 C639 1.384 . S
H642 C648 0.930 . S
H643 C652 0.930 . S
H644 C657 0.929 . S
H645 C655 0.929 . S
H646 C650 0.929 . S
H647 C656 0.929 . S
C648 H642 0.930 . S
C648 C649 1.367 . S
C648 C656 1.378 . S
C649 C648 1.367 . S
C649 C657 1.433 . S
C650 H646 0.929 . S
C650 C652 1.378 . S
C650 C654 1.350 . S
C651 C654 1.463 . S
C651 C656 1.350 . S
C651 N659 1.427 . S
C652 H643 0.930 . S
C652 C650 1.378 . S
C652 C653 1.367 . S
C653 C652 1.367 . S
C653 C655 1.433 . S
C654 C650 1.350 . S
C654 C651 1.463 . S
C654 N658 1.427 . S
C655 H645 0.929 . S
C655 C653 1.433 . S
C655 N658 1.384 . S
C656 H647 0.929 . S
C656 C648 1.378 . S
C656 C651 1.350 . S
C657 H644 0.929 . S
C657 C649 1.433 . S
C657 N659 1.384 . S
N658 C654 1.427 . S
N658 C655 1.384 . S
N659 C651 1.427 . S
N659 C657 1.384 . S
H660 C666 0.930 . S
H661 C670 0.930 . S
H662 C675 0.929 . S
H663 C673 0.929 . S
H664 C668 0.929 . S
H665 C674 0.929 . S
C666 H660 0.930 . S
C666 C667 1.367 . S
C666 C674 1.378 . S
C667 C666 1.367 . S
C667 C675 1.433 . S
C668 H664 0.929 . S
C668 C670 1.378 . S
C668 C672 1.350 . S
C669 C672 1.463 . S
C669 C674 1.350 . S
C669 N677 1.427 . S
C670 H661 0.930 . S
C670 C668 1.378 . S
C670 C671 1.367 . S
C671 C670 1.367 . S
C671 C673 1.433 . S
C672 C668 1.350 . S
C672 C669 1.463 . S
C672 N676 1.427 . S
C673 H663 0.929 . S
C673 C671 1.433 . S
C673 N676 1.384 . S
C674 H665 0.929 . S
C674 C666 1.378 . S
C674 C669 1.350 . S
C675 H662 0.929 . S
C675 C667 1.433 . S
C675 N677 1.384 . S
N676 C672 1.427 . S
N676 C673 1.384 . S
N677 C669 1.427 . S
N677 C675 1.384 . S
H678 C684 0.930 . S
H679 C688 0.930 . S
H680 C693 0.929 . S
H681 C691 0.929 . S
H682 C686 0.929 . S
H683 C692 0.929 . S
C684 H678 0.930 . S
C684 C685 1.367 . S
C684 C692 1.378 . S
C685 C684 1.367 . S
C685 C693 1.433 . S
C686 H682 0.929 . S
C686 C688 1.378 . S
C686 C690 1.350 . S
C687 C690 1.463 . S
C687 C692 1.350 . S
C687 N695 1.427 . S
C688 H679 0.930 . S
C688 C686 1.378 . S
C688 C689 1.367 . S
C689 C688 1.367 . S
C689 C691 1.433 . S
C690 C686 1.350 . S
C690 C687 1.463 . S
C690 N694 1.427 . S
C691 H681 0.929 . S
C691 C689 1.433 . S
C691 N694 1.384 . S
C692 H683 0.929 . S
C692 C684 1.378 . S
C692 C687 1.350 . S
C693 H680 0.929 . S
C693 C685 1.433 . S
C693 N695 1.384 . S
N694 C690 1.427 . S
N694 C691 1.384 . S
N695 C687 1.427 . S
N695 C693 1.384 . S
H696 C702 0.930 . S
H697 C706 0.930 . S
H698 C711 0.929 . S
H699 C709 0.929 . S
H700 C704 0.929 . S
H701 C710 0.929 . S
C702 H696 0.930 . S
C702 C703 1.367 . S
C702 C710 1.378 . S
C703 C702 1.367 . S
C703 C711 1.433 . S
C704 H700 0.929 . S
C704 C706 1.378 . S
C704 C708 1.350 . S
C705 C708 1.463 . S
C705 C710 1.350 . S
C705 N713 1.427 . S
C706 H697 0.930 . S
C706 C704 1.378 . S
C706 C707 1.367 . S
C707 C706 1.367 . S
C707 C709 1.433 . S
C708 C704 1.350 . S
C708 C705 1.463 . S
C708 N712 1.427 . S
C709 H699 0.929 . S
C709 C707 1.433 . S
C709 N712 1.384 . S
C710 H701 0.929 . S
C710 C702 1.378 . S
C710 C705 1.350 . S
C711 H698 0.929 . S
C711 C703 1.433 . S
C711 N713 1.384 . S
N712 C708 1.427 . S
N712 C709 1.384 . S
N713 C705 1.427 . S
N713 C711 1.384 . S
H714 C720 0.930 . S
H715 C724 0.930 . S
H716 C729 0.929 . S
H717 C727 0.929 . S
H718 C722 0.929 . S
H719 C728 0.929 . S
C720 H714 0.930 . S
C720 C721 1.367 . S
C720 C728 1.378 . S
C721 C720 1.367 . S
C721 C729 1.433 . S
C722 H718 0.929 . S
C722 C724 1.378 . S
C722 C726 1.350 . S
C723 C726 1.463 . S
C723 C728 1.350 . S
C723 N731 1.427 . S
C724 H715 0.930 . S
C724 C722 1.378 . S
C724 C725 1.367 . S
C725 C724 1.367 . S
C725 C727 1.433 . S
C726 C722 1.350 . S
C726 C723 1.463 . S
C726 N730 1.427 . S
C727 H717 0.929 . S
C727 C725 1.433 . S
C727 N730 1.384 . S
C728 H719 0.929 . S
C728 C720 1.378 . S
C728 C723 1.350 . S
C729 H716 0.929 . S
C729 C721 1.433 . S
C729 N731 1.384 . S
N730 C726 1.427 . S
N730 C727 1.384 . S
N731 C723 1.427 . S
N731 C729 1.384 . S
H732 C738 0.930 . S
H733 C742 0.930 . S
H734 C747 0.929 . S
H735 C745 0.929 . S
H736 C740 0.929 . S
H737 C746 0.929 . S
C738 H732 0.930 . S
C738 C739 1.367 . S
C738 C746 1.378 . S
C739 C738 1.367 . S
C739 C747 1.433 . S
C740 H736 0.929 . S
C740 C742 1.378 . S
C740 C744 1.350 . S
C741 C744 1.463 . S
C741 C746 1.350 . S
C741 N749 1.427 . S
C742 H733 0.930 . S
C742 C740 1.378 . S
C742 C743 1.367 . S
C743 C742 1.367 . S
C743 C745 1.433 . S
C744 C740 1.350 . S
C744 C741 1.463 . S
C744 N748 1.427 . S
C745 H735 0.929 . S
C745 C743 1.433 . S
C745 N748 1.384 . S
C746 H737 0.929 . S
C746 C738 1.378 . S
C746 C741 1.350 . S
C747 H734 0.929 . S
C747 C739 1.433 . S
C747 N749 1.384 . S
N748 C744 1.427 . S
N748 C745 1.384 . S
N749 C741 1.427 . S
N749 C747 1.384 . S
H750 C756 0.930 . S
H751 C760 0.930 . S
H752 C765 0.929 . S
H753 C763 0.929 . S
H754 C758 0.929 . S
H755 C764 0.929 . S
C756 H750 0.930 . S
C756 C757 1.367 . S
C756 C764 1.378 . S
C757 C756 1.367 . S
C757 C765 1.433 . S
C758 H754 0.929 . S
C758 C760 1.378 . S
C758 C762 1.350 . S
C759 C762 1.463 . S
C759 C764 1.350 . S
C759 N767 1.427 . S
C760 H751 0.930 . S
C760 C758 1.378 . S
C760 C761 1.367 . S
C761 C760 1.367 . S
C761 C763 1.433 . S
C762 C758 1.350 . S
C762 C759 1.463 . S
C762 N766 1.427 . S
C763 H753 0.929 . S
C763 C761 1.433 . S
C763 N766 1.384 . S
C764 H755 0.929 . S
C764 C756 1.378 . S
C764 C759 1.350 . S
C765 H752 0.929 . S
C765 C757 1.433 . S
C765 N767 1.384 . S
N766 C762 1.427 . S
N766 C763 1.384 . S
N767 C759 1.427 . S
N767 C765 1.384 . S
H768 C774 0.930 . S
H769 C778 0.930 . S
H770 C783 0.929 . S
H771 C781 0.929 . S
H772 C776 0.929 . S
H773 C782 0.929 . S
C774 H768 0.930 . S
C774 C775 1.367 . S
C774 C782 1.378 . S
C775 C774 1.367 . S
C775 C783 1.433 . S
C776 H772 0.929 . S
C776 C778 1.378 . S
C776 C780 1.350 . S
C777 C780 1.463 . S
C777 C782 1.350 . S
C777 N785 1.427 . S
C778 H769 0.930 . S
C778 C776 1.378 . S
C778 C779 1.367 . S
C779 C778 1.367 . S
C779 C781 1.433 . S
C780 C776 1.350 . S
C780 C777 1.463 . S
C780 N784 1.427 . S
C781 H771 0.929 . S
C781 C779 1.433 . S
C781 N784 1.384 . S
C782 H773 0.929 . S
C782 C774 1.378 . S
C782 C777 1.350 . S
C783 H770 0.929 . S
C783 C775 1.433 . S
C783 N785 1.384 . S
N784 C780 1.427 . S
N784 C781 1.384 . S
N785 C777 1.427 . S
N785 C783 1.384 . S
H786 C792 0.930 . S
H787 C796 0.930 . S
H788 C801 0.929 . S
H789 C799 0.929 . S
H790 C794 0.929 . S
H791 C800 0.929 . S
C792 H786 0.930 . S
C792 C793 1.367 . S
C792 C800 1.378 . S
C793 C792 1.367 . S
C793 C801 1.433 . S
C794 H790 0.929 . S
C794 C796 1.378 . S
C794 C798 1.350 . S
C795 C798 1.463 . S
C795 C800 1.350 . S
C795 N803 1.427 . S
C796 H787 0.930 . S
C796 C794 1.378 . S
C796 C797 1.367 . S
C797 C796 1.367 . S
C797 C799 1.433 . S
C798 C794 1.350 . S
C798 C795 1.463 . S
C798 N802 1.427 . S
C799 H789 0.929 . S
C799 C797 1.433 . S
C799 N802 1.384 . S
C800 H791 0.929 . S
C800 C792 1.378 . S
C800 C795 1.350 . S
C801 H788 0.929 . S
C801 C793 1.433 . S
C801 N803 1.384 . S
N802 C798 1.427 . S
N802 C799 1.384 . S
N803 C795 1.427 . S
N803 C801 1.384 . S
H804 C810 0.930 . S
H805 C814 0.930 . S
H806 C819 0.929 . S
H807 C817 0.929 . S
H808 C812 0.929 . S
H809 C818 0.929 . S
C810 H804 0.930 . S
C810 C811 1.367 . S
C810 C818 1.378 . S
C811 C810 1.367 . S
C811 C819 1.433 . S
C812 H808 0.929 . S
C812 C814 1.378 . S
C812 C816 1.350 . S
C813 C816 1.463 . S
C813 C818 1.350 . S
C813 N821 1.427 . S
C814 H805 0.930 . S
C814 C812 1.378 . S
C814 C815 1.367 . S
C815 C814 1.367 . S
C815 C817 1.433 . S
C816 C812 1.350 . S
C816 C813 1.463 . S
C816 N820 1.427 . S
C817 H807 0.929 . S
C817 C815 1.433 . S
C817 N820 1.384 . S
C818 H809 0.929 . S
C818 C810 1.378 . S
C818 C813 1.350 . S
C819 H806 0.929 . S
C819 C811 1.433 . S
C819 N821 1.384 . S
N820 C816 1.427 . S
N820 C817 1.384 . S
N821 C813 1.427 . S
N821 C819 1.384 . S
H822 C828 0.930 . S
H823 C832 0.930 . S
H824 C837 0.929 . S
H825 C835 0.929 . S
H826 C830 0.929 . S
H827 C836 0.929 . S
C828 H822 0.930 . S
C828 C829 1.367 . S
C828 C836 1.378 . S
C829 C828 1.367 . S
C829 C837 1.433 . S
C830 H826 0.929 . S
C830 C832 1.378 . S
C830 C834 1.350 . S
C831 C834 1.463 . S
C831 C836 1.350 . S
C831 N839 1.427 . S
C832 H823 0.930 . S
C832 C830 1.378 . S
C832 C833 1.367 . S
C833 C832 1.367 . S
C833 C835 1.433 . S
C834 C830 1.350 . S
C834 C831 1.463 . S
C834 N838 1.427 . S
C835 H825 0.929 . S
C835 C833 1.433 . S
C835 N838 1.384 . S
C836 H827 0.929 . S
C836 C828 1.378 . S
C836 C831 1.350 . S
C837 H824 0.929 . S
C837 C829 1.433 . S
C837 N839 1.384 . S
N838 C834 1.427 . S
N838 C835 1.384 . S
N839 C831 1.427 . S
N839 C837 1.384 . S
H840 C846 0.930 . S
H841 C850 0.930 . S
H842 C855 0.929 . S
H843 C853 0.929 . S
H844 C848 0.929 . S
H845 C854 0.929 . S
C846 H840 0.930 . S
C846 C847 1.367 . S
C846 C854 1.378 . S
C847 C846 1.367 . S
C847 C855 1.433 . S
C848 H844 0.929 . S
C848 C850 1.378 . S
C848 C852 1.350 . S
C849 C852 1.463 . S
C849 C854 1.350 . S
C849 N857 1.427 . S
C850 H841 0.930 . S
C850 C848 1.378 . S
C850 C851 1.367 . S
C851 C850 1.367 . S
C851 C853 1.433 . S
C852 C848 1.350 . S
C852 C849 1.463 . S
C852 N856 1.427 . S
C853 H843 0.929 . S
C853 C851 1.433 . S
C853 N856 1.384 . S
C854 H845 0.929 . S
C854 C846 1.378 . S
C854 C849 1.350 . S
C855 H842 0.929 . S
C855 C847 1.433 . S
C855 N857 1.384 . S
N856 C852 1.427 . S
N856 C853 1.384 . S
N857 C849 1.427 . S
N857 C855 1.384 . S
H858 C864 0.930 . S
H859 C868 0.930 . S
H860 C873 0.929 . S
H861 C871 0.929 . S
H862 C866 0.929 . S
H863 C872 0.929 . S
C864 H858 0.930 . S
C864 C865 1.367 . S
C864 C872 1.378 . S
C865 C864 1.367 . S
C865 C873 1.433 . S
C866 H862 0.929 . S
C866 C868 1.378 . S
C866 C870 1.350 . S
C867 C870 1.463 . S
C867 C872 1.350 . S
C867 N875 1.427 . S
C868 H859 0.930 . S
C868 C866 1.378 . S
C868 C869 1.367 . S
C869 C868 1.367 . S
C869 C871 1.433 . S
C870 C866 1.350 . S
C870 C867 1.463 . S
C870 N874 1.427 . S
C871 H861 0.929 . S
C871 C869 1.433 . S
C871 N874 1.384 . S
C872 H863 0.929 . S
C872 C864 1.378 . S
C872 C867 1.350 . S
C873 H860 0.929 . S
C873 C865 1.433 . S
C873 N875 1.384 . S
N874 C870 1.427 . S
N874 C871 1.384 . S
N875 C867 1.427 . S
N875 C873 1.384 . S
H876 C882 0.930 . S
H877 C886 0.930 . S
H878 C891 0.929 . S
H879 C889 0.929 . S
H880 C884 0.929 . S
H881 C890 0.929 . S
C882 H876 0.930 . S
C882 C883 1.367 . S
C882 C890 1.378 . S
C883 C882 1.367 . S
C883 C891 1.433 . S
C884 H880 0.929 . S
C884 C886 1.378 . S
C884 C888 1.350 . S
C885 C888 1.463 . S
C885 C890 1.350 . S
C885 N893 1.427 . S
C886 H877 0.930 . S
C886 C884 1.378 . S
C886 C887 1.367 . S
C887 C886 1.367 . S
C887 C889 1.433 . S
C888 C884 1.350 . S
C888 C885 1.463 . S
C888 N892 1.427 . S
C889 H879 0.929 . S
C889 C887 1.433 . S
C889 N892 1.384 . S
C890 H881 0.929 . S
C890 C882 1.378 . S
C890 C885 1.350 . S
C891 H878 0.929 . S
C891 C883 1.433 . S
C891 N893 1.384 . S
N892 C888 1.427 . S
N892 C889 1.384 . S
N893 C885 1.427 . S
N893 C891 1.384 . S
H894 C900 0.930 . S
H895 C904 0.930 . S
H896 C909 0.929 . S
H897 C907 0.929 . S
H898 C902 0.929 . S
H899 C908 0.929 . S
C900 H894 0.930 . S
C900 C901 1.367 . S
C900 C908 1.378 . S
C901 C900 1.367 . S
C901 C909 1.433 . S
C902 H898 0.929 . S
C902 C904 1.378 . S
C902 C906 1.350 . S
C903 C906 1.463 . S
C903 C908 1.350 . S
C903 N911 1.427 . S
C904 H895 0.930 . S
C904 C902 1.378 . S
C904 C905 1.367 . S
C905 C904 1.367 . S
C905 C907 1.433 . S
C906 C902 1.350 . S
C906 C903 1.463 . S
C906 N910 1.427 . S
C907 H897 0.929 . S
C907 C905 1.433 . S
C907 N910 1.384 . S
C908 H899 0.929 . S
C908 C900 1.378 . S
C908 C903 1.350 . S
C909 H896 0.929 . S
C909 C901 1.433 . S
C909 N911 1.384 . S
N910 C906 1.427 . S
N910 C907 1.384 . S
N911 C903 1.427 . S
N911 C909 1.384 . S
H912 C918 0.930 . S
H913 C922 0.930 . S
H914 C927 0.929 . S
H915 C925 0.929 . S
H916 C920 0.929 . S
H917 C926 0.929 . S
C918 H912 0.930 . S
C918 C919 1.367 . S
C918 C926 1.378 . S
C919 C918 1.367 . S
C919 C927 1.433 . S
C920 H916 0.929 . S
C920 C922 1.378 . S
C920 C924 1.350 . S
C921 C924 1.463 . S
C921 C926 1.350 . S
C921 N929 1.427 . S
C922 H913 0.930 . S
C922 C920 1.378 . S
C922 C923 1.367 . S
C923 C922 1.367 . S
C923 C925 1.433 . S
C924 C920 1.350 . S
C924 C921 1.463 . S
C924 N928 1.427 . S
C925 H915 0.929 . S
C925 C923 1.433 . S
C925 N928 1.384 . S
C926 H917 0.929 . S
C926 C918 1.378 . S
C926 C921 1.350 . S
C927 H914 0.929 . S
C927 C919 1.433 . S
C927 N929 1.384 . S
N928 C924 1.427 . S
N928 C925 1.384 . S
N929 C921 1.427 . S
N929 C927 1.384 . S
H930 C936 0.930 . S
H931 C940 0.930 . S
H932 C945 0.929 . S
H933 C943 0.929 . S
H934 C938 0.929 . S
H935 C944 0.929 . S
C936 H930 0.930 . S
C936 C937 1.367 . S
C936 C944 1.378 . S
C937 C936 1.367 . S
C937 C945 1.433 . S
C938 H934 0.929 . S
C938 C940 1.378 . S
C938 C942 1.350 . S
C939 C942 1.463 . S
C939 C944 1.350 . S
C939 N947 1.427 . S
C940 H931 0.930 . S
C940 C938 1.378 . S
C940 C941 1.367 . S
C941 C940 1.367 . S
C941 C943 1.433 . S
C942 C938 1.350 . S
C942 C939 1.463 . S
C942 N946 1.427 . S
C943 H933 0.929 . S
C943 C941 1.433 . S
C943 N946 1.384 . S
C944 H935 0.929 . S
C944 C936 1.378 . S
C944 C939 1.350 . S
C945 H932 0.929 . S
C945 C937 1.433 . S
C945 N947 1.384 . S
N946 C942 1.427 . S
N946 C943 1.384 . S
N947 C939 1.427 . S
N947 C945 1.384 . S
H948 C954 0.930 . S
H949 C958 0.930 . S
H950 C963 0.929 . S
H951 C961 0.929 . S
H952 C956 0.929 . S
H953 C962 0.929 . S
C954 H948 0.930 . S
C954 C955 1.367 . S
C954 C962 1.378 . S
C955 C954 1.367 . S
C955 C963 1.433 . S
C956 H952 0.929 . S
C956 C958 1.378 . S
C956 C960 1.350 . S
C957 C960 1.463 . S
C957 C962 1.350 . S
C957 N965 1.427 . S
C958 H949 0.930 . S
C958 C956 1.378 . S
C958 C959 1.367 . S
C959 C958 1.367 . S
C959 C961 1.433 . S
C960 C956 1.350 . S
C960 C957 1.463 . S
C960 N964 1.427 . S
C961 H951 0.929 . S
C961 C959 1.433 . S
C961 N964 1.384 . S
C962 H953 0.929 . S
C962 C954 1.378 . S
C962 C957 1.350 . S
C963 H950 0.929 . S
C963 C955 1.433 . S
C963 N965 1.384 . S
N964 C960 1.427 . S
N964 C961 1.384 . S
N965 C957 1.427 . S
N965 C963 1.384 . S
H966 C972 0.930 . S
H967 C976 0.930 . S
H968 C981 0.929 . S
H969 C979 0.929 . S
H970 C974 0.929 . S
H971 C980 0.929 . S
C972 H966 0.930 . S
C972 C973 1.367 . S
C972 C980 1.378 . S
C973 C972 1.367 . S
C973 C981 1.433 . S
C974 H970 0.929 . S
C974 C976 1.378 . S
C974 C978 1.350 . S
C975 C978 1.463 . S
C975 C980 1.350 . S
C975 N983 1.427 . S
C976 H967 0.930 . S
C976 C974 1.378 . S
C976 C977 1.367 . S
C977 C976 1.367 . S
C977 C979 1.433 . S
C978 C974 1.350 . S
C978 C975 1.463 . S
C978 N982 1.427 . S
C979 H969 0.929 . S
C979 C977 1.433 . S
C979 N982 1.384 . S
C980 H971 0.929 . S
C980 C972 1.378 . S
C980 C975 1.350 . S
C981 H968 0.929 . S
C981 C973 1.433 . S
C981 N983 1.384 . S
N982 C978 1.427 . S
N982 C979 1.384 . S
N983 C975 1.427 . S
N983 C981 1.384 . S
H984 C990 0.930 . S
H985 C994 0.930 . S
H986 C999 0.929 . S
H987 C997 0.929 . S
H988 C992 0.929 . S
H989 C998 0.929 . S
C990 H984 0.930 . S
C990 C991 1.367 . S
C990 C998 1.378 . S
C991 C990 1.367 . S
C991 C999 1.433 . S
C992 H988 0.929 . S
C992 C994 1.378 . S
C992 C996 1.350 . S
C993 C996 1.463 . S
C993 C998 1.350 . S
C993 N1001 1.427 . S
C994 H985 0.930 . S
C994 C992 1.378 . S
C994 C995 1.367 . S
C995 C994 1.367 . S
C995 C997 1.433 . S
C996 C992 1.350 . S
C996 C993 1.463 . S
C996 N1000 1.427 . S
C997 H987 0.929 . S
C997 C995 1.433 . S
C997 N1000 1.384 . S
C998 H989 0.929 . S
C998 C990 1.378 . S
C998 C993 1.350 . S
C999 H986 0.929 . S
C999 C991 1.433 . S
C999 N1001 1.384 . S
N1000 C996 1.427 . S
N1000 C997 1.384 . S
N1001 C993 1.427 . S
N1001 C999 1.384 . S
H1002 C1008 0.930 . S
H1003 C1012 0.930 . S
H1004 C1017 0.929 . S
H1005 C1015 0.929 . S
H1006 C1010 0.929 . S
H1007 C1016 0.929 . S
C1008 H1002 0.930 . S
C1008 C1009 1.367 . S
C1008 C1016 1.378 . S
C1009 C1008 1.367 . S
C1009 C1017 1.433 . S
C1010 H1006 0.929 . S
C1010 C1012 1.378 . S
C1010 C1014 1.350 . S
C1011 C1014 1.463 . S
C1011 C1016 1.350 . S
C1011 N1019 1.427 . S
C1012 H1003 0.930 . S
C1012 C1010 1.378 . S
C1012 C1013 1.367 . S
C1013 C1012 1.367 . S
C1013 C1015 1.433 . S
C1014 C1010 1.350 . S
C1014 C1011 1.463 . S
C1014 N1018 1.427 . S
C1015 H1005 0.929 . S
C1015 C1013 1.433 . S
C1015 N1018 1.384 . S
C1016 H1007 0.929 . S
C1016 C1008 1.378 . S
C1016 C1011 1.350 . S
C1017 H1004 0.929 . S
C1017 C1009 1.433 . S
C1017 N1019 1.384 . S
N1018 C1014 1.427 . S
N1018 C1015 1.384 . S
N1019 C1011 1.427 . S
N1019 C1017 1.384 . S
H1020 C1026 0.930 . S
H1021 C1030 0.930 . S
H1022 C1035 0.929 . S
H1023 C1033 0.929 . S
H1024 C1028 0.929 . S
H1025 C1034 0.929 . S
C1026 H1020 0.930 . S
C1026 C1027 1.367 . S
C1026 C1034 1.378 . S
C1027 C1026 1.367 . S
C1027 C1035 1.433 . S
C1028 H1024 0.929 . S
C1028 C1030 1.378 . S
C1028 C1032 1.350 . S
C1029 C1032 1.463 . S
C1029 C1034 1.350 . S
C1029 N1037 1.427 . S
C1030 H1021 0.930 . S
C1030 C1028 1.378 . S
C1030 C1031 1.367 . S
C1031 C1030 1.367 . S
C1031 C1033 1.433 . S
C1032 C1028 1.350 . S
C1032 C1029 1.463 . S
C1032 N1036 1.427 . S
C1033 H1023 0.929 . S
C1033 C1031 1.433 . S
C1033 N1036 1.384 . S
C1034 H1025 0.929 . S
C1034 C1026 1.378 . S
C1034 C1029 1.350 . S
C1035 H1022 0.929 . S
C1035 C1027 1.433 . S
C1035 N1037 1.384 . S
N1036 C1032 1.427 . S
N1036 C1033 1.384 . S
N1037 C1029 1.427 . S
N1037 C1035 1.384 . S
H1038 C1044 0.930 . S
H1039 C1048 0.930 . S
H1040 C1053 0.929 . S
H1041 C1051 0.929 . S
H1042 C1046 0.929 . S
H1043 C1052 0.929 . S
C1044 H1038 0.930 . S
C1044 C1045 1.367 . S
C1044 C1052 1.378 . S
C1045 C1044 1.367 . S
C1045 C1053 1.433 . S
C1046 H1042 0.929 . S
C1046 C1048 1.378 . S
C1046 C1050 1.350 . S
C1047 C1050 1.463 . S
C1047 C1052 1.350 . S
C1047 N1055 1.427 . S
C1048 H1039 0.930 . S
C1048 C1046 1.378 . S
C1048 C1049 1.367 . S
C1049 C1048 1.367 . S
C1049 C1051 1.433 . S
C1050 C1046 1.350 . S
C1050 C1047 1.463 . S
C1050 N1054 1.427 . S
C1051 H1041 0.929 . S
C1051 C1049 1.433 . S
C1051 N1054 1.384 . S
C1052 H1043 0.929 . S
C1052 C1044 1.378 . S
C1052 C1047 1.350 . S
C1053 H1040 0.929 . S
C1053 C1045 1.433 . S
C1053 N1055 1.384 . S
N1054 C1050 1.427 . S
N1054 C1051 1.384 . S
N1055 C1047 1.427 . S
N1055 C1053 1.384 . S
H1056 C1062 0.930 . S
H1057 C1066 0.930 . S
H1058 C1071 0.929 . S
H1059 C1069 0.929 . S
H1060 C1064 0.929 . S
H1061 C1070 0.929 . S
C1062 H1056 0.930 . S
C1062 C1063 1.367 . S
C1062 C1070 1.378 . S
C1063 C1062 1.367 . S
C1063 C1071 1.433 . S
C1064 H1060 0.929 . S
C1064 C1066 1.378 . S
C1064 C1068 1.350 . S
C1065 C1068 1.463 . S
C1065 C1070 1.350 . S
C1065 N1073 1.427 . S
C1066 H1057 0.930 . S
C1066 C1064 1.378 . S
C1066 C1067 1.367 . S
C1067 C1066 1.367 . S
C1067 C1069 1.433 . S
C1068 C1064 1.350 . S
C1068 C1065 1.463 . S
C1068 N1072 1.427 . S
C1069 H1059 0.929 . S
C1069 C1067 1.433 . S
C1069 N1072 1.384 . S
C1070 H1061 0.929 . S
C1070 C1062 1.378 . S
C1070 C1065 1.350 . S
C1071 H1058 0.929 . S
C1071 C1063 1.433 . S
C1071 N1073 1.384 . S
N1072 C1068 1.427 . S
N1072 C1069 1.384 . S
N1073 C1065 1.427 . S
N1073 C1071 1.384 . S
H1074 C1080 0.930 . S
H1075 C1084 0.930 . S
H1076 C1089 0.929 . S
H1077 C1087 0.929 . S
H1078 C1082 0.929 . S
H1079 C1088 0.929 . S
C1080 H1074 0.930 . S
C1080 C1081 1.367 . S
C1080 C1088 1.378 . S
C1081 C1080 1.367 . S
C1081 C1089 1.433 . S
C1082 H1078 0.929 . S
C1082 C1084 1.378 . S
C1082 C1086 1.350 . S
C1083 C1086 1.463 . S
C1083 C1088 1.350 . S
C1083 N1091 1.427 . S
C1084 H1075 0.930 . S
C1084 C1082 1.378 . S
C1084 C1085 1.367 . S
C1085 C1084 1.367 . S
C1085 C1087 1.433 . S
C1086 C1082 1.350 . S
C1086 C1083 1.463 . S
C1086 N1090 1.427 . S
C1087 H1077 0.929 . S
C1087 C1085 1.433 . S
C1087 N1090 1.384 . S
C1088 H1079 0.929 . S
C1088 C1080 1.378 . S
C1088 C1083 1.350 . S
C1089 H1076 0.929 . S
C1089 C1081 1.433 . S
C1089 N1091 1.384 . S
N1090 C1086 1.427 . S
N1090 C1087 1.384 . S
N1091 C1083 1.427 . S
N1091 C1089 1.384 . S
H1092 C1098 0.930 . S
H1093 C1102 0.930 . S
H1094 C1107 0.929 . S
H1095 C1105 0.929 . S
H1096 C1100 0.929 . S
H1097 C1106 0.929 . S
C1098 H1092 0.930 . S
C1098 C1099 1.367 . S
C1098 C1106 1.378 . S
C1099 C1098 1.367 . S
C1099 C1107 1.433 . S
C1100 H1096 0.929 . S
C1100 C1102 1.378 . S
C1100 C1104 1.350 . S
C1101 C1104 1.463 . S
C1101 C1106 1.350 . S
C1101 N1109 1.427 . S
C1102 H1093 0.930 . S
C1102 C1100 1.378 . S
C1102 C1103 1.367 . S
C1103 C1102 1.367 . S
C1103 C1105 1.433 . S
C1104 C1100 1.350 . S
C1104 C1101 1.463 . S
C1104 N1108 1.427 . S
C1105 H1095 0.929 . S
C1105 C1103 1.433 . S
C1105 N1108 1.384 . S
C1106 H1097 0.929 . S
C1106 C1098 1.378 . S
C1106 C1101 1.350 . S
C1107 H1094 0.929 . S
C1107 C1099 1.433 . S
C1107 N1109 1.384 . S
N1108 C1104 1.427 . S
N1108 C1105 1.384 . S
N1109 C1101 1.427 . S
N1109 C1107 1.384 . S
H1110 C1116 0.930 . S
H1111 C1120 0.930 . S
H1112 C1125 0.929 . S
H1113 C1123 0.929 . S
H1114 C1118 0.929 . S
H1115 C1124 0.929 . S
C1116 H1110 0.930 . S
C1116 C1117 1.367 . S
C1116 C1124 1.378 . S
C1117 C1116 1.367 . S
C1117 C1125 1.433 . S
C1118 H1114 0.929 . S
C1118 C1120 1.378 . S
C1118 C1122 1.350 . S
C1119 C1122 1.463 . S
C1119 C1124 1.350 . S
C1119 N1127 1.427 . S
C1120 H1111 0.930 . S
C1120 C1118 1.378 . S
C1120 C1121 1.367 . S
C1121 C1120 1.367 . S
C1121 C1123 1.433 . S
C1122 C1118 1.350 . S
C1122 C1119 1.463 . S
C1122 N1126 1.427 . S
C1123 H1113 0.929 . S
C1123 C1121 1.433 . S
C1123 N1126 1.384 . S
C1124 H1115 0.929 . S
C1124 C1116 1.378 . S
C1124 C1119 1.350 . S
C1125 H1112 0.929 . S
C1125 C1117 1.433 . S
C1125 N1127 1.384 . S
N1126 C1122 1.427 . S
N1126 C1123 1.384 . S
N1127 C1119 1.427 . S
N1127 C1125 1.384 . S
H1128 C1134 0.930 . S
H1129 C1138 0.930 . S
H1130 C1143 0.929 . S
H1131 C1141 0.929 . S
H1132 C1136 0.929 . S
H1133 C1142 0.929 . S
C1134 H1128 0.930 . S
C1134 C1135 1.367 . S
C1134 C1142 1.378 . S
C1135 C1134 1.367 . S
C1135 C1143 1.433 . S
C1136 H1132 0.929 . S
C1136 C1138 1.378 . S
C1136 C1140 1.350 . S
C1137 C1140 1.463 . S
C1137 C1142 1.350 . S
C1137 N1145 1.427 . S
C1138 H1129 0.930 . S
C1138 C1136 1.378 . S
C1138 C1139 1.367 . S
C1139 C1138 1.367 . S
C1139 C1141 1.433 . S
C1140 C1136 1.350 . S
C1140 C1137 1.463 . S
C1140 N1144 1.427 . S
C1141 H1131 0.929 . S
C1141 C1139 1.433 . S
C1141 N1144 1.384 . S
C1142 H1133 0.929 . S
C1142 C1134 1.378 . S
C1142 C1137 1.350 . S
C1143 H1130 0.929 . S
C1143 C1135 1.433 . S
C1143 N1145 1.384 . S
N1144 C1140 1.427 . S
N1144 C1141 1.384 . S
N1145 C1137 1.427 . S
N1145 C1143 1.384 . S
H1146 C1152 0.930 . S
H1147 C1156 0.930 . S
H1148 C1161 0.929 . S
H1149 C1159 0.929 . S
H1150 C1154 0.929 . S
H1151 C1160 0.929 . S
C1152 H1146 0.930 . S
C1152 C1153 1.367 . S
C1152 C1160 1.378 . S
C1153 C1152 1.367 . S
C1153 C1161 1.433 . S
C1154 H1150 0.929 . S
C1154 C1156 1.378 . S
C1154 C1158 1.350 . S
C1155 C1158 1.463 . S
C1155 C1160 1.350 . S
C1155 N1163 1.427 . S
C1156 H1147 0.930 . S
C1156 C1154 1.378 . S
C1156 C1157 1.367 . S
C1157 C1156 1.367 . S
C1157 C1159 1.433 . S
C1158 C1154 1.350 . S
C1158 C1155 1.463 . S
C1158 N1162 1.427 . S
C1159 H1149 0.929 . S
C1159 C1157 1.433 . S
C1159 N1162 1.384 . S
C1160 H1151 0.929 . S
C1160 C1152 1.378 . S
C1160 C1155 1.350 . S
C1161 H1148 0.929 . S
C1161 C1153 1.433 . S
C1161 N1163 1.384 . S
N1162 C1158 1.427 . S
N1162 C1159 1.384 . S
N1163 C1155 1.427 . S
N1163 C1161 1.384 . S
H1164 C1170 0.930 . S
H1165 C1174 0.930 . S
H1166 C1179 0.929 . S
H1167 C1177 0.929 . S
H1168 C1172 0.929 . S
H1169 C1178 0.929 . S
C1170 H1164 0.930 . S
C1170 C1171 1.367 . S
C1170 C1178 1.378 . S
C1171 C1170 1.367 . S
C1171 C1179 1.433 . S
C1172 H1168 0.929 . S
C1172 C1174 1.378 . S
C1172 C1176 1.350 . S
C1173 C1176 1.463 . S
C1173 C1178 1.350 . S
C1173 N1181 1.427 . S
C1174 H1165 0.930 . S
C1174 C1172 1.378 . S
C1174 C1175 1.367 . S
C1175 C1174 1.367 . S
C1175 C1177 1.433 . S
C1176 C1172 1.350 . S
C1176 C1173 1.463 . S
C1176 N1180 1.427 . S
C1177 H1167 0.929 . S
C1177 C1175 1.433 . S
C1177 N1180 1.384 . S
C1178 H1169 0.929 . S
C1178 C1170 1.378 . S
C1178 C1173 1.350 . S
C1179 H1166 0.929 . S
C1179 C1171 1.433 . S
C1179 N1181 1.384 . S
N1180 C1176 1.427 . S
N1180 C1177 1.384 . S
N1181 C1173 1.427 . S
N1181 C1179 1.384 . S
H1182 C1188 0.930 . S
H1183 C1192 0.930 . S
H1184 C1197 0.929 . S
H1185 C1195 0.929 . S
H1186 C1190 0.929 . S
H1187 C1196 0.929 . S
C1188 H1182 0.930 . S
C1188 C1189 1.367 . S
C1188 C1196 1.378 . S
C1189 C1188 1.367 . S
C1189 C1197 1.433 . S
C1190 H1186 0.929 . S
C1190 C1192 1.378 . S
C1190 C1194 1.350 . S
C1191 C1194 1.463 . S
C1191 C1196 1.350 . S
C1191 N1199 1.427 . S
C1192 H1183 0.930 . S
C1192 C1190 1.378 . S
C1192 C1193 1.367 . S
C1193 C1192 1.367 . S
C1193 C1195 1.433 . S
C1194 C1190 1.350 . S
C1194 C1191 1.463 . S
C1194 N1198 1.427 . S
C1195 H1185 0.929 . S
C1195 C1193 1.433 . S
C1195 N1198 1.384 . S
C1196 H1187 0.929 . S
C1196 C1188 1.378 . S
C1196 C1191 1.350 . S
C1197 H1184 0.929 . S
C1197 C1189 1.433 . S
C1197 N1199 1.384 . S
N1198 C1194 1.427 . S
N1198 C1195 1.384 . S
N1199 C1191 1.427 . S
N1199 C1197 1.384 . S
H1200 C1206 0.930 . S
H1201 C1210 0.930 . S
H1202 C1215 0.929 . S
H1203 C1213 0.929 . S
H1204 C1208 0.929 . S
H1205 C1214 0.929 . S
C1206 H1200 0.930 . S
C1206 C1207 1.367 . S
C1206 C1214 1.378 . S
C1207 C1206 1.367 . S
C1207 C1215 1.433 . S
C1208 H1204 0.929 . S
C1208 C1210 1.378 . S
C1208 C1212 1.350 . S
C1209 C1212 1.463 . S
C1209 C1214 1.350 . S
C1209 N1217 1.427 . S
C1210 H1201 0.930 . S
C1210 C1208 1.378 . S
C1210 C1211 1.367 . S
C1211 C1210 1.367 . S
C1211 C1213 1.433 . S
C1212 C1208 1.350 . S
C1212 C1209 1.463 . S
C1212 N1216 1.427 . S
C1213 H1203 0.929 . S
C1213 C1211 1.433 . S
C1213 N1216 1.384 . S
C1214 H1205 0.929 . S
C1214 C1206 1.378 . S
C1214 C1209 1.350 . S
C1215 H1202 0.929 . S
C1215 C1207 1.433 . S
C1215 N1217 1.384 . S
N1216 C1212 1.427 . S
N1216 C1213 1.384 . S
N1217 C1209 1.427 . S
N1217 C1215 1.384 . S
H1218 C1224 0.930 . S
H1219 C1228 0.930 . S
H1220 C1233 0.929 . S
H1221 C1231 0.929 . S
H1222 C1226 0.929 . S
H1223 C1232 0.929 . S
C1224 H1218 0.930 . S
C1224 C1225 1.367 . S
C1224 C1232 1.378 . S
C1225 C1224 1.367 . S
C1225 C1233 1.433 . S
C1226 H1222 0.929 . S
C1226 C1228 1.378 . S
C1226 C1230 1.350 . S
C1227 C1230 1.463 . S
C1227 C1232 1.350 . S
C1227 N1235 1.427 . S
C1228 H1219 0.930 . S
C1228 C1226 1.378 . S
C1228 C1229 1.367 . S
C1229 C1228 1.367 . S
C1229 C1231 1.433 . S
C1230 C1226 1.350 . S
C1230 C1227 1.463 . S
C1230 N1234 1.427 . S
C1231 H1221 0.929 . S
C1231 C1229 1.433 . S
C1231 N1234 1.384 . S
C1232 H1223 0.929 . S
C1232 C1224 1.378 . S
C1232 C1227 1.350 . S
C1233 H1220 0.929 . S
C1233 C1225 1.433 . S
C1233 N1235 1.384 . S
N1234 C1230 1.427 . S
N1234 C1231 1.384 . S
N1235 C1227 1.427 . S
N1235 C1233 1.384 . S
H1236 C1242 0.930 . S
H1237 C1246 0.930 . S
H1238 C1251 0.929 . S
H1239 C1249 0.929 . S
H1240 C1244 0.929 . S
H1241 C1250 0.929 . S
C1242 H1236 0.930 . S
C1242 C1243 1.367 . S
C1242 C1250 1.378 . S
C1243 C1242 1.367 . S
C1243 C1251 1.433 . S
C1244 H1240 0.929 . S
C1244 C1246 1.378 . S
C1244 C1248 1.350 . S
C1245 C1248 1.463 . S
C1245 C1250 1.350 . S
C1245 N1253 1.427 . S
C1246 H1237 0.930 . S
C1246 C1244 1.378 . S
C1246 C1247 1.367 . S
C1247 C1246 1.367 . S
C1247 C1249 1.433 . S
C1248 C1244 1.350 . S
C1248 C1245 1.463 . S
C1248 N1252 1.427 . S
C1249 H1239 0.929 . S
C1249 C1247 1.433 . S
C1249 N1252 1.384 . S
C1250 H1241 0.929 . S
C1250 C1242 1.378 . S
C1250 C1245 1.350 . S
C1251 H1238 0.929 . S
C1251 C1243 1.433 . S
C1251 N1253 1.384 . S
N1252 C1248 1.427 . S
N1252 C1249 1.384 . S
N1253 C1245 1.427 . S
N1253 C1251 1.384 . S
H1254 C1260 0.930 . S
H1255 C1264 0.930 . S
H1256 C1269 0.929 . S
H1257 C1267 0.929 . S
H1258 C1262 0.929 . S
H1259 C1268 0.929 . S
C1260 H1254 0.930 . S
C1260 C1261 1.367 . S
C1260 C1268 1.378 . S
C1261 C1260 1.367 . S
C1261 C1269 1.433 . S
C1262 H1258 0.929 . S
C1262 C1264 1.378 . S
C1262 C1266 1.350 . S
C1263 C1266 1.463 . S
C1263 C1268 1.350 . S
C1263 N1271 1.427 . S
C1264 H1255 0.930 . S
C1264 C1262 1.378 . S
C1264 C1265 1.367 . S
C1265 C1264 1.367 . S
C1265 C1267 1.433 . S
C1266 C1262 1.350 . S
C1266 C1263 1.463 . S
C1266 N1270 1.427 . S
C1267 H1257 0.929 . S
C1267 C1265 1.433 . S
C1267 N1270 1.384 . S
C1268 H1259 0.929 . S
C1268 C1260 1.378 . S
C1268 C1263 1.350 . S
C1269 H1256 0.929 . S
C1269 C1261 1.433 . S
C1269 N1271 1.384 . S
N1270 C1266 1.427 . S
N1270 C1267 1.384 . S
N1271 C1263 1.427 . S
N1271 C1269 1.384 . S
H1272 C1278 0.930 . S
H1273 C1282 0.930 . S
H1274 C1287 0.929 . S
H1275 C1285 0.929 . S
H1276 C1280 0.929 . S
H1277 C1286 0.929 . S
C1278 H1272 0.930 . S
C1278 C1279 1.367 . S
C1278 C1286 1.378 . S
C1279 C1278 1.367 . S
C1279 C1287 1.433 . S
C1280 H1276 0.929 . S
C1280 C1282 1.378 . S
C1280 C1284 1.350 . S
C1281 C1284 1.463 . S
C1281 C1286 1.350 . S
C1281 N1289 1.427 . S
C1282 H1273 0.930 . S
C1282 C1280 1.378 . S
C1282 C1283 1.367 . S
C1283 C1282 1.367 . S
C1283 C1285 1.433 . S
C1284 C1280 1.350 . S
C1284 C1281 1.463 . S
C1284 N1288 1.427 . S
C1285 H1275 0.929 . S
C1285 C1283 1.433 . S
C1285 N1288 1.384 . S
C1286 H1277 0.929 . S
C1286 C1278 1.378 . S
C1286 C1281 1.350 . S
C1287 H1274 0.929 . S
C1287 C1279 1.433 . S
C1287 N1289 1.384 . S
N1288 C1284 1.427 . S
N1288 C1285 1.384 . S
N1289 C1281 1.427 . S
N1289 C1287 1.384 . S
H1290 C1296 0.930 . S
H1291 C1300 0.930 . S
H1292 C1305 0.929 . S
H1293 C1303 0.929 . S
H1294 C1298 0.929 . S
H1295 C1304 0.929 . S
C1296 H1290 0.930 . S
C1296 C1297 1.367 . S
C1296 C1304 1.378 . S
C1297 C1296 1.367 . S
C1297 C1305 1.433 . S
C1298 H1294 0.929 . S
C1298 C1300 1.378 . S
C1298 C1302 1.350 . S
C1299 C1302 1.463 . S
C1299 C1304 1.350 . S
C1299 N1307 1.427 . S
C1300 H1291 0.930 . S
C1300 C1298 1.378 . S
C1300 C1301 1.367 . S
C1301 C1300 1.367 . S
C1301 C1303 1.433 . S
C1302 C1298 1.350 . S
C1302 C1299 1.463 . S
C1302 N1306 1.427 . S
C1303 H1293 0.929 . S
C1303 C1301 1.433 . S
C1303 N1306 1.384 . S
C1304 H1295 0.929 . S
C1304 C1296 1.378 . S
C1304 C1299 1.350 . S
C1305 H1292 0.929 . S
C1305 C1297 1.433 . S
C1305 N1307 1.384 . S
N1306 C1302 1.427 . S
N1306 C1303 1.384 . S
N1307 C1299 1.427 . S
N1307 C1305 1.384 . S
H1308 C1314 0.930 . S
H1309 C1318 0.930 . S
H1310 C1323 0.929 . S
H1311 C1321 0.929 . S
H1312 C1316 0.929 . S
H1313 C1322 0.929 . S
C1314 H1308 0.930 . S
C1314 C1315 1.367 . S
C1314 C1322 1.378 . S
C1315 C1314 1.367 . S
C1315 C1323 1.433 . S
C1316 H1312 0.929 . S
C1316 C1318 1.378 . S
C1316 C1320 1.350 . S
C1317 C1320 1.463 . S
C1317 C1322 1.350 . S
C1317 N1325 1.427 . S
C1318 H1309 0.930 . S
C1318 C1316 1.378 . S
C1318 C1319 1.367 . S
C1319 C1318 1.367 . S
C1319 C1321 1.433 . S
C1320 C1316 1.350 . S
C1320 C1317 1.463 . S
C1320 N1324 1.427 . S
C1321 H1311 0.929 . S
C1321 C1319 1.433 . S
C1321 N1324 1.384 . S
C1322 H1313 0.929 . S
C1322 C1314 1.378 . S
C1322 C1317 1.350 . S
C1323 H1310 0.929 . S
C1323 C1315 1.433 . S
C1323 N1325 1.384 . S
N1324 C1320 1.427 . S
N1324 C1321 1.384 . S
N1325 C1317 1.427 . S
N1325 C1323 1.384 . S
H1326 C1332 0.930 . S
H1327 C1336 0.930 . S
H1328 C1341 0.929 . S
H1329 C1339 0.929 . S
H1330 C1334 0.929 . S
H1331 C1340 0.929 . S
C1332 H1326 0.930 . S
C1332 C1333 1.367 . S
C1332 C1340 1.378 . S
C1333 C1332 1.367 . S
C1333 C1341 1.433 . S
C1334 H1330 0.929 . S
C1334 C1336 1.378 . S
C1334 C1338 1.350 . S
C1335 C1338 1.463 . S
C1335 C1340 1.350 . S
C1335 N1343 1.427 . S
C1336 H1327 0.930 . S
C1336 C1334 1.378 . S
C1336 C1337 1.367 . S
C1337 C1336 1.367 . S
C1337 C1339 1.433 . S
C1338 C1334 1.350 . S
C1338 C1335 1.463 . S
C1338 N1342 1.427 . S
C1339 H1329 0.929 . S
C1339 C1337 1.433 . S
C1339 N1342 1.384 . S
C1340 H1331 0.929 . S
C1340 C1332 1.378 . S
C1340 C1335 1.350 . S
C1341 H1328 0.929 . S
C1341 C1333 1.433 . S
C1341 N1343 1.384 . S
N1342 C1338 1.427 . S
N1342 C1339 1.384 . S
N1343 C1335 1.427 . S
N1343 C1341 1.384 . S
H1344 C1350 0.930 . S
H1345 C1354 0.930 . S
H1346 C1359 0.929 . S
H1347 C1357 0.929 . S
H1348 C1352 0.929 . S
H1349 C1358 0.929 . S
C1350 H1344 0.930 . S
C1350 C1351 1.367 . S
C1350 C1358 1.378 . S
C1351 C1350 1.367 . S
C1351 C1359 1.433 . S
C1352 H1348 0.929 . S
C1352 C1354 1.378 . S
C1352 C1356 1.350 . S
C1353 C1356 1.463 . S
C1353 C1358 1.350 . S
C1353 N1361 1.427 . S
C1354 H1345 0.930 . S
C1354 C1352 1.378 . S
C1354 C1355 1.367 . S
C1355 C1354 1.367 . S
C1355 C1357 1.433 . S
C1356 C1352 1.350 . S
C1356 C1353 1.463 . S
C1356 N1360 1.427 . S
C1357 H1347 0.929 . S
C1357 C1355 1.433 . S
C1357 N1360 1.384 . S
C1358 H1349 0.929 . S
C1358 C1350 1.378 . S
C1358 C1353 1.350 . S
C1359 H1346 0.929 . S
C1359 C1351 1.433 . S
C1359 N1361 1.384 . S
N1360 C1356 1.427 . S
N1360 C1357 1.384 . S
N1361 C1353 1.427 . S
N1361 C1359 1.384 . S
H1362 C1368 0.930 . S
H1363 C1372 0.930 . S
H1364 C1377 0.929 . S
H1365 C1375 0.929 . S
H1366 C1370 0.929 . S
H1367 C1376 0.929 . S
C1368 H1362 0.930 . S
C1368 C1369 1.367 . S
C1368 C1376 1.378 . S
C1369 C1368 1.367 . S
C1369 C1377 1.433 . S
C1370 H1366 0.929 . S
C1370 C1372 1.378 . S
C1370 C1374 1.350 . S
C1371 C1374 1.463 . S
C1371 C1376 1.350 . S
C1371 N1379 1.427 . S
C1372 H1363 0.930 . S
C1372 C1370 1.378 . S
C1372 C1373 1.367 . S
C1373 C1372 1.367 . S
C1373 C1375 1.433 . S
C1374 C1370 1.350 . S
C1374 C1371 1.463 . S
C1374 N1378 1.427 . S
C1375 H1365 0.929 . S
C1375 C1373 1.433 . S
C1375 N1378 1.384 . S
C1376 H1367 0.929 . S
C1376 C1368 1.378 . S
C1376 C1371 1.350 . S
C1377 H1364 0.929 . S
C1377 C1369 1.433 . S
C1377 N1379 1.384 . S
N1378 C1374 1.427 . S
N1378 C1375 1.384 . S
N1379 C1371 1.427 . S
N1379 C1377 1.384 . S
H1380 C1386 0.930 . S
H1381 C1390 0.930 . S
H1382 C1395 0.929 . S
H1383 C1393 0.929 . S
H1384 C1388 0.929 . S
H1385 C1394 0.929 . S
C1386 H1380 0.930 . S
C1386 C1387 1.367 . S
C1386 C1394 1.378 . S
C1387 C1386 1.367 . S
C1387 C1395 1.433 . S
C1388 H1384 0.929 . S
C1388 C1390 1.378 . S
C1388 C1392 1.350 . S
C1389 C1392 1.463 . S
C1389 C1394 1.350 . S
C1389 N1397 1.427 . S
C1390 H1381 0.930 . S
C1390 C1388 1.378 . S
C1390 C1391 1.367 . S
C1391 C1390 1.367 . S
C1391 C1393 1.433 . S
C1392 C1388 1.350 . S
C1392 C1389 1.463 . S
C1392 N1396 1.427 . S
C1393 H1383 0.929 . S
C1393 C1391 1.433 . S
C1393 N1396 1.384 . S
C1394 H1385 0.929 . S
C1394 C1386 1.378 . S
C1394 C1389 1.350 . S
C1395 H1382 0.929 . S
C1395 C1387 1.433 . S
C1395 N1397 1.384 . S
N1396 C1392 1.427 . S
N1396 C1393 1.384 . S
N1397 C1389 1.427 . S
N1397 C1395 1.384 . S
H1398 C1404 0.930 . S
H1399 C1408 0.930 . S
H1400 C1413 0.929 . S
H1401 C1411 0.929 . S
H1402 C1406 0.929 . S
H1403 C1412 0.929 . S
C1404 H1398 0.930 . S
C1404 C1405 1.367 . S
C1404 C1412 1.378 . S
C1405 C1404 1.367 . S
C1405 C1413 1.433 . S
C1406 H1402 0.929 . S
C1406 C1408 1.378 . S
C1406 C1410 1.350 . S
C1407 C1410 1.463 . S
C1407 C1412 1.350 . S
C1407 N1415 1.427 . S
C1408 H1399 0.930 . S
C1408 C1406 1.378 . S
C1408 C1409 1.367 . S
C1409 C1408 1.367 . S
C1409 C1411 1.433 . S
C1410 C1406 1.350 . S
C1410 C1407 1.463 . S
C1410 N1414 1.427 . S
C1411 H1401 0.929 . S
C1411 C1409 1.433 . S
C1411 N1414 1.384 . S
C1412 H1403 0.929 . S
C1412 C1404 1.378 . S
C1412 C1407 1.350 . S
C1413 H1400 0.929 . S
C1413 C1405 1.433 . S
C1413 N1415 1.384 . S
N1414 C1410 1.427 . S
N1414 C1411 1.384 . S
N1415 C1407 1.427 . S
N1415 C1413 1.384 . S
H1416 C1422 0.930 . S
H1417 C1426 0.930 . S
H1418 C1431 0.929 . S
H1419 C1429 0.929 . S
H1420 C1424 0.929 . S
H1421 C1430 0.929 . S
C1422 H1416 0.930 . S
C1422 C1423 1.367 . S
C1422 C1430 1.378 . S
C1423 C1422 1.367 . S
C1423 C1431 1.433 . S
C1424 H1420 0.929 . S
C1424 C1426 1.378 . S
C1424 C1428 1.350 . S
C1425 C1428 1.463 . S
C1425 C1430 1.350 . S
C1425 N1433 1.427 . S
C1426 H1417 0.930 . S
C1426 C1424 1.378 . S
C1426 C1427 1.367 . S
C1427 C1426 1.367 . S
C1427 C1429 1.433 . S
C1428 C1424 1.350 . S
C1428 C1425 1.463 . S
C1428 N1432 1.427 . S
C1429 H1419 0.929 . S
C1429 C1427 1.433 . S
C1429 N1432 1.384 . S
C1430 H1421 0.929 . S
C1430 C1422 1.378 . S
C1430 C1425 1.350 . S
C1431 H1418 0.929 . S
C1431 C1423 1.433 . S
C1431 N1433 1.384 . S
N1432 C1428 1.427 . S
N1432 C1429 1.384 . S
N1433 C1425 1.427 . S
N1433 C1431 1.384 . S
H1434 C1440 0.930 . S
H1435 C1444 0.930 . S
H1436 C1449 0.929 . S
H1437 C1447 0.929 . S
H1438 C1442 0.929 . S
H1439 C1448 0.929 . S
C1440 H1434 0.930 . S
C1440 C1441 1.367 . S
C1440 C1448 1.378 . S
C1441 C1440 1.367 . S
C1441 C1449 1.433 . S
C1442 H1438 0.929 . S
C1442 C1444 1.378 . S
C1442 C1446 1.350 . S
C1443 C1446 1.463 . S
C1443 C1448 1.350 . S
C1443 N1451 1.427 . S
C1444 H1435 0.930 . S
C1444 C1442 1.378 . S
C1444 C1445 1.367 . S
C1445 C1444 1.367 . S
C1445 C1447 1.433 . S
C1446 C1442 1.350 . S
C1446 C1443 1.463 . S
C1446 N1450 1.427 . S
C1447 H1437 0.929 . S
C1447 C1445 1.433 . S
C1447 N1450 1.384 . S
C1448 H1439 0.929 . S
C1448 C1440 1.378 . S
C1448 C1443 1.350 . S
C1449 H1436 0.929 . S
C1449 C1441 1.433 . S
C1449 N1451 1.384 . S
N1450 C1446 1.427 . S
N1450 C1447 1.384 . S
N1451 C1443 1.427 . S
N1451 C1449 1.384 . S
H1452 C1458 0.930 . S
H1453 C1462 0.930 . S
H1454 C1467 0.929 . S
H1455 C1465 0.929 . S
H1456 C1460 0.929 . S
H1457 C1466 0.929 . S
C1458 H1452 0.930 . S
C1458 C1459 1.367 . S
C1458 C1466 1.378 . S
C1459 C1458 1.367 . S
C1459 C1467 1.433 . S
C1460 H1456 0.929 . S
C1460 C1462 1.378 . S
C1460 C1464 1.350 . S
C1461 C1464 1.463 . S
C1461 C1466 1.350 . S
C1461 N1469 1.427 . S
C1462 H1453 0.930 . S
C1462 C1460 1.378 . S
C1462 C1463 1.367 . S
C1463 C1462 1.367 . S
C1463 C1465 1.433 . S
C1464 C1460 1.350 . S
C1464 C1461 1.463 . S
C1464 N1468 1.427 . S
C1465 H1455 0.929 . S
C1465 C1463 1.433 . S
C1465 N1468 1.384 . S
C1466 H1457 0.929 . S
C1466 C1458 1.378 . S
C1466 C1461 1.350 . S
C1467 H1454 0.929 . S
C1467 C1459 1.433 . S
C1467 N1469 1.384 . S
N1468 C1464 1.427 . S
N1468 C1465 1.384 . S
N1469 C1461 1.427 . S
N1469 C1467 1.384 . S
H1470 C1476 0.930 . S
H1471 C1480 0.930 . S
H1472 C1485 0.929 . S
H1473 C1483 0.929 . S
H1474 C1478 0.929 . S
H1475 C1484 0.929 . S
C1476 H1470 0.930 . S
C1476 C1477 1.367 . S
C1476 C1484 1.378 . S
C1477 C1476 1.367 . S
C1477 C1485 1.433 . S
C1478 H1474 0.929 . S
C1478 C1480 1.378 . S
C1478 C1482 1.350 . S
C1479 C1482 1.463 . S
C1479 C1484 1.350 . S
C1479 N1487 1.427 . S
C1480 H1471 0.930 . S
C1480 C1478 1.378 . S
C1480 C1481 1.367 . S
C1481 C1480 1.367 . S
C1481 C1483 1.433 . S
C1482 C1478 1.350 . S
C1482 C1479 1.463 . S
C1482 N1486 1.427 . S
C1483 H1473 0.929 . S
C1483 C1481 1.433 . S
C1483 N1486 1.384 . S
C1484 H1475 0.929 . S
C1484 C1476 1.378 . S
C1484 C1479 1.350 . S
C1485 H1472 0.929 . S
C1485 C1477 1.433 . S
C1485 N1487 1.384 . S
N1486 C1482 1.427 . S
N1486 C1483 1.384 . S
N1487 C1479 1.427 . S
N1487 C1485 1.384 . S
H1488 C1494 0.930 . S
H1489 C1498 0.930 . S
H1490 C1503 0.929 . S
H1491 C1501 0.929 . S
H1492 C1496 0.929 . S
H1493 C1502 0.929 . S
C1494 H1488 0.930 . S
C1494 C1495 1.367 . S
C1494 C1502 1.378 . S
C1495 C1494 1.367 . S
C1495 C1503 1.433 . S
C1496 H1492 0.929 . S
C1496 C1498 1.378 . S
C1496 C1500 1.350 . S
C1497 C1500 1.463 . S
C1497 C1502 1.350 . S
C1497 N1505 1.427 . S
C1498 H1489 0.930 . S
C1498 C1496 1.378 . S
C1498 C1499 1.367 . S
C1499 C1498 1.367 . S
C1499 C1501 1.433 . S
C1500 C1496 1.350 . S
C1500 C1497 1.463 . S
C1500 N1504 1.427 . S
C1501 H1491 0.929 . S
C1501 C1499 1.433 . S
C1501 N1504 1.384 . S
C1502 H1493 0.929 . S
C1502 C1494 1.378 . S
C1502 C1497 1.350 . S
C1503 H1490 0.929 . S
C1503 C1495 1.433 . S
C1503 N1505 1.384 . S
N1504 C1500 1.427 . S
N1504 C1501 1.384 . S
N1505 C1497 1.427 . S
N1505 C1503 1.384 . S
H1506 C1512 0.930 . S
H1507 C1516 0.930 . S
H1508 C1521 0.929 . S
H1509 C1519 0.929 . S
H1510 C1514 0.929 . S
H1511 C1520 0.929 . S
C1512 H1506 0.930 . S
C1512 C1513 1.367 . S
C1512 C1520 1.378 . S
C1513 C1512 1.367 . S
C1513 C1521 1.433 . S
C1514 H1510 0.929 . S
C1514 C1516 1.378 . S
C1514 C1518 1.350 . S
C1515 C1518 1.463 . S
C1515 C1520 1.350 . S
C1515 N1523 1.427 . S
C1516 H1507 0.930 . S
C1516 C1514 1.378 . S
C1516 C1517 1.367 . S
C1517 C1516 1.367 . S
C1517 C1519 1.433 . S
C1518 C1514 1.350 . S
C1518 C1515 1.463 . S
C1518 N1522 1.427 . S
C1519 H1509 0.929 . S
C1519 C1517 1.433 . S
C1519 N1522 1.384 . S
C1520 H1511 0.929 . S
C1520 C1512 1.378 . S
C1520 C1515 1.350 . S
C1521 H1508 0.929 . S
C1521 C1513 1.433 . S
C1521 N1523 1.384 . S
N1522 C1518 1.427 . S
N1522 C1519 1.384 . S
N1523 C1515 1.427 . S
N1523 C1521 1.384 . S
H1524 C1530 0.930 . S
H1525 C1534 0.930 . S
H1526 C1539 0.929 . S
H1527 C1537 0.929 . S
H1528 C1532 0.929 . S
H1529 C1538 0.929 . S
C1530 H1524 0.930 . S
C1530 C1531 1.367 . S
C1530 C1538 1.378 . S
C1531 C1530 1.367 . S
C1531 C1539 1.433 . S
C1532 H1528 0.929 . S
C1532 C1534 1.378 . S
C1532 C1536 1.350 . S
C1533 C1536 1.463 . S
C1533 C1538 1.350 . S
C1533 N1541 1.427 . S
C1534 H1525 0.930 . S
C1534 C1532 1.378 . S
C1534 C1535 1.367 . S
C1535 C1534 1.367 . S
C1535 C1537 1.433 . S
C1536 C1532 1.350 . S
C1536 C1533 1.463 . S
C1536 N1540 1.427 . S
C1537 H1527 0.929 . S
C1537 C1535 1.433 . S
C1537 N1540 1.384 . S
C1538 H1529 0.929 . S
C1538 C1530 1.378 . S
C1538 C1533 1.350 . S
C1539 H1526 0.929 . S
C1539 C1531 1.433 . S
C1539 N1541 1.384 . S
N1540 C1536 1.427 . S
N1540 C1537 1.384 . S
N1541 C1533 1.427 . S
N1541 C1539 1.384 . S
H1542 C1548 0.930 . S
H1543 C1552 0.930 . S
H1544 C1557 0.929 . S
H1545 C1555 0.929 . S
H1546 C1550 0.929 . S
H1547 C1556 0.929 . S
C1548 H1542 0.930 . S
C1548 C1549 1.367 . S
C1548 C1556 1.378 . S
C1549 C1548 1.367 . S
C1549 C1557 1.433 . S
C1550 H1546 0.929 . S
C1550 C1552 1.378 . S
C1550 C1554 1.350 . S
C1551 C1554 1.463 . S
C1551 C1556 1.350 . S
C1551 N1559 1.427 . S
C1552 H1543 0.930 . S
C1552 C1550 1.378 . S
C1552 C1553 1.367 . S
C1553 C1552 1.367 . S
C1553 C1555 1.433 . S
C1554 C1550 1.350 . S
C1554 C1551 1.463 . S
C1554 N1558 1.427 . S
C1555 H1545 0.929 . S
C1555 C1553 1.433 . S
C1555 N1558 1.384 . S
C1556 H1547 0.929 . S
C1556 C1548 1.378 . S
C1556 C1551 1.350 . S
C1557 H1544 0.929 . S
C1557 C1549 1.433 . S
C1557 N1559 1.384 . S
N1558 C1554 1.427 . S
N1558 C1555 1.384 . S
N1559 C1551 1.427 . S
N1559 C1557 1.384 . S
H1560 C1566 0.930 . S
H1561 C1570 0.930 . S
H1562 C1575 0.929 . S
H1563 C1573 0.929 . S
H1564 C1568 0.929 . S
H1565 C1574 0.929 . S
C1566 H1560 0.930 . S
C1566 C1567 1.367 . S
C1566 C1574 1.378 . S
C1567 C1566 1.367 . S
C1567 C1575 1.433 . S
C1568 H1564 0.929 . S
C1568 C1570 1.378 . S
C1568 C1572 1.350 . S
C1569 C1572 1.463 . S
C1569 C1574 1.350 . S
C1569 N1577 1.427 . S
C1570 H1561 0.930 . S
C1570 C1568 1.378 . S
C1570 C1571 1.367 . S
C1571 C1570 1.367 . S
C1571 C1573 1.433 . S
C1572 C1568 1.350 . S
C1572 C1569 1.463 . S
C1572 N1576 1.427 . S
C1573 H1563 0.929 . S
C1573 C1571 1.433 . S
C1573 N1576 1.384 . S
C1574 H1565 0.929 . S
C1574 C1566 1.378 . S
C1574 C1569 1.350 . S
C1575 H1562 0.929 . S
C1575 C1567 1.433 . S
C1575 N1577 1.384 . S
N1576 C1572 1.427 . S
N1576 C1573 1.384 . S
N1577 C1569 1.427 . S
N1577 C1575 1.384 . S
H1578 C1584 0.930 . S
H1579 C1588 0.930 . S
H1580 C1593 0.929 . S
H1581 C1591 0.929 . S
H1582 C1586 0.929 . S
H1583 C1592 0.929 . S
C1584 H1578 0.930 . S
C1584 C1585 1.367 . S
C1584 C1592 1.378 . S
C1585 C1584 1.367 . S
C1585 C1593 1.433 . S
C1586 H1582 0.929 . S
C1586 C1588 1.378 . S
C1586 C1590 1.350 . S
C1587 C1590 1.463 . S
C1587 C1592 1.350 . S
C1587 N1595 1.427 . S
C1588 H1579 0.930 . S
C1588 C1586 1.378 . S
C1588 C1589 1.367 . S
C1589 C1588 1.367 . S
C1589 C1591 1.433 . S
C1590 C1586 1.350 . S
C1590 C1587 1.463 . S
C1590 N1594 1.427 . S
C1591 H1581 0.929 . S
C1591 C1589 1.433 . S
C1591 N1594 1.384 . S
C1592 H1583 0.929 . S
C1592 C1584 1.378 . S
C1592 C1587 1.350 . S
C1593 H1580 0.929 . S
C1593 C1585 1.433 . S
C1593 N1595 1.384 . S
N1594 C1590 1.427 . S
N1594 C1591 1.384 . S
N1595 C1587 1.427 . S
N1595 C1593 1.384 . S
H1596 C1602 0.930 . S
H1597 C1606 0.930 . S
H1598 C1611 0.929 . S
H1599 C1609 0.929 . S
H1600 C1604 0.929 . S
H1601 C1610 0.929 . S
C1602 H1596 0.930 . S
C1602 C1603 1.367 . S
C1602 C1610 1.378 . S
C1603 C1602 1.367 . S
C1603 C1611 1.433 . S
C1604 H1600 0.929 . S
C1604 C1606 1.378 . S
C1604 C1608 1.350 . S
C1605 C1608 1.463 . S
C1605 C1610 1.350 . S
C1605 N1613 1.427 . S
C1606 H1597 0.930 . S
C1606 C1604 1.378 . S
C1606 C1607 1.367 . S
C1607 C1606 1.367 . S
C1607 C1609 1.433 . S
C1608 C1604 1.350 . S
C1608 C1605 1.463 . S
C1608 N1612 1.427 . S
C1609 H1599 0.929 . S
C1609 C1607 1.433 . S
C1609 N1612 1.384 . S
C1610 H1601 0.929 . S
C1610 C1602 1.378 . S
C1610 C1605 1.350 . S
C1611 H1598 0.929 . S
C1611 C1603 1.433 . S
C1611 N1613 1.384 . S
N1612 C1608 1.427 . S
N1612 C1609 1.384 . S
N1613 C1605 1.427 . S
N1613 C1611 1.384 . S
H1614 C1620 0.930 . S
H1615 C1624 0.930 . S
H1616 C1629 0.929 . S
H1617 C1627 0.929 . S
H1618 C1622 0.929 . S
H1619 C1628 0.929 . S
C1620 H1614 0.930 . S
C1620 C1621 1.367 . S
C1620 C1628 1.378 . S
C1621 C1620 1.367 . S
C1621 C1629 1.433 . S
C1622 H1618 0.929 . S
C1622 C1624 1.378 . S
C1622 C1626 1.350 . S
C1623 C1626 1.463 . S
C1623 C1628 1.350 . S
C1623 N1631 1.427 . S
C1624 H1615 0.930 . S
C1624 C1622 1.378 . S
C1624 C1625 1.367 . S
C1625 C1624 1.367 . S
C1625 C1627 1.433 . S
C1626 C1622 1.350 . S
C1626 C1623 1.463 . S
C1626 N1630 1.427 . S
C1627 H1617 0.929 . S
C1627 C1625 1.433 . S
C1627 N1630 1.384 . S
C1628 H1619 0.929 . S
C1628 C1620 1.378 . S
C1628 C1623 1.350 . S
C1629 H1616 0.929 . S
C1629 C1621 1.433 . S
C1629 N1631 1.384 . S
N1630 C1626 1.427 . S
N1630 C1627 1.384 . S
N1631 C1623 1.427 . S
N1631 C1629 1.384 . S
H1632 C1638 0.930 . S
H1633 C1642 0.930 . S
H1634 C1647 0.929 . S
H1635 C1645 0.929 . S
H1636 C1640 0.929 . S
H1637 C1646 0.929 . S
C1638 H1632 0.930 . S
C1638 C1639 1.367 . S
C1638 C1646 1.378 . S
C1639 C1638 1.367 . S
C1639 C1647 1.433 . S
C1640 H1636 0.929 . S
C1640 C1642 1.378 . S
C1640 C1644 1.350 . S
C1641 C1644 1.463 . S
C1641 C1646 1.350 . S
C1641 N1649 1.427 . S
C1642 H1633 0.930 . S
C1642 C1640 1.378 . S
C1642 C1643 1.367 . S
C1643 C1642 1.367 . S
C1643 C1645 1.433 . S
C1644 C1640 1.350 . S
C1644 C1641 1.463 . S
C1644 N1648 1.427 . S
C1645 H1635 0.929 . S
C1645 C1643 1.433 . S
C1645 N1648 1.384 . S
C1646 H1637 0.929 . S
C1646 C1638 1.378 . S
C1646 C1641 1.350 . S
C1647 H1634 0.929 . S
C1647 C1639 1.433 . S
C1647 N1649 1.384 . S
N1648 C1644 1.427 . S
N1648 C1645 1.384 . S
N1649 C1641 1.427 . S
N1649 C1647 1.384 . S
H1650 C1656 0.930 . S
H1651 C1660 0.930 . S
H1652 C1665 0.929 . S
H1653 C1663 0.929 . S
H1654 C1658 0.929 . S
H1655 C1664 0.929 . S
C1656 H1650 0.930 . S
C1656 C1657 1.367 . S
C1656 C1664 1.378 . S
C1657 C1656 1.367 . S
C1657 C1665 1.433 . S
C1658 H1654 0.929 . S
C1658 C1660 1.378 . S
C1658 C1662 1.350 . S
C1659 C1662 1.463 . S
C1659 C1664 1.350 . S
C1659 N1667 1.427 . S
C1660 H1651 0.930 . S
C1660 C1658 1.378 . S
C1660 C1661 1.367 . S
C1661 C1660 1.367 . S
C1661 C1663 1.433 . S
C1662 C1658 1.350 . S
C1662 C1659 1.463 . S
C1662 N1666 1.427 . S
C1663 H1653 0.929 . S
C1663 C1661 1.433 . S
C1663 N1666 1.384 . S
C1664 H1655 0.929 . S
C1664 C1656 1.378 . S
C1664 C1659 1.350 . S
C1665 H1652 0.929 . S
C1665 C1657 1.433 . S
C1665 N1667 1.384 . S
N1666 C1662 1.427 . S
N1666 C1663 1.384 . S
N1667 C1659 1.427 . S
N1667 C1665 1.384 . S
H1668 C1674 0.930 . S
H1669 C1678 0.930 . S
H1670 C1683 0.929 . S
H1671 C1681 0.929 . S
H1672 C1676 0.929 . S
H1673 C1682 0.929 . S
C1674 H1668 0.930 . S
C1674 C1675 1.367 . S
C1674 C1682 1.378 . S
C1675 C1674 1.367 . S
C1675 C1683 1.433 . S
C1676 H1672 0.929 . S
C1676 C1678 1.378 . S
C1676 C1680 1.350 . S
C1677 C1680 1.463 . S
C1677 C1682 1.350 . S
C1677 N1685 1.427 . S
C1678 H1669 0.930 . S
C1678 C1676 1.378 . S
C1678 C1679 1.367 . S
C1679 C1678 1.367 . S
C1679 C1681 1.433 . S
C1680 C1676 1.350 . S
C1680 C1677 1.463 . S
C1680 N1684 1.427 . S
C1681 H1671 0.929 . S
C1681 C1679 1.433 . S
C1681 N1684 1.384 . S
C1682 H1673 0.929 . S
C1682 C1674 1.378 . S
C1682 C1677 1.350 . S
C1683 H1670 0.929 . S
C1683 C1675 1.433 . S
C1683 N1685 1.384 . S
N1684 C1680 1.427 . S
N1684 C1681 1.384 . S
N1685 C1677 1.427 . S
N1685 C1683 1.384 . S
H1686 C1692 0.930 . S
H1687 C1696 0.930 . S
H1688 C1701 0.929 . S
H1689 C1699 0.929 . S
H1690 C1694 0.929 . S
H1691 C1700 0.929 . S
C1692 H1686 0.930 . S
C1692 C1693 1.367 . S
C1692 C1700 1.378 . S
C1693 C1692 1.367 . S
C1693 C1701 1.433 . S
C1694 H1690 0.929 . S
C1694 C1696 1.378 . S
C1694 C1698 1.350 . S
C1695 C1698 1.463 . S
C1695 C1700 1.350 . S
C1695 N1703 1.427 . S
C1696 H1687 0.930 . S
C1696 C1694 1.378 . S
C1696 C1697 1.367 . S
C1697 C1696 1.367 . S
C1697 C1699 1.433 . S
C1698 C1694 1.350 . S
C1698 C1695 1.463 . S
C1698 N1702 1.427 . S
C1699 H1689 0.929 . S
C1699 C1697 1.433 . S
C1699 N1702 1.384 . S
C1700 H1691 0.929 . S
C1700 C1692 1.378 . S
C1700 C1695 1.350 . S
C1701 H1688 0.929 . S
C1701 C1693 1.433 . S
C1701 N1703 1.384 . S
N1702 C1698 1.427 . S
N1702 C1699 1.384 . S
N1703 C1695 1.427 . S
N1703 C1701 1.384 . S
H1704 C1710 0.930 . S
H1705 C1714 0.930 . S
H1706 C1719 0.929 . S
H1707 C1717 0.929 . S
H1708 C1712 0.929 . S
H1709 C1718 0.929 . S
C1710 H1704 0.930 . S
C1710 C1711 1.367 . S
C1710 C1718 1.378 . S
C1711 C1710 1.367 . S
C1711 C1719 1.433 . S
C1712 H1708 0.929 . S
C1712 C1714 1.378 . S
C1712 C1716 1.350 . S
C1713 C1716 1.463 . S
C1713 C1718 1.350 . S
C1713 N1721 1.427 . S
C1714 H1705 0.930 . S
C1714 C1712 1.378 . S
C1714 C1715 1.367 . S
C1715 C1714 1.367 . S
C1715 C1717 1.433 . S
C1716 C1712 1.350 . S
C1716 C1713 1.463 . S
C1716 N1720 1.427 . S
C1717 H1707 0.929 . S
C1717 C1715 1.433 . S
C1717 N1720 1.384 . S
C1718 H1709 0.929 . S
C1718 C1710 1.378 . S
C1718 C1713 1.350 . S
C1719 H1706 0.929 . S
C1719 C1711 1.433 . S
C1719 N1721 1.384 . S
N1720 C1716 1.427 . S
N1720 C1717 1.384 . S
N1721 C1713 1.427 . S
N1721 C1719 1.384 . S
H1722 C1728 0.930 . S
H1723 C1732 0.930 . S
H1724 C1737 0.929 . S
H1725 C1735 0.929 . S
H1726 C1730 0.929 . S
H1727 C1736 0.929 . S
C1728 H1722 0.930 . S
C1728 C1729 1.367 . S
C1728 C1736 1.378 . S
C1729 C1728 1.367 . S
C1729 C1737 1.433 . S
C1730 H1726 0.929 . S
C1730 C1732 1.378 . S
C1730 C1734 1.350 . S
C1731 C1734 1.463 . S
C1731 C1736 1.350 . S
C1731 N1739 1.427 . S
C1732 H1723 0.930 . S
C1732 C1730 1.378 . S
C1732 C1733 1.367 . S
C1733 C1732 1.367 . S
C1733 C1735 1.433 . S
C1734 C1730 1.350 . S
C1734 C1731 1.463 . S
C1734 N1738 1.427 . S
C1735 H1725 0.929 . S
C1735 C1733 1.433 . S
C1735 N1738 1.384 . S
C1736 H1727 0.929 . S
C1736 C1728 1.378 . S
C1736 C1731 1.350 . S
C1737 H1724 0.929 . S
C1737 C1729 1.433 . S
C1737 N1739 1.384 . S
N1738 C1734 1.427 . S
N1738 C1735 1.384 . S
N1739 C1731 1.427 . S
N1739 C1737 1.384 . S
H1740 C1746 0.930 . S
H1741 C1750 0.930 . S
H1742 C1755 0.929 . S
H1743 C1753 0.929 . S
H1744 C1748 0.929 . S
H1745 C1754 0.929 . S
C1746 H1740 0.930 . S
C1746 C1747 1.367 . S
C1746 C1754 1.378 . S
C1747 C1746 1.367 . S
C1747 C1755 1.433 . S
C1748 H1744 0.929 . S
C1748 C1750 1.378 . S
C1748 C1752 1.350 . S
C1749 C1752 1.463 . S
C1749 C1754 1.350 . S
C1749 N1757 1.427 . S
C1750 H1741 0.930 . S
C1750 C1748 1.378 . S
C1750 C1751 1.367 . S
C1751 C1750 1.367 . S
C1751 C1753 1.433 . S
C1752 C1748 1.350 . S
C1752 C1749 1.463 . S
C1752 N1756 1.427 . S
C1753 H1743 0.929 . S
C1753 C1751 1.433 . S
C1753 N1756 1.384 . S
C1754 H1745 0.929 . S
C1754 C1746 1.378 . S
C1754 C1749 1.350 . S
C1755 H1742 0.929 . S
C1755 C1747 1.433 . S
C1755 N1757 1.384 . S
N1756 C1752 1.427 . S
N1756 C1753 1.384 . S
N1757 C1749 1.427 . S
N1757 C1755 1.384 . S
H1758 C1764 0.930 . S
H1759 C1768 0.930 . S
H1760 C1773 0.929 . S
H1761 C1771 0.929 . S
H1762 C1766 0.929 . S
H1763 C1772 0.929 . S
C1764 H1758 0.930 . S
C1764 C1765 1.367 . S
C1764 C1772 1.378 . S
C1765 C1764 1.367 . S
C1765 C1773 1.433 . S
C1766 H1762 0.929 . S
C1766 C1768 1.378 . S
C1766 C1770 1.350 . S
C1767 C1770 1.463 . S
C1767 C1772 1.350 . S
C1767 N1775 1.427 . S
C1768 H1759 0.930 . S
C1768 C1766 1.378 . S
C1768 C1769 1.367 . S
C1769 C1768 1.367 . S
C1769 C1771 1.433 . S
C1770 C1766 1.350 . S
C1770 C1767 1.463 . S
C1770 N1774 1.427 . S
C1771 H1761 0.929 . S
C1771 C1769 1.433 . S
C1771 N1774 1.384 . S
C1772 H1763 0.929 . S
C1772 C1764 1.378 . S
C1772 C1767 1.350 . S
C1773 H1760 0.929 . S
C1773 C1765 1.433 . S
C1773 N1775 1.384 . S
N1774 C1770 1.427 . S
N1774 C1771 1.384 . S
N1775 C1767 1.427 . S
N1775 C1773 1.384 . S
C487 C18 1.268 . S
C491 C362 1.239 . S
C505 C382 1.237 . S
C509 C38 1.266 . S
C523 C58 1.268 . S
C527 C322 1.240 . S
C541 C78 1.258 . S
C545 C342 1.221 . S
C559 C442 1.232 . S
C563 C98 1.266 . S
C577 C118 1.260 . S
C581 C422 1.228 . S
C595 C462 1.221 . S
C599 C138 1.258 . S
C613 C158 1.269 . S
C617 C402 1.239 . S
C631 C178 1.269 . S
C635 C262 1.240 . S
C649 C198 1.268 . S
C653 C302 1.240 . S
C667 C282 1.238 . S
C671 C218 1.268 . S
C685 C238 1.258 . S
C689 C242 1.222 . S
C703 C259 1.258 . S
C707 C124 1.221 . S
C721 C279 1.267 . S
C725 C144 1.239 . S
C739 C299 1.266 . S
C743 C84 1.237 . S
C757 C104 1.234 . S
C761 C319 1.267 . S
C775 C339 1.259 . S
C779 C204 1.226 . S
C793 C184 1.240 . S
C797 C359 1.269 . S
C811 C224 1.223 . S
C815 C379 1.260 . S
C829 C164 1.230 . S
C833 C399 1.265 . S
C847 C24 1.222 . S
C851 C419 1.259 . S
C865 C64 1.240 . S
C869 C439 1.269 . S
C883 C44 1.229 . S
C887 C459 1.264 . S
C901 C479 1.263 . S
C905 C4 1.227 . S
C919 C82 1.308 . S
C923 C9 1.442 . S
C937 C102 1.328 . S
C941 C29 1.436 . S
C955 C122 1.314 . S
C959 C49 1.439 . S
C973 C142 1.315 . S
C977 C69 1.439 . S
C991 C89 1.444 . S
C995 C162 1.304 . S
C1009 C109 1.442 . S
C1013 C222 1.313 . S
C1027 C129 1.441 . S
C1031 C182 1.311 . S
C1045 C149 1.438 . S
C1049 C202 1.322 . S
C1063 C169 1.440 . S
C1067 C2 1.313 . S
C1081 C189 1.435 . S
C1085 C42 1.328 . S
C1099 C209 1.435 . S
C1103 C62 1.328 . S
C1117 C22 1.307 . S
C1121 C229 1.442 . S
C1135 C324 1.304 . S
C1139 C252 1.444 . S
C1153 C344 1.328 . S
C1157 C272 1.435 . S
C1171 C292 1.441 . S
C1175 C364 1.311 . S
C1189 C312 1.436 . S
C1193 C384 1.328 . S
C1207 C404 1.309 . S
C1211 C332 1.442 . S
C1225 C352 1.437 . S
C1229 C464 1.321 . S
C1243 C424 1.314 . S
C1247 C372 1.441 . S
C1261 C392 1.444 . S
C1265 C444 1.304 . S
C1279 C244 1.325 . S
C1283 C412 1.436 . S
C1297 C432 1.437 . S
C1301 C284 1.326 . S
C1315 C452 1.444 . S
C1319 C304 1.304 . S
C1333 C264 1.305 . S
C1337 C472 1.443 . S
C1351 C19 1.506 . S
C1355 C192 1.522 . S
C1369 C212 1.538 . S
C1373 C39 1.524 . S
C1387 C172 1.534 . S
C1391 C59 1.520 . S
C1405 C232 1.536 . S
C1409 C79 1.521 . S
C1423 C99 1.517 . S
C1427 C72 1.532 . S
C1441 C52 1.533 . S
C1445 C119 1.518 . S
C1459 C139 1.523 . S
C1463 C32 1.539 . S
C1477 C12 1.532 . S
C1481 C159 1.514 . S
C1495 C179 1.509 . S
C1499 C112 1.525 . S
C1513 C199 1.521 . S
C1517 C152 1.538 . S
C1531 C219 1.525 . S
C1535 C132 1.540 . S
C1549 C239 1.525 . S
C1553 C92 1.540 . S
C1567 C258 1.519 . S
C1571 C429 1.534 . S
C1585 C278 1.513 . S
C1589 C449 1.530 . S
C1603 C409 1.534 . S
C1607 C298 1.517 . S
C1621 C469 1.537 . S
C1625 C318 1.522 . S
C1639 C338 1.507 . S
C1643 C309 1.523 . S
C1657 C358 1.517 . S
C1661 C289 1.532 . S
C1675 C269 1.523 . S
C1679 C378 1.506 . S
C1693 C398 1.506 . S
C1697 C249 1.522 . S
C1711 C418 1.506 . S
C1715 C349 1.522 . S
C1729 C389 1.529 . S
C1733 C438 1.514 . S
C1747 C458 1.525 . S
C1751 C369 1.540 . S
C1765 C478 1.522 . S
C1769 C329 1.538 . S
