# Generated by pormake.
# Topology uos, (4)-cn, num edge types: 1
# Building blocks:
#     Node 0, Type 0, BuildingBlock: QUQFOY_clean_sbu_1, # of connection points: 4
#     Node 1, Type 0, BuildingBlock: QUQFOY_clean_sbu_1, # of connection points: 4
#     Node 2, Type 0, BuildingBlock: QUQFOY_clean_sbu_1, # of connection points: 4
#     Node 3, Type 0, BuildingBlock: QUQFOY_clean_sbu_1, # of connection points: 4
#     Node 4, Type 0, BuildingBlock: QUQFOY_clean_sbu_1, # of connection points: 4
#     Node 5, Type 0, BuildingBlock: QUQFOY_clean_sbu_1, # of connection points: 4
#     Node 6, Type 0, BuildingBlock: QUQFOY_clean_sbu_1, # of connection points: 4
#     Node 7, Type 0, BuildingBlock: QUQFOY_clean_sbu_1, # of connection points: 4
#     Node 8, Type 0, BuildingBlock: QUQFOY_clean_sbu_1, # of connection points: 4
#     Node 9, Type 0, BuildingBlock: QUQFOY_clean_sbu_1, # of connection points: 4
#     Node 10, Type 0, BuildingBlock: QUQFOY_clean_sbu_1, # of connection points: 4
#     Node 11, Type 0, BuildingBlock: QUQFOY_clean_sbu_1, # of connection points: 4
#     Node 12, Type 0, BuildingBlock: QUQFOY_clean_sbu_1, # of connection points: 4
#     Node 13, Type 0, BuildingBlock: QUQFOY_clean_sbu_1, # of connection points: 4
#     Node 14, Type 0, BuildingBlock: QUQFOY_clean_sbu_1, # of connection points: 4
#     Node 15, Type 0, BuildingBlock: QUQFOY_clean_sbu_1, # of connection points: 4
#     Node 16, Type 0, BuildingBlock: QUQFOY_clean_sbu_1, # of connection points: 4
#     Node 17, Type 0, BuildingBlock: QUQFOY_clean_sbu_1, # of connection points: 4
#     Node 18, Type 0, BuildingBlock: QUQFOY_clean_sbu_1, # of connection points: 4
#     Node 19, Type 0, BuildingBlock: QUQFOY_clean_sbu_1, # of connection points: 4
#     Node 20, Type 0, BuildingBlock: QUQFOY_clean_sbu_1, # of connection points: 4
#     Node 21, Type 0, BuildingBlock: QUQFOY_clean_sbu_1, # of connection points: 4
#     Node 22, Type 0, BuildingBlock: QUQFOY_clean_sbu_1, # of connection points: 4
#     Node 23, Type 0, BuildingBlock: QUQFOY_clean_sbu_1, # of connection points: 4
#     Node 24, Type 0, BuildingBlock: QUQFOY_clean_sbu_1, # of connection points: 4
#     Node 25, Type 0, BuildingBlock: QUQFOY_clean_sbu_1, # of connection points: 4
#     Node 26, Type 0, BuildingBlock: QUQFOY_clean_sbu_1, # of connection points: 4
#     Node 27, Type 0, BuildingBlock: QUQFOY_clean_sbu_1, # of connection points: 4
#     Node 28, Type 0, BuildingBlock: QUQFOY_clean_sbu_1, # of connection points: 4
#     Node 29, Type 0, BuildingBlock: QUQFOY_clean_sbu_1, # of connection points: 4
#     Node 30, Type 0, BuildingBlock: QUQFOY_clean_sbu_1, # of connection points: 4
#     Node 31, Type 0, BuildingBlock: QUQFOY_clean_sbu_1, # of connection points: 4
#     Edge 32, Type (0, 0), BuildingBlock: CIFDUS_clean_linker_0, # of connection points: 2
#     Edge 33, Type (0, 0), BuildingBlock: CIFDUS_clean_linker_0, # of connection points: 2
#     Edge 34, Type (0, 0), BuildingBlock: CIFDUS_clean_linker_0, # of connection points: 2
#     Edge 35, Type (0, 0), BuildingBlock: CIFDUS_clean_linker_0, # of connection points: 2
#     Edge 36, Type (0, 0), BuildingBlock: CIFDUS_clean_linker_0, # of connection points: 2
#     Edge 37, Type (0, 0), BuildingBlock: CIFDUS_clean_linker_0, # of connection points: 2
#     Edge 38, Type (0, 0), BuildingBlock: CIFDUS_clean_linker_0, # of connection points: 2
#     Edge 39, Type (0, 0), BuildingBlock: CIFDUS_clean_linker_0, # of connection points: 2
#     Edge 40, Type (0, 0), BuildingBlock: CIFDUS_clean_linker_0, # of connection points: 2
#     Edge 41, Type (0, 0), BuildingBlock: CIFDUS_clean_linker_0, # of connection points: 2
#     Edge 42, Type (0, 0), BuildingBlock: CIFDUS_clean_linker_0, # of connection points: 2
#     Edge 43, Type (0, 0), BuildingBlock: CIFDUS_clean_linker_0, # of connection points: 2
#     Edge 44, Type (0, 0), BuildingBlock: CIFDUS_clean_linker_0, # of connection points: 2
#     Edge 45, Type (0, 0), BuildingBlock: CIFDUS_clean_linker_0, # of connection points: 2
#     Edge 46, Type (0, 0), BuildingBlock: CIFDUS_clean_linker_0, # of connection points: 2
#     Edge 47, Type (0, 0), BuildingBlock: CIFDUS_clean_linker_0, # of connection points: 2
#     Edge 48, Type (0, 0), BuildingBlock: CIFDUS_clean_linker_0, # of connection points: 2
#     Edge 49, Type (0, 0), BuildingBlock: CIFDUS_clean_linker_0, # of connection points: 2
#     Edge 50, Type (0, 0), BuildingBlock: CIFDUS_clean_linker_0, # of connection points: 2
#     Edge 51, Type (0, 0), BuildingBlock: CIFDUS_clean_linker_0, # of connection points: 2
#     Edge 52, Type (0, 0), BuildingBlock: CIFDUS_clean_linker_0, # of connection points: 2
#     Edge 53, Type (0, 0), BuildingBlock: CIFDUS_clean_linker_0, # of connection points: 2
#     Edge 54, Type (0, 0), BuildingBlock: CIFDUS_clean_linker_0, # of connection points: 2
#     Edge 55, Type (0, 0), BuildingBlock: CIFDUS_clean_linker_0, # of connection points: 2
#     Edge 56, Type (0, 0), BuildingBlock: CIFDUS_clean_linker_0, # of connection points: 2
#     Edge 57, Type (0, 0), BuildingBlock: CIFDUS_clean_linker_0, # of connection points: 2
#     Edge 58, Type (0, 0), BuildingBlock: CIFDUS_clean_linker_0, # of connection points: 2
#     Edge 59, Type (0, 0), BuildingBlock: CIFDUS_clean_linker_0, # of connection points: 2
#     Edge 60, Type (0, 0), BuildingBlock: CIFDUS_clean_linker_0, # of connection points: 2
#     Edge 61, Type (0, 0), BuildingBlock: CIFDUS_clean_linker_0, # of connection points: 2
#     Edge 62, Type (0, 0), BuildingBlock: CIFDUS_clean_linker_0, # of connection points: 2
#     Edge 63, Type (0, 0), BuildingBlock: CIFDUS_clean_linker_0, # of connection points: 2
#     Edge 64, Type (0, 0), BuildingBlock: CIFDUS_clean_linker_0, # of connection points: 2
#     Edge 65, Type (0, 0), BuildingBlock: CIFDUS_clean_linker_0, # of connection points: 2
#     Edge 66, Type (0, 0), BuildingBlock: CIFDUS_clean_linker_0, # of connection points: 2
#     Edge 67, Type (0, 0), BuildingBlock: CIFDUS_clean_linker_0, # of connection points: 2
#     Edge 68, Type (0, 0), BuildingBlock: CIFDUS_clean_linker_0, # of connection points: 2
#     Edge 69, Type (0, 0), BuildingBlock: CIFDUS_clean_linker_0, # of connection points: 2
#     Edge 70, Type (0, 0), BuildingBlock: CIFDUS_clean_linker_0, # of connection points: 2
#     Edge 71, Type (0, 0), BuildingBlock: CIFDUS_clean_linker_0, # of connection points: 2
#     Edge 72, Type (0, 0), BuildingBlock: CIFDUS_clean_linker_0, # of connection points: 2
#     Edge 73, Type (0, 0), BuildingBlock: CIFDUS_clean_linker_0, # of connection points: 2
#     Edge 74, Type (0, 0), BuildingBlock: CIFDUS_clean_linker_0, # of connection points: 2
#     Edge 75, Type (0, 0), BuildingBlock: CIFDUS_clean_linker_0, # of connection points: 2
#     Edge 76, Type (0, 0), BuildingBlock: CIFDUS_clean_linker_0, # of connection points: 2
#     Edge 77, Type (0, 0), BuildingBlock: CIFDUS_clean_linker_0, # of connection points: 2
#     Edge 78, Type (0, 0), BuildingBlock: CIFDUS_clean_linker_0, # of connection points: 2
#     Edge 79, Type (0, 0), BuildingBlock: CIFDUS_clean_linker_0, # of connection points: 2
#     Edge 80, Type (0, 0), BuildingBlock: CIFDUS_clean_linker_0, # of connection points: 2
#     Edge 81, Type (0, 0), BuildingBlock: CIFDUS_clean_linker_0, # of connection points: 2
#     Edge 82, Type (0, 0), BuildingBlock: CIFDUS_clean_linker_0, # of connection points: 2
#     Edge 83, Type (0, 0), BuildingBlock: CIFDUS_clean_linker_0, # of connection points: 2
#     Edge 84, Type (0, 0), BuildingBlock: CIFDUS_clean_linker_0, # of connection points: 2
#     Edge 85, Type (0, 0), BuildingBlock: CIFDUS_clean_linker_0, # of connection points: 2
#     Edge 86, Type (0, 0), BuildingBlock: CIFDUS_clean_linker_0, # of connection points: 2
#     Edge 87, Type (0, 0), BuildingBlock: CIFDUS_clean_linker_0, # of connection points: 2
#     Edge 88, Type (0, 0), BuildingBlock: CIFDUS_clean_linker_0, # of connection points: 2
#     Edge 89, Type (0, 0), BuildingBlock: CIFDUS_clean_linker_0, # of connection points: 2
#     Edge 90, Type (0, 0), BuildingBlock: CIFDUS_clean_linker_0, # of connection points: 2
#     Edge 91, Type (0, 0), BuildingBlock: CIFDUS_clean_linker_0, # of connection points: 2
#     Edge 92, Type (0, 0), BuildingBlock: CIFDUS_clean_linker_0, # of connection points: 2
#     Edge 93, Type (0, 0), BuildingBlock: CIFDUS_clean_linker_0, # of connection points: 2
#     Edge 94, Type (0, 0), BuildingBlock: CIFDUS_clean_linker_0, # of connection points: 2
#     Edge 95, Type (0, 0), BuildingBlock: CIFDUS_clean_linker_0, # of connection points: 2
# Relax obj value: 0.058
# Max RMSD: 0.126
# Mean RMSD: 0.126
data_MOF--net-uos--node1-QUQFOY_clean_sbu_1--edge1-CIFDUS_clean_linker_0
_symmetry_space_group_name_H-M    P1
_symmetry_Int_Tables_number       1
_symmetry_cell_setting            triclinic
loop_
_symmetry_equiv_pos_as_xyz
'x, y, z'
_cell_length_a     79.628709
_cell_length_b     79.577938
_cell_length_c     21.279694
_cell_angle_alpha  89.990328
_cell_angle_beta   89.991181
_cell_angle_gamma 90.024775
loop_
_atom_site_label
_atom_site_type_symbol
_atom_site_fract_x
_atom_site_fract_y
_atom_site_fract_z
_atom_type_partial_charge
O0 O 0.16562 0.12583 0.19428 0.0
Cd1 Cd 0.17827 0.13413 0.11653 0.0
Cd2 Cd 0.17071 0.16549 0.16927 0.0
O3 O 0.15569 0.15037 0.22547 0.0
O4 O 0.17822 0.11507 0.05537 0.0
O5 O 0.16462 0.13889 0.03848 0.0
C6 C 0.16832 0.12383 0.02033 0.0
C7 C 0.16158 0.19317 0.1501 0.0
C8 C 0.15662 0.13448 0.23138 0.0
C9 C 0.20724 0.15352 0.16599 0.0
O10 O 0.19636 0.16417 0.18393 0.0
O11 O 0.20296 0.14071 0.13407 0.0
O12 O 0.16581 0.18809 0.2052 0.0
O13 O 0.16194 0.18232 0.10504 0.0
O14 O 0.12087 0.91462 0.44176 0.0
Cd15 Cd 0.11477 0.92737 0.36012 0.0
Cd16 Cd 0.08308 0.92184 0.40973 0.0
O17 O 0.096 0.90295 0.45419 0.0
O18 O 0.13544 0.92681 0.30677 0.0
O19 O 0.11203 0.91355 0.28102 0.0
C20 C 0.12753 0.91703 0.26857 0.0
C21 C 0.05441 0.91635 0.39348 0.0
C22 C 0.1114 0.90398 0.46873 0.0
C23 C 0.09757 0.95701 0.41191 0.0
O24 O 0.08789 0.94633 0.43763 0.0
O25 O 0.10805 0.95242 0.37023 0.0
O26 O 0.06065 0.91854 0.44854 0.0
O27 O 0.06454 0.9171 0.34622 0.0
O28 O 0.33706 0.87127 0.69126 0.0
Cd29 Cd 0.3246 0.86014 0.61732 0.0
Cd30 Cd 0.33524 0.83302 0.68065 0.0
O31 O 0.35246 0.84944 0.71798 0.0
O32 O 0.32151 0.87855 0.55451 0.0
O33 O 0.33789 0.85658 0.53751 0.0
C34 C 0.33215 0.87093 0.51885 0.0
C35 C 0.34266 0.80497 0.66133 0.0
C36 C 0.34891 0.86492 0.72348 0.0
C37 C 0.2988 0.84265 0.68955 0.0
O38 O 0.3113 0.83572 0.71596 0.0
O39 O 0.30084 0.85123 0.63965 0.0
O40 O 0.34199 0.81105 0.71729 0.0
O41 O 0.33979 0.81508 0.61509 0.0
O42 O 0.38806 0.09521 0.93471 0.0
Cd43 Cd 0.39379 0.0778 0.86724 0.0
Cd44 Cd 0.42732 0.08274 0.92121 0.0
O45 O 0.41341 0.09937 0.97462 0.0
O46 O 0.37335 0.07676 0.81286 0.0
O47 O 0.39761 0.08724 0.78046 0.0
C48 C 0.38192 0.08424 0.76976 0.0
C49 C 0.4557 0.08984 0.9053 0.0
C50 C 0.39778 0.10253 0.97321 0.0
C51 C 0.41126 0.04786 0.92544 0.0
O52 O 0.42363 0.05747 0.93677 0.0
O53 O 0.3982 0.05331 0.89756 0.0
O54 O 0.44989 0.08592 0.95971 0.0
O55 O 0.44528 0.09007 0.85884 0.0
O56 O 0.16489 0.86917 0.80582 0.0
Cd57 Cd 0.1769 0.85785 0.88039 0.0
Cd58 Cd 0.16752 0.83109 0.815 0.0
O59 O 0.15048 0.84713 0.77408 0.0
O60 O 0.17717 0.87525 0.94819 0.0
O61 O 0.16272 0.85157 0.95526 0.0
C62 C 0.1666 0.86606 0.97876 0.0
C63 C 0.16091 0.80298 0.83731 0.0
C64 C 0.15371 0.86274 0.77061 0.0
C65 C 0.20383 0.84172 0.81065 0.0
O66 O 0.1917 0.83444 0.78316 0.0
O67 O 0.20126 0.85017 0.86052 0.0
O68 O 0.1618 0.80853 0.78058 0.0
O69 O 0.16295 0.81366 0.88237 0.0
O70 O 0.38386 0.91247 0.05574 0.0
Cd71 Cd 0.38931 0.92586 0.13545 0.0
Cd72 Cd 0.4225 0.92352 0.08208 0.0
O73 O 0.40987 0.90536 0.03129 0.0
O74 O 0.37005 0.92189 0.19398 0.0
O75 O 0.39588 0.91307 0.2134 0.0
C76 C 0.38025 0.91367 0.22974 0.0
C77 C 0.45188 0.91958 0.07985 0.0
C78 C 0.39416 0.9042 0.02234 0.0
C79 C 0.40365 0.95756 0.08713 0.0
O80 O 0.41572 0.94841 0.06804 0.0
O81 O 0.39201 0.95134 0.1209 0.0
O82 O 0.44338 0.92352 0.03082 0.0
O83 O 0.44375 0.91783 0.13186 0.0
O84 O 0.34851 0.13497 0.3095 0.0
Cd85 Cd 0.33127 0.14028 0.37835 0.0
Cd86 Cd 0.33134 0.17259 0.31087 0.0
O87 O 0.34933 0.15957 0.26111 0.0
O88 O 0.33401 0.12126 0.43891 0.0
O89 O 0.34083 0.14749 0.46178 0.0
C90 C 0.34059 0.13181 0.47772 0.0
C91 C 0.33474 0.202 0.30969 0.0
C92 C 0.35433 0.14451 0.26695 0.0
C93 C 0.29888 0.15196 0.31841 0.0
O94 O 0.30683 0.16489 0.29993 0.0
O95 O 0.3061 0.14081 0.35184 0.0
O96 O 0.33092 0.1936 0.26019 0.0
O97 O 0.33677 0.19372 0.36125 0.0
O98 O 0.11244 0.09008 0.55696 0.0
Cd99 Cd 0.10421 0.07739 0.63586 0.0
Cd100 Cd 0.07387 0.08116 0.56536 0.0
O101 O 0.08799 0.09999 0.52515 0.0
O102 O 0.12373 0.07881 0.6951 0.0
O103 O 0.09934 0.09095 0.71421 0.0
C104 C 0.11471 0.08825 0.73089 0.0
C105 C 0.04454 0.08538 0.56257 0.0
C106 C 0.10389 0.09971 0.52164 0.0
C107 C 0.09041 0.04669 0.57767 0.0
O108 O 0.0811 0.05662 0.54638 0.0
O109 O 0.0991 0.05206 0.62364 0.0
O110 O 0.05322 0.08268 0.51271 0.0
O111 O 0.0525 0.08588 0.61535 0.0
O112 O 0.84377 0.8642 0.8095 0.0
Cd113 Cd 0.8294 0.85819 0.88765 0.0
Cd114 Cd 0.83123 0.82516 0.82584 0.0
O115 O 0.84722 0.83865 0.77043 0.0
O116 O 0.82992 0.87891 0.941 0.0
O117 O 0.84154 0.85499 0.97058 0.0
C118 C 0.83842 0.87062 0.98207 0.0
C119 C 0.83652 0.79605 0.82633 0.0
C120 C 0.84997 0.85433 0.7686 0.0
C121 C 0.79745 0.84263 0.83746 0.0
O122 O 0.8064 0.831 0.81426 0.0
O123 O 0.80384 0.8539 0.87257 0.0
O124 O 0.83192 0.80394 0.77669 0.0
O125 O 0.83826 0.80465 0.87725 0.0
O126 O 0.87724 0.08845 0.55448 0.0
Cd127 Cd 0.8863 0.07583 0.63126 0.0
Cd128 Cd 0.91574 0.08029 0.56755 0.0
O129 O 0.90151 0.09725 0.51688 0.0
O130 O 0.86881 0.07873 0.69761 0.0
O131 O 0.89434 0.08952 0.70501 0.0
C132 C 0.87938 0.08796 0.72796 0.0
C133 C 0.94442 0.08604 0.58358 0.0
C134 C 0.88555 0.09708 0.51509 0.0
C135 C 0.9003 0.04521 0.57445 0.0
O136 O 0.91074 0.05529 0.54938 0.0
O137 O 0.89003 0.05047 0.61582 0.0
O138 O 0.93839 0.08285 0.5288 0.0
O139 O 0.93402 0.08651 0.63011 0.0
O140 O 0.66538 0.13502 0.31503 0.0
Cd141 Cd 0.6781 0.1429 0.39442 0.0
Cd142 Cd 0.67174 0.17386 0.33182 0.0
O143 O 0.65295 0.15917 0.29465 0.0
O144 O 0.67919 0.12243 0.4488 0.0
O145 O 0.66466 0.14503 0.47484 0.0
C146 C 0.66918 0.12981 0.48756 0.0
C147 C 0.66637 0.20295 0.33112 0.0
C148 C 0.65437 0.14348 0.28558 0.0
C149 C 0.70719 0.1598 0.33666 0.0
O150 O 0.69633 0.16841 0.30711 0.0
O151 O 0.70282 0.15038 0.38209 0.0
O152 O 0.66847 0.19445 0.28041 0.0
O153 O 0.66698 0.19488 0.38366 0.0
O154 O 0.61826 0.90884 0.05156 0.0
Cd155 Cd 0.61251 0.92259 0.13001 0.0
Cd156 Cd 0.58078 0.92049 0.07794 0.0
O157 O 0.59235 0.90203 0.02495 0.0
O158 O 0.63161 0.91889 0.18909 0.0
O159 O 0.60573 0.91026 0.20876 0.0
C160 C 0.62134 0.91093 0.22532 0.0
C161 C 0.55193 0.91672 0.09699 0.0
C162 C 0.6081 0.9007 0.01715 0.0
C163 C 0.59929 0.95423 0.07772 0.0
O164 O 0.58724 0.94517 0.05792 0.0
O165 O 0.61042 0.94803 0.11375 0.0
O166 O 0.55778 0.91975 0.04186 0.0
O167 O 0.56256 0.91552 0.14254 0.0
O168 O 0.8387 0.13914 0.19067 0.0
Cd169 Cd 0.82616 0.14712 0.11115 0.0
Cd170 Cd 0.83215 0.17801 0.17617 0.0
O171 O 0.85076 0.16329 0.2143 0.0
O172 O 0.82458 0.12635 0.05855 0.0
O173 O 0.83942 0.14851 0.02996 0.0
C174 C 0.83455 0.13333 0.01868 0.0
C175 C 0.83806 0.20702 0.17602 0.0
C176 C 0.84941 0.14754 0.22187 0.0
C177 C 0.79683 0.16359 0.16926 0.0
O178 O 0.80747 0.17231 0.19961 0.0
O179 O 0.80145 0.15443 0.12347 0.0
O180 O 0.83548 0.19874 0.22694 0.0
O181 O 0.8374 0.19882 0.12377 0.0
O182 O 0.6235 0.08637 0.95181 0.0
Cd183 Cd 0.61383 0.07487 0.87393 0.0
Cd184 Cd 0.58316 0.08145 0.93698 0.0
O185 O 0.59956 0.09558 0.99133 0.0
O186 O 0.63153 0.07679 0.80776 0.0
O187 O 0.60687 0.08949 0.80117 0.0
C188 C 0.62167 0.08691 0.77801 0.0
C189 C 0.55493 0.0903 0.93609 0.0
C190 C 0.61551 0.09472 0.99287 0.0
C191 C 0.59536 0.04509 0.92082 0.0
O192 O 0.585 0.05559 0.94359 0.0
O193 O 0.60771 0.04992 0.88752 0.0
O194 O 0.56218 0.08497 0.98615 0.0
O195 O 0.56383 0.09115 0.88553 0.0
O196 O 0.66683 0.8683 0.6888 0.0
Cd197 Cd 0.6786 0.85791 0.61157 0.0
Cd198 Cd 0.67191 0.83009 0.68166 0.0
O199 O 0.65436 0.84536 0.72328 0.0
O200 O 0.68034 0.87705 0.55118 0.0
O201 O 0.66461 0.85469 0.53304 0.0
C202 C 0.66977 0.86936 0.51553 0.0
C203 C 0.66555 0.80177 0.6626 0.0
C204 C 0.65641 0.86117 0.72539 0.0
C205 C 0.70749 0.84208 0.67389 0.0
O206 O 0.69654 0.83464 0.70711 0.0
O207 O 0.70318 0.85018 0.62499 0.0
O208 O 0.66747 0.80755 0.71866 0.0
O209 O 0.66674 0.81226 0.61648 0.0
O210 O 0.88802 0.9075 0.45531 0.0
Cd211 Cd 0.89308 0.92188 0.37749 0.0
Cd212 Cd 0.92633 0.92234 0.43085 0.0
O213 O 0.91325 0.90911 0.49837 0.0
O214 O 0.87413 0.91798 0.31745 0.0
O215 O 0.90022 0.9099 0.29837 0.0
C216 C 0.88465 0.91038 0.28114 0.0
C217 C 0.95517 0.91609 0.42774 0.0
C218 C 0.89807 0.90427 0.5 0.0
C219 C 0.90799 0.95539 0.41275 0.0
O220 O 0.92144 0.94759 0.42574 0.0
O221 O 0.895 0.94761 0.39358 0.0
O222 O 0.94821 0.92304 0.47549 0.0
O223 O 0.94576 0.91249 0.38029 0.0
O224 O 0.6635 0.63398 0.67634 0.0
Cd225 Cd 0.67526 0.64459 0.59962 0.0
Cd226 Cd 0.67035 0.67268 0.67525 0.0
O227 O 0.65256 0.65724 0.71474 0.0
O228 O 0.67369 0.62688 0.53312 0.0
O229 O 0.6607 0.65134 0.52616 0.0
C230 C 0.6635 0.63658 0.50307 0.0
C231 C 0.6648 0.70174 0.6786 0.0
C232 C 0.65372 0.64134 0.71465 0.0
C233 C 0.70541 0.6582 0.66053 0.0
O234 O 0.69507 0.66644 0.69395 0.0
O235 O 0.70046 0.65027 0.61203 0.0
O236 O 0.66768 0.6931 0.72847 0.0
O237 O 0.66481 0.69386 0.6256 0.0
O238 O 0.61222 0.40915 0.95607 0.0
Cd239 Cd 0.60783 0.42433 0.87937 0.0
Cd240 Cd 0.57442 0.42571 0.93463 0.0
O241 O 0.58683 0.41068 0.99795 0.0
O242 O 0.62715 0.42052 0.82075 0.0
O243 O 0.60107 0.41313 0.79812 0.0
C244 C 0.61676 0.41346 0.78249 0.0
C245 C 0.54519 0.42101 0.93351 0.0
C246 C 0.60187 0.40545 0.99939 0.0
C247 C 0.59461 0.4581 0.92217 0.0
O248 O 0.58104 0.45063 0.93654 0.0
O249 O 0.60678 0.45003 0.8977 0.0
O250 O 0.55285 0.42713 0.98133 0.0
O251 O 0.55407 0.41756 0.88452 0.0
O252 O 0.8365 0.3741 0.18959 0.0
Cd253 Cd 0.82375 0.36509 0.11347 0.0
Cd254 Cd 0.83115 0.3348 0.16865 0.0
O255 O 0.84699 0.3499 0.22147 0.0
O256 O 0.82579 0.38244 0.04618 0.0
O257 O 0.83751 0.35724 0.03999 0.0
C258 C 0.83539 0.37207 0.01632 0.0
C259 C 0.83903 0.3067 0.15159 0.0
C260 C 0.84592 0.36578 0.22632 0.0
C261 C 0.79477 0.34728 0.16711 0.0
O262 O 0.80572 0.3369 0.18647 0.0
O263 O 0.7989 0.35948 0.13176 0.0
O264 O 0.8356 0.31239 0.20662 0.0
O265 O 0.83871 0.3172 0.10535 0.0
O266 O 0.88778 0.59484 0.4494 0.0
Cd267 Cd 0.89414 0.57877 0.37796 0.0
Cd268 Cd 0.92603 0.57963 0.44705 0.0
O269 O 0.91183 0.59563 0.50148 0.0
O270 O 0.87462 0.58084 0.31947 0.0
O271 O 0.90017 0.58946 0.29492 0.0
C272 C 0.88445 0.58832 0.28035 0.0
C273 C 0.95504 0.58535 0.44724 0.0
C274 C 0.89665 0.60011 0.49481 0.0
C275 C 0.90748 0.54626 0.43269 0.0
O276 O 0.92003 0.55456 0.45263 0.0
O277 O 0.89597 0.55339 0.40074 0.0
O278 O 0.94725 0.58013 0.49636 0.0
O279 O 0.94638 0.5874 0.39658 0.0
O280 O 0.65566 0.36861 0.3093 0.0
Cd281 Cd 0.67208 0.36529 0.38303 0.0
Cd282 Cd 0.67254 0.3316 0.33499 0.0
O283 O 0.65615 0.34259 0.2727 0.0
O284 O 0.67014 0.38603 0.43576 0.0
O285 O 0.66221 0.36095 0.4692 0.0
C286 C 0.66357 0.3769 0.47928 0.0
C287 C 0.66787 0.30282 0.35375 0.0
C288 C 0.65106 0.35768 0.2693 0.0
C289 C 0.70492 0.35165 0.33229 0.0
O290 O 0.69727 0.33793 0.32181 0.0
O291 O 0.69734 0.36394 0.3581 0.0
O292 O 0.6725 0.30844 0.2999 0.0
O293 O 0.66578 0.31359 0.39836 0.0
O294 O 0.887 0.41078 0.55353 0.0
Cd295 Cd 0.8932 0.42492 0.63025 0.0
Cd296 Cd 0.92713 0.41805 0.57745 0.0
O297 O 0.91222 0.40133 0.52775 0.0
O298 O 0.87215 0.42605 0.68127 0.0
O299 O 0.89509 0.41311 0.71412 0.0
C300 C 0.87956 0.41712 0.72349 0.0
C301 C 0.95596 0.41116 0.57628 0.0
C302 C 0.89638 0.40145 0.52028 0.0
C303 C 0.91232 0.45408 0.57941 0.0
O304 O 0.9236 0.44359 0.56361 0.0
O305 O 0.8994 0.44947 0.60995 0.0
O306 O 0.9479 0.41525 0.52638 0.0
O307 O 0.94764 0.41065 0.62826 0.0
O308 O 0.84014 0.62954 0.82472 0.0
Cd309 Cd 0.82438 0.63759 0.89576 0.0
Cd310 Cd 0.82891 0.668 0.83096 0.0
O311 O 0.84684 0.65433 0.7851 0.0
O312 O 0.82376 0.61819 0.95527 0.0
O313 O 0.83593 0.64242 0.97826 0.0
C314 C 0.83253 0.62709 0.99373 0.0
C315 C 0.83479 0.69641 0.84968 0.0
C316 C 0.84863 0.6385 0.78684 0.0
C317 C 0.79435 0.65276 0.83145 0.0
O318 O 0.80452 0.66299 0.80608 0.0
O319 O 0.7993 0.64262 0.87388 0.0
O320 O 0.83233 0.69063 0.794 0.0
O321 O 0.83416 0.68593 0.89592 0.0
O322 O 0.61492 0.59353 0.0398 0.0
Cd323 Cd 0.60916 0.57966 0.11777 0.0
Cd324 Cd 0.57519 0.58633 0.06973 0.0
O325 O 0.58951 0.60324 0.01851 0.0
O326 O 0.63001 0.57946 0.17015 0.0
O327 O 0.60655 0.59194 0.20037 0.0
C328 C 0.62214 0.58845 0.21106 0.0
C329 C 0.54626 0.5929 0.07318 0.0
C330 C 0.60523 0.60297 0.00825 0.0
C331 C 0.59021 0.55037 0.06864 0.0
O332 O 0.57884 0.56089 0.05403 0.0
O333 O 0.60323 0.55496 0.0987 0.0
O334 O 0.55384 0.58902 0.02199 0.0
O335 O 0.55515 0.59344 0.1238 0.0
O336 O 0.33166 0.36903 0.31104 0.0
Cd337 Cd 0.31903 0.35933 0.38652 0.0
Cd338 Cd 0.32438 0.33022 0.32107 0.0
O339 O 0.3409 0.34519 0.27115 0.0
O340 O 0.32068 0.37719 0.45209 0.0
O341 O 0.33264 0.35224 0.46185 0.0
C342 C 0.33023 0.36721 0.48373 0.0
C343 C 0.33146 0.30185 0.336 0.0
C344 C 0.34048 0.36115 0.27105 0.0
C345 C 0.28886 0.34435 0.32849 0.0
O346 O 0.29914 0.33415 0.30331 0.0
O347 O 0.2939 0.35484 0.36948 0.0
O348 O 0.32791 0.30786 0.28149 0.0
O349 O 0.33146 0.31212 0.38298 0.0
O350 O 0.37936 0.58543 0.07103 0.0
Cd351 Cd 0.38779 0.57276 0.1484 0.0
Cd352 Cd 0.41916 0.57948 0.09248 0.0
O353 O 0.40394 0.59449 0.03678 0.0
O354 O 0.36862 0.57281 0.20902 0.0
O355 O 0.39246 0.58627 0.22688 0.0
C356 C 0.37735 0.58263 0.24448 0.0
C357 C 0.4471 0.58837 0.10718 0.0
C358 C 0.38801 0.594 0.03251 0.0
C359 C 0.4064 0.54327 0.09812 0.0
O360 O 0.41728 0.5538 0.07913 0.0
O361 O 0.39384 0.54797 0.13058 0.0
O362 O 0.44144 0.58389 0.05317 0.0
O363 O 0.43673 0.5883 0.1538 0.0
O364 O 0.17007 0.63497 0.82397 0.0
Cd365 Cd 0.18128 0.64489 0.90329 0.0
Cd366 Cd 0.17478 0.67471 0.83079 0.0
O367 O 0.15875 0.65825 0.78687 0.0
O368 O 0.18259 0.62531 0.96238 0.0
O369 O 0.16675 0.64749 0.98117 0.0
C370 C 0.17177 0.63271 0.99783 0.0
C371 C 0.16679 0.70324 0.82695 0.0
C372 C 0.16045 0.6424 0.78524 0.0
C373 C 0.21071 0.66236 0.84726 0.0
O374 O 0.2001 0.6707 0.81539 0.0
O375 O 0.20595 0.65289 0.89212 0.0
O376 O 0.17099 0.69498 0.77755 0.0
O377 O 0.16694 0.69531 0.87983 0.0
O378 O 0.12187 0.41444 0.55144 0.0
Cd379 Cd 0.11181 0.42734 0.62655 0.0
Cd380 Cd 0.08377 0.41977 0.56621 0.0
O381 O 0.09843 0.40168 0.52445 0.0
O382 O 0.12859 0.42561 0.69617 0.0
O383 O 0.10362 0.41337 0.69912 0.0
C384 C 0.11819 0.41574 0.7246 0.0
C385 C 0.05564 0.41335 0.58897 0.0
C386 C 0.11418 0.40355 0.51856 0.0
C387 C 0.09655 0.45553 0.56027 0.0
O388 O 0.08794 0.44398 0.53452 0.0
O389 O 0.10572 0.45222 0.60769 0.0
O390 O 0.06105 0.41473 0.53222 0.0
O391 O 0.06637 0.41527 0.63391 0.0
O392 O 0.34289 0.63774 0.70724 0.0
Cd393 Cd 0.33078 0.64667 0.62822 0.0
Cd394 Cd 0.33666 0.67654 0.69366 0.0
O395 O 0.3549 0.66167 0.73356 0.0
O396 O 0.33155 0.62751 0.56739 0.0
O397 O 0.3449 0.65148 0.55146 0.0
C398 C 0.3416 0.63634 0.53321 0.0
C399 C 0.34294 0.70541 0.69024 0.0
C400 C 0.35347 0.64589 0.73989 0.0
C401 C 0.30119 0.66264 0.68556 0.0
O402 O 0.31183 0.67129 0.7162 0.0
O403 O 0.30587 0.65345 0.63988 0.0
O404 O 0.34029 0.6976 0.74215 0.0
O405 O 0.34214 0.69681 0.63892 0.0
O406 O 0.12117 0.59319 0.46087 0.0
Cd407 Cd 0.11332 0.57987 0.38291 0.0
Cd408 Cd 0.08361 0.58635 0.43867 0.0
O409 O 0.09698 0.60578 0.47806 0.0
O410 O 0.13191 0.58175 0.31989 0.0
O411 O 0.10688 0.59323 0.30607 0.0
C412 C 0.12211 0.59107 0.28642 0.0
C413 C 0.05475 0.59049 0.42121 0.0
C414 C 0.11256 0.60429 0.48922 0.0
C415 C 0.09835 0.55131 0.44706 0.0
O416 O 0.08931 0.56261 0.47222 0.0
O417 O 0.10761 0.55482 0.40009 0.0
O418 O 0.06105 0.58972 0.47675 0.0
O419 O 0.06497 0.58937 0.3743 0.0
O420 O 0.1566 0.36199 0.18813 0.0
Cd421 Cd 0.17026 0.35621 0.10972 0.0
Cd422 Cd 0.16431 0.32175 0.16343 0.0
O423 O 0.14817 0.33655 0.21629 0.0
O424 O 0.1712 0.37769 0.06069 0.0
O425 O 0.15822 0.355 0.0259 0.0
C426 C 0.16222 0.37059 0.01791 0.0
C427 C 0.15775 0.29277 0.16589 0.0
C428 C 0.14802 0.35241 0.2234 0.0
C429 C 0.19999 0.33724 0.15799 0.0
O430 O 0.18989 0.32564 0.17407 0.0
O431 O 0.19493 0.35022 0.12873 0.0
O432 O 0.16233 0.30093 0.21496 0.0
O433 O 0.15652 0.30107 0.11404 0.0
O434 O 0.37854 0.40937 0.9458 0.0
Cd435 Cd 0.38401 0.42403 0.8694 0.0
Cd436 Cd 0.41657 0.42004 0.92113 0.0
O437 O 0.40426 0.40119 0.96974 0.0
O438 O 0.36306 0.42357 0.81785 0.0
O439 O 0.387 0.41251 0.7854 0.0
C440 C 0.37123 0.41533 0.77571 0.0
C441 C 0.44552 0.41594 0.90524 0.0
C442 C 0.38849 0.40034 0.97789 0.0
C443 C 0.39915 0.45436 0.92724 0.0
O444 O 0.41084 0.44462 0.9454 0.0
O445 O 0.38775 0.44904 0.89043 0.0
O446 O 0.43918 0.41832 0.96002 0.0
O447 O 0.43532 0.41548 0.85817 0.0
H448 H 0.27801 0.17548 0.26927 0.0
H449 H 0.28062 0.12271 0.31505 0.0
H450 H 0.25301 0.11826 0.26721 0.0
H451 H 0.22814 0.12942 0.21128 0.0
H452 H 0.22507 0.18249 0.17222 0.0
H453 H 0.25301 0.18673 0.2173 0.0
C454 C 0.27253 0.163 0.26912 0.0
C455 C 0.28142 0.14945 0.29568 0.0
C456 C 0.25667 0.16055 0.24178 0.0
C457 C 0.27403 0.1334 0.29539 0.0
C458 C 0.2583 0.13082 0.26755 0.0
C459 C 0.23375 0.14185 0.21188 0.0
C460 C 0.22475 0.1556 0.1875 0.0
C461 C 0.24956 0.14428 0.2401 0.0
C462 C 0.23188 0.17172 0.19012 0.0
C463 C 0.24779 0.17415 0.2162 0.0
H464 H 0.09417 0.96837 0.53095 0.0
H465 H 0.09965 0.98521 0.33952 0.0
H466 H 0.09731 0.01452 0.37399 0.0
H467 H 0.09335 0.03529 0.45876 0.0
H468 H 0.09097 0.01861 0.65125 0.0
H469 H 0.09248 0.98924 0.61654 0.0
C470 C 0.09484 0.97849 0.4969 0.0
C471 C 0.09687 0.97471 0.43273 0.0
C472 C 0.09403 0.99527 0.51736 0.0
C473 C 0.09807 0.98787 0.38909 0.0
C474 C 0.09668 0.00459 0.40879 0.0
C475 C 0.09313 0.02518 0.49299 0.0
C476 C 0.09181 0.029 0.55736 0.0
C477 C 0.09459 0.00843 0.47277 0.0
C478 C 0.09191 0.0159 0.60148 0.0
C479 C 0.09275 0.99915 0.58161 0.0
H480 H 0.23484 0.84143 0.86556 0.0
H481 H 0.20988 0.84203 0.68576 0.0
H482 H 0.23691 0.84279 0.63182 0.0
H483 H 0.26779 0.84344 0.63542 0.0
H484 H 0.29284 0.84031 0.81469 0.0
H485 H 0.26581 0.8403 0.86888 0.0
C486 C 0.23539 0.84171 0.81464 0.0
C487 C 0.22044 0.84172 0.77973 0.0
C488 C 0.25102 0.84166 0.7837 0.0
C489 C 0.22126 0.84191 0.71368 0.0
C490 C 0.2367 0.8424 0.68274 0.0
C491 C 0.26729 0.84272 0.68629 0.0
C492 C 0.28225 0.84192 0.72094 0.0
C493 C 0.25168 0.84229 0.7172 0.0
C494 C 0.28145 0.84083 0.78688 0.0
C495 C 0.26601 0.84089 0.818 0.0
H496 H 0.38616 0.02974 0.97987 0.0
H497 H 0.43832 0.02727 0.92627 0.0
H498 H 0.4407 0.99936 0.97333 0.0
H499 H 0.42815 0.97587 0.03069 0.0
H500 H 0.37638 0.97864 0.08996 0.0
H501 H 0.37375 0.00634 0.04103 0.0
C502 C 0.39795 0.02294 0.97785 0.0
C503 C 0.41198 0.0304 0.94886 0.0
C504 C 0.39938 0.00711 0.00698 0.0
C505 C 0.42732 0.0217 0.9479 0.0
C506 C 0.42871 0.0058 0.97506 0.0
C507 C 0.41629 0.98255 0.03333 0.0
C508 C 0.40249 0.97513 0.064 0.0
C509 C 0.41487 0.99844 0.00515 0.0
C510 C 0.38726 0.98406 0.06711 0.0
C511 C 0.3857 0.99986 0.03865 0.0
H512 H 0.78555 0.83845 0.7206 0.0
H513 H 0.76986 0.8494 0.91004 0.0
H514 H 0.74036 0.8496 0.8761 0.0
H515 H 0.71914 0.84616 0.79218 0.0
H516 H 0.73531 0.83815 0.60117 0.0
H517 H 0.76465 0.83728 0.63581 0.0
C518 C 0.77563 0.84088 0.75439 0.0
C519 C 0.77973 0.84368 0.81781 0.0
C520 C 0.75889 0.84146 0.73414 0.0
C521 C 0.76691 0.84717 0.86105 0.0
C522 C 0.7501 0.84723 0.84165 0.0
C523 C 0.72913 0.84419 0.75832 0.0
C524 C 0.72517 0.84197 0.6944 0.0
C525 C 0.74595 0.84429 0.77836 0.0
C526 C 0.73814 0.83981 0.65058 0.0
C527 C 0.75486 0.8393 0.6704 0.0
H528 H 0.88453 0.97108 0.48344 0.0
H529 H 0.93057 0.97941 0.38165 0.0
H530 H 0.9323 0.008 0.42338 0.0
H531 H 0.92158 0.02995 0.49288 0.0
H532 H 0.87643 0.02129 0.60048 0.0
H533 H 0.87368 0.99335 0.55358 0.0
C534 C 0.89469 0.97936 0.46934 0.0
C535 C 0.90723 0.97338 0.42856 0.0
C536 C 0.89598 0.99551 0.4958 0.0
C537 C 0.92066 0.98392 0.41217 0.0
C538 C 0.92173 1.00017 0.4365 0.0
C539 C 0.91114 0.02197 0.50637 0.0
C540 C 0.89927 0.02774 0.5504 0.0
C541 C 0.90964 0.00597 0.47925 0.0
C542 C 0.88584 0.01715 0.56717 0.0
C543 C 0.88418 1.00122 0.53997 0.0
H544 H 0.71858 0.16215 0.21732 0.0
H545 H 0.73541 0.15849 0.40937 0.0
H546 H 0.76471 0.16023 0.37445 0.0
H547 H 0.78549 0.16276 0.28894 0.0
H548 H 0.76868 0.16335 0.09642 0.0
H549 H 0.73936 0.16287 0.13159 0.0
C550 C 0.72869 0.16178 0.25146 0.0
C551 C 0.7249 0.16039 0.31586 0.0
C552 C 0.74545 0.16225 0.23085 0.0
C553 C 0.73806 0.15958 0.3596 0.0
C554 C 0.75478 0.16061 0.33964 0.0
C555 C 0.77537 0.16287 0.25482 0.0
C556 C 0.77915 0.16333 0.19024 0.0
C557 C 0.75861 0.16198 0.27539 0.0
C558 C 0.76601 0.16307 0.14633 0.0
C559 C 0.74928 0.16281 0.16645 0.0
H560 H 0.61965 0.02554 0.97056 0.0
H561 H 0.56737 0.02565 0.91843 0.0
H562 H 0.56388 0.99747 0.96303 0.0
H563 H 0.57553 0.97325 0.01972 0.0
H564 H 0.62732 0.9741 0.07958 0.0
H565 H 0.63111 0.00159 0.03037 0.0
C566 C 0.6076 0.0192 0.96803 0.0
C567 C 0.59386 0.02738 0.94011 0.0
C568 C 0.60553 0.00336 0.99632 0.0
C569 C 0.57815 0.01939 0.93887 0.0
C570 C 0.57614 0.00338 0.96476 0.0
C571 C 0.58764 0.97948 0.0223 0.0
C572 C 0.60112 0.9716 0.05337 0.0
C573 C 0.5897 0.99533 0.99429 0.0
C574 C 0.61668 0.97991 0.05647 0.0
C575 C 0.61891 0.99558 0.02787 0.0
H576 H 0.71632 0.65395 0.77933 0.0
H577 H 0.73382 0.65938 0.58872 0.0
H578 H 0.76303 0.65838 0.62532 0.0
H579 H 0.78347 0.65654 0.71213 0.0
H580 H 0.76594 0.64833 0.90137 0.0
H581 H 0.73675 0.64973 0.86491 0.0
C582 C 0.72657 0.65493 0.74591 0.0
C583 C 0.72303 0.65698 0.68158 0.0
C584 C 0.74323 0.65381 0.76713 0.0
C585 C 0.73632 0.65786 0.63844 0.0
C586 C 0.75297 0.65731 0.6594 0.0
C587 C 0.77322 0.65503 0.74529 0.0
C588 C 0.77676 0.65254 0.80943 0.0
C589 C 0.75656 0.65539 0.72367 0.0
C590 C 0.76347 0.65028 0.85184 0.0
C591 C 0.74682 0.65113 0.83101 0.0
H592 H 0.5702 0.47949 0.96083 0.0
H593 H 0.62367 0.47662 0.92929 0.0
H594 H 0.62722 0.50456 0.97559 0.0
H595 H 0.61509 0.52957 0.02793 0.0
H596 H 0.56149 0.53244 0.05512 0.0
H597 H 0.55808 0.50456 0.00889 0.0
C598 C 0.58265 0.48499 0.96352 0.0
C599 C 0.59665 0.47591 0.94163 0.0
C600 C 0.5846 0.50095 0.99054 0.0
C601 C 0.61265 0.48334 0.94531 0.0
C602 C 0.6147 0.49926 0.97235 0.0
C603 C 0.60271 0.52395 0.0244 0.0
C604 C 0.58858 0.53291 0.04575 0.0
C605 C 0.60079 0.50809 0.99595 0.0
C606 C 0.57256 0.52571 0.03948 0.0
C607 C 0.57059 0.50982 0.01276 0.0
H608 H 0.7255 0.32724 0.28765 0.0
H609 H 0.72304 0.38079 0.31878 0.0
H610 H 0.75003 0.38436 0.26546 0.0
H611 H 0.77428 0.37221 0.2086 0.0
H612 H 0.77707 0.31855 0.18298 0.0
H613 H 0.74979 0.31512 0.23414 0.0
C614 C 0.73089 0.33971 0.28325 0.0
C615 C 0.72221 0.35372 0.30728 0.0
C616 C 0.74634 0.34168 0.25239 0.0
C617 C 0.72947 0.36976 0.30123 0.0
C618 C 0.74485 0.37183 0.2702 0.0
C619 C 0.76873 0.35983 0.21338 0.0
C620 C 0.77746 0.34566 0.19114 0.0
C621 C 0.75331 0.3579 0.24498 0.0
C622 C 0.77044 0.32962 0.19915 0.0
C623 C 0.75492 0.32765 0.22876 0.0
H624 H 0.8876 0.47422 0.53419 0.0
H625 H 0.94076 0.47275 0.57219 0.0
H626 H 0.94404 0.50092 0.52794 0.0
H627 H 0.93187 0.52583 0.47815 0.0
H628 H 0.87898 0.52691 0.43405 0.0
H629 H 0.87557 0.49887 0.4796 0.0
C630 C 0.89984 0.4802 0.53342 0.0
C631 C 0.91389 0.4716 0.55733 0.0
C632 C 0.90172 0.49617 0.50585 0.0
C633 C 0.92977 0.47923 0.55457 0.0
C634 C 0.93165 0.49529 0.52901 0.0
C635 C 0.9196 0.5199 0.47805 0.0
C636 C 0.9057 0.5285 0.45281 0.0
C637 C 0.91774 0.50382 0.50422 0.0
C638 C 0.88992 0.52055 0.45273 0.0
C639 C 0.88793 0.50458 0.47929 0.0
H640 H 0.27218 0.32048 0.26158 0.0
H641 H 0.26651 0.37024 0.33944 0.0
H642 H 0.23913 0.37296 0.28864 0.0
H643 H 0.21686 0.36132 0.22091 0.0
H644 H 0.22148 0.3108 0.15031 0.0
H645 H 0.24937 0.30834 0.19824 0.0
C646 C 0.2649 0.33188 0.26784 0.0
C647 C 0.27142 0.34514 0.30427 0.0
C648 C 0.24912 0.33332 0.23881 0.0
C649 C 0.26176 0.35978 0.31214 0.0
C650 C 0.24616 0.36142 0.28261 0.0
C651 C 0.22415 0.3499 0.2153 0.0
C652 C 0.21742 0.33639 0.18102 0.0
C653 C 0.23979 0.34834 0.24533 0.0
C654 C 0.22662 0.32143 0.17571 0.0
C655 C 0.24247 0.31999 0.20346 0.0
H656 H 0.38143 0.52487 0.04701 0.0
H657 H 0.43405 0.52326 0.09373 0.0
H658 H 0.43654 0.49554 0.0444 0.0
H659 H 0.42385 0.47215 0.98558 0.0
H660 H 0.37171 0.47493 0.93115 0.0
H661 H 0.36899 0.50193 0.98469 0.0
C662 C 0.39335 0.51827 0.04725 0.0
C663 C 0.40746 0.52583 0.07505 0.0
C664 C 0.39483 0.50273 0.01634 0.0
C665 C 0.42299 0.5175 0.07335 0.0
C666 C 0.42443 0.50174 0.0448 0.0
C667 C 0.41191 0.4787 0.98514 0.0
C668 C 0.39801 0.4715 0.95434 0.0
C669 C 0.41047 0.49431 0.01555 0.0
C670 C 0.38266 0.48022 0.95398 0.0
C671 C 0.38105 0.49562 0.98506 0.0
H672 H 0.28929 0.66361 0.80464 0.0
H673 H 0.27334 0.66158 0.61119 0.0
H674 H 0.24388 0.66214 0.64453 0.0
H675 H 0.22273 0.66306 0.72881 0.0
H676 H 0.23856 0.662 0.92246 0.0
H677 H 0.26806 0.66277 0.88922 0.0
C678 C 0.27933 0.66336 0.76988 0.0
C679 C 0.28341 0.66276 0.70553 0.0
C680 C 0.26247 0.66311 0.78953 0.0
C681 C 0.27045 0.66208 0.66091 0.0
C682 C 0.25364 0.66242 0.67998 0.0
C683 C 0.23266 0.66309 0.76368 0.0
C684 C 0.22854 0.66272 0.828 0.0
C685 C 0.24951 0.66294 0.74413 0.0
C686 C 0.24148 0.66236 0.87275 0.0
C687 C 0.25831 0.66281 0.85372 0.0
H688 H 0.09971 0.48617 0.61701 0.0
H689 H 0.09438 0.46244 0.436 0.0
H690 H 0.09558 0.48976 0.38404 0.0
H691 H 0.09771 0.52067 0.38982 0.0
H692 H 0.10004 0.54457 0.57128 0.0
H693 H 0.10052 0.51715 0.62309 0.0
C694 C 0.09883 0.48704 0.56625 0.0
C695 C 0.09698 0.47233 0.53045 0.0
C696 C 0.09901 0.50288 0.53665 0.0
C697 C 0.09569 0.47361 0.46468 0.0
C698 C 0.09644 0.48923 0.43483 0.0
C699 C 0.09841 0.51979 0.44062 0.0
C700 C 0.09895 0.53454 0.47672 0.0
C701 C 0.09805 0.50397 0.47028 0.0
C702 C 0.09959 0.53333 0.54259 0.0
C703 C 0.09987 0.51766 0.57226 0.0
H704 H 0.13842 0.13159 0.96476 0.0
H705 H 0.1813 0.09879 0.94845 0.0
H706 H 0.16849 0.08487 0.85808 0.0
H707 H 0.14498 0.08165 0.78464 0.0
H708 H 0.10132 0.11334 0.80345 0.0
H709 H 0.11443 0.12788 0.89212 0.0
C710 C 0.14501 0.12152 0.94093 0.0
C711 C 0.16087 0.11634 0.96293 0.0
C712 C 0.13734 0.11322 0.88989 0.0
C713 C 0.16912 0.10305 0.93234 0.0
C714 C 0.16178 0.09505 0.88074 0.0
C715 C 0.13828 0.0917 0.80821 0.0
C716 C 0.12216 0.09637 0.78729 0.0
C717 C 0.14585 0.09994 0.85938 0.0
C718 C 0.11368 0.1094 0.81868 0.0
C719 C 0.12122 0.1178 0.86924 0.0
H720 H 0.17422 0.89448 0.0438 0.0
H721 H 0.13975 0.85264 0.04175 0.0
H722 H 0.12418 0.86498 0.12941 0.0
H723 H 0.11996 0.88809 0.20557 0.0
H724 H 0.15523 0.92924 0.20947 0.0
H725 H 0.17071 0.91686 0.12195 0.0
C726 C 0.16337 0.88797 0.06277 0.0
C727 C 0.15819 0.87264 0.03606 0.0
C728 C 0.15448 0.89514 0.11319 0.0
C729 C 0.14411 0.8644 0.06149 0.0
C730 C 0.13511 0.87151 0.11144 0.0
C731 C 0.13097 0.89438 0.18689 0.0
C732 C 0.13633 0.90966 0.21364 0.0
C733 C 0.14008 0.88697 0.1373 0.0
C734 C 0.15079 0.91751 0.18966 0.0
C735 C 0.15968 0.91042 0.13966 0.0
H736 H 0.34919 0.9157 0.28243 0.0
H737 H 0.39699 0.89075 0.30243 0.0
H738 H 0.38598 0.87439 0.39065 0.0
H739 H 0.36273 0.8673 0.46299 0.0
H740 H 0.31555 0.89348 0.44589 0.0
H741 H 0.32625 0.90902 0.35528 0.0
C742 C 0.35724 0.90673 0.30616 0.0
C743 C 0.37391 0.90449 0.28576 0.0
C744 C 0.35086 0.89744 0.3571 0.0
C745 C 0.38414 0.89282 0.31729 0.0
C746 C 0.37782 0.88338 0.36759 0.0
C747 C 0.35475 0.87625 0.43884 0.0
C748 C 0.3383 0.87911 0.46069 0.0
C749 C 0.36118 0.88554 0.38782 0.0
C750 C 0.32821 0.891 0.4298 0.0
C751 C 0.33435 0.89994 0.37812 0.0
H752 H 0.38648 0.11411 0.71111 0.0
H753 H 0.35786 0.06821 0.702 0.0
H754 H 0.34225 0.07897 0.61136 0.0
H755 H 0.33662 0.10156 0.5353 0.0
H756 H 0.36367 0.14839 0.54962 0.0
H757 H 0.37978 0.13732 0.63825 0.0
C758 C 0.37697 0.10642 0.68862 0.0
C759 C 0.37351 0.09028 0.71218 0.0
C760 C 0.36759 0.11298 0.63819 0.0
C761 C 0.36083 0.0806 0.68405 0.0
C762 C 0.35187 0.08678 0.63251 0.0
C763 C 0.34595 0.10939 0.55811 0.0
C764 C 0.34894 0.12578 0.53579 0.0
C765 C 0.35507 0.103 0.60941 0.0
C766 C 0.36102 0.13578 0.56611 0.0
C767 C 0.37034 0.12941 0.61651 0.0
H768 H 0.86753 0.86467 0.04578 0.0
H769 H 0.82333 0.89594 0.04588 0.0
H770 H 0.8337 0.91101 0.13812 0.0
H771 H 0.85538 0.91548 0.21845 0.0
H772 H 0.90062 0.88571 0.21449 0.0
H773 H 0.88995 0.87006 0.12388 0.0
C774 C 0.86015 0.87469 0.06645 0.0
C775 C 0.8446 0.87907 0.03958 0.0
C776 C 0.86646 0.8837 0.1184 0.0
C777 C 0.8353 0.89231 0.06591 0.0
C778 C 0.84124 0.90095 0.11857 0.0
C779 C 0.86294 0.9056 0.19763 0.0
C780 C 0.87875 0.90175 0.22336 0.0
C781 C 0.85682 0.89681 0.14506 0.0
C782 C 0.88844 0.889 0.19546 0.0
C783 C 0.8823 0.87997 0.14382 0.0
H784 H 0.86383 0.13751 0.95366 0.0
H785 H 0.81884 0.10735 0.96062 0.0
H786 H 0.82891 0.09043 0.87269 0.0
H787 H 0.85041 0.08412 0.79383 0.0
H788 H 0.8961 0.11326 0.78891 0.0
H789 H 0.88599 0.13045 0.87642 0.0
C790 C 0.8562 0.12732 0.93549 0.0
C791 C 0.84053 0.1238 0.96321 0.0
C792 C 0.86228 0.11732 0.88574 0.0
C793 C 0.83091 0.11036 0.93998 0.0
C794 C 0.83668 0.10064 0.88978 0.0
C795 C 0.85823 0.09417 0.81208 0.0
C796 C 0.87399 0.09738 0.78471 0.0
C797 C 0.85236 0.10396 0.86245 0.0
C798 C 0.88395 0.11043 0.80923 0.0
C799 C 0.87813 0.12034 0.85907 0.0
H800 H 0.65061 0.08171 0.71313 0.0
H801 H 0.60644 0.11306 0.71665 0.0
H802 H 0.61753 0.12966 0.62919 0.0
H803 H 0.64007 0.13549 0.55211 0.0
H804 H 0.68357 0.10323 0.54674 0.0
H805 H 0.67256 0.08693 0.63478 0.0
C806 C 0.64335 0.09211 0.69462 0.0
C807 C 0.6277 0.09611 0.72157 0.0
C808 C 0.64978 0.10157 0.64427 0.0
C809 C 0.61847 0.10963 0.6967 0.0
C810 C 0.62486 0.1192 0.64686 0.0
C811 C 0.64718 0.12498 0.57065 0.0
C812 C 0.6627 0.12068 0.54326 0.0
C813 C 0.64057 0.11537 0.62053 0.0
C814 C 0.67163 0.10684 0.56705 0.0
C815 C 0.66532 0.09748 0.61734 0.0
H816 H 0.6392 0.86522 0.45983 0.0
H817 H 0.6858 0.89255 0.44389 0.0
H818 H 0.67488 0.90791 0.35333 0.0
H819 H 0.65204 0.91391 0.27962 0.0
H820 H 0.60478 0.88783 0.29799 0.0
H821 H 0.61589 0.87184 0.38699 0.0
C822 C 0.64699 0.87441 0.436 0.0
C823 C 0.66334 0.87763 0.45808 0.0
C824 C 0.64044 0.88357 0.38491 0.0
C825 C 0.6732 0.88981 0.42762 0.0
C826 C 0.66695 0.89863 0.37595 0.0
C827 C 0.64413 0.90477 0.30318 0.0
C828 C 0.6276 0.90208 0.28207 0.0
C829 C 0.65056 0.89571 0.35447 0.0
C830 C 0.61752 0.89023 0.31342 0.0
C831 C 0.6239 0.88101 0.36414 0.0
H832 H 0.66986 0.60815 0.43635 0.0
H833 H 0.63663 0.65092 0.44326 0.0
H834 H 0.62034 0.63943 0.35576 0.0
H835 H 0.61531 0.61694 0.2777 0.0
H836 H 0.6495 0.575 0.26829 0.0
H837 H 0.66548 0.58633 0.35663 0.0
C838 C 0.65911 0.61503 0.41854 0.0
C839 C 0.6545 0.63039 0.44647 0.0
C840 C 0.64984 0.60838 0.36808 0.0
C841 C 0.64055 0.63913 0.42251 0.0
C842 C 0.63115 0.63251 0.37267 0.0
C843 C 0.62617 0.61023 0.29545 0.0
C844 C 0.63111 0.59505 0.2669 0.0
C845 C 0.6356 0.61707 0.34535 0.0
C846 C 0.6454 0.58666 0.28957 0.0
C847 C 0.65458 0.59316 0.34 0.0
H848 H 0.64577 0.41987 0.71966 0.0
H849 H 0.6016 0.38853 0.7149 0.0
H850 H 0.61267 0.37361 0.62322 0.0
H851 H 0.63509 0.36939 0.54418 0.0
H852 H 0.67796 0.40247 0.54395 0.0
H853 H 0.66738 0.41665 0.63796 0.0
C854 C 0.63854 0.40981 0.69841 0.0
C855 C 0.6229 0.40529 0.7242 0.0
C856 C 0.64485 0.40149 0.64507 0.0
C857 C 0.61362 0.39232 0.69577 0.0
C858 C 0.62 0.38372 0.64355 0.0
C859 C 0.64215 0.37961 0.56523 0.0
C860 C 0.6574 0.38475 0.53789 0.0
C861 C 0.63564 0.38813 0.61794 0.0
C862 C 0.66625 0.39825 0.56451 0.0
C863 C 0.66018 0.40638 0.61812 0.0
H864 H 0.88483 0.38856 0.79142 0.0
H865 H 0.85278 0.43211 0.77912 0.0
H866 H 0.83606 0.42186 0.86743 0.0
H867 H 0.83045 0.40053 0.94802 0.0
H868 H 0.86148 0.35616 0.95748 0.0
H869 H 0.87848 0.36656 0.86999 0.0
C870 C 0.87427 0.39585 0.80854 0.0
C871 C 0.87016 0.41117 0.77927 0.0
C872 C 0.86439 0.38963 0.85833 0.0
C873 C 0.85625 0.42033 0.80105 0.0
C874 C 0.84664 0.41445 0.85143 0.0
C875 C 0.84086 0.39306 0.93073 0.0
C876 C 0.84467 0.37758 0.9594 0.0
C877 C 0.85055 0.39909 0.88026 0.0
C878 C 0.85819 0.36807 0.93613 0.0
C879 C 0.868 0.37406 0.88631 0.0
H880 H 0.85358 0.58372 0.22883 0.0
H881 H 0.89961 0.6116 0.20457 0.0
H882 H 0.88715 0.62704 0.11677 0.0
H883 H 0.86301 0.63274 0.04695 0.0
H884 H 0.81778 0.60345 0.06728 0.0
H885 H 0.82995 0.58866 0.15717 0.0
C886 C 0.86094 0.59311 0.20413 0.0
C887 C 0.87752 0.59649 0.2233 0.0
C888 C 0.85373 0.60186 0.15349 0.0
C889 C 0.88687 0.60865 0.19055 0.0
C890 C 0.87971 0.61758 0.1406 0.0
C891 C 0.85578 0.62327 0.07173 0.0
C892 C 0.83943 0.61935 0.05132 0.0
C893 C 0.8631 0.61438 0.12194 0.0
C894 C 0.83033 0.60676 0.0826 0.0
C895 C 0.83731 0.59825 0.13375 0.0
H896 H 0.3239 0.39571 0.54966 0.0
H897 H 0.35672 0.35261 0.54492 0.0
H898 H 0.37297 0.36413 0.63251 0.0
H899 H 0.37809 0.38677 0.7099 0.0
H900 H 0.34417 0.42895 0.71752 0.0
H901 H 0.32828 0.41762 0.62894 0.0
C902 C 0.33455 0.38877 0.56799 0.0
C903 C 0.33908 0.37332 0.54067 0.0
C904 C 0.34377 0.39542 0.61848 0.0
C905 C 0.35288 0.36447 0.56527 0.0
C906 C 0.36225 0.37111 0.61512 0.0
C907 C 0.36731 0.39352 0.69164 0.0
C908 C 0.36241 0.40877 0.71964 0.0
C909 C 0.35791 0.38666 0.64178 0.0
C910 C 0.34822 0.41724 0.69651 0.0
C911 C 0.3391 0.41074 0.646 0.0
H912 H 0.33449 0.6064 0.47769 0.0
H913 H 0.36733 0.64935 0.46287 0.0
H914 H 0.382 0.63613 0.37476 0.0
H915 H 0.38551 0.61224 0.30159 0.0
H916 H 0.35168 0.57002 0.31415 0.0
H917 H 0.33756 0.58296 0.40379 0.0
C918 C 0.34481 0.61292 0.4551 0.0
C919 C 0.34978 0.62887 0.47698 0.0
C920 C 0.35314 0.60528 0.40431 0.0
C921 C 0.36317 0.63712 0.44688 0.0
C922 C 0.37163 0.62952 0.39665 0.0
C923 C 0.37517 0.60581 0.32446 0.0
C924 C 0.36975 0.59011 0.3016 0.0
C925 C 0.36678 0.61356 0.37511 0.0
C926 C 0.35612 0.58208 0.33094 0.0
C927 C 0.34801 0.5895 0.38211 0.0
H928 H 0.14151 0.63772 0.05569 0.0
H929 H 0.18657 0.60776 0.06505 0.0
H930 H 0.17511 0.59207 0.15385 0.0
H931 H 0.15229 0.58666 0.22863 0.0
H932 H 0.10661 0.61563 0.21727 0.0
H933 H 0.11818 0.63169 0.12928 0.0
C934 C 0.14886 0.62786 0.07761 0.0
C935 C 0.16495 0.62403 0.0541 0.0
C936 C 0.142 0.61855 0.12791 0.0
C937 C 0.17419 0.61101 0.08229 0.0
C938 C 0.16763 0.60199 0.13303 0.0
C939 C 0.1448 0.59642 0.20675 0.0
C940 C 0.12858 0.59989 0.2297 0.0
C941 C 0.15152 0.60558 0.15604 0.0
C942 C 0.11909 0.61259 0.2005 0.0
C943 C 0.12574 0.62186 0.15032 0.0
H944 H 0.1461 0.42084 0.79601 0.0
H945 H 0.10224 0.38924 0.78087 0.0
H946 H 0.1123 0.37199 0.8682 0.0
H947 H 0.13395 0.36548 0.9479 0.0
H948 H 0.17701 0.39803 0.96578 0.0
H949 H 0.16699 0.41514 0.87815 0.0
C950 C 0.13866 0.41026 0.81206 0.0
C951 C 0.12343 0.40636 0.78175 0.0
C952 C 0.1445 0.40041 0.86247 0.0
C953 C 0.11396 0.39261 0.80345 0.0
C954 C 0.11976 0.38265 0.8532 0.0
C955 C 0.14118 0.37624 0.93221 0.0
C956 C 0.1563 0.38036 0.96285 0.0
C957 C 0.1351 0.38633 0.8827 0.0
C958 C 0.16537 0.39454 0.94283 0.0
C959 C 0.15963 0.40436 0.8928 0.0
H960 H 0.15689 0.26955 0.07029 0.0
H961 H 0.15241 0.27471 0.2716 0.0
H962 H 0.15151 0.24435 0.28332 0.0
H963 H 0.1547 0.21645 0.23846 0.0
H964 H 0.15994 0.21036 0.03806 0.0
H965 H 0.15759 0.24087 0.02384 0.0
C966 C 0.15544 0.264 0.1165 0.0
C967 C 0.1549 0.27441 0.17002 0.0
C968 C 0.15519 0.24635 0.1232 0.0
C969 C 0.15304 0.26702 0.22965 0.0
C970 C 0.15253 0.24963 0.2365 0.0
C971 C 0.15515 0.22174 0.19149 0.0
C972 C 0.15768 0.21116 0.13949 0.0
C973 C 0.15404 0.23919 0.18388 0.0
C974 C 0.15802 0.21824 0.07895 0.0
C975 C 0.15677 0.23569 0.07085 0.0
H976 H 0.9769 0.91446 0.32794 0.0
H977 H 0.97434 0.91082 0.53011 0.0
H978 H 0.00478 0.90909 0.53622 0.0
H979 H 0.03201 0.91105 0.48604 0.0
H980 H 0.03566 0.916 0.28464 0.0
H981 H 0.00494 0.91463 0.27616 0.0
C982 C 0.98306 0.91301 0.37307 0.0
C983 C 0.97342 0.91288 0.42853 0.0
C984 C 1.00073 0.91242 0.37646 0.0
C985 C 0.9815 0.91111 0.48682 0.0
C986 C 0.99891 0.91013 0.49042 0.0
C987 C 0.02615 0.91171 0.44008 0.0
C988 C 0.0361 0.9138 0.38612 0.0
C989 C 0.00863 0.91119 0.43579 0.0
C990 C 0.02827 0.91445 0.32697 0.0
C991 C 0.01071 0.91371 0.32215 0.0
H992 H 0.35129 0.78221 0.74961 0.0
H993 H 0.33956 0.78661 0.5524 0.0
H994 H 0.34001 0.75593 0.5421 0.0
H995 H 0.34117 0.72775 0.59211 0.0
H996 H 0.35192 0.72426 0.7906 0.0
H997 H 0.35445 0.75464 0.7972 0.0
C998 C 0.34901 0.77651 0.7041 0.0
C999 C 0.34525 0.7867 0.652 0.0
C1000 C 0.34897 0.75897 0.69887 0.0
C1001 C 0.34247 0.77906 0.59333 0.0
C1002 C 0.34264 0.76151 0.5875 0.0
C1003 C 0.34429 0.73366 0.63652 0.0
C1004 C 0.34619 0.72373 0.69089 0.0
C1005 C 0.34548 0.75131 0.64035 0.0
C1006 C 0.35021 0.73157 0.74815 0.0
C1007 C 0.35168 0.74898 0.75205 0.0
H1008 H 0.47818 0.09636 0.99672 0.0
H1009 H 0.47412 0.09025 0.79596 0.0
H1010 H 0.50479 0.09167 0.78628 0.0
H1011 H 0.5329 0.09175 0.83706 0.0
H1012 H 0.53606 0.09713 0.03861 0.0
H1013 H 0.50564 0.09906 0.04561 0.0
C1014 C 0.48396 0.0955 0.95066 0.0
C1015 C 0.4739 0.09299 0.89724 0.0
C1016 C 0.50149 0.09613 0.94567 0.0
C1017 C 0.4816 0.09214 0.83787 0.0
C1018 C 0.49914 0.09288 0.83238 0.0
C1019 C 0.52692 0.09366 0.88226 0.0
C1020 C 0.53674 0.09413 0.93729 0.0
C1021 C 0.50925 0.09447 0.88621 0.0
C1022 C 0.52881 0.09656 0.99559 0.0
C1023 C 0.51139 0.09765 0.99973 0.0
H1024 H 0.15541 0.77867 0.75108 0.0
H1025 H 0.16281 0.78612 0.94994 0.0
H1026 H 0.16388 0.75563 0.96575 0.0
H1027 H 0.16529 0.72685 0.92093 0.0
H1028 H 0.1589 0.7203 0.72093 0.0
H1029 H 0.15481 0.75038 0.70794 0.0
C1030 C 0.15706 0.77367 0.7981 0.0
C1031 C 0.15915 0.78469 0.84914 0.0
C1032 C 0.15799 0.75623 0.80658 0.0
C1033 C 0.16118 0.77793 0.90975 0.0
C1034 C 0.16188 0.76049 0.91877 0.0
C1035 C 0.16278 0.73201 0.87473 0.0
C1036 C 0.16256 0.72133 0.82194 0.0
C1037 C 0.16069 0.7495 0.86726 0.0
C1038 C 0.15932 0.72822 0.76231 0.0
C1039 C 0.15696 0.74544 0.75475 0.0
H1040 H 0.47509 0.91651 0.1751 0.0
H1041 H 0.47012 0.91785 0.97296 0.0
H1042 H 0.50037 0.91613 0.96127 0.0
H1043 H 0.52821 0.91565 0.00703 0.0
H1044 H 0.53434 0.91478 0.20839 0.0
H1045 H 0.50372 0.91475 0.22173 0.0
C1046 C 0.48066 0.91629 0.12861 0.0
C1047 C 0.47031 0.91744 0.07505 0.0
C1048 C 0.49827 0.91544 0.12196 0.0
C1049 C 0.47773 0.91714 0.01508 0.0
C1050 C 0.49507 0.91613 0.0082 0.0
C1051 C 0.52291 0.91537 0.054 0.0
C1052 C 0.53356 0.91533 0.10661 0.0
C1053 C 0.50544 0.91551 0.06118 0.0
C1054 C 0.52642 0.91483 0.16703 0.0
C1055 C 0.50891 0.91487 0.17466 0.0
H1056 H 0.33665 0.22473 0.40672 0.0
H1057 H 0.33617 0.22095 0.20422 0.0
H1058 H 0.33636 0.25136 0.1952 0.0
H1059 H 0.33487 0.27894 0.24357 0.0
H1060 H 0.33465 0.28369 0.44548 0.0
H1061 H 0.33673 0.25306 0.45592 0.0
C1062 C 0.33675 0.23059 0.36073 0.0
C1063 C 0.33625 0.22053 0.30627 0.0
C1064 C 0.33668 0.24827 0.35567 0.0
C1065 C 0.33639 0.22833 0.24697 0.0
C1066 C 0.33652 0.24576 0.24165 0.0
C1067 C 0.3354 0.27334 0.29 0.0
C1068 C 0.33448 0.28359 0.34364 0.0
C1069 C 0.33637 0.25583 0.29555 0.0
C1070 C 0.33532 0.27608 0.40337 0.0
C1071 C 0.33644 0.25856 0.40935 0.0
H1072 H 0.96785 0.08835 0.49229 0.0
H1073 H 0.96233 0.08815 0.69393 0.0
H1074 H 0.99296 0.08878 0.706 0.0
H1075 H 0.02144 0.08766 0.65836 0.0
H1076 H 0.02601 0.08747 0.45606 0.0
H1077 H 0.99568 0.08874 0.44543 0.0
C1078 C 0.97329 0.08856 0.53902 0.0
C1079 C 0.96279 0.0881 0.5921 0.0
C1080 C 0.99081 0.08875 0.54551 0.0
C1081 C 0.97011 0.0885 0.65222 0.0
C1082 C 0.98764 0.08879 0.65913 0.0
C1083 C 0.01578 0.08803 0.61204 0.0
C1084 C 0.02605 0.08734 0.55814 0.0
C1085 C 0.99814 0.08866 0.60602 0.0
C1086 C 0.01848 0.08786 0.49844 0.0
C1087 C 0.00109 0.0886 0.49218 0.0
H1088 H 0.84079 0.71946 0.75988 0.0
H1089 H 0.83467 0.71433 0.96037 0.0
H1090 H 0.83612 0.74497 0.97224 0.0
H1091 H 0.83681 0.77339 0.92363 0.0
H1092 H 0.84205 0.77749 0.7222 0.0
H1093 H 0.84335 0.7471 0.71291 0.0
C1094 C 0.83989 0.72499 0.80637 0.0
C1095 C 0.83745 0.71464 0.85907 0.0
C1096 C 0.8405 0.74248 0.81261 0.0
C1097 C 0.8365 0.72203 0.91897 0.0
C1098 C 0.83727 0.73955 0.92573 0.0
C1099 C 0.83847 0.76759 0.87794 0.0
C1100 C 0.83917 0.77768 0.82365 0.0
C1101 C 0.83893 0.74993 0.87264 0.0
C1102 C 0.84128 0.77002 0.76467 0.0
C1103 C 0.84204 0.75262 0.75922 0.0
H1104 H 0.66557 0.22582 0.42796 0.0
H1105 H 0.66233 0.22161 0.22587 0.0
H1106 H 0.66153 0.25198 0.21614 0.0
H1107 H 0.6636 0.27967 0.26323 0.0
H1108 H 0.66681 0.28495 0.46452 0.0
H1109 H 0.66559 0.25428 0.47638 0.0
C1110 C 0.66451 0.23158 0.38194 0.0
C1111 C 0.66418 0.22141 0.32774 0.0
C1112 C 0.66413 0.24924 0.37642 0.0
C1113 C 0.66275 0.22907 0.26842 0.0
C1114 C 0.66229 0.24648 0.26267 0.0
C1115 C 0.66395 0.27415 0.30984 0.0
C1116 C 0.66549 0.28454 0.36286 0.0
C1117 C 0.6633 0.25666 0.31613 0.0
C1118 C 0.66566 0.2772 0.42292 0.0
C1119 C 0.66503 0.25967 0.42966 0.0
H1120 H 0.84478 0.28365 0.24181 0.0
H1121 H 0.83924 0.28874 0.04112 0.0
H1122 H 0.83966 0.25807 0.02972 0.0
H1123 H 0.83903 0.22973 0.07872 0.0
H1124 H 0.84395 0.2256 0.2803 0.0
H1125 H 0.84635 0.25592 0.28919 0.0
C1126 C 0.84385 0.2781 0.19538 0.0
C1127 C 0.84183 0.28846 0.14248 0.0
C1128 C 0.84382 0.26057 0.1894 0.0
C1129 C 0.84081 0.28104 0.08266 0.0
C1130 C 0.84095 0.2635 0.07618 0.0
C1131 C 0.84082 0.23548 0.12441 0.0
C1132 C 0.84111 0.22537 0.17879 0.0
C1133 C 0.84205 0.25311 0.12947 0.0
C1134 C 0.84349 0.23303 0.23768 0.0
C1135 C 0.84489 0.25041 0.24293 0.0
H1136 H 0.6646 0.72511 0.58361 0.0
H1137 H 0.65941 0.71978 0.78467 0.0
H1138 H 0.6579 0.75012 0.79635 0.0
H1139 H 0.66003 0.77814 0.75134 0.0
H1140 H 0.66584 0.7843 0.55112 0.0
H1141 H 0.66493 0.75373 0.53723 0.0
C1142 C 0.66294 0.7306 0.62981 0.0
C1143 C 0.66227 0.72015 0.6832 0.0
C1144 C 0.66227 0.74822 0.63647 0.0
C1145 C 0.66012 0.72749 0.74278 0.0
C1146 C 0.65925 0.74487 0.74961 0.0
C1147 C 0.66095 0.77285 0.70449 0.0
C1148 C 0.66313 0.7835 0.65243 0.0
C1149 C 0.66063 0.75535 0.69703 0.0
C1150 C 0.66418 0.77639 0.59206 0.0
C1151 C 0.66372 0.7589 0.58413 0.0
H1152 H 0.52295 0.41658 0.83597 0.0
H1153 H 0.52621 0.41923 0.03834 0.0
H1154 H 0.49592 0.41671 0.04679 0.0
H1155 H 0.46851 0.4154 0.99791 0.0
H1156 H 0.46403 0.41372 0.79599 0.0
H1157 H 0.49475 0.41404 0.78619 0.0
C1158 C 0.51699 0.41644 0.88179 0.0
C1159 C 0.52684 0.41822 0.9364 0.0
C1160 C 0.49936 0.41523 0.88648 0.0
C1161 C 0.51895 0.41806 0.99551 0.0
C1162 C 0.5016 0.41659 1.0005 0.0
C1163 C 0.47418 0.41499 0.95158 0.0
C1164 C 0.46398 0.41464 0.89777 0.0
C1165 C 0.49169 0.41544 0.9464 0.0
C1166 C 0.47161 0.41402 0.83823 0.0
C1167 C 0.48917 0.41426 0.83263 0.0
H1168 H 0.97755 0.58779 0.34979 0.0
H1169 H 0.97362 0.59001 0.55204 0.0
H1170 H 0.00389 0.59305 0.56085 0.0
H1171 H 0.0315 0.59332 0.51273 0.0
H1172 H 0.0365 0.59005 0.31124 0.0
H1173 H 0.00583 0.58936 0.3005 0.0
C1174 C 0.98334 0.58912 0.39563 0.0
C1175 C 0.97333 0.58856 0.45018 0.0
C1176 C 1.00095 0.59061 0.40059 0.0
C1177 C 0.98102 0.59024 0.50931 0.0
C1178 C 0.99835 0.592 0.51448 0.0
C1179 C 0.02595 0.59259 0.46627 0.0
C1180 C 0.0363 0.59165 0.41291 0.0
C1181 C 0.00844 0.59191 0.46062 0.0
C1182 C 0.02882 0.59077 0.35315 0.0
C1183 C 0.01128 0.59032 0.34702 0.0
H1184 H 0.97929 0.41257 0.67113 0.0
H1185 H 0.97369 0.40289 0.4726 0.0
H1186 H 0.00401 0.40127 0.46062 0.0
H1187 H 0.03201 0.40504 0.50368 0.0
H1188 H 0.03851 0.41561 0.70097 0.0
H1189 H 0.00802 0.41425 0.71644 0.0
C1190 C 0.98474 0.40983 0.62557 0.0
C1191 C 0.97424 0.408 0.57275 0.0
C1192 C 0.00235 0.40922 0.61863 0.0
C1193 C 0.98148 0.40452 0.51391 0.0
C1194 C 0.99883 0.4036 0.50693 0.0
C1195 C 0.02682 0.40691 0.55029 0.0
C1196 C 0.03752 0.4106 0.60094 0.0
C1197 C 0.00937 0.40634 0.55854 0.0
C1198 C 0.03055 0.41279 0.66109 0.0
C1199 C 0.0131 0.41208 0.6699 0.0
H1200 H 0.46911 0.5958 0.01516 0.0
H1201 H 0.4657 0.58955 0.21602 0.0
H1202 H 0.49634 0.592 0.22472 0.0
H1203 H 0.52434 0.59308 0.17303 0.0
H1204 H 0.5268 0.59874 0.97139 0.0
H1205 H 0.49635 0.59947 0.96542 0.0
C1206 C 0.47502 0.59515 0.06103 0.0
C1207 C 0.46517 0.59231 0.11475 0.0
C1208 C 0.49254 0.59636 0.06547 0.0
C1209 C 0.47302 0.59172 0.17388 0.0
C1210 C 0.49055 0.59303 0.17881 0.0
C1211 C 0.51818 0.59475 0.12802 0.0
C1212 C 0.52786 0.59566 0.07268 0.0
C1213 C 0.50049 0.59494 0.12465 0.0
C1214 C 0.51969 0.59782 0.01466 0.0
C1215 C 0.50224 0.59823 0.0111 0.0
H1216 H 0.12979 0.14555 0.29967 0.0
H1217 H 0.16497 0.1045 0.28327 0.0
H1218 H 0.1525 0.09086 0.37447 0.0
H1219 H 0.13154 0.09033 0.45819 0.0
H1220 H 0.09472 0.12988 0.47077 0.0
H1221 H 0.10797 0.14449 0.3822 0.0
C1222 C 0.13468 0.13361 0.31609 0.0
C1223 C 0.14827 0.12605 0.28474 0.0
C1224 C 0.12725 0.12564 0.3681 0.0
C1225 C 0.15442 0.11052 0.30622 0.0
C1226 C 0.14737 0.10275 0.35861 0.0
C1227 C 0.12655 0.10226 0.44198 0.0
C1228 C 0.11236 0.10917 0.47126 0.0
C1229 C 0.13382 0.11019 0.38992 0.0
C1230 C 0.10573 0.1244 0.44898 0.0
C1231 C 0.11326 0.13271 0.39834 0.0
H1232 H 0.13519 0.91289 0.55252 0.0
H1233 H 0.10132 0.87265 0.50403 0.0
H1234 H 0.11087 0.85646 0.59513 0.0
H1235 H 0.12907 0.85376 0.68805 0.0
H1236 H 0.16175 0.89492 0.73889 0.0
H1237 H 0.15218 0.91085 0.6481 0.0
C1238 C 0.13004 0.9005 0.56163 0.0
C1239 C 0.1178 0.89382 0.52134 0.0
C1240 C 0.13519 0.89154 0.61496 0.0
C1241 C 0.11088 0.87795 0.53435 0.0
C1242 C 0.11628 0.86874 0.58646 0.0
C1243 C 0.13397 0.86628 0.67963 0.0
C1244 C 0.14616 0.87307 0.72018 0.0
C1245 C 0.12841 0.87544 0.62721 0.0
C1246 C 0.15233 0.88935 0.70863 0.0
C1247 C 0.14696 0.89846 0.65641 0.0
H1248 H 0.36827 0.91246 0.9478 0.0
H1249 H 0.4066 0.8749 0.97443 0.0
H1250 H 0.39647 0.8596 0.88179 0.0
H1251 H 0.37624 0.85681 0.79463 0.0
H1252 H 0.33916 0.89567 0.76566 0.0
H1253 H 0.34952 0.91076 0.85719 0.0
C1254 C 0.3743 0.90084 0.93354 0.0
C1255 C 0.3879 0.89458 0.96821 0.0
C1256 C 0.36878 0.8925 0.87946 0.0
C1257 C 0.39597 0.87981 0.94852 0.0
C1258 C 0.39022 0.87113 0.89558 0.0
C1259 C 0.37055 0.86866 0.80797 0.0
C1260 C 0.35688 0.87503 0.77351 0.0
C1261 C 0.37661 0.87736 0.86072 0.0
C1262 C 0.34972 0.89047 0.79118 0.0
C1263 C 0.35555 0.89908 0.84383 0.0
H1264 H 0.40368 0.10269 0.09773 0.0
H1265 H 0.37507 0.12727 0.95254 0.0
H1266 H 0.36053 0.14427 0.0316 0.0
H1267 H 0.35422 0.15016 0.1423 0.0
H1268 H 0.38001 0.1227 0.28778 0.0
H1269 H 0.39755 0.10882 0.20872 0.0
C1270 C 0.39446 0.112 0.08365 0.0
C1271 C 0.39047 0.11394 0.01987 0.0
C1272 C 0.38562 0.12106 0.12945 0.0
C1273 C 0.37829 0.1257 0.00166 0.0
C1274 C 0.36999 0.13535 0.04674 0.0
C1275 C 0.36389 0.14134 0.15654 0.0
C1276 C 0.36599 0.13748 0.22039 0.0
C1277 C 0.3733 0.13287 0.1108 0.0
C1278 C 0.37826 0.12581 0.23864 0.0
C1279 C 0.38824 0.11789 0.19355 0.0
H1280 H 0.87652 0.87811 0.50497 0.0
H1281 H 0.90548 0.91166 0.6213 0.0
H1282 H 0.89308 0.89932 0.716 0.0
H1283 H 0.873 0.8796 0.76532 0.0
H1284 H 0.84624 0.84435 0.64845 0.0
H1285 H 0.85877 0.85663 0.55438 0.0
C1286 C 0.88016 0.88259 0.55117 0.0
C1287 C 0.89172 0.89579 0.55656 0.0
C1288 C 0.87334 0.87516 0.60518 0.0
C1289 C 0.89659 0.90143 0.61638 0.0
C1290 C 0.88946 0.89445 0.67041 0.0
C1291 C 0.87005 0.87461 0.71918 0.0
C1292 C 0.85869 0.86122 0.71346 0.0
C1293 C 0.87768 0.88142 0.66535 0.0
C1294 C 0.85504 0.85464 0.65374 0.0
C1295 C 0.86213 0.86168 0.59998 0.0
H1296 H 0.83888 0.1223 0.29596 0.0
H1297 H 0.8811 0.15498 0.26209 0.0
H1298 H 0.89624 0.14225 0.35043 0.0
H1299 H 0.89717 0.12194 0.43808 0.0
H1300 H 0.85373 0.09099 0.47545 0.0
H1301 H 0.83928 0.10309 0.38547 0.0
C1302 C 0.85147 0.12648 0.30755 0.0
C1303 C 0.85901 0.13932 0.27229 0.0
C1304 C 0.85977 0.11957 0.35947 0.0
C1305 C 0.87514 0.14499 0.28856 0.0
C1306 C 0.88375 0.13776 0.33906 0.0
C1307 C 0.88452 0.11792 0.42662 0.0
C1308 C 0.87656 0.10557 0.46338 0.0
C1309 C 0.87614 0.1251 0.3751 0.0
C1310 C 0.86012 0.10055 0.44823 0.0
C1311 C 0.85186 0.10738 0.39651 0.0
H1312 H 0.66373 0.11774 0.21116 0.0
H1313 H 0.62272 0.15174 0.24749 0.0
H1314 H 0.60682 0.13952 0.16018 0.0
H1315 H 0.60493 0.11949 0.07207 0.0
H1316 H 0.64708 0.08707 0.03201 0.0
H1317 H 0.66224 0.09848 0.12179 0.0
C1318 C 0.65123 0.12233 0.20036 0.0
C1319 C 0.64429 0.13544 0.23595 0.0
C1320 C 0.64246 0.11566 0.149 0.0
C1321 C 0.62825 0.14157 0.22074 0.0
C1322 C 0.6192 0.13462 0.17081 0.0
C1323 C 0.61744 0.11496 0.08299 0.0
C1324 C 0.62485 0.10246 0.04541 0.0
C1325 C 0.62624 0.12175 0.13428 0.0
C1326 C 0.64112 0.09678 0.05986 0.0
C1327 C 0.64978 0.10322 0.11143 0.0
H1328 H 0.6288 0.85265 0.79437 0.0
H1329 H 0.66566 0.8919 0.76863 0.0
H1330 H 0.65418 0.90718 0.8579 0.0
H1331 H 0.63443 0.90904 0.94525 0.0
H1332 H 0.59614 0.87123 0.96819 0.0
H1333 H 0.60748 0.85562 0.87814 0.0
C1334 C 0.63421 0.86461 0.8081 0.0
C1335 C 0.64811 0.87108 0.77514 0.0
C1336 C 0.62743 0.87347 0.85924 0.0
C1337 C 0.65492 0.88666 0.79301 0.0
C1338 C 0.64844 0.89537 0.84432 0.0
C1339 C 0.62864 0.89731 0.93071 0.0
C1340 C 0.61472 0.89106 0.96364 0.0
C1341 C 0.63487 0.88879 0.87817 0.0
C1342 C 0.60699 0.87615 0.94357 0.0
C1343 C 0.61345 0.86727 0.89218 0.0
H1344 H 0.63016 0.5932 0.93166 0.0
H1345 H 0.59533 0.63372 0.96456 0.0
H1346 H 0.60694 0.64913 0.87462 0.0
H1347 H 0.62748 0.65115 0.78814 0.0
H1348 H 0.66092 0.60951 0.75244 0.0
H1349 H 0.64914 0.59431 0.84154 0.0
C1350 C 0.6252 0.60547 0.91932 0.0
C1351 C 0.61217 0.61251 0.95503 0.0
C1352 C 0.63156 0.61393 0.86681 0.0
C1353 C 0.60549 0.62817 0.9378 0.0
C1354 C 0.61209 0.63693 0.88645 0.0
C1355 C 0.63208 0.63869 0.79961 0.0
C1356 C 0.64512 0.63152 0.76394 0.0
C1357 C 0.62517 0.62994 0.85072 0.0
C1358 C 0.65086 0.6153 0.77896 0.0
C1359 C 0.64422 0.60664 0.83017 0.0
H1360 H 0.62617 0.38085 0.2648 0.0
H1361 H 0.65462 0.34652 0.1498 0.0
H1362 H 0.64158 0.35796 0.05503 0.0
H1363 H 0.62361 0.37925 0.00451 0.0
H1364 H 0.59342 0.41192 0.12002 0.0
H1365 H 0.60548 0.39958 0.21498 0.0
C1366 C 0.6293 0.37577 0.21897 0.0
C1367 C 0.64138 0.36302 0.21396 0.0
C1368 C 0.62153 0.38217 0.16487 0.0
C1369 C 0.64527 0.35633 0.15461 0.0
C1370 C 0.63791 0.36292 0.10043 0.0
C1371 C 0.61959 0.38349 0.05058 0.0
C1372 C 0.60783 0.39653 0.05561 0.0
C1373 C 0.62627 0.37607 0.10493 0.0
C1374 C 0.60247 0.40184 0.11528 0.0
C1375 C 0.6094 0.39486 0.16951 0.0
H1376 H 0.86997 0.41097 0.45099 0.0
H1377 H 0.90645 0.37132 0.4706 0.0
H1378 H 0.89406 0.35653 0.38054 0.0
H1379 H 0.87266 0.3551 0.29625 0.0
H1380 H 0.83782 0.39628 0.27408 0.0
H1381 H 0.8499 0.41035 0.36484 0.0
C1382 C 0.87511 0.39901 0.4359 0.0
C1383 C 0.88888 0.39206 0.46773 0.0
C1384 C 0.86832 0.39096 0.38332 0.0
C1385 C 0.89574 0.3768 0.44684 0.0
C1386 C 0.88869 0.36839 0.39542 0.0
C1387 C 0.86779 0.36718 0.31123 0.0
C1388 C 0.85434 0.3746 0.27854 0.0
C1389 C 0.87497 0.37539 0.36319 0.0
C1390 C 0.84823 0.39032 0.29812 0.0
C1391 C 0.85505 0.39836 0.35027 0.0
H1392 H 0.85353 0.64754 0.66646 0.0
H1393 H 0.86857 0.61116 0.80566 0.0
H1394 H 0.88647 0.59709 0.72813 0.0
H1395 H 0.8965 0.5943 0.61913 0.0
H1396 H 0.87846 0.62851 0.47746 0.0
H1397 H 0.86313 0.64449 0.55751 0.0
C1398 C 0.86089 0.63663 0.67982 0.0
C1399 C 0.85992 0.6304 0.74142 0.0
C1400 C 0.87055 0.62828 0.63455 0.0
C1401 C 0.86918 0.6161 0.75826 0.0
C1402 C 0.8794 0.6081 0.71408 0.0
C1403 C 0.88939 0.60542 0.60629 0.0
C1404 C 0.88868 0.61048 0.5432 0.0
C1405 C 0.88001 0.61397 0.65193 0.0
C1406 C 0.87917 0.62457 0.52614 0.0
C1407 C 0.87041 0.63363 0.57172 0.0
H1408 H 0.36654 0.35118 0.19603 0.0
H1409 H 0.33274 0.39255 0.23179 0.0
H1410 H 0.34425 0.40782 0.14275 0.0
H1411 H 0.3633 0.40933 0.05358 0.0
H1412 H 0.39891 0.36954 0.02054 0.0
H1413 H 0.38727 0.35364 0.10951 0.0
C1414 C 0.3618 0.36358 0.18442 0.0
C1415 C 0.34877 0.37069 0.22031 0.0
C1416 C 0.36867 0.37248 0.13344 0.0
C1417 C 0.34283 0.38682 0.20518 0.0
C1418 C 0.34932 0.39554 0.15401 0.0
C1419 C 0.36843 0.39711 0.06562 0.0
C1420 C 0.38167 0.39041 0.03024 0.0
C1421 C 0.36209 0.38843 0.11757 0.0
C1422 C 0.38857 0.37482 0.0471 0.0
C1423 C 0.38195 0.36578 0.09787 0.0
H1424 H 0.39984 0.61948 0.95899 0.0
H1425 H 0.35699 0.58701 0.9864 0.0
H1426 H 0.34316 0.59939 0.89548 0.0
H1427 H 0.34302 0.61951 0.80873 0.0
H1428 H 0.38461 0.65362 0.78501 0.0
H1429 H 0.39926 0.64042 0.87346 0.0
C1430 C 0.38747 0.61516 0.94507 0.0
C1431 C 0.37947 0.60236 0.97942 0.0
C1432 C 0.37943 0.62252 0.89314 0.0
C1433 C 0.36338 0.59695 0.9611 0.0
C1434 C 0.35549 0.60394 0.90886 0.0
C1435 C 0.35538 0.62391 0.82251 0.0
C1436 C 0.36286 0.63732 0.79015 0.0
C1437 C 0.3634 0.61669 0.87451 0.0
C1438 C 0.37869 0.64321 0.80923 0.0
C1439 C 0.38702 0.63571 0.85981 0.0
H1440 H 0.13541 0.65275 0.70729 0.0
H1441 H 0.16762 0.61044 0.74764 0.0
H1442 H 0.15629 0.59542 0.65724 0.0
H1443 H 0.13757 0.59439 0.56601 0.0
H1444 H 0.10409 0.63579 0.52877 0.0
H1445 H 0.11576 0.65122 0.61832 0.0
C1446 C 0.13989 0.6402 0.69651 0.0
C1447 C 0.15238 0.63276 0.7341 0.0
C1448 C 0.13325 0.63158 0.64464 0.0
C1449 C 0.15796 0.61645 0.71973 0.0
C1450 C 0.15157 0.60788 0.66777 0.0
C1451 C 0.13297 0.60687 0.57713 0.0
C1452 C 0.1202 0.61409 0.5405 0.0
C1453 C 0.13934 0.61538 0.62964 0.0
C1454 C 0.11403 0.63007 0.5562 0.0
C1455 C 0.12064 0.63884 0.60742 0.0
H1456 H 0.15849 0.37848 0.29291 0.0
H1457 H 0.11843 0.34229 0.2769 0.0
H1458 H 0.10451 0.35459 0.36899 0.0
H1459 H 0.10366 0.37612 0.45251 0.0
H1460 H 0.14499 0.41095 0.47091 0.0
H1461 H 0.15866 0.39848 0.37987 0.0
C1462 C 0.14664 0.37337 0.30936 0.0
C1463 C 0.13928 0.35976 0.27777 0.0
C1464 C 0.13907 0.38014 0.36303 0.0
C1465 C 0.1242 0.3529 0.30037 0.0
C1466 C 0.11629 0.3599 0.35297 0.0
C1467 C 0.11572 0.38087 0.43688 0.0
C1468 C 0.12323 0.39451 0.46827 0.0
C1469 C 0.12362 0.37356 0.38457 0.0
C1470 C 0.13894 0.40044 0.4478 0.0
C1471 C 0.14673 0.3934 0.39545 0.0
loop_
_geom_bond_atom_site_label_1
_geom_bond_atom_site_label_2
_geom_bond_distance
_geom_bond_site_symmetry_2
_ccdc_geom_bond_type
O0 Cd1 2.223 . S
O0 C8 1.315 . S
Cd1 O0 2.223 . S
Cd1 O4 2.297 . S
Cd1 O5 2.439 . S
Cd1 O11 2.240 . S
Cd2 O3 2.240 . S
Cd2 O10 2.223 . S
Cd2 O12 2.297 . S
Cd2 O13 2.439 . S
O3 Cd2 2.240 . S
O3 C8 1.279 . S
O4 Cd1 2.297 . S
O4 C6 1.247 . S
O5 Cd1 2.439 . S
O5 C6 1.208 . S
C6 O4 1.247 . S
C6 O5 1.208 . S
C7 O12 1.247 . S
C7 O13 1.208 . S
C8 O0 1.315 . S
C8 O3 1.279 . S
C9 O10 1.315 . S
C9 O11 1.279 . S
O10 Cd2 2.223 . S
O10 C9 1.315 . S
O11 Cd1 2.240 . S
O11 C9 1.279 . S
O12 Cd2 2.297 . S
O12 C7 1.247 . S
O13 Cd2 2.439 . S
O13 C7 1.208 . S
O14 Cd15 2.223 . S
O14 C22 1.315 . S
Cd15 O14 2.223 . S
Cd15 O18 2.297 . S
Cd15 O19 2.439 . S
Cd15 O25 2.240 . S
Cd16 O17 2.240 . S
Cd16 O24 2.223 . S
Cd16 O26 2.297 . S
Cd16 O27 2.439 . S
O17 Cd16 2.240 . S
O17 C22 1.279 . S
O18 Cd15 2.297 . S
O18 C20 1.247 . S
O19 Cd15 2.439 . S
O19 C20 1.208 . S
C20 O18 1.247 . S
C20 O19 1.208 . S
C21 O26 1.247 . S
C21 O27 1.208 . S
C22 O14 1.315 . S
C22 O17 1.279 . S
C23 O24 1.315 . S
C23 O25 1.279 . S
O24 Cd16 2.223 . S
O24 C23 1.315 . S
O25 Cd15 2.240 . S
O25 C23 1.279 . S
O26 Cd16 2.297 . S
O26 C21 1.247 . S
O27 Cd16 2.439 . S
O27 C21 1.208 . S
O28 Cd29 2.223 . S
O28 C36 1.315 . S
Cd29 O28 2.223 . S
Cd29 O32 2.297 . S
Cd29 O33 2.439 . S
Cd29 O39 2.240 . S
Cd30 O31 2.240 . S
Cd30 O38 2.223 . S
Cd30 O40 2.297 . S
Cd30 O41 2.439 . S
O31 Cd30 2.240 . S
O31 C36 1.279 . S
O32 Cd29 2.297 . S
O32 C34 1.247 . S
O33 Cd29 2.439 . S
O33 C34 1.208 . S
C34 O32 1.247 . S
C34 O33 1.208 . S
C35 O40 1.247 . S
C35 O41 1.208 . S
C36 O28 1.315 . S
C36 O31 1.279 . S
C37 O38 1.315 . S
C37 O39 1.279 . S
O38 Cd30 2.223 . S
O38 C37 1.315 . S
O39 Cd29 2.240 . S
O39 C37 1.279 . S
O40 Cd30 2.297 . S
O40 C35 1.247 . S
O41 Cd30 2.439 . S
O41 C35 1.208 . S
O42 Cd43 2.223 . S
O42 C50 1.315 . S
Cd43 O42 2.223 . S
Cd43 O46 2.297 . S
Cd43 O47 2.439 . S
Cd43 O53 2.240 . S
Cd44 O45 2.240 . S
Cd44 O52 2.223 . S
Cd44 O54 2.297 . S
Cd44 O55 2.439 . S
O45 Cd44 2.240 . S
O45 C50 1.279 . S
O46 Cd43 2.297 . S
O46 C48 1.247 . S
O47 Cd43 2.439 . S
O47 C48 1.208 . S
C48 O46 1.247 . S
C48 O47 1.208 . S
C49 O54 1.247 . S
C49 O55 1.208 . S
C50 O42 1.315 . S
C50 O45 1.279 . S
C51 O52 1.315 . S
C51 O53 1.279 . S
O52 Cd44 2.223 . S
O52 C51 1.315 . S
O53 Cd43 2.240 . S
O53 C51 1.279 . S
O54 Cd44 2.297 . S
O54 C49 1.247 . S
O55 Cd44 2.439 . S
O55 C49 1.208 . S
O56 Cd57 2.223 . S
O56 C64 1.315 . S
Cd57 O56 2.223 . S
Cd57 O60 2.297 . S
Cd57 O61 2.439 . S
Cd57 O67 2.240 . S
Cd58 O59 2.240 . S
Cd58 O66 2.223 . S
Cd58 O68 2.297 . S
Cd58 O69 2.439 . S
O59 Cd58 2.240 . S
O59 C64 1.279 . S
O60 Cd57 2.297 . S
O60 C62 1.247 . S
O61 Cd57 2.439 . S
O61 C62 1.208 . S
C62 O60 1.247 . S
C62 O61 1.208 . S
C63 O68 1.247 . S
C63 O69 1.208 . S
C64 O56 1.315 . S
C64 O59 1.279 . S
C65 O66 1.315 . S
C65 O67 1.279 . S
O66 Cd58 2.223 . S
O66 C65 1.315 . S
O67 Cd57 2.240 . S
O67 C65 1.279 . S
O68 Cd58 2.297 . S
O68 C63 1.247 . S
O69 Cd58 2.439 . S
O69 C63 1.208 . S
O70 Cd71 2.223 . S
O70 C78 1.315 . S
Cd71 O70 2.223 . S
Cd71 O74 2.297 . S
Cd71 O75 2.439 . S
Cd71 O81 2.240 . S
Cd72 O73 2.240 . S
Cd72 O80 2.223 . S
Cd72 O82 2.297 . S
Cd72 O83 2.439 . S
O73 Cd72 2.240 . S
O73 C78 1.279 . S
O74 Cd71 2.297 . S
O74 C76 1.247 . S
O75 Cd71 2.439 . S
O75 C76 1.208 . S
C76 O74 1.247 . S
C76 O75 1.208 . S
C77 O82 1.247 . S
C77 O83 1.208 . S
C78 O70 1.315 . S
C78 O73 1.279 . S
C79 O80 1.315 . S
C79 O81 1.279 . S
O80 Cd72 2.223 . S
O80 C79 1.315 . S
O81 Cd71 2.240 . S
O81 C79 1.279 . S
O82 Cd72 2.297 . S
O82 C77 1.247 . S
O83 Cd72 2.439 . S
O83 C77 1.208 . S
O84 Cd85 2.223 . S
O84 C92 1.315 . S
Cd85 O84 2.223 . S
Cd85 O88 2.297 . S
Cd85 O89 2.439 . S
Cd85 O95 2.240 . S
Cd86 O87 2.240 . S
Cd86 O94 2.223 . S
Cd86 O96 2.297 . S
Cd86 O97 2.439 . S
O87 Cd86 2.240 . S
O87 C92 1.279 . S
O88 Cd85 2.297 . S
O88 C90 1.247 . S
O89 Cd85 2.439 . S
O89 C90 1.208 . S
C90 O88 1.247 . S
C90 O89 1.208 . S
C91 O96 1.247 . S
C91 O97 1.208 . S
C92 O84 1.315 . S
C92 O87 1.279 . S
C93 O94 1.315 . S
C93 O95 1.279 . S
O94 Cd86 2.223 . S
O94 C93 1.315 . S
O95 Cd85 2.240 . S
O95 C93 1.279 . S
O96 Cd86 2.297 . S
O96 C91 1.247 . S
O97 Cd86 2.439 . S
O97 C91 1.208 . S
O98 Cd99 2.223 . S
O98 C106 1.315 . S
Cd99 O98 2.223 . S
Cd99 O102 2.297 . S
Cd99 O103 2.439 . S
Cd99 O109 2.240 . S
Cd100 O101 2.240 . S
Cd100 O108 2.223 . S
Cd100 O110 2.297 . S
Cd100 O111 2.439 . S
O101 Cd100 2.240 . S
O101 C106 1.279 . S
O102 Cd99 2.297 . S
O102 C104 1.247 . S
O103 Cd99 2.439 . S
O103 C104 1.208 . S
C104 O102 1.247 . S
C104 O103 1.208 . S
C105 O110 1.247 . S
C105 O111 1.208 . S
C106 O98 1.315 . S
C106 O101 1.279 . S
C107 O108 1.315 . S
C107 O109 1.279 . S
O108 Cd100 2.223 . S
O108 C107 1.315 . S
O109 Cd99 2.240 . S
O109 C107 1.279 . S
O110 Cd100 2.297 . S
O110 C105 1.247 . S
O111 Cd100 2.439 . S
O111 C105 1.208 . S
O112 Cd113 2.223 . S
O112 C120 1.315 . S
Cd113 O112 2.223 . S
Cd113 O116 2.297 . S
Cd113 O117 2.439 . S
Cd113 O123 2.240 . S
Cd114 O115 2.240 . S
Cd114 O122 2.223 . S
Cd114 O124 2.297 . S
Cd114 O125 2.439 . S
O115 Cd114 2.240 . S
O115 C120 1.279 . S
O116 Cd113 2.297 . S
O116 C118 1.247 . S
O117 Cd113 2.439 . S
O117 C118 1.208 . S
C118 O116 1.247 . S
C118 O117 1.208 . S
C119 O124 1.247 . S
C119 O125 1.208 . S
C120 O112 1.315 . S
C120 O115 1.279 . S
C121 O122 1.315 . S
C121 O123 1.279 . S
O122 Cd114 2.223 . S
O122 C121 1.315 . S
O123 Cd113 2.240 . S
O123 C121 1.279 . S
O124 Cd114 2.297 . S
O124 C119 1.247 . S
O125 Cd114 2.439 . S
O125 C119 1.208 . S
O126 Cd127 2.223 . S
O126 C134 1.315 . S
Cd127 O126 2.223 . S
Cd127 O130 2.297 . S
Cd127 O131 2.439 . S
Cd127 O137 2.240 . S
Cd128 O129 2.240 . S
Cd128 O136 2.223 . S
Cd128 O138 2.297 . S
Cd128 O139 2.439 . S
O129 Cd128 2.240 . S
O129 C134 1.279 . S
O130 Cd127 2.297 . S
O130 C132 1.247 . S
O131 Cd127 2.439 . S
O131 C132 1.208 . S
C132 O130 1.247 . S
C132 O131 1.208 . S
C133 O138 1.247 . S
C133 O139 1.208 . S
C134 O126 1.315 . S
C134 O129 1.279 . S
C135 O136 1.315 . S
C135 O137 1.279 . S
O136 Cd128 2.223 . S
O136 C135 1.315 . S
O137 Cd127 2.240 . S
O137 C135 1.279 . S
O138 Cd128 2.297 . S
O138 C133 1.247 . S
O139 Cd128 2.439 . S
O139 C133 1.208 . S
O140 Cd141 2.223 . S
O140 C148 1.315 . S
Cd141 O140 2.223 . S
Cd141 O144 2.297 . S
Cd141 O145 2.439 . S
Cd141 O151 2.240 . S
Cd142 O143 2.240 . S
Cd142 O150 2.223 . S
Cd142 O152 2.297 . S
Cd142 O153 2.439 . S
O143 Cd142 2.240 . S
O143 C148 1.279 . S
O144 Cd141 2.297 . S
O144 C146 1.247 . S
O145 Cd141 2.439 . S
O145 C146 1.208 . S
C146 O144 1.247 . S
C146 O145 1.208 . S
C147 O152 1.247 . S
C147 O153 1.208 . S
C148 O140 1.315 . S
C148 O143 1.279 . S
C149 O150 1.315 . S
C149 O151 1.279 . S
O150 Cd142 2.223 . S
O150 C149 1.315 . S
O151 Cd141 2.240 . S
O151 C149 1.279 . S
O152 Cd142 2.297 . S
O152 C147 1.247 . S
O153 Cd142 2.439 . S
O153 C147 1.208 . S
O154 Cd155 2.223 . S
O154 C162 1.315 . S
Cd155 O154 2.223 . S
Cd155 O158 2.297 . S
Cd155 O159 2.439 . S
Cd155 O165 2.240 . S
Cd156 O157 2.240 . S
Cd156 O164 2.223 . S
Cd156 O166 2.297 . S
Cd156 O167 2.439 . S
O157 Cd156 2.240 . S
O157 C162 1.279 . S
O158 Cd155 2.297 . S
O158 C160 1.247 . S
O159 Cd155 2.439 . S
O159 C160 1.208 . S
C160 O158 1.247 . S
C160 O159 1.208 . S
C161 O166 1.247 . S
C161 O167 1.208 . S
C162 O154 1.315 . S
C162 O157 1.279 . S
C163 O164 1.315 . S
C163 O165 1.279 . S
O164 Cd156 2.223 . S
O164 C163 1.315 . S
O165 Cd155 2.240 . S
O165 C163 1.279 . S
O166 Cd156 2.297 . S
O166 C161 1.247 . S
O167 Cd156 2.439 . S
O167 C161 1.208 . S
O168 Cd169 2.223 . S
O168 C176 1.315 . S
Cd169 O168 2.223 . S
Cd169 O172 2.297 . S
Cd169 O173 2.439 . S
Cd169 O179 2.240 . S
Cd170 O171 2.240 . S
Cd170 O178 2.223 . S
Cd170 O180 2.297 . S
Cd170 O181 2.439 . S
O171 Cd170 2.240 . S
O171 C176 1.279 . S
O172 Cd169 2.297 . S
O172 C174 1.247 . S
O173 Cd169 2.439 . S
O173 C174 1.208 . S
C174 O172 1.247 . S
C174 O173 1.208 . S
C175 O180 1.247 . S
C175 O181 1.208 . S
C176 O168 1.315 . S
C176 O171 1.279 . S
C177 O178 1.315 . S
C177 O179 1.279 . S
O178 Cd170 2.223 . S
O178 C177 1.315 . S
O179 Cd169 2.240 . S
O179 C177 1.279 . S
O180 Cd170 2.297 . S
O180 C175 1.247 . S
O181 Cd170 2.439 . S
O181 C175 1.208 . S
O182 Cd183 2.223 . S
O182 C190 1.315 . S
Cd183 O182 2.223 . S
Cd183 O186 2.297 . S
Cd183 O187 2.439 . S
Cd183 O193 2.240 . S
Cd184 O185 2.240 . S
Cd184 O192 2.223 . S
Cd184 O194 2.297 . S
Cd184 O195 2.439 . S
O185 Cd184 2.240 . S
O185 C190 1.279 . S
O186 Cd183 2.297 . S
O186 C188 1.247 . S
O187 Cd183 2.439 . S
O187 C188 1.208 . S
C188 O186 1.247 . S
C188 O187 1.208 . S
C189 O194 1.247 . S
C189 O195 1.208 . S
C190 O182 1.315 . S
C190 O185 1.279 . S
C191 O192 1.315 . S
C191 O193 1.279 . S
O192 Cd184 2.223 . S
O192 C191 1.315 . S
O193 Cd183 2.240 . S
O193 C191 1.279 . S
O194 Cd184 2.297 . S
O194 C189 1.247 . S
O195 Cd184 2.439 . S
O195 C189 1.208 . S
O196 Cd197 2.223 . S
O196 C204 1.315 . S
Cd197 O196 2.223 . S
Cd197 O200 2.297 . S
Cd197 O201 2.439 . S
Cd197 O207 2.240 . S
Cd198 O199 2.240 . S
Cd198 O206 2.223 . S
Cd198 O208 2.297 . S
Cd198 O209 2.439 . S
O199 Cd198 2.240 . S
O199 C204 1.279 . S
O200 Cd197 2.297 . S
O200 C202 1.247 . S
O201 Cd197 2.439 . S
O201 C202 1.208 . S
C202 O200 1.247 . S
C202 O201 1.208 . S
C203 O208 1.247 . S
C203 O209 1.208 . S
C204 O196 1.315 . S
C204 O199 1.279 . S
C205 O206 1.315 . S
C205 O207 1.279 . S
O206 Cd198 2.223 . S
O206 C205 1.315 . S
O207 Cd197 2.240 . S
O207 C205 1.279 . S
O208 Cd198 2.297 . S
O208 C203 1.247 . S
O209 Cd198 2.439 . S
O209 C203 1.208 . S
O210 Cd211 2.223 . S
O210 C218 1.315 . S
Cd211 O210 2.223 . S
Cd211 O214 2.297 . S
Cd211 O215 2.439 . S
Cd211 O221 2.240 . S
Cd212 O213 2.240 . S
Cd212 O220 2.223 . S
Cd212 O222 2.297 . S
Cd212 O223 2.439 . S
O213 Cd212 2.240 . S
O213 C218 1.279 . S
O214 Cd211 2.297 . S
O214 C216 1.247 . S
O215 Cd211 2.439 . S
O215 C216 1.208 . S
C216 O214 1.247 . S
C216 O215 1.208 . S
C217 O222 1.247 . S
C217 O223 1.208 . S
C218 O210 1.315 . S
C218 O213 1.279 . S
C219 O220 1.315 . S
C219 O221 1.279 . S
O220 Cd212 2.223 . S
O220 C219 1.315 . S
O221 Cd211 2.240 . S
O221 C219 1.279 . S
O222 Cd212 2.297 . S
O222 C217 1.247 . S
O223 Cd212 2.439 . S
O223 C217 1.208 . S
O224 Cd225 2.223 . S
O224 C232 1.315 . S
Cd225 O224 2.223 . S
Cd225 O228 2.297 . S
Cd225 O229 2.439 . S
Cd225 O235 2.240 . S
Cd226 O227 2.240 . S
Cd226 O234 2.223 . S
Cd226 O236 2.297 . S
Cd226 O237 2.439 . S
O227 Cd226 2.240 . S
O227 C232 1.279 . S
O228 Cd225 2.297 . S
O228 C230 1.247 . S
O229 Cd225 2.439 . S
O229 C230 1.208 . S
C230 O228 1.247 . S
C230 O229 1.208 . S
C231 O236 1.247 . S
C231 O237 1.208 . S
C232 O224 1.315 . S
C232 O227 1.279 . S
C233 O234 1.315 . S
C233 O235 1.279 . S
O234 Cd226 2.223 . S
O234 C233 1.315 . S
O235 Cd225 2.240 . S
O235 C233 1.279 . S
O236 Cd226 2.297 . S
O236 C231 1.247 . S
O237 Cd226 2.439 . S
O237 C231 1.208 . S
O238 Cd239 2.223 . S
O238 C246 1.315 . S
Cd239 O238 2.223 . S
Cd239 O242 2.297 . S
Cd239 O243 2.439 . S
Cd239 O249 2.240 . S
Cd240 O241 2.240 . S
Cd240 O248 2.223 . S
Cd240 O250 2.297 . S
Cd240 O251 2.439 . S
O241 Cd240 2.240 . S
O241 C246 1.279 . S
O242 Cd239 2.297 . S
O242 C244 1.247 . S
O243 Cd239 2.439 . S
O243 C244 1.208 . S
C244 O242 1.247 . S
C244 O243 1.208 . S
C245 O250 1.247 . S
C245 O251 1.208 . S
C246 O238 1.315 . S
C246 O241 1.279 . S
C247 O248 1.315 . S
C247 O249 1.279 . S
O248 Cd240 2.223 . S
O248 C247 1.315 . S
O249 Cd239 2.240 . S
O249 C247 1.279 . S
O250 Cd240 2.297 . S
O250 C245 1.247 . S
O251 Cd240 2.439 . S
O251 C245 1.208 . S
O252 Cd253 2.223 . S
O252 C260 1.315 . S
Cd253 O252 2.223 . S
Cd253 O256 2.297 . S
Cd253 O257 2.439 . S
Cd253 O263 2.240 . S
Cd254 O255 2.240 . S
Cd254 O262 2.223 . S
Cd254 O264 2.297 . S
Cd254 O265 2.439 . S
O255 Cd254 2.240 . S
O255 C260 1.279 . S
O256 Cd253 2.297 . S
O256 C258 1.247 . S
O257 Cd253 2.439 . S
O257 C258 1.208 . S
C258 O256 1.247 . S
C258 O257 1.208 . S
C259 O264 1.247 . S
C259 O265 1.208 . S
C260 O252 1.315 . S
C260 O255 1.279 . S
C261 O262 1.315 . S
C261 O263 1.279 . S
O262 Cd254 2.223 . S
O262 C261 1.315 . S
O263 Cd253 2.240 . S
O263 C261 1.279 . S
O264 Cd254 2.297 . S
O264 C259 1.247 . S
O265 Cd254 2.439 . S
O265 C259 1.208 . S
O266 Cd267 2.223 . S
O266 C274 1.315 . S
Cd267 O266 2.223 . S
Cd267 O270 2.297 . S
Cd267 O271 2.439 . S
Cd267 O277 2.240 . S
Cd268 O269 2.240 . S
Cd268 O276 2.223 . S
Cd268 O278 2.297 . S
Cd268 O279 2.439 . S
O269 Cd268 2.240 . S
O269 C274 1.279 . S
O270 Cd267 2.297 . S
O270 C272 1.247 . S
O271 Cd267 2.439 . S
O271 C272 1.208 . S
C272 O270 1.247 . S
C272 O271 1.208 . S
C273 O278 1.247 . S
C273 O279 1.208 . S
C274 O266 1.315 . S
C274 O269 1.279 . S
C275 O276 1.315 . S
C275 O277 1.279 . S
O276 Cd268 2.223 . S
O276 C275 1.315 . S
O277 Cd267 2.240 . S
O277 C275 1.279 . S
O278 Cd268 2.297 . S
O278 C273 1.247 . S
O279 Cd268 2.439 . S
O279 C273 1.208 . S
O280 Cd281 2.223 . S
O280 C288 1.315 . S
Cd281 O280 2.223 . S
Cd281 O284 2.297 . S
Cd281 O285 2.439 . S
Cd281 O291 2.240 . S
Cd282 O283 2.240 . S
Cd282 O290 2.223 . S
Cd282 O292 2.297 . S
Cd282 O293 2.439 . S
O283 Cd282 2.240 . S
O283 C288 1.279 . S
O284 Cd281 2.297 . S
O284 C286 1.247 . S
O285 Cd281 2.439 . S
O285 C286 1.208 . S
C286 O284 1.247 . S
C286 O285 1.208 . S
C287 O292 1.247 . S
C287 O293 1.208 . S
C288 O280 1.315 . S
C288 O283 1.279 . S
C289 O290 1.315 . S
C289 O291 1.279 . S
O290 Cd282 2.223 . S
O290 C289 1.315 . S
O291 Cd281 2.240 . S
O291 C289 1.279 . S
O292 Cd282 2.297 . S
O292 C287 1.247 . S
O293 Cd282 2.439 . S
O293 C287 1.208 . S
O294 Cd295 2.223 . S
O294 C302 1.315 . S
Cd295 O294 2.223 . S
Cd295 O298 2.297 . S
Cd295 O299 2.439 . S
Cd295 O305 2.240 . S
Cd296 O297 2.240 . S
Cd296 O304 2.223 . S
Cd296 O306 2.297 . S
Cd296 O307 2.439 . S
O297 Cd296 2.240 . S
O297 C302 1.279 . S
O298 Cd295 2.297 . S
O298 C300 1.247 . S
O299 Cd295 2.439 . S
O299 C300 1.208 . S
C300 O298 1.247 . S
C300 O299 1.208 . S
C301 O306 1.247 . S
C301 O307 1.208 . S
C302 O294 1.315 . S
C302 O297 1.279 . S
C303 O304 1.315 . S
C303 O305 1.279 . S
O304 Cd296 2.223 . S
O304 C303 1.315 . S
O305 Cd295 2.240 . S
O305 C303 1.279 . S
O306 Cd296 2.297 . S
O306 C301 1.247 . S
O307 Cd296 2.439 . S
O307 C301 1.208 . S
O308 Cd309 2.223 . S
O308 C316 1.315 . S
Cd309 O308 2.223 . S
Cd309 O312 2.297 . S
Cd309 O313 2.439 . S
Cd309 O319 2.240 . S
Cd310 O311 2.240 . S
Cd310 O318 2.223 . S
Cd310 O320 2.297 . S
Cd310 O321 2.439 . S
O311 Cd310 2.240 . S
O311 C316 1.279 . S
O312 Cd309 2.297 . S
O312 C314 1.247 . S
O313 Cd309 2.439 . S
O313 C314 1.208 . S
C314 O312 1.247 . S
C314 O313 1.208 . S
C315 O320 1.247 . S
C315 O321 1.208 . S
C316 O308 1.315 . S
C316 O311 1.279 . S
C317 O318 1.315 . S
C317 O319 1.279 . S
O318 Cd310 2.223 . S
O318 C317 1.315 . S
O319 Cd309 2.240 . S
O319 C317 1.279 . S
O320 Cd310 2.297 . S
O320 C315 1.247 . S
O321 Cd310 2.439 . S
O321 C315 1.208 . S
O322 Cd323 2.223 . S
O322 C330 1.315 . S
Cd323 O322 2.223 . S
Cd323 O326 2.297 . S
Cd323 O327 2.439 . S
Cd323 O333 2.240 . S
Cd324 O325 2.240 . S
Cd324 O332 2.223 . S
Cd324 O334 2.297 . S
Cd324 O335 2.439 . S
O325 Cd324 2.240 . S
O325 C330 1.279 . S
O326 Cd323 2.297 . S
O326 C328 1.247 . S
O327 Cd323 2.439 . S
O327 C328 1.208 . S
C328 O326 1.247 . S
C328 O327 1.208 . S
C329 O334 1.247 . S
C329 O335 1.208 . S
C330 O322 1.315 . S
C330 O325 1.279 . S
C331 O332 1.315 . S
C331 O333 1.279 . S
O332 Cd324 2.223 . S
O332 C331 1.315 . S
O333 Cd323 2.240 . S
O333 C331 1.279 . S
O334 Cd324 2.297 . S
O334 C329 1.247 . S
O335 Cd324 2.439 . S
O335 C329 1.208 . S
O336 Cd337 2.223 . S
O336 C344 1.315 . S
Cd337 O336 2.223 . S
Cd337 O340 2.297 . S
Cd337 O341 2.439 . S
Cd337 O347 2.240 . S
Cd338 O339 2.240 . S
Cd338 O346 2.223 . S
Cd338 O348 2.297 . S
Cd338 O349 2.439 . S
O339 Cd338 2.240 . S
O339 C344 1.279 . S
O340 Cd337 2.297 . S
O340 C342 1.247 . S
O341 Cd337 2.439 . S
O341 C342 1.208 . S
C342 O340 1.247 . S
C342 O341 1.208 . S
C343 O348 1.247 . S
C343 O349 1.208 . S
C344 O336 1.315 . S
C344 O339 1.279 . S
C345 O346 1.315 . S
C345 O347 1.279 . S
O346 Cd338 2.223 . S
O346 C345 1.315 . S
O347 Cd337 2.240 . S
O347 C345 1.279 . S
O348 Cd338 2.297 . S
O348 C343 1.247 . S
O349 Cd338 2.439 . S
O349 C343 1.208 . S
O350 Cd351 2.223 . S
O350 C358 1.315 . S
Cd351 O350 2.223 . S
Cd351 O354 2.297 . S
Cd351 O355 2.439 . S
Cd351 O361 2.240 . S
Cd352 O353 2.240 . S
Cd352 O360 2.223 . S
Cd352 O362 2.297 . S
Cd352 O363 2.439 . S
O353 Cd352 2.240 . S
O353 C358 1.279 . S
O354 Cd351 2.297 . S
O354 C356 1.247 . S
O355 Cd351 2.439 . S
O355 C356 1.208 . S
C356 O354 1.247 . S
C356 O355 1.208 . S
C357 O362 1.247 . S
C357 O363 1.208 . S
C358 O350 1.315 . S
C358 O353 1.279 . S
C359 O360 1.315 . S
C359 O361 1.279 . S
O360 Cd352 2.223 . S
O360 C359 1.315 . S
O361 Cd351 2.240 . S
O361 C359 1.279 . S
O362 Cd352 2.297 . S
O362 C357 1.247 . S
O363 Cd352 2.439 . S
O363 C357 1.208 . S
O364 Cd365 2.223 . S
O364 C372 1.315 . S
Cd365 O364 2.223 . S
Cd365 O368 2.297 . S
Cd365 O369 2.439 . S
Cd365 O375 2.240 . S
Cd366 O367 2.240 . S
Cd366 O374 2.223 . S
Cd366 O376 2.297 . S
Cd366 O377 2.439 . S
O367 Cd366 2.240 . S
O367 C372 1.279 . S
O368 Cd365 2.297 . S
O368 C370 1.247 . S
O369 Cd365 2.439 . S
O369 C370 1.208 . S
C370 O368 1.247 . S
C370 O369 1.208 . S
C371 O376 1.247 . S
C371 O377 1.208 . S
C372 O364 1.315 . S
C372 O367 1.279 . S
C373 O374 1.315 . S
C373 O375 1.279 . S
O374 Cd366 2.223 . S
O374 C373 1.315 . S
O375 Cd365 2.240 . S
O375 C373 1.279 . S
O376 Cd366 2.297 . S
O376 C371 1.247 . S
O377 Cd366 2.439 . S
O377 C371 1.208 . S
O378 Cd379 2.223 . S
O378 C386 1.315 . S
Cd379 O378 2.223 . S
Cd379 O382 2.297 . S
Cd379 O383 2.439 . S
Cd379 O389 2.240 . S
Cd380 O381 2.240 . S
Cd380 O388 2.223 . S
Cd380 O390 2.297 . S
Cd380 O391 2.439 . S
O381 Cd380 2.240 . S
O381 C386 1.279 . S
O382 Cd379 2.297 . S
O382 C384 1.247 . S
O383 Cd379 2.439 . S
O383 C384 1.208 . S
C384 O382 1.247 . S
C384 O383 1.208 . S
C385 O390 1.247 . S
C385 O391 1.208 . S
C386 O378 1.315 . S
C386 O381 1.279 . S
C387 O388 1.315 . S
C387 O389 1.279 . S
O388 Cd380 2.223 . S
O388 C387 1.315 . S
O389 Cd379 2.240 . S
O389 C387 1.279 . S
O390 Cd380 2.297 . S
O390 C385 1.247 . S
O391 Cd380 2.439 . S
O391 C385 1.208 . S
O392 Cd393 2.223 . S
O392 C400 1.315 . S
Cd393 O392 2.223 . S
Cd393 O396 2.297 . S
Cd393 O397 2.439 . S
Cd393 O403 2.240 . S
Cd394 O395 2.240 . S
Cd394 O402 2.223 . S
Cd394 O404 2.297 . S
Cd394 O405 2.439 . S
O395 Cd394 2.240 . S
O395 C400 1.279 . S
O396 Cd393 2.297 . S
O396 C398 1.247 . S
O397 Cd393 2.439 . S
O397 C398 1.208 . S
C398 O396 1.247 . S
C398 O397 1.208 . S
C399 O404 1.247 . S
C399 O405 1.208 . S
C400 O392 1.315 . S
C400 O395 1.279 . S
C401 O402 1.315 . S
C401 O403 1.279 . S
O402 Cd394 2.223 . S
O402 C401 1.315 . S
O403 Cd393 2.240 . S
O403 C401 1.279 . S
O404 Cd394 2.297 . S
O404 C399 1.247 . S
O405 Cd394 2.439 . S
O405 C399 1.208 . S
O406 Cd407 2.223 . S
O406 C414 1.315 . S
Cd407 O406 2.223 . S
Cd407 O410 2.297 . S
Cd407 O411 2.439 . S
Cd407 O417 2.240 . S
Cd408 O409 2.240 . S
Cd408 O416 2.223 . S
Cd408 O418 2.297 . S
Cd408 O419 2.439 . S
O409 Cd408 2.240 . S
O409 C414 1.279 . S
O410 Cd407 2.297 . S
O410 C412 1.247 . S
O411 Cd407 2.439 . S
O411 C412 1.208 . S
C412 O410 1.247 . S
C412 O411 1.208 . S
C413 O418 1.247 . S
C413 O419 1.208 . S
C414 O406 1.315 . S
C414 O409 1.279 . S
C415 O416 1.315 . S
C415 O417 1.279 . S
O416 Cd408 2.223 . S
O416 C415 1.315 . S
O417 Cd407 2.240 . S
O417 C415 1.279 . S
O418 Cd408 2.297 . S
O418 C413 1.247 . S
O419 Cd408 2.439 . S
O419 C413 1.208 . S
O420 Cd421 2.223 . S
O420 C428 1.315 . S
Cd421 O420 2.223 . S
Cd421 O424 2.297 . S
Cd421 O425 2.439 . S
Cd421 O431 2.240 . S
Cd422 O423 2.240 . S
Cd422 O430 2.223 . S
Cd422 O432 2.297 . S
Cd422 O433 2.439 . S
O423 Cd422 2.240 . S
O423 C428 1.279 . S
O424 Cd421 2.297 . S
O424 C426 1.247 . S
O425 Cd421 2.439 . S
O425 C426 1.208 . S
C426 O424 1.247 . S
C426 O425 1.208 . S
C427 O432 1.247 . S
C427 O433 1.208 . S
C428 O420 1.315 . S
C428 O423 1.279 . S
C429 O430 1.315 . S
C429 O431 1.279 . S
O430 Cd422 2.223 . S
O430 C429 1.315 . S
O431 Cd421 2.240 . S
O431 C429 1.279 . S
O432 Cd422 2.297 . S
O432 C427 1.247 . S
O433 Cd422 2.439 . S
O433 C427 1.208 . S
O434 Cd435 2.223 . S
O434 C442 1.315 . S
Cd435 O434 2.223 . S
Cd435 O438 2.297 . S
Cd435 O439 2.439 . S
Cd435 O445 2.240 . S
Cd436 O437 2.240 . S
Cd436 O444 2.223 . S
Cd436 O446 2.297 . S
Cd436 O447 2.439 . S
O437 Cd436 2.240 . S
O437 C442 1.279 . S
O438 Cd435 2.297 . S
O438 C440 1.247 . S
O439 Cd435 2.439 . S
O439 C440 1.208 . S
C440 O438 1.247 . S
C440 O439 1.208 . S
C441 O446 1.247 . S
C441 O447 1.208 . S
C442 O434 1.315 . S
C442 O437 1.279 . S
C443 O444 1.315 . S
C443 O445 1.279 . S
O444 Cd436 2.223 . S
O444 C443 1.315 . S
O445 Cd435 2.240 . S
O445 C443 1.279 . S
O446 Cd436 2.297 . S
O446 C441 1.247 . S
O447 Cd436 2.439 . S
O447 C441 1.208 . S
H448 C454 0.930 . S
H449 C457 0.930 . S
H450 C458 0.930 . S
H451 C459 0.930 . S
H452 C462 0.930 . S
H453 C463 0.930 . S
C454 H448 0.930 . S
C454 C455 1.355 . S
C454 C456 1.415 . S
C455 C454 1.355 . S
C455 C457 1.419 . S
C456 C454 1.415 . S
C456 C461 1.425 . S
C456 C463 1.409 . S
C457 H449 0.930 . S
C457 C455 1.419 . S
C457 C458 1.362 . S
C458 H450 0.930 . S
C458 C457 1.362 . S
C458 C461 1.409 . S
C459 H451 0.930 . S
C459 C460 1.355 . S
C459 C461 1.415 . S
C460 C459 1.355 . S
C460 C462 1.419 . S
C461 C456 1.425 . S
C461 C458 1.409 . S
C461 C459 1.415 . S
C462 H452 0.930 . S
C462 C460 1.419 . S
C462 C463 1.362 . S
C463 H453 0.930 . S
C463 C456 1.409 . S
C463 C462 1.362 . S
H464 C470 0.930 . S
H465 C473 0.930 . S
H466 C474 0.930 1_545 S
H467 C475 0.930 . S
H468 C478 0.930 . S
H469 C479 0.930 1_565 S
C470 H464 0.930 . S
C470 C471 1.355 . S
C470 C472 1.415 . S
C471 C470 1.355 . S
C471 C473 1.419 . S
C472 C470 1.415 . S
C472 C477 1.425 1_565 S
C472 C479 1.409 1_565 S
C473 H465 0.930 . S
C473 C471 1.419 . S
C473 C474 1.362 . S
C474 H466 0.930 1_565 S
C474 C473 1.362 . S
C474 C477 1.409 1_565 S
C475 H467 0.930 . S
C475 C476 1.355 . S
C475 C477 1.415 . S
C476 C475 1.355 . S
C476 C478 1.419 . S
C477 C472 1.425 1_545 S
C477 C474 1.409 1_545 S
C477 C475 1.415 . S
C478 H468 0.930 . S
C478 C476 1.419 . S
C478 C479 1.362 . S
C479 H469 0.930 1_545 S
C479 C472 1.409 1_545 S
C479 C478 1.362 . S
H480 C486 0.930 . S
H481 C489 0.930 . S
H482 C490 0.930 . S
H483 C491 0.930 . S
H484 C494 0.930 . S
H485 C495 0.930 . S
C486 H480 0.930 . S
C486 C487 1.355 . S
C486 C488 1.415 . S
C487 C486 1.355 . S
C487 C489 1.419 . S
C488 C486 1.415 . S
C488 C493 1.425 . S
C488 C495 1.409 . S
C489 H481 0.930 . S
C489 C487 1.419 . S
C489 C490 1.362 . S
C490 H482 0.930 . S
C490 C489 1.362 . S
C490 C493 1.409 . S
C491 H483 0.930 . S
C491 C492 1.355 . S
C491 C493 1.415 . S
C492 C491 1.355 . S
C492 C494 1.419 . S
C493 C488 1.425 . S
C493 C490 1.409 . S
C493 C491 1.415 . S
C494 H484 0.930 . S
C494 C492 1.419 . S
C494 C495 1.362 . S
C495 H485 0.930 . S
C495 C488 1.409 . S
C495 C494 1.362 . S
H496 C502 0.930 1_554 S
H497 C505 0.930 . S
H498 C506 0.952 . S
H499 C507 0.930 1_556 S
H500 C510 0.930 . S
H501 C511 0.952 . S
C502 H496 0.930 1_556 S
C502 C503 1.355 . S
C502 C504 1.415 1_556 S
C503 C502 1.355 . S
C503 C505 1.419 . S
C504 C502 1.415 1_554 S
C504 C509 1.425 1_544 S
C504 C511 1.409 1_545 S
C505 H497 0.930 . S
C505 C503 1.419 . S
C505 C506 1.362 . S
C506 H498 0.952 . S
C506 C505 1.362 . S
C506 C509 1.409 1_545 S
C507 H499 0.930 1_554 S
C507 C508 1.355 . S
C507 C509 1.415 1_554 S
C508 C507 1.355 . S
C508 C510 1.419 . S
C509 C504 1.425 1_566 S
C509 C506 1.409 1_565 S
C509 C507 1.415 1_556 S
C510 H500 0.930 . S
C510 C508 1.419 . S
C510 C511 1.362 . S
C511 H501 0.952 . S
C511 C504 1.409 1_565 S
C511 C510 1.362 . S
H512 C518 0.930 . S
H513 C521 0.930 . S
H514 C522 0.930 . S
H515 C523 0.930 . S
H516 C526 0.930 . S
H517 C527 0.930 . S
C518 H512 0.930 . S
C518 C519 1.355 . S
C518 C520 1.415 . S
C519 C518 1.355 . S
C519 C521 1.419 . S
C520 C518 1.415 . S
C520 C525 1.425 . S
C520 C527 1.409 . S
C521 H513 0.930 . S
C521 C519 1.419 . S
C521 C522 1.362 . S
C522 H514 0.930 . S
C522 C521 1.362 . S
C522 C525 1.409 . S
C523 H515 0.930 . S
C523 C524 1.355 . S
C523 C525 1.415 . S
C524 C523 1.355 . S
C524 C526 1.419 . S
C525 C520 1.425 . S
C525 C522 1.409 . S
C525 C523 1.415 . S
C526 H516 0.930 . S
C526 C524 1.419 . S
C526 C527 1.362 . S
C527 H517 0.930 . S
C527 C520 1.409 . S
C527 C526 1.362 . S
H528 C534 0.930 . S
H529 C537 0.930 . S
H530 C538 0.909 1_545 S
H531 C539 0.930 . S
H532 C542 0.930 . S
H533 C543 0.909 1_565 S
C534 H528 0.930 . S
C534 C535 1.355 . S
C534 C536 1.415 . S
C535 C534 1.355 . S
C535 C537 1.419 . S
C536 C534 1.415 . S
C536 C541 1.425 1_565 S
C536 C543 1.409 1_565 S
C537 H529 0.930 . S
C537 C535 1.419 . S
C537 C538 1.362 . S
C538 H530 0.909 1_565 S
C538 C537 1.362 . S
C538 C541 1.409 1_565 S
C539 H531 0.930 . S
C539 C540 1.355 . S
C539 C541 1.415 . S
C540 C539 1.355 . S
C540 C542 1.419 . S
C541 C536 1.425 1_545 S
C541 C538 1.409 1_545 S
C541 C539 1.415 . S
C542 H532 0.930 . S
C542 C540 1.419 . S
C542 C543 1.362 . S
C543 H533 0.909 1_545 S
C543 C536 1.409 1_545 S
C543 C542 1.362 . S
H544 C550 0.930 . S
H545 C553 0.930 . S
H546 C554 0.930 . S
H547 C555 0.930 . S
H548 C558 0.930 . S
H549 C559 0.930 . S
C550 H544 0.930 . S
C550 C551 1.355 . S
C550 C552 1.415 . S
C551 C550 1.355 . S
C551 C553 1.419 . S
C552 C550 1.415 . S
C552 C557 1.425 . S
C552 C559 1.409 . S
C553 H545 0.930 . S
C553 C551 1.419 . S
C553 C554 1.362 . S
C554 H546 0.930 . S
C554 C553 1.362 . S
C554 C557 1.409 . S
C555 H547 0.930 . S
C555 C556 1.355 . S
C555 C557 1.415 . S
C556 C555 1.355 . S
C556 C558 1.419 . S
C557 C552 1.425 . S
C557 C554 1.409 . S
C557 C555 1.415 . S
C558 H548 0.930 . S
C558 C556 1.419 . S
C558 C559 1.362 . S
C559 H549 0.930 . S
C559 C552 1.409 . S
C559 C558 1.362 . S
H560 C566 0.930 . S
H561 C569 0.930 . S
H562 C570 0.930 . S
H563 C571 0.930 . S
H564 C574 0.930 . S
H565 C575 0.930 . S
C566 H560 0.930 . S
C566 C567 1.355 . S
C566 C568 1.415 . S
C567 C566 1.355 . S
C567 C569 1.419 . S
C568 C566 1.415 . S
C568 C573 1.425 1_546 S
C568 C575 1.409 1_545 S
C569 H561 0.930 . S
C569 C567 1.419 . S
C569 C570 1.362 1_556 S
C570 H562 0.930 . S
C570 C569 1.362 1_554 S
C570 C573 1.409 1_545 S
C571 H563 0.930 . S
C571 C572 1.355 . S
C571 C573 1.415 . S
C572 C571 1.355 . S
C572 C574 1.419 . S
C573 C568 1.425 1_564 S
C573 C570 1.409 1_565 S
C573 C571 1.415 . S
C574 H564 0.930 . S
C574 C572 1.419 . S
C574 C575 1.362 1_554 S
C575 H565 0.930 . S
C575 C568 1.409 1_565 S
C575 C574 1.362 1_556 S
H576 C582 0.930 . S
H577 C585 0.930 . S
H578 C586 0.930 . S
H579 C587 0.930 . S
H580 C590 0.930 . S
H581 C591 0.930 . S
C582 H576 0.930 . S
C582 C583 1.355 . S
C582 C584 1.415 . S
C583 C582 1.355 . S
C583 C585 1.419 . S
C584 C582 1.415 . S
C584 C589 1.425 . S
C584 C591 1.409 . S
C585 H577 0.930 . S
C585 C583 1.419 . S
C585 C586 1.362 . S
C586 H578 0.930 . S
C586 C585 1.362 . S
C586 C589 1.409 . S
C587 H579 0.930 . S
C587 C588 1.355 . S
C587 C589 1.415 . S
C588 C587 1.355 . S
C588 C590 1.419 . S
C589 C584 1.425 . S
C589 C586 1.409 . S
C589 C587 1.415 . S
C590 H580 0.930 . S
C590 C588 1.419 . S
C590 C591 1.362 . S
C591 H581 0.930 . S
C591 C584 1.409 . S
C591 C590 1.362 . S
H592 C598 0.930 . S
H593 C601 0.930 . S
H594 C602 0.930 . S
H595 C603 0.930 . S
H596 C606 0.930 . S
H597 C607 0.930 . S
C598 H592 0.930 . S
C598 C599 1.355 . S
C598 C600 1.415 . S
C599 C598 1.355 . S
C599 C601 1.419 1_556 S
C600 C598 1.415 . S
C600 C605 1.425 1_556 S
C600 C607 1.409 . S
C601 H593 0.930 . S
C601 C599 1.419 1_554 S
C601 C602 1.362 . S
C602 H594 0.930 . S
C602 C601 1.362 . S
C602 C605 1.409 . S
C603 H595 0.930 . S
C603 C604 1.355 . S
C603 C605 1.415 . S
C604 C603 1.355 . S
C604 C606 1.419 1_554 S
C605 C600 1.425 1_554 S
C605 C602 1.409 . S
C605 C603 1.415 . S
C606 H596 0.930 . S
C606 C604 1.419 1_556 S
C606 C607 1.362 . S
C607 H597 0.930 . S
C607 C600 1.409 . S
C607 C606 1.362 . S
H608 C614 0.930 . S
H609 C617 0.930 . S
H610 C618 0.930 . S
H611 C619 0.930 . S
H612 C622 0.930 . S
H613 C623 0.930 . S
C614 H608 0.930 . S
C614 C615 1.355 . S
C614 C616 1.415 . S
C615 C614 1.355 . S
C615 C617 1.419 . S
C616 C614 1.415 . S
C616 C621 1.425 . S
C616 C623 1.409 . S
C617 H609 0.930 . S
C617 C615 1.419 . S
C617 C618 1.362 . S
C618 H610 0.930 . S
C618 C617 1.362 . S
C618 C621 1.409 . S
C619 H611 0.930 . S
C619 C620 1.355 . S
C619 C621 1.415 . S
C620 C619 1.355 . S
C620 C622 1.419 . S
C621 C616 1.425 . S
C621 C618 1.409 . S
C621 C619 1.415 . S
C622 H612 0.930 . S
C622 C620 1.419 . S
C622 C623 1.362 . S
C623 H613 0.930 . S
C623 C616 1.409 . S
C623 C622 1.362 . S
H624 C630 0.930 . S
H625 C633 0.930 . S
H626 C634 0.930 . S
H627 C635 0.930 . S
H628 C638 0.930 . S
H629 C639 0.930 . S
C630 H624 0.930 . S
C630 C631 1.355 . S
C630 C632 1.415 . S
C631 C630 1.355 . S
C631 C633 1.419 . S
C632 C630 1.415 . S
C632 C637 1.425 . S
C632 C639 1.409 . S
C633 H625 0.930 . S
C633 C631 1.419 . S
C633 C634 1.362 . S
C634 H626 0.930 . S
C634 C633 1.362 . S
C634 C637 1.409 . S
C635 H627 0.930 . S
C635 C636 1.355 . S
C635 C637 1.415 . S
C636 C635 1.355 . S
C636 C638 1.419 . S
C637 C632 1.425 . S
C637 C634 1.409 . S
C637 C635 1.415 . S
C638 H628 0.930 . S
C638 C636 1.419 . S
C638 C639 1.362 . S
C639 H629 0.930 . S
C639 C632 1.409 . S
C639 C638 1.362 . S
H640 C646 0.930 . S
H641 C649 0.930 . S
H642 C650 0.930 . S
H643 C651 0.930 . S
H644 C654 0.930 . S
H645 C655 0.930 . S
C646 H640 0.930 . S
C646 C647 1.355 . S
C646 C648 1.415 . S
C647 C646 1.355 . S
C647 C649 1.419 . S
C648 C646 1.415 . S
C648 C653 1.425 . S
C648 C655 1.409 . S
C649 H641 0.930 . S
C649 C647 1.419 . S
C649 C650 1.362 . S
C650 H642 0.930 . S
C650 C649 1.362 . S
C650 C653 1.409 . S
C651 H643 0.930 . S
C651 C652 1.355 . S
C651 C653 1.415 . S
C652 C651 1.355 . S
C652 C654 1.419 . S
C653 C648 1.425 . S
C653 C650 1.409 . S
C653 C651 1.415 . S
C654 H644 0.930 . S
C654 C652 1.419 . S
C654 C655 1.362 . S
C655 H645 0.930 . S
C655 C648 1.409 . S
C655 C654 1.362 . S
H656 C662 0.930 . S
H657 C665 0.930 . S
H658 C666 0.930 . S
H659 C667 0.930 . S
H660 C670 0.930 . S
H661 C671 0.930 . S
C662 H656 0.930 . S
C662 C663 1.355 . S
C662 C664 1.415 . S
C663 C662 1.355 . S
C663 C665 1.419 . S
C664 C662 1.415 . S
C664 C669 1.425 1_554 S
C664 C671 1.409 1_554 S
C665 H657 0.930 . S
C665 C663 1.419 . S
C665 C666 1.362 . S
C666 H658 0.930 . S
C666 C665 1.362 . S
C666 C669 1.409 1_554 S
C667 H659 0.930 . S
C667 C668 1.355 . S
C667 C669 1.415 . S
C668 C667 1.355 . S
C668 C670 1.419 . S
C669 C664 1.425 1_556 S
C669 C666 1.409 1_556 S
C669 C667 1.415 . S
C670 H660 0.930 . S
C670 C668 1.419 . S
C670 C671 1.362 . S
C671 H661 0.930 . S
C671 C664 1.409 1_556 S
C671 C670 1.362 . S
H672 C678 0.930 . S
H673 C681 0.930 . S
H674 C682 0.930 . S
H675 C683 0.930 . S
H676 C686 0.930 . S
H677 C687 0.930 . S
C678 H672 0.930 . S
C678 C679 1.355 . S
C678 C680 1.415 . S
C679 C678 1.355 . S
C679 C681 1.419 . S
C680 C678 1.415 . S
C680 C685 1.425 . S
C680 C687 1.409 . S
C681 H673 0.930 . S
C681 C679 1.419 . S
C681 C682 1.362 . S
C682 H674 0.930 . S
C682 C681 1.362 . S
C682 C685 1.409 . S
C683 H675 0.930 . S
C683 C684 1.355 . S
C683 C685 1.415 . S
C684 C683 1.355 . S
C684 C686 1.419 . S
C685 C680 1.425 . S
C685 C682 1.409 . S
C685 C683 1.415 . S
C686 H676 0.930 . S
C686 C684 1.419 . S
C686 C687 1.362 . S
C687 H677 0.930 . S
C687 C680 1.409 . S
C687 C686 1.362 . S
H688 C694 0.930 . S
H689 C697 0.930 . S
H690 C698 0.930 . S
H691 C699 0.930 . S
H692 C702 0.930 . S
H693 C703 0.930 . S
C694 H688 0.930 . S
C694 C695 1.355 . S
C694 C696 1.415 . S
C695 C694 1.355 . S
C695 C697 1.419 . S
C696 C694 1.415 . S
C696 C701 1.425 . S
C696 C703 1.409 . S
C697 H689 0.930 . S
C697 C695 1.419 . S
C697 C698 1.362 . S
C698 H690 0.930 . S
C698 C697 1.362 . S
C698 C701 1.409 . S
C699 H691 0.930 . S
C699 C700 1.355 . S
C699 C701 1.415 . S
C700 C699 1.355 . S
C700 C702 1.419 . S
C701 C696 1.425 . S
C701 C698 1.409 . S
C701 C699 1.415 . S
C702 H692 0.930 . S
C702 C700 1.419 . S
C702 C703 1.362 . S
C703 H693 0.930 . S
C703 C696 1.409 . S
C703 C702 1.362 . S
H704 C710 0.930 . S
H705 C713 0.930 . S
H706 C714 0.930 . S
H707 C715 0.930 . S
H708 C718 0.930 . S
H709 C719 0.930 . S
C710 H704 0.930 . S
C710 C711 1.355 . S
C710 C712 1.415 . S
C711 C710 1.355 . S
C711 C713 1.419 . S
C712 C710 1.415 . S
C712 C717 1.425 . S
C712 C719 1.409 . S
C713 H705 0.930 . S
C713 C711 1.419 . S
C713 C714 1.362 . S
C714 H706 0.930 . S
C714 C713 1.362 . S
C714 C717 1.409 . S
C715 H707 0.930 . S
C715 C716 1.355 . S
C715 C717 1.415 . S
C716 C715 1.355 . S
C716 C718 1.419 . S
C717 C712 1.425 . S
C717 C714 1.409 . S
C717 C715 1.415 . S
C718 H708 0.930 . S
C718 C716 1.419 . S
C718 C719 1.362 . S
C719 H709 0.930 . S
C719 C712 1.409 . S
C719 C718 1.362 . S
H720 C726 0.930 . S
H721 C729 0.930 1_556 S
H722 C730 0.930 . S
H723 C731 0.930 . S
H724 C734 0.930 . S
H725 C735 0.930 . S
C726 H720 0.930 . S
C726 C727 1.355 . S
C726 C728 1.415 . S
C727 C726 1.355 . S
C727 C729 1.419 . S
C728 C726 1.415 . S
C728 C733 1.425 . S
C728 C735 1.409 . S
C729 H721 0.930 1_554 S
C729 C727 1.419 . S
C729 C730 1.362 . S
C730 H722 0.930 . S
C730 C729 1.362 . S
C730 C733 1.409 . S
C731 H723 0.930 . S
C731 C732 1.355 . S
C731 C733 1.415 . S
C732 C731 1.355 . S
C732 C734 1.419 . S
C733 C728 1.425 . S
C733 C730 1.409 . S
C733 C731 1.415 . S
C734 H724 0.930 . S
C734 C732 1.419 . S
C734 C735 1.362 . S
C735 H725 0.930 . S
C735 C728 1.409 . S
C735 C734 1.362 . S
H736 C742 0.930 . S
H737 C745 0.930 . S
H738 C746 0.930 . S
H739 C747 0.930 . S
H740 C750 0.930 . S
H741 C751 0.930 . S
C742 H736 0.930 . S
C742 C743 1.355 . S
C742 C744 1.415 . S
C743 C742 1.355 . S
C743 C745 1.419 . S
C744 C742 1.415 . S
C744 C749 1.425 . S
C744 C751 1.409 . S
C745 H737 0.930 . S
C745 C743 1.419 . S
C745 C746 1.362 . S
C746 H738 0.930 . S
C746 C745 1.362 . S
C746 C749 1.409 . S
C747 H739 0.930 . S
C747 C748 1.355 . S
C747 C749 1.415 . S
C748 C747 1.355 . S
C748 C750 1.419 . S
C749 C744 1.425 . S
C749 C746 1.409 . S
C749 C747 1.415 . S
C750 H740 0.930 . S
C750 C748 1.419 . S
C750 C751 1.362 . S
C751 H741 0.930 . S
C751 C744 1.409 . S
C751 C750 1.362 . S
H752 C758 0.930 . S
H753 C761 0.930 . S
H754 C762 0.930 . S
H755 C763 0.930 . S
H756 C766 0.930 . S
H757 C767 0.930 . S
C758 H752 0.930 . S
C758 C759 1.355 . S
C758 C760 1.415 . S
C759 C758 1.355 . S
C759 C761 1.419 . S
C760 C758 1.415 . S
C760 C765 1.425 . S
C760 C767 1.409 . S
C761 H753 0.930 . S
C761 C759 1.419 . S
C761 C762 1.362 . S
C762 H754 0.930 . S
C762 C761 1.362 . S
C762 C765 1.409 . S
C763 H755 0.930 . S
C763 C764 1.355 . S
C763 C765 1.415 . S
C764 C763 1.355 . S
C764 C766 1.419 . S
C765 C760 1.425 . S
C765 C762 1.409 . S
C765 C763 1.415 . S
C766 H756 0.930 . S
C766 C764 1.419 . S
C766 C767 1.362 . S
C767 H757 0.930 . S
C767 C760 1.409 . S
C767 C766 1.362 . S
H768 C774 0.930 . S
H769 C777 0.930 . S
H770 C778 0.930 . S
H771 C779 0.930 . S
H772 C782 0.930 . S
H773 C783 0.930 . S
C774 H768 0.930 . S
C774 C775 1.355 . S
C774 C776 1.415 . S
C775 C774 1.355 . S
C775 C777 1.419 . S
C776 C774 1.415 . S
C776 C781 1.425 . S
C776 C783 1.409 . S
C777 H769 0.930 . S
C777 C775 1.419 . S
C777 C778 1.362 . S
C778 H770 0.930 . S
C778 C777 1.362 . S
C778 C781 1.409 . S
C779 H771 0.930 . S
C779 C780 1.355 . S
C779 C781 1.415 . S
C780 C779 1.355 . S
C780 C782 1.419 . S
C781 C776 1.425 . S
C781 C778 1.409 . S
C781 C779 1.415 . S
C782 H772 0.930 . S
C782 C780 1.419 . S
C782 C783 1.362 . S
C783 H773 0.930 . S
C783 C776 1.409 . S
C783 C782 1.362 . S
H784 C790 0.930 . S
H785 C793 0.930 . S
H786 C794 0.930 . S
H787 C795 0.930 . S
H788 C798 0.930 . S
H789 C799 0.930 . S
C790 H784 0.930 . S
C790 C791 1.355 . S
C790 C792 1.415 . S
C791 C790 1.355 . S
C791 C793 1.419 . S
C792 C790 1.415 . S
C792 C797 1.425 . S
C792 C799 1.409 . S
C793 H785 0.930 . S
C793 C791 1.419 . S
C793 C794 1.362 . S
C794 H786 0.930 . S
C794 C793 1.362 . S
C794 C797 1.409 . S
C795 H787 0.930 . S
C795 C796 1.355 . S
C795 C797 1.415 . S
C796 C795 1.355 . S
C796 C798 1.419 . S
C797 C792 1.425 . S
C797 C794 1.409 . S
C797 C795 1.415 . S
C798 H788 0.930 . S
C798 C796 1.419 . S
C798 C799 1.362 . S
C799 H789 0.930 . S
C799 C792 1.409 . S
C799 C798 1.362 . S
H800 C806 0.930 . S
H801 C809 0.930 . S
H802 C810 0.930 . S
H803 C811 0.930 . S
H804 C814 0.930 . S
H805 C815 0.930 . S
C806 H800 0.930 . S
C806 C807 1.355 . S
C806 C808 1.415 . S
C807 C806 1.355 . S
C807 C809 1.419 . S
C808 C806 1.415 . S
C808 C813 1.425 . S
C808 C815 1.409 . S
C809 H801 0.930 . S
C809 C807 1.419 . S
C809 C810 1.362 . S
C810 H802 0.930 . S
C810 C809 1.362 . S
C810 C813 1.409 . S
C811 H803 0.930 . S
C811 C812 1.355 . S
C811 C813 1.415 . S
C812 C811 1.355 . S
C812 C814 1.419 . S
C813 C808 1.425 . S
C813 C810 1.409 . S
C813 C811 1.415 . S
C814 H804 0.930 . S
C814 C812 1.419 . S
C814 C815 1.362 . S
C815 H805 0.930 . S
C815 C808 1.409 . S
C815 C814 1.362 . S
H816 C822 0.930 . S
H817 C825 0.930 . S
H818 C826 0.930 . S
H819 C827 0.930 . S
H820 C830 0.930 . S
H821 C831 0.930 . S
C822 H816 0.930 . S
C822 C823 1.355 . S
C822 C824 1.415 . S
C823 C822 1.355 . S
C823 C825 1.419 . S
C824 C822 1.415 . S
C824 C829 1.425 . S
C824 C831 1.409 . S
C825 H817 0.930 . S
C825 C823 1.419 . S
C825 C826 1.362 . S
C826 H818 0.930 . S
C826 C825 1.362 . S
C826 C829 1.409 . S
C827 H819 0.930 . S
C827 C828 1.355 . S
C827 C829 1.415 . S
C828 C827 1.355 . S
C828 C830 1.419 . S
C829 C824 1.425 . S
C829 C826 1.409 . S
C829 C827 1.415 . S
C830 H820 0.930 . S
C830 C828 1.419 . S
C830 C831 1.362 . S
C831 H821 0.930 . S
C831 C824 1.409 . S
C831 C830 1.362 . S
H832 C838 0.930 . S
H833 C841 0.930 . S
H834 C842 0.930 . S
H835 C843 0.930 . S
H836 C846 0.930 . S
H837 C847 0.930 . S
C838 H832 0.930 . S
C838 C839 1.355 . S
C838 C840 1.415 . S
C839 C838 1.355 . S
C839 C841 1.419 . S
C840 C838 1.415 . S
C840 C845 1.425 . S
C840 C847 1.409 . S
C841 H833 0.930 . S
C841 C839 1.419 . S
C841 C842 1.362 . S
C842 H834 0.930 . S
C842 C841 1.362 . S
C842 C845 1.409 . S
C843 H835 0.930 . S
C843 C844 1.355 . S
C843 C845 1.415 . S
C844 C843 1.355 . S
C844 C846 1.419 . S
C845 C840 1.425 . S
C845 C842 1.409 . S
C845 C843 1.415 . S
C846 H836 0.930 . S
C846 C844 1.419 . S
C846 C847 1.362 . S
C847 H837 0.930 . S
C847 C840 1.409 . S
C847 C846 1.362 . S
H848 C854 0.930 . S
H849 C857 0.930 . S
H850 C858 0.930 . S
H851 C859 0.930 . S
H852 C862 0.930 . S
H853 C863 0.930 . S
C854 H848 0.930 . S
C854 C855 1.355 . S
C854 C856 1.415 . S
C855 C854 1.355 . S
C855 C857 1.419 . S
C856 C854 1.415 . S
C856 C861 1.425 . S
C856 C863 1.409 . S
C857 H849 0.930 . S
C857 C855 1.419 . S
C857 C858 1.362 . S
C858 H850 0.930 . S
C858 C857 1.362 . S
C858 C861 1.409 . S
C859 H851 0.930 . S
C859 C860 1.355 . S
C859 C861 1.415 . S
C860 C859 1.355 . S
C860 C862 1.419 . S
C861 C856 1.425 . S
C861 C858 1.409 . S
C861 C859 1.415 . S
C862 H852 0.930 . S
C862 C860 1.419 . S
C862 C863 1.362 . S
C863 H853 0.930 . S
C863 C856 1.409 . S
C863 C862 1.362 . S
H864 C870 0.930 . S
H865 C873 0.930 . S
H866 C874 0.930 . S
H867 C875 0.930 . S
H868 C878 0.930 1_554 S
H869 C879 0.930 . S
C870 H864 0.930 . S
C870 C871 1.355 . S
C870 C872 1.415 . S
C871 C870 1.355 . S
C871 C873 1.419 . S
C872 C870 1.415 . S
C872 C877 1.425 . S
C872 C879 1.409 . S
C873 H865 0.930 . S
C873 C871 1.419 . S
C873 C874 1.362 . S
C874 H866 0.930 . S
C874 C873 1.362 . S
C874 C877 1.409 . S
C875 H867 0.930 . S
C875 C876 1.355 . S
C875 C877 1.415 . S
C876 C875 1.355 . S
C876 C878 1.419 . S
C877 C872 1.425 . S
C877 C874 1.409 . S
C877 C875 1.415 . S
C878 H868 0.930 1_556 S
C878 C876 1.419 . S
C878 C879 1.362 . S
C879 H869 0.930 . S
C879 C872 1.409 . S
C879 C878 1.362 . S
H880 C886 0.930 . S
H881 C889 0.930 . S
H882 C890 0.930 . S
H883 C891 0.930 . S
H884 C894 0.930 . S
H885 C895 0.930 . S
C886 H880 0.930 . S
C886 C887 1.355 . S
C886 C888 1.415 . S
C887 C886 1.355 . S
C887 C889 1.419 . S
C888 C886 1.415 . S
C888 C893 1.425 . S
C888 C895 1.409 . S
C889 H881 0.930 . S
C889 C887 1.419 . S
C889 C890 1.362 . S
C890 H882 0.930 . S
C890 C889 1.362 . S
C890 C893 1.409 . S
C891 H883 0.930 . S
C891 C892 1.355 . S
C891 C893 1.415 . S
C892 C891 1.355 . S
C892 C894 1.419 . S
C893 C888 1.425 . S
C893 C890 1.409 . S
C893 C891 1.415 . S
C894 H884 0.930 . S
C894 C892 1.419 . S
C894 C895 1.362 . S
C895 H885 0.930 . S
C895 C888 1.409 . S
C895 C894 1.362 . S
H896 C902 0.930 . S
H897 C905 0.930 . S
H898 C906 0.930 . S
H899 C907 0.930 . S
H900 C910 0.930 . S
H901 C911 0.930 . S
C902 H896 0.930 . S
C902 C903 1.355 . S
C902 C904 1.415 . S
C903 C902 1.355 . S
C903 C905 1.419 . S
C904 C902 1.415 . S
C904 C909 1.425 . S
C904 C911 1.409 . S
C905 H897 0.930 . S
C905 C903 1.419 . S
C905 C906 1.362 . S
C906 H898 0.930 . S
C906 C905 1.362 . S
C906 C909 1.409 . S
C907 H899 0.930 . S
C907 C908 1.355 . S
C907 C909 1.415 . S
C908 C907 1.355 . S
C908 C910 1.419 . S
C909 C904 1.425 . S
C909 C906 1.409 . S
C909 C907 1.415 . S
C910 H900 0.930 . S
C910 C908 1.419 . S
C910 C911 1.362 . S
C911 H901 0.930 . S
C911 C904 1.409 . S
C911 C910 1.362 . S
H912 C918 0.930 . S
H913 C921 0.930 . S
H914 C922 0.930 . S
H915 C923 0.930 . S
H916 C926 0.930 . S
H917 C927 0.930 . S
C918 H912 0.930 . S
C918 C919 1.355 . S
C918 C920 1.415 . S
C919 C918 1.355 . S
C919 C921 1.419 . S
C920 C918 1.415 . S
C920 C925 1.425 . S
C920 C927 1.409 . S
C921 H913 0.930 . S
C921 C919 1.419 . S
C921 C922 1.362 . S
C922 H914 0.930 . S
C922 C921 1.362 . S
C922 C925 1.409 . S
C923 H915 0.930 . S
C923 C924 1.355 . S
C923 C925 1.415 . S
C924 C923 1.355 . S
C924 C926 1.419 . S
C925 C920 1.425 . S
C925 C922 1.409 . S
C925 C923 1.415 . S
C926 H916 0.930 . S
C926 C924 1.419 . S
C926 C927 1.362 . S
C927 H917 0.930 . S
C927 C920 1.409 . S
C927 C926 1.362 . S
H928 C934 0.930 . S
H929 C937 0.930 . S
H930 C938 0.930 . S
H931 C939 0.930 . S
H932 C942 0.930 . S
H933 C943 0.930 . S
C934 H928 0.930 . S
C934 C935 1.355 . S
C934 C936 1.415 . S
C935 C934 1.355 . S
C935 C937 1.419 . S
C936 C934 1.415 . S
C936 C941 1.425 . S
C936 C943 1.409 . S
C937 H929 0.930 . S
C937 C935 1.419 . S
C937 C938 1.362 . S
C938 H930 0.930 . S
C938 C937 1.362 . S
C938 C941 1.409 . S
C939 H931 0.930 . S
C939 C940 1.355 . S
C939 C941 1.415 . S
C940 C939 1.355 . S
C940 C942 1.419 . S
C941 C936 1.425 . S
C941 C938 1.409 . S
C941 C939 1.415 . S
C942 H932 0.930 . S
C942 C940 1.419 . S
C942 C943 1.362 . S
C943 H933 0.930 . S
C943 C936 1.409 . S
C943 C942 1.362 . S
H944 C950 0.930 . S
H945 C953 0.930 . S
H946 C954 0.930 . S
H947 C955 0.930 . S
H948 C958 0.930 . S
H949 C959 0.930 . S
C950 H944 0.930 . S
C950 C951 1.355 . S
C950 C952 1.415 . S
C951 C950 1.355 . S
C951 C953 1.419 . S
C952 C950 1.415 . S
C952 C957 1.425 . S
C952 C959 1.409 . S
C953 H945 0.930 . S
C953 C951 1.419 . S
C953 C954 1.362 . S
C954 H946 0.930 . S
C954 C953 1.362 . S
C954 C957 1.409 . S
C955 H947 0.930 . S
C955 C956 1.355 . S
C955 C957 1.415 . S
C956 C955 1.355 . S
C956 C958 1.419 . S
C957 C952 1.425 . S
C957 C954 1.409 . S
C957 C955 1.415 . S
C958 H948 0.930 . S
C958 C956 1.419 . S
C958 C959 1.362 . S
C959 H949 0.930 . S
C959 C952 1.409 . S
C959 C958 1.362 . S
H960 C966 0.930 . S
H961 C969 0.930 . S
H962 C970 0.930 . S
H963 C971 0.930 . S
H964 C974 0.930 . S
H965 C975 0.930 1_556 S
C966 H960 0.930 . S
C966 C967 1.355 . S
C966 C968 1.415 . S
C967 C966 1.355 . S
C967 C969 1.419 . S
C968 C966 1.415 . S
C968 C973 1.425 . S
C968 C975 1.409 . S
C969 H961 0.930 . S
C969 C967 1.419 . S
C969 C970 1.362 . S
C970 H962 0.930 . S
C970 C969 1.362 . S
C970 C973 1.409 . S
C971 H963 0.930 . S
C971 C972 1.355 . S
C971 C973 1.415 . S
C972 C971 1.355 . S
C972 C974 1.419 . S
C973 C968 1.425 . S
C973 C970 1.409 . S
C973 C971 1.415 . S
C974 H964 0.930 . S
C974 C972 1.419 . S
C974 C975 1.362 . S
C975 H965 0.930 1_554 S
C975 C968 1.409 . S
C975 C974 1.362 . S
H976 C982 0.930 . S
H977 C985 0.930 . S
H978 C986 0.930 . S
H979 C987 0.930 . S
H980 C990 0.930 . S
H981 C991 0.930 . S
C982 H976 0.930 . S
C982 C983 1.355 . S
C982 C984 1.415 . S
C983 C982 1.355 . S
C983 C985 1.419 . S
C984 C982 1.415 . S
C984 C989 1.425 1_655 S
C984 C991 1.409 1_655 S
C985 H977 0.930 . S
C985 C983 1.419 . S
C985 C986 1.362 . S
C986 H978 0.930 . S
C986 C985 1.362 . S
C986 C989 1.409 1_655 S
C987 H979 0.930 . S
C987 C988 1.355 . S
C987 C989 1.415 . S
C988 C987 1.355 . S
C988 C990 1.419 . S
C989 C984 1.425 1_455 S
C989 C986 1.409 1_455 S
C989 C987 1.415 . S
C990 H980 0.930 . S
C990 C988 1.419 . S
C990 C991 1.362 . S
C991 H981 0.930 . S
C991 C984 1.409 1_455 S
C991 C990 1.362 . S
H992 C998 0.930 . S
H993 C1001 0.930 . S
H994 C1002 0.930 . S
H995 C1003 0.930 . S
H996 C1006 0.930 . S
H997 C1007 0.930 . S
C998 H992 0.930 . S
C998 C999 1.355 . S
C998 C1000 1.415 . S
C999 C998 1.355 . S
C999 C1001 1.419 . S
C1000 C998 1.415 . S
C1000 C1005 1.425 . S
C1000 C1007 1.409 . S
C1001 H993 0.930 . S
C1001 C999 1.419 . S
C1001 C1002 1.362 . S
C1002 H994 0.930 . S
C1002 C1001 1.362 . S
C1002 C1005 1.409 . S
C1003 H995 0.930 . S
C1003 C1004 1.355 . S
C1003 C1005 1.415 . S
C1004 C1003 1.355 . S
C1004 C1006 1.419 . S
C1005 C1000 1.425 . S
C1005 C1002 1.409 . S
C1005 C1003 1.415 . S
C1006 H996 0.930 . S
C1006 C1004 1.419 . S
C1006 C1007 1.362 . S
C1007 H997 0.930 . S
C1007 C1000 1.409 . S
C1007 C1006 1.362 . S
H1008 C1014 0.930 . S
H1009 C1017 0.930 . S
H1010 C1018 0.930 . S
H1011 C1019 0.930 . S
H1012 C1022 0.930 . S
H1013 C1023 0.930 . S
C1014 H1008 0.930 . S
C1014 C1015 1.355 . S
C1014 C1016 1.415 . S
C1015 C1014 1.355 . S
C1015 C1017 1.419 . S
C1016 C1014 1.415 . S
C1016 C1021 1.425 . S
C1016 C1023 1.409 . S
C1017 H1009 0.930 . S
C1017 C1015 1.419 . S
C1017 C1018 1.362 . S
C1018 H1010 0.930 . S
C1018 C1017 1.362 . S
C1018 C1021 1.409 . S
C1019 H1011 0.930 . S
C1019 C1020 1.355 . S
C1019 C1021 1.415 . S
C1020 C1019 1.355 . S
C1020 C1022 1.419 . S
C1021 C1016 1.425 . S
C1021 C1018 1.409 . S
C1021 C1019 1.415 . S
C1022 H1012 0.930 . S
C1022 C1020 1.419 . S
C1022 C1023 1.362 . S
C1023 H1013 0.930 . S
C1023 C1016 1.409 . S
C1023 C1022 1.362 . S
H1024 C1030 0.930 . S
H1025 C1033 0.930 . S
H1026 C1034 0.930 . S
H1027 C1035 0.930 . S
H1028 C1038 0.930 . S
H1029 C1039 0.930 . S
C1030 H1024 0.930 . S
C1030 C1031 1.355 . S
C1030 C1032 1.415 . S
C1031 C1030 1.355 . S
C1031 C1033 1.419 . S
C1032 C1030 1.415 . S
C1032 C1037 1.425 . S
C1032 C1039 1.409 . S
C1033 H1025 0.930 . S
C1033 C1031 1.419 . S
C1033 C1034 1.362 . S
C1034 H1026 0.930 . S
C1034 C1033 1.362 . S
C1034 C1037 1.409 . S
C1035 H1027 0.930 . S
C1035 C1036 1.355 . S
C1035 C1037 1.415 . S
C1036 C1035 1.355 . S
C1036 C1038 1.419 . S
C1037 C1032 1.425 . S
C1037 C1034 1.409 . S
C1037 C1035 1.415 . S
C1038 H1028 0.930 . S
C1038 C1036 1.419 . S
C1038 C1039 1.362 . S
C1039 H1029 0.930 . S
C1039 C1032 1.409 . S
C1039 C1038 1.362 . S
H1040 C1046 0.930 . S
H1041 C1049 0.930 . S
H1042 C1050 0.930 . S
H1043 C1051 0.930 . S
H1044 C1054 0.930 . S
H1045 C1055 0.930 . S
C1046 H1040 0.930 . S
C1046 C1047 1.355 . S
C1046 C1048 1.415 . S
C1047 C1046 1.355 . S
C1047 C1049 1.419 . S
C1048 C1046 1.415 . S
C1048 C1053 1.425 . S
C1048 C1055 1.409 . S
C1049 H1041 0.930 . S
C1049 C1047 1.419 . S
C1049 C1050 1.362 . S
C1050 H1042 0.930 . S
C1050 C1049 1.362 . S
C1050 C1053 1.409 . S
C1051 H1043 0.930 . S
C1051 C1052 1.355 . S
C1051 C1053 1.415 . S
C1052 C1051 1.355 . S
C1052 C1054 1.419 . S
C1053 C1048 1.425 . S
C1053 C1050 1.409 . S
C1053 C1051 1.415 . S
C1054 H1044 0.930 . S
C1054 C1052 1.419 . S
C1054 C1055 1.362 . S
C1055 H1045 0.930 . S
C1055 C1048 1.409 . S
C1055 C1054 1.362 . S
H1056 C1062 0.930 . S
H1057 C1065 0.930 . S
H1058 C1066 0.930 . S
H1059 C1067 0.930 . S
H1060 C1070 0.930 . S
H1061 C1071 0.930 . S
C1062 H1056 0.930 . S
C1062 C1063 1.355 . S
C1062 C1064 1.415 . S
C1063 C1062 1.355 . S
C1063 C1065 1.419 . S
C1064 C1062 1.415 . S
C1064 C1069 1.425 . S
C1064 C1071 1.409 . S
C1065 H1057 0.930 . S
C1065 C1063 1.419 . S
C1065 C1066 1.362 . S
C1066 H1058 0.930 . S
C1066 C1065 1.362 . S
C1066 C1069 1.409 . S
C1067 H1059 0.930 . S
C1067 C1068 1.355 . S
C1067 C1069 1.415 . S
C1068 C1067 1.355 . S
C1068 C1070 1.419 . S
C1069 C1064 1.425 . S
C1069 C1066 1.409 . S
C1069 C1067 1.415 . S
C1070 H1060 0.930 . S
C1070 C1068 1.419 . S
C1070 C1071 1.362 . S
C1071 H1061 0.930 . S
C1071 C1064 1.409 . S
C1071 C1070 1.362 . S
H1072 C1078 0.930 . S
H1073 C1081 0.930 . S
H1074 C1082 0.930 . S
H1075 C1083 0.930 . S
H1076 C1086 0.930 . S
H1077 C1087 0.930 . S
C1078 H1072 0.930 . S
C1078 C1079 1.355 . S
C1078 C1080 1.415 . S
C1079 C1078 1.355 . S
C1079 C1081 1.419 . S
C1080 C1078 1.415 . S
C1080 C1085 1.425 1_655 S
C1080 C1087 1.409 1_655 S
C1081 H1073 0.930 . S
C1081 C1079 1.419 . S
C1081 C1082 1.362 . S
C1082 H1074 0.930 . S
C1082 C1081 1.362 . S
C1082 C1085 1.409 1_655 S
C1083 H1075 0.930 . S
C1083 C1084 1.355 . S
C1083 C1085 1.415 . S
C1084 C1083 1.355 . S
C1084 C1086 1.419 . S
C1085 C1080 1.425 1_455 S
C1085 C1082 1.409 1_455 S
C1085 C1083 1.415 . S
C1086 H1076 0.930 . S
C1086 C1084 1.419 . S
C1086 C1087 1.362 . S
C1087 H1077 0.930 . S
C1087 C1080 1.409 1_455 S
C1087 C1086 1.362 . S
H1088 C1094 0.930 . S
H1089 C1097 0.930 . S
H1090 C1098 0.930 . S
H1091 C1099 0.930 . S
H1092 C1102 0.930 . S
H1093 C1103 0.930 . S
C1094 H1088 0.930 . S
C1094 C1095 1.355 . S
C1094 C1096 1.415 . S
C1095 C1094 1.355 . S
C1095 C1097 1.419 . S
C1096 C1094 1.415 . S
C1096 C1101 1.425 . S
C1096 C1103 1.409 . S
C1097 H1089 0.930 . S
C1097 C1095 1.419 . S
C1097 C1098 1.362 . S
C1098 H1090 0.930 . S
C1098 C1097 1.362 . S
C1098 C1101 1.409 . S
C1099 H1091 0.930 . S
C1099 C1100 1.355 . S
C1099 C1101 1.415 . S
C1100 C1099 1.355 . S
C1100 C1102 1.419 . S
C1101 C1096 1.425 . S
C1101 C1098 1.409 . S
C1101 C1099 1.415 . S
C1102 H1092 0.930 . S
C1102 C1100 1.419 . S
C1102 C1103 1.362 . S
C1103 H1093 0.930 . S
C1103 C1096 1.409 . S
C1103 C1102 1.362 . S
H1104 C1110 0.930 . S
H1105 C1113 0.930 . S
H1106 C1114 0.930 . S
H1107 C1115 0.930 . S
H1108 C1118 0.930 . S
H1109 C1119 0.930 . S
C1110 H1104 0.930 . S
C1110 C1111 1.355 . S
C1110 C1112 1.415 . S
C1111 C1110 1.355 . S
C1111 C1113 1.419 . S
C1112 C1110 1.415 . S
C1112 C1117 1.425 . S
C1112 C1119 1.409 . S
C1113 H1105 0.930 . S
C1113 C1111 1.419 . S
C1113 C1114 1.362 . S
C1114 H1106 0.930 . S
C1114 C1113 1.362 . S
C1114 C1117 1.409 . S
C1115 H1107 0.930 . S
C1115 C1116 1.355 . S
C1115 C1117 1.415 . S
C1116 C1115 1.355 . S
C1116 C1118 1.419 . S
C1117 C1112 1.425 . S
C1117 C1114 1.409 . S
C1117 C1115 1.415 . S
C1118 H1108 0.930 . S
C1118 C1116 1.419 . S
C1118 C1119 1.362 . S
C1119 H1109 0.930 . S
C1119 C1112 1.409 . S
C1119 C1118 1.362 . S
H1120 C1126 0.930 . S
H1121 C1129 0.930 . S
H1122 C1130 0.930 1_556 S
H1123 C1131 0.930 . S
H1124 C1134 0.930 . S
H1125 C1135 0.930 . S
C1126 H1120 0.930 . S
C1126 C1127 1.355 . S
C1126 C1128 1.415 . S
C1127 C1126 1.355 . S
C1127 C1129 1.419 . S
C1128 C1126 1.415 . S
C1128 C1133 1.425 . S
C1128 C1135 1.409 . S
C1129 H1121 0.930 . S
C1129 C1127 1.419 . S
C1129 C1130 1.362 . S
C1130 H1122 0.930 1_554 S
C1130 C1129 1.362 . S
C1130 C1133 1.409 . S
C1131 H1123 0.930 . S
C1131 C1132 1.355 . S
C1131 C1133 1.415 . S
C1132 C1131 1.355 . S
C1132 C1134 1.419 . S
C1133 C1128 1.425 . S
C1133 C1130 1.409 . S
C1133 C1131 1.415 . S
C1134 H1124 0.930 . S
C1134 C1132 1.419 . S
C1134 C1135 1.362 . S
C1135 H1125 0.930 . S
C1135 C1128 1.409 . S
C1135 C1134 1.362 . S
H1136 C1142 0.930 . S
H1137 C1145 0.930 . S
H1138 C1146 0.930 . S
H1139 C1147 0.930 . S
H1140 C1150 0.930 . S
H1141 C1151 0.930 . S
C1142 H1136 0.930 . S
C1142 C1143 1.355 . S
C1142 C1144 1.415 . S
C1143 C1142 1.355 . S
C1143 C1145 1.419 . S
C1144 C1142 1.415 . S
C1144 C1149 1.425 . S
C1144 C1151 1.409 . S
C1145 H1137 0.930 . S
C1145 C1143 1.419 . S
C1145 C1146 1.362 . S
C1146 H1138 0.930 . S
C1146 C1145 1.362 . S
C1146 C1149 1.409 . S
C1147 H1139 0.930 . S
C1147 C1148 1.355 . S
C1147 C1149 1.415 . S
C1148 C1147 1.355 . S
C1148 C1150 1.419 . S
C1149 C1144 1.425 . S
C1149 C1146 1.409 . S
C1149 C1147 1.415 . S
C1150 H1140 0.930 . S
C1150 C1148 1.419 . S
C1150 C1151 1.362 . S
C1151 H1141 0.930 . S
C1151 C1144 1.409 . S
C1151 C1150 1.362 . S
H1152 C1158 0.930 . S
H1153 C1161 0.930 . S
H1154 C1162 0.930 . S
H1155 C1163 0.930 . S
H1156 C1166 0.930 . S
H1157 C1167 0.930 . S
C1158 H1152 0.930 . S
C1158 C1159 1.355 . S
C1158 C1160 1.415 . S
C1159 C1158 1.355 . S
C1159 C1161 1.419 . S
C1160 C1158 1.415 . S
C1160 C1165 1.425 . S
C1160 C1167 1.409 . S
C1161 H1153 0.930 . S
C1161 C1159 1.419 . S
C1161 C1162 1.362 . S
C1162 H1154 0.930 . S
C1162 C1161 1.362 . S
C1162 C1165 1.409 . S
C1163 H1155 0.930 . S
C1163 C1164 1.355 . S
C1163 C1165 1.415 . S
C1164 C1163 1.355 . S
C1164 C1166 1.419 . S
C1165 C1160 1.425 . S
C1165 C1162 1.409 . S
C1165 C1163 1.415 . S
C1166 H1156 0.930 . S
C1166 C1164 1.419 . S
C1166 C1167 1.362 . S
C1167 H1157 0.930 . S
C1167 C1160 1.409 . S
C1167 C1166 1.362 . S
H1168 C1174 0.930 . S
H1169 C1177 0.930 . S
H1170 C1178 0.930 . S
H1171 C1179 0.930 . S
H1172 C1182 0.930 . S
H1173 C1183 0.930 . S
C1174 H1168 0.930 . S
C1174 C1175 1.355 . S
C1174 C1176 1.415 . S
C1175 C1174 1.355 . S
C1175 C1177 1.419 . S
C1176 C1174 1.415 . S
C1176 C1181 1.425 1_655 S
C1176 C1183 1.409 1_655 S
C1177 H1169 0.930 . S
C1177 C1175 1.419 . S
C1177 C1178 1.362 . S
C1178 H1170 0.930 . S
C1178 C1177 1.362 . S
C1178 C1181 1.409 1_655 S
C1179 H1171 0.930 . S
C1179 C1180 1.355 . S
C1179 C1181 1.415 . S
C1180 C1179 1.355 . S
C1180 C1182 1.419 . S
C1181 C1176 1.425 1_455 S
C1181 C1178 1.409 1_455 S
C1181 C1179 1.415 . S
C1182 H1172 0.930 . S
C1182 C1180 1.419 . S
C1182 C1183 1.362 . S
C1183 H1173 0.930 . S
C1183 C1176 1.409 1_455 S
C1183 C1182 1.362 . S
H1184 C1190 0.930 . S
H1185 C1193 0.930 . S
H1186 C1194 0.930 . S
H1187 C1195 0.930 . S
H1188 C1198 0.930 . S
H1189 C1199 0.930 . S
C1190 H1184 0.930 . S
C1190 C1191 1.355 . S
C1190 C1192 1.415 . S
C1191 C1190 1.355 . S
C1191 C1193 1.419 . S
C1192 C1190 1.415 . S
C1192 C1197 1.425 1_655 S
C1192 C1199 1.409 1_655 S
C1193 H1185 0.930 . S
C1193 C1191 1.419 . S
C1193 C1194 1.362 . S
C1194 H1186 0.930 . S
C1194 C1193 1.362 . S
C1194 C1197 1.409 1_655 S
C1195 H1187 0.930 . S
C1195 C1196 1.355 . S
C1195 C1197 1.415 . S
C1196 C1195 1.355 . S
C1196 C1198 1.419 . S
C1197 C1192 1.425 1_455 S
C1197 C1194 1.409 1_455 S
C1197 C1195 1.415 . S
C1198 H1188 0.930 . S
C1198 C1196 1.419 . S
C1198 C1199 1.362 . S
C1199 H1189 0.930 . S
C1199 C1192 1.409 1_455 S
C1199 C1198 1.362 . S
H1200 C1206 0.930 . S
H1201 C1209 0.930 . S
H1202 C1210 0.930 . S
H1203 C1211 0.930 . S
H1204 C1214 0.930 . S
H1205 C1215 0.930 . S
C1206 H1200 0.930 . S
C1206 C1207 1.355 . S
C1206 C1208 1.415 . S
C1207 C1206 1.355 . S
C1207 C1209 1.419 . S
C1208 C1206 1.415 . S
C1208 C1213 1.425 . S
C1208 C1215 1.409 . S
C1209 H1201 0.930 . S
C1209 C1207 1.419 . S
C1209 C1210 1.362 . S
C1210 H1202 0.930 . S
C1210 C1209 1.362 . S
C1210 C1213 1.409 . S
C1211 H1203 0.930 . S
C1211 C1212 1.355 . S
C1211 C1213 1.415 . S
C1212 C1211 1.355 . S
C1212 C1214 1.419 . S
C1213 C1208 1.425 . S
C1213 C1210 1.409 . S
C1213 C1211 1.415 . S
C1214 H1204 0.930 . S
C1214 C1212 1.419 . S
C1214 C1215 1.362 . S
C1215 H1205 0.930 . S
C1215 C1208 1.409 . S
C1215 C1214 1.362 . S
H1216 C1222 0.930 . S
H1217 C1225 0.930 . S
H1218 C1226 0.930 . S
H1219 C1227 0.930 . S
H1220 C1230 0.930 . S
H1221 C1231 0.930 . S
C1222 H1216 0.930 . S
C1222 C1223 1.355 . S
C1222 C1224 1.415 . S
C1223 C1222 1.355 . S
C1223 C1225 1.419 . S
C1224 C1222 1.415 . S
C1224 C1229 1.425 . S
C1224 C1231 1.409 . S
C1225 H1217 0.930 . S
C1225 C1223 1.419 . S
C1225 C1226 1.362 . S
C1226 H1218 0.930 . S
C1226 C1225 1.362 . S
C1226 C1229 1.409 . S
C1227 H1219 0.930 . S
C1227 C1228 1.355 . S
C1227 C1229 1.415 . S
C1228 C1227 1.355 . S
C1228 C1230 1.419 . S
C1229 C1224 1.425 . S
C1229 C1226 1.409 . S
C1229 C1227 1.415 . S
C1230 H1220 0.930 . S
C1230 C1228 1.419 . S
C1230 C1231 1.362 . S
C1231 H1221 0.930 . S
C1231 C1224 1.409 . S
C1231 C1230 1.362 . S
H1232 C1238 0.930 . S
H1233 C1241 0.930 . S
H1234 C1242 0.930 . S
H1235 C1243 0.930 . S
H1236 C1246 0.930 . S
H1237 C1247 0.930 . S
C1238 H1232 0.930 . S
C1238 C1239 1.355 . S
C1238 C1240 1.415 . S
C1239 C1238 1.355 . S
C1239 C1241 1.419 . S
C1240 C1238 1.415 . S
C1240 C1245 1.425 . S
C1240 C1247 1.409 . S
C1241 H1233 0.930 . S
C1241 C1239 1.419 . S
C1241 C1242 1.362 . S
C1242 H1234 0.930 . S
C1242 C1241 1.362 . S
C1242 C1245 1.409 . S
C1243 H1235 0.930 . S
C1243 C1244 1.355 . S
C1243 C1245 1.415 . S
C1244 C1243 1.355 . S
C1244 C1246 1.419 . S
C1245 C1240 1.425 . S
C1245 C1242 1.409 . S
C1245 C1243 1.415 . S
C1246 H1236 0.930 . S
C1246 C1244 1.419 . S
C1246 C1247 1.362 . S
C1247 H1237 0.930 . S
C1247 C1240 1.409 . S
C1247 C1246 1.362 . S
H1248 C1254 0.930 . S
H1249 C1257 0.930 . S
H1250 C1258 0.930 . S
H1251 C1259 0.930 . S
H1252 C1262 0.930 . S
H1253 C1263 0.930 . S
C1254 H1248 0.930 . S
C1254 C1255 1.355 . S
C1254 C1256 1.415 . S
C1255 C1254 1.355 . S
C1255 C1257 1.419 . S
C1256 C1254 1.415 . S
C1256 C1261 1.425 . S
C1256 C1263 1.409 . S
C1257 H1249 0.930 . S
C1257 C1255 1.419 . S
C1257 C1258 1.362 . S
C1258 H1250 0.930 . S
C1258 C1257 1.362 . S
C1258 C1261 1.409 . S
C1259 H1251 0.930 . S
C1259 C1260 1.355 . S
C1259 C1261 1.415 . S
C1260 C1259 1.355 . S
C1260 C1262 1.419 . S
C1261 C1256 1.425 . S
C1261 C1258 1.409 . S
C1261 C1259 1.415 . S
C1262 H1252 0.930 . S
C1262 C1260 1.419 . S
C1262 C1263 1.362 . S
C1263 H1253 0.930 . S
C1263 C1256 1.409 . S
C1263 C1262 1.362 . S
H1264 C1270 0.930 . S
H1265 C1273 0.930 1_556 S
H1266 C1274 0.930 . S
H1267 C1275 0.930 . S
H1268 C1278 0.930 . S
H1269 C1279 0.930 . S
C1270 H1264 0.930 . S
C1270 C1271 1.355 . S
C1270 C1272 1.415 . S
C1271 C1270 1.355 . S
C1271 C1273 1.419 . S
C1272 C1270 1.415 . S
C1272 C1277 1.425 . S
C1272 C1279 1.409 . S
C1273 H1265 0.930 1_554 S
C1273 C1271 1.419 . S
C1273 C1274 1.362 . S
C1274 H1266 0.930 . S
C1274 C1273 1.362 . S
C1274 C1277 1.409 . S
C1275 H1267 0.930 . S
C1275 C1276 1.355 . S
C1275 C1277 1.415 . S
C1276 C1275 1.355 . S
C1276 C1278 1.419 . S
C1277 C1272 1.425 . S
C1277 C1274 1.409 . S
C1277 C1275 1.415 . S
C1278 H1268 0.930 . S
C1278 C1276 1.419 . S
C1278 C1279 1.362 . S
C1279 H1269 0.930 . S
C1279 C1272 1.409 . S
C1279 C1278 1.362 . S
H1280 C1286 0.930 . S
H1281 C1289 0.930 . S
H1282 C1290 0.930 . S
H1283 C1291 0.930 . S
H1284 C1294 0.930 . S
H1285 C1295 0.930 . S
C1286 H1280 0.930 . S
C1286 C1287 1.355 . S
C1286 C1288 1.415 . S
C1287 C1286 1.355 . S
C1287 C1289 1.419 . S
C1288 C1286 1.415 . S
C1288 C1293 1.425 . S
C1288 C1295 1.409 . S
C1289 H1281 0.930 . S
C1289 C1287 1.419 . S
C1289 C1290 1.362 . S
C1290 H1282 0.930 . S
C1290 C1289 1.362 . S
C1290 C1293 1.409 . S
C1291 H1283 0.930 . S
C1291 C1292 1.355 . S
C1291 C1293 1.415 . S
C1292 C1291 1.355 . S
C1292 C1294 1.419 . S
C1293 C1288 1.425 . S
C1293 C1290 1.409 . S
C1293 C1291 1.415 . S
C1294 H1284 0.930 . S
C1294 C1292 1.419 . S
C1294 C1295 1.362 . S
C1295 H1285 0.930 . S
C1295 C1288 1.409 . S
C1295 C1294 1.362 . S
H1296 C1302 0.930 . S
H1297 C1305 0.930 . S
H1298 C1306 0.930 . S
H1299 C1307 0.930 . S
H1300 C1310 0.930 . S
H1301 C1311 0.930 . S
C1302 H1296 0.930 . S
C1302 C1303 1.355 . S
C1302 C1304 1.415 . S
C1303 C1302 1.355 . S
C1303 C1305 1.419 . S
C1304 C1302 1.415 . S
C1304 C1309 1.425 . S
C1304 C1311 1.409 . S
C1305 H1297 0.930 . S
C1305 C1303 1.419 . S
C1305 C1306 1.362 . S
C1306 H1298 0.930 . S
C1306 C1305 1.362 . S
C1306 C1309 1.409 . S
C1307 H1299 0.930 . S
C1307 C1308 1.355 . S
C1307 C1309 1.415 . S
C1308 C1307 1.355 . S
C1308 C1310 1.419 . S
C1309 C1304 1.425 . S
C1309 C1306 1.409 . S
C1309 C1307 1.415 . S
C1310 H1300 0.930 . S
C1310 C1308 1.419 . S
C1310 C1311 1.362 . S
C1311 H1301 0.930 . S
C1311 C1304 1.409 . S
C1311 C1310 1.362 . S
H1312 C1318 0.930 . S
H1313 C1321 0.930 . S
H1314 C1322 0.930 . S
H1315 C1323 0.930 . S
H1316 C1326 0.930 1_556 S
H1317 C1327 0.930 . S
C1318 H1312 0.930 . S
C1318 C1319 1.355 . S
C1318 C1320 1.415 . S
C1319 C1318 1.355 . S
C1319 C1321 1.419 . S
C1320 C1318 1.415 . S
C1320 C1325 1.425 . S
C1320 C1327 1.409 . S
C1321 H1313 0.930 . S
C1321 C1319 1.419 . S
C1321 C1322 1.362 . S
C1322 H1314 0.930 . S
C1322 C1321 1.362 . S
C1322 C1325 1.409 . S
C1323 H1315 0.930 . S
C1323 C1324 1.355 . S
C1323 C1325 1.415 . S
C1324 C1323 1.355 . S
C1324 C1326 1.419 . S
C1325 C1320 1.425 . S
C1325 C1322 1.409 . S
C1325 C1323 1.415 . S
C1326 H1316 0.930 1_554 S
C1326 C1324 1.419 . S
C1326 C1327 1.362 . S
C1327 H1317 0.930 . S
C1327 C1320 1.409 . S
C1327 C1326 1.362 . S
H1328 C1334 0.930 . S
H1329 C1337 0.930 . S
H1330 C1338 0.930 . S
H1331 C1339 0.930 . S
H1332 C1342 0.930 1_554 S
H1333 C1343 0.930 . S
C1334 H1328 0.930 . S
C1334 C1335 1.355 . S
C1334 C1336 1.415 . S
C1335 C1334 1.355 . S
C1335 C1337 1.419 . S
C1336 C1334 1.415 . S
C1336 C1341 1.425 . S
C1336 C1343 1.409 . S
C1337 H1329 0.930 . S
C1337 C1335 1.419 . S
C1337 C1338 1.362 . S
C1338 H1330 0.930 . S
C1338 C1337 1.362 . S
C1338 C1341 1.409 . S
C1339 H1331 0.930 . S
C1339 C1340 1.355 . S
C1339 C1341 1.415 . S
C1340 C1339 1.355 . S
C1340 C1342 1.419 . S
C1341 C1336 1.425 . S
C1341 C1338 1.409 . S
C1341 C1339 1.415 . S
C1342 H1332 0.930 1_556 S
C1342 C1340 1.419 . S
C1342 C1343 1.362 . S
C1343 H1333 0.930 . S
C1343 C1336 1.409 . S
C1343 C1342 1.362 . S
H1344 C1350 0.930 . S
H1345 C1353 0.930 . S
H1346 C1354 0.930 . S
H1347 C1355 0.930 . S
H1348 C1358 0.930 . S
H1349 C1359 0.930 . S
C1350 H1344 0.930 . S
C1350 C1351 1.355 . S
C1350 C1352 1.415 . S
C1351 C1350 1.355 . S
C1351 C1353 1.419 . S
C1352 C1350 1.415 . S
C1352 C1357 1.425 . S
C1352 C1359 1.409 . S
C1353 H1345 0.930 . S
C1353 C1351 1.419 . S
C1353 C1354 1.362 . S
C1354 H1346 0.930 . S
C1354 C1353 1.362 . S
C1354 C1357 1.409 . S
C1355 H1347 0.930 . S
C1355 C1356 1.355 . S
C1355 C1357 1.415 . S
C1356 C1355 1.355 . S
C1356 C1358 1.419 . S
C1357 C1352 1.425 . S
C1357 C1354 1.409 . S
C1357 C1355 1.415 . S
C1358 H1348 0.930 . S
C1358 C1356 1.419 . S
C1358 C1359 1.362 . S
C1359 H1349 0.930 . S
C1359 C1352 1.409 . S
C1359 C1358 1.362 . S
H1360 C1366 0.930 . S
H1361 C1369 0.930 . S
H1362 C1370 0.930 . S
H1363 C1371 0.930 . S
H1364 C1374 0.930 . S
H1365 C1375 0.930 . S
C1366 H1360 0.930 . S
C1366 C1367 1.355 . S
C1366 C1368 1.415 . S
C1367 C1366 1.355 . S
C1367 C1369 1.419 . S
C1368 C1366 1.415 . S
C1368 C1373 1.425 . S
C1368 C1375 1.409 . S
C1369 H1361 0.930 . S
C1369 C1367 1.419 . S
C1369 C1370 1.362 . S
C1370 H1362 0.930 . S
C1370 C1369 1.362 . S
C1370 C1373 1.409 . S
C1371 H1363 0.930 . S
C1371 C1372 1.355 . S
C1371 C1373 1.415 . S
C1372 C1371 1.355 . S
C1372 C1374 1.419 . S
C1373 C1368 1.425 . S
C1373 C1370 1.409 . S
C1373 C1371 1.415 . S
C1374 H1364 0.930 . S
C1374 C1372 1.419 . S
C1374 C1375 1.362 . S
C1375 H1365 0.930 . S
C1375 C1368 1.409 . S
C1375 C1374 1.362 . S
H1376 C1382 0.930 . S
H1377 C1385 0.930 . S
H1378 C1386 0.930 . S
H1379 C1387 0.930 . S
H1380 C1390 0.930 . S
H1381 C1391 0.930 . S
C1382 H1376 0.930 . S
C1382 C1383 1.355 . S
C1382 C1384 1.415 . S
C1383 C1382 1.355 . S
C1383 C1385 1.419 . S
C1384 C1382 1.415 . S
C1384 C1389 1.425 . S
C1384 C1391 1.409 . S
C1385 H1377 0.930 . S
C1385 C1383 1.419 . S
C1385 C1386 1.362 . S
C1386 H1378 0.930 . S
C1386 C1385 1.362 . S
C1386 C1389 1.409 . S
C1387 H1379 0.930 . S
C1387 C1388 1.355 . S
C1387 C1389 1.415 . S
C1388 C1387 1.355 . S
C1388 C1390 1.419 . S
C1389 C1384 1.425 . S
C1389 C1386 1.409 . S
C1389 C1387 1.415 . S
C1390 H1380 0.930 . S
C1390 C1388 1.419 . S
C1390 C1391 1.362 . S
C1391 H1381 0.930 . S
C1391 C1384 1.409 . S
C1391 C1390 1.362 . S
H1392 C1398 0.930 . S
H1393 C1401 0.930 . S
H1394 C1402 0.930 . S
H1395 C1403 0.930 . S
H1396 C1406 0.930 . S
H1397 C1407 0.930 . S
C1398 H1392 0.930 . S
C1398 C1399 1.355 . S
C1398 C1400 1.415 . S
C1399 C1398 1.355 . S
C1399 C1401 1.419 . S
C1400 C1398 1.415 . S
C1400 C1405 1.425 . S
C1400 C1407 1.409 . S
C1401 H1393 0.930 . S
C1401 C1399 1.419 . S
C1401 C1402 1.362 . S
C1402 H1394 0.930 . S
C1402 C1401 1.362 . S
C1402 C1405 1.409 . S
C1403 H1395 0.930 . S
C1403 C1404 1.355 . S
C1403 C1405 1.415 . S
C1404 C1403 1.355 . S
C1404 C1406 1.419 . S
C1405 C1400 1.425 . S
C1405 C1402 1.409 . S
C1405 C1403 1.415 . S
C1406 H1396 0.930 . S
C1406 C1404 1.419 . S
C1406 C1407 1.362 . S
C1407 H1397 0.930 . S
C1407 C1400 1.409 . S
C1407 C1406 1.362 . S
H1408 C1414 0.930 . S
H1409 C1417 0.930 . S
H1410 C1418 0.930 . S
H1411 C1419 0.930 . S
H1412 C1422 0.930 . S
H1413 C1423 0.930 . S
C1414 H1408 0.930 . S
C1414 C1415 1.355 . S
C1414 C1416 1.415 . S
C1415 C1414 1.355 . S
C1415 C1417 1.419 . S
C1416 C1414 1.415 . S
C1416 C1421 1.425 . S
C1416 C1423 1.409 . S
C1417 H1409 0.930 . S
C1417 C1415 1.419 . S
C1417 C1418 1.362 . S
C1418 H1410 0.930 . S
C1418 C1417 1.362 . S
C1418 C1421 1.409 . S
C1419 H1411 0.930 . S
C1419 C1420 1.355 . S
C1419 C1421 1.415 . S
C1420 C1419 1.355 . S
C1420 C1422 1.419 . S
C1421 C1416 1.425 . S
C1421 C1418 1.409 . S
C1421 C1419 1.415 . S
C1422 H1412 0.930 . S
C1422 C1420 1.419 . S
C1422 C1423 1.362 . S
C1423 H1413 0.930 . S
C1423 C1416 1.409 . S
C1423 C1422 1.362 . S
H1424 C1430 0.930 . S
H1425 C1433 0.930 . S
H1426 C1434 0.930 . S
H1427 C1435 0.930 . S
H1428 C1438 0.930 . S
H1429 C1439 0.930 . S
C1430 H1424 0.930 . S
C1430 C1431 1.355 . S
C1430 C1432 1.415 . S
C1431 C1430 1.355 . S
C1431 C1433 1.419 . S
C1432 C1430 1.415 . S
C1432 C1437 1.425 . S
C1432 C1439 1.409 . S
C1433 H1425 0.930 . S
C1433 C1431 1.419 . S
C1433 C1434 1.362 . S
C1434 H1426 0.930 . S
C1434 C1433 1.362 . S
C1434 C1437 1.409 . S
C1435 H1427 0.930 . S
C1435 C1436 1.355 . S
C1435 C1437 1.415 . S
C1436 C1435 1.355 . S
C1436 C1438 1.419 . S
C1437 C1432 1.425 . S
C1437 C1434 1.409 . S
C1437 C1435 1.415 . S
C1438 H1428 0.930 . S
C1438 C1436 1.419 . S
C1438 C1439 1.362 . S
C1439 H1429 0.930 . S
C1439 C1432 1.409 . S
C1439 C1438 1.362 . S
H1440 C1446 0.930 . S
H1441 C1449 0.930 . S
H1442 C1450 0.930 . S
H1443 C1451 0.930 . S
H1444 C1454 0.930 . S
H1445 C1455 0.930 . S
C1446 H1440 0.930 . S
C1446 C1447 1.355 . S
C1446 C1448 1.415 . S
C1447 C1446 1.355 . S
C1447 C1449 1.419 . S
C1448 C1446 1.415 . S
C1448 C1453 1.425 . S
C1448 C1455 1.409 . S
C1449 H1441 0.930 . S
C1449 C1447 1.419 . S
C1449 C1450 1.362 . S
C1450 H1442 0.930 . S
C1450 C1449 1.362 . S
C1450 C1453 1.409 . S
C1451 H1443 0.930 . S
C1451 C1452 1.355 . S
C1451 C1453 1.415 . S
C1452 C1451 1.355 . S
C1452 C1454 1.419 . S
C1453 C1448 1.425 . S
C1453 C1450 1.409 . S
C1453 C1451 1.415 . S
C1454 H1444 0.930 . S
C1454 C1452 1.419 . S
C1454 C1455 1.362 . S
C1455 H1445 0.930 . S
C1455 C1448 1.409 . S
C1455 C1454 1.362 . S
H1456 C1462 0.930 . S
H1457 C1465 0.930 . S
H1458 C1466 0.930 . S
H1459 C1467 0.930 . S
H1460 C1470 0.930 . S
H1461 C1471 0.930 . S
C1462 H1456 0.930 . S
C1462 C1463 1.355 . S
C1462 C1464 1.415 . S
C1463 C1462 1.355 . S
C1463 C1465 1.419 . S
C1464 C1462 1.415 . S
C1464 C1469 1.425 . S
C1464 C1471 1.409 . S
C1465 H1457 0.930 . S
C1465 C1463 1.419 . S
C1465 C1466 1.362 . S
C1466 H1458 0.930 . S
C1466 C1465 1.362 . S
C1466 C1469 1.409 . S
C1467 H1459 0.930 . S
C1467 C1468 1.355 . S
C1467 C1469 1.415 . S
C1468 C1467 1.355 . S
C1468 C1470 1.419 . S
C1469 C1464 1.425 . S
C1469 C1466 1.409 . S
C1469 C1467 1.415 . S
C1470 H1460 0.930 . S
C1470 C1468 1.419 . S
C1470 C1471 1.362 . S
C1471 H1461 0.930 . S
C1471 C1464 1.409 . S
C1471 C1470 1.362 . S
C455 C93 1.366 . S
C460 C9 1.334 . S
C471 C23 1.349 . S
C476 C107 1.352 . S
C487 C65 1.360 . S
C492 C37 1.324 . S
C503 C51 1.319 . S
C508 C79 1.373 . S
C519 C121 1.370 . S
C524 C205 1.328 . S
C535 C219 1.333 . S
C540 C135 1.366 . S
C551 C149 1.361 . S
C556 C177 1.340 . S
C567 C191 1.318 . S
C572 C163 1.372 . S
C583 C233 1.353 . S
C588 C317 1.348 . S
C599 C247 1.364 . S
C604 C331 1.321 . S
C615 C289 1.351 . S
C620 C261 1.332 . S
C631 C303 1.325 . S
C636 C275 1.358 . S
C647 C345 1.373 . S
C652 C429 1.322 . S
C663 C359 1.322 . S
C668 C443 1.372 . S
C679 C401 1.353 . S
C684 C373 1.349 . S
C695 C387 1.334 . S
C700 C415 1.348 . S
C711 C6 1.302 1_556 S
C716 C104 1.319 . S
C727 C62 1.331 1_554 S
C732 C20 1.290 . S
C743 C76 1.339 . S
C748 C34 1.282 . S
C759 C48 1.281 . S
C764 C90 1.339 . S
C775 C118 1.290 1_554 S
C780 C216 1.330 . S
C791 C174 1.280 1_556 S
C796 C132 1.340 . S
C807 C188 1.331 . S
C812 C146 1.290 . S
C823 C202 1.291 . S
C828 C160 1.330 . S
C839 C230 1.319 . S
C844 C328 1.302 . S
C855 C244 1.324 . S
C860 C286 1.296 . S
C871 C300 1.297 . S
C876 C258 1.324 1_556 S
C887 C272 1.338 . S
C892 C314 1.282 1_554 S
C903 C342 1.322 . S
C908 C440 1.299 . S
C919 C398 1.312 . S
C924 C356 1.308 . S
C935 C370 1.313 1_554 S
C940 C412 1.307 . S
C951 C384 1.337 . S
C956 C426 1.283 1_556 S
C967 C427 1.544 . S
C972 C7 1.608 . S
C983 C217 1.560 . S
C988 C21 1.593 . S
C999 C35 1.608 . S
C1004 C399 1.545 . S
C1015 C49 1.608 . S
C1020 C189 1.544 . S
C1031 C63 1.574 . S
C1036 C371 1.579 . S
C1047 C77 1.550 . S
C1052 C161 1.602 . S
C1063 C91 1.550 . S
C1068 C343 1.603 . S
C1079 C133 1.590 . S
C1084 C105 1.563 . S
C1095 C315 1.599 . S
C1100 C119 1.553 . S
C1111 C147 1.572 . S
C1116 C287 1.581 . S
C1127 C259 1.603 . S
C1132 C175 1.549 . S
C1143 C231 1.546 . S
C1148 C203 1.606 . S
C1159 C245 1.557 . S
C1164 C441 1.596 . S
C1175 C273 1.592 . S
C1180 C413 1.561 . S
C1191 C301 1.558 . S
C1196 C385 1.595 . S
C1207 C357 1.608 . S
C1212 C329 1.544 . S
C1223 C8 2.002 . S
C1228 C106 2.005 . S
C1239 C22 1.999 . S
C1244 C64 1.993 . S
C1255 C78 1.999 1_556 S
C1260 C36 1.993 . S
C1271 C50 1.986 1_554 S
C1276 C92 1.985 . S
C1287 C218 2.001 . S
C1292 C120 2.005 . S
C1303 C176 1.999 . S
C1308 C134 1.993 . S
C1319 C148 1.995 . S
C1324 C190 1.989 1_554 S
C1335 C204 1.985 . S
C1340 C162 1.989 1_556 S
C1351 C330 2.003 1_556 S
C1356 C232 1.997 . S
C1367 C288 2.005 . S
C1372 C246 2.004 1_554 S
C1383 C302 2.004 . S
C1388 C260 1.999 . S
C1399 C316 1.986 . S
C1404 C274 1.991 . S
C1415 C344 1.987 . S
C1420 C442 1.992 1_554 S
C1431 C358 1.988 1_556 S
C1436 C400 1.993 . S
C1447 C372 1.988 . S
C1452 C414 1.993 . S
C1463 C428 1.998 . S
C1468 C386 1.991 . S
