# Generated by pormake.
# Topology umz, (4)-cn, num edge types: 1
# Building blocks:
#     Node 0, Type 0, BuildingBlock: NAHDIM_clean_sbu_0, # of connection points: 4
#     Node 1, Type 0, BuildingBlock: NAHDIM_clean_sbu_0, # of connection points: 4
#     Node 2, Type 0, BuildingBlock: NAHDIM_clean_sbu_0, # of connection points: 4
#     Node 3, Type 0, BuildingBlock: NAHDIM_clean_sbu_0, # of connection points: 4
#     Node 4, Type 0, BuildingBlock: NAHDIM_clean_sbu_0, # of connection points: 4
#     Node 5, Type 0, BuildingBlock: NAHDIM_clean_sbu_0, # of connection points: 4
#     Node 6, Type 0, BuildingBlock: NAHDIM_clean_sbu_0, # of connection points: 4
#     Node 7, Type 0, BuildingBlock: NAHDIM_clean_sbu_0, # of connection points: 4
#     Node 8, Type 0, BuildingBlock: NAHDIM_clean_sbu_0, # of connection points: 4
#     Node 9, Type 0, BuildingBlock: NAHDIM_clean_sbu_0, # of connection points: 4
#     Node 10, Type 0, BuildingBlock: NAHDIM_clean_sbu_0, # of connection points: 4
#     Node 11, Type 0, BuildingBlock: NAHDIM_clean_sbu_0, # of connection points: 4
#     Node 12, Type 0, BuildingBlock: NAHDIM_clean_sbu_0, # of connection points: 4
#     Node 13, Type 0, BuildingBlock: NAHDIM_clean_sbu_0, # of connection points: 4
#     Node 14, Type 0, BuildingBlock: NAHDIM_clean_sbu_0, # of connection points: 4
#     Node 15, Type 0, BuildingBlock: NAHDIM_clean_sbu_0, # of connection points: 4
#     Edge 16, Type (0, 0), BuildingBlock: UVAHIK_clean_linker_0, # of connection points: 2
#     Edge 17, Type (0, 0), BuildingBlock: UVAHIK_clean_linker_0, # of connection points: 2
#     Edge 18, Type (0, 0), BuildingBlock: UVAHIK_clean_linker_0, # of connection points: 2
#     Edge 19, Type (0, 0), BuildingBlock: UVAHIK_clean_linker_0, # of connection points: 2
#     Edge 20, Type (0, 0), BuildingBlock: UVAHIK_clean_linker_0, # of connection points: 2
#     Edge 21, Type (0, 0), BuildingBlock: UVAHIK_clean_linker_0, # of connection points: 2
#     Edge 22, Type (0, 0), BuildingBlock: UVAHIK_clean_linker_0, # of connection points: 2
#     Edge 23, Type (0, 0), BuildingBlock: UVAHIK_clean_linker_0, # of connection points: 2
#     Edge 24, Type (0, 0), BuildingBlock: UVAHIK_clean_linker_0, # of connection points: 2
#     Edge 25, Type (0, 0), BuildingBlock: UVAHIK_clean_linker_0, # of connection points: 2
#     Edge 26, Type (0, 0), BuildingBlock: UVAHIK_clean_linker_0, # of connection points: 2
#     Edge 27, Type (0, 0), BuildingBlock: UVAHIK_clean_linker_0, # of connection points: 2
#     Edge 28, Type (0, 0), BuildingBlock: UVAHIK_clean_linker_0, # of connection points: 2
#     Edge 29, Type (0, 0), BuildingBlock: UVAHIK_clean_linker_0, # of connection points: 2
#     Edge 30, Type (0, 0), BuildingBlock: UVAHIK_clean_linker_0, # of connection points: 2
#     Edge 31, Type (0, 0), BuildingBlock: UVAHIK_clean_linker_0, # of connection points: 2
#     Edge 32, Type (0, 0), BuildingBlock: UVAHIK_clean_linker_0, # of connection points: 2
#     Edge 33, Type (0, 0), BuildingBlock: UVAHIK_clean_linker_0, # of connection points: 2
#     Edge 34, Type (0, 0), BuildingBlock: UVAHIK_clean_linker_0, # of connection points: 2
#     Edge 35, Type (0, 0), BuildingBlock: UVAHIK_clean_linker_0, # of connection points: 2
#     Edge 36, Type (0, 0), BuildingBlock: UVAHIK_clean_linker_0, # of connection points: 2
#     Edge 37, Type (0, 0), BuildingBlock: UVAHIK_clean_linker_0, # of connection points: 2
#     Edge 38, Type (0, 0), BuildingBlock: UVAHIK_clean_linker_0, # of connection points: 2
#     Edge 39, Type (0, 0), BuildingBlock: UVAHIK_clean_linker_0, # of connection points: 2
#     Edge 40, Type (0, 0), BuildingBlock: UVAHIK_clean_linker_0, # of connection points: 2
#     Edge 41, Type (0, 0), BuildingBlock: UVAHIK_clean_linker_0, # of connection points: 2
#     Edge 42, Type (0, 0), BuildingBlock: UVAHIK_clean_linker_0, # of connection points: 2
#     Edge 43, Type (0, 0), BuildingBlock: UVAHIK_clean_linker_0, # of connection points: 2
#     Edge 44, Type (0, 0), BuildingBlock: UVAHIK_clean_linker_0, # of connection points: 2
#     Edge 45, Type (0, 0), BuildingBlock: UVAHIK_clean_linker_0, # of connection points: 2
#     Edge 46, Type (0, 0), BuildingBlock: UVAHIK_clean_linker_0, # of connection points: 2
#     Edge 47, Type (0, 0), BuildingBlock: UVAHIK_clean_linker_0, # of connection points: 2
# Relax obj value: 0.222
# Max RMSD: 0.162
# Mean RMSD: 0.160
data_MOF--net-umz--node1-NAHDIM_clean_sbu_0--edge1-UVAHIK_clean_linker_0
_symmetry_space_group_name_H-M    P1
_symmetry_Int_Tables_number       1
_symmetry_cell_setting            triclinic
loop_
_symmetry_equiv_pos_as_xyz
'x, y, z'
_cell_length_a     76.891514
_cell_length_b     76.845772
_cell_length_c     28.077797
_cell_angle_alpha  90.01403
_cell_angle_beta   89.985579
_cell_angle_gamma 89.989106
loop_
_atom_site_label
_atom_site_type_symbol
_atom_site_fract_x
_atom_site_fract_y
_atom_site_fract_z
_atom_type_partial_charge
C0 C 0.01239 0.68463 0.17322 0.0
O1 O -0.00052 0.67347 0.17128 0.0
O2 O 0.00844 0.64249 0.22781 0.0
Zn3 Zn 0.03069 0.65541 0.21461 0.0
O4 O 0.04387 0.64329 0.16244 0.0
C5 C 0.06166 0.65374 0.27241 0.0
O6 O 0.06945 0.65619 0.2313 0.0
O7 O 0.02661 0.68006 0.1927 0.0
C8 C 0.04954 0.62786 0.16704 0.0
O9 O 0.04618 0.61924 0.2064 0.0
C10 C 0.00016 0.63417 0.19593 0.0
O11 O 0.00575 0.63458 0.15172 0.0
O12 O 0.04515 0.6541 0.2742 0.0
C13 C 0.82749 0.01723 0.65887 0.0
O14 O 0.83999 0.00577 0.65347 0.0
O15 O 0.8691 0.01497 0.71724 0.0
Zn16 Zn 0.85426 0.03633 0.70883 0.0
O17 O 0.86563 0.05246 0.66214 0.0
C18 C 0.85368 0.03991 0.81051 0.0
O19 O 0.85233 0.02288 0.80851 0.0
O20 O 0.83035 0.03083 0.68344 0.0
C21 C 0.88077 0.05857 0.66914 0.0
O22 O 0.88937 0.05396 0.70755 0.0
C23 C 0.87847 0.00833 0.68469 0.0
O24 O 0.87814 0.01507 0.64169 0.0
O25 O 0.85357 0.04858 0.77197 0.0
C26 C 0.49601 0.82269 0.17704 0.0
O27 O 0.5098 0.83276 0.17757 0.0
O28 O 0.50211 0.86583 0.21587 0.0
Zn29 Zn 0.47907 0.85331 0.21547 0.0
O30 O 0.46301 0.86473 0.16853 0.0
C31 C 0.47334 0.86783 0.30764 0.0
O32 O 0.48655 0.87733 0.29348 0.0
O33 O 0.48178 0.82838 0.19411 0.0
C34 C 0.45737 0.88014 0.17396 0.0
O35 O 0.46261 0.88931 0.21075 0.0
C36 C 0.50894 0.87375 0.18085 0.0
O37 O 0.50129 0.87324 0.13904 0.0
O38 O 0.46789 0.85567 0.2807 0.0
C39 C 0.6732 0.48877 0.65138 0.0
O40 O 0.65902 0.49748 0.64087 0.0
O41 O 0.63348 0.49055 0.7207 0.0
Zn42 Zn 0.64884 0.46978 0.70794 0.0
O43 O 0.63751 0.45428 0.65958 0.0
C44 C 0.64872 0.46275 0.80897 0.0
O45 O 0.64841 0.4798 0.81229 0.0
O46 O 0.67234 0.47657 0.68189 0.0
C47 C 0.62339 0.44645 0.66918 0.0
O48 O 0.61594 0.44907 0.71068 0.0
C49 C 0.62274 0.49649 0.69037 0.0
O50 O 0.62191 0.48939 0.64786 0.0
O51 O 0.65025 0.45577 0.76815 0.0
C52 C 0.01891 0.83226 0.86109 0.0
O53 O 0.0159 0.84781 0.87863 0.0
O54 O 0.01255 0.86943 0.78084 0.0
Zn55 Zn 0.03328 0.85378 0.79074 0.0
O56 O 0.05042 0.86489 0.83522 0.0
C57 C 0.03603 0.85072 0.68915 0.0
O58 O 0.01899 0.85022 0.69223 0.0
O59 O 0.02612 0.83102 0.82046 0.0
C60 C 0.05804 0.87919 0.82631 0.0
O61 O 0.0544 0.88752 0.78668 0.0
C62 C 0.00772 0.88135 0.80927 0.0
O63 O 0.01623 0.88377 0.84928 0.0
O64 O 0.04497 0.851 0.72722 0.0
C65 C 0.67956 0.02045 0.34746 0.0
O66 O 0.66454 0.01494 0.36383 0.0
O67 O 0.64252 0.0132 0.26894 0.0
Zn68 Zn 0.65631 0.03505 0.2815 0.0
O69 O 0.64392 0.05028 0.32867 0.0
C70 C 0.65493 0.04153 0.18048 0.0
O71 O 0.65353 0.0245 0.1785 0.0
O72 O 0.67979 0.02939 0.30936 0.0
C73 C 0.62945 0.05743 0.31896 0.0
O74 O 0.622 0.05417 0.2778 0.0
C75 C 0.63119 0.00692 0.29702 0.0
O76 O 0.62818 0.01461 0.33798 0.0
O77 O 0.65762 0.04875 0.22054 0.0
C78 C 0.48485 0.6747 0.86667 0.0
O79 O 0.48672 0.65914 0.88531 0.0
O80 O 0.49053 0.63654 0.79 0.0
Zn81 Zn 0.47043 0.65323 0.79685 0.0
O82 O 0.45231 0.64349 0.84074 0.0
C83 C 0.46877 0.65408 0.69495 0.0
O84 O 0.48577 0.65365 0.69935 0.0
O85 O 0.4783 0.676 0.82523 0.0
C86 C 0.44495 0.62888 0.83432 0.0
O87 O 0.44958 0.61918 0.79792 0.0
C88 C 0.49488 0.62475 0.8194 0.0
O89 O 0.48622 0.62302 0.85945 0.0
O90 O 0.45948 0.65548 0.7322 0.0
C91 C 0.82181 0.49448 0.34295 0.0
O92 O 0.83583 0.50249 0.35819 0.0
O93 O 0.86219 0.49952 0.27979 0.0
Zn94 Zn 0.84749 0.4779 0.28651 0.0
O95 O 0.85794 0.46199 0.33537 0.0
C96 C 0.85058 0.47321 0.18506 0.0
O97 O 0.85088 0.49031 0.18531 0.0
O98 O 0.82324 0.48354 0.30918 0.0
C99 C 0.87276 0.45495 0.33002 0.0
O100 O 0.88191 0.45845 0.29166 0.0
C101 C 0.87255 0.505 0.31171 0.0
O102 O 0.87358 0.49668 0.35248 0.0
O103 O 0.84804 0.46515 0.22397 0.0
C104 C 0.96119 0.32682 0.8336 0.0
O105 O 0.94618 0.33488 0.83039 0.0
O106 O 0.96017 0.35908 0.72561 0.0
Zn107 Zn 0.97192 0.35826 0.78986 0.0
O108 O 0.95711 0.37158 0.83632 0.0
C109 C 0.00363 0.37004 0.74588 0.0
O110 O 0.9972 0.36174 0.70895 0.0
O111 O 0.97462 0.33399 0.81598 0.0
C112 C 0.95229 0.38718 0.8293 0.0
O113 O 0.9576 0.39538 0.7909 0.0
C114 C 0.94372 0.35988 0.72193 0.0
O115 O 0.93415 0.35864 0.76053 0.0
O116 O 0.99522 0.37002 0.78487 0.0
C117 C 0.178 0.95854 0.35166 0.0
O118 O 0.17002 0.94355 0.34655 0.0
O119 O 0.14986 0.96002 0.23365 0.0
Zn120 Zn 0.1482 0.96968 0.30027 0.0
O121 O 0.1339 0.95323 0.33987 0.0
C122 C 0.13339 0.00097 0.25976 0.0
O123 O 0.13878 0.99402 0.21964 0.0
O124 O 0.1715 0.97201 0.33236 0.0
C125 C 0.11899 0.94768 0.32764 0.0
O126 O 0.112 0.95323 0.28774 0.0
C127 C 0.1498 0.94375 0.22549 0.0
O128 O 0.15022 0.93288 0.26155 0.0
O129 O 0.13618 0.99301 0.29871 0.0
C130 C 0.54272 0.1832 0.82751 0.0
O131 O 0.55814 0.17626 0.82088 0.0
O132 O 0.54319 0.15489 0.70987 0.0
Zn133 Zn 0.53358 0.15284 0.7764 0.0
O134 O 0.55082 0.13945 0.81595 0.0
C135 C 0.51372 0.12299 0.76043 0.0
O136 O 0.52955 0.11746 0.75129 0.0
O137 O 0.52953 0.17588 0.80893 0.0
C138 C 0.54737 0.13548 0.8588 0.0
O139 O 0.53221 0.1399 0.87673 0.0
C140 C 0.55952 0.15444 0.70304 0.0
O141 O 0.56997 0.15464 0.74005 0.0
O142 O 0.51158 0.13875 0.77286 0.0
C143 C 0.3302 0.54592 0.35926 0.0
O144 O 0.33949 0.56025 0.35775 0.0
O145 O 0.35273 0.54456 0.22877 0.0
Zn146 Zn 0.35662 0.53478 0.29431 0.0
O147 O 0.37317 0.551 0.32756 0.0
C148 C 0.36483 0.50155 0.25242 0.0
O149 O 0.35372 0.50681 0.21995 0.0
O150 O 0.33465 0.53309 0.33335 0.0
C151 C 0.38166 0.54651 0.36432 0.0
O152 O 0.38003 0.53057 0.38063 0.0
C153 C 0.35032 0.56077 0.22291 0.0
O154 O 0.34855 0.57076 0.26057 0.0
O155 O 0.36788 0.51124 0.28815 0.0
C156 C 0.96512 0.18229 0.15697 0.0
O157 O 0.95009 0.17454 0.16348 0.0
O158 O 0.96637 0.15099 0.26609 0.0
Zn159 Zn 0.97638 0.15085 0.19963 0.0
O160 O 0.96018 0.13737 0.15726 0.0
C161 C 0.00866 0.1384 0.23865 0.0
O162 O 0.00327 0.14706 0.27621 0.0
O163 O 0.97888 0.17485 0.1717 0.0
C164 C 0.95508 0.1221 0.16744 0.0
O165 O 0.96095 0.11455 0.20623 0.0
C166 C 0.95007 0.15041 0.27352 0.0
O167 O 0.93939 0.15116 0.23708 0.0
O168 O -0.00053 0.13854 0.20102 0.0
C169 C 0.31804 0.96274 0.68864 0.0
O170 O 0.32436 0.9474 0.69987 0.0
O171 O 0.35142 0.96176 0.78903 0.0
Zn172 Zn 0.35111 0.97226 0.72324 0.0
O173 O 0.36332 0.9558 0.67824 0.0
C174 C 0.38071 0.99247 0.7386 0.0
O175 O 0.38628 0.9767 0.74849 0.0
O176 O 0.32702 0.97621 0.69769 0.0
C177 C 0.3724 0.96132 0.64359 0.0
O178 O 0.37364 0.97814 0.63612 0.0
C179 C 0.35376 0.94552 0.79484 0.0
O180 O 0.35412 0.93531 0.75733 0.0
O181 O 0.36492 0.9945 0.72638 0.0
C182 C 0.53398 0.31931 0.17642 0.0
O183 O 0.5489 0.32406 0.19508 0.0
O184 O 0.53535 0.35259 0.27319 0.0
Zn185 Zn 0.52422 0.35339 0.2082 0.0
O186 O 0.53968 0.36784 0.16556 0.0
C187 C 0.49073 0.36781 0.18092 0.0
O188 O 0.49456 0.36144 0.13875 0.0
O189 O 0.52105 0.32954 0.17956 0.0
C190 C 0.5435 0.36365 0.12304 0.0
O191 O 0.53651 0.34965 0.10422 0.0
C192 C 0.55166 0.35481 0.27762 0.0
O193 O 0.56129 0.35615 0.23916 0.0
O194 O 0.50129 0.36558 0.21517 0.0
C195 C 0.18804 0.54027 0.68922 0.0
O196 O 0.18245 0.55543 0.7045 0.0
O197 O 0.15059 0.54232 0.77434 0.0
Zn198 Zn 0.15292 0.53051 0.71058 0.0
O199 O 0.14066 0.54524 0.66138 0.0
C200 C 0.13653 0.49809 0.68077 0.0
O201 O 0.14054 0.50323 0.63752 0.0
O202 O 0.17785 0.52726 0.69078 0.0
C203 C 0.1465 0.54738 0.61942 0.0
O204 O 0.16065 0.5391 0.60627 0.0
C205 C 0.1474 0.55851 0.77743 0.0
O206 O 0.14714 0.56795 0.73844 0.0
O207 O 0.14085 0.50746 0.71611 0.0
C208 C 0.02587 0.71225 0.14348 0.0
C209 C 0.0113 0.70127 0.14688 0.0
C210 C 0.02554 0.72681 0.11374 0.0
C211 C 0.99639 0.75642 0.04733 0.0
H212 H 0.03716 0.76345 0.96825 0.0
C213 C 0.021 0.80009 0.87567 0.0
C214 C 0.01551 0.81667 0.89056 0.0
C215 C 0.01923 0.78573 0.90588 0.0
C216 C 0.0256 0.76156 0.9897 0.0
H217 H 0.98468 0.69746 0.12342 0.0
H218 H 0.98415 0.72285 0.07146 0.0
H219 H 0.03661 0.73953 0.02511 0.0
H220 H 0.00326 0.83103 0.94809 0.0
H221 H 0.00029 0.80607 0.00065 0.0
H222 H 0.98531 0.77836 0.01139 0.0
C223 C 0.9958 0.72022 0.09188 0.0
C224 C 0.02539 0.74801 0.0228 0.0
C225 C 0.99614 0.70563 0.12157 0.0
C226 C 0.00766 0.81845 0.93552 0.0
C227 C 0.00586 0.80411 0.96561 0.0
C228 C 0.99662 0.77002 0.01427 0.0
C229 C 0.01063 0.73075 0.08684 0.0
C230 C 0.01081 0.74532 0.05212 0.0
C231 C 0.01189 0.78765 0.95148 0.0
C232 C 0.01125 0.77276 0.98516 0.0
H233 H 0.03773 0.70932 0.16268 0.0
H234 H 0.03706 0.73487 0.1113 0.0
H235 H 0.985 0.75473 0.06956 0.0
H236 H 0.02705 0.79828 0.84119 0.0
H237 H 0.02377 0.77315 0.89371 0.0
C238 C 0.69489 0.00771 0.41772 0.0
C239 C 0.69555 0.01766 0.37573 0.0
C240 C 0.70946 0.0063 0.44708 0.0
C241 C 0.74458 -0.00098 0.49249 0.0
H242 H 0.77015 0.04156 0.5172 0.0
C243 C 0.80865 0.00124 0.60074 0.0
C244 C 0.81118 0.01553 0.63125 0.0
C245 C 0.79424 0.00059 0.57048 0.0
C246 C 0.76305 0.0296 0.51098 0.0
H247 H 0.71223 0.03339 0.33073 0.0
H248 H 0.73777 0.0308 0.38196 0.0
H249 H 0.74616 0.04182 0.46056 0.0
H250 H 0.80013 0.03997 0.65542 0.0
H251 H 0.7749 0.03872 0.603 0.0
H252 H 0.76129 0.9869 0.54371 0.0
C253 C 0.72587 0.0243 0.39242 0.0
C254 C 0.74947 0.02969 0.47799 0.0
C255 C 0.71128 0.02568 0.36292 0.0
C256 C 0.79862 0.02882 0.63219 0.0
C257 C 0.78424 0.02818 0.60188 0.0
C258 C 0.7582 -0.00108 0.52544 0.0
C259 C 0.72503 0.0148 0.4352 0.0
C260 C 0.74002 0.01442 0.46851 0.0
C261 C 0.78206 0.01423 0.57004 0.0
C262 C 0.76752 0.01424 0.53524 0.0
H263 H 0.68298 0.00133 0.42862 0.0
H264 H 0.70832 -0.00097 0.47998 0.0
H265 H 0.73762 0.98701 0.48571 0.0
H266 H 0.81807 0.99078 0.59914 0.0
H267 H 0.793 0.98971 0.54619 0.0
C268 C 0.51161 0.80065 0.12709 0.0
C269 C 0.49637 0.80604 0.15053 0.0
C270 C 0.51144 0.78611 0.09723 0.0
C271 C 0.48121 0.76016 0.02458 0.0
H272 H 0.51949 0.7274 0.01808 0.0
C273 C 0.49592 0.68834 0.94145 0.0
C274 C 0.48873 0.69028 0.89573 0.0
C275 C 0.49814 0.70274 0.97112 0.0
C276 C 0.50868 0.73641 0.01957 0.0
H277 H 0.46919 0.79986 0.16275 0.0
H278 H 0.46898 0.77435 0.11117 0.0
H279 H 0.52038 0.75111 0.07587 0.0
H280 H 0.47883 0.70896 0.8446 0.0
H281 H 0.48288 0.73421 0.8964 0.0
H282 H 0.46931 0.74526 0.96909 0.0
C283 C 0.48097 0.78159 0.11515 0.0
C284 C 0.50925 0.75007 0.05242 0.0
C285 C 0.48114 0.79613 0.14503 0.0
C286 C 0.48435 0.70703 0.87968 0.0
C287 C 0.48656 0.72147 0.90947 0.0
C288 C 0.48065 0.74653 0.99172 0.0
C289 C 0.49603 0.77663 0.09016 0.0
C290 C 0.49547 0.76204 0.05548 0.0
C291 C 0.49323 0.71943 0.9558 0.0
C292 C 0.49433 0.73444 0.98898 0.0
H293 H 0.52357 0.80799 0.13054 0.0
H294 H 0.52323 0.78269 0.0783 0.0
H295 H 0.4705 0.76931 0.02552 0.0
H296 H 0.49946 0.67562 0.95493 0.0
H297 H 0.50315 0.70068 0.00673 0.0
C298 C 0.6898 0.50469 0.58837 0.0
C299 C 0.68927 0.49165 0.62346 0.0
C300 C 0.70417 0.50625 0.55823 0.0
C301 C 0.73974 0.51166 0.51301 0.0
H302 H 0.7588 0.46873 0.46242 0.0
C303 C 0.8041 0.50834 0.40724 0.0
C304 C 0.80525 0.49648 0.36925 0.0
C305 C 0.78931 0.50885 0.43606 0.0
C306 C 0.75351 0.48085 0.47581 0.0
H307 H 0.70375 0.47048 0.65571 0.0
H308 H 0.72892 0.47333 0.60336 0.0
H309 H 0.73485 0.4676 0.51914 0.0
H310 H 0.79143 0.47638 0.33037 0.0
H311 H 0.7655 0.4774 0.38053 0.0
H312 H 0.75828 0.5249 0.46913 0.0
C313 C 0.71808 0.48217 0.59869 0.0
C314 C 0.73996 0.48019 0.50888 0.0
C315 C 0.70371 0.48062 0.62893 0.0
C316 C 0.79098 0.48563 0.35946 0.0
C317 C 0.77618 0.48612 0.38841 0.0
C318 C 0.75334 0.51232 0.47999 0.0
C319 C 0.71832 0.4948 0.56245 0.0
C320 C 0.73295 0.49558 0.52796 0.0
C321 C 0.77534 0.49749 0.4276 0.0
C322 C 0.76039 0.49691 0.46108 0.0
H323 H 0.6789 0.51342 0.58321 0.0
H324 H 0.70389 0.51604 0.53049 0.0
H325 H 0.73468 0.52375 0.52724 0.0
H326 H 0.81485 0.51691 0.41573 0.0
H327 H 0.78914 0.51767 0.46616 0.0
C328 C 0.97901 0.30392 0.87469 0.0
C329 C 0.96266 0.31087 0.86279 0.0
C330 C 0.98031 0.29007 0.90686 0.0
C331 C 0.95584 0.26977 0.00507 0.0
H332 H 0.98754 0.23104 0.98783 0.0
C333 C 0.95065 0.20673 0.11388 0.0
C334 C 0.96604 0.19848 0.12862 0.0
C335 C 0.95127 0.22115 0.08376 0.0
C336 C 0.97881 0.24191 0.99348 0.0
H337 H 0.93483 0.30816 0.8734 0.0
H338 H 0.9371 0.28393 0.92871 0.0
H339 H 0.98658 0.25427 0.92843 0.0
H340 H 0.9942 0.19917 0.12428 0.0
H341 H 0.99528 0.2245 0.07167 0.0
H342 H 0.94794 0.2574 0.06976 0.0
C343 C 0.94894 0.28942 0.91414 0.0
C344 C 0.97823 0.25518 0.95941 0.0
C345 C 0.94764 0.30323 0.88213 0.0
C346 C 0.98211 0.20524 0.11354 0.0
C347 C 0.98273 0.21965 0.08315 0.0
C348 C 0.95641 0.25654 0.03902 0.0
C349 C 0.96529 0.28292 0.92768 0.0
C350 C 0.96655 0.26913 0.96453 0.0
C351 C 0.9673 0.22765 0.06757 0.0
C352 C 0.96773 0.24234 0.03332 0.0
H353 H 0.99083 0.30953 0.86043 0.0
H354 H 0.9931 0.28538 0.91669 0.0
H355 H 0.94699 0.28055 0.01063 0.0
H356 H 0.93805 0.20185 0.12481 0.0
H357 H 0.93914 0.22688 0.07198 0.0
C358 C 0.29228 0.94892 0.64981 0.0
C359 C 0.30181 0.96401 0.66055 0.0
C360 C 0.27804 0.94966 0.61912 0.0
C361 C 0.26041 0.97569 0.52067 0.0
H362 H 0.2195 0.9471 0.54036 0.0
C363 C 0.2006 0.97624 0.3943 0.0
C364 C 0.19308 0.95998 0.38416 0.0
C365 C 0.21374 0.97768 0.42853 0.0
C366 C 0.23091 0.95504 0.53417 0.0
H367 H 0.30344 0.99188 0.64894 0.0
H368 H 0.27839 0.99319 0.59554 0.0
H369 H 0.24185 0.94836 0.60177 0.0
H370 H 0.1939 0.9324 0.40075 0.0
H371 H 0.21688 0.93492 0.45989 0.0
H372 H 0.2495 0.98224 0.4528 0.0
C373 C 0.28213 0.98074 0.61042 0.0
C374 C 0.24369 0.95579 0.56939 0.0
C375 C 0.29639 0.98 0.64127 0.0
C376 C 0.19934 0.94514 0.40787 0.0
C377 C 0.21241 0.94659 0.44207 0.0
C378 C 0.24759 0.97496 0.48542 0.0
C379 C 0.27297 0.96553 0.59842 0.0
C380 C 0.25871 0.96592 0.56278 0.0
C381 C 0.21957 0.96291 0.45335 0.0
C382 C 0.23283 0.96442 0.49152 0.0
H383 H 0.2961 0.93639 0.66405 0.0
H384 H 0.27138 0.93767 0.61025 0.0
H385 H 0.27193 0.98345 0.51422 0.0
H386 H 0.19606 0.98792 0.37669 0.0
H387 H 0.21896 0.99044 0.43657 0.0
C388 C 0.52414 0.20504 0.8706 0.0
C389 C 0.54063 0.19792 0.86101 0.0
C390 C 0.52215 0.21786 0.90561 0.0
C391 C 0.54309 0.23399 0.01454 0.0
H392 H 0.51582 0.27576 0.99407 0.0
C393 C 0.54794 0.29354 0.13777 0.0
C394 C 0.53297 0.30354 0.14628 0.0
C395 C 0.54755 0.27976 0.1054 0.0
C396 C 0.52324 0.26403 0.0007 0.0
H397 H 0.56801 0.19909 0.87962 0.0
H398 H 0.5645 0.22139 0.94037 0.0
H399 H 0.51767 0.25386 0.93123 0.0
H400 H 0.50564 0.30648 0.12882 0.0
H401 H 0.50489 0.28218 0.0729 0.0
H402 H 0.54869 0.24405 0.08386 0.0
C403 C 0.5531 0.21692 0.92129 0.0
C404 C 0.52433 0.25153 0.96461 0.0
C405 C 0.55511 0.20423 0.88619 0.0
C406 C 0.51742 0.29907 0.12294 0.0
C407 C 0.51702 0.28522 0.09061 0.0
C408 C 0.54191 0.24641 0.05068 0.0
C409 C 0.53658 0.22368 0.93188 0.0
C410 C 0.53451 0.23652 0.97091 0.0
C411 C 0.53216 0.27558 0.08089 0.0
C412 C 0.5322 0.26171 0.04395 0.0
H413 H 0.51273 0.20045 0.85183 0.0
H414 H 0.50925 0.22283 0.91312 0.0
H415 H 0.55075 0.22238 0.02074 0.0
H416 H 0.56015 0.29666 0.15502 0.0
H417 H 0.55952 0.27277 0.09838 0.0
C418 C 0.3067 0.52858 0.39921 0.0
C419 C 0.31563 0.5444 0.39342 0.0
C420 C 0.29361 0.527 0.43356 0.0
C421 C 0.2777 0.54731 0.54481 0.0
H422 H 0.23483 0.52305 0.51542 0.0
C423 C 0.21536 0.55375 0.65782 0.0
C424 C 0.20477 0.53899 0.66342 0.0
C425 C 0.23 0.55316 0.62842 0.0
C426 C 0.24684 0.52963 0.52447 0.0
H427 H 0.31758 0.57105 0.41847 0.0
H428 H 0.29464 0.56835 0.47766 0.0
H429 H 0.25782 0.52457 0.45581 0.0
H430 H 0.20174 0.51178 0.64436 0.0
H431 H 0.22741 0.51074 0.59341 0.0
H432 H 0.26659 0.5526 0.61323 0.0
C433 C 0.29795 0.55707 0.45636 0.0
C434 C 0.26001 0.53052 0.49027 0.0
C435 C 0.31102 0.55865 0.42212 0.0
C436 C 0.20958 0.52341 0.64066 0.0
C437 C 0.22421 0.52284 0.61118 0.0
C438 C 0.26453 0.54644 0.57899 0.0
C439 C 0.2892 0.54119 0.46279 0.0
C440 C 0.27551 0.53954 0.49985 0.0
C441 C 0.23438 0.53781 0.60396 0.0
C442 C 0.24888 0.53773 0.56904 0.0
H443 H 0.30999 0.51733 0.37778 0.0
H444 H 0.2872 0.51455 0.43786 0.0
H445 H 0.28963 0.55408 0.55364 0.0
H446 H 0.21202 0.56595 0.67484 0.0
H447 H 0.23749 0.56496 0.62333 0.0
C448 C 0.06509 0.6299 0.08897 0.0
C449 C 0.06074 0.62019 0.12968 0.0
C450 C 0.07617 0.623 0.05444 0.0
C451 C 0.09297 0.5817 0.00714 0.0
H452 H 0.1279 0.61135 0.94928 0.0
C453 C 0.13974 0.55555 0.86384 0.0
C454 C 0.14148 0.56606 0.82314 0.0
C455 C 0.13199 0.56212 0.90513 0.0
C456 C 0.11816 0.60293 0.96493 0.0
H457 H 0.06454 0.59554 0.16587 0.0
H458 H 0.08394 0.58348 0.1054 0.0
H459 H 0.10978 0.62269 0.01352 0.0
H460 H 0.13726 0.59197 0.79472 0.0
H461 H 0.12364 0.60336 0.86645 0.0
H462 H 0.10108 0.56204 0.95797 0.0
C463 C 0.07868 0.59641 0.10018 0.0
C464 C 0.10777 0.60943 0.00167 0.0
C465 C 0.0676 0.60334 0.13486 0.0
C466 C 0.13609 0.58351 0.8254 0.0
C467 C 0.12835 0.59008 0.86667 0.0
C468 C 0.10334 0.5752 0.97034 0.0
C469 C 0.08316 0.60621 0.05972 0.0
C470 C 0.0949 0.59896 0.02273 0.0
C471 C 0.12585 0.57934 0.90663 0.0
C472 C 0.11591 0.58582 0.9484 0.0
H473 H 0.06 0.64291 0.0838 0.0
H474 H 0.07914 0.63077 0.02328 0.0
H475 H 0.08304 0.57337 0.02227 0.0
H476 H 0.14384 0.54207 0.86338 0.0
H477 H 0.13051 0.55361 0.93561 0.0
C478 C 0.9255 0.1432 0.32842 0.0
C479 C 0.94335 0.1462 0.32152 0.0
C480 C 0.91937 0.13687 0.37189 0.0
C481 C 0.93438 0.11105 0.47385 0.0
H482 H 0.88889 0.12244 0.52475 0.0
C483 C 0.90577 0.07649 0.63934 0.0
C484 C 0.88851 0.07077 0.63435 0.0
C485 C 0.91307 0.08782 0.60587 0.0
C486 C 0.90161 0.11911 0.51087 0.0
H487 H 0.96864 0.14592 0.35583 0.0
H488 H 0.95787 0.1351 0.43199 0.0
H489 H 0.90065 0.13935 0.4586 0.0
H490 H 0.86529 0.07265 0.59068 0.0
H491 H 0.87804 0.09229 0.53238 0.0
H492 H 0.93518 0.0906 0.52553 0.0
C493 C 0.94867 0.13731 0.40343 0.0
C494 C 0.90834 0.12878 0.473 0.0
C495 C 0.95482 0.14362 0.35987 0.0
C496 C 0.87863 0.07679 0.59558 0.0
C497 C 0.88589 0.08817 0.56235 0.0
C498 C 0.92767 0.10142 0.51183 0.0
C499 C 0.93093 0.13345 0.40954 0.0
C500 C 0.92465 0.12463 0.45339 0.0
C501 C 0.90321 0.09374 0.56696 0.0
C502 C 0.91106 0.10511 0.53007 0.0
H503 H 0.91631 0.14506 0.29965 0.0
H504 H 0.90566 0.13387 0.37515 0.0
H505 H 0.94686 0.10733 0.4592 0.0
H506 H 0.91371 0.07212 0.66887 0.0
H507 H 0.92642 0.09199 0.61049 0.0
C508 C 0.43834 0.87717 0.10216 0.0
C509 C 0.44459 0.8874 0.13995 0.0
C510 C 0.42608 0.88385 0.07037 0.0
C511 C 0.40937 0.92496 0.02234 0.0
H512 H 0.37194 0.89576 0.9755 0.0
C513 C 0.36162 0.95003 0.88061 0.0
C514 C 0.35908 0.9387 0.84191 0.0
C515 C 0.3693 0.94404 0.92264 0.0
C516 C 0.38234 0.90406 0.98816 0.0
H517 H 0.44284 0.91268 0.17406 0.0
H518 H 0.42142 0.92435 0.11837 0.0
H519 H 0.39118 0.88489 0.0379 0.0
H520 H 0.36161 0.91195 0.81813 0.0
H521 H 0.3751 0.90156 0.89105 0.0
H522 H 0.40088 0.94394 0.97179 0.0
C523 C 0.42609 0.91118 0.11328 0.0
C524 C 0.39337 0.89783 0.02383 0.0
C525 C 0.43833 0.90448 0.14523 0.0
C526 C 0.36342 0.92104 0.84719 0.0
C527 C 0.37109 0.91505 0.88917 0.0
C528 C 0.39836 0.93118 0.98662 0.0
C529 C 0.41982 0.90093 0.07554 0.0
C530 C 0.4072 0.90809 0.04069 0.0
C531 C 0.37456 0.92658 0.92687 0.0
C532 C 0.38491 0.92068 0.96853 0.0
H533 H 0.4429 0.86397 0.09701 0.0
H534 H 0.42174 0.87571 0.0412 0.0
H535 H 0.42001 0.93311 0.03419 0.0
H536 H 0.35833 0.9637 0.87783 0.0
H537 H 0.37153 0.95317 0.95137 0.0
C538 C 0.54875 0.35918 0.3658 0.0
C539 C 0.55928 0.35854 0.3249 0.0
C540 C 0.5555 0.36518 0.40902 0.0
C541 C 0.59673 0.37665 0.4713 0.0
H542 H 0.5679 0.41109 0.53434 0.0
C543 C 0.62473 0.43 0.59241 0.0
C544 C 0.6157 0.43424 0.63436 0.0
C545 C 0.6176 0.4184 0.55954 0.0
C546 C 0.57601 0.4013 0.51767 0.0
H547 H 0.58542 0.36271 0.29801 0.0
H548 H 0.59707 0.37337 0.37288 0.0
H549 H 0.55595 0.39413 0.46882 0.0
H550 H 0.59212 0.42956 0.67482 0.0
H551 H 0.57958 0.40936 0.61702 0.0
H552 H 0.61699 0.38435 0.51917 0.0
C553 C 0.58365 0.36911 0.3719 0.0
C554 C 0.56915 0.39153 0.48017 0.0
C555 C 0.57692 0.36308 0.32878 0.0
C556 C 0.59939 0.42659 0.64279 0.0
C557 C 0.59219 0.41506 0.60968 0.0
C558 C 0.60361 0.38649 0.50864 0.0
C559 C 0.57291 0.37066 0.41222 0.0
C560 C 0.57954 0.37934 0.45589 0.0
C561 C 0.60123 0.41085 0.56773 0.0
C562 C 0.59343 0.39917 0.53155 0.0
H563 H 0.53513 0.35565 0.36409 0.0
H564 H 0.54697 0.36594 0.43965 0.0
H565 H 0.60498 0.36715 0.45392 0.0
H566 H 0.63734 0.43565 0.58484 0.0
H567 H 0.62476 0.41561 0.52719 0.0
C568 C 0.1447 0.94895 0.13849 0.0
C569 C 0.1463 0.93728 0.1768 0.0
C570 C 0.13884 0.94317 0.09411 0.0
C571 C 0.12929 0.90333 0.02296 0.0
H572 H 0.093 0.93208 0.96808 0.0
C573 C 0.07612 0.87629 0.89985 0.0
C574 C 0.07082 0.88629 0.86055 0.0
C575 C 0.08793 0.88298 0.93284 0.0
C576 C 0.10331 0.92404 0.98241 0.0
H577 H 0.14394 0.91021 0.19776 0.0
H578 H 0.13347 0.9002 0.12085 0.0
H579 H 0.10971 0.94292 0.03546 0.0
H580 H 0.07392 0.91111 0.82475 0.0
H581 H 0.09449 0.92288 0.88288 0.0
H582 H 0.12234 0.88418 0.97091 0.0
C583 C 0.13692 0.91379 0.12475 0.0
C584 C 0.11294 0.93025 0.02101 0.0
C585 C 0.14284 0.91956 0.16904 0.0
C586 C 0.07773 0.90309 0.8547 0.0
C587 C 0.08946 0.90985 0.88801 0.0
C588 C 0.11959 0.89708 0.98451 0.0
C589 C 0.1344 0.9256 0.08712 0.0
C590 C 0.1258 0.91983 0.0424 0.0
C591 C 0.09463 0.89987 0.9275 0.0
C592 C 0.10626 0.90723 0.96451 0.0
H593 H 0.1474 0.96268 0.14318 0.0
H594 H 0.13736 0.95255 0.06562 0.0
H595 H 0.13931 0.8951 0.03803 0.0
H596 H 0.07108 0.86328 0.90538 0.0
H597 H 0.09146 0.87506 0.96326 0.0
C598 C 0.55528 0.14809 0.61618 0.0
C599 C 0.56651 0.1504 0.65518 0.0
C600 C 0.56157 0.14145 0.57313 0.0
C601 C 0.60226 0.13046 0.50714 0.0
H602 H 0.57415 0.09314 0.45496 0.0
C603 C 0.63083 0.07529 0.39332 0.0
C604 C 0.62152 0.06983 0.35292 0.0
C605 C 0.6236 0.08727 0.425 0.0
C606 C 0.58203 0.1037 0.4686 0.0
H607 H 0.59335 0.1486 0.67854 0.0
H608 H 0.60422 0.13678 0.6041 0.0
H609 H 0.56249 0.11124 0.51862 0.0
H610 H 0.59728 0.07264 0.31416 0.0
H611 H 0.58454 0.09348 0.37006 0.0
H612 H 0.62207 0.12238 0.45827 0.0
C613 C 0.59059 0.14024 0.60636 0.0
C614 C 0.57534 0.11414 0.505 0.0
C615 C 0.58432 0.14694 0.64927 0.0
C616 C 0.60478 0.07658 0.34499 0.0
C617 C 0.59747 0.08847 0.37699 0.0
C618 C 0.60899 0.11994 0.47097 0.0
C619 C 0.57921 0.13693 0.56821 0.0
C620 C 0.5855 0.12742 0.52541 0.0
C621 C 0.60685 0.09398 0.41722 0.0
C622 C 0.59908 0.10624 0.45203 0.0
H623 H 0.5415 0.15076 0.61943 0.0
H624 H 0.55252 0.13938 0.54413 0.0
H625 H 0.61032 0.14078 0.52141 0.0
H626 H 0.64377 0.07037 0.40048 0.0
H627 H 0.63103 0.09107 0.45608 0.0
C628 C 0.35791 0.5582 0.13643 0.0
C629 C 0.35312 0.56864 0.17545 0.0
C630 C 0.36388 0.56581 0.09429 0.0
C631 C 0.38711 0.6049 0.05839 0.0
H632 H 0.38049 0.58741 0.93013 0.0
C633 C 0.42444 0.63455 0.90153 0.0
C634 C 0.43151 0.62289 0.86819 0.0
C635 C 0.41227 0.62888 0.93493 0.0
C636 C 0.38255 0.59236 0.9658 0.0
H637 H 0.34934 0.59524 0.19927 0.0
H638 H 0.35965 0.60848 0.12562 0.0
H639 H 0.36276 0.57589 0.99525 0.0
H640 H 0.43106 0.59622 0.84298 0.0
H641 H 0.41016 0.58617 0.90233 0.0
H642 H 0.40727 0.62085 0.02987 0.0
C643 C 0.35911 0.59442 0.12801 0.0
C644 C 0.37235 0.58581 0.00299 0.0
C645 C 0.35312 0.58682 0.17011 0.0
C646 C 0.42585 0.60551 0.86824 0.0
C647 C 0.41376 0.59979 0.90205 0.0
C648 C 0.39734 0.61135 0.02141 0.0
C649 C 0.36518 0.58399 0.09037 0.0
C650 C 0.37463 0.59193 0.04975 0.0
C651 C 0.40701 0.61136 0.93622 0.0
C652 C 0.39532 0.60507 0.97471 0.0
H653 H 0.35796 0.54415 0.13926 0.0
H654 H 0.36851 0.55742 0.06599 0.0
H655 H 0.38948 0.60961 0.09417 0.0
H656 H 0.42836 0.64808 0.90203 0.0
H657 H 0.40707 0.63823 0.96004 0.0
C658 C 0.94596 0.36893 0.63634 0.0
C659 C 0.93562 0.36502 0.67625 0.0
C660 C 0.9385 0.37625 0.59558 0.0
C661 C 0.90147 0.40353 0.56288 0.0
H662 H 0.91474 0.39291 0.43284 0.0
C663 C 0.86885 0.43775 0.40478 0.0
C664 C 0.87957 0.44303 0.36691 0.0
C665 C 0.87524 0.42675 0.44022 0.0
C666 C 0.91103 0.39613 0.46899 0.0
H667 H 0.9092 0.36464 0.70347 0.0
H668 H 0.89624 0.37728 0.63231 0.0
H669 H 0.92656 0.37555 0.4983 0.0
H670 H 0.90536 0.44074 0.33623 0.0
H671 H 0.91666 0.42183 0.39884 0.0
H672 H 0.88632 0.4243 0.53417 0.0
C673 C 0.91014 0.37498 0.63287 0.0
C674 C 0.91775 0.38615 0.50641 0.0
C675 C 0.91756 0.36764 0.67353 0.0
C676 C 0.89677 0.43689 0.36494 0.0
C677 C 0.90321 0.42596 0.40065 0.0
C678 C 0.89484 0.41352 0.52563 0.0
C679 C 0.92059 0.37982 0.59401 0.0
C680 C 0.91303 0.38977 0.55375 0.0
C681 C 0.89255 0.42088 0.43892 0.0
C682 C 0.89953 0.40996 0.47823 0.0
H683 H 0.95991 0.36703 0.63724 0.0
H684 H 0.9469 0.37991 0.56627 0.0
H685 H 0.89788 0.40689 0.59904 0.0
H686 H 0.85548 0.44209 0.40713 0.0
H687 H 0.86657 0.42284 0.46867 0.0
C688 C 0.93314 0.38614 0.90125 0.0
C689 C 0.94024 0.39567 0.86321 0.0
C690 C 0.92166 0.39399 0.9332 0.0
C691 C 0.89254 0.43201 0.94858 0.0
H692 H 0.89801 0.42135 0.08271 0.0
C693 C 0.86192 0.47245 0.1014 0.0
C694 C 0.85633 0.4635 0.14231 0.0
C695 C 0.87001 0.46351 0.06411 0.0
C696 C 0.8961 0.42427 0.04533 0.0
H697 H 0.94077 0.42091 0.82874 0.0
H698 H 0.92096 0.43475 0.88518 0.0
H699 H 0.91681 0.40735 0.02464 0.0
H700 H 0.85375 0.43798 0.17463 0.0
H701 H 0.8677 0.42241 0.10939 0.0
H702 H 0.872 0.44924 0.96975 0.0
C703 C 0.92407 0.42111 0.88983 0.0
C704 C 0.90691 0.41625 0.01199 0.0
C705 C 0.93552 0.41322 0.85768 0.0
C706 C 0.85804 0.4453 0.14382 0.0
C707 C 0.86613 0.43638 0.10658 0.0
C708 C 0.88173 0.4401 0.98205 0.0
C709 C 0.91706 0.4116 0.92808 0.0
C710 C 0.9053 0.42004 0.96322 0.0
C711 C 0.87268 0.44545 0.06698 0.0
C712 C 0.88343 0.43632 0.03081 0.0
H713 H 0.93637 0.37254 0.90631 0.0
H714 H 0.91629 0.3862 0.96178 0.0
H715 H 0.8908 0.43505 0.91122 0.0
H716 H 0.86076 0.48647 0.09903 0.0
H717 H 0.87497 0.47089 0.03417 0.0
C718 C 0.03448 0.8568 0.60158 0.0
C719 C 0.04452 0.85433 0.64287 0.0
C720 C 0.04211 0.86319 0.5599 0.0
C721 C 0.08459 0.87289 0.50186 0.0
H722 H 0.05942 0.91182 0.44731 0.0
C723 C 0.11832 0.9276 0.39767 0.0
C724 C 0.10996 0.93465 0.35757 0.0
C725 C 0.10992 0.91535 0.42622 0.0
C726 C 0.0665 0.90079 0.46147 0.0
H727 H 0.07067 0.85546 0.67174 0.0
H728 H 0.08391 0.86673 0.59947 0.0
H729 H 0.04551 0.8938 0.50753 0.0
H730 H 0.08627 0.9342 0.31565 0.0
H731 H 0.07152 0.9128 0.36586 0.0
H732 H 0.10582 0.88034 0.45689 0.0
C733 C 0.07016 0.86366 0.59902 0.0
C734 C 0.05851 0.89041 0.49597 0.0
C735 C 0.06254 0.85727 0.64063 0.0
C736 C 0.09304 0.92907 0.34641 0.0
C737 C 0.08458 0.91685 0.37519 0.0
C738 C 0.09259 0.8833 0.46744 0.0
C739 C 0.05995 0.86721 0.55863 0.0
C740 C 0.06761 0.87659 0.51736 0.0
C741 C 0.09293 0.90989 0.41548 0.0
C742 C 0.08377 0.89761 0.44769 0.0
H743 H 0.02058 0.85453 0.60197 0.0
H744 H 0.03395 0.86549 0.52912 0.0
H745 H 0.09185 0.86217 0.51706 0.0
H746 H 0.13138 0.93158 0.40725 0.0
H747 H 0.1166 0.91046 0.45743 0.0
C748 C 0.65014 0.07054 0.14208 0.0
C749 C 0.64972 0.05228 0.13917 0.0
C750 C 0.64219 0.0807 0.10703 0.0
C751 C 0.61205 0.09673 0.05405 0.0
H752 H 0.60892 0.08442 0.92042 0.0
C753 C 0.55652 0.12159 0.93541 0.0
C754 C 0.56047 0.12648 0.88845 0.0
C755 C 0.56898 0.11337 0.96372 0.0
C756 C 0.6098 0.08817 0.95752 0.0
H757 H 0.64174 0.03043 0.0954 0.0
H758 H 0.62766 0.04809 0.03483 0.0
H759 H 0.62954 0.06919 0.97169 0.0
H760 H 0.58063 0.12655 0.83431 0.0
H761 H 0.60244 0.11236 0.88397 0.0
H762 H 0.59242 0.11575 0.03999 0.0
C763 C 0.63424 0.05461 0.06389 0.0
C764 C 0.62151 0.07933 0.98699 0.0
C765 C 0.64227 0.04446 0.09881 0.0
C766 C 0.57714 0.12289 0.87033 0.0
C767 C 0.58963 0.1147 0.8987 0.0
C768 C 0.60041 0.10558 0.02462 0.0
C769 C 0.63359 0.07283 0.06845 0.0
C770 C 0.62259 0.08334 0.03577 0.0
C771 C 0.58571 0.1099 0.94579 0.0
C772 C 0.59892 0.10121 0.9762 0.0
H773 H 0.65594 0.07699 0.17249 0.0
H774 H 0.64227 0.09472 0.11104 0.0
H775 H 0.61235 0.10003 0.09154 0.0
H776 H 0.54377 0.12409 0.95038 0.0
H777 H 0.56543 0.10956 -0.00044 0.0
C778 C 0.40223 0.5545 0.42991 0.0
C779 C 0.39246 0.55942 0.38987 0.0
C780 C 0.41177 0.56688 0.45534 0.0
C781 C 0.41304 0.61361 0.48155 0.0
H782 H 0.45827 0.60239 0.53424 0.0
C783 C 0.44238 0.64727 0.64619 0.0
C784 C 0.46054 0.64905 0.64932 0.0
C785 C 0.4348 0.63921 0.60671 0.0
C786 C 0.44578 0.60588 0.51918 0.0
H787 H 0.38528 0.58117 0.34456 0.0
H788 H 0.40196 0.60274 0.38903 0.0
H789 H 0.44422 0.58204 0.48002 0.0
H790 H 0.48486 0.64512 0.61157 0.0
H791 H 0.47159 0.63119 0.54251 0.0
H792 H 0.41452 0.63736 0.52136 0.0
C793 C 0.40213 0.58933 0.40091 0.0
C794 C 0.43764 0.59411 0.48859 0.0
C795 C 0.39266 0.57694 0.37533 0.0
C796 C 0.47084 0.64381 0.6105 0.0
C797 C 0.46326 0.63572 0.57105 0.0
C798 C 0.42117 0.62538 0.51231 0.0
C799 C 0.41169 0.58445 0.44138 0.0
C800 C 0.42103 0.59768 0.47018 0.0
C801 C 0.44522 0.63278 0.56951 0.0
C802 C 0.4375 0.6215 0.53215 0.0
H803 H 0.40235 0.54113 0.44207 0.0
H804 H 0.41883 0.56274 0.48674 0.0
H805 H 0.4002 0.6167 0.46814 0.0
H806 H 0.43405 0.65123 0.67537 0.0
H807 H 0.42088 0.63708 0.60679 0.0
C808 C 0.86199 0.0665 0.85666 0.0
C809 C 0.85845 0.04856 0.85575 0.0
C810 C 0.86924 0.0742 0.8971 0.0
C811 C 0.89698 0.06256 0.99813 0.0
H812 H 0.88795 0.11008 0.0374 0.0
C813 C 0.93658 0.09626 0.14704 0.0
C814 C 0.94217 0.11326 0.13676 0.0
C815 C 0.92433 0.08802 0.11792 0.0
C816 C 0.89065 0.09681 0.02671 0.0
H817 H 0.85862 0.02487 0.8978 0.0
H818 H 0.87109 0.03838 0.9686 0.0
H819 H 0.86912 0.09633 0.97839 0.0
H820 H 0.93917 0.135 0.08809 0.0
H821 H 0.91803 0.12058 0.03718 0.0
H822 H 0.91875 0.06316 0.04553 0.0
C823 C 0.86856 0.04642 0.93767 0.0
C824 C 0.87986 0.08893 0.99298 0.0
C825 C 0.86131 0.03871 0.89719 0.0
C826 C 0.93516 0.12189 0.09702 0.0
C827 C 0.92291 0.11368 0.06805 0.0
C828 C 0.90775 0.07042 0.03189 0.0
C829 C 0.87307 0.06415 0.93758 0.0
C830 C 0.88311 0.07183 0.97761 0.0
C831 C 0.91739 0.09664 0.07806 0.0
C832 C 0.90492 0.08775 0.04583 0.0
H833 H 0.85992 0.07449 0.8254 0.0
H834 H 0.87267 0.08786 0.89565 0.0
H835 H 0.90002 0.04946 0.98657 0.0
H836 H 0.94167 0.08929 0.17752 0.0
H837 H 0.92023 0.07493 0.12675 0.0
C838 C 0.39683 0.95471 0.588 0.0
C839 C 0.38224 0.94898 0.61364 0.0
C840 C 0.40657 0.943 0.56096 0.0
C841 C 0.40428 0.90378 0.49211 0.0
H842 H 0.45419 0.90161 0.51113 0.0
C843 C 0.44853 0.86424 0.36534 0.0
C844 C 0.46379 0.87288 0.35126 0.0
C845 C 0.43868 0.87049 0.40373 0.0
C846 C 0.44029 0.90212 0.50509 0.0
H847 H 0.36617 0.92661 0.63049 0.0
H848 H 0.38301 0.90617 0.58156 0.0
H849 H 0.43634 0.91906 0.56474 0.0
H850 H 0.48102 0.89446 0.36755 0.0
H851 H 0.46382 0.90552 0.43281 0.0
H852 H 0.40824 0.88778 0.43072 0.0
C853 C 0.38696 0.91969 0.58319 0.0
C854 C 0.4301 0.91204 0.53597 0.0
C855 C 0.3774 0.93135 0.61113 0.0
C856 C 0.46934 0.88745 0.37737 0.0
C857 C 0.4595 0.89373 0.41528 0.0
C858 C 0.41452 0.89408 0.46061 0.0
C859 C 0.40172 0.92542 0.55832 0.0
C860 C 0.41208 0.91326 0.52909 0.0
C861 C 0.4439 0.88552 0.4286 0.0
C862 C 0.43272 0.89351 0.46599 0.0
H863 H 0.4009 0.96819 0.58943 0.0
H864 H 0.41783 0.94771 0.54167 0.0
H865 H 0.39039 0.9046 0.48613 0.0
H866 H 0.44394 0.85294 0.34602 0.0
H867 H 0.42686 0.8637 0.41341 0.0
C868 C 0.56283 0.38971 0.11427 0.0
C869 C 0.55639 0.37394 0.09596 0.0
C870 C 0.57527 0.39925 0.08905 0.0
C871 C 0.60876 0.39517 0.99585 0.0
H872 H 0.60093 0.44451 0.97675 0.0
C873 C 0.64051 0.43401 0.84415 0.0
C874 C 0.64374 0.45187 0.85028 0.0
C875 C 0.63276 0.4243 0.88041 0.0
C876 C 0.60358 0.43084 0.98255 0.0
H877 H 0.55807 0.35577 0.03698 0.0
H878 H 0.57976 0.37243 0.99302 0.0
H879 H 0.58133 0.42804 0.02771 0.0
H880 H 0.64265 0.47323 0.90071 0.0
H881 H 0.62947 0.45618 0.96447 0.0
H882 H 0.63091 0.39789 0.9503 0.0
C883 C 0.57526 0.37735 0.02703 0.0
C884 C 0.59227 0.42139 0.01162 0.0
C885 C 0.56272 0.36788 0.05203 0.0
C886 C 0.64018 0.45953 0.89468 0.0
C887 C 0.6325 0.44979 0.9311 0.0
C888 C 0.62016 0.40465 0.96704 0.0
C889 C 0.58164 0.39313 0.04524 0.0
C890 C 0.59454 0.4034 0.01778 0.0
C891 C 0.62817 0.4322 0.92382 0.0
C892 C 0.6175 0.42253 0.95922 0.0
H893 H 0.55826 0.39472 0.1481 0.0
H894 H 0.58003 0.41133 0.10405 0.0
H895 H 0.61098 0.38136 0.00064 0.0
H896 H 0.64311 0.42767 0.81043 0.0
H897 H 0.62949 0.41085 0.87329 0.0
C898 C 0.12223 0.56788 0.59939 0.0
C899 C 0.13789 0.55969 0.5865 0.0
C900 C 0.11431 0.57979 0.56869 0.0
C901 C 0.12328 0.60898 0.46753 0.0
H902 H 0.07374 0.60514 0.44415 0.0
C903 C 0.089 0.64203 0.30858 0.0
C904 C 0.07165 0.64741 0.31397 0.0
C905 C 0.09758 0.63344 0.34561 0.0
C906 C 0.08753 0.60665 0.45091 0.0
H907 H 0.15755 0.55766 0.53132 0.0
H908 H 0.14369 0.57842 0.47774 0.0
H909 H 0.08758 0.58569 0.50108 0.0
H910 H 0.05009 0.6491 0.3636 0.0
H911 H 0.0652 0.63453 0.4286 0.0
H912 H 0.12326 0.62989 0.41718 0.0
C913 C 0.13761 0.57571 0.51175 0.0
C914 C 0.09546 0.59544 0.48344 0.0
C915 C 0.14548 0.56371 0.5423 0.0
C916 C 0.06341 0.64497 0.35815 0.0
C917 C 0.07203 0.63649 0.39529 0.0
C918 C 0.11533 0.62028 0.43516 0.0
C919 C 0.12194 0.58387 0.52461 0.0
C920 C 0.11344 0.59635 0.49171 0.0
C921 C 0.08904 0.63016 0.389 0.0
C922 C 0.09737 0.61913 0.42607 0.0
H923 H 0.11607 0.56512 0.63326 0.0
H924 H 0.10231 0.58598 0.57971 0.0
H925 H 0.13713 0.61015 0.47371 0.0
H926 H 0.09572 0.64367 0.27497 0.0
H927 H 0.11062 0.62863 0.33931 0.0
C928 C 0.8936 0.52777 0.33893 0.0
C929 C 0.88381 0.52019 0.30218 0.0
C930 C 0.90481 0.54165 0.3294 0.0
C931 C 0.91559 0.57507 0.23795 0.0
H932 H 0.96053 0.57471 0.30055 0.0
C933 C 0.97497 0.61511 0.17398 0.0
C934 C 0.98505 0.6233 0.20918 0.0
C935 C 0.96139 0.60394 0.18677 0.0
C936 C 0.94795 0.57511 0.28322 0.0
H937 H 0.87793 0.52134 0.22666 0.0
H938 H 0.89779 0.54518 0.20981 0.0
H939 H 0.93916 0.55253 0.32039 0.0
H940 H 0.98851 0.62657 0.2854 0.0
H941 H 0.9649 0.607 0.30756 0.0
H942 H 0.92475 0.59741 0.1997 0.0
C943 C 0.89657 0.54071 0.24623 0.0
C944 C 0.93566 0.56242 0.29468 0.0
C945 C 0.88525 0.52695 0.25584 0.0
C946 C 0.98102 0.62043 0.25739 0.0
C947 C 0.96756 0.60916 0.27013 0.0
C948 C 0.92797 0.58768 0.22617 0.0
C949 C 0.9066 0.54816 0.28281 0.0
C950 C 0.91935 0.56218 0.27202 0.0
C951 C 0.95775 0.60065 0.23498 0.0
C952 C 0.9443 0.58777 0.24857 0.0
H953 H 0.89267 0.52295 0.37509 0.0
H954 H 0.9121 0.54727 0.35861 0.0
H955 H 0.90306 0.57545 0.22037 0.0
H956 H 0.97772 0.61709 0.13654 0.0
H957 H 0.9541 0.59746 0.15893 0.0
C958 C 0.89846 0.98426 0.65957 0.0
C959 C 0.89019 0.99366 0.69599 0.0
C960 C 0.91004 0.97082 0.67062 0.0
C961 C 0.92446 0.9422 0.77045 0.0
H962 H 0.96617 0.93765 0.69382 0.0
C963 C 0.98556 0.90401 0.83012 0.0
C964 C 0.99308 0.89287 0.7962 0.0
C965 C 0.97207 0.91526 0.81721 0.0
C966 C 0.9545 0.93867 0.71524 0.0
H967 H 0.88752 0.99633 0.77257 0.0
H968 H 0.90805 0.97338 0.79184 0.0
H969 H 0.94433 0.95922 0.67226 0.0
H970 H 0.99231 0.88471 0.7222 0.0
H971 H 0.96893 0.90455 0.69964 0.0
H972 H 0.93506 0.92199 0.81434 0.0
C973 C 0.90531 0.97598 0.7547 0.0
C974 C 0.94192 0.95098 0.70281 0.0
C975 C 0.89359 0.98925 0.74364 0.0
C976 C 0.98677 0.89312 0.7492 0.0
C977 C 0.97345 0.90452 0.73618 0.0
C978 C 0.93715 0.93005 0.78321 0.0
C979 C 0.91376 0.96663 0.71836 0.0
C980 C 0.92677 0.95297 0.73039 0.0
C981 C 0.96602 0.91573 0.77001 0.0
C982 C 0.95231 0.92823 0.75582 0.0
H983 H 0.896 0.98727 0.62249 0.0
H984 H 0.91606 0.9637 0.64169 0.0
H985 H 0.91282 0.94312 0.79202 0.0
H986 H 0.99012 0.9041 0.86661 0.0
H987 H 0.96663 0.92387 0.84389 0.0
C988 C 0.53045 0.88776 0.23531 0.0
C989 C 0.52448 0.88472 0.18875 0.0
C990 C 0.54413 0.89928 0.2437 0.0
C991 C 0.56657 0.93671 0.18875 0.0
H992 H 0.59794 0.9305 0.29559 0.0
C993 C 0.62103 0.98581 0.23509 0.0
C994 C 0.62108 0.99141 0.28278 0.0
C995 C 0.6109 0.97161 0.22115 0.0
C996 C 0.58925 0.93238 0.26567 0.0
H997 H 0.52869 0.8908 0.11424 0.0
H998 H 0.55296 0.91059 0.12876 0.0
H999 H 0.57786 0.90721 0.27413 0.0
H1000 H 0.61091 0.98627 0.35343 0.0
H1001 H 0.59339 0.96128 0.32911 0.0
H1002 H 0.57811 0.9619 0.18036 0.0
C1003 C 0.54675 0.9044 0.15894 0.0
C1004 C 0.5777 0.91909 0.25342 0.0
C1005 C 0.53292 0.89297 0.15056 0.0
C1006 C 0.6111 0.98229 0.31642 0.0
C1007 C 0.60116 0.96793 0.30259 0.0
C1008 C 0.57829 0.94991 0.20065 0.0
C1009 C 0.55234 0.90792 0.20572 0.0
C1010 C 0.56594 0.92123 0.21544 0.0
C1011 C 0.60083 0.96257 0.25475 0.0
C1012 C 0.58949 0.948 0.23978 0.0
H1013 H 0.52422 0.88167 0.26562 0.0
H1014 H 0.54781 0.90185 0.28024 0.0
H1015 H 0.55757 0.93897 0.15977 0.0
H1016 H 0.62856 0.99259 0.20829 0.0
H1017 H 0.61093 0.96767 0.1841 0.0
C1018 C 0.60818 0.51511 0.75162 0.0
C1019 C 0.61082 0.51078 0.70355 0.0
C1020 C 0.59626 0.52804 0.76429 0.0
C1021 C 0.55825 0.55222 0.71651 0.0
H1022 H 0.56639 0.58203 0.82575 0.0
C1023 C 0.51522 0.61153 0.7601 0.0
C1024 C 0.50907 0.61256 0.80717 0.0
C1025 C 0.5281 0.59954 0.74782 0.0
C1026 C 0.56393 0.57371 0.79533 0.0
H1027 H 0.60349 0.51695 0.63096 0.0
H1028 H 0.58319 0.53992 0.65282 0.0
H1029 H 0.58836 0.56069 0.8027 0.0
H1030 H 0.51186 0.60209 0.87849 0.0
H1031 H 0.53466 0.58127 0.857 0.0
H1032 H 0.53397 0.56558 0.70868 0.0
C1033 C 0.58988 0.53299 0.68095 0.0
C1034 C 0.57647 0.56144 0.78217 0.0
C1035 C 0.60161 0.51989 0.66834 0.0
C1036 C 0.51631 0.60157 0.84192 0.0
C1037 C 0.5294 0.58973 0.82971 0.0
C1038 C 0.54585 0.56464 0.72929 0.0
C1039 C 0.58688 0.5371 0.72913 0.0
C1040 C 0.57376 0.55047 0.74266 0.0
C1041 C 0.53526 0.58849 0.78244 0.0
C1042 C 0.54854 0.57546 0.76889 0.0
H1043 H 0.615 0.50823 0.77962 0.0
H1044 H 0.59413 0.53061 0.80175 0.0
H1045 H 0.55549 0.54378 0.68655 0.0
H1046 H 0.50989 0.6198 0.73246 0.0
H1047 H 0.53251 0.59894 0.7112 0.0
C1048 C 0.11939 0.4727 0.6497 0.0
C1049 C 0.1258 0.48234 0.68846 0.0
C1050 C 0.10803 0.45875 0.6572 0.0
C1051 C 0.07596 0.44344 0.74423 0.0
H1052 H 0.07754 0.40032 0.67266 0.0
C1053 C 0.02713 0.38857 0.78111 0.0
C1054 C 0.01974 0.38042 0.74114 0.0
C1055 C 0.04156 0.39944 0.77609 0.0
C1056 C 0.07686 0.41234 0.69268 0.0
H1057 H 0.12594 0.48438 0.76559 0.0
H1058 H 0.10625 0.46006 0.77853 0.0
H1059 H 0.10021 0.4222 0.6608 0.0
H1060 H 0.02206 0.37687 0.66474 0.0
H1061 H 0.04702 0.39611 0.65586 0.0
H1062 H 0.05247 0.43392 0.77532 0.0
C1063 C 0.10978 0.46344 0.74234 0.0
C1064 C 0.08984 0.42485 0.6859 0.0
C1065 C 0.12113 0.47733 0.73489 0.0
C1066 C 0.02744 0.38295 0.69627 0.0
C1067 C 0.04183 0.39391 0.69121 0.0
C1068 C 0.06297 0.43101 0.75085 0.0
C1069 C 0.10284 0.4542 0.70358 0.0
C1070 C 0.08949 0.44056 0.71155 0.0
C1071 C 0.04889 0.40251 0.73096 0.0
C1072 C 0.06321 0.41533 0.72508 0.0
H1073 H 0.12277 0.4762 0.6135 0.0
H1074 H 0.10281 0.45194 0.6266 0.0
H1075 H 0.07513 0.45555 0.76387 0.0
H1076 H 0.02161 0.38677 0.81626 0.0
H1077 H 0.04688 0.40559 0.80759 0.0
C1078 C 0.0327 0.12458 0.28541 0.0
C1079 C 0.02439 0.12736 0.24148 0.0
C1080 C 0.04658 0.11292 0.28894 0.0
C1081 C 0.07964 0.08917 0.21924 0.0
H1082 H 0.07584 0.05475 0.31967 0.0
C1083 C 0.11781 0.02465 0.21594 0.0
C1084 C 0.12338 0.01741 0.25928 0.0
C1085 C 0.10748 0.03959 0.21542 0.0
C1086 C 0.07734 0.06443 0.29196 0.0
H1087 H 0.0246 0.12063 0.16642 0.0
H1088 H 0.04888 0.10033 0.17263 0.0
H1089 H 0.05495 0.07848 0.31579 0.0
H1090 H 0.12302 0.02056 0.33604 0.0
H1091 H 0.10531 0.04687 0.33512 0.0
H1092 H 0.10198 0.07507 0.1952 0.0
C1093 C 0.04466 0.10719 0.2043 0.0
C1094 C 0.06532 0.07802 0.2897 0.0
C1095 C 0.03069 0.11875 0.20082 0.0
C1096 C 0.11881 0.02573 0.30206 0.0
C1097 C 0.10858 0.04077 0.30153 0.0
C1098 C 0.09176 0.07564 0.22169 0.0
C1099 C 0.05254 0.10392 0.24855 0.0
C1100 C 0.06619 0.09039 0.25295 0.0
C1101 C 0.10258 0.04775 0.25823 0.0
C1102 C 0.0906 0.06294 0.25767 0.0
H1103 H 0.0282 0.13105 0.3174 0.0
H1104 H 0.05253 0.11078 0.32341 0.0
H1105 H 0.08074 0.09865 0.19085 0.0
H1106 H 0.12106 0.01853 0.18233 0.0
H1107 H 0.1029 0.04443 0.18145 0.0
C1108 C 0.38704 0.02455 0.73706 0.0
C1109 C 0.39299 0.00726 0.739 0.0
C1110 C 0.3989 0.03838 0.73702 0.0
C1111 C 0.44399 0.04877 0.70653 0.0
H1112 H 0.44007 0.08654 0.79754 0.0
C1113 C 0.50175 0.09319 0.74763 0.0
C1114 C 0.4988 0.11095 0.75612 0.0
C1115 C 0.48784 0.08167 0.74314 0.0
C1116 C 0.4412 0.07626 0.77132 0.0
H1117 H 0.41598 0.99091 0.74221 0.0
H1118 H 0.43656 0.01497 0.74151 0.0
H1119 H 0.41724 0.06442 0.79337 0.0
H1120 H 0.4789 0.13059 0.76657 0.0
H1121 H 0.45449 0.11045 0.75785 0.0
H1122 H 0.46783 0.06045 0.68421 0.0
C1123 C 0.42277 0.01784 0.74007 0.0
C1124 C 0.42814 0.0636 0.76905 0.0
C1125 C 0.41097 0.00407 0.74078 0.0
C1126 C 0.48159 0.11695 0.76014 0.0
C1127 C 0.46761 0.1054 0.75535 0.0
C1128 C 0.45692 0.06147 0.70845 0.0
C1129 C 0.41688 0.03511 0.73811 0.0
C1130 C 0.42964 0.04953 0.73736 0.0
C1131 C 0.47059 0.08762 0.74661 0.0
C1132 C 0.45592 0.07514 0.74165 0.0
H1133 H 0.37325 0.02739 0.73575 0.0
H1134 H 0.39405 0.0516 0.7354 0.0
H1135 H 0.4453 0.03821 0.6812 0.0
H1136 H 0.51484 0.08809 0.74473 0.0
H1137 H 0.49065 0.06801 0.73753 0.0
C1138 C 0.47167 0.38628 0.23247 0.0
C1139 C 0.47493 0.37849 0.18805 0.0
C1140 C 0.45745 0.39734 0.23868 0.0
C1141 C 0.42818 0.42586 0.17058 0.0
H1142 H 0.40323 0.42828 0.29049 0.0
C1143 C 0.37328 0.47573 0.20302 0.0
C1144 C 0.37462 0.48514 0.24582 0.0
C1145 C 0.38349 0.46093 0.19543 0.0
C1146 C 0.41012 0.42777 0.25685 0.0
H1147 H 0.46542 0.37575 0.11571 0.0
H1148 H 0.44042 0.39492 0.12674 0.0
H1149 H 0.42459 0.40525 0.27771 0.0
H1150 H 0.38729 0.48606 0.31482 0.0
H1151 H 0.40507 0.46025 0.30153 0.0
H1152 H 0.41387 0.44853 0.15002 0.0
C1153 C 0.44906 0.39268 0.15657 0.0
C1154 C 0.42236 0.41461 0.24953 0.0
C1155 C 0.46334 0.38162 0.15031 0.0
C1156 C 0.38597 0.47912 0.28142 0.0
C1157 C 0.39608 0.46427 0.27394 0.0
C1158 C 0.41587 0.43898 0.17783 0.0
C1159 C 0.44608 0.40085 0.20068 0.0
C1160 C 0.43179 0.41369 0.20665 0.0
C1161 C 0.39513 0.45516 0.2306 0.0
C1162 C 0.40694 0.44026 0.22137 0.0
H1163 H 0.48034 0.38417 0.26232 0.0
H1164 H 0.45573 0.40359 0.27292 0.0
H1165 H 0.43536 0.42571 0.1374 0.0
H1166 H 0.36463 0.48 0.17491 0.0
H1167 H 0.38236 0.45407 0.16186 0.0
loop_
_geom_bond_atom_site_label_1
_geom_bond_atom_site_label_2
_geom_bond_distance
_geom_bond_site_symmetry_2
_ccdc_geom_bond_type
C0 O1 1.160 . S
C0 O7 1.185 . S
O1 C0 1.160 . S
O2 Zn3 1.899 . S
O2 C10 1.284 . S
Zn3 O2 1.899 . S
Zn3 O4 2.032 . S
Zn3 O7 2.086 . S
Zn3 O12 1.977 . S
O4 Zn3 2.032 . S
O4 C8 1.278 . S
C5 O6 1.203 . S
C5 O12 1.267 . S
O6 C5 1.203 . S
O7 C0 1.185 . S
O7 Zn3 2.086 . S
C8 O4 1.278 . S
C8 O9 1.211 . S
O9 C8 1.211 . S
C10 O2 1.284 . S
C10 O11 1.273 . S
O11 C10 1.273 . S
O12 Zn3 1.977 . S
O12 C5 1.267 . S
C13 O14 1.160 . S
C13 O20 1.185 . S
O14 C13 1.160 . S
O15 Zn16 1.899 . S
O15 C23 1.284 . S
Zn16 O15 1.899 . S
Zn16 O17 2.032 . S
Zn16 O20 2.086 . S
Zn16 O25 1.977 . S
O17 Zn16 2.032 . S
O17 C21 1.278 . S
C18 O19 1.203 . S
C18 O25 1.267 . S
O19 C18 1.203 . S
O20 C13 1.185 . S
O20 Zn16 2.086 . S
C21 O17 1.278 . S
C21 O22 1.211 . S
O22 C21 1.211 . S
C23 O15 1.284 . S
C23 O24 1.273 . S
O24 C23 1.273 . S
O25 Zn16 1.977 . S
O25 C18 1.267 . S
C26 O27 1.160 . S
C26 O33 1.185 . S
O27 C26 1.160 . S
O28 Zn29 1.899 . S
O28 C36 1.284 . S
Zn29 O28 1.899 . S
Zn29 O30 2.032 . S
Zn29 O33 2.086 . S
Zn29 O38 1.977 . S
O30 Zn29 2.032 . S
O30 C34 1.278 . S
C31 O32 1.203 . S
C31 O38 1.267 . S
O32 C31 1.203 . S
O33 C26 1.185 . S
O33 Zn29 2.086 . S
C34 O30 1.278 . S
C34 O35 1.211 . S
O35 C34 1.211 . S
C36 O28 1.284 . S
C36 O37 1.273 . S
O37 C36 1.273 . S
O38 Zn29 1.977 . S
O38 C31 1.267 . S
C39 O40 1.160 . S
C39 O46 1.185 . S
O40 C39 1.160 . S
O41 Zn42 1.899 . S
O41 C49 1.284 . S
Zn42 O41 1.899 . S
Zn42 O43 2.032 . S
Zn42 O46 2.086 . S
Zn42 O51 1.977 . S
O43 Zn42 2.032 . S
O43 C47 1.278 . S
C44 O45 1.203 . S
C44 O51 1.267 . S
O45 C44 1.203 . S
O46 C39 1.185 . S
O46 Zn42 2.086 . S
C47 O43 1.278 . S
C47 O48 1.211 . S
O48 C47 1.211 . S
C49 O41 1.284 . S
C49 O50 1.273 . S
O50 C49 1.273 . S
O51 Zn42 1.977 . S
O51 C44 1.267 . S
C52 O53 1.160 . S
C52 O59 1.185 . S
O53 C52 1.160 . S
O54 Zn55 1.899 . S
O54 C62 1.284 . S
Zn55 O54 1.899 . S
Zn55 O56 2.032 . S
Zn55 O59 2.086 . S
Zn55 O64 1.977 . S
O56 Zn55 2.032 . S
O56 C60 1.278 . S
C57 O58 1.203 . S
C57 O64 1.267 . S
O58 C57 1.203 . S
O59 C52 1.185 . S
O59 Zn55 2.086 . S
C60 O56 1.278 . S
C60 O61 1.211 . S
O61 C60 1.211 . S
C62 O54 1.284 . S
C62 O63 1.273 . S
O63 C62 1.273 . S
O64 Zn55 1.977 . S
O64 C57 1.267 . S
C65 O66 1.160 . S
C65 O72 1.185 . S
O66 C65 1.160 . S
O67 Zn68 1.899 . S
O67 C75 1.284 . S
Zn68 O67 1.899 . S
Zn68 O69 2.032 . S
Zn68 O72 2.086 . S
Zn68 O77 1.977 . S
O69 Zn68 2.032 . S
O69 C73 1.278 . S
C70 O71 1.203 . S
C70 O77 1.267 . S
O71 C70 1.203 . S
O72 C65 1.185 . S
O72 Zn68 2.086 . S
C73 O69 1.278 . S
C73 O74 1.211 . S
O74 C73 1.211 . S
C75 O67 1.284 . S
C75 O76 1.273 . S
O76 C75 1.273 . S
O77 Zn68 1.977 . S
O77 C70 1.267 . S
C78 O79 1.160 . S
C78 O85 1.185 . S
O79 C78 1.160 . S
O80 Zn81 1.899 . S
O80 C88 1.284 . S
Zn81 O80 1.899 . S
Zn81 O82 2.032 . S
Zn81 O85 2.086 . S
Zn81 O90 1.977 . S
O82 Zn81 2.032 . S
O82 C86 1.278 . S
C83 O84 1.203 . S
C83 O90 1.267 . S
O84 C83 1.203 . S
O85 C78 1.185 . S
O85 Zn81 2.086 . S
C86 O82 1.278 . S
C86 O87 1.211 . S
O87 C86 1.211 . S
C88 O80 1.284 . S
C88 O89 1.273 . S
O89 C88 1.273 . S
O90 Zn81 1.977 . S
O90 C83 1.267 . S
C91 O92 1.160 . S
C91 O98 1.185 . S
O92 C91 1.160 . S
O93 Zn94 1.899 . S
O93 C101 1.284 . S
Zn94 O93 1.899 . S
Zn94 O95 2.032 . S
Zn94 O98 2.086 . S
Zn94 O103 1.977 . S
O95 Zn94 2.032 . S
O95 C99 1.278 . S
C96 O97 1.203 . S
C96 O103 1.267 . S
O97 C96 1.203 . S
O98 C91 1.185 . S
O98 Zn94 2.086 . S
C99 O95 1.278 . S
C99 O100 1.211 . S
O100 C99 1.211 . S
C101 O93 1.284 . S
C101 O102 1.273 . S
O102 C101 1.273 . S
O103 Zn94 1.977 . S
O103 C96 1.267 . S
C104 O105 1.160 . S
C104 O111 1.185 . S
O105 C104 1.160 . S
O106 Zn107 1.899 . S
O106 C114 1.284 . S
Zn107 O106 1.899 . S
Zn107 O108 2.032 . S
Zn107 O111 2.086 . S
Zn107 O116 1.977 1_655 S
O108 Zn107 2.032 . S
O108 C112 1.278 . S
C109 O110 1.203 1_455 S
C109 O116 1.267 . S
O110 C109 1.203 1_655 S
O111 C104 1.185 . S
O111 Zn107 2.086 . S
C112 O108 1.278 . S
C112 O113 1.211 . S
O113 C112 1.211 . S
C114 O106 1.284 . S
C114 O115 1.273 . S
O115 C114 1.273 . S
O116 Zn107 1.977 1_455 S
O116 C109 1.267 . S
C117 O118 1.160 . S
C117 O124 1.185 . S
O118 C117 1.160 . S
O119 Zn120 1.899 . S
O119 C127 1.284 . S
Zn120 O119 1.899 . S
Zn120 O121 2.032 . S
Zn120 O124 2.086 . S
Zn120 O129 1.977 1_565 S
O121 Zn120 2.032 . S
O121 C125 1.278 . S
C122 O123 1.203 1_545 S
C122 O129 1.267 . S
O123 C122 1.203 1_565 S
O124 C117 1.185 . S
O124 Zn120 2.086 . S
C125 O121 1.278 . S
C125 O126 1.211 . S
O126 C125 1.211 . S
C127 O119 1.284 . S
C127 O128 1.273 . S
O128 C127 1.273 . S
O129 Zn120 1.977 1_545 S
O129 C122 1.267 . S
C130 O131 1.160 . S
C130 O137 1.185 . S
O131 C130 1.160 . S
O132 Zn133 1.899 . S
O132 C140 1.284 . S
Zn133 O132 1.899 . S
Zn133 O134 2.032 . S
Zn133 O137 2.086 . S
Zn133 O142 1.977 . S
O134 Zn133 2.032 . S
O134 C138 1.278 . S
C135 O136 1.203 . S
C135 O142 1.267 . S
O136 C135 1.203 . S
O137 C130 1.185 . S
O137 Zn133 2.086 . S
C138 O134 1.278 . S
C138 O139 1.211 . S
O139 C138 1.211 . S
C140 O132 1.284 . S
C140 O141 1.273 . S
O141 C140 1.273 . S
O142 Zn133 1.977 . S
O142 C135 1.267 . S
C143 O144 1.160 . S
C143 O150 1.185 . S
O144 C143 1.160 . S
O145 Zn146 1.899 . S
O145 C153 1.284 . S
Zn146 O145 1.899 . S
Zn146 O147 2.032 . S
Zn146 O150 2.086 . S
Zn146 O155 1.977 . S
O147 Zn146 2.032 . S
O147 C151 1.278 . S
C148 O149 1.203 . S
C148 O155 1.267 . S
O149 C148 1.203 . S
O150 C143 1.185 . S
O150 Zn146 2.086 . S
C151 O147 1.278 . S
C151 O152 1.211 . S
O152 C151 1.211 . S
C153 O145 1.284 . S
C153 O154 1.273 . S
O154 C153 1.273 . S
O155 Zn146 1.977 . S
O155 C148 1.267 . S
C156 O157 1.160 . S
C156 O163 1.185 . S
O157 C156 1.160 . S
O158 Zn159 1.899 . S
O158 C166 1.284 . S
Zn159 O158 1.899 . S
Zn159 O160 2.032 . S
Zn159 O163 2.086 . S
Zn159 O168 1.977 1_655 S
O160 Zn159 2.032 . S
O160 C164 1.278 . S
C161 O162 1.203 1_455 S
C161 O168 1.267 . S
O162 C161 1.203 1_655 S
O163 C156 1.185 . S
O163 Zn159 2.086 . S
C164 O160 1.278 . S
C164 O165 1.211 . S
O165 C164 1.211 . S
C166 O158 1.284 . S
C166 O167 1.273 . S
O167 C166 1.273 . S
O168 Zn159 1.977 1_455 S
O168 C161 1.267 . S
C169 O170 1.160 . S
C169 O176 1.185 . S
O170 C169 1.160 . S
O171 Zn172 1.899 . S
O171 C179 1.284 . S
Zn172 O171 1.899 . S
Zn172 O173 2.032 . S
Zn172 O176 2.086 . S
Zn172 O181 1.977 1_565 S
O173 Zn172 2.032 . S
O173 C177 1.278 . S
C174 O175 1.203 1_545 S
C174 O181 1.267 . S
O175 C174 1.203 1_565 S
O176 C169 1.185 . S
O176 Zn172 2.086 . S
C177 O173 1.278 . S
C177 O178 1.211 . S
O178 C177 1.211 . S
C179 O171 1.284 . S
C179 O180 1.273 . S
O180 C179 1.273 . S
O181 Zn172 1.977 1_545 S
O181 C174 1.267 . S
C182 O183 1.160 . S
C182 O189 1.185 . S
O183 C182 1.160 . S
O184 Zn185 1.899 . S
O184 C192 1.284 . S
Zn185 O184 1.899 . S
Zn185 O186 2.032 . S
Zn185 O189 2.086 . S
Zn185 O194 1.977 . S
O186 Zn185 2.032 . S
O186 C190 1.278 . S
C187 O188 1.203 . S
C187 O194 1.267 . S
O188 C187 1.203 . S
O189 C182 1.185 . S
O189 Zn185 2.086 . S
C190 O186 1.278 . S
C190 O191 1.211 . S
O191 C190 1.211 . S
C192 O184 1.284 . S
C192 O193 1.273 . S
O193 C192 1.273 . S
O194 Zn185 1.977 . S
O194 C187 1.267 . S
C195 O196 1.160 . S
C195 O202 1.185 . S
O196 C195 1.160 . S
O197 Zn198 1.899 . S
O197 C205 1.284 . S
Zn198 O197 1.899 . S
Zn198 O199 2.032 . S
Zn198 O202 2.086 . S
Zn198 O207 1.977 . S
O199 Zn198 2.032 . S
O199 C203 1.278 . S
C200 O201 1.203 . S
C200 O207 1.267 . S
O201 C200 1.203 . S
O202 C195 1.185 . S
O202 Zn198 2.086 . S
C203 O199 1.278 . S
C203 O204 1.211 . S
O204 C203 1.211 . S
C205 O197 1.284 . S
C205 O206 1.273 . S
O206 C205 1.273 . S
O207 Zn198 1.977 . S
O207 C200 1.267 . S
C208 C209 1.349 . S
C208 C210 1.327 . S
C208 H233 0.950 . S
C209 C208 1.349 . S
C209 C225 1.349 . S
C210 C208 1.327 . S
C210 C229 1.429 . S
C210 H234 0.950 . S
C211 C228 1.574 . S
C211 C230 1.368 1_556 S
C211 H235 0.949 . S
H212 C216 0.949 . S
C213 C214 1.349 . S
C213 C215 1.327 . S
C213 H236 0.950 . S
C214 C213 1.349 . S
C214 C226 1.349 . S
C215 C213 1.327 . S
C215 C231 1.429 . S
C215 H237 0.950 . S
C216 H212 0.949 . S
C216 C224 1.574 . S
C216 C232 1.368 1_554 S
H217 C225 0.950 . S
H218 C223 0.950 1_556 S
H219 C224 0.949 . S
H220 C226 0.950 . S
H221 C227 0.950 1_554 S
H222 C228 0.949 . S
C223 H218 0.950 1_554 S
C223 C225 1.327 . S
C223 C229 1.429 . S
C224 C216 1.574 . S
C224 H219 0.949 . S
C224 C230 1.368 . S
C225 C209 1.349 . S
C225 H217 0.950 . S
C225 C223 1.327 . S
C226 C214 1.349 . S
C226 H220 0.950 . S
C226 C227 1.327 . S
C227 H221 0.950 1_556 S
C227 C226 1.327 . S
C227 C231 1.429 . S
C228 C211 1.574 . S
C228 H222 0.949 . S
C228 C232 1.368 . S
C229 C210 1.429 . S
C229 C223 1.429 . S
C229 C230 1.523 . S
C230 C211 1.368 1_554 S
C230 C224 1.368 . S
C230 C229 1.523 . S
C231 C215 1.429 . S
C231 C227 1.429 . S
C231 C232 1.523 . S
C232 C216 1.368 1_556 S
C232 C228 1.368 . S
C232 C231 1.523 . S
H233 C208 0.950 . S
H234 C210 0.950 . S
H235 C211 0.949 . S
H236 C213 0.950 . S
H237 C215 0.950 . S
C238 C239 1.349 . S
C238 C240 1.327 . S
C238 H263 0.950 . S
C239 C238 1.349 . S
C239 C255 1.349 . S
C240 C238 1.327 . S
C240 C259 1.429 . S
C240 H264 0.950 . S
C241 C258 1.574 . S
C241 C260 1.368 . S
C241 H265 0.949 . S
H242 C246 0.949 . S
C243 C244 1.349 . S
C243 C245 1.327 . S
C243 H266 0.950 . S
C244 C243 1.349 . S
C244 C256 1.349 . S
C245 C243 1.327 . S
C245 C261 1.429 . S
C245 H267 0.950 . S
C246 H242 0.949 . S
C246 C254 1.574 . S
C246 C262 1.368 . S
H247 C255 0.950 . S
H248 C253 0.950 . S
H249 C254 0.949 . S
H250 C256 0.950 . S
H251 C257 0.950 . S
H252 C258 0.949 . S
C253 H248 0.950 . S
C253 C255 1.327 . S
C253 C259 1.429 . S
C254 C246 1.574 . S
C254 H249 0.949 . S
C254 C260 1.368 . S
C255 C239 1.349 . S
C255 H247 0.950 . S
C255 C253 1.327 . S
C256 C244 1.349 . S
C256 H250 0.950 . S
C256 C257 1.327 . S
C257 H251 0.950 . S
C257 C256 1.327 . S
C257 C261 1.429 . S
C258 C241 1.574 . S
C258 H252 0.949 . S
C258 C262 1.368 . S
C259 C240 1.429 . S
C259 C253 1.429 . S
C259 C260 1.523 . S
C260 C241 1.368 . S
C260 C254 1.368 . S
C260 C259 1.523 . S
C261 C245 1.429 . S
C261 C257 1.429 . S
C261 C262 1.523 . S
C262 C246 1.368 . S
C262 C258 1.368 . S
C262 C261 1.523 . S
H263 C238 0.950 . S
H264 C240 0.950 . S
H265 C241 0.949 . S
H266 C243 0.950 . S
H267 C245 0.950 . S
C268 C269 1.349 . S
C268 C270 1.327 . S
C268 H293 0.950 . S
C269 C268 1.349 . S
C269 C285 1.349 . S
C270 C268 1.327 . S
C270 C289 1.429 . S
C270 H294 0.950 . S
C271 C288 1.574 . S
C271 C290 1.368 . S
C271 H295 0.949 . S
H272 C276 0.949 . S
C273 C274 1.349 . S
C273 C275 1.327 . S
C273 H296 0.950 . S
C274 C273 1.349 . S
C274 C286 1.349 . S
C275 C273 1.327 . S
C275 C291 1.429 . S
C275 H297 0.950 . S
C276 H272 0.949 . S
C276 C284 1.574 . S
C276 C292 1.368 . S
H277 C285 0.950 . S
H278 C283 0.950 . S
H279 C284 0.949 . S
H280 C286 0.950 . S
H281 C287 0.950 . S
H282 C288 0.949 . S
C283 H278 0.950 . S
C283 C285 1.327 . S
C283 C289 1.429 . S
C284 C276 1.574 . S
C284 H279 0.949 . S
C284 C290 1.368 1_556 S
C285 C269 1.349 . S
C285 H277 0.950 . S
C285 C283 1.327 . S
C286 C274 1.349 . S
C286 H280 0.950 . S
C286 C287 1.327 . S
C287 H281 0.950 . S
C287 C286 1.327 . S
C287 C291 1.429 . S
C288 C271 1.574 . S
C288 H282 0.949 . S
C288 C292 1.368 1_554 S
C289 C270 1.429 . S
C289 C283 1.429 . S
C289 C290 1.523 . S
C290 C271 1.368 . S
C290 C284 1.368 1_554 S
C290 C289 1.523 . S
C291 C275 1.429 . S
C291 C287 1.429 . S
C291 C292 1.523 . S
C292 C276 1.368 . S
C292 C288 1.368 1_556 S
C292 C291 1.523 . S
H293 C268 0.950 . S
H294 C270 0.950 . S
H295 C271 0.949 . S
H296 C273 0.950 . S
H297 C275 0.950 . S
C298 C299 1.349 . S
C298 C300 1.327 . S
C298 H323 0.950 . S
C299 C298 1.349 . S
C299 C315 1.349 . S
C300 C298 1.327 . S
C300 C319 1.429 . S
C300 H324 0.950 . S
C301 C318 1.574 . S
C301 C320 1.368 . S
C301 H325 0.949 . S
H302 C306 0.949 . S
C303 C304 1.349 . S
C303 C305 1.327 . S
C303 H326 0.950 . S
C304 C303 1.349 . S
C304 C316 1.349 . S
C305 C303 1.327 . S
C305 C321 1.429 . S
C305 H327 0.950 . S
C306 H302 0.949 . S
C306 C314 1.574 . S
C306 C322 1.368 . S
H307 C315 0.950 . S
H308 C313 0.950 . S
H309 C314 0.949 . S
H310 C316 0.950 . S
H311 C317 0.950 . S
H312 C318 0.949 . S
C313 H308 0.950 . S
C313 C315 1.327 . S
C313 C319 1.429 . S
C314 C306 1.574 . S
C314 H309 0.949 . S
C314 C320 1.368 . S
C315 C299 1.349 . S
C315 H307 0.950 . S
C315 C313 1.327 . S
C316 C304 1.349 . S
C316 H310 0.950 . S
C316 C317 1.327 . S
C317 H311 0.950 . S
C317 C316 1.327 . S
C317 C321 1.429 . S
C318 C301 1.574 . S
C318 H312 0.949 . S
C318 C322 1.368 . S
C319 C300 1.429 . S
C319 C313 1.429 . S
C319 C320 1.523 . S
C320 C301 1.368 . S
C320 C314 1.368 . S
C320 C319 1.523 . S
C321 C305 1.429 . S
C321 C317 1.429 . S
C321 C322 1.523 . S
C322 C306 1.368 . S
C322 C318 1.368 . S
C322 C321 1.523 . S
H323 C298 0.950 . S
H324 C300 0.950 . S
H325 C301 0.949 . S
H326 C303 0.950 . S
H327 C305 0.950 . S
C328 C329 1.349 . S
C328 C330 1.327 . S
C328 H353 0.950 . S
C329 C328 1.349 . S
C329 C345 1.349 . S
C330 C328 1.327 . S
C330 C349 1.429 . S
C330 H354 0.950 . S
C331 C348 1.574 . S
C331 C350 1.368 1_554 S
C331 H355 0.949 . S
H332 C336 0.949 . S
C333 C334 1.349 . S
C333 C335 1.327 . S
C333 H356 0.950 . S
C334 C333 1.349 . S
C334 C346 1.349 . S
C335 C333 1.327 . S
C335 C351 1.429 . S
C335 H357 0.950 . S
C336 H332 0.949 . S
C336 C344 1.574 . S
C336 C352 1.368 1_556 S
H337 C345 0.950 . S
H338 C343 0.950 . S
H339 C344 0.949 . S
H340 C346 0.950 . S
H341 C347 0.950 . S
H342 C348 0.949 . S
C343 H338 0.950 . S
C343 C345 1.327 . S
C343 C349 1.429 . S
C344 C336 1.574 . S
C344 H339 0.949 . S
C344 C350 1.368 . S
C345 C329 1.349 . S
C345 H337 0.950 . S
C345 C343 1.327 . S
C346 C334 1.349 . S
C346 H340 0.950 . S
C346 C347 1.327 . S
C347 H341 0.950 . S
C347 C346 1.327 . S
C347 C351 1.429 . S
C348 C331 1.574 . S
C348 H342 0.949 . S
C348 C352 1.368 . S
C349 C330 1.429 . S
C349 C343 1.429 . S
C349 C350 1.523 . S
C350 C331 1.368 1_556 S
C350 C344 1.368 . S
C350 C349 1.523 . S
C351 C335 1.429 . S
C351 C347 1.429 . S
C351 C352 1.523 . S
C352 C336 1.368 1_554 S
C352 C348 1.368 . S
C352 C351 1.523 . S
H353 C328 0.950 . S
H354 C330 0.950 . S
H355 C331 0.949 . S
H356 C333 0.950 . S
H357 C335 0.950 . S
C358 C359 1.349 . S
C358 C360 1.327 . S
C358 H383 0.950 . S
C359 C358 1.349 . S
C359 C375 1.349 . S
C360 C358 1.327 . S
C360 C379 1.429 . S
C360 H384 0.950 . S
C361 C378 1.574 . S
C361 C380 1.368 . S
C361 H385 0.916 1_565 S
H362 C366 0.949 . S
C363 C364 1.349 . S
C363 C365 1.327 . S
C363 H386 0.952 1_565 S
C364 C363 1.349 . S
C364 C376 1.349 . S
C365 C363 1.327 . S
C365 C381 1.429 . S
C365 H387 0.921 1_565 S
C366 H362 0.949 . S
C366 C374 1.574 . S
C366 C382 1.368 . S
H367 C375 0.954 1_545 S
H368 C373 0.922 1_545 S
H369 C374 0.949 . S
H370 C376 0.950 . S
H371 C377 0.950 . S
H372 C378 0.915 1_545 S
C373 H368 0.922 1_565 S
C373 C375 1.327 . S
C373 C379 1.429 . S
C374 C366 1.574 . S
C374 H369 0.949 . S
C374 C380 1.368 . S
C375 C359 1.349 . S
C375 H367 0.954 1_565 S
C375 C373 1.327 . S
C376 C364 1.349 . S
C376 H370 0.950 . S
C376 C377 1.327 . S
C377 H371 0.950 . S
C377 C376 1.327 . S
C377 C381 1.429 . S
C378 C361 1.574 . S
C378 H372 0.915 1_565 S
C378 C382 1.368 . S
C379 C360 1.429 . S
C379 C373 1.429 . S
C379 C380 1.523 . S
C380 C361 1.368 . S
C380 C374 1.368 . S
C380 C379 1.523 . S
C381 C365 1.429 . S
C381 C377 1.429 . S
C381 C382 1.523 . S
C382 C366 1.368 . S
C382 C378 1.368 . S
C382 C381 1.523 . S
H383 C358 0.950 . S
H384 C360 0.950 . S
H385 C361 0.916 1_545 S
H386 C363 0.952 1_545 S
H387 C365 0.921 1_545 S
C388 C389 1.349 . S
C388 C390 1.327 . S
C388 H413 0.950 . S
C389 C388 1.349 . S
C389 C405 1.349 . S
C390 C388 1.327 . S
C390 C409 1.429 . S
C390 H414 0.950 . S
C391 C408 1.574 . S
C391 C410 1.368 1_554 S
C391 H415 0.949 . S
H392 C396 0.949 . S
C393 C394 1.349 . S
C393 C395 1.327 . S
C393 H416 0.950 . S
C394 C393 1.349 . S
C394 C406 1.349 . S
C395 C393 1.327 . S
C395 C411 1.429 . S
C395 H417 0.950 . S
C396 H392 0.949 . S
C396 C404 1.574 . S
C396 C412 1.368 1_556 S
H397 C405 0.950 . S
H398 C403 0.950 . S
H399 C404 0.949 . S
H400 C406 0.950 . S
H401 C407 0.950 . S
H402 C408 0.949 . S
C403 H398 0.950 . S
C403 C405 1.327 . S
C403 C409 1.429 . S
C404 C396 1.574 . S
C404 H399 0.949 . S
C404 C410 1.368 . S
C405 C389 1.349 . S
C405 H397 0.950 . S
C405 C403 1.327 . S
C406 C394 1.349 . S
C406 H400 0.950 . S
C406 C407 1.327 . S
C407 H401 0.950 . S
C407 C406 1.327 . S
C407 C411 1.429 . S
C408 C391 1.574 . S
C408 H402 0.949 . S
C408 C412 1.368 . S
C409 C390 1.429 . S
C409 C403 1.429 . S
C409 C410 1.523 . S
C410 C391 1.368 1_556 S
C410 C404 1.368 . S
C410 C409 1.523 . S
C411 C395 1.429 . S
C411 C407 1.429 . S
C411 C412 1.523 . S
C412 C396 1.368 1_554 S
C412 C408 1.368 . S
C412 C411 1.523 . S
H413 C388 0.950 . S
H414 C390 0.950 . S
H415 C391 0.949 . S
H416 C393 0.950 . S
H417 C395 0.950 . S
C418 C419 1.349 . S
C418 C420 1.327 . S
C418 H443 0.950 . S
C419 C418 1.349 . S
C419 C435 1.349 . S
C420 C418 1.327 . S
C420 C439 1.429 . S
C420 H444 0.950 . S
C421 C438 1.574 . S
C421 C440 1.368 . S
C421 H445 0.949 . S
H422 C426 0.949 . S
C423 C424 1.349 . S
C423 C425 1.327 . S
C423 H446 0.950 . S
C424 C423 1.349 . S
C424 C436 1.349 . S
C425 C423 1.327 . S
C425 C441 1.429 . S
C425 H447 0.950 . S
C426 H422 0.949 . S
C426 C434 1.574 . S
C426 C442 1.368 . S
H427 C435 0.950 . S
H428 C433 0.950 . S
H429 C434 0.949 . S
H430 C436 0.950 . S
H431 C437 0.950 . S
H432 C438 0.949 . S
C433 H428 0.950 . S
C433 C435 1.327 . S
C433 C439 1.429 . S
C434 C426 1.574 . S
C434 H429 0.949 . S
C434 C440 1.368 . S
C435 C419 1.349 . S
C435 H427 0.950 . S
C435 C433 1.327 . S
C436 C424 1.349 . S
C436 H430 0.950 . S
C436 C437 1.327 . S
C437 H431 0.950 . S
C437 C436 1.327 . S
C437 C441 1.429 . S
C438 C421 1.574 . S
C438 H432 0.949 . S
C438 C442 1.368 . S
C439 C420 1.429 . S
C439 C433 1.429 . S
C439 C440 1.523 . S
C440 C421 1.368 . S
C440 C434 1.368 . S
C440 C439 1.523 . S
C441 C425 1.429 . S
C441 C437 1.429 . S
C441 C442 1.523 . S
C442 C426 1.368 . S
C442 C438 1.368 . S
C442 C441 1.523 . S
H443 C418 0.950 . S
H444 C420 0.950 . S
H445 C421 0.949 . S
H446 C423 0.950 . S
H447 C425 0.950 . S
C448 C449 1.349 . S
C448 C450 1.327 1_554 S
C448 H473 0.950 . S
C449 C448 1.349 . S
C449 C465 1.349 . S
C450 C448 1.327 1_556 S
C450 C469 1.429 . S
C450 H474 0.950 . S
C451 C468 1.574 . S
C451 C470 1.368 . S
C451 H475 0.949 . S
H452 C456 0.949 . S
C453 C454 1.349 . S
C453 C455 1.327 . S
C453 H476 0.950 . S
C454 C453 1.349 . S
C454 C466 1.349 . S
C455 C453 1.327 . S
C455 C471 1.429 . S
C455 H477 0.950 . S
C456 H452 0.949 . S
C456 C464 1.574 . S
C456 C472 1.368 . S
H457 C465 0.950 . S
H458 C463 0.950 . S
H459 C464 0.949 . S
H460 C466 0.950 . S
H461 C467 0.950 . S
H462 C468 0.949 . S
C463 H458 0.950 . S
C463 C465 1.327 1_556 S
C463 C469 1.429 . S
C464 C456 1.574 . S
C464 H459 0.949 . S
C464 C470 1.368 . S
C465 C449 1.349 . S
C465 H457 0.950 . S
C465 C463 1.327 1_554 S
C466 C454 1.349 . S
C466 H460 0.950 . S
C466 C467 1.327 . S
C467 H461 0.950 . S
C467 C466 1.327 . S
C467 C471 1.429 . S
C468 C451 1.574 . S
C468 H462 0.949 . S
C468 C472 1.368 . S
C469 C450 1.429 . S
C469 C463 1.429 . S
C469 C470 1.523 . S
C470 C451 1.368 . S
C470 C464 1.368 . S
C470 C469 1.523 . S
C471 C455 1.429 . S
C471 C467 1.429 . S
C471 C472 1.523 . S
C472 C456 1.368 . S
C472 C468 1.368 . S
C472 C471 1.523 . S
H473 C448 0.950 . S
H474 C450 0.950 . S
H475 C451 0.949 . S
H476 C453 0.950 . S
H477 C455 0.950 . S
C478 C479 1.349 . S
C478 C480 1.327 . S
C478 H503 0.950 . S
C479 C478 1.349 . S
C479 C495 1.349 . S
C480 C478 1.327 . S
C480 C499 1.429 . S
C480 H504 0.950 . S
C481 C498 1.574 . S
C481 C500 1.368 . S
C481 H505 0.949 . S
H482 C486 0.949 . S
C483 C484 1.349 . S
C483 C485 1.327 . S
C483 H506 0.950 . S
C484 C483 1.349 . S
C484 C496 1.349 . S
C485 C483 1.327 . S
C485 C501 1.429 . S
C485 H507 0.950 . S
C486 H482 0.949 . S
C486 C494 1.574 . S
C486 C502 1.368 . S
H487 C495 0.950 . S
H488 C493 0.950 . S
H489 C494 0.949 . S
H490 C496 0.950 . S
H491 C497 0.950 . S
H492 C498 0.949 . S
C493 H488 0.950 . S
C493 C495 1.327 . S
C493 C499 1.429 . S
C494 C486 1.574 . S
C494 H489 0.949 . S
C494 C500 1.368 . S
C495 C479 1.349 . S
C495 H487 0.950 . S
C495 C493 1.327 . S
C496 C484 1.349 . S
C496 H490 0.950 . S
C496 C497 1.327 . S
C497 H491 0.950 . S
C497 C496 1.327 . S
C497 C501 1.429 . S
C498 C481 1.574 . S
C498 H492 0.949 . S
C498 C502 1.368 . S
C499 C480 1.429 . S
C499 C493 1.429 . S
C499 C500 1.523 . S
C500 C481 1.368 . S
C500 C494 1.368 . S
C500 C499 1.523 . S
C501 C485 1.429 . S
C501 C497 1.429 . S
C501 C502 1.523 . S
C502 C486 1.368 . S
C502 C498 1.368 . S
C502 C501 1.523 . S
H503 C478 0.950 . S
H504 C480 0.950 . S
H505 C481 0.949 . S
H506 C483 0.950 . S
H507 C485 0.950 . S
C508 C509 1.349 . S
C508 C510 1.327 1_554 S
C508 H533 0.950 . S
C509 C508 1.349 . S
C509 C525 1.349 . S
C510 C508 1.327 1_556 S
C510 C529 1.429 . S
C510 H534 0.950 . S
C511 C528 1.574 . S
C511 C530 1.368 . S
C511 H535 0.949 . S
H512 C516 0.949 . S
C513 C514 1.349 . S
C513 C515 1.327 . S
C513 H536 0.950 . S
C514 C513 1.349 . S
C514 C526 1.349 . S
C515 C513 1.327 . S
C515 C531 1.429 . S
C515 H537 0.950 . S
C516 H512 0.949 . S
C516 C524 1.574 . S
C516 C532 1.368 . S
H517 C525 0.950 . S
H518 C523 0.950 . S
H519 C524 0.949 . S
H520 C526 0.950 . S
H521 C527 0.950 . S
H522 C528 0.949 . S
C523 H518 0.950 . S
C523 C525 1.327 1_556 S
C523 C529 1.429 . S
C524 C516 1.574 . S
C524 H519 0.949 . S
C524 C530 1.368 . S
C525 C509 1.349 . S
C525 H517 0.950 . S
C525 C523 1.327 1_554 S
C526 C514 1.349 . S
C526 H520 0.950 . S
C526 C527 1.327 . S
C527 H521 0.950 . S
C527 C526 1.327 . S
C527 C531 1.429 . S
C528 C511 1.574 . S
C528 H522 0.949 . S
C528 C532 1.368 . S
C529 C510 1.429 . S
C529 C523 1.429 . S
C529 C530 1.523 . S
C530 C511 1.368 . S
C530 C524 1.368 . S
C530 C529 1.523 . S
C531 C515 1.429 . S
C531 C527 1.429 . S
C531 C532 1.523 . S
C532 C516 1.368 . S
C532 C528 1.368 . S
C532 C531 1.523 . S
H533 C508 0.950 . S
H534 C510 0.950 . S
H535 C511 0.949 . S
H536 C513 0.950 . S
H537 C515 0.950 . S
C538 C539 1.349 . S
C538 C540 1.327 . S
C538 H563 0.950 . S
C539 C538 1.349 . S
C539 C555 1.349 . S
C540 C538 1.327 . S
C540 C559 1.429 . S
C540 H564 0.950 . S
C541 C558 1.574 . S
C541 C560 1.368 . S
C541 H565 0.949 . S
H542 C546 0.949 . S
C543 C544 1.349 . S
C543 C545 1.327 . S
C543 H566 0.950 . S
C544 C543 1.349 . S
C544 C556 1.349 . S
C545 C543 1.327 . S
C545 C561 1.429 . S
C545 H567 0.950 . S
C546 H542 0.949 . S
C546 C554 1.574 . S
C546 C562 1.368 . S
H547 C555 0.950 . S
H548 C553 0.950 . S
H549 C554 0.949 . S
H550 C556 0.950 . S
H551 C557 0.950 . S
H552 C558 0.949 . S
C553 H548 0.950 . S
C553 C555 1.327 . S
C553 C559 1.429 . S
C554 C546 1.574 . S
C554 H549 0.949 . S
C554 C560 1.368 . S
C555 C539 1.349 . S
C555 H547 0.950 . S
C555 C553 1.327 . S
C556 C544 1.349 . S
C556 H550 0.950 . S
C556 C557 1.327 . S
C557 H551 0.950 . S
C557 C556 1.327 . S
C557 C561 1.429 . S
C558 C541 1.574 . S
C558 H552 0.949 . S
C558 C562 1.368 . S
C559 C540 1.429 . S
C559 C553 1.429 . S
C559 C560 1.523 . S
C560 C541 1.368 . S
C560 C554 1.368 . S
C560 C559 1.523 . S
C561 C545 1.429 . S
C561 C557 1.429 . S
C561 C562 1.523 . S
C562 C546 1.368 . S
C562 C558 1.368 . S
C562 C561 1.523 . S
H563 C538 0.950 . S
H564 C540 0.950 . S
H565 C541 0.949 . S
H566 C543 0.950 . S
H567 C545 0.950 . S
C568 C569 1.349 . S
C568 C570 1.327 . S
C568 H593 0.950 . S
C569 C568 1.349 . S
C569 C585 1.349 . S
C570 C568 1.327 . S
C570 C589 1.429 . S
C570 H594 0.950 . S
C571 C588 1.574 . S
C571 C590 1.368 . S
C571 H595 0.949 . S
H572 C576 0.949 . S
C573 C574 1.349 1_554 S
C573 C575 1.327 . S
C573 H596 0.950 . S
C574 C573 1.349 1_556 S
C574 C586 1.349 . S
C575 C573 1.327 . S
C575 C591 1.429 . S
C575 H597 0.950 . S
C576 H572 0.949 . S
C576 C584 1.574 . S
C576 C592 1.368 . S
H577 C585 0.950 . S
H578 C583 0.950 . S
H579 C584 0.949 . S
H580 C586 0.950 . S
H581 C587 0.950 . S
H582 C588 0.949 . S
C583 H578 0.950 . S
C583 C585 1.327 . S
C583 C589 1.429 . S
C584 C576 1.574 . S
C584 H579 0.949 . S
C584 C590 1.368 . S
C585 C569 1.349 . S
C585 H577 0.950 . S
C585 C583 1.327 . S
C586 C574 1.349 . S
C586 H580 0.950 . S
C586 C587 1.327 . S
C587 H581 0.950 . S
C587 C586 1.327 . S
C587 C591 1.429 1_556 S
C588 C571 1.574 . S
C588 H582 0.949 . S
C588 C592 1.368 . S
C589 C570 1.429 . S
C589 C583 1.429 . S
C589 C590 1.523 . S
C590 C571 1.368 . S
C590 C584 1.368 . S
C590 C589 1.523 . S
C591 C575 1.429 . S
C591 C587 1.429 1_554 S
C591 C592 1.523 . S
C592 C576 1.368 . S
C592 C588 1.368 . S
C592 C591 1.523 . S
H593 C568 0.950 . S
H594 C570 0.950 . S
H595 C571 0.949 . S
H596 C573 0.950 . S
H597 C575 0.950 . S
C598 C599 1.349 . S
C598 C600 1.327 . S
C598 H623 0.950 . S
C599 C598 1.349 . S
C599 C615 1.349 . S
C600 C598 1.327 . S
C600 C619 1.429 . S
C600 H624 0.950 . S
C601 C618 1.574 . S
C601 C620 1.368 . S
C601 H625 0.949 . S
H602 C606 0.949 . S
C603 C604 1.349 . S
C603 C605 1.327 . S
C603 H626 0.950 . S
C604 C603 1.349 . S
C604 C616 1.349 . S
C605 C603 1.327 . S
C605 C621 1.429 . S
C605 H627 0.950 . S
C606 H602 0.949 . S
C606 C614 1.574 . S
C606 C622 1.368 . S
H607 C615 0.950 . S
H608 C613 0.950 . S
H609 C614 0.949 . S
H610 C616 0.950 . S
H611 C617 0.950 . S
H612 C618 0.949 . S
C613 H608 0.950 . S
C613 C615 1.327 . S
C613 C619 1.429 . S
C614 C606 1.574 . S
C614 H609 0.949 . S
C614 C620 1.368 . S
C615 C599 1.349 . S
C615 H607 0.950 . S
C615 C613 1.327 . S
C616 C604 1.349 . S
C616 H610 0.950 . S
C616 C617 1.327 . S
C617 H611 0.950 . S
C617 C616 1.327 . S
C617 C621 1.429 . S
C618 C601 1.574 . S
C618 H612 0.949 . S
C618 C622 1.368 . S
C619 C600 1.429 . S
C619 C613 1.429 . S
C619 C620 1.523 . S
C620 C601 1.368 . S
C620 C614 1.368 . S
C620 C619 1.523 . S
C621 C605 1.429 . S
C621 C617 1.429 . S
C621 C622 1.523 . S
C622 C606 1.368 . S
C622 C618 1.368 . S
C622 C621 1.523 . S
H623 C598 0.950 . S
H624 C600 0.950 . S
H625 C601 0.949 . S
H626 C603 0.950 . S
H627 C605 0.950 . S
C628 C629 1.349 . S
C628 C630 1.327 . S
C628 H653 0.950 . S
C629 C628 1.349 . S
C629 C645 1.349 . S
C630 C628 1.327 . S
C630 C649 1.429 . S
C630 H654 0.950 . S
C631 C648 1.574 . S
C631 C650 1.368 . S
C631 H655 0.949 . S
H632 C636 0.949 . S
C633 C634 1.349 1_554 S
C633 C635 1.327 . S
C633 H656 0.950 . S
C634 C633 1.349 1_556 S
C634 C646 1.349 . S
C635 C633 1.327 . S
C635 C651 1.429 . S
C635 H657 0.950 . S
C636 H632 0.949 . S
C636 C644 1.574 . S
C636 C652 1.368 . S
H637 C645 0.950 . S
H638 C643 0.950 . S
H639 C644 0.949 . S
H640 C646 0.950 . S
H641 C647 0.950 . S
H642 C648 0.949 . S
C643 H638 0.950 . S
C643 C645 1.327 . S
C643 C649 1.429 . S
C644 C636 1.574 . S
C644 H639 0.949 . S
C644 C650 1.368 . S
C645 C629 1.349 . S
C645 H637 0.950 . S
C645 C643 1.327 . S
C646 C634 1.349 . S
C646 H640 0.950 . S
C646 C647 1.327 . S
C647 H641 0.950 . S
C647 C646 1.327 . S
C647 C651 1.429 1_556 S
C648 C631 1.574 . S
C648 H642 0.949 . S
C648 C652 1.368 . S
C649 C630 1.429 . S
C649 C643 1.429 . S
C649 C650 1.523 . S
C650 C631 1.368 . S
C650 C644 1.368 . S
C650 C649 1.523 . S
C651 C635 1.429 . S
C651 C647 1.429 1_554 S
C651 C652 1.523 . S
C652 C636 1.368 . S
C652 C648 1.368 . S
C652 C651 1.523 . S
H653 C628 0.950 . S
H654 C630 0.950 . S
H655 C631 0.949 . S
H656 C633 0.950 . S
H657 C635 0.950 . S
C658 C659 1.349 . S
C658 C660 1.327 . S
C658 H683 0.950 . S
C659 C658 1.349 . S
C659 C675 1.349 . S
C660 C658 1.327 . S
C660 C679 1.429 . S
C660 H684 0.950 . S
C661 C678 1.574 . S
C661 C680 1.368 . S
C661 H685 0.949 . S
H662 C666 0.949 . S
C663 C664 1.349 . S
C663 C665 1.327 . S
C663 H686 0.950 . S
C664 C663 1.349 . S
C664 C676 1.349 . S
C665 C663 1.327 . S
C665 C681 1.429 . S
C665 H687 0.950 . S
C666 H662 0.949 . S
C666 C674 1.574 . S
C666 C682 1.368 . S
H667 C675 0.950 . S
H668 C673 0.950 . S
H669 C674 0.949 . S
H670 C676 0.950 . S
H671 C677 0.950 . S
H672 C678 0.949 . S
C673 H668 0.950 . S
C673 C675 1.327 . S
C673 C679 1.429 . S
C674 C666 1.574 . S
C674 H669 0.949 . S
C674 C680 1.368 . S
C675 C659 1.349 . S
C675 H667 0.950 . S
C675 C673 1.327 . S
C676 C664 1.349 . S
C676 H670 0.950 . S
C676 C677 1.327 . S
C677 H671 0.950 . S
C677 C676 1.327 . S
C677 C681 1.429 . S
C678 C661 1.574 . S
C678 H672 0.949 . S
C678 C682 1.368 . S
C679 C660 1.429 . S
C679 C673 1.429 . S
C679 C680 1.523 . S
C680 C661 1.368 . S
C680 C674 1.368 . S
C680 C679 1.523 . S
C681 C665 1.429 . S
C681 C677 1.429 . S
C681 C682 1.523 . S
C682 C666 1.368 . S
C682 C678 1.368 . S
C682 C681 1.523 . S
H683 C658 0.950 . S
H684 C660 0.950 . S
H685 C661 0.949 . S
H686 C663 0.950 . S
H687 C665 0.950 . S
C688 C689 1.349 1_554 S
C688 C690 1.327 . S
C688 H713 0.950 . S
C689 C688 1.349 1_556 S
C689 C705 1.349 . S
C690 C688 1.327 . S
C690 C709 1.429 . S
C690 H714 0.950 . S
C691 C708 1.574 . S
C691 C710 1.368 . S
C691 H715 0.949 . S
H692 C696 0.949 . S
C693 C694 1.349 . S
C693 C695 1.327 . S
C693 H716 0.950 . S
C694 C693 1.349 . S
C694 C706 1.349 . S
C695 C693 1.327 . S
C695 C711 1.429 . S
C695 H717 0.950 . S
C696 H692 0.949 . S
C696 C704 1.574 . S
C696 C712 1.368 . S
H697 C705 0.950 . S
H698 C703 0.950 . S
H699 C704 0.949 . S
H700 C706 0.950 . S
H701 C707 0.950 . S
H702 C708 0.949 . S
C703 H698 0.950 . S
C703 C705 1.327 . S
C703 C709 1.429 1_556 S
C704 C696 1.574 . S
C704 H699 0.949 . S
C704 C710 1.368 . S
C705 C689 1.349 . S
C705 H697 0.950 . S
C705 C703 1.327 . S
C706 C694 1.349 . S
C706 H700 0.950 . S
C706 C707 1.327 . S
C707 H701 0.950 . S
C707 C706 1.327 . S
C707 C711 1.429 . S
C708 C691 1.574 . S
C708 H702 0.949 . S
C708 C712 1.368 . S
C709 C690 1.429 . S
C709 C703 1.429 1_554 S
C709 C710 1.523 . S
C710 C691 1.368 . S
C710 C704 1.368 . S
C710 C709 1.523 . S
C711 C695 1.429 . S
C711 C707 1.429 . S
C711 C712 1.523 . S
C712 C696 1.368 . S
C712 C708 1.368 . S
C712 C711 1.523 . S
H713 C688 0.950 . S
H714 C690 0.950 . S
H715 C691 0.949 . S
H716 C693 0.950 . S
H717 C695 0.950 . S
C718 C719 1.349 . S
C718 C720 1.327 . S
C718 H743 0.950 . S
C719 C718 1.349 . S
C719 C735 1.349 . S
C720 C718 1.327 . S
C720 C739 1.429 . S
C720 H744 0.950 . S
C721 C738 1.574 . S
C721 C740 1.368 . S
C721 H745 0.949 . S
H722 C726 0.949 . S
C723 C724 1.349 . S
C723 C725 1.327 . S
C723 H746 0.950 . S
C724 C723 1.349 . S
C724 C736 1.349 . S
C725 C723 1.327 . S
C725 C741 1.429 . S
C725 H747 0.950 . S
C726 H722 0.949 . S
C726 C734 1.574 . S
C726 C742 1.368 . S
H727 C735 0.950 . S
H728 C733 0.950 . S
H729 C734 0.949 . S
H730 C736 0.950 . S
H731 C737 0.950 . S
H732 C738 0.949 . S
C733 H728 0.950 . S
C733 C735 1.327 . S
C733 C739 1.429 . S
C734 C726 1.574 . S
C734 H729 0.949 . S
C734 C740 1.368 . S
C735 C719 1.349 . S
C735 H727 0.950 . S
C735 C733 1.327 . S
C736 C724 1.349 . S
C736 H730 0.950 . S
C736 C737 1.327 . S
C737 H731 0.950 . S
C737 C736 1.327 . S
C737 C741 1.429 . S
C738 C721 1.574 . S
C738 H732 0.949 . S
C738 C742 1.368 . S
C739 C720 1.429 . S
C739 C733 1.429 . S
C739 C740 1.523 . S
C740 C721 1.368 . S
C740 C734 1.368 . S
C740 C739 1.523 . S
C741 C725 1.429 . S
C741 C737 1.429 . S
C741 C742 1.523 . S
C742 C726 1.368 . S
C742 C738 1.368 . S
C742 C741 1.523 . S
H743 C718 0.950 . S
H744 C720 0.950 . S
H745 C721 0.949 . S
H746 C723 0.950 . S
H747 C725 0.950 . S
C748 C749 1.349 . S
C748 C750 1.327 . S
C748 H773 0.950 . S
C749 C748 1.349 . S
C749 C765 1.349 . S
C750 C748 1.327 . S
C750 C769 1.429 . S
C750 H774 0.950 . S
C751 C768 1.574 . S
C751 C770 1.368 . S
C751 H775 0.949 . S
H752 C756 0.949 . S
C753 C754 1.349 . S
C753 C755 1.327 . S
C753 H776 0.950 . S
C754 C753 1.349 . S
C754 C766 1.349 . S
C755 C753 1.327 . S
C755 C771 1.429 1_556 S
C755 H777 0.950 . S
C756 H752 0.949 . S
C756 C764 1.574 . S
C756 C772 1.368 . S
H757 C765 0.950 . S
H758 C763 0.950 . S
H759 C764 0.949 . S
H760 C766 0.950 . S
H761 C767 0.950 . S
H762 C768 0.949 . S
C763 H758 0.950 . S
C763 C765 1.327 . S
C763 C769 1.429 . S
C764 C756 1.574 . S
C764 H759 0.949 . S
C764 C770 1.368 . S
C765 C749 1.349 . S
C765 H757 0.950 . S
C765 C763 1.327 . S
C766 C754 1.349 . S
C766 H760 0.950 . S
C766 C767 1.327 1_556 S
C767 H761 0.950 . S
C767 C766 1.327 1_554 S
C767 C771 1.429 . S
C768 C751 1.574 . S
C768 H762 0.949 . S
C768 C772 1.368 . S
C769 C750 1.429 . S
C769 C763 1.429 . S
C769 C770 1.523 . S
C770 C751 1.368 . S
C770 C764 1.368 . S
C770 C769 1.523 . S
C771 C755 1.429 1_554 S
C771 C767 1.429 . S
C771 C772 1.523 . S
C772 C756 1.368 . S
C772 C768 1.368 . S
C772 C771 1.523 . S
H773 C748 0.950 . S
H774 C750 0.950 . S
H775 C751 0.949 . S
H776 C753 0.950 . S
H777 C755 0.950 . S
C778 C779 1.349 . S
C778 C780 1.327 . S
C778 H803 0.950 . S
C779 C778 1.349 . S
C779 C795 1.349 . S
C780 C778 1.327 . S
C780 C799 1.429 . S
C780 H804 0.950 . S
C781 C798 1.574 . S
C781 C800 1.368 . S
C781 H805 0.949 . S
H782 C786 0.949 . S
C783 C784 1.349 . S
C783 C785 1.327 . S
C783 H806 0.950 . S
C784 C783 1.349 . S
C784 C796 1.349 . S
C785 C783 1.327 . S
C785 C801 1.429 . S
C785 H807 0.950 . S
C786 H782 0.949 . S
C786 C794 1.574 . S
C786 C802 1.368 . S
H787 C795 0.950 . S
H788 C793 0.950 . S
H789 C794 0.949 . S
H790 C796 0.950 . S
H791 C797 0.950 . S
H792 C798 0.949 . S
C793 H788 0.950 . S
C793 C795 1.327 . S
C793 C799 1.429 . S
C794 C786 1.574 . S
C794 H789 0.949 . S
C794 C800 1.368 . S
C795 C779 1.349 . S
C795 H787 0.950 . S
C795 C793 1.327 . S
C796 C784 1.349 . S
C796 H790 0.950 . S
C796 C797 1.327 . S
C797 H791 0.950 . S
C797 C796 1.327 . S
C797 C801 1.429 . S
C798 C781 1.574 . S
C798 H792 0.949 . S
C798 C802 1.368 . S
C799 C780 1.429 . S
C799 C793 1.429 . S
C799 C800 1.523 . S
C800 C781 1.368 . S
C800 C794 1.368 . S
C800 C799 1.523 . S
C801 C785 1.429 . S
C801 C797 1.429 . S
C801 C802 1.523 . S
C802 C786 1.368 . S
C802 C798 1.368 . S
C802 C801 1.523 . S
H803 C778 0.950 . S
H804 C780 0.950 . S
H805 C781 0.949 . S
H806 C783 0.950 . S
H807 C785 0.950 . S
C808 C809 1.349 . S
C808 C810 1.327 . S
C808 H833 0.950 . S
C809 C808 1.349 . S
C809 C825 1.349 . S
C810 C808 1.327 . S
C810 C829 1.429 . S
C810 H834 0.950 . S
C811 C828 1.574 . S
C811 C830 1.368 . S
C811 H835 0.949 . S
H812 C816 0.949 . S
C813 C814 1.349 . S
C813 C815 1.327 1_554 S
C813 H836 0.950 . S
C814 C813 1.349 . S
C814 C826 1.349 . S
C815 C813 1.327 1_556 S
C815 C831 1.429 . S
C815 H837 0.950 . S
C816 H812 0.949 . S
C816 C824 1.574 . S
C816 C832 1.368 . S
H817 C825 0.950 . S
H818 C823 0.950 . S
H819 C824 0.949 . S
H820 C826 0.950 . S
H821 C827 0.950 . S
H822 C828 0.949 . S
C823 H818 0.950 . S
C823 C825 1.327 . S
C823 C829 1.429 . S
C824 C816 1.574 . S
C824 H819 0.949 . S
C824 C830 1.368 . S
C825 C809 1.349 . S
C825 H817 0.950 . S
C825 C823 1.327 . S
C826 C814 1.349 . S
C826 H820 0.950 . S
C826 C827 1.327 1_554 S
C827 H821 0.950 . S
C827 C826 1.327 1_556 S
C827 C831 1.429 . S
C828 C811 1.574 . S
C828 H822 0.949 . S
C828 C832 1.368 . S
C829 C810 1.429 . S
C829 C823 1.429 . S
C829 C830 1.523 . S
C830 C811 1.368 . S
C830 C824 1.368 . S
C830 C829 1.523 . S
C831 C815 1.429 . S
C831 C827 1.429 . S
C831 C832 1.523 . S
C832 C816 1.368 . S
C832 C828 1.368 . S
C832 C831 1.523 . S
H833 C808 0.950 . S
H834 C810 0.950 . S
H835 C811 0.949 . S
H836 C813 0.950 . S
H837 C815 0.950 . S
C838 C839 1.349 . S
C838 C840 1.327 . S
C838 H863 0.950 . S
C839 C838 1.349 . S
C839 C855 1.349 . S
C840 C838 1.327 . S
C840 C859 1.429 . S
C840 H864 0.950 . S
C841 C858 1.574 . S
C841 C860 1.368 . S
C841 H865 0.949 . S
H842 C846 0.949 . S
C843 C844 1.349 . S
C843 C845 1.327 . S
C843 H866 0.950 . S
C844 C843 1.349 . S
C844 C856 1.349 . S
C845 C843 1.327 . S
C845 C861 1.429 . S
C845 H867 0.950 . S
C846 H842 0.949 . S
C846 C854 1.574 . S
C846 C862 1.368 . S
H847 C855 0.950 . S
H848 C853 0.950 . S
H849 C854 0.949 . S
H850 C856 0.950 . S
H851 C857 0.950 . S
H852 C858 0.949 . S
C853 H848 0.950 . S
C853 C855 1.327 . S
C853 C859 1.429 . S
C854 C846 1.574 . S
C854 H849 0.949 . S
C854 C860 1.368 . S
C855 C839 1.349 . S
C855 H847 0.950 . S
C855 C853 1.327 . S
C856 C844 1.349 . S
C856 H850 0.950 . S
C856 C857 1.327 . S
C857 H851 0.950 . S
C857 C856 1.327 . S
C857 C861 1.429 . S
C858 C841 1.574 . S
C858 H852 0.949 . S
C858 C862 1.368 . S
C859 C840 1.429 . S
C859 C853 1.429 . S
C859 C860 1.523 . S
C860 C841 1.368 . S
C860 C854 1.368 . S
C860 C859 1.523 . S
C861 C845 1.429 . S
C861 C857 1.429 . S
C861 C862 1.523 . S
C862 C846 1.368 . S
C862 C858 1.368 . S
C862 C861 1.523 . S
H863 C838 0.950 . S
H864 C840 0.950 . S
H865 C841 0.949 . S
H866 C843 0.950 . S
H867 C845 0.950 . S
C868 C869 1.349 . S
C868 C870 1.327 . S
C868 H893 0.950 . S
C869 C868 1.349 . S
C869 C885 1.349 . S
C870 C868 1.327 . S
C870 C889 1.429 1_554 S
C870 H894 0.950 . S
C871 C888 1.574 . S
C871 C890 1.368 . S
C871 H895 0.949 . S
H872 C876 0.949 . S
C873 C874 1.349 . S
C873 C875 1.327 . S
C873 H896 0.950 . S
C874 C873 1.349 . S
C874 C886 1.349 . S
C875 C873 1.327 . S
C875 C891 1.429 . S
C875 H897 0.950 . S
C876 H872 0.949 . S
C876 C884 1.574 . S
C876 C892 1.368 . S
H877 C885 0.950 . S
H878 C883 0.950 . S
H879 C884 0.949 . S
H880 C886 0.950 . S
H881 C887 0.950 . S
H882 C888 0.949 . S
C883 H878 0.950 . S
C883 C885 1.327 1_556 S
C883 C889 1.429 . S
C884 C876 1.574 . S
C884 H879 0.949 . S
C884 C890 1.368 . S
C885 C869 1.349 . S
C885 H877 0.950 . S
C885 C883 1.327 1_554 S
C886 C874 1.349 . S
C886 H880 0.950 . S
C886 C887 1.327 . S
C887 H881 0.950 . S
C887 C886 1.327 . S
C887 C891 1.429 . S
C888 C871 1.574 . S
C888 H882 0.949 . S
C888 C892 1.368 . S
C889 C870 1.429 1_556 S
C889 C883 1.429 . S
C889 C890 1.523 . S
C890 C871 1.368 . S
C890 C884 1.368 . S
C890 C889 1.523 . S
C891 C875 1.429 . S
C891 C887 1.429 . S
C891 C892 1.523 . S
C892 C876 1.368 . S
C892 C888 1.368 . S
C892 C891 1.523 . S
H893 C868 0.950 . S
H894 C870 0.950 . S
H895 C871 0.949 . S
H896 C873 0.950 . S
H897 C875 0.950 . S
C898 C899 1.349 . S
C898 C900 1.327 . S
C898 H923 0.950 . S
C899 C898 1.349 . S
C899 C915 1.349 . S
C900 C898 1.327 . S
C900 C919 1.429 . S
C900 H924 0.950 . S
C901 C918 1.574 . S
C901 C920 1.368 . S
C901 H925 0.949 . S
H902 C906 0.949 . S
C903 C904 1.349 . S
C903 C905 1.327 . S
C903 H926 0.950 . S
C904 C903 1.349 . S
C904 C916 1.349 . S
C905 C903 1.327 . S
C905 C921 1.429 . S
C905 H927 0.950 . S
C906 H902 0.949 . S
C906 C914 1.574 . S
C906 C922 1.368 . S
H907 C915 0.950 . S
H908 C913 0.950 . S
H909 C914 0.949 . S
H910 C916 0.950 . S
H911 C917 0.950 . S
H912 C918 0.949 . S
C913 H908 0.950 . S
C913 C915 1.327 . S
C913 C919 1.429 . S
C914 C906 1.574 . S
C914 H909 0.949 . S
C914 C920 1.368 . S
C915 C899 1.349 . S
C915 H907 0.950 . S
C915 C913 1.327 . S
C916 C904 1.349 . S
C916 H910 0.950 . S
C916 C917 1.327 . S
C917 H911 0.950 . S
C917 C916 1.327 . S
C917 C921 1.429 . S
C918 C901 1.574 . S
C918 H912 0.949 . S
C918 C922 1.368 . S
C919 C900 1.429 . S
C919 C913 1.429 . S
C919 C920 1.523 . S
C920 C901 1.368 . S
C920 C914 1.368 . S
C920 C919 1.523 . S
C921 C905 1.429 . S
C921 C917 1.429 . S
C921 C922 1.523 . S
C922 C906 1.368 . S
C922 C918 1.368 . S
C922 C921 1.523 . S
H923 C898 0.950 . S
H924 C900 0.950 . S
H925 C901 0.949 . S
H926 C903 0.950 . S
H927 C905 0.950 . S
C928 C929 1.349 . S
C928 C930 1.327 . S
C928 H953 0.950 . S
C929 C928 1.349 . S
C929 C945 1.349 . S
C930 C928 1.327 . S
C930 C949 1.429 . S
C930 H954 0.950 . S
C931 C948 1.574 . S
C931 C950 1.368 . S
C931 H955 0.949 . S
H932 C936 0.949 . S
C933 C934 1.349 . S
C933 C935 1.327 . S
C933 H956 0.950 . S
C934 C933 1.349 . S
C934 C946 1.349 . S
C935 C933 1.327 . S
C935 C951 1.429 . S
C935 H957 0.950 . S
C936 H932 0.949 . S
C936 C944 1.574 . S
C936 C952 1.368 . S
H937 C945 0.950 . S
H938 C943 0.950 . S
H939 C944 0.949 . S
H940 C946 0.950 . S
H941 C947 0.950 . S
H942 C948 0.949 . S
C943 H938 0.950 . S
C943 C945 1.327 . S
C943 C949 1.429 . S
C944 C936 1.574 . S
C944 H939 0.949 . S
C944 C950 1.368 . S
C945 C929 1.349 . S
C945 H937 0.950 . S
C945 C943 1.327 . S
C946 C934 1.349 . S
C946 H940 0.950 . S
C946 C947 1.327 . S
C947 H941 0.950 . S
C947 C946 1.327 . S
C947 C951 1.429 . S
C948 C931 1.574 . S
C948 H942 0.949 . S
C948 C952 1.368 . S
C949 C930 1.429 . S
C949 C943 1.429 . S
C949 C950 1.523 . S
C950 C931 1.368 . S
C950 C944 1.368 . S
C950 C949 1.523 . S
C951 C935 1.429 . S
C951 C947 1.429 . S
C951 C952 1.523 . S
C952 C936 1.368 . S
C952 C948 1.368 . S
C952 C951 1.523 . S
H953 C928 0.950 . S
H954 C930 0.950 . S
H955 C931 0.949 . S
H956 C933 0.950 . S
H957 C935 0.950 . S
C958 C959 1.349 . S
C958 C960 1.327 . S
C958 H983 0.950 . S
C959 C958 1.349 . S
C959 C975 1.349 . S
C960 C958 1.327 . S
C960 C979 1.429 . S
C960 H984 0.950 . S
C961 C978 1.574 . S
C961 C980 1.368 . S
C961 H985 0.949 . S
H962 C966 0.949 . S
C963 C964 1.349 . S
C963 C965 1.327 . S
C963 H986 0.950 . S
C964 C963 1.349 . S
C964 C976 1.349 . S
C965 C963 1.327 . S
C965 C981 1.429 . S
C965 H987 0.950 . S
C966 H962 0.949 . S
C966 C974 1.574 . S
C966 C982 1.368 . S
H967 C975 0.950 . S
H968 C973 0.950 . S
H969 C974 0.949 . S
H970 C976 0.950 . S
H971 C977 0.950 . S
H972 C978 0.949 . S
C973 H968 0.950 . S
C973 C975 1.327 . S
C973 C979 1.429 . S
C974 C966 1.574 . S
C974 H969 0.949 . S
C974 C980 1.368 . S
C975 C959 1.349 . S
C975 H967 0.950 . S
C975 C973 1.327 . S
C976 C964 1.349 . S
C976 H970 0.950 . S
C976 C977 1.327 . S
C977 H971 0.950 . S
C977 C976 1.327 . S
C977 C981 1.429 . S
C978 C961 1.574 . S
C978 H972 0.949 . S
C978 C982 1.368 . S
C979 C960 1.429 . S
C979 C973 1.429 . S
C979 C980 1.523 . S
C980 C961 1.368 . S
C980 C974 1.368 . S
C980 C979 1.523 . S
C981 C965 1.429 . S
C981 C977 1.429 . S
C981 C982 1.523 . S
C982 C966 1.368 . S
C982 C978 1.368 . S
C982 C981 1.523 . S
H983 C958 0.950 . S
H984 C960 0.950 . S
H985 C961 0.949 . S
H986 C963 0.950 . S
H987 C965 0.950 . S
C988 C989 1.349 . S
C988 C990 1.327 . S
C988 H1013 0.950 . S
C989 C988 1.349 . S
C989 C1005 1.349 . S
C990 C988 1.327 . S
C990 C1009 1.429 . S
C990 H1014 0.950 . S
C991 C1008 1.574 . S
C991 C1010 1.368 . S
C991 H1015 0.949 . S
H992 C996 0.949 . S
C993 C994 1.349 . S
C993 C995 1.327 . S
C993 H1016 0.950 1_565 S
C994 C993 1.349 . S
C994 C1006 1.349 . S
C995 C993 1.327 . S
C995 C1011 1.429 . S
C995 H1017 0.950 . S
C996 H992 0.949 . S
C996 C1004 1.574 . S
C996 C1012 1.368 . S
H997 C1005 0.950 . S
H998 C1003 0.950 . S
H999 C1004 0.949 . S
H1000 C1006 0.950 . S
H1001 C1007 0.950 . S
H1002 C1008 0.949 . S
C1003 H998 0.950 . S
C1003 C1005 1.327 . S
C1003 C1009 1.429 . S
C1004 C996 1.574 . S
C1004 H999 0.949 . S
C1004 C1010 1.368 . S
C1005 C989 1.349 . S
C1005 H997 0.950 . S
C1005 C1003 1.327 . S
C1006 C994 1.349 . S
C1006 H1000 0.950 . S
C1006 C1007 1.327 . S
C1007 H1001 0.950 . S
C1007 C1006 1.327 . S
C1007 C1011 1.429 . S
C1008 C991 1.574 . S
C1008 H1002 0.949 . S
C1008 C1012 1.368 . S
C1009 C990 1.429 . S
C1009 C1003 1.429 . S
C1009 C1010 1.523 . S
C1010 C991 1.368 . S
C1010 C1004 1.368 . S
C1010 C1009 1.523 . S
C1011 C995 1.429 . S
C1011 C1007 1.429 . S
C1011 C1012 1.523 . S
C1012 C996 1.368 . S
C1012 C1008 1.368 . S
C1012 C1011 1.523 . S
H1013 C988 0.950 . S
H1014 C990 0.950 . S
H1015 C991 0.949 . S
H1016 C993 0.950 1_545 S
H1017 C995 0.950 . S
C1018 C1019 1.349 . S
C1018 C1020 1.327 . S
C1018 H1043 0.950 . S
C1019 C1018 1.349 . S
C1019 C1035 1.349 . S
C1020 C1018 1.327 . S
C1020 C1039 1.429 . S
C1020 H1044 0.950 . S
C1021 C1038 1.574 . S
C1021 C1040 1.368 . S
C1021 H1045 0.949 . S
H1022 C1026 0.949 . S
C1023 C1024 1.349 . S
C1023 C1025 1.327 . S
C1023 H1046 0.950 . S
C1024 C1023 1.349 . S
C1024 C1036 1.349 . S
C1025 C1023 1.327 . S
C1025 C1041 1.429 . S
C1025 H1047 0.950 . S
C1026 H1022 0.949 . S
C1026 C1034 1.574 . S
C1026 C1042 1.368 . S
H1027 C1035 0.950 . S
H1028 C1033 0.950 . S
H1029 C1034 0.949 . S
H1030 C1036 0.950 . S
H1031 C1037 0.950 . S
H1032 C1038 0.949 . S
C1033 H1028 0.950 . S
C1033 C1035 1.327 . S
C1033 C1039 1.429 . S
C1034 C1026 1.574 . S
C1034 H1029 0.949 . S
C1034 C1040 1.368 . S
C1035 C1019 1.349 . S
C1035 H1027 0.950 . S
C1035 C1033 1.327 . S
C1036 C1024 1.349 . S
C1036 H1030 0.950 . S
C1036 C1037 1.327 . S
C1037 H1031 0.950 . S
C1037 C1036 1.327 . S
C1037 C1041 1.429 . S
C1038 C1021 1.574 . S
C1038 H1032 0.949 . S
C1038 C1042 1.368 . S
C1039 C1020 1.429 . S
C1039 C1033 1.429 . S
C1039 C1040 1.523 . S
C1040 C1021 1.368 . S
C1040 C1034 1.368 . S
C1040 C1039 1.523 . S
C1041 C1025 1.429 . S
C1041 C1037 1.429 . S
C1041 C1042 1.523 . S
C1042 C1026 1.368 . S
C1042 C1038 1.368 . S
C1042 C1041 1.523 . S
H1043 C1018 0.950 . S
H1044 C1020 0.950 . S
H1045 C1021 0.949 . S
H1046 C1023 0.950 . S
H1047 C1025 0.950 . S
C1048 C1049 1.349 . S
C1048 C1050 1.327 . S
C1048 H1073 0.950 . S
C1049 C1048 1.349 . S
C1049 C1065 1.349 . S
C1050 C1048 1.327 . S
C1050 C1069 1.429 . S
C1050 H1074 0.950 . S
C1051 C1068 1.574 . S
C1051 C1070 1.368 . S
C1051 H1075 0.949 . S
H1052 C1056 0.949 . S
C1053 C1054 1.349 . S
C1053 C1055 1.327 . S
C1053 H1076 0.950 . S
C1054 C1053 1.349 . S
C1054 C1066 1.349 . S
C1055 C1053 1.327 . S
C1055 C1071 1.429 . S
C1055 H1077 0.950 . S
C1056 H1052 0.949 . S
C1056 C1064 1.574 . S
C1056 C1072 1.368 . S
H1057 C1065 0.950 . S
H1058 C1063 0.950 . S
H1059 C1064 0.949 . S
H1060 C1066 0.950 . S
H1061 C1067 0.950 . S
H1062 C1068 0.949 . S
C1063 H1058 0.950 . S
C1063 C1065 1.327 . S
C1063 C1069 1.429 . S
C1064 C1056 1.574 . S
C1064 H1059 0.949 . S
C1064 C1070 1.368 . S
C1065 C1049 1.349 . S
C1065 H1057 0.950 . S
C1065 C1063 1.327 . S
C1066 C1054 1.349 . S
C1066 H1060 0.950 . S
C1066 C1067 1.327 . S
C1067 H1061 0.950 . S
C1067 C1066 1.327 . S
C1067 C1071 1.429 . S
C1068 C1051 1.574 . S
C1068 H1062 0.949 . S
C1068 C1072 1.368 . S
C1069 C1050 1.429 . S
C1069 C1063 1.429 . S
C1069 C1070 1.523 . S
C1070 C1051 1.368 . S
C1070 C1064 1.368 . S
C1070 C1069 1.523 . S
C1071 C1055 1.429 . S
C1071 C1067 1.429 . S
C1071 C1072 1.523 . S
C1072 C1056 1.368 . S
C1072 C1068 1.368 . S
C1072 C1071 1.523 . S
H1073 C1048 0.950 . S
H1074 C1050 0.950 . S
H1075 C1051 0.949 . S
H1076 C1053 0.950 . S
H1077 C1055 0.950 . S
C1078 C1079 1.349 . S
C1078 C1080 1.327 . S
C1078 H1103 0.950 . S
C1079 C1078 1.349 . S
C1079 C1095 1.349 . S
C1080 C1078 1.327 . S
C1080 C1099 1.429 . S
C1080 H1104 0.950 . S
C1081 C1098 1.574 . S
C1081 C1100 1.368 . S
C1081 H1105 0.949 . S
H1082 C1086 0.949 . S
C1083 C1084 1.349 . S
C1083 C1085 1.327 . S
C1083 H1106 0.950 . S
C1084 C1083 1.349 . S
C1084 C1096 1.349 . S
C1085 C1083 1.327 . S
C1085 C1101 1.429 . S
C1085 H1107 0.950 . S
C1086 H1082 0.949 . S
C1086 C1094 1.574 . S
C1086 C1102 1.368 . S
H1087 C1095 0.950 . S
H1088 C1093 0.950 . S
H1089 C1094 0.949 . S
H1090 C1096 0.950 . S
H1091 C1097 0.950 . S
H1092 C1098 0.949 . S
C1093 H1088 0.950 . S
C1093 C1095 1.327 . S
C1093 C1099 1.429 . S
C1094 C1086 1.574 . S
C1094 H1089 0.949 . S
C1094 C1100 1.368 . S
C1095 C1079 1.349 . S
C1095 H1087 0.950 . S
C1095 C1093 1.327 . S
C1096 C1084 1.349 . S
C1096 H1090 0.950 . S
C1096 C1097 1.327 . S
C1097 H1091 0.950 . S
C1097 C1096 1.327 . S
C1097 C1101 1.429 . S
C1098 C1081 1.574 . S
C1098 H1092 0.949 . S
C1098 C1102 1.368 . S
C1099 C1080 1.429 . S
C1099 C1093 1.429 . S
C1099 C1100 1.523 . S
C1100 C1081 1.368 . S
C1100 C1094 1.368 . S
C1100 C1099 1.523 . S
C1101 C1085 1.429 . S
C1101 C1097 1.429 . S
C1101 C1102 1.523 . S
C1102 C1086 1.368 . S
C1102 C1098 1.368 . S
C1102 C1101 1.523 . S
H1103 C1078 0.950 . S
H1104 C1080 0.950 . S
H1105 C1081 0.949 . S
H1106 C1083 0.950 . S
H1107 C1085 0.950 . S
C1108 C1109 1.349 . S
C1108 C1110 1.327 . S
C1108 H1133 0.950 . S
C1109 C1108 1.349 . S
C1109 C1125 1.349 . S
C1110 C1108 1.327 . S
C1110 C1129 1.429 . S
C1110 H1134 0.950 . S
C1111 C1128 1.574 . S
C1111 C1130 1.368 . S
C1111 H1135 0.949 . S
H1112 C1116 0.949 . S
C1113 C1114 1.349 . S
C1113 C1115 1.327 . S
C1113 H1136 0.950 . S
C1114 C1113 1.349 . S
C1114 C1126 1.349 . S
C1115 C1113 1.327 . S
C1115 C1131 1.429 . S
C1115 H1137 0.950 . S
C1116 H1112 0.949 . S
C1116 C1124 1.574 . S
C1116 C1132 1.368 . S
H1117 C1125 1.006 . S
H1118 C1123 0.950 . S
H1119 C1124 0.949 . S
H1120 C1126 0.950 . S
H1121 C1127 0.950 . S
H1122 C1128 0.949 . S
C1123 H1118 0.950 . S
C1123 C1125 1.327 . S
C1123 C1129 1.429 . S
C1124 C1116 1.574 . S
C1124 H1119 0.949 . S
C1124 C1130 1.368 . S
C1125 C1109 1.349 . S
C1125 H1117 1.006 . S
C1125 C1123 1.327 . S
C1126 C1114 1.349 . S
C1126 H1120 0.950 . S
C1126 C1127 1.327 . S
C1127 H1121 0.950 . S
C1127 C1126 1.327 . S
C1127 C1131 1.429 . S
C1128 C1111 1.574 . S
C1128 H1122 0.949 . S
C1128 C1132 1.368 . S
C1129 C1110 1.429 . S
C1129 C1123 1.429 . S
C1129 C1130 1.523 . S
C1130 C1111 1.368 . S
C1130 C1124 1.368 . S
C1130 C1129 1.523 . S
C1131 C1115 1.429 . S
C1131 C1127 1.429 . S
C1131 C1132 1.523 . S
C1132 C1116 1.368 . S
C1132 C1128 1.368 . S
C1132 C1131 1.523 . S
H1133 C1108 0.950 . S
H1134 C1110 0.950 . S
H1135 C1111 0.949 . S
H1136 C1113 0.950 . S
H1137 C1115 0.950 . S
C1138 C1139 1.349 . S
C1138 C1140 1.327 . S
C1138 H1163 0.950 . S
C1139 C1138 1.349 . S
C1139 C1155 1.349 . S
C1140 C1138 1.327 . S
C1140 C1159 1.429 . S
C1140 H1164 0.950 . S
C1141 C1158 1.574 . S
C1141 C1160 1.368 . S
C1141 H1165 0.949 . S
H1142 C1146 0.949 . S
C1143 C1144 1.349 . S
C1143 C1145 1.327 . S
C1143 H1166 0.950 . S
C1144 C1143 1.349 . S
C1144 C1156 1.349 . S
C1145 C1143 1.327 . S
C1145 C1161 1.429 . S
C1145 H1167 0.950 . S
C1146 H1142 0.949 . S
C1146 C1154 1.574 . S
C1146 C1162 1.368 . S
H1147 C1155 0.950 . S
H1148 C1153 0.950 . S
H1149 C1154 0.949 . S
H1150 C1156 0.950 . S
H1151 C1157 0.950 . S
H1152 C1158 0.949 . S
C1153 H1148 0.950 . S
C1153 C1155 1.327 . S
C1153 C1159 1.429 . S
C1154 C1146 1.574 . S
C1154 H1149 0.949 . S
C1154 C1160 1.368 . S
C1155 C1139 1.349 . S
C1155 H1147 0.950 . S
C1155 C1153 1.327 . S
C1156 C1144 1.349 . S
C1156 H1150 0.950 . S
C1156 C1157 1.327 . S
C1157 H1151 0.950 . S
C1157 C1156 1.327 . S
C1157 C1161 1.429 . S
C1158 C1141 1.574 . S
C1158 H1152 0.949 . S
C1158 C1162 1.368 . S
C1159 C1140 1.429 . S
C1159 C1153 1.429 . S
C1159 C1160 1.523 . S
C1160 C1141 1.368 . S
C1160 C1154 1.368 . S
C1160 C1159 1.523 . S
C1161 C1145 1.429 . S
C1161 C1157 1.429 . S
C1161 C1162 1.523 . S
C1162 C1146 1.368 . S
C1162 C1158 1.368 . S
C1162 C1161 1.523 . S
H1163 C1138 0.950 . S
H1164 C1140 0.950 . S
H1165 C1141 0.949 . S
H1166 C1143 0.950 . S
H1167 C1145 0.950 . S
C209 C0 1.070 . S
C214 C52 1.070 . S
C239 C65 1.070 . S
C244 C13 1.070 . S
C269 C26 1.071 . S
C274 C78 1.071 . S
C299 C39 1.071 . S
C304 C91 1.071 . S
C329 C104 1.125 . S
C334 C156 1.125 . S
C359 C169 1.126 . S
C364 C117 1.125 . S
C389 C130 1.125 . S
C394 C182 1.125 . S
C419 C143 1.125 . S
C424 C195 1.125 . S
C449 C8 1.086 . S
C454 C205 1.075 . S
C479 C166 1.075 . S
C484 C21 1.086 . S
C509 C34 1.085 . S
C514 C179 1.074 . S
C539 C192 1.075 . S
C544 C47 1.086 . S
C569 C127 1.075 . S
C574 C60 1.086 . S
C599 C140 1.075 . S
C604 C73 1.086 . S
C629 C153 1.074 . S
C634 C86 1.086 . S
C659 C114 1.074 . S
C664 C99 1.085 . S
C689 C112 0.994 . S
C694 C96 0.959 . S
C719 C57 0.959 . S
C724 C125 0.994 . S
C749 C70 0.959 . S
C754 C138 0.993 . S
C779 C151 0.993 . S
C784 C83 0.959 . S
C809 C18 0.959 . S
C814 C164 0.994 . S
C839 C177 0.994 . S
C844 C31 0.959 . S
C869 C190 0.993 . S
C874 C44 0.959 . S
C899 C203 0.993 . S
C904 C5 0.959 . S
C929 C101 1.233 . S
C934 C10 1.233 1_655 S
C959 C23 1.234 1_565 S
C964 C62 1.234 1_655 S
C989 C36 1.233 . S
C994 C75 1.233 1_565 S
C1019 C49 1.233 . S
C1024 C88 1.233 . S
C1049 C200 1.096 . S
C1054 C109 1.096 . S
C1079 C161 1.096 . S
C1084 C122 1.096 . S
C1109 C174 1.096 . S
C1114 C135 1.096 . S
C1139 C187 1.097 . S
C1144 C148 1.097 . S
