# Generated by pormake.
# Topology zfa, (5)-cn, num edge types: 1
# Building blocks:
#     Node 0, Type 0, BuildingBlock: XOMCOT_clean_sbu_1, # of connection points: 5
#     Node 1, Type 0, BuildingBlock: XOMCOT_clean_sbu_1, # of connection points: 5
#     Node 2, Type 0, BuildingBlock: XOMCOT_clean_sbu_1, # of connection points: 5
#     Node 3, Type 0, BuildingBlock: XOMCOT_clean_sbu_1, # of connection points: 5
#     Node 4, Type 0, BuildingBlock: XOMCOT_clean_sbu_1, # of connection points: 5
#     Node 5, Type 0, BuildingBlock: XOMCOT_clean_sbu_1, # of connection points: 5
#     Node 6, Type 0, BuildingBlock: XOMCOT_clean_sbu_1, # of connection points: 5
#     Node 7, Type 0, BuildingBlock: XOMCOT_clean_sbu_1, # of connection points: 5
#     Edge 8, Type (0, 0), BuildingBlock: OJICUG_clean_linker_0, # of connection points: 2
#     Edge 9, Type (0, 0), BuildingBlock: OJICUG_clean_linker_0, # of connection points: 2
#     Edge 10, Type (0, 0), BuildingBlock: OJICUG_clean_linker_0, # of connection points: 2
#     Edge 11, Type (0, 0), BuildingBlock: OJICUG_clean_linker_0, # of connection points: 2
#     Edge 12, Type (0, 0), BuildingBlock: OJICUG_clean_linker_0, # of connection points: 2
#     Edge 13, Type (0, 0), BuildingBlock: OJICUG_clean_linker_0, # of connection points: 2
#     Edge 14, Type (0, 0), BuildingBlock: OJICUG_clean_linker_0, # of connection points: 2
#     Edge 15, Type (0, 0), BuildingBlock: OJICUG_clean_linker_0, # of connection points: 2
#     Edge 16, Type (0, 0), BuildingBlock: OJICUG_clean_linker_0, # of connection points: 2
#     Edge 17, Type (0, 0), BuildingBlock: OJICUG_clean_linker_0, # of connection points: 2
#     Edge 18, Type (0, 0), BuildingBlock: OJICUG_clean_linker_0, # of connection points: 2
#     Edge 19, Type (0, 0), BuildingBlock: OJICUG_clean_linker_0, # of connection points: 2
#     Edge 20, Type (0, 0), BuildingBlock: OJICUG_clean_linker_0, # of connection points: 2
#     Edge 21, Type (0, 0), BuildingBlock: OJICUG_clean_linker_0, # of connection points: 2
#     Edge 22, Type (0, 0), BuildingBlock: OJICUG_clean_linker_0, # of connection points: 2
#     Edge 23, Type (0, 0), BuildingBlock: OJICUG_clean_linker_0, # of connection points: 2
#     Edge 24, Type (0, 0), BuildingBlock: OJICUG_clean_linker_0, # of connection points: 2
#     Edge 25, Type (0, 0), BuildingBlock: OJICUG_clean_linker_0, # of connection points: 2
#     Edge 26, Type (0, 0), BuildingBlock: OJICUG_clean_linker_0, # of connection points: 2
#     Edge 27, Type (0, 0), BuildingBlock: OJICUG_clean_linker_0, # of connection points: 2
# Relax obj value: 0.218
# Max RMSD: 0.179
# Mean RMSD: 0.179
data_MOF--net-zfa--node1-XOMCOT_clean_sbu_1--edge1-OJICUG_clean_linker_0
_symmetry_space_group_name_H-M    P1
_symmetry_Int_Tables_number       1
_symmetry_cell_setting            triclinic
loop_
_symmetry_equiv_pos_as_xyz
'x, y, z'
_cell_length_a     24.167462
_cell_length_b     24.163164
_cell_length_c     29.881578
_cell_angle_alpha  90.043947
_cell_angle_beta   89.993796
_cell_angle_gamma 90.002461
loop_
_atom_site_label
_atom_site_type_symbol
_atom_site_fract_x
_atom_site_fract_y
_atom_site_fract_z
_atom_type_partial_charge
C0 C 0.12434 0.17854 0.3047 0.0
C1 C 0.10551 0.12688 0.29312 0.0
N2 N 0.07765 0.10554 0.32824 0.0
N3 N 0.10965 0.18943 0.34732 0.0
C4 C 0.08137 0.14425 0.3608 0.0
H5 H 0.14502 0.20751 0.28276 0.0
Co6 Co 0.11298 0.25843 0.37536 0.0
C7 C 0.17134 0.2165 0.4589 0.0
O8 O 0.21841 0.23958 0.44758 0.0
N9 N 0.11292 0.32897 0.40266 0.0
C10 C 0.1191 0.4011 0.44888 0.0
C11 C 0.13893 0.349 0.43928 0.0
C12 C 0.07847 0.37041 0.39019 0.0
N13 N 0.08084 0.41438 0.418 0.0
O14 O 0.0352 0.25319 0.38597 0.0
H15 H 0.1691 0.32728 0.45902 0.0
H16 H 0.05007 0.36747 0.36236 0.0
O17 O 0.12818 0.22236 0.4343 0.0
C18 C 0.00991 0.26194 0.34925 0.0
O19 O 0.03864 0.27526 0.31352 0.0
N20 N 0.18879 0.26455 0.3596 0.0
C21 C 0.29005 0.26894 0.31446 0.0
C22 C 0.27389 0.22101 0.33731 0.0
C23 C 0.22302 0.21941 0.35914 0.0
C24 C 0.20421 0.31178 0.33781 0.0
C25 C 0.25503 0.31515 0.3156 0.0
H26 H 0.21019 0.18095 0.37446 0.0
H27 H 0.17588 0.34622 0.33532 0.0
H28 H 0.05998 0.14206 0.39255 0.0
H29 H 0.11018 0.10777 0.26061 0.0
H30 H 0.13113 0.42676 0.47695 0.0
H31 H 0.29995 0.18454 0.33775 0.0
H32 H 0.26565 0.35271 0.29781 0.0
C33 C 0.33837 0.62366 0.80474 0.0
C34 C 0.38996 0.60479 0.79306 0.0
N35 N 0.41153 0.57717 0.82821 0.0
N36 N 0.32775 0.60924 0.84744 0.0
C37 C 0.37301 0.58106 0.86087 0.0
H38 H 0.30926 0.64419 0.78283 0.0
Co39 Co 0.25895 0.61276 0.87572 0.0
C40 C 0.30125 0.6716 0.95892 0.0
O41 O 0.27774 0.71846 0.9476 0.0
N42 N 0.18857 0.61283 0.90325 0.0
C43 C 0.11683 0.61838 0.94987 0.0
C44 C 0.16895 0.63816 0.94035 0.0
C45 C 0.14687 0.57883 0.89048 0.0
N46 N 0.10313 0.58083 0.91852 0.0
O47 O 0.26422 0.53504 0.88653 0.0
H48 H 0.19101 0.66768 0.96051 0.0
H49 H 0.14951 0.55095 0.86227 0.0
O50 O 0.29542 0.62827 0.93446 0.0
C51 C 0.25503 0.50955 0.84996 0.0
O52 O 0.2414 0.53809 0.81422 0.0
N53 N 0.2528 0.68851 0.85981 0.0
C54 C 0.24823 0.78972 0.81467 0.0
C55 C 0.29632 0.7735 0.83727 0.0
C56 C 0.29799 0.72267 0.85913 0.0
C57 C 0.20543 0.70398 0.83824 0.0
C58 C 0.20198 0.7548 0.81604 0.0
H59 H 0.33652 0.70983 0.87433 0.0
H60 H 0.17092 0.67572 0.83593 0.0
H61 H 0.3754 0.55989 0.8927 0.0
H62 H 0.40889 0.60929 0.76047 0.0
H63 H 0.09148 0.62987 0.97827 0.0
H64 H 0.33283 0.79951 0.83752 0.0
H65 H 0.16428 0.7655 0.79846 0.0
C66 C 0.89445 0.83887 0.30496 0.0
C67 C 0.91328 0.89049 0.29334 0.0
N68 N 0.94124 0.91189 0.3284 0.0
N69 N 0.90924 0.82806 0.34755 0.0
C70 C 0.93759 0.87325 0.36097 0.0
H71 H 0.8737 0.80986 0.28306 0.0
Co72 Co 0.90595 0.75909 0.37556 0.0
C73 C 0.84779 0.80104 0.45924 0.0
O74 O 0.8007 0.77795 0.44798 0.0
N75 N 0.90605 0.68856 0.40281 0.0
C76 C 0.89985 0.61644 0.44894 0.0
C77 C 0.88 0.66852 0.4394 0.0
C78 C 0.94053 0.64713 0.39031 0.0
N79 N 0.93815 0.60317 0.41808 0.0
O80 O 0.98373 0.76433 0.38607 0.0
H81 H 0.84978 0.69021 0.45913 0.0
H82 H 0.96895 0.65008 0.3625 0.0
O83 O 0.8909 0.79518 0.43455 0.0
C84 C 1.00899 0.75555 0.34932 0.0
O85 O 0.98023 0.74219 0.31361 0.0
N86 N 0.83011 0.753 0.35994 0.0
C87 C 0.72878 0.74872 0.31492 0.0
C88 C 0.74503 0.79663 0.3378 0.0
C89 C 0.79592 0.79817 0.35958 0.0
C90 C 0.81459 0.70577 0.33813 0.0
C91 C 0.76373 0.70246 0.31598 0.0
H92 H 0.80882 0.83661 0.37493 0.0
H93 H 0.84287 0.6713 0.33557 0.0
H94 H 0.95906 0.87549 0.39269 0.0
H95 H 0.90852 0.90954 0.26083 0.0
H96 H 0.8878 0.59077 0.47698 0.0
H97 H 0.71902 0.83314 0.3383 0.0
H98 H 0.75302 0.6649 0.29817 0.0
C99 C 0.67831 0.39423 0.80475 0.0
C100 C 0.62666 0.41298 0.79318 0.0
N101 N 0.60534 0.44101 0.82826 0.0
N102 N 0.68924 0.40911 0.84731 0.0
C103 C 0.64407 0.43745 0.86078 0.0
H104 H 0.70727 0.37347 0.78282 0.0
Co105 Co 0.75831 0.40592 0.8752 0.0
C106 C 0.71667 0.34772 0.95895 0.0
O107 O 0.73957 0.30056 0.94759 0.0
N108 N 0.82893 0.40608 0.90232 0.0
C109 C 0.90131 0.39932 0.94814 0.0
C110 C 0.84925 0.37945 0.93851 0.0
C111 C 0.87015 0.44094 0.89012 0.0
N112 N 0.91427 0.43822 0.91771 0.0
O113 O 0.75302 0.48373 0.88577 0.0
H114 H 0.82781 0.34871 0.95787 0.0
H115 H 0.86698 0.46979 0.86263 0.0
O116 O 0.72248 0.39082 0.93427 0.0
C117 C 0.76147 0.50898 0.849 0.0
O118 O 0.77467 0.48023 0.81323 0.0
N119 N 0.76444 0.33009 0.85949 0.0
C120 C 0.76861 0.22886 0.81421 0.0
C121 C 0.72084 0.24495 0.83734 0.0
C122 C 0.71934 0.29581 0.85922 0.0
C123 C 0.81155 0.31471 0.83747 0.0
C124 C 0.8148 0.26391 0.81517 0.0
H125 H 0.68096 0.30862 0.8747 0.0
H126 H 0.84594 0.34308 0.83484 0.0
H127 H 0.6419 0.45899 0.89248 0.0
H128 H 0.60753 0.40813 0.7607 0.0
H129 H 0.92721 0.3868 0.97591 0.0
H130 H 0.6844 0.21886 0.83794 0.0
H131 H 0.85224 0.25334 0.79717 0.0
C132 C 0.62395 0.33904 0.2935 0.0
C133 C 0.60509 0.39066 0.30517 0.0
N134 N 0.57742 0.41219 0.27003 0.0
N135 N 0.60946 0.32835 0.25081 0.0
C136 C 0.58127 0.37361 0.23737 0.0
H137 H 0.64451 0.30996 0.31541 0.0
Co138 Co 0.61293 0.25949 0.22256 0.0
C139 C 0.67165 0.3017 0.13932 0.0
O140 O 0.71855 0.2783 0.15067 0.0
N141 N 0.61294 0.18905 0.19505 0.0
C142 C 0.61862 0.11722 0.14849 0.0
C143 C 0.63845 0.16932 0.15808 0.0
C144 C 0.57879 0.14743 0.20769 0.0
N145 N 0.58085 0.10364 0.17968 0.0
O146 O 0.53521 0.26476 0.21179 0.0
H147 H 0.66817 0.19127 0.13806 0.0
H148 H 0.55076 0.15016 0.23578 0.0
O149 O 0.62836 0.29586 0.16378 0.0
C150 C 0.50981 0.25561 0.2484 0.0
O151 O 0.53843 0.24204 0.28411 0.0
N152 N 0.6887 0.25333 0.23844 0.0
C153 C 0.78999 0.24873 0.28352 0.0
C154 C 0.77374 0.29683 0.26096 0.0
C155 C 0.72287 0.29852 0.23913 0.0
C156 C 0.7042 0.20595 0.25998 0.0
C157 C 0.75504 0.20248 0.28214 0.0
H158 H 0.71002 0.33706 0.22396 0.0
H159 H 0.67594 0.17144 0.26229 0.0
H160 H 0.56005 0.37595 0.20556 0.0
H161 H 0.60965 0.40963 0.33775 0.0
H162 H 0.63025 0.09179 0.12017 0.0
H163 H 0.79975 0.33334 0.26072 0.0
H164 H 0.76576 0.16477 0.29969 0.0
C165 C 0.17845 0.12412 0.79354 0.0
C166 C 0.12681 0.10536 0.80515 0.0
N167 N 0.10537 0.07747 0.77006 0.0
N168 N 0.18926 0.10937 0.75093 0.0
C169 C 0.14403 0.08111 0.73748 0.0
H170 H 0.20748 0.14479 0.81547 0.0
Co171 Co 0.25826 0.11266 0.72291 0.0
C172 C 0.21643 0.17109 0.63936 0.0
O173 O 0.23944 0.21818 0.65077 0.0
N174 N 0.32881 0.11256 0.69565 0.0
C175 C 0.40105 0.11914 0.64964 0.0
C176 C 0.34899 0.139 0.65931 0.0
C177 C 0.37013 0.07782 0.70789 0.0
N178 N 0.41416 0.08042 0.68019 0.0
O179 O 0.25294 0.03489 0.71223 0.0
H180 H 0.32744 0.16956 0.63986 0.0
H181 H 0.36707 0.04911 0.73548 0.0
O182 O 0.22226 0.12791 0.66394 0.0
C183 C 0.26166 0.00958 0.74894 0.0
O184 O 0.27502 0.03829 0.78469 0.0
N185 N 0.26442 0.18848 0.73872 0.0
C186 C 0.26877 0.28974 0.78394 0.0
C187 C 0.22087 0.27358 0.76104 0.0
C188 C 0.21929 0.22271 0.73916 0.0
C189 C 0.31164 0.2039 0.76055 0.0
C190 C 0.31498 0.25473 0.7828 0.0
H191 H 0.18085 0.20988 0.7238 0.0
H192 H 0.34607 0.17557 0.76304 0.0
H193 H 0.14177 0.05969 0.70573 0.0
H194 H 0.10776 0.11013 0.83767 0.0
H195 H 0.42683 0.13152 0.62176 0.0
H196 H 0.1844 0.29963 0.76059 0.0
H197 H 0.35254 0.26537 0.80063 0.0
C198 C 0.39469 0.67919 0.29345 0.0
C199 C 0.41351 0.62757 0.30507 0.0
N200 N 0.44138 0.60611 0.26997 0.0
N201 N 0.40937 0.68995 0.25082 0.0
C202 C 0.43767 0.64473 0.23738 0.0
H203 H 0.37401 0.70823 0.31536 0.0
Co204 Co 0.40602 0.7589 0.22278 0.0
C205 C 0.3477 0.71688 0.13921 0.0
O206 O 0.30061 0.7399 0.15056 0.0
N207 N 0.40608 0.82943 0.19549 0.0
C208 C 0.39969 0.90153 0.14936 0.0
C209 C 0.37985 0.84946 0.15899 0.0
C210 C 0.44066 0.87084 0.20784 0.0
N211 N 0.43817 0.91479 0.18007 0.0
O212 O 0.48378 0.75365 0.21218 0.0
H213 H 0.34948 0.82778 0.1394 0.0
H214 H 0.4692 0.8679 0.23557 0.0
O215 O 0.39086 0.72279 0.16381 0.0
C216 C 0.50906 0.76256 0.24889 0.0
O217 O 0.48034 0.77604 0.28459 0.0
N218 N 0.33019 0.765 0.23849 0.0
C219 C 0.22884 0.76936 0.28349 0.0
C220 C 0.24514 0.72136 0.26075 0.0
C221 C 0.29604 0.71979 0.23897 0.0
C222 C 0.31463 0.81229 0.26019 0.0
C223 C 0.26374 0.81565 0.28231 0.0
H224 H 0.30895 0.68131 0.22369 0.0
H225 H 0.34287 0.8468 0.26265 0.0
H226 H 0.45906 0.64244 0.20563 0.0
H227 H 0.40881 0.60857 0.3376 0.0
H228 H 0.38748 0.9272 0.12137 0.0
H229 H 0.21916 0.68484 0.26035 0.0
H230 H 0.25297 0.85328 0.3 0.0
C231 C 0.83801 0.8953 0.79355 0.0
C232 C 0.88958 0.91419 0.80528 0.0
N233 N 0.91127 0.94167 0.7701 0.0
N234 N 0.82751 0.90957 0.7508 0.0
C235 C 0.87283 0.93768 0.73738 0.0
H236 H 0.80883 0.87485 0.81545 0.0
Co237 Co 0.75879 0.90594 0.72242 0.0
C238 C 0.80121 0.84682 0.63942 0.0
O239 O 0.77754 0.80006 0.65081 0.0
N240 N 0.68845 0.90579 0.69479 0.0
C241 C 0.61686 0.90038 0.64802 0.0
C242 C 0.66897 0.8806 0.65759 0.0
C243 C 0.64669 0.93972 0.70757 0.0
N244 N 0.60304 0.93781 0.67944 0.0
O245 O 0.76409 0.98361 0.71147 0.0
H246 H 0.69111 0.85121 0.63736 0.0
H247 H 0.64923 0.96751 0.73583 0.0
O248 O 0.79541 0.89025 0.66376 0.0
C249 C 0.75466 0.00919 0.74798 0.0
O250 O 0.74086 0.98072 0.78371 0.0
N251 N 0.75262 0.83021 0.73845 0.0
C252 C 0.74796 0.72898 0.78356 0.0
C253 C 0.79615 0.74528 0.76114 0.0
C254 C 0.79785 0.79611 0.73928 0.0
C255 C 0.70516 0.81467 0.75987 0.0
C256 C 0.70166 0.76383 0.78204 0.0
H257 H 0.83642 0.80898 0.72416 0.0
H258 H 0.67059 0.84286 0.76205 0.0
H259 H 0.87532 0.95873 0.70551 0.0
H260 H 0.9084 0.90978 0.83791 0.0
H261 H 0.59162 0.88898 0.61954 0.0
H262 H 0.83269 0.71933 0.76101 0.0
H263 H 0.66387 0.75304 0.79947 0.0
C264 C 0.99162 0.53154 0.45824 0.0
C265 C 0.97369 0.55516 0.41779 0.0
H266 H 0.04016 0.46866 0.48995 0.0
C267 C 0.99203 0.53193 0.37726 0.0
H268 H 0.97875 0.54889 0.48998 0.0
C269 C 0.02703 0.48563 0.37724 0.0
C270 C 0.04531 0.46239 0.41776 0.0
H271 H 0.97875 0.54919 0.34562 0.0
H272 H 0.04035 0.46837 0.34558 0.0
C273 C 0.02733 0.48601 0.45822 0.0
C274 C 0.98513 0.49291 0.87723 0.0
C275 C 0.96224 0.47381 0.91764 0.0
H276 H 0.04845 0.54178 0.84586 0.0
C277 C 0.98621 0.49099 0.95819 0.0
H278 H 0.9676 0.48022 0.84551 0.0
C279 C 0.03176 0.52667 0.9584 0.0
C280 C 0.05505 0.54539 0.91806 0.0
H281 H 0.96914 0.47752 0.98985 0.0
H282 H 0.0494 0.53889 0.99021 0.0
C283 C 0.03144 0.52788 0.87743 0.0
C284 C 0.49247 0.98589 0.2207 0.0
C285 C 0.47372 0.9628 0.18024 0.0
H286 H 0.5411 0.04932 0.25222 0.0
C287 C 0.49126 0.98658 0.13974 0.0
H288 H 0.47949 0.96852 0.2524 0.0
C289 C 0.52697 0.03212 0.13963 0.0
C290 C 0.54536 0.05559 0.18003 0.0
H291 H 0.47808 0.96936 0.10803 0.0
H292 H 0.53947 0.0496 0.10786 0.0
C293 C 0.52747 0.03218 0.22061 0.0
C294 C 0.53134 0.9908 0.7205 0.0
C295 C 0.55495 0.97325 0.67988 0.0
H296 H 0.46752 0.03851 0.75241 0.0
C297 C 0.53167 0.99195 0.63953 0.0
H298 H 0.54833 0.97692 0.75208 0.0
C299 C 0.48612 0.02763 0.63973 0.0
C300 C 0.46215 0.04485 0.68027 0.0
H301 H 0.54931 0.97972 0.60773 0.0
H302 H 0.46906 0.04106 0.60806 0.0
C303 C 0.48504 0.02578 0.72068 0.0
C304 C 0.43267 0.31271 0.27619 0.0
C305 C 0.4505 0.26505 0.2536 0.0
H306 H 0.36742 0.35144 0.31322 0.0
C307 C 0.41358 0.2213 0.24663 0.0
H308 H 0.46128 0.34631 0.28275 0.0
C309 C 0.36016 0.22386 0.26438 0.0
C310 C 0.34318 0.27008 0.28963 0.0
H311 H 0.42719 0.18374 0.23012 0.0
H312 H 0.33292 0.18867 0.25998 0.0
C313 C 0.3792 0.31544 0.29381 0.0
C314 C 0.20466 0.93267 0.7772 0.0
C315 C 0.25203 0.9503 0.75415 0.0
H316 H 0.16617 0.86749 0.81443 0.0
C317 C 0.29543 0.91314 0.7466 0.0
H318 H 0.17134 0.96145 0.78418 0.0
C319 C 0.29286 0.85967 0.76425 0.0
C320 C 0.24697 0.84288 0.78993 0.0
H321 H 0.33277 0.92658 0.72972 0.0
H322 H 0.32782 0.83224 0.75945 0.0
C323 C 0.20191 0.87914 0.79468 0.0
C324 C 0.6054 0.79653 0.24709 0.0
C325 C 0.56833 0.75296 0.25416 0.0
H326 H 0.6862 0.82891 0.26035 0.0
C327 C 0.58598 0.70533 0.27684 0.0
H328 H 0.59193 0.83406 0.23051 0.0
C329 C 0.63946 0.70247 0.29442 0.0
C330 C 0.67564 0.74767 0.29013 0.0
H331 H 0.55725 0.67186 0.28346 0.0
H332 H 0.65113 0.66651 0.31387 0.0
C333 C 0.65883 0.79385 0.26481 0.0
C334 C 0.72309 0.15881 0.76433 0.0
C335 C 0.76956 0.17578 0.78924 0.0
H336 H 0.6826 0.09178 0.73033 0.0
C337 C 0.81499 0.13979 0.79298 0.0
H338 H 0.68784 0.18603 0.76025 0.0
C339 C 0.81211 0.08634 0.77529 0.0
C340 C 0.7642 0.0685 0.75308 0.0
H341 H 0.85119 0.15157 0.81212 0.0
H342 H 0.84579 0.05774 0.78154 0.0
C343 C 0.72035 0.1054 0.74654 0.0
C344 C 0.93294 0.20504 0.3209 0.0
C345 C 0.95062 0.25239 0.344 0.0
H346 H 0.86771 0.16661 0.28365 0.0
C347 C 0.91351 0.29583 0.35158 0.0
H348 H 0.96168 0.17169 0.3139 0.0
C349 C 0.86004 0.29331 0.33393 0.0
C350 C 0.84319 0.24743 0.30822 0.0
H351 H 0.927 0.33316 0.36849 0.0
H352 H 0.83265 0.32829 0.33876 0.0
C353 C 0.8794 0.20234 0.30342 0.0
C354 C 0.22096 0.41323 0.85178 0.0
C355 C 0.26462 0.45025 0.8448 0.0
H356 H 0.1885 0.33248 0.83845 0.0
C357 C 0.3123 0.43248 0.82223 0.0
H358 H 0.18338 0.42679 0.86827 0.0
C359 C 0.31514 0.37898 0.80463 0.0
C360 C 0.26986 0.34287 0.80881 0.0
H361 H 0.34583 0.46116 0.81566 0.0
H362 H 0.35114 0.36724 0.78523 0.0
C363 C 0.22363 0.35978 0.83406 0.0
C364 C 0.08583 0.81267 0.32108 0.0
C365 C 0.06825 0.76521 0.34402 0.0
H366 H 0.15098 0.85135 0.28394 0.0
C367 C 0.10543 0.72181 0.35143 0.0
H368 H 0.05702 0.846 0.31422 0.0
C369 C 0.15889 0.72449 0.33376 0.0
C370 C 0.17564 0.77049 0.30821 0.0
H371 H 0.09202 0.6844 0.36822 0.0
H372 H 0.18634 0.68954 0.33846 0.0
C373 C 0.13935 0.81553 0.30358 0.0
C374 C 0.79227 0.65909 0.83419 0.0
C375 C 0.74661 0.67576 0.8082 0.0
H376 H 0.83204 0.59225 0.86891 0.0
C377 C 0.70177 0.63932 0.80301 0.0
H378 H 0.82705 0.68666 0.8393 0.0
C379 C 0.70456 0.58574 0.82038 0.0
C380 C 0.75172 0.56825 0.84377 0.0
H381 H 0.66623 0.6509 0.78302 0.0
H382 H 0.67145 0.55684 0.81308 0.0
C383 C 0.79485 0.60558 0.85176 0.0
C384 C 0.13814 0.21756 0.53769 0.0
C385 C 0.16847 0.1913 0.50377 0.0
H386 H 0.12999 0.2312 0.60838 0.0
C387 C 0.20689 0.15006 0.51547 0.0
H388 H 0.10936 0.25042 0.52952 0.0
C389 C 0.2177 0.13803 0.56052 0.0
C390 C 0.19131 0.16824 0.59444 0.0
H391 H 0.23153 0.13008 0.48983 0.0
H392 H 0.25059 0.10928 0.56868 0.0
C393 C 0.15005 0.20663 0.58273 0.0
C394 C 0.31304 0.64989 0.08264 0.0
C395 C 0.35065 0.69194 0.09423 0.0
H396 H 0.26951 0.60849 1.02959 0.0
C397 C 0.37979 0.71921 0.06019 0.0
H398 H 0.28925 0.62915 0.1084 0.0
C399 C 0.36744 0.70838 1.0152 0.0
C400 C 0.32693 0.66911 1.00364 0.0
H401 H 0.40789 0.7527 0.06829 0.0
H402 H 0.38654 0.73361 0.98952 0.0
C403 C 0.30181 0.63798 1.03762 0.0
C404 C 0.86722 0.80945 0.58325 0.0
C405 C 0.82702 0.84907 0.59473 0.0
H406 H 0.90743 0.76475 0.53026 0.0
C407 C 0.80229 0.88042 0.5607 0.0
H408 H 0.88602 0.78406 0.60897 0.0
C409 C 0.81355 0.8684 0.5157 0.0
C410 C 0.85083 0.82602 0.50419 0.0
H411 H 0.77023 0.91019 0.56867 0.0
H412 H 0.79003 0.88933 0.48989 0.0
C413 C 0.87961 0.7985 0.53829 0.0
C414 C 0.70836 0.36776 0.08294 0.0
C415 C 0.6691 0.32727 0.09456 0.0
H416 H 0.75262 0.40806 1.02981 0.0
C417 C 0.63792 0.30208 0.06062 0.0
H418 H 0.73363 0.38691 0.1086 0.0
C419 C 0.64977 0.3132 1.01559 0.0
C420 C 0.69181 0.35077 1.00394 0.0
H421 H 0.60844 0.26981 0.06871 0.0
H422 H 0.62899 0.28936 0.98987 0.0
C423 C 0.71913 0.37999 1.03794 0.0
C424 C 0.99254 0.98526 0.2882 0.0
C425 C 0.97499 0.96125 0.32863 0.0
H426 H 0.03775 0.04953 0.2562 0.0
C427 C 0.99243 0.98538 0.36911 0.0
H428 H 0.98096 0.96772 0.25627 0.0
C429 C 0.02662 0.03212 0.36907 0.0
C430 C 0.04393 0.05616 0.32855 0.0
H431 H 0.97951 0.96842 0.40093 0.0
H432 H 0.03962 0.04915 0.40086 0.0
C433 C 0.02626 0.03206 0.28816 0.0
C434 C 0.48493 0.52572 0.78808 0.0
C435 C 0.46096 0.54352 0.82848 0.0
H436 H 0.54919 0.48039 0.75615 0.0
C437 C 0.48517 0.5264 0.86899 0.0
H438 H 0.46733 0.53706 0.75613 0.0
C439 C 0.53196 0.49228 0.86901 0.0
C440 C 0.55595 0.4747 0.82851 0.0
H441 H 0.46826 0.53951 0.90079 0.0
H442 H 0.54905 0.47951 0.90082 0.0
C443 C 0.53177 0.49207 0.7881 0.0
C444 C 0.49248 0.53259 0.22923 0.0
C445 C 0.47505 0.55669 0.26972 0.0
H446 H 0.53958 0.46877 0.19744 0.0
C447 C 0.49252 0.53259 0.31013 0.0
H448 H 0.47964 0.54961 0.19741 0.0
C449 C 0.52614 0.48572 0.31015 0.0
C450 C 0.5438 0.46163 0.26975 0.0
H451 H 0.48095 0.5501 0.34208 0.0
H452 H 0.53755 0.46819 0.3421 0.0
C453 C 0.52658 0.48577 0.22924 0.0
C454 C 0.03167 0.02655 0.81021 0.0
C455 C 0.05591 0.04387 0.7698 0.0
H456 H 0.96712 0.98171 0.84218 0.0
C457 C 0.03189 0.02634 0.7293 0.0
H458 H 0.0491 0.0382 0.84216 0.0
C459 C 0.98503 0.99231 0.72932 0.0
C460 C 0.96075 0.97524 0.76983 0.0
H461 H 0.04901 0.03906 0.69749 0.0
H462 H 0.96811 0.97923 0.69752 0.0
C463 C 0.98475 0.993 0.81023 0.0
loop_
_geom_bond_atom_site_label_1
_geom_bond_atom_site_label_2
_geom_bond_distance
_geom_bond_site_symmetry_2
_ccdc_geom_bond_type
C0 C1 1.351 . S
C0 N3 1.368 . S
C0 H5 0.924 1_455 S
C1 C0 1.351 . S
C1 N2 1.373 . S
C1 H29 0.930 . S
N2 C1 1.373 . S
N2 C4 1.340 . S
N3 C0 1.368 . S
N3 C4 1.321 . S
N3 Co6 2.135 . S
C4 N2 1.340 . S
C4 N3 1.321 . S
C4 H28 0.930 . S
H5 C0 0.924 1_655 S
Co6 N3 2.135 . S
Co6 N9 2.121 . S
Co6 O14 2.055 1_455 S
Co6 O17 2.039 . S
Co6 N20 2.140 . S
C7 O8 1.227 . S
C7 O17 1.265 . S
O8 C7 1.227 . S
N9 Co6 2.121 . S
N9 C11 1.375 . S
N9 C12 1.313 . S
C10 C11 1.338 . S
C10 N13 1.377 . S
C10 H30 0.930 . S
C11 N9 1.375 . S
C11 C10 1.338 . S
C11 H15 0.931 . S
C12 N9 1.313 . S
C12 N13 1.344 . S
C12 H16 0.930 1_455 S
N13 C10 1.377 . S
N13 C12 1.344 . S
O14 Co6 2.055 1_655 S
O14 C18 1.253 . S
H15 C11 0.931 . S
H16 C12 0.930 1_655 S
O17 Co6 2.039 . S
O17 C7 1.265 . S
C18 O14 1.253 . S
C18 O19 1.227 . S
O19 C18 1.227 . S
N20 Co6 2.140 . S
N20 C23 1.346 . S
N20 C24 1.345 . S
C21 C22 1.387 . S
C21 C25 1.391 . S
C22 C21 1.387 . S
C22 C23 1.369 . S
C22 H31 0.929 . S
C23 N20 1.346 . S
C23 C22 1.369 . S
C23 H26 0.928 . S
C24 N20 1.345 . S
C24 C25 1.371 . S
C24 H27 0.931 . S
C25 C21 1.391 . S
C25 C24 1.371 . S
C25 H32 0.930 . S
H26 C23 0.928 . S
H27 C24 0.931 . S
H28 C4 0.930 . S
H29 C1 0.930 . S
H30 C10 0.930 . S
H31 C22 0.929 . S
H32 C25 0.930 . S
C33 C34 1.351 . S
C33 N36 1.368 . S
C33 H38 0.931 . S
C34 C33 1.351 . S
C34 N35 1.373 . S
C34 H62 0.930 . S
N35 C34 1.373 . S
N35 C37 1.340 . S
N36 C33 1.368 . S
N36 C37 1.321 . S
N36 Co39 2.135 . S
C37 N35 1.340 . S
C37 N36 1.321 . S
C37 H61 0.930 . S
H38 C33 0.931 . S
Co39 N36 2.135 . S
Co39 N42 2.121 . S
Co39 O47 2.055 . S
Co39 O50 2.039 . S
Co39 N53 2.140 . S
C40 O41 1.227 . S
C40 O50 1.265 . S
O41 C40 1.227 . S
N42 Co39 2.121 . S
N42 C44 1.375 . S
N42 C45 1.313 . S
C43 C44 1.338 . S
C43 N46 1.377 . S
C43 H63 0.930 . S
C44 N42 1.375 . S
C44 C43 1.338 . S
C44 H48 0.931 . S
C45 N42 1.313 . S
C45 N46 1.344 . S
C45 H49 0.930 . S
N46 C43 1.377 . S
N46 C45 1.344 . S
O47 Co39 2.055 . S
O47 C51 1.253 . S
H48 C44 0.931 . S
H49 C45 0.930 . S
O50 Co39 2.039 . S
O50 C40 1.265 . S
C51 O47 1.253 . S
C51 O52 1.227 . S
O52 C51 1.227 . S
N53 Co39 2.140 . S
N53 C56 1.346 . S
N53 C57 1.345 . S
C54 C55 1.387 . S
C54 C58 1.391 . S
C55 C54 1.387 . S
C55 C56 1.369 . S
C55 H64 0.929 . S
C56 N53 1.346 . S
C56 C55 1.369 . S
C56 H59 0.928 . S
C57 N53 1.345 . S
C57 C58 1.371 . S
C57 H60 0.931 . S
C58 C54 1.391 . S
C58 C57 1.371 . S
C58 H65 0.930 . S
H59 C56 0.928 . S
H60 C57 0.931 . S
H61 C37 0.930 . S
H62 C34 0.930 . S
H63 C43 0.930 . S
H64 C55 0.929 . S
H65 C58 0.930 . S
C66 C67 1.351 . S
C66 N69 1.368 . S
C66 H71 0.924 1_655 S
C67 C66 1.351 . S
C67 N68 1.373 . S
C67 H95 0.930 . S
N68 C67 1.373 . S
N68 C70 1.340 . S
N69 C66 1.368 . S
N69 C70 1.321 . S
N69 Co72 2.135 . S
C70 N68 1.340 . S
C70 N69 1.321 . S
C70 H94 0.930 . S
H71 C66 0.924 1_455 S
Co72 N69 2.135 . S
Co72 N75 2.121 . S
Co72 O80 2.055 1_655 S
Co72 O83 2.039 . S
Co72 N86 2.140 . S
C73 O74 1.227 . S
C73 O83 1.265 . S
O74 C73 1.227 . S
N75 Co72 2.121 . S
N75 C77 1.375 . S
N75 C78 1.313 . S
C76 C77 1.338 . S
C76 N79 1.377 . S
C76 H96 0.930 . S
C77 N75 1.375 . S
C77 C76 1.338 . S
C77 H81 0.931 . S
C78 N75 1.313 . S
C78 N79 1.344 . S
C78 H82 0.930 1_655 S
N79 C76 1.377 . S
N79 C78 1.344 . S
O80 Co72 2.055 1_455 S
O80 C84 1.253 . S
H81 C77 0.931 . S
H82 C78 0.930 1_455 S
O83 Co72 2.039 . S
O83 C73 1.265 . S
C84 O80 1.253 . S
C84 O85 1.227 . S
O85 C84 1.227 . S
N86 Co72 2.140 . S
N86 C89 1.346 . S
N86 C90 1.345 . S
C87 C88 1.387 . S
C87 C91 1.391 . S
C88 C87 1.387 . S
C88 C89 1.369 . S
C88 H97 0.929 . S
C89 N86 1.346 . S
C89 C88 1.369 . S
C89 H92 0.928 . S
C90 N86 1.345 . S
C90 C91 1.371 . S
C90 H93 0.931 . S
C91 C87 1.391 . S
C91 C90 1.371 . S
C91 H98 0.930 . S
H92 C89 0.928 . S
H93 C90 0.931 . S
H94 C70 0.930 . S
H95 C67 0.930 . S
H96 C76 0.930 . S
H97 C88 0.929 . S
H98 C91 0.930 . S
C99 C100 1.351 . S
C99 N102 1.368 . S
C99 H104 0.931 . S
C100 C99 1.351 . S
C100 N101 1.373 . S
C100 H128 0.930 . S
N101 C100 1.373 . S
N101 C103 1.340 . S
N102 C99 1.368 . S
N102 C103 1.321 . S
N102 Co105 2.135 . S
C103 N101 1.340 . S
C103 N102 1.321 . S
C103 H127 0.930 . S
H104 C99 0.931 . S
Co105 N102 2.135 . S
Co105 N108 2.121 . S
Co105 O113 2.055 . S
Co105 O116 2.039 . S
Co105 N119 2.140 . S
C106 O107 1.227 . S
C106 O116 1.265 . S
O107 C106 1.227 . S
N108 Co105 2.121 . S
N108 C110 1.375 . S
N108 C111 1.313 . S
C109 C110 1.338 . S
C109 N112 1.377 . S
C109 H129 0.930 . S
C110 N108 1.375 . S
C110 C109 1.338 . S
C110 H114 0.931 . S
C111 N108 1.313 . S
C111 N112 1.344 . S
C111 H115 0.930 . S
N112 C109 1.377 . S
N112 C111 1.344 . S
O113 Co105 2.055 . S
O113 C117 1.253 . S
H114 C110 0.931 . S
H115 C111 0.930 . S
O116 Co105 2.039 . S
O116 C106 1.265 . S
C117 O113 1.253 . S
C117 O118 1.227 . S
O118 C117 1.227 . S
N119 Co105 2.140 . S
N119 C122 1.346 . S
N119 C123 1.345 . S
C120 C121 1.387 . S
C120 C124 1.391 . S
C121 C120 1.387 . S
C121 C122 1.369 . S
C121 H130 0.929 . S
C122 N119 1.346 . S
C122 C121 1.369 . S
C122 H125 0.928 . S
C123 N119 1.345 . S
C123 C124 1.371 . S
C123 H126 0.931 . S
C124 C120 1.391 . S
C124 C123 1.371 . S
C124 H131 0.930 . S
H125 C122 0.928 . S
H126 C123 0.931 . S
H127 C103 0.930 . S
H128 C100 0.930 . S
H129 C109 0.930 . S
H130 C121 0.929 . S
H131 C124 0.930 . S
C132 C133 1.351 . S
C132 N135 1.368 . S
C132 H137 0.931 . S
C133 C132 1.351 . S
C133 N134 1.373 . S
C133 H161 0.930 . S
N134 C133 1.373 . S
N134 C136 1.340 . S
N135 C132 1.368 . S
N135 C136 1.321 . S
N135 Co138 2.135 . S
C136 N134 1.340 . S
C136 N135 1.321 . S
C136 H160 0.930 . S
H137 C132 0.931 . S
Co138 N135 2.135 . S
Co138 N141 2.121 . S
Co138 O146 2.055 . S
Co138 O149 2.039 . S
Co138 N152 2.140 . S
C139 O140 1.227 . S
C139 O149 1.265 . S
O140 C139 1.227 . S
N141 Co138 2.121 . S
N141 C143 1.375 . S
N141 C144 1.313 . S
C142 C143 1.338 . S
C142 N145 1.377 . S
C142 H162 0.930 . S
C143 N141 1.375 . S
C143 C142 1.338 . S
C143 H147 0.931 . S
C144 N141 1.313 . S
C144 N145 1.344 . S
C144 H148 0.930 . S
N145 C142 1.377 . S
N145 C144 1.344 . S
O146 Co138 2.055 . S
O146 C150 1.253 . S
H147 C143 0.931 . S
H148 C144 0.930 . S
O149 Co138 2.039 . S
O149 C139 1.265 . S
C150 O146 1.253 . S
C150 O151 1.227 . S
O151 C150 1.227 . S
N152 Co138 2.140 . S
N152 C155 1.346 . S
N152 C156 1.345 . S
C153 C154 1.387 . S
C153 C157 1.391 . S
C154 C153 1.387 . S
C154 C155 1.369 . S
C154 H163 0.929 . S
C155 N152 1.346 . S
C155 C154 1.369 . S
C155 H158 0.928 . S
C156 N152 1.345 . S
C156 C157 1.371 . S
C156 H159 0.931 . S
C157 C153 1.391 . S
C157 C156 1.371 . S
C157 H164 0.930 . S
H158 C155 0.928 . S
H159 C156 0.931 . S
H160 C136 0.930 . S
H161 C133 0.930 . S
H162 C142 0.930 . S
H163 C154 0.929 . S
H164 C157 0.930 . S
C165 C166 1.351 . S
C165 N168 1.368 . S
C165 H170 0.924 1_545 S
C166 C165 1.351 . S
C166 N167 1.373 . S
C166 H194 0.930 . S
N167 C166 1.373 . S
N167 C169 1.340 . S
N168 C165 1.368 . S
N168 C169 1.321 . S
N168 Co171 2.135 . S
C169 N167 1.340 . S
C169 N168 1.321 . S
C169 H193 0.930 . S
H170 C165 0.924 1_565 S
Co171 N168 2.135 . S
Co171 N174 2.121 . S
Co171 O179 2.055 1_545 S
Co171 O182 2.039 . S
Co171 N185 2.140 . S
C172 O173 1.227 . S
C172 O182 1.265 . S
O173 C172 1.227 . S
N174 Co171 2.121 . S
N174 C176 1.375 . S
N174 C177 1.313 . S
C175 C176 1.338 . S
C175 N178 1.377 . S
C175 H195 0.930 . S
C176 N174 1.375 . S
C176 C175 1.338 . S
C176 H180 0.931 . S
C177 N174 1.313 . S
C177 N178 1.344 . S
C177 H181 0.930 1_545 S
N178 C175 1.377 . S
N178 C177 1.344 . S
O179 Co171 2.055 1_565 S
O179 C183 1.253 . S
H180 C176 0.931 . S
H181 C177 0.930 1_565 S
O182 Co171 2.039 . S
O182 C172 1.265 . S
C183 O179 1.253 . S
C183 O184 1.227 . S
O184 C183 1.227 . S
N185 Co171 2.140 . S
N185 C188 1.346 . S
N185 C189 1.345 . S
C186 C187 1.387 . S
C186 C190 1.391 . S
C187 C186 1.387 . S
C187 C188 1.369 . S
C187 H196 0.929 . S
C188 N185 1.346 . S
C188 C187 1.369 . S
C188 H191 0.928 . S
C189 N185 1.345 . S
C189 C190 1.371 . S
C189 H192 0.931 . S
C190 C186 1.391 . S
C190 C189 1.371 . S
C190 H197 0.930 . S
H191 C188 0.928 . S
H192 C189 0.931 . S
H193 C169 0.930 . S
H194 C166 0.930 . S
H195 C175 0.930 . S
H196 C187 0.929 . S
H197 C190 0.930 . S
C198 C199 1.351 . S
C198 N201 1.368 . S
C198 H203 0.931 . S
C199 C198 1.351 . S
C199 N200 1.373 . S
C199 H227 0.930 . S
N200 C199 1.373 . S
N200 C202 1.340 . S
N201 C198 1.368 . S
N201 C202 1.321 . S
N201 Co204 2.135 . S
C202 N200 1.340 . S
C202 N201 1.321 . S
C202 H226 0.930 . S
H203 C198 0.931 . S
Co204 N201 2.135 . S
Co204 N207 2.121 . S
Co204 O212 2.055 . S
Co204 O215 2.039 . S
Co204 N218 2.140 . S
C205 O206 1.227 . S
C205 O215 1.265 . S
O206 C205 1.227 . S
N207 Co204 2.121 . S
N207 C209 1.375 . S
N207 C210 1.313 . S
C208 C209 1.338 . S
C208 N211 1.377 . S
C208 H228 0.930 . S
C209 N207 1.375 . S
C209 C208 1.338 . S
C209 H213 0.931 . S
C210 N207 1.313 . S
C210 N211 1.344 . S
C210 H214 0.930 . S
N211 C208 1.377 . S
N211 C210 1.344 . S
O212 Co204 2.055 . S
O212 C216 1.253 . S
H213 C209 0.931 . S
H214 C210 0.930 . S
O215 Co204 2.039 . S
O215 C205 1.265 . S
C216 O212 1.253 . S
C216 O217 1.227 . S
O217 C216 1.227 . S
N218 Co204 2.140 . S
N218 C221 1.346 . S
N218 C222 1.345 . S
C219 C220 1.387 . S
C219 C223 1.391 . S
C220 C219 1.387 . S
C220 C221 1.369 . S
C220 H229 0.929 . S
C221 N218 1.346 . S
C221 C220 1.369 . S
C221 H224 0.928 . S
C222 N218 1.345 . S
C222 C223 1.371 . S
C222 H225 0.931 . S
C223 C219 1.391 . S
C223 C222 1.371 . S
C223 H230 0.930 . S
H224 C221 0.928 . S
H225 C222 0.931 . S
H226 C202 0.930 . S
H227 C199 0.930 . S
H228 C208 0.930 . S
H229 C220 0.929 . S
H230 C223 0.930 . S
C231 C232 1.351 . S
C231 N234 1.368 . S
C231 H236 0.924 1_565 S
C232 C231 1.351 . S
C232 N233 1.373 . S
C232 H260 0.930 . S
N233 C232 1.373 . S
N233 C235 1.340 . S
N234 C231 1.368 . S
N234 C235 1.321 . S
N234 Co237 2.135 . S
C235 N233 1.340 . S
C235 N234 1.321 . S
C235 H259 0.930 . S
H236 C231 0.924 1_545 S
Co237 N234 2.135 . S
Co237 N240 2.121 . S
Co237 O245 2.055 1_565 S
Co237 O248 2.039 . S
Co237 N251 2.140 . S
C238 O239 1.227 . S
C238 O248 1.265 . S
O239 C238 1.227 . S
N240 Co237 2.121 . S
N240 C242 1.375 . S
N240 C243 1.313 . S
C241 C242 1.338 . S
C241 N244 1.377 . S
C241 H261 0.930 . S
C242 N240 1.375 . S
C242 C241 1.338 . S
C242 H246 0.931 . S
C243 N240 1.313 . S
C243 N244 1.344 . S
C243 H247 0.930 1_565 S
N244 C241 1.377 . S
N244 C243 1.344 . S
O245 Co237 2.055 1_545 S
O245 C249 1.253 . S
H246 C242 0.931 . S
H247 C243 0.930 1_545 S
O248 Co237 2.039 . S
O248 C238 1.265 . S
C249 O245 1.253 . S
C249 O250 1.227 . S
O250 C249 1.227 . S
N251 Co237 2.140 . S
N251 C254 1.346 . S
N251 C255 1.345 . S
C252 C253 1.387 . S
C252 C256 1.391 . S
C253 C252 1.387 . S
C253 C254 1.369 . S
C253 H262 0.929 . S
C254 N251 1.346 . S
C254 C253 1.369 . S
C254 H257 0.928 . S
C255 N251 1.345 . S
C255 C256 1.371 . S
C255 H258 0.931 . S
C256 C252 1.391 . S
C256 C255 1.371 . S
C256 H263 0.930 . S
H257 C254 0.928 . S
H258 C255 0.931 . S
H259 C235 0.930 . S
H260 C232 0.930 . S
H261 C241 0.930 . S
H262 C253 0.929 . S
H263 C256 0.930 . S
C264 C265 1.387 . S
C264 H268 0.950 . S
C264 C273 1.390 1_655 S
C265 C264 1.387 . S
C265 C267 1.387 . S
H266 C273 0.950 . S
C267 C265 1.387 . S
C267 C269 1.390 1_655 S
C267 H271 0.950 . S
H268 C264 0.950 . S
C269 C267 1.390 1_455 S
C269 C270 1.387 . S
C269 H272 0.950 . S
C270 C269 1.387 . S
C270 C273 1.387 . S
H271 C267 0.950 . S
H272 C269 0.950 . S
C273 C264 1.390 1_455 S
C273 H266 0.950 . S
C273 C270 1.387 . S
C274 C275 1.387 . S
C274 H278 0.950 . S
C274 C283 1.390 1_655 S
C275 C274 1.387 . S
C275 C277 1.387 . S
H276 C283 0.950 . S
C277 C275 1.387 . S
C277 C279 1.390 1_655 S
C277 H281 0.950 . S
H278 C274 0.950 . S
C279 C277 1.390 1_455 S
C279 C280 1.387 . S
C279 H282 0.950 . S
C280 C279 1.387 . S
C280 C283 1.387 . S
H281 C277 0.950 . S
H282 C279 0.950 . S
C283 C274 1.390 1_455 S
C283 H276 0.950 . S
C283 C280 1.387 . S
C284 C285 1.387 . S
C284 H288 0.950 . S
C284 C293 1.390 1_565 S
C285 C284 1.387 . S
C285 C287 1.387 . S
H286 C293 0.950 . S
C287 C285 1.387 . S
C287 C289 1.390 1_565 S
C287 H291 0.950 . S
H288 C284 0.950 . S
C289 C287 1.390 1_545 S
C289 C290 1.387 . S
C289 H292 0.950 . S
C290 C289 1.387 . S
C290 C293 1.387 . S
H291 C287 0.950 . S
H292 C289 0.950 . S
C293 C284 1.390 1_545 S
C293 H286 0.950 . S
C293 C290 1.387 . S
C294 C295 1.387 . S
C294 H298 0.950 . S
C294 C303 1.390 1_565 S
C295 C294 1.387 . S
C295 C297 1.387 . S
H296 C303 0.950 . S
C297 C295 1.387 . S
C297 C299 1.390 1_565 S
C297 H301 0.950 . S
H298 C294 0.950 . S
C299 C297 1.390 1_545 S
C299 C300 1.387 . S
C299 H302 0.950 . S
C300 C299 1.387 . S
C300 C303 1.387 . S
H301 C297 0.950 . S
H302 C299 0.950 . S
C303 C294 1.390 1_545 S
C303 H296 0.950 . S
C303 C300 1.387 . S
C304 C305 1.387 . S
C304 H308 0.950 . S
C304 C313 1.390 . S
C305 C304 1.387 . S
C305 C307 1.387 . S
H306 C313 0.950 . S
C307 C305 1.387 . S
C307 C309 1.390 . S
C307 H311 0.950 . S
H308 C304 0.950 . S
C309 C307 1.390 . S
C309 C310 1.387 . S
C309 H312 0.950 . S
C310 C309 1.387 . S
C310 C313 1.387 . S
H311 C307 0.950 . S
H312 C309 0.950 . S
C313 C304 1.390 . S
C313 H306 0.950 . S
C313 C310 1.387 . S
C314 C315 1.387 . S
C314 H318 0.950 . S
C314 C323 1.390 . S
C315 C314 1.387 . S
C315 C317 1.387 . S
H316 C323 0.950 . S
C317 C315 1.387 . S
C317 C319 1.390 . S
C317 H321 0.950 . S
H318 C314 0.950 . S
C319 C317 1.390 . S
C319 C320 1.387 . S
C319 H322 0.950 . S
C320 C319 1.387 . S
C320 C323 1.387 . S
H321 C317 0.950 . S
H322 C319 0.950 . S
C323 C314 1.390 . S
C323 H316 0.950 . S
C323 C320 1.387 . S
C324 C325 1.387 . S
C324 H328 0.950 . S
C324 C333 1.390 . S
C325 C324 1.387 . S
C325 C327 1.387 . S
H326 C333 0.950 . S
C327 C325 1.387 . S
C327 C329 1.390 . S
C327 H331 0.950 . S
H328 C324 0.950 . S
C329 C327 1.390 . S
C329 C330 1.387 . S
C329 H332 0.950 . S
C330 C329 1.387 . S
C330 C333 1.387 . S
H331 C327 0.950 . S
H332 C329 0.950 . S
C333 C324 1.390 . S
C333 H326 0.950 . S
C333 C330 1.387 . S
C334 C335 1.387 . S
C334 H338 0.950 . S
C334 C343 1.390 . S
C335 C334 1.387 . S
C335 C337 1.387 . S
H336 C343 0.950 . S
C337 C335 1.387 . S
C337 C339 1.390 . S
C337 H341 0.950 . S
H338 C334 0.950 . S
C339 C337 1.390 . S
C339 C340 1.387 . S
C339 H342 0.950 . S
C340 C339 1.387 . S
C340 C343 1.387 . S
H341 C337 0.950 . S
H342 C339 0.950 . S
C343 C334 1.390 . S
C343 H336 0.950 . S
C343 C340 1.387 . S
C344 C345 1.387 . S
C344 H348 0.950 . S
C344 C353 1.390 . S
C345 C344 1.387 . S
C345 C347 1.387 . S
H346 C353 0.950 . S
C347 C345 1.387 . S
C347 C349 1.390 . S
C347 H351 0.950 . S
H348 C344 0.950 . S
C349 C347 1.390 . S
C349 C350 1.387 . S
C349 H352 0.950 . S
C350 C349 1.387 . S
C350 C353 1.387 . S
H351 C347 0.950 . S
H352 C349 0.950 . S
C353 C344 1.390 . S
C353 H346 0.950 . S
C353 C350 1.387 . S
C354 C355 1.387 . S
C354 H358 0.950 . S
C354 C363 1.390 . S
C355 C354 1.387 . S
C355 C357 1.387 . S
H356 C363 0.950 . S
C357 C355 1.387 . S
C357 C359 1.390 . S
C357 H361 0.950 . S
H358 C354 0.950 . S
C359 C357 1.390 . S
C359 C360 1.387 . S
C359 H362 0.950 . S
C360 C359 1.387 . S
C360 C363 1.387 . S
H361 C357 0.950 . S
H362 C359 0.950 . S
C363 C354 1.390 . S
C363 H356 0.950 . S
C363 C360 1.387 . S
C364 C365 1.387 . S
C364 H368 0.950 . S
C364 C373 1.390 . S
C365 C364 1.387 . S
C365 C367 1.387 . S
H366 C373 0.950 . S
C367 C365 1.387 . S
C367 C369 1.390 . S
C367 H371 0.950 . S
H368 C364 0.950 . S
C369 C367 1.390 . S
C369 C370 1.387 . S
C369 H372 0.950 . S
C370 C369 1.387 . S
C370 C373 1.387 . S
H371 C367 0.950 . S
H372 C369 0.950 . S
C373 C364 1.390 . S
C373 H366 0.950 . S
C373 C370 1.387 . S
C374 C375 1.387 . S
C374 H378 0.950 . S
C374 C383 1.390 . S
C375 C374 1.387 . S
C375 C377 1.387 . S
H376 C383 0.950 . S
C377 C375 1.387 . S
C377 C379 1.390 . S
C377 H381 0.950 . S
H378 C374 0.950 . S
C379 C377 1.390 . S
C379 C380 1.387 . S
C379 H382 0.950 . S
C380 C379 1.387 . S
C380 C383 1.387 . S
H381 C377 0.950 . S
H382 C379 0.950 . S
C383 C374 1.390 . S
C383 H376 0.950 . S
C383 C380 1.387 . S
C384 C385 1.387 . S
C384 H388 0.950 . S
C384 C393 1.390 . S
C385 C384 1.387 . S
C385 C387 1.387 . S
H386 C393 0.950 . S
C387 C385 1.387 . S
C387 C389 1.390 . S
C387 H391 0.950 . S
H388 C384 0.950 . S
C389 C387 1.390 . S
C389 C390 1.387 . S
C389 H392 0.950 . S
C390 C389 1.387 . S
C390 C393 1.387 . S
H391 C387 0.950 . S
H392 C389 0.950 . S
C393 C384 1.390 . S
C393 H386 0.950 . S
C393 C390 1.387 . S
C394 C395 1.387 . S
C394 H398 0.950 . S
C394 C403 1.390 . S
C395 C394 1.387 . S
C395 C397 1.387 1_554 S
H396 C403 0.950 . S
C397 C395 1.387 1_556 S
C397 C399 1.390 . S
C397 H401 0.950 . S
H398 C394 0.950 . S
C399 C397 1.390 . S
C399 C400 1.387 . S
C399 H402 0.950 . S
C400 C399 1.387 . S
C400 C403 1.387 1_556 S
H401 C397 0.950 . S
H402 C399 0.950 . S
C403 C394 1.390 . S
C403 H396 0.950 . S
C403 C400 1.387 1_554 S
C404 C405 1.387 . S
C404 H408 0.950 . S
C404 C413 1.390 . S
C405 C404 1.387 . S
C405 C407 1.387 . S
H406 C413 0.950 . S
C407 C405 1.387 . S
C407 C409 1.390 . S
C407 H411 0.950 . S
H408 C404 0.950 . S
C409 C407 1.390 . S
C409 C410 1.387 . S
C409 H412 0.950 . S
C410 C409 1.387 . S
C410 C413 1.387 . S
H411 C407 0.950 . S
H412 C409 0.950 . S
C413 C404 1.390 . S
C413 H406 0.950 . S
C413 C410 1.387 . S
C414 C415 1.387 . S
C414 H418 0.950 . S
C414 C423 1.390 . S
C415 C414 1.387 . S
C415 C417 1.387 1_554 S
H416 C423 0.950 . S
C417 C415 1.387 1_556 S
C417 C419 1.390 . S
C417 H421 0.950 . S
H418 C414 0.950 . S
C419 C417 1.390 . S
C419 C420 1.387 . S
C419 H422 0.950 . S
C420 C419 1.387 . S
C420 C423 1.387 1_556 S
H421 C417 0.950 . S
H422 C419 0.950 . S
C423 C414 1.390 . S
C423 H416 0.950 . S
C423 C420 1.387 1_554 S
C424 C425 1.387 . S
C424 H428 0.950 . S
C424 C433 1.390 1_665 S
C425 C424 1.387 . S
C425 C427 1.387 . S
H426 C433 0.950 . S
C427 C425 1.387 . S
C427 C429 1.390 1_665 S
C427 H431 0.950 . S
H428 C424 0.950 . S
C429 C427 1.390 1_445 S
C429 C430 1.387 . S
C429 H432 0.950 . S
C430 C429 1.387 . S
C430 C433 1.387 . S
H431 C427 0.950 . S
H432 C429 0.950 . S
C433 C424 1.390 1_445 S
C433 H426 0.950 . S
C433 C430 1.387 . S
C434 C435 1.387 . S
C434 H438 0.950 . S
C434 C443 1.390 . S
C435 C434 1.387 . S
C435 C437 1.387 . S
H436 C443 0.950 . S
C437 C435 1.387 . S
C437 C439 1.390 . S
C437 H441 0.950 . S
H438 C434 0.950 . S
C439 C437 1.390 . S
C439 C440 1.387 . S
C439 H442 0.950 . S
C440 C439 1.387 . S
C440 C443 1.387 . S
H441 C437 0.950 . S
H442 C439 0.950 . S
C443 C434 1.390 . S
C443 H436 0.950 . S
C443 C440 1.387 . S
C444 C445 1.387 . S
C444 H448 0.950 . S
C444 C453 1.390 . S
C445 C444 1.387 . S
C445 C447 1.387 . S
H446 C453 0.950 . S
C447 C445 1.387 . S
C447 C449 1.390 . S
C447 H451 0.950 . S
H448 C444 0.950 . S
C449 C447 1.390 . S
C449 C450 1.387 . S
C449 H452 0.950 . S
C450 C449 1.387 . S
C450 C453 1.387 . S
H451 C447 0.950 . S
H452 C449 0.950 . S
C453 C444 1.390 . S
C453 H446 0.950 . S
C453 C450 1.387 . S
C454 C455 1.387 . S
C454 H458 0.950 . S
C454 C463 1.390 1_445 S
C455 C454 1.387 . S
C455 C457 1.387 . S
H456 C463 0.950 . S
C457 C455 1.387 . S
C457 C459 1.390 1_445 S
C457 H461 0.950 . S
H458 C454 0.950 . S
C459 C457 1.390 1_665 S
C459 C460 1.387 . S
C459 H462 0.950 . S
C460 C459 1.387 . S
C460 C463 1.387 . S
H461 C457 0.950 . S
H462 C459 0.950 . S
C463 C454 1.390 1_665 S
C463 H456 0.950 . S
C463 C460 1.387 . S
C265 N79 1.192 . S
C270 N13 1.192 . S
C275 N112 1.193 . S
C280 N46 1.193 . S
C285 N211 1.193 . S
C290 N145 1.193 . S
C295 N244 1.193 . S
C300 N178 1.193 . S
C305 C150 1.904 . S
C310 C21 1.895 . S
C315 C183 1.904 . S
C320 C54 1.894 . S
C325 C216 1.904 . S
C330 C87 1.893 . S
C335 C120 1.893 . S
C340 C249 1.904 . S
C345 C18 1.904 . S
C350 C153 1.894 . S
C355 C51 1.904 . S
C360 C186 1.893 . S
C365 C84 1.904 . S
C370 C219 1.894 . S
C375 C252 1.893 . S
C380 C117 1.904 . S
C385 C7 1.779 . S
C390 C172 1.779 . S
C395 C205 1.781 . S
C400 C40 1.781 . S
C405 C238 1.779 . S
C410 C73 1.779 . S
C415 C139 1.779 . S
C420 C106 1.779 . S
C425 N68 0.759 . S
C430 N2 0.759 . S
C435 N35 0.760 . S
C440 N101 0.760 . S
C445 N200 0.771 . S
C450 N134 0.771 . S
C455 N167 0.759 . S
C460 N233 0.759 . S
