# Generated by pormake.
# Topology fng, (5)-cn, num edge types: 1
# Building blocks:
#     Node 0, Type 0, BuildingBlock: XOMCOT_clean_sbu_1, # of connection points: 5
#     Node 1, Type 0, BuildingBlock: XOMCOT_clean_sbu_1, # of connection points: 5
#     Node 2, Type 0, BuildingBlock: XOMCOT_clean_sbu_1, # of connection points: 5
#     Node 3, Type 0, BuildingBlock: XOMCOT_clean_sbu_1, # of connection points: 5
#     Node 4, Type 0, BuildingBlock: XOMCOT_clean_sbu_1, # of connection points: 5
#     Node 5, Type 0, BuildingBlock: XOMCOT_clean_sbu_1, # of connection points: 5
#     Node 6, Type 0, BuildingBlock: XOMCOT_clean_sbu_1, # of connection points: 5
#     Node 7, Type 0, BuildingBlock: XOMCOT_clean_sbu_1, # of connection points: 5
#     Node 8, Type 0, BuildingBlock: XOMCOT_clean_sbu_1, # of connection points: 5
#     Node 9, Type 0, BuildingBlock: XOMCOT_clean_sbu_1, # of connection points: 5
#     Node 10, Type 0, BuildingBlock: XOMCOT_clean_sbu_1, # of connection points: 5
#     Node 11, Type 0, BuildingBlock: XOMCOT_clean_sbu_1, # of connection points: 5
#     Node 12, Type 0, BuildingBlock: XOMCOT_clean_sbu_1, # of connection points: 5
#     Node 13, Type 0, BuildingBlock: XOMCOT_clean_sbu_1, # of connection points: 5
#     Node 14, Type 0, BuildingBlock: XOMCOT_clean_sbu_1, # of connection points: 5
#     Node 15, Type 0, BuildingBlock: XOMCOT_clean_sbu_1, # of connection points: 5
#     Node 16, Type 0, BuildingBlock: XOMCOT_clean_sbu_1, # of connection points: 5
#     Node 17, Type 0, BuildingBlock: XOMCOT_clean_sbu_1, # of connection points: 5
#     Edge 18, Type (0, 0), BuildingBlock: TEMPAE_clean_linker_10, # of connection points: 2
#     Edge 19, Type (0, 0), BuildingBlock: TEMPAE_clean_linker_10, # of connection points: 2
#     Edge 20, Type (0, 0), BuildingBlock: TEMPAE_clean_linker_10, # of connection points: 2
#     Edge 21, Type (0, 0), BuildingBlock: TEMPAE_clean_linker_10, # of connection points: 2
#     Edge 22, Type (0, 0), BuildingBlock: TEMPAE_clean_linker_10, # of connection points: 2
#     Edge 23, Type (0, 0), BuildingBlock: TEMPAE_clean_linker_10, # of connection points: 2
#     Edge 24, Type (0, 0), BuildingBlock: TEMPAE_clean_linker_10, # of connection points: 2
#     Edge 25, Type (0, 0), BuildingBlock: TEMPAE_clean_linker_10, # of connection points: 2
#     Edge 26, Type (0, 0), BuildingBlock: TEMPAE_clean_linker_10, # of connection points: 2
#     Edge 27, Type (0, 0), BuildingBlock: TEMPAE_clean_linker_10, # of connection points: 2
#     Edge 28, Type (0, 0), BuildingBlock: TEMPAE_clean_linker_10, # of connection points: 2
#     Edge 29, Type (0, 0), BuildingBlock: TEMPAE_clean_linker_10, # of connection points: 2
#     Edge 30, Type (0, 0), BuildingBlock: TEMPAE_clean_linker_10, # of connection points: 2
#     Edge 31, Type (0, 0), BuildingBlock: TEMPAE_clean_linker_10, # of connection points: 2
#     Edge 32, Type (0, 0), BuildingBlock: TEMPAE_clean_linker_10, # of connection points: 2
#     Edge 33, Type (0, 0), BuildingBlock: TEMPAE_clean_linker_10, # of connection points: 2
#     Edge 34, Type (0, 0), BuildingBlock: TEMPAE_clean_linker_10, # of connection points: 2
#     Edge 35, Type (0, 0), BuildingBlock: TEMPAE_clean_linker_10, # of connection points: 2
#     Edge 36, Type (0, 0), BuildingBlock: TEMPAE_clean_linker_10, # of connection points: 2
#     Edge 37, Type (0, 0), BuildingBlock: TEMPAE_clean_linker_10, # of connection points: 2
#     Edge 38, Type (0, 0), BuildingBlock: TEMPAE_clean_linker_10, # of connection points: 2
#     Edge 39, Type (0, 0), BuildingBlock: TEMPAE_clean_linker_10, # of connection points: 2
#     Edge 40, Type (0, 0), BuildingBlock: TEMPAE_clean_linker_10, # of connection points: 2
#     Edge 41, Type (0, 0), BuildingBlock: TEMPAE_clean_linker_10, # of connection points: 2
#     Edge 42, Type (0, 0), BuildingBlock: TEMPAE_clean_linker_10, # of connection points: 2
#     Edge 43, Type (0, 0), BuildingBlock: TEMPAE_clean_linker_10, # of connection points: 2
#     Edge 44, Type (0, 0), BuildingBlock: TEMPAE_clean_linker_10, # of connection points: 2
#     Edge 45, Type (0, 0), BuildingBlock: TEMPAE_clean_linker_10, # of connection points: 2
#     Edge 46, Type (0, 0), BuildingBlock: TEMPAE_clean_linker_10, # of connection points: 2
#     Edge 47, Type (0, 0), BuildingBlock: TEMPAE_clean_linker_10, # of connection points: 2
#     Edge 48, Type (0, 0), BuildingBlock: TEMPAE_clean_linker_10, # of connection points: 2
#     Edge 49, Type (0, 0), BuildingBlock: TEMPAE_clean_linker_10, # of connection points: 2
#     Edge 50, Type (0, 0), BuildingBlock: TEMPAE_clean_linker_10, # of connection points: 2
#     Edge 51, Type (0, 0), BuildingBlock: TEMPAE_clean_linker_10, # of connection points: 2
#     Edge 52, Type (0, 0), BuildingBlock: TEMPAE_clean_linker_10, # of connection points: 2
#     Edge 53, Type (0, 0), BuildingBlock: TEMPAE_clean_linker_10, # of connection points: 2
#     Edge 54, Type (0, 0), BuildingBlock: TEMPAE_clean_linker_10, # of connection points: 2
#     Edge 55, Type (0, 0), BuildingBlock: TEMPAE_clean_linker_10, # of connection points: 2
#     Edge 56, Type (0, 0), BuildingBlock: TEMPAE_clean_linker_10, # of connection points: 2
#     Edge 57, Type (0, 0), BuildingBlock: TEMPAE_clean_linker_10, # of connection points: 2
#     Edge 58, Type (0, 0), BuildingBlock: TEMPAE_clean_linker_10, # of connection points: 2
#     Edge 59, Type (0, 0), BuildingBlock: TEMPAE_clean_linker_10, # of connection points: 2
#     Edge 60, Type (0, 0), BuildingBlock: TEMPAE_clean_linker_10, # of connection points: 2
#     Edge 61, Type (0, 0), BuildingBlock: TEMPAE_clean_linker_10, # of connection points: 2
#     Edge 62, Type (0, 0), BuildingBlock: TEMPAE_clean_linker_10, # of connection points: 2
# Relax obj value: 0.122
# Max RMSD: 0.144
# Mean RMSD: 0.144
data_MOF--net-fng--node1-XOMCOT_clean_sbu_1--edge1-TEMPAE_clean_linker_10
_symmetry_space_group_name_H-M    P1
_symmetry_Int_Tables_number       1
_symmetry_cell_setting            triclinic
loop_
_symmetry_equiv_pos_as_xyz
'x, y, z'
_cell_length_a     81.131243
_cell_length_b     81.138762
_cell_length_c     17.430773
_cell_angle_alpha  89.926604
_cell_angle_beta   90.122358
_cell_angle_gamma 119.93533
loop_
_atom_site_label
_atom_site_type_symbol
_atom_site_fract_x
_atom_site_fract_y
_atom_site_fract_z
_atom_type_partial_charge
C0 C 0.13028 0.2595 0.03857 0.0
C1 C 0.1326 0.26344 0.96144 0.0
N2 N 0.1449 0.25832 0.93344 0.0
N3 N 0.141 0.25187 0.05964 0.0
C4 C 0.15009 0.25173 0.99498 0.0
H5 H 0.12025 0.26067 0.07567 0.0
Co6 Co 0.13855 0.2401 0.15401 0.0
C7 C 0.1502 0.21167 0.10493 0.0
O8 O 0.13306 0.19722 0.11583 0.0
N9 N 0.13606 0.22842 0.25158 0.0
C10 C 0.12704 0.20791 0.34937 0.0
C11 C 0.12616 0.20979 0.2713 0.0
C12 C 0.14291 0.23744 0.31945 0.0
N13 N 0.13765 0.22536 0.37936 0.0
O14 O 0.1617 0.26239 0.188 0.0
H15 H 0.11777 0.19819 0.23274 0.0
H16 H 0.15089 0.25265 0.3264 0.0
O17 O 0.15376 0.22868 0.11759 0.0
C18 C 0.15812 0.27516 0.21185 0.0
O19 O 0.14034 0.27129 0.21055 0.0
N20 N 0.11471 0.21956 0.1202 0.0
C21 C 0.07751 0.19568 0.06775 0.0
C22 C 0.09314 0.19949 0.02163 0.0
C23 C 0.11163 0.2115 0.0488 0.0
C24 C 0.09953 0.21636 0.16458 0.0
C25 C 0.08086 0.20407 0.14044 0.0
H26 H 0.12343 0.21475 0.01125 0.0
H27 H 0.10186 0.22385 0.21835 0.0
H28 H 0.15926 0.24566 0.99219 0.0
H29 H 0.12451 0.26817 0.92787 0.0
H30 H 0.12002 0.19478 0.38175 0.0
H31 H 0.09106 0.19354 0.96449 0.0
H32 H 0.06911 0.20188 0.17673 0.0
C33 C 0.75889 0.87208 0.00355 0.0
C34 C 0.7545 0.8699 0.92684 0.0
N35 N 0.75722 0.8866 0.89882 0.0
N36 N 0.76444 0.89008 0.02432 0.0
C37 C 0.76298 0.89852 0.95983 0.0
H38 H 0.75917 0.86158 0.04094 0.0
Co39 Co 0.77485 0.90023 0.11983 0.0
C40 C 0.80324 0.93976 0.06086 0.0
O41 O 0.818 0.9374 0.06832 0.0
N42 N 0.78486 0.91012 0.21709 0.0
C43 C 0.80367 0.92452 0.31723 0.0
C44 C 0.80296 0.92229 0.23894 0.0
C45 C 0.77487 0.90523 0.28327 0.0
N46 N 0.78595 0.91384 0.34473 0.0
O47 O 0.75214 0.90133 0.1456 0.0
H48 H 0.81514 0.92844 0.20161 0.0
H49 H 0.75988 0.89491 0.28704 0.0
O50 O 0.78652 0.92648 0.07877 0.0
C51 C 0.73734 0.88512 0.15662 0.0
O52 O 0.73868 0.86975 0.14842 0.0
N53 N 0.79613 0.89704 0.09613 0.0
C54 C 0.82175 0.88434 0.06118 0.0
C55 C 0.81726 0.89424 0.00669 0.0
C56 C 0.80433 0.90032 0.025 0.0
C57 C 0.80013 0.88709 0.14913 0.0
C58 C 0.81315 0.88101 0.13352 0.0
H59 H 0.80055 0.90725 0.98104 0.0
H60 H 0.7926 0.8831 0.20315 0.0
H61 H 0.76699 0.91335 0.95713 0.0
H62 H 0.75091 0.8573 0.89362 0.0
H63 H 0.81627 0.93304 0.35149 0.0
H64 H 0.82341 0.89695 0.94978 0.0
H65 H 0.81571 0.87289 0.17651 0.0
C66 C 0.14324 0.88636 0.06443 0.0
C67 C 0.14677 0.88668 0.98696 0.0
N68 N 0.13001 0.87624 0.95078 0.0
N69 N 0.12436 0.87577 0.07662 0.0
C70 C 0.11674 0.86949 0.0065 0.0
H71 H 0.15361 0.89427 0.10851 0.0
Co72 Co 0.11231 0.87399 0.16929 0.0
C73 C 0.07331 0.8641 0.12127 0.0
O74 O 0.07504 0.87808 0.16496 0.0
N75 N 0.10056 0.87164 0.26532 0.0
C76 C 0.08172 0.85647 0.36463 0.0
C77 C 0.08313 0.85744 0.28626 0.0
C78 C 0.10961 0.87863 0.33301 0.0
N79 N 0.09847 0.86969 0.39392 0.0
O80 O 0.11173 0.85035 0.19124 0.0
H81 H 0.07275 0.84682 0.24832 0.0
H82 H 0.12475 0.88824 0.33812 0.0
O83 O 0.08701 0.86051 0.11827 0.0
C84 C 0.12632 0.8542 0.23193 0.0
O85 O 0.13867 0.87217 0.24548 0.0
N86 N 0.11501 0.89843 0.14922 0.0
C87 C 0.12845 0.93651 0.10841 0.0
C88 C 0.11651 0.92173 0.05894 0.0
C89 C 0.10992 0.90282 0.08038 0.0
C90 C 0.12657 0.91278 0.1979 0.0
C91 C 0.13307 0.93184 0.17949 0.0
H92 H 0.10164 0.89184 0.03917 0.0
H93 H 0.13209 0.90978 0.24876 0.0
H94 H 0.10165 0.86101 0.99551 0.0
H95 H 0.1604 0.89499 0.95904 0.0
H96 H 0.06986 0.84581 0.39744 0.0
H97 H 0.11286 0.9248 0.00295 0.0
H98 H 0.14273 0.9429 0.21827 0.0
C99 C 0.27176 0.1284 0.01769 0.0
C100 C 0.27635 0.12983 0.09415 0.0
N101 N 0.27103 0.14139 0.12797 0.0
N102 N 0.26372 0.13912 0.00268 0.0
C103 C 0.2638 0.14717 0.07069 0.0
H104 H 0.2732 0.11926 0.97643 0.0
Co105 Co 0.25255 0.13879 0.90833 0.0
C106 C 0.22365 0.14818 0.97511 0.0
O107 O 0.20966 0.13058 0.96963 0.0
N108 N 0.24219 0.13883 0.81213 0.0
C109 C 0.22498 0.13902 0.713 0.0
C110 C 0.22552 0.13752 0.79145 0.0
C111 C 0.2514 0.14096 0.74518 0.0
N112 N 0.24134 0.14126 0.68395 0.0
O113 O 0.27479 0.16289 0.88178 0.0
H114 H 0.21434 0.13558 0.82988 0.0
H115 H 0.26519 0.14201 0.74141 0.0
O116 O 0.24042 0.15274 0.95248 0.0
C117 C 0.28939 0.16161 0.86439 0.0
O118 O 0.28817 0.14487 0.8671 0.0
N119 N 0.23153 0.11391 0.93217 0.0
C120 C 0.20595 0.07556 0.96605 0.0
C121 C 0.21209 0.08943 0.02337 0.0
C122 C 0.22483 0.10845 0.0054 0.0
C123 C 0.22581 0.10035 0.87603 0.0
C124 C 0.21271 0.08122 0.89132 0.0
H125 H 0.22927 0.11874 0.05108 0.0
H126 H 0.23192 0.10406 0.81934 0.0
H127 H 0.25712 0.15568 0.07944 0.0
H128 H 0.28232 0.12219 0.123 0.0
H129 H 0.2135 0.13873 0.68016 0.0
H130 H 0.20724 0.08557 0.08195 0.0
H131 H 0.20861 0.07079 0.84588 0.0
C132 C 0.88985 0.14296 0.93176 0.0
C133 C 0.8897 0.14645 0.00901 0.0
N134 N 0.87904 0.12967 0.04463 0.0
N135 N 0.87932 0.12409 0.91901 0.0
C136 C 0.87259 0.11643 0.98869 0.0
H137 H 0.89811 0.15336 0.88837 0.0
Co138 Co 0.87822 0.11225 0.82616 0.0
C139 C 0.86833 0.07349 0.87837 0.0
O140 O 0.88352 0.07558 0.8428 0.0
N141 N 0.87661 0.10081 0.73011 0.0
C142 C 0.86305 0.08176 0.62954 0.0
C143 C 0.86381 0.08287 0.70801 0.0
C144 C 0.88302 0.11036 0.66306 0.0
N145 N 0.87501 0.09911 0.60138 0.0
O146 O 0.85477 0.1118 0.80117 0.0
H147 H 0.85383 0.07169 0.74494 0.0
H148 H 0.89165 0.12567 0.65929 0.0
O149 O 0.86411 0.08675 0.87529 0.0
C150 C 0.85876 0.12709 0.76539 0.0
O151 O 0.87682 0.13979 0.75608 0.0
N152 N 0.90257 0.11483 0.84934 0.0
C153 C 0.9404 0.1274 0.89205 0.0
C154 C 0.92546 0.11666 0.94271 0.0
C155 C 0.9067 0.11047 0.9203 0.0
C156 C 0.91709 0.12521 0.79939 0.0
C157 C 0.93603 0.13128 0.81894 0.0
H158 H 0.89559 0.1028 0.96169 0.0
H159 H 0.91435 0.12998 0.74582 0.0
H160 H 0.86419 0.10131 -0.00059 0.0
H161 H 0.89795 0.16003 0.03741 0.0
H162 H 0.85329 0.06952 0.59587 0.0
H163 H 0.92832 0.11355 7e-05 0.0
H164 H 0.94727 0.13997 0.77895 0.0
C165 C 0.88834 0.74052 0.93764 0.0
C166 C 0.88811 0.73741 0.01539 0.0
N167 N 0.90257 0.75303 0.04771 0.0
N168 N 0.90284 0.75803 0.92128 0.0
C169 C 0.91129 0.76529 0.98945 0.0
H170 H 0.87809 0.73097 0.89625 0.0
Co171 Co 0.90741 0.77018 0.82716 0.0
C172 C 0.94999 0.79733 0.8228 0.0
O173 O 0.94908 0.80596 0.76052 0.0
N174 N 0.9114 0.7822 0.73015 0.0
C175 C 0.90686 0.79589 0.62776 0.0
C176 C 0.90427 0.79318 0.70549 0.0
C177 C 0.9184 0.7786 0.6657 0.0
N178 N 0.91558 0.78652 0.60238 0.0
O179 O 0.90935 0.7495 0.78087 0.0
H180 H 0.89643 0.79794 0.7401 0.0
H181 H 0.9248 0.76968 0.66474 0.0
O182 O 0.93476 0.78376 0.85175 0.0
C183 C 0.89452 0.73861 0.74174 0.0
O184 O 0.88082 0.74276 0.73749 0.0
N185 N 0.90336 0.78891 0.87271 0.0
C186 C 0.89007 0.81243 0.92981 0.0
C187 C 0.9097 0.81929 0.92094 0.0
C188 C 0.91609 0.80727 0.89228 0.0
C189 C 0.88436 0.78194 0.88245 0.0
C190 C 0.87743 0.7934 0.9104 0.0
H191 H 0.93114 0.81289 0.88498 0.0
H192 H 0.87446 0.76743 0.86601 0.0
H193 H 0.92282 0.77974 0.99696 0.0
H194 H 0.87777 0.7249 0.0461 0.0
H195 H 0.90135 0.80297 0.59207 0.0
H196 H 0.92003 0.83381 0.93583 0.0
H197 H 0.86219 0.78746 0.91444 0.0
C198 C 0.79758 0.59566 0.34518 0.0
C199 C 0.79863 0.60002 0.26854 0.0
N200 N 0.80997 0.59455 0.23393 0.0
N201 N 0.80822 0.58749 0.35926 0.0
C202 C 0.81597 0.58742 0.2907 0.0
H203 H 0.78865 0.59722 0.38709 0.0
Co204 Co 0.80797 0.57613 0.45289 0.0
C205 C 0.81897 0.54847 0.38564 0.0
O206 O 0.80162 0.53401 0.39158 0.0
N207 N 0.80803 0.56547 0.54922 0.0
C208 C 0.80979 0.54896 0.64806 0.0
C209 C 0.80883 0.54979 0.56939 0.0
C210 C 0.80829 0.57371 0.61693 0.0
N211 N 0.8096 0.56415 0.67777 0.0
O212 O 0.83146 0.59881 0.48134 0.0
H213 H 0.80898 0.53959 0.53056 0.0
H214 H 0.80731 0.58644 0.62195 0.0
O215 O 0.82286 0.56504 0.40849 0.0
C216 C 0.8281 0.61136 0.50952 0.0
O217 O 0.81038 0.60768 0.51117 0.0
N218 N 0.78354 0.55474 0.42707 0.0
C219 C 0.74509 0.52948 0.38974 0.0
C220 C 0.75945 0.53541 0.33415 0.0
C221 C 0.77842 0.54799 0.35375 0.0
C222 C 0.76972 0.54907 0.48187 0.0
C223 C 0.75062 0.53622 0.46497 0.0
H224 H 0.78893 0.55246 0.30897 0.0
H225 H 0.7732 0.55511 0.53874 0.0
H226 H 0.82433 0.58061 0.28107 0.0
H227 H 0.79084 0.60588 0.24 0.0
H228 H 0.81104 0.53827 0.68062 0.0
H229 H 0.75609 0.53106 0.27484 0.0
H230 H 0.74025 0.53206 0.51051 0.0
C231 C 0.41118 0.2146 0.37546 0.0
C232 C 0.40831 0.2148 0.29787 0.0
N233 N 0.42368 0.2299 0.26756 0.0
N234 N 0.42829 0.22951 0.39405 0.0
C235 C 0.43556 0.23861 0.327 0.0
H236 H 0.40172 0.20371 0.41487 0.0
Co237 Co 0.44004 0.23393 0.48928 0.0
C238 C 0.46713 0.27637 0.49745 0.0
O239 O 0.47619 0.27477 0.55692 0.0
N240 N 0.45156 0.23774 0.58702 0.0
C241 C 0.46634 0.23497 0.68971 0.0
C242 C 0.46354 0.23186 0.61224 0.0
C243 C 0.44742 0.24447 0.65085 0.0
N244 N 0.45608 0.24281 0.71429 0.0
O245 O 0.41898 0.23528 0.53467 0.0
H246 H 0.46933 0.22488 0.57806 0.0
H247 H 0.43791 0.25019 0.65112 0.0
O248 O 0.45333 0.26146 0.46734 0.0
C249 C 0.40688 0.21923 0.5631 0.0
O250 O 0.41044 0.20512 0.55862 0.0
N251 N 0.45924 0.23044 0.44478 0.0
C252 C 0.48386 0.21802 0.39346 0.0
C253 C 0.48962 0.23749 0.39382 0.0
C254 C 0.47707 0.24347 0.42016 0.0
C255 C 0.45316 0.21148 0.44075 0.0
C256 C 0.46525 0.20498 0.41616 0.0
H257 H 0.48186 0.25847 0.42148 0.0
H258 H 0.43893 0.20134 0.4596 0.0
H259 H 0.4498 0.25063 0.32102 0.0
H260 H 0.39616 0.20429 0.26577 0.0
H261 H 0.47439 0.23063 0.72569 0.0
H262 H 0.50384 0.24799 0.37605 0.0
H263 H 0.46011 0.18983 0.41543 0.0
C264 C 0.80647 0.2168 0.38682 0.0
C265 C 0.80994 0.21652 0.30952 0.0
N266 N 0.79309 0.20795 0.27276 0.0
N267 N 0.78755 0.20843 0.39838 0.0
C268 C 0.7798 0.20283 0.3279 0.0
H269 H 0.81709 0.22369 0.43115 0.0
Co270 Co 0.77603 0.2083 0.49106 0.0
C271 C 0.7375 0.19939 0.43564 0.0
O272 O 0.73973 0.21495 0.46849 0.0
N273 N 0.76479 0.20766 0.58702 0.0
C274 C 0.74533 0.19561 0.68736 0.0
C275 C 0.74654 0.19609 0.6089 0.0
C276 C 0.77439 0.21367 0.6543 0.0
N277 N 0.76292 0.20647 0.71597 0.0
O278 O 0.77425 0.18432 0.51749 0.0
H279 H 0.73497 0.18667 0.57205 0.0
H280 H 0.78973 0.22146 0.6584 0.0
O281 O 0.75057 0.19497 0.4417 0.0
C282 C 0.78872 0.18735 0.5573 0.0
O283 O 0.8021 0.20502 0.56936 0.0
N284 N 0.7799 0.23305 0.4667 0.0
C285 C 0.79492 0.27122 0.42316 0.0
C286 C 0.78307 0.25648 0.37339 0.0
C287 C 0.77566 0.23753 0.39623 0.0
C288 C 0.79131 0.24737 0.51583 0.0
C289 C 0.79862 0.26649 0.49593 0.0
H290 H 0.76718 0.22656 0.3554 0.0
H291 H 0.79595 0.24421 0.56886 0.0
H292 H 0.76474 0.19626 0.31597 0.0
H293 H 0.82373 0.22332 0.28198 0.0
H294 H 0.73269 0.18676 0.72071 0.0
H295 H 0.78002 0.25958 0.31635 0.0
H296 H 0.8081 0.2775 0.53527 0.0
C297 C 0.93911 0.46313 0.31399 0.0
C298 C 0.94377 0.46493 0.39043 0.0
N299 N 0.93801 0.47623 0.4235 0.0
N300 N 0.93064 0.47339 0.29806 0.0
C301 C 0.9305 0.48153 0.36557 0.0
H302 H 0.94079 0.454 0.27348 0.0
Co303 Co 0.91922 0.47243 0.2035 0.0
C304 C 0.89055 0.48242 0.26839 0.0
O305 O 0.87654 0.46478 0.26538 0.0
N306 N 0.90853 0.47183 0.10706 0.0
C307 C 0.89049 0.47071 0.00859 0.0
C308 C 0.8913 0.46923 0.08697 0.0
C309 C 0.9178 0.47467 0.03972 0.0
N310 N 0.90725 0.47425 0.979 0.0
O311 O 0.94148 0.49634 0.17453 0.0
H312 H 0.87987 0.46629 0.12581 0.0
H313 H 0.93198 0.47673 0.03508 0.0
O314 O 0.90725 0.48675 0.24562 0.0
C315 C 0.9557 0.49448 0.15592 0.0
O316 O 0.95382 0.47746 0.15872 0.0
N317 N 0.89828 0.44771 0.22996 0.0
C318 C 0.87302 0.40953 0.268 0.0
C319 C 0.87907 0.42382 0.32355 0.0
C320 C 0.89165 0.44274 0.30354 0.0
C321 C 0.89266 0.43376 0.17556 0.0
C322 C 0.87972 0.4147 0.19289 0.0
H323 H 0.89604 0.45334 0.34795 0.0
H324 H 0.89876 0.43714 0.11876 0.0
H325 H 0.92345 0.48972 0.37348 0.0
H326 H 0.95009 0.45768 0.41969 0.0
H327 H 0.87855 0.46951 0.97614 0.0
H328 H 0.87425 0.42037 0.38236 0.0
H329 H 0.87571 0.40397 0.14876 0.0
C330 C 0.55709 0.47267 0.28183 0.0
C331 C 0.55735 0.47676 0.3584 0.0
N332 N 0.54506 0.46064 0.39511 0.0
N333 N 0.54477 0.45403 0.27028 0.0
C334 C 0.53739 0.44711 0.34023 0.0
H335 H 0.56612 0.4824 0.23792 0.0
Co336 Co 0.54262 0.44194 0.17702 0.0
C337 C 0.53463 0.40369 0.22947 0.0
O338 O 0.54945 0.4062 0.18959 0.0
N339 N 0.54012 0.43052 0.08052 0.0
C340 C 0.52945 0.41133 0.97879 0.0
C341 C 0.52994 0.41216 0.05746 0.0
C342 C 0.54469 0.44052 0.01424 0.0
N343 N 0.53863 0.4292 0.95182 0.0
O344 O 0.51848 0.44052 0.15799 0.0
H345 H 0.52175 0.40004 0.09384 0.0
H346 H 0.55158 0.45587 0.01194 0.0
O347 O 0.52994 0.41664 0.22858 0.0
C348 C 0.52089 0.45647 0.1343 0.0
O349 O 0.53829 0.47093 0.1294 0.0
N350 N 0.5675 0.44528 0.19377 0.0
C351 C 0.60616 0.45871 0.22724 0.0
C352 C 0.59192 0.44835 0.28163 0.0
C353 C 0.57281 0.44181 0.2639 0.0
C354 C 0.58113 0.45506 0.13979 0.0
C355 C 0.60037 0.46151 0.15467 0.0
H356 H 0.56236 0.43469 0.30836 0.0
H357 H 0.57742 0.45889 0.08602 0.0
H358 H 0.52778 0.43221 0.35188 0.0
H359 H 0.5665 0.49034 0.38547 0.0
H360 H 0.52167 0.39865 0.94417 0.0
H361 H 0.59547 0.44609 0.33911 0.0
H362 H 0.61064 0.46919 0.11004 0.0
C363 C 0.54085 0.08767 0.28132 0.0
C364 C 0.53863 0.08386 0.35848 0.0
N365 N 0.55537 0.08695 0.38787 0.0
N366 N 0.55889 0.0932 0.26153 0.0
C367 C 0.56734 0.09239 0.32709 0.0
H368 H 0.53033 0.08756 0.24281 0.0
Co369 Co 0.56909 0.10322 0.16619 0.0
C370 C 0.6096 0.11576 0.18412 0.0
O371 O 0.60841 0.10624 0.12145 0.0
N372 N 0.57895 0.11321 0.07016 0.0
C373 C 0.59453 0.13262 0.97349 0.0
C374 C 0.59193 0.1313 0.05173 0.0
C375 C 0.57392 0.10383 0.00276 0.0
N376 N 0.58325 0.11527 0.94317 0.0
O377 O 0.5704 0.08057 0.14176 0.0
H378 H 0.59886 0.14281 0.09254 0.0
H379 H 0.56319 0.089 0.99702 0.0
O380 O 0.59485 0.11585 0.20921 0.0
C381 C 0.55429 0.06595 0.12746 0.0
O382 O 0.53893 0.06741 0.1337 0.0
N383 N 0.5661 0.12432 0.18788 0.0
C384 C 0.55352 0.14988 0.22448 0.0
C385 C 0.56719 0.14862 0.27022 0.0
C386 C 0.57334 0.13575 0.25084 0.0
C387 C 0.5533 0.12573 0.14167 0.0
C388 C 0.54709 0.13857 0.15808 0.0
H389 H 0.58305 0.13422 0.28875 0.0
H390 H 0.54733 0.1163 0.09297 0.0
H391 H 0.5822 0.09656 0.33043 0.0
H392 H 0.52591 0.08032 0.39064 0.0
H393 H 0.60394 0.1453 0.94135 0.0
H394 H 0.57243 0.15678 0.32258 0.0
H395 H 0.5369 0.13922 0.11981 0.0
C396 C 0.46477 0.92672 0.68795 0.0
C397 C 0.46538 0.9308 0.61106 0.0
N398 N 0.47782 0.92672 0.57727 0.0
N399 N 0.4768 0.92016 0.70233 0.0
C400 C 0.48475 0.92057 0.634 0.0
H401 H 0.45545 0.92755 0.73009 0.0
Co402 Co 0.47901 0.91064 0.7962 0.0
C403 C 0.48823 0.88086 0.75336 0.0
O404 O 0.47409 0.86922 0.79783 0.0
N405 N 0.48181 0.90228 0.89301 0.0
C406 C 0.49744 0.89978 0.99359 0.0
C407 C 0.49579 0.89879 0.91531 0.0
C408 C 0.47573 0.90606 0.95935 0.0
N409 N 0.48487 0.90445 0.02098 0.0
O410 O 0.50279 0.93367 0.81505 0.0
H411 H 0.50593 0.89798 0.87786 0.0
H412 H 0.46661 0.91223 0.96196 0.0
O413 O 0.4922 0.89823 0.74724 0.0
C414 C 0.49993 0.9469 0.83889 0.0
O415 O 0.48236 0.94353 0.84342 0.0
N416 N 0.45447 0.88872 0.77895 0.0
C417 C 0.41645 0.86326 0.74024 0.0
C418 C 0.43114 0.86685 0.68912 0.0
C419 C 0.45002 0.87954 0.70954 0.0
C420 C 0.44023 0.88507 0.82968 0.0
C421 C 0.42119 0.87212 0.81213 0.0
H422 H 0.46093 0.88276 0.66733 0.0
H423 H 0.44325 0.89306 0.88203 0.0
H424 H 0.49476 0.91562 0.62512 0.0
H425 H 0.45646 0.9352 0.58153 0.0
H426 H 0.50812 0.89874 0.02729 0.0
H427 H 0.42802 0.86041 0.63268 0.0
H428 H 0.41017 0.87004 0.85246 0.0
C429 C 0.08959 0.53822 0.69822 0.0
C430 C 0.08502 0.53535 0.62172 0.0
N431 N 0.09084 0.55239 0.58834 0.0
N432 N 0.09807 0.55694 0.71385 0.0
C433 C 0.09838 0.56521 0.64604 0.0
H434 H 0.0878 0.52741 0.73907 0.0
Co435 Co 0.10926 0.56742 0.80839 0.0
C436 C 0.13794 0.60633 0.74419 0.0
O437 O 0.1523 0.60326 0.75037 0.0
N438 N 0.11988 0.57751 0.90487 0.0
C439 C 0.13814 0.59394 0.00353 0.0
C440 C 0.13734 0.59163 0.92524 0.0
C441 C 0.11047 0.57135 0.97207 0.0
N442 N 0.12115 0.58119 0.0329 0.0
O443 O 0.08695 0.5691 0.83641 0.0
H444 H 0.149 0.59966 0.88682 0.0
H445 H 0.09612 0.55953 0.97663 0.0
O446 O 0.12121 0.59365 0.76536 0.0
C447 C 0.07275 0.55303 0.85503 0.0
O448 O 0.07472 0.53793 0.85284 0.0
N449 N 0.13008 0.56359 0.78303 0.0
C450 C 0.15508 0.55014 0.74629 0.0
C451 C 0.15054 0.5601 0.69223 0.0
C452 C 0.13777 0.56631 0.71109 0.0
C453 C 0.13427 0.55382 0.83615 0.0
C454 C 0.14684 0.5472 0.8194 0.0
H455 H 0.13404 0.57326 0.66716 0.0
H456 H 0.12717 0.55029 0.8911 0.0
H457 H 0.10545 0.58043 0.6379 0.0
H458 H 0.07863 0.52177 0.59273 0.0
H459 H 0.15028 0.60429 0.03609 0.0
H460 H 0.15653 0.56285 0.63507 0.0
H461 H 0.14932 0.53906 0.86246 0.0
C462 C 0.47984 0.55615 0.71192 0.0
C463 C 0.48317 0.55557 0.63481 0.0
N464 N 0.46642 0.54394 0.60059 0.0
N465 N 0.46111 0.54488 0.72589 0.0
C466 C 0.45335 0.53745 0.65705 0.0
H467 H 0.49023 0.56496 0.75449 0.0
Co468 Co 0.44932 0.54281 0.81954 0.0
C469 C 0.41069 0.53408 0.76625 0.0
O470 O 0.4125 0.54892 0.8039 0.0
N471 N 0.43796 0.54018 0.9156 0.0
C472 C 0.41888 0.52641 0.01568 0.0
C473 C 0.4198 0.52807 0.93726 0.0
C474 C 0.44782 0.54517 0.98225 0.0
N475 N 0.43654 0.53716 0.0436 0.0
O476 O 0.44788 0.51864 0.83793 0.0
H477 H 0.40817 0.51923 0.89952 0.0
H478 H 0.46319 0.5529 0.98535 0.0
O479 O 0.42401 0.52996 0.76921 0.0
C480 C 0.46369 0.52069 0.86167 0.0
O481 O 0.47837 0.53796 0.86697 0.0
N482 N 0.45262 0.56768 0.80347 0.0
C483 C 0.46633 0.60647 0.77225 0.0
C484 C 0.45524 0.59238 0.71828 0.0
C485 C 0.44867 0.57317 0.73469 0.0
C486 C 0.46315 0.58122 0.85683 0.0
C487 C 0.46977 0.6005 0.84312 0.0
H488 H 0.44116 0.56281 0.69025 0.0
H489 H 0.46756 0.57741 0.90886 0.0
H490 H 0.43829 0.52816 0.64742 0.0
H491 H 0.49658 0.56397 0.60548 0.0
H492 H 0.40645 0.51706 0.04923 0.0
H493 H 0.45249 0.59616 0.66203 0.0
H494 H 0.47814 0.61071 0.88707 0.0
C495 C 0.61302 0.81535 0.6318 0.0
C496 C 0.61575 0.81853 0.70932 0.0
N497 N 0.60004 0.81765 0.73915 0.0
N498 N 0.59567 0.81249 0.61273 0.0
C499 C 0.5881 0.81405 0.67944 0.0
H500 H 0.62276 0.81427 0.59284 0.0
Co501 Co 0.58416 0.80474 0.51733 0.0
C502 C 0.55654 0.81941 0.50487 0.0
O503 O 0.54746 0.8081 0.44711 0.0
N504 N 0.57298 0.79663 0.41961 0.0
C505 C 0.55894 0.77877 0.31699 0.0
C506 C 0.56182 0.77862 0.39451 0.0
C507 C 0.57665 0.80742 0.35573 0.0
N508 N 0.56837 0.79692 0.29238 0.0
O509 O 0.60516 0.82709 0.47145 0.0
H510 H 0.55673 0.76593 0.42889 0.0
H511 H 0.58553 0.82272 0.35547 0.0
O512 O 0.57053 0.81882 0.5362 0.0
C513 C 0.61746 0.82326 0.44415 0.0
O514 O 0.6141 0.80569 0.44941 0.0
N515 N 0.56499 0.7821 0.56248 0.0
C516 C 0.54047 0.74506 0.61424 0.0
C517 C 0.53428 0.75843 0.60939 0.0
C518 C 0.5468 0.77696 0.58307 0.0
C519 C 0.57145 0.76959 0.5709 0.0
C520 C 0.55945 0.75103 0.59603 0.0
H521 H 0.54164 0.78684 0.57828 0.0
H522 H 0.58594 0.77392 0.55509 0.0
H523 H 0.57367 0.81132 0.68498 0.0
H524 H 0.62804 0.82061 0.74174 0.0
H525 H 0.55144 0.76632 0.28099 0.0
H526 H 0.51976 0.75444 0.62344 0.0
H527 H 0.56496 0.74135 0.6004 0.0
C528 C 0.22531 0.80966 0.62353 0.0
C529 C 0.22447 0.81312 0.70014 0.0
N530 N 0.21323 0.7964 0.73549 0.0
N531 N 0.21466 0.79084 0.61017 0.0
C532 C 0.20706 0.78317 0.67919 0.0
H533 H 0.23422 0.82005 0.58123 0.0
Co534 Co 0.2152 0.77959 0.51718 0.0
C535 C 0.20478 0.74126 0.5848 0.0
O536 O 0.22198 0.74403 0.5738 0.0
N537 N 0.21547 0.76884 0.42122 0.0
C538 C 0.21241 0.75028 0.32162 0.0
C539 C 0.21294 0.75167 0.4004 0.0
C540 C 0.21655 0.77756 0.35365 0.0
N541 N 0.2145 0.76656 0.29239 0.0
O542 O 0.19168 0.77854 0.48673 0.0
H543 H 0.21087 0.7404 0.43862 0.0
H544 H 0.21876 0.79179 0.34913 0.0
O545 O 0.20051 0.75379 0.56328 0.0
C546 C 0.19501 0.79428 0.45682 0.0
O547 O 0.21265 0.80845 0.45638 0.0
N548 N 0.23963 0.7828 0.54483 0.0
C549 C 0.27769 0.79595 0.58584 0.0
C550 C 0.26318 0.7874 0.64025 0.0
C551 C 0.24431 0.78092 0.61872 0.0
C552 C 0.25375 0.79112 0.49123 0.0
C553 C 0.27278 0.79741 0.51012 0.0
H554 H 0.23353 0.77456 0.66232 0.0
H555 H 0.25057 0.79387 0.43409 0.0
H556 H 0.19881 0.76803 0.68958 0.0
H557 H 0.23241 0.82678 0.72822 0.0
H558 H 0.20985 0.73793 0.28859 0.0
H559 H 0.26643 0.78605 0.69944 0.0
H560 H 0.28368 0.80431 0.46679 0.0
C561 C 0.21649 0.4097 0.61722 0.0
C562 C 0.21493 0.40714 0.6955 0.0
N563 N 0.23089 0.42108 0.72794 0.0
N564 N 0.23338 0.42514 0.60055 0.0
C565 C 0.24179 0.43174 0.66927 0.0
H566 H 0.20555 0.40132 0.57587 0.0
Co567 Co 0.24167 0.43703 0.50609 0.0
C568 C 0.28287 0.45131 0.51216 0.0
O569 O 0.28161 0.44342 0.44501 0.0
N570 N 0.24988 0.44929 0.41114 0.0
C571 C 0.26513 0.47072 0.31935 0.0
C572 C 0.26277 0.46773 0.39741 0.0
C573 C 0.24446 0.44151 0.34079 0.0
N574 N 0.25368 0.45408 0.28424 0.0
O575 O 0.24383 0.41555 0.46948 0.0
H576 H 0.27032 0.47828 0.44128 0.0
H577 H 0.23385 0.42694 0.33021 0.0
O578 O 0.26797 0.44989 0.54322 0.0
C579 C 0.22839 0.40267 0.43924 0.0
O580 O 0.21378 0.40545 0.43542 0.0
N581 N 0.23749 0.45652 0.54017 0.0
C582 C 0.22382 0.47998 0.5926 0.0
C583 C 0.24273 0.48465 0.6069 0.0
C584 C 0.24931 0.47258 0.58063 0.0
C585 C 0.21933 0.45212 0.52402 0.0
C586 C 0.21219 0.46358 0.54977 0.0
H587 H 0.26368 0.476 0.594 0.0
H588 H 0.21019 0.43929 0.49221 0.0
H589 H 0.25509 0.44487 0.67676 0.0
H590 H 0.20279 0.39622 0.72619 0.0
H591 H 0.27486 0.48389 0.2908 0.0
H592 H 0.25215 0.49718 0.63996 0.0
H593 H 0.19761 0.45957 0.53645 0.0
C594 C 0.12657 0.22044 0.51321 0.0
C595 C 0.14094 0.23044 0.45926 0.0
C596 C 0.12906 0.22601 0.59044 0.0
C597 C 0.14652 0.24176 0.61456 0.0
C598 C 0.16129 0.25161 0.56067 0.0
C599 C 0.15824 0.24594 0.48341 0.0
C600 C 0.11282 0.21535 0.64583 0.0
C601 C 0.18023 0.2682 0.58447 0.0
C602 C 0.14366 0.26578 0.79652 0.0
C603 C 0.14814 0.2563 0.85318 0.0
C604 C 0.14372 0.26168 0.71838 0.0
C605 C 0.14891 0.24815 0.69584 0.0
C606 C 0.15483 0.23957 0.75193 0.0
C607 C 0.1542 0.24359 0.82984 0.0
C608 C 0.1372 0.27107 0.66033 0.0
C609 C 0.16092 0.2254 0.73001 0.0
H610 H 0.1131 0.20864 0.4944 0.0
H611 H 0.16941 0.25356 0.44172 0.0
H612 H 0.11741 0.20957 0.69384 0.0
H613 H 0.10854 0.22521 0.67097 0.0
H614 H 0.1002 0.20339 0.6179 0.0
H615 H 0.19056 0.27368 0.53634 0.0
H616 H 0.17826 0.27995 0.6061 0.0
H617 H 0.18639 0.26391 0.63208 0.0
H618 H 0.13949 0.27602 0.81318 0.0
H619 H 0.15772 0.23607 0.87213 0.0
H620 H 0.12372 0.26017 0.63344 0.0
H621 H 0.14783 0.27769 0.61384 0.0
H622 H 0.13478 0.28215 0.68658 0.0
H623 H 0.14838 0.21205 0.70993 0.0
H624 H 0.16747 0.22194 0.77891 0.0
H625 H 0.17126 0.23098 0.68203 0.0
C626 C 0.76321 0.90974 0.44661 0.0
C627 C 0.7803 0.91088 0.42385 0.0
C628 C 0.7576 0.90685 0.52392 0.0
C629 C 0.76905 0.90434 0.57888 0.0
C630 C 0.78626 0.90533 0.55573 0.0
C631 C 0.79179 0.90886 0.47866 0.0
C632 C 0.73934 0.90626 0.5461 0.0
C633 C 0.79866 0.90226 0.61208 0.0
C634 C 0.76767 0.91039 0.79375 0.0
C635 C 0.75748 0.89138 0.81862 0.0
C636 C 0.77035 0.91492 0.71534 0.0
C637 C 0.76305 0.90011 0.66041 0.0
C638 C 0.75176 0.88103 0.68466 0.0
C639 C 0.74888 0.87694 0.76328 0.0
C640 C 0.78183 0.93551 0.69142 0.0
C641 C 0.74372 0.86482 0.62783 0.0
H642 H 0.75439 0.9114 0.40397 0.0
H643 H 0.80487 0.9095 0.46061 0.0
H644 H 0.72781 0.89124 0.55096 0.0
H645 H 0.74073 0.91321 0.6024 0.0
H646 H 0.73497 0.91332 0.50241 0.0
H647 H 0.8114 0.90316 0.5844 0.0
H648 H 0.80346 0.91305 0.6584 0.0
H649 H 0.79035 0.88807 0.6394 0.0
H650 H 0.77434 0.9218 0.83506 0.0
H651 H 0.74041 0.86227 0.78123 0.0
H652 H 0.77446 0.93857 0.64452 0.0
H653 H 0.79583 0.93846 0.66906 0.0
H654 H 0.78431 0.94537 0.7399 0.0
H655 H 0.73535 0.86714 0.58314 0.0
H656 H 0.73445 0.85085 0.65565 0.0
H657 H 0.75554 0.86423 0.59844 0.0
C658 C 0.13936 0.87505 0.81719 0.0
C659 C 0.12653 0.87552 0.86957 0.0
C660 C 0.13606 0.87448 0.7378 0.0
C661 C 0.11968 0.87465 0.7106 0.0
C662 C 0.10684 0.8754 0.76335 0.0
C663 C 0.11039 0.87576 0.84211 0.0
C664 C 0.14992 0.87344 0.68314 0.0
C665 C 0.08928 0.87575 0.73664 0.0
C666 C 0.1167 0.88872 0.50533 0.0
C667 C 0.10452 0.87099 0.47231 0.0
C668 C 0.12216 0.89016 0.58264 0.0
C669 C 0.11549 0.87341 0.62717 0.0
C670 C 0.10374 0.85543 0.59312 0.0
C671 C 0.09831 0.85445 0.5162 0.0
C672 C 0.13456 0.90959 0.61727 0.0
C673 C 0.09658 0.83723 0.63834 0.0
H674 H 0.15181 0.87484 0.83851 0.0
H675 H 0.10067 0.87658 0.88236 0.0
H676 H 0.14254 0.86018 0.64879 0.0
H677 H 0.15549 0.88552 0.64228 0.0
H678 H 0.16211 0.87371 0.7135 0.0
H679 H 0.08103 0.87688 0.78511 0.0
H680 H 0.09336 0.88796 0.69736 0.0
H681 H 0.07989 0.86261 0.70399 0.0
H682 H 0.1215 0.90146 0.47107 0.0
H683 H 0.08927 0.8407 0.49008 0.0
H684 H 0.14726 0.91034 0.64474 0.0
H685 H 0.12656 0.91217 0.66275 0.0
H686 H 0.13935 0.92113 0.57393 0.0
H687 H 0.10866 0.83671 0.66584 0.0
H688 H 0.08863 0.82438 0.60194 0.0
H689 H 0.08704 0.83675 0.68487 0.0
C690 C 0.26613 0.15301 0.58345 0.0
C691 C 0.24685 0.14334 0.6043 0.0
C692 C 0.27164 0.15454 0.50625 0.0
C693 C 0.25754 0.14627 0.4485 0.0
C694 C 0.23807 0.1369 0.46899 0.0
C695 C 0.23297 0.13553 0.54655 0.0
C696 C 0.29254 0.16471 0.48659 0.0
C697 C 0.22258 0.12781 0.40913 0.0
C698 C 0.26844 0.15932 0.23771 0.0
C699 C 0.26959 0.14373 0.2094 0.0
C700 C 0.26516 0.16072 0.31597 0.0
C701 C 0.26299 0.1462 0.3671 0.0
C702 C 0.26482 0.13081 0.33945 0.0
C703 C 0.26804 0.12974 0.26114 0.0
C704 C 0.26337 0.17739 0.34345 0.0
C705 C 0.2626 0.11501 0.39208 0.0
H706 H 0.27695 0.15943 0.6275 0.0
H707 H 0.21807 0.12788 0.56206 0.0
H708 H 0.29616 0.15481 0.45713 0.0
H709 H 0.29591 0.17659 0.44643 0.0
H710 H 0.3017 0.17048 0.5382 0.0
H711 H 0.20814 0.12198 0.43408 0.0
H712 H 0.22453 0.13835 0.36427 0.0
H713 H 0.22345 0.11607 0.38043 0.0
H714 H 0.26986 0.17031 0.1985 0.0
H715 H 0.26857 0.11747 0.24025 0.0
H716 H 0.27289 0.18428 0.39326 0.0
H717 H 0.2486 0.17232 0.36303 0.0
H718 H 0.26687 0.1882 0.2978 0.0
H719 H 0.27226 0.12099 0.44217 0.0
H720 H 0.26568 0.10472 0.3626 0.0
H721 H 0.24784 0.10719 0.41442 0.0
C722 C 0.8591 0.09783 0.47954 0.0
C723 C 0.8758 0.10515 0.52329 0.0
C724 C 0.85959 0.1031 0.40267 0.0
C725 C 0.87727 0.11577 0.36841 0.0
C726 C 0.89416 0.12355 0.41283 0.0
C727 C 0.89318 0.11827 0.49021 0.0
C728 C 0.84123 0.09476 0.3577 0.0
C729 C 0.9133 0.13693 0.37797 0.0
C730 C 0.87973 0.1107 0.15337 0.0
C731 C 0.87834 0.1262 0.12579 0.0
C732 C 0.87976 0.1074 0.23221 0.0
C733 C 0.87814 0.11978 0.28486 0.0
C734 C 0.87672 0.13547 0.25744 0.0
C735 C 0.87703 0.1386 0.178 0.0
C736 C 0.88155 0.09065 0.25913 0.0
C737 C 0.87465 0.14877 0.3119 0.0
H738 H 0.8456 0.08802 0.50575 0.0
H739 H 0.90605 0.12391 0.52438 0.0
H740 H 0.83977 0.10627 0.32978 0.0
H741 H 0.84138 0.08544 0.31152 0.0
H742 H 0.82857 0.08627 0.39438 0.0
H743 H 0.92492 0.14248 0.42121 0.0
H744 H 0.91657 0.12941 0.33261 0.0
H745 H 0.91305 0.14912 0.35029 0.0
H746 H 0.8812 0.10136 0.1131 0.0
H747 H 0.87597 0.15057 0.15646 0.0
H748 H 0.86866 0.08062 0.29171 0.0
H749 H 0.89388 0.09556 0.29853 0.0
H750 H 0.8834 0.08282 0.21076 0.0
H751 H 0.86153 0.14072 0.34651 0.0
H752 H 0.87395 0.16043 0.28137 0.0
H753 H 0.88681 0.15512 0.35253 0.0
C754 C 0.89105 0.75082 0.17984 0.0
C755 C 0.90623 0.75698 0.12833 0.0
C756 C 0.89426 0.75567 0.25777 0.0
C757 C 0.91316 0.76665 0.28518 0.0
C758 C 0.92858 0.77238 0.23382 0.0
C759 C 0.92492 0.76768 0.15567 0.0
C760 C 0.87739 0.74962 0.31021 0.0
C761 C 0.94892 0.78366 0.2612 0.0
C762 C 0.91841 0.79509 0.46514 0.0
C763 C 0.91771 0.78273 0.52309 0.0
C764 C 0.91764 0.79034 0.38737 0.0
C765 C 0.91654 0.77295 0.36671 0.0
C766 C 0.91699 0.76092 0.4246 0.0
C767 C 0.91742 0.76588 0.50207 0.0
C768 C 0.91695 0.80346 0.32752 0.0
C769 C 0.91609 0.74237 0.40499 0.0
H770 H 0.8766 0.74278 0.15852 0.0
H771 H 0.93664 0.7723 0.11578 0.0
H772 H 0.87817 0.74126 0.35906 0.0
H773 H 0.87762 0.76237 0.33447 0.0
H774 H 0.86363 0.7409 0.28005 0.0
H775 H 0.95925 0.78579 0.21516 0.0
H776 H 0.95191 0.79779 0.28206 0.0
H777 H 0.95123 0.77628 0.31016 0.0
H778 H 0.91901 0.8083 0.48064 0.0
H779 H 0.91667 0.75607 0.54592 0.0
H780 H 0.903 0.7962 0.29768 0.0
H781 H 0.92808 0.80701 0.28354 0.0
H782 H 0.91895 0.81691 0.35275 0.0
H783 H 0.9016 0.73201 0.38432 0.0
H784 H 0.91937 0.73607 0.45531 0.0
H785 H 0.9262 0.74446 0.35816 0.0
C786 C 0.79708 0.58999 0.1023 0.0
C787 C 0.81178 0.59268 0.15245 0.0
C788 C 0.79774 0.5864 0.02405 0.0
C789 C 0.81351 0.58545 0.99488 0.0
C790 C 0.82868 0.58869 0.04452 0.0
C791 C 0.82761 0.59223 0.12277 0.0
C792 C 0.78122 0.58294 0.97312 0.0
C793 C 0.84579 0.58792 0.01537 0.0
C794 C 0.80424 0.55564 0.8151 0.0
C795 C 0.81116 0.56954 0.75743 0.0
C796 C 0.80529 0.56067 0.89271 0.0
C797 C 0.81354 0.58009 0.91324 0.0
C798 C 0.8209 0.59423 0.85542 0.0
C799 C 0.81959 0.58878 0.77825 0.0
C800 C 0.79717 0.54516 0.95264 0.0
C801 C 0.8299 0.6151 0.87492 0.0
H802 H 0.78462 0.58995 0.12458 0.0
H803 H 0.8391 0.59447 0.16096 0.0
H804 H 0.78637 0.59259 0.92279 0.0
H805 H 0.77415 0.56815 0.95099 0.0
H806 H 0.77049 0.58513 0.00386 0.0
H807 H 0.85689 0.59192 0.06022 0.0
H808 H 0.84136 0.57333 0.99518 0.0
H809 H 0.85211 0.59761 0.96561 0.0
H810 H 0.79759 0.54077 0.79937 0.0
H811 H 0.82531 0.59963 0.73415 0.0
H812 H 0.7852 0.54532 0.98264 0.0
H813 H 0.80813 0.54771 0.99648 0.0
H814 H 0.79191 0.53081 0.92751 0.0
H815 H 0.81919 0.61794 0.90181 0.0
H816 H 0.83578 0.62435 0.82356 0.0
H817 H 0.84152 0.61911 0.91726 0.0
C818 C 0.42234 0.2191 0.13496 0.0
C819 C 0.42785 0.23401 0.18741 0.0
C820 C 0.42717 0.22273 0.05728 0.0
C821 C 0.43748 0.24177 0.0311 0.0
C822 C 0.4426 0.25693 0.08341 0.0
C823 C 0.43792 0.25285 0.16136 0.0
C824 C 0.42174 0.20616 0.00374 0.0
C825 C 0.45315 0.27738 0.05718 0.0
C826 C 0.46564 0.24746 0.85061 0.0
C827 C 0.4527 0.24568 0.7932 0.0
C828 C 0.46127 0.24719 0.9285 0.0
C829 C 0.44369 0.24555 0.9497 0.0
C830 C 0.43117 0.24522 0.89224 0.0
C831 C 0.43574 0.24512 0.81467 0.0
C832 C 0.47493 0.24736 0.98797 0.0
C833 C 0.41243 0.24382 0.91245 0.0
H834 H 0.41479 0.20455 0.15532 0.0
H835 H 0.44203 0.26435 0.20204 0.0
H836 H 0.41295 0.20656 0.95579 0.0
H837 H 0.43475 0.20716 0.97834 0.0
H838 H 0.41365 0.19222 0.0333 0.0
H839 H 0.45501 0.28742 0.10412 0.0
H840 H 0.46739 0.281 0.03527 0.0
H841 H 0.44536 0.27946 0.00917 0.0
H842 H 0.47898 0.2484 0.83476 0.0
H843 H 0.42553 0.24365 0.77131 0.0
H844 H 0.46841 0.23335 0.01728 0.0
H845 H 0.47788 0.25826 0.0324 0.0
H846 H 0.48865 0.25024 0.96239 0.0
H847 H 0.40228 0.22916 0.93193 0.0
H848 H 0.40602 0.24714 0.86259 0.0
H849 H 0.41426 0.25364 0.96016 0.0
C850 C 0.78416 0.22336 0.82498 0.0
C851 C 0.76869 0.20694 0.79453 0.0
C852 C 0.78957 0.22404 0.90211 0.0
C853 C 0.77937 0.20783 0.94936 0.0
C854 C 0.76411 0.19103 0.91812 0.0
C855 C 0.75893 0.19082 0.84126 0.0
C856 C 0.80583 0.24226 0.93359 0.0
C857 C 0.75302 0.17336 0.96628 0.0
C858 C 0.80026 0.20364 0.13928 0.0
C859 C 0.79003 0.20814 0.1916 0.0
C860 C 0.79711 0.20363 0.05989 0.0
C861 C 0.78374 0.20868 0.03266 0.0
C862 C 0.77377 0.21372 0.08548 0.0
C863 C 0.77693 0.21323 0.16426 0.0
C864 C 0.80774 0.19784 0.00532 0.0
C865 C 0.75962 0.21947 0.05886 0.0
H866 H 0.79172 0.23581 0.78886 0.0
H867 H 0.74728 0.17792 0.81749 0.0
H868 H 0.80047 0.24803 0.97869 0.0
H869 H 0.81655 0.23945 0.96085 0.0
H870 H 0.81293 0.25325 0.88845 0.0
H871 H 0.74232 0.16112 0.93207 0.0
H872 H 0.76282 0.16929 0.99369 0.0
H873 H 0.74552 0.17625 0.01296 0.0
H874 H 0.81038 0.19973 0.16075 0.0
H875 H 0.76933 0.21712 0.20478 0.0
H876 H 0.81558 0.20924 0.96251 0.0
H877 H 0.79751 0.18493 0.97316 0.0
H878 H 0.818 0.1948 0.03552 0.0
H879 H 0.76642 0.23135 0.01718 0.0
H880 H 0.75384 0.22396 0.10714 0.0
H881 H 0.74759 0.20737 0.02895 0.0
C882 C 0.89902 0.46802 0.84167 0.0
C883 C 0.91275 0.47689 0.89931 0.0
C884 C 0.90421 0.46981 0.7641 0.0
C885 C 0.92363 0.48077 0.74348 0.0
C886 C 0.93752 0.4903 0.80111 0.0
C887 C 0.93193 0.48816 0.87836 0.0
C888 C 0.88895 0.45946 0.70436 0.0
C889 C 0.95838 0.50221 0.78202 0.0
C890 C 0.93636 0.46558 0.55782 0.0
C891 C 0.93644 0.4787 0.50485 0.0
C892 C 0.93297 0.4666 0.63599 0.0
C893 C 0.92936 0.48098 0.66227 0.0
C894 C 0.93012 0.49471 0.61006 0.0
C895 C 0.93371 0.49345 0.53203 0.0
C896 C 0.93254 0.45183 0.69007 0.0
C897 C 0.92666 0.51045 0.63638 0.0
H898 H 0.88422 0.45919 0.85735 0.0
H899 H 0.94261 0.49534 0.92238 0.0
H900 H 0.8899 0.46948 0.65891 0.0
H901 H 0.8911 0.44839 0.67645 0.0
H902 H 0.87442 0.45251 0.72927 0.0
H903 H 0.96456 0.49278 0.77616 0.0
H904 H 0.96063 0.50996 0.72709 0.0
H905 H 0.96628 0.51271 0.82795 0.0
H906 H 0.93822 0.45398 0.53821 0.0
H907 H 0.9341 0.50389 0.49218 0.0
H908 H 0.91802 0.44311 0.71397 0.0
H909 H 0.94234 0.45887 0.73901 0.0
H910 H 0.93666 0.4422 0.66138 0.0
H911 H 0.9119 0.50426 0.65814 0.0
H912 H 0.92876 0.52061 0.58955 0.0
H913 H 0.93638 0.51838 0.68449 0.0
C914 C 0.54279 0.42465 0.81557 0.0
C915 C 0.53958 0.43477 0.87298 0.0
C916 C 0.54326 0.42946 0.73804 0.0
C917 C 0.54009 0.44454 0.71746 0.0
C918 C 0.53667 0.45472 0.77528 0.0
C919 C 0.53661 0.44979 0.8526 0.0
C920 C 0.54731 0.41849 0.67824 0.0
C921 C 0.53284 0.47062 0.75545 0.0
C922 C 0.55937 0.4674 0.52408 0.0
C923 C 0.54335 0.45765 0.47677 0.0
C924 C 0.55838 0.46359 0.60289 0.0
C925 C 0.54087 0.44987 0.63539 0.0
C926 C 0.52448 0.44042 0.58839 0.0
C927 C 0.52596 0.4443 0.50936 0.0
C928 C 0.57625 0.47373 0.65079 0.0
C929 C 0.50549 0.42591 0.62125 0.0
H930 H 0.54515 0.41309 0.83171 0.0
H931 H 0.53377 0.45736 0.89709 0.0
H932 H 0.53527 0.41166 0.63723 0.0
H933 H 0.56013 0.42834 0.64486 0.0
H934 H 0.54966 0.40729 0.70397 0.0
H935 H 0.53102 0.47749 0.80731 0.0
H936 H 0.54469 0.48161 0.72079 0.0
H937 H 0.51975 0.46497 0.72002 0.0
H938 H 0.5729 0.47749 0.49887 0.0
H939 H 0.51357 0.43686 0.47281 0.0
H940 H 0.57997 0.46325 0.67392 0.0
H941 H 0.57388 0.48081 0.70052 0.0
H942 H 0.58854 0.48459 0.61737 0.0
H943 H 0.50625 0.41338 0.64206 0.0
H944 H 0.49384 0.42101 0.57833 0.0
H945 H 0.5019 0.43198 0.67122 0.0
C946 C 0.57917 0.09652 0.49299 0.0
C947 C 0.56011 0.08759 0.46845 0.0
C948 C 0.5839 0.09938 0.57123 0.0
C949 C 0.56928 0.09356 0.6264 0.0
C950 C 0.55004 0.08365 0.6027 0.0
C951 C 0.5457 0.08052 0.52432 0.0
C952 C 0.6046 0.10948 0.5945 0.0
C953 C 0.53401 0.07735 0.65977 0.0
C954 C 0.57817 0.09251 0.83999 0.0
C955 C 0.58072 0.11016 0.86343 0.0
C956 C 0.5751 0.08712 0.76247 0.0
C957 C 0.57402 0.09948 0.70781 0.0
C958 C 0.57669 0.11735 0.73138 0.0
C959 C 0.58024 0.12256 0.80885 0.0
C960 C 0.57279 0.06815 0.73939 0.0
C961 C 0.57522 0.13076 0.67519 0.0
H962 H 0.59058 0.10198 0.45157 0.0
H963 H 0.53093 0.07302 0.50716 0.0
H964 H 0.60895 0.12414 0.61347 0.0
H965 H 0.60686 0.10208 0.64351 0.0
H966 H 0.61401 0.11038 0.5465 0.0
H967 H 0.5198 0.06887 0.63254 0.0
H968 H 0.5354 0.06871 0.70592 0.0
H969 H 0.53472 0.09002 0.68729 0.0
H970 H 0.57873 0.08302 0.88239 0.0
H971 H 0.582 0.13609 0.82735 0.0
H972 H 0.58186 0.06984 0.68907 0.0
H973 H 0.55783 0.05835 0.72238 0.0
H974 H 0.57652 0.06143 0.78682 0.0
H975 H 0.58577 0.13447 0.62853 0.0
H976 H 0.57765 0.14411 0.70292 0.0
H977 H 0.5609 0.12368 0.64828 0.0
C978 C 0.47961 0.93877 0.44599 0.0
C979 C 0.48031 0.92563 0.49622 0.0
C980 C 0.48081 0.93709 0.36634 0.0
C981 C 0.48244 0.92173 0.33668 0.0
C982 C 0.48335 0.90856 0.38728 0.0
C983 C 0.48236 0.91072 0.46647 0.0
C984 C 0.48014 0.95158 0.31399 0.0
C985 C 0.48495 0.89191 0.35776 0.0
C986 C 0.46663 0.90366 0.13431 0.0
C987 C 0.48415 0.9102 0.09794 0.0
C988 C 0.46581 0.90784 0.21179 0.0
C989 C 0.48295 0.91914 0.25273 0.0
C990 C 0.50065 0.92666 0.21472 0.0
C991 C 0.50103 0.92194 0.13779 0.0
C992 C 0.44669 0.89944 0.25068 0.0
C993 C 0.51919 0.93912 0.25593 0.0
H994 H 0.47813 0.95034 0.46919 0.0
H995 H 0.48254 0.90034 0.50509 0.0
H996 H 0.49278 0.95801 0.27593 0.0
H997 H 0.4674 0.94454 0.27654 0.0
H998 H 0.47969 0.96313 0.34638 0.0
H999 H 0.48563 0.88303 0.4049 0.0
H1000 H 0.47253 0.8828 0.3208 0.0
H1001 H 0.49789 0.89706 0.32194 0.0
H1002 H 0.45366 0.89464 0.10283 0.0
H1003 H 0.51454 0.9273 0.10866 0.0
H1004 H 0.4452 0.91073 0.28011 0.0
H1005 H 0.44556 0.88912 0.29516 0.0
H1006 H 0.43471 0.892 0.20959 0.0
H1007 H 0.51857 0.95072 0.28704 0.0
H1008 H 0.53148 0.94553 0.21598 0.0
H1009 H 0.52169 0.93056 0.29918 0.0
C1010 C 0.09512 0.57395 0.47985 0.0
C1011 C 0.09224 0.5564 0.50698 0.0
C1012 C 0.09859 0.57878 0.40177 0.0
C1013 C 0.09903 0.56568 0.34945 0.0
C1014 C 0.09522 0.54762 0.37563 0.0
C1015 C 0.09198 0.54324 0.45389 0.0
C1016 C 0.10232 0.59808 0.37558 0.0
C1017 C 0.0953 0.53316 0.32137 0.0
C1018 C 0.09652 0.57073 0.1336 0.0
C1019 C 0.11566 0.57832 0.11258 0.0
C1020 C 0.09092 0.5672 0.21081 0.0
C1021 C 0.10477 0.57121 0.2683 0.0
C1022 C 0.12416 0.57937 0.24765 0.0
C1023 C 0.12935 0.58281 0.17013 0.0
C1024 C 0.07009 0.55855 0.23005 0.0
C1025 C 0.13938 0.58391 0.3073 0.0
H1026 H 0.09496 0.58408 0.51976 0.0
H1027 H 0.08998 0.52972 0.47345 0.0
H1028 H 0.1171 0.60648 0.35387 0.0
H1029 H 0.09266 0.5965 0.32747 0.0
H1030 H 0.10036 0.6062 0.42247 0.0
H1031 H 0.09091 0.51933 0.34994 0.0
H1032 H 0.08556 0.53067 0.27243 0.0
H1033 H 0.10979 0.53868 0.29752 0.0
H1034 H 0.08587 0.56751 0.08967 0.0
H1035 H 0.14412 0.58851 0.15444 0.0
H1036 H 0.06799 0.56426 0.28467 0.0
H1037 H 0.06376 0.54295 0.23676 0.0
H1038 H 0.06223 0.56118 0.18389 0.0
H1039 H 0.13862 0.59302 0.35294 0.0
H1040 H 0.15391 0.59129 0.28236 0.0
H1041 H 0.137 0.57057 0.33495 0.0
C1042 C 0.4753 0.5404 0.46916 0.0
C1043 C 0.46269 0.54189 0.5196 0.0
C1044 C 0.47204 0.53903 0.38967 0.0
C1045 C 0.45605 0.53962 0.3604 0.0
C1046 C 0.44331 0.54117 0.41129 0.0
C1047 C 0.44673 0.54213 0.49033 0.0
C1048 C 0.48566 0.53696 0.33708 0.0
C1049 C 0.42625 0.54213 0.38225 0.0
C1050 C 0.45542 0.55496 0.15541 0.0
C1051 C 0.44251 0.53763 0.12139 0.0
C1052 C 0.46038 0.55579 0.23302 0.0
C1053 C 0.45255 0.53879 0.27657 0.0
C1054 C 0.44021 0.52114 0.24118 0.0
C1055 C 0.43515 0.52081 0.16407 0.0
C1056 C 0.47333 0.57491 0.26913 0.0
C1057 C 0.43195 0.50267 0.28523 0.0
H1058 H 0.48759 0.54015 0.49217 0.0
H1059 H 0.43719 0.54365 0.52933 0.0
H1060 H 0.47781 0.52399 0.30137 0.0
H1061 H 0.49242 0.54926 0.29735 0.0
H1062 H 0.49702 0.53605 0.36922 0.0
H1063 H 0.41788 0.54354 0.42954 0.0
H1064 H 0.43096 0.55444 0.34295 0.0
H1065 H 0.41678 0.52913 0.34899 0.0
H1066 H 0.46103 0.5679 0.12185 0.0
H1067 H 0.42544 0.50739 0.13686 0.0
H1068 H 0.48549 0.57483 0.29796 0.0
H1069 H 0.46542 0.57789 0.31374 0.0
H1070 H 0.47896 0.58664 0.22644 0.0
H1071 H 0.4434 0.50155 0.31548 0.0
H1072 H 0.42416 0.49008 0.24736 0.0
H1073 H 0.42197 0.50232 0.32947 0.0
C1074 C 0.55851 0.79178 0.15648 0.0
C1075 C 0.57136 0.8032 0.21353 0.0
C1076 C 0.56261 0.79605 0.07851 0.0
C1077 C 0.57982 0.81239 0.05694 0.0
C1078 C 0.59218 0.8248 0.11413 0.0
C1079 C 0.58788 0.81998 0.19176 0.0
C1080 C 0.54913 0.78233 0.01932 0.0
C1081 C 0.61055 0.84253 0.09358 0.0
C1082 C 0.60167 0.80825 0.87159 0.0
C1083 C 0.5957 0.81731 0.8192 0.0
C1084 C 0.5968 0.80684 0.94924 0.0
C1085 C 0.58596 0.815 0.97547 0.0
C1086 C 0.58032 0.82465 0.92321 0.0
C1087 C 0.58507 0.82548 0.84524 0.0
C1088 C 0.6028 0.7961 0.00275 0.0
C1089 C 0.56918 0.83393 0.94953 0.0
H1090 H 0.5455 0.77907 0.17268 0.0
H1091 H 0.598 0.82892 0.23493 0.0
H1092 H 0.54579 0.79002 0.97488 0.0
H1093 H 0.556 0.7752 0.98996 0.0
H1094 H 0.53559 0.77123 0.04519 0.0
H1095 H 0.6166 0.85239 0.14312 0.0
H1096 H 0.62115 0.83854 0.0749 0.0
H1097 H 0.60835 0.85016 0.04529 0.0
H1098 H 0.60963 0.80168 0.85121 0.0
H1099 H 0.5806 0.8326 0.80458 0.0
H1100 H 0.59004 0.78385 0.02829 0.0
H1101 H 0.61144 0.80544 0.05059 0.0
H1102 H 0.61126 0.79068 0.97312 0.0
H1103 H 0.55514 0.823 0.97196 0.0
H1104 H 0.56685 0.84181 0.90251 0.0
H1105 H 0.57681 0.84395 0.9972 0.0
C1106 C 0.21953 0.76321 0.15499 0.0
C1107 C 0.2133 0.77078 0.21285 0.0
C1108 C 0.21851 0.76726 0.07734 0.0
C1109 C 0.21091 0.77904 0.05694 0.0
C1110 C 0.20428 0.78648 0.11505 0.0
C1111 C 0.20564 0.78232 0.19228 0.0
C1112 C 0.2259 0.7592 0.0172 0.0
C1113 C 0.19591 0.79894 0.09576 0.0
C1114 C 0.22698 0.80466 0.86584 0.0
C1115 C 0.21183 0.79286 0.81711 0.0
C1116 C 0.22664 0.80054 0.9442 0.0
C1117 C 0.21073 0.78424 0.97503 0.0
C1118 C 0.19514 0.77253 0.92677 0.0
C1119 C 0.19591 0.77694 0.84832 0.0
C1120 C 0.24362 0.81332 0.99346 0.0
C1121 C 0.17784 0.75512 0.95767 0.0
H1122 H 0.22557 0.7544 0.17065 0.0
H1123 H 0.20045 0.78792 0.23662 0.0
H1124 H 0.21458 0.75083 0.97463 0.0
H1125 H 0.23786 0.77096 0.98569 0.0
H1126 H 0.23093 0.74991 0.04237 0.0
H1127 H 0.19051 0.80276 0.14735 0.0
H1128 H 0.20685 0.81223 0.06799 0.0
H1129 H 0.18405 0.79159 0.05423 0.0
H1130 H 0.2395 0.81677 0.84227 0.0
H1131 H 0.18412 0.76786 0.81114 0.0
H1132 H 0.2503 0.80519 0.01557 0.0
H1133 H 0.23906 0.81837 0.04385 0.0
H1134 H 0.25453 0.82589 0.96145 0.0
H1135 H 0.1819 0.74466 0.978 0.0
H1136 H 0.16646 0.74816 0.91381 0.0
H1137 H 0.17203 0.75899 0.00768 0.0
C1138 C 0.21988 0.42132 0.85931 0.0
C1139 C 0.23474 0.42531 0.80827 0.0
C1140 C 0.22355 0.42635 0.93694 0.0
C1141 C 0.24253 0.43542 0.96419 0.0
C1142 C 0.25757 0.43923 0.91319 0.0
C1143 C 0.25349 0.43421 0.83567 0.0
C1144 C 0.20716 0.42218 0.9896 0.0
C1145 C 0.27795 0.44864 0.94043 0.0
C1146 C 0.25309 0.46333 0.14995 0.0
C1147 C 0.25199 0.44995 0.20352 0.0
C1148 C 0.25029 0.45889 0.07146 0.0
C1149 C 0.24655 0.44074 0.04633 0.0
C1150 C 0.246 0.42741 0.10007 0.0
C1151 C 0.24866 0.43216 0.17803 0.0
C1152 C 0.25082 0.47341 0.01573 0.0
C1153 C 0.24229 0.408 0.07548 0.0
H1154 H 0.20541 0.41472 0.83808 0.0
H1155 H 0.26497 0.43715 0.79637 0.0
H1156 H 0.20656 0.41282 0.03724 0.0
H1157 H 0.20931 0.43559 0.01561 0.0
H1158 H 0.19326 0.41517 0.95919 0.0
H1159 H 0.28789 0.44989 0.89405 0.0
H1160 H 0.28239 0.46308 0.96253 0.0
H1161 H 0.27929 0.44039 0.98848 0.0
H1162 H 0.25556 0.47703 0.16978 0.0
H1163 H 0.24819 0.42194 0.21931 0.0
H1164 H 0.23674 0.46773 0.98751 0.0
H1165 H 0.26139 0.47627 0.96994 0.0
H1166 H 0.25448 0.48706 0.04423 0.0
H1167 H 0.22769 0.39968 0.05166 0.0
H1168 H 0.24371 0.39984 0.12379 0.0
H1169 H 0.25232 0.40938 0.02942 0.0
C1170 C 0.22037 0.38219 0.32452 0.0
C1171 C 0.22676 0.38573 0.40065 0.0
C1172 C 0.21331 0.36414 0.29163 0.0
C1173 C 0.21217 0.34905 0.33662 0.0
C1174 C 0.2202 0.353 0.41144 0.0
C1175 C 0.22747 0.37138 0.44266 0.0
C1176 C 0.20522 0.36079 0.21138 0.0
C1177 C 0.21942 0.33741 0.46127 0.0
C1178 C 0.16663 0.30285 0.29693 0.0
C1179 C 0.1727 0.29312 0.24854 0.0
C1180 C 0.17951 0.32054 0.3287 0.0
C1181 C 0.19912 0.329 0.31147 0.0
C1182 C 0.20554 0.31894 0.26519 0.0
C1183 C 0.19223 0.30103 0.23441 0.0
C1184 C 0.17191 0.33052 0.37836 0.0
C1185 C 0.2263 0.32741 0.24568 0.0
H1186 H 0.21973 0.39328 0.29208 0.0
H1187 H 0.2322 0.37405 0.50188 0.0
H1188 H 0.20984 0.35224 0.17767 0.0
H1189 H 0.18945 0.35266 0.21426 0.0
H1190 H 0.20958 0.37434 0.18048 0.0
H1191 H 0.22953 0.34326 0.51017 0.0
H1192 H 0.20484 0.32874 0.48473 0.0
H1193 H 0.22265 0.3278 0.42743 0.0
H1194 H 0.15161 0.29674 0.30941 0.0
H1195 H 0.19703 0.29356 0.19734 0.0
H1196 H 0.17419 0.34367 0.34931 0.0
H1197 H 0.17967 0.33477 0.4338 0.0
H1198 H 0.15648 0.32146 0.39043 0.0
H1199 H 0.23046 0.33916 0.20392 0.0
H1200 H 0.22941 0.31673 0.22005 0.0
H1201 H 0.23527 0.33353 0.29754 0.0
C1202 C 0.70214 0.86764 0.16124 0.0
C1203 C 0.71936 0.88292 0.18717 0.0
C1204 C 0.68511 0.86177 0.20122 0.0
C1205 C 0.68535 0.87113 0.27012 0.0
C1206 C 0.70243 0.88759 0.29309 0.0
C1207 C 0.71928 0.89338 0.25094 0.0
C1208 C 0.66727 0.84434 0.17362 0.0
C1209 C 0.70335 0.89803 0.3659 0.0
C1210 C 0.63645 0.85242 0.36234 0.0
C1211 C 0.63547 0.83779 0.40845 0.0
C1212 C 0.65301 0.86424 0.31959 0.0
C1213 C 0.6689 0.86142 0.32407 0.0
C1214 C 0.66826 0.84741 0.37453 0.0
C1215 C 0.65156 0.83574 0.41544 0.0
C1216 C 0.65311 0.87901 0.26668 0.0
C1217 C 0.68484 0.84393 0.38212 0.0
H1218 H 0.70219 0.85957 0.11177 0.0
H1219 H 0.73261 0.90509 0.27155 0.0
H1220 H 0.66414 0.83213 0.21162 0.0
H1221 H 0.6549 0.84663 0.17612 0.0
H1222 H 0.66873 0.84046 0.11394 0.0
H1223 H 0.71623 0.91238 0.3678 0.0
H1224 H 0.69054 0.89951 0.3719 0.0
H1225 H 0.70377 0.88979 0.41595 0.0
H1226 H 0.62399 0.85399 0.35655 0.0
H1227 H 0.65093 0.82457 0.45175 0.0
H1228 H 0.6522 0.8743 0.20632 0.0
H1229 H 0.66659 0.89272 0.2728 0.0
H1230 H 0.64097 0.88136 0.27789 0.0
H1231 H 0.68689 0.83825 0.32727 0.0
H1232 H 0.68265 0.83362 0.42848 0.0
H1233 H 0.69814 0.85745 0.39426 0.0
C1234 C 0.18609 0.81007 0.35633 0.0
C1235 C 0.18031 0.79685 0.41648 0.0
C1236 C 0.17361 0.81526 0.32309 0.0
C1237 C 0.15475 0.80713 0.35078 0.0
C1238 C 0.14835 0.79268 0.40762 0.0
C1239 C 0.16124 0.78765 0.43985 0.0
C1240 C 0.18111 0.83052 0.262 0.0
C1241 C 0.12828 0.78337 0.43768 0.0
C1242 C 0.13898 0.8437 0.33903 0.0
C1243 C 0.12957 0.83951 0.26808 0.0
C1244 C 0.14574 0.83223 0.3698 0.0
C1245 C 0.14319 0.81611 0.32841 0.0
C1246 C 0.13229 0.81089 0.25969 0.0
C1247 C 0.12554 0.82267 0.23023 0.0
C1248 C 0.15704 0.83836 0.44359 0.0
C1249 C 0.12892 0.79364 0.2145 0.0
H1250 H 0.2007 0.8169 0.3366 0.0
H1251 H 0.15666 0.77729 0.48586 0.0
H1252 H 0.17135 0.82594 0.21201 0.0
H1253 H 0.18196 0.84365 0.28531 0.0
H1254 H 0.19548 0.83405 0.24167 0.0
H1255 H 0.12436 0.76995 0.46874 0.0
H1256 H 0.12692 0.7932 0.47798 0.0
H1257 H 0.118 0.78028 0.39022 0.0
H1258 H 0.1418 0.85653 0.36928 0.0
H1259 H 0.1182 0.81934 0.17551 0.0
H1260 H 0.17228 0.84371 0.4309 0.0
H1261 H 0.15223 0.82614 0.48335 0.0
H1262 H 0.15579 0.8498 0.47321 0.0
H1263 H 0.14197 0.79699 0.18199 0.0
H1264 H 0.11704 0.78918 0.17295 0.0
H1265 H 0.12572 0.78155 0.25328 0.0
C1266 C 0.37319 0.19748 0.59765 0.0
C1267 C 0.3891 0.21579 0.60091 0.0
C1268 C 0.35683 0.19256 0.64085 0.0
C1269 C 0.35635 0.20623 0.68988 0.0
C1270 C 0.37205 0.22507 0.69082 0.0
C1271 C 0.38825 0.2297 0.64572 0.0
C1272 C 0.34049 0.17232 0.63729 0.0
C1273 C 0.37207 0.24003 0.7421 0.0
C1274 C 0.30638 0.18762 0.76806 0.0
C1275 C 0.30699 0.17766 0.83272 0.0
C1276 C 0.32288 0.19859 0.72382 0.0
C1277 C 0.34031 0.19977 0.74574 0.0
C1278 C 0.34122 0.19126 0.81547 0.0
C1279 C 0.32451 0.18013 0.85743 0.0
C1280 C 0.32135 0.20762 0.65044 0.0
C1281 C 0.35943 0.19224 0.84191 0.0
H1282 H 0.37371 0.18673 0.56249 0.0
H1283 H 0.40057 0.24385 0.64863 0.0
H1284 H 0.33958 0.16503 0.69234 0.0
H1285 H 0.32682 0.17208 0.62906 0.0
H1286 H 0.34219 0.16409 0.59012 0.0
H1287 H 0.38498 0.25418 0.73401 0.0
H1288 H 0.35931 0.2413 0.7305 0.0
H1289 H 0.37136 0.23578 0.80305 0.0
H1290 H 0.29278 0.18553 0.74845 0.0
H1291 H 0.32495 0.17236 0.90739 0.0
H1292 H 0.325 0.20153 0.60072 0.0
H1293 H 0.33171 0.22309 0.65132 0.0
H1294 H 0.30685 0.20549 0.64149 0.0
H1295 H 0.36235 0.18277 0.80554 0.0
H1296 H 0.35858 0.18769 0.90261 0.0
H1297 H 0.37166 0.20688 0.83592 0.0
C1298 C 0.85002 0.14663 0.68308 0.0
C1299 C 0.84411 0.13105 0.73274 0.0
C1300 C 0.83723 0.152 0.6546 0.0
C1301 C 0.81783 0.14154 0.67584 0.0
C1302 C 0.8115 0.12526 0.72331 0.0
C1303 C 0.82474 0.12019 0.75135 0.0
C1304 C 0.84474 0.16943 0.60404 0.0
C1305 C 0.79092 0.11361 0.74667 0.0
C1306 C 0.79794 0.17477 0.66852 0.0
C1307 C 0.79087 0.17202 0.5934 0.0
C1308 C 0.80486 0.16342 0.69942 0.0
C1309 C 0.80502 0.14911 0.65354 0.0
C1310 C 0.79622 0.1451 0.58012 0.0
C1311 C 0.78916 0.15662 0.55083 0.0
C1312 C 0.81378 0.16814 0.77828 0.0
C1313 C 0.79585 0.12984 0.52966 0.0
H1314 H 0.86487 0.155 0.66716 0.0
H1315 H 0.82002 0.10806 0.78925 0.0
H1316 H 0.83646 0.16595 0.54991 0.0
H1317 H 0.84312 0.18063 0.63368 0.0
H1318 H 0.86 0.17536 0.58944 0.0
H1319 H 0.78768 0.09982 0.77273 0.0
H1320 H 0.78758 0.12167 0.78924 0.0
H1321 H 0.78144 0.11083 0.69651 0.0
H1322 H 0.79907 0.18659 0.70181 0.0
H1323 H 0.78374 0.15452 0.49262 0.0
H1324 H 0.8295 0.17582 0.77254 0.0
H1325 H 0.8096 0.15499 0.81167 0.0
H1326 H 0.8097 0.17728 0.81114 0.0
H1327 H 0.81009 0.13517 0.50361 0.0
H1328 H 0.78526 0.12578 0.48261 0.0
H1329 H 0.79253 0.11699 0.56368 0.0
C1330 C 0.88231 0.7169 0.62996 0.0
C1331 C 0.89221 0.72173 0.69979 0.0
C1332 C 0.87607 0.6991 0.59588 0.0
C1333 C 0.87956 0.6856 0.63311 0.0
C1334 C 0.89106 0.69106 0.70014 0.0
C1335 C 0.89733 0.70916 0.73273 0.0
C1336 C 0.86421 0.69419 0.52371 0.0
C1337 C 0.89543 0.67728 0.7409 0.0
C1338 C 0.83735 0.63608 0.60961 0.0
C1339 C 0.84284 0.6289 0.5477 0.0
C1340 C 0.84971 0.65395 0.64122 0.0
C1341 C 0.86814 0.66516 0.60993 0.0
C1342 C 0.87429 0.65746 0.55074 0.0
C1343 C 0.86153 0.63931 0.52032 0.0
C1344 C 0.84252 0.66129 0.70508 0.0
C1345 C 0.8939 0.66878 0.51663 0.0
H1346 H 0.87863 0.72676 0.60365 0.0
H1347 H 0.90503 0.71289 0.78668 0.0
H1348 H 0.86876 0.687 0.48172 0.0
H1349 H 0.84909 0.68421 0.53802 0.0
H1350 H 0.86517 0.70699 0.49605 0.0
H1351 H 0.90761 0.68469 0.7811 0.0
H1352 H 0.88281 0.66705 0.77435 0.0
H1353 H 0.89868 0.66899 0.69916 0.0
H1354 H 0.82303 0.62789 0.63216 0.0
H1355 H 0.86586 0.63376 0.4727 0.0
H1356 H 0.84109 0.67341 0.68376 0.0
H1357 H 0.85279 0.66656 0.75344 0.0
H1358 H 0.82849 0.65019 0.72727 0.0
H1359 H 0.89431 0.67979 0.47762 0.0
H1360 H 0.89786 0.65963 0.48318 0.0
H1361 H 0.9047 0.67621 0.56213 0.0
C1362 C 0.99056 0.51032 0.138 0.0
C1363 C 0.97349 0.51012 0.12313 0.0
C1364 C 1.00698 0.52164 0.0949 0.0
C1365 C 1.00634 0.53296 0.03427 0.0
C1366 C 0.98951 0.53393 0.02268 0.0
C1367 C 0.97324 0.52253 0.06767 0.0
C1368 C 0.02448 0.52003 0.10991 0.0
C1369 C 0.98832 0.54597 0.95935 0.0
C1370 C 0.05509 0.56353 0.94258 0.0
C1371 C 0.05492 0.55085 0.88756 0.0
C1372 C 0.0388 0.55864 0.98752 0.0
C1373 C 0.02205 0.5408 0.97635 0.0
C1374 C 0.02147 0.5288 0.91616 0.0
C1375 C 0.03791 0.53393 0.87306 0.0
C1376 C 0.03991 0.57191 0.05037 0.0
C1377 C 1.00407 0.50964 0.90165 0.0
H1378 H 0.9908 0.50076 0.18101 0.0
H1379 H 0.96001 0.52229 0.05561 0.0
H1380 H 0.02555 0.51087 0.06528 0.0
H1381 H 0.03756 0.53414 0.10681 0.0
H1382 H 0.02395 0.51366 0.16695 0.0
H1383 H 0.97428 0.54524 0.95767 0.0
H1384 H 0.9996 0.561 0.96725 0.0
H1385 H 0.99085 0.54127 0.90305 0.0
H1386 H 0.06827 0.57656 0.95437 0.0
H1387 H 0.03773 0.52412 0.83041 0.0
H1388 H 0.03755 0.5648 0.10694 0.0
H1389 H 0.02849 0.57549 0.04245 0.0
H1390 H 0.05387 0.58529 0.05149 0.0
H1391 H 1.00316 0.49948 0.94641 0.0
H1392 H 1.00458 0.50379 0.84467 0.0
H1393 H 0.9909 0.51054 0.90497 0.0
C1394 C 0.45294 0.49118 0.94093 0.0
C1395 C 0.46592 0.50465 0.88933 0.0
C1396 C 0.45758 0.47902 0.98189 0.0
C1397 C 0.47551 0.48032 0.97019 0.0
C1398 C 0.48785 0.4928 0.91307 0.0
C1399 C 0.48299 0.50491 0.87412 0.0
C1400 C 0.44395 0.46589 0.04177 0.0
C1401 C 0.50695 0.49452 0.89734 0.0
C1402 C 0.50517 0.47585 0.1276 0.0
C1403 C 0.50518 0.4592 0.10666 0.0
C1404 C 0.49405 0.48189 0.08801 0.0
C1405 C 0.48292 0.47122 0.02449 0.0
C1406 C 0.48173 0.45357 0.00685 0.0
C1407 C 0.49288 0.44772 0.04844 0.0
C1408 C 0.49562 0.50062 0.10999 0.0
C1409 C 0.47002 0.4417 0.94002 0.0
H1410 H 0.43981 0.49111 0.95348 0.0
H1411 H 0.49302 0.51531 0.83408 0.0
H1412 H 0.44343 0.45196 0.04147 0.0
H1413 H 0.4489 0.47229 0.09939 0.0
H1414 H 0.42935 0.4635 0.03281 0.0
H1415 H 0.51374 0.50299 0.84487 0.0
H1416 H 0.5166 0.50156 0.94673 0.0
H1417 H 0.50547 0.48026 0.89056 0.0
H1418 H 0.51474 0.48476 0.1725 0.0
H1419 H 0.4931 0.43498 0.03135 0.0
H1420 H 0.48133 0.49925 0.11285 0.0
H1421 H 0.50391 0.51145 0.06565 0.0
H1422 H 0.50282 0.5059 0.16623 0.0
H1423 H 0.45629 0.44154 0.93641 0.0
H1424 H 0.46714 0.42682 0.94419 0.0
H1425 H 0.47788 0.44794 0.88592 0.0
C1426 C 0.53553 0.03101 0.1088 0.0
C1427 C 0.55234 0.04819 0.09507 0.0
C1428 C 0.53109 0.01451 0.06726 0.0
C1429 C 0.54366 0.01519 0.00946 0.0
C1430 C 0.56134 0.03216 -0.00095 0.0
C1431 C 0.56553 0.0485 0.04231 0.0
C1432 C 0.51219 0.99675 0.08139 0.0
C1433 C 0.57524 0.03338 0.93889 0.0
C1434 C 0.52758 0.96601 0.92631 0.0
C1435 C 0.51528 0.96529 0.86818 0.0
C1436 C 0.53834 0.98277 0.96948 0.0
C1437 C 0.53675 0.99909 0.95351 0.0
C1438 C 0.52564 0.99879 0.89008 0.0
C1439 C 0.51492 0.98186 0.84888 0.0
C1440 C 0.55 0.98238 0.03621 0.0
C1441 C 0.52364 0.01583 0.86997 0.0
H1442 H 0.52537 0.03069 0.14999 0.0
H1443 H 0.5785 0.06179 0.03118 0.0
H1444 H 0.50272 0.994 0.03122 0.0
H1445 H 0.51415 0.98424 0.08828 0.0
H1446 H 0.50495 0.99797 0.13331 0.0
H1447 H 0.58919 0.04668 0.94396 0.0
H1448 H 0.57749 0.02101 0.94345 0.0
H1449 H 0.56933 0.03294 0.88098 0.0
H1450 H 0.52764 0.95311 0.94214 0.0
H1451 H 0.50534 0.98126 0.80404 0.0
H1452 H 0.54161 0.97946 0.08977 0.0
H1453 H 0.56324 0.99628 0.04312 0.0
H1454 H 0.55377 0.97105 0.0292 0.0
H1455 H 0.51516 0.01789 0.91491 0.0
H1456 H 0.51644 0.01409 0.81383 0.0
H1457 H 0.53777 0.02894 0.86789 0.0
C1458 C 0.18345 0.21693 0.10953 0.0
C1459 C 0.16513 0.20769 0.07771 0.0
C1460 C 0.19644 0.21064 0.09325 0.0
C1461 C 0.19105 0.19505 0.0428 0.0
C1462 C 0.17304 0.1867 0.00627 0.0
C1463 C 0.16025 0.19295 0.02497 0.0
C1464 C 0.21538 0.21982 0.13398 0.0
C1465 C 0.16679 0.17037 0.95069 0.0
C1466 C 0.22434 0.17923 0.95908 0.0
C1467 C 0.21899 0.16267 0.00168 0.0
C1468 C 0.21627 0.19077 0.9746 0.0
C1469 C 0.20287 0.18572 0.03493 0.0
C1470 C 0.19875 0.16985 0.08186 0.0
C1471 C 0.20664 0.15839 0.06394 0.0
C1472 C 0.22093 0.20741 0.92268 0.0
C1473 C 0.18492 0.16413 0.14783 0.0
H1474 H 0.1872 0.22828 0.15067 0.0
H1475 H 0.14614 0.18592 -0.00033 0.0
H1476 H 0.21517 0.21002 0.17896 0.0
H1477 H 0.227 0.22251 0.09352 0.0
H1478 H 0.21865 0.23344 0.16168 0.0
H1479 H 0.15342 0.16705 0.92034 0.0
H1480 H 0.17802 0.17368 0.90739 0.0
H1481 H 0.16439 0.15747 0.9822 0.0
H1482 H 0.23374 0.18243 0.91034 0.0
H1483 H 0.20257 0.1456 0.09704 0.0
H1484 H 0.22323 0.21997 0.95644 0.0
H1485 H 0.20876 0.20362 0.88347 0.0
H1486 H 0.23377 0.21139 0.88741 0.0
H1487 H 0.18813 0.17667 0.18371 0.0
H1488 H 0.18527 0.15315 0.18481 0.0
H1489 H 0.17027 0.15832 0.12509 0.0
C1490 C 0.81379 0.9641 0.95828 0.0
C1491 C 0.80655 0.95826 0.03225 0.0
C1492 C 0.82085 0.983 0.93458 0.0
C1493 C 0.82124 0.99653 0.9871 0.0
C1494 C 0.81297 0.99039 0.06071 0.0
C1495 C 0.80559 0.97124 0.08227 0.0
C1496 C 0.8291 0.98873 0.85502 0.0
C1497 C 0.81326 1.0043 0.1188 0.0
C1498 C 0.86379 0.0457 0.95473 0.0
C1499 C 0.85568 0.05505 0.91596 0.0
C1500 C 0.85253 0.02707 0.98208 0.0
C1501 C 0.83266 0.01726 0.96842 0.0
C1502 C 0.82427 0.0269 0.93169 0.0
C1503 C 0.83589 0.04582 0.90662 0.0
C1504 C 0.86209 0.01761 0.0227 0.0
C1505 C 0.80322 0.01691 0.9149 0.0
H1506 H 0.81459 0.95401 0.91989 0.0
H1507 H 0.80023 0.96671 0.13994 0.0
H1508 H 0.82417 0.99784 0.82738 0.0
H1509 H 0.84484 0.99716 0.85884 0.0
H1510 H 0.82515 0.9762 0.81776 0.0
H1511 H 0.80386 0.99697 0.16849 0.0
H1512 H 0.828 0.01333 0.14034 0.0
H1513 H 0.80879 0.01387 0.09215 0.0
H1514 H 0.8791 0.05288 0.96239 0.0
H1515 H 0.82962 0.05298 0.87592 0.0
H1516 H 0.86131 1.00603 0.9863 0.0
H1517 H 0.85464 0.01109 0.07726 0.0
H1518 H 0.87728 0.02775 0.03562 0.0
H1519 H 0.79978 1.00594 0.87015 0.0
H1520 H 0.79856 0.0269 0.89425 0.0
H1521 H 0.79493 0.00949 0.96679 0.0
C1522 C 0.96956 0.79761 0.9358 0.0
C1523 C 0.96849 0.80482 0.86381 0.0
C1524 C 0.98676 0.80566 0.97729 0.0
C1525 C 1.00333 0.8213 0.94616 0.0
C1526 C 1.00248 0.82818 0.87239 0.0
C1527 C 0.98513 0.81988 0.83225 0.0
C1528 C 0.98701 0.79785 0.05568 0.0
C1529 C 0.01975 0.84484 0.83702 0.0
C1530 C 0.04077 0.85712 0.08207 0.0
C1531 C 0.05536 0.85262 0.07735 0.0
C1532 C 0.02375 0.84686 0.04066 0.0
C1533 C 0.02109 0.83159 0.9931 0.0
C1534 C 0.03564 0.82679 0.98855 0.0
C1535 C 0.05262 0.83738 0.03059 0.0
C1536 C 1.00872 0.85259 0.04698 0.0
C1537 C 0.03332 0.81057 0.93872 0.0
H1538 H 0.95686 0.78595 0.96072 0.0
H1539 H 0.98455 0.82552 0.77654 0.0
H1540 H 0.99913 0.79521 0.06067 0.0
H1541 H 0.98897 0.80845 0.10016 0.0
H1542 H 0.97361 0.78441 0.06811 0.0
H1543 H 0.01712 0.84761 0.77706 0.0
H1544 H 0.02393 0.85783 0.87155 0.0
H1545 H 0.03197 0.84229 0.83733 0.0
H1546 H 0.04265 0.86884 0.11792 0.0
H1547 H 0.06377 0.83377 0.02653 0.0
H1548 H 0.99508 0.84032 0.06632 0.0
H1549 H 1.00615 0.85695 0.98985 0.0
H1550 H 0.01281 0.86454 0.08772 0.0
H1551 H 0.02014 0.7973 0.95463 0.0
H1552 H 0.04558 0.80811 0.94379 0.0
H1553 H 0.03184 0.8136 0.8778 0.0
C1554 C 0.89068 0.84388 0.93129 0.0
C1555 C 0.88251 0.82493 0.9563 0.0
C1556 C 0.88246 0.85509 0.94994 0.0
C1557 C 0.86554 0.84716 0.99398 0.0
C1558 C 0.8576 0.82829 0.02146 0.0
C1559 C 0.86624 0.81751 0.00293 0.0
C1560 C 0.89155 0.87525 0.92048 0.0
C1561 C 0.83957 0.81921 0.06847 0.0
C1562 C 0.84817 0.87766 0.09249 0.0
C1563 C 0.83413 0.87623 0.04127 0.0
C1564 C 0.85901 0.8689 0.07658 0.0
C1565 C 0.85554 0.85815 0.00841 0.0
C1566 C 0.84163 0.85697 0.95584 0.0
C1567 C 0.83121 0.8661 0.97265 0.0
C1568 C 0.87391 0.87081 0.13354 0.0
C1569 C 0.83725 0.84545 0.88302 0.0
H1570 H 0.90313 0.84977 0.8948 0.0
H1571 H 0.86003 0.80308 0.02422 0.0
H1572 H 0.88205 0.87642 0.87769 0.0
H1573 H 0.89357 0.88516 0.96808 0.0
H1574 H 0.90554 0.87988 0.89306 0.0
H1575 H 0.83549 0.80458 0.0873 0.0
H1576 H 0.84132 0.82795 0.12001 0.0
H1577 H 0.82771 0.81855 0.0342 0.0
H1578 H 0.85061 0.8856 0.14532 0.0
H1579 H 0.82023 0.86472 0.93326 0.0
H1580 H 0.88773 0.87582 0.10419 0.0
H1581 H 0.86971 0.85672 0.15897 0.0
H1582 H 0.87593 0.88086 0.18068 0.0
H1583 H 0.85042 0.85024 0.84906 0.0
H1584 H 0.82659 0.84657 0.84666 0.0
H1585 H 0.83169 0.83026 0.89752 0.0
C1586 C 0.17577 0.04433 0.9502 0.0
C1587 C 0.19356 0.05516 0.98537 0.0
C1588 C 0.16394 0.025 0.96888 0.0
C1589 C 0.17035 0.0162 0.02222 0.0
C1590 C 0.18845 0.0271 0.05705 0.0
C1591 C 0.19971 0.0465 0.03899 0.0
C1592 C 0.14457 0.01405 0.93199 0.0
C1593 C 0.19608 0.01822 0.11259 0.0
C1594 C 0.13639 0.97036 0.1272 0.0
C1595 C 0.13776 0.95667 0.0831 0.0
C1596 C 0.14629 0.98969 0.10625 0.0
C1597 C 0.15832 0.99554 0.04105 0.0
C1598 C 0.1596 0.98168 0.99603 0.0
C1599 C 0.14912 0.9624 0.01707 0.0
C1600 C 0.14411 1.0039 0.15465 0.0
C1601 C 0.17261 0.98729 0.92734 0.0
H1602 H 0.171 0.05108 0.90899 0.0
H1603 H 0.21355 0.05486 0.06568 0.0
H1604 H 0.14364 1.00213 0.89752 0.0
H1605 H 0.13344 0.00774 0.97693 0.0
H1606 H 0.1414 0.02314 0.89407 0.0
H1607 H 0.21062 0.02853 0.13315 0.0
H1608 H 0.18654 0.01246 0.16297 0.0
H1609 H 0.19646 1.00612 0.08469 0.0
H1610 H 0.12759 0.96591 0.17822 0.0
H1611 H 0.15037 0.95184 0.98351 0.0
H1612 H 0.1404 0.01275 0.11784 0.0
H1613 H 0.1578 0.01363 0.18333 0.0
H1614 H 0.13299 0.99691 0.19933 0.0
H1615 H 0.16911 0.99548 0.88597 0.0
H1616 H 0.17164 0.97476 0.8973 0.0
H1617 H 0.18755 0.99666 0.94595 0.0
C1618 C 0.97317 0.13169 0.88154 0.0
C1619 C 0.96046 0.1361 0.91789 0.0
C1620 C 0.99231 0.14027 0.90503 0.0
C1621 C 0.99902 0.15402 0.96456 0.0
C1622 C 0.98617 0.15857 0.00093 0.0
C1623 C 0.96701 0.14936 0.97785 0.0
C1624 C 1.00537 0.13463 0.86622 0.0
C1625 C 0.99276 0.17348 0.06315 0.0
C1626 C 0.04456 0.1676 0.07606 0.0
C1627 C 0.05778 0.18425 0.03833 0.0
C1628 C 0.02556 0.15721 0.05087 0.0
C1629 C 0.0195 0.16399 0.98801 0.0
C1630 C 0.03289 0.18081 0.94963 0.0
C1631 C 0.05192 0.19058 0.97463 0.0
C1632 C 1.01191 0.1391 0.0921 0.0
C1633 C 0.02698 0.18885 0.88381 0.0
H1634 H 0.96805 0.1214 0.83524 0.0
H1635 H 0.95719 0.15288 0.00538 0.0
H1636 H 0.01695 0.14707 0.83622 0.0
H1637 H 0.01213 0.12989 0.90975 0.0
H1638 H 0.99774 0.12301 0.82387 0.0
H1639 H 0.98107 0.17558 0.08473 0.0
H1640 H 0.99871 0.16936 0.11205 0.0
H1641 H 1.00429 0.18725 0.04091 0.0
H1642 H 0.04914 0.16271 0.12528 0.0
H1643 H 0.06213 0.20358 0.94601 0.0
H1644 H 1.00461 0.1273 0.05032 0.0
H1645 H 1.00078 0.14093 0.12118 0.0
H1646 H 0.01917 0.13494 0.13571 0.0
H1647 H 0.02043 0.17813 0.83745 0.0
H1648 H 0.03915 0.20191 0.85949 0.0
H1649 H 0.01607 0.19231 0.90366 0.0
C1650 C 0.89264 0.51419 0.25248 0.0
C1651 C 0.88602 0.49714 0.29327 0.0
C1652 C 0.88504 0.52622 0.26632 0.0
C1653 C 0.87078 0.52115 0.32304 0.0
C1654 C 0.86529 0.50472 0.36837 0.0
C1655 C 0.8728 0.49283 0.35229 0.0
C1656 C 0.89123 0.54352 0.21642 0.0
C1657 C 0.85046 0.49891 0.43053 0.0
C1658 C 0.85185 0.55288 0.3961 0.0
C1659 C 0.83406 0.54457 0.3597 0.0
C1660 C 0.86464 0.54623 0.38156 0.0
C1661 C 0.85958 0.53119 0.32854 0.0
C1662 C 0.84224 0.52388 0.28741 0.0
C1663 C 0.82965 0.5305 0.30414 0.0
C1664 C 0.88288 0.55435 0.42697 0.0
C1665 C 0.83637 0.50814 0.22923 0.0
H1666 H 0.90277 0.51748 0.20639 0.0
H1667 H 0.86777 0.47971 0.38426 0.0
H1668 H 0.87987 0.54062 0.17409 0.0
H1669 H 0.8935 0.55591 0.25124 0.0
H1670 H 0.90452 0.5473 0.18462 0.0
H1671 H 0.84957 0.48722 0.46679 0.0
H1672 H 0.85365 0.51121 0.46793 0.0
H1673 H 0.83632 0.49402 0.404 0.0
H1674 H 0.85525 0.56368 0.43949 0.0
H1675 H 0.81596 0.52417 0.27542 0.0
H1676 H 0.89495 0.55688 0.38949 0.0
H1677 H 0.8815 0.54398 0.47162 0.0
H1678 H 0.88627 0.5679 0.45572 0.0
H1679 H 0.8482 0.51149 0.18893 0.0
H1680 H 0.8237 0.50571 0.19558 0.0
H1681 H 0.83292 0.49471 0.25912 0.0
C1682 C 0.50678 0.38149 0.31265 0.0
C1683 C 0.52291 0.38523 0.26972 0.0
C1684 C 0.49587 0.3639 0.3504 0.0
C1685 C 0.50122 0.34975 0.34513 0.0
C1686 C 0.51739 0.35344 0.30138 0.0
C1687 C 0.52798 0.37105 0.26448 0.0
C1688 C 0.47875 0.36052 0.39653 0.0
C1689 C 0.5237 0.33885 0.29426 0.0
C1690 C 0.48849 0.31176 0.49775 0.0
C1691 C 0.47432 0.29536 0.46111 0.0
C1692 C 0.49667 0.32967 0.46218 0.0
C1693 C 0.49062 0.33134 0.38774 0.0
C1694 C 0.4758 0.31498 0.35153 0.0
C1695 C 0.46779 0.29721 0.3887 0.0
C1696 C 0.5124 0.34668 0.50303 0.0
C1697 C 0.46895 0.31609 0.27213 0.0
H1698 H 0.50273 0.39231 0.31705 0.0
H1699 H 0.54036 0.37368 0.23148 0.0
H1700 H 0.46593 0.34745 0.37615 0.0
H1701 H 0.48086 0.35822 0.45768 0.0
H1702 H 0.47604 0.37263 0.39274 0.0
H1703 H 0.53627 0.34371 0.25628 0.0
H1704 H 0.52736 0.3357 0.35174 0.0
H1705 H 0.51194 0.32535 0.27106 0.0
H1706 H 0.49354 0.31057 0.55397 0.0
H1707 H 0.45681 0.28468 0.3599 0.0
H1708 H 0.50941 0.35861 0.50344 0.0
H1709 H 0.526 0.35164 0.47196 0.0
H1710 H 0.5143 0.34338 0.56316 0.0
H1711 H 0.46577 0.32788 0.26881 0.0
H1712 H 0.45602 0.30263 0.2553 0.0
H1713 H 0.48032 0.31915 0.2298 0.0
C1714 C 0.70854 0.19406 0.36427 0.0
C1715 C 0.71921 0.18655 0.39677 0.0
C1716 C 0.69079 0.18223 0.32985 0.0
C1717 C 0.68322 0.16227 0.32959 0.0
C1718 C 0.69392 0.15457 0.36256 0.0
C1719 C 0.71192 0.16683 0.39482 0.0
C1720 C 0.68016 0.19111 0.29349 0.0
C1721 C 0.68621 0.13337 0.36488 0.0
C1722 C 0.62951 0.13231 0.30001 0.0
C1723 C 0.62832 0.12721 0.22249 0.0
C1724 C 0.64727 0.14319 0.33632 0.0
C1725 C 0.66425 0.14958 0.29355 0.0
C1726 C 0.66309 0.1445 0.21521 0.0
C1727 C 0.64518 0.1332 0.18099 0.0
C1728 C 0.64785 0.14791 0.42037 0.0
C1729 C 0.68076 0.15137 0.16692 0.0
H1730 H 0.71417 0.20931 0.36517 0.0
H1731 H 0.72003 0.16094 0.42054 0.0
H1732 H 0.67711 0.18679 0.23239 0.0
H1733 H 0.66629 0.18595 0.32261 0.0
H1734 H 0.68826 0.20689 0.29647 0.0
H1735 H 0.69607 0.12961 0.39409 0.0
H1736 H 0.67236 0.1263 0.39535 0.0
H1737 H 0.68358 0.12756 0.30576 0.0
H1738 H 0.61654 0.12762 0.33256 0.0
H1739 H 0.64438 0.12943 0.1209 0.0
H1740 H 0.65442 0.16351 0.42778 0.0
H1741 H 0.6568 0.1434 0.45216 0.0
H1742 H 0.63345 0.14092 0.44657 0.0
H1743 H 0.68876 0.16715 0.16561 0.0
H1744 H 0.67744 0.14603 0.10701 0.0
H1745 H 0.69028 0.1467 0.19256 0.0
C1746 C 0.55593 0.17941 0.28512 0.0
C1747 C 0.54503 0.16185 0.24782 0.0
C1748 C 0.54773 0.19031 0.30913 0.0
C1749 C 0.52819 0.18364 0.29497 0.0
C1750 C 0.51721 0.16612 0.25638 0.0
C1751 C 0.52566 0.15541 0.23409 0.0
C1752 C 0.55989 0.20882 0.35079 0.0
C1753 C 0.49634 0.15843 0.23984 0.0
C1754 C 0.49879 0.19798 0.41856 0.0
C1755 C 0.49701 0.211 0.37122 0.0
C1756 C 0.50966 0.18971 0.39602 0.0
C1757 C 0.51881 0.19433 0.32367 0.0
C1758 C 0.51759 0.20798 0.27666 0.0
C1759 C 0.50682 0.21627 0.30128 0.0
C1760 C 0.51078 0.17549 0.44861 0.0
C1761 C 0.52692 0.21316 0.1988 0.0
H1762 H 0.57091 0.1847 0.2955 0.0
H1763 H 0.51687 0.1417 0.20724 0.0
H1764 H 0.55939 0.22061 0.32066 0.0
H1765 H 0.55423 0.20798 0.40942 0.0
H1766 H 0.57496 0.21234 0.35545 0.0
H1767 H 0.49006 0.14519 0.20512 0.0
H1768 H 0.48836 0.15536 0.29452 0.0
H1769 H 0.4943 0.16921 0.20861 0.0
H1770 H 0.49142 0.19404 0.47314 0.0
H1771 H 0.50541 0.22626 0.26437 0.0
H1772 H 0.52581 0.17923 0.45702 0.0
H1773 H 0.50321 0.16115 0.42214 0.0
H1774 H 0.50435 0.17475 0.50563 0.0
H1775 H 0.54211 0.21717 0.20337 0.0
H1776 H 0.526 0.22511 0.172 0.0
H1777 H 0.51991 0.20064 0.16025 0.0
C1778 C 0.81689 0.29673 0.33311 0.0
C1779 C 0.80483 0.29133 0.39699 0.0
C1780 C 0.82758 0.3159 0.31069 0.0
C1781 C 0.82578 0.32997 0.35191 0.0
C1782 C 0.81313 0.32446 0.41511 0.0
C1783 C 0.80304 0.30523 0.43765 0.0
C1784 C 0.84125 0.32116 0.24439 0.0
C1785 C 0.8104 0.33889 0.45938 0.0
C1786 C 0.86665 0.38122 0.347 0.0
C1787 C 0.86073 0.38924 0.28959 0.0
C1788 C 0.8555 0.36195 0.36731 0.0
C1789 C 0.83771 0.35051 0.3308 0.0
C1790 C 0.83154 0.35867 0.27356 0.0
C1791 C 0.84326 0.37787 0.25282 0.0
C1792 C 0.8629 0.35376 0.42706 0.0
C1793 C 0.81249 0.34714 0.23461 0.0
H1794 H 0.81844 0.28599 0.30222 0.0
H1795 H 0.79369 0.30103 0.48698 0.0
H1796 H 0.8379 0.32878 0.19968 0.0
H1797 H 0.85596 0.33098 0.26452 0.0
H1798 H 0.84085 0.30853 0.21786 0.0
H1799 H 0.79904 0.33214 0.50331 0.0
H1800 H 0.82386 0.34904 0.48853 0.0
H1801 H 0.80671 0.34724 0.41955 0.0
H1802 H 0.88025 0.38998 0.37496 0.0
H1803 H 0.83865 0.38411 0.20868 0.0
H1804 H 0.86376 0.3416 0.40247 0.0
H1805 H 0.85296 0.34824 0.47631 0.0
H1806 H 0.8772 0.36443 0.44873 0.0
H1807 H 0.81206 0.33507 0.20305 0.0
H1808 H 0.80943 0.35577 0.19361 0.0
H1809 H 0.80102 0.34102 0.27823 0.0
C1810 C 0.71884 0.50374 0.30942 0.0
C1811 C 0.72451 0.51736 0.3683 0.0
C1812 C 0.69976 0.4933 0.28518 0.0
C1813 C 0.6858 0.49614 0.32168 0.0
C1814 C 0.69125 0.50935 0.3827 0.0
C1815 C 0.71048 0.51992 0.40456 0.0
C1816 C 0.69463 0.47955 0.21916 0.0
C1817 C 0.6768 0.51264 0.42404 0.0
C1818 C 0.6402 0.48542 0.21733 0.0
C1819 C 0.62684 0.46765 0.24792 0.0
C1820 C 0.65946 0.4945 0.239 0.0
C1821 C 0.66562 0.48591 0.29422 0.0
C1822 C 0.65235 0.46795 0.32498 0.0
C1823 C 0.63323 0.45896 0.3009 0.0
C1824 C 0.67317 0.51351 0.2038 0.0
C1825 C 0.65824 0.45841 0.38479 0.0
H1826 H 0.72935 0.50126 0.2817 0.0
H1827 H 0.71452 0.53059 0.44895 0.0
H1828 H 0.68341 0.46513 0.23691 0.0
H1829 H 0.68874 0.48404 0.17115 0.0
H1830 H 0.70705 0.47868 0.19773 0.0
H1831 H 0.68305 0.52233 0.47396 0.0
H1832 H 0.67078 0.51891 0.38397 0.0
H1833 H 0.66483 0.49892 0.44451 0.0
H1834 H 0.63558 0.49261 0.17775 0.0
H1835 H 0.62326 0.44512 0.32416 0.0
H1836 H 0.68562 0.51314 0.17954 0.0
H1837 H 0.67859 0.52469 0.24866 0.0
H1838 H 0.66647 0.51763 0.15763 0.0
H1839 H 0.67001 0.45653 0.36273 0.0
H1840 H 0.64631 0.4443 0.40214 0.0
H1841 H 0.66365 0.46758 0.43648 0.0
C1842 C 0.53474 0.83293 0.49974 0.0
C1843 C 0.54913 0.83134 0.53805 0.0
C1844 C 0.52638 0.84282 0.53238 0.0
C1845 C 0.53247 0.85136 0.60547 0.0
C1846 C 0.54749 0.85043 0.6433 0.0
C1847 C 0.55567 0.84048 0.6091 0.0
C1848 C 0.51042 0.84339 0.48997 0.0
C1849 C 0.5544 0.8593 0.72132 0.0
C1850 C 0.51586 0.88573 0.67052 0.0
C1851 C 0.49993 0.87379 0.7153 0.0
C1852 C 0.52686 0.87879 0.63545 0.0
C1853 C 0.52177 0.85946 0.64517 0.0
C1854 C 0.50577 0.84742 0.69059 0.0
C1855 C 0.49511 0.8547 0.72491 0.0
C1856 C 0.54381 0.89208 0.5875 0.0
C1857 C 0.49971 0.8267 0.70223 0.0
H1858 H 0.52968 0.82609 0.44454 0.0
H1859 H 0.5668 0.8394 0.63916 0.0
H1860 H 0.49692 0.83504 0.52201 0.0
H1861 H 0.51321 0.85822 0.48611 0.0
H1862 H 0.50843 0.83748 0.43105 0.0
H1863 H 0.56728 0.85886 0.73998 0.0
H1864 H 0.55768 0.87431 0.72091 0.0
H1865 H 0.54303 0.8516 0.76437 0.0
H1866 H 0.51973 0.90049 0.66281 0.0
H1867 H 0.48286 0.84529 0.7593 0.0
H1868 H 0.54162 0.88696 0.52733 0.0
H1869 H 0.55676 0.89222 0.60904 0.0
H1870 H 0.54635 0.90686 0.5879 0.0
H1871 H 0.49603 0.81924 0.64615 0.0
H1872 H 0.48723 0.81935 0.74085 0.0
H1873 H 0.51161 0.82538 0.72695 0.0
C1874 C 0.19556 0.7146 0.67597 0.0
C1875 C 0.19032 0.72273 0.61667 0.0
C1876 C 0.18359 0.69571 0.6989 0.0
C1877 C 0.16611 0.68443 0.6601 0.0
C1878 C 0.16024 0.69291 0.60303 0.0
C1879 C 0.17238 0.71209 0.58242 0.0
C1880 C 0.1903 0.68748 0.76123 0.0
C1881 C 0.14185 0.6814 0.55976 0.0
C1882 C 0.15483 0.63319 0.65355 0.0
C1883 C 0.14186 0.62497 0.71391 0.0
C1884 C 0.16162 0.65213 0.63154 0.0
C1885 C 0.15568 0.66336 0.67222 0.0
C1886 C 0.14171 0.65481 0.73047 0.0
C1887 C 0.13481 0.63559 0.75022 0.0
C1888 C 0.17613 0.66044 0.56795 0.0
C1889 C 0.1351 0.66626 0.77565 0.0
H1890 H 0.20939 0.72289 0.70284 0.0
H1891 H 0.16838 0.71833 0.53608 0.0
H1892 H 0.17876 0.67942 0.80319 0.0
H1893 H 0.19423 0.67742 0.73551 0.0
H1894 H 0.20288 0.69866 0.79241 0.0
H1895 H 0.1378 0.69059 0.52697 0.0
H1896 H 0.14345 0.67184 0.51876 0.0
H1897 H 0.13012 0.6723 0.59948 0.0
H1898 H 0.16017 0.62493 0.625 0.0
H1899 H 0.12487 0.62927 0.7973 0.0
H1900 H 0.19026 0.67055 0.59259 0.0
H1901 H 0.17231 0.66848 0.52699 0.0
H1902 H 0.17741 0.64931 0.53582 0.0
H1903 H 0.14652 0.6758 0.81583 0.0
H1904 H 0.12211 0.65703 0.80953 0.0
H1905 H 0.13215 0.67538 0.73706 0.0
C1906 C 0.31844 0.47036 0.50543 0.0
C1907 C 0.30176 0.4627 0.54945 0.0
C1908 C 0.33643 0.48165 0.53914 0.0
C1909 C 0.33788 0.48503 0.61926 0.0
C1910 C 0.3211 0.47698 0.66428 0.0
C1911 C 0.30325 0.46611 0.62873 0.0
C1912 C 0.35387 0.49033 0.48867 0.0
C1913 C 0.32198 0.47988 0.75005 0.0
C1914 C 0.38615 0.50214 0.71506 0.0
C1915 C 0.39256 0.52155 0.72555 0.0
C1916 C 0.36832 0.49003 0.68117 0.0
C1917 C 0.35686 0.49761 0.65538 0.0
C1918 C 0.36356 0.51731 0.66404 0.0
C1919 C 0.38118 0.52896 0.69979 0.0
C1920 C 0.36158 0.46907 0.67435 0.0
C1921 C 0.35208 0.5261 0.63565 0.0
H1922 H 0.31742 0.46791 0.44405 0.0
H1923 H 0.29045 0.46012 0.66322 0.0
H1924 H 0.36122 0.50607 0.49287 0.0
H1925 H 0.36405 0.48586 0.50844 0.0
H1926 H 0.35036 0.48622 0.4275 0.0
H1927 H 0.30772 0.47204 0.77722 0.0
H1928 H 0.33132 0.47505 0.77638 0.0
H1929 H 0.32829 0.49523 0.76328 0.0
H1930 H 0.39482 0.49631 0.73539 0.0
H1931 H 0.38612 0.54398 0.70719 0.0
H1932 H 0.35882 0.46463 0.61335 0.0
H1933 H 0.34795 0.46074 0.70562 0.0
H1934 H 0.37207 0.46537 0.69772 0.0
H1935 H 0.34886 0.52301 0.5737 0.0
H1936 H 0.35961 0.54176 0.64403 0.0
H1937 H 0.33829 0.51977 0.66637 0.0
C1938 C 0.16593 0.53402 0.65191 0.0
C1939 C 0.16731 0.54183 0.72517 0.0
C1940 C 0.17655 0.52528 0.6322 0.0
C1941 C 0.18877 0.52405 0.68718 0.0
C1942 C 0.19053 0.53218 0.76074 0.0
C1943 C 0.17986 0.54101 0.77873 0.0
C1944 C 0.17425 0.51685 0.55303 0.0
C1945 C 0.20334 0.53112 0.82113 0.0
C1946 C 0.19793 0.48284 0.65832 0.0
C1947 C 0.21583 0.49172 0.6228 0.0
C1948 C 0.1893 0.49329 0.68176 0.0
C1949 C 0.1987 0.51317 0.66891 0.0
C1950 C 0.21704 0.52234 0.63513 0.0
C1951 C 0.22544 0.51151 0.61288 0.0
C1952 C 0.16988 0.48295 0.71848 0.0
C1953 C 0.22748 0.54347 0.61999 0.0
H1954 H 0.15609 0.53421 0.61031 0.0
H1955 H 0.1813 0.54721 0.83508 0.0
H1956 H 0.18836 0.52229 0.5256 0.0
H1957 H 0.16764 0.50117 0.55739 0.0
H1958 H 0.16525 0.52015 0.51516 0.0
H1959 H 0.2039 0.53897 0.87416 0.0
H1960 H 0.19817 0.51603 0.83634 0.0
H1961 H 0.21798 0.53703 0.79847 0.0
H1962 H 0.19056 0.46758 0.66722 0.0
H1963 H 0.23923 0.51843 0.58513 0.0
H1964 H 0.15935 0.48398 0.68103 0.0
H1965 H 0.17005 0.48967 0.7741 0.0
H1966 H 0.16499 0.46767 0.72861 0.0
H1967 H 0.2195 0.54689 0.57712 0.0
H1968 H 0.2421 0.54865 0.59805 0.0
H1969 H 0.22837 0.55135 0.67323 0.0
C1970 C 0.49409 0.63994 0.77809 0.0
C1971 C 0.47552 0.6272 0.75275 0.0
C1972 C 0.50338 0.65927 0.7576 0.0
C1973 C 0.49408 0.66619 0.70955 0.0
C1974 C 0.47526 0.65355 0.68453 0.0
C1975 C 0.4662 0.63426 0.70656 0.0
C1976 C 0.52343 0.6722 0.78575 0.0
C1977 C 0.46485 0.6603 0.63295 0.0
C1978 C 0.51551 0.72015 0.70053 0.0
C1979 C 0.52733 0.72484 0.636 0.0
C1980 C 0.50422 0.70108 0.72425 0.0
C1981 C 0.50459 0.68635 0.68192 0.0
C1982 C 0.51596 0.691 0.61511 0.0
C1983 C 0.52721 0.71013 0.59325 0.0
C1984 C 0.49243 0.69677 0.7961 0.0
C1985 C 0.51665 0.6758 0.56762 0.0
H1986 H 0.50168 0.63472 0.81232 0.0
H1987 H 0.4518 0.6247 0.68728 0.0
H1988 H 0.53336 0.67726 0.73635 0.0
H1989 H 0.52446 0.68492 0.81404 0.0
H1990 H 0.5282 0.66497 0.82697 0.0
H1991 H 0.44997 0.64897 0.62152 0.0
H1992 H 0.46466 0.67264 0.6592 0.0
H1993 H 0.47243 0.66515 0.57738 0.0
H1994 H 0.51559 0.73144 0.73399 0.0
H1995 H 0.53607 0.71363 0.54259 0.0
H1996 H 0.49791 0.69092 0.84053 0.0
H1997 H 0.47746 0.68579 0.78428 0.0
H1998 H 0.49267 0.70961 0.81968 0.0
H1999 H 0.52286 0.66872 0.60208 0.0
H2000 H 0.52527 0.68164 0.51473 0.0
H2001 H 0.50205 0.66472 0.55101 0.0
C2002 C 0.30529 0.81874 0.66591 0.0
C2003 C 0.29794 0.80459 0.60932 0.0
C2004 C 0.32458 0.82773 0.68699 0.0
C2005 C 0.33674 0.82207 0.65213 0.0
C2006 C 0.32924 0.80743 0.59614 0.0
C2007 C 0.30999 0.79907 0.57452 0.0
C2008 C 0.33204 0.84359 0.74532 0.0
C2009 C 0.34157 0.80063 0.55904 0.0
C2010 C 0.38996 0.85752 0.65108 0.0
C2011 C 0.39624 0.85194 0.71582 0.0
C2012 C 0.37068 0.84787 0.62955 0.0
C2013 C 0.35741 0.83192 0.67265 0.0
C2014 C 0.36382 0.82591 0.7369 0.0
C2015 C 0.38312 0.83619 0.75846 0.0
C2016 C 0.36444 0.85511 0.56202 0.0
C2017 C 0.35026 0.80871 0.7832 0.0
H2018 H 0.296 0.82313 0.6923 0.0
H2019 H 0.30426 0.78806 0.531 0.0
H2020 H 0.33825 0.84003 0.79499 0.0
H2021 H 0.34357 0.85686 0.71949 0.0
H2022 H 0.32077 0.84639 0.76661 0.0
H2023 H 0.33334 0.78838 0.51998 0.0
H2024 H 0.35308 0.81235 0.52569 0.0
H2025 H 0.34845 0.79635 0.60378 0.0
H2026 H 0.40008 0.86985 0.61863 0.0
H2027 H 0.388 0.83186 0.80843 0.0
H2028 H 0.35391 0.85917 0.58115 0.0
H2029 H 0.35733 0.84374 0.51847 0.0
H2030 H 0.37653 0.86764 0.53434 0.0
H2031 H 0.33957 0.81136 0.81151 0.0
H2032 H 0.35769 0.80509 0.82799 0.0
H2033 H 0.34241 0.79624 0.74487 0.0
loop_
_geom_bond_atom_site_label_1
_geom_bond_atom_site_label_2
_geom_bond_distance
_geom_bond_site_symmetry_2
_ccdc_geom_bond_type
C0 C1 1.351 . S
C0 N3 1.366 1_556 S
C0 H5 0.931 1_556 S
C1 C0 1.351 . S
C1 N2 1.373 . S
C1 H29 0.930 . S
N2 C1 1.373 . S
N2 C4 1.340 . S
N3 C0 1.366 1_554 S
N3 C4 1.316 1_554 S
N3 Co6 2.141 . S
C4 N2 1.340 . S
C4 N3 1.316 1_556 S
C4 H28 0.930 . S
H5 C0 0.931 1_554 S
Co6 N3 2.141 . S
Co6 N9 2.121 . S
Co6 O14 2.055 . S
Co6 O17 2.039 . S
Co6 N20 2.140 . S
C7 O8 1.227 . S
C7 O17 1.265 . S
O8 C7 1.227 . S
N9 Co6 2.121 . S
N9 C11 1.375 . S
N9 C12 1.313 . S
C10 C11 1.338 . S
C10 N13 1.377 . S
C10 H30 0.930 . S
C11 N9 1.375 . S
C11 C10 1.338 . S
C11 H15 0.931 . S
C12 N9 1.313 . S
C12 N13 1.344 . S
C12 H16 0.930 . S
N13 C10 1.377 . S
N13 C12 1.344 . S
O14 Co6 2.055 . S
O14 C18 1.253 . S
H15 C11 0.931 . S
H16 C12 0.930 . S
O17 Co6 2.039 . S
O17 C7 1.265 . S
C18 O14 1.253 . S
C18 O19 1.227 . S
O19 C18 1.227 . S
N20 Co6 2.140 . S
N20 C23 1.346 . S
N20 C24 1.345 . S
C21 C22 1.387 . S
C21 C25 1.391 . S
C22 C21 1.387 . S
C22 C23 1.369 . S
C22 H31 0.929 1_554 S
C23 N20 1.346 . S
C23 C22 1.369 . S
C23 H26 0.921 1_554 S
C24 N20 1.345 . S
C24 C25 1.371 . S
C24 H27 0.931 . S
C25 C21 1.391 . S
C25 C24 1.371 . S
C25 H32 0.930 . S
H26 C23 0.921 1_556 S
H27 C24 0.931 . S
H28 C4 0.930 . S
H29 C1 0.930 . S
H30 C10 0.930 . S
H31 C22 0.929 1_556 S
H32 C25 0.930 . S
C33 C34 1.351 . S
C33 N36 1.365 1_556 S
C33 H38 0.931 1_556 S
C34 C33 1.351 . S
C34 N35 1.373 . S
C34 H62 0.930 . S
N35 C34 1.373 . S
N35 C37 1.340 . S
N36 C33 1.365 1_554 S
N36 C37 1.315 1_554 S
N36 Co39 2.142 . S
C37 N35 1.340 . S
C37 N36 1.315 1_556 S
C37 H61 0.930 . S
H38 C33 0.931 1_554 S
Co39 N36 2.142 . S
Co39 N42 2.121 . S
Co39 O47 2.055 . S
Co39 O50 2.039 . S
Co39 N53 2.140 . S
C40 O41 1.227 . S
C40 O50 1.265 . S
O41 C40 1.227 . S
N42 Co39 2.121 . S
N42 C44 1.375 . S
N42 C45 1.313 . S
C43 C44 1.338 . S
C43 N46 1.377 . S
C43 H63 0.930 . S
C44 N42 1.375 . S
C44 C43 1.338 . S
C44 H48 0.931 . S
C45 N42 1.313 . S
C45 N46 1.344 . S
C45 H49 0.930 . S
N46 C43 1.377 . S
N46 C45 1.344 . S
O47 Co39 2.055 . S
O47 C51 1.253 . S
H48 C44 0.931 . S
H49 C45 0.930 . S
O50 Co39 2.039 . S
O50 C40 1.265 . S
C51 O47 1.253 . S
C51 O52 1.227 . S
O52 C51 1.227 . S
N53 Co39 2.140 . S
N53 C56 1.346 . S
N53 C57 1.345 . S
C54 C55 1.387 . S
C54 C58 1.391 . S
C55 C54 1.387 . S
C55 C56 1.369 . S
C55 H64 0.929 1_554 S
C56 N53 1.346 . S
C56 C55 1.369 . S
C56 H59 0.921 1_554 S
C57 N53 1.345 . S
C57 C58 1.371 . S
C57 H60 0.931 . S
C58 C54 1.391 . S
C58 C57 1.371 . S
C58 H65 0.930 . S
H59 C56 0.921 1_556 S
H60 C57 0.931 . S
H61 C37 0.930 . S
H62 C34 0.930 . S
H63 C43 0.930 . S
H64 C55 0.929 1_556 S
H65 C58 0.930 . S
C66 C67 1.351 . S
C66 N69 1.366 1_556 S
C66 H71 0.931 1_556 S
C67 C66 1.351 . S
C67 N68 1.373 . S
C67 H95 0.930 . S
N68 C67 1.373 . S
N68 C70 1.340 . S
N69 C66 1.366 1_554 S
N69 C70 1.316 1_554 S
N69 Co72 2.141 . S
C70 N68 1.340 . S
C70 N69 1.316 1_556 S
C70 H94 0.930 . S
H71 C66 0.931 1_554 S
Co72 N69 2.141 . S
Co72 N75 2.121 . S
Co72 O80 2.055 . S
Co72 O83 2.039 . S
Co72 N86 2.140 . S
C73 O74 1.227 . S
C73 O83 1.265 . S
O74 C73 1.227 . S
N75 Co72 2.121 . S
N75 C77 1.375 . S
N75 C78 1.313 . S
C76 C77 1.338 . S
C76 N79 1.377 . S
C76 H96 0.930 . S
C77 N75 1.375 . S
C77 C76 1.338 . S
C77 H81 0.931 . S
C78 N75 1.313 . S
C78 N79 1.344 . S
C78 H82 0.930 . S
N79 C76 1.377 . S
N79 C78 1.344 . S
O80 Co72 2.055 . S
O80 C84 1.253 . S
H81 C77 0.931 . S
H82 C78 0.930 . S
O83 Co72 2.039 . S
O83 C73 1.265 . S
C84 O80 1.253 . S
C84 O85 1.227 . S
O85 C84 1.227 . S
N86 Co72 2.140 . S
N86 C89 1.346 . S
N86 C90 1.345 . S
C87 C88 1.387 . S
C87 C91 1.391 . S
C88 C87 1.387 . S
C88 C89 1.369 . S
C88 H97 0.929 1_554 S
C89 N86 1.346 . S
C89 C88 1.369 . S
C89 H92 0.921 1_554 S
C90 N86 1.345 . S
C90 C91 1.371 . S
C90 H93 0.931 . S
C91 C87 1.391 . S
C91 C90 1.371 . S
C91 H98 0.930 . S
H92 C89 0.921 1_556 S
H93 C90 0.931 . S
H94 C70 0.930 . S
H95 C67 0.930 . S
H96 C76 0.930 . S
H97 C88 0.929 1_556 S
H98 C91 0.930 . S
C99 C100 1.351 . S
C99 N102 1.366 1_554 S
C99 H104 0.931 1_554 S
C100 C99 1.351 . S
C100 N101 1.373 . S
C100 H128 0.930 . S
N101 C100 1.373 . S
N101 C103 1.340 . S
N102 C99 1.366 1_556 S
N102 C103 1.316 1_556 S
N102 Co105 2.141 . S
C103 N101 1.340 . S
C103 N102 1.316 1_554 S
C103 H127 0.930 . S
H104 C99 0.931 1_556 S
Co105 N102 2.141 . S
Co105 N108 2.121 . S
Co105 O113 2.055 . S
Co105 O116 2.039 . S
Co105 N119 2.140 . S
C106 O107 1.227 . S
C106 O116 1.265 . S
O107 C106 1.227 . S
N108 Co105 2.121 . S
N108 C110 1.375 . S
N108 C111 1.313 . S
C109 C110 1.338 . S
C109 N112 1.377 . S
C109 H129 0.930 . S
C110 N108 1.375 . S
C110 C109 1.338 . S
C110 H114 0.931 . S
C111 N108 1.313 . S
C111 N112 1.344 . S
C111 H115 0.930 . S
N112 C109 1.377 . S
N112 C111 1.344 . S
O113 Co105 2.055 . S
O113 C117 1.253 . S
H114 C110 0.931 . S
H115 C111 0.930 . S
O116 Co105 2.039 . S
O116 C106 1.265 . S
C117 O113 1.253 . S
C117 O118 1.227 . S
O118 C117 1.227 . S
N119 Co105 2.140 . S
N119 C122 1.346 . S
N119 C123 1.345 . S
C120 C121 1.387 . S
C120 C124 1.391 . S
C121 C120 1.387 . S
C121 C122 1.369 . S
C121 H130 0.929 1_556 S
C122 N119 1.346 . S
C122 C121 1.369 . S
C122 H125 0.921 1_556 S
C123 N119 1.345 . S
C123 C124 1.371 . S
C123 H126 0.931 . S
C124 C120 1.391 . S
C124 C123 1.371 . S
C124 H131 0.930 . S
H125 C122 0.921 1_554 S
H126 C123 0.931 . S
H127 C103 0.930 . S
H128 C100 0.930 . S
H129 C109 0.930 . S
H130 C121 0.929 1_554 S
H131 C124 0.930 . S
C132 C133 1.351 . S
C132 N135 1.366 1_554 S
C132 H137 0.931 1_554 S
C133 C132 1.351 . S
C133 N134 1.373 . S
C133 H161 0.930 . S
N134 C133 1.373 . S
N134 C136 1.340 . S
N135 C132 1.366 1_556 S
N135 C136 1.316 1_556 S
N135 Co138 2.141 . S
C136 N134 1.340 . S
C136 N135 1.316 1_554 S
C136 H160 0.930 . S
H137 C132 0.931 1_556 S
Co138 N135 2.141 . S
Co138 N141 2.121 . S
Co138 O146 2.055 . S
Co138 O149 2.039 . S
Co138 N152 2.140 . S
C139 O140 1.227 . S
C139 O149 1.265 . S
O140 C139 1.227 . S
N141 Co138 2.121 . S
N141 C143 1.375 . S
N141 C144 1.313 . S
C142 C143 1.338 . S
C142 N145 1.377 . S
C142 H162 0.930 . S
C143 N141 1.375 . S
C143 C142 1.338 . S
C143 H147 0.931 . S
C144 N141 1.313 . S
C144 N145 1.344 . S
C144 H148 0.930 . S
N145 C142 1.377 . S
N145 C144 1.344 . S
O146 Co138 2.055 . S
O146 C150 1.253 . S
H147 C143 0.931 . S
H148 C144 0.930 . S
O149 Co138 2.039 . S
O149 C139 1.265 . S
C150 O146 1.253 . S
C150 O151 1.227 . S
O151 C150 1.227 . S
N152 Co138 2.140 . S
N152 C155 1.346 . S
N152 C156 1.345 . S
C153 C154 1.387 . S
C153 C157 1.391 . S
C154 C153 1.387 . S
C154 C155 1.369 . S
C154 H163 0.929 1_556 S
C155 N152 1.346 . S
C155 C154 1.369 . S
C155 H158 0.921 1_556 S
C156 N152 1.345 . S
C156 C157 1.371 . S
C156 H159 0.931 . S
C157 C153 1.391 . S
C157 C156 1.371 . S
C157 H164 0.930 . S
H158 C155 0.921 1_554 S
H159 C156 0.931 . S
H160 C136 0.930 . S
H161 C133 0.930 . S
H162 C142 0.930 . S
H163 C154 0.929 1_554 S
H164 C157 0.930 . S
C165 C166 1.351 . S
C165 N168 1.365 1_554 S
C165 H170 0.931 1_554 S
C166 C165 1.351 . S
C166 N167 1.373 . S
C166 H194 0.930 . S
N167 C166 1.373 . S
N167 C169 1.340 . S
N168 C165 1.365 1_556 S
N168 C169 1.315 1_556 S
N168 Co171 2.142 . S
C169 N167 1.340 . S
C169 N168 1.315 1_554 S
C169 H193 0.930 . S
H170 C165 0.931 1_556 S
Co171 N168 2.142 . S
Co171 N174 2.121 . S
Co171 O179 2.055 . S
Co171 O182 2.039 . S
Co171 N185 2.140 . S
C172 O173 1.227 . S
C172 O182 1.265 . S
O173 C172 1.227 . S
N174 Co171 2.121 . S
N174 C176 1.375 . S
N174 C177 1.313 . S
C175 C176 1.338 . S
C175 N178 1.377 . S
C175 H195 0.930 . S
C176 N174 1.375 . S
C176 C175 1.338 . S
C176 H180 0.931 . S
C177 N174 1.313 . S
C177 N178 1.344 . S
C177 H181 0.930 . S
N178 C175 1.377 . S
N178 C177 1.344 . S
O179 Co171 2.055 . S
O179 C183 1.253 . S
H180 C176 0.931 . S
H181 C177 0.930 . S
O182 Co171 2.039 . S
O182 C172 1.265 . S
C183 O179 1.253 . S
C183 O184 1.227 . S
O184 C183 1.227 . S
N185 Co171 2.140 . S
N185 C188 1.346 . S
N185 C189 1.345 . S
C186 C187 1.387 . S
C186 C190 1.391 . S
C187 C186 1.387 . S
C187 C188 1.369 . S
C187 H196 0.929 1_556 S
C188 N185 1.346 . S
C188 C187 1.369 . S
C188 H191 0.921 1_556 S
C189 N185 1.345 . S
C189 C190 1.371 . S
C189 H192 0.931 . S
C190 C186 1.391 . S
C190 C189 1.371 . S
C190 H197 0.930 . S
H191 C188 0.921 1_554 S
H192 C189 0.931 . S
H193 C169 0.930 . S
H194 C166 0.930 . S
H195 C175 0.930 . S
H196 C187 0.929 1_554 S
H197 C190 0.930 . S
C198 C199 1.351 . S
C198 N201 1.368 . S
C198 H203 0.931 . S
C199 C198 1.351 . S
C199 N200 1.373 . S
C199 H227 0.930 . S
N200 C199 1.373 . S
N200 C202 1.340 . S
N201 C198 1.368 . S
N201 C202 1.321 . S
N201 Co204 2.135 . S
C202 N200 1.340 . S
C202 N201 1.321 . S
C202 H226 0.930 . S
H203 C198 0.931 . S
Co204 N201 2.135 . S
Co204 N207 2.121 . S
Co204 O212 2.055 . S
Co204 O215 2.039 . S
Co204 N218 2.140 . S
C205 O206 1.227 . S
C205 O215 1.265 . S
O206 C205 1.227 . S
N207 Co204 2.121 . S
N207 C209 1.375 . S
N207 C210 1.313 . S
C208 C209 1.338 . S
C208 N211 1.377 . S
C208 H228 0.930 . S
C209 N207 1.375 . S
C209 C208 1.338 . S
C209 H213 0.931 . S
C210 N207 1.313 . S
C210 N211 1.344 . S
C210 H214 0.930 . S
N211 C208 1.377 . S
N211 C210 1.344 . S
O212 Co204 2.055 . S
O212 C216 1.253 . S
H213 C209 0.931 . S
H214 C210 0.930 . S
O215 Co204 2.039 . S
O215 C205 1.265 . S
C216 O212 1.253 . S
C216 O217 1.227 . S
O217 C216 1.227 . S
N218 Co204 2.140 . S
N218 C221 1.346 . S
N218 C222 1.345 . S
C219 C220 1.387 . S
C219 C223 1.391 . S
C220 C219 1.387 . S
C220 C221 1.369 . S
C220 H229 0.929 . S
C221 N218 1.346 . S
C221 C220 1.369 . S
C221 H224 0.928 . S
C222 N218 1.345 . S
C222 C223 1.371 . S
C222 H225 0.931 . S
C223 C219 1.391 . S
C223 C222 1.371 . S
C223 H230 0.930 . S
H224 C221 0.928 . S
H225 C222 0.931 . S
H226 C202 0.930 . S
H227 C199 0.930 . S
H228 C208 0.930 . S
H229 C220 0.929 . S
H230 C223 0.930 . S
C231 C232 1.351 . S
C231 N234 1.368 . S
C231 H236 0.931 . S
C232 C231 1.351 . S
C232 N233 1.373 . S
C232 H260 0.930 . S
N233 C232 1.373 . S
N233 C235 1.340 . S
N234 C231 1.368 . S
N234 C235 1.321 . S
N234 Co237 2.135 . S
C235 N233 1.340 . S
C235 N234 1.321 . S
C235 H259 0.930 . S
H236 C231 0.931 . S
Co237 N234 2.135 . S
Co237 N240 2.121 . S
Co237 O245 2.055 . S
Co237 O248 2.039 . S
Co237 N251 2.140 . S
C238 O239 1.227 . S
C238 O248 1.265 . S
O239 C238 1.227 . S
N240 Co237 2.121 . S
N240 C242 1.375 . S
N240 C243 1.313 . S
C241 C242 1.338 . S
C241 N244 1.377 . S
C241 H261 0.930 . S
C242 N240 1.375 . S
C242 C241 1.338 . S
C242 H246 0.931 . S
C243 N240 1.313 . S
C243 N244 1.344 . S
C243 H247 0.930 . S
N244 C241 1.377 . S
N244 C243 1.344 . S
O245 Co237 2.055 . S
O245 C249 1.253 . S
H246 C242 0.931 . S
H247 C243 0.930 . S
O248 Co237 2.039 . S
O248 C238 1.265 . S
C249 O245 1.253 . S
C249 O250 1.227 . S
O250 C249 1.227 . S
N251 Co237 2.140 . S
N251 C254 1.346 . S
N251 C255 1.345 . S
C252 C253 1.387 . S
C252 C256 1.391 . S
C253 C252 1.387 . S
C253 C254 1.369 . S
C253 H262 0.929 . S
C254 N251 1.346 . S
C254 C253 1.369 . S
C254 H257 0.928 . S
C255 N251 1.345 . S
C255 C256 1.371 . S
C255 H258 0.931 . S
C256 C252 1.391 . S
C256 C255 1.371 . S
C256 H263 0.930 . S
H257 C254 0.928 . S
H258 C255 0.931 . S
H259 C235 0.930 . S
H260 C232 0.930 . S
H261 C241 0.930 . S
H262 C253 0.929 . S
H263 C256 0.930 . S
C264 C265 1.351 . S
C264 N267 1.368 . S
C264 H269 0.931 . S
C265 C264 1.351 . S
C265 N266 1.373 . S
C265 H293 0.930 . S
N266 C265 1.373 . S
N266 C268 1.340 . S
N267 C264 1.368 . S
N267 C268 1.321 . S
N267 Co270 2.135 . S
C268 N266 1.340 . S
C268 N267 1.321 . S
C268 H292 0.930 . S
H269 C264 0.931 . S
Co270 N267 2.135 . S
Co270 N273 2.121 . S
Co270 O278 2.055 . S
Co270 O281 2.039 . S
Co270 N284 2.140 . S
C271 O272 1.227 . S
C271 O281 1.265 . S
O272 C271 1.227 . S
N273 Co270 2.121 . S
N273 C275 1.375 . S
N273 C276 1.313 . S
C274 C275 1.338 . S
C274 N277 1.377 . S
C274 H294 0.930 . S
C275 N273 1.375 . S
C275 C274 1.338 . S
C275 H279 0.931 . S
C276 N273 1.313 . S
C276 N277 1.344 . S
C276 H280 0.930 . S
N277 C274 1.377 . S
N277 C276 1.344 . S
O278 Co270 2.055 . S
O278 C282 1.253 . S
H279 C275 0.931 . S
H280 C276 0.930 . S
O281 Co270 2.039 . S
O281 C271 1.265 . S
C282 O278 1.253 . S
C282 O283 1.227 . S
O283 C282 1.227 . S
N284 Co270 2.140 . S
N284 C287 1.346 . S
N284 C288 1.345 . S
C285 C286 1.387 . S
C285 C289 1.391 . S
C286 C285 1.387 . S
C286 C287 1.369 . S
C286 H295 0.929 . S
C287 N284 1.346 . S
C287 C286 1.369 . S
C287 H290 0.928 . S
C288 N284 1.345 . S
C288 C289 1.371 . S
C288 H291 0.931 . S
C289 C285 1.391 . S
C289 C288 1.371 . S
C289 H296 0.930 . S
H290 C287 0.928 . S
H291 C288 0.931 . S
H292 C268 0.930 . S
H293 C265 0.930 . S
H294 C274 0.930 . S
H295 C286 0.929 . S
H296 C289 0.930 . S
C297 C298 1.351 . S
C297 N300 1.368 . S
C297 H302 0.931 . S
C298 C297 1.351 . S
C298 N299 1.373 . S
C298 H326 0.930 . S
N299 C298 1.373 . S
N299 C301 1.340 . S
N300 C297 1.368 . S
N300 C301 1.321 . S
N300 Co303 2.135 . S
C301 N299 1.340 . S
C301 N300 1.321 . S
C301 H325 0.930 . S
H302 C297 0.931 . S
Co303 N300 2.135 . S
Co303 N306 2.121 . S
Co303 O311 2.055 . S
Co303 O314 2.039 . S
Co303 N317 2.140 . S
C304 O305 1.227 . S
C304 O314 1.265 . S
O305 C304 1.227 . S
N306 Co303 2.121 . S
N306 C308 1.375 . S
N306 C309 1.313 . S
C307 C308 1.338 . S
C307 N310 1.377 1_554 S
C307 H327 0.930 1_554 S
C308 N306 1.375 . S
C308 C307 1.338 . S
C308 H312 0.931 . S
C309 N306 1.313 . S
C309 N310 1.344 1_554 S
C309 H313 0.930 . S
N310 C307 1.377 1_556 S
N310 C309 1.344 1_556 S
O311 Co303 2.055 . S
O311 C315 1.253 . S
H312 C308 0.931 . S
H313 C309 0.930 . S
O314 Co303 2.039 . S
O314 C304 1.265 . S
C315 O311 1.253 . S
C315 O316 1.227 . S
O316 C315 1.227 . S
N317 Co303 2.140 . S
N317 C320 1.346 . S
N317 C321 1.345 . S
C318 C319 1.387 . S
C318 C322 1.391 . S
C319 C318 1.387 . S
C319 C320 1.369 . S
C319 H328 0.929 . S
C320 N317 1.346 . S
C320 C319 1.369 . S
C320 H323 0.928 . S
C321 N317 1.345 . S
C321 C322 1.371 . S
C321 H324 0.931 . S
C322 C318 1.391 . S
C322 C321 1.371 . S
C322 H329 0.930 . S
H323 C320 0.928 . S
H324 C321 0.931 . S
H325 C301 0.930 . S
H326 C298 0.930 . S
H327 C307 0.930 1_556 S
H328 C319 0.929 . S
H329 C322 0.930 . S
C330 C331 1.351 . S
C330 N333 1.368 . S
C330 H335 0.931 . S
C331 C330 1.351 . S
C331 N332 1.373 . S
C331 H359 0.930 . S
N332 C331 1.373 . S
N332 C334 1.340 . S
N333 C330 1.368 . S
N333 C334 1.321 . S
N333 Co336 2.135 . S
C334 N332 1.340 . S
C334 N333 1.321 . S
C334 H358 0.930 . S
H335 C330 0.931 . S
Co336 N333 2.135 . S
Co336 N339 2.121 . S
Co336 O344 2.055 . S
Co336 O347 2.039 . S
Co336 N350 2.140 . S
C337 O338 1.227 . S
C337 O347 1.265 . S
O338 C337 1.227 . S
N339 Co336 2.121 . S
N339 C341 1.375 . S
N339 C342 1.313 . S
C340 C341 1.338 . S
C340 N343 1.377 1_554 S
C340 H360 0.930 1_554 S
C341 N339 1.375 . S
C341 C340 1.338 . S
C341 H345 0.931 . S
C342 N339 1.313 . S
C342 N343 1.344 1_554 S
C342 H346 0.930 . S
N343 C340 1.377 1_556 S
N343 C342 1.344 1_556 S
O344 Co336 2.055 . S
O344 C348 1.253 . S
H345 C341 0.931 . S
H346 C342 0.930 . S
O347 Co336 2.039 . S
O347 C337 1.265 . S
C348 O344 1.253 . S
C348 O349 1.227 . S
O349 C348 1.227 . S
N350 Co336 2.140 . S
N350 C353 1.346 . S
N350 C354 1.345 . S
C351 C352 1.387 . S
C351 C355 1.391 . S
C352 C351 1.387 . S
C352 C353 1.369 . S
C352 H361 0.929 . S
C353 N350 1.346 . S
C353 C352 1.369 . S
C353 H356 0.928 . S
C354 N350 1.345 . S
C354 C355 1.371 . S
C354 H357 0.931 . S
C355 C351 1.391 . S
C355 C354 1.371 . S
C355 H362 0.930 . S
H356 C353 0.928 . S
H357 C354 0.931 . S
H358 C334 0.930 . S
H359 C331 0.930 . S
H360 C340 0.930 1_556 S
H361 C352 0.929 . S
H362 C355 0.930 . S
C363 C364 1.351 . S
C363 N366 1.368 . S
C363 H368 0.931 . S
C364 C363 1.351 . S
C364 N365 1.373 . S
C364 H392 0.930 . S
N365 C364 1.373 . S
N365 C367 1.340 . S
N366 C363 1.368 . S
N366 C367 1.321 . S
N366 Co369 2.135 . S
C367 N365 1.340 . S
C367 N366 1.321 . S
C367 H391 0.930 . S
H368 C363 0.931 . S
Co369 N366 2.135 . S
Co369 N372 2.121 . S
Co369 O377 2.055 . S
Co369 O380 2.039 . S
Co369 N383 2.140 . S
C370 O371 1.227 . S
C370 O380 1.265 . S
O371 C370 1.227 . S
N372 Co369 2.121 . S
N372 C374 1.375 . S
N372 C375 1.313 . S
C373 C374 1.338 . S
C373 N376 1.377 1_554 S
C373 H393 0.930 1_554 S
C374 N372 1.375 . S
C374 C373 1.338 . S
C374 H378 0.931 . S
C375 N372 1.313 . S
C375 N376 1.344 1_554 S
C375 H379 0.930 . S
N376 C373 1.377 1_556 S
N376 C375 1.344 1_556 S
O377 Co369 2.055 . S
O377 C381 1.253 . S
H378 C374 0.931 . S
H379 C375 0.930 . S
O380 Co369 2.039 . S
O380 C370 1.265 . S
C381 O377 1.253 . S
C381 O382 1.227 . S
O382 C381 1.227 . S
N383 Co369 2.140 . S
N383 C386 1.346 . S
N383 C387 1.345 . S
C384 C385 1.387 . S
C384 C388 1.391 . S
C385 C384 1.387 . S
C385 C386 1.369 . S
C385 H394 0.929 . S
C386 N383 1.346 . S
C386 C385 1.369 . S
C386 H389 0.928 . S
C387 N383 1.345 . S
C387 C388 1.371 . S
C387 H390 0.931 . S
C388 C384 1.391 . S
C388 C387 1.371 . S
C388 H395 0.930 . S
H389 C386 0.928 . S
H390 C387 0.931 . S
H391 C367 0.930 . S
H392 C364 0.930 . S
H393 C373 0.930 1_556 S
H394 C385 0.929 . S
H395 C388 0.930 . S
C396 C397 1.351 . S
C396 N399 1.368 . S
C396 H401 0.931 . S
C397 C396 1.351 . S
C397 N398 1.373 . S
C397 H425 0.930 . S
N398 C397 1.373 . S
N398 C400 1.340 . S
N399 C396 1.368 . S
N399 C400 1.321 . S
N399 Co402 2.135 . S
C400 N398 1.340 . S
C400 N399 1.321 . S
C400 H424 0.930 . S
H401 C396 0.931 . S
Co402 N399 2.135 . S
Co402 N405 2.121 . S
Co402 O410 2.055 . S
Co402 O413 2.039 . S
Co402 N416 2.140 . S
C403 O404 1.227 . S
C403 O413 1.265 . S
O404 C403 1.227 . S
N405 Co402 2.121 . S
N405 C407 1.375 . S
N405 C408 1.313 . S
C406 C407 1.338 . S
C406 N409 1.377 1_556 S
C406 H426 0.930 1_556 S
C407 N405 1.375 . S
C407 C406 1.338 . S
C407 H411 0.931 . S
C408 N405 1.313 . S
C408 N409 1.344 1_556 S
C408 H412 0.930 . S
N409 C406 1.377 1_554 S
N409 C408 1.344 1_554 S
O410 Co402 2.055 . S
O410 C414 1.253 . S
H411 C407 0.931 . S
H412 C408 0.930 . S
O413 Co402 2.039 . S
O413 C403 1.265 . S
C414 O410 1.253 . S
C414 O415 1.227 . S
O415 C414 1.227 . S
N416 Co402 2.140 . S
N416 C419 1.346 . S
N416 C420 1.345 . S
C417 C418 1.387 . S
C417 C421 1.391 . S
C418 C417 1.387 . S
C418 C419 1.369 . S
C418 H427 0.929 . S
C419 N416 1.346 . S
C419 C418 1.369 . S
C419 H422 0.928 . S
C420 N416 1.345 . S
C420 C421 1.371 . S
C420 H423 0.931 . S
C421 C417 1.391 . S
C421 C420 1.371 . S
C421 H428 0.930 . S
H422 C419 0.928 . S
H423 C420 0.931 . S
H424 C400 0.930 . S
H425 C397 0.930 . S
H426 C406 0.930 1_554 S
H427 C418 0.929 . S
H428 C421 0.930 . S
C429 C430 1.351 . S
C429 N432 1.368 . S
C429 H434 0.931 . S
C430 C429 1.351 . S
C430 N431 1.373 . S
C430 H458 0.930 . S
N431 C430 1.373 . S
N431 C433 1.340 . S
N432 C429 1.368 . S
N432 C433 1.321 . S
N432 Co435 2.135 . S
C433 N431 1.340 . S
C433 N432 1.321 . S
C433 H457 0.930 . S
H434 C429 0.931 . S
Co435 N432 2.135 . S
Co435 N438 2.121 . S
Co435 O443 2.055 . S
Co435 O446 2.039 . S
Co435 N449 2.140 . S
C436 O437 1.227 . S
C436 O446 1.265 . S
O437 C436 1.227 . S
N438 Co435 2.121 . S
N438 C440 1.375 . S
N438 C441 1.313 . S
C439 C440 1.338 . S
C439 N442 1.377 1_556 S
C439 H459 0.930 1_556 S
C440 N438 1.375 . S
C440 C439 1.338 . S
C440 H444 0.931 . S
C441 N438 1.313 . S
C441 N442 1.344 1_556 S
C441 H445 0.930 . S
N442 C439 1.377 1_554 S
N442 C441 1.344 1_554 S
O443 Co435 2.055 . S
O443 C447 1.253 . S
H444 C440 0.931 . S
H445 C441 0.930 . S
O446 Co435 2.039 . S
O446 C436 1.265 . S
C447 O443 1.253 . S
C447 O448 1.227 . S
O448 C447 1.227 . S
N449 Co435 2.140 . S
N449 C452 1.346 . S
N449 C453 1.345 . S
C450 C451 1.387 . S
C450 C454 1.391 . S
C451 C450 1.387 . S
C451 C452 1.369 . S
C451 H460 0.929 . S
C452 N449 1.346 . S
C452 C451 1.369 . S
C452 H455 0.928 . S
C453 N449 1.345 . S
C453 C454 1.371 . S
C453 H456 0.931 . S
C454 C450 1.391 . S
C454 C453 1.371 . S
C454 H461 0.930 . S
H455 C452 0.928 . S
H456 C453 0.931 . S
H457 C433 0.930 . S
H458 C430 0.930 . S
H459 C439 0.930 1_554 S
H460 C451 0.929 . S
H461 C454 0.930 . S
C462 C463 1.351 . S
C462 N465 1.368 . S
C462 H467 0.931 . S
C463 C462 1.351 . S
C463 N464 1.373 . S
C463 H491 0.930 . S
N464 C463 1.373 . S
N464 C466 1.340 . S
N465 C462 1.368 . S
N465 C466 1.321 . S
N465 Co468 2.135 . S
C466 N464 1.340 . S
C466 N465 1.321 . S
C466 H490 0.930 . S
H467 C462 0.931 . S
Co468 N465 2.135 . S
Co468 N471 2.121 . S
Co468 O476 2.055 . S
Co468 O479 2.039 . S
Co468 N482 2.140 . S
C469 O470 1.227 . S
C469 O479 1.265 . S
O470 C469 1.227 . S
N471 Co468 2.121 . S
N471 C473 1.375 . S
N471 C474 1.313 . S
C472 C473 1.338 . S
C472 N475 1.377 1_556 S
C472 H492 0.930 1_556 S
C473 N471 1.375 . S
C473 C472 1.338 . S
C473 H477 0.931 . S
C474 N471 1.313 . S
C474 N475 1.344 1_556 S
C474 H478 0.930 . S
N475 C472 1.377 1_554 S
N475 C474 1.344 1_554 S
O476 Co468 2.055 . S
O476 C480 1.253 . S
H477 C473 0.931 . S
H478 C474 0.930 . S
O479 Co468 2.039 . S
O479 C469 1.265 . S
C480 O476 1.253 . S
C480 O481 1.227 . S
O481 C480 1.227 . S
N482 Co468 2.140 . S
N482 C485 1.346 . S
N482 C486 1.345 . S
C483 C484 1.387 . S
C483 C487 1.391 . S
C484 C483 1.387 . S
C484 C485 1.369 . S
C484 H493 0.929 . S
C485 N482 1.346 . S
C485 C484 1.369 . S
C485 H488 0.928 . S
C486 N482 1.345 . S
C486 C487 1.371 . S
C486 H489 0.931 . S
C487 C483 1.391 . S
C487 C486 1.371 . S
C487 H494 0.930 . S
H488 C485 0.928 . S
H489 C486 0.931 . S
H490 C466 0.930 . S
H491 C463 0.930 . S
H492 C472 0.930 1_554 S
H493 C484 0.929 . S
H494 C487 0.930 . S
C495 C496 1.351 . S
C495 N498 1.368 . S
C495 H500 0.931 . S
C496 C495 1.351 . S
C496 N497 1.373 . S
C496 H524 0.930 . S
N497 C496 1.373 . S
N497 C499 1.340 . S
N498 C495 1.368 . S
N498 C499 1.321 . S
N498 Co501 2.135 . S
C499 N497 1.340 . S
C499 N498 1.321 . S
C499 H523 0.930 . S
H500 C495 0.931 . S
Co501 N498 2.135 . S
Co501 N504 2.121 . S
Co501 O509 2.055 . S
Co501 O512 2.039 . S
Co501 N515 2.140 . S
C502 O503 1.227 . S
C502 O512 1.265 . S
O503 C502 1.227 . S
N504 Co501 2.121 . S
N504 C506 1.375 . S
N504 C507 1.313 . S
C505 C506 1.338 . S
C505 N508 1.377 . S
C505 H525 0.930 . S
C506 N504 1.375 . S
C506 C505 1.338 . S
C506 H510 0.931 . S
C507 N504 1.313 . S
C507 N508 1.344 . S
C507 H511 0.930 . S
N508 C505 1.377 . S
N508 C507 1.344 . S
O509 Co501 2.055 . S
O509 C513 1.253 . S
H510 C506 0.931 . S
H511 C507 0.930 . S
O512 Co501 2.039 . S
O512 C502 1.265 . S
C513 O509 1.253 . S
C513 O514 1.227 . S
O514 C513 1.227 . S
N515 Co501 2.140 . S
N515 C518 1.346 . S
N515 C519 1.345 . S
C516 C517 1.387 . S
C516 C520 1.391 . S
C517 C516 1.387 . S
C517 C518 1.369 . S
C517 H526 0.929 . S
C518 N515 1.346 . S
C518 C517 1.369 . S
C518 H521 0.928 . S
C519 N515 1.345 . S
C519 C520 1.371 . S
C519 H522 0.931 . S
C520 C516 1.391 . S
C520 C519 1.371 . S
C520 H527 0.930 . S
H521 C518 0.928 . S
H522 C519 0.931 . S
H523 C499 0.930 . S
H524 C496 0.930 . S
H525 C505 0.930 . S
H526 C517 0.929 . S
H527 C520 0.930 . S
C528 C529 1.351 . S
C528 N531 1.368 . S
C528 H533 0.931 . S
C529 C528 1.351 . S
C529 N530 1.373 . S
C529 H557 0.930 . S
N530 C529 1.373 . S
N530 C532 1.340 . S
N531 C528 1.368 . S
N531 C532 1.321 . S
N531 Co534 2.135 . S
C532 N530 1.340 . S
C532 N531 1.321 . S
C532 H556 0.930 . S
H533 C528 0.931 . S
Co534 N531 2.135 . S
Co534 N537 2.121 . S
Co534 O542 2.055 . S
Co534 O545 2.039 . S
Co534 N548 2.140 . S
C535 O536 1.227 . S
C535 O545 1.265 . S
O536 C535 1.227 . S
N537 Co534 2.121 . S
N537 C539 1.375 . S
N537 C540 1.313 . S
C538 C539 1.338 . S
C538 N541 1.377 . S
C538 H558 0.930 . S
C539 N537 1.375 . S
C539 C538 1.338 . S
C539 H543 0.931 . S
C540 N537 1.313 . S
C540 N541 1.344 . S
C540 H544 0.930 . S
N541 C538 1.377 . S
N541 C540 1.344 . S
O542 Co534 2.055 . S
O542 C546 1.253 . S
H543 C539 0.931 . S
H544 C540 0.930 . S
O545 Co534 2.039 . S
O545 C535 1.265 . S
C546 O542 1.253 . S
C546 O547 1.227 . S
O547 C546 1.227 . S
N548 Co534 2.140 . S
N548 C551 1.346 . S
N548 C552 1.345 . S
C549 C550 1.387 . S
C549 C553 1.391 . S
C550 C549 1.387 . S
C550 C551 1.369 . S
C550 H559 0.929 . S
C551 N548 1.346 . S
C551 C550 1.369 . S
C551 H554 0.928 . S
C552 N548 1.345 . S
C552 C553 1.371 . S
C552 H555 0.931 . S
C553 C549 1.391 . S
C553 C552 1.371 . S
C553 H560 0.930 . S
H554 C551 0.928 . S
H555 C552 0.931 . S
H556 C532 0.930 . S
H557 C529 0.930 . S
H558 C538 0.930 . S
H559 C550 0.929 . S
H560 C553 0.930 . S
C561 C562 1.351 . S
C561 N564 1.368 . S
C561 H566 0.931 . S
C562 C561 1.351 . S
C562 N563 1.373 . S
C562 H590 0.930 . S
N563 C562 1.373 . S
N563 C565 1.340 . S
N564 C561 1.368 . S
N564 C565 1.321 . S
N564 Co567 2.135 . S
C565 N563 1.340 . S
C565 N564 1.321 . S
C565 H589 0.930 . S
H566 C561 0.931 . S
Co567 N564 2.135 . S
Co567 N570 2.121 . S
Co567 O575 2.055 . S
Co567 O578 2.039 . S
Co567 N581 2.140 . S
C568 O569 1.227 . S
C568 O578 1.265 . S
O569 C568 1.227 . S
N570 Co567 2.121 . S
N570 C572 1.375 . S
N570 C573 1.313 . S
C571 C572 1.338 . S
C571 N574 1.377 . S
C571 H591 0.930 . S
C572 N570 1.375 . S
C572 C571 1.338 . S
C572 H576 0.931 . S
C573 N570 1.313 . S
C573 N574 1.344 . S
C573 H577 0.930 . S
N574 C571 1.377 . S
N574 C573 1.344 . S
O575 Co567 2.055 . S
O575 C579 1.253 . S
H576 C572 0.931 . S
H577 C573 0.930 . S
O578 Co567 2.039 . S
O578 C568 1.265 . S
C579 O575 1.253 . S
C579 O580 1.227 . S
O580 C579 1.227 . S
N581 Co567 2.140 . S
N581 C584 1.346 . S
N581 C585 1.345 . S
C582 C583 1.387 . S
C582 C586 1.391 . S
C583 C582 1.387 . S
C583 C584 1.369 . S
C583 H592 0.929 . S
C584 N581 1.346 . S
C584 C583 1.369 . S
C584 H587 0.928 . S
C585 N581 1.345 . S
C585 C586 1.371 . S
C585 H588 0.931 . S
C586 C582 1.391 . S
C586 C585 1.371 . S
C586 H593 0.930 . S
H587 C584 0.928 . S
H588 C585 0.931 . S
H589 C565 0.930 . S
H590 C562 0.930 . S
H591 C571 0.930 . S
H592 C583 0.929 . S
H593 C586 0.930 . S
C594 C595 1.391 . S
C594 C596 1.394 . S
C594 H610 0.931 . S
C595 C594 1.391 . S
C595 C599 1.376 . S
C596 C594 1.394 . S
C596 C597 1.369 . S
C596 C600 1.531 . S
C597 C596 1.369 . S
C597 C598 1.410 . S
C597 C605 1.503 . S
C598 C597 1.410 . S
C598 C599 1.392 . S
C598 C601 1.511 . S
C599 C595 1.376 . S
C599 C598 1.392 . S
C599 H611 0.929 . S
C600 C596 1.531 . S
C600 H612 0.960 . S
C600 H613 0.962 . S
C600 H614 0.960 . S
C601 C598 1.511 . S
C601 H615 0.961 . S
C601 H616 0.961 . S
C601 H617 0.961 . S
C602 C603 1.370 . S
C602 C604 1.363 . S
C602 H618 0.931 . S
C603 C602 1.370 . S
C603 C607 1.408 . S
C604 C602 1.363 . S
C604 C605 1.370 . S
C604 C608 1.524 . S
C605 C597 1.503 . S
C605 C604 1.370 . S
C605 C606 1.403 . S
C606 C605 1.403 . S
C606 C607 1.404 . S
C606 C609 1.539 . S
C607 C603 1.408 . S
C607 C606 1.404 . S
C607 H619 0.930 . S
C608 C604 1.524 . S
C608 H620 0.956 . S
C608 H621 0.961 . S
C608 H622 0.961 . S
C609 C606 1.539 . S
C609 H623 0.958 . S
C609 H624 0.961 . S
C609 H625 0.960 . S
H610 C594 0.931 . S
H611 C599 0.929 . S
H612 C600 0.960 . S
H613 C600 0.962 . S
H614 C600 0.960 . S
H615 C601 0.961 . S
H616 C601 0.961 . S
H617 C601 0.961 . S
H618 C602 0.931 . S
H619 C607 0.930 . S
H620 C608 0.956 . S
H621 C608 0.961 . S
H622 C608 0.961 . S
H623 C609 0.958 . S
H624 C609 0.961 . S
H625 C609 0.960 . S
C626 C627 1.391 . S
C626 C628 1.394 . S
C626 H642 0.931 . S
C627 C626 1.391 . S
C627 C631 1.376 . S
C628 C626 1.394 . S
C628 C629 1.369 . S
C628 C632 1.531 . S
C629 C628 1.369 . S
C629 C630 1.410 . S
C629 C637 1.503 . S
C630 C629 1.410 . S
C630 C631 1.392 . S
C630 C633 1.511 . S
C631 C627 1.376 . S
C631 C630 1.392 . S
C631 H643 0.929 . S
C632 C628 1.531 . S
C632 H644 0.960 . S
C632 H645 0.962 . S
C632 H646 0.960 . S
C633 C630 1.511 . S
C633 H647 0.961 . S
C633 H648 0.961 . S
C633 H649 0.961 . S
C634 C635 1.370 . S
C634 C636 1.363 . S
C634 H650 0.931 . S
C635 C634 1.370 . S
C635 C639 1.408 . S
C636 C634 1.363 . S
C636 C637 1.370 . S
C636 C640 1.524 . S
C637 C629 1.503 . S
C637 C636 1.370 . S
C637 C638 1.403 . S
C638 C637 1.403 . S
C638 C639 1.404 . S
C638 C641 1.539 . S
C639 C635 1.408 . S
C639 C638 1.404 . S
C639 H651 0.930 . S
C640 C636 1.524 . S
C640 H652 0.956 . S
C640 H653 0.961 . S
C640 H654 0.961 . S
C641 C638 1.539 . S
C641 H655 0.958 . S
C641 H656 0.961 . S
C641 H657 0.960 . S
H642 C626 0.931 . S
H643 C631 0.929 . S
H644 C632 0.960 . S
H645 C632 0.962 . S
H646 C632 0.960 . S
H647 C633 0.961 . S
H648 C633 0.961 . S
H649 C633 0.961 . S
H650 C634 0.931 . S
H651 C639 0.930 . S
H652 C640 0.956 . S
H653 C640 0.961 . S
H654 C640 0.961 . S
H655 C641 0.958 . S
H656 C641 0.961 . S
H657 C641 0.960 . S
C658 C659 1.391 . S
C658 C660 1.394 . S
C658 H674 0.931 . S
C659 C658 1.391 . S
C659 C663 1.376 . S
C660 C658 1.394 . S
C660 C661 1.369 . S
C660 C664 1.531 . S
C661 C660 1.369 . S
C661 C662 1.410 . S
C661 C669 1.503 . S
C662 C661 1.410 . S
C662 C663 1.392 . S
C662 C665 1.511 . S
C663 C659 1.376 . S
C663 C662 1.392 . S
C663 H675 0.929 . S
C664 C660 1.531 . S
C664 H676 0.960 . S
C664 H677 0.962 . S
C664 H678 0.960 . S
C665 C662 1.511 . S
C665 H679 0.961 . S
C665 H680 0.961 . S
C665 H681 0.961 . S
C666 C667 1.370 . S
C666 C668 1.363 . S
C666 H682 0.931 . S
C667 C666 1.370 . S
C667 C671 1.408 . S
C668 C666 1.363 . S
C668 C669 1.370 . S
C668 C672 1.524 . S
C669 C661 1.503 . S
C669 C668 1.370 . S
C669 C670 1.403 . S
C670 C669 1.403 . S
C670 C671 1.404 . S
C670 C673 1.539 . S
C671 C667 1.408 . S
C671 C670 1.404 . S
C671 H683 0.930 . S
C672 C668 1.524 . S
C672 H684 0.956 . S
C672 H685 0.961 . S
C672 H686 0.961 . S
C673 C670 1.539 . S
C673 H687 0.958 . S
C673 H688 0.961 . S
C673 H689 0.960 . S
H674 C658 0.931 . S
H675 C663 0.929 . S
H676 C664 0.960 . S
H677 C664 0.962 . S
H678 C664 0.960 . S
H679 C665 0.961 . S
H680 C665 0.961 . S
H681 C665 0.961 . S
H682 C666 0.931 . S
H683 C671 0.930 . S
H684 C672 0.956 . S
H685 C672 0.961 . S
H686 C672 0.961 . S
H687 C673 0.958 . S
H688 C673 0.961 . S
H689 C673 0.960 . S
C690 C691 1.391 . S
C690 C692 1.394 . S
C690 H706 0.931 . S
C691 C690 1.391 . S
C691 C695 1.376 . S
C692 C690 1.394 . S
C692 C693 1.369 . S
C692 C696 1.531 . S
C693 C692 1.369 . S
C693 C694 1.410 . S
C693 C701 1.503 . S
C694 C693 1.410 . S
C694 C695 1.392 . S
C694 C697 1.511 . S
C695 C691 1.376 . S
C695 C694 1.392 . S
C695 H707 0.929 . S
C696 C692 1.531 . S
C696 H708 0.960 . S
C696 H709 0.962 . S
C696 H710 0.960 . S
C697 C694 1.511 . S
C697 H711 0.961 . S
C697 H712 0.961 . S
C697 H713 0.961 . S
C698 C699 1.370 . S
C698 C700 1.363 . S
C698 H714 0.931 . S
C699 C698 1.370 . S
C699 C703 1.408 . S
C700 C698 1.363 . S
C700 C701 1.370 . S
C700 C704 1.524 . S
C701 C693 1.503 . S
C701 C700 1.370 . S
C701 C702 1.403 . S
C702 C701 1.403 . S
C702 C703 1.404 . S
C702 C705 1.539 . S
C703 C699 1.408 . S
C703 C702 1.404 . S
C703 H715 0.930 . S
C704 C700 1.524 . S
C704 H716 0.956 . S
C704 H717 0.961 . S
C704 H718 0.961 . S
C705 C702 1.539 . S
C705 H719 0.958 . S
C705 H720 0.961 . S
C705 H721 0.960 . S
H706 C690 0.931 . S
H707 C695 0.929 . S
H708 C696 0.960 . S
H709 C696 0.962 . S
H710 C696 0.960 . S
H711 C697 0.961 . S
H712 C697 0.961 . S
H713 C697 0.961 . S
H714 C698 0.931 . S
H715 C703 0.930 . S
H716 C704 0.956 . S
H717 C704 0.961 . S
H718 C704 0.961 . S
H719 C705 0.958 . S
H720 C705 0.961 . S
H721 C705 0.960 . S
C722 C723 1.391 . S
C722 C724 1.394 . S
C722 H738 0.931 . S
C723 C722 1.391 . S
C723 C727 1.376 . S
C724 C722 1.394 . S
C724 C725 1.369 . S
C724 C728 1.531 . S
C725 C724 1.369 . S
C725 C726 1.410 . S
C725 C733 1.503 . S
C726 C725 1.410 . S
C726 C727 1.392 . S
C726 C729 1.511 . S
C727 C723 1.376 . S
C727 C726 1.392 . S
C727 H739 0.929 . S
C728 C724 1.531 . S
C728 H740 0.960 . S
C728 H741 0.962 . S
C728 H742 0.960 . S
C729 C726 1.511 . S
C729 H743 0.961 . S
C729 H744 0.961 . S
C729 H745 0.961 . S
C730 C731 1.370 . S
C730 C732 1.363 . S
C730 H746 0.931 . S
C731 C730 1.370 . S
C731 C735 1.408 . S
C732 C730 1.363 . S
C732 C733 1.370 . S
C732 C736 1.524 . S
C733 C725 1.503 . S
C733 C732 1.370 . S
C733 C734 1.403 . S
C734 C733 1.403 . S
C734 C735 1.404 . S
C734 C737 1.539 . S
C735 C731 1.408 . S
C735 C734 1.404 . S
C735 H747 0.930 . S
C736 C732 1.524 . S
C736 H748 0.956 . S
C736 H749 0.961 . S
C736 H750 0.961 . S
C737 C734 1.539 . S
C737 H751 0.958 . S
C737 H752 0.961 . S
C737 H753 0.960 . S
H738 C722 0.931 . S
H739 C727 0.929 . S
H740 C728 0.960 . S
H741 C728 0.962 . S
H742 C728 0.960 . S
H743 C729 0.961 . S
H744 C729 0.961 . S
H745 C729 0.961 . S
H746 C730 0.931 . S
H747 C735 0.930 . S
H748 C736 0.956 . S
H749 C736 0.961 . S
H750 C736 0.961 . S
H751 C737 0.958 . S
H752 C737 0.961 . S
H753 C737 0.960 . S
C754 C755 1.391 . S
C754 C756 1.394 . S
C754 H770 0.931 . S
C755 C754 1.391 . S
C755 C759 1.376 . S
C756 C754 1.394 . S
C756 C757 1.369 . S
C756 C760 1.531 . S
C757 C756 1.369 . S
C757 C758 1.410 . S
C757 C765 1.503 . S
C758 C757 1.410 . S
C758 C759 1.392 . S
C758 C761 1.511 . S
C759 C755 1.376 . S
C759 C758 1.392 . S
C759 H771 0.929 . S
C760 C756 1.531 . S
C760 H772 0.960 . S
C760 H773 0.962 . S
C760 H774 0.960 . S
C761 C758 1.511 . S
C761 H775 0.961 . S
C761 H776 0.961 . S
C761 H777 0.961 . S
C762 C763 1.370 . S
C762 C764 1.363 . S
C762 H778 0.931 . S
C763 C762 1.370 . S
C763 C767 1.408 . S
C764 C762 1.363 . S
C764 C765 1.370 . S
C764 C768 1.524 . S
C765 C757 1.503 . S
C765 C764 1.370 . S
C765 C766 1.403 . S
C766 C765 1.403 . S
C766 C767 1.404 . S
C766 C769 1.539 . S
C767 C763 1.408 . S
C767 C766 1.404 . S
C767 H779 0.930 . S
C768 C764 1.524 . S
C768 H780 0.956 . S
C768 H781 0.961 . S
C768 H782 0.961 . S
C769 C766 1.539 . S
C769 H783 0.958 . S
C769 H784 0.961 . S
C769 H785 0.960 . S
H770 C754 0.931 . S
H771 C759 0.929 . S
H772 C760 0.960 . S
H773 C760 0.962 . S
H774 C760 0.960 . S
H775 C761 0.961 . S
H776 C761 0.961 . S
H777 C761 0.961 . S
H778 C762 0.931 . S
H779 C767 0.930 . S
H780 C768 0.956 . S
H781 C768 0.961 . S
H782 C768 0.961 . S
H783 C769 0.958 . S
H784 C769 0.961 . S
H785 C769 0.960 . S
C786 C787 1.391 . S
C786 C788 1.394 . S
C786 H802 0.931 . S
C787 C786 1.391 . S
C787 C791 1.376 . S
C788 C786 1.394 . S
C788 C789 1.369 1_554 S
C788 C792 1.531 1_554 S
C789 C788 1.369 1_556 S
C789 C790 1.410 1_556 S
C789 C797 1.503 . S
C790 C789 1.410 1_554 S
C790 C791 1.392 . S
C790 C793 1.511 1_554 S
C791 C787 1.376 . S
C791 C790 1.392 . S
C791 H803 0.929 . S
C792 C788 1.531 1_556 S
C792 H804 0.960 . S
C792 H805 0.962 . S
C792 H806 0.960 1_556 S
C793 C790 1.511 1_556 S
C793 H807 0.961 1_556 S
C793 H808 0.961 . S
C793 H809 0.961 . S
C794 C795 1.370 . S
C794 C796 1.363 . S
C794 H810 0.931 . S
C795 C794 1.370 . S
C795 C799 1.408 . S
C796 C794 1.363 . S
C796 C797 1.370 . S
C796 C800 1.524 . S
C797 C789 1.503 . S
C797 C796 1.370 . S
C797 C798 1.403 . S
C798 C797 1.403 . S
C798 C799 1.404 . S
C798 C801 1.539 . S
C799 C795 1.408 . S
C799 C798 1.404 . S
C799 H811 0.930 . S
C800 C796 1.524 . S
C800 H812 0.956 . S
C800 H813 0.961 . S
C800 H814 0.961 . S
C801 C798 1.539 . S
C801 H815 0.958 . S
C801 H816 0.961 . S
C801 H817 0.960 . S
H802 C786 0.931 . S
H803 C791 0.929 . S
H804 C792 0.960 . S
H805 C792 0.962 . S
H806 C792 0.960 1_554 S
H807 C793 0.961 1_554 S
H808 C793 0.961 . S
H809 C793 0.961 . S
H810 C794 0.931 . S
H811 C799 0.930 . S
H812 C800 0.956 . S
H813 C800 0.961 . S
H814 C800 0.961 . S
H815 C801 0.958 . S
H816 C801 0.961 . S
H817 C801 0.960 . S
C818 C819 1.391 . S
C818 C820 1.394 . S
C818 H834 0.931 . S
C819 C818 1.391 . S
C819 C823 1.376 . S
C820 C818 1.394 . S
C820 C821 1.369 1_554 S
C820 C824 1.531 . S
C821 C820 1.369 1_556 S
C821 C822 1.410 1_556 S
C821 C829 1.503 . S
C822 C821 1.410 1_554 S
C822 C823 1.392 . S
C822 C825 1.511 1_554 S
C823 C819 1.376 . S
C823 C822 1.392 . S
C823 H835 0.929 . S
C824 C820 1.531 . S
C824 H836 0.960 1_554 S
C824 H837 0.962 . S
C824 H838 0.960 . S
C825 C822 1.511 1_556 S
C825 H839 0.961 . S
C825 H840 0.961 . S
C825 H841 0.961 . S
C826 C827 1.370 . S
C826 C828 1.363 . S
C826 H842 0.931 . S
C827 C826 1.370 . S
C827 C831 1.408 . S
C828 C826 1.363 . S
C828 C829 1.370 . S
C828 C832 1.524 . S
C829 C821 1.503 . S
C829 C828 1.370 . S
C829 C830 1.403 . S
C830 C829 1.403 . S
C830 C831 1.404 . S
C830 C833 1.539 . S
C831 C827 1.408 . S
C831 C830 1.404 . S
C831 H843 0.930 . S
C832 C828 1.524 . S
C832 H844 0.956 . S
C832 H845 0.961 . S
C832 H846 0.961 . S
C833 C830 1.539 . S
C833 H847 0.958 . S
C833 H848 0.961 . S
C833 H849 0.960 . S
H834 C818 0.931 . S
H835 C823 0.929 . S
H836 C824 0.960 1_556 S
H837 C824 0.962 . S
H838 C824 0.960 . S
H839 C825 0.961 . S
H840 C825 0.961 . S
H841 C825 0.961 . S
H842 C826 0.931 . S
H843 C831 0.930 . S
H844 C832 0.956 . S
H845 C832 0.961 . S
H846 C832 0.961 . S
H847 C833 0.958 . S
H848 C833 0.961 . S
H849 C833 0.960 . S
C850 C851 1.391 . S
C850 C852 1.394 . S
C850 H866 0.931 . S
C851 C850 1.391 . S
C851 C855 1.376 . S
C852 C850 1.394 . S
C852 C853 1.369 . S
C852 C856 1.531 . S
C853 C852 1.369 . S
C853 C854 1.410 . S
C853 C861 1.503 . S
C854 C853 1.410 . S
C854 C855 1.392 . S
C854 C857 1.511 . S
C855 C851 1.376 . S
C855 C854 1.392 . S
C855 H867 0.929 . S
C856 C852 1.531 . S
C856 H868 0.960 . S
C856 H869 0.962 . S
C856 H870 0.960 . S
C857 C854 1.511 . S
C857 H871 0.961 . S
C857 H872 0.961 . S
C857 H873 0.961 . S
C858 C859 1.370 . S
C858 C860 1.363 . S
C858 H874 0.931 . S
C859 C858 1.370 . S
C859 C863 1.408 . S
C860 C858 1.363 . S
C860 C861 1.370 1_554 S
C860 C864 1.524 1_554 S
C861 C853 1.503 . S
C861 C860 1.370 1_556 S
C861 C862 1.403 1_556 S
C862 C861 1.403 1_554 S
C862 C863 1.404 . S
C862 C865 1.539 . S
C863 C859 1.408 . S
C863 C862 1.404 . S
C863 H875 0.930 . S
C864 C860 1.524 1_556 S
C864 H876 0.956 . S
C864 H877 0.961 . S
C864 H878 0.961 . S
C865 C862 1.539 . S
C865 H879 0.958 . S
C865 H880 0.961 . S
C865 H881 0.960 1_554 S
H866 C850 0.931 . S
H867 C855 0.929 . S
H868 C856 0.960 . S
H869 C856 0.962 . S
H870 C856 0.960 . S
H871 C857 0.961 . S
H872 C857 0.961 . S
H873 C857 0.961 . S
H874 C858 0.931 . S
H875 C863 0.930 . S
H876 C864 0.956 . S
H877 C864 0.961 . S
H878 C864 0.961 . S
H879 C865 0.958 . S
H880 C865 0.961 . S
H881 C865 0.960 1_556 S
C882 C883 1.391 . S
C882 C884 1.394 . S
C882 H898 0.931 . S
C883 C882 1.391 . S
C883 C887 1.376 . S
C884 C882 1.394 . S
C884 C885 1.369 . S
C884 C888 1.531 . S
C885 C884 1.369 . S
C885 C886 1.410 . S
C885 C893 1.503 . S
C886 C885 1.410 . S
C886 C887 1.392 . S
C886 C889 1.511 . S
C887 C883 1.376 . S
C887 C886 1.392 . S
C887 H899 0.929 . S
C888 C884 1.531 . S
C888 H900 0.960 . S
C888 H901 0.962 . S
C888 H902 0.960 . S
C889 C886 1.511 . S
C889 H903 0.961 . S
C889 H904 0.961 . S
C889 H905 0.961 . S
C890 C891 1.370 . S
C890 C892 1.363 . S
C890 H906 0.931 . S
C891 C890 1.370 . S
C891 C895 1.408 . S
C892 C890 1.363 . S
C892 C893 1.370 . S
C892 C896 1.524 . S
C893 C885 1.503 . S
C893 C892 1.370 . S
C893 C894 1.403 . S
C894 C893 1.403 . S
C894 C895 1.404 . S
C894 C897 1.539 . S
C895 C891 1.408 . S
C895 C894 1.404 . S
C895 H907 0.930 . S
C896 C892 1.524 . S
C896 H908 0.956 . S
C896 H909 0.961 . S
C896 H910 0.961 . S
C897 C894 1.539 . S
C897 H911 0.958 . S
C897 H912 0.961 . S
C897 H913 0.960 . S
H898 C882 0.931 . S
H899 C887 0.929 . S
H900 C888 0.960 . S
H901 C888 0.962 . S
H902 C888 0.960 . S
H903 C889 0.961 . S
H904 C889 0.961 . S
H905 C889 0.961 . S
H906 C890 0.931 . S
H907 C895 0.930 . S
H908 C896 0.956 . S
H909 C896 0.961 . S
H910 C896 0.961 . S
H911 C897 0.958 . S
H912 C897 0.961 . S
H913 C897 0.960 . S
C914 C915 1.391 . S
C914 C916 1.394 . S
C914 H930 0.931 . S
C915 C914 1.391 . S
C915 C919 1.376 . S
C916 C914 1.394 . S
C916 C917 1.369 . S
C916 C920 1.531 . S
C917 C916 1.369 . S
C917 C918 1.410 . S
C917 C925 1.503 . S
C918 C917 1.410 . S
C918 C919 1.392 . S
C918 C921 1.511 . S
C919 C915 1.376 . S
C919 C918 1.392 . S
C919 H931 0.929 . S
C920 C916 1.531 . S
C920 H932 0.960 . S
C920 H933 0.962 . S
C920 H934 0.960 . S
C921 C918 1.511 . S
C921 H935 0.961 . S
C921 H936 0.961 . S
C921 H937 0.961 . S
C922 C923 1.370 . S
C922 C924 1.363 . S
C922 H938 0.931 . S
C923 C922 1.370 . S
C923 C927 1.408 . S
C924 C922 1.363 . S
C924 C925 1.370 . S
C924 C928 1.524 . S
C925 C917 1.503 . S
C925 C924 1.370 . S
C925 C926 1.403 . S
C926 C925 1.403 . S
C926 C927 1.404 . S
C926 C929 1.539 . S
C927 C923 1.408 . S
C927 C926 1.404 . S
C927 H939 0.930 . S
C928 C924 1.524 . S
C928 H940 0.956 . S
C928 H941 0.961 . S
C928 H942 0.961 . S
C929 C926 1.539 . S
C929 H943 0.958 . S
C929 H944 0.961 . S
C929 H945 0.960 . S
H930 C914 0.931 . S
H931 C919 0.929 . S
H932 C920 0.960 . S
H933 C920 0.962 . S
H934 C920 0.960 . S
H935 C921 0.961 . S
H936 C921 0.961 . S
H937 C921 0.961 . S
H938 C922 0.931 . S
H939 C927 0.930 . S
H940 C928 0.956 . S
H941 C928 0.961 . S
H942 C928 0.961 . S
H943 C929 0.958 . S
H944 C929 0.961 . S
H945 C929 0.960 . S
C946 C947 1.391 . S
C946 C948 1.394 . S
C946 H962 0.931 . S
C947 C946 1.391 . S
C947 C951 1.376 . S
C948 C946 1.394 . S
C948 C949 1.369 . S
C948 C952 1.531 . S
C949 C948 1.369 . S
C949 C950 1.410 . S
C949 C957 1.503 . S
C950 C949 1.410 . S
C950 C951 1.392 . S
C950 C953 1.511 . S
C951 C947 1.376 . S
C951 C950 1.392 . S
C951 H963 0.929 . S
C952 C948 1.531 . S
C952 H964 0.960 . S
C952 H965 0.962 . S
C952 H966 0.960 . S
C953 C950 1.511 . S
C953 H967 0.961 . S
C953 H968 0.961 . S
C953 H969 0.961 . S
C954 C955 1.370 . S
C954 C956 1.363 . S
C954 H970 0.931 . S
C955 C954 1.370 . S
C955 C959 1.408 . S
C956 C954 1.363 . S
C956 C957 1.370 . S
C956 C960 1.524 . S
C957 C949 1.503 . S
C957 C956 1.370 . S
C957 C958 1.403 . S
C958 C957 1.403 . S
C958 C959 1.404 . S
C958 C961 1.539 . S
C959 C955 1.408 . S
C959 C958 1.404 . S
C959 H971 0.930 . S
C960 C956 1.524 . S
C960 H972 0.956 . S
C960 H973 0.961 . S
C960 H974 0.961 . S
C961 C958 1.539 . S
C961 H975 0.958 . S
C961 H976 0.961 . S
C961 H977 0.960 . S
H962 C946 0.931 . S
H963 C951 0.929 . S
H964 C952 0.960 . S
H965 C952 0.962 . S
H966 C952 0.960 . S
H967 C953 0.961 . S
H968 C953 0.961 . S
H969 C953 0.961 . S
H970 C954 0.931 . S
H971 C959 0.930 . S
H972 C960 0.956 . S
H973 C960 0.961 . S
H974 C960 0.961 . S
H975 C961 0.958 . S
H976 C961 0.961 . S
H977 C961 0.960 . S
C978 C979 1.391 . S
C978 C980 1.394 . S
C978 H994 0.931 . S
C979 C978 1.391 . S
C979 C983 1.376 . S
C980 C978 1.394 . S
C980 C981 1.369 . S
C980 C984 1.531 . S
C981 C980 1.369 . S
C981 C982 1.410 . S
C981 C989 1.503 . S
C982 C981 1.410 . S
C982 C983 1.392 . S
C982 C985 1.511 . S
C983 C979 1.376 . S
C983 C982 1.392 . S
C983 H995 0.929 . S
C984 C980 1.531 . S
C984 H996 0.960 . S
C984 H997 0.962 . S
C984 H998 0.960 . S
C985 C982 1.511 . S
C985 H999 0.961 . S
C985 H1000 0.961 . S
C985 H1001 0.961 . S
C986 C987 1.370 . S
C986 C988 1.363 . S
C986 H1002 0.931 . S
C987 C986 1.370 . S
C987 C991 1.408 . S
C988 C986 1.363 . S
C988 C989 1.370 . S
C988 C992 1.524 . S
C989 C981 1.503 . S
C989 C988 1.370 . S
C989 C990 1.403 . S
C990 C989 1.403 . S
C990 C991 1.404 . S
C990 C993 1.539 . S
C991 C987 1.408 . S
C991 C990 1.404 . S
C991 H1003 0.930 . S
C992 C988 1.524 . S
C992 H1004 0.956 . S
C992 H1005 0.961 . S
C992 H1006 0.961 . S
C993 C990 1.539 . S
C993 H1007 0.958 . S
C993 H1008 0.961 . S
C993 H1009 0.960 . S
H994 C978 0.931 . S
H995 C983 0.929 . S
H996 C984 0.960 . S
H997 C984 0.962 . S
H998 C984 0.960 . S
H999 C985 0.961 . S
H1000 C985 0.961 . S
H1001 C985 0.961 . S
H1002 C986 0.931 . S
H1003 C991 0.930 . S
H1004 C992 0.956 . S
H1005 C992 0.961 . S
H1006 C992 0.961 . S
H1007 C993 0.958 . S
H1008 C993 0.961 . S
H1009 C993 0.960 . S
C1010 C1011 1.391 . S
C1010 C1012 1.394 . S
C1010 H1026 0.931 . S
C1011 C1010 1.391 . S
C1011 C1015 1.376 . S
C1012 C1010 1.394 . S
C1012 C1013 1.369 . S
C1012 C1016 1.531 . S
C1013 C1012 1.369 . S
C1013 C1014 1.410 . S
C1013 C1021 1.503 . S
C1014 C1013 1.410 . S
C1014 C1015 1.392 . S
C1014 C1017 1.511 . S
C1015 C1011 1.376 . S
C1015 C1014 1.392 . S
C1015 H1027 0.929 . S
C1016 C1012 1.531 . S
C1016 H1028 0.960 . S
C1016 H1029 0.962 . S
C1016 H1030 0.960 . S
C1017 C1014 1.511 . S
C1017 H1031 0.961 . S
C1017 H1032 0.961 . S
C1017 H1033 0.961 . S
C1018 C1019 1.370 . S
C1018 C1020 1.363 . S
C1018 H1034 0.931 . S
C1019 C1018 1.370 . S
C1019 C1023 1.408 . S
C1020 C1018 1.363 . S
C1020 C1021 1.370 . S
C1020 C1024 1.524 . S
C1021 C1013 1.503 . S
C1021 C1020 1.370 . S
C1021 C1022 1.403 . S
C1022 C1021 1.403 . S
C1022 C1023 1.404 . S
C1022 C1025 1.539 . S
C1023 C1019 1.408 . S
C1023 C1022 1.404 . S
C1023 H1035 0.930 . S
C1024 C1020 1.524 . S
C1024 H1036 0.956 . S
C1024 H1037 0.961 . S
C1024 H1038 0.961 . S
C1025 C1022 1.539 . S
C1025 H1039 0.958 . S
C1025 H1040 0.961 . S
C1025 H1041 0.960 . S
H1026 C1010 0.931 . S
H1027 C1015 0.929 . S
H1028 C1016 0.960 . S
H1029 C1016 0.962 . S
H1030 C1016 0.960 . S
H1031 C1017 0.961 . S
H1032 C1017 0.961 . S
H1033 C1017 0.961 . S
H1034 C1018 0.931 . S
H1035 C1023 0.930 . S
H1036 C1024 0.956 . S
H1037 C1024 0.961 . S
H1038 C1024 0.961 . S
H1039 C1025 0.958 . S
H1040 C1025 0.961 . S
H1041 C1025 0.960 . S
C1042 C1043 1.391 . S
C1042 C1044 1.394 . S
C1042 H1058 0.931 . S
C1043 C1042 1.391 . S
C1043 C1047 1.376 . S
C1044 C1042 1.394 . S
C1044 C1045 1.369 . S
C1044 C1048 1.531 . S
C1045 C1044 1.369 . S
C1045 C1046 1.410 . S
C1045 C1053 1.503 . S
C1046 C1045 1.410 . S
C1046 C1047 1.392 . S
C1046 C1049 1.511 . S
C1047 C1043 1.376 . S
C1047 C1046 1.392 . S
C1047 H1059 0.929 . S
C1048 C1044 1.531 . S
C1048 H1060 0.960 . S
C1048 H1061 0.962 . S
C1048 H1062 0.960 . S
C1049 C1046 1.511 . S
C1049 H1063 0.961 . S
C1049 H1064 0.961 . S
C1049 H1065 0.961 . S
C1050 C1051 1.370 . S
C1050 C1052 1.363 . S
C1050 H1066 0.931 . S
C1051 C1050 1.370 . S
C1051 C1055 1.408 . S
C1052 C1050 1.363 . S
C1052 C1053 1.370 . S
C1052 C1056 1.524 . S
C1053 C1045 1.503 . S
C1053 C1052 1.370 . S
C1053 C1054 1.403 . S
C1054 C1053 1.403 . S
C1054 C1055 1.404 . S
C1054 C1057 1.539 . S
C1055 C1051 1.408 . S
C1055 C1054 1.404 . S
C1055 H1067 0.930 . S
C1056 C1052 1.524 . S
C1056 H1068 0.956 . S
C1056 H1069 0.961 . S
C1056 H1070 0.961 . S
C1057 C1054 1.539 . S
C1057 H1071 0.958 . S
C1057 H1072 0.961 . S
C1057 H1073 0.960 . S
H1058 C1042 0.931 . S
H1059 C1047 0.929 . S
H1060 C1048 0.960 . S
H1061 C1048 0.962 . S
H1062 C1048 0.960 . S
H1063 C1049 0.961 . S
H1064 C1049 0.961 . S
H1065 C1049 0.961 . S
H1066 C1050 0.931 . S
H1067 C1055 0.930 . S
H1068 C1056 0.956 . S
H1069 C1056 0.961 . S
H1070 C1056 0.961 . S
H1071 C1057 0.958 . S
H1072 C1057 0.961 . S
H1073 C1057 0.960 . S
C1074 C1075 1.391 . S
C1074 C1076 1.394 . S
C1074 H1090 0.931 . S
C1075 C1074 1.391 . S
C1075 C1079 1.376 . S
C1076 C1074 1.394 . S
C1076 C1077 1.369 . S
C1076 C1080 1.531 . S
C1077 C1076 1.369 . S
C1077 C1078 1.410 . S
C1077 C1085 1.503 . S
C1078 C1077 1.410 . S
C1078 C1079 1.392 . S
C1078 C1081 1.511 . S
C1079 C1075 1.376 . S
C1079 C1078 1.392 . S
C1079 H1091 0.929 . S
C1080 C1076 1.531 . S
C1080 H1092 0.960 . S
C1080 H1093 0.962 . S
C1080 H1094 0.960 . S
C1081 C1078 1.511 . S
C1081 H1095 0.961 . S
C1081 H1096 0.961 . S
C1081 H1097 0.961 . S
C1082 C1083 1.370 . S
C1082 C1084 1.363 . S
C1082 H1098 0.931 . S
C1083 C1082 1.370 . S
C1083 C1087 1.408 . S
C1084 C1082 1.363 . S
C1084 C1085 1.370 1_556 S
C1084 C1088 1.519 1_556 S
C1085 C1077 1.503 . S
C1085 C1084 1.370 1_554 S
C1085 C1086 1.403 1_554 S
C1086 C1085 1.403 1_556 S
C1086 C1087 1.404 . S
C1086 C1089 1.539 1_556 S
C1087 C1083 1.408 . S
C1087 C1086 1.404 . S
C1087 H1099 0.930 . S
C1088 C1084 1.519 1_554 S
C1088 H1100 0.961 . S
C1088 H1101 0.969 . S
C1088 H1102 0.952 1_554 S
C1089 C1086 1.539 1_554 S
C1089 H1103 0.958 . S
C1089 H1104 0.961 . S
C1089 H1105 0.960 . S
H1090 C1074 0.931 . S
H1091 C1079 0.929 . S
H1092 C1080 0.960 . S
H1093 C1080 0.962 . S
H1094 C1080 0.960 . S
H1095 C1081 0.961 . S
H1096 C1081 0.961 . S
H1097 C1081 0.961 . S
H1098 C1082 0.931 . S
H1099 C1087 0.930 . S
H1100 C1088 0.961 . S
H1101 C1088 0.969 . S
H1102 C1088 0.952 1_556 S
H1103 C1089 0.958 . S
H1104 C1089 0.961 . S
H1105 C1089 0.960 . S
C1106 C1107 1.391 . S
C1106 C1108 1.394 . S
C1106 H1122 0.931 . S
C1107 C1106 1.391 . S
C1107 C1111 1.376 . S
C1108 C1106 1.394 . S
C1108 C1109 1.369 . S
C1108 C1112 1.531 . S
C1109 C1108 1.369 . S
C1109 C1110 1.410 . S
C1109 C1117 1.503 . S
C1110 C1109 1.410 . S
C1110 C1111 1.392 . S
C1110 C1113 1.511 . S
C1111 C1107 1.376 . S
C1111 C1110 1.392 . S
C1111 H1123 0.929 . S
C1112 C1108 1.531 . S
C1112 H1124 0.960 . S
C1112 H1125 0.962 . S
C1112 H1126 0.960 . S
C1113 C1110 1.511 . S
C1113 H1127 0.961 . S
C1113 H1128 0.961 . S
C1113 H1129 0.961 . S
C1114 C1115 1.370 . S
C1114 C1116 1.363 . S
C1114 H1130 0.931 . S
C1115 C1114 1.370 . S
C1115 C1119 1.408 . S
C1116 C1114 1.363 . S
C1116 C1117 1.370 1_556 S
C1116 C1120 1.524 1_556 S
C1117 C1109 1.503 . S
C1117 C1116 1.370 1_554 S
C1117 C1118 1.403 1_554 S
C1118 C1117 1.403 1_556 S
C1118 C1119 1.404 . S
C1118 C1121 1.537 1_556 S
C1119 C1115 1.408 . S
C1119 C1118 1.404 . S
C1119 H1131 0.930 . S
C1120 C1116 1.524 1_554 S
C1120 H1132 0.956 . S
C1120 H1133 0.961 . S
C1120 H1134 0.961 1_554 S
C1121 C1118 1.537 1_554 S
C1121 H1135 0.958 1_554 S
C1121 H1136 0.959 1_554 S
C1121 H1137 0.965 . S
H1122 C1106 0.931 . S
H1123 C1111 0.929 . S
H1124 C1112 0.960 . S
H1125 C1112 0.962 . S
H1126 C1112 0.960 . S
H1127 C1113 0.961 . S
H1128 C1113 0.961 . S
H1129 C1113 0.961 . S
H1130 C1114 0.931 . S
H1131 C1119 0.930 . S
H1132 C1120 0.956 . S
H1133 C1120 0.961 . S
H1134 C1120 0.961 1_556 S
H1135 C1121 0.958 1_556 S
H1136 C1121 0.959 1_556 S
H1137 C1121 0.965 . S
C1138 C1139 1.391 . S
C1138 C1140 1.394 . S
C1138 H1154 0.931 . S
C1139 C1138 1.391 . S
C1139 C1143 1.376 . S
C1140 C1138 1.394 . S
C1140 C1141 1.369 1_556 S
C1140 C1144 1.531 1_556 S
C1141 C1140 1.369 1_554 S
C1141 C1142 1.410 1_554 S
C1141 C1149 1.503 . S
C1142 C1141 1.410 1_556 S
C1142 C1143 1.392 . S
C1142 C1145 1.509 1_556 S
C1143 C1139 1.376 . S
C1143 C1142 1.392 . S
C1143 H1155 0.929 . S
C1144 C1140 1.531 1_554 S
C1144 H1156 0.960 . S
C1144 H1157 0.962 . S
C1144 H1158 0.960 . S
C1145 C1142 1.509 1_554 S
C1145 H1159 0.957 1_554 S
C1145 H1160 0.966 . S
C1145 H1161 0.962 . S
C1146 C1147 1.370 . S
C1146 C1148 1.363 . S
C1146 H1162 0.931 . S
C1147 C1146 1.370 . S
C1147 C1151 1.408 . S
C1148 C1146 1.363 . S
C1148 C1149 1.370 . S
C1148 C1152 1.524 . S
C1149 C1141 1.503 . S
C1149 C1148 1.370 . S
C1149 C1150 1.403 . S
C1150 C1149 1.403 . S
C1150 C1151 1.404 . S
C1150 C1153 1.539 . S
C1151 C1147 1.408 . S
C1151 C1150 1.404 . S
C1151 H1163 0.930 . S
C1152 C1148 1.524 . S
C1152 H1164 0.956 . S
C1152 H1165 0.961 . S
C1152 H1166 0.961 . S
C1153 C1150 1.539 . S
C1153 H1167 0.958 . S
C1153 H1168 0.961 . S
C1153 H1169 0.960 . S
H1154 C1138 0.931 . S
H1155 C1143 0.929 . S
H1156 C1144 0.960 . S
H1157 C1144 0.962 . S
H1158 C1144 0.960 . S
H1159 C1145 0.957 1_556 S
H1160 C1145 0.966 . S
H1161 C1145 0.962 . S
H1162 C1146 0.931 . S
H1163 C1151 0.930 . S
H1164 C1152 0.956 . S
H1165 C1152 0.961 . S
H1166 C1152 0.961 . S
H1167 C1153 0.958 . S
H1168 C1153 0.961 . S
H1169 C1153 0.960 . S
C1170 C1171 1.391 . S
C1170 C1172 1.394 . S
C1170 H1186 0.931 . S
C1171 C1170 1.391 . S
C1171 C1175 1.376 . S
C1172 C1170 1.394 . S
C1172 C1173 1.369 . S
C1172 C1176 1.531 . S
C1173 C1172 1.369 . S
C1173 C1174 1.410 . S
C1173 C1181 1.503 . S
C1174 C1173 1.410 . S
C1174 C1175 1.392 . S
C1174 C1177 1.511 . S
C1175 C1171 1.376 . S
C1175 C1174 1.392 . S
C1175 H1187 0.929 . S
C1176 C1172 1.531 . S
C1176 H1188 0.960 . S
C1176 H1189 0.962 . S
C1176 H1190 0.960 . S
C1177 C1174 1.511 . S
C1177 H1191 0.961 . S
C1177 H1192 0.961 . S
C1177 H1193 0.961 . S
C1178 C1179 1.370 . S
C1178 C1180 1.363 . S
C1178 H1194 0.931 . S
C1179 C1178 1.370 . S
C1179 C1183 1.408 . S
C1180 C1178 1.363 . S
C1180 C1181 1.370 . S
C1180 C1184 1.524 . S
C1181 C1173 1.503 . S
C1181 C1180 1.370 . S
C1181 C1182 1.403 . S
C1182 C1181 1.403 . S
C1182 C1183 1.404 . S
C1182 C1185 1.539 . S
C1183 C1179 1.408 . S
C1183 C1182 1.404 . S
C1183 H1195 0.930 . S
C1184 C1180 1.524 . S
C1184 H1196 0.956 . S
C1184 H1197 0.961 . S
C1184 H1198 0.961 . S
C1185 C1182 1.539 . S
C1185 H1199 0.958 . S
C1185 H1200 0.961 . S
C1185 H1201 0.960 . S
H1186 C1170 0.931 . S
H1187 C1175 0.929 . S
H1188 C1176 0.960 . S
H1189 C1176 0.962 . S
H1190 C1176 0.960 . S
H1191 C1177 0.961 . S
H1192 C1177 0.961 . S
H1193 C1177 0.961 . S
H1194 C1178 0.931 . S
H1195 C1183 0.930 . S
H1196 C1184 0.956 . S
H1197 C1184 0.961 . S
H1198 C1184 0.961 . S
H1199 C1185 0.958 . S
H1200 C1185 0.961 . S
H1201 C1185 0.960 . S
C1202 C1203 1.391 . S
C1202 C1204 1.394 . S
C1202 H1218 0.931 . S
C1203 C1202 1.391 . S
C1203 C1207 1.376 . S
C1204 C1202 1.394 . S
C1204 C1205 1.369 . S
C1204 C1208 1.531 . S
C1205 C1204 1.369 . S
C1205 C1206 1.410 . S
C1205 C1213 1.503 . S
C1206 C1205 1.410 . S
C1206 C1207 1.392 . S
C1206 C1209 1.511 . S
C1207 C1203 1.376 . S
C1207 C1206 1.392 . S
C1207 H1219 0.929 . S
C1208 C1204 1.531 . S
C1208 H1220 0.960 . S
C1208 H1221 0.962 . S
C1208 H1222 0.960 . S
C1209 C1206 1.511 . S
C1209 H1223 0.961 . S
C1209 H1224 0.961 . S
C1209 H1225 0.961 . S
C1210 C1211 1.370 . S
C1210 C1212 1.363 . S
C1210 H1226 0.931 . S
C1211 C1210 1.370 . S
C1211 C1215 1.408 . S
C1212 C1210 1.363 . S
C1212 C1213 1.370 . S
C1212 C1216 1.524 . S
C1213 C1205 1.503 . S
C1213 C1212 1.370 . S
C1213 C1214 1.403 . S
C1214 C1213 1.403 . S
C1214 C1215 1.404 . S
C1214 C1217 1.539 . S
C1215 C1211 1.408 . S
C1215 C1214 1.404 . S
C1215 H1227 0.930 . S
C1216 C1212 1.524 . S
C1216 H1228 0.956 . S
C1216 H1229 0.961 . S
C1216 H1230 0.961 . S
C1217 C1214 1.539 . S
C1217 H1231 0.958 . S
C1217 H1232 0.961 . S
C1217 H1233 0.960 . S
H1218 C1202 0.931 . S
H1219 C1207 0.929 . S
H1220 C1208 0.960 . S
H1221 C1208 0.962 . S
H1222 C1208 0.960 . S
H1223 C1209 0.961 . S
H1224 C1209 0.961 . S
H1225 C1209 0.961 . S
H1226 C1210 0.931 . S
H1227 C1215 0.930 . S
H1228 C1216 0.956 . S
H1229 C1216 0.961 . S
H1230 C1216 0.961 . S
H1231 C1217 0.958 . S
H1232 C1217 0.961 . S
H1233 C1217 0.960 . S
C1234 C1235 1.391 . S
C1234 C1236 1.394 . S
C1234 H1250 0.931 . S
C1235 C1234 1.391 . S
C1235 C1239 1.376 . S
C1236 C1234 1.394 . S
C1236 C1237 1.369 . S
C1236 C1240 1.531 . S
C1237 C1236 1.369 . S
C1237 C1238 1.410 . S
C1237 C1245 1.503 . S
C1238 C1237 1.410 . S
C1238 C1239 1.392 . S
C1238 C1241 1.511 . S
C1239 C1235 1.376 . S
C1239 C1238 1.392 . S
C1239 H1251 0.929 . S
C1240 C1236 1.531 . S
C1240 H1252 0.960 . S
C1240 H1253 0.962 . S
C1240 H1254 0.960 . S
C1241 C1238 1.511 . S
C1241 H1255 0.961 . S
C1241 H1256 0.961 . S
C1241 H1257 0.961 . S
C1242 C1243 1.370 . S
C1242 C1244 1.363 . S
C1242 H1258 0.931 . S
C1243 C1242 1.370 . S
C1243 C1247 1.408 . S
C1244 C1242 1.363 . S
C1244 C1245 1.370 . S
C1244 C1248 1.524 . S
C1245 C1237 1.503 . S
C1245 C1244 1.370 . S
C1245 C1246 1.403 . S
C1246 C1245 1.403 . S
C1246 C1247 1.404 . S
C1246 C1249 1.539 . S
C1247 C1243 1.408 . S
C1247 C1246 1.404 . S
C1247 H1259 0.930 . S
C1248 C1244 1.524 . S
C1248 H1260 0.956 . S
C1248 H1261 0.961 . S
C1248 H1262 0.961 . S
C1249 C1246 1.539 . S
C1249 H1263 0.958 . S
C1249 H1264 0.961 . S
C1249 H1265 0.960 . S
H1250 C1234 0.931 . S
H1251 C1239 0.929 . S
H1252 C1240 0.960 . S
H1253 C1240 0.962 . S
H1254 C1240 0.960 . S
H1255 C1241 0.961 . S
H1256 C1241 0.961 . S
H1257 C1241 0.961 . S
H1258 C1242 0.931 . S
H1259 C1247 0.930 . S
H1260 C1248 0.956 . S
H1261 C1248 0.961 . S
H1262 C1248 0.961 . S
H1263 C1249 0.958 . S
H1264 C1249 0.961 . S
H1265 C1249 0.960 . S
C1266 C1267 1.391 . S
C1266 C1268 1.394 . S
C1266 H1282 0.931 . S
C1267 C1266 1.391 . S
C1267 C1271 1.376 . S
C1268 C1266 1.394 . S
C1268 C1269 1.369 . S
C1268 C1272 1.531 . S
C1269 C1268 1.369 . S
C1269 C1270 1.410 . S
C1269 C1277 1.503 . S
C1270 C1269 1.410 . S
C1270 C1271 1.392 . S
C1270 C1273 1.511 . S
C1271 C1267 1.376 . S
C1271 C1270 1.392 . S
C1271 H1283 0.929 . S
C1272 C1268 1.531 . S
C1272 H1284 0.960 . S
C1272 H1285 0.962 . S
C1272 H1286 0.960 . S
C1273 C1270 1.511 . S
C1273 H1287 0.961 . S
C1273 H1288 0.961 . S
C1273 H1289 0.961 . S
C1274 C1275 1.370 . S
C1274 C1276 1.363 . S
C1274 H1290 0.931 . S
C1275 C1274 1.370 . S
C1275 C1279 1.408 . S
C1276 C1274 1.363 . S
C1276 C1277 1.370 . S
C1276 C1280 1.524 . S
C1277 C1269 1.503 . S
C1277 C1276 1.370 . S
C1277 C1278 1.403 . S
C1278 C1277 1.403 . S
C1278 C1279 1.404 . S
C1278 C1281 1.539 . S
C1279 C1275 1.408 . S
C1279 C1278 1.404 . S
C1279 H1291 0.930 . S
C1280 C1276 1.524 . S
C1280 H1292 0.956 . S
C1280 H1293 0.961 . S
C1280 H1294 0.961 . S
C1281 C1278 1.539 . S
C1281 H1295 0.958 . S
C1281 H1296 0.961 . S
C1281 H1297 0.960 . S
H1282 C1266 0.931 . S
H1283 C1271 0.929 . S
H1284 C1272 0.960 . S
H1285 C1272 0.962 . S
H1286 C1272 0.960 . S
H1287 C1273 0.961 . S
H1288 C1273 0.961 . S
H1289 C1273 0.961 . S
H1290 C1274 0.931 . S
H1291 C1279 0.930 . S
H1292 C1280 0.956 . S
H1293 C1280 0.961 . S
H1294 C1280 0.961 . S
H1295 C1281 0.958 . S
H1296 C1281 0.961 . S
H1297 C1281 0.960 . S
C1298 C1299 1.391 . S
C1298 C1300 1.394 . S
C1298 H1314 0.931 . S
C1299 C1298 1.391 . S
C1299 C1303 1.376 . S
C1300 C1298 1.394 . S
C1300 C1301 1.369 . S
C1300 C1304 1.531 . S
C1301 C1300 1.369 . S
C1301 C1302 1.410 . S
C1301 C1309 1.503 . S
C1302 C1301 1.410 . S
C1302 C1303 1.392 . S
C1302 C1305 1.511 . S
C1303 C1299 1.376 . S
C1303 C1302 1.392 . S
C1303 H1315 0.929 . S
C1304 C1300 1.531 . S
C1304 H1316 0.960 . S
C1304 H1317 0.962 . S
C1304 H1318 0.960 . S
C1305 C1302 1.511 . S
C1305 H1319 0.961 . S
C1305 H1320 0.961 . S
C1305 H1321 0.961 . S
C1306 C1307 1.370 . S
C1306 C1308 1.363 . S
C1306 H1322 0.931 . S
C1307 C1306 1.370 . S
C1307 C1311 1.408 . S
C1308 C1306 1.363 . S
C1308 C1309 1.370 . S
C1308 C1312 1.524 . S
C1309 C1301 1.503 . S
C1309 C1308 1.370 . S
C1309 C1310 1.403 . S
C1310 C1309 1.403 . S
C1310 C1311 1.404 . S
C1310 C1313 1.539 . S
C1311 C1307 1.408 . S
C1311 C1310 1.404 . S
C1311 H1323 0.930 . S
C1312 C1308 1.524 . S
C1312 H1324 0.956 . S
C1312 H1325 0.961 . S
C1312 H1326 0.961 . S
C1313 C1310 1.539 . S
C1313 H1327 0.958 . S
C1313 H1328 0.961 . S
C1313 H1329 0.960 . S
H1314 C1298 0.931 . S
H1315 C1303 0.929 . S
H1316 C1304 0.960 . S
H1317 C1304 0.962 . S
H1318 C1304 0.960 . S
H1319 C1305 0.961 . S
H1320 C1305 0.961 . S
H1321 C1305 0.961 . S
H1322 C1306 0.931 . S
H1323 C1311 0.930 . S
H1324 C1312 0.956 . S
H1325 C1312 0.961 . S
H1326 C1312 0.961 . S
H1327 C1313 0.958 . S
H1328 C1313 0.961 . S
H1329 C1313 0.960 . S
C1330 C1331 1.391 . S
C1330 C1332 1.394 . S
C1330 H1346 0.931 . S
C1331 C1330 1.391 . S
C1331 C1335 1.376 . S
C1332 C1330 1.394 . S
C1332 C1333 1.369 . S
C1332 C1336 1.531 . S
C1333 C1332 1.369 . S
C1333 C1334 1.410 . S
C1333 C1341 1.503 . S
C1334 C1333 1.410 . S
C1334 C1335 1.392 . S
C1334 C1337 1.511 . S
C1335 C1331 1.376 . S
C1335 C1334 1.392 . S
C1335 H1347 0.929 . S
C1336 C1332 1.531 . S
C1336 H1348 0.960 . S
C1336 H1349 0.962 . S
C1336 H1350 0.960 . S
C1337 C1334 1.511 . S
C1337 H1351 0.961 . S
C1337 H1352 0.961 . S
C1337 H1353 0.961 . S
C1338 C1339 1.370 . S
C1338 C1340 1.363 . S
C1338 H1354 0.931 . S
C1339 C1338 1.370 . S
C1339 C1343 1.408 . S
C1340 C1338 1.363 . S
C1340 C1341 1.370 . S
C1340 C1344 1.524 . S
C1341 C1333 1.503 . S
C1341 C1340 1.370 . S
C1341 C1342 1.403 . S
C1342 C1341 1.403 . S
C1342 C1343 1.404 . S
C1342 C1345 1.539 . S
C1343 C1339 1.408 . S
C1343 C1342 1.404 . S
C1343 H1355 0.930 . S
C1344 C1340 1.524 . S
C1344 H1356 0.956 . S
C1344 H1357 0.961 . S
C1344 H1358 0.961 . S
C1345 C1342 1.539 . S
C1345 H1359 0.958 . S
C1345 H1360 0.961 . S
C1345 H1361 0.960 . S
H1346 C1330 0.931 . S
H1347 C1335 0.929 . S
H1348 C1336 0.960 . S
H1349 C1336 0.962 . S
H1350 C1336 0.960 . S
H1351 C1337 0.961 . S
H1352 C1337 0.961 . S
H1353 C1337 0.961 . S
H1354 C1338 0.931 . S
H1355 C1343 0.930 . S
H1356 C1344 0.956 . S
H1357 C1344 0.961 . S
H1358 C1344 0.961 . S
H1359 C1345 0.958 . S
H1360 C1345 0.961 . S
H1361 C1345 0.960 . S
C1362 C1363 1.391 . S
C1362 C1364 1.394 . S
C1362 H1378 0.931 . S
C1363 C1362 1.391 . S
C1363 C1367 1.376 . S
C1364 C1362 1.394 . S
C1364 C1365 1.369 . S
C1364 C1368 1.531 1_655 S
C1365 C1364 1.369 . S
C1365 C1366 1.410 . S
C1365 C1373 1.503 1_654 S
C1366 C1365 1.410 . S
C1366 C1367 1.392 . S
C1366 C1369 1.511 1_554 S
C1367 C1363 1.376 . S
C1367 C1366 1.392 . S
C1367 H1379 0.929 . S
C1368 C1364 1.531 1_455 S
C1368 H1380 0.960 . S
C1368 H1381 0.962 . S
C1368 H1382 0.960 1_455 S
C1369 C1366 1.511 1_556 S
C1369 H1383 0.961 . S
C1369 H1384 0.961 . S
C1369 H1385 0.961 . S
C1370 C1371 1.370 . S
C1370 C1372 1.363 . S
C1370 H1386 0.931 . S
C1371 C1370 1.370 . S
C1371 C1375 1.408 . S
C1372 C1370 1.363 . S
C1372 C1373 1.370 . S
C1372 C1376 1.524 1_556 S
C1373 C1365 1.503 1_456 S
C1373 C1372 1.370 . S
C1373 C1374 1.403 . S
C1374 C1373 1.403 . S
C1374 C1375 1.404 . S
C1374 C1377 1.539 1_455 S
C1375 C1371 1.408 . S
C1375 C1374 1.404 . S
C1375 H1387 0.930 . S
C1376 C1372 1.524 1_554 S
C1376 H1388 0.956 . S
C1376 H1389 0.961 . S
C1376 H1390 0.961 . S
C1377 C1374 1.539 1_655 S
C1377 H1391 0.958 . S
C1377 H1392 0.961 . S
C1377 H1393 0.960 . S
H1378 C1362 0.931 . S
H1379 C1367 0.929 . S
H1380 C1368 0.960 . S
H1381 C1368 0.962 . S
H1382 C1368 0.960 1_655 S
H1383 C1369 0.961 . S
H1384 C1369 0.961 . S
H1385 C1369 0.961 . S
H1386 C1370 0.931 . S
H1387 C1375 0.930 . S
H1388 C1376 0.956 . S
H1389 C1376 0.961 . S
H1390 C1376 0.961 . S
H1391 C1377 0.958 . S
H1392 C1377 0.961 . S
H1393 C1377 0.960 . S
C1394 C1395 1.391 . S
C1394 C1396 1.394 . S
C1394 H1410 0.931 . S
C1395 C1394 1.391 . S
C1395 C1399 1.376 . S
C1396 C1394 1.394 . S
C1396 C1397 1.369 . S
C1396 C1400 1.531 1_556 S
C1397 C1396 1.369 . S
C1397 C1398 1.410 . S
C1397 C1405 1.503 1_556 S
C1398 C1397 1.410 . S
C1398 C1399 1.392 . S
C1398 C1401 1.511 . S
C1399 C1395 1.376 . S
C1399 C1398 1.392 . S
C1399 H1411 0.929 . S
C1400 C1396 1.531 1_554 S
C1400 H1412 0.960 . S
C1400 H1413 0.962 . S
C1400 H1414 0.960 . S
C1401 C1398 1.511 . S
C1401 H1415 0.961 . S
C1401 H1416 0.961 . S
C1401 H1417 0.961 . S
C1402 C1403 1.370 . S
C1402 C1404 1.363 . S
C1402 H1418 0.931 . S
C1403 C1402 1.370 . S
C1403 C1407 1.408 . S
C1404 C1402 1.363 . S
C1404 C1405 1.370 . S
C1404 C1408 1.524 . S
C1405 C1397 1.503 1_554 S
C1405 C1404 1.370 . S
C1405 C1406 1.403 . S
C1406 C1405 1.403 . S
C1406 C1407 1.404 . S
C1406 C1409 1.539 1_554 S
C1407 C1403 1.408 . S
C1407 C1406 1.404 . S
C1407 H1419 0.930 . S
C1408 C1404 1.524 . S
C1408 H1420 0.956 . S
C1408 H1421 0.961 1_554 S
C1408 H1422 0.961 . S
C1409 C1406 1.539 1_556 S
C1409 H1423 0.958 1_556 S
C1409 H1424 0.961 . S
C1409 H1425 0.960 . S
H1410 C1394 0.931 . S
H1411 C1399 0.929 . S
H1412 C1400 0.960 . S
H1413 C1400 0.962 . S
H1414 C1400 0.960 . S
H1415 C1401 0.961 . S
H1416 C1401 0.961 . S
H1417 C1401 0.961 . S
H1418 C1402 0.931 . S
H1419 C1407 0.930 . S
H1420 C1408 0.956 . S
H1421 C1408 0.961 1_556 S
H1422 C1408 0.961 . S
H1423 C1409 0.958 1_554 S
H1424 C1409 0.961 . S
H1425 C1409 0.960 . S
C1426 C1427 1.391 . S
C1426 C1428 1.394 . S
C1426 H1442 0.931 . S
C1427 C1426 1.391 . S
C1427 C1431 1.376 . S
C1428 C1426 1.394 . S
C1428 C1429 1.369 . S
C1428 C1432 1.531 . S
C1429 C1428 1.369 . S
C1429 C1430 1.410 . S
C1429 C1437 1.503 1_544 S
C1430 C1429 1.410 . S
C1430 C1431 1.392 . S
C1430 C1433 1.511 . S
C1431 C1427 1.376 . S
C1431 C1430 1.392 . S
C1431 H1443 0.929 . S
C1432 C1428 1.531 . S
C1432 H1444 0.960 1_554 S
C1432 H1445 0.995 . S
C1432 H1446 0.960 . S
C1433 C1430 1.511 . S
C1433 H1447 0.961 . S
C1433 H1448 0.959 1_544 S
C1433 H1449 0.961 1_554 S
C1434 C1435 1.370 . S
C1434 C1436 1.363 . S
C1434 H1450 0.931 . S
C1435 C1434 1.370 . S
C1435 C1439 1.408 . S
C1436 C1434 1.363 . S
C1436 C1437 1.370 . S
C1436 C1440 1.524 1_556 S
C1437 C1429 1.503 1_566 S
C1437 C1436 1.370 . S
C1437 C1438 1.403 . S
C1438 C1437 1.403 . S
C1438 C1439 1.404 . S
C1438 C1441 1.539 1_565 S
C1439 C1435 1.408 . S
C1439 C1438 1.404 . S
C1439 H1451 0.930 . S
C1440 C1436 1.524 1_554 S
C1440 H1452 0.956 . S
C1440 H1453 0.961 . S
C1440 H1454 0.961 . S
C1441 C1438 1.539 1_545 S
C1441 H1455 0.958 . S
C1441 H1456 0.961 . S
C1441 H1457 0.960 . S
H1442 C1426 0.931 . S
H1443 C1431 0.929 . S
H1444 C1432 0.960 1_556 S
H1445 C1432 0.995 . S
H1446 C1432 0.960 . S
H1447 C1433 0.961 . S
H1448 C1433 0.959 1_566 S
H1449 C1433 0.961 1_556 S
H1450 C1434 0.931 . S
H1451 C1439 0.930 . S
H1452 C1440 0.956 . S
H1453 C1440 0.961 . S
H1454 C1440 0.961 . S
H1455 C1441 0.958 . S
H1456 C1441 0.961 . S
H1457 C1441 0.960 . S
C1458 C1459 1.391 . S
C1458 C1460 1.394 . S
C1458 H1474 0.931 . S
C1459 C1458 1.391 . S
C1459 C1463 1.376 . S
C1460 C1458 1.394 . S
C1460 C1461 1.369 . S
C1460 C1464 1.531 . S
C1461 C1460 1.369 . S
C1461 C1462 1.410 . S
C1461 C1469 1.502 1_554 S
C1462 C1461 1.410 . S
C1462 C1463 1.392 . S
C1462 C1465 1.511 1_554 S
C1463 C1459 1.376 . S
C1463 C1462 1.392 . S
C1463 H1475 0.929 . S
C1464 C1460 1.531 . S
C1464 H1476 0.960 . S
C1464 H1477 0.962 . S
C1464 H1478 0.960 . S
C1465 C1462 1.511 1_556 S
C1465 H1479 0.961 . S
C1465 H1480 0.961 . S
C1465 H1481 0.961 1_556 S
C1466 C1467 1.370 . S
C1466 C1468 1.363 . S
C1466 H1482 0.931 . S
C1467 C1466 1.370 . S
C1467 C1471 1.408 1_556 S
C1468 C1466 1.363 . S
C1468 C1469 1.375 . S
C1468 C1472 1.524 . S
C1469 C1461 1.502 1_556 S
C1469 C1468 1.375 . S
C1469 C1470 1.400 1_556 S
C1470 C1469 1.400 1_554 S
C1470 C1471 1.404 . S
C1470 C1473 1.539 . S
C1471 C1467 1.408 1_554 S
C1471 C1470 1.404 . S
C1471 H1483 0.930 . S
C1472 C1468 1.524 . S
C1472 H1484 0.956 . S
C1472 H1485 0.961 . S
C1472 H1486 0.961 . S
C1473 C1470 1.539 . S
C1473 H1487 0.958 . S
C1473 H1488 0.961 . S
C1473 H1489 0.960 . S
H1474 C1458 0.931 . S
H1475 C1463 0.929 . S
H1476 C1464 0.960 . S
H1477 C1464 0.962 . S
H1478 C1464 0.960 . S
H1479 C1465 0.961 . S
H1480 C1465 0.961 . S
H1481 C1465 0.961 1_554 S
H1482 C1466 0.931 . S
H1483 C1471 0.930 . S
H1484 C1472 0.956 . S
H1485 C1472 0.961 . S
H1486 C1472 0.961 . S
H1487 C1473 0.958 . S
H1488 C1473 0.961 . S
H1489 C1473 0.960 . S
C1490 C1491 1.391 . S
C1490 C1492 1.394 1_554 S
C1490 H1506 0.931 1_554 S
C1491 C1490 1.391 . S
C1491 C1495 1.376 . S
C1492 C1490 1.394 1_556 S
C1492 C1493 1.369 . S
C1492 C1496 1.531 . S
C1493 C1492 1.369 . S
C1493 C1494 1.410 1_556 S
C1493 C1501 1.503 1_565 S
C1494 C1493 1.410 1_554 S
C1494 C1495 1.392 . S
C1494 C1497 1.511 . S
C1495 C1491 1.376 . S
C1495 C1494 1.392 . S
C1495 H1507 0.929 . S
C1496 C1492 1.531 . S
C1496 H1508 0.960 . S
C1496 H1509 0.962 . S
C1496 H1510 0.960 . S
C1497 C1494 1.511 . S
C1497 H1511 0.961 . S
C1497 H1512 0.961 1_565 S
C1497 H1513 0.961 . S
C1498 C1499 1.370 1_554 S
C1498 C1500 1.363 . S
C1498 H1514 0.931 . S
C1499 C1498 1.370 1_556 S
C1499 C1503 1.408 . S
C1500 C1498 1.363 . S
C1500 C1501 1.370 1_554 S
C1500 C1504 1.524 . S
C1501 C1493 1.503 1_545 S
C1501 C1500 1.370 1_556 S
C1501 C1502 1.403 . S
C1502 C1501 1.403 . S
C1502 C1503 1.404 . S
C1502 C1505 1.539 . S
C1503 C1499 1.408 . S
C1503 C1502 1.404 . S
C1503 H1515 0.930 . S
C1504 C1500 1.524 . S
C1504 H1516 0.956 . S
C1504 H1517 0.961 . S
C1504 H1518 0.961 . S
C1505 C1502 1.539 . S
C1505 H1519 0.958 1_545 S
C1505 H1520 0.961 . S
C1505 H1521 0.960 1_545 S
H1506 C1490 0.931 1_556 S
H1507 C1495 0.929 . S
H1508 C1496 0.960 . S
H1509 C1496 0.962 . S
H1510 C1496 0.960 . S
H1511 C1497 0.961 . S
H1512 C1497 0.961 1_545 S
H1513 C1497 0.961 . S
H1514 C1498 0.931 . S
H1515 C1503 0.930 . S
H1516 C1504 0.956 . S
H1517 C1504 0.961 . S
H1518 C1504 0.961 . S
H1519 C1505 0.958 1_565 S
H1520 C1505 0.961 . S
H1521 C1505 0.960 1_565 S
C1522 C1523 1.391 . S
C1522 C1524 1.394 . S
C1522 H1538 0.931 . S
C1523 C1522 1.391 . S
C1523 C1527 1.376 . S
C1524 C1522 1.394 . S
C1524 C1525 1.369 . S
C1524 C1528 1.531 . S
C1525 C1524 1.369 . S
C1525 C1526 1.410 . S
C1525 C1533 1.504 1_655 S
C1526 C1525 1.410 . S
C1526 C1527 1.392 . S
C1526 C1529 1.511 . S
C1527 C1523 1.376 . S
C1527 C1526 1.392 . S
C1527 H1539 0.929 . S
C1528 C1524 1.531 . S
C1528 H1540 0.960 1_655 S
C1528 H1541 0.962 1_556 S
C1528 H1542 0.960 . S
C1529 C1526 1.511 . S
C1529 H1543 0.961 . S
C1529 H1544 0.913 1_656 S
C1529 H1545 0.961 . S
C1530 C1531 1.370 . S
C1530 C1532 1.363 . S
C1530 H1546 0.931 . S
C1531 C1530 1.370 . S
C1531 C1535 1.408 1_554 S
C1532 C1530 1.363 . S
C1532 C1533 1.367 1_554 S
C1532 C1536 1.524 1_455 S
C1533 C1525 1.504 1_455 S
C1533 C1532 1.367 1_556 S
C1533 C1534 1.404 . S
C1534 C1533 1.404 . S
C1534 C1535 1.404 . S
C1534 C1537 1.539 . S
C1535 C1531 1.408 1_556 S
C1535 C1534 1.404 . S
C1535 H1547 0.930 . S
C1536 C1532 1.524 1_655 S
C1536 H1548 0.956 . S
C1536 H1549 0.961 . S
C1536 H1550 0.961 1_655 S
C1537 C1534 1.539 . S
C1537 H1551 0.958 . S
C1537 H1552 0.961 . S
C1537 H1553 0.960 . S
H1538 C1522 0.931 . S
H1539 C1527 0.929 . S
H1540 C1528 0.960 1_455 S
H1541 C1528 0.962 1_554 S
H1542 C1528 0.960 . S
H1543 C1529 0.961 . S
H1544 C1529 0.913 1_454 S
H1545 C1529 0.961 . S
H1546 C1530 0.931 . S
H1547 C1535 0.930 . S
H1548 C1536 0.956 . S
H1549 C1536 0.961 . S
H1550 C1536 0.961 1_455 S
H1551 C1537 0.958 . S
H1552 C1537 0.961 . S
H1553 C1537 0.960 . S
C1554 C1555 1.391 . S
C1554 C1556 1.394 . S
C1554 H1570 0.931 . S
C1555 C1554 1.391 . S
C1555 C1559 1.376 . S
C1556 C1554 1.394 . S
C1556 C1557 1.369 . S
C1556 C1560 1.531 . S
C1557 C1556 1.369 . S
C1557 C1558 1.410 . S
C1557 C1565 1.503 1_556 S
C1558 C1557 1.410 . S
C1558 C1559 1.392 . S
C1558 C1561 1.511 1_556 S
C1559 C1555 1.376 . S
C1559 C1558 1.392 . S
C1559 H1571 0.929 . S
C1560 C1556 1.531 . S
C1560 H1572 0.960 . S
C1560 H1573 0.962 . S
C1560 H1574 0.960 . S
C1561 C1558 1.511 1_554 S
C1561 H1575 0.961 . S
C1561 H1576 0.961 . S
C1561 H1577 0.961 1_554 S
C1562 C1563 1.370 . S
C1562 C1564 1.363 . S
C1562 H1578 0.931 . S
C1563 C1562 1.370 . S
C1563 C1567 1.408 1_554 S
C1564 C1562 1.363 . S
C1564 C1565 1.370 . S
C1564 C1568 1.524 . S
C1565 C1557 1.503 1_554 S
C1565 C1564 1.370 . S
C1565 C1566 1.403 1_554 S
C1566 C1565 1.403 1_556 S
C1566 C1567 1.404 . S
C1566 C1569 1.539 . S
C1567 C1563 1.408 1_556 S
C1567 C1566 1.404 . S
C1567 H1579 0.930 . S
C1568 C1564 1.524 . S
C1568 H1580 0.956 . S
C1568 H1581 0.961 . S
C1568 H1582 0.961 . S
C1569 C1566 1.539 . S
C1569 H1583 0.958 . S
C1569 H1584 0.961 . S
C1569 H1585 0.960 . S
H1570 C1554 0.931 . S
H1571 C1559 0.929 . S
H1572 C1560 0.960 . S
H1573 C1560 0.962 . S
H1574 C1560 0.960 . S
H1575 C1561 0.961 . S
H1576 C1561 0.961 . S
H1577 C1561 0.961 1_556 S
H1578 C1562 0.931 . S
H1579 C1567 0.930 . S
H1580 C1568 0.956 . S
H1581 C1568 0.961 . S
H1582 C1568 0.961 . S
H1583 C1569 0.958 . S
H1584 C1569 0.961 . S
H1585 C1569 0.960 . S
C1586 C1587 1.391 . S
C1586 C1588 1.394 . S
C1586 H1602 0.931 . S
C1587 C1586 1.391 . S
C1587 C1591 1.376 . S
C1588 C1586 1.394 . S
C1588 C1589 1.369 . S
C1588 C1592 1.531 . S
C1589 C1588 1.369 . S
C1589 C1590 1.410 . S
C1589 C1597 1.503 1_546 S
C1590 C1589 1.410 . S
C1590 C1591 1.392 . S
C1590 C1593 1.511 1_556 S
C1591 C1587 1.376 . S
C1591 C1590 1.392 . S
C1591 H1603 0.929 . S
C1592 C1588 1.531 . S
C1592 H1604 0.960 1_545 S
C1592 H1605 0.962 . S
C1592 H1606 0.960 . S
C1593 C1590 1.511 1_554 S
C1593 H1607 0.961 . S
C1593 H1608 0.961 . S
C1593 H1609 0.961 . S
C1594 C1595 1.370 . S
C1594 C1596 1.363 . S
C1594 H1610 0.931 . S
C1595 C1594 1.370 . S
C1595 C1599 1.408 1_554 S
C1596 C1594 1.363 . S
C1596 C1597 1.370 . S
C1596 C1600 1.466 1_565 S
C1597 C1589 1.503 1_564 S
C1597 C1596 1.370 . S
C1597 C1598 1.403 1_554 S
C1598 C1597 1.403 1_556 S
C1598 C1599 1.404 . S
C1598 C1601 1.539 . S
C1599 C1595 1.408 1_556 S
C1599 C1598 1.404 . S
C1599 H1611 0.930 . S
C1600 C1596 1.466 1_545 S
C1600 H1612 1.003 . S
C1600 H1613 0.984 . S
C1600 H1614 0.954 1_545 S
C1601 C1598 1.539 . S
C1601 H1615 0.958 . S
C1601 H1616 0.961 . S
C1601 H1617 0.960 . S
H1602 C1586 0.931 . S
H1603 C1591 0.929 . S
H1604 C1592 0.960 1_565 S
H1605 C1592 0.962 . S
H1606 C1592 0.960 . S
H1607 C1593 0.961 . S
H1608 C1593 0.961 . S
H1609 C1593 0.961 . S
H1610 C1594 0.931 . S
H1611 C1599 0.930 . S
H1612 C1600 1.003 . S
H1613 C1600 0.984 . S
H1614 C1600 0.954 1_565 S
H1615 C1601 0.958 . S
H1616 C1601 0.961 . S
H1617 C1601 0.960 . S
C1618 C1619 1.391 . S
C1618 C1620 1.394 . S
C1618 H1634 0.931 . S
C1619 C1618 1.391 . S
C1619 C1623 1.376 . S
C1620 C1618 1.394 . S
C1620 C1621 1.369 . S
C1620 C1624 1.531 . S
C1621 C1620 1.369 . S
C1621 C1622 1.410 . S
C1621 C1629 1.503 1_656 S
C1622 C1621 1.410 . S
C1622 C1623 1.392 . S
C1622 C1625 1.511 1_556 S
C1623 C1619 1.376 . S
C1623 C1622 1.392 . S
C1623 H1635 0.929 . S
C1624 C1620 1.531 . S
C1624 H1636 0.960 1_655 S
C1624 H1637 0.962 . S
C1624 H1638 0.960 . S
C1625 C1622 1.511 1_554 S
C1625 H1639 0.961 . S
C1625 H1640 0.961 . S
C1625 H1641 0.961 . S
C1626 C1627 1.370 . S
C1626 C1628 1.363 . S
C1626 H1642 0.931 . S
C1627 C1626 1.370 . S
C1627 C1631 1.408 1_554 S
C1628 C1626 1.363 . S
C1628 C1629 1.370 . S
C1628 C1632 1.524 1_455 S
C1629 C1621 1.503 1_454 S
C1629 C1628 1.370 . S
C1629 C1630 1.403 1_554 S
C1630 C1629 1.403 1_556 S
C1630 C1631 1.404 . S
C1630 C1633 1.539 . S
C1631 C1627 1.408 1_556 S
C1631 C1630 1.404 . S
C1631 H1643 0.930 . S
C1632 C1628 1.524 1_655 S
C1632 H1644 0.956 . S
C1632 H1645 0.961 . S
C1632 H1646 0.961 1_655 S
C1633 C1630 1.539 . S
C1633 H1647 0.958 . S
C1633 H1648 0.961 . S
C1633 H1649 0.960 . S
H1634 C1618 0.931 . S
H1635 C1623 0.929 . S
H1636 C1624 0.960 1_455 S
H1637 C1624 0.962 . S
H1638 C1624 0.960 . S
H1639 C1625 0.961 . S
H1640 C1625 0.961 . S
H1641 C1625 0.961 . S
H1642 C1626 0.931 . S
H1643 C1631 0.930 . S
H1644 C1632 0.956 . S
H1645 C1632 0.961 . S
H1646 C1632 0.961 1_455 S
H1647 C1633 0.958 . S
H1648 C1633 0.961 . S
H1649 C1633 0.960 . S
C1650 C1651 1.391 . S
C1650 C1652 1.394 . S
C1650 H1666 0.931 . S
C1651 C1650 1.391 . S
C1651 C1655 1.376 . S
C1652 C1650 1.394 . S
C1652 C1653 1.369 . S
C1652 C1656 1.531 . S
C1653 C1652 1.369 . S
C1653 C1654 1.410 . S
C1653 C1661 1.503 . S
C1654 C1653 1.410 . S
C1654 C1655 1.392 . S
C1654 C1657 1.511 . S
C1655 C1651 1.376 . S
C1655 C1654 1.392 . S
C1655 H1667 0.929 . S
C1656 C1652 1.531 . S
C1656 H1668 0.960 . S
C1656 H1669 0.962 . S
C1656 H1670 0.960 . S
C1657 C1654 1.511 . S
C1657 H1671 0.961 . S
C1657 H1672 0.961 . S
C1657 H1673 0.961 . S
C1658 C1659 1.370 . S
C1658 C1660 1.363 . S
C1658 H1674 0.931 . S
C1659 C1658 1.370 . S
C1659 C1663 1.408 . S
C1660 C1658 1.363 . S
C1660 C1661 1.370 . S
C1660 C1664 1.524 . S
C1661 C1653 1.503 . S
C1661 C1660 1.370 . S
C1661 C1662 1.403 . S
C1662 C1661 1.403 . S
C1662 C1663 1.404 . S
C1662 C1665 1.539 . S
C1663 C1659 1.408 . S
C1663 C1662 1.404 . S
C1663 H1675 0.930 . S
C1664 C1660 1.524 . S
C1664 H1676 0.956 . S
C1664 H1677 0.961 . S
C1664 H1678 0.961 . S
C1665 C1662 1.539 . S
C1665 H1679 0.958 . S
C1665 H1680 0.961 . S
C1665 H1681 0.960 . S
H1666 C1650 0.931 . S
H1667 C1655 0.929 . S
H1668 C1656 0.960 . S
H1669 C1656 0.962 . S
H1670 C1656 0.960 . S
H1671 C1657 0.961 . S
H1672 C1657 0.961 . S
H1673 C1657 0.961 . S
H1674 C1658 0.931 . S
H1675 C1663 0.930 . S
H1676 C1664 0.956 . S
H1677 C1664 0.961 . S
H1678 C1664 0.961 . S
H1679 C1665 0.958 . S
H1680 C1665 0.961 . S
H1681 C1665 0.960 . S
C1682 C1683 1.391 . S
C1682 C1684 1.394 . S
C1682 H1698 0.931 . S
C1683 C1682 1.391 . S
C1683 C1687 1.376 . S
C1684 C1682 1.394 . S
C1684 C1685 1.369 . S
C1684 C1688 1.531 . S
C1685 C1684 1.369 . S
C1685 C1686 1.410 . S
C1685 C1693 1.503 . S
C1686 C1685 1.410 . S
C1686 C1687 1.392 . S
C1686 C1689 1.511 . S
C1687 C1683 1.376 . S
C1687 C1686 1.392 . S
C1687 H1699 0.929 . S
C1688 C1684 1.531 . S
C1688 H1700 0.960 . S
C1688 H1701 0.962 . S
C1688 H1702 0.960 . S
C1689 C1686 1.511 . S
C1689 H1703 0.961 . S
C1689 H1704 0.961 . S
C1689 H1705 0.961 . S
C1690 C1691 1.370 . S
C1690 C1692 1.363 . S
C1690 H1706 0.931 . S
C1691 C1690 1.370 . S
C1691 C1695 1.408 . S
C1692 C1690 1.363 . S
C1692 C1693 1.370 . S
C1692 C1696 1.524 . S
C1693 C1685 1.503 . S
C1693 C1692 1.370 . S
C1693 C1694 1.403 . S
C1694 C1693 1.403 . S
C1694 C1695 1.404 . S
C1694 C1697 1.539 . S
C1695 C1691 1.408 . S
C1695 C1694 1.404 . S
C1695 H1707 0.930 . S
C1696 C1692 1.524 . S
C1696 H1708 0.956 . S
C1696 H1709 0.961 . S
C1696 H1710 0.961 . S
C1697 C1694 1.539 . S
C1697 H1711 0.958 . S
C1697 H1712 0.961 . S
C1697 H1713 0.960 . S
H1698 C1682 0.931 . S
H1699 C1687 0.929 . S
H1700 C1688 0.960 . S
H1701 C1688 0.962 . S
H1702 C1688 0.960 . S
H1703 C1689 0.961 . S
H1704 C1689 0.961 . S
H1705 C1689 0.961 . S
H1706 C1690 0.931 . S
H1707 C1695 0.930 . S
H1708 C1696 0.956 . S
H1709 C1696 0.961 . S
H1710 C1696 0.961 . S
H1711 C1697 0.958 . S
H1712 C1697 0.961 . S
H1713 C1697 0.960 . S
C1714 C1715 1.391 . S
C1714 C1716 1.394 . S
C1714 H1730 0.931 . S
C1715 C1714 1.391 . S
C1715 C1719 1.376 . S
C1716 C1714 1.394 . S
C1716 C1717 1.369 . S
C1716 C1720 1.531 . S
C1717 C1716 1.369 . S
C1717 C1718 1.410 . S
C1717 C1725 1.503 . S
C1718 C1717 1.410 . S
C1718 C1719 1.392 . S
C1718 C1721 1.511 . S
C1719 C1715 1.376 . S
C1719 C1718 1.392 . S
C1719 H1731 0.929 . S
C1720 C1716 1.531 . S
C1720 H1732 0.960 . S
C1720 H1733 0.962 . S
C1720 H1734 0.960 . S
C1721 C1718 1.511 . S
C1721 H1735 0.961 . S
C1721 H1736 0.961 . S
C1721 H1737 0.961 . S
C1722 C1723 1.370 . S
C1722 C1724 1.363 . S
C1722 H1738 0.931 . S
C1723 C1722 1.370 . S
C1723 C1727 1.408 . S
C1724 C1722 1.363 . S
C1724 C1725 1.370 . S
C1724 C1728 1.524 . S
C1725 C1717 1.503 . S
C1725 C1724 1.370 . S
C1725 C1726 1.403 . S
C1726 C1725 1.403 . S
C1726 C1727 1.404 . S
C1726 C1729 1.539 . S
C1727 C1723 1.408 . S
C1727 C1726 1.404 . S
C1727 H1739 0.930 . S
C1728 C1724 1.524 . S
C1728 H1740 0.956 . S
C1728 H1741 0.961 . S
C1728 H1742 0.961 . S
C1729 C1726 1.539 . S
C1729 H1743 0.958 . S
C1729 H1744 0.961 . S
C1729 H1745 0.960 . S
H1730 C1714 0.931 . S
H1731 C1719 0.929 . S
H1732 C1720 0.960 . S
H1733 C1720 0.962 . S
H1734 C1720 0.960 . S
H1735 C1721 0.961 . S
H1736 C1721 0.961 . S
H1737 C1721 0.961 . S
H1738 C1722 0.931 . S
H1739 C1727 0.930 . S
H1740 C1728 0.956 . S
H1741 C1728 0.961 . S
H1742 C1728 0.961 . S
H1743 C1729 0.958 . S
H1744 C1729 0.961 . S
H1745 C1729 0.960 . S
C1746 C1747 1.391 . S
C1746 C1748 1.394 . S
C1746 H1762 0.931 . S
C1747 C1746 1.391 . S
C1747 C1751 1.376 . S
C1748 C1746 1.394 . S
C1748 C1749 1.369 . S
C1748 C1752 1.531 . S
C1749 C1748 1.369 . S
C1749 C1750 1.410 . S
C1749 C1757 1.503 . S
C1750 C1749 1.410 . S
C1750 C1751 1.392 . S
C1750 C1753 1.511 . S
C1751 C1747 1.376 . S
C1751 C1750 1.392 . S
C1751 H1763 0.929 . S
C1752 C1748 1.531 . S
C1752 H1764 0.960 . S
C1752 H1765 0.962 . S
C1752 H1766 0.960 . S
C1753 C1750 1.511 . S
C1753 H1767 0.961 . S
C1753 H1768 0.961 . S
C1753 H1769 0.961 . S
C1754 C1755 1.370 . S
C1754 C1756 1.363 . S
C1754 H1770 0.931 . S
C1755 C1754 1.370 . S
C1755 C1759 1.408 . S
C1756 C1754 1.363 . S
C1756 C1757 1.370 . S
C1756 C1760 1.524 . S
C1757 C1749 1.503 . S
C1757 C1756 1.370 . S
C1757 C1758 1.403 . S
C1758 C1757 1.403 . S
C1758 C1759 1.404 . S
C1758 C1761 1.539 . S
C1759 C1755 1.408 . S
C1759 C1758 1.404 . S
C1759 H1771 0.930 . S
C1760 C1756 1.524 . S
C1760 H1772 0.956 . S
C1760 H1773 0.961 . S
C1760 H1774 0.961 . S
C1761 C1758 1.539 . S
C1761 H1775 0.958 . S
C1761 H1776 0.961 . S
C1761 H1777 0.960 . S
H1762 C1746 0.931 . S
H1763 C1751 0.929 . S
H1764 C1752 0.960 . S
H1765 C1752 0.962 . S
H1766 C1752 0.960 . S
H1767 C1753 0.961 . S
H1768 C1753 0.961 . S
H1769 C1753 0.961 . S
H1770 C1754 0.931 . S
H1771 C1759 0.930 . S
H1772 C1760 0.956 . S
H1773 C1760 0.961 . S
H1774 C1760 0.961 . S
H1775 C1761 0.958 . S
H1776 C1761 0.961 . S
H1777 C1761 0.960 . S
C1778 C1779 1.391 . S
C1778 C1780 1.394 . S
C1778 H1794 0.931 . S
C1779 C1778 1.391 . S
C1779 C1783 1.376 . S
C1780 C1778 1.394 . S
C1780 C1781 1.369 . S
C1780 C1784 1.531 . S
C1781 C1780 1.369 . S
C1781 C1782 1.410 . S
C1781 C1789 1.503 . S
C1782 C1781 1.410 . S
C1782 C1783 1.392 . S
C1782 C1785 1.511 . S
C1783 C1779 1.376 . S
C1783 C1782 1.392 . S
C1783 H1795 0.929 . S
C1784 C1780 1.531 . S
C1784 H1796 0.960 . S
C1784 H1797 0.962 . S
C1784 H1798 0.960 . S
C1785 C1782 1.511 . S
C1785 H1799 0.961 . S
C1785 H1800 0.961 . S
C1785 H1801 0.961 . S
C1786 C1787 1.370 . S
C1786 C1788 1.363 . S
C1786 H1802 0.931 . S
C1787 C1786 1.370 . S
C1787 C1791 1.408 . S
C1788 C1786 1.363 . S
C1788 C1789 1.370 . S
C1788 C1792 1.524 . S
C1789 C1781 1.503 . S
C1789 C1788 1.370 . S
C1789 C1790 1.403 . S
C1790 C1789 1.403 . S
C1790 C1791 1.404 . S
C1790 C1793 1.539 . S
C1791 C1787 1.408 . S
C1791 C1790 1.404 . S
C1791 H1803 0.930 . S
C1792 C1788 1.524 . S
C1792 H1804 0.956 . S
C1792 H1805 0.961 . S
C1792 H1806 0.961 . S
C1793 C1790 1.539 . S
C1793 H1807 0.958 . S
C1793 H1808 0.961 . S
C1793 H1809 0.960 . S
H1794 C1778 0.931 . S
H1795 C1783 0.929 . S
H1796 C1784 0.960 . S
H1797 C1784 0.962 . S
H1798 C1784 0.960 . S
H1799 C1785 0.961 . S
H1800 C1785 0.961 . S
H1801 C1785 0.961 . S
H1802 C1786 0.931 . S
H1803 C1791 0.930 . S
H1804 C1792 0.956 . S
H1805 C1792 0.961 . S
H1806 C1792 0.961 . S
H1807 C1793 0.958 . S
H1808 C1793 0.961 . S
H1809 C1793 0.960 . S
C1810 C1811 1.391 . S
C1810 C1812 1.394 . S
C1810 H1826 0.931 . S
C1811 C1810 1.391 . S
C1811 C1815 1.376 . S
C1812 C1810 1.394 . S
C1812 C1813 1.369 . S
C1812 C1816 1.531 . S
C1813 C1812 1.369 . S
C1813 C1814 1.410 . S
C1813 C1821 1.503 . S
C1814 C1813 1.410 . S
C1814 C1815 1.392 . S
C1814 C1817 1.511 . S
C1815 C1811 1.376 . S
C1815 C1814 1.392 . S
C1815 H1827 0.929 . S
C1816 C1812 1.531 . S
C1816 H1828 0.960 . S
C1816 H1829 0.962 . S
C1816 H1830 0.960 . S
C1817 C1814 1.511 . S
C1817 H1831 0.961 . S
C1817 H1832 0.961 . S
C1817 H1833 0.961 . S
C1818 C1819 1.370 . S
C1818 C1820 1.363 . S
C1818 H1834 0.931 . S
C1819 C1818 1.370 . S
C1819 C1823 1.408 . S
C1820 C1818 1.363 . S
C1820 C1821 1.370 . S
C1820 C1824 1.524 . S
C1821 C1813 1.503 . S
C1821 C1820 1.370 . S
C1821 C1822 1.403 . S
C1822 C1821 1.403 . S
C1822 C1823 1.404 . S
C1822 C1825 1.539 . S
C1823 C1819 1.408 . S
C1823 C1822 1.404 . S
C1823 H1835 0.930 . S
C1824 C1820 1.524 . S
C1824 H1836 0.956 . S
C1824 H1837 0.961 . S
C1824 H1838 0.961 . S
C1825 C1822 1.539 . S
C1825 H1839 0.958 . S
C1825 H1840 0.961 . S
C1825 H1841 0.960 . S
H1826 C1810 0.931 . S
H1827 C1815 0.929 . S
H1828 C1816 0.960 . S
H1829 C1816 0.962 . S
H1830 C1816 0.960 . S
H1831 C1817 0.961 . S
H1832 C1817 0.961 . S
H1833 C1817 0.961 . S
H1834 C1818 0.931 . S
H1835 C1823 0.930 . S
H1836 C1824 0.956 . S
H1837 C1824 0.961 . S
H1838 C1824 0.961 . S
H1839 C1825 0.958 . S
H1840 C1825 0.961 . S
H1841 C1825 0.960 . S
C1842 C1843 1.391 . S
C1842 C1844 1.394 . S
C1842 H1858 0.931 . S
C1843 C1842 1.391 . S
C1843 C1847 1.376 . S
C1844 C1842 1.394 . S
C1844 C1845 1.369 . S
C1844 C1848 1.531 . S
C1845 C1844 1.369 . S
C1845 C1846 1.410 . S
C1845 C1853 1.503 . S
C1846 C1845 1.410 . S
C1846 C1847 1.392 . S
C1846 C1849 1.511 . S
C1847 C1843 1.376 . S
C1847 C1846 1.392 . S
C1847 H1859 0.929 . S
C1848 C1844 1.531 . S
C1848 H1860 0.960 . S
C1848 H1861 0.962 . S
C1848 H1862 0.960 . S
C1849 C1846 1.511 . S
C1849 H1863 0.961 . S
C1849 H1864 0.961 . S
C1849 H1865 0.961 . S
C1850 C1851 1.370 . S
C1850 C1852 1.363 . S
C1850 H1866 0.931 . S
C1851 C1850 1.370 . S
C1851 C1855 1.408 . S
C1852 C1850 1.363 . S
C1852 C1853 1.370 . S
C1852 C1856 1.524 . S
C1853 C1845 1.503 . S
C1853 C1852 1.370 . S
C1853 C1854 1.403 . S
C1854 C1853 1.403 . S
C1854 C1855 1.404 . S
C1854 C1857 1.539 . S
C1855 C1851 1.408 . S
C1855 C1854 1.404 . S
C1855 H1867 0.930 . S
C1856 C1852 1.524 . S
C1856 H1868 0.956 . S
C1856 H1869 0.961 . S
C1856 H1870 0.961 . S
C1857 C1854 1.539 . S
C1857 H1871 0.958 . S
C1857 H1872 0.961 . S
C1857 H1873 0.960 . S
H1858 C1842 0.931 . S
H1859 C1847 0.929 . S
H1860 C1848 0.960 . S
H1861 C1848 0.962 . S
H1862 C1848 0.960 . S
H1863 C1849 0.961 . S
H1864 C1849 0.961 . S
H1865 C1849 0.961 . S
H1866 C1850 0.931 . S
H1867 C1855 0.930 . S
H1868 C1856 0.956 . S
H1869 C1856 0.961 . S
H1870 C1856 0.961 . S
H1871 C1857 0.958 . S
H1872 C1857 0.961 . S
H1873 C1857 0.960 . S
C1874 C1875 1.391 . S
C1874 C1876 1.394 . S
C1874 H1890 0.931 . S
C1875 C1874 1.391 . S
C1875 C1879 1.376 . S
C1876 C1874 1.394 . S
C1876 C1877 1.369 . S
C1876 C1880 1.531 . S
C1877 C1876 1.369 . S
C1877 C1878 1.410 . S
C1877 C1885 1.503 . S
C1878 C1877 1.410 . S
C1878 C1879 1.392 . S
C1878 C1881 1.511 . S
C1879 C1875 1.376 . S
C1879 C1878 1.392 . S
C1879 H1891 0.929 . S
C1880 C1876 1.531 . S
C1880 H1892 0.960 . S
C1880 H1893 0.962 . S
C1880 H1894 0.960 . S
C1881 C1878 1.511 . S
C1881 H1895 0.961 . S
C1881 H1896 0.961 . S
C1881 H1897 0.961 . S
C1882 C1883 1.370 . S
C1882 C1884 1.363 . S
C1882 H1898 0.931 . S
C1883 C1882 1.370 . S
C1883 C1887 1.408 . S
C1884 C1882 1.363 . S
C1884 C1885 1.370 . S
C1884 C1888 1.524 . S
C1885 C1877 1.503 . S
C1885 C1884 1.370 . S
C1885 C1886 1.403 . S
C1886 C1885 1.403 . S
C1886 C1887 1.404 . S
C1886 C1889 1.539 . S
C1887 C1883 1.408 . S
C1887 C1886 1.404 . S
C1887 H1899 0.930 . S
C1888 C1884 1.524 . S
C1888 H1900 0.956 . S
C1888 H1901 0.961 . S
C1888 H1902 0.961 . S
C1889 C1886 1.539 . S
C1889 H1903 0.958 . S
C1889 H1904 0.961 . S
C1889 H1905 0.960 . S
H1890 C1874 0.931 . S
H1891 C1879 0.929 . S
H1892 C1880 0.960 . S
H1893 C1880 0.962 . S
H1894 C1880 0.960 . S
H1895 C1881 0.961 . S
H1896 C1881 0.961 . S
H1897 C1881 0.961 . S
H1898 C1882 0.931 . S
H1899 C1887 0.930 . S
H1900 C1888 0.956 . S
H1901 C1888 0.961 . S
H1902 C1888 0.961 . S
H1903 C1889 0.958 . S
H1904 C1889 0.961 . S
H1905 C1889 0.960 . S
C1906 C1907 1.391 . S
C1906 C1908 1.394 . S
C1906 H1922 0.931 . S
C1907 C1906 1.391 . S
C1907 C1911 1.376 . S
C1908 C1906 1.394 . S
C1908 C1909 1.369 . S
C1908 C1912 1.531 . S
C1909 C1908 1.369 . S
C1909 C1910 1.410 . S
C1909 C1917 1.503 . S
C1910 C1909 1.410 . S
C1910 C1911 1.392 . S
C1910 C1913 1.511 . S
C1911 C1907 1.376 . S
C1911 C1910 1.392 . S
C1911 H1923 0.929 . S
C1912 C1908 1.531 . S
C1912 H1924 0.960 . S
C1912 H1925 0.962 . S
C1912 H1926 0.960 . S
C1913 C1910 1.511 . S
C1913 H1927 0.961 . S
C1913 H1928 0.961 . S
C1913 H1929 0.961 . S
C1914 C1915 1.370 . S
C1914 C1916 1.363 . S
C1914 H1930 0.931 . S
C1915 C1914 1.370 . S
C1915 C1919 1.408 . S
C1916 C1914 1.363 . S
C1916 C1917 1.370 . S
C1916 C1920 1.524 . S
C1917 C1909 1.503 . S
C1917 C1916 1.370 . S
C1917 C1918 1.403 . S
C1918 C1917 1.403 . S
C1918 C1919 1.404 . S
C1918 C1921 1.539 . S
C1919 C1915 1.408 . S
C1919 C1918 1.404 . S
C1919 H1931 0.930 . S
C1920 C1916 1.524 . S
C1920 H1932 0.956 . S
C1920 H1933 0.961 . S
C1920 H1934 0.961 . S
C1921 C1918 1.539 . S
C1921 H1935 0.958 . S
C1921 H1936 0.961 . S
C1921 H1937 0.960 . S
H1922 C1906 0.931 . S
H1923 C1911 0.929 . S
H1924 C1912 0.960 . S
H1925 C1912 0.962 . S
H1926 C1912 0.960 . S
H1927 C1913 0.961 . S
H1928 C1913 0.961 . S
H1929 C1913 0.961 . S
H1930 C1914 0.931 . S
H1931 C1919 0.930 . S
H1932 C1920 0.956 . S
H1933 C1920 0.961 . S
H1934 C1920 0.961 . S
H1935 C1921 0.958 . S
H1936 C1921 0.961 . S
H1937 C1921 0.960 . S
C1938 C1939 1.391 . S
C1938 C1940 1.394 . S
C1938 H1954 0.931 . S
C1939 C1938 1.391 . S
C1939 C1943 1.376 . S
C1940 C1938 1.394 . S
C1940 C1941 1.369 . S
C1940 C1944 1.531 . S
C1941 C1940 1.369 . S
C1941 C1942 1.410 . S
C1941 C1949 1.503 . S
C1942 C1941 1.410 . S
C1942 C1943 1.392 . S
C1942 C1945 1.511 . S
C1943 C1939 1.376 . S
C1943 C1942 1.392 . S
C1943 H1955 0.929 . S
C1944 C1940 1.531 . S
C1944 H1956 0.960 . S
C1944 H1957 0.962 . S
C1944 H1958 0.960 . S
C1945 C1942 1.511 . S
C1945 H1959 0.961 . S
C1945 H1960 0.961 . S
C1945 H1961 0.961 . S
C1946 C1947 1.370 . S
C1946 C1948 1.363 . S
C1946 H1962 0.931 . S
C1947 C1946 1.370 . S
C1947 C1951 1.408 . S
C1948 C1946 1.363 . S
C1948 C1949 1.370 . S
C1948 C1952 1.524 . S
C1949 C1941 1.503 . S
C1949 C1948 1.370 . S
C1949 C1950 1.403 . S
C1950 C1949 1.403 . S
C1950 C1951 1.404 . S
C1950 C1953 1.539 . S
C1951 C1947 1.408 . S
C1951 C1950 1.404 . S
C1951 H1963 0.930 . S
C1952 C1948 1.524 . S
C1952 H1964 0.956 . S
C1952 H1965 0.961 . S
C1952 H1966 0.961 . S
C1953 C1950 1.539 . S
C1953 H1967 0.958 . S
C1953 H1968 0.961 . S
C1953 H1969 0.960 . S
H1954 C1938 0.931 . S
H1955 C1943 0.929 . S
H1956 C1944 0.960 . S
H1957 C1944 0.962 . S
H1958 C1944 0.960 . S
H1959 C1945 0.961 . S
H1960 C1945 0.961 . S
H1961 C1945 0.961 . S
H1962 C1946 0.931 . S
H1963 C1951 0.930 . S
H1964 C1952 0.956 . S
H1965 C1952 0.961 . S
H1966 C1952 0.961 . S
H1967 C1953 0.958 . S
H1968 C1953 0.961 . S
H1969 C1953 0.960 . S
C1970 C1971 1.391 . S
C1970 C1972 1.394 . S
C1970 H1986 0.931 . S
C1971 C1970 1.391 . S
C1971 C1975 1.376 . S
C1972 C1970 1.394 . S
C1972 C1973 1.369 . S
C1972 C1976 1.531 . S
C1973 C1972 1.369 . S
C1973 C1974 1.410 . S
C1973 C1981 1.503 . S
C1974 C1973 1.410 . S
C1974 C1975 1.392 . S
C1974 C1977 1.511 . S
C1975 C1971 1.376 . S
C1975 C1974 1.392 . S
C1975 H1987 0.929 . S
C1976 C1972 1.531 . S
C1976 H1988 0.960 . S
C1976 H1989 0.962 . S
C1976 H1990 0.960 . S
C1977 C1974 1.511 . S
C1977 H1991 0.961 . S
C1977 H1992 0.961 . S
C1977 H1993 0.961 . S
C1978 C1979 1.370 . S
C1978 C1980 1.363 . S
C1978 H1994 0.931 . S
C1979 C1978 1.370 . S
C1979 C1983 1.408 . S
C1980 C1978 1.363 . S
C1980 C1981 1.370 . S
C1980 C1984 1.524 . S
C1981 C1973 1.503 . S
C1981 C1980 1.370 . S
C1981 C1982 1.403 . S
C1982 C1981 1.403 . S
C1982 C1983 1.404 . S
C1982 C1985 1.539 . S
C1983 C1979 1.408 . S
C1983 C1982 1.404 . S
C1983 H1995 0.930 . S
C1984 C1980 1.524 . S
C1984 H1996 0.956 . S
C1984 H1997 0.961 . S
C1984 H1998 0.961 . S
C1985 C1982 1.539 . S
C1985 H1999 0.958 . S
C1985 H2000 0.961 . S
C1985 H2001 0.960 . S
H1986 C1970 0.931 . S
H1987 C1975 0.929 . S
H1988 C1976 0.960 . S
H1989 C1976 0.962 . S
H1990 C1976 0.960 . S
H1991 C1977 0.961 . S
H1992 C1977 0.961 . S
H1993 C1977 0.961 . S
H1994 C1978 0.931 . S
H1995 C1983 0.930 . S
H1996 C1984 0.956 . S
H1997 C1984 0.961 . S
H1998 C1984 0.961 . S
H1999 C1985 0.958 . S
H2000 C1985 0.961 . S
H2001 C1985 0.960 . S
C2002 C2003 1.391 . S
C2002 C2004 1.394 . S
C2002 H2018 0.931 . S
C2003 C2002 1.391 . S
C2003 C2007 1.376 . S
C2004 C2002 1.394 . S
C2004 C2005 1.369 . S
C2004 C2008 1.531 . S
C2005 C2004 1.369 . S
C2005 C2006 1.410 . S
C2005 C2013 1.503 . S
C2006 C2005 1.410 . S
C2006 C2007 1.392 . S
C2006 C2009 1.511 . S
C2007 C2003 1.376 . S
C2007 C2006 1.392 . S
C2007 H2019 0.929 . S
C2008 C2004 1.531 . S
C2008 H2020 0.960 . S
C2008 H2021 0.962 . S
C2008 H2022 0.960 . S
C2009 C2006 1.511 . S
C2009 H2023 0.961 . S
C2009 H2024 0.961 . S
C2009 H2025 0.961 . S
C2010 C2011 1.370 . S
C2010 C2012 1.363 . S
C2010 H2026 0.931 . S
C2011 C2010 1.370 . S
C2011 C2015 1.408 . S
C2012 C2010 1.363 . S
C2012 C2013 1.370 . S
C2012 C2016 1.524 . S
C2013 C2005 1.503 . S
C2013 C2012 1.370 . S
C2013 C2014 1.403 . S
C2014 C2013 1.403 . S
C2014 C2015 1.404 . S
C2014 C2017 1.539 . S
C2015 C2011 1.408 . S
C2015 C2014 1.404 . S
C2015 H2027 0.930 . S
C2016 C2012 1.524 . S
C2016 H2028 0.956 . S
C2016 H2029 0.961 . S
C2016 H2030 0.961 . S
C2017 C2014 1.539 . S
C2017 H2031 0.958 . S
C2017 H2032 0.961 . S
C2017 H2033 0.960 . S
H2018 C2002 0.931 . S
H2019 C2007 0.929 . S
H2020 C2008 0.960 . S
H2021 C2008 0.962 . S
H2022 C2008 0.960 . S
H2023 C2009 0.961 . S
H2024 C2009 0.961 . S
H2025 C2009 0.961 . S
H2026 C2010 0.931 . S
H2027 C2015 0.930 . S
H2028 C2016 0.956 . S
H2029 C2016 0.961 . S
H2030 C2016 0.961 . S
H2031 C2017 0.958 . S
H2032 C2017 0.961 . S
H2033 C2017 0.960 . S
C595 N13 1.056 . S
C603 N2 1.077 . S
C627 N46 1.083 . S
C635 N35 1.064 . S
C659 N68 1.085 . S
C667 N79 1.064 . S
C691 N112 1.084 . S
C699 N101 1.065 . S
C723 N145 1.072 . S
C731 N134 1.068 . S
C755 N167 1.070 . S
C763 N178 1.069 . S
C787 N200 1.068 . S
C795 N211 1.070 . S
C819 N233 1.052 . S
C827 N244 1.077 . S
C851 N277 1.071 . S
C859 N266 1.072 . S
C883 N310 1.061 . S
C891 N299 1.073 . S
C915 N343 1.054 . S
C923 N332 1.076 . S
C947 N365 1.057 . S
C955 N376 1.077 . S
C979 N398 1.085 . S
C987 N409 1.064 . S
C1011 N431 1.078 . S
C1019 N442 1.069 . S
C1043 N464 1.083 . S
C1051 N475 1.064 . S
C1075 N508 1.065 . S
C1083 N497 1.071 . S
C1107 N541 1.052 . S
C1115 N530 1.077 . S
C1139 N563 1.072 . S
C1147 N574 1.068 . S
C1171 C579 1.577 . S
C1179 C18 1.594 . S
C1203 C51 1.580 . S
C1211 C513 1.595 . S
C1235 C546 1.568 . S
C1243 C84 1.598 . S
C1267 C249 1.568 . S
C1275 C117 1.600 . S
C1299 C150 1.567 . S
C1307 C282 1.599 . S
C1331 C183 1.567 . S
C1339 C216 1.599 . S
C1363 C315 1.570 . S
C1371 C447 1.599 . S
C1395 C480 1.593 . S
C1403 C348 1.587 . S
C1427 C381 1.565 . S
C1435 C414 1.600 . S
C1459 C7 1.513 . S
C1467 C106 1.497 . S
C1491 C40 1.487 . S
C1499 C139 1.509 . S
C1523 C172 1.515 . S
C1531 C73 1.497 . S
C1555 C186 1.548 . S
C1563 C54 1.537 . S
C1587 C120 1.546 . S
C1595 C87 1.538 . S
C1619 C153 1.547 . S
C1627 C21 1.538 . S
C1651 C304 1.503 . S
C1659 C205 1.501 . S
C1683 C337 1.515 . S
C1691 C238 1.497 . S
C1715 C271 1.484 . S
C1723 C370 1.509 . S
C1747 C384 1.549 . S
C1755 C252 1.537 . S
C1779 C285 1.532 . S
C1787 C318 1.544 . S
C1811 C219 1.545 . S
C1819 C351 1.539 . S
C1843 C502 1.492 . S
C1851 C403 1.506 . S
C1875 C535 1.504 . S
C1883 C436 1.502 . S
C1907 C568 1.507 . S
C1915 C469 1.499 . S
C1939 C450 1.535 . S
C1947 C582 1.543 . S
C1971 C483 1.527 . S
C1979 C516 1.546 . S
C2003 C549 1.529 . S
C2011 C417 1.545 . S
