# Generated by pormake.
# Topology uno, (4)-cn, num edge types: 1
# Building blocks:
#     Node 0, Type 0, BuildingBlock: KOZSID_clean_sbu_0, # of connection points: 4
#     Node 1, Type 0, BuildingBlock: KOZSID_clean_sbu_0, # of connection points: 4
#     Node 2, Type 0, BuildingBlock: KOZSID_clean_sbu_0, # of connection points: 4
#     Node 3, Type 0, BuildingBlock: KOZSID_clean_sbu_0, # of connection points: 4
#     Node 4, Type 0, BuildingBlock: KOZSID_clean_sbu_0, # of connection points: 4
#     Node 5, Type 0, BuildingBlock: KOZSID_clean_sbu_0, # of connection points: 4
#     Node 6, Type 0, BuildingBlock: KOZSID_clean_sbu_0, # of connection points: 4
#     Node 7, Type 0, BuildingBlock: KOZSID_clean_sbu_0, # of connection points: 4
#     Node 8, Type 0, BuildingBlock: KOZSID_clean_sbu_0, # of connection points: 4
#     Node 9, Type 0, BuildingBlock: KOZSID_clean_sbu_0, # of connection points: 4
#     Node 10, Type 0, BuildingBlock: KOZSID_clean_sbu_0, # of connection points: 4
#     Node 11, Type 0, BuildingBlock: KOZSID_clean_sbu_0, # of connection points: 4
#     Node 12, Type 0, BuildingBlock: KOZSID_clean_sbu_0, # of connection points: 4
#     Node 13, Type 0, BuildingBlock: KOZSID_clean_sbu_0, # of connection points: 4
#     Node 14, Type 0, BuildingBlock: KOZSID_clean_sbu_0, # of connection points: 4
#     Node 15, Type 0, BuildingBlock: KOZSID_clean_sbu_0, # of connection points: 4
#     Node 16, Type 0, BuildingBlock: KOZSID_clean_sbu_0, # of connection points: 4
#     Node 17, Type 0, BuildingBlock: KOZSID_clean_sbu_0, # of connection points: 4
#     Node 18, Type 0, BuildingBlock: KOZSID_clean_sbu_0, # of connection points: 4
#     Node 19, Type 0, BuildingBlock: KOZSID_clean_sbu_0, # of connection points: 4
#     Node 20, Type 0, BuildingBlock: KOZSID_clean_sbu_0, # of connection points: 4
#     Node 21, Type 0, BuildingBlock: KOZSID_clean_sbu_0, # of connection points: 4
#     Node 22, Type 0, BuildingBlock: KOZSID_clean_sbu_0, # of connection points: 4
#     Node 23, Type 0, BuildingBlock: KOZSID_clean_sbu_0, # of connection points: 4
#     Edge 24, Type (0, 0), BuildingBlock: UVAHIK_clean_linker_0, # of connection points: 2
#     Edge 25, Type (0, 0), BuildingBlock: UVAHIK_clean_linker_0, # of connection points: 2
#     Edge 26, Type (0, 0), BuildingBlock: UVAHIK_clean_linker_0, # of connection points: 2
#     Edge 27, Type (0, 0), BuildingBlock: UVAHIK_clean_linker_0, # of connection points: 2
#     Edge 28, Type (0, 0), BuildingBlock: UVAHIK_clean_linker_0, # of connection points: 2
#     Edge 29, Type (0, 0), BuildingBlock: UVAHIK_clean_linker_0, # of connection points: 2
#     Edge 30, Type (0, 0), BuildingBlock: UVAHIK_clean_linker_0, # of connection points: 2
#     Edge 31, Type (0, 0), BuildingBlock: UVAHIK_clean_linker_0, # of connection points: 2
#     Edge 32, Type (0, 0), BuildingBlock: UVAHIK_clean_linker_0, # of connection points: 2
#     Edge 33, Type (0, 0), BuildingBlock: UVAHIK_clean_linker_0, # of connection points: 2
#     Edge 34, Type (0, 0), BuildingBlock: UVAHIK_clean_linker_0, # of connection points: 2
#     Edge 35, Type (0, 0), BuildingBlock: UVAHIK_clean_linker_0, # of connection points: 2
#     Edge 36, Type (0, 0), BuildingBlock: UVAHIK_clean_linker_0, # of connection points: 2
#     Edge 37, Type (0, 0), BuildingBlock: UVAHIK_clean_linker_0, # of connection points: 2
#     Edge 38, Type (0, 0), BuildingBlock: UVAHIK_clean_linker_0, # of connection points: 2
#     Edge 39, Type (0, 0), BuildingBlock: UVAHIK_clean_linker_0, # of connection points: 2
#     Edge 40, Type (0, 0), BuildingBlock: UVAHIK_clean_linker_0, # of connection points: 2
#     Edge 41, Type (0, 0), BuildingBlock: UVAHIK_clean_linker_0, # of connection points: 2
#     Edge 42, Type (0, 0), BuildingBlock: UVAHIK_clean_linker_0, # of connection points: 2
#     Edge 43, Type (0, 0), BuildingBlock: UVAHIK_clean_linker_0, # of connection points: 2
#     Edge 44, Type (0, 0), BuildingBlock: UVAHIK_clean_linker_0, # of connection points: 2
#     Edge 45, Type (0, 0), BuildingBlock: UVAHIK_clean_linker_0, # of connection points: 2
#     Edge 46, Type (0, 0), BuildingBlock: UVAHIK_clean_linker_0, # of connection points: 2
#     Edge 47, Type (0, 0), BuildingBlock: UVAHIK_clean_linker_0, # of connection points: 2
#     Edge 48, Type (0, 0), BuildingBlock: UVAHIK_clean_linker_0, # of connection points: 2
#     Edge 49, Type (0, 0), BuildingBlock: UVAHIK_clean_linker_0, # of connection points: 2
#     Edge 50, Type (0, 0), BuildingBlock: UVAHIK_clean_linker_0, # of connection points: 2
#     Edge 51, Type (0, 0), BuildingBlock: UVAHIK_clean_linker_0, # of connection points: 2
#     Edge 52, Type (0, 0), BuildingBlock: UVAHIK_clean_linker_0, # of connection points: 2
#     Edge 53, Type (0, 0), BuildingBlock: UVAHIK_clean_linker_0, # of connection points: 2
#     Edge 54, Type (0, 0), BuildingBlock: UVAHIK_clean_linker_0, # of connection points: 2
#     Edge 55, Type (0, 0), BuildingBlock: UVAHIK_clean_linker_0, # of connection points: 2
#     Edge 56, Type (0, 0), BuildingBlock: UVAHIK_clean_linker_0, # of connection points: 2
#     Edge 57, Type (0, 0), BuildingBlock: UVAHIK_clean_linker_0, # of connection points: 2
#     Edge 58, Type (0, 0), BuildingBlock: UVAHIK_clean_linker_0, # of connection points: 2
#     Edge 59, Type (0, 0), BuildingBlock: UVAHIK_clean_linker_0, # of connection points: 2
#     Edge 60, Type (0, 0), BuildingBlock: UVAHIK_clean_linker_0, # of connection points: 2
#     Edge 61, Type (0, 0), BuildingBlock: UVAHIK_clean_linker_0, # of connection points: 2
#     Edge 62, Type (0, 0), BuildingBlock: UVAHIK_clean_linker_0, # of connection points: 2
#     Edge 63, Type (0, 0), BuildingBlock: UVAHIK_clean_linker_0, # of connection points: 2
#     Edge 64, Type (0, 0), BuildingBlock: UVAHIK_clean_linker_0, # of connection points: 2
#     Edge 65, Type (0, 0), BuildingBlock: UVAHIK_clean_linker_0, # of connection points: 2
#     Edge 66, Type (0, 0), BuildingBlock: UVAHIK_clean_linker_0, # of connection points: 2
#     Edge 67, Type (0, 0), BuildingBlock: UVAHIK_clean_linker_0, # of connection points: 2
#     Edge 68, Type (0, 0), BuildingBlock: UVAHIK_clean_linker_0, # of connection points: 2
#     Edge 69, Type (0, 0), BuildingBlock: UVAHIK_clean_linker_0, # of connection points: 2
#     Edge 70, Type (0, 0), BuildingBlock: UVAHIK_clean_linker_0, # of connection points: 2
#     Edge 71, Type (0, 0), BuildingBlock: UVAHIK_clean_linker_0, # of connection points: 2
# Relax obj value: 0.379
# Max RMSD: 0.276
# Mean RMSD: 0.247
data_MOF--net-uno--node1-KOZSID_clean_sbu_0--edge1-UVAHIK_clean_linker_0
_symmetry_space_group_name_H-M    P1
_symmetry_Int_Tables_number       1
_symmetry_cell_setting            triclinic
loop_
_symmetry_equiv_pos_as_xyz
'x, y, z'
_cell_length_a     80.18597
_cell_length_b     78.572537
_cell_length_c     78.699265
_cell_angle_alpha  89.866563
_cell_angle_beta   89.983372
_cell_angle_gamma 92.226649
loop_
_atom_site_label
_atom_site_type_symbol
_atom_site_fract_x
_atom_site_fract_y
_atom_site_fract_z
_atom_type_partial_charge
C0 C 0.08581 0.29562 0.23906 0.0
C1 C 0.07517 0.29305 0.22535 0.0
C2 C 0.07736 0.27666 0.21982 0.0
C3 C 0.08923 0.27019 0.23039 0.0
N4 N 0.09453 0.28154 0.24214 0.0
Co5 Co 0.11214 0.2782 0.2593 0.0
N6 N 0.1218 0.25973 0.24594 0.0
C7 C 0.11382 0.25055 0.23378 0.0
C8 C 0.12353 0.2382 0.22708 0.0
C9 C 0.13843 0.23968 0.23568 0.0
C10 C 0.13701 0.25295 0.24718 0.0
N11 N 0.12961 0.27496 0.27663 0.0
C12 C 0.14437 0.2673 0.27519 0.0
C13 C 0.15326 0.2686 0.29032 0.0
C14 C 0.14342 0.27687 0.30166 0.0
C15 C 0.12919 0.28038 0.29284 0.0
N16 N 0.10242 0.29664 0.27253 0.0
C17 C 0.10441 0.29957 0.28923 0.0
C18 C 0.0964 0.3138 0.29451 0.0
C19 C 0.08902 0.32014 0.28017 0.0
C20 C 0.09302 0.30939 0.26696 0.0
N21 N 0.09765 0.26117 0.27085 0.0
C22 C 0.07696 0.23305 0.27942 0.0
C23 C 0.09429 0.23207 0.28005 0.0
C24 C 0.10437 0.24624 0.27589 0.0
C25 C 0.0701 0.24883 0.27598 0.0
C26 C 0.08073 0.26284 0.27177 0.0
N27 N 0.12679 0.29468 0.24744 0.0
C28 C 0.15003 0.315 0.24768 0.0
C29 C 0.15183 0.31323 0.23006 0.0
C30 C 0.14019 0.30289 0.22127 0.0
C31 C 0.1279 0.29369 0.23016 0.0
C32 C 0.13718 0.3058 0.25612 0.0
H33 H 0.11991 0.28499 0.22306 0.0
H34 H 0.13617 0.30703 0.26972 0.0
H35 H 0.11764 0.24465 0.27559 0.0
H36 H 0.07526 0.27468 0.26823 0.0
C37 C 0.0984 0.25561 0.22735 0.0
C38 C 0.08732 0.31113 0.24939 0.0
C39 C 0.14956 0.25757 0.26022 0.0
C40 C 0.11681 0.2913 0.29827 0.0
H41 H 0.06689 0.30205 0.21976 0.0
H42 H 0.07175 0.27064 0.20875 0.0
H43 H 0.12037 0.22948 0.21685 0.0
H44 H 0.149 0.23172 0.23389 0.0
H45 H 0.16554 0.26404 0.29299 0.0
H46 H 0.14661 0.28056 0.31453 0.0
H47 H 0.09673 0.31951 0.30702 0.0
H48 H 0.08174 0.33144 0.27944 0.0
H49 H 0.10002 0.22013 0.28293 0.0
H50 H 0.0567 0.25005 0.27555 0.0
H51 H 0.15876 0.32298 0.25489 0.0
H52 H 0.14123 0.30096 0.20768 0.0
C53 C 0.95618 0.77975 0.52211 0.0
C54 C 0.9557 0.76819 0.50884 0.0
C55 C 0.9718 0.76762 0.50276 0.0
C56 C 0.98115 0.77887 0.51261 0.0
N57 N 0.97184 0.78629 0.52448 0.0
Co58 Co 0.97935 0.80439 0.54047 0.0
N59 N 0.99868 0.81095 0.52603 0.0
C60 C 0.00536 0.80117 0.51395 0.0
C61 C 0.01905 0.80898 0.50633 0.0
C62 C 0.02113 0.8245 0.51424 0.0
C63 C 0.00857 0.82529 0.52635 0.0
N64 N 0.98656 0.82242 0.55665 0.0
C65 C 0.9971 0.83605 0.55423 0.0
C66 C 0.99883 0.84548 0.56909 0.0
C67 C 0.98912 0.83727 0.58118 0.0
C68 C 0.98202 0.82332 0.57311 0.0
N69 N 0.9601 0.79767 0.55481 0.0
C70 C 0.95825 0.80077 0.57147 0.0
C71 C 0.94288 0.79508 0.57745 0.0
C72 C 0.93467 0.78812 0.5636 0.0
C73 C 0.94555 0.79 0.55 0.0
N74 N 0.99342 0.78822 0.55228 0.0
C75 C 0.0184 0.76503 0.55744 0.0
C76 C 0.02167 0.78244 0.55974 0.0
C77 C 0.00909 0.79377 0.5571 0.0
C78 C 0.00184 0.75921 0.55488 0.0
C79 C 0.98938 0.77112 0.55259 0.0
N80 N 0.96601 0.82068 0.52819 0.0
C81 C 0.95305 0.84779 0.52721 0.0
C82 C 0.95432 0.84788 0.50946 0.0
C83 C 0.96018 0.83357 0.50129 0.0
C84 C 0.9662 0.8203 0.51083 0.0
C85 C 0.95856 0.83374 0.53637 0.0
H86 H 0.97215 0.81036 0.50403 0.0
H87 H 0.95782 0.83396 0.55005 0.0
H88 H 0.01271 0.80707 0.55724 0.0
H89 H 0.97687 0.76651 0.54954 0.0
C90 C 0.997 0.78603 0.50853 0.0
C91 C 0.94199 0.78438 0.53265 0.0
C92 C 0.0072 0.8391 0.53884 0.0
C93 C 0.96916 0.81252 0.5796 0.0
H94 H 0.94489 0.76119 0.50389 0.0
H95 H 0.9759 0.76076 0.4917 0.0
H96 H 0.02636 0.80422 0.49593 0.0
H97 H 0.03088 0.83404 0.51156 0.0
H98 H 0.00655 0.8569 0.57111 0.0
H99 H 0.98713 0.84128 0.59415 0.0
H100 H 0.93779 0.79684 0.59003 0.0
H101 H 0.92207 0.78264 0.5634 0.0
H102 H 0.03426 0.7874 0.5621 0.0
H103 H 0.9988 0.74575 0.55332 0.0
H104 H 0.94855 0.85872 0.53392 0.0
H105 H 0.96157 0.8333 0.48759 0.0
C106 C 0.43828 0.70838 0.71945 0.0
C107 C 0.44733 0.70931 0.70444 0.0
C108 C 0.44415 0.72483 0.69719 0.0
C109 C 0.43333 0.73245 0.70812 0.0
N110 N 0.42966 0.72264 0.72172 0.0
Co111 Co 0.41377 0.72768 0.74006 0.0
N112 N 0.40211 0.74399 0.72561 0.0
C113 C 0.4083 0.75151 0.71143 0.0
C114 C 0.39707 0.76184 0.70382 0.0
C115 C 0.3831 0.76083 0.71394 0.0
C116 C 0.38663 0.75002 0.72736 0.0
N117 N 0.39799 0.73254 0.75855 0.0
C118 C 0.38289 0.73959 0.7577 0.0
C119 C 0.37609 0.74106 0.77385 0.0
C120 C 0.38742 0.73468 0.78506 0.0
C121 C 0.40052 0.72974 0.77522 0.0
N122 N 0.42548 0.7114 0.75437 0.0
C123 C 0.42538 0.71062 0.77142 0.0
C124 C 0.43412 0.69714 0.77746 0.0
C125 C 0.43992 0.68902 0.76326 0.0
C126 C 0.43434 0.69805 0.74938 0.0
N127 N 0.42865 0.74646 0.74787 0.0
C128 C 0.4488 0.77596 0.75322 0.0
C129 C 0.4315 0.77602 0.75552 0.0
C130 C 0.42172 0.76135 0.75258 0.0
C131 C 0.45597 0.76035 0.74949 0.0
C132 C 0.44565 0.74567 0.74705 0.0
N133 N 0.39864 0.70941 0.73202 0.0
C134 C 0.37592 0.68931 0.73764 0.0
C135 C 0.37185 0.68901 0.72032 0.0
C136 C 0.38231 0.69798 0.70891 0.0
C137 C 0.39553 0.70814 0.71501 0.0
C138 C 0.38961 0.69938 0.7432 0.0
H139 H 0.4025 0.71587 0.70597 0.0
H140 H 0.39228 0.69987 0.75663 0.0
H141 H 0.40842 0.76242 0.75336 0.0
H142 H 0.45135 0.73389 0.74373 0.0
C143 C 0.42323 0.74613 0.70413 0.0
C144 C 0.43796 0.69418 0.7316 0.0
C145 C 0.37564 0.7466 0.74212 0.0
C146 C 0.41382 0.71991 0.78066 0.0
H147 H 0.45511 0.69974 0.6991 0.0
H148 H 0.44829 0.7294 0.68485 0.0
H149 H 0.39854 0.76868 0.69192 0.0
H150 H 0.37166 0.76731 0.71162 0.0
H151 H 0.36429 0.74639 0.77721 0.0
H152 H 0.386 0.73331 0.79867 0.0
H153 H 0.43523 0.69301 0.79053 0.0
H154 H 0.44718 0.67769 0.76308 0.0
H155 H 0.42534 0.78751 0.75908 0.0
H156 H 0.46931 0.75958 0.74777 0.0
H157 H 0.36819 0.68239 0.74682 0.0
H158 H 0.37954 0.69826 0.69544 0.0
C159 C 0.55833 0.23346 0.99626 0.0
C160 C 0.55656 0.24559 0.98368 0.0
C161 C 0.53996 0.24474 0.97904 0.0
C162 C 0.53258 0.23217 0.98907 0.0
N163 N 0.54359 0.22526 0.99967 0.0
Co164 Co 0.53937 0.2057 0.01513 0.0
N165 N 0.51948 0.19785 0.00211 0.0
C166 C 0.51076 0.20748 0.99135 0.0
C167 C 0.49719 0.19872 0.98458 0.0
C168 C 0.49733 0.18274 0.99171 0.0
C169 C 0.51102 0.18262 0.00252 0.0
N170 N 0.53563 0.18609 0.03063 0.0
C171 C 0.5263 0.17158 0.02833 0.0
C172 C 0.52701 0.1612 0.04263 0.0
C173 C 0.53695 0.1697 0.05426 0.0
C174 C 0.54178 0.18474 0.04649 0.0
N175 N 0.55906 0.21382 0.02819 0.0
C176 C 0.56258 0.21008 0.04443 0.0
C177 C 0.57759 0.21738 0.04962 0.0
C178 C 0.58382 0.22611 0.03569 0.0
C179 C 0.57218 0.22364 0.02282 0.0
N180 N 0.52476 0.21941 0.02916 0.0
C181 C 0.498 0.23925 0.03814 0.0
C182 C 0.49681 0.22153 0.0397 0.0
C183 C 0.51024 0.21189 0.03514 0.0
C184 C 0.51362 0.24699 0.03434 0.0
C185 C 0.52701 0.23676 0.03011 0.0
N186 N 0.55325 0.19192 1.00062 0.0
C187 C 0.57133 0.16851 0.99641 0.0
C188 C 0.56828 0.16898 0.97885 0.0
C189 C 0.55833 0.18172 0.97245 0.0
C190 C 0.5509 0.19286 0.98346 0.0
C191 C 0.56387 0.18033 0.0071 0.0
H192 H 0.54251 0.2017 0.97801 0.0
H193 H 0.56606 0.17964 0.02061 0.0
H194 H 0.50808 0.19832 0.03488 0.0
H195 H 0.53867 0.24289 0.02617 0.0
C196 C 0.51712 0.22363 0.98606 0.0
C197 C 0.57375 0.23036 0.00553 0.0
C198 C 0.5148 0.16845 0.01401 0.0
C199 C 0.55383 0.19663 0.05261 0.0
H200 H 0.56626 0.25396 0.97835 0.0
H201 H 0.53425 0.25165 0.9688 0.0
H202 H 0.48849 0.20322 0.97523 0.0
H203 H 0.48828 0.17243 0.98938 0.0
H204 H 0.52063 0.14897 0.04468 0.0
H205 H 0.5405 0.16526 0.06672 0.0
H206 H 0.58383 0.21558 0.06164 0.0
H207 H 0.59569 0.23309 0.03503 0.0
H208 H 0.4851 0.21506 0.04311 0.0
H209 H 0.51514 0.26071 0.03333 0.0
H210 H 0.57899 0.15884 0.00186 0.0
H211 H 0.5553 0.1824 0.95906 0.0
C212 C 0.98128 0.99542 0.31919 0.0
C213 C 0.96469 0.99741 0.31503 0.0
C214 C 0.95945 0.01097 0.32452 0.0
C215 C 0.9731 0.01646 0.33395 0.0
N216 N 0.98645 0.00715 0.33075 0.0
Co217 Co 0.00824 0.00903 0.34227 0.0
N218 N 0.99852 0.02023 0.36211 0.0
C219 C 0.98399 0.02819 0.36254 0.0
C220 C 0.98045 0.03395 0.37862 0.0
C221 C 0.9936 0.02926 0.3887 0.0
C222 C 0.00441 0.02088 0.37818 0.0
N223 N 0.03015 0.01105 0.35344 0.0
C224 C 0.03351 0.01303 0.37009 0.0
C225 C 0.05061 0.01375 0.3729 0.0
C226 C 0.05806 0.01221 0.35724 0.0
C227 C 0.04513 0.01061 0.3458 0.0
N228 N 0.01789 0.9977 0.32257 0.0
C229 C 0.03398 0.99831 0.31776 0.0
C230 C 0.03664 0.98817 0.30384 0.0
C231 C 0.02124 0.9808 0.29987 0.0
C232 C 0.01011 0.98692 0.31162 0.0
N233 N 0.01261 0.03134 0.33171 0.0
C234 C 0.01712 0.06413 0.31797 0.0
C235 C 0.01129 0.05048 0.30782 0.0
C236 C 0.00906 0.03417 0.31496 0.0
C237 C 0.02103 0.06085 0.33496 0.0
C238 C 0.01874 0.04447 0.34153 0.0
N239 N 0.0037 0.98701 0.35322 0.0
C240 C 0.01327 0.96129 0.366 0.0
C241 C 0.99749 0.95811 0.37327 0.0
C242 C 0.98478 0.96922 0.36968 0.0
C243 C 0.98816 0.9836 0.35982 0.0
C244 C 0.01605 0.97573 0.35574 0.0
H245 H 0.97831 0.99237 0.35822 0.0
H246 H 0.02829 0.97812 0.35035 0.0
H247 H 0.00424 0.0239 0.30705 0.0
H248 H 0.02177 0.04251 0.35472 0.0
C249 C 0.97274 0.02657 0.34876 0.0
C250 C 0.99221 0.98262 0.31219 0.0
C251 C 0.02064 0.01447 0.38316 0.0
C252 C 0.04632 0.00506 0.32885 0.0
H253 H 0.95713 0.98972 0.30638 0.0
H254 H 0.94686 0.01539 0.32537 0.0
H255 H 0.96925 0.04 0.38275 0.0
H256 H 0.99507 0.03166 0.40217 0.0
H257 H 0.05701 0.01504 0.38496 0.0
H258 H 0.07126 0.01138 0.35467 0.0
H259 H 0.04846 0.98554 0.29796 0.0
H260 H 0.01853 0.9718 0.28976 0.0
H261 H 0.00814 0.05245 0.2946 0.0
H262 H 0.02594 0.07089 0.34318 0.0
H263 H 0.02339 0.95291 0.3685 0.0
H264 H 0.97249 0.96736 0.37527 0.0
C265 C 0.19502 0.71139 0.54451 0.0
C266 C 0.1943 0.72579 0.53439 0.0
C267 C 0.20992 0.73374 0.53506 0.0
C268 C 0.21925 0.72374 0.54552 0.0
N269 N 0.21036 0.71007 0.5513 0.0
Co270 Co 0.21801 0.69278 0.56747 0.0
N271 N 0.23588 0.7084 0.57614 0.0
C272 C 0.24226 0.72231 0.56807 0.0
C273 C 0.25484 0.73041 0.57718 0.0
C274 C 0.25646 0.72089 0.59174 0.0
C275 C 0.24475 0.70745 0.5907 0.0
N276 N 0.22558 0.67525 0.58343 0.0
C277 C 0.23504 0.67715 0.59753 0.0
C278 C 0.23743 0.66146 0.60517 0.0
C279 C 0.22926 0.64941 0.59528 0.0
C280 C 0.22234 0.65835 0.58222 0.0
N281 N 0.20014 0.67726 0.55871 0.0
C282 C 0.19943 0.66019 0.55984 0.0
C283 C 0.18493 0.65314 0.55313 0.0
C284 C 0.17604 0.66669 0.54753 0.0
C285 C 0.18573 0.68126 0.55109 0.0
N286 N 0.23362 0.68485 0.5503 0.0
C287 C 0.25962 0.68643 0.52677 0.0
C288 C 0.26269 0.68259 0.54379 0.0
C289 C 0.24956 0.68178 0.55531 0.0
C290 C 0.24302 0.68699 0.52127 0.0
C291 C 0.23009 0.68592 0.53332 0.0
N292 N 0.20304 0.70138 0.58485 0.0
C293 C 0.19002 0.69793 0.61229 0.0
C294 C 0.18993 0.71566 0.61415 0.0
C295 C 0.19504 0.72594 0.6005 0.0
C296 C 0.2018 0.71863 0.5862 0.0
C297 C 0.19617 0.691 0.59721 0.0
H298 H 0.20729 0.7272 0.57694 0.0
H299 H 0.19652 0.67733 0.5961 0.0
H300 H 0.25272 0.68049 0.56852 0.0
H301 H 0.21744 0.68759 0.52909 0.0
C302 C 0.2344 0.72866 0.55347 0.0
C303 C 0.18135 0.69876 0.54713 0.0
C304 C 0.24318 0.69331 0.60295 0.0
C305 C 0.21045 0.65188 0.5706 0.0
H306 H 0.18358 0.73012 0.52749 0.0
H307 H 0.21365 0.74591 0.5295 0.0
H308 H 0.26167 0.74211 0.57392 0.0
H309 H 0.26534 0.72344 0.60186 0.0
H310 H 0.24445 0.65894 0.61658 0.0
H311 H 0.228 0.63586 0.59772 0.0
H312 H 0.18078 0.63987 0.55329 0.0
H313 H 0.1638 0.66584 0.5418 0.0
H314 H 0.27533 0.68158 0.54844 0.0
H315 H 0.24015 0.68961 0.5081 0.0
H316 H 0.18613 0.68958 0.62265 0.0
H317 H 0.19542 0.73971 0.60151 0.0
C318 C 0.54914 0.00957 0.79701 0.0
C319 C 0.56551 0.00524 0.79444 0.0
C320 C 0.56786 0.99088 0.80418 0.0
C321 C 0.55279 0.98726 0.8121 0.0
N322 N 0.5413 0.99849 0.80779 0.0
Co323 Co 0.51857 0.9997 0.81712 0.0
N324 N 0.5245 0.98659 0.83746 0.0
C325 C 0.5374 0.97622 0.83885 0.0
C326 C 0.53825 0.96905 0.85479 0.0
C327 C 0.52506 0.97533 0.86376 0.0
C328 C 0.51691 0.98604 0.85278 0.0
N329 N 0.49586 0.00124 0.82634 0.0
C330 C 0.49075 0.99965 0.8426 0.0
C331 C 0.47368 0.0018 0.84383 0.0
C332 C 0.46807 0.00476 0.82761 0.0
C333 C 0.48196 0.00426 0.81742 0.0
N334 N 0.51255 0.01251 0.79668 0.0
C335 C 0.49712 0.01425 0.79041 0.0
C336 C 0.49717 0.02431 0.77607 0.0
C337 C 0.51365 0.02912 0.77334 0.0
C338 C 0.52268 0.02165 0.78618 0.0
N339 N 0.51202 0.97829 0.8058 0.0
C340 C 0.50637 0.94547 0.79234 0.0
C341 C 0.4991 0.95022 0.80775 0.0
C342 C 0.50225 0.96646 0.81432 0.0
C343 C 0.51574 0.95801 0.78332 0.0
C344 C 0.51822 0.97438 0.79016 0.0
N345 N 0.52539 0.02074 0.82878 0.0
C346 C 0.52028 0.04911 0.83847 0.0
C347 C 0.53519 0.04942 0.84788 0.0
C348 C 0.54509 0.03518 0.84723 0.0
C349 C 0.54004 0.02112 0.83765 0.0
C350 C 0.51564 0.03463 0.82891 0.0
H351 H 0.5479 0.01034 0.83779 0.0
H352 H 0.50408 0.03451 0.82187 0.0
H353 H 0.49719 0.96922 0.82666 0.0
H354 H 0.52569 0.98368 0.78309 0.0
C355 C 0.55011 0.97661 0.82639 0.0
C356 C 0.54075 0.02348 0.7885 0.0
C357 C 0.50166 0.99502 0.8567 0.0
C358 C 0.4831 0.00972 0.80041 0.0
H359 H 0.57471 0.01183 0.78651 0.0
H360 H 0.57946 0.98453 0.80605 0.0
H361 H 0.54779 0.96096 0.85962 0.0
H362 H 0.52189 0.97249 0.87686 0.0
H363 H 0.46609 0.00127 0.85521 0.0
H364 H 0.45551 0.00769 0.82386 0.0
H365 H 0.48647 0.02856 0.7691 0.0
H366 H 0.51839 0.0374 0.7633 0.0
H367 H 0.4912 0.94138 0.81499 0.0
H368 H 0.52165 0.95513 0.77136 0.0
H369 H 0.51227 0.05989 0.83854 0.0
H370 H 0.55649 0.03458 0.85455 0.0
C371 C 0.31888 0.2897 0.04199 0.0
C372 C 0.31962 0.2753 0.03195 0.0
C373 C 0.30386 0.26761 0.03221 0.0
C374 C 0.29443 0.27776 0.04236 0.0
N375 N 0.30339 0.29127 0.04836 0.0
Co376 Co 0.29545 0.30879 0.06403 0.0
N377 N 0.27699 0.29354 0.07214 0.0
C378 C 0.27063 0.27973 0.06398 0.0
C379 C 0.25773 0.27181 0.07284 0.0
C380 C 0.25592 0.28133 0.08734 0.0
C381 C 0.26784 0.2946 0.0865 0.0
N382 N 0.28756 0.32651 0.07949 0.0
C383 C 0.27766 0.32476 0.0933 0.0
C384 C 0.27508 0.34051 0.10064 0.0
C385 C 0.28368 0.35244 0.0909 0.0
C386 C 0.291 0.34337 0.0782 0.0
N387 N 0.3139 0.32398 0.05586 0.0
C388 C 0.31482 0.34106 0.05688 0.0
C389 C 0.32963 0.34787 0.05059 0.0
C390 C 0.33847 0.33416 0.04536 0.0
C391 C 0.32845 0.31974 0.0487 0.0
N392 N 0.28073 0.31698 0.04616 0.0
C393 C 0.25623 0.31799 0.02114 0.0
C394 C 0.25226 0.32094 0.03809 0.0
C395 C 0.26466 0.32043 0.05039 0.0
C396 C 0.27296 0.31634 0.0166 0.0
C397 C 0.28516 0.31621 0.02938 0.0
N398 N 0.30958 0.30003 0.08206 0.0
C399 C 0.32243 0.30357 0.10956 0.0
C400 C 0.32223 0.28585 0.1117 0.0
C401 C 0.31686 0.27549 0.09824 0.0
C402 C 0.31038 0.28276 0.08375 0.0
C403 C 0.31646 0.31043 0.09433 0.0
H404 H 0.30484 0.27421 0.07453 0.0
H405 H 0.31639 0.3241 0.09297 0.0
H406 H 0.26083 0.32128 0.06346 0.0
H407 H 0.29792 0.31407 0.02581 0.0
C408 C 0.2789 0.27317 0.04975 0.0
C409 C 0.33264 0.30218 0.0448 0.0
C410 C 0.26956 0.30861 0.0988 0.0
C411 C 0.30347 0.34961 0.06704 0.0
H412 H 0.33041 0.2708 0.0253 0.0
H413 H 0.30007 0.25554 0.02654 0.0
H414 H 0.25088 0.26015 0.06952 0.0
H415 H 0.24685 0.27885 0.09731 0.0
H416 H 0.2677 0.34313 0.11178 0.0
H417 H 0.28499 0.366 0.09324 0.0
H418 H 0.33395 0.36109 0.05074 0.0
H419 H 0.35088 0.33479 0.03998 0.0
H420 H 0.23942 0.32232 0.04198 0.0
H421 H 0.27642 0.31414 0.00351 0.0
H422 H 0.32653 0.31197 0.11975 0.0
H423 H 0.31625 0.26174 0.09949 0.0
C424 C 0.30818 0.07708 0.23052 0.0
C425 C 0.32515 0.07435 0.22987 0.0
C426 C 0.33225 0.08302 0.24327 0.0
C427 C 0.31932 0.09066 0.2513 0.0
N428 N 0.30436 0.08695 0.244 0.0
Co429 Co 0.28249 0.09676 0.25006 0.0
N430 N 0.29355 0.11461 0.26474 0.0
C431 C 0.30999 0.11644 0.26836 0.0
C432 C 0.31407 0.13121 0.27696 0.0
C433 C 0.29941 0.13947 0.27847 0.0
C434 C 0.28723 0.12917 0.27075 0.0
N435 N 0.26054 0.106 0.25647 0.0
C436 C 0.25725 0.12065 0.26455 0.0
C437 C 0.24019 0.12256 0.26628 0.0
C438 C 0.2325 0.10871 0.25873 0.0
C439 C 0.24524 0.09918 0.25283 0.0
N440 N 0.27152 0.07976 0.23444 0.0
C441 C 0.25499 0.07672 0.2321 0.0
C442 C 0.25134 0.06529 0.21935 0.0
C443 C 0.26648 0.0613 0.21278 0.0
C444 C 0.27846 0.07058 0.22195 0.0
N445 N 0.28029 0.08068 0.26993 0.0
C446 C 0.27417 0.06334 0.30112 0.0
C447 C 0.26325 0.06124 0.28737 0.0
C448 C 0.26662 0.06976 0.27199 0.0
C449 C 0.28887 0.07306 0.29845 0.0
C450 C 0.29168 0.08139 0.28296 0.0
N451 N 0.28466 0.11304 0.23097 0.0
C452 C 0.27221 0.13333 0.21217 0.0
C453 C 0.28788 0.14123 0.20909 0.0
C454 C 0.3019 0.13407 0.21624 0.0
C455 C 0.30003 0.12015 0.22705 0.0
C456 C 0.27092 0.11902 0.22287 0.0
H457 H 0.31119 0.11591 0.23278 0.0
H458 H 0.2587 0.11334 0.22503 0.0
H459 H 0.25774 0.06751 0.26219 0.0
H460 H 0.30308 0.08857 0.28214 0.0
C461 C 0.32134 0.10475 0.26218 0.0
C462 C 0.29614 0.07147 0.21749 0.0
C463 C 0.26987 0.13375 0.26898 0.0
C464 C 0.2433 0.08587 0.24115 0.0
H465 H 0.3319 0.06765 0.22026 0.0
H466 H 0.34546 0.08489 0.24581 0.0
H467 H 0.32635 0.13578 0.28099 0.0
H468 H 0.29786 0.15181 0.28422 0.0
H469 H 0.23388 0.13321 0.27165 0.0
H470 H 0.21924 0.1065 0.25672 0.0
H471 H 0.23914 0.06104 0.21482 0.0
H472 H 0.26849 0.05308 0.202 0.0
H473 H 0.2518 0.05357 0.28858 0.0
H474 H 0.29816 0.0745 0.30839 0.0
H475 H 0.26105 0.13833 0.20662 0.0
H476 H 0.31427 0.13978 0.21429 0.0
C477 C 0.21272 0.96744 0.53184 0.0
C478 C 0.22539 0.95607 0.52975 0.0
C479 C 0.22277 0.94836 0.51418 0.0
C480 C 0.20905 0.95587 0.50738 0.0
N481 N 0.20319 0.9678 0.51772 0.0
Co482 Co 0.1852 0.98318 0.51234 0.0
N483 N 0.17504 0.96684 0.49609 0.0
C484 C 0.1829 0.95403 0.48857 0.0
C485 C 0.17241 0.94454 0.47816 0.0
C486 C 0.1572 0.95204 0.47916 0.0
C487 C 0.15926 0.96588 0.49003 0.0
N488 N 0.16744 0.9989 0.507 0.0
C489 C 0.15238 0.99556 0.49984 0.0
C490 C 0.14393 0.01054 0.49774 0.0
C491 C 0.15423 0.02356 0.50382 0.0
C492 C 0.1684 0.0159 0.50923 0.0
N493 N 0.19545 0.99933 0.52859 0.0
C494 C 0.19435 0.0163 0.52823 0.0
C495 C 0.20413 0.02414 0.5405 0.0
C496 C 0.21166 0.01112 0.54902 0.0
C497 C 0.20561 0.99603 0.54175 0.0
N498 N 0.19864 0.99329 0.49375 0.0
C499 C 0.21735 0.00399 0.4653 0.0
C500 C 0.20011 0.00096 0.46416 0.0
C501 C 0.19105 0.99576 0.47843 0.0
C502 C 0.22502 0.00238 0.48123 0.0
C503 C 0.21542 0.99692 0.49534 0.0
N504 N 0.17144 0.97287 0.53032 0.0
C505 C 0.14742 0.97489 0.54833 0.0
C506 C 0.14485 0.95714 0.54786 0.0
C507 C 0.15698 0.94742 0.5401 0.0
C508 C 0.17015 0.95552 0.53141 0.0
C509 C 0.16102 0.98252 0.53968 0.0
H510 H 0.17841 0.9477 0.52431 0.0
H511 H 0.16234 0.99624 0.53942 0.0
H512 H 0.17786 0.99325 0.47682 0.0
H513 H 0.22158 0.99518 0.50739 0.0
C514 C 0.19917 0.94991 0.49364 0.0
C515 C 0.21017 0.97867 0.54655 0.0
C516 C 0.14668 0.97875 0.49331 0.0
C517 C 0.18163 0.02363 0.51863 0.0
H518 H 0.23536 0.95353 0.53854 0.0
H519 H 0.2296 0.93802 0.50886 0.0
H520 H 0.17528 0.93319 0.47115 0.0
H521 H 0.14598 0.94785 0.47252 0.0
H522 H 0.13175 0.01199 0.49212 0.0
H523 H 0.1515 0.03692 0.50458 0.0
H524 H 0.20514 0.03759 0.54344 0.0
H525 H 0.22036 0.01252 0.55948 0.0
H526 H 0.19364 0.00238 0.45219 0.0
H527 H 0.23834 0.00474 0.48263 0.0
H528 H 0.13852 0.98285 0.55451 0.0
H529 H 0.15554 0.93368 0.53937 0.0
C530 C 0.21712 0.92246 0.73562 0.0
C531 C 0.2008 0.92746 0.73702 0.0
C532 C 0.19456 0.92025 0.75184 0.0
C533 C 0.20739 0.91125 0.75865 0.0
N534 N 0.22118 0.91253 0.74894 0.0
Co535 Co 0.24213 0.90076 0.75274 0.0
N536 N 0.23082 0.88327 0.76712 0.0
C537 C 0.21606 0.88461 0.775 0.0
C538 C 0.21133 0.86984 0.78349 0.0
C539 C 0.22397 0.85872 0.78069 0.0
C540 C 0.23568 0.86736 0.77062 0.0
N541 N 0.26322 0.88936 0.75658 0.0
C542 C 0.26548 0.87318 0.76146 0.0
C543 C 0.28236 0.87005 0.76266 0.0
C544 C 0.29083 0.88503 0.75843 0.0
C545 C 0.27869 0.8964 0.75486 0.0
N546 N 0.25339 0.9181 0.73828 0.0
C547 C 0.26976 0.92245 0.73813 0.0
C548 C 0.27367 0.93465 0.72604 0.0
C549 C 0.2588 0.93801 0.71818 0.0
C550 C 0.24669 0.92763 0.72597 0.0
N551 N 0.2466 0.9147 0.77297 0.0
C552 C 0.2508 0.93319 0.80324 0.0
C553 C 0.24599 0.94128 0.78817 0.0
C554 C 0.24392 0.93179 0.77316 0.0
C555 C 0.25396 0.91582 0.80259 0.0
C556 C 0.25182 0.90688 0.78746 0.0
N557 N 0.23744 0.8864 0.73292 0.0
C558 C 0.24704 0.86831 0.71059 0.0
C559 C 0.23106 0.86049 0.70924 0.0
C560 C 0.21821 0.8667 0.71918 0.0
C561 C 0.22164 0.87953 0.73091 0.0
C562 C 0.24991 0.88147 0.72238 0.0
H563 H 0.21163 0.88311 0.73909 0.0
H564 H 0.26237 0.88706 0.72357 0.0
H565 H 0.23986 0.93815 0.7618 0.0
H566 H 0.25415 0.89347 0.78762 0.0
C567 C 0.20579 0.89828 0.77106 0.0
C568 C 0.22886 0.92729 0.72195 0.0
C569 C 0.25178 0.86089 0.76532 0.0
C570 C 0.28114 0.91221 0.74661 0.0
H571 H 0.19406 0.93519 0.72816 0.0
H572 H 0.18185 0.92057 0.75641 0.0
H573 H 0.19973 0.86713 0.79017 0.0
H574 H 0.22452 0.84583 0.78545 0.0
H575 H 0.28796 0.85822 0.76608 0.0
H576 H 0.30421 0.88707 0.75722 0.0
H577 H 0.28596 0.93974 0.72262 0.0
H578 H 0.25706 0.94687 0.70784 0.0
H579 H 0.24345 0.95472 0.78807 0.0
H580 H 0.25811 0.90908 0.81375 0.0
H581 H 0.2573 0.86397 0.703 0.0
H582 H 0.20572 0.86094 0.71872 0.0
C583 C 0.31975 0.03638 0.02646 0.0
C584 C 0.31031 0.05071 0.02471 0.0
C585 C 0.31213 0.05605 0.00811 0.0
C586 C 0.32264 0.04483 1.00066 0.0
N587 N 0.3274 0.03282 0.01162 0.0
Co588 Co 0.34383 0.01524 0.00714 0.0
N589 N 0.35391 0.02849 0.98815 0.0
C590 C 0.3465 0.04091 0.97947 0.0
C591 C 0.35638 0.04748 0.9666 0.0
C592 C 0.37075 0.03851 0.96719 0.0
C593 C 0.36888 0.02694 0.9805 0.0
N594 N 0.36009 0.99746 0.00287 0.0
C595 C 0.37477 0.9986 0.9944 0.0
C596 C 0.38271 0.9832 0.99516 0.0
C597 C 0.37231 0.97202 0.00394 0.0
C598 C 0.35871 0.98118 0.00825 0.0
N599 N 0.33369 0.00215 0.0261 0.0
C600 C 0.33453 0.98532 0.02882 0.0
C601 C 0.32652 0.98022 0.04355 0.0
C602 C 0.32042 0.99481 0.05043 0.0
C603 C 0.32513 0.00799 0.03949 0.0
N604 N 0.32838 0.00406 0.99096 0.0
C605 C 0.30697 0.99416 0.9644 0.0
C606 C 0.32424 0.99391 0.96242 0.0
C607 C 0.33466 0.99875 0.97579 0.0
C608 C 0.30049 0.99825 0.98038 0.0
C609 C 0.31148 0.00319 0.99357 0.0
N610 N 0.35954 0.02671 0.02267 0.0
C611 C 0.38407 0.02568 0.04019 0.0
C612 C 0.38705 0.04324 0.03795 0.0
C613 C 0.37523 0.05248 0.02918 0.0
C614 C 0.3617 0.044 0.02157 0.0
C615 C 0.36998 0.01768 0.03272 0.0
H616 H 0.3537 0.0514 0.01373 0.0
H617 H 0.36811 0.00408 0.03415 0.0
H618 H 0.34788 0.99909 0.97339 0.0
H619 H 0.30635 0.00706 0.00559 0.0
C620 C 0.33164 0.0477 0.98551 0.0
C621 C 0.32124 0.02589 0.04189 0.0
C622 C 0.38066 0.01353 0.98437 0.0
C623 C 0.34617 0.97597 0.01983 0.0
H624 H 0.3032 0.057 0.03433 0.0
H625 H 0.30738 0.06751 0.00256 0.0
H626 H 0.35369 0.05787 0.9581 0.0
H627 H 0.38127 0.04013 0.95864 0.0
H628 H 0.39471 0.98025 0.98989 0.0
H629 H 0.37474 0.95901 0.00739 0.0
H630 H 0.32614 0.96765 0.04922 0.0
H631 H 0.31362 0.99576 0.06225 0.0
H632 H 0.3297 0.99055 0.95034 0.0
H633 H 0.28714 0.99843 0.98239 0.0
H634 H 0.39288 0.01813 0.04704 0.0
H635 H 0.37711 0.06604 0.027 0.0
C636 C 0.75832 0.21289 0.96119 0.0
C637 C 0.75637 0.19638 0.96726 0.0
C638 C 0.76852 0.18717 0.95943 0.0
C639 C 0.77715 0.19856 0.94901 0.0
N640 N 0.77113 0.21424 0.95006 0.0
Co641 Co 0.77803 0.23424 0.93628 0.0
N642 N 0.78729 0.2198 0.91843 0.0
C643 C 0.79168 0.20356 0.92017 0.0
C644 C 0.79708 0.19691 0.90504 0.0
C645 C 0.79599 0.20987 0.89326 0.0
C646 C 0.78995 0.22368 0.9019 0.0
N647 N 0.78508 0.25441 0.92292 0.0
C648 C 0.78858 0.25542 0.90623 0.0
C649 C 0.7931 0.27206 0.90167 0.0
C650 C 0.79248 0.28162 0.91626 0.0
C651 C 0.78759 0.27036 0.92886 0.0
N652 N 0.76859 0.24855 0.95401 0.0
C653 C 0.77243 0.26505 0.95707 0.0
C654 C 0.76276 0.27144 0.96985 0.0
C655 C 0.75225 0.25807 0.97492 0.0
C656 C 0.75618 0.24432 0.96492 0.0
N657 N 0.79979 0.23533 0.94759 0.0
C658 C 0.83142 0.23801 0.96242 0.0
C659 C 0.81718 0.23555 0.9726 0.0
C660 C 0.80137 0.23413 0.96487 0.0
C661 C 0.82957 0.23894 0.94486 0.0
C662 C 0.81375 0.23763 0.93772 0.0
N663 N 0.75661 0.23306 0.92444 0.0
C664 C 0.7357 0.24682 0.90801 0.0
C665 C 0.73 0.23102 0.90153 0.0
C666 C 0.73714 0.21627 0.90771 0.0
C667 C 0.7504 0.21756 0.91905 0.0
C668 C 0.74891 0.24754 0.91966 0.0
H669 H 0.75628 0.206 0.92259 0.0
H670 H 0.75342 0.25983 0.92416 0.0
H671 H 0.79045 0.23223 0.97279 0.0
H672 H 0.81288 0.2387 0.92412 0.0
C673 C 0.78719 0.1943 0.93501 0.0
C674 C 0.74818 0.22731 0.96589 0.0
C675 C 0.78788 0.2407 0.89477 0.0
C676 C 0.78192 0.27468 0.94517 0.0
H677 H 0.74699 0.19144 0.97604 0.0
H678 H 0.76995 0.17356 0.96023 0.0
H679 H 0.80059 0.18398 0.90263 0.0
H680 H 0.79926 0.20928 0.87993 0.0
H681 H 0.79633 0.27688 0.88917 0.0
H682 H 0.79448 0.29528 0.91733 0.0
H683 H 0.76254 0.2845 0.97418 0.0
H684 H 0.74264 0.25842 0.98456 0.0
H685 H 0.81826 0.23482 0.98629 0.0
H686 H 0.84034 0.24092 0.93666 0.0
H687 H 0.73037 0.25852 0.90369 0.0
H688 H 0.73331 0.2038 0.90293 0.0
C689 C 0.03551 0.49126 0.19968 0.0
C690 C 0.0524 0.49549 0.19857 0.0
C691 C 0.05387 0.5096 0.18811 0.0
C692 C 0.0378 0.51318 0.18345 0.0
N693 N 0.02655 0.50216 0.19046 0.0
Co694 Co 0.00232 0.5012 0.1864 0.0
N695 N 0.00496 0.51366 0.16476 0.0
C696 C 0.01822 0.52359 0.16008 0.0
C697 C 0.01657 0.52966 0.14377 0.0
C698 C 0.00139 0.52309 0.13805 0.0
C699 C 0.99455 0.51341 0.15125 0.0
N700 N 0.9781 0.50013 0.1825 0.0
C701 C 0.96988 0.50123 0.16765 0.0
C702 C 0.95277 0.49968 0.1702 0.0
C703 C 0.9504 0.49745 0.18741 0.0
C704 C 0.96616 0.49781 0.19437 0.0
N705 N 0.99966 0.4888 0.20803 0.0
C706 C 0.98575 0.48744 0.21755 0.0
C707 C 0.98782 0.47727 0.23159 0.0
C708 C 0.00399 0.47199 0.23066 0.0
C709 C 0.01088 0.47931 0.21609 0.0
N710 N 1.00032 0.52293 0.19822 0.0
C711 C 0.99964 0.55542 0.21251 0.0
C712 C 0.98977 0.55118 0.19843 0.0
C713 C 0.99036 0.53495 0.19142 0.0
C714 C 0.00953 0.543 0.21969 0.0
C715 C 0.00954 0.5267 0.21246 0.0
N716 N 0.0044 0.47981 0.17419 0.0
C717 C 0.99308 0.45247 0.16522 0.0
C718 C 0.00549 0.45163 0.15271 0.0
C719 C 0.01767 0.46482 0.15173 0.0
C720 C 0.01689 0.47871 0.1625 0.0
C721 C 0.99287 0.46664 0.176 0.0
H722 H 0.02606 0.48893 0.1608 0.0
H723 H 0.98307 0.46727 0.18536 0.0
H724 H 0.98308 0.5323 0.18016 0.0
H725 H 0.01731 0.51728 0.21808 0.0
C726 C 0.03315 0.52339 0.16958 0.0
C727 C 0.028 0.4774 0.20999 0.0
C728 C 0.97813 0.50437 0.15125 0.0
C729 C 0.97039 0.49239 0.21083 0.0
H730 H 0.06251 0.48895 0.20451 0.0
H731 H 0.06533 0.51574 0.18355 0.0
H732 H 0.02574 0.53704 0.13648 0.0
H733 H 0.99618 0.52501 0.12555 0.0
H734 H 0.9431 0.49999 0.16062 0.0
H735 H 0.93866 0.49492 0.19389 0.0
H736 H 0.97844 0.47325 0.24079 0.0
H737 H 0.00983 0.46355 0.23953 0.0
H738 H 0.982 0.56053 0.19257 0.0
H739 H 0.01726 0.54591 0.23067 0.0
H740 H 0.9835 0.44245 0.16645 0.0
H741 H 0.02734 0.46488 0.14211 0.0
C742 C 0.75701 0.79999 0.48579 0.0
C743 C 0.75979 0.8167 0.4909 0.0
C744 C 0.74899 0.82621 0.4817 0.0
C745 C 0.7403 0.81479 0.4715 0.0
N746 N 0.74465 0.79854 0.4741 0.0
Co747 Co 0.73711 0.77795 0.46095 0.0
N748 N 0.72694 0.7922 0.4429 0.0
C749 C 0.72597 0.80934 0.44275 0.0
C750 C 0.72009 0.81554 0.42765 0.0
C751 C 0.71756 0.80153 0.41749 0.0
C752 C 0.72198 0.7876 0.42706 0.0
N753 N 0.72915 0.75727 0.44831 0.0
C754 C 0.72246 0.75603 0.43263 0.0
C755 C 0.7184 0.73919 0.42847 0.0
C756 C 0.723 0.72951 0.44201 0.0
C757 C 0.72956 0.74091 0.4536 0.0
N758 N 0.74829 0.76379 0.47835 0.0
C759 C 0.74788 0.74663 0.47959 0.0
C760 C 0.75858 0.74067 0.49164 0.0
C761 C 0.76673 0.75489 0.49799 0.0
C762 C 0.7604 0.76867 0.48947 0.0
N763 N 0.71549 0.77682 0.47379 0.0
C764 C 0.68126 0.77109 0.48123 0.0
C765 C 0.69289 0.75891 0.48527 0.0
C766 C 0.70986 0.76217 0.48182 0.0
C767 C 0.68742 0.787 0.47566 0.0
C768 C 0.70444 0.78964 0.47236 0.0
N769 N 0.75799 0.77905 0.44766 0.0
C770 C 0.77714 0.76548 0.42881 0.0
C771 C 0.78321 0.78139 0.42299 0.0
C772 C 0.77732 0.79599 0.43064 0.0
C773 C 0.76479 0.79455 0.4428 0.0
C774 C 0.76476 0.7646 0.4414 0.0
H775 H 0.76018 0.80622 0.44746 0.0
H776 H 0.76027 0.75219 0.44542 0.0
H777 H 0.718 0.75238 0.48526 0.0
H778 H 0.70809 0.80197 0.46795 0.0
C779 C 0.73196 0.81921 0.45651 0.0
C780 C 0.76727 0.786 0.49097 0.0
C781 C 0.72161 0.7702 0.42072 0.0
C782 C 0.73874 0.73657 0.46798 0.0
H783 H 0.76928 0.82154 0.4996 0.0
H784 H 0.74873 0.83997 0.48129 0.0
H785 H 0.71845 0.82871 0.42421 0.0
H786 H 0.71326 0.80153 0.40445 0.0
H787 H 0.71339 0.73431 0.41662 0.0
H788 H 0.72259 0.71574 0.44282 0.0
H789 H 0.76092 0.72754 0.49469 0.0
H790 H 0.77673 0.75511 0.50724 0.0
H791 H 0.68889 0.74669 0.49059 0.0
H792 H 0.6791 0.79716 0.47281 0.0
H793 H 0.78161 0.75385 0.42339 0.0
H794 H 0.78163 0.80857 0.42652 0.0
C795 C 0.95794 0.79306 0.27558 0.0
C796 C 0.96873 0.79111 0.28912 0.0
C797 C 0.96536 0.77499 0.29555 0.0
C798 C 0.95274 0.76805 0.28557 0.0
N799 N 0.94817 0.77887 0.27334 0.0
Co800 Co 0.92983 0.77516 0.2569 0.0
N801 N 0.91873 0.75778 0.27155 0.0
C802 C 0.92608 0.74896 0.28397 0.0
C803 C 0.91512 0.73756 0.29179 0.0
C804 C 0.90008 0.73935 0.28368 0.0
C805 C 0.90268 0.75183 0.27134 0.0
N806 N 0.91159 0.77155 0.24027 0.0
C807 C 0.89601 0.76482 0.24274 0.0
C808 C 0.88679 0.76553 0.22781 0.0
C809 C 0.89722 0.77253 0.21561 0.0
C810 C 0.91214 0.7759 0.22371 0.0
N811 N 0.94103 0.79254 0.24236 0.0
C812 C 0.93889 0.7946 0.22556 0.0
C813 C 0.94796 0.80847 0.21933 0.0
C814 C 0.95617 0.8155 0.23314 0.0
C815 C 0.95167 0.80543 0.24702 0.0
N816 N 0.94219 0.75709 0.24599 0.0
C817 C 0.95919 0.72747 0.23881 0.0
C818 C 0.94179 0.72766 0.23772 0.0
C819 C 0.93358 0.74244 0.24144 0.0
C820 C 0.96804 0.74296 0.24177 0.0
C821 C 0.95926 0.75773 0.24517 0.0
N822 N 0.91714 0.79259 0.26825 0.0
C823 C 0.89365 0.81072 0.2678 0.0
C824 C 0.89236 0.80946 0.28551 0.0
C825 C 0.90469 0.80114 0.29445 0.0
C826 C 0.91679 0.79263 0.28562 0.0
C827 C 0.90653 0.80256 0.25941 0.0
H828 H 0.92489 0.78486 0.29294 0.0
H829 H 0.90707 0.8032 0.24572 0.0
H830 H 0.92016 0.74154 0.2418 0.0
H831 H 0.96624 0.76936 0.24822 0.0
C832 C 0.94222 0.75386 0.2897 0.0
C833 C 0.95747 0.80805 0.26453 0.0
C834 C 0.8902 0.75677 0.25872 0.0
C835 C 0.92547 0.78614 0.21732 0.0
H836 H 0.97785 0.80041 0.2939 0.0
H837 H 0.9707 0.76949 0.30684 0.0
H838 H 0.91757 0.72937 0.3025 0.0
H839 H 0.88858 0.73221 0.28643 0.0
H840 H 0.87388 0.76155 0.22587 0.0
H841 H 0.89401 0.77562 0.20264 0.0
H842 H 0.94772 0.81359 0.20656 0.0
H843 H 0.9642 0.82686 0.23295 0.0
H844 H 0.93442 0.71616 0.23488 0.0
H845 H 0.98153 0.74348 0.24247 0.0
H846 H 0.88434 0.81717 0.26049 0.0
H847 H 0.90405 0.79973 0.30814 0.0
C848 C 0.55848 0.21244 0.74904 0.0
C849 C 0.54728 0.2129 0.7624 0.0
C850 C 0.54818 0.22937 0.76851 0.0
C851 C 0.55986 0.23797 0.75852 0.0
N852 N 0.56616 0.22783 0.7466 0.0
Co853 Co 0.58415 0.23394 0.73034 0.0
N854 N 0.59252 0.25283 0.7448 0.0
C855 C 0.58378 0.2606 0.75693 0.0
C856 C 0.59298 0.27352 0.76467 0.0
C857 C 0.60833 0.27382 0.7568 0.0
C858 C 0.60766 0.26099 0.74469 0.0
N859 N 0.60198 0.23996 0.71384 0.0
C860 C 0.61648 0.24893 0.71636 0.0
C861 C 0.62596 0.2494 0.70156 0.0
C862 C 0.61673 0.24081 0.68937 0.0
C863 C 0.60226 0.23537 0.69737 0.0
N864 N 0.57571 0.21499 0.71604 0.0
C865 C 0.57834 0.21295 0.69933 0.0
C866 C 0.57143 0.19777 0.69342 0.0
C867 C 0.56417 0.18988 0.70738 0.0
C868 C 0.56708 0.20076 0.72097 0.0
N869 N 0.56946 0.2497 0.71891 0.0
C870 C 0.54815 0.27581 0.71078 0.0
C871 C 0.56544 0.27873 0.71077 0.0
C872 C 0.57583 0.26556 0.71474 0.0
C873 C 0.54174 0.25913 0.7133 0.0
C874 C 0.55268 0.24617 0.71732 0.0
N875 N 0.59902 0.21878 0.74219 0.0
C876 C 0.62418 0.20307 0.74242 0.0
C877 C 0.62481 0.20426 0.76017 0.0
C878 C 0.61164 0.21154 0.76873 0.0
C879 C 0.59905 0.21892 0.75955 0.0
C880 C 0.61084 0.21004 0.73366 0.0
H881 H 0.59004 0.22582 0.7666 0.0
H882 H 0.61067 0.20937 0.71997 0.0
H883 H 0.589 0.26864 0.71562 0.0
H884 H 0.54752 0.23358 0.72018 0.0
C885 C 0.56829 0.25352 0.76253 0.0
C886 C 0.56153 0.19763 0.73842 0.0
C887 C 0.62095 0.25779 0.73231 0.0
C888 C 0.59058 0.22317 0.69103 0.0
H889 H 0.53954 0.20242 0.76732 0.0
H890 H 0.54194 0.23411 0.77963 0.0
H891 H 0.58923 0.28137 0.77518 0.0
H892 H 0.61873 0.28256 0.75955 0.0
H893 H 0.63828 0.25517 0.69968 0.0
H894 H 0.62056 0.23805 0.67651 0.0
H895 H 0.57255 0.1925 0.6808 0.0
H896 H 0.55778 0.1775 0.70763 0.0
H897 H 0.57089 0.29137 0.70847 0.0
H898 H 0.5284 0.25636 0.71319 0.0
H899 H 0.63421 0.19746 0.73541 0.0
H900 H 0.61181 0.2129 0.78243 0.0
C901 C 0.46247 0.50961 0.67384 0.0
C902 C 0.44539 0.50711 0.67579 0.0
C903 C 0.44071 0.49358 0.66546 0.0
C904 C 0.45519 0.48858 0.65782 0.0
N905 N 0.4685 0.49818 0.66288 0.0
Co906 Co 0.49151 0.49683 0.65443 0.0
N907 N 0.48386 0.48551 0.63335 0.0
C908 C 0.46913 0.4771 0.63099 0.0
C909 C 0.46745 0.47111 0.61462 0.0
C910 C 0.48204 0.47611 0.6064 0.0
C911 C 0.49179 0.48492 0.61824 0.0
N912 N 0.51458 0.49544 0.64622 0.0
C913 C 0.51998 0.49381 0.63012 0.0
C914 C 0.53728 0.49363 0.62962 0.0
C915 C 0.54271 0.49514 0.64616 0.0
C916 C 0.52848 0.49618 0.65579 0.0
N917 N 0.4991 0.50821 0.67545 0.0
C918 C 0.51443 0.50783 0.6823 0.0
C919 C 0.51588 0.5177 0.69668 0.0
C920 C 0.50051 0.52463 0.69884 0.0
C921 C 0.49052 0.51853 0.68563 0.0
N922 N 0.49328 0.47449 0.6652 0.0
C923 C 0.4935 0.44136 0.67832 0.0
C924 C 0.49997 0.44509 0.6622 0.0
C925 C 0.49987 0.46165 0.65597 0.0
C926 C 0.48747 0.4547 0.68811 0.0
C927 C 0.48735 0.47122 0.68124 0.0
N928 N 0.48966 0.5188 0.64311 0.0
C929 C 0.50308 0.54377 0.63072 0.0
C930 C 0.48937 0.54573 0.61989 0.0
C931 C 0.47536 0.53474 0.62198 0.0
C932 C 0.47573 0.52149 0.63366 0.0
C933 C 0.5029 0.53028 0.64241 0.0
H934 H 0.46512 0.51269 0.63409 0.0
H935 H 0.51381 0.52853 0.65014 0.0
H936 H 0.50483 0.46394 0.64341 0.0
H937 H 0.48219 0.48127 0.6887 0.0
C938 C 0.45624 0.47843 0.6431 0.0
C939 C 0.47297 0.52233 0.68286 0.0
C940 C 0.50882 0.49187 0.61542 0.0
C941 C 0.52772 0.50152 0.67282 0.0
H942 H 0.43723 0.51443 0.68364 0.0
H943 H 0.42812 0.48877 0.66298 0.0
H944 H 0.4566 0.46468 0.60904 0.0
H945 H 0.48512 0.47366 0.59327 0.0
H946 H 0.54515 0.49267 0.61852 0.0
H947 H 0.55551 0.4963 0.65048 0.0
H948 H 0.52702 0.52042 0.7041 0.0
H949 H 0.4972 0.53333 0.7088 0.0
H950 H 0.50505 0.43521 0.65438 0.0
H951 H 0.48247 0.45229 0.70071 0.0
H952 H 0.51405 0.55219 0.62978 0.0
H953 H 0.46451 0.53556 0.61387 0.0
C954 C 0.01684 0.28387 0.96277 0.0
C955 C 0.01687 0.28435 0.94519 0.0
C956 C 0.0273 0.29799 0.94059 0.0
C957 C 0.03302 0.30506 0.95562 0.0
N958 N 0.02679 0.29654 0.96917 0.0
Co959 Co 0.03 0.30269 0.99318 0.0
N960 N 0.03595 0.32653 0.98728 0.0
C961 C 0.04142 0.3323 0.9721 0.0
C962 C 0.04397 0.34974 0.97205 0.0
C963 C 0.03985 0.35502 0.98818 0.0
C964 C 0.03499 0.34046 0.99716 0.0
N965 N 0.03318 0.30855 0.01723 0.0
C966 C 0.03255 0.32395 0.02459 0.0
C967 C 0.03528 0.32275 0.04196 0.0
C968 C 0.03774 0.30583 0.04538 0.0
C969 C 0.03637 0.2977 0.02995 0.0
N970 N 0.02414 0.27886 0.999 0.0
C971 C 0.02833 0.27069 0.0133 0.0
C972 C 0.0221 0.25414 0.01358 0.0
C973 C 0.01347 0.25197 0.99855 0.0
C974 C 0.01492 0.26738 0.98993 0.0
N975 N 0.0536 0.29742 0.99157 0.0
C976 C 0.08764 0.29383 0.98562 0.0
C977 C 0.08209 0.30719 0.99552 0.0
C978 C 0.06513 0.30868 0.99844 0.0
C979 C 0.07592 0.28163 0.97953 0.0
C980 C 0.05885 0.2837 0.9826 0.0
N981 N 0.00665 0.30863 0.99466 0.0
C982 C 0.98125 0.31122 0.01062 0.0
C983 C 0.97504 0.32184 0.99798 0.0
C984 C 0.98469 0.3253 0.98355 0.0
C985 C 1.00042 0.31871 0.98219 0.0
C986 C 0.99708 0.30449 0.00858 0.0
H987 H 0.00771 0.32214 0.97114 0.0
H988 H 0.00187 0.29652 0.01849 0.0
H989 H 0.06135 0.31947 0.00572 0.0
H990 H 0.04987 0.27461 0.97727 0.0
C991 C 0.04032 0.32159 0.9577 0.0
C992 C 0.00761 0.27123 0.9733 0.0
C993 C 0.03014 0.33975 0.01513 0.0
C994 C 0.03453 0.28 0.02736 0.0
H995 H 0.00988 0.27593 0.93671 0.0
H996 H 0.02947 0.30285 0.92787 0.0
H997 H 0.0475 0.35778 0.96135 0.0
H998 H 0.04024 0.368 0.99276 0.0
H999 H 0.03543 0.33297 0.05116 0.0
H1000 H 0.03946 0.30008 0.05773 0.0
H1001 H 0.02284 0.24505 0.02388 0.0
H1002 H 0.00683 0.24042 0.99468 0.0
H1003 H 0.09082 0.3167 1.0007 0.0
H1004 H 0.07984 0.27103 0.97193 0.0
H1005 H 0.97409 0.30844 0.02203 0.0
H1006 H 0.98036 0.33364 0.97363 0.0
C1007 C 0.49544 0.72591 0.45063 0.0
C1008 C 0.4961 0.73105 0.4338 0.0
C1009 C 0.48535 0.72007 0.42504 0.0
C1010 C 0.47875 0.70887 0.43701 0.0
N1011 N 0.48473 0.71237 0.45262 0.0
Co1012 Co 0.48049 0.69895 0.47339 0.0
N1013 N 0.47406 0.67842 0.46022 0.0
C1014 C 0.46905 0.67802 0.44392 0.0
C1015 C 0.4659 0.6616 0.43836 0.0
C1016 C 0.46911 0.65125 0.45208 0.0
C1017 C 0.47409 0.66197 0.46525 0.0
N1018 N 0.47618 0.68587 0.49433 0.0
C1019 C 0.4758 0.66888 0.4965 0.0
C1020 C 0.47233 0.66468 0.51334 0.0
C1021 C 0.47042 0.67978 0.5218 0.0
C1022 C 0.47284 0.6923 0.50973 0.0
N1023 N 0.48696 0.71945 0.48648 0.0
C1024 C 0.48259 0.72282 0.50257 0.0
C1025 C 0.48951 0.73809 0.50815 0.0
C1026 C 0.49878 0.74453 0.4947 0.0
C1027 C 0.49695 0.73278 0.48162 0.0
N1028 N 0.45717 0.70543 0.47335 0.0
C1029 C 0.42339 0.71277 0.47136 0.0
C1030 C 0.43573 0.72574 0.46925 0.0
C1031 C 0.45266 0.72175 0.47013 0.0
C1032 C 0.42827 0.6963 0.47494 0.0
C1033 C 0.44509 0.69294 0.47603 0.0
N1034 N 0.50353 0.69183 0.47319 0.0
C1035 C 0.52724 0.68129 0.48806 0.0
C1036 C 0.53337 0.6747 0.47284 0.0
C1037 C 0.52482 0.6778 0.45775 0.0
C1038 C 0.50996 0.68625 0.45822 0.0
C1039 C 0.51238 0.69012 0.48791 0.0
H1040 H 0.50325 0.68745 0.44647 0.0
H1041 H 0.50754 0.69471 0.49978 0.0
H1042 H 0.46208 0.73173 0.46803 0.0
H1043 H 0.44828 0.68005 0.47883 0.0
C1044 C 0.47097 0.69277 0.43368 0.0
C1045 C 0.50462 0.73417 0.46471 0.0
C1046 C 0.47795 0.65667 0.48265 0.0
C1047 C 0.47546 0.70982 0.51287 0.0
H1048 H 0.50375 0.74138 0.42847 0.0
H1049 H 0.48356 0.71958 0.41142 0.0
H1050 H 0.46251 0.65755 0.42565 0.0
H1051 H 0.468 0.63748 0.45237 0.0
H1052 H 0.47134 0.6521 0.51895 0.0
H1053 H 0.46837 0.68142 0.53528 0.0
H1054 H 0.48879 0.74341 0.52079 0.0
H1055 H 0.50612 0.75634 0.49476 0.0
H1056 H 0.43235 0.73869 0.4666 0.0
H1057 H 0.41908 0.68601 0.47698 0.0
H1058 H 0.53357 0.67916 0.49999 0.0
H1059 H 0.529 0.67277 0.44574 0.0
C1060 C 0.71014 0.53526 0.46938 0.0
C1061 C 0.72088 0.54934 0.47149 0.0
C1062 C 0.71859 0.55493 0.48791 0.0
C1063 C 0.70659 0.54399 0.49486 0.0
N1064 N 0.70141 0.53194 0.48377 0.0
Co1065 Co 0.68332 0.51453 0.48734 0.0
N1066 N 0.67318 0.52807 0.50539 0.0
C1067 C 0.68102 0.54054 0.5144 0.0
C1068 C 0.67074 0.54741 0.52634 0.0
C1069 C 0.65565 0.5386 0.52472 0.0
C1070 C 0.65753 0.52682 0.5118 0.0
N1071 N 0.66544 0.49688 0.49081 0.0
C1072 C 0.6503 0.49828 0.49811 0.0
C1073 C 0.64118 0.4829 0.49714 0.0
C1074 C 0.65125 0.4715 0.48938 0.0
C1075 C 0.66586 0.4805 0.48585 0.0
N1076 N 0.69351 0.50118 0.46927 0.0
C1077 C 0.69143 0.48436 0.4666 0.0
C1078 C 0.69961 0.47925 0.4522 0.0
C1079 C 0.70711 0.49385 0.4455 0.0
C1080 C 0.70305 0.50698 0.45624 0.0
N1081 N 0.69685 0.50354 0.50462 0.0
C1082 C 0.71607 0.49567 0.53301 0.0
C1083 C 0.69865 0.4946 0.53375 0.0
C1084 C 0.68932 0.49851 0.51949 0.0
C1085 C 0.72373 0.49916 0.51728 0.0
C1086 C 0.71383 0.503 0.50315 0.0
N1087 N 0.66958 0.52592 0.47065 0.0
C1088 C 0.64612 0.52526 0.45155 0.0
C1089 C 0.64538 0.54299 0.4527 0.0
C1090 C 0.65765 0.55204 0.46188 0.0
C1091 C 0.6694 0.5433 0.47095 0.0
C1092 C 0.6587 0.51696 0.4603 0.0
H1093 H 0.67759 0.55067 0.47915 0.0
H1094 H 0.659 0.50327 0.45952 0.0
H1095 H 0.67598 0.49856 0.52095 0.0
H1096 H 0.71993 0.50653 0.49134 0.0
C1097 C 0.69687 0.54715 0.50935 0.0
C1098 C 0.70828 0.52488 0.45399 0.0
C1099 C 0.64488 0.51363 0.50697 0.0
C1100 C 0.6786 0.47511 0.47506 0.0
H1101 H 0.72918 0.55517 0.46214 0.0
H1102 H 0.72411 0.56634 0.49359 0.0
H1103 H 0.67366 0.55793 0.53482 0.0
H1104 H 0.64462 0.54049 0.5323 0.0
H1105 H 0.62857 0.48013 0.50147 0.0
H1106 H 0.64796 0.45846 0.48595 0.0
H1107 H 0.69917 0.4667 0.44654 0.0
H1108 H 0.71436 0.49483 0.43392 0.0
H1109 H 0.69222 0.49147 0.54553 0.0
H1110 H 0.73719 0.49987 0.51613 0.0
H1111 H 0.63673 0.51789 0.44455 0.0
H1112 H 0.65728 0.56574 0.46327 0.0
C1113 C 0.7897 0.44096 0.76987 0.0
C1114 C 0.80668 0.44495 0.7695 0.0
C1115 C 0.81277 0.43771 0.7549 0.0
C1116 C 0.79921 0.42966 0.74721 0.0
N1117 N 0.78512 0.43157 0.75615 0.0
Co1118 Co 0.76297 0.42108 0.75103 0.0
N1119 N 0.77277 0.40324 0.73705 0.0
C1120 C 0.78801 0.40393 0.72992 0.0
C1121 C 0.79126 0.38913 0.72139 0.0
C1122 C 0.77714 0.3787 0.72335 0.0
C1123 C 0.76608 0.38774 0.73301 0.0
N1124 N 0.74074 0.41089 0.74595 0.0
C1125 C 0.73671 0.39488 0.74095 0.0
C1126 C 0.71958 0.39265 0.73887 0.0
C1127 C 0.7128 0.40801 0.74271 0.0
C1128 C 0.72614 0.41871 0.74692 0.0
N1129 N 0.75321 0.43882 0.76501 0.0
C1130 C 0.73748 0.44409 0.76427 0.0
C1131 C 0.73451 0.45633 0.77627 0.0
C1132 C 0.7493 0.45873 0.785 0.0
C1133 C 0.76043 0.44778 0.77779 0.0
N1134 N 0.7614 0.43538 0.73073 0.0
C1135 C 0.76239 0.4536 0.70016 0.0
C1136 C 0.75665 0.43662 0.70062 0.0
C1137 C 0.75612 0.42783 0.71594 0.0
C1138 C 0.76693 0.46165 0.71546 0.0
C1139 C 0.76645 0.45223 0.73068 0.0
N1140 N 0.7647 0.40625 0.77084 0.0
C1141 C 0.75093 0.38763 0.79119 0.0
C1142 C 0.76508 0.37773 0.79185 0.0
C1143 C 0.77951 0.38344 0.78334 0.0
C1144 C 0.77911 0.39779 0.77305 0.0
C1145 C 0.75102 0.40199 0.78058 0.0
H1146 H 0.79013 0.40112 0.76578 0.0
H1147 H 0.73971 0.4089 0.77929 0.0
H1148 H 0.75188 0.41466 0.71566 0.0
H1149 H 0.77053 0.45838 0.74231 0.0
C1150 C 0.79979 0.4169 0.73464 0.0
C1151 C 0.77785 0.44623 0.78291 0.0
C1152 C 0.74903 0.38201 0.73757 0.0
C1153 C 0.72529 0.43455 0.75512 0.0
H1154 H 0.81396 0.45203 0.77886 0.0
H1155 H 0.82571 0.43734 0.75107 0.0
H1156 H 0.80279 0.38593 0.71524 0.0
H1157 H 0.77521 0.36595 0.71835 0.0
H1158 H 0.7127 0.38115 0.7351 0.0
H1159 H 0.69969 0.41072 0.74324 0.0
H1160 H 0.72276 0.46205 0.77907 0.0
H1161 H 0.75161 0.46731 0.79555 0.0
H1162 H 0.75274 0.43006 0.68911 0.0
H1163 H 0.77132 0.47486 0.71556 0.0
H1164 H 0.7396 0.38367 0.79784 0.0
H1165 H 0.79079 0.3763 0.78389 0.0
C1166 C 0.79415 0.47646 0.97468 0.0
C1167 C 0.77986 0.466 0.97397 0.0
C1168 C 0.77702 0.46012 0.99028 0.0
C1169 C 0.78971 0.46734 0.99998 0.0
N1170 N 0.80018 0.47737 0.99069 0.0
Co1171 Co 0.82068 0.48945 0.99884 0.0
N1172 N 0.82228 0.47414 0.01866 0.0
C1173 C 0.80978 0.46416 0.02508 0.0
C1174 C 0.81484 0.4546 0.03864 0.0
C1175 C 0.83145 0.45901 0.04089 0.0
C1176 C 0.83563 0.47118 0.02863 0.0
N1177 N 0.84113 0.50178 0.00681 0.0
C1178 C 0.85284 0.4967 0.01785 0.0
C1179 C 0.86491 0.50964 0.0204 0.0
C1180 C 0.86047 0.52317 0.01054 0.0
C1181 C 0.84595 0.51785 0.00259 0.0
N1182 N 0.81902 0.50471 0.97904 0.0
C1183 C 0.82603 0.52044 0.97746 0.0
C1184 C 0.82295 0.52757 0.96185 0.0
C1185 C 0.81345 0.51548 0.95318 0.0
C1186 C 0.81125 0.50168 0.96407 0.0
N1187 N 0.80725 0.5046 0.01252 0.0
C1188 C 0.78761 0.52359 0.03426 0.0
C1189 C 0.80311 0.51807 0.0395 0.0
C1190 C 0.81259 0.50853 0.02859 0.0
C1191 C 0.78213 0.5197 0.01775 0.0
C1192 C 0.79231 0.51037 0.00693 0.0
N1193 N 0.83422 0.47402 0.98578 0.0
C1194 C 0.86104 0.46815 0.97401 0.0
C1195 C 0.85766 0.45064 0.97611 0.0
C1196 C 0.84174 0.44508 0.98144 0.0
C1197 C 0.83027 0.45695 0.98633 0.0
C1198 C 0.84893 0.47967 0.97855 0.0
H1199 H 0.81875 0.45218 0.99189 0.0
H1200 H 0.85195 0.49313 0.97745 0.0
H1201 H 0.82411 0.50393 0.03348 0.0
H1202 H 0.78799 0.50749 0.99422 0.0
C1203 C 0.79459 0.4619 0.01621 0.0
C1204 C 0.80151 0.48599 0.96032 0.0
C1205 C 0.8519 0.48052 0.02732 0.0
C1206 C 0.83817 0.52625 0.98915 0.0
H1207 H 0.77245 0.46284 0.96284 0.0
H1208 H 0.76749 0.45084 0.9943 0.0
H1209 H 0.80755 0.44502 0.0456 0.0
H1210 H 0.83951 0.45383 0.05047 0.0
H1211 H 0.87566 0.50946 0.0287 0.0
H1212 H 0.86731 0.53522 0.00896 0.0
H1213 H 0.82783 0.53964 0.95695 0.0
H1214 H 0.80888 0.51665 0.94032 0.0
H1215 H 0.80767 0.52061 0.05224 0.0
H1216 H 0.77015 0.5238 0.01329 0.0
H1217 H 0.87319 0.47289 0.96971 0.0
H1218 H 0.83866 0.43166 0.9833 0.0
C1219 C 0.71306 0.58421 0.26712 0.0
C1220 C 0.69613 0.58025 0.26586 0.0
C1221 C 0.69036 0.58968 0.2524 0.0
C1222 C 0.70409 0.59882 0.24622 0.0
N1223 N 0.71796 0.59553 0.25502 0.0
Co1224 Co 0.74018 0.60664 0.25206 0.0
N1225 N 0.7307 0.62646 0.24076 0.0
C1226 C 0.71568 0.62692 0.23324 0.0
C1227 C 0.71259 0.64295 0.22714 0.0
C1228 C 0.72656 0.65296 0.23115 0.0
C1229 C 0.73738 0.64246 0.23951 0.0
N1230 N 0.76248 0.61753 0.24912 0.0
C1231 C 0.76652 0.63417 0.24693 0.0
C1232 C 0.7837 0.63678 0.24566 0.0
C1233 C 0.79047 0.621 0.24709 0.0
C1234 C 0.77709 0.6097 0.24916 0.0
N1235 N 0.74964 0.58685 0.26334 0.0
C1236 C 0.76542 0.58182 0.26211 0.0
C1237 C 0.76815 0.56779 0.27209 0.0
C1238 C 0.75314 0.56396 0.28001 0.0
C1239 C 0.74209 0.57587 0.27434 0.0
N1240 N 0.74241 0.59567 0.22991 0.0
C1241 C 0.74518 0.58126 0.1975 0.0
C1242 C 0.73902 0.57147 0.21126 0.0
C1243 C 0.73776 0.57892 0.2274 0.0
C1244 C 0.74979 0.59837 0.2004 0.0
C1245 C 0.7484 0.60525 0.21657 0.0
N1246 N 0.73787 0.61807 0.27387 0.0
C1247 C 0.75054 0.63167 0.29826 0.0
C1248 C 0.73609 0.64084 0.30098 0.0
C1249 C 0.72224 0.63739 0.29055 0.0
C1250 C 0.72335 0.62596 0.27721 0.0
C1251 C 0.75111 0.62021 0.28468 0.0
H1252 H 0.71272 0.62438 0.26894 0.0
H1253 H 0.76253 0.61374 0.28238 0.0
H1254 H 0.733 0.57121 0.23783 0.0
H1255 H 0.75205 0.61848 0.2182 0.0
C1256 C 0.70379 0.61339 0.23568 0.0
C1257 C 0.72454 0.57673 0.27929 0.0
C1258 C 0.75418 0.6474 0.24553 0.0
C1259 C 0.7778 0.59272 0.25481 0.0
H1260 H 0.68878 0.57168 0.27393 0.0
H1261 H 0.67751 0.5906 0.24841 0.0
H1262 H 0.70121 0.64712 0.22136 0.0
H1263 H 0.72852 0.66639 0.2284 0.0
H1264 H 0.79061 0.64878 0.24405 0.0
H1265 H 0.80359 0.61828 0.24753 0.0
H1266 H 0.77986 0.56174 0.27422 0.0
H1267 H 0.75073 0.55378 0.28906 0.0
H1268 H 0.73536 0.55817 0.20964 0.0
H1269 H 0.75425 0.60659 0.19017 0.0
H1270 H 0.76144 0.6337 0.30621 0.0
H1271 H 0.71085 0.64421 0.29197 0.0
C1272 C 0.24226 0.31333 0.11268 0.0
C1273 C 0.25892 0.30877 0.11412 0.0
C1274 C 0.23282 0.31614 0.12722 0.0
C1275 C 0.22895 0.30644 0.17237 0.0
H1276 H 0.20255 0.34678 0.17307 0.0
C1277 C 0.18276 0.31658 0.2266 0.0
C1278 C 0.16669 0.32014 0.22082 0.0
C1279 C 0.19652 0.31874 0.21576 0.0
C1280 C 0.20982 0.33546 0.17309 0.0
H1281 H 0.2789 0.30341 0.13151 0.0
H1282 H 0.26216 0.30784 0.15722 0.0
H1283 H 0.22133 0.34208 0.1493 0.0
H1284 H 0.1526 0.33033 0.19993 0.0
H1285 H 0.1764 0.33393 0.181 0.0
H1286 H 0.21688 0.29932 0.19567 0.0
C1287 C 0.25643 0.30925 0.14486 0.0
C1288 C 0.22056 0.33277 0.15947 0.0
C1289 C 0.26595 0.30663 0.13025 0.0
C1290 C 0.16485 0.32739 0.20465 0.0
C1291 C 0.17855 0.32953 0.19383 0.0
C1292 C 0.21807 0.30904 0.18592 0.0
C1293 C 0.23988 0.31436 0.14345 0.0
C1294 C 0.2299 0.31802 0.15877 0.0
C1295 C 0.19444 0.32452 0.19898 0.0
C1296 C 0.20804 0.32336 0.18622 0.0
H1297 H 0.23677 0.31528 0.10028 0.0
H1298 H 0.22003 0.31984 0.12578 0.0
H1299 H 0.23598 0.29495 0.17211 0.0
H1300 H 0.18452 0.31089 0.23899 0.0
H1301 H 0.20864 0.31508 0.22024 0.0
C1302 C 0.96471 0.87685 0.50138 0.0
C1303 C 0.95275 0.86351 0.49928 0.0
C1304 C 0.96777 0.88861 0.48829 0.0
C1305 C 0.96454 0.88921 0.44163 0.0
H1306 H 0.98254 0.93546 0.44631 0.0
C1307 C 0.97969 0.93408 0.38495 0.0
C1308 C 0.99431 0.94446 0.38596 0.0
C1309 C 0.97467 0.9238 0.39865 0.0
C1310 C 0.97769 0.92248 0.44487 0.0
H1311 H 0.93344 0.8529 0.48283 0.0
H1312 H 0.93808 0.87398 0.4603 0.0
H1313 H 0.97121 0.92042 0.47121 0.0
H1314 H 0.01565 0.95156 0.40164 0.0
H1315 H 0.00685 0.93356 0.42571 0.0
H1316 H 0.9709 0.89137 0.41527 0.0
C1317 C 0.94555 0.87505 0.47173 0.0
C1318 C 0.97113 0.91389 0.45911 0.0
C1319 C 0.94267 0.86317 0.48472 0.0
C1320 C 0.00435 0.94363 0.40053 0.0
C1321 C 0.99922 0.9335 0.41435 0.0
C1322 C 0.97095 0.89785 0.4274 0.0
C1323 C 0.9588 0.88729 0.47295 0.0
C1324 C 0.96453 0.8971 0.45768 0.0
C1325 C 0.9841 0.92384 0.41369 0.0
C1326 C 0.97768 0.91453 0.42889 0.0
H1327 H 0.97284 0.87716 0.51239 0.0
H1328 H 0.97809 0.89779 0.4897 0.0
H1329 H 0.95999 0.87615 0.44009 0.0
H1330 H 0.97175 0.93452 0.37383 0.0
H1331 H 0.96296 0.91651 0.39779 0.0
C1332 C 0.2707 0.68687 0.61534 0.0
C1333 C 0.25462 0.69283 0.61764 0.0
C1334 C 0.28082 0.68388 0.62935 0.0
C1335 C 0.28899 0.69564 0.67314 0.0
H1336 H 0.31235 0.65331 0.67416 0.0
C1337 C 0.34075 0.68663 0.72173 0.0
C1338 C 0.35567 0.68176 0.71412 0.0
C1339 C 0.32556 0.68421 0.71318 0.0
C1340 C 0.30592 0.66518 0.6741 0.0
H1341 H 0.23642 0.70066 0.636 0.0
H1342 H 0.25444 0.69595 0.66076 0.0
H1343 H 0.29155 0.65793 0.65216 0.0
H1344 H 0.36626 0.66891 0.69258 0.0
H1345 H 0.33996 0.66487 0.67757 0.0
H1346 H 0.30399 0.70339 0.69439 0.0
C1347 C 0.25914 0.69348 0.64813 0.0
C1348 C 0.29402 0.66781 0.66151 0.0
C1349 C 0.2489 0.69626 0.63406 0.0
C1350 C 0.35493 0.67289 0.69866 0.0
C1351 C 0.3398 0.6705 0.69012 0.0
C1352 C 0.30103 0.6931 0.68564 0.0
C1353 C 0.27506 0.68692 0.64589 0.0
C1354 C 0.28583 0.68327 0.66061 0.0
C1355 C 0.32505 0.67689 0.69689 0.0
C1356 C 0.31003 0.67805 0.68593 0.0
H1357 H 0.27519 0.68399 0.60272 0.0
H1358 H 0.29314 0.67909 0.62726 0.0
H1359 H 0.28287 0.70768 0.67269 0.0
H1360 H 0.34097 0.69358 0.73361 0.0
H1361 H 0.31437 0.68896 0.7189 0.0
C1362 C 0.57818 0.15934 0.9505 0.0
C1363 C 0.57316 0.15524 0.96717 0.0
C1364 C 0.57739 0.14702 0.93776 0.0
C1365 C 0.55328 0.10704 0.92879 0.0
H1366 H 0.57768 0.10993 0.88633 0.0
C1367 C 0.52848 0.07155 0.86962 0.0
C1368 C 0.54024 0.06384 0.85921 0.0
C1369 C 0.5337 0.08308 0.88224 0.0
C1370 C 0.57081 0.10876 0.89814 0.0
H1371 H 0.56545 0.13458 0.98404 0.0
H1372 H 0.56502 0.11278 0.96201 0.0
H1373 H 0.5873 0.12689 0.9104 0.0
H1374 H 0.56658 0.06327 0.85301 0.0
H1375 H 0.5757 0.08261 0.87538 0.0
H1376 H 0.53721 0.0884 0.9168 0.0
C1377 C 0.56878 0.12572 0.95857 0.0
C1378 C 0.57625 0.11867 0.91195 0.0
C1379 C 0.56935 0.13814 0.97129 0.0
C1380 C 0.55721 0.0687 0.86106 0.0
C1381 C 0.56244 0.08 0.8738 0.0
C1382 C 0.54801 0.09693 0.91509 0.0
C1383 C 0.57184 0.13021 0.94147 0.0
C1384 C 0.56741 0.11815 0.92741 0.0
C1385 C 0.5508 0.08704 0.88487 0.0
C1386 C 0.55655 0.09782 0.89948 0.0
H1387 H 0.58141 0.1724 0.94701 0.0
H1388 H 0.57988 0.15108 0.92483 0.0
H1389 H 0.54591 0.10645 0.94032 0.0
H1390 H 0.51532 0.06809 0.86856 0.0
H1391 H 0.52431 0.0886 0.89019 0.0
C1392 C 0.26634 0.16198 0.25526 0.0
C1393 C 0.26494 0.1517 0.2698 0.0
C1394 C 0.25789 0.17721 0.25432 0.0
C1395 C 0.23148 0.20643 0.27975 0.0
H1396 H 0.20859 0.21162 0.23674 0.0
C1397 C 0.16721 0.2355 0.27335 0.0
C1398 C 0.16523 0.24808 0.2609 0.0
C1399 C 0.18188 0.22657 0.27419 0.0
C1400 C 0.21508 0.21051 0.24874 0.0
H1401 H 0.25473 0.14949 0.29513 0.0
H1402 H 0.23965 0.17574 0.29354 0.0
H1403 H 0.23079 0.19145 0.23908 0.0
H1404 H 0.17649 0.26061 0.239 0.0
H1405 H 0.20219 0.24443 0.24008 0.0
H1406 H 0.21485 0.22473 0.28959 0.0
C1407 C 0.24744 0.17247 0.2829 0.0
C1408 C 0.2279 0.199 0.2501 0.0
C1409 C 0.25606 0.15739 0.28387 0.0
C1410 C 0.17792 0.25113 0.24886 0.0
C1411 C 0.19253 0.24191 0.24948 0.0
C1412 C 0.21848 0.21771 0.27843 0.0
C1413 C 0.24771 0.18228 0.26786 0.0
C1414 C 0.236 0.19647 0.26576 0.0
C1415 C 0.1947 0.22968 0.26229 0.0
C1416 C 0.2099 0.21955 0.26302 0.0
H1417 H 0.27315 0.15772 0.24426 0.0
H1418 H 0.25876 0.18459 0.2427 0.0
H1419 H 0.23765 0.20517 0.29189 0.0
H1420 H 0.15737 0.23261 0.28247 0.0
H1421 H 0.18308 0.21695 0.28395 0.0
C1422 C 0.03607 0.84926 0.54608 0.0
C1423 C 0.02035 0.85283 0.53949 0.0
C1424 C 0.048 0.86238 0.54872 0.0
C1425 C 0.06069 0.90571 0.53573 0.0
H1426 H 0.08602 0.90549 0.57773 0.0
C1427 C 0.11363 0.9556 0.5474 0.0
C1428 C 0.12867 0.94878 0.55289 0.0
C1429 C 0.09865 0.94593 0.5484 0.0
C1430 C 0.07911 0.90571 0.56591 0.0
H1431 H 0.00454 0.87259 0.53046 0.0
H1432 H 0.02563 0.89575 0.53479 0.0
H1433 H 0.06348 0.88423 0.57324 0.0
H1434 H 0.13955 0.9271 0.56507 0.0
H1435 H 0.11357 0.91013 0.56659 0.0
H1436 H 0.07668 0.92676 0.52809 0.0
C1437 C 0.02875 0.88281 0.53784 0.0
C1438 C 0.0662 0.89354 0.56335 0.0
C1439 C 0.01673 0.86964 0.53532 0.0
C1440 C 0.12819 0.93263 0.5606 0.0
C1441 C 0.11324 0.92295 0.56157 0.0
C1442 C 0.07368 0.91784 0.53825 0.0
C1443 C 0.04442 0.87932 0.54481 0.0
C1444 C 0.05709 0.89319 0.54809 0.0
C1445 C 0.0984 0.92923 0.5549 0.0
C1446 C 0.08326 0.91778 0.55324 0.0
H1447 H 0.03895 0.83635 0.54957 0.0
H1448 H 0.06004 0.85927 0.55387 0.0
H1449 H 0.05395 0.90569 0.5238 0.0
H1450 H 0.11357 0.96796 0.54128 0.0
H1451 H 0.08739 0.95127 0.54344 0.0
C1452 C 0.25413 0.83465 0.74835 0.0
C1453 C 0.25498 0.84254 0.76427 0.0
C1454 C 0.26258 0.81972 0.74544 0.0
C1455 C 0.28828 0.78643 0.76532 0.0
H1456 H 0.317 0.79561 0.72642 0.0
C1457 C 0.34445 0.74512 0.74548 0.0
C1458 C 0.35934 0.7549 0.74333 0.0
C1459 C 0.32922 0.75312 0.74734 0.0
C1460 C 0.30897 0.79277 0.73722 0.0
H1461 H 0.26397 0.84057 0.79005 0.0
H1462 H 0.27878 0.81439 0.7851 0.0
H1463 H 0.29311 0.81313 0.73126 0.0
H1464 H 0.37027 0.78051 0.74235 0.0
H1465 H 0.3437 0.79447 0.74497 0.0
H1466 H 0.30477 0.76641 0.77153 0.0
C1467 C 0.27148 0.81952 0.77485 0.0
C1468 C 0.29517 0.80269 0.73993 0.0
C1469 C 0.26297 0.83447 0.77774 0.0
C1470 C 0.35886 0.77272 0.74342 0.0
C1471 C 0.3437 0.78068 0.74498 0.0
C1472 C 0.30205 0.77634 0.76248 0.0
C1473 C 0.27214 0.81254 0.75842 0.0
C1474 C 0.2849 0.79995 0.75424 0.0
C1475 C 0.32872 0.77098 0.74692 0.0
C1476 C 0.31279 0.77978 0.74868 0.0
H1477 H 0.24809 0.84081 0.73783 0.0
H1478 H 0.26262 0.81447 0.73272 0.0
H1479 H 0.28057 0.78399 0.77643 0.0
H1480 H 0.34464 0.73134 0.74576 0.0
H1481 H 0.31785 0.74538 0.74891 0.0
C1482 C 0.41813 0.04532 0.03603 0.0
C1483 C 0.40325 0.0518 0.04228 0.0
C1484 C 0.4328 0.05557 0.03567 0.0
C1485 C 0.45172 0.09735 0.04984 0.0
H1486 H 0.47214 0.09769 0.00513 0.0
C1487 C 0.48734 0.15621 0.02364 0.0
C1488 C 0.50268 0.15383 0.01562 0.0
C1489 C 0.47686 0.14224 0.02778 0.0
C1490 C 0.46674 0.0976 0.01775 0.0
H1491 H 0.39233 0.07338 0.05448 0.0
H1492 H 0.41777 0.09127 0.05384 0.0
H1493 H 0.45169 0.07513 0.01265 0.0
H1494 H 0.51924 0.13528 0.00552 0.0
H1495 H 0.50064 0.11061 0.01247 0.0
H1496 H 0.4663 0.12022 0.05464 0.0
C1497 C 0.41827 0.07832 0.04924 0.0
C1498 C 0.45508 0.08462 0.02212 0.0
C1499 C 0.40365 0.06811 0.04957 0.0
C1500 C 0.50728 0.13732 0.01143 0.0
C1501 C 0.4967 0.12329 0.01547 0.0
C1502 C 0.46328 0.11036 0.04543 0.0
C1503 C 0.43283 0.07245 0.0416 0.0
C1504 C 0.44713 0.08457 0.03808 0.0
C1505 C 0.48154 0.12561 0.02401 0.0
C1506 C 0.4706 0.11085 0.02919 0.0
H1507 H 0.41815 0.03284 0.03021 0.0
H1508 H 0.44388 0.05056 0.02998 0.0
H1509 H 0.44606 0.09753 0.06233 0.0
H1510 H 0.48375 0.16887 0.02722 0.0
H1511 H 0.46514 0.14444 0.03411 0.0
C1512 C 0.02331 0.99253 0.40551 0.0
C1513 C 0.02464 0.00973 0.4008 0.0
C1514 C 0.03186 0.98675 0.41974 0.0
C1515 C 0.05852 1.00035 0.4566 0.0
H1516 H 0.08507 0.96268 0.44241 0.0
C1517 C 0.11549 0.97819 0.49521 0.0
C1518 C 0.12996 0.97728 0.48526 0.0
C1519 C 0.09985 0.97941 0.48747 0.0
C1520 C 0.07766 0.9731 0.44665 0.0
H1521 H 0.03476 0.03466 0.40762 0.0
H1522 H 0.04979 0.02469 0.43253 0.0
H1523 H 0.06131 0.9706 0.42532 0.0
H1524 H 0.13962 0.97727 0.45958 0.0
H1525 H 0.11238 0.97885 0.44604 0.0
H1526 H 0.07557 0.00334 0.47747 0.0
C1527 C 0.042 0.01561 0.42549 0.0
C1528 C 0.06391 0.97755 0.43696 0.0
C1529 C 0.0334 0.02137 0.41127 0.0
C1530 C 0.12857 0.97734 0.4675 0.0
C1531 C 0.11298 0.97832 0.45978 0.0
C1532 C 0.07226 0.99582 0.46637 0.0
C1533 C 0.042 0.9981 0.42938 0.0
C1534 C 0.05448 0.99156 0.44152 0.0
C1535 C 0.09847 0.97964 0.46965 0.0
C1536 C 0.08229 0.9825 0.46116 0.0
H1537 H 0.01668 0.9834 0.39745 0.0
H1538 H 0.03137 0.97324 0.42256 0.0
H1539 H 0.05143 0.01112 0.46052 0.0
H1540 H 0.11637 0.97851 0.50894 0.0
H1541 H 0.08888 0.98044 0.49538 0.0
C1542 C 0.19991 0.72141 0.64345 0.0
C1543 C 0.18794 0.72402 0.63078 0.0
C1544 C 0.20313 0.73384 0.65584 0.0
C1545 C 0.18942 0.77495 0.67344 0.0
H1546 H 0.2365 0.78806 0.67059 0.0
C1547 C 0.21291 0.84277 0.68974 0.0
C1548 C 0.2278 0.84485 0.69905 0.0
C1549 C 0.20812 0.82696 0.6829 0.0
C1550 C 0.22337 0.78448 0.6718 0.0
H1551 H 0.16854 0.74042 0.62232 0.0
H1552 H 0.17378 0.7619 0.64416 0.0
H1553 H 0.22647 0.76095 0.65879 0.0
H1554 H 0.24981 0.83219 0.70764 0.0
H1555 H 0.24138 0.80447 0.69585 0.0
H1556 H 0.18626 0.79861 0.6862 0.0
C1557 C 0.18085 0.75043 0.64451 0.0
C1558 C 0.21762 0.76887 0.66509 0.0
C1559 C 0.17775 0.7381 0.63204 0.0
C1560 C 0.23828 0.831 0.7005 0.0
C1561 C 0.23342 0.8151 0.69377 0.0
C1562 C 0.19518 0.79051 0.68024 0.0
C1563 C 0.19426 0.74894 0.65585 0.0
C1564 C 0.20053 0.76409 0.66552 0.0
C1565 C 0.21805 0.81278 0.68528 0.0
C1566 C 0.21217 0.79566 0.67914 0.0
H1567 H 0.208 0.71072 0.64267 0.0
H1568 H 0.21335 0.73221 0.66462 0.0
H1569 H 0.17621 0.77155 0.67408 0.0
H1570 H 0.2047 0.8533 0.6882 0.0
H1571 H 0.19647 0.82579 0.67596 0.0
C1572 C 0.40959 0.02383 0.97609 0.0
C1573 C 0.39592 0.01236 0.97381 0.0
C1574 C 0.42391 0.02255 0.96601 0.0
C1575 C 0.44719 0.99222 0.94146 0.0
H1576 H 0.46178 0.03002 0.91269 0.0
C1577 C 0.48484 0.98258 0.88056 0.0
C1578 C 0.49515 0.9959 0.87422 0.0
C1579 C 0.47572 0.98475 0.89546 0.0
C1580 C 0.45824 0.01942 0.92091 0.0
H1581 H 0.38597 0.99122 0.95886 0.0
H1582 H 0.41117 0.98857 0.94171 0.0
H1583 H 0.44001 0.03399 0.93379 0.0
H1584 H 0.50482 0.02157 0.87854 0.0
H1585 H 0.48949 0.02524 0.90512 0.0
H1586 H 0.46529 0.97757 0.92875 0.0
C1587 C 0.41094 0.99839 0.95135 0.0
C1588 C 0.44568 0.02173 0.93295 0.0
C1589 C 0.39658 0.99989 0.96112 0.0
C1590 C 0.497 0.0111 0.8834 0.0
C1591 C 0.48804 0.01324 0.89845 0.0
C1592 C 0.45993 0.98998 0.92966 0.0
C1593 C 0.42476 0.00965 0.95373 0.0
C1594 C 0.43972 0.008 0.94294 0.0
C1595 C 0.47685 1.00029 0.9044 0.0
C1596 C 0.46526 0.00339 0.91882 0.0
H1597 H 0.40919 0.03368 0.98566 0.0
H1598 H 0.43439 0.03146 0.96795 0.0
H1599 H 0.4429 0.98149 0.94919 0.0
H1600 H 0.48308 0.97087 0.87343 0.0
H1601 H 0.46707 0.97457 0.89937 0.0
C1602 C 0.28032 0.1715 0.20386 0.0
C1603 C 0.28995 0.15754 0.19966 0.0
C1604 C 0.28444 0.18772 0.1973 0.0
C1605 C 0.32065 0.21241 0.1797 0.0
H1606 H 0.28778 0.2424 0.16157 0.0
C1607 C 0.3348 0.2635 0.12946 0.0
C1608 C 0.32469 0.27764 0.12837 0.0
C1609 C 0.3324 0.25159 0.14251 0.0
C1610 C 0.29712 0.23439 0.16697 0.0
H1611 H 0.31065 0.14933 0.18443 0.0
H1612 H 0.31768 0.17746 0.17282 0.0
H1613 H 0.27865 0.21546 0.17463 0.0
H1614 H 0.30551 0.29152 0.14103 0.0
H1615 H 0.30141 0.27081 0.16405 0.0
H1616 H 0.33915 0.23107 0.17159 0.0
C1617 C 0.30727 0.17604 0.18154 0.0
C1618 C 0.29186 0.21889 0.17437 0.0
C1619 C 0.30315 0.15991 0.18806 0.0
C1620 C 0.3135 0.28074 0.14163 0.0
C1621 C 0.311 0.26876 0.15466 0.0
C1622 C 0.32591 0.2279 0.17234 0.0
C1623 C 0.29827 0.19022 0.18644 0.0
C1624 C 0.3036 0.2075 0.18033 0.0
C1625 C 0.31978 0.2536 0.15468 0.0
C1626 C 0.31423 0.23886 0.16545 0.0
H1627 H 0.27017 0.17007 0.2129 0.0
H1628 H 0.27725 0.19839 0.20128 0.0
H1629 H 0.32999 0.20408 0.18458 0.0
H1630 H 0.34345 0.26081 0.11931 0.0
H1631 H 0.33937 0.24007 0.14207 0.0
C1632 C 0.76071 0.35847 0.81706 0.0
C1633 C 0.76462 0.36069 0.79981 0.0
C1634 C 0.76207 0.34248 0.82469 0.0
C1635 C 0.7628 0.2967 0.81744 0.0
H1636 H 0.79388 0.29644 0.85518 0.0
C1637 C 0.79929 0.25017 0.86694 0.0
C1638 C 0.78564 0.24385 0.87648 0.0
C1639 C 0.79667 0.26092 0.85311 0.0
C1640 C 0.78534 0.29629 0.84451 0.0
H1641 H 0.77215 0.34797 0.77678 0.0
H1642 H 0.77395 0.31994 0.79 0.0
H1643 H 0.78763 0.32336 0.84153 0.0
H1644 H 0.75879 0.24138 0.87786 0.0
H1645 H 0.75411 0.2598 0.85333 0.0
H1646 H 0.76009 0.26957 0.82095 0.0
C1647 C 0.77005 0.33053 0.79764 0.0
C1648 C 0.78158 0.3117 0.8369 0.0
C1649 C 0.76908 0.34655 0.79013 0.0
C1650 C 0.76941 0.24613 0.87054 0.0
C1651 C 0.76677 0.25671 0.85658 0.0
C1652 C 0.76629 0.28124 0.82534 0.0
C1653 C 0.76695 0.32845 0.81505 0.0
C1654 C 0.77027 0.31205 0.82335 0.0
C1655 C 0.78039 0.26519 0.84863 0.0
C1656 C 0.77768 0.28094 0.83888 0.0
H1657 H 0.75728 0.36922 0.82473 0.0
H1658 H 0.75961 0.3411 0.83817 0.0
H1659 H 0.75407 0.29672 0.80694 0.0
H1660 H 0.8119 0.24865 0.87148 0.0
H1661 H 0.80736 0.26722 0.84704 0.0
C1662 C 0.96295 0.5119 0.12458 0.0
C1663 C 0.96914 0.49948 0.13546 0.0
C1664 C 0.95231 0.50716 0.11117 0.0
C1665 C 0.92102 0.47413 0.10022 0.0
H1666 H 0.92245 0.49525 0.05563 0.0
C1667 C 0.86368 0.47959 0.05673 0.0
C1668 C 0.86572 0.47701 0.03922 0.0
C1669 C 0.87738 0.47926 0.06766 0.0
C1670 C 0.922 0.48907 0.06795 0.0
H1671 H 0.96934 0.47251 0.14098 0.0
H1672 H 0.95069 0.46415 0.11754 0.0
H1673 H 0.94533 0.50091 0.07565 0.0
H1674 H 0.88351 0.47215 0.01933 0.0
H1675 H 0.90767 0.4717 0.03849 0.0
H1676 H 0.89745 0.46273 0.09273 0.0
C1677 C 0.9541 0.47751 0.11927 0.0
C1678 C 0.93502 0.49243 0.07945 0.0
C1679 C 0.96483 0.48225 0.13257 0.0
C1680 C 0.88165 0.47382 0.03285 0.0
C1681 C 0.89542 0.47372 0.04376 0.0
C1682 C 0.90792 0.47093 0.08881 0.0
C1683 C 0.94748 0.48994 0.10861 0.0
C1684 C 0.93455 0.48518 0.09579 0.0
C1685 C 0.89346 0.47671 0.06125 0.0
C1686 C 0.90816 0.47856 0.07264 0.0
H1687 H 0.96568 0.52529 0.12692 0.0
H1688 H 0.94719 0.51704 0.10335 0.0
H1689 H 0.92022 0.46848 0.11278 0.0
H1690 H 0.85162 0.48266 0.06184 0.0
H1691 H 0.87552 0.4819 0.08102 0.0
C1692 C 0.70812 0.76049 0.3939 0.0
C1693 C 0.72257 0.76632 0.40241 0.0
C1694 C 0.7094 0.74999 0.37971 0.0
C1695 C 0.73689 0.73066 0.34837 0.0
H1696 H 0.71489 0.68831 0.36306 0.0
C1697 C 0.74927 0.66652 0.31543 0.0
C1698 C 0.73561 0.65491 0.31354 0.0
C1699 C 0.74793 0.68107 0.32549 0.0
C1700 C 0.72086 0.70004 0.35849 0.0
H1701 H 0.74953 0.76772 0.40191 0.0
H1702 H 0.75185 0.74972 0.37674 0.0
H1703 H 0.71098 0.71416 0.3791 0.0
H1704 H 0.7101 0.64909 0.32146 0.0
H1705 H 0.70748 0.67462 0.33822 0.0
H1706 H 0.74658 0.71659 0.32756 0.0
C1707 C 0.73957 0.7531 0.38103 0.0
C1708 C 0.7186 0.71488 0.36772 0.0
C1709 C 0.73827 0.76346 0.39534 0.0
C1710 C 0.72081 0.65787 0.32243 0.0
C1711 C 0.71938 0.67248 0.33225 0.0
C1712 C 0.73891 0.71582 0.33887 0.0
C1713 C 0.72516 0.7454 0.37381 0.0
C1714 C 0.72659 0.73031 0.36279 0.0
C1715 C 0.73284 0.68441 0.33379 0.0
C1716 C 0.73096 0.70027 0.34386 0.0
H1717 H 0.69593 0.76242 0.39934 0.0
H1718 H 0.69812 0.74427 0.37425 0.0
H1719 H 0.74329 0.74241 0.34442 0.0
H1720 H 0.76081 0.66473 0.30863 0.0
H1721 H 0.75868 0.68976 0.32662 0.0
C1722 C 0.7675 0.67413 0.2342 0.0
C1723 C 0.7598 0.66535 0.24775 0.0
C1724 C 0.77739 0.68883 0.23724 0.0
C1725 C 0.80327 0.70664 0.27208 0.0
H1726 H 0.81603 0.73945 0.23711 0.0
C1727 C 0.86169 0.75509 0.27197 0.0
C1728 C 0.87297 0.74928 0.25983 0.0
C1729 C 0.8453 0.74822 0.27256 0.0
C1730 C 0.81239 0.73056 0.24711 0.0
H1731 H 0.75503 0.66544 0.27476 0.0
H1732 H 0.77164 0.69165 0.28012 0.0
H1733 H 0.7899 0.72265 0.23432 0.0
H1734 H 0.87651 0.73121 0.23955 0.0
H1735 H 0.84773 0.71964 0.24017 0.0
H1736 H 0.82606 0.71449 0.28461 0.0
C1737 C 0.77054 0.68703 0.2672 0.0
C1738 C 0.79753 0.72081 0.24547 0.0
C1739 C 0.76084 0.67218 0.26415 0.0
C1740 C 0.86786 0.73618 0.2487 0.0
C1741 C 0.85148 0.72959 0.24905 0.0
C1742 C 0.81798 0.71663 0.27385 0.0
C1743 C 0.77964 0.69507 0.25391 0.0
C1744 C 0.79315 0.70815 0.25754 0.0
C1745 C 0.84006 0.73563 0.26089 0.0
C1746 C 0.82292 0.72816 0.26106 0.0
H1747 H 0.76704 0.66882 0.22151 0.0
H1748 H 0.7843 0.69442 0.22667 0.0
H1749 H 0.80053 0.69692 0.28156 0.0
H1750 H 0.86554 0.765 0.28085 0.0
H1751 H 0.83668 0.75285 0.28193 0.0
C1752 C 0.64127 0.28067 0.72253 0.0
C1753 C 0.63723 0.26728 0.7338 0.0
C1754 C 0.65671 0.28937 0.72356 0.0
C1755 C 0.688 0.30454 0.75213 0.0
H1756 H 0.71637 0.30911 0.71232 0.0
C1757 C 0.74187 0.35437 0.75154 0.0
C1758 C 0.74331 0.36397 0.73659 0.0
C1759 C 0.73276 0.33885 0.75169 0.0
C1760 C 0.70858 0.30807 0.72355 0.0
H1761 H 0.64551 0.25308 0.75561 0.0
H1762 H 0.67254 0.26897 0.75792 0.0
H1763 H 0.69209 0.28937 0.7119 0.0
H1764 H 0.737 0.36503 0.70995 0.0
H1765 H 0.72051 0.33835 0.71012 0.0
H1766 H 0.70343 0.32412 0.7634 0.0
C1767 C 0.66393 0.27223 0.74793 0.0
C1768 C 0.69478 0.29666 0.72332 0.0
C1769 C 0.64855 0.26322 0.74665 0.0
C1770 C 0.73626 0.35756 0.72154 0.0
C1771 C 0.72684 0.34222 0.7217 0.0
C1772 C 0.7016 0.31621 0.75226 0.0
C1773 C 0.66818 0.28521 0.73622 0.0
C1774 C 0.68417 0.29512 0.73746 0.0
C1775 C 0.72446 0.33294 0.73693 0.0
C1776 C 0.71182 0.3185 0.73779 0.0
H1777 H 0.63248 0.28433 0.71286 0.0
H1778 H 0.65959 0.29961 0.71465 0.0
H1779 H 0.67988 0.30363 0.76314 0.0
H1780 H 0.74697 0.35937 0.76332 0.0
H1781 H 0.73156 0.33193 0.76357 0.0
C1782 C 0.46689 0.62817 0.49153 0.0
C1783 C 0.48071 0.63883 0.48735 0.0
C1784 C 0.46869 0.6148 0.50304 0.0
C1785 C 0.49606 0.58858 0.52808 0.0
H1786 H 0.4711 0.60452 0.56675 0.0
C1787 C 0.50437 0.56004 0.59534 0.0
C1788 C 0.48994 0.55793 0.60541 0.0
C1789 C 0.50402 0.56937 0.58017 0.0
C1790 C 0.47792 0.59959 0.55608 0.0
H1791 H 0.50734 0.643 0.49007 0.0
H1792 H 0.51067 0.61917 0.50975 0.0
H1793 H 0.46838 0.61838 0.53937 0.0
H1794 H 0.46413 0.56484 0.60791 0.0
H1795 H 0.46325 0.58026 0.58134 0.0
H1796 H 0.50532 0.56948 0.54465 0.0
C1797 C 0.49849 0.62114 0.50428 0.0
C1798 C 0.47635 0.60759 0.54038 0.0
C1799 C 0.49664 0.63467 0.49297 0.0
C1800 C 0.47541 0.56598 0.60035 0.0
C1801 C 0.47498 0.57505 0.58513 0.0
C1802 C 0.49737 0.58027 0.54377 0.0
C1803 C 0.48436 0.61186 0.51023 0.0
C1804 C 0.48536 0.60216 0.52626 0.0
C1805 C 0.48919 0.57669 0.57467 0.0
C1806 C 0.4883 0.58569 0.558 0.0
H1807 H 0.45447 0.63141 0.48756 0.0
H1808 H 0.45764 0.60778 0.5075 0.0
H1809 H 0.50328 0.58434 0.51735 0.0
H1810 H 0.51575 0.5539 0.59876 0.0
H1811 H 0.51532 0.57063 0.57267 0.0
C1812 C 0.70605 0.21637 0.88636 0.0
C1813 C 0.71824 0.22968 0.887 0.0
C1814 C 0.69725 0.21292 0.87138 0.0
C1815 C 0.68703 0.23044 0.82897 0.0
H1816 H 0.67913 0.18269 0.81796 0.0
C1817 C 0.65448 0.21118 0.76701 0.0
C1818 C 0.64004 0.20091 0.76992 0.0
C1819 C 0.6668 0.21279 0.77953 0.0
C1820 C 0.68131 0.19606 0.82085 0.0
H1821 H 0.72998 0.25051 0.87274 0.0
H1822 H 0.71486 0.24435 0.84649 0.0
H1823 H 0.69391 0.19058 0.84404 0.0
H1824 H 0.62777 0.1831 0.78728 0.0
H1825 H 0.64944 0.18554 0.809 0.0
H1826 H 0.67432 0.23589 0.80581 0.0
C1827 C 0.712 0.2366 0.85758 0.0
C1828 C 0.68963 0.20061 0.83586 0.0
C1829 C 0.72068 0.24016 0.87265 0.0
C1830 C 0.6389 0.19095 0.78472 0.0
C1831 C 0.65129 0.19241 0.79715 0.0
C1832 C 0.67882 0.22589 0.81391 0.0
C1833 C 0.70052 0.22263 0.85663 0.0
C1834 C 0.69232 0.21786 0.84027 0.0
C1835 C 0.66491 0.20403 0.79505 0.0
C1836 C 0.67564 0.20865 0.80981 0.0
H1837 H 0.70368 0.20826 0.89732 0.0
H1838 H 0.68811 0.20241 0.87127 0.0
H1839 H 0.68873 0.24383 0.83202 0.0
H1840 H 0.65551 0.21917 0.75578 0.0
H1841 H 0.67729 0.22168 0.7775 0.0
C1842 C 0.99065 0.4333 0.13095 0.0
C1843 C 0.00539 0.43797 0.13975 0.0
C1844 C 0.99128 0.42299 0.11648 0.0
C1845 C 0.01952 0.41434 0.08197 0.0
H1846 H 0.99357 0.37246 0.07423 0.0
C1847 C 0.03783 0.36563 0.0319 0.0
C1848 C 0.02544 0.355 0.02456 0.0
C1849 C 0.03359 0.37754 0.04414 0.0
C1850 C 0.00064 0.38434 0.07596 0.0
H1851 H 0.03203 0.4344 0.1412 0.0
H1852 H 0.03312 0.41669 0.11585 0.0
H1853 H 0.98917 0.38875 0.10014 0.0
H1854 H 0.99903 0.34865 0.02339 0.0
H1855 H 0.99135 0.37003 0.0443 0.0
H1856 H 0.03094 0.41019 0.05788 0.0
C1857 C 0.02117 0.42118 0.11998 0.0
C1858 C 0.99818 0.39357 0.09088 0.0
C1859 C 0.02053 0.43126 0.13449 0.0
C1860 C 0.00868 0.35698 0.02885 0.0
C1861 C 0.00438 0.36902 0.04096 0.0
C1862 C 0.02181 0.40529 0.06697 0.0
C1863 C 0.00666 0.41738 0.11057 0.0
C1864 C 0.00792 0.40839 0.09418 0.0
C1865 C 0.01685 0.37906 0.04919 0.0
C1866 C 0.01273 0.38992 0.06397 0.0
H1867 H 0.97883 0.43842 0.13462 0.0
H1868 H 0.97992 0.42016 0.10941 0.0
H1869 H 0.02697 0.42594 0.08412 0.0
H1870 H 0.05087 0.36396 0.02896 0.0
H1871 H 0.04358 0.38481 0.05034 0.0
C1872 C 0.79047 0.77463 0.39286 0.0
C1873 C 0.79442 0.7832 0.40806 0.0
C1874 C 0.7992 0.7787 0.3779 0.0
C1875 C 0.82519 0.81387 0.35885 0.0
H1876 H 0.83761 0.7796 0.32638 0.0
C1877 C 0.87821 0.82251 0.31018 0.0
C1878 C 0.87701 0.81363 0.29475 0.0
C1879 C 0.86517 0.82135 0.32194 0.0
C1880 C 0.83392 0.78938 0.33513 0.0
H1881 H 0.81125 0.80191 0.41984 0.0
H1882 H 0.8268 0.80867 0.39392 0.0
H1883 H 0.82178 0.77109 0.35163 0.0
H1884 H 0.86076 0.79789 0.27877 0.0
H1885 H 0.83785 0.79596 0.29929 0.0
H1886 H 0.83786 0.83208 0.3426 0.0
C1887 C 0.81661 0.79923 0.39335 0.0
C1888 C 0.8249 0.78448 0.34966 0.0
C1889 C 0.80783 0.79523 0.40824 0.0
C1890 C 0.86192 0.80499 0.29053 0.0
C1891 C 0.84892 0.80368 0.30237 0.0
C1892 C 0.83427 0.81876 0.34436 0.0
C1893 C 0.81212 0.79136 0.3779 0.0
C1894 C 0.82073 0.79662 0.36187 0.0
C1895 C 0.85076 0.81117 0.31851 0.0
C1896 C 0.839 0.80653 0.3325 0.0
H1897 H 0.78007 0.76543 0.39231 0.0
H1898 H 0.79538 0.77243 0.36622 0.0
H1899 H 0.82181 0.82362 0.36778 0.0
H1900 H 0.88978 0.82915 0.31373 0.0
H1901 H 0.86701 0.82723 0.33426 0.0
C1902 C 0.5166 0.51024 0.59068 0.0
C1903 C 0.51589 0.49406 0.59821 0.0
C1904 C 0.52686 0.51351 0.57657 0.0
C1905 C 0.55525 0.49244 0.54562 0.0
H1906 H 0.58137 0.53483 0.54992 0.0
C1907 C 0.62437 0.50146 0.52804 0.0
C1908 C 0.62823 0.5134 0.51521 0.0
C1909 C 0.60845 0.50042 0.53517 0.0
C1910 C 0.57399 0.52309 0.5484 0.0
H1911 H 0.52445 0.46839 0.59677 0.0
H1912 H 0.54267 0.47398 0.57251 0.0
H1913 H 0.55634 0.53013 0.56718 0.0
H1914 H 0.61906 0.5344 0.50054 0.0
H1915 H 0.59108 0.53304 0.51369 0.0
H1916 H 0.57388 0.48499 0.52784 0.0
C1917 C 0.5351 0.48417 0.57697 0.0
C1918 C 0.55956 0.52037 0.5582 0.0
C1919 C 0.52468 0.48089 0.5909 0.0
C1920 C 0.6162 0.52495 0.51027 0.0
C1921 C 0.6003 0.52416 0.51771 0.0
C1922 C 0.56984 0.49505 0.5361 0.0
C1923 C 0.53681 0.50068 0.56996 0.0
C1924 C 0.55027 0.50478 0.55733 0.0
C1925 C 0.59626 0.51165 0.52998 0.0
C1926 C 0.57952 0.5102 0.53775 0.0
H1927 H 0.50993 0.52056 0.59628 0.0
H1928 H 0.52754 0.52628 0.57133 0.0
H1929 H 0.54824 0.48047 0.54425 0.0
H1930 H 0.63363 0.49272 0.53232 0.0
H1931 H 0.60566 0.49089 0.54484 0.0
C1932 C 0.95859 0.34387 0.01217 0.0
C1933 C 0.95942 0.3309 1.00001 0.0
C1934 C 0.94637 0.35602 0.01088 0.0
C1935 C 0.90676 0.36684 0.99081 0.0
H1936 H 0.92693 0.41242 0.98755 0.0
C1937 C 0.86863 0.42265 0.96719 0.0
C1938 C 0.87108 0.43828 0.9756 0.0
C1939 C 0.87968 0.40956 0.96972 0.0
C1940 C 0.921 0.39985 0.98866 0.0
H1941 H 0.94759 0.31953 0.97786 0.0
H1942 H 0.9258 0.34041 0.97595 0.0
H1943 H 0.94404 0.38869 0.99536 0.0
H1944 H 0.88717 0.4527 0.99285 0.0
H1945 H 0.90623 0.42985 0.99763 0.0
H1946 H 0.88365 0.37792 0.98448 0.0
C1947 C 0.93463 0.34131 0.98635 0.0
C1948 C 0.93082 0.38626 0.99316 0.0
C1949 C 0.94702 0.32935 0.98747 0.0
C1950 C 0.88518 0.44087 0.98597 0.0
C1951 C 0.89609 0.42771 0.98872 0.0
C1952 C 0.89685 0.38048 0.98657 0.0
C1953 C 0.93467 0.35518 0.99758 0.0
C1954 C 0.92382 0.36963 0.99419 0.0
C1955 C 0.89324 0.41172 0.98098 0.0
C1956 C 0.90386 0.39716 0.9853 0.0
H1957 H 0.96814 0.3454 0.02183 0.0
H1958 H 0.94654 0.36653 0.01977 0.0
H1959 H 0.90108 0.35413 0.99154 0.0
H1960 H 0.85782 0.42037 0.95913 0.0
H1961 H 0.87733 0.39761 0.96317 0.0
C1962 C 0.61581 0.54973 0.45672 0.0
C1963 C 0.63061 0.55221 0.44739 0.0
C1964 C 0.60405 0.56239 0.45704 0.0
C1965 C 0.60448 0.60902 0.45274 0.0
H1966 H 0.55722 0.60297 0.46238 0.0
C1967 C 0.54665 0.64827 0.48285 0.0
C1968 C 0.54725 0.66284 0.47247 0.0
C1969 C 0.55714 0.63486 0.47958 0.0
C1970 C 0.57045 0.6048 0.45986 0.0
H1971 H 0.64404 0.56875 0.42968 0.0
H1972 H 0.62307 0.59047 0.42939 0.0
H1973 H 0.57308 0.57846 0.45393 0.0
H1974 H 0.56018 0.67551 0.45153 0.0
H1975 H 0.5788 0.65226 0.44607 0.0
H1976 H 0.60178 0.63538 0.45855 0.0
C1977 C 0.62076 0.57911 0.43698 0.0
C1978 C 0.57952 0.59078 0.45495 0.0
C1979 C 0.63263 0.56657 0.43687 0.0
C1980 C 0.55944 0.66437 0.45967 0.0
C1981 C 0.57007 0.65107 0.45655 0.0
C1982 C 0.59538 0.62303 0.45748 0.0
C1983 C 0.60686 0.57765 0.44789 0.0
C1984 C 0.59669 0.59269 0.45145 0.0
C1985 C 0.5686 0.63594 0.46607 0.0
C1986 C 0.57832 0.62104 0.46125 0.0
H1987 H 0.61417 0.53888 0.46517 0.0
H1988 H 0.59354 0.5608 0.46562 0.0
H1989 H 0.61776 0.61095 0.45059 0.0
H1990 H 0.53736 0.64676 0.49279 0.0
H1991 H 0.55596 0.62345 0.4873 0.0
C1992 C 0.02715 0.08482 0.29538 0.0
C1993 C 0.01936 0.08173 0.31113 0.0
C1994 C 0.03089 0.10152 0.28994 0.0
C1995 C 0.02206 0.14701 0.29796 0.0
H1996 H 0.06709 0.15501 0.28109 0.0
C1997 C 0.05517 0.21424 0.29393 0.0
C1998 C 0.06657 0.21712 0.28061 0.0
C1999 C 0.04735 0.19808 0.29612 0.0
C2000 C 0.05436 0.15304 0.28548 0.0
H2001 H 0.00841 0.09376 0.33303 0.0
H2002 H 0.01507 0.12281 0.32368 0.0
H2003 H 0.05698 0.12612 0.28711 0.0
H2004 H 0.07796 0.206 0.25854 0.0
H2005 H 0.06401 0.17813 0.26197 0.0
H2006 H 0.01958 0.17406 0.29653 0.0
C2007 C 0.01831 0.11238 0.31548 0.0
C2008 C 0.04856 0.13641 0.28894 0.0
C2009 C 0.01465 0.09571 0.32093 0.0
C2010 C 0.06933 0.20399 0.26901 0.0
C2011 C 0.06143 0.18799 0.27108 0.0
C2012 C 0.02786 0.1637 0.29444 0.0
C2013 C 0.0268 0.1155 0.3001 0.0
C2014 C 0.03238 0.13317 0.29532 0.0
C2015 C 0.05074 0.18464 0.28495 0.0
C2016 C 0.04413 0.16693 0.28822 0.0
H2017 H 0.03097 0.07433 0.28756 0.0
H2018 H 0.03724 0.1035 0.27792 0.0
H2019 H 0.00948 0.14493 0.30274 0.0
H2020 H 0.05294 0.22419 0.30305 0.0
H2021 H 0.03925 0.19594 0.30699 0.0
C2022 C 0.15248 0.69773 0.5348 0.0
C2023 C 0.16376 0.70382 0.54718 0.0
C2024 C 0.13566 0.70174 0.53563 0.0
C2025 C 0.10373 0.7181 0.56527 0.0
H2026 H 0.08037 0.7282 0.52357 0.0
C2027 C 0.0448 0.7587 0.54281 0.0
C2028 C 0.03271 0.75394 0.55501 0.0
C2029 C 0.05939 0.74981 0.54128 0.0
C2030 C 0.08669 0.7254 0.53535 0.0
H2031 H 0.16668 0.71933 0.56972 0.0
H2032 H 0.13741 0.72687 0.57095 0.0
H2033 H 0.10897 0.71914 0.52227 0.0
H2034 H 0.02599 0.73572 0.57473 0.0
H2035 H 0.05178 0.71987 0.57204 0.0
H2036 H 0.08165 0.72526 0.57836 0.0
C2037 C 0.14133 0.71853 0.5609 0.0
C2038 C 0.10308 0.72003 0.5346 0.0
C2039 C 0.15812 0.71442 0.5601 0.0
C2040 C 0.03517 0.7396 0.56524 0.0
C2041 C 0.04995 0.73067 0.56377 0.0
C2042 C 0.08733 0.72357 0.56603 0.0
C2043 C 0.12983 0.71212 0.54876 0.0
C2044 C 0.11194 0.71662 0.54956 0.0
C2045 C 0.06233 0.73585 0.5519 0.0
C2046 C 0.07875 0.72765 0.55108 0.0
H2047 H 0.15666 0.68978 0.52454 0.0
H2048 H 0.1272 0.6965 0.5261 0.0
H2049 H 0.11004 0.71526 0.57704 0.0
H2050 H 0.04313 0.76966 0.53468 0.0
H2051 H 0.06869 0.75435 0.53218 0.0
C2052 C 0.50416 0.92355 0.76874 0.0
C2053 C 0.50447 0.92747 0.78619 0.0
C2054 C 0.50189 0.90666 0.76323 0.0
C2055 C 0.49978 0.86125 0.77935 0.0
H2056 H 0.47409 0.85374 0.73825 0.0
C2057 C 0.45183 0.80743 0.74801 0.0
C2058 C 0.45881 0.79239 0.75399 0.0
C2059 C 0.46019 0.82318 0.74993 0.0
C2060 C 0.4811 0.85553 0.7499 0.0
H2061 H 0.50352 0.91617 0.81144 0.0
H2062 H 0.49816 0.8874 0.80199 0.0
H2063 H 0.48279 0.88241 0.7461 0.0
H2064 H 0.48075 0.78217 0.76571 0.0
H2065 H 0.49585 0.80965 0.76824 0.0
H2066 H 0.49676 0.83451 0.78392 0.0
C2067 C 0.50016 0.89716 0.79241 0.0
C2068 C 0.48644 0.8721 0.75426 0.0
C2069 C 0.50283 0.91392 0.7979 0.0
C2070 C 0.47493 0.79347 0.76103 0.0
C2071 C 0.4835 0.80931 0.76268 0.0
C2072 C 0.49403 0.84473 0.77523 0.0
C2073 C 0.49953 0.89321 0.77499 0.0
C2074 C 0.49553 0.87531 0.76928 0.0
C2075 C 0.47609 0.82447 0.75745 0.0
C2076 C 0.48421 0.84165 0.76066 0.0
H2077 H 0.50531 0.93352 0.75926 0.0
H2078 H 0.50187 0.90425 0.7497 0.0
H2079 H 0.50724 0.86297 0.79072 0.0
H2080 H 0.43967 0.80714 0.74201 0.0
H2081 H 0.4538 0.83439 0.74594 0.0
C2082 C 0.35708 0.28709 0.05606 0.0
C2083 C 0.35022 0.29726 0.04341 0.0
C2084 C 0.37388 0.28295 0.0553 0.0
C2085 C 0.41184 0.2836 0.05562 0.0
H2086 H 0.43044 0.27107 0.01215 0.0
C2087 C 0.48074 0.26376 0.04772 0.0
C2088 C 0.48243 0.24888 0.03812 0.0
C2089 C 0.46545 0.27191 0.04803 0.0
C2090 C 0.42545 0.27456 0.0244 0.0
H2091 H 0.35508 0.31068 0.0198 0.0
H2092 H 0.38454 0.30375 0.01852 0.0
H2093 H 0.40183 0.28016 0.01361 0.0
H2094 H 0.46982 0.2314 0.02063 0.0
H2095 H 0.44339 0.24534 0.02129 0.0
H2096 H 0.43535 0.27726 0.06645 0.0
C2097 C 0.37704 0.29888 0.02903 0.0
C2098 C 0.40907 0.27994 0.02522 0.0
C2099 C 0.36023 0.30296 0.02979 0.0
C2100 C 0.46882 0.24269 0.02839 0.0
C2101 C 0.4537 0.25082 0.0286 0.0
C2102 C 0.42826 0.27819 0.05479 0.0
C2103 C 0.38411 0.28888 0.04182 0.0
C2104 C 0.40194 0.28425 0.04087 0.0
C2105 C 0.45173 0.26544 0.03851 0.0
C2106 C 0.43514 0.27327 0.03921 0.0
H2107 H 0.34947 0.2825 0.06662 0.0
H2108 H 0.37878 0.27494 0.06518 0.0
H2109 H 0.40684 0.2871 0.06785 0.0
H2110 H 0.49107 0.26882 0.05528 0.0
H2111 H 0.46434 0.28323 0.05571 0.0
C2112 C 0.29411 0.0782 0.1865 0.0
C2113 C 0.30108 0.06844 0.19949 0.0
C2114 C 0.29697 0.07441 0.16942 0.0
C2115 C 0.32525 0.0572 0.13936 0.0
H2116 H 0.28662 0.04241 0.11288 0.0
C2117 C 0.33231 0.03073 0.07122 0.0
C2118 C 0.31936 0.03263 0.05945 0.0
C2119 C 0.33045 0.03566 0.08817 0.0
C2120 C 0.29756 0.04686 0.11986 0.0
H2121 H 0.31626 0.04684 0.20476 0.0
H2122 H 0.32213 0.04085 0.17475 0.0
H2123 H 0.28317 0.05052 0.14248 0.0
H2124 H 0.29395 0.04046 0.05646 0.0
H2125 H 0.29113 0.05053 0.08548 0.0
H2126 H 0.33965 0.05439 0.11677 0.0
C2127 C 0.31444 0.05143 0.17791 0.0
C2128 C 0.29554 0.05134 0.13692 0.0
C2129 C 0.31124 0.05497 0.19504 0.0
C2130 C 0.30446 0.03957 0.065 0.0
C2131 C 0.3027 0.0449 0.08187 0.0
C2132 C 0.32725 0.05313 0.12217 0.0
C2133 C 0.30711 0.06096 0.16497 0.0
C2134 C 0.30937 0.05644 0.14685 0.0
C2135 C 0.3156 0.04286 0.09382 0.0
C2136 C 0.31344 0.04775 0.11212 0.0
H2137 H 0.2861 0.08855 0.18961 0.0
H2138 H 0.29118 0.08192 0.15965 0.0
H2139 H 0.33609 0.06123 0.14676 0.0
H2140 H 0.34384 0.02511 0.06734 0.0
H2141 H 0.34056 0.03339 0.09688 0.0
C2142 C 0.22427 0.99819 0.435 0.0
C2143 C 0.22689 0.00825 0.44957 0.0
C2144 C 0.23113 0.00321 0.41939 0.0
C2145 C 0.26209 0.03282 0.39836 0.0
H2146 H 0.23214 0.02674 0.35996 0.0
C2147 C 0.27409 0.0654 0.33305 0.0
C2148 C 0.27012 0.05604 0.31826 0.0
C2149 C 0.26993 0.05895 0.34915 0.0
C2150 C 0.24077 0.02833 0.37047 0.0
H2151 H 0.23937 0.03106 0.4594 0.0
H2152 H 0.2513 0.04005 0.43194 0.0
H2153 H 0.22336 0.01671 0.38792 0.0
H2154 H 0.25889 0.03229 0.30899 0.0
H2155 H 0.25154 0.02106 0.33707 0.0
H2156 H 0.27941 0.0447 0.38081 0.0
C2157 C 0.24404 0.02816 0.43264 0.0
C2158 C 0.23574 0.02256 0.38656 0.0
C2159 C 0.23723 0.02304 0.44837 0.0
C2160 C 0.26195 0.03997 0.32004 0.0
C2161 C 0.25774 0.03353 0.33617 0.0
C2162 C 0.26712 0.03865 0.38223 0.0
C2163 C 0.24069 0.01851 0.41785 0.0
C2164 C 0.24633 0.02467 0.40073 0.0
C2165 C 0.2616 0.04298 0.35093 0.0
C2166 C 0.25651 0.03646 0.36807 0.0
H2167 H 0.21653 0.98659 0.43561 0.0
H2168 H 0.22866 0.99519 0.40843 0.0
H2169 H 0.27064 0.03452 0.40892 0.0
H2170 H 0.28008 0.07797 0.33221 0.0
H2171 H 0.27285 0.06671 0.36019 0.0
C2172 C 0.21643 0.94691 0.70051 0.0
C2173 C 0.22343 0.93129 0.70442 0.0
C2174 C 0.21342 0.9514 0.68355 0.0
C2175 C 0.22739 0.94127 0.63978 0.0
H2176 H 0.18954 0.96725 0.62604 0.0
C2177 C 0.21407 0.95566 0.56912 0.0
C2178 C 0.21006 0.97248 0.56483 0.0
C2179 C 0.21466 0.95027 0.58608 0.0
C2180 C 0.20026 0.96012 0.62969 0.0
H2181 H 0.23255 0.908 0.69397 0.0
H2182 H 0.22692 0.9155 0.66443 0.0
H2183 H 0.19227 0.95844 0.65566 0.0
H2184 H 0.20074 0.99569 0.57596 0.0
H2185 H 0.20239 0.98652 0.60512 0.0
H2186 H 0.2354 0.94295 0.61385 0.0
C2187 C 0.22397 0.92449 0.67429 0.0
C2188 C 0.20184 0.95506 0.6467 0.0
C2189 C 0.22704 0.92008 0.69121 0.0
C2190 C 0.2052 0.98313 0.57827 0.0
C2191 C 0.20572 0.9777 0.59523 0.0
C2192 C 0.22578 0.94626 0.62279 0.0
C2193 C 0.21742 0.94035 0.67017 0.0
C2194 C 0.21544 0.94557 0.652 0.0
C2195 C 0.2108 0.96131 0.59939 0.0
C2196 C 0.21222 0.95577 0.6175 0.0
H2197 H 0.21387 0.95588 0.71051 0.0
H2198 H 0.20857 0.96379 0.6809 0.0
H2199 H 0.23824 0.93431 0.64337 0.0
H2200 H 0.21659 0.94631 0.55958 0.0
H2201 H 0.21799 0.93731 0.58875 0.0
C2202 C 0.24714 0.9347 0.83488 0.0
C2203 C 0.25264 0.94249 0.81965 0.0
C2204 C 0.25038 0.94244 0.85057 0.0
C2205 C 0.28027 0.97295 0.87059 0.0
H2206 H 0.25011 0.96887 0.90907 0.0
C2207 C 0.29905 0.00166 0.93487 0.0
C2208 C 0.2963 0.9913 0.94924 0.0
C2209 C 0.29141 0.99755 0.9194 0.0
C2210 C 0.2587 0.97003 0.89847 0.0
H2211 H 0.26522 0.96496 0.80899 0.0
H2212 H 0.27068 0.97867 0.83641 0.0
H2213 H 0.24091 0.95874 0.88112 0.0
H2214 H 0.28283 0.969 0.95901 0.0
H2215 H 0.2695 0.96157 0.93178 0.0
H2216 H 0.29817 0.98387 0.88787 0.0
C2217 C 0.26407 0.96638 0.8362 0.0
C2218 C 0.25343 0.96424 0.88244 0.0
C2219 C 0.2608 0.95862 0.82046 0.0
C2220 C 0.28503 0.97723 0.94811 0.0
C2221 C 0.27744 0.97301 0.93252 0.0
C2222 C 0.28552 0.97872 0.88656 0.0
C2223 C 0.2592 0.95822 0.85148 0.0
C2224 C 0.2642 0.96551 0.86831 0.0
C2225 C 0.28096 0.98285 0.91785 0.0
C2226 C 0.27486 0.97727 0.90076 0.0
H2227 H 0.24057 0.92239 0.8347 0.0
H2228 H 0.24652 0.9357 0.86202 0.0
H2229 H 0.28904 0.97381 0.86013 0.0
H2230 H 0.30762 0.01265 0.93547 0.0
H2231 H 0.2941 0.00566 0.90852 0.0
C2232 C 0.11346 0.30793 0.97392 0.0
C2233 C 0.10561 0.2935 0.9814 0.0
C2234 C 0.13082 0.30944 0.97284 0.0
C2235 C 0.17034 0.28676 0.97821 0.0
H2236 H 0.1866 0.33065 0.99514 0.0
C2237 C 0.23461 0.29779 0.00979 0.0
C2238 C 0.24247 0.31404 0.00921 0.0
C2239 C 0.21923 0.29469 0.00185 0.0
C2240 C 0.18242 0.31845 0.98998 0.0
H2241 H 0.10955 0.26885 0.99268 0.0
H2242 H 0.1401 0.27152 0.99103 0.0
H2243 H 0.1571 0.32586 0.98954 0.0
H2244 H 0.24107 0.3396 0.9993 0.0
H2245 H 0.21432 0.33415 0.9848 0.0
H2246 H 0.19574 0.27927 0.97908 0.0
C2247 C 0.13282 0.28161 0.9858 0.0
C2248 C 0.16541 0.31567 0.98681 0.0
C2249 C 0.11536 0.28005 0.98677 0.0
C2250 C 0.23526 0.32693 0.99972 0.0
C2251 C 0.21987 0.32382 0.99164 0.0
C2252 C 0.18744 0.28957 0.98131 0.0
C2253 C 0.14075 0.29661 0.97939 0.0
C2254 C 0.1591 0.29973 0.98114 0.0
C2255 C 0.21136 0.30783 0.99315 0.0
C2256 C 0.19366 0.30538 0.98755 0.0
H2257 H 0.10616 0.31841 0.96956 0.0
H2258 H 0.13649 0.32098 0.96748 0.0
H2259 H 0.16589 0.2744 0.97368 0.0
H2260 H 0.2399 0.28776 0.01732 0.0
H2261 H 0.21304 0.28231 0.00353 0.0
C2262 C 0.72307 0.21821 0.98328 0.0
C2263 C 0.72988 0.22551 0.96843 0.0
C2264 C 0.70581 0.21821 0.98615 0.0
C2265 C 0.66505 0.22321 0.9647 0.0
H2266 H 0.65025 0.23664 0.00944 0.0
C2267 C 0.59579 0.21901 0.98685 0.0
C2268 C 0.5904 0.23203 0.99745 0.0
C2269 C 0.61253 0.21864 0.98185 0.0
C2270 C 0.65417 0.233 0.99683 0.0
H2271 H 0.72422 0.23835 0.94491 0.0
H2272 H 0.69415 0.23824 0.94977 0.0
H2273 H 0.67997 0.23413 0.00391 0.0
H2274 H 0.59781 0.25528 0.01049 0.0
H2275 H 0.6271 0.25481 0.00166 0.0
H2276 H 0.6392 0.22223 0.95761 0.0
C2277 C 0.70199 0.23237 0.95915 0.0
C2278 C 0.67121 0.23133 0.99373 0.0
C2279 C 0.7192 0.23249 0.95637 0.0
C2280 C 0.60176 0.24514 0.00228 0.0
C2281 C 0.61851 0.24475 0.99737 0.0
C2282 C 0.64798 0.22476 0.96784 0.0
C2283 C 0.69508 0.22544 0.97418 0.0
C2284 C 0.67687 0.22648 0.97762 0.0
C2285 C 0.62419 0.23124 0.98748 0.0
C2286 C 0.64234 0.22978 0.98392 0.0
H2287 H 0.73112 0.21299 0.99285 0.0
H2288 H 0.70087 0.21266 0.99781 0.0
H2289 H 0.66899 0.21935 0.95217 0.0
H2290 H 0.58723 0.20867 0.98315 0.0
H2291 H 0.61649 0.20801 0.97431 0.0
C2292 C 0.06508 0.33106 0.24062 0.0
C2293 C 0.082 0.32792 0.24313 0.0
C2294 C 0.06016 0.34734 0.23599 0.0
C2295 C 0.07457 0.39276 0.23733 0.0
H2296 H 0.03822 0.39869 0.20568 0.0
C2297 C 0.0422 0.45693 0.22917 0.0
C2298 C 0.03671 0.46135 0.2129 0.0
C2299 C 0.04883 0.44096 0.23213 0.0
C2300 C 0.04852 0.39731 0.2144 0.0
H2301 H 0.10704 0.33914 0.24304 0.0
H2302 H 0.09857 0.36756 0.23469 0.0
H2303 H 0.04756 0.37016 0.21175 0.0
H2304 H 0.03434 0.45305 0.18681 0.0
H2305 H 0.04619 0.42522 0.19181 0.0
H2306 H 0.07566 0.41992 0.23983 0.0
C2307 C 0.08904 0.35756 0.23636 0.0
C2308 C 0.05374 0.3809 0.21806 0.0
C2309 C 0.09392 0.34128 0.24099 0.0
C2310 C 0.0385 0.44985 0.19948 0.0
C2311 C 0.04512 0.43388 0.20241 0.0
C2312 C 0.06934 0.40917 0.23368 0.0
C2313 C 0.07207 0.36086 0.2339 0.0
C2314 C 0.06678 0.37838 0.22963 0.0
C2315 C 0.05014 0.42911 0.21884 0.0
C2316 C 0.05618 0.41168 0.22224 0.0
H2317 H 0.05564 0.32102 0.24266 0.0
H2318 H 0.04697 0.34945 0.23453 0.0
H2319 H 0.08453 0.39134 0.24645 0.0
H2320 H 0.04103 0.46569 0.23967 0.0
H2321 H 0.05243 0.43773 0.24496 0.0
C2322 C 0.91736 0.80083 0.52435 0.0
C2323 C 0.92476 0.78503 0.52594 0.0
C2324 C 0.90063 0.80173 0.51956 0.0
C2325 C 0.86525 0.77674 0.50016 0.0
H2326 H 0.83853 0.80966 0.52327 0.0
C2327 C 0.79681 0.78685 0.4811 0.0
C2328 C 0.78535 0.78876 0.49435 0.0
C2329 C 0.81396 0.78741 0.4844 0.0
C2330 C 0.84577 0.80033 0.51676 0.0
H2331 H 0.92063 0.75775 0.52405 0.0
H2332 H 0.89128 0.75918 0.5157 0.0
H2333 H 0.86808 0.80811 0.52998 0.0
H2334 H 0.78251 0.79281 0.52131 0.0
H2335 H 0.81254 0.79371 0.52726 0.0
H2336 H 0.84282 0.76861 0.48731 0.0
C2337 C 0.89845 0.77095 0.51777 0.0
C2338 C 0.8628 0.79957 0.52045 0.0
C2339 C 0.91524 0.77009 0.52252 0.0
C2340 C 0.79122 0.79156 0.51091 0.0
C2341 C 0.80839 0.79208 0.51425 0.0
C2342 C 0.84822 0.77749 0.49647 0.0
C2343 C 0.89087 0.78679 0.51642 0.0
C2344 C 0.87277 0.78774 0.51223 0.0
C2345 C 0.81999 0.78977 0.50107 0.0
C2346 C 0.83823 0.78927 0.50475 0.0
H2347 H 0.92452 0.81251 0.52701 0.0
H2348 H 0.89534 0.81414 0.51839 0.0
H2349 H 0.87255 0.76757 0.49346 0.0
H2350 H 0.79247 0.78454 0.46825 0.0
H2351 H 0.82249 0.78585 0.4739 0.0
C2352 C 0.2767 0.68476 0.49991 0.0
C2353 C 0.27381 0.69212 0.51582 0.0
C2354 C 0.29113 0.68948 0.49064 0.0
C2355 C 0.32589 0.7224 0.48798 0.0
H2356 H 0.35212 0.68484 0.4731 0.0
C2357 C 0.39772 0.72643 0.48198 0.0
C2358 C 0.40534 0.71584 0.47022 0.0
C2359 C 0.3803 0.72602 0.48357 0.0
C2360 C 0.34487 0.69557 0.4768 0.0
H2361 H 0.28301 0.7109 0.53402 0.0
H2362 H 0.308 0.71903 0.51805 0.0
H2363 H 0.32364 0.6793 0.48278 0.0
H2364 H 0.40093 0.69763 0.44996 0.0
H2365 H 0.37058 0.6973 0.45231 0.0
H2366 H 0.34735 0.73859 0.48252 0.0
C2367 C 0.2993 0.70965 0.51262 0.0
C2368 C 0.32849 0.69236 0.48236 0.0
C2369 C 0.28507 0.70485 0.52188 0.0
C2370 C 0.39529 0.70586 0.45918 0.0
C2371 C 0.37793 0.70556 0.46065 0.0
C2372 C 0.34228 0.72562 0.48238 0.0
C2373 C 0.3027 0.70183 0.49704 0.0
C2374 C 0.31896 0.70566 0.48846 0.0
C2375 C 0.37023 0.71507 0.47335 0.0
C2376 C 0.35212 0.71218 0.47712 0.0
H2377 H 0.26815 0.67498 0.49495 0.0
H2378 H 0.29336 0.68331 0.47861 0.0
H2379 H 0.31877 0.73297 0.49237 0.0
H2380 H 0.40524 0.73407 0.49074 0.0
H2381 H 0.37483 0.73344 0.49357 0.0
C2382 C 0.9767 0.96116 0.29388 0.0
C2383 C 0.98618 0.96497 0.30844 0.0
C2384 C 0.97254 0.94418 0.2897 0.0
C2385 C 0.9695 0.90037 0.30756 0.0
H2386 H 0.97559 0.8865 0.26079 0.0
C2387 C 0.95057 0.83275 0.28278 0.0
C2388 C 0.9614 0.8254 0.27113 0.0
C2389 C 0.95328 0.84967 0.28794 0.0
C2390 C 0.97392 0.89014 0.27393 0.0
H2391 H 0.99865 0.9543 0.33013 0.0
H2392 H 0.99133 0.92472 0.32302 0.0
H2393 H 0.98015 0.91636 0.26857 0.0
H2394 H 0.98402 0.82945 0.25647 0.0
H2395 H 0.9888 0.85908 0.26539 0.0
H2396 H 0.96352 0.87408 0.31296 0.0
C2397 C 0.98693 0.93472 0.31486 0.0
C2398 C 0.97632 0.90731 0.27834 0.0
C2399 C 0.99118 0.95163 0.31892 0.0
C2400 C 0.97533 0.83499 0.26521 0.0
C2401 C 0.97801 0.85194 0.27029 0.0
C2402 C 0.96699 0.88321 0.30312 0.0
C2403 C 0.97774 0.93074 0.30008 0.0
C2404 C 0.97426 0.91262 0.29524 0.0
C2405 C 0.96688 0.85957 0.28153 0.0
C2406 C 0.9693 0.87786 0.28627 0.0
H2407 H 0.97293 0.97126 0.28549 0.0
H2408 H 0.96535 0.94156 0.27829 0.0
H2409 H 0.96769 0.90405 0.32066 0.0
H2410 H 0.93974 0.82554 0.28749 0.0
H2411 H 0.94442 0.85515 0.29654 0.0
C2412 C 0.55339 0.04403 0.76747 0.0
C2413 C 0.54929 0.03997 0.78435 0.0
C2414 C 0.55736 0.06092 0.76282 0.0
C2415 C 0.56732 0.10451 0.77976 0.0
H2416 H 0.54494 0.11873 0.73873 0.0
C2417 C 0.57476 0.17303 0.75227 0.0
C2418 C 0.5605 0.1801 0.74529 0.0
C2419 C 0.57439 0.15598 0.75747 0.0
C2420 C 0.55118 0.11502 0.75028 0.0
H2421 H 0.54683 0.04994 0.80975 0.0
H2422 H 0.55374 0.07943 0.80177 0.0
H2423 H 0.5438 0.08882 0.74684 0.0
H2424 H 0.53469 0.17529 0.73833 0.0
H2425 H 0.53385 0.14547 0.74765 0.0
H2426 H 0.57425 0.13086 0.78343 0.0
C2427 C 0.55413 0.06969 0.79208 0.0
C2428 C 0.55076 0.09778 0.7548 0.0
C2429 C 0.55019 0.0528 0.7967 0.0
C2430 C 0.54578 0.17003 0.74378 0.0
C2431 C 0.5454 0.15296 0.74896 0.0
C2432 C 0.56775 0.12177 0.77522 0.0
C2433 C 0.55719 0.07405 0.77497 0.0
C2434 C 0.55873 0.09229 0.76965 0.0
C2435 C 0.55976 0.14566 0.75571 0.0
C2436 C 0.55956 0.12727 0.76049 0.0
H2437 H 0.55257 0.03431 0.75774 0.0
H2438 H 0.55996 0.06376 0.74959 0.0
H2439 H 0.57368 0.10074 0.79122 0.0
H2440 H 0.58628 0.18062 0.75334 0.0
H2441 H 0.58572 0.15077 0.76242 0.0
C2442 C 0.5403 0.30461 0.72035 0.0
C2443 C 0.53724 0.29058 0.7096 0.0
C2444 C 0.53149 0.31944 0.71839 0.0
C2445 C 0.51067 0.34364 0.68564 0.0
H2446 H 0.49795 0.37181 0.72356 0.0
C2447 C 0.48653 0.41045 0.67396 0.0
C2448 C 0.49316 0.42349 0.68443 0.0
C2449 C 0.48837 0.39336 0.67823 0.0
C2450 C 0.50151 0.36415 0.71283 0.0
H2451 H 0.52207 0.28074 0.68884 0.0
H2452 H 0.50658 0.30692 0.68524 0.0
H2453 H 0.50725 0.34303 0.7288 0.0
H2454 H 0.50623 0.42896 0.70794 0.0
H2455 H 0.50983 0.39905 0.71533 0.0
H2456 H 0.50565 0.36486 0.6697 0.0
C2457 C 0.5159 0.30639 0.69517 0.0
C2458 C 0.50678 0.34763 0.71583 0.0
C2459 C 0.52465 0.2914 0.69727 0.0
C2460 C 0.50092 0.41913 0.69972 0.0
C2461 C 0.50294 0.40198 0.70393 0.0
C2462 C 0.5055 0.36017 0.68265 0.0
C2463 C 0.51943 0.32067 0.70555 0.0
C2464 C 0.51171 0.33729 0.70229 0.0
C2465 C 0.49708 0.38888 0.69299 0.0
C2466 C 0.50111 0.37076 0.69622 0.0
H2467 H 0.54986 0.30424 0.73006 0.0
H2468 H 0.53466 0.33022 0.72648 0.0
H2469 H 0.51464 0.33613 0.67495 0.0
H2470 H 0.48031 0.41349 0.66218 0.0
H2471 H 0.48331 0.38367 0.66972 0.0
C2472 C 0.85915 0.22666 0.96933 0.0
C2473 C 0.84837 0.2403 0.96949 0.0
C2474 C 0.87636 0.22961 0.97141 0.0
C2475 C 0.90805 0.26302 0.96239 0.0
H2476 H 0.93784 0.23493 0.98795 0.0
C2477 C 0.97842 0.28009 0.96829 0.0
C2478 C 0.98966 0.26695 0.97002 0.0
C2479 C 0.96122 0.27655 0.96813 0.0
C2480 C 0.92973 0.24275 0.98052 0.0
H2481 H 0.8468 0.26754 0.97241 0.0
H2482 H 0.87687 0.27276 0.97626 0.0
H2483 H 0.90771 0.22938 0.9898 0.0
H2484 H 0.99174 0.23958 0.97053 0.0
H2485 H 0.96168 0.23322 0.97 0.0
H2486 H 0.92989 0.27613 0.95271 0.0
C2487 C 0.87209 0.25979 0.97454 0.0
C2488 C 0.91245 0.23962 0.98169 0.0
C2489 C 0.85489 0.25681 0.97259 0.0
C2490 C 0.98337 0.25003 0.97012 0.0
C2491 C 0.96612 0.24641 0.96977 0.0
C2492 C 0.92529 0.26604 0.96107 0.0
C2493 C 0.88307 0.2463 0.9734 0.0
C2494 C 0.90142 0.24979 0.97271 0.0
C2495 C 0.95479 0.25966 0.96924 0.0
C2496 C 0.9364 0.256 0.97017 0.0
H2497 H 0.85438 0.21388 0.96654 0.0
H2498 H 0.88449 0.21897 0.97035 0.0
H2499 H 0.89989 0.27084 0.955 0.0
H2500 H 0.98289 0.29318 0.96765 0.0
H2501 H 0.953 0.28715 0.96773 0.0
C2502 C 0.98243 0.70869 0.22933 0.0
C2503 C 0.96751 0.71085 0.23833 0.0
C2504 C 0.98938 0.69257 0.22839 0.0
C2505 C 0.98672 0.64919 0.24837 0.0
H2506 H 0.00219 0.63397 0.2045 0.0
C2507 C 0.98609 0.57874 0.22811 0.0
C2508 C 0.99983 0.57301 0.21905 0.0
C2509 C 0.98515 0.59596 0.23232 0.0
C2510 C 0.99815 0.63811 0.21691 0.0
H2511 H 0.9488 0.69798 0.25421 0.0
H2512 H 0.96043 0.67015 0.25212 0.0
H2513 H 0.9953 0.66372 0.20832 0.0
H2514 H 0.02337 0.58047 0.20729 0.0
H2515 H 0.02168 0.61079 0.21445 0.0
H2516 H 0.98878 0.62335 0.25666 0.0
C2517 C 0.96696 0.68075 0.24588 0.0
C2518 C 0.99424 0.65519 0.21912 0.0
C2519 C 0.96009 0.69673 0.24684 0.0
C2520 C 0.01278 0.58466 0.21449 0.0
C2521 C 0.01173 0.60195 0.21847 0.0
C2522 C 0.99043 0.63211 0.24609 0.0
C2523 C 0.98162 0.67835 0.23654 0.0
C2524 C 0.98806 0.66086 0.23477 0.0
C2525 C 0.99781 0.60781 0.22725 0.0
C2526 C 0.99584 0.6263 0.23024 0.0
H2527 H 0.98847 0.71932 0.22269 0.0
H2528 H 0.00078 0.69124 0.22122 0.0
H2529 H 0.98242 0.65316 0.26073 0.0
H2530 H 0.97587 0.56996 0.23151 0.0
H2531 H 0.97418 0.60012 0.23891 0.0
C2532 C 0.53424 0.72754 0.45851 0.0
C2533 C 0.52253 0.73955 0.46302 0.0
C2534 C 0.55135 0.73151 0.45969 0.0
C2535 C 0.58086 0.76037 0.48262 0.0
H2536 H 0.61312 0.7438 0.45056 0.0
C2537 C 0.65146 0.77928 0.48591 0.0
C2538 C 0.66293 0.76694 0.48145 0.0
C2539 C 0.63428 0.77601 0.48397 0.0
C2540 C 0.6043 0.74833 0.45977 0.0
H2541 H 0.51946 0.76574 0.47045 0.0
H2542 H 0.54939 0.77276 0.47266 0.0
H2543 H 0.5834 0.73864 0.44533 0.0
H2544 H 0.66514 0.74125 0.47187 0.0
H2545 H 0.63525 0.73539 0.469 0.0
H2546 H 0.60175 0.76993 0.49715 0.0
C2547 C 0.54536 0.76004 0.46878 0.0
C2548 C 0.58724 0.74542 0.45672 0.0
C2549 C 0.52823 0.75603 0.46755 0.0
C2550 C 0.65672 0.75101 0.47561 0.0
C2551 C 0.63955 0.74774 0.47369 0.0
C2552 C 0.59793 0.76324 0.48569 0.0
C2553 C 0.55713 0.74768 0.46528 0.0
C2554 C 0.57529 0.75136 0.46812 0.0
C2555 C 0.62811 0.76031 0.47753 0.0
C2556 C 0.60989 0.75721 0.47434 0.0
H2557 H 0.5302 0.71483 0.45477 0.0
H2558 H 0.56002 0.72166 0.45691 0.0
H2559 H 0.57202 0.76487 0.49182 0.0
H2560 H 0.65576 0.79162 0.49064 0.0
H2561 H 0.62587 0.78603 0.487 0.0
C2562 C 0.72394 0.53872 0.42958 0.0
C2563 C 0.7089 0.53235 0.43667 0.0
C2564 C 0.72444 0.5445 0.41271 0.0
C2565 C 0.70155 0.53981 0.37199 0.0
H2566 H 0.72905 0.57918 0.35842 0.0
C2567 C 0.71801 0.55486 0.30177 0.0
C2568 C 0.71925 0.57199 0.29675 0.0
C2569 C 0.7153 0.55055 0.31884 0.0
C2570 C 0.72115 0.56826 0.362 0.0
H2571 H 0.68264 0.52706 0.43193 0.0
H2572 H 0.68339 0.53734 0.40262 0.0
H2573 H 0.72729 0.57119 0.38836 0.0
H2574 H 0.71811 0.59806 0.30525 0.0
H2575 H 0.71308 0.59061 0.33511 0.0
H2576 H 0.6953 0.53695 0.34567 0.0
C2577 C 0.69485 0.53775 0.40991 0.0
C2578 C 0.72032 0.56355 0.37917 0.0
C2579 C 0.69438 0.53198 0.42672 0.0
C2580 C 0.71712 0.58475 0.30889 0.0
C2581 C 0.71444 0.58047 0.32598 0.0
C2582 C 0.7024 0.5445 0.35484 0.0
C2583 C 0.70992 0.54392 0.4026 0.0
C2584 C 0.71056 0.54922 0.38438 0.0
C2585 C 0.7138 0.56331 0.33123 0.0
C2586 C 0.71228 0.55874 0.3496 0.0
H2587 H 0.73538 0.53873 0.43688 0.0
H2588 H 0.73631 0.54891 0.40743 0.0
H2589 H 0.69405 0.52859 0.37549 0.0
H2590 H 0.71967 0.54484 0.29256 0.0
H2591 H 0.71503 0.53722 0.32242 0.0
C2592 C 0.72078 0.5033 0.56345 0.0
C2593 C 0.72579 0.49433 0.54899 0.0
C2594 C 0.72868 0.50113 0.57904 0.0
C2595 C 0.75151 0.46939 0.60267 0.0
H2596 H 0.75752 0.50587 0.63551 0.0
C2597 C 0.77286 0.45484 0.67039 0.0
C2598 C 0.76376 0.46229 0.68348 0.0
C2599 C 0.77175 0.46078 0.65372 0.0
C2600 C 0.75586 0.49554 0.62652 0.0
H2601 H 0.74353 0.47666 0.53935 0.0
H2602 H 0.75746 0.47279 0.5668 0.0
H2603 H 0.74948 0.51247 0.60636 0.0
H2604 H 0.74704 0.4823 0.68968 0.0
H2605 H 0.74481 0.49264 0.6604 0.0
H2606 H 0.75729 0.45238 0.62283 0.0
C2607 C 0.74727 0.4814 0.56602 0.0
C2608 C 0.75128 0.49932 0.6098 0.0
C2609 C 0.73939 0.48368 0.5503 0.0
C2610 C 0.75428 0.47646 0.6798 0.0
C2611 C 0.75303 0.48235 0.66303 0.0
C2612 C 0.75604 0.46562 0.61936 0.0
C2613 C 0.7418 0.48991 0.58064 0.0
C2614 C 0.74875 0.48625 0.59775 0.0
C2615 C 0.76133 0.4742 0.6497 0.0
C2616 C 0.75802 0.4786 0.63159 0.0
H2617 H 0.71048 0.5118 0.56276 0.0
H2618 H 0.72401 0.50775 0.59001 0.0
H2619 H 0.7494 0.45899 0.59383 0.0
H2620 H 0.78035 0.44394 0.67298 0.0
H2621 H 0.77864 0.45447 0.64389 0.0
C2622 C 0.78698 0.48886 0.9323 0.0
C2623 C 0.79846 0.48055 0.94252 0.0
C2624 C 0.78516 0.48456 0.91513 0.0
C2625 C 0.79378 0.45082 0.88362 0.0
H2626 H 0.78858 0.48733 0.85105 0.0
C2627 C 0.77538 0.43841 0.81352 0.0
C2628 C 0.78258 0.44904 0.80095 0.0
C2629 C 0.77824 0.44177 0.83074 0.0
C2630 C 0.7902 0.47698 0.85993 0.0
H2631 H 0.81675 0.46108 0.94322 0.0
H2632 H 0.8137 0.45352 0.91316 0.0
H2633 H 0.79145 0.49398 0.88115 0.0
H2634 H 0.79816 0.47167 0.79638 0.0
H2635 H 0.80356 0.47743 0.82652 0.0
H2636 H 0.79279 0.43385 0.86235 0.0
C2637 C 0.80597 0.46326 0.91832 0.0
C2638 C 0.79161 0.48078 0.87726 0.0
C2639 C 0.80777 0.46758 0.9355 0.0
C2640 C 0.79281 0.46307 0.80585 0.0
C2641 C 0.79567 0.46647 0.82311 0.0
C2642 C 0.79236 0.44703 0.86629 0.0
C2643 C 0.79478 0.47184 0.90784 0.0
C2644 C 0.79335 0.46775 0.88936 0.0
C2645 C 0.78828 0.45596 0.83579 0.0
C2646 C 0.79048 0.46005 0.85421 0.0
H2647 H 0.77962 0.49885 0.93756 0.0
H2648 H 0.77621 0.49122 0.90755 0.0
H2649 H 0.79498 0.44044 0.89255 0.0
H2650 H 0.76726 0.42765 0.80999 0.0
H2651 H 0.77213 0.43355 0.84009 0.0
C2652 C 0.73436 0.56305 0.17311 0.0
C2653 C 0.7468 0.57408 0.18009 0.0
C2654 C 0.73533 0.55782 0.1561 0.0
C2655 C 0.75378 0.57167 0.11535 0.0
H2656 H 0.7499 0.5243 0.10178 0.0
C2657 C 0.78437 0.54684 0.05525 0.0
C2658 C 0.77734 0.53266 0.04669 0.0
C2659 C 0.77682 0.55307 0.06982 0.0
C2660 C 0.75062 0.53764 0.10525 0.0
H2661 H 0.77057 0.58726 0.17491 0.0
H2662 H 0.77205 0.57844 0.1454 0.0
H2663 H 0.7443 0.5321 0.13125 0.0
H2664 H 0.75645 0.5144 0.04602 0.0
H2665 H 0.74298 0.52545 0.07153 0.0
H2666 H 0.76039 0.57729 0.08955 0.0
C2667 C 0.76138 0.57412 0.15293 0.0
C2668 C 0.74749 0.54207 0.12216 0.0
C2669 C 0.76052 0.57917 0.16987 0.0
C2670 C 0.76201 0.52548 0.05232 0.0
C2671 C 0.75444 0.53166 0.06703 0.0
C2672 C 0.75678 0.56729 0.09846 0.0
C2673 C 0.74868 0.56365 0.14575 0.0
C2674 C 0.74959 0.55907 0.12748 0.0
C2675 C 0.76206 0.54521 0.07625 0.0
C2676 C 0.75581 0.55015 0.09331 0.0
H2677 H 0.7236 0.55894 0.18059 0.0
H2678 H 0.7254 0.54968 0.1509 0.0
H2679 H 0.75516 0.58493 0.11902 0.0
H2680 H 0.79626 0.55251 0.05121 0.0
H2681 H 0.78318 0.56337 0.07663 0.0
C2682 C 0.42774 0.66417 0.72683 0.0
C2683 C 0.44091 0.67644 0.72627 0.0
C2684 C 0.4303 0.64734 0.72197 0.0
C2685 C 0.45922 0.62094 0.69742 0.0
H2686 H 0.43786 0.58359 0.72255 0.0
C2687 C 0.46353 0.55123 0.67512 0.0
C2688 C 0.46656 0.5391 0.68772 0.0
C2689 C 0.45922 0.56773 0.67958 0.0
C2690 C 0.44399 0.59385 0.71543 0.0
H2691 H 0.46717 0.6808 0.72092 0.0
H2692 H 0.47177 0.65139 0.71243 0.0
H2693 H 0.43334 0.61286 0.73109 0.0
H2694 H 0.46674 0.53423 0.71476 0.0
H2695 H 0.45944 0.5631 0.7227 0.0
H2696 H 0.47023 0.60195 0.68205 0.0
C2697 C 0.45934 0.65477 0.7162 0.0
C2698 C 0.44125 0.61068 0.72022 0.0
C2699 C 0.45676 0.6716 0.72106 0.0
C2700 C 0.46458 0.54347 0.70485 0.0
C2701 C 0.46028 0.55997 0.70935 0.0
C2702 C 0.46195 0.60413 0.69263 0.0
C2703 C 0.44613 0.6424 0.71655 0.0
C2704 C 0.44888 0.62446 0.71132 0.0
C2705 C 0.45783 0.57242 0.69678 0.0
C2706 C 0.45443 0.59034 0.7016 0.0
H2707 H 0.41542 0.66766 0.7309 0.0
H2708 H 0.4198 0.63825 0.72224 0.0
H2709 H 0.46515 0.6312 0.69014 0.0
H2710 H 0.46496 0.54807 0.66181 0.0
H2711 H 0.45714 0.57686 0.66955 0.0
loop_
_geom_bond_atom_site_label_1
_geom_bond_atom_site_label_2
_geom_bond_distance
_geom_bond_site_symmetry_2
_ccdc_geom_bond_type
C0 C1 1.443 . S
C0 N4 1.376 . S
C0 C38 1.389 . S
C1 C0 1.443 . S
C1 C2 1.340 . S
C1 H41 0.951 . S
C2 C1 1.340 . S
C2 C3 1.439 . S
C2 H42 0.950 . S
C3 C2 1.439 . S
C3 N4 1.374 . S
C3 C37 1.395 . S
N4 C0 1.376 . S
N4 C3 1.374 . S
N4 Co5 2.008 . S
Co5 N4 2.008 . S
Co5 N6 1.995 . S
Co5 N11 2.008 . S
Co5 N16 1.995 . S
Co5 N21 2.282 . S
Co5 N27 2.282 . S
N6 Co5 1.995 . S
N6 C7 1.376 . S
N6 C10 1.383 . S
C7 N6 1.376 . S
C7 C8 1.446 . S
C7 C37 1.391 . S
C8 C7 1.446 . S
C8 C9 1.339 . S
C8 H43 0.949 . S
C9 C8 1.339 . S
C9 C10 1.439 . S
C9 H44 0.950 . S
C10 N6 1.383 . S
C10 C9 1.439 . S
C10 C39 1.392 . S
N11 Co5 2.008 . S
N11 C12 1.376 . S
N11 C15 1.374 . S
C12 N11 1.376 . S
C12 C13 1.443 . S
C12 C39 1.389 . S
C13 C12 1.443 . S
C13 C14 1.340 . S
C13 H45 0.951 . S
C14 C13 1.340 . S
C14 C15 1.439 . S
C14 H46 0.950 . S
C15 N11 1.374 . S
C15 C14 1.439 . S
C15 C40 1.395 . S
N16 Co5 1.995 . S
N16 C17 1.376 . S
N16 C20 1.383 . S
C17 N16 1.376 . S
C17 C18 1.446 . S
C17 C40 1.391 . S
C18 C17 1.446 . S
C18 C19 1.339 . S
C18 H47 0.949 . S
C19 C18 1.339 . S
C19 C20 1.439 . S
C19 H48 0.950 . S
C20 N16 1.383 . S
C20 C19 1.439 . S
C20 C38 1.392 . S
N21 Co5 2.282 . S
N21 C24 1.332 . S
N21 C26 1.332 . S
C22 C23 1.386 . S
C22 C25 1.388 . S
C23 C22 1.386 . S
C23 C24 1.382 . S
C23 H49 0.950 . S
C24 N21 1.332 . S
C24 C23 1.382 . S
C24 H35 0.952 . S
C25 C22 1.388 . S
C25 C26 1.382 . S
C25 H50 0.950 . S
C26 N21 1.332 . S
C26 C25 1.382 . S
C26 H36 0.948 . S
N27 Co5 2.282 . S
N27 C31 1.332 . S
N27 C32 1.332 . S
C28 C29 1.388 . S
C28 C32 1.382 . S
C28 H51 0.950 . S
C29 C28 1.388 . S
C29 C30 1.386 . S
C30 C29 1.386 . S
C30 C31 1.382 . S
C30 H52 0.950 . S
C31 N27 1.332 . S
C31 C30 1.382 . S
C31 H33 0.952 . S
C32 N27 1.332 . S
C32 C28 1.382 . S
C32 H34 0.948 . S
H33 C31 0.952 . S
H34 C32 0.948 . S
H35 C24 0.952 . S
H36 C26 0.948 . S
C37 C3 1.395 . S
C37 C7 1.391 . S
C38 C0 1.389 . S
C38 C20 1.392 . S
C39 C10 1.392 . S
C39 C12 1.389 . S
C40 C15 1.395 . S
C40 C17 1.391 . S
H41 C1 0.951 . S
H42 C2 0.950 . S
H43 C8 0.949 . S
H44 C9 0.950 . S
H45 C13 0.951 . S
H46 C14 0.950 . S
H47 C18 0.949 . S
H48 C19 0.950 . S
H49 C23 0.950 . S
H50 C25 0.950 . S
H51 C28 0.950 . S
H52 C30 0.950 . S
C53 C54 1.443 . S
C53 N57 1.376 . S
C53 C91 1.389 . S
C54 C53 1.443 . S
C54 C55 1.340 . S
C54 H94 0.951 . S
C55 C54 1.340 . S
C55 C56 1.439 . S
C55 H95 0.950 . S
C56 C55 1.439 . S
C56 N57 1.374 . S
C56 C90 1.395 1_655 S
N57 C53 1.376 . S
N57 C56 1.374 . S
N57 Co58 2.008 1_655 S
Co58 N57 2.008 1_455 S
Co58 N59 1.995 . S
Co58 N64 2.008 . S
Co58 N69 1.995 1_455 S
Co58 N74 2.282 . S
Co58 N80 2.282 1_455 S
N59 Co58 1.995 . S
N59 C60 1.376 . S
N59 C63 1.383 . S
C60 N59 1.376 . S
C60 C61 1.446 . S
C60 C90 1.391 . S
C61 C60 1.446 . S
C61 C62 1.339 . S
C61 H96 0.949 . S
C62 C61 1.339 . S
C62 C63 1.439 . S
C62 H97 0.950 . S
C63 N59 1.383 . S
C63 C62 1.439 . S
C63 C92 1.392 . S
N64 Co58 2.008 . S
N64 C65 1.376 . S
N64 C68 1.374 . S
C65 N64 1.376 . S
C65 C66 1.443 . S
C65 C92 1.389 . S
C66 C65 1.443 . S
C66 C67 1.340 . S
C66 H98 0.951 . S
C67 C66 1.340 . S
C67 C68 1.439 . S
C67 H99 0.950 . S
C68 N64 1.374 . S
C68 C67 1.439 . S
C68 C93 1.395 1_455 S
N69 Co58 1.995 1_655 S
N69 C70 1.376 . S
N69 C73 1.383 . S
C70 N69 1.376 . S
C70 C71 1.446 . S
C70 C93 1.391 . S
C71 C70 1.446 . S
C71 C72 1.339 . S
C71 H100 0.949 . S
C72 C71 1.339 . S
C72 C73 1.439 . S
C72 H101 0.950 . S
C73 N69 1.383 . S
C73 C72 1.439 . S
C73 C91 1.392 . S
N74 Co58 2.282 . S
N74 C77 1.332 . S
N74 C79 1.332 . S
C75 C76 1.386 . S
C75 C78 1.388 . S
C76 C75 1.386 . S
C76 C77 1.382 . S
C76 H102 0.950 . S
C77 N74 1.332 . S
C77 C76 1.382 . S
C77 H88 0.952 1_455 S
C78 C75 1.388 . S
C78 C79 1.382 . S
C78 H103 0.950 . S
C79 N74 1.332 . S
C79 C78 1.382 . S
C79 H89 0.948 . S
N80 Co58 2.282 1_655 S
N80 C84 1.332 . S
N80 C85 1.332 . S
C81 C82 1.388 . S
C81 C85 1.382 . S
C81 H104 0.950 . S
C82 C81 1.388 . S
C82 C83 1.386 . S
C83 C82 1.386 . S
C83 C84 1.382 . S
C83 H105 0.950 . S
C84 N80 1.332 . S
C84 C83 1.382 . S
C84 H86 0.952 1_655 S
C85 N80 1.332 . S
C85 C81 1.382 . S
C85 H87 0.948 . S
H86 C84 0.952 1_455 S
H87 C85 0.948 . S
H88 C77 0.952 1_655 S
H89 C79 0.948 . S
C90 C56 1.395 1_455 S
C90 C60 1.391 . S
C91 C53 1.389 . S
C91 C73 1.392 . S
C92 C63 1.392 . S
C92 C65 1.389 . S
C93 C68 1.395 1_655 S
C93 C70 1.391 . S
H94 C54 0.951 . S
H95 C55 0.950 . S
H96 C61 0.949 . S
H97 C62 0.950 . S
H98 C66 0.951 . S
H99 C67 0.950 . S
H100 C71 0.949 . S
H101 C72 0.950 . S
H102 C76 0.950 . S
H103 C78 0.950 . S
H104 C81 0.950 . S
H105 C83 0.950 . S
C106 C107 1.443 . S
C106 N110 1.376 . S
C106 C144 1.389 . S
C107 C106 1.443 . S
C107 C108 1.340 . S
C107 H147 0.951 . S
C108 C107 1.340 . S
C108 C109 1.439 . S
C108 H148 0.950 . S
C109 C108 1.439 . S
C109 N110 1.374 . S
C109 C143 1.395 . S
N110 C106 1.376 . S
N110 C109 1.374 . S
N110 Co111 2.008 . S
Co111 N110 2.008 . S
Co111 N112 1.995 . S
Co111 N117 2.008 . S
Co111 N122 1.995 . S
Co111 N127 2.282 . S
Co111 N133 2.282 . S
N112 Co111 1.995 . S
N112 C113 1.376 . S
N112 C116 1.383 . S
C113 N112 1.376 . S
C113 C114 1.446 . S
C113 C143 1.391 . S
C114 C113 1.446 . S
C114 C115 1.339 . S
C114 H149 0.949 . S
C115 C114 1.339 . S
C115 C116 1.439 . S
C115 H150 0.950 . S
C116 N112 1.383 . S
C116 C115 1.439 . S
C116 C145 1.392 . S
N117 Co111 2.008 . S
N117 C118 1.376 . S
N117 C121 1.374 . S
C118 N117 1.376 . S
C118 C119 1.443 . S
C118 C145 1.389 . S
C119 C118 1.443 . S
C119 C120 1.340 . S
C119 H151 0.951 . S
C120 C119 1.340 . S
C120 C121 1.439 . S
C120 H152 0.950 . S
C121 N117 1.374 . S
C121 C120 1.439 . S
C121 C146 1.395 . S
N122 Co111 1.995 . S
N122 C123 1.376 . S
N122 C126 1.383 . S
C123 N122 1.376 . S
C123 C124 1.446 . S
C123 C146 1.391 . S
C124 C123 1.446 . S
C124 C125 1.339 . S
C124 H153 0.949 . S
C125 C124 1.339 . S
C125 C126 1.439 . S
C125 H154 0.950 . S
C126 N122 1.383 . S
C126 C125 1.439 . S
C126 C144 1.392 . S
N127 Co111 2.282 . S
N127 C130 1.332 . S
N127 C132 1.332 . S
C128 C129 1.386 . S
C128 C131 1.388 . S
C129 C128 1.386 . S
C129 C130 1.382 . S
C129 H155 0.950 . S
C130 N127 1.332 . S
C130 C129 1.382 . S
C130 H141 0.952 . S
C131 C128 1.388 . S
C131 C132 1.382 . S
C131 H156 0.950 . S
C132 N127 1.332 . S
C132 C131 1.382 . S
C132 H142 0.948 . S
N133 Co111 2.282 . S
N133 C137 1.332 . S
N133 C138 1.332 . S
C134 C135 1.388 . S
C134 C138 1.382 . S
C134 H157 0.950 . S
C135 C134 1.388 . S
C135 C136 1.386 . S
C136 C135 1.386 . S
C136 C137 1.382 . S
C136 H158 0.950 . S
C137 N133 1.332 . S
C137 C136 1.382 . S
C137 H139 0.952 . S
C138 N133 1.332 . S
C138 C134 1.382 . S
C138 H140 0.948 . S
H139 C137 0.952 . S
H140 C138 0.948 . S
H141 C130 0.952 . S
H142 C132 0.948 . S
C143 C109 1.395 . S
C143 C113 1.391 . S
C144 C106 1.389 . S
C144 C126 1.392 . S
C145 C116 1.392 . S
C145 C118 1.389 . S
C146 C121 1.395 . S
C146 C123 1.391 . S
H147 C107 0.951 . S
H148 C108 0.950 . S
H149 C114 0.949 . S
H150 C115 0.950 . S
H151 C119 0.951 . S
H152 C120 0.950 . S
H153 C124 0.949 . S
H154 C125 0.950 . S
H155 C129 0.950 . S
H156 C131 0.950 . S
H157 C134 0.950 . S
H158 C136 0.950 . S
C159 C160 1.443 . S
C159 N163 1.376 . S
C159 C197 1.389 . S
C160 C159 1.443 . S
C160 C161 1.340 . S
C160 H200 0.951 . S
C161 C160 1.340 . S
C161 C162 1.439 . S
C161 H201 0.950 . S
C162 C161 1.439 . S
C162 N163 1.374 . S
C162 C196 1.395 . S
N163 C159 1.376 . S
N163 C162 1.374 . S
N163 Co164 2.008 . S
Co164 N163 2.008 . S
Co164 N165 1.995 . S
Co164 N170 2.008 1_556 S
Co164 N175 1.995 1_556 S
Co164 N180 2.282 1_556 S
Co164 N186 2.282 . S
N165 Co164 1.995 . S
N165 C166 1.376 . S
N165 C169 1.383 . S
C166 N165 1.376 . S
C166 C167 1.446 . S
C166 C196 1.391 . S
C167 C166 1.446 . S
C167 C168 1.339 . S
C167 H202 0.949 . S
C168 C167 1.339 . S
C168 C169 1.439 . S
C168 H203 0.950 . S
C169 N165 1.383 . S
C169 C168 1.439 . S
C169 C198 1.392 1_556 S
N170 Co164 2.008 1_554 S
N170 C171 1.376 . S
N170 C174 1.374 . S
C171 N170 1.376 . S
C171 C172 1.443 . S
C171 C198 1.389 . S
C172 C171 1.443 . S
C172 C173 1.340 . S
C172 H204 0.951 . S
C173 C172 1.340 . S
C173 C174 1.439 . S
C173 H205 0.950 . S
C174 N170 1.374 . S
C174 C173 1.439 . S
C174 C199 1.395 . S
N175 Co164 1.995 1_554 S
N175 C176 1.376 . S
N175 C179 1.383 . S
C176 N175 1.376 . S
C176 C177 1.446 . S
C176 C199 1.391 . S
C177 C176 1.446 . S
C177 C178 1.339 . S
C177 H206 0.949 . S
C178 C177 1.339 . S
C178 C179 1.439 . S
C178 H207 0.950 . S
C179 N175 1.383 . S
C179 C178 1.439 . S
C179 C197 1.392 1_554 S
N180 Co164 2.282 1_554 S
N180 C183 1.332 . S
N180 C185 1.332 . S
C181 C182 1.386 . S
C181 C184 1.388 . S
C182 C181 1.386 . S
C182 C183 1.382 . S
C182 H208 0.950 . S
C183 N180 1.332 . S
C183 C182 1.382 . S
C183 H194 0.952 . S
C184 C181 1.388 . S
C184 C185 1.382 . S
C184 H209 0.950 . S
C185 N180 1.332 . S
C185 C184 1.382 . S
C185 H195 0.948 1_554 S
N186 Co164 2.282 . S
N186 C190 1.332 . S
N186 C191 1.332 . S
C187 C188 1.388 . S
C187 C191 1.382 . S
C187 H210 0.950 . S
C188 C187 1.388 . S
C188 C189 1.386 . S
C189 C188 1.386 . S
C189 C190 1.382 . S
C189 H211 0.950 . S
C190 N186 1.332 . S
C190 C189 1.382 . S
C190 H192 0.952 . S
C191 N186 1.332 . S
C191 C187 1.382 . S
C191 H193 0.948 1_556 S
H192 C190 0.952 . S
H193 C191 0.948 1_554 S
H194 C183 0.952 . S
H195 C185 0.948 1_556 S
C196 C162 1.395 . S
C196 C166 1.391 . S
C197 C159 1.389 . S
C197 C179 1.392 1_556 S
C198 C169 1.392 1_554 S
C198 C171 1.389 . S
C199 C174 1.395 . S
C199 C176 1.391 . S
H200 C160 0.951 . S
H201 C161 0.950 . S
H202 C167 0.949 . S
H203 C168 0.950 . S
H204 C172 0.951 . S
H205 C173 0.950 . S
H206 C177 0.949 . S
H207 C178 0.950 . S
H208 C182 0.950 . S
H209 C184 0.950 . S
H210 C187 0.950 . S
H211 C189 0.950 . S
C212 C213 1.443 . S
C212 N216 1.380 1_565 S
C212 C250 1.389 . S
C213 C212 1.443 . S
C213 C214 1.340 1_565 S
C213 H253 0.951 . S
C214 C213 1.340 1_545 S
C214 C215 1.439 . S
C214 H254 0.950 . S
C215 C214 1.439 . S
C215 N216 1.371 . S
C215 C249 1.395 . S
N216 C212 1.380 1_545 S
N216 C215 1.371 . S
N216 Co217 2.008 1_645 S
Co217 N216 2.008 1_465 S
Co217 N218 1.995 1_465 S
Co217 N223 2.008 . S
Co217 N228 1.995 . S
Co217 N233 2.282 1_565 S
Co217 N239 2.282 1_455 S
N218 Co217 1.995 1_645 S
N218 C219 1.376 . S
N218 C222 1.383 1_655 S
C219 N218 1.376 . S
C219 C220 1.446 . S
C219 C249 1.391 . S
C220 C219 1.446 . S
C220 C221 1.339 1_655 S
C220 H255 0.949 . S
C221 C220 1.339 1_455 S
C221 C222 1.439 . S
C221 H256 0.950 . S
C222 N218 1.383 1_455 S
C222 C221 1.439 . S
C222 C251 1.392 . S
N223 Co217 2.008 . S
N223 C224 1.372 1_565 S
N223 C227 1.377 . S
C224 N223 1.372 1_545 S
C224 C225 1.443 . S
C224 C251 1.389 . S
C225 C224 1.443 . S
C225 C226 1.340 1_545 S
C225 H257 0.951 . S
C226 C225 1.340 1_565 S
C226 C227 1.439 . S
C226 H258 0.950 . S
C227 N223 1.377 . S
C227 C226 1.439 . S
C227 C252 1.395 . S
N228 Co217 1.995 . S
N228 C229 1.376 . S
N228 C232 1.383 1_455 S
C229 N228 1.376 . S
C229 C230 1.446 . S
C229 C252 1.391 . S
C230 C229 1.446 . S
C230 C231 1.339 1_455 S
C230 H259 0.949 . S
C231 C230 1.339 1_655 S
C231 C232 1.439 . S
C231 H260 0.950 . S
C232 N228 1.383 1_655 S
C232 C231 1.439 . S
C232 C250 1.392 . S
N233 Co217 2.282 1_545 S
N233 C236 1.332 . S
N233 C238 1.355 . S
C234 C235 1.386 . S
C234 C237 1.388 . S
C235 C234 1.386 . S
C235 C236 1.382 . S
C235 H261 0.950 . S
C236 N233 1.332 . S
C236 C235 1.382 . S
C236 H247 0.952 . S
C237 C234 1.388 . S
C237 C238 1.404 . S
C237 H262 0.950 . S
C238 N233 1.355 . S
C238 C237 1.404 . S
C238 H248 0.906 1_455 S
N239 Co217 2.282 1_655 S
N239 C243 1.332 . S
N239 C244 1.349 . S
C240 C241 1.388 . S
C240 C244 1.398 . S
C240 H263 0.950 . S
C241 C240 1.388 . S
C241 C242 1.386 . S
C242 C241 1.386 . S
C242 C243 1.382 . S
C242 H264 0.950 . S
C243 N239 1.332 . S
C243 C242 1.382 . S
C243 H245 0.952 . S
C244 N239 1.349 . S
C244 C240 1.398 . S
C244 H246 0.916 1_655 S
H245 C243 0.952 . S
H246 C244 0.916 1_455 S
H247 C236 0.952 . S
H248 C238 0.906 1_655 S
C249 C215 1.395 . S
C249 C219 1.391 . S
C250 C212 1.389 . S
C250 C232 1.392 . S
C251 C222 1.392 . S
C251 C224 1.389 . S
C252 C227 1.395 . S
C252 C229 1.391 . S
H253 C213 0.951 . S
H254 C214 0.950 . S
H255 C220 0.949 . S
H256 C221 0.950 . S
H257 C225 0.951 . S
H258 C226 0.950 . S
H259 C230 0.949 . S
H260 C231 0.950 . S
H261 C235 0.950 . S
H262 C237 0.950 . S
H263 C240 0.950 . S
H264 C242 0.950 . S
C265 C266 1.443 . S
C265 N269 1.376 . S
C265 C303 1.389 . S
C266 C265 1.443 . S
C266 C267 1.340 . S
C266 H306 0.951 . S
C267 C266 1.340 . S
C267 C268 1.439 . S
C267 H307 0.950 . S
C268 C267 1.439 . S
C268 N269 1.374 . S
C268 C302 1.395 . S
N269 C265 1.376 . S
N269 C268 1.374 . S
N269 Co270 2.008 . S
Co270 N269 2.008 . S
Co270 N271 1.995 . S
Co270 N276 2.008 . S
Co270 N281 1.995 . S
Co270 N286 2.282 . S
Co270 N292 2.282 . S
N271 Co270 1.995 . S
N271 C272 1.376 . S
N271 C275 1.383 . S
C272 N271 1.376 . S
C272 C273 1.446 . S
C272 C302 1.391 . S
C273 C272 1.446 . S
C273 C274 1.339 . S
C273 H308 0.949 . S
C274 C273 1.339 . S
C274 C275 1.439 . S
C274 H309 0.950 . S
C275 N271 1.383 . S
C275 C274 1.439 . S
C275 C304 1.392 . S
N276 Co270 2.008 . S
N276 C277 1.376 . S
N276 C280 1.374 . S
C277 N276 1.376 . S
C277 C278 1.443 . S
C277 C304 1.389 . S
C278 C277 1.443 . S
C278 C279 1.340 . S
C278 H310 0.951 . S
C279 C278 1.340 . S
C279 C280 1.439 . S
C279 H311 0.950 . S
C280 N276 1.374 . S
C280 C279 1.439 . S
C280 C305 1.395 . S
N281 Co270 1.995 . S
N281 C282 1.376 . S
N281 C285 1.383 . S
C282 N281 1.376 . S
C282 C283 1.446 . S
C282 C305 1.391 . S
C283 C282 1.446 . S
C283 C284 1.339 . S
C283 H312 0.949 . S
C284 C283 1.339 . S
C284 C285 1.439 . S
C284 H313 0.950 . S
C285 N281 1.383 . S
C285 C284 1.439 . S
C285 C303 1.392 . S
N286 Co270 2.282 . S
N286 C289 1.332 . S
N286 C291 1.332 . S
C287 C288 1.386 . S
C287 C290 1.388 . S
C288 C287 1.386 . S
C288 C289 1.382 . S
C288 H314 0.950 . S
C289 N286 1.332 . S
C289 C288 1.382 . S
C289 H300 0.952 . S
C290 C287 1.388 . S
C290 C291 1.382 . S
C290 H315 0.950 . S
C291 N286 1.332 . S
C291 C290 1.382 . S
C291 H301 0.948 . S
N292 Co270 2.282 . S
N292 C296 1.332 . S
N292 C297 1.332 . S
C293 C294 1.388 . S
C293 C297 1.382 . S
C293 H316 0.950 . S
C294 C293 1.388 . S
C294 C295 1.386 . S
C295 C294 1.386 . S
C295 C296 1.382 . S
C295 H317 0.950 . S
C296 N292 1.332 . S
C296 C295 1.382 . S
C296 H298 0.952 . S
C297 N292 1.332 . S
C297 C293 1.382 . S
C297 H299 0.948 . S
H298 C296 0.952 . S
H299 C297 0.948 . S
H300 C289 0.952 . S
H301 C291 0.948 . S
C302 C268 1.395 . S
C302 C272 1.391 . S
C303 C265 1.389 . S
C303 C285 1.392 . S
C304 C275 1.392 . S
C304 C277 1.389 . S
C305 C280 1.395 . S
C305 C282 1.391 . S
H306 C266 0.951 . S
H307 C267 0.950 . S
H308 C273 0.949 . S
H309 C274 0.950 . S
H310 C278 0.951 . S
H311 C279 0.950 . S
H312 C283 0.949 . S
H313 C284 0.950 . S
H314 C288 0.950 . S
H315 C290 0.950 . S
H316 C293 0.950 . S
H317 C295 0.950 . S
C318 C319 1.443 . S
C318 N322 1.406 . S
C318 C356 1.389 . S
C319 C318 1.443 . S
C319 C320 1.341 . S
C319 H359 0.951 . S
C320 C319 1.341 . S
C320 C321 1.439 1_545 S
C320 H360 0.950 1_545 S
C321 C320 1.439 1_565 S
C321 N322 1.354 1_565 S
C321 C355 1.395 . S
N322 C318 1.406 . S
N322 C321 1.354 1_545 S
N322 Co323 2.010 . S
Co323 N322 2.010 . S
Co323 N324 1.995 1_545 S
Co323 N329 2.009 1_545 S
Co323 N334 1.995 . S
Co323 N339 2.282 1_545 S
Co323 N345 2.282 . S
N324 Co323 1.995 1_565 S
N324 C325 1.376 . S
N324 C328 1.383 . S
C325 N324 1.376 . S
C325 C326 1.446 . S
C325 C355 1.391 . S
C326 C325 1.446 . S
C326 C327 1.339 . S
C326 H361 0.949 . S
C327 C326 1.339 . S
C327 C328 1.439 . S
C327 H362 0.950 . S
C328 N324 1.383 . S
C328 C327 1.439 . S
C328 C357 1.392 . S
N329 Co323 2.009 1_565 S
N329 C330 1.397 . S
N329 C333 1.359 1_565 S
C330 N329 1.397 . S
C330 C331 1.443 . S
C330 C357 1.389 . S
C331 C330 1.443 . S
C331 C332 1.341 1_565 S
C331 H363 0.951 . S
C332 C331 1.341 1_545 S
C332 C333 1.439 . S
C332 H364 0.950 . S
C333 N329 1.359 1_545 S
C333 C332 1.439 . S
C333 C358 1.395 . S
N334 Co323 1.995 . S
N334 C335 1.376 . S
N334 C338 1.383 . S
C335 N334 1.376 . S
C335 C336 1.446 . S
C335 C358 1.391 . S
C336 C335 1.446 . S
C336 C337 1.339 . S
C336 H365 0.949 . S
C337 C336 1.339 . S
C337 C338 1.439 . S
C337 H366 0.950 . S
C338 N334 1.383 . S
C338 C337 1.439 . S
C338 C356 1.392 . S
N339 Co323 2.282 1_565 S
N339 C342 1.332 . S
N339 C344 1.332 . S
C340 C341 1.386 . S
C340 C343 1.388 . S
C341 C340 1.386 . S
C341 C342 1.382 . S
C341 H367 0.950 . S
C342 N339 1.332 . S
C342 C341 1.382 . S
C342 H353 0.952 . S
C343 C340 1.388 . S
C343 C344 1.382 . S
C343 H368 0.950 . S
C344 N339 1.332 . S
C344 C343 1.382 . S
C344 H354 0.948 . S
N345 Co323 2.282 . S
N345 C349 1.332 . S
N345 C350 1.332 . S
C346 C347 1.388 . S
C346 C350 1.382 . S
C346 H369 0.950 . S
C347 C346 1.388 . S
C347 C348 1.386 . S
C348 C347 1.386 . S
C348 C349 1.382 . S
C348 H370 0.950 . S
C349 N345 1.332 . S
C349 C348 1.382 . S
C349 H351 0.952 . S
C350 N345 1.332 . S
C350 C346 1.382 . S
C350 H352 0.948 . S
H351 C349 0.952 . S
H352 C350 0.948 . S
H353 C342 0.952 . S
H354 C344 0.948 . S
C355 C321 1.395 . S
C355 C325 1.391 . S
C356 C318 1.389 . S
C356 C338 1.392 . S
C357 C328 1.392 . S
C357 C330 1.389 . S
C358 C333 1.395 . S
C358 C335 1.391 . S
H359 C319 0.951 . S
H360 C320 0.950 1_565 S
H361 C326 0.949 . S
H362 C327 0.950 . S
H363 C331 0.951 . S
H364 C332 0.950 . S
H365 C336 0.949 . S
H366 C337 0.950 . S
H367 C341 0.950 . S
H368 C343 0.950 . S
H369 C346 0.950 . S
H370 C348 0.950 . S
C371 C372 1.443 . S
C371 N375 1.376 . S
C371 C409 1.389 . S
C372 C371 1.443 . S
C372 C373 1.340 . S
C372 H412 0.951 . S
C373 C372 1.340 . S
C373 C374 1.439 . S
C373 H413 0.950 . S
C374 C373 1.439 . S
C374 N375 1.374 . S
C374 C408 1.395 . S
N375 C371 1.376 . S
N375 C374 1.374 . S
N375 Co376 2.008 . S
Co376 N375 2.008 . S
Co376 N377 1.995 . S
Co376 N382 2.008 . S
Co376 N387 1.995 . S
Co376 N392 2.282 . S
Co376 N398 2.282 . S
N377 Co376 1.995 . S
N377 C378 1.376 . S
N377 C381 1.383 . S
C378 N377 1.376 . S
C378 C379 1.446 . S
C378 C408 1.391 . S
C379 C378 1.446 . S
C379 C380 1.339 . S
C379 H414 0.949 . S
C380 C379 1.339 . S
C380 C381 1.439 . S
C380 H415 0.950 . S
C381 N377 1.383 . S
C381 C380 1.439 . S
C381 C410 1.392 . S
N382 Co376 2.008 . S
N382 C383 1.376 . S
N382 C386 1.374 . S
C383 N382 1.376 . S
C383 C384 1.443 . S
C383 C410 1.389 . S
C384 C383 1.443 . S
C384 C385 1.340 . S
C384 H416 0.951 . S
C385 C384 1.340 . S
C385 C386 1.439 . S
C385 H417 0.950 . S
C386 N382 1.374 . S
C386 C385 1.439 . S
C386 C411 1.395 . S
N387 Co376 1.995 . S
N387 C388 1.376 . S
N387 C391 1.383 . S
C388 N387 1.376 . S
C388 C389 1.446 . S
C388 C411 1.391 . S
C389 C388 1.446 . S
C389 C390 1.339 . S
C389 H418 0.949 . S
C390 C389 1.339 . S
C390 C391 1.439 . S
C390 H419 0.950 . S
C391 N387 1.383 . S
C391 C390 1.439 . S
C391 C409 1.392 . S
N392 Co376 2.282 . S
N392 C395 1.332 . S
N392 C397 1.332 . S
C393 C394 1.386 . S
C393 C396 1.388 . S
C394 C393 1.386 . S
C394 C395 1.382 . S
C394 H420 0.950 . S
C395 N392 1.332 . S
C395 C394 1.382 . S
C395 H406 0.952 . S
C396 C393 1.388 . S
C396 C397 1.382 . S
C396 H421 0.950 . S
C397 N392 1.332 . S
C397 C396 1.382 . S
C397 H407 0.948 . S
N398 Co376 2.282 . S
N398 C402 1.332 . S
N398 C403 1.332 . S
C399 C400 1.388 . S
C399 C403 1.382 . S
C399 H422 0.950 . S
C400 C399 1.388 . S
C400 C401 1.386 . S
C401 C400 1.386 . S
C401 C402 1.382 . S
C401 H423 0.950 . S
C402 N398 1.332 . S
C402 C401 1.382 . S
C402 H404 0.952 . S
C403 N398 1.332 . S
C403 C399 1.382 . S
C403 H405 0.948 . S
H404 C402 0.952 . S
H405 C403 0.948 . S
H406 C395 0.952 . S
H407 C397 0.948 . S
C408 C374 1.395 . S
C408 C378 1.391 . S
C409 C371 1.389 . S
C409 C391 1.392 . S
C410 C381 1.392 . S
C410 C383 1.389 . S
C411 C386 1.395 . S
C411 C388 1.391 . S
H412 C372 0.951 . S
H413 C373 0.950 . S
H414 C379 0.949 . S
H415 C380 0.950 . S
H416 C384 0.951 . S
H417 C385 0.950 . S
H418 C389 0.949 . S
H419 C390 0.950 . S
H420 C394 0.950 . S
H421 C396 0.950 . S
H422 C399 0.950 . S
H423 C401 0.950 . S
C424 C425 1.443 . S
C424 N428 1.376 . S
C424 C462 1.389 . S
C425 C424 1.443 . S
C425 C426 1.340 . S
C425 H465 0.951 . S
C426 C425 1.340 . S
C426 C427 1.439 . S
C426 H466 0.950 . S
C427 C426 1.439 . S
C427 N428 1.374 . S
C427 C461 1.395 . S
N428 C424 1.376 . S
N428 C427 1.374 . S
N428 Co429 2.008 . S
Co429 N428 2.008 . S
Co429 N430 1.995 . S
Co429 N435 2.008 . S
Co429 N440 1.995 . S
Co429 N445 2.282 . S
Co429 N451 2.282 . S
N430 Co429 1.995 . S
N430 C431 1.376 . S
N430 C434 1.383 . S
C431 N430 1.376 . S
C431 C432 1.446 . S
C431 C461 1.391 . S
C432 C431 1.446 . S
C432 C433 1.339 . S
C432 H467 0.949 . S
C433 C432 1.339 . S
C433 C434 1.439 . S
C433 H468 0.950 . S
C434 N430 1.383 . S
C434 C433 1.439 . S
C434 C463 1.392 . S
N435 Co429 2.008 . S
N435 C436 1.376 . S
N435 C439 1.374 . S
C436 N435 1.376 . S
C436 C437 1.443 . S
C436 C463 1.389 . S
C437 C436 1.443 . S
C437 C438 1.340 . S
C437 H469 0.951 . S
C438 C437 1.340 . S
C438 C439 1.439 . S
C438 H470 0.950 . S
C439 N435 1.374 . S
C439 C438 1.439 . S
C439 C464 1.395 . S
N440 Co429 1.995 . S
N440 C441 1.376 . S
N440 C444 1.383 . S
C441 N440 1.376 . S
C441 C442 1.446 . S
C441 C464 1.391 . S
C442 C441 1.446 . S
C442 C443 1.339 . S
C442 H471 0.949 . S
C443 C442 1.339 . S
C443 C444 1.439 . S
C443 H472 0.950 . S
C444 N440 1.383 . S
C444 C443 1.439 . S
C444 C462 1.392 . S
N445 Co429 2.282 . S
N445 C448 1.332 . S
N445 C450 1.332 . S
C446 C447 1.386 . S
C446 C449 1.388 . S
C447 C446 1.386 . S
C447 C448 1.382 . S
C447 H473 0.950 . S
C448 N445 1.332 . S
C448 C447 1.382 . S
C448 H459 0.952 . S
C449 C446 1.388 . S
C449 C450 1.382 . S
C449 H474 0.950 . S
C450 N445 1.332 . S
C450 C449 1.382 . S
C450 H460 0.948 . S
N451 Co429 2.282 . S
N451 C455 1.332 . S
N451 C456 1.332 . S
C452 C453 1.388 . S
C452 C456 1.382 . S
C452 H475 0.950 . S
C453 C452 1.388 . S
C453 C454 1.386 . S
C454 C453 1.386 . S
C454 C455 1.382 . S
C454 H476 0.950 . S
C455 N451 1.332 . S
C455 C454 1.382 . S
C455 H457 0.952 . S
C456 N451 1.332 . S
C456 C452 1.382 . S
C456 H458 0.948 . S
H457 C455 0.952 . S
H458 C456 0.948 . S
H459 C448 0.952 . S
H460 C450 0.948 . S
C461 C427 1.395 . S
C461 C431 1.391 . S
C462 C424 1.389 . S
C462 C444 1.392 . S
C463 C434 1.392 . S
C463 C436 1.389 . S
C464 C439 1.395 . S
C464 C441 1.391 . S
H465 C425 0.951 . S
H466 C426 0.950 . S
H467 C432 0.949 . S
H468 C433 0.950 . S
H469 C437 0.951 . S
H470 C438 0.950 . S
H471 C442 0.949 . S
H472 C443 0.950 . S
H473 C447 0.950 . S
H474 C449 0.950 . S
H475 C452 0.950 . S
H476 C454 0.950 . S
C477 C478 1.443 . S
C477 N481 1.376 . S
C477 C515 1.389 . S
C478 C477 1.443 . S
C478 C479 1.340 . S
C478 H518 0.951 . S
C479 C478 1.340 . S
C479 C480 1.439 . S
C479 H519 0.950 . S
C480 C479 1.439 . S
C480 N481 1.374 . S
C480 C514 1.395 . S
N481 C477 1.376 . S
N481 C480 1.374 . S
N481 Co482 2.008 . S
Co482 N481 2.008 . S
Co482 N483 1.995 . S
Co482 N488 2.008 1_565 S
Co482 N493 1.995 1_565 S
Co482 N498 2.282 1_565 S
Co482 N504 2.282 . S
N483 Co482 1.995 . S
N483 C484 1.376 . S
N483 C487 1.383 . S
C484 N483 1.376 . S
C484 C485 1.446 . S
C484 C514 1.391 . S
C485 C484 1.446 . S
C485 C486 1.339 . S
C485 H520 0.949 . S
C486 C485 1.339 . S
C486 C487 1.439 . S
C486 H521 0.950 . S
C487 N483 1.383 . S
C487 C486 1.439 . S
C487 C516 1.392 1_565 S
N488 Co482 2.008 1_545 S
N488 C489 1.376 . S
N488 C492 1.374 . S
C489 N488 1.376 . S
C489 C490 1.443 . S
C489 C516 1.389 . S
C490 C489 1.443 . S
C490 C491 1.340 . S
C490 H522 0.951 . S
C491 C490 1.340 . S
C491 C492 1.439 . S
C491 H523 0.950 . S
C492 N488 1.374 . S
C492 C491 1.439 . S
C492 C517 1.395 . S
N493 Co482 1.995 1_545 S
N493 C494 1.376 . S
N493 C497 1.383 . S
C494 N493 1.376 . S
C494 C495 1.446 . S
C494 C517 1.391 . S
C495 C494 1.446 . S
C495 C496 1.339 . S
C495 H524 0.949 . S
C496 C495 1.339 . S
C496 C497 1.439 . S
C496 H525 0.950 . S
C497 N493 1.383 . S
C497 C496 1.439 . S
C497 C515 1.392 1_545 S
N498 Co482 2.282 1_545 S
N498 C501 1.332 . S
N498 C503 1.332 . S
C499 C500 1.386 . S
C499 C502 1.388 . S
C500 C499 1.386 . S
C500 C501 1.382 . S
C500 H526 0.950 . S
C501 N498 1.332 . S
C501 C500 1.382 . S
C501 H512 0.952 . S
C502 C499 1.388 . S
C502 C503 1.382 . S
C502 H527 0.950 . S
C503 N498 1.332 . S
C503 C502 1.382 . S
C503 H513 0.913 1_545 S
N504 Co482 2.282 . S
N504 C508 1.332 . S
N504 C509 1.332 . S
C505 C506 1.388 . S
C505 C509 1.382 . S
C505 H528 0.950 . S
C506 C505 1.388 . S
C506 C507 1.386 . S
C507 C506 1.386 . S
C507 C508 1.382 . S
C507 H529 0.950 . S
C508 N504 1.332 . S
C508 C507 1.382 . S
C508 H510 0.952 . S
C509 N504 1.332 . S
C509 C505 1.382 . S
C509 H511 0.948 . S
H510 C508 0.952 . S
H511 C509 0.948 . S
H512 C501 0.952 . S
H513 C503 0.913 1_565 S
C514 C480 1.395 . S
C514 C484 1.391 . S
C515 C477 1.389 . S
C515 C497 1.392 1_565 S
C516 C487 1.392 1_545 S
C516 C489 1.389 . S
C517 C492 1.395 . S
C517 C494 1.391 . S
H518 C478 0.951 . S
H519 C479 0.950 . S
H520 C485 0.949 . S
H521 C486 0.950 . S
H522 C490 0.951 . S
H523 C491 0.950 . S
H524 C495 0.949 . S
H525 C496 0.950 . S
H526 C500 0.950 . S
H527 C502 0.950 . S
H528 C505 0.950 . S
H529 C507 0.950 . S
C530 C531 1.443 . S
C530 N534 1.376 . S
C530 C568 1.389 . S
C531 C530 1.443 . S
C531 C532 1.340 . S
C531 H571 0.951 . S
C532 C531 1.340 . S
C532 C533 1.439 . S
C532 H572 0.950 . S
C533 C532 1.439 . S
C533 N534 1.374 . S
C533 C567 1.395 . S
N534 C530 1.376 . S
N534 C533 1.374 . S
N534 Co535 2.008 . S
Co535 N534 2.008 . S
Co535 N536 1.995 . S
Co535 N541 2.008 . S
Co535 N546 1.995 . S
Co535 N551 2.282 . S
Co535 N557 2.282 . S
N536 Co535 1.995 . S
N536 C537 1.376 . S
N536 C540 1.383 . S
C537 N536 1.376 . S
C537 C538 1.446 . S
C537 C567 1.391 . S
C538 C537 1.446 . S
C538 C539 1.339 . S
C538 H573 0.949 . S
C539 C538 1.339 . S
C539 C540 1.439 . S
C539 H574 0.950 . S
C540 N536 1.383 . S
C540 C539 1.439 . S
C540 C569 1.392 . S
N541 Co535 2.008 . S
N541 C542 1.376 . S
N541 C545 1.374 . S
C542 N541 1.376 . S
C542 C543 1.443 . S
C542 C569 1.389 . S
C543 C542 1.443 . S
C543 C544 1.340 . S
C543 H575 0.951 . S
C544 C543 1.340 . S
C544 C545 1.439 . S
C544 H576 0.950 . S
C545 N541 1.374 . S
C545 C544 1.439 . S
C545 C570 1.395 . S
N546 Co535 1.995 . S
N546 C547 1.376 . S
N546 C550 1.383 . S
C547 N546 1.376 . S
C547 C548 1.446 . S
C547 C570 1.391 . S
C548 C547 1.446 . S
C548 C549 1.339 . S
C548 H577 0.949 . S
C549 C548 1.339 . S
C549 C550 1.439 . S
C549 H578 0.950 . S
C550 N546 1.383 . S
C550 C549 1.439 . S
C550 C568 1.392 . S
N551 Co535 2.282 . S
N551 C554 1.332 . S
N551 C556 1.332 . S
C552 C553 1.386 . S
C552 C555 1.388 . S
C553 C552 1.386 . S
C553 C554 1.382 . S
C553 H579 0.950 . S
C554 N551 1.332 . S
C554 C553 1.382 . S
C554 H565 0.952 . S
C555 C552 1.388 . S
C555 C556 1.382 . S
C555 H580 0.950 . S
C556 N551 1.332 . S
C556 C555 1.382 . S
C556 H566 0.948 . S
N557 Co535 2.282 . S
N557 C561 1.332 . S
N557 C562 1.332 . S
C558 C559 1.388 . S
C558 C562 1.382 . S
C558 H581 0.950 . S
C559 C558 1.388 . S
C559 C560 1.386 . S
C560 C559 1.386 . S
C560 C561 1.382 . S
C560 H582 0.950 . S
C561 N557 1.332 . S
C561 C560 1.382 . S
C561 H563 0.952 . S
C562 N557 1.332 . S
C562 C558 1.382 . S
C562 H564 0.948 . S
H563 C561 0.952 . S
H564 C562 0.948 . S
H565 C554 0.952 . S
H566 C556 0.948 . S
C567 C533 1.395 . S
C567 C537 1.391 . S
C568 C530 1.389 . S
C568 C550 1.392 . S
C569 C540 1.392 . S
C569 C542 1.389 . S
C570 C545 1.395 . S
C570 C547 1.391 . S
H571 C531 0.951 . S
H572 C532 0.950 . S
H573 C538 0.949 . S
H574 C539 0.950 . S
H575 C543 0.951 . S
H576 C544 0.950 . S
H577 C548 0.949 . S
H578 C549 0.950 . S
H579 C553 0.950 . S
H580 C555 0.950 . S
H581 C558 0.950 . S
H582 C560 0.950 . S
C583 C584 1.443 . S
C583 N587 1.376 . S
C583 C621 1.389 . S
C584 C583 1.443 . S
C584 C585 1.340 . S
C584 H624 0.951 . S
C585 C584 1.340 . S
C585 C586 1.439 1_554 S
C585 H625 0.950 . S
C586 C585 1.439 1_556 S
C586 N587 1.374 1_556 S
C586 C620 1.395 . S
N587 C583 1.376 . S
N587 C586 1.374 1_554 S
N587 Co588 2.008 1_554 S
Co588 N587 2.008 1_556 S
Co588 N589 1.995 . S
Co588 N594 2.008 1_545 S
Co588 N599 1.995 1_546 S
Co588 N604 2.282 1_545 S
Co588 N610 2.282 1_556 S
N589 Co588 1.995 . S
N589 C590 1.376 . S
N589 C593 1.383 . S
C590 N589 1.376 . S
C590 C591 1.446 . S
C590 C620 1.391 . S
C591 C590 1.446 . S
C591 C592 1.339 . S
C591 H626 0.949 . S
C592 C591 1.339 . S
C592 C593 1.439 . S
C592 H627 0.950 . S
C593 N589 1.383 . S
C593 C592 1.439 . S
C593 C622 1.392 1_545 S
N594 Co588 2.008 1_565 S
N594 C595 1.376 . S
N594 C598 1.374 1_556 S
C595 N594 1.376 . S
C595 C596 1.443 . S
C595 C622 1.389 . S
C596 C595 1.443 . S
C596 C597 1.340 . S
C596 H628 0.951 . S
C597 C596 1.340 . S
C597 C598 1.439 1_556 S
C597 H629 0.950 . S
C598 N594 1.374 1_554 S
C598 C597 1.439 1_554 S
C598 C623 1.395 . S
N599 Co588 1.995 1_564 S
N599 C600 1.376 . S
N599 C603 1.383 1_565 S
C600 N599 1.376 . S
C600 C601 1.446 . S
C600 C623 1.391 . S
C601 C600 1.446 . S
C601 C602 1.339 . S
C601 H630 0.949 . S
C602 C601 1.339 . S
C602 C603 1.439 1_565 S
C602 H631 0.950 . S
C603 N599 1.383 1_545 S
C603 C602 1.439 1_545 S
C603 C621 1.392 . S
N604 Co588 2.282 1_565 S
N604 C607 1.332 . S
N604 C609 1.332 . S
C605 C606 1.386 . S
C605 C608 1.388 . S
C606 C605 1.386 . S
C606 C607 1.382 . S
C606 H632 0.950 . S
C607 N604 1.332 . S
C607 C606 1.382 . S
C607 H618 0.952 1_556 S
C608 C605 1.388 . S
C608 C609 1.382 . S
C608 H633 0.950 . S
C609 N604 1.332 . S
C609 C608 1.382 . S
C609 H619 0.948 1_565 S
N610 Co588 2.282 1_554 S
N610 C614 1.332 . S
N610 C615 1.332 . S
C611 C612 1.388 . S
C611 C615 1.382 . S
C611 H634 0.950 . S
C612 C611 1.388 . S
C612 C613 1.386 . S
C613 C612 1.386 . S
C613 C614 1.382 . S
C613 H635 0.950 . S
C614 N610 1.332 . S
C614 C613 1.382 . S
C614 H616 0.952 1_554 S
C615 N610 1.332 . S
C615 C611 1.382 . S
C615 H617 0.948 . S
H616 C614 0.952 1_556 S
H617 C615 0.948 . S
H618 C607 0.952 1_554 S
H619 C609 0.948 1_545 S
C620 C586 1.395 . S
C620 C590 1.391 . S
C621 C583 1.389 . S
C621 C603 1.392 . S
C622 C593 1.392 1_565 S
C622 C595 1.389 . S
C623 C598 1.395 . S
C623 C600 1.391 . S
H624 C584 0.951 . S
H625 C585 0.950 . S
H626 C591 0.949 . S
H627 C592 0.950 . S
H628 C596 0.951 . S
H629 C597 0.950 . S
H630 C601 0.949 . S
H631 C602 0.950 . S
H632 C606 0.950 . S
H633 C608 0.950 . S
H634 C611 0.950 . S
H635 C613 0.950 . S
C636 C637 1.443 . S
C636 N640 1.376 . S
C636 C674 1.389 . S
C637 C636 1.443 . S
C637 C638 1.340 . S
C637 H677 0.951 . S
C638 C637 1.340 . S
C638 C639 1.439 . S
C638 H678 0.950 . S
C639 C638 1.439 . S
C639 N640 1.374 . S
C639 C673 1.395 . S
N640 C636 1.376 . S
N640 C639 1.374 . S
N640 Co641 2.008 . S
Co641 N640 2.008 . S
Co641 N642 1.995 . S
Co641 N647 2.008 . S
Co641 N652 1.995 . S
Co641 N657 2.282 . S
Co641 N663 2.282 . S
N642 Co641 1.995 . S
N642 C643 1.376 . S
N642 C646 1.383 . S
C643 N642 1.376 . S
C643 C644 1.446 . S
C643 C673 1.391 . S
C644 C643 1.446 . S
C644 C645 1.339 . S
C644 H679 0.949 . S
C645 C644 1.339 . S
C645 C646 1.439 . S
C645 H680 0.950 . S
C646 N642 1.383 . S
C646 C645 1.439 . S
C646 C675 1.392 . S
N647 Co641 2.008 . S
N647 C648 1.376 . S
N647 C651 1.374 . S
C648 N647 1.376 . S
C648 C649 1.443 . S
C648 C675 1.389 . S
C649 C648 1.443 . S
C649 C650 1.340 . S
C649 H681 0.951 . S
C650 C649 1.340 . S
C650 C651 1.439 . S
C650 H682 0.950 . S
C651 N647 1.374 . S
C651 C650 1.439 . S
C651 C676 1.395 . S
N652 Co641 1.995 . S
N652 C653 1.376 . S
N652 C656 1.383 . S
C653 N652 1.376 . S
C653 C654 1.446 . S
C653 C676 1.391 . S
C654 C653 1.446 . S
C654 C655 1.339 . S
C654 H683 0.949 . S
C655 C654 1.339 . S
C655 C656 1.439 . S
C655 H684 0.950 . S
C656 N652 1.383 . S
C656 C655 1.439 . S
C656 C674 1.392 . S
N657 Co641 2.282 . S
N657 C660 1.332 . S
N657 C662 1.332 . S
C658 C659 1.386 . S
C658 C661 1.388 . S
C659 C658 1.386 . S
C659 C660 1.382 . S
C659 H685 0.950 . S
C660 N657 1.332 . S
C660 C659 1.382 . S
C660 H671 0.952 . S
C661 C658 1.388 . S
C661 C662 1.382 . S
C661 H686 0.950 . S
C662 N657 1.332 . S
C662 C661 1.382 . S
C662 H672 0.948 . S
N663 Co641 2.282 . S
N663 C667 1.332 . S
N663 C668 1.332 . S
C664 C665 1.388 . S
C664 C668 1.382 . S
C664 H687 0.950 . S
C665 C664 1.388 . S
C665 C666 1.386 . S
C666 C665 1.386 . S
C666 C667 1.382 . S
C666 H688 0.950 . S
C667 N663 1.332 . S
C667 C666 1.382 . S
C667 H669 0.952 . S
C668 N663 1.332 . S
C668 C664 1.382 . S
C668 H670 0.948 . S
H669 C667 0.952 . S
H670 C668 0.948 . S
H671 C660 0.952 . S
H672 C662 0.948 . S
C673 C639 1.395 . S
C673 C643 1.391 . S
C674 C636 1.389 . S
C674 C656 1.392 . S
C675 C646 1.392 . S
C675 C648 1.389 . S
C676 C651 1.395 . S
C676 C653 1.391 . S
H677 C637 0.951 . S
H678 C638 0.950 . S
H679 C644 0.949 . S
H680 C645 0.950 . S
H681 C649 0.951 . S
H682 C650 0.950 . S
H683 C654 0.949 . S
H684 C655 0.950 . S
H685 C659 0.950 . S
H686 C661 0.950 . S
H687 C664 0.950 . S
H688 C666 0.950 . S
C689 C690 1.443 . S
C689 N693 1.376 . S
C689 C727 1.389 . S
C690 C689 1.443 . S
C690 C691 1.340 . S
C690 H730 0.951 . S
C691 C690 1.340 . S
C691 C692 1.439 . S
C691 H731 0.950 . S
C692 C691 1.439 . S
C692 N693 1.374 . S
C692 C726 1.395 . S
N693 C689 1.376 . S
N693 C692 1.374 . S
N693 Co694 2.008 1_455 S
Co694 N693 2.008 1_655 S
Co694 N695 1.995 1_655 S
Co694 N700 2.008 . S
Co694 N705 1.995 . S
Co694 N710 2.282 . S
Co694 N716 2.282 1_655 S
N695 Co694 1.995 1_455 S
N695 C696 1.376 . S
N695 C699 1.383 1_455 S
C696 N695 1.376 . S
C696 C697 1.446 . S
C696 C726 1.391 . S
C697 C696 1.446 . S
C697 C698 1.339 1_455 S
C697 H732 0.949 . S
C698 C697 1.339 1_655 S
C698 C699 1.439 . S
C698 H733 0.950 . S
C699 N695 1.383 1_655 S
C699 C698 1.439 . S
C699 C728 1.392 . S
N700 Co694 2.008 . S
N700 C701 1.376 . S
N700 C704 1.374 . S
C701 N700 1.376 . S
C701 C702 1.443 . S
C701 C728 1.389 . S
C702 C701 1.443 . S
C702 C703 1.340 . S
C702 H734 0.951 . S
C703 C702 1.340 . S
C703 C704 1.439 . S
C703 H735 0.950 . S
C704 N700 1.374 . S
C704 C703 1.439 . S
C704 C729 1.395 . S
N705 Co694 1.995 . S
N705 C706 1.376 . S
N705 C709 1.383 1_655 S
C706 N705 1.376 . S
C706 C707 1.446 . S
C706 C729 1.391 . S
C707 C706 1.446 . S
C707 C708 1.339 1_655 S
C707 H736 0.949 . S
C708 C707 1.339 1_455 S
C708 C709 1.439 . S
C708 H737 0.950 . S
C709 N705 1.383 1_455 S
C709 C708 1.439 . S
C709 C727 1.392 . S
N710 Co694 2.282 . S
N710 C713 1.332 . S
N710 C715 1.332 1_655 S
C711 C712 1.386 . S
C711 C714 1.388 . S
C712 C711 1.386 . S
C712 C713 1.382 . S
C712 H738 0.950 . S
C713 N710 1.332 . S
C713 C712 1.382 . S
C713 H724 0.952 . S
C714 C711 1.388 . S
C714 C715 1.382 1_655 S
C714 H739 0.950 1_655 S
C715 N710 1.332 1_455 S
C715 C714 1.382 1_455 S
C715 H725 0.948 . S
N716 Co694 2.282 1_455 S
N716 C720 1.332 . S
N716 C721 1.332 1_455 S
C717 C718 1.388 . S
C717 C721 1.382 1_455 S
C717 H740 0.950 1_455 S
C718 C717 1.388 . S
C718 C719 1.386 . S
C719 C718 1.386 . S
C719 C720 1.382 . S
C719 H741 0.950 . S
C720 N716 1.332 . S
C720 C719 1.382 . S
C720 H722 0.952 . S
C721 N716 1.332 1_655 S
C721 C717 1.382 1_655 S
C721 H723 0.948 . S
H722 C720 0.952 . S
H723 C721 0.948 . S
H724 C713 0.952 . S
H725 C715 0.948 . S
C726 C692 1.395 . S
C726 C696 1.391 . S
C727 C689 1.389 . S
C727 C709 1.392 . S
C728 C699 1.392 . S
C728 C701 1.389 . S
C729 C704 1.395 . S
C729 C706 1.391 . S
H730 C690 0.951 . S
H731 C691 0.950 . S
H732 C697 0.949 . S
H733 C698 0.950 . S
H734 C702 0.951 . S
H735 C703 0.950 . S
H736 C707 0.949 . S
H737 C708 0.950 . S
H738 C712 0.950 . S
H739 C714 0.950 1_455 S
H740 C717 0.950 1_655 S
H741 C719 0.950 . S
C742 C743 1.443 . S
C742 N746 1.376 . S
C742 C780 1.389 . S
C743 C742 1.443 . S
C743 C744 1.340 . S
C743 H783 0.951 . S
C744 C743 1.340 . S
C744 C745 1.439 . S
C744 H784 0.950 . S
C745 C744 1.439 . S
C745 N746 1.374 . S
C745 C779 1.395 . S
N746 C742 1.376 . S
N746 C745 1.374 . S
N746 Co747 2.008 . S
Co747 N746 2.008 . S
Co747 N748 1.995 . S
Co747 N753 2.008 . S
Co747 N758 1.995 . S
Co747 N763 2.282 . S
Co747 N769 2.282 . S
N748 Co747 1.995 . S
N748 C749 1.376 . S
N748 C752 1.383 . S
C749 N748 1.376 . S
C749 C750 1.446 . S
C749 C779 1.391 . S
C750 C749 1.446 . S
C750 C751 1.339 . S
C750 H785 0.949 . S
C751 C750 1.339 . S
C751 C752 1.439 . S
C751 H786 0.950 . S
C752 N748 1.383 . S
C752 C751 1.439 . S
C752 C781 1.392 . S
N753 Co747 2.008 . S
N753 C754 1.376 . S
N753 C757 1.374 . S
C754 N753 1.376 . S
C754 C755 1.443 . S
C754 C781 1.389 . S
C755 C754 1.443 . S
C755 C756 1.340 . S
C755 H787 0.951 . S
C756 C755 1.340 . S
C756 C757 1.439 . S
C756 H788 0.950 . S
C757 N753 1.374 . S
C757 C756 1.439 . S
C757 C782 1.395 . S
N758 Co747 1.995 . S
N758 C759 1.376 . S
N758 C762 1.383 . S
C759 N758 1.376 . S
C759 C760 1.446 . S
C759 C782 1.391 . S
C760 C759 1.446 . S
C760 C761 1.339 . S
C760 H789 0.949 . S
C761 C760 1.339 . S
C761 C762 1.439 . S
C761 H790 0.950 . S
C762 N758 1.383 . S
C762 C761 1.439 . S
C762 C780 1.392 . S
N763 Co747 2.282 . S
N763 C766 1.332 . S
N763 C768 1.332 . S
C764 C765 1.386 . S
C764 C767 1.388 . S
C765 C764 1.386 . S
C765 C766 1.382 . S
C765 H791 0.950 . S
C766 N763 1.332 . S
C766 C765 1.382 . S
C766 H777 0.952 . S
C767 C764 1.388 . S
C767 C768 1.382 . S
C767 H792 0.950 . S
C768 N763 1.332 . S
C768 C767 1.382 . S
C768 H778 0.948 . S
N769 Co747 2.282 . S
N769 C773 1.332 . S
N769 C774 1.332 . S
C770 C771 1.388 . S
C770 C774 1.382 . S
C770 H793 0.950 . S
C771 C770 1.388 . S
C771 C772 1.386 . S
C772 C771 1.386 . S
C772 C773 1.382 . S
C772 H794 0.950 . S
C773 N769 1.332 . S
C773 C772 1.382 . S
C773 H775 0.952 . S
C774 N769 1.332 . S
C774 C770 1.382 . S
C774 H776 0.948 . S
H775 C773 0.952 . S
H776 C774 0.948 . S
H777 C766 0.952 . S
H778 C768 0.948 . S
C779 C745 1.395 . S
C779 C749 1.391 . S
C780 C742 1.389 . S
C780 C762 1.392 . S
C781 C752 1.392 . S
C781 C754 1.389 . S
C782 C757 1.395 . S
C782 C759 1.391 . S
H783 C743 0.951 . S
H784 C744 0.950 . S
H785 C750 0.949 . S
H786 C751 0.950 . S
H787 C755 0.951 . S
H788 C756 0.950 . S
H789 C760 0.949 . S
H790 C761 0.950 . S
H791 C765 0.950 . S
H792 C767 0.950 . S
H793 C770 0.950 . S
H794 C772 0.950 . S
C795 C796 1.443 . S
C795 N799 1.376 . S
C795 C833 1.389 . S
C796 C795 1.443 . S
C796 C797 1.340 . S
C796 H836 0.951 . S
C797 C796 1.340 . S
C797 C798 1.439 . S
C797 H837 0.950 . S
C798 C797 1.439 . S
C798 N799 1.374 . S
C798 C832 1.395 . S
N799 C795 1.376 . S
N799 C798 1.374 . S
N799 Co800 2.008 . S
Co800 N799 2.008 . S
Co800 N801 1.995 . S
Co800 N806 2.008 . S
Co800 N811 1.995 . S
Co800 N816 2.282 . S
Co800 N822 2.282 . S
N801 Co800 1.995 . S
N801 C802 1.376 . S
N801 C805 1.383 . S
C802 N801 1.376 . S
C802 C803 1.446 . S
C802 C832 1.391 . S
C803 C802 1.446 . S
C803 C804 1.339 . S
C803 H838 0.949 . S
C804 C803 1.339 . S
C804 C805 1.439 . S
C804 H839 0.950 . S
C805 N801 1.383 . S
C805 C804 1.439 . S
C805 C834 1.392 . S
N806 Co800 2.008 . S
N806 C807 1.376 . S
N806 C810 1.374 . S
C807 N806 1.376 . S
C807 C808 1.443 . S
C807 C834 1.389 . S
C808 C807 1.443 . S
C808 C809 1.340 . S
C808 H840 0.951 . S
C809 C808 1.340 . S
C809 C810 1.439 . S
C809 H841 0.950 . S
C810 N806 1.374 . S
C810 C809 1.439 . S
C810 C835 1.395 . S
N811 Co800 1.995 . S
N811 C812 1.376 . S
N811 C815 1.383 . S
C812 N811 1.376 . S
C812 C813 1.446 . S
C812 C835 1.391 . S
C813 C812 1.446 . S
C813 C814 1.339 . S
C813 H842 0.949 . S
C814 C813 1.339 . S
C814 C815 1.439 . S
C814 H843 0.950 . S
C815 N811 1.383 . S
C815 C814 1.439 . S
C815 C833 1.392 . S
N816 Co800 2.282 . S
N816 C819 1.332 . S
N816 C821 1.332 . S
C817 C818 1.386 . S
C817 C820 1.388 . S
C818 C817 1.386 . S
C818 C819 1.382 . S
C818 H844 0.950 . S
C819 N816 1.332 . S
C819 C818 1.382 . S
C819 H830 0.952 . S
C820 C817 1.388 . S
C820 C821 1.382 . S
C820 H845 0.950 . S
C821 N816 1.332 . S
C821 C820 1.382 . S
C821 H831 0.948 . S
N822 Co800 2.282 . S
N822 C826 1.332 . S
N822 C827 1.332 . S
C823 C824 1.388 . S
C823 C827 1.382 . S
C823 H846 0.950 . S
C824 C823 1.388 . S
C824 C825 1.386 . S
C825 C824 1.386 . S
C825 C826 1.382 . S
C825 H847 0.950 . S
C826 N822 1.332 . S
C826 C825 1.382 . S
C826 H828 0.952 . S
C827 N822 1.332 . S
C827 C823 1.382 . S
C827 H829 0.948 . S
H828 C826 0.952 . S
H829 C827 0.948 . S
H830 C819 0.952 . S
H831 C821 0.948 . S
C832 C798 1.395 . S
C832 C802 1.391 . S
C833 C795 1.389 . S
C833 C815 1.392 . S
C834 C805 1.392 . S
C834 C807 1.389 . S
C835 C810 1.395 . S
C835 C812 1.391 . S
H836 C796 0.951 . S
H837 C797 0.950 . S
H838 C803 0.949 . S
H839 C804 0.950 . S
H840 C808 0.951 . S
H841 C809 0.950 . S
H842 C813 0.949 . S
H843 C814 0.950 . S
H844 C818 0.950 . S
H845 C820 0.950 . S
H846 C823 0.950 . S
H847 C825 0.950 . S
C848 C849 1.443 . S
C848 N852 1.376 . S
C848 C886 1.389 . S
C849 C848 1.443 . S
C849 C850 1.340 . S
C849 H889 0.951 . S
C850 C849 1.340 . S
C850 C851 1.439 . S
C850 H890 0.950 . S
C851 C850 1.439 . S
C851 N852 1.374 . S
C851 C885 1.395 . S
N852 C848 1.376 . S
N852 C851 1.374 . S
N852 Co853 2.008 . S
Co853 N852 2.008 . S
Co853 N854 1.995 . S
Co853 N859 2.008 . S
Co853 N864 1.995 . S
Co853 N869 2.282 . S
Co853 N875 2.282 . S
N854 Co853 1.995 . S
N854 C855 1.376 . S
N854 C858 1.383 . S
C855 N854 1.376 . S
C855 C856 1.446 . S
C855 C885 1.391 . S
C856 C855 1.446 . S
C856 C857 1.339 . S
C856 H891 0.949 . S
C857 C856 1.339 . S
C857 C858 1.439 . S
C857 H892 0.950 . S
C858 N854 1.383 . S
C858 C857 1.439 . S
C858 C887 1.392 . S
N859 Co853 2.008 . S
N859 C860 1.376 . S
N859 C863 1.374 . S
C860 N859 1.376 . S
C860 C861 1.443 . S
C860 C887 1.389 . S
C861 C860 1.443 . S
C861 C862 1.340 . S
C861 H893 0.951 . S
C862 C861 1.340 . S
C862 C863 1.439 . S
C862 H894 0.950 . S
C863 N859 1.374 . S
C863 C862 1.439 . S
C863 C888 1.395 . S
N864 Co853 1.995 . S
N864 C865 1.376 . S
N864 C868 1.383 . S
C865 N864 1.376 . S
C865 C866 1.446 . S
C865 C888 1.391 . S
C866 C865 1.446 . S
C866 C867 1.339 . S
C866 H895 0.949 . S
C867 C866 1.339 . S
C867 C868 1.439 . S
C867 H896 0.950 . S
C868 N864 1.383 . S
C868 C867 1.439 . S
C868 C886 1.392 . S
N869 Co853 2.282 . S
N869 C872 1.332 . S
N869 C874 1.332 . S
C870 C871 1.386 . S
C870 C873 1.388 . S
C871 C870 1.386 . S
C871 C872 1.382 . S
C871 H897 0.950 . S
C872 N869 1.332 . S
C872 C871 1.382 . S
C872 H883 0.952 . S
C873 C870 1.388 . S
C873 C874 1.382 . S
C873 H898 0.950 . S
C874 N869 1.332 . S
C874 C873 1.382 . S
C874 H884 0.948 . S
N875 Co853 2.282 . S
N875 C879 1.332 . S
N875 C880 1.332 . S
C876 C877 1.388 . S
C876 C880 1.382 . S
C876 H899 0.950 . S
C877 C876 1.388 . S
C877 C878 1.386 . S
C878 C877 1.386 . S
C878 C879 1.382 . S
C878 H900 0.950 . S
C879 N875 1.332 . S
C879 C878 1.382 . S
C879 H881 0.952 . S
C880 N875 1.332 . S
C880 C876 1.382 . S
C880 H882 0.948 . S
H881 C879 0.952 . S
H882 C880 0.948 . S
H883 C872 0.952 . S
H884 C874 0.948 . S
C885 C851 1.395 . S
C885 C855 1.391 . S
C886 C848 1.389 . S
C886 C868 1.392 . S
C887 C858 1.392 . S
C887 C860 1.389 . S
C888 C863 1.395 . S
C888 C865 1.391 . S
H889 C849 0.951 . S
H890 C850 0.950 . S
H891 C856 0.949 . S
H892 C857 0.950 . S
H893 C861 0.951 . S
H894 C862 0.950 . S
H895 C866 0.949 . S
H896 C867 0.950 . S
H897 C871 0.950 . S
H898 C873 0.950 . S
H899 C876 0.950 . S
H900 C878 0.950 . S
C901 C902 1.443 . S
C901 N905 1.376 . S
C901 C939 1.389 . S
C902 C901 1.443 . S
C902 C903 1.340 . S
C902 H942 0.951 . S
C903 C902 1.340 . S
C903 C904 1.439 . S
C903 H943 0.950 . S
C904 C903 1.439 . S
C904 N905 1.374 . S
C904 C938 1.395 . S
N905 C901 1.376 . S
N905 C904 1.374 . S
N905 Co906 2.008 . S
Co906 N905 2.008 . S
Co906 N907 1.995 . S
Co906 N912 2.008 . S
Co906 N917 1.995 . S
Co906 N922 2.282 . S
Co906 N928 2.282 . S
N907 Co906 1.995 . S
N907 C908 1.376 . S
N907 C911 1.383 . S
C908 N907 1.376 . S
C908 C909 1.446 . S
C908 C938 1.391 . S
C909 C908 1.446 . S
C909 C910 1.339 . S
C909 H944 0.949 . S
C910 C909 1.339 . S
C910 C911 1.439 . S
C910 H945 0.950 . S
C911 N907 1.383 . S
C911 C910 1.439 . S
C911 C940 1.392 . S
N912 Co906 2.008 . S
N912 C913 1.376 . S
N912 C916 1.374 . S
C913 N912 1.376 . S
C913 C914 1.443 . S
C913 C940 1.389 . S
C914 C913 1.443 . S
C914 C915 1.340 . S
C914 H946 0.951 . S
C915 C914 1.340 . S
C915 C916 1.439 . S
C915 H947 0.950 . S
C916 N912 1.374 . S
C916 C915 1.439 . S
C916 C941 1.395 . S
N917 Co906 1.995 . S
N917 C918 1.376 . S
N917 C921 1.383 . S
C918 N917 1.376 . S
C918 C919 1.446 . S
C918 C941 1.391 . S
C919 C918 1.446 . S
C919 C920 1.339 . S
C919 H948 0.949 . S
C920 C919 1.339 . S
C920 C921 1.439 . S
C920 H949 0.950 . S
C921 N917 1.383 . S
C921 C920 1.439 . S
C921 C939 1.392 . S
N922 Co906 2.282 . S
N922 C925 1.332 . S
N922 C927 1.332 . S
C923 C924 1.386 . S
C923 C926 1.388 . S
C924 C923 1.386 . S
C924 C925 1.382 . S
C924 H950 0.950 . S
C925 N922 1.332 . S
C925 C924 1.382 . S
C925 H936 0.952 . S
C926 C923 1.388 . S
C926 C927 1.382 . S
C926 H951 0.950 . S
C927 N922 1.332 . S
C927 C926 1.382 . S
C927 H937 0.948 . S
N928 Co906 2.282 . S
N928 C932 1.332 . S
N928 C933 1.332 . S
C929 C930 1.388 . S
C929 C933 1.382 . S
C929 H952 0.950 . S
C930 C929 1.388 . S
C930 C931 1.386 . S
C931 C930 1.386 . S
C931 C932 1.382 . S
C931 H953 0.950 . S
C932 N928 1.332 . S
C932 C931 1.382 . S
C932 H934 0.952 . S
C933 N928 1.332 . S
C933 C929 1.382 . S
C933 H935 0.948 . S
H934 C932 0.952 . S
H935 C933 0.948 . S
H936 C925 0.952 . S
H937 C927 0.948 . S
C938 C904 1.395 . S
C938 C908 1.391 . S
C939 C901 1.389 . S
C939 C921 1.392 . S
C940 C911 1.392 . S
C940 C913 1.389 . S
C941 C916 1.395 . S
C941 C918 1.391 . S
H942 C902 0.951 . S
H943 C903 0.950 . S
H944 C909 0.949 . S
H945 C910 0.950 . S
H946 C914 0.951 . S
H947 C915 0.950 . S
H948 C919 0.949 . S
H949 C920 0.950 . S
H950 C924 0.950 . S
H951 C926 0.950 . S
H952 C929 0.950 . S
H953 C931 0.950 . S
C954 C955 1.443 . S
C954 N958 1.413 . S
C954 C992 1.389 . S
C955 C954 1.443 . S
C955 C956 1.362 . S
C955 H995 0.951 . S
C956 C955 1.362 . S
C956 C957 1.427 1_655 S
C956 H996 0.943 1_655 S
C957 C956 1.427 1_455 S
C957 N958 1.353 1_455 S
C957 C991 1.395 . S
N958 C954 1.413 . S
N958 C957 1.353 1_655 S
N958 Co959 2.007 1_556 S
Co959 N958 2.007 1_554 S
Co959 N960 1.995 1_654 S
Co959 N965 2.007 1_655 S
Co959 N970 1.995 . S
Co959 N975 2.282 1_655 S
Co959 N981 2.282 1_554 S
N960 Co959 1.995 1_456 S
N960 C961 1.376 . S
N960 C964 1.383 1_556 S
C961 N960 1.376 . S
C961 C962 1.446 . S
C961 C991 1.391 . S
C962 C961 1.446 . S
C962 C963 1.339 1_556 S
C962 H997 0.949 . S
C963 C962 1.339 1_554 S
C963 C964 1.439 . S
C963 H998 0.950 . S
C964 N960 1.383 1_554 S
C964 C963 1.439 . S
C964 C993 1.392 . S
N965 Co959 2.007 1_455 S
N965 C966 1.404 . S
N965 C969 1.358 1_455 S
C966 N965 1.404 . S
C966 C967 1.443 . S
C966 C993 1.389 . S
C967 C966 1.443 . S
C967 C968 1.354 . S
C967 H999 0.951 . S
C968 C967 1.354 . S
C968 C969 1.432 1_455 S
C968 H1000 0.945 1_455 S
C969 N965 1.358 1_655 S
C969 C968 1.432 1_655 S
C969 C994 1.395 . S
N970 Co959 1.995 . S
N970 C971 1.376 . S
N970 C974 1.383 1_554 S
C971 N970 1.376 . S
C971 C972 1.446 . S
C971 C994 1.391 . S
C972 C971 1.446 . S
C972 C973 1.339 1_554 S
C972 H1001 0.949 . S
C973 C972 1.339 1_556 S
C973 C974 1.439 . S
C973 H1002 0.950 . S
C974 N970 1.383 1_556 S
C974 C973 1.439 . S
C974 C992 1.392 . S
N975 Co959 2.282 1_455 S
N975 C978 1.332 . S
N975 C980 1.332 1_554 S
C976 C977 1.386 . S
C976 C979 1.388 . S
C977 C976 1.386 . S
C977 C978 1.382 . S
C977 H1003 0.950 . S
C978 N975 1.332 . S
C978 C977 1.382 . S
C978 H989 0.952 . S
C979 C976 1.388 . S
C979 C980 1.382 1_554 S
C979 H1004 0.950 1_554 S
C980 N975 1.332 1_556 S
C980 C979 1.382 1_556 S
C980 H990 0.948 . S
N981 Co959 2.282 1_556 S
N981 C985 1.332 . S
N981 C986 1.332 1_556 S
C982 C983 1.388 . S
C982 C986 1.382 1_556 S
C982 H1005 0.950 1_556 S
C983 C982 1.388 . S
C983 C984 1.386 . S
C984 C983 1.386 . S
C984 C985 1.382 . S
C984 H1006 0.950 . S
C985 N981 1.332 . S
C985 C984 1.382 . S
C985 H987 0.952 . S
C986 N981 1.332 1_554 S
C986 C982 1.382 1_554 S
C986 H988 0.948 . S
H987 C985 0.952 . S
H988 C986 0.948 . S
H989 C978 0.952 . S
H990 C980 0.948 . S
C991 C957 1.395 . S
C991 C961 1.391 . S
C992 C954 1.389 . S
C992 C974 1.392 . S
C993 C964 1.392 . S
C993 C966 1.389 . S
C994 C969 1.395 . S
C994 C971 1.391 . S
H995 C955 0.951 . S
H996 C956 0.943 1_455 S
H997 C962 0.949 . S
H998 C963 0.950 . S
H999 C967 0.951 . S
H1000 C968 0.945 1_655 S
H1001 C972 0.949 . S
H1002 C973 0.950 . S
H1003 C977 0.950 . S
H1004 C979 0.950 1_556 S
H1005 C982 0.950 1_554 S
H1006 C984 0.950 . S
C1007 C1008 1.443 . S
C1007 N1011 1.376 . S
C1007 C1045 1.389 . S
C1008 C1007 1.443 . S
C1008 C1009 1.340 . S
C1008 H1048 0.951 . S
C1009 C1008 1.340 . S
C1009 C1010 1.439 . S
C1009 H1049 0.950 . S
C1010 C1009 1.439 . S
C1010 N1011 1.374 . S
C1010 C1044 1.395 . S
N1011 C1007 1.376 . S
N1011 C1010 1.374 . S
N1011 Co1012 2.008 . S
Co1012 N1011 2.008 . S
Co1012 N1013 1.995 . S
Co1012 N1018 2.008 . S
Co1012 N1023 1.995 . S
Co1012 N1028 2.282 . S
Co1012 N1034 2.282 . S
N1013 Co1012 1.995 . S
N1013 C1014 1.376 . S
N1013 C1017 1.383 . S
C1014 N1013 1.376 . S
C1014 C1015 1.446 . S
C1014 C1044 1.391 . S
C1015 C1014 1.446 . S
C1015 C1016 1.339 . S
C1015 H1050 0.949 . S
C1016 C1015 1.339 . S
C1016 C1017 1.439 . S
C1016 H1051 0.950 . S
C1017 N1013 1.383 . S
C1017 C1016 1.439 . S
C1017 C1046 1.392 . S
N1018 Co1012 2.008 . S
N1018 C1019 1.376 . S
N1018 C1022 1.374 . S
C1019 N1018 1.376 . S
C1019 C1020 1.443 . S
C1019 C1046 1.389 . S
C1020 C1019 1.443 . S
C1020 C1021 1.340 . S
C1020 H1052 0.951 . S
C1021 C1020 1.340 . S
C1021 C1022 1.439 . S
C1021 H1053 0.950 . S
C1022 N1018 1.374 . S
C1022 C1021 1.439 . S
C1022 C1047 1.395 . S
N1023 Co1012 1.995 . S
N1023 C1024 1.376 . S
N1023 C1027 1.383 . S
C1024 N1023 1.376 . S
C1024 C1025 1.446 . S
C1024 C1047 1.391 . S
C1025 C1024 1.446 . S
C1025 C1026 1.339 . S
C1025 H1054 0.949 . S
C1026 C1025 1.339 . S
C1026 C1027 1.439 . S
C1026 H1055 0.950 . S
C1027 N1023 1.383 . S
C1027 C1026 1.439 . S
C1027 C1045 1.392 . S
N1028 Co1012 2.282 . S
N1028 C1031 1.332 . S
N1028 C1033 1.332 . S
C1029 C1030 1.386 . S
C1029 C1032 1.388 . S
C1030 C1029 1.386 . S
C1030 C1031 1.382 . S
C1030 H1056 0.950 . S
C1031 N1028 1.332 . S
C1031 C1030 1.382 . S
C1031 H1042 0.952 . S
C1032 C1029 1.388 . S
C1032 C1033 1.382 . S
C1032 H1057 0.950 . S
C1033 N1028 1.332 . S
C1033 C1032 1.382 . S
C1033 H1043 0.948 . S
N1034 Co1012 2.282 . S
N1034 C1038 1.332 . S
N1034 C1039 1.332 . S
C1035 C1036 1.388 . S
C1035 C1039 1.382 . S
C1035 H1058 0.950 . S
C1036 C1035 1.388 . S
C1036 C1037 1.386 . S
C1037 C1036 1.386 . S
C1037 C1038 1.382 . S
C1037 H1059 0.950 . S
C1038 N1034 1.332 . S
C1038 C1037 1.382 . S
C1038 H1040 0.952 . S
C1039 N1034 1.332 . S
C1039 C1035 1.382 . S
C1039 H1041 0.948 . S
H1040 C1038 0.952 . S
H1041 C1039 0.948 . S
H1042 C1031 0.952 . S
H1043 C1033 0.948 . S
C1044 C1010 1.395 . S
C1044 C1014 1.391 . S
C1045 C1007 1.389 . S
C1045 C1027 1.392 . S
C1046 C1017 1.392 . S
C1046 C1019 1.389 . S
C1047 C1022 1.395 . S
C1047 C1024 1.391 . S
H1048 C1008 0.951 . S
H1049 C1009 0.950 . S
H1050 C1015 0.949 . S
H1051 C1016 0.950 . S
H1052 C1020 0.951 . S
H1053 C1021 0.950 . S
H1054 C1025 0.949 . S
H1055 C1026 0.950 . S
H1056 C1030 0.950 . S
H1057 C1032 0.950 . S
H1058 C1035 0.950 . S
H1059 C1037 0.950 . S
C1060 C1061 1.443 . S
C1060 N1064 1.376 . S
C1060 C1098 1.389 . S
C1061 C1060 1.443 . S
C1061 C1062 1.340 . S
C1061 H1101 0.951 . S
C1062 C1061 1.340 . S
C1062 C1063 1.439 . S
C1062 H1102 0.950 . S
C1063 C1062 1.439 . S
C1063 N1064 1.374 . S
C1063 C1097 1.395 . S
N1064 C1060 1.376 . S
N1064 C1063 1.374 . S
N1064 Co1065 2.008 . S
Co1065 N1064 2.008 . S
Co1065 N1066 1.995 . S
Co1065 N1071 2.008 . S
Co1065 N1076 1.995 . S
Co1065 N1081 2.282 . S
Co1065 N1087 2.282 . S
N1066 Co1065 1.995 . S
N1066 C1067 1.376 . S
N1066 C1070 1.383 . S
C1067 N1066 1.376 . S
C1067 C1068 1.446 . S
C1067 C1097 1.391 . S
C1068 C1067 1.446 . S
C1068 C1069 1.339 . S
C1068 H1103 0.949 . S
C1069 C1068 1.339 . S
C1069 C1070 1.439 . S
C1069 H1104 0.950 . S
C1070 N1066 1.383 . S
C1070 C1069 1.439 . S
C1070 C1099 1.392 . S
N1071 Co1065 2.008 . S
N1071 C1072 1.376 . S
N1071 C1075 1.374 . S
C1072 N1071 1.376 . S
C1072 C1073 1.443 . S
C1072 C1099 1.389 . S
C1073 C1072 1.443 . S
C1073 C1074 1.340 . S
C1073 H1105 0.951 . S
C1074 C1073 1.340 . S
C1074 C1075 1.439 . S
C1074 H1106 0.950 . S
C1075 N1071 1.374 . S
C1075 C1074 1.439 . S
C1075 C1100 1.395 . S
N1076 Co1065 1.995 . S
N1076 C1077 1.376 . S
N1076 C1080 1.383 . S
C1077 N1076 1.376 . S
C1077 C1078 1.446 . S
C1077 C1100 1.391 . S
C1078 C1077 1.446 . S
C1078 C1079 1.339 . S
C1078 H1107 0.949 . S
C1079 C1078 1.339 . S
C1079 C1080 1.439 . S
C1079 H1108 0.950 . S
C1080 N1076 1.383 . S
C1080 C1079 1.439 . S
C1080 C1098 1.392 . S
N1081 Co1065 2.282 . S
N1081 C1084 1.332 . S
N1081 C1086 1.332 . S
C1082 C1083 1.386 . S
C1082 C1085 1.388 . S
C1083 C1082 1.386 . S
C1083 C1084 1.382 . S
C1083 H1109 0.950 . S
C1084 N1081 1.332 . S
C1084 C1083 1.382 . S
C1084 H1095 0.952 . S
C1085 C1082 1.388 . S
C1085 C1086 1.382 . S
C1085 H1110 0.950 . S
C1086 N1081 1.332 . S
C1086 C1085 1.382 . S
C1086 H1096 0.948 . S
N1087 Co1065 2.282 . S
N1087 C1091 1.332 . S
N1087 C1092 1.332 . S
C1088 C1089 1.388 . S
C1088 C1092 1.382 . S
C1088 H1111 0.950 . S
C1089 C1088 1.388 . S
C1089 C1090 1.386 . S
C1090 C1089 1.386 . S
C1090 C1091 1.382 . S
C1090 H1112 0.950 . S
C1091 N1087 1.332 . S
C1091 C1090 1.382 . S
C1091 H1093 0.952 . S
C1092 N1087 1.332 . S
C1092 C1088 1.382 . S
C1092 H1094 0.948 . S
H1093 C1091 0.952 . S
H1094 C1092 0.948 . S
H1095 C1084 0.952 . S
H1096 C1086 0.948 . S
C1097 C1063 1.395 . S
C1097 C1067 1.391 . S
C1098 C1060 1.389 . S
C1098 C1080 1.392 . S
C1099 C1070 1.392 . S
C1099 C1072 1.389 . S
C1100 C1075 1.395 . S
C1100 C1077 1.391 . S
H1101 C1061 0.951 . S
H1102 C1062 0.950 . S
H1103 C1068 0.949 . S
H1104 C1069 0.950 . S
H1105 C1073 0.951 . S
H1106 C1074 0.950 . S
H1107 C1078 0.949 . S
H1108 C1079 0.950 . S
H1109 C1083 0.950 . S
H1110 C1085 0.950 . S
H1111 C1088 0.950 . S
H1112 C1090 0.950 . S
C1113 C1114 1.443 . S
C1113 N1117 1.376 . S
C1113 C1151 1.389 . S
C1114 C1113 1.443 . S
C1114 C1115 1.340 . S
C1114 H1154 0.951 . S
C1115 C1114 1.340 . S
C1115 C1116 1.439 . S
C1115 H1155 0.950 . S
C1116 C1115 1.439 . S
C1116 N1117 1.374 . S
C1116 C1150 1.395 . S
N1117 C1113 1.376 . S
N1117 C1116 1.374 . S
N1117 Co1118 2.008 . S
Co1118 N1117 2.008 . S
Co1118 N1119 1.995 . S
Co1118 N1124 2.008 . S
Co1118 N1129 1.995 . S
Co1118 N1134 2.282 . S
Co1118 N1140 2.282 . S
N1119 Co1118 1.995 . S
N1119 C1120 1.376 . S
N1119 C1123 1.383 . S
C1120 N1119 1.376 . S
C1120 C1121 1.446 . S
C1120 C1150 1.391 . S
C1121 C1120 1.446 . S
C1121 C1122 1.339 . S
C1121 H1156 0.949 . S
C1122 C1121 1.339 . S
C1122 C1123 1.439 . S
C1122 H1157 0.950 . S
C1123 N1119 1.383 . S
C1123 C1122 1.439 . S
C1123 C1152 1.392 . S
N1124 Co1118 2.008 . S
N1124 C1125 1.376 . S
N1124 C1128 1.374 . S
C1125 N1124 1.376 . S
C1125 C1126 1.443 . S
C1125 C1152 1.389 . S
C1126 C1125 1.443 . S
C1126 C1127 1.340 . S
C1126 H1158 0.951 . S
C1127 C1126 1.340 . S
C1127 C1128 1.439 . S
C1127 H1159 0.950 . S
C1128 N1124 1.374 . S
C1128 C1127 1.439 . S
C1128 C1153 1.395 . S
N1129 Co1118 1.995 . S
N1129 C1130 1.376 . S
N1129 C1133 1.383 . S
C1130 N1129 1.376 . S
C1130 C1131 1.446 . S
C1130 C1153 1.391 . S
C1131 C1130 1.446 . S
C1131 C1132 1.339 . S
C1131 H1160 0.949 . S
C1132 C1131 1.339 . S
C1132 C1133 1.439 . S
C1132 H1161 0.950 . S
C1133 N1129 1.383 . S
C1133 C1132 1.439 . S
C1133 C1151 1.392 . S
N1134 Co1118 2.282 . S
N1134 C1137 1.332 . S
N1134 C1139 1.332 . S
C1135 C1136 1.386 . S
C1135 C1138 1.388 . S
C1136 C1135 1.386 . S
C1136 C1137 1.382 . S
C1136 H1162 0.950 . S
C1137 N1134 1.332 . S
C1137 C1136 1.382 . S
C1137 H1148 0.952 . S
C1138 C1135 1.388 . S
C1138 C1139 1.382 . S
C1138 H1163 0.950 . S
C1139 N1134 1.332 . S
C1139 C1138 1.382 . S
C1139 H1149 0.948 . S
N1140 Co1118 2.282 . S
N1140 C1144 1.332 . S
N1140 C1145 1.332 . S
C1141 C1142 1.388 . S
C1141 C1145 1.382 . S
C1141 H1164 0.950 . S
C1142 C1141 1.388 . S
C1142 C1143 1.386 . S
C1143 C1142 1.386 . S
C1143 C1144 1.382 . S
C1143 H1165 0.950 . S
C1144 N1140 1.332 . S
C1144 C1143 1.382 . S
C1144 H1146 0.952 . S
C1145 N1140 1.332 . S
C1145 C1141 1.382 . S
C1145 H1147 0.948 . S
H1146 C1144 0.952 . S
H1147 C1145 0.948 . S
H1148 C1137 0.952 . S
H1149 C1139 0.948 . S
C1150 C1116 1.395 . S
C1150 C1120 1.391 . S
C1151 C1113 1.389 . S
C1151 C1133 1.392 . S
C1152 C1123 1.392 . S
C1152 C1125 1.389 . S
C1153 C1128 1.395 . S
C1153 C1130 1.391 . S
H1154 C1114 0.951 . S
H1155 C1115 0.950 . S
H1156 C1121 0.949 . S
H1157 C1122 0.950 . S
H1158 C1126 0.951 . S
H1159 C1127 0.950 . S
H1160 C1131 0.949 . S
H1161 C1132 0.950 . S
H1162 C1136 0.950 . S
H1163 C1138 0.950 . S
H1164 C1141 0.950 . S
H1165 C1143 0.950 . S
C1166 C1167 1.443 . S
C1166 N1170 1.376 . S
C1166 C1204 1.389 . S
C1167 C1166 1.443 . S
C1167 C1168 1.340 . S
C1167 H1207 0.951 . S
C1168 C1167 1.340 . S
C1168 C1169 1.439 1_556 S
C1168 H1208 0.950 . S
C1169 C1168 1.439 1_554 S
C1169 N1170 1.374 1_554 S
C1169 C1203 1.395 . S
N1170 C1166 1.376 . S
N1170 C1169 1.374 1_556 S
N1170 Co1171 2.008 1_556 S
Co1171 N1170 2.008 1_554 S
Co1171 N1172 1.995 . S
Co1171 N1177 2.008 . S
Co1171 N1182 1.995 1_554 S
Co1171 N1187 2.282 . S
Co1171 N1193 2.282 1_554 S
N1172 Co1171 1.995 . S
N1172 C1173 1.376 . S
N1172 C1176 1.383 . S
C1173 N1172 1.376 . S
C1173 C1174 1.446 . S
C1173 C1203 1.391 . S
C1174 C1173 1.446 . S
C1174 C1175 1.339 . S
C1174 H1209 0.949 . S
C1175 C1174 1.339 . S
C1175 C1176 1.439 . S
C1175 H1210 0.950 . S
C1176 N1172 1.383 . S
C1176 C1175 1.439 . S
C1176 C1205 1.392 . S
N1177 Co1171 2.008 . S
N1177 C1178 1.376 . S
N1177 C1181 1.374 1_554 S
C1178 N1177 1.376 . S
C1178 C1179 1.443 . S
C1178 C1205 1.389 . S
C1179 C1178 1.443 . S
C1179 C1180 1.340 . S
C1179 H1211 0.951 . S
C1180 C1179 1.340 . S
C1180 C1181 1.439 1_554 S
C1180 H1212 0.950 . S
C1181 N1177 1.374 1_556 S
C1181 C1180 1.439 1_556 S
C1181 C1206 1.395 . S
N1182 Co1171 1.995 1_556 S
N1182 C1183 1.376 . S
N1182 C1186 1.383 . S
C1183 N1182 1.376 . S
C1183 C1184 1.446 . S
C1183 C1206 1.391 . S
C1184 C1183 1.446 . S
C1184 C1185 1.339 . S
C1184 H1213 0.949 . S
C1185 C1184 1.339 . S
C1185 C1186 1.439 . S
C1185 H1214 0.950 . S
C1186 N1182 1.383 . S
C1186 C1185 1.439 . S
C1186 C1204 1.392 . S
N1187 Co1171 2.282 . S
N1187 C1190 1.332 . S
N1187 C1192 1.332 . S
C1188 C1189 1.386 . S
C1188 C1191 1.388 . S
C1189 C1188 1.386 . S
C1189 C1190 1.382 . S
C1189 H1215 0.950 . S
C1190 N1187 1.332 . S
C1190 C1189 1.382 . S
C1190 H1201 0.952 1_554 S
C1191 C1188 1.388 . S
C1191 C1192 1.382 . S
C1191 H1216 0.950 . S
C1192 N1187 1.332 . S
C1192 C1191 1.382 . S
C1192 H1202 0.948 . S
N1193 Co1171 2.282 1_556 S
N1193 C1197 1.332 . S
N1193 C1198 1.332 . S
C1194 C1195 1.388 . S
C1194 C1198 1.382 . S
C1194 H1217 0.950 . S
C1195 C1194 1.388 . S
C1195 C1196 1.386 . S
C1196 C1195 1.386 . S
C1196 C1197 1.382 . S
C1196 H1218 0.950 . S
C1197 N1193 1.332 . S
C1197 C1196 1.382 . S
C1197 H1199 0.952 1_556 S
C1198 N1193 1.332 . S
C1198 C1194 1.382 . S
C1198 H1200 0.948 . S
H1199 C1197 0.952 1_554 S
H1200 C1198 0.948 . S
H1201 C1190 0.952 1_556 S
H1202 C1192 0.948 . S
C1203 C1169 1.395 . S
C1203 C1173 1.391 . S
C1204 C1166 1.389 . S
C1204 C1186 1.392 . S
C1205 C1176 1.392 . S
C1205 C1178 1.389 . S
C1206 C1181 1.395 . S
C1206 C1183 1.391 . S
H1207 C1167 0.951 . S
H1208 C1168 0.950 . S
H1209 C1174 0.949 . S
H1210 C1175 0.950 . S
H1211 C1179 0.951 . S
H1212 C1180 0.950 . S
H1213 C1184 0.949 . S
H1214 C1185 0.950 . S
H1215 C1189 0.950 . S
H1216 C1191 0.950 . S
H1217 C1194 0.950 . S
H1218 C1196 0.950 . S
C1219 C1220 1.443 . S
C1219 N1223 1.376 . S
C1219 C1257 1.389 . S
C1220 C1219 1.443 . S
C1220 C1221 1.340 . S
C1220 H1260 0.951 . S
C1221 C1220 1.340 . S
C1221 C1222 1.439 . S
C1221 H1261 0.950 . S
C1222 C1221 1.439 . S
C1222 N1223 1.374 . S
C1222 C1256 1.395 . S
N1223 C1219 1.376 . S
N1223 C1222 1.374 . S
N1223 Co1224 2.008 . S
Co1224 N1223 2.008 . S
Co1224 N1225 1.995 . S
Co1224 N1230 2.008 . S
Co1224 N1235 1.995 . S
Co1224 N1240 2.282 . S
Co1224 N1246 2.282 . S
N1225 Co1224 1.995 . S
N1225 C1226 1.376 . S
N1225 C1229 1.383 . S
C1226 N1225 1.376 . S
C1226 C1227 1.446 . S
C1226 C1256 1.391 . S
C1227 C1226 1.446 . S
C1227 C1228 1.339 . S
C1227 H1262 0.949 . S
C1228 C1227 1.339 . S
C1228 C1229 1.439 . S
C1228 H1263 0.950 . S
C1229 N1225 1.383 . S
C1229 C1228 1.439 . S
C1229 C1258 1.392 . S
N1230 Co1224 2.008 . S
N1230 C1231 1.376 . S
N1230 C1234 1.374 . S
C1231 N1230 1.376 . S
C1231 C1232 1.443 . S
C1231 C1258 1.389 . S
C1232 C1231 1.443 . S
C1232 C1233 1.340 . S
C1232 H1264 0.951 . S
C1233 C1232 1.340 . S
C1233 C1234 1.439 . S
C1233 H1265 0.950 . S
C1234 N1230 1.374 . S
C1234 C1233 1.439 . S
C1234 C1259 1.395 . S
N1235 Co1224 1.995 . S
N1235 C1236 1.376 . S
N1235 C1239 1.383 . S
C1236 N1235 1.376 . S
C1236 C1237 1.446 . S
C1236 C1259 1.391 . S
C1237 C1236 1.446 . S
C1237 C1238 1.339 . S
C1237 H1266 0.949 . S
C1238 C1237 1.339 . S
C1238 C1239 1.439 . S
C1238 H1267 0.950 . S
C1239 N1235 1.383 . S
C1239 C1238 1.439 . S
C1239 C1257 1.392 . S
N1240 Co1224 2.282 . S
N1240 C1243 1.332 . S
N1240 C1245 1.332 . S
C1241 C1242 1.386 . S
C1241 C1244 1.388 . S
C1242 C1241 1.386 . S
C1242 C1243 1.382 . S
C1242 H1268 0.950 . S
C1243 N1240 1.332 . S
C1243 C1242 1.382 . S
C1243 H1254 0.952 . S
C1244 C1241 1.388 . S
C1244 C1245 1.382 . S
C1244 H1269 0.950 . S
C1245 N1240 1.332 . S
C1245 C1244 1.382 . S
C1245 H1255 0.948 . S
N1246 Co1224 2.282 . S
N1246 C1250 1.332 . S
N1246 C1251 1.332 . S
C1247 C1248 1.388 . S
C1247 C1251 1.382 . S
C1247 H1270 0.950 . S
C1248 C1247 1.388 . S
C1248 C1249 1.386 . S
C1249 C1248 1.386 . S
C1249 C1250 1.382 . S
C1249 H1271 0.950 . S
C1250 N1246 1.332 . S
C1250 C1249 1.382 . S
C1250 H1252 0.952 . S
C1251 N1246 1.332 . S
C1251 C1247 1.382 . S
C1251 H1253 0.948 . S
H1252 C1250 0.952 . S
H1253 C1251 0.948 . S
H1254 C1243 0.952 . S
H1255 C1245 0.948 . S
C1256 C1222 1.395 . S
C1256 C1226 1.391 . S
C1257 C1219 1.389 . S
C1257 C1239 1.392 . S
C1258 C1229 1.392 . S
C1258 C1231 1.389 . S
C1259 C1234 1.395 . S
C1259 C1236 1.391 . S
H1260 C1220 0.951 . S
H1261 C1221 0.950 . S
H1262 C1227 0.949 . S
H1263 C1228 0.950 . S
H1264 C1232 0.951 . S
H1265 C1233 0.950 . S
H1266 C1237 0.949 . S
H1267 C1238 0.950 . S
H1268 C1242 0.950 . S
H1269 C1244 0.950 . S
H1270 C1247 0.950 . S
H1271 C1249 0.950 . S
C1272 C1273 1.349 . S
C1272 C1274 1.327 . S
C1272 H1297 0.950 . S
C1273 C1272 1.349 . S
C1273 C1289 1.349 . S
C1274 C1272 1.327 . S
C1274 C1293 1.429 . S
C1274 H1298 0.950 . S
C1275 C1292 1.574 . S
C1275 C1294 1.368 . S
C1275 H1299 0.949 . S
H1276 C1280 0.949 . S
C1277 C1278 1.349 . S
C1277 C1279 1.327 . S
C1277 H1300 0.950 . S
C1278 C1277 1.349 . S
C1278 C1290 1.349 . S
C1279 C1277 1.327 . S
C1279 C1295 1.429 . S
C1279 H1301 0.950 . S
C1280 H1276 0.949 . S
C1280 C1288 1.574 . S
C1280 C1296 1.368 . S
H1281 C1289 0.950 . S
H1282 C1287 0.950 . S
H1283 C1288 0.949 . S
H1284 C1290 0.950 . S
H1285 C1291 0.950 . S
H1286 C1292 0.949 . S
C1287 H1282 0.950 . S
C1287 C1289 1.327 . S
C1287 C1293 1.429 . S
C1288 C1280 1.574 . S
C1288 H1283 0.949 . S
C1288 C1294 1.368 . S
C1289 C1273 1.349 . S
C1289 H1281 0.950 . S
C1289 C1287 1.327 . S
C1290 C1278 1.349 . S
C1290 H1284 0.950 . S
C1290 C1291 1.327 . S
C1291 H1285 0.950 . S
C1291 C1290 1.327 . S
C1291 C1295 1.429 . S
C1292 C1275 1.574 . S
C1292 H1286 0.949 . S
C1292 C1296 1.368 . S
C1293 C1274 1.429 . S
C1293 C1287 1.429 . S
C1293 C1294 1.523 . S
C1294 C1275 1.368 . S
C1294 C1288 1.368 . S
C1294 C1293 1.523 . S
C1295 C1279 1.429 . S
C1295 C1291 1.429 . S
C1295 C1296 1.523 . S
C1296 C1280 1.368 . S
C1296 C1292 1.368 . S
C1296 C1295 1.523 . S
H1297 C1272 0.950 . S
H1298 C1274 0.950 . S
H1299 C1275 0.949 . S
H1300 C1277 0.950 . S
H1301 C1279 0.950 . S
C1302 C1303 1.349 . S
C1302 C1304 1.327 . S
C1302 H1327 0.950 . S
C1303 C1302 1.349 . S
C1303 C1319 1.349 . S
C1304 C1302 1.327 . S
C1304 C1323 1.429 . S
C1304 H1328 0.950 . S
C1305 C1322 1.574 . S
C1305 C1324 1.368 . S
C1305 H1329 0.949 . S
H1306 C1310 0.949 . S
C1307 C1308 1.349 . S
C1307 C1309 1.327 . S
C1307 H1330 0.950 . S
C1308 C1307 1.349 . S
C1308 C1320 1.349 . S
C1309 C1307 1.327 . S
C1309 C1325 1.429 . S
C1309 H1331 0.950 . S
C1310 H1306 0.949 . S
C1310 C1318 1.574 . S
C1310 C1326 1.368 . S
H1311 C1319 0.950 . S
H1312 C1317 0.950 . S
H1313 C1318 0.949 . S
H1314 C1320 0.950 . S
H1315 C1321 0.950 . S
H1316 C1322 0.949 . S
C1317 H1312 0.950 . S
C1317 C1319 1.327 . S
C1317 C1323 1.429 . S
C1318 C1310 1.574 . S
C1318 H1313 0.949 . S
C1318 C1324 1.368 . S
C1319 C1303 1.349 . S
C1319 H1311 0.950 . S
C1319 C1317 1.327 . S
C1320 C1308 1.349 . S
C1320 H1314 0.950 . S
C1320 C1321 1.327 . S
C1321 H1315 0.950 . S
C1321 C1320 1.327 . S
C1321 C1325 1.429 . S
C1322 C1305 1.574 . S
C1322 H1316 0.949 . S
C1322 C1326 1.368 . S
C1323 C1304 1.429 . S
C1323 C1317 1.429 . S
C1323 C1324 1.523 . S
C1324 C1305 1.368 . S
C1324 C1318 1.368 . S
C1324 C1323 1.523 . S
C1325 C1309 1.429 . S
C1325 C1321 1.429 . S
C1325 C1326 1.523 . S
C1326 C1310 1.368 . S
C1326 C1322 1.368 . S
C1326 C1325 1.523 . S
H1327 C1302 0.950 . S
H1328 C1304 0.950 . S
H1329 C1305 0.949 . S
H1330 C1307 0.950 . S
H1331 C1309 0.950 . S
C1332 C1333 1.349 . S
C1332 C1334 1.327 . S
C1332 H1357 0.950 . S
C1333 C1332 1.349 . S
C1333 C1349 1.349 . S
C1334 C1332 1.327 . S
C1334 C1353 1.429 . S
C1334 H1358 0.950 . S
C1335 C1352 1.574 . S
C1335 C1354 1.368 . S
C1335 H1359 0.949 . S
H1336 C1340 0.949 . S
C1337 C1338 1.349 . S
C1337 C1339 1.327 . S
C1337 H1360 0.950 . S
C1338 C1337 1.349 . S
C1338 C1350 1.349 . S
C1339 C1337 1.327 . S
C1339 C1355 1.429 . S
C1339 H1361 0.950 . S
C1340 H1336 0.949 . S
C1340 C1348 1.574 . S
C1340 C1356 1.368 . S
H1341 C1349 0.950 . S
H1342 C1347 0.950 . S
H1343 C1348 0.949 . S
H1344 C1350 0.950 . S
H1345 C1351 0.950 . S
H1346 C1352 0.949 . S
C1347 H1342 0.950 . S
C1347 C1349 1.327 . S
C1347 C1353 1.429 . S
C1348 C1340 1.574 . S
C1348 H1343 0.949 . S
C1348 C1354 1.368 . S
C1349 C1333 1.349 . S
C1349 H1341 0.950 . S
C1349 C1347 1.327 . S
C1350 C1338 1.349 . S
C1350 H1344 0.950 . S
C1350 C1351 1.327 . S
C1351 H1345 0.950 . S
C1351 C1350 1.327 . S
C1351 C1355 1.429 . S
C1352 C1335 1.574 . S
C1352 H1346 0.949 . S
C1352 C1356 1.368 . S
C1353 C1334 1.429 . S
C1353 C1347 1.429 . S
C1353 C1354 1.523 . S
C1354 C1335 1.368 . S
C1354 C1348 1.368 . S
C1354 C1353 1.523 . S
C1355 C1339 1.429 . S
C1355 C1351 1.429 . S
C1355 C1356 1.523 . S
C1356 C1340 1.368 . S
C1356 C1352 1.368 . S
C1356 C1355 1.523 . S
H1357 C1332 0.950 . S
H1358 C1334 0.950 . S
H1359 C1335 0.949 . S
H1360 C1337 0.950 . S
H1361 C1339 0.950 . S
C1362 C1363 1.349 . S
C1362 C1364 1.327 . S
C1362 H1387 0.950 . S
C1363 C1362 1.349 . S
C1363 C1379 1.349 . S
C1364 C1362 1.327 . S
C1364 C1383 1.429 . S
C1364 H1388 0.950 . S
C1365 C1382 1.574 . S
C1365 C1384 1.368 . S
C1365 H1389 0.949 . S
H1366 C1370 0.949 . S
C1367 C1368 1.349 . S
C1367 C1369 1.327 . S
C1367 H1390 0.950 . S
C1368 C1367 1.349 . S
C1368 C1380 1.349 . S
C1369 C1367 1.327 . S
C1369 C1385 1.429 . S
C1369 H1391 0.950 . S
C1370 H1366 0.949 . S
C1370 C1378 1.574 . S
C1370 C1386 1.368 . S
H1371 C1379 0.950 . S
H1372 C1377 0.950 . S
H1373 C1378 0.949 . S
H1374 C1380 0.950 . S
H1375 C1381 0.950 . S
H1376 C1382 0.949 . S
C1377 H1372 0.950 . S
C1377 C1379 1.327 . S
C1377 C1383 1.429 . S
C1378 C1370 1.574 . S
C1378 H1373 0.949 . S
C1378 C1384 1.368 . S
C1379 C1363 1.349 . S
C1379 H1371 0.950 . S
C1379 C1377 1.327 . S
C1380 C1368 1.349 . S
C1380 H1374 0.950 . S
C1380 C1381 1.327 . S
C1381 H1375 0.950 . S
C1381 C1380 1.327 . S
C1381 C1385 1.429 . S
C1382 C1365 1.574 . S
C1382 H1376 0.949 . S
C1382 C1386 1.368 . S
C1383 C1364 1.429 . S
C1383 C1377 1.429 . S
C1383 C1384 1.523 . S
C1384 C1365 1.368 . S
C1384 C1378 1.368 . S
C1384 C1383 1.523 . S
C1385 C1369 1.429 . S
C1385 C1381 1.429 . S
C1385 C1386 1.523 . S
C1386 C1370 1.368 . S
C1386 C1382 1.368 . S
C1386 C1385 1.523 . S
H1387 C1362 0.950 . S
H1388 C1364 0.950 . S
H1389 C1365 0.949 . S
H1390 C1367 0.950 . S
H1391 C1369 0.950 . S
C1392 C1393 1.349 . S
C1392 C1394 1.327 . S
C1392 H1417 0.950 . S
C1393 C1392 1.349 . S
C1393 C1409 1.349 . S
C1394 C1392 1.327 . S
C1394 C1413 1.429 . S
C1394 H1418 0.950 . S
C1395 C1412 1.574 . S
C1395 C1414 1.368 . S
C1395 H1419 0.949 . S
H1396 C1400 0.949 . S
C1397 C1398 1.349 . S
C1397 C1399 1.327 . S
C1397 H1420 0.950 . S
C1398 C1397 1.349 . S
C1398 C1410 1.349 . S
C1399 C1397 1.327 . S
C1399 C1415 1.429 . S
C1399 H1421 0.950 . S
C1400 H1396 0.949 . S
C1400 C1408 1.574 . S
C1400 C1416 1.368 . S
H1401 C1409 0.950 . S
H1402 C1407 0.950 . S
H1403 C1408 0.949 . S
H1404 C1410 0.950 . S
H1405 C1411 0.950 . S
H1406 C1412 0.949 . S
C1407 H1402 0.950 . S
C1407 C1409 1.327 . S
C1407 C1413 1.429 . S
C1408 C1400 1.574 . S
C1408 H1403 0.949 . S
C1408 C1414 1.368 . S
C1409 C1393 1.349 . S
C1409 H1401 0.950 . S
C1409 C1407 1.327 . S
C1410 C1398 1.349 . S
C1410 H1404 0.950 . S
C1410 C1411 1.327 . S
C1411 H1405 0.950 . S
C1411 C1410 1.327 . S
C1411 C1415 1.429 . S
C1412 C1395 1.574 . S
C1412 H1406 0.949 . S
C1412 C1416 1.368 . S
C1413 C1394 1.429 . S
C1413 C1407 1.429 . S
C1413 C1414 1.523 . S
C1414 C1395 1.368 . S
C1414 C1408 1.368 . S
C1414 C1413 1.523 . S
C1415 C1399 1.429 . S
C1415 C1411 1.429 . S
C1415 C1416 1.523 . S
C1416 C1400 1.368 . S
C1416 C1412 1.368 . S
C1416 C1415 1.523 . S
H1417 C1392 0.950 . S
H1418 C1394 0.950 . S
H1419 C1395 0.949 . S
H1420 C1397 0.950 . S
H1421 C1399 0.950 . S
C1422 C1423 1.349 . S
C1422 C1424 1.327 . S
C1422 H1447 0.950 . S
C1423 C1422 1.349 . S
C1423 C1439 1.349 . S
C1424 C1422 1.327 . S
C1424 C1443 1.429 . S
C1424 H1448 0.950 . S
C1425 C1442 1.574 . S
C1425 C1444 1.368 . S
C1425 H1449 0.949 . S
H1426 C1430 0.949 . S
C1427 C1428 1.349 . S
C1427 C1429 1.327 . S
C1427 H1450 0.950 . S
C1428 C1427 1.349 . S
C1428 C1440 1.349 . S
C1429 C1427 1.327 . S
C1429 C1445 1.429 . S
C1429 H1451 0.950 . S
C1430 H1426 0.949 . S
C1430 C1438 1.574 . S
C1430 C1446 1.368 . S
H1431 C1439 0.950 . S
H1432 C1437 0.950 . S
H1433 C1438 0.949 . S
H1434 C1440 0.950 . S
H1435 C1441 0.950 . S
H1436 C1442 0.949 . S
C1437 H1432 0.950 . S
C1437 C1439 1.327 . S
C1437 C1443 1.429 . S
C1438 C1430 1.574 . S
C1438 H1433 0.949 . S
C1438 C1444 1.368 . S
C1439 C1423 1.349 . S
C1439 H1431 0.950 . S
C1439 C1437 1.327 . S
C1440 C1428 1.349 . S
C1440 H1434 0.950 . S
C1440 C1441 1.327 . S
C1441 H1435 0.950 . S
C1441 C1440 1.327 . S
C1441 C1445 1.429 . S
C1442 C1425 1.574 . S
C1442 H1436 0.949 . S
C1442 C1446 1.368 . S
C1443 C1424 1.429 . S
C1443 C1437 1.429 . S
C1443 C1444 1.523 . S
C1444 C1425 1.368 . S
C1444 C1438 1.368 . S
C1444 C1443 1.523 . S
C1445 C1429 1.429 . S
C1445 C1441 1.429 . S
C1445 C1446 1.523 . S
C1446 C1430 1.368 . S
C1446 C1442 1.368 . S
C1446 C1445 1.523 . S
H1447 C1422 0.950 . S
H1448 C1424 0.950 . S
H1449 C1425 0.949 . S
H1450 C1427 0.950 . S
H1451 C1429 0.950 . S
C1452 C1453 1.349 . S
C1452 C1454 1.327 . S
C1452 H1477 0.950 . S
C1453 C1452 1.349 . S
C1453 C1469 1.349 . S
C1454 C1452 1.327 . S
C1454 C1473 1.429 . S
C1454 H1478 0.950 . S
C1455 C1472 1.574 . S
C1455 C1474 1.368 . S
C1455 H1479 0.949 . S
H1456 C1460 0.949 . S
C1457 C1458 1.349 . S
C1457 C1459 1.327 . S
C1457 H1480 0.950 . S
C1458 C1457 1.349 . S
C1458 C1470 1.349 . S
C1459 C1457 1.327 . S
C1459 C1475 1.429 . S
C1459 H1481 0.950 . S
C1460 H1456 0.949 . S
C1460 C1468 1.574 . S
C1460 C1476 1.368 . S
H1461 C1469 0.950 . S
H1462 C1467 0.950 . S
H1463 C1468 0.949 . S
H1464 C1470 0.950 . S
H1465 C1471 0.950 . S
H1466 C1472 0.949 . S
C1467 H1462 0.950 . S
C1467 C1469 1.327 . S
C1467 C1473 1.429 . S
C1468 C1460 1.574 . S
C1468 H1463 0.949 . S
C1468 C1474 1.368 . S
C1469 C1453 1.349 . S
C1469 H1461 0.950 . S
C1469 C1467 1.327 . S
C1470 C1458 1.349 . S
C1470 H1464 0.950 . S
C1470 C1471 1.327 . S
C1471 H1465 0.950 . S
C1471 C1470 1.327 . S
C1471 C1475 1.429 . S
C1472 C1455 1.574 . S
C1472 H1466 0.949 . S
C1472 C1476 1.368 . S
C1473 C1454 1.429 . S
C1473 C1467 1.429 . S
C1473 C1474 1.523 . S
C1474 C1455 1.368 . S
C1474 C1468 1.368 . S
C1474 C1473 1.523 . S
C1475 C1459 1.429 . S
C1475 C1471 1.429 . S
C1475 C1476 1.523 . S
C1476 C1460 1.368 . S
C1476 C1472 1.368 . S
C1476 C1475 1.523 . S
H1477 C1452 0.950 . S
H1478 C1454 0.950 . S
H1479 C1455 0.949 . S
H1480 C1457 0.950 . S
H1481 C1459 0.950 . S
C1482 C1483 1.349 . S
C1482 C1484 1.327 . S
C1482 H1507 0.950 . S
C1483 C1482 1.349 . S
C1483 C1499 1.349 . S
C1484 C1482 1.327 . S
C1484 C1503 1.429 . S
C1484 H1508 0.950 . S
C1485 C1502 1.574 . S
C1485 C1504 1.368 . S
C1485 H1509 0.949 . S
H1486 C1490 0.949 1_556 S
C1487 C1488 1.349 . S
C1487 C1489 1.327 . S
C1487 H1510 0.950 . S
C1488 C1487 1.349 . S
C1488 C1500 1.385 . S
C1489 C1487 1.327 . S
C1489 C1505 1.429 . S
C1489 H1511 0.950 . S
C1490 H1486 0.949 1_554 S
C1490 C1498 1.574 . S
C1490 C1506 1.368 . S
H1491 C1499 0.950 . S
H1492 C1497 0.950 . S
H1493 C1498 0.949 . S
H1494 C1500 0.908 1_556 S
H1495 C1501 0.950 1_556 S
H1496 C1502 0.949 . S
C1497 H1492 0.950 . S
C1497 C1499 1.327 . S
C1497 C1503 1.429 . S
C1498 C1490 1.574 . S
C1498 H1493 0.949 . S
C1498 C1504 1.368 . S
C1499 C1483 1.349 . S
C1499 H1491 0.950 . S
C1499 C1497 1.327 . S
C1500 C1488 1.385 . S
C1500 H1494 0.908 1_554 S
C1500 C1501 1.334 . S
C1501 H1495 0.950 1_554 S
C1501 C1500 1.334 . S
C1501 C1505 1.429 . S
C1502 C1485 1.574 . S
C1502 H1496 0.949 . S
C1502 C1506 1.368 . S
C1503 C1484 1.429 . S
C1503 C1497 1.429 . S
C1503 C1504 1.523 . S
C1504 C1485 1.368 . S
C1504 C1498 1.368 . S
C1504 C1503 1.523 . S
C1505 C1489 1.429 . S
C1505 C1501 1.429 . S
C1505 C1506 1.523 . S
C1506 C1490 1.368 . S
C1506 C1502 1.368 . S
C1506 C1505 1.523 . S
H1507 C1482 0.950 . S
H1508 C1484 0.950 . S
H1509 C1485 0.949 . S
H1510 C1487 0.950 . S
H1511 C1489 0.950 . S
C1512 C1513 1.349 . S
C1512 C1514 1.327 . S
C1512 H1537 0.950 . S
C1513 C1512 1.349 . S
C1513 C1529 1.349 . S
C1514 C1512 1.327 . S
C1514 C1533 1.429 . S
C1514 H1538 0.950 . S
C1515 C1532 1.574 . S
C1515 C1534 1.368 . S
C1515 H1539 0.949 . S
H1516 C1520 0.949 1_565 S
C1517 C1518 1.349 . S
C1517 C1519 1.327 . S
C1517 H1540 0.950 . S
C1518 C1517 1.349 . S
C1518 C1530 1.349 . S
C1519 C1517 1.327 . S
C1519 C1535 1.429 . S
C1519 H1541 0.950 . S
C1520 H1516 0.949 1_545 S
C1520 C1528 1.574 . S
C1520 C1536 1.368 . S
H1521 C1529 0.950 . S
H1522 C1527 0.950 . S
H1523 C1528 0.927 1_565 S
H1524 C1530 0.950 1_565 S
H1525 C1531 0.950 1_565 S
H1526 C1532 0.949 . S
C1527 H1522 0.950 . S
C1527 C1529 1.327 . S
C1527 C1533 1.429 . S
C1528 C1520 1.574 . S
C1528 H1523 0.927 1_545 S
C1528 C1534 1.368 . S
C1529 C1513 1.349 . S
C1529 H1521 0.950 . S
C1529 C1527 1.327 . S
C1530 C1518 1.349 . S
C1530 H1524 0.950 1_545 S
C1530 C1531 1.327 . S
C1531 H1525 0.950 1_545 S
C1531 C1530 1.327 . S
C1531 C1535 1.429 . S
C1532 C1515 1.574 . S
C1532 H1526 0.949 . S
C1532 C1536 1.368 . S
C1533 C1514 1.429 . S
C1533 C1527 1.429 . S
C1533 C1534 1.523 . S
C1534 C1515 1.368 . S
C1534 C1528 1.368 . S
C1534 C1533 1.523 . S
C1535 C1519 1.429 . S
C1535 C1531 1.429 . S
C1535 C1536 1.523 . S
C1536 C1520 1.368 . S
C1536 C1532 1.368 . S
C1536 C1535 1.523 . S
H1537 C1512 0.950 . S
H1538 C1514 0.950 . S
H1539 C1515 0.949 . S
H1540 C1517 0.950 . S
H1541 C1519 0.950 . S
C1542 C1543 1.349 . S
C1542 C1544 1.327 . S
C1542 H1567 0.950 . S
C1543 C1542 1.349 . S
C1543 C1559 1.349 . S
C1544 C1542 1.327 . S
C1544 C1563 1.429 . S
C1544 H1568 0.950 . S
C1545 C1562 1.574 . S
C1545 C1564 1.368 . S
C1545 H1569 0.949 . S
H1546 C1550 0.949 . S
C1547 C1548 1.349 . S
C1547 C1549 1.327 . S
C1547 H1570 0.950 . S
C1548 C1547 1.349 . S
C1548 C1560 1.349 . S
C1549 C1547 1.327 . S
C1549 C1565 1.429 . S
C1549 H1571 0.950 . S
C1550 H1546 0.949 . S
C1550 C1558 1.574 . S
C1550 C1566 1.368 . S
H1551 C1559 0.950 . S
H1552 C1557 0.950 . S
H1553 C1558 0.949 . S
H1554 C1560 0.950 . S
H1555 C1561 0.950 . S
H1556 C1562 0.949 . S
C1557 H1552 0.950 . S
C1557 C1559 1.327 . S
C1557 C1563 1.429 . S
C1558 C1550 1.574 . S
C1558 H1553 0.949 . S
C1558 C1564 1.368 . S
C1559 C1543 1.349 . S
C1559 H1551 0.950 . S
C1559 C1557 1.327 . S
C1560 C1548 1.349 . S
C1560 H1554 0.950 . S
C1560 C1561 1.327 . S
C1561 H1555 0.950 . S
C1561 C1560 1.327 . S
C1561 C1565 1.429 . S
C1562 C1545 1.574 . S
C1562 H1556 0.949 . S
C1562 C1566 1.368 . S
C1563 C1544 1.429 . S
C1563 C1557 1.429 . S
C1563 C1564 1.523 . S
C1564 C1545 1.368 . S
C1564 C1558 1.368 . S
C1564 C1563 1.523 . S
C1565 C1549 1.429 . S
C1565 C1561 1.429 . S
C1565 C1566 1.523 . S
C1566 C1550 1.368 . S
C1566 C1562 1.368 . S
C1566 C1565 1.523 . S
H1567 C1542 0.950 . S
H1568 C1544 0.950 . S
H1569 C1545 0.949 . S
H1570 C1547 0.950 . S
H1571 C1549 0.950 . S
C1572 C1573 1.349 1_545 S
C1572 C1574 1.331 . S
C1572 H1597 0.950 . S
C1573 C1572 1.349 1_565 S
C1573 C1589 1.349 . S
C1574 C1572 1.331 . S
C1574 C1593 1.400 1_545 S
C1574 H1598 0.975 . S
C1575 C1592 1.574 . S
C1575 C1594 1.368 . S
C1575 H1599 0.949 . S
H1576 C1580 0.949 1_545 S
C1577 C1578 1.349 . S
C1577 C1579 1.327 . S
C1577 H1600 0.950 . S
C1578 C1577 1.349 . S
C1578 C1590 1.349 . S
C1579 C1577 1.327 . S
C1579 C1595 1.429 . S
C1579 H1601 0.950 . S
C1580 H1576 0.949 1_565 S
C1580 C1588 1.574 . S
C1580 C1596 1.368 . S
H1581 C1589 0.950 . S
H1582 C1587 0.950 . S
H1583 C1588 0.949 1_545 S
H1584 C1590 0.991 . S
H1585 C1591 0.950 1_545 S
H1586 C1592 0.949 . S
C1587 H1582 0.950 . S
C1587 C1589 1.327 . S
C1587 C1593 1.429 . S
C1588 C1580 1.574 . S
C1588 H1583 0.949 1_565 S
C1588 C1594 1.368 . S
C1589 C1573 1.349 . S
C1589 H1581 0.950 . S
C1589 C1587 1.327 . S
C1590 C1578 1.349 . S
C1590 H1584 0.991 . S
C1590 C1591 1.327 . S
C1591 H1585 0.950 1_565 S
C1591 C1590 1.327 . S
C1591 C1595 1.429 . S
C1592 C1575 1.574 . S
C1592 H1586 0.949 . S
C1592 C1596 1.368 . S
C1593 C1574 1.400 1_565 S
C1593 C1587 1.429 . S
C1593 C1594 1.523 . S
C1594 C1575 1.368 . S
C1594 C1588 1.368 . S
C1594 C1593 1.523 . S
C1595 C1579 1.429 . S
C1595 C1591 1.429 . S
C1595 C1596 1.523 . S
C1596 C1580 1.368 . S
C1596 C1592 1.368 . S
C1596 C1595 1.523 . S
H1597 C1572 0.950 . S
H1598 C1574 0.975 . S
H1599 C1575 0.949 . S
H1600 C1577 0.950 . S
H1601 C1579 0.950 . S
C1602 C1603 1.349 . S
C1602 C1604 1.327 . S
C1602 H1627 0.950 . S
C1603 C1602 1.349 . S
C1603 C1619 1.349 . S
C1604 C1602 1.327 . S
C1604 C1623 1.429 . S
C1604 H1628 0.950 . S
C1605 C1622 1.574 . S
C1605 C1624 1.368 . S
C1605 H1629 0.949 . S
H1606 C1610 0.949 . S
C1607 C1608 1.349 . S
C1607 C1609 1.327 . S
C1607 H1630 0.950 . S
C1608 C1607 1.349 . S
C1608 C1620 1.349 . S
C1609 C1607 1.327 . S
C1609 C1625 1.429 . S
C1609 H1631 0.950 . S
C1610 H1606 0.949 . S
C1610 C1618 1.574 . S
C1610 C1626 1.368 . S
H1611 C1619 0.950 . S
H1612 C1617 0.950 . S
H1613 C1618 0.949 . S
H1614 C1620 0.950 . S
H1615 C1621 0.950 . S
H1616 C1622 0.949 . S
C1617 H1612 0.950 . S
C1617 C1619 1.327 . S
C1617 C1623 1.429 . S
C1618 C1610 1.574 . S
C1618 H1613 0.949 . S
C1618 C1624 1.368 . S
C1619 C1603 1.349 . S
C1619 H1611 0.950 . S
C1619 C1617 1.327 . S
C1620 C1608 1.349 . S
C1620 H1614 0.950 . S
C1620 C1621 1.327 . S
C1621 H1615 0.950 . S
C1621 C1620 1.327 . S
C1621 C1625 1.429 . S
C1622 C1605 1.574 . S
C1622 H1616 0.949 . S
C1622 C1626 1.368 . S
C1623 C1604 1.429 . S
C1623 C1617 1.429 . S
C1623 C1624 1.523 . S
C1624 C1605 1.368 . S
C1624 C1618 1.368 . S
C1624 C1623 1.523 . S
C1625 C1609 1.429 . S
C1625 C1621 1.429 . S
C1625 C1626 1.523 . S
C1626 C1610 1.368 . S
C1626 C1622 1.368 . S
C1626 C1625 1.523 . S
H1627 C1602 0.950 . S
H1628 C1604 0.950 . S
H1629 C1605 0.949 . S
H1630 C1607 0.950 . S
H1631 C1609 0.950 . S
C1632 C1633 1.349 . S
C1632 C1634 1.327 . S
C1632 H1657 0.950 . S
C1633 C1632 1.349 . S
C1633 C1649 1.349 . S
C1634 C1632 1.327 . S
C1634 C1653 1.429 . S
C1634 H1658 0.950 . S
C1635 C1652 1.574 . S
C1635 C1654 1.368 . S
C1635 H1659 0.949 . S
H1636 C1640 0.949 . S
C1637 C1638 1.349 . S
C1637 C1639 1.327 . S
C1637 H1660 0.950 . S
C1638 C1637 1.349 . S
C1638 C1650 1.349 . S
C1639 C1637 1.327 . S
C1639 C1655 1.429 . S
C1639 H1661 0.950 . S
C1640 H1636 0.949 . S
C1640 C1648 1.574 . S
C1640 C1656 1.368 . S
H1641 C1649 0.950 . S
H1642 C1647 0.950 . S
H1643 C1648 0.949 . S
H1644 C1650 0.950 . S
H1645 C1651 0.950 . S
H1646 C1652 0.949 . S
C1647 H1642 0.950 . S
C1647 C1649 1.327 . S
C1647 C1653 1.429 . S
C1648 C1640 1.574 . S
C1648 H1643 0.949 . S
C1648 C1654 1.368 . S
C1649 C1633 1.349 . S
C1649 H1641 0.950 . S
C1649 C1647 1.327 . S
C1650 C1638 1.349 . S
C1650 H1644 0.950 . S
C1650 C1651 1.327 . S
C1651 H1645 0.950 . S
C1651 C1650 1.327 . S
C1651 C1655 1.429 . S
C1652 C1635 1.574 . S
C1652 H1646 0.949 . S
C1652 C1656 1.368 . S
C1653 C1634 1.429 . S
C1653 C1647 1.429 . S
C1653 C1654 1.523 . S
C1654 C1635 1.368 . S
C1654 C1648 1.368 . S
C1654 C1653 1.523 . S
C1655 C1639 1.429 . S
C1655 C1651 1.429 . S
C1655 C1656 1.523 . S
C1656 C1640 1.368 . S
C1656 C1652 1.368 . S
C1656 C1655 1.523 . S
H1657 C1632 0.950 . S
H1658 C1634 0.950 . S
H1659 C1635 0.949 . S
H1660 C1637 0.950 . S
H1661 C1639 0.950 . S
C1662 C1663 1.349 . S
C1662 C1664 1.327 . S
C1662 H1687 0.950 . S
C1663 C1662 1.349 . S
C1663 C1679 1.349 . S
C1664 C1662 1.327 . S
C1664 C1683 1.429 . S
C1664 H1688 0.950 . S
C1665 C1682 1.574 . S
C1665 C1684 1.368 . S
C1665 H1689 0.949 . S
H1666 C1670 0.949 . S
C1667 C1668 1.349 . S
C1667 C1669 1.327 . S
C1667 H1690 0.950 . S
C1668 C1667 1.349 . S
C1668 C1680 1.349 . S
C1669 C1667 1.327 . S
C1669 C1685 1.429 . S
C1669 H1691 0.950 . S
C1670 H1666 0.949 . S
C1670 C1678 1.574 . S
C1670 C1686 1.368 . S
H1671 C1679 0.950 . S
H1672 C1677 0.950 . S
H1673 C1678 0.949 . S
H1674 C1680 0.950 . S
H1675 C1681 0.950 . S
H1676 C1682 0.949 . S
C1677 H1672 0.950 . S
C1677 C1679 1.327 . S
C1677 C1683 1.429 . S
C1678 C1670 1.574 . S
C1678 H1673 0.949 . S
C1678 C1684 1.368 . S
C1679 C1663 1.349 . S
C1679 H1671 0.950 . S
C1679 C1677 1.327 . S
C1680 C1668 1.349 . S
C1680 H1674 0.950 . S
C1680 C1681 1.327 . S
C1681 H1675 0.950 . S
C1681 C1680 1.327 . S
C1681 C1685 1.429 . S
C1682 C1665 1.574 . S
C1682 H1676 0.949 . S
C1682 C1686 1.368 . S
C1683 C1664 1.429 . S
C1683 C1677 1.429 . S
C1683 C1684 1.523 . S
C1684 C1665 1.368 . S
C1684 C1678 1.368 . S
C1684 C1683 1.523 . S
C1685 C1669 1.429 . S
C1685 C1681 1.429 . S
C1685 C1686 1.523 . S
C1686 C1670 1.368 . S
C1686 C1682 1.368 . S
C1686 C1685 1.523 . S
H1687 C1662 0.950 . S
H1688 C1664 0.950 . S
H1689 C1665 0.949 . S
H1690 C1667 0.950 . S
H1691 C1669 0.950 . S
C1692 C1693 1.349 . S
C1692 C1694 1.327 . S
C1692 H1717 0.950 . S
C1693 C1692 1.349 . S
C1693 C1709 1.349 . S
C1694 C1692 1.327 . S
C1694 C1713 1.429 . S
C1694 H1718 0.950 . S
C1695 C1712 1.574 . S
C1695 C1714 1.368 . S
C1695 H1719 0.949 . S
H1696 C1700 0.949 . S
C1697 C1698 1.349 . S
C1697 C1699 1.327 . S
C1697 H1720 0.950 . S
C1698 C1697 1.349 . S
C1698 C1710 1.349 . S
C1699 C1697 1.327 . S
C1699 C1715 1.429 . S
C1699 H1721 0.950 . S
C1700 H1696 0.949 . S
C1700 C1708 1.574 . S
C1700 C1716 1.368 . S
H1701 C1709 0.950 . S
H1702 C1707 0.950 . S
H1703 C1708 0.949 . S
H1704 C1710 0.950 . S
H1705 C1711 0.950 . S
H1706 C1712 0.949 . S
C1707 H1702 0.950 . S
C1707 C1709 1.327 . S
C1707 C1713 1.429 . S
C1708 C1700 1.574 . S
C1708 H1703 0.949 . S
C1708 C1714 1.368 . S
C1709 C1693 1.349 . S
C1709 H1701 0.950 . S
C1709 C1707 1.327 . S
C1710 C1698 1.349 . S
C1710 H1704 0.950 . S
C1710 C1711 1.327 . S
C1711 H1705 0.950 . S
C1711 C1710 1.327 . S
C1711 C1715 1.429 . S
C1712 C1695 1.574 . S
C1712 H1706 0.949 . S
C1712 C1716 1.368 . S
C1713 C1694 1.429 . S
C1713 C1707 1.429 . S
C1713 C1714 1.523 . S
C1714 C1695 1.368 . S
C1714 C1708 1.368 . S
C1714 C1713 1.523 . S
C1715 C1699 1.429 . S
C1715 C1711 1.429 . S
C1715 C1716 1.523 . S
C1716 C1700 1.368 . S
C1716 C1712 1.368 . S
C1716 C1715 1.523 . S
H1717 C1692 0.950 . S
H1718 C1694 0.950 . S
H1719 C1695 0.949 . S
H1720 C1697 0.950 . S
H1721 C1699 0.950 . S
C1722 C1723 1.349 . S
C1722 C1724 1.327 . S
C1722 H1747 0.950 . S
C1723 C1722 1.349 . S
C1723 C1739 1.349 . S
C1724 C1722 1.327 . S
C1724 C1743 1.429 . S
C1724 H1748 0.950 . S
C1725 C1742 1.574 . S
C1725 C1744 1.368 . S
C1725 H1749 0.949 . S
H1726 C1730 0.949 . S
C1727 C1728 1.349 . S
C1727 C1729 1.327 . S
C1727 H1750 0.950 . S
C1728 C1727 1.349 . S
C1728 C1740 1.349 . S
C1729 C1727 1.327 . S
C1729 C1745 1.429 . S
C1729 H1751 0.950 . S
C1730 H1726 0.949 . S
C1730 C1738 1.574 . S
C1730 C1746 1.368 . S
H1731 C1739 0.950 . S
H1732 C1737 0.950 . S
H1733 C1738 0.949 . S
H1734 C1740 0.950 . S
H1735 C1741 0.950 . S
H1736 C1742 0.949 . S
C1737 H1732 0.950 . S
C1737 C1739 1.327 . S
C1737 C1743 1.429 . S
C1738 C1730 1.574 . S
C1738 H1733 0.949 . S
C1738 C1744 1.368 . S
C1739 C1723 1.349 . S
C1739 H1731 0.950 . S
C1739 C1737 1.327 . S
C1740 C1728 1.349 . S
C1740 H1734 0.950 . S
C1740 C1741 1.327 . S
C1741 H1735 0.950 . S
C1741 C1740 1.327 . S
C1741 C1745 1.429 . S
C1742 C1725 1.574 . S
C1742 H1736 0.949 . S
C1742 C1746 1.368 . S
C1743 C1724 1.429 . S
C1743 C1737 1.429 . S
C1743 C1744 1.523 . S
C1744 C1725 1.368 . S
C1744 C1738 1.368 . S
C1744 C1743 1.523 . S
C1745 C1729 1.429 . S
C1745 C1741 1.429 . S
C1745 C1746 1.523 . S
C1746 C1730 1.368 . S
C1746 C1742 1.368 . S
C1746 C1745 1.523 . S
H1747 C1722 0.950 . S
H1748 C1724 0.950 . S
H1749 C1725 0.949 . S
H1750 C1727 0.950 . S
H1751 C1729 0.950 . S
C1752 C1753 1.349 . S
C1752 C1754 1.327 . S
C1752 H1777 0.950 . S
C1753 C1752 1.349 . S
C1753 C1769 1.349 . S
C1754 C1752 1.327 . S
C1754 C1773 1.429 . S
C1754 H1778 0.950 . S
C1755 C1772 1.574 . S
C1755 C1774 1.368 . S
C1755 H1779 0.949 . S
H1756 C1760 0.949 . S
C1757 C1758 1.349 . S
C1757 C1759 1.327 . S
C1757 H1780 0.950 . S
C1758 C1757 1.349 . S
C1758 C1770 1.349 . S
C1759 C1757 1.327 . S
C1759 C1775 1.429 . S
C1759 H1781 0.950 . S
C1760 H1756 0.949 . S
C1760 C1768 1.574 . S
C1760 C1776 1.368 . S
H1761 C1769 0.950 . S
H1762 C1767 0.950 . S
H1763 C1768 0.949 . S
H1764 C1770 0.950 . S
H1765 C1771 0.950 . S
H1766 C1772 0.949 . S
C1767 H1762 0.950 . S
C1767 C1769 1.327 . S
C1767 C1773 1.429 . S
C1768 C1760 1.574 . S
C1768 H1763 0.949 . S
C1768 C1774 1.368 . S
C1769 C1753 1.349 . S
C1769 H1761 0.950 . S
C1769 C1767 1.327 . S
C1770 C1758 1.349 . S
C1770 H1764 0.950 . S
C1770 C1771 1.327 . S
C1771 H1765 0.950 . S
C1771 C1770 1.327 . S
C1771 C1775 1.429 . S
C1772 C1755 1.574 . S
C1772 H1766 0.949 . S
C1772 C1776 1.368 . S
C1773 C1754 1.429 . S
C1773 C1767 1.429 . S
C1773 C1774 1.523 . S
C1774 C1755 1.368 . S
C1774 C1768 1.368 . S
C1774 C1773 1.523 . S
C1775 C1759 1.429 . S
C1775 C1771 1.429 . S
C1775 C1776 1.523 . S
C1776 C1760 1.368 . S
C1776 C1772 1.368 . S
C1776 C1775 1.523 . S
H1777 C1752 0.950 . S
H1778 C1754 0.950 . S
H1779 C1755 0.949 . S
H1780 C1757 0.950 . S
H1781 C1759 0.950 . S
C1782 C1783 1.349 . S
C1782 C1784 1.327 . S
C1782 H1807 0.950 . S
C1783 C1782 1.349 . S
C1783 C1799 1.349 . S
C1784 C1782 1.327 . S
C1784 C1803 1.429 . S
C1784 H1808 0.950 . S
C1785 C1802 1.574 . S
C1785 C1804 1.368 . S
C1785 H1809 0.949 . S
H1786 C1790 0.949 . S
C1787 C1788 1.349 . S
C1787 C1789 1.327 . S
C1787 H1810 0.950 . S
C1788 C1787 1.349 . S
C1788 C1800 1.349 . S
C1789 C1787 1.327 . S
C1789 C1805 1.429 . S
C1789 H1811 0.950 . S
C1790 H1786 0.949 . S
C1790 C1798 1.574 . S
C1790 C1806 1.368 . S
H1791 C1799 0.950 . S
H1792 C1797 0.950 . S
H1793 C1798 0.949 . S
H1794 C1800 0.950 . S
H1795 C1801 0.950 . S
H1796 C1802 0.949 . S
C1797 H1792 0.950 . S
C1797 C1799 1.327 . S
C1797 C1803 1.429 . S
C1798 C1790 1.574 . S
C1798 H1793 0.949 . S
C1798 C1804 1.368 . S
C1799 C1783 1.349 . S
C1799 H1791 0.950 . S
C1799 C1797 1.327 . S
C1800 C1788 1.349 . S
C1800 H1794 0.950 . S
C1800 C1801 1.327 . S
C1801 H1795 0.950 . S
C1801 C1800 1.327 . S
C1801 C1805 1.429 . S
C1802 C1785 1.574 . S
C1802 H1796 0.949 . S
C1802 C1806 1.368 . S
C1803 C1784 1.429 . S
C1803 C1797 1.429 . S
C1803 C1804 1.523 . S
C1804 C1785 1.368 . S
C1804 C1798 1.368 . S
C1804 C1803 1.523 . S
C1805 C1789 1.429 . S
C1805 C1801 1.429 . S
C1805 C1806 1.523 . S
C1806 C1790 1.368 . S
C1806 C1802 1.368 . S
C1806 C1805 1.523 . S
H1807 C1782 0.950 . S
H1808 C1784 0.950 . S
H1809 C1785 0.949 . S
H1810 C1787 0.950 . S
H1811 C1789 0.950 . S
C1812 C1813 1.349 . S
C1812 C1814 1.327 . S
C1812 H1837 0.950 . S
C1813 C1812 1.349 . S
C1813 C1829 1.349 . S
C1814 C1812 1.327 . S
C1814 C1833 1.429 . S
C1814 H1838 0.950 . S
C1815 C1832 1.574 . S
C1815 C1834 1.368 . S
C1815 H1839 0.949 . S
H1816 C1820 0.949 . S
C1817 C1818 1.349 . S
C1817 C1819 1.327 . S
C1817 H1840 0.950 . S
C1818 C1817 1.349 . S
C1818 C1830 1.349 . S
C1819 C1817 1.327 . S
C1819 C1835 1.429 . S
C1819 H1841 0.950 . S
C1820 H1816 0.949 . S
C1820 C1828 1.574 . S
C1820 C1836 1.368 . S
H1821 C1829 0.950 . S
H1822 C1827 0.950 . S
H1823 C1828 0.949 . S
H1824 C1830 0.950 . S
H1825 C1831 0.950 . S
H1826 C1832 0.949 . S
C1827 H1822 0.950 . S
C1827 C1829 1.327 . S
C1827 C1833 1.429 . S
C1828 C1820 1.574 . S
C1828 H1823 0.949 . S
C1828 C1834 1.368 . S
C1829 C1813 1.349 . S
C1829 H1821 0.950 . S
C1829 C1827 1.327 . S
C1830 C1818 1.349 . S
C1830 H1824 0.950 . S
C1830 C1831 1.327 . S
C1831 H1825 0.950 . S
C1831 C1830 1.327 . S
C1831 C1835 1.429 . S
C1832 C1815 1.574 . S
C1832 H1826 0.949 . S
C1832 C1836 1.368 . S
C1833 C1814 1.429 . S
C1833 C1827 1.429 . S
C1833 C1834 1.523 . S
C1834 C1815 1.368 . S
C1834 C1828 1.368 . S
C1834 C1833 1.523 . S
C1835 C1819 1.429 . S
C1835 C1831 1.429 . S
C1835 C1836 1.523 . S
C1836 C1820 1.368 . S
C1836 C1832 1.368 . S
C1836 C1835 1.523 . S
H1837 C1812 0.950 . S
H1838 C1814 0.950 . S
H1839 C1815 0.949 . S
H1840 C1817 0.950 . S
H1841 C1819 0.950 . S
C1842 C1843 1.349 . S
C1842 C1844 1.327 . S
C1842 H1867 0.950 1_455 S
C1843 C1842 1.349 . S
C1843 C1859 1.349 . S
C1844 C1842 1.327 . S
C1844 C1863 1.429 . S
C1844 H1868 0.950 1_455 S
C1845 C1862 1.574 . S
C1845 C1864 1.368 . S
C1845 H1869 0.949 . S
H1846 C1850 0.949 1_655 S
C1847 C1848 1.349 . S
C1847 C1849 1.327 . S
C1847 H1870 0.950 . S
C1848 C1847 1.349 . S
C1848 C1860 1.349 . S
C1849 C1847 1.327 . S
C1849 C1865 1.429 . S
C1849 H1871 0.950 . S
C1850 H1846 0.949 1_455 S
C1850 C1858 1.574 . S
C1850 C1866 1.368 . S
H1851 C1859 0.950 . S
H1852 C1857 0.950 . S
H1853 C1858 0.949 1_655 S
H1854 C1860 0.950 . S
H1855 C1861 0.950 1_655 S
H1856 C1862 0.949 . S
C1857 H1852 0.950 . S
C1857 C1859 1.327 . S
C1857 C1863 1.429 . S
C1858 C1850 1.574 . S
C1858 H1853 0.949 1_455 S
C1858 C1864 1.368 . S
C1859 C1843 1.349 . S
C1859 H1851 0.950 . S
C1859 C1857 1.327 . S
C1860 C1848 1.349 . S
C1860 H1854 0.950 . S
C1860 C1861 1.327 . S
C1861 H1855 0.950 1_455 S
C1861 C1860 1.327 . S
C1861 C1865 1.429 . S
C1862 C1845 1.574 . S
C1862 H1856 0.949 . S
C1862 C1866 1.368 . S
C1863 C1844 1.429 . S
C1863 C1857 1.429 . S
C1863 C1864 1.523 . S
C1864 C1845 1.368 . S
C1864 C1858 1.368 . S
C1864 C1863 1.523 . S
C1865 C1849 1.429 . S
C1865 C1861 1.429 . S
C1865 C1866 1.523 . S
C1866 C1850 1.368 . S
C1866 C1862 1.368 . S
C1866 C1865 1.523 . S
H1867 C1842 0.950 1_655 S
H1868 C1844 0.950 1_655 S
H1869 C1845 0.949 . S
H1870 C1847 0.950 . S
H1871 C1849 0.950 . S
C1872 C1873 1.349 . S
C1872 C1874 1.327 . S
C1872 H1897 0.950 . S
C1873 C1872 1.349 . S
C1873 C1889 1.349 . S
C1874 C1872 1.327 . S
C1874 C1893 1.429 . S
C1874 H1898 0.950 . S
C1875 C1892 1.574 . S
C1875 C1894 1.368 . S
C1875 H1899 0.949 . S
H1876 C1880 0.949 . S
C1877 C1878 1.349 . S
C1877 C1879 1.327 . S
C1877 H1900 0.950 . S
C1878 C1877 1.349 . S
C1878 C1890 1.349 . S
C1879 C1877 1.327 . S
C1879 C1895 1.429 . S
C1879 H1901 0.950 . S
C1880 H1876 0.949 . S
C1880 C1888 1.574 . S
C1880 C1896 1.368 . S
H1881 C1889 0.950 . S
H1882 C1887 0.950 . S
H1883 C1888 0.949 . S
H1884 C1890 0.950 . S
H1885 C1891 0.950 . S
H1886 C1892 0.949 . S
C1887 H1882 0.950 . S
C1887 C1889 1.327 . S
C1887 C1893 1.429 . S
C1888 C1880 1.574 . S
C1888 H1883 0.949 . S
C1888 C1894 1.368 . S
C1889 C1873 1.349 . S
C1889 H1881 0.950 . S
C1889 C1887 1.327 . S
C1890 C1878 1.349 . S
C1890 H1884 0.950 . S
C1890 C1891 1.327 . S
C1891 H1885 0.950 . S
C1891 C1890 1.327 . S
C1891 C1895 1.429 . S
C1892 C1875 1.574 . S
C1892 H1886 0.949 . S
C1892 C1896 1.368 . S
C1893 C1874 1.429 . S
C1893 C1887 1.429 . S
C1893 C1894 1.523 . S
C1894 C1875 1.368 . S
C1894 C1888 1.368 . S
C1894 C1893 1.523 . S
C1895 C1879 1.429 . S
C1895 C1891 1.429 . S
C1895 C1896 1.523 . S
C1896 C1880 1.368 . S
C1896 C1892 1.368 . S
C1896 C1895 1.523 . S
H1897 C1872 0.950 . S
H1898 C1874 0.950 . S
H1899 C1875 0.949 . S
H1900 C1877 0.950 . S
H1901 C1879 0.950 . S
C1902 C1903 1.349 . S
C1902 C1904 1.327 . S
C1902 H1927 0.950 . S
C1903 C1902 1.349 . S
C1903 C1919 1.349 . S
C1904 C1902 1.327 . S
C1904 C1923 1.429 . S
C1904 H1928 0.950 . S
C1905 C1922 1.574 . S
C1905 C1924 1.368 . S
C1905 H1929 0.949 . S
H1906 C1910 0.949 . S
C1907 C1908 1.349 . S
C1907 C1909 1.327 . S
C1907 H1930 0.950 . S
C1908 C1907 1.349 . S
C1908 C1920 1.349 . S
C1909 C1907 1.327 . S
C1909 C1925 1.429 . S
C1909 H1931 0.950 . S
C1910 H1906 0.949 . S
C1910 C1918 1.574 . S
C1910 C1926 1.368 . S
H1911 C1919 0.950 . S
H1912 C1917 0.950 . S
H1913 C1918 0.949 . S
H1914 C1920 0.950 . S
H1915 C1921 0.950 . S
H1916 C1922 0.949 . S
C1917 H1912 0.950 . S
C1917 C1919 1.327 . S
C1917 C1923 1.429 . S
C1918 C1910 1.574 . S
C1918 H1913 0.949 . S
C1918 C1924 1.368 . S
C1919 C1903 1.349 . S
C1919 H1911 0.950 . S
C1919 C1917 1.327 . S
C1920 C1908 1.349 . S
C1920 H1914 0.950 . S
C1920 C1921 1.327 . S
C1921 H1915 0.950 . S
C1921 C1920 1.327 . S
C1921 C1925 1.429 . S
C1922 C1905 1.574 . S
C1922 H1916 0.949 . S
C1922 C1926 1.368 . S
C1923 C1904 1.429 . S
C1923 C1917 1.429 . S
C1923 C1924 1.523 . S
C1924 C1905 1.368 . S
C1924 C1918 1.368 . S
C1924 C1923 1.523 . S
C1925 C1909 1.429 . S
C1925 C1921 1.429 . S
C1925 C1926 1.523 . S
C1926 C1910 1.368 . S
C1926 C1922 1.368 . S
C1926 C1925 1.523 . S
H1927 C1902 0.950 . S
H1928 C1904 0.950 . S
H1929 C1905 0.949 . S
H1930 C1907 0.950 . S
H1931 C1909 0.950 . S
C1932 C1933 1.349 . S
C1932 C1934 1.327 . S
C1932 H1957 0.950 . S
C1933 C1932 1.349 . S
C1933 C1949 1.349 . S
C1934 C1932 1.327 . S
C1934 C1953 1.429 . S
C1934 H1958 0.950 . S
C1935 C1952 1.574 . S
C1935 C1954 1.368 . S
C1935 H1959 0.949 . S
H1936 C1940 0.949 . S
C1937 C1938 1.349 . S
C1937 C1939 1.327 . S
C1937 H1960 0.950 . S
C1938 C1937 1.349 . S
C1938 C1950 1.349 . S
C1939 C1937 1.327 . S
C1939 C1955 1.429 . S
C1939 H1961 0.950 . S
C1940 H1936 0.949 . S
C1940 C1948 1.574 . S
C1940 C1956 1.368 . S
H1941 C1949 0.950 . S
H1942 C1947 0.950 . S
H1943 C1948 0.949 . S
H1944 C1950 0.950 . S
H1945 C1951 0.950 . S
H1946 C1952 0.949 . S
C1947 H1942 0.950 . S
C1947 C1949 1.327 . S
C1947 C1953 1.429 . S
C1948 C1940 1.574 . S
C1948 H1943 0.949 . S
C1948 C1954 1.368 . S
C1949 C1933 1.349 . S
C1949 H1941 0.950 . S
C1949 C1947 1.327 . S
C1950 C1938 1.349 . S
C1950 H1944 0.950 . S
C1950 C1951 1.327 . S
C1951 H1945 0.950 . S
C1951 C1950 1.327 . S
C1951 C1955 1.429 . S
C1952 C1935 1.574 . S
C1952 H1946 0.949 . S
C1952 C1956 1.368 . S
C1953 C1934 1.429 . S
C1953 C1947 1.429 . S
C1953 C1954 1.523 . S
C1954 C1935 1.368 . S
C1954 C1948 1.368 . S
C1954 C1953 1.523 . S
C1955 C1939 1.429 . S
C1955 C1951 1.429 . S
C1955 C1956 1.523 . S
C1956 C1940 1.368 . S
C1956 C1952 1.368 . S
C1956 C1955 1.523 . S
H1957 C1932 0.950 . S
H1958 C1934 0.950 . S
H1959 C1935 0.949 . S
H1960 C1937 0.950 . S
H1961 C1939 0.950 . S
C1962 C1963 1.349 . S
C1962 C1964 1.327 . S
C1962 H1987 0.950 . S
C1963 C1962 1.349 . S
C1963 C1979 1.349 . S
C1964 C1962 1.327 . S
C1964 C1983 1.429 . S
C1964 H1988 0.950 . S
C1965 C1982 1.574 . S
C1965 C1984 1.368 . S
C1965 H1989 0.949 . S
H1966 C1970 0.949 . S
C1967 C1968 1.349 . S
C1967 C1969 1.327 . S
C1967 H1990 0.950 . S
C1968 C1967 1.349 . S
C1968 C1980 1.349 . S
C1969 C1967 1.327 . S
C1969 C1985 1.429 . S
C1969 H1991 0.950 . S
C1970 H1966 0.949 . S
C1970 C1978 1.574 . S
C1970 C1986 1.368 . S
H1971 C1979 0.950 . S
H1972 C1977 0.950 . S
H1973 C1978 0.949 . S
H1974 C1980 0.950 . S
H1975 C1981 0.950 . S
H1976 C1982 0.949 . S
C1977 H1972 0.950 . S
C1977 C1979 1.327 . S
C1977 C1983 1.429 . S
C1978 C1970 1.574 . S
C1978 H1973 0.949 . S
C1978 C1984 1.368 . S
C1979 C1963 1.349 . S
C1979 H1971 0.950 . S
C1979 C1977 1.327 . S
C1980 C1968 1.349 . S
C1980 H1974 0.950 . S
C1980 C1981 1.327 . S
C1981 H1975 0.950 . S
C1981 C1980 1.327 . S
C1981 C1985 1.429 . S
C1982 C1965 1.574 . S
C1982 H1976 0.949 . S
C1982 C1986 1.368 . S
C1983 C1964 1.429 . S
C1983 C1977 1.429 . S
C1983 C1984 1.523 . S
C1984 C1965 1.368 . S
C1984 C1978 1.368 . S
C1984 C1983 1.523 . S
C1985 C1969 1.429 . S
C1985 C1981 1.429 . S
C1985 C1986 1.523 . S
C1986 C1970 1.368 . S
C1986 C1982 1.368 . S
C1986 C1985 1.523 . S
H1987 C1962 0.950 . S
H1988 C1964 0.950 . S
H1989 C1965 0.949 . S
H1990 C1967 0.950 . S
H1991 C1969 0.950 . S
C1992 C1993 1.349 . S
C1992 C1994 1.327 . S
C1992 H2017 0.950 . S
C1993 C1992 1.349 . S
C1993 C2009 1.349 . S
C1994 C1992 1.327 . S
C1994 C2013 1.429 . S
C1994 H2018 0.950 . S
C1995 C2012 1.574 . S
C1995 C2014 1.368 . S
C1995 H2019 0.949 . S
H1996 C2000 0.949 . S
C1997 C1998 1.349 . S
C1997 C1999 1.327 . S
C1997 H2020 0.950 . S
C1998 C1997 1.349 . S
C1998 C2010 1.349 . S
C1999 C1997 1.327 . S
C1999 C2015 1.429 . S
C1999 H2021 0.950 . S
C2000 H1996 0.949 . S
C2000 C2008 1.574 . S
C2000 C2016 1.368 . S
H2001 C2009 0.950 . S
H2002 C2007 0.950 . S
H2003 C2008 0.949 . S
H2004 C2010 0.950 . S
H2005 C2011 0.950 . S
H2006 C2012 0.949 . S
C2007 H2002 0.950 . S
C2007 C2009 1.327 . S
C2007 C2013 1.429 . S
C2008 C2000 1.574 . S
C2008 H2003 0.949 . S
C2008 C2014 1.368 . S
C2009 C1993 1.349 . S
C2009 H2001 0.950 . S
C2009 C2007 1.327 . S
C2010 C1998 1.349 . S
C2010 H2004 0.950 . S
C2010 C2011 1.327 . S
C2011 H2005 0.950 . S
C2011 C2010 1.327 . S
C2011 C2015 1.429 . S
C2012 C1995 1.574 . S
C2012 H2006 0.949 . S
C2012 C2016 1.368 . S
C2013 C1994 1.429 . S
C2013 C2007 1.429 . S
C2013 C2014 1.523 . S
C2014 C1995 1.368 . S
C2014 C2008 1.368 . S
C2014 C2013 1.523 . S
C2015 C1999 1.429 . S
C2015 C2011 1.429 . S
C2015 C2016 1.523 . S
C2016 C2000 1.368 . S
C2016 C2012 1.368 . S
C2016 C2015 1.523 . S
H2017 C1992 0.950 . S
H2018 C1994 0.950 . S
H2019 C1995 0.949 . S
H2020 C1997 0.950 . S
H2021 C1999 0.950 . S
C2022 C2023 1.349 . S
C2022 C2024 1.327 . S
C2022 H2047 0.950 . S
C2023 C2022 1.349 . S
C2023 C2039 1.349 . S
C2024 C2022 1.327 . S
C2024 C2043 1.429 . S
C2024 H2048 0.950 . S
C2025 C2042 1.574 . S
C2025 C2044 1.368 . S
C2025 H2049 0.949 . S
H2026 C2030 0.949 . S
C2027 C2028 1.349 . S
C2027 C2029 1.327 . S
C2027 H2050 0.950 . S
C2028 C2027 1.349 . S
C2028 C2040 1.349 . S
C2029 C2027 1.327 . S
C2029 C2045 1.429 . S
C2029 H2051 0.950 . S
C2030 H2026 0.949 . S
C2030 C2038 1.574 . S
C2030 C2046 1.368 . S
H2031 C2039 0.950 . S
H2032 C2037 0.950 . S
H2033 C2038 0.949 . S
H2034 C2040 0.950 . S
H2035 C2041 0.950 . S
H2036 C2042 0.949 . S
C2037 H2032 0.950 . S
C2037 C2039 1.327 . S
C2037 C2043 1.429 . S
C2038 C2030 1.574 . S
C2038 H2033 0.949 . S
C2038 C2044 1.368 . S
C2039 C2023 1.349 . S
C2039 H2031 0.950 . S
C2039 C2037 1.327 . S
C2040 C2028 1.349 . S
C2040 H2034 0.950 . S
C2040 C2041 1.327 . S
C2041 H2035 0.950 . S
C2041 C2040 1.327 . S
C2041 C2045 1.429 . S
C2042 C2025 1.574 . S
C2042 H2036 0.949 . S
C2042 C2046 1.368 . S
C2043 C2024 1.429 . S
C2043 C2037 1.429 . S
C2043 C2044 1.523 . S
C2044 C2025 1.368 . S
C2044 C2038 1.368 . S
C2044 C2043 1.523 . S
C2045 C2029 1.429 . S
C2045 C2041 1.429 . S
C2045 C2046 1.523 . S
C2046 C2030 1.368 . S
C2046 C2042 1.368 . S
C2046 C2045 1.523 . S
H2047 C2022 0.950 . S
H2048 C2024 0.950 . S
H2049 C2025 0.949 . S
H2050 C2027 0.950 . S
H2051 C2029 0.950 . S
C2052 C2053 1.349 . S
C2052 C2054 1.327 . S
C2052 H2077 0.950 . S
C2053 C2052 1.349 . S
C2053 C2069 1.349 . S
C2054 C2052 1.327 . S
C2054 C2073 1.429 . S
C2054 H2078 0.950 . S
C2055 C2072 1.574 . S
C2055 C2074 1.368 . S
C2055 H2079 0.949 . S
H2056 C2060 0.949 . S
C2057 C2058 1.349 . S
C2057 C2059 1.327 . S
C2057 H2080 0.950 . S
C2058 C2057 1.349 . S
C2058 C2070 1.349 . S
C2059 C2057 1.327 . S
C2059 C2075 1.429 . S
C2059 H2081 0.950 . S
C2060 H2056 0.949 . S
C2060 C2068 1.574 . S
C2060 C2076 1.368 . S
H2061 C2069 0.950 . S
H2062 C2067 0.950 . S
H2063 C2068 0.949 . S
H2064 C2070 0.950 . S
H2065 C2071 0.950 . S
H2066 C2072 0.949 . S
C2067 H2062 0.950 . S
C2067 C2069 1.327 . S
C2067 C2073 1.429 . S
C2068 C2060 1.574 . S
C2068 H2063 0.949 . S
C2068 C2074 1.368 . S
C2069 C2053 1.349 . S
C2069 H2061 0.950 . S
C2069 C2067 1.327 . S
C2070 C2058 1.349 . S
C2070 H2064 0.950 . S
C2070 C2071 1.327 . S
C2071 H2065 0.950 . S
C2071 C2070 1.327 . S
C2071 C2075 1.429 . S
C2072 C2055 1.574 . S
C2072 H2066 0.949 . S
C2072 C2076 1.368 . S
C2073 C2054 1.429 . S
C2073 C2067 1.429 . S
C2073 C2074 1.523 . S
C2074 C2055 1.368 . S
C2074 C2068 1.368 . S
C2074 C2073 1.523 . S
C2075 C2059 1.429 . S
C2075 C2071 1.429 . S
C2075 C2076 1.523 . S
C2076 C2060 1.368 . S
C2076 C2072 1.368 . S
C2076 C2075 1.523 . S
H2077 C2052 0.950 . S
H2078 C2054 0.950 . S
H2079 C2055 0.949 . S
H2080 C2057 0.950 . S
H2081 C2059 0.950 . S
C2082 C2083 1.349 . S
C2082 C2084 1.327 . S
C2082 H2107 0.950 . S
C2083 C2082 1.349 . S
C2083 C2099 1.349 . S
C2084 C2082 1.327 . S
C2084 C2103 1.429 . S
C2084 H2108 0.950 . S
C2085 C2102 1.574 . S
C2085 C2104 1.368 . S
C2085 H2109 0.949 . S
H2086 C2090 0.949 . S
C2087 C2088 1.349 . S
C2087 C2089 1.327 . S
C2087 H2110 0.950 . S
C2088 C2087 1.349 . S
C2088 C2100 1.349 . S
C2089 C2087 1.327 . S
C2089 C2105 1.429 . S
C2089 H2111 0.950 . S
C2090 H2086 0.949 . S
C2090 C2098 1.574 . S
C2090 C2106 1.368 . S
H2091 C2099 0.950 . S
H2092 C2097 0.950 . S
H2093 C2098 0.949 . S
H2094 C2100 0.950 . S
H2095 C2101 0.950 . S
H2096 C2102 0.949 . S
C2097 H2092 0.950 . S
C2097 C2099 1.327 . S
C2097 C2103 1.429 . S
C2098 C2090 1.574 . S
C2098 H2093 0.949 . S
C2098 C2104 1.368 . S
C2099 C2083 1.349 . S
C2099 H2091 0.950 . S
C2099 C2097 1.327 . S
C2100 C2088 1.349 . S
C2100 H2094 0.950 . S
C2100 C2101 1.327 . S
C2101 H2095 0.950 . S
C2101 C2100 1.327 . S
C2101 C2105 1.429 . S
C2102 C2085 1.574 . S
C2102 H2096 0.949 . S
C2102 C2106 1.368 . S
C2103 C2084 1.429 . S
C2103 C2097 1.429 . S
C2103 C2104 1.523 . S
C2104 C2085 1.368 . S
C2104 C2098 1.368 . S
C2104 C2103 1.523 . S
C2105 C2089 1.429 . S
C2105 C2101 1.429 . S
C2105 C2106 1.523 . S
C2106 C2090 1.368 . S
C2106 C2102 1.368 . S
C2106 C2105 1.523 . S
H2107 C2082 0.950 . S
H2108 C2084 0.950 . S
H2109 C2085 0.949 . S
H2110 C2087 0.950 . S
H2111 C2089 0.950 . S
C2112 C2113 1.349 . S
C2112 C2114 1.327 . S
C2112 H2137 0.950 . S
C2113 C2112 1.349 . S
C2113 C2129 1.349 . S
C2114 C2112 1.327 . S
C2114 C2133 1.429 . S
C2114 H2138 0.950 . S
C2115 C2132 1.574 . S
C2115 C2134 1.368 . S
C2115 H2139 0.949 . S
H2116 C2120 0.949 . S
C2117 C2118 1.349 . S
C2117 C2119 1.327 . S
C2117 H2140 0.950 . S
C2118 C2117 1.349 . S
C2118 C2130 1.349 . S
C2119 C2117 1.327 . S
C2119 C2135 1.429 . S
C2119 H2141 0.950 . S
C2120 H2116 0.949 . S
C2120 C2128 1.574 . S
C2120 C2136 1.368 . S
H2121 C2129 0.950 . S
H2122 C2127 0.950 . S
H2123 C2128 0.949 . S
H2124 C2130 0.950 . S
H2125 C2131 0.950 . S
H2126 C2132 0.949 . S
C2127 H2122 0.950 . S
C2127 C2129 1.327 . S
C2127 C2133 1.429 . S
C2128 C2120 1.574 . S
C2128 H2123 0.949 . S
C2128 C2134 1.368 . S
C2129 C2113 1.349 . S
C2129 H2121 0.950 . S
C2129 C2127 1.327 . S
C2130 C2118 1.349 . S
C2130 H2124 0.950 . S
C2130 C2131 1.327 . S
C2131 H2125 0.950 . S
C2131 C2130 1.327 . S
C2131 C2135 1.429 . S
C2132 C2115 1.574 . S
C2132 H2126 0.949 . S
C2132 C2136 1.368 . S
C2133 C2114 1.429 . S
C2133 C2127 1.429 . S
C2133 C2134 1.523 . S
C2134 C2115 1.368 . S
C2134 C2128 1.368 . S
C2134 C2133 1.523 . S
C2135 C2119 1.429 . S
C2135 C2131 1.429 . S
C2135 C2136 1.523 . S
C2136 C2120 1.368 . S
C2136 C2132 1.368 . S
C2136 C2135 1.523 . S
H2137 C2112 0.950 . S
H2138 C2114 0.950 . S
H2139 C2115 0.949 . S
H2140 C2117 0.950 . S
H2141 C2119 0.950 . S
C2142 C2143 1.349 . S
C2142 C2144 1.327 . S
C2142 H2167 0.950 . S
C2143 C2142 1.349 . S
C2143 C2159 1.349 . S
C2144 C2142 1.327 . S
C2144 C2163 1.429 . S
C2144 H2168 0.950 . S
C2145 C2162 1.574 . S
C2145 C2164 1.368 . S
C2145 H2169 0.949 . S
H2146 C2150 0.949 . S
C2147 C2148 1.349 . S
C2147 C2149 1.327 . S
C2147 H2170 0.950 . S
C2148 C2147 1.349 . S
C2148 C2160 1.349 . S
C2149 C2147 1.327 . S
C2149 C2165 1.429 . S
C2149 H2171 0.950 . S
C2150 H2146 0.949 . S
C2150 C2158 1.574 . S
C2150 C2166 1.368 . S
H2151 C2159 0.950 . S
H2152 C2157 0.950 . S
H2153 C2158 0.949 . S
H2154 C2160 0.950 . S
H2155 C2161 0.950 . S
H2156 C2162 0.949 . S
C2157 H2152 0.950 . S
C2157 C2159 1.327 . S
C2157 C2163 1.429 . S
C2158 C2150 1.574 . S
C2158 H2153 0.949 . S
C2158 C2164 1.368 . S
C2159 C2143 1.349 . S
C2159 H2151 0.950 . S
C2159 C2157 1.327 . S
C2160 C2148 1.349 . S
C2160 H2154 0.950 . S
C2160 C2161 1.327 . S
C2161 H2155 0.950 . S
C2161 C2160 1.327 . S
C2161 C2165 1.429 . S
C2162 C2145 1.574 . S
C2162 H2156 0.949 . S
C2162 C2166 1.368 . S
C2163 C2144 1.429 . S
C2163 C2157 1.429 . S
C2163 C2164 1.523 . S
C2164 C2145 1.368 . S
C2164 C2158 1.368 . S
C2164 C2163 1.523 . S
C2165 C2149 1.429 . S
C2165 C2161 1.429 . S
C2165 C2166 1.523 . S
C2166 C2150 1.368 . S
C2166 C2162 1.368 . S
C2166 C2165 1.523 . S
H2167 C2142 0.950 . S
H2168 C2144 0.950 . S
H2169 C2145 0.949 . S
H2170 C2147 0.950 . S
H2171 C2149 0.950 . S
C2172 C2173 1.349 . S
C2172 C2174 1.327 . S
C2172 H2197 0.950 . S
C2173 C2172 1.349 . S
C2173 C2189 1.349 . S
C2174 C2172 1.327 . S
C2174 C2193 1.429 . S
C2174 H2198 0.950 . S
C2175 C2192 1.574 . S
C2175 C2194 1.368 . S
C2175 H2199 0.949 . S
H2176 C2180 0.949 . S
C2177 C2178 1.349 . S
C2177 C2179 1.327 . S
C2177 H2200 0.950 . S
C2178 C2177 1.349 . S
C2178 C2190 1.349 . S
C2179 C2177 1.327 . S
C2179 C2195 1.429 . S
C2179 H2201 0.950 . S
C2180 H2176 0.949 . S
C2180 C2188 1.574 . S
C2180 C2196 1.368 . S
H2181 C2189 0.950 . S
H2182 C2187 0.950 . S
H2183 C2188 0.949 . S
H2184 C2190 0.950 . S
H2185 C2191 0.950 . S
H2186 C2192 0.949 . S
C2187 H2182 0.950 . S
C2187 C2189 1.327 . S
C2187 C2193 1.429 . S
C2188 C2180 1.574 . S
C2188 H2183 0.949 . S
C2188 C2194 1.368 . S
C2189 C2173 1.349 . S
C2189 H2181 0.950 . S
C2189 C2187 1.327 . S
C2190 C2178 1.349 . S
C2190 H2184 0.950 . S
C2190 C2191 1.327 . S
C2191 H2185 0.950 . S
C2191 C2190 1.327 . S
C2191 C2195 1.429 . S
C2192 C2175 1.574 . S
C2192 H2186 0.949 . S
C2192 C2196 1.368 . S
C2193 C2174 1.429 . S
C2193 C2187 1.429 . S
C2193 C2194 1.523 . S
C2194 C2175 1.368 . S
C2194 C2188 1.368 . S
C2194 C2193 1.523 . S
C2195 C2179 1.429 . S
C2195 C2191 1.429 . S
C2195 C2196 1.523 . S
C2196 C2180 1.368 . S
C2196 C2192 1.368 . S
C2196 C2195 1.523 . S
H2197 C2172 0.950 . S
H2198 C2174 0.950 . S
H2199 C2175 0.949 . S
H2200 C2177 0.950 . S
H2201 C2179 0.950 . S
C2202 C2203 1.349 . S
C2202 C2204 1.327 . S
C2202 H2227 0.950 . S
C2203 C2202 1.349 . S
C2203 C2219 1.349 . S
C2204 C2202 1.327 . S
C2204 C2223 1.429 . S
C2204 H2228 0.950 . S
C2205 C2222 1.574 . S
C2205 C2224 1.368 . S
C2205 H2229 0.949 . S
H2206 C2210 0.949 . S
C2207 C2208 1.349 . S
C2207 C2209 1.327 . S
C2207 H2230 0.950 . S
C2208 C2207 1.349 . S
C2208 C2220 1.349 . S
C2209 C2207 1.327 . S
C2209 C2225 1.429 . S
C2209 H2231 0.950 . S
C2210 H2206 0.949 . S
C2210 C2218 1.574 . S
C2210 C2226 1.368 . S
H2211 C2219 0.950 . S
H2212 C2217 0.950 . S
H2213 C2218 0.949 . S
H2214 C2220 0.950 . S
H2215 C2221 0.950 . S
H2216 C2222 0.949 . S
C2217 H2212 0.950 . S
C2217 C2219 1.327 . S
C2217 C2223 1.429 . S
C2218 C2210 1.574 . S
C2218 H2213 0.949 . S
C2218 C2224 1.368 . S
C2219 C2203 1.349 . S
C2219 H2211 0.950 . S
C2219 C2217 1.327 . S
C2220 C2208 1.349 . S
C2220 H2214 0.950 . S
C2220 C2221 1.327 . S
C2221 H2215 0.950 . S
C2221 C2220 1.327 . S
C2221 C2225 1.429 . S
C2222 C2205 1.574 . S
C2222 H2216 0.949 . S
C2222 C2226 1.368 . S
C2223 C2204 1.429 . S
C2223 C2217 1.429 . S
C2223 C2224 1.523 . S
C2224 C2205 1.368 . S
C2224 C2218 1.368 . S
C2224 C2223 1.523 . S
C2225 C2209 1.429 . S
C2225 C2221 1.429 . S
C2225 C2226 1.523 . S
C2226 C2210 1.368 . S
C2226 C2222 1.368 . S
C2226 C2225 1.523 . S
H2227 C2202 0.950 . S
H2228 C2204 0.950 . S
H2229 C2205 0.949 . S
H2230 C2207 0.950 . S
H2231 C2209 0.950 . S
C2232 C2233 1.349 . S
C2232 C2234 1.327 . S
C2232 H2257 0.950 . S
C2233 C2232 1.349 . S
C2233 C2249 1.349 . S
C2234 C2232 1.327 . S
C2234 C2253 1.429 . S
C2234 H2258 0.950 . S
C2235 C2252 1.574 . S
C2235 C2254 1.368 . S
C2235 H2259 0.949 . S
H2236 C2240 0.949 . S
C2237 C2238 1.349 . S
C2237 C2239 1.327 . S
C2237 H2260 0.950 . S
C2238 C2237 1.349 . S
C2238 C2250 1.349 . S
C2239 C2237 1.327 . S
C2239 C2255 1.429 . S
C2239 H2261 0.950 . S
C2240 H2236 0.949 . S
C2240 C2248 1.574 . S
C2240 C2256 1.368 . S
H2241 C2249 0.950 . S
H2242 C2247 0.950 . S
H2243 C2248 0.949 . S
H2244 C2250 0.950 . S
H2245 C2251 0.950 . S
H2246 C2252 0.949 . S
C2247 H2242 0.950 . S
C2247 C2249 1.327 . S
C2247 C2253 1.429 . S
C2248 C2240 1.574 . S
C2248 H2243 0.949 . S
C2248 C2254 1.368 . S
C2249 C2233 1.349 . S
C2249 H2241 0.950 . S
C2249 C2247 1.327 . S
C2250 C2238 1.349 . S
C2250 H2244 0.950 . S
C2250 C2251 1.327 . S
C2251 H2245 0.950 . S
C2251 C2250 1.327 . S
C2251 C2255 1.429 . S
C2252 C2235 1.574 . S
C2252 H2246 0.949 . S
C2252 C2256 1.368 . S
C2253 C2234 1.429 . S
C2253 C2247 1.429 . S
C2253 C2254 1.523 . S
C2254 C2235 1.368 . S
C2254 C2248 1.368 . S
C2254 C2253 1.523 . S
C2255 C2239 1.429 . S
C2255 C2251 1.429 . S
C2255 C2256 1.523 . S
C2256 C2240 1.368 . S
C2256 C2252 1.368 . S
C2256 C2255 1.523 . S
H2257 C2232 0.950 . S
H2258 C2234 0.950 . S
H2259 C2235 0.949 . S
H2260 C2237 0.950 . S
H2261 C2239 0.950 . S
C2262 C2263 1.349 . S
C2262 C2264 1.327 . S
C2262 H2287 0.950 . S
C2263 C2262 1.349 . S
C2263 C2279 1.349 . S
C2264 C2262 1.327 . S
C2264 C2283 1.429 . S
C2264 H2288 0.950 . S
C2265 C2282 1.574 . S
C2265 C2284 1.368 . S
C2265 H2289 0.949 . S
H2266 C2270 0.949 . S
C2267 C2268 1.349 . S
C2267 C2269 1.327 . S
C2267 H2290 0.950 . S
C2268 C2267 1.349 . S
C2268 C2280 1.349 . S
C2269 C2267 1.327 . S
C2269 C2285 1.429 . S
C2269 H2291 0.950 . S
C2270 H2266 0.949 . S
C2270 C2278 1.574 . S
C2270 C2286 1.368 . S
H2271 C2279 0.950 . S
H2272 C2277 0.950 . S
H2273 C2278 0.949 . S
H2274 C2280 0.950 1_554 S
H2275 C2281 0.950 . S
H2276 C2282 0.949 . S
C2277 H2272 0.950 . S
C2277 C2279 1.327 . S
C2277 C2283 1.429 . S
C2278 C2270 1.574 . S
C2278 H2273 0.949 . S
C2278 C2284 1.368 . S
C2279 C2263 1.349 . S
C2279 H2271 0.950 . S
C2279 C2277 1.327 . S
C2280 C2268 1.349 . S
C2280 H2274 0.950 1_556 S
C2280 C2281 1.327 . S
C2281 H2275 0.950 . S
C2281 C2280 1.327 . S
C2281 C2285 1.429 . S
C2282 C2265 1.574 . S
C2282 H2276 0.949 . S
C2282 C2286 1.368 . S
C2283 C2264 1.429 . S
C2283 C2277 1.429 . S
C2283 C2284 1.523 . S
C2284 C2265 1.368 . S
C2284 C2278 1.368 . S
C2284 C2283 1.523 . S
C2285 C2269 1.429 . S
C2285 C2281 1.429 . S
C2285 C2286 1.523 . S
C2286 C2270 1.368 . S
C2286 C2282 1.368 . S
C2286 C2285 1.523 . S
H2287 C2262 0.950 . S
H2288 C2264 0.950 . S
H2289 C2265 0.949 . S
H2290 C2267 0.950 . S
H2291 C2269 0.950 . S
C2292 C2293 1.349 . S
C2292 C2294 1.327 . S
C2292 H2317 0.950 . S
C2293 C2292 1.349 . S
C2293 C2309 1.349 . S
C2294 C2292 1.327 . S
C2294 C2313 1.429 . S
C2294 H2318 0.950 . S
C2295 C2312 1.574 . S
C2295 C2314 1.368 . S
C2295 H2319 0.949 . S
H2296 C2300 0.949 . S
C2297 C2298 1.349 . S
C2297 C2299 1.327 . S
C2297 H2320 0.950 . S
C2298 C2297 1.349 . S
C2298 C2310 1.349 . S
C2299 C2297 1.327 . S
C2299 C2315 1.429 . S
C2299 H2321 0.950 . S
C2300 H2296 0.949 . S
C2300 C2308 1.574 . S
C2300 C2316 1.368 . S
H2301 C2309 0.950 . S
H2302 C2307 0.950 . S
H2303 C2308 0.949 . S
H2304 C2310 0.950 . S
H2305 C2311 0.950 . S
H2306 C2312 0.949 . S
C2307 H2302 0.950 . S
C2307 C2309 1.327 . S
C2307 C2313 1.429 . S
C2308 C2300 1.574 . S
C2308 H2303 0.949 . S
C2308 C2314 1.368 . S
C2309 C2293 1.349 . S
C2309 H2301 0.950 . S
C2309 C2307 1.327 . S
C2310 C2298 1.349 . S
C2310 H2304 0.950 . S
C2310 C2311 1.327 . S
C2311 H2305 0.950 . S
C2311 C2310 1.327 . S
C2311 C2315 1.429 . S
C2312 C2295 1.574 . S
C2312 H2306 0.949 . S
C2312 C2316 1.368 . S
C2313 C2294 1.429 . S
C2313 C2307 1.429 . S
C2313 C2314 1.523 . S
C2314 C2295 1.368 . S
C2314 C2308 1.368 . S
C2314 C2313 1.523 . S
C2315 C2299 1.429 . S
C2315 C2311 1.429 . S
C2315 C2316 1.523 . S
C2316 C2300 1.368 . S
C2316 C2312 1.368 . S
C2316 C2315 1.523 . S
H2317 C2292 0.950 . S
H2318 C2294 0.950 . S
H2319 C2295 0.949 . S
H2320 C2297 0.950 . S
H2321 C2299 0.950 . S
C2322 C2323 1.349 . S
C2322 C2324 1.327 . S
C2322 H2347 0.950 . S
C2323 C2322 1.349 . S
C2323 C2339 1.349 . S
C2324 C2322 1.327 . S
C2324 C2343 1.429 . S
C2324 H2348 0.950 . S
C2325 C2342 1.574 . S
C2325 C2344 1.368 . S
C2325 H2349 0.949 . S
H2326 C2330 0.949 . S
C2327 C2328 1.349 . S
C2327 C2329 1.327 . S
C2327 H2350 0.950 . S
C2328 C2327 1.349 . S
C2328 C2340 1.349 . S
C2329 C2327 1.327 . S
C2329 C2345 1.429 . S
C2329 H2351 0.950 . S
C2330 H2326 0.949 . S
C2330 C2338 1.574 . S
C2330 C2346 1.368 . S
H2331 C2339 0.950 . S
H2332 C2337 0.950 . S
H2333 C2338 0.949 . S
H2334 C2340 0.950 . S
H2335 C2341 0.950 . S
H2336 C2342 0.949 . S
C2337 H2332 0.950 . S
C2337 C2339 1.327 . S
C2337 C2343 1.429 . S
C2338 C2330 1.574 . S
C2338 H2333 0.949 . S
C2338 C2344 1.368 . S
C2339 C2323 1.349 . S
C2339 H2331 0.950 . S
C2339 C2337 1.327 . S
C2340 C2328 1.349 . S
C2340 H2334 0.950 . S
C2340 C2341 1.327 . S
C2341 H2335 0.950 . S
C2341 C2340 1.327 . S
C2341 C2345 1.429 . S
C2342 C2325 1.574 . S
C2342 H2336 0.949 . S
C2342 C2346 1.368 . S
C2343 C2324 1.429 . S
C2343 C2337 1.429 . S
C2343 C2344 1.523 . S
C2344 C2325 1.368 . S
C2344 C2338 1.368 . S
C2344 C2343 1.523 . S
C2345 C2329 1.429 . S
C2345 C2341 1.429 . S
C2345 C2346 1.523 . S
C2346 C2330 1.368 . S
C2346 C2342 1.368 . S
C2346 C2345 1.523 . S
H2347 C2322 0.950 . S
H2348 C2324 0.950 . S
H2349 C2325 0.949 . S
H2350 C2327 0.950 . S
H2351 C2329 0.950 . S
C2352 C2353 1.349 . S
C2352 C2354 1.327 . S
C2352 H2377 0.950 . S
C2353 C2352 1.349 . S
C2353 C2369 1.349 . S
C2354 C2352 1.327 . S
C2354 C2373 1.429 . S
C2354 H2378 0.950 . S
C2355 C2372 1.574 . S
C2355 C2374 1.368 . S
C2355 H2379 0.949 . S
H2356 C2360 0.949 . S
C2357 C2358 1.349 . S
C2357 C2359 1.327 . S
C2357 H2380 0.950 . S
C2358 C2357 1.349 . S
C2358 C2370 1.349 . S
C2359 C2357 1.327 . S
C2359 C2375 1.429 . S
C2359 H2381 0.950 . S
C2360 H2356 0.949 . S
C2360 C2368 1.574 . S
C2360 C2376 1.368 . S
H2361 C2369 0.950 . S
H2362 C2367 0.950 . S
H2363 C2368 0.949 . S
H2364 C2370 0.950 . S
H2365 C2371 0.950 . S
H2366 C2372 0.949 . S
C2367 H2362 0.950 . S
C2367 C2369 1.327 . S
C2367 C2373 1.429 . S
C2368 C2360 1.574 . S
C2368 H2363 0.949 . S
C2368 C2374 1.368 . S
C2369 C2353 1.349 . S
C2369 H2361 0.950 . S
C2369 C2367 1.327 . S
C2370 C2358 1.349 . S
C2370 H2364 0.950 . S
C2370 C2371 1.327 . S
C2371 H2365 0.950 . S
C2371 C2370 1.327 . S
C2371 C2375 1.429 . S
C2372 C2355 1.574 . S
C2372 H2366 0.949 . S
C2372 C2376 1.368 . S
C2373 C2354 1.429 . S
C2373 C2367 1.429 . S
C2373 C2374 1.523 . S
C2374 C2355 1.368 . S
C2374 C2368 1.368 . S
C2374 C2373 1.523 . S
C2375 C2359 1.429 . S
C2375 C2371 1.429 . S
C2375 C2376 1.523 . S
C2376 C2360 1.368 . S
C2376 C2372 1.368 . S
C2376 C2375 1.523 . S
H2377 C2352 0.950 . S
H2378 C2354 0.950 . S
H2379 C2355 0.949 . S
H2380 C2357 0.950 . S
H2381 C2359 0.950 . S
C2382 C2383 1.349 . S
C2382 C2384 1.327 . S
C2382 H2407 0.950 . S
C2383 C2382 1.349 . S
C2383 C2399 1.349 . S
C2384 C2382 1.327 . S
C2384 C2403 1.429 . S
C2384 H2408 0.950 . S
C2385 C2402 1.574 . S
C2385 C2404 1.368 . S
C2385 H2409 0.949 . S
H2386 C2390 0.949 . S
C2387 C2388 1.349 . S
C2387 C2389 1.327 . S
C2387 H2410 0.950 . S
C2388 C2387 1.349 . S
C2388 C2400 1.349 . S
C2389 C2387 1.327 . S
C2389 C2405 1.429 . S
C2389 H2411 0.950 . S
C2390 H2386 0.949 . S
C2390 C2398 1.574 . S
C2390 C2406 1.368 . S
H2391 C2399 0.950 . S
H2392 C2397 0.950 . S
H2393 C2398 0.949 . S
H2394 C2400 0.950 . S
H2395 C2401 0.950 . S
H2396 C2402 0.949 . S
C2397 H2392 0.950 . S
C2397 C2399 1.327 . S
C2397 C2403 1.429 . S
C2398 C2390 1.574 . S
C2398 H2393 0.949 . S
C2398 C2404 1.368 . S
C2399 C2383 1.349 . S
C2399 H2391 0.950 . S
C2399 C2397 1.327 . S
C2400 C2388 1.349 . S
C2400 H2394 0.950 . S
C2400 C2401 1.327 . S
C2401 H2395 0.950 . S
C2401 C2400 1.327 . S
C2401 C2405 1.429 . S
C2402 C2385 1.574 . S
C2402 H2396 0.949 . S
C2402 C2406 1.368 . S
C2403 C2384 1.429 . S
C2403 C2397 1.429 . S
C2403 C2404 1.523 . S
C2404 C2385 1.368 . S
C2404 C2398 1.368 . S
C2404 C2403 1.523 . S
C2405 C2389 1.429 . S
C2405 C2401 1.429 . S
C2405 C2406 1.523 . S
C2406 C2390 1.368 . S
C2406 C2402 1.368 . S
C2406 C2405 1.523 . S
H2407 C2382 0.950 . S
H2408 C2384 0.950 . S
H2409 C2385 0.949 . S
H2410 C2387 0.950 . S
H2411 C2389 0.950 . S
C2412 C2413 1.349 . S
C2412 C2414 1.327 . S
C2412 H2437 0.950 . S
C2413 C2412 1.349 . S
C2413 C2429 1.349 . S
C2414 C2412 1.327 . S
C2414 C2433 1.429 . S
C2414 H2438 0.950 . S
C2415 C2432 1.574 . S
C2415 C2434 1.368 . S
C2415 H2439 0.949 . S
H2416 C2420 0.949 . S
C2417 C2418 1.349 . S
C2417 C2419 1.327 . S
C2417 H2440 0.950 . S
C2418 C2417 1.349 . S
C2418 C2430 1.349 . S
C2419 C2417 1.327 . S
C2419 C2435 1.429 . S
C2419 H2441 0.950 . S
C2420 H2416 0.949 . S
C2420 C2428 1.574 . S
C2420 C2436 1.368 . S
H2421 C2429 0.950 . S
H2422 C2427 0.950 . S
H2423 C2428 0.949 . S
H2424 C2430 0.950 . S
H2425 C2431 0.950 . S
H2426 C2432 0.949 . S
C2427 H2422 0.950 . S
C2427 C2429 1.327 . S
C2427 C2433 1.429 . S
C2428 C2420 1.574 . S
C2428 H2423 0.949 . S
C2428 C2434 1.368 . S
C2429 C2413 1.349 . S
C2429 H2421 0.950 . S
C2429 C2427 1.327 . S
C2430 C2418 1.349 . S
C2430 H2424 0.950 . S
C2430 C2431 1.327 . S
C2431 H2425 0.950 . S
C2431 C2430 1.327 . S
C2431 C2435 1.429 . S
C2432 C2415 1.574 . S
C2432 H2426 0.949 . S
C2432 C2436 1.368 . S
C2433 C2414 1.429 . S
C2433 C2427 1.429 . S
C2433 C2434 1.523 . S
C2434 C2415 1.368 . S
C2434 C2428 1.368 . S
C2434 C2433 1.523 . S
C2435 C2419 1.429 . S
C2435 C2431 1.429 . S
C2435 C2436 1.523 . S
C2436 C2420 1.368 . S
C2436 C2432 1.368 . S
C2436 C2435 1.523 . S
H2437 C2412 0.950 . S
H2438 C2414 0.950 . S
H2439 C2415 0.949 . S
H2440 C2417 0.950 . S
H2441 C2419 0.950 . S
C2442 C2443 1.349 . S
C2442 C2444 1.327 . S
C2442 H2467 0.950 . S
C2443 C2442 1.349 . S
C2443 C2459 1.349 . S
C2444 C2442 1.327 . S
C2444 C2463 1.429 . S
C2444 H2468 0.950 . S
C2445 C2462 1.574 . S
C2445 C2464 1.368 . S
C2445 H2469 0.949 . S
H2446 C2450 0.949 . S
C2447 C2448 1.349 . S
C2447 C2449 1.327 . S
C2447 H2470 0.950 . S
C2448 C2447 1.349 . S
C2448 C2460 1.349 . S
C2449 C2447 1.327 . S
C2449 C2465 1.429 . S
C2449 H2471 0.950 . S
C2450 H2446 0.949 . S
C2450 C2458 1.574 . S
C2450 C2466 1.368 . S
H2451 C2459 0.950 . S
H2452 C2457 0.950 . S
H2453 C2458 0.949 . S
H2454 C2460 0.950 . S
H2455 C2461 0.950 . S
H2456 C2462 0.949 . S
C2457 H2452 0.950 . S
C2457 C2459 1.327 . S
C2457 C2463 1.429 . S
C2458 C2450 1.574 . S
C2458 H2453 0.949 . S
C2458 C2464 1.368 . S
C2459 C2443 1.349 . S
C2459 H2451 0.950 . S
C2459 C2457 1.327 . S
C2460 C2448 1.349 . S
C2460 H2454 0.950 . S
C2460 C2461 1.327 . S
C2461 H2455 0.950 . S
C2461 C2460 1.327 . S
C2461 C2465 1.429 . S
C2462 C2445 1.574 . S
C2462 H2456 0.949 . S
C2462 C2466 1.368 . S
C2463 C2444 1.429 . S
C2463 C2457 1.429 . S
C2463 C2464 1.523 . S
C2464 C2445 1.368 . S
C2464 C2458 1.368 . S
C2464 C2463 1.523 . S
C2465 C2449 1.429 . S
C2465 C2461 1.429 . S
C2465 C2466 1.523 . S
C2466 C2450 1.368 . S
C2466 C2462 1.368 . S
C2466 C2465 1.523 . S
H2467 C2442 0.950 . S
H2468 C2444 0.950 . S
H2469 C2445 0.949 . S
H2470 C2447 0.950 . S
H2471 C2449 0.950 . S
C2472 C2473 1.349 . S
C2472 C2474 1.327 . S
C2472 H2497 0.950 . S
C2473 C2472 1.349 . S
C2473 C2489 1.349 . S
C2474 C2472 1.327 . S
C2474 C2493 1.429 . S
C2474 H2498 0.950 . S
C2475 C2492 1.574 . S
C2475 C2494 1.368 . S
C2475 H2499 0.949 . S
H2476 C2480 0.949 . S
C2477 C2478 1.349 . S
C2477 C2479 1.327 . S
C2477 H2500 0.950 . S
C2478 C2477 1.349 . S
C2478 C2490 1.349 . S
C2479 C2477 1.327 . S
C2479 C2495 1.429 . S
C2479 H2501 0.950 . S
C2480 H2476 0.949 . S
C2480 C2488 1.574 . S
C2480 C2496 1.368 . S
H2481 C2489 0.950 . S
H2482 C2487 0.950 . S
H2483 C2488 0.949 . S
H2484 C2490 0.950 . S
H2485 C2491 0.950 . S
H2486 C2492 0.949 . S
C2487 H2482 0.950 . S
C2487 C2489 1.327 . S
C2487 C2493 1.429 . S
C2488 C2480 1.574 . S
C2488 H2483 0.949 . S
C2488 C2494 1.368 . S
C2489 C2473 1.349 . S
C2489 H2481 0.950 . S
C2489 C2487 1.327 . S
C2490 C2478 1.349 . S
C2490 H2484 0.950 . S
C2490 C2491 1.327 . S
C2491 H2485 0.950 . S
C2491 C2490 1.327 . S
C2491 C2495 1.429 . S
C2492 C2475 1.574 . S
C2492 H2486 0.949 . S
C2492 C2496 1.368 . S
C2493 C2474 1.429 . S
C2493 C2487 1.429 . S
C2493 C2494 1.523 . S
C2494 C2475 1.368 . S
C2494 C2488 1.368 . S
C2494 C2493 1.523 . S
C2495 C2479 1.429 . S
C2495 C2491 1.429 . S
C2495 C2496 1.523 . S
C2496 C2480 1.368 . S
C2496 C2492 1.368 . S
C2496 C2495 1.523 . S
H2497 C2472 0.950 . S
H2498 C2474 0.950 . S
H2499 C2475 0.949 . S
H2500 C2477 0.950 . S
H2501 C2479 0.950 . S
C2502 C2503 1.349 . S
C2502 C2504 1.327 . S
C2502 H2527 0.950 . S
C2503 C2502 1.349 . S
C2503 C2519 1.349 . S
C2504 C2502 1.327 . S
C2504 C2523 1.429 . S
C2504 H2528 0.950 . S
C2505 C2522 1.574 . S
C2505 C2524 1.368 . S
C2505 H2529 0.949 . S
H2506 C2510 0.949 . S
C2507 C2508 1.349 . S
C2507 C2509 1.327 . S
C2507 H2530 0.950 . S
C2508 C2507 1.349 . S
C2508 C2520 1.349 . S
C2509 C2507 1.327 . S
C2509 C2525 1.429 . S
C2509 H2531 0.950 . S
C2510 H2506 0.949 . S
C2510 C2518 1.574 . S
C2510 C2526 1.368 . S
H2511 C2519 0.950 . S
H2512 C2517 0.950 . S
H2513 C2518 0.949 . S
H2514 C2520 0.950 . S
H2515 C2521 0.950 . S
H2516 C2522 0.949 . S
C2517 H2512 0.950 . S
C2517 C2519 1.327 . S
C2517 C2523 1.429 . S
C2518 C2510 1.574 . S
C2518 H2513 0.949 . S
C2518 C2524 1.368 . S
C2519 C2503 1.349 . S
C2519 H2511 0.950 . S
C2519 C2517 1.327 . S
C2520 C2508 1.349 . S
C2520 H2514 0.950 . S
C2520 C2521 1.327 . S
C2521 H2515 0.950 . S
C2521 C2520 1.327 . S
C2521 C2525 1.429 . S
C2522 C2505 1.574 . S
C2522 H2516 0.949 . S
C2522 C2526 1.368 . S
C2523 C2504 1.429 . S
C2523 C2517 1.429 . S
C2523 C2524 1.523 . S
C2524 C2505 1.368 . S
C2524 C2518 1.368 . S
C2524 C2523 1.523 . S
C2525 C2509 1.429 . S
C2525 C2521 1.429 . S
C2525 C2526 1.523 . S
C2526 C2510 1.368 . S
C2526 C2522 1.368 . S
C2526 C2525 1.523 . S
H2527 C2502 0.950 . S
H2528 C2504 0.950 . S
H2529 C2505 0.949 . S
H2530 C2507 0.950 . S
H2531 C2509 0.950 . S
C2532 C2533 1.349 . S
C2532 C2534 1.327 . S
C2532 H2557 0.950 . S
C2533 C2532 1.349 . S
C2533 C2549 1.349 . S
C2534 C2532 1.327 . S
C2534 C2553 1.429 . S
C2534 H2558 0.950 . S
C2535 C2552 1.574 . S
C2535 C2554 1.368 . S
C2535 H2559 0.949 . S
H2536 C2540 0.949 . S
C2537 C2538 1.349 . S
C2537 C2539 1.327 . S
C2537 H2560 0.950 . S
C2538 C2537 1.349 . S
C2538 C2550 1.349 . S
C2539 C2537 1.327 . S
C2539 C2555 1.429 . S
C2539 H2561 0.950 . S
C2540 H2536 0.949 . S
C2540 C2548 1.574 . S
C2540 C2556 1.368 . S
H2541 C2549 0.950 . S
H2542 C2547 0.950 . S
H2543 C2548 0.949 . S
H2544 C2550 0.950 . S
H2545 C2551 0.950 . S
H2546 C2552 0.949 . S
C2547 H2542 0.950 . S
C2547 C2549 1.327 . S
C2547 C2553 1.429 . S
C2548 C2540 1.574 . S
C2548 H2543 0.949 . S
C2548 C2554 1.368 . S
C2549 C2533 1.349 . S
C2549 H2541 0.950 . S
C2549 C2547 1.327 . S
C2550 C2538 1.349 . S
C2550 H2544 0.950 . S
C2550 C2551 1.327 . S
C2551 H2545 0.950 . S
C2551 C2550 1.327 . S
C2551 C2555 1.429 . S
C2552 C2535 1.574 . S
C2552 H2546 0.949 . S
C2552 C2556 1.368 . S
C2553 C2534 1.429 . S
C2553 C2547 1.429 . S
C2553 C2554 1.523 . S
C2554 C2535 1.368 . S
C2554 C2548 1.368 . S
C2554 C2553 1.523 . S
C2555 C2539 1.429 . S
C2555 C2551 1.429 . S
C2555 C2556 1.523 . S
C2556 C2540 1.368 . S
C2556 C2552 1.368 . S
C2556 C2555 1.523 . S
H2557 C2532 0.950 . S
H2558 C2534 0.950 . S
H2559 C2535 0.949 . S
H2560 C2537 0.950 . S
H2561 C2539 0.950 . S
C2562 C2563 1.349 . S
C2562 C2564 1.327 . S
C2562 H2587 0.950 . S
C2563 C2562 1.349 . S
C2563 C2579 1.349 . S
C2564 C2562 1.327 . S
C2564 C2583 1.429 . S
C2564 H2588 0.950 . S
C2565 C2582 1.574 . S
C2565 C2584 1.368 . S
C2565 H2589 0.949 . S
H2566 C2570 0.949 . S
C2567 C2568 1.349 . S
C2567 C2569 1.327 . S
C2567 H2590 0.950 . S
C2568 C2567 1.349 . S
C2568 C2580 1.349 . S
C2569 C2567 1.327 . S
C2569 C2585 1.429 . S
C2569 H2591 0.950 . S
C2570 H2566 0.949 . S
C2570 C2578 1.574 . S
C2570 C2586 1.368 . S
H2571 C2579 0.950 . S
H2572 C2577 0.950 . S
H2573 C2578 0.949 . S
H2574 C2580 0.950 . S
H2575 C2581 0.950 . S
H2576 C2582 0.949 . S
C2577 H2572 0.950 . S
C2577 C2579 1.327 . S
C2577 C2583 1.429 . S
C2578 C2570 1.574 . S
C2578 H2573 0.949 . S
C2578 C2584 1.368 . S
C2579 C2563 1.349 . S
C2579 H2571 0.950 . S
C2579 C2577 1.327 . S
C2580 C2568 1.349 . S
C2580 H2574 0.950 . S
C2580 C2581 1.327 . S
C2581 H2575 0.950 . S
C2581 C2580 1.327 . S
C2581 C2585 1.429 . S
C2582 C2565 1.574 . S
C2582 H2576 0.949 . S
C2582 C2586 1.368 . S
C2583 C2564 1.429 . S
C2583 C2577 1.429 . S
C2583 C2584 1.523 . S
C2584 C2565 1.368 . S
C2584 C2578 1.368 . S
C2584 C2583 1.523 . S
C2585 C2569 1.429 . S
C2585 C2581 1.429 . S
C2585 C2586 1.523 . S
C2586 C2570 1.368 . S
C2586 C2582 1.368 . S
C2586 C2585 1.523 . S
H2587 C2562 0.950 . S
H2588 C2564 0.950 . S
H2589 C2565 0.949 . S
H2590 C2567 0.950 . S
H2591 C2569 0.950 . S
C2592 C2593 1.349 . S
C2592 C2594 1.327 . S
C2592 H2617 0.950 . S
C2593 C2592 1.349 . S
C2593 C2609 1.349 . S
C2594 C2592 1.327 . S
C2594 C2613 1.429 . S
C2594 H2618 0.950 . S
C2595 C2612 1.574 . S
C2595 C2614 1.368 . S
C2595 H2619 0.949 . S
H2596 C2600 0.949 . S
C2597 C2598 1.349 . S
C2597 C2599 1.327 . S
C2597 H2620 0.950 . S
C2598 C2597 1.349 . S
C2598 C2610 1.349 . S
C2599 C2597 1.327 . S
C2599 C2615 1.429 . S
C2599 H2621 0.950 . S
C2600 H2596 0.949 . S
C2600 C2608 1.574 . S
C2600 C2616 1.368 . S
H2601 C2609 0.950 . S
H2602 C2607 0.950 . S
H2603 C2608 0.949 . S
H2604 C2610 0.950 . S
H2605 C2611 0.950 . S
H2606 C2612 0.949 . S
C2607 H2602 0.950 . S
C2607 C2609 1.327 . S
C2607 C2613 1.429 . S
C2608 C2600 1.574 . S
C2608 H2603 0.949 . S
C2608 C2614 1.368 . S
C2609 C2593 1.349 . S
C2609 H2601 0.950 . S
C2609 C2607 1.327 . S
C2610 C2598 1.349 . S
C2610 H2604 0.950 . S
C2610 C2611 1.327 . S
C2611 H2605 0.950 . S
C2611 C2610 1.327 . S
C2611 C2615 1.429 . S
C2612 C2595 1.574 . S
C2612 H2606 0.949 . S
C2612 C2616 1.368 . S
C2613 C2594 1.429 . S
C2613 C2607 1.429 . S
C2613 C2614 1.523 . S
C2614 C2595 1.368 . S
C2614 C2608 1.368 . S
C2614 C2613 1.523 . S
C2615 C2599 1.429 . S
C2615 C2611 1.429 . S
C2615 C2616 1.523 . S
C2616 C2600 1.368 . S
C2616 C2612 1.368 . S
C2616 C2615 1.523 . S
H2617 C2592 0.950 . S
H2618 C2594 0.950 . S
H2619 C2595 0.949 . S
H2620 C2597 0.950 . S
H2621 C2599 0.950 . S
C2622 C2623 1.349 . S
C2622 C2624 1.327 . S
C2622 H2647 0.950 . S
C2623 C2622 1.349 . S
C2623 C2639 1.349 . S
C2624 C2622 1.327 . S
C2624 C2643 1.429 . S
C2624 H2648 0.950 . S
C2625 C2642 1.574 . S
C2625 C2644 1.368 . S
C2625 H2649 0.949 . S
H2626 C2630 0.949 . S
C2627 C2628 1.349 . S
C2627 C2629 1.327 . S
C2627 H2650 0.950 . S
C2628 C2627 1.349 . S
C2628 C2640 1.349 . S
C2629 C2627 1.327 . S
C2629 C2645 1.429 . S
C2629 H2651 0.950 . S
C2630 H2626 0.949 . S
C2630 C2638 1.574 . S
C2630 C2646 1.368 . S
H2631 C2639 0.950 . S
H2632 C2637 0.950 . S
H2633 C2638 0.949 . S
H2634 C2640 0.950 . S
H2635 C2641 0.950 . S
H2636 C2642 0.949 . S
C2637 H2632 0.950 . S
C2637 C2639 1.327 . S
C2637 C2643 1.429 . S
C2638 C2630 1.574 . S
C2638 H2633 0.949 . S
C2638 C2644 1.368 . S
C2639 C2623 1.349 . S
C2639 H2631 0.950 . S
C2639 C2637 1.327 . S
C2640 C2628 1.349 . S
C2640 H2634 0.950 . S
C2640 C2641 1.327 . S
C2641 H2635 0.950 . S
C2641 C2640 1.327 . S
C2641 C2645 1.429 . S
C2642 C2625 1.574 . S
C2642 H2636 0.949 . S
C2642 C2646 1.368 . S
C2643 C2624 1.429 . S
C2643 C2637 1.429 . S
C2643 C2644 1.523 . S
C2644 C2625 1.368 . S
C2644 C2638 1.368 . S
C2644 C2643 1.523 . S
C2645 C2629 1.429 . S
C2645 C2641 1.429 . S
C2645 C2646 1.523 . S
C2646 C2630 1.368 . S
C2646 C2642 1.368 . S
C2646 C2645 1.523 . S
H2647 C2622 0.950 . S
H2648 C2624 0.950 . S
H2649 C2625 0.949 . S
H2650 C2627 0.950 . S
H2651 C2629 0.950 . S
C2652 C2653 1.349 . S
C2652 C2654 1.327 . S
C2652 H2677 0.950 . S
C2653 C2652 1.349 . S
C2653 C2669 1.349 . S
C2654 C2652 1.327 . S
C2654 C2673 1.429 . S
C2654 H2678 0.950 . S
C2655 C2672 1.574 . S
C2655 C2674 1.368 . S
C2655 H2679 0.949 . S
H2656 C2660 0.949 . S
C2657 C2658 1.349 . S
C2657 C2659 1.327 . S
C2657 H2680 0.950 . S
C2658 C2657 1.349 . S
C2658 C2670 1.349 . S
C2659 C2657 1.327 . S
C2659 C2675 1.429 . S
C2659 H2681 0.950 . S
C2660 H2656 0.949 . S
C2660 C2668 1.574 . S
C2660 C2676 1.368 . S
H2661 C2669 0.950 . S
H2662 C2667 0.950 . S
H2663 C2668 0.949 . S
H2664 C2670 0.950 . S
H2665 C2671 0.950 . S
H2666 C2672 0.949 . S
C2667 H2662 0.950 . S
C2667 C2669 1.327 . S
C2667 C2673 1.429 . S
C2668 C2660 1.574 . S
C2668 H2663 0.949 . S
C2668 C2674 1.368 . S
C2669 C2653 1.349 . S
C2669 H2661 0.950 . S
C2669 C2667 1.327 . S
C2670 C2658 1.349 . S
C2670 H2664 0.950 . S
C2670 C2671 1.327 . S
C2671 H2665 0.950 . S
C2671 C2670 1.327 . S
C2671 C2675 1.429 . S
C2672 C2655 1.574 . S
C2672 H2666 0.949 . S
C2672 C2676 1.368 . S
C2673 C2654 1.429 . S
C2673 C2667 1.429 . S
C2673 C2674 1.523 . S
C2674 C2655 1.368 . S
C2674 C2668 1.368 . S
C2674 C2673 1.523 . S
C2675 C2659 1.429 . S
C2675 C2671 1.429 . S
C2675 C2676 1.523 . S
C2676 C2660 1.368 . S
C2676 C2672 1.368 . S
C2676 C2675 1.523 . S
H2677 C2652 0.950 . S
H2678 C2654 0.950 . S
H2679 C2655 0.949 . S
H2680 C2657 0.950 . S
H2681 C2659 0.950 . S
C2682 C2683 1.349 . S
C2682 C2684 1.327 . S
C2682 H2707 0.950 . S
C2683 C2682 1.349 . S
C2683 C2699 1.349 . S
C2684 C2682 1.327 . S
C2684 C2703 1.429 . S
C2684 H2708 0.950 . S
C2685 C2702 1.574 . S
C2685 C2704 1.368 . S
C2685 H2709 0.949 . S
H2686 C2690 0.949 . S
C2687 C2688 1.349 . S
C2687 C2689 1.327 . S
C2687 H2710 0.950 . S
C2688 C2687 1.349 . S
C2688 C2700 1.349 . S
C2689 C2687 1.327 . S
C2689 C2705 1.429 . S
C2689 H2711 0.950 . S
C2690 H2686 0.949 . S
C2690 C2698 1.574 . S
C2690 C2706 1.368 . S
H2691 C2699 0.950 . S
H2692 C2697 0.950 . S
H2693 C2698 0.949 . S
H2694 C2700 0.950 . S
H2695 C2701 0.950 . S
H2696 C2702 0.949 . S
C2697 H2692 0.950 . S
C2697 C2699 1.327 . S
C2697 C2703 1.429 . S
C2698 C2690 1.574 . S
C2698 H2693 0.949 . S
C2698 C2704 1.368 . S
C2699 C2683 1.349 . S
C2699 H2691 0.950 . S
C2699 C2697 1.327 . S
C2700 C2688 1.349 . S
C2700 H2694 0.950 . S
C2700 C2701 1.327 . S
C2701 H2695 0.950 . S
C2701 C2700 1.327 . S
C2701 C2705 1.429 . S
C2702 C2685 1.574 . S
C2702 H2696 0.949 . S
C2702 C2706 1.368 . S
C2703 C2684 1.429 . S
C2703 C2697 1.429 . S
C2703 C2704 1.523 . S
C2704 C2685 1.368 . S
C2704 C2698 1.368 . S
C2704 C2703 1.523 . S
C2705 C2689 1.429 . S
C2705 C2701 1.429 . S
C2705 C2706 1.523 . S
C2706 C2690 1.368 . S
C2706 C2702 1.368 . S
C2706 C2705 1.523 . S
H2707 C2682 0.950 . S
H2708 C2684 0.950 . S
H2709 C2685 0.949 . S
H2710 C2687 0.950 . S
H2711 C2689 0.950 . S
C1273 C410 1.347 . S
C1278 C29 1.294 . S
C1303 C82 0.547 . S
C1308 C241 0.530 . S
C1333 C304 1.193 . S
C1338 C135 1.164 . S
C1363 C188 0.689 . S
C1368 C347 0.677 . S
C1393 C463 1.929 . S
C1398 C39 1.997 . S
C1423 C92 1.076 . S
C1428 C506 1.075 . S
C1453 C569 1.867 . S
C1458 C145 1.940 . S
C1483 C612 0.901 . S
C1488 C198 0.902 . S
C1513 C251 1.306 . S
C1518 C516 1.314 . S
C1543 C294 0.939 . S
C1548 C559 0.964 . S
C1573 C622 1.432 . S
C1578 C357 1.402 . S
C1603 C453 1.080 . S
C1608 C400 1.048 . S
C1633 C1142 1.315 . S
C1638 C675 1.268 . S
C1663 C728 1.455 . S
C1668 C1205 1.430 . S
C1693 C781 1.027 . S
C1698 C1248 1.048 . S
C1723 C1258 1.584 . S
C1728 C834 1.624 . S
C1753 C887 1.738 . S
C1758 C1152 1.722 . S
C1783 C1046 0.968 . S
C1788 C930 0.979 . S
C1813 C665 0.929 . S
C1818 C877 0.919 . S
C1843 C718 0.542 . S
C1848 C993 0.552 . S
C1873 C771 1.144 . S
C1878 C824 1.126 . S
C1903 C940 1.544 . S
C1908 C1099 1.554 . S
C1933 C983 0.675 . S
C1938 C1195 0.673 . S
C1963 C1089 0.649 . S
C1968 C1036 0.651 . S
C1993 C234 2.527 . S
C1998 C22 2.464 . S
C2023 C303 1.612 . S
C2028 C75 1.550 . S
C2053 C340 2.715 . S
C2058 C128 2.653 . S
C2083 C409 2.456 . S
C2088 C181 2.404 . S
C2113 C462 3.041 . S
C2118 C621 3.116 . S
C2143 C499 2.457 . S
C2148 C446 2.505 . S
C2173 C568 2.582 . S
C2178 C515 2.646 . S
C2203 C552 1.760 . S
C2208 C605 1.707 . S
C2233 C976 2.760 . S
C2238 C393 2.654 . S
C2263 C674 2.363 . S
C2268 C197 2.448 . S
C2293 C38 2.564 . S
C2298 C727 2.536 . S
C2323 C91 3.273 . S
C2328 C780 3.199 . S
C2353 C287 2.415 . S
C2358 C1029 2.489 . S
C2383 C250 1.797 . S
C2388 C833 1.822 . S
C2413 C356 1.892 . S
C2418 C886 1.926 . S
C2443 C870 2.348 . S
C2448 C923 2.408 . S
C2473 C658 1.437 . S
C2478 C992 1.402 . S
C2503 C817 2.239 . S
C2508 C711 2.333 . S
C2533 C1045 2.840 . S
C2538 C764 2.862 . S
C2563 C1098 2.470 . S
C2568 C1257 2.438 . S
C2593 C1082 2.440 . S
C2598 C1135 2.492 . S
C2623 C1204 2.878 . S
C2628 C1151 2.839 . S
C2653 C1241 1.725 . S
C2658 C1188 1.657 . S
C2683 C144 2.821 . S
C2688 C939 2.771 . S
